# Generated by pormake.
# Topology anh, (6,3)-cn, num edge types: 1
# Building blocks:
#     Node 0, Type 0, BuildingBlock: BETFAJ_clean_sbu_0, # of connection points: 6
#     Node 1, Type 0, BuildingBlock: BETFAJ_clean_sbu_0, # of connection points: 6
#     Node 2, Type 0, BuildingBlock: BETFAJ_clean_sbu_0, # of connection points: 6
#     Node 3, Type 1, BuildingBlock: ESEHIV_clean_linker_0, # of connection points: 3
#     Node 4, Type 1, BuildingBlock: ESEHIV_clean_linker_0, # of connection points: 3
#     Node 5, Type 1, BuildingBlock: ESEHIV_clean_linker_0, # of connection points: 3
#     Node 6, Type 1, BuildingBlock: ESEHIV_clean_linker_0, # of connection points: 3
#     Node 7, Type 1, BuildingBlock: ESEHIV_clean_linker_0, # of connection points: 3
#     Node 8, Type 1, BuildingBlock: ESEHIV_clean_linker_0, # of connection points: 3
#     Edge 9, Type (0, 1), BuildingBlock: XIVTED_clean_linker_0, # of connection points: 2
#     Edge 10, Type (0, 1), BuildingBlock: XIVTED_clean_linker_0, # of connection points: 2
#     Edge 11, Type (0, 1), BuildingBlock: XIVTED_clean_linker_0, # of connection points: 2
#     Edge 12, Type (0, 1), BuildingBlock: XIVTED_clean_linker_0, # of connection points: 2
#     Edge 13, Type (0, 1), BuildingBlock: XIVTED_clean_linker_0, # of connection points: 2
#     Edge 14, Type (0, 1), BuildingBlock: XIVTED_clean_linker_0, # of connection points: 2
#     Edge 15, Type (0, 1), BuildingBlock: XIVTED_clean_linker_0, # of connection points: 2
#     Edge 16, Type (0, 1), BuildingBlock: XIVTED_clean_linker_0, # of connection points: 2
#     Edge 17, Type (0, 1), BuildingBlock: XIVTED_clean_linker_0, # of connection points: 2
#     Edge 18, Type (0, 1), BuildingBlock: XIVTED_clean_linker_0, # of connection points: 2
#     Edge 19, Type (0, 1), BuildingBlock: XIVTED_clean_linker_0, # of connection points: 2
#     Edge 20, Type (0, 1), BuildingBlock: XIVTED_clean_linker_0, # of connection points: 2
#     Edge 21, Type (0, 1), BuildingBlock: XIVTED_clean_linker_0, # of connection points: 2
#     Edge 22, Type (0, 1), BuildingBlock: XIVTED_clean_linker_0, # of connection points: 2
#     Edge 23, Type (0, 1), BuildingBlock: XIVTED_clean_linker_0, # of connection points: 2
#     Edge 24, Type (0, 1), BuildingBlock: XIVTED_clean_linker_0, # of connection points: 2
#     Edge 25, Type (0, 1), BuildingBlock: XIVTED_clean_linker_0, # of connection points: 2
#     Edge 26, Type (0, 1), BuildingBlock: XIVTED_clean_linker_0, # of connection points: 2
# Relax obj value: 0.216
# Max RMSD: 0.226
# Mean RMSD: 0.165
data_MOF--net-anh--node1-BETFAJ_clean_sbu_0--node2-ESEHIV_clean_linker_0--edge1-XIVTED_clean_linker_0
_symmetry_space_group_name_H-M    P1
_symmetry_Int_Tables_number       1
_symmetry_cell_setting            triclinic
loop_
_symmetry_equiv_pos_as_xyz
'x, y, z'
_cell_length_a     28.446428
_cell_length_b     35.61141
_cell_length_c     52.645437
_cell_angle_alpha  92.926556
_cell_angle_beta   88.897854
_cell_angle_gamma 130.30958
loop_
_atom_site_label
_atom_site_type_symbol
_atom_site_fract_x
_atom_site_fract_y
_atom_site_fract_z
_atom_type_partial_charge
Sm0 Sm 0.15486 0.52771 0.13533 0.0
Sm1 Sm 1.0711 0.5481 0.15201 0.0
C2 C 0.24243 0.53118 0.11421 0.0
C3 C 0.30931 0.5647 0.11837 0.0
C4 C 0.34669 0.56701 0.09979 0.0
C5 C 0.40885 0.59269 0.10519 0.0
C6 C 0.43428 0.61602 0.12939 0.0
C7 C 0.39775 0.61716 0.14718 0.0
C8 C 0.33563 0.5918 0.14166 0.0
C9 C 0.13129 0.51922 0.18645 0.0
C10 C 0.21665 0.64361 0.14858 0.0
C11 C 0.99601 0.5553 0.17656 0.0
C12 C 0.92891 0.51523 0.17741 0.0
C13 C 0.89743 0.50364 0.20044 0.0
C14 C 0.83627 0.45966 0.20205 0.0
C15 C 0.80648 0.42637 0.18076 0.0
C16 C 0.83816 0.43869 0.15775 0.0
C17 C 0.89847 0.48243 0.15611 0.0
C18 C 1.06548 0.52611 0.10037 0.0
C19 C 1.01219 0.43459 0.14113 0.0
O20 O 0.22055 0.5498 0.10395 0.0
O21 O 0.20963 0.50361 0.13312 0.0
O22 O 0.1424 0.55256 0.17321 0.0
O23 O 0.13464 0.48953 0.17298 0.0
O24 O 0.22598 0.61185 0.1447 0.0
O25 O 0.16058 0.62879 0.15105 0.0
O26 O 1.02715 0.54537 0.18786 0.0
O27 O 1.01859 0.57465 0.1544 0.0
O28 O 0.11315 0.55318 0.11421 0.0
O29 O 1.01734 0.51049 0.11352 0.0
O30 O 1.01309 0.46521 0.15672 0.0
O31 O 1.05943 0.45118 0.12622 0.0
H32 H 0.3271 0.54666 0.08165 0.0
H33 H 0.43542 0.59046 0.09116 0.0
H34 H 0.41615 0.6349 0.16591 0.0
H35 H 0.30736 0.59097 0.1561 0.0
H36 H 0.92066 0.52786 0.21728 0.0
H37 H 0.81258 0.45138 0.21992 0.0
H38 H 0.81605 0.41474 0.14075 0.0
H39 H 0.92182 0.4898 0.13824 0.0
Sm40 Sm 0.6557 0.02403 0.46323 0.0
Sm41 Sm 0.57368 0.04685 0.45591 0.0
C42 C 0.70895 0.98868 0.47724 0.0
C43 C 0.69265 0.94199 0.48466 0.0
C44 C 0.67569 0.92666 0.5097 0.0
C45 C 0.66492 0.88451 0.51698 0.0
C46 C 0.67097 0.8568 0.49942 0.0
C47 C 0.68649 0.87146 0.47425 0.0
C48 C 0.69753 0.91375 0.46699 0.0
C49 C 0.64955 0.04214 0.41389 0.0
C50 C 0.50659 0.93283 0.45359 0.0
C51 C 0.52274 0.08497 0.44391 0.0
C52 C 0.53531 0.13051 0.45293 0.0
C53 C 0.51619 0.15068 0.43855 0.0
C54 C 0.52936 0.19457 0.4471 0.0
C55 C 0.56184 0.21893 0.47022 0.0
C56 C 0.5809 0.19833 0.48448 0.0
C57 C 0.56811 0.15479 0.47584 0.0
C58 C 0.58344 0.03164 0.50556 0.0
C59 C 0.72513 0.13949 0.46293 0.0
O60 O 0.69644 0.01052 0.49317 0.0
O61 O 0.69896 0.99116 0.4535 0.0
O62 O 0.60368 0.01611 0.42818 0.0
O63 O 0.70013 0.05839 0.42523 0.0
O64 O 0.55688 0.94788 0.46573 0.0
O65 O 0.50499 0.96501 0.44332 0.0
O66 O 0.56637 0.09111 0.43062 0.0
O67 O 0.49995 0.05154 0.46074 0.0
O68 O 0.62771 0.05682 0.49057 0.0
O69 O 0.53205 0.01474 0.49484 0.0
O70 O 0.67071 0.12461 0.45611 0.0
O71 O 0.73176 0.10775 0.46922 0.0
H72 H 0.6717 0.94761 0.52384 0.0
H73 H 0.65234 0.87382 0.53645 0.0
H74 H 0.69222 0.85123 0.46036 0.0
H75 H 0.7112 0.92491 0.44763 0.0
H76 H 0.49136 0.13264 0.42067 0.0
H77 H 0.51468 0.20965 0.43545 0.0
H78 H 0.60498 0.21538 0.50256 0.0
H79 H 0.58365 0.13992 0.48714 0.0
Sm80 Sm 0.63779 0.56246 0.83272 0.0
Sm81 Sm 0.54938 0.4522 0.83572 0.0
C82 C 0.6954 0.65396 0.81987 0.0
C83 C 0.68041 0.6847 0.81211 0.0
C84 C 0.65999 0.68058 0.7872 0.0
C85 C 0.64831 0.71111 0.77984 0.0
C86 C 0.65679 0.74656 0.79717 0.0
C87 C 0.6769 0.75042 0.82212 0.0
C88 C 0.68878 0.72001 0.82946 0.0
C89 C 0.62219 0.53045 0.88069 0.0
C90 C 0.48655 0.50241 0.83864 0.0
C91 C 0.49542 0.35982 0.8447 0.0
C92 C 0.50984 0.32841 0.83586 0.0
C93 C 0.48991 0.2876 0.84936 0.0
C94 C 0.50497 0.25854 0.84108 0.0
C95 C 0.54023 0.26982 0.8191 0.0
C96 C 0.5602 0.31106 0.80575 0.0
C97 C 0.5455 0.34015 0.81413 0.0
C98 C 0.56801 0.48407 0.78732 0.0
C99 C 0.70255 0.51341 0.83431 0.0
O100 O 0.68191 0.61888 0.80371 0.0
O101 O 0.68474 0.6409 0.84347 0.0
O102 O 0.57955 0.51246 0.8645 0.0
O103 O 0.6751 0.56861 0.87244 0.0
O104 O 0.54027 0.54108 0.82968 0.0
O105 O 0.48019 0.46436 0.84615 0.0
O106 O 0.53612 0.39705 0.86028 0.0
O107 O 0.47605 0.37189 0.82712 0.0
O108 O 0.60958 0.50187 0.80401 0.0
O109 O 0.5146 0.44696 0.79556 0.0
O110 O 0.64571 0.47186 0.83807 0.0
O111 O 0.71245 0.55428 0.82975 0.0
H112 H 0.65363 0.65417 0.77323 0.0
H113 H 0.63394 0.70759 0.76035 0.0
H114 H 0.68325 0.77684 0.83608 0.0
H115 H 0.7049 0.72434 0.84873 0.0
H116 H 0.46298 0.27836 0.86637 0.0
H117 H 0.48955 0.2276 0.85208 0.0
H118 H 0.5865 0.32057 0.78854 0.0
H119 H 0.56185 0.37183 0.80354 0.0
H120 H 0.5505 0.96819 0.22097 0.0
H121 H 0.69732 0.12521 0.22141 0.0
H122 H 0.61848 0.0407 0.15021 0.0
C123 C 0.5818 1.00179 0.21085 0.0
C124 C 0.57927 0.99917 0.18419 0.0
C125 C 0.6243 0.04696 0.2245 0.0
C126 C 0.66476 0.08997 0.21104 0.0
C127 C 0.66339 0.08821 0.1843 0.0
C128 C 0.62049 0.04246 0.17081 0.0
H129 H 0.62657 0.59735 0.60157 0.0
H130 H 0.61817 0.47267 0.5936 0.0
H131 H 0.6343 0.54562 0.52707 0.0
C132 C 0.62687 0.57195 0.58946 0.0
C133 C 0.63226 0.5768 0.56301 0.0
C134 C 0.62222 0.53479 0.60057 0.0
C135 C 0.62263 0.50187 0.58504 0.0
C136 C 0.62581 0.50496 0.55846 0.0
C137 C 0.63036 0.54242 0.54751 0.0
H138 H 1.01657 0.51352 0.90422 0.0
H139 H 0.1587 0.50344 0.90829 0.0
H140 H 0.09476 0.50586 0.83513 0.0
C141 C 1.04852 0.5108 0.89474 0.0
C142 C 1.05003 0.50974 0.86806 0.0
C143 C 0.08745 0.50873 0.90938 0.0
C144 C 0.1292 0.50571 0.897 0.0
C145 C 0.13319 0.50484 0.87031 0.0
C146 C 0.09315 0.50706 0.8557 0.0
H147 H 1.0386 0.44474 0.38156 0.0
H148 H 0.17772 0.60206 0.37867 0.0
H149 H 0.11293 0.53565 0.4511 0.0
C150 C 1.07032 0.48086 0.3912 0.0
C151 C 1.07154 0.48495 0.41793 0.0
C152 C 0.10769 0.52291 0.37685 0.0
C153 C 0.14744 0.56944 0.38959 0.0
C154 C 0.15008 0.57466 0.41626 0.0
C155 C 0.11175 0.53211 0.43051 0.0
H156 H 0.61219 0.07924 0.70006 0.0
H157 H 0.61526 0.96021 0.69333 0.0
H158 H 0.60907 0.01408 0.76742 0.0
C159 C 0.6133 0.05303 0.70898 0.0
C160 C 0.61071 0.05079 0.73559 0.0
C161 C 0.61403 0.02001 0.69367 0.0
C162 C 0.61345 0.98505 0.70518 0.0
C163 C 0.61263 0.98303 0.73182 0.0
C164 C 0.61074 0.01584 0.7469 0.0
H165 H 0.59117 0.49516 0.06352 0.0
H166 H 0.53917 0.35206 0.0563 0.0
H167 H 0.56055 0.41906 0.13061 0.0
C168 C 0.57931 0.46337 0.07254 0.0
C169 C 0.57608 0.46142 0.09908 0.0
C170 C 0.56663 0.42441 0.05719 0.0
C171 C 0.54827 0.38185 0.0683 0.0
C172 C 0.54517 0.37918 0.09496 0.0
C173 C 0.5594 0.41935 0.11008 0.0
H174 H 0.54353 0.66549 0.10385 0.0
H175 H 0.51927 0.4557 0.14331 0.0
H176 H 0.45602 0.59114 0.17305 0.0
H177 H 0.65973 0.56141 0.09177 0.0
H178 H 0.52068 0.51927 0.16308 0.0
H179 H 0.61289 0.64797 0.10761 0.0
C180 C 0.54061 0.64725 0.1204 0.0
C181 C 0.49216 0.62764 0.13747 0.0
C182 C 0.55237 0.52911 0.14783 0.0
C183 C 0.5697 0.60613 0.14153 0.0
C184 C 0.55165 0.49255 0.13647 0.0
C185 C 0.58742 0.50243 0.115 0.0
C186 C 0.58746 0.57539 0.13711 0.0
C187 C 0.62874 0.55129 0.10735 0.0
C188 C 0.58016 0.63709 0.12256 0.0
C189 C 0.49155 0.60563 0.15898 0.0
N190 N 0.62622 0.58557 0.11784 0.0
N191 N 0.52817 0.59378 0.15992 0.0
H192 H 0.84722 0.18225 0.46149 0.0
H193 H 0.97312 0.45701 0.44659 0.0
H194 H 0.72868 0.21832 0.46171 0.0
H195 H 1.06968 0.4076 0.41932 0.0
H196 H 0.89064 0.37423 0.46191 0.0
H197 H 0.93613 0.26908 0.45547 0.0
C198 C 0.83991 0.20847 0.46063 0.0
C199 C 0.78019 0.19276 0.46195 0.0
C200 C 0.93041 0.38178 0.45297 0.0
C201 C 0.88206 0.29244 0.45517 0.0
C202 C 0.97768 0.42908 0.44449 0.0
C203 C 1.02834 0.43909 0.43188 0.0
C204 C 0.93425 0.34446 0.44901 0.0
C205 C 1.0315 0.40135 0.42912 0.0
C206 C 0.89071 0.25802 0.45708 0.0
C207 C 0.77373 0.22858 0.46059 0.0
N208 N 0.98511 0.35575 0.43754 0.0
N209 N 0.82392 0.27663 0.45724 0.0
H210 H 0.56569 0.72464 0.76522 0.0
H211 H 0.6828 0.99901 0.77276 0.0
H212 H 0.72313 0.84495 0.81053 0.0
H213 H 0.54785 0.88545 0.71779 0.0
H214 H 0.69036 0.94066 0.79029 0.0
H215 H 0.55167 0.78094 0.75072 0.0
C216 C 0.59748 0.76289 0.77209 0.0
C217 C 0.64595 0.77998 0.78904 0.0
C218 C 0.65894 0.92846 0.77445 0.0
C219 C 0.62948 0.84466 0.77273 0.0
C220 C 0.65429 0.96166 0.76455 0.0
C221 C 0.61485 0.94717 0.74369 0.0
C222 C 0.62359 0.88027 0.76354 0.0
C223 C 0.57948 0.89841 0.73365 0.0
C224 C 0.58919 0.79499 0.76388 0.0
C225 C 0.68472 0.82983 0.79769 0.0
N226 N 0.58474 0.86678 0.74363 0.0
N227 N 0.67574 0.86036 0.78939 0.0
H228 H 0.751 0.33322 0.16053 0.0
H229 H 0.59156 0.33388 0.08026 0.0
H230 H 0.71063 0.41759 0.20092 0.0
H231 H 0.48371 0.33376 0.13902 0.0
H232 H 0.62167 0.30264 0.10954 0.0
H233 H 0.64529 0.27666 0.14353 0.0
C234 C 0.7192 0.33883 0.16655 0.0
C235 C 0.74038 0.38179 0.18084 0.0
C236 C 0.58912 0.30713 0.11597 0.0
C237 C 0.6208 0.31828 0.16115 0.0
C238 C 0.57174 0.32518 0.09901 0.0
C239 C 0.53826 0.33954 0.10768 0.0
C240 C 0.57478 0.30539 0.14187 0.0
C241 C 0.51299 0.32613 0.13207 0.0
C242 C 0.65896 0.30658 0.1568 0.0
C243 C 0.69687 0.38604 0.1891 0.0
N244 N 0.5342 0.31208 0.14877 0.0
N245 N 0.63944 0.35557 0.17843 0.0
H246 H 0.4926 0.85449 0.47114 0.0
H247 H 0.15443 0.65185 0.40907 0.0
H248 H 0.39426 0.88871 0.43122 0.0
H249 H 0.24746 0.61334 0.44918 0.0
H250 H 0.23834 0.73872 0.42099 0.0
H251 H 0.4016 0.76663 0.46644 0.0
C252 C 0.45192 0.84366 0.46145 0.0
C253 C 0.45146 0.8793 0.45143 0.0
C254 C 0.24031 0.71143 0.42755 0.0
C255 C 0.3468 0.7785 0.44609 0.0
C256 C 0.19211 0.66176 0.42089 0.0
C257 C 0.19393 0.62538 0.42822 0.0
C258 C 0.29153 0.72527 0.44144 0.0
C259 C 0.24404 0.64023 0.44335 0.0
C260 C 0.39988 0.79341 0.45883 0.0
C261 C 0.39717 0.86281 0.43915 0.0
N262 N 0.29127 0.68911 0.44921 0.0
N263 N 0.34738 0.81383 0.43678 0.0
H264 H 0.64714 0.29912 0.79696 0.0
H265 H 0.53025 0.02622 0.77402 0.0
H266 H 0.46826 0.16891 0.81989 0.0
H267 H 0.67859 0.15026 0.73254 0.0
H268 H 0.51643 0.08006 0.79701 0.0
H269 H 0.66802 0.24679 0.77894 0.0
C270 C 0.6121 0.25956 0.7982 0.0
C271 C 0.55541 0.23853 0.80975 0.0
C272 C 0.55223 0.09552 0.78299 0.0
C273 C 0.57984 0.17836 0.78952 0.0
C274 C 0.56044 0.06492 0.77001 0.0
C275 C 0.60546 0.08379 0.75127 0.0
C276 C 0.58977 0.14545 0.77739 0.0
C277 C 0.6429 0.13412 0.74665 0.0
C278 C 0.6243 0.22972 0.78801 0.0
C279 C 0.51275 0.18699 0.81138 0.0
N280 N 0.6342 0.16317 0.75958 0.0
N281 N 0.52575 0.15872 0.8013 0.0
H282 H 0.61151 0.76613 0.47463 0.0
H283 H 0.70693 0.67263 0.58115 0.0
H284 H 0.7164 0.85125 0.54294 0.0
H285 H 0.57846 0.57648 0.51986 0.0
H286 H 0.7166 0.74015 0.56507 0.0
H287 H 0.604 0.69778 0.48869 0.0
C288 C 0.633 0.77045 0.49255 0.0
C289 C 0.66436 0.81437 0.50771 0.0
C290 C 0.68623 0.70435 0.55508 0.0
C291 C 0.65607 0.73656 0.52383 0.0
C292 C 0.68051 0.66566 0.56431 0.0
C293 C 0.64112 0.61859 0.55205 0.0
C294 C 0.65253 0.69624 0.53328 0.0
C295 C 0.6094 0.61218 0.52989 0.0
C296 C 0.62851 0.73141 0.50059 0.0
C297 C 0.69096 0.81784 0.53083 0.0
N298 N 0.61555 0.65056 0.52126 0.0
N299 N 0.68631 0.77957 0.53812 0.0
H300 H 0.82855 0.59287 0.83402 0.0
H301 H 0.93223 0.43086 0.85177 0.0
H302 H 0.7 0.43474 0.83814 0.0
H303 H 1.05943 0.58936 0.85747 0.0
H304 H 0.8487 0.4315 0.84152 0.0
H305 H 0.91412 0.59235 0.83807 0.0
C306 C 0.81801 0.55792 0.83562 0.0
C307 C 0.75614 0.5138 0.83577 0.0
C308 C 0.89505 0.46628 0.84445 0.0
C309 C 0.85531 0.51295 0.84037 0.0
C310 C 0.94314 0.4659 0.84991 0.0
C311 C 1.00382 0.51013 0.85466 0.0
C312 C 0.90692 0.51131 0.84393 0.0
C313 C 1.01406 0.55436 0.85316 0.0
C314 C 0.86723 0.55769 0.83799 0.0
C315 C 0.74642 0.46986 0.838 0.0
N316 N 0.96651 0.55382 0.84803 0.0
N317 N 0.79498 0.47061 0.84019 0.0
H318 H 0.21798 0.72159 0.1528 0.0
H319 H 0.58352 0.92585 0.17354 0.0
H320 H 0.33955 0.68839 0.14874 0.0
H321 H 0.46503 0.96091 0.16801 0.0
H322 H 0.49585 0.83932 0.16172 0.0
H323 H 0.30802 0.80948 0.15659 0.0
C324 C 0.26353 0.73268 0.15268 0.0
C325 C 0.27093 0.69728 0.1506 0.0
C326 C 0.48911 0.86599 0.16257 0.0
C327 C 0.37462 0.79827 0.15489 0.0
C328 C 0.53928 0.9154 0.16906 0.0
C329 C 0.53147 0.95044 0.17122 0.0
C330 C 0.43039 0.85139 0.15874 0.0
C331 C 0.47297 0.935 0.16602 0.0
C332 C 0.31502 0.78299 0.15474 0.0
C333 C 0.33134 0.71415 0.1504 0.0
N334 N 0.42451 0.88654 0.16026 0.0
N335 N 0.38068 0.76328 0.15267 0.0
H336 H 0.48838 0.24372 0.46683 0.0
H337 H 0.6939 0.47653 0.56382 0.0
H338 H 0.66567 0.29988 0.49557 0.0
H339 H 0.55113 0.44946 0.51695 0.0
H340 H 0.68247 0.41041 0.5397 0.0
H341 H 0.50873 0.31751 0.48526 0.0
C342 C 0.53189 0.27171 0.47672 0.0
C343 C 0.57507 0.26511 0.47981 0.0
C344 C 0.65402 0.41919 0.5345 0.0
C345 C 0.59802 0.34933 0.5014 0.0
C346 C 0.66041 0.45678 0.54831 0.0
C347 C 0.62323 0.46824 0.54239 0.0
C348 C 0.60939 0.39225 0.51487 0.0
C349 C 0.58084 0.44183 0.52201 0.0
C350 C 0.54331 0.31378 0.48734 0.0
C351 C 0.63026 0.30258 0.49318 0.0
N352 N 0.57452 0.40462 0.50914 0.0
N353 N 0.63985 0.34275 0.50365 0.0
H354 H 0.48115 0.57441 0.82582 0.0
H355 H 0.13339 0.42872 0.87448 0.0
H356 H 0.36857 0.43014 0.85627 0.0
H357 H 0.24042 0.57171 0.84325 0.0
H358 H 0.21703 0.42732 0.86531 0.0
H359 H 0.39413 0.57354 0.83005 0.0
C360 C 0.43826 0.54241 0.83335 0.0
C361 C 0.43306 0.50228 0.8407 0.0
C362 C 0.22227 0.45883 0.86005 0.0
C363 C 0.33187 0.50109 0.8456 0.0
C364 C 0.17396 0.45942 0.86507 0.0
C365 C 0.17876 0.49996 0.85923 0.0
C366 C 0.27731 0.49945 0.8493 0.0
C367 C 0.23364 0.53914 0.84761 0.0
C368 C 0.38831 0.54197 0.83574 0.0
C369 C 0.37561 0.46208 0.85032 0.0
N370 N 0.2806 0.53806 0.84323 0.0
N371 N 0.32794 0.46262 0.85249 0.0
H372 H 0.99871 0.35307 0.12361 0.0
H373 H 0.6678 0.1666 0.18795 0.0
H374 H 0.89973 0.3943 0.16006 0.0
H375 H 0.75812 0.11728 0.15221 0.0
H376 H 0.74843 0.24893 0.17287 0.0
H377 H 0.9085 0.26571 0.12928 0.0
C378 C 0.95794 0.34383 0.13249 0.0
C379 C 0.9572 0.38123 0.14161 0.0
C380 C 0.75064 0.22019 0.16798 0.0
C381 C 0.8541 0.28169 0.14812 0.0
C382 C 0.70431 0.1731 0.1765 0.0
C383 C 0.70634 0.13522 0.17125 0.0
C384 C 0.80038 0.23005 0.15441 0.0
C385 C 0.75481 0.14555 0.15647 0.0
C386 C 0.90654 0.29401 0.13577 0.0
C387 C 0.90304 0.36702 0.15298 0.0
N388 N 0.80045 0.19221 0.14881 0.0
N389 N 0.85419 0.31873 0.156 0.0
H390 H 0.96757 0.47165 0.06651 0.0
H391 H 0.18317 0.55875 0.94432 0.0
H392 H 0.16603 0.5683 0.07046 0.0
H393 H 0.98455 0.46088 0.93923 0.0
H394 H 0.17712 0.56068 -0.00935 0.0
H395 H 0.97194 0.46549 0.01997 0.0
C396 C 1.01199 0.4914 0.05758 0.0
C397 C 1.0665 0.52048 0.07235 0.0
C398 C 0.13479 0.5387 0.97942 0.0
C399 C 1.072 0.51376 0.01921 0.0
C400 C 0.13821 0.53736 0.95292 0.0
C401 C 0.08431 0.50966 0.93773 0.0
C402 C 1.07701 0.51216 -0.00899 0.0
C403 C 1.02741 0.48332 0.95008 0.0
C404 C 1.01452 0.48791 0.03104 0.0
C405 C 0.12284 0.54528 0.05983 0.0
N406 N 1.02527 0.48525 0.97593 0.0
N407 N 0.12413 0.54145 0.03405 0.0
H408 H 0.74439 0.09609 0.38124 0.0
H409 H 0.52751 0.99828 0.25747 0.0
H410 H 0.54594 0.99833 0.38423 0.0
H411 H 0.72637 0.1001 0.25597 0.0
H412 H 0.53268 0.99942 0.30386 0.0
H413 H 0.73816 0.10017 0.33544 0.0
C414 C 0.69944 0.07558 0.37222 0.0
C415 C 0.64557 0.04656 0.38646 0.0
C416 C 0.57517 0.02168 0.29339 0.0
C417 C 0.63798 0.05089 0.33395 0.0
C418 C 0.57228 0.02084 0.26689 0.0
C419 C 0.62662 0.04898 0.25277 0.0
C420 C 0.63284 0.05072 0.30591 0.0
C421 C 0.6833 0.07817 0.26605 0.0
C422 C 0.69589 0.07793 0.34606 0.0
C423 C 0.58857 0.02099 0.37387 0.0
N424 N 0.6849 0.07808 0.29183 0.0
N425 N 0.58622 0.02353 0.34827 0.0
H426 H 0.67725 0.53475 0.76217 0.0
H427 H 0.5381 0.52813 0.63045 0.0
H428 H 0.48474 0.46168 0.75153 0.0
H429 H 0.6915 0.53068 0.63373 0.0
H430 H 0.5271 0.51956 0.67659 0.0
H431 H 0.69271 0.54977 0.7165 0.0
C432 C 0.63845 0.52229 0.75024 0.0
C433 C 0.57955 0.49667 0.76045 0.0
C434 C 0.56319 0.52207 0.66719 0.0
C435 C 0.59698 0.51409 0.70866 0.0
C436 C 0.5696 0.52711 0.64097 0.0
C437 C 0.6156 0.52991 0.62841 0.0
C438 C 0.60381 0.52074 0.68096 0.0
C439 C 0.65515 0.52822 0.64279 0.0
C440 C 0.64722 0.53061 0.72426 0.0
C441 C 0.53075 0.48125 0.74428 0.0
N442 N 0.64859 0.524 0.6684 0.0
N443 N 0.54057 0.49034 0.71917 0.0
H444 H 0.49325 0.96486 0.53734 0.0
H445 H 0.69165 0.09925 0.66429 0.0
H446 H 0.68804 0.08922 0.53554 0.0
H447 H 0.53498 0.94361 0.65941 0.0
H448 H 0.68711 0.10082 0.61782 0.0
H449 H 0.5031 0.96039 0.58301 0.0
C450 C 0.53811 0.99115 0.5466 0.0
C451 C 0.58988 0.02756 0.53278 0.0
C452 C 0.65407 0.0663 0.62694 0.0
C453 C 0.60129 0.02311 0.58491 0.0
C454 C 0.65644 0.06545 0.65338 0.0
C455 C 0.61362 0.02123 0.66558 0.0
C456 C 0.60768 0.02287 0.61275 0.0
C457 C 0.56902 0.97836 0.65065 0.0
C458 C 0.54373 0.98846 0.57258 0.0
C459 C 0.64703 0.0606 0.54559 0.0
N460 N 0.56675 0.98033 0.62502 0.0
N461 N 0.65113 0.05799 0.57106 0.0
H462 H 0.51521 0.4497 0.90047 0.0
H463 H 0.6744 0.49313 0.0344 0.0
H464 H 0.70975 0.56348 0.91696 0.0
H465 H 0.48196 0.37211 0.01805 0.0
H466 H 0.68928 0.5144 -0.01002 0.0
H467 H 0.50232 0.41658 0.94212 0.0
C468 C 0.55517 0.46763 0.91288 0.0
C469 C 0.61354 0.50963 0.90548 0.0
C470 C 0.64388 0.48274 -0.00411 0.0
C471 C 0.59929 0.47196 0.9529 0.0
C472 C 0.63554 0.47053 0.02119 0.0
C473 C 0.57695 0.43095 0.02967 0.0
C474 C 0.59299 0.45558 0.979 0.0
C475 C 0.52786 0.40278 0.01204 0.0
C476 C 0.54786 0.44861 0.93657 0.0
C477 C 0.66388 0.53127 0.92207 0.0
N478 N 0.53679 0.41604 0.98749 0.0
N479 N 0.65553 0.51234 0.94506 0.0
H480 H 0.13274 0.58336 0.21785 0.0
H481 H 0.10051 0.45527 0.34533 0.0
H482 H 0.11141 0.45195 0.21816 0.0
H483 H 0.10951 0.58087 0.34383 0.0
H484 H 0.10132 0.45163 0.2988 0.0
H485 H 0.1219 0.58172 0.26403 0.0
C486 C 0.12547 0.55402 0.22766 0.0
C487 C 0.12306 0.51778 0.21423 0.0
C488 C 0.10293 0.47989 0.30866 0.0
C489 C 0.11104 0.51578 0.26711 0.0
C490 C 0.10214 0.48183 0.33523 0.0
C491 C 0.10542 0.51867 0.34856 0.0
C492 C 0.10707 0.51507 0.29528 0.0
C493 C 0.1081 0.55241 0.33442 0.0
C494 C 0.11934 0.5531 0.25404 0.0
C495 C 0.11375 0.48068 0.22786 0.0
N496 N 0.1091 0.54989 0.30861 0.0
N497 N 0.10831 0.48072 0.25358 0.0
loop_
_geom_bond_atom_site_label_1
_geom_bond_atom_site_label_2
_geom_bond_distance
_geom_bond_site_symmetry_2
_ccdc_geom_bond_type
Sm0 C2 2.846 . S
Sm0 O20 2.543 . S
Sm0 O21 2.450 . S
Sm0 O22 2.681 . S
Sm0 O23 2.464 . S
Sm0 O24 2.396 . S
Sm0 O28 2.386 . S
Sm0 O31 2.408 1_455 S
Sm1 C11 2.846 . S
Sm1 O22 2.386 1_655 S
Sm1 O25 2.408 1_655 S
Sm1 O26 2.543 . S
Sm1 O27 2.450 . S
Sm1 O28 2.681 1_655 S
Sm1 O29 2.464 . S
Sm1 O30 2.396 . S
C2 Sm0 2.846 . S
C2 C3 1.506 . S
C2 O20 1.261 . S
C2 O21 1.242 . S
C3 C2 1.506 . S
C3 C4 1.358 . S
C3 C8 1.382 . S
C4 C3 1.358 . S
C4 C5 1.385 . S
C4 H32 0.930 . S
C5 C4 1.385 . S
C5 C6 1.395 . S
C5 H33 0.929 . S
C6 C5 1.395 . S
C6 C7 1.335 . S
C7 C6 1.335 . S
C7 C8 1.398 . S
C7 H34 0.930 . S
C8 C3 1.382 . S
C8 C7 1.398 . S
C8 H35 0.929 . S
C9 O22 1.271 . S
C9 O23 1.251 . S
C10 O24 1.252 . S
C10 O25 1.272 . S
C11 Sm1 2.846 . S
C11 C12 1.506 . S
C11 O26 1.261 . S
C11 O27 1.242 . S
C12 C11 1.506 . S
C12 C13 1.358 . S
C12 C17 1.382 . S
C13 C12 1.358 . S
C13 C14 1.385 . S
C13 H36 0.930 . S
C14 C13 1.385 . S
C14 C15 1.395 . S
C14 H37 0.929 . S
C15 C14 1.395 . S
C15 C16 1.335 . S
C16 C15 1.335 . S
C16 C17 1.398 . S
C16 H38 0.930 . S
C17 C12 1.382 . S
C17 C16 1.398 . S
C17 H39 0.929 . S
C18 O28 1.271 . S
C18 O29 1.251 1_455 S
C19 O30 1.252 . S
C19 O31 1.272 . S
O20 Sm0 2.543 . S
O20 C2 1.261 . S
O21 Sm0 2.450 . S
O21 C2 1.242 . S
O22 Sm0 2.681 . S
O22 Sm1 2.386 1_455 S
O22 C9 1.271 . S
O23 Sm0 2.464 . S
O23 C9 1.251 . S
O24 Sm0 2.396 . S
O24 C10 1.252 . S
O25 Sm1 2.408 1_455 S
O25 C10 1.272 . S
O26 Sm1 2.543 . S
O26 C11 1.261 . S
O27 Sm1 2.450 . S
O27 C11 1.242 . S
O28 Sm0 2.386 . S
O28 Sm1 2.681 1_455 S
O28 C18 1.271 . S
O29 Sm1 2.464 . S
O29 C18 1.251 1_655 S
O30 Sm1 2.396 . S
O30 C19 1.252 . S
O31 Sm0 2.408 1_655 S
O31 C19 1.272 . S
H32 C4 0.930 . S
H33 C5 0.929 . S
H34 C7 0.930 . S
H35 C8 0.929 . S
H36 C13 0.930 . S
H37 C14 0.929 . S
H38 C16 0.930 . S
H39 C17 0.929 . S
Sm40 C42 2.846 . S
Sm40 O60 2.543 . S
Sm40 O61 2.450 . S
Sm40 O62 2.681 1_565 S
Sm40 O63 2.464 . S
Sm40 O64 2.396 . S
Sm40 O68 2.386 . S
Sm40 O71 2.408 1_565 S
Sm41 C51 2.846 . S
Sm41 O62 2.386 . S
Sm41 O65 2.408 1_545 S
Sm41 O66 2.543 . S
Sm41 O67 2.450 . S
Sm41 O68 2.681 1_545 S
Sm41 O69 2.464 . S
Sm41 O70 2.396 . S
C42 Sm40 2.846 . S
C42 C43 1.506 . S
C42 O60 1.261 . S
C42 O61 1.242 . S
C43 C42 1.506 . S
C43 C44 1.358 . S
C43 C48 1.382 . S
C44 C43 1.358 . S
C44 C45 1.385 . S
C44 H72 0.930 . S
C45 C44 1.385 . S
C45 C46 1.395 . S
C45 H73 0.929 . S
C46 C45 1.395 . S
C46 C47 1.335 . S
C47 C46 1.335 . S
C47 C48 1.398 . S
C47 H74 0.930 . S
C48 C43 1.382 . S
C48 C47 1.398 . S
C48 H75 0.929 . S
C49 O62 1.271 . S
C49 O63 1.251 1_545 S
C50 O64 1.252 . S
C50 O65 1.272 . S
C51 Sm41 2.846 . S
C51 C52 1.506 . S
C51 O66 1.261 . S
C51 O67 1.242 . S
C52 C51 1.506 . S
C52 C53 1.358 . S
C52 C57 1.382 . S
C53 C52 1.358 . S
C53 C54 1.385 . S
C53 H76 0.930 . S
C54 C53 1.385 . S
C54 C55 1.395 . S
C54 H77 0.929 . S
C55 C54 1.395 . S
C55 C56 1.335 . S
C56 C55 1.335 . S
C56 C57 1.398 . S
C56 H78 0.930 . S
C57 C52 1.382 . S
C57 C56 1.398 . S
C57 H79 0.929 . S
C58 O68 1.271 1_545 S
C58 O69 1.251 . S
C59 O70 1.252 . S
C59 O71 1.272 . S
O60 Sm40 2.543 . S
O60 C42 1.261 . S
O61 Sm40 2.450 . S
O61 C42 1.242 . S
O62 Sm40 2.681 1_545 S
O62 Sm41 2.386 . S
O62 C49 1.271 . S
O63 Sm40 2.464 . S
O63 C49 1.251 1_565 S
O64 Sm40 2.396 . S
O64 C50 1.252 . S
O65 Sm41 2.408 1_565 S
O65 C50 1.272 . S
O66 Sm41 2.543 . S
O66 C51 1.261 . S
O67 Sm41 2.450 . S
O67 C51 1.242 . S
O68 Sm40 2.386 . S
O68 Sm41 2.681 1_565 S
O68 C58 1.271 1_565 S
O69 Sm41 2.464 . S
O69 C58 1.251 . S
O70 Sm41 2.396 . S
O70 C59 1.252 . S
O71 Sm40 2.408 1_545 S
O71 C59 1.272 . S
H72 C44 0.930 . S
H73 C45 0.929 . S
H74 C47 0.930 . S
H75 C48 0.929 . S
H76 C53 0.930 . S
H77 C54 0.929 . S
H78 C56 0.930 . S
H79 C57 0.929 . S
Sm80 C82 2.846 . S
Sm80 O100 2.543 . S
Sm80 O101 2.450 . S
Sm80 O102 2.681 . S
Sm80 O103 2.464 . S
Sm80 O104 2.396 . S
Sm80 O108 2.386 . S
Sm80 O111 2.408 . S
Sm81 C91 2.846 . S
Sm81 O102 2.386 . S
Sm81 O105 2.408 . S
Sm81 O106 2.543 . S
Sm81 O107 2.450 . S
Sm81 O108 2.681 . S
Sm81 O109 2.464 . S
Sm81 O110 2.396 . S
C82 Sm80 2.846 . S
C82 C83 1.506 . S
C82 O100 1.261 . S
C82 O101 1.242 . S
C83 C82 1.506 . S
C83 C84 1.358 . S
C83 C88 1.382 . S
C84 C83 1.358 . S
C84 C85 1.385 . S
C84 H112 0.930 . S
C85 C84 1.385 . S
C85 C86 1.395 . S
C85 H113 0.929 . S
C86 C85 1.395 . S
C86 C87 1.335 . S
C87 C86 1.335 . S
C87 C88 1.398 . S
C87 H114 0.930 . S
C88 C83 1.382 . S
C88 C87 1.398 . S
C88 H115 0.929 . S
C89 O102 1.271 . S
C89 O103 1.251 . S
C90 O104 1.252 . S
C90 O105 1.272 . S
C91 Sm81 2.846 . S
C91 C92 1.506 . S
C91 O106 1.261 . S
C91 O107 1.242 . S
C92 C91 1.506 . S
C92 C93 1.358 . S
C92 C97 1.382 . S
C93 C92 1.358 . S
C93 C94 1.385 . S
C93 H116 0.930 . S
C94 C93 1.385 . S
C94 C95 1.395 . S
C94 H117 0.929 . S
C95 C94 1.395 . S
C95 C96 1.335 . S
C96 C95 1.335 . S
C96 C97 1.398 . S
C96 H118 0.930 . S
C97 C92 1.382 . S
C97 C96 1.398 . S
C97 H119 0.929 . S
C98 O108 1.271 . S
C98 O109 1.251 . S
C99 O110 1.252 . S
C99 O111 1.272 . S
O100 Sm80 2.543 . S
O100 C82 1.261 . S
O101 Sm80 2.450 . S
O101 C82 1.242 . S
O102 Sm80 2.681 . S
O102 Sm81 2.386 . S
O102 C89 1.271 . S
O103 Sm80 2.464 . S
O103 C89 1.251 . S
O104 Sm80 2.396 . S
O104 C90 1.252 . S
O105 Sm81 2.408 . S
O105 C90 1.272 . S
O106 Sm81 2.543 . S
O106 C91 1.261 . S
O107 Sm81 2.450 . S
O107 C91 1.242 . S
O108 Sm80 2.386 . S
O108 Sm81 2.681 . S
O108 C98 1.271 . S
O109 Sm81 2.464 . S
O109 C98 1.251 . S
O110 Sm81 2.396 . S
O110 C99 1.252 . S
O111 Sm80 2.408 . S
O111 C99 1.272 . S
H112 C84 0.930 . S
H113 C85 0.929 . S
H114 C87 0.930 . S
H115 C88 0.929 . S
H116 C93 0.930 . S
H117 C94 0.929 . S
H118 C96 0.930 . S
H119 C97 0.929 . S
H120 C123 0.931 . S
H121 C126 0.928 . S
H122 C128 0.930 . S
C123 H120 0.931 . S
C123 C124 1.413 . S
C123 C125 1.360 1_565 S
C124 C123 1.413 . S
C124 C128 1.429 1_565 S
C125 C123 1.360 1_545 S
C125 C126 1.372 . S
C126 H121 0.928 . S
C126 C125 1.372 . S
C126 C127 1.404 . S
C127 C126 1.404 . S
C127 C128 1.391 . S
C128 H122 0.930 . S
C128 C124 1.429 1_545 S
C128 C127 1.391 . S
H129 C132 0.931 . S
H130 C135 0.928 . S
H131 C137 0.930 . S
C132 H129 0.931 . S
C132 C133 1.413 . S
C132 C134 1.360 . S
C133 C132 1.413 . S
C133 C137 1.429 . S
C134 C132 1.360 . S
C134 C135 1.372 . S
C135 H130 0.928 . S
C135 C134 1.372 . S
C135 C136 1.404 . S
C136 C135 1.404 . S
C136 C137 1.391 . S
C137 H131 0.930 . S
C137 C133 1.429 . S
C137 C136 1.391 . S
H138 C141 0.931 1_655 S
H139 C144 0.928 . S
H140 C146 0.930 . S
C141 H138 0.931 1_455 S
C141 C142 1.413 . S
C141 C143 1.360 . S
C142 C141 1.413 . S
C142 C146 1.429 . S
C143 C141 1.360 . S
C143 C144 1.372 . S
C144 H139 0.928 . S
C144 C143 1.372 . S
C144 C145 1.404 . S
C145 C144 1.404 . S
C145 C146 1.391 . S
C146 H140 0.930 . S
C146 C142 1.429 . S
C146 C145 1.391 . S
H147 C150 0.931 . S
H148 C153 0.928 . S
H149 C155 0.930 . S
C150 H147 0.931 . S
C150 C151 1.413 . S
C150 C152 1.359 1_655 S
C151 C150 1.413 . S
C151 C155 1.429 1_655 S
C152 C150 1.359 1_455 S
C152 C153 1.372 . S
C153 H148 0.928 . S
C153 C152 1.372 . S
C153 C154 1.404 . S
C154 C153 1.404 . S
C154 C155 1.391 . S
C155 H149 0.930 . S
C155 C151 1.429 1_455 S
C155 C154 1.391 . S
H156 C159 0.931 . S
H157 C162 0.928 . S
H158 C164 0.930 . S
C159 H156 0.931 . S
C159 C160 1.413 . S
C159 C161 1.349 1_545 S
C160 C159 1.413 . S
C160 C164 1.429 . S
C161 C159 1.349 1_565 S
C161 C162 1.383 . S
C162 H157 0.928 . S
C162 C161 1.383 . S
C162 C163 1.404 . S
C163 C162 1.404 . S
C163 C164 1.391 1_565 S
C164 H158 0.930 . S
C164 C160 1.429 . S
C164 C163 1.391 1_545 S
H165 C168 0.931 . S
H166 C171 0.928 . S
H167 C173 0.930 . S
C168 H165 0.931 . S
C168 C169 1.413 . S
C168 C170 1.360 . S
C169 C168 1.413 . S
C169 C173 1.429 . S
C170 C168 1.360 . S
C170 C171 1.372 . S
C171 H166 0.928 . S
C171 C170 1.372 . S
C171 C172 1.404 . S
C172 C171 1.404 . S
C172 C173 1.391 . S
C173 H167 0.930 . S
C173 C169 1.429 . S
C173 C172 1.391 . S
H174 C180 0.930 . S
H175 C184 0.930 . S
H176 C189 0.929 . S
H177 C187 0.929 . S
H178 C182 0.929 . S
H179 C188 0.929 . S
C180 H174 0.930 . S
C180 C181 1.367 . S
C180 C188 1.378 . S
C181 C180 1.367 . S
C181 C189 1.433 . S
C182 H178 0.929 . S
C182 C184 1.378 . S
C182 C186 1.350 . S
C183 C186 1.463 . S
C183 C188 1.350 . S
C183 N191 1.427 . S
C184 H175 0.930 . S
C184 C182 1.378 . S
C184 C185 1.367 . S
C185 C184 1.367 . S
C185 C187 1.433 . S
C186 C182 1.350 . S
C186 C183 1.463 . S
C186 N190 1.427 . S
C187 H177 0.929 . S
C187 C185 1.433 . S
C187 N190 1.384 . S
C188 H179 0.929 . S
C188 C180 1.378 . S
C188 C183 1.350 . S
C189 H176 0.929 . S
C189 C181 1.433 . S
C189 N191 1.384 . S
N190 C186 1.427 . S
N190 C187 1.384 . S
N191 C183 1.427 . S
N191 C189 1.384 . S
H192 C198 0.930 . S
H193 C202 0.930 . S
H194 C207 0.929 . S
H195 C205 0.929 . S
H196 C200 0.929 . S
H197 C206 0.929 . S
C198 H192 0.930 . S
C198 C199 1.367 . S
C198 C206 1.378 . S
C199 C198 1.367 . S
C199 C207 1.433 . S
C200 H196 0.929 . S
C200 C202 1.378 . S
C200 C204 1.350 . S
C201 C204 1.463 . S
C201 C206 1.350 . S
C201 N209 1.427 . S
C202 H193 0.930 . S
C202 C200 1.378 . S
C202 C203 1.367 . S
C203 C202 1.367 . S
C203 C205 1.433 . S
C204 C200 1.350 . S
C204 C201 1.463 . S
C204 N208 1.427 . S
C205 H195 0.929 . S
C205 C203 1.433 . S
C205 N208 1.384 . S
C206 H197 0.929 . S
C206 C198 1.378 . S
C206 C201 1.350 . S
C207 H194 0.929 . S
C207 C199 1.433 . S
C207 N209 1.384 . S
N208 C204 1.427 . S
N208 C205 1.384 . S
N209 C201 1.427 . S
N209 C207 1.384 . S
H210 C216 0.930 . S
H211 C220 0.930 . S
H212 C225 0.929 . S
H213 C223 0.929 . S
H214 C218 0.929 . S
H215 C224 0.929 . S
C216 H210 0.930 . S
C216 C217 1.367 . S
C216 C224 1.378 . S
C217 C216 1.367 . S
C217 C225 1.433 . S
C218 H214 0.929 . S
C218 C220 1.378 . S
C218 C222 1.350 . S
C219 C222 1.463 . S
C219 C224 1.350 . S
C219 N227 1.427 . S
C220 H211 0.930 . S
C220 C218 1.378 . S
C220 C221 1.367 . S
C221 C220 1.367 . S
C221 C223 1.433 . S
C222 C218 1.350 . S
C222 C219 1.463 . S
C222 N226 1.427 . S
C223 H213 0.929 . S
C223 C221 1.433 . S
C223 N226 1.384 . S
C224 H215 0.929 . S
C224 C216 1.378 . S
C224 C219 1.350 . S
C225 H212 0.929 . S
C225 C217 1.433 . S
C225 N227 1.384 . S
N226 C222 1.427 . S
N226 C223 1.384 . S
N227 C219 1.427 . S
N227 C225 1.384 . S
H228 C234 0.930 . S
H229 C238 0.930 . S
H230 C243 0.929 . S
H231 C241 0.929 . S
H232 C236 0.929 . S
H233 C242 0.929 . S
C234 H228 0.930 . S
C234 C235 1.367 . S
C234 C242 1.378 . S
C235 C234 1.367 . S
C235 C243 1.433 . S
C236 H232 0.929 . S
C236 C238 1.378 . S
C236 C240 1.350 . S
C237 C240 1.463 . S
C237 C242 1.350 . S
C237 N245 1.427 . S
C238 H229 0.930 . S
C238 C236 1.378 . S
C238 C239 1.367 . S
C239 C238 1.367 . S
C239 C241 1.433 . S
C240 C236 1.350 . S
C240 C237 1.463 . S
C240 N244 1.427 . S
C241 H231 0.929 . S
C241 C239 1.433 . S
C241 N244 1.384 . S
C242 H233 0.929 . S
C242 C234 1.378 . S
C242 C237 1.350 . S
C243 H230 0.929 . S
C243 C235 1.433 . S
C243 N245 1.384 . S
N244 C240 1.427 . S
N244 C241 1.384 . S
N245 C237 1.427 . S
N245 C243 1.384 . S
H246 C252 0.930 . S
H247 C256 0.930 . S
H248 C261 0.929 . S
H249 C259 0.929 . S
H250 C254 0.929 . S
H251 C260 0.929 . S
C252 H246 0.930 . S
C252 C253 1.367 . S
C252 C260 1.378 . S
C253 C252 1.367 . S
C253 C261 1.433 . S
C254 H250 0.929 . S
C254 C256 1.378 . S
C254 C258 1.350 . S
C255 C258 1.463 . S
C255 C260 1.350 . S
C255 N263 1.427 . S
C256 H247 0.930 . S
C256 C254 1.378 . S
C256 C257 1.367 . S
C257 C256 1.367 . S
C257 C259 1.433 . S
C258 C254 1.350 . S
C258 C255 1.463 . S
C258 N262 1.427 . S
C259 H249 0.929 . S
C259 C257 1.433 . S
C259 N262 1.384 . S
C260 H251 0.929 . S
C260 C252 1.378 . S
C260 C255 1.350 . S
C261 H248 0.929 . S
C261 C253 1.433 . S
C261 N263 1.384 . S
N262 C258 1.427 . S
N262 C259 1.384 . S
N263 C255 1.427 . S
N263 C261 1.384 . S
H264 C270 0.930 . S
H265 C274 0.930 . S
H266 C279 0.929 . S
H267 C277 0.929 . S
H268 C272 0.929 . S
H269 C278 0.929 . S
C270 H264 0.930 . S
C270 C271 1.367 . S
C270 C278 1.378 . S
C271 C270 1.367 . S
C271 C279 1.433 . S
C272 H268 0.929 . S
C272 C274 1.378 . S
C272 C276 1.350 . S
C273 C276 1.463 . S
C273 C278 1.350 . S
C273 N281 1.427 . S
C274 H265 0.930 . S
C274 C272 1.378 . S
C274 C275 1.367 . S
C275 C274 1.367 . S
C275 C277 1.433 . S
C276 C272 1.350 . S
C276 C273 1.463 . S
C276 N280 1.427 . S
C277 H267 0.929 . S
C277 C275 1.433 . S
C277 N280 1.384 . S
C278 H269 0.929 . S
C278 C270 1.378 . S
C278 C273 1.350 . S
C279 H266 0.929 . S
C279 C271 1.433 . S
C279 N281 1.384 . S
N280 C276 1.427 . S
N280 C277 1.384 . S
N281 C273 1.427 . S
N281 C279 1.384 . S
H282 C288 0.930 . S
H283 C292 0.930 . S
H284 C297 0.929 . S
H285 C295 0.929 . S
H286 C290 0.929 . S
H287 C296 0.929 . S
C288 H282 0.930 . S
C288 C289 1.367 . S
C288 C296 1.378 . S
C289 C288 1.367 . S
C289 C297 1.433 . S
C290 H286 0.929 . S
C290 C292 1.378 . S
C290 C294 1.350 . S
C291 C294 1.463 . S
C291 C296 1.350 . S
C291 N299 1.427 . S
C292 H283 0.930 . S
C292 C290 1.378 . S
C292 C293 1.367 . S
C293 C292 1.367 . S
C293 C295 1.433 . S
C294 C290 1.350 . S
C294 C291 1.463 . S
C294 N298 1.427 . S
C295 H285 0.929 . S
C295 C293 1.433 . S
C295 N298 1.384 . S
C296 H287 0.929 . S
C296 C288 1.378 . S
C296 C291 1.350 . S
C297 H284 0.929 . S
C297 C289 1.433 . S
C297 N299 1.384 . S
N298 C294 1.427 . S
N298 C295 1.384 . S
N299 C291 1.427 . S
N299 C297 1.384 . S
H300 C306 0.930 . S
H301 C310 0.930 . S
H302 C315 0.929 . S
H303 C313 0.929 . S
H304 C308 0.929 . S
H305 C314 0.929 . S
C306 H300 0.930 . S
C306 C307 1.367 . S
C306 C314 1.378 . S
C307 C306 1.367 . S
C307 C315 1.433 . S
C308 H304 0.929 . S
C308 C310 1.378 . S
C308 C312 1.350 . S
C309 C312 1.463 . S
C309 C314 1.350 . S
C309 N317 1.427 . S
C310 H301 0.930 . S
C310 C308 1.378 . S
C310 C311 1.367 . S
C311 C310 1.367 . S
C311 C313 1.433 . S
C312 C308 1.350 . S
C312 C309 1.463 . S
C312 N316 1.427 . S
C313 H303 0.929 . S
C313 C311 1.433 . S
C313 N316 1.384 . S
C314 H305 0.929 . S
C314 C306 1.378 . S
C314 C309 1.350 . S
C315 H302 0.929 . S
C315 C307 1.433 . S
C315 N317 1.384 . S
N316 C312 1.427 . S
N316 C313 1.384 . S
N317 C309 1.427 . S
N317 C315 1.384 . S
H318 C324 0.930 . S
H319 C328 0.930 . S
H320 C333 0.929 . S
H321 C331 0.929 . S
H322 C326 0.929 . S
H323 C332 0.929 . S
C324 H318 0.930 . S
C324 C325 1.367 . S
C324 C332 1.378 . S
C325 C324 1.367 . S
C325 C333 1.433 . S
C326 H322 0.929 . S
C326 C328 1.378 . S
C326 C330 1.350 . S
C327 C330 1.463 . S
C327 C332 1.350 . S
C327 N335 1.427 . S
C328 H319 0.930 . S
C328 C326 1.378 . S
C328 C329 1.367 . S
C329 C328 1.367 . S
C329 C331 1.433 . S
C330 C326 1.350 . S
C330 C327 1.463 . S
C330 N334 1.427 . S
C331 H321 0.929 . S
C331 C329 1.433 . S
C331 N334 1.384 . S
C332 H323 0.929 . S
C332 C324 1.378 . S
C332 C327 1.350 . S
C333 H320 0.929 . S
C333 C325 1.433 . S
C333 N335 1.384 . S
N334 C330 1.427 . S
N334 C331 1.384 . S
N335 C327 1.427 . S
N335 C333 1.384 . S
H336 C342 0.930 . S
H337 C346 0.930 . S
H338 C351 0.929 . S
H339 C349 0.929 . S
H340 C344 0.929 . S
H341 C350 0.929 . S
C342 H336 0.930 . S
C342 C343 1.367 . S
C342 C350 1.378 . S
C343 C342 1.367 . S
C343 C351 1.433 . S
C344 H340 0.929 . S
C344 C346 1.378 . S
C344 C348 1.350 . S
C345 C348 1.463 . S
C345 C350 1.350 . S
C345 N353 1.427 . S
C346 H337 0.930 . S
C346 C344 1.378 . S
C346 C347 1.367 . S
C347 C346 1.367 . S
C347 C349 1.433 . S
C348 C344 1.350 . S
C348 C345 1.463 . S
C348 N352 1.427 . S
C349 H339 0.929 . S
C349 C347 1.433 . S
C349 N352 1.384 . S
C350 H341 0.929 . S
C350 C342 1.378 . S
C350 C345 1.350 . S
C351 H338 0.929 . S
C351 C343 1.433 . S
C351 N353 1.384 . S
N352 C348 1.427 . S
N352 C349 1.384 . S
N353 C345 1.427 . S
N353 C351 1.384 . S
H354 C360 0.930 . S
H355 C364 0.930 . S
H356 C369 0.929 . S
H357 C367 0.929 . S
H358 C362 0.929 . S
H359 C368 0.929 . S
C360 H354 0.930 . S
C360 C361 1.367 . S
C360 C368 1.378 . S
C361 C360 1.367 . S
C361 C369 1.433 . S
C362 H358 0.929 . S
C362 C364 1.378 . S
C362 C366 1.350 . S
C363 C366 1.463 . S
C363 C368 1.350 . S
C363 N371 1.427 . S
C364 H355 0.930 . S
C364 C362 1.378 . S
C364 C365 1.367 . S
C365 C364 1.367 . S
C365 C367 1.433 . S
C366 C362 1.350 . S
C366 C363 1.463 . S
C366 N370 1.427 . S
C367 H357 0.929 . S
C367 C365 1.433 . S
C367 N370 1.384 . S
C368 H359 0.929 . S
C368 C360 1.378 . S
C368 C363 1.350 . S
C369 H356 0.929 . S
C369 C361 1.433 . S
C369 N371 1.384 . S
N370 C366 1.427 . S
N370 C367 1.384 . S
N371 C363 1.427 . S
N371 C369 1.384 . S
H372 C378 0.930 . S
H373 C382 0.930 . S
H374 C387 0.929 . S
H375 C385 0.929 . S
H376 C380 0.929 . S
H377 C386 0.929 . S
C378 H372 0.930 . S
C378 C379 1.367 . S
C378 C386 1.378 . S
C379 C378 1.367 . S
C379 C387 1.433 . S
C380 H376 0.929 . S
C380 C382 1.378 . S
C380 C384 1.350 . S
C381 C384 1.463 . S
C381 C386 1.350 . S
C381 N389 1.427 . S
C382 H373 0.930 . S
C382 C380 1.378 . S
C382 C383 1.367 . S
C383 C382 1.367 . S
C383 C385 1.433 . S
C384 C380 1.350 . S
C384 C381 1.463 . S
C384 N388 1.427 . S
C385 H375 0.929 . S
C385 C383 1.433 . S
C385 N388 1.384 . S
C386 H377 0.929 . S
C386 C378 1.378 . S
C386 C381 1.350 . S
C387 H374 0.929 . S
C387 C379 1.433 . S
C387 N389 1.384 . S
N388 C384 1.427 . S
N388 C385 1.384 . S
N389 C381 1.427 . S
N389 C387 1.384 . S
H390 C396 0.930 . S
H391 C400 0.930 . S
H392 C405 0.929 . S
H393 C403 0.929 . S
H394 C398 0.929 1_554 S
H395 C404 0.929 . S
C396 H390 0.930 . S
C396 C397 1.367 1_655 S
C396 C404 1.378 . S
C397 C396 1.367 1_455 S
C397 C405 1.433 . S
C398 H394 0.929 1_556 S
C398 C400 1.378 . S
C398 C402 1.350 1_556 S
C399 C402 1.463 . S
C399 C404 1.350 1_455 S
C399 N407 1.427 . S
C400 H391 0.930 . S
C400 C398 1.378 . S
C400 C401 1.367 . S
C401 C400 1.367 . S
C401 C403 1.433 1_455 S
C402 C398 1.350 1_554 S
C402 C399 1.463 . S
C402 N406 1.427 1_454 S
C403 H393 0.929 . S
C403 C401 1.433 1_655 S
C403 N406 1.384 . S
C404 H395 0.929 . S
C404 C396 1.378 . S
C404 C399 1.350 1_655 S
C405 H392 0.929 . S
C405 C397 1.433 . S
C405 N407 1.384 . S
N406 C402 1.427 1_656 S
N406 C403 1.384 . S
N407 C399 1.427 . S
N407 C405 1.384 . S
H408 C414 0.930 . S
H409 C418 0.930 . S
H410 C423 0.929 . S
H411 C421 0.929 . S
H412 C416 0.929 . S
H413 C422 0.929 . S
C414 H408 0.930 . S
C414 C415 1.367 1_565 S
C414 C422 1.378 . S
C415 C414 1.367 1_545 S
C415 C423 1.433 . S
C416 H412 0.929 . S
C416 C418 1.378 . S
C416 C420 1.350 . S
C417 C420 1.463 . S
C417 C422 1.350 1_545 S
C417 N425 1.427 . S
C418 H409 0.930 . S
C418 C416 1.378 . S
C418 C419 1.367 . S
C419 C418 1.367 . S
C419 C421 1.433 1_545 S
C420 C416 1.350 . S
C420 C417 1.463 . S
C420 N424 1.427 1_545 S
C421 H411 0.929 . S
C421 C419 1.433 1_565 S
C421 N424 1.384 . S
C422 H413 0.929 . S
C422 C414 1.378 . S
C422 C417 1.350 1_565 S
C423 H410 0.929 . S
C423 C415 1.433 . S
C423 N425 1.384 . S
N424 C420 1.427 1_565 S
N424 C421 1.384 . S
N425 C417 1.427 . S
N425 C423 1.384 . S
H426 C432 0.930 . S
H427 C436 0.930 . S
H428 C441 0.929 . S
H429 C439 0.929 . S
H430 C434 0.929 . S
H431 C440 0.929 . S
C432 H426 0.930 . S
C432 C433 1.367 . S
C432 C440 1.378 . S
C433 C432 1.367 . S
C433 C441 1.433 . S
C434 H430 0.929 . S
C434 C436 1.378 . S
C434 C438 1.350 . S
C435 C438 1.463 . S
C435 C440 1.350 . S
C435 N443 1.427 . S
C436 H427 0.930 . S
C436 C434 1.378 . S
C436 C437 1.367 . S
C437 C436 1.367 . S
C437 C439 1.433 . S
C438 C434 1.350 . S
C438 C435 1.463 . S
C438 N442 1.427 . S
C439 H429 0.929 . S
C439 C437 1.433 . S
C439 N442 1.384 . S
C440 H431 0.929 . S
C440 C432 1.378 . S
C440 C435 1.350 . S
C441 H428 0.929 . S
C441 C433 1.433 . S
C441 N443 1.384 . S
N442 C438 1.427 . S
N442 C439 1.384 . S
N443 C435 1.427 . S
N443 C441 1.384 . S
H444 C450 0.930 . S
H445 C454 0.930 . S
H446 C459 0.929 . S
H447 C457 0.929 . S
H448 C452 0.929 . S
H449 C458 0.929 . S
C450 H444 0.930 . S
C450 C451 1.367 1_565 S
C450 C458 1.378 . S
C451 C450 1.367 1_545 S
C451 C459 1.433 . S
C452 H448 0.929 . S
C452 C454 1.378 . S
C452 C456 1.350 . S
C453 C456 1.463 . S
C453 C458 1.350 1_545 S
C453 N461 1.427 . S
C454 H445 0.930 . S
C454 C452 1.378 . S
C454 C455 1.379 . S
C455 C454 1.379 . S
C455 C457 1.422 1_545 S
C456 C452 1.350 . S
C456 C453 1.463 . S
C456 N460 1.427 1_545 S
C457 H447 0.929 . S
C457 C455 1.422 1_565 S
C457 N460 1.384 . S
C458 H449 0.929 . S
C458 C450 1.378 . S
C458 C453 1.350 1_565 S
C459 H446 0.929 . S
C459 C451 1.433 . S
C459 N461 1.384 . S
N460 C456 1.427 1_565 S
N460 C457 1.384 . S
N461 C453 1.427 . S
N461 C459 1.384 . S
H462 C468 0.930 . S
H463 C472 0.930 . S
H464 C477 0.929 . S
H465 C475 0.929 . S
H466 C470 0.929 . S
H467 C476 0.929 . S
C468 H462 0.930 . S
C468 C469 1.367 . S
C468 C476 1.378 . S
C469 C468 1.367 . S
C469 C477 1.433 . S
C470 H466 0.929 . S
C470 C472 1.378 1_556 S
C470 C474 1.350 . S
C471 C474 1.463 . S
C471 C476 1.350 . S
C471 N479 1.427 . S
C472 H463 0.930 . S
C472 C470 1.378 1_554 S
C472 C473 1.367 . S
C473 C472 1.367 . S
C473 C475 1.433 . S
C474 C470 1.350 . S
C474 C471 1.463 . S
C474 N478 1.427 . S
C475 H465 0.929 . S
C475 C473 1.433 . S
C475 N478 1.384 1_554 S
C476 H467 0.929 . S
C476 C468 1.378 . S
C476 C471 1.350 . S
C477 H464 0.929 . S
C477 C469 1.433 . S
C477 N479 1.384 . S
N478 C474 1.427 . S
N478 C475 1.384 1_556 S
N479 C471 1.427 . S
N479 C477 1.384 . S
H480 C486 0.930 . S
H481 C490 0.930 . S
H482 C495 0.929 . S
H483 C493 0.929 . S
H484 C488 0.915 . S
H485 C494 0.929 . S
C486 H480 0.930 . S
C486 C487 1.367 . S
C486 C494 1.378 . S
C487 C486 1.367 . S
C487 C495 1.433 . S
C488 H484 0.915 . S
C488 C490 1.378 1_455 S
C488 C492 1.350 . S
C489 C492 1.463 . S
C489 C494 1.350 . S
C489 N497 1.427 . S
C490 H481 0.930 . S
C490 C488 1.378 1_655 S
C490 C491 1.369 1_655 S
C491 C490 1.369 1_455 S
C491 C493 1.432 . S
C492 C488 1.350 . S
C492 C489 1.463 . S
C492 N496 1.427 . S
C493 H483 0.929 . S
C493 C491 1.432 . S
C493 N496 1.384 . S
C494 H485 0.929 . S
C494 C486 1.378 . S
C494 C489 1.350 . S
C495 H482 0.929 . S
C495 C487 1.433 . S
C495 N497 1.384 . S
N496 C492 1.427 . S
N496 C493 1.384 . S
N497 C489 1.427 . S
N497 C495 1.384 . S
C181 C6 0.731 . S
C185 C169 0.718 . S
C199 C59 1.823 . S
C203 C151 1.802 . S
C217 C86 1.319 . S
C221 C163 1.362 . S
C235 C15 0.622 . S
C239 C172 0.544 . S
C257 C154 1.832 . S
C253 C50 1.834 . S
C275 C160 1.395 . S
C271 C95 1.343 . S
C289 C46 1.292 . S
C293 C133 1.317 . S
C307 C99 2.994 . S
C311 C142 2.963 1_655 S
C325 C10 1.866 . S
C329 C124 1.891 . S
C347 C136 1.386 . S
C343 C55 1.334 . S
C365 C145 2.904 . S
C361 C90 2.891 . S
C379 C19 1.812 . S
C383 C127 1.796 . S
C401 C143 1.791 . S
C397 C18 1.721 . S
C415 C49 1.310 . S
C419 C125 1.366 . S
C433 C98 1.445 . S
C437 C134 1.506 . S
C455 C161 1.478 1_545 S
C451 C58 1.438 . S
C473 C170 1.045 . S
C469 C89 1.039 . S
C487 C9 1.317 . S
C491 C152 1.350 . S
