# Generated by pormake.
# Topology ftw, (4,12)-cn, num edge types: 1
# Building blocks:
#     Node 0, Type 0, BuildingBlock: MIFKUJ_clean_linker_1, # of connection points: 4
#     Node 1, Type 0, BuildingBlock: MIFKUJ_clean_linker_1, # of connection points: 4
#     Node 2, Type 0, BuildingBlock: MIFKUJ_clean_linker_1, # of connection points: 4
#     Node 3, Type 1, BuildingBlock: EZIPEK_clean_sbu_0, # of connection points: 12
#     Edge 4, Type (0, 1), BuildingBlock: EZIPEK_clean_linker_0, # of connection points: 2
#     Edge 5, Type (0, 1), BuildingBlock: EZIPEK_clean_linker_0, # of connection points: 2
#     Edge 6, Type (0, 1), BuildingBlock: EZIPEK_clean_linker_0, # of connection points: 2
#     Edge 7, Type (0, 1), BuildingBlock: EZIPEK_clean_linker_0, # of connection points: 2
#     Edge 8, Type (0, 1), BuildingBlock: EZIPEK_clean_linker_0, # of connection points: 2
#     Edge 9, Type (0, 1), BuildingBlock: EZIPEK_clean_linker_0, # of connection points: 2
#     Edge 10, Type (0, 1), BuildingBlock: EZIPEK_clean_linker_0, # of connection points: 2
#     Edge 11, Type (0, 1), BuildingBlock: EZIPEK_clean_linker_0, # of connection points: 2
#     Edge 12, Type (0, 1), BuildingBlock: EZIPEK_clean_linker_0, # of connection points: 2
#     Edge 13, Type (0, 1), BuildingBlock: EZIPEK_clean_linker_0, # of connection points: 2
#     Edge 14, Type (0, 1), BuildingBlock: EZIPEK_clean_linker_0, # of connection points: 2
#     Edge 15, Type (0, 1), BuildingBlock: EZIPEK_clean_linker_0, # of connection points: 2
# Relax obj value: 0.048
# Max RMSD: 0.168
# Mean RMSD: 0.128
data_MOF--net-ftw--node1-EZIPEK_clean_sbu_0--node2-MIFKUJ_clean_linker_1--edge1-EZIPEK_clean_linker_0
_symmetry_space_group_name_H-M    P1
_symmetry_Int_Tables_number       1
_symmetry_cell_setting            triclinic
loop_
_symmetry_equiv_pos_as_xyz
'x, y, z'
_cell_length_a     22.094353
_cell_length_b     23.097724
_cell_length_c     22.500958
_cell_angle_alpha  90.016805
_cell_angle_beta   89.746763
_cell_angle_gamma 89.984674
loop_
_atom_site_label
_atom_site_type_symbol
_atom_site_fract_x
_atom_site_fract_y
_atom_site_fract_z
_atom_type_partial_charge
H0 H 0.08006 0.60034 0.61696 0.0
H1 H 0.07726 0.67604 0.69299 0.0
H2 H 0.90639 0.73621 0.62512 0.0
H3 H 0.90799 0.65873 0.54956 0.0
H4 H 0.00152 0.51748 0.61818 0.0
H5 H 0.04517 0.67497 0.48193 0.0
H6 H 0.0413 0.7542 0.40967 0.0
H7 H 0.9117 0.65821 0.3062 0.0
H8 H 0.90743 0.58444 0.38256 0.0
H9 H 0.89549 0.4333 0.40248 0.0
H10 H 0.89677 0.35767 0.32643 0.0
H11 H 0.06606 0.29387 0.39481 0.0
H12 H 0.06581 0.37111 0.47051 0.0
H13 H 0.97856 0.51362 0.40023 0.0
H14 H 0.91345 0.37208 0.55075 0.0
H15 H 0.91326 0.29554 0.62706 0.0
H16 H 0.08161 0.36091 0.69599 0.0
H17 H 0.08269 0.43621 0.61948 0.0
C18 C -0.00572 0.62362 0.57714 0.0
C19 C 0.04221 0.63018 0.61766 0.0
C20 C 0.04057 0.67318 0.66133 0.0
C21 C -0.00866 0.71127 0.66521 0.0
C22 C 0.94466 0.70697 0.62304 0.0
C23 C 0.94591 0.66319 0.57954 0.0
C24 C -0.00847 0.57016 0.53982 0.0
C25 C -0.00327 0.51693 0.57019 0.0
C26 C 0.98298 0.56949 0.47713 0.0
C27 C 0.97678 0.62252 0.43858 0.0
C28 C 0.0136 0.67188 0.44548 0.0
C29 C 0.01239 0.71687 0.40325 0.0
C30 C 0.97718 0.71204 0.35131 0.0
C31 C 0.93965 0.66341 0.34528 0.0
C32 C 0.93787 0.62062 0.38905 0.0
C33 C 0.98052 0.40813 0.44256 0.0
C34 C 0.9325 0.4025 0.40204 0.0
C35 C 0.93328 0.35948 0.35837 0.0
C36 C 0.98181 0.3205 0.35438 0.0
C37 C 0.02831 0.32373 0.39688 0.0
C38 C 0.02781 0.36738 0.44051 0.0
C39 C 0.98509 0.46208 0.47892 0.0
C40 C 0.9815 0.51511 0.4483 0.0
C41 C -0.00622 0.46298 0.54119 0.0
C42 C -0.00174 0.40996 0.57893 0.0
C43 C 0.95123 0.36896 0.58109 0.0
C44 C 0.95074 0.32569 0.62505 0.0
C45 C -0.00292 0.32298 0.66771 0.0
C46 C 0.04525 0.36236 0.66388 0.0
C47 C 0.04591 0.40518 0.61996 0.0
H48 H 0.44014 0.13572 0.35711 0.0
H49 H 0.36382 0.12065 0.27904 0.0
H50 H 0.30511 0.96386 0.3661 0.0
H51 H 0.38146 0.97814 0.44306 0.0
H52 H 0.37663 0.07165 0.51551 0.0
H53 H 0.59702 0.1514 0.40986 0.0
H54 H 0.67125 0.1346 0.33077 0.0
H55 H 0.58969 0.96888 0.29349 0.0
H56 H 0.51642 0.98466 0.37442 0.0
H57 H 0.59752 0.98479 0.57904 0.0
H58 H 0.67381 0.97394 0.65647 0.0
H59 H 0.61267 0.13255 0.73845 0.0
H60 H 0.5362 0.14416 0.65969 0.0
H61 H 0.60025 0.07693 0.50353 0.0
H62 H 0.46619 0.9919 0.65118 0.0
H63 H 0.39369 0.97699 0.73278 0.0
H64 H 0.30009 0.13346 0.68287 0.0
H65 H 0.37399 0.15004 0.60352 0.0
C66 C 0.41579 0.0582 0.40571 0.0
C67 C 0.41178 0.09749 0.35841 0.0
C68 C 0.36842 0.08905 0.3143 0.0
C69 C 0.32903 0.04147 0.31769 0.0
C70 C 0.33524 1.00079 0.36325 0.0
C71 C 0.37851 1.00903 0.40694 0.0
C72 C 0.45403 0.07027 0.45744 0.0
C73 C 0.42568 0.07374 0.51297 0.0
C74 C 0.51743 0.07403 0.45379 0.0
C75 C 0.5512 0.06944 0.39757 0.0
C76 C 0.59421 0.11204 0.38379 0.0
C77 C 0.63658 0.10238 0.33911 0.0
C78 C 0.63607 0.05023 0.30735 0.0
C79 C 0.59061 1.00915 0.31815 0.0
C80 C 0.54855 1.01851 0.3636 0.0
C81 C 0.56185 0.06549 0.61371 0.0
C82 C 0.60003 1.01695 0.61403 0.0
C83 C 0.64333 1.01069 0.65797 0.0
C84 C 0.64877 0.05273 0.70232 0.0
C85 C 0.60878 0.09997 0.70404 0.0
C86 C 0.56531 0.10643 0.65959 0.0
C87 C 0.52298 0.07466 0.56181 0.0
C88 C 0.55115 0.07684 0.50611 0.0
C89 C 0.45941 0.0754 0.56539 0.0
C90 C 0.42566 0.07241 0.62181 0.0
C91 C 0.43165 1.02423 0.65938 0.0
C92 C 0.38994 1.01525 0.70521 0.0
C93 C 0.34126 0.05361 0.71266 0.0
C94 C 0.3372 0.10324 0.67717 0.0
C95 C 0.37942 0.1128 0.63231 0.0
H96 H 0.52062 0.6644 0.93948 0.0
H97 H 0.59449 0.74419 0.93654 0.0
H98 H 0.68304 0.67412 0.09104 0.0
H99 H 0.60867 0.59579 0.09524 0.0
H100 H 0.60113 0.51739 1.01059 0.0
H101 H 0.37766 0.60108 0.93045 0.0
H102 H 0.30348 0.67977 0.93352 0.0
H103 H 0.37854 0.73955 0.09912 0.0
H104 H 0.45306 0.66 0.09641 0.0
H105 H 0.3774 0.43696 0.10308 0.0
H106 H 0.30232 0.35907 0.1021 0.0
H107 H 0.37614 0.29611 0.93655 0.0
H108 H 0.45104 0.37512 0.93676 0.0
H109 H 0.37734 0.5187 0.01846 0.0
H110 H 0.52623 0.37298 0.08909 0.0
H111 H 0.60101 0.29383 0.08747 0.0
H112 H 0.67463 0.35993 0.92317 0.0
H113 H 0.59961 0.43788 0.92395 0.0
C114 C 0.55893 0.62424 0.01777 0.0
C115 C 0.55482 0.66713 0.9737 0.0
C116 C 0.59722 0.71221 0.97163 0.0
C117 C 0.6445 0.71441 0.01318 0.0
C118 C 0.64711 0.67287 0.05844 0.0
C119 C 0.60462 0.62836 0.06084 0.0
C120 C 0.52155 0.57099 0.0153 0.0
C121 C 0.55202 0.5177 0.01243 0.0
C122 C 0.45765 0.57129 0.01524 0.0
C123 C 0.42092 0.62484 0.01312 0.0
C124 C 0.37896 0.63168 0.96695 0.0
C125 C 0.33658 0.67632 0.96874 0.0
C126 C 0.33533 0.71486 0.01679 0.0
C127 C 0.37888 0.70988 0.06184 0.0
C128 C 0.42152 0.66495 0.06005 0.0
C129 C 0.41991 0.41179 0.02006 0.0
C130 C 0.37823 0.40586 0.06701 0.0
C131 C 0.33538 0.3616 0.06648 0.0
C132 C 0.33356 0.32232 0.01908 0.0
C133 C 0.377 0.32624 0.97343 0.0
C134 C 0.41989 0.37091 0.97381 0.0
C135 C 0.45704 0.46509 0.01638 0.0
C136 C 0.42646 0.51837 0.01693 0.0
C137 C 0.52078 0.46478 0.01174 0.0
C138 C 0.55731 0.41122 1.00655 0.0
C139 C 0.55727 0.36941 0.05188 0.0
C140 C 0.60011 0.32466 0.05122 0.0
C141 C 0.64355 0.32165 1.00549 0.0
C142 C 0.64161 0.36177 0.95887 0.0
C143 C 0.59879 0.40607 0.95933 0.0
C144 C -0.00602 0.15851 0.8644 0.0
C145 C 0.98513 0.15787 0.15618 0.0
C146 C -0.00934 0.87824 0.86263 0.0
C147 C 0.98465 0.87773 0.15522 0.0
C148 C 0.13697 0.879 0.01568 0.0
C149 C 0.13574 0.15802 0.01462 0.0
C150 C 0.8409 0.88012 1.00502 0.0
C151 C 0.84236 0.15841 1.00644 0.0
C152 C 0.83764 1.0214 0.14787 0.0
C153 C 0.13046 1.01992 0.15595 0.0
C154 C 0.84691 1.0258 0.86419 0.0
C155 C 0.14103 1.01925 0.87294 0.0
Eu156 Eu -0.01094 0.12954 1.01031 0.0
O157 O 0.04007 0.07029 0.06465 0.0
O158 O 0.93812 0.07052 0.95581 0.0
Eu159 Eu 0.10121 1.01825 0.01323 0.0
Eu160 Eu 0.87671 1.01873 1.00693 0.0
O161 O 0.04315 0.07014 0.95866 0.0
O162 O 0.93427 0.0706 0.06181 0.0
Eu163 Eu -0.00777 1.01821 0.89699 0.0
Eu164 Eu 0.98512 1.01786 0.12258 0.0
O165 O 0.04398 0.96598 0.95774 0.0
O166 O 0.03995 0.96568 0.06402 0.0
O167 O 0.9347 0.96579 0.06079 0.0
O168 O 0.93758 0.96595 0.95545 0.0
Eu169 Eu -0.01057 0.90653 1.009 0.0
O170 O -0.00711 0.17708 0.92091 0.0
O171 O 0.98581 0.1768 0.09983 0.0
O172 O 0.0002 0.86069 0.91867 0.0
O173 O 0.98743 0.85901 0.09876 0.0
O174 O 0.15356 0.93443 0.01785 0.0
O175 O 0.15301 0.1027 0.0138 0.0
O176 O 0.82412 0.93544 1.00464 0.0
O177 O 0.82502 0.10314 1.00676 0.0
O178 O 0.89393 1.02188 0.16904 0.0
O179 O 0.07298 1.01735 0.17406 0.0
O180 O 0.90434 1.02381 0.84576 0.0
O181 O 0.08475 1.01789 0.85124 0.0
O182 O 0.8979 0.86019 1.00554 0.0
O183 O 0.08011 0.85947 0.01173 0.0
O184 O 0.89941 0.17747 1.00685 0.0
O185 O 0.07872 0.17717 0.01438 0.0
O186 O 0.98512 0.10255 0.17332 0.0
O187 O 0.9825 0.93288 0.1728 0.0
O188 O -0.00594 0.10325 0.84687 0.0
O189 O 0.98052 0.93322 0.84733 0.0
O190 O 0.15633 1.01872 0.92987 0.0
O191 O 0.14989 1.02113 0.10008 0.0
O192 O 0.82778 1.02373 0.92019 0.0
O193 O 0.82204 1.01867 0.091 0.0
C194 C 0.02802 0.28432 0.25796 0.0
C195 C 0.98421 0.27803 0.30406 0.0
C196 C 0.93589 0.19967 0.2476 0.0
C197 C 0.98351 0.2016 0.20498 0.0
N198 N 0.08092 0.23938 0.1753 0.0
N199 N 0.90281 0.22276 0.34768 0.0
C200 C 0.03124 0.24227 0.21162 0.0
C201 C 0.93993 0.23366 0.30023 0.0
N202 N 0.06511 0.33166 0.25705 0.0
N203 N 0.88556 0.16697 0.23674 0.0
H204 H 0.90507 0.24608 0.38733 0.0
H205 H 0.8739 0.18721 0.34985 0.0
H206 H 0.88018 0.14281 0.19798 0.0
H207 H 0.84671 0.16839 0.26309 0.0
H208 H 0.09325 0.34175 0.22127 0.0
H209 H 0.06388 0.3638 0.28958 0.0
H210 H 0.12007 0.26348 0.1824 0.0
H211 H 0.08539 0.20908 0.14122 0.0
C212 C 0.731 0.99743 0.27845 0.0
C213 C 0.68534 0.03855 0.26465 0.0
C214 C 0.74471 0.07329 0.18069 0.0
C215 C 0.78714 0.02814 0.19021 0.0
N216 N 0.81524 0.94055 0.24174 0.0
N217 N 0.64214 0.10668 0.19563 0.0
C218 C 0.77885 0.98818 0.23732 0.0
C219 C 0.69008 0.07359 0.21339 0.0
N220 N 0.73017 0.96907 0.33177 0.0
N221 N 0.75801 0.11767 0.14272 0.0
H222 H 0.60088 0.10732 0.2184 0.0
H223 H 0.64133 0.1288 0.15528 0.0
H224 H 0.79956 0.12099 0.12097 0.0
H225 H 0.73098 0.15437 0.1383 0.0
H226 H 0.76587 0.94347 0.3466 0.0
H227 H 0.69623 0.9749 0.36354 0.0
H228 H 0.80688 0.90677 0.27133 0.0
H229 H 0.85079 0.93232 0.21237 0.0
C230 C 0.92551 0.77924 0.27785 0.0
C231 C 0.97995 0.75639 0.30218 0.0
C232 C 0.03754 0.81898 0.23397 0.0
C233 C 0.98358 0.83385 0.20371 0.0
N234 N 0.87673 0.8184 0.19046 0.0
N235 N 0.08844 0.74483 0.29043 0.0
C236 C 0.92771 0.81071 0.22353 0.0
C237 C 0.03634 0.77365 0.2768 0.0
N238 N 0.87204 0.7736 0.30799 0.0
N239 N 0.08981 0.84859 0.22278 0.0
H240 H 0.0894 0.70841 0.31771 0.0
H241 H 0.12946 0.75301 0.26894 0.0
H242 H 0.09225 0.88231 0.19206 0.0
H243 H 0.12901 0.84284 0.24774 0.0
H244 H 0.83216 0.79365 0.2944 0.0
H245 H 0.86915 0.75475 0.35002 0.0
H246 H 0.83577 0.79809 0.20032 0.0
H247 H 0.87715 0.84081 0.15024 0.0
C248 C 0.22723 0.07322 0.28312 0.0
C249 C 0.27787 0.03602 0.27647 0.0
C250 C 0.22537 0.98137 0.19958 0.0
C251 C 0.17804 1.02288 0.20114 0.0
N252 N 0.13889 0.11444 0.23666 0.0
N253 N 0.32974 0.95993 0.22336 0.0
C254 C 0.18 0.0704 0.24101 0.0
C255 C 0.27827 0.99143 0.23329 0.0
N256 N 0.22343 0.11013 0.33054 0.0
N257 N 0.21902 0.93169 0.16709 0.0
H258 H 0.36959 0.96644 0.24717 0.0
H259 H 0.33465 0.93096 0.18819 0.0
H260 H 0.18037 0.92247 0.14241 0.0
H261 H 0.24938 0.89725 0.16897 0.0
H262 H 0.18447 0.13352 0.34094 0.0
H263 H 0.25713 0.11361 0.36265 0.0
H264 H 0.14263 0.15314 0.26013 0.0
H265 H 0.10419 0.11489 0.20551 0.0
C266 C 0.02301 0.80646 0.70999 0.0
C267 C -0.01097 0.75479 0.71452 0.0
C268 C 0.96191 0.77933 0.81799 0.0
C269 C -0.00798 0.8341 0.8125 0.0
N270 N 0.04815 0.90053 0.74861 0.0
N271 N 0.91927 0.69493 0.76903 0.0
C272 C 0.02141 0.84782 0.75712 0.0
C273 C 0.95665 0.74214 0.76744 0.0
N274 N 0.05881 0.81534 0.66101 0.0
N275 N 0.93868 0.76155 0.87135 0.0
H276 H 0.91614 0.66524 0.73426 0.0
H277 H 0.88766 0.68754 0.80264 0.0
H278 H 0.93425 0.78755 0.90863 0.0
H279 H 0.92587 0.71897 0.87993 0.0
H280 H 0.09197 0.84728 0.65845 0.0
H281 H 0.05844 0.78822 0.62394 0.0
H282 H 0.05956 0.91677 0.70687 0.0
H283 H 0.05806 0.92936 0.78244 0.0
C284 C 0.25274 0.99409 0.74712 0.0
C285 C 0.29262 0.04149 0.756 0.0
C286 C 0.22896 0.07693 0.83682 0.0
C287 C 0.19203 0.0269 0.83137 0.0
N288 N 0.17997 0.93009 0.79321 0.0
N289 N 0.32705 0.11981 0.81816 0.0
C290 C 0.20699 0.98311 0.78988 0.0
C291 C 0.28333 0.08041 0.80371 0.0
N292 N 0.25688 0.96088 0.69699 0.0
N293 N 0.21117 0.12202 0.8721 0.0
H294 H 0.36816 0.12273 0.79535 0.0
H295 H 0.32515 0.14539 0.85627 0.0
H296 H 0.1707 0.12185 0.89598 0.0
H297 H 0.23344 0.16175 0.87288 0.0
H298 H 0.22481 0.92961 0.68601 0.0
H299 H 0.28899 0.96805 0.66371 0.0
H300 H 0.19345 0.89488 0.76738 0.0
H301 H 0.14863 0.91972 0.82628 0.0
C302 C 0.95214 0.287 0.76466 0.0
C303 C -0.00505 0.28029 0.71777 0.0
C304 C 0.04226 0.20004 0.77216 0.0
C305 C -0.00438 0.20264 0.81585 0.0
N306 N 0.89975 0.24246 0.8478 0.0
N307 N 0.07428 0.22397 0.67196 0.0
C308 C 0.94883 0.24458 0.81064 0.0
C309 C 0.03819 0.23492 0.72017 0.0
N310 N 0.91593 0.33496 0.76648 0.0
N311 N 0.0918 0.16582 0.7814 0.0
H312 H 0.07219 0.24815 0.63286 0.0
H313 H 0.10217 0.18774 0.66861 0.0
H314 H 0.09707 0.14063 0.81942 0.0
H315 H 0.13023 0.16671 0.75443 0.0
H316 H 0.8887 0.34543 0.80283 0.0
H317 H 0.91699 0.36711 0.73396 0.0
H318 H 0.86111 0.26758 0.84173 0.0
H319 H 0.89493 0.21176 0.88142 0.0
C320 C 0.69738 1.00317 0.7879 0.0
C321 C 0.69887 0.04782 0.74489 0.0
C322 C 0.79789 0.0793 0.78029 0.0
C323 C 0.79893 0.03113 0.81941 0.0
N324 N 0.75575 0.94029 0.85151 0.0
N325 N 0.75484 0.12137 0.69164 0.0
C326 C 0.75034 0.991 0.82065 0.0
C327 C 0.75039 0.08393 0.73852 0.0
N328 N 0.64496 0.9733 0.79826 0.0
N329 N 0.84023 0.12217 0.78492 0.0
H330 H 0.72086 0.12636 0.66003 0.0
H331 H 0.79436 0.14386 0.68125 0.0
H332 H 0.87503 0.12135 0.81593 0.0
H333 H 0.83744 0.16123 0.76196 0.0
H334 H 0.63959 0.94426 0.8333 0.0
H335 H 0.60498 0.9815 0.77522 0.0
H336 H 0.72413 0.90692 0.84941 0.0
H337 H 0.7949 0.92912 0.87449 0.0
C338 C 0.23568 0.28722 0.9753 0.0
C339 C 0.28369 0.27932 0.01628 0.0
C340 C 0.22935 0.19812 0.06163 0.0
C341 C 0.18489 0.20165 0.01637 0.0
N342 N 0.15086 0.24398 0.92406 0.0
N343 N 0.33142 0.22166 0.09209 0.0
C344 C 0.18927 0.24479 0.97156 0.0
C345 C 0.28206 0.23303 0.05759 0.0
N346 N 0.23318 0.33628 0.94139 0.0
N347 N 0.21987 0.16338 0.10998 0.0
H348 H 0.37102 0.2462 0.09005 0.0
H349 H 0.33516 0.18489 0.11861 0.0
H350 H 0.18054 0.1391 0.11581 0.0
H351 H 0.24782 0.16332 0.14715 0.0
H352 H 0.19578 0.34742 0.91578 0.0
H353 H 0.26614 0.36855 0.94275 0.0
H354 H 0.15652 0.27022 0.88682 0.0
H355 H 0.1167 0.21333 0.91891 0.0
C356 C 0.23578 0.74966 0.05807 0.0
C357 C 0.2864 0.75881 0.02014 0.0
C358 C 0.2355 0.84176 0.97483 0.0
C359 C 0.18709 0.836 0.0163 0.0
N360 N 0.14643 0.79051 0.10445 0.0
N361 N 0.33987 0.81941 0.95047 0.0
C362 C 0.1886 0.79155 0.0599 0.0
C363 C 0.28791 0.80678 0.98104 0.0
N364 N 0.23172 0.69997 0.09086 0.0
N365 N 0.23013 0.87857 0.92761 0.0
H366 H 0.37916 0.7946 0.95402 0.0
H367 H 0.34581 0.85732 0.92607 0.0
H368 H 0.19142 0.90314 0.92004 0.0
H369 H 0.26119 0.88034 0.8927 0.0
H370 H 0.19278 0.68773 0.11389 0.0
H371 H 0.26561 0.66854 0.09144 0.0
H372 H 0.14936 0.76338 0.14129 0.0
H373 H 0.11109 0.82019 0.10734 0.0
C374 C 0.74135 0.28588 0.04893 0.0
C375 C 0.69363 0.27881 1.00746 0.0
C376 C 0.74886 0.19927 0.96001 0.0
C377 C 0.79313 0.20198 1.00549 0.0
N378 N 0.82608 0.24161 0.09939 0.0
N379 N 0.64668 0.22282 0.92986 0.0
C380 C 0.78807 0.24368 0.05163 0.0
C381 C 0.69582 0.23366 0.96484 0.0
N382 N 0.74333 0.33399 0.08429 0.0
N383 N 0.75876 0.16575 0.91084 0.0
H384 H 0.60682 0.24694 0.93252 0.0
H385 H 0.64338 0.18676 0.90225 0.0
H386 H 0.79832 0.14187 0.90464 0.0
H387 H 0.73095 0.16634 0.87359 0.0
H388 H 0.7805 0.34457 0.11046 0.0
H389 H 0.71021 0.36615 0.08366 0.0
H390 H 0.81987 0.26662 0.13746 0.0
H391 H 0.86054 0.21111 0.10367 0.0
C392 C 0.73619 0.75631 0.96216 0.0
C393 C 0.69288 0.75892 1.0089 0.0
C394 C 0.7497 0.8378 0.0555 0.0
C395 C 0.79064 0.83772 1.00657 0.0
N396 N 0.81248 0.8081 0.90606 0.0
N397 N 0.65109 0.80959 0.09328 0.0
C398 C 0.78104 0.80011 0.95778 0.0
C399 C 0.6975 0.80192 0.05365 0.0
N400 N 0.73604 0.71095 0.92314 0.0
N401 N 0.76145 0.87103 0.10442 0.0
H402 H 0.6118 0.78454 0.0927 0.0
H403 H 0.6489 0.84405 0.12306 0.0
H404 H 0.79887 0.89832 0.10744 0.0
H405 H 0.73706 0.86802 0.144 0.0
H406 H 0.7706 0.70385 0.89232 0.0
H407 H 0.70433 0.67755 0.92494 0.0
H408 H 0.80269 0.78593 0.86692 0.0
H409 H 0.84443 0.84093 0.9007 0.0
loop_
_geom_bond_atom_site_label_1
_geom_bond_atom_site_label_2
_geom_bond_distance
_geom_bond_site_symmetry_2
_ccdc_geom_bond_type
H0 C19 0.949 . S
H1 C20 0.950 . S
H2 C22 0.950 . S
H3 C23 0.950 . S
H4 C25 0.950 . S
H5 C28 0.950 . S
H6 C29 0.950 . S
H7 C31 0.951 . S
H8 C32 0.949 . S
H9 C34 0.949 . S
H10 C35 0.950 . S
H11 C37 0.950 . S
H12 C38 0.950 . S
H13 C40 0.950 . S
H14 C43 0.950 . S
H15 C44 0.950 . S
H16 C46 0.951 . S
H17 C47 0.949 . S
C18 C19 1.376 . S
C18 C23 1.386 1_455 S
C18 C24 1.483 . S
C19 H0 0.949 . S
C19 C18 1.376 . S
C19 C20 1.397 . S
C20 H1 0.950 . S
C20 C19 1.397 . S
C20 C21 1.391 . S
C21 C20 1.391 . S
C21 C22 1.405 1_455 S
C22 H2 0.950 . S
C22 C21 1.405 1_655 S
C22 C23 1.367 . S
C23 H3 0.950 . S
C23 C18 1.386 1_655 S
C23 C22 1.367 . S
C24 C18 1.483 . S
C24 C25 1.382 . S
C24 C26 1.403 1_455 S
C25 H4 0.950 . S
C25 C24 1.382 . S
C25 C41 1.411 . S
C26 C24 1.403 1_655 S
C26 C27 1.489 . S
C26 C40 1.411 . S
C27 C26 1.489 . S
C27 C28 1.383 1_655 S
C27 C32 1.382 . S
C28 H5 0.950 . S
C28 C27 1.383 1_455 S
C28 C29 1.395 . S
C29 H6 0.950 . S
C29 C28 1.395 . S
C29 C30 1.288 1_455 S
C30 C29 1.288 1_655 S
C30 C31 1.392 . S
C31 H7 0.951 . S
C31 C30 1.392 . S
C31 C32 1.392 . S
C32 H8 0.949 . S
C32 C27 1.382 . S
C32 C31 1.392 . S
C33 C34 1.376 . S
C33 C38 1.386 1_655 S
C33 C39 1.483 . S
C34 H9 0.949 . S
C34 C33 1.376 . S
C34 C35 1.397 . S
C35 H10 0.950 . S
C35 C34 1.397 . S
C35 C36 1.391 . S
C36 C35 1.391 . S
C36 C37 1.405 1_655 S
C37 H11 0.950 . S
C37 C36 1.405 1_455 S
C37 C38 1.367 . S
C38 H12 0.950 . S
C38 C33 1.386 1_455 S
C38 C37 1.367 . S
C39 C33 1.483 . S
C39 C40 1.382 . S
C39 C41 1.403 1_655 S
C40 H13 0.950 . S
C40 C26 1.411 . S
C40 C39 1.382 . S
C41 C25 1.411 . S
C41 C39 1.403 1_455 S
C41 C42 1.489 . S
C42 C41 1.489 . S
C42 C43 1.383 1_455 S
C42 C47 1.382 . S
C43 H14 0.950 . S
C43 C42 1.383 1_655 S
C43 C44 1.395 . S
C44 H15 0.950 . S
C44 C43 1.395 . S
C44 C45 1.288 1_655 S
C45 C44 1.288 1_455 S
C45 C46 1.392 . S
C46 H16 0.951 . S
C46 C45 1.392 . S
C46 C47 1.392 . S
C47 H17 0.949 . S
C47 C42 1.382 . S
C47 C46 1.392 . S
H48 C67 0.949 . S
H49 C68 0.950 . S
H50 C70 0.950 . S
H51 C71 0.950 . S
H52 C73 0.950 . S
H53 C76 0.950 . S
H54 C77 0.950 . S
H55 C79 0.951 . S
H56 C80 0.949 . S
H57 C82 0.949 . S
H58 C83 0.950 . S
H59 C85 0.950 . S
H60 C86 0.950 . S
H61 C88 0.950 . S
H62 C91 0.950 . S
H63 C92 0.950 . S
H64 C94 0.951 . S
H65 C95 0.949 . S
C66 C67 1.376 . S
C66 C71 1.386 1_545 S
C66 C72 1.483 . S
C67 H48 0.949 . S
C67 C66 1.376 . S
C67 C68 1.397 . S
C68 H49 0.950 . S
C68 C67 1.397 . S
C68 C69 1.391 . S
C69 C68 1.391 . S
C69 C70 1.405 1_545 S
C70 H50 0.950 . S
C70 C69 1.405 1_565 S
C70 C71 1.367 . S
C71 H51 0.950 . S
C71 C66 1.386 1_565 S
C71 C70 1.367 . S
C72 C66 1.483 . S
C72 C73 1.382 . S
C72 C74 1.403 1_545 S
C73 H52 0.950 . S
C73 C72 1.382 . S
C73 C89 1.411 . S
C74 C72 1.403 1_565 S
C74 C75 1.489 . S
C74 C88 1.411 . S
C75 C74 1.489 . S
C75 C76 1.383 1_565 S
C75 C80 1.382 . S
C76 H53 0.950 . S
C76 C75 1.383 1_545 S
C76 C77 1.395 . S
C77 H54 0.950 . S
C77 C76 1.395 . S
C77 C78 1.288 1_545 S
C78 C77 1.288 1_565 S
C78 C79 1.392 . S
C79 H55 0.951 . S
C79 C78 1.392 . S
C79 C80 1.392 . S
C80 H56 0.949 . S
C80 C75 1.382 . S
C80 C79 1.392 . S
C81 C82 1.376 . S
C81 C86 1.386 1_565 S
C81 C87 1.483 . S
C82 H57 0.949 . S
C82 C81 1.376 . S
C82 C83 1.397 . S
C83 H58 0.950 . S
C83 C82 1.397 . S
C83 C84 1.391 . S
C84 C83 1.391 . S
C84 C85 1.405 1_565 S
C85 H59 0.950 . S
C85 C84 1.405 1_545 S
C85 C86 1.367 . S
C86 H60 0.950 . S
C86 C81 1.386 1_545 S
C86 C85 1.367 . S
C87 C81 1.483 . S
C87 C88 1.382 . S
C87 C89 1.403 1_565 S
C88 H61 0.950 . S
C88 C74 1.411 . S
C88 C87 1.382 . S
C89 C73 1.411 . S
C89 C87 1.403 1_545 S
C89 C90 1.489 . S
C90 C89 1.489 . S
C90 C91 1.383 1_545 S
C90 C95 1.382 . S
C91 H62 0.950 . S
C91 C90 1.383 1_565 S
C91 C92 1.395 . S
C92 H63 0.950 . S
C92 C91 1.395 . S
C92 C93 1.288 1_565 S
C93 C92 1.288 1_545 S
C93 C94 1.392 . S
C94 H64 0.951 . S
C94 C93 1.392 . S
C94 C95 1.392 . S
C95 H65 0.949 . S
C95 C90 1.382 . S
C95 C94 1.392 . S
H96 C115 0.949 . S
H97 C116 0.950 . S
H98 C118 0.950 . S
H99 C119 0.950 . S
H100 C121 0.950 . S
H101 C124 0.950 . S
H102 C125 0.950 . S
H103 C127 0.951 . S
H104 C128 0.949 . S
H105 C130 0.949 . S
H106 C131 0.950 . S
H107 C133 0.950 . S
H108 C134 0.950 . S
H109 C136 0.950 . S
H110 C139 0.950 . S
H111 C140 0.950 . S
H112 C142 0.951 . S
H113 C143 0.949 . S
C114 C115 1.376 . S
C114 C119 1.386 1_556 S
C114 C120 1.483 . S
C115 H96 0.949 . S
C115 C114 1.376 . S
C115 C116 1.397 . S
C116 H97 0.950 . S
C116 C115 1.397 . S
C116 C117 1.391 . S
C117 C116 1.391 . S
C117 C118 1.405 1_556 S
C118 H98 0.950 . S
C118 C117 1.405 1_554 S
C118 C119 1.367 . S
C119 H99 0.950 . S
C119 C114 1.386 1_554 S
C119 C118 1.367 . S
C120 C114 1.483 . S
C120 C121 1.382 . S
C120 C122 1.403 1_556 S
C121 H100 0.950 . S
C121 C120 1.382 . S
C121 C137 1.411 . S
C122 C120 1.403 1_554 S
C122 C123 1.489 . S
C122 C136 1.411 . S
C123 C122 1.489 . S
C123 C124 1.383 1_554 S
C123 C128 1.382 . S
C124 H101 0.950 . S
C124 C123 1.383 1_556 S
C124 C125 1.395 . S
C125 H102 0.950 . S
C125 C124 1.395 . S
C125 C126 1.288 1_556 S
C126 C125 1.288 1_554 S
C126 C127 1.392 . S
C127 H103 0.951 . S
C127 C126 1.392 . S
C127 C128 1.392 . S
C128 H104 0.949 . S
C128 C123 1.382 . S
C128 C127 1.392 . S
C129 C130 1.376 . S
C129 C134 1.386 1_554 S
C129 C135 1.483 . S
C130 H105 0.949 . S
C130 C129 1.376 . S
C130 C131 1.397 . S
C131 H106 0.950 . S
C131 C130 1.397 . S
C131 C132 1.391 . S
C132 C131 1.391 . S
C132 C133 1.405 1_554 S
C133 H107 0.950 . S
C133 C132 1.405 1_556 S
C133 C134 1.367 . S
C134 H108 0.950 . S
C134 C129 1.386 1_556 S
C134 C133 1.367 . S
C135 C129 1.483 . S
C135 C136 1.382 . S
C135 C137 1.403 1_554 S
C136 H109 0.950 . S
C136 C122 1.411 . S
C136 C135 1.382 . S
C137 C121 1.411 . S
C137 C135 1.403 1_556 S
C137 C138 1.489 . S
C138 C137 1.489 . S
C138 C139 1.383 1_556 S
C138 C143 1.382 . S
C139 H110 0.950 . S
C139 C138 1.383 1_554 S
C139 C140 1.395 . S
C140 H111 0.950 . S
C140 C139 1.395 . S
C140 C141 1.288 1_554 S
C141 C140 1.288 1_556 S
C141 C142 1.392 . S
C142 H112 0.951 . S
C142 C141 1.392 . S
C142 C143 1.392 . S
C143 H113 0.949 . S
C143 C138 1.382 . S
C143 C142 1.392 . S
C144 O170 1.283 . S
C144 O188 1.283 . S
C145 O171 1.283 . S
C145 O186 1.283 . S
C146 O172 1.283 . S
C146 O189 1.283 . S
C147 O173 1.283 . S
C147 O187 1.283 . S
C148 O174 1.283 . S
C148 O183 1.283 . S
C149 O175 1.283 . S
C149 O185 1.283 . S
C150 O176 1.283 . S
C150 O182 1.283 . S
C151 O177 1.283 . S
C151 O184 1.283 . S
C152 O178 1.283 . S
C152 O193 1.283 . S
C153 O179 1.283 . S
C153 O191 1.283 . S
C154 O180 1.283 . S
C154 O192 1.283 . S
C155 O181 1.283 . S
C155 O190 1.283 . S
Eu156 O157 2.371 . S
Eu156 O158 2.369 1_454 S
Eu156 O161 2.370 1_554 S
Eu156 O162 2.370 1_455 S
Eu156 O170 2.362 1_554 S
Eu156 O171 2.363 . S
Eu156 O184 2.362 1_455 S
Eu156 O185 2.363 . S
O157 Eu156 2.371 . S
O157 Eu159 2.371 . S
O157 Eu164 2.371 . S
O158 Eu156 2.369 1_656 S
O158 Eu160 2.370 1_556 S
O158 Eu163 2.370 1_655 S
Eu159 O157 2.371 . S
Eu159 O161 2.370 1_554 S
Eu159 O165 2.369 1_544 S
Eu159 O166 2.370 1_545 S
Eu159 O174 2.362 1_545 S
Eu159 O175 2.364 . S
Eu159 O190 2.362 1_554 S
Eu159 O191 2.364 . S
Eu160 O158 2.370 1_554 S
Eu160 O162 2.369 . S
Eu160 O167 2.370 1_545 S
Eu160 O168 2.371 1_544 S
Eu160 O176 2.364 1_545 S
Eu160 O177 2.362 . S
Eu160 O192 2.364 1_554 S
Eu160 O193 2.362 . S
O161 Eu156 2.370 1_556 S
O161 Eu159 2.370 1_556 S
O161 Eu163 2.369 . S
O162 Eu156 2.370 1_655 S
O162 Eu160 2.369 . S
O162 Eu164 2.370 1_655 S
Eu163 O158 2.370 1_455 S
Eu163 O161 2.369 . S
Eu163 O165 2.370 1_545 S
Eu163 O168 2.371 1_445 S
Eu163 O180 2.364 1_455 S
Eu163 O181 2.362 . S
Eu163 O188 2.362 . S
Eu163 O189 2.364 1_545 S
Eu164 O157 2.371 . S
Eu164 O162 2.370 1_455 S
Eu164 O166 2.370 1_545 S
Eu164 O167 2.369 1_445 S
Eu164 O178 2.362 1_455 S
Eu164 O179 2.364 . S
Eu164 O186 2.364 . S
Eu164 O187 2.362 1_545 S
O165 Eu159 2.369 1_566 S
O165 Eu163 2.370 1_565 S
O165 Eu169 2.370 1_556 S
O166 Eu159 2.370 1_565 S
O166 Eu164 2.370 1_565 S
O166 Eu169 2.369 . S
O167 Eu160 2.370 1_565 S
O167 Eu164 2.369 1_665 S
O167 Eu169 2.370 1_655 S
O168 Eu160 2.371 1_566 S
O168 Eu163 2.371 1_665 S
O168 Eu169 2.371 1_656 S
Eu169 O165 2.370 1_554 S
Eu169 O166 2.369 . S
Eu169 O167 2.370 1_455 S
Eu169 O168 2.371 1_454 S
Eu169 O172 2.363 1_554 S
Eu169 O173 2.362 . S
Eu169 O182 2.363 1_455 S
Eu169 O183 2.362 . S
O170 C144 1.283 . S
O170 Eu156 2.362 1_556 S
O171 C145 1.283 . S
O171 Eu156 2.363 . S
O172 C146 1.283 . S
O172 Eu169 2.363 1_556 S
O173 C147 1.283 . S
O173 Eu169 2.362 . S
O174 C148 1.283 . S
O174 Eu159 2.362 1_565 S
O175 C149 1.283 . S
O175 Eu159 2.364 . S
O176 C150 1.283 . S
O176 Eu160 2.364 1_565 S
O177 C151 1.283 . S
O177 Eu160 2.362 . S
O178 C152 1.283 . S
O178 Eu164 2.362 1_655 S
O179 C153 1.283 . S
O179 Eu164 2.364 . S
O180 C154 1.283 . S
O180 Eu163 2.364 1_655 S
O181 C155 1.283 . S
O181 Eu163 2.362 . S
O182 C150 1.283 . S
O182 Eu169 2.363 1_655 S
O183 C148 1.283 . S
O183 Eu169 2.362 . S
O184 C151 1.283 . S
O184 Eu156 2.362 1_655 S
O185 C149 1.283 . S
O185 Eu156 2.363 . S
O186 C145 1.283 . S
O186 Eu164 2.364 . S
O187 C147 1.283 . S
O187 Eu164 2.362 1_565 S
O188 C144 1.283 . S
O188 Eu163 2.362 . S
O189 C146 1.283 . S
O189 Eu163 2.364 1_565 S
O190 C155 1.283 . S
O190 Eu159 2.362 1_556 S
O191 C153 1.283 . S
O191 Eu159 2.364 . S
O192 C154 1.283 . S
O192 Eu160 2.364 1_556 S
O193 C152 1.283 . S
O193 Eu160 2.362 . S
C194 C195 1.363 . S
C194 C200 1.379 . S
C194 N202 1.356 . S
C195 C194 1.363 . S
C195 C201 1.363 1_455 S
C196 C197 1.363 1_655 S
C196 C201 1.379 . S
C196 N203 1.356 . S
C197 C196 1.363 1_455 S
C197 C200 1.363 . S
N198 C200 1.356 . S
N198 H210 0.984 . S
N198 H211 0.985 . S
N199 C201 1.356 . S
N199 H204 0.984 . S
N199 H205 0.985 . S
C200 C194 1.379 . S
C200 C197 1.363 . S
C200 N198 1.356 . S
C201 C195 1.363 1_655 S
C201 C196 1.379 . S
C201 N199 1.356 . S
N202 C194 1.356 . S
N202 H208 0.984 . S
N202 H209 0.984 . S
N203 C196 1.356 . S
N203 H206 0.984 . S
N203 H207 0.985 . S
H204 N199 0.984 . S
H205 N199 0.985 . S
H206 N203 0.984 . S
H207 N203 0.985 . S
H208 N202 0.984 . S
H209 N202 0.984 . S
H210 N198 0.984 . S
H211 N198 0.985 . S
C212 C213 1.363 1_565 S
C212 C218 1.379 . S
C212 N220 1.356 . S
C213 C212 1.363 1_545 S
C213 C219 1.363 . S
C214 C215 1.363 . S
C214 C219 1.379 . S
C214 N221 1.356 . S
C215 C214 1.363 . S
C215 C218 1.363 1_545 S
N216 C218 1.356 . S
N216 H228 0.984 . S
N216 H229 0.985 . S
N217 C219 1.356 . S
N217 H222 0.984 . S
N217 H223 0.985 . S
C218 C212 1.379 . S
C218 C215 1.363 1_565 S
C218 N216 1.356 . S
C219 C213 1.363 . S
C219 C214 1.379 . S
C219 N217 1.356 . S
N220 C212 1.356 . S
N220 H226 0.984 . S
N220 H227 0.984 . S
N221 C214 1.356 . S
N221 H224 0.984 . S
N221 H225 0.985 . S
H222 N217 0.984 . S
H223 N217 0.985 . S
H224 N221 0.984 . S
H225 N221 0.985 . S
H226 N220 0.984 . S
H227 N220 0.984 . S
H228 N216 0.984 . S
H229 N216 0.985 . S
C230 C231 1.363 1_655 S
C230 C236 1.379 . S
C230 N238 1.356 . S
C231 C230 1.363 1_455 S
C231 C237 1.363 . S
C232 C233 1.363 . S
C232 C237 1.379 . S
C232 N239 1.356 . S
C233 C232 1.363 . S
C233 C236 1.363 1_455 S
N234 C236 1.356 . S
N234 H246 0.984 . S
N234 H247 0.985 . S
N235 C237 1.356 . S
N235 H240 0.984 . S
N235 H241 0.985 . S
C236 C230 1.379 . S
C236 C233 1.363 1_655 S
C236 N234 1.356 . S
C237 C231 1.363 . S
C237 C232 1.379 . S
C237 N235 1.356 . S
N238 C230 1.356 . S
N238 H244 0.984 . S
N238 H245 0.984 . S
N239 C232 1.356 . S
N239 H242 0.984 . S
N239 H243 0.985 . S
H240 N235 0.984 . S
H241 N235 0.985 . S
H242 N239 0.984 . S
H243 N239 0.985 . S
H244 N238 0.984 . S
H245 N238 0.984 . S
H246 N234 0.984 . S
H247 N234 0.985 . S
C248 C249 1.363 . S
C248 C254 1.379 . S
C248 N256 1.356 . S
C249 C248 1.363 . S
C249 C255 1.363 1_545 S
C250 C251 1.362 1_565 S
C250 C255 1.379 . S
C250 N257 1.356 . S
C251 C250 1.362 1_545 S
C251 C254 1.364 . S
N252 C254 1.356 . S
N252 H264 0.984 . S
N252 H265 0.985 . S
N253 C255 1.356 . S
N253 H258 0.984 . S
N253 H259 0.985 . S
C254 C248 1.379 . S
C254 C251 1.364 . S
C254 N252 1.356 . S
C255 C249 1.363 1_565 S
C255 C250 1.379 . S
C255 N253 1.356 . S
N256 C248 1.356 . S
N256 H262 0.984 . S
N256 H263 0.984 . S
N257 C250 1.356 . S
N257 H260 0.984 . S
N257 H261 0.985 . S
H258 N253 0.984 . S
H259 N253 0.985 . S
H260 N257 0.984 . S
H261 N257 0.985 . S
H262 N256 0.984 . S
H263 N256 0.984 . S
H264 N252 0.984 . S
H265 N252 0.985 . S
C266 C267 1.363 . S
C266 C272 1.379 . S
C266 N274 1.356 . S
C267 C266 1.363 . S
C267 C273 1.363 1_455 S
C268 C269 1.363 1_655 S
C268 C273 1.379 . S
C268 N275 1.356 . S
C269 C268 1.363 1_455 S
C269 C272 1.363 . S
N270 C272 1.356 . S
N270 H282 0.984 . S
N270 H283 0.985 . S
N271 C273 1.356 . S
N271 H276 0.984 . S
N271 H277 0.985 . S
C272 C266 1.379 . S
C272 C269 1.363 . S
C272 N270 1.356 . S
C273 C267 1.363 1_655 S
C273 C268 1.379 . S
C273 N271 1.356 . S
N274 C266 1.356 . S
N274 H280 0.984 . S
N274 H281 0.984 . S
N275 C268 1.356 . S
N275 H278 0.984 . S
N275 H279 0.985 . S
H276 N271 0.984 . S
H277 N271 0.985 . S
H278 N275 0.984 . S
H279 N275 0.985 . S
H280 N274 0.984 . S
H281 N274 0.984 . S
H282 N270 0.984 . S
H283 N270 0.985 . S
C284 C285 1.363 1_565 S
C284 C290 1.379 . S
C284 N292 1.356 . S
C285 C284 1.363 1_545 S
C285 C291 1.363 . S
C286 C287 1.363 . S
C286 C291 1.379 . S
C286 N293 1.356 . S
C287 C286 1.363 . S
C287 C290 1.363 1_545 S
N288 C290 1.356 . S
N288 H300 0.984 . S
N288 H301 0.985 . S
N289 C291 1.356 . S
N289 H294 0.984 . S
N289 H295 0.985 . S
C290 C284 1.379 . S
C290 C287 1.363 1_565 S
C290 N288 1.356 . S
C291 C285 1.363 . S
C291 C286 1.379 . S
C291 N289 1.356 . S
N292 C284 1.356 . S
N292 H298 0.984 . S
N292 H299 0.984 . S
N293 C286 1.356 . S
N293 H296 0.984 . S
N293 H297 0.985 . S
H294 N289 0.984 . S
H295 N289 0.985 . S
H296 N293 0.984 . S
H297 N293 0.985 . S
H298 N292 0.984 . S
H299 N292 0.984 . S
H300 N288 0.984 . S
H301 N288 0.985 . S
C302 C303 1.363 1_655 S
C302 C308 1.379 . S
C302 N310 1.356 . S
C303 C302 1.363 1_455 S
C303 C309 1.363 . S
C304 C305 1.363 . S
C304 C309 1.379 . S
C304 N311 1.356 . S
C305 C304 1.363 . S
C305 C308 1.363 1_455 S
N306 C308 1.356 . S
N306 H318 0.984 . S
N306 H319 0.985 . S
N307 C309 1.356 . S
N307 H312 0.984 . S
N307 H313 0.985 . S
C308 C302 1.379 . S
C308 C305 1.363 1_655 S
C308 N306 1.356 . S
C309 C303 1.363 . S
C309 C304 1.379 . S
C309 N307 1.356 . S
N310 C302 1.356 . S
N310 H316 0.984 . S
N310 H317 0.984 . S
N311 C304 1.356 . S
N311 H314 0.984 . S
N311 H315 0.985 . S
H312 N307 0.984 . S
H313 N307 0.985 . S
H314 N311 0.984 . S
H315 N311 0.985 . S
H316 N310 0.984 . S
H317 N310 0.984 . S
H318 N306 0.984 . S
H319 N306 0.985 . S
C320 C321 1.363 1_565 S
C320 C326 1.379 . S
C320 N328 1.356 . S
C321 C320 1.363 1_545 S
C321 C327 1.363 . S
C322 C323 1.362 . S
C322 C327 1.379 . S
C322 N329 1.356 . S
C323 C322 1.362 . S
C323 C326 1.364 1_545 S
N324 C326 1.356 . S
N324 H336 0.984 . S
N324 H337 0.985 . S
N325 C327 1.356 . S
N325 H330 0.984 . S
N325 H331 0.985 . S
C326 C320 1.379 . S
C326 C323 1.364 1_565 S
C326 N324 1.356 . S
C327 C321 1.363 . S
C327 C322 1.379 . S
C327 N325 1.356 . S
N328 C320 1.356 . S
N328 H334 0.984 . S
N328 H335 0.984 . S
N329 C322 1.356 . S
N329 H332 0.984 . S
N329 H333 0.985 . S
H330 N325 0.984 . S
H331 N325 0.985 . S
H332 N329 0.984 . S
H333 N329 0.985 . S
H334 N328 0.984 . S
H335 N328 0.984 . S
H336 N324 0.984 . S
H337 N324 0.985 . S
C338 C339 1.363 1_556 S
C338 C344 1.379 . S
C338 N346 1.356 . S
C339 C338 1.363 1_554 S
C339 C345 1.363 . S
C340 C341 1.364 . S
C340 C345 1.379 . S
C340 N347 1.356 . S
C341 C340 1.364 . S
C341 C344 1.362 1_554 S
N342 C344 1.356 . S
N342 H354 0.984 . S
N342 H355 0.985 . S
N343 C345 1.356 . S
N343 H348 0.984 . S
N343 H349 0.985 . S
C344 C338 1.379 . S
C344 C341 1.362 1_556 S
C344 N342 1.356 . S
C345 C339 1.363 . S
C345 C340 1.379 . S
C345 N343 1.356 . S
N346 C338 1.356 . S
N346 H352 0.984 . S
N346 H353 0.984 . S
N347 C340 1.356 . S
N347 H350 0.984 . S
N347 H351 0.985 . S
H348 N343 0.984 . S
H349 N343 0.985 . S
H350 N347 0.984 . S
H351 N347 0.985 . S
H352 N346 0.984 . S
H353 N346 0.984 . S
H354 N342 0.984 . S
H355 N342 0.985 . S
C356 C357 1.363 . S
C356 C362 1.379 . S
C356 N364 1.356 . S
C357 C356 1.363 . S
C357 C363 1.363 1_554 S
C358 C359 1.363 1_556 S
C358 C363 1.379 . S
C358 N365 1.356 . S
C359 C358 1.363 1_554 S
C359 C362 1.363 . S
N360 C362 1.356 . S
N360 H372 0.984 . S
N360 H373 0.985 . S
N361 C363 1.356 . S
N361 H366 0.984 . S
N361 H367 0.985 . S
C362 C356 1.379 . S
C362 C359 1.363 . S
C362 N360 1.356 . S
C363 C357 1.363 1_556 S
C363 C358 1.379 . S
C363 N361 1.356 . S
N364 C356 1.356 . S
N364 H370 0.984 . S
N364 H371 0.984 . S
N365 C358 1.356 . S
N365 H368 0.984 . S
N365 H369 0.985 . S
H366 N361 0.984 . S
H367 N361 0.985 . S
H368 N365 0.984 . S
H369 N365 0.985 . S
H370 N364 0.984 . S
H371 N364 0.984 . S
H372 N360 0.984 . S
H373 N360 0.985 . S
C374 C375 1.363 . S
C374 C380 1.379 . S
C374 N382 1.356 . S
C375 C374 1.363 . S
C375 C381 1.363 1_554 S
C376 C377 1.363 1_556 S
C376 C381 1.379 . S
C376 N383 1.356 . S
C377 C376 1.363 1_554 S
C377 C380 1.363 . S
N378 C380 1.356 . S
N378 H390 0.984 . S
N378 H391 0.985 . S
N379 C381 1.356 . S
N379 H384 0.984 . S
N379 H385 0.985 . S
C380 C374 1.379 . S
C380 C377 1.363 . S
C380 N378 1.356 . S
C381 C375 1.363 1_556 S
C381 C376 1.379 . S
C381 N379 1.356 . S
N382 C374 1.356 . S
N382 H388 0.984 . S
N382 H389 0.984 . S
N383 C376 1.356 . S
N383 H386 0.984 . S
N383 H387 0.985 . S
H384 N379 0.984 . S
H385 N379 0.985 . S
H386 N383 0.984 . S
H387 N383 0.985 . S
H388 N382 0.984 . S
H389 N382 0.984 . S
H390 N378 0.984 . S
H391 N378 0.985 . S
C392 C393 1.363 1_556 S
C392 C398 1.379 . S
C392 N400 1.356 . S
C393 C392 1.363 1_554 S
C393 C399 1.363 . S
C394 C395 1.362 . S
C394 C399 1.379 . S
C394 N401 1.356 . S
C395 C394 1.362 . S
C395 C398 1.364 1_554 S
N396 C398 1.356 . S
N396 H408 0.984 . S
N396 H409 0.985 . S
N397 C399 1.356 . S
N397 H402 0.984 . S
N397 H403 0.985 . S
C398 C392 1.379 . S
C398 C395 1.364 1_556 S
C398 N396 1.356 . S
C399 C393 1.363 . S
C399 C394 1.379 . S
C399 N397 1.356 . S
N400 C392 1.356 . S
N400 H406 0.984 . S
N400 H407 0.984 . S
N401 C394 1.356 . S
N401 H404 0.984 . S
N401 H405 0.985 . S
H402 N397 0.984 . S
H403 N397 0.985 . S
H404 N401 0.984 . S
H405 N401 0.985 . S
H406 N400 0.984 . S
H407 N400 0.984 . S
H408 N396 0.984 . S
H409 N396 0.985 . S
C197 C145 1.819 . S
C195 C36 1.805 1_455 S
C215 C152 1.345 . S
C213 C78 1.318 1_545 S
C233 C147 1.818 . S
C231 C30 1.785 1_455 S
C251 C153 1.346 . S
C249 C69 1.333 . S
C267 C21 1.807 . S
C269 C146 1.822 . S
C287 C155 1.345 . S
C285 C93 1.319 . S
C303 C45 1.786 . S
C305 C144 1.819 . S
C321 C84 1.336 1_545 S
C323 C154 1.349 . S
C339 C132 1.546 . S
C341 C149 1.550 . S
C357 C126 1.530 . S
C359 C148 1.550 . S
C377 C151 1.550 . S
C375 C141 1.530 1_554 S
C395 C150 1.552 . S
C393 C117 1.548 1_554 S
