# Generated by pormake.
# Topology eea, (3,6)-cn, num edge types: 1
# Building blocks:
#     Node 0, Type 0, BuildingBlock: CUQRIR_clean_linker_1, # of connection points: 3
#     Node 1, Type 0, BuildingBlock: CUQRIR_clean_linker_1, # of connection points: 3
#     Node 2, Type 0, BuildingBlock: CUQRIR_clean_linker_1, # of connection points: 3
#     Node 3, Type 0, BuildingBlock: CUQRIR_clean_linker_1, # of connection points: 3
#     Node 4, Type 0, BuildingBlock: CUQRIR_clean_linker_1, # of connection points: 3
#     Node 5, Type 0, BuildingBlock: CUQRIR_clean_linker_1, # of connection points: 3
#     Node 6, Type 0, BuildingBlock: CUQRIR_clean_linker_1, # of connection points: 3
#     Node 7, Type 0, BuildingBlock: CUQRIR_clean_linker_1, # of connection points: 3
#     Node 8, Type 0, BuildingBlock: CUQRIR_clean_linker_1, # of connection points: 3
#     Node 9, Type 0, BuildingBlock: CUQRIR_clean_linker_1, # of connection points: 3
#     Node 10, Type 0, BuildingBlock: CUQRIR_clean_linker_1, # of connection points: 3
#     Node 11, Type 0, BuildingBlock: CUQRIR_clean_linker_1, # of connection points: 3
#     Node 12, Type 0, BuildingBlock: CUQRIR_clean_linker_1, # of connection points: 3
#     Node 13, Type 0, BuildingBlock: CUQRIR_clean_linker_1, # of connection points: 3
#     Node 14, Type 0, BuildingBlock: CUQRIR_clean_linker_1, # of connection points: 3
#     Node 15, Type 0, BuildingBlock: CUQRIR_clean_linker_1, # of connection points: 3
#     Node 16, Type 0, BuildingBlock: CUQRIR_clean_linker_1, # of connection points: 3
#     Node 17, Type 0, BuildingBlock: CUQRIR_clean_linker_1, # of connection points: 3
#     Node 18, Type 1, BuildingBlock: CIFDUS_clean_sbu_1, # of connection points: 6
#     Node 19, Type 1, BuildingBlock: CIFDUS_clean_sbu_1, # of connection points: 6
#     Node 20, Type 1, BuildingBlock: CIFDUS_clean_sbu_1, # of connection points: 6
#     Node 21, Type 1, BuildingBlock: CIFDUS_clean_sbu_1, # of connection points: 6
#     Node 22, Type 1, BuildingBlock: CIFDUS_clean_sbu_1, # of connection points: 6
#     Node 23, Type 1, BuildingBlock: CIFDUS_clean_sbu_1, # of connection points: 6
#     Node 24, Type 1, BuildingBlock: CIFDUS_clean_sbu_1, # of connection points: 6
#     Node 25, Type 1, BuildingBlock: CIFDUS_clean_sbu_1, # of connection points: 6
#     Node 26, Type 1, BuildingBlock: CIFDUS_clean_sbu_1, # of connection points: 6
#     Edge 27, Type (0, 1), BuildingBlock: TEMPAE_clean_linker_10, # of connection points: 2
#     Edge 28, Type (0, 1), BuildingBlock: TEMPAE_clean_linker_10, # of connection points: 2
#     Edge 29, Type (0, 1), BuildingBlock: TEMPAE_clean_linker_10, # of connection points: 2
#     Edge 30, Type (0, 1), BuildingBlock: TEMPAE_clean_linker_10, # of connection points: 2
#     Edge 31, Type (0, 1), BuildingBlock: TEMPAE_clean_linker_10, # of connection points: 2
#     Edge 32, Type (0, 1), BuildingBlock: TEMPAE_clean_linker_10, # of connection points: 2
#     Edge 33, Type (0, 1), BuildingBlock: TEMPAE_clean_linker_10, # of connection points: 2
#     Edge 34, Type (0, 1), BuildingBlock: TEMPAE_clean_linker_10, # of connection points: 2
#     Edge 35, Type (0, 1), BuildingBlock: TEMPAE_clean_linker_10, # of connection points: 2
#     Edge 36, Type (0, 1), BuildingBlock: TEMPAE_clean_linker_10, # of connection points: 2
#     Edge 37, Type (0, 1), BuildingBlock: TEMPAE_clean_linker_10, # of connection points: 2
#     Edge 38, Type (0, 1), BuildingBlock: TEMPAE_clean_linker_10, # of connection points: 2
#     Edge 39, Type (0, 1), BuildingBlock: TEMPAE_clean_linker_10, # of connection points: 2
#     Edge 40, Type (0, 1), BuildingBlock: TEMPAE_clean_linker_10, # of connection points: 2
#     Edge 41, Type (0, 1), BuildingBlock: TEMPAE_clean_linker_10, # of connection points: 2
#     Edge 42, Type (0, 1), BuildingBlock: TEMPAE_clean_linker_10, # of connection points: 2
#     Edge 43, Type (0, 1), BuildingBlock: TEMPAE_clean_linker_10, # of connection points: 2
#     Edge 44, Type (0, 1), BuildingBlock: TEMPAE_clean_linker_10, # of connection points: 2
#     Edge 45, Type (0, 1), BuildingBlock: TEMPAE_clean_linker_10, # of connection points: 2
#     Edge 46, Type (0, 1), BuildingBlock: TEMPAE_clean_linker_10, # of connection points: 2
#     Edge 47, Type (0, 1), BuildingBlock: TEMPAE_clean_linker_10, # of connection points: 2
#     Edge 48, Type (0, 1), BuildingBlock: TEMPAE_clean_linker_10, # of connection points: 2
#     Edge 49, Type (0, 1), BuildingBlock: TEMPAE_clean_linker_10, # of connection points: 2
#     Edge 50, Type (0, 1), BuildingBlock: TEMPAE_clean_linker_10, # of connection points: 2
#     Edge 51, Type (0, 1), BuildingBlock: TEMPAE_clean_linker_10, # of connection points: 2
#     Edge 52, Type (0, 1), BuildingBlock: TEMPAE_clean_linker_10, # of connection points: 2
#     Edge 53, Type (0, 1), BuildingBlock: TEMPAE_clean_linker_10, # of connection points: 2
#     Edge 54, Type (0, 1), BuildingBlock: TEMPAE_clean_linker_10, # of connection points: 2
#     Edge 55, Type (0, 1), BuildingBlock: TEMPAE_clean_linker_10, # of connection points: 2
#     Edge 56, Type (0, 1), BuildingBlock: TEMPAE_clean_linker_10, # of connection points: 2
#     Edge 57, Type (0, 1), BuildingBlock: TEMPAE_clean_linker_10, # of connection points: 2
#     Edge 58, Type (0, 1), BuildingBlock: TEMPAE_clean_linker_10, # of connection points: 2
#     Edge 59, Type (0, 1), BuildingBlock: TEMPAE_clean_linker_10, # of connection points: 2
#     Edge 60, Type (0, 1), BuildingBlock: TEMPAE_clean_linker_10, # of connection points: 2
#     Edge 61, Type (0, 1), BuildingBlock: TEMPAE_clean_linker_10, # of connection points: 2
#     Edge 62, Type (0, 1), BuildingBlock: TEMPAE_clean_linker_10, # of connection points: 2
#     Edge 63, Type (0, 1), BuildingBlock: TEMPAE_clean_linker_10, # of connection points: 2
#     Edge 64, Type (0, 1), BuildingBlock: TEMPAE_clean_linker_10, # of connection points: 2
#     Edge 65, Type (0, 1), BuildingBlock: TEMPAE_clean_linker_10, # of connection points: 2
#     Edge 66, Type (0, 1), BuildingBlock: TEMPAE_clean_linker_10, # of connection points: 2
#     Edge 67, Type (0, 1), BuildingBlock: TEMPAE_clean_linker_10, # of connection points: 2
#     Edge 68, Type (0, 1), BuildingBlock: TEMPAE_clean_linker_10, # of connection points: 2
#     Edge 69, Type (0, 1), BuildingBlock: TEMPAE_clean_linker_10, # of connection points: 2
#     Edge 70, Type (0, 1), BuildingBlock: TEMPAE_clean_linker_10, # of connection points: 2
#     Edge 71, Type (0, 1), BuildingBlock: TEMPAE_clean_linker_10, # of connection points: 2
#     Edge 72, Type (0, 1), BuildingBlock: TEMPAE_clean_linker_10, # of connection points: 2
#     Edge 73, Type (0, 1), BuildingBlock: TEMPAE_clean_linker_10, # of connection points: 2
#     Edge 74, Type (0, 1), BuildingBlock: TEMPAE_clean_linker_10, # of connection points: 2
#     Edge 75, Type (0, 1), BuildingBlock: TEMPAE_clean_linker_10, # of connection points: 2
#     Edge 76, Type (0, 1), BuildingBlock: TEMPAE_clean_linker_10, # of connection points: 2
#     Edge 77, Type (0, 1), BuildingBlock: TEMPAE_clean_linker_10, # of connection points: 2
#     Edge 78, Type (0, 1), BuildingBlock: TEMPAE_clean_linker_10, # of connection points: 2
#     Edge 79, Type (0, 1), BuildingBlock: TEMPAE_clean_linker_10, # of connection points: 2
#     Edge 80, Type (0, 1), BuildingBlock: TEMPAE_clean_linker_10, # of connection points: 2
# Relax obj value: 0.111
# Max RMSD: 0.163
# Mean RMSD: 0.139
data_MOF--net-eea--node1-CIFDUS_clean_sbu_1--node2-CUQRIR_clean_linker_1--edge1-TEMPAE_clean_linker_10
_symmetry_space_group_name_H-M    P1
_symmetry_Int_Tables_number       1
_symmetry_cell_setting            triclinic
loop_
_symmetry_equiv_pos_as_xyz
'x, y, z'
_cell_length_a     53.751078
_cell_length_b     53.910686
_cell_length_c     43.471473
_cell_angle_alpha  82.522264
_cell_angle_beta   89.828208
_cell_angle_gamma 119.89751
loop_
_atom_site_label
_atom_site_type_symbol
_atom_site_fract_x
_atom_site_fract_y
_atom_site_fract_z
_atom_type_partial_charge
C0 C 0.22105 0.11168 0.36835 0.0
N1 N 0.23203 0.13523 0.38317 0.0
N2 N 0.23385 0.09581 0.3764 0.0
C3 C 0.19704 0.1033 0.34702 0.0
C4 C 0.25366 0.11118 0.39573 0.0
N5 N 0.25245 0.13494 0.40016 0.0
C6 C 0.27252 0.10157 0.41277 0.0
H7 H 0.17725 0.0841 0.35894 0.0
H8 H 0.20266 0.09725 0.32576 0.0
H9 H 0.19266 0.12115 0.33981 0.0
H10 H 0.27391 0.08478 0.40181 0.0
H11 H 0.26367 0.09277 0.43734 0.0
H12 H 0.29452 0.12033 0.41289 0.0
C13 C 0.88939 0.12734 0.36785 0.0
N14 N 0.89991 0.14437 0.39033 0.0
N15 N 0.86024 0.11182 0.37094 0.0
C16 C 0.9076 0.126 0.34255 0.0
C17 C 0.85347 0.12094 0.39555 0.0
N18 N 0.87747 0.1399 0.40829 0.0
C19 C 0.82298 0.11034 0.40789 0.0
H20 H 0.8944 0.11506 0.32374 0.0
H21 H 0.91812 0.1139 0.35259 0.0
H22 H 0.92482 0.14817 0.33263 0.0
H23 H 0.81231 0.08694 0.41737 0.0
H24 H 0.81057 0.11303 0.38875 0.0
H25 H 0.82211 0.12262 0.42604 0.0
C26 C 0.88951 0.80561 0.35088 0.0
N27 N 0.89817 0.79546 0.37614 0.0
N28 N 0.86524 0.80556 0.35859 0.0
C29 C 0.90537 0.81659 0.31918 0.0
C30 C 0.85981 0.79581 0.38941 0.0
N31 N 0.87967 0.7893 0.40019 0.0
C32 C 0.83679 0.79563 0.40945 0.0
H33 H 0.92561 0.8373 0.32002 0.0
H34 H 0.89227 0.82016 0.30141 0.0
H35 H 0.91131 0.80093 0.31249 0.0
H36 H 0.81552 0.77694 0.40621 0.0
H37 H 0.83608 0.8157 0.40217 0.0
H38 H 0.84085 0.79441 0.43445 0.0
C39 C 0.09958 0.22202 0.68785 0.0
N40 N 0.12233 0.23423 0.66653 0.0
N41 N 0.08182 0.23252 0.68069 0.0
C42 C 0.09322 0.19785 0.71393 0.0
C43 C 0.09519 0.25221 0.65471 0.0
N44 N 0.11977 0.25311 0.64598 0.0
C45 C 0.08271 0.26833 0.63598 0.0
H46 H 0.0774 0.17692 0.70673 0.0
H47 H 0.08375 0.20039 0.7351 0.0
H48 H 0.11296 0.19727 0.71999 0.0
H49 H 0.06453 0.26732 0.64939 0.0
H50 H 0.07509 0.25888 0.61434 0.0
H51 H 0.09954 0.29134 0.62909 0.0
C52 C 0.76818 0.88702 0.66955 0.0
N53 N 0.76097 0.87013 0.64669 0.0
N54 N 0.75375 0.90162 0.66874 0.0
C55 C 0.7888 0.88912 0.69377 0.0
C56 C 0.73632 0.89182 0.64562 0.0
N57 N 0.74151 0.87389 0.63081 0.0
C58 C 0.71473 0.90112 0.63688 0.0
H59 H 0.7861 0.86752 0.7022 0.0
H60 H 0.78524 0.8981 0.71384 0.0
H61 H 0.8112 0.90384 0.68355 0.0
H62 H 0.72605 0.92383 0.62485 0.0
H63 H 0.7031 0.9006 0.65833 0.0
H64 H 0.69892 0.88681 0.62174 0.0
C65 C 0.12254 0.90266 0.67145 0.0
N66 N 0.10871 0.88129 0.65376 0.0
N67 N 0.14649 0.92528 0.65534 0.0
C68 C 0.11314 0.90095 0.70472 0.0
C69 C 0.14664 0.91707 0.62733 0.0
N70 N 0.12396 0.89045 0.62628 0.0
C71 C 0.1685 0.93546 0.60028 0.0
H72 H 0.08991 0.89396 0.7069 0.0
H73 H 0.12569 0.92167 0.71377 0.0
H74 H 0.1163 0.8846 0.71967 0.0
H75 H 0.18696 0.93166 0.60188 0.0
H76 H 0.17657 0.95879 0.60058 0.0
H77 H 0.15909 0.9297 0.57782 0.0
C78 C 0.89526 0.45048 0.69733 0.0
N79 N 0.90521 0.47137 0.71573 0.0
N80 N 0.90413 0.43121 0.70609 0.0
C81 C 0.87623 0.44851 0.67143 0.0
C82 C 0.91995 0.44132 0.73043 0.0
N83 N 0.9207 0.46573 0.73615 0.0
C84 C 0.9313 0.42512 0.75119 0.0
H85 H 0.85381 0.43915 0.68145 0.0
H86 H 0.87677 0.43466 0.65496 0.0
H87 H 0.88317 0.47046 0.65875 0.0
H88 H 0.95018 0.42669 0.73871 0.0
H89 H 0.91466 0.40186 0.75661 0.0
H90 H 0.93809 0.43384 0.77331 0.0
C91 C 0.55712 0.45088 0.71688 0.0
N92 N 0.5693 0.47368 0.73288 0.0
N93 N 0.52915 0.44222 0.71324 0.0
C94 C 0.57203 0.43534 0.70755 0.0
C95 C 0.525 0.46099 0.72717 0.0
N96 N 0.54846 0.47854 0.74158 0.0
C97 C 0.49722 0.46149 0.72825 0.0
H98 H 0.57655 0.43986 0.6819 0.0
H99 H 0.55788 0.41162 0.71426 0.0
H100 H 0.59258 0.44244 0.7187 0.0
H101 H 0.48325 0.44738 0.74935 0.0
H102 H 0.4854 0.45365 0.70748 0.0
H103 H 0.50177 0.48383 0.72932 0.0
C104 C 0.55729 0.13954 0.68745 0.0
N105 N 0.56694 0.12674 0.70933 0.0
N106 N 0.53774 0.14438 0.70054 0.0
C107 C 0.56727 0.14775 0.65334 0.0
C108 C 0.53582 0.13449 0.73098 0.0
N109 N 0.55299 0.12299 0.73651 0.0
C110 C 0.5177 0.13698 0.75563 0.0
H111 H 0.591 0.16204 0.65035 0.0
H112 H 0.55716 0.15895 0.64019 0.0
H113 H 0.56164 0.12794 0.64318 0.0
H114 H 0.49509 0.11913 0.75636 0.0
H115 H 0.51778 0.1577 0.74996 0.0
H116 H 0.52582 0.13583 0.77892 0.0
C117 C 0.76646 0.55543 0.02577 0.0
N118 N 0.78804 0.56717 0.00302 0.0
N119 N 0.74366 0.55698 0.01556 0.0
C120 C 0.76632 0.53944 0.05687 0.0
C121 C 0.75193 0.57017 0.98569 0.0
N122 N 0.77922 0.57675 0.97804 0.0
C123 C 0.73207 0.57341 0.96321 0.0
H124 H 0.7559 0.51599 0.05536 0.0
H125 H 0.7537 0.54228 0.07491 0.0
H126 H 0.78858 0.54713 0.06375 0.0
H127 H 0.7312 0.59311 0.96616 0.0
H128 H 0.70999 0.55465 0.96797 0.0
H129 H 0.7393 0.57515 0.93871 0.0
C130 C 0.43453 0.22258 0.99558 0.0
N131 N 0.42738 0.20379 0.97468 0.0
N132 N 0.42083 0.23796 0.99117 0.0
C133 C 0.45523 0.22653 0.02017 0.0
C134 C 0.40455 0.22734 0.96737 0.0
N135 N 0.40858 0.20684 0.95699 0.0
C136 C 0.38754 0.23993 0.95152 0.0
H137 H 0.45049 0.23525 0.03975 0.0
H138 H 0.47745 0.24226 0.01 0.0
H139 H 0.45404 0.2057 0.02914 0.0
H140 H 0.40178 0.2583 0.93328 0.0
H141 H 0.3792 0.24823 0.96853 0.0
H142 H 0.36935 0.22345 0.94031 0.0
C143 C 0.78821 0.23212 0.00897 0.0
N144 N 0.77627 0.21169 0.99 0.0
N145 N 0.81403 0.25427 0.99602 0.0
C146 C 0.77441 0.23064 0.03979 0.0
C147 C 0.81727 0.24677 0.96848 0.0
N148 N 0.79453 0.22092 0.96481 0.0
C149 C 0.84149 0.26596 0.94378 0.0
H150 H 0.7564 0.23486 0.03568 0.0
H151 H 0.79007 0.24673 0.05357 0.0
H152 H 0.76534 0.20867 0.05337 0.0
H153 H 0.85982 0.26231 0.94816 0.0
H154 H 0.84897 0.28914 0.94434 0.0
H155 H 0.83472 0.26103 0.9202 0.0
C156 C 0.55956 0.78149 0.03513 0.0
N157 N 0.5713 0.80297 0.05275 0.0
N158 N 0.56722 0.76129 0.04392 0.0
C159 C 0.53981 0.7798 0.0101 0.0
C160 C 0.58424 0.77145 0.06742 0.0
N161 N 0.58679 0.79678 0.07272 0.0
C162 C 0.59489 0.75445 0.088 0.0
H163 H 0.51793 0.77171 0.02103 0.0
H164 H 0.53869 0.76497 0.99398 0.0
H165 H 0.54736 0.80167 0.99684 0.0
H166 H 0.61278 0.75463 0.07501 0.0
H167 H 0.57745 0.73158 0.09413 0.0
H168 H 0.60282 0.76345 0.10976 0.0
C169 C 0.22255 0.79535 0.03661 0.0
N170 N 0.23359 0.81385 0.05787 0.0
N171 N 0.19546 0.77394 0.04613 0.0
C172 C 0.23732 0.79889 0.00557 0.0
C173 C 0.19006 0.77973 0.07377 0.0
N174 N 0.21286 0.80426 0.0808 0.0
C175 C 0.1634 0.75975 0.09529 0.0
H176 H 0.22128 0.79081 0.988 0.0
H177 H 0.24812 0.78585 0.00764 0.0
H178 H 0.2536 0.82192 0.99748 0.0
H179 H 0.15477 0.73686 0.09215 0.0
H180 H 0.14657 0.76548 0.08981 0.0
H181 H 0.1679 0.7617 0.12002 0.0
C182 C 0.22403 0.47108 0.0174 0.0
N183 N 0.23401 0.46104 0.04152 0.0
N184 N 0.19981 0.47052 0.0269 0.0
C185 C 0.23836 0.48205 0.98494 0.0
C186 C 0.1957 0.46036 0.05765 0.0
N187 N 0.21639 0.45439 0.06658 0.0
C188 C 0.17286 0.45856 0.07957 0.0
H189 H 0.25864 0.50292 0.98491 0.0
H190 H 0.2243 0.48525 0.96823 0.0
H191 H 0.24403 0.46656 0.97724 0.0
H192 H 0.15256 0.43781 0.07914 0.0
H193 H 0.16862 0.47653 0.07229 0.0
H194 H 0.17938 0.45948 0.10379 0.0
C195 C 0.42779 0.88288 0.35055 0.0
N196 N 0.45198 0.89537 0.33139 0.0
N197 N 0.40993 0.89216 0.33998 0.0
C198 C 0.41981 0.85885 0.37732 0.0
C199 C 0.42407 0.91088 0.31367 0.0
N200 N 0.44999 0.91304 0.30838 0.0
C201 C 0.4116 0.92535 0.292 0.0
H202 H 0.40212 0.83839 0.37098 0.0
H203 H 0.41166 0.86353 0.39799 0.0
H204 H 0.43817 0.85574 0.38349 0.0
H205 H 0.42276 0.94877 0.29369 0.0
H206 H 0.38836 0.91658 0.29791 0.0
H207 H 0.41498 0.92304 0.26757 0.0
C208 C 0.10457 0.55788 0.33323 0.0
N209 N 0.09505 0.54021 0.31108 0.0
N210 N 0.10034 0.58052 0.32613 0.0
C211 C 0.11788 0.55316 0.36216 0.0
C212 C 0.08801 0.57642 0.29891 0.0
N213 N 0.08392 0.55148 0.28999 0.0
C214 C 0.08352 0.59891 0.27917 0.0
H215 H 0.11199 0.56122 0.38158 0.0
H216 H 0.14166 0.56563 0.35782 0.0
H217 H 0.11075 0.52989 0.36899 0.0
H218 H 0.08558 0.59796 0.25401 0.0
H219 H 0.09924 0.62112 0.28336 0.0
H220 H 0.06171 0.59506 0.2854 0.0
C221 C 0.45632 0.56986 0.33817 0.0
N222 N 0.44396 0.5466 0.32275 0.0
N223 N 0.48483 0.58664 0.32944 0.0
C224 C 0.44076 0.57669 0.36151 0.0
C225 C 0.4896 0.57231 0.30898 0.0
N226 N 0.46491 0.54813 0.30469 0.0
C227 C 0.5181 0.58344 0.29093 0.0
H228 H 0.43293 0.59055 0.34924 0.0
H229 H 0.45537 0.58874 0.37882 0.0
H230 H 0.42217 0.55662 0.37401 0.0
H231 H 0.53575 0.60238 0.29979 0.0
H232 H 0.51636 0.58952 0.26597 0.0
H233 H 0.52379 0.5662 0.2927 0.0
O234 O 0.46307 0.97629 0.0204 0.0
Mn235 Mn 0.50645 0.00856 0.02048 0.0
O236 O 0.44837 0.98235 0.0649 0.0
Mn237 Mn 0.4798 0.01952 0.06331 0.0
O238 O 0.55018 0.04117 0.02057 0.0
O239 O 0.51826 0.97667 0.01671 0.0
Mn240 Mn 0.53785 0.99565 0.98034 0.0
O241 O 0.50626 0.02216 0.97213 0.0
O242 O 0.56957 0.03133 0.9821 0.0
O243 O 0.50714 0.99351 0.06787 0.0
O244 O 0.50653 0.02566 0.09179 0.0
O245 O 0.54556 0.96757 0.98469 0.0
O246 O 0.51403 0.99224 0.94992 0.0
C247 C 0.48132 0.05381 0.03657 0.0
C248 C 0.44348 0.96814 0.04243 0.0
C249 C 0.57204 0.04704 0.0025 0.0
C250 C 0.52869 0.96011 0.0097 0.0
C251 C 0.50593 0.01043 0.94813 0.0
C252 C 0.51247 0.00606 0.09189 0.0
O253 O 0.49398 0.04063 0.025 0.0
O254 O 0.46773 0.04392 0.06396 0.0
O255 O 0.03733 0.52083 1.00026 0.0
Mn256 Mn 0.00014 0.52086 0.01055 0.0
O257 O 0.03807 0.49484 0.04311 0.0
Mn258 Mn -0.00133 0.47733 0.05094 0.0
O259 O 0.96272 0.52264 0.01764 0.0
O260 O 0.0256 0.56552 0.99891 0.0
Mn261 Mn 0.00728 0.56908 0.96656 0.0
O262 O 0.98893 0.51208 0.96476 0.0
O263 O 0.96917 0.55576 0.97671 0.0
O264 O 0.01079 0.52953 0.05755 0.0
O265 O 0.98707 0.48622 0.08458 0.0
O266 O 0.03215 0.60584 0.96834 0.0
O267 O 0.01446 0.55407 0.93485 0.0
C268 C 0.96662 0.44764 0.03106 0.0
C269 C 0.0506 0.51202 0.01834 0.0
C270 C 0.95354 0.53645 0.99928 0.0
C271 C 0.04064 0.59379 0.99043 0.0
C272 C -0.00124 0.52704 0.93764 0.0
C273 C 0.00025 0.51304 0.08406 0.0
O274 O 0.97511 0.47525 0.02106 0.0
O275 O 0.98128 0.4403 0.05003 0.0
O276 O 0.53019 0.50403 0.03101 0.0
Mn277 Mn 0.48919 0.49797 0.02612 0.0
O278 O 0.55997 0.54446 0.99931 0.0
Mn279 Mn 0.53073 0.54888 0.98325 0.0
O280 O 0.44709 0.48944 0.02399 0.0
O281 O 0.47443 0.45414 0.03887 0.0
Mn282 Mn 0.4564 0.44925 0.07501 0.0
O283 O 0.48852 0.50818 0.07183 0.0
O284 O 0.42678 0.45693 0.06749 0.0
O285 O 0.49016 0.48862 0.9801 0.0
O286 O 0.51595 0.53104 0.94957 0.0
O287 O 0.44997 0.41361 0.07336 0.0
O288 O 0.48215 0.46939 0.10212 0.0
C289 C 0.51344 0.56979 0.0025 0.0
C290 C 0.55539 0.52285 0.01897 0.0
C291 C 0.42559 0.47329 0.04419 0.0
C292 C 0.46507 0.42638 0.04698 0.0
C293 C 0.48855 0.49544 0.09888 0.0
C294 C 0.50032 0.5039 0.95301 0.0
O295 O 0.50357 0.54196 0.01215 0.0
O296 O 0.53464 0.58352 0.9811 0.0
O297 O 0.12905 0.30844 0.35443 0.0
Mn298 Mn 0.17168 0.34304 0.35466 0.0
O299 O 0.11466 0.31403 0.39925 0.0
Mn300 Mn 0.14449 0.35206 0.39673 0.0
O301 O 0.21396 0.3799 0.35559 0.0
O302 O 0.18514 0.31288 0.34873 0.0
Mn303 Mn 0.21837 0.33998 0.32823 0.0
O304 O 0.1731 0.35508 0.30664 0.0
O305 O 0.24394 0.36369 0.35316 0.0
O306 O 0.17228 0.32791 0.40197 0.0
O307 O 0.17225 0.36082 0.42433 0.0
O308 O 0.22097 0.30925 0.32534 0.0
O309 O 0.21378 0.35701 0.29105 0.0
C310 C 0.14171 0.38417 0.37098 0.0
C311 C 0.10969 0.29954 0.37702 0.0
C312 C 0.23929 0.38337 0.35845 0.0
C313 C 0.19674 0.2972 0.34221 0.0
C314 C 0.19242 0.36031 0.28535 0.0
C315 C 0.17719 0.34049 0.42584 0.0
O316 O 0.1561 0.37311 0.35837 0.0
O317 O 0.1294 0.37369 0.3989 0.0
O318 O 0.69687 0.8449 0.34133 0.0
Mn319 Mn 0.66333 0.85098 0.34899 0.0
O320 O 0.69672 0.82336 0.38808 0.0
Mn321 Mn 0.657 0.80629 0.397 0.0
O322 O 0.62942 0.85811 0.35456 0.0
O323 O 0.69282 0.89538 0.3348 0.0
Mn324 Mn 0.67477 0.89564 0.30088 0.0
O325 O 0.65 0.83886 0.30455 0.0
O326 O 0.63734 0.88673 0.30936 0.0
O327 O 0.67524 0.86163 0.39462 0.0
O328 O 0.64787 0.82132 0.42725 0.0
O329 O 0.70068 0.93255 0.29723 0.0
O330 O 0.68147 0.87683 0.27308 0.0
C331 C 0.63177 0.7815 0.36464 0.0
C332 C 0.70926 0.83693 0.36155 0.0
C333 C 0.6219 0.87208 0.33437 0.0
C334 C 0.70836 0.92295 0.32219 0.0
C335 C 0.66234 0.8507 0.27718 0.0
C336 C 0.66423 0.84848 0.42249 0.0
O337 O 0.63574 0.8075 0.36553 0.0
O338 O 0.6395 0.77023 0.38818 0.0
O339 O 0.19165 0.83406 0.36277 0.0
Mn340 Mn 0.15111 0.82735 0.35883 0.0
O341 O 0.21285 0.86528 0.31898 0.0
Mn342 Mn 0.18392 0.87455 0.31295 0.0
O343 O 0.1097 0.82152 0.35508 0.0
O344 O 0.1364 0.78437 0.37141 0.0
Mn345 Mn 0.1064 0.77119 0.39802 0.0
O346 O 0.14915 0.8333 0.40574 0.0
O347 O 0.07907 0.77602 0.3777 0.0
O348 O 0.15344 0.81894 0.31203 0.0
O349 O 0.15661 0.85732 0.28604 0.0
O350 O 0.10926 0.73952 0.39542 0.0
O351 O 0.1185 0.78948 0.43229 0.0
C352 C 0.18015 0.90039 0.33949 0.0
C353 C 0.21335 0.84935 0.34312 0.0
C354 C 0.08414 0.80034 0.36341 0.0
C355 C 0.13109 0.75779 0.3761 0.0
C356 C 0.1361 0.81636 0.4314 0.0
C357 C 0.1531 0.83269 0.28581 0.0
O358 O 0.16787 0.87234 0.34958 0.0
O359 O 0.19468 0.91118 0.31257 0.0
O360 O 0.79779 0.64131 0.68601 0.0
Mn361 Mn 0.84003 0.67448 0.68885 0.0
O362 O 0.78083 0.64346 0.73134 0.0
Mn363 Mn 0.8113 0.68089 0.73217 0.0
O364 O 0.88317 0.7082 0.69195 0.0
O365 O 0.85369 0.64496 0.6826 0.0
Mn366 Mn 0.87809 0.66557 0.64985 0.0
O367 O 0.84179 0.69023 0.64079 0.0
O368 O 0.90851 0.69898 0.65902 0.0
O369 O 0.83947 0.65679 0.73549 0.0
O370 O 0.83791 0.68741 0.76096 0.0
O371 O 0.88247 0.63503 0.6548 0.0
O372 O 0.85936 0.66808 0.61636 0.0
C373 C 0.80963 0.7145 0.70806 0.0
C374 C 0.77745 0.63111 0.70756 0.0
C375 C 0.90732 0.71404 0.67843 0.0
C376 C 0.86312 0.62726 0.67751 0.0
C377 C 0.84766 0.6833 0.61562 0.0
C378 C 0.84444 0.66836 0.76013 0.0
O379 O 0.82467 0.70432 0.69495 0.0
O380 O 0.7967 0.70275 0.73555 0.0
O381 O 0.36915 0.18619 0.66601 0.0
Mn382 Mn 0.33343 0.18877 0.67474 0.0
O383 O 0.36974 0.16573 0.71305 0.0
Mn384 Mn 0.3305 0.15076 0.72211 0.0
O385 O 0.29761 0.19287 0.68009 0.0
O386 O 0.35879 0.23339 0.65982 0.0
Mn387 Mn 0.34217 0.2303 0.6243 0.0
O388 O 0.31921 0.17478 0.63123 0.0
O389 O 0.30341 0.21751 0.63238 0.0
O390 O 0.34798 0.20319 0.71861 0.0
O391 O 0.31948 0.16552 0.75131 0.0
O392 O 0.36607 0.26806 0.6198 0.0
O393 O 0.35145 0.21096 0.59916 0.0
C394 C 0.29926 0.11697 0.70534 0.0
C395 C 0.38201 0.17897 0.68636 0.0
C396 C 0.28828 0.20333 0.65785 0.0
C397 C 0.37266 0.26082 0.64688 0.0
C398 C 0.33176 0.18504 0.60381 0.0
C399 C 0.33693 0.19203 0.74661 0.0
O400 O 0.308 0.14336 0.69011 0.0
O401 O 0.31221 0.11322 0.7291 0.0
O402 O 0.86115 0.16763 0.70065 0.0
Mn403 Mn 0.82139 0.16255 0.69156 0.0
O404 O 0.88969 0.20193 0.6622 0.0
Mn405 Mn 0.86152 0.20976 0.64901 0.0
O406 O 0.78022 0.15601 0.68491 0.0
O407 O 0.80547 0.11864 0.70309 0.0
Mn408 Mn 0.7813 0.11012 0.73523 0.0
O409 O 0.81775 0.17039 0.73797 0.0
O410 O 0.75334 0.11836 0.72232 0.0
O411 O 0.82493 0.15343 0.64574 0.0
O412 O 0.84356 0.19506 0.61498 0.0
O413 O 0.77703 0.07551 0.73175 0.0
O414 O 0.80122 0.12763 0.76707 0.0
C415 C 0.85176 0.23583 0.66823 0.0
C416 C 0.88573 0.18386 0.68605 0.0
C417 C 0.75604 0.13787 0.70039 0.0
C418 C 0.79641 0.09084 0.70886 0.0
C419 C 0.81196 0.15463 0.76488 0.0
C420 C 0.83112 0.16804 0.61826 0.0
O421 O 0.83772 0.20773 0.6795 0.0
O422 O 0.87248 0.24631 0.64645 0.0
C423 C 0.28482 0.82855 0.05157 0.0
C424 C 0.26366 0.83564 0.0578 0.0
C425 C 0.31408 0.84972 0.04625 0.0
C426 C 0.32291 0.87881 0.04878 0.0
C427 C 0.30173 0.88607 0.05611 0.0
C428 C 0.27229 0.86441 0.06028 0.0
C429 C 0.33552 0.84084 0.03789 0.0
C430 C 0.31019 0.91677 0.05926 0.0
C431 C 0.39947 0.92583 0.07067 0.0
C432 C 0.41401 0.94294 0.04225 0.0
C433 C 0.37011 0.90482 0.07288 0.0
C434 C 0.35443 0.90095 0.04609 0.0
C435 C 0.36912 0.91763 0.01701 0.0
C436 C 0.39885 0.93829 0.01537 0.0
C437 C 0.35573 0.88712 0.10418 0.0
C438 C 0.35332 0.91397 0.98779 0.0
H439 H 0.27825 0.80623 0.05011 0.0
H440 H 0.256 0.87003 0.06473 0.0
H441 H 0.34934 0.85498 0.0167 0.0
H442 H 0.34983 0.84342 0.05702 0.0
H443 H 0.32485 0.818 0.03366 0.0
H444 H 0.29131 0.91891 0.06525 0.0
H445 H 0.32549 0.92434 0.07759 0.0
H446 H 0.3214 0.93125 0.03712 0.0
H447 H 0.41109 0.92931 0.09151 0.0
H448 H 0.40986 0.95171 0.9934 0.0
H449 H 0.34614 0.86373 0.10282 0.0
H450 H 0.33795 0.89066 0.11093 0.0
H451 H 0.37097 0.89266 0.12274 0.0
H452 H 0.34484 0.89167 0.98256 0.0
H453 H 0.36735 0.92956 0.96735 0.0
H454 H 0.33457 0.91694 0.99125 0.0
C455 C 0.1532 0.46187 0.01119 0.0
C456 C 0.18293 0.48031 0.00978 0.0
C457 C 0.13505 0.473 0.00419 0.0
C458 C 0.14733 0.50316 0.99448 0.0
C459 C 0.17749 0.52117 0.98895 0.0
C460 C 0.19513 0.50952 0.99721 0.0
C461 C 0.10294 0.45307 0.01108 0.0
C462 C 0.19115 0.55318 0.97766 0.0
C463 C 0.08693 0.5175 0.97895 0.0
C464 C 0.07974 0.51906 0.00929 0.0
C465 C 0.11146 0.51573 0.97241 0.0
C466 C 0.12883 0.51589 0.99682 0.0
C467 C 0.12362 0.52153 0.02639 0.0
C468 C 0.09882 0.52279 0.03233 0.0
C469 C 0.11665 0.51012 0.94058 0.0
C470 C 0.14177 0.52213 0.05309 0.0
H471 H 0.14418 0.43923 0.02076 0.0
H472 H 0.21826 0.52359 0.9963 0.0
H473 H 0.09565 0.4582 0.03206 0.0
H474 H 0.09113 0.4562 0.99151 0.0
H475 H 0.09689 0.42991 0.01551 0.0
H476 H 0.21358 0.56249 0.96758 0.0
H477 H 0.17847 0.55757 0.95993 0.0
H478 H 0.19171 0.56444 0.99749 0.0
H479 H 0.07206 0.51485 0.96116 0.0
H480 H 0.09325 0.52457 0.05564 0.0
H481 H 0.10749 0.48651 0.94105 0.0
H482 H 0.14002 0.52095 0.93365 0.0
H483 H 0.10617 0.51765 0.92271 0.0
H484 H 0.13592 0.49962 0.06267 0.0
H485 H 0.13825 0.53217 0.07217 0.0
H486 H 0.16499 0.53421 0.04526 0.0
C487 C 0.57074 0.7204 0.02966 0.0
C488 C 0.5538 0.73204 0.03733 0.0
C489 C 0.5582 0.6909 0.0272 0.0
C490 C 0.52789 0.67267 0.03233 0.0
C491 C 0.51068 0.68449 0.03969 0.0
C492 C 0.52388 0.71403 0.04222 0.0
C493 C 0.57742 0.67931 0.01905 0.0
C494 C 0.4784 0.66585 0.04539 0.0
C495 C 0.50015 0.60691 0.99198 0.0
C496 C 0.5029 0.58744 0.01449 0.0
C497 C 0.50669 0.63432 0.99797 0.0
C498 C 0.51435 0.64173 0.02791 0.0
C499 C 0.51268 0.62042 0.05212 0.0
C500 C 0.50741 0.59349 0.04499 0.0
C501 C 0.50915 0.65648 0.97112 0.0
C502 C 0.51945 0.62705 0.08471 0.0
H503 H 0.59389 0.73442 0.02608 0.0
H504 H 0.51093 0.72297 0.04898 0.0
H505 H 0.57445 0.66156 0.03748 0.0
H506 H 0.57143 0.67013 0.99703 0.0
H507 H 0.60056 0.69627 0.0163 0.0
H508 H 0.46814 0.67838 0.05101 0.0
H509 H 0.46908 0.65569 0.02455 0.0
H510 H 0.47289 0.64807 0.06493 0.0
H511 H 0.49688 0.60227 0.96829 0.0
H512 H 0.50988 0.57868 0.06238 0.0
H513 H 0.53225 0.67249 0.96456 0.0
H514 H 0.49875 0.66851 0.97781 0.0
H515 H 0.49935 0.64645 0.95031 0.0
H516 H 0.54314 0.63955 0.0858 0.0
H517 H 0.51073 0.60693 0.1019 0.0
H518 H 0.51055 0.64042 0.09146 0.0
C519 C 0.82223 0.29992 0.01123 0.0
C520 C 0.83262 0.28148 0.00627 0.0
C521 C 0.8412 0.32859 0.01558 0.0
C522 C 0.87118 0.33897 0.01428 0.0
C523 C 0.8816 0.31998 0.01034 0.0
C524 C 0.86209 0.29134 0.00675 0.0
C525 C 0.82926 0.34796 0.02058 0.0
C526 C 0.91339 0.33007 0.00917 0.0
C527 C 0.9289 0.41849 0.99628 0.0
C528 C 0.93816 0.42373 0.02599 0.0
C529 C 0.90556 0.39131 0.99219 0.0
C530 C 0.8918 0.36928 0.01837 0.0
C531 C 0.89994 0.37545 0.04851 0.0
C532 C 0.92272 0.40269 0.05191 0.0
C533 C 0.89697 0.3854 0.95977 0.0
C534 C 0.88631 0.35259 0.07698 0.0
H535 H 0.79942 0.29222 0.01042 0.0
H536 H 0.86986 0.27681 0.00298 0.0
H537 H 0.8377 0.35851 0.04143 0.0
H538 H 0.83634 0.3654 1.00031 0.0
H539 H 0.80536 0.33589 0.02356 0.0
H540 H 0.91785 0.31252 0.00583 0.0
H541 H 0.92502 0.34823 0.98979 0.0
H542 H 0.92233 0.33827 0.03105 0.0
H543 H 0.94096 0.43471 0.97626 0.0
H544 H 0.92983 0.40692 0.07497 0.0
H545 H 0.87325 0.37486 0.9592 0.0
H546 H 0.90346 0.37023 0.95276 0.0
H547 H 0.90723 0.40551 0.94246 0.0
H548 H 0.86251 0.34184 0.07768 0.0
H549 H 0.89342 0.36168 0.09894 0.0
H550 H 0.89221 0.33568 0.07598 0.0
C551 C 0.69608 0.51365 0.02088 0.0
C552 C 0.71497 0.54048 0.02968 0.0
C553 C 0.66646 0.50059 0.02832 0.0
C554 C 0.6561 0.51523 0.04443 0.0
C555 C 0.67573 0.53969 0.05789 0.0
C556 C 0.70521 0.55235 0.04989 0.0
C557 C 0.64644 0.47381 0.01466 0.0
C558 C 0.66561 0.55544 0.0761 0.0
C559 C 0.60414 0.53296 0.00437 0.0
C560 C 0.57984 0.51845 0.02555 0.0
C561 C 0.62829 0.53039 0.00948 0.0
C562 C 0.62836 0.51293 0.03676 0.0
C563 C 0.60329 0.49666 0.05743 0.0
C564 C 0.57908 0.49961 0.05155 0.0
C565 C 0.65399 0.54716 0.98583 0.0
C566 C 0.60226 0.47664 0.08573 0.0
H567 H 0.70428 0.50434 0.00589 0.0
H568 H 0.72038 0.57278 0.05716 0.0
H569 H 0.62528 0.46106 0.02832 0.0
H570 H 0.64279 0.48023 0.99055 0.0
H571 H 0.65609 0.45987 0.01352 0.0
H572 H 0.68261 0.5697 0.0903 0.0
H573 H 0.65998 0.56911 0.05964 0.0
H574 H 0.64612 0.54 0.09166 0.0
H575 H 0.60445 0.54663 0.98357 0.0
H576 H 0.55993 0.48772 0.06753 0.0
H577 H 0.65884 0.53192 0.97604 0.0
H578 H 0.67318 0.56221 0.99701 0.0
H579 H 0.65033 0.56006 0.96619 0.0
H580 H 0.60824 0.46111 0.07874 0.0
H581 H 0.58059 0.46428 0.09848 0.0
H582 H 0.61817 0.48922 0.10182 0.0
C583 C 0.41831 0.15409 0.97463 0.0
C584 C 0.43778 0.18383 0.97239 0.0
C585 C 0.42779 0.13379 0.97877 0.0
C586 C 0.45755 0.14342 0.98076 0.0
C587 C 0.47743 0.17362 0.97623 0.0
C588 C 0.46733 0.19338 0.97196 0.0
C589 C 0.40565 0.10196 0.98365 0.0
C590 C 0.50925 0.18508 0.9782 0.0
C591 C 0.4753 0.09637 0.03872 0.0
C592 C 0.48089 0.07984 0.02014 0.0
C593 C 0.46794 0.11689 0.0261 0.0
C594 C 0.46711 0.1224 0.99354 0.0
C595 C 0.47476 0.10746 0.97419 0.0
C596 C 0.48125 0.08605 0.98771 0.0
C597 C 0.45972 0.13173 0.04802 0.0
C598 C 0.47512 0.11336 0.93931 0.0
H599 H 0.39548 0.14663 0.97521 0.0
H600 H 0.4825 0.21639 0.9697 0.0
H601 H 0.41242 0.0901 0.96988 0.0
H602 H 0.40368 0.09291 0.00856 0.0
H603 H 0.38414 0.09795 0.97707 0.0
H604 H 0.52218 0.20881 0.97042 0.0
H605 H 0.51355 0.18048 0.00261 0.0
H606 H 0.51662 0.17403 0.96384 0.0
H607 H 0.47538 0.09232 0.0638 0.0
H608 H 0.48538 0.07349 0.97307 0.0
H609 H 0.43716 0.12649 0.04533 0.0
H610 H 0.4736 0.15557 0.04231 0.0
H611 H 0.4616 0.12511 0.0728 0.0
H612 H 0.45279 0.10521 0.93254 0.0
H613 H 0.48473 0.10273 0.9274 0.0
H614 H 0.48743 0.137 0.93099 0.0
C615 C 0.72584 0.18977 0.97753 0.0
C616 C 0.74719 0.18763 0.99392 0.0
C617 C 0.69696 0.16744 0.98224 0.0
C618 C 0.68899 0.1428 0.00493 0.0
C619 C 0.71042 0.14123 0.02267 0.0
C620 C 0.73935 0.16358 0.0167 0.0
C621 C 0.67507 0.16992 0.9624 0.0
C622 C 0.70295 0.11576 0.04753 0.0
C623 C 0.60778 0.09213 0.02485 0.0
C624 C 0.60173 0.07149 0.00509 0.0
C625 C 0.63627 0.11507 0.026 0.0
C626 C 0.6591 0.11737 0.00697 0.0
C627 C 0.65312 0.09618 0.98772 0.0
C628 C 0.62479 0.07372 0.98707 0.0
C629 C 0.64194 0.13704 0.04724 0.0
C630 C 0.67659 0.09762 0.96696 0.0
H631 H 0.73183 0.20917 0.96118 0.0
H632 H 0.7559 0.16249 0.02999 0.0
H633 H 0.66522 0.15172 0.94873 0.0
H634 H 0.65749 0.16839 0.9774 0.0
H635 H 0.68471 0.19059 0.94599 0.0
H636 H 0.72098 0.11997 0.06246 0.0
H637 H 0.68364 0.11041 0.06247 0.0
H638 H 0.69776 0.09649 0.03647 0.0
H639 H 0.59032 0.09054 0.03911 0.0
H640 H 0.62082 0.05785 0.97196 0.0
H641 H 0.64916 0.1585 0.03317 0.0
H642 H 0.65952 0.1394 0.06209 0.0
H643 H 0.6225 0.131 0.06243 0.0
H644 H 0.68638 0.11789 0.94995 0.0
H645 H 0.66847 0.07899 0.95391 0.0
H646 H 0.69393 0.09803 0.98103 0.0
C647 C 0.80287 0.5313 0.00372 0.0
C648 C 0.81041 0.56025 0.00275 0.0
C649 C 0.82377 0.52319 0.00551 0.0
C650 C 0.85285 0.54475 0.00606 0.0
C651 C 0.86063 0.57422 0.00463 0.0
C652 C 0.83909 0.58166 0.00302 0.0
C653 C 0.81478 0.49169 0.00658 0.0
C654 C 0.89166 0.59779 0.00431 0.0
C655 C 0.9109 0.52816 0.03163 0.0
C656 C 0.92399 0.53075 0.00268 0.0
C657 C 0.88638 0.53104 0.03329 0.0
C658 C 0.87542 0.53689 0.00536 0.0
C659 C 0.88729 0.53714 0.97627 0.0
C660 C 0.91118 0.53358 0.97536 0.0
C661 C 0.87342 0.52979 0.06466 0.0
C662 C 0.87629 0.54351 0.94597 0.0
H663 H 0.78042 0.51507 0.00315 0.0
H664 H 0.84446 0.60398 0.00219 0.0
H665 H 0.82484 0.48888 0.986 0.0
H666 H 0.82241 0.48425 0.02754 0.0
H667 H 0.79105 0.47759 0.00698 0.0
H668 H 0.89391 0.61942 0.00437 0.0
H669 H 0.90155 0.59294 0.02487 0.0
H670 H 0.90401 0.5987 0.98327 0.0
H671 H 0.92089 0.52597 0.05265 0.0
H672 H 0.92119 0.53508 0.95294 0.0
H673 H 0.84968 0.51555 0.06623 0.0
H674 H 0.87795 0.55176 0.06765 0.0
H675 H 0.88223 0.52174 0.08403 0.0
H676 H 0.85275 0.52875 0.9461 0.0
H677 H 0.88704 0.54136 0.92544 0.0
H678 H 0.88009 0.56592 0.94316 0.0
C679 C 0.44981 0.2905 0.97595 0.0
C680 C 0.43129 0.26678 0.99811 0.0
C681 C 0.45819 0.31888 0.98028 0.0
C682 C 0.44797 0.32369 0.00762 0.0
C683 C 0.42962 0.2997 0.03047 0.0
C684 C 0.42137 0.27141 0.02534 0.0
C685 C 0.47753 0.34368 0.9553 0.0
C686 C 0.41825 0.30391 0.05997 0.0
C687 C 0.48622 0.39715 0.0352 0.0
C688 C 0.46776 0.40781 0.02699 0.0
C689 C 0.48082 0.37037 0.02778 0.0
C690 C 0.45614 0.35376 0.01208 0.0
C691 C 0.43851 0.3654 1.00192 0.0
C692 C 0.44463 0.39237 0.00944 0.0
C693 C 0.50019 0.35884 0.03903 0.0
C694 C 0.41186 0.34838 0.98536 0.0
H695 H 0.45713 0.2866 0.9548 0.0
H696 H 0.40679 0.2529 0.0422 0.0
H697 H 0.46639 0.35544 0.94621 0.0
H698 H 0.49729 0.35932 0.96525 0.0
H699 H 0.48387 0.33629 0.93556 0.0
H700 H 0.40527 0.28322 0.07598 0.0
H701 H 0.43637 0.31911 0.07235 0.0
H702 H 0.40463 0.31371 0.05417 0.0
H703 H 0.50348 0.40858 0.04977 0.0
H704 H 0.42972 0.40009 0.00417 0.0
H705 H 0.50632 0.35055 0.02005 0.0
H706 H 0.48846 0.34045 0.05817 0.0
H707 H 0.52009 0.3756 0.04779 0.0
H708 H 0.4171 0.34054 0.96533 0.0
H709 H 0.40179 0.3614 0.97682 0.0
H710 H 0.39581 0.32907 1.0015 0.0
C711 C 0.1502 0.74143 0.02542 0.0
C712 C 0.17782 0.74807 0.03317 0.0
C713 C 0.13053 0.71394 0.01848 0.0
C714 C 0.13874 0.69259 0.0199 0.0
C715 C 0.16709 0.69968 0.02654 0.0
C716 C 0.18641 0.72753 0.03298 0.0
C717 C 0.10075 0.70753 0.01055 0.0
C718 C 0.17663 0.67758 0.028 0.0
C719 C 0.07298 0.61734 0.03156 0.0
C720 C 0.06917 0.61245 1.00071 0.0
C721 C 0.09723 0.64251 0.03867 0.0
C722 C 0.11742 0.66299 0.01425 0.0
C723 C 0.11476 0.6566 0.98355 0.0
C724 C 0.09085 0.63117 0.9773 0.0
C725 C 0.09994 0.64849 0.0718 0.0
C726 C 0.1351 0.67802 0.9566 0.0
H727 H 0.1438 0.75754 0.0259 0.0
H728 H 0.20777 0.73287 0.03949 0.0
H729 H 0.09584 0.69908 0.98805 0.0
H730 H 0.08446 0.69056 0.02861 0.0
H731 H 0.09839 0.72699 0.00888 0.0
H732 H 0.19964 0.68681 0.03275 0.0
H733 H 0.16328 0.65915 0.04658 0.0
H734 H 0.17341 0.66877 0.00574 0.0
H735 H 0.05604 0.60297 0.04954 0.0
H736 H 0.0877 0.62727 0.95336 0.0
H737 H 0.0959 0.6665 0.07389 0.0
H738 H 0.12211 0.65536 0.07847 0.0
H739 H 0.08438 0.62928 0.08839 0.0
H740 H 0.12977 0.6954 0.95058 0.0
H741 H 0.13332 0.66766 0.9356 0.0
H742 H 0.15775 0.68839 0.96273 0.0
C743 C 0.28416 0.48525 0.05391 0.0
C744 C 0.26151 0.46294 0.04126 0.0
C745 C 0.31169 0.48863 0.05263 0.0
C746 C 0.31685 0.47019 0.03662 0.0
C747 C 0.29424 0.44854 0.02229 0.0
C748 C 0.26658 0.44486 0.02525 0.0
C749 C 0.33502 0.51152 0.06883 0.0
C750 C 0.29918 0.42904 0.0043 0.0
C751 C 0.39445 0.49075 0.01727 0.0
C752 C 0.39804 0.47304 0.04134 0.0
C753 C 0.36802 0.49009 0.01522 0.0
C754 C 0.34495 0.47143 0.03782 0.0
C755 C 0.34855 0.45375 0.06219 0.0
C756 C 0.37492 0.45469 0.06358 0.0
C757 C 0.3647 0.50922 0.98896 0.0
C758 C 0.32456 0.43392 0.08702 0.0
H759 H 0.28019 0.50008 0.06475 0.0
H760 H 0.24895 0.4282 0.01475 0.0
H761 H 0.34455 0.50167 0.08532 0.0
H762 H 0.35256 0.52789 0.05148 0.0
H763 H 0.32683 0.52271 0.08193 0.0
H764 H 0.28025 0.41564 0.99165 0.0
H765 H 0.3182 0.44211 0.98726 0.0
H766 H 0.30378 0.4144 0.02049 0.0
H767 H 0.41221 0.50508 1.00011 0.0
H768 H 0.37732 0.44093 0.08239 0.0
H769 H 0.36031 0.52489 0.9985 0.0
H770 H 0.346 0.49596 0.97598 0.0
H771 H 0.38422 0.52148 0.97245 0.0
H772 H 0.31753 0.44665 0.09893 0.0
H773 H 0.33112 0.42198 0.1048 0.0
H774 H 0.30566 0.41791 0.07624 0.0
C775 C 0.53872 0.81924 0.06942 0.0
C776 C 0.56428 0.82543 0.05349 0.0
C777 C 0.53027 0.84017 0.06832 0.0
C778 C 0.54742 0.8677 0.05007 0.0
C779 C 0.57362 0.87412 0.03428 0.0
C780 C 0.58182 0.85292 0.03641 0.0
C781 C 0.50248 0.8325 0.08579 0.0
C782 C 0.59235 0.9029 0.01404 0.0
C783 C 0.51176 0.9086 0.01293 0.0
C784 C 0.52276 0.9327 0.02857 0.0
C785 C 0.51885 0.88687 0.02036 0.0
C786 C 0.53661 0.88861 0.04495 0.0
C787 C 0.54529 0.91132 0.06302 0.0
C788 C 0.53859 0.93338 0.05433 0.0
C789 C 0.50973 0.86372 0.99975 0.0
C790 C 0.56349 0.91353 0.09 0.0
H791 H 0.5251 0.79775 0.08226 0.0
H792 H 0.60143 0.85738 0.0239 0.0
H793 H 0.50599 0.84973 0.09962 0.0
H794 H 0.48643 0.83096 0.06902 0.0
H795 H 0.49333 0.81155 0.10164 0.0
H796 H 0.61233 0.90474 0.00397 0.0
H797 H 0.58017 0.90584 0.9947 0.0
H798 H 0.5984 0.92081 0.02773 0.0
H799 H 0.50032 0.90849 0.99237 0.0
H800 H 0.54797 0.95239 0.06586 0.0
H801 H 0.49969 0.84194 0.01395 0.0
H802 H 0.52897 0.867 0.98627 0.0
H803 H 0.49426 0.86413 0.98309 0.0
H804 H 0.55454 0.89223 0.10508 0.0
H805 H 0.56496 0.92978 0.10432 0.0
H806 H 0.58557 0.91995 0.08112 0.0
C807 C 0.95018 0.15718 0.39778 0.0
C808 C 0.92982 0.16579 0.39155 0.0
C809 C 0.97997 0.17734 0.39337 0.0
C810 C 0.98971 0.20689 0.38217 0.0
C811 C 0.96905 0.21554 0.37554 0.0
C812 C 0.93944 0.1949 0.3803 0.0
C813 C 0.00104 0.16702 0.40061 0.0
C814 C 0.97823 0.24658 0.36312 0.0
C815 C 0.06191 0.26402 0.40538 0.0
C816 C 0.08015 0.27357 0.37789 0.0
C817 C 0.03286 0.24238 0.40692 0.0
C818 C 0.02122 0.22916 0.38045 0.0
C819 C 0.03957 0.23775 0.35279 0.0
C820 C 0.06883 0.25989 0.35179 0.0
C821 C 0.01436 0.23425 0.43686 0.0
C822 C 0.0282 0.22379 0.32419 0.0
H823 H 0.94267 0.13446 0.40545 0.0
H824 H 0.92364 0.20124 0.37428 0.0
H825 H 0.01615 0.17308 0.37992 0.0
H826 H 0.01409 0.17777 0.41959 0.0
H827 H 0.99012 0.14321 0.4078 0.0
H828 H 0.95957 0.24968 0.35844 0.0
H829 H 0.99107 0.26081 0.38008 0.0
H830 H 0.9922 0.2537 0.34122 0.0
H831 H 0.07017 0.27403 0.42592 0.0
H832 H 0.08254 0.26696 0.33043 0.0
H833 H 0.00438 0.2107 0.4452 0.0
H834 H -0.00337 0.23889 0.43269 0.0
H835 H 0.02677 0.24621 0.45558 0.0
H836 H 0.02178 0.20057 0.32909 0.0
H837 H 0.04441 0.23425 0.30386 0.0
H838 H 0.00868 0.22479 0.31798 0.0
C839 C 0.82018 0.7953 0.33767 0.0
C840 C 0.84908 0.8152 0.34004 0.0
C841 C 0.80028 0.80459 0.33352 0.0
C842 C 0.81009 0.83456 0.33088 0.0
C843 C 0.83991 0.85492 0.32826 0.0
C844 C 0.85927 0.84486 0.33316 0.0
C845 C 0.7686 0.78211 0.33672 0.0
C846 C 0.85107 0.88701 0.32468 0.0
C847 C 0.7474 0.84636 0.32187 0.0
C848 C 0.73799 0.84213 0.35323 0.0
C849 C 0.77287 0.84696 0.31375 0.0
C850 C 0.78904 0.84339 0.33763 0.0
C851 C 0.78118 0.84234 0.36914 0.0
C852 C 0.75549 0.84147 0.37658 0.0
C853 C 0.78095 0.84867 0.27996 0.0
C854 C 0.79799 0.83897 0.39547 0.0
H855 H 0.81278 0.77237 0.34322 0.0
H856 H 0.8818 0.85999 0.33525 0.0
H857 H 0.75915 0.78102 0.35995 0.0
H858 H 0.75693 0.78797 0.31892 0.0
H859 H 0.76486 0.76023 0.3345 0.0
H860 H 0.8739 0.89964 0.31508 0.0
H861 H 0.83794 0.89313 0.3093 0.0
H862 H 0.8498 0.89307 0.34782 0.0
H863 H 0.73401 0.84739 0.30371 0.0
H864 H 0.74853 0.83905 0.40079 0.0
H865 H 0.77434 0.82664 0.27497 0.0
H866 H 0.80458 0.86224 0.27457 0.0
H867 H 0.77012 0.85762 0.26424 0.0
H868 H 0.79175 0.81583 0.40096 0.0
H869 H 0.79329 0.84563 0.41688 0.0
H870 H 0.82149 0.85193 0.3891 0.0
C871 C 0.21377 0.04566 0.40235 0.0
C872 C 0.2222 0.06551 0.37478 0.0
C873 C 0.20439 0.01639 0.40177 0.0
C874 C 0.20224 0.0065 0.37282 0.0
C875 C 0.20937 0.02621 0.34479 0.0
C876 C 0.21975 0.05565 0.34613 0.0
C877 C 0.19799 0.99637 0.4321 0.0
C878 C 0.20695 0.01637 0.31341 0.0
C879 C 0.21104 0.94247 0.36401 0.0
C880 C 0.18294 0.92155 0.3592 0.0
C881 C 0.21744 0.96984 0.36992 0.0
C882 C 0.19497 0.97618 0.37172 0.0
C883 C 0.16609 0.95414 0.36995 0.0
C884 C 0.16039 0.92697 0.36337 0.0
C885 C 0.24857 0.99269 0.37128 0.0
C886 C 0.14156 0.96002 0.37238 0.0
H887 H 0.21521 0.05329 0.42449 0.0
H888 H 0.22659 0.07106 0.32488 0.0
H889 H 0.17662 0.97658 0.43263 0.0
H890 H 0.21425 0.98941 0.43423 0.0
H891 H 0.1984 0.0069 0.45258 0.0
H892 H 0.21052 0.03368 0.29401 0.0
H893 H 0.22309 0.00968 0.30991 0.0
H894 H 0.18537 0.99726 0.31229 0.0
H895 H 0.22852 0.93834 0.36008 0.0
H896 H 0.13879 0.91101 0.35888 0.0
H897 H 0.25112 0.00403 0.3916 0.0
H898 H 0.25571 0.00915 0.35005 0.0
H899 H 0.26302 0.98343 0.37273 0.0
H900 H 0.14284 0.97046 0.39315 0.0
H901 H 0.12026 0.93991 0.37386 0.0
H902 H 0.14313 0.97525 0.35164 0.0
C903 C 0.51371 0.62588 0.3599 0.0
C904 C 0.50294 0.61689 0.33168 0.0
C905 C 0.53329 0.65523 0.36135 0.0
C906 C 0.54275 0.67583 0.33374 0.0
C907 C 0.53146 0.66675 0.30531 0.0
C908 C 0.51141 0.63747 0.30475 0.0
C909 C 0.54465 0.66403 0.3922 0.0
C910 C 0.54152 0.68765 0.27523 0.0
C911 C 0.58228 0.75476 0.34665 0.0
C912 C 0.61076 0.76057 0.34605 0.0
C913 C 0.55984 0.72773 0.34071 0.0
C914 C 0.56621 0.70625 0.3343 0.0
C915 C 0.59526 0.71317 0.33095 0.0
C916 C 0.61712 0.74029 0.33666 0.0
C917 C 0.52916 0.72129 0.34397 0.0
C918 C 0.60321 0.69108 0.32423 0.0
H919 H 0.50736 0.60983 0.38057 0.0
H920 H 0.50294 0.63031 0.28298 0.0
H921 H 0.56799 0.67145 0.39141 0.0
H922 H 0.54211 0.68243 0.39689 0.0
H923 H 0.53346 0.64596 0.41181 0.0
H924 H 0.52916 0.67754 0.25555 0.0
H925 H 0.53954 0.7068 0.27783 0.0
H926 H 0.56462 0.69553 0.26931 0.0
H927 H 0.57722 0.77013 0.3545 0.0
H928 H 0.63913 0.74466 0.3366 0.0
H929 H 0.51819 0.70614 0.36582 0.0
H930 H 0.51714 0.71055 0.32444 0.0
H931 H 0.52797 0.7412 0.34465 0.0
H932 H 0.59683 0.67423 0.345 0.0
H933 H 0.62671 0.70097 0.31844 0.0
H934 H 0.59157 0.68008 0.30468 0.0
C935 C 0.37003 0.88058 0.37709 0.0
C936 C 0.37989 0.87794 0.34865 0.0
C937 C 0.34057 0.86923 0.38404 0.0
C938 C 0.32127 0.8559 0.36146 0.0
C939 C 0.33112 0.85067 0.33413 0.0
C940 C 0.36049 0.86158 0.32826 0.0
C941 C 0.3305 0.87392 0.41403 0.0
C942 C 0.31129 0.83683 0.30929 0.0
C943 C 0.24122 0.82695 0.36627 0.0
C944 C 0.24058 0.8508 0.34995 0.0
C945 C 0.26757 0.82861 0.37221 0.0
C946 C 0.29338 0.85475 0.36175 0.0
C947 C 0.29262 0.87932 0.34694 0.0
C948 C 0.26615 0.87692 0.34099 0.0
C949 C 0.26784 0.80222 0.38838 0.0
C950 C 0.31978 0.90783 0.33594 0.0
H951 H 0.38545 0.89268 0.39302 0.0
H952 H 0.36867 0.85907 0.30675 0.0
H953 H 0.32661 0.89239 0.40938 0.0
H954 H 0.30993 0.85455 0.42405 0.0
H955 H 0.34676 0.87887 0.43149 0.0
H956 H 0.32158 0.83081 0.29174 0.0
H957 H 0.29115 0.81719 0.31971 0.0
H958 H 0.30532 0.8523 0.29708 0.0
H959 H 0.22123 0.80685 0.37354 0.0
H960 H 0.26547 0.89557 0.32922 0.0
H961 H 0.28385 0.80822 0.40612 0.0
H962 H 0.27425 0.79255 0.37117 0.0
H963 H 0.24636 0.78549 0.39978 0.0
H964 H 0.3336 0.91526 0.35547 0.0
H965 H 0.31519 0.9251 0.3262 0.0
H966 H 0.33226 0.90503 0.31769 0.0
C967 C 0.13123 0.52511 0.30986 0.0
C968 C 0.10247 0.51819 0.30802 0.0
C969 C 0.13879 0.50354 0.31477 0.0
C970 C 0.1172 0.47409 0.31654 0.0
C971 C 0.08841 0.46715 0.31164 0.0
C972 C 0.08129 0.48928 0.30786 0.0
C973 C 0.16949 0.51222 0.32099 0.0
C974 C 0.06475 0.43617 0.31271 0.0
C975 C 0.14145 0.41727 0.32297 0.0
C976 C 0.13829 0.40871 0.3553 0.0
C977 C 0.13452 0.43842 0.30977 0.0
C978 C 0.12393 0.45095 0.32923 0.0
C979 C 0.12126 0.44266 0.36178 0.0
C980 C 0.1287 0.42217 0.37422 0.0
C981 C 0.1381 0.44711 0.27501 0.0
C982 C 0.11051 0.45549 0.38376 0.0
H983 H 0.14765 0.54755 0.30958 0.0
H984 H 0.05906 0.48388 0.30643 0.0
H985 H 0.17046 0.50533 0.34595 0.0
H986 H 0.1774 0.50127 0.30721 0.0
H987 H 0.18423 0.53599 0.3155 0.0
H988 H 0.04491 0.43467 0.30336 0.0
H989 H 0.07193 0.42445 0.2992 0.0
H990 H 0.05942 0.42508 0.33716 0.0
H991 H 0.14865 0.4071 0.30806 0.0
H992 H 0.1265 0.41639 0.39931 0.0
H993 H 0.15193 0.47093 0.26887 0.0
H994 H 0.11681 0.44105 0.26603 0.0
H995 H 0.1478 0.43657 0.26328 0.0
H996 H 0.12534 0.47922 0.38142 0.0
H997 H 0.10871 0.44597 0.40848 0.0
H998 H 0.08904 0.45194 0.37779 0.0
C999 C 0.39215 0.5317 0.32524 0.0
C1000 C 0.41378 0.52434 0.32515 0.0
C1001 C 0.36292 0.51039 0.33158 0.0
C1002 C 0.35477 0.48074 0.33657 0.0
C1003 C 0.37644 0.4731 0.33483 0.0
C1004 C 0.40567 0.49498 0.3294 0.0
C1005 C 0.34077 0.51967 0.33365 0.0
C1006 C 0.3688 0.44181 0.33887 0.0
C1007 C 0.28223 0.42284 0.37929 0.0
C1008 C 0.26529 0.4125 0.35444 0.0
C1009 C 0.31103 0.44585 0.37391 0.0
C1010 C 0.32355 0.45786 0.34292 0.0
C1011 C 0.30622 0.44772 0.31785 0.0
C1012 C 0.27731 0.42556 0.32396 0.0
C1013 C 0.32843 0.45651 0.40134 0.0
C1014 C 0.31866 0.45897 0.28448 0.0
H1015 H 0.39818 0.55429 0.32087 0.0
H1016 H 0.42229 0.4892 0.32919 0.0
H1017 H 0.325 0.5108 0.31603 0.0
H1018 H 0.32862 0.51082 0.35686 0.0
H1019 H 0.35065 0.54359 0.33001 0.0
H1020 H 0.3881 0.43946 0.33656 0.0
H1021 H 0.35736 0.43057 0.36208 0.0
H1022 H 0.35399 0.43069 0.3212 0.0
H1023 H 0.27337 0.41214 0.40282 0.0
H1024 H 0.26458 0.41682 0.30467 0.0
H1025 H 0.33929 0.48047 0.39876 0.0
H1026 H 0.34549 0.45061 0.40224 0.0
H1027 H 0.31493 0.44714 0.42376 0.0
H1028 H 0.32831 0.48281 0.27969 0.0
H1029 H 0.30222 0.44913 0.26766 0.0
H1030 H 0.33612 0.45419 0.28038 0.0
C1031 C 0.4942 0.90089 0.357 0.0
C1032 C 0.47455 0.88888 0.33489 0.0
C1033 C 0.51438 0.89221 0.36357 0.0
C1034 C 0.51603 0.87276 0.34587 0.0
C1035 C 0.49503 0.85935 0.32476 0.0
C1036 C 0.47347 0.86648 0.321 0.0
C1037 C 0.53483 0.90489 0.38828 0.0
C1038 C 0.49551 0.83825 0.30537 0.0
C1039 C 0.59211 0.89448 0.32267 0.0
C1040 C 0.59493 0.8721 0.33941 0.0
C1041 C 0.56636 0.89456 0.32455 0.0
C1042 C 0.54295 0.872 0.34426 0.0
C1043 C 0.54556 0.84943 0.36165 0.0
C1044 C 0.57176 0.84974 0.35905 0.0
C1045 C 0.56415 0.91865 0.30494 0.0
C1046 C 0.52073 0.82505 0.38264 0.0
H1047 H 0.49325 0.91658 0.36949 0.0
H1048 H 0.45611 0.85507 0.30657 0.0
H1049 H 0.53873 0.88832 0.40166 0.0
H1050 H 0.55583 0.9228 0.37712 0.0
H1051 H 0.52641 0.91363 0.4047 0.0
H1052 H 0.48486 0.83822 0.28348 0.0
H1053 H 0.51769 0.84311 0.2992 0.0
H1054 H 0.48344 0.81609 0.31874 0.0
H1055 H 0.61009 0.91198 0.30767 0.0
H1056 H 0.57392 0.83231 0.37177 0.0
H1057 H 0.56159 0.9323 0.32022 0.0
H1058 H 0.54496 0.90951 0.29128 0.0
H1059 H 0.58347 0.93282 0.28854 0.0
H1060 H 0.51385 0.83394 0.40038 0.0
H1061 H 0.52632 0.8092 0.39465 0.0
H1062 H 0.50207 0.81348 0.36889 0.0
C1063 C 0.09641 0.61381 0.35637 0.0
C1064 C 0.11339 0.60711 0.33871 0.0
C1065 C 0.10693 0.64219 0.3623 0.0
C1066 C 0.13474 0.6643 0.34939 0.0
C1067 C 0.15244 0.65714 0.33294 0.0
C1068 C 0.14157 0.62846 0.32803 0.0
C1069 C 0.0876 0.64881 0.38065 0.0
C1070 C 0.18197 0.6801 0.31862 0.0
C1071 C 0.13715 0.736 0.33344 0.0
C1072 C 0.1471 0.74676 0.36113 0.0
C1073 C 0.13509 0.70998 0.328 0.0
C1074 C 0.14392 0.69508 0.35057 0.0
C1075 C 0.15799 0.70828 0.37624 0.0
C1076 C 0.15965 0.73427 0.38106 0.0
C1077 C 0.11997 0.69669 0.30025 0.0
C1078 C 0.1677 0.69322 0.40088 0.0
H1079 H 0.07447 0.59711 0.36412 0.0
H1080 H 0.15422 0.62299 0.31385 0.0
H1081 H 0.09944 0.66195 0.39883 0.0
H1082 H 0.08059 0.6617 0.36491 0.0
H1083 H 0.06812 0.62882 0.39201 0.0
H1084 H 0.19378 0.67069 0.30845 0.0
H1085 H 0.17993 0.69497 0.29995 0.0
H1086 H 0.19489 0.69326 0.33629 0.0
H1087 H 0.12703 0.74545 0.31835 0.0
H1088 H 0.16701 0.74249 0.40274 0.0
H1089 H 0.09763 0.67917 0.30805 0.0
H1090 H 0.13096 0.68691 0.28925 0.0
H1091 H 0.11889 0.71285 0.2825 0.0
H1092 H 0.14876 0.67658 0.41656 0.0
H1093 H 0.18353 0.70864 0.41519 0.0
H1094 H 0.17744 0.68204 0.39038 0.0
C1095 C 0.81546 0.07755 0.34941 0.0
C1096 C 0.84206 0.08419 0.36088 0.0
C1097 C 0.79533 0.0491 0.34522 0.0
C1098 C 0.80244 0.02699 0.35157 0.0
C1099 C 0.82994 0.03398 0.36143 0.0
C1100 C 0.84922 0.06238 0.3664 0.0
C1101 C 0.76626 0.04261 0.33452 0.0
C1102 C 0.83883 0.01138 0.36722 0.0
C1103 C 0.73754 0.95045 0.36371 0.0
C1104 C 0.73574 0.94397 0.33337 0.0
C1105 C 0.76042 0.97681 0.37064 0.0
C1106 C 0.78142 0.99689 0.34657 0.0
C1107 C 0.78075 0.98911 0.31667 0.0
C1108 C 0.75811 0.96268 0.3106 0.0
C1109 C 0.76087 0.98417 0.40301 0.0
C1110 C 0.80239 0.00971 0.29019 0.0
H1111 H 0.81018 0.09451 0.34442 0.0
H1112 H 0.86964 0.0674 0.37562 0.0
H1113 H 0.76303 0.03404 0.31212 0.0
H1114 H 0.74895 0.02566 0.35175 0.0
H1115 H 0.76382 0.06205 0.33141 0.0
H1116 H 0.8613 0.02055 0.37399 0.0
H1117 H 0.82419 0.99385 0.38596 0.0
H1118 H 0.83698 1.00137 0.34597 0.0
H1119 H 0.72012 0.93615 0.38124 0.0
H1120 H 0.75666 0.95762 0.28708 0.0
H1121 H 0.7549 1.00116 0.40269 0.0
H1122 H 0.78284 0.99303 0.41113 0.0
H1123 H 0.74562 0.96503 0.41995 0.0
H1124 H 0.79783 0.02738 0.2824 0.0
H1125 H 0.8015 0.99875 0.26992 0.0
H1126 H 0.82458 0.0198 0.29777 0.0
C1127 C 0.94879 0.82232 0.38564 0.0
C1128 C 0.92552 0.79734 0.37751 0.0
C1129 C 0.9768 0.82716 0.38225 0.0
C1130 C 0.98137 0.80672 0.36965 0.0
C1131 C 0.95777 0.78153 0.36111 0.0
C1132 C 0.92997 0.7771 0.36529 0.0
C1133 C 0.00139 0.85407 0.39194 0.0
C1134 C 0.96191 0.7592 0.34777 0.0
C1135 C 0.05429 0.82081 0.33965 0.0
C1136 C 0.05993 0.80559 0.36453 0.0
C1137 C 0.02923 0.82286 0.34144 0.0
C1138 C 0.01014 0.80963 0.36874 0.0
C1139 C 0.0171 0.79623 0.3946 0.0
C1140 C 0.04187 0.79437 0.39212 0.0
C1141 C 0.02245 0.83785 0.31379 0.0
C1142 C -0.00237 0.78242 0.42436 0.0
H1143 H 0.94492 0.83826 0.39407 0.0
H1144 H 0.91171 0.75831 0.35824 0.0
H1145 H 0.01412 0.84829 0.40834 0.0
H1146 H 0.01611 0.86809 0.37123 0.0
H1147 H -0.00619 0.86671 0.40323 0.0
H1148 H 0.94155 0.74185 0.34043 0.0
H1149 H 0.97801 0.76969 0.32739 0.0
H1150 H 0.97036 0.74911 0.36543 0.0
H1151 H 0.06867 0.82997 0.31862 0.0
H1152 H 0.04688 0.78353 0.41185 0.0
H1153 H 0.01656 0.85329 0.32126 0.0
H1154 H 0.00361 0.82158 0.30316 0.0
H1155 H 0.04085 0.84974 0.2958 0.0
H1156 H 0.99207 0.79777 0.43271 0.0
H1157 H 0.00762 0.77528 0.44321 0.0
H1158 H 0.97722 0.76327 0.4199 0.0
C1159 C 0.24283 0.18572 0.37273 0.0
C1160 C 0.22292 0.15638 0.38208 0.0
C1161 C 0.23399 0.20644 0.36886 0.0
C1162 C 0.20451 0.19757 0.37495 0.0
C1163 C 0.18452 0.16797 0.38537 0.0
C1164 C 0.19399 0.14775 0.38891 0.0
C1165 C 0.25607 0.23766 0.35735 0.0
C1166 C 0.15301 0.15759 0.39199 0.0
C1167 C 0.1906 0.25909 0.3847 0.0
C1168 C 0.18512 0.26638 0.35438 0.0
C1169 C 0.19524 0.23555 0.39236 0.0
C1170 C 0.19451 0.21908 0.36907 0.0
C1171 C 0.18631 0.22478 0.33923 0.0
C1172 C 0.18149 0.24817 0.33239 0.0
C1173 C 0.20353 0.23002 0.42456 0.0
C1174 C 0.1856 0.20822 0.31343 0.0
H1175 H 0.26517 0.19223 0.36748 0.0
H1176 H 0.17872 0.12503 0.39651 0.0
H1177 H 0.25041 0.24485 0.33471 0.0
H1178 H 0.25613 0.25164 0.37398 0.0
H1179 H 0.27814 0.24106 0.35425 0.0
H1180 H 0.14044 0.13415 0.40145 0.0
H1181 H 0.15032 0.17002 0.40885 0.0
H1182 H 0.14387 0.16147 0.37026 0.0
H1183 H 0.19439 0.27362 0.40147 0.0
H1184 H 0.17816 0.25428 0.30865 0.0
H1185 H 0.2268 0.23712 0.4235 0.0
H1186 H 0.19151 0.20655 0.43378 0.0
H1187 H 0.19937 0.2419 0.44105 0.0
H1188 H 0.20796 0.21477 0.30546 0.0
H1189 H 0.17503 0.21248 0.29313 0.0
H1190 H 0.17413 0.1846 0.32182 0.0
C1191 C 0.61518 0.51005 0.75185 0.0
C1192 C 0.59949 0.49601 0.7277 0.0
C1193 C 0.64436 0.53209 0.74628 0.0
C1194 C 0.65863 0.53942 0.71613 0.0
C1195 C 0.64291 0.5251 0.69175 0.0
C1196 C 0.61358 0.50418 0.69768 0.0
C1197 C 0.65993 0.5477 0.77264 0.0
C1198 C 0.65711 0.53136 0.65945 0.0
C1199 C 0.72645 0.61359 0.69714 0.0
C1200 C 0.74827 0.60716 0.70398 0.0
C1201 C 0.69733 0.59167 0.69988 0.0
C1202 C 0.68974 0.56253 0.71002 0.0
C1203 C 0.71191 0.55581 0.71553 0.0
C1204 C 0.74094 0.57827 0.71265 0.0
C1205 C 0.67459 0.59988 0.69326 0.0
C1206 C 0.70492 0.52504 0.72563 0.0
H1207 H 0.6048 0.50367 0.77514 0.0
H1208 H 0.60155 0.49403 0.67862 0.0
H1209 H 0.6778 0.54352 0.77796 0.0
H1210 H 0.66958 0.57142 0.76571 0.0
H1211 H 0.64544 0.54085 0.79412 0.0
H1212 H 0.64124 0.52091 0.64231 0.0
H1213 H 0.6697 0.55499 0.65121 0.0
H1214 H 0.67239 0.52314 0.66004 0.0
H1215 H 0.73215 0.63603 0.6908 0.0
H1216 H 0.75779 0.57337 0.71846 0.0
H1217 H 0.66057 0.59432 0.7148 0.0
H1218 H 0.66063 0.58741 0.67571 0.0
H1219 H 0.68405 0.62333 0.68453 0.0
H1220 H 0.69395 0.51722 0.74942 0.0
H1221 H 0.72451 0.52303 0.72575 0.0
H1222 H 0.68994 0.51068 0.70995 0.0
C1223 C 0.48954 0.13363 0.68943 0.0
C1224 C 0.51912 0.15296 0.68565 0.0
C1225 C 0.47031 0.14313 0.68149 0.0
C1226 C 0.4813 0.17252 0.66864 0.0
C1227 C 0.51121 0.1913 0.66162 0.0
C1228 C 0.53 0.18135 0.67085 0.0
C1229 C 0.4385 0.12247 0.68986 0.0
C1230 C 0.52341 0.22238 0.64685 0.0
C1231 C 0.41812 0.18088 0.64934 0.0
C1232 C 0.41094 0.18478 0.67858 0.0
C1233 C 0.44346 0.1803 0.64403 0.0
C1234 C 0.46169 0.18409 0.6685 0.0
C1235 C 0.45622 0.19186 0.69658 0.0
C1236 C 0.43055 0.19176 0.70142 0.0
C1237 C 0.44883 0.17221 0.61377 0.0
C1238 C 0.47542 0.19648 0.72313 0.0
H1239 H 0.48163 0.11159 0.70068 0.0
H1240 H 0.55307 0.196 0.66807 0.0
H1241 H 0.43099 0.12948 0.70903 0.0
H1242 H 0.42596 0.12256 0.6697 0.0
H1243 H 0.43357 0.09991 0.69759 0.0
H1244 H 0.5458 0.23182 0.63656 0.0
H1245 H 0.5099 0.22423 0.62847 0.0
H1246 H 0.52367 0.23538 0.66477 0.0
H1247 H 0.40288 0.17588 0.63159 0.0
H1248 H 0.42508 0.19557 0.7237 0.0
H1249 H 0.44042 0.14853 0.61679 0.0
H1250 H 0.47219 0.18331 0.60664 0.0
H1251 H 0.4377 0.17758 0.59482 0.0
H1252 H 0.47163 0.17519 0.73488 0.0
H1253 H 0.47102 0.20734 0.74069 0.0
H1254 H 0.49845 0.20969 0.71454 0.0
C1255 C 0.86299 0.38329 0.70155 0.0
C1256 C 0.89274 0.40249 0.69845 0.0
C1257 C 0.85158 0.35406 0.69848 0.0
C1258 C 0.87046 0.34374 0.69262 0.0
C1259 C 0.90061 0.36321 0.68901 0.0
C1260 C 0.91135 0.39242 0.69179 0.0
C1261 C 0.81938 0.33409 0.70231 0.0
C1262 C 0.92154 0.3532 0.68246 0.0
C1263 C 0.8497 0.26428 0.70818 0.0
C1264 C 0.84524 0.25721 0.67805 0.0
C1265 C 0.85595 0.29193 0.71384 0.0
C1266 C 0.85872 0.31294 0.6886 0.0
C1267 C 0.85228 0.30505 0.65867 0.0
C1268 C 0.84484 0.27708 0.65403 0.0
C1269 C 0.86186 0.29939 0.74627 0.0
C1270 C 0.85598 0.32692 0.63085 0.0
H1271 H 0.84869 0.39098 0.70748 0.0
H1272 H 0.93436 0.40739 0.68944 0.0
H1273 H 0.81185 0.32285 0.68172 0.0
H1274 H 0.8137 0.3172 0.72288 0.0
H1275 H 0.80764 0.3458 0.70539 0.0
H1276 H 0.94427 0.37115 0.68009 0.0
H1277 H 0.91911 0.33618 0.70157 0.0
H1278 H 0.91679 0.34347 0.66071 0.0
H1279 H 0.85072 0.24929 0.72662 0.0
H1280 H 0.84183 0.27173 0.63059 0.0
H1281 H 0.8521 0.31233 0.75194 0.0
H1282 H 0.88543 0.31265 0.7478 0.0
H1283 H 0.85335 0.27966 0.76395 0.0
H1284 H 0.84387 0.33789 0.63548 0.0
H1285 H 0.84867 0.31689 0.60943 0.0
H1286 H 0.87906 0.34384 0.62639 0.0
C1287 C 0.15842 0.97055 0.67477 0.0
C1288 C 0.16722 0.95235 0.66462 0.0
C1289 C 0.1787 0.99812 0.68117 0.0
C1290 C 0.20844 0.0082 0.67557 0.0
C1291 C 0.2174 0.9899 0.66502 0.0
C1292 C 0.19664 0.96193 0.66043 0.0
C1293 C 0.16832 0.0164 0.69391 0.0
C1294 C 0.24887 0.99987 0.65851 0.0
C1295 C 0.26321 0.08896 0.66792 0.0
C1296 C 0.27424 0.09046 0.69721 0.0
C1297 C 0.24124 0.06229 0.66057 0.0
C1298 C 0.23026 0.03693 0.68306 0.0
C1299 C 0.24081 0.03867 0.71282 0.0
C1300 C 0.26239 0.06529 0.71952 0.0
C1301 C 0.23037 0.06094 0.62853 0.0
C1302 C 0.22974 0.01229 0.73757 0.0
H1303 H 0.13565 0.96329 0.67733 0.0
H1304 H 0.20332 0.94766 0.65275 0.0
H1305 H 0.17861 0.02353 0.71564 0.0
H1306 H 0.17461 0.03614 0.67689 0.0
H1307 H 0.14458 0.00454 0.699 0.0
H1308 H 0.25208 0.98381 0.64808 0.0
H1309 H 0.25952 0.02071 0.6424 0.0
H1310 H 0.25985 0.00367 0.68041 0.0
H1311 H 0.27224 0.10825 0.6506 0.0
H1312 H 0.27034 0.06616 0.74247 0.0
H1313 H 0.20669 0.05168 0.63035 0.0
H1314 H 0.23479 0.04635 0.61667 0.0
H1315 H 0.24055 0.08258 0.61388 0.0
H1316 H 0.2061 1.00205 0.74221 0.0
H1317 H 0.23994 0.01756 0.7598 0.0
H1318 H 0.23399 0.99601 0.72936 0.0
C1319 C 0.04133 0.21349 0.72029 0.0
C1320 C 0.0516 0.21738 0.68945 0.0
C1321 C 0.0117 0.19951 0.72839 0.0
C1322 C 0.9925 0.19144 0.70461 0.0
C1323 C 0.0028 0.1938 0.67373 0.0
C1324 C 0.03227 0.20599 0.66682 0.0
C1325 C 0.00114 0.19524 0.76189 0.0
C1326 C 0.98328 0.1864 0.64732 0.0
C1327 C 0.9122 0.15892 0.70646 0.0
C1328 C 0.91107 0.1843 0.69841 0.0
C1329 C 0.93864 0.16058 0.71221 0.0
C1330 C 0.96385 0.18817 0.70953 0.0
C1331 C 0.96193 0.21362 0.70467 0.0
C1332 C 0.93544 0.21127 0.69923 0.0
C1333 C 0.93991 0.13307 0.71857 0.0
C1334 C 0.98826 0.24355 0.70161 0.0
H1335 H 0.05643 0.22211 0.73778 0.0
H1336 H 0.04047 0.20811 0.64324 0.0
H1337 H -0.00264 0.21306 0.76576 0.0
H1338 H 0.98048 0.17456 0.76779 0.0
H1339 H 0.01717 0.19525 0.77797 0.0
H1340 H -0.00538 0.18798 0.62511 0.0
H1341 H 0.9646 0.16419 0.653 0.0
H1342 H 0.97478 0.2015 0.64364 0.0
H1343 H 0.89301 0.13805 0.7062 0.0
H1344 H 0.93405 0.23075 0.69376 0.0
H1345 H 0.95666 0.13538 0.7347 0.0
H1346 H 0.9455 0.12809 0.69649 0.0
H1347 H 0.9188 0.11441 0.72861 0.0
H1348 H 0.00077 0.24571 0.72228 0.0
H1349 H 0.98262 0.2609 0.69906 0.0
H1350 H 0.00247 0.24718 0.68091 0.0
C1351 C 0.79871 0.85658 0.64545 0.0
C1352 C 0.76971 0.84893 0.64391 0.0
C1353 C 0.80681 0.83545 0.6527 0.0
C1354 C 0.78587 0.80562 0.65448 0.0
C1355 C 0.75696 0.79804 0.6493 0.0
C1356 C 0.74907 0.8195 0.64628 0.0
C1357 C 0.83743 0.84575 0.66074 0.0
C1358 C 0.73358 0.76715 0.64879 0.0
C1359 C 0.81535 0.75281 0.6623 0.0
C1360 C 0.80545 0.73879 0.69298 0.0
C1361 C 0.80912 0.77451 0.64922 0.0
C1362 C 0.79279 0.78254 0.66723 0.0
C1363 C 0.78341 0.76881 0.69839 0.0
C1364 C 0.78948 0.74721 0.71048 0.0
C1365 C 0.82009 0.78888 0.61616 0.0
C1366 C 0.76668 0.77648 0.71961 0.0
H1367 H 0.8149 0.87925 0.64383 0.0
H1368 H 0.72646 0.81298 0.64737 0.0
H1369 H 0.8408 0.82831 0.67263 0.0
H1370 H 0.85197 0.85603 0.6391 0.0
H1371 H 0.84405 0.86262 0.67608 0.0
H1372 H 0.7194 0.76635 0.62993 0.0
H1373 H 0.74225 0.75281 0.64512 0.0
H1374 H 0.71986 0.75863 0.67101 0.0
H1375 H 0.82764 0.74668 0.64846 0.0
H1376 H 0.78137 0.73687 0.73426 0.0
H1377 H 0.83764 0.81151 0.61598 0.0
H1378 H 0.80266 0.78951 0.60307 0.0
H1379 H 0.82881 0.77763 0.60409 0.0
H1380 H 0.77082 0.77283 0.74434 0.0
H1381 H 0.74331 0.76217 0.71775 0.0
H1382 H 0.77196 0.79931 0.71373 0.0
C1383 C 0.07263 0.8375 0.68893 0.0
C1384 C 0.07998 0.85659 0.6609 0.0
C1385 C 0.04386 0.81594 0.69801 0.0
C1386 C 0.0221 0.81185 0.67742 0.0
C1387 C 0.02973 0.83058 0.64859 0.0
C1388 C 0.05816 0.85347 0.64157 0.0
C1389 C 0.0374 0.79786 0.72967 0.0
C1390 C 0.00806 0.82644 0.62481 0.0
C1391 C 0.9601 0.73542 0.67928 0.0
C1392 C 0.93581 0.73814 0.68477 0.0
C1393 C 0.9881 0.75892 0.67783 0.0
C1394 C 0.99244 0.78595 0.68359 0.0
C1395 C 0.96818 0.78832 0.69216 0.0
C1396 C 0.94001 0.76436 0.69237 0.0
C1397 C 0.01284 0.75481 0.66871 0.0
C1398 C 0.97186 0.81588 0.70148 0.0
H1399 H 0.08931 0.83975 0.70414 0.0
H1400 H 0.06316 0.86939 0.62122 0.0
H1401 H 0.01407 0.78482 0.73703 0.0
H1402 H 0.04629 0.78319 0.72955 0.0
H1403 H 0.04844 0.81211 0.74735 0.0
H1404 H 0.01863 0.8391 0.60163 0.0
H1405 H -0.00518 0.80326 0.62213 0.0
H1406 H 0.99331 0.83362 0.63256 0.0
H1407 H 0.95721 0.71493 0.67453 0.0
H1408 H 0.92145 0.76651 0.6973 0.0
H1409 H 0.02431 0.75382 0.68956 0.0
H1410 H 0.02851 0.77311 0.65124 0.0
H1411 H 0.00542 0.73442 0.65891 0.0
H1412 H 0.97869 0.81726 0.72557 0.0
H1413 H 0.95148 0.81645 0.70097 0.0
H1414 H 0.98882 0.83535 0.68637 0.0
C1415 C 0.13687 0.19798 0.66447 0.0
C1416 C 0.14427 0.22679 0.66446 0.0
C1417 C 0.1581 0.19023 0.66494 0.0
C1418 C 0.18724 0.21208 0.66439 0.0
C1419 C 0.19484 0.24144 0.66295 0.0
C1420 C 0.17308 0.24843 0.66312 0.0
C1421 C 0.14937 0.15877 0.66643 0.0
C1422 C 0.22587 0.2654 0.6612 0.0
C1423 C 0.2466 0.19772 0.68973 0.0
C1424 C 0.25955 0.19998 0.66078 0.0
C1425 C 0.22179 0.20003 0.69146 0.0
C1426 C 0.2101 0.20466 0.6636 0.0
C1427 C 0.22201 0.20492 0.63451 0.0
C1428 C 0.24649 0.20233 0.6335 0.0
C1429 C 0.20914 0.19929 0.72284 0.0
C1430 C 0.21016 0.21 0.60432 0.0
H1431 H 0.11442 0.18157 0.66456 0.0
H1432 H 0.17839 0.27069 0.66272 0.0
H1433 H 0.16019 0.15588 0.64657 0.0
H1434 H 0.1564 0.15154 0.68805 0.0
H1435 H 0.12573 0.14457 0.66609 0.0
H1436 H 0.22798 0.28707 0.6602 0.0
H1437 H 0.23637 0.26161 0.68178 0.0
H1438 H 0.23778 0.26551 0.64024 0.0
H1439 H 0.25667 0.1958 0.71078 0.0
H1440 H 0.25621 0.20345 0.61107 0.0
H1441 H 0.18554 0.18416 0.72515 0.0
H1442 H 0.21274 0.2211 0.72499 0.0
H1443 H 0.21892 0.19259 0.7423 0.0
H1444 H 0.18671 0.19455 0.60505 0.0
H1445 H 0.2209 0.20776 0.58384 0.0
H1446 H 0.21317 0.23212 0.60093 0.0
C1447 C 0.75293 0.93827 0.69675 0.0
C1448 C 0.76613 0.93098 0.67465 0.0
C1449 C 0.76303 0.96748 0.69942 0.0
C1450 C 0.78642 0.98973 0.67899 0.0
C1451 C 0.80003 0.98225 0.65705 0.0
C1452 C 0.78979 0.95298 0.65527 0.0
C1453 C 0.7482 0.97459 0.72347 0.0
C1454 C 0.82471 0.00515 0.63468 0.0
C1455 C 0.78651 0.06077 0.66802 0.0
C1456 C 0.80494 0.07509 0.69036 0.0
C1457 C 0.78163 0.03363 0.66254 0.0
C1458 C 0.79572 0.02073 0.67974 0.0
C1459 C 0.81681 0.03669 0.6997 0.0
C1460 C 0.82121 0.06377 0.70468 0.0
C1461 C 0.75917 0.01753 0.64079 0.0
C1462 C 0.83242 0.02392 0.71849 0.0
H1463 H 0.73441 0.92114 0.71136 0.0
H1464 H 0.7995 0.94708 0.63782 0.0
H1465 H 0.76422 0.98925 0.73818 0.0
H1466 H 0.73776 0.98615 0.71173 0.0
H1467 H 0.73156 0.95491 0.73876 0.0
H1468 H 0.83354 0.99572 0.61969 0.0
H1469 H 0.81737 0.01809 0.61954 0.0
H1470 H 0.84227 0.02026 0.6477 0.0
H1471 H 0.77331 0.06912 0.6576 0.0
H1472 H 0.83488 0.07446 0.72261 0.0
H1473 H 0.73956 0.99969 0.65458 0.0
H1474 H 0.76706 0.00767 0.62532 0.0
H1475 H 0.75306 0.03187 0.62619 0.0
H1476 H 0.81763 0.00787 0.7382 0.0
H1477 H 0.85163 0.04077 0.72815 0.0
H1478 H 0.83929 0.01245 0.70423 0.0
C1479 C 0.48326 0.39645 0.7269 0.0
C1480 C 0.5072 0.41469 0.70571 0.0
C1481 C 0.46135 0.3698 0.7201 0.0
C1482 C 0.46395 0.36055 0.69189 0.0
C1483 C 0.48868 0.37833 0.67092 0.0
C1484 C 0.50987 0.4054 0.67792 0.0
C1485 C 0.43505 0.35197 0.74272 0.0
C1486 C 0.49236 0.36909 0.64072 0.0
C1487 C 0.4141 0.28177 0.68095 0.0
C1488 C 0.39403 0.28452 0.66252 0.0
C1489 C 0.43701 0.30634 0.69111 0.0
C1490 C 0.43944 0.33388 0.68284 0.0
C1491 C 0.41835 0.33626 0.66546 0.0
C1492 C 0.39604 0.31164 0.65558 0.0
C1493 C 0.45919 0.3031 0.70961 0.0
C1494 C 0.41964 0.36496 0.6566 0.0
H1495 H 0.48165 0.40307 0.74891 0.0
H1496 H 0.52838 0.41946 0.66157 0.0
H1497 H 0.41561 0.34927 0.73127 0.0
H1498 H 0.43191 0.33003 0.7499 0.0
H1499 H 0.4366 0.36206 0.76388 0.0
H1500 H 0.51396 0.384 0.62842 0.0
H1501 H 0.48919 0.34692 0.64514 0.0
H1502 H 0.4758 0.36847 0.62516 0.0
H1503 H 0.41266 0.26085 0.6862 0.0
H1504 H 0.38031 0.31378 0.64167 0.0
H1505 H 0.46125 0.312 0.73169 0.0
H1506 H 0.48054 0.31576 0.69626 0.0
H1507 H 0.45374 0.28016 0.71514 0.0
H1508 H 0.4196 0.37437 0.67782 0.0
H1509 H 0.40126 0.36293 0.64329 0.0
H1510 H 0.43991 0.38049 0.6422 0.0
C1511 C 0.6022 0.11949 0.68179 0.0
C1512 C 0.595 0.13002 0.70603 0.0
C1513 C 0.63085 0.12745 0.67459 0.0
C1514 C 0.65208 0.14335 0.69441 0.0
C1515 C 0.64491 0.15418 0.71889 0.0
C1516 C 0.61671 0.14864 0.72315 0.0
C1517 C 0.63832 0.11831 0.64621 0.0
C1518 C 0.66632 0.17123 0.74108 0.0
C1519 C 0.70329 0.11544 0.70696 0.0
C1520 C 0.72979 0.13943 0.69464 0.0
C1521 C 0.67825 0.11696 0.70755 0.0
C1522 C 0.67917 0.14261 0.69369 0.0
C1523 C 0.70552 0.1667 0.67991 0.0
C1524 C 0.73079 0.16493 0.68077 0.0
C1525 C 0.651 0.09131 0.72418 0.0
C1526 C 0.70708 0.19442 0.66526 0.0
H1527 H 0.58557 0.10587 0.66783 0.0
H1528 H 0.61147 0.1586 0.74027 0.0
H1529 H 0.65943 0.13564 0.63455 0.0
H1530 H 0.63998 0.09869 0.65318 0.0
H1531 H 0.62167 0.11324 0.62921 0.0
H1532 H 0.65568 0.16562 0.76492 0.0
H1533 H 0.68491 0.16765 0.74226 0.0
H1534 H 0.67452 0.19464 0.73349 0.0
H1535 H 0.70218 0.09549 0.71743 0.0
H1536 H 0.75128 0.18364 0.67156 0.0
H1537 H 0.63546 0.08046 0.707 0.0
H1538 H 0.64062 0.09851 0.74023 0.0
H1539 H 0.65515 0.07504 0.73787 0.0
H1540 H 0.69026 0.18976 0.64856 0.0
H1541 H 0.7285 0.2101 0.65295 0.0
H1542 H 0.70286 0.20471 0.68354 0.0
C1543 C 0.8707 0.48519 0.73263 0.0
C1544 C 0.8967 0.49272 0.71664 0.0
C1545 C 0.86122 0.50527 0.7323 0.0
C1546 C 0.8779 0.53334 0.71501 0.0
C1547 C 0.90452 0.54108 0.69917 0.0
C1548 C 0.91366 0.52066 0.70038 0.0
C1549 C 0.83301 0.49626 0.74978 0.0
C1550 C 0.92287 0.57058 0.68008 0.0
C1551 C 0.84291 0.57546 0.67972 0.0
C1552 C 0.85421 0.59901 0.6962 0.0
C1553 C 0.84932 0.55318 0.68653 0.0
C1554 C 0.86656 0.55382 0.71133 0.0
C1555 C 0.87495 0.57564 0.73054 0.0
C1556 C 0.86892 0.59821 0.72253 0.0
C1557 C 0.84044 0.53093 0.66484 0.0
C1558 C 0.89256 0.57665 0.7578 0.0
H1559 H 0.85767 0.46339 0.74503 0.0
H1560 H 0.9337 0.52617 0.68797 0.0
H1561 H 0.83595 0.51247 0.76488 0.0
H1562 H 0.81715 0.49541 0.73306 0.0
H1563 H 0.82394 0.4747 0.7644 0.0
H1564 H 0.9431 0.57328 0.66954 0.0
H1565 H 0.91059 0.574 0.66115 0.0
H1566 H 0.92851 0.58768 0.69483 0.0
H1567 H 0.83227 0.57647 0.65881 0.0
H1568 H 0.87841 0.61675 0.73482 0.0
H1569 H 0.83078 0.5088 0.67816 0.0
H1570 H 0.85977 0.53503 0.65079 0.0
H1571 H 0.82477 0.53164 0.64866 0.0
H1572 H 0.88361 0.55482 0.77173 0.0
H1573 H 0.89337 0.59192 0.77319 0.0
H1574 H 0.9149 0.58378 0.74917 0.0
C1575 C 0.47756 0.95762 0.2709 0.0
C1576 C 0.46955 0.92868 0.28092 0.0
C1577 C 0.48905 0.97085 0.24029 0.0
C1578 C 0.49491 0.95548 0.22005 0.0
C1579 C 0.49046 0.92769 0.23146 0.0
C1580 C 0.47658 0.91413 0.26118 0.0
C1581 C 0.49196 0.99991 0.22886 0.0
C1582 C 0.4982 0.91128 0.21143 0.0
C1583 C 0.48269 0.96801 0.13511 0.0
C1584 C 0.51017 0.9897 0.12252 0.0
C1585 C 0.47758 0.95652 0.16675 0.0
C1586 C 0.50085 0.96619 0.18604 0.0
C1587 C 0.52908 0.98677 0.17292 0.0
C1588 C 0.53331 0.99894 0.14133 0.0
C1589 C 0.44695 0.93528 0.17975 0.0
C1590 C 0.55458 0.99664 0.19242 0.0
H1591 H 0.47257 0.96907 0.2863 0.0
H1592 H 0.46947 0.89155 0.26768 0.0
H1593 H 0.51326 0.01489 0.21614 0.0
H1594 H 0.47535 0.99705 0.21233 0.0
H1595 H 0.48913 0.01012 0.24818 0.0
H1596 H 0.49986 0.89358 0.22572 0.0
H1597 H 0.48139 0.90154 0.19502 0.0
H1598 H 0.51898 0.92602 0.19747 0.0
H1599 H 0.46476 0.96142 0.12053 0.0
H1600 H 0.55446 0.01611 0.13156 0.0
H1601 H 0.44097 0.94362 0.19883 0.0
H1602 H 0.44497 0.91432 0.18973 0.0
H1603 H 0.43124 0.9312 0.16178 0.0
H1604 H 0.55447 0.01169 0.20747 0.0
H1605 H 0.57528 0.00807 0.17777 0.0
H1606 H 0.55343 0.97794 0.20787 0.0
C1607 C 0.04412 0.5414 0.25692 0.0
C1608 C 0.06894 0.53983 0.26316 0.0
C1609 C 0.03403 0.53977 0.22722 0.0
C1610 C 0.0464 0.5321 0.20409 0.0
C1611 C 0.06901 0.52639 0.21164 0.0
C1612 C 0.08093 0.53168 0.2406 0.0
C1613 C 0.01079 0.54739 0.22083 0.0
C1614 C 0.08123 0.51522 0.18936 0.0
C1615 C -0.00496 0.50224 0.14151 0.0
C1616 C 0.00998 0.52239 0.11466 0.0
C1617 C 0.00737 0.50434 0.17 0.0
C1618 C 0.0344 0.52872 0.17292 0.0
C1619 C 0.04868 0.55055 0.14664 0.0
C1620 C 0.03661 0.54685 0.11755 0.0
C1621 C 0.99158 0.47967 0.1965 0.0
C1622 C 0.07684 0.57757 0.14925 0.0
H1623 H 0.03402 0.54652 0.27475 0.0
H1624 H 0.09999 0.53021 0.24508 0.0
H1625 H 0.01148 0.55575 0.19595 0.0
H1626 H 0.98938 0.52791 0.22775 0.0
H1627 H 0.01282 0.56403 0.23487 0.0
H1628 H 0.08711 0.49995 0.20231 0.0
H1629 H 0.06596 0.504 0.17207 0.0
H1630 H 0.10125 0.53357 0.1768 0.0
H1631 H 0.97428 0.48333 0.13975 0.0
H1632 H 0.04848 0.56239 0.09702 0.0
H1633 H 0.97778 0.48432 0.2109 0.0
H1634 H 0.00667 0.47651 0.21164 0.0
H1635 H 0.97729 0.45901 0.18775 0.0
H1636 H 0.07446 0.58828 0.16829 0.0
H1637 H 0.08448 0.59315 0.12729 0.0
H1638 H 0.09358 0.57186 0.1552 0.0
C1639 C 0.44861 0.54193 0.25231 0.0
C1640 C 0.46132 0.53467 0.27726 0.0
C1641 C 0.45245 0.53686 0.22223 0.0
C1642 C 0.46959 0.52438 0.21704 0.0
C1643 C 0.48135 0.51576 0.24257 0.0
C1644 C 0.47678 0.52075 0.27244 0.0
C1645 C 0.439 0.54575 0.19584 0.0
C1646 C 0.49971 0.50235 0.23814 0.0
C1647 C 0.45961 0.48531 0.14786 0.0
C1648 C 0.48361 0.50522 0.12738 0.0
C1649 C 0.45447 0.49169 0.17652 0.0
C1650 C 0.4739 0.51873 0.18531 0.0
C1651 C 0.49773 0.53951 0.16434 0.0
C1652 C 0.50221 0.5326 0.1353 0.0
C1653 C 0.42864 0.46901 0.1978 0.0
C1654 C 0.51885 0.56864 0.173 0.0
H1655 H 0.4372 0.55325 0.25607 0.0
H1656 H 0.48682 0.51548 0.29182 0.0
H1657 H 0.45603 0.56216 0.17802 0.0
H1658 H 0.42485 0.52683 0.18434 0.0
H1659 H 0.42607 0.55493 0.20384 0.0
H1660 H 0.50736 0.49699 0.26037 0.0
H1661 H 0.48735 0.48227 0.22771 0.0
H1662 H 0.51872 0.51749 0.22173 0.0
H1663 H 0.44478 0.4643 0.14151 0.0
H1664 H 0.52063 0.54807 0.11943 0.0
H1665 H 0.4157 0.47832 0.2053 0.0
H1666 H 0.43593 0.46158 0.21906 0.0
H1667 H 0.41451 0.44988 0.18651 0.0
H1668 H 0.50739 0.58003 0.1786 0.0
H1669 H 0.53595 0.58257 0.15404 0.0
H1670 H 0.52911 0.56568 0.1942 0.0
C1671 C 0.95927 0.49567 0.76715 0.0
C1672 C 0.92991 0.47825 0.76397 0.0
C1673 C 0.96923 0.50278 0.7963 0.0
C1674 C 0.94922 0.49179 0.82273 0.0
C1675 C 0.91939 0.4749 0.81928 0.0
C1676 C 0.9101 0.46832 0.78981 0.0
C1677 C 0.00116 0.52133 0.79901 0.0
C1678 C 0.89739 0.46306 0.84681 0.0
C1679 C 0.9795 0.48966 0.90155 0.0
C1680 C 0.98412 0.51575 0.90986 0.0
C1681 C 0.96747 0.4811 0.87337 0.0
C1682 C 0.95957 0.49886 0.85376 0.0
C1683 C 0.96286 0.52438 0.86307 0.0
C1684 C 0.97517 0.53251 0.89088 0.0
C1685 C 0.96404 0.45363 0.86404 0.0
C1686 C 0.95441 0.54373 0.84314 0.0
H1687 H 0.97439 0.50266 0.74699 0.0
H1688 H 0.88748 0.45415 0.78708 0.0
H1689 H 0.00562 0.54059 0.80972 0.0
H1690 H 0.00884 0.50891 0.81448 0.0
H1691 H 0.01375 0.52878 0.77607 0.0
H1692 H 0.875 0.45066 0.83999 0.0
H1693 H 0.9014 0.44865 0.8641 0.0
H1694 H 0.89939 0.48101 0.8585 0.0
H1695 H 0.98616 0.4766 0.91642 0.0
H1696 H 0.97805 0.55237 0.89773 0.0
H1697 H 0.9784 0.459 0.84285 0.0
H1698 H 0.94164 0.43959 0.85818 0.0
H1699 H 0.96932 0.44125 0.88272 0.0
H1700 H 0.96888 0.55384 0.82145 0.0
H1701 H 0.95573 0.56123 0.85526 0.0
H1702 H 0.93214 0.53094 0.83627 0.0
C1703 C 0.52376 0.45647 0.7939 0.0
C1704 C 0.54377 0.48127 0.77353 0.0
C1705 C 0.51456 0.45833 0.82318 0.0
C1706 C 0.52792 0.48522 0.83418 0.0
C1707 C 0.55003 0.51008 0.81489 0.0
C1708 C 0.5569 0.50805 0.78423 0.0
C1709 C 0.48971 0.4316 0.84173 0.0
C1710 C 0.56651 0.53865 0.82678 0.0
C1711 C 0.48921 0.49818 0.89837 0.0
C1712 C 0.50006 0.49094 0.92515 0.0
C1713 C 0.49756 0.49578 0.86873 0.0
C1714 C 0.51824 0.48706 0.86566 0.0
C1715 C 0.52876 0.47905 0.8928 0.0
C1716 C 0.51911 0.48059 0.92225 0.0
C1717 C 0.48492 0.50351 0.84064 0.0
C1718 C 0.55116 0.47007 0.89079 0.0
H1719 H 0.51401 0.43557 0.78605 0.0
H1720 H 0.57254 0.52718 0.76878 0.0
H1721 H 0.49731 0.42443 0.86284 0.0
H1722 H 0.47314 0.43651 0.84948 0.0
H1723 H 0.47937 0.41338 0.82809 0.0
H1724 H 0.58395 0.55551 0.80956 0.0
H1725 H 0.55176 0.54646 0.8326 0.0
H1726 H 0.57617 0.53575 0.84853 0.0
H1727 H 0.47527 0.50715 0.90052 0.0
H1728 H 0.52838 0.47606 0.94285 0.0
H1729 H 0.47661 0.48602 0.826 0.0
H1730 H 0.50186 0.52352 0.82617 0.0
H1731 H 0.46714 0.50715 0.84725 0.0
H1732 H 0.54078 0.44745 0.88606 0.0
H1733 H 0.56187 0.47118 0.9128 0.0
H1734 H 0.56787 0.48396 0.87151 0.0
C1735 C 0.5176 0.07944 0.77095 0.0
C1736 C 0.54658 0.10038 0.76236 0.0
C1737 C 0.50888 0.06354 0.80084 0.0
C1738 C 0.52999 0.06613 0.82146 0.0
C1739 C 0.55957 0.08365 0.81115 0.0
C1740 C 0.56756 0.10145 0.78205 0.0
C1741 C 0.47711 0.04597 0.81107 0.0
C1742 C 0.58271 0.08447 0.83131 0.0
C1743 C 0.5125 0.05218 0.90901 0.0
C1744 C 0.50534 0.0232 0.91612 0.0
C1745 C 0.51995 0.0663 0.87803 0.0
C1746 C 0.52098 0.05123 0.85403 0.0
C1747 C 0.51283 0.02176 0.86103 0.0
C1748 C 0.5041 0.00789 0.89175 0.0
C1749 C 0.5277 0.0976 0.8711 0.0
C1750 C 0.5147 0.00513 0.8365 0.0
H1751 H 0.50142 0.07762 0.75515 0.0
H1752 H 0.58999 0.11682 0.77577 0.0
H1753 H 0.47049 0.02295 0.81848 0.0
H1754 H 0.47259 0.05398 0.83144 0.0
H1755 H 0.46356 0.04718 0.79234 0.0
H1756 H 0.60419 0.09571 0.81815 0.0
H1757 H 0.58403 0.09592 0.8512 0.0
H1758 H 0.57741 0.06215 0.84103 0.0
H1759 H 0.51376 0.0642 0.92766 0.0
H1760 H 0.49831 0.98535 0.89702 0.0
H1761 H 0.51493 0.10039 0.85235 0.0
H1762 H 0.55075 0.11131 0.86267 0.0
H1763 H 0.5239 0.10558 0.89192 0.0
H1764 H 0.49689 0.99998 0.82113 0.0
H1765 H 0.5132 0.98444 0.84691 0.0
H1766 H 0.53522 0.01824 0.82166 0.0
C1767 C 0.12931 0.24402 0.59468 0.0
C1768 C 0.13388 0.26363 0.61517 0.0
C1769 C 0.13931 0.25382 0.5632 0.0
C1770 C 0.15411 0.28392 0.55223 0.0
C1771 C 0.16012 0.30378 0.57341 0.0
C1772 C 0.14984 0.29331 0.60473 0.0
C1773 C 0.13232 0.23199 0.54137 0.0
C1774 C 0.17563 0.33602 0.56261 0.0
C1775 C 0.19176 0.31783 0.47107 0.0
C1776 C 0.17122 0.32295 0.4566 0.0
C1777 C 0.18604 0.30366 0.50203 0.0
C1778 C 0.15927 0.29463 0.51832 0.0
C1779 C 0.13792 0.29822 0.50284 0.0
C1780 C 0.14423 0.31238 0.47222 0.0
C1781 C 0.20897 0.29954 0.51775 0.0
C1782 C 0.10886 0.28845 0.51902 0.0
H1783 H 0.11666 0.221 0.60308 0.0
H1784 H 0.15322 0.30819 0.62091 0.0
H1785 H 0.11582 0.23184 0.526 0.0
H1786 H 0.15169 0.23796 0.52616 0.0
H1787 H 0.12392 0.20975 0.55411 0.0
H1788 H 0.1814 0.3485 0.58241 0.0
H1789 H 0.19556 0.34288 0.54793 0.0
H1790 H 0.16163 0.34161 0.54814 0.0
H1791 H 0.21248 0.32578 0.45867 0.0
H1792 H 0.12823 0.31604 0.46065 0.0
H1793 H 0.19976 0.27691 0.52959 0.0
H1794 H 0.21746 0.3138 0.53589 0.0
H1795 H 0.22717 0.3047 0.50103 0.0
H1796 H 0.09849 0.26535 0.52958 0.0
H1797 H 0.09408 0.29114 0.50289 0.0
H1798 H 0.11164 0.30119 0.53813 0.0
C1799 C 0.72566 0.84681 0.58529 0.0
C1800 C 0.73793 0.87279 0.59772 0.0
C1801 C 0.71762 0.84584 0.55441 0.0
C1802 C 0.71919 0.87068 0.53665 0.0
C1803 C 0.73224 0.89704 0.54873 0.0
C1804 C 0.74333 0.89813 0.57796 0.0
C1805 C 0.70653 0.81798 0.54119 0.0
C1806 C 0.73233 0.92352 0.5321 0.0
C1807 C 0.70865 0.8741 0.44975 0.0
C1808 C 0.67865 0.86123 0.44989 0.0
C1809 C 0.72224 0.87746 0.47777 0.0
C1810 C 0.70549 0.86867 0.50651 0.0
C1811 C 0.67539 0.85762 0.50652 0.0
C1812 C 0.6623 0.85355 0.47827 0.0
C1813 C 0.75415 0.88825 0.47669 0.0
C1814 C 0.65675 0.84893 0.53645 0.0
H1815 H 0.72125 0.827 0.5995 0.0
H1816 H 0.75413 0.91868 0.58658 0.0
H1817 H 0.68298 0.80779 0.53947 0.0
H1818 H 0.7167 0.8224 0.51733 0.0
H1819 H 0.71091 0.8023 0.55583 0.0
H1820 H 0.74268 0.94217 0.54515 0.0
H1821 H 0.74366 0.93013 0.50861 0.0
H1822 H 0.70983 0.91833 0.52897 0.0
H1823 H 0.72125 0.87923 0.42793 0.0
H1824 H 0.63905 0.84307 0.47845 0.0
H1825 H 0.75779 0.87092 0.4885 0.0
H1826 H 0.76531 0.90699 0.48938 0.0
H1827 H 0.76421 0.89479 0.45248 0.0
H1828 H 0.65509 0.82907 0.54967 0.0
H1829 H 0.63464 0.8445 0.53216 0.0
H1830 H 0.66651 0.86621 0.55132 0.0
C1831 C 0.10512 0.87038 0.57831 0.0
C1832 C 0.12259 0.87325 0.60293 0.0
C1833 C 0.10899 0.86058 0.55131 0.0
C1834 C 0.13243 0.85582 0.54776 0.0
C1835 C 0.15036 0.85891 0.57247 0.0
C1836 C 0.14466 0.86678 0.60005 0.0
C1837 C 0.08852 0.85631 0.52615 0.0
C1838 C 0.17675 0.85604 0.56904 0.0
C1839 C 0.12673 0.80777 0.48899 0.0
C1840 C 0.13949 0.82767 0.46147 0.0
C1841 C 0.12513 0.81678 0.51727 0.0
C1842 C 0.13735 0.8466 0.5186 0.0
C1843 C 0.15224 0.86709 0.49157 0.0
C1844 C 0.15285 0.85737 0.46312 0.0
C1845 C 0.10899 0.79418 0.5454 0.0
C1846 C 0.16667 0.89919 0.49246 0.0
H1847 H 0.08957 0.87741 0.57917 0.0
H1848 H 0.15903 0.87038 0.61855 0.0
H1849 H 0.09977 0.87338 0.50573 0.0
H1850 H 0.081 0.83508 0.51828 0.0
H1851 H 0.06942 0.85728 0.53419 0.0
H1852 H 0.18637 0.85562 0.59155 0.0
H1853 H 0.1717 0.83619 0.55926 0.0
H1854 H 0.19313 0.87476 0.55251 0.0
H1855 H 0.11682 0.78476 0.48832 0.0
H1856 H 0.16298 0.87295 0.44214 0.0
H1857 H 0.09061 0.7962 0.55365 0.0
H1858 H 0.12325 0.7976 0.56472 0.0
H1859 H 0.10058 0.77178 0.54039 0.0
H1860 H 0.15011 0.90569 0.49326 0.0
H1861 H 0.18187 0.91206 0.47165 0.0
H1862 H 0.17855 0.90469 0.51368 0.0
C1863 C 0.57649 0.80077 0.12587 0.0
C1864 C 0.59653 0.80903 0.10064 0.0
C1865 C 0.58544 0.80634 0.15567 0.0
C1866 C 0.6152 0.82039 0.16016 0.0
C1867 C 0.63562 0.82972 0.13438 0.0
C1868 C 0.62596 0.82377 0.10482 0.0
C1869 C 0.56305 0.79636 0.18246 0.0
C1870 C 0.66756 0.84519 0.13822 0.0
C1871 C 0.6412 0.85907 0.22973 0.0
C1872 C 0.64711 0.84018 0.24947 0.0
C1873 C 0.63037 0.85261 0.20092 0.0
C1874 C 0.62503 0.82638 0.19161 0.0
C1875 C 0.62974 0.80651 0.21196 0.0
C1876 C 0.64074 0.81364 0.24094 0.0
C1877 C 0.6257 0.87439 0.18001 0.0
C1878 C 0.62396 0.77822 0.20268 0.0
H1879 H 0.55376 0.78849 0.12249 0.0
H1880 H 0.64122 0.82938 0.08518 0.0
H1881 H 0.56483 0.7806 0.2001 0.0
H1882 H 0.56679 0.81497 0.19401 0.0
H1883 H 0.54081 0.78602 0.17487 0.0
H1884 H 0.68058 0.85179 0.11567 0.0
H1885 H 0.67389 0.86478 0.14917 0.0
H1886 H 0.67291 0.83087 0.15394 0.0
H1887 H 0.64578 0.8795 0.23659 0.0
H1888 H 0.64532 0.79911 0.25627 0.0
H1889 H 0.60338 0.86402 0.1728 0.0
H1890 H 0.6404 0.88257 0.15853 0.0
H1891 H 0.62966 0.89316 0.19147 0.0
H1892 H 0.60138 0.76575 0.19655 0.0
H1893 H 0.62776 0.76472 0.22149 0.0
H1894 H 0.63808 0.78248 0.18165 0.0
C1895 C 0.18875 0.82164 0.11198 0.0
C1896 C 0.21216 0.81744 0.10739 0.0
C1897 C 0.17926 0.82239 0.14172 0.0
C1898 C 0.19516 0.82165 0.16736 0.0
C1899 C 0.22086 0.82081 0.16223 0.0
C1900 C 0.22862 0.81787 0.1324 0.0
C1901 C 0.15129 0.82232 0.14583 0.0
C1902 C 0.23954 0.82195 0.18843 0.0
C1903 C 0.18089 0.85285 0.23397 0.0
C1904 C 0.16302 0.82818 0.25589 0.0
C1905 C 0.19251 0.85096 0.20614 0.0
C1906 C 0.18554 0.82358 0.19892 0.0
C1907 C 0.16764 0.79839 0.22076 0.0
C1908 C 0.15694 0.80101 0.2493 0.0
C1909 C 0.21215 0.87853 0.1843 0.0
C1910 C 0.15889 0.76866 0.21344 0.0
H1911 H 0.17597 0.82111 0.09256 0.0
H1912 H 0.24653 0.81432 0.129 0.0
H1913 H 0.13697 0.80498 0.16493 0.0
H1914 H 0.15554 0.84322 0.15233 0.0
H1915 H 0.13964 0.81892 0.12431 0.0
H1916 H 0.26051 0.82497 0.17987 0.0
H1917 H 0.24366 0.83991 0.20138 0.0
H1918 H 0.22827 0.80151 0.20509 0.0
H1919 H 0.1865 0.8742 0.23872 0.0
H1920 H 0.14345 0.78187 0.26602 0.0
H1921 H 0.20089 0.88018 0.16349 0.0
H1922 H 0.23167 0.8784 0.17618 0.0
H1923 H 0.21898 0.89815 0.19541 0.0
H1924 H 0.14369 0.76353 0.19487 0.0
H1925 H 0.14826 0.75167 0.23412 0.0
H1926 H 0.17783 0.76795 0.20448 0.0
C1927 C 0.23589 0.44936 0.11682 0.0
C1928 C 0.21499 0.43761 0.0957 0.0
C1929 C 0.23162 0.435 0.14735 0.0
C1930 C 0.20522 0.40917 0.15712 0.0
C1931 C 0.18432 0.39698 0.13566 0.0
C1932 C 0.18982 0.41103 0.105 0.0
C1933 C 0.25483 0.44804 0.16944 0.0
C1934 C 0.15551 0.37005 0.14548 0.0
C1935 C 0.20164 0.36073 0.22978 0.0
C1936 C 0.19084 0.36987 0.25256 0.0
C1937 C 0.20615 0.37315 0.1986 0.0
C1938 C 0.19924 0.39499 0.18989 0.0
C1939 C 0.18691 0.40336 0.21243 0.0
C1940 C 0.18288 0.39068 0.24377 0.0
C1941 C 0.21942 0.36375 0.17527 0.0
C1942 C 0.17925 0.4266 0.20371 0.0
H1943 H 0.25482 0.47034 0.11014 0.0
H1944 H 0.17364 0.40224 0.08853 0.0
H1945 H 0.24734 0.45601 0.18764 0.0
H1946 H 0.25938 0.43141 0.18138 0.0
H1947 H 0.27518 0.46638 0.15731 0.0
H1948 H 0.14187 0.36308 0.12566 0.0
H1949 H 0.15853 0.352 0.15619 0.0
H1950 H 0.14381 0.3742 0.16336 0.0
H1951 H 0.20762 0.34443 0.23659 0.0
H1952 H 0.1749 0.39801 0.26143 0.0
H1953 H 0.24028 0.38247 0.1648 0.0
H1954 H 0.20523 0.35604 0.15606 0.0
H1955 H 0.22324 0.34618 0.18594 0.0
H1956 H 0.1991 0.44815 0.20141 0.0
H1957 H 0.164 0.42569 0.2216 0.0
H1958 H 0.16945 0.42462 0.18108 0.0
C1959 C 0.79571 0.61599 0.93373 0.0
C1960 C 0.79534 0.59102 0.94824 0.0
C1961 C 0.80708 0.62788 0.90291 0.0
C1962 C 0.8204 0.61576 0.88689 0.0
C1963 C 0.82235 0.59208 0.90232 0.0
C1964 C 0.80888 0.57931 0.93242 0.0
C1965 C 0.80328 0.65229 0.88702 0.0
C1966 C 0.83798 0.57976 0.8867 0.0
C1967 C 0.81758 0.62505 0.7994 0.0
C1968 C 0.84282 0.65155 0.79021 0.0
C1969 C 0.81049 0.61254 0.83077 0.0
C1970 C 0.82981 0.62628 0.85324 0.0
C1971 C 0.85659 0.65171 0.84358 0.0
C1972 C 0.86244 0.66455 0.81218 0.0
C1973 C 0.78115 0.58616 0.8401 0.0
C1974 C 0.87827 0.66636 0.8666 0.0
H1975 H 0.78563 0.62529 0.94612 0.0
H1976 H 0.80816 0.55964 0.94287 0.0
H1977 H 0.82448 0.67142 0.8784 0.0
H1978 H 0.79057 0.64549 0.86653 0.0
H1979 H 0.79206 0.65892 0.90275 0.0
H1980 H 0.83979 0.56308 0.90284 0.0
H1981 H 0.82652 0.56985 0.86655 0.0
H1982 H 0.85994 0.59736 0.87761 0.0
H1983 H 0.80211 0.61548 0.78242 0.0
H1984 H 0.88173 0.68533 0.80504 0.0
H1985 H 0.76824 0.59182 0.85462 0.0
H1986 H 0.78316 0.56872 0.85432 0.0
H1987 H 0.76915 0.57756 0.81963 0.0
H1988 H 0.87157 0.67889 0.8793 0.0
H1989 H 0.90004 0.68153 0.85483 0.0
H1990 H 0.87955 0.65014 0.88405 0.0
C1991 C 0.42087 0.22467 0.90158 0.0
C1992 C 0.40446 0.20151 0.92529 0.0
C1993 C 0.41159 0.2251 0.87153 0.0
C1994 C 0.3861 0.2009 0.86438 0.0
C1995 C 0.37085 0.17619 0.88755 0.0
C1996 C 0.37979 0.17711 0.91806 0.0
C1997 C 0.42782 0.2524 0.84824 0.0
C1998 C 0.3446 0.14923 0.88038 0.0
C1999 C 0.34285 0.20918 0.79818 0.0
C2000 C 0.35409 0.2027 0.77332 0.0
C2001 C 0.35384 0.20982 0.82769 0.0
C2002 C 0.37526 0.20196 0.83287 0.0
C2003 C 0.38672 0.19557 0.80771 0.0
C2004 C 0.37666 0.19697 0.77814 0.0
C2005 C 0.34182 0.21797 0.85352 0.0
C2006 C 0.40824 0.1854 0.81242 0.0
H2007 H 0.43951 0.24375 0.90761 0.0
H2008 H 0.36681 0.15948 0.93656 0.0
H2009 H 0.43468 0.2477 0.82673 0.0
H2010 H 0.41344 0.26115 0.8416 0.0
H2011 H 0.44717 0.26937 0.85758 0.0
H2012 H 0.33648 0.13122 0.90023 0.0
H2013 H 0.32711 0.15389 0.87465 0.0
H2014 H 0.34975 0.14203 0.8597 0.0
H2015 H 0.32477 0.21265 0.79486 0.0
H2016 H 0.38484 0.19108 0.75934 0.0
H2017 H 0.3596 0.23446 0.86515 0.0
H2018 H 0.32895 0.19872 0.87136 0.0
H2019 H 0.32782 0.22665 0.84486 0.0
H2020 H 0.42815 0.20227 0.82092 0.0
H2021 H 0.41412 0.18004 0.7907 0.0
H2022 H 0.39917 0.16587 0.83046 0.0
C2023 C 0.77461 0.20344 0.91605 0.0
C2024 C 0.79305 0.20564 0.93948 0.0
C2025 C 0.77838 0.19592 0.88732 0.0
C2026 C 0.80193 0.19179 0.88152 0.0
C2027 C 0.82051 0.19384 0.90526 0.0
C2028 C 0.81537 0.2 0.93417 0.0
C2029 C 0.75772 0.19333 0.86284 0.0
C2030 C 0.8467 0.19106 0.8996 0.0
C2031 C 0.79762 0.14536 0.82149 0.0
C2032 C 0.81203 0.16571 0.79457 0.0
C2033 C 0.79404 0.15369 0.84949 0.0
C2034 C 0.80604 0.18334 0.85144 0.0
C2035 C 0.82168 0.20432 0.82492 0.0
C2036 C 0.82403 0.19523 0.79652 0.0
C2037 C 0.77674 0.13054 0.87686 0.0
C2038 C 0.83549 0.23629 0.82614 0.0
H2039 H 0.75829 0.20915 0.91945 0.0
H2040 H 0.83014 0.20265 0.95206 0.0
H2041 H 0.76929 0.21062 0.84267 0.0
H2042 H 0.74906 0.17223 0.85429 0.0
H2043 H 0.73941 0.19517 0.87177 0.0
H2044 H 0.85951 0.19415 0.92023 0.0
H2045 H 0.84018 0.16944 0.89338 0.0
H2046 H 0.86069 0.20743 0.87963 0.0
H2047 H 0.78806 0.12241 0.82065 0.0
H2048 H 0.83513 0.21114 0.77601 0.0
H2049 H 0.75886 0.13328 0.88525 0.0
H2050 H 0.79054 0.13262 0.8964 0.0
H2051 H 0.76751 0.10833 0.87098 0.0
H2052 H 0.81981 0.24344 0.81986 0.0
H2053 H 0.85469 0.24888 0.80925 0.0
H2054 H 0.84216 0.24153 0.84968 0.0
C2055 C 0.29022 0.16627 0.43152 0.0
C2056 C 0.26109 0.14768 0.42808 0.0
C2057 C 0.29996 0.17224 0.46111 0.0
C2058 C 0.28006 0.15882 0.48775 0.0
C2059 C 0.25038 0.14117 0.48404 0.0
C2060 C 0.24127 0.13599 0.45416 0.0
C2061 C 0.33168 0.19181 0.46402 0.0
C2062 C 0.22845 0.12648 0.51171 0.0
C2063 C 0.31211 0.1511 0.5642 0.0
C2064 C 0.31494 0.17484 0.57683 0.0
C2065 C 0.29982 0.14495 0.53556 0.0
C2066 C 0.29039 0.1631 0.51946 0.0
C2067 C 0.29209 0.18626 0.53304 0.0
C2068 C 0.3043 0.19179 0.56151 0.0
C2069 C 0.2979 0.11976 0.52194 0.0
C2070 C 0.28248 0.20623 0.51679 0.0
H2071 H 0.30546 0.1748 0.41124 0.0
H2072 H 0.21886 0.12108 0.45126 0.0
H2073 H 0.33501 0.20906 0.47774 0.0
H2074 H 0.34061 0.17916 0.47671 0.0
H2075 H 0.34399 0.20212 0.44099 0.0
H2076 H 0.20612 0.11417 0.50471 0.0
H2077 H 0.23317 0.11132 0.52683 0.0
H2078 H 0.22974 0.14271 0.52587 0.0
H2079 H 0.32045 0.13811 0.57603 0.0
H2080 H 0.30655 0.21023 0.57134 0.0
H2081 H 0.31271 0.12793 0.50055 0.0
H2082 H 0.2758 0.10593 0.51513 0.0
H2083 H 0.30365 0.10624 0.5385 0.0
H2084 H 0.29746 0.21953 0.49598 0.0
H2085 H 0.28208 0.22101 0.53212 0.0
H2086 H 0.26072 0.19366 0.5086 0.0
C2087 C 0.86029 0.11881 0.46297 0.0
C2088 C 0.87759 0.14333 0.44084 0.0
C2089 C 0.85221 0.12135 0.49249 0.0
C2090 C 0.86475 0.14893 0.50192 0.0
C2091 C 0.8858 0.17347 0.48135 0.0
C2092 C 0.89116 0.17059 0.45051 0.0
C2093 C 0.82884 0.09465 0.51268 0.0
C2094 C 0.90234 0.20268 0.49188 0.0
C2095 C 0.82386 0.16313 0.56259 0.0
C2096 C 0.83358 0.15615 0.59045 0.0
C2097 C 0.83349 0.16044 0.53376 0.0
C2098 C 0.85452 0.15192 0.53256 0.0
C2099 C 0.86417 0.14454 0.5608 0.0
C2100 C 0.85307 0.14613 0.58939 0.0
C2101 C 0.82141 0.16718 0.50458 0.0
C2102 C 0.88684 0.13578 0.56127 0.0
H2103 H 0.85082 0.09754 0.45601 0.0
H2104 H 0.90513 0.18959 0.43392 0.0
H2105 H 0.8381 0.08879 0.53316 0.0
H2106 H 0.81206 0.09888 0.52136 0.0
H2107 H 0.81832 0.07579 0.49996 0.0
H2108 H 0.91977 0.21889 0.47423 0.0
H2109 H 0.88767 0.21083 0.49667 0.0
H2110 H 0.91199 0.20064 0.51394 0.0
H2111 H 0.80945 0.17172 0.56331 0.0
H2112 H 0.86143 0.14171 0.61081 0.0
H2113 H 0.81396 0.14931 0.49051 0.0
H2114 H 0.83839 0.18711 0.49006 0.0
H2115 H 0.80312 0.17049 0.50984 0.0
H2116 H 0.87616 0.11182 0.56535 0.0
H2117 H 0.90076 0.14375 0.58069 0.0
H2118 H 0.90075 0.14405 0.5392 0.0
C2119 C 0.89852 0.78238 0.45048 0.0
C2120 C 0.87675 0.77257 0.42995 0.0
C2121 C 0.8934 0.76813 0.48126 0.0
C2122 C 0.86555 0.74463 0.49176 0.0
C2123 C 0.84364 0.73478 0.47099 0.0
C2124 C 0.84994 0.7481 0.44006 0.0
C2125 C 0.91747 0.77848 0.50269 0.0
C2126 C 0.81326 0.71088 0.48165 0.0
C2127 C 0.85321 0.68702 0.55852 0.0
C2128 C 0.84694 0.69705 0.58414 0.0
C2129 C 0.8606 0.7031 0.52885 0.0
C2130 C 0.85946 0.72885 0.52383 0.0
C2131 C 0.85108 0.73823 0.54893 0.0
C2132 C 0.84546 0.72246 0.5791 0.0
C2133 C 0.87061 0.69294 0.5031 0.0
C2134 C 0.84875 0.76519 0.54459 0.0
H2135 H 0.91905 0.80158 0.44294 0.0
H2136 H 0.83325 0.74048 0.42396 0.0
H2137 H 0.91191 0.78677 0.5221 0.0
H2138 H 0.92024 0.76015 0.51305 0.0
H2139 H 0.93827 0.79591 0.49044 0.0
H2140 H 0.79814 0.70795 0.46325 0.0
H2141 H 0.81278 0.69011 0.48856 0.0
H2142 H 0.8054 0.71579 0.5024 0.0
H2143 H 0.85407 0.66718 0.5619 0.0
H2144 H 0.84086 0.73054 0.59865 0.0
H2145 H 0.89151 0.71079 0.49156 0.0
H2146 H 0.85486 0.68655 0.48513 0.0
H2147 H 0.87329 0.67415 0.51179 0.0
H2148 H 0.86731 0.78256 0.55448 0.0
H2149 H 0.82882 0.76088 0.55748 0.0
H2150 H 0.84832 0.77322 0.5199 0.0
loop_
_geom_bond_atom_site_label_1
_geom_bond_atom_site_label_2
_geom_bond_distance
_geom_bond_site_symmetry_2
_ccdc_geom_bond_type
C0 N1 1.317 . S
C0 N2 1.348 . S
C0 C3 1.485 . S
N1 C0 1.317 . S
N1 N5 1.370 . S
N2 C0 1.348 . S
N2 C4 1.346 . S
C3 C0 1.485 . S
C3 H7 0.960 . S
C3 H8 0.961 . S
C3 H9 0.960 . S
C4 N2 1.346 . S
C4 N5 1.307 . S
C4 C6 1.486 . S
N5 N1 1.370 . S
N5 C4 1.307 . S
C6 C4 1.486 . S
C6 H10 0.960 . S
C6 H11 0.960 . S
C6 H12 0.959 . S
H7 C3 0.960 . S
H8 C3 0.961 . S
H9 C3 0.960 . S
H10 C6 0.960 . S
H11 C6 0.960 . S
H12 C6 0.959 . S
C13 N14 1.317 . S
C13 N15 1.348 . S
C13 C16 1.485 . S
N14 C13 1.317 . S
N14 N18 1.370 . S
N15 C13 1.348 . S
N15 C17 1.346 . S
C16 C13 1.485 . S
C16 H20 0.960 . S
C16 H21 0.961 . S
C16 H22 0.960 . S
C17 N15 1.346 . S
C17 N18 1.307 . S
C17 C19 1.486 . S
N18 N14 1.370 . S
N18 C17 1.307 . S
C19 C17 1.486 . S
C19 H23 0.960 . S
C19 H24 0.960 . S
C19 H25 0.959 . S
H20 C16 0.960 . S
H21 C16 0.961 . S
H22 C16 0.960 . S
H23 C19 0.960 . S
H24 C19 0.960 . S
H25 C19 0.959 . S
C26 N27 1.317 . S
C26 N28 1.348 . S
C26 C29 1.485 . S
N27 C26 1.317 . S
N27 N31 1.370 . S
N28 C26 1.348 . S
N28 C30 1.346 . S
C29 C26 1.485 . S
C29 H33 0.960 . S
C29 H34 0.961 . S
C29 H35 0.960 . S
C30 N28 1.346 . S
C30 N31 1.307 . S
C30 C32 1.486 . S
N31 N27 1.370 . S
N31 C30 1.307 . S
C32 C30 1.486 . S
C32 H36 0.960 . S
C32 H37 0.960 . S
C32 H38 0.959 . S
H33 C29 0.960 . S
H34 C29 0.961 . S
H35 C29 0.960 . S
H36 C32 0.960 . S
H37 C32 0.960 . S
H38 C32 0.959 . S
C39 N40 1.317 . S
C39 N41 1.348 . S
C39 C42 1.485 . S
N40 C39 1.317 . S
N40 N44 1.370 . S
N41 C39 1.348 . S
N41 C43 1.346 . S
C42 C39 1.485 . S
C42 H46 0.960 . S
C42 H47 0.961 . S
C42 H48 0.960 . S
C43 N41 1.346 . S
C43 N44 1.307 . S
C43 C45 1.486 . S
N44 N40 1.370 . S
N44 C43 1.307 . S
C45 C43 1.486 . S
C45 H49 0.960 . S
C45 H50 0.960 . S
C45 H51 0.959 . S
H46 C42 0.960 . S
H47 C42 0.961 . S
H48 C42 0.960 . S
H49 C45 0.960 . S
H50 C45 0.960 . S
H51 C45 0.959 . S
C52 N53 1.317 . S
C52 N54 1.348 . S
C52 C55 1.485 . S
N53 C52 1.317 . S
N53 N57 1.370 . S
N54 C52 1.348 . S
N54 C56 1.346 . S
C55 C52 1.485 . S
C55 H59 0.960 . S
C55 H60 0.961 . S
C55 H61 0.960 . S
C56 N54 1.346 . S
C56 N57 1.307 . S
C56 C58 1.486 . S
N57 N53 1.370 . S
N57 C56 1.307 . S
C58 C56 1.486 . S
C58 H62 0.960 . S
C58 H63 0.960 . S
C58 H64 0.959 . S
H59 C55 0.960 . S
H60 C55 0.961 . S
H61 C55 0.960 . S
H62 C58 0.960 . S
H63 C58 0.960 . S
H64 C58 0.959 . S
C65 N66 1.317 . S
C65 N67 1.348 . S
C65 C68 1.485 . S
N66 C65 1.317 . S
N66 N70 1.370 . S
N67 C65 1.348 . S
N67 C69 1.346 . S
C68 C65 1.485 . S
C68 H72 0.960 . S
C68 H73 0.961 . S
C68 H74 0.960 . S
C69 N67 1.346 . S
C69 N70 1.307 . S
C69 C71 1.486 . S
N70 N66 1.370 . S
N70 C69 1.307 . S
C71 C69 1.486 . S
C71 H75 0.960 . S
C71 H76 0.960 . S
C71 H77 0.959 . S
H72 C68 0.960 . S
H73 C68 0.961 . S
H74 C68 0.960 . S
H75 C71 0.960 . S
H76 C71 0.960 . S
H77 C71 0.959 . S
C78 N79 1.317 . S
C78 N80 1.348 . S
C78 C81 1.485 . S
N79 C78 1.317 . S
N79 N83 1.370 . S
N80 C78 1.348 . S
N80 C82 1.346 . S
C81 C78 1.485 . S
C81 H85 0.960 . S
C81 H86 0.961 . S
C81 H87 0.960 . S
C82 N80 1.346 . S
C82 N83 1.307 . S
C82 C84 1.486 . S
N83 N79 1.370 . S
N83 C82 1.307 . S
C84 C82 1.486 . S
C84 H88 0.960 . S
C84 H89 0.960 . S
C84 H90 0.959 . S
H85 C81 0.960 . S
H86 C81 0.961 . S
H87 C81 0.960 . S
H88 C84 0.960 . S
H89 C84 0.960 . S
H90 C84 0.959 . S
C91 N92 1.317 . S
C91 N93 1.348 . S
C91 C94 1.485 . S
N92 C91 1.317 . S
N92 N96 1.370 . S
N93 C91 1.348 . S
N93 C95 1.346 . S
C94 C91 1.485 . S
C94 H98 0.960 . S
C94 H99 0.961 . S
C94 H100 0.960 . S
C95 N93 1.346 . S
C95 N96 1.307 . S
C95 C97 1.486 . S
N96 N92 1.370 . S
N96 C95 1.307 . S
C97 C95 1.486 . S
C97 H101 0.960 . S
C97 H102 0.960 . S
C97 H103 0.959 . S
H98 C94 0.960 . S
H99 C94 0.961 . S
H100 C94 0.960 . S
H101 C97 0.960 . S
H102 C97 0.960 . S
H103 C97 0.959 . S
C104 N105 1.317 . S
C104 N106 1.348 . S
C104 C107 1.485 . S
N105 C104 1.317 . S
N105 N109 1.370 . S
N106 C104 1.348 . S
N106 C108 1.346 . S
C107 C104 1.485 . S
C107 H111 0.960 . S
C107 H112 0.961 . S
C107 H113 0.960 . S
C108 N106 1.346 . S
C108 N109 1.307 . S
C108 C110 1.486 . S
N109 N105 1.370 . S
N109 C108 1.307 . S
C110 C108 1.486 . S
C110 H114 0.960 . S
C110 H115 0.960 . S
C110 H116 0.959 . S
H111 C107 0.960 . S
H112 C107 0.961 . S
H113 C107 0.960 . S
H114 C110 0.960 . S
H115 C110 0.960 . S
H116 C110 0.959 . S
C117 N118 1.317 1_554 S
C117 N119 1.348 . S
C117 C120 1.485 . S
N118 C117 1.317 1_556 S
N118 N122 1.370 . S
N119 C117 1.348 . S
N119 C121 1.346 1_554 S
C120 C117 1.485 . S
C120 H124 0.960 . S
C120 H125 0.961 . S
C120 H126 0.960 . S
C121 N119 1.346 1_556 S
C121 N122 1.307 . S
C121 C123 1.486 . S
N122 N118 1.370 . S
N122 C121 1.307 . S
C123 C121 1.486 . S
C123 H127 0.960 . S
C123 H128 0.960 . S
C123 H129 0.959 . S
H124 C120 0.960 . S
H125 C120 0.961 . S
H126 C120 0.960 . S
H127 C123 0.960 . S
H128 C123 0.960 . S
H129 C123 0.959 . S
C130 N131 1.317 1_554 S
C130 N132 1.348 . S
C130 C133 1.485 . S
N131 C130 1.317 1_556 S
N131 N135 1.370 . S
N132 C130 1.348 . S
N132 C134 1.346 1_554 S
C133 C130 1.485 . S
C133 H137 0.960 . S
C133 H138 0.961 . S
C133 H139 0.960 . S
C134 N132 1.346 1_556 S
C134 N135 1.307 . S
C134 C136 1.486 . S
N135 N131 1.370 . S
N135 C134 1.307 . S
C136 C134 1.486 . S
C136 H140 0.960 . S
C136 H141 0.960 . S
C136 H142 0.959 . S
H137 C133 0.960 . S
H138 C133 0.961 . S
H139 C133 0.960 . S
H140 C136 0.960 . S
H141 C136 0.960 . S
H142 C136 0.959 . S
C143 N144 1.317 1_554 S
C143 N145 1.348 . S
C143 C146 1.485 . S
N144 C143 1.317 1_556 S
N144 N148 1.370 . S
N145 C143 1.348 . S
N145 C147 1.346 1_554 S
C146 C143 1.485 . S
C146 H150 0.960 . S
C146 H151 0.961 . S
C146 H152 0.960 . S
C147 N145 1.346 1_556 S
C147 N148 1.307 . S
C147 C149 1.486 . S
N148 N144 1.370 . S
N148 C147 1.307 . S
C149 C147 1.486 . S
C149 H153 0.960 . S
C149 H154 0.960 . S
C149 H155 0.959 . S
H150 C146 0.960 . S
H151 C146 0.961 . S
H152 C146 0.960 . S
H153 C149 0.960 . S
H154 C149 0.960 . S
H155 C149 0.959 . S
C156 N157 1.317 . S
C156 N158 1.348 . S
C156 C159 1.485 1_554 S
N157 C156 1.317 . S
N157 N161 1.370 . S
N158 C156 1.348 . S
N158 C160 1.346 . S
C159 C156 1.485 1_556 S
C159 H163 0.960 . S
C159 H164 0.961 . S
C159 H165 0.960 . S
C160 N158 1.346 . S
C160 N161 1.307 . S
C160 C162 1.486 . S
N161 N157 1.370 . S
N161 C160 1.307 . S
C162 C160 1.486 . S
C162 H166 0.960 . S
C162 H167 0.960 . S
C162 H168 0.959 . S
H163 C159 0.960 . S
H164 C159 0.961 . S
H165 C159 0.960 . S
H166 C162 0.960 . S
H167 C162 0.960 . S
H168 C162 0.959 . S
C169 N170 1.317 . S
C169 N171 1.348 . S
C169 C172 1.485 1_554 S
N170 C169 1.317 . S
N170 N174 1.370 . S
N171 C169 1.348 . S
N171 C173 1.346 . S
C172 C169 1.485 1_556 S
C172 H176 0.960 . S
C172 H177 0.961 . S
C172 H178 0.960 . S
C173 N171 1.346 . S
C173 N174 1.307 . S
C173 C175 1.486 . S
N174 N170 1.370 . S
N174 C173 1.307 . S
C175 C173 1.486 . S
C175 H179 0.960 . S
C175 H180 0.960 . S
C175 H181 0.959 . S
H176 C172 0.960 . S
H177 C172 0.961 . S
H178 C172 0.960 . S
H179 C175 0.960 . S
H180 C175 0.960 . S
H181 C175 0.959 . S
C182 N183 1.317 . S
C182 N184 1.348 . S
C182 C185 1.485 1_554 S
N183 C182 1.317 . S
N183 N187 1.370 . S
N184 C182 1.348 . S
N184 C186 1.346 . S
C185 C182 1.485 1_556 S
C185 H189 0.960 . S
C185 H190 0.961 . S
C185 H191 0.960 . S
C186 N184 1.346 . S
C186 N187 1.307 . S
C186 C188 1.486 . S
N187 N183 1.370 . S
N187 C186 1.307 . S
C188 C186 1.486 . S
C188 H192 0.960 . S
C188 H193 0.960 . S
C188 H194 0.959 . S
H189 C185 0.960 . S
H190 C185 0.961 . S
H191 C185 0.960 . S
H192 C188 0.960 . S
H193 C188 0.960 . S
H194 C188 0.959 . S
C195 N196 1.317 . S
C195 N197 1.348 . S
C195 C198 1.485 . S
N196 C195 1.317 . S
N196 N200 1.370 . S
N197 C195 1.348 . S
N197 C199 1.346 . S
C198 C195 1.485 . S
C198 H202 0.960 . S
C198 H203 0.961 . S
C198 H204 0.960 . S
C199 N197 1.346 . S
C199 N200 1.307 . S
C199 C201 1.486 . S
N200 N196 1.370 . S
N200 C199 1.307 . S
C201 C199 1.486 . S
C201 H205 0.960 . S
C201 H206 0.960 . S
C201 H207 0.959 . S
H202 C198 0.960 . S
H203 C198 0.961 . S
H204 C198 0.960 . S
H205 C201 0.960 . S
H206 C201 0.960 . S
H207 C201 0.959 . S
C208 N209 1.317 . S
C208 N210 1.348 . S
C208 C211 1.485 . S
N209 C208 1.317 . S
N209 N213 1.370 . S
N210 C208 1.348 . S
N210 C212 1.346 . S
C211 C208 1.485 . S
C211 H215 0.960 . S
C211 H216 0.961 . S
C211 H217 0.960 . S
C212 N210 1.346 . S
C212 N213 1.307 . S
C212 C214 1.486 . S
N213 N209 1.370 . S
N213 C212 1.307 . S
C214 C212 1.486 . S
C214 H218 0.960 . S
C214 H219 0.960 . S
C214 H220 0.959 . S
H215 C211 0.960 . S
H216 C211 0.961 . S
H217 C211 0.960 . S
H218 C214 0.960 . S
H219 C214 0.960 . S
H220 C214 0.959 . S
C221 N222 1.317 . S
C221 N223 1.348 . S
C221 C224 1.485 . S
N222 C221 1.317 . S
N222 N226 1.370 . S
N223 C221 1.348 . S
N223 C225 1.346 . S
C224 C221 1.485 . S
C224 H228 0.960 . S
C224 H229 0.961 . S
C224 H230 0.960 . S
C225 N223 1.346 . S
C225 N226 1.307 . S
C225 C227 1.486 . S
N226 N222 1.370 . S
N226 C225 1.307 . S
C227 C225 1.486 . S
C227 H231 0.960 . S
C227 H232 0.960 . S
C227 H233 0.959 . S
H228 C224 0.960 . S
H229 C224 0.961 . S
H230 C224 0.960 . S
H231 C227 0.960 . S
H232 C227 0.960 . S
H233 C227 0.959 . S
O234 Mn235 2.163 1_565 S
O234 C248 1.244 . S
Mn235 O234 2.163 1_545 S
Mn235 O238 2.160 . S
Mn235 O239 2.221 1_545 S
Mn235 O241 2.163 1_554 S
Mn235 O243 2.160 1_545 S
Mn235 O253 2.221 . S
O236 Mn237 2.087 1_565 S
O236 C248 1.256 . S
Mn237 O236 2.087 1_545 S
Mn237 O244 2.089 1_545 S
Mn237 O253 2.290 . S
Mn237 O254 2.251 . S
O238 Mn235 2.160 . S
O238 C249 1.239 . S
O239 Mn235 2.221 1_565 S
O239 Mn240 2.290 1_564 S
O239 C250 1.278 . S
Mn240 O239 2.290 1_546 S
Mn240 O242 2.089 . S
Mn240 O245 2.251 1_545 S
Mn240 O246 2.087 . S
O241 Mn235 2.163 1_556 S
O241 C251 1.244 . S
O242 Mn240 2.089 . S
O242 C249 1.256 1_556 S
O243 Mn235 2.160 1_565 S
O243 C252 1.239 . S
O244 Mn237 2.089 1_565 S
O244 C252 1.256 . S
O245 Mn240 2.251 1_565 S
O245 C250 1.241 1_556 S
O246 Mn240 2.087 . S
O246 C251 1.256 . S
C247 O253 1.278 . S
C247 O254 1.241 . S
C248 O234 1.244 . S
C248 O236 1.256 . S
C249 O238 1.239 . S
C249 O242 1.256 1_554 S
C250 O239 1.278 . S
C250 O245 1.241 1_554 S
C251 O241 1.244 . S
C251 O246 1.256 . S
C252 O243 1.239 . S
C252 O244 1.256 . S
O253 Mn235 2.221 . S
O253 Mn237 2.290 . S
O253 C247 1.278 . S
O254 Mn237 2.251 . S
O254 C247 1.241 . S
O255 Mn256 2.163 . S
O255 C269 1.244 . S
Mn256 O255 2.163 . S
Mn256 O259 2.160 1_455 S
Mn256 O260 2.221 1_554 S
Mn256 O262 2.163 1_454 S
Mn256 O264 2.160 . S
Mn256 O274 2.221 1_455 S
O257 Mn258 2.087 . S
O257 C269 1.256 . S
Mn258 O257 2.087 . S
Mn258 O265 2.089 . S
Mn258 O274 2.290 1_455 S
Mn258 O275 2.251 1_455 S
O259 Mn256 2.160 1_655 S
O259 C270 1.239 1_554 S
O260 Mn256 2.221 1_556 S
O260 Mn261 2.290 . S
O260 C271 1.278 . S
Mn261 O260 2.290 . S
Mn261 O263 2.089 1_455 S
Mn261 O266 2.251 . S
Mn261 O267 2.087 . S
O262 Mn256 2.163 1_656 S
O262 C272 1.244 . S
O263 Mn261 2.089 1_655 S
O263 C270 1.256 . S
O264 Mn256 2.160 . S
O264 C273 1.239 . S
O265 Mn258 2.089 . S
O265 C273 1.256 . S
O266 Mn261 2.251 . S
O266 C271 1.241 . S
O267 Mn261 2.087 . S
O267 C272 1.256 1_455 S
C268 O274 1.278 . S
C268 O275 1.241 . S
C269 O255 1.244 . S
C269 O257 1.256 . S
C270 O259 1.239 1_556 S
C270 O263 1.256 . S
C271 O260 1.278 . S
C271 O266 1.241 . S
C272 O262 1.244 . S
C272 O267 1.256 1_655 S
C273 O264 1.239 . S
C273 O265 1.256 . S
O274 Mn256 2.221 1_655 S
O274 Mn258 2.290 1_655 S
O274 C268 1.278 . S
O275 Mn258 2.251 1_655 S
O275 C268 1.241 . S
O276 Mn277 2.163 . S
O276 C290 1.244 . S
Mn277 O276 2.163 . S
Mn277 O280 2.160 . S
Mn277 O281 2.221 . S
Mn277 O283 2.163 . S
Mn277 O285 2.160 1_554 S
Mn277 O295 2.221 . S
O278 Mn279 2.087 1_554 S
O278 C290 1.256 . S
Mn279 O278 2.087 1_556 S
Mn279 O286 2.089 . S
Mn279 O295 2.290 1_556 S
Mn279 O296 2.251 1_556 S
O280 Mn277 2.160 . S
O280 C291 1.239 . S
O281 Mn277 2.221 . S
O281 Mn282 2.290 . S
O281 C292 1.278 . S
Mn282 O281 2.290 . S
Mn282 O284 2.089 . S
Mn282 O287 2.251 . S
Mn282 O288 2.087 . S
O283 Mn277 2.163 . S
O283 C293 1.244 . S
O284 Mn282 2.089 . S
O284 C291 1.256 . S
O285 Mn277 2.160 1_556 S
O285 C294 1.239 . S
O286 Mn279 2.089 . S
O286 C294 1.256 . S
O287 Mn282 2.251 . S
O287 C292 1.241 . S
O288 Mn282 2.087 . S
O288 C293 1.256 . S
C289 O295 1.278 . S
C289 O296 1.241 . S
C290 O276 1.244 . S
C290 O278 1.256 . S
C291 O280 1.239 . S
C291 O284 1.256 . S
C292 O281 1.278 . S
C292 O287 1.241 . S
C293 O283 1.244 . S
C293 O288 1.256 . S
C294 O285 1.239 . S
C294 O286 1.256 . S
O295 Mn277 2.221 . S
O295 Mn279 2.290 1_554 S
O295 C289 1.278 . S
O296 Mn279 2.251 1_554 S
O296 C289 1.241 . S
O297 Mn298 2.163 . S
O297 C311 1.244 . S
Mn298 O297 2.163 . S
Mn298 O301 2.160 . S
Mn298 O302 2.221 . S
Mn298 O304 2.163 . S
Mn298 O306 2.160 . S
Mn298 O316 2.221 . S
O299 Mn300 2.087 . S
O299 C311 1.256 . S
Mn300 O299 2.087 . S
Mn300 O307 2.089 . S
Mn300 O316 2.290 . S
Mn300 O317 2.251 . S
O301 Mn298 2.160 . S
O301 C312 1.239 . S
O302 Mn298 2.221 . S
O302 Mn303 2.290 . S
O302 C313 1.278 . S
Mn303 O302 2.290 . S
Mn303 O305 2.089 . S
Mn303 O308 2.251 . S
Mn303 O309 2.087 . S
O304 Mn298 2.163 . S
O304 C314 1.244 . S
O305 Mn303 2.089 . S
O305 C312 1.256 . S
O306 Mn298 2.160 . S
O306 C315 1.239 . S
O307 Mn300 2.089 . S
O307 C315 1.256 . S
O308 Mn303 2.251 . S
O308 C313 1.241 . S
O309 Mn303 2.087 . S
O309 C314 1.256 . S
C310 O316 1.278 . S
C310 O317 1.241 . S
C311 O297 1.244 . S
C311 O299 1.256 . S
C312 O301 1.239 . S
C312 O305 1.256 . S
C313 O302 1.278 . S
C313 O308 1.241 . S
C314 O304 1.244 . S
C314 O309 1.256 . S
C315 O306 1.239 . S
C315 O307 1.256 . S
O316 Mn298 2.221 . S
O316 Mn300 2.290 . S
O316 C310 1.278 . S
O317 Mn300 2.251 . S
O317 C310 1.241 . S
O318 Mn319 2.163 . S
O318 C332 1.244 . S
Mn319 O318 2.163 . S
Mn319 O322 2.160 . S
Mn319 O323 2.221 . S
Mn319 O325 2.163 . S
Mn319 O327 2.160 . S
Mn319 O337 2.221 . S
O320 Mn321 2.087 . S
O320 C332 1.256 . S
Mn321 O320 2.087 . S
Mn321 O328 2.089 . S
Mn321 O337 2.290 . S
Mn321 O338 2.251 . S
O322 Mn319 2.160 . S
O322 C333 1.239 . S
O323 Mn319 2.221 . S
O323 Mn324 2.290 . S
O323 C334 1.278 . S
Mn324 O323 2.290 . S
Mn324 O326 2.089 . S
Mn324 O329 2.251 . S
Mn324 O330 2.087 . S
O325 Mn319 2.163 . S
O325 C335 1.244 . S
O326 Mn324 2.089 . S
O326 C333 1.256 . S
O327 Mn319 2.160 . S
O327 C336 1.239 . S
O328 Mn321 2.089 . S
O328 C336 1.256 . S
O329 Mn324 2.251 . S
O329 C334 1.241 . S
O330 Mn324 2.087 . S
O330 C335 1.256 . S
C331 O337 1.278 . S
C331 O338 1.241 . S
C332 O318 1.244 . S
C332 O320 1.256 . S
C333 O322 1.239 . S
C333 O326 1.256 . S
C334 O323 1.278 . S
C334 O329 1.241 . S
C335 O325 1.244 . S
C335 O330 1.256 . S
C336 O327 1.239 . S
C336 O328 1.256 . S
O337 Mn319 2.221 . S
O337 Mn321 2.290 . S
O337 C331 1.278 . S
O338 Mn321 2.251 . S
O338 C331 1.241 . S
O339 Mn340 2.163 . S
O339 C353 1.244 . S
Mn340 O339 2.163 . S
Mn340 O343 2.160 . S
Mn340 O344 2.221 . S
Mn340 O346 2.163 . S
Mn340 O348 2.160 . S
Mn340 O358 2.221 . S
O341 Mn342 2.087 . S
O341 C353 1.256 . S
Mn342 O341 2.087 . S
Mn342 O349 2.089 . S
Mn342 O358 2.290 . S
Mn342 O359 2.251 . S
O343 Mn340 2.160 . S
O343 C354 1.239 . S
O344 Mn340 2.221 . S
O344 Mn345 2.290 . S
O344 C355 1.278 . S
Mn345 O344 2.290 . S
Mn345 O347 2.089 . S
Mn345 O350 2.251 . S
Mn345 O351 2.087 . S
O346 Mn340 2.163 . S
O346 C356 1.244 . S
O347 Mn345 2.089 . S
O347 C354 1.256 . S
O348 Mn340 2.160 . S
O348 C357 1.239 . S
O349 Mn342 2.089 . S
O349 C357 1.256 . S
O350 Mn345 2.251 . S
O350 C355 1.241 . S
O351 Mn345 2.087 . S
O351 C356 1.256 . S
C352 O358 1.278 . S
C352 O359 1.241 . S
C353 O339 1.244 . S
C353 O341 1.256 . S
C354 O343 1.239 . S
C354 O347 1.256 . S
C355 O344 1.278 . S
C355 O350 1.241 . S
C356 O346 1.244 . S
C356 O351 1.256 . S
C357 O348 1.239 . S
C357 O349 1.256 . S
O358 Mn340 2.221 . S
O358 Mn342 2.290 . S
O358 C352 1.278 . S
O359 Mn342 2.251 . S
O359 C352 1.241 . S
O360 Mn361 2.163 . S
O360 C374 1.244 . S
Mn361 O360 2.163 . S
Mn361 O364 2.160 . S
Mn361 O365 2.221 . S
Mn361 O367 2.163 . S
Mn361 O369 2.160 . S
Mn361 O379 2.221 . S
O362 Mn363 2.087 . S
O362 C374 1.256 . S
Mn363 O362 2.087 . S
Mn363 O370 2.089 . S
Mn363 O379 2.290 . S
Mn363 O380 2.251 . S
O364 Mn361 2.160 . S
O364 C375 1.239 . S
O365 Mn361 2.221 . S
O365 Mn366 2.290 . S
O365 C376 1.278 . S
Mn366 O365 2.290 . S
Mn366 O368 2.089 . S
Mn366 O371 2.251 . S
Mn366 O372 2.087 . S
O367 Mn361 2.163 . S
O367 C377 1.244 . S
O368 Mn366 2.089 . S
O368 C375 1.256 . S
O369 Mn361 2.160 . S
O369 C378 1.239 . S
O370 Mn363 2.089 . S
O370 C378 1.256 . S
O371 Mn366 2.251 . S
O371 C376 1.241 . S
O372 Mn366 2.087 . S
O372 C377 1.256 . S
C373 O379 1.278 . S
C373 O380 1.241 . S
C374 O360 1.244 . S
C374 O362 1.256 . S
C375 O364 1.239 . S
C375 O368 1.256 . S
C376 O365 1.278 . S
C376 O371 1.241 . S
C377 O367 1.244 . S
C377 O372 1.256 . S
C378 O369 1.239 . S
C378 O370 1.256 . S
O379 Mn361 2.221 . S
O379 Mn363 2.290 . S
O379 C373 1.278 . S
O380 Mn363 2.251 . S
O380 C373 1.241 . S
O381 Mn382 2.163 . S
O381 C395 1.244 . S
Mn382 O381 2.163 . S
Mn382 O385 2.160 . S
Mn382 O386 2.221 . S
Mn382 O388 2.163 . S
Mn382 O390 2.160 . S
Mn382 O400 2.221 . S
O383 Mn384 2.087 . S
O383 C395 1.256 . S
Mn384 O383 2.087 . S
Mn384 O391 2.089 . S
Mn384 O400 2.290 . S
Mn384 O401 2.251 . S
O385 Mn382 2.160 . S
O385 C396 1.239 . S
O386 Mn382 2.221 . S
O386 Mn387 2.290 . S
O386 C397 1.278 . S
Mn387 O386 2.290 . S
Mn387 O389 2.089 . S
Mn387 O392 2.251 . S
Mn387 O393 2.087 . S
O388 Mn382 2.163 . S
O388 C398 1.244 . S
O389 Mn387 2.089 . S
O389 C396 1.256 . S
O390 Mn382 2.160 . S
O390 C399 1.239 . S
O391 Mn384 2.089 . S
O391 C399 1.256 . S
O392 Mn387 2.251 . S
O392 C397 1.241 . S
O393 Mn387 2.087 . S
O393 C398 1.256 . S
C394 O400 1.278 . S
C394 O401 1.241 . S
C395 O381 1.244 . S
C395 O383 1.256 . S
C396 O385 1.239 . S
C396 O389 1.256 . S
C397 O386 1.278 . S
C397 O392 1.241 . S
C398 O388 1.244 . S
C398 O393 1.256 . S
C399 O390 1.239 . S
C399 O391 1.256 . S
O400 Mn382 2.221 . S
O400 Mn384 2.290 . S
O400 C394 1.278 . S
O401 Mn384 2.251 . S
O401 C394 1.241 . S
O402 Mn403 2.163 . S
O402 C416 1.244 . S
Mn403 O402 2.163 . S
Mn403 O406 2.160 . S
Mn403 O407 2.221 . S
Mn403 O409 2.163 . S
Mn403 O411 2.160 . S
Mn403 O421 2.221 . S
O404 Mn405 2.087 . S
O404 C416 1.256 . S
Mn405 O404 2.087 . S
Mn405 O412 2.089 . S
Mn405 O421 2.290 . S
Mn405 O422 2.251 . S
O406 Mn403 2.160 . S
O406 C417 1.239 . S
O407 Mn403 2.221 . S
O407 Mn408 2.290 . S
O407 C418 1.278 . S
Mn408 O407 2.290 . S
Mn408 O410 2.089 . S
Mn408 O413 2.251 . S
Mn408 O414 2.087 . S
O409 Mn403 2.163 . S
O409 C419 1.244 . S
O410 Mn408 2.089 . S
O410 C417 1.256 . S
O411 Mn403 2.160 . S
O411 C420 1.239 . S
O412 Mn405 2.089 . S
O412 C420 1.256 . S
O413 Mn408 2.251 . S
O413 C418 1.241 . S
O414 Mn408 2.087 . S
O414 C419 1.256 . S
C415 O421 1.278 . S
C415 O422 1.241 . S
C416 O402 1.244 . S
C416 O404 1.256 . S
C417 O406 1.239 . S
C417 O410 1.256 . S
C418 O407 1.278 . S
C418 O413 1.241 . S
C419 O409 1.244 . S
C419 O414 1.256 . S
C420 O411 1.239 . S
C420 O412 1.256 . S
O421 Mn403 2.221 . S
O421 Mn405 2.290 . S
O421 C415 1.278 . S
O422 Mn405 2.251 . S
O422 C415 1.241 . S
C423 C424 1.391 . S
C423 C425 1.394 . S
C423 H439 0.931 . S
C424 C423 1.391 . S
C424 C428 1.376 . S
C425 C423 1.394 . S
C425 C426 1.369 . S
C425 C429 1.531 . S
C426 C425 1.369 . S
C426 C427 1.410 . S
C426 C434 1.503 . S
C427 C426 1.410 . S
C427 C428 1.392 . S
C427 C430 1.511 . S
C428 C424 1.376 . S
C428 C427 1.392 . S
C428 H440 0.929 . S
C429 C425 1.531 . S
C429 H441 0.960 1_554 S
C429 H442 0.962 . S
C429 H443 0.960 1_554 S
C430 C427 1.511 . S
C430 H444 0.961 . S
C430 H445 0.961 . S
C430 H446 0.961 . S
C431 C432 1.370 . S
C431 C433 1.363 . S
C431 H447 0.931 . S
C432 C431 1.370 . S
C432 C436 1.408 1_554 S
C433 C431 1.363 . S
C433 C434 1.370 . S
C433 C437 1.524 . S
C434 C426 1.503 . S
C434 C433 1.370 . S
C434 C435 1.403 1_554 S
C435 C434 1.403 1_556 S
C435 C436 1.404 . S
C435 C438 1.539 . S
C436 C432 1.408 1_556 S
C436 C435 1.404 . S
C436 H448 0.930 . S
C437 C433 1.524 . S
C437 H449 0.956 . S
C437 H450 0.961 . S
C437 H451 0.961 . S
C438 C435 1.539 . S
C438 H452 0.958 . S
C438 H453 0.961 . S
C438 H454 0.960 . S
H439 C423 0.931 . S
H440 C428 0.929 . S
H441 C429 0.960 1_556 S
H442 C429 0.962 . S
H443 C429 0.960 1_556 S
H444 C430 0.961 . S
H445 C430 0.961 . S
H446 C430 0.961 . S
H447 C431 0.931 . S
H448 C436 0.930 . S
H449 C437 0.956 . S
H450 C437 0.961 . S
H451 C437 0.961 . S
H452 C438 0.958 . S
H453 C438 0.961 . S
H454 C438 0.960 . S
C455 C456 1.391 . S
C455 C457 1.394 . S
C455 H471 0.931 . S
C456 C455 1.391 . S
C456 C460 1.376 . S
C457 C455 1.394 . S
C457 C458 1.369 . S
C457 C461 1.531 . S
C458 C457 1.369 . S
C458 C459 1.410 . S
C458 C466 1.503 . S
C459 C458 1.410 . S
C459 C460 1.392 . S
C459 C462 1.511 . S
C460 C456 1.376 . S
C460 C459 1.392 . S
C460 H472 0.929 . S
C461 C457 1.531 . S
C461 H473 0.960 . S
C461 H474 0.962 . S
C461 H475 0.960 . S
C462 C459 1.511 . S
C462 H476 0.961 1_554 S
C462 H477 0.961 1_554 S
C462 H478 0.961 . S
C463 C464 1.370 1_556 S
C463 C465 1.363 . S
C463 H479 0.931 . S
C464 C463 1.370 1_554 S
C464 C468 1.408 . S
C465 C463 1.363 . S
C465 C466 1.370 1_556 S
C465 C469 1.524 . S
C466 C458 1.503 . S
C466 C465 1.370 1_554 S
C466 C467 1.403 . S
C467 C466 1.403 . S
C467 C468 1.404 . S
C467 C470 1.539 . S
C468 C464 1.408 . S
C468 C467 1.404 . S
C468 H480 0.930 . S
C469 C465 1.524 . S
C469 H481 0.956 . S
C469 H482 0.961 . S
C469 H483 0.961 . S
C470 C467 1.539 . S
C470 H484 0.958 . S
C470 H485 0.961 . S
C470 H486 0.960 . S
H471 C455 0.931 . S
H472 C460 0.929 . S
H473 C461 0.960 . S
H474 C461 0.962 . S
H475 C461 0.960 . S
H476 C462 0.961 1_556 S
H477 C462 0.961 1_556 S
H478 C462 0.961 . S
H479 C463 0.931 . S
H480 C468 0.930 . S
H481 C469 0.956 . S
H482 C469 0.961 . S
H483 C469 0.961 . S
H484 C470 0.958 . S
H485 C470 0.961 . S
H486 C470 0.960 . S
C487 C488 1.391 . S
C487 C489 1.394 . S
C487 H503 0.931 . S
C488 C487 1.391 . S
C488 C492 1.376 . S
C489 C487 1.394 . S
C489 C490 1.369 . S
C489 C493 1.531 . S
C490 C489 1.369 . S
C490 C491 1.410 . S
C490 C498 1.503 . S
C491 C490 1.410 . S
C491 C492 1.392 . S
C491 C494 1.511 . S
C492 C488 1.376 . S
C492 C491 1.392 . S
C492 H504 0.929 . S
C493 C489 1.531 . S
C493 H505 0.960 . S
C493 H506 0.962 . S
C493 H507 0.960 . S
C494 C491 1.511 . S
C494 H508 0.961 . S
C494 H509 0.961 . S
C494 H510 0.961 . S
C495 C496 1.370 . S
C495 C497 1.363 . S
C495 H511 0.931 1_554 S
C496 C495 1.370 . S
C496 C500 1.408 . S
C497 C495 1.363 . S
C497 C498 1.370 . S
C497 C501 1.524 1_554 S
C498 C490 1.503 . S
C498 C497 1.370 . S
C498 C499 1.403 . S
C499 C498 1.403 . S
C499 C500 1.404 . S
C499 C502 1.539 . S
C500 C496 1.408 . S
C500 C499 1.404 . S
C500 H512 0.930 . S
C501 C497 1.524 1_556 S
C501 H513 0.956 . S
C501 H514 0.961 . S
C501 H515 0.961 . S
C502 C499 1.539 . S
C502 H516 0.958 . S
C502 H517 0.961 . S
C502 H518 0.960 . S
H503 C487 0.931 . S
H504 C492 0.929 . S
H505 C493 0.960 . S
H506 C493 0.962 . S
H507 C493 0.960 . S
H508 C494 0.961 . S
H509 C494 0.961 . S
H510 C494 0.961 . S
H511 C495 0.931 1_556 S
H512 C500 0.930 . S
H513 C501 0.956 . S
H514 C501 0.961 . S
H515 C501 0.961 . S
H516 C502 0.958 . S
H517 C502 0.961 . S
H518 C502 0.960 . S
C519 C520 1.391 . S
C519 C521 1.394 . S
C519 H535 0.931 . S
C520 C519 1.391 . S
C520 C524 1.381 . S
C521 C519 1.394 . S
C521 C522 1.369 . S
C521 C525 1.531 . S
C522 C521 1.369 . S
C522 C523 1.410 . S
C522 C530 1.503 . S
C523 C522 1.410 . S
C523 C524 1.395 . S
C523 C526 1.511 1_554 S
C524 C520 1.381 . S
C524 C523 1.395 . S
C524 H536 0.921 1_554 S
C525 C521 1.531 . S
C525 H537 0.960 . S
C525 H538 0.962 . S
C525 H539 0.960 . S
C526 C523 1.511 1_556 S
C526 H540 0.961 . S
C526 H541 0.961 . S
C526 H542 0.961 1_556 S
C527 C528 1.370 1_556 S
C527 C529 1.363 . S
C527 H543 0.931 . S
C528 C527 1.370 1_554 S
C528 C532 1.408 . S
C529 C527 1.363 . S
C529 C530 1.370 1_556 S
C529 C533 1.524 . S
C530 C522 1.503 . S
C530 C529 1.370 1_554 S
C530 C531 1.403 . S
C531 C530 1.403 . S
C531 C532 1.404 . S
C531 C534 1.539 . S
C532 C528 1.408 . S
C532 C531 1.404 . S
C532 H544 0.930 . S
C533 C529 1.524 . S
C533 H545 0.956 . S
C533 H546 0.961 . S
C533 H547 0.961 . S
C534 C531 1.539 . S
C534 H548 0.958 . S
C534 H549 0.961 . S
C534 H550 0.960 . S
H535 C519 0.931 . S
H536 C524 0.921 1_556 S
H537 C525 0.960 . S
H538 C525 0.962 . S
H539 C525 0.960 . S
H540 C526 0.961 . S
H541 C526 0.961 . S
H542 C526 0.961 1_554 S
H543 C527 0.931 . S
H544 C532 0.930 . S
H545 C533 0.956 . S
H546 C533 0.961 . S
H547 C533 0.961 . S
H548 C534 0.958 . S
H549 C534 0.961 . S
H550 C534 0.960 . S
C551 C552 1.391 1_556 S
C551 C553 1.391 1_556 S
C551 H567 0.931 . S
C552 C551 1.391 1_554 S
C552 C556 1.376 . S
C553 C551 1.391 1_554 S
C553 C554 1.393 . S
C553 C557 1.509 1_554 S
C554 C553 1.393 . S
C554 C555 1.410 . S
C554 C562 1.503 . S
C555 C554 1.410 . S
C555 C556 1.392 . S
C555 C558 1.511 . S
C556 C552 1.376 . S
C556 C555 1.392 . S
C556 H568 0.929 . S
C557 C553 1.509 1_556 S
C557 H569 0.960 . S
C557 H570 0.962 . S
C557 H571 0.960 . S
C558 C555 1.511 . S
C558 H572 0.961 . S
C558 H573 0.961 . S
C558 H574 0.961 . S
C559 C560 1.370 . S
C559 C561 1.363 . S
C559 H575 0.931 1_554 S
C560 C559 1.370 . S
C560 C564 1.408 . S
C561 C559 1.363 . S
C561 C562 1.390 . S
C561 C565 1.506 1_554 S
C562 C554 1.503 . S
C562 C561 1.390 . S
C562 C563 1.403 . S
C563 C562 1.403 . S
C563 C564 1.404 . S
C563 C566 1.539 . S
C564 C560 1.408 . S
C564 C563 1.404 . S
C564 H576 0.930 . S
C565 C561 1.506 1_556 S
C565 H577 0.956 . S
C565 H578 0.961 . S
C565 H579 0.961 . S
C566 C563 1.539 . S
C566 H580 0.958 . S
C566 H581 0.961 . S
C566 H582 0.960 . S
H567 C551 0.931 . S
H568 C556 0.929 . S
H569 C557 0.960 . S
H570 C557 0.962 . S
H571 C557 0.960 . S
H572 C558 0.961 . S
H573 C558 0.961 . S
H574 C558 0.961 . S
H575 C559 0.931 1_556 S
H576 C564 0.930 . S
H577 C565 0.956 . S
H578 C565 0.961 . S
H579 C565 0.961 . S
H580 C566 0.958 . S
H581 C566 0.961 . S
H582 C566 0.960 . S
C583 C584 1.391 . S
C583 C585 1.394 . S
C583 H599 0.931 . S
C584 C583 1.391 . S
C584 C588 1.376 1_556 S
C585 C583 1.394 . S
C585 C586 1.369 . S
C585 C589 1.531 . S
C586 C585 1.369 . S
C586 C587 1.400 1_556 S
C586 C594 1.504 . S
C587 C586 1.400 1_554 S
C587 C588 1.396 . S
C587 C590 1.518 . S
C588 C584 1.376 1_554 S
C588 C587 1.396 . S
C588 H600 0.929 . S
C589 C585 1.531 . S
C589 H601 0.960 . S
C589 H602 0.962 1_556 S
C589 H603 0.960 . S
C590 C587 1.518 . S
C590 H604 0.961 . S
C590 H605 0.961 . S
C590 H606 0.961 1_554 S
C591 C592 1.370 . S
C591 C593 1.363 . S
C591 H607 0.931 . S
C592 C591 1.370 . S
C592 C596 1.408 1_554 S
C593 C591 1.363 . S
C593 C594 1.350 1_554 S
C593 C597 1.524 . S
C594 C586 1.504 . S
C594 C593 1.350 1_556 S
C594 C595 1.423 . S
C595 C594 1.423 . S
C595 C596 1.404 . S
C595 C598 1.539 . S
C596 C592 1.408 1_556 S
C596 C595 1.404 . S
C596 H608 0.930 . S
C597 C593 1.524 . S
C597 H609 0.956 . S
C597 H610 0.961 . S
C597 H611 0.961 . S
C598 C595 1.539 . S
C598 H612 0.958 . S
C598 H613 0.961 . S
C598 H614 0.960 . S
H599 C583 0.931 . S
H600 C588 0.929 . S
H601 C589 0.960 . S
H602 C589 0.962 1_554 S
H603 C589 0.960 . S
H604 C590 0.961 . S
H605 C590 0.961 . S
H606 C590 0.961 1_556 S
H607 C591 0.931 . S
H608 C596 0.930 . S
H609 C597 0.956 . S
H610 C597 0.961 . S
H611 C597 0.961 . S
H612 C598 0.958 . S
H613 C598 0.961 . S
H614 C598 0.960 . S
C615 C616 1.377 1_556 S
C615 C617 1.394 . S
C615 H631 0.931 . S
C616 C615 1.377 1_554 S
C616 C620 1.388 . S
C617 C615 1.394 . S
C617 C618 1.369 1_556 S
C617 C621 1.531 . S
C618 C617 1.369 1_554 S
C618 C619 1.410 . S
C618 C626 1.503 . S
C619 C618 1.410 . S
C619 C620 1.392 . S
C619 C622 1.511 . S
C620 C616 1.388 . S
C620 C619 1.392 . S
C620 H632 0.929 . S
C621 C617 1.531 . S
C621 H633 0.960 . S
C621 H634 0.962 . S
C621 H635 0.960 . S
C622 C619 1.511 . S
C622 H636 0.961 . S
C622 H637 0.961 . S
C622 H638 0.961 . S
C623 C624 1.370 . S
C623 C625 1.363 . S
C623 H639 0.931 . S
C624 C623 1.370 . S
C624 C628 1.408 1_554 S
C625 C623 1.363 . S
C625 C626 1.370 . S
C625 C629 1.524 . S
C626 C618 1.503 . S
C626 C625 1.370 . S
C626 C627 1.403 1_554 S
C627 C626 1.403 1_556 S
C627 C628 1.404 . S
C627 C630 1.539 . S
C628 C624 1.408 1_556 S
C628 C627 1.404 . S
C628 H640 0.930 . S
C629 C625 1.524 . S
C629 H641 0.956 . S
C629 H642 0.961 . S
C629 H643 0.961 . S
C630 C627 1.539 . S
C630 H644 0.958 . S
C630 H645 0.961 . S
C630 H646 0.960 . S
H631 C615 0.931 . S
H632 C620 0.929 . S
H633 C621 0.960 . S
H634 C621 0.962 . S
H635 C621 0.960 . S
H636 C622 0.961 . S
H637 C622 0.961 . S
H638 C622 0.961 . S
H639 C623 0.931 . S
H640 C628 0.930 . S
H641 C629 0.956 . S
H642 C629 0.961 . S
H643 C629 0.961 . S
H644 C630 0.958 . S
H645 C630 0.961 . S
H646 C630 0.960 . S
C647 C648 1.391 . S
C647 C649 1.394 . S
C647 H663 0.931 . S
C648 C647 1.391 . S
C648 C652 1.376 . S
C649 C647 1.394 . S
C649 C650 1.369 . S
C649 C653 1.531 . S
C650 C649 1.369 . S
C650 C651 1.410 . S
C650 C658 1.503 . S
C651 C650 1.410 . S
C651 C652 1.392 . S
C651 C654 1.511 . S
C652 C648 1.376 . S
C652 C651 1.392 . S
C652 H664 0.929 . S
C653 C649 1.531 . S
C653 H665 0.960 . S
C653 H666 0.962 1_556 S
C653 H667 0.960 . S
C654 C651 1.511 . S
C654 H668 0.961 1_556 S
C654 H669 0.961 1_556 S
C654 H670 0.961 . S
C655 C656 1.353 1_554 S
C655 C657 1.363 . S
C655 H671 0.931 . S
C656 C655 1.353 1_556 S
C656 C660 1.427 . S
C657 C655 1.363 . S
C657 C658 1.370 1_554 S
C657 C661 1.524 . S
C658 C650 1.503 . S
C658 C657 1.370 1_556 S
C658 C659 1.403 . S
C659 C658 1.403 . S
C659 C660 1.404 . S
C659 C662 1.539 . S
C660 C656 1.427 . S
C660 C659 1.404 . S
C660 H672 0.930 . S
C661 C657 1.524 . S
C661 H673 0.956 . S
C661 H674 0.961 . S
C661 H675 0.961 . S
C662 C659 1.539 . S
C662 H676 0.958 . S
C662 H677 0.961 . S
C662 H678 0.960 . S
H663 C647 0.931 . S
H664 C652 0.929 . S
H665 C653 0.960 . S
H666 C653 0.962 1_554 S
H667 C653 0.960 . S
H668 C654 0.961 1_554 S
H669 C654 0.961 1_554 S
H670 C654 0.961 . S
H671 C655 0.931 . S
H672 C660 0.930 . S
H673 C661 0.956 . S
H674 C661 0.961 . S
H675 C661 0.961 . S
H676 C662 0.958 . S
H677 C662 0.961 . S
H678 C662 0.960 . S
C679 C680 1.391 1_556 S
C679 C681 1.394 . S
C679 H695 0.931 . S
C680 C679 1.391 1_554 S
C680 C684 1.376 . S
C681 C679 1.394 . S
C681 C682 1.369 1_556 S
C681 C685 1.531 . S
C682 C681 1.369 1_554 S
C682 C683 1.410 . S
C682 C690 1.503 . S
C683 C682 1.410 . S
C683 C684 1.392 . S
C683 C686 1.511 . S
C684 C680 1.376 . S
C684 C683 1.392 . S
C684 H696 0.929 . S
C685 C681 1.531 . S
C685 H697 0.960 . S
C685 H698 0.962 . S
C685 H699 0.960 . S
C686 C683 1.511 . S
C686 H700 0.961 . S
C686 H701 0.961 . S
C686 H702 0.961 . S
C687 C688 1.370 . S
C687 C689 1.363 . S
C687 H703 0.931 . S
C688 C687 1.370 . S
C688 C692 1.408 . S
C689 C687 1.363 . S
C689 C690 1.370 . S
C689 C693 1.524 . S
C690 C682 1.503 . S
C690 C689 1.370 . S
C690 C691 1.403 . S
C691 C690 1.403 . S
C691 C692 1.404 . S
C691 C694 1.539 . S
C692 C688 1.408 . S
C692 C691 1.404 . S
C692 H704 0.930 . S
C693 C689 1.524 . S
C693 H705 0.956 . S
C693 H706 0.961 . S
C693 H707 0.961 . S
C694 C691 1.539 . S
C694 H708 0.958 1_554 S
C694 H709 0.961 . S
C694 H710 0.960 . S
H695 C679 0.931 . S
H696 C684 0.929 . S
H697 C685 0.960 . S
H698 C685 0.962 . S
H699 C685 0.960 . S
H700 C686 0.961 . S
H701 C686 0.961 . S
H702 C686 0.961 . S
H703 C687 0.931 . S
H704 C692 0.930 . S
H705 C693 0.956 . S
H706 C693 0.961 . S
H707 C693 0.961 . S
H708 C694 0.958 1_556 S
H709 C694 0.961 . S
H710 C694 0.960 . S
C711 C712 1.391 . S
C711 C713 1.394 . S
C711 H727 0.931 . S
C712 C711 1.391 . S
C712 C716 1.376 . S
C713 C711 1.394 . S
C713 C714 1.369 . S
C713 C717 1.531 . S
C714 C713 1.369 . S
C714 C715 1.410 . S
C714 C722 1.503 . S
C715 C714 1.410 . S
C715 C716 1.392 . S
C715 C718 1.511 . S
C716 C712 1.376 . S
C716 C715 1.392 . S
C716 H728 0.929 . S
C717 C713 1.531 . S
C717 H729 0.960 1_554 S
C717 H730 0.962 . S
C717 H731 0.960 1_554 S
C718 C715 1.511 . S
C718 H732 0.961 . S
C718 H733 0.961 . S
C718 H734 0.961 1_554 S
C719 C720 1.370 1_554 S
C719 C721 1.363 . S
C719 H735 0.931 . S
C720 C719 1.370 1_556 S
C720 C724 1.408 . S
C721 C719 1.363 . S
C721 C722 1.370 . S
C721 C725 1.524 . S
C722 C714 1.503 . S
C722 C721 1.370 . S
C722 C723 1.403 1_554 S
C723 C722 1.403 1_556 S
C723 C724 1.404 . S
C723 C726 1.539 . S
C724 C720 1.408 . S
C724 C723 1.404 . S
C724 H736 0.930 . S
C725 C721 1.524 . S
C725 H737 0.956 . S
C725 H738 0.961 . S
C725 H739 0.961 . S
C726 C723 1.539 . S
C726 H740 0.958 . S
C726 H741 0.961 . S
C726 H742 0.960 . S
H727 C711 0.931 . S
H728 C716 0.929 . S
H729 C717 0.960 1_556 S
H730 C717 0.962 . S
H731 C717 0.960 1_556 S
H732 C718 0.961 . S
H733 C718 0.961 . S
H734 C718 0.961 1_556 S
H735 C719 0.931 . S
H736 C724 0.930 . S
H737 C725 0.956 . S
H738 C725 0.961 . S
H739 C725 0.961 . S
H740 C726 0.958 . S
H741 C726 0.961 . S
H742 C726 0.960 . S
C743 C744 1.391 . S
C743 C745 1.394 . S
C743 H759 0.931 . S
C744 C743 1.391 . S
C744 C748 1.376 . S
C745 C743 1.394 . S
C745 C746 1.369 . S
C745 C749 1.531 . S
C746 C745 1.369 . S
C746 C747 1.410 . S
C746 C754 1.503 . S
C747 C746 1.410 . S
C747 C748 1.392 . S
C747 C750 1.511 . S
C748 C744 1.376 . S
C748 C747 1.392 . S
C748 H760 0.929 . S
C749 C745 1.531 . S
C749 H761 0.960 . S
C749 H762 0.962 . S
C749 H763 0.960 . S
C750 C747 1.511 . S
C750 H764 0.961 1_554 S
C750 H765 0.961 1_554 S
C750 H766 0.961 . S
C751 C752 1.370 . S
C751 C753 1.363 . S
C751 H767 0.931 . S
C752 C751 1.370 . S
C752 C756 1.408 . S
C753 C751 1.363 . S
C753 C754 1.370 . S
C753 C757 1.531 . S
C754 C746 1.503 . S
C754 C753 1.370 . S
C754 C755 1.403 . S
C755 C754 1.403 . S
C755 C756 1.404 . S
C755 C758 1.539 . S
C756 C752 1.408 . S
C756 C755 1.404 . S
C756 H768 0.930 . S
C757 C753 1.531 . S
C757 H769 0.966 . S
C757 H770 0.952 1_554 S
C757 H771 0.952 1_554 S
C758 C755 1.539 . S
C758 H772 0.958 . S
C758 H773 0.961 . S
C758 H774 0.960 . S
H759 C743 0.931 . S
H760 C748 0.929 . S
H761 C749 0.960 . S
H762 C749 0.962 . S
H763 C749 0.960 . S
H764 C750 0.961 1_556 S
H765 C750 0.961 1_556 S
H766 C750 0.961 . S
H767 C751 0.931 . S
H768 C756 0.930 . S
H769 C757 0.966 . S
H770 C757 0.952 1_556 S
H771 C757 0.952 1_556 S
H772 C758 0.958 . S
H773 C758 0.961 . S
H774 C758 0.960 . S
C775 C776 1.391 . S
C775 C777 1.394 . S
C775 H791 0.931 . S
C776 C775 1.391 . S
C776 C780 1.376 . S
C777 C775 1.394 . S
C777 C778 1.369 . S
C777 C781 1.531 . S
C778 C777 1.369 . S
C778 C779 1.410 . S
C778 C786 1.503 . S
C779 C778 1.410 . S
C779 C780 1.392 . S
C779 C782 1.518 . S
C780 C776 1.376 . S
C780 C779 1.392 . S
C780 H792 0.929 . S
C781 C777 1.531 . S
C781 H793 0.960 . S
C781 H794 0.962 . S
C781 H795 0.960 . S
C782 C779 1.518 . S
C782 H796 0.946 1_554 S
C782 H797 0.954 1_554 S
C782 H798 0.976 . S
C783 C784 1.370 1_556 S
C783 C785 1.363 1_556 S
C783 H799 0.931 . S
C784 C783 1.370 1_554 S
C784 C788 1.408 . S
C785 C783 1.363 1_554 S
C785 C786 1.370 . S
C785 C789 1.524 1_554 S
C786 C778 1.503 . S
C786 C785 1.370 . S
C786 C787 1.403 . S
C787 C786 1.403 . S
C787 C788 1.404 . S
C787 C790 1.539 . S
C788 C784 1.408 . S
C788 C787 1.404 . S
C788 H800 0.930 . S
C789 C785 1.524 1_556 S
C789 H801 0.956 . S
C789 H802 0.961 . S
C789 H803 0.961 . S
C790 C787 1.539 . S
C790 H804 0.958 . S
C790 H805 0.961 . S
C790 H806 0.960 . S
H791 C775 0.931 . S
H792 C780 0.929 . S
H793 C781 0.960 . S
H794 C781 0.962 . S
H795 C781 0.960 . S
H796 C782 0.946 1_556 S
H797 C782 0.954 1_556 S
H798 C782 0.976 . S
H799 C783 0.931 . S
H800 C788 0.930 . S
H801 C789 0.956 . S
H802 C789 0.961 . S
H803 C789 0.961 . S
H804 C790 0.958 . S
H805 C790 0.961 . S
H806 C790 0.960 . S
C807 C808 1.391 . S
C807 C809 1.394 . S
C807 H823 0.931 . S
C808 C807 1.391 . S
C808 C812 1.376 . S
C809 C807 1.394 . S
C809 C810 1.369 . S
C809 C813 1.531 1_655 S
C810 C809 1.369 . S
C810 C811 1.410 . S
C810 C818 1.503 1_655 S
C811 C810 1.410 . S
C811 C812 1.392 . S
C811 C814 1.511 . S
C812 C808 1.376 . S
C812 C811 1.392 . S
C812 H824 0.929 . S
C813 C809 1.531 1_455 S
C813 H825 0.960 . S
C813 H826 0.962 . S
C813 H827 0.960 1_455 S
C814 C811 1.511 . S
C814 H828 0.961 . S
C814 H829 0.961 1_655 S
C814 H830 0.961 . S
C815 C816 1.370 . S
C815 C817 1.363 . S
C815 H831 0.931 . S
C816 C815 1.370 . S
C816 C820 1.408 . S
C817 C815 1.363 . S
C817 C818 1.370 . S
C817 C821 1.524 . S
C818 C810 1.503 1_455 S
C818 C817 1.370 . S
C818 C819 1.403 . S
C819 C818 1.403 . S
C819 C820 1.404 . S
C819 C822 1.539 . S
C820 C816 1.408 . S
C820 C819 1.404 . S
C820 H832 0.930 . S
C821 C817 1.524 . S
C821 H833 0.956 . S
C821 H834 0.961 . S
C821 H835 0.961 . S
C822 C819 1.539 . S
C822 H836 0.958 . S
C822 H837 0.961 . S
C822 H838 0.960 . S
H823 C807 0.931 . S
H824 C812 0.929 . S
H825 C813 0.960 . S
H826 C813 0.962 . S
H827 C813 0.960 1_655 S
H828 C814 0.961 . S
H829 C814 0.961 1_455 S
H830 C814 0.961 . S
H831 C815 0.931 . S
H832 C820 0.930 . S
H833 C821 0.956 . S
H834 C821 0.961 . S
H835 C821 0.961 . S
H836 C822 0.958 . S
H837 C822 0.961 . S
H838 C822 0.960 . S
C839 C840 1.391 . S
C839 C841 1.394 . S
C839 H855 0.931 . S
C840 C839 1.391 . S
C840 C844 1.376 . S
C841 C839 1.394 . S
C841 C842 1.369 . S
C841 C845 1.531 . S
C842 C841 1.369 . S
C842 C843 1.410 . S
C842 C850 1.503 . S
C843 C842 1.410 . S
C843 C844 1.392 . S
C843 C846 1.511 . S
C844 C840 1.376 . S
C844 C843 1.392 . S
C844 H856 0.929 . S
C845 C841 1.531 . S
C845 H857 0.960 . S
C845 H858 0.962 . S
C845 H859 0.960 . S
C846 C843 1.511 . S
C846 H860 0.961 . S
C846 H861 0.961 . S
C846 H862 0.961 . S
C847 C848 1.370 . S
C847 C849 1.363 . S
C847 H863 0.931 . S
C848 C847 1.370 . S
C848 C852 1.408 . S
C849 C847 1.363 . S
C849 C850 1.370 . S
C849 C853 1.524 . S
C850 C842 1.503 . S
C850 C849 1.370 . S
C850 C851 1.403 . S
C851 C850 1.403 . S
C851 C852 1.404 . S
C851 C854 1.539 . S
C852 C848 1.408 . S
C852 C851 1.404 . S
C852 H864 0.930 . S
C853 C849 1.524 . S
C853 H865 0.956 . S
C853 H866 0.961 . S
C853 H867 0.961 . S
C854 C851 1.539 . S
C854 H868 0.958 . S
C854 H869 0.961 . S
C854 H870 0.960 . S
H855 C839 0.931 . S
H856 C844 0.929 . S
H857 C845 0.960 . S
H858 C845 0.962 . S
H859 C845 0.960 . S
H860 C846 0.961 . S
H861 C846 0.961 . S
H862 C846 0.961 . S
H863 C847 0.931 . S
H864 C852 0.930 . S
H865 C853 0.956 . S
H866 C853 0.961 . S
H867 C853 0.961 . S
H868 C854 0.958 . S
H869 C854 0.961 . S
H870 C854 0.960 . S
C871 C872 1.391 . S
C871 C873 1.394 . S
C871 H887 0.931 . S
C872 C871 1.391 . S
C872 C876 1.376 . S
C873 C871 1.394 . S
C873 C874 1.369 . S
C873 C877 1.531 . S
C874 C873 1.369 . S
C874 C875 1.410 . S
C874 C882 1.503 1_545 S
C875 C874 1.410 . S
C875 C876 1.392 . S
C875 C878 1.511 . S
C876 C872 1.376 . S
C876 C875 1.392 . S
C876 H888 0.929 . S
C877 C873 1.531 . S
C877 H889 0.960 1_545 S
C877 H890 0.962 . S
C877 H891 0.960 . S
C878 C875 1.511 . S
C878 H892 0.961 . S
C878 H893 0.961 1_545 S
C878 H894 0.961 . S
C879 C880 1.370 . S
C879 C881 1.363 . S
C879 H895 0.931 . S
C880 C879 1.370 . S
C880 C884 1.408 . S
C881 C879 1.363 . S
C881 C882 1.370 . S
C881 C885 1.524 . S
C882 C874 1.503 1_565 S
C882 C881 1.370 . S
C882 C883 1.403 . S
C883 C882 1.403 . S
C883 C884 1.404 . S
C883 C886 1.539 . S
C884 C880 1.408 . S
C884 C883 1.404 . S
C884 H896 0.930 . S
C885 C881 1.524 . S
C885 H897 0.956 1_565 S
C885 H898 0.961 1_565 S
C885 H899 0.961 . S
C886 C883 1.539 . S
C886 H900 0.958 . S
C886 H901 0.961 . S
C886 H902 0.960 . S
H887 C871 0.931 . S
H888 C876 0.929 . S
H889 C877 0.960 1_565 S
H890 C877 0.962 . S
H891 C877 0.960 . S
H892 C878 0.961 . S
H893 C878 0.961 1_565 S
H894 C878 0.961 . S
H895 C879 0.931 . S
H896 C884 0.930 . S
H897 C885 0.956 1_545 S
H898 C885 0.961 1_545 S
H899 C885 0.961 . S
H900 C886 0.958 . S
H901 C886 0.961 . S
H902 C886 0.960 . S
C903 C904 1.391 . S
C903 C905 1.394 . S
C903 H919 0.931 . S
C904 C903 1.391 . S
C904 C908 1.376 . S
C905 C903 1.394 . S
C905 C906 1.369 . S
C905 C909 1.531 . S
C906 C905 1.369 . S
C906 C907 1.410 . S
C906 C914 1.503 . S
C907 C906 1.410 . S
C907 C908 1.392 . S
C907 C910 1.511 . S
C908 C904 1.376 . S
C908 C907 1.392 . S
C908 H920 0.929 . S
C909 C905 1.531 . S
C909 H921 0.960 . S
C909 H922 0.962 . S
C909 H923 0.960 . S
C910 C907 1.511 . S
C910 H924 0.961 . S
C910 H925 0.961 . S
C910 H926 0.961 . S
C911 C912 1.370 . S
C911 C913 1.363 . S
C911 H927 0.931 . S
C912 C911 1.370 . S
C912 C916 1.408 . S
C913 C911 1.363 . S
C913 C914 1.370 . S
C913 C917 1.524 . S
C914 C906 1.503 . S
C914 C913 1.370 . S
C914 C915 1.403 . S
C915 C914 1.403 . S
C915 C916 1.404 . S
C915 C918 1.539 . S
C916 C912 1.408 . S
C916 C915 1.404 . S
C916 H928 0.930 . S
C917 C913 1.524 . S
C917 H929 0.956 . S
C917 H930 0.961 . S
C917 H931 0.961 . S
C918 C915 1.539 . S
C918 H932 0.958 . S
C918 H933 0.961 . S
C918 H934 0.960 . S
H919 C903 0.931 . S
H920 C908 0.929 . S
H921 C909 0.960 . S
H922 C909 0.962 . S
H923 C909 0.960 . S
H924 C910 0.961 . S
H925 C910 0.961 . S
H926 C910 0.961 . S
H927 C911 0.931 . S
H928 C916 0.930 . S
H929 C917 0.956 . S
H930 C917 0.961 . S
H931 C917 0.961 . S
H932 C918 0.958 . S
H933 C918 0.961 . S
H934 C918 0.960 . S
C935 C936 1.391 . S
C935 C937 1.394 . S
C935 H951 0.931 . S
C936 C935 1.391 . S
C936 C940 1.376 . S
C937 C935 1.394 . S
C937 C938 1.369 . S
C937 C941 1.531 . S
C938 C937 1.369 . S
C938 C939 1.410 . S
C938 C946 1.503 . S
C939 C938 1.410 . S
C939 C940 1.392 . S
C939 C942 1.511 . S
C940 C936 1.376 . S
C940 C939 1.392 . S
C940 H952 0.929 . S
C941 C937 1.531 . S
C941 H953 0.960 . S
C941 H954 0.962 . S
C941 H955 0.960 . S
C942 C939 1.511 . S
C942 H956 0.961 . S
C942 H957 0.961 . S
C942 H958 0.961 . S
C943 C944 1.370 . S
C943 C945 1.363 . S
C943 H959 0.931 . S
C944 C943 1.370 . S
C944 C948 1.408 . S
C945 C943 1.363 . S
C945 C946 1.370 . S
C945 C949 1.524 . S
C946 C938 1.503 . S
C946 C945 1.370 . S
C946 C947 1.403 . S
C947 C946 1.403 . S
C947 C948 1.404 . S
C947 C950 1.539 . S
C948 C944 1.408 . S
C948 C947 1.404 . S
C948 H960 0.930 . S
C949 C945 1.524 . S
C949 H961 0.956 . S
C949 H962 0.961 . S
C949 H963 0.961 . S
C950 C947 1.539 . S
C950 H964 0.958 . S
C950 H965 0.961 . S
C950 H966 0.960 . S
H951 C935 0.931 . S
H952 C940 0.929 . S
H953 C941 0.960 . S
H954 C941 0.962 . S
H955 C941 0.960 . S
H956 C942 0.961 . S
H957 C942 0.961 . S
H958 C942 0.961 . S
H959 C943 0.931 . S
H960 C948 0.930 . S
H961 C949 0.956 . S
H962 C949 0.961 . S
H963 C949 0.961 . S
H964 C950 0.958 . S
H965 C950 0.961 . S
H966 C950 0.960 . S
C967 C968 1.391 . S
C967 C969 1.394 . S
C967 H983 0.931 . S
C968 C967 1.391 . S
C968 C972 1.376 . S
C969 C967 1.394 . S
C969 C970 1.369 . S
C969 C973 1.531 . S
C970 C969 1.369 . S
C970 C971 1.410 . S
C970 C978 1.503 . S
C971 C970 1.410 . S
C971 C972 1.392 . S
C971 C974 1.511 . S
C972 C968 1.376 . S
C972 C971 1.392 . S
C972 H984 0.929 . S
C973 C969 1.531 . S
C973 H985 0.960 . S
C973 H986 0.962 . S
C973 H987 0.960 . S
C974 C971 1.511 . S
C974 H988 0.961 . S
C974 H989 0.961 . S
C974 H990 0.961 . S
C975 C976 1.370 . S
C975 C977 1.363 . S
C975 H991 0.931 . S
C976 C975 1.370 . S
C976 C980 1.408 . S
C977 C975 1.363 . S
C977 C978 1.370 . S
C977 C981 1.524 . S
C978 C970 1.503 . S
C978 C977 1.370 . S
C978 C979 1.403 . S
C979 C978 1.403 . S
C979 C980 1.404 . S
C979 C982 1.539 . S
C980 C976 1.408 . S
C980 C979 1.404 . S
C980 H992 0.930 . S
C981 C977 1.524 . S
C981 H993 0.956 . S
C981 H994 0.961 . S
C981 H995 0.961 . S
C982 C979 1.539 . S
C982 H996 0.958 . S
C982 H997 0.961 . S
C982 H998 0.960 . S
H983 C967 0.931 . S
H984 C972 0.929 . S
H985 C973 0.960 . S
H986 C973 0.962 . S
H987 C973 0.960 . S
H988 C974 0.961 . S
H989 C974 0.961 . S
H990 C974 0.961 . S
H991 C975 0.931 . S
H992 C980 0.930 . S
H993 C981 0.956 . S
H994 C981 0.961 . S
H995 C981 0.961 . S
H996 C982 0.958 . S
H997 C982 0.961 . S
H998 C982 0.960 . S
C999 C1000 1.391 . S
C999 C1001 1.394 . S
C999 H1015 0.931 . S
C1000 C999 1.391 . S
C1000 C1004 1.376 . S
C1001 C999 1.394 . S
C1001 C1002 1.369 . S
C1001 C1005 1.531 . S
C1002 C1001 1.369 . S
C1002 C1003 1.410 . S
C1002 C1010 1.503 . S
C1003 C1002 1.410 . S
C1003 C1004 1.392 . S
C1003 C1006 1.511 . S
C1004 C1000 1.376 . S
C1004 C1003 1.392 . S
C1004 H1016 0.929 . S
C1005 C1001 1.531 . S
C1005 H1017 0.960 . S
C1005 H1018 0.962 . S
C1005 H1019 0.960 . S
C1006 C1003 1.511 . S
C1006 H1020 0.961 . S
C1006 H1021 0.961 . S
C1006 H1022 0.961 . S
C1007 C1008 1.370 . S
C1007 C1009 1.363 . S
C1007 H1023 0.931 . S
C1008 C1007 1.370 . S
C1008 C1012 1.408 . S
C1009 C1007 1.363 . S
C1009 C1010 1.370 . S
C1009 C1013 1.524 . S
C1010 C1002 1.503 . S
C1010 C1009 1.370 . S
C1010 C1011 1.403 . S
C1011 C1010 1.403 . S
C1011 C1012 1.404 . S
C1011 C1014 1.539 . S
C1012 C1008 1.408 . S
C1012 C1011 1.404 . S
C1012 H1024 0.930 . S
C1013 C1009 1.524 . S
C1013 H1025 0.956 . S
C1013 H1026 0.961 . S
C1013 H1027 0.961 . S
C1014 C1011 1.539 . S
C1014 H1028 0.958 . S
C1014 H1029 0.961 . S
C1014 H1030 0.960 . S
H1015 C999 0.931 . S
H1016 C1004 0.929 . S
H1017 C1005 0.960 . S
H1018 C1005 0.962 . S
H1019 C1005 0.960 . S
H1020 C1006 0.961 . S
H1021 C1006 0.961 . S
H1022 C1006 0.961 . S
H1023 C1007 0.931 . S
H1024 C1012 0.930 . S
H1025 C1013 0.956 . S
H1026 C1013 0.961 . S
H1027 C1013 0.961 . S
H1028 C1014 0.958 . S
H1029 C1014 0.961 . S
H1030 C1014 0.960 . S
C1031 C1032 1.391 . S
C1031 C1033 1.394 . S
C1031 H1047 0.931 . S
C1032 C1031 1.391 . S
C1032 C1036 1.376 . S
C1033 C1031 1.394 . S
C1033 C1034 1.369 . S
C1033 C1037 1.531 . S
C1034 C1033 1.369 . S
C1034 C1035 1.410 . S
C1034 C1042 1.503 . S
C1035 C1034 1.410 . S
C1035 C1036 1.392 . S
C1035 C1038 1.511 . S
C1036 C1032 1.376 . S
C1036 C1035 1.392 . S
C1036 H1048 0.929 . S
C1037 C1033 1.531 . S
C1037 H1049 0.960 . S
C1037 H1050 0.962 . S
C1037 H1051 0.960 . S
C1038 C1035 1.511 . S
C1038 H1052 0.961 . S
C1038 H1053 0.961 . S
C1038 H1054 0.961 . S
C1039 C1040 1.370 . S
C1039 C1041 1.363 . S
C1039 H1055 0.931 . S
C1040 C1039 1.370 . S
C1040 C1044 1.408 . S
C1041 C1039 1.363 . S
C1041 C1042 1.370 . S
C1041 C1045 1.524 . S
C1042 C1034 1.503 . S
C1042 C1041 1.370 . S
C1042 C1043 1.403 . S
C1043 C1042 1.403 . S
C1043 C1044 1.404 . S
C1043 C1046 1.539 . S
C1044 C1040 1.408 . S
C1044 C1043 1.404 . S
C1044 H1056 0.930 . S
C1045 C1041 1.524 . S
C1045 H1057 0.956 . S
C1045 H1058 0.961 . S
C1045 H1059 0.961 . S
C1046 C1043 1.539 . S
C1046 H1060 0.958 . S
C1046 H1061 0.961 . S
C1046 H1062 0.960 . S
H1047 C1031 0.931 . S
H1048 C1036 0.929 . S
H1049 C1037 0.960 . S
H1050 C1037 0.962 . S
H1051 C1037 0.960 . S
H1052 C1038 0.961 . S
H1053 C1038 0.961 . S
H1054 C1038 0.961 . S
H1055 C1039 0.931 . S
H1056 C1044 0.930 . S
H1057 C1045 0.956 . S
H1058 C1045 0.961 . S
H1059 C1045 0.961 . S
H1060 C1046 0.958 . S
H1061 C1046 0.961 . S
H1062 C1046 0.960 . S
C1063 C1064 1.391 . S
C1063 C1065 1.394 . S
C1063 H1079 0.931 . S
C1064 C1063 1.391 . S
C1064 C1068 1.376 . S
C1065 C1063 1.394 . S
C1065 C1066 1.369 . S
C1065 C1069 1.531 . S
C1066 C1065 1.369 . S
C1066 C1067 1.410 . S
C1066 C1074 1.503 . S
C1067 C1066 1.410 . S
C1067 C1068 1.392 . S
C1067 C1070 1.511 . S
C1068 C1064 1.376 . S
C1068 C1067 1.392 . S
C1068 H1080 0.929 . S
C1069 C1065 1.531 . S
C1069 H1081 0.960 . S
C1069 H1082 0.962 . S
C1069 H1083 0.960 . S
C1070 C1067 1.511 . S
C1070 H1084 0.961 . S
C1070 H1085 0.961 . S
C1070 H1086 0.961 . S
C1071 C1072 1.370 . S
C1071 C1073 1.363 . S
C1071 H1087 0.931 . S
C1072 C1071 1.370 . S
C1072 C1076 1.408 . S
C1073 C1071 1.363 . S
C1073 C1074 1.370 . S
C1073 C1077 1.524 . S
C1074 C1066 1.503 . S
C1074 C1073 1.370 . S
C1074 C1075 1.403 . S
C1075 C1074 1.403 . S
C1075 C1076 1.404 . S
C1075 C1078 1.539 . S
C1076 C1072 1.408 . S
C1076 C1075 1.404 . S
C1076 H1088 0.930 . S
C1077 C1073 1.524 . S
C1077 H1089 0.956 . S
C1077 H1090 0.961 . S
C1077 H1091 0.961 . S
C1078 C1075 1.539 . S
C1078 H1092 0.958 . S
C1078 H1093 0.961 . S
C1078 H1094 0.960 . S
H1079 C1063 0.931 . S
H1080 C1068 0.929 . S
H1081 C1069 0.960 . S
H1082 C1069 0.962 . S
H1083 C1069 0.960 . S
H1084 C1070 0.961 . S
H1085 C1070 0.961 . S
H1086 C1070 0.961 . S
H1087 C1071 0.931 . S
H1088 C1076 0.930 . S
H1089 C1077 0.956 . S
H1090 C1077 0.961 . S
H1091 C1077 0.961 . S
H1092 C1078 0.958 . S
H1093 C1078 0.961 . S
H1094 C1078 0.960 . S
C1095 C1096 1.391 . S
C1095 C1097 1.394 . S
C1095 H1111 0.931 . S
C1096 C1095 1.391 . S
C1096 C1100 1.376 . S
C1097 C1095 1.394 . S
C1097 C1098 1.369 . S
C1097 C1101 1.531 . S
C1098 C1097 1.369 . S
C1098 C1099 1.410 . S
C1098 C1106 1.503 1_545 S
C1099 C1098 1.410 . S
C1099 C1100 1.392 . S
C1099 C1102 1.511 . S
C1100 C1096 1.376 . S
C1100 C1099 1.392 . S
C1100 H1112 0.929 . S
C1101 C1097 1.531 . S
C1101 H1113 0.960 . S
C1101 H1114 0.962 . S
C1101 H1115 0.960 . S
C1102 C1099 1.511 . S
C1102 H1116 0.961 . S
C1102 H1117 0.961 1_545 S
C1102 H1118 0.961 . S
C1103 C1104 1.370 . S
C1103 C1105 1.363 . S
C1103 H1119 0.931 . S
C1104 C1103 1.370 . S
C1104 C1108 1.408 . S
C1105 C1103 1.363 . S
C1105 C1106 1.370 . S
C1105 C1109 1.524 . S
C1106 C1098 1.503 1_565 S
C1106 C1105 1.370 . S
C1106 C1107 1.403 . S
C1107 C1106 1.403 . S
C1107 C1108 1.404 . S
C1107 C1110 1.539 1_565 S
C1108 C1104 1.408 . S
C1108 C1107 1.404 . S
C1108 H1120 0.930 . S
C1109 C1105 1.524 . S
C1109 H1121 0.956 . S
C1109 H1122 0.961 . S
C1109 H1123 0.961 . S
C1110 C1107 1.539 1_545 S
C1110 H1124 0.958 . S
C1110 H1125 0.961 1_545 S
C1110 H1126 0.960 . S
H1111 C1095 0.931 . S
H1112 C1100 0.929 . S
H1113 C1101 0.960 . S
H1114 C1101 0.962 . S
H1115 C1101 0.960 . S
H1116 C1102 0.961 . S
H1117 C1102 0.961 1_565 S
H1118 C1102 0.961 . S
H1119 C1103 0.931 . S
H1120 C1108 0.930 . S
H1121 C1109 0.956 . S
H1122 C1109 0.961 . S
H1123 C1109 0.961 . S
H1124 C1110 0.958 . S
H1125 C1110 0.961 1_565 S
H1126 C1110 0.960 . S
C1127 C1128 1.391 . S
C1127 C1129 1.394 . S
C1127 H1143 0.931 . S
C1128 C1127 1.391 . S
C1128 C1132 1.376 . S
C1129 C1127 1.394 . S
C1129 C1130 1.369 . S
C1129 C1133 1.531 1_655 S
C1130 C1129 1.369 . S
C1130 C1131 1.410 . S
C1130 C1138 1.503 1_655 S
C1131 C1130 1.410 . S
C1131 C1132 1.392 . S
C1131 C1134 1.511 . S
C1132 C1128 1.376 . S
C1132 C1131 1.392 . S
C1132 H1144 0.929 . S
C1133 C1129 1.531 1_455 S
C1133 H1145 0.960 . S
C1133 H1146 0.962 . S
C1133 H1147 0.960 1_455 S
C1134 C1131 1.511 . S
C1134 H1148 0.961 . S
C1134 H1149 0.961 . S
C1134 H1150 0.961 . S
C1135 C1136 1.370 . S
C1135 C1137 1.363 . S
C1135 H1151 0.931 . S
C1136 C1135 1.370 . S
C1136 C1140 1.408 . S
C1137 C1135 1.363 . S
C1137 C1138 1.370 . S
C1137 C1141 1.524 . S
C1138 C1130 1.503 1_455 S
C1138 C1137 1.370 . S
C1138 C1139 1.403 . S
C1139 C1138 1.403 . S
C1139 C1140 1.404 . S
C1139 C1142 1.539 . S
C1140 C1136 1.408 . S
C1140 C1139 1.404 . S
C1140 H1152 0.930 . S
C1141 C1137 1.524 . S
C1141 H1153 0.956 . S
C1141 H1154 0.961 . S
C1141 H1155 0.961 . S
C1142 C1139 1.539 . S
C1142 H1156 0.958 . S
C1142 H1157 0.961 . S
C1142 H1158 0.960 1_455 S
H1143 C1127 0.931 . S
H1144 C1132 0.929 . S
H1145 C1133 0.960 . S
H1146 C1133 0.962 . S
H1147 C1133 0.960 1_655 S
H1148 C1134 0.961 . S
H1149 C1134 0.961 . S
H1150 C1134 0.961 . S
H1151 C1135 0.931 . S
H1152 C1140 0.930 . S
H1153 C1141 0.956 . S
H1154 C1141 0.961 . S
H1155 C1141 0.961 . S
H1156 C1142 0.958 . S
H1157 C1142 0.961 . S
H1158 C1142 0.960 1_655 S
C1159 C1160 1.391 . S
C1159 C1161 1.394 . S
C1159 H1175 0.931 . S
C1160 C1159 1.391 . S
C1160 C1164 1.376 . S
C1161 C1159 1.394 . S
C1161 C1162 1.369 . S
C1161 C1165 1.531 . S
C1162 C1161 1.369 . S
C1162 C1163 1.410 . S
C1162 C1170 1.503 . S
C1163 C1162 1.410 . S
C1163 C1164 1.392 . S
C1163 C1166 1.511 . S
C1164 C1160 1.376 . S
C1164 C1163 1.392 . S
C1164 H1176 0.929 . S
C1165 C1161 1.531 . S
C1165 H1177 0.960 . S
C1165 H1178 0.962 . S
C1165 H1179 0.960 . S
C1166 C1163 1.511 . S
C1166 H1180 0.961 . S
C1166 H1181 0.961 . S
C1166 H1182 0.961 . S
C1167 C1168 1.370 . S
C1167 C1169 1.363 . S
C1167 H1183 0.931 . S
C1168 C1167 1.370 . S
C1168 C1172 1.408 . S
C1169 C1167 1.363 . S
C1169 C1170 1.370 . S
C1169 C1173 1.524 . S
C1170 C1162 1.503 . S
C1170 C1169 1.370 . S
C1170 C1171 1.403 . S
C1171 C1170 1.403 . S
C1171 C1172 1.404 . S
C1171 C1174 1.539 . S
C1172 C1168 1.408 . S
C1172 C1171 1.404 . S
C1172 H1184 0.930 . S
C1173 C1169 1.524 . S
C1173 H1185 0.956 . S
C1173 H1186 0.961 . S
C1173 H1187 0.961 . S
C1174 C1171 1.539 . S
C1174 H1188 0.958 . S
C1174 H1189 0.961 . S
C1174 H1190 0.960 . S
H1175 C1159 0.931 . S
H1176 C1164 0.929 . S
H1177 C1165 0.960 . S
H1178 C1165 0.962 . S
H1179 C1165 0.960 . S
H1180 C1166 0.961 . S
H1181 C1166 0.961 . S
H1182 C1166 0.961 . S
H1183 C1167 0.931 . S
H1184 C1172 0.930 . S
H1185 C1173 0.956 . S
H1186 C1173 0.961 . S
H1187 C1173 0.961 . S
H1188 C1174 0.958 . S
H1189 C1174 0.961 . S
H1190 C1174 0.960 . S
C1191 C1192 1.391 . S
C1191 C1193 1.394 . S
C1191 H1207 0.931 . S
C1192 C1191 1.391 . S
C1192 C1196 1.376 . S
C1193 C1191 1.394 . S
C1193 C1194 1.369 . S
C1193 C1197 1.531 . S
C1194 C1193 1.369 . S
C1194 C1195 1.410 . S
C1194 C1202 1.503 . S
C1195 C1194 1.410 . S
C1195 C1196 1.392 . S
C1195 C1198 1.511 . S
C1196 C1192 1.376 . S
C1196 C1195 1.392 . S
C1196 H1208 0.929 . S
C1197 C1193 1.531 . S
C1197 H1209 0.960 . S
C1197 H1210 0.962 . S
C1197 H1211 0.960 . S
C1198 C1195 1.511 . S
C1198 H1212 0.961 . S
C1198 H1213 0.961 . S
C1198 H1214 0.961 . S
C1199 C1200 1.370 . S
C1199 C1201 1.363 . S
C1199 H1215 0.931 . S
C1200 C1199 1.370 . S
C1200 C1204 1.408 . S
C1201 C1199 1.363 . S
C1201 C1202 1.370 . S
C1201 C1205 1.524 . S
C1202 C1194 1.503 . S
C1202 C1201 1.370 . S
C1202 C1203 1.403 . S
C1203 C1202 1.403 . S
C1203 C1204 1.404 . S
C1203 C1206 1.539 . S
C1204 C1200 1.408 . S
C1204 C1203 1.404 . S
C1204 H1216 0.930 . S
C1205 C1201 1.524 . S
C1205 H1217 0.956 . S
C1205 H1218 0.961 . S
C1205 H1219 0.961 . S
C1206 C1203 1.539 . S
C1206 H1220 0.958 . S
C1206 H1221 0.961 . S
C1206 H1222 0.960 . S
H1207 C1191 0.931 . S
H1208 C1196 0.929 . S
H1209 C1197 0.960 . S
H1210 C1197 0.962 . S
H1211 C1197 0.960 . S
H1212 C1198 0.961 . S
H1213 C1198 0.961 . S
H1214 C1198 0.961 . S
H1215 C1199 0.931 . S
H1216 C1204 0.930 . S
H1217 C1205 0.956 . S
H1218 C1205 0.961 . S
H1219 C1205 0.961 . S
H1220 C1206 0.958 . S
H1221 C1206 0.961 . S
H1222 C1206 0.960 . S
C1223 C1224 1.391 . S
C1223 C1225 1.394 . S
C1223 H1239 0.931 . S
C1224 C1223 1.391 . S
C1224 C1228 1.376 . S
C1225 C1223 1.394 . S
C1225 C1226 1.369 . S
C1225 C1229 1.531 . S
C1226 C1225 1.369 . S
C1226 C1227 1.410 . S
C1226 C1234 1.503 . S
C1227 C1226 1.410 . S
C1227 C1228 1.392 . S
C1227 C1230 1.511 . S
C1228 C1224 1.376 . S
C1228 C1227 1.392 . S
C1228 H1240 0.929 . S
C1229 C1225 1.531 . S
C1229 H1241 0.960 . S
C1229 H1242 0.962 . S
C1229 H1243 0.960 . S
C1230 C1227 1.511 . S
C1230 H1244 0.961 . S
C1230 H1245 0.961 . S
C1230 H1246 0.961 . S
C1231 C1232 1.370 . S
C1231 C1233 1.363 . S
C1231 H1247 0.931 . S
C1232 C1231 1.370 . S
C1232 C1236 1.408 . S
C1233 C1231 1.363 . S
C1233 C1234 1.370 . S
C1233 C1237 1.524 . S
C1234 C1226 1.503 . S
C1234 C1233 1.370 . S
C1234 C1235 1.403 . S
C1235 C1234 1.403 . S
C1235 C1236 1.404 . S
C1235 C1238 1.539 . S
C1236 C1232 1.408 . S
C1236 C1235 1.404 . S
C1236 H1248 0.930 . S
C1237 C1233 1.524 . S
C1237 H1249 0.956 . S
C1237 H1250 0.961 . S
C1237 H1251 0.961 . S
C1238 C1235 1.539 . S
C1238 H1252 0.958 . S
C1238 H1253 0.961 . S
C1238 H1254 0.960 . S
H1239 C1223 0.931 . S
H1240 C1228 0.929 . S
H1241 C1229 0.960 . S
H1242 C1229 0.962 . S
H1243 C1229 0.960 . S
H1244 C1230 0.961 . S
H1245 C1230 0.961 . S
H1246 C1230 0.961 . S
H1247 C1231 0.931 . S
H1248 C1236 0.930 . S
H1249 C1237 0.956 . S
H1250 C1237 0.961 . S
H1251 C1237 0.961 . S
H1252 C1238 0.958 . S
H1253 C1238 0.961 . S
H1254 C1238 0.960 . S
C1255 C1256 1.391 . S
C1255 C1257 1.394 . S
C1255 H1271 0.931 . S
C1256 C1255 1.391 . S
C1256 C1260 1.376 . S
C1257 C1255 1.394 . S
C1257 C1258 1.369 . S
C1257 C1261 1.531 . S
C1258 C1257 1.369 . S
C1258 C1259 1.410 . S
C1258 C1266 1.503 . S
C1259 C1258 1.410 . S
C1259 C1260 1.392 . S
C1259 C1262 1.511 . S
C1260 C1256 1.376 . S
C1260 C1259 1.392 . S
C1260 H1272 0.929 . S
C1261 C1257 1.531 . S
C1261 H1273 0.960 . S
C1261 H1274 0.962 . S
C1261 H1275 0.960 . S
C1262 C1259 1.511 . S
C1262 H1276 0.961 . S
C1262 H1277 0.961 . S
C1262 H1278 0.961 . S
C1263 C1264 1.370 . S
C1263 C1265 1.363 . S
C1263 H1279 0.931 . S
C1264 C1263 1.370 . S
C1264 C1268 1.408 . S
C1265 C1263 1.363 . S
C1265 C1266 1.370 . S
C1265 C1269 1.524 . S
C1266 C1258 1.503 . S
C1266 C1265 1.370 . S
C1266 C1267 1.403 . S
C1267 C1266 1.403 . S
C1267 C1268 1.404 . S
C1267 C1270 1.539 . S
C1268 C1264 1.408 . S
C1268 C1267 1.404 . S
C1268 H1280 0.930 . S
C1269 C1265 1.524 . S
C1269 H1281 0.956 . S
C1269 H1282 0.961 . S
C1269 H1283 0.961 . S
C1270 C1267 1.539 . S
C1270 H1284 0.958 . S
C1270 H1285 0.961 . S
C1270 H1286 0.960 . S
H1271 C1255 0.931 . S
H1272 C1260 0.929 . S
H1273 C1261 0.960 . S
H1274 C1261 0.962 . S
H1275 C1261 0.960 . S
H1276 C1262 0.961 . S
H1277 C1262 0.961 . S
H1278 C1262 0.961 . S
H1279 C1263 0.931 . S
H1280 C1268 0.930 . S
H1281 C1269 0.956 . S
H1282 C1269 0.961 . S
H1283 C1269 0.961 . S
H1284 C1270 0.958 . S
H1285 C1270 0.961 . S
H1286 C1270 0.960 . S
C1287 C1288 1.391 . S
C1287 C1289 1.394 . S
C1287 H1303 0.931 . S
C1288 C1287 1.391 . S
C1288 C1292 1.376 . S
C1289 C1287 1.394 . S
C1289 C1290 1.369 . S
C1289 C1293 1.531 1_565 S
C1290 C1289 1.369 . S
C1290 C1291 1.415 . S
C1290 C1298 1.498 1_565 S
C1291 C1290 1.415 . S
C1291 C1292 1.392 . S
C1291 C1294 1.511 . S
C1292 C1288 1.376 . S
C1292 C1291 1.392 . S
C1292 H1304 0.929 . S
C1293 C1289 1.531 1_545 S
C1293 H1305 0.960 . S
C1293 H1306 0.962 . S
C1293 H1307 0.960 1_545 S
C1294 C1291 1.511 . S
C1294 H1308 0.961 . S
C1294 H1309 0.961 1_565 S
C1294 H1310 0.961 . S
C1295 C1296 1.370 . S
C1295 C1297 1.363 . S
C1295 H1311 0.931 . S
C1296 C1295 1.370 . S
C1296 C1300 1.408 . S
C1297 C1295 1.363 . S
C1297 C1298 1.370 . S
C1297 C1301 1.524 . S
C1298 C1290 1.498 1_545 S
C1298 C1297 1.370 . S
C1298 C1299 1.403 . S
C1299 C1298 1.403 . S
C1299 C1300 1.404 . S
C1299 C1302 1.539 . S
C1300 C1296 1.408 . S
C1300 C1299 1.404 . S
C1300 H1312 0.930 . S
C1301 C1297 1.524 . S
C1301 H1313 0.956 . S
C1301 H1314 0.961 . S
C1301 H1315 0.961 . S
C1302 C1299 1.539 . S
C1302 H1316 0.958 . S
C1302 H1317 0.961 . S
C1302 H1318 0.960 . S
H1303 C1287 0.931 . S
H1304 C1292 0.929 . S
H1305 C1293 0.960 . S
H1306 C1293 0.962 . S
H1307 C1293 0.960 1_565 S
H1308 C1294 0.961 . S
H1309 C1294 0.961 1_545 S
H1310 C1294 0.961 . S
H1311 C1295 0.931 . S
H1312 C1300 0.930 . S
H1313 C1301 0.956 . S
H1314 C1301 0.961 . S
H1315 C1301 0.961 . S
H1316 C1302 0.958 . S
H1317 C1302 0.961 . S
H1318 C1302 0.960 . S
C1319 C1320 1.391 . S
C1319 C1321 1.394 . S
C1319 H1335 0.931 . S
C1320 C1319 1.391 . S
C1320 C1324 1.376 . S
C1321 C1319 1.394 . S
C1321 C1322 1.369 . S
C1321 C1325 1.518 1_455 S
C1322 C1321 1.369 . S
C1322 C1323 1.410 . S
C1322 C1330 1.503 1_455 S
C1323 C1322 1.410 . S
C1323 C1324 1.392 . S
C1323 C1326 1.511 . S
C1324 C1320 1.376 . S
C1324 C1323 1.392 . S
C1324 H1336 0.929 . S
C1325 C1321 1.518 1_655 S
C1325 H1337 0.989 . S
C1325 H1338 0.961 . S
C1325 H1339 0.945 1_655 S
C1326 C1323 1.511 . S
C1326 H1340 0.961 . S
C1326 H1341 0.961 1_455 S
C1326 H1342 0.961 . S
C1327 C1328 1.370 . S
C1327 C1329 1.363 . S
C1327 H1343 0.931 . S
C1328 C1327 1.370 . S
C1328 C1332 1.408 . S
C1329 C1327 1.363 . S
C1329 C1330 1.370 . S
C1329 C1333 1.524 . S
C1330 C1322 1.503 1_655 S
C1330 C1329 1.370 . S
C1330 C1331 1.403 . S
C1331 C1330 1.403 . S
C1331 C1332 1.404 . S
C1331 C1334 1.539 . S
C1332 C1328 1.408 . S
C1332 C1331 1.404 . S
C1332 H1344 0.930 . S
C1333 C1329 1.524 . S
C1333 H1345 0.956 . S
C1333 H1346 0.961 . S
C1333 H1347 0.961 . S
C1334 C1331 1.539 . S
C1334 H1348 0.958 . S
C1334 H1349 0.961 . S
C1334 H1350 0.960 . S
H1335 C1319 0.931 . S
H1336 C1324 0.929 . S
H1337 C1325 0.989 . S
H1338 C1325 0.961 . S
H1339 C1325 0.945 1_455 S
H1340 C1326 0.961 . S
H1341 C1326 0.961 1_655 S
H1342 C1326 0.961 . S
H1343 C1327 0.931 . S
H1344 C1332 0.930 . S
H1345 C1333 0.956 . S
H1346 C1333 0.961 . S
H1347 C1333 0.961 . S
H1348 C1334 0.958 . S
H1349 C1334 0.961 . S
H1350 C1334 0.960 . S
C1351 C1352 1.391 . S
C1351 C1353 1.394 . S
C1351 H1367 0.931 . S
C1352 C1351 1.391 . S
C1352 C1356 1.376 . S
C1353 C1351 1.394 . S
C1353 C1354 1.369 . S
C1353 C1357 1.531 . S
C1354 C1353 1.369 . S
C1354 C1355 1.410 . S
C1354 C1362 1.503 . S
C1355 C1354 1.410 . S
C1355 C1356 1.392 . S
C1355 C1358 1.511 . S
C1356 C1352 1.376 . S
C1356 C1355 1.392 . S
C1356 H1368 0.929 . S
C1357 C1353 1.531 . S
C1357 H1369 0.960 . S
C1357 H1370 0.962 . S
C1357 H1371 0.960 . S
C1358 C1355 1.511 . S
C1358 H1372 0.961 . S
C1358 H1373 0.961 . S
C1358 H1374 0.961 . S
C1359 C1360 1.370 . S
C1359 C1361 1.363 . S
C1359 H1375 0.931 . S
C1360 C1359 1.370 . S
C1360 C1364 1.408 . S
C1361 C1359 1.363 . S
C1361 C1362 1.370 . S
C1361 C1365 1.524 . S
C1362 C1354 1.503 . S
C1362 C1361 1.370 . S
C1362 C1363 1.403 . S
C1363 C1362 1.403 . S
C1363 C1364 1.404 . S
C1363 C1366 1.539 . S
C1364 C1360 1.408 . S
C1364 C1363 1.404 . S
C1364 H1376 0.930 . S
C1365 C1361 1.524 . S
C1365 H1377 0.956 . S
C1365 H1378 0.961 . S
C1365 H1379 0.961 . S
C1366 C1363 1.539 . S
C1366 H1380 0.958 . S
C1366 H1381 0.961 . S
C1366 H1382 0.960 . S
H1367 C1351 0.931 . S
H1368 C1356 0.929 . S
H1369 C1357 0.960 . S
H1370 C1357 0.962 . S
H1371 C1357 0.960 . S
H1372 C1358 0.961 . S
H1373 C1358 0.961 . S
H1374 C1358 0.961 . S
H1375 C1359 0.931 . S
H1376 C1364 0.930 . S
H1377 C1365 0.956 . S
H1378 C1365 0.961 . S
H1379 C1365 0.961 . S
H1380 C1366 0.958 . S
H1381 C1366 0.961 . S
H1382 C1366 0.960 . S
C1383 C1384 1.391 . S
C1383 C1385 1.394 . S
C1383 H1399 0.931 . S
C1384 C1383 1.391 . S
C1384 C1388 1.376 . S
C1385 C1383 1.394 . S
C1385 C1386 1.369 . S
C1385 C1389 1.531 . S
C1386 C1385 1.369 . S
C1386 C1387 1.410 . S
C1386 C1394 1.503 . S
C1387 C1386 1.410 . S
C1387 C1388 1.392 . S
C1387 C1390 1.511 . S
C1388 C1384 1.376 . S
C1388 C1387 1.392 . S
C1388 H1400 0.929 . S
C1389 C1385 1.531 . S
C1389 H1401 0.960 . S
C1389 H1402 0.962 . S
C1389 H1403 0.960 . S
C1390 C1387 1.511 . S
C1390 H1404 0.961 . S
C1390 H1405 0.961 . S
C1390 H1406 0.961 . S
C1391 C1392 1.370 . S
C1391 C1393 1.363 . S
C1391 H1407 0.931 . S
C1392 C1391 1.370 . S
C1392 C1396 1.408 . S
C1393 C1391 1.363 . S
C1393 C1394 1.370 1_655 S
C1393 C1397 1.524 1_655 S
C1394 C1386 1.503 . S
C1394 C1393 1.370 1_455 S
C1394 C1395 1.403 1_455 S
C1395 C1394 1.403 1_655 S
C1395 C1396 1.404 . S
C1395 C1398 1.539 . S
C1396 C1392 1.408 . S
C1396 C1395 1.404 . S
C1396 H1408 0.930 . S
C1397 C1393 1.524 1_455 S
C1397 H1409 0.956 . S
C1397 H1410 0.961 . S
C1397 H1411 0.961 . S
C1398 C1395 1.539 . S
C1398 H1412 0.958 . S
C1398 H1413 0.961 . S
C1398 H1414 0.960 1_655 S
H1399 C1383 0.931 . S
H1400 C1388 0.929 . S
H1401 C1389 0.960 . S
H1402 C1389 0.962 . S
H1403 C1389 0.960 . S
H1404 C1390 0.961 . S
H1405 C1390 0.961 . S
H1406 C1390 0.961 . S
H1407 C1391 0.931 . S
H1408 C1396 0.930 . S
H1409 C1397 0.956 . S
H1410 C1397 0.961 . S
H1411 C1397 0.961 . S
H1412 C1398 0.958 . S
H1413 C1398 0.961 . S
H1414 C1398 0.960 1_455 S
C1415 C1416 1.391 . S
C1415 C1417 1.394 . S
C1415 H1431 0.931 . S
C1416 C1415 1.391 . S
C1416 C1420 1.376 . S
C1417 C1415 1.394 . S
C1417 C1418 1.369 . S
C1417 C1421 1.531 . S
C1418 C1417 1.369 . S
C1418 C1419 1.410 . S
C1418 C1426 1.503 . S
C1419 C1418 1.410 . S
C1419 C1420 1.392 . S
C1419 C1422 1.511 . S
C1420 C1416 1.376 . S
C1420 C1419 1.392 . S
C1420 H1432 0.929 . S
C1421 C1417 1.531 . S
C1421 H1433 0.960 . S
C1421 H1434 0.962 . S
C1421 H1435 0.960 . S
C1422 C1419 1.511 . S
C1422 H1436 0.961 . S
C1422 H1437 0.961 . S
C1422 H1438 0.961 . S
C1423 C1424 1.370 . S
C1423 C1425 1.363 . S
C1423 H1439 0.931 . S
C1424 C1423 1.370 . S
C1424 C1428 1.408 . S
C1425 C1423 1.363 . S
C1425 C1426 1.370 . S
C1425 C1429 1.524 . S
C1426 C1418 1.503 . S
C1426 C1425 1.370 . S
C1426 C1427 1.403 . S
C1427 C1426 1.403 . S
C1427 C1428 1.404 . S
C1427 C1430 1.539 . S
C1428 C1424 1.408 . S
C1428 C1427 1.404 . S
C1428 H1440 0.930 . S
C1429 C1425 1.524 . S
C1429 H1441 0.956 . S
C1429 H1442 0.961 . S
C1429 H1443 0.961 . S
C1430 C1427 1.539 . S
C1430 H1444 0.958 . S
C1430 H1445 0.961 . S
C1430 H1446 0.960 . S
H1431 C1415 0.931 . S
H1432 C1420 0.929 . S
H1433 C1421 0.960 . S
H1434 C1421 0.962 . S
H1435 C1421 0.960 . S
H1436 C1422 0.961 . S
H1437 C1422 0.961 . S
H1438 C1422 0.961 . S
H1439 C1423 0.931 . S
H1440 C1428 0.930 . S
H1441 C1429 0.956 . S
H1442 C1429 0.961 . S
H1443 C1429 0.961 . S
H1444 C1430 0.958 . S
H1445 C1430 0.961 . S
H1446 C1430 0.960 . S
C1447 C1448 1.391 . S
C1447 C1449 1.394 . S
C1447 H1463 0.931 . S
C1448 C1447 1.391 . S
C1448 C1452 1.376 . S
C1449 C1447 1.394 . S
C1449 C1450 1.369 . S
C1449 C1453 1.531 . S
C1450 C1449 1.369 . S
C1450 C1451 1.410 . S
C1450 C1458 1.503 1_565 S
C1451 C1450 1.410 . S
C1451 C1452 1.392 . S
C1451 C1454 1.511 1_565 S
C1452 C1448 1.376 . S
C1452 C1451 1.392 . S
C1452 H1464 0.929 . S
C1453 C1449 1.531 . S
C1453 H1465 0.960 . S
C1453 H1466 0.962 . S
C1453 H1467 0.960 . S
C1454 C1451 1.511 1_545 S
C1454 H1468 0.961 . S
C1454 H1469 0.961 . S
C1454 H1470 0.961 . S
C1455 C1456 1.370 . S
C1455 C1457 1.363 . S
C1455 H1471 0.931 . S
C1456 C1455 1.370 . S
C1456 C1460 1.408 . S
C1457 C1455 1.363 . S
C1457 C1458 1.370 . S
C1457 C1461 1.524 . S
C1458 C1450 1.503 1_545 S
C1458 C1457 1.370 . S
C1458 C1459 1.403 . S
C1459 C1458 1.403 . S
C1459 C1460 1.404 . S
C1459 C1462 1.539 . S
C1460 C1456 1.408 . S
C1460 C1459 1.404 . S
C1460 H1472 0.930 . S
C1461 C1457 1.524 . S
C1461 H1473 0.956 . S
C1461 H1474 0.961 . S
C1461 H1475 0.961 . S
C1462 C1459 1.539 . S
C1462 H1476 0.958 . S
C1462 H1477 0.961 . S
C1462 H1478 0.960 . S
H1463 C1447 0.931 . S
H1464 C1452 0.929 . S
H1465 C1453 0.960 . S
H1466 C1453 0.962 . S
H1467 C1453 0.960 . S
H1468 C1454 0.961 . S
H1469 C1454 0.961 . S
H1470 C1454 0.961 . S
H1471 C1455 0.931 . S
H1472 C1460 0.930 . S
H1473 C1461 0.956 . S
H1474 C1461 0.961 . S
H1475 C1461 0.961 . S
H1476 C1462 0.958 . S
H1477 C1462 0.961 . S
H1478 C1462 0.960 . S
C1479 C1480 1.391 . S
C1479 C1481 1.394 . S
C1479 H1495 0.931 . S
C1480 C1479 1.391 . S
C1480 C1484 1.376 . S
C1481 C1479 1.394 . S
C1481 C1482 1.369 . S
C1481 C1485 1.531 . S
C1482 C1481 1.369 . S
C1482 C1483 1.410 . S
C1482 C1490 1.503 . S
C1483 C1482 1.410 . S
C1483 C1484 1.392 . S
C1483 C1486 1.511 . S
C1484 C1480 1.376 . S
C1484 C1483 1.392 . S
C1484 H1496 0.929 . S
C1485 C1481 1.531 . S
C1485 H1497 0.960 . S
C1485 H1498 0.962 . S
C1485 H1499 0.960 . S
C1486 C1483 1.511 . S
C1486 H1500 0.961 . S
C1486 H1501 0.961 . S
C1486 H1502 0.961 . S
C1487 C1488 1.370 . S
C1487 C1489 1.363 . S
C1487 H1503 0.931 . S
C1488 C1487 1.370 . S
C1488 C1492 1.408 . S
C1489 C1487 1.363 . S
C1489 C1490 1.370 . S
C1489 C1493 1.524 . S
C1490 C1482 1.503 . S
C1490 C1489 1.370 . S
C1490 C1491 1.403 . S
C1491 C1490 1.403 . S
C1491 C1492 1.404 . S
C1491 C1494 1.539 . S
C1492 C1488 1.408 . S
C1492 C1491 1.404 . S
C1492 H1504 0.930 . S
C1493 C1489 1.524 . S
C1493 H1505 0.956 . S
C1493 H1506 0.961 . S
C1493 H1507 0.961 . S
C1494 C1491 1.539 . S
C1494 H1508 0.958 . S
C1494 H1509 0.961 . S
C1494 H1510 0.960 . S
H1495 C1479 0.931 . S
H1496 C1484 0.929 . S
H1497 C1485 0.960 . S
H1498 C1485 0.962 . S
H1499 C1485 0.960 . S
H1500 C1486 0.961 . S
H1501 C1486 0.961 . S
H1502 C1486 0.961 . S
H1503 C1487 0.931 . S
H1504 C1492 0.930 . S
H1505 C1493 0.956 . S
H1506 C1493 0.961 . S
H1507 C1493 0.961 . S
H1508 C1494 0.958 . S
H1509 C1494 0.961 . S
H1510 C1494 0.960 . S
C1511 C1512 1.391 . S
C1511 C1513 1.394 . S
C1511 H1527 0.931 . S
C1512 C1511 1.391 . S
C1512 C1516 1.376 . S
C1513 C1511 1.394 . S
C1513 C1514 1.369 . S
C1513 C1517 1.531 . S
C1514 C1513 1.369 . S
C1514 C1515 1.410 . S
C1514 C1522 1.503 . S
C1515 C1514 1.410 . S
C1515 C1516 1.392 . S
C1515 C1518 1.511 . S
C1516 C1512 1.376 . S
C1516 C1515 1.392 . S
C1516 H1528 0.929 . S
C1517 C1513 1.531 . S
C1517 H1529 0.960 . S
C1517 H1530 0.962 . S
C1517 H1531 0.960 . S
C1518 C1515 1.511 . S
C1518 H1532 0.961 . S
C1518 H1533 0.961 . S
C1518 H1534 0.961 . S
C1519 C1520 1.370 . S
C1519 C1521 1.363 . S
C1519 H1535 0.931 . S
C1520 C1519 1.370 . S
C1520 C1524 1.408 . S
C1521 C1519 1.363 . S
C1521 C1522 1.370 . S
C1521 C1525 1.524 . S
C1522 C1514 1.503 . S
C1522 C1521 1.370 . S
C1522 C1523 1.403 . S
C1523 C1522 1.403 . S
C1523 C1524 1.404 . S
C1523 C1526 1.539 . S
C1524 C1520 1.408 . S
C1524 C1523 1.404 . S
C1524 H1536 0.930 . S
C1525 C1521 1.524 . S
C1525 H1537 0.956 . S
C1525 H1538 0.961 . S
C1525 H1539 0.961 . S
C1526 C1523 1.539 . S
C1526 H1540 0.958 . S
C1526 H1541 0.961 . S
C1526 H1542 0.960 . S
H1527 C1511 0.931 . S
H1528 C1516 0.929 . S
H1529 C1517 0.960 . S
H1530 C1517 0.962 . S
H1531 C1517 0.960 . S
H1532 C1518 0.961 . S
H1533 C1518 0.961 . S
H1534 C1518 0.961 . S
H1535 C1519 0.931 . S
H1536 C1524 0.930 . S
H1537 C1525 0.956 . S
H1538 C1525 0.961 . S
H1539 C1525 0.961 . S
H1540 C1526 0.958 . S
H1541 C1526 0.961 . S
H1542 C1526 0.960 . S
C1543 C1544 1.391 . S
C1543 C1545 1.394 . S
C1543 H1559 0.931 . S
C1544 C1543 1.391 . S
C1544 C1548 1.376 . S
C1545 C1543 1.394 . S
C1545 C1546 1.369 . S
C1545 C1549 1.531 . S
C1546 C1545 1.369 . S
C1546 C1547 1.410 . S
C1546 C1554 1.503 . S
C1547 C1546 1.410 . S
C1547 C1548 1.392 . S
C1547 C1550 1.511 . S
C1548 C1544 1.376 . S
C1548 C1547 1.392 . S
C1548 H1560 0.929 . S
C1549 C1545 1.531 . S
C1549 H1561 0.960 . S
C1549 H1562 0.962 . S
C1549 H1563 0.960 . S
C1550 C1547 1.511 . S
C1550 H1564 0.961 . S
C1550 H1565 0.961 . S
C1550 H1566 0.961 . S
C1551 C1552 1.370 . S
C1551 C1553 1.363 . S
C1551 H1567 0.931 . S
C1552 C1551 1.370 . S
C1552 C1556 1.408 . S
C1553 C1551 1.363 . S
C1553 C1554 1.370 . S
C1553 C1557 1.524 . S
C1554 C1546 1.503 . S
C1554 C1553 1.370 . S
C1554 C1555 1.403 . S
C1555 C1554 1.403 . S
C1555 C1556 1.404 . S
C1555 C1558 1.539 . S
C1556 C1552 1.408 . S
C1556 C1555 1.404 . S
C1556 H1568 0.930 . S
C1557 C1553 1.524 . S
C1557 H1569 0.956 . S
C1557 H1570 0.961 . S
C1557 H1571 0.961 . S
C1558 C1555 1.539 . S
C1558 H1572 0.958 . S
C1558 H1573 0.961 . S
C1558 H1574 0.960 . S
H1559 C1543 0.931 . S
H1560 C1548 0.929 . S
H1561 C1549 0.960 . S
H1562 C1549 0.962 . S
H1563 C1549 0.960 . S
H1564 C1550 0.961 . S
H1565 C1550 0.961 . S
H1566 C1550 0.961 . S
H1567 C1551 0.931 . S
H1568 C1556 0.930 . S
H1569 C1557 0.956 . S
H1570 C1557 0.961 . S
H1571 C1557 0.961 . S
H1572 C1558 0.958 . S
H1573 C1558 0.961 . S
H1574 C1558 0.960 . S
C1575 C1576 1.391 . S
C1575 C1577 1.394 . S
C1575 H1591 0.931 . S
C1576 C1575 1.391 . S
C1576 C1580 1.376 . S
C1577 C1575 1.394 . S
C1577 C1578 1.369 . S
C1577 C1581 1.531 . S
C1578 C1577 1.369 . S
C1578 C1579 1.410 . S
C1578 C1586 1.503 . S
C1579 C1578 1.410 . S
C1579 C1580 1.392 . S
C1579 C1582 1.511 . S
C1580 C1576 1.376 . S
C1580 C1579 1.392 . S
C1580 H1592 0.929 . S
C1581 C1577 1.531 . S
C1581 H1593 0.960 . S
C1581 H1594 0.962 . S
C1581 H1595 0.960 . S
C1582 C1579 1.511 . S
C1582 H1596 0.961 . S
C1582 H1597 0.961 . S
C1582 H1598 0.961 . S
C1583 C1584 1.370 . S
C1583 C1585 1.363 . S
C1583 H1599 0.931 . S
C1584 C1583 1.370 . S
C1584 C1588 1.408 . S
C1585 C1583 1.363 . S
C1585 C1586 1.370 . S
C1585 C1589 1.524 . S
C1586 C1578 1.503 . S
C1586 C1585 1.370 . S
C1586 C1587 1.403 . S
C1587 C1586 1.403 . S
C1587 C1588 1.404 . S
C1587 C1590 1.539 . S
C1588 C1584 1.408 . S
C1588 C1587 1.404 . S
C1588 H1600 0.930 1_565 S
C1589 C1585 1.524 . S
C1589 H1601 0.956 . S
C1589 H1602 0.961 . S
C1589 H1603 0.961 . S
C1590 C1587 1.539 . S
C1590 H1604 0.958 1_565 S
C1590 H1605 0.954 . S
C1590 H1606 0.960 . S
H1591 C1575 0.931 . S
H1592 C1580 0.929 . S
H1593 C1581 0.960 . S
H1594 C1581 0.962 . S
H1595 C1581 0.960 . S
H1596 C1582 0.961 . S
H1597 C1582 0.961 . S
H1598 C1582 0.961 . S
H1599 C1583 0.931 . S
H1600 C1588 0.930 1_545 S
H1601 C1589 0.956 . S
H1602 C1589 0.961 . S
H1603 C1589 0.961 . S
H1604 C1590 0.958 1_545 S
H1605 C1590 0.954 . S
H1606 C1590 0.960 . S
C1607 C1608 1.391 . S
C1607 C1609 1.394 . S
C1607 H1623 0.931 . S
C1608 C1607 1.391 . S
C1608 C1612 1.376 . S
C1609 C1607 1.394 . S
C1609 C1610 1.369 . S
C1609 C1613 1.531 . S
C1610 C1609 1.369 . S
C1610 C1611 1.410 . S
C1610 C1618 1.503 . S
C1611 C1610 1.410 . S
C1611 C1612 1.392 . S
C1611 C1614 1.511 . S
C1612 C1608 1.376 . S
C1612 C1611 1.392 . S
C1612 H1624 0.929 . S
C1613 C1609 1.531 . S
C1613 H1625 0.960 . S
C1613 H1626 0.962 . S
C1613 H1627 0.960 . S
C1614 C1611 1.511 . S
C1614 H1628 0.961 . S
C1614 H1629 0.961 . S
C1614 H1630 0.961 . S
C1615 C1616 1.370 . S
C1615 C1617 1.363 . S
C1615 H1631 0.931 1_455 S
C1616 C1615 1.370 . S
C1616 C1620 1.408 . S
C1617 C1615 1.363 . S
C1617 C1618 1.370 . S
C1617 C1621 1.524 1_455 S
C1618 C1610 1.503 . S
C1618 C1617 1.370 . S
C1618 C1619 1.403 . S
C1619 C1618 1.403 . S
C1619 C1620 1.404 . S
C1619 C1622 1.539 . S
C1620 C1616 1.408 . S
C1620 C1619 1.404 . S
C1620 H1632 0.930 . S
C1621 C1617 1.524 1_655 S
C1621 H1633 0.956 . S
C1621 H1634 0.961 1_655 S
C1621 H1635 0.961 . S
C1622 C1619 1.539 . S
C1622 H1636 0.958 . S
C1622 H1637 0.961 . S
C1622 H1638 0.960 . S
H1623 C1607 0.931 . S
H1624 C1612 0.929 . S
H1625 C1613 0.960 . S
H1626 C1613 0.962 . S
H1627 C1613 0.960 . S
H1628 C1614 0.961 . S
H1629 C1614 0.961 . S
H1630 C1614 0.961 . S
H1631 C1615 0.931 1_655 S
H1632 C1620 0.930 . S
H1633 C1621 0.956 . S
H1634 C1621 0.961 1_455 S
H1635 C1621 0.961 . S
H1636 C1622 0.958 . S
H1637 C1622 0.961 . S
H1638 C1622 0.960 . S
C1639 C1640 1.391 . S
C1639 C1641 1.394 . S
C1639 H1655 0.931 . S
C1640 C1639 1.391 . S
C1640 C1644 1.376 . S
C1641 C1639 1.394 . S
C1641 C1642 1.369 . S
C1641 C1645 1.531 . S
C1642 C1641 1.369 . S
C1642 C1643 1.410 . S
C1642 C1650 1.503 . S
C1643 C1642 1.410 . S
C1643 C1644 1.392 . S
C1643 C1646 1.511 . S
C1644 C1640 1.376 . S
C1644 C1643 1.392 . S
C1644 H1656 0.929 . S
C1645 C1641 1.531 . S
C1645 H1657 0.960 . S
C1645 H1658 0.962 . S
C1645 H1659 0.960 . S
C1646 C1643 1.511 . S
C1646 H1660 0.961 . S
C1646 H1661 0.961 . S
C1646 H1662 0.961 . S
C1647 C1648 1.370 . S
C1647 C1649 1.363 . S
C1647 H1663 0.931 . S
C1648 C1647 1.370 . S
C1648 C1652 1.408 . S
C1649 C1647 1.363 . S
C1649 C1650 1.370 . S
C1649 C1653 1.524 . S
C1650 C1642 1.503 . S
C1650 C1649 1.370 . S
C1650 C1651 1.403 . S
C1651 C1650 1.403 . S
C1651 C1652 1.404 . S
C1651 C1654 1.539 . S
C1652 C1648 1.408 . S
C1652 C1651 1.404 . S
C1652 H1664 0.930 . S
C1653 C1649 1.524 . S
C1653 H1665 0.956 . S
C1653 H1666 0.961 . S
C1653 H1667 0.961 . S
C1654 C1651 1.539 . S
C1654 H1668 0.958 . S
C1654 H1669 0.961 . S
C1654 H1670 0.960 . S
H1655 C1639 0.931 . S
H1656 C1644 0.929 . S
H1657 C1645 0.960 . S
H1658 C1645 0.962 . S
H1659 C1645 0.960 . S
H1660 C1646 0.961 . S
H1661 C1646 0.961 . S
H1662 C1646 0.961 . S
H1663 C1647 0.931 . S
H1664 C1652 0.930 . S
H1665 C1653 0.956 . S
H1666 C1653 0.961 . S
H1667 C1653 0.961 . S
H1668 C1654 0.958 . S
H1669 C1654 0.961 . S
H1670 C1654 0.960 . S
C1671 C1672 1.391 . S
C1671 C1673 1.394 . S
C1671 H1687 0.931 . S
C1672 C1671 1.391 . S
C1672 C1676 1.376 . S
C1673 C1671 1.394 . S
C1673 C1674 1.369 . S
C1673 C1677 1.531 1_655 S
C1674 C1673 1.369 . S
C1674 C1675 1.410 . S
C1674 C1682 1.503 . S
C1675 C1674 1.410 . S
C1675 C1676 1.392 . S
C1675 C1678 1.511 . S
C1676 C1672 1.376 . S
C1676 C1675 1.392 . S
C1676 H1688 0.929 . S
C1677 C1673 1.531 1_455 S
C1677 H1689 0.960 . S
C1677 H1690 0.962 . S
C1677 H1691 0.960 . S
C1678 C1675 1.511 . S
C1678 H1692 0.961 . S
C1678 H1693 0.961 . S
C1678 H1694 0.961 . S
C1679 C1680 1.370 . S
C1679 C1681 1.363 . S
C1679 H1695 0.931 . S
C1680 C1679 1.370 . S
C1680 C1684 1.408 . S
C1681 C1679 1.363 . S
C1681 C1682 1.370 . S
C1681 C1685 1.524 . S
C1682 C1674 1.503 . S
C1682 C1681 1.370 . S
C1682 C1683 1.403 . S
C1683 C1682 1.403 . S
C1683 C1684 1.404 . S
C1683 C1686 1.539 . S
C1684 C1680 1.408 . S
C1684 C1683 1.404 . S
C1684 H1696 0.930 . S
C1685 C1681 1.524 . S
C1685 H1697 0.956 . S
C1685 H1698 0.961 . S
C1685 H1699 0.961 . S
C1686 C1683 1.539 . S
C1686 H1700 0.958 . S
C1686 H1701 0.961 . S
C1686 H1702 0.960 . S
H1687 C1671 0.931 . S
H1688 C1676 0.929 . S
H1689 C1677 0.960 . S
H1690 C1677 0.962 . S
H1691 C1677 0.960 . S
H1692 C1678 0.961 . S
H1693 C1678 0.961 . S
H1694 C1678 0.961 . S
H1695 C1679 0.931 . S
H1696 C1684 0.930 . S
H1697 C1685 0.956 . S
H1698 C1685 0.961 . S
H1699 C1685 0.961 . S
H1700 C1686 0.958 . S
H1701 C1686 0.961 . S
H1702 C1686 0.960 . S
C1703 C1704 1.391 . S
C1703 C1705 1.394 . S
C1703 H1719 0.931 . S
C1704 C1703 1.391 . S
C1704 C1708 1.376 . S
C1705 C1703 1.394 . S
C1705 C1706 1.369 . S
C1705 C1709 1.531 . S
C1706 C1705 1.369 . S
C1706 C1707 1.410 . S
C1706 C1714 1.503 . S
C1707 C1706 1.410 . S
C1707 C1708 1.392 . S
C1707 C1710 1.511 . S
C1708 C1704 1.376 . S
C1708 C1707 1.392 . S
C1708 H1720 0.929 . S
C1709 C1705 1.531 . S
C1709 H1721 0.960 . S
C1709 H1722 0.962 . S
C1709 H1723 0.960 . S
C1710 C1707 1.511 . S
C1710 H1724 0.961 . S
C1710 H1725 0.961 . S
C1710 H1726 0.961 . S
C1711 C1712 1.370 . S
C1711 C1713 1.363 . S
C1711 H1727 0.931 . S
C1712 C1711 1.370 . S
C1712 C1716 1.408 . S
C1713 C1711 1.363 . S
C1713 C1714 1.370 . S
C1713 C1717 1.524 . S
C1714 C1706 1.503 . S
C1714 C1713 1.370 . S
C1714 C1715 1.403 . S
C1715 C1714 1.403 . S
C1715 C1716 1.404 . S
C1715 C1718 1.539 . S
C1716 C1712 1.408 . S
C1716 C1715 1.404 . S
C1716 H1728 0.930 . S
C1717 C1713 1.524 . S
C1717 H1729 0.956 . S
C1717 H1730 0.961 . S
C1717 H1731 0.961 . S
C1718 C1715 1.539 . S
C1718 H1732 0.958 . S
C1718 H1733 0.961 . S
C1718 H1734 0.960 . S
H1719 C1703 0.931 . S
H1720 C1708 0.929 . S
H1721 C1709 0.960 . S
H1722 C1709 0.962 . S
H1723 C1709 0.960 . S
H1724 C1710 0.961 . S
H1725 C1710 0.961 . S
H1726 C1710 0.961 . S
H1727 C1711 0.931 . S
H1728 C1716 0.930 . S
H1729 C1717 0.956 . S
H1730 C1717 0.961 . S
H1731 C1717 0.961 . S
H1732 C1718 0.958 . S
H1733 C1718 0.961 . S
H1734 C1718 0.960 . S
C1735 C1736 1.391 . S
C1735 C1737 1.394 . S
C1735 H1751 0.931 . S
C1736 C1735 1.391 . S
C1736 C1740 1.376 . S
C1737 C1735 1.394 . S
C1737 C1738 1.369 . S
C1737 C1741 1.531 . S
C1738 C1737 1.369 . S
C1738 C1739 1.410 . S
C1738 C1746 1.503 . S
C1739 C1738 1.410 . S
C1739 C1740 1.392 . S
C1739 C1742 1.511 . S
C1740 C1736 1.376 . S
C1740 C1739 1.392 . S
C1740 H1752 0.929 . S
C1741 C1737 1.531 . S
C1741 H1753 0.960 . S
C1741 H1754 0.962 . S
C1741 H1755 0.960 . S
C1742 C1739 1.511 . S
C1742 H1756 0.961 . S
C1742 H1757 0.961 . S
C1742 H1758 0.961 . S
C1743 C1744 1.370 . S
C1743 C1745 1.363 . S
C1743 H1759 0.931 . S
C1744 C1743 1.370 . S
C1744 C1748 1.408 . S
C1745 C1743 1.363 . S
C1745 C1746 1.370 . S
C1745 C1749 1.524 . S
C1746 C1738 1.503 . S
C1746 C1745 1.370 . S
C1746 C1747 1.403 . S
C1747 C1746 1.403 . S
C1747 C1748 1.404 . S
C1747 C1750 1.539 . S
C1748 C1744 1.408 . S
C1748 C1747 1.404 . S
C1748 H1760 0.930 1_545 S
C1749 C1745 1.524 . S
C1749 H1761 0.956 . S
C1749 H1762 0.961 . S
C1749 H1763 0.961 . S
C1750 C1747 1.539 . S
C1750 H1764 0.958 1_545 S
C1750 H1765 0.961 1_545 S
C1750 H1766 0.960 . S
H1751 C1735 0.931 . S
H1752 C1740 0.929 . S
H1753 C1741 0.960 . S
H1754 C1741 0.962 . S
H1755 C1741 0.960 . S
H1756 C1742 0.961 . S
H1757 C1742 0.961 . S
H1758 C1742 0.961 . S
H1759 C1743 0.931 . S
H1760 C1748 0.930 1_565 S
H1761 C1749 0.956 . S
H1762 C1749 0.961 . S
H1763 C1749 0.961 . S
H1764 C1750 0.958 1_565 S
H1765 C1750 0.961 1_565 S
H1766 C1750 0.960 . S
C1767 C1768 1.391 . S
C1767 C1769 1.394 . S
C1767 H1783 0.931 . S
C1768 C1767 1.391 . S
C1768 C1772 1.376 . S
C1769 C1767 1.394 . S
C1769 C1770 1.369 . S
C1769 C1773 1.531 . S
C1770 C1769 1.369 . S
C1770 C1771 1.410 . S
C1770 C1778 1.503 . S
C1771 C1770 1.410 . S
C1771 C1772 1.392 . S
C1771 C1774 1.511 . S
C1772 C1768 1.376 . S
C1772 C1771 1.392 . S
C1772 H1784 0.929 . S
C1773 C1769 1.531 . S
C1773 H1785 0.960 . S
C1773 H1786 0.962 . S
C1773 H1787 0.960 . S
C1774 C1771 1.511 . S
C1774 H1788 0.961 . S
C1774 H1789 0.961 . S
C1774 H1790 0.961 . S
C1775 C1776 1.370 . S
C1775 C1777 1.363 . S
C1775 H1791 0.931 . S
C1776 C1775 1.370 . S
C1776 C1780 1.408 . S
C1777 C1775 1.363 . S
C1777 C1778 1.370 . S
C1777 C1781 1.524 . S
C1778 C1770 1.503 . S
C1778 C1777 1.370 . S
C1778 C1779 1.403 . S
C1779 C1778 1.403 . S
C1779 C1780 1.404 . S
C1779 C1782 1.539 . S
C1780 C1776 1.408 . S
C1780 C1779 1.404 . S
C1780 H1792 0.930 . S
C1781 C1777 1.524 . S
C1781 H1793 0.956 . S
C1781 H1794 0.961 . S
C1781 H1795 0.961 . S
C1782 C1779 1.539 . S
C1782 H1796 0.958 . S
C1782 H1797 0.961 . S
C1782 H1798 0.960 . S
H1783 C1767 0.931 . S
H1784 C1772 0.929 . S
H1785 C1773 0.960 . S
H1786 C1773 0.962 . S
H1787 C1773 0.960 . S
H1788 C1774 0.961 . S
H1789 C1774 0.961 . S
H1790 C1774 0.961 . S
H1791 C1775 0.931 . S
H1792 C1780 0.930 . S
H1793 C1781 0.956 . S
H1794 C1781 0.961 . S
H1795 C1781 0.961 . S
H1796 C1782 0.958 . S
H1797 C1782 0.961 . S
H1798 C1782 0.960 . S
C1799 C1800 1.391 . S
C1799 C1801 1.394 . S
C1799 H1815 0.931 . S
C1800 C1799 1.391 . S
C1800 C1804 1.376 . S
C1801 C1799 1.394 . S
C1801 C1802 1.369 . S
C1801 C1805 1.531 . S
C1802 C1801 1.369 . S
C1802 C1803 1.410 . S
C1802 C1810 1.503 . S
C1803 C1802 1.410 . S
C1803 C1804 1.392 . S
C1803 C1806 1.511 . S
C1804 C1800 1.376 . S
C1804 C1803 1.392 . S
C1804 H1816 0.929 . S
C1805 C1801 1.531 . S
C1805 H1817 0.960 . S
C1805 H1818 0.962 . S
C1805 H1819 0.960 . S
C1806 C1803 1.511 . S
C1806 H1820 0.961 . S
C1806 H1821 0.961 . S
C1806 H1822 0.961 . S
C1807 C1808 1.370 . S
C1807 C1809 1.363 . S
C1807 H1823 0.931 . S
C1808 C1807 1.370 . S
C1808 C1812 1.408 . S
C1809 C1807 1.363 . S
C1809 C1810 1.370 . S
C1809 C1813 1.524 . S
C1810 C1802 1.503 . S
C1810 C1809 1.370 . S
C1810 C1811 1.403 . S
C1811 C1810 1.403 . S
C1811 C1812 1.404 . S
C1811 C1814 1.539 . S
C1812 C1808 1.408 . S
C1812 C1811 1.404 . S
C1812 H1824 0.930 . S
C1813 C1809 1.524 . S
C1813 H1825 0.956 . S
C1813 H1826 0.961 . S
C1813 H1827 0.961 . S
C1814 C1811 1.539 . S
C1814 H1828 0.958 . S
C1814 H1829 0.961 . S
C1814 H1830 0.960 . S
H1815 C1799 0.931 . S
H1816 C1804 0.929 . S
H1817 C1805 0.960 . S
H1818 C1805 0.962 . S
H1819 C1805 0.960 . S
H1820 C1806 0.961 . S
H1821 C1806 0.961 . S
H1822 C1806 0.961 . S
H1823 C1807 0.931 . S
H1824 C1812 0.930 . S
H1825 C1813 0.956 . S
H1826 C1813 0.961 . S
H1827 C1813 0.961 . S
H1828 C1814 0.958 . S
H1829 C1814 0.961 . S
H1830 C1814 0.960 . S
C1831 C1832 1.391 . S
C1831 C1833 1.394 . S
C1831 H1847 0.931 . S
C1832 C1831 1.391 . S
C1832 C1836 1.376 . S
C1833 C1831 1.394 . S
C1833 C1834 1.369 . S
C1833 C1837 1.531 . S
C1834 C1833 1.369 . S
C1834 C1835 1.410 . S
C1834 C1842 1.503 . S
C1835 C1834 1.410 . S
C1835 C1836 1.392 . S
C1835 C1838 1.511 . S
C1836 C1832 1.376 . S
C1836 C1835 1.392 . S
C1836 H1848 0.929 . S
C1837 C1833 1.531 . S
C1837 H1849 0.960 . S
C1837 H1850 0.962 . S
C1837 H1851 0.960 . S
C1838 C1835 1.511 . S
C1838 H1852 0.961 . S
C1838 H1853 0.961 . S
C1838 H1854 0.961 . S
C1839 C1840 1.370 . S
C1839 C1841 1.363 . S
C1839 H1855 0.931 . S
C1840 C1839 1.370 . S
C1840 C1844 1.408 . S
C1841 C1839 1.363 . S
C1841 C1842 1.370 . S
C1841 C1845 1.524 . S
C1842 C1834 1.503 . S
C1842 C1841 1.370 . S
C1842 C1843 1.403 . S
C1843 C1842 1.403 . S
C1843 C1844 1.404 . S
C1843 C1846 1.539 . S
C1844 C1840 1.408 . S
C1844 C1843 1.404 . S
C1844 H1856 0.930 . S
C1845 C1841 1.524 . S
C1845 H1857 0.956 . S
C1845 H1858 0.961 . S
C1845 H1859 0.961 . S
C1846 C1843 1.539 . S
C1846 H1860 0.958 . S
C1846 H1861 0.961 . S
C1846 H1862 0.960 . S
H1847 C1831 0.931 . S
H1848 C1836 0.929 . S
H1849 C1837 0.960 . S
H1850 C1837 0.962 . S
H1851 C1837 0.960 . S
H1852 C1838 0.961 . S
H1853 C1838 0.961 . S
H1854 C1838 0.961 . S
H1855 C1839 0.931 . S
H1856 C1844 0.930 . S
H1857 C1845 0.956 . S
H1858 C1845 0.961 . S
H1859 C1845 0.961 . S
H1860 C1846 0.958 . S
H1861 C1846 0.961 . S
H1862 C1846 0.960 . S
C1863 C1864 1.391 . S
C1863 C1865 1.394 . S
C1863 H1879 0.931 . S
C1864 C1863 1.391 . S
C1864 C1868 1.376 . S
C1865 C1863 1.394 . S
C1865 C1866 1.369 . S
C1865 C1869 1.531 . S
C1866 C1865 1.369 . S
C1866 C1867 1.410 . S
C1866 C1874 1.503 . S
C1867 C1866 1.410 . S
C1867 C1868 1.392 . S
C1867 C1870 1.511 . S
C1868 C1864 1.376 . S
C1868 C1867 1.392 . S
C1868 H1880 0.929 . S
C1869 C1865 1.531 . S
C1869 H1881 0.960 . S
C1869 H1882 0.962 . S
C1869 H1883 0.960 . S
C1870 C1867 1.511 . S
C1870 H1884 0.961 . S
C1870 H1885 0.961 . S
C1870 H1886 0.961 . S
C1871 C1872 1.370 . S
C1871 C1873 1.363 . S
C1871 H1887 0.931 . S
C1872 C1871 1.370 . S
C1872 C1876 1.408 . S
C1873 C1871 1.363 . S
C1873 C1874 1.370 . S
C1873 C1877 1.524 . S
C1874 C1866 1.503 . S
C1874 C1873 1.370 . S
C1874 C1875 1.403 . S
C1875 C1874 1.403 . S
C1875 C1876 1.404 . S
C1875 C1878 1.539 . S
C1876 C1872 1.408 . S
C1876 C1875 1.404 . S
C1876 H1888 0.930 . S
C1877 C1873 1.524 . S
C1877 H1889 0.956 . S
C1877 H1890 0.961 . S
C1877 H1891 0.961 . S
C1878 C1875 1.539 . S
C1878 H1892 0.958 . S
C1878 H1893 0.961 . S
C1878 H1894 0.960 . S
H1879 C1863 0.931 . S
H1880 C1868 0.929 . S
H1881 C1869 0.960 . S
H1882 C1869 0.962 . S
H1883 C1869 0.960 . S
H1884 C1870 0.961 . S
H1885 C1870 0.961 . S
H1886 C1870 0.961 . S
H1887 C1871 0.931 . S
H1888 C1876 0.930 . S
H1889 C1877 0.956 . S
H1890 C1877 0.961 . S
H1891 C1877 0.961 . S
H1892 C1878 0.958 . S
H1893 C1878 0.961 . S
H1894 C1878 0.960 . S
C1895 C1896 1.391 . S
C1895 C1897 1.394 . S
C1895 H1911 0.931 . S
C1896 C1895 1.391 . S
C1896 C1900 1.376 . S
C1897 C1895 1.394 . S
C1897 C1898 1.369 . S
C1897 C1901 1.531 . S
C1898 C1897 1.369 . S
C1898 C1899 1.410 . S
C1898 C1906 1.503 . S
C1899 C1898 1.410 . S
C1899 C1900 1.392 . S
C1899 C1902 1.511 . S
C1900 C1896 1.376 . S
C1900 C1899 1.392 . S
C1900 H1912 0.929 . S
C1901 C1897 1.531 . S
C1901 H1913 0.960 . S
C1901 H1914 0.962 . S
C1901 H1915 0.960 . S
C1902 C1899 1.511 . S
C1902 H1916 0.961 . S
C1902 H1917 0.961 . S
C1902 H1918 0.961 . S
C1903 C1904 1.370 . S
C1903 C1905 1.363 . S
C1903 H1919 0.931 . S
C1904 C1903 1.370 . S
C1904 C1908 1.408 . S
C1905 C1903 1.363 . S
C1905 C1906 1.370 . S
C1905 C1909 1.524 . S
C1906 C1898 1.503 . S
C1906 C1905 1.370 . S
C1906 C1907 1.403 . S
C1907 C1906 1.403 . S
C1907 C1908 1.404 . S
C1907 C1910 1.539 . S
C1908 C1904 1.408 . S
C1908 C1907 1.404 . S
C1908 H1920 0.930 . S
C1909 C1905 1.524 . S
C1909 H1921 0.956 . S
C1909 H1922 0.961 . S
C1909 H1923 0.961 . S
C1910 C1907 1.539 . S
C1910 H1924 0.958 . S
C1910 H1925 0.961 . S
C1910 H1926 0.960 . S
H1911 C1895 0.931 . S
H1912 C1900 0.929 . S
H1913 C1901 0.960 . S
H1914 C1901 0.962 . S
H1915 C1901 0.960 . S
H1916 C1902 0.961 . S
H1917 C1902 0.961 . S
H1918 C1902 0.961 . S
H1919 C1903 0.931 . S
H1920 C1908 0.930 . S
H1921 C1909 0.956 . S
H1922 C1909 0.961 . S
H1923 C1909 0.961 . S
H1924 C1910 0.958 . S
H1925 C1910 0.961 . S
H1926 C1910 0.960 . S
C1927 C1928 1.391 . S
C1927 C1929 1.394 . S
C1927 H1943 0.931 . S
C1928 C1927 1.391 . S
C1928 C1932 1.376 . S
C1929 C1927 1.394 . S
C1929 C1930 1.369 . S
C1929 C1933 1.531 . S
C1930 C1929 1.369 . S
C1930 C1931 1.410 . S
C1930 C1938 1.503 . S
C1931 C1930 1.410 . S
C1931 C1932 1.392 . S
C1931 C1934 1.511 . S
C1932 C1928 1.376 . S
C1932 C1931 1.392 . S
C1932 H1944 0.929 . S
C1933 C1929 1.531 . S
C1933 H1945 0.960 . S
C1933 H1946 0.962 . S
C1933 H1947 0.960 . S
C1934 C1931 1.511 . S
C1934 H1948 0.961 . S
C1934 H1949 0.961 . S
C1934 H1950 0.961 . S
C1935 C1936 1.370 . S
C1935 C1937 1.363 . S
C1935 H1951 0.931 . S
C1936 C1935 1.370 . S
C1936 C1940 1.408 . S
C1937 C1935 1.363 . S
C1937 C1938 1.370 . S
C1937 C1941 1.524 . S
C1938 C1930 1.503 . S
C1938 C1937 1.370 . S
C1938 C1939 1.403 . S
C1939 C1938 1.403 . S
C1939 C1940 1.404 . S
C1939 C1942 1.539 . S
C1940 C1936 1.408 . S
C1940 C1939 1.404 . S
C1940 H1952 0.930 . S
C1941 C1937 1.524 . S
C1941 H1953 0.956 . S
C1941 H1954 0.961 . S
C1941 H1955 0.961 . S
C1942 C1939 1.539 . S
C1942 H1956 0.958 . S
C1942 H1957 0.961 . S
C1942 H1958 0.960 . S
H1943 C1927 0.931 . S
H1944 C1932 0.929 . S
H1945 C1933 0.960 . S
H1946 C1933 0.962 . S
H1947 C1933 0.960 . S
H1948 C1934 0.961 . S
H1949 C1934 0.961 . S
H1950 C1934 0.961 . S
H1951 C1935 0.931 . S
H1952 C1940 0.930 . S
H1953 C1941 0.956 . S
H1954 C1941 0.961 . S
H1955 C1941 0.961 . S
H1956 C1942 0.958 . S
H1957 C1942 0.961 . S
H1958 C1942 0.960 . S
C1959 C1960 1.391 . S
C1959 C1961 1.394 . S
C1959 H1975 0.931 . S
C1960 C1959 1.391 . S
C1960 C1964 1.376 . S
C1961 C1959 1.394 . S
C1961 C1962 1.369 . S
C1961 C1965 1.531 . S
C1962 C1961 1.369 . S
C1962 C1963 1.410 . S
C1962 C1970 1.503 . S
C1963 C1962 1.410 . S
C1963 C1964 1.392 . S
C1963 C1966 1.511 . S
C1964 C1960 1.376 . S
C1964 C1963 1.392 . S
C1964 H1976 0.929 . S
C1965 C1961 1.531 . S
C1965 H1977 0.960 . S
C1965 H1978 0.962 . S
C1965 H1979 0.960 . S
C1966 C1963 1.511 . S
C1966 H1980 0.961 . S
C1966 H1981 0.961 . S
C1966 H1982 0.961 . S
C1967 C1968 1.370 . S
C1967 C1969 1.363 . S
C1967 H1983 0.931 . S
C1968 C1967 1.370 . S
C1968 C1972 1.408 . S
C1969 C1967 1.363 . S
C1969 C1970 1.370 . S
C1969 C1973 1.524 . S
C1970 C1962 1.503 . S
C1970 C1969 1.370 . S
C1970 C1971 1.403 . S
C1971 C1970 1.403 . S
C1971 C1972 1.404 . S
C1971 C1974 1.539 . S
C1972 C1968 1.408 . S
C1972 C1971 1.404 . S
C1972 H1984 0.930 . S
C1973 C1969 1.524 . S
C1973 H1985 0.956 . S
C1973 H1986 0.961 . S
C1973 H1987 0.961 . S
C1974 C1971 1.539 . S
C1974 H1988 0.958 . S
C1974 H1989 0.961 . S
C1974 H1990 0.960 . S
H1975 C1959 0.931 . S
H1976 C1964 0.929 . S
H1977 C1965 0.960 . S
H1978 C1965 0.962 . S
H1979 C1965 0.960 . S
H1980 C1966 0.961 . S
H1981 C1966 0.961 . S
H1982 C1966 0.961 . S
H1983 C1967 0.931 . S
H1984 C1972 0.930 . S
H1985 C1973 0.956 . S
H1986 C1973 0.961 . S
H1987 C1973 0.961 . S
H1988 C1974 0.958 . S
H1989 C1974 0.961 . S
H1990 C1974 0.960 . S
C1991 C1992 1.391 . S
C1991 C1993 1.394 . S
C1991 H2007 0.931 . S
C1992 C1991 1.391 . S
C1992 C1996 1.376 . S
C1993 C1991 1.394 . S
C1993 C1994 1.369 . S
C1993 C1997 1.531 . S
C1994 C1993 1.369 . S
C1994 C1995 1.410 . S
C1994 C2002 1.503 . S
C1995 C1994 1.410 . S
C1995 C1996 1.392 . S
C1995 C1998 1.511 . S
C1996 C1992 1.376 . S
C1996 C1995 1.392 . S
C1996 H2008 0.929 . S
C1997 C1993 1.531 . S
C1997 H2009 0.960 . S
C1997 H2010 0.962 . S
C1997 H2011 0.960 . S
C1998 C1995 1.511 . S
C1998 H2012 0.961 . S
C1998 H2013 0.961 . S
C1998 H2014 0.961 . S
C1999 C2000 1.370 . S
C1999 C2001 1.363 . S
C1999 H2015 0.931 . S
C2000 C1999 1.370 . S
C2000 C2004 1.408 . S
C2001 C1999 1.363 . S
C2001 C2002 1.370 . S
C2001 C2005 1.524 . S
C2002 C1994 1.503 . S
C2002 C2001 1.370 . S
C2002 C2003 1.403 . S
C2003 C2002 1.403 . S
C2003 C2004 1.404 . S
C2003 C2006 1.539 . S
C2004 C2000 1.408 . S
C2004 C2003 1.404 . S
C2004 H2016 0.930 . S
C2005 C2001 1.524 . S
C2005 H2017 0.956 . S
C2005 H2018 0.961 . S
C2005 H2019 0.961 . S
C2006 C2003 1.539 . S
C2006 H2020 0.958 . S
C2006 H2021 0.961 . S
C2006 H2022 0.960 . S
H2007 C1991 0.931 . S
H2008 C1996 0.929 . S
H2009 C1997 0.960 . S
H2010 C1997 0.962 . S
H2011 C1997 0.960 . S
H2012 C1998 0.961 . S
H2013 C1998 0.961 . S
H2014 C1998 0.961 . S
H2015 C1999 0.931 . S
H2016 C2004 0.930 . S
H2017 C2005 0.956 . S
H2018 C2005 0.961 . S
H2019 C2005 0.961 . S
H2020 C2006 0.958 . S
H2021 C2006 0.961 . S
H2022 C2006 0.960 . S
C2023 C2024 1.391 . S
C2023 C2025 1.394 . S
C2023 H2039 0.931 . S
C2024 C2023 1.391 . S
C2024 C2028 1.376 . S
C2025 C2023 1.394 . S
C2025 C2026 1.369 . S
C2025 C2029 1.531 . S
C2026 C2025 1.369 . S
C2026 C2027 1.410 . S
C2026 C2034 1.503 . S
C2027 C2026 1.410 . S
C2027 C2028 1.392 . S
C2027 C2030 1.511 . S
C2028 C2024 1.376 . S
C2028 C2027 1.392 . S
C2028 H2040 0.929 . S
C2029 C2025 1.531 . S
C2029 H2041 0.960 . S
C2029 H2042 0.962 . S
C2029 H2043 0.960 . S
C2030 C2027 1.511 . S
C2030 H2044 0.961 . S
C2030 H2045 0.961 . S
C2030 H2046 0.961 . S
C2031 C2032 1.370 . S
C2031 C2033 1.363 . S
C2031 H2047 0.931 . S
C2032 C2031 1.370 . S
C2032 C2036 1.408 . S
C2033 C2031 1.363 . S
C2033 C2034 1.370 . S
C2033 C2037 1.524 . S
C2034 C2026 1.503 . S
C2034 C2033 1.370 . S
C2034 C2035 1.403 . S
C2035 C2034 1.403 . S
C2035 C2036 1.404 . S
C2035 C2038 1.539 . S
C2036 C2032 1.408 . S
C2036 C2035 1.404 . S
C2036 H2048 0.930 . S
C2037 C2033 1.524 . S
C2037 H2049 0.956 . S
C2037 H2050 0.961 . S
C2037 H2051 0.961 . S
C2038 C2035 1.539 . S
C2038 H2052 0.958 . S
C2038 H2053 0.961 . S
C2038 H2054 0.960 . S
H2039 C2023 0.931 . S
H2040 C2028 0.929 . S
H2041 C2029 0.960 . S
H2042 C2029 0.962 . S
H2043 C2029 0.960 . S
H2044 C2030 0.961 . S
H2045 C2030 0.961 . S
H2046 C2030 0.961 . S
H2047 C2031 0.931 . S
H2048 C2036 0.930 . S
H2049 C2037 0.956 . S
H2050 C2037 0.961 . S
H2051 C2037 0.961 . S
H2052 C2038 0.958 . S
H2053 C2038 0.961 . S
H2054 C2038 0.960 . S
C2055 C2056 1.391 . S
C2055 C2057 1.394 . S
C2055 H2071 0.931 . S
C2056 C2055 1.391 . S
C2056 C2060 1.376 . S
C2057 C2055 1.394 . S
C2057 C2058 1.369 . S
C2057 C2061 1.531 . S
C2058 C2057 1.369 . S
C2058 C2059 1.410 . S
C2058 C2066 1.503 . S
C2059 C2058 1.410 . S
C2059 C2060 1.392 . S
C2059 C2062 1.511 . S
C2060 C2056 1.376 . S
C2060 C2059 1.392 . S
C2060 H2072 0.929 . S
C2061 C2057 1.531 . S
C2061 H2073 0.960 . S
C2061 H2074 0.962 . S
C2061 H2075 0.960 . S
C2062 C2059 1.511 . S
C2062 H2076 0.961 . S
C2062 H2077 0.961 . S
C2062 H2078 0.961 . S
C2063 C2064 1.370 . S
C2063 C2065 1.363 . S
C2063 H2079 0.931 . S
C2064 C2063 1.370 . S
C2064 C2068 1.408 . S
C2065 C2063 1.363 . S
C2065 C2066 1.370 . S
C2065 C2069 1.524 . S
C2066 C2058 1.503 . S
C2066 C2065 1.370 . S
C2066 C2067 1.403 . S
C2067 C2066 1.403 . S
C2067 C2068 1.404 . S
C2067 C2070 1.539 . S
C2068 C2064 1.408 . S
C2068 C2067 1.404 . S
C2068 H2080 0.930 . S
C2069 C2065 1.524 . S
C2069 H2081 0.956 . S
C2069 H2082 0.961 . S
C2069 H2083 0.961 . S
C2070 C2067 1.539 . S
C2070 H2084 0.958 . S
C2070 H2085 0.961 . S
C2070 H2086 0.960 . S
H2071 C2055 0.931 . S
H2072 C2060 0.929 . S
H2073 C2061 0.960 . S
H2074 C2061 0.962 . S
H2075 C2061 0.960 . S
H2076 C2062 0.961 . S
H2077 C2062 0.961 . S
H2078 C2062 0.961 . S
H2079 C2063 0.931 . S
H2080 C2068 0.930 . S
H2081 C2069 0.956 . S
H2082 C2069 0.961 . S
H2083 C2069 0.961 . S
H2084 C2070 0.958 . S
H2085 C2070 0.961 . S
H2086 C2070 0.960 . S
C2087 C2088 1.391 . S
C2087 C2089 1.394 . S
C2087 H2103 0.931 . S
C2088 C2087 1.391 . S
C2088 C2092 1.376 . S
C2089 C2087 1.394 . S
C2089 C2090 1.369 . S
C2089 C2093 1.531 . S
C2090 C2089 1.369 . S
C2090 C2091 1.410 . S
C2090 C2098 1.503 . S
C2091 C2090 1.410 . S
C2091 C2092 1.392 . S
C2091 C2094 1.511 . S
C2092 C2088 1.376 . S
C2092 C2091 1.392 . S
C2092 H2104 0.929 . S
C2093 C2089 1.531 . S
C2093 H2105 0.960 . S
C2093 H2106 0.962 . S
C2093 H2107 0.960 . S
C2094 C2091 1.511 . S
C2094 H2108 0.961 . S
C2094 H2109 0.961 . S
C2094 H2110 0.961 . S
C2095 C2096 1.370 . S
C2095 C2097 1.363 . S
C2095 H2111 0.931 . S
C2096 C2095 1.370 . S
C2096 C2100 1.408 . S
C2097 C2095 1.363 . S
C2097 C2098 1.370 . S
C2097 C2101 1.524 . S
C2098 C2090 1.503 . S
C2098 C2097 1.370 . S
C2098 C2099 1.403 . S
C2099 C2098 1.403 . S
C2099 C2100 1.404 . S
C2099 C2102 1.539 . S
C2100 C2096 1.408 . S
C2100 C2099 1.404 . S
C2100 H2112 0.930 . S
C2101 C2097 1.524 . S
C2101 H2113 0.956 . S
C2101 H2114 0.961 . S
C2101 H2115 0.961 . S
C2102 C2099 1.539 . S
C2102 H2116 0.958 . S
C2102 H2117 0.961 . S
C2102 H2118 0.960 . S
H2103 C2087 0.931 . S
H2104 C2092 0.929 . S
H2105 C2093 0.960 . S
H2106 C2093 0.962 . S
H2107 C2093 0.960 . S
H2108 C2094 0.961 . S
H2109 C2094 0.961 . S
H2110 C2094 0.961 . S
H2111 C2095 0.931 . S
H2112 C2100 0.930 . S
H2113 C2101 0.956 . S
H2114 C2101 0.961 . S
H2115 C2101 0.961 . S
H2116 C2102 0.958 . S
H2117 C2102 0.961 . S
H2118 C2102 0.960 . S
C2119 C2120 1.391 . S
C2119 C2121 1.394 . S
C2119 H2135 0.931 . S
C2120 C2119 1.391 . S
C2120 C2124 1.376 . S
C2121 C2119 1.394 . S
C2121 C2122 1.369 . S
C2121 C2125 1.531 . S
C2122 C2121 1.369 . S
C2122 C2123 1.410 . S
C2122 C2130 1.503 . S
C2123 C2122 1.410 . S
C2123 C2124 1.392 . S
C2123 C2126 1.511 . S
C2124 C2120 1.376 . S
C2124 C2123 1.392 . S
C2124 H2136 0.929 . S
C2125 C2121 1.531 . S
C2125 H2137 0.960 . S
C2125 H2138 0.962 . S
C2125 H2139 0.960 . S
C2126 C2123 1.511 . S
C2126 H2140 0.961 . S
C2126 H2141 0.961 . S
C2126 H2142 0.961 . S
C2127 C2128 1.370 . S
C2127 C2129 1.363 . S
C2127 H2143 0.931 . S
C2128 C2127 1.370 . S
C2128 C2132 1.408 . S
C2129 C2127 1.363 . S
C2129 C2130 1.370 . S
C2129 C2133 1.524 . S
C2130 C2122 1.503 . S
C2130 C2129 1.370 . S
C2130 C2131 1.403 . S
C2131 C2130 1.403 . S
C2131 C2132 1.404 . S
C2131 C2134 1.539 . S
C2132 C2128 1.408 . S
C2132 C2131 1.404 . S
C2132 H2144 0.930 . S
C2133 C2129 1.524 . S
C2133 H2145 0.956 . S
C2133 H2146 0.961 . S
C2133 H2147 0.961 . S
C2134 C2131 1.539 . S
C2134 H2148 0.958 . S
C2134 H2149 0.961 . S
C2134 H2150 0.960 . S
H2135 C2119 0.931 . S
H2136 C2124 0.929 . S
H2137 C2125 0.960 . S
H2138 C2125 0.962 . S
H2139 C2125 0.960 . S
H2140 C2126 0.961 . S
H2141 C2126 0.961 . S
H2142 C2126 0.961 . S
H2143 C2127 0.931 . S
H2144 C2132 0.930 . S
H2145 C2133 0.956 . S
H2146 C2133 0.961 . S
H2147 C2133 0.961 . S
H2148 C2134 0.958 . S
H2149 C2134 0.961 . S
H2150 C2134 0.960 . S
C424 N170 1.813 . S
C432 C248 1.727 . S
C456 N184 1.024 . S
C464 C269 1.028 . S
C488 N158 1.461 . S
C496 C289 1.315 . S
C520 N145 1.504 . S
C528 C268 1.263 . S
C560 C290 1.049 . S
C552 N119 1.084 . S
C584 N131 1.750 . S
C592 C247 1.531 . S
C624 C249 1.391 . S
C616 N144 1.477 1_554 S
C656 C270 1.218 . S
C648 N118 1.264 . S
C680 N132 1.460 . S
C688 C292 1.293 . S
C712 N171 1.462 . S
C720 C271 1.291 . S
C744 N183 1.254 . S
C752 C291 1.197 . S
C784 C250 1.282 . S
C776 N157 1.495 . S
C816 C311 1.737 . S
C808 N14 1.799 . S
C840 N28 1.020 . S
C848 C332 1.023 . S
C872 N2 1.475 . S
C880 C352 1.314 . S
C904 N223 1.490 . S
C912 C331 1.269 . S
C936 N197 1.054 . S
C944 C353 1.011 . S
C968 N209 1.771 . S
C976 C310 1.490 . S
C1000 N222 1.467 . S
C1008 C312 1.394 . S
C1032 N196 1.264 . S
C1040 C333 1.241 . S
C1072 C355 1.313 . S
C1064 N210 1.468 . S
C1096 N15 1.462 . S
C1104 C334 1.289 . S
C1136 C354 1.197 . S
C1128 N27 1.253 . S
C1160 N1 1.491 . S
C1168 C313 1.277 . S
C1200 C374 1.741 . S
C1192 N92 1.785 . S
C1224 N106 1.026 . S
C1232 C395 1.030 . S
C1264 C415 1.271 . S
C1256 N80 1.502 . S
C1296 C394 1.262 . S
C1288 N67 1.501 . S
C1328 C416 1.012 . S
C1320 N41 1.063 . S
C1352 N53 1.776 . S
C1360 C373 1.489 . S
C1384 N66 1.458 . S
C1392 C375 1.418 . S
C1416 N40 1.264 . S
C1424 C396 1.218 . S
C1456 C418 1.319 . S
C1448 N54 1.463 . S
C1480 N93 1.462 . S
C1488 C397 1.279 . S
C1512 N105 1.249 . S
C1520 C417 1.225 . S
C1544 N79 1.495 . S
C1552 C376 1.283 . S
C1576 N200 1.254 . S
C1584 C252 1.220 . S
C1616 C273 1.710 . S
C1608 N213 1.710 . S
C1640 N226 1.461 . S
C1648 C293 1.493 . S
C1672 N83 1.543 . S
C1680 C272 1.524 . S
C1704 N96 1.749 . S
C1712 C294 1.739 . S
C1744 C251 1.310 . S
C1736 N109 1.329 . S
C1768 N44 1.210 . S
C1776 C315 1.190 . S
C1800 N57 1.734 . S
C1808 C336 1.712 . S
C1832 N70 1.460 . S
C1840 C356 1.493 . S
C1864 N161 1.509 . S
C1872 C335 1.539 . S
C1904 C357 1.747 . S
C1896 N174 1.739 . S
C1928 N187 1.302 . S
C1936 C314 1.328 . S
C1960 N122 1.250 . S
C1968 C378 1.217 . S
C1992 N135 1.732 . S
C2000 C399 1.701 . S
C2032 C419 1.493 . S
C2024 N148 1.459 . S
C2056 N5 1.543 . S
C2064 C398 1.524 . S
C2088 N18 1.749 . S
C2096 C420 1.739 . S
C2120 N31 1.303 . S
C2128 C377 1.327 . S
