# Generated by pormake.
# Topology sit, (3,6)-cn, num edge types: 1
# Building blocks:
#     Node 0, Type 0, BuildingBlock: BETDIP_clean_linker_0, # of connection points: 3
#     Node 1, Type 0, BuildingBlock: BETDIP_clean_linker_0, # of connection points: 3
#     Node 2, Type 0, BuildingBlock: BETDIP_clean_linker_0, # of connection points: 3
#     Node 3, Type 0, BuildingBlock: BETDIP_clean_linker_0, # of connection points: 3
#     Node 4, Type 1, BuildingBlock: MIDCAF_clean_sbu_0, # of connection points: 6
#     Node 5, Type 1, BuildingBlock: MIDCAF_clean_sbu_0, # of connection points: 6
#     Edge 6, Type (0, 1), BuildingBlock: CIFDUS_clean_linker_0, # of connection points: 2
#     Edge 7, Type (0, 1), BuildingBlock: CIFDUS_clean_linker_0, # of connection points: 2
#     Edge 8, Type (0, 1), BuildingBlock: CIFDUS_clean_linker_0, # of connection points: 2
#     Edge 9, Type (0, 1), BuildingBlock: CIFDUS_clean_linker_0, # of connection points: 2
#     Edge 10, Type (0, 1), BuildingBlock: CIFDUS_clean_linker_0, # of connection points: 2
#     Edge 11, Type (0, 1), BuildingBlock: CIFDUS_clean_linker_0, # of connection points: 2
#     Edge 12, Type (0, 1), BuildingBlock: CIFDUS_clean_linker_0, # of connection points: 2
#     Edge 13, Type (0, 1), BuildingBlock: CIFDUS_clean_linker_0, # of connection points: 2
#     Edge 14, Type (0, 1), BuildingBlock: CIFDUS_clean_linker_0, # of connection points: 2
#     Edge 15, Type (0, 1), BuildingBlock: CIFDUS_clean_linker_0, # of connection points: 2
#     Edge 16, Type (0, 1), BuildingBlock: CIFDUS_clean_linker_0, # of connection points: 2
#     Edge 17, Type (0, 1), BuildingBlock: CIFDUS_clean_linker_0, # of connection points: 2
# Relax obj value: 0.072
# Max RMSD: 0.181
# Mean RMSD: 0.110
data_MOF--net-sit--node1-MIDCAF_clean_sbu_0--node2-BETDIP_clean_linker_0--edge1-CIFDUS_clean_linker_0
_symmetry_space_group_name_H-M    P1
_symmetry_Int_Tables_number       1
_symmetry_cell_setting            triclinic
loop_
_symmetry_equiv_pos_as_xyz
'x, y, z'
_cell_length_a     19.592514
_cell_length_b     26.645732
_cell_length_c     33.391213
_cell_angle_alpha  90.234898
_cell_angle_beta   87.785208
_cell_angle_gamma 80.800882
loop_
_atom_site_label
_atom_site_type_symbol
_atom_site_fract_x
_atom_site_fract_y
_atom_site_fract_z
_atom_type_partial_charge
H0 H -0.0457 0.35997 0.03775 0.0
H1 H 0.16961 0.35318 0.06365 0.0
H2 H 0.07238 0.46643 0.98412 0.0
H3 H 0.16147 0.2726 0.08084 0.0
C4 C 0.10862 0.27195 0.09157 0.0
C5 C 0.00209 0.37555 0.03488 0.0
C6 C 0.00658 0.41635 0.00909 0.0
C7 C 0.06047 0.352 0.05458 0.0
C8 C 0.1235 0.37094 0.04927 0.0
C9 C 0.12712 0.4132 0.02464 0.0
C10 C 0.06852 0.43574 0.00495 0.0
N11 N 0.05358 0.30892 0.07853 0.0
H12 H 0.85163 0.8024 0.0232 0.0
H13 H 0.07391 0.78753 0.02005 0.0
H14 H -0.02446 0.68221 0.95425 0.0
H15 H 0.0485 0.87399 0.02711 0.0
C16 C 0.00887 0.87648 0.05103 0.0
C17 C 0.90188 0.78325 0.01223 0.0
C18 C 0.90685 0.73923 0.98813 0.0
C19 C -0.03801 0.80198 0.02294 0.0
C20 C 0.02731 0.77541 0.00993 0.0
C21 C 0.03304 0.73195 0.98518 0.0
C22 C -0.02771 0.7148 0.97417 0.0
N23 N -0.04386 0.84553 0.04871 0.0
H24 H 0.427 0.88883 0.55235 0.0
H25 H 0.64492 0.87117 0.57232 0.0
H26 H 0.55434 0.98455 0.4911 0.0
H27 H 0.61921 0.78584 0.58039 0.0
C28 C 0.57534 0.79521 0.6015 0.0
C29 C 0.47624 0.90173 0.5471 0.0
C30 C 0.48322 0.93947 0.51848 0.0
C31 C 0.53393 0.87723 0.56695 0.0
C32 C 0.59943 0.89079 0.55827 0.0
C33 C 0.60613 0.9299 0.53116 0.0
C34 C 0.54791 0.95495 0.51247 0.0
N35 N 0.52467 0.83852 0.59485 0.0
H36 H 0.34775 0.32109 0.5241 0.0
H37 H 0.56608 0.28026 0.53912 0.0
H38 H 0.45357 0.17502 0.48282 0.0
H39 H 0.55766 0.36721 0.5318 0.0
C40 C 0.5164 0.37798 0.55439 0.0
C41 C 0.39479 0.29358 0.52074 0.0
C42 C 0.39366 0.24653 0.50165 0.0
C43 C 0.4568 0.30585 0.53455 0.0
C44 C 0.51801 0.27041 0.5292 0.0
C45 C 0.51797 0.22302 0.5103 0.0
C46 C 0.45488 0.21114 0.49753 0.0
N47 N 0.45679 0.35363 0.55403 0.0
Zn48 Zn -0.03598 0.15328 0.35779 0.0
Zn49 Zn 0.05293 0.95649 0.34585 0.0
Zn50 Zn 0.00627 1.05539 0.35355 0.0
C51 C 0.03746 0.98991 0.26864 0.0
C52 C 0.92583 0.96881 0.38995 0.0
O53 O 0.08232 0.0912 0.38782 0.0
O54 O 0.04444 0.17377 0.38376 0.0
C55 C -0.01917 0.1295 0.27694 0.0
O56 O 0.01609 1.03171 0.28832 0.0
O57 O 0.06066 0.94997 0.28709 0.0
O58 O -0.028 0.93474 0.37482 0.0
O59 O 0.92934 1.01619 0.38449 0.0
O60 O -0.04493 0.16591 0.29989 0.0
O61 O 0.00417 0.08558 0.29146 0.0
O62 O 0.90234 0.06871 0.38455 0.0
O63 O 0.8793 0.15252 0.39118 0.0
C64 C 0.86265 0.10936 0.39732 0.0
O65 O 0.10137 1.03699 0.38764 0.0
O66 O 0.13698 0.95459 0.37656 0.0
C67 C 0.08864 0.13776 0.39563 0.0
C68 C 0.14432 0.99584 0.39316 0.0
Zn69 Zn 0.47049 0.73282 0.86494 0.0
Zn70 Zn 0.57087 0.46423 0.8427 0.0
Zn71 Zn 0.52524 0.55509 0.85434 0.0
C72 C 0.54349 0.49968 0.76702 0.0
C73 C 0.44443 0.47665 0.89242 0.0
O74 O 0.60188 0.59063 0.88501 0.0
O75 O 0.53321 0.66143 0.87428 0.0
C76 C 0.50353 0.64176 0.79919 0.0
O77 O 0.5247 0.54052 0.78815 0.0
O78 O 0.56891 0.45895 0.78374 0.0
O79 O 0.49208 0.44461 0.876 0.0
O80 O 0.44419 0.52447 0.88747 0.0
O81 O 0.49253 0.661 0.83447 0.0
O82 O 0.51778 0.59323 0.79665 0.0
O83 O 0.427 0.58036 0.88717 0.0
O84 O 0.45535 0.65493 0.8746 0.0
C85 C 0.41169 0.62889 0.89032 0.0
O86 O 0.62285 0.53746 0.88615 0.0
O87 O 0.66125 0.45769 0.86813 0.0
C88 C 0.58952 0.63914 0.88873 0.0
C89 C 0.66832 0.49697 0.8877 0.0
H90 H -0.01679 0.25212 0.12003 0.0
H91 H 0.20289 0.20333 0.12825 0.0
H92 H 0.18174 0.14477 0.18203 0.0
H93 H 0.10112 0.11718 0.23307 0.0
H94 H 0.88265 0.17159 0.22725 0.0
H95 H 0.90245 0.21676 0.16538 0.0
C96 C 0.02651 0.22831 0.13324 0.0
C97 C 0.09466 0.23269 0.12076 0.0
C98 C 0.01393 0.19536 0.16442 0.0
C99 C 0.15002 0.20097 0.13776 0.0
C100 C 0.13793 0.16748 0.16846 0.0
C101 C 0.05786 0.13735 0.21725 0.0
C102 C -0.00947 0.14096 0.23427 0.0
C103 C 0.07016 0.16548 0.18287 0.0
C104 C 0.93478 0.16808 0.21428 0.0
C105 C -0.05378 0.1944 0.17925 0.0
H106 H 0.92836 0.94847 0.09875 0.0
H107 H 0.12758 0.8527 0.08894 0.0
H108 H 0.1578 0.88385 0.15386 0.0
H109 H 0.12429 0.93335 0.21544 0.0
H110 H 0.92888 1.0339 0.22479 0.0
H111 H 0.90112 1.00752 0.15757 0.0
C112 C -0.02172 0.93472 0.111 0.0
C113 C 0.02533 0.89761 0.0898 0.0
C114 C -0.00379 0.95415 0.14789 0.0
C115 C 0.09051 0.88082 0.10518 0.0
C116 C 0.10783 0.89872 0.14215 0.0
C117 C 0.0763 0.95036 0.20234 0.0
C118 C 0.02854 0.98526 0.22503 0.0
C119 C 0.06079 0.93483 0.16399 0.0
C120 C -0.03327 1.00727 0.20773 0.0
C121 C -0.04952 0.99163 0.16953 0.0
H122 H 0.49102 0.81295 0.66865 0.0
H123 H 0.63829 0.69754 0.60769 0.0
H124 H 0.6248 0.63783 0.66192 0.0
H125 H 0.57451 0.61972 0.72811 0.0
H126 H 0.43437 0.73774 0.79116 0.0
H127 H 0.44108 0.79499 0.73467 0.0
C128 C 0.51974 0.77461 0.66713 0.0
C129 C 0.56529 0.75942 0.63418 0.0
C130 C 0.51299 0.74101 0.69885 0.0
C131 C 0.6029 0.70993 0.63283 0.0
C132 C 0.59516 0.67583 0.66377 0.0
C133 C 0.54495 0.65781 0.72922 0.0
C134 C 0.50394 0.67454 0.76365 0.0
C135 C 0.55076 0.69107 0.69711 0.0
C136 C 0.46653 0.72414 0.765 0.0
C137 C 0.47036 0.75688 0.73273 0.0
H138 H 0.42552 0.43777 0.60647 0.0
H139 H 0.64244 0.38486 0.58055 0.0
H140 H 0.6719 0.4249 0.64207 0.0
H141 H 0.63491 0.46577 0.70708 0.0
H142 H 0.41954 0.5236 0.73224 0.0
H143 H 0.39034 0.49229 0.66684 0.0
C144 C 0.47915 0.4356 0.61422 0.0
C145 C 0.53179 0.40756 0.5896 0.0
C146 C 0.49591 0.45987 0.64931 0.0
C147 C 0.60115 0.40586 0.59934 0.0
C148 C 0.61803 0.42874 0.63448 0.0
C149 C 0.58195 0.47304 0.69752 0.0
C150 C 0.52941 0.49692 0.72413 0.0
C151 C 0.56578 0.45473 0.66015 0.0
C152 C 0.46086 0.50592 0.71184 0.0
C153 C 0.44411 0.48732 0.67474 0.0
H154 H 0.22949 0.35894 0.98061 0.0
H155 H 0.16837 0.50446 0.03879 0.0
H156 H 0.26454 0.53734 0.00404 0.0
H157 H 0.36052 0.52583 0.95268 0.0
H158 H 0.41103 0.38205 0.88977 0.0
H159 H 0.3255 0.34707 0.93096 0.0
C160 C 0.23884 0.3973 0.98655 0.0
C161 C 0.19355 0.42899 0.01271 0.0
C162 C 0.29143 0.41651 0.96491 0.0
C163 C 0.20406 0.47923 0.01934 0.0
C164 C 0.25829 0.49812 -0.00091 0.0
C165 C 0.35155 0.48733 0.94744 0.0
C166 C 0.39077 0.45718 0.91745 0.0
C167 C 0.30102 0.46752 0.97083 0.0
C168 C 0.38107 0.40637 0.91236 0.0
C169 C 0.33226 0.38617 0.93596 0.0
H170 H 0.78839 0.78478 0.95321 0.0
H171 H 0.88848 0.64188 -0.00069 0.0
H172 H 0.79804 0.59896 0.97367 0.0
H173 H 0.69568 0.60072 0.93426 0.0
H174 H 0.59307 0.74191 0.8875 0.0
H175 H 0.67873 0.78706 0.9173 0.0
C176 C 0.78937 0.7445 0.95826 0.0
C177 C 0.84524 0.71644 0.97788 0.0
C178 C 0.73726 0.71972 0.94292 0.0
C179 C 0.84629 0.66415 0.98401 0.0
C180 C 0.79471 0.63955 0.96929 0.0
C181 C 0.6918 0.64127 0.93071 0.0
C182 C 0.63849 0.66759 0.9084 0.0
C183 C 0.74091 0.6667 0.94796 0.0
C184 C 0.63375 0.72056 0.90447 0.0
C185 C 0.68279 0.7464 0.92149 0.0
H186 H 0.87408 0.46023 0.02809 0.0
H187 H 0.01592 0.41079 0.92859 0.0
H188 H 0.92456 0.43549 0.88144 0.0
H189 H 0.80277 0.46623 0.86884 0.0
H190 H 0.66024 0.51753 0.96742 0.0
H191 H 0.75323 0.49793 0.01478 0.0
C192 C 0.88456 0.45524 -0.00393 0.0
C193 C -0.04909 0.43361 0.98158 0.0
C194 C 0.83196 0.47011 0.96912 0.0
C195 C -0.03516 0.42751 0.94013 0.0
C196 C 0.9128 0.44155 0.91325 0.0
C197 C 0.79273 0.47395 0.90065 0.0
C198 C 0.7257 0.49373 0.91487 0.0
C199 C 0.84607 0.46234 0.92743 0.0
C200 C 0.71224 0.50305 0.95603 0.0
C201 C 0.76508 0.49144 0.98303 0.0
H202 H 0.14869 0.7723 0.96351 0.0
H203 H 0.07344 0.62891 0.9739 0.0
H204 H 0.18253 0.58467 0.9447 0.0
H205 H 0.29816 0.58706 0.91374 0.0
H206 H 0.37683 0.72925 0.91013 0.0
H207 H 0.26771 0.77335 0.93903 0.0
C208 C 0.15632 0.73127 0.9602 0.0
C209 C 0.102 0.70439 0.97048 0.0
C210 C 0.21992 0.7057 0.94429 0.0
C211 C 0.11326 0.6511 0.96532 0.0
C212 C 0.176 0.62554 0.94888 0.0
C213 C 0.29214 0.62739 0.92022 0.0
C214 C 0.34603 0.65456 0.90985 0.0
C215 C 0.22951 0.65252 0.93788 0.0
C216 C 0.33627 0.70726 0.91735 0.0
C217 C 0.27382 0.73261 0.93411 0.0
H218 H 0.69158 0.87132 0.47984 0.0
H219 H 0.66784 1.0123 0.54615 0.0
H220 H 0.76786 1.03646 0.50886 0.0
H221 H 0.8568 1.01928 0.45396 0.0
H222 H 0.87234 0.88138 0.3839 0.0
H223 H 0.78127 0.85363 0.42616 0.0
C224 C 0.70981 0.90664 0.48673 0.0
C225 C 0.67424 0.93954 0.51612 0.0
C226 C 0.76466 0.92118 0.46385 0.0
C227 C 0.69606 0.98606 0.52418 0.0
C228 C 0.75238 1.00009 0.50249 0.0
C229 C 0.83882 0.98391 0.44735 0.0
C230 C 0.86948 0.95325 0.41511 0.0
C231 C 0.78583 0.96852 0.4715 0.0
C232 C 0.84874 0.90597 0.40825 0.0
C233 C 0.79686 0.89002 0.43243 0.0
H234 H 0.33155 0.16255 0.50982 0.0
H235 H 0.31668 0.30591 0.44874 0.0
H236 H 0.22227 0.28428 0.4096 0.0
H237 H 0.14745 0.22304 0.39074 0.0
H238 H 0.15187 0.08497 0.45701 0.0
H239 H 0.24882 0.10449 0.49514 0.0
C240 C 0.30706 0.18914 0.48817 0.0
C241 C 0.33081 0.23575 0.48213 0.0
C242 C 0.25261 0.17654 0.46594 0.0
C243 C 0.29861 0.27009 0.4542 0.0
C244 C 0.24514 0.25753 0.43158 0.0
C245 C 0.16986 0.19715 0.41345 0.0
C246 C 0.14605 0.15051 0.41928 0.0
C247 C 0.22234 0.21061 0.43684 0.0
C248 C 0.17387 0.1184 0.44968 0.0
C249 C 0.2277 0.13056 0.47226 0.0
H250 H 0.34356 0.95813 0.53617 0.0
H251 H 0.49452 0.96135 0.43868 0.0
H252 H 0.40285 0.98595 0.39263 0.0
H253 H 0.2795 0.99861 0.37799 0.0
H254 H 0.12875 0.98533 0.47292 0.0
H255 H 0.22007 0.97177 0.52172 0.0
C256 C 0.35651 0.96412 0.50488 0.0
C257 C 0.42624 0.9582 0.49135 0.0
C258 C 0.30331 0.97616 0.47786 0.0
C259 C 0.44166 0.96684 0.45058 0.0
C260 C 0.38913 0.98035 0.42387 0.0
C261 C 0.26703 0.99363 0.40952 0.0
C262 C 0.19819 0.99411 0.42239 0.0
C263 C 0.31986 0.98419 0.43697 0.0
C264 C 0.18186 0.986 0.46288 0.0
C265 C 0.2339 0.97811 0.49062 0.0
H266 H 0.55216 0.16184 0.44382 0.0
H267 H 0.63524 0.20587 0.5544 0.0
H268 H 0.7508 0.16679 0.53095 0.0
H269 H 0.82976 0.13357 0.47439 0.0
H270 H 0.7466 0.08483 0.36605 0.0
H271 H 0.62858 0.11027 0.3942 0.0
C272 C 0.59467 0.16152 0.46366 0.0
C273 C 0.58473 0.18877 0.50034 0.0
C274 C 0.66105 0.13808 0.45036 0.0
C275 C 0.64138 0.18741 0.52525 0.0
C276 C 0.7076 0.16463 0.51205 0.0
C277 C 0.7856 0.1269 0.45766 0.0
C278 C 0.79602 0.10775 0.41834 0.0
C279 C 0.71836 0.14203 0.47391 0.0
C280 C 0.73919 0.09921 0.39657 0.0
C281 C 0.67192 0.11429 0.4125 0.0
loop_
_geom_bond_atom_site_label_1
_geom_bond_atom_site_label_2
_geom_bond_distance
_geom_bond_site_symmetry_2
_ccdc_geom_bond_type
H0 C5 0.930 . S
H1 C8 0.930 . S
H2 C10 0.930 . S
H3 C4 1.016 . S
C4 H3 1.016 . S
C4 N11 1.286 . S
C5 H0 0.930 . S
C5 C6 1.397 1_554 S
C5 C7 1.361 . S
C6 C5 1.397 1_556 S
C6 C10 1.390 . S
C7 C5 1.361 . S
C7 C8 1.393 . S
C7 N11 1.413 . S
C8 H1 0.930 . S
C8 C7 1.393 . S
C8 C9 1.399 . S
C9 C8 1.399 . S
C9 C10 1.381 1_554 S
C10 H2 0.930 . S
C10 C6 1.390 . S
C10 C9 1.381 1_556 S
N11 C4 1.286 . S
N11 C7 1.413 . S
H12 C17 0.930 . S
H13 C20 0.930 . S
H14 C22 0.930 . S
H15 C16 1.016 . S
C16 H15 1.016 . S
C16 N23 1.286 1_455 S
C17 H12 0.930 . S
C17 C18 1.397 . S
C17 C19 1.361 . S
C18 C17 1.397 . S
C18 C22 1.390 1_654 S
C19 C17 1.361 . S
C19 C20 1.393 1_655 S
C19 N23 1.413 . S
C20 H13 0.930 . S
C20 C19 1.393 1_455 S
C20 C21 1.399 . S
C21 C20 1.399 . S
C21 C22 1.381 1_554 S
C22 H14 0.930 . S
C22 C18 1.390 1_456 S
C22 C21 1.381 1_556 S
N23 C16 1.286 1_655 S
N23 C19 1.413 . S
H24 C29 0.930 . S
H25 C32 0.930 . S
H26 C34 0.930 . S
H27 C28 1.016 . S
C28 H27 1.016 . S
C28 N35 1.286 . S
C29 H24 0.930 . S
C29 C30 1.397 . S
C29 C31 1.361 . S
C30 C29 1.397 . S
C30 C34 1.390 . S
C31 C29 1.361 . S
C31 C32 1.393 . S
C31 N35 1.413 . S
C32 H25 0.930 . S
C32 C31 1.393 . S
C32 C33 1.399 . S
C33 C32 1.399 . S
C33 C34 1.381 . S
C34 H26 0.930 . S
C34 C30 1.390 . S
C34 C33 1.381 . S
N35 C28 1.286 . S
N35 C31 1.413 . S
H36 C41 0.930 . S
H37 C44 0.930 . S
H38 C46 0.930 . S
H39 C40 1.016 . S
C40 H39 1.016 . S
C40 N47 1.286 . S
C41 H36 0.930 . S
C41 C42 1.397 . S
C41 C43 1.361 . S
C42 C41 1.397 . S
C42 C46 1.390 . S
C43 C41 1.361 . S
C43 C44 1.393 . S
C43 N47 1.413 . S
C44 H37 0.930 . S
C44 C43 1.393 . S
C44 C45 1.399 . S
C45 C44 1.399 . S
C45 C46 1.381 . S
C46 H38 0.930 . S
C46 C42 1.390 . S
C46 C45 1.381 . S
N47 C40 1.286 . S
N47 C43 1.413 . S
Zn48 O54 1.920 . S
Zn48 O60 1.898 . S
Zn48 O63 1.905 1_455 S
Zn49 O57 1.905 . S
Zn49 O58 1.898 . S
Zn49 O66 1.920 . S
Zn50 O53 2.080 . S
Zn50 O56 2.114 1_545 S
Zn50 O59 2.120 1_545 S
Zn50 O61 2.120 . S
Zn50 O62 2.114 1_455 S
Zn50 O65 2.080 1_545 S
C51 O56 1.166 . S
C51 O57 1.182 . S
C52 O58 1.167 1_655 S
C52 O59 1.299 1_655 S
O53 Zn50 2.080 . S
O53 C67 1.305 . S
O54 Zn48 1.920 . S
O54 C67 1.234 . S
C55 O60 1.167 . S
C55 O61 1.299 . S
O56 Zn50 2.114 1_565 S
O56 C51 1.166 . S
O57 Zn49 1.905 . S
O57 C51 1.182 . S
O58 Zn49 1.898 . S
O58 C52 1.167 1_455 S
O59 Zn50 2.120 1_565 S
O59 C52 1.299 1_455 S
O60 Zn48 1.898 . S
O60 C55 1.167 . S
O61 Zn50 2.120 . S
O61 C55 1.299 . S
O62 Zn50 2.114 1_655 S
O62 C64 1.166 . S
O63 Zn48 1.905 1_655 S
O63 C64 1.182 . S
C64 O62 1.166 . S
C64 O63 1.182 . S
O65 Zn50 2.080 1_565 S
O65 C68 1.305 . S
O66 Zn49 1.920 . S
O66 C68 1.234 . S
C67 O53 1.305 . S
C67 O54 1.234 . S
C68 O65 1.305 . S
C68 O66 1.234 . S
Zn69 O75 1.920 . S
Zn69 O81 1.898 . S
Zn69 O84 1.905 . S
Zn70 O78 1.905 . S
Zn70 O79 1.898 . S
Zn70 O87 1.920 . S
Zn71 O74 2.080 . S
Zn71 O77 2.114 . S
Zn71 O80 2.120 . S
Zn71 O82 2.120 . S
Zn71 O83 2.114 . S
Zn71 O86 2.080 . S
C72 O77 1.166 . S
C72 O78 1.182 . S
C73 O79 1.167 . S
C73 O80 1.299 . S
O74 Zn71 2.080 . S
O74 C88 1.305 . S
O75 Zn69 1.920 . S
O75 C88 1.234 . S
C76 O81 1.167 . S
C76 O82 1.299 . S
O77 Zn71 2.114 . S
O77 C72 1.166 . S
O78 Zn70 1.905 . S
O78 C72 1.182 . S
O79 Zn70 1.898 . S
O79 C73 1.167 . S
O80 Zn71 2.120 . S
O80 C73 1.299 . S
O81 Zn69 1.898 . S
O81 C76 1.167 . S
O82 Zn71 2.120 . S
O82 C76 1.299 . S
O83 Zn71 2.114 . S
O83 C85 1.166 . S
O84 Zn69 1.905 . S
O84 C85 1.182 . S
C85 O83 1.166 . S
C85 O84 1.182 . S
O86 Zn71 2.080 . S
O86 C89 1.305 . S
O87 Zn70 1.920 . S
O87 C89 1.234 . S
C88 O74 1.305 . S
C88 O75 1.234 . S
C89 O86 1.305 . S
C89 O87 1.234 . S
H90 C96 0.930 . S
H91 C99 0.930 . S
H92 C100 0.930 . S
H93 C101 0.930 . S
H94 C104 0.930 . S
H95 C105 0.930 . S
C96 H90 0.930 . S
C96 C97 1.355 . S
C96 C98 1.415 . S
C97 C96 1.355 . S
C97 C99 1.419 . S
C98 C96 1.415 . S
C98 C103 1.425 . S
C98 C105 1.409 . S
C99 H91 0.930 . S
C99 C97 1.419 . S
C99 C100 1.362 . S
C100 H92 0.930 . S
C100 C99 1.362 . S
C100 C103 1.409 . S
C101 H93 0.930 . S
C101 C102 1.355 . S
C101 C103 1.415 . S
C102 C101 1.355 . S
C102 C104 1.419 . S
C103 C98 1.425 . S
C103 C100 1.409 . S
C103 C101 1.415 . S
C104 H94 0.930 . S
C104 C102 1.419 . S
C104 C105 1.362 . S
C105 H95 0.930 . S
C105 C98 1.409 . S
C105 C104 1.362 . S
H106 C112 0.930 . S
H107 C115 0.930 . S
H108 C116 0.930 . S
H109 C117 0.930 . S
H110 C120 0.930 . S
H111 C121 0.930 . S
C112 H106 0.930 . S
C112 C113 1.355 1_655 S
C112 C114 1.417 . S
C113 C112 1.355 1_455 S
C113 C115 1.419 . S
C114 C112 1.417 . S
C114 C119 1.421 1_655 S
C114 C121 1.411 . S
C115 H107 0.930 . S
C115 C113 1.419 . S
C115 C116 1.362 . S
C116 H108 0.930 . S
C116 C115 1.362 . S
C116 C119 1.409 . S
C117 H109 0.930 . S
C117 C118 1.355 . S
C117 C119 1.415 . S
C118 C117 1.355 . S
C118 C120 1.419 1_455 S
C119 C114 1.421 1_455 S
C119 C116 1.409 . S
C119 C117 1.415 . S
C120 H110 0.930 . S
C120 C118 1.419 1_655 S
C120 C121 1.362 . S
C121 H111 0.930 . S
C121 C114 1.411 . S
C121 C120 1.362 . S
H122 C128 0.930 . S
H123 C131 0.930 . S
H124 C132 0.930 . S
H125 C133 0.930 . S
H126 C136 0.930 . S
H127 C137 0.930 . S
C128 H122 0.930 . S
C128 C129 1.355 . S
C128 C130 1.415 . S
C129 C128 1.355 . S
C129 C131 1.419 . S
C130 C128 1.415 . S
C130 C135 1.425 . S
C130 C137 1.409 . S
C131 H123 0.930 . S
C131 C129 1.419 . S
C131 C132 1.362 . S
C132 H124 0.930 . S
C132 C131 1.362 . S
C132 C135 1.409 . S
C133 H125 0.930 . S
C133 C134 1.355 . S
C133 C135 1.415 . S
C134 C133 1.355 . S
C134 C136 1.419 . S
C135 C130 1.425 . S
C135 C132 1.409 . S
C135 C133 1.415 . S
C136 H126 0.930 . S
C136 C134 1.419 . S
C136 C137 1.362 . S
C137 H127 0.930 . S
C137 C130 1.409 . S
C137 C136 1.362 . S
H138 C144 0.930 . S
H139 C147 0.930 . S
H140 C148 0.930 . S
H141 C149 0.930 . S
H142 C152 0.930 . S
H143 C153 0.930 . S
C144 H138 0.930 . S
C144 C145 1.355 . S
C144 C146 1.415 . S
C145 C144 1.355 . S
C145 C147 1.419 . S
C146 C144 1.415 . S
C146 C151 1.425 . S
C146 C153 1.409 . S
C147 H139 0.930 . S
C147 C145 1.419 . S
C147 C148 1.362 . S
C148 H140 0.930 . S
C148 C147 1.362 . S
C148 C151 1.409 . S
C149 H141 0.930 . S
C149 C150 1.355 . S
C149 C151 1.415 . S
C150 C149 1.355 . S
C150 C152 1.419 . S
C151 C146 1.425 . S
C151 C148 1.409 . S
C151 C149 1.415 . S
C152 H142 0.930 . S
C152 C150 1.419 . S
C152 C153 1.362 . S
C153 H143 0.930 . S
C153 C146 1.409 . S
C153 C152 1.362 . S
H154 C160 0.930 . S
H155 C163 0.930 . S
H156 C164 0.930 . S
H157 C165 0.930 . S
H158 C168 0.930 . S
H159 C169 0.930 . S
C160 H154 0.930 . S
C160 C161 1.355 . S
C160 C162 1.415 . S
C161 C160 1.355 . S
C161 C163 1.419 1_556 S
C162 C160 1.415 . S
C162 C167 1.425 . S
C162 C169 1.409 . S
C163 H155 0.930 . S
C163 C161 1.419 1_554 S
C163 C164 1.362 . S
C164 H156 0.930 . S
C164 C163 1.362 . S
C164 C167 1.409 1_554 S
C165 H157 0.930 . S
C165 C166 1.355 . S
C165 C167 1.415 . S
C166 C165 1.355 . S
C166 C168 1.419 . S
C167 C162 1.425 . S
C167 C164 1.409 1_556 S
C167 C165 1.415 . S
C168 H158 0.930 . S
C168 C166 1.419 . S
C168 C169 1.362 . S
C169 H159 0.930 . S
C169 C162 1.409 . S
C169 C168 1.362 . S
H170 C176 0.930 . S
H171 C179 0.930 . S
H172 C180 0.930 1_554 S
H173 C181 0.930 . S
H174 C184 0.930 . S
H175 C185 0.930 . S
C176 H170 0.930 . S
C176 C177 1.355 . S
C176 C178 1.415 . S
C177 C176 1.355 . S
C177 C179 1.419 1_556 S
C178 C176 1.415 . S
C178 C183 1.425 . S
C178 C185 1.409 . S
C179 H171 0.930 . S
C179 C177 1.419 1_554 S
C179 C180 1.362 1_554 S
C180 H172 0.930 1_556 S
C180 C179 1.362 1_556 S
C180 C183 1.409 . S
C181 H173 0.930 . S
C181 C182 1.355 . S
C181 C183 1.415 . S
C182 C181 1.355 . S
C182 C184 1.419 . S
C183 C178 1.425 . S
C183 C180 1.409 . S
C183 C181 1.415 . S
C184 H174 0.930 . S
C184 C182 1.419 . S
C184 C185 1.362 . S
C185 H175 0.930 . S
C185 C178 1.409 . S
C185 C184 1.362 . S
H186 C192 0.930 . S
H187 C195 0.930 . S
H188 C196 0.930 1_455 S
H189 C197 0.930 . S
H190 C200 0.930 . S
H191 C201 0.930 . S
C192 H186 0.930 . S
C192 C193 1.355 1_655 S
C192 C194 1.415 . S
C193 C192 1.355 1_455 S
C193 C195 1.419 . S
C194 C192 1.415 . S
C194 C199 1.425 . S
C194 C201 1.409 . S
C195 H187 0.930 . S
C195 C193 1.419 . S
C195 C196 1.362 1_455 S
C196 H188 0.930 1_655 S
C196 C195 1.362 1_655 S
C196 C199 1.409 . S
C197 H189 0.930 . S
C197 C198 1.355 . S
C197 C199 1.415 . S
C198 C197 1.355 . S
C198 C200 1.419 . S
C199 C194 1.425 . S
C199 C196 1.409 . S
C199 C197 1.415 . S
C200 H190 0.930 . S
C200 C198 1.419 . S
C200 C201 1.362 . S
C201 H191 0.930 . S
C201 C194 1.409 . S
C201 C200 1.362 . S
H202 C208 0.930 . S
H203 C211 0.930 . S
H204 C212 0.930 . S
H205 C213 0.930 . S
H206 C216 0.930 . S
H207 C217 0.930 . S
C208 H202 0.930 . S
C208 C209 1.355 . S
C208 C210 1.415 . S
C209 C208 1.355 . S
C209 C211 1.419 . S
C210 C208 1.415 . S
C210 C215 1.425 . S
C210 C217 1.409 . S
C211 H203 0.930 . S
C211 C209 1.419 . S
C211 C212 1.362 . S
C212 H204 0.930 . S
C212 C211 1.362 . S
C212 C215 1.409 . S
C213 H205 0.930 . S
C213 C214 1.355 . S
C213 C215 1.415 . S
C214 C213 1.355 . S
C214 C216 1.419 . S
C215 C210 1.425 . S
C215 C212 1.409 . S
C215 C213 1.415 . S
C216 H206 0.930 . S
C216 C214 1.419 . S
C216 C217 1.362 . S
C217 H207 0.930 . S
C217 C210 1.409 . S
C217 C216 1.362 . S
H218 C224 0.930 . S
H219 C227 0.930 . S
H220 C228 0.930 . S
H221 C229 0.930 . S
H222 C232 0.930 1_455 S
H223 C233 0.930 . S
C224 H218 0.930 . S
C224 C225 1.355 . S
C224 C226 1.415 . S
C225 C224 1.355 . S
C225 C227 1.419 . S
C226 C224 1.415 . S
C226 C231 1.425 . S
C226 C233 1.409 . S
C227 H219 0.930 . S
C227 C225 1.419 . S
C227 C228 1.362 . S
C228 H220 0.930 . S
C228 C227 1.362 . S
C228 C231 1.409 . S
C229 H221 0.930 . S
C229 C230 1.355 . S
C229 C231 1.415 . S
C230 C229 1.355 . S
C230 C232 1.419 . S
C231 C226 1.425 . S
C231 C228 1.409 . S
C231 C229 1.415 . S
C232 H222 0.930 1_655 S
C232 C230 1.419 . S
C232 C233 1.362 . S
C233 H223 0.930 . S
C233 C226 1.409 . S
C233 C232 1.362 . S
H234 C240 0.930 . S
H235 C243 0.930 . S
H236 C244 0.930 . S
H237 C245 0.930 . S
H238 C248 0.930 . S
H239 C249 0.930 . S
C240 H234 0.930 . S
C240 C241 1.355 . S
C240 C242 1.415 . S
C241 C240 1.355 . S
C241 C243 1.419 . S
C242 C240 1.415 . S
C242 C247 1.425 . S
C242 C249 1.409 . S
C243 H235 0.930 . S
C243 C241 1.419 . S
C243 C244 1.362 . S
C244 H236 0.930 . S
C244 C243 1.362 . S
C244 C247 1.409 . S
C245 H237 0.930 . S
C245 C246 1.355 . S
C245 C247 1.415 . S
C246 C245 1.355 . S
C246 C248 1.419 . S
C247 C242 1.425 . S
C247 C244 1.409 . S
C247 C245 1.415 . S
C248 H238 0.930 . S
C248 C246 1.419 . S
C248 C249 1.362 . S
C249 H239 0.930 . S
C249 C242 1.409 . S
C249 C248 1.362 . S
H250 C256 0.930 . S
H251 C259 0.930 . S
H252 C260 0.930 . S
H253 C261 0.930 . S
H254 C264 0.930 . S
H255 C265 0.930 . S
C256 H250 0.930 . S
C256 C257 1.355 . S
C256 C258 1.415 . S
C257 C256 1.355 . S
C257 C259 1.419 . S
C258 C256 1.415 . S
C258 C263 1.425 . S
C258 C265 1.409 . S
C259 H251 0.930 . S
C259 C257 1.419 . S
C259 C260 1.362 . S
C260 H252 0.930 . S
C260 C259 1.362 . S
C260 C263 1.409 . S
C261 H253 0.930 . S
C261 C262 1.355 . S
C261 C263 1.415 . S
C262 C261 1.355 . S
C262 C264 1.419 . S
C263 C258 1.425 . S
C263 C260 1.409 . S
C263 C261 1.415 . S
C264 H254 0.930 . S
C264 C262 1.419 . S
C264 C265 1.362 . S
C265 H255 0.930 . S
C265 C258 1.409 . S
C265 C264 1.362 . S
H266 C272 0.930 . S
H267 C275 0.930 . S
H268 C276 0.930 . S
H269 C277 0.930 . S
H270 C280 0.930 . S
H271 C281 0.930 . S
C272 H266 0.930 . S
C272 C273 1.355 . S
C272 C274 1.415 . S
C273 C272 1.355 . S
C273 C275 1.419 . S
C274 C272 1.415 . S
C274 C279 1.425 . S
C274 C281 1.409 . S
C275 H267 0.930 . S
C275 C273 1.419 . S
C275 C276 1.362 . S
C276 H268 0.930 . S
C276 C275 1.362 . S
C276 C279 1.409 . S
C277 H269 0.930 . S
C277 C278 1.355 . S
C277 C279 1.415 . S
C278 C277 1.355 . S
C278 C280 1.419 . S
C279 C274 1.425 . S
C279 C276 1.409 . S
C279 C277 1.415 . S
C280 H270 0.930 . S
C280 C278 1.419 . S
C280 C281 1.362 . S
C281 H271 0.930 . S
C281 C274 1.409 . S
C281 C280 1.362 . S
C102 C55 1.456 . S
C97 C4 1.520 . S
C118 C51 1.441 . S
C113 C16 1.466 . S
C134 C76 1.377 . S
C129 C28 1.532 . S
C145 C40 1.502 . S
C150 C72 1.357 . S
C161 C9 1.270 1_556 S
C166 C73 1.081 . S
C182 C88 1.088 . S
C177 C18 1.295 1_556 S
C193 C6 1.696 . S
C198 C89 1.529 . S
C214 C85 1.544 . S
C209 C21 1.703 1_556 S
C230 C52 1.079 . S
C225 C33 1.260 . S
C241 C42 1.311 . S
C246 C67 1.193 . S
C262 C68 1.540 . S
C257 C30 1.700 . S
C278 C64 1.600 . S
C273 C45 1.732 . S
