# Generated by pormake.
# Topology pyr, (3,6)-cn, num edge types: 1
# Building blocks:
#     Node 0, Type 0, BuildingBlock: BETDIP_clean_linker_0, # of connection points: 3
#     Node 1, Type 0, BuildingBlock: BETDIP_clean_linker_0, # of connection points: 3
#     Node 2, Type 0, BuildingBlock: BETDIP_clean_linker_0, # of connection points: 3
#     Node 3, Type 0, BuildingBlock: BETDIP_clean_linker_0, # of connection points: 3
#     Node 4, Type 0, BuildingBlock: BETDIP_clean_linker_0, # of connection points: 3
#     Node 5, Type 0, BuildingBlock: BETDIP_clean_linker_0, # of connection points: 3
#     Node 6, Type 0, BuildingBlock: BETDIP_clean_linker_0, # of connection points: 3
#     Node 7, Type 0, BuildingBlock: BETDIP_clean_linker_0, # of connection points: 3
#     Node 8, Type 1, BuildingBlock: GEDQOX_clean_sbu_0, # of connection points: 6
#     Node 9, Type 1, BuildingBlock: GEDQOX_clean_sbu_0, # of connection points: 6
#     Node 10, Type 1, BuildingBlock: GEDQOX_clean_sbu_0, # of connection points: 6
#     Node 11, Type 1, BuildingBlock: GEDQOX_clean_sbu_0, # of connection points: 6
#     Edge 12, Type (0, 1), BuildingBlock: CIFDUS_clean_linker_0, # of connection points: 2
#     Edge 13, Type (0, 1), BuildingBlock: CIFDUS_clean_linker_0, # of connection points: 2
#     Edge 14, Type (0, 1), BuildingBlock: CIFDUS_clean_linker_0, # of connection points: 2
#     Edge 15, Type (0, 1), BuildingBlock: CIFDUS_clean_linker_0, # of connection points: 2
#     Edge 16, Type (0, 1), BuildingBlock: CIFDUS_clean_linker_0, # of connection points: 2
#     Edge 17, Type (0, 1), BuildingBlock: CIFDUS_clean_linker_0, # of connection points: 2
#     Edge 18, Type (0, 1), BuildingBlock: CIFDUS_clean_linker_0, # of connection points: 2
#     Edge 19, Type (0, 1), BuildingBlock: CIFDUS_clean_linker_0, # of connection points: 2
#     Edge 20, Type (0, 1), BuildingBlock: CIFDUS_clean_linker_0, # of connection points: 2
#     Edge 21, Type (0, 1), BuildingBlock: CIFDUS_clean_linker_0, # of connection points: 2
#     Edge 22, Type (0, 1), BuildingBlock: CIFDUS_clean_linker_0, # of connection points: 2
#     Edge 23, Type (0, 1), BuildingBlock: CIFDUS_clean_linker_0, # of connection points: 2
#     Edge 24, Type (0, 1), BuildingBlock: CIFDUS_clean_linker_0, # of connection points: 2
#     Edge 25, Type (0, 1), BuildingBlock: CIFDUS_clean_linker_0, # of connection points: 2
#     Edge 26, Type (0, 1), BuildingBlock: CIFDUS_clean_linker_0, # of connection points: 2
#     Edge 27, Type (0, 1), BuildingBlock: CIFDUS_clean_linker_0, # of connection points: 2
#     Edge 28, Type (0, 1), BuildingBlock: CIFDUS_clean_linker_0, # of connection points: 2
#     Edge 29, Type (0, 1), BuildingBlock: CIFDUS_clean_linker_0, # of connection points: 2
#     Edge 30, Type (0, 1), BuildingBlock: CIFDUS_clean_linker_0, # of connection points: 2
#     Edge 31, Type (0, 1), BuildingBlock: CIFDUS_clean_linker_0, # of connection points: 2
#     Edge 32, Type (0, 1), BuildingBlock: CIFDUS_clean_linker_0, # of connection points: 2
#     Edge 33, Type (0, 1), BuildingBlock: CIFDUS_clean_linker_0, # of connection points: 2
#     Edge 34, Type (0, 1), BuildingBlock: CIFDUS_clean_linker_0, # of connection points: 2
#     Edge 35, Type (0, 1), BuildingBlock: CIFDUS_clean_linker_0, # of connection points: 2
# Relax obj value: 0.254
# Max RMSD: 0.192
# Mean RMSD: 0.164
data_MOF--net-pyr--node1-GEDQOX_clean_sbu_0--node2-BETDIP_clean_linker_0--edge1-CIFDUS_clean_linker_0
_symmetry_space_group_name_H-M    P1
_symmetry_Int_Tables_number       1
_symmetry_cell_setting            triclinic
loop_
_symmetry_equiv_pos_as_xyz
'x, y, z'
_cell_length_a     34.308463
_cell_length_b     34.008092
_cell_length_c     31.554163
_cell_angle_alpha  92.079573
_cell_angle_beta   87.128468
_cell_angle_gamma 92.154174
loop_
_atom_site_label
_atom_site_type_symbol
_atom_site_fract_x
_atom_site_fract_y
_atom_site_fract_z
_atom_type_partial_charge
H0 H 0.1632 0.19636 0.2661 0.0
H1 H 0.25723 0.19528 0.17012 0.0
H2 H 0.25255 0.1112 0.27123 0.0
H3 H 0.22525 0.25027 0.14436 0.0
C4 C 0.19881 0.25802 0.16259 0.0
C5 C 0.18992 0.18361 0.25323 0.0
C6 C 0.20515 0.15167 0.27454 0.0
C7 C 0.20748 0.20016 0.21583 0.0
C8 C 0.24293 0.18294 0.19819 0.0
C9 C 0.26069 0.15041 0.21752 0.0
C10 C 0.24043 0.13542 0.25561 0.0
N11 N 0.18804 0.23391 0.19883 0.0
H12 H 0.39184 0.85127 0.81827 0.0
H13 H 0.40946 0.76315 0.72001 0.0
H14 H 0.50307 0.79585 0.80134 0.0
H15 H 0.34555 0.76271 0.71601 0.0
C16 C 0.33834 0.7931 0.72329 0.0
C17 C 0.41099 0.83057 0.8017 0.0
C18 C 0.44936 0.82669 0.81437 0.0
C19 C 0.39654 0.8081 0.76776 0.0
C20 C 0.42054 0.78074 0.74623 0.0
C21 C 0.45907 0.77593 0.7579 0.0
C22 C 0.47326 0.79883 0.79246 0.0
N23 N 0.35874 0.81582 0.75434 0.0
H24 H 0.83951 0.46601 0.802 0.0
H25 H 0.73498 0.39199 0.79943 0.0
H26 H 0.81298 0.38305 0.90034 0.0
H27 H 0.75592 0.39611 0.72417 0.0
C28 C 0.75421 0.42799 0.72683 0.0
C29 C 0.82071 0.44303 0.81577 0.0
C30 C 0.83042 0.42597 0.85371 0.0
C31 C 0.78658 0.43047 0.7956 0.0
C32 C 0.76204 0.40095 0.81388 0.0
C33 C 0.77123 0.38411 0.85182 0.0
C34 C 0.80542 0.39669 0.87145 0.0
N35 N 0.77607 0.44879 0.75816 0.0
H36 H 0.81329 0.81954 0.26082 0.0
H37 H 0.89584 0.91509 0.2845 0.0
H38 H 0.86935 0.8287 0.3792 0.0
H39 H 0.82451 0.87635 0.16568 0.0
C40 C 0.83884 0.86104 0.18983 0.0
C41 C 0.83406 0.83451 0.28107 0.0
C42 C 0.8407 0.81909 0.32054 0.0
C43 C 0.85501 0.86848 0.26739 0.0
C44 C 0.8802 0.88864 0.29502 0.0
C45 C 0.88575 0.87452 0.33559 0.0
C46 C 0.86611 0.8395 0.34772 0.0
N47 N 0.85101 0.88337 0.22629 0.0
H48 H 0.81889 0.86505 0.96196 0.0
H49 H 0.91105 0.85886 0.86519 0.0
H50 H 0.82524 0.94927 0.86172 0.0
H51 H 0.9341 0.80715 0.90099 0.0
C52 C 0.91475 0.79871 0.9276 0.0
C53 C 0.83307 0.87696 0.93359 0.0
C54 C 0.81689 0.91069 0.91547 0.0
C55 C 0.86685 0.85742 0.91614 0.0
C56 C 0.88512 0.87276 0.87825 0.0
C57 C 0.87078 0.90585 0.85706 0.0
C58 C 0.83658 0.92427 0.8767 0.0
N59 N 0.88062 0.82279 0.93753 0.0
H60 H 0.70855 0.22792 0.27602 0.0
H61 H 0.70103 0.32374 0.36766 0.0
H62 H 0.60045 0.28866 0.2983 0.0
H63 H 0.76596 0.32943 0.35155 0.0
C64 C 0.77327 0.29863 0.35162 0.0
C65 C 0.69136 0.25028 0.29262 0.0
C66 C 0.65197 0.25454 0.28338 0.0
C67 C 0.70947 0.27541 0.3223 0.0
C68 C 0.68785 0.30489 0.34354 0.0
C69 C 0.64882 0.31015 0.33466 0.0
C70 C 0.63071 0.28469 0.30489 0.0
N71 N 0.74897 0.26955 0.33143 0.0
H72 H 0.26897 0.59165 0.2909 0.0
H73 H 0.35086 0.69027 0.2977 0.0
H74 H 0.27383 0.67893 0.19475 0.0
H75 H 0.31532 0.56387 0.33317 0.0
C76 C 0.33158 0.58787 0.34862 0.0
C77 C 0.28176 0.6184 0.27775 0.0
C78 C 0.26697 0.63331 0.24077 0.0
C79 C 0.312 0.6395 0.29839 0.0
C80 C 0.32719 0.67471 0.28192 0.0
C81 C 0.31411 0.68868 0.24423 0.0
C82 C 0.28403 0.66795 0.22393 0.0
N83 N 0.32856 0.62708 0.33573 0.0
H84 H 0.231 0.11795 0.82342 0.0
H85 H 0.29419 0.22939 0.83478 0.0
H86 H 0.2401 0.19576 0.71865 0.0
H87 H 0.29332 0.18881 0.93568 0.0
C88 C 0.27467 0.19514 0.91016 0.0
C89 C 0.24161 0.14538 0.80983 0.0
C90 C 0.23322 0.15369 0.76803 0.0
C91 C 0.26231 0.17328 0.83471 0.0
C92 C 0.27673 0.20841 0.81653 0.0
C93 C 0.26821 0.21698 0.77499 0.0
C94 C 0.24625 0.1896 0.75109 0.0
N95 N 0.26853 0.16547 0.87781 0.0
Nd96 Nd 0.05022 0.9897 0.55861 0.0
Nd97 Nd 1.01678 0.06842 0.5666 0.0
C98 C 0.06864 0.91491 0.5489 0.0
C99 C 0.10479 0.89373 0.55122 0.0
C100 C 0.10278 0.85368 0.56034 0.0
C101 C 0.13601 0.83522 0.57236 0.0
C102 C 0.17157 0.85677 0.57573 0.0
C103 C 0.174 0.89621 0.56364 0.0
C104 C 0.14081 0.91459 0.55156 0.0
C105 C 0.09598 0.0439 0.60248 0.0
C106 C 0.98486 1.00247 0.64017 0.0
C107 C 0.9871 0.13819 0.58106 0.0
C108 C 0.97176 0.16496 0.551 0.0
C109 C 0.94164 0.19 0.56418 0.0
C110 C 0.92076 0.20853 0.53407 0.0
C111 C 0.92946 0.20174 0.49044 0.0
C112 C 0.96118 0.17851 0.47752 0.0
C113 C 0.98221 0.16034 0.50756 0.0
C114 C 0.98777 0.02285 0.50098 0.0
C115 C 0.08418 0.05595 0.48803 0.0
O116 O 0.05635 0.93115 0.58495 0.0
O117 O 0.06617 0.93802 0.51696 0.0
O118 O 0.11022 1.01601 0.5781 0.0
O119 O 0.05951 0.04044 0.60557 0.0
O120 O 1.00517 0.97649 0.61643 0.0
O121 O 0.9861 0.0399 0.62837 0.0
O122 O 1.02486 0.13296 0.5779 0.0
O123 O 0.96653 0.10521 0.58475 0.0
O124 O 0.99534 0.06016 0.4994 0.0
O125 O 0.9934 1.01052 0.53728 0.0
O126 O 0.06935 0.08223 0.51632 0.0
O127 O 0.07634 1.01784 0.49485 0.0
H128 H 0.07504 0.83733 0.56067 0.0
H129 H 0.13321 0.8049 0.5818 0.0
H130 H 0.20117 0.91335 0.56545 0.0
H131 H 0.1428 0.94563 0.54483 0.0
H132 H 0.93284 0.19343 0.59753 0.0
H133 H 0.89625 0.2261 0.54483 0.0
H134 H 0.96869 0.17311 0.44411 0.0
H135 H 1.00522 0.14089 0.4967 0.0
Nd136 Nd 0.53774 1.01574 0.08192 0.0
Nd137 Nd 0.54056 0.06356 1.02862 0.0
C138 C 0.53533 0.95203 0.12812 0.0
C139 C 0.50585 0.92627 0.14914 0.0
C140 C 0.51103 0.88563 0.14676 0.0
C141 C 0.48226 0.85997 0.16361 0.0
C142 C 0.44791 0.8746 0.18332 0.0
C143 C 0.44307 0.91543 0.18668 0.0
C144 C 0.4718 0.94118 0.16933 0.0
C145 C 0.46969 0.0622 0.10214 0.0
C146 C 0.49813 0.98916 0.99621 0.0
C147 C 0.5424 0.12805 0.98334 0.0
C148 C 0.57077 0.155 0.9619 0.0
C149 C 0.56603 0.19562 0.96746 0.0
C150 C 0.59281 0.22215 0.94835 0.0
C151 C 0.62472 0.20849 0.92311 0.0
C152 C 0.62927 0.16772 0.91716 0.0
C153 C 0.60259 0.14111 0.93665 0.0
C154 C 0.60659 1.01561 1.00545 0.0
C155 C 0.5821 0.08901 0.11361 0.0
O156 O 0.53572 0.95089 0.08684 0.0
O157 O 0.54014 0.98764 0.14404 0.0
O158 O 0.49531 0.05234 0.12813 0.0
O159 O 0.48153 0.04935 0.06505 0.0
O160 O 0.52172 0.97668 1.02359 0.0
O161 O 0.49227 0.02683 0.99743 0.0
O162 O 0.54239 0.12864 1.02458 0.0
O163 O 0.53794 0.09257 0.967 0.0
O164 O 0.58021 0.0269 0.98122 0.0
O165 O 0.59671 0.02837 0.04335 0.0
O166 O 0.55795 0.10192 0.08708 0.0
O167 O 0.5871 0.05127 0.11231 0.0
H168 H 0.5371 0.87371 0.13117 0.0
H169 H 0.48679 0.82859 0.16114 0.0
H170 H 0.41671 0.92725 0.20165 0.0
H171 H 0.46713 0.97255 0.17106 0.0
H172 H 0.54163 0.20684 0.9868 0.0
H173 H 0.58839 0.25341 0.95306 0.0
H174 H 0.65382 0.15648 0.89812 0.0
H175 H 0.60698 0.10982 0.9322 0.0
Nd176 Nd 0.50312 0.51353 0.56839 0.0
Nd177 Nd 0.57767 0.55048 0.53644 0.0
C178 C 0.43175 0.49492 0.59814 0.0
C179 C 0.41373 0.46095 0.61947 0.0
C180 C 0.37788 0.46451 0.64217 0.0
C181 C 0.36221 0.43321 0.66574 0.0
C182 C 0.38238 0.39805 0.66697 0.0
C183 C 0.41812 0.39453 0.64359 0.0
C184 C 0.43372 0.4258 0.62008 0.0
C185 C 0.5667 0.48606 0.6064 0.0
C186 C 0.52875 0.60178 0.60188 0.0
C187 C 0.64935 0.56954 0.50756 0.0
C188 C 0.6672 0.59771 0.47768 0.0
C189 C 0.70035 0.58732 0.45272 0.0
C190 C 0.71762 0.61366 0.42387 0.0
C191 C 0.70207 0.65096 0.41974 0.0
C192 C 0.66822 0.66084 0.44423 0.0
C193 C 0.6508 0.63434 0.47282 0.0
C194 C 0.51364 0.57335 0.49474 0.0
C195 C 0.55185 0.46247 0.50039 0.0
O196 O 0.45733 0.51513 0.62014 0.0
O197 O 0.44335 0.48915 0.55835 0.0
O198 O 0.53629 0.46443 0.59698 0.0
O199 O 0.56215 0.52159 0.59835 0.0
O200 O 0.4998 0.57972 0.58692 0.0
O201 O 0.56509 0.59241 0.59313 0.0
O202 O 0.6279 0.54124 0.49074 0.0
O203 O 0.63372 0.5841 0.54306 0.0
O204 O 0.54297 0.59695 0.5032 0.0
O205 O 0.52 0.53925 0.50566 0.0
O206 O 0.58106 0.48585 0.51263 0.0
O207 O 0.51562 0.46891 0.51392 0.0
H208 H 0.36241 0.49172 0.64234 0.0
H209 H 0.33479 0.43684 0.68375 0.0
H210 H 0.434 0.36759 0.64344 0.0
H211 H 0.46164 0.42278 0.60287 0.0
H212 H 0.71294 0.55885 0.45564 0.0
H213 H 0.74328 0.60491 0.405 0.0
H214 H 0.65578 0.68947 0.44225 0.0
H215 H 0.62481 0.64264 0.49143 0.0
Nd216 Nd 1.01564 0.52904 0.0909 0.0
Nd217 Nd 0.07321 0.52165 1.02075 0.0
C218 C 0.9573 0.52948 0.14842 0.0
C219 C 0.9307 0.56174 0.15926 0.0
C220 C 0.9162 0.58361 0.12689 0.0
C221 C 0.90093 0.62057 0.13616 0.0
C222 C 0.90008 0.63643 0.17792 0.0
C223 C 0.91156 0.61312 0.21072 0.0
C224 C 0.92674 0.57604 0.20145 0.0
C225 C 0.0831 0.57197 0.10497 0.0
C226 C 1.01493 0.60061 1.02217 0.0
C227 C 0.13237 0.51847 0.96435 0.0
C228 C 0.15456 0.48293 0.95314 0.0
C229 C 0.19408 0.48522 0.93936 0.0
C230 C 0.2151 0.45069 0.93247 0.0
C231 C 0.19679 0.41348 0.93931 0.0
C232 C 0.15726 0.4116 0.95312 0.0
C233 C 0.1365 0.4458 0.95993 0.0
C234 C 1.00388 0.48098 1.00627 0.0
C235 C 0.0752 0.45074 0.08954 0.0
O236 O 0.95446 0.51214 0.11092 0.0
O237 O 0.99348 0.53749 0.15762 0.0
O238 O 0.04849 0.58572 0.11128 0.0
O239 O 0.08136 0.5371 0.08989 0.0
O240 O 0.99426 0.58239 0.05292 0.0
O241 O 0.04878 0.58508 1.00806 0.0
O242 O 0.13619 0.53268 1.00304 0.0
O243 O 0.09596 0.51667 0.95381 0.0
O244 O 1.03791 0.46704 0.99662 0.0
O245 O 1.00739 0.51512 1.02247 0.0
O246 O 0.09425 0.46814 0.05742 0.0
O247 O 0.04207 0.46658 0.1053 0.0
H248 H 0.91919 0.57355 0.09397 0.0
H249 H 0.89257 0.63789 0.11016 0.0
H250 H 0.91069 0.62442 0.24329 0.0
H251 H 0.93799 0.55982 0.22684 0.0
H252 H 0.20873 0.51359 0.93453 0.0
H253 H 0.24557 0.45307 0.92182 0.0
H254 H 0.14247 0.38364 0.95976 0.0
H255 H 0.10632 0.44314 0.9714 0.0
H256 H 0.18859 0.07488 0.30939 0.0
H257 H 0.17283 0.19804 0.34 0.0
H258 H 0.13585 0.18129 0.40509 0.0
H259 H 0.10541 0.13188 0.45558 0.0
H260 H 0.12065 1.00862 0.42579 0.0
H261 H 0.15892 0.02516 0.36098 0.0
C262 C 0.17747 0.09833 0.33021 0.0
C263 C 0.18422 0.13833 0.31759 0.0
C264 C 0.15522 0.08835 0.36912 0.0
C265 C 0.16846 0.16714 0.34664 0.0
C266 C 0.14701 0.15749 0.38478 0.0
C267 C 0.11707 0.10835 0.43523 0.0
C268 C 0.10918 0.06846 0.44735 0.0
C269 C 0.13968 0.11819 0.39665 0.0
C270 C 0.12534 0.03945 0.41891 0.0
C271 C 0.14765 0.04901 0.38112 0.0
H272 H 0.4352 0.90417 0.83107 0.0
H273 H 0.49593 0.8072 0.87839 0.0
H274 H 0.51553 0.84855 0.93936 0.0
H275 H 0.51416 0.91197 0.97996 0.0
H276 H 0.45126 1.00771 0.93309 0.0
H277 H 0.43254 0.96649 0.87197 0.0
C278 C 0.45233 0.89176 0.85491 0.0
C279 C 0.46373 0.85236 0.85015 0.0
C280 C 0.46265 0.91535 0.89031 0.0
C281 C 0.48697 0.83742 0.88088 0.0
C282 C 0.49787 0.86097 0.91602 0.0
C283 C 0.49605 0.92372 0.95658 0.0
C284 C 0.484 0.9629 0.96125 0.0
C285 C 0.48559 0.89989 0.92123 0.0
C286 C 0.4608 0.97768 0.93045 0.0
C287 C 0.45024 0.95417 0.89534 0.0
H288 H 0.69872 0.39057 0.68274 0.0
H289 H 0.74055 0.50705 0.7204 0.0
H290 H 0.68685 0.53582 0.68488 0.0
H291 H 0.62638 0.52725 0.64468 0.0
H292 H 0.58398 0.40972 0.6111 0.0
H293 H 0.63938 0.38199 0.64333 0.0
C294 C 0.6962 0.42229 0.68291 0.0
C295 C 0.72348 0.44665 0.70399 0.0
C296 C 0.66497 0.4384 0.6633 0.0
C297 C 0.71984 0.48768 0.70433 0.0
C298 C 0.68912 0.5041 0.68408 0.0
C299 C 0.62946 0.49562 0.64442 0.0
C300 C 0.60109 0.47053 0.62569 0.0
C301 C 0.66126 0.4797 0.66373 0.0
C302 C 0.60529 0.42961 0.62557 0.0
C303 C 0.637 0.4137 0.64391 0.0
H304 H 0.89858 0.8191 0.21793 0.0
H305 H 0.79703 0.80837 0.14269 0.0
H306 H 0.80613 0.73746 0.1325 0.0
H307 H 0.84198 0.67829 0.14713 0.0
H308 H 0.94123 0.68952 0.22606 0.0
H309 H 0.93254 0.7602 0.2349 0.0
C310 C 0.8779 0.80117 0.20011 0.0
C311 C 0.84637 0.81863 0.18223 0.0
C312 C 0.88247 0.76043 0.19578 0.0
C313 C 0.82117 0.79533 0.15724 0.0
C314 C 0.82621 0.75484 0.15166 0.0
C315 C 0.86156 0.69625 0.16638 0.0
C316 C 0.89202 0.67863 0.18613 0.0
C317 C 0.85652 0.73699 0.17121 0.0
C318 C 0.9171 0.70221 0.21115 0.0
C319 C 0.91247 0.74272 0.21582 0.0
H320 H 0.29625 0.13921 0.13232 0.0
H321 H 0.3204 0.12206 0.26311 0.0
H322 H 0.38304 0.09484 0.24074 0.0
H323 H 0.43388 0.07497 0.18447 0.0
H324 H 0.41056 0.08939 0.0533 0.0
H325 H 0.34733 0.11757 0.07511 0.0
C326 C 0.31495 0.12967 0.15632 0.0
C327 C 0.30125 0.13327 0.20038 0.0
C328 C 0.35247 0.11298 0.14288 0.0
C329 C 0.32774 0.11984 0.22938 0.0
C330 C 0.36455 0.10414 0.21641 0.0
C331 C 0.4152 0.08411 0.16023 0.0
C332 C 0.42876 0.07935 0.11646 0.0
C333 C 0.37763 0.10031 0.17328 0.0
C334 C 0.40248 0.09192 0.08687 0.0
C335 C 0.36568 0.10839 0.09962 0.0
H336 H 0.29874 0.75895 0.65923 0.0
H337 H 0.31051 0.86746 0.7335 0.0
H338 H 0.26146 0.89694 0.69261 0.0
H339 H 0.21419 0.89153 0.63715 0.0
H340 H 0.20139 0.7834 0.56259 0.0
H341 H 0.25195 0.75404 0.60218 0.0
C342 C 0.29041 0.78901 0.6664 0.0
C343 C 0.30802 0.8109 0.69935 0.0
C344 C 0.26219 0.80585 0.64267 0.0
C345 C 0.29729 0.8499 0.70837 0.0
C346 C 0.26929 0.86684 0.68494 0.0
C347 C 0.22296 0.86178 0.629 0.0
C348 C 0.20437 0.83975 0.59678 0.0
C349 C 0.25158 0.84509 0.6521 0.0
C350 C 0.21531 0.80088 0.58733 0.0
C351 C 0.24414 0.78412 0.60994 0.0
H352 H 0.83699 0.44655 0.9367 0.0
H353 H 0.90501 0.43096 0.81911 0.0
H354 H 0.96539 0.44353 0.85661 0.0
H355 H 0.99872 0.45826 0.92343 0.0
H356 H 0.9299 0.47771 1.03976 0.0
H357 H 0.86986 0.4634 1.00255 0.0
C358 C 0.86508 0.44603 0.91932 0.0
C359 C 0.86668 0.43776 0.87529 0.0
C360 C 0.89944 0.45329 0.94104 0.0
C361 C 0.90313 0.43762 0.85297 0.0
C362 C 0.9376 0.44441 0.87446 0.0
C363 C 0.97053 0.45867 0.94059 0.0
C364 C 0.9685 0.46812 0.98438 0.0
C365 C 0.93612 0.45191 0.91858 0.0
C366 C 0.93197 0.46992 1.00619 0.0
C367 C 0.89772 0.46201 0.98487 0.0
H368 H 0.7639 0.79707 0.31551 0.0
H369 H 0.87368 0.75788 0.35643 0.0
H370 H 0.84062 0.70045 0.38791 0.0
H371 H 0.78013 0.6654 0.40995 0.0
H372 H 0.67 0.70332 0.36851 0.0
H373 H 0.70369 0.75732 0.33093 0.0
C374 C 0.7806 0.77552 0.3306 0.0
C375 C 0.821 0.78195 0.33432 0.0
C376 C 0.76137 0.74269 0.3489 0.0
C377 C 0.84237 0.7539 0.35402 0.0
C378 C 0.82355 0.72105 0.3719 0.0
C379 C 0.76349 0.68483 0.39186 0.0
C380 C 0.72258 0.68054 0.39241 0.0
C381 C 0.78296 0.71572 0.37048 0.0
C382 C 0.70149 0.70644 0.36928 0.0
C383 C 0.72073 0.73721 0.34765 0.0
H384 H 0.12758 0.29794 0.19212 0.0
H385 H 0.22068 0.30153 0.09512 0.0
H386 H 0.19263 0.35805 0.06465 0.0
H387 H 0.1421 0.40866 0.06389 0.0
H388 H 0.04791 0.40706 0.15932 0.0
H389 H 0.07528 0.34962 0.19059 0.0
C390 C 0.1419 0.31091 0.16434 0.0
C391 C 0.17718 0.29405 0.14659 0.0
C392 C 0.12509 0.34479 0.14602 0.0
C393 C 0.19408 0.31263 0.11028 0.0
C394 C 0.17784 0.34554 0.09246 0.0
C395 C 0.12718 0.39599 0.09153 0.0
C396 C 0.09221 0.41354 0.10854 0.0
C397 C 0.14337 0.36222 0.10981 0.0
C398 C 0.07442 0.39532 0.14466 0.0
C399 C 0.09036 0.36197 0.16289 0.0
H400 H 0.73919 0.31866 0.8136 0.0
H401 H 0.74422 0.38201 0.93424 0.0
H402 H 0.69992 0.33273 0.96711 0.0
H403 H 0.6591 0.27228 0.9613 0.0
H404 H 0.65425 0.20821 0.8411 0.0
H405 H 0.69942 0.25697 0.80823 0.0
C406 C 0.73038 0.32165 0.84702 0.0
C407 C 0.74474 0.35386 0.87149 0.0
C408 C 0.70511 0.2931 0.86573 0.0
C409 C 0.73367 0.35726 0.9149 0.0
C410 C 0.70828 0.32921 0.93364 0.0
C411 C 0.66785 0.26913 0.92786 0.0
C412 C 0.65326 0.23696 0.90353 0.0
C413 C 0.69374 0.29713 0.90933 0.0
C414 C 0.66532 0.23271 0.86046 0.0
C415 C 0.69093 0.26064 0.84165 0.0
H416 H 0.89209 0.9539 0.34896 0.0
H417 H 0.93495 0.84509 0.39169 0.0
H418 H 0.96912 0.88107 0.44781 0.0
H419 H 0.98532 0.94359 0.48631 0.0
H420 H 0.94632 0.05235 0.43966 0.0
H421 H 0.91257 1.0163 0.38331 0.0
C422 C 0.90953 0.93805 0.36991 0.0
C423 C 0.91045 0.89679 0.36631 0.0
C424 C 0.92961 0.95891 0.40172 0.0
C425 C 0.93293 0.8768 0.39425 0.0
C426 C 0.95265 0.89734 0.42631 0.0
C427 C 0.96934 0.95921 0.46377 0.0
C428 C 0.96782 1.00036 0.46728 0.0
C429 C 0.95072 0.93836 0.43076 0.0
C430 C 0.94769 1.02056 0.4376 0.0
C431 C 0.92842 1.00001 0.40535 0.0
H432 H 0.46303 0.76192 0.67251 0.0
H433 H 0.5097 0.72356 0.7879 0.0
H434 H 0.53994 0.66828 0.74837 0.0
H435 H 0.54602 0.62617 0.68224 0.0
H436 H 0.49098 0.66114 0.57042 0.0
H437 H 0.4703 0.72188 0.60732 0.0
C438 C 0.47969 0.74144 0.68922 0.0
C439 C 0.48331 0.74651 0.73338 0.0
C440 C 0.49504 0.70872 0.66684 0.0
C441 C 0.50635 0.72046 0.75399 0.0
C442 C 0.52329 0.68857 0.73144 0.0
C443 C 0.52996 0.6475 0.66604 0.0
C444 C 0.51997 0.63956 0.62379 0.0
C445 C 0.51679 0.68169 0.6881 0.0
C446 C 0.4988 0.66686 0.60299 0.0
C447 C 0.48703 0.7015 0.62405 0.0
H448 H 0.8818 0.98203 0.81934 0.0
H449 H 0.90795 0.8601 0.7935 0.0
H450 H 0.9443 0.87766 0.72855 0.0
H451 H 0.97079 0.92729 0.67646 0.0
H452 H 0.94358 0.04902 0.69981 0.0
H453 H 0.9068 0.03186 0.76549 0.0
C454 C 0.89513 0.95896 0.79969 0.0
C455 C 0.89173 0.9192 0.81396 0.0
C456 C 0.9166 0.96935 0.76047 0.0
C457 C 0.91003 0.89094 0.78611 0.0
C458 C 0.93102 0.90101 0.74786 0.0
C459 C 0.95687 0.95036 0.69561 0.0
C460 C 0.96092 0.99 0.68149 0.0
C461 C 0.93499 0.94013 0.73443 0.0
C462 C 0.94184 1.01842 0.70829 0.0
C463 C 0.92043 1.00848 0.74656 0.0
H464 H 0.66178 0.17584 0.26877 0.0
H465 H 0.6019 0.27407 0.22294 0.0
H466 H 0.57543 0.23178 0.16629 0.0
H467 H 0.57042 0.16716 0.12871 0.0
H468 H 0.6319 0.06962 0.17366 0.0
H469 H 0.65749 0.11174 0.2309 0.0
C470 C 0.64322 0.18819 0.24621 0.0
C471 C 0.634 0.22824 0.25024 0.0
C472 C 0.62871 0.1639 0.2132 0.0
C473 C 0.60913 0.24332 0.22113 0.0
C474 C 0.59427 0.21921 0.1884 0.0
C475 C 0.5896 0.15516 0.15088 0.0
C476 C 0.59932 0.11528 0.14677 0.0
C477 C 0.60407 0.17952 0.18395 0.0
C478 C 0.62404 0.1002 0.17595 0.0
C479 C 0.63859 0.12425 0.20882 0.0
H480 H 0.38442 0.63952 0.38444 0.0
H481 H 0.34698 0.51692 0.38001 0.0
H482 H 0.39932 0.50169 0.4263 0.0
H483 H 0.45709 0.52304 0.46568 0.0
H484 H 0.49543 0.64534 0.46776 0.0
H485 H 0.44115 0.66096 0.42451 0.0
C486 C 0.38742 0.60944 0.39371 0.0
C487 C 0.36175 0.57928 0.37878 0.0
C488 C 0.41786 0.60091 0.41967 0.0
C489 C 0.36633 0.54057 0.39115 0.0
C490 C 0.39628 0.53189 0.41749 0.0
C491 C 0.45347 0.55313 0.45673 0.0
C492 C 0.4803 0.58303 0.46964 0.0
C493 C 0.42244 0.56177 0.43157 0.0
C494 C 0.47526 0.62186 0.45797 0.0
C495 C 0.44423 0.63077 0.43331 0.0
H496 H 0.3024 0.2649 0.94202 0.0
H497 H 0.20265 0.21067 0.88225 0.0
H498 H 0.1714 0.27402 0.88322 0.0
H499 H 0.17179 0.34445 0.90216 0.0
H500 H 0.2703 0.39915 0.96393 0.0
H501 H 0.30309 0.33632 0.96026 0.0
C502 C 0.27381 0.26713 0.92928 0.0
C503 C 0.25512 0.23341 0.91152 0.0
C504 C 0.25597 0.30374 0.93002 0.0
C505 C 0.21801 0.23639 0.89525 0.0
C506 C 0.20006 0.27258 0.89595 0.0
C507 C 0.20042 0.34265 0.91491 0.0
C508 C 0.21846 0.37643 0.9335 0.0
C509 C 0.21873 0.3064 0.9133 0.0
C510 C 0.2559 0.37372 0.9491 0.0
C511 C 0.2745 0.33771 0.94737 0.0
H512 H 0.7522 0.95056 0.88306 0.0
H513 H 0.79604 0.91851 1.0022 0.0
H514 H 0.73928 0.9463 0.04013 0.0
H515 H 0.67402 0.98027 0.04179 0.0
H516 H 0.63075 1.01111 0.92185 0.0
H517 H 0.68817 0.9846 0.8846 0.0
C518 C 0.74991 0.94961 0.91736 0.0
C519 C 0.78018 0.93101 0.93845 0.0
C520 C 0.71591 0.96612 0.94012 0.0
C521 C 0.77439 0.93107 0.98345 0.0
C522 C 0.74131 0.94758 1.00584 0.0
C523 C 0.67692 0.9816 1.00754 0.0
C524 C 0.64616 0.99882 0.98575 0.0
C525 C 0.71128 0.96523 0.9849 0.0
C526 C 0.6524 0.99882 0.94087 0.0
C527 C 0.68594 0.98331 0.91889 0.0
H528 H 0.80731 0.22747 0.35231 0.0
H529 H 0.81129 0.34484 0.40876 0.0
H530 H 0.86113 0.32597 0.45627 0.0
H531 H 0.90131 0.27499 0.48398 0.0
H532 H 0.898 0.15814 0.42611 0.0
H533 H 0.85046 0.17793 0.3767 0.0
C534 C 0.81925 0.24894 0.37486 0.0
C535 C 0.80551 0.28736 0.37744 0.0
C536 C 0.84799 0.23796 0.4018 0.0
C537 C 0.8215 0.31503 0.4064 0.0
C538 C 0.84986 0.30425 0.4336 0.0
C539 C 0.89026 0.25403 0.46037 0.0
C540 C 0.90307 0.21524 0.45864 0.0
C541 C 0.86297 0.26564 0.43196 0.0
C542 C 0.88885 0.18833 0.42772 0.0
C543 C 0.86149 0.19953 0.39964 0.0
H544 H 0.20403 0.66857 0.21412 0.0
H545 H 0.2553 0.55506 0.21811 0.0
H546 H 0.20374 0.52592 0.1743 0.0
H547 H 0.14499 0.53369 0.13298 0.0
H548 H 0.09476 0.64796 0.13019 0.0
H549 H 0.14586 0.67622 0.17433 0.0
C550 C 0.20395 0.63741 0.20538 0.0
C551 C 0.23355 0.61403 0.219 0.0
C552 C 0.17485 0.62125 0.17977 0.0
C553 C 0.23266 0.57359 0.20821 0.0
C554 C 0.20345 0.55707 0.18281 0.0
C555 C 0.1456 0.56485 0.14169 0.0
C556 C 0.11642 0.58889 0.12809 0.0
C557 C 0.17469 0.58077 0.16791 0.0
C558 C 0.11707 0.62902 0.14012 0.0
C559 C 0.14611 0.64512 0.16553 0.0
H560 H 0.34139 0.24953 0.77656 0.0
H561 H 0.2273 0.26728 0.73052 0.0
H562 H 0.25233 0.32593 0.69413 0.0
H563 H 0.30738 0.3699 0.67243 0.0
H564 H 0.42148 0.3523 0.71867 0.0
H565 H 0.3957 0.29571 0.75803 0.0
C566 C 0.32194 0.26663 0.75908 0.0
C567 C 0.2827 0.25413 0.75596 0.0
C568 C 0.33657 0.30003 0.73804 0.0
C569 C 0.2578 0.27618 0.73284 0.0
C570 C 0.27203 0.30969 0.71216 0.0
C571 C 0.32646 0.354 0.69161 0.0
C572 C 0.36627 0.36505 0.69246 0.0
C573 C 0.31148 0.32155 0.71406 0.0
C574 C 0.39081 0.34391 0.717 0.0
C575 C 0.37607 0.31172 0.73967 0.0
H576 H 0.98033 0.75357 0.9132 0.0
H577 H 0.87786 0.75908 0.99734 0.0
H578 H 0.89855 0.70068 1.03333 0.0
H579 H 0.94645 0.64583 0.04125 0.0
H580 H 0.04886 0.64286 0.95622 0.0
H581 H 1.02773 0.70079 0.92156 0.0
C582 C 0.96222 0.74227 0.93947 0.0
C583 C 0.92698 0.762 0.95177 0.0
C584 C 0.97459 0.70814 0.96043 0.0
C585 C 0.90483 0.7457 0.98632 0.0
C586 C 0.91687 0.71178 1.00714 0.0
C587 C 0.96441 0.6577 1.0152 0.0
C588 C 1.0 0.63842 1.00212 0.0
C589 C 0.9518 0.69235 0.99462 0.0
C590 C 1.0218 0.65568 0.96792 0.0
C591 C 1.00952 0.68937 0.94768 0.0
H592 H 0.33288 0.75886 0.28319 0.0
H593 H 0.33959 0.69606 0.16188 0.0
H594 H 0.37884 0.75024 0.13126 0.0
H595 H 0.41618 0.81238 0.14074 0.0
H596 H 0.4112 0.87495 0.26204 0.0
H597 H 0.36602 0.82404 0.29106 0.0
C598 C 0.34279 0.75727 0.25 0.0
C599 C 0.33372 0.72352 0.22487 0.0
C600 C 0.36575 0.78827 0.23278 0.0
C601 C 0.34606 0.7219 0.18174 0.0
C602 C 0.36871 0.7527 0.16431 0.0
C603 C 0.40495 0.81488 0.17345 0.0
C604 C 0.41721 0.8468 0.19952 0.0
C605 C 0.37947 0.78551 0.1898 0.0
C606 C 0.40204 0.85043 0.24155 0.0
C607 C 0.37646 0.8213 0.25813 0.0
H608 H 0.16529 0.1675 0.73383 0.0
H609 H 0.25059 0.07871 0.74182 0.0
H610 H 0.21675 0.03695 0.689 0.0
H611 H 0.16371 0.02724 0.63859 0.0
H612 H 0.07674 0.11514 0.63488 0.0
H613 H 0.11065 0.15623 0.68741 0.0
C614 C 0.17609 0.13876 0.72427 0.0
C615 C 0.21014 0.12596 0.74141 0.0
C616 C 0.15658 0.11524 0.69416 0.0
C617 C 0.22409 0.08878 0.72914 0.0
C618 C 0.205 0.06519 0.69873 0.0
C619 C 0.15255 0.05555 0.64913 0.0
C620 C 0.11828 0.06868 0.6325 0.0
C621 C 0.1715 0.0784 0.68054 0.0
C622 C 0.10337 0.10485 0.64699 0.0
C623 C 0.12259 0.12819 0.67715 0.0
H624 H 0.58206 0.30858 0.38625 0.0
H625 H 0.67169 0.38658 0.33214 0.0
H626 H 0.64835 0.44093 0.37784 0.0
H627 H 0.60702 0.46468 0.43749 0.0
H628 H 0.51587 0.38903 0.49224 0.0
H629 H 0.53501 0.33527 0.44207 0.0
C630 C 0.5957 0.33775 0.3839 0.0
C631 C 0.62866 0.34366 0.35615 0.0
C632 C 0.58235 0.36897 0.41086 0.0
C633 C 0.64639 0.38145 0.35345 0.0
C634 C 0.63322 0.41244 0.3797 0.0
C635 C 0.59126 0.43642 0.43841 0.0
C636 C 0.56066 0.43042 0.46895 0.0
C637 C 0.60207 0.40622 0.40935 0.0
C638 C 0.53978 0.3941 0.46913 0.0
C639 C 0.55075 0.36345 0.44049 0.0
loop_
_geom_bond_atom_site_label_1
_geom_bond_atom_site_label_2
_geom_bond_distance
_geom_bond_site_symmetry_2
_ccdc_geom_bond_type
H0 C5 0.930 . S
H1 C8 0.930 . S
H2 C10 0.930 . S
H3 C4 1.016 . S
C4 H3 1.016 . S
C4 N11 1.286 . S
C5 H0 0.930 . S
C5 C6 1.397 . S
C5 C7 1.361 . S
C6 C5 1.397 . S
C6 C10 1.390 . S
C7 C5 1.361 . S
C7 C8 1.393 . S
C7 N11 1.413 . S
C8 H1 0.930 . S
C8 C7 1.393 . S
C8 C9 1.399 . S
C9 C8 1.399 . S
C9 C10 1.381 . S
C10 H2 0.930 . S
C10 C6 1.390 . S
C10 C9 1.381 . S
N11 C4 1.286 . S
N11 C7 1.413 . S
H12 C17 0.930 . S
H13 C20 0.930 . S
H14 C22 0.930 . S
H15 C16 1.016 . S
C16 H15 1.016 . S
C16 N23 1.286 . S
C17 H12 0.930 . S
C17 C18 1.397 . S
C17 C19 1.361 . S
C18 C17 1.397 . S
C18 C22 1.390 . S
C19 C17 1.361 . S
C19 C20 1.393 . S
C19 N23 1.413 . S
C20 H13 0.930 . S
C20 C19 1.393 . S
C20 C21 1.399 . S
C21 C20 1.399 . S
C21 C22 1.381 . S
C22 H14 0.930 . S
C22 C18 1.390 . S
C22 C21 1.381 . S
N23 C16 1.286 . S
N23 C19 1.413 . S
H24 C29 0.930 . S
H25 C32 0.930 . S
H26 C34 0.930 . S
H27 C28 1.016 . S
C28 H27 1.016 . S
C28 N35 1.286 . S
C29 H24 0.930 . S
C29 C30 1.397 . S
C29 C31 1.361 . S
C30 C29 1.397 . S
C30 C34 1.390 . S
C31 C29 1.361 . S
C31 C32 1.393 . S
C31 N35 1.413 . S
C32 H25 0.930 . S
C32 C31 1.393 . S
C32 C33 1.399 . S
C33 C32 1.399 . S
C33 C34 1.381 . S
C34 H26 0.930 . S
C34 C30 1.390 . S
C34 C33 1.381 . S
N35 C28 1.286 . S
N35 C31 1.413 . S
H36 C41 0.930 . S
H37 C44 0.930 . S
H38 C46 0.930 . S
H39 C40 1.016 . S
C40 H39 1.016 . S
C40 N47 1.286 . S
C41 H36 0.930 . S
C41 C42 1.397 . S
C41 C43 1.361 . S
C42 C41 1.397 . S
C42 C46 1.390 . S
C43 C41 1.361 . S
C43 C44 1.393 . S
C43 N47 1.413 . S
C44 H37 0.930 . S
C44 C43 1.393 . S
C44 C45 1.399 . S
C45 C44 1.399 . S
C45 C46 1.381 . S
C46 H38 0.930 . S
C46 C42 1.390 . S
C46 C45 1.381 . S
N47 C40 1.286 . S
N47 C43 1.413 . S
H48 C53 0.930 . S
H49 C56 0.930 . S
H50 C58 0.930 . S
H51 C52 1.016 . S
C52 H51 1.016 . S
C52 N59 1.286 . S
C53 H48 0.930 . S
C53 C54 1.397 . S
C53 C55 1.361 . S
C54 C53 1.397 . S
C54 C58 1.390 . S
C55 C53 1.361 . S
C55 C56 1.393 . S
C55 N59 1.413 . S
C56 H49 0.930 . S
C56 C55 1.393 . S
C56 C57 1.399 . S
C57 C56 1.399 . S
C57 C58 1.381 . S
C58 H50 0.930 . S
C58 C54 1.390 . S
C58 C57 1.381 . S
N59 C52 1.286 . S
N59 C55 1.413 . S
H60 C65 0.930 . S
H61 C68 0.930 . S
H62 C70 0.930 . S
H63 C64 1.016 . S
C64 H63 1.016 . S
C64 N71 1.286 . S
C65 H60 0.930 . S
C65 C66 1.397 . S
C65 C67 1.361 . S
C66 C65 1.397 . S
C66 C70 1.390 . S
C67 C65 1.361 . S
C67 C68 1.393 . S
C67 N71 1.413 . S
C68 H61 0.930 . S
C68 C67 1.393 . S
C68 C69 1.399 . S
C69 C68 1.399 . S
C69 C70 1.381 . S
C70 H62 0.930 . S
C70 C66 1.390 . S
C70 C69 1.381 . S
N71 C64 1.286 . S
N71 C67 1.413 . S
H72 C77 0.930 . S
H73 C80 0.930 . S
H74 C82 0.930 . S
H75 C76 1.016 . S
C76 H75 1.016 . S
C76 N83 1.286 . S
C77 H72 0.930 . S
C77 C78 1.397 . S
C77 C79 1.361 . S
C78 C77 1.397 . S
C78 C82 1.390 . S
C79 C77 1.361 . S
C79 C80 1.393 . S
C79 N83 1.413 . S
C80 H73 0.930 . S
C80 C79 1.393 . S
C80 C81 1.399 . S
C81 C80 1.399 . S
C81 C82 1.381 . S
C82 H74 0.930 . S
C82 C78 1.390 . S
C82 C81 1.381 . S
N83 C76 1.286 . S
N83 C79 1.413 . S
H84 C89 0.930 . S
H85 C92 0.930 . S
H86 C94 0.930 . S
H87 C88 1.016 . S
C88 H87 1.016 . S
C88 N95 1.286 . S
C89 H84 0.930 . S
C89 C90 1.397 . S
C89 C91 1.361 . S
C90 C89 1.397 . S
C90 C94 1.390 . S
C91 C89 1.361 . S
C91 C92 1.393 . S
C91 N95 1.413 . S
C92 H85 0.930 . S
C92 C91 1.393 . S
C92 C93 1.399 . S
C93 C92 1.399 . S
C93 C94 1.381 . S
C94 H86 0.930 . S
C94 C90 1.390 . S
C94 C93 1.381 . S
N95 C88 1.286 . S
N95 C91 1.413 . S
Nd96 C98 2.836 . S
Nd96 O116 2.500 . S
Nd96 O117 2.492 . S
Nd96 O118 2.487 1_565 S
Nd96 O119 2.682 1_565 S
Nd96 O120 2.410 . S
Nd96 O125 2.414 1_455 S
Nd96 O127 2.424 1_565 S
Nd97 C107 2.836 . S
Nd97 O119 2.414 1_655 S
Nd97 O121 2.424 1_545 S
Nd97 O122 2.500 . S
Nd97 O123 2.492 . S
Nd97 O124 2.487 1_545 S
Nd97 O125 2.682 1_545 S
Nd97 O126 2.410 . S
C98 Nd96 2.836 . S
C98 C99 1.498 . S
C98 O116 1.258 . S
C98 O117 1.239 . S
C99 C98 1.498 . S
C99 C100 1.366 . S
C99 C104 1.407 . S
C100 C99 1.366 . S
C100 C101 1.392 . S
C100 H128 0.930 . S
C101 C100 1.392 . S
C101 C102 1.398 . S
C101 H129 0.929 . S
C102 C101 1.398 . S
C102 C103 1.352 . S
C103 C102 1.352 . S
C103 C104 1.384 . S
C103 H130 0.930 . S
C104 C99 1.407 . S
C104 C103 1.384 . S
C104 H131 0.929 . S
C105 O118 1.241 . S
C105 O119 1.273 . S
C106 O120 1.251 1_655 S
C106 O121 1.268 . S
C107 Nd97 2.836 . S
C107 C108 1.498 . S
C107 O122 1.258 . S
C107 O123 1.239 . S
C108 C107 1.498 . S
C108 C109 1.366 . S
C108 C113 1.407 . S
C109 C108 1.366 . S
C109 C110 1.392 . S
C109 H132 0.930 . S
C110 C109 1.392 . S
C110 C111 1.398 . S
C110 H133 0.929 . S
C111 C110 1.398 . S
C111 C112 1.352 . S
C112 C111 1.352 . S
C112 C113 1.384 . S
C112 H134 0.930 . S
C113 C108 1.407 . S
C113 C112 1.384 . S
C113 H135 0.929 . S
C114 O124 1.241 . S
C114 O125 1.273 . S
C115 O126 1.251 1_455 S
C115 O127 1.268 . S
O116 Nd96 2.500 . S
O116 C98 1.258 . S
O117 Nd96 2.492 . S
O117 C98 1.239 . S
O118 Nd96 2.487 1_545 S
O118 C105 1.241 . S
O119 Nd96 2.682 1_545 S
O119 Nd97 2.414 1_455 S
O119 C105 1.273 . S
O120 Nd96 2.410 . S
O120 C106 1.251 1_455 S
O121 Nd97 2.424 1_565 S
O121 C106 1.268 . S
O122 Nd97 2.500 . S
O122 C107 1.258 . S
O123 Nd97 2.492 . S
O123 C107 1.239 . S
O124 Nd97 2.487 1_565 S
O124 C114 1.241 . S
O125 Nd96 2.414 1_655 S
O125 Nd97 2.682 1_565 S
O125 C114 1.273 . S
O126 Nd97 2.410 . S
O126 C115 1.251 1_655 S
O127 Nd96 2.424 1_545 S
O127 C115 1.268 . S
H128 C100 0.930 . S
H129 C101 0.929 . S
H130 C103 0.930 . S
H131 C104 0.929 . S
H132 C109 0.930 . S
H133 C110 0.929 . S
H134 C112 0.930 . S
H135 C113 0.929 . S
Nd136 C138 2.836 . S
Nd136 O156 2.500 . S
Nd136 O157 2.492 . S
Nd136 O158 2.487 1_565 S
Nd136 O159 2.682 1_565 S
Nd136 O160 2.418 . S
Nd136 O165 2.414 . S
Nd136 O167 2.424 1_565 S
Nd137 C147 2.836 . S
Nd137 O159 2.414 1_556 S
Nd137 O161 2.424 1_545 S
Nd137 O162 2.500 . S
Nd137 O163 2.492 . S
Nd137 O164 2.487 . S
Nd137 O165 2.682 1_546 S
Nd137 O166 2.410 1_556 S
C138 Nd136 2.836 . S
C138 C139 1.498 . S
C138 O156 1.258 . S
C138 O157 1.239 . S
C139 C138 1.498 . S
C139 C140 1.366 . S
C139 C144 1.407 . S
C140 C139 1.366 . S
C140 C141 1.392 . S
C140 H168 0.930 . S
C141 C140 1.392 . S
C141 C142 1.398 . S
C141 H169 0.929 . S
C142 C141 1.398 . S
C142 C143 1.352 . S
C143 C142 1.352 . S
C143 C144 1.384 . S
C143 H170 0.930 . S
C144 C139 1.407 . S
C144 C143 1.384 . S
C144 H171 0.929 . S
C145 O158 1.241 . S
C145 O159 1.273 . S
C146 O160 1.241 1_556 S
C146 O161 1.268 . S
C147 Nd137 2.836 . S
C147 C148 1.498 . S
C147 O162 1.258 . S
C147 O163 1.239 . S
C148 C147 1.498 . S
C148 C149 1.366 . S
C148 C153 1.407 . S
C149 C148 1.366 . S
C149 C150 1.392 . S
C149 H172 0.930 . S
C150 C149 1.392 . S
C150 C151 1.398 . S
C150 H173 0.929 . S
C151 C150 1.398 . S
C151 C152 1.352 . S
C152 C151 1.352 . S
C152 C153 1.384 . S
C152 H174 0.930 . S
C153 C148 1.407 . S
C153 C152 1.384 . S
C153 H175 0.929 . S
C154 O164 1.241 1_565 S
C154 O165 1.273 1_556 S
C155 O166 1.251 . S
C155 O167 1.268 . S
O156 Nd136 2.500 . S
O156 C138 1.258 . S
O157 Nd136 2.492 . S
O157 C138 1.239 . S
O158 Nd136 2.487 1_545 S
O158 C145 1.241 . S
O159 Nd136 2.682 1_545 S
O159 Nd137 2.414 1_554 S
O159 C145 1.273 . S
O160 Nd136 2.418 . S
O160 C146 1.241 1_554 S
O161 Nd137 2.424 1_565 S
O161 C146 1.268 . S
O162 Nd137 2.500 . S
O162 C147 1.258 . S
O163 Nd137 2.492 . S
O163 C147 1.239 . S
O164 Nd137 2.487 . S
O164 C154 1.241 1_545 S
O165 Nd136 2.414 . S
O165 Nd137 2.682 1_564 S
O165 C154 1.273 1_554 S
O166 Nd137 2.410 1_554 S
O166 C155 1.251 . S
O167 Nd136 2.424 1_545 S
O167 C155 1.268 . S
H168 C140 0.930 . S
H169 C141 0.929 . S
H170 C143 0.930 . S
H171 C144 0.929 . S
H172 C149 0.930 . S
H173 C150 0.929 . S
H174 C152 0.930 . S
H175 C153 0.929 . S
Nd176 C178 2.836 . S
Nd176 O196 2.500 . S
Nd176 O197 2.492 . S
Nd176 O198 2.487 . S
Nd176 O199 2.682 . S
Nd176 O200 2.410 . S
Nd176 O205 2.414 . S
Nd176 O207 2.424 . S
Nd177 C187 2.836 . S
Nd177 O199 2.414 . S
Nd177 O201 2.424 . S
Nd177 O202 2.500 . S
Nd177 O203 2.492 . S
Nd177 O204 2.487 . S
Nd177 O205 2.682 . S
Nd177 O206 2.410 . S
C178 Nd176 2.836 . S
C178 C179 1.498 . S
C178 O196 1.258 . S
C178 O197 1.239 . S
C179 C178 1.498 . S
C179 C180 1.366 . S
C179 C184 1.407 . S
C180 C179 1.366 . S
C180 C181 1.392 . S
C180 H208 0.930 . S
C181 C180 1.392 . S
C181 C182 1.398 . S
C181 H209 0.929 . S
C182 C181 1.398 . S
C182 C183 1.352 . S
C183 C182 1.352 . S
C183 C184 1.384 . S
C183 H210 0.930 . S
C184 C179 1.407 . S
C184 C183 1.384 . S
C184 H211 0.929 . S
C185 O198 1.241 . S
C185 O199 1.273 . S
C186 O200 1.251 . S
C186 O201 1.268 . S
C187 Nd177 2.836 . S
C187 C188 1.498 . S
C187 O202 1.258 . S
C187 O203 1.239 . S
C188 C187 1.498 . S
C188 C189 1.366 . S
C188 C193 1.407 . S
C189 C188 1.366 . S
C189 C190 1.392 . S
C189 H212 0.930 . S
C190 C189 1.392 . S
C190 C191 1.398 . S
C190 H213 0.929 . S
C191 C190 1.398 . S
C191 C192 1.352 . S
C192 C191 1.352 . S
C192 C193 1.384 . S
C192 H214 0.930 . S
C193 C188 1.407 . S
C193 C192 1.384 . S
C193 H215 0.929 . S
C194 O204 1.241 . S
C194 O205 1.273 . S
C195 O206 1.251 . S
C195 O207 1.268 . S
O196 Nd176 2.500 . S
O196 C178 1.258 . S
O197 Nd176 2.492 . S
O197 C178 1.239 . S
O198 Nd176 2.487 . S
O198 C185 1.241 . S
O199 Nd176 2.682 . S
O199 Nd177 2.414 . S
O199 C185 1.273 . S
O200 Nd176 2.410 . S
O200 C186 1.251 . S
O201 Nd177 2.424 . S
O201 C186 1.268 . S
O202 Nd177 2.500 . S
O202 C187 1.258 . S
O203 Nd177 2.492 . S
O203 C187 1.239 . S
O204 Nd177 2.487 . S
O204 C194 1.241 . S
O205 Nd176 2.414 . S
O205 Nd177 2.682 . S
O205 C194 1.273 . S
O206 Nd177 2.410 . S
O206 C195 1.251 . S
O207 Nd176 2.424 . S
O207 C195 1.268 . S
H208 C180 0.930 . S
H209 C181 0.929 . S
H210 C183 0.930 . S
H211 C184 0.929 . S
H212 C189 0.930 . S
H213 C190 0.929 . S
H214 C192 0.930 . S
H215 C193 0.929 . S
Nd216 C218 2.836 . S
Nd216 O236 2.500 . S
Nd216 O237 2.492 . S
Nd216 O238 2.487 1_655 S
Nd216 O239 2.682 1_655 S
Nd216 O240 2.410 1_655 S
Nd216 O245 2.414 1_554 S
Nd216 O247 2.424 1_655 S
Nd217 C227 2.836 . S
Nd217 O239 2.414 1_556 S
Nd217 O241 2.424 . S
Nd217 O242 2.500 . S
Nd217 O243 2.492 . S
Nd217 O244 2.487 1_455 S
Nd217 O245 2.682 1_455 S
Nd217 O246 2.410 . S
C218 Nd216 2.836 . S
C218 C219 1.498 . S
C218 O236 1.258 . S
C218 O237 1.239 . S
C219 C218 1.498 . S
C219 C220 1.366 . S
C219 C224 1.407 . S
C220 C219 1.366 . S
C220 C221 1.392 . S
C220 H248 0.930 . S
C221 C220 1.392 . S
C221 C222 1.398 . S
C221 H249 0.929 . S
C222 C221 1.398 . S
C222 C223 1.352 . S
C223 C222 1.352 . S
C223 C224 1.384 . S
C223 H250 0.930 . S
C224 C219 1.407 . S
C224 C223 1.384 . S
C224 H251 0.929 . S
C225 O238 1.241 . S
C225 O239 1.273 . S
C226 O240 1.251 1_556 S
C226 O241 1.268 . S
C227 Nd217 2.836 . S
C227 C228 1.498 . S
C227 O242 1.258 . S
C227 O243 1.239 . S
C228 C227 1.498 . S
C228 C229 1.366 . S
C228 C233 1.407 . S
C229 C228 1.366 . S
C229 C230 1.392 . S
C229 H252 0.930 . S
C230 C229 1.392 . S
C230 C231 1.398 . S
C230 H253 0.929 . S
C231 C230 1.398 . S
C231 C232 1.352 . S
C232 C231 1.352 . S
C232 C233 1.384 . S
C232 H254 0.930 . S
C233 C228 1.407 . S
C233 C232 1.384 . S
C233 H255 0.929 . S
C234 O244 1.241 . S
C234 O245 1.273 . S
C235 O246 1.251 1_554 S
C235 O247 1.268 . S
O236 Nd216 2.500 . S
O236 C218 1.258 . S
O237 Nd216 2.492 . S
O237 C218 1.239 . S
O238 Nd216 2.487 1_455 S
O238 C225 1.241 . S
O239 Nd216 2.682 1_455 S
O239 Nd217 2.414 1_554 S
O239 C225 1.273 . S
O240 Nd216 2.410 1_455 S
O240 C226 1.251 1_554 S
O241 Nd217 2.424 . S
O241 C226 1.268 . S
O242 Nd217 2.500 . S
O242 C227 1.258 . S
O243 Nd217 2.492 . S
O243 C227 1.239 . S
O244 Nd217 2.487 1_655 S
O244 C234 1.241 . S
O245 Nd216 2.414 1_556 S
O245 Nd217 2.682 1_655 S
O245 C234 1.273 . S
O246 Nd217 2.410 . S
O246 C235 1.251 1_556 S
O247 Nd216 2.424 1_455 S
O247 C235 1.268 . S
H248 C220 0.930 . S
H249 C221 0.929 . S
H250 C223 0.930 . S
H251 C224 0.929 . S
H252 C229 0.930 . S
H253 C230 0.929 . S
H254 C232 0.930 . S
H255 C233 0.929 . S
H256 C262 0.930 . S
H257 C265 0.930 . S
H258 C266 0.930 . S
H259 C267 0.930 . S
H260 C270 0.930 . S
H261 C271 0.930 . S
C262 H256 0.930 . S
C262 C263 1.355 . S
C262 C264 1.415 . S
C263 C262 1.355 . S
C263 C265 1.419 . S
C264 C262 1.415 . S
C264 C269 1.425 . S
C264 C271 1.409 . S
C265 H257 0.930 . S
C265 C263 1.419 . S
C265 C266 1.362 . S
C266 H258 0.930 . S
C266 C265 1.362 . S
C266 C269 1.409 . S
C267 H259 0.930 . S
C267 C268 1.355 . S
C267 C269 1.415 . S
C268 C267 1.355 . S
C268 C270 1.419 . S
C269 C264 1.425 . S
C269 C266 1.409 . S
C269 C267 1.415 . S
C270 H260 0.930 . S
C270 C268 1.419 . S
C270 C271 1.362 . S
C271 H261 0.930 . S
C271 C264 1.409 . S
C271 C270 1.362 . S
H272 C278 0.930 . S
H273 C281 0.930 . S
H274 C282 0.930 . S
H275 C283 0.930 . S
H276 C286 0.930 . S
H277 C287 0.930 . S
C278 H272 0.930 . S
C278 C279 1.355 . S
C278 C280 1.415 . S
C279 C278 1.355 . S
C279 C281 1.419 . S
C280 C278 1.415 . S
C280 C285 1.425 . S
C280 C287 1.409 . S
C281 H273 0.930 . S
C281 C279 1.419 . S
C281 C282 1.362 . S
C282 H274 0.930 . S
C282 C281 1.362 . S
C282 C285 1.409 . S
C283 H275 0.930 . S
C283 C284 1.355 . S
C283 C285 1.415 . S
C284 C283 1.355 . S
C284 C286 1.419 . S
C285 C280 1.425 . S
C285 C282 1.409 . S
C285 C283 1.415 . S
C286 H276 0.930 . S
C286 C284 1.419 . S
C286 C287 1.362 . S
C287 H277 0.930 . S
C287 C280 1.409 . S
C287 C286 1.362 . S
H288 C294 0.930 . S
H289 C297 0.930 . S
H290 C298 0.930 . S
H291 C299 0.930 . S
H292 C302 0.930 . S
H293 C303 0.930 . S
C294 H288 0.930 . S
C294 C295 1.355 . S
C294 C296 1.415 . S
C295 C294 1.355 . S
C295 C297 1.419 . S
C296 C294 1.415 . S
C296 C301 1.425 . S
C296 C303 1.409 . S
C297 H289 0.930 . S
C297 C295 1.419 . S
C297 C298 1.362 . S
C298 H290 0.930 . S
C298 C297 1.362 . S
C298 C301 1.409 . S
C299 H291 0.930 . S
C299 C300 1.355 . S
C299 C301 1.415 . S
C300 C299 1.355 . S
C300 C302 1.419 . S
C301 C296 1.425 . S
C301 C298 1.409 . S
C301 C299 1.415 . S
C302 H292 0.930 . S
C302 C300 1.419 . S
C302 C303 1.362 . S
C303 H293 0.930 . S
C303 C296 1.409 . S
C303 C302 1.362 . S
H304 C310 0.930 . S
H305 C313 0.930 . S
H306 C314 0.930 . S
H307 C315 0.930 . S
H308 C318 0.930 . S
H309 C319 0.930 . S
C310 H304 0.930 . S
C310 C311 1.355 . S
C310 C312 1.415 . S
C311 C310 1.355 . S
C311 C313 1.419 . S
C312 C310 1.415 . S
C312 C317 1.425 . S
C312 C319 1.409 . S
C313 H305 0.930 . S
C313 C311 1.419 . S
C313 C314 1.362 . S
C314 H306 0.930 . S
C314 C313 1.362 . S
C314 C317 1.409 . S
C315 H307 0.930 . S
C315 C316 1.355 . S
C315 C317 1.415 . S
C316 C315 1.355 . S
C316 C318 1.419 . S
C317 C312 1.425 . S
C317 C314 1.409 . S
C317 C315 1.415 . S
C318 H308 0.930 . S
C318 C316 1.419 . S
C318 C319 1.362 . S
C319 H309 0.930 . S
C319 C312 1.409 . S
C319 C318 1.362 . S
H320 C326 0.930 . S
H321 C329 0.930 . S
H322 C330 0.930 . S
H323 C331 0.930 . S
H324 C334 0.930 . S
H325 C335 0.930 . S
C326 H320 0.930 . S
C326 C327 1.355 . S
C326 C328 1.415 . S
C327 C326 1.355 . S
C327 C329 1.419 . S
C328 C326 1.415 . S
C328 C333 1.425 . S
C328 C335 1.409 . S
C329 H321 0.930 . S
C329 C327 1.419 . S
C329 C330 1.362 . S
C330 H322 0.930 . S
C330 C329 1.362 . S
C330 C333 1.409 . S
C331 H323 0.930 . S
C331 C332 1.355 . S
C331 C333 1.415 . S
C332 C331 1.355 . S
C332 C334 1.419 . S
C333 C328 1.425 . S
C333 C330 1.409 . S
C333 C331 1.415 . S
C334 H324 0.930 . S
C334 C332 1.419 . S
C334 C335 1.362 . S
C335 H325 0.930 . S
C335 C328 1.409 . S
C335 C334 1.362 . S
H336 C342 0.930 . S
H337 C345 0.930 . S
H338 C346 0.930 . S
H339 C347 0.930 . S
H340 C350 0.930 . S
H341 C351 0.930 . S
C342 H336 0.930 . S
C342 C343 1.355 . S
C342 C344 1.415 . S
C343 C342 1.355 . S
C343 C345 1.419 . S
C344 C342 1.415 . S
C344 C349 1.425 . S
C344 C351 1.409 . S
C345 H337 0.930 . S
C345 C343 1.419 . S
C345 C346 1.362 . S
C346 H338 0.930 . S
C346 C345 1.362 . S
C346 C349 1.409 . S
C347 H339 0.930 . S
C347 C348 1.355 . S
C347 C349 1.415 . S
C348 C347 1.355 . S
C348 C350 1.419 . S
C349 C344 1.425 . S
C349 C346 1.409 . S
C349 C347 1.415 . S
C350 H340 0.930 . S
C350 C348 1.419 . S
C350 C351 1.362 . S
C351 H341 0.930 . S
C351 C344 1.409 . S
C351 C350 1.362 . S
H352 C358 0.930 . S
H353 C361 0.930 . S
H354 C362 0.930 . S
H355 C363 0.930 . S
H356 C366 0.907 1_554 S
H357 C367 0.930 . S
C358 H352 0.930 . S
C358 C359 1.355 . S
C358 C360 1.415 . S
C359 C358 1.355 . S
C359 C361 1.419 . S
C360 C358 1.415 . S
C360 C365 1.425 . S
C360 C367 1.409 . S
C361 H353 0.930 . S
C361 C359 1.419 . S
C361 C362 1.362 . S
C362 H354 0.930 . S
C362 C361 1.362 . S
C362 C365 1.409 . S
C363 H355 0.930 . S
C363 C364 1.355 . S
C363 C365 1.415 . S
C364 C363 1.355 . S
C364 C366 1.419 . S
C365 C360 1.425 . S
C365 C362 1.409 . S
C365 C363 1.415 . S
C366 H356 0.907 1_556 S
C366 C364 1.419 . S
C366 C367 1.362 . S
C367 H357 0.930 . S
C367 C360 1.409 . S
C367 C366 1.362 . S
H368 C374 0.930 . S
H369 C377 0.930 . S
H370 C378 0.930 . S
H371 C379 0.930 . S
H372 C382 0.930 . S
H373 C383 0.930 . S
C374 H368 0.930 . S
C374 C375 1.355 . S
C374 C376 1.415 . S
C375 C374 1.355 . S
C375 C377 1.419 . S
C376 C374 1.415 . S
C376 C381 1.425 . S
C376 C383 1.409 . S
C377 H369 0.930 . S
C377 C375 1.419 . S
C377 C378 1.362 . S
C378 H370 0.930 . S
C378 C377 1.362 . S
C378 C381 1.409 . S
C379 H371 0.930 . S
C379 C380 1.355 . S
C379 C381 1.415 . S
C380 C379 1.355 . S
C380 C382 1.419 . S
C381 C376 1.425 . S
C381 C378 1.409 . S
C381 C379 1.415 . S
C382 H372 0.930 . S
C382 C380 1.419 . S
C382 C383 1.362 . S
C383 H373 0.930 . S
C383 C376 1.409 . S
C383 C382 1.362 . S
H384 C390 0.930 . S
H385 C393 0.930 . S
H386 C394 0.930 . S
H387 C395 0.930 . S
H388 C398 0.930 . S
H389 C399 0.930 . S
C390 H384 0.930 . S
C390 C391 1.355 . S
C390 C392 1.415 . S
C391 C390 1.355 . S
C391 C393 1.419 . S
C392 C390 1.415 . S
C392 C397 1.425 . S
C392 C399 1.409 . S
C393 H385 0.930 . S
C393 C391 1.419 . S
C393 C394 1.362 . S
C394 H386 0.930 . S
C394 C393 1.362 . S
C394 C397 1.409 . S
C395 H387 0.930 . S
C395 C396 1.355 . S
C395 C397 1.415 . S
C396 C395 1.355 . S
C396 C398 1.419 . S
C397 C392 1.425 . S
C397 C394 1.409 . S
C397 C395 1.415 . S
C398 H388 0.930 . S
C398 C396 1.419 . S
C398 C399 1.362 . S
C399 H389 0.930 . S
C399 C392 1.409 . S
C399 C398 1.362 . S
H400 C406 0.930 . S
H401 C409 0.930 . S
H402 C410 0.930 . S
H403 C411 0.930 . S
H404 C414 0.930 . S
H405 C415 0.930 . S
C406 H400 0.930 . S
C406 C407 1.355 . S
C406 C408 1.415 . S
C407 C406 1.355 . S
C407 C409 1.419 . S
C408 C406 1.415 . S
C408 C413 1.425 . S
C408 C415 1.409 . S
C409 H401 0.930 . S
C409 C407 1.419 . S
C409 C410 1.362 . S
C410 H402 0.930 . S
C410 C409 1.362 . S
C410 C413 1.409 . S
C411 H403 0.930 . S
C411 C412 1.355 . S
C411 C413 1.415 . S
C412 C411 1.355 . S
C412 C414 1.419 . S
C413 C408 1.425 . S
C413 C410 1.409 . S
C413 C411 1.415 . S
C414 H404 0.930 . S
C414 C412 1.419 . S
C414 C415 1.362 . S
C415 H405 0.930 . S
C415 C408 1.409 . S
C415 C414 1.362 . S
H416 C422 0.930 . S
H417 C425 0.930 . S
H418 C426 0.930 . S
H419 C427 0.930 . S
H420 C430 0.930 1_455 S
H421 C431 0.930 . S
C422 H416 0.930 . S
C422 C423 1.355 . S
C422 C424 1.415 . S
C423 C422 1.355 . S
C423 C425 1.419 . S
C424 C422 1.415 . S
C424 C429 1.425 . S
C424 C431 1.409 . S
C425 H417 0.930 . S
C425 C423 1.419 . S
C425 C426 1.362 . S
C426 H418 0.930 . S
C426 C425 1.362 . S
C426 C429 1.409 . S
C427 H419 0.930 . S
C427 C428 1.355 . S
C427 C429 1.415 . S
C428 C427 1.355 . S
C428 C430 1.419 . S
C429 C424 1.425 . S
C429 C426 1.409 . S
C429 C427 1.415 . S
C430 H420 0.930 1_655 S
C430 C428 1.419 . S
C430 C431 1.362 . S
C431 H421 0.930 . S
C431 C424 1.409 . S
C431 C430 1.362 . S
H432 C438 0.930 . S
H433 C441 0.930 . S
H434 C442 0.930 . S
H435 C443 0.930 . S
H436 C446 0.930 . S
H437 C447 0.930 . S
C438 H432 0.930 . S
C438 C439 1.355 . S
C438 C440 1.415 . S
C439 C438 1.355 . S
C439 C441 1.419 . S
C440 C438 1.415 . S
C440 C445 1.425 . S
C440 C447 1.409 . S
C441 H433 0.930 . S
C441 C439 1.419 . S
C441 C442 1.362 . S
C442 H434 0.930 . S
C442 C441 1.362 . S
C442 C445 1.409 . S
C443 H435 0.930 . S
C443 C444 1.355 . S
C443 C445 1.415 . S
C444 C443 1.355 . S
C444 C446 1.419 . S
C445 C440 1.425 . S
C445 C442 1.409 . S
C445 C443 1.415 . S
C446 H436 0.930 . S
C446 C444 1.419 . S
C446 C447 1.362 . S
C447 H437 0.930 . S
C447 C440 1.409 . S
C447 C446 1.362 . S
H448 C454 0.930 . S
H449 C457 0.930 . S
H450 C458 0.930 . S
H451 C459 0.930 . S
H452 C462 0.930 1_545 S
H453 C463 0.930 . S
C454 H448 0.930 . S
C454 C455 1.355 . S
C454 C456 1.415 . S
C455 C454 1.355 . S
C455 C457 1.419 . S
C456 C454 1.415 . S
C456 C461 1.425 . S
C456 C463 1.409 . S
C457 H449 0.930 . S
C457 C455 1.419 . S
C457 C458 1.362 . S
C458 H450 0.930 . S
C458 C457 1.362 . S
C458 C461 1.409 . S
C459 H451 0.930 . S
C459 C460 1.355 . S
C459 C461 1.415 . S
C460 C459 1.355 . S
C460 C462 1.419 . S
C461 C456 1.425 . S
C461 C458 1.409 . S
C461 C459 1.415 . S
C462 H452 0.930 1_565 S
C462 C460 1.419 . S
C462 C463 1.362 . S
C463 H453 0.930 . S
C463 C456 1.409 . S
C463 C462 1.362 . S
H464 C470 0.930 . S
H465 C473 0.930 . S
H466 C474 0.930 . S
H467 C475 0.930 . S
H468 C478 0.930 . S
H469 C479 0.930 . S
C470 H464 0.930 . S
C470 C471 1.355 . S
C470 C472 1.415 . S
C471 C470 1.355 . S
C471 C473 1.419 . S
C472 C470 1.415 . S
C472 C477 1.425 . S
C472 C479 1.409 . S
C473 H465 0.930 . S
C473 C471 1.419 . S
C473 C474 1.362 . S
C474 H466 0.930 . S
C474 C473 1.362 . S
C474 C477 1.409 . S
C475 H467 0.930 . S
C475 C476 1.355 . S
C475 C477 1.415 . S
C476 C475 1.355 . S
C476 C478 1.419 . S
C477 C472 1.425 . S
C477 C474 1.409 . S
C477 C475 1.415 . S
C478 H468 0.930 . S
C478 C476 1.419 . S
C478 C479 1.362 . S
C479 H469 0.930 . S
C479 C472 1.409 . S
C479 C478 1.362 . S
H480 C486 0.930 . S
H481 C489 0.930 . S
H482 C490 0.930 . S
H483 C491 0.930 . S
H484 C494 0.930 . S
H485 C495 0.930 . S
C486 H480 0.930 . S
C486 C487 1.355 . S
C486 C488 1.415 . S
C487 C486 1.355 . S
C487 C489 1.419 . S
C488 C486 1.415 . S
C488 C493 1.425 . S
C488 C495 1.409 . S
C489 H481 0.930 . S
C489 C487 1.419 . S
C489 C490 1.362 . S
C490 H482 0.930 . S
C490 C489 1.362 . S
C490 C493 1.409 . S
C491 H483 0.930 . S
C491 C492 1.355 . S
C491 C493 1.415 . S
C492 C491 1.355 . S
C492 C494 1.419 . S
C493 C488 1.425 . S
C493 C490 1.409 . S
C493 C491 1.415 . S
C494 H484 0.930 . S
C494 C492 1.419 . S
C494 C495 1.362 . S
C495 H485 0.930 . S
C495 C488 1.409 . S
C495 C494 1.362 . S
H496 C502 0.930 . S
H497 C505 0.930 . S
H498 C506 0.930 . S
H499 C507 0.930 . S
H500 C510 0.930 . S
H501 C511 0.930 . S
C502 H496 0.930 . S
C502 C503 1.355 . S
C502 C504 1.415 . S
C503 C502 1.355 . S
C503 C505 1.419 . S
C504 C502 1.415 . S
C504 C509 1.425 . S
C504 C511 1.409 . S
C505 H497 0.930 . S
C505 C503 1.419 . S
C505 C506 1.362 . S
C506 H498 0.930 . S
C506 C505 1.362 . S
C506 C509 1.409 . S
C507 H499 0.930 . S
C507 C508 1.355 . S
C507 C509 1.415 . S
C508 C507 1.355 . S
C508 C510 1.419 . S
C509 C504 1.425 . S
C509 C506 1.409 . S
C509 C507 1.415 . S
C510 H500 0.930 . S
C510 C508 1.419 . S
C510 C511 1.362 . S
C511 H501 0.930 . S
C511 C504 1.409 . S
C511 C510 1.362 . S
H512 C518 0.930 . S
H513 C521 0.930 . S
H514 C522 0.930 1_554 S
H515 C523 0.930 1_554 S
H516 C526 0.930 . S
H517 C527 0.930 . S
C518 H512 0.930 . S
C518 C519 1.355 . S
C518 C520 1.415 . S
C519 C518 1.355 . S
C519 C521 1.419 . S
C520 C518 1.415 . S
C520 C525 1.425 . S
C520 C527 1.409 . S
C521 H513 0.930 . S
C521 C519 1.419 . S
C521 C522 1.362 . S
C522 H514 0.930 1_556 S
C522 C521 1.362 . S
C522 C525 1.409 . S
C523 H515 0.930 1_556 S
C523 C524 1.355 . S
C523 C525 1.415 . S
C524 C523 1.355 . S
C524 C526 1.419 . S
C525 C520 1.425 . S
C525 C522 1.409 . S
C525 C523 1.415 . S
C526 H516 0.930 . S
C526 C524 1.419 . S
C526 C527 1.362 . S
C527 H517 0.930 . S
C527 C520 1.409 . S
C527 C526 1.362 . S
H528 C534 0.930 . S
H529 C537 0.930 . S
H530 C538 0.930 . S
H531 C539 0.930 . S
H532 C542 0.930 . S
H533 C543 0.930 . S
C534 H528 0.930 . S
C534 C535 1.355 . S
C534 C536 1.415 . S
C535 C534 1.355 . S
C535 C537 1.419 . S
C536 C534 1.415 . S
C536 C541 1.425 . S
C536 C543 1.409 . S
C537 H529 0.930 . S
C537 C535 1.419 . S
C537 C538 1.362 . S
C538 H530 0.930 . S
C538 C537 1.362 . S
C538 C541 1.409 . S
C539 H531 0.930 . S
C539 C540 1.355 . S
C539 C541 1.415 . S
C540 C539 1.355 . S
C540 C542 1.419 . S
C541 C536 1.425 . S
C541 C538 1.409 . S
C541 C539 1.415 . S
C542 H532 0.930 . S
C542 C540 1.419 . S
C542 C543 1.362 . S
C543 H533 0.930 . S
C543 C536 1.409 . S
C543 C542 1.362 . S
H544 C550 0.930 . S
H545 C553 0.930 . S
H546 C554 0.930 . S
H547 C555 0.930 . S
H548 C558 0.930 . S
H549 C559 0.930 . S
C550 H544 0.930 . S
C550 C551 1.355 . S
C550 C552 1.415 . S
C551 C550 1.355 . S
C551 C553 1.419 . S
C552 C550 1.415 . S
C552 C557 1.425 . S
C552 C559 1.409 . S
C553 H545 0.930 . S
C553 C551 1.419 . S
C553 C554 1.362 . S
C554 H546 0.930 . S
C554 C553 1.362 . S
C554 C557 1.409 . S
C555 H547 0.930 . S
C555 C556 1.355 . S
C555 C557 1.415 . S
C556 C555 1.355 . S
C556 C558 1.419 . S
C557 C552 1.425 . S
C557 C554 1.409 . S
C557 C555 1.415 . S
C558 H548 0.930 . S
C558 C556 1.419 . S
C558 C559 1.362 . S
C559 H549 0.930 . S
C559 C552 1.409 . S
C559 C558 1.362 . S
H560 C566 0.930 . S
H561 C569 0.930 . S
H562 C570 0.930 . S
H563 C571 0.930 . S
H564 C574 0.930 . S
H565 C575 0.930 . S
C566 H560 0.930 . S
C566 C567 1.355 . S
C566 C568 1.415 . S
C567 C566 1.355 . S
C567 C569 1.419 . S
C568 C566 1.415 . S
C568 C573 1.425 . S
C568 C575 1.409 . S
C569 H561 0.930 . S
C569 C567 1.419 . S
C569 C570 1.362 . S
C570 H562 0.930 . S
C570 C569 1.362 . S
C570 C573 1.409 . S
C571 H563 0.930 . S
C571 C572 1.355 . S
C571 C573 1.415 . S
C572 C571 1.355 . S
C572 C574 1.419 . S
C573 C568 1.425 . S
C573 C570 1.409 . S
C573 C571 1.415 . S
C574 H564 0.930 . S
C574 C572 1.419 . S
C574 C575 1.362 . S
C575 H565 0.930 . S
C575 C568 1.409 . S
C575 C574 1.362 . S
H576 C582 0.930 . S
H577 C585 0.930 . S
H578 C586 0.930 . S
H579 C587 0.930 1_455 S
H580 C590 0.930 . S
H581 C591 0.930 . S
C582 H576 0.930 . S
C582 C583 1.355 . S
C582 C584 1.415 . S
C583 C582 1.355 . S
C583 C585 1.419 . S
C584 C582 1.415 . S
C584 C589 1.425 . S
C584 C591 1.409 . S
C585 H577 0.930 . S
C585 C583 1.419 . S
C585 C586 1.362 . S
C586 H578 0.930 . S
C586 C585 1.362 . S
C586 C589 1.409 . S
C587 H579 0.930 1_655 S
C587 C588 1.355 . S
C587 C589 1.415 . S
C588 C587 1.355 . S
C588 C590 1.419 . S
C589 C584 1.425 . S
C589 C586 1.409 . S
C589 C587 1.415 . S
C590 H580 0.930 . S
C590 C588 1.419 . S
C590 C591 1.362 . S
C591 H581 0.930 . S
C591 C584 1.409 . S
C591 C590 1.362 . S
H592 C598 0.930 . S
H593 C601 0.930 . S
H594 C602 0.930 . S
H595 C603 0.930 . S
H596 C606 0.930 . S
H597 C607 0.930 . S
C598 H592 0.930 . S
C598 C599 1.355 . S
C598 C600 1.415 . S
C599 C598 1.355 . S
C599 C601 1.419 . S
C600 C598 1.415 . S
C600 C605 1.425 . S
C600 C607 1.409 . S
C601 H593 0.930 . S
C601 C599 1.419 . S
C601 C602 1.362 . S
C602 H594 0.930 . S
C602 C601 1.362 . S
C602 C605 1.409 . S
C603 H595 0.930 . S
C603 C604 1.355 . S
C603 C605 1.415 . S
C604 C603 1.355 . S
C604 C606 1.419 . S
C605 C600 1.425 . S
C605 C602 1.409 . S
C605 C603 1.415 . S
C606 H596 0.930 . S
C606 C604 1.419 . S
C606 C607 1.362 . S
C607 H597 0.930 . S
C607 C600 1.409 . S
C607 C606 1.362 . S
H608 C614 0.930 . S
H609 C617 0.930 . S
H610 C618 0.930 . S
H611 C619 0.930 . S
H612 C622 0.930 . S
H613 C623 0.930 . S
C614 H608 0.930 . S
C614 C615 1.355 . S
C614 C616 1.415 . S
C615 C614 1.355 . S
C615 C617 1.419 . S
C616 C614 1.415 . S
C616 C621 1.425 . S
C616 C623 1.409 . S
C617 H609 0.930 . S
C617 C615 1.419 . S
C617 C618 1.362 . S
C618 H610 0.930 . S
C618 C617 1.362 . S
C618 C621 1.409 . S
C619 H611 0.930 . S
C619 C620 1.355 . S
C619 C621 1.415 . S
C620 C619 1.355 . S
C620 C622 1.419 . S
C621 C616 1.425 . S
C621 C618 1.409 . S
C621 C619 1.415 . S
C622 H612 0.930 . S
C622 C620 1.419 . S
C622 C623 1.362 . S
C623 H613 0.930 . S
C623 C616 1.409 . S
C623 C622 1.362 . S
H624 C630 0.930 . S
H625 C633 0.930 . S
H626 C634 0.930 . S
H627 C635 0.930 . S
H628 C638 0.930 . S
H629 C639 0.930 . S
C630 H624 0.930 . S
C630 C631 1.355 . S
C630 C632 1.415 . S
C631 C630 1.355 . S
C631 C633 1.419 . S
C632 C630 1.415 . S
C632 C637 1.425 . S
C632 C639 1.409 . S
C633 H625 0.930 . S
C633 C631 1.419 . S
C633 C634 1.362 . S
C634 H626 0.930 . S
C634 C633 1.362 . S
C634 C637 1.409 . S
C635 H627 0.930 . S
C635 C636 1.355 . S
C635 C637 1.415 . S
C636 C635 1.355 . S
C636 C638 1.419 . S
C637 C632 1.425 . S
C637 C634 1.409 . S
C637 C635 1.415 . S
C638 H628 0.930 . S
C638 C636 1.419 . S
C638 C639 1.362 . S
C639 H629 0.930 . S
C639 C632 1.409 . S
C639 C638 1.362 . S
C263 C6 3.013 . S
C268 C115 2.974 . S
C279 C18 2.354 . S
C284 C146 2.407 . S
C300 C185 1.406 . S
C295 C28 1.452 . S
C311 C40 0.390 . S
C316 C222 0.402 . S
C332 C145 3.038 . S
C327 C9 3.129 . S
C348 C102 1.266 . S
C343 C16 1.293 . S
C364 C234 1.523 . S
C359 C30 1.568 . S
C380 C191 1.065 . S
C375 C42 1.051 . S
C391 C4 2.375 . S
C396 C235 2.367 . S
C412 C151 1.380 . S
C407 C33 1.403 . S
C423 C45 0.303 . S
C428 C114 0.579 . S
C439 C21 2.446 . S
C444 C186 2.444 . S
C460 C106 3.006 . S
C455 C57 3.062 . S
C471 C66 2.275 . S
C476 C155 2.375 . S
C487 C76 1.422 . S
C492 C194 1.465 . S
C503 C88 0.645 . S
C508 C231 0.598 . S
C519 C54 3.086 . S
C524 C154 2.963 . S
C540 C111 1.303 . S
C535 C64 1.340 . S
C556 C225 1.292 . S
C551 C78 1.386 . S
C572 C182 1.089 . S
C567 C93 1.099 . S
C583 C52 2.283 . S
C588 C226 2.293 1_655 S
C604 C142 1.382 . S
C599 C81 1.405 . S
C620 C105 0.488 . S
C615 C90 0.328 . S
C631 C69 2.483 . S
C636 C195 2.468 . S
