# Generated by pormake.
# Topology zzz, (3,6)-cn, num edge types: 1
# Building blocks:
#     Node 0, Type 0, BuildingBlock: BETDAH_clean_linker_0, # of connection points: 3
#     Node 1, Type 0, BuildingBlock: BETDAH_clean_linker_0, # of connection points: 3
#     Node 2, Type 0, BuildingBlock: BETDAH_clean_linker_0, # of connection points: 3
#     Node 3, Type 0, BuildingBlock: BETDAH_clean_linker_0, # of connection points: 3
#     Node 4, Type 0, BuildingBlock: BETDAH_clean_linker_0, # of connection points: 3
#     Node 5, Type 0, BuildingBlock: BETDAH_clean_linker_0, # of connection points: 3
#     Node 6, Type 0, BuildingBlock: BETDAH_clean_linker_0, # of connection points: 3
#     Node 7, Type 0, BuildingBlock: BETDAH_clean_linker_0, # of connection points: 3
#     Node 8, Type 1, BuildingBlock: KUMBUR_clean_sbu_0, # of connection points: 6
#     Node 9, Type 1, BuildingBlock: KUMBUR_clean_sbu_0, # of connection points: 6
#     Node 10, Type 1, BuildingBlock: KUMBUR_clean_sbu_0, # of connection points: 6
#     Node 11, Type 1, BuildingBlock: KUMBUR_clean_sbu_0, # of connection points: 6
#     Edge 12, Type (0, 1), BuildingBlock: UVAHIK_clean_linker_0, # of connection points: 2
#     Edge 13, Type (0, 1), BuildingBlock: UVAHIK_clean_linker_0, # of connection points: 2
#     Edge 14, Type (0, 1), BuildingBlock: UVAHIK_clean_linker_0, # of connection points: 2
#     Edge 15, Type (0, 1), BuildingBlock: UVAHIK_clean_linker_0, # of connection points: 2
#     Edge 16, Type (0, 1), BuildingBlock: UVAHIK_clean_linker_0, # of connection points: 2
#     Edge 17, Type (0, 1), BuildingBlock: UVAHIK_clean_linker_0, # of connection points: 2
#     Edge 18, Type (0, 1), BuildingBlock: UVAHIK_clean_linker_0, # of connection points: 2
#     Edge 19, Type (0, 1), BuildingBlock: UVAHIK_clean_linker_0, # of connection points: 2
#     Edge 20, Type (0, 1), BuildingBlock: UVAHIK_clean_linker_0, # of connection points: 2
#     Edge 21, Type (0, 1), BuildingBlock: UVAHIK_clean_linker_0, # of connection points: 2
#     Edge 22, Type (0, 1), BuildingBlock: UVAHIK_clean_linker_0, # of connection points: 2
#     Edge 23, Type (0, 1), BuildingBlock: UVAHIK_clean_linker_0, # of connection points: 2
#     Edge 24, Type (0, 1), BuildingBlock: UVAHIK_clean_linker_0, # of connection points: 2
#     Edge 25, Type (0, 1), BuildingBlock: UVAHIK_clean_linker_0, # of connection points: 2
#     Edge 26, Type (0, 1), BuildingBlock: UVAHIK_clean_linker_0, # of connection points: 2
#     Edge 27, Type (0, 1), BuildingBlock: UVAHIK_clean_linker_0, # of connection points: 2
#     Edge 28, Type (0, 1), BuildingBlock: UVAHIK_clean_linker_0, # of connection points: 2
#     Edge 29, Type (0, 1), BuildingBlock: UVAHIK_clean_linker_0, # of connection points: 2
#     Edge 30, Type (0, 1), BuildingBlock: UVAHIK_clean_linker_0, # of connection points: 2
#     Edge 31, Type (0, 1), BuildingBlock: UVAHIK_clean_linker_0, # of connection points: 2
#     Edge 32, Type (0, 1), BuildingBlock: UVAHIK_clean_linker_0, # of connection points: 2
#     Edge 33, Type (0, 1), BuildingBlock: UVAHIK_clean_linker_0, # of connection points: 2
#     Edge 34, Type (0, 1), BuildingBlock: UVAHIK_clean_linker_0, # of connection points: 2
#     Edge 35, Type (0, 1), BuildingBlock: UVAHIK_clean_linker_0, # of connection points: 2
# Relax obj value: 0.147
# Max RMSD: 0.153
# Mean RMSD: 0.113
data_MOF--net-zzz--node1-KUMBUR_clean_sbu_0--node2-BETDAH_clean_linker_0--edge1-UVAHIK_clean_linker_0
_symmetry_space_group_name_H-M    P1
_symmetry_Int_Tables_number       1
_symmetry_cell_setting            triclinic
loop_
_symmetry_equiv_pos_as_xyz
'x, y, z'
_cell_length_a     65.474678
_cell_length_b     65.368581
_cell_length_c     19.040806
_cell_angle_alpha  90.83667
_cell_angle_beta   89.907064
_cell_angle_gamma 89.937223
loop_
_atom_site_label
_atom_site_type_symbol
_atom_site_fract_x
_atom_site_fract_y
_atom_site_fract_z
_atom_type_partial_charge
H0 H 0.80359 0.55479 0.14867 0.0
H1 H 0.74413 0.53999 0.06959 0.0
H2 H 0.75886 0.52857 0.28656 0.0
C3 C 0.78821 0.54936 0.15837 0.0
C4 C 0.783 0.54208 0.22496 0.0
C5 C 0.7743 0.54852 0.1026 0.0
C6 C 0.75465 0.54078 0.11339 0.0
C7 C 0.74882 0.53388 0.18025 0.0
C8 C 0.76319 0.53423 0.23546 0.0
N9 N 0.72878 0.52632 0.19319 0.0
C10 C 0.71294 0.52672 0.14425 0.0
H11 H 0.97704 0.81706 0.15731 0.0
H12 H 0.98847 0.75855 0.05878 0.0
H13 H 0.01318 0.77232 0.2639 0.0
C14 C 0.98335 0.80174 0.15957 0.0
C15 C 0.99498 0.79628 0.21812 0.0
C16 C 0.98116 0.78836 0.10161 0.0
C17 C 0.9901 0.76881 0.10357 0.0
C18 C 1.00141 0.76277 0.16258 0.0
C19 C 1.00407 0.77673 0.21912 0.0
N20 N 0.01067 0.74304 0.16623 0.0
C21 C 0.0092 0.72754 0.11504 0.0
H22 H 0.71568 0.99607 0.16244 0.0
H23 H 0.77831 0.9908 0.09633 0.0
H24 H 0.7637 1.00352 0.31374 0.0
C25 C 0.73184 0.99594 0.17488 0.0
C26 C 0.73789 0.99987 0.2442 0.0
C27 C 0.74627 0.99246 0.12132 0.0
C28 C 0.76717 0.99332 0.13763 0.0
C29 C 0.77362 0.99727 0.20709 0.0
C30 C 0.75885 1.0003 0.26034 0.0
N31 N 0.79473 0.99855 0.22483 0.0
C32 C 0.81078 0.99778 0.17636 0.0
H33 H 0.55629 0.72453 0.18303 0.0
H34 H 0.54837 0.78549 0.10624 0.0
H35 H 0.54193 0.77351 0.32746 0.0
C36 C 0.55367 0.7407 0.19305 0.0
C37 C 0.54961 0.74738 0.26188 0.0
C38 C 0.5531 0.75428 0.13661 0.0
C39 C 0.54882 0.77503 0.14979 0.0
C40 C 0.54503 0.78214 0.21885 0.0
C41 C 0.54516 0.76816 0.27447 0.0
N42 N 0.54083 0.80312 0.23398 0.0
C43 C 0.54033 0.81841 0.18372 0.0
H44 H 0.22642 0.47919 0.0731 0.0
H45 H 0.28555 0.49363 0.15574 0.0
H46 H 0.27167 0.5061 0.93886 0.0
C47 C 0.24185 0.48464 0.0644 0.0
C48 C 0.2473 0.49229 0.99853 0.0
C49 C 0.25554 0.48521 0.12084 0.0
C50 C 0.27522 0.49303 0.11141 0.0
C51 C 0.28131 0.50026 0.04525 0.0
C52 C 0.26715 0.50017 0.98939 0.0
N53 N 0.30137 0.50793 0.03365 0.0
C54 C 0.31693 0.50775 0.08369 0.0
H55 H 0.03506 0.21891 0.10033 0.0
H56 H 0.03267 0.28176 0.17039 0.0
H57 H 0.02112 0.26607 0.95333 0.0
C58 C 0.0332 0.23502 0.08913 0.0
C59 C 0.02844 0.24071 0.02044 0.0
C60 C 0.0346 0.24969 0.14374 0.0
C61 C 0.03142 0.27042 0.12861 0.0
C62 C 0.02655 0.27652 0.06006 0.0
C63 C 0.02504 0.26153 0.00613 0.0
N64 N 0.02288 0.29747 0.04422 0.0
C65 C 0.02299 0.3135 0.09379 0.0
H66 H 0.31796 0.06026 0.07123 0.0
H67 H 0.25933 0.05104 0.16806 0.0
H68 H 0.27109 0.0277 0.95888 0.0
C69 C 0.30232 0.05485 0.06807 0.0
C70 C 0.29603 0.0441 0.00774 0.0
C71 C 0.28931 0.0572 0.12643 0.0
C72 C 0.26934 0.04933 0.123 0.0
C73 C 0.26254 0.03897 0.062 0.0
C74 C 0.2761 0.03614 1.00514 0.0
N75 N 0.24244 0.03079 0.05639 0.0
C76 C 0.22722 0.03237 0.10767 0.0
H77 H 0.47382 0.30646 0.05589 0.0
H78 H 0.47943 0.24496 0.12972 0.0
H79 H 0.48625 0.25749 0.9091 0.0
C80 C 0.4758 0.29025 0.0449 0.0
C81 C 0.47963 0.28371 0.97572 0.0
C82 C 0.4758 0.27643 0.10066 0.0
C83 C 0.47935 0.25558 0.08664 0.0
C84 C 0.48288 0.24861 0.01727 0.0
C85 C 0.48324 0.2628 0.96231 0.0
N86 N 0.48631 0.22756 1.00101 0.0
C87 C 0.48633 0.21196 0.05018 0.0
Tb88 Tb 0.03668 0.01381 0.70468 0.0
C89 C 0.96306 0.9873 0.5305 0.0
C90 C 0.97536 0.96181 0.44717 0.0
C91 C 0.9404 0.9602 0.48939 0.0
C92 C 0.97885 0.97921 0.49046 0.0
C93 C 0.94348 0.9783 0.52847 0.0
C94 C 0.95632 0.95197 0.44878 0.0
C95 C 0.93071 1.0072 0.59562 0.0
N96 N 0.96645 1.00499 0.56677 0.0
C97 C 0.95034 0.01558 0.59593 0.0
C98 C 0.92734 0.98826 0.56306 0.0
Tb99 Tb 0.99949 0.01669 0.56698 0.0
N100 N 0.99707 0.98924 0.48971 0.0
C101 C 0.01147 0.98377 0.44057 0.0
C102 C 0.99081 0.95528 0.40142 0.0
C103 C 0.00877 0.96655 0.39723 0.0
H104 H 0.95264 0.03024 0.62142 0.0
H105 H 0.02052 0.9621 0.35995 0.0
H106 H 0.95352 0.93843 0.41676 0.0
H107 H 0.9182 0.01535 0.62065 0.0
H108 H 0.02511 0.99243 0.43304 0.0
H109 H 0.01344 0.06945 0.90354 0.0
H110 H 0.98871 0.94207 0.36719 0.0
H111 H 0.08262 1.00355 0.63828 0.0
H112 H 0.00936 0.03935 0.8278 0.0
H113 H 0.11674 0.01957 0.6363 0.0
H114 H 0.92555 0.95291 0.48802 0.0
H115 H 0.04539 0.08949 0.90044 0.0
H116 H 0.0809 0.09358 0.8529 0.0
H117 H 0.91209 0.98184 0.56263 0.0
H118 H 0.10903 0.08008 0.77982 0.0
N119 N 0.03862 0.04188 0.77892 0.0
C120 C 0.02351 0.04754 0.82511 0.0
C121 C 0.04374 0.07611 0.86665 0.0
C122 C 0.05959 0.06972 0.82228 0.0
C123 C 0.02572 0.06482 0.86864 0.0
C124 C 0.0566 0.05221 0.7792 0.0
H125 H 0.12263 0.05235 0.69962 0.0
N126 N 0.06908 0.02733 0.70052 0.0
C127 C 0.10438 0.02686 0.665 0.0
C128 C 0.07236 0.04472 0.7383 0.0
C129 C 0.08504 0.01782 0.66639 0.0
C130 C 0.10762 0.04539 0.70059 0.0
C131 C 0.09161 0.05437 0.73888 0.0
O132 O 0.05861 0.99526 0.75206 0.0
O133 O 0.0182 0.99695 0.62944 0.0
O134 O 0.98455 1.00244 0.65736 0.0
O135 O 1.0057 0.01183 0.75084 0.0
O136 O 0.04698 0.98643 0.64483 0.0
O137 O 0.02897 0.99946 0.79956 0.0
O138 O 0.00963 0.04194 0.509 0.0
O139 O 0.01694 0.0334 0.64512 0.0
O140 O 0.04942 0.02965 0.61368 0.0
O141 O 0.0308 0.0146 0.52326 0.0
O142 O 0.98723 0.04172 0.63332 0.0
O143 O 0.98031 0.02877 0.48908 0.0
C144 C 0.03029 0.98281 0.6119 0.0
C145 C 0.04513 0.96699 0.80806 0.0
C146 C 0.02935 0.93385 0.78345 0.0
C147 C 0.0288 0.95536 0.78071 0.0
C148 C 0.04647 0.92428 0.81353 0.0
C149 C 0.06193 0.95709 0.83791 0.0
C150 C 0.06259 0.93584 0.84044 0.0
C151 C 0.98811 1.00482 0.72547 0.0
C152 C 0.04611 0.98927 0.80049 0.0
C153 C 0.09442 0.07231 0.77917 0.0
C154 C 0.07842 0.07998 0.82082 0.0
C155 C 1.00378 0.04622 0.66615 0.0
C156 C 0.9823 0.06492 0.4918 0.0
C157 C 0.99444 0.08212 0.50767 0.0
C158 C 0.98549 0.10135 0.52143 0.0
C159 C 0.96406 0.10304 0.52055 0.0
C160 C 0.96094 0.06709 0.49056 0.0
C161 C 0.95194 0.08601 0.50538 0.0
C162 C 0.0476 0.02367 0.54729 0.0
C163 C 0.99189 0.04463 0.48037 0.0
H164 H 0.01588 0.96296 0.75687 0.0
H165 H 0.04719 0.9078 0.81821 0.0
H166 H 0.07471 0.96585 0.85832 0.0
H167 H 0.07561 0.92829 0.86363 0.0
H168 H 0.0109 0.0805 0.50958 0.0
H169 H 0.95661 0.11765 0.52924 0.0
H170 H 0.95116 0.05414 0.4788 0.0
H171 H 0.93548 0.08754 0.50429 0.0
Tb172 Tb 0.51353 0.03397 0.67782 0.0
C173 C 0.54533 0.95868 0.52158 0.0
C174 C 0.57042 0.97089 0.43897 0.0
C175 C 0.57375 0.93679 0.4868 0.0
C176 C 0.55262 0.97402 0.47964 0.0
C177 C 0.55548 0.93967 0.5244 0.0
C178 C 0.58123 0.9524 0.44417 0.0
C179 C 0.52772 0.92717 0.59555 0.0
N180 N 0.5276 0.96203 0.55665 0.0
C181 C 0.51825 0.94629 0.59108 0.0
C182 C 0.5466 0.92393 0.56299 0.0
Tb183 Tb 0.5131 0.99386 0.54621 0.0
N184 N 0.54166 0.9916 0.47591 0.0
C185 C 0.54692 1.00602 0.42767 0.0
C186 C 0.5765 0.98618 0.39286 0.0
C187 C 0.5645 1.00369 0.38646 0.0
H188 H 0.50374 0.94875 0.61703 0.0
H189 H 0.56884 0.01548 0.35003 0.0
H190 H 0.59506 0.94981 0.41398 0.0
H191 H 0.52051 0.91499 0.6244 0.0
H192 H 0.5381 0.01975 0.42177 0.0
H193 H 0.45776 0.01159 0.87597 0.0
H194 H 0.59012 0.98444 0.36096 0.0
H195 H 0.52359 0.07998 0.61195 0.0
H196 H 0.48695 1.00645 0.80013 0.0
H197 H 0.50754 0.11393 0.61043 0.0
H198 H 0.58191 0.92238 0.48881 0.0
H199 H 0.43869 0.04411 0.87475 0.0
H200 H 0.43486 0.07937 0.8279 0.0
H201 H 0.5539 0.9091 0.56642 0.0
H202 H 0.44799 0.107 0.75441 0.0
N203 N 0.48569 0.03596 0.75281 0.0
C204 C 0.47958 0.02099 0.79803 0.0
C205 C 0.45183 0.04206 0.84071 0.0
C206 C 0.4583 0.05763 0.79652 0.0
C207 C 0.4626 0.02374 0.84173 0.0
C208 C 0.47556 0.05419 0.75315 0.0
H209 H 0.47511 0.12008 0.67391 0.0
N210 N 0.50007 0.06638 0.6736 0.0
C211 C 0.50036 0.10164 0.63879 0.0
C212 C 0.48287 0.06979 0.71178 0.0
C213 C 0.50941 0.08228 0.63982 0.0
C214 C 0.48204 0.10502 0.6745 0.0
C215 C 0.47328 0.08916 0.71272 0.0
O216 O 0.53784 0.02575 0.7442 0.0
O217 O 0.53124 0.0158 0.60412 0.0
O218 O 0.52919 0.98327 0.63997 0.0
O219 O 0.51381 1.00349 0.72667 0.0
O220 O 0.53801 0.04613 0.61119 0.0
O221 O 0.52589 0.05615 0.74694 0.0
O222 O 0.49378 0.97135 0.5042 0.0
O223 O 0.49533 0.01319 0.61613 0.0
O224 O 0.49844 0.04607 0.58428 0.0
O225 O 0.50958 0.02385 0.4952 0.0
O226 O 0.48572 0.98389 0.60453 0.0
O227 O 0.50126 0.99819 0.44469 0.0
C228 C 0.5434 0.02916 0.58197 0.0
C229 C 0.56184 0.05273 0.75129 0.0
C230 C 0.59822 0.04706 0.72733 0.0
C231 C 0.57857 0.03941 0.74181 0.0
C232 C 0.60077 0.06833 0.72091 0.0
C233 C 0.56491 0.07391 0.74526 0.0
C234 C 0.58422 0.08158 0.72963 0.0
C235 C 0.52365 0.98661 0.70611 0.0
C236 C 0.5411 0.04452 0.76398 0.0
C237 C 0.45566 0.0923 0.75351 0.0
C238 C 0.44821 0.07658 0.79542 0.0
C239 C 0.48146 1.0011 0.63418 0.0
C240 C 0.46827 0.98373 0.43166 0.0
C241 C 0.45653 1.00033 0.4571 0.0
C242 C 0.43529 1.00064 0.44617 0.0
C243 C 0.42609 0.98424 0.4093 0.0
C244 C 0.45878 0.96763 0.39502 0.0
C245 C 0.43778 0.96791 0.3839 0.0
C246 C 0.50133 0.0414 0.51707 0.0
C247 C 0.49001 0.98177 0.44814 0.0
H248 H 0.57626 0.02305 0.74545 0.0
H249 H 0.61569 0.07488 0.71146 0.0
H250 H 0.55235 0.08457 0.75201 0.0
H251 H 0.58643 0.09792 0.7251 0.0
H252 H 0.46381 0.01271 0.48602 0.0
H253 H 0.40984 0.98425 0.39856 0.0
H254 H 0.46762 0.95466 0.37594 0.0
H255 H 0.43053 0.95543 0.35551 0.0
Tb256 Tb 0.53446 0.50812 0.56031 0.0
C257 C 0.44787 0.50989 0.65664 0.0
C258 C 0.43194 0.53293 0.57441 0.0
C259 C 0.41176 0.50624 0.62783 0.0
C260 C 0.44935 0.52636 0.61197 0.0
C261 C 0.42883 0.50013 0.66671 0.0
C262 C 0.41332 0.52258 0.58174 0.0
C263 C 0.44398 0.48091 0.7601 0.0
N264 N 0.46467 0.50418 0.69325 0.0
C265 C 0.46244 0.491 0.74841 0.0
C266 C 0.42722 0.48512 0.71788 0.0
Tb267 Tb 0.4937 0.52335 0.67518 0.0
N268 N 0.46772 0.53591 0.6051 0.0
C269 C 0.46939 0.55204 0.55997 0.0
C270 C 0.43368 0.5497 0.53035 0.0
C271 C 0.45247 0.55928 0.52318 0.0
H272 H 0.4752 0.48754 0.78223 0.0
H273 H 0.45413 0.57194 0.48759 0.0
H274 H 0.39994 0.5273 0.55267 0.0
H275 H 0.44271 0.46992 0.80185 0.0
H276 H 0.48371 0.55901 0.54785 0.0
H277 H 0.57821 0.46074 0.7402 0.0
H278 H 0.42069 0.55515 0.50078 0.0
H279 H 0.5505 0.5443 0.4493 0.0
H280 H 0.54757 0.47189 0.68203 0.0
H281 H 0.58202 0.56333 0.42628 0.0
H282 H 0.39714 0.49874 0.63434 0.0
H283 H 0.61042 0.47973 0.72629 0.0
H284 H 0.62921 0.50882 0.6737 0.0
H285 H 0.41288 0.47734 0.72721 0.0
H286 H 0.62997 0.53741 0.59165 0.0
N287 N 0.56164 0.49662 0.62677 0.0
C288 C 0.56129 0.48006 0.67035 0.0
C289 C 0.59694 0.48453 0.69798 0.0
C290 C 0.59741 0.50152 0.65451 0.0
C291 C 0.57884 0.47372 0.70561 0.0
C292 C 0.5794 0.5072 0.61861 0.0
H293 H 0.61262 0.55765 0.49912 0.0
N294 N 0.56246 0.52844 0.5379 0.0
C295 C 0.58156 0.55242 0.46848 0.0
C296 C 0.57974 0.52368 0.57355 0.0
C297 C 0.56368 0.54151 0.48194 0.0
C298 C 0.59875 0.54921 0.50977 0.0
C299 C 0.59819 0.53434 0.56169 0.0
O300 O 0.53418 0.51054 0.45047 0.0
O301 O 0.5028 0.51896 0.56731 0.0
O302 O 0.49522 0.48922 0.67007 0.0
O303 O 0.52345 0.47934 0.60161 0.0
O304 O 0.50893 0.49375 0.50533 0.0
O305 O 0.55154 0.48673 0.5017 0.0
O306 O 0.49334 0.52033 0.78489 0.0
O307 O 0.52528 0.51229 0.66811 0.0
O308 O 0.53321 0.54212 0.56828 0.0
O309 O 0.50537 0.55238 0.63791 0.0
O310 O 0.51924 0.53719 0.73182 0.0
O311 O 0.47653 0.54458 0.7341 0.0
C312 C 0.49477 0.50567 0.52696 0.0
C313 C 0.53653 0.47885 0.39135 0.0
C314 C 0.51885 0.44683 0.36495 0.0
C315 C 0.5283 0.46012 0.41348 0.0
C316 C 0.51798 0.45233 0.29384 0.0
C317 C 0.53558 0.484 0.32023 0.0
C318 C 0.52637 0.47077 0.27174 0.0
C319 C 0.50748 0.47506 0.64142 0.0
C320 C 0.54491 0.49383 0.44201 0.0
C321 C 0.61579 0.5292 0.59945 0.0
C322 C 0.61539 0.51284 0.6458 0.0
C323 C 0.53332 0.52523 0.70973 0.0
C324 C 0.49122 0.55185 0.84528 0.0
C325 C 0.49974 0.57054 0.82406 0.0
C326 C 0.50919 0.58361 0.8733 0.0
C327 C 0.50978 0.57791 0.94426 0.0
C328 C 0.4919 0.54649 0.91624 0.0
C329 C 0.50111 0.55951 0.96546 0.0
C330 C 0.52143 0.55641 0.59822 0.0
C331 C 0.48281 0.53715 0.79371 0.0
H332 H 0.52874 0.45613 0.46852 0.0
H333 H 0.51106 0.44222 0.25509 0.0
H334 H 0.54175 0.49841 0.3024 0.0
H335 H 0.52566 0.47484 0.2169 0.0
H336 H 0.49952 0.57468 0.76915 0.0
H337 H 0.51668 0.58784 0.98356 0.0
H338 H 0.48551 0.53211 0.93339 0.0
H339 H 0.5016 0.55528 0.02019 0.0
Tb340 Tb 0.02348 0.53686 0.54572 0.0
C341 C 0.02384 0.45608 0.68146 0.0
C342 C 1.0026 0.43541 0.60427 0.0
C343 C 0.02998 0.41939 0.66911 0.0
C344 C 1.00774 0.45463 0.63465 0.0
C345 C 0.03464 0.43828 0.70101 0.0
C346 C 0.01402 0.41797 0.62074 0.0
C347 C 0.05208 0.45836 0.78918 0.0
N348 N 0.02816 0.47459 0.71112 0.0
C349 C 0.04109 0.47552 0.76813 0.0
C350 C 0.04921 0.43975 0.75431 0.0
Tb351 Tb 1.00791 0.50159 0.67574 0.0
N352 N 0.99705 0.47187 0.61911 0.0
C353 C 0.981 0.47051 0.57286 0.0
C354 C 0.98609 0.43417 0.55822 0.0
C355 C 0.9752 0.45178 0.5428 0.0
H356 H 0.04379 0.48983 0.79577 0.0
H357 H 0.96266 0.45108 0.50588 0.0
H358 H 0.01039 0.40322 0.59727 0.0
H359 H 0.06283 0.45955 0.83217 0.0
H360 H 0.97308 0.48367 0.5544 0.0
H361 H 0.06989 0.58527 0.7193 0.0
H362 H 0.98175 0.41975 0.53378 0.0
H363 H 0.98742 0.55007 0.42847 0.0
H364 H 0.05829 0.5532 0.67002 0.0
H365 H 0.96911 0.58097 0.39416 0.0
H366 H 0.03828 0.40568 0.68287 0.0
H367 H 0.05209 0.61737 0.69146 0.0
H368 H 0.02404 0.63503 0.62859 0.0
H369 H 0.05774 0.42644 0.77077 0.0
H370 H 0.99592 0.6337 0.5436 0.0
N371 N 0.03517 0.56604 0.60404 0.0
C372 C 0.05104 0.5667 0.65117 0.0
C373 C 0.0473 0.60317 0.66649 0.0
C374 C 0.03083 0.60263 0.62019 0.0
C375 C 0.05746 0.58513 0.68186 0.0
C376 C 0.02509 0.58369 0.58905 0.0
H377 H 0.97549 0.61378 0.45608 0.0
N378 N 1.00387 0.56458 0.51276 0.0
C379 C 0.98008 0.58173 0.4366 0.0
C380 C 0.00886 0.58288 0.54267 0.0
C381 C 0.99064 0.56419 0.45656 0.0
C382 C 0.98369 0.60017 0.47171 0.0
C383 C 0.99854 0.60105 0.52422 0.0
O384 O 0.01977 0.53251 0.43731 0.0
O385 O 0.01238 0.50576 0.56477 0.0
O386 O 0.04191 0.50302 0.67182 0.0
O387 O 0.0525 0.52754 0.5911 0.0
O388 O 0.03823 0.50913 0.50561 0.0
O389 O 0.04497 0.5504 0.47862 0.0
O390 O 0.01089 0.50622 0.78427 0.0
O391 O 0.01886 0.53269 0.65651 0.0
O392 O 0.98944 0.53533 0.54898 0.0
O393 O 0.97901 0.51039 0.6284 0.0
O394 O 0.99303 0.52933 0.71547 0.0
O395 O 0.98621 0.48786 0.74156 0.0
C396 C 0.02584 0.49599 0.53004 0.0
C397 C 0.0505 0.53018 0.37531 0.0
C398 C 0.08021 0.5083 0.35632 0.0
C399 C 0.0691 0.522 0.39906 0.0
C400 C 0.07292 0.50329 0.28887 0.0
C401 C 0.0436 0.52522 0.30744 0.0
C402 C 0.05481 0.51189 0.26442 0.0
C403 C 0.05636 0.51352 0.6388 0.0
C404 C 0.03686 0.54178 0.42283 0.0
C405 C 1.00386 0.6197 0.55655 0.0
C406 C 0.01995 0.62048 0.60454 0.0
C407 C 1.00534 0.54251 0.69075 0.0
C408 C 0.97979 0.50813 0.84418 0.0
C409 C 0.96105 0.51572 0.81942 0.0
C410 C 0.94941 0.52915 0.86142 0.0
C411 C 0.95634 0.53456 0.92897 0.0
C412 C 0.98633 0.51346 0.91215 0.0
C413 C 0.97462 0.52658 0.95433 0.0
C414 C 0.97506 0.52449 0.5811 0.0
C415 C 0.99387 0.49669 0.79773 0.0
H416 H 0.07453 0.52556 0.45159 0.0
H417 H 0.08139 0.49292 0.25477 0.0
H418 H 0.02924 0.53126 0.28847 0.0
H419 H 0.04932 0.508 0.21232 0.0
H420 H 0.95588 0.51187 0.7668 0.0
H421 H 0.94745 0.54474 0.96247 0.0
H422 H 1.00079 0.50788 0.93189 0.0
H423 H 0.97984 0.53076 0.00651 0.0
C424 C 0.19364 0.01871 0.1413 0.0
C425 C 0.20967 0.03242 0.15428 0.0
C426 C 0.17621 0.01889 0.184 0.0
C427 C 0.15654 0.03611 0.35854 0.0
H428 H 0.10387 0.02727 0.27039 0.0
C429 C 0.08003 0.04184 0.5141 0.0
C430 C 0.06534 0.02667 0.49944 0.0
C431 C 0.09752 0.04372 0.47202 0.0
C432 C 0.11846 0.02959 0.29606 0.0
H433 H 0.22039 0.05701 0.22177 0.0
H434 H 0.1898 0.05752 0.29677 0.0
H435 H 0.13459 0.02825 0.19827 0.0
H436 H 0.05786 1.0015 0.42894 0.0
H437 H 0.08789 1.00499 0.35507 0.0
H438 H 0.14029 0.0374 0.45648 0.0
C439 C 0.1907 0.04645 0.25403 0.0
C440 C 0.13613 0.03012 0.25461 0.0
C441 C 0.20817 0.04625 0.21104 0.0
C442 C 0.06844 0.01369 0.44094 0.0
C443 C 0.08583 0.01564 0.39862 0.0
C444 C 0.13881 0.03561 0.40008 0.0
C445 C 0.17438 0.03285 0.24076 0.0
C446 C 0.15547 0.03317 0.28522 0.0
C447 C 0.1007 0.03059 0.41376 0.0
C448 C 0.11954 0.03213 0.36946 0.0
H449 H 0.19453 1.00788 0.09777 0.0
H450 H 0.16421 1.00795 0.17275 0.0
H451 H 0.17114 0.03828 0.3842 0.0
H452 H 0.07809 0.05219 0.55856 0.0
H453 H 0.10851 0.05556 0.48496 0.0
C454 C 0.49708 0.17678 0.07636 0.0
C455 C 0.48684 0.19471 0.09696 0.0
C456 C 0.49756 0.15989 0.12066 0.0
C457 C 0.47132 0.13674 0.27325 0.0
H458 H 0.52154 0.10562 0.28755 0.0
C459 C 0.48451 0.07442 0.48335 0.0
C460 C 0.49643 0.05727 0.46451 0.0
C461 C 0.48199 0.09063 0.43685 0.0
C462 C 0.50728 0.11393 0.28349 0.0
H463 H 0.469 0.20934 0.17914 0.0
H464 H 0.46997 0.17988 0.25749 0.0
H465 H 0.5202 0.13517 0.21148 0.0
H466 H 0.51361 0.04308 0.37938 0.0
H467 H 0.509 0.0711 0.29815 0.0
H468 H 0.45847 0.11548 0.34573 0.0
C469 C 0.47746 0.17869 0.20686 0.0
C470 C 0.50652 0.13094 0.23983 0.0
C471 C 0.47701 0.1956 0.16237 0.0
C472 C 0.50467 0.05616 0.39636 0.0
C473 C 0.50214 0.07235 0.34982 0.0
C474 C 0.47208 0.11968 0.31701 0.0
C475 C 0.48779 0.1606 0.18662 0.0
C476 C 0.48853 0.14257 0.23394 0.0
C477 C 0.49119 0.09003 0.37001 0.0
C478 C 0.49008 0.10802 0.3226 0.0
H479 H 0.50466 0.17579 0.02578 0.0
H480 H 0.50538 0.14617 0.10275 0.0
H481 H 0.45712 0.14515 0.26937 0.0
H482 H 0.47743 0.07555 0.53468 0.0
H483 H 0.47342 0.10394 0.45434 0.0
C484 C 0.33513 0.4927 0.18453 0.0
C485 C 0.33368 0.50782 0.13336 0.0
C486 C 0.35168 0.49253 0.23124 0.0
C487 C 0.39336 0.52546 0.30343 0.0
H488 H 0.41878 0.4737 0.34857 0.0
C489 C 0.47253 0.52109 0.4359 0.0
C490 C 0.47521 0.50674 0.48909 0.0
C491 C 0.45466 0.52112 0.39562 0.0
C492 C 0.41172 0.48828 0.33732 0.0
H493 H 0.34804 0.53462 0.09019 0.0
H494 H 0.37706 0.53433 0.17098 0.0
H495 H 0.38862 0.47415 0.27356 0.0
H496 H 0.46258 0.47977 0.53706 0.0
H497 H 0.431 0.47999 0.46787 0.0
H498 H 0.41659 0.53959 0.36661 0.0
C499 C 0.36539 0.52273 0.17622 0.0
C500 C 0.39438 0.48854 0.29423 0.0
C501 C 0.34885 0.52286 0.12963 0.0
C502 C 0.46039 0.49152 0.49821 0.0
C503 C 0.44245 0.49154 0.45806 0.0
C504 C 0.4107 0.52519 0.34641 0.0
C505 C 0.3671 0.50752 0.2276 0.0
C506 C 0.38506 0.50715 0.27611 0.0
C507 C 0.43928 0.50646 0.40656 0.0
C508 C 0.42024 0.50662 0.36339 0.0
H509 H 0.32353 0.48095 0.18825 0.0
H510 H 0.35231 0.48073 0.27051 0.0
H511 H 0.3864 0.54006 0.29186 0.0
H512 H 0.4843 0.53229 0.42549 0.0
H513 H 0.45304 0.53247 0.35514 0.0
C514 C 1.0078 0.34608 0.13645 0.0
C515 C 0.02273 0.33083 0.14256 0.0
C516 C 1.00776 0.36314 0.18206 0.0
C517 C 0.04141 0.39318 0.30262 0.0
H518 H 0.99027 0.41643 0.3688 0.0
C519 C 0.0388 0.46074 0.50443 0.0
C520 C 0.02385 0.47582 0.49454 0.0
C521 C 0.03841 0.44244 0.46501 0.0
C522 C 1.0047 0.41028 0.35029 0.0
H523 H 0.04923 0.32114 0.20095 0.0
H524 H 0.04917 0.35082 0.2813 0.0
H525 H 0.98998 0.38575 0.29429 0.0
H526 H 0.99804 0.4846 0.43109 0.0
H527 H 0.99721 0.45271 0.36203 0.0
H528 H 0.05613 0.41781 0.35814 0.0
C529 C 0.03758 0.34986 0.2409 0.0
C530 C 1.00454 0.39263 0.30743 0.0
C531 C 0.03758 0.33278 0.19524 0.0
C532 C 0.00912 0.47275 0.442 0.0
C533 C 0.00872 0.45449 0.40242 0.0
C534 C 0.04157 0.41084 0.34543 0.0
C535 C 0.0227 0.36535 0.23488 0.0
C536 C 0.02289 0.38386 0.28254 0.0
C537 C 0.02335 0.43903 0.41332 0.0
C538 C 0.02321 0.41975 0.36958 0.0
H539 H 0.99625 0.34493 0.09591 0.0
H540 H 0.99623 0.37481 0.17493 0.0
H541 H 0.05585 0.38713 0.28382 0.0
H542 H 0.05078 0.46311 0.54288 0.0
H543 H 0.04991 0.43095 0.47519 0.0
C544 C 0.82763 0.98822 0.06361 0.0
C545 C 0.82848 0.99751 0.13037 0.0
C546 C 0.84496 0.98783 0.02004 0.0
C547 C 0.90167 0.99324 0.02523 0.0
H548 H 0.89618 1.00176 0.82514 0.0
C549 C 0.97126 1.00868 0.84423 0.0
C550 C 0.97094 1.00084 0.77505 0.0
C551 C 0.95416 1.00688 0.88814 0.0
C552 C 0.898 0.99906 0.88075 0.0
H553 H 0.84777 0.01377 0.20431 0.0
H554 H 0.87797 0.01335 0.12844 0.0
H555 H 0.86581 1.00169 0.89943 0.0
H556 H 0.95287 0.98326 0.70043 0.0
H557 H 0.92306 0.98026 0.77647 0.0
H558 H 0.93387 0.99075 0.00663 0.0
C559 C 0.86414 1.00607 0.10961 0.0
C560 C 0.88053 0.99904 0.9235 0.0
C561 C 0.84682 1.00646 0.15297 0.0
C562 C 0.95344 0.99016 0.7524 0.0
C563 C 0.93631 0.98841 0.79616 0.0
C564 C 0.91913 0.99327 0.98251 0.0
C565 C 0.86351 0.9967 0.04252 0.0
C566 C 0.8821 0.99624 0.99647 0.0
C567 C 0.93628 0.99706 0.8643 0.0
C568 C 0.91758 0.99629 0.90967 0.0
H569 H 0.81363 0.98115 0.04524 0.0
H570 H 0.8439 0.98028 0.96918 0.0
H571 H 0.90351 0.99065 0.0809 0.0
H572 H 0.98448 0.01674 0.86417 0.0
H573 H 0.95475 0.0138 0.94011 0.0
C574 C 0.52692 0.85201 0.14922 0.0
C575 C 0.53939 0.83506 0.13457 0.0
C576 C 0.52604 0.86833 0.10255 0.0
C577 C 0.55418 0.89269 0.95638 0.0
H578 H 0.50203 0.91893 0.92324 0.0
C579 C 0.5417 0.95439 0.74259 0.0
C580 C 0.52808 0.97049 0.75852 0.0
C581 C 0.5441 0.938 0.78853 0.0
C582 C 0.51678 0.91197 0.93249 0.0
H583 H 0.56075 0.82156 0.06056 0.0
H584 H 0.55913 0.85001 0.97805 0.0
H585 H 0.50387 0.8899 1.00149 0.0
H586 H 0.50789 0.98268 0.83924 0.0
H587 H 0.51218 0.95448 0.91907 0.0
H588 H 0.56704 0.91482 0.887 0.0
C589 C 0.55017 0.8509 0.02585 0.0
C590 C 0.51783 0.89527 0.97744 0.0
C591 C 0.55102 0.83456 0.0727 0.0
C592 C 0.51801 0.97041 0.82376 0.0
C593 C 0.52042 0.95408 0.8697 0.0
C594 C 0.55312 0.90942 0.91126 0.0
C595 C 0.53763 0.86801 0.04013 0.0
C596 C 0.53656 0.88547 0.99046 0.0
C597 C 0.53312 0.93742 0.85205 0.0
C598 C 0.53442 0.91939 0.89915 0.0
H599 H 0.51791 0.8527 0.19699 0.0
H600 H 0.51647 0.88134 0.11594 0.0
H601 H 0.5689 0.88568 0.96571 0.0
H602 H 0.55029 0.95426 0.69396 0.0
H603 H 0.55411 0.92551 0.77322 0.0
C604 C 0.69579 0.51423 0.0361 0.0
C605 C 0.69599 0.52715 0.09547 0.0
C606 C 0.67906 0.51425 0.99018 0.0
C607 C 0.63379 0.54514 0.9383 0.0
H608 H 0.61372 0.49338 0.86443 0.0
C609 C 0.56739 0.54028 0.73681 0.0
C610 C 0.55322 0.52443 0.74552 0.0
C611 C 0.58549 0.54072 0.77602 0.0
C612 C 0.61906 0.50797 0.88482 0.0
H613 H 0.67924 0.55029 0.15391 0.0
H614 H 0.6499 0.55031 0.07436 0.0
H615 H 0.6439 0.49399 0.93935 0.0
H616 H 0.54548 0.49809 0.80742 0.0
H617 H 0.57704 0.49873 0.87623 0.0
H618 H 0.60863 0.55906 0.88523 0.0
C619 C 0.66267 0.54031 0.06229 0.0
C620 C 0.63654 0.50835 0.9272 0.0
C621 C 0.67939 0.54024 0.10814 0.0
C622 C 0.55675 0.50981 0.79726 0.0
C623 C 0.57479 0.51025 0.83669 0.0
C624 C 0.61633 0.54476 0.8958 0.0
C625 C 0.6622 0.52724 1.00279 0.0
C626 C 0.64406 0.52692 0.95509 0.0
C627 C 0.58948 0.52564 0.82631 0.0
C628 C 0.60861 0.52615 0.86902 0.0
H629 H 0.70852 0.50404 0.02539 0.0
H630 H 0.67939 0.50417 0.94455 0.0
H631 H 0.63925 0.55976 0.95799 0.0
H632 H 0.56453 0.55221 0.69916 0.0
H633 H 0.5964 0.55281 0.76659 0.0
C634 C 0.02359 0.69426 0.0771 0.0
C635 C 0.00922 0.70988 0.06767 0.0
C636 C 0.02347 0.67674 0.03375 0.0
C637 C 1.0043 0.65596 0.8626 0.0
H638 H 0.01498 0.60366 0.94876 0.0
C639 C 0.99279 0.57804 0.71501 0.0
C640 C 1.00738 0.56268 0.72628 0.0
C641 C 0.99331 0.5964 0.75412 0.0
C642 C 0.01223 0.61813 0.92344 0.0
H643 H 0.98351 0.71972 0.00556 0.0
H644 H 0.9831 0.68901 0.92957 0.0
H645 H 0.01526 0.63475 0.02054 0.0
H646 H 0.03269 0.55355 0.79146 0.0
H647 H 0.03392 0.58562 0.85928 0.0
H648 H 1.00123 0.63919 0.76536 0.0
C649 C 0.99466 0.6903 0.96997 0.0
C650 C 0.01238 0.63605 0.9648 0.0
C651 C 0.9948 0.70785 0.01361 0.0
C652 C 0.02182 0.56554 0.77984 0.0
C653 C 0.0223 0.58382 0.81927 0.0
C654 C 1.00416 0.63799 0.82111 0.0
C655 C 0.00891 0.67438 0.97979 0.0
C656 C 1.00849 0.65526 0.93509 0.0
C657 C 1.00804 0.59954 0.8071 0.0
C658 C 1.00818 0.6188 0.85092 0.0
H659 H 0.03491 0.69552 0.11842 0.0
H660 H 0.0349 0.66507 0.04238 0.0
H661 H 1.00148 0.67044 0.83751 0.0
H662 H 0.98096 0.5758 0.67591 0.0
H663 H 0.98182 0.60791 0.7441 0.0
C664 C 0.05106 0.22655 0.23115 0.0
C665 C 0.0379 0.24297 0.21716 0.0
C666 C 0.05119 0.21756 0.29714 0.0
C667 C 0.01426 0.20927 0.43746 0.0
H668 H 0.057 0.1727 0.4996 0.0
C669 C 0.99213 0.13644 0.57322 0.0
C670 C 0.99841 0.11995 0.52995 0.0
C671 C 1.00189 0.15542 0.56915 0.0
C672 C 0.04499 0.1831 0.48401 0.0
H673 H 0.01608 0.26418 0.26394 0.0
H674 H 0.01685 0.24896 0.3798 0.0
H675 H 0.0657 0.2017 0.4259 0.0
H676 H 0.02126 0.11003 0.45386 0.0
H677 H 0.03825 0.14272 0.44765 0.0
H678 H 0.99343 0.19007 0.49194 0.0
C679 C 0.02665 0.24262 0.33908 0.0
C680 C 0.04993 0.19962 0.44138 0.0
C681 C 0.02636 0.25149 0.27271 0.0
C682 C 0.01599 0.12226 0.48833 0.0
C683 C 0.02584 0.1411 0.48486 0.0
C684 C 0.00938 0.19292 0.48058 0.0
C685 C 0.03829 0.22491 0.35111 0.0
C686 C 0.03442 0.21205 0.41369 0.0
C687 C 0.01824 0.15815 0.52231 0.0
C688 C 0.0245 0.17889 0.50036 0.0
H689 H 0.06054 0.21996 0.18999 0.0
H690 H 0.06031 0.20391 0.30385 0.0
H691 H 1.00183 0.2184 0.41733 0.0
H692 H 0.97901 0.13501 0.60748 0.0
H693 H 0.99588 0.16825 0.59934 0.0
C694 C 0.31044 0.0829 0.19267 0.0
C695 C 0.29788 0.06549 0.19306 0.0
C696 C 0.3232 0.08734 0.24967 0.0
C697 C 0.36139 0.07667 0.32809 0.0
H698 H 0.35462 0.05757 0.51835 0.0
C699 C 0.42832 0.03834 0.44894 0.0
C700 C 0.42257 0.01845 0.46762 0.0
C701 C 0.41368 0.05395 0.44707 0.0
C702 C 0.35683 0.06314 0.4656 0.0
H703 H 0.28715 0.04038 0.25618 0.0
H704 H 0.30957 0.04782 0.35487 0.0
H705 H 0.32467 0.06758 0.45063 0.0
H706 H 0.39828 1.00021 0.51176 0.0
H707 H 0.37272 0.02687 0.50613 0.0
H708 H 0.39309 0.07065 0.33974 0.0
C709 C 0.30951 0.05827 0.31128 0.0
C710 C 0.33964 0.0689 0.42684 0.0
C711 C 0.29664 0.05393 0.25448 0.0
C712 C 0.4029 0.01526 0.49479 0.0
C713 C 0.38827 0.03075 0.49233 0.0
C714 C 0.37848 0.0708 0.36646 0.0
C715 C 0.3238 0.07431 0.30778 0.0
C716 C 0.34165 0.07455 0.35618 0.0
C717 C 0.39308 0.0498 0.46306 0.0
C718 C 0.37632 0.06268 0.43412 0.0
H719 H 0.31144 0.09226 0.14629 0.0
H720 H 0.33368 0.10009 0.24594 0.0
H721 H 0.36363 0.08085 0.27379 0.0
H722 H 0.44353 0.04136 0.42914 0.0
H723 H 0.41813 0.06869 0.42685 0.0
C724 C 0.4886 0.2799 0.2242 0.0
C725 C 0.47383 0.28456 0.17346 0.0
C726 C 0.49021 0.29186 0.28554 0.0
C727 C 0.46744 0.33777 0.37877 0.0
H728 H 0.52371 0.35605 0.37737 0.0
C729 C 0.49126 0.42044 0.36176 0.0
C730 C 0.51027 0.42699 0.38742 0.0
C731 C 0.48463 0.40047 0.37275 0.0
C732 C 0.50801 0.35095 0.38057 0.0
H733 H 0.44749 0.3034 0.15107 0.0
H734 H 0.45051 0.32451 0.25615 0.0
H735 H 0.51532 0.32276 0.32902 0.0
H736 H 0.53643 0.41846 0.45027 0.0
H737 H 0.52489 0.38335 0.46897 0.0
H738 H 0.46009 0.367 0.4247 0.0
C739 C 0.46089 0.31171 0.24976 0.0
C740 C 0.50314 0.33171 0.35277 0.0
C741 C 0.45925 0.29973 0.18885 0.0
C742 C 0.52175 0.41374 0.42944 0.0
C743 C 0.51518 0.39366 0.44005 0.0
C744 C 0.47231 0.35713 0.40612 0.0
C745 C 0.47713 0.30871 0.29684 0.0
C746 C 0.48264 0.32541 0.3474 0.0
C747 C 0.49694 0.38659 0.40934 0.0
C748 C 0.4925 0.36436 0.40331 0.0
H749 H 0.49998 0.26819 0.21387 0.0
H750 H 0.50262 0.28883 0.32148 0.0
H751 H 0.45156 0.33316 0.3773 0.0
H752 H 0.48192 0.43049 0.3304 0.0
H753 H 0.47057 0.39552 0.3479 0.0
C754 C 0.24329 0.49519 0.23965 0.0
C755 C 0.24791 0.47963 0.19079 0.0
C756 C 0.22961 0.4915 0.29441 0.0
C757 C 0.18457 0.45962 0.30888 0.0
H758 H 0.17432 0.49499 0.47021 0.0
C759 C 0.10297 0.47831 0.37655 0.0
C760 C 0.09967 0.4995 0.38071 0.0
C761 C 0.12249 0.4703 0.38693 0.0
C762 C 0.17697 0.48486 0.4256 0.0
H763 H 0.2443 0.44752 0.16512 0.0
H764 H 0.2212 0.44069 0.26287 0.0
H765 H 0.20929 0.49004 0.42812 0.0
H766 H 0.11348 0.52879 0.40512 0.0
H767 H 0.14775 0.51506 0.42006 0.0
H768 H 0.15245 0.45551 0.30252 0.0
C769 C 0.22748 0.45593 0.2579 0.0
C770 C 0.19701 0.482 0.40155 0.0
C771 C 0.24083 0.45973 0.20234 0.0
C772 C 0.11574 0.51239 0.40132 0.0
C773 C 0.13536 0.50444 0.41048 0.0
C774 C 0.16466 0.46248 0.33275 0.0
C775 C 0.22049 0.47212 0.30123 0.0
C776 C 0.2009 0.47024 0.34047 0.0
C777 C 0.13916 0.4834 0.39994 0.0
C778 C 0.16046 0.47601 0.38899 0.0
H779 H 0.24852 0.51069 0.23122 0.0
H780 H 0.22463 0.5044 0.32638 0.0
H781 H 0.18676 0.45062 0.26129 0.0
H782 H 0.09063 0.46805 0.36219 0.0
H783 H 0.12474 0.45397 0.3804 0.0
C784 C 0.95372 0.80781 0.0397 0.0
C785 C 0.97176 0.79618 0.03643 0.0
C786 C 0.94802 0.82002 0.98337 0.0
C787 C 0.96405 0.83688 0.80363 0.0
H788 H 0.96083 0.89036 0.89302 0.0
C789 C 0.01483 0.90176 0.73075 0.0
C790 C 0.0116 0.92112 0.7618 0.0
C791 C 0.99969 0.88679 0.73373 0.0
C792 C 0.96107 0.87574 0.86563 0.0
H793 H 0.99672 0.7864 0.96906 0.0
H794 H 0.98711 0.80794 0.87155 0.0
H795 H 0.9523 0.86063 0.95912 0.0
H796 H 0.98865 0.94134 0.8069 0.0
H797 H 0.96188 0.91554 0.80902 0.0
H798 H 0.97405 0.85218 0.71105 0.0
C799 C 0.97712 0.80754 0.91688 0.0
C800 C 0.95615 0.85847 0.90417 0.0
C801 C 0.98272 0.7952 0.97302 0.0
C802 C 0.9918 0.92638 0.78418 0.0
C803 C 0.97649 0.91147 0.78608 0.0
C804 C 0.96882 0.85426 0.76466 0.0
C805 C 0.96041 0.82103 0.92308 0.0
C806 C 0.95888 0.83876 0.87516 0.0
C807 C 0.9809 0.89102 0.76699 0.0
C808 C 0.9688 0.87382 0.79682 0.0
H809 H 0.94481 0.80855 0.08768 0.0
H810 H 0.93479 0.82987 0.98922 0.0
H811 H 0.9658 0.82192 0.77918 0.0
H812 H 0.02973 0.89754 0.71039 0.0
H813 H 1.00375 0.87142 0.71707 0.0
C814 C 0.72186 0.97686 0.03509 0.0
C815 C 0.73908 0.98911 0.04811 0.0
C816 C 0.7123 0.97699 0.96974 0.0
C817 C 0.70488 0.0136 0.82896 0.0
H818 H 0.66551 0.97258 0.76998 0.0
C819 C 0.63333 0.03752 0.68268 0.0
C820 C 0.61631 0.0332 0.72532 0.0
C821 C 0.65179 0.02711 0.69197 0.0
C822 C 0.67667 0.98408 0.78476 0.0
H823 H 0.76113 0.00939 1.00047 0.0
H824 H 0.74479 1.00916 0.88529 0.0
H825 H 0.69442 0.96273 0.84308 0.0
H826 H 0.60499 0.01305 0.80635 0.0
H827 H 0.63674 0.99467 0.82066 0.0
H828 H 0.68662 0.03509 0.77342 0.0
C829 C 0.73829 0.9999 0.92636 0.0
C830 C 0.69315 0.97851 0.82705 0.0
C831 C 0.74778 0.99989 0.9922 0.0
C832 C 0.61761 0.01679 0.77209 0.0
C833 C 0.6359 1.00618 0.78038 0.0
C834 C 0.68859 0.0191 0.78592 0.0
C835 C 0.71985 0.98925 0.91538 0.0
C836 C 0.70668 0.99347 0.85345 0.0
C837 C 0.65343 0.01187 0.74286 0.0
C838 C 0.67366 1.00464 0.76702 0.0
H839 H 0.71507 0.96802 0.07676 0.0
H840 H 0.69811 0.96866 0.96399 0.0
H841 H 0.71484 0.02564 0.84817 0.0
H842 H 0.63269 0.04959 0.64438 0.0
H843 H 0.66503 0.03162 0.66174 0.0
C844 C 0.5698 0.73079 0.0491 0.0
C845 C 0.55516 0.74596 0.06402 0.0
C846 C 0.56824 0.7187 0.98843 0.0
C847 C 0.52605 0.69868 0.88471 0.0
H848 H 0.56902 0.6628 0.8157 0.0
C849 C 0.50691 0.61673 0.80868 0.0
C850 C 0.51803 0.60341 0.85158 0.0
C851 C 0.51376 0.63671 0.79811 0.0
C852 C 0.55683 0.67284 0.83345 0.0
H853 H 0.52905 0.76223 0.02269 0.0
H854 H 0.52665 0.74147 0.91543 0.0
H855 H 0.5777 0.69669 0.86234 0.0
H856 H 0.54605 0.5997 0.91039 0.0
H857 H 0.55785 0.63454 0.89305 0.0
H858 H 0.50534 0.67448 0.85983 0.0
C859 C 0.53898 0.73848 0.9517 0.0
C860 C 0.56178 0.69223 0.86041 0.0
C861 C 0.54047 0.75052 0.01287 0.0
C862 C 0.53697 0.60981 0.87836 0.0
C863 C 0.54387 0.62969 0.86744 0.0
C864 C 0.5211 0.67942 0.85721 0.0
C865 C 0.55206 0.7216 0.94101 0.0
C866 C 0.54658 0.7048 0.89077 0.0
C867 C 0.53192 0.64364 0.82979 0.0
C868 C 0.53656 0.66581 0.83555 0.0
H869 H 0.58155 0.72724 0.08702 0.0
H870 H 0.57864 0.7059 0.98251 0.0
H871 H 0.51387 0.70778 0.90765 0.0
H872 H 0.49231 0.61214 0.78698 0.0
H873 H 0.50432 0.64708 0.76837 0.0
C874 C 0.78656 0.5381 0.98425 0.0
C875 C 0.78163 0.55384 0.03206 0.0
C876 C 0.79995 0.54181 0.92871 0.0
C877 C 0.844 0.57486 0.90965 0.0
H878 H 0.85457 0.53888 0.75013 0.0
C879 C 0.92577 0.5583 0.83911 0.0
C880 C 0.9297 0.53721 0.83636 0.0
C881 C 0.90599 0.56565 0.82889 0.0
C882 C 0.85182 0.54919 0.7942 0.0
H883 H 0.78443 0.58618 0.05528 0.0
H884 H 0.80704 0.59301 0.95616 0.0
H885 H 0.81966 0.54302 0.79388 0.0
H886 H 0.91673 0.50738 0.81452 0.0
H887 H 0.88201 0.51996 0.79993 0.0
H888 H 0.876 0.57998 0.91391 0.0
C889 C 0.80121 0.57765 0.9625 0.0
C890 C 0.83181 0.55158 0.8192 0.0
C891 C 0.78814 0.57383 0.01883 0.0
C892 C 0.91398 0.52372 0.81718 0.0
C893 C 0.8941 0.53101 0.80823 0.0
C894 C 0.86387 0.57247 0.88483 0.0
C895 C 0.8085 0.56139 0.92006 0.0
C896 C 0.82785 0.56358 0.87968 0.0
C897 C 0.88969 0.55197 0.81755 0.0
C898 C 0.86822 0.55876 0.82925 0.0
H899 H 0.78178 0.52253 0.99403 0.0
H900 H 0.80519 0.52886 0.8975 0.0
H901 H 0.84176 0.58407 0.95675 0.0
H902 H 0.93783 0.569 0.85246 0.0
H903 H 0.90325 0.58194 0.83442 0.0
C904 C 0.04371 0.21496 0.93658 0.0
C905 C 0.0263 0.22434 0.96581 0.0
C906 C 0.04197 0.19725 0.89433 0.0
C907 C 1.00357 0.16348 0.80091 0.0
H908 H 0.046 0.12248 0.81925 0.0
C909 C 0.99163 0.07789 0.72798 0.0
C910 C 1.00751 0.06729 0.69362 0.0
C911 C 0.99444 0.09796 0.75296 0.0
C912 C 0.03411 0.13384 0.81288 0.0
H913 H 0.99346 0.22257 0.97424 0.0
H914 H 0.99026 0.19155 0.90211 0.0
H915 H 0.04981 0.15562 0.87796 0.0
H916 H 0.03826 0.0701 0.65298 0.0
H917 H 0.0435 0.10504 0.69877 0.0
H918 H 0.9875 0.14116 0.7385 0.0
C919 C 1.00531 0.19805 0.90943 0.0
C920 C 0.03631 0.15299 0.8464 0.0
C921 C 1.00707 0.21589 0.95098 0.0
C922 C 0.02602 0.07758 0.6818 0.0
C923 C 0.02895 0.09763 0.70758 0.0
C924 C 1.00124 0.14421 0.76839 0.0
C925 C 0.02276 0.18819 0.88125 0.0
C926 C 0.02098 0.16812 0.84164 0.0
C927 C 0.01322 0.10803 0.74402 0.0
C928 C 0.01638 0.12905 0.77445 0.0
H929 H 0.05875 0.22103 0.94807 0.0
H930 H 0.05578 0.19053 0.87286 0.0
H931 H 0.99159 0.1747 0.79418 0.0
H932 H 0.97703 0.07051 0.7364 0.0
H933 H 0.982 0.10543 0.78081 0.0
C934 C 0.31714 0.02007 0.93348 0.0
C935 C 0.31111 0.04014 0.95059 0.0
C936 C 0.33372 0.01642 0.88822 0.0
C937 C 0.37971 0.04316 0.81555 0.0
H938 H 0.3858 0.99237 0.71003 0.0
C939 C 0.45156 0.02527 0.64565 0.0
C940 C 0.46068 1.00631 0.65982 0.0
C941 C 0.43192 0.02986 0.67099 0.0
C942 C 0.38432 1.00664 0.73922 0.0
H943 H 0.31697 0.07211 0.93125 0.0
H944 H 0.345 0.06591 0.84914 0.0
H945 H 0.35375 0.99972 0.77073 0.0
H946 H 0.45581 0.97667 0.70596 0.0
H947 H 0.42159 0.9846 0.75031 0.0
H948 H 0.41014 0.05019 0.78222 0.0
C949 C 0.33763 0.05285 0.87254 0.0
C950 C 0.36594 0.01084 0.77461 0.0
C951 C 0.32134 0.05647 0.91893 0.0
C952 C 0.4493 0.99157 0.69568 0.0
C953 C 0.42965 0.99607 0.72058 0.0
C954 C 0.39789 0.03912 0.77897 0.0
C955 C 0.34452 0.03278 0.85789 0.0
C956 C 0.36346 0.02899 0.8147 0.0
C957 C 0.42083 0.01539 0.70966 0.0
C958 C 0.40062 0.02061 0.74172 0.0
H959 H 0.3097 1.00721 0.95804 0.0
H960 H 0.33856 1.00075 0.87967 0.0
H961 H 0.37879 0.05715 0.84646 0.0
H962 H 0.45966 0.03663 0.61564 0.0
H963 H 0.42543 0.04477 0.66065 0.0
C964 C 0.46558 0.3144 0.91472 0.0
C965 C 0.48077 0.29927 0.91947 0.0
C966 C 0.468 0.33099 0.86991 0.0
C967 C 0.50843 0.36188 0.79095 0.0
H968 H 0.46355 0.38698 0.69122 0.0
C969 C 0.51921 0.43835 0.64675 0.0
C970 C 0.50365 0.45304 0.65637 0.0
C971 C 0.51628 0.41801 0.66665 0.0
C972 C 0.47624 0.38029 0.71918 0.0
H973 H 0.51009 0.28927 0.87888 0.0
H974 H 0.51438 0.31834 0.8002 0.0
H975 H 0.45859 0.35402 0.74729 0.0
H976 H 0.47189 0.45676 0.68475 0.0
H977 H 0.46702 0.4219 0.72339 0.0
H978 H 0.5259 0.38838 0.76529 0.0
C979 C 0.5006 0.31737 0.83151 0.0
C980 C 0.4734 0.36132 0.75113 0.0
C981 C 0.49806 0.30062 0.87596 0.0
C982 C 0.48462 0.44638 0.68123 0.0
C983 C 0.48168 0.4261 0.70156 0.0
C984 C 0.51125 0.38089 0.75939 0.0
C985 C 0.48578 0.33298 0.82904 0.0
C986 C 0.48936 0.35202 0.78841 0.0
C987 C 0.49763 0.4117 0.69615 0.0
C988 C 0.49509 0.39056 0.72404 0.0
H989 H 0.45207 0.31374 0.94754 0.0
H990 H 0.45635 0.34277 0.86989 0.0
H991 H 0.52099 0.35533 0.82002 0.0
H992 H 0.53388 0.44256 0.62511 0.0
H993 H 0.52873 0.40726 0.65945 0.0
C994 C 0.21891 0.47565 0.93023 0.0
C995 C 0.23151 0.49277 0.94206 0.0
C996 C 0.20174 0.47693 0.88691 0.0
C997 C 0.17526 0.5085 0.75317 0.0
H998 H 0.12686 0.48328 0.8312 0.0
C999 C 0.09282 0.52536 0.6538 0.0
C1000 C 0.07809 0.50975 0.65813 0.0
C1001 C 0.1126 0.52249 0.68022 0.0
C1002 C 0.14024 0.49014 0.80774 0.0
H1003 H 0.23647 0.52439 0.91448 0.0
H1004 H 0.20638 0.52668 0.83852 0.0
H1005 H 0.15937 0.47983 0.89093 0.0
H1006 H 0.07382 0.47786 0.68249 0.0
H1007 H 0.10801 0.47282 0.72955 0.0
H1008 H 0.15591 0.51897 0.67016 0.0
C1009 C 0.20988 0.5122 0.86261 0.0
C1010 C 0.15897 0.48817 0.84221 0.0
C1011 C 0.22717 0.51089 0.90603 0.0
C1012 C 0.08424 0.49064 0.68339 0.0
C1013 C 0.10399 0.48772 0.70957 0.0
C1014 C 0.15644 0.51044 0.71844 0.0
C1015 C 0.19658 0.49539 0.85421 0.0
C1016 C 0.17678 0.4973 0.81556 0.0
C1017 C 0.1183 0.5038 0.71042 0.0
C1018 C 0.13863 0.50129 0.74533 0.0
H1019 H 0.22198 0.46138 0.95645 0.0
H1020 H 0.19221 0.4635 0.88034 0.0
H1021 H 0.18865 0.5156 0.73075 0.0
H1022 H 0.08898 0.54007 0.63214 0.0
H1023 H 0.12316 0.53522 0.6793 0.0
C1024 C 0.01814 0.81877 0.2911 0.0
C1025 C 0.99838 0.81184 0.27504 0.0
C1026 C 0.02108 0.83578 0.33596 0.0
C1027 C 0.99245 0.88111 0.4111 0.0
H1028 H 0.04261 0.88917 0.51553 0.0
C1029 C 1.00672 0.95287 0.59031 0.0
C1030 C 0.02551 0.96267 0.57902 0.0
C1031 C 1.00291 0.9334 0.56083 0.0
C1032 C 0.02851 0.88717 0.48655 0.0
H1033 H 0.96625 0.81666 0.29603 0.0
H1034 H 0.97125 0.84541 0.37713 0.0
H1035 H 0.03688 0.85695 0.45267 0.0
H1036 H 0.05552 0.95926 0.53264 0.0
H1037 H 0.04891 0.92547 0.48078 0.0
H1038 H 0.98397 0.91121 0.44687 0.0
C1039 C 0.98459 0.83841 0.35325 0.0
C1040 C 0.02524 0.86867 0.44992 0.0
C1041 C 0.98168 0.82169 0.30739 0.0
C1042 C 0.04074 0.95223 0.54081 0.0
C1043 C 0.03699 0.9328 0.51164 0.0
C1044 C 0.99558 0.89944 0.44884 0.0
C1045 C 1.00432 0.84616 0.36695 0.0
C1046 C 1.00729 0.86541 0.41043 0.0
C1047 C 0.01797 0.92318 0.52056 0.0
C1048 C 0.01382 0.9029 0.48593 0.0
H1049 H 0.03129 0.81169 0.26607 0.0
H1050 H 0.03651 0.84124 0.34378 0.0
H1051 H 0.97857 0.87961 0.38072 0.0
H1052 H 0.995 0.96025 0.62192 0.0
H1053 H 0.9882 0.92632 0.5697 0.0
C1054 C 0.7106 0.02274 0.29215 0.0
C1055 C 0.72182 1.00452 0.29722 0.0
C1056 C 0.69277 0.02572 0.33157 0.0
C1057 C 0.66125 1.00597 0.4797 0.0
H1058 H 0.6172 0.03021 0.3734 0.0
C1059 C 0.57594 1.00845 0.57415 0.0
C1060 C 0.56458 0.02591 0.55659 0.0
C1061 C 0.59599 1.00585 0.54905 0.0
C1062 C 0.62936 0.02369 0.40445 0.0
H1063 H 0.72353 0.97531 0.34865 0.0
H1064 H 0.69217 0.98039 0.41782 0.0
H1065 H 0.65059 0.02607 0.31971 0.0
H1066 H 0.56584 0.05515 0.50515 0.0
H1067 H 0.60064 0.05077 0.46163 0.0
H1068 H 0.63963 1.00332 0.56417 0.0
C1069 C 0.69733 0.99256 0.38419 0.0
C1070 C 0.64861 0.02132 0.37354 0.0
C1071 C 0.71531 0.98964 0.34478 0.0
C1072 C 0.57405 0.04126 0.51755 0.0
C1073 C 0.59398 0.03868 0.49242 0.0
C1074 C 0.64186 1.00833 0.51077 0.0
C1075 C 0.68547 0.01041 0.37648 0.0
C1076 C 0.66494 0.01264 0.41077 0.0
C1077 C 0.6051 0.02074 0.50632 0.0
C1078 C 0.62571 0.01748 0.47377 0.0
H1079 H 0.71523 0.03437 0.25542 0.0
H1080 H 0.68436 0.03985 0.32529 0.0
H1081 H 0.67342 0.99924 0.5101 0.0
H1082 H 0.56924 0.99672 0.60643 0.0
H1083 H 0.60407 0.99189 0.5612 0.0
C1084 C 0.53137 0.72855 0.35761 0.0
C1085 C 0.54923 0.732 0.3186 0.0
C1086 C 0.52977 0.71136 0.40066 0.0
C1087 C 0.55242 0.65951 0.41563 0.0
H1088 H 0.52003 0.65673 0.58582 0.0
C1089 C 0.54599 0.58434 0.56667 0.0
C1090 C 0.52611 0.57827 0.58444 0.0
C1091 C 0.54996 0.6043 0.5449 0.0
C1092 C 0.52907 0.65726 0.53819 0.0
H1093 H 0.57988 0.72109 0.29768 0.0
H1094 H 0.5775 0.69169 0.3745 0.0
H1095 H 0.52508 0.68971 0.529 0.0
H1096 H 0.49526 0.58938 0.60256 0.0
H1097 H 0.50208 0.62412 0.56401 0.0
H1098 H 0.55627 0.62717 0.42412 0.0
C1099 C 0.56441 0.70173 0.3704 0.0
C1100 C 0.53195 0.67617 0.50551 0.0
C1101 C 0.56589 0.71872 0.32692 0.0
C1102 C 0.51064 0.59324 0.58666 0.0
C1103 C 0.51459 0.61328 0.56516 0.0
C1104 C 0.54964 0.64072 0.44837 0.0
C1105 C 0.54608 0.69736 0.40591 0.0
C1106 C 0.54361 0.67754 0.4435 0.0
C1107 C 0.53416 0.61887 0.54169 0.0
C1108 C 0.53785 0.63928 0.50984 0.0
H1109 H 0.51822 0.73844 0.35153 0.0
H1110 H 0.51537 0.7085 0.42675 0.0
H1111 H 0.56105 0.65974 0.36709 0.0
H1112 H 0.55854 0.57368 0.56969 0.0
H1113 H 0.56539 0.60827 0.52979 0.0
C1114 C 0.81149 0.55926 0.2911 0.0
C1115 C 0.79897 0.54201 0.28087 0.0
C1116 C 0.82879 0.55835 0.33389 0.0
C1117 C 0.8559 0.52775 0.4688 0.0
H1118 H 0.90387 0.55286 0.38736 0.0
C1119 C 0.93871 0.5122 0.5669 0.0
C1120 C 0.95329 0.52792 0.56129 0.0
C1121 C 0.91886 0.51471 0.54066 0.0
C1122 C 0.89062 0.54604 0.41175 0.0
H1123 H 0.79431 0.51052 0.31074 0.0
H1124 H 0.82464 0.50886 0.38577 0.0
H1125 H 0.87116 0.5557 0.3285 0.0
H1126 H 0.95716 0.55969 0.53465 0.0
H1127 H 0.92288 0.5641 0.48782 0.0
H1128 H 0.87556 0.51794 0.55189 0.0
C1129 C 0.82098 0.52318 0.36083 0.0
C1130 C 0.87177 0.54766 0.37778 0.0
C1131 C 0.80354 0.52413 0.31795 0.0
C1132 C 0.9469 0.54679 0.53475 0.0
C1133 C 0.92708 0.54937 0.50872 0.0
C1134 C 0.87483 0.52617 0.50303 0.0
C1135 C 0.83418 0.54012 0.36763 0.0
C1136 C 0.85411 0.53856 0.40568 0.0
C1137 C 0.91293 0.53316 0.50932 0.0
C1138 C 0.89248 0.53528 0.47488 0.0
H1139 H 0.80823 0.57336 0.26404 0.0
H1140 H 0.83825 0.57187 0.33922 0.0
H1141 H 0.84262 0.52069 0.49219 0.0
H1142 H 0.9427 0.49767 0.58964 0.0
H1143 H 0.90843 0.50189 0.54273 0.0
loop_
_geom_bond_atom_site_label_1
_geom_bond_atom_site_label_2
_geom_bond_distance
_geom_bond_site_symmetry_2
_ccdc_geom_bond_type
H0 C3 0.929 . S
H1 C6 0.929 . S
H2 C8 0.930 . S
C3 H0 0.929 . S
C3 C4 1.398 . S
C3 C5 1.396 . S
C4 C3 1.398 . S
C4 C8 1.407 . S
C5 C3 1.396 . S
C5 C6 1.394 . S
C6 H1 0.929 . S
C6 C5 1.394 . S
C6 C7 1.382 . S
C7 C6 1.382 . S
C7 C8 1.392 . S
C7 N9 1.420 . S
C8 H2 0.930 . S
C8 C4 1.407 . S
C8 C7 1.392 . S
N9 C7 1.420 . S
N9 C10 1.244 . S
C10 N9 1.244 . S
H11 C14 0.929 . S
H12 C17 0.929 . S
H13 C19 0.930 . S
C14 H11 0.929 . S
C14 C15 1.398 . S
C14 C16 1.396 . S
C15 C14 1.398 . S
C15 C19 1.407 . S
C16 C14 1.396 . S
C16 C17 1.394 . S
C17 H12 0.929 . S
C17 C16 1.394 . S
C17 C18 1.382 . S
C18 C17 1.382 . S
C18 C19 1.392 . S
C18 N20 1.420 . S
C19 H13 0.930 . S
C19 C15 1.407 . S
C19 C18 1.392 . S
N20 C18 1.420 . S
N20 C21 1.244 . S
C21 N20 1.244 . S
H22 C25 0.929 . S
H23 C28 0.929 . S
H24 C30 0.930 . S
C25 H22 0.929 . S
C25 C26 1.398 . S
C25 C27 1.396 . S
C26 C25 1.398 . S
C26 C30 1.407 . S
C27 C25 1.396 . S
C27 C28 1.394 . S
C28 H23 0.929 . S
C28 C27 1.394 . S
C28 C29 1.382 . S
C29 C28 1.382 . S
C29 C30 1.392 . S
C29 N31 1.420 . S
C30 H24 0.930 . S
C30 C26 1.407 . S
C30 C29 1.392 . S
N31 C29 1.420 . S
N31 C32 1.244 . S
C32 N31 1.244 . S
H33 C36 0.929 . S
H34 C39 0.929 . S
H35 C41 0.930 . S
C36 H33 0.929 . S
C36 C37 1.398 . S
C36 C38 1.396 . S
C37 C36 1.398 . S
C37 C41 1.407 . S
C38 C36 1.396 . S
C38 C39 1.394 . S
C39 H34 0.929 . S
C39 C38 1.394 . S
C39 C40 1.382 . S
C40 C39 1.382 . S
C40 C41 1.392 . S
C40 N42 1.420 . S
C41 H35 0.930 . S
C41 C37 1.407 . S
C41 C40 1.392 . S
N42 C40 1.420 . S
N42 C43 1.244 . S
C43 N42 1.244 . S
H44 C47 0.929 . S
H45 C50 0.929 . S
H46 C52 0.930 . S
C47 H44 0.929 . S
C47 C48 1.398 . S
C47 C49 1.396 1_556 S
C48 C47 1.398 . S
C48 C52 1.407 . S
C49 C47 1.396 1_554 S
C49 C50 1.394 . S
C50 H45 0.929 . S
C50 C49 1.394 . S
C50 C51 1.382 . S
C51 C50 1.382 . S
C51 C52 1.392 1_554 S
C51 N53 1.420 . S
C52 H46 0.930 . S
C52 C48 1.407 . S
C52 C51 1.392 1_556 S
N53 C51 1.420 . S
N53 C54 1.244 . S
C54 N53 1.244 . S
H55 C58 0.929 . S
H56 C61 0.929 . S
H57 C63 0.930 . S
C58 H55 0.929 . S
C58 C59 1.398 . S
C58 C60 1.396 1_556 S
C59 C58 1.398 . S
C59 C63 1.407 . S
C60 C58 1.396 1_554 S
C60 C61 1.394 . S
C61 H56 0.929 . S
C61 C60 1.394 . S
C61 C62 1.382 . S
C62 C61 1.382 . S
C62 C63 1.392 1_554 S
C62 N64 1.420 . S
C63 H57 0.930 . S
C63 C59 1.407 . S
C63 C62 1.392 1_556 S
N64 C62 1.420 . S
N64 C65 1.244 . S
C65 N64 1.244 . S
H66 C69 0.929 . S
H67 C72 0.929 . S
H68 C74 0.930 . S
C69 H66 0.929 . S
C69 C70 1.398 . S
C69 C71 1.396 1_556 S
C70 C69 1.398 . S
C70 C74 1.407 . S
C71 C69 1.396 1_554 S
C71 C72 1.394 . S
C72 H67 0.929 . S
C72 C71 1.394 . S
C72 C73 1.382 . S
C73 C72 1.382 . S
C73 C74 1.392 1_554 S
C73 N75 1.420 . S
C74 H68 0.930 . S
C74 C70 1.407 . S
C74 C73 1.392 1_556 S
N75 C73 1.420 . S
N75 C76 1.244 . S
C76 N75 1.244 . S
H77 C80 0.929 . S
H78 C83 0.929 . S
H79 C85 0.930 . S
C80 H77 0.929 . S
C80 C81 1.398 . S
C80 C82 1.396 1_556 S
C81 C80 1.398 . S
C81 C85 1.407 . S
C82 C80 1.396 1_554 S
C82 C83 1.394 . S
C83 H78 0.929 . S
C83 C82 1.394 . S
C83 C84 1.382 . S
C84 C83 1.382 . S
C84 C85 1.392 1_554 S
C84 N86 1.420 . S
C85 H79 0.930 . S
C85 C81 1.407 . S
C85 C84 1.392 1_556 S
N86 C84 1.420 . S
N86 C87 1.244 . S
C87 N86 1.244 . S
Tb88 N119 2.660 1_565 S
Tb88 N126 2.597 1_565 S
Tb88 O132 2.546 . S
Tb88 O133 2.610 1_455 S
Tb88 O135 2.320 1_455 S
Tb88 O136 2.552 . S
Tb88 O137 2.413 . S
Tb88 O139 2.362 1_565 S
Tb88 O140 2.421 . S
Tb88 C152 2.833 . S
C89 C92 1.432 1_545 S
C89 C93 1.414 . S
C89 N96 1.359 . S
C90 C92 1.417 . S
C90 C94 1.432 . S
C90 C102 1.410 . S
C91 C93 1.444 1_565 S
C91 C94 1.317 . S
C91 H114 0.929 . S
C92 C89 1.432 1_565 S
C92 C90 1.417 . S
C92 N100 1.360 1_565 S
C93 C89 1.414 . S
C93 C91 1.444 1_545 S
C93 C98 1.385 . S
C94 C90 1.432 . S
C94 C91 1.317 . S
C94 H106 0.930 . S
C95 C97 1.392 . S
C95 C98 1.370 . S
C95 H107 0.931 . S
N96 C89 1.359 . S
N96 C97 1.327 . S
N96 Tb99 2.600 . S
C97 C95 1.392 . S
C97 N96 1.327 . S
C97 H104 0.930 . S
C98 C93 1.385 . S
C98 C95 1.370 . S
C98 H117 0.930 . S
Tb99 N96 2.600 . S
Tb99 N100 2.660 . S
Tb99 O133 2.362 1_545 S
Tb99 O134 2.421 . S
Tb99 O138 2.546 . S
Tb99 O139 2.610 1_655 S
Tb99 O141 2.320 1_655 S
Tb99 O142 2.552 1_655 S
Tb99 O143 2.414 . S
Tb99 C163 2.833 . S
N100 C92 1.360 1_545 S
N100 Tb99 2.660 . S
N100 C101 1.305 1_645 S
C101 N100 1.305 1_465 S
C101 C103 1.407 . S
C101 H108 0.930 . S
C102 C90 1.410 . S
C102 C103 1.345 1_655 S
C102 H110 0.930 . S
C103 C101 1.407 . S
C103 C102 1.345 1_455 S
C103 H105 0.930 . S
H104 C97 0.930 . S
H105 C103 0.930 . S
H106 C94 0.930 . S
H107 C95 0.931 . S
H108 C101 0.930 . S
H109 C123 0.930 1_655 S
H110 C102 0.930 . S
H111 C129 0.930 . S
H112 C120 0.930 1_655 S
H113 C127 0.931 . S
H114 C91 0.929 . S
H115 C121 0.930 . S
H116 C154 0.930 . S
H117 C98 0.930 . S
H118 C153 0.929 . S
N119 Tb88 2.660 1_545 S
N119 C120 1.305 . S
N119 C124 1.360 . S
C120 H112 0.930 1_455 S
C120 N119 1.305 . S
C120 C123 1.407 . S
C121 H115 0.930 . S
C121 C122 1.410 . S
C121 C123 1.345 . S
C122 C121 1.410 . S
C122 C124 1.417 . S
C122 C154 1.432 . S
C123 H109 0.930 1_455 S
C123 C120 1.407 . S
C123 C121 1.345 . S
C124 N119 1.360 . S
C124 C122 1.417 . S
C124 C128 1.432 . S
H125 C130 0.930 . S
N126 Tb88 2.597 1_545 S
N126 C128 1.366 . S
N126 C129 1.322 1_545 S
C127 H113 0.931 . S
C127 C129 1.392 . S
C127 C130 1.370 1_565 S
C128 C124 1.432 . S
C128 N126 1.366 . S
C128 C131 1.414 . S
C129 H111 0.930 . S
C129 N126 1.322 1_565 S
C129 C127 1.392 . S
C130 H125 0.930 . S
C130 C127 1.370 1_545 S
C130 C131 1.385 . S
C131 C128 1.414 . S
C131 C130 1.385 . S
C131 C153 1.444 . S
O132 Tb88 2.546 . S
O132 C152 1.251 . S
O133 Tb88 2.610 1_655 S
O133 Tb99 2.362 1_565 S
O133 C144 1.283 . S
O134 Tb99 2.421 . S
O134 C151 1.262 . S
O135 Tb88 2.320 1_655 S
O135 C151 1.260 1_565 S
O136 Tb88 2.552 . S
O136 C144 1.243 1_455 S
O137 Tb88 2.413 . S
O137 C152 1.256 . S
O138 Tb99 2.546 . S
O138 C163 1.251 . S
O139 Tb88 2.362 1_545 S
O139 Tb99 2.610 1_455 S
O139 C155 1.283 . S
O140 Tb88 2.421 . S
O140 C162 1.262 1_565 S
O141 Tb99 2.320 1_455 S
O141 C162 1.260 . S
O142 Tb99 2.552 1_455 S
O142 C155 1.243 . S
O143 Tb99 2.414 . S
O143 C163 1.257 . S
C144 O133 1.283 . S
C144 O136 1.243 1_655 S
C145 C147 1.382 . S
C145 C149 1.393 . S
C145 C152 1.500 . S
C146 C147 1.400 . S
C146 C148 1.384 . S
C147 C145 1.382 . S
C147 C146 1.400 . S
C147 H164 0.930 1_455 S
C148 C146 1.384 . S
C148 C150 1.392 . S
C148 H165 0.931 . S
C149 C145 1.393 . S
C149 C150 1.401 . S
C149 H166 0.930 . S
C150 C148 1.392 . S
C150 C149 1.401 . S
C150 H167 0.930 . S
C151 O134 1.262 . S
C151 O135 1.260 1_545 S
C152 Tb88 2.833 . S
C152 O132 1.251 . S
C152 O137 1.256 . S
C152 C145 1.500 . S
C153 H118 0.929 . S
C153 C131 1.444 . S
C153 C154 1.317 . S
C154 H116 0.930 . S
C154 C122 1.432 . S
C154 C153 1.317 . S
C155 O139 1.283 . S
C155 O142 1.243 . S
C156 C157 1.351 1_655 S
C156 C160 1.393 . S
C156 C163 1.500 . S
C157 C156 1.351 1_455 S
C157 C158 1.398 1_455 S
C157 H168 0.964 . S
C158 C157 1.398 1_655 S
C158 C159 1.405 . S
C159 C158 1.405 . S
C159 C161 1.392 . S
C159 H169 0.931 . S
C160 C156 1.393 . S
C160 C161 1.401 . S
C160 H170 0.930 . S
C161 C159 1.392 . S
C161 C160 1.401 . S
C161 H171 0.930 . S
C162 O140 1.262 1_545 S
C162 O141 1.260 . S
C163 Tb99 2.833 . S
C163 O138 1.251 . S
C163 O143 1.257 . S
C163 C156 1.500 . S
H164 C147 0.930 1_655 S
H165 C148 0.931 . S
H166 C149 0.930 . S
H167 C150 0.930 . S
H168 C157 0.964 . S
H169 C159 0.931 . S
H170 C160 0.930 . S
H171 C161 0.930 . S
Tb172 N203 2.660 . S
Tb172 N210 2.600 . S
Tb172 O216 2.546 . S
Tb172 O217 2.609 1_545 S
Tb172 O219 2.320 1_545 S
Tb172 O220 2.552 . S
Tb172 O221 2.413 . S
Tb172 O223 2.362 . S
Tb172 O224 2.421 . S
Tb172 C236 2.833 . S
C173 C176 1.432 . S
C173 C177 1.414 . S
C173 N180 1.359 . S
C174 C176 1.417 . S
C174 C178 1.432 . S
C174 C186 1.410 . S
C175 C177 1.444 . S
C175 C178 1.317 . S
C175 H198 0.929 . S
C176 C173 1.432 . S
C176 C174 1.417 . S
C176 N184 1.360 . S
C177 C173 1.414 . S
C177 C175 1.444 . S
C177 C182 1.385 . S
C178 C174 1.432 . S
C178 C175 1.317 . S
C178 H190 0.930 . S
C179 C181 1.392 . S
C179 C182 1.370 . S
C179 H191 0.931 . S
N180 C173 1.359 . S
N180 C181 1.327 . S
N180 Tb183 2.600 . S
C181 C179 1.392 . S
C181 N180 1.327 . S
C181 H188 0.930 . S
C182 C177 1.385 . S
C182 C179 1.370 . S
C182 H201 0.930 . S
Tb183 N180 2.600 . S
Tb183 N184 2.660 . S
Tb183 O217 2.362 . S
Tb183 O218 2.421 . S
Tb183 O222 2.546 . S
Tb183 O223 2.610 1_565 S
Tb183 O225 2.320 1_565 S
Tb183 O226 2.552 1_565 S
Tb183 O227 2.413 1_565 S
Tb183 C247 2.833 . S
N184 C176 1.360 . S
N184 Tb183 2.660 . S
N184 C185 1.305 1_565 S
C185 N184 1.305 1_545 S
C185 C187 1.407 . S
C185 H192 0.930 . S
C186 C174 1.410 . S
C186 C187 1.345 1_565 S
C186 H194 0.930 . S
C187 C185 1.407 . S
C187 C186 1.345 1_545 S
C187 H189 0.930 . S
H188 C181 0.930 . S
H189 C187 0.930 . S
H190 C178 0.930 . S
H191 C179 0.931 . S
H192 C185 0.930 . S
H193 C207 0.930 1_565 S
H194 C186 0.930 . S
H195 C213 0.930 . S
H196 C204 0.930 1_565 S
H197 C211 0.931 . S
H198 C175 0.929 . S
H199 C205 0.930 . S
H200 C238 0.930 . S
H201 C182 0.930 . S
H202 C237 0.929 . S
N203 Tb172 2.660 . S
N203 C204 1.305 . S
N203 C208 1.360 . S
C204 H196 0.930 1_545 S
C204 N203 1.305 . S
C204 C207 1.407 . S
C205 H199 0.930 . S
C205 C206 1.410 . S
C205 C207 1.345 . S
C206 C205 1.410 . S
C206 C208 1.417 . S
C206 C238 1.432 . S
C207 H193 0.930 1_545 S
C207 C204 1.407 . S
C207 C205 1.345 . S
C208 N203 1.360 . S
C208 C206 1.417 . S
C208 C212 1.432 . S
H209 C214 0.930 . S
N210 Tb172 2.600 . S
N210 C212 1.359 . S
N210 C213 1.327 . S
C211 H197 0.931 . S
C211 C213 1.392 . S
C211 C214 1.370 . S
C212 C208 1.432 . S
C212 N210 1.359 . S
C212 C215 1.414 . S
C213 H195 0.930 . S
C213 N210 1.327 . S
C213 C211 1.392 . S
C214 H209 0.930 . S
C214 C211 1.370 . S
C214 C215 1.385 . S
C215 C212 1.414 . S
C215 C214 1.385 . S
C215 C237 1.444 . S
O216 Tb172 2.546 . S
O216 C236 1.251 . S
O217 Tb172 2.609 1_565 S
O217 Tb183 2.362 . S
O217 C228 1.283 1_565 S
O218 Tb183 2.421 . S
O218 C235 1.262 . S
O219 Tb172 2.320 1_565 S
O219 C235 1.260 . S
O220 Tb172 2.552 . S
O220 C228 1.250 . S
O221 Tb172 2.413 . S
O221 C236 1.256 . S
O222 Tb183 2.546 . S
O222 C247 1.251 . S
O223 Tb172 2.362 . S
O223 Tb183 2.610 1_545 S
O223 C239 1.283 . S
O224 Tb172 2.421 . S
O224 C246 1.262 . S
O225 Tb183 2.320 1_545 S
O225 C246 1.260 . S
O226 Tb183 2.552 1_545 S
O226 C239 1.243 . S
O227 Tb183 2.413 1_545 S
O227 C247 1.256 1_545 S
C228 O217 1.283 1_545 S
C228 O220 1.250 . S
C229 C231 1.382 . S
C229 C233 1.393 . S
C229 C236 1.500 . S
C230 C231 1.400 . S
C230 C232 1.384 . S
C231 C229 1.382 . S
C231 C230 1.400 . S
C231 H248 0.930 . S
C232 C230 1.384 . S
C232 C234 1.392 . S
C232 H249 0.931 . S
C233 C229 1.393 . S
C233 C234 1.401 . S
C233 H250 0.930 . S
C234 C232 1.392 . S
C234 C233 1.401 . S
C234 H251 0.930 . S
C235 O218 1.262 . S
C235 O219 1.260 . S
C236 Tb172 2.833 . S
C236 O216 1.251 . S
C236 O221 1.256 . S
C236 C229 1.500 . S
C237 H202 0.929 . S
C237 C215 1.444 . S
C237 C238 1.317 . S
C238 H200 0.930 . S
C238 C206 1.432 . S
C238 C237 1.317 . S
C239 O223 1.283 . S
C239 O226 1.243 . S
C240 C241 1.382 1_565 S
C240 C244 1.393 . S
C240 C247 1.500 . S
C241 C240 1.382 1_545 S
C241 C242 1.404 . S
C241 H252 0.930 . S
C242 C241 1.404 . S
C242 C243 1.341 1_545 S
C243 C242 1.341 1_565 S
C243 C245 1.392 . S
C243 H253 0.931 . S
C244 C240 1.393 . S
C244 C245 1.401 . S
C244 H254 0.930 . S
C245 C243 1.392 . S
C245 C244 1.401 . S
C245 H255 0.930 . S
C246 O224 1.262 . S
C246 O225 1.260 . S
C247 Tb183 2.833 . S
C247 O222 1.251 . S
C247 O227 1.256 1_565 S
C247 C240 1.500 . S
H248 C231 0.930 . S
H249 C232 0.931 . S
H250 C233 0.930 . S
H251 C234 0.930 . S
H252 C241 0.930 . S
H253 C243 0.931 . S
H254 C244 0.930 . S
H255 C245 0.930 . S
Tb256 N287 2.660 . S
Tb256 N294 2.600 . S
Tb256 O300 2.546 . S
Tb256 O301 2.610 . S
Tb256 O303 2.320 . S
Tb256 O304 2.552 . S
Tb256 O305 2.413 . S
Tb256 O307 2.362 . S
Tb256 O308 2.421 . S
Tb256 C320 2.833 . S
C257 C260 1.432 . S
C257 C261 1.414 . S
C257 N264 1.359 . S
C258 C260 1.417 . S
C258 C262 1.432 . S
C258 C270 1.410 . S
C259 C261 1.444 . S
C259 C262 1.317 . S
C259 H282 0.929 . S
C260 C257 1.432 . S
C260 C258 1.417 . S
C260 N268 1.360 . S
C261 C257 1.414 . S
C261 C259 1.444 . S
C261 C266 1.385 . S
C262 C258 1.432 . S
C262 C259 1.317 . S
C262 H274 0.930 . S
C263 C265 1.392 . S
C263 C266 1.370 . S
C263 H275 0.931 . S
N264 C257 1.359 . S
N264 C265 1.327 . S
N264 Tb267 2.600 . S
C265 C263 1.392 . S
C265 N264 1.327 . S
C265 H272 0.930 . S
C266 C261 1.385 . S
C266 C263 1.370 . S
C266 H285 0.930 . S
Tb267 N264 2.600 . S
Tb267 N268 2.660 . S
Tb267 O301 2.362 . S
Tb267 O302 2.421 . S
Tb267 O306 2.546 . S
Tb267 O307 2.610 . S
Tb267 O309 2.320 . S
Tb267 O310 2.552 . S
Tb267 O311 2.413 . S
Tb267 C331 2.833 . S
N268 C260 1.360 . S
N268 Tb267 2.660 . S
N268 C269 1.305 . S
C269 N268 1.305 . S
C269 C271 1.407 . S
C269 H276 0.930 . S
C270 C258 1.410 . S
C270 C271 1.345 . S
C270 H278 0.930 . S
C271 C269 1.407 . S
C271 C270 1.345 . S
C271 H273 0.930 . S
H272 C265 0.930 . S
H273 C271 0.930 . S
H274 C262 0.930 . S
H275 C263 0.931 . S
H276 C269 0.930 . S
H277 C291 0.930 . S
H278 C270 0.930 . S
H279 C297 0.930 . S
H280 C288 0.930 . S
H281 C295 0.931 . S
H282 C259 0.929 . S
H283 C289 0.930 . S
H284 C322 0.930 . S
H285 C266 0.930 . S
H286 C321 0.929 . S
N287 Tb256 2.660 . S
N287 C288 1.305 . S
N287 C292 1.360 . S
C288 H280 0.930 . S
C288 N287 1.305 . S
C288 C291 1.407 . S
C289 H283 0.930 . S
C289 C290 1.410 . S
C289 C291 1.345 . S
C290 C289 1.410 . S
C290 C292 1.417 . S
C290 C322 1.432 . S
C291 H277 0.930 . S
C291 C288 1.407 . S
C291 C289 1.345 . S
C292 N287 1.360 . S
C292 C290 1.417 . S
C292 C296 1.432 . S
H293 C298 0.930 . S
N294 Tb256 2.600 . S
N294 C296 1.359 . S
N294 C297 1.327 . S
C295 H281 0.931 . S
C295 C297 1.392 . S
C295 C298 1.370 . S
C296 C292 1.432 . S
C296 N294 1.359 . S
C296 C299 1.414 . S
C297 H279 0.930 . S
C297 N294 1.327 . S
C297 C295 1.392 . S
C298 H293 0.930 . S
C298 C295 1.370 . S
C298 C299 1.385 . S
C299 C296 1.414 . S
C299 C298 1.385 . S
C299 C321 1.444 . S
O300 Tb256 2.546 . S
O300 C320 1.251 . S
O301 Tb256 2.610 . S
O301 Tb267 2.362 . S
O301 C312 1.283 . S
O302 Tb267 2.421 . S
O302 C319 1.262 . S
O303 Tb256 2.320 . S
O303 C319 1.260 . S
O304 Tb256 2.552 . S
O304 C312 1.243 . S
O305 Tb256 2.413 . S
O305 C320 1.256 . S
O306 Tb267 2.546 . S
O306 C331 1.251 . S
O307 Tb256 2.362 . S
O307 Tb267 2.610 . S
O307 C323 1.283 . S
O308 Tb256 2.421 . S
O308 C330 1.262 . S
O309 Tb267 2.320 . S
O309 C330 1.260 . S
O310 Tb267 2.552 . S
O310 C323 1.243 . S
O311 Tb267 2.413 . S
O311 C331 1.256 . S
C312 O301 1.283 . S
C312 O304 1.243 . S
C313 C315 1.382 . S
C313 C317 1.393 . S
C313 C320 1.500 . S
C314 C315 1.400 . S
C314 C316 1.384 . S
C315 C313 1.382 . S
C315 C314 1.400 . S
C315 H332 0.930 . S
C316 C314 1.384 . S
C316 C318 1.392 . S
C316 H333 0.931 . S
C317 C313 1.393 . S
C317 C318 1.401 . S
C317 H334 0.930 . S
C318 C316 1.392 . S
C318 C317 1.401 . S
C318 H335 0.930 . S
C319 O302 1.262 . S
C319 O303 1.260 . S
C320 Tb256 2.833 . S
C320 O300 1.251 . S
C320 O305 1.256 . S
C320 C313 1.500 . S
C321 H286 0.929 . S
C321 C299 1.444 . S
C321 C322 1.317 . S
C322 H284 0.930 . S
C322 C290 1.432 . S
C322 C321 1.317 . S
C323 O307 1.283 . S
C323 O310 1.243 . S
C324 C325 1.382 . S
C324 C328 1.393 . S
C324 C331 1.500 . S
C325 C324 1.382 . S
C325 C326 1.400 . S
C325 H336 0.930 . S
C326 C325 1.400 . S
C326 C327 1.384 . S
C327 C326 1.384 . S
C327 C329 1.392 . S
C327 H337 0.931 . S
C328 C324 1.393 . S
C328 C329 1.401 . S
C328 H338 0.930 . S
C329 C327 1.392 . S
C329 C328 1.401 . S
C329 H339 0.930 1_556 S
C330 O308 1.262 . S
C330 O309 1.260 . S
C331 Tb267 2.833 . S
C331 O306 1.251 . S
C331 O311 1.256 . S
C331 C324 1.500 . S
H332 C315 0.930 . S
H333 C316 0.931 . S
H334 C317 0.930 . S
H335 C318 0.930 . S
H336 C325 0.930 . S
H337 C327 0.931 . S
H338 C328 0.930 . S
H339 C329 0.930 1_554 S
Tb340 N371 2.660 . S
Tb340 N378 2.600 . S
Tb340 O384 2.546 . S
Tb340 O385 2.610 . S
Tb340 O387 2.320 . S
Tb340 O388 2.552 . S
Tb340 O389 2.413 . S
Tb340 O391 2.362 . S
Tb340 O392 2.421 1_455 S
Tb340 C404 2.833 . S
C341 C344 1.432 . S
C341 C345 1.414 . S
C341 N348 1.359 . S
C342 C344 1.417 . S
C342 C346 1.432 . S
C342 C354 1.410 . S
C343 C345 1.444 . S
C343 C346 1.317 . S
C343 H366 0.929 . S
C344 C341 1.432 . S
C344 C342 1.417 . S
C344 N352 1.360 . S
C345 C341 1.414 . S
C345 C343 1.444 . S
C345 C350 1.385 1_655 S
C346 C342 1.432 . S
C346 C343 1.317 . S
C346 H358 0.930 . S
C347 C349 1.392 . S
C347 C350 1.370 . S
C347 H359 0.931 . S
N348 C341 1.359 . S
N348 C349 1.327 1_655 S
N348 Tb351 2.600 . S
C349 C347 1.392 . S
C349 N348 1.327 1_455 S
C349 H356 0.930 . S
C350 C345 1.385 1_455 S
C350 C347 1.370 . S
C350 H369 0.930 . S
Tb351 N348 2.600 . S
Tb351 N352 2.660 . S
Tb351 O385 2.362 1_655 S
Tb351 O386 2.421 1_655 S
Tb351 O390 2.546 . S
Tb351 O391 2.610 1_655 S
Tb351 O393 2.320 . S
Tb351 O394 2.552 . S
Tb351 O395 2.413 . S
Tb351 C415 2.833 . S
N352 C344 1.360 . S
N352 Tb351 2.660 . S
N352 C353 1.305 . S
C353 N352 1.305 . S
C353 C355 1.407 . S
C353 H360 0.930 . S
C354 C342 1.410 . S
C354 C355 1.345 . S
C354 H362 0.930 . S
C355 C353 1.407 . S
C355 C354 1.345 . S
C355 H357 0.930 . S
H356 C349 0.930 . S
H357 C355 0.930 . S
H358 C346 0.930 . S
H359 C347 0.931 . S
H360 C353 0.930 . S
H361 C375 0.930 . S
H362 C354 0.930 . S
H363 C381 0.930 1_655 S
H364 C372 0.930 . S
H365 C379 0.931 1_655 S
H366 C343 0.929 . S
H367 C373 0.930 . S
H368 C406 0.930 . S
H369 C350 0.930 . S
H370 C405 0.929 . S
N371 Tb340 2.660 . S
N371 C372 1.305 . S
N371 C376 1.360 . S
C372 H364 0.930 . S
C372 N371 1.305 . S
C372 C375 1.407 . S
C373 H367 0.930 . S
C373 C374 1.410 . S
C373 C375 1.345 . S
C374 C373 1.410 . S
C374 C376 1.417 . S
C374 C406 1.432 . S
C375 H361 0.930 . S
C375 C372 1.407 . S
C375 C373 1.345 . S
C376 N371 1.360 . S
C376 C374 1.417 . S
C376 C380 1.432 . S
H377 C382 0.930 . S
N378 Tb340 2.600 . S
N378 C380 1.359 . S
N378 C381 1.327 . S
C379 H365 0.931 1_455 S
C379 C381 1.392 . S
C379 C382 1.370 . S
C380 C376 1.432 . S
C380 N378 1.359 . S
C380 C383 1.414 . S
C381 H363 0.930 1_455 S
C381 N378 1.327 . S
C381 C379 1.392 . S
C382 H377 0.930 . S
C382 C379 1.370 . S
C382 C383 1.385 . S
C383 C380 1.414 . S
C383 C382 1.385 . S
C383 C405 1.444 . S
O384 Tb340 2.546 . S
O384 C404 1.251 . S
O385 Tb340 2.610 . S
O385 Tb351 2.362 1_455 S
O385 C396 1.283 . S
O386 Tb351 2.421 1_455 S
O386 C403 1.262 . S
O387 Tb340 2.320 . S
O387 C403 1.260 . S
O388 Tb340 2.552 . S
O388 C396 1.243 . S
O389 Tb340 2.413 . S
O389 C404 1.256 . S
O390 Tb351 2.546 . S
O390 C415 1.251 . S
O391 Tb340 2.362 . S
O391 Tb351 2.610 1_455 S
O391 C407 1.283 1_455 S
O392 Tb340 2.421 1_655 S
O392 C414 1.262 . S
O393 Tb351 2.320 . S
O393 C414 1.260 . S
O394 Tb351 2.552 . S
O394 C407 1.243 . S
O395 Tb351 2.413 . S
O395 C415 1.256 . S
C396 O385 1.283 . S
C396 O388 1.243 . S
C397 C399 1.382 . S
C397 C401 1.393 . S
C397 C404 1.500 . S
C398 C399 1.400 . S
C398 C400 1.384 . S
C399 C397 1.382 . S
C399 C398 1.400 . S
C399 H416 0.930 . S
C400 C398 1.384 . S
C400 C402 1.392 . S
C400 H417 0.931 . S
C401 C397 1.393 . S
C401 C402 1.401 . S
C401 H418 0.930 . S
C402 C400 1.392 . S
C402 C401 1.401 . S
C402 H419 0.930 . S
C403 O386 1.262 . S
C403 O387 1.260 . S
C404 Tb340 2.833 . S
C404 O384 1.251 . S
C404 O389 1.256 . S
C404 C397 1.500 . S
C405 H370 0.929 . S
C405 C383 1.444 . S
C405 C406 1.317 . S
C406 H368 0.930 . S
C406 C374 1.432 . S
C406 C405 1.317 . S
C407 O391 1.283 1_655 S
C407 O394 1.243 . S
C408 C409 1.382 . S
C408 C412 1.393 . S
C408 C415 1.500 . S
C409 C408 1.382 . S
C409 C410 1.400 . S
C409 H420 0.930 . S
C410 C409 1.400 . S
C410 C411 1.384 . S
C411 C410 1.384 . S
C411 C413 1.392 . S
C411 H421 0.931 . S
C412 C408 1.393 . S
C412 C413 1.401 . S
C412 H422 0.930 . S
C413 C411 1.392 . S
C413 C412 1.401 . S
C413 H423 0.930 1_556 S
C414 O392 1.262 . S
C414 O393 1.260 . S
C415 Tb351 2.833 . S
C415 O390 1.251 . S
C415 O395 1.256 . S
C415 C408 1.500 . S
H416 C399 0.930 . S
H417 C400 0.931 . S
H418 C401 0.930 . S
H419 C402 0.930 . S
H420 C409 0.930 . S
H421 C411 0.931 . S
H422 C412 0.930 . S
H423 C413 0.930 1_554 S
C424 C425 1.349 . S
C424 C426 1.327 . S
C424 H449 0.950 . S
C425 C424 1.349 . S
C425 C441 1.349 . S
C426 C424 1.327 . S
C426 C445 1.429 . S
C426 H450 0.950 . S
C427 C444 1.574 . S
C427 C446 1.368 . S
C427 H451 0.949 . S
H428 C432 0.949 . S
C429 C430 1.349 . S
C429 C431 1.327 . S
C429 H452 0.950 . S
C430 C429 1.349 . S
C430 C442 1.349 . S
C431 C429 1.327 . S
C431 C447 1.429 . S
C431 H453 0.950 . S
C432 H428 0.949 . S
C432 C440 1.574 . S
C432 C448 1.368 . S
H433 C441 0.950 . S
H434 C439 0.950 . S
H435 C440 0.949 . S
H436 C442 0.950 . S
H437 C443 0.950 . S
H438 C444 0.949 . S
C439 H434 0.950 . S
C439 C441 1.327 . S
C439 C445 1.429 . S
C440 C432 1.574 . S
C440 H435 0.949 . S
C440 C446 1.368 . S
C441 C425 1.349 . S
C441 H433 0.950 . S
C441 C439 1.327 . S
C442 C430 1.349 . S
C442 H436 0.950 . S
C442 C443 1.327 . S
C443 H437 0.950 . S
C443 C442 1.327 . S
C443 C447 1.429 . S
C444 C427 1.574 . S
C444 H438 0.949 . S
C444 C448 1.368 . S
C445 C426 1.429 . S
C445 C439 1.429 . S
C445 C446 1.523 . S
C446 C427 1.368 . S
C446 C440 1.368 . S
C446 C445 1.523 . S
C447 C431 1.429 . S
C447 C443 1.429 . S
C447 C448 1.523 . S
C448 C432 1.368 . S
C448 C444 1.368 . S
C448 C447 1.523 . S
H449 C424 0.950 . S
H450 C426 0.950 . S
H451 C427 0.949 . S
H452 C429 0.950 . S
H453 C431 0.950 . S
C454 C455 1.349 . S
C454 C456 1.327 . S
C454 H479 0.950 . S
C455 C454 1.349 . S
C455 C471 1.349 . S
C456 C454 1.327 . S
C456 C475 1.429 . S
C456 H480 0.950 . S
C457 C474 1.574 . S
C457 C476 1.368 . S
C457 H481 0.949 . S
H458 C462 0.949 . S
C459 C460 1.349 . S
C459 C461 1.327 . S
C459 H482 0.950 . S
C460 C459 1.349 . S
C460 C472 1.349 . S
C461 C459 1.327 . S
C461 C477 1.429 . S
C461 H483 0.950 . S
C462 H458 0.949 . S
C462 C470 1.574 . S
C462 C478 1.368 . S
H463 C471 0.950 . S
H464 C469 0.950 . S
H465 C470 0.949 . S
H466 C472 0.950 . S
H467 C473 0.950 . S
H468 C474 0.949 . S
C469 H464 0.950 . S
C469 C471 1.327 . S
C469 C475 1.429 . S
C470 C462 1.574 . S
C470 H465 0.949 . S
C470 C476 1.368 . S
C471 C455 1.349 . S
C471 H463 0.950 . S
C471 C469 1.327 . S
C472 C460 1.349 . S
C472 H466 0.950 . S
C472 C473 1.327 . S
C473 H467 0.950 . S
C473 C472 1.327 . S
C473 C477 1.429 . S
C474 C457 1.574 . S
C474 H468 0.949 . S
C474 C478 1.368 . S
C475 C456 1.429 . S
C475 C469 1.429 . S
C475 C476 1.523 . S
C476 C457 1.368 . S
C476 C470 1.368 . S
C476 C475 1.523 . S
C477 C461 1.429 . S
C477 C473 1.429 . S
C477 C478 1.523 . S
C478 C462 1.368 . S
C478 C474 1.368 . S
C478 C477 1.523 . S
H479 C454 0.950 . S
H480 C456 0.950 . S
H481 C457 0.949 . S
H482 C459 0.950 . S
H483 C461 0.950 . S
C484 C485 1.349 . S
C484 C486 1.327 . S
C484 H509 0.950 . S
C485 C484 1.349 . S
C485 C501 1.349 . S
C486 C484 1.327 . S
C486 C505 1.429 . S
C486 H510 0.950 . S
C487 C504 1.574 . S
C487 C506 1.368 . S
C487 H511 0.949 . S
H488 C492 0.949 . S
C489 C490 1.349 . S
C489 C491 1.327 . S
C489 H512 0.950 . S
C490 C489 1.349 . S
C490 C502 1.349 . S
C491 C489 1.327 . S
C491 C507 1.429 . S
C491 H513 0.950 . S
C492 H488 0.949 . S
C492 C500 1.574 . S
C492 C508 1.368 . S
H493 C501 0.950 . S
H494 C499 0.950 . S
H495 C500 0.949 . S
H496 C502 0.950 . S
H497 C503 0.950 . S
H498 C504 0.949 . S
C499 H494 0.950 . S
C499 C501 1.327 . S
C499 C505 1.429 . S
C500 C492 1.574 . S
C500 H495 0.949 . S
C500 C506 1.368 . S
C501 C485 1.349 . S
C501 H493 0.950 . S
C501 C499 1.327 . S
C502 C490 1.349 . S
C502 H496 0.950 . S
C502 C503 1.327 . S
C503 H497 0.950 . S
C503 C502 1.327 . S
C503 C507 1.429 . S
C504 C487 1.574 . S
C504 H498 0.949 . S
C504 C508 1.368 . S
C505 C486 1.429 . S
C505 C499 1.429 . S
C505 C506 1.523 . S
C506 C487 1.368 . S
C506 C500 1.368 . S
C506 C505 1.523 . S
C507 C491 1.429 . S
C507 C503 1.429 . S
C507 C508 1.523 . S
C508 C492 1.368 . S
C508 C504 1.368 . S
C508 C507 1.523 . S
H509 C484 0.950 . S
H510 C486 0.950 . S
H511 C487 0.949 . S
H512 C489 0.950 . S
H513 C491 0.950 . S
C514 C515 1.349 . S
C514 C516 1.327 . S
C514 H539 0.950 . S
C515 C514 1.349 . S
C515 C531 1.349 . S
C516 C514 1.327 . S
C516 C535 1.429 . S
C516 H540 0.950 . S
C517 C534 1.574 . S
C517 C536 1.368 . S
C517 H541 0.949 . S
H518 C522 0.949 . S
C519 C520 1.349 . S
C519 C521 1.327 . S
C519 H542 0.950 . S
C520 C519 1.349 . S
C520 C532 1.349 . S
C521 C519 1.327 . S
C521 C537 1.429 . S
C521 H543 0.950 . S
C522 H518 0.949 . S
C522 C530 1.574 . S
C522 C538 1.368 . S
H523 C531 0.950 . S
H524 C529 0.950 . S
H525 C530 0.949 . S
H526 C532 0.950 1_655 S
H527 C533 0.950 . S
H528 C534 0.949 . S
C529 H524 0.950 . S
C529 C531 1.327 . S
C529 C535 1.429 . S
C530 C522 1.574 . S
C530 H525 0.949 . S
C530 C536 1.368 . S
C531 C515 1.349 . S
C531 H523 0.950 . S
C531 C529 1.327 . S
C532 C520 1.349 . S
C532 H526 0.950 1_455 S
C532 C533 1.327 . S
C533 H527 0.950 . S
C533 C532 1.327 . S
C533 C537 1.429 . S
C534 C517 1.574 . S
C534 H528 0.949 . S
C534 C538 1.368 . S
C535 C516 1.429 . S
C535 C529 1.429 . S
C535 C536 1.523 . S
C536 C517 1.368 . S
C536 C530 1.368 . S
C536 C535 1.523 . S
C537 C521 1.429 . S
C537 C533 1.429 . S
C537 C538 1.523 . S
C538 C522 1.368 . S
C538 C534 1.368 . S
C538 C537 1.523 . S
H539 C514 0.950 . S
H540 C516 0.950 . S
H541 C517 0.949 . S
H542 C519 0.950 . S
H543 C521 0.950 . S
C544 C545 1.349 . S
C544 C546 1.327 . S
C544 H569 0.950 . S
C545 C544 1.349 . S
C545 C561 1.349 . S
C546 C544 1.327 . S
C546 C565 1.429 . S
C546 H570 0.950 1_554 S
C547 C564 1.574 . S
C547 C566 1.368 . S
C547 H571 0.949 1_556 S
H548 C552 0.949 . S
C549 C550 1.349 1_545 S
C549 C551 1.340 . S
C549 H572 0.950 . S
C550 C549 1.349 1_565 S
C550 C562 1.349 . S
C551 C549 1.340 . S
C551 C567 1.390 1_545 S
C551 H573 0.980 . S
C552 H548 0.949 . S
C552 C560 1.574 . S
C552 C568 1.368 . S
H553 C561 0.950 . S
H554 C559 0.950 . S
H555 C560 0.949 . S
H556 C562 0.950 . S
H557 C563 0.950 . S
H558 C564 0.949 1_545 S
C559 H554 0.950 . S
C559 C561 1.327 . S
C559 C565 1.429 . S
C560 C552 1.574 . S
C560 H555 0.949 . S
C560 C566 1.368 . S
C561 C545 1.349 . S
C561 H553 0.950 . S
C561 C559 1.327 . S
C562 C550 1.349 . S
C562 H556 0.950 . S
C562 C563 1.327 . S
C563 H557 0.950 . S
C563 C562 1.327 . S
C563 C567 1.429 . S
C564 C547 1.574 . S
C564 H558 0.949 1_565 S
C564 C568 1.368 . S
C565 C546 1.429 . S
C565 C559 1.429 . S
C565 C566 1.523 1_554 S
C566 C547 1.368 . S
C566 C560 1.368 . S
C566 C565 1.523 1_556 S
C567 C551 1.390 1_565 S
C567 C563 1.429 . S
C567 C568 1.523 . S
C568 C552 1.368 . S
C568 C564 1.368 . S
C568 C567 1.523 . S
H569 C544 0.950 . S
H570 C546 0.950 1_556 S
H571 C547 0.949 1_554 S
H572 C549 0.950 . S
H573 C551 0.980 . S
C574 C575 1.349 . S
C574 C576 1.327 . S
C574 H599 0.950 . S
C575 C574 1.349 . S
C575 C591 1.349 . S
C576 C574 1.327 . S
C576 C595 1.429 . S
C576 H600 0.950 . S
C577 C594 1.574 . S
C577 C596 1.368 . S
C577 H601 0.949 . S
H578 C582 0.949 . S
C579 C580 1.349 . S
C579 C581 1.327 . S
C579 H602 0.950 . S
C580 C579 1.349 . S
C580 C592 1.349 . S
C581 C579 1.327 . S
C581 C597 1.429 . S
C581 H603 0.950 . S
C582 H578 0.949 . S
C582 C590 1.574 . S
C582 C598 1.368 . S
H583 C591 0.950 . S
H584 C589 0.950 1_556 S
H585 C590 0.949 1_554 S
H586 C592 0.950 . S
H587 C593 0.950 . S
H588 C594 0.949 . S
C589 H584 0.950 1_554 S
C589 C591 1.327 . S
C589 C595 1.429 . S
C590 C582 1.574 . S
C590 H585 0.949 1_556 S
C590 C596 1.368 . S
C591 C575 1.349 . S
C591 H583 0.950 . S
C591 C589 1.327 . S
C592 C580 1.349 . S
C592 H586 0.950 . S
C592 C593 1.327 . S
C593 H587 0.950 . S
C593 C592 1.327 . S
C593 C597 1.429 . S
C594 C577 1.574 . S
C594 H588 0.949 . S
C594 C598 1.368 . S
C595 C576 1.429 . S
C595 C589 1.429 . S
C595 C596 1.523 1_554 S
C596 C577 1.368 . S
C596 C590 1.368 . S
C596 C595 1.523 1_556 S
C597 C581 1.429 . S
C597 C593 1.429 . S
C597 C598 1.523 . S
C598 C582 1.368 . S
C598 C594 1.368 . S
C598 C597 1.523 . S
H599 C574 0.950 . S
H600 C576 0.950 . S
H601 C577 0.949 . S
H602 C579 0.950 . S
H603 C581 0.950 . S
C604 C605 1.349 . S
C604 C606 1.327 . S
C604 H629 0.950 . S
C605 C604 1.349 . S
C605 C621 1.349 . S
C606 C604 1.327 . S
C606 C625 1.429 . S
C606 H630 0.950 . S
C607 C624 1.574 . S
C607 C626 1.368 . S
C607 H631 0.949 . S
H608 C612 0.949 . S
C609 C610 1.349 . S
C609 C611 1.327 . S
C609 H632 0.950 . S
C610 C609 1.349 . S
C610 C622 1.349 . S
C611 C609 1.327 . S
C611 C627 1.429 . S
C611 H633 0.950 . S
C612 H608 0.949 . S
C612 C620 1.574 . S
C612 C628 1.368 . S
H613 C621 0.950 . S
H614 C619 0.950 1_556 S
H615 C620 0.949 1_554 S
H616 C622 0.950 . S
H617 C623 0.950 . S
H618 C624 0.949 . S
C619 H614 0.950 1_554 S
C619 C621 1.327 . S
C619 C625 1.429 . S
C620 C612 1.574 . S
C620 H615 0.949 1_556 S
C620 C626 1.368 . S
C621 C605 1.349 . S
C621 H613 0.950 . S
C621 C619 1.327 . S
C622 C610 1.349 . S
C622 H616 0.950 . S
C622 C623 1.327 . S
C623 H617 0.950 . S
C623 C622 1.327 . S
C623 C627 1.429 . S
C624 C607 1.574 . S
C624 H618 0.949 . S
C624 C628 1.368 . S
C625 C606 1.429 . S
C625 C619 1.429 . S
C625 C626 1.523 1_554 S
C626 C607 1.368 . S
C626 C620 1.368 . S
C626 C625 1.523 1_556 S
C627 C611 1.429 . S
C627 C623 1.429 . S
C627 C628 1.523 . S
C628 C612 1.368 . S
C628 C624 1.368 . S
C628 C627 1.523 . S
H629 C604 0.950 . S
H630 C606 0.950 . S
H631 C607 0.949 . S
H632 C609 0.950 . S
H633 C611 0.950 . S
C634 C635 1.349 . S
C634 C636 1.327 . S
C634 H659 0.950 . S
C635 C634 1.349 . S
C635 C651 1.349 . S
C636 C634 1.327 . S
C636 C655 1.429 . S
C636 H660 0.950 . S
C637 C654 1.574 . S
C637 C656 1.368 . S
C637 H661 0.949 . S
H638 C642 0.949 . S
C639 C640 1.349 . S
C639 C641 1.327 . S
C639 H662 0.950 . S
C640 C639 1.349 . S
C640 C652 1.349 . S
C641 C639 1.327 . S
C641 C657 1.429 . S
C641 H663 0.950 . S
C642 H638 0.949 . S
C642 C650 1.574 1_556 S
C642 C658 1.368 . S
H643 C651 0.950 . S
H644 C649 0.950 1_556 S
H645 C650 0.949 . S
H646 C652 0.950 . S
H647 C653 0.950 . S
H648 C654 0.949 . S
C649 H644 0.950 1_554 S
C649 C651 1.327 . S
C649 C655 1.429 . S
C650 C642 1.574 1_554 S
C650 H645 0.949 . S
C650 C656 1.368 1_554 S
C651 C635 1.349 . S
C651 H643 0.950 . S
C651 C649 1.327 . S
C652 C640 1.349 . S
C652 H646 0.950 . S
C652 C653 1.327 . S
C653 H647 0.950 . S
C653 C652 1.327 . S
C653 C657 1.429 . S
C654 C637 1.574 . S
C654 H648 0.949 . S
C654 C658 1.368 . S
C655 C636 1.429 . S
C655 C649 1.429 . S
C655 C656 1.523 1_554 S
C656 C637 1.368 . S
C656 C650 1.368 1_556 S
C656 C655 1.523 1_556 S
C657 C641 1.429 . S
C657 C653 1.429 . S
C657 C658 1.523 . S
C658 C642 1.368 . S
C658 C654 1.368 . S
C658 C657 1.523 . S
H659 C634 0.950 . S
H660 C636 0.950 . S
H661 C637 0.949 . S
H662 C639 0.950 . S
H663 C641 0.950 . S
C664 C665 1.349 . S
C664 C666 1.327 . S
C664 H689 0.950 . S
C665 C664 1.349 . S
C665 C681 1.349 . S
C666 C664 1.327 . S
C666 C685 1.429 . S
C666 H690 0.950 . S
C667 C684 1.574 . S
C667 C686 1.368 . S
C667 H691 0.949 . S
H668 C672 0.949 . S
C669 C670 1.349 1_655 S
C669 C671 1.310 1_655 S
C669 H692 0.950 . S
C670 C669 1.349 1_455 S
C670 C682 1.349 . S
C671 C669 1.310 1_455 S
C671 C687 1.482 . S
C671 H693 0.914 1_455 S
C672 H668 0.949 . S
C672 C680 1.574 . S
C672 C688 1.368 . S
H673 C681 0.950 . S
H674 C679 0.950 . S
H675 C680 0.949 . S
H676 C682 0.950 . S
H677 C683 0.950 . S
H678 C684 1.003 . S
C679 H674 0.950 . S
C679 C681 1.327 . S
C679 C685 1.429 . S
C680 C672 1.574 . S
C680 H675 0.949 . S
C680 C686 1.368 . S
C681 C665 1.349 . S
C681 H673 0.950 . S
C681 C679 1.327 . S
C682 C670 1.349 . S
C682 H676 0.950 . S
C682 C683 1.327 . S
C683 H677 0.950 . S
C683 C682 1.327 . S
C683 C687 1.429 . S
C684 C667 1.574 . S
C684 H678 1.003 . S
C684 C688 1.368 . S
C685 C666 1.429 . S
C685 C679 1.429 . S
C685 C686 1.523 . S
C686 C667 1.368 . S
C686 C680 1.368 . S
C686 C685 1.523 . S
C687 C671 1.482 . S
C687 C683 1.429 . S
C687 C688 1.523 . S
C688 C672 1.368 . S
C688 C684 1.368 . S
C688 C687 1.523 . S
H689 C664 0.950 . S
H690 C666 0.950 . S
H691 C667 0.949 . S
H692 C669 0.950 . S
H693 C671 0.914 1_655 S
C694 C695 1.349 . S
C694 C696 1.327 . S
C694 H719 0.950 . S
C695 C694 1.349 . S
C695 C711 1.349 . S
C696 C694 1.327 . S
C696 C715 1.429 . S
C696 H720 0.950 . S
C697 C714 1.574 . S
C697 C716 1.368 . S
C697 H721 0.949 . S
H698 C702 0.949 . S
C699 C700 1.332 1_565 S
C699 C701 1.316 1_565 S
C699 H722 0.979 . S
C700 C699 1.332 1_545 S
C700 C712 1.349 . S
C701 C699 1.316 1_545 S
C701 C717 1.429 . S
C701 H723 0.950 1_545 S
C702 H698 0.949 . S
C702 C710 1.574 . S
C702 C718 1.368 . S
H703 C711 0.950 . S
H704 C709 0.950 . S
H705 C710 0.949 . S
H706 C712 0.950 . S
H707 C713 0.950 . S
H708 C714 0.949 . S
C709 H704 0.950 . S
C709 C711 1.327 . S
C709 C715 1.429 . S
C710 C702 1.574 . S
C710 H705 0.949 . S
C710 C716 1.368 . S
C711 C695 1.349 . S
C711 H703 0.950 . S
C711 C709 1.327 . S
C712 C700 1.349 . S
C712 H706 0.950 . S
C712 C713 1.327 . S
C713 H707 0.950 . S
C713 C712 1.327 . S
C713 C717 1.429 . S
C714 C697 1.574 . S
C714 H708 0.949 . S
C714 C718 1.368 . S
C715 C696 1.429 . S
C715 C709 1.429 . S
C715 C716 1.523 . S
C716 C697 1.368 . S
C716 C710 1.368 . S
C716 C715 1.523 . S
C717 C701 1.429 . S
C717 C713 1.429 . S
C717 C718 1.523 . S
C718 C702 1.368 . S
C718 C714 1.368 . S
C718 C717 1.523 . S
H719 C694 0.950 . S
H720 C696 0.950 . S
H721 C697 0.949 . S
H722 C699 0.979 . S
H723 C701 0.950 1_565 S
C724 C725 1.349 . S
C724 C726 1.327 . S
C724 H749 0.950 . S
C725 C724 1.349 . S
C725 C741 1.349 . S
C726 C724 1.327 . S
C726 C745 1.429 . S
C726 H750 0.950 . S
C727 C744 1.574 . S
C727 C746 1.368 . S
C727 H751 0.949 . S
H728 C732 0.949 . S
C729 C730 1.349 . S
C729 C731 1.327 . S
C729 H752 0.950 . S
C730 C729 1.349 . S
C730 C742 1.349 . S
C731 C729 1.327 . S
C731 C747 1.429 . S
C731 H753 0.950 . S
C732 H728 0.949 . S
C732 C740 1.574 . S
C732 C748 1.368 . S
H733 C741 0.950 . S
H734 C739 0.950 . S
H735 C740 0.949 . S
H736 C742 0.950 . S
H737 C743 0.950 . S
H738 C744 0.949 . S
C739 H734 0.950 . S
C739 C741 1.327 . S
C739 C745 1.429 . S
C740 C732 1.574 . S
C740 H735 0.949 . S
C740 C746 1.368 . S
C741 C725 1.349 . S
C741 H733 0.950 . S
C741 C739 1.327 . S
C742 C730 1.349 . S
C742 H736 0.950 . S
C742 C743 1.327 . S
C743 H737 0.950 . S
C743 C742 1.327 . S
C743 C747 1.429 . S
C744 C727 1.574 . S
C744 H738 0.949 . S
C744 C748 1.368 . S
C745 C726 1.429 . S
C745 C739 1.429 . S
C745 C746 1.523 . S
C746 C727 1.368 . S
C746 C740 1.368 . S
C746 C745 1.523 . S
C747 C731 1.429 . S
C747 C743 1.429 . S
C747 C748 1.523 . S
C748 C732 1.368 . S
C748 C744 1.368 . S
C748 C747 1.523 . S
H749 C724 0.950 . S
H750 C726 0.950 . S
H751 C727 0.949 . S
H752 C729 0.950 . S
H753 C731 0.950 . S
C754 C755 1.349 . S
C754 C756 1.327 . S
C754 H779 0.950 . S
C755 C754 1.349 . S
C755 C771 1.349 . S
C756 C754 1.327 . S
C756 C775 1.429 . S
C756 H780 0.950 . S
C757 C774 1.574 . S
C757 C776 1.368 . S
C757 H781 0.949 . S
H758 C762 0.949 . S
C759 C760 1.349 . S
C759 C761 1.327 . S
C759 H782 0.950 . S
C760 C759 1.349 . S
C760 C772 1.349 . S
C761 C759 1.327 . S
C761 C777 1.429 . S
C761 H783 0.950 . S
C762 H758 0.949 . S
C762 C770 1.574 . S
C762 C778 1.368 . S
H763 C771 0.950 . S
H764 C769 0.950 . S
H765 C770 0.949 . S
H766 C772 0.950 . S
H767 C773 0.950 . S
H768 C774 0.949 . S
C769 H764 0.950 . S
C769 C771 1.327 . S
C769 C775 1.429 . S
C770 C762 1.574 . S
C770 H765 0.949 . S
C770 C776 1.368 . S
C771 C755 1.349 . S
C771 H763 0.950 . S
C771 C769 1.327 . S
C772 C760 1.349 . S
C772 H766 0.950 . S
C772 C773 1.327 . S
C773 H767 0.950 . S
C773 C772 1.327 . S
C773 C777 1.429 . S
C774 C757 1.574 . S
C774 H768 0.949 . S
C774 C778 1.368 . S
C775 C756 1.429 . S
C775 C769 1.429 . S
C775 C776 1.523 . S
C776 C757 1.368 . S
C776 C770 1.368 . S
C776 C775 1.523 . S
C777 C761 1.429 . S
C777 C773 1.429 . S
C777 C778 1.523 . S
C778 C762 1.368 . S
C778 C774 1.368 . S
C778 C777 1.523 . S
H779 C754 0.950 . S
H780 C756 0.950 . S
H781 C757 0.949 . S
H782 C759 0.950 . S
H783 C761 0.950 . S
C784 C785 1.349 . S
C784 C786 1.327 . S
C784 H809 0.950 . S
C785 C784 1.349 . S
C785 C801 1.349 . S
C786 C784 1.327 . S
C786 C805 1.429 . S
C786 H810 0.950 . S
C787 C804 1.574 . S
C787 C806 1.368 1_556 S
C787 H811 0.949 . S
H788 C792 0.949 . S
C789 C790 1.349 . S
C789 C791 1.327 1_455 S
C789 H812 0.950 . S
C790 C789 1.349 . S
C790 C802 1.352 . S
C791 C789 1.327 1_655 S
C791 C807 1.429 . S
C791 H813 0.950 . S
C792 H788 0.949 . S
C792 C800 1.574 . S
C792 C808 1.368 1_554 S
H793 C801 0.950 . S
H794 C799 0.950 1_556 S
H795 C800 0.949 . S
H796 C802 0.952 . S
H797 C803 0.950 1_554 S
H798 C804 0.949 . S
C799 H794 0.950 1_554 S
C799 C801 1.327 . S
C799 C805 1.429 . S
C800 C792 1.574 . S
C800 H795 0.949 . S
C800 C806 1.368 . S
C801 C785 1.349 . S
C801 H793 0.950 . S
C801 C799 1.327 . S
C802 C790 1.352 . S
C802 H796 0.952 . S
C802 C803 1.322 1_455 S
C803 H797 0.950 1_556 S
C803 C802 1.322 1_655 S
C803 C807 1.429 . S
C804 C787 1.574 . S
C804 H798 0.949 . S
C804 C808 1.368 . S
C805 C786 1.429 . S
C805 C799 1.429 . S
C805 C806 1.523 . S
C806 C787 1.368 1_554 S
C806 C800 1.368 . S
C806 C805 1.523 . S
C807 C791 1.429 . S
C807 C803 1.429 . S
C807 C808 1.523 . S
C808 C792 1.368 1_556 S
C808 C804 1.368 . S
C808 C807 1.523 . S
H809 C784 0.950 . S
H810 C786 0.950 . S
H811 C787 0.949 . S
H812 C789 0.950 . S
H813 C791 0.950 . S
C814 C815 1.349 . S
C814 C816 1.327 . S
C814 H839 0.950 . S
C815 C814 1.349 . S
C815 C831 1.349 . S
C816 C814 1.327 . S
C816 C835 1.429 . S
C816 H840 0.950 . S
C817 C834 1.574 1_564 S
C817 C836 1.368 . S
C817 H841 0.949 1_565 S
H818 C822 0.949 . S
C819 C820 1.349 . S
C819 C821 1.327 . S
C819 H842 0.950 . S
C820 C819 1.349 . S
C820 C832 1.349 1_545 S
C821 C819 1.327 . S
C821 C837 1.429 1_545 S
C821 H843 0.950 . S
C822 H818 0.949 . S
C822 C830 1.574 1_556 S
C822 C838 1.368 . S
H823 C831 0.950 . S
H824 C829 0.950 . S
H825 C830 0.949 . S
H826 C832 0.950 . S
H827 C833 0.950 . S
H828 C834 0.949 . S
C829 H824 0.950 . S
C829 C831 1.327 . S
C829 C835 1.429 . S
C830 C822 1.574 1_554 S
C830 H825 0.949 . S
C830 C836 1.368 . S
C831 C815 1.349 . S
C831 H823 0.950 . S
C831 C829 1.327 . S
C832 C820 1.349 1_565 S
C832 H826 0.950 . S
C832 C833 1.327 . S
C833 H827 0.950 . S
C833 C832 1.327 . S
C833 C837 1.429 . S
C834 C817 1.574 1_546 S
C834 H828 0.949 . S
C834 C838 1.368 1_545 S
C835 C816 1.429 . S
C835 C829 1.429 . S
C835 C836 1.523 . S
C836 C817 1.368 . S
C836 C830 1.368 . S
C836 C835 1.523 . S
C837 C821 1.429 1_565 S
C837 C833 1.429 . S
C837 C838 1.523 . S
C838 C822 1.368 . S
C838 C834 1.368 1_565 S
C838 C837 1.523 . S
H839 C814 0.950 . S
H840 C816 0.950 . S
H841 C817 0.949 1_545 S
H842 C819 0.950 . S
H843 C821 0.950 . S
C844 C845 1.349 . S
C844 C846 1.327 . S
C844 H869 0.950 . S
C845 C844 1.349 . S
C845 C861 1.349 . S
C846 C844 1.327 . S
C846 C865 1.429 . S
C846 H870 0.950 . S
C847 C864 1.574 . S
C847 C866 1.368 . S
C847 H871 0.949 . S
H848 C852 0.949 . S
C849 C850 1.349 . S
C849 C851 1.327 . S
C849 H872 0.950 . S
C850 C849 1.349 . S
C850 C862 1.349 . S
C851 C849 1.327 . S
C851 C867 1.429 . S
C851 H873 0.950 . S
C852 H848 0.949 . S
C852 C860 1.574 . S
C852 C868 1.368 . S
H853 C861 0.950 . S
H854 C859 0.950 . S
H855 C860 0.949 . S
H856 C862 0.950 . S
H857 C863 0.950 . S
H858 C864 0.949 . S
C859 H854 0.950 . S
C859 C861 1.327 . S
C859 C865 1.429 . S
C860 C852 1.574 . S
C860 H855 0.949 . S
C860 C866 1.368 1_556 S
C861 C845 1.349 . S
C861 H853 0.950 . S
C861 C859 1.327 . S
C862 C850 1.349 . S
C862 H856 0.950 . S
C862 C863 1.327 . S
C863 H857 0.950 . S
C863 C862 1.327 . S
C863 C867 1.429 . S
C864 C847 1.574 . S
C864 H858 0.949 . S
C864 C868 1.368 1_554 S
C865 C846 1.429 . S
C865 C859 1.429 . S
C865 C866 1.523 . S
C866 C847 1.368 . S
C866 C860 1.368 1_554 S
C866 C865 1.523 . S
C867 C851 1.429 . S
C867 C863 1.429 . S
C867 C868 1.523 . S
C868 C852 1.368 . S
C868 C864 1.368 1_556 S
C868 C867 1.523 . S
H869 C844 0.950 . S
H870 C846 0.950 . S
H871 C847 0.949 . S
H872 C849 0.950 . S
H873 C851 0.950 . S
C874 C875 1.349 . S
C874 C876 1.327 . S
C874 H899 0.950 . S
C875 C874 1.349 . S
C875 C891 1.349 . S
C876 C874 1.327 . S
C876 C895 1.429 . S
C876 H900 0.950 . S
C877 C894 1.574 . S
C877 C896 1.368 . S
C877 H901 0.949 . S
H878 C882 0.949 . S
C879 C880 1.349 . S
C879 C881 1.327 . S
C879 H902 0.950 . S
C880 C879 1.349 . S
C880 C892 1.349 . S
C881 C879 1.327 . S
C881 C897 1.429 . S
C881 H903 0.948 1_556 S
C882 H878 0.949 . S
C882 C890 1.574 . S
C882 C898 1.368 . S
H883 C891 0.950 . S
H884 C889 0.950 . S
H885 C890 0.949 . S
H886 C892 0.950 . S
H887 C893 0.950 . S
H888 C894 0.949 . S
C889 H884 0.950 . S
C889 C891 1.327 . S
C889 C895 1.429 . S
C890 C882 1.574 . S
C890 H885 0.949 . S
C890 C896 1.368 1_556 S
C891 C875 1.349 . S
C891 H883 0.950 . S
C891 C889 1.327 . S
C892 C880 1.349 . S
C892 H886 0.950 . S
C892 C893 1.327 . S
C893 H887 0.950 . S
C893 C892 1.327 . S
C893 C897 1.429 . S
C894 C877 1.574 . S
C894 H888 0.949 . S
C894 C898 1.368 1_554 S
C895 C876 1.429 . S
C895 C889 1.429 . S
C895 C896 1.523 . S
C896 C877 1.368 . S
C896 C890 1.368 1_554 S
C896 C895 1.523 . S
C897 C881 1.429 . S
C897 C893 1.429 . S
C897 C898 1.523 . S
C898 C882 1.368 . S
C898 C894 1.368 1_556 S
C898 C897 1.523 . S
H899 C874 0.950 . S
H900 C876 0.950 . S
H901 C877 0.949 . S
H902 C879 0.950 . S
H903 C881 0.948 1_554 S
C904 C905 1.349 . S
C904 C906 1.327 . S
C904 H929 0.950 . S
C905 C904 1.349 . S
C905 C921 1.349 . S
C906 C904 1.327 . S
C906 C925 1.429 . S
C906 H930 0.950 . S
C907 C924 1.574 . S
C907 C926 1.368 . S
C907 H931 0.949 . S
H908 C912 0.949 . S
C909 C910 1.349 . S
C909 C911 1.327 . S
C909 H932 0.950 . S
C910 C909 1.349 . S
C910 C922 1.349 . S
C911 C909 1.327 . S
C911 C927 1.429 . S
C911 H933 0.950 . S
C912 H908 0.949 . S
C912 C920 1.574 . S
C912 C928 1.368 . S
H913 C921 0.950 . S
H914 C919 0.950 . S
H915 C920 0.949 . S
H916 C922 0.950 . S
H917 C923 0.950 . S
H918 C924 0.949 . S
C919 H914 0.950 . S
C919 C921 1.327 . S
C919 C925 1.429 . S
C920 C912 1.574 . S
C920 H915 0.949 . S
C920 C926 1.368 . S
C921 C905 1.349 . S
C921 H913 0.950 . S
C921 C919 1.327 . S
C922 C910 1.349 . S
C922 H916 0.950 . S
C922 C923 1.327 . S
C923 H917 0.950 . S
C923 C922 1.327 . S
C923 C927 1.429 . S
C924 C907 1.574 . S
C924 H918 0.949 . S
C924 C928 1.368 . S
C925 C906 1.429 . S
C925 C919 1.429 . S
C925 C926 1.523 . S
C926 C907 1.368 . S
C926 C920 1.368 . S
C926 C925 1.523 . S
C927 C911 1.429 . S
C927 C923 1.429 . S
C927 C928 1.523 . S
C928 C912 1.368 . S
C928 C924 1.368 . S
C928 C927 1.523 . S
H929 C904 0.950 . S
H930 C906 0.950 . S
H931 C907 0.949 . S
H932 C909 0.950 . S
H933 C911 0.950 . S
C934 C935 1.349 . S
C934 C936 1.327 . S
C934 H959 0.950 . S
C935 C934 1.349 . S
C935 C951 1.349 . S
C936 C934 1.327 . S
C936 C955 1.429 . S
C936 H960 0.950 . S
C937 C954 1.574 . S
C937 C956 1.368 . S
C937 H961 0.949 . S
H938 C942 0.949 . S
C939 C940 1.349 . S
C939 C941 1.327 . S
C939 H962 0.950 . S
C940 C939 1.349 . S
C940 C952 1.349 . S
C941 C939 1.327 . S
C941 C957 1.429 . S
C941 H963 0.950 . S
C942 H938 0.949 . S
C942 C950 1.574 . S
C942 C958 1.368 . S
H943 C951 0.950 . S
H944 C949 0.950 . S
H945 C950 0.949 . S
H946 C952 0.950 1_565 S
H947 C953 0.950 . S
H948 C954 0.949 . S
C949 H944 0.950 . S
C949 C951 1.327 . S
C949 C955 1.429 . S
C950 C942 1.574 . S
C950 H945 0.949 . S
C950 C956 1.368 . S
C951 C935 1.349 . S
C951 H943 0.950 . S
C951 C949 1.327 . S
C952 C940 1.349 . S
C952 H946 0.950 1_545 S
C952 C953 1.327 . S
C953 H947 0.950 . S
C953 C952 1.327 . S
C953 C957 1.429 . S
C954 C937 1.574 . S
C954 H948 0.949 . S
C954 C958 1.368 . S
C955 C936 1.429 . S
C955 C949 1.429 . S
C955 C956 1.523 . S
C956 C937 1.368 . S
C956 C950 1.368 . S
C956 C955 1.523 . S
C957 C941 1.429 . S
C957 C953 1.429 . S
C957 C958 1.523 . S
C958 C942 1.368 . S
C958 C954 1.368 . S
C958 C957 1.523 . S
H959 C934 0.950 . S
H960 C936 0.950 . S
H961 C937 0.949 . S
H962 C939 0.950 . S
H963 C941 0.950 . S
C964 C965 1.349 . S
C964 C966 1.327 . S
C964 H989 0.950 . S
C965 C964 1.349 . S
C965 C981 1.349 . S
C966 C964 1.327 . S
C966 C985 1.429 . S
C966 H990 0.950 . S
C967 C984 1.574 . S
C967 C986 1.368 . S
C967 H991 0.949 . S
H968 C972 0.949 . S
C969 C970 1.349 . S
C969 C971 1.327 . S
C969 H992 0.950 . S
C970 C969 1.349 . S
C970 C982 1.349 . S
C971 C969 1.327 . S
C971 C987 1.429 . S
C971 H993 0.950 . S
C972 H968 0.949 . S
C972 C980 1.574 . S
C972 C988 1.368 . S
H973 C981 0.950 . S
H974 C979 0.950 . S
H975 C980 0.949 . S
H976 C982 0.950 . S
H977 C983 0.950 . S
H978 C984 0.949 . S
C979 H974 0.950 . S
C979 C981 1.327 . S
C979 C985 1.429 . S
C980 C972 1.574 . S
C980 H975 0.949 . S
C980 C986 1.368 . S
C981 C965 1.349 . S
C981 H973 0.950 . S
C981 C979 1.327 . S
C982 C970 1.349 . S
C982 H976 0.950 . S
C982 C983 1.327 . S
C983 H977 0.950 . S
C983 C982 1.327 . S
C983 C987 1.429 . S
C984 C967 1.574 . S
C984 H978 0.949 . S
C984 C988 1.368 . S
C985 C966 1.429 . S
C985 C979 1.429 . S
C985 C986 1.523 . S
C986 C967 1.368 . S
C986 C980 1.368 . S
C986 C985 1.523 . S
C987 C971 1.429 . S
C987 C983 1.429 . S
C987 C988 1.523 . S
C988 C972 1.368 . S
C988 C984 1.368 . S
C988 C987 1.523 . S
H989 C964 0.950 . S
H990 C966 0.950 . S
H991 C967 0.949 . S
H992 C969 0.950 . S
H993 C971 0.950 . S
C994 C995 1.349 . S
C994 C996 1.327 . S
C994 H1019 0.950 . S
C995 C994 1.349 . S
C995 C1011 1.349 . S
C996 C994 1.327 . S
C996 C1015 1.429 . S
C996 H1020 0.950 . S
C997 C1014 1.574 . S
C997 C1016 1.368 . S
C997 H1021 0.949 . S
H998 C1002 0.949 . S
C999 C1000 1.349 . S
C999 C1001 1.327 . S
C999 H1022 0.950 . S
C1000 C999 1.349 . S
C1000 C1012 1.349 . S
C1001 C999 1.327 . S
C1001 C1017 1.429 . S
C1001 H1023 0.950 . S
C1002 H998 0.949 . S
C1002 C1010 1.574 . S
C1002 C1018 1.368 . S
H1003 C1011 0.950 . S
H1004 C1009 0.950 . S
H1005 C1010 0.949 . S
H1006 C1012 0.950 . S
H1007 C1013 0.950 . S
H1008 C1014 0.949 . S
C1009 H1004 0.950 . S
C1009 C1011 1.327 . S
C1009 C1015 1.429 . S
C1010 C1002 1.574 . S
C1010 H1005 0.949 . S
C1010 C1016 1.368 . S
C1011 C995 1.349 . S
C1011 H1003 0.950 . S
C1011 C1009 1.327 . S
C1012 C1000 1.349 . S
C1012 H1006 0.950 . S
C1012 C1013 1.327 . S
C1013 H1007 0.950 . S
C1013 C1012 1.327 . S
C1013 C1017 1.429 . S
C1014 C997 1.574 . S
C1014 H1008 0.949 . S
C1014 C1018 1.368 . S
C1015 C996 1.429 . S
C1015 C1009 1.429 . S
C1015 C1016 1.523 . S
C1016 C997 1.368 . S
C1016 C1010 1.368 . S
C1016 C1015 1.523 . S
C1017 C1001 1.429 . S
C1017 C1013 1.429 . S
C1017 C1018 1.523 . S
C1018 C1002 1.368 . S
C1018 C1014 1.368 . S
C1018 C1017 1.523 . S
H1019 C994 0.950 . S
H1020 C996 0.950 . S
H1021 C997 0.949 . S
H1022 C999 0.950 . S
H1023 C1001 0.950 . S
C1024 C1025 1.349 . S
C1024 C1026 1.327 . S
C1024 H1049 0.950 . S
C1025 C1024 1.349 . S
C1025 C1041 1.349 . S
C1026 C1024 1.327 . S
C1026 C1045 1.429 . S
C1026 H1050 0.950 . S
C1027 C1044 1.574 . S
C1027 C1046 1.368 . S
C1027 H1051 0.949 . S
H1028 C1032 0.949 . S
C1029 C1030 1.349 . S
C1029 C1031 1.327 . S
C1029 H1052 0.950 . S
C1030 C1029 1.349 . S
C1030 C1042 1.349 . S
C1031 C1029 1.327 . S
C1031 C1047 1.429 . S
C1031 H1053 0.950 . S
C1032 H1028 0.949 . S
C1032 C1040 1.574 . S
C1032 C1048 1.368 . S
H1033 C1041 0.950 . S
H1034 C1039 0.950 . S
H1035 C1040 0.949 . S
H1036 C1042 0.950 1_455 S
H1037 C1043 0.950 1_455 S
H1038 C1044 0.949 . S
C1039 H1034 0.950 . S
C1039 C1041 1.327 . S
C1039 C1045 1.429 . S
C1040 C1032 1.574 . S
C1040 H1035 0.949 . S
C1040 C1046 1.368 . S
C1041 C1025 1.349 . S
C1041 H1033 0.950 . S
C1041 C1039 1.327 . S
C1042 C1030 1.349 . S
C1042 H1036 0.950 1_655 S
C1042 C1043 1.327 . S
C1043 H1037 0.950 1_655 S
C1043 C1042 1.327 . S
C1043 C1047 1.429 . S
C1044 C1027 1.574 . S
C1044 H1038 0.949 . S
C1044 C1048 1.368 . S
C1045 C1026 1.429 . S
C1045 C1039 1.429 . S
C1045 C1046 1.523 . S
C1046 C1027 1.368 . S
C1046 C1040 1.368 . S
C1046 C1045 1.523 . S
C1047 C1031 1.429 . S
C1047 C1043 1.429 . S
C1047 C1048 1.523 . S
C1048 C1032 1.368 . S
C1048 C1044 1.368 . S
C1048 C1047 1.523 . S
H1049 C1024 0.950 . S
H1050 C1026 0.950 . S
H1051 C1027 0.949 . S
H1052 C1029 0.950 . S
H1053 C1031 0.950 . S
C1054 C1055 1.349 . S
C1054 C1056 1.327 . S
C1054 H1079 0.950 . S
C1055 C1054 1.349 . S
C1055 C1071 1.349 . S
C1056 C1054 1.327 . S
C1056 C1075 1.429 . S
C1056 H1080 0.950 . S
C1057 C1074 1.574 . S
C1057 C1076 1.368 . S
C1057 H1081 0.949 . S
H1058 C1062 0.949 . S
C1059 C1060 1.349 . S
C1059 C1061 1.327 . S
C1059 H1082 0.950 . S
C1060 C1059 1.349 . S
C1060 C1072 1.349 . S
C1061 C1059 1.327 . S
C1061 C1077 1.429 . S
C1061 H1083 0.950 . S
C1062 H1058 0.949 . S
C1062 C1070 1.574 . S
C1062 C1078 1.368 . S
H1063 C1071 0.950 . S
H1064 C1069 0.950 . S
H1065 C1070 0.949 . S
H1066 C1072 0.950 . S
H1067 C1073 0.950 . S
H1068 C1074 0.949 . S
C1069 H1064 0.950 . S
C1069 C1071 1.327 . S
C1069 C1075 1.429 . S
C1070 C1062 1.574 . S
C1070 H1065 0.949 . S
C1070 C1076 1.368 . S
C1071 C1055 1.349 . S
C1071 H1063 0.950 . S
C1071 C1069 1.327 . S
C1072 C1060 1.349 . S
C1072 H1066 0.950 . S
C1072 C1073 1.327 . S
C1073 H1067 0.950 . S
C1073 C1072 1.327 . S
C1073 C1077 1.429 . S
C1074 C1057 1.574 . S
C1074 H1068 0.949 . S
C1074 C1078 1.368 . S
C1075 C1056 1.429 . S
C1075 C1069 1.429 . S
C1075 C1076 1.523 . S
C1076 C1057 1.368 . S
C1076 C1070 1.368 . S
C1076 C1075 1.523 . S
C1077 C1061 1.429 . S
C1077 C1073 1.429 . S
C1077 C1078 1.523 . S
C1078 C1062 1.368 . S
C1078 C1074 1.368 . S
C1078 C1077 1.523 . S
H1079 C1054 0.950 . S
H1080 C1056 0.950 . S
H1081 C1057 0.949 . S
H1082 C1059 0.950 . S
H1083 C1061 0.950 . S
C1084 C1085 1.349 . S
C1084 C1086 1.327 . S
C1084 H1109 0.950 . S
C1085 C1084 1.349 . S
C1085 C1101 1.349 . S
C1086 C1084 1.327 . S
C1086 C1105 1.429 . S
C1086 H1110 0.950 . S
C1087 C1104 1.574 . S
C1087 C1106 1.368 . S
C1087 H1111 0.949 . S
H1088 C1092 0.949 . S
C1089 C1090 1.349 . S
C1089 C1091 1.327 . S
C1089 H1112 0.950 . S
C1090 C1089 1.349 . S
C1090 C1102 1.349 . S
C1091 C1089 1.327 . S
C1091 C1107 1.429 . S
C1091 H1113 0.950 . S
C1092 H1088 0.949 . S
C1092 C1100 1.574 . S
C1092 C1108 1.368 . S
H1093 C1101 0.950 . S
H1094 C1099 0.950 . S
H1095 C1100 0.949 . S
H1096 C1102 0.950 . S
H1097 C1103 0.950 . S
H1098 C1104 0.949 . S
C1099 H1094 0.950 . S
C1099 C1101 1.327 . S
C1099 C1105 1.429 . S
C1100 C1092 1.574 . S
C1100 H1095 0.949 . S
C1100 C1106 1.368 . S
C1101 C1085 1.349 . S
C1101 H1093 0.950 . S
C1101 C1099 1.327 . S
C1102 C1090 1.349 . S
C1102 H1096 0.950 . S
C1102 C1103 1.327 . S
C1103 H1097 0.950 . S
C1103 C1102 1.327 . S
C1103 C1107 1.429 . S
C1104 C1087 1.574 . S
C1104 H1098 0.949 . S
C1104 C1108 1.368 . S
C1105 C1086 1.429 . S
C1105 C1099 1.429 . S
C1105 C1106 1.523 . S
C1106 C1087 1.368 . S
C1106 C1100 1.368 . S
C1106 C1105 1.523 . S
C1107 C1091 1.429 . S
C1107 C1103 1.429 . S
C1107 C1108 1.523 . S
C1108 C1092 1.368 . S
C1108 C1104 1.368 . S
C1108 C1107 1.523 . S
H1109 C1084 0.950 . S
H1110 C1086 0.950 . S
H1111 C1087 0.949 . S
H1112 C1089 0.950 . S
H1113 C1091 0.950 . S
C1114 C1115 1.349 . S
C1114 C1116 1.327 . S
C1114 H1139 0.950 . S
C1115 C1114 1.349 . S
C1115 C1131 1.349 . S
C1116 C1114 1.327 . S
C1116 C1135 1.429 . S
C1116 H1140 0.950 . S
C1117 C1134 1.574 . S
C1117 C1136 1.368 . S
C1117 H1141 0.949 . S
H1118 C1122 0.949 . S
C1119 C1120 1.349 . S
C1119 C1121 1.327 . S
C1119 H1142 0.950 . S
C1120 C1119 1.349 . S
C1120 C1132 1.349 . S
C1121 C1119 1.327 . S
C1121 C1137 1.429 . S
C1121 H1143 0.950 . S
C1122 H1118 0.949 . S
C1122 C1130 1.574 . S
C1122 C1138 1.368 . S
H1123 C1131 0.950 . S
H1124 C1129 0.950 . S
H1125 C1130 0.949 . S
H1126 C1132 0.950 . S
H1127 C1133 0.950 . S
H1128 C1134 0.949 . S
C1129 H1124 0.950 . S
C1129 C1131 1.327 . S
C1129 C1135 1.429 . S
C1130 C1122 1.574 . S
C1130 H1125 0.949 . S
C1130 C1136 1.368 . S
C1131 C1115 1.349 . S
C1131 H1123 0.950 . S
C1131 C1129 1.327 . S
C1132 C1120 1.349 . S
C1132 H1126 0.950 . S
C1132 C1133 1.327 . S
C1133 H1127 0.950 . S
C1133 C1132 1.327 . S
C1133 C1137 1.429 . S
C1134 C1117 1.574 . S
C1134 H1128 0.949 . S
C1134 C1138 1.368 . S
C1135 C1116 1.429 . S
C1135 C1129 1.429 . S
C1135 C1136 1.523 . S
C1136 C1117 1.368 . S
C1136 C1130 1.368 . S
C1136 C1135 1.523 . S
C1137 C1121 1.429 . S
C1137 C1133 1.429 . S
C1137 C1138 1.523 . S
C1138 C1122 1.368 . S
C1138 C1134 1.368 . S
C1138 C1137 1.523 . S
H1139 C1114 0.950 . S
H1140 C1116 0.950 . S
H1141 C1117 0.949 . S
H1142 C1119 0.950 . S
H1143 C1121 0.950 . S
C425 C76 1.800 . S
C430 C162 1.850 . S
C460 C246 1.881 . S
C455 C87 1.830 . S
C490 C312 1.898 . S
C485 C54 1.947 . S
C520 C396 1.871 . S
C515 C65 1.920 . S
C550 C151 1.849 1_565 S
C545 C32 1.808 . S
C575 C43 1.839 . S
C580 C235 1.881 . S
C605 C10 1.957 . S
C610 C323 1.899 . S
C635 C21 1.929 . S
C640 C407 1.871 . S
C670 C158 0.510 1_455 S
C665 C60 0.495 . S
C700 C242 0.563 . S
C695 C71 0.464 . S
C730 C314 0.507 . S
C725 C82 0.444 . S
C755 C49 0.470 . S
C760 C398 0.519 . S
C785 C16 0.506 . S
C790 C146 0.533 . S
C820 C230 0.517 . S
C815 C27 0.477 . S
C850 C326 0.507 . S
C845 C38 0.459 . S
C875 C5 0.484 . S
C880 C410 0.519 . S
C905 C59 1.956 . S
C910 C155 1.999 . S
C935 C70 1.917 . S
C940 C239 1.960 . S
C970 C319 1.942 . S
C965 C81 1.810 . S
C1000 C403 1.978 . S
C995 C48 1.844 . S
C1025 C15 1.944 . S
C1030 C144 1.999 . S
C1060 C228 1.956 1_565 S
C1055 C26 1.906 . S
C1090 C330 1.943 . S
C1085 C37 1.799 . S
C1115 C4 1.831 . S
C1120 C414 1.978 . S
