# Generated by pormake.
# Topology ptr, (4,4)-cn, num edge types: 1
# Building blocks:
#     Node 0, Type 0, BuildingBlock: NAHDIM_clean_sbu_0, # of connection points: 4
#     Node 1, Type 0, BuildingBlock: NAHDIM_clean_sbu_0, # of connection points: 4
#     Node 2, Type 0, BuildingBlock: NAHDIM_clean_sbu_0, # of connection points: 4
#     Node 3, Type 0, BuildingBlock: NAHDIM_clean_sbu_0, # of connection points: 4
#     Node 4, Type 0, BuildingBlock: NAHDIM_clean_sbu_0, # of connection points: 4
#     Node 5, Type 0, BuildingBlock: NAHDIM_clean_sbu_0, # of connection points: 4
#     Node 6, Type 0, BuildingBlock: NAHDIM_clean_sbu_0, # of connection points: 4
#     Node 7, Type 0, BuildingBlock: NAHDIM_clean_sbu_0, # of connection points: 4
#     Node 8, Type 0, BuildingBlock: NAHDIM_clean_sbu_0, # of connection points: 4
#     Node 9, Type 0, BuildingBlock: NAHDIM_clean_sbu_0, # of connection points: 4
#     Node 10, Type 0, BuildingBlock: NAHDIM_clean_sbu_0, # of connection points: 4
#     Node 11, Type 0, BuildingBlock: NAHDIM_clean_sbu_0, # of connection points: 4
#     Node 12, Type 0, BuildingBlock: NAHDIM_clean_sbu_0, # of connection points: 4
#     Node 13, Type 0, BuildingBlock: NAHDIM_clean_sbu_0, # of connection points: 4
#     Node 14, Type 0, BuildingBlock: NAHDIM_clean_sbu_0, # of connection points: 4
#     Node 15, Type 0, BuildingBlock: NAHDIM_clean_sbu_0, # of connection points: 4
#     Node 16, Type 0, BuildingBlock: NAHDIM_clean_sbu_0, # of connection points: 4
#     Node 17, Type 0, BuildingBlock: NAHDIM_clean_sbu_0, # of connection points: 4
#     Node 18, Type 1, BuildingBlock: NAHDIM_clean_linker_0, # of connection points: 4
#     Node 19, Type 1, BuildingBlock: NAHDIM_clean_linker_0, # of connection points: 4
#     Node 20, Type 1, BuildingBlock: NAHDIM_clean_linker_0, # of connection points: 4
#     Node 21, Type 1, BuildingBlock: NAHDIM_clean_linker_0, # of connection points: 4
#     Node 22, Type 1, BuildingBlock: NAHDIM_clean_linker_0, # of connection points: 4
#     Node 23, Type 1, BuildingBlock: NAHDIM_clean_linker_0, # of connection points: 4
#     Node 24, Type 1, BuildingBlock: NAHDIM_clean_linker_0, # of connection points: 4
#     Node 25, Type 1, BuildingBlock: NAHDIM_clean_linker_0, # of connection points: 4
#     Node 26, Type 1, BuildingBlock: NAHDIM_clean_linker_0, # of connection points: 4
#     Node 27, Type 1, BuildingBlock: NAHDIM_clean_linker_0, # of connection points: 4
#     Node 28, Type 1, BuildingBlock: NAHDIM_clean_linker_0, # of connection points: 4
#     Node 29, Type 1, BuildingBlock: NAHDIM_clean_linker_0, # of connection points: 4
#     Node 30, Type 1, BuildingBlock: NAHDIM_clean_linker_0, # of connection points: 4
#     Node 31, Type 1, BuildingBlock: NAHDIM_clean_linker_0, # of connection points: 4
#     Node 32, Type 1, BuildingBlock: NAHDIM_clean_linker_0, # of connection points: 4
#     Node 33, Type 1, BuildingBlock: NAHDIM_clean_linker_0, # of connection points: 4
#     Node 34, Type 1, BuildingBlock: NAHDIM_clean_linker_0, # of connection points: 4
#     Node 35, Type 1, BuildingBlock: NAHDIM_clean_linker_0, # of connection points: 4
#     Edge 36, Type (0, 1), BuildingBlock: XIVTED_clean_linker_0, # of connection points: 2
#     Edge 37, Type (0, 1), BuildingBlock: XIVTED_clean_linker_0, # of connection points: 2
#     Edge 38, Type (0, 1), BuildingBlock: XIVTED_clean_linker_0, # of connection points: 2
#     Edge 39, Type (0, 1), BuildingBlock: XIVTED_clean_linker_0, # of connection points: 2
#     Edge 40, Type (0, 1), BuildingBlock: XIVTED_clean_linker_0, # of connection points: 2
#     Edge 41, Type (0, 1), BuildingBlock: XIVTED_clean_linker_0, # of connection points: 2
#     Edge 42, Type (0, 1), BuildingBlock: XIVTED_clean_linker_0, # of connection points: 2
#     Edge 43, Type (0, 1), BuildingBlock: XIVTED_clean_linker_0, # of connection points: 2
#     Edge 44, Type (0, 1), BuildingBlock: XIVTED_clean_linker_0, # of connection points: 2
#     Edge 45, Type (0, 1), BuildingBlock: XIVTED_clean_linker_0, # of connection points: 2
#     Edge 46, Type (0, 1), BuildingBlock: XIVTED_clean_linker_0, # of connection points: 2
#     Edge 47, Type (0, 1), BuildingBlock: XIVTED_clean_linker_0, # of connection points: 2
#     Edge 48, Type (0, 1), BuildingBlock: XIVTED_clean_linker_0, # of connection points: 2
#     Edge 49, Type (0, 1), BuildingBlock: XIVTED_clean_linker_0, # of connection points: 2
#     Edge 50, Type (0, 1), BuildingBlock: XIVTED_clean_linker_0, # of connection points: 2
#     Edge 51, Type (0, 1), BuildingBlock: XIVTED_clean_linker_0, # of connection points: 2
#     Edge 52, Type (0, 1), BuildingBlock: XIVTED_clean_linker_0, # of connection points: 2
#     Edge 53, Type (0, 1), BuildingBlock: XIVTED_clean_linker_0, # of connection points: 2
#     Edge 54, Type (0, 1), BuildingBlock: XIVTED_clean_linker_0, # of connection points: 2
#     Edge 55, Type (0, 1), BuildingBlock: XIVTED_clean_linker_0, # of connection points: 2
#     Edge 56, Type (0, 1), BuildingBlock: XIVTED_clean_linker_0, # of connection points: 2
#     Edge 57, Type (0, 1), BuildingBlock: XIVTED_clean_linker_0, # of connection points: 2
#     Edge 58, Type (0, 1), BuildingBlock: XIVTED_clean_linker_0, # of connection points: 2
#     Edge 59, Type (0, 1), BuildingBlock: XIVTED_clean_linker_0, # of connection points: 2
#     Edge 60, Type (0, 1), BuildingBlock: XIVTED_clean_linker_0, # of connection points: 2
#     Edge 61, Type (0, 1), BuildingBlock: XIVTED_clean_linker_0, # of connection points: 2
#     Edge 62, Type (0, 1), BuildingBlock: XIVTED_clean_linker_0, # of connection points: 2
#     Edge 63, Type (0, 1), BuildingBlock: XIVTED_clean_linker_0, # of connection points: 2
#     Edge 64, Type (0, 1), BuildingBlock: XIVTED_clean_linker_0, # of connection points: 2
#     Edge 65, Type (0, 1), BuildingBlock: XIVTED_clean_linker_0, # of connection points: 2
#     Edge 66, Type (0, 1), BuildingBlock: XIVTED_clean_linker_0, # of connection points: 2
#     Edge 67, Type (0, 1), BuildingBlock: XIVTED_clean_linker_0, # of connection points: 2
#     Edge 68, Type (0, 1), BuildingBlock: XIVTED_clean_linker_0, # of connection points: 2
#     Edge 69, Type (0, 1), BuildingBlock: XIVTED_clean_linker_0, # of connection points: 2
#     Edge 70, Type (0, 1), BuildingBlock: XIVTED_clean_linker_0, # of connection points: 2
#     Edge 71, Type (0, 1), BuildingBlock: XIVTED_clean_linker_0, # of connection points: 2
#     Edge 72, Type (0, 1), BuildingBlock: XIVTED_clean_linker_0, # of connection points: 2
#     Edge 73, Type (0, 1), BuildingBlock: XIVTED_clean_linker_0, # of connection points: 2
#     Edge 74, Type (0, 1), BuildingBlock: XIVTED_clean_linker_0, # of connection points: 2
#     Edge 75, Type (0, 1), BuildingBlock: XIVTED_clean_linker_0, # of connection points: 2
#     Edge 76, Type (0, 1), BuildingBlock: XIVTED_clean_linker_0, # of connection points: 2
#     Edge 77, Type (0, 1), BuildingBlock: XIVTED_clean_linker_0, # of connection points: 2
#     Edge 78, Type (0, 1), BuildingBlock: XIVTED_clean_linker_0, # of connection points: 2
#     Edge 79, Type (0, 1), BuildingBlock: XIVTED_clean_linker_0, # of connection points: 2
#     Edge 80, Type (0, 1), BuildingBlock: XIVTED_clean_linker_0, # of connection points: 2
#     Edge 81, Type (0, 1), BuildingBlock: XIVTED_clean_linker_0, # of connection points: 2
#     Edge 82, Type (0, 1), BuildingBlock: XIVTED_clean_linker_0, # of connection points: 2
#     Edge 83, Type (0, 1), BuildingBlock: XIVTED_clean_linker_0, # of connection points: 2
#     Edge 84, Type (0, 1), BuildingBlock: XIVTED_clean_linker_0, # of connection points: 2
#     Edge 85, Type (0, 1), BuildingBlock: XIVTED_clean_linker_0, # of connection points: 2
#     Edge 86, Type (0, 1), BuildingBlock: XIVTED_clean_linker_0, # of connection points: 2
#     Edge 87, Type (0, 1), BuildingBlock: XIVTED_clean_linker_0, # of connection points: 2
#     Edge 88, Type (0, 1), BuildingBlock: XIVTED_clean_linker_0, # of connection points: 2
#     Edge 89, Type (0, 1), BuildingBlock: XIVTED_clean_linker_0, # of connection points: 2
#     Edge 90, Type (0, 1), BuildingBlock: XIVTED_clean_linker_0, # of connection points: 2
#     Edge 91, Type (0, 1), BuildingBlock: XIVTED_clean_linker_0, # of connection points: 2
#     Edge 92, Type (0, 1), BuildingBlock: XIVTED_clean_linker_0, # of connection points: 2
#     Edge 93, Type (0, 1), BuildingBlock: XIVTED_clean_linker_0, # of connection points: 2
#     Edge 94, Type (0, 1), BuildingBlock: XIVTED_clean_linker_0, # of connection points: 2
#     Edge 95, Type (0, 1), BuildingBlock: XIVTED_clean_linker_0, # of connection points: 2
#     Edge 96, Type (0, 1), BuildingBlock: XIVTED_clean_linker_0, # of connection points: 2
#     Edge 97, Type (0, 1), BuildingBlock: XIVTED_clean_linker_0, # of connection points: 2
#     Edge 98, Type (0, 1), BuildingBlock: XIVTED_clean_linker_0, # of connection points: 2
#     Edge 99, Type (0, 1), BuildingBlock: XIVTED_clean_linker_0, # of connection points: 2
#     Edge 100, Type (0, 1), BuildingBlock: XIVTED_clean_linker_0, # of connection points: 2
#     Edge 101, Type (0, 1), BuildingBlock: XIVTED_clean_linker_0, # of connection points: 2
#     Edge 102, Type (0, 1), BuildingBlock: XIVTED_clean_linker_0, # of connection points: 2
#     Edge 103, Type (0, 1), BuildingBlock: XIVTED_clean_linker_0, # of connection points: 2
#     Edge 104, Type (0, 1), BuildingBlock: XIVTED_clean_linker_0, # of connection points: 2
#     Edge 105, Type (0, 1), BuildingBlock: XIVTED_clean_linker_0, # of connection points: 2
#     Edge 106, Type (0, 1), BuildingBlock: XIVTED_clean_linker_0, # of connection points: 2
#     Edge 107, Type (0, 1), BuildingBlock: XIVTED_clean_linker_0, # of connection points: 2
# Relax obj value: 0.084
# Max RMSD: 0.307
# Mean RMSD: 0.119
data_MOF--net-ptr--node1-NAHDIM_clean_sbu_0--node2-NAHDIM_clean_linker_0--edge1-XIVTED_clean_linker_0
_symmetry_space_group_name_H-M    P1
_symmetry_Int_Tables_number       1
_symmetry_cell_setting            triclinic
loop_
_symmetry_equiv_pos_as_xyz
'x, y, z'
_cell_length_a     95.93052
_cell_length_b     93.748436
_cell_length_c     79.20367
_cell_angle_alpha  92.401502
_cell_angle_beta   89.630511
_cell_angle_gamma 122.15016
loop_
_atom_site_label
_atom_site_type_symbol
_atom_site_fract_x
_atom_site_fract_y
_atom_site_fract_z
_atom_type_partial_charge
C0 C 0.04759 0.36209 0.02601 0.0
O1 O 0.04372 0.37228 0.03347 0.0
O2 O 0.00246 0.32811 0.99598 0.0
Zn3 Zn 0.01793 0.35127 0.00668 0.0
O4 O 0.00815 0.35547 0.02743 0.0
C5 C 0.02499 0.36813 0.97469 0.0
O6 O 0.02739 0.35624 0.96904 0.0
O7 O 0.03875 0.35248 0.01363 0.0
C8 C 0.997 0.35883 0.02619 0.0
O9 O 0.99108 0.35847 0.01117 0.0
C10 C 0.99118 0.32504 0.98539 0.0
O11 O 0.98887 0.33716 0.98169 0.0
O12 O 0.0218 0.36877 0.9902 0.0
C13 C 0.6878 0.64851 0.99454 0.0
O14 O 0.67549 0.63702 0.98491 0.0
O15 O 0.66608 0.67138 0.02478 0.0
Zn16 Zn 0.66259 0.64966 0.01475 0.0
O17 O 0.64716 0.64252 0.99473 0.0
C18 C 0.65782 0.62345 0.03736 0.0
O19 O 0.6714 0.62554 0.03089 0.0
O20 O 0.68485 0.65456 0.00774 0.0
C21 C 0.63441 0.64331 0.99658 0.0
O22 O 0.63191 0.64846 0.01132 0.0
C23 C 0.67629 0.68508 0.01795 0.0
O24 O 0.68409 0.6846 0.00444 0.0
O25 O 0.65224 0.63217 0.03226 0.0
C26 C 0.34698 0.0383 0.99239 0.0
O27 O 0.34863 0.02795 0.98211 0.0
O28 O 0.32965 0.99924 0.02233 0.0
Zn29 Zn 0.35185 0.01923 0.01614 0.0
O30 O 0.36233 0.01292 0.99752 0.0
C31 C 0.38166 0.03079 0.03537 0.0
O32 O 0.38796 0.03319 0.02021 0.0
O33 O 0.34859 0.03766 0.00824 0.0
C34 C 0.35571 0.99932 0.98845 0.0
O35 O 0.34036 0.98736 0.99104 0.0
C36 C 0.31629 0.99609 0.01547 0.0
O37 O 0.31689 0.00549 0.00332 0.0
O38 O 0.36662 0.02612 0.03687 0.0
C39 C 0.98271 0.67227 0.98951 0.0
O40 O 0.99742 0.67745 0.98365 0.0
O41 O 0.01165 0.67961 0.02197 0.0
Zn42 Zn 0.99399 0.65745 0.01095 0.0
O43 O 0.00258 0.64971 0.99169 0.0
C44 C 0.98705 0.64348 0.044 0.0
O45 O 0.9958 0.6595 0.04891 0.0
O46 O 0.97745 0.66221 0.00157 0.0
C47 C 0.01119 0.6433 0.99393 0.0
O48 O 0.01527 0.64216 0.00939 0.0
C49 C 0.02542 0.69034 0.01581 0.0
O50 O 0.02977 0.6868 0.00124 0.0
O51 O 0.98415 0.63949 0.0283 0.0
C52 C 0.32124 0.34012 0.02804 0.0
O53 O 0.32935 0.33272 0.03086 0.0
O54 O 0.34188 0.33543 0.99363 0.0
Zn55 Zn 0.348 0.35711 0.00629 0.0
O56 O 0.36579 0.36318 0.02364 0.0
C57 C 0.36476 0.37694 0.97802 0.0
O58 O 0.36937 0.36604 0.97654 0.0
O59 O 0.32724 0.35214 0.01797 0.0
C60 C 0.36743 0.37251 0.03655 0.0
O61 O 0.35767 0.37833 0.0381 0.0
C62 C 0.33048 0.32975 0.98245 0.0
O63 O 0.32429 0.33887 0.97886 0.0
O64 O 0.35546 0.37577 0.99009 0.0
C65 C 0.66671 0.98375 0.03434 0.0
O66 O 0.67376 0.99954 0.03992 0.0
O67 O 0.6764 0.01307 0.00329 0.0
Zn68 Zn 0.65409 0.99695 0.01284 0.0
O69 O 0.64791 0.00729 0.03207 0.0
C70 C 0.63974 0.99849 0.98223 0.0
O71 O 0.65343 0.01342 0.98286 0.0
O72 O 0.65631 0.97854 0.02216 0.0
C73 C 0.6422 0.01663 0.03012 0.0
O74 O 0.64084 0.02072 0.01483 0.0
C75 C 0.68695 0.02816 0.00823 0.0
O76 O 0.68359 0.03519 0.021 0.0
O77 O 0.63696 0.98847 0.99395 0.0
C78 C 0.69386 0.67509 0.34395 0.0
O79 O 0.68799 0.6691 0.3286 0.0
O80 O 0.65804 0.6703 0.32676 0.0
Zn81 Zn 0.67521 0.6909 0.34039 0.0
O82 O 0.66443 0.69672 0.35892 0.0
C83 C 0.69419 0.71122 0.31208 0.0
O84 O 0.69413 0.69772 0.30677 0.0
O85 O 0.69069 0.68537 0.35125 0.0
C86 C 0.65171 0.69728 0.35613 0.0
O87 O 0.64518 0.69355 0.34082 0.0
C88 C 0.65036 0.65649 0.33426 0.0
O89 O 0.65337 0.65655 0.35043 0.0
O90 O 0.68715 0.71096 0.32582 0.0
C91 C 0.36058 0.99388 0.33547 0.0
O92 O 0.3649 0.00954 0.339 0.0
O93 O 0.34055 0.01032 0.35864 0.0
Zn94 Zn 0.32949 0.98608 0.34988 0.0
O95 O 0.31198 0.98071 0.33246 0.0
C96 C 0.31154 0.97407 0.38056 0.0
O97 O 0.31222 0.98842 0.38028 0.0
O98 O 0.34623 0.98192 0.33914 0.0
C99 C 0.30636 0.9674 0.32307 0.0
O100 O 0.31234 0.95777 0.32486 0.0
C101 C 0.33466 0.0194 0.356 0.0
O102 O 0.32075 0.01286 0.34741 0.0
O103 O 0.31846 0.9704 0.36893 0.0
C104 C 0.03577 0.37611 0.32025 0.0
O105 O 0.04736 0.37348 0.31534 0.0
O106 O 0.00391 0.33214 0.35133 0.0
Zn107 Zn 0.02589 0.34728 0.34049 0.0
O108 O 0.03061 0.33518 0.32182 0.0
C109 C 0.043 0.34905 0.37128 0.0
O110 O 0.02946 0.33444 0.37372 0.0
O111 O 0.02531 0.36648 0.33085 0.0
C112 C 0.0347 0.32468 0.32495 0.0
O113 O 0.03528 0.32113 0.3407 0.0
C114 C 0.99421 0.31642 0.34801 0.0
O115 O 0.99837 0.30874 0.33672 0.0
O116 O 0.04416 0.35681 0.35806 0.0
C117 C 0.64202 0.98148 0.3147 0.0
O118 O 0.6576 0.99065 0.31063 0.0
O119 O 0.67149 0.9931 0.3465 0.0
Zn120 Zn 0.65604 0.96953 0.33675 0.0
O121 O 0.66781 0.96385 0.31925 0.0
C122 C 0.64208 0.95647 0.36867 0.0
O123 O 0.64294 0.97094 0.37007 0.0
O124 O 0.63776 0.97038 0.32561 0.0
C125 C 0.6805 0.96353 0.32298 0.0
O126 O 0.68572 0.9664 0.33878 0.0
C127 C 0.68023 0.99717 0.35991 0.0
O128 O 0.68012 0.98539 0.36843 0.0
O129 O 0.64696 0.95277 0.35518 0.0
C130 C 0.98778 0.68493 0.36818 0.0
O131 O 0.99644 0.67894 0.37384 0.0
O132 O 0.01321 0.68033 0.33955 0.0
Zn133 Zn 0.01643 0.70221 0.34902 0.0
O134 O 0.03231 0.7104 0.36885 0.0
C135 C 0.01965 0.71407 0.31564 0.0
O136 O 0.00975 0.69781 0.31227 0.0
O137 O 0.99412 0.69621 0.35729 0.0
C138 C 0.04783 0.7179 0.36733 0.0
O139 O 0.05415 0.72141 0.35219 0.0
C140 C 0.02381 0.67852 0.33172 0.0
O141 O 0.03848 0.69181 0.32916 0.0
O142 O 0.02431 0.71931 0.33086 0.0
C143 C 0.31522 0.30935 0.37506 0.0
O144 O 0.31811 0.32243 0.38469 0.0
O145 O 0.32347 0.34032 0.33984 0.0
Zn146 Zn 0.30301 0.32341 0.3519 0.0
O147 O 0.29802 0.33478 0.37112 0.0
C148 C 0.28399 0.32072 0.32293 0.0
O149 O 0.29553 0.33681 0.32277 0.0
O150 O 0.30797 0.30663 0.36082 0.0
C151 C 0.29986 0.34915 0.36978 0.0
O152 O 0.30488 0.35671 0.35542 0.0
C153 C 0.33715 0.35033 0.34741 0.0
O154 O 0.338 0.35054 0.36397 0.0
O155 O 0.28422 0.31201 0.3347 0.0
C156 C 0.36486 0.01705 0.67616 0.0
O157 O 0.35935 0.0097 0.66111 0.0
O158 O 0.32589 0.00613 0.65951 0.0
Zn159 Zn 0.34241 0.02844 0.67125 0.0
O160 O 0.33177 0.03467 0.68968 0.0
C161 C 0.34525 0.05418 0.6506 0.0
O162 O 0.33068 0.04895 0.65691 0.0
O163 O 0.35977 0.02609 0.68259 0.0
C164 C 0.31645 0.02893 0.69064 0.0
O165 O 0.30633 0.01807 0.67889 0.0
C166 C 0.32021 0.99285 0.66776 0.0
O167 O 0.32478 0.99425 0.68365 0.0
O168 O 0.35279 0.04701 0.65467 0.0
C169 C 0.02047 0.31978 0.67625 0.0
O170 O 0.01125 0.30323 0.67566 0.0
O171 O 0.98869 0.33516 0.7029 0.0
Zn172 Zn 0.99085 0.31813 0.68874 0.0
O173 O 0.97683 0.31297 0.66791 0.0
C174 C 0.9889 0.29518 0.71392 0.0
O175 O 0.00324 0.30802 0.71931 0.0
O176 O 0.01444 0.32826 0.6818 0.0
C177 C 0.97255 0.30026 0.65797 0.0
O178 O 0.97755 0.29004 0.66119 0.0
C179 C 0.99602 0.35025 0.69822 0.0
O180 O 0.00546 0.35436 0.68493 0.0
O181 O 0.98188 0.29676 0.70122 0.0
C182 C 0.67309 0.68921 0.65514 0.0
O183 O 0.66575 0.67285 0.65209 0.0
O184 O 0.66832 0.66568 0.6918 0.0
Zn185 Zn 0.6888 0.68069 0.67882 0.0
O186 O 0.69375 0.66735 0.66196 0.0
C187 C 0.71115 0.68467 0.70427 0.0
O188 O 0.7016 0.66816 0.70285 0.0
O189 O 0.68448 0.69628 0.66638 0.0
C190 C 0.70737 0.67541 0.6544 0.0
O191 O 0.71725 0.69163 0.65802 0.0
C192 C 0.65947 0.64972 0.68985 0.0
O193 O 0.66395 0.64191 0.67908 0.0
O194 O 0.70806 0.69348 0.69505 0.0
C195 C 0.3071 0.32315 0.64357 0.0
O196 O 0.32236 0.32946 0.63878 0.0
O197 O 0.33478 0.32842 0.67489 0.0
Zn198 Zn 0.31725 0.30639 0.66366 0.0
O199 O 0.32725 0.29991 0.64481 0.0
C200 C 0.30238 0.29195 0.69487 0.0
O201 O 0.30447 0.30692 0.69743 0.0
O202 O 0.30111 0.31153 0.6541 0.0
C203 C 0.33962 0.29872 0.6475 0.0
O204 O 0.34549 0.30108 0.663 0.0
C205 C 0.34307 0.33049 0.68822 0.0
O206 O 0.34109 0.31727 0.69563 0.0
O207 O 0.30665 0.28842 0.68086 0.0
C208 C 0.66602 0.01715 0.68202 0.0
O209 O 0.6705 0.00645 0.68498 0.0
O210 O 0.68449 0.0064 0.64943 0.0
Zn211 Zn 0.69356 0.02954 0.66054 0.0
O212 O 0.71097 0.03486 0.67828 0.0
C213 C 0.70541 0.06173 0.6463 0.0
O214 O 0.70304 0.06561 0.66174 0.0
O215 O 0.67432 0.02877 0.67182 0.0
C216 C 0.71215 0.04339 0.69171 0.0
O217 O 0.70241 0.04921 0.69353 0.0
C218 C 0.68779 0.99585 0.6546 0.0
O219 O 0.69849 0.0004 0.6671 0.0
O220 O 0.70243 0.04699 0.64283 0.0
C221 C 0.97172 0.64093 0.70494 0.0
O222 O 0.97694 0.65497 0.71403 0.0
O223 O 0.98572 0.67296 0.66938 0.0
Zn224 Zn 0.96405 0.65808 0.68075 0.0
O225 O 0.96065 0.6711 0.69949 0.0
C226 C 0.94708 0.6571 0.65049 0.0
O227 O 0.96019 0.67234 0.64946 0.0
O228 O 0.96515 0.63913 0.69047 0.0
C229 C 0.9631 0.68566 0.69765 0.0
O230 O 0.96763 0.69245 0.68288 0.0
C231 C 0.99913 0.6824 0.67763 0.0
O232 O 0.9989 0.68321 0.69422 0.0
O233 O 0.94572 0.64854 0.66314 0.0
C234 C 0.19471 0.26814 0.04125 0.0
C235 C 0.2018 0.28112 0.05611 0.0
C236 C 0.18885 0.2755 0.0835 0.0
C237 C 0.19362 0.29187 0.08914 0.0
C238 C 0.18444 0.29454 0.10131 0.0
C239 C 0.17002 0.28051 0.10768 0.0
C240 C 0.16547 0.26395 0.1023 0.0
C241 C 0.17522 0.26168 0.09053 0.0
C242 C 0.18996 0.31237 0.10703 0.0
C243 C 0.15002 0.24864 0.10846 0.0
C244 C 0.09966 0.33781 0.0776 0.0
C245 C 0.10963 0.33435 0.08891 0.0
C246 C 0.11365 0.31167 0.09607 0.0
C247 C 0.10702 0.29428 0.0952 0.0
C248 C 0.11494 0.28731 0.10319 0.0
C249 C 0.12992 0.29806 0.11219 0.0
C250 C 0.13683 0.31569 0.11294 0.0
C251 C 0.12862 0.32232 0.10493 0.0
C252 C 0.10728 0.26846 0.10211 0.0
C253 C 0.15292 0.32755 0.12224 0.0
C254 C 0.09689 0.28405 0.21954 0.0
C255 C 0.09353 0.26814 0.21364 0.0
C256 C 0.10528 0.26659 0.20448 0.0
C257 C 0.12078 0.28119 0.20139 0.0
C258 C 0.12439 0.29714 0.20776 0.0
C259 C 0.11232 0.29836 0.21664 0.0
C260 C 0.10103 0.24937 0.19787 0.0
C261 C 0.14088 0.31294 0.20493 0.0
C262 C 0.215 0.24888 0.21563 0.0
C263 C 0.21128 0.26246 0.22057 0.0
C264 C 0.18502 0.25993 0.21484 0.0
C265 C 0.16879 0.24767 0.2102 0.0
C266 C 0.15873 0.25194 0.20187 0.0
C267 C 0.165 0.26901 0.19849 0.0
C268 C 0.18122 0.2816 0.20383 0.0
C269 C 0.1911 0.27692 0.21191 0.0
C270 C 0.14145 0.23819 0.19652 0.0
C271 C 0.18812 0.29998 0.20094 0.0
C272 C 0.15901 0.2832 0.11882 0.0
C273 C 0.14932 0.28832 0.11127 0.0
C274 C 0.13853 0.291 0.12075 0.0
C275 C 0.13686 0.28794 0.13819 0.0
C276 C 0.12553 0.28973 0.14793 0.0
C277 C 0.12408 0.28689 0.16512 0.0
C278 C 0.13412 0.28244 0.17332 0.0
C279 C 0.13292 0.27981 0.19087 0.0
C280 C 0.14319 0.27557 0.19866 0.0
C281 C 0.15459 0.27367 0.18936 0.0
C282 C 0.15582 0.27603 0.17174 0.0
C283 C 0.167 0.27403 0.16193 0.0
C284 C 0.16815 0.27646 0.14462 0.0
C285 C 0.15808 0.28085 0.13642 0.0
C286 C 0.14681 0.28305 0.1461 0.0
C287 C 0.14559 0.28051 0.16374 0.0
C288 C 0.05789 0.26806 0.21738 0.0
C289 C 0.06992 0.27404 0.23252 0.0
O290 O 0.19702 0.27271 0.07107 0.0
O291 O 0.19441 0.25492 0.22216 0.0
O292 O 0.08567 0.2863 0.22783 0.0
O293 O 0.10531 0.31767 0.08826 0.0
H294 H 0.19656 0.28919 0.05499 0.0
H295 H 0.18105 0.26054 0.04184 0.0
H296 H 0.19928 0.25947 0.04164 0.0
H297 H 0.19821 0.27456 0.02907 0.0
H298 H 0.20447 0.30255 0.08395 0.0
H299 H 0.17178 0.24909 0.08615 0.0
H300 H 0.18188 0.31593 0.10104 0.0
H301 H 0.20287 0.32153 0.10348 0.0
H302 H 0.18892 0.31336 0.12095 0.0
H303 H 0.1472 0.23684 0.10149 0.0
H304 H 0.13934 0.25012 0.10706 0.0
H305 H 0.1515 0.24733 0.12207 0.0
H306 H 0.11178 0.34014 0.10197 0.0
H307 H 0.08813 0.32523 0.07415 0.0
H308 H 0.11772 0.35446 0.05849 0.0
H309 H 0.09317 0.34228 0.0862 0.0
H310 H 0.09552 0.28616 0.0883 0.0
H311 H 0.13402 0.33582 0.10561 0.0
H312 H 0.1054 0.26364 0.11503 0.0
H313 H 0.11576 0.26546 0.09561 0.0
H314 H 0.09527 0.26175 0.09516 0.0
H315 H 0.15711 0.341 0.1209 0.0
H316 H 0.16262 0.32547 0.11741 0.0
H317 H 0.1515 0.3249 0.13588 0.0
H318 H 0.06996 0.26306 0.23727 0.0
H319 H 0.08174 0.25687 0.21588 0.0
H320 H 0.11486 0.31057 0.2213 0.0
H321 H 0.10272 0.24942 0.18398 0.0
H322 H 0.08817 0.23934 0.20065 0.0
H323 H 0.10951 0.24623 0.20368 0.0
H324 H 0.14232 0.32413 0.21204 0.0
H325 H 0.14226 0.31547 0.19126 0.0
H326 H 0.15096 0.31119 0.20881 0.0
H327 H 0.21585 0.2713 0.21003 0.0
H328 H 0.22849 0.25462 0.2144 0.0
H329 H 0.20896 0.24267 0.20327 0.0
H330 H 0.21031 0.23909 0.22521 0.0
H331 H 0.16415 0.23462 0.21275 0.0
H332 H 0.20348 0.28656 0.21605 0.0
H333 H 0.13943 0.2389 0.18286 0.0
H334 H 0.13249 0.24004 0.20365 0.0
H335 H 0.13889 0.22541 0.19883 0.0
H336 H 0.20042 0.30834 0.20707 0.0
H337 H 0.17958 0.30369 0.20591 0.0
H338 H 0.18925 0.30201 0.18717 0.0
H339 H 0.15036 0.29048 0.09784 0.0
H340 H 0.11757 0.29324 0.14233 0.0
H341 H 0.11507 0.28836 0.17193 0.0
H342 H 0.14223 0.27364 0.21213 0.0
H343 H 0.17501 0.27058 0.16752 0.0
H344 H 0.17705 0.27487 0.13773 0.0
H345 H 0.04519 0.25867 0.22136 0.0
H346 H 0.0613 0.26197 0.20729 0.0
H347 H 0.05796 0.27883 0.21195 0.0
C348 C 0.73107 0.92458 0.05259 0.0
C349 C 0.71913 0.92049 0.06712 0.0
C350 C 0.72558 0.91549 0.09503 0.0
C351 C 0.70974 0.90387 0.10064 0.0
C352 C 0.70736 0.89254 0.11301 0.0
C353 C 0.72111 0.89267 0.11965 0.0
C354 C 0.73717 0.90485 0.11443 0.0
C355 C 0.7392 0.91638 0.10242 0.0
C356 C 0.69009 0.88 0.11852 0.0
C357 C 0.75213 0.90518 0.12088 0.0
C358 C 0.69253 0.80282 0.05834 0.0
C359 C 0.69989 0.79566 0.06988 0.0
C360 C 0.69803 0.80668 0.09761 0.0
C361 C 0.71465 0.81891 0.10113 0.0
C362 C 0.71906 0.8326 0.11249 0.0
C363 C 0.70659 0.83404 0.12043 0.0
C364 C 0.68984 0.8213 0.1175 0.0
C365 C 0.68579 0.80761 0.10625 0.0
C366 C 0.73706 0.84577 0.11569 0.0
C367 C 0.67626 0.82245 0.12582 0.0
C368 C 0.7174 0.81532 0.22863 0.0
C369 C 0.73184 0.82559 0.21965 0.0
C370 C 0.73395 0.8394 0.21108 0.0
C371 C 0.72124 0.84282 0.2112 0.0
C372 C 0.7068 0.83265 0.22042 0.0
C373 C 0.70514 0.8191 0.22913 0.0
C374 C 0.74971 0.85025 0.20173 0.0
C375 C 0.69301 0.83593 0.22082 0.0
C376 C 0.76658 0.97957 0.23066 0.0
C377 C 0.75191 0.96138 0.23088 0.0
C378 C 0.75063 0.93481 0.22607 0.0
C379 C 0.76079 0.92867 0.22237 0.0
C380 C 0.75445 0.91271 0.21436 0.0
C381 C 0.73738 0.90245 0.21048 0.0
C382 C 0.72686 0.90821 0.21514 0.0
C383 C 0.73363 0.92445 0.22266 0.0
C384 C 0.76605 0.90698 0.20971 0.0
C385 C 0.7085 0.89733 0.21194 0.0
C386 C 0.71848 0.87875 0.13022 0.0
C387 C 0.71346 0.86331 0.12185 0.0
C388 C 0.71108 0.84959 0.13058 0.0
C389 C 0.71364 0.85113 0.14827 0.0
C390 C 0.71125 0.83751 0.15743 0.0
C391 C 0.71403 0.83923 0.17483 0.0
C392 C 0.71953 0.85471 0.18368 0.0
C393 C 0.72288 0.85672 0.20128 0.0
C394 C 0.72834 0.87228 0.20968 0.0
C395 C 0.73072 0.88605 0.20094 0.0
C396 C 0.72744 0.88429 0.18332 0.0
C397 C 0.72975 0.89788 0.17409 0.0
C398 C 0.7265 0.89602 0.15677 0.0
C399 C 0.72127 0.88064 0.14792 0.0
C400 C 0.71885 0.86676 0.15696 0.0
C401 C 0.72186 0.86856 0.17468 0.0
C402 C 0.71971 0.78125 0.24773 0.0
C403 C 0.72431 0.79463 0.23567 0.0
O404 O 0.72802 0.92573 0.08227 0.0
O405 O 0.75766 0.95076 0.23287 0.0
O406 O 0.7148 0.80172 0.2369 0.0
O407 O 0.69342 0.79388 0.08592 0.0
H408 H 0.71036 0.90654 0.06651 0.0
H409 H 0.73778 0.91802 0.05408 0.0
H410 H 0.74022 0.93837 0.05248 0.0
H411 H 0.72427 0.92024 0.04028 0.0
H412 H 0.69924 0.90357 0.09519 0.0
H413 H 0.75138 0.92556 0.09809 0.0
H414 H 0.68603 0.86736 0.1127 0.0
H415 H 0.68122 0.88349 0.11463 0.0
H416 H 0.68976 0.87902 0.13246 0.0
H417 H 0.76356 0.91454 0.11449 0.0
H418 H 0.75039 0.89253 0.11893 0.0
H419 H 0.75379 0.90841 0.13465 0.0
H420 H 0.71347 0.80448 0.07037 0.0
H421 H 0.67889 0.79445 0.05766 0.0
H422 H 0.69749 0.80411 0.0454 0.0
H423 H 0.69581 0.8155 0.06333 0.0
H424 H 0.7242 0.81782 0.09508 0.0
H425 H 0.673 0.79793 0.10362 0.0
H426 H 0.73975 0.84803 0.1295 0.0
H427 H 0.73997 0.85786 0.11049 0.0
H428 H 0.74525 0.84203 0.10978 0.0
H429 H 0.66386 0.81128 0.12254 0.0
H430 H 0.6768 0.83395 0.12184 0.0
H431 H 0.67803 0.82361 0.13976 0.0
H432 H 0.7264 0.79174 0.22244 0.0
H433 H 0.74152 0.82293 0.21931 0.0
H434 H 0.69409 0.81118 0.23616 0.0
H435 H 0.74704 0.84845 0.18792 0.0
H436 H 0.7591 0.84711 0.20441 0.0
H437 H 0.75494 0.86378 0.20524 0.0
H438 H 0.68229 0.82644 0.22801 0.0
H439 H 0.68887 0.8358 0.20773 0.0
H440 H 0.69755 0.84864 0.22674 0.0
H441 H 0.74549 0.95851 0.21836 0.0
H442 H 0.76228 0.98833 0.22889 0.0
H443 H 0.77473 0.98086 0.22003 0.0
H444 H 0.77387 0.98324 0.24266 0.0
H445 H 0.77385 0.93669 0.22527 0.0
H446 H 0.7256 0.92894 0.22591 0.0
H447 H 0.76452 0.90299 0.1961 0.0
H448 H 0.76306 0.8959 0.21707 0.0
H449 H 0.77915 0.91702 0.21229 0.0
H450 H 0.7018 0.90243 0.21876 0.0
H451 H 0.70367 0.88429 0.21588 0.0
H452 H 0.70586 0.89662 0.19821 0.0
H453 H 0.71158 0.86202 0.10823 0.0
H454 H 0.7072 0.82536 0.15125 0.0
H455 H 0.71193 0.82829 0.18122 0.0
H456 H 0.731 0.87376 0.22316 0.0
H457 H 0.73407 0.91014 0.18015 0.0
H458 H 0.72834 0.90685 0.15035 0.0
H459 H 0.74164 0.79231 0.2652 0.0
H460 H 0.71531 0.7694 0.23956 0.0
H461 H 0.70702 0.77715 0.25247 0.0
C462 C 0.19882 0.89679 0.0547 0.0
C463 C 0.20751 0.91283 0.06621 0.0
C464 C 0.19659 0.901 0.0934 0.0
C465 C 0.1857 0.90644 0.09657 0.0
C466 C 0.17211 0.89741 0.107 0.0
C467 C 0.16931 0.88259 0.11427 0.0
C468 C 0.18068 0.87748 0.11163 0.0
C469 C 0.19436 0.88696 0.10142 0.0
C470 C 0.1605 0.90347 0.10992 0.0
C471 C 0.17803 0.86167 0.11905 0.0
C472 C 0.0715 0.81713 0.041 0.0
C473 C 0.07921 0.81161 0.054 0.0
C474 C 0.0863 0.82202 0.0832 0.0
C475 C 0.09747 0.81718 0.0867 0.0
C476 C 0.10935 0.82551 0.0997 0.0
C477 C 0.11033 0.83925 0.10905 0.0
C478 C 0.09874 0.84384 0.10577 0.0
C479 C 0.08659 0.83483 0.09313 0.0
C480 C 0.12119 0.81995 0.10305 0.0
C481 C 0.09962 0.85871 0.11504 0.0
C482 C 0.07404 0.81895 0.21708 0.0
C483 C 0.08334 0.81206 0.21184 0.0
C484 C 0.0985 0.822 0.20388 0.0
C485 C 0.10432 0.83907 0.20095 0.0
C486 C 0.0951 0.84609 0.20658 0.0
C487 C 0.08017 0.83596 0.21479 0.0
C488 C 0.1083 0.81428 0.1986 0.0
C489 C 0.10096 0.86427 0.20382 0.0
C490 C 0.22226 0.94183 0.22212 0.0
C491 C 0.21482 0.93151 0.23786 0.0
C492 C 0.19269 0.90426 0.22507 0.0
C493 C 0.18847 0.88787 0.22048 0.0
C494 C 0.17416 0.87685 0.21089 0.0
C495 C 0.16379 0.88242 0.20582 0.0
C496 C 0.16768 0.89882 0.21084 0.0
C497 C 0.18209 0.90959 0.22045 0.0
C498 C 0.17029 0.85939 0.20586 0.0
C499 C 0.15677 0.90506 0.20575 0.0
C500 C 0.15376 0.87163 0.12328 0.0
C501 C 0.1397 0.86089 0.1134 0.0
C502 C 0.12456 0.84995 0.12072 0.0
C503 C 0.12333 0.84963 0.13853 0.0
C504 C 0.10838 0.83863 0.14639 0.0
C505 C 0.10723 0.83872 0.16393 0.0
C506 C 0.1211 0.84953 0.1743 0.0
C507 C 0.1201 0.84969 0.19215 0.0
C508 C 0.13419 0.8605 0.20203 0.0
C509 C 0.1493 0.87135 0.1946 0.0
C510 C 0.15051 0.87153 0.1768 0.0
C511 C 0.1655 0.88248 0.16893 0.0
C512 C 0.16658 0.8826 0.15141 0.0
C513 C 0.15276 0.8717 0.14108 0.0
C514 C 0.13748 0.86061 0.14874 0.0
C515 C 0.13636 0.86054 0.16662 0.0
C516 C 0.03102 0.79077 0.21747 0.0
C517 C 0.04762 0.79275 0.22105 0.0
O518 O 0.20917 0.90886 0.08246 0.0
O519 O 0.20714 0.91441 0.23371 0.0
O520 O 0.05925 0.80967 0.2246 0.0
O521 O 0.07539 0.81481 0.07006 0.0
H522 H 0.19998 0.91864 0.06631 0.0
H523 H 0.18625 0.88792 0.05935 0.0
H524 H 0.20583 0.89042 0.0545 0.0
H525 H 0.19763 0.89988 0.0416 0.0
H526 H 0.18778 0.91771 0.09092 0.0
H527 H 0.20298 0.88301 0.09903 0.0
H528 H 0.14863 0.89469 0.10317 0.0
H529 H 0.16553 0.91634 0.10533 0.0
H530 H 0.15787 0.90353 0.12359 0.0
H531 H 0.18772 0.85913 0.11534 0.0
H532 H 0.16585 0.85068 0.11485 0.0
H533 H 0.17798 0.86285 0.13305 0.0
H534 H 0.0928 0.81933 0.05224 0.0
H535 H 0.07466 0.81504 0.02798 0.0
H536 H 0.0763 0.83078 0.04311 0.0
H537 H 0.05788 0.80996 0.04213 0.0
H538 H 0.09696 0.80697 0.07921 0.0
H539 H 0.07778 0.83833 0.09035 0.0
H540 H 0.12302 0.81977 0.11685 0.0
H541 H 0.13333 0.82905 0.09766 0.0
H542 H 0.11682 0.80723 0.09722 0.0
H543 H 0.09098 0.86183 0.10956 0.0
H544 H 0.11231 0.86999 0.11471 0.0
H545 H 0.09649 0.85584 0.12849 0.0
H546 H 0.05084 0.78815 0.20936 0.0
H547 H 0.07889 0.79902 0.21416 0.0
H548 H 0.07299 0.8412 0.21912 0.0
H549 H 0.10896 0.81381 0.18461 0.0
H550 H 0.10278 0.80129 0.20305 0.0
H551 H 0.12111 0.82223 0.20368 0.0
H552 H 0.09168 0.86739 0.20762 0.0
H553 H 0.10385 0.86703 0.1903 0.0
H554 H 0.11245 0.87263 0.21132 0.0
H555 H 0.20575 0.93421 0.24347 0.0
H556 H 0.22873 0.95553 0.22557 0.0
H557 H 0.2125 0.9388 0.21263 0.0
H558 H 0.23116 0.93907 0.21619 0.0
H559 H 0.19664 0.88382 0.2242 0.0
H560 H 0.18501 0.92214 0.2241 0.0
H561 H 0.17036 0.85797 0.19188 0.0
H562 H 0.15776 0.84982 0.21007 0.0
H563 H 0.17928 0.85676 0.21135 0.0
H564 H 0.16126 0.918 0.21101 0.0
H565 H 0.14406 0.8964 0.21017 0.0
H566 H 0.15615 0.90505 0.19176 0.0
H567 H 0.14056 0.86105 0.09973 0.0
H568 H 0.09736 0.82992 0.13904 0.0
H569 H 0.09535 0.83012 0.16926 0.0
H570 H 0.13336 0.86053 0.2157 0.0
H571 H 0.17657 0.89112 0.17622 0.0
H572 H 0.17841 0.89133 0.14604 0.0
H573 H 0.02148 0.77735 0.2143 0.0
H574 H 0.03208 0.79834 0.20656 0.0
H575 H 0.02704 0.79522 0.22863 0.0
C576 C 0.27706 0.09223 0.96353 0.0
C577 C 0.28785 0.09166 0.94944 0.0
C578 C 0.29421 0.11533 0.93172 0.0
C579 C 0.27824 0.10824 0.92482 0.0
C580 C 0.27475 0.1171 0.91348 0.0
C581 C 0.28746 0.1333 0.90882 0.0
C582 C 0.3036 0.1403 0.9154 0.0
C583 C 0.30673 0.13122 0.92681 0.0
C584 C 0.25738 0.10931 0.90673 0.0
C585 C 0.31746 0.15751 0.91062 0.0
C586 C 0.24864 0.20099 0.9683 0.0
C587 C 0.2628 0.20563 0.95623 0.0
C588 C 0.26154 0.19246 0.92874 0.0
C589 C 0.27822 0.19795 0.92725 0.0
C590 C 0.28314 0.18937 0.91625 0.0
C591 C 0.27105 0.17476 0.90688 0.0
C592 C 0.25422 0.16944 0.90812 0.0
C593 C 0.24976 0.17866 0.91875 0.0
C594 C 0.30121 0.19568 0.91502 0.0
C595 C 0.24087 0.15367 0.89876 0.0
C596 C 0.26257 0.18845 0.79559 0.0
C597 C 0.27864 0.19594 0.80213 0.0
C598 C 0.28316 0.18665 0.81164 0.0
C599 C 0.27124 0.16963 0.81488 0.0
C600 C 0.2551 0.162 0.80797 0.0
C601 C 0.25108 0.17148 0.79816 0.0
C602 C 0.30065 0.195 0.81819 0.0
C603 C 0.24207 0.14388 0.81101 0.0
C604 C 0.27385 0.06072 0.80218 0.0
C605 C 0.2771 0.07153 0.7869 0.0
C606 C 0.28656 0.09986 0.79946 0.0
C607 C 0.30027 0.1162 0.80213 0.0
C608 C 0.29899 0.12878 0.81086 0.0
C609 C 0.28355 0.12487 0.81707 0.0
C610 C 0.26957 0.10839 0.81437 0.0
C611 C 0.27121 0.09604 0.80561 0.0
C612 C 0.31413 0.14622 0.81358 0.0
C613 C 0.25291 0.1038 0.82083 0.0
C614 C 0.28364 0.14342 0.89805 0.0
C615 C 0.27963 0.15423 0.90621 0.0
C616 C 0.27585 0.16421 0.89708 0.0
C617 C 0.2762 0.16355 0.87922 0.0
C618 C 0.27285 0.1737 0.86962 0.0
C619 C 0.27262 0.17249 0.85203 0.0
C620 C 0.27599 0.16128 0.84337 0.0
C621 C 0.27556 0.15977 0.82549 0.0
C622 C 0.27854 0.14815 0.81733 0.0
C623 C 0.28195 0.13792 0.82653 0.0
C624 C 0.28286 0.13955 0.84438 0.0
C625 C 0.28669 0.12975 0.854 0.0
C626 C 0.28718 0.13116 0.87158 0.0
C627 C 0.28365 0.14224 0.8802 0.0
C628 C 0.27991 0.15236 0.87076 0.0
C629 C 0.2797 0.15115 0.85282 0.0
C630 C 0.2449 0.2115 0.79602 0.0
C631 C 0.26105 0.21309 0.79085 0.0
O632 O 0.29808 0.10755 0.94327 0.0
O633 O 0.28881 0.0883 0.79104 0.0
O634 O 0.25791 0.19717 0.78641 0.0
O635 O 0.25642 0.19998 0.93997 0.0
H636 H 0.27957 0.08277 0.93914 0.0
H637 H 0.26973 0.07974 0.96925 0.0
H638 H 0.28468 0.10195 0.97356 0.0
H639 H 0.26834 0.09538 0.95837 0.0
H640 H 0.26834 0.09595 0.92836 0.0
H641 H 0.31901 0.1366 0.93211 0.0
H642 H 0.25265 0.1175 0.9105 0.0
H643 H 0.24887 0.09652 0.91142 0.0
H644 H 0.2573 0.10841 0.89271 0.0
H645 H 0.32955 0.16065 0.91583 0.0
H646 H 0.31496 0.16721 0.91545 0.0
H647 H 0.3182 0.15813 0.89665 0.0
H648 H 0.26887 0.19898 0.96044 0.0
H649 H 0.25344 0.20525 0.98147 0.0
H650 H 0.24001 0.18708 0.9679 0.0
H651 H 0.24172 0.20688 0.96467 0.0
H652 H 0.2874 0.2089 0.93472 0.0
H653 H 0.23692 0.17464 0.91995 0.0
H654 H 0.30457 0.19515 0.90166 0.0
H655 H 0.30386 0.18745 0.92222 0.0
H656 H 0.30912 0.20881 0.92031 0.0
H657 H 0.22836 0.14998 0.90301 0.0
H658 H 0.24257 0.143 0.90057 0.0
H659 H 0.24157 0.15581 0.88504 0.0
H660 H 0.26966 0.21876 0.80196 0.0
H661 H 0.2877 0.20895 0.79959 0.0
H662 H 0.23878 0.16578 0.79279 0.0
H663 H 0.30088 0.19666 0.83216 0.0
H664 H 0.30887 0.20755 0.81288 0.0
H665 H 0.3056 0.18688 0.81507 0.0
H666 H 0.22966 0.14051 0.80659 0.0
H667 H 0.24156 0.14146 0.82468 0.0
H668 H 0.24527 0.13546 0.80415 0.0
H669 H 0.26542 0.07028 0.78277 0.0
H670 H 0.26461 0.04726 0.79878 0.0
H671 H 0.26897 0.0648 0.81279 0.0
H672 H 0.2854 0.06188 0.80658 0.0
H673 H 0.31207 0.11905 0.79737 0.0
H674 H 0.26044 0.08348 0.80375 0.0
H675 H 0.31632 0.14961 0.82733 0.0
H676 H 0.31215 0.15556 0.80769 0.0
H677 H 0.3253 0.14719 0.80815 0.0
H678 H 0.24312 0.09059 0.81721 0.0
H679 H 0.24944 0.1124 0.81581 0.0
H680 H 0.25348 0.10543 0.83483 0.0
H681 H 0.27932 0.15477 0.91991 0.0
H682 H 0.27022 0.18259 0.87561 0.0
H683 H 0.26971 0.18044 0.84532 0.0
H684 H 0.27784 0.14679 0.80364 0.0
H685 H 0.28936 0.12088 0.84803 0.0
H686 H 0.29018 0.1233 0.87833 0.0
H687 H 0.23581 0.206 0.78535 0.0
H688 H 0.24708 0.22405 0.79998 0.0
H689 H 0.23964 0.20314 0.80685 0.0
C690 C 0.80917 0.07819 0.97164 0.0
C691 C 0.80027 0.08326 0.95966 0.0
C692 C 0.8088 0.08849 0.93055 0.0
C693 C 0.8054 0.10081 0.92679 0.0
C694 C 0.81426 0.11242 0.91437 0.0
C695 C 0.82699 0.11185 0.90581 0.0
C696 C 0.83003 0.09902 0.90926 0.0
C697 C 0.82059 0.08724 0.92135 0.0
C698 C 0.81038 0.12564 0.91081 0.0
C699 C 0.84374 0.09819 0.90078 0.0
C700 C 0.93386 0.23271 0.94772 0.0
C701 C 0.92341 0.21551 0.94 0.0
C702 C 0.89775 0.1984 0.92369 0.0
C703 C 0.90095 0.18592 0.91839 0.0
C704 C 0.88941 0.17176 0.90844 0.0
C705 C 0.87439 0.17005 0.90367 0.0
C706 C 0.87121 0.18267 0.90879 0.0
C707 C 0.88298 0.19672 0.91873 0.0
C708 C 0.89317 0.15851 0.90317 0.0
C709 C 0.85531 0.18121 0.9039 0.0
C710 C 0.89891 0.18864 0.79391 0.0
C711 C 0.90256 0.17799 0.80215 0.0
C712 C 0.89044 0.1644 0.81115 0.0
C713 C 0.87444 0.16163 0.81223 0.0
C714 C 0.87068 0.1722 0.80377 0.0
C715 C 0.88296 0.18549 0.79459 0.0
C716 C 0.89478 0.15312 0.81966 0.0
C717 C 0.85377 0.16961 0.80465 0.0
C718 C 0.77125 0.02789 0.79421 0.0
C719 C 0.77713 0.04641 0.79218 0.0
C720 C 0.80462 0.07131 0.79785 0.0
C721 C 0.82077 0.07595 0.80144 0.0
C722 C 0.83196 0.09153 0.80964 0.0
C723 C 0.82691 0.1029 0.81398 0.0
C724 C 0.81081 0.09863 0.80961 0.0
C725 C 0.79978 0.08282 0.80167 0.0
C726 C 0.84908 0.09572 0.81396 0.0
C727 C 0.80521 0.11069 0.81352 0.0
C728 C 0.83832 0.12581 0.89492 0.0
C729 C 0.85022 0.14102 0.90307 0.0
C730 C 0.86175 0.15469 0.89395 0.0
C731 C 0.86152 0.15329 0.87611 0.0
C732 C 0.87293 0.16685 0.86656 0.0
C733 C 0.8729 0.16521 0.84903 0.0
C734 C 0.86153 0.14991 0.84037 0.0
C735 C 0.86179 0.14794 0.82258 0.0
C736 C 0.85022 0.13261 0.81437 0.0
C737 C 0.83837 0.11903 0.82345 0.0
C738 C 0.83796 0.12073 0.84127 0.0
C739 C 0.82625 0.10732 0.85084 0.0
C740 C 0.82612 0.10905 0.86838 0.0
C741 C 0.83789 0.12412 0.87705 0.0
C742 C 0.84963 0.1379 0.86764 0.0
C743 C 0.84965 0.1362 0.84974 0.0
C744 C 0.93615 0.22178 0.77297 0.0
C745 C 0.92713 0.20852 0.78527 0.0
O746 O 0.80113 0.07795 0.94329 0.0
O747 O 0.79411 0.05567 0.79076 0.0
O748 O 0.91033 0.20201 0.78521 0.0
O749 O 0.90849 0.21213 0.93358 0.0
H750 H 0.80674 0.09729 0.96078 0.0
H751 H 0.82225 0.08413 0.96796 0.0
H752 H 0.80334 0.06427 0.97108 0.0
H753 H 0.80886 0.0825 0.98484 0.0
H754 H 0.79595 0.10144 0.93373 0.0
H755 H 0.82295 0.07752 0.92431 0.0
H756 H 0.82006 0.13793 0.91675 0.0
H757 H 0.79829 0.12244 0.91596 0.0
H758 H 0.8103 0.12721 0.897 0.0
H759 H 0.84562 0.08858 0.90621 0.0
H760 H 0.85547 0.11065 0.90201 0.0
H761 H 0.84082 0.09496 0.8871 0.0
H762 H 0.92248 0.20515 0.94735 0.0
H763 H 0.93516 0.23079 0.96146 0.0
H764 H 0.92567 0.23782 0.95026 0.0
H765 H 0.95529 0.24517 0.93039 0.0
H766 H 0.91238 0.18708 0.92203 0.0
H767 H 0.88063 0.20642 0.92282 0.0
H768 H 0.89269 0.15692 0.88918 0.0
H769 H 0.88369 0.14619 0.90817 0.0
H770 H 0.90548 0.16176 0.90778 0.0
H771 H 0.85497 0.19242 0.90832 0.0
H772 H 0.8448 0.16983 0.9094 0.0
H773 H 0.85361 0.17961 0.88994 0.0
H774 H 0.93286 0.21129 0.79815 0.0
H775 H 0.91482 0.18016 0.80157 0.0
H776 H 0.88022 0.19371 0.78812 0.0
H777 H 0.89483 0.15508 0.83358 0.0
H778 H 0.90707 0.15568 0.81595 0.0
H779 H 0.88538 0.13967 0.81644 0.0
H780 H 0.85305 0.17945 0.79808 0.0
H781 H 0.85036 0.16974 0.81805 0.0
H782 H 0.84456 0.15708 0.79877 0.0
H783 H 0.77352 0.05054 0.80391 0.0
H784 H 0.75763 0.02019 0.79531 0.0
H785 H 0.77682 0.02665 0.80587 0.0
H786 H 0.77491 0.02285 0.78326 0.0
H787 H 0.82444 0.06708 0.79823 0.0
H788 H 0.78744 0.07955 0.79843 0.0
H789 H 0.85162 0.09886 0.82771 0.0
H790 H 0.85826 0.107 0.80717 0.0
H791 H 0.85081 0.08517 0.81049 0.0
H792 H 0.7929 0.10619 0.80787 0.0
H793 H 0.81425 0.12329 0.80874 0.0
H794 H 0.8046 0.11225 0.82742 0.0
H795 H 0.85066 0.14216 0.91678 0.0
H796 H 0.88207 0.17886 0.87256 0.0
H797 H 0.882 0.17607 0.84235 0.0
H798 H 0.85058 0.13114 0.80074 0.0
H799 H 0.81706 0.09532 0.84488 0.0
H800 H 0.8168 0.09834 0.87509 0.0
H801 H 0.94508 0.21004 0.75418 0.0
H802 H 0.94497 0.23358 0.78078 0.0
H803 H 0.92785 0.22639 0.76944 0.0
C804 C 0.81447 0.70809 0.96316 0.0
C805 C 0.80289 0.70837 0.95009 0.0
C806 C 0.8173 0.7082 0.92442 0.0
C807 C 0.82946 0.72551 0.92478 0.0
C808 C 0.84346 0.73168 0.91475 0.0
C809 C 0.84549 0.72028 0.90436 0.0
C810 C 0.83306 0.70291 0.90363 0.0
C811 C 0.81898 0.69716 0.91346 0.0
C812 C 0.85628 0.75034 0.91556 0.0
C813 C 0.83491 0.69032 0.89294 0.0
C814 C 0.93927 0.75198 0.97806 0.0
C815 C 0.93232 0.739 0.96321 0.0
C816 C 0.92647 0.74401 0.93503 0.0
C817 C 0.91483 0.7274 0.92946 0.0
C818 C 0.90348 0.72411 0.91647 0.0
C819 C 0.90356 0.73773 0.90923 0.0
C820 C 0.91567 0.75452 0.91453 0.0
C821 C 0.92725 0.75742 0.9271 0.0
C822 C 0.89108 0.70606 0.91087 0.0
C823 C 0.91595 0.76941 0.90753 0.0
C824 C 0.94267 0.75861 0.80352 0.0
C825 C 0.93142 0.74155 0.80658 0.0
C826 C 0.91613 0.73637 0.81384 0.0
C827 C 0.91215 0.74854 0.81837 0.0
C828 C 0.92328 0.76566 0.81485 0.0
C829 C 0.93832 0.77042 0.80726 0.0
C830 C 0.90431 0.71792 0.81685 0.0
C831 C 0.9194 0.77897 0.81936 0.0
C832 C 0.80166 0.74037 0.80299 0.0
C833 C 0.80753 0.73684 0.78615 0.0
C834 C 0.82701 0.72932 0.7963 0.0
C835 C 0.82887 0.71576 0.79884 0.0
C836 C 0.84252 0.71799 0.80777 0.0
C837 C 0.8546 0.73425 0.81437 0.0
C838 C 0.85311 0.74816 0.81137 0.0
C839 C 0.83938 0.74559 0.80228 0.0
C840 C 0.84383 0.70292 0.81054 0.0
C841 C 0.86587 0.76568 0.81813 0.0
C842 C 0.86123 0.72631 0.89548 0.0
C843 C 0.87468 0.72914 0.90509 0.0
C844 C 0.88984 0.73435 0.89774 0.0
C845 C 0.89164 0.73655 0.88013 0.0
C846 C 0.90652 0.74119 0.87216 0.0
C847 C 0.90821 0.74358 0.85486 0.0
C848 C 0.89502 0.74119 0.84481 0.0
C849 C 0.89657 0.74347 0.82719 0.0
C850 C 0.88322 0.74109 0.81763 0.0
C851 C 0.86828 0.73652 0.8252 0.0
C852 C 0.86647 0.73413 0.84278 0.0
C853 C 0.8516 0.72955 0.85079 0.0
C854 C 0.84987 0.72704 0.86805 0.0
C855 C 0.86293 0.72905 0.87797 0.0
C856 C 0.87815 0.73401 0.87024 0.0
C857 C 0.87988 0.73643 0.85259 0.0
C858 C 0.98497 0.77012 0.80032 0.0
C859 C 0.96667 0.75649 0.7983 0.0
O860 O 0.804 0.70158 0.93461 0.0
O861 O 0.81303 0.726 0.78827 0.0
O862 O 0.95777 0.76417 0.79701 0.0
O863 O 0.93685 0.74744 0.94826 0.0
H864 H 0.80626 0.72159 0.94869 0.0
H865 H 0.82746 0.71595 0.9592 0.0
H866 H 0.81141 0.69498 0.96455 0.0
H867 H 0.81341 0.71327 0.97565 0.0
H868 H 0.82821 0.73431 0.9329 0.0
H869 H 0.80948 0.68386 0.91317 0.0
H870 H 0.86734 0.75265 0.92256 0.0
H871 H 0.85173 0.75779 0.92204 0.0
H872 H 0.86014 0.75494 0.90263 0.0
H873 H 0.8247 0.67712 0.89475 0.0
H874 H 0.84676 0.69149 0.89608 0.0
H875 H 0.83515 0.69298 0.87939 0.0
H876 H 0.91864 0.73166 0.96432 0.0
H877 H 0.93555 0.74559 0.99025 0.0
H878 H 0.93442 0.76039 0.97745 0.0
H879 H 0.95294 0.75984 0.97767 0.0
H880 H 0.91455 0.71703 0.93535 0.0
H881 H 0.93643 0.77019 0.93145 0.0
H882 H 0.88959 0.70476 0.89689 0.0
H883 H 0.87894 0.70221 0.91633 0.0
H884 H 0.8947 0.69731 0.91511 0.0
H885 H 0.92492 0.78147 0.91441 0.0
H886 H 0.90354 0.76759 0.90824 0.0
H887 H 0.91937 0.77049 0.89403 0.0
H888 H 0.96321 0.74915 0.80996 0.0
H889 H 0.93448 0.73223 0.80325 0.0
H890 H 0.94699 0.78351 0.80463 0.0
H891 H 0.90328 0.716 0.83064 0.0
H892 H 0.90837 0.70984 0.81083 0.0
H893 H 0.89185 0.71375 0.81185 0.0
H894 H 0.92985 0.79188 0.81689 0.0
H895 H 0.91622 0.77847 0.83292 0.0
H896 H 0.90853 0.77643 0.81183 0.0
H897 H 0.81766 0.7489 0.78123 0.0
H898 H 0.79682 0.74865 0.8011 0.0
H899 H 0.81194 0.74687 0.81238 0.0
H900 H 0.79179 0.72841 0.80829 0.0
H901 H 0.81936 0.7033 0.79404 0.0
H902 H 0.83834 0.7563 0.80013 0.0
H903 H 0.8428 0.70046 0.82423 0.0
H904 H 0.85605 0.70556 0.80648 0.0
H905 H 0.83407 0.69137 0.80353 0.0
H906 H 0.86295 0.7752 0.81474 0.0
H907 H 0.87811 0.76941 0.81304 0.0
H908 H 0.86679 0.76578 0.8321 0.0
H909 H 0.87333 0.7273 0.91859 0.0
H910 H 0.91702 0.74306 0.87924 0.0
H911 H 0.92001 0.7473 0.84946 0.0
H912 H 0.88449 0.74285 0.80412 0.0
H913 H 0.8411 0.72781 0.84381 0.0
H914 H 0.83815 0.72352 0.87354 0.0
H915 H 0.99237 0.76426 0.8015 0.0
H916 H 0.98702 0.77811 0.81194 0.0
H917 H 0.98931 0.77832 0.78932 0.0
C918 C 0.86088 0.60521 0.36903 0.0
C919 C 0.86588 0.61778 0.38413 0.0
C920 C 0.85181 0.61191 0.411 0.0
C921 C 0.85627 0.62834 0.41608 0.0
C922 C 0.84706 0.63109 0.42814 0.0
C923 C 0.83294 0.6171 0.43499 0.0
C924 C 0.8287 0.60052 0.43016 0.0
C925 C 0.83846 0.59819 0.41848 0.0
C926 C 0.85219 0.64895 0.43324 0.0
C927 C 0.81354 0.58525 0.43681 0.0
C928 C 0.74159 0.63873 0.38748 0.0
C929 C 0.74924 0.63092 0.39632 0.0
C930 C 0.77062 0.63772 0.41735 0.0
C931 C 0.76543 0.62085 0.41995 0.0
C932 C 0.77477 0.61694 0.43013 0.0
C933 C 0.78961 0.63013 0.4378 0.0
C934 C 0.79468 0.64711 0.43552 0.0
C935 C 0.78503 0.65067 0.4254 0.0
C936 C 0.76893 0.5987 0.43246 0.0
C937 C 0.81047 0.66147 0.44349 0.0
C938 C 0.7649 0.62809 0.54855 0.0
C939 C 0.75955 0.61173 0.54208 0.0
C940 C 0.77001 0.60867 0.53224 0.0
C941 C 0.7861 0.6222 0.52887 0.0
C942 C 0.79157 0.6386 0.53556 0.0
C943 C 0.78088 0.6413 0.54532 0.0
C944 C 0.76386 0.59102 0.52531 0.0
C945 C 0.80867 0.65331 0.53226 0.0
C946 C 0.87882 0.58747 0.5427 0.0
C947 C 0.87515 0.60114 0.54729 0.0
C948 C 0.8489 0.59879 0.54208 0.0
C949 C 0.83256 0.58663 0.53771 0.0
C950 C 0.82249 0.59101 0.52957 0.0
C951 C 0.8289 0.60808 0.52609 0.0
C952 C 0.8452 0.62058 0.53124 0.0
C953 C 0.85508 0.6158 0.53913 0.0
C954 C 0.80511 0.57737 0.52445 0.0
C955 C 0.85222 0.63897 0.52825 0.0
C956 C 0.82185 0.6198 0.44595 0.0
C957 C 0.81141 0.62375 0.43806 0.0
C958 C 0.80032 0.62615 0.4473 0.0
C959 C 0.79946 0.6245 0.46499 0.0
C960 C 0.78833 0.62667 0.47466 0.0
C961 C 0.78757 0.62499 0.49207 0.0
C962 C 0.79788 0.62102 0.50047 0.0
C963 C 0.7972 0.6193 0.51817 0.0
C964 C 0.80748 0.61516 0.5261 0.0
C965 C 0.81859 0.61277 0.51685 0.0
C966 C 0.8196 0.61464 0.49916 0.0
C967 C 0.83078 0.61253 0.48948 0.0
C968 C 0.83171 0.61445 0.47209 0.0
C969 C 0.82129 0.61823 0.46367 0.0
C970 C 0.80998 0.6205 0.4732 0.0
C971 C 0.80916 0.61873 0.49096 0.0
C972 C 0.7278 0.61843 0.54635 0.0
C973 C 0.73876 0.62138 0.56176 0.0
O974 O 0.85998 0.6089 0.39874 0.0
O975 O 0.8583 0.59364 0.54908 0.0
O976 O 0.75522 0.63186 0.55784 0.0
O977 O 0.76223 0.642 0.40708 0.0
H978 H 0.86005 0.62517 0.38202 0.0
H979 H 0.84725 0.59685 0.36824 0.0
H980 H 0.86617 0.59725 0.37037 0.0
H981 H 0.86522 0.61197 0.35708 0.0
H982 H 0.8669 0.63899 0.41059 0.0
H983 H 0.83526 0.58557 0.41455 0.0
H984 H 0.84353 0.65185 0.42742 0.0
H985 H 0.86484 0.65828 0.42909 0.0
H986 H 0.85165 0.65042 0.44718 0.0
H987 H 0.81098 0.57332 0.43035 0.0
H988 H 0.80263 0.58629 0.43518 0.0
H989 H 0.81522 0.58455 0.45053 0.0
H990 H 0.75161 0.62238 0.3883 0.0
H991 H 0.74384 0.63749 0.37364 0.0
H992 H 0.75054 0.65285 0.38848 0.0
H993 H 0.71636 0.62648 0.39833 0.0
H994 H 0.75417 0.61067 0.41402 0.0
H995 H 0.78889 0.66363 0.42341 0.0
H996 H 0.77782 0.59587 0.42667 0.0
H997 H 0.75657 0.5899 0.42662 0.0
H998 H 0.76844 0.59634 0.44614 0.0
H999 H 0.81262 0.67399 0.44064 0.0
H1000 H 0.82103 0.66075 0.43883 0.0
H1001 H 0.81013 0.66038 0.45741 0.0
H1002 H 0.73646 0.60911 0.56586 0.0
H1003 H 0.74726 0.60132 0.54454 0.0
H1004 H 0.78491 0.65386 0.55041 0.0
H1005 H 0.76436 0.59091 0.5113 0.0
H1006 H 0.75103 0.58182 0.52908 0.0
H1007 H 0.772 0.58685 0.52988 0.0
H1008 H 0.81114 0.66524 0.53862 0.0
H1009 H 0.81028 0.65507 0.51845 0.0
H1010 H 0.81796 0.65063 0.53674 0.0
H1011 H 0.87956 0.60972 0.53653 0.0
H1012 H 0.89228 0.59318 0.54124 0.0
H1013 H 0.87256 0.5809 0.53053 0.0
H1014 H 0.87434 0.57799 0.55259 0.0
H1015 H 0.82785 0.57357 0.54028 0.0
H1016 H 0.86756 0.62536 0.54307 0.0
H1017 H 0.80318 0.57764 0.51068 0.0
H1018 H 0.79629 0.57975 0.53117 0.0
H1019 H 0.80223 0.5646 0.52736 0.0
H1020 H 0.8646 0.64728 0.53425 0.0
H1021 H 0.84382 0.64283 0.5333 0.0
H1022 H 0.85324 0.6409 0.51446 0.0
H1023 H 0.81185 0.62486 0.42445 0.0
H1024 H 0.78008 0.62969 0.46885 0.0
H1025 H 0.77876 0.62681 0.49886 0.0
H1026 H 0.80686 0.61384 0.53968 0.0
H1027 H 0.83898 0.60942 0.49523 0.0
H1028 H 0.84064 0.61282 0.4653 0.0
H1029 H 0.7146 0.61014 0.54952 0.0
H1030 H 0.73042 0.61219 0.5357 0.0
H1031 H 0.72999 0.63061 0.54211 0.0
C1032 C 0.39374 0.26547 0.3755 0.0
C1033 C 0.38187 0.25726 0.39002 0.0
C1034 C 0.38871 0.24998 0.41658 0.0
C1035 C 0.37295 0.23681 0.42085 0.0
C1036 C 0.37097 0.22506 0.43255 0.0
C1037 C 0.38506 0.22636 0.43989 0.0
C1038 C 0.40097 0.23981 0.43575 0.0
C1039 C 0.40254 0.25167 0.4244 0.0
C1040 C 0.35382 0.2111 0.43689 0.0
C1041 C 0.4163 0.24144 0.44297 0.0
C1042 C 0.37171 0.10421 0.40794 0.0
C1043 C 0.37836 0.12019 0.41807 0.0
C1044 C 0.36997 0.13933 0.42865 0.0
C1045 C 0.38599 0.1527 0.4331 0.0
C1046 C 0.38868 0.1677 0.44092 0.0
C1047 C 0.3751 0.16933 0.44441 0.0
C1048 C 0.359 0.156 0.43972 0.0
C1049 C 0.35666 0.14117 0.43186 0.0
C1050 C 0.40604 0.18176 0.44562 0.0
C1051 C 0.34427 0.15738 0.44322 0.0
C1052 C 0.37417 0.15301 0.5554 0.0
C1053 C 0.39011 0.16447 0.54971 0.0
C1054 C 0.39316 0.17796 0.53992 0.0
C1055 C 0.38003 0.18002 0.53573 0.0
C1056 C 0.36404 0.16864 0.54162 0.0
C1057 C 0.36133 0.15527 0.55138 0.0
C1058 C 0.41036 0.18992 0.53385 0.0
C1059 C 0.34978 0.17048 0.53739 0.0
C1060 C 0.42006 0.31586 0.54921 0.0
C1061 C 0.40639 0.29729 0.55015 0.0
C1062 C 0.40721 0.27177 0.5455 0.0
C1063 C 0.41809 0.26637 0.54267 0.0
C1064 C 0.41261 0.2503 0.53539 0.0
C1065 C 0.3957 0.23922 0.53125 0.0
C1066 C 0.38445 0.24429 0.5349 0.0
C1067 C 0.39035 0.26059 0.54185 0.0
C1068 C 0.42494 0.24527 0.53185 0.0
C1069 C 0.36626 0.23258 0.53121 0.0
C1070 C 0.38312 0.21317 0.45117 0.0
C1071 C 0.37987 0.19793 0.4436 0.0
C1072 C 0.37777 0.18485 0.45332 0.0
C1073 C 0.37872 0.18685 0.47114 0.0
C1074 C 0.37624 0.17376 0.4813 0.0
C1075 C 0.37743 0.17591 0.49882 0.0
C1076 C 0.38133 0.19129 0.50687 0.0
C1077 C 0.38287 0.1937 0.52466 0.0
C1078 C 0.38723 0.2093 0.53224 0.0
C1079 C 0.38997 0.22264 0.52251 0.0
C1080 C 0.388 0.22032 0.50471 0.0
C1081 C 0.39021 0.2333 0.49454 0.0
C1082 C 0.38825 0.23088 0.47705 0.0
C1083 C 0.38457 0.21558 0.46899 0.0
C1084 C 0.38234 0.20234 0.47899 0.0
C1085 C 0.38383 0.20463 0.49687 0.0
C1086 C 0.37495 0.12251 0.58286 0.0
C1087 C 0.38167 0.13543 0.56997 0.0
O1088 O 0.39097 0.26118 0.40491 0.0
O1089 O 0.41348 0.28782 0.55172 0.0
O1090 O 0.37062 0.13966 0.56471 0.0
O1091 O 0.36682 0.1245 0.42133 0.0
H1092 H 0.37487 0.24337 0.38715 0.0
H1093 H 0.40222 0.26079 0.37463 0.0
H1094 H 0.4012 0.27941 0.37759 0.0
H1095 H 0.38683 0.26224 0.36329 0.0
H1096 H 0.36222 0.23577 0.41508 0.0
H1097 H 0.41465 0.26199 0.42109 0.0
H1098 H 0.35146 0.19893 0.43132 0.0
H1099 H 0.34424 0.21318 0.432 0.0
H1100 H 0.35263 0.20999 0.45081 0.0
H1101 H 0.42766 0.25144 0.43699 0.0
H1102 H 0.41566 0.22928 0.44122 0.0
H1103 H 0.41724 0.24455 0.45674 0.0
H1104 H 0.38619 0.12182 0.42923 0.0
H1105 H 0.38486 0.11233 0.38341 0.0
H1106 H 0.35783 0.09716 0.4086 0.0
H1107 H 0.37286 0.09554 0.41649 0.0
H1108 H 0.39644 0.15153 0.43056 0.0
H1109 H 0.34436 0.13083 0.42831 0.0
H1110 H 0.40878 0.19362 0.43999 0.0
H1111 H 0.41535 0.17887 0.44132 0.0
H1112 H 0.40723 0.18402 0.45956 0.0
H1113 H 0.33252 0.1458 0.43899 0.0
H1114 H 0.3456 0.16826 0.43665 0.0
H1115 H 0.34368 0.15978 0.45698 0.0
H1116 H 0.38845 0.13356 0.55951 0.0
H1117 H 0.40018 0.16291 0.55278 0.0
H1118 H 0.34911 0.14641 0.55587 0.0
H1119 H 0.41035 0.18951 0.51982 0.0
H1120 H 0.41931 0.18681 0.53844 0.0
H1121 H 0.41455 0.20302 0.53824 0.0
H1122 H 0.33816 0.1608 0.54326 0.0
H1123 H 0.34785 0.16937 0.52347 0.0
H1124 H 0.35263 0.18318 0.54176 0.0
H1125 H 0.39924 0.29364 0.53801 0.0
H1126 H 0.41469 0.32373 0.54774 0.0
H1127 H 0.42786 0.31754 0.53812 0.0
H1128 H 0.42799 0.32033 0.5608 0.0
H1129 H 0.43104 0.27501 0.54575 0.0
H1130 H 0.38174 0.2645 0.54444 0.0
H1131 H 0.42413 0.24122 0.51832 0.0
H1132 H 0.42204 0.23439 0.53949 0.0
H1133 H 0.43778 0.25571 0.53488 0.0
H1134 H 0.35894 0.23764 0.53657 0.0
H1135 H 0.36179 0.22007 0.53644 0.0
H1136 H 0.36406 0.23062 0.51733 0.0
H1137 H 0.37908 0.19626 0.42992 0.0
H1138 H 0.37332 0.16168 0.47581 0.0
H1139 H 0.37538 0.16538 0.50596 0.0
H1140 H 0.38867 0.21114 0.54589 0.0
H1141 H 0.39337 0.24547 0.49999 0.0
H1142 H 0.38989 0.24125 0.4699 0.0
H1143 H 0.37502 0.11139 0.5769 0.0
H1144 H 0.3611 0.11606 0.58215 0.0
H1145 H 0.38995 0.13648 0.60614 0.0
C1146 C 0.86978 0.25167 0.38332 0.0
C1147 C 0.88147 0.25636 0.39855 0.0
C1148 C 0.86503 0.23315 0.41756 0.0
C1149 C 0.85387 0.23797 0.42222 0.0
C1150 C 0.84071 0.22813 0.43288 0.0
C1151 C 0.8387 0.21325 0.43913 0.0
C1152 C 0.85003 0.20849 0.43471 0.0
C1153 C 0.86304 0.21852 0.42397 0.0
C1154 C 0.82881 0.23353 0.43732 0.0
C1155 C 0.84829 0.19276 0.44127 0.0
C1156 C 0.71671 0.11615 0.4192 0.0
C1157 C 0.7305 0.11485 0.4109 0.0
C1158 C 0.7554 0.13303 0.42869 0.0
C1159 C 0.7668 0.13267 0.4392 0.0
C1160 C 0.78038 0.14755 0.44617 0.0
C1161 C 0.78235 0.16324 0.44287 0.0
C1162 C 0.77097 0.16378 0.43207 0.0
C1163 C 0.75764 0.14865 0.42494 0.0
C1164 C 0.79251 0.14641 0.4572 0.0
C1165 C 0.77271 0.1803 0.42834 0.0
C1166 C 0.75081 0.16377 0.54812 0.0
C1167 C 0.76002 0.1565 0.54398 0.0
C1168 C 0.77527 0.16585 0.53606 0.0
C1169 C 0.78122 0.18268 0.5319 0.0
C1170 C 0.77228 0.19023 0.53674 0.0
C1171 C 0.75727 0.18071 0.54502 0.0
C1172 C 0.78482 0.15761 0.53179 0.0
C1173 C 0.77833 0.2082 0.53272 0.0
C1174 C 0.90387 0.28282 0.54459 0.0
C1175 C 0.89463 0.27295 0.56003 0.0
C1176 C 0.87138 0.24603 0.54792 0.0
C1177 C 0.86551 0.22893 0.54511 0.0
C1178 C 0.85053 0.21805 0.5365 0.0
C1179 C 0.84115 0.2245 0.53063 0.0
C1180 C 0.84685 0.24175 0.53362 0.0
C1181 C 0.86196 0.2524 0.54217 0.0
C1182 C 0.84481 0.19971 0.53352 0.0
C1183 C 0.83704 0.24894 0.52757 0.0
C1184 C 0.82446 0.20248 0.4499 0.0
C1185 C 0.81025 0.189 0.44203 0.0
C1186 C 0.79609 0.1789 0.45126 0.0
C1187 C 0.79577 0.18277 0.46864 0.0
C1188 C 0.7813 0.1738 0.47795 0.0
C1189 C 0.7813 0.17715 0.49522 0.0
C1190 C 0.7959 0.18925 0.50393 0.0
C1191 C 0.79626 0.19207 0.52166 0.0
C1192 C 0.81109 0.20386 0.52994 0.0
C1193 C 0.82561 0.21319 0.52094 0.0
C1194 C 0.82537 0.21098 0.50315 0.0
C1195 C 0.83965 0.22053 0.49364 0.0
C1196 C 0.83932 0.21802 0.47616 0.0
C1197 C 0.82483 0.20556 0.46758 0.0
C1198 C 0.81035 0.19577 0.47694 0.0
C1199 C 0.81052 0.19874 0.49467 0.0
C1200 C 0.70719 0.1351 0.54954 0.0
C1201 C 0.72426 0.13779 0.5518 0.0
O1202 O 0.8777 0.24203 0.40687 0.0
O1203 O 0.88618 0.25577 0.55607 0.0
O1204 O 0.73565 0.15483 0.55498 0.0
O1205 O 0.7424 0.11797 0.42283 0.0
H1206 H 0.88029 0.2652 0.40737 0.0
H1207 H 0.85686 0.24582 0.38747 0.0
H1208 H 0.87045 0.24256 0.37446 0.0
H1209 H 0.87306 0.26314 0.37648 0.0
H1210 H 0.85518 0.24927 0.41753 0.0
H1211 H 0.8717 0.2149 0.42038 0.0
H1212 H 0.81609 0.22332 0.43349 0.0
H1213 H 0.83181 0.24522 0.4311 0.0
H1214 H 0.82897 0.23576 0.45121 0.0
H1215 H 0.85865 0.1913 0.43745 0.0
H1216 H 0.83659 0.18152 0.43638 0.0
H1217 H 0.84772 0.19306 0.45528 0.0
H1218 H 0.73612 0.12411 0.40079 0.0
H1219 H 0.70707 0.1134 0.40963 0.0
H1220 H 0.72161 0.12904 0.42477 0.0
H1221 H 0.711 0.10709 0.42943 0.0
H1222 H 0.76499 0.12057 0.44195 0.0
H1223 H 0.74896 0.14915 0.41674 0.0
H1224 H 0.79085 0.14905 0.47061 0.0
H1225 H 0.80535 0.15595 0.4538 0.0
H1226 H 0.79079 0.13371 0.45613 0.0
H1227 H 0.76221 0.17852 0.42065 0.0
H1228 H 0.78426 0.18821 0.42139 0.0
H1229 H 0.7736 0.18732 0.44035 0.0
H1230 H 0.72701 0.13341 0.53964 0.0
H1231 H 0.75531 0.14353 0.54689 0.0
H1232 H 0.75017 0.18626 0.54853 0.0
H1233 H 0.78402 0.15479 0.51796 0.0
H1234 H 0.77997 0.14563 0.53832 0.0
H1235 H 0.79803 0.16626 0.53531 0.0
H1236 H 0.76955 0.21196 0.53667 0.0
H1237 H 0.78032 0.2098 0.51892 0.0
H1238 H 0.79034 0.21685 0.53925 0.0
H1239 H 0.88587 0.27665 0.56426 0.0
H1240 H 0.91079 0.29659 0.5478 0.0
H1241 H 0.89507 0.28016 0.5341 0.0
H1242 H 0.91264 0.27922 0.54012 0.0
H1243 H 0.87284 0.22413 0.54959 0.0
H1244 H 0.8663 0.26561 0.54416 0.0
H1245 H 0.84327 0.19642 0.51974 0.0
H1246 H 0.83262 0.19166 0.53935 0.0
H1247 H 0.85358 0.19669 0.53885 0.0
H1248 H 0.84278 0.26246 0.53152 0.0
H1249 H 0.82438 0.24172 0.53261 0.0
H1250 H 0.83594 0.24764 0.51357 0.0
H1251 H 0.81031 0.18616 0.42861 0.0
H1252 H 0.76978 0.16412 0.47197 0.0
H1253 H 0.76976 0.16988 0.50169 0.0
H1254 H 0.81138 0.20567 0.54359 0.0
H1255 H 0.85122 0.2301 0.4996 0.0
H1256 H 0.85066 0.22574 0.46948 0.0
H1257 H 0.70368 0.13953 0.56109 0.0
H1258 H 0.69783 0.12152 0.54684 0.0
H1259 H 0.70721 0.1423 0.53874 0.0
C1260 C 0.04618 0.49078 0.29257 0.0
C1261 C 0.03251 0.47549 0.2824 0.0
C1262 C 0.02815 0.48374 0.25509 0.0
C1263 C 0.01121 0.47743 0.25555 0.0
C1264 C 0.00419 0.48393 0.24529 0.0
C1265 C 0.01431 0.49692 0.2343 0.0
C1266 C 0.03128 0.50283 0.23336 0.0
C1267 C 0.03793 0.49599 0.24365 0.0
C1268 C 0.98598 0.47705 0.24629 0.0
C1269 C 0.0424 0.51659 0.22171 0.0
C1270 C 0.99403 0.59364 0.28205 0.0
C1271 C 0.98843 0.57763 0.27232 0.0
C1272 C 0.99875 0.56601 0.25108 0.0
C1273 C 0.01157 0.56973 0.24007 0.0
C1274 C 0.01224 0.55686 0.23115 0.0
C1275 C 0.99957 0.53985 0.23314 0.0
C1276 C 0.98646 0.53597 0.24415 0.0
C1277 C 0.98621 0.54908 0.25309 0.0
C1278 C 0.02651 0.56143 0.21968 0.0
C1279 C 0.97271 0.51796 0.24649 0.0
C1280 C 0.95862 0.53141 0.12964 0.0
C1281 C 0.97562 0.53925 0.13221 0.0
C1282 C 0.98214 0.53083 0.14008 0.0
C1283 C 0.9713 0.51444 0.14595 0.0
C1284 C 0.95412 0.50638 0.1429 0.0
C1285 C 0.94804 0.5149 0.13448 0.0
C1286 C 0.00057 0.53958 0.14232 0.0
C1287 C 0.94213 0.48889 0.14879 0.0
C1288 C 0.96756 0.40197 0.14043 0.0
C1289 C 0.96952 0.41093 0.124 0.0
C1290 C 0.98216 0.44093 0.13281 0.0
C1291 C 0.99642 0.45697 0.13203 0.0
C1292 C 0.9972 0.47126 0.13945 0.0
C1293 C 0.98339 0.46937 0.14803 0.0
C1294 C 0.96887 0.4532 0.14881 0.0
C1295 C 0.96835 0.43916 0.14112 0.0
C1296 C 0.01285 0.48833 0.13832 0.0
C1297 C 0.95395 0.45074 0.15799 0.0
C1298 C 0.00731 0.50483 0.22439 0.0
C1299 C 0.0066 0.51804 0.23227 0.0
C1300 C 0.0001 0.52607 0.22383 0.0
C1301 C 0.99422 0.52094 0.20698 0.0
C1302 C 0.98741 0.52861 0.1982 0.0
C1303 C 0.9819 0.52366 0.18153 0.0
C1304 C 0.98305 0.51089 0.17294 0.0
C1305 C 0.97783 0.50602 0.15585 0.0
C1306 C 0.97849 0.49276 0.14798 0.0
C1307 C 0.98423 0.48415 0.15672 0.0
C1308 C 0.98998 0.48919 0.17363 0.0
C1309 C 0.99615 0.48103 0.18267 0.0
C1310 C 0.00185 0.48613 0.19928 0.0
C1311 C 0.00149 0.49949 0.20754 0.0
C1312 C 0.99507 0.50771 0.19876 0.0
C1313 C 0.98942 0.50263 0.18174 0.0
C1314 C 0.93835 0.55117 0.13701 0.0
C1315 C 0.95445 0.55465 0.12926 0.0
O1316 O 0.03535 0.47809 0.26528 0.0
O1317 O 0.98242 0.42764 0.1256 0.0
O1318 O 0.95219 0.53964 0.12258 0.0
O1319 O 0.99899 0.57905 0.25956 0.0
H1320 H 0.02069 0.47425 0.28597 0.0
H1321 H 0.04614 0.50223 0.28958 0.0
H1322 H 0.05844 0.49291 0.28943 0.0
H1323 H 0.04418 0.48889 0.30634 0.0
H1324 H 0.00343 0.46735 0.26381 0.0
H1325 H 0.05094 0.50054 0.24318 0.0
H1326 H 0.98409 0.4871 0.25136 0.0
H1327 H 0.97957 0.46612 0.25453 0.0
H1328 H 0.98024 0.4731 0.23345 0.0
H1329 H 0.05535 0.51988 0.22254 0.0
H1330 H 0.04212 0.52809 0.22489 0.0
H1331 H 0.03788 0.51252 0.20846 0.0
H1332 H 0.97514 0.57017 0.26854 0.0
H1333 H 4e-05 0.58899 0.30774 0.0
H1334 H 0.98419 0.59651 0.27972 0.0
H1335 H 0.00356 0.60421 0.27426 0.0
H1336 H 0.02119 0.58282 0.23863 0.0
H1337 H 0.97619 0.54599 0.26156 0.0
H1338 H 0.02193 0.55754 0.20642 0.0
H1339 H 0.0325 0.55453 0.22311 0.0
H1340 H 0.03589 0.57518 0.22034 0.0
H1341 H 0.96273 0.5171 0.25444 0.0
H1342 H 0.97772 0.51111 0.25258 0.0
H1343 H 0.96736 0.51147 0.23401 0.0
H1344 H 0.96398 0.56002 0.13959 0.0
H1345 H 0.98376 0.55193 0.12804 0.0
H1346 H 0.93492 0.50894 0.13219 0.0
H1347 H 0.00408 0.54432 0.15565 0.0
H1348 H 0.00726 0.55049 0.13408 0.0
H1349 H 0.00464 0.53067 0.13946 0.0
H1350 H 0.92915 0.48542 0.14759 0.0
H1351 H 0.94477 0.4879 0.16217 0.0
H1352 H 0.94354 0.47961 0.14104 0.0
H1353 H 0.95784 0.41027 0.12116 0.0
H1354 H 0.95758 0.38845 0.13888 0.0
H1355 H 0.96427 0.40774 0.15096 0.0
H1356 H 0.97919 0.40287 0.144 0.0
H1357 H 0.00701 0.45826 0.12559 0.0
H1358 H 0.95718 0.4269 0.14189 0.0
H1359 H 0.01815 0.49335 0.1512 0.0
H1360 H 0.01009 0.4973 0.13288 0.0
H1361 H 0.02222 0.48781 0.13045 0.0
H1362 H 0.94367 0.43731 0.15771 0.0
H1363 H 0.94957 0.45825 0.15214 0.0
H1364 H 0.95732 0.45538 0.17137 0.0
H1365 H 0.01111 0.52208 0.2452 0.0
H1366 H 0.98628 0.53857 0.2041 0.0
H1367 H 0.97674 0.53001 0.17546 0.0
H1368 H 0.97426 0.48891 0.13496 0.0
H1369 H 0.99673 0.47066 0.17698 0.0
H1370 H 0.00654 0.47945 0.20559 0.0
H1371 H 0.92831 0.54572 0.12728 0.0
H1372 H 0.93991 0.56301 0.14264 0.0
H1373 H 0.93471 0.54207 0.14717 0.0
C1374 C 0.43995 0.38832 0.27078 0.0
C1375 C 0.44037 0.40344 0.27956 0.0
C1376 C 0.45404 0.42618 0.25945 0.0
C1377 C 0.45167 0.43633 0.24893 0.0
C1378 C 0.46473 0.449 0.2399 0.0
C1379 C 0.48051 0.45129 0.24117 0.0
C1380 C 0.48304 0.44107 0.25178 0.0
C1381 C 0.46982 0.42872 0.26094 0.0
C1382 C 0.46162 0.45989 0.22899 0.0
C1383 C 0.4997 0.44315 0.25343 0.0
C1384 C 0.58689 0.56732 0.29185 0.0
C1385 C 0.57598 0.55047 0.28354 0.0
C1386 C 0.55408 0.5359 0.26218 0.0
C1387 C 0.55571 0.52189 0.26003 0.0
C1388 C 0.54458 0.50783 0.24972 0.0
C1389 C 0.53147 0.50768 0.24149 0.0
C1390 C 0.5299 0.52183 0.24342 0.0
C1391 C 0.54132 0.53583 0.25367 0.0
C1392 C 0.54676 0.49304 0.24774 0.0
C1393 C 0.51606 0.52206 0.23478 0.0
C1394 C 0.5673 0.5224 0.13514 0.0
C1395 C 0.56919 0.51077 0.1439 0.0
C1396 C 0.55585 0.49756 0.15216 0.0
C1397 C 0.54037 0.49603 0.15178 0.0
C1398 C 0.53833 0.50746 0.14268 0.0
C1399 C 0.55183 0.52046 0.1344 0.0
C1400 C 0.55836 0.48539 0.16156 0.0
C1401 C 0.52196 0.50615 0.14198 0.0
C1402 C 0.43395 0.36365 0.13597 0.0
C1403 C 0.43988 0.382 0.13279 0.0
C1404 C 0.46768 0.4067 0.13672 0.0
C1405 C 0.48359 0.41083 0.1408 0.0
C1406 C 0.49506 0.42651 0.14866 0.0
C1407 C 0.49059 0.43849 0.15203 0.0
C1408 C 0.47484 0.43477 0.14691 0.0
C1409 C 0.46347 0.41883 0.13946 0.0
C1410 C 0.51179 0.43007 0.15377 0.0
C1411 C 0.46988 0.4475 0.14961 0.0
C1412 C 0.49436 0.46436 0.23135 0.0
C1413 C 0.50576 0.47962 0.23977 0.0
C1414 C 0.51914 0.49245 0.23133 0.0
C1415 C 0.52101 0.49025 0.21387 0.0
C1416 C 0.53409 0.50305 0.20491 0.0
C1417 C 0.53585 0.50073 0.18774 0.0
C1418 C 0.5247 0.48545 0.17891 0.0
C1419 C 0.5265 0.48289 0.1615 0.0
C1420 C 0.51515 0.46759 0.15308 0.0
C1421 C 0.50208 0.45454 0.16165 0.0
C1422 C 0.50019 0.45679 0.17912 0.0
C1423 C 0.48741 0.44382 0.18824 0.0
C1424 C 0.48549 0.44624 0.20533 0.0
C1425 C 0.49632 0.46171 0.21402 0.0
C1426 C 0.50956 0.4748 0.2052 0.0
C1427 C 0.51147 0.47236 0.18772 0.0
C1428 C 0.60404 0.55032 0.14533 0.0
C1429 C 0.59654 0.54134 0.12813 0.0
O1430 O 0.44074 0.41409 0.2677 0.0
O1431 O 0.45672 0.3909 0.1303 0.0
O1432 O 0.57994 0.53571 0.12737 0.0
O1433 O 0.56444 0.54957 0.27239 0.0
H1434 H 0.45146 0.41041 0.288 0.0
H1435 H 0.45121 0.39254 0.26331 0.0
H1436 H 0.42911 0.38126 0.26207 0.0
H1437 H 0.43934 0.37966 0.28034 0.0
H1438 H 0.43948 0.43432 0.24789 0.0
H1439 H 0.47196 0.42107 0.26907 0.0
H1440 H 0.47103 0.47342 0.23176 0.0
H1441 H 0.4492 0.45781 0.23091 0.0
H1442 H 0.46267 0.45699 0.21548 0.0
H1443 H 0.49918 0.43289 0.26048 0.0
H1444 H 0.50832 0.45536 0.26024 0.0
H1445 H 0.5048 0.44342 0.24074 0.0
H1446 H 0.57093 0.53962 0.29198 0.0
H1447 H 0.61171 0.57556 0.28141 0.0
H1448 H 0.58408 0.56547 0.30573 0.0
H1449 H 0.58089 0.5748 0.2902 0.0
H1450 H 0.56563 0.52181 0.26636 0.0
H1451 H 0.54019 0.5467 0.25531 0.0
H1452 H 0.53592 0.48171 0.25291 0.0
H1453 H 0.55803 0.49542 0.25435 0.0
H1454 H 0.54744 0.49016 0.23413 0.0
H1455 H 0.51657 0.53405 0.23749 0.0
H1456 H 0.50404 0.51143 0.23899 0.0
H1457 H 0.5166 0.52025 0.2209 0.0
H1458 H 0.59815 0.53048 0.12617 0.0
H1459 H 0.58101 0.51194 0.14449 0.0
H1460 H 0.55045 0.52941 0.12754 0.0
H1461 H 0.5569 0.48692 0.17531 0.0
H1462 H 0.57074 0.48741 0.15951 0.0
H1463 H 0.54887 0.47221 0.15749 0.0
H1464 H 0.52245 0.51617 0.13451 0.0
H1465 H 0.51804 0.50705 0.15499 0.0
H1466 H 0.51245 0.49366 0.13624 0.0
H1467 H 0.43705 0.38705 0.14443 0.0
H1468 H 0.42044 0.35626 0.138 0.0
H1469 H 0.44019 0.36311 0.14746 0.0
H1470 H 0.4368 0.35778 0.12511 0.0
H1471 H 0.48678 0.40145 0.13838 0.0
H1472 H 0.45133 0.41589 0.1358 0.0
H1473 H 0.51419 0.43384 0.16744 0.0
H1474 H 0.52144 0.44075 0.14665 0.0
H1475 H 0.51294 0.41898 0.15129 0.0
H1476 H 0.45838 0.44376 0.14253 0.0
H1477 H 0.47985 0.46009 0.14562 0.0
H1478 H 0.46783 0.44872 0.16327 0.0
H1479 H 0.50435 0.48145 0.25314 0.0
H1480 H 0.54307 0.51505 0.21106 0.0
H1481 H 0.5461 0.51108 0.18149 0.0
H1482 H 0.51659 0.46576 0.13971 0.0
H1483 H 0.47871 0.43162 0.18227 0.0
H1484 H 0.47539 0.43581 0.21166 0.0
H1485 H 0.60234 0.56107 0.1476 0.0
H1486 H 0.61742 0.55511 0.1458 0.0
H1487 H 0.59809 0.54149 0.15568 0.0
C1488 C 0.43736 0.95001 0.29677 0.0
C1489 C 0.43997 0.96491 0.28691 0.0
C1490 C 0.44987 0.96945 0.25817 0.0
C1491 C 0.45861 0.98712 0.25843 0.0
C1492 C 0.47167 0.99611 0.24739 0.0
C1493 C 0.47619 0.98721 0.23605 0.0
C1494 C 0.46681 0.96934 0.23521 0.0
C1495 C 0.45353 0.96069 0.24611 0.0
C1496 C 0.48105 0.01512 0.2483 0.0
C1497 C 0.47135 0.95939 0.22348 0.0
C1498 C 0.57568 0.03895 0.30746 0.0
C1499 C 0.57023 0.02623 0.29244 0.0
C1500 C 0.5613 0.02873 0.2647 0.0
C1501 C 0.55234 0.01166 0.25932 0.0
C1502 C 0.54009 0.00573 0.24666 0.0
C1503 C 0.53649 0.01706 0.23957 0.0
C1504 C 0.54591 0.03441 0.24466 0.0
C1505 C 0.55849 0.04006 0.25689 0.0
C1506 C 0.53067 0.98725 0.24126 0.0
C1507 C 0.54223 0.04688 0.23779 0.0
C1508 C 0.57228 0.04436 0.1342 0.0
C1509 C 0.56346 0.02698 0.13673 0.0
C1510 C 0.5478 0.019 0.14397 0.0
C1511 C 0.54098 0.02868 0.14897 0.0
C1512 C 0.54962 0.04608 0.14582 0.0
C1513 C 0.56508 0.05364 0.13823 0.0
C1514 C 0.53866 0.00029 0.14651 0.0
C1515 C 0.54269 0.05678 0.15083 0.0
C1516 C 0.40944 0.9778 0.13043 0.0
C1517 C 0.42529 0.9945 0.1269 0.0
C1518 C 0.45152 0.99605 0.12971 0.0
C1519 C 0.45735 0.9852 0.12883 0.0
C1520 C 0.47185 0.9893 0.13743 0.0
C1521 C 0.48088 0.00482 0.14684 0.0
C1522 C 0.47548 0.01625 0.14708 0.0
C1523 C 0.46083 0.01174 0.13849 0.0
C1524 C 0.47732 0.97689 0.1368 0.0
C1525 C 0.48509 0.03313 0.15658 0.0
C1526 C 0.49189 0.9965 0.22681 0.0
C1527 C 0.5064 0.00221 0.23606 0.0
C1528 C 0.52174 0.0105 0.22841 0.0
C1529 C 0.52271 0.01287 0.21083 0.0
C1530 C 0.53784 0.02043 0.20254 0.0
C1531 C 0.5387 0.02305 0.1853 0.0
C1532 C 0.52442 0.01811 0.17566 0.0
C1533 C 0.52517 0.02078 0.15813 0.0
C1534 C 0.51079 0.01619 0.14907 0.0
C1535 C 0.49557 0.00882 0.15702 0.0
C1536 C 0.49451 0.00559 0.17442 0.0
C1537 C 0.47932 0.99776 0.1827 0.0
C1538 C 0.47841 0.99475 0.19986 0.0
C1539 C 0.49265 0.9995 0.20939 0.0
C1540 C 0.50812 0.00756 0.20134 0.0
C1541 C 0.50901 0.01038 0.18378 0.0
C1542 C 0.61487 0.06586 0.13914 0.0
C1543 C 0.59998 0.04955 0.1317 0.0
O1544 O 0.43824 0.9606 0.26975 0.0
O1545 O 0.43709 0.99107 0.12164 0.0
O1546 O 0.58768 0.05253 0.12783 0.0
O1547 O 0.57242 0.03455 0.27766 0.0
H1548 H 0.45278 0.97552 0.29006 0.0
H1549 H 0.44687 0.94713 0.29326 0.0
H1550 H 0.42504 0.93856 0.29387 0.0
H1551 H 0.4385 0.95314 0.31058 0.0
H1552 H 0.4554 0.99387 0.26746 0.0
H1553 H 0.44652 0.94703 0.24591 0.0
H1554 H 0.49306 0.0201 0.25487 0.0
H1555 H 0.47423 0.01998 0.25532 0.0
H1556 H 0.48359 0.02005 0.2354 0.0
H1557 H 0.46329 0.94558 0.22498 0.0
H1558 H 0.48432 0.96328 0.22591 0.0
H1559 H 0.47035 0.96205 0.21018 0.0
H1560 H 0.5569 0.01665 0.29411 0.0
H1561 H 0.57382 0.03254 0.31952 0.0
H1562 H 0.56824 0.04484 0.3077 0.0
H1563 H 0.58889 0.04905 0.30652 0.0
H1564 H 0.55484 0.00296 0.2651 0.0
H1565 H 0.56563 0.05325 0.26107 0.0
H1566 H 0.52886 0.98558 0.22732 0.0
H1567 H 0.51832 0.98089 0.24704 0.0
H1568 H 0.53705 0.98092 0.2453 0.0
H1569 H 0.54928 0.05939 0.24464 0.0
H1570 H 0.52888 0.04204 0.23869 0.0
H1571 H 0.54548 0.04864 0.22425 0.0
H1572 H 0.59587 0.04007 0.1416 0.0
H1573 H 0.56876 0.01964 0.13298 0.0
H1574 H 0.57191 0.067 0.13594 0.0
H1575 H 0.53826 0.99809 0.16022 0.0
H1576 H 0.5446 0.99421 0.13998 0.0
H1577 H 0.52575 0.9941 0.14178 0.0
H1578 H 0.55138 0.07032 0.14842 0.0
H1579 H 0.53968 0.05557 0.16446 0.0
H1580 H 0.53108 0.05224 0.1436 0.0
H1581 H 0.42914 0.00232 0.13892 0.0
H1582 H 0.39979 0.98004 0.13515 0.0
H1583 H 0.41187 0.97123 0.14024 0.0
H1584 H 0.40476 0.96948 0.11876 0.0
H1585 H 0.45022 0.97325 0.12173 0.0
H1586 H 0.45677 0.02054 0.13855 0.0
H1587 H 0.47808 0.97334 0.14981 0.0
H1588 H 0.48982 0.98286 0.13141 0.0
H1589 H 0.46881 0.96525 0.12907 0.0
H1590 H 0.48001 0.04114 0.1544 0.0
H1591 H 0.49816 0.03996 0.15271 0.0
H1592 H 0.48488 0.03118 0.17033 0.0
H1593 H 0.50574 0.00022 0.24953 0.0
H1594 H 0.54921 0.02443 0.20931 0.0
H1595 H 0.55072 0.02905 0.17964 0.0
H1596 H 0.51148 0.01849 0.13569 0.0
H1597 H 0.46793 0.99383 0.17601 0.0
H1598 H 0.46641 0.98872 0.20559 0.0
H1599 H 0.62487 0.06379 0.14251 0.0
H1600 H 0.61128 0.07006 0.15079 0.0
H1601 H 0.6196 0.07603 0.12996 0.0
C1602 C 0.54813 0.9906 0.71531 0.0
C1603 C 0.56128 0.00137 0.7289 0.0
C1604 C 0.5475 0.99472 0.7558 0.0
C1605 C 0.5515 0.01061 0.76236 0.0
C1606 C 0.54115 0.01213 0.77388 0.0
C1607 C 0.52651 0.99745 0.77885 0.0
C1608 C 0.52281 0.98137 0.77275 0.0
C1609 C 0.53354 0.98022 0.76146 0.0
C1610 C 0.54565 0.02944 0.78044 0.0
C1611 C 0.50726 0.96546 0.77769 0.0
C1612 C 0.42656 0.00264 0.72696 0.0
C1613 C 0.43653 0.99754 0.73606 0.0
C1614 C 0.45835 0.00815 0.75751 0.0
C1615 C 0.45516 0.99215 0.76127 0.0
C1616 C 0.46565 0.99053 0.77217 0.0
C1617 C 0.47972 0.00517 0.77933 0.0
C1618 C 0.48281 0.02128 0.77585 0.0
C1619 C 0.47197 0.02254 0.76508 0.0
C1620 C 0.46188 0.97314 0.77577 0.0
C1621 C 0.49774 0.03713 0.78324 0.0
C1622 C 0.44864 0.99817 0.88737 0.0
C1623 C 0.44494 0.98349 0.8779 0.0
C1624 C 0.45732 0.98251 0.86946 0.0
C1625 C 0.47368 0.99662 0.87013 0.0
C1626 C 0.47752 0.01132 0.87982 0.0
C1627 C 0.46495 0.0118 0.88851 0.0
C1628 C 0.45288 0.9664 0.85972 0.0
C1629 C 0.49482 0.02662 0.88075 0.0
C1630 C 0.55907 0.95589 0.8751 0.0
C1631 C 0.56057 0.97086 0.88534 0.0
C1632 C 0.53634 0.97281 0.88417 0.0
C1633 C 0.51983 0.96154 0.8797 0.0
C1634 C 0.51055 0.9671 0.87196 0.0
C1635 C 0.51791 0.98448 0.86913 0.0
C1636 C 0.53436 0.9961 0.87463 0.0
C1637 C 0.54346 0.99011 0.88199 0.0
C1638 C 0.49298 0.95435 0.86649 0.0
C1639 C 0.54238 0.01477 0.87248 0.0
C1640 C 0.51443 0.99904 0.78923 0.0
C1641 C 0.50361 0.00211 0.7808 0.0
C1642 C 0.49168 0.00353 0.78951 0.0
C1643 C 0.49068 0.00225 0.80725 0.0
C1644 C 0.47908 0.00401 0.81646 0.0
C1645 C 0.47798 0.00238 0.83388 0.0
C1646 C 0.4882 0.99856 0.8427 0.0
C1647 C 0.48664 0.9961 0.86027 0.0
C1648 C 0.49684 0.99209 0.86861 0.0
C1649 C 0.50856 0.9903 0.85983 0.0
C1650 C 0.51042 0.99289 0.84226 0.0
C1651 C 0.52212 0.99127 0.83301 0.0
C1652 C 0.52371 0.99363 0.81571 0.0
C1653 C 0.51335 0.99724 0.8069 0.0
C1654 C 0.50146 0.99892 0.81595 0.0
C1655 C 0.50012 0.99692 0.83368 0.0
C1656 C 0.4172 0.99833 0.87639 0.0
C1657 C 0.42027 0.99107 0.8919 0.0
O1658 O 0.55687 0.99308 0.74395 0.0
O1659 O 0.54508 0.96668 0.89063 0.0
O1660 O 0.43701 0.99971 0.89568 0.0
O1661 O 0.44872 0.01018 0.74658 0.0
H1662 H 0.56207 0.01364 0.73042 0.0
H1663 H 0.53611 0.98865 0.7192 0.0
H1664 H 0.54671 0.97808 0.7134 0.0
H1665 H 0.5515 0.99704 0.70313 0.0
H1666 H 0.56268 0.0218 0.75844 0.0
H1667 H 0.53074 0.96801 0.75646 0.0
H1668 H 0.53679 0.03239 0.77522 0.0
H1669 H 0.55828 0.03941 0.77688 0.0
H1670 H 0.54476 0.02972 0.79443 0.0
H1671 H 0.50601 0.95396 0.77153 0.0
H1672 H 0.49636 0.96599 0.77415 0.0
H1673 H 0.50717 0.9644 0.7916 0.0
H1674 H 0.44065 0.99027 0.72833 0.0
H1675 H 0.42877 0.00143 0.7131 0.0
H1676 H 0.43384 0.01689 0.72748 0.0
H1677 H 0.40153 0.98703 0.73802 0.0
H1678 H 0.44456 0.98087 0.75568 0.0
H1679 H 0.4743 0.03481 0.76219 0.0
H1680 H 0.46187 0.97175 0.78963 0.0
H1681 H 0.47162 0.97142 0.77037 0.0
H1682 H 0.44978 0.963 0.77032 0.0
H1683 H 0.49829 0.04871 0.77952 0.0
H1684 H 0.50909 0.03774 0.77896 0.0
H1685 H 0.49764 0.03686 0.79724 0.0
H1686 H 0.41536 0.97748 0.88922 0.0
H1687 H 0.43251 0.97263 0.87712 0.0
H1688 H 0.46774 0.02302 0.89593 0.0
H1689 H 0.45398 0.96857 0.84597 0.0
H1690 H 0.44012 0.95592 0.86216 0.0
H1691 H 0.46154 0.96247 0.86309 0.0
H1692 H 0.49565 0.03734 0.88824 0.0
H1693 H 0.49925 0.03071 0.8678 0.0
H1694 H 0.50318 0.02332 0.88659 0.0
H1695 H 0.56584 0.9816 0.87677 0.0
H1696 H 0.57139 0.95895 0.87082 0.0
H1697 H 0.55108 0.95297 0.86376 0.0
H1698 H 0.55354 0.94451 0.88275 0.0
H1699 H 0.5144 0.94825 0.88175 0.0
H1700 H 0.5561 0.9989 0.88607 0.0
H1701 H 0.49114 0.95559 0.85293 0.0
H1702 H 0.48454 0.95682 0.87386 0.0
H1703 H 0.48951 0.94119 0.86841 0.0
H1704 H 0.5544 0.02228 0.87934 0.0
H1705 H 0.53415 0.01901 0.87709 0.0
H1706 H 0.54445 0.0174 0.85885 0.0
H1707 H 0.50427 0.00308 0.76717 0.0
H1708 H 0.47074 0.00671 0.8103 0.0
H1709 H 0.46886 0.00396 0.8403 0.0
H1710 H 0.49533 0.98987 0.88202 0.0
H1711 H 0.53022 0.98818 0.83903 0.0
H1712 H 0.53299 0.99233 0.80927 0.0
H1713 H 0.4038 0.99164 0.87342 0.0
H1714 H 0.4234 0.99671 0.86525 0.0
H1715 H 0.42213 0.012 0.87867 0.0
C1716 C 0.02157 0.56693 0.71715 0.0
C1717 C 0.00946 0.56309 0.73147 0.0
C1718 C 0.01309 0.55466 0.75884 0.0
C1719 C 0.9967 0.54493 0.76392 0.0
C1720 C 0.992 0.53251 0.7758 0.0
C1721 C 0.0039 0.52957 0.7824 0.0
C1722 C 0.02055 0.5397 0.77752 0.0
C1723 C 0.02497 0.55242 0.76609 0.0
C1724 C 0.97423 0.52229 0.78098 0.0
C1725 C 0.03357 0.5367 0.78382 0.0
C1726 C 0.9385 0.41553 0.72522 0.0
C1727 C 0.95458 0.42403 0.73556 0.0
C1728 C 0.96002 0.43862 0.76313 0.0
C1729 C 0.97722 0.44894 0.76233 0.0
C1730 C 0.98601 0.46354 0.77289 0.0
C1731 C 0.97736 0.46806 0.78422 0.0
C1732 C 0.96004 0.45741 0.78532 0.0
C1733 C 0.95164 0.4426 0.77499 0.0
C1734 C 0.00451 0.47433 0.77165 0.0
C1735 C 0.9503 0.46195 0.79694 0.0
C1736 C 0.99243 0.44788 0.88974 0.0
C1737 C 0.00716 0.45741 0.88102 0.0
C1738 C 0.01061 0.47193 0.87287 0.0
C1739 C 0.99906 0.47696 0.87347 0.0
C1740 C 0.98451 0.46773 0.88283 0.0
C1741 C 0.98149 0.45339 0.89102 0.0
C1742 C 0.02648 0.48178 0.86342 0.0
C1743 C 0.97201 0.47282 0.88382 0.0
C1744 C 0.05828 0.61459 0.88591 0.0
C1745 C 0.04249 0.59918 0.89203 0.0
C1746 C 0.03729 0.57075 0.88856 0.0
C1747 C 0.04611 0.5632 0.88425 0.0
C1748 C 0.0383 0.5471 0.8762 0.0
C1749 C 0.02112 0.53816 0.87289 0.0
C1750 C 0.01195 0.54537 0.87817 0.0
C1751 C 0.02017 0.56168 0.88584 0.0
C1752 C 0.04847 0.53979 0.87091 0.0
C1753 C 0.99353 0.53593 0.87551 0.0
C1754 C 0.99871 0.51495 0.79309 0.0
C1755 C 0.99072 0.49895 0.78499 0.0
C1756 C 0.98625 0.48457 0.79383 0.0
C1757 C 0.99009 0.48615 0.81127 0.0
C1758 C 0.98646 0.47207 0.82041 0.0
C1759 C 0.99024 0.47375 0.83759 0.0
C1760 C 0.99785 0.48959 0.84629 0.0
C1761 C 0.00191 0.49145 0.86372 0.0
C1762 C 0.00921 0.50732 0.87205 0.0
C1763 C 0.01289 0.52158 0.86338 0.0
C1764 C 0.00922 0.52003 0.84585 0.0
C1765 C 0.01309 0.53416 0.83662 0.0
C1766 C 0.00948 0.53251 0.81939 0.0
C1767 C 0.00205 0.51671 0.81068 0.0
C1768 C 0.99787 0.50227 0.81976 0.0
C1769 C 0.0016 0.50396 0.83733 0.0
C1770 C 0.97392 0.40572 0.88502 0.0
C1771 C 0.99073 0.42097 0.89055 0.0
O1772 O 0.01772 0.56611 0.74678 0.0
O1773 O 0.04565 0.58675 0.89538 0.0
O1774 O 0.98858 0.43355 0.89735 0.0
O1775 O 0.95114 0.42494 0.75245 0.0
H1776 H 0.9995 0.54951 0.72977 0.0
H1777 H 0.02677 0.55884 0.71788 0.0
H1778 H 0.03186 0.58036 0.71811 0.0
H1779 H 0.01522 0.56429 0.70468 0.0
H1780 H 0.98761 0.54702 0.75855 0.0
H1781 H 0.03762 0.56015 0.76212 0.0
H1782 H 0.96823 0.50948 0.7748 0.0
H1783 H 0.96728 0.52812 0.77726 0.0
H1784 H 0.97341 0.52087 0.79487 0.0
H1785 H 0.04533 0.5441 0.77703 0.0
H1786 H 0.02922 0.52312 0.78231 0.0
H1787 H 0.03605 0.54039 0.79747 0.0
H1788 H 0.96249 0.43698 0.73082 0.0
H1789 H 0.94096 0.41479 0.71158 0.0
H1790 H 0.93264 0.42299 0.7268 0.0
H1791 H 0.92977 0.40259 0.72947 0.0
H1792 H 0.98377 0.44561 0.75343 0.0
H1793 H 0.93836 0.43444 0.77557 0.0
H1794 H 0.01033 0.47811 0.78447 0.0
H1795 H 0.00797 0.48601 0.76515 0.0
H1796 H 0.00957 0.46771 0.76445 0.0
H1797 H 0.9368 0.45321 0.79502 0.0
H1798 H 0.95352 0.475 0.79487 0.0
H1799 H 0.95345 0.46151 0.81028 0.0
H1800 H 0.99847 0.42518 0.8791 0.0
H1801 H 0.01603 0.45361 0.88068 0.0
H1802 H 0.9703 0.44609 0.89808 0.0
H1803 H 0.0237 0.48082 0.84969 0.0
H1804 H 0.03481 0.4771 0.86539 0.0
H1805 H 0.03302 0.49533 0.86754 0.0
H1806 H 0.96119 0.46416 0.89142 0.0
H1807 H 0.96768 0.47294 0.87089 0.0
H1808 H 0.97784 0.4858 0.88955 0.0
H1809 H 0.03319 0.59486 0.88158 0.0
H1810 H 0.05605 0.62471 0.88294 0.0
H1811 H 0.06244 0.61105 0.87424 0.0
H1812 H 0.06824 0.61955 0.89568 0.0
H1813 H 0.05928 0.57024 0.88669 0.0
H1814 H 0.01323 0.56729 0.88977 0.0
H1815 H 0.04634 0.5359 0.85726 0.0
H1816 H 0.04461 0.52836 0.87806 0.0
H1817 H 0.06185 0.54888 0.87322 0.0
H1818 H 0.98796 0.54222 0.88239 0.0
H1819 H 0.98773 0.52285 0.87977 0.0
H1820 H 0.99062 0.53512 0.86183 0.0
H1821 H 0.98802 0.49767 0.77153 0.0
H1822 H 0.9807 0.45959 0.81435 0.0
H1823 H 0.98711 0.46245 0.84396 0.0
H1824 H 0.01226 0.50862 0.88543 0.0
H1825 H 0.01898 0.54668 0.84258 0.0
H1826 H 0.01265 0.54379 0.81295 0.0
H1827 H 0.96558 0.40085 0.89596 0.0
H1828 H 0.97529 0.39549 0.87935 0.0
H1829 H 0.9682 0.40942 0.87537 0.0
C1830 C 0.53492 0.58085 0.72436 0.0
C1831 C 0.54666 0.58641 0.7397 0.0
C1832 C 0.53075 0.56366 0.75933 0.0
C1833 C 0.51904 0.56789 0.76337 0.0
C1834 C 0.50585 0.55788 0.77394 0.0
C1835 C 0.50443 0.54347 0.78076 0.0
C1836 C 0.51639 0.53939 0.77706 0.0
C1837 C 0.52937 0.54955 0.76636 0.0
C1838 C 0.49327 0.56254 0.77762 0.0
C1839 C 0.51531 0.5242 0.78425 0.0
C1840 C 0.38452 0.44335 0.76044 0.0
C1841 C 0.39816 0.4438 0.74982 0.0
C1842 C 0.42346 0.46179 0.76706 0.0
C1843 C 0.43547 0.46162 0.77672 0.0
C1844 C 0.44841 0.47643 0.78461 0.0
C1845 C 0.44918 0.4918 0.78296 0.0
C1846 C 0.43718 0.49217 0.77304 0.0
C1847 C 0.42446 0.47716 0.7651 0.0
C1848 C 0.46117 0.47561 0.79484 0.0
C1849 C 0.4377 0.50838 0.77106 0.0
C1850 C 0.41459 0.48706 0.88705 0.0
C1851 C 0.42562 0.4818 0.88383 0.0
C1852 C 0.44093 0.49264 0.87657 0.0
C1853 C 0.44511 0.50893 0.87217 0.0
C1854 C 0.43435 0.51453 0.87622 0.0
C1855 C 0.41929 0.50356 0.88385 0.0
C1856 C 0.45241 0.48649 0.87314 0.0
C1857 C 0.43849 0.53189 0.87194 0.0
C1858 C 0.55882 0.62209 0.8877 0.0
C1859 C 0.55147 0.60995 0.90217 0.0
C1860 C 0.53225 0.58191 0.88864 0.0
C1861 C 0.52965 0.56592 0.8853 0.0
C1862 C 0.51528 0.55307 0.87695 0.0
C1863 C 0.50328 0.55641 0.87167 0.0
C1864 C 0.50571 0.57251 0.87514 0.0
C1865 C 0.52017 0.58512 0.88362 0.0
C1866 C 0.51304 0.536 0.87356 0.0
C1867 C 0.49314 0.57645 0.8696 0.0
C1868 C 0.49006 0.53229 0.79118 0.0
C1869 C 0.47652 0.51826 0.78306 0.0
C1870 C 0.46241 0.50736 0.79195 0.0
C1871 C 0.46149 0.51073 0.80935 0.0
C1872 C 0.44712 0.50054 0.81844 0.0
C1873 C 0.4465 0.50364 0.83567 0.0
C1874 C 0.46037 0.51681 0.84455 0.0
C1875 C 0.4601 0.51961 0.86222 0.0
C1876 C 0.47418 0.53267 0.87067 0.0
C1877 C 0.48854 0.54324 0.86188 0.0
C1878 C 0.48894 0.54086 0.84417 0.0
C1879 C 0.50308 0.55149 0.8349 0.0
C1880 C 0.50344 0.54883 0.81753 0.0
C1881 C 0.48973 0.53535 0.80878 0.0
C1882 C 0.47534 0.52456 0.81786 0.0
C1883 C 0.47486 0.52745 0.83554 0.0
C1884 C 0.37231 0.4558 0.88293 0.0
C1885 C 0.38925 0.4595 0.88832 0.0
O1886 O 0.54337 0.57256 0.74862 0.0
O1887 O 0.54665 0.59376 0.89648 0.0
O1888 O 0.39928 0.47648 0.893 0.0
O1889 O 0.41115 0.44682 0.76013 0.0
H1890 H 0.54514 0.59531 0.74807 0.0
H1891 H 0.52197 0.57479 0.72843 0.0
H1892 H 0.53593 0.57165 0.71597 0.0
H1893 H 0.53787 0.59195 0.71703 0.0
H1894 H 0.51991 0.57883 0.75822 0.0
H1895 H 0.53848 0.54641 0.76326 0.0
H1896 H 0.48082 0.55188 0.77362 0.0
H1897 H 0.49591 0.57395 0.77108 0.0
H1898 H 0.493 0.5649 0.79144 0.0
H1899 H 0.52623 0.52345 0.78119 0.0
H1900 H 0.50411 0.51255 0.7791 0.0
H1901 H 0.51416 0.52458 0.7982 0.0
H1902 H 0.40257 0.45388 0.74055 0.0
H1903 H 0.37401 0.44065 0.75215 0.0
H1904 H 0.38912 0.45567 0.76727 0.0
H1905 H 0.38006 0.43347 0.76991 0.0
H1906 H 0.43463 0.44973 0.7781 0.0
H1907 H 0.41532 0.47757 0.75759 0.0
H1908 H 0.46006 0.47826 0.80841 0.0
H1909 H 0.47374 0.48537 0.79091 0.0
H1910 H 0.45975 0.46305 0.79346 0.0
H1911 H 0.42707 0.50647 0.76352 0.0
H1912 H 0.44925 0.51758 0.76476 0.0
H1913 H 0.43776 0.51402 0.7837 0.0
H1914 H 0.39423 0.4563 0.87702 0.0
H1915 H 0.42222 0.4692 0.8869 0.0
H1916 H 0.41078 0.50757 0.88668 0.0
H1917 H 0.45241 0.48378 0.85937 0.0
H1918 H 0.44867 0.47481 0.87981 0.0
H1919 H 0.46521 0.49637 0.8771 0.0
H1920 H 0.4285 0.53409 0.87533 0.0
H1921 H 0.44081 0.53364 0.8582 0.0
H1922 H 0.44994 0.54157 0.87882 0.0
H1923 H 0.54068 0.61009 0.90721 0.0
H1924 H 0.56296 0.63512 0.89237 0.0
H1925 H 0.54946 0.61836 0.87751 0.0
H1926 H 0.56947 0.62201 0.88222 0.0
H1927 H 0.53902 0.56355 0.88922 0.0
H1928 H 0.52196 0.59743 0.88603 0.0
H1929 H 0.51293 0.53352 0.85971 0.0
H1930 H 0.501 0.52599 0.87841 0.0
H1931 H 0.52298 0.53509 0.87949 0.0
H1932 H 0.49688 0.58963 0.87313 0.0
H1933 H 0.48113 0.56772 0.87544 0.0
H1934 H 0.49129 0.57443 0.85567 0.0
H1935 H 0.47705 0.51568 0.76966 0.0
H1936 H 0.43615 0.49008 0.81233 0.0
H1937 H 0.43506 0.4954 0.84195 0.0
H1938 H 0.47399 0.53459 0.88425 0.0
H1939 H 0.51404 0.56199 0.84098 0.0
H1940 H 0.51466 0.55737 0.81106 0.0
H1941 H 0.36402 0.44222 0.87919 0.0
H1942 H 0.37357 0.46332 0.87191 0.0
H1943 H 0.36662 0.45916 0.89336 0.0
C1944 C 0.61444 0.75295 0.62565 0.0
C1945 C 0.62253 0.7504 0.61 0.0
C1946 C 0.62952 0.77493 0.59336 0.0
C1947 C 0.61328 0.76943 0.58841 0.0
C1948 C 0.60995 0.77961 0.57889 0.0
C1949 C 0.62308 0.79554 0.57411 0.0
C1950 C 0.63944 0.801 0.57881 0.0
C1951 C 0.64242 0.79059 0.58837 0.0
C1952 C 0.59236 0.77343 0.57405 0.0
C1953 C 0.65372 0.8179 0.57387 0.0
C1954 C 0.59468 0.86957 0.64139 0.0
C1955 C 0.60791 0.87289 0.62852 0.0
C1956 C 0.60413 0.85928 0.60069 0.0
C1957 C 0.62031 0.86351 0.59787 0.0
C1958 C 0.62357 0.85413 0.58604 0.0
C1959 C 0.6103 0.83996 0.57719 0.0
C1960 C 0.59396 0.83582 0.57992 0.0
C1961 C 0.59116 0.84586 0.59134 0.0
C1962 C 0.64117 0.85917 0.58328 0.0
C1963 C 0.57939 0.82052 0.57124 0.0
C1964 C 0.59265 0.85462 0.46931 0.0
C1965 C 0.60926 0.862 0.47405 0.0
C1966 C 0.61461 0.85255 0.48193 0.0
C1967 C 0.60304 0.8355 0.48542 0.0
C1968 C 0.58637 0.82799 0.48028 0.0
C1969 C 0.58148 0.83761 0.47202 0.0
C1970 C 0.6326 0.86078 0.48662 0.0
C1971 C 0.57366 0.80982 0.48356 0.0
C1972 C 0.60297 0.72611 0.46458 0.0
C1973 C 0.60813 0.73801 0.4499 0.0
C1974 C 0.61806 0.76588 0.46392 0.0
C1975 C 0.63205 0.78179 0.4677 0.0
C1976 C 0.63096 0.79426 0.47695 0.0
C1977 C 0.61546 0.79061 0.4827 0.0
C1978 C 0.6012 0.77459 0.47882 0.0
C1979 C 0.60262 0.76242 0.46937 0.0
C1980 C 0.6464 0.81123 0.48083 0.0
C1981 C 0.58448 0.77024 0.48486 0.0
C1982 C 0.61963 0.80672 0.56469 0.0
C1983 C 0.61697 0.81798 0.57407 0.0
C1984 C 0.61343 0.82877 0.56616 0.0
C1985 C 0.61254 0.8284 0.5483 0.0
C1986 C 0.60916 0.83915 0.53987 0.0
C1987 C 0.60766 0.8382 0.52233 0.0
C1988 C 0.6099 0.82674 0.51249 0.0
C1989 C 0.60821 0.82553 0.49465 0.0
C1990 C 0.61045 0.81392 0.48531 0.0
C1991 C 0.61418 0.8033 0.49329 0.0
C1992 C 0.61592 0.80433 0.5111 0.0
C1993 C 0.6196 0.79378 0.51952 0.0
C1994 C 0.62098 0.79464 0.53706 0.0
C1995 C 0.61862 0.80601 0.54685 0.0
C1996 C 0.61502 0.81687 0.53863 0.0
C1997 C 0.61373 0.81606 0.52072 0.0
C1998 C 0.57718 0.88124 0.46929 0.0
C1999 C 0.59227 0.88016 0.46566 0.0
O2000 O 0.63334 0.76574 0.60302 0.0
O2001 O 0.62015 0.75432 0.45524 0.0
O2002 O 0.58701 0.86344 0.46191 0.0
O2003 O 0.60064 0.86774 0.61255 0.0
H2004 H 0.6128 0.74189 0.60052 0.0
H2005 H 0.60705 0.75835 0.62218 0.0
H2006 H 0.62392 0.76168 0.6352 0.0
H2007 H 0.60605 0.74067 0.63142 0.0
H2008 H 0.60309 0.75733 0.59202 0.0
H2009 H 0.6549 0.79473 0.59217 0.0
H2010 H 0.58903 0.78235 0.5794 0.0
H2011 H 0.5835 0.76067 0.57862 0.0
H2012 H 0.59108 0.77304 0.56009 0.0
H2013 H 0.66577 0.82008 0.57803 0.0
H2014 H 0.65234 0.8281 0.57957 0.0
H2015 H 0.65371 0.81877 0.55993 0.0
H2016 H 0.61305 0.86515 0.63202 0.0
H2017 H 0.60015 0.87335 0.65437 0.0
H2018 H 0.58503 0.8559 0.64102 0.0
H2019 H 0.58879 0.87671 0.63852 0.0
H2020 H 0.63039 0.87414 0.60489 0.0
H2021 H 0.57873 0.8428 0.59359 0.0
H2022 H 0.64349 0.85861 0.56958 0.0
H2023 H 0.64345 0.85019 0.58953 0.0
H2024 H 0.65009 0.87207 0.5886 0.0
H2025 H 0.56752 0.81756 0.5768 0.0
H2026 H 0.58044 0.80933 0.57206 0.0
H2027 H 0.5791 0.82283 0.55766 0.0
H2028 H 0.60015 0.88492 0.47735 0.0
H2029 H 0.61805 0.87506 0.47141 0.0
H2030 H 0.56875 0.832 0.46803 0.0
H2031 H 0.63414 0.86236 0.50058 0.0
H2032 H 0.6403 0.87336 0.48118 0.0
H2033 H 0.63717 0.85262 0.48217 0.0
H2034 H 0.56091 0.80664 0.481 0.0
H2035 H 0.57459 0.80706 0.49686 0.0
H2036 H 0.57598 0.80152 0.47523 0.0
H2037 H 0.59716 0.73777 0.44498 0.0
H2038 H 0.59365 0.71298 0.46012 0.0
H2039 H 0.59742 0.72986 0.47479 0.0
H2040 H 0.61376 0.72638 0.47001 0.0
H2041 H 0.64391 0.78439 0.46343 0.0
H2042 H 0.59161 0.75024 0.46653 0.0
H2043 H 0.64863 0.81323 0.49471 0.0
H2044 H 0.6448 0.82139 0.47646 0.0
H2045 H 0.6574 0.81238 0.47475 0.0
H2046 H 0.57465 0.75704 0.48124 0.0
H2047 H 0.58129 0.77887 0.4794 0.0
H2048 H 0.58477 0.77204 0.49882 0.0
H2049 H 0.61753 0.81823 0.58777 0.0
H2050 H 0.60745 0.84831 0.54677 0.0
H2051 H 0.60472 0.84659 0.51658 0.0
H2052 H 0.60894 0.8129 0.47166 0.0
H2053 H 0.62142 0.78467 0.51266 0.0
H2054 H 0.6238 0.78618 0.54285 0.0
H2055 H 0.5688 0.87674 0.45803 0.0
H2056 H 0.58096 0.89444 0.4728 0.0
H2057 H 0.57033 0.87325 0.48 0.0
C2058 C 0.10687 0.7182 0.60838 0.0
C2059 C 0.10694 0.73304 0.61741 0.0
C2060 C 0.12229 0.75676 0.59861 0.0
C2061 C 0.12078 0.76756 0.58824 0.0
C2062 C 0.13445 0.78047 0.58011 0.0
C2063 C 0.15001 0.78235 0.58209 0.0
C2064 C 0.1517 0.77155 0.59267 0.0
C2065 C 0.13786 0.75895 0.60097 0.0
C2066 C 0.13219 0.79202 0.56932 0.0
C2067 C 0.1681 0.77319 0.59505 0.0
C2068 C 0.25674 0.90074 0.63204 0.0
C2069 C 0.24559 0.8834 0.62489 0.0
C2070 C 0.22304 0.86773 0.6043 0.0
C2071 C 0.22487 0.85382 0.60249 0.0
C2072 C 0.21389 0.83959 0.59228 0.0
C2073 C 0.20072 0.83915 0.58383 0.0
C2074 C 0.19881 0.8531 0.58562 0.0
C2075 C 0.21011 0.86728 0.59574 0.0
C2076 C 0.21634 0.82496 0.59056 0.0
C2077 C 0.18478 0.85296 0.57695 0.0
C2078 C 0.22294 0.86049 0.47107 0.0
C2079 C 0.22788 0.84938 0.4749 0.0
C2080 C 0.21846 0.83586 0.4854 0.0
C2081 C 0.20371 0.83342 0.49219 0.0
C2082 C 0.1988 0.84481 0.48867 0.0
C2083 C 0.20853 0.85831 0.47831 0.0
C2084 C 0.22413 0.82406 0.48905 0.0
C2085 C 0.18306 0.84255 0.4956 0.0
C2086 C 0.10458 0.69873 0.4674 0.0
C2087 C 0.11031 0.71739 0.46782 0.0
C2088 C 0.1375 0.74229 0.4748 0.0
C2089 C 0.15373 0.74714 0.47828 0.0
C2090 C 0.16463 0.76245 0.48708 0.0
C2091 C 0.1592 0.77334 0.49214 0.0
C2092 C 0.143 0.76889 0.4879 0.0
C2093 C 0.13225 0.75332 0.4794 0.0
C2094 C 0.18184 0.76686 0.49124 0.0
C2095 C 0.137 0.78048 0.4925 0.0
C2096 C 0.16438 0.79549 0.57286 0.0
C2097 C 0.17569 0.81053 0.58169 0.0
C2098 C 0.18877 0.8239 0.57344 0.0
C2099 C 0.19033 0.82252 0.55576 0.0
C2100 C 0.20283 0.836 0.5469 0.0
C2101 C 0.20378 0.83473 0.5294 0.0
C2102 C 0.19249 0.8198 0.52016 0.0
C2103 C 0.19294 0.81857 0.50233 0.0
C2104 C 0.18202 0.80328 0.49362 0.0
C2105 C 0.17036 0.78918 0.5022 0.0
C2106 C 0.16926 0.79038 0.51996 0.0
C2107 C 0.15734 0.77661 0.52896 0.0
C2108 C 0.15578 0.7782 0.5463 0.0
C2109 C 0.16631 0.79352 0.55537 0.0
C2110 C 0.17904 0.80725 0.54672 0.0
C2111 C 0.18033 0.80578 0.52895 0.0
C2112 C 0.21456 0.87412 0.4397 0.0
C2113 C 0.2284 0.88366 0.45307 0.0
O2114 O 0.10838 0.7444 0.60582 0.0
O2115 O 0.12733 0.72694 0.46699 0.0
O2116 O 0.23223 0.87283 0.46016 0.0
O2117 O 0.23339 0.8817 0.61416 0.0
H2118 H 0.11743 0.73944 0.62665 0.0
H2119 H 0.11865 0.72261 0.60183 0.0
H2120 H 0.09671 0.71177 0.5988 0.0
H2121 H 0.10532 0.70893 0.61769 0.0
H2122 H 0.10876 0.76583 0.58655 0.0
H2123 H 0.13932 0.75082 0.60906 0.0
H2124 H 0.14199 0.80539 0.57226 0.0
H2125 H 0.12 0.79055 0.57117 0.0
H2126 H 0.13316 0.78914 0.55579 0.0
H2127 H 0.16706 0.76279 0.6023 0.0
H2128 H 0.17674 0.78535 0.60194 0.0
H2129 H 0.17351 0.77331 0.58258 0.0
H2130 H 0.24115 0.87314 0.63399 0.0
H2131 H 0.28101 0.90862 0.62038 0.0
H2132 H 0.25471 0.89977 0.64611 0.0
H2133 H 0.25045 0.90792 0.63024 0.0
H2134 H 0.23485 0.85398 0.60898 0.0
H2135 H 0.20879 0.87805 0.59717 0.0
H2136 H 0.2057 0.81368 0.59604 0.0
H2137 H 0.22779 0.82768 0.59704 0.0
H2138 H 0.21684 0.82179 0.57699 0.0
H2139 H 0.18455 0.86446 0.58028 0.0
H2140 H 0.17287 0.8417 0.58045 0.0
H2141 H 0.18589 0.85207 0.56304 0.0
H2142 H 0.22441 0.88928 0.46314 0.0
H2143 H 0.23905 0.85118 0.46939 0.0
H2144 H 0.2046 0.86689 0.47579 0.0
H2145 H 0.2241 0.82249 0.50287 0.0
H2146 H 0.23668 0.82863 0.48426 0.0
H2147 H 0.21543 0.81145 0.48298 0.0
H2148 H 0.18032 0.85172 0.49064 0.0
H2149 H 0.18406 0.84419 0.50959 0.0
H2150 H 0.17253 0.82958 0.49238 0.0
H2151 H 0.10633 0.72017 0.48012 0.0
H2152 H 0.09096 0.69077 0.46835 0.0
H2153 H 0.11014 0.69624 0.47827 0.0
H2154 H 0.10836 0.69508 0.45552 0.0
H2155 H 0.1577 0.73863 0.47447 0.0
H2156 H 0.11983 0.74987 0.47631 0.0
H2157 H 0.18431 0.76954 0.50506 0.0
H2158 H 0.1909 0.77845 0.4848 0.0
H2159 H 0.18385 0.75659 0.48727 0.0
H2160 H 0.12491 0.77621 0.48643 0.0
H2161 H 0.1461 0.79349 0.48871 0.0
H2162 H 0.13569 0.78099 0.50641 0.0
H2163 H 0.17425 0.81189 0.59515 0.0
H2164 H 0.21182 0.8478 0.55335 0.0
H2165 H 0.21347 0.8456 0.52318 0.0
H2166 H 0.18242 0.80243 0.47994 0.0
H2167 H 0.14887 0.76452 0.52267 0.0
H2168 H 0.14621 0.76726 0.55252 0.0
H2169 H 0.21813 0.86804 0.42971 0.0
H2170 H 0.21185 0.88294 0.43376 0.0
H2171 H 0.20306 0.86416 0.44547 0.0
C2172 C 0.14513 0.38352 0.63769 0.0
C2173 C 0.13244 0.37924 0.62357 0.0
C2174 C 0.1463 0.37442 0.59973 0.0
C2175 C 0.15848 0.39145 0.5975 0.0
C2176 C 0.17187 0.39585 0.58695 0.0
C2177 C 0.17316 0.38302 0.5785 0.0
C2178 C 0.1606 0.36591 0.5802 0.0
C2179 C 0.14725 0.36186 0.59069 0.0
C2180 C 0.18492 0.41423 0.58519 0.0
C2181 C 0.1616 0.35189 0.57142 0.0
C2182 C 0.27056 0.40859 0.64912 0.0
C2183 C 0.26147 0.39645 0.63398 0.0
C2184 C 0.25383 0.40242 0.60712 0.0
C2185 C 0.24132 0.3859 0.60218 0.0
C2186 C 0.22956 0.38292 0.58979 0.0
C2187 C 0.23016 0.39676 0.58248 0.0
C2188 C 0.24304 0.41342 0.58716 0.0
C2189 C 0.25494 0.41598 0.59917 0.0
C2190 C 0.21626 0.36498 0.58484 0.0
C2191 C 0.24392 0.42854 0.57998 0.0
C2192 C 0.2679 0.41309 0.47691 0.0
C2193 C 0.25615 0.39612 0.47982 0.0
C2194 C 0.24091 0.39147 0.48692 0.0
C2195 C 0.23747 0.40407 0.49132 0.0
C2196 C 0.24907 0.42108 0.48781 0.0
C2197 C 0.26407 0.42532 0.48044 0.0
C2198 C 0.2286 0.37315 0.48997 0.0
C2199 C 0.24577 0.43483 0.49216 0.0
C2200 C 0.13023 0.40211 0.47299 0.0
C2201 C 0.13595 0.39689 0.45707 0.0
C2202 C 0.15362 0.38791 0.46909 0.0
C2203 C 0.15449 0.37389 0.47244 0.0
C2204 C 0.16784 0.37561 0.48155 0.0
C2205 C 0.18059 0.39181 0.48756 0.0
C2206 C 0.18004 0.40614 0.48387 0.0
C2207 C 0.16661 0.40407 0.47459 0.0
C2208 C 0.16816 0.36009 0.48506 0.0
C2209 C 0.1935 0.42361 0.49002 0.0
C2210 C 0.18837 0.38741 0.56927 0.0
C2211 C 0.20177 0.38997 0.57881 0.0
C2212 C 0.21649 0.39385 0.57121 0.0
C2213 C 0.21794 0.3951 0.55348 0.0
C2214 C 0.23243 0.39861 0.54534 0.0
C2215 C 0.23385 0.40017 0.52792 0.0
C2216 C 0.22073 0.39802 0.51792 0.0
C2217 C 0.22206 0.39961 0.5002 0.0
C2218 C 0.20877 0.39738 0.49066 0.0
C2219 C 0.19412 0.3937 0.49836 0.0
C2220 C 0.19257 0.39211 0.51606 0.0
C2221 C 0.17804 0.38851 0.52422 0.0
C2222 C 0.17661 0.38695 0.54164 0.0
C2223 C 0.18968 0.38898 0.55158 0.0
C2224 C 0.20451 0.39276 0.54364 0.0
C2225 C 0.20592 0.39425 0.52586 0.0
C2226 C 0.30969 0.42376 0.47706 0.0
C2227 C 0.29167 0.4103 0.47293 0.0
O2228 O 0.13367 0.36951 0.61066 0.0
O2229 O 0.13997 0.38516 0.46078 0.0
O2230 O 0.28302 0.41815 0.47074 0.0
O2231 O 0.26485 0.4057 0.61966 0.0
H2232 H 0.13457 0.3911 0.61845 0.0
H2233 H 0.1438 0.39091 0.64822 0.0
H2234 H 0.14347 0.37181 0.64267 0.0
H2235 H 0.15785 0.39124 0.63294 0.0
H2236 H 0.1578 0.40138 0.60411 0.0
H2237 H 0.13773 0.34878 0.59234 0.0
H2238 H 0.19651 0.4171 0.59148 0.0
H2239 H 0.18123 0.42272 0.59094 0.0
H2240 H 0.18757 0.41698 0.57163 0.0
H2241 H 0.1508 0.33922 0.574 0.0
H2242 H 0.17296 0.35255 0.57563 0.0
H2243 H 0.16238 0.35344 0.55756 0.0
H2244 H 0.24806 0.38982 0.63669 0.0
H2245 H 0.26784 0.40152 0.66086 0.0
H2246 H 0.26647 0.41763 0.6508 0.0
H2247 H 0.28408 0.41584 0.64717 0.0
H2248 H 0.24068 0.37534 0.60801 0.0
H2249 H 0.26477 0.42867 0.60299 0.0
H2250 H 0.20444 0.36213 0.5904 0.0
H2251 H 0.21914 0.35576 0.58937 0.0
H2252 H 0.21451 0.36329 0.57089 0.0
H2253 H 0.25367 0.4406 0.58628 0.0
H2254 H 0.23191 0.42756 0.58134 0.0
H2255 H 0.24656 0.42894 0.56629 0.0
H2256 H 0.28697 0.40217 0.48403 0.0
H2257 H 0.25881 0.38649 0.47654 0.0
H2258 H 0.27313 0.43833 0.47789 0.0
H2259 H 0.22725 0.37133 0.50378 0.0
H2260 H 0.23239 0.36472 0.48426 0.0
H2261 H 0.21635 0.36935 0.48467 0.0
H2262 H 0.25643 0.44756 0.48948 0.0
H2263 H 0.24277 0.43464 0.50575 0.0
H2264 H 0.23494 0.43252 0.48471 0.0
H2265 H 0.14688 0.40822 0.45195 0.0
H2266 H 0.1266 0.41116 0.46983 0.0
H2267 H 0.14026 0.40838 0.48267 0.0
H2268 H 0.11955 0.39092 0.47857 0.0
H2269 H 0.1445 0.36149 0.46805 0.0
H2270 H 0.16633 0.41512 0.47191 0.0
H2271 H 0.1672 0.35821 0.49886 0.0
H2272 H 0.18005 0.36181 0.48101 0.0
H2273 H 0.15793 0.34856 0.47848 0.0
H2274 H 0.1911 0.43345 0.48643 0.0
H2275 H 0.20542 0.42657 0.48466 0.0
H2276 H 0.19475 0.42411 0.504 0.0
H2277 H 0.20072 0.38896 0.59243 0.0
H2278 H 0.24287 0.40028 0.55238 0.0
H2279 H 0.24537 0.40307 0.5224 0.0
H2280 H 0.20989 0.39867 0.47708 0.0
H2281 H 0.16757 0.38686 0.51724 0.0
H2282 H 0.16515 0.38417 0.54725 0.0
H2283 H 0.31523 0.4327 0.46671 0.0
H2284 H 0.31689 0.41778 0.47896 0.0
H2285 H 0.31051 0.43099 0.48888 0.0
H2286 H 0.01107 0.36717 0.0579 0.0
H2287 H 0.94987 0.3932 0.09612 0.0
H2288 H 0.97163 0.36417 0.02878 0.0
H2289 H 0.99693 0.409 0.11896 0.0
H2290 H 0.95572 0.37932 0.07275 0.0
H2291 H 0.0039 0.37903 0.08201 0.0
C2292 C 0.0008 0.36886 0.05662 0.0
C2293 C 0.99197 0.36473 0.04127 0.0
C2294 C 0.96476 0.38581 0.08289 0.0
C2295 C 0.98374 0.37833 0.06881 0.0
C2296 C 0.96143 0.39372 0.09621 0.0
C2297 C 0.97295 0.40228 0.10947 0.0
C2298 C 0.97965 0.3863 0.0829 0.0
C2299 C 0.98771 0.40252 0.10899 0.0
C2300 C 0.99678 0.37571 0.07036 0.0
C2301 C 0.97882 0.36724 0.04034 0.0
N2302 N 0.99062 0.39462 0.09594 0.0
N2303 N 0.97511 0.3739 0.05392 0.0
H2304 H 0.66567 0.60215 0.05118 0.0
H2305 H 0.59132 0.56541 0.11622 0.0
H2306 H 0.63 0.61686 0.05382 0.0
H2307 H 0.62244 0.54539 0.10921 0.0
H2308 H 0.60625 0.58527 0.09419 0.0
H2309 H 0.65088 0.58213 0.07323 0.0
C2310 C 0.65473 0.60117 0.05637 0.0
C2311 C 0.64907 0.6112 0.05062 0.0
C2312 C 0.60976 0.57647 0.09736 0.0
C2313 C 0.63212 0.58836 0.07586 0.0
C2314 C 0.60119 0.56509 0.10989 0.0
C2315 C 0.60538 0.55344 0.11422 0.0
C2316 C 0.6228 0.57641 0.08925 0.0
C2317 C 0.61862 0.55393 0.10598 0.0
C2318 C 0.64629 0.58973 0.06895 0.0
C2319 C 0.63483 0.6094 0.05783 0.0
N2320 N 0.62685 0.5652 0.09386 0.0
N2321 N 0.62688 0.59823 0.07007 0.0
H2322 H 0.37381 0.02854 0.06896 0.0
H2323 H 0.43149 0.99585 0.09241 0.0
H2324 H 0.41025 0.03098 0.03488 0.0
H2325 H 0.41084 0.01289 0.13085 0.0
H2326 H 0.42339 0.00824 0.07107 0.0
H2327 H 0.38683 0.02275 0.09194 0.0
C2328 C 0.38468 0.02812 0.06636 0.0
C2329 C 0.39085 0.0301 0.04993 0.0
C2330 C 0.42087 0.00951 0.08421 0.0
C2331 C 0.4056 0.02319 0.07605 0.0
C2332 C 0.42551 0.00245 0.09643 0.0
C2333 C 0.42203 0.00354 0.11353 0.0
C2334 C 0.41228 0.01731 0.089 0.0
C2335 C 0.41389 0.01193 0.11784 0.0
C2336 C 0.39211 0.02482 0.07948 0.0
C2337 C 0.40501 0.02947 0.04731 0.0
N2338 N 0.40912 0.01834 0.10565 0.0
N2339 N 0.41174 0.0258 0.06016 0.0
H2340 H 0.34562 0.97251 0.96574 0.0
H2341 H 0.42961 0.01836 0.91418 0.0
H2342 H 0.38731 0.02213 0.97945 0.0
H2343 H 0.38971 0.96719 0.90294 0.0
H2344 H 0.41405 0.02018 0.93788 0.0
H2345 H 0.36137 0.9704 0.94242 0.0
C2346 C 0.35808 0.98293 0.96389 0.0
C2347 C 0.36513 0.99752 0.97457 0.0
C2348 C 0.40873 0.00851 0.93031 0.0
C2349 C 0.38321 0.99523 0.94787 0.0
C2350 C 0.41764 0.00746 0.91683 0.0
C2351 C 0.4111 0.99245 0.90686 0.0
C2352 C 0.39306 0.99453 0.93371 0.0
C2353 C 0.39532 0.97887 0.91054 0.0
C2354 C 0.36707 0.98173 0.95056 0.0
C2355 C 0.38135 0.01064 0.97154 0.0
N2356 N 0.38686 0.98021 0.92368 0.0
N2357 N 0.38981 0.0092 0.95847 0.0
H2358 H 0.01606 0.39099 0.98179 0.0
H2359 H 0.01119 0.40924 0.88485 0.0
H2360 H 0.0297 0.36963 0.94041 0.0
H2361 H 0.98756 0.42024 0.92534 0.0
H2362 H 0.02206 0.39856 0.90541 0.0
H2363 H 0.00991 0.40596 0.96162 0.0
C2364 C 0.01796 0.38959 0.96848 0.0
C2365 C 0.02328 0.3789 0.96278 0.0
C2366 C 0.01466 0.4035 0.90981 0.0
C2367 C 0.01615 0.39599 0.9396 0.0
C2368 C 0.00854 0.40966 0.89812 0.0
C2369 C 0.99873 0.41592 0.90344 0.0
C2370 C 0.0109 0.40354 0.92697 0.0
C2371 C 0.99533 0.41583 0.92072 0.0
C2372 C 0.01437 0.3981 0.95696 0.0
C2373 C 0.02554 0.37765 0.94537 0.0
N2374 N 0.00142 0.40975 0.93185 0.0
N2375 N 0.02187 0.38601 0.93438 0.0
H2376 H 0.63514 0.63115 0.96469 0.0
H2377 H 0.55283 0.62508 0.9332 0.0
H2378 H 0.60677 0.64489 0.99614 0.0
H2379 H 0.57894 0.60771 0.90297 0.0
H2380 H 0.5732 0.63358 0.95602 0.0
H2381 H 0.61533 0.62352 0.94152 0.0
C2382 C 0.62475 0.63257 0.96673 0.0
C2383 C 0.6226 0.63864 0.9824 0.0
C2384 C 0.57447 0.62788 0.94441 0.0
C2385 C 0.5999 0.62996 0.95593 0.0
C2386 C 0.56285 0.62303 0.9314 0.0
C2387 C 0.5641 0.61548 0.91628 0.0
C2388 C 0.58752 0.62527 0.94224 0.0
C2389 C 0.57745 0.61333 0.91451 0.0
C2390 C 0.61344 0.6282 0.9535 0.0
C2391 C 0.60892 0.64023 0.9843 0.0
N2392 N 0.58861 0.61815 0.92735 0.0
N2393 N 0.5981 0.63592 0.97123 0.0
H2394 H 0.0306 0.62989 0.99373 0.0
H2395 H 0.0192 0.6076 0.89401 0.0
H2396 H 0.00238 0.64112 0.96068 0.0
H2397 H 0.05291 0.6027 0.9253 0.0
H2398 H 0.01129 0.61791 0.91884 0.0
H2399 H 0.03758 0.61817 0.96929 0.0
C2400 C 0.02589 0.62992 0.98135 0.0
C2401 C 0.0159 0.63653 0.97926 0.0
C2402 C 0.02032 0.61446 0.92033 0.0
C2403 C 0.02377 0.62304 0.95127 0.0
C2404 C 0.02475 0.60848 0.90618 0.0
C2405 C 0.0365 0.60401 0.90767 0.0
C2406 C 0.02777 0.61611 0.93611 0.0
C2407 C 0.04359 0.60573 0.92367 0.0
C2408 C 0.02988 0.62322 0.9674 0.0
C2409 C 0.01014 0.63621 0.96291 0.0
N2410 N 0.03911 0.61163 0.93728 0.0
N2411 N 0.01413 0.62956 0.94957 0.0
H2412 H 0.38154 0.38059 0.94883 0.0
H2413 H 0.38123 0.46171 0.92143 0.0
H2414 H 0.35971 0.40315 0.97857 0.0
H2415 H 0.39342 0.43268 0.88786 0.0
H2416 H 0.37649 0.44253 0.94396 0.0
H2417 H 0.3891 0.4017 0.92775 0.0
C2418 C 0.37839 0.39002 0.95098 0.0
C2419 C 0.3699 0.39004 0.96547 0.0
C2420 C 0.3803 0.44042 0.93169 0.0
C2421 C 0.37857 0.41429 0.94136 0.0
C2422 C 0.38305 0.45138 0.91889 0.0
C2423 C 0.38771 0.44875 0.90279 0.0
C2424 C 0.38228 0.42676 0.92839 0.0
C2425 C 0.38986 0.43516 0.9001 0.0
C2426 C 0.38269 0.40206 0.93891 0.0
C2427 C 0.36617 0.4026 0.96756 0.0
N2428 N 0.3871 0.42466 0.91276 0.0
N2429 N 0.37051 0.41421 0.95563 0.0
H2430 H 0.60872 0.96999 0.97794 0.0
H2431 H 0.59214 0.99807 0.88987 0.0
H2432 H 0.64329 0.01657 0.9547 0.0
H2433 H 0.55513 0.95386 0.91473 0.0
H2434 H 0.61117 0.00466 0.9135 0.0
H2435 H 0.58903 0.96328 0.95476 0.0
C2436 C 0.61219 0.97878 0.96796 0.0
C2437 C 0.62768 0.99387 0.96827 0.0
C2438 C 0.59886 0.99356 0.91388 0.0
C2439 C 0.60526 0.9863 0.94178 0.0
C2440 C 0.58799 0.98983 0.9004 0.0
C2441 C 0.57201 0.9755 0.90044 0.0
C2442 C 0.59379 0.9828 0.92747 0.0
C2443 C 0.56732 0.96512 0.91431 0.0
C2444 C 0.60093 0.97497 0.95477 0.0
C2445 C 0.6315 0.00481 0.95503 0.0
N2446 N 0.57818 0.96895 0.92726 0.0
N2447 N 0.62039 0.0008 0.94235 0.0
H2448 H 0.62992 0.03722 0.03086 0.0
H2449 H 0.60853 0.02594 0.12925 0.0
H2450 H 0.64051 0.00792 0.06299 0.0
H2451 H 0.60349 0.06019 0.09902 0.0
H2452 H 0.61873 0.01788 0.10457 0.0
H2453 H 0.61896 0.04478 0.05522 0.0
C2454 C 0.63 0.03242 0.04303 0.0
C2455 C 0.63616 0.02192 0.04486 0.0
C2456 C 0.61529 0.02707 0.10327 0.0
C2457 C 0.62352 0.03043 0.07279 0.0
C2458 C 0.60937 0.03158 0.11732 0.0
C2459 C 0.60488 0.0435 0.11608 0.0
C2460 C 0.61684 0.03462 0.08784 0.0
C2461 C 0.60654 0.05072 0.10043 0.0
C2462 C 0.62372 0.03673 0.05694 0.0
C2463 C 0.63592 0.01607 0.06096 0.0
N2464 N 0.61236 0.04615 0.08692 0.0
N2465 N 0.62966 0.02036 0.07427 0.0
H2466 H 0.99344 0.64799 0.07802 0.0
H2467 H 0.94452 0.54949 0.0956 0.0
H2468 H 0.96855 0.60903 0.03862 0.0
H2469 H 0.97562 0.58887 0.13258 0.0
H2470 H 0.9521 0.5709 0.07469 0.0
H2471 H 0.98567 0.62633 0.09843 0.0
C2472 C 0.98627 0.63487 0.07365 0.0
C2473 C 0.98166 0.63034 0.05656 0.0
C2474 C 0.95738 0.57484 0.08733 0.0
C2475 C 0.97275 0.60539 0.07993 0.0
C2476 C 0.95312 0.56263 0.09923 0.0
C2477 C 0.95976 0.56741 0.11573 0.0
C2478 C 0.96814 0.59197 0.09205 0.0
C2479 C 0.97048 0.58464 0.11991 0.0
C2480 C 0.98189 0.62249 0.08532 0.0
C2481 C 0.97238 0.6131 0.05167 0.0
N2482 N 0.97432 0.59628 0.10817 0.0
N2483 N 0.96823 0.60125 0.0633 0.0
H2484 H 0.37135 0.38847 0.06748 0.0
H2485 H 0.44318 0.37597 0.09905 0.0
H2486 H 0.391 0.36438 0.0366 0.0
H2487 H 0.41601 0.38974 0.13226 0.0
H2488 H 0.4268 0.37527 0.07501 0.0
H2489 H 0.3903 0.39265 0.09035 0.0
C2490 C 0.37971 0.38414 0.06546 0.0
C2491 C 0.3795 0.37596 0.05013 0.0
C2492 C 0.4245 0.37856 0.08754 0.0
C2493 C 0.40125 0.38073 0.07629 0.0
C2494 C 0.43387 0.379 0.10121 0.0
C2495 C 0.43093 0.38293 0.11762 0.0
C2496 C 0.41215 0.38211 0.0903 0.0
C2497 C 0.41868 0.38669 0.1198 0.0
C2498 C 0.39051 0.38651 0.07855 0.0
C2499 C 0.39066 0.37066 0.04824 0.0
N2500 N 0.40973 0.38616 0.1063 0.0
N2501 N 0.40106 0.3731 0.06119 0.0
H2502 H 0.62394 0.69878 0.35507 0.0
H2503 H 0.6376 0.73958 0.44901 0.0
H2504 H 0.66375 0.70835 0.38841 0.0
H2505 H 0.59378 0.72282 0.41893 0.0
H2506 H 0.64802 0.7294 0.42633 0.0
H2507 H 0.61323 0.70862 0.37776 0.0
C2508 C 0.63041 0.70291 0.36716 0.0
C2509 C 0.64478 0.70274 0.36983 0.0
C2510 C 0.63613 0.72796 0.42466 0.0
C2511 C 0.63262 0.7141 0.39581 0.0
C2512 C 0.63022 0.73381 0.43758 0.0
C2513 C 0.61488 0.73216 0.43577 0.0
C2514 C 0.62666 0.72041 0.40979 0.0
C2515 C 0.60573 0.72445 0.42077 0.0
C2516 C 0.62428 0.70852 0.38011 0.0
C2517 C 0.65264 0.70824 0.38577 0.0
N2518 N 0.61178 0.71891 0.40833 0.0
N2519 N 0.64649 0.71374 0.39812 0.0
H2520 H 0.29533 0.978 0.4071 0.0
H2521 H 0.25104 0.8819 0.43281 0.0
H2522 H 0.30521 0.94206 0.38336 0.0
H2523 H 0.23933 0.91733 0.45401 0.0
H2524 H 0.27329 0.90456 0.41697 0.0
H2525 H 0.27718 0.95678 0.42675 0.0
C2526 C 0.29378 0.96568 0.40608 0.0
C2527 C 0.30168 0.96176 0.39344 0.0
C2528 C 0.26599 0.90743 0.42525 0.0
C2529 C 0.28083 0.93733 0.4159 0.0
C2530 C 0.25337 0.89453 0.43435 0.0
C2531 C 0.24346 0.89781 0.44487 0.0
C2532 C 0.26864 0.92369 0.42658 0.0
C2533 C 0.24678 0.91431 0.44617 0.0
C2534 C 0.28339 0.95355 0.41732 0.0
C2535 C 0.29929 0.94561 0.39283 0.0
N2536 N 0.25903 0.92661 0.43709 0.0
N2537 N 0.28897 0.93394 0.40382 0.0
H2538 H 0.07239 0.3794 0.37072 0.0
H2539 H 0.10753 0.36534 0.45572 0.0
H2540 H 0.04528 0.33507 0.4 0.0
H2541 H 0.1331 0.41129 0.42875 0.0
H2542 H 0.08502 0.35359 0.43479 0.0
H2543 H 0.09517 0.39091 0.39123 0.0
C2544 C 0.07121 0.37208 0.38146 0.0
C2545 C 0.05687 0.35624 0.38365 0.0
C2546 C 0.09558 0.36622 0.43338 0.0
C2547 C 0.08295 0.36935 0.40717 0.0
C2548 C 0.10844 0.37288 0.44528 0.0
C2549 C 0.1223 0.38921 0.4438 0.0
C2550 C 0.09651 0.37597 0.41992 0.0
C2551 C 0.12274 0.39857 0.43022 0.0
C2552 C 0.08423 0.37867 0.39318 0.0
C2553 C 0.05607 0.34734 0.39781 0.0
N2554 N 0.11005 0.39181 0.41878 0.0
N2555 N 0.06892 0.354 0.40902 0.0
H2556 H 0.03968 0.33285 0.29172 0.0
H2557 H 0.05768 0.26128 0.26364 0.0
H2558 H 0.04003 0.29882 0.32656 0.0
H2559 H 0.06964 0.30329 0.23317 0.0
H2560 H 0.04864 0.27321 0.28605 0.0
H2561 H 0.04797 0.32038 0.2692 0.0
C2562 C 0.04143 0.32271 0.29463 0.0
C2563 C 0.03919 0.31689 0.31107 0.0
C2564 C 0.05327 0.27983 0.27447 0.0
C2565 C 0.04866 0.30257 0.28533 0.0
C2566 C 0.05843 0.27303 0.2617 0.0
C2567 C 0.06448 0.28135 0.24657 0.0
C2568 C 0.054 0.29497 0.27203 0.0
C2569 C 0.06507 0.29649 0.24466 0.0
C2570 C 0.04622 0.31565 0.28177 0.0
C2571 C 0.04167 0.30375 0.31409 0.0
N2572 N 0.05986 0.30279 0.25722 0.0
N2573 N 0.04624 0.29701 0.30134 0.0
H2574 H 0.69406 0.74011 0.31811 0.0
H2575 H 0.75191 0.78839 0.23036 0.0
H2576 H 0.71215 0.71724 0.2832 0.0
H2577 H 0.72559 0.81199 0.27053 0.0
H2578 H 0.73856 0.76037 0.25236 0.0
H2579 H 0.70678 0.76514 0.30129 0.0
C2580 C 0.70073 0.74035 0.30693 0.0
C2581 C 0.70203 0.72652 0.30207 0.0
C2582 C 0.73682 0.77072 0.25508 0.0
C2583 C 0.71663 0.75517 0.28282 0.0
C2584 C 0.74605 0.78841 0.24208 0.0
C2585 C 0.73801 0.80236 0.24652 0.0
C2586 C 0.7244 0.77005 0.27238 0.0
C2587 C 0.72928 0.80315 0.26733 0.0
C2588 C 0.70796 0.75465 0.29733 0.0
C2589 C 0.71081 0.72758 0.28742 0.0
N2590 N 0.72206 0.7858 0.2773 0.0
N2591 N 0.71781 0.74169 0.27831 0.0
H2592 H 0.28868 0.98227 0.31842 0.0
H2593 H 0.23626 0.92046 0.23977 0.0
H2594 H 0.29372 0.94152 0.2991 0.0
H2595 H 0.22475 0.95465 0.2647 0.0
H2596 H 0.25857 0.92933 0.26037 0.0
H2597 H 0.26642 0.97367 0.29776 0.0
C2598 C 0.28514 0.97154 0.30982 0.0
C2599 C 0.29307 0.96259 0.3105 0.0
C2600 C 0.2511 0.93481 0.26143 0.0
C2601 C 0.26764 0.95271 0.28684 0.0
C2602 C 0.23833 0.9297 0.24972 0.0
C2603 C 0.22837 0.93651 0.25082 0.0
C2604 C 0.25415 0.94705 0.2742 0.0
C2605 C 0.23193 0.94884 0.26364 0.0
C2606 C 0.2724 0.96662 0.29806 0.0
C2607 C 0.28794 0.94877 0.29906 0.0
N2608 N 0.24452 0.9537 0.27486 0.0
N2609 N 0.27558 0.94428 0.2877 0.0
H2610 H 0.67373 0.95859 0.28898 0.0
H2611 H 0.75558 0.95968 0.26517 0.0
H2612 H 0.70874 0.96311 0.32618 0.0
H2613 H 0.72255 0.95964 0.22849 0.0
H2614 H 0.73747 0.95854 0.28777 0.0
H2615 H 0.69028 0.95642 0.26672 0.0
C2616 C 0.68485 0.95903 0.29249 0.0
C2617 C 0.68989 0.96113 0.30949 0.0
C2618 C 0.73412 0.95866 0.27478 0.0
C2619 C 0.70897 0.95872 0.28399 0.0
C2620 C 0.74441 0.95926 0.2619 0.0
C2621 C 0.74044 0.9596 0.24497 0.0
C2622 C 0.71979 0.95848 0.27067 0.0
C2623 C 0.72597 0.95927 0.24139 0.0
C2624 C 0.69432 0.95782 0.27975 0.0
C2625 C 0.70441 0.96157 0.31325 0.0
N2626 N 0.71618 0.95873 0.25412 0.0
N2627 N 0.71347 0.96045 0.30059 0.0
H2628 H 0.01584 0.70658 0.28167 0.0
H2629 H 0.0504 0.80084 0.25545 0.0
H2630 H 0.03599 0.74869 0.31808 0.0
H2631 H 0.04039 0.76029 0.21982 0.0
H2632 H 0.04497 0.78216 0.27867 0.0
H2633 H 0.02428 0.72615 0.25892 0.0
C2634 C 0.02206 0.71996 0.28489 0.0
C2635 C 0.02515 0.72599 0.30182 0.0
C2636 C 0.04418 0.77742 0.26578 0.0
C2637 C 0.03484 0.74853 0.27576 0.0
C2638 C 0.04735 0.7881 0.25254 0.0
C2639 C 0.04615 0.78218 0.23569 0.0
C2640 C 0.03945 0.76062 0.26214 0.0
C2641 C 0.0417 0.76541 0.23263 0.0
C2642 C 0.02694 0.73115 0.27187 0.0
C2643 C 0.03335 0.74349 0.3052 0.0
N2644 N 0.03845 0.75521 0.2457 0.0
N2645 N 0.03782 0.75414 0.29228 0.0
H2646 H 0.28227 0.33539 0.29459 0.0
H2647 H 0.20551 0.25062 0.25283 0.0
H2648 H 0.25778 0.28791 0.31912 0.0
H2649 H 0.23735 0.29513 0.22536 0.0
H2650 H 0.22187 0.26511 0.27863 0.0
H2651 H 0.26322 0.32183 0.27058 0.0
C2652 C 0.27281 0.32212 0.295 0.0
C2653 C 0.27171 0.31275 0.30887 0.0
C2654 C 0.2252 0.27174 0.26698 0.0
C2655 C 0.2498 0.29712 0.28131 0.0
C2656 C 0.21585 0.26351 0.2523 0.0
C2657 C 0.22013 0.27169 0.23695 0.0
C2658 C 0.23887 0.28831 0.26632 0.0
C2659 C 0.23364 0.28837 0.23692 0.0
C2660 C 0.26195 0.31438 0.28124 0.0
C2661 C 0.25915 0.2956 0.30866 0.0
N2662 N 0.24254 0.29611 0.25135 0.0
N2663 N 0.24871 0.28832 0.29506 0.0
H2664 H 0.30199 0.3795 0.37113 0.0
H2665 H 0.2863 0.37846 0.47061 0.0
H2666 H 0.2913 0.338 0.40188 0.0
H2667 H 0.29497 0.41906 0.43964 0.0
H2668 H 0.28682 0.36285 0.44531 0.0
H2669 H 0.29832 0.39366 0.39578 0.0
C2670 C 0.29881 0.37333 0.38305 0.0
C2671 C 0.29701 0.35756 0.38444 0.0
C2672 C 0.28846 0.3751 0.444 0.0
C2673 C 0.29282 0.37374 0.41275 0.0
C2674 C 0.28811 0.38397 0.45842 0.0
C2675 C 0.29044 0.39998 0.45717 0.0
C2676 C 0.29134 0.38237 0.42819 0.0
C2677 C 0.29297 0.40667 0.44111 0.0
C2678 C 0.2967 0.38143 0.39712 0.0
C2679 C 0.29284 0.35016 0.40021 0.0
N2680 N 0.29341 0.39787 0.42726 0.0
N2681 N 0.29096 0.35834 0.41375 0.0
H2682 H 0.6313 0.92284 0.3679 0.0
H2683 H 0.61514 0.91396 0.46711 0.0
H2684 H 0.63872 0.96382 0.40156 0.0
H2685 H 0.59014 0.87154 0.43129 0.0
H2686 H 0.62838 0.93257 0.44362 0.0
H2687 H 0.62042 0.90392 0.39155 0.0
C2688 C 0.63071 0.92786 0.38027 0.0
C2689 C 0.63582 0.9449 0.38276 0.0
C2690 C 0.62013 0.91916 0.44093 0.0
C2691 C 0.62362 0.92344 0.40979 0.0
C2692 C 0.61267 0.90855 0.45431 0.0
C2693 C 0.60173 0.89117 0.45118 0.0
C2694 C 0.61667 0.91235 0.42427 0.0
C2695 C 0.59869 0.88482 0.43432 0.0
C2696 C 0.62447 0.91707 0.39371 0.0
C2697 C 0.63478 0.95075 0.39904 0.0
N2698 N 0.60617 0.89541 0.42149 0.0
N2699 N 0.62885 0.94005 0.41194 0.0
H2700 H 0.08051 0.72836 0.36821 0.0
H2701 H 0.08231 0.71838 0.468 0.0
H2702 H 0.03916 0.71435 0.40058 0.0
H2703 H 0.12005 0.72315 0.43454 0.0
H2704 H 0.06806 0.72104 0.44396 0.0
H2705 H 0.09691 0.73076 0.39294 0.0
C2706 C 0.07492 0.72596 0.38053 0.0
C2707 C 0.05839 0.72101 0.3823 0.0
C2708 C 0.07955 0.72169 0.44189 0.0
C2709 C 0.07708 0.7237 0.41063 0.0
C2710 C 0.0877 0.72025 0.4556 0.0
C2711 C 0.10246 0.72076 0.45327 0.0
C2712 C 0.08615 0.72356 0.42566 0.0
C2713 C 0.1088 0.72291 0.4369 0.0
C2714 C 0.08428 0.72727 0.39463 0.0
C2715 C 0.05182 0.71807 0.39859 0.0
N2716 N 0.1006 0.72421 0.42371 0.0
N2717 N 0.06115 0.71938 0.41209 0.0
H2718 H 0.28476 0.02069 0.6961 0.0
H2719 H 0.30828 0.07766 0.78201 0.0
H2720 H 0.33404 0.0505 0.71738 0.0
H2721 H 0.25958 0.05083 0.75934 0.0
H2722 H 0.31772 0.06711 0.75874 0.0
H2723 H 0.27503 0.03087 0.71948 0.0
C2724 C 0.29353 0.02935 0.70568 0.0
C2725 C 0.31025 0.03476 0.70476 0.0
C2726 C 0.30499 0.06359 0.75877 0.0
C2727 C 0.2992 0.04645 0.73154 0.0
C2728 C 0.29962 0.06965 0.77203 0.0
C2729 C 0.28321 0.0654 0.77239 0.0
C2730 C 0.29384 0.05302 0.74585 0.0
C2731 C 0.2724 0.05464 0.75936 0.0
C2732 C 0.28797 0.03517 0.71902 0.0
C2733 C 0.32105 0.046 0.71754 0.0
N2734 N 0.27791 0.04886 0.7466 0.0
N2735 N 0.31534 0.05145 0.73038 0.0
H2736 H 0.00027 0.28685 0.74121 0.0
H2737 H 0.90832 0.19143 0.75123 0.0
H2738 H 0.95827 0.26721 0.70733 0.0
H2739 H 0.96086 0.21343 0.78773 0.0
H2740 H 0.92792 0.22121 0.73212 0.0
H2741 H 0.98553 0.26068 0.75645 0.0
C2742 C 0.988 0.27704 0.73693 0.0
C2743 C 0.9805 0.27925 0.72297 0.0
C2744 C 0.93334 0.21874 0.74265 0.0
C2745 C 0.96363 0.24941 0.74035 0.0
C2746 C 0.9214 0.19985 0.75363 0.0
C2747 C 0.93182 0.20037 0.7736 0.0
C2748 C 0.95415 0.23367 0.74938 0.0
C2749 C 0.95455 0.21373 0.77661 0.0
C2750 C 0.97961 0.26212 0.74563 0.0
C2751 C 0.96455 0.26609 0.71801 0.0
N2752 N 0.96297 0.23002 0.76482 0.0
N2753 N 0.95663 0.25176 0.72674 0.0
H2754 H 0.73502 0.71832 0.70871 0.0
H2755 H 0.78187 0.70367 0.78287 0.0
H2756 H 0.71973 0.66943 0.72704 0.0
H2757 H 0.80058 0.75195 0.76129 0.0
H2758 H 0.75852 0.69112 0.763 0.0
H2759 H 0.75861 0.73115 0.72841 0.0
C2760 C 0.73659 0.71028 0.71689 0.0
C2761 C 0.72537 0.69276 0.71622 0.0
C2762 C 0.76777 0.70444 0.76249 0.0
C2763 C 0.75232 0.70736 0.73877 0.0
C2764 C 0.78113 0.71158 0.77379 0.0
C2765 C 0.79337 0.72879 0.77345 0.0
C2766 C 0.76647 0.71461 0.75087 0.0
C2767 C 0.79156 0.73857 0.76174 0.0
C2768 C 0.75008 0.71761 0.72811 0.0
C2769 C 0.72806 0.68298 0.72709 0.0
N2770 N 0.77838 0.73134 0.7509 0.0
N2771 N 0.74123 0.69041 0.73791 0.0
H2772 H 0.69026 0.64189 0.64402 0.0
H2773 H 0.75207 0.65532 0.56958 0.0
H2774 H 0.73491 0.6895 0.63515 0.0
H2775 H 0.71534 0.60598 0.58607 0.0
H2776 H 0.74464 0.66805 0.59251 0.0
H2777 H 0.69798 0.62843 0.62188 0.0
C2778 C 0.70169 0.6495 0.63747 0.0
C2779 C 0.71193 0.66687 0.64141 0.0
C2780 C 0.73828 0.65443 0.59124 0.0
C2781 C 0.72077 0.65158 0.61607 0.0
C2782 C 0.74256 0.64715 0.57817 0.0
C2783 C 0.73462 0.62953 0.57621 0.0
C2784 C 0.72569 0.64408 0.60224 0.0
C2785 C 0.722 0.6196 0.58739 0.0
C2786 C 0.7061 0.6418 0.62486 0.0
C2787 C 0.72661 0.6761 0.63252 0.0
N2788 N 0.7179 0.62701 0.59994 0.0
N2789 N 0.73054 0.66836 0.62023 0.0
H2790 H 0.37408 0.06694 0.63319 0.0
H2791 H 0.36916 0.15033 0.59765 0.0
H2792 H 0.33425 0.07478 0.64306 0.0
H2793 H 0.41228 0.13582 0.58008 0.0
H2794 H 0.35565 0.12133 0.61834 0.0
H2795 H 0.38707 0.09179 0.61591 0.0
C2796 C 0.36805 0.07384 0.63171 0.0
C2797 C 0.35305 0.06878 0.63961 0.0
C2798 C 0.36645 0.12499 0.6109 0.0
C2799 C 0.36789 0.09718 0.62002 0.0
C2800 C 0.37522 0.14346 0.59908 0.0
C2801 C 0.39098 0.14486 0.58422 0.0
C2802 C 0.37548 0.11247 0.61019 0.0
C2803 C 0.40242 0.13432 0.58804 0.0
C2804 C 0.37546 0.088 0.62184 0.0
C2805 C 0.34579 0.07819 0.63721 0.0
N2806 N 0.39229 0.11806 0.59972 0.0
N2807 N 0.35333 0.092 0.62769 0.0
H2808 H 0.95811 0.31746 0.64917 0.0
H2809 H 0.91383 0.25966 0.56563 0.0
H2810 H 0.96219 0.27526 0.63311 0.0
H2811 H 0.90344 0.2962 0.58653 0.0
H2812 H 0.93323 0.2666 0.58906 0.0
H2813 H 0.93969 0.31124 0.62508 0.0
C2814 C 0.95517 0.3069 0.64056 0.0
C2815 C 0.96168 0.29683 0.6432 0.0
C2816 C 0.92665 0.27305 0.58858 0.0
C2817 C 0.94058 0.28966 0.61556 0.0
C2818 C 0.91556 0.26906 0.57524 0.0
C2819 C 0.9067 0.27707 0.5744 0.0
C2820 C 0.92913 0.28533 0.60103 0.0
C2821 C 0.90977 0.2895 0.58691 0.0
C2822 C 0.94461 0.30335 0.62682 0.0
C2823 C 0.95743 0.28333 0.6316 0.0
N2824 N 0.92068 0.29321 0.59974 0.0
N2825 N 0.94715 0.28014 0.61828 0.0
H2826 H 0.3312 0.29418 0.61387 0.0
H2827 H 0.41202 0.296 0.58405 0.0
H2828 H 0.36742 0.29731 0.64846 0.0
H2829 H 0.37626 0.29404 0.54977 0.0
H2830 H 0.39486 0.29435 0.60785 0.0
H2831 H 0.34646 0.29187 0.59026 0.0
C2832 C 0.34231 0.29427 0.61652 0.0
C2833 C 0.34809 0.29605 0.63318 0.0
C2834 C 0.39068 0.29412 0.59512 0.0
C2835 C 0.3657 0.29349 0.60616 0.0
C2836 C 0.40044 0.29501 0.58156 0.0
C2837 C 0.39543 0.29497 0.56494 0.0
C2838 C 0.37587 0.29334 0.59205 0.0
C2839 C 0.38047 0.29395 0.56239 0.0
C2840 C 0.35103 0.29297 0.60302 0.0
C2841 C 0.36254 0.29603 0.63583 0.0
N2842 N 0.37123 0.29321 0.57579 0.0
N2843 N 0.37089 0.29488 0.62246 0.0
H2844 H 0.71234 0.09411 0.64928 0.0
H2845 H 0.72259 0.10764 0.54979 0.0
H2846 H 0.70991 0.05734 0.61271 0.0
H2847 H 0.72511 0.14447 0.58619 0.0
H2848 H 0.71992 0.08988 0.57291 0.0
H2849 H 0.71898 0.11355 0.62664 0.0
C2850 C 0.71329 0.09014 0.63651 0.0
C2851 C 0.71046 0.07401 0.63288 0.0
C2852 C 0.72122 0.10192 0.57589 0.0
C2853 C 0.71801 0.09622 0.60687 0.0
C2854 C 0.72279 0.11206 0.5627 0.0
C2855 C 0.72423 0.12759 0.56612 0.0
C2856 C 0.7209 0.10726 0.59265 0.0
C2857 C 0.72419 0.13265 0.58305 0.0
C2858 C 0.71708 0.10127 0.62358 0.0
C2859 C 0.71192 0.06962 0.61609 0.0
N2860 N 0.72249 0.12248 0.59568 0.0
N2861 N 0.71551 0.08062 0.60371 0.0
H2862 H 0.91838 0.62593 0.64824 0.0
H2863 H 0.90207 0.63343 0.55113 0.0
H2864 H 0.94784 0.67103 0.62058 0.0
H2865 H 0.86905 0.59045 0.57999 0.0
H2866 H 0.91829 0.64786 0.57687 0.0
H2867 H 0.89947 0.61309 0.62388 0.0
C2868 C 0.92082 0.63319 0.6371 0.0
C2869 C 0.9348 0.64955 0.63642 0.0
C2870 C 0.90741 0.63534 0.57765 0.0
C2871 C 0.91325 0.63489 0.60847 0.0
C2872 C 0.89815 0.62712 0.56296 0.0
C2873 C 0.88421 0.61075 0.56346 0.0
C2874 C 0.90283 0.62705 0.59296 0.0
C2875 C 0.87971 0.60309 0.57909 0.0
C2876 C 0.91001 0.62585 0.6232 0.0
C2877 C 0.93729 0.65836 0.62167 0.0
N2878 N 0.88907 0.61125 0.5932 0.0
N2879 N 0.9267 0.65088 0.60826 0.0
H2880 H 0.95613 0.67619 0.73039 0.0
H2881 H 0.96645 0.76302 0.76466 0.0
H2882 H 0.96694 0.71683 0.69826 0.0
H2883 H 0.96103 0.72453 0.79693 0.0
H2884 H 0.96401 0.74522 0.73988 0.0
H2885 H 0.95524 0.69265 0.7546 0.0
C2886 C 0.95823 0.68855 0.7284 0.0
C2887 C 0.9617 0.69517 0.71226 0.0
C2888 C 0.96322 0.7406 0.75237 0.0
C2889 C 0.96072 0.71412 0.74 0.0
C2890 C 0.96455 0.75072 0.76648 0.0
C2891 C 0.96381 0.74515 0.78283 0.0
C2892 C 0.9612 0.72482 0.75463 0.0
C2893 C 0.96155 0.72923 0.78454 0.0
C2894 C 0.95775 0.69795 0.74225 0.0
C2895 C 0.9643 0.71125 0.71047 0.0
N2896 N 0.96035 0.71963 0.77062 0.0
N2897 N 0.96381 0.7202 0.72418 0.0
H2898 H 0.29144 0.25826 0.69271 0.0
H2899 H 0.28096 0.24744 0.79237 0.0
H2900 H 0.29945 0.29822 0.72826 0.0
H2901 H 0.25704 0.20516 0.75627 0.0
H2902 H 0.29122 0.26658 0.76899 0.0
H2903 H 0.28189 0.23881 0.71589 0.0
C2904 C 0.29118 0.26294 0.70537 0.0
C2905 C 0.2962 0.27987 0.70855 0.0
C2906 C 0.28383 0.25311 0.76618 0.0
C2907 C 0.2855 0.25779 0.73508 0.0
C2908 C 0.27808 0.2422 0.7795 0.0
C2909 C 0.26842 0.22469 0.77627 0.0
C2910 C 0.27992 0.24648 0.74946 0.0
C2911 C 0.26472 0.21855 0.75935 0.0
C2912 C 0.28571 0.25183 0.71857 0.0
C2913 C 0.29561 0.28525 0.7252 0.0
N2914 N 0.27055 0.22944 0.74657 0.0
N2915 N 0.29045 0.27427 0.73785 0.0
H2916 H 0.73515 0.03444 0.69204 0.0
H2917 H 0.75363 0.05461 0.79113 0.0
H2918 H 0.71476 0.05752 0.72334 0.0
H2919 H 0.78204 0.04206 0.75844 0.0
H2920 H 0.73914 0.05557 0.76634 0.0
H2921 H 0.75236 0.03689 0.71604 0.0
C2922 C 0.73436 0.04011 0.70391 0.0
C2923 C 0.72344 0.04571 0.70569 0.0
C2924 C 0.74863 0.05273 0.76455 0.0
C2925 C 0.743 0.04844 0.73322 0.0
C2926 C 0.75689 0.05219 0.77869 0.0
C2927 C 0.76903 0.04826 0.7768 0.0
C2928 C 0.75237 0.04909 0.74837 0.0
C2929 C 0.77274 0.04514 0.7604 0.0
C2930 C 0.7442 0.04153 0.7176 0.0
C2931 C 0.72296 0.05299 0.72137 0.0
N2932 N 0.76436 0.0455 0.74682 0.0
N2933 N 0.7325 0.05402 0.73455 0.0
H2934 H 0.06888 0.38071 0.05225 0.0
H2935 H 0.11225 0.31999 0.0535 0.0
H2936 H 0.05671 0.33983 0.01601 0.0
H2937 H 0.12853 0.37227 0.09248 0.0
H2938 H 0.09033 0.32751 0.03673 0.0
H2939 H 0.08964 0.37673 0.06496 0.0
C2940 C 0.07064 0.37098 0.04688 0.0
C2941 C 0.06102 0.3606 0.03302 0.0
C2942 C 0.09812 0.33551 0.04721 0.0
C2943 C 0.08469 0.35593 0.0476 0.0
C2944 C 0.11227 0.33133 0.05672 0.0
C2945 C 0.12118 0.34399 0.07691 0.0
C2946 C 0.0967 0.35281 0.05535 0.0
C2947 C 0.12253 0.3643 0.08127 0.0
C2948 C 0.08249 0.3687 0.05417 0.0
C2949 C 0.06385 0.34815 0.02665 0.0
N2950 N 0.10878 0.36561 0.07073 0.0
N2951 N 0.07539 0.34611 0.03405 0.0
H2952 H 0.70056 0.71674 0.00952 0.0
H2953 H 0.67197 0.76407 0.07363 0.0
H2954 H 0.65971 0.69052 0.04312 0.0
H2955 H 0.71885 0.78914 0.0489 0.0
H2956 H 0.66605 0.7371 0.06093 0.0
H2957 H 0.70622 0.74358 0.02213 0.0
C2958 C 0.69275 0.71662 0.01952 0.0
C2959 C 0.67965 0.70137 0.02529 0.0
C2960 C 0.67769 0.74849 0.0584 0.0
C2961 C 0.68605 0.73204 0.03975 0.0
C2962 C 0.68109 0.76385 0.06568 0.0
C2963 C 0.69612 0.77878 0.06265 0.0
C2964 C 0.68926 0.7481 0.04775 0.0
C2965 C 0.70728 0.77786 0.05182 0.0
C2966 C 0.69603 0.73195 0.02675 0.0
C2967 C 0.66996 0.70199 0.03831 0.0
N2968 N 0.70363 0.76278 0.04477 0.0
N2969 N 0.67334 0.71708 0.04508 0.0
H2970 H 0.28567 0.98869 0.00611 0.0
H2971 H 0.23732 0.91527 0.07114 0.0
H2972 H 0.3102 0.97358 0.03989 0.0
H2973 H 0.21532 0.93789 0.0445 0.0
H2974 H 0.2638 0.93489 0.05834 0.0
H2975 H 0.25937 0.96822 0.01829 0.0
C2976 C 0.28554 0.981 0.01602 0.0
C2977 C 0.3002 0.98291 0.02203 0.0
C2978 C 0.2532 0.93564 0.0554 0.0
C2979 C 0.27005 0.95945 0.03609 0.0
C2980 C 0.23813 0.92452 0.06276 0.0
C2981 C 0.22422 0.92529 0.05922 0.0
C2982 C 0.25429 0.94739 0.04417 0.0
C2983 C 0.22583 0.93714 0.04785 0.0
C2984 C 0.2705 0.96935 0.02302 0.0
C2985 C 0.29921 0.97257 0.0349 0.0
N2986 N 0.24057 0.94772 0.04076 0.0
N2987 N 0.2844 0.96129 0.04152 0.0
H2988 H 0.33789 0.0382 0.95986 0.0
H2989 H 0.31024 0.10406 0.97637 0.0
H2990 H 0.34188 0.06141 0.00933 0.0
H2991 H 0.28981 0.06515 0.9365 0.0
H2992 H 0.32625 0.09264 0.98671 0.0
H2993 H 0.32502 0.05252 0.9491 0.0
C2994 C 0.33622 0.04645 0.96846 0.0
C2995 C 0.34086 0.04849 0.98559 0.0
C2996 C 0.31822 0.08662 0.97573 0.0
C2997 C 0.32608 0.06495 0.97325 0.0
C2998 C 0.30904 0.09307 0.96986 0.0
C2999 C 0.29831 0.08525 0.95581 0.0
C3000 C 0.317 0.07256 0.96722 0.0
C3001 C 0.29769 0.07139 0.94753 0.0
C3002 C 0.32879 0.05456 0.96229 0.0
C3003 C 0.33841 0.0594 0.99606 0.0
N3004 N 0.30688 0.06549 0.95337 0.0
N3005 N 0.33113 0.06722 0.98973 0.0
H3006 H 0.96731 0.31461 0.96079 0.0
H3007 H 0.95497 0.21644 0.94604 0.0
H3008 H 0.99347 0.29744 0.98927 0.0
H3009 H 0.92536 0.23864 0.91176 0.0
H3010 H 0.9717 0.24913 0.9636 0.0
H3011 H 0.95293 0.28746 0.94488 0.0
C3012 C 0.96997 0.30512 0.96377 0.0
C3013 C 0.98166 0.30834 0.97636 0.0
C3014 C 0.96291 0.24626 0.95353 0.0
C3015 C 0.96533 0.27737 0.95816 0.0
C3016 C 0.95355 0.22651 0.94207 0.0
C3017 C 0.93612 0.22281 0.92847 0.0
C3018 C 0.95744 0.26113 0.94846 0.0
C3019 C 0.93478 0.2405 0.92062 0.0
C3020 C 0.96178 0.28965 0.95465 0.0
C3021 C 0.98459 0.29555 0.97966 0.0
N3022 N 0.94475 0.25754 0.93278 0.0
N3023 N 0.97651 0.28062 0.97057 0.0
H3024 H 0.71534 0.67636 0.00836 0.0
H3025 H 0.77851 0.67458 0.94362 0.0
H3026 H 0.69953 0.63799 0.96821 0.0
H3027 H 0.78791 0.71946 0.97153 0.0
H3028 H 0.75064 0.65914 0.95498 0.0
H3029 H 0.74331 0.69022 0.99782 0.0
C3030 C 0.71776 0.67074 0.99741 0.0
C3031 C 0.70502 0.65601 0.98909 0.0
C3032 C 0.75879 0.6724 0.9585 0.0
C3033 C 0.7371 0.67192 0.97694 0.0
C3034 C 0.77465 0.68123 0.95198 0.0
C3035 C 0.78539 0.69848 0.95629 0.0
C3036 C 0.7538 0.68075 0.96974 0.0
C3037 C 0.7799 0.70629 0.96762 0.0
C3038 C 0.73373 0.67874 0.99135 0.0
C3039 C 0.70895 0.64936 0.97495 0.0
N3040 N 0.76451 0.69738 0.97396 0.0
N3041 N 0.72467 0.65738 0.96929 0.0
H3042 H 0.95249 0.6659 0.99964 0.0
H3043 H 0.9613 0.74314 0.95104 0.0
H3044 H 0.99196 0.69572 0.96563 0.0
H3045 H 0.918 0.7088 0.97851 0.0
H3046 H 0.97224 0.72522 0.95545 0.0
H3047 H 0.93901 0.6806 0.99126 0.0
C3048 C 0.95824 0.6754 0.99029 0.0
C3049 C 0.97344 0.67966 0.98343 0.0
C3050 C 0.96024 0.72145 0.96032 0.0
C3051 C 0.95817 0.69663 0.97389 0.0
C3052 C 0.95398 0.73166 0.95774 0.0
C3053 C 0.9386 0.72727 0.96418 0.0
C3054 C 0.95121 0.70692 0.96969 0.0
C3055 C 0.92981 0.71248 0.97315 0.0
C3056 C 0.95055 0.6838 0.98552 0.0
C3057 C 0.9803 0.69207 0.97134 0.0
N3058 N 0.93627 0.70287 0.97572 0.0
N3059 N 0.9727 0.7002 0.96708 0.0
H3060 H 0.30534 0.31346 0.95903 0.0
H3061 H 0.29272 0.22337 0.9728 0.0
H3062 H 0.33779 0.30608 0.9898 0.0
H3063 H 0.26011 0.23059 0.94225 0.0
H3064 H 0.31106 0.25397 0.97666 0.0
H3065 H 0.29045 0.28362 0.95012 0.0
C3066 C 0.30946 0.30562 0.96378 0.0
C3067 C 0.32274 0.31226 0.97533 0.0
C3068 C 0.3 0.2489 0.96895 0.0
C3069 C 0.30564 0.27802 0.96526 0.0
C3070 C 0.28956 0.23145 0.96672 0.0
C3071 C 0.27495 0.22449 0.95712 0.0
C3072 C 0.29571 0.2595 0.96168 0.0
C3073 C 0.27133 0.23548 0.94965 0.0
C3074 C 0.30092 0.28855 0.95869 0.0
C3075 C 0.32756 0.30149 0.98097 0.0
N3076 N 0.28159 0.25245 0.95217 0.0
N3077 N 0.31892 0.28488 0.976 0.0
H3078 H 0.71299 0.06052 0.01522 0.0
H3079 H 0.7734 0.05132 0.95186 0.0
H3080 H 0.69795 0.01647 0.98255 0.0
H3081 H 0.78725 0.09748 0.98007 0.0
H3082 H 0.74545 0.03854 0.9626 0.0
H3083 H 0.74011 0.07456 0.00221 0.0
C3084 C 0.71535 0.05383 0.00528 0.0
C3085 C 0.70318 0.03726 1.00004 0.0
C3086 C 0.75454 0.05153 0.9663 0.0
C3087 C 0.73419 0.05322 0.98514 0.0
C3088 C 0.77046 0.05884 0.9601 0.0
C3089 C 0.78255 0.07558 0.96483 0.0
C3090 C 0.75073 0.06094 0.97754 0.0
C3091 C 0.7782 0.08462 0.97591 0.0
C3092 C 0.73083 0.06185 0.99784 0.0
C3093 C 0.70694 0.02922 0.98706 0.0
N3094 N 0.76267 0.07718 0.98193 0.0
N3095 N 0.72211 0.03724 0.98013 0.0
H3096 H 0.65625 0.95089 0.02493 0.0
H3097 H 0.72781 0.95271 0.07783 0.0
H3098 H 0.68986 0.9922 0.05904 0.0
H3099 H 0.68962 0.90813 0.05058 0.0
H3100 H 0.7135 0.96708 0.07162 0.0
H3101 H 0.66758 0.93457 0.03469 0.0
C3102 C 0.66589 0.95647 0.03457 0.0
C3103 C 0.67219 0.97299 0.04108 0.0
C3104 C 0.7081 0.95407 0.06718 0.0
C3105 C 0.68529 0.95446 0.05221 0.0
C3106 C 0.71624 0.94586 0.07079 0.0
C3107 C 0.70971 0.9291 0.06498 0.0
C3108 C 0.69348 0.9456 0.05739 0.0
C3109 C 0.69492 0.92097 0.05551 0.0
C3110 C 0.67236 0.94716 0.04013 0.0
C3111 C 0.68467 0.97956 0.05357 0.0
N3112 N 0.68734 0.92932 0.05193 0.0
N3113 N 0.69089 0.97035 0.05862 0.0
H3114 H 0.01823 0.7025 0.04436 0.0
H3115 H 0.09306 0.79764 0.03466 0.0
H3116 H 0.05479 0.71739 0.00567 0.0
H3117 H 0.05089 0.78371 0.06558 0.0
H3118 H 0.08165 0.76776 0.02716 0.0
H3119 H 0.03265 0.7316 0.05563 0.0
C3120 C 0.02939 0.71184 0.03832 0.0
C3121 C 0.03521 0.7075 0.02391 0.0
C3122 C 0.07499 0.77122 0.03575 0.0
C3123 C 0.05175 0.74092 0.03678 0.0
C3124 C 0.08153 0.78824 0.04008 0.0
C3125 C 0.07302 0.79311 0.05093 0.0
C3126 C 0.05977 0.75897 0.04225 0.0
C3127 C 0.05796 0.78047 0.05737 0.0
C3128 C 0.03759 0.72849 0.04475 0.0
C3129 C 0.04979 0.72017 0.01672 0.0
N3130 N 0.05181 0.76399 0.05291 0.0
N3131 N 0.0575 0.73633 0.02316 0.0
H3132 H 0.30473 0.31393 0.04905 0.0
H3133 H 0.22074 0.31252 0.04341 0.0
H3134 H 0.29981 0.35059 0.02295 0.0
H3135 H 0.22481 0.27367 0.06568 0.0
H3136 H 0.25046 0.3285 0.03882 0.0
H3137 H 0.27636 0.301 0.0583 0.0
C3138 C 0.29774 0.31937 0.04538 0.0
C3139 C 0.30464 0.3333 0.03508 0.0
C3140 C 0.2449 0.31659 0.0449 0.0
C3141 C 0.27205 0.31846 0.04559 0.0
C3142 C 0.22797 0.30751 0.04759 0.0
C3143 C 0.22036 0.29186 0.05512 0.0
C3144 C 0.25431 0.3099 0.04965 0.0
C3145 C 0.23023 0.28578 0.06003 0.0
C3146 C 0.28151 0.31194 0.05065 0.0
C3147 C 0.29498 0.33982 0.0308 0.0
N3148 N 0.24668 0.29479 0.05715 0.0
N3149 N 0.27914 0.33227 0.03598 0.0
H3150 H 0.70877 0.68538 0.37537 0.0
H3151 H 0.71974 0.59985 0.38011 0.0
H3152 H 0.69734 0.64882 0.33427 0.0
H3153 H 0.74079 0.64839 0.42548 0.0
H3154 H 0.7089 0.61816 0.3615 0.0
H3155 H 0.71969 0.67176 0.39182 0.0
C3156 C 0.70869 0.6746 0.36974 0.0
C3157 C 0.70206 0.66819 0.35343 0.0
C3158 C 0.71493 0.62301 0.37373 0.0
C3159 C 0.71433 0.65252 0.37224 0.0
C3160 C 0.72048 0.61102 0.38555 0.0
C3161 C 0.73399 0.62347 0.40402 0.0
C3162 C 0.71947 0.6431 0.38215 0.0
C3163 C 0.73386 0.64172 0.41405 0.0
C3164 C 0.71491 0.66684 0.37915 0.0
C3165 C 0.70231 0.6542 0.34679 0.0
N3166 N 0.72777 0.65042 0.40102 0.0
N3167 N 0.70819 0.64674 0.35629 0.0
H3168 H 0.3252 0.04214 0.3534 0.0
H3169 H 0.40971 0.12085 0.41099 0.0
H3170 H 0.36397 0.03708 0.37368 0.0
H3171 H 0.3625 0.12535 0.38657 0.0
H3172 H 0.39326 0.08771 0.3944 0.0
H3173 H 0.33978 0.07137 0.3646 0.0
C3174 C 0.33677 0.04716 0.36019 0.0
C3175 C 0.34336 0.03712 0.36262 0.0
C3176 C 0.38834 0.09567 0.39329 0.0
C3177 C 0.36006 0.07051 0.37538 0.0
C3178 C 0.39918 0.11647 0.40264 0.0
C3179 C 0.38645 0.12602 0.40288 0.0
C3180 C 0.3691 0.08795 0.38249 0.0
C3181 C 0.36929 0.11916 0.38739 0.0
C3182 C 0.34508 0.06385 0.36656 0.0
C3183 C 0.35841 0.04433 0.37152 0.0
N3184 N 0.36159 0.09987 0.38001 0.0
N3185 N 0.36626 0.0606 0.37759 0.0
H3186 H 0.97091 0.28253 0.34516 0.0
H3187 H 0.90533 0.29015 0.40132 0.0
H3188 H 0.9808 0.32896 0.37006 0.0
H3189 H 0.89729 0.24265 0.38178 0.0
H3190 H 0.93314 0.30453 0.39005 0.0
H3191 H 0.944 0.26759 0.3585 0.0
C3192 C 0.96746 0.28958 0.35346 0.0
C3193 C 0.97812 0.30705 0.35643 0.0
C3194 C 0.92537 0.29094 0.38833 0.0
C3195 C 0.94731 0.29003 0.3717 0.0
C3196 C 0.90951 0.28274 0.3948 0.0
C3197 C 0.89907 0.26517 0.39264 0.0
C3198 C 0.93079 0.28155 0.37943 0.0
C3199 C 0.90502 0.2562 0.38386 0.0
C3200 C 0.95209 0.28104 0.36109 0.0
C3201 C 0.97299 0.31551 0.36736 0.0
N3202 N 0.92047 0.2645 0.37752 0.0
N3203 N 0.95794 0.30693 0.37452 0.0
H3204 H 0.05619 0.3993 0.29762 0.0
H3205 H 0.01088 0.45058 0.30301 0.0
H3206 H 0.01357 0.38516 0.32802 0.0
H3207 H 0.0534 0.46497 0.27248 0.0
H3208 H 0.01115 0.42596 0.31154 0.0
H3209 H 0.05491 0.42288 0.28752 0.0
C3210 C 0.04654 0.40113 0.30216 0.0
C3211 C 0.035 0.39025 0.31373 0.0
C3212 C 0.02036 0.43442 0.30288 0.0
C3213 C 0.03347 0.41724 0.30222 0.0
C3214 C 0.02017 0.44844 0.29797 0.0
C3215 C 0.032 0.45969 0.28685 0.0
C3216 C 0.03257 0.43169 0.29675 0.0
C3217 C 0.04394 0.45647 0.28091 0.0
C3218 C 0.04582 0.4146 0.29637 0.0
C3219 C 0.02276 0.39323 0.31913 0.0
N3220 N 0.04393 0.44278 0.28594 0.0
N3221 N 0.02234 0.40645 0.31336 0.0
H3222 H 0.63886 0.65149 0.3015 0.0
H3223 H 0.60021 0.54458 0.3009 0.0
H3224 H 0.63772 0.62465 0.34501 0.0
H3225 H 0.59044 0.57463 0.2535 0.0
H3226 H 0.61783 0.57722 0.31847 0.0
H3227 H 0.62288 0.62446 0.28537 0.0
C3228 C 0.63516 0.63993 0.30769 0.0
C3229 C 0.63967 0.64033 0.32462 0.0
C3230 C 0.61241 0.57574 0.30609 0.0
C3231 C 0.62163 0.60956 0.30623 0.0
C3232 C 0.60261 0.55583 0.29494 0.0
C3233 C 0.59094 0.55531 0.27605 0.0
C3234 C 0.61312 0.59318 0.29677 0.0
C3235 C 0.59636 0.5748 0.26516 0.0
C3236 C 0.62604 0.62455 0.29848 0.0
C3237 C 0.63452 0.62496 0.332 0.0
N3238 N 0.60582 0.59165 0.27767 0.0
N3239 N 0.62591 0.61021 0.32271 0.0
H3240 H 0.39346 0.01576 0.33032 0.0
H3241 H 0.40622 0.94681 0.2823 0.0
H3242 H 0.35437 0.96365 0.32184 0.0
H3243 H 0.44626 0.99408 0.30367 0.0
H3244 H 0.3867 0.95415 0.29311 0.0
H3245 H 0.4127 0.0093 0.3171 0.0
C3246 C 0.38891 0.00297 0.32564 0.0
C3247 C 0.3723 0.9902 0.32728 0.0
C3248 C 0.39977 0.96293 0.29537 0.0
C3249 C 0.39423 0.98277 0.31204 0.0
C3250 C 0.41088 0.95877 0.28918 0.0
C3251 C 0.42784 0.9698 0.29222 0.0
C3252 C 0.40568 0.97831 0.30452 0.0
C3253 C 0.43327 0.98519 0.30111 0.0
C3254 C 0.39991 0.9993 0.31812 0.0
C3255 C 0.36709 0.97386 0.32096 0.0
N3256 N 0.42222 0.98899 0.30697 0.0
N3257 N 0.37802 0.97062 0.3136 0.0
H3258 H 0.60914 0.96614 0.32157 0.0
H3259 H 0.60137 0.03791 0.28017 0.0
H3260 H 0.64791 0.00636 0.29355 0.0
H3261 H 0.56151 0.9959 0.30518 0.0
H3262 H 0.61788 0.02526 0.2829 0.0
H3263 H 0.5907 0.97538 0.31358 0.0
C3264 C 0.61373 0.9768 0.31359 0.0
C3265 C 0.63015 0.98559 0.30836 0.0
C3266 C 0.60544 0.01867 0.28759 0.0
C3267 C 0.60915 0.99633 0.29929 0.0
C3268 C 0.59601 0.02587 0.28597 0.0
C3269 C 0.57999 0.01781 0.29228 0.0
C3270 C 0.5989 0.00344 0.29581 0.0
C3271 C 0.57375 0.00241 0.30001 0.0
C3272 C 0.6032 0.98209 0.30904 0.0
C3273 C 0.63539 0.99927 0.29798 0.0
N3274 N 0.58324 0.99576 0.30164 0.0
N3275 N 0.62497 0.00432 0.29392 0.0
H3276 H 0.04346 0.66943 0.31537 0.0
H3277 H 0.96394 0.56515 0.30065 0.0
H3278 H 0.99405 0.64888 0.33347 0.0
H3279 H 0.02428 0.58965 0.28346 0.0
H3280 H 0.97535 0.59834 0.31539 0.0
H3281 H 0.03558 0.64111 0.3048 0.0
C3282 C 0.03098 0.65899 0.31714 0.0
C3283 C 0.01941 0.66154 0.32532 0.0
C3284 C 0.98391 0.59566 0.30936 0.0
C3285 C 0.01037 0.62925 0.31328 0.0
C3286 C 0.9769 0.57488 0.30134 0.0
C3287 C 0.99252 0.57427 0.28787 0.0
C3288 C 0.00502 0.61207 0.30697 0.0
C3289 C 0.01492 0.59044 0.29036 0.0
C3290 C 0.02651 0.64285 0.31112 0.0
C3291 C 0.0034 0.64753 0.32726 0.0
N3292 N 0.01845 0.60833 0.2985 0.0
N3293 N 0.99935 0.63198 0.32124 0.0
H3294 H 0.33958 0.35382 0.31319 0.0
H3295 H 0.43784 0.4018 0.31419 0.0
H3296 H 0.36911 0.36934 0.35906 0.0
H3297 H 0.40843 0.39077 0.26892 0.0
H3298 H 0.4129 0.39063 0.33098 0.0
H3299 H 0.36474 0.36815 0.29687 0.0
C3300 C 0.35136 0.36035 0.31985 0.0
C3301 C 0.35223 0.36029 0.33753 0.0
C3302 C 0.41191 0.39077 0.31739 0.0
C3303 C 0.38112 0.37663 0.31887 0.0
C3304 C 0.42613 0.39715 0.30782 0.0
C3305 C 0.4252 0.39733 0.29017 0.0
C3306 C 0.39661 0.38436 0.30923 0.0
C3307 C 0.4097 0.39097 0.28251 0.0
C3308 C 0.36573 0.36853 0.31051 0.0
C3309 C 0.36784 0.36902 0.34546 0.0
N3310 N 0.39602 0.3847 0.29208 0.0
N3311 N 0.38167 0.37673 0.33606 0.0
H3312 H 0.31019 0.28027 0.35941 0.0
H3313 H 0.38564 0.28553 0.4072 0.0
H3314 H 0.33695 0.31597 0.40091 0.0
H3315 H 0.35186 0.24333 0.37418 0.0
H3316 H 0.36759 0.29654 0.40567 0.0
H3317 H 0.32476 0.26607 0.36518 0.0
C3318 C 0.319 0.28502 0.36985 0.0
C3319 C 0.32243 0.29941 0.37962 0.0
C3320 C 0.36398 0.28473 0.39897 0.0
C3321 C 0.33931 0.28332 0.38616 0.0
C3322 C 0.37425 0.27842 0.3999 0.0
C3323 C 0.37008 0.26334 0.39102 0.0
C3324 C 0.34961 0.2761 0.38881 0.0
C3325 C 0.35539 0.25487 0.38139 0.0
C3326 C 0.32732 0.2769 0.37314 0.0
C3327 C 0.33393 0.30495 0.39302 0.0
N3328 N 0.34575 0.26142 0.38044 0.0
N3329 N 0.34209 0.29702 0.39577 0.0
H3330 H 0.6855 0.02497 0.34406 0.0
H3331 H 0.72235 0.08591 0.4268 0.0
H3332 H 0.69484 0.00963 0.39115 0.0
H3333 H 0.72224 0.10379 0.37754 0.0
H3334 H 0.71118 0.05759 0.41412 0.0
H3335 H 0.6982 0.05371 0.35613 0.0
C3336 C 0.69031 0.02766 0.35691 0.0
C3337 C 0.68906 0.01485 0.36664 0.0
C3338 C 0.7137 0.06771 0.40605 0.0
C3339 C 0.70348 0.04772 0.38056 0.0
C3340 C 0.72007 0.08387 0.41327 0.0
C3341 C 0.72353 0.09728 0.40313 0.0
C3342 C 0.7105 0.06483 0.38856 0.0
C3343 C 0.71998 0.09385 0.38575 0.0
C3344 C 0.69757 0.04409 0.36379 0.0
C3345 C 0.69555 0.0191 0.38319 0.0
N3346 N 0.71366 0.07796 0.379 0.0
N3347 N 0.70238 0.03515 0.38967 0.0
H3348 H 0.96565 0.69308 0.35799 0.0
H3349 H 0.88901 0.61262 0.39835 0.0
H3350 H 0.97018 0.65916 0.38939 0.0
H3351 H 0.88474 0.64898 0.37104 0.0
H3352 H 0.919 0.63053 0.39674 0.0
H3353 H 0.93626 0.67825 0.36414 0.0
C3354 C 0.96051 0.68262 0.3663 0.0
C3355 C 0.97038 0.67727 0.37306 0.0
C3356 C 0.91154 0.63473 0.3913 0.0
C3357 C 0.93673 0.66016 0.38006 0.0
C3358 C 0.89443 0.62453 0.39229 0.0
C3359 C 0.88442 0.62947 0.38503 0.0
C3360 C 0.9187 0.64984 0.38274 0.0
C3361 C 0.89205 0.64484 0.37697 0.0
C3362 C 0.94372 0.67415 0.3698 0.0
C3363 C 0.96305 0.66367 0.3838 0.0
N3364 N 0.90872 0.65444 0.37596 0.0
N3365 N 0.94666 0.65551 0.38684 0.0
H3366 H 0.37388 0.99431 0.6686 0.0
H3367 H 0.42437 0.01202 0.76478 0.0
H3368 H 0.37956 0.03118 0.70704 0.0
H3369 H 0.41012 0.96389 0.72061 0.0
H3370 H 0.40769 0.02168 0.74191 0.0
H3371 H 0.38907 0.98655 0.68684 0.0
C3372 C 0.37845 0.00089 0.68079 0.0
C3373 C 0.37534 0.01334 0.68634 0.0
C3374 C 0.40856 0.01083 0.73884 0.0
C3375 C 0.39263 0.00446 0.70723 0.0
C3376 C 0.41791 0.00441 0.75352 0.0
C3377 C 0.42143 0.98813 0.74391 0.0
C3378 C 0.40074 0.99927 0.71902 0.0
C3379 C 0.40888 0.97405 0.72569 0.0
C3380 C 0.38705 0.99639 0.69121 0.0
C3381 C 0.38158 0.02144 0.70229 0.0
N3382 N 0.40103 0.98225 0.71434 0.0
N3383 N 0.38988 0.0168 0.71222 0.0
H3384 H 0.00936 0.38331 0.69106 0.0
H3385 H 0.94701 0.39424 0.74948 0.0
H3386 H 0.97456 0.34506 0.72377 0.0
H3387 H 0.9807 0.43142 0.71536 0.0
H3388 H 0.95904 0.37731 0.74271 0.0
H3389 H 0.00125 0.4024 0.70237 0.0
C3390 C 0.00011 0.37896 0.70074 0.0
C3391 C 0.99251 0.36248 0.70634 0.0
C3392 C 0.96394 0.38927 0.73685 0.0
C3393 C 0.98307 0.38428 0.71929 0.0
C3394 C 0.95712 0.39894 0.74076 0.0
C3395 C 0.96297 0.41429 0.73304 0.0
C3396 C 0.97661 0.39493 0.72503 0.0
C3397 C 0.97592 0.41971 0.72166 0.0
C3398 C 0.99547 0.38988 0.70718 0.0
C3399 C 0.98068 0.35761 0.71899 0.0
N3400 N 0.98225 0.41002 0.71794 0.0
N3401 N 0.97622 0.36841 0.72493 0.0
H3402 H 0.6458 0.66236 0.71137 0.0
H3403 H 0.56315 0.57284 0.72425 0.0
H3404 H 0.63713 0.61554 0.68871 0.0
H3405 H 0.56987 0.62045 0.74125 0.0
H3406 H 0.59118 0.58791 0.71332 0.0
H3407 H 0.61904 0.64683 0.7247 0.0
C3408 C 0.63832 0.64879 0.70926 0.0
C3409 C 0.6437 0.64025 0.69881 0.0
C3410 C 0.58656 0.59505 0.71954 0.0
C3411 C 0.61295 0.62238 0.71405 0.0
C3412 C 0.57062 0.58646 0.72582 0.0
C3413 C 0.56427 0.59542 0.73382 0.0
C3414 C 0.59622 0.61274 0.72122 0.0
C3415 C 0.57434 0.61306 0.73532 0.0
C3416 C 0.623 0.63993 0.71686 0.0
C3417 C 0.63345 0.62266 0.6966 0.0
N3418 N 0.58981 0.62114 0.72909 0.0
N3419 N 0.61854 0.6143 0.70411 0.0
H3420 H 0.64837 0.67735 0.63145 0.0
H3421 H 0.65221 0.76459 0.62731 0.0
H3422 H 0.68421 0.7229 0.65941 0.0
H3423 H 0.61345 0.71739 0.60443 0.0
H3424 H 0.66584 0.75038 0.63689 0.0
H3425 H 0.63728 0.69271 0.61901 0.0
C3426 C 0.65399 0.69062 0.63491 0.0
C3427 C 0.66718 0.69882 0.6466 0.0
C3428 C 0.65443 0.74317 0.62965 0.0
C3429 C 0.65445 0.7165 0.6324 0.0
C3430 C 0.6467 0.75128 0.62414 0.0
C3431 C 0.63177 0.74217 0.61492 0.0
C3432 C 0.64716 0.72581 0.62596 0.0
C3433 C 0.62501 0.7249 0.61136 0.0
C3434 C 0.64761 0.69938 0.62781 0.0
C3435 C 0.67399 0.71606 0.65052 0.0
N3436 N 0.63274 0.71729 0.61689 0.0
N3437 N 0.66749 0.72431 0.64349 0.0
H3438 H 0.30607 0.98502 0.63597 0.0
H3439 H 0.27119 0.87922 0.64185 0.0
H3440 H 0.31057 0.96222 0.68019 0.0
H3441 H 0.25797 0.90539 0.59319 0.0
H3442 H 0.28924 0.91291 0.65718 0.0
H3443 H 0.29008 0.95697 0.62179 0.0
C3444 C 0.30364 0.97413 0.64273 0.0
C3445 C 0.30971 0.97598 0.65928 0.0
C3446 C 0.28311 0.91051 0.64504 0.0
C3447 C 0.2916 0.944 0.64311 0.0
C3448 C 0.27303 0.88994 0.63523 0.0
C3449 C 0.26019 0.88792 0.61672 0.0
C3450 C 0.2829 0.92705 0.63478 0.0
C3451 C 0.2646 0.90646 0.60465 0.0
C3452 C 0.2945 0.95815 0.63463 0.0
C3453 C 0.30614 0.96141 0.66743 0.0
N3454 N 0.27447 0.92408 0.616 0.0
N3455 N 0.29742 0.94605 0.65921 0.0
H3456 H 0.04195 0.35375 0.67385 0.0
H3457 H 0.11251 0.34519 0.62927 0.0
H3458 H 0.03731 0.30589 0.66277 0.0
H3459 H 0.11402 0.39193 0.63528 0.0
H3460 H 0.08548 0.33058 0.6425 0.0
H3461 H 0.06904 0.36801 0.66107 0.0
C3462 C 0.04665 0.34622 0.6688 0.0
C3463 C 0.0373 0.32857 0.66936 0.0
C3464 C 0.09166 0.34401 0.6408 0.0
C3465 C 0.06837 0.34488 0.65461 0.0
C3466 C 0.10703 0.35232 0.63317 0.0
C3467 C 0.11531 0.36973 0.63078 0.0
C3468 C 0.08463 0.3532 0.64634 0.0
C3469 C 0.10789 0.37845 0.63656 0.0
C3470 C 0.06212 0.35439 0.66145 0.0
C3471 C 0.04406 0.31952 0.6626 0.0
N3472 N 0.09298 0.3701 0.64404 0.0
N3473 N 0.05918 0.32777 0.65548 0.0
H3474 H 0.27649 0.31557 0.65354 0.0
H3475 H 0.28888 0.40005 0.61817 0.0
H3476 H 0.31745 0.34953 0.62298 0.0
H3477 H 0.24628 0.36462 0.64584 0.0
H3478 H 0.29832 0.3804 0.61764 0.0
H3479 H 0.26384 0.33184 0.64857 0.0
C3480 C 0.28273 0.32631 0.6456 0.0
C3481 C 0.29815 0.3313 0.63882 0.0
C3482 C 0.28679 0.3768 0.62363 0.0
C3483 C 0.28382 0.35008 0.63322 0.0
C3484 C 0.28139 0.38799 0.62388 0.0
C3485 C 0.26668 0.38383 0.63189 0.0
C3486 C 0.27756 0.36144 0.63169 0.0
C3487 C 0.2576 0.3682 0.6394 0.0
C3488 C 0.27552 0.33562 0.6428 0.0
C3489 C 0.30562 0.34529 0.62859 0.0
N3490 N 0.26322 0.35761 0.6392 0.0
N3491 N 0.29847 0.35428 0.62626 0.0
H3492 H 0.69098 0.96972 0.66328 0.0
H3493 H 0.60824 0.89953 0.61435 0.0
H3494 H 0.6624 0.98137 0.63127 0.0
H3495 H 0.63771 0.88821 0.64518 0.0
H3496 H 0.62915 0.92965 0.61839 0.0
H3497 H 0.67296 0.93994 0.65473 0.0
C3498 C 0.68101 0.96605 0.65433 0.0
C3499 C 0.67813 0.97807 0.6481 0.0
C3500 C 0.63116 0.92058 0.6241 0.0
C3501 C 0.65733 0.94392 0.63835 0.0
C3502 C 0.61926 0.90341 0.62175 0.0
C3503 C 0.62137 0.89139 0.6293 0.0
C3504 C 0.64518 0.92578 0.63426 0.0
C3505 C 0.63571 0.89708 0.63902 0.0
C3506 C 0.6707 0.94902 0.64946 0.0
C3507 C 0.66505 0.97255 0.63647 0.0
N3508 N 0.64703 0.91385 0.64128 0.0
N3509 N 0.65506 0.95587 0.63209 0.0
H3510 H 0.00396 0.68486 0.6435 0.0
H3511 H 0.10186 0.73024 0.65174 0.0
H3512 H 0.03036 0.70006 0.69135 0.0
H3513 H 0.07588 0.72093 0.60434 0.0
H3514 H 0.0758 0.71908 0.66655 0.0
H3515 H 0.0302 0.69802 0.62895 0.0
C3516 C 0.01528 0.69104 0.65096 0.0
C3517 C 0.01495 0.6913 0.66868 0.0
C3518 C 0.07581 0.71957 0.65292 0.0
C3519 C 0.04507 0.70632 0.65208 0.0
C3520 C 0.09067 0.72593 0.64448 0.0
C3521 C 0.09103 0.72663 0.62681 0.0
C3522 C 0.06117 0.7137 0.64361 0.0
C3523 C 0.07614 0.72071 0.61798 0.0
C3524 C 0.03027 0.69856 0.64263 0.0
C3525 C 0.03002 0.69954 0.67767 0.0
N3526 N 0.06183 0.71447 0.62647 0.0
N3527 N 0.04446 0.70663 0.66927 0.0
H3528 H 0.96014 0.60919 0.69112 0.0
H3529 H 0.0211 0.5952 0.74541 0.0
H3530 H 0.99099 0.64369 0.73174 0.0
H3531 H 0.98172 0.55574 0.71405 0.0
H3532 H 0.01025 0.61318 0.7407 0.0
H3533 H 0.96777 0.58936 0.69938 0.0
C3534 C 0.96842 0.61254 0.70186 0.0
C3535 C 0.97501 0.62817 0.71069 0.0
C3536 C 0.00383 0.6005 0.73505 0.0
C3537 C 0.98391 0.6056 0.72012 0.0
C3538 C 0.00999 0.59022 0.73779 0.0
C3539 C 0.0021 0.57384 0.73035 0.0
C3540 C 0.98991 0.59451 0.7245 0.0
C3541 C 0.98801 0.5682 0.72021 0.0
C3542 C 0.97275 0.6012 0.70659 0.0
C3543 C 0.98563 0.6318 0.72455 0.0
N3544 N 0.98242 0.57854 0.7175 0.0
N3545 N 0.98988 0.62068 0.72872 0.0
H3546 H 0.3509 0.36047 0.6754 0.0
H3547 H 0.39254 0.41397 0.76162 0.0
H3548 H 0.35838 0.33949 0.71942 0.0
H3549 H 0.38795 0.43549 0.71651 0.0
H3550 H 0.38084 0.38676 0.74613 0.0
H3551 H 0.3655 0.38825 0.68985 0.0
C3552 C 0.35573 0.36172 0.68807 0.0
C3553 C 0.35332 0.34759 0.69626 0.0
C3554 C 0.38251 0.39745 0.73956 0.0
C3555 C 0.36997 0.37942 0.71294 0.0
C3556 C 0.38921 0.41297 0.74839 0.0
C3557 C 0.39146 0.42706 0.74023 0.0
C3558 C 0.37782 0.39591 0.7225 0.0
C3559 C 0.38662 0.425 0.72319 0.0
C3560 C 0.36406 0.37761 0.69633 0.0
C3561 C 0.35992 0.35001 0.71264 0.0
N3562 N 0.38002 0.40972 0.71489 0.0
N3563 N 0.36784 0.3656 0.72049 0.0
H3564 H 0.64441 0.99238 0.70254 0.0
H3565 H 0.58604 0.02906 0.71358 0.0
H3566 H 0.65392 0.03774 0.67984 0.0
H3567 H 0.57359 0.98069 0.73085 0.0
H3568 H 0.61206 0.03357 0.70303 0.0
H3569 H 0.61953 0.98903 0.71496 0.0
C3570 C 0.64131 0.00168 0.70021 0.0
C3571 C 0.65124 0.01533 0.69007 0.0
C3572 C 0.6037 0.02203 0.70924 0.0
C3573 C 0.62274 0.01155 0.70427 0.0
C3574 C 0.58891 0.01949 0.71533 0.0
C3575 C 0.57781 0.00464 0.72338 0.0
C3576 C 0.6074 0.00955 0.71112 0.0
C3577 C 0.58194 0.99246 0.72499 0.0
C3578 C 0.62707 0.99973 0.70729 0.0
C3579 C 0.6466 0.02699 0.68751 0.0
N3580 N 0.59642 0.9952 0.71894 0.0
N3581 N 0.63267 0.02482 0.69455 0.0
loop_
_geom_bond_atom_site_label_1
_geom_bond_atom_site_label_2
_geom_bond_distance
_geom_bond_site_symmetry_2
_ccdc_geom_bond_type
C0 O1 1.160 . S
C0 O7 1.185 . S
O1 C0 1.160 . S
O2 Zn3 1.899 1_656 S
O2 C10 1.284 . S
Zn3 O2 1.899 1_454 S
Zn3 O4 2.032 . S
Zn3 O7 2.086 . S
Zn3 O12 1.977 1_554 S
O4 Zn3 2.032 . S
O4 C8 1.278 1_455 S
C5 O6 1.203 1_455 S
C5 O12 1.267 . S
O6 C5 1.203 1_655 S
O7 C0 1.185 . S
O7 Zn3 2.086 . S
C8 O4 1.278 1_655 S
C8 O9 1.211 . S
O9 C8 1.211 . S
C10 O2 1.284 . S
C10 O11 1.273 1_556 S
O11 C10 1.273 1_554 S
O12 Zn3 1.977 1_556 S
O12 C5 1.267 . S
C13 O14 1.153 1_554 S
C13 O20 1.203 . S
O14 C13 1.153 1_556 S
O15 Zn16 1.899 . S
O15 C23 1.284 . S
Zn16 O15 1.899 . S
Zn16 O17 2.032 1_554 S
Zn16 O20 2.086 . S
Zn16 O25 1.977 . S
O17 Zn16 2.032 1_556 S
O17 C21 1.278 . S
C18 O19 1.203 . S
C18 O25 1.267 . S
O19 C18 1.203 . S
O20 C13 1.203 . S
O20 Zn16 2.086 . S
C21 O17 1.278 . S
C21 O22 1.211 1_556 S
O22 C21 1.211 1_554 S
C23 O15 1.284 . S
C23 O24 1.273 . S
O24 C23 1.273 . S
O25 Zn16 1.977 . S
O25 C18 1.267 . S
C26 O27 1.160 . S
C26 O33 1.185 1_556 S
O27 C26 1.160 . S
O28 Zn29 1.899 . S
O28 C36 1.284 1_545 S
Zn29 O28 1.899 . S
Zn29 O30 2.032 1_554 S
Zn29 O33 2.086 . S
Zn29 O38 1.977 . S
O30 Zn29 2.032 1_556 S
O30 C34 1.278 . S
C31 O32 1.203 . S
C31 O38 1.267 . S
O32 C31 1.203 . S
O33 C26 1.185 1_554 S
O33 Zn29 2.086 . S
C34 O30 1.278 . S
C34 O35 1.219 1_545 S
O35 C34 1.219 1_565 S
C36 O28 1.284 1_565 S
C36 O37 1.273 . S
O37 C36 1.273 . S
O38 Zn29 1.977 . S
O38 C31 1.267 . S
C39 O40 1.160 . S
C39 O46 1.185 1_556 S
O40 C39 1.160 . S
O41 Zn42 1.899 1_455 S
O41 C49 1.284 . S
Zn42 O41 1.899 1_655 S
Zn42 O43 2.032 1_654 S
Zn42 O46 2.086 . S
Zn42 O51 1.977 . S
O43 Zn42 2.032 1_456 S
O43 C47 1.278 . S
C44 O45 1.203 1_655 S
C44 O51 1.267 . S
O45 C44 1.203 1_455 S
O46 C39 1.185 1_554 S
O46 Zn42 2.086 . S
C47 O43 1.278 . S
C47 O48 1.224 . S
O48 C47 1.224 . S
C49 O41 1.284 . S
C49 O50 1.273 . S
O50 C49 1.273 . S
O51 Zn42 1.977 . S
O51 C44 1.267 . S
C52 O53 1.160 . S
C52 O59 1.185 . S
O53 C52 1.160 . S
O54 Zn55 1.881 1_556 S
O54 C62 1.284 . S
Zn55 O54 1.881 1_554 S
Zn55 O56 2.062 . S
Zn55 O59 2.101 . S
Zn55 O64 1.957 1_554 S
O56 Zn55 2.062 . S
O56 C60 1.278 . S
C57 O58 1.203 . S
C57 O64 1.267 . S
O58 C57 1.203 . S
O59 C52 1.185 . S
O59 Zn55 2.101 . S
C60 O56 1.278 . S
C60 O61 1.211 . S
O61 C60 1.211 . S
C62 O54 1.284 . S
C62 O63 1.273 . S
O63 C62 1.273 . S
O64 Zn55 1.957 1_556 S
O64 C57 1.267 . S
C65 O66 1.160 . S
C65 O72 1.185 . S
O66 C65 1.160 . S
O67 Zn68 1.899 1_546 S
O67 C75 1.280 1_556 S
Zn68 O67 1.899 1_564 S
Zn68 O69 2.032 1_565 S
Zn68 O72 2.086 . S
Zn68 O77 1.977 1_554 S
O69 Zn68 2.032 1_545 S
O69 C73 1.278 . S
C70 O71 1.203 1_565 S
C70 O77 1.267 . S
O71 C70 1.203 1_545 S
O72 C65 1.185 . S
O72 Zn68 2.086 . S
C73 O69 1.278 . S
C73 O74 1.211 . S
O74 C73 1.211 . S
C75 O67 1.280 1_554 S
C75 O76 1.292 . S
O76 C75 1.292 . S
O77 Zn68 1.977 1_556 S
O77 C70 1.267 . S
C78 O79 1.160 . S
C78 O85 1.185 . S
O79 C78 1.160 . S
O80 Zn81 1.899 . S
O80 C88 1.284 . S
Zn81 O80 1.899 . S
Zn81 O82 2.032 . S
Zn81 O85 2.086 . S
Zn81 O90 1.977 . S
O82 Zn81 2.032 . S
O82 C86 1.278 . S
C83 O84 1.203 . S
C83 O90 1.267 . S
O84 C83 1.203 . S
O85 C78 1.185 . S
O85 Zn81 2.086 . S
C86 O82 1.278 . S
C86 O87 1.211 . S
O87 C86 1.211 . S
C88 O80 1.284 . S
C88 O89 1.273 . S
O89 C88 1.273 . S
O90 Zn81 1.977 . S
O90 C83 1.267 . S
C91 O92 1.160 1_565 S
C91 O98 1.185 . S
O92 C91 1.160 1_545 S
O93 Zn94 1.899 1_545 S
O93 C101 1.284 . S
Zn94 O93 1.899 1_565 S
Zn94 O95 2.032 . S
Zn94 O98 2.086 . S
Zn94 O103 1.977 . S
O95 Zn94 2.032 . S
O95 C99 1.278 . S
C96 O97 1.203 . S
C96 O103 1.267 . S
O97 C96 1.203 . S
O98 C91 1.185 . S
O98 Zn94 2.086 . S
C99 O95 1.278 . S
C99 O100 1.211 . S
O100 C99 1.211 . S
C101 O93 1.284 . S
C101 O102 1.273 . S
O102 C101 1.273 . S
O103 Zn94 1.977 . S
O103 C96 1.267 . S
C104 O105 1.160 . S
C104 O111 1.185 . S
O105 C104 1.160 . S
O106 Zn107 1.899 . S
O106 C114 1.284 . S
Zn107 O106 1.899 . S
Zn107 O108 2.032 . S
Zn107 O111 2.086 . S
Zn107 O116 1.977 . S
O108 Zn107 2.032 . S
O108 C112 1.278 . S
C109 O110 1.203 . S
C109 O116 1.267 . S
O110 C109 1.203 . S
O111 C104 1.185 . S
O111 Zn107 2.086 . S
C112 O108 1.278 . S
C112 O113 1.211 . S
O113 C112 1.211 . S
C114 O106 1.284 . S
C114 O115 1.270 . S
O115 C114 1.270 . S
O116 Zn107 1.977 . S
O116 C109 1.267 . S
C117 O118 1.160 1_565 S
C117 O124 1.185 . S
O118 C117 1.160 1_545 S
O119 Zn120 1.899 1_545 S
O119 C127 1.284 . S
Zn120 O119 1.899 1_565 S
Zn120 O121 2.032 . S
Zn120 O124 2.086 . S
Zn120 O129 1.977 . S
O121 Zn120 2.032 . S
O121 C125 1.278 . S
C122 O123 1.203 . S
C122 O129 1.267 . S
O123 C122 1.203 . S
O124 C117 1.185 . S
O124 Zn120 2.086 . S
C125 O121 1.278 . S
C125 O126 1.211 . S
O126 C125 1.211 . S
C127 O119 1.284 . S
C127 O128 1.273 . S
O128 C127 1.273 . S
O129 Zn120 1.977 . S
O129 C122 1.267 . S
C130 O131 1.160 . S
C130 O137 1.185 . S
O131 C130 1.160 . S
O132 Zn133 1.899 . S
O132 C140 1.284 . S
Zn133 O132 1.899 . S
Zn133 O134 2.032 . S
Zn133 O137 2.086 1_455 S
Zn133 O142 1.977 . S
O134 Zn133 2.032 . S
O134 C138 1.278 . S
C135 O136 1.203 . S
C135 O142 1.267 . S
O136 C135 1.203 . S
O137 C130 1.185 . S
O137 Zn133 2.086 1_655 S
C138 O134 1.278 . S
C138 O139 1.211 . S
O139 C138 1.211 . S
C140 O132 1.284 . S
C140 O141 1.273 . S
O141 C140 1.273 . S
O142 Zn133 1.977 . S
O142 C135 1.267 . S
C143 O144 1.160 . S
C143 O150 1.185 . S
O144 C143 1.160 . S
O145 Zn146 1.899 . S
O145 C153 1.284 . S
Zn146 O145 1.899 . S
Zn146 O147 2.032 . S
Zn146 O150 2.086 . S
Zn146 O155 1.977 . S
O147 Zn146 2.032 . S
O147 C151 1.278 . S
C148 O149 1.203 . S
C148 O155 1.267 . S
O149 C148 1.203 . S
O150 C143 1.185 . S
O150 Zn146 2.086 . S
C151 O147 1.278 . S
C151 O152 1.211 . S
O152 C151 1.211 . S
C153 O145 1.284 . S
C153 O154 1.273 . S
O154 C153 1.273 . S
O155 Zn146 1.977 . S
O155 C148 1.267 . S
C156 O157 1.160 . S
C156 O163 1.185 . S
O157 C156 1.160 . S
O158 Zn159 1.899 . S
O158 C166 1.284 1_545 S
Zn159 O158 1.899 . S
Zn159 O160 2.032 . S
Zn159 O163 2.086 . S
Zn159 O168 1.977 . S
O160 Zn159 2.032 . S
O160 C164 1.278 . S
C161 O162 1.203 . S
C161 O168 1.267 . S
O162 C161 1.203 . S
O163 C156 1.185 . S
O163 Zn159 2.086 . S
C164 O160 1.278 . S
C164 O165 1.211 . S
O165 C164 1.211 . S
C166 O158 1.284 1_565 S
C166 O167 1.273 1_565 S
O167 C166 1.273 1_545 S
O168 Zn159 1.977 . S
O168 C161 1.267 . S
C169 O170 1.160 . S
C169 O176 1.185 . S
O170 C169 1.160 . S
O171 Zn172 1.899 . S
O171 C179 1.284 . S
Zn172 O171 1.899 . S
Zn172 O173 2.032 . S
Zn172 O176 2.086 1_655 S
Zn172 O181 1.977 . S
O173 Zn172 2.032 . S
O173 C177 1.278 . S
C174 O175 1.203 . S
C174 O181 1.267 . S
O175 C174 1.203 . S
O176 C169 1.185 . S
O176 Zn172 2.086 1_455 S
C177 O173 1.278 . S
C177 O178 1.211 . S
O178 C177 1.211 . S
C179 O171 1.284 . S
C179 O180 1.273 . S
O180 C179 1.273 . S
O181 Zn172 1.977 . S
O181 C174 1.267 . S
C182 O183 1.160 . S
C182 O189 1.185 . S
O183 C182 1.160 . S
O184 Zn185 1.899 . S
O184 C192 1.284 . S
Zn185 O184 1.899 . S
Zn185 O186 2.032 . S
Zn185 O189 2.086 . S
Zn185 O194 1.977 . S
O186 Zn185 2.032 . S
O186 C190 1.278 . S
C187 O188 1.203 . S
C187 O194 1.267 . S
O188 C187 1.203 . S
O189 C182 1.185 . S
O189 Zn185 2.086 . S
C190 O186 1.278 . S
C190 O191 1.211 . S
O191 C190 1.211 . S
C192 O184 1.284 . S
C192 O193 1.273 . S
O193 C192 1.273 . S
O194 Zn185 1.977 . S
O194 C187 1.267 . S
C195 O196 1.160 . S
C195 O202 1.185 . S
O196 C195 1.160 . S
O197 Zn198 1.899 . S
O197 C205 1.284 . S
Zn198 O197 1.899 . S
Zn198 O199 2.032 . S
Zn198 O202 2.086 . S
Zn198 O207 1.977 . S
O199 Zn198 2.032 . S
O199 C203 1.278 . S
C200 O201 1.203 . S
C200 O207 1.267 . S
O201 C200 1.203 . S
O202 C195 1.185 . S
O202 Zn198 2.086 . S
C203 O199 1.278 . S
C203 O204 1.211 . S
O204 C203 1.211 . S
C205 O197 1.284 . S
C205 O206 1.273 . S
O206 C205 1.273 . S
O207 Zn198 1.977 . S
O207 C200 1.267 . S
C208 O209 1.160 . S
C208 O215 1.185 . S
O209 C208 1.160 . S
O210 Zn211 1.899 . S
O210 C218 1.284 1_545 S
Zn211 O210 1.899 . S
Zn211 O212 2.032 . S
Zn211 O215 2.086 . S
Zn211 O220 1.977 . S
O212 Zn211 2.032 . S
O212 C216 1.278 . S
C213 O214 1.203 . S
C213 O220 1.267 . S
O214 C213 1.203 . S
O215 C208 1.185 . S
O215 Zn211 2.086 . S
C216 O212 1.278 . S
C216 O217 1.211 . S
O217 C216 1.211 . S
C218 O210 1.284 1_565 S
C218 O219 1.273 1_565 S
O219 C218 1.273 1_545 S
O220 Zn211 1.977 . S
O220 C213 1.267 . S
C221 O222 1.160 . S
C221 O228 1.185 . S
O222 C221 1.160 . S
O223 Zn224 1.899 . S
O223 C231 1.284 1_655 S
Zn224 O223 1.899 . S
Zn224 O225 2.032 . S
Zn224 O228 2.086 . S
Zn224 O233 1.977 . S
O225 Zn224 2.032 . S
O225 C229 1.278 . S
C226 O227 1.203 . S
C226 O233 1.267 . S
O227 C226 1.203 . S
O228 C221 1.185 . S
O228 Zn224 2.086 . S
C229 O225 1.278 . S
C229 O230 1.211 . S
O230 C229 1.211 . S
C231 O223 1.284 1_455 S
C231 O232 1.273 1_455 S
O232 C231 1.273 1_655 S
O233 Zn224 1.977 . S
O233 C226 1.267 . S
C234 C235 1.560 . S
C234 H295 0.959 . S
C234 H296 0.959 . S
C234 H297 0.960 . S
C235 C234 1.560 . S
C235 O290 1.426 . S
C235 H294 0.980 . S
C236 C237 1.407 . S
C236 C241 1.418 . S
C236 O290 1.334 . S
C237 C236 1.407 . S
C237 C238 1.360 . S
C237 H298 0.929 . S
C238 C237 1.360 . S
C238 C239 1.401 . S
C238 C242 1.527 . S
C239 C238 1.401 . S
C239 C240 1.405 . S
C239 C272 1.587 . S
C240 C239 1.405 . S
C240 C241 1.332 . S
C240 C243 1.496 . S
C241 C236 1.418 . S
C241 C240 1.332 . S
C241 H299 0.929 . S
C242 C238 1.527 . S
C242 H300 0.959 . S
C242 H301 0.961 . S
C242 H302 0.961 . S
C243 C240 1.496 . S
C243 H303 0.960 . S
C243 H304 0.960 . S
C243 H305 0.961 . S
C244 C245 1.517 . S
C244 H307 0.961 . S
C244 H308 0.960 . S
C244 H309 0.959 . S
C245 C244 1.517 . S
C245 O293 1.468 . S
C245 H306 0.980 . S
C246 C247 1.349 . S
C246 C251 1.367 . S
C246 O293 1.408 . S
C247 C246 1.349 . S
C247 C248 1.407 . S
C247 H310 0.930 . S
C248 C247 1.407 . S
C248 C249 1.449 . S
C248 C252 1.535 . S
C249 C248 1.449 . S
C249 C250 1.384 . S
C249 C274 1.553 . S
C250 C249 1.384 . S
C250 C251 1.364 . S
C250 C253 1.450 . S
C251 C246 1.367 . S
C251 C250 1.364 . S
C251 H311 0.931 . S
C252 C248 1.535 . S
C252 H312 0.959 . S
C252 H313 0.961 . S
C252 H314 0.959 . S
C253 C250 1.450 . S
C253 H315 0.960 . S
C253 H316 0.960 . S
C253 H317 0.960 . S
C254 C255 1.309 . S
C254 C259 1.304 . S
C254 O292 1.435 . S
C255 C254 1.309 . S
C255 C256 1.476 . S
C255 H319 0.930 . S
C256 C255 1.476 . S
C256 C257 1.400 . S
C256 C260 1.567 . S
C257 C256 1.400 . S
C257 C258 1.373 . S
C257 C279 1.432 . S
C258 C257 1.373 . S
C258 C259 1.339 . S
C258 C261 1.530 . S
C259 C254 1.304 . S
C259 C258 1.339 . S
C259 H320 0.930 . S
C260 C256 1.567 . S
C260 H321 0.961 . S
C260 H322 0.960 . S
C260 H323 0.958 . S
C261 C258 1.530 . S
C261 H324 0.961 . S
C261 H325 0.960 . S
C261 H326 0.960 . S
C262 C263 1.530 . S
C262 H328 0.961 . S
C262 H329 0.961 . S
C262 H330 0.959 . S
C263 C262 1.530 . S
C263 O291 1.412 . S
C263 H327 0.980 . S
C264 C265 1.288 . S
C264 C269 1.377 . S
C264 O291 1.393 . S
C265 C264 1.288 . S
C265 C266 1.369 . S
C265 H331 0.932 . S
C266 C265 1.369 . S
C266 C267 1.398 . S
C266 C270 1.527 . S
C267 C266 1.398 . S
C267 C268 1.380 . S
C267 C281 1.497 . S
C268 C267 1.380 . S
C268 C269 1.383 . S
C268 C271 1.603 . S
C269 C264 1.377 . S
C269 C268 1.383 . S
C269 H332 0.929 . S
C270 C266 1.527 . S
C270 H333 0.961 . S
C270 H334 0.959 . S
C270 H335 0.959 . S
C271 C268 1.603 . S
C271 H336 0.960 . S
C271 H337 0.962 . S
C271 H338 0.961 . S
C272 C239 1.587 . S
C272 C273 1.360 . S
C272 C285 1.412 . S
C273 C272 1.360 . S
C273 C274 1.365 . S
C273 H339 0.929 . S
C274 C249 1.553 . S
C274 C273 1.365 . S
C274 C275 1.404 . S
C275 C274 1.404 . S
C275 C276 1.395 . S
C275 C286 1.451 . S
C276 C275 1.395 . S
C276 C277 1.322 . S
C276 H340 0.930 . S
C277 C276 1.322 . S
C277 C278 1.459 . S
C277 H341 0.929 . S
C278 C277 1.459 . S
C278 C279 1.445 . S
C278 C287 1.395 . S
C279 C257 1.432 . S
C279 C278 1.445 . S
C279 C280 1.370 . S
C280 C279 1.370 . S
C280 C281 1.438 . S
C280 H342 0.930 . S
C281 C267 1.497 . S
C281 C280 1.438 . S
C281 C282 1.360 . S
C282 C281 1.360 . S
C282 C283 1.401 . S
C282 C287 1.446 . S
C283 C282 1.401 . S
C283 C284 1.347 . S
C283 H343 0.929 . S
C284 C283 1.347 . S
C284 C285 1.455 . S
C284 H344 0.930 . S
C285 C272 1.412 . S
C285 C284 1.455 . S
C285 C286 1.331 . S
C286 C275 1.451 . S
C286 C285 1.331 . S
C286 C287 1.497 . S
C287 C278 1.395 . S
C287 C282 1.446 . S
C287 C286 1.497 . S
C288 C289 1.582 . S
C288 H345 0.962 . S
C288 H346 0.959 . S
C288 H347 0.958 . S
C289 C288 1.582 . S
C289 O292 1.458 . S
C289 H318 0.980 . S
O290 C235 1.426 . S
O290 C236 1.334 . S
O291 C263 1.412 . S
O291 C264 1.393 . S
O292 C254 1.435 . S
O292 C289 1.458 . S
O293 C245 1.468 . S
O293 C246 1.408 . S
H294 C235 0.980 . S
H295 C234 0.959 . S
H296 C234 0.959 . S
H297 C234 0.960 . S
H298 C237 0.929 . S
H299 C241 0.929 . S
H300 C242 0.959 . S
H301 C242 0.961 . S
H302 C242 0.961 . S
H303 C243 0.960 . S
H304 C243 0.960 . S
H305 C243 0.961 . S
H306 C245 0.980 . S
H307 C244 0.961 . S
H308 C244 0.960 . S
H309 C244 0.959 . S
H310 C247 0.930 . S
H311 C251 0.931 . S
H312 C252 0.959 . S
H313 C252 0.961 . S
H314 C252 0.959 . S
H315 C253 0.960 . S
H316 C253 0.960 . S
H317 C253 0.960 . S
H318 C289 0.980 . S
H319 C255 0.930 . S
H320 C259 0.930 . S
H321 C260 0.961 . S
H322 C260 0.960 . S
H323 C260 0.958 . S
H324 C261 0.961 . S
H325 C261 0.960 . S
H326 C261 0.960 . S
H327 C263 0.980 . S
H328 C262 0.961 . S
H329 C262 0.961 . S
H330 C262 0.959 . S
H331 C265 0.932 . S
H332 C269 0.929 . S
H333 C270 0.961 . S
H334 C270 0.959 . S
H335 C270 0.959 . S
H336 C271 0.960 . S
H337 C271 0.962 . S
H338 C271 0.961 . S
H339 C273 0.929 . S
H340 C276 0.930 . S
H341 C277 0.929 . S
H342 C280 0.930 . S
H343 C283 0.929 . S
H344 C284 0.930 . S
H345 C288 0.962 . S
H346 C288 0.959 . S
H347 C288 0.958 . S
C348 C349 1.560 . S
C348 H409 0.959 . S
C348 H410 0.959 . S
C348 H411 0.960 . S
C349 C348 1.560 . S
C349 O404 1.426 . S
C349 H408 0.980 . S
C350 C351 1.407 . S
C350 C355 1.418 . S
C350 O404 1.334 . S
C351 C350 1.407 . S
C351 C352 1.360 . S
C351 H412 0.929 . S
C352 C351 1.360 . S
C352 C353 1.401 . S
C352 C356 1.527 . S
C353 C352 1.401 . S
C353 C354 1.405 . S
C353 C386 1.587 . S
C354 C353 1.405 . S
C354 C355 1.332 . S
C354 C357 1.496 . S
C355 C350 1.418 . S
C355 C354 1.332 . S
C355 H413 0.929 . S
C356 C352 1.527 . S
C356 H414 0.959 . S
C356 H415 0.961 . S
C356 H416 0.961 . S
C357 C354 1.496 . S
C357 H417 0.960 . S
C357 H418 0.960 . S
C357 H419 0.961 . S
C358 C359 1.517 . S
C358 H421 0.961 . S
C358 H422 0.960 . S
C358 H423 0.959 . S
C359 C358 1.517 . S
C359 O407 1.468 . S
C359 H420 0.980 . S
C360 C361 1.349 . S
C360 C365 1.367 . S
C360 O407 1.408 . S
C361 C360 1.349 . S
C361 C362 1.407 . S
C361 H424 0.930 . S
C362 C361 1.407 . S
C362 C363 1.449 . S
C362 C366 1.535 . S
C363 C362 1.449 . S
C363 C364 1.384 . S
C363 C388 1.553 . S
C364 C363 1.384 . S
C364 C365 1.364 . S
C364 C367 1.450 . S
C365 C360 1.367 . S
C365 C364 1.364 . S
C365 H425 0.931 . S
C366 C362 1.535 . S
C366 H426 0.959 . S
C366 H427 0.961 . S
C366 H428 0.959 . S
C367 C364 1.450 . S
C367 H429 0.960 . S
C367 H430 0.960 . S
C367 H431 0.960 . S
C368 C369 1.309 . S
C368 C373 1.304 . S
C368 O406 1.435 . S
C369 C368 1.309 . S
C369 C370 1.476 . S
C369 H433 0.930 . S
C370 C369 1.476 . S
C370 C371 1.400 . S
C370 C374 1.567 . S
C371 C370 1.400 . S
C371 C372 1.373 . S
C371 C393 1.432 . S
C372 C371 1.373 . S
C372 C373 1.339 . S
C372 C375 1.530 . S
C373 C368 1.304 . S
C373 C372 1.339 . S
C373 H434 0.930 . S
C374 C370 1.567 . S
C374 H435 0.961 . S
C374 H436 0.960 . S
C374 H437 0.958 . S
C375 C372 1.530 . S
C375 H438 0.961 . S
C375 H439 0.960 . S
C375 H440 0.960 . S
C376 C377 1.530 . S
C376 H442 0.961 . S
C376 H443 0.961 . S
C376 H444 0.959 . S
C377 C376 1.530 . S
C377 O405 1.412 . S
C377 H441 0.980 . S
C378 C379 1.288 . S
C378 C383 1.377 . S
C378 O405 1.393 . S
C379 C378 1.288 . S
C379 C380 1.369 . S
C379 H445 0.932 . S
C380 C379 1.369 . S
C380 C381 1.398 . S
C380 C384 1.527 . S
C381 C380 1.398 . S
C381 C382 1.380 . S
C381 C395 1.497 . S
C382 C381 1.380 . S
C382 C383 1.383 . S
C382 C385 1.603 . S
C383 C378 1.377 . S
C383 C382 1.383 . S
C383 H446 0.929 . S
C384 C380 1.527 . S
C384 H447 0.961 . S
C384 H448 0.959 . S
C384 H449 0.959 . S
C385 C382 1.603 . S
C385 H450 0.960 . S
C385 H451 0.962 . S
C385 H452 0.961 . S
C386 C353 1.587 . S
C386 C387 1.360 . S
C386 C399 1.412 . S
C387 C386 1.360 . S
C387 C388 1.365 . S
C387 H453 0.929 . S
C388 C363 1.553 . S
C388 C387 1.365 . S
C388 C389 1.404 . S
C389 C388 1.404 . S
C389 C390 1.395 . S
C389 C400 1.451 . S
C390 C389 1.395 . S
C390 C391 1.322 . S
C390 H454 0.930 . S
C391 C390 1.322 . S
C391 C392 1.459 . S
C391 H455 0.929 . S
C392 C391 1.459 . S
C392 C393 1.445 . S
C392 C401 1.395 . S
C393 C371 1.432 . S
C393 C392 1.445 . S
C393 C394 1.370 . S
C394 C393 1.370 . S
C394 C395 1.438 . S
C394 H456 0.930 . S
C395 C381 1.497 . S
C395 C394 1.438 . S
C395 C396 1.360 . S
C396 C395 1.360 . S
C396 C397 1.401 . S
C396 C401 1.446 . S
C397 C396 1.401 . S
C397 C398 1.347 . S
C397 H457 0.929 . S
C398 C397 1.347 . S
C398 C399 1.455 . S
C398 H458 0.930 . S
C399 C386 1.412 . S
C399 C398 1.455 . S
C399 C400 1.331 . S
C400 C389 1.451 . S
C400 C399 1.331 . S
C400 C401 1.497 . S
C401 C392 1.395 . S
C401 C396 1.446 . S
C401 C400 1.497 . S
C402 C403 1.582 . S
C402 H459 0.962 . S
C402 H460 0.959 . S
C402 H461 0.958 . S
C403 C402 1.582 . S
C403 O406 1.458 . S
C403 H432 0.980 . S
O404 C349 1.426 . S
O404 C350 1.334 . S
O405 C377 1.412 . S
O405 C378 1.393 . S
O406 C368 1.435 . S
O406 C403 1.458 . S
O407 C359 1.468 . S
O407 C360 1.408 . S
H408 C349 0.980 . S
H409 C348 0.959 . S
H410 C348 0.959 . S
H411 C348 0.960 . S
H412 C351 0.929 . S
H413 C355 0.929 . S
H414 C356 0.959 . S
H415 C356 0.961 . S
H416 C356 0.961 . S
H417 C357 0.960 . S
H418 C357 0.960 . S
H419 C357 0.961 . S
H420 C359 0.980 . S
H421 C358 0.961 . S
H422 C358 0.960 . S
H423 C358 0.959 . S
H424 C361 0.930 . S
H425 C365 0.931 . S
H426 C366 0.959 . S
H427 C366 0.961 . S
H428 C366 0.959 . S
H429 C367 0.960 . S
H430 C367 0.960 . S
H431 C367 0.960 . S
H432 C403 0.980 . S
H433 C369 0.930 . S
H434 C373 0.930 . S
H435 C374 0.961 . S
H436 C374 0.960 . S
H437 C374 0.958 . S
H438 C375 0.961 . S
H439 C375 0.960 . S
H440 C375 0.960 . S
H441 C377 0.980 . S
H442 C376 0.961 . S
H443 C376 0.961 . S
H444 C376 0.959 . S
H445 C379 0.932 . S
H446 C383 0.929 . S
H447 C384 0.961 . S
H448 C384 0.959 . S
H449 C384 0.959 . S
H450 C385 0.960 . S
H451 C385 0.962 . S
H452 C385 0.961 . S
H453 C387 0.929 . S
H454 C390 0.930 . S
H455 C391 0.929 . S
H456 C394 0.930 . S
H457 C397 0.929 . S
H458 C398 0.930 . S
H459 C402 0.962 . S
H460 C402 0.959 . S
H461 C402 0.958 . S
C462 C463 1.560 . S
C462 H523 0.959 . S
C462 H524 0.959 . S
C462 H525 0.960 . S
C463 C462 1.560 . S
C463 O518 1.426 . S
C463 H522 0.980 . S
C464 C465 1.407 . S
C464 C469 1.418 . S
C464 O518 1.334 . S
C465 C464 1.407 . S
C465 C466 1.360 . S
C465 H526 0.929 . S
C466 C465 1.360 . S
C466 C467 1.401 . S
C466 C470 1.527 . S
C467 C466 1.401 . S
C467 C468 1.405 . S
C467 C500 1.587 . S
C468 C467 1.405 . S
C468 C469 1.332 . S
C468 C471 1.496 . S
C469 C464 1.418 . S
C469 C468 1.332 . S
C469 H527 0.929 . S
C470 C466 1.527 . S
C470 H528 0.959 . S
C470 H529 0.961 . S
C470 H530 0.961 . S
C471 C468 1.496 . S
C471 H531 0.960 . S
C471 H532 0.960 . S
C471 H533 0.961 . S
C472 C473 1.517 . S
C472 H535 0.961 . S
C472 H536 0.960 . S
C472 H537 0.959 . S
C473 C472 1.517 . S
C473 O521 1.468 . S
C473 H534 0.980 . S
C474 C475 1.349 . S
C474 C479 1.367 . S
C474 O521 1.408 . S
C475 C474 1.349 . S
C475 C476 1.407 . S
C475 H538 0.930 . S
C476 C475 1.407 . S
C476 C477 1.449 . S
C476 C480 1.535 . S
C477 C476 1.449 . S
C477 C478 1.384 . S
C477 C502 1.553 . S
C478 C477 1.384 . S
C478 C479 1.364 . S
C478 C481 1.450 . S
C479 C474 1.367 . S
C479 C478 1.364 . S
C479 H539 0.931 . S
C480 C476 1.535 . S
C480 H540 0.959 . S
C480 H541 0.961 . S
C480 H542 0.959 . S
C481 C478 1.450 . S
C481 H543 0.960 . S
C481 H544 0.960 . S
C481 H545 0.960 . S
C482 C483 1.309 . S
C482 C487 1.304 . S
C482 O520 1.435 . S
C483 C482 1.309 . S
C483 C484 1.476 . S
C483 H547 0.930 . S
C484 C483 1.476 . S
C484 C485 1.400 . S
C484 C488 1.567 . S
C485 C484 1.400 . S
C485 C486 1.373 . S
C485 C507 1.432 . S
C486 C485 1.373 . S
C486 C487 1.339 . S
C486 C489 1.530 . S
C487 C482 1.304 . S
C487 C486 1.339 . S
C487 H548 0.930 . S
C488 C484 1.567 . S
C488 H549 0.961 . S
C488 H550 0.960 . S
C488 H551 0.958 . S
C489 C486 1.530 . S
C489 H552 0.961 . S
C489 H553 0.960 . S
C489 H554 0.960 . S
C490 C491 1.530 . S
C490 H556 0.961 . S
C490 H557 0.961 . S
C490 H558 0.959 . S
C491 C490 1.530 . S
C491 O519 1.412 . S
C491 H555 0.980 . S
C492 C493 1.288 . S
C492 C497 1.377 . S
C492 O519 1.393 . S
C493 C492 1.288 . S
C493 C494 1.369 . S
C493 H559 0.932 . S
C494 C493 1.369 . S
C494 C495 1.398 . S
C494 C498 1.527 . S
C495 C494 1.398 . S
C495 C496 1.380 . S
C495 C509 1.497 . S
C496 C495 1.380 . S
C496 C497 1.383 . S
C496 C499 1.603 . S
C497 C492 1.377 . S
C497 C496 1.383 . S
C497 H560 0.929 . S
C498 C494 1.527 . S
C498 H561 0.961 . S
C498 H562 0.959 . S
C498 H563 0.959 . S
C499 C496 1.603 . S
C499 H564 0.960 . S
C499 H565 0.962 . S
C499 H566 0.961 . S
C500 C467 1.587 . S
C500 C501 1.360 . S
C500 C513 1.412 . S
C501 C500 1.360 . S
C501 C502 1.365 . S
C501 H567 0.929 . S
C502 C477 1.553 . S
C502 C501 1.365 . S
C502 C503 1.404 . S
C503 C502 1.404 . S
C503 C504 1.395 . S
C503 C514 1.451 . S
C504 C503 1.395 . S
C504 C505 1.322 . S
C504 H568 0.930 . S
C505 C504 1.322 . S
C505 C506 1.459 . S
C505 H569 0.929 . S
C506 C505 1.459 . S
C506 C507 1.445 . S
C506 C515 1.395 . S
C507 C485 1.432 . S
C507 C506 1.445 . S
C507 C508 1.370 . S
C508 C507 1.370 . S
C508 C509 1.438 . S
C508 H570 0.930 . S
C509 C495 1.497 . S
C509 C508 1.438 . S
C509 C510 1.360 . S
C510 C509 1.360 . S
C510 C511 1.401 . S
C510 C515 1.446 . S
C511 C510 1.401 . S
C511 C512 1.347 . S
C511 H571 0.929 . S
C512 C511 1.347 . S
C512 C513 1.455 . S
C512 H572 0.930 . S
C513 C500 1.412 . S
C513 C512 1.455 . S
C513 C514 1.331 . S
C514 C503 1.451 . S
C514 C513 1.331 . S
C514 C515 1.497 . S
C515 C506 1.395 . S
C515 C510 1.446 . S
C515 C514 1.497 . S
C516 C517 1.582 . S
C516 H573 0.962 . S
C516 H574 0.959 . S
C516 H575 0.958 . S
C517 C516 1.582 . S
C517 O520 1.458 . S
C517 H546 0.980 . S
O518 C463 1.426 . S
O518 C464 1.334 . S
O519 C491 1.412 . S
O519 C492 1.393 . S
O520 C482 1.435 . S
O520 C517 1.458 . S
O521 C473 1.468 . S
O521 C474 1.408 . S
H522 C463 0.980 . S
H523 C462 0.959 . S
H524 C462 0.959 . S
H525 C462 0.960 . S
H526 C465 0.929 . S
H527 C469 0.929 . S
H528 C470 0.959 . S
H529 C470 0.961 . S
H530 C470 0.961 . S
H531 C471 0.960 . S
H532 C471 0.960 . S
H533 C471 0.961 . S
H534 C473 0.980 . S
H535 C472 0.961 . S
H536 C472 0.960 . S
H537 C472 0.959 . S
H538 C475 0.930 . S
H539 C479 0.931 . S
H540 C480 0.959 . S
H541 C480 0.961 . S
H542 C480 0.959 . S
H543 C481 0.960 . S
H544 C481 0.960 . S
H545 C481 0.960 . S
H546 C517 0.980 . S
H547 C483 0.930 . S
H548 C487 0.930 . S
H549 C488 0.961 . S
H550 C488 0.960 . S
H551 C488 0.958 . S
H552 C489 0.961 . S
H553 C489 0.960 . S
H554 C489 0.960 . S
H555 C491 0.980 . S
H556 C490 0.961 . S
H557 C490 0.961 . S
H558 C490 0.959 . S
H559 C493 0.932 . S
H560 C497 0.929 . S
H561 C498 0.961 . S
H562 C498 0.959 . S
H563 C498 0.959 . S
H564 C499 0.960 . S
H565 C499 0.962 . S
H566 C499 0.961 . S
H567 C501 0.929 . S
H568 C504 0.930 . S
H569 C505 0.929 . S
H570 C508 0.930 . S
H571 C511 0.929 . S
H572 C512 0.930 . S
H573 C516 0.962 . S
H574 C516 0.959 . S
H575 C516 0.958 . S
C576 C577 1.560 . S
C576 H637 0.959 . S
C576 H638 0.959 . S
C576 H639 0.960 . S
C577 C576 1.560 . S
C577 O632 1.426 . S
C577 H636 0.980 . S
C578 C579 1.407 . S
C578 C583 1.418 . S
C578 O632 1.334 . S
C579 C578 1.407 . S
C579 C580 1.360 . S
C579 H640 0.929 . S
C580 C579 1.360 . S
C580 C581 1.401 . S
C580 C584 1.527 . S
C581 C580 1.401 . S
C581 C582 1.405 . S
C581 C614 1.587 . S
C582 C581 1.405 . S
C582 C583 1.332 . S
C582 C585 1.496 . S
C583 C578 1.418 . S
C583 C582 1.332 . S
C583 H641 0.929 . S
C584 C580 1.527 . S
C584 H642 0.959 . S
C584 H643 0.961 . S
C584 H644 0.961 . S
C585 C582 1.496 . S
C585 H645 0.960 . S
C585 H646 0.960 . S
C585 H647 0.961 . S
C586 C587 1.517 . S
C586 H649 0.961 . S
C586 H650 0.960 . S
C586 H651 0.959 . S
C587 C586 1.517 . S
C587 O635 1.468 . S
C587 H648 0.980 . S
C588 C589 1.349 . S
C588 C593 1.367 . S
C588 O635 1.408 . S
C589 C588 1.349 . S
C589 C590 1.407 . S
C589 H652 0.930 . S
C590 C589 1.407 . S
C590 C591 1.449 . S
C590 C594 1.535 . S
C591 C590 1.449 . S
C591 C592 1.384 . S
C591 C616 1.553 . S
C592 C591 1.384 . S
C592 C593 1.364 . S
C592 C595 1.450 . S
C593 C588 1.367 . S
C593 C592 1.364 . S
C593 H653 0.931 . S
C594 C590 1.535 . S
C594 H654 0.959 . S
C594 H655 0.961 . S
C594 H656 0.959 . S
C595 C592 1.450 . S
C595 H657 0.960 . S
C595 H658 0.960 . S
C595 H659 0.960 . S
C596 C597 1.309 . S
C596 C601 1.304 . S
C596 O634 1.435 . S
C597 C596 1.309 . S
C597 C598 1.476 . S
C597 H661 0.930 . S
C598 C597 1.476 . S
C598 C599 1.400 . S
C598 C602 1.567 . S
C599 C598 1.400 . S
C599 C600 1.373 . S
C599 C621 1.432 . S
C600 C599 1.373 . S
C600 C601 1.339 . S
C600 C603 1.530 . S
C601 C596 1.304 . S
C601 C600 1.339 . S
C601 H662 0.930 . S
C602 C598 1.567 . S
C602 H663 0.961 . S
C602 H664 0.960 . S
C602 H665 0.958 . S
C603 C600 1.530 . S
C603 H666 0.961 . S
C603 H667 0.960 . S
C603 H668 0.960 . S
C604 C605 1.530 . S
C604 H670 0.961 . S
C604 H671 0.961 . S
C604 H672 0.959 . S
C605 C604 1.530 . S
C605 O633 1.412 . S
C605 H669 0.980 . S
C606 C607 1.288 . S
C606 C611 1.377 . S
C606 O633 1.393 . S
C607 C606 1.288 . S
C607 C608 1.369 . S
C607 H673 0.932 . S
C608 C607 1.369 . S
C608 C609 1.398 . S
C608 C612 1.527 . S
C609 C608 1.398 . S
C609 C610 1.380 . S
C609 C623 1.497 . S
C610 C609 1.380 . S
C610 C611 1.383 . S
C610 C613 1.603 . S
C611 C606 1.377 . S
C611 C610 1.383 . S
C611 H674 0.929 . S
C612 C608 1.527 . S
C612 H675 0.961 . S
C612 H676 0.959 . S
C612 H677 0.959 . S
C613 C610 1.603 . S
C613 H678 0.960 . S
C613 H679 0.962 . S
C613 H680 0.961 . S
C614 C581 1.587 . S
C614 C615 1.360 . S
C614 C627 1.412 . S
C615 C614 1.360 . S
C615 C616 1.365 . S
C615 H681 0.929 . S
C616 C591 1.553 . S
C616 C615 1.365 . S
C616 C617 1.404 . S
C617 C616 1.404 . S
C617 C618 1.395 . S
C617 C628 1.451 . S
C618 C617 1.395 . S
C618 C619 1.322 . S
C618 H682 0.930 . S
C619 C618 1.322 . S
C619 C620 1.459 . S
C619 H683 0.929 . S
C620 C619 1.459 . S
C620 C621 1.445 . S
C620 C629 1.395 . S
C621 C599 1.432 . S
C621 C620 1.445 . S
C621 C622 1.370 . S
C622 C621 1.370 . S
C622 C623 1.438 . S
C622 H684 0.930 . S
C623 C609 1.497 . S
C623 C622 1.438 . S
C623 C624 1.360 . S
C624 C623 1.360 . S
C624 C625 1.401 . S
C624 C629 1.446 . S
C625 C624 1.401 . S
C625 C626 1.347 . S
C625 H685 0.929 . S
C626 C625 1.347 . S
C626 C627 1.455 . S
C626 H686 0.930 . S
C627 C614 1.412 . S
C627 C626 1.455 . S
C627 C628 1.331 . S
C628 C617 1.451 . S
C628 C627 1.331 . S
C628 C629 1.497 . S
C629 C620 1.395 . S
C629 C624 1.446 . S
C629 C628 1.497 . S
C630 C631 1.582 . S
C630 H687 0.962 . S
C630 H688 0.959 . S
C630 H689 0.958 . S
C631 C630 1.582 . S
C631 O634 1.458 . S
C631 H660 0.980 . S
O632 C577 1.426 . S
O632 C578 1.334 . S
O633 C605 1.412 . S
O633 C606 1.393 . S
O634 C596 1.435 . S
O634 C631 1.458 . S
O635 C587 1.468 . S
O635 C588 1.408 . S
H636 C577 0.980 . S
H637 C576 0.959 . S
H638 C576 0.959 . S
H639 C576 0.960 . S
H640 C579 0.929 . S
H641 C583 0.929 . S
H642 C584 0.959 . S
H643 C584 0.961 . S
H644 C584 0.961 . S
H645 C585 0.960 . S
H646 C585 0.960 . S
H647 C585 0.961 . S
H648 C587 0.980 . S
H649 C586 0.961 . S
H650 C586 0.960 . S
H651 C586 0.959 . S
H652 C589 0.930 . S
H653 C593 0.931 . S
H654 C594 0.959 . S
H655 C594 0.961 . S
H656 C594 0.959 . S
H657 C595 0.960 . S
H658 C595 0.960 . S
H659 C595 0.960 . S
H660 C631 0.980 . S
H661 C597 0.930 . S
H662 C601 0.930 . S
H663 C602 0.961 . S
H664 C602 0.960 . S
H665 C602 0.958 . S
H666 C603 0.961 . S
H667 C603 0.960 . S
H668 C603 0.960 . S
H669 C605 0.980 . S
H670 C604 0.961 . S
H671 C604 0.961 . S
H672 C604 0.959 . S
H673 C607 0.932 . S
H674 C611 0.929 . S
H675 C612 0.961 . S
H676 C612 0.959 . S
H677 C612 0.959 . S
H678 C613 0.960 . S
H679 C613 0.962 . S
H680 C613 0.961 . S
H681 C615 0.929 . S
H682 C618 0.930 . S
H683 C619 0.929 . S
H684 C622 0.930 . S
H685 C625 0.929 . S
H686 C626 0.930 . S
H687 C630 0.962 . S
H688 C630 0.959 . S
H689 C630 0.958 . S
C690 C691 1.560 . S
C690 H751 0.959 . S
C690 H752 0.959 . S
C690 H753 0.960 . S
C691 C690 1.560 . S
C691 O746 1.426 . S
C691 H750 0.980 . S
C692 C693 1.407 . S
C692 C697 1.418 . S
C692 O746 1.334 . S
C693 C692 1.407 . S
C693 C694 1.360 . S
C693 H754 0.929 . S
C694 C693 1.360 . S
C694 C695 1.401 . S
C694 C698 1.527 . S
C695 C694 1.401 . S
C695 C696 1.405 . S
C695 C728 1.587 . S
C696 C695 1.405 . S
C696 C697 1.332 . S
C696 C699 1.496 . S
C697 C692 1.418 . S
C697 C696 1.332 . S
C697 H755 0.929 . S
C698 C694 1.527 . S
C698 H756 0.959 . S
C698 H757 0.961 . S
C698 H758 0.961 . S
C699 C696 1.496 . S
C699 H759 0.960 . S
C699 H760 0.960 . S
C699 H761 0.961 . S
C700 C701 1.517 . S
C700 H763 0.961 . S
C700 H764 0.960 . S
C700 H765 0.959 . S
C701 C700 1.517 . S
C701 O749 1.468 . S
C701 H762 0.980 . S
C702 C703 1.349 . S
C702 C707 1.367 . S
C702 O749 1.408 . S
C703 C702 1.349 . S
C703 C704 1.407 . S
C703 H766 0.930 . S
C704 C703 1.407 . S
C704 C705 1.449 . S
C704 C708 1.535 . S
C705 C704 1.449 . S
C705 C706 1.384 . S
C705 C730 1.553 . S
C706 C705 1.384 . S
C706 C707 1.364 . S
C706 C709 1.450 . S
C707 C702 1.367 . S
C707 C706 1.364 . S
C707 H767 0.931 . S
C708 C704 1.535 . S
C708 H768 0.959 . S
C708 H769 0.961 . S
C708 H770 0.959 . S
C709 C706 1.450 . S
C709 H771 0.960 . S
C709 H772 0.960 . S
C709 H773 0.960 . S
C710 C711 1.309 . S
C710 C715 1.304 . S
C710 O748 1.435 . S
C711 C710 1.309 . S
C711 C712 1.476 . S
C711 H775 0.930 . S
C712 C711 1.476 . S
C712 C713 1.400 . S
C712 C716 1.567 . S
C713 C712 1.400 . S
C713 C714 1.373 . S
C713 C735 1.432 . S
C714 C713 1.373 . S
C714 C715 1.339 . S
C714 C717 1.530 . S
C715 C710 1.304 . S
C715 C714 1.339 . S
C715 H776 0.930 . S
C716 C712 1.567 . S
C716 H777 0.961 . S
C716 H778 0.960 . S
C716 H779 0.958 . S
C717 C714 1.530 . S
C717 H780 0.961 . S
C717 H781 0.960 . S
C717 H782 0.960 . S
C718 C719 1.530 . S
C718 H784 0.961 . S
C718 H785 0.961 . S
C718 H786 0.959 . S
C719 C718 1.530 . S
C719 O747 1.412 . S
C719 H783 0.980 . S
C720 C721 1.288 . S
C720 C725 1.377 . S
C720 O747 1.393 . S
C721 C720 1.288 . S
C721 C722 1.369 . S
C721 H787 0.932 . S
C722 C721 1.369 . S
C722 C723 1.398 . S
C722 C726 1.527 . S
C723 C722 1.398 . S
C723 C724 1.380 . S
C723 C737 1.497 . S
C724 C723 1.380 . S
C724 C725 1.383 . S
C724 C727 1.603 . S
C725 C720 1.377 . S
C725 C724 1.383 . S
C725 H788 0.929 . S
C726 C722 1.527 . S
C726 H789 0.961 . S
C726 H790 0.959 . S
C726 H791 0.959 . S
C727 C724 1.603 . S
C727 H792 0.960 . S
C727 H793 0.962 . S
C727 H794 0.961 . S
C728 C695 1.587 . S
C728 C729 1.360 . S
C728 C741 1.412 . S
C729 C728 1.360 . S
C729 C730 1.365 . S
C729 H795 0.929 . S
C730 C705 1.553 . S
C730 C729 1.365 . S
C730 C731 1.404 . S
C731 C730 1.404 . S
C731 C732 1.395 . S
C731 C742 1.451 . S
C732 C731 1.395 . S
C732 C733 1.322 . S
C732 H796 0.930 . S
C733 C732 1.322 . S
C733 C734 1.459 . S
C733 H797 0.929 . S
C734 C733 1.459 . S
C734 C735 1.445 . S
C734 C743 1.395 . S
C735 C713 1.432 . S
C735 C734 1.445 . S
C735 C736 1.370 . S
C736 C735 1.370 . S
C736 C737 1.438 . S
C736 H798 0.930 . S
C737 C723 1.497 . S
C737 C736 1.438 . S
C737 C738 1.360 . S
C738 C737 1.360 . S
C738 C739 1.401 . S
C738 C743 1.446 . S
C739 C738 1.401 . S
C739 C740 1.347 . S
C739 H799 0.929 . S
C740 C739 1.347 . S
C740 C741 1.455 . S
C740 H800 0.930 . S
C741 C728 1.412 . S
C741 C740 1.455 . S
C741 C742 1.331 . S
C742 C731 1.451 . S
C742 C741 1.331 . S
C742 C743 1.497 . S
C743 C734 1.395 . S
C743 C738 1.446 . S
C743 C742 1.497 . S
C744 C745 1.582 . S
C744 H801 0.962 . S
C744 H802 0.959 . S
C744 H803 0.958 . S
C745 C744 1.582 . S
C745 O748 1.458 . S
C745 H774 0.980 . S
O746 C691 1.426 . S
O746 C692 1.334 . S
O747 C719 1.412 . S
O747 C720 1.393 . S
O748 C710 1.435 . S
O748 C745 1.458 . S
O749 C701 1.468 . S
O749 C702 1.408 . S
H750 C691 0.980 . S
H751 C690 0.959 . S
H752 C690 0.959 . S
H753 C690 0.960 . S
H754 C693 0.929 . S
H755 C697 0.929 . S
H756 C698 0.959 . S
H757 C698 0.961 . S
H758 C698 0.961 . S
H759 C699 0.960 . S
H760 C699 0.960 . S
H761 C699 0.961 . S
H762 C701 0.980 . S
H763 C700 0.961 . S
H764 C700 0.960 . S
H765 C700 0.959 . S
H766 C703 0.930 . S
H767 C707 0.931 . S
H768 C708 0.959 . S
H769 C708 0.961 . S
H770 C708 0.959 . S
H771 C709 0.960 . S
H772 C709 0.960 . S
H773 C709 0.960 . S
H774 C745 0.980 . S
H775 C711 0.930 . S
H776 C715 0.930 . S
H777 C716 0.961 . S
H778 C716 0.960 . S
H779 C716 0.958 . S
H780 C717 0.961 . S
H781 C717 0.960 . S
H782 C717 0.960 . S
H783 C719 0.980 . S
H784 C718 0.961 . S
H785 C718 0.961 . S
H786 C718 0.959 . S
H787 C721 0.932 . S
H788 C725 0.929 . S
H789 C726 0.961 . S
H790 C726 0.959 . S
H791 C726 0.959 . S
H792 C727 0.960 . S
H793 C727 0.962 . S
H794 C727 0.961 . S
H795 C729 0.929 . S
H796 C732 0.930 . S
H797 C733 0.929 . S
H798 C736 0.930 . S
H799 C739 0.929 . S
H800 C740 0.930 . S
H801 C744 0.962 . S
H802 C744 0.959 . S
H803 C744 0.958 . S
C804 C805 1.560 . S
C804 H865 0.959 . S
C804 H866 0.959 . S
C804 H867 0.960 . S
C805 C804 1.560 . S
C805 O860 1.426 . S
C805 H864 0.980 . S
C806 C807 1.407 . S
C806 C811 1.418 . S
C806 O860 1.334 . S
C807 C806 1.407 . S
C807 C808 1.360 . S
C807 H868 0.929 . S
C808 C807 1.360 . S
C808 C809 1.401 . S
C808 C812 1.527 . S
C809 C808 1.401 . S
C809 C810 1.405 . S
C809 C842 1.587 . S
C810 C809 1.405 . S
C810 C811 1.332 . S
C810 C813 1.496 . S
C811 C806 1.418 . S
C811 C810 1.332 . S
C811 H869 0.929 . S
C812 C808 1.527 . S
C812 H870 0.959 . S
C812 H871 0.961 . S
C812 H872 0.961 . S
C813 C810 1.496 . S
C813 H873 0.960 . S
C813 H874 0.960 . S
C813 H875 0.961 . S
C814 C815 1.517 . S
C814 H877 0.961 . S
C814 H878 0.960 . S
C814 H879 0.959 . S
C815 C814 1.517 . S
C815 O863 1.468 . S
C815 H876 0.980 . S
C816 C817 1.349 . S
C816 C821 1.367 . S
C816 O863 1.408 . S
C817 C816 1.349 . S
C817 C818 1.407 . S
C817 H880 0.930 . S
C818 C817 1.407 . S
C818 C819 1.449 . S
C818 C822 1.535 . S
C819 C818 1.449 . S
C819 C820 1.384 . S
C819 C844 1.553 . S
C820 C819 1.384 . S
C820 C821 1.364 . S
C820 C823 1.450 . S
C821 C816 1.367 . S
C821 C820 1.364 . S
C821 H881 0.931 . S
C822 C818 1.535 . S
C822 H882 0.959 . S
C822 H883 0.961 . S
C822 H884 0.959 . S
C823 C820 1.450 . S
C823 H885 0.960 . S
C823 H886 0.960 . S
C823 H887 0.960 . S
C824 C825 1.309 . S
C824 C829 1.304 . S
C824 O862 1.435 . S
C825 C824 1.309 . S
C825 C826 1.476 . S
C825 H889 0.930 . S
C826 C825 1.476 . S
C826 C827 1.400 . S
C826 C830 1.567 . S
C827 C826 1.400 . S
C827 C828 1.373 . S
C827 C849 1.432 . S
C828 C827 1.373 . S
C828 C829 1.339 . S
C828 C831 1.530 . S
C829 C824 1.304 . S
C829 C828 1.339 . S
C829 H890 0.930 . S
C830 C826 1.567 . S
C830 H891 0.961 . S
C830 H892 0.960 . S
C830 H893 0.958 . S
C831 C828 1.530 . S
C831 H894 0.961 . S
C831 H895 0.960 . S
C831 H896 0.960 . S
C832 C833 1.530 . S
C832 H898 0.961 . S
C832 H899 0.961 . S
C832 H900 0.959 . S
C833 C832 1.530 . S
C833 O861 1.412 . S
C833 H897 0.980 . S
C834 C835 1.288 . S
C834 C839 1.377 . S
C834 O861 1.393 . S
C835 C834 1.288 . S
C835 C836 1.369 . S
C835 H901 0.932 . S
C836 C835 1.369 . S
C836 C837 1.398 . S
C836 C840 1.527 . S
C837 C836 1.398 . S
C837 C838 1.380 . S
C837 C851 1.497 . S
C838 C837 1.380 . S
C838 C839 1.383 . S
C838 C841 1.603 . S
C839 C834 1.377 . S
C839 C838 1.383 . S
C839 H902 0.929 . S
C840 C836 1.527 . S
C840 H903 0.961 . S
C840 H904 0.959 . S
C840 H905 0.959 . S
C841 C838 1.603 . S
C841 H906 0.960 . S
C841 H907 0.962 . S
C841 H908 0.961 . S
C842 C809 1.587 . S
C842 C843 1.360 . S
C842 C855 1.412 . S
C843 C842 1.360 . S
C843 C844 1.365 . S
C843 H909 0.929 . S
C844 C819 1.553 . S
C844 C843 1.365 . S
C844 C845 1.404 . S
C845 C844 1.404 . S
C845 C846 1.395 . S
C845 C856 1.451 . S
C846 C845 1.395 . S
C846 C847 1.322 . S
C846 H910 0.930 . S
C847 C846 1.322 . S
C847 C848 1.459 . S
C847 H911 0.929 . S
C848 C847 1.459 . S
C848 C849 1.445 . S
C848 C857 1.395 . S
C849 C827 1.432 . S
C849 C848 1.445 . S
C849 C850 1.370 . S
C850 C849 1.370 . S
C850 C851 1.438 . S
C850 H912 0.930 . S
C851 C837 1.497 . S
C851 C850 1.438 . S
C851 C852 1.360 . S
C852 C851 1.360 . S
C852 C853 1.401 . S
C852 C857 1.446 . S
C853 C852 1.401 . S
C853 C854 1.347 . S
C853 H913 0.929 . S
C854 C853 1.347 . S
C854 C855 1.455 . S
C854 H914 0.930 . S
C855 C842 1.412 . S
C855 C854 1.455 . S
C855 C856 1.331 . S
C856 C845 1.451 . S
C856 C855 1.331 . S
C856 C857 1.497 . S
C857 C848 1.395 . S
C857 C852 1.446 . S
C857 C856 1.497 . S
C858 C859 1.582 . S
C858 H915 0.962 . S
C858 H916 0.959 . S
C858 H917 0.958 . S
C859 C858 1.582 . S
C859 O862 1.458 . S
C859 H888 0.980 . S
O860 C805 1.426 . S
O860 C806 1.334 . S
O861 C833 1.412 . S
O861 C834 1.393 . S
O862 C824 1.435 . S
O862 C859 1.458 . S
O863 C815 1.468 . S
O863 C816 1.408 . S
H864 C805 0.980 . S
H865 C804 0.959 . S
H866 C804 0.959 . S
H867 C804 0.960 . S
H868 C807 0.929 . S
H869 C811 0.929 . S
H870 C812 0.959 . S
H871 C812 0.961 . S
H872 C812 0.961 . S
H873 C813 0.960 . S
H874 C813 0.960 . S
H875 C813 0.961 . S
H876 C815 0.980 . S
H877 C814 0.961 . S
H878 C814 0.960 . S
H879 C814 0.959 . S
H880 C817 0.930 . S
H881 C821 0.931 . S
H882 C822 0.959 . S
H883 C822 0.961 . S
H884 C822 0.959 . S
H885 C823 0.960 . S
H886 C823 0.960 . S
H887 C823 0.960 . S
H888 C859 0.980 . S
H889 C825 0.930 . S
H890 C829 0.930 . S
H891 C830 0.961 . S
H892 C830 0.960 . S
H893 C830 0.958 . S
H894 C831 0.961 . S
H895 C831 0.960 . S
H896 C831 0.960 . S
H897 C833 0.980 . S
H898 C832 0.961 . S
H899 C832 0.961 . S
H900 C832 0.959 . S
H901 C835 0.932 . S
H902 C839 0.929 . S
H903 C840 0.961 . S
H904 C840 0.959 . S
H905 C840 0.959 . S
H906 C841 0.960 . S
H907 C841 0.962 . S
H908 C841 0.961 . S
H909 C843 0.929 . S
H910 C846 0.930 . S
H911 C847 0.929 . S
H912 C850 0.930 . S
H913 C853 0.929 . S
H914 C854 0.930 . S
H915 C858 0.962 . S
H916 C858 0.959 . S
H917 C858 0.958 . S
C918 C919 1.560 . S
C918 H979 0.959 . S
C918 H980 0.959 . S
C918 H981 0.960 . S
C919 C918 1.560 . S
C919 O974 1.426 . S
C919 H978 0.980 . S
C920 C921 1.407 . S
C920 C925 1.418 . S
C920 O974 1.334 . S
C921 C920 1.407 . S
C921 C922 1.360 . S
C921 H982 0.929 . S
C922 C921 1.360 . S
C922 C923 1.401 . S
C922 C926 1.527 . S
C923 C922 1.401 . S
C923 C924 1.405 . S
C923 C956 1.587 . S
C924 C923 1.405 . S
C924 C925 1.332 . S
C924 C927 1.496 . S
C925 C920 1.418 . S
C925 C924 1.332 . S
C925 H983 0.929 . S
C926 C922 1.527 . S
C926 H984 0.959 . S
C926 H985 0.961 . S
C926 H986 0.961 . S
C927 C924 1.496 . S
C927 H987 0.960 . S
C927 H988 0.960 . S
C927 H989 0.961 . S
C928 C929 1.517 . S
C928 H991 0.961 . S
C928 H992 0.960 . S
C928 H993 0.959 . S
C929 C928 1.517 . S
C929 O977 1.468 . S
C929 H990 0.980 . S
C930 C931 1.349 . S
C930 C935 1.367 . S
C930 O977 1.408 . S
C931 C930 1.349 . S
C931 C932 1.407 . S
C931 H994 0.930 . S
C932 C931 1.407 . S
C932 C933 1.449 . S
C932 C936 1.535 . S
C933 C932 1.449 . S
C933 C934 1.384 . S
C933 C958 1.553 . S
C934 C933 1.384 . S
C934 C935 1.364 . S
C934 C937 1.450 . S
C935 C930 1.367 . S
C935 C934 1.364 . S
C935 H995 0.931 . S
C936 C932 1.535 . S
C936 H996 0.959 . S
C936 H997 0.961 . S
C936 H998 0.959 . S
C937 C934 1.450 . S
C937 H999 0.960 . S
C937 H1000 0.960 . S
C937 H1001 0.960 . S
C938 C939 1.309 . S
C938 C943 1.304 . S
C938 O976 1.435 . S
C939 C938 1.309 . S
C939 C940 1.476 . S
C939 H1003 0.930 . S
C940 C939 1.476 . S
C940 C941 1.400 . S
C940 C944 1.567 . S
C941 C940 1.400 . S
C941 C942 1.373 . S
C941 C963 1.432 . S
C942 C941 1.373 . S
C942 C943 1.339 . S
C942 C945 1.530 . S
C943 C938 1.304 . S
C943 C942 1.339 . S
C943 H1004 0.930 . S
C944 C940 1.567 . S
C944 H1005 0.961 . S
C944 H1006 0.960 . S
C944 H1007 0.958 . S
C945 C942 1.530 . S
C945 H1008 0.961 . S
C945 H1009 0.960 . S
C945 H1010 0.960 . S
C946 C947 1.530 . S
C946 H1012 0.961 . S
C946 H1013 0.961 . S
C946 H1014 0.959 . S
C947 C946 1.530 . S
C947 O975 1.412 . S
C947 H1011 0.980 . S
C948 C949 1.288 . S
C948 C953 1.377 . S
C948 O975 1.393 . S
C949 C948 1.288 . S
C949 C950 1.369 . S
C949 H1015 0.932 . S
C950 C949 1.369 . S
C950 C951 1.398 . S
C950 C954 1.527 . S
C951 C950 1.398 . S
C951 C952 1.380 . S
C951 C965 1.497 . S
C952 C951 1.380 . S
C952 C953 1.383 . S
C952 C955 1.603 . S
C953 C948 1.377 . S
C953 C952 1.383 . S
C953 H1016 0.929 . S
C954 C950 1.527 . S
C954 H1017 0.961 . S
C954 H1018 0.959 . S
C954 H1019 0.959 . S
C955 C952 1.603 . S
C955 H1020 0.960 . S
C955 H1021 0.962 . S
C955 H1022 0.961 . S
C956 C923 1.587 . S
C956 C957 1.360 . S
C956 C969 1.412 . S
C957 C956 1.360 . S
C957 C958 1.365 . S
C957 H1023 0.929 . S
C958 C933 1.553 . S
C958 C957 1.365 . S
C958 C959 1.404 . S
C959 C958 1.404 . S
C959 C960 1.395 . S
C959 C970 1.451 . S
C960 C959 1.395 . S
C960 C961 1.322 . S
C960 H1024 0.930 . S
C961 C960 1.322 . S
C961 C962 1.459 . S
C961 H1025 0.929 . S
C962 C961 1.459 . S
C962 C963 1.445 . S
C962 C971 1.395 . S
C963 C941 1.432 . S
C963 C962 1.445 . S
C963 C964 1.370 . S
C964 C963 1.370 . S
C964 C965 1.438 . S
C964 H1026 0.930 . S
C965 C951 1.497 . S
C965 C964 1.438 . S
C965 C966 1.360 . S
C966 C965 1.360 . S
C966 C967 1.401 . S
C966 C971 1.446 . S
C967 C966 1.401 . S
C967 C968 1.347 . S
C967 H1027 0.929 . S
C968 C967 1.347 . S
C968 C969 1.455 . S
C968 H1028 0.930 . S
C969 C956 1.412 . S
C969 C968 1.455 . S
C969 C970 1.331 . S
C970 C959 1.451 . S
C970 C969 1.331 . S
C970 C971 1.497 . S
C971 C962 1.395 . S
C971 C966 1.446 . S
C971 C970 1.497 . S
C972 C973 1.582 . S
C972 H1029 0.962 . S
C972 H1030 0.959 . S
C972 H1031 0.958 . S
C973 C972 1.582 . S
C973 O976 1.458 . S
C973 H1002 0.980 . S
O974 C919 1.426 . S
O974 C920 1.334 . S
O975 C947 1.412 . S
O975 C948 1.393 . S
O976 C938 1.435 . S
O976 C973 1.458 . S
O977 C929 1.468 . S
O977 C930 1.408 . S
H978 C919 0.980 . S
H979 C918 0.959 . S
H980 C918 0.959 . S
H981 C918 0.960 . S
H982 C921 0.929 . S
H983 C925 0.929 . S
H984 C926 0.959 . S
H985 C926 0.961 . S
H986 C926 0.961 . S
H987 C927 0.960 . S
H988 C927 0.960 . S
H989 C927 0.961 . S
H990 C929 0.980 . S
H991 C928 0.961 . S
H992 C928 0.960 . S
H993 C928 0.959 . S
H994 C931 0.930 . S
H995 C935 0.931 . S
H996 C936 0.959 . S
H997 C936 0.961 . S
H998 C936 0.959 . S
H999 C937 0.960 . S
H1000 C937 0.960 . S
H1001 C937 0.960 . S
H1002 C973 0.980 . S
H1003 C939 0.930 . S
H1004 C943 0.930 . S
H1005 C944 0.961 . S
H1006 C944 0.960 . S
H1007 C944 0.958 . S
H1008 C945 0.961 . S
H1009 C945 0.960 . S
H1010 C945 0.960 . S
H1011 C947 0.980 . S
H1012 C946 0.961 . S
H1013 C946 0.961 . S
H1014 C946 0.959 . S
H1015 C949 0.932 . S
H1016 C953 0.929 . S
H1017 C954 0.961 . S
H1018 C954 0.959 . S
H1019 C954 0.959 . S
H1020 C955 0.960 . S
H1021 C955 0.962 . S
H1022 C955 0.961 . S
H1023 C957 0.929 . S
H1024 C960 0.930 . S
H1025 C961 0.929 . S
H1026 C964 0.930 . S
H1027 C967 0.929 . S
H1028 C968 0.930 . S
H1029 C972 0.962 . S
H1030 C972 0.959 . S
H1031 C972 0.958 . S
C1032 C1033 1.560 . S
C1032 H1093 0.959 . S
C1032 H1094 0.959 . S
C1032 H1095 0.960 . S
C1033 C1032 1.560 . S
C1033 O1088 1.426 . S
C1033 H1092 0.980 . S
C1034 C1035 1.407 . S
C1034 C1039 1.418 . S
C1034 O1088 1.334 . S
C1035 C1034 1.407 . S
C1035 C1036 1.360 . S
C1035 H1096 0.929 . S
C1036 C1035 1.360 . S
C1036 C1037 1.401 . S
C1036 C1040 1.527 . S
C1037 C1036 1.401 . S
C1037 C1038 1.405 . S
C1037 C1070 1.587 . S
C1038 C1037 1.405 . S
C1038 C1039 1.332 . S
C1038 C1041 1.496 . S
C1039 C1034 1.418 . S
C1039 C1038 1.332 . S
C1039 H1097 0.929 . S
C1040 C1036 1.527 . S
C1040 H1098 0.959 . S
C1040 H1099 0.961 . S
C1040 H1100 0.961 . S
C1041 C1038 1.496 . S
C1041 H1101 0.960 . S
C1041 H1102 0.960 . S
C1041 H1103 0.961 . S
C1042 C1043 1.517 . S
C1042 H1105 0.961 . S
C1042 H1106 0.960 . S
C1042 H1107 0.959 . S
C1043 C1042 1.517 . S
C1043 O1091 1.468 . S
C1043 H1104 0.980 . S
C1044 C1045 1.349 . S
C1044 C1049 1.367 . S
C1044 O1091 1.408 . S
C1045 C1044 1.349 . S
C1045 C1046 1.407 . S
C1045 H1108 0.930 . S
C1046 C1045 1.407 . S
C1046 C1047 1.449 . S
C1046 C1050 1.535 . S
C1047 C1046 1.449 . S
C1047 C1048 1.384 . S
C1047 C1072 1.553 . S
C1048 C1047 1.384 . S
C1048 C1049 1.364 . S
C1048 C1051 1.450 . S
C1049 C1044 1.367 . S
C1049 C1048 1.364 . S
C1049 H1109 0.931 . S
C1050 C1046 1.535 . S
C1050 H1110 0.959 . S
C1050 H1111 0.961 . S
C1050 H1112 0.959 . S
C1051 C1048 1.450 . S
C1051 H1113 0.960 . S
C1051 H1114 0.960 . S
C1051 H1115 0.960 . S
C1052 C1053 1.309 . S
C1052 C1057 1.304 . S
C1052 O1090 1.435 . S
C1053 C1052 1.309 . S
C1053 C1054 1.476 . S
C1053 H1117 0.930 . S
C1054 C1053 1.476 . S
C1054 C1055 1.400 . S
C1054 C1058 1.567 . S
C1055 C1054 1.400 . S
C1055 C1056 1.373 . S
C1055 C1077 1.432 . S
C1056 C1055 1.373 . S
C1056 C1057 1.339 . S
C1056 C1059 1.530 . S
C1057 C1052 1.304 . S
C1057 C1056 1.339 . S
C1057 H1118 0.930 . S
C1058 C1054 1.567 . S
C1058 H1119 0.961 . S
C1058 H1120 0.960 . S
C1058 H1121 0.958 . S
C1059 C1056 1.530 . S
C1059 H1122 0.961 . S
C1059 H1123 0.960 . S
C1059 H1124 0.960 . S
C1060 C1061 1.530 . S
C1060 H1126 0.961 . S
C1060 H1127 0.961 . S
C1060 H1128 0.959 . S
C1061 C1060 1.530 . S
C1061 O1089 1.412 . S
C1061 H1125 0.980 . S
C1062 C1063 1.288 . S
C1062 C1067 1.377 . S
C1062 O1089 1.393 . S
C1063 C1062 1.288 . S
C1063 C1064 1.369 . S
C1063 H1129 0.932 . S
C1064 C1063 1.369 . S
C1064 C1065 1.398 . S
C1064 C1068 1.527 . S
C1065 C1064 1.398 . S
C1065 C1066 1.380 . S
C1065 C1079 1.497 . S
C1066 C1065 1.380 . S
C1066 C1067 1.383 . S
C1066 C1069 1.603 . S
C1067 C1062 1.377 . S
C1067 C1066 1.383 . S
C1067 H1130 0.929 . S
C1068 C1064 1.527 . S
C1068 H1131 0.961 . S
C1068 H1132 0.959 . S
C1068 H1133 0.959 . S
C1069 C1066 1.603 . S
C1069 H1134 0.960 . S
C1069 H1135 0.962 . S
C1069 H1136 0.961 . S
C1070 C1037 1.587 . S
C1070 C1071 1.360 . S
C1070 C1083 1.412 . S
C1071 C1070 1.360 . S
C1071 C1072 1.365 . S
C1071 H1137 0.929 . S
C1072 C1047 1.553 . S
C1072 C1071 1.365 . S
C1072 C1073 1.404 . S
C1073 C1072 1.404 . S
C1073 C1074 1.395 . S
C1073 C1084 1.451 . S
C1074 C1073 1.395 . S
C1074 C1075 1.322 . S
C1074 H1138 0.930 . S
C1075 C1074 1.322 . S
C1075 C1076 1.459 . S
C1075 H1139 0.929 . S
C1076 C1075 1.459 . S
C1076 C1077 1.445 . S
C1076 C1085 1.395 . S
C1077 C1055 1.432 . S
C1077 C1076 1.445 . S
C1077 C1078 1.370 . S
C1078 C1077 1.370 . S
C1078 C1079 1.438 . S
C1078 H1140 0.930 . S
C1079 C1065 1.497 . S
C1079 C1078 1.438 . S
C1079 C1080 1.360 . S
C1080 C1079 1.360 . S
C1080 C1081 1.401 . S
C1080 C1085 1.446 . S
C1081 C1080 1.401 . S
C1081 C1082 1.347 . S
C1081 H1141 0.929 . S
C1082 C1081 1.347 . S
C1082 C1083 1.455 . S
C1082 H1142 0.930 . S
C1083 C1070 1.412 . S
C1083 C1082 1.455 . S
C1083 C1084 1.331 . S
C1084 C1073 1.451 . S
C1084 C1083 1.331 . S
C1084 C1085 1.497 . S
C1085 C1076 1.395 . S
C1085 C1080 1.446 . S
C1085 C1084 1.497 . S
C1086 C1087 1.582 . S
C1086 H1143 0.962 . S
C1086 H1144 0.959 . S
C1086 H1145 0.958 . S
C1087 C1086 1.582 . S
C1087 O1090 1.458 . S
C1087 H1116 0.980 . S
O1088 C1033 1.426 . S
O1088 C1034 1.334 . S
O1089 C1061 1.412 . S
O1089 C1062 1.393 . S
O1090 C1052 1.435 . S
O1090 C1087 1.458 . S
O1091 C1043 1.468 . S
O1091 C1044 1.408 . S
H1092 C1033 0.980 . S
H1093 C1032 0.959 . S
H1094 C1032 0.959 . S
H1095 C1032 0.960 . S
H1096 C1035 0.929 . S
H1097 C1039 0.929 . S
H1098 C1040 0.959 . S
H1099 C1040 0.961 . S
H1100 C1040 0.961 . S
H1101 C1041 0.960 . S
H1102 C1041 0.960 . S
H1103 C1041 0.961 . S
H1104 C1043 0.980 . S
H1105 C1042 0.961 . S
H1106 C1042 0.960 . S
H1107 C1042 0.959 . S
H1108 C1045 0.930 . S
H1109 C1049 0.931 . S
H1110 C1050 0.959 . S
H1111 C1050 0.961 . S
H1112 C1050 0.959 . S
H1113 C1051 0.960 . S
H1114 C1051 0.960 . S
H1115 C1051 0.960 . S
H1116 C1087 0.980 . S
H1117 C1053 0.930 . S
H1118 C1057 0.930 . S
H1119 C1058 0.961 . S
H1120 C1058 0.960 . S
H1121 C1058 0.958 . S
H1122 C1059 0.961 . S
H1123 C1059 0.960 . S
H1124 C1059 0.960 . S
H1125 C1061 0.980 . S
H1126 C1060 0.961 . S
H1127 C1060 0.961 . S
H1128 C1060 0.959 . S
H1129 C1063 0.932 . S
H1130 C1067 0.929 . S
H1131 C1068 0.961 . S
H1132 C1068 0.959 . S
H1133 C1068 0.959 . S
H1134 C1069 0.960 . S
H1135 C1069 0.962 . S
H1136 C1069 0.961 . S
H1137 C1071 0.929 . S
H1138 C1074 0.930 . S
H1139 C1075 0.929 . S
H1140 C1078 0.930 . S
H1141 C1081 0.929 . S
H1142 C1082 0.930 . S
H1143 C1086 0.962 . S
H1144 C1086 0.959 . S
H1145 C1086 0.958 . S
C1146 C1147 1.560 . S
C1146 H1207 0.959 . S
C1146 H1208 0.959 . S
C1146 H1209 0.960 . S
C1147 C1146 1.560 . S
C1147 O1202 1.426 . S
C1147 H1206 0.980 . S
C1148 C1149 1.407 . S
C1148 C1153 1.418 . S
C1148 O1202 1.334 . S
C1149 C1148 1.407 . S
C1149 C1150 1.360 . S
C1149 H1210 0.929 . S
C1150 C1149 1.360 . S
C1150 C1151 1.401 . S
C1150 C1154 1.527 . S
C1151 C1150 1.401 . S
C1151 C1152 1.405 . S
C1151 C1184 1.587 . S
C1152 C1151 1.405 . S
C1152 C1153 1.332 . S
C1152 C1155 1.496 . S
C1153 C1148 1.418 . S
C1153 C1152 1.332 . S
C1153 H1211 0.929 . S
C1154 C1150 1.527 . S
C1154 H1212 0.959 . S
C1154 H1213 0.961 . S
C1154 H1214 0.961 . S
C1155 C1152 1.496 . S
C1155 H1215 0.960 . S
C1155 H1216 0.960 . S
C1155 H1217 0.961 . S
C1156 C1157 1.517 . S
C1156 H1219 0.961 . S
C1156 H1220 0.960 . S
C1156 H1221 0.959 . S
C1157 C1156 1.517 . S
C1157 O1205 1.468 . S
C1157 H1218 0.980 . S
C1158 C1159 1.349 . S
C1158 C1163 1.367 . S
C1158 O1205 1.408 . S
C1159 C1158 1.349 . S
C1159 C1160 1.407 . S
C1159 H1222 0.930 . S
C1160 C1159 1.407 . S
C1160 C1161 1.449 . S
C1160 C1164 1.535 . S
C1161 C1160 1.449 . S
C1161 C1162 1.384 . S
C1161 C1186 1.553 . S
C1162 C1161 1.384 . S
C1162 C1163 1.364 . S
C1162 C1165 1.450 . S
C1163 C1158 1.367 . S
C1163 C1162 1.364 . S
C1163 H1223 0.931 . S
C1164 C1160 1.535 . S
C1164 H1224 0.959 . S
C1164 H1225 0.961 . S
C1164 H1226 0.959 . S
C1165 C1162 1.450 . S
C1165 H1227 0.960 . S
C1165 H1228 0.960 . S
C1165 H1229 0.960 . S
C1166 C1167 1.309 . S
C1166 C1171 1.304 . S
C1166 O1204 1.435 . S
C1167 C1166 1.309 . S
C1167 C1168 1.476 . S
C1167 H1231 0.930 . S
C1168 C1167 1.476 . S
C1168 C1169 1.400 . S
C1168 C1172 1.567 . S
C1169 C1168 1.400 . S
C1169 C1170 1.373 . S
C1169 C1191 1.432 . S
C1170 C1169 1.373 . S
C1170 C1171 1.339 . S
C1170 C1173 1.530 . S
C1171 C1166 1.304 . S
C1171 C1170 1.339 . S
C1171 H1232 0.930 . S
C1172 C1168 1.567 . S
C1172 H1233 0.961 . S
C1172 H1234 0.960 . S
C1172 H1235 0.958 . S
C1173 C1170 1.530 . S
C1173 H1236 0.961 . S
C1173 H1237 0.960 . S
C1173 H1238 0.960 . S
C1174 C1175 1.530 . S
C1174 H1240 0.961 . S
C1174 H1241 0.961 . S
C1174 H1242 0.959 . S
C1175 C1174 1.530 . S
C1175 O1203 1.412 . S
C1175 H1239 0.980 . S
C1176 C1177 1.288 . S
C1176 C1181 1.377 . S
C1176 O1203 1.393 . S
C1177 C1176 1.288 . S
C1177 C1178 1.369 . S
C1177 H1243 0.932 . S
C1178 C1177 1.369 . S
C1178 C1179 1.398 . S
C1178 C1182 1.527 . S
C1179 C1178 1.398 . S
C1179 C1180 1.380 . S
C1179 C1193 1.497 . S
C1180 C1179 1.380 . S
C1180 C1181 1.383 . S
C1180 C1183 1.603 . S
C1181 C1176 1.377 . S
C1181 C1180 1.383 . S
C1181 H1244 0.929 . S
C1182 C1178 1.527 . S
C1182 H1245 0.961 . S
C1182 H1246 0.959 . S
C1182 H1247 0.959 . S
C1183 C1180 1.603 . S
C1183 H1248 0.960 . S
C1183 H1249 0.962 . S
C1183 H1250 0.961 . S
C1184 C1151 1.587 . S
C1184 C1185 1.360 . S
C1184 C1197 1.412 . S
C1185 C1184 1.360 . S
C1185 C1186 1.365 . S
C1185 H1251 0.929 . S
C1186 C1161 1.553 . S
C1186 C1185 1.365 . S
C1186 C1187 1.404 . S
C1187 C1186 1.404 . S
C1187 C1188 1.395 . S
C1187 C1198 1.451 . S
C1188 C1187 1.395 . S
C1188 C1189 1.322 . S
C1188 H1252 0.930 . S
C1189 C1188 1.322 . S
C1189 C1190 1.459 . S
C1189 H1253 0.929 . S
C1190 C1189 1.459 . S
C1190 C1191 1.445 . S
C1190 C1199 1.395 . S
C1191 C1169 1.432 . S
C1191 C1190 1.445 . S
C1191 C1192 1.370 . S
C1192 C1191 1.370 . S
C1192 C1193 1.438 . S
C1192 H1254 0.930 . S
C1193 C1179 1.497 . S
C1193 C1192 1.438 . S
C1193 C1194 1.360 . S
C1194 C1193 1.360 . S
C1194 C1195 1.401 . S
C1194 C1199 1.446 . S
C1195 C1194 1.401 . S
C1195 C1196 1.347 . S
C1195 H1255 0.929 . S
C1196 C1195 1.347 . S
C1196 C1197 1.455 . S
C1196 H1256 0.930 . S
C1197 C1184 1.412 . S
C1197 C1196 1.455 . S
C1197 C1198 1.331 . S
C1198 C1187 1.451 . S
C1198 C1197 1.331 . S
C1198 C1199 1.497 . S
C1199 C1190 1.395 . S
C1199 C1194 1.446 . S
C1199 C1198 1.497 . S
C1200 C1201 1.582 . S
C1200 H1257 0.962 . S
C1200 H1258 0.959 . S
C1200 H1259 0.958 . S
C1201 C1200 1.582 . S
C1201 O1204 1.458 . S
C1201 H1230 0.980 . S
O1202 C1147 1.426 . S
O1202 C1148 1.334 . S
O1203 C1175 1.412 . S
O1203 C1176 1.393 . S
O1204 C1166 1.435 . S
O1204 C1201 1.458 . S
O1205 C1157 1.468 . S
O1205 C1158 1.408 . S
H1206 C1147 0.980 . S
H1207 C1146 0.959 . S
H1208 C1146 0.959 . S
H1209 C1146 0.960 . S
H1210 C1149 0.929 . S
H1211 C1153 0.929 . S
H1212 C1154 0.959 . S
H1213 C1154 0.961 . S
H1214 C1154 0.961 . S
H1215 C1155 0.960 . S
H1216 C1155 0.960 . S
H1217 C1155 0.961 . S
H1218 C1157 0.980 . S
H1219 C1156 0.961 . S
H1220 C1156 0.960 . S
H1221 C1156 0.959 . S
H1222 C1159 0.930 . S
H1223 C1163 0.931 . S
H1224 C1164 0.959 . S
H1225 C1164 0.961 . S
H1226 C1164 0.959 . S
H1227 C1165 0.960 . S
H1228 C1165 0.960 . S
H1229 C1165 0.960 . S
H1230 C1201 0.980 . S
H1231 C1167 0.930 . S
H1232 C1171 0.930 . S
H1233 C1172 0.961 . S
H1234 C1172 0.960 . S
H1235 C1172 0.958 . S
H1236 C1173 0.961 . S
H1237 C1173 0.960 . S
H1238 C1173 0.960 . S
H1239 C1175 0.980 . S
H1240 C1174 0.961 . S
H1241 C1174 0.961 . S
H1242 C1174 0.959 . S
H1243 C1177 0.932 . S
H1244 C1181 0.929 . S
H1245 C1182 0.961 . S
H1246 C1182 0.959 . S
H1247 C1182 0.959 . S
H1248 C1183 0.960 . S
H1249 C1183 0.962 . S
H1250 C1183 0.961 . S
H1251 C1185 0.929 . S
H1252 C1188 0.930 . S
H1253 C1189 0.929 . S
H1254 C1192 0.930 . S
H1255 C1195 0.929 . S
H1256 C1196 0.930 . S
H1257 C1200 0.962 . S
H1258 C1200 0.959 . S
H1259 C1200 0.958 . S
C1260 C1261 1.560 . S
C1260 H1321 0.959 . S
C1260 H1322 0.959 . S
C1260 H1323 0.960 . S
C1261 C1260 1.560 . S
C1261 O1316 1.426 . S
C1261 H1320 0.980 . S
C1262 C1263 1.407 1_455 S
C1262 C1267 1.418 . S
C1262 O1316 1.334 . S
C1263 C1262 1.407 1_655 S
C1263 C1264 1.360 . S
C1263 H1324 0.929 . S
C1264 C1263 1.360 . S
C1264 C1265 1.401 1_655 S
C1264 C1268 1.527 . S
C1265 C1264 1.401 1_455 S
C1265 C1266 1.405 . S
C1265 C1298 1.587 1_455 S
C1266 C1265 1.405 . S
C1266 C1267 1.332 . S
C1266 C1269 1.496 . S
C1267 C1262 1.418 . S
C1267 C1266 1.332 . S
C1267 H1325 0.929 . S
C1268 C1264 1.527 . S
C1268 H1326 0.959 . S
C1268 H1327 0.961 . S
C1268 H1328 0.961 . S
C1269 C1266 1.496 . S
C1269 H1329 0.960 . S
C1269 H1330 0.960 . S
C1269 H1331 0.961 . S
C1270 C1271 1.517 . S
C1270 H1333 0.961 . S
C1270 H1334 0.960 . S
C1270 H1335 0.959 . S
C1271 C1270 1.517 . S
C1271 O1319 1.468 . S
C1271 H1332 0.949 1_655 S
C1272 C1273 1.349 . S
C1272 C1277 1.367 . S
C1272 O1319 1.408 . S
C1273 C1272 1.349 . S
C1273 C1274 1.400 1_655 S
C1273 H1336 0.930 1_655 S
C1274 C1273 1.400 1_455 S
C1274 C1275 1.444 1_455 S
C1274 C1278 1.547 . S
C1275 C1274 1.444 1_655 S
C1275 C1276 1.384 . S
C1275 C1300 1.553 . S
C1276 C1275 1.384 . S
C1276 C1277 1.364 . S
C1276 C1279 1.450 . S
C1277 C1272 1.367 . S
C1277 C1276 1.364 . S
C1277 H1337 0.931 . S
C1278 C1274 1.547 . S
C1278 H1338 0.959 . S
C1278 H1339 0.961 . S
C1278 H1340 0.959 . S
C1279 C1276 1.450 . S
C1279 H1341 0.960 . S
C1279 H1342 0.960 . S
C1279 H1343 0.960 . S
C1280 C1281 1.309 . S
C1280 C1285 1.304 . S
C1280 O1318 1.435 . S
C1281 C1280 1.309 . S
C1281 C1282 1.487 . S
C1281 H1345 0.930 1_655 S
C1282 C1281 1.487 . S
C1282 C1283 1.406 . S
C1282 C1286 1.549 1_655 S
C1283 C1282 1.406 . S
C1283 C1284 1.373 . S
C1283 C1305 1.432 . S
C1284 C1283 1.373 . S
C1284 C1285 1.339 . S
C1284 C1287 1.530 . S
C1285 C1280 1.304 . S
C1285 C1284 1.339 . S
C1285 H1346 0.930 . S
C1286 C1282 1.549 1_455 S
C1286 H1347 0.961 . S
C1286 H1348 0.960 . S
C1286 H1349 0.958 . S
C1287 C1284 1.530 . S
C1287 H1350 0.961 . S
C1287 H1351 0.960 . S
C1287 H1352 0.960 . S
C1288 C1289 1.530 . S
C1288 H1354 0.961 . S
C1288 H1355 0.961 . S
C1288 H1356 0.959 . S
C1289 C1288 1.530 . S
C1289 O1317 1.412 . S
C1289 H1353 0.980 1_455 S
C1290 C1291 1.288 . S
C1290 C1295 1.377 1_455 S
C1290 O1317 1.393 . S
C1291 C1290 1.288 . S
C1291 C1292 1.369 . S
C1291 H1357 0.932 . S
C1292 C1291 1.369 . S
C1292 C1293 1.327 1_455 S
C1292 C1296 1.527 . S
C1293 C1292 1.327 1_655 S
C1293 C1294 1.401 . S
C1293 C1307 1.547 . S
C1294 C1293 1.401 . S
C1294 C1295 1.383 . S
C1294 C1297 1.603 . S
C1295 C1290 1.377 1_655 S
C1295 C1294 1.383 . S
C1295 H1358 0.929 . S
C1296 C1292 1.527 . S
C1296 H1359 0.961 . S
C1296 H1360 0.959 . S
C1296 H1361 0.959 . S
C1297 C1294 1.603 . S
C1297 H1362 0.960 . S
C1297 H1363 0.962 . S
C1297 H1364 0.961 . S
C1298 C1265 1.587 1_655 S
C1298 C1299 1.360 . S
C1298 C1311 1.412 . S
C1299 C1298 1.360 . S
C1299 C1300 1.365 . S
C1299 H1365 0.929 . S
C1300 C1275 1.553 . S
C1300 C1299 1.365 . S
C1300 C1301 1.404 . S
C1301 C1300 1.404 . S
C1301 C1302 1.395 . S
C1301 C1312 1.451 . S
C1302 C1301 1.395 . S
C1302 C1303 1.322 . S
C1302 H1366 0.930 . S
C1303 C1302 1.322 . S
C1303 C1304 1.459 . S
C1303 H1367 0.929 . S
C1304 C1303 1.459 . S
C1304 C1305 1.445 . S
C1304 C1313 1.395 . S
C1305 C1283 1.432 . S
C1305 C1304 1.445 . S
C1305 C1306 1.370 . S
C1306 C1305 1.370 . S
C1306 C1307 1.438 . S
C1306 H1368 0.930 . S
C1307 C1293 1.547 . S
C1307 C1306 1.438 . S
C1307 C1308 1.360 . S
C1308 C1307 1.360 . S
C1308 C1309 1.401 . S
C1308 C1313 1.446 . S
C1309 C1308 1.401 . S
C1309 C1310 1.347 . S
C1309 H1369 0.969 . S
C1310 C1309 1.347 . S
C1310 C1311 1.455 . S
C1310 H1370 0.968 . S
C1311 C1298 1.412 . S
C1311 C1310 1.455 . S
C1311 C1312 1.331 . S
C1312 C1301 1.451 . S
C1312 C1311 1.331 . S
C1312 C1313 1.497 . S
C1313 C1304 1.395 . S
C1313 C1308 1.446 . S
C1313 C1312 1.497 . S
C1314 C1315 1.582 . S
C1314 H1371 0.962 . S
C1314 H1372 0.959 . S
C1314 H1373 0.958 . S
C1315 C1314 1.582 . S
C1315 O1318 1.458 . S
C1315 H1344 0.980 . S
O1316 C1261 1.426 . S
O1316 C1262 1.334 . S
O1317 C1289 1.412 . S
O1317 C1290 1.393 . S
O1318 C1280 1.435 . S
O1318 C1315 1.458 . S
O1319 C1271 1.468 . S
O1319 C1272 1.408 . S
H1320 C1261 0.980 . S
H1321 C1260 0.959 . S
H1322 C1260 0.959 . S
H1323 C1260 0.960 . S
H1324 C1263 0.929 . S
H1325 C1267 0.929 . S
H1326 C1268 0.959 . S
H1327 C1268 0.961 . S
H1328 C1268 0.961 . S
H1329 C1269 0.960 . S
H1330 C1269 0.960 . S
H1331 C1269 0.961 . S
H1332 C1271 0.949 1_455 S
H1333 C1270 0.961 . S
H1334 C1270 0.960 . S
H1335 C1270 0.959 . S
H1336 C1273 0.930 1_455 S
H1337 C1277 0.931 . S
H1338 C1278 0.959 . S
H1339 C1278 0.961 . S
H1340 C1278 0.959 . S
H1341 C1279 0.960 . S
H1342 C1279 0.960 . S
H1343 C1279 0.960 . S
H1344 C1315 0.980 . S
H1345 C1281 0.930 1_455 S
H1346 C1285 0.930 . S
H1347 C1286 0.961 . S
H1348 C1286 0.960 . S
H1349 C1286 0.958 . S
H1350 C1287 0.961 . S
H1351 C1287 0.960 . S
H1352 C1287 0.960 . S
H1353 C1289 0.980 1_655 S
H1354 C1288 0.961 . S
H1355 C1288 0.961 . S
H1356 C1288 0.959 . S
H1357 C1291 0.932 . S
H1358 C1295 0.929 . S
H1359 C1296 0.961 . S
H1360 C1296 0.959 . S
H1361 C1296 0.959 . S
H1362 C1297 0.960 . S
H1363 C1297 0.962 . S
H1364 C1297 0.961 . S
H1365 C1299 0.929 . S
H1366 C1302 0.930 . S
H1367 C1303 0.929 . S
H1368 C1306 0.930 . S
H1369 C1309 0.969 . S
H1370 C1310 0.968 . S
H1371 C1314 0.962 . S
H1372 C1314 0.959 . S
H1373 C1314 0.958 . S
C1374 C1375 1.560 . S
C1374 H1435 0.959 . S
C1374 H1436 0.959 . S
C1374 H1437 0.960 . S
C1375 C1374 1.560 . S
C1375 O1430 1.426 . S
C1375 H1434 0.980 . S
C1376 C1377 1.407 . S
C1376 C1381 1.418 . S
C1376 O1430 1.334 . S
C1377 C1376 1.407 . S
C1377 C1378 1.360 . S
C1377 H1438 0.929 . S
C1378 C1377 1.360 . S
C1378 C1379 1.401 . S
C1378 C1382 1.527 . S
C1379 C1378 1.401 . S
C1379 C1380 1.405 . S
C1379 C1412 1.587 . S
C1380 C1379 1.405 . S
C1380 C1381 1.332 . S
C1380 C1383 1.496 . S
C1381 C1376 1.418 . S
C1381 C1380 1.332 . S
C1381 H1439 0.929 . S
C1382 C1378 1.527 . S
C1382 H1440 0.959 . S
C1382 H1441 0.961 . S
C1382 H1442 0.961 . S
C1383 C1380 1.496 . S
C1383 H1443 0.960 . S
C1383 H1444 0.960 . S
C1383 H1445 0.961 . S
C1384 C1385 1.517 . S
C1384 H1447 0.961 . S
C1384 H1448 0.960 . S
C1384 H1449 0.959 . S
C1385 C1384 1.517 . S
C1385 O1433 1.468 . S
C1385 H1446 0.980 . S
C1386 C1387 1.349 . S
C1386 C1391 1.367 . S
C1386 O1433 1.408 . S
C1387 C1386 1.349 . S
C1387 C1388 1.407 . S
C1387 H1450 0.930 . S
C1388 C1387 1.407 . S
C1388 C1389 1.449 . S
C1388 C1392 1.535 . S
C1389 C1388 1.449 . S
C1389 C1390 1.384 . S
C1389 C1414 1.553 . S
C1390 C1389 1.384 . S
C1390 C1391 1.364 . S
C1390 C1393 1.450 . S
C1391 C1386 1.367 . S
C1391 C1390 1.364 . S
C1391 H1451 0.931 . S
C1392 C1388 1.535 . S
C1392 H1452 0.959 . S
C1392 H1453 0.961 . S
C1392 H1454 0.959 . S
C1393 C1390 1.450 . S
C1393 H1455 0.960 . S
C1393 H1456 0.960 . S
C1393 H1457 0.960 . S
C1394 C1395 1.309 . S
C1394 C1399 1.304 . S
C1394 O1432 1.435 . S
C1395 C1394 1.309 . S
C1395 C1396 1.476 . S
C1395 H1459 0.930 . S
C1396 C1395 1.476 . S
C1396 C1397 1.400 . S
C1396 C1400 1.567 . S
C1397 C1396 1.400 . S
C1397 C1398 1.373 . S
C1397 C1419 1.432 . S
C1398 C1397 1.373 . S
C1398 C1399 1.339 . S
C1398 C1401 1.530 . S
C1399 C1394 1.304 . S
C1399 C1398 1.339 . S
C1399 H1460 0.930 . S
C1400 C1396 1.567 . S
C1400 H1461 0.961 . S
C1400 H1462 0.960 . S
C1400 H1463 0.958 . S
C1401 C1398 1.530 . S
C1401 H1464 0.961 . S
C1401 H1465 0.960 . S
C1401 H1466 0.960 . S
C1402 C1403 1.530 . S
C1402 H1468 0.961 . S
C1402 H1469 0.961 . S
C1402 H1470 0.959 . S
C1403 C1402 1.530 . S
C1403 O1431 1.412 . S
C1403 H1467 0.980 . S
C1404 C1405 1.288 . S
C1404 C1409 1.377 . S
C1404 O1431 1.393 . S
C1405 C1404 1.288 . S
C1405 C1406 1.369 . S
C1405 H1471 0.932 . S
C1406 C1405 1.369 . S
C1406 C1407 1.398 . S
C1406 C1410 1.527 . S
C1407 C1406 1.398 . S
C1407 C1408 1.380 . S
C1407 C1421 1.497 . S
C1408 C1407 1.380 . S
C1408 C1409 1.383 . S
C1408 C1411 1.603 . S
C1409 C1404 1.377 . S
C1409 C1408 1.383 . S
C1409 H1472 0.929 . S
C1410 C1406 1.527 . S
C1410 H1473 0.961 . S
C1410 H1474 0.959 . S
C1410 H1475 0.959 . S
C1411 C1408 1.603 . S
C1411 H1476 0.960 . S
C1411 H1477 0.962 . S
C1411 H1478 0.961 . S
C1412 C1379 1.587 . S
C1412 C1413 1.360 . S
C1412 C1425 1.412 . S
C1413 C1412 1.360 . S
C1413 C1414 1.365 . S
C1413 H1479 0.929 . S
C1414 C1389 1.553 . S
C1414 C1413 1.365 . S
C1414 C1415 1.404 . S
C1415 C1414 1.404 . S
C1415 C1416 1.395 . S
C1415 C1426 1.451 . S
C1416 C1415 1.395 . S
C1416 C1417 1.322 . S
C1416 H1480 0.930 . S
C1417 C1416 1.322 . S
C1417 C1418 1.459 . S
C1417 H1481 0.929 . S
C1418 C1417 1.459 . S
C1418 C1419 1.445 . S
C1418 C1427 1.395 . S
C1419 C1397 1.432 . S
C1419 C1418 1.445 . S
C1419 C1420 1.370 . S
C1420 C1419 1.370 . S
C1420 C1421 1.438 . S
C1420 H1482 0.930 . S
C1421 C1407 1.497 . S
C1421 C1420 1.438 . S
C1421 C1422 1.360 . S
C1422 C1421 1.360 . S
C1422 C1423 1.401 . S
C1422 C1427 1.446 . S
C1423 C1422 1.401 . S
C1423 C1424 1.347 . S
C1423 H1483 0.929 . S
C1424 C1423 1.347 . S
C1424 C1425 1.455 . S
C1424 H1484 0.930 . S
C1425 C1412 1.412 . S
C1425 C1424 1.455 . S
C1425 C1426 1.331 . S
C1426 C1415 1.451 . S
C1426 C1425 1.331 . S
C1426 C1427 1.497 . S
C1427 C1418 1.395 . S
C1427 C1422 1.446 . S
C1427 C1426 1.497 . S
C1428 C1429 1.582 . S
C1428 H1485 0.962 . S
C1428 H1486 0.959 . S
C1428 H1487 0.958 . S
C1429 C1428 1.582 . S
C1429 O1432 1.458 . S
C1429 H1458 0.980 . S
O1430 C1375 1.426 . S
O1430 C1376 1.334 . S
O1431 C1403 1.412 . S
O1431 C1404 1.393 . S
O1432 C1394 1.435 . S
O1432 C1429 1.458 . S
O1433 C1385 1.468 . S
O1433 C1386 1.408 . S
H1434 C1375 0.980 . S
H1435 C1374 0.959 . S
H1436 C1374 0.959 . S
H1437 C1374 0.960 . S
H1438 C1377 0.929 . S
H1439 C1381 0.929 . S
H1440 C1382 0.959 . S
H1441 C1382 0.961 . S
H1442 C1382 0.961 . S
H1443 C1383 0.960 . S
H1444 C1383 0.960 . S
H1445 C1383 0.961 . S
H1446 C1385 0.980 . S
H1447 C1384 0.961 . S
H1448 C1384 0.960 . S
H1449 C1384 0.959 . S
H1450 C1387 0.930 . S
H1451 C1391 0.931 . S
H1452 C1392 0.959 . S
H1453 C1392 0.961 . S
H1454 C1392 0.959 . S
H1455 C1393 0.960 . S
H1456 C1393 0.960 . S
H1457 C1393 0.960 . S
H1458 C1429 0.980 . S
H1459 C1395 0.930 . S
H1460 C1399 0.930 . S
H1461 C1400 0.961 . S
H1462 C1400 0.960 . S
H1463 C1400 0.958 . S
H1464 C1401 0.961 . S
H1465 C1401 0.960 . S
H1466 C1401 0.960 . S
H1467 C1403 0.980 . S
H1468 C1402 0.961 . S
H1469 C1402 0.961 . S
H1470 C1402 0.959 . S
H1471 C1405 0.932 . S
H1472 C1409 0.929 . S
H1473 C1410 0.961 . S
H1474 C1410 0.959 . S
H1475 C1410 0.959 . S
H1476 C1411 0.960 . S
H1477 C1411 0.962 . S
H1478 C1411 0.961 . S
H1479 C1413 0.929 . S
H1480 C1416 0.930 . S
H1481 C1417 0.929 . S
H1482 C1420 0.930 . S
H1483 C1423 0.929 . S
H1484 C1424 0.930 . S
H1485 C1428 0.962 . S
H1486 C1428 0.959 . S
H1487 C1428 0.958 . S
C1488 C1489 1.560 . S
C1488 H1549 0.959 . S
C1488 H1550 0.959 . S
C1488 H1551 0.960 . S
C1489 C1488 1.560 . S
C1489 O1544 1.426 . S
C1489 H1548 0.980 . S
C1490 C1491 1.407 1_565 S
C1490 C1495 1.418 . S
C1490 O1544 1.334 . S
C1491 C1490 1.407 1_545 S
C1491 C1492 1.360 . S
C1491 H1552 0.929 . S
C1492 C1491 1.360 . S
C1492 C1493 1.401 1_545 S
C1492 C1496 1.527 . S
C1493 C1492 1.401 1_565 S
C1493 C1494 1.405 . S
C1493 C1526 1.587 1_565 S
C1494 C1493 1.405 . S
C1494 C1495 1.332 . S
C1494 C1497 1.496 . S
C1495 C1490 1.418 . S
C1495 C1494 1.332 . S
C1495 H1553 0.929 . S
C1496 C1492 1.527 . S
C1496 H1554 0.959 . S
C1496 H1555 0.961 . S
C1496 H1556 0.961 . S
C1497 C1494 1.496 . S
C1497 H1557 0.960 . S
C1497 H1558 0.960 . S
C1497 H1559 0.961 . S
C1498 C1499 1.517 . S
C1498 H1561 0.961 1_545 S
C1498 H1562 0.960 . S
C1498 H1563 0.959 . S
C1499 C1498 1.517 . S
C1499 O1547 1.468 . S
C1499 H1560 0.980 1_545 S
C1500 C1501 1.329 1_545 S
C1500 C1505 1.367 . S
C1500 O1547 1.408 . S
C1501 C1500 1.329 1_565 S
C1501 C1502 1.393 . S
C1501 H1564 0.966 . S
C1502 C1501 1.393 . S
C1502 C1503 1.449 1_565 S
C1502 C1506 1.535 . S
C1503 C1502 1.449 1_545 S
C1503 C1504 1.384 . S
C1503 C1528 1.553 . S
C1504 C1503 1.384 . S
C1504 C1505 1.364 . S
C1504 C1507 1.450 . S
C1505 C1500 1.367 . S
C1505 C1504 1.364 . S
C1505 H1565 0.931 . S
C1506 C1502 1.535 . S
C1506 H1566 0.959 . S
C1506 H1567 0.961 . S
C1506 H1568 0.959 . S
C1507 C1504 1.450 . S
C1507 H1569 0.960 . S
C1507 H1570 0.960 . S
C1507 H1571 0.960 . S
C1508 C1509 1.309 . S
C1508 C1513 1.304 . S
C1508 O1546 1.435 . S
C1509 C1508 1.309 . S
C1509 C1510 1.494 1_545 S
C1509 H1573 0.930 1_545 S
C1510 C1509 1.494 1_565 S
C1510 C1511 1.345 1_565 S
C1510 C1514 1.604 . S
C1511 C1510 1.345 1_545 S
C1511 C1512 1.373 . S
C1511 C1533 1.432 . S
C1512 C1511 1.373 . S
C1512 C1513 1.339 . S
C1512 C1515 1.530 . S
C1513 C1508 1.304 . S
C1513 C1512 1.339 . S
C1513 H1574 0.930 . S
C1514 C1510 1.604 . S
C1514 H1575 0.961 . S
C1514 H1576 0.960 . S
C1514 H1577 0.958 . S
C1515 C1512 1.530 . S
C1515 H1578 0.961 . S
C1515 H1579 0.960 . S
C1515 H1580 0.960 . S
C1516 C1517 1.530 1_565 S
C1516 H1582 1.019 . S
C1516 H1583 0.961 . S
C1516 H1584 0.959 . S
C1517 C1516 1.530 1_545 S
C1517 O1545 1.412 1_545 S
C1517 H1581 0.980 . S
C1518 C1519 1.288 . S
C1518 C1523 1.377 1_565 S
C1518 O1545 1.393 . S
C1519 C1518 1.288 . S
C1519 C1520 1.369 . S
C1519 H1585 0.932 . S
C1520 C1519 1.369 . S
C1520 C1521 1.398 1_565 S
C1520 C1524 1.527 . S
C1521 C1520 1.398 1_545 S
C1521 C1522 1.380 . S
C1521 C1535 1.497 . S
C1522 C1521 1.380 . S
C1522 C1523 1.383 . S
C1522 C1525 1.603 . S
C1523 C1518 1.377 1_545 S
C1523 C1522 1.383 . S
C1523 H1586 0.929 . S
C1524 C1520 1.527 . S
C1524 H1587 0.961 . S
C1524 H1588 0.959 . S
C1524 H1589 0.959 . S
C1525 C1522 1.603 . S
C1525 H1590 0.960 . S
C1525 H1591 0.962 . S
C1525 H1592 0.961 . S
C1526 C1493 1.587 1_545 S
C1526 C1527 1.360 . S
C1526 C1539 1.412 . S
C1527 C1526 1.360 . S
C1527 C1528 1.365 . S
C1527 H1593 0.929 . S
C1528 C1503 1.553 . S
C1528 C1527 1.365 . S
C1528 C1529 1.404 . S
C1529 C1528 1.404 . S
C1529 C1530 1.395 . S
C1529 C1540 1.451 . S
C1530 C1529 1.395 . S
C1530 C1531 1.322 . S
C1530 H1594 0.930 . S
C1531 C1530 1.322 . S
C1531 C1532 1.459 . S
C1531 H1595 0.929 . S
C1532 C1531 1.459 . S
C1532 C1533 1.445 . S
C1532 C1541 1.395 . S
C1533 C1511 1.432 . S
C1533 C1532 1.445 . S
C1533 C1534 1.370 . S
C1534 C1533 1.370 . S
C1534 C1535 1.438 . S
C1534 H1596 0.930 . S
C1535 C1521 1.497 . S
C1535 C1534 1.438 . S
C1535 C1536 1.360 . S
C1536 C1535 1.360 . S
C1536 C1537 1.401 . S
C1536 C1541 1.446 . S
C1537 C1536 1.401 . S
C1537 C1538 1.347 . S
C1537 H1597 0.929 . S
C1538 C1537 1.347 . S
C1538 C1539 1.455 . S
C1538 H1598 0.930 . S
C1539 C1526 1.412 . S
C1539 C1538 1.455 . S
C1539 C1540 1.331 . S
C1540 C1529 1.451 . S
C1540 C1539 1.331 . S
C1540 C1541 1.497 . S
C1541 C1532 1.395 . S
C1541 C1536 1.446 . S
C1541 C1540 1.497 . S
C1542 C1543 1.582 . S
C1542 H1599 0.962 . S
C1542 H1600 0.959 . S
C1542 H1601 0.958 . S
C1543 C1542 1.582 . S
C1543 O1546 1.458 . S
C1543 H1572 0.980 . S
O1544 C1489 1.426 . S
O1544 C1490 1.334 . S
O1545 C1517 1.412 1_565 S
O1545 C1518 1.393 . S
O1546 C1508 1.435 . S
O1546 C1543 1.458 . S
O1547 C1499 1.468 . S
O1547 C1500 1.408 . S
H1548 C1489 0.980 . S
H1549 C1488 0.959 . S
H1550 C1488 0.959 . S
H1551 C1488 0.960 . S
H1552 C1491 0.929 . S
H1553 C1495 0.929 . S
H1554 C1496 0.959 . S
H1555 C1496 0.961 . S
H1556 C1496 0.961 . S
H1557 C1497 0.960 . S
H1558 C1497 0.960 . S
H1559 C1497 0.961 . S
H1560 C1499 0.980 1_565 S
H1561 C1498 0.961 1_565 S
H1562 C1498 0.960 . S
H1563 C1498 0.959 . S
H1564 C1501 0.966 . S
H1565 C1505 0.931 . S
H1566 C1506 0.959 . S
H1567 C1506 0.961 . S
H1568 C1506 0.959 . S
H1569 C1507 0.960 . S
H1570 C1507 0.960 . S
H1571 C1507 0.960 . S
H1572 C1543 0.980 . S
H1573 C1509 0.930 1_565 S
H1574 C1513 0.930 . S
H1575 C1514 0.961 . S
H1576 C1514 0.960 . S
H1577 C1514 0.958 . S
H1578 C1515 0.961 . S
H1579 C1515 0.960 . S
H1580 C1515 0.960 . S
H1581 C1517 0.980 . S
H1582 C1516 1.019 . S
H1583 C1516 0.961 . S
H1584 C1516 0.959 . S
H1585 C1519 0.932 . S
H1586 C1523 0.929 . S
H1587 C1524 0.961 . S
H1588 C1524 0.959 . S
H1589 C1524 0.959 . S
H1590 C1525 0.960 . S
H1591 C1525 0.962 . S
H1592 C1525 0.961 . S
H1593 C1527 0.929 . S
H1594 C1530 0.930 . S
H1595 C1531 0.929 . S
H1596 C1534 0.930 . S
H1597 C1537 0.929 . S
H1598 C1538 0.930 . S
H1599 C1542 0.962 . S
H1600 C1542 0.959 . S
H1601 C1542 0.958 . S
C1602 C1603 1.560 . S
C1602 H1663 0.959 . S
C1602 H1664 0.959 . S
C1602 H1665 0.960 . S
C1603 C1602 1.560 . S
C1603 O1658 1.426 . S
C1603 H1662 0.980 1_565 S
C1604 C1605 1.407 1_565 S
C1604 C1609 1.418 . S
C1604 O1658 1.334 . S
C1605 C1604 1.407 1_545 S
C1605 C1606 1.360 . S
C1605 H1666 0.929 . S
C1606 C1605 1.360 . S
C1606 C1607 1.401 . S
C1606 C1610 1.527 . S
C1607 C1606 1.401 . S
C1607 C1608 1.405 1_545 S
C1607 C1640 1.587 . S
C1608 C1607 1.405 1_565 S
C1608 C1609 1.332 . S
C1608 C1611 1.496 . S
C1609 C1604 1.418 . S
C1609 C1608 1.332 . S
C1609 H1667 0.929 . S
C1610 C1606 1.527 . S
C1610 H1668 0.959 . S
C1610 H1669 0.961 . S
C1610 H1670 0.961 . S
C1611 C1608 1.496 . S
C1611 H1671 0.960 . S
C1611 H1672 0.960 . S
C1611 H1673 0.961 . S
C1612 C1613 1.517 . S
C1612 H1675 0.961 . S
C1612 H1676 0.960 . S
C1612 H1677 0.959 . S
C1613 C1612 1.517 . S
C1613 O1661 1.468 . S
C1613 H1674 0.980 . S
C1614 C1615 1.349 . S
C1614 C1619 1.367 . S
C1614 O1661 1.408 . S
C1615 C1614 1.349 . S
C1615 C1616 1.407 . S
C1615 H1678 0.945 . S
C1616 C1615 1.407 . S
C1616 C1617 1.449 . S
C1616 C1620 1.535 1_545 S
C1617 C1616 1.449 . S
C1617 C1618 1.384 . S
C1617 C1642 1.553 . S
C1618 C1617 1.384 . S
C1618 C1619 1.364 . S
C1618 C1621 1.450 . S
C1619 C1614 1.367 . S
C1619 C1618 1.364 . S
C1619 H1679 0.931 . S
C1620 C1616 1.535 1_565 S
C1620 H1680 0.959 . S
C1620 H1681 0.961 . S
C1620 H1682 0.959 . S
C1621 C1618 1.450 . S
C1621 H1683 0.960 . S
C1621 H1684 0.960 . S
C1621 H1685 0.960 . S
C1622 C1623 1.309 1_545 S
C1622 C1627 1.304 . S
C1622 O1660 1.435 . S
C1623 C1622 1.309 1_565 S
C1623 C1624 1.476 . S
C1623 H1687 0.930 . S
C1624 C1623 1.476 . S
C1624 C1625 1.400 1_565 S
C1624 C1628 1.567 . S
C1625 C1624 1.400 1_545 S
C1625 C1626 1.373 . S
C1625 C1647 1.432 . S
C1626 C1625 1.373 . S
C1626 C1627 1.339 . S
C1626 C1629 1.530 . S
C1627 C1622 1.304 . S
C1627 C1626 1.339 . S
C1627 H1688 0.930 . S
C1628 C1624 1.567 . S
C1628 H1689 0.961 . S
C1628 H1690 0.960 . S
C1628 H1691 0.958 . S
C1629 C1626 1.530 . S
C1629 H1692 0.961 . S
C1629 H1693 0.960 . S
C1629 H1694 0.960 . S
C1630 C1631 1.530 . S
C1630 H1696 0.961 . S
C1630 H1697 0.961 . S
C1630 H1698 0.959 . S
C1631 C1630 1.530 . S
C1631 O1659 1.412 . S
C1631 H1695 0.980 . S
C1632 C1633 1.288 . S
C1632 C1637 1.377 1_565 S
C1632 O1659 1.393 . S
C1633 C1632 1.288 . S
C1633 C1634 1.369 . S
C1633 H1699 0.932 . S
C1634 C1633 1.369 . S
C1634 C1635 1.398 . S
C1634 C1638 1.527 . S
C1635 C1634 1.398 . S
C1635 C1636 1.380 1_565 S
C1635 C1649 1.497 1_565 S
C1636 C1635 1.380 1_545 S
C1636 C1637 1.383 . S
C1636 C1639 1.603 . S
C1637 C1632 1.377 1_545 S
C1637 C1636 1.383 . S
C1637 H1700 0.929 . S
C1638 C1634 1.527 . S
C1638 H1701 0.961 . S
C1638 H1702 0.959 . S
C1638 H1703 0.959 . S
C1639 C1636 1.603 . S
C1639 H1704 0.960 . S
C1639 H1705 0.962 . S
C1639 H1706 0.961 . S
C1640 C1607 1.587 . S
C1640 C1641 1.360 . S
C1640 C1653 1.412 . S
C1641 C1640 1.360 . S
C1641 C1642 1.365 . S
C1641 H1707 0.929 . S
C1642 C1617 1.553 . S
C1642 C1641 1.365 . S
C1642 C1643 1.404 . S
C1643 C1642 1.404 . S
C1643 C1644 1.395 . S
C1643 C1654 1.451 . S
C1644 C1643 1.395 . S
C1644 C1645 1.322 . S
C1644 H1708 0.930 . S
C1645 C1644 1.322 . S
C1645 C1646 1.459 . S
C1645 H1709 0.929 . S
C1646 C1645 1.459 . S
C1646 C1647 1.445 . S
C1646 C1655 1.395 . S
C1647 C1625 1.432 . S
C1647 C1646 1.445 . S
C1647 C1648 1.370 . S
C1648 C1647 1.370 . S
C1648 C1649 1.438 . S
C1648 H1710 0.930 . S
C1649 C1635 1.497 1_545 S
C1649 C1648 1.438 . S
C1649 C1650 1.360 . S
C1650 C1649 1.360 . S
C1650 C1651 1.401 . S
C1650 C1655 1.446 . S
C1651 C1650 1.401 . S
C1651 C1652 1.347 . S
C1651 H1711 0.935 . S
C1652 C1651 1.347 . S
C1652 C1653 1.455 . S
C1652 H1712 0.930 . S
C1653 C1640 1.412 . S
C1653 C1652 1.455 . S
C1653 C1654 1.331 . S
C1654 C1643 1.451 . S
C1654 C1653 1.331 . S
C1654 C1655 1.497 . S
C1655 C1646 1.395 . S
C1655 C1650 1.446 . S
C1655 C1654 1.497 . S
C1656 C1657 1.582 . S
C1656 H1713 0.962 . S
C1656 H1714 0.959 . S
C1656 H1715 0.958 . S
C1657 C1656 1.582 . S
C1657 O1660 1.458 . S
C1657 H1686 0.983 1_545 S
O1658 C1603 1.426 . S
O1658 C1604 1.334 . S
O1659 C1631 1.412 . S
O1659 C1632 1.393 . S
O1660 C1622 1.435 . S
O1660 C1657 1.458 . S
O1661 C1613 1.468 . S
O1661 C1614 1.408 . S
H1662 C1603 0.980 1_545 S
H1663 C1602 0.959 . S
H1664 C1602 0.959 . S
H1665 C1602 0.960 . S
H1666 C1605 0.929 . S
H1667 C1609 0.929 . S
H1668 C1610 0.959 . S
H1669 C1610 0.961 . S
H1670 C1610 0.961 . S
H1671 C1611 0.960 . S
H1672 C1611 0.960 . S
H1673 C1611 0.961 . S
H1674 C1613 0.980 . S
H1675 C1612 0.961 . S
H1676 C1612 0.960 . S
H1677 C1612 0.959 . S
H1678 C1615 0.945 . S
H1679 C1619 0.931 . S
H1680 C1620 0.959 . S
H1681 C1620 0.961 . S
H1682 C1620 0.959 . S
H1683 C1621 0.960 . S
H1684 C1621 0.960 . S
H1685 C1621 0.960 . S
H1686 C1657 0.983 1_565 S
H1687 C1623 0.930 . S
H1688 C1627 0.930 . S
H1689 C1628 0.961 . S
H1690 C1628 0.960 . S
H1691 C1628 0.958 . S
H1692 C1629 0.961 . S
H1693 C1629 0.960 . S
H1694 C1629 0.960 . S
H1695 C1631 0.980 . S
H1696 C1630 0.961 . S
H1697 C1630 0.961 . S
H1698 C1630 0.959 . S
H1699 C1633 0.932 . S
H1700 C1637 0.929 . S
H1701 C1638 0.961 . S
H1702 C1638 0.959 . S
H1703 C1638 0.959 . S
H1704 C1639 0.960 . S
H1705 C1639 0.962 . S
H1706 C1639 0.961 . S
H1707 C1641 0.929 . S
H1708 C1644 0.930 . S
H1709 C1645 0.929 . S
H1710 C1648 0.930 . S
H1711 C1651 0.935 . S
H1712 C1652 0.930 . S
H1713 C1656 0.962 . S
H1714 C1656 0.959 . S
H1715 C1656 0.958 . S
C1716 C1717 1.563 . S
C1716 H1777 0.959 . S
C1716 H1778 0.959 . S
C1716 H1779 0.960 . S
C1717 C1716 1.563 . S
C1717 O1772 1.431 . S
C1717 H1776 0.979 1_455 S
C1718 C1719 1.407 1_455 S
C1718 C1723 1.418 . S
C1718 O1772 1.334 . S
C1719 C1718 1.407 1_655 S
C1719 C1720 1.360 . S
C1719 H1780 0.929 . S
C1720 C1719 1.360 . S
C1720 C1721 1.401 . S
C1720 C1724 1.527 . S
C1721 C1720 1.401 . S
C1721 C1722 1.405 1_655 S
C1721 C1754 1.587 . S
C1722 C1721 1.405 1_455 S
C1722 C1723 1.332 . S
C1722 C1725 1.496 . S
C1723 C1718 1.418 . S
C1723 C1722 1.332 . S
C1723 H1781 0.929 . S
C1724 C1720 1.527 . S
C1724 H1782 0.959 . S
C1724 H1783 0.961 . S
C1724 H1784 0.961 . S
C1725 C1722 1.496 . S
C1725 H1785 0.960 . S
C1725 H1786 0.960 . S
C1725 H1787 0.961 . S
C1726 C1727 1.517 . S
C1726 H1789 0.961 . S
C1726 H1790 0.960 . S
C1726 H1791 0.959 . S
C1727 C1726 1.517 . S
C1727 O1775 1.468 . S
C1727 H1788 0.980 . S
C1728 C1729 1.349 . S
C1728 C1733 1.367 . S
C1728 O1775 1.408 . S
C1729 C1728 1.349 . S
C1729 C1730 1.407 . S
C1729 H1792 0.862 1_655 S
C1730 C1729 1.407 . S
C1730 C1731 1.449 . S
C1730 C1734 1.535 1_655 S
C1731 C1730 1.449 . S
C1731 C1732 1.384 . S
C1731 C1756 1.553 . S
C1732 C1731 1.384 . S
C1732 C1733 1.364 . S
C1732 C1735 1.450 . S
C1733 C1728 1.367 . S
C1733 C1732 1.364 . S
C1733 H1793 0.931 . S
C1734 C1730 1.535 1_455 S
C1734 H1794 0.959 . S
C1734 H1795 0.961 . S
C1734 H1796 0.959 . S
C1735 C1732 1.450 . S
C1735 H1797 0.960 . S
C1735 H1798 0.960 . S
C1735 H1799 0.960 . S
C1736 C1737 1.309 1_655 S
C1736 C1741 1.304 . S
C1736 O1774 1.435 . S
C1737 C1736 1.309 1_455 S
C1737 C1738 1.476 . S
C1737 H1801 0.930 . S
C1738 C1737 1.476 . S
C1738 C1739 1.400 1_455 S
C1738 C1742 1.567 . S
C1739 C1738 1.400 1_655 S
C1739 C1740 1.373 . S
C1739 C1761 1.432 . S
C1740 C1739 1.373 . S
C1740 C1741 1.339 . S
C1740 C1743 1.530 . S
C1741 C1736 1.304 . S
C1741 C1740 1.339 . S
C1741 H1802 0.930 . S
C1742 C1738 1.567 . S
C1742 H1803 0.961 . S
C1742 H1804 0.960 . S
C1742 H1805 0.958 . S
C1743 C1740 1.530 . S
C1743 H1806 0.961 . S
C1743 H1807 0.960 . S
C1743 H1808 0.960 . S
C1744 C1745 1.530 . S
C1744 H1810 0.961 . S
C1744 H1811 0.961 . S
C1744 H1812 0.959 . S
C1745 C1744 1.530 . S
C1745 O1773 1.412 . S
C1745 H1809 0.980 1_455 S
C1746 C1747 1.288 . S
C1746 C1751 1.377 1_455 S
C1746 O1773 1.393 . S
C1747 C1746 1.288 . S
C1747 C1748 1.369 . S
C1747 H1813 0.932 . S
C1748 C1747 1.369 . S
C1748 C1749 1.398 . S
C1748 C1752 1.527 . S
C1749 C1748 1.398 . S
C1749 C1750 1.380 1_455 S
C1749 C1763 1.497 1_455 S
C1750 C1749 1.380 1_655 S
C1750 C1751 1.383 . S
C1750 C1753 1.603 . S
C1751 C1746 1.377 1_655 S
C1751 C1750 1.383 . S
C1751 H1814 0.929 . S
C1752 C1748 1.527 . S
C1752 H1815 0.961 . S
C1752 H1816 0.959 . S
C1752 H1817 0.959 . S
C1753 C1750 1.603 . S
C1753 H1818 0.960 . S
C1753 H1819 0.962 . S
C1753 H1820 0.961 . S
C1754 C1721 1.587 . S
C1754 C1755 1.360 . S
C1754 C1767 1.412 . S
C1755 C1754 1.360 . S
C1755 C1756 1.365 . S
C1755 H1821 0.929 . S
C1756 C1731 1.553 . S
C1756 C1755 1.365 . S
C1756 C1757 1.404 . S
C1757 C1756 1.404 . S
C1757 C1758 1.395 . S
C1757 C1768 1.451 . S
C1758 C1757 1.395 . S
C1758 C1759 1.322 . S
C1758 H1822 0.930 . S
C1759 C1758 1.322 . S
C1759 C1760 1.459 . S
C1759 H1823 0.929 . S
C1760 C1759 1.459 . S
C1760 C1761 1.445 . S
C1760 C1769 1.395 . S
C1761 C1739 1.432 . S
C1761 C1760 1.445 . S
C1761 C1762 1.370 . S
C1762 C1761 1.370 . S
C1762 C1763 1.438 . S
C1762 H1824 0.930 . S
C1763 C1749 1.497 1_655 S
C1763 C1762 1.438 . S
C1763 C1764 1.360 . S
C1764 C1763 1.360 . S
C1764 C1765 1.401 . S
C1764 C1769 1.446 . S
C1765 C1764 1.401 . S
C1765 C1766 1.347 . S
C1765 H1825 0.929 . S
C1766 C1765 1.347 . S
C1766 C1767 1.455 . S
C1766 H1826 0.930 . S
C1767 C1754 1.412 . S
C1767 C1766 1.455 . S
C1767 C1768 1.331 . S
C1768 C1757 1.451 . S
C1768 C1767 1.331 . S
C1768 C1769 1.497 . S
C1769 C1760 1.395 . S
C1769 C1764 1.446 . S
C1769 C1768 1.497 . S
C1770 C1771 1.582 1_655 S
C1770 H1827 0.962 1_655 S
C1770 H1828 0.959 . S
C1770 H1829 0.958 . S
C1771 C1770 1.582 1_455 S
C1771 O1774 1.458 1_455 S
C1771 H1800 0.980 . S
O1772 C1717 1.431 . S
O1772 C1718 1.334 . S
O1773 C1745 1.412 . S
O1773 C1746 1.393 . S
O1774 C1736 1.435 . S
O1774 C1771 1.458 1_655 S
O1775 C1727 1.468 . S
O1775 C1728 1.408 . S
H1776 C1717 0.979 1_655 S
H1777 C1716 0.959 . S
H1778 C1716 0.959 . S
H1779 C1716 0.960 . S
H1780 C1719 0.929 . S
H1781 C1723 0.929 . S
H1782 C1724 0.959 . S
H1783 C1724 0.961 . S
H1784 C1724 0.961 . S
H1785 C1725 0.960 . S
H1786 C1725 0.960 . S
H1787 C1725 0.961 . S
H1788 C1727 0.980 . S
H1789 C1726 0.961 . S
H1790 C1726 0.960 . S
H1791 C1726 0.959 . S
H1792 C1729 0.862 1_455 S
H1793 C1733 0.931 . S
H1794 C1734 0.959 . S
H1795 C1734 0.961 . S
H1796 C1734 0.959 . S
H1797 C1735 0.960 . S
H1798 C1735 0.960 . S
H1799 C1735 0.960 . S
H1800 C1771 0.980 . S
H1801 C1737 0.930 . S
H1802 C1741 0.930 . S
H1803 C1742 0.961 . S
H1804 C1742 0.960 . S
H1805 C1742 0.958 . S
H1806 C1743 0.961 . S
H1807 C1743 0.960 . S
H1808 C1743 0.960 . S
H1809 C1745 0.980 1_655 S
H1810 C1744 0.961 . S
H1811 C1744 0.961 . S
H1812 C1744 0.959 . S
H1813 C1747 0.932 . S
H1814 C1751 0.929 . S
H1815 C1752 0.961 . S
H1816 C1752 0.959 . S
H1817 C1752 0.959 . S
H1818 C1753 0.960 . S
H1819 C1753 0.962 . S
H1820 C1753 0.961 . S
H1821 C1755 0.929 . S
H1822 C1758 0.930 . S
H1823 C1759 0.929 . S
H1824 C1762 0.930 . S
H1825 C1765 0.929 . S
H1826 C1766 0.930 . S
H1827 C1770 0.962 1_455 S
H1828 C1770 0.959 . S
H1829 C1770 0.958 . S
C1830 C1831 1.560 . S
C1830 H1891 0.959 . S
C1830 H1892 0.959 . S
C1830 H1893 0.960 . S
C1831 C1830 1.560 . S
C1831 O1886 1.426 . S
C1831 H1890 0.980 . S
C1832 C1833 1.407 . S
C1832 C1837 1.418 . S
C1832 O1886 1.334 . S
C1833 C1832 1.407 . S
C1833 C1834 1.360 . S
C1833 H1894 0.929 . S
C1834 C1833 1.360 . S
C1834 C1835 1.401 . S
C1834 C1838 1.527 . S
C1835 C1834 1.401 . S
C1835 C1836 1.405 . S
C1835 C1868 1.587 . S
C1836 C1835 1.405 . S
C1836 C1837 1.332 . S
C1836 C1839 1.496 . S
C1837 C1832 1.418 . S
C1837 C1836 1.332 . S
C1837 H1895 0.929 . S
C1838 C1834 1.527 . S
C1838 H1896 0.959 . S
C1838 H1897 0.961 . S
C1838 H1898 0.961 . S
C1839 C1836 1.496 . S
C1839 H1899 0.960 . S
C1839 H1900 0.960 . S
C1839 H1901 0.961 . S
C1840 C1841 1.517 . S
C1840 H1903 0.961 . S
C1840 H1904 0.960 . S
C1840 H1905 0.959 . S
C1841 C1840 1.517 . S
C1841 O1889 1.468 . S
C1841 H1902 0.980 . S
C1842 C1843 1.349 . S
C1842 C1847 1.367 . S
C1842 O1889 1.408 . S
C1843 C1842 1.349 . S
C1843 C1844 1.407 . S
C1843 H1906 0.930 . S
C1844 C1843 1.407 . S
C1844 C1845 1.449 . S
C1844 C1848 1.535 . S
C1845 C1844 1.449 . S
C1845 C1846 1.384 . S
C1845 C1870 1.553 . S
C1846 C1845 1.384 . S
C1846 C1847 1.364 . S
C1846 C1849 1.450 . S
C1847 C1842 1.367 . S
C1847 C1846 1.364 . S
C1847 H1907 0.931 . S
C1848 C1844 1.535 . S
C1848 H1908 0.959 . S
C1848 H1909 0.961 . S
C1848 H1910 0.959 . S
C1849 C1846 1.450 . S
C1849 H1911 0.960 . S
C1849 H1912 0.960 . S
C1849 H1913 0.960 . S
C1850 C1851 1.309 . S
C1850 C1855 1.304 . S
C1850 O1888 1.435 . S
C1851 C1850 1.309 . S
C1851 C1852 1.476 . S
C1851 H1915 0.930 . S
C1852 C1851 1.476 . S
C1852 C1853 1.400 . S
C1852 C1856 1.567 . S
C1853 C1852 1.400 . S
C1853 C1854 1.373 . S
C1853 C1875 1.432 . S
C1854 C1853 1.373 . S
C1854 C1855 1.339 . S
C1854 C1857 1.530 . S
C1855 C1850 1.304 . S
C1855 C1854 1.339 . S
C1855 H1916 0.930 . S
C1856 C1852 1.567 . S
C1856 H1917 0.961 . S
C1856 H1918 0.960 . S
C1856 H1919 0.958 . S
C1857 C1854 1.530 . S
C1857 H1920 0.961 . S
C1857 H1921 0.960 . S
C1857 H1922 0.960 . S
C1858 C1859 1.530 . S
C1858 H1924 0.961 . S
C1858 H1925 0.961 . S
C1858 H1926 0.959 . S
C1859 C1858 1.530 . S
C1859 O1887 1.412 . S
C1859 H1923 0.980 . S
C1860 C1861 1.288 . S
C1860 C1865 1.377 . S
C1860 O1887 1.393 . S
C1861 C1860 1.288 . S
C1861 C1862 1.369 . S
C1861 H1927 0.932 . S
C1862 C1861 1.369 . S
C1862 C1863 1.398 . S
C1862 C1866 1.527 . S
C1863 C1862 1.398 . S
C1863 C1864 1.380 . S
C1863 C1877 1.497 . S
C1864 C1863 1.380 . S
C1864 C1865 1.383 . S
C1864 C1867 1.603 . S
C1865 C1860 1.377 . S
C1865 C1864 1.383 . S
C1865 H1928 0.929 . S
C1866 C1862 1.527 . S
C1866 H1929 0.961 . S
C1866 H1930 0.959 . S
C1866 H1931 0.959 . S
C1867 C1864 1.603 . S
C1867 H1932 0.960 . S
C1867 H1933 0.962 . S
C1867 H1934 0.961 . S
C1868 C1835 1.587 . S
C1868 C1869 1.360 . S
C1868 C1881 1.412 . S
C1869 C1868 1.360 . S
C1869 C1870 1.365 . S
C1869 H1935 0.929 . S
C1870 C1845 1.553 . S
C1870 C1869 1.365 . S
C1870 C1871 1.404 . S
C1871 C1870 1.404 . S
C1871 C1872 1.395 . S
C1871 C1882 1.451 . S
C1872 C1871 1.395 . S
C1872 C1873 1.322 . S
C1872 H1936 0.930 . S
C1873 C1872 1.322 . S
C1873 C1874 1.459 . S
C1873 H1937 0.929 . S
C1874 C1873 1.459 . S
C1874 C1875 1.445 . S
C1874 C1883 1.395 . S
C1875 C1853 1.432 . S
C1875 C1874 1.445 . S
C1875 C1876 1.370 . S
C1876 C1875 1.370 . S
C1876 C1877 1.438 . S
C1876 H1938 0.930 . S
C1877 C1863 1.497 . S
C1877 C1876 1.438 . S
C1877 C1878 1.360 . S
C1878 C1877 1.360 . S
C1878 C1879 1.401 . S
C1878 C1883 1.446 . S
C1879 C1878 1.401 . S
C1879 C1880 1.347 . S
C1879 H1939 0.929 . S
C1880 C1879 1.347 . S
C1880 C1881 1.455 . S
C1880 H1940 0.930 . S
C1881 C1868 1.412 . S
C1881 C1880 1.455 . S
C1881 C1882 1.331 . S
C1882 C1871 1.451 . S
C1882 C1881 1.331 . S
C1882 C1883 1.497 . S
C1883 C1874 1.395 . S
C1883 C1878 1.446 . S
C1883 C1882 1.497 . S
C1884 C1885 1.582 . S
C1884 H1941 0.962 . S
C1884 H1942 0.959 . S
C1884 H1943 0.958 . S
C1885 C1884 1.582 . S
C1885 O1888 1.458 . S
C1885 H1914 0.980 . S
O1886 C1831 1.426 . S
O1886 C1832 1.334 . S
O1887 C1859 1.412 . S
O1887 C1860 1.393 . S
O1888 C1850 1.435 . S
O1888 C1885 1.458 . S
O1889 C1841 1.468 . S
O1889 C1842 1.408 . S
H1890 C1831 0.980 . S
H1891 C1830 0.959 . S
H1892 C1830 0.959 . S
H1893 C1830 0.960 . S
H1894 C1833 0.929 . S
H1895 C1837 0.929 . S
H1896 C1838 0.959 . S
H1897 C1838 0.961 . S
H1898 C1838 0.961 . S
H1899 C1839 0.960 . S
H1900 C1839 0.960 . S
H1901 C1839 0.961 . S
H1902 C1841 0.980 . S
H1903 C1840 0.961 . S
H1904 C1840 0.960 . S
H1905 C1840 0.959 . S
H1906 C1843 0.930 . S
H1907 C1847 0.931 . S
H1908 C1848 0.959 . S
H1909 C1848 0.961 . S
H1910 C1848 0.959 . S
H1911 C1849 0.960 . S
H1912 C1849 0.960 . S
H1913 C1849 0.960 . S
H1914 C1885 0.980 . S
H1915 C1851 0.930 . S
H1916 C1855 0.930 . S
H1917 C1856 0.961 . S
H1918 C1856 0.960 . S
H1919 C1856 0.958 . S
H1920 C1857 0.961 . S
H1921 C1857 0.960 . S
H1922 C1857 0.960 . S
H1923 C1859 0.980 . S
H1924 C1858 0.961 . S
H1925 C1858 0.961 . S
H1926 C1858 0.959 . S
H1927 C1861 0.932 . S
H1928 C1865 0.929 . S
H1929 C1866 0.961 . S
H1930 C1866 0.959 . S
H1931 C1866 0.959 . S
H1932 C1867 0.960 . S
H1933 C1867 0.962 . S
H1934 C1867 0.961 . S
H1935 C1869 0.929 . S
H1936 C1872 0.930 . S
H1937 C1873 0.929 . S
H1938 C1876 0.930 . S
H1939 C1879 0.929 . S
H1940 C1880 0.930 . S
H1941 C1884 0.962 . S
H1942 C1884 0.959 . S
H1943 C1884 0.958 . S
C1944 C1945 1.560 . S
C1944 H2005 0.959 . S
C1944 H2006 0.959 . S
C1944 H2007 0.960 . S
C1945 C1944 1.560 . S
C1945 O2000 1.426 . S
C1945 H2004 0.980 . S
C1946 C1947 1.407 . S
C1946 C1951 1.418 . S
C1946 O2000 1.334 . S
C1947 C1946 1.407 . S
C1947 C1948 1.360 . S
C1947 H2008 0.929 . S
C1948 C1947 1.360 . S
C1948 C1949 1.401 . S
C1948 C1952 1.527 . S
C1949 C1948 1.401 . S
C1949 C1950 1.405 . S
C1949 C1982 1.587 . S
C1950 C1949 1.405 . S
C1950 C1951 1.332 . S
C1950 C1953 1.496 . S
C1951 C1946 1.418 . S
C1951 C1950 1.332 . S
C1951 H2009 0.929 . S
C1952 C1948 1.527 . S
C1952 H2010 0.959 . S
C1952 H2011 0.961 . S
C1952 H2012 0.961 . S
C1953 C1950 1.496 . S
C1953 H2013 0.960 . S
C1953 H2014 0.960 . S
C1953 H2015 0.961 . S
C1954 C1955 1.517 . S
C1954 H2017 0.961 . S
C1954 H2018 0.960 . S
C1954 H2019 0.959 . S
C1955 C1954 1.517 . S
C1955 O2003 1.468 . S
C1955 H2016 0.980 . S
C1956 C1957 1.349 . S
C1956 C1961 1.367 . S
C1956 O2003 1.408 . S
C1957 C1956 1.349 . S
C1957 C1958 1.407 . S
C1957 H2020 0.930 . S
C1958 C1957 1.407 . S
C1958 C1959 1.449 . S
C1958 C1962 1.535 . S
C1959 C1958 1.449 . S
C1959 C1960 1.384 . S
C1959 C1984 1.553 . S
C1960 C1959 1.384 . S
C1960 C1961 1.364 . S
C1960 C1963 1.450 . S
C1961 C1956 1.367 . S
C1961 C1960 1.364 . S
C1961 H2021 0.931 . S
C1962 C1958 1.535 . S
C1962 H2022 0.959 . S
C1962 H2023 0.961 . S
C1962 H2024 0.959 . S
C1963 C1960 1.450 . S
C1963 H2025 0.960 . S
C1963 H2026 0.960 . S
C1963 H2027 0.960 . S
C1964 C1965 1.309 . S
C1964 C1969 1.304 . S
C1964 O2002 1.435 . S
C1965 C1964 1.309 . S
C1965 C1966 1.476 . S
C1965 H2029 0.930 . S
C1966 C1965 1.476 . S
C1966 C1967 1.400 . S
C1966 C1970 1.567 . S
C1967 C1966 1.400 . S
C1967 C1968 1.373 . S
C1967 C1989 1.432 . S
C1968 C1967 1.373 . S
C1968 C1969 1.339 . S
C1968 C1971 1.530 . S
C1969 C1964 1.304 . S
C1969 C1968 1.339 . S
C1969 H2030 0.930 . S
C1970 C1966 1.567 . S
C1970 H2031 0.961 . S
C1970 H2032 0.960 . S
C1970 H2033 0.958 . S
C1971 C1968 1.530 . S
C1971 H2034 0.961 . S
C1971 H2035 0.960 . S
C1971 H2036 0.960 . S
C1972 C1973 1.530 . S
C1972 H2038 0.961 . S
C1972 H2039 0.961 . S
C1972 H2040 0.959 . S
C1973 C1972 1.530 . S
C1973 O2001 1.412 . S
C1973 H2037 0.980 . S
C1974 C1975 1.288 . S
C1974 C1979 1.377 . S
C1974 O2001 1.393 . S
C1975 C1974 1.288 . S
C1975 C1976 1.369 . S
C1975 H2041 0.932 . S
C1976 C1975 1.369 . S
C1976 C1977 1.398 . S
C1976 C1980 1.527 . S
C1977 C1976 1.398 . S
C1977 C1978 1.380 . S
C1977 C1991 1.497 . S
C1978 C1977 1.380 . S
C1978 C1979 1.383 . S
C1978 C1981 1.603 . S
C1979 C1974 1.377 . S
C1979 C1978 1.383 . S
C1979 H2042 0.929 . S
C1980 C1976 1.527 . S
C1980 H2043 0.961 . S
C1980 H2044 0.959 . S
C1980 H2045 0.959 . S
C1981 C1978 1.603 . S
C1981 H2046 0.960 . S
C1981 H2047 0.962 . S
C1981 H2048 0.961 . S
C1982 C1949 1.587 . S
C1982 C1983 1.360 . S
C1982 C1995 1.412 . S
C1983 C1982 1.360 . S
C1983 C1984 1.365 . S
C1983 H2049 0.929 . S
C1984 C1959 1.553 . S
C1984 C1983 1.365 . S
C1984 C1985 1.404 . S
C1985 C1984 1.404 . S
C1985 C1986 1.395 . S
C1985 C1996 1.451 . S
C1986 C1985 1.395 . S
C1986 C1987 1.322 . S
C1986 H2050 0.930 . S
C1987 C1986 1.322 . S
C1987 C1988 1.459 . S
C1987 H2051 0.929 . S
C1988 C1987 1.459 . S
C1988 C1989 1.445 . S
C1988 C1997 1.395 . S
C1989 C1967 1.432 . S
C1989 C1988 1.445 . S
C1989 C1990 1.370 . S
C1990 C1989 1.370 . S
C1990 C1991 1.438 . S
C1990 H2052 0.930 . S
C1991 C1977 1.497 . S
C1991 C1990 1.438 . S
C1991 C1992 1.360 . S
C1992 C1991 1.360 . S
C1992 C1993 1.401 . S
C1992 C1997 1.446 . S
C1993 C1992 1.401 . S
C1993 C1994 1.347 . S
C1993 H2053 0.929 . S
C1994 C1993 1.347 . S
C1994 C1995 1.455 . S
C1994 H2054 0.930 . S
C1995 C1982 1.412 . S
C1995 C1994 1.455 . S
C1995 C1996 1.331 . S
C1996 C1985 1.451 . S
C1996 C1995 1.331 . S
C1996 C1997 1.497 . S
C1997 C1988 1.395 . S
C1997 C1992 1.446 . S
C1997 C1996 1.497 . S
C1998 C1999 1.582 . S
C1998 H2055 0.962 . S
C1998 H2056 0.959 . S
C1998 H2057 0.958 . S
C1999 C1998 1.582 . S
C1999 O2002 1.458 . S
C1999 H2028 0.980 . S
O2000 C1945 1.426 . S
O2000 C1946 1.334 . S
O2001 C1973 1.412 . S
O2001 C1974 1.393 . S
O2002 C1964 1.435 . S
O2002 C1999 1.458 . S
O2003 C1955 1.468 . S
O2003 C1956 1.408 . S
H2004 C1945 0.980 . S
H2005 C1944 0.959 . S
H2006 C1944 0.959 . S
H2007 C1944 0.960 . S
H2008 C1947 0.929 . S
H2009 C1951 0.929 . S
H2010 C1952 0.959 . S
H2011 C1952 0.961 . S
H2012 C1952 0.961 . S
H2013 C1953 0.960 . S
H2014 C1953 0.960 . S
H2015 C1953 0.961 . S
H2016 C1955 0.980 . S
H2017 C1954 0.961 . S
H2018 C1954 0.960 . S
H2019 C1954 0.959 . S
H2020 C1957 0.930 . S
H2021 C1961 0.931 . S
H2022 C1962 0.959 . S
H2023 C1962 0.961 . S
H2024 C1962 0.959 . S
H2025 C1963 0.960 . S
H2026 C1963 0.960 . S
H2027 C1963 0.960 . S
H2028 C1999 0.980 . S
H2029 C1965 0.930 . S
H2030 C1969 0.930 . S
H2031 C1970 0.961 . S
H2032 C1970 0.960 . S
H2033 C1970 0.958 . S
H2034 C1971 0.961 . S
H2035 C1971 0.960 . S
H2036 C1971 0.960 . S
H2037 C1973 0.980 . S
H2038 C1972 0.961 . S
H2039 C1972 0.961 . S
H2040 C1972 0.959 . S
H2041 C1975 0.932 . S
H2042 C1979 0.929 . S
H2043 C1980 0.961 . S
H2044 C1980 0.959 . S
H2045 C1980 0.959 . S
H2046 C1981 0.960 . S
H2047 C1981 0.962 . S
H2048 C1981 0.961 . S
H2049 C1983 0.929 . S
H2050 C1986 0.930 . S
H2051 C1987 0.929 . S
H2052 C1990 0.930 . S
H2053 C1993 0.929 . S
H2054 C1994 0.930 . S
H2055 C1998 0.962 . S
H2056 C1998 0.959 . S
H2057 C1998 0.958 . S
C2058 C2059 1.560 . S
C2058 H2119 0.959 . S
C2058 H2120 0.959 . S
C2058 H2121 0.960 . S
C2059 C2058 1.560 . S
C2059 O2114 1.426 . S
C2059 H2118 0.980 . S
C2060 C2061 1.407 . S
C2060 C2065 1.418 . S
C2060 O2114 1.334 . S
C2061 C2060 1.407 . S
C2061 C2062 1.360 . S
C2061 H2122 0.929 . S
C2062 C2061 1.360 . S
C2062 C2063 1.401 . S
C2062 C2066 1.527 . S
C2063 C2062 1.401 . S
C2063 C2064 1.405 . S
C2063 C2096 1.587 . S
C2064 C2063 1.405 . S
C2064 C2065 1.332 . S
C2064 C2067 1.496 . S
C2065 C2060 1.418 . S
C2065 C2064 1.332 . S
C2065 H2123 0.929 . S
C2066 C2062 1.527 . S
C2066 H2124 0.959 . S
C2066 H2125 0.961 . S
C2066 H2126 0.961 . S
C2067 C2064 1.496 . S
C2067 H2127 0.960 . S
C2067 H2128 0.960 . S
C2067 H2129 0.961 . S
C2068 C2069 1.517 . S
C2068 H2131 0.961 . S
C2068 H2132 0.960 . S
C2068 H2133 0.959 . S
C2069 C2068 1.517 . S
C2069 O2117 1.468 . S
C2069 H2130 0.980 . S
C2070 C2071 1.349 . S
C2070 C2075 1.367 . S
C2070 O2117 1.408 . S
C2071 C2070 1.349 . S
C2071 C2072 1.407 . S
C2071 H2134 0.930 . S
C2072 C2071 1.407 . S
C2072 C2073 1.449 . S
C2072 C2076 1.535 . S
C2073 C2072 1.449 . S
C2073 C2074 1.384 . S
C2073 C2098 1.553 . S
C2074 C2073 1.384 . S
C2074 C2075 1.364 . S
C2074 C2077 1.450 . S
C2075 C2070 1.367 . S
C2075 C2074 1.364 . S
C2075 H2135 0.931 . S
C2076 C2072 1.535 . S
C2076 H2136 0.959 . S
C2076 H2137 0.961 . S
C2076 H2138 0.959 . S
C2077 C2074 1.450 . S
C2077 H2139 0.960 . S
C2077 H2140 0.960 . S
C2077 H2141 0.960 . S
C2078 C2079 1.309 . S
C2078 C2083 1.304 . S
C2078 O2116 1.435 . S
C2079 C2078 1.309 . S
C2079 C2080 1.476 . S
C2079 H2143 0.930 . S
C2080 C2079 1.476 . S
C2080 C2081 1.400 . S
C2080 C2084 1.567 . S
C2081 C2080 1.400 . S
C2081 C2082 1.373 . S
C2081 C2103 1.432 . S
C2082 C2081 1.373 . S
C2082 C2083 1.339 . S
C2082 C2085 1.530 . S
C2083 C2078 1.304 . S
C2083 C2082 1.339 . S
C2083 H2144 0.930 . S
C2084 C2080 1.567 . S
C2084 H2145 0.961 . S
C2084 H2146 0.960 . S
C2084 H2147 0.958 . S
C2085 C2082 1.530 . S
C2085 H2148 0.961 . S
C2085 H2149 0.960 . S
C2085 H2150 0.960 . S
C2086 C2087 1.530 . S
C2086 H2152 0.961 . S
C2086 H2153 0.961 . S
C2086 H2154 0.959 . S
C2087 C2086 1.530 . S
C2087 O2115 1.412 . S
C2087 H2151 0.980 . S
C2088 C2089 1.288 . S
C2088 C2093 1.377 . S
C2088 O2115 1.393 . S
C2089 C2088 1.288 . S
C2089 C2090 1.369 . S
C2089 H2155 0.932 . S
C2090 C2089 1.369 . S
C2090 C2091 1.398 . S
C2090 C2094 1.527 . S
C2091 C2090 1.398 . S
C2091 C2092 1.380 . S
C2091 C2105 1.497 . S
C2092 C2091 1.380 . S
C2092 C2093 1.383 . S
C2092 C2095 1.603 . S
C2093 C2088 1.377 . S
C2093 C2092 1.383 . S
C2093 H2156 0.929 . S
C2094 C2090 1.527 . S
C2094 H2157 0.961 . S
C2094 H2158 0.959 . S
C2094 H2159 0.959 . S
C2095 C2092 1.603 . S
C2095 H2160 0.960 . S
C2095 H2161 0.962 . S
C2095 H2162 0.961 . S
C2096 C2063 1.587 . S
C2096 C2097 1.360 . S
C2096 C2109 1.412 . S
C2097 C2096 1.360 . S
C2097 C2098 1.365 . S
C2097 H2163 0.929 . S
C2098 C2073 1.553 . S
C2098 C2097 1.365 . S
C2098 C2099 1.404 . S
C2099 C2098 1.404 . S
C2099 C2100 1.395 . S
C2099 C2110 1.451 . S
C2100 C2099 1.395 . S
C2100 C2101 1.322 . S
C2100 H2164 0.930 . S
C2101 C2100 1.322 . S
C2101 C2102 1.459 . S
C2101 H2165 0.929 . S
C2102 C2101 1.459 . S
C2102 C2103 1.445 . S
C2102 C2111 1.395 . S
C2103 C2081 1.432 . S
C2103 C2102 1.445 . S
C2103 C2104 1.370 . S
C2104 C2103 1.370 . S
C2104 C2105 1.438 . S
C2104 H2166 0.930 . S
C2105 C2091 1.497 . S
C2105 C2104 1.438 . S
C2105 C2106 1.360 . S
C2106 C2105 1.360 . S
C2106 C2107 1.401 . S
C2106 C2111 1.446 . S
C2107 C2106 1.401 . S
C2107 C2108 1.347 . S
C2107 H2167 0.929 . S
C2108 C2107 1.347 . S
C2108 C2109 1.455 . S
C2108 H2168 0.930 . S
C2109 C2096 1.412 . S
C2109 C2108 1.455 . S
C2109 C2110 1.331 . S
C2110 C2099 1.451 . S
C2110 C2109 1.331 . S
C2110 C2111 1.497 . S
C2111 C2102 1.395 . S
C2111 C2106 1.446 . S
C2111 C2110 1.497 . S
C2112 C2113 1.582 . S
C2112 H2169 0.962 . S
C2112 H2170 0.959 . S
C2112 H2171 0.958 . S
C2113 C2112 1.582 . S
C2113 O2116 1.458 . S
C2113 H2142 0.980 . S
O2114 C2059 1.426 . S
O2114 C2060 1.334 . S
O2115 C2087 1.412 . S
O2115 C2088 1.393 . S
O2116 C2078 1.435 . S
O2116 C2113 1.458 . S
O2117 C2069 1.468 . S
O2117 C2070 1.408 . S
H2118 C2059 0.980 . S
H2119 C2058 0.959 . S
H2120 C2058 0.959 . S
H2121 C2058 0.960 . S
H2122 C2061 0.929 . S
H2123 C2065 0.929 . S
H2124 C2066 0.959 . S
H2125 C2066 0.961 . S
H2126 C2066 0.961 . S
H2127 C2067 0.960 . S
H2128 C2067 0.960 . S
H2129 C2067 0.961 . S
H2130 C2069 0.980 . S
H2131 C2068 0.961 . S
H2132 C2068 0.960 . S
H2133 C2068 0.959 . S
H2134 C2071 0.930 . S
H2135 C2075 0.931 . S
H2136 C2076 0.959 . S
H2137 C2076 0.961 . S
H2138 C2076 0.959 . S
H2139 C2077 0.960 . S
H2140 C2077 0.960 . S
H2141 C2077 0.960 . S
H2142 C2113 0.980 . S
H2143 C2079 0.930 . S
H2144 C2083 0.930 . S
H2145 C2084 0.961 . S
H2146 C2084 0.960 . S
H2147 C2084 0.958 . S
H2148 C2085 0.961 . S
H2149 C2085 0.960 . S
H2150 C2085 0.960 . S
H2151 C2087 0.980 . S
H2152 C2086 0.961 . S
H2153 C2086 0.961 . S
H2154 C2086 0.959 . S
H2155 C2089 0.932 . S
H2156 C2093 0.929 . S
H2157 C2094 0.961 . S
H2158 C2094 0.959 . S
H2159 C2094 0.959 . S
H2160 C2095 0.960 . S
H2161 C2095 0.962 . S
H2162 C2095 0.961 . S
H2163 C2097 0.929 . S
H2164 C2100 0.930 . S
H2165 C2101 0.929 . S
H2166 C2104 0.930 . S
H2167 C2107 0.929 . S
H2168 C2108 0.930 . S
H2169 C2112 0.962 . S
H2170 C2112 0.959 . S
H2171 C2112 0.958 . S
C2172 C2173 1.560 . S
C2172 H2233 0.959 . S
C2172 H2234 0.959 . S
C2172 H2235 0.960 . S
C2173 C2172 1.560 . S
C2173 O2228 1.426 . S
C2173 H2232 0.980 . S
C2174 C2175 1.407 . S
C2174 C2179 1.418 . S
C2174 O2228 1.334 . S
C2175 C2174 1.407 . S
C2175 C2176 1.360 . S
C2175 H2236 0.929 . S
C2176 C2175 1.360 . S
C2176 C2177 1.401 . S
C2176 C2180 1.527 . S
C2177 C2176 1.401 . S
C2177 C2178 1.405 . S
C2177 C2210 1.587 . S
C2178 C2177 1.405 . S
C2178 C2179 1.332 . S
C2178 C2181 1.496 . S
C2179 C2174 1.418 . S
C2179 C2178 1.332 . S
C2179 H2237 0.929 . S
C2180 C2176 1.527 . S
C2180 H2238 0.959 . S
C2180 H2239 0.961 . S
C2180 H2240 0.961 . S
C2181 C2178 1.496 . S
C2181 H2241 0.960 . S
C2181 H2242 0.960 . S
C2181 H2243 0.961 . S
C2182 C2183 1.517 . S
C2182 H2245 0.961 . S
C2182 H2246 0.960 . S
C2182 H2247 0.959 . S
C2183 C2182 1.517 . S
C2183 O2231 1.468 . S
C2183 H2244 0.980 . S
C2184 C2185 1.349 . S
C2184 C2189 1.367 . S
C2184 O2231 1.408 . S
C2185 C2184 1.349 . S
C2185 C2186 1.407 . S
C2185 H2248 0.930 . S
C2186 C2185 1.407 . S
C2186 C2187 1.449 . S
C2186 C2190 1.535 . S
C2187 C2186 1.449 . S
C2187 C2188 1.384 . S
C2187 C2212 1.553 . S
C2188 C2187 1.384 . S
C2188 C2189 1.364 . S
C2188 C2191 1.450 . S
C2189 C2184 1.367 . S
C2189 C2188 1.364 . S
C2189 H2249 0.931 . S
C2190 C2186 1.535 . S
C2190 H2250 0.959 . S
C2190 H2251 0.961 . S
C2190 H2252 0.959 . S
C2191 C2188 1.450 . S
C2191 H2253 0.960 . S
C2191 H2254 0.960 . S
C2191 H2255 0.960 . S
C2192 C2193 1.309 . S
C2192 C2197 1.304 . S
C2192 O2230 1.435 . S
C2193 C2192 1.309 . S
C2193 C2194 1.476 . S
C2193 H2257 0.930 . S
C2194 C2193 1.476 . S
C2194 C2195 1.400 . S
C2194 C2198 1.567 . S
C2195 C2194 1.400 . S
C2195 C2196 1.373 . S
C2195 C2217 1.432 . S
C2196 C2195 1.373 . S
C2196 C2197 1.339 . S
C2196 C2199 1.530 . S
C2197 C2192 1.304 . S
C2197 C2196 1.339 . S
C2197 H2258 0.930 . S
C2198 C2194 1.567 . S
C2198 H2259 0.961 . S
C2198 H2260 0.960 . S
C2198 H2261 0.958 . S
C2199 C2196 1.530 . S
C2199 H2262 0.961 . S
C2199 H2263 0.960 . S
C2199 H2264 0.960 . S
C2200 C2201 1.530 . S
C2200 H2266 0.961 . S
C2200 H2267 0.961 . S
C2200 H2268 0.959 . S
C2201 C2200 1.530 . S
C2201 O2229 1.412 . S
C2201 H2265 0.980 . S
C2202 C2203 1.288 . S
C2202 C2207 1.377 . S
C2202 O2229 1.393 . S
C2203 C2202 1.288 . S
C2203 C2204 1.369 . S
C2203 H2269 0.932 . S
C2204 C2203 1.369 . S
C2204 C2205 1.398 . S
C2204 C2208 1.527 . S
C2205 C2204 1.398 . S
C2205 C2206 1.380 . S
C2205 C2219 1.497 . S
C2206 C2205 1.380 . S
C2206 C2207 1.383 . S
C2206 C2209 1.603 . S
C2207 C2202 1.377 . S
C2207 C2206 1.383 . S
C2207 H2270 0.929 . S
C2208 C2204 1.527 . S
C2208 H2271 0.961 . S
C2208 H2272 0.959 . S
C2208 H2273 0.959 . S
C2209 C2206 1.603 . S
C2209 H2274 0.960 . S
C2209 H2275 0.962 . S
C2209 H2276 0.961 . S
C2210 C2177 1.587 . S
C2210 C2211 1.360 . S
C2210 C2223 1.412 . S
C2211 C2210 1.360 . S
C2211 C2212 1.365 . S
C2211 H2277 0.929 . S
C2212 C2187 1.553 . S
C2212 C2211 1.365 . S
C2212 C2213 1.404 . S
C2213 C2212 1.404 . S
C2213 C2214 1.395 . S
C2213 C2224 1.451 . S
C2214 C2213 1.395 . S
C2214 C2215 1.322 . S
C2214 H2278 0.930 . S
C2215 C2214 1.322 . S
C2215 C2216 1.459 . S
C2215 H2279 0.929 . S
C2216 C2215 1.459 . S
C2216 C2217 1.445 . S
C2216 C2225 1.395 . S
C2217 C2195 1.432 . S
C2217 C2216 1.445 . S
C2217 C2218 1.370 . S
C2218 C2217 1.370 . S
C2218 C2219 1.438 . S
C2218 H2280 0.930 . S
C2219 C2205 1.497 . S
C2219 C2218 1.438 . S
C2219 C2220 1.360 . S
C2220 C2219 1.360 . S
C2220 C2221 1.401 . S
C2220 C2225 1.446 . S
C2221 C2220 1.401 . S
C2221 C2222 1.347 . S
C2221 H2281 0.929 . S
C2222 C2221 1.347 . S
C2222 C2223 1.455 . S
C2222 H2282 0.930 . S
C2223 C2210 1.412 . S
C2223 C2222 1.455 . S
C2223 C2224 1.331 . S
C2224 C2213 1.451 . S
C2224 C2223 1.331 . S
C2224 C2225 1.497 . S
C2225 C2216 1.395 . S
C2225 C2220 1.446 . S
C2225 C2224 1.497 . S
C2226 C2227 1.582 . S
C2226 H2283 0.962 . S
C2226 H2284 0.959 . S
C2226 H2285 0.958 . S
C2227 C2226 1.582 . S
C2227 O2230 1.458 . S
C2227 H2256 0.980 . S
O2228 C2173 1.426 . S
O2228 C2174 1.334 . S
O2229 C2201 1.412 . S
O2229 C2202 1.393 . S
O2230 C2192 1.435 . S
O2230 C2227 1.458 . S
O2231 C2183 1.468 . S
O2231 C2184 1.408 . S
H2232 C2173 0.980 . S
H2233 C2172 0.959 . S
H2234 C2172 0.959 . S
H2235 C2172 0.960 . S
H2236 C2175 0.929 . S
H2237 C2179 0.929 . S
H2238 C2180 0.959 . S
H2239 C2180 0.961 . S
H2240 C2180 0.961 . S
H2241 C2181 0.960 . S
H2242 C2181 0.960 . S
H2243 C2181 0.961 . S
H2244 C2183 0.980 . S
H2245 C2182 0.961 . S
H2246 C2182 0.960 . S
H2247 C2182 0.959 . S
H2248 C2185 0.930 . S
H2249 C2189 0.931 . S
H2250 C2190 0.959 . S
H2251 C2190 0.961 . S
H2252 C2190 0.959 . S
H2253 C2191 0.960 . S
H2254 C2191 0.960 . S
H2255 C2191 0.960 . S
H2256 C2227 0.980 . S
H2257 C2193 0.930 . S
H2258 C2197 0.930 . S
H2259 C2198 0.961 . S
H2260 C2198 0.960 . S
H2261 C2198 0.958 . S
H2262 C2199 0.961 . S
H2263 C2199 0.960 . S
H2264 C2199 0.960 . S
H2265 C2201 0.980 . S
H2266 C2200 0.961 . S
H2267 C2200 0.961 . S
H2268 C2200 0.959 . S
H2269 C2203 0.932 . S
H2270 C2207 0.929 . S
H2271 C2208 0.961 . S
H2272 C2208 0.959 . S
H2273 C2208 0.959 . S
H2274 C2209 0.960 . S
H2275 C2209 0.962 . S
H2276 C2209 0.961 . S
H2277 C2211 0.929 . S
H2278 C2214 0.930 . S
H2279 C2215 0.929 . S
H2280 C2218 0.930 . S
H2281 C2221 0.929 . S
H2282 C2222 0.930 . S
H2283 C2226 0.962 . S
H2284 C2226 0.959 . S
H2285 C2226 0.958 . S
H2286 C2292 0.930 . S
H2287 C2296 0.930 . S
H2288 C2301 0.929 . S
H2289 C2299 0.929 . S
H2290 C2294 0.929 . S
H2291 C2300 0.929 . S
C2292 H2286 0.930 . S
C2292 C2293 1.367 1_455 S
C2292 C2300 1.378 . S
C2293 C2292 1.367 1_655 S
C2293 C2301 1.433 . S
C2294 H2290 0.929 . S
C2294 C2296 1.378 . S
C2294 C2298 1.350 . S
C2295 C2298 1.463 . S
C2295 C2300 1.350 1_655 S
C2295 N2303 1.427 . S
C2296 H2287 0.930 . S
C2296 C2294 1.378 . S
C2296 C2297 1.367 . S
C2297 C2296 1.367 . S
C2297 C2299 1.433 1_655 S
C2298 C2294 1.350 . S
C2298 C2295 1.463 . S
C2298 N2302 1.427 1_655 S
C2299 H2289 0.929 . S
C2299 C2297 1.433 1_455 S
C2299 N2302 1.384 . S
C2300 H2291 0.929 . S
C2300 C2292 1.378 . S
C2300 C2295 1.350 1_455 S
C2301 H2288 0.929 . S
C2301 C2293 1.433 . S
C2301 N2303 1.384 . S
N2302 C2298 1.427 1_455 S
N2302 C2299 1.384 . S
N2303 C2295 1.427 . S
N2303 C2301 1.384 . S
H2304 C2310 0.930 . S
H2305 C2314 0.930 . S
H2306 C2319 0.929 . S
H2307 C2317 0.929 . S
H2308 C2312 0.929 . S
H2309 C2318 0.929 . S
C2310 H2304 0.930 . S
C2310 C2311 1.367 . S
C2310 C2318 1.378 . S
C2311 C2310 1.367 . S
C2311 C2319 1.433 . S
C2312 H2308 0.929 . S
C2312 C2314 1.378 . S
C2312 C2316 1.350 . S
C2313 C2316 1.463 . S
C2313 C2318 1.350 . S
C2313 N2321 1.427 . S
C2314 H2305 0.930 . S
C2314 C2312 1.378 . S
C2314 C2315 1.367 . S
C2315 C2314 1.367 . S
C2315 C2317 1.433 . S
C2316 C2312 1.350 . S
C2316 C2313 1.463 . S
C2316 N2320 1.427 . S
C2317 H2307 0.929 . S
C2317 C2315 1.433 . S
C2317 N2320 1.384 . S
C2318 H2309 0.929 . S
C2318 C2310 1.378 . S
C2318 C2313 1.350 . S
C2319 H2306 0.929 . S
C2319 C2311 1.433 . S
C2319 N2321 1.384 . S
N2320 C2316 1.427 . S
N2320 C2317 1.384 . S
N2321 C2313 1.427 . S
N2321 C2319 1.384 . S
H2322 C2328 0.930 . S
H2323 C2332 0.930 1_565 S
H2324 C2337 0.929 . S
H2325 C2335 0.929 . S
H2326 C2330 0.959 . S
H2327 C2336 0.929 . S
C2328 H2322 0.930 . S
C2328 C2329 1.367 . S
C2328 C2336 1.378 . S
C2329 C2328 1.367 . S
C2329 C2337 1.433 . S
C2330 H2326 0.959 . S
C2330 C2332 1.378 . S
C2330 C2334 1.350 . S
C2331 C2334 1.463 . S
C2331 C2336 1.350 . S
C2331 N2339 1.427 . S
C2332 H2323 0.930 1_545 S
C2332 C2330 1.378 . S
C2332 C2333 1.367 . S
C2333 C2332 1.367 . S
C2333 C2335 1.433 . S
C2334 C2330 1.350 . S
C2334 C2331 1.463 . S
C2334 N2338 1.427 . S
C2335 H2325 0.929 . S
C2335 C2333 1.433 . S
C2335 N2338 1.384 . S
C2336 H2327 0.929 . S
C2336 C2328 1.378 . S
C2336 C2331 1.350 . S
C2337 H2324 0.929 . S
C2337 C2329 1.433 . S
C2337 N2339 1.384 . S
N2338 C2334 1.427 . S
N2338 C2335 1.384 . S
N2339 C2331 1.427 . S
N2339 C2337 1.384 . S
H2340 C2346 0.930 . S
H2341 C2350 0.930 . S
H2342 C2355 0.929 . S
H2343 C2353 0.929 . S
H2344 C2348 0.929 . S
H2345 C2354 0.929 . S
C2346 H2340 0.930 . S
C2346 C2347 1.367 . S
C2346 C2354 1.378 . S
C2347 C2346 1.367 . S
C2347 C2355 1.433 1_565 S
C2348 H2344 0.929 . S
C2348 C2350 1.378 . S
C2348 C2352 1.350 1_545 S
C2349 C2352 1.463 . S
C2349 C2354 1.350 . S
C2349 N2357 1.427 1_565 S
C2350 H2341 0.930 . S
C2350 C2348 1.378 . S
C2350 C2351 1.367 1_545 S
C2351 C2350 1.367 1_565 S
C2351 C2353 1.433 . S
C2352 C2348 1.350 1_565 S
C2352 C2349 1.463 . S
C2352 N2356 1.427 . S
C2353 H2343 0.929 . S
C2353 C2351 1.433 . S
C2353 N2356 1.384 . S
C2354 H2345 0.929 . S
C2354 C2346 1.378 . S
C2354 C2349 1.350 . S
C2355 H2342 0.929 . S
C2355 C2347 1.433 1_545 S
C2355 N2357 1.384 . S
N2356 C2352 1.427 . S
N2356 C2353 1.384 . S
N2357 C2349 1.427 1_545 S
N2357 C2355 1.384 . S
H2358 C2364 0.930 . S
H2359 C2368 0.930 . S
H2360 C2373 0.929 . S
H2361 C2371 0.929 . S
H2362 C2366 0.929 . S
H2363 C2372 0.929 . S
C2364 H2358 0.930 . S
C2364 C2365 1.367 . S
C2364 C2372 1.378 . S
C2365 C2364 1.367 . S
C2365 C2373 1.433 . S
C2366 H2362 0.929 . S
C2366 C2368 1.378 . S
C2366 C2370 1.350 . S
C2367 C2370 1.463 . S
C2367 C2372 1.350 . S
C2367 N2375 1.427 . S
C2368 H2359 0.930 . S
C2368 C2366 1.378 . S
C2368 C2369 1.367 . S
C2369 C2368 1.367 . S
C2369 C2371 1.433 . S
C2370 C2366 1.350 . S
C2370 C2367 1.463 . S
C2370 N2374 1.427 . S
C2371 H2361 0.929 . S
C2371 C2369 1.433 . S
C2371 N2374 1.384 . S
C2372 H2363 0.929 . S
C2372 C2364 1.378 . S
C2372 C2367 1.350 . S
C2373 H2360 0.929 . S
C2373 C2365 1.433 . S
C2373 N2375 1.384 . S
N2374 C2370 1.427 . S
N2374 C2371 1.384 . S
N2375 C2367 1.427 . S
N2375 C2373 1.384 . S
H2376 C2382 0.930 . S
H2377 C2386 0.930 . S
H2378 C2391 0.929 . S
H2379 C2389 0.929 . S
H2380 C2384 0.929 . S
H2381 C2390 0.929 . S
C2382 H2376 0.930 . S
C2382 C2383 1.367 . S
C2382 C2390 1.378 . S
C2383 C2382 1.367 . S
C2383 C2391 1.433 . S
C2384 H2380 0.929 . S
C2384 C2386 1.378 . S
C2384 C2388 1.350 . S
C2385 C2388 1.463 . S
C2385 C2390 1.350 . S
C2385 N2393 1.427 . S
C2386 H2377 0.930 . S
C2386 C2384 1.378 . S
C2386 C2387 1.367 . S
C2387 C2386 1.367 . S
C2387 C2389 1.433 . S
C2388 C2384 1.350 . S
C2388 C2385 1.463 . S
C2388 N2392 1.427 . S
C2389 H2379 0.929 . S
C2389 C2387 1.433 . S
C2389 N2392 1.384 . S
C2390 H2381 0.929 . S
C2390 C2382 1.378 . S
C2390 C2385 1.350 . S
C2391 H2378 0.929 . S
C2391 C2383 1.433 . S
C2391 N2393 1.384 . S
N2392 C2388 1.427 . S
N2392 C2389 1.384 . S
N2393 C2385 1.427 . S
N2393 C2391 1.384 . S
H2394 C2400 0.930 1_655 S
H2395 C2404 0.930 . S
H2396 C2409 0.929 . S
H2397 C2407 0.929 . S
H2398 C2402 0.929 . S
H2399 C2408 0.929 . S
C2400 H2394 0.930 1_455 S
C2400 C2401 1.367 . S
C2400 C2408 1.375 1_455 S
C2401 C2400 1.367 . S
C2401 C2409 1.433 . S
C2402 H2398 0.929 . S
C2402 C2404 1.378 . S
C2402 C2406 1.350 . S
C2403 C2406 1.463 . S
C2403 C2408 1.353 1_455 S
C2403 N2411 1.427 . S
C2404 H2395 0.930 . S
C2404 C2402 1.378 . S
C2404 C2405 1.367 . S
C2405 C2404 1.367 . S
C2405 C2407 1.433 1_455 S
C2406 C2402 1.350 . S
C2406 C2403 1.463 . S
C2406 N2410 1.427 1_455 S
C2407 H2397 0.929 . S
C2407 C2405 1.433 1_655 S
C2407 N2410 1.384 . S
C2408 H2399 0.929 . S
C2408 C2400 1.375 1_655 S
C2408 C2403 1.353 1_655 S
C2409 H2396 0.929 . S
C2409 C2401 1.433 . S
C2409 N2411 1.384 . S
N2410 C2406 1.427 1_655 S
N2410 C2407 1.384 . S
N2411 C2403 1.427 . S
N2411 C2409 1.384 . S
H2412 C2418 0.930 . S
H2413 C2422 0.930 . S
H2414 C2427 0.929 . S
H2415 C2425 0.929 . S
H2416 C2420 0.929 . S
H2417 C2426 0.929 . S
C2418 H2412 0.930 . S
C2418 C2419 1.367 . S
C2418 C2426 1.378 . S
C2419 C2418 1.367 . S
C2419 C2427 1.433 . S
C2420 H2416 0.929 . S
C2420 C2422 1.378 . S
C2420 C2424 1.350 . S
C2421 C2424 1.463 . S
C2421 C2426 1.350 . S
C2421 N2429 1.427 . S
C2422 H2413 0.930 . S
C2422 C2420 1.378 . S
C2422 C2423 1.367 . S
C2423 C2422 1.367 . S
C2423 C2425 1.433 . S
C2424 C2420 1.350 . S
C2424 C2421 1.463 . S
C2424 N2428 1.427 . S
C2425 H2415 0.929 . S
C2425 C2423 1.433 . S
C2425 N2428 1.384 . S
C2426 H2417 0.929 . S
C2426 C2418 1.378 . S
C2426 C2421 1.350 . S
C2427 H2414 0.929 . S
C2427 C2419 1.433 . S
C2427 N2429 1.384 . S
N2428 C2424 1.427 . S
N2428 C2425 1.384 . S
N2429 C2421 1.427 . S
N2429 C2427 1.384 . S
H2430 C2436 0.930 . S
H2431 C2440 0.930 . S
H2432 C2445 0.929 . S
H2433 C2443 0.929 . S
H2434 C2438 0.929 . S
H2435 C2444 0.929 . S
C2436 H2430 0.930 . S
C2436 C2437 1.367 . S
C2436 C2444 1.378 . S
C2437 C2436 1.367 . S
C2437 C2445 1.433 1_565 S
C2438 H2434 0.929 . S
C2438 C2440 1.378 . S
C2438 C2442 1.350 1_545 S
C2439 C2442 1.463 . S
C2439 C2444 1.350 . S
C2439 N2447 1.427 1_565 S
C2440 H2431 0.930 . S
C2440 C2438 1.378 . S
C2440 C2441 1.367 1_545 S
C2441 C2440 1.367 1_565 S
C2441 C2443 1.433 . S
C2442 C2438 1.350 1_565 S
C2442 C2439 1.463 . S
C2442 N2446 1.427 . S
C2443 H2433 0.929 . S
C2443 C2441 1.433 . S
C2443 N2446 1.384 . S
C2444 H2435 0.929 . S
C2444 C2436 1.378 . S
C2444 C2439 1.350 . S
C2445 H2432 0.929 . S
C2445 C2437 1.433 1_545 S
C2445 N2447 1.384 . S
N2446 C2442 1.427 . S
N2446 C2443 1.384 . S
N2447 C2439 1.427 1_545 S
N2447 C2445 1.384 . S
H2448 C2454 0.930 . S
H2449 C2458 0.930 . S
H2450 C2463 0.982 . S
H2451 C2461 0.929 . S
H2452 C2456 0.929 . S
H2453 C2462 0.929 . S
C2454 H2448 0.930 . S
C2454 C2455 1.367 . S
C2454 C2462 1.378 . S
C2455 C2454 1.367 . S
C2455 C2463 1.393 1_545 S
C2456 H2452 0.929 . S
C2456 C2458 1.378 . S
C2456 C2460 1.350 1_565 S
C2457 C2460 1.463 . S
C2457 C2462 1.350 . S
C2457 N2465 1.427 1_545 S
C2458 H2449 0.930 . S
C2458 C2456 1.378 . S
C2458 C2459 1.367 1_565 S
C2459 C2458 1.367 1_545 S
C2459 C2461 1.433 . S
C2460 C2456 1.350 1_545 S
C2460 C2457 1.463 . S
C2460 N2464 1.427 . S
C2461 H2451 0.929 . S
C2461 C2459 1.433 . S
C2461 N2464 1.384 . S
C2462 H2453 0.929 . S
C2462 C2454 1.378 . S
C2462 C2457 1.350 . S
C2463 H2450 0.982 . S
C2463 C2455 1.393 1_565 S
C2463 N2465 1.370 . S
N2464 C2460 1.427 . S
N2464 C2461 1.384 . S
N2465 C2457 1.427 1_565 S
N2465 C2463 1.370 . S
H2466 C2472 0.930 . S
H2467 C2476 0.930 . S
H2468 C2481 0.905 1_455 S
H2469 C2479 0.929 . S
H2470 C2474 0.929 . S
H2471 C2480 0.929 . S
C2472 H2466 0.930 . S
C2472 C2473 1.367 . S
C2472 C2480 1.378 . S
C2473 C2472 1.367 . S
C2473 C2481 1.433 . S
C2474 H2470 0.929 . S
C2474 C2476 1.378 . S
C2474 C2478 1.350 1_455 S
C2475 C2478 1.463 . S
C2475 C2480 1.350 . S
C2475 N2483 1.427 . S
C2476 H2467 0.930 . S
C2476 C2474 1.378 . S
C2476 C2477 1.367 1_455 S
C2477 C2476 1.367 1_655 S
C2477 C2479 1.433 . S
C2478 C2474 1.350 1_655 S
C2478 C2475 1.463 . S
C2478 N2482 1.427 . S
C2479 H2469 0.929 . S
C2479 C2477 1.433 . S
C2479 N2482 1.384 . S
C2480 H2471 0.929 . S
C2480 C2472 1.378 . S
C2480 C2475 1.350 . S
C2481 H2468 0.905 1_655 S
C2481 C2473 1.433 . S
C2481 N2483 1.384 . S
N2482 C2478 1.427 . S
N2482 C2479 1.384 . S
N2483 C2475 1.427 . S
N2483 C2481 1.384 . S
H2484 C2490 0.930 . S
H2485 C2494 0.930 . S
H2486 C2499 0.929 . S
H2487 C2497 0.929 . S
H2488 C2492 0.929 . S
H2489 C2498 0.929 . S
C2490 H2484 0.930 . S
C2490 C2491 1.367 . S
C2490 C2498 1.378 . S
C2491 C2490 1.367 . S
C2491 C2499 1.433 . S
C2492 H2488 0.929 . S
C2492 C2494 1.378 . S
C2492 C2496 1.350 . S
C2493 C2496 1.463 . S
C2493 C2498 1.350 . S
C2493 N2501 1.427 . S
C2494 H2485 0.930 . S
C2494 C2492 1.378 . S
C2494 C2495 1.367 . S
C2495 C2494 1.367 . S
C2495 C2497 1.433 . S
C2496 C2492 1.350 . S
C2496 C2493 1.463 . S
C2496 N2500 1.427 . S
C2497 H2487 0.929 . S
C2497 C2495 1.433 . S
C2497 N2500 1.384 . S
C2498 H2489 0.929 . S
C2498 C2490 1.378 . S
C2498 C2493 1.350 . S
C2499 H2486 0.929 . S
C2499 C2491 1.433 . S
C2499 N2501 1.384 . S
N2500 C2496 1.427 . S
N2500 C2497 1.384 . S
N2501 C2493 1.427 . S
N2501 C2499 1.384 . S
H2502 C2508 0.930 . S
H2503 C2512 0.930 . S
H2504 C2517 0.929 . S
H2505 C2515 0.929 . S
H2506 C2510 0.929 . S
H2507 C2516 0.929 . S
C2508 H2502 0.930 . S
C2508 C2509 1.367 . S
C2508 C2516 1.378 . S
C2509 C2508 1.367 . S
C2509 C2517 1.433 . S
C2510 H2506 0.929 . S
C2510 C2512 1.378 . S
C2510 C2514 1.350 . S
C2511 C2514 1.463 . S
C2511 C2516 1.350 . S
C2511 N2519 1.427 . S
C2512 H2503 0.930 . S
C2512 C2510 1.378 . S
C2512 C2513 1.367 . S
C2513 C2512 1.367 . S
C2513 C2515 1.433 . S
C2514 C2510 1.350 . S
C2514 C2511 1.463 . S
C2514 N2518 1.427 . S
C2515 H2505 0.929 . S
C2515 C2513 1.433 . S
C2515 N2518 1.384 . S
C2516 H2507 0.929 . S
C2516 C2508 1.378 . S
C2516 C2511 1.350 . S
C2517 H2504 0.929 . S
C2517 C2509 1.433 . S
C2517 N2519 1.384 . S
N2518 C2514 1.427 . S
N2518 C2515 1.384 . S
N2519 C2511 1.427 . S
N2519 C2517 1.384 . S
H2520 C2526 0.930 . S
H2521 C2530 0.930 . S
H2522 C2535 0.929 . S
H2523 C2533 0.929 . S
H2524 C2528 0.929 . S
H2525 C2534 0.929 . S
C2526 H2520 0.930 . S
C2526 C2527 1.367 . S
C2526 C2534 1.378 . S
C2527 C2526 1.367 . S
C2527 C2535 1.433 . S
C2528 H2524 0.929 . S
C2528 C2530 1.378 . S
C2528 C2532 1.350 . S
C2529 C2532 1.463 . S
C2529 C2534 1.350 . S
C2529 N2537 1.427 . S
C2530 H2521 0.930 . S
C2530 C2528 1.378 . S
C2530 C2531 1.367 . S
C2531 C2530 1.367 . S
C2531 C2533 1.433 . S
C2532 C2528 1.350 . S
C2532 C2529 1.463 . S
C2532 N2536 1.427 . S
C2533 H2523 0.929 . S
C2533 C2531 1.433 . S
C2533 N2536 1.384 . S
C2534 H2525 0.929 . S
C2534 C2526 1.378 . S
C2534 C2529 1.350 . S
C2535 H2522 0.929 . S
C2535 C2527 1.433 . S
C2535 N2537 1.384 . S
N2536 C2532 1.427 . S
N2536 C2533 1.384 . S
N2537 C2529 1.427 . S
N2537 C2535 1.384 . S
H2538 C2544 0.930 . S
H2539 C2548 0.930 . S
H2540 C2553 0.929 . S
H2541 C2551 0.929 . S
H2542 C2546 0.929 . S
H2543 C2552 0.929 . S
C2544 H2538 0.930 . S
C2544 C2545 1.367 . S
C2544 C2552 1.378 . S
C2545 C2544 1.367 . S
C2545 C2553 1.433 . S
C2546 H2542 0.929 . S
C2546 C2548 1.378 . S
C2546 C2550 1.350 . S
C2547 C2550 1.463 . S
C2547 C2552 1.350 . S
C2547 N2555 1.427 . S
C2548 H2539 0.930 . S
C2548 C2546 1.378 . S
C2548 C2549 1.367 . S
C2549 C2548 1.367 . S
C2549 C2551 1.433 . S
C2550 C2546 1.350 . S
C2550 C2547 1.463 . S
C2550 N2554 1.427 . S
C2551 H2541 0.929 . S
C2551 C2549 1.433 . S
C2551 N2554 1.384 . S
C2552 H2543 0.929 . S
C2552 C2544 1.378 . S
C2552 C2547 1.350 . S
C2553 H2540 0.929 . S
C2553 C2545 1.433 . S
C2553 N2555 1.384 . S
N2554 C2550 1.427 . S
N2554 C2551 1.384 . S
N2555 C2547 1.427 . S
N2555 C2553 1.384 . S
H2556 C2562 0.930 . S
H2557 C2566 0.930 . S
H2558 C2571 0.929 . S
H2559 C2569 0.929 . S
H2560 C2564 0.929 . S
H2561 C2570 0.929 . S
C2562 H2556 0.930 . S
C2562 C2563 1.367 . S
C2562 C2570 1.378 . S
C2563 C2562 1.367 . S
C2563 C2571 1.433 . S
C2564 H2560 0.929 . S
C2564 C2566 1.378 . S
C2564 C2568 1.350 . S
C2565 C2568 1.463 . S
C2565 C2570 1.350 . S
C2565 N2573 1.427 . S
C2566 H2557 0.930 . S
C2566 C2564 1.378 . S
C2566 C2567 1.367 . S
C2567 C2566 1.367 . S
C2567 C2569 1.433 . S
C2568 C2564 1.350 . S
C2568 C2565 1.463 . S
C2568 N2572 1.427 . S
C2569 H2559 0.929 . S
C2569 C2567 1.433 . S
C2569 N2572 1.384 . S
C2570 H2561 0.929 . S
C2570 C2562 1.378 . S
C2570 C2565 1.350 . S
C2571 H2558 0.929 . S
C2571 C2563 1.433 . S
C2571 N2573 1.384 . S
N2572 C2568 1.427 . S
N2572 C2569 1.384 . S
N2573 C2565 1.427 . S
N2573 C2571 1.384 . S
H2574 C2580 0.930 . S
H2575 C2584 0.930 . S
H2576 C2589 0.929 . S
H2577 C2587 0.929 . S
H2578 C2582 0.929 . S
H2579 C2588 0.929 . S
C2580 H2574 0.930 . S
C2580 C2581 1.367 . S
C2580 C2588 1.378 . S
C2581 C2580 1.367 . S
C2581 C2589 1.433 . S
C2582 H2578 0.929 . S
C2582 C2584 1.378 . S
C2582 C2586 1.350 . S
C2583 C2586 1.463 . S
C2583 C2588 1.350 . S
C2583 N2591 1.427 . S
C2584 H2575 0.930 . S
C2584 C2582 1.378 . S
C2584 C2585 1.367 . S
C2585 C2584 1.367 . S
C2585 C2587 1.433 . S
C2586 C2582 1.350 . S
C2586 C2583 1.463 . S
C2586 N2590 1.427 . S
C2587 H2577 0.929 . S
C2587 C2585 1.433 . S
C2587 N2590 1.384 . S
C2588 H2579 0.929 . S
C2588 C2580 1.378 . S
C2588 C2583 1.350 . S
C2589 H2576 0.929 . S
C2589 C2581 1.433 . S
C2589 N2591 1.384 . S
N2590 C2586 1.427 . S
N2590 C2587 1.384 . S
N2591 C2583 1.427 . S
N2591 C2589 1.384 . S
H2592 C2598 0.930 . S
H2593 C2602 0.930 . S
H2594 C2607 0.929 . S
H2595 C2605 0.929 . S
H2596 C2600 0.929 . S
H2597 C2606 0.929 . S
C2598 H2592 0.930 . S
C2598 C2599 1.367 . S
C2598 C2606 1.378 . S
C2599 C2598 1.367 . S
C2599 C2607 1.433 . S
C2600 H2596 0.929 . S
C2600 C2602 1.378 . S
C2600 C2604 1.350 . S
C2601 C2604 1.463 . S
C2601 C2606 1.350 . S
C2601 N2609 1.427 . S
C2602 H2593 0.930 . S
C2602 C2600 1.378 . S
C2602 C2603 1.367 . S
C2603 C2602 1.367 . S
C2603 C2605 1.433 . S
C2604 C2600 1.350 . S
C2604 C2601 1.463 . S
C2604 N2608 1.427 . S
C2605 H2595 0.929 . S
C2605 C2603 1.433 . S
C2605 N2608 1.384 . S
C2606 H2597 0.929 . S
C2606 C2598 1.378 . S
C2606 C2601 1.350 . S
C2607 H2594 0.929 . S
C2607 C2599 1.433 . S
C2607 N2609 1.384 . S
N2608 C2604 1.427 . S
N2608 C2605 1.384 . S
N2609 C2601 1.427 . S
N2609 C2607 1.384 . S
H2610 C2616 0.930 . S
H2611 C2620 0.930 . S
H2612 C2625 0.929 . S
H2613 C2623 0.929 . S
H2614 C2618 0.929 . S
H2615 C2624 0.929 . S
C2616 H2610 0.930 . S
C2616 C2617 1.367 . S
C2616 C2624 1.378 . S
C2617 C2616 1.367 . S
C2617 C2625 1.433 . S
C2618 H2614 0.929 . S
C2618 C2620 1.378 . S
C2618 C2622 1.350 . S
C2619 C2622 1.463 . S
C2619 C2624 1.350 . S
C2619 N2627 1.427 . S
C2620 H2611 0.930 . S
C2620 C2618 1.378 . S
C2620 C2621 1.367 . S
C2621 C2620 1.367 . S
C2621 C2623 1.433 . S
C2622 C2618 1.350 . S
C2622 C2619 1.463 . S
C2622 N2626 1.427 . S
C2623 H2613 0.929 . S
C2623 C2621 1.433 . S
C2623 N2626 1.384 . S
C2624 H2615 0.929 . S
C2624 C2616 1.378 . S
C2624 C2619 1.350 . S
C2625 H2612 0.929 . S
C2625 C2617 1.433 . S
C2625 N2627 1.384 . S
N2626 C2622 1.427 . S
N2626 C2623 1.384 . S
N2627 C2619 1.427 . S
N2627 C2625 1.384 . S
H2628 C2634 0.930 . S
H2629 C2638 0.930 . S
H2630 C2643 0.929 . S
H2631 C2641 0.929 . S
H2632 C2636 0.929 . S
H2633 C2642 0.929 . S
C2634 H2628 0.930 . S
C2634 C2635 1.367 . S
C2634 C2642 1.378 . S
C2635 C2634 1.367 . S
C2635 C2643 1.433 . S
C2636 H2632 0.929 . S
C2636 C2638 1.378 . S
C2636 C2640 1.350 . S
C2637 C2640 1.463 . S
C2637 C2642 1.350 . S
C2637 N2645 1.427 . S
C2638 H2629 0.930 . S
C2638 C2636 1.378 . S
C2638 C2639 1.367 . S
C2639 C2638 1.367 . S
C2639 C2641 1.433 . S
C2640 C2636 1.350 . S
C2640 C2637 1.463 . S
C2640 N2644 1.427 . S
C2641 H2631 0.929 . S
C2641 C2639 1.433 . S
C2641 N2644 1.384 . S
C2642 H2633 0.929 . S
C2642 C2634 1.378 . S
C2642 C2637 1.350 . S
C2643 H2630 0.929 . S
C2643 C2635 1.433 . S
C2643 N2645 1.384 . S
N2644 C2640 1.427 . S
N2644 C2641 1.384 . S
N2645 C2637 1.427 . S
N2645 C2643 1.384 . S
H2646 C2652 0.930 . S
H2647 C2656 0.930 . S
H2648 C2661 0.929 . S
H2649 C2659 0.929 . S
H2650 C2654 0.929 . S
H2651 C2660 0.929 . S
C2652 H2646 0.930 . S
C2652 C2653 1.367 . S
C2652 C2660 1.378 . S
C2653 C2652 1.367 . S
C2653 C2661 1.433 . S
C2654 H2650 0.929 . S
C2654 C2656 1.378 . S
C2654 C2658 1.350 . S
C2655 C2658 1.463 . S
C2655 C2660 1.350 . S
C2655 N2663 1.427 . S
C2656 H2647 0.930 . S
C2656 C2654 1.378 . S
C2656 C2657 1.367 . S
C2657 C2656 1.367 . S
C2657 C2659 1.433 . S
C2658 C2654 1.350 . S
C2658 C2655 1.463 . S
C2658 N2662 1.427 . S
C2659 H2649 0.929 . S
C2659 C2657 1.433 . S
C2659 N2662 1.384 . S
C2660 H2651 0.929 . S
C2660 C2652 1.378 . S
C2660 C2655 1.350 . S
C2661 H2648 0.929 . S
C2661 C2653 1.433 . S
C2661 N2663 1.384 . S
N2662 C2658 1.427 . S
N2662 C2659 1.384 . S
N2663 C2655 1.427 . S
N2663 C2661 1.384 . S
H2664 C2670 0.930 . S
H2665 C2674 0.930 . S
H2666 C2679 0.929 . S
H2667 C2677 0.929 . S
H2668 C2672 0.929 . S
H2669 C2678 0.929 . S
C2670 H2664 0.930 . S
C2670 C2671 1.367 . S
C2670 C2678 1.378 . S
C2671 C2670 1.367 . S
C2671 C2679 1.433 . S
C2672 H2668 0.929 . S
C2672 C2674 1.378 . S
C2672 C2676 1.350 . S
C2673 C2676 1.463 . S
C2673 C2678 1.350 . S
C2673 N2681 1.427 . S
C2674 H2665 0.930 . S
C2674 C2672 1.378 . S
C2674 C2675 1.367 . S
C2675 C2674 1.367 . S
C2675 C2677 1.433 . S
C2676 C2672 1.350 . S
C2676 C2673 1.463 . S
C2676 N2680 1.427 . S
C2677 H2667 0.929 . S
C2677 C2675 1.433 . S
C2677 N2680 1.384 . S
C2678 H2669 0.929 . S
C2678 C2670 1.378 . S
C2678 C2673 1.350 . S
C2679 H2666 0.929 . S
C2679 C2671 1.433 . S
C2679 N2681 1.384 . S
N2680 C2676 1.427 . S
N2680 C2677 1.384 . S
N2681 C2673 1.427 . S
N2681 C2679 1.384 . S
H2682 C2688 0.930 . S
H2683 C2692 0.930 . S
H2684 C2697 0.929 . S
H2685 C2695 0.929 . S
H2686 C2690 0.929 . S
H2687 C2696 0.929 . S
C2688 H2682 0.930 . S
C2688 C2689 1.367 . S
C2688 C2696 1.378 . S
C2689 C2688 1.367 . S
C2689 C2697 1.433 . S
C2690 H2686 0.929 . S
C2690 C2692 1.378 . S
C2690 C2694 1.350 . S
C2691 C2694 1.463 . S
C2691 C2696 1.350 . S
C2691 N2699 1.427 . S
C2692 H2683 0.930 . S
C2692 C2690 1.378 . S
C2692 C2693 1.367 . S
C2693 C2692 1.367 . S
C2693 C2695 1.433 . S
C2694 C2690 1.350 . S
C2694 C2691 1.463 . S
C2694 N2698 1.427 . S
C2695 H2685 0.929 . S
C2695 C2693 1.433 . S
C2695 N2698 1.384 . S
C2696 H2687 0.929 . S
C2696 C2688 1.378 . S
C2696 C2691 1.350 . S
C2697 H2684 0.929 . S
C2697 C2689 1.433 . S
C2697 N2699 1.384 . S
N2698 C2694 1.427 . S
N2698 C2695 1.384 . S
N2699 C2691 1.427 . S
N2699 C2697 1.384 . S
H2700 C2706 0.930 . S
H2701 C2710 0.930 . S
H2702 C2715 0.929 . S
H2703 C2713 0.929 . S
H2704 C2708 0.929 . S
H2705 C2714 0.929 . S
C2706 H2700 0.930 . S
C2706 C2707 1.367 . S
C2706 C2714 1.378 . S
C2707 C2706 1.367 . S
C2707 C2715 1.433 . S
C2708 H2704 0.929 . S
C2708 C2710 1.378 . S
C2708 C2712 1.350 . S
C2709 C2712 1.463 . S
C2709 C2714 1.350 . S
C2709 N2717 1.427 . S
C2710 H2701 0.930 . S
C2710 C2708 1.378 . S
C2710 C2711 1.367 . S
C2711 C2710 1.367 . S
C2711 C2713 1.433 . S
C2712 C2708 1.350 . S
C2712 C2709 1.463 . S
C2712 N2716 1.427 . S
C2713 H2703 0.929 . S
C2713 C2711 1.433 . S
C2713 N2716 1.384 . S
C2714 H2705 0.929 . S
C2714 C2706 1.378 . S
C2714 C2709 1.350 . S
C2715 H2702 0.929 . S
C2715 C2707 1.433 . S
C2715 N2717 1.384 . S
N2716 C2712 1.427 . S
N2716 C2713 1.384 . S
N2717 C2709 1.427 . S
N2717 C2715 1.384 . S
H2718 C2724 0.930 . S
H2719 C2728 0.930 . S
H2720 C2733 0.929 . S
H2721 C2731 0.929 . S
H2722 C2726 0.929 . S
H2723 C2732 0.929 . S
C2724 H2718 0.930 . S
C2724 C2725 1.367 . S
C2724 C2732 1.378 . S
C2725 C2724 1.367 . S
C2725 C2733 1.433 . S
C2726 H2722 0.929 . S
C2726 C2728 1.378 . S
C2726 C2730 1.350 . S
C2727 C2730 1.463 . S
C2727 C2732 1.350 . S
C2727 N2735 1.427 . S
C2728 H2719 0.930 . S
C2728 C2726 1.378 . S
C2728 C2729 1.367 . S
C2729 C2728 1.367 . S
C2729 C2731 1.433 . S
C2730 C2726 1.350 . S
C2730 C2727 1.463 . S
C2730 N2734 1.427 . S
C2731 H2721 0.929 . S
C2731 C2729 1.433 . S
C2731 N2734 1.384 . S
C2732 H2723 0.929 . S
C2732 C2724 1.378 . S
C2732 C2727 1.350 . S
C2733 H2720 0.929 . S
C2733 C2725 1.433 . S
C2733 N2735 1.384 . S
N2734 C2730 1.427 . S
N2734 C2731 1.384 . S
N2735 C2727 1.427 . S
N2735 C2733 1.384 . S
H2736 C2742 0.930 . S
H2737 C2746 0.930 . S
H2738 C2751 0.929 . S
H2739 C2749 0.929 . S
H2740 C2744 0.929 . S
H2741 C2750 0.929 . S
C2742 H2736 0.930 . S
C2742 C2743 1.367 . S
C2742 C2750 1.378 . S
C2743 C2742 1.367 . S
C2743 C2751 1.433 . S
C2744 H2740 0.929 . S
C2744 C2746 1.378 . S
C2744 C2748 1.350 . S
C2745 C2748 1.463 . S
C2745 C2750 1.350 . S
C2745 N2753 1.427 . S
C2746 H2737 0.930 . S
C2746 C2744 1.378 . S
C2746 C2747 1.367 . S
C2747 C2746 1.367 . S
C2747 C2749 1.433 . S
C2748 C2744 1.350 . S
C2748 C2745 1.463 . S
C2748 N2752 1.427 . S
C2749 H2739 0.929 . S
C2749 C2747 1.433 . S
C2749 N2752 1.384 . S
C2750 H2741 0.929 . S
C2750 C2742 1.378 . S
C2750 C2745 1.350 . S
C2751 H2738 0.929 . S
C2751 C2743 1.433 . S
C2751 N2753 1.384 . S
N2752 C2748 1.427 . S
N2752 C2749 1.384 . S
N2753 C2745 1.427 . S
N2753 C2751 1.384 . S
H2754 C2760 0.930 . S
H2755 C2764 0.930 . S
H2756 C2769 0.929 . S
H2757 C2767 0.929 . S
H2758 C2762 0.929 . S
H2759 C2768 0.929 . S
C2760 H2754 0.930 . S
C2760 C2761 1.367 . S
C2760 C2768 1.378 . S
C2761 C2760 1.367 . S
C2761 C2769 1.433 . S
C2762 H2758 0.929 . S
C2762 C2764 1.378 . S
C2762 C2766 1.350 . S
C2763 C2766 1.463 . S
C2763 C2768 1.350 . S
C2763 N2771 1.427 . S
C2764 H2755 0.930 . S
C2764 C2762 1.378 . S
C2764 C2765 1.367 . S
C2765 C2764 1.367 . S
C2765 C2767 1.433 . S
C2766 C2762 1.350 . S
C2766 C2763 1.463 . S
C2766 N2770 1.427 . S
C2767 H2757 0.929 . S
C2767 C2765 1.433 . S
C2767 N2770 1.384 . S
C2768 H2759 0.929 . S
C2768 C2760 1.378 . S
C2768 C2763 1.350 . S
C2769 H2756 0.929 . S
C2769 C2761 1.433 . S
C2769 N2771 1.384 . S
N2770 C2766 1.427 . S
N2770 C2767 1.384 . S
N2771 C2763 1.427 . S
N2771 C2769 1.384 . S
H2772 C2778 0.930 . S
H2773 C2782 0.930 . S
H2774 C2787 0.929 . S
H2775 C2785 0.929 . S
H2776 C2780 0.929 . S
H2777 C2786 0.929 . S
C2778 H2772 0.930 . S
C2778 C2779 1.367 . S
C2778 C2786 1.378 . S
C2779 C2778 1.367 . S
C2779 C2787 1.433 . S
C2780 H2776 0.929 . S
C2780 C2782 1.378 . S
C2780 C2784 1.350 . S
C2781 C2784 1.463 . S
C2781 C2786 1.350 . S
C2781 N2789 1.427 . S
C2782 H2773 0.930 . S
C2782 C2780 1.378 . S
C2782 C2783 1.367 . S
C2783 C2782 1.367 . S
C2783 C2785 1.433 . S
C2784 C2780 1.350 . S
C2784 C2781 1.463 . S
C2784 N2788 1.427 . S
C2785 H2775 0.929 . S
C2785 C2783 1.433 . S
C2785 N2788 1.384 . S
C2786 H2777 0.929 . S
C2786 C2778 1.378 . S
C2786 C2781 1.350 . S
C2787 H2774 0.929 . S
C2787 C2779 1.433 . S
C2787 N2789 1.384 . S
N2788 C2784 1.427 . S
N2788 C2785 1.384 . S
N2789 C2781 1.427 . S
N2789 C2787 1.384 . S
H2790 C2796 0.930 . S
H2791 C2800 0.930 . S
H2792 C2805 0.929 . S
H2793 C2803 0.929 . S
H2794 C2798 0.929 . S
H2795 C2804 0.929 . S
C2796 H2790 0.930 . S
C2796 C2797 1.367 . S
C2796 C2804 1.378 . S
C2797 C2796 1.367 . S
C2797 C2805 1.433 . S
C2798 H2794 0.929 . S
C2798 C2800 1.378 . S
C2798 C2802 1.350 . S
C2799 C2802 1.463 . S
C2799 C2804 1.350 . S
C2799 N2807 1.427 . S
C2800 H2791 0.930 . S
C2800 C2798 1.378 . S
C2800 C2801 1.367 . S
C2801 C2800 1.367 . S
C2801 C2803 1.433 . S
C2802 C2798 1.350 . S
C2802 C2799 1.463 . S
C2802 N2806 1.427 . S
C2803 H2793 0.929 . S
C2803 C2801 1.433 . S
C2803 N2806 1.384 . S
C2804 H2795 0.929 . S
C2804 C2796 1.378 . S
C2804 C2799 1.350 . S
C2805 H2792 0.929 . S
C2805 C2797 1.433 . S
C2805 N2807 1.384 . S
N2806 C2802 1.427 . S
N2806 C2803 1.384 . S
N2807 C2799 1.427 . S
N2807 C2805 1.384 . S
H2808 C2814 0.930 . S
H2809 C2818 0.930 . S
H2810 C2823 0.929 . S
H2811 C2821 0.929 . S
H2812 C2816 0.929 . S
H2813 C2822 0.929 . S
C2814 H2808 0.930 . S
C2814 C2815 1.367 . S
C2814 C2822 1.378 . S
C2815 C2814 1.367 . S
C2815 C2823 1.433 . S
C2816 H2812 0.929 . S
C2816 C2818 1.378 . S
C2816 C2820 1.350 . S
C2817 C2820 1.463 . S
C2817 C2822 1.350 . S
C2817 N2825 1.427 . S
C2818 H2809 0.930 . S
C2818 C2816 1.378 . S
C2818 C2819 1.367 . S
C2819 C2818 1.367 . S
C2819 C2821 1.433 . S
C2820 C2816 1.350 . S
C2820 C2817 1.463 . S
C2820 N2824 1.427 . S
C2821 H2811 0.929 . S
C2821 C2819 1.433 . S
C2821 N2824 1.384 . S
C2822 H2813 0.929 . S
C2822 C2814 1.378 . S
C2822 C2817 1.350 . S
C2823 H2810 0.929 . S
C2823 C2815 1.433 . S
C2823 N2825 1.384 . S
N2824 C2820 1.427 . S
N2824 C2821 1.384 . S
N2825 C2817 1.427 . S
N2825 C2823 1.384 . S
H2826 C2832 0.930 . S
H2827 C2836 0.930 . S
H2828 C2841 0.929 . S
H2829 C2839 0.929 . S
H2830 C2834 0.929 . S
H2831 C2840 0.929 . S
C2832 H2826 0.930 . S
C2832 C2833 1.367 . S
C2832 C2840 1.378 . S
C2833 C2832 1.367 . S
C2833 C2841 1.433 . S
C2834 H2830 0.929 . S
C2834 C2836 1.378 . S
C2834 C2838 1.350 . S
C2835 C2838 1.463 . S
C2835 C2840 1.350 . S
C2835 N2843 1.427 . S
C2836 H2827 0.930 . S
C2836 C2834 1.378 . S
C2836 C2837 1.367 . S
C2837 C2836 1.367 . S
C2837 C2839 1.433 . S
C2838 C2834 1.350 . S
C2838 C2835 1.463 . S
C2838 N2842 1.427 . S
C2839 H2829 0.929 . S
C2839 C2837 1.433 . S
C2839 N2842 1.384 . S
C2840 H2831 0.929 . S
C2840 C2832 1.378 . S
C2840 C2835 1.350 . S
C2841 H2828 0.929 . S
C2841 C2833 1.433 . S
C2841 N2843 1.384 . S
N2842 C2838 1.427 . S
N2842 C2839 1.384 . S
N2843 C2835 1.427 . S
N2843 C2841 1.384 . S
H2844 C2850 0.930 . S
H2845 C2854 0.930 . S
H2846 C2859 0.929 . S
H2847 C2857 0.929 . S
H2848 C2852 0.929 . S
H2849 C2858 0.929 . S
C2850 H2844 0.930 . S
C2850 C2851 1.367 . S
C2850 C2858 1.378 . S
C2851 C2850 1.367 . S
C2851 C2859 1.433 . S
C2852 H2848 0.929 . S
C2852 C2854 1.378 . S
C2852 C2856 1.350 . S
C2853 C2856 1.463 . S
C2853 C2858 1.350 . S
C2853 N2861 1.427 . S
C2854 H2845 0.930 . S
C2854 C2852 1.378 . S
C2854 C2855 1.367 . S
C2855 C2854 1.367 . S
C2855 C2857 1.433 . S
C2856 C2852 1.350 . S
C2856 C2853 1.463 . S
C2856 N2860 1.427 . S
C2857 H2847 0.929 . S
C2857 C2855 1.433 . S
C2857 N2860 1.384 . S
C2858 H2849 0.929 . S
C2858 C2850 1.378 . S
C2858 C2853 1.350 . S
C2859 H2846 0.929 . S
C2859 C2851 1.433 . S
C2859 N2861 1.384 . S
N2860 C2856 1.427 . S
N2860 C2857 1.384 . S
N2861 C2853 1.427 . S
N2861 C2859 1.384 . S
H2862 C2868 0.930 . S
H2863 C2872 0.930 . S
H2864 C2877 0.929 . S
H2865 C2875 0.929 . S
H2866 C2870 0.929 . S
H2867 C2876 0.929 . S
C2868 H2862 0.930 . S
C2868 C2869 1.367 . S
C2868 C2876 1.378 . S
C2869 C2868 1.367 . S
C2869 C2877 1.433 . S
C2870 H2866 0.929 . S
C2870 C2872 1.378 . S
C2870 C2874 1.350 . S
C2871 C2874 1.463 . S
C2871 C2876 1.350 . S
C2871 N2879 1.427 . S
C2872 H2863 0.930 . S
C2872 C2870 1.378 . S
C2872 C2873 1.367 . S
C2873 C2872 1.367 . S
C2873 C2875 1.433 . S
C2874 C2870 1.350 . S
C2874 C2871 1.463 . S
C2874 N2878 1.427 . S
C2875 H2865 0.929 . S
C2875 C2873 1.433 . S
C2875 N2878 1.384 . S
C2876 H2867 0.929 . S
C2876 C2868 1.378 . S
C2876 C2871 1.350 . S
C2877 H2864 0.929 . S
C2877 C2869 1.433 . S
C2877 N2879 1.384 . S
N2878 C2874 1.427 . S
N2878 C2875 1.384 . S
N2879 C2871 1.427 . S
N2879 C2877 1.384 . S
H2880 C2886 0.930 . S
H2881 C2890 0.930 . S
H2882 C2895 0.929 . S
H2883 C2893 0.929 . S
H2884 C2888 0.929 . S
H2885 C2894 0.929 . S
C2886 H2880 0.930 . S
C2886 C2887 1.367 . S
C2886 C2894 1.378 . S
C2887 C2886 1.367 . S
C2887 C2895 1.433 . S
C2888 H2884 0.929 . S
C2888 C2890 1.378 . S
C2888 C2892 1.350 . S
C2889 C2892 1.463 . S
C2889 C2894 1.350 . S
C2889 N2897 1.427 . S
C2890 H2881 0.930 . S
C2890 C2888 1.378 . S
C2890 C2891 1.367 . S
C2891 C2890 1.367 . S
C2891 C2893 1.433 . S
C2892 C2888 1.350 . S
C2892 C2889 1.463 . S
C2892 N2896 1.427 . S
C2893 H2883 0.929 . S
C2893 C2891 1.433 . S
C2893 N2896 1.384 . S
C2894 H2885 0.929 . S
C2894 C2886 1.378 . S
C2894 C2889 1.350 . S
C2895 H2882 0.929 . S
C2895 C2887 1.433 . S
C2895 N2897 1.384 . S
N2896 C2892 1.427 . S
N2896 C2893 1.384 . S
N2897 C2889 1.427 . S
N2897 C2895 1.384 . S
H2898 C2904 0.930 . S
H2899 C2908 0.930 . S
H2900 C2913 0.929 . S
H2901 C2911 0.929 . S
H2902 C2906 0.929 . S
H2903 C2912 0.929 . S
C2904 H2898 0.930 . S
C2904 C2905 1.367 . S
C2904 C2912 1.378 . S
C2905 C2904 1.367 . S
C2905 C2913 1.433 . S
C2906 H2902 0.929 . S
C2906 C2908 1.378 . S
C2906 C2910 1.350 . S
C2907 C2910 1.463 . S
C2907 C2912 1.350 . S
C2907 N2915 1.427 . S
C2908 H2899 0.930 . S
C2908 C2906 1.378 . S
C2908 C2909 1.367 . S
C2909 C2908 1.367 . S
C2909 C2911 1.433 . S
C2910 C2906 1.350 . S
C2910 C2907 1.463 . S
C2910 N2914 1.427 . S
C2911 H2901 0.929 . S
C2911 C2909 1.433 . S
C2911 N2914 1.384 . S
C2912 H2903 0.929 . S
C2912 C2904 1.378 . S
C2912 C2907 1.350 . S
C2913 H2900 0.929 . S
C2913 C2905 1.433 . S
C2913 N2915 1.384 . S
N2914 C2910 1.427 . S
N2914 C2911 1.384 . S
N2915 C2907 1.427 . S
N2915 C2913 1.384 . S
H2916 C2922 0.930 . S
H2917 C2926 0.930 . S
H2918 C2931 0.929 . S
H2919 C2929 0.929 . S
H2920 C2924 0.929 . S
H2921 C2930 0.929 . S
C2922 H2916 0.930 . S
C2922 C2923 1.367 . S
C2922 C2930 1.378 . S
C2923 C2922 1.367 . S
C2923 C2931 1.433 . S
C2924 H2920 0.929 . S
C2924 C2926 1.378 . S
C2924 C2928 1.350 . S
C2925 C2928 1.463 . S
C2925 C2930 1.350 . S
C2925 N2933 1.427 . S
C2926 H2917 0.930 . S
C2926 C2924 1.378 . S
C2926 C2927 1.367 . S
C2927 C2926 1.367 . S
C2927 C2929 1.433 . S
C2928 C2924 1.350 . S
C2928 C2925 1.463 . S
C2928 N2932 1.427 . S
C2929 H2919 0.929 . S
C2929 C2927 1.433 . S
C2929 N2932 1.384 . S
C2930 H2921 0.929 . S
C2930 C2922 1.378 . S
C2930 C2925 1.350 . S
C2931 H2918 0.929 . S
C2931 C2923 1.433 . S
C2931 N2933 1.384 . S
N2932 C2928 1.427 . S
N2932 C2929 1.384 . S
N2933 C2925 1.427 . S
N2933 C2931 1.384 . S
H2934 C2940 0.930 . S
H2935 C2944 0.930 . S
H2936 C2949 0.929 . S
H2937 C2947 0.929 . S
H2938 C2942 0.929 . S
H2939 C2948 0.929 . S
C2940 H2934 0.930 . S
C2940 C2941 1.367 . S
C2940 C2948 1.378 . S
C2941 C2940 1.367 . S
C2941 C2949 1.433 . S
C2942 H2938 0.929 . S
C2942 C2944 1.378 . S
C2942 C2946 1.350 . S
C2943 C2946 1.463 . S
C2943 C2948 1.350 . S
C2943 N2951 1.427 . S
C2944 H2935 0.930 . S
C2944 C2942 1.378 . S
C2944 C2945 1.367 . S
C2945 C2944 1.367 . S
C2945 C2947 1.433 . S
C2946 C2942 1.350 . S
C2946 C2943 1.463 . S
C2946 N2950 1.427 . S
C2947 H2937 0.929 . S
C2947 C2945 1.433 . S
C2947 N2950 1.384 . S
C2948 H2939 0.929 . S
C2948 C2940 1.378 . S
C2948 C2943 1.350 . S
C2949 H2936 0.929 . S
C2949 C2941 1.433 . S
C2949 N2951 1.384 . S
N2950 C2946 1.427 . S
N2950 C2947 1.384 . S
N2951 C2943 1.427 . S
N2951 C2949 1.384 . S
H2952 C2958 0.930 . S
H2953 C2962 0.930 . S
H2954 C2967 0.929 . S
H2955 C2965 0.929 . S
H2956 C2960 0.929 . S
H2957 C2966 0.929 . S
C2958 H2952 0.930 . S
C2958 C2959 1.367 . S
C2958 C2966 1.378 . S
C2959 C2958 1.367 . S
C2959 C2967 1.433 . S
C2960 H2956 0.929 . S
C2960 C2962 1.378 . S
C2960 C2964 1.350 . S
C2961 C2964 1.463 . S
C2961 C2966 1.350 . S
C2961 N2969 1.427 . S
C2962 H2953 0.930 . S
C2962 C2960 1.378 . S
C2962 C2963 1.367 . S
C2963 C2962 1.367 . S
C2963 C2965 1.433 . S
C2964 C2960 1.350 . S
C2964 C2961 1.463 . S
C2964 N2968 1.427 . S
C2965 H2955 0.929 . S
C2965 C2963 1.433 . S
C2965 N2968 1.384 . S
C2966 H2957 0.929 . S
C2966 C2958 1.378 . S
C2966 C2961 1.350 . S
C2967 H2954 0.929 . S
C2967 C2959 1.433 . S
C2967 N2969 1.384 . S
N2968 C2964 1.427 . S
N2968 C2965 1.384 . S
N2969 C2961 1.427 . S
N2969 C2967 1.384 . S
H2970 C2976 0.930 . S
H2971 C2980 0.930 . S
H2972 C2985 0.929 . S
H2973 C2983 0.929 . S
H2974 C2978 0.929 . S
H2975 C2984 0.929 . S
C2976 H2970 0.930 . S
C2976 C2977 1.367 . S
C2976 C2984 1.378 . S
C2977 C2976 1.367 . S
C2977 C2985 1.433 . S
C2978 H2974 0.929 . S
C2978 C2980 1.378 . S
C2978 C2982 1.350 . S
C2979 C2982 1.463 . S
C2979 C2984 1.350 . S
C2979 N2987 1.427 . S
C2980 H2971 0.930 . S
C2980 C2978 1.378 . S
C2980 C2981 1.367 . S
C2981 C2980 1.367 . S
C2981 C2983 1.433 . S
C2982 C2978 1.350 . S
C2982 C2979 1.463 . S
C2982 N2986 1.427 . S
C2983 H2973 0.929 . S
C2983 C2981 1.433 . S
C2983 N2986 1.384 . S
C2984 H2975 0.929 . S
C2984 C2976 1.378 . S
C2984 C2979 1.350 . S
C2985 H2972 0.929 . S
C2985 C2977 1.433 . S
C2985 N2987 1.384 . S
N2986 C2982 1.427 . S
N2986 C2983 1.384 . S
N2987 C2979 1.427 . S
N2987 C2985 1.384 . S
H2988 C2994 0.930 . S
H2989 C2998 0.930 . S
H2990 C3003 0.929 . S
H2991 C3001 0.929 . S
H2992 C2996 0.929 . S
H2993 C3002 0.929 . S
C2994 H2988 0.930 . S
C2994 C2995 1.367 . S
C2994 C3002 1.378 . S
C2995 C2994 1.367 . S
C2995 C3003 1.433 . S
C2996 H2992 0.929 . S
C2996 C2998 1.378 . S
C2996 C3000 1.350 . S
C2997 C3000 1.463 . S
C2997 C3002 1.350 . S
C2997 N3005 1.427 . S
C2998 H2989 0.930 . S
C2998 C2996 1.378 . S
C2998 C2999 1.367 . S
C2999 C2998 1.367 . S
C2999 C3001 1.433 . S
C3000 C2996 1.350 . S
C3000 C2997 1.463 . S
C3000 N3004 1.427 . S
C3001 H2991 0.929 . S
C3001 C2999 1.433 . S
C3001 N3004 1.384 . S
C3002 H2993 0.929 . S
C3002 C2994 1.378 . S
C3002 C2997 1.350 . S
C3003 H2990 0.929 . S
C3003 C2995 1.433 . S
C3003 N3005 1.384 . S
N3004 C3000 1.427 . S
N3004 C3001 1.384 . S
N3005 C2997 1.427 . S
N3005 C3003 1.384 . S
H3006 C3012 0.930 . S
H3007 C3016 0.930 . S
H3008 C3021 0.929 . S
H3009 C3019 0.929 . S
H3010 C3014 0.929 . S
H3011 C3020 0.929 . S
C3012 H3006 0.930 . S
C3012 C3013 1.367 . S
C3012 C3020 1.378 . S
C3013 C3012 1.367 . S
C3013 C3021 1.433 . S
C3014 H3010 0.929 . S
C3014 C3016 1.378 . S
C3014 C3018 1.350 . S
C3015 C3018 1.463 . S
C3015 C3020 1.350 . S
C3015 N3023 1.427 . S
C3016 H3007 0.930 . S
C3016 C3014 1.378 . S
C3016 C3017 1.367 . S
C3017 C3016 1.367 . S
C3017 C3019 1.433 . S
C3018 C3014 1.350 . S
C3018 C3015 1.463 . S
C3018 N3022 1.427 . S
C3019 H3009 0.929 . S
C3019 C3017 1.433 . S
C3019 N3022 1.384 . S
C3020 H3011 0.929 . S
C3020 C3012 1.378 . S
C3020 C3015 1.350 . S
C3021 H3008 0.929 . S
C3021 C3013 1.433 . S
C3021 N3023 1.384 . S
N3022 C3018 1.427 . S
N3022 C3019 1.384 . S
N3023 C3015 1.427 . S
N3023 C3021 1.384 . S
H3024 C3030 0.930 1_554 S
H3025 C3034 0.930 . S
H3026 C3039 0.929 . S
H3027 C3037 0.929 . S
H3028 C3032 0.929 . S
H3029 C3038 0.929 . S
C3030 H3024 0.930 1_556 S
C3030 C3031 1.367 . S
C3030 C3038 1.378 . S
C3031 C3030 1.367 . S
C3031 C3039 1.433 . S
C3032 H3028 0.929 . S
C3032 C3034 1.378 . S
C3032 C3036 1.350 . S
C3033 C3036 1.463 . S
C3033 C3038 1.350 . S
C3033 N3041 1.427 . S
C3034 H3025 0.930 . S
C3034 C3032 1.378 . S
C3034 C3035 1.367 . S
C3035 C3034 1.367 . S
C3035 C3037 1.433 . S
C3036 C3032 1.350 . S
C3036 C3033 1.463 . S
C3036 N3040 1.427 . S
C3037 H3027 0.929 . S
C3037 C3035 1.433 . S
C3037 N3040 1.384 . S
C3038 H3029 0.929 . S
C3038 C3030 1.378 . S
C3038 C3033 1.350 . S
C3039 H3026 0.929 . S
C3039 C3031 1.433 . S
C3039 N3041 1.384 . S
N3040 C3036 1.427 . S
N3040 C3037 1.384 . S
N3041 C3033 1.427 . S
N3041 C3039 1.384 . S
H3042 C3048 0.930 . S
H3043 C3052 0.930 . S
H3044 C3057 0.929 . S
H3045 C3055 0.929 . S
H3046 C3050 0.929 . S
H3047 C3056 0.929 . S
C3048 H3042 0.930 . S
C3048 C3049 1.367 . S
C3048 C3056 1.378 . S
C3049 C3048 1.367 . S
C3049 C3057 1.433 . S
C3050 H3046 0.929 . S
C3050 C3052 1.378 . S
C3050 C3054 1.350 . S
C3051 C3054 1.463 . S
C3051 C3056 1.350 . S
C3051 N3059 1.427 . S
C3052 H3043 0.930 . S
C3052 C3050 1.378 . S
C3052 C3053 1.367 . S
C3053 C3052 1.367 . S
C3053 C3055 1.433 . S
C3054 C3050 1.350 . S
C3054 C3051 1.463 . S
C3054 N3058 1.427 . S
C3055 H3045 0.929 . S
C3055 C3053 1.433 . S
C3055 N3058 1.384 . S
C3056 H3047 0.929 . S
C3056 C3048 1.378 . S
C3056 C3051 1.350 . S
C3057 H3044 0.929 . S
C3057 C3049 1.433 . S
C3057 N3059 1.384 . S
N3058 C3054 1.427 . S
N3058 C3055 1.384 . S
N3059 C3051 1.427 . S
N3059 C3057 1.384 . S
H3060 C3066 0.930 . S
H3061 C3070 0.930 . S
H3062 C3075 0.929 . S
H3063 C3073 0.929 . S
H3064 C3068 0.929 . S
H3065 C3074 0.929 . S
C3066 H3060 0.930 . S
C3066 C3067 1.367 . S
C3066 C3074 1.378 . S
C3067 C3066 1.367 . S
C3067 C3075 1.433 . S
C3068 H3064 0.929 . S
C3068 C3070 1.378 . S
C3068 C3072 1.350 . S
C3069 C3072 1.463 . S
C3069 C3074 1.350 . S
C3069 N3077 1.427 . S
C3070 H3061 0.930 . S
C3070 C3068 1.378 . S
C3070 C3071 1.367 . S
C3071 C3070 1.367 . S
C3071 C3073 1.433 . S
C3072 C3068 1.350 . S
C3072 C3069 1.463 . S
C3072 N3076 1.427 . S
C3073 H3063 0.929 . S
C3073 C3071 1.433 . S
C3073 N3076 1.384 . S
C3074 H3065 0.929 . S
C3074 C3066 1.378 . S
C3074 C3069 1.350 . S
C3075 H3062 0.929 . S
C3075 C3067 1.433 . S
C3075 N3077 1.384 . S
N3076 C3072 1.427 . S
N3076 C3073 1.384 . S
N3077 C3069 1.427 . S
N3077 C3075 1.384 . S
H3078 C3084 0.930 . S
H3079 C3088 0.930 . S
H3080 C3093 0.929 . S
H3081 C3091 0.929 . S
H3082 C3086 0.929 . S
H3083 C3092 0.929 . S
C3084 H3078 0.930 . S
C3084 C3085 1.367 . S
C3084 C3092 1.378 . S
C3085 C3084 1.367 . S
C3085 C3093 1.433 . S
C3086 H3082 0.929 . S
C3086 C3088 1.378 . S
C3086 C3090 1.350 . S
C3087 C3090 1.463 . S
C3087 C3092 1.350 . S
C3087 N3095 1.427 . S
C3088 H3079 0.930 . S
C3088 C3086 1.378 . S
C3088 C3089 1.367 . S
C3089 C3088 1.367 . S
C3089 C3091 1.433 . S
C3090 C3086 1.350 . S
C3090 C3087 1.463 . S
C3090 N3094 1.427 . S
C3091 H3081 0.929 . S
C3091 C3089 1.433 . S
C3091 N3094 1.384 . S
C3092 H3083 0.929 . S
C3092 C3084 1.378 . S
C3092 C3087 1.350 . S
C3093 H3080 0.929 . S
C3093 C3085 1.433 . S
C3093 N3095 1.384 . S
N3094 C3090 1.427 . S
N3094 C3091 1.384 . S
N3095 C3087 1.427 . S
N3095 C3093 1.384 . S
H3096 C3102 0.930 . S
H3097 C3106 0.930 . S
H3098 C3111 0.929 . S
H3099 C3109 0.929 . S
H3100 C3104 0.929 . S
H3101 C3110 0.929 . S
C3102 H3096 0.930 . S
C3102 C3103 1.367 . S
C3102 C3110 1.378 . S
C3103 C3102 1.367 . S
C3103 C3111 1.433 . S
C3104 H3100 0.929 . S
C3104 C3106 1.378 . S
C3104 C3108 1.350 . S
C3105 C3108 1.463 . S
C3105 C3110 1.350 . S
C3105 N3113 1.427 . S
C3106 H3097 0.930 . S
C3106 C3104 1.378 . S
C3106 C3107 1.367 . S
C3107 C3106 1.367 . S
C3107 C3109 1.433 . S
C3108 C3104 1.350 . S
C3108 C3105 1.463 . S
C3108 N3112 1.427 . S
C3109 H3099 0.929 . S
C3109 C3107 1.433 . S
C3109 N3112 1.384 . S
C3110 H3101 0.929 . S
C3110 C3102 1.378 . S
C3110 C3105 1.350 . S
C3111 H3098 0.929 . S
C3111 C3103 1.433 . S
C3111 N3113 1.384 . S
N3112 C3108 1.427 . S
N3112 C3109 1.384 . S
N3113 C3105 1.427 . S
N3113 C3111 1.384 . S
H3114 C3120 0.930 . S
H3115 C3124 0.930 . S
H3116 C3129 0.929 . S
H3117 C3127 0.929 . S
H3118 C3122 0.929 . S
H3119 C3128 0.929 . S
C3120 H3114 0.930 . S
C3120 C3121 1.367 . S
C3120 C3128 1.378 . S
C3121 C3120 1.367 . S
C3121 C3129 1.433 . S
C3122 H3118 0.929 . S
C3122 C3124 1.378 . S
C3122 C3126 1.350 . S
C3123 C3126 1.463 . S
C3123 C3128 1.350 . S
C3123 N3131 1.427 . S
C3124 H3115 0.930 . S
C3124 C3122 1.378 . S
C3124 C3125 1.367 . S
C3125 C3124 1.367 . S
C3125 C3127 1.433 . S
C3126 C3122 1.350 . S
C3126 C3123 1.463 . S
C3126 N3130 1.427 . S
C3127 H3117 0.929 . S
C3127 C3125 1.433 . S
C3127 N3130 1.384 . S
C3128 H3119 0.929 . S
C3128 C3120 1.378 . S
C3128 C3123 1.350 . S
C3129 H3116 0.929 . S
C3129 C3121 1.433 . S
C3129 N3131 1.384 . S
N3130 C3126 1.427 . S
N3130 C3127 1.384 . S
N3131 C3123 1.427 . S
N3131 C3129 1.384 . S
H3132 C3138 0.930 . S
H3133 C3142 0.930 . S
H3134 C3147 0.929 . S
H3135 C3145 0.929 . S
H3136 C3140 0.929 . S
H3137 C3146 0.929 . S
C3138 H3132 0.930 . S
C3138 C3139 1.367 . S
C3138 C3146 1.378 . S
C3139 C3138 1.367 . S
C3139 C3147 1.433 . S
C3140 H3136 0.929 . S
C3140 C3142 1.378 . S
C3140 C3144 1.350 . S
C3141 C3144 1.463 . S
C3141 C3146 1.350 . S
C3141 N3149 1.427 . S
C3142 H3133 0.930 . S
C3142 C3140 1.378 . S
C3142 C3143 1.367 . S
C3143 C3142 1.367 . S
C3143 C3145 1.433 . S
C3144 C3140 1.350 . S
C3144 C3141 1.463 . S
C3144 N3148 1.427 . S
C3145 H3135 0.929 . S
C3145 C3143 1.433 . S
C3145 N3148 1.384 . S
C3146 H3137 0.929 . S
C3146 C3138 1.378 . S
C3146 C3141 1.350 . S
C3147 H3134 0.929 . S
C3147 C3139 1.433 . S
C3147 N3149 1.384 . S
N3148 C3144 1.427 . S
N3148 C3145 1.384 . S
N3149 C3141 1.427 . S
N3149 C3147 1.384 . S
H3150 C3156 0.930 . S
H3151 C3160 0.930 . S
H3152 C3165 0.929 . S
H3153 C3163 0.929 . S
H3154 C3158 0.929 . S
H3155 C3164 0.929 . S
C3156 H3150 0.930 . S
C3156 C3157 1.367 . S
C3156 C3164 1.378 . S
C3157 C3156 1.367 . S
C3157 C3165 1.433 . S
C3158 H3154 0.929 . S
C3158 C3160 1.378 . S
C3158 C3162 1.350 . S
C3159 C3162 1.463 . S
C3159 C3164 1.350 . S
C3159 N3167 1.427 . S
C3160 H3151 0.930 . S
C3160 C3158 1.378 . S
C3160 C3161 1.367 . S
C3161 C3160 1.367 . S
C3161 C3163 1.433 . S
C3162 C3158 1.350 . S
C3162 C3159 1.463 . S
C3162 N3166 1.427 . S
C3163 H3153 0.929 . S
C3163 C3161 1.433 . S
C3163 N3166 1.384 . S
C3164 H3155 0.929 . S
C3164 C3156 1.378 . S
C3164 C3159 1.350 . S
C3165 H3152 0.929 . S
C3165 C3157 1.433 . S
C3165 N3167 1.384 . S
N3166 C3162 1.427 . S
N3166 C3163 1.384 . S
N3167 C3159 1.427 . S
N3167 C3165 1.384 . S
H3168 C3174 0.930 . S
H3169 C3178 0.930 . S
H3170 C3183 0.929 . S
H3171 C3181 0.929 . S
H3172 C3176 0.929 . S
H3173 C3182 0.929 . S
C3174 H3168 0.930 . S
C3174 C3175 1.367 . S
C3174 C3182 1.378 . S
C3175 C3174 1.367 . S
C3175 C3183 1.433 . S
C3176 H3172 0.929 . S
C3176 C3178 1.378 . S
C3176 C3180 1.350 . S
C3177 C3180 1.463 . S
C3177 C3182 1.350 . S
C3177 N3185 1.427 . S
C3178 H3169 0.930 . S
C3178 C3176 1.378 . S
C3178 C3179 1.367 . S
C3179 C3178 1.367 . S
C3179 C3181 1.433 . S
C3180 C3176 1.350 . S
C3180 C3177 1.463 . S
C3180 N3184 1.427 . S
C3181 H3171 0.929 . S
C3181 C3179 1.433 . S
C3181 N3184 1.384 . S
C3182 H3173 0.929 . S
C3182 C3174 1.378 . S
C3182 C3177 1.350 . S
C3183 H3170 0.929 . S
C3183 C3175 1.433 . S
C3183 N3185 1.384 . S
N3184 C3180 1.427 . S
N3184 C3181 1.384 . S
N3185 C3177 1.427 . S
N3185 C3183 1.384 . S
H3186 C3192 0.930 . S
H3187 C3196 0.930 . S
H3188 C3201 0.929 . S
H3189 C3199 0.929 . S
H3190 C3194 0.929 . S
H3191 C3200 0.929 . S
C3192 H3186 0.930 . S
C3192 C3193 1.367 . S
C3192 C3200 1.378 . S
C3193 C3192 1.367 . S
C3193 C3201 1.433 . S
C3194 H3190 0.929 . S
C3194 C3196 1.378 . S
C3194 C3198 1.350 . S
C3195 C3198 1.463 . S
C3195 C3200 1.350 . S
C3195 N3203 1.427 . S
C3196 H3187 0.930 . S
C3196 C3194 1.378 . S
C3196 C3197 1.367 . S
C3197 C3196 1.367 . S
C3197 C3199 1.433 . S
C3198 C3194 1.350 . S
C3198 C3195 1.463 . S
C3198 N3202 1.427 . S
C3199 H3189 0.929 . S
C3199 C3197 1.433 . S
C3199 N3202 1.384 . S
C3200 H3191 0.929 . S
C3200 C3192 1.378 . S
C3200 C3195 1.350 . S
C3201 H3188 0.929 . S
C3201 C3193 1.433 . S
C3201 N3203 1.384 . S
N3202 C3198 1.427 . S
N3202 C3199 1.384 . S
N3203 C3195 1.427 . S
N3203 C3201 1.384 . S
H3204 C3210 0.930 . S
H3205 C3214 0.930 . S
H3206 C3219 0.929 . S
H3207 C3217 0.929 . S
H3208 C3212 0.929 . S
H3209 C3218 0.929 . S
C3210 H3204 0.930 . S
C3210 C3211 1.367 . S
C3210 C3218 1.378 . S
C3211 C3210 1.367 . S
C3211 C3219 1.433 . S
C3212 H3208 0.929 . S
C3212 C3214 1.378 . S
C3212 C3216 1.350 . S
C3213 C3216 1.463 . S
C3213 C3218 1.350 . S
C3213 N3221 1.427 . S
C3214 H3205 0.930 . S
C3214 C3212 1.378 . S
C3214 C3215 1.367 . S
C3215 C3214 1.367 . S
C3215 C3217 1.433 . S
C3216 C3212 1.350 . S
C3216 C3213 1.463 . S
C3216 N3220 1.427 . S
C3217 H3207 0.929 . S
C3217 C3215 1.433 . S
C3217 N3220 1.384 . S
C3218 H3209 0.929 . S
C3218 C3210 1.378 . S
C3218 C3213 1.350 . S
C3219 H3206 0.929 . S
C3219 C3211 1.433 . S
C3219 N3221 1.384 . S
N3220 C3216 1.427 . S
N3220 C3217 1.384 . S
N3221 C3213 1.427 . S
N3221 C3219 1.384 . S
H3222 C3228 0.930 . S
H3223 C3232 0.930 . S
H3224 C3237 0.929 . S
H3225 C3235 0.929 . S
H3226 C3230 0.929 . S
H3227 C3236 0.929 . S
C3228 H3222 0.930 . S
C3228 C3229 1.367 . S
C3228 C3236 1.378 . S
C3229 C3228 1.367 . S
C3229 C3237 1.433 . S
C3230 H3226 0.929 . S
C3230 C3232 1.378 . S
C3230 C3234 1.350 . S
C3231 C3234 1.463 . S
C3231 C3236 1.350 . S
C3231 N3239 1.427 . S
C3232 H3223 0.930 . S
C3232 C3230 1.378 . S
C3232 C3233 1.367 . S
C3233 C3232 1.367 . S
C3233 C3235 1.433 . S
C3234 C3230 1.350 . S
C3234 C3231 1.463 . S
C3234 N3238 1.427 . S
C3235 H3225 0.929 . S
C3235 C3233 1.433 . S
C3235 N3238 1.384 . S
C3236 H3227 0.929 . S
C3236 C3228 1.378 . S
C3236 C3231 1.350 . S
C3237 H3224 0.929 . S
C3237 C3229 1.433 . S
C3237 N3239 1.384 . S
N3238 C3234 1.427 . S
N3238 C3235 1.384 . S
N3239 C3231 1.427 . S
N3239 C3237 1.384 . S
H3240 C3246 0.930 . S
H3241 C3250 0.930 . S
H3242 C3255 0.929 . S
H3243 C3253 0.929 . S
H3244 C3248 0.929 . S
H3245 C3254 0.929 . S
C3246 H3240 0.930 . S
C3246 C3247 1.367 1_545 S
C3246 C3254 1.378 . S
C3247 C3246 1.367 1_565 S
C3247 C3255 1.433 . S
C3248 H3244 0.929 . S
C3248 C3250 1.378 . S
C3248 C3252 1.350 . S
C3249 C3252 1.463 . S
C3249 C3254 1.350 1_565 S
C3249 N3257 1.427 . S
C3250 H3241 0.930 . S
C3250 C3248 1.378 . S
C3250 C3251 1.367 . S
C3251 C3250 1.367 . S
C3251 C3253 1.433 1_565 S
C3252 C3248 1.350 . S
C3252 C3249 1.463 . S
C3252 N3256 1.427 1_565 S
C3253 H3243 0.929 . S
C3253 C3251 1.433 1_545 S
C3253 N3256 1.384 . S
C3254 H3245 0.929 . S
C3254 C3246 1.378 . S
C3254 C3249 1.350 1_545 S
C3255 H3242 0.929 . S
C3255 C3247 1.433 . S
C3255 N3257 1.384 . S
N3256 C3252 1.427 1_545 S
N3256 C3253 1.384 . S
N3257 C3249 1.427 . S
N3257 C3255 1.384 . S
H3258 C3264 0.930 . S
H3259 C3268 0.930 . S
H3260 C3273 0.929 . S
H3261 C3271 0.929 . S
H3262 C3266 0.929 . S
H3263 C3272 0.929 . S
C3264 H3258 0.930 . S
C3264 C3265 1.367 . S
C3264 C3272 1.378 . S
C3265 C3264 1.367 . S
C3265 C3273 1.433 . S
C3266 H3262 0.929 . S
C3266 C3268 1.376 . S
C3266 C3270 1.351 1_545 S
C3267 C3270 1.463 . S
C3267 C3272 1.350 . S
C3267 N3275 1.427 . S
C3268 H3259 0.930 . S
C3268 C3266 1.376 . S
C3268 C3269 1.367 1_545 S
C3269 C3268 1.367 1_565 S
C3269 C3271 1.433 . S
C3270 C3266 1.351 1_565 S
C3270 C3267 1.463 . S
C3270 N3274 1.427 . S
C3271 H3261 0.929 . S
C3271 C3269 1.433 . S
C3271 N3274 1.384 . S
C3272 H3263 0.929 . S
C3272 C3264 1.378 . S
C3272 C3267 1.350 . S
C3273 H3260 0.929 . S
C3273 C3265 1.433 . S
C3273 N3275 1.384 . S
N3274 C3270 1.427 . S
N3274 C3271 1.384 . S
N3275 C3267 1.427 . S
N3275 C3273 1.384 . S
H3276 C3282 0.930 . S
H3277 C3286 0.930 . S
H3278 C3291 0.929 . S
H3279 C3289 0.929 . S
H3280 C3284 0.929 . S
H3281 C3290 0.929 . S
C3282 H3276 0.930 . S
C3282 C3283 1.367 . S
C3282 C3290 1.378 . S
C3283 C3282 1.367 . S
C3283 C3291 1.433 1_455 S
C3284 H3280 0.929 . S
C3284 C3286 1.378 . S
C3284 C3288 1.350 1_655 S
C3285 C3288 1.463 . S
C3285 C3290 1.350 . S
C3285 N3293 1.427 1_455 S
C3286 H3277 0.930 . S
C3286 C3284 1.378 . S
C3286 C3287 1.411 . S
C3287 C3286 1.411 . S
C3287 C3289 1.416 1_655 S
C3288 C3284 1.350 1_455 S
C3288 C3285 1.463 . S
C3288 N3292 1.427 . S
C3289 H3279 0.929 . S
C3289 C3287 1.416 1_455 S
C3289 N3292 1.384 . S
C3290 H3281 0.929 . S
C3290 C3282 1.378 . S
C3290 C3285 1.350 . S
C3291 H3278 0.929 . S
C3291 C3283 1.433 1_655 S
C3291 N3293 1.384 . S
N3292 C3288 1.427 . S
N3292 C3289 1.384 . S
N3293 C3285 1.427 1_655 S
N3293 C3291 1.384 . S
H3294 C3300 0.930 . S
H3295 C3304 0.930 . S
H3296 C3309 0.929 . S
H3297 C3307 0.929 . S
H3298 C3302 0.929 . S
H3299 C3308 0.929 . S
C3300 H3294 0.930 . S
C3300 C3301 1.367 . S
C3300 C3308 1.378 . S
C3301 C3300 1.367 . S
C3301 C3309 1.433 . S
C3302 H3298 0.929 . S
C3302 C3304 1.378 . S
C3302 C3306 1.350 . S
C3303 C3306 1.463 . S
C3303 C3308 1.350 . S
C3303 N3311 1.427 . S
C3304 H3295 0.930 . S
C3304 C3302 1.378 . S
C3304 C3305 1.367 . S
C3305 C3304 1.367 . S
C3305 C3307 1.433 . S
C3306 C3302 1.350 . S
C3306 C3303 1.463 . S
C3306 N3310 1.427 . S
C3307 H3297 0.929 . S
C3307 C3305 1.433 . S
C3307 N3310 1.384 . S
C3308 H3299 0.929 . S
C3308 C3300 1.378 . S
C3308 C3303 1.350 . S
C3309 H3296 0.929 . S
C3309 C3301 1.433 . S
C3309 N3311 1.384 . S
N3310 C3306 1.427 . S
N3310 C3307 1.384 . S
N3311 C3303 1.427 . S
N3311 C3309 1.384 . S
H3312 C3318 0.930 . S
H3313 C3322 0.930 . S
H3314 C3327 0.929 . S
H3315 C3325 0.929 . S
H3316 C3320 0.929 . S
H3317 C3326 0.929 . S
C3318 H3312 0.930 . S
C3318 C3319 1.367 . S
C3318 C3326 1.378 . S
C3319 C3318 1.367 . S
C3319 C3327 1.433 . S
C3320 H3316 0.929 . S
C3320 C3322 1.378 . S
C3320 C3324 1.350 . S
C3321 C3324 1.463 . S
C3321 C3326 1.350 . S
C3321 N3329 1.427 . S
C3322 H3313 0.930 . S
C3322 C3320 1.378 . S
C3322 C3323 1.367 . S
C3323 C3322 1.367 . S
C3323 C3325 1.433 . S
C3324 C3320 1.350 . S
C3324 C3321 1.463 . S
C3324 N3328 1.427 . S
C3325 H3315 0.929 . S
C3325 C3323 1.433 . S
C3325 N3328 1.384 . S
C3326 H3317 0.929 . S
C3326 C3318 1.378 . S
C3326 C3321 1.350 . S
C3327 H3314 0.929 . S
C3327 C3319 1.433 . S
C3327 N3329 1.384 . S
N3328 C3324 1.427 . S
N3328 C3325 1.384 . S
N3329 C3321 1.427 . S
N3329 C3327 1.384 . S
H3330 C3336 0.930 . S
H3331 C3340 0.930 . S
H3332 C3345 0.929 . S
H3333 C3343 0.929 . S
H3334 C3338 0.929 . S
H3335 C3344 0.929 . S
C3336 H3330 0.930 . S
C3336 C3337 1.367 . S
C3336 C3344 1.378 . S
C3337 C3336 1.367 . S
C3337 C3345 1.433 . S
C3338 H3334 0.929 . S
C3338 C3340 1.378 . S
C3338 C3342 1.350 . S
C3339 C3342 1.463 . S
C3339 C3344 1.350 . S
C3339 N3347 1.427 . S
C3340 H3331 0.930 . S
C3340 C3338 1.378 . S
C3340 C3341 1.367 . S
C3341 C3340 1.367 . S
C3341 C3343 1.433 . S
C3342 C3338 1.350 . S
C3342 C3339 1.463 . S
C3342 N3346 1.427 . S
C3343 H3333 0.929 . S
C3343 C3341 1.433 . S
C3343 N3346 1.384 . S
C3344 H3335 0.929 . S
C3344 C3336 1.378 . S
C3344 C3339 1.350 . S
C3345 H3332 0.929 . S
C3345 C3337 1.433 . S
C3345 N3347 1.384 . S
N3346 C3342 1.427 . S
N3346 C3343 1.384 . S
N3347 C3339 1.427 . S
N3347 C3345 1.384 . S
H3348 C3354 0.930 . S
H3349 C3358 0.930 . S
H3350 C3363 0.929 . S
H3351 C3361 0.929 . S
H3352 C3356 0.929 . S
H3353 C3362 0.929 . S
C3354 H3348 0.930 . S
C3354 C3355 1.367 . S
C3354 C3362 1.378 . S
C3355 C3354 1.367 . S
C3355 C3363 1.433 . S
C3356 H3352 0.929 . S
C3356 C3358 1.378 . S
C3356 C3360 1.350 . S
C3357 C3360 1.463 . S
C3357 C3362 1.350 . S
C3357 N3365 1.427 . S
C3358 H3349 0.930 . S
C3358 C3356 1.378 . S
C3358 C3359 1.367 . S
C3359 C3358 1.367 . S
C3359 C3361 1.433 . S
C3360 C3356 1.350 . S
C3360 C3357 1.463 . S
C3360 N3364 1.427 . S
C3361 H3351 0.929 . S
C3361 C3359 1.433 . S
C3361 N3364 1.384 . S
C3362 H3353 0.929 . S
C3362 C3354 1.378 . S
C3362 C3357 1.350 . S
C3363 H3350 0.929 . S
C3363 C3355 1.433 . S
C3363 N3365 1.384 . S
N3364 C3360 1.427 . S
N3364 C3361 1.384 . S
N3365 C3357 1.427 . S
N3365 C3363 1.384 . S
H3366 C3372 0.930 1_565 S
H3367 C3376 0.930 . S
H3368 C3381 0.929 . S
H3369 C3379 0.929 . S
H3370 C3374 0.929 . S
H3371 C3380 0.929 1_565 S
C3372 H3366 0.930 1_545 S
C3372 C3373 1.367 . S
C3372 C3380 1.378 . S
C3373 C3372 1.367 . S
C3373 C3381 1.433 . S
C3374 H3370 0.929 . S
C3374 C3376 1.378 . S
C3374 C3378 1.350 . S
C3375 C3378 1.463 . S
C3375 C3380 1.350 . S
C3375 N3383 1.427 . S
C3376 H3367 0.930 . S
C3376 C3374 1.378 . S
C3376 C3377 1.367 . S
C3377 C3376 1.367 . S
C3377 C3379 1.433 1_545 S
C3378 C3374 1.350 . S
C3378 C3375 1.463 . S
C3378 N3382 1.427 1_545 S
C3379 H3369 0.929 . S
C3379 C3377 1.433 1_565 S
C3379 N3382 1.384 . S
C3380 H3371 0.929 1_545 S
C3380 C3372 1.378 . S
C3380 C3375 1.350 . S
C3381 H3368 0.929 . S
C3381 C3373 1.433 . S
C3381 N3383 1.384 . S
N3382 C3378 1.427 1_565 S
N3382 C3379 1.384 . S
N3383 C3375 1.427 . S
N3383 C3381 1.384 . S
H3384 C3390 0.937 . S
H3385 C3394 0.930 . S
H3386 C3399 0.929 . S
H3387 C3397 0.951 1_455 S
H3388 C3392 0.929 . S
H3389 C3398 0.939 1_455 S
C3390 H3384 0.937 . S
C3390 C3391 1.367 . S
C3390 C3398 1.378 . S
C3391 C3390 1.367 . S
C3391 C3399 1.433 . S
C3392 H3388 0.929 . S
C3392 C3394 1.378 . S
C3392 C3396 1.350 . S
C3393 C3396 1.463 . S
C3393 C3398 1.350 . S
C3393 N3401 1.427 . S
C3394 H3385 0.930 . S
C3394 C3392 1.378 . S
C3394 C3395 1.367 . S
C3395 C3394 1.367 . S
C3395 C3397 1.452 . S
C3396 C3392 1.350 . S
C3396 C3393 1.463 . S
C3396 N3400 1.427 . S
C3397 H3387 0.951 1_655 S
C3397 C3395 1.452 . S
C3397 N3400 1.351 . S
C3398 H3389 0.939 1_655 S
C3398 C3390 1.378 . S
C3398 C3393 1.350 . S
C3399 H3386 0.929 . S
C3399 C3391 1.433 . S
C3399 N3401 1.384 . S
N3400 C3396 1.427 . S
N3400 C3397 1.351 . S
N3401 C3393 1.427 . S
N3401 C3399 1.384 . S
H3402 C3408 0.930 . S
H3403 C3412 0.930 . S
H3404 C3417 0.929 . S
H3405 C3415 0.929 . S
H3406 C3410 0.929 . S
H3407 C3416 0.929 . S
C3408 H3402 0.930 . S
C3408 C3409 1.367 . S
C3408 C3416 1.378 . S
C3409 C3408 1.367 . S
C3409 C3417 1.433 . S
C3410 H3406 0.929 . S
C3410 C3412 1.378 . S
C3410 C3414 1.350 . S
C3411 C3414 1.463 . S
C3411 C3416 1.350 . S
C3411 N3419 1.427 . S
C3412 H3403 0.930 . S
C3412 C3410 1.378 . S
C3412 C3413 1.367 . S
C3413 C3412 1.367 . S
C3413 C3415 1.433 . S
C3414 C3410 1.350 . S
C3414 C3411 1.463 . S
C3414 N3418 1.427 . S
C3415 H3405 0.929 . S
C3415 C3413 1.433 . S
C3415 N3418 1.384 . S
C3416 H3407 0.929 . S
C3416 C3408 1.378 . S
C3416 C3411 1.350 . S
C3417 H3404 0.929 . S
C3417 C3409 1.433 . S
C3417 N3419 1.384 . S
N3418 C3414 1.427 . S
N3418 C3415 1.384 . S
N3419 C3411 1.427 . S
N3419 C3417 1.384 . S
H3420 C3426 0.930 . S
H3421 C3430 0.930 . S
H3422 C3435 0.929 . S
H3423 C3433 0.929 . S
H3424 C3428 0.929 . S
H3425 C3434 0.929 . S
C3426 H3420 0.930 . S
C3426 C3427 1.367 . S
C3426 C3434 1.378 . S
C3427 C3426 1.367 . S
C3427 C3435 1.433 . S
C3428 H3424 0.929 . S
C3428 C3430 1.378 . S
C3428 C3432 1.350 . S
C3429 C3432 1.463 . S
C3429 C3434 1.350 . S
C3429 N3437 1.427 . S
C3430 H3421 0.930 . S
C3430 C3428 1.378 . S
C3430 C3431 1.367 . S
C3431 C3430 1.367 . S
C3431 C3433 1.433 . S
C3432 C3428 1.350 . S
C3432 C3429 1.463 . S
C3432 N3436 1.427 . S
C3433 H3423 0.929 . S
C3433 C3431 1.433 . S
C3433 N3436 1.384 . S
C3434 H3425 0.929 . S
C3434 C3426 1.378 . S
C3434 C3429 1.350 . S
C3435 H3422 0.929 . S
C3435 C3427 1.433 . S
C3435 N3437 1.384 . S
N3436 C3432 1.427 . S
N3436 C3433 1.384 . S
N3437 C3429 1.427 . S
N3437 C3435 1.384 . S
H3438 C3444 0.930 . S
H3439 C3448 0.930 . S
H3440 C3453 0.929 . S
H3441 C3451 0.929 . S
H3442 C3446 0.929 . S
H3443 C3452 0.929 . S
C3444 H3438 0.930 . S
C3444 C3445 1.367 . S
C3444 C3452 1.378 . S
C3445 C3444 1.367 . S
C3445 C3453 1.433 . S
C3446 H3442 0.929 . S
C3446 C3448 1.378 . S
C3446 C3450 1.350 . S
C3447 C3450 1.463 . S
C3447 C3452 1.350 . S
C3447 N3455 1.427 . S
C3448 H3439 0.930 . S
C3448 C3446 1.378 . S
C3448 C3449 1.367 . S
C3449 C3448 1.367 . S
C3449 C3451 1.433 . S
C3450 C3446 1.350 . S
C3450 C3447 1.463 . S
C3450 N3454 1.427 . S
C3451 H3441 0.929 . S
C3451 C3449 1.433 . S
C3451 N3454 1.384 . S
C3452 H3443 0.929 . S
C3452 C3444 1.378 . S
C3452 C3447 1.350 . S
C3453 H3440 0.929 . S
C3453 C3445 1.433 . S
C3453 N3455 1.384 . S
N3454 C3450 1.427 . S
N3454 C3451 1.384 . S
N3455 C3447 1.427 . S
N3455 C3453 1.384 . S
H3456 C3462 0.930 . S
H3457 C3466 0.930 . S
H3458 C3471 0.929 . S
H3459 C3469 0.929 . S
H3460 C3464 0.929 . S
H3461 C3470 0.929 . S
C3462 H3456 0.930 . S
C3462 C3463 1.367 . S
C3462 C3470 1.378 . S
C3463 C3462 1.367 . S
C3463 C3471 1.433 . S
C3464 H3460 0.929 . S
C3464 C3466 1.378 . S
C3464 C3468 1.350 . S
C3465 C3468 1.463 . S
C3465 C3470 1.350 . S
C3465 N3473 1.427 . S
C3466 H3457 0.930 . S
C3466 C3464 1.378 . S
C3466 C3467 1.367 . S
C3467 C3466 1.367 . S
C3467 C3469 1.433 . S
C3468 C3464 1.350 . S
C3468 C3465 1.463 . S
C3468 N3472 1.427 . S
C3469 H3459 0.929 . S
C3469 C3467 1.433 . S
C3469 N3472 1.384 . S
C3470 H3461 0.929 . S
C3470 C3462 1.378 . S
C3470 C3465 1.350 . S
C3471 H3458 0.929 . S
C3471 C3463 1.433 . S
C3471 N3473 1.384 . S
N3472 C3468 1.427 . S
N3472 C3469 1.384 . S
N3473 C3465 1.427 . S
N3473 C3471 1.384 . S
H3474 C3480 0.930 . S
H3475 C3484 0.930 . S
H3476 C3489 0.929 . S
H3477 C3487 0.929 . S
H3478 C3482 0.929 . S
H3479 C3488 0.929 . S
C3480 H3474 0.930 . S
C3480 C3481 1.367 . S
C3480 C3488 1.378 . S
C3481 C3480 1.367 . S
C3481 C3489 1.433 . S
C3482 H3478 0.929 . S
C3482 C3484 1.378 . S
C3482 C3486 1.350 . S
C3483 C3486 1.463 . S
C3483 C3488 1.350 . S
C3483 N3491 1.427 . S
C3484 H3475 0.930 . S
C3484 C3482 1.378 . S
C3484 C3485 1.367 . S
C3485 C3484 1.367 . S
C3485 C3487 1.433 . S
C3486 C3482 1.350 . S
C3486 C3483 1.463 . S
C3486 N3490 1.427 . S
C3487 H3477 0.929 . S
C3487 C3485 1.433 . S
C3487 N3490 1.384 . S
C3488 H3479 0.929 . S
C3488 C3480 1.378 . S
C3488 C3483 1.350 . S
C3489 H3476 0.929 . S
C3489 C3481 1.433 . S
C3489 N3491 1.384 . S
N3490 C3486 1.427 . S
N3490 C3487 1.384 . S
N3491 C3483 1.427 . S
N3491 C3489 1.384 . S
H3492 C3498 0.930 . S
H3493 C3502 0.930 . S
H3494 C3507 0.929 . S
H3495 C3505 0.929 . S
H3496 C3500 0.929 . S
H3497 C3506 0.929 . S
C3498 H3492 0.930 . S
C3498 C3499 1.367 . S
C3498 C3506 1.378 . S
C3499 C3498 1.367 . S
C3499 C3507 1.433 . S
C3500 H3496 0.929 . S
C3500 C3502 1.378 . S
C3500 C3504 1.350 . S
C3501 C3504 1.463 . S
C3501 C3506 1.350 . S
C3501 N3509 1.427 . S
C3502 H3493 0.930 . S
C3502 C3500 1.378 . S
C3502 C3503 1.367 . S
C3503 C3502 1.367 . S
C3503 C3505 1.433 . S
C3504 C3500 1.350 . S
C3504 C3501 1.463 . S
C3504 N3508 1.427 . S
C3505 H3495 0.929 . S
C3505 C3503 1.433 . S
C3505 N3508 1.384 . S
C3506 H3497 0.929 . S
C3506 C3498 1.378 . S
C3506 C3501 1.350 . S
C3507 H3494 0.929 . S
C3507 C3499 1.433 . S
C3507 N3509 1.384 . S
N3508 C3504 1.427 . S
N3508 C3505 1.384 . S
N3509 C3501 1.427 . S
N3509 C3507 1.384 . S
H3510 C3516 0.930 . S
H3511 C3520 0.930 . S
H3512 C3525 0.929 . S
H3513 C3523 0.929 . S
H3514 C3518 0.929 . S
H3515 C3524 0.929 . S
C3516 H3510 0.930 . S
C3516 C3517 1.367 . S
C3516 C3524 1.378 . S
C3517 C3516 1.367 . S
C3517 C3525 1.433 . S
C3518 H3514 0.929 . S
C3518 C3520 1.378 . S
C3518 C3522 1.350 . S
C3519 C3522 1.463 . S
C3519 C3524 1.350 . S
C3519 N3527 1.427 . S
C3520 H3511 0.930 . S
C3520 C3518 1.378 . S
C3520 C3521 1.367 . S
C3521 C3520 1.367 . S
C3521 C3523 1.433 . S
C3522 C3518 1.350 . S
C3522 C3519 1.463 . S
C3522 N3526 1.427 . S
C3523 H3513 0.929 . S
C3523 C3521 1.433 . S
C3523 N3526 1.384 . S
C3524 H3515 0.929 . S
C3524 C3516 1.378 . S
C3524 C3519 1.350 . S
C3525 H3512 0.929 . S
C3525 C3517 1.433 . S
C3525 N3527 1.384 . S
N3526 C3522 1.427 . S
N3526 C3523 1.384 . S
N3527 C3519 1.427 . S
N3527 C3525 1.384 . S
H3528 C3534 0.930 . S
H3529 C3538 0.930 . S
H3530 C3543 0.929 . S
H3531 C3541 0.929 1_455 S
H3532 C3536 0.929 . S
H3533 C3542 0.929 . S
C3534 H3528 0.930 . S
C3534 C3535 1.367 . S
C3534 C3542 1.378 . S
C3535 C3534 1.367 . S
C3535 C3543 1.433 . S
C3536 H3532 0.929 . S
C3536 C3538 1.378 . S
C3536 C3540 1.350 . S
C3537 C3540 1.463 . S
C3537 C3542 1.350 . S
C3537 N3545 1.427 . S
C3538 H3529 0.930 . S
C3538 C3536 1.378 . S
C3538 C3539 1.367 . S
C3539 C3538 1.367 . S
C3539 C3541 1.433 . S
C3540 C3536 1.350 . S
C3540 C3537 1.463 . S
C3540 N3544 1.427 . S
C3541 H3531 0.929 1_655 S
C3541 C3539 1.433 . S
C3541 N3544 1.384 . S
C3542 H3533 0.929 . S
C3542 C3534 1.378 . S
C3542 C3537 1.350 . S
C3543 H3530 0.929 . S
C3543 C3535 1.433 . S
C3543 N3545 1.384 . S
N3544 C3540 1.427 . S
N3544 C3541 1.384 . S
N3545 C3537 1.427 . S
N3545 C3543 1.384 . S
H3546 C3552 0.930 . S
H3547 C3556 0.930 . S
H3548 C3561 0.929 . S
H3549 C3559 0.929 . S
H3550 C3554 0.929 . S
H3551 C3560 0.929 . S
C3552 H3546 0.930 . S
C3552 C3553 1.367 . S
C3552 C3560 1.378 . S
C3553 C3552 1.367 . S
C3553 C3561 1.433 . S
C3554 H3550 0.929 . S
C3554 C3556 1.378 . S
C3554 C3558 1.350 . S
C3555 C3558 1.463 . S
C3555 C3560 1.350 . S
C3555 N3563 1.427 . S
C3556 H3547 0.930 . S
C3556 C3554 1.378 . S
C3556 C3557 1.367 . S
C3557 C3556 1.367 . S
C3557 C3559 1.433 . S
C3558 C3554 1.350 . S
C3558 C3555 1.463 . S
C3558 N3562 1.427 . S
C3559 H3549 0.929 . S
C3559 C3557 1.433 . S
C3559 N3562 1.384 . S
C3560 H3551 0.929 . S
C3560 C3552 1.378 . S
C3560 C3555 1.350 . S
C3561 H3548 0.929 . S
C3561 C3553 1.433 . S
C3561 N3563 1.384 . S
N3562 C3558 1.427 . S
N3562 C3559 1.384 . S
N3563 C3555 1.427 . S
N3563 C3561 1.384 . S
H3564 C3570 0.861 1_565 S
H3565 C3574 0.930 . S
H3566 C3579 0.929 . S
H3567 C3577 0.929 . S
H3568 C3572 0.929 . S
H3569 C3578 0.929 . S
C3570 H3564 0.861 1_545 S
C3570 C3571 1.420 . S
C3570 C3578 1.399 1_545 S
C3571 C3570 1.420 . S
C3571 C3579 1.433 . S
C3572 H3568 0.929 . S
C3572 C3574 1.378 . S
C3572 C3576 1.350 . S
C3573 C3576 1.463 . S
C3573 C3578 1.350 1_545 S
C3573 N3581 1.427 . S
C3574 H3565 0.930 . S
C3574 C3572 1.378 . S
C3574 C3575 1.367 . S
C3575 C3574 1.367 . S
C3575 C3577 1.433 1_545 S
C3576 C3572 1.350 . S
C3576 C3573 1.463 . S
C3576 N3580 1.427 1_545 S
C3577 H3567 0.929 . S
C3577 C3575 1.433 1_565 S
C3577 N3580 1.384 . S
C3578 H3569 0.929 . S
C3578 C3570 1.399 1_565 S
C3578 C3573 1.350 1_565 S
C3579 H3566 0.929 . S
C3579 C3571 1.433 . S
C3579 N3581 1.384 . S
N3580 C3576 1.427 1_565 S
N3580 C3577 1.384 . S
N3581 C3573 1.427 . S
N3581 C3579 1.384 . S
C2293 C8 1.231 . S
C2297 C1289 1.081 1_655 S
C2311 C18 1.564 . S
C2315 C1429 1.064 . S
C2333 C1517 1.147 . S
C2329 C31 1.294 . S
C2347 C34 1.359 1_565 S
C2351 C1657 1.030 1_565 S
C2365 C5 1.319 . S
C2369 C1771 1.038 . S
C2383 C21 1.622 . S
C2387 C1859 1.248 . S
C2401 C47 1.211 . S
C2405 C1745 1.015 . S
C2423 C1885 1.223 . S
C2419 C57 1.468 . S
C2441 C1631 1.150 . S
C2437 C70 1.325 . S
C2455 C73 1.310 . S
C2459 C1543 1.006 . S
C2477 C1315 1.067 . S
C2473 C44 1.340 . S
C2491 C60 1.514 . S
C2495 C1403 1.379 . S
C2509 C86 1.678 . S
C2513 C1973 1.252 . S
C2527 C96 1.664 . S
C2531 C2113 1.119 . S
C2549 C2201 1.246 . S
C2545 C109 1.718 . S
C2563 C112 1.796 . S
C2567 C289 1.175 . S
C2581 C83 1.778 . S
C2585 C403 1.148 . S
C2599 C99 1.734 . S
C2603 C491 1.314 . S
C2617 C125 1.438 . S
C2621 C377 1.331 . S
C2635 C135 1.572 . S
C2639 C517 1.367 . S
C2657 C263 1.477 . S
C2653 C148 1.624 . S
C2675 C2227 1.607 . S
C2671 C151 1.818 . S
C2693 C1999 1.386 . S
C2689 C122 1.629 . S
C2711 C2087 1.534 . S
C2707 C138 1.647 . S
C2725 C164 1.544 . S
C2729 C605 1.130 . S
C2743 C174 1.665 . S
C2747 C745 1.115 . S
C2761 C187 1.732 . S
C2765 C833 1.270 . S
C2779 C190 1.931 . S
C2783 C973 1.273 . S
C2801 C1087 1.114 . S
C2797 C161 1.765 . S
C2819 C1175 1.335 . S
C2815 C177 1.763 . S
C2837 C1061 1.465 . S
C2833 C203 1.594 . S
C2855 C1201 1.346 . S
C2851 C213 1.580 . S
C2869 C226 1.588 . S
C2873 C947 1.424 . S
C2891 C859 1.482 . S
C2887 C229 1.679 . S
C2905 C200 1.672 . S
C2909 C631 1.429 . S
C2927 C719 1.520 . S
C2923 C216 1.629 . S
C2945 C245 0.916 . S
C2941 C0 1.665 . S
C2959 C23 1.576 . S
C2963 C359 0.869 . S
C2981 C463 1.233 . S
C2977 C36 1.707 . S
C2999 C577 1.152 . S
C2995 C26 1.523 . S
C3017 C701 0.956 . S
C3013 C10 1.738 . S
C3035 C805 1.170 . S
C3031 C13 1.530 1_556 S
C3049 C39 1.776 . S
C3053 C815 1.435 . S
C3067 C62 1.680 . S
C3071 C587 1.289 . S
C3085 C75 1.787 1_556 S
C3089 C691 1.586 . S
C3103 C65 1.667 . S
C3107 C349 1.609 . S
C3125 C473 1.477 . S
C3121 C49 1.860 . S
C3139 C52 1.661 . S
C3143 C235 1.567 . S
C3161 C929 0.891 . S
C3157 C78 1.590 . S
C3175 C101 1.717 . S
C3179 C1043 0.987 . S
C3193 C114 1.718 1_655 S
C3197 C1147 1.292 . S
C3215 C1261 0.920 . S
C3211 C104 1.120 . S
C3229 C88 1.579 . S
C3233 C1385 0.853 . S
C3247 C91 1.129 . S
C3251 C1489 0.938 . S
C3265 C117 1.269 . S
C3269 C1499 0.837 1_565 S
C3283 C140 1.185 . S
C3287 C1271 0.817 . S
C3305 C1375 1.443 . S
C3301 C153 1.665 . S
C3319 C143 1.580 . S
C3323 C1033 1.531 . S
C3337 C127 1.848 . S
C3341 C1157 1.476 . S
C3359 C919 1.686 . S
C3355 C130 1.785 . S
C3377 C1613 0.797 . S
C3373 C156 1.273 . S
C3391 C179 1.155 . S
C3395 C1727 0.812 . S
C3409 C192 1.553 . S
C3413 C1831 1.120 . S
C3431 C1945 1.105 . S
C3427 C182 1.441 . S
C3449 C2069 0.995 . S
C3445 C166 1.748 . S
C3463 C169 1.685 . S
C3467 C2173 1.282 . S
C3481 C195 1.702 . S
C3485 C2183 1.376 . S
C3499 C218 1.825 . S
C3503 C1955 1.407 . S
C3521 C2059 1.583 . S
C3517 C231 1.793 . S
C3539 C1717 0.983 1_655 S
C3535 C221 1.108 . S
C3557 C1841 1.323 . S
C3553 C205 1.698 . S
C3571 C208 1.169 . S
C3575 C1603 1.020 1_545 S
