# Generated by pormake.
# Topology zzz, (3,6)-cn, num edge types: 1
# Building blocks:
#     Node 0, Type 0, BuildingBlock: BETDAH_clean_linker_0, # of connection points: 3
#     Node 1, Type 0, BuildingBlock: BETDAH_clean_linker_0, # of connection points: 3
#     Node 2, Type 0, BuildingBlock: BETDAH_clean_linker_0, # of connection points: 3
#     Node 3, Type 0, BuildingBlock: BETDAH_clean_linker_0, # of connection points: 3
#     Node 4, Type 0, BuildingBlock: BETDAH_clean_linker_0, # of connection points: 3
#     Node 5, Type 0, BuildingBlock: BETDAH_clean_linker_0, # of connection points: 3
#     Node 6, Type 0, BuildingBlock: BETDAH_clean_linker_0, # of connection points: 3
#     Node 7, Type 0, BuildingBlock: BETDAH_clean_linker_0, # of connection points: 3
#     Node 8, Type 1, BuildingBlock: PAMTOO_clean_sbu_0, # of connection points: 6
#     Node 9, Type 1, BuildingBlock: PAMTOO_clean_sbu_0, # of connection points: 6
#     Node 10, Type 1, BuildingBlock: PAMTOO_clean_sbu_0, # of connection points: 6
#     Node 11, Type 1, BuildingBlock: PAMTOO_clean_sbu_0, # of connection points: 6
#     Edge 12, Type (0, 1), BuildingBlock: OJICUG_clean_linker_0, # of connection points: 2
#     Edge 13, Type (0, 1), BuildingBlock: OJICUG_clean_linker_0, # of connection points: 2
#     Edge 14, Type (0, 1), BuildingBlock: OJICUG_clean_linker_0, # of connection points: 2
#     Edge 15, Type (0, 1), BuildingBlock: OJICUG_clean_linker_0, # of connection points: 2
#     Edge 16, Type (0, 1), BuildingBlock: OJICUG_clean_linker_0, # of connection points: 2
#     Edge 17, Type (0, 1), BuildingBlock: OJICUG_clean_linker_0, # of connection points: 2
#     Edge 18, Type (0, 1), BuildingBlock: OJICUG_clean_linker_0, # of connection points: 2
#     Edge 19, Type (0, 1), BuildingBlock: OJICUG_clean_linker_0, # of connection points: 2
#     Edge 20, Type (0, 1), BuildingBlock: OJICUG_clean_linker_0, # of connection points: 2
#     Edge 21, Type (0, 1), BuildingBlock: OJICUG_clean_linker_0, # of connection points: 2
#     Edge 22, Type (0, 1), BuildingBlock: OJICUG_clean_linker_0, # of connection points: 2
#     Edge 23, Type (0, 1), BuildingBlock: OJICUG_clean_linker_0, # of connection points: 2
#     Edge 24, Type (0, 1), BuildingBlock: OJICUG_clean_linker_0, # of connection points: 2
#     Edge 25, Type (0, 1), BuildingBlock: OJICUG_clean_linker_0, # of connection points: 2
#     Edge 26, Type (0, 1), BuildingBlock: OJICUG_clean_linker_0, # of connection points: 2
#     Edge 27, Type (0, 1), BuildingBlock: OJICUG_clean_linker_0, # of connection points: 2
#     Edge 28, Type (0, 1), BuildingBlock: OJICUG_clean_linker_0, # of connection points: 2
#     Edge 29, Type (0, 1), BuildingBlock: OJICUG_clean_linker_0, # of connection points: 2
#     Edge 30, Type (0, 1), BuildingBlock: OJICUG_clean_linker_0, # of connection points: 2
#     Edge 31, Type (0, 1), BuildingBlock: OJICUG_clean_linker_0, # of connection points: 2
#     Edge 32, Type (0, 1), BuildingBlock: OJICUG_clean_linker_0, # of connection points: 2
#     Edge 33, Type (0, 1), BuildingBlock: OJICUG_clean_linker_0, # of connection points: 2
#     Edge 34, Type (0, 1), BuildingBlock: OJICUG_clean_linker_0, # of connection points: 2
#     Edge 35, Type (0, 1), BuildingBlock: OJICUG_clean_linker_0, # of connection points: 2
# Relax obj value: 0.287
# Max RMSD: 0.250
# Mean RMSD: 0.133
data_MOF--net-zzz--node1-PAMTOO_clean_sbu_0--node2-BETDAH_clean_linker_0--edge1-OJICUG_clean_linker_0
_symmetry_space_group_name_H-M    P1
_symmetry_Int_Tables_number       1
_symmetry_cell_setting            triclinic
loop_
_symmetry_equiv_pos_as_xyz
'x, y, z'
_cell_length_a     43.30463
_cell_length_b     35.695089
_cell_length_c     11.67124
_cell_angle_alpha  93.385747
_cell_angle_beta   77.076904
_cell_angle_gamma 85.254533
loop_
_atom_site_label
_atom_site_type_symbol
_atom_site_fract_x
_atom_site_fract_y
_atom_site_fract_z
_atom_type_partial_charge
H0 H 0.86549 0.43245 0.67065 0.0
H1 H 0.78199 0.45864 0.53926 0.0
H2 H 0.80605 0.53552 0.79734 0.0
C3 C 0.84358 0.45016 0.67532 0.0
C4 C 0.83769 0.48416 0.7466 0.0
C5 C 0.82393 0.44114 0.59886 0.0
C6 C 0.79678 0.4655 0.59942 0.0
C7 C 0.7898 0.49942 0.67206 0.0
C8 C 0.81058 0.50876 0.74473 0.0
N9 N 0.76315 0.52538 0.66901 0.0
C10 C 0.7439 0.52181 0.58806 0.0
H11 H 0.067 0.79772 0.56009 0.0
H12 H 0.03665 0.69747 0.41615 0.0
H13 H 0.98032 0.75691 0.73776 0.0
C14 C 0.05121 0.77547 0.56846 0.0
C15 C 1.02407 0.78 0.66055 0.0
C16 C 0.05562 0.74644 0.47816 0.0
C17 C 0.03355 0.71949 0.48681 0.0
C18 C 1.00669 0.7224 0.58247 0.0
C19 C 1.0018 0.75322 0.668 0.0
N20 N 0.98328 0.69628 0.59041 0.0
C21 C 0.98382 0.66792 0.50238 0.0
H22 H 0.6963 0.04424 0.44514 0.0
H23 H 0.79562 0.04082 0.27635 0.0
H24 H 0.76419 0.96995 0.5605 0.0
C25 C 0.72085 0.03348 0.43967 0.0
C26 C 0.72681 1.0059 0.51344 0.0
C27 C 0.74529 0.04635 0.35549 0.0
C28 C 0.77701 0.03139 0.34369 0.0
C29 C 0.78442 1.00407 0.41854 0.0
C30 C 0.75896 0.9913 0.50358 0.0
N31 N 0.81671 0.98856 0.40979 0.0
C32 C 0.84473 0.99733 0.33167 0.0
H33 H 0.50896 0.64845 0.34545 0.0
H34 H 0.52127 0.75308 0.18617 0.0
H35 H 0.5429 0.73873 0.52689 0.0
C36 C 0.51468 0.67748 0.3513 0.0
C37 C 0.52557 0.69073 0.44809 0.0
C38 C 0.51316 0.69941 0.25741 0.0
C39 C 0.52188 0.73648 0.26048 0.0
C40 C 0.53198 0.75141 0.35945 0.0
C41 C 0.53444 0.72792 0.45203 0.0
N42 N 0.54043 0.78924 0.36828 0.0
C43 C 0.53808 0.81683 0.2889 0.0
H44 H 0.16893 0.58072 0.14991 0.0
H45 H 0.25298 0.55477 0.27774 0.0
H46 H 0.22754 0.47695 0.02487 0.0
C47 C 0.19076 0.56282 0.14501 0.0
C48 C 0.19625 0.52865 0.07466 0.0
C49 C 0.21078 0.57213 0.21955 0.0
C50 C 0.23783 0.54765 0.21903 0.0
C51 C 0.2443 0.51334 0.14826 0.0
C52 C 0.22322 0.50382 0.07681 0.0
N53 N 0.27084 0.48732 0.15197 0.0
C54 C 0.29038 0.49177 0.23149 0.0
H55 H 0.98577 0.21362 0.23059 0.0
H56 H 1.00195 0.3213 0.37728 0.0
H57 H 0.06757 0.26665 0.06682 0.0
C58 C 0.99876 0.23843 0.22465 0.0
C59 C 0.02684 0.23713 0.13782 0.0
C60 C 0.98975 0.26833 0.31266 0.0
C61 C 1.00844 0.29876 0.30773 0.0
C62 C 0.03616 0.299 0.21697 0.0
C63 C 0.0454 0.26776 0.13266 0.0
N64 N 0.05615 0.32895 0.21309 0.0
C65 C 0.05262 0.35709 0.30458 0.0
H66 H 0.36622 0.96192 0.30328 0.0
H67 H 0.26704 0.96544 0.47454 0.0
H68 H 0.29852 0.03959 0.19989 0.0
C69 C 0.34167 0.97297 0.31033 0.0
C70 C 0.33576 1.00189 0.24087 0.0
C71 C 0.3173 0.95952 0.39354 0.0
C72 C 0.28563 0.9752 0.40788 0.0
C73 C 0.27826 1.00373 0.33665 0.0
C74 C 0.30369 0.01707 0.25304 0.0
N75 N 0.24606 0.02004 0.34801 0.0
C76 C 0.2182 0.01188 0.42822 0.0
H77 H 0.55083 0.36617 0.3636 0.0
H78 H 0.55119 0.26268 0.53545 0.0
H79 H 0.50398 0.27518 0.24808 0.0
C80 C 0.54509 0.33721 0.36987 0.0
C81 C 0.52673 0.32333 0.29648 0.0
C82 C 0.55428 0.31586 0.45564 0.0
C83 C 0.54504 0.27894 0.46689 0.0
C84 C 0.52712 0.26374 0.39094 0.0
C85 C 0.51797 0.28634 0.30595 0.0
N86 N 0.51719 0.22654 0.39821 0.0
C87 C 0.52317 0.20001 0.47654 0.0
Dy88 Dy 1.0143 0.02136 0.78717 0.0
Dy89 Dy 0.04996 0.99518 0.98848 0.0
C90 C 0.09074 0.00867 0.73307 0.0
O91 O 1.00646 0.96027 0.794 0.0
O92 O 0.04722 0.94229 0.88044 0.0
O93 O 1.015 0.03867 0.61238 0.0
O94 O 0.97008 0.03637 0.73608 0.0
O95 O 0.99789 0.98731 0.06154 0.0
O96 O 0.9773 0.0315 0.95903 0.0
O97 O 0.04071 0.05767 0.03032 0.0
O98 O 0.03144 0.07422 0.85264 0.0
O99 O 0.05333 0.98424 0.16605 0.0
O100 O 0.09428 0.97098 0.01991 0.0
C101 C 1.02473 0.93386 0.82729 0.0
O102 O 0.06559 1.00174 0.69169 0.0
O103 O 0.0872 0.01633 0.8469 0.0
C104 C 0.97518 0.08927 0.62604 0.0
C105 C 0.95717 0.16638 0.6091 0.0
C106 C 0.98809 0.15405 0.61994 0.0
C107 C 0.99686 0.11617 0.62905 0.0
C108 C 0.94397 0.10127 0.61957 0.0
C109 C 0.93498 0.1395 0.61147 0.0
C110 C 0.98454 0.04934 0.6387 0.0
C111 C 0.97326 0.00889 0.04507 0.0
C112 C 0.03737 0.0832 0.95586 0.0
C113 C 0.08507 0.9262 0.15682 0.0
C114 C 0.09314 0.84801 0.18237 0.0
C115 C 0.06296 0.86625 0.18257 0.0
C116 C 0.05906 0.90469 0.1689 0.0
C117 C 0.1153 0.90836 0.15518 0.0
C118 C 0.11934 0.86959 0.16768 0.0
C119 C 0.08153 0.96574 0.129 0.0
H120 H 1.00633 0.17323 0.61567 0.0
H121 H 1.02092 0.10795 0.63669 0.0
H122 H 0.92661 0.08105 0.62011 0.0
H123 H 0.9109 0.1478 0.60453 0.0
H124 H 0.04191 0.85119 0.19697 0.0
H125 H 0.03561 0.91753 0.16723 0.0
H126 H 0.13585 0.92433 0.1425 0.0
H127 H 0.14293 0.85663 0.16638 0.0
Dy128 Dy 0.52418 0.98077 0.76986 0.0
Dy129 Dy 0.5373 0.03571 0.98172 0.0
C130 C 0.52643 0.06887 0.74741 0.0
O131 O 0.57806 0.97254 0.73416 0.0
O132 O 0.58543 0.02226 0.8563 0.0
O133 O 0.51131 0.97503 0.60198 0.0
O134 O 0.51753 0.92559 0.69561 0.0
O135 O 0.54781 0.97734 0.0368 0.0
O136 O 0.52096 0.94464 0.92212 0.0
O137 O 0.48526 0.02819 0.04748 0.0
O138 O 0.47509 1.00551 0.87265 0.0
O139 O 0.54229 0.05135 0.1583 0.0
O140 O 0.55109 0.0907 0.02354 0.0
C141 C 0.59699 0.99501 0.7727 0.0
O142 O 0.53711 0.03543 0.69377 0.0
O143 O 0.51637 0.07227 0.86246 0.0
C144 C 0.47298 0.93161 0.61073 0.0
C145 C 0.40987 0.91747 0.60598 0.0
C146 C 0.41675 0.95313 0.6461 0.0
C147 C 0.44772 0.96 0.64894 0.0
C148 C 0.46641 0.89551 0.57473 0.0
C149 C 0.4351 0.88843 0.57264 0.0
C150 C 0.5057 0.93993 0.61275 0.0
C151 C 0.53516 0.94658 0.0103 0.0
C152 C 0.46501 0.01834 0.98449 0.0
C153 C 0.58734 0.08542 0.14289 0.0
C154 C 0.65143 0.0916 0.15094 0.0
C155 C 0.64113 0.0565 0.12307 0.0
C156 C 0.60959 0.05352 0.11837 0.0
C157 C 0.59734 0.12067 0.16892 0.0
C158 C 0.62913 0.12376 0.17324 0.0
C159 C 0.55496 0.0822 0.12658 0.0
H160 H 0.39856 0.97672 0.66978 0.0
H161 H 0.45193 0.98805 0.67852 0.0
H162 H 0.4855 0.873 0.54672 0.0
H163 H 0.43085 0.8605 0.54225 0.0
H164 H 0.65714 0.03084 0.10839 0.0
H165 H 0.60261 0.02613 0.09516 0.0
H166 H 0.58064 0.14578 0.18501 0.0
H167 H 0.63618 0.15124 0.1946 0.0
Dy168 Dy 0.56437 0.51108 0.89743 0.0
Dy169 Dy 0.49028 0.4999 0.84673 0.0
C170 C 0.51739 0.45269 0.03662 0.0
O171 O 0.57187 0.46933 0.74002 0.0
O172 O 0.52272 0.44746 0.79079 0.0
O173 O 0.61212 0.48902 0.90553 0.0
O174 O 0.59532 0.5472 0.96318 0.0
O175 O 0.51383 0.53661 0.70954 0.0
O176 O 0.5573 0.55545 0.77529 0.0
O177 O 0.4876 0.55794 0.93172 0.0
O178 O 0.52529 0.54271 0.03475 0.0
O179 O 0.46692 0.47368 0.72442 0.0
O180 O 0.43823 0.50583 0.88226 0.0
C181 C 0.55307 0.44223 0.73973 0.0
O182 O 0.54619 0.46299 0.9978 0.0
O183 O 0.49174 0.4697 0.01079 0.0
C184 C 0.63367 0.51767 0.05694 0.0
C185 C 0.66745 0.51667 0.23987 0.0
C186 C 0.63755 0.53773 0.25663 0.0
C187 C 0.62086 0.53821 0.16638 0.0
C188 C 0.6632 0.49617 0.04085 0.0
C189 C 0.67983 0.49557 0.13103 0.0
C190 C 0.61809 0.52032 0.95583 0.0
C191 C 0.53603 0.55983 0.71109 0.0
C192 C 0.50407 0.56722 0.00851 0.0
C193 C 0.41505 0.49772 0.71242 0.0
C194 C 0.37188 0.50285 0.56138 0.0
C195 C 0.40383 0.51023 0.52147 0.0
C196 C 0.42515 0.50769 0.59599 0.0
C197 C 0.38287 0.49234 0.75434 0.0
C198 C 0.36153 0.49496 0.68005 0.0
C199 C 0.43829 0.48634 0.78341 0.0
H200 H 0.62703 0.55394 0.33958 0.0
H201 H 0.59815 0.55511 0.18187 0.0
H202 H 0.67382 0.4804 0.95714 0.0
H203 H 0.70291 0.47943 0.11392 0.0
H204 H 0.41286 0.51613 0.43078 0.0
H205 H 0.44988 0.51174 0.56062 0.0
H206 H 0.37448 0.48436 0.84329 0.0
H207 H 0.33703 0.48987 0.71503 0.0
Dy208 Dy 1.01984 0.54706 0.83718 0.0
Dy209 Dy 1.0129 0.47357 0.99393 0.0
C210 C 0.03018 0.46335 0.71292 0.0
O211 O 0.97235 0.52961 0.82387 0.0
O212 O 0.96285 0.49092 0.97716 0.0
O213 O 0.02572 0.5756 0.67639 0.0
O214 O 1.02112 0.60741 0.84379 0.0
O215 O 1.01513 0.52411 0.11354 0.0
O216 O 0.99006 0.56547 0.01657 0.0
O217 O 0.0656 0.47724 0.94433 0.0
O218 O 0.06513 0.53905 0.89981 0.0
O219 O 0.9986 0.45178 0.16369 0.0
O220 O 1.01996 0.4135 0.0102 0.0
C221 C 0.95329 0.50979 0.89518 0.0
O222 O 0.04085 0.49687 0.70924 0.0
O223 O 1.01304 0.45264 0.81064 0.0
C224 C 0.05672 0.62671 0.67867 0.0
C225 C 0.11684 0.64614 0.56287 0.0
C226 C 0.1098 0.6428 0.68523 0.0
C227 C 0.08005 0.63285 0.74258 0.0
C228 C 0.06245 0.63442 0.56012 0.0
C229 C 0.09212 0.64425 0.50273 0.0
C230 C 0.02828 0.60802 0.7295 0.0
C231 C 0.99903 0.5567 0.11218 0.0
C232 C 0.08 0.50807 0.92525 0.0
C233 C 0.97904 0.39316 0.15742 0.0
C234 C 0.91928 0.36948 0.2576 0.0
C235 C 0.94291 0.37091 0.32299 0.0
C236 C 0.97228 0.38317 0.27364 0.0
C237 C 0.95727 0.38719 0.08688 0.0
C238 C 0.92763 0.37507 0.13649 0.0
C239 C 1.00514 0.41671 0.12118 0.0
H240 H 0.12811 0.64467 0.73457 0.0
H241 H 0.0762 0.62748 0.83484 0.0
H242 H 0.04486 0.63002 0.50929 0.0
H243 H 0.09645 0.64638 0.40843 0.0
H244 H 0.93764 0.36718 0.41651 0.0
H245 H 0.98844 0.38834 0.33003 0.0
H246 H 0.96199 0.39498 0.99672 0.0
H247 H 0.9102 0.37372 0.08312 0.0
C248 C 0.16029 1.00125 0.45663 0.0
C249 C 0.18648 0.00862 0.50491 0.0
H250 H 0.10993 0.99538 0.48859 0.0
C251 C 0.18093 0.0155 0.62791 0.0
H252 H 0.16361 0.99618 0.36203 0.0
C253 C 0.15014 0.01524 0.70059 0.0
C254 C 0.12366 0.00822 0.65296 0.0
H255 H 0.20039 0.02161 0.66817 0.0
H256 H 0.14711 0.0209 0.79483 0.0
C257 C 0.12938 1.00096 0.52941 0.0
C258 C 0.51519 0.17122 0.66956 0.0
C259 C 0.52597 0.16773 0.54634 0.0
H260 H 0.50678 0.143 0.82966 0.0
C261 C 0.53711 0.13177 0.48959 0.0
H262 H 0.50614 0.19857 0.71539 0.0
C263 C 0.53734 0.09983 0.55452 0.0
C264 C 0.52627 0.103 0.67816 0.0
H265 H 0.54516 0.12822 0.39447 0.0
H266 H 0.54598 0.07258 0.5074 0.0
C267 C 0.5154 0.13926 0.73478 0.0
C268 C 0.33158 0.52323 0.30801 0.0
C269 C 0.31036 0.49536 0.31562 0.0
H270 H 0.36729 0.54799 0.3803 0.0
C271 C 0.30881 0.47061 0.40511 0.0
H272 H 0.33306 0.54272 0.23969 0.0
C273 C 0.3284 0.47341 0.48541 0.0
C274 C 0.35003 0.50112 0.47818 0.0
H275 H 0.29265 0.44881 0.41235 0.0
H276 H 0.32708 0.45321 0.55157 0.0
C277 C 0.35125 0.52608 0.38833 0.0
C278 C 0.05489 0.42167 0.39298 0.0
C279 C 0.04787 0.38422 0.40571 0.0
H280 H 0.05504 0.47641 0.48055 0.0
C281 C 0.03559 0.37296 0.51824 0.0
H282 H 0.0643 0.43089 0.30633 0.0
C283 C 0.0301 0.39873 0.6171 0.0
C284 C 0.03698 0.43644 0.60587 0.0
H285 H 0.03008 0.34416 0.52996 0.0
H286 H 1.02047 0.38892 0.70267 0.0
C287 C 0.04962 0.44762 0.49251 0.0
C288 C 0.88222 0.02574 0.16917 0.0
C289 C 0.877 1.00131 0.26037 0.0
H290 H 0.91613 0.0475 0.03099 0.0
C291 C 0.90372 0.98005 0.28192 0.0
H292 H 0.86227 0.04253 0.14995 0.0
C293 C 0.93474 0.98282 0.21386 0.0
C294 C 0.94018 1.00705 0.12165 0.0
H295 H 0.90063 0.96094 0.35147 0.0
H296 H 0.95447 0.96565 0.23317 0.0
C297 C 0.91328 0.02858 0.10098 0.0
C298 C 0.52631 0.84721 0.11395 0.0
C299 C 0.53735 0.84927 0.21808 0.0
H300 H 0.51698 0.87595 0.96708 0.0
C301 C 0.54782 0.88338 0.25386 0.0
H302 H 0.51808 0.82129 0.08434 0.0
C303 C 0.54739 0.91483 0.18661 0.0
C304 C 0.53629 0.91303 0.08194 0.0
H305 H 0.55634 0.88578 0.33424 0.0
H306 H 0.55555 0.94064 0.21723 0.0
C307 C 0.52571 0.87867 0.04688 0.0
C308 C 0.70599 0.55265 0.48406 0.0
C309 C 0.72386 0.52004 0.50353 0.0
H310 H 0.67434 0.57733 0.38563 0.0
C311 C 0.7225 0.48605 0.43898 0.0
H312 H 0.70673 0.57923 0.53283 0.0
C313 C 0.70391 0.48481 0.35478 0.0
C314 C 0.68617 0.51756 0.33354 0.0
H315 H 0.73591 0.46043 0.45298 0.0
H316 H 0.70334 0.4581 0.30659 0.0
C317 C 0.68729 0.55145 0.40021 0.0
C318 C 0.98087 0.65017 0.29816 0.0
C319 C 0.98562 0.63951 0.40695 0.0
H320 H 0.981 0.63223 0.11966 0.0
C321 C 0.9934 0.6014 0.42066 0.0
H322 H 0.97492 0.67954 0.28596 0.0
C323 C 0.99735 0.57429 0.3254 0.0
C324 C 0.99305 0.58486 0.21534 0.0
H325 H 0.99693 0.59265 0.50439 0.0
H326 H 1.00396 0.54512 0.33778 0.0
C327 C 0.98433 0.62306 0.20329 0.0
C328 C 0.97662 0.26212 0.52774 0.0
C329 C 0.96634 0.26159 0.42181 0.0
H330 H 0.97986 0.23224 0.67847 0.0
C331 C 0.94107 0.24019 0.41191 0.0
H332 H 0.99504 0.2795 0.54139 0.0
C333 C 0.93393 0.21129 0.48622 0.0
C334 C 0.9507 0.2054 0.57494 0.0
H335 H 0.93149 0.24067 0.33375 0.0
H336 H 0.919 0.19071 0.46231 0.0
C337 C 0.96842 0.23429 0.60519 0.0
C338 C 0.32605 0.94734 0.59044 0.0
C339 C 0.32756 0.93327 0.47445 0.0
H340 H 0.35094 0.95136 0.72877 0.0
C341 C 0.35008 0.90263 0.42483 0.0
H342 H 0.30851 0.97039 0.63204 0.0
C343 C 0.37552 0.89327 0.47659 0.0
C344 C 0.37785 0.91343 0.58113 0.0
H345 H 0.3513 0.89077 0.3361 0.0
H346 H 0.39518 0.87415 0.42592 0.0
C347 C 0.35093 0.93703 0.64436 0.0
C348 C 0.58901 0.36355 0.50881 0.0
C349 C 0.56739 0.33659 0.54506 0.0
H350 H 0.60089 0.41989 0.54208 0.0
C351 C 0.54956 0.3401 0.6616 0.0
H352 H 0.60359 0.36102 0.41971 0.0
C353 C 0.54816 0.37356 0.73114 0.0
C354 C 0.56476 0.40376 0.68552 0.0
H355 H 0.53303 0.31976 0.69296 0.0
H356 H 0.53119 0.3773 0.81559 0.0
C357 C 0.58735 0.3974 0.57826 0.0
C358 C 0.18245 0.63591 0.29289 0.0
C359 C 0.19877 0.60243 0.31535 0.0
H360 H 0.14353 0.67825 0.35905 0.0
C361 C 0.19527 0.59314 0.43243 0.0
H362 H 0.18542 0.64429 0.20366 0.0
C363 C 0.17115 0.61227 0.52098 0.0
C364 C 0.15031 0.64091 0.49319 0.0
H365 H 0.20779 0.56778 0.45304 0.0
H366 H 0.16614 0.60069 0.60613 0.0
C367 C 0.1584 0.65525 0.38183 0.0
C368 C 0.10579 0.76868 0.36664 0.0
C369 C 0.07765 0.75185 0.36439 0.0
H370 H 0.13215 0.81497 0.31318 0.0
C371 C 0.0645 0.75564 0.26557 0.0
H372 H 0.11737 0.76477 0.43894 0.0
C373 C 0.0737 0.78366 0.19006 0.0
C374 C 0.09562 0.80826 0.21452 0.0
H375 H 0.04363 0.74185 0.25771 0.0
H376 H 0.06045 0.78935 0.12344 0.0
C377 C 0.1142 0.79774 0.29424 0.0
C378 C 0.7346 0.05592 0.16042 0.0
C379 C 0.73516 0.07176 0.27261 0.0
H380 H 0.70735 0.05112 0.02937 0.0
C381 C 0.71419 0.10386 0.32062 0.0
H382 H 0.75079 0.03146 0.12071 0.0
C383 C 0.68839 0.11402 0.27165 0.0
C384 C 0.68404 0.09287 0.17197 0.0
H385 H 0.71445 0.11678 0.40677 0.0
H386 H 0.66993 0.13489 0.32114 0.0
C387 C 0.7092 0.06666 0.10975 0.0
C388 C 0.53417 0.6599 0.07461 0.0
C389 C 0.50729 0.67893 0.15243 0.0
H390 H 0.55422 0.60844 0.97202 0.0
C391 C 0.47765 0.6643 0.1622 0.0
H392 H 0.55732 0.6703 0.06679 0.0
C393 C 0.47592 0.62857 0.10877 0.0
C394 C 0.50387 0.60724 0.04644 0.0
H395 H 0.45669 0.67818 0.22344 0.0
H396 H 0.45341 0.61637 0.12499 0.0
C397 C 0.53258 0.62399 0.02363 0.0
C398 C 0.84053 0.42174 0.38486 0.0
C399 C 0.83644 0.41153 0.50123 0.0
H400 H 0.87033 0.41528 0.21228 0.0
C401 C 0.8524 0.37761 0.52216 0.0
H402 H 0.82827 0.44746 0.36541 0.0
C403 C 0.87652 0.3585 0.43287 0.0
C404 C 0.88535 0.3738 0.32317 0.0
H405 H 0.84899 0.36853 0.61069 0.0
H406 H 0.89103 0.33502 0.45488 0.0
C407 C 0.86485 0.40297 0.29618 0.0
C408 C 0.05251 0.17182 0.12317 0.0
C409 C 0.03797 0.20036 0.06937 0.0
H410 H 0.06345 0.11248 0.13072 0.0
C411 C 0.02587 0.19039 0.97109 0.0
H412 H 0.06113 0.17876 0.20137 0.0
C413 C 0.02707 0.15238 0.93057 0.0
C414 C 0.0397 0.12357 0.98948 0.0
H415 H 1.01361 0.21175 0.93062 0.0
H416 H 1.01641 0.14554 0.8574 0.0
C417 C 0.05328 0.13384 0.08402 0.0
C418 C 0.38599 0.03423 0.21826 0.0
C419 C 0.36475 0.01578 0.16408 0.0
H420 H 0.43349 0.04961 0.20609 0.0
C421 C 0.37616 1.00114 0.04598 0.0
H422 H 0.37848 0.04475 0.31018 0.0
C423 C 0.40808 1.0036 0.98587 0.0
C424 C 0.42983 0.02026 0.04245 0.0
H425 H 0.36102 0.98555 0.00251 0.0
H426 H 0.41611 0.99059 0.89687 0.0
C427 C 0.41786 0.03648 0.15873 0.0
C428 C 0.49184 0.37646 0.2452 0.0
C429 C 0.51836 0.34919 0.21064 0.0
H430 H 0.47023 0.43081 0.21674 0.0
C431 C 0.54237 0.35485 0.11264 0.0
H432 H 0.47351 0.37338 0.32317 0.0
C433 C 0.5412 0.38808 0.05575 0.0
C434 C 0.51571 0.41646 0.09378 0.0
H435 H 0.56347 0.33495 0.08624 0.0
H436 H 0.561 0.39207 0.98371 0.0
C437 C 0.49024 0.40962 0.18586 0.0
C438 C 0.15822 0.54558 0.94784 0.0
C439 C 0.17118 0.51859 0.0117 0.0
H440 H 0.11974 0.56339 0.86993 0.0
C441 C 0.15599 0.48552 0.03314 0.0
H442 H 0.16939 0.57132 0.92953 0.0
C443 C 0.12721 0.48095 0.9993 0.0
C444 C 0.11301 0.5094 0.9434 0.0
H445 H 0.16512 0.46441 0.08328 0.0
H446 H 0.11525 0.4561 0.02291 0.0
C447 C 0.12957 0.54109 0.91427 0.0
C448 C 0.99583 0.8446 0.70967 0.0
C449 C 1.01786 0.81657 0.7328 0.0
H450 H 0.98088 0.90375 0.71982 0.0
C451 C 0.03992 0.82697 0.79763 0.0
H452 H 0.97913 0.83741 0.65721 0.0
C453 C 0.04124 0.86489 0.83236 0.0
C454 C 1.02079 0.89339 0.80156 0.0
H455 H 0.05757 0.80597 0.81443 0.0
H456 H 0.05934 0.87191 0.87855 0.0
C457 C 0.99728 0.88266 0.74364 0.0
C458 C 0.6778 0.97052 0.55109 0.0
C459 C 0.6979 0.99384 0.59582 0.0
H460 H 0.63088 0.95211 0.57042 0.0
C461 C 0.68509 0.01469 0.70473 0.0
H462 H 0.68635 0.95518 0.46539 0.0
C463 C 0.65301 0.01355 0.7642 0.0
C464 C 0.63237 0.99171 0.71659 0.0
H465 H 0.69929 0.034 0.74005 0.0
H466 H 0.64402 0.03129 0.84534 0.0
C467 C 0.6457 0.96921 0.6108 0.0
C468 C 0.55759 0.64921 0.55692 0.0
C469 C 0.52792 0.66331 0.53837 0.0
H470 H 0.58372 0.60513 0.62526 0.0
C471 C 0.50119 0.64411 0.58247 0.0
H472 H 0.57873 0.66286 0.52178 0.0
C473 C 0.50424 0.61046 0.63607 0.0
C474 C 0.53402 0.59521 0.65001 0.0
H475 H 0.47805 0.65402 0.56877 0.0
H476 H 0.48308 0.59626 0.66628 0.0
C477 C 0.56053 0.6157 0.61369 0.0
C478 C 0.87544 0.46992 0.87776 0.0
C479 C 0.86287 0.49513 0.8075 0.0
H480 H 0.91341 0.45503 0.96254 0.0
C481 C 0.87844 0.52743 0.77808 0.0
H482 H 0.86411 0.4446 0.90098 0.0
C483 C 0.90706 0.53304 0.81119 0.0
C484 C 0.92058 0.50678 0.87615 0.0
H485 H 0.86967 0.54705 0.72262 0.0
H486 H 0.91922 0.5573 0.782 0.0
C487 C 0.90377 0.47586 0.91273 0.0
loop_
_geom_bond_atom_site_label_1
_geom_bond_atom_site_label_2
_geom_bond_distance
_geom_bond_site_symmetry_2
_ccdc_geom_bond_type
H0 C3 0.929 . S
H1 C6 0.929 . S
H2 C8 0.930 . S
C3 H0 0.929 . S
C3 C4 1.398 . S
C3 C5 1.396 . S
C4 C3 1.398 . S
C4 C8 1.407 . S
C5 C3 1.396 . S
C5 C6 1.394 . S
C6 H1 0.929 . S
C6 C5 1.394 . S
C6 C7 1.382 . S
C7 C6 1.382 . S
C7 C8 1.392 . S
C7 N9 1.420 . S
C8 H2 0.930 . S
C8 C4 1.407 . S
C8 C7 1.392 . S
N9 C7 1.420 . S
N9 C10 1.244 . S
C10 N9 1.244 . S
H11 C14 0.929 . S
H12 C17 0.929 . S
H13 C19 0.930 . S
C14 H11 0.929 . S
C14 C15 1.391 1_655 S
C14 C16 1.398 1_655 S
C15 C14 1.391 1_455 S
C15 C19 1.410 . S
C16 C14 1.398 1_455 S
C16 C17 1.395 . S
C17 H12 0.929 . S
C17 C16 1.395 . S
C17 C18 1.382 . S
C18 C17 1.382 . S
C18 C19 1.392 . S
C18 N20 1.420 . S
C19 H13 0.930 . S
C19 C15 1.410 . S
C19 C18 1.392 . S
N20 C18 1.420 . S
N20 C21 1.226 1_455 S
C21 N20 1.226 1_655 S
H22 C25 0.929 . S
H23 C28 0.929 . S
H24 C30 0.930 . S
C25 H22 0.929 . S
C25 C26 1.398 1_565 S
C25 C27 1.392 1_565 S
C26 C25 1.398 1_545 S
C26 C30 1.407 . S
C27 C25 1.392 1_545 S
C27 C28 1.399 . S
C28 H23 0.929 . S
C28 C27 1.399 . S
C28 C29 1.382 . S
C29 C28 1.382 . S
C29 C30 1.392 . S
C29 N31 1.420 . S
C30 H24 0.930 . S
C30 C26 1.407 . S
C30 C29 1.392 . S
N31 C29 1.420 . S
N31 C32 1.235 1_545 S
C32 N31 1.235 1_565 S
H33 C36 0.929 . S
H34 C39 0.929 . S
H35 C41 0.930 . S
C36 H33 0.929 . S
C36 C37 1.398 . S
C36 C38 1.396 . S
C37 C36 1.398 . S
C37 C41 1.407 . S
C38 C36 1.396 . S
C38 C39 1.394 . S
C39 H34 0.929 . S
C39 C38 1.394 . S
C39 C40 1.382 . S
C40 C39 1.382 . S
C40 C41 1.392 . S
C40 N42 1.420 . S
C41 H35 0.930 . S
C41 C37 1.407 . S
C41 C40 1.392 . S
N42 C40 1.420 . S
N42 C43 1.244 . S
C43 N42 1.244 . S
H44 C47 0.929 . S
H45 C50 0.929 . S
H46 C52 0.930 . S
C47 H44 0.929 . S
C47 C48 1.398 . S
C47 C49 1.396 1_556 S
C48 C47 1.398 . S
C48 C52 1.407 . S
C49 C47 1.396 1_554 S
C49 C50 1.394 . S
C50 H45 0.929 . S
C50 C49 1.394 . S
C50 C51 1.382 1_554 S
C51 C50 1.382 1_556 S
C51 C52 1.392 . S
C51 N53 1.420 . S
C52 H46 0.930 . S
C52 C48 1.407 . S
C52 C51 1.392 . S
N53 C51 1.420 . S
N53 C54 1.244 1_556 S
C54 N53 1.244 1_554 S
H55 C58 0.929 . S
H56 C61 0.929 . S
H57 C63 0.930 1_556 S
C58 H55 0.929 . S
C58 C59 1.398 1_655 S
C58 C60 1.388 1_655 S
C59 C58 1.398 1_455 S
C59 C63 1.407 . S
C60 C58 1.388 1_455 S
C60 C61 1.401 . S
C61 H56 0.929 . S
C61 C60 1.401 . S
C61 C62 1.382 . S
C62 C61 1.382 . S
C62 C63 1.392 . S
C62 N64 1.420 . S
C63 H57 0.930 1_554 S
C63 C59 1.407 . S
C63 C62 1.392 . S
N64 C62 1.420 . S
N64 C65 1.240 1_455 S
C65 N64 1.240 1_655 S
H66 C69 0.929 . S
H67 C72 0.929 . S
H68 C74 0.930 . S
C69 H66 0.929 . S
C69 C70 1.398 1_565 S
C69 C71 1.397 1_565 S
C70 C69 1.398 1_545 S
C70 C74 1.407 . S
C71 C69 1.397 1_545 S
C71 C72 1.396 . S
C72 H67 0.929 . S
C72 C71 1.396 . S
C72 C73 1.382 . S
C73 C72 1.382 . S
C73 C74 1.392 . S
C73 N75 1.420 . S
C74 H68 0.930 . S
C74 C70 1.407 . S
C74 C73 1.392 . S
N75 C73 1.420 . S
N75 C76 1.233 1_545 S
C76 N75 1.233 1_565 S
H77 C80 0.929 . S
H78 C83 0.929 . S
H79 C85 0.930 . S
C80 H77 0.929 . S
C80 C81 1.398 . S
C80 C82 1.396 . S
C81 C80 1.398 . S
C81 C85 1.407 . S
C82 C80 1.396 . S
C82 C83 1.394 . S
C83 H78 0.929 . S
C83 C82 1.394 . S
C83 C84 1.382 . S
C84 C83 1.382 . S
C84 C85 1.392 . S
C84 N86 1.420 . S
C85 H79 0.930 . S
C85 C81 1.407 . S
C85 C84 1.392 . S
N86 C84 1.420 . S
N86 C87 1.244 . S
C87 N86 1.244 . S
Dy88 O91 2.307 1_545 S
Dy88 O93 2.395 1_655 S
Dy88 O94 2.379 . S
Dy88 O96 2.339 . S
Dy88 O98 2.298 . S
Dy88 O102 2.275 1_655 S
Dy88 C110 2.738 . S
Dy89 O92 2.298 1_554 S
Dy89 O95 2.275 1_454 S
Dy89 O97 2.307 1_565 S
Dy89 O99 2.395 1_455 S
Dy89 O100 2.379 . S
Dy89 O103 2.339 1_554 S
Dy89 C119 2.738 . S
C90 O102 1.254 1_565 S
C90 O103 1.257 . S
O91 Dy88 2.307 1_565 S
O91 C101 1.266 . S
O92 Dy89 2.298 1_556 S
O92 C101 1.236 1_455 S
O93 Dy88 2.395 1_455 S
O93 C110 1.255 1_455 S
O94 Dy88 2.379 . S
O94 C110 1.249 . S
O95 Dy89 2.275 1_656 S
O95 C111 1.254 1_565 S
O96 Dy88 2.339 . S
O96 C111 1.257 . S
O97 Dy89 2.307 1_545 S
O97 C112 1.266 1_554 S
O98 Dy88 2.298 . S
O98 C112 1.236 1_655 S
O99 Dy89 2.395 1_655 S
O99 C119 1.255 1_655 S
O100 Dy89 2.379 . S
O100 C119 1.249 . S
C101 O91 1.266 . S
C101 O92 1.236 1_655 S
O102 Dy88 2.275 1_455 S
O102 C90 1.254 1_545 S
O103 Dy89 2.339 1_556 S
O103 C90 1.257 . S
C104 C107 1.344 1_655 S
C104 C108 1.328 . S
C104 C110 1.516 . S
C105 C106 1.304 1_655 S
C105 C109 1.323 . S
C106 C105 1.304 1_455 S
C106 C107 1.371 . S
C106 H120 0.930 . S
C107 C104 1.344 1_455 S
C107 C106 1.371 . S
C107 H121 0.931 . S
C108 C104 1.328 . S
C108 C109 1.433 . S
C108 H122 0.931 . S
C109 C105 1.323 . S
C109 C108 1.433 . S
C109 H123 0.933 . S
C110 Dy88 2.738 . S
C110 O93 1.255 1_655 S
C110 O94 1.249 . S
C110 C104 1.516 . S
C111 O95 1.254 1_545 S
C111 O96 1.257 . S
C112 O97 1.266 1_556 S
C112 O98 1.236 1_455 S
C113 C116 1.344 1_455 S
C113 C117 1.328 . S
C113 C119 1.516 . S
C114 C115 1.304 1_455 S
C114 C118 1.323 . S
C115 C114 1.304 1_655 S
C115 C116 1.371 . S
C115 H124 0.930 . S
C116 C113 1.344 1_655 S
C116 C115 1.371 . S
C116 H125 0.931 . S
C117 C113 1.328 . S
C117 C118 1.433 . S
C117 H126 0.931 . S
C118 C114 1.323 . S
C118 C117 1.433 . S
C118 H127 0.933 . S
C119 Dy89 2.738 . S
C119 O99 1.255 1_455 S
C119 O100 1.249 . S
C119 C113 1.516 . S
H120 C106 0.930 . S
H121 C107 0.931 . S
H122 C108 0.931 . S
H123 C109 0.933 . S
H124 C115 0.930 . S
H125 C116 0.931 . S
H126 C117 0.931 . S
H127 C118 0.933 . S
Dy128 O131 2.307 . S
Dy128 O133 2.395 1_565 S
Dy128 O134 2.379 . S
Dy128 O136 2.339 . S
Dy128 O138 2.298 . S
Dy128 O142 2.275 1_565 S
Dy128 C150 2.738 . S
Dy129 O132 2.298 1_554 S
Dy129 O135 2.275 1_544 S
Dy129 O137 2.307 . S
Dy129 O139 2.395 1_545 S
Dy129 O140 2.379 . S
Dy129 O143 2.339 1_554 S
Dy129 C159 2.738 . S
C130 O142 1.254 . S
C130 O143 1.257 . S
O131 Dy128 2.307 . S
O131 C141 1.266 . S
O132 Dy129 2.298 1_556 S
O132 C141 1.236 1_545 S
O133 Dy128 2.395 1_545 S
O133 C150 1.255 1_545 S
O134 Dy128 2.379 . S
O134 C150 1.249 . S
O135 Dy129 2.275 1_566 S
O135 C151 1.254 . S
O136 Dy128 2.339 . S
O136 C151 1.257 . S
O137 Dy129 2.307 . S
O137 C152 1.266 1_554 S
O138 Dy128 2.298 . S
O138 C152 1.236 1_565 S
O139 Dy129 2.395 1_565 S
O139 C159 1.255 1_565 S
O140 Dy129 2.379 . S
O140 C159 1.249 . S
C141 O131 1.266 . S
C141 O132 1.236 1_565 S
O142 Dy128 2.275 1_545 S
O142 C130 1.254 . S
O143 Dy129 2.339 1_556 S
O143 C130 1.257 . S
C144 C147 1.341 1_565 S
C144 C148 1.328 . S
C144 C150 1.516 . S
C145 C146 1.304 . S
C145 C149 1.323 . S
C146 C145 1.304 . S
C146 C147 1.370 1_565 S
C146 H160 0.930 1_565 S
C147 C144 1.341 1_545 S
C147 C146 1.370 1_545 S
C147 H161 0.934 . S
C148 C144 1.328 . S
C148 C149 1.433 . S
C148 H162 0.931 . S
C149 C145 1.323 . S
C149 C148 1.433 . S
C149 H163 0.933 . S
C150 Dy128 2.738 . S
C150 O133 1.255 1_565 S
C150 O134 1.249 . S
C150 C144 1.516 . S
C151 O135 1.254 . S
C151 O136 1.257 . S
C152 O137 1.266 1_556 S
C152 O138 1.236 1_545 S
C153 C156 1.341 . S
C153 C157 1.328 . S
C153 C159 1.516 . S
C154 C155 1.304 . S
C154 C158 1.323 . S
C155 C154 1.304 . S
C155 C156 1.370 . S
C155 H164 0.930 1_545 S
C156 C153 1.341 . S
C156 C155 1.370 . S
C156 H165 0.934 1_545 S
C157 C153 1.328 . S
C157 C158 1.433 . S
C157 H166 0.931 . S
C158 C154 1.323 . S
C158 C157 1.433 . S
C158 H167 0.933 . S
C159 Dy129 2.738 . S
C159 O139 1.255 1_545 S
C159 O140 1.249 . S
C159 C153 1.516 . S
H160 C146 0.930 1_545 S
H161 C147 0.934 . S
H162 C148 0.931 . S
H163 C149 0.933 . S
H164 C155 0.930 1_565 S
H165 C156 0.934 1_565 S
H166 C157 0.931 . S
H167 C158 0.933 . S
Dy168 O171 2.307 . S
Dy168 O173 2.395 1_556 S
Dy168 O174 2.379 . S
Dy168 O176 2.339 . S
Dy168 O178 2.298 . S
Dy168 O182 2.275 . S
Dy168 C190 2.738 1_556 S
Dy169 O172 2.298 . S
Dy169 O175 2.275 . S
Dy169 O177 2.307 1_556 S
Dy169 O179 2.395 . S
Dy169 O180 2.379 . S
Dy169 O183 2.339 1_556 S
Dy169 C199 2.738 . S
C170 O182 1.254 1_554 S
C170 O183 1.257 . S
O171 Dy168 2.307 . S
O171 C181 1.266 . S
O172 Dy169 2.298 . S
O172 C181 1.236 . S
O173 Dy168 2.395 1_554 S
O173 C190 1.255 . S
O174 Dy168 2.379 . S
O174 C190 1.249 1_556 S
O175 Dy169 2.275 . S
O175 C191 1.254 . S
O176 Dy168 2.339 . S
O176 C191 1.257 . S
O177 Dy169 2.307 1_554 S
O177 C192 1.266 . S
O178 Dy168 2.298 . S
O178 C192 1.236 1_556 S
O179 Dy169 2.395 . S
O179 C199 1.255 . S
O180 Dy169 2.379 . S
O180 C199 1.249 . S
C181 O171 1.266 . S
C181 O172 1.236 . S
O182 Dy168 2.275 . S
O182 C170 1.254 1_556 S
O183 Dy169 2.339 1_554 S
O183 C170 1.257 . S
C184 C187 1.344 . S
C184 C188 1.328 . S
C184 C190 1.516 . S
C185 C186 1.304 . S
C185 C189 1.323 . S
C186 C185 1.304 . S
C186 C187 1.371 . S
C186 H200 0.930 . S
C187 C184 1.344 . S
C187 C186 1.371 . S
C187 H201 0.931 . S
C188 C184 1.328 . S
C188 C189 1.433 . S
C188 H202 0.931 1_554 S
C189 C185 1.323 . S
C189 C188 1.433 . S
C189 H203 0.933 . S
C190 Dy168 2.738 1_554 S
C190 O173 1.255 . S
C190 O174 1.249 1_554 S
C190 C184 1.516 . S
C191 O175 1.254 . S
C191 O176 1.257 . S
C192 O177 1.266 . S
C192 O178 1.236 1_554 S
C193 C196 1.344 . S
C193 C197 1.328 . S
C193 C199 1.516 . S
C194 C195 1.304 . S
C194 C198 1.323 . S
C195 C194 1.304 . S
C195 C196 1.371 . S
C195 H204 0.930 . S
C196 C193 1.344 . S
C196 C195 1.371 . S
C196 H205 0.931 . S
C197 C193 1.328 . S
C197 C198 1.433 . S
C197 H206 0.931 . S
C198 C194 1.323 . S
C198 C197 1.433 . S
C198 H207 0.933 . S
C199 Dy169 2.738 . S
C199 O179 1.255 . S
C199 O180 1.249 . S
C199 C193 1.516 . S
H200 C186 0.930 . S
H201 C187 0.931 . S
H202 C188 0.931 1_556 S
H203 C189 0.933 . S
H204 C195 0.930 . S
H205 C196 0.931 . S
H206 C197 0.931 . S
H207 C198 0.933 . S
Dy208 O211 2.307 1_455 S
Dy208 O213 2.395 . S
Dy208 O214 2.379 . S
Dy208 O216 2.339 . S
Dy208 O218 2.298 . S
Dy208 O222 2.275 . S
Dy208 C230 2.738 . S
Dy209 O212 2.298 1_554 S
Dy209 O215 2.275 . S
Dy209 O217 2.307 1_654 S
Dy209 O219 2.395 . S
Dy209 O220 2.379 . S
Dy209 O223 2.339 1_554 S
Dy209 C239 2.738 . S
C210 O222 1.254 1_655 S
C210 O223 1.257 . S
O211 Dy208 2.307 1_655 S
O211 C221 1.266 . S
O212 Dy209 2.298 1_556 S
O212 C221 1.236 . S
O213 Dy208 2.395 . S
O213 C230 1.255 . S
O214 Dy208 2.379 . S
O214 C230 1.249 . S
O215 Dy209 2.275 . S
O215 C231 1.254 1_655 S
O216 Dy208 2.339 . S
O216 C231 1.257 1_556 S
O217 Dy209 2.307 1_456 S
O217 C232 1.266 . S
O218 Dy208 2.298 . S
O218 C232 1.236 . S
O219 Dy209 2.395 . S
O219 C239 1.255 . S
O220 Dy209 2.379 . S
O220 C239 1.249 . S
C221 O211 1.266 . S
C221 O212 1.236 . S
O222 Dy208 2.275 . S
O222 C210 1.254 1_455 S
O223 Dy209 2.339 1_556 S
O223 C210 1.257 . S
C224 C227 1.344 . S
C224 C228 1.328 . S
C224 C230 1.516 . S
C225 C226 1.304 . S
C225 C229 1.323 . S
C226 C225 1.304 . S
C226 C227 1.371 . S
C226 H240 0.930 . S
C227 C224 1.344 . S
C227 C226 1.371 . S
C227 H241 0.931 . S
C228 C224 1.328 . S
C228 C229 1.433 . S
C228 H242 0.931 . S
C229 C225 1.323 . S
C229 C228 1.433 . S
C229 H243 0.933 . S
C230 Dy208 2.738 . S
C230 O213 1.255 . S
C230 O214 1.249 . S
C230 C224 1.516 . S
C231 O215 1.254 1_455 S
C231 O216 1.257 1_554 S
C232 O217 1.266 . S
C232 O218 1.236 . S
C233 C236 1.344 . S
C233 C237 1.328 . S
C233 C239 1.516 . S
C234 C235 1.304 . S
C234 C238 1.323 . S
C235 C234 1.304 . S
C235 C236 1.371 . S
C235 H244 0.930 . S
C236 C233 1.344 . S
C236 C235 1.371 . S
C236 H245 0.931 . S
C237 C233 1.328 . S
C237 C238 1.433 . S
C237 H246 0.931 . S
C238 C234 1.323 . S
C238 C237 1.433 . S
C238 H247 0.933 . S
C239 Dy209 2.738 . S
C239 O219 1.255 . S
C239 O220 1.249 . S
C239 C233 1.516 . S
H240 C226 0.930 . S
H241 C227 0.931 . S
H242 C228 0.931 . S
H243 C229 0.933 . S
H244 C235 0.930 . S
H245 C236 0.931 . S
H246 C237 0.931 . S
H247 C238 0.933 . S
C248 C249 1.396 . S
C248 H252 0.950 . S
C248 C257 1.390 . S
C249 C248 1.396 . S
C249 C251 1.377 1_545 S
H250 C257 0.950 . S
C251 C249 1.377 1_565 S
C251 C253 1.390 . S
C251 H255 0.950 . S
H252 C248 0.950 . S
C253 C251 1.390 . S
C253 C254 1.363 1_565 S
C253 H256 0.950 . S
C254 C253 1.363 1_545 S
C254 C257 1.416 . S
H255 C251 0.950 . S
H256 C253 0.950 . S
C257 C248 1.390 . S
C257 H250 0.950 . S
C257 C254 1.416 . S
C258 C259 1.387 . S
C258 H262 0.950 . S
C258 C267 1.390 . S
C259 C258 1.387 . S
C259 C261 1.387 . S
H260 C267 0.950 . S
C261 C259 1.387 . S
C261 C263 1.390 . S
C261 H265 0.950 . S
H262 C258 0.950 . S
C263 C261 1.390 . S
C263 C264 1.387 . S
C263 H266 0.950 . S
C264 C263 1.387 . S
C264 C267 1.387 . S
H265 C261 0.950 . S
H266 C263 0.950 . S
C267 C258 1.390 . S
C267 H260 0.950 . S
C267 C264 1.387 . S
C268 C269 1.387 . S
C268 H272 0.950 . S
C268 C277 1.390 . S
C269 C268 1.387 . S
C269 C271 1.387 . S
H270 C277 0.950 . S
C271 C269 1.387 . S
C271 C273 1.390 . S
C271 H275 0.950 . S
H272 C268 0.950 . S
C273 C271 1.390 . S
C273 C274 1.387 . S
C273 H276 0.950 . S
C274 C273 1.387 . S
C274 C277 1.387 . S
H275 C271 0.950 . S
H276 C273 0.950 . S
C277 C268 1.390 . S
C277 H270 0.950 . S
C277 C274 1.387 . S
C278 C279 1.387 1_655 S
C278 H282 0.950 . S
C278 C287 1.390 . S
C279 C278 1.387 1_455 S
C279 C281 1.387 . S
H280 C287 0.950 . S
C281 C279 1.387 . S
C281 C283 1.390 . S
C281 H285 0.950 . S
H282 C278 0.950 . S
C283 C281 1.390 . S
C283 C284 1.387 . S
C283 H286 0.950 . S
C284 C283 1.387 . S
C284 C287 1.387 1_455 S
H285 C281 0.950 . S
H286 C283 0.950 . S
C287 C278 1.390 . S
C287 H280 0.950 . S
C287 C284 1.387 1_655 S
C288 C289 1.384 1_545 S
C288 H292 0.950 . S
C288 C297 1.390 . S
C289 C288 1.384 1_565 S
C289 C291 1.391 . S
H290 C297 0.950 . S
C291 C289 1.391 . S
C291 C293 1.390 . S
C291 H295 0.950 . S
H292 C288 0.950 . S
C293 C291 1.390 . S
C293 C294 1.409 . S
C293 H296 0.950 . S
C294 C293 1.409 . S
C294 C297 1.369 1_565 S
H295 C291 0.950 . S
H296 C293 0.950 . S
C297 C288 1.390 . S
C297 H290 0.950 . S
C297 C294 1.369 1_545 S
C298 C299 1.387 . S
C298 H302 0.950 1_554 S
C298 C307 1.390 1_554 S
C299 C298 1.387 . S
C299 C301 1.387 . S
H300 C307 0.950 . S
C301 C299 1.387 . S
C301 C303 1.390 . S
C301 H305 0.950 . S
H302 C298 0.950 1_556 S
C303 C301 1.390 . S
C303 C304 1.387 . S
C303 H306 0.950 . S
C304 C303 1.387 . S
C304 C307 1.387 1_554 S
H305 C301 0.950 . S
H306 C303 0.950 . S
C307 C298 1.390 1_556 S
C307 H300 0.950 . S
C307 C304 1.387 1_556 S
C308 C309 1.387 . S
C308 H312 0.950 . S
C308 C317 1.390 . S
C309 C308 1.387 . S
C309 C311 1.387 . S
H310 C317 0.950 . S
C311 C309 1.387 . S
C311 C313 1.390 . S
C311 H315 0.950 . S
H312 C308 0.950 . S
C313 C311 1.390 . S
C313 C314 1.387 . S
C313 H316 0.950 . S
C314 C313 1.387 . S
C314 C317 1.387 . S
H315 C311 0.950 . S
H316 C313 0.950 . S
C317 C308 1.390 . S
C317 H310 0.950 . S
C317 C314 1.387 . S
C318 C319 1.387 . S
C318 H322 0.950 . S
C318 C327 1.390 . S
C319 C318 1.387 . S
C319 C321 1.387 1_655 S
H320 C327 0.950 . S
C321 C319 1.387 1_455 S
C321 C323 1.390 . S
C321 H325 0.950 . S
H322 C318 0.950 . S
C323 C321 1.390 . S
C323 C324 1.387 1_455 S
C323 H326 0.950 . S
C324 C323 1.387 1_655 S
C324 C327 1.387 . S
H325 C321 0.950 . S
H326 C323 0.950 . S
C327 C318 1.390 . S
C327 H320 0.950 . S
C327 C324 1.387 . S
C328 C329 1.387 1_655 S
C328 H332 0.950 1_655 S
C328 C337 1.390 . S
C329 C328 1.387 1_455 S
C329 C331 1.387 1_455 S
H330 C337 0.950 . S
C331 C329 1.387 1_655 S
C331 C333 1.390 . S
C331 H335 0.950 . S
H332 C328 0.950 1_455 S
C333 C331 1.390 . S
C333 C334 1.387 . S
C333 H336 0.950 . S
C334 C333 1.387 . S
C334 C337 1.387 . S
H335 C331 0.950 . S
H336 C333 0.950 . S
C337 C328 1.390 . S
C337 H330 0.950 . S
C337 C334 1.387 . S
C338 C339 1.387 1_545 S
C338 H342 0.950 . S
C338 C347 1.390 1_545 S
C339 C338 1.387 1_565 S
C339 C341 1.387 . S
H340 C347 0.950 . S
C341 C339 1.387 . S
C341 C343 1.390 . S
C341 H345 0.950 . S
H342 C338 0.950 . S
C343 C341 1.390 . S
C343 C344 1.387 . S
C343 H346 0.950 . S
C344 C343 1.387 . S
C344 C347 1.387 . S
H345 C341 0.950 . S
H346 C343 0.950 . S
C347 C338 1.390 1_565 S
C347 H340 0.950 . S
C347 C344 1.387 . S
C348 C349 1.387 . S
C348 H352 0.950 . S
C348 C357 1.390 . S
C349 C348 1.387 . S
C349 C351 1.387 . S
H350 C357 0.950 . S
C351 C349 1.387 . S
C351 C353 1.390 . S
C351 H355 0.950 . S
H352 C348 0.950 . S
C353 C351 1.390 . S
C353 C354 1.387 . S
C353 H356 0.950 . S
C354 C353 1.387 . S
C354 C357 1.387 . S
H355 C351 0.950 . S
H356 C353 0.950 . S
C357 C348 1.390 . S
C357 H350 0.950 . S
C357 C354 1.387 . S
C358 C359 1.387 . S
C358 H362 0.950 . S
C358 C367 1.390 . S
C359 C358 1.387 . S
C359 C361 1.387 . S
H360 C367 0.950 . S
C361 C359 1.387 . S
C361 C363 1.390 . S
C361 H365 0.950 . S
H362 C358 0.950 . S
C363 C361 1.390 . S
C363 C364 1.387 . S
C363 H366 0.950 . S
C364 C363 1.387 . S
C364 C367 1.387 . S
H365 C361 0.950 . S
H366 C363 0.950 . S
C367 C358 1.390 . S
C367 H360 0.950 . S
C367 C364 1.387 . S
C368 C369 1.387 1_455 S
C368 H372 0.950 . S
C368 C377 1.390 . S
C369 C368 1.387 1_655 S
C369 C371 1.387 . S
H370 C377 0.950 . S
C371 C369 1.387 . S
C371 C373 1.390 1_655 S
C371 H375 0.950 . S
H372 C368 0.950 . S
C373 C371 1.390 1_455 S
C373 C374 1.387 . S
C373 H376 0.950 . S
C374 C373 1.387 . S
C374 C377 1.387 . S
H375 C371 0.950 . S
H376 C373 0.950 . S
C377 C368 1.390 . S
C377 H370 0.950 . S
C377 C374 1.387 . S
C378 C379 1.387 . S
C378 H382 0.950 . S
C378 C387 1.390 . S
C379 C378 1.387 . S
C379 C381 1.387 . S
H380 C387 0.950 . S
C381 C379 1.387 . S
C381 C383 1.390 . S
C381 H385 0.950 . S
H382 C378 0.950 . S
C383 C381 1.390 . S
C383 C384 1.387 . S
C383 H386 0.950 . S
C384 C383 1.387 . S
C384 C387 1.387 . S
H385 C381 0.950 . S
H386 C383 0.950 . S
C387 C378 1.390 . S
C387 H380 0.950 . S
C387 C384 1.387 . S
C388 C389 1.387 . S
C388 H392 0.950 1_554 S
C388 C397 1.390 . S
C389 C388 1.387 . S
C389 C391 1.387 . S
H390 C397 0.950 1_556 S
C391 C389 1.387 . S
C391 C393 1.390 . S
C391 H395 0.950 . S
H392 C388 0.950 1_556 S
C393 C391 1.390 . S
C393 C394 1.387 . S
C393 H396 0.950 . S
C394 C393 1.387 . S
C394 C397 1.387 . S
H395 C391 0.950 . S
H396 C393 0.950 . S
C397 C388 1.390 . S
C397 H390 0.950 1_554 S
C397 C394 1.387 . S
C398 C399 1.387 . S
C398 H402 0.950 . S
C398 C407 1.390 . S
C399 C398 1.387 . S
C399 C401 1.387 . S
H400 C407 0.950 . S
C401 C399 1.387 . S
C401 C403 1.390 . S
C401 H405 0.950 . S
H402 C398 0.950 . S
C403 C401 1.390 . S
C403 C404 1.387 . S
C403 H406 0.950 . S
C404 C403 1.387 . S
C404 C407 1.387 . S
H405 C401 0.950 . S
H406 C403 0.950 . S
C407 C398 1.390 . S
C407 H400 0.950 . S
C407 C404 1.387 . S
C408 C409 1.387 1_554 S
C408 H412 0.950 . S
C408 C417 1.390 . S
C409 C408 1.387 1_556 S
C409 C411 1.387 1_455 S
H410 C417 0.950 . S
C411 C409 1.387 1_655 S
C411 C413 1.390 . S
C411 H415 0.950 . S
H412 C408 0.950 . S
C413 C411 1.390 . S
C413 C414 1.387 1_655 S
C413 H416 0.950 . S
C414 C413 1.387 1_455 S
C414 C417 1.387 1_556 S
H415 C411 0.950 . S
H416 C413 0.950 . S
C417 C408 1.390 . S
C417 H410 0.950 . S
C417 C414 1.387 1_554 S
C418 C419 1.387 . S
C418 H422 0.950 . S
C418 C427 1.390 . S
C419 C418 1.387 . S
C419 C421 1.387 1_544 S
H420 C427 0.950 . S
C421 C419 1.387 1_566 S
C421 C423 1.390 . S
C421 H425 0.950 . S
H422 C418 0.950 . S
C423 C421 1.390 . S
C423 C424 1.387 1_566 S
C423 H426 0.950 . S
C424 C423 1.387 1_544 S
C424 C427 1.387 . S
H425 C421 0.950 . S
H426 C423 0.950 . S
C427 C418 1.390 . S
C427 H420 0.950 . S
C427 C424 1.387 . S
C428 C429 1.387 . S
C428 H432 0.950 . S
C428 C437 1.390 . S
C429 C428 1.387 . S
C429 C431 1.387 . S
H430 C437 0.950 . S
C431 C429 1.387 . S
C431 C433 1.390 . S
C431 H435 0.950 . S
H432 C428 0.950 . S
C433 C431 1.390 . S
C433 C434 1.387 . S
C433 H436 0.950 . S
C434 C433 1.387 . S
C434 C437 1.387 . S
H435 C431 0.950 . S
H436 C433 0.950 . S
C437 C428 1.390 . S
C437 H430 0.950 . S
C437 C434 1.387 . S
C438 C439 1.387 . S
C438 H442 0.950 . S
C438 C447 1.390 . S
C439 C438 1.387 . S
C439 C441 1.387 . S
H440 C447 0.950 . S
C441 C439 1.387 . S
C441 C443 1.390 . S
C441 H445 0.950 . S
H442 C438 0.950 . S
C443 C441 1.390 . S
C443 C444 1.387 . S
C443 H446 0.950 . S
C444 C443 1.387 . S
C444 C447 1.387 . S
H445 C441 0.950 . S
H446 C443 0.950 . S
C447 C438 1.390 . S
C447 H440 0.950 . S
C447 C444 1.387 . S
C448 C449 1.387 . S
C448 H452 0.950 . S
C448 C457 1.390 . S
C449 C448 1.387 . S
C449 C451 1.387 1_655 S
H450 C457 0.950 . S
C451 C449 1.387 1_455 S
C451 C453 1.390 . S
C451 H455 0.950 . S
H452 C448 0.950 . S
C453 C451 1.390 . S
C453 C454 1.387 1_455 S
C453 H456 0.950 . S
C454 C453 1.387 1_655 S
C454 C457 1.387 . S
H455 C451 0.950 . S
H456 C453 0.950 . S
C457 C448 1.390 . S
C457 H450 0.950 . S
C457 C454 1.387 . S
C458 C459 1.387 . S
C458 H462 0.950 . S
C458 C467 1.390 . S
C459 C458 1.387 . S
C459 C461 1.387 1_565 S
H460 C467 0.950 . S
C461 C459 1.387 1_545 S
C461 C463 1.390 . S
C461 H465 0.950 . S
H462 C458 0.950 . S
C463 C461 1.390 . S
C463 C464 1.387 1_545 S
C463 H466 0.950 . S
C464 C463 1.387 1_565 S
C464 C467 1.387 . S
H465 C461 0.950 . S
H466 C463 0.950 . S
C467 C458 1.390 . S
C467 H460 0.950 . S
C467 C464 1.387 . S
C468 C469 1.387 . S
C468 H472 0.950 . S
C468 C477 1.390 . S
C469 C468 1.387 . S
C469 C471 1.387 . S
H470 C477 0.950 . S
C471 C469 1.387 . S
C471 C473 1.390 . S
C471 H475 0.950 . S
H472 C468 0.950 . S
C473 C471 1.390 . S
C473 C474 1.387 . S
C473 H476 0.950 . S
C474 C473 1.387 . S
C474 C477 1.387 . S
H475 C471 0.950 . S
H476 C473 0.950 . S
C477 C468 1.390 . S
C477 H470 0.950 . S
C477 C474 1.387 . S
C478 C479 1.387 . S
C478 H482 0.950 . S
C478 C487 1.390 . S
C479 C478 1.387 . S
C479 C481 1.387 . S
H480 C487 0.950 . S
C481 C479 1.387 . S
C481 C483 1.390 . S
C481 H485 0.950 . S
H482 C478 0.950 . S
C483 C481 1.390 . S
C483 C484 1.387 . S
C483 H486 0.950 . S
C484 C483 1.387 . S
C484 C487 1.387 . S
H485 C481 0.950 . S
H486 C483 0.950 . S
C487 C478 1.390 . S
C487 H480 0.950 . S
C487 C484 1.387 . S
C249 C76 2.097 1_545 S
C254 C90 2.194 1_545 S
C264 C130 2.062 . S
C259 C87 1.990 . S
C274 C194 2.068 . S
C269 C54 1.910 . S
C284 C210 1.975 1_455 S
C279 C65 1.671 1_455 S
C294 C111 2.197 1_564 S
C289 C32 2.092 . S
C299 C43 2.000 . S
C304 C151 2.063 1_554 S
C309 C10 1.918 . S
C314 C185 2.069 . S
C319 C21 1.683 . S
C324 C231 1.975 1_655 S
C334 C105 0.657 . S
C329 C60 0.649 . S
C344 C145 0.931 . S
C339 C71 0.925 1_565 S
C354 C181 1.062 . S
C349 C82 1.067 . S
C359 C49 0.967 . S
C364 C225 0.897 . S
C369 C16 0.645 1_655 S
C374 C114 0.656 . S
C384 C154 0.928 . S
C379 C27 0.924 . S
C394 C192 1.058 . S
C389 C38 1.055 . S
C399 C5 0.949 . S
C404 C234 0.899 . S
C409 C59 1.886 1_556 S
C414 C112 2.203 . S
C419 C70 2.026 . S
C424 C152 2.272 1_554 S
C434 C170 1.781 . S
C429 C81 1.744 . S
C444 C232 2.639 . S
C439 C48 2.281 . S
C449 C15 1.892 1_655 S
C454 C101 2.210 . S
C464 C141 2.272 . S
C459 C26 2.027 1_565 S
C474 C191 1.780 . S
C469 C37 1.737 . S
C479 C4 2.286 . S
C484 C221 2.645 . S
