# Generated by pormake.
# Topology anh, (6,3)-cn, num edge types: 1
# Building blocks:
#     Node 0, Type 0, BuildingBlock: MIFKUJ_clean_sbu_0, # of connection points: 6
#     Node 1, Type 0, BuildingBlock: MIFKUJ_clean_sbu_0, # of connection points: 6
#     Node 2, Type 0, BuildingBlock: MIFKUJ_clean_sbu_0, # of connection points: 6
#     Node 3, Type 1, BuildingBlock: INOVEN_clean_linker_0, # of connection points: 3
#     Node 4, Type 1, BuildingBlock: INOVEN_clean_linker_0, # of connection points: 3
#     Node 5, Type 1, BuildingBlock: INOVEN_clean_linker_0, # of connection points: 3
#     Node 6, Type 1, BuildingBlock: INOVEN_clean_linker_0, # of connection points: 3
#     Node 7, Type 1, BuildingBlock: INOVEN_clean_linker_0, # of connection points: 3
#     Node 8, Type 1, BuildingBlock: INOVEN_clean_linker_0, # of connection points: 3
#     Edge 9, Type (0, 1), BuildingBlock: OJICUG_clean_linker_0, # of connection points: 2
#     Edge 10, Type (0, 1), BuildingBlock: OJICUG_clean_linker_0, # of connection points: 2
#     Edge 11, Type (0, 1), BuildingBlock: OJICUG_clean_linker_0, # of connection points: 2
#     Edge 12, Type (0, 1), BuildingBlock: OJICUG_clean_linker_0, # of connection points: 2
#     Edge 13, Type (0, 1), BuildingBlock: OJICUG_clean_linker_0, # of connection points: 2
#     Edge 14, Type (0, 1), BuildingBlock: OJICUG_clean_linker_0, # of connection points: 2
#     Edge 15, Type (0, 1), BuildingBlock: OJICUG_clean_linker_0, # of connection points: 2
#     Edge 16, Type (0, 1), BuildingBlock: OJICUG_clean_linker_0, # of connection points: 2
#     Edge 17, Type (0, 1), BuildingBlock: OJICUG_clean_linker_0, # of connection points: 2
#     Edge 18, Type (0, 1), BuildingBlock: OJICUG_clean_linker_0, # of connection points: 2
#     Edge 19, Type (0, 1), BuildingBlock: OJICUG_clean_linker_0, # of connection points: 2
#     Edge 20, Type (0, 1), BuildingBlock: OJICUG_clean_linker_0, # of connection points: 2
#     Edge 21, Type (0, 1), BuildingBlock: OJICUG_clean_linker_0, # of connection points: 2
#     Edge 22, Type (0, 1), BuildingBlock: OJICUG_clean_linker_0, # of connection points: 2
#     Edge 23, Type (0, 1), BuildingBlock: OJICUG_clean_linker_0, # of connection points: 2
#     Edge 24, Type (0, 1), BuildingBlock: OJICUG_clean_linker_0, # of connection points: 2
#     Edge 25, Type (0, 1), BuildingBlock: OJICUG_clean_linker_0, # of connection points: 2
#     Edge 26, Type (0, 1), BuildingBlock: OJICUG_clean_linker_0, # of connection points: 2
# Relax obj value: 0.066
# Max RMSD: 0.136
# Mean RMSD: 0.097
data_MOF--net-anh--node1-MIFKUJ_clean_sbu_0--node2-INOVEN_clean_linker_0--edge1-OJICUG_clean_linker_0
_symmetry_space_group_name_H-M    P1
_symmetry_Int_Tables_number       1
_symmetry_cell_setting            triclinic
loop_
_symmetry_equiv_pos_as_xyz
'x, y, z'
_cell_length_a     24.025975
_cell_length_b     23.831666
_cell_length_c     33.179261
_cell_angle_alpha  96.386709
_cell_angle_beta   93.562605
_cell_angle_gamma 120.01083
loop_
_atom_site_label
_atom_site_type_symbol
_atom_site_fract_x
_atom_site_fract_y
_atom_site_fract_z
_atom_type_partial_charge
Zn0 Zn 0.0931 0.59618 0.15226 0.0
Zn1 Zn 0.89124 0.51251 0.15431 0.0
C2 C 0.19909 0.58119 0.17245 0.0
O3 O 0.20589 0.62434 0.20361 0.0
C4 C 0.86214 0.62261 0.16307 0.0
O5 O 0.91952 0.66375 0.15374 0.0
O6 O 0.1481 0.69101 0.14782 0.0
O7 O 0.01598 0.55588 0.11046 0.0
O8 O 0.91102 0.51036 0.09588 0.0
C9 C 0.18778 0.70748 0.12169 0.0
O10 O 0.18905 0.66157 0.0966 0.0
O11 O 0.15017 0.55768 0.14496 0.0
C12 C 0.7902 0.41693 0.18759 0.0
O13 O 0.80872 0.4697 0.21468 0.0
O14 O 0.82155 0.42144 0.15754 0.0
O15 O 0.96194 0.53975 0.20217 0.0
O16 O 0.06905 0.58647 0.20837 0.0
O17 O 0.84594 0.56333 0.16395 0.0
C18 C 0.96603 0.5299 0.08404 0.0
C19 C 0.01653 0.56229 0.224 0.0
Zn20 Zn 0.5589 0.09843 0.49361 0.0
Zn21 Zn 0.47847 0.90966 0.49161 0.0
C22 C 0.69261 0.17747 0.50231 0.0
O23 O 0.67823 0.19086 0.53834 0.0
C24 C 0.36244 0.8029 0.51445 0.0
O25 O 0.40501 0.79599 0.53684 0.0
O26 O 0.55677 0.18149 0.49907 0.0
O27 O 0.48404 0.03525 0.45049 0.0
O28 O 0.48999 0.94561 0.43836 0.0
C29 C 0.55884 0.21041 0.46871 0.0
O30 O 0.55701 0.18309 0.43169 0.0
O31 O 0.64762 0.13069 0.47619 0.0
C32 C 0.57742 0.87459 0.49992 0.0
O33 O 0.61529 0.93635 0.51699 0.0
O34 O 0.51818 0.85331 0.48753 0.0
O35 O 0.51308 0.96812 0.54685 0.0
O36 O 0.5574 0.0758 0.55004 0.0
O37 O 0.38246 0.84833 0.49264 0.0
C38 C 0.48455 0.99116 0.42562 0.0
C39 C 0.54015 0.02574 0.56734 0.0
Zn40 Zn 0.62325 0.50916 0.82735 0.0
Zn41 Zn 0.4849 0.55885 0.82562 0.0
C42 C 0.57852 0.37495 0.85317 0.0
O43 O 0.5505 0.38686 0.88301 0.0
C44 C 0.51562 0.69147 0.85994 0.0
O45 O 0.46343 0.6602 0.87763 0.0
O46 O 0.71705 0.55664 0.81922 0.0
O47 O 0.57325 0.51163 0.77746 0.0
O48 O 0.49589 0.53554 0.76802 0.0
C49 C 0.73338 0.53059 0.79026 0.0
O50 O 0.68768 0.47897 0.76504 0.0
O51 O 0.6052 0.41684 0.8295 0.0
C52 C 0.34796 0.47705 0.8349 0.0
O53 O 0.36472 0.43753 0.8491 0.0
O54 O 0.39083 0.52974 0.82429 0.0
O55 O 0.51038 0.51397 0.86464 0.0
O56 O 0.61436 0.55179 0.88023 0.0
O57 O 0.5358 0.65847 0.83934 0.0
C58 C 0.53371 0.51794 0.75385 0.0
C59 C 0.56224 0.54781 0.88962 0.0
H60 H 0.44807 0.01551 0.1371 0.0
H61 H 0.37689 0.90339 0.23471 0.0
H62 H 0.54307 0.09754 0.26135 0.0
N63 N 0.54582 0.12272 0.18461 0.0
N64 N 0.57488 0.17441 0.21007 0.0
C65 C 0.45219 0.01083 0.16911 0.0
C66 C 0.40675 0.95351 0.18275 0.0
C67 C 0.50112 0.06342 0.19752 0.0
C68 C 0.50514 0.05739 0.23917 0.0
C69 C 0.46105 -0.00029 0.25259 0.0
C70 C 0.41218 0.94773 0.22426 0.0
H71 H 0.59886 0.51001 0.46904 0.0
H72 H 0.55407 0.41231 0.57426 0.0
H73 H 0.57787 0.60381 0.58102 0.0
N74 N 0.59887 0.61723 0.50408 0.0
N75 N 0.62599 0.67322 0.52503 0.0
C76 C 0.58908 0.50927 0.50048 0.0
C77 C 0.57873 0.45584 0.51972 0.0
C78 C 0.58958 0.56316 0.52285 0.0
C79 C 0.57748 0.56219 0.5638 0.0
C80 C 0.56447 0.50793 0.58255 0.0
C81 C 0.56472 0.45491 0.56014 0.0
H82 H 0.00871 0.52098 0.7952 0.0
H83 H 0.923 0.55177 0.89935 0.0
H84 H 0.06113 0.48929 0.9135 0.0
N85 N 0.08661 0.49057 0.83597 0.0
N86 N 0.10815 0.4607 0.854 0.0
C87 C 0.00392 0.52103 0.82747 0.0
C88 C 0.96146 0.53856 0.84437 0.0
C89 C 0.04013 0.50335 0.85234 0.0
C90 C 0.0333 0.50291 0.89418 0.0
C91 C 0.99143 0.52067 0.91141 0.0
C92 C 0.95598 0.5386 0.88629 0.0
H93 H 0.06449 0.5406 0.513 0.0
H94 H 0.12191 0.64305 0.41037 0.0
H95 H 0.95094 0.45217 0.39359 0.0
N96 N 0.95677 0.43485 0.4724 0.0
N97 N 0.91433 0.38333 0.44968 0.0
C98 C 0.05609 0.54302 0.48094 0.0
C99 C 0.09965 0.59875 0.46474 0.0
C100 C 0.00169 0.49011 0.45553 0.0
C101 C 0.99183 0.49304 0.41361 0.0
C102 C 0.03534 0.54792 0.39715 0.0
C103 C 0.08809 0.60068 0.42311 0.0
H104 H 0.57272 0.09252 0.86344 0.0
H105 H 0.57152 0.15656 0.74725 0.0
H106 H 0.56686 0.97539 0.75261 0.0
N107 N 0.56617 0.97937 0.83341 0.0
N108 N 0.5854 0.94193 0.81983 0.0
C109 C 0.57171 0.08489 0.83053 0.0
C110 C 0.57496 0.13269 0.80768 0.0
C111 C 0.56965 0.02823 0.81079 0.0
C112 C 0.56875 0.01898 0.76796 0.0
C113 C 0.5693 0.06488 0.74472 0.0
C114 C 0.57238 0.12134 0.76496 0.0
H115 H 0.59071 0.63378 0.18224 0.0
H116 H 0.67132 0.63653 0.06982 0.0
H117 H 0.47442 0.59148 0.06647 0.0
N118 N 0.47276 0.60131 0.14747 0.0
N119 N 0.41629 0.56707 0.12907 0.0
C120 C 0.58595 0.6291 0.14916 0.0
C121 C 0.63901 0.63969 0.12856 0.0
C122 C 0.52616 0.61089 0.1268 0.0
C123 C 0.51999 0.60405 0.08374 0.0
C124 C 0.57243 0.61441 0.06289 0.0
C125 C 0.63155 0.63212 0.08568 0.0
C126 C 0.24636 0.52401 0.13238 0.0
C127 C 0.25262 0.56875 0.16619 0.0
H128 H 0.29535 0.48868 0.09471 0.0
C129 C 0.31279 0.60642 0.19151 0.0
H130 H 0.2006 0.49384 0.11253 0.0
C131 C 0.36685 0.60318 0.18125 0.0
C132 C 0.36122 0.56187 0.1456 0.0
H133 H 0.31912 0.6411 0.21798 0.0
H134 H 0.41346 0.63555 0.1998 0.0
C135 C 0.3003 0.52074 0.12226 0.0
C136 C 0.80259 0.27925 0.51881 0.0
C137 C 0.75558 0.22498 0.49009 0.0
H138 H 0.89078 0.37297 0.52877 0.0
C139 C 0.76619 0.22148 0.44895 0.0
H140 H 0.79605 0.2835 0.55078 0.0
C141 C 0.82052 0.27294 0.43648 0.0
C142 C 0.8653 0.32856 0.46471 0.0
H143 H 0.73101 0.1806 0.42603 0.0
H144 H 0.82634 0.27067 0.40433 0.0
C145 C 0.85695 0.33064 0.50627 0.0
C146 C 0.51461 0.79704 0.87435 0.0
C147 C 0.54247 0.76193 0.85678 0.0
H148 H 0.50674 0.88331 0.87674 0.0
C149 C 0.59099 0.79231 0.83185 0.0
H150 H 0.47724 0.77523 0.89381 0.0
C151 C 0.60749 0.85383 0.82212 0.0
C152 C 0.5767 0.88679 0.83735 0.0
H153 H 0.61375 0.76706 0.81791 0.0
H154 H 0.64214 0.87444 0.80084 0.0
C155 C 0.53158 0.85906 0.86473 0.0
C156 C 0.81533 0.69204 0.14696 0.0
C157 C 0.81125 0.64008 0.16532 0.0
H158 H 0.76282 0.73373 0.12168 0.0
C159 C 0.75346 0.59834 0.18043 0.0
H160 H 0.8593 0.72536 0.13538 0.0
C161 C 0.69844 0.60344 0.17285 0.0
C162 C 0.70031 0.65013 0.14986 0.0
H163 H 0.74925 0.55851 0.19542 0.0
H164 H 0.65303 0.56676 0.18138 0.0
C165 C 0.76015 0.69692 0.13921 0.0
C166 C 0.24619 0.76809 0.49472 0.0
C167 C 0.29227 0.7538 0.51075 0.0
H168 H 0.14751 0.73021 0.46963 0.0
C169 C 0.27094 0.69029 0.51965 0.0
H170 H 0.26087 0.81687 0.48836 0.0
C171 C 0.20585 0.64032 0.50855 0.0
C172 C 0.16112 0.65335 0.48877 0.0
H173 H 0.30528 0.67796 0.5324 0.0
H174 H 0.19189 0.59057 0.51229 0.0
C175 C 0.18121 0.71855 0.48425 0.0
C176 C 0.53756 0.2569 0.86174 0.0
C177 C 0.58176 0.31406 0.84709 0.0
H178 H 0.50068 0.1536 0.86089 0.0
C179 C 0.62888 0.31244 0.82477 0.0
H180 H 0.5011 0.25689 0.87937 0.0
C181 C 0.62935 0.25433 0.81502 0.0
C182 C 0.58224 0.19588 0.8268 0.0
H183 H 0.66467 0.35587 0.81383 0.0
H184 H 0.66492 0.25436 0.79645 0.0
C185 C 0.53763 0.19802 0.85151 0.0
C186 C 0.65084 0.83943 0.5296 0.0
C187 C 0.60023 0.82758 0.49998 0.0
H188 H 0.69831 0.79714 0.56051 0.0
C189 C 0.56643 0.76694 0.47347 0.0
H190 H 0.67772 0.88575 0.55039 0.0
C191 C 0.57928 0.71703 0.47876 0.0
C192 C 0.62558 0.72696 0.51104 0.0
H193 H 0.52767 0.75688 0.45004 0.0
H194 H 0.54948 0.66932 0.45978 0.0
C195 C 0.66289 0.78909 0.53528 0.0
C196 C 0.85003 0.6002 0.81991 0.0
C197 C 0.80118 0.54567 0.79254 0.0
H198 H 0.94202 0.64199 0.85695 0.0
C199 C 0.81502 0.49896 0.77369 0.0
H200 H 0.84134 0.63775 0.8342 0.0
C201 C 0.87265 0.50129 0.78691 0.0
C202 C 0.91703 0.55058 0.81883 0.0
H203 H 0.7787 0.45683 0.75197 0.0
H204 H 0.87887 0.46066 0.77547 0.0
C205 C 0.90773 0.60277 0.83282 0.0
C206 C 0.23399 0.82609 0.14777 0.0
C207 C 0.2408 0.77626 0.12622 0.0
H208 H 0.28298 0.92361 0.18178 0.0
C209 C 0.30182 0.7912 0.11529 0.0
H210 H 0.18737 0.81604 0.15613 0.0
C211 C 0.35655 0.85285 0.13008 0.0
C212 C 0.35029 0.89999 0.15534 0.0
H213 H 0.30835 0.75361 0.09863 0.0
H214 H 0.40411 0.8615 0.12492 0.0
C215 C 0.28844 0.88762 0.16217 0.0
C216 C 0.61619 0.32113 0.51003 0.0
C217 C 0.5714 0.27774 0.47632 0.0
H218 H 0.6559 0.4138 0.54874 0.0
C219 C 0.53718 0.29834 0.45205 0.0
H220 H 0.64424 0.30673 0.52853 0.0
C221 C 0.54324 0.35971 0.46398 0.0
C222 C 0.58437 0.40079 0.49977 0.0
H223 H 0.50287 0.26549 0.42562 0.0
H224 H 0.51273 0.37297 0.44703 0.0
C225 C 0.62323 0.38242 0.52134 0.0
C226 C 0.26022 0.49784 0.81127 0.0
C227 C 0.28105 0.46403 0.83434 0.0
H228 H 0.18727 0.52239 0.79856 0.0
C229 C 0.23927 0.42207 0.85921 0.0
H230 H 0.2911 0.52989 0.79141 0.0
C231 C 0.17993 0.41809 0.86337 0.0
C232 C 0.16113 0.45508 0.84239 0.0
H233 H 0.25393 0.39527 0.87724 0.0
H234 H 0.15007 0.38877 0.88466 0.0
C235 C 0.20059 0.49322 0.8151 0.0
C236 C 0.70805 0.29866 0.16095 0.0
C237 C 0.73257 0.35421 0.19162 0.0
H238 H 0.63684 0.19646 0.14228 0.0
C239 C 0.7012 0.34967 0.22646 0.0
H240 H 0.73098 0.30095 0.13359 0.0
C241 C 0.6477 0.29032 0.2312 0.0
C242 C 0.62424 0.23476 0.20125 0.0
H243 H 0.71859 0.39161 0.2505 0.0
H244 H 0.62523 0.28718 0.25883 0.0
C245 C 0.654 0.23914 0.16568 0.0
C246 C 0.91716 0.49873 0.0103 0.0
C247 C 0.97223 0.52547 0.03986 0.0
H248 H 0.87994 0.47519 0.94662 0.0
C249 C 0.03351 0.54899 0.02679 0.0
H250 H 0.8692 0.47986 0.01929 0.0
C251 C 0.03971 0.54683 0.98515 0.0
C252 C 0.98474 0.5209 0.95562 0.0
H253 H 0.07687 0.5697 0.04875 0.0
H254 H 0.08774 0.56671 0.97613 0.0
C255 C 0.92335 0.4964 0.96866 0.0
C256 C 0.46661 0.03961 0.36649 0.0
C257 C 0.47538 0.99097 0.38104 0.0
H258 H 0.456 0.08069 0.31435 0.0
C259 C 0.47699 0.94348 0.35262 0.0
H260 H 0.46364 0.07599 0.38733 0.0
C261 C 0.47107 0.94543 0.31066 0.0
C262 C 0.46446 0.9954 0.29656 0.0
H263 H 0.48349 0.90522 0.36274 0.0
H264 H 0.47314 0.90887 0.2893 0.0
C265 C 0.46194 0.04222 0.32473 0.0
C266 C 0.57293 0.48442 0.69311 0.0
C267 C 0.53631 0.51028 0.70933 0.0
H268 H 0.61189 0.46502 0.64088 0.0
C269 C 0.50623 0.53268 0.68309 0.0
H270 H 0.59603 0.46602 0.71232 0.0
C271 C 0.51458 0.53126 0.64174 0.0
C272 C 0.55302 0.5073 0.62591 0.0
H273 H 0.47757 0.5528 0.69464 0.0
H274 H 0.49117 0.54914 0.62221 0.0
C275 C 0.5815 0.48327 0.65198 0.0
C276 C 0.5928 0.0973 0.63569 0.0
C277 C 0.55041 0.03476 0.61264 0.0
H278 H 0.63376 0.15539 0.69517 0.0
C279 C 0.51682 0.9814 0.63335 0.0
H280 H 0.62007 0.13931 0.62071 0.0
C281 C 0.52385 0.99082 0.67616 0.0
C282 C 0.56516 0.0537 0.69925 0.0
H283 H 0.48366 0.93258 0.6165 0.0
H284 H 0.49535 0.94912 0.69109 0.0
C285 C 0.60042 0.10656 0.67843 0.0
C286 C 0.50582 0.53423 0.95181 0.0
C287 C 0.56023 0.57044 0.93234 0.0
H288 H 0.46743 0.51856 0.00866 0.0
C289 C 0.61545 0.6255 0.95506 0.0
H290 H 0.46264 0.49141 0.93488 0.0
C291 C 0.61768 0.64219 -0.003 0.0
C292 C 0.56532 0.60311 0.01735 0.0
H293 H 0.65763 0.65478 0.94053 0.0
H294 H 0.6614 0.68457 0.01371 0.0
C295 C 0.50854 0.55003 0.99406 0.0
C296 C 0.96399 0.53329 0.28808 0.0
C297 C 0.01981 0.55824 0.2683 0.0
H298 H 0.92493 0.51063 0.34453 0.0
C299 C 0.07979 0.57805 0.29109 0.0
H300 H 0.91701 0.51734 0.2714 0.0
C301 C 0.0841 0.57351 0.3325 0.0
C302 C 0.02874 0.54964 0.35255 0.0
H303 H 0.1238 0.5968 0.27695 0.0
H304 H 0.1311 0.58843 0.34881 0.0
C305 C 0.96841 0.52901 0.32986 0.0
loop_
_geom_bond_atom_site_label_1
_geom_bond_atom_site_label_2
_geom_bond_distance
_geom_bond_site_symmetry_2
_ccdc_geom_bond_type
Zn0 O6 1.969 . S
Zn0 O7 1.965 . S
Zn0 O11 2.024 . S
Zn0 O16 1.969 . S
Zn1 O8 1.969 . S
Zn1 O14 1.969 . S
Zn1 O15 1.965 . S
Zn1 O17 2.024 . S
C2 O3 1.229 . S
C2 O11 1.058 . S
O3 C2 1.229 . S
C4 O5 1.229 . S
C4 O17 1.058 . S
O5 C4 1.229 . S
O6 Zn0 1.969 . S
O6 C9 1.267 . S
O7 Zn0 1.965 . S
O7 C18 1.260 . S
O8 Zn1 1.969 . S
O8 C18 1.258 1_655 S
C9 O6 1.267 . S
C9 O10 1.228 . S
O10 C9 1.228 . S
O11 Zn0 2.024 . S
O11 C2 1.058 . S
C12 O13 1.228 . S
C12 O14 1.267 . S
O13 C12 1.228 . S
O14 Zn1 1.969 . S
O14 C12 1.267 . S
O15 Zn1 1.965 . S
O15 C19 1.260 1_655 S
O16 Zn0 1.969 . S
O16 C19 1.258 . S
O17 Zn1 2.024 . S
O17 C4 1.058 . S
C18 O7 1.260 . S
C18 O8 1.258 1_455 S
C19 O15 1.260 1_455 S
C19 O16 1.258 . S
Zn20 O26 1.969 . S
Zn20 O27 1.965 . S
Zn20 O31 2.024 . S
Zn20 O36 1.969 . S
Zn21 O28 1.969 . S
Zn21 O34 1.969 . S
Zn21 O35 1.965 1_565 S
Zn21 O37 2.024 . S
C22 O23 1.229 . S
C22 O31 1.058 . S
O23 C22 1.229 . S
C24 O25 1.229 . S
C24 O37 1.058 . S
O25 C24 1.229 . S
O26 Zn20 1.969 . S
O26 C29 1.267 . S
O27 Zn20 1.965 . S
O27 C38 1.260 . S
O28 Zn21 1.969 . S
O28 C38 1.258 1_565 S
C29 O26 1.267 . S
C29 O30 1.228 . S
O30 C29 1.228 . S
O31 Zn20 2.024 . S
O31 C22 1.058 . S
C32 O33 1.228 . S
C32 O34 1.267 . S
O33 C32 1.228 . S
O34 Zn21 1.969 . S
O34 C32 1.267 . S
O35 Zn21 1.965 1_545 S
O35 C39 1.260 . S
O36 Zn20 1.969 . S
O36 C39 1.258 . S
O37 Zn21 2.024 . S
O37 C24 1.058 . S
C38 O27 1.260 . S
C38 O28 1.258 1_545 S
C39 O35 1.260 . S
C39 O36 1.258 . S
Zn40 O46 1.969 . S
Zn40 O47 1.965 . S
Zn40 O51 2.024 . S
Zn40 O56 1.969 . S
Zn41 O48 1.969 . S
Zn41 O54 1.969 . S
Zn41 O55 1.965 . S
Zn41 O57 2.024 . S
C42 O43 1.229 . S
C42 O51 1.058 . S
O43 C42 1.229 . S
C44 O45 1.229 . S
C44 O57 1.058 . S
O45 C44 1.229 . S
O46 Zn40 1.969 . S
O46 C49 1.267 . S
O47 Zn40 1.965 . S
O47 C58 1.260 . S
O48 Zn41 1.969 . S
O48 C58 1.258 . S
C49 O46 1.267 . S
C49 O50 1.228 . S
O50 C49 1.228 . S
O51 Zn40 2.024 . S
O51 C42 1.058 . S
C52 O53 1.228 . S
C52 O54 1.267 . S
O53 C52 1.228 . S
O54 Zn41 1.969 . S
O54 C52 1.267 . S
O55 Zn41 1.965 . S
O55 C59 1.260 . S
O56 Zn40 1.969 . S
O56 C59 1.258 . S
O57 Zn41 2.024 . S
O57 C44 1.058 . S
C58 O47 1.260 . S
C58 O48 1.258 . S
C59 O55 1.260 . S
C59 O56 1.258 . S
H60 C65 0.929 . S
H61 C70 0.931 . S
H62 C68 0.930 . S
N63 N64 1.234 . S
N63 C67 1.453 . S
N64 N63 1.234 . S
C65 H60 0.929 . S
C65 C66 1.373 1_545 S
C65 C67 1.368 . S
C66 C65 1.373 1_565 S
C66 C70 1.397 . S
C67 N63 1.453 . S
C67 C65 1.368 . S
C67 C68 1.373 . S
C68 H62 0.930 . S
C68 C67 1.373 . S
C68 C69 1.371 . S
C69 C68 1.371 . S
C69 C70 1.383 1_545 S
C70 H61 0.931 . S
C70 C66 1.397 . S
C70 C69 1.383 1_565 S
H71 C76 0.929 . S
H72 C81 0.931 . S
H73 C79 0.930 . S
N74 N75 1.234 . S
N74 C78 1.453 . S
N75 N74 1.234 . S
C76 H71 0.929 . S
C76 C77 1.373 . S
C76 C78 1.368 . S
C77 C76 1.373 . S
C77 C81 1.397 . S
C78 N74 1.453 . S
C78 C76 1.368 . S
C78 C79 1.373 . S
C79 H73 0.930 . S
C79 C78 1.373 . S
C79 C80 1.371 . S
C80 C79 1.371 . S
C80 C81 1.383 . S
C81 H72 0.931 . S
C81 C77 1.397 . S
C81 C80 1.383 . S
H82 C87 0.929 . S
H83 C92 0.931 . S
H84 C90 0.930 . S
N85 N86 1.234 . S
N85 C89 1.453 . S
N86 N85 1.234 . S
C87 H82 0.929 . S
C87 C88 1.373 1_455 S
C87 C89 1.368 . S
C88 C87 1.373 1_655 S
C88 C92 1.397 . S
C89 N85 1.453 . S
C89 C87 1.368 . S
C89 C90 1.373 . S
C90 H84 0.930 . S
C90 C89 1.373 . S
C90 C91 1.371 . S
C91 C90 1.371 . S
C91 C92 1.383 1_455 S
C92 H83 0.931 . S
C92 C88 1.397 . S
C92 C91 1.383 1_655 S
H93 C98 0.929 . S
H94 C103 0.931 . S
H95 C101 0.930 1_655 S
N96 N97 1.234 . S
N96 C100 1.453 1_655 S
N97 N96 1.234 . S
C98 H93 0.929 . S
C98 C99 1.373 . S
C98 C100 1.368 . S
C99 C98 1.373 . S
C99 C103 1.397 . S
C100 N96 1.453 1_455 S
C100 C98 1.368 . S
C100 C101 1.373 . S
C101 H95 0.930 1_455 S
C101 C100 1.373 . S
C101 C102 1.371 . S
C102 C101 1.371 . S
C102 C103 1.383 . S
C103 H94 0.931 . S
C103 C99 1.397 . S
C103 C102 1.383 . S
H104 C109 0.929 . S
H105 C114 0.931 . S
H106 C112 0.930 1_565 S
N107 N108 1.234 . S
N107 C111 1.453 1_565 S
N108 N107 1.234 . S
C109 H104 0.929 . S
C109 C110 1.373 . S
C109 C111 1.368 . S
C110 C109 1.373 . S
C110 C114 1.397 . S
C111 N107 1.453 1_545 S
C111 C109 1.368 . S
C111 C112 1.373 . S
C112 H106 0.930 1_545 S
C112 C111 1.373 . S
C112 C113 1.371 . S
C113 C112 1.371 . S
C113 C114 1.383 . S
C114 H105 0.931 . S
C114 C110 1.397 . S
C114 C113 1.383 . S
H115 C120 0.929 . S
H116 C125 0.931 . S
H117 C123 0.930 . S
N118 N119 1.234 . S
N118 C122 1.453 . S
N119 N118 1.234 . S
C120 H115 0.929 . S
C120 C121 1.373 . S
C120 C122 1.368 . S
C121 C120 1.373 . S
C121 C125 1.397 . S
C122 N118 1.453 . S
C122 C120 1.368 . S
C122 C123 1.373 . S
C123 H117 0.930 . S
C123 C122 1.373 . S
C123 C124 1.371 . S
C124 C123 1.371 . S
C124 C125 1.383 . S
C125 H116 0.931 . S
C125 C121 1.397 . S
C125 C124 1.383 . S
C126 C127 1.387 . S
C126 H130 0.950 . S
C126 C135 1.390 . S
C127 C126 1.387 . S
C127 C129 1.387 . S
H128 C135 0.950 . S
C129 C127 1.387 . S
C129 C131 1.390 . S
C129 H133 0.950 . S
H130 C126 0.950 . S
C131 C129 1.390 . S
C131 C132 1.387 . S
C131 H134 0.950 . S
C132 C131 1.387 . S
C132 C135 1.387 . S
H133 C129 0.950 . S
H134 C131 0.950 . S
C135 C126 1.390 . S
C135 H128 0.950 . S
C135 C132 1.387 . S
C136 C137 1.387 . S
C136 H140 0.950 . S
C136 C145 1.390 . S
C137 C136 1.387 . S
C137 C139 1.387 . S
H138 C145 0.950 . S
C139 C137 1.387 . S
C139 C141 1.390 . S
C139 H143 0.950 . S
H140 C136 0.950 . S
C141 C139 1.390 . S
C141 C142 1.387 . S
C141 H144 0.950 . S
C142 C141 1.387 . S
C142 C145 1.387 . S
H143 C139 0.950 . S
H144 C141 0.950 . S
C145 C136 1.390 . S
C145 H138 0.950 . S
C145 C142 1.387 . S
C146 C147 1.387 . S
C146 H150 0.950 . S
C146 C155 1.390 . S
C147 C146 1.387 . S
C147 C149 1.387 . S
H148 C155 0.950 . S
C149 C147 1.387 . S
C149 C151 1.390 . S
C149 H153 0.950 . S
H150 C146 0.950 . S
C151 C149 1.390 . S
C151 C152 1.387 . S
C151 H154 0.950 . S
C152 C151 1.387 . S
C152 C155 1.387 . S
H153 C149 0.950 . S
H154 C151 0.950 . S
C155 C146 1.390 . S
C155 H148 0.950 . S
C155 C152 1.387 . S
C156 C157 1.387 . S
C156 H160 0.950 . S
C156 C165 1.390 . S
C157 C156 1.387 . S
C157 C159 1.387 . S
H158 C165 0.950 . S
C159 C157 1.387 . S
C159 C161 1.390 . S
C159 H163 0.950 . S
H160 C156 0.950 . S
C161 C159 1.390 . S
C161 C162 1.387 . S
C161 H164 0.950 . S
C162 C161 1.387 . S
C162 C165 1.387 . S
H163 C159 0.950 . S
H164 C161 0.950 . S
C165 C156 1.390 . S
C165 H158 0.950 . S
C165 C162 1.387 . S
C166 C167 1.387 . S
C166 H170 0.950 . S
C166 C175 1.390 . S
C167 C166 1.387 . S
C167 C169 1.387 . S
H168 C175 0.950 . S
C169 C167 1.387 . S
C169 C171 1.390 . S
C169 H173 0.950 . S
H170 C166 0.950 . S
C171 C169 1.390 . S
C171 C172 1.387 . S
C171 H174 0.950 . S
C172 C171 1.387 . S
C172 C175 1.387 . S
H173 C169 0.950 . S
H174 C171 0.950 . S
C175 C166 1.390 . S
C175 H168 0.950 . S
C175 C172 1.387 . S
C176 C177 1.387 . S
C176 H180 0.950 . S
C176 C185 1.390 . S
C177 C176 1.387 . S
C177 C179 1.387 . S
H178 C185 0.950 . S
C179 C177 1.387 . S
C179 C181 1.390 . S
C179 H183 0.950 . S
H180 C176 0.950 . S
C181 C179 1.390 . S
C181 C182 1.387 . S
C181 H184 0.950 . S
C182 C181 1.387 . S
C182 C185 1.387 . S
H183 C179 0.950 . S
H184 C181 0.950 . S
C185 C176 1.390 . S
C185 H178 0.950 . S
C185 C182 1.387 . S
C186 C187 1.387 . S
C186 H190 0.950 . S
C186 C195 1.390 . S
C187 C186 1.387 . S
C187 C189 1.387 . S
H188 C195 0.950 . S
C189 C187 1.387 . S
C189 C191 1.390 . S
C189 H193 0.950 . S
H190 C186 0.950 . S
C191 C189 1.390 . S
C191 C192 1.387 . S
C191 H194 0.950 . S
C192 C191 1.387 . S
C192 C195 1.387 . S
H193 C189 0.950 . S
H194 C191 0.950 . S
C195 C186 1.390 . S
C195 H188 0.950 . S
C195 C192 1.387 . S
C196 C197 1.387 . S
C196 H200 0.950 . S
C196 C205 1.390 . S
C197 C196 1.387 . S
C197 C199 1.387 . S
H198 C205 0.950 . S
C199 C197 1.387 . S
C199 C201 1.390 . S
C199 H203 0.950 . S
H200 C196 0.950 . S
C201 C199 1.390 . S
C201 C202 1.387 . S
C201 H204 0.950 . S
C202 C201 1.387 . S
C202 C205 1.387 . S
H203 C199 0.950 . S
H204 C201 0.950 . S
C205 C196 1.390 . S
C205 H198 0.950 . S
C205 C202 1.387 . S
C206 C207 1.387 . S
C206 H210 0.950 . S
C206 C215 1.390 . S
C207 C206 1.387 . S
C207 C209 1.387 . S
H208 C215 0.950 . S
C209 C207 1.387 . S
C209 C211 1.390 . S
C209 H213 0.950 . S
H210 C206 0.950 . S
C211 C209 1.390 . S
C211 C212 1.387 . S
C211 H214 0.950 . S
C212 C211 1.387 . S
C212 C215 1.387 . S
H213 C209 0.950 . S
H214 C211 0.950 . S
C215 C206 1.390 . S
C215 H208 0.950 . S
C215 C212 1.387 . S
C216 C217 1.387 . S
C216 H220 0.950 . S
C216 C225 1.390 . S
C217 C216 1.387 . S
C217 C219 1.387 . S
H218 C225 0.950 . S
C219 C217 1.387 . S
C219 C221 1.390 . S
C219 H223 0.950 . S
H220 C216 0.950 . S
C221 C219 1.390 . S
C221 C222 1.387 . S
C221 H224 0.950 . S
C222 C221 1.387 . S
C222 C225 1.387 . S
H223 C219 0.950 . S
H224 C221 0.950 . S
C225 C216 1.390 . S
C225 H218 0.950 . S
C225 C222 1.387 . S
C226 C227 1.387 . S
C226 H230 0.950 . S
C226 C235 1.390 . S
C227 C226 1.387 . S
C227 C229 1.387 . S
H228 C235 0.950 . S
C229 C227 1.387 . S
C229 C231 1.390 . S
C229 H233 0.950 . S
H230 C226 0.950 . S
C231 C229 1.390 . S
C231 C232 1.387 . S
C231 H234 0.950 . S
C232 C231 1.387 . S
C232 C235 1.387 . S
H233 C229 0.950 . S
H234 C231 0.950 . S
C235 C226 1.390 . S
C235 H228 0.950 . S
C235 C232 1.387 . S
C236 C237 1.387 . S
C236 H240 0.950 . S
C236 C245 1.390 . S
C237 C236 1.387 . S
C237 C239 1.387 . S
H238 C245 0.950 . S
C239 C237 1.387 . S
C239 C241 1.390 . S
C239 H243 0.950 . S
H240 C236 0.950 . S
C241 C239 1.390 . S
C241 C242 1.387 . S
C241 H244 0.950 . S
C242 C241 1.387 . S
C242 C245 1.387 . S
H243 C239 0.950 . S
H244 C241 0.950 . S
C245 C236 1.390 . S
C245 H238 0.950 . S
C245 C242 1.387 . S
C246 C247 1.387 1_655 S
C246 H250 0.950 . S
C246 C255 1.390 1_554 S
C247 C246 1.387 1_455 S
C247 C249 1.387 . S
H248 C255 0.950 . S
C249 C247 1.387 . S
C249 C251 1.390 . S
C249 H253 0.950 . S
H250 C246 0.950 . S
C251 C249 1.390 . S
C251 C252 1.387 1_554 S
C251 H254 0.950 1_554 S
C252 C251 1.387 1_556 S
C252 C255 1.387 1_455 S
H253 C249 0.950 . S
H254 C251 0.950 1_556 S
C255 C246 1.390 1_556 S
C255 H248 0.950 . S
C255 C252 1.387 1_655 S
C256 C257 1.387 . S
C256 H260 0.950 . S
C256 C265 1.390 . S
C257 C256 1.387 . S
C257 C259 1.387 1_545 S
H258 C265 0.950 . S
C259 C257 1.387 1_565 S
C259 C261 1.390 . S
C259 H263 0.950 . S
H260 C256 0.950 . S
C261 C259 1.390 . S
C261 C262 1.387 1_565 S
C261 H264 0.950 . S
C262 C261 1.387 1_545 S
C262 C265 1.387 . S
H263 C259 0.950 . S
H264 C261 0.950 . S
C265 C256 1.390 . S
C265 H258 0.950 . S
C265 C262 1.387 . S
C266 C267 1.387 . S
C266 H270 0.950 . S
C266 C275 1.390 . S
C267 C266 1.387 . S
C267 C269 1.387 . S
H268 C275 0.950 . S
C269 C267 1.387 . S
C269 C271 1.390 . S
C269 H273 0.950 . S
H270 C266 0.950 . S
C271 C269 1.390 . S
C271 C272 1.387 . S
C271 H274 0.950 . S
C272 C271 1.387 . S
C272 C275 1.387 . S
H273 C269 0.950 . S
H274 C271 0.950 . S
C275 C266 1.390 . S
C275 H268 0.950 . S
C275 C272 1.387 . S
C276 C277 1.387 . S
C276 H280 0.950 . S
C276 C285 1.390 . S
C277 C276 1.387 . S
C277 C279 1.387 1_545 S
H278 C285 0.950 . S
C279 C277 1.387 1_565 S
C279 C281 1.390 . S
C279 H283 0.950 . S
H280 C276 0.950 . S
C281 C279 1.390 . S
C281 C282 1.387 1_565 S
C281 H284 0.950 . S
C282 C281 1.387 1_545 S
C282 C285 1.387 . S
H283 C279 0.950 . S
H284 C281 0.950 . S
C285 C276 1.390 . S
C285 H278 0.950 . S
C285 C282 1.387 . S
C286 C287 1.387 . S
C286 H290 0.950 . S
C286 C295 1.390 . S
C287 C286 1.387 . S
C287 C289 1.387 . S
H288 C295 0.950 1_554 S
C289 C287 1.387 . S
C289 C291 1.390 1_556 S
C289 H293 0.950 . S
H290 C286 0.950 . S
C291 C289 1.390 1_554 S
C291 C292 1.387 . S
C291 H294 0.950 . S
C292 C291 1.387 . S
C292 C295 1.387 1_554 S
H293 C289 0.950 . S
H294 C291 0.950 . S
C295 C286 1.390 . S
C295 H288 0.950 1_556 S
C295 C292 1.387 1_556 S
C296 C297 1.387 1_655 S
C296 H300 0.950 . S
C296 C305 1.390 . S
C297 C296 1.387 1_455 S
C297 C299 1.387 . S
H298 C305 0.950 . S
C299 C297 1.387 . S
C299 C301 1.390 . S
C299 H303 0.950 . S
H300 C296 0.950 . S
C301 C299 1.390 . S
C301 C302 1.387 . S
C301 H304 0.950 . S
C302 C301 1.387 . S
C302 C305 1.387 1_455 S
H303 C299 0.950 . S
H304 C301 0.950 . S
C305 C296 1.390 . S
C305 H298 0.950 . S
C305 C302 1.387 1_655 S
C127 C2 1.494 . S
C132 N119 1.541 . S
C137 C22 1.491 . S
C142 N97 1.555 . S
C147 C44 1.492 . S
C152 N108 1.546 . S
C157 C4 1.451 . S
C162 C121 1.555 . S
C172 C99 1.548 . S
C167 C24 1.461 . S
C182 C110 1.537 . S
C177 C42 1.435 . S
C187 C32 1.421 . S
C192 N75 1.384 . S
C197 C49 1.231 . S
C202 C88 1.255 . S
C207 C9 1.214 . S
C212 C66 1.247 . S
C222 C77 1.290 . S
C217 C29 1.218 . S
C232 N86 1.346 . S
C227 C52 1.321 . S
C237 C12 1.332 . S
C242 N64 1.344 . S
C252 C91 1.483 . S
C247 C18 1.492 . S
C257 C38 1.468 . S
C262 C69 1.465 . S
C267 C58 1.455 . S
C272 C80 1.487 . S
C282 C113 1.518 . S
C277 C39 1.505 . S
C292 C124 1.521 . S
C287 C59 1.514 . S
C297 C19 1.504 . S
C302 C102 1.533 . S
