# Generated by pormake.
# Topology pth, (4,4)-cn, num edge types: 1
# Building blocks:
#     Node 0, Type 0, BuildingBlock: NAHDIM_clean_sbu_0, # of connection points: 4
#     Node 1, Type 0, BuildingBlock: NAHDIM_clean_sbu_0, # of connection points: 4
#     Node 2, Type 0, BuildingBlock: NAHDIM_clean_sbu_0, # of connection points: 4
#     Node 3, Type 1, BuildingBlock: MUDLON_clean_linker_0, # of connection points: 4
#     Node 4, Type 1, BuildingBlock: MUDLON_clean_linker_0, # of connection points: 4
#     Node 5, Type 1, BuildingBlock: MUDLON_clean_linker_0, # of connection points: 4
#     Edge 6, Type (0, 1), BuildingBlock: UVAHIK_clean_linker_0, # of connection points: 2
#     Edge 7, Type (0, 1), BuildingBlock: UVAHIK_clean_linker_0, # of connection points: 2
#     Edge 8, Type (0, 1), BuildingBlock: UVAHIK_clean_linker_0, # of connection points: 2
#     Edge 9, Type (0, 1), BuildingBlock: UVAHIK_clean_linker_0, # of connection points: 2
#     Edge 10, Type (0, 1), BuildingBlock: UVAHIK_clean_linker_0, # of connection points: 2
#     Edge 11, Type (0, 1), BuildingBlock: UVAHIK_clean_linker_0, # of connection points: 2
#     Edge 12, Type (0, 1), BuildingBlock: UVAHIK_clean_linker_0, # of connection points: 2
#     Edge 13, Type (0, 1), BuildingBlock: UVAHIK_clean_linker_0, # of connection points: 2
#     Edge 14, Type (0, 1), BuildingBlock: UVAHIK_clean_linker_0, # of connection points: 2
#     Edge 15, Type (0, 1), BuildingBlock: UVAHIK_clean_linker_0, # of connection points: 2
#     Edge 16, Type (0, 1), BuildingBlock: UVAHIK_clean_linker_0, # of connection points: 2
#     Edge 17, Type (0, 1), BuildingBlock: UVAHIK_clean_linker_0, # of connection points: 2
# Relax obj value: 0.055
# Max RMSD: 0.169
# Mean RMSD: 0.116
data_MOF--net-pth--node1-NAHDIM_clean_sbu_0--node2-MUDLON_clean_linker_0--edge1-UVAHIK_clean_linker_0
_symmetry_space_group_name_H-M    P1
_symmetry_Int_Tables_number       1
_symmetry_cell_setting            triclinic
loop_
_symmetry_equiv_pos_as_xyz
'x, y, z'
_cell_length_a     40.83281
_cell_length_b     41.036876
_cell_length_c     81.441215
_cell_angle_alpha  91.62728
_cell_angle_beta   90.06578
_cell_angle_gamma 120.45787
loop_
_atom_site_label
_atom_site_type_symbol
_atom_site_fract_x
_atom_site_fract_y
_atom_site_fract_z
_atom_type_partial_charge
C0 C 0.07534 0.98474 0.0566 0.0
O1 O 0.09038 0.01966 0.06245 0.0
O2 O 0.02804 0.03788 0.04925 0.0
Zn3 Zn 0.04213 0.01031 0.03248 0.0
O4 O 0.99694 0.98006 0.01739 0.0
C5 C 0.10904 0.08122 0.02587 0.0
O6 O 0.10307 0.08958 0.04084 0.0
O7 O 0.05432 0.97473 0.04377 0.0
C8 C 0.99306 0.95224 0.00857 0.0
O9 O 0.01979 0.94339 0.00899 0.0
C10 C 0.01066 0.05446 0.04458 0.0
O11 O 0.00165 0.05251 0.02894 0.0
O12 O 0.08694 0.04831 0.01967 0.0
C13 C 0.04651 0.06959 0.33309 0.0
O14 O 0.03013 0.03577 0.32595 0.0
O15 O 0.02441 0.98074 0.34768 0.0
Zn16 Zn 0.03846 0.02707 0.36198 0.0
O17 O 0.99384 0.02111 0.3748 0.0
C18 C 0.11443 0.05855 0.37677 0.0
O19 O 0.1255 0.08331 0.36512 0.0
O20 O 0.05496 0.07315 0.34831 0.0
C21 C 0.96944 0.99211 0.38222 0.0
O22 O 0.97212 0.96152 0.38198 0.0
C23 C 0.99143 0.95769 0.34184 0.0
O24 O 0.96329 0.96366 0.34492 0.0
O25 O 0.07948 0.03361 0.37772 0.0
C26 C 0.08093 0.97603 0.69305 0.0
O27 O 0.09267 0.99346 0.70747 0.0
O28 O 0.98785 0.99717 0.68229 0.0
Zn29 Zn 0.01557 0.98474 0.69924 0.0
O30 O 0.04765 0.03085 0.71391 0.0
C31 C 0.95222 0.9515 0.71925 0.0
O32 O 0.95736 0.98546 0.71733 0.0
O33 O 0.04865 0.96844 0.68744 0.0
C34 C 0.0547 0.02839 0.72888 0.0
O35 O 0.04123 0.99479 0.73504 0.0
C36 C 0.98988 0.02909 0.68185 0.0
O37 O 0.01203 0.05612 0.69248 0.0
O38 O 0.97533 0.94321 0.71259 0.0
H39 H 0.89888 0.61904 0.19425 0.0
N40 N 0.94702 0.59491 0.18846 0.0
H41 H 0.89976 0.65847 0.2175 0.0
H42 H 0.99211 0.61386 0.21626 0.0
H43 H 0.99228 0.65181 0.23977 0.0
H44 H 0.02319 0.64728 0.1902 0.0
H45 H 0.05873 0.69586 0.17039 0.0
H46 H 0.92307 0.60107 0.15911 0.0
H47 H 0.95784 0.6506 0.1395 0.0
H48 H 0.8869 0.52605 0.18583 0.0
H49 H 0.00809 0.58549 0.19425 0.0
H50 H 0.88442 0.46573 0.18867 0.0
H51 H 0.00579 0.52576 0.19796 0.0
H52 H 0.89436 0.28829 0.22023 0.0
H53 H 0.9174 0.2696 0.24376 0.0
H54 H 0.02705 0.37145 0.24038 0.0
H55 H 0.00365 0.38971 0.2167 0.0
H56 H 0.00213 0.35671 0.19084 0.0
H57 H 0.01126 0.32191 0.16834 0.0
H58 H 0.89079 0.26285 0.15729 0.0
H59 H 0.88186 0.29824 0.1799 0.0
H60 H 0.88521 0.36711 0.21156 0.0
H61 H 0.88943 0.42824 0.20879 0.0
H62 H 0.99661 0.47013 0.18419 0.0
N63 N 0.93396 0.34671 0.20144 0.0
H64 H 0.99299 0.40972 0.18781 0.0
C65 C 0.94518 0.61334 0.20346 0.0
C66 C 0.91887 0.62563 0.20431 0.0
C67 C 0.91936 0.64802 0.21765 0.0
C68 C 0.94624 0.6585 0.2305 0.0
C69 C 0.9716 0.64479 0.22997 0.0
C70 C 0.97128 0.62265 0.21654 0.0
C71 C 0.97038 0.6203 0.17604 0.0
C72 C 0.00903 0.647 0.17893 0.0
C73 C 0.02924 0.67516 0.16766 0.0
C74 C 0.01113 0.67745 0.15339 0.0
C75 C 0.97296 0.64951 0.15021 0.0
C76 C 0.95292 0.62123 0.16142 0.0
C77 C 0.94742 0.56023 0.18991 0.0
C78 C 0.91292 0.52601 0.18839 0.0
C79 C 0.91158 0.49164 0.19017 0.0
C80 C 0.94488 0.49078 0.19372 0.0
C81 C 0.97964 0.52523 0.19507 0.0
C82 C 0.98095 0.55961 0.19308 0.0
C83 C 0.94716 0.34013 0.2167 0.0
C84 C 0.92307 0.30692 0.22483 0.0
C85 C 0.93631 0.29644 0.23831 0.0
C86 C 0.97415 0.31903 0.24394 0.0
C87 C 0.99788 0.35329 0.23623 0.0
C88 C 0.98448 0.36384 0.22275 0.0
C89 C 0.94108 0.32988 0.18712 0.0
C90 C 0.97767 0.33668 0.18351 0.0
C91 C 0.98287 0.31658 0.17067 0.0
C92 C 0.9517 0.28938 0.16116 0.0
C93 C 0.9154 0.2838 0.16433 0.0
C94 C 0.91021 0.30386 0.17723 0.0
C95 C 0.93834 0.38356 0.19975 0.0
C96 C 0.90964 0.38964 0.20564 0.0
C97 C 0.91201 0.4245 0.20391 0.0
C98 C 0.94316 0.45409 0.19607 0.0
C99 C 0.97235 0.44815 0.19041 0.0
C100 C 0.97013 0.41334 0.19233 0.0
H101 H 0.76152 0.13969 0.53831 0.0
N102 N 0.69136 0.09104 0.52777 0.0
H103 H 0.79625 0.13268 0.56114 0.0
H104 H 0.66196 0.0339 0.54961 0.0
H105 H 0.69627 0.02677 0.57261 0.0
H106 H 0.68319 0.02091 0.52238 0.0
H107 H 0.70427 0.00037 0.49848 0.0
H108 H 0.71352 0.12565 0.49941 0.0
H109 H 0.73222 0.10417 0.47475 0.0
H110 H 0.67611 0.14171 0.54059 0.0
H111 H 0.62212 0.02769 0.52032 0.0
H112 H 0.61411 0.13567 0.54447 0.0
H113 H 0.56003 0.02213 0.52305 0.0
H114 H 0.43675 0.10629 0.5677 0.0
H115 H 0.39167 0.07871 0.59001 0.0
H116 H 0.34122 0.96916 0.56498 0.0
H117 H 0.38579 0.99719 0.54265 0.0
H118 H 0.41142 0.016 0.51602 0.0
H119 H 0.37431 0.01131 0.4914 0.0
H120 H 0.38502 0.11889 0.50496 0.0
H121 H 0.42147 0.12295 0.52963 0.0
H122 H 0.50461 0.13167 0.53268 0.0
H123 H 0.56546 0.13484 0.52945 0.0
H124 H 0.51245 0.01652 0.54083 0.0
N125 N 0.43841 0.07243 0.53977 0.0
H126 H 0.45132 0.01324 0.54292 0.0
C127 C 0.70935 0.08748 0.54229 0.0
C128 C 0.74705 0.11529 0.54592 0.0
C129 C 0.76673 0.11126 0.55899 0.0
C130 C 0.749 0.07912 0.56866 0.0
C131 C 0.71079 0.05164 0.56527 0.0
C132 C 0.69108 0.0558 0.55221 0.0
C133 C 0.69784 0.07546 0.51285 0.0
C134 C 0.69385 0.03932 0.51207 0.0
C135 C 0.70551 0.02733 0.49821 0.0
C136 C 0.72062 0.05081 0.48468 0.0
C137 C 0.72183 0.08575 0.48508 0.0
C138 C 0.71082 0.09799 0.49908 0.0
C139 C 0.6539 0.08562 0.52992 0.0
C140 C 0.65078 0.11551 0.53682 0.0
C141 C 0.61526 0.11204 0.53887 0.0
C142 C 0.58186 0.07862 0.5338 0.0
C143 C 0.58499 0.04822 0.5272 0.0
C144 C 0.62064 0.05151 0.52544 0.0
C145 C 0.41464 0.05401 0.55353 0.0
C146 C 0.41634 0.07623 0.56722 0.0
C147 C 0.39066 0.06033 0.57997 0.0
C148 C 0.36269 0.02171 0.57925 0.0
C149 C 0.36207 -0.0009 0.5658 0.0
C150 C 0.38774 0.01508 0.55304 0.0
C151 C 0.41876 0.06975 0.52468 0.0
C152 C 0.40569 0.03848 0.51367 0.0
C153 C 0.38459 0.03587 0.49963 0.0
C154 C 0.37684 0.06476 0.49628 0.0
C155 C 0.39092 0.09642 0.50712 0.0
C156 C 0.41153 0.09874 0.52122 0.0
C157 C 0.4736 0.07258 0.53829 0.0
C158 C 0.50626 0.10648 0.53445 0.0
C159 C 0.54107 0.10823 0.53277 0.0
C160 C 0.54422 0.07607 0.53514 0.0
C161 C 0.5112 0.04182 0.5388 0.0
C162 C 0.47612 0.03997 0.54019 0.0
H163 H 0.60792 0.75817 0.87937 0.0
N164 N 0.57796 0.68839 0.86682 0.0
H165 H 0.65612 0.7882 0.90126 0.0
H166 H 0.60288 0.65217 0.88699 0.0
H167 H 0.64988 0.68148 0.90909 0.0
H168 H 0.63422 0.67333 0.85866 0.0
H169 H 0.67421 0.69538 0.83463 0.0
H170 H 0.56824 0.72069 0.84097 0.0
H171 H 0.60708 0.74145 0.81637 0.0
H172 H 0.50865 0.67597 0.87205 0.0
H173 H 0.57072 0.6184 0.86273 0.0
H174 H 0.44946 0.61525 0.87279 0.0
H175 H 0.51241 0.55756 0.86465 0.0
H176 H 0.2779 0.41434 0.89326 0.0
H177 H 0.26572 0.3752 0.91722 0.0
H178 H 0.37274 0.37967 0.91028 0.0
H179 H 0.38521 0.41973 0.88658 0.0
H180 H 0.35725 0.38891 0.86103 0.0
H181 H 0.32488 0.34044 0.83951 0.0
H182 H 0.24712 0.38082 0.83137 0.0
H183 H 0.28008 0.42985 0.85306 0.0
H184 H 0.3551 0.50251 0.88939 0.0
H185 H 0.41453 0.56276 0.88849 0.0
H186 H 0.45543 0.51491 0.8515 0.0
N187 N 0.33586 0.43853 0.87298 0.0
H188 H 0.39736 0.45447 0.85332 0.0
C189 C 0.60158 0.70301 0.88148 0.0
C190 C 0.61648 0.74117 0.88606 0.0
C191 C 0.64395 0.75822 0.89859 0.0
C192 C 0.65709 0.7373 0.90686 0.0
C193 C 0.64084 0.69856 0.90278 0.0
C194 C 0.61351 0.68159 0.89019 0.0
C195 C 0.59857 0.69602 0.85172 0.0
C196 C 0.62783 0.68784 0.84943 0.0
C197 C 0.65058 0.70026 0.83557 0.0
C198 C 0.64424 0.72068 0.82363 0.0
C199 C 0.61336 0.72662 0.8255 0.0
C200 C 0.59092 0.71453 0.83944 0.0
C201 C 0.54406 0.65179 0.86758 0.0
C202 C 0.50947 0.6501 0.87042 0.0
C203 C 0.47573 0.61529 0.87097 0.0
C204 C 0.47595 0.5812 0.86893 0.0
C205 C 0.51086 0.58304 0.86606 0.0
C206 C 0.54449 0.61795 0.86519 0.0
C207 C 0.33208 0.41952 0.88808 0.0
C208 C 0.29901 0.40747 0.89714 0.0
C209 C 0.29219 0.38526 0.9108 0.0
C210 C 0.31825 0.37433 0.91551 0.0
C211 C 0.35211 0.38752 0.90679 0.0
C212 C 0.3592 0.4103 0.89327 0.0
C213 C 0.32094 0.41309 0.85876 0.0
C214 C 0.33357 0.38781 0.85456 0.0
C215 C 0.31491 0.3599 0.84226 0.0
C216 C 0.28317 0.35651 0.83389 0.0
C217 C 0.27164 0.38286 0.83755 0.0
C218 C 0.29036 0.41082 0.84991 0.0
C219 C 0.37123 0.47381 0.87142 0.0
C220 C 0.37699 0.5051 0.88111 0.0
C221 C 0.41095 0.53966 0.88046 0.0
C222 C 0.43995 0.54404 0.86982 0.0
C223 C 0.43413 0.51262 0.86005 0.0
C224 C 0.4004 0.4778 0.86096 0.0
C225 C 0.98055 0.09309 0.05155 0.0
C226 C 0.002 0.07689 0.05646 0.0
C227 C 0.97317 0.11508 0.06266 0.0
C228 C 0.97238 0.13579 0.10721 0.0
H229 H 0.97858 0.22781 0.0925 0.0
C230 C 0.97942 0.2497 0.15229 0.0
C231 C 0.95678 0.26543 0.14863 0.0
C232 C 0.98346 0.22614 0.14081 0.0
C233 C 0.97633 0.20198 0.09674 0.0
H234 H 0.03255 0.07103 0.0769 0.0
H235 H 0.02026 0.10985 0.09619 0.0
H236 H 0.98825 0.18741 0.07295 0.0
H237 H 0.92096 0.26915 0.13001 0.0
H238 H 0.92802 0.22779 0.10987 0.0
H239 H 0.9611 0.15074 0.13105 0.0
C240 C 0.00851 0.10504 0.08383 0.0
C241 C 0.98181 0.17878 0.08554 0.0
C242 C 0.01574 0.08294 0.07275 0.0
C243 C 0.93844 0.25728 0.13318 0.0
C244 C 0.9427 0.23386 0.12163 0.0
C245 C 0.96711 0.15907 0.1184 0.0
C246 C 0.98721 0.12146 0.07892 0.0
C247 C 0.98015 0.14552 0.09067 0.0
C248 C 0.96507 0.21786 0.12538 0.0
C249 C 0.9693 0.19254 0.11332 0.0
H250 H 0.96941 0.08884 0.0391 0.0
H251 H 0.95622 0.12684 0.05853 0.0
H252 H 0.97016 0.11002 0.11151 0.0
H253 H 0.99353 0.25507 0.16416 0.0
H254 H 0.0012 0.21456 0.14399 0.0
C255 C 0.93877 0.02762 0.39292 0.0
C256 C 0.93817 0.99321 0.39089 0.0
C257 C 0.90961 0.02922 0.40108 0.0
C258 C 0.83309 0.97818 0.43067 0.0
H259 H 0.80403 0.05021 0.41739 0.0
C260 C 0.72333 0.00222 0.46587 0.0
C261 C 0.73788 0.04031 0.4709 0.0
C262 C 0.74224 0.9924 0.45419 0.0
C263 C 0.81176 0.02986 0.42118 0.0
H264 H 0.90614 0.93331 0.39569 0.0
H265 H 0.85463 0.93596 0.40975 0.0
H266 H 0.84717 0.03963 0.40043 0.0
H267 H 0.7836 0.09787 0.46718 0.0
H268 H 0.81541 0.08075 0.44648 0.0
H269 H 0.79765 0.96871 0.4515 0.0
C270 C 0.87808 0.96185 0.40523 0.0
C271 C 0.83664 0.02394 0.41154 0.0
C272 C 0.90752 0.9603 0.39714 0.0
C273 C 0.77092 0.06834 0.46343 0.0
C274 C 0.78938 0.05856 0.4516 0.0
C275 C 0.80781 0.9838 0.44021 0.0
C276 C 0.87882 0.9964 0.40732 0.0
C277 C 0.84854 -0.00112 0.41643 0.0
C278 C 0.77564 0.02049 0.44708 0.0
C279 C 0.79776 0.01045 0.43578 0.0
H280 H 0.96206 0.05358 0.38836 0.0
H281 H 0.91169 0.05648 0.40278 0.0
H282 H 0.84185 0.95892 0.4349 0.0
H283 H 0.6976 0.97988 0.47109 0.0
H284 H 0.73094 0.96284 0.4508 0.0
C285 C 0.89386 0.93328 0.7354 0.0
C286 C 0.9193 0.92339 0.72853 0.0
C287 C 0.86214 0.90691 0.74383 0.0
C288 C 0.82397 0.81876 0.76616 0.0
H289 H 0.72915 0.81797 0.76082 0.0
C290 C 0.68892 0.71993 0.80245 0.0
C291 C 0.67146 0.73832 0.81005 0.0
C292 C 0.7168 0.73816 0.79064 0.0
C293 C 0.75543 0.81788 0.76246 0.0
H294 H 0.93153 0.878 0.72523 0.0
H295 H 0.87579 0.83168 0.74001 0.0
H296 H 0.78294 0.85802 0.74373 0.0
H297 H 0.6698 0.79041 0.8111 0.0
H298 H 0.71763 0.82166 0.79043 0.0
H299 H 0.7965 0.77907 0.78513 0.0
C300 C 0.88062 0.86002 0.7389 0.0
C301 C 0.78626 0.84086 0.7527 0.0
C302 C 0.91246 0.8865 0.7304 0.0
C303 C 0.68191 0.77496 0.80527 0.0
C304 C 0.70948 0.793 0.79343 0.0
C305 C 0.79302 0.79564 0.77592 0.0
C306 C 0.855 0.86991 0.74561 0.0
C307 C 0.82118 0.8423 0.75472 0.0
C308 C 0.72755 0.77501 0.78612 0.0
C309 C 0.75873 0.79568 0.77443 0.0
H310 H 0.89833 0.96148 0.73426 0.0
H311 H 0.84342 0.9157 0.74913 0.0
H312 H 0.85054 0.8194 0.76809 0.0
H313 H 0.68123 0.69153 0.80567 0.0
H314 H 0.73002 0.72348 0.78509 0.0
C315 C 0.09909 0.96592 0.08086 0.0
C316 C 0.08013 0.95648 0.06553 0.0
C317 C 0.1005 0.93827 0.08997 0.0
C318 C 0.08552 0.84119 0.0875 0.0
H319 H 0.05604 0.83816 0.13291 0.0
C320 C 0.02363 0.70677 0.12566 0.0
C321 C 0.03047 0.71071 0.14273 0.0
C322 C 0.03743 0.73864 0.11604 0.0
C323 C 0.06511 0.8389 0.12037 0.0
H324 H 0.04931 0.91096 0.04739 0.0
H325 H 0.05159 0.86279 0.06331 0.0
H326 H 0.06662 0.89091 0.11641 0.0
H327 H 0.05895 0.75149 0.1629 0.0
H328 H 0.08411 0.80678 0.14606 0.0
H329 H 0.08323 0.78867 0.09141 0.0
C330 C 0.06556 0.89158 0.06826 0.0
C331 C 0.07113 0.8692 0.11089 0.0
C332 C 0.06402 0.91916 0.05919 0.0
C333 C 0.05331 0.74724 0.14979 0.0
C334 C 0.06732 0.77906 0.14015 0.0
C335 C 0.07964 0.81089 0.09701 0.0
C336 C 0.08314 0.90065 0.0839 0.0
C337 C 0.08077 0.87039 0.09428 0.0
C338 C 0.05861 0.77522 0.12325 0.0
C339 C 0.06874 0.80907 0.11349 0.0
H340 H 0.11199 0.99445 0.08606 0.0
H341 H 0.11466 0.94622 0.10189 0.0
H342 H 0.09338 0.84157 0.07478 0.0
H343 H 0.00666 0.67905 0.11978 0.0
H344 H 0.02998 0.73458 0.10308 0.0
C345 C 0.13131 0.02826 0.39888 0.0
C346 C 0.14238 0.05855 0.38836 0.0
C347 C 0.15757 0.0277 0.40967 0.0
C348 C 0.26117 0.07083 0.41779 0.0
H349 H 0.22785 0.03225 0.46127 0.0
C350 C 0.36298 0.09241 0.47203 0.0
C351 C 0.35263 0.06137 0.48201 0.0
C352 C 0.33845 0.09038 0.45955 0.0
C353 C 0.23745 0.04267 0.4491 0.0
H354 H 0.18973 0.11212 0.38097 0.0
H355 H 0.23542 0.11169 0.40017 0.0
H356 H 0.18288 0.03312 0.44191 0.0
H357 H 0.30898 0.00361 0.48652 0.0
H358 H 0.26601 0.0001 0.4647 0.0
H359 H 0.31614 0.08129 0.4253 0.0
C360 C 0.20659 0.08793 0.39982 0.0
C361 C 0.21168 0.04315 0.43797 0.0
C362 C 0.18033 0.08833 0.3889 0.0
C363 C 0.31778 0.02788 0.47895 0.0
C364 C 0.29308 0.02599 0.46657 0.0
C365 C 0.28707 0.07067 0.429 0.0
C366 C 0.19551 0.0576 0.41036 0.0
C367 C 0.22316 0.05719 0.42216 0.0
C368 C 0.30293 0.05742 0.45692 0.0
C369 C 0.27543 0.05656 0.44476 0.0
H370 H 0.10237 0.00467 0.39867 0.0
H371 H 0.14814 0.00353 0.41736 0.0
H372 H 0.27088 0.08128 0.40564 0.0
H373 H 0.38982 0.11847 0.47406 0.0
H374 H 0.3467 0.11509 0.45235 0.0
C375 C 0.0893 0.09887 0.7332 0.0
C376 C 0.0785 0.06299 0.73912 0.0
C377 C 0.11197 0.13156 0.74286 0.0
C378 C 0.18089 0.16758 0.77727 0.0
H379 H 0.15511 0.24627 0.78164 0.0
C380 C 0.25232 0.28763 0.82624 0.0
C381 C 0.2609 0.32415 0.82218 0.0
C382 C 0.23087 0.25679 0.81551 0.0
C383 C 0.16306 0.22485 0.78036 0.0
H384 H 0.08297 0.0333 0.75984 0.0
H385 H 0.12266 0.09036 0.77665 0.0
H386 H 0.11604 0.19042 0.764 0.0
H387 H 0.25382 0.357 0.80362 0.0
H388 H 0.21664 0.30304 0.78467 0.0
H389 H 0.22797 0.20188 0.79348 0.0
C390 C 0.11373 0.09319 0.7645 0.0
C391 C 0.1406 0.19282 0.77029 0.0
C392 C 0.09082 0.0605 0.75491 0.0
C393 C 0.24744 0.32914 0.80712 0.0
C394 C 0.22608 0.29822 0.7963 0.0
C395 C 0.20345 0.19966 0.78724 0.0
C396 C 0.12458 0.12905 0.75857 0.0
C397 C 0.14907 0.16369 0.76878 0.0
C398 C 0.21757 0.26166 0.80038 0.0
C399 C 0.19459 0.22851 0.78906 0.0
H400 H 0.08022 0.10176 0.7211 0.0
H401 H 0.12012 0.15884 0.73793 0.0
H402 H 0.1885 0.14589 0.77611 0.0
H403 H 0.26158 0.28273 0.83791 0.0
H404 H 0.22415 0.22897 0.81923 0.0
C405 C 0.93978 0.00509 0.65963 0.0
C406 C 0.96581 0.03495 0.6701 0.0
C407 C 0.91588 0.01012 0.64904 0.0
C408 C 0.90524 0.08335 0.62866 0.0
H409 H 0.7993 0.0045 0.62443 0.0
C410 C 0.79664 0.10399 0.59199 0.0
C411 C 0.77104 0.07355 0.58166 0.0
C412 C 0.81933 0.09932 0.60343 0.0
C413 C 0.82888 0.02662 0.62536 0.0
H414 H 0.98746 0.09367 0.6775 0.0
H415 H 0.94568 0.10239 0.65903 0.0
H416 H 0.84175 0.99643 0.64278 0.0
H417 H 0.749 0.01426 0.57533 0.0
H418 H 0.78861 0.00611 0.59526 0.0
H419 H 0.89252 0.11342 0.61115 0.0
C420 C 0.94395 0.07516 0.65894 0.0
C421 C 0.8532 0.02199 0.63586 0.0
C422 C 0.96778 0.0701 0.66958 0.0
C423 C 0.76803 0.03813 0.58327 0.0
C424 C 0.79077 0.03347 0.59469 0.0
C425 C 0.88095 0.08795 0.61814 0.0
C426 C 0.91756 0.04515 0.64864 0.0
C427 C 0.89167 0.05025 0.63759 0.0
C428 C 0.81698 0.06411 0.60478 0.0
C429 C 0.84251 0.0596 0.61633 0.0
H430 H 0.93757 0.97765 0.6597 0.0
H431 H 0.89623 0.98661 0.64108 0.0
H432 H 0.93485 0.10541 0.62956 0.0
H433 H 0.79921 0.13149 0.59119 0.0
H434 H 0.83874 0.12332 0.61123 0.0
C435 C 0.92892 0.93793 -0.00144 0.0
C436 C 0.95828 0.9295 -0.00166 0.0
C437 C 0.89576 0.91608 0.98915 0.0
C438 C 0.85804 0.85087 0.95302 0.0
H439 H 0.75997 0.82199 0.97165 0.0
C440 C 0.71842 0.7474 0.91871 0.0
C441 C 0.68947 0.75643 0.9188 0.0
C442 C 0.75031 0.76712 0.92904 0.0
C443 C 0.78716 0.83014 0.96621 0.0
H444 H 0.97582 0.89151 0.98804 0.0
H445 H 0.91787 0.85332 0.97166 0.0
H446 H 0.81772 0.85953 0.98827 0.0
H447 H 0.6709 0.79257 0.93023 0.0
H448 H 0.72701 0.82757 0.94804 0.0
H449 H 0.82766 0.82187 0.93092 0.0
C450 C 0.92067 0.87704 0.97901 0.0
C451 C 0.82023 0.85163 0.97574 0.0
C452 C 0.95381 0.89883 0.98845 0.0
C453 C 0.69285 0.78515 0.92974 0.0
C454 C 0.72483 0.80495 0.94007 0.0
C455 C 0.82501 0.82948 0.94349 0.0
C456 C 0.89124 0.88537 0.97928 0.0
C457 C 0.85604 0.86226 0.96924 0.0
C458 C 0.75416 0.79647 0.93969 0.0
C459 C 0.78917 0.81884 0.94997 0.0
H460 H 0.93147 0.9614 0.00602 0.0
H461 H 0.87383 0.92353 0.98946 0.0
H462 H 0.88523 0.85911 0.94757 0.0
H463 H 0.71703 0.72579 0.91031 0.0
H464 H 0.7721 0.7595 0.9286 0.0
C465 C 0.01645 0.92147 0.32651 0.0
C466 C 0.98535 0.92513 0.33126 0.0
C467 C 0.01111 0.89129 0.31625 0.0
C468 C 0.9401 0.79523 0.30169 0.0
H469 H 0.00878 0.8174 0.26535 0.0
C470 C 0.91711 0.6849 0.25009 0.0
C471 C 0.94958 0.68582 0.24373 0.0
C472 C 0.92064 0.71271 0.26148 0.0
C473 C 0.98968 0.81057 0.27557 0.0
H474 H 0.92415 0.89959 0.32917 0.0
H475 H 0.91485 0.84669 0.31121 0.0
H476 H 0.01631 0.86854 0.28377 0.0
H477 H 0.01126 0.71646 0.24468 0.0
H478 H 0.01733 0.7639 0.26491 0.0
H479 H 0.91364 0.73714 0.29353 0.0
C480 C 0.94333 0.86722 0.3155 0.0
C481 C 0.99395 0.83993 0.2861 0.0
C482 C 0.94869 0.89761 0.3257 0.0
C483 C 0.98559 0.71453 0.24942 0.0
C484 C 0.98911 0.74214 0.26086 0.0
C485 C 0.93594 0.76574 0.29119 0.0
C486 C 0.97454 0.86395 0.31057 0.0
C487 C 0.96932 0.83259 0.2993 0.0
C488 C 0.95673 0.74199 0.2668 0.0
C489 C 0.96081 0.77307 0.27804 0.0
H490 H 0.04507 0.94209 0.3306 0.0
H491 H 0.03565 0.88925 0.31283 0.0
H492 H 0.92091 0.78872 0.31186 0.0
H493 H 0.88892 0.66293 0.24612 0.0
H494 H 0.89511 0.71184 0.26574 0.0
C495 C 0.14489 0.98408 0.68747 0.0
C496 C 0.10674 0.96926 0.68264 0.0
C497 C 0.17042 0.98156 0.67683 0.0
C498 C 0.18363 0.97308 0.6326 0.0
H499 H 0.26874 0.96351 0.64717 0.0
C500 C 0.2944 0.98158 0.58697 0.0
C501 C 0.33254 0.00598 0.59179 0.0
C502 C 0.26541 0.9702 0.59839 0.0
C503 C 0.24515 0.9663 0.64294 0.0
H504 H 0.06493 0.93811 0.66326 0.0
H505 H 0.10928 0.93312 0.64484 0.0
H506 H 0.21985 0.95525 0.66668 0.0
H507 H 0.37025 0.03577 0.61259 0.0
H508 H 0.31955 0.01648 0.63247 0.0
H509 H 0.20915 0.9849 0.609 0.0
C510 C 0.11971 0.9475 0.65669 0.0
C511 C 0.21717 0.96161 0.6541 0.0
C512 C 0.09423 0.95019 0.66729 0.0
C513 C 0.34112 0.01736 0.60845 0.0
C514 C 0.31209 0.00596 0.61987 0.0
C515 C 0.21147 0.97766 0.62146 0.0
C516 C 0.15831 0.96399 0.66116 0.0
C517 C 0.18634 0.96546 0.64911 0.0
C518 C 0.27384 0.98297 0.61489 0.0
C519 C 0.24282 0.97482 0.62653 0.0
H520 H 0.15547 -0.00108 0.69922 0.0
H521 H 0.19999 0.9949 0.68063 0.0
H522 H 0.16074 0.977 0.62838 0.0
H523 H 0.28671 0.97252 0.57423 0.0
H524 H 0.23626 0.95206 0.5942 0.0
C525 C 0.15524 0.14907 0.02065 0.0
C526 C 0.13912 0.11074 0.01591 0.0
C527 C 0.18139 0.1773 0.01064 0.0
C528 C 0.21178 0.19243 0.96732 0.0
H529 H 0.28925 0.29044 0.98513 0.0
C530 C 0.31003 0.31378 0.92567 0.0
C531 C 0.30841 0.34682 0.92865 0.0
C532 C 0.29579 0.28522 0.93711 0.0
C533 C 0.26781 0.26313 0.98002 0.0
H534 H 0.13915 0.07181 -0.00263 0.0
H535 H 0.18591 0.121 0.98016 0.0
H536 H 0.25291 0.23887 0.00368 0.0
H537 H 0.29268 0.37694 0.9462 0.0
H538 H 0.26832 0.32719 0.96637 0.0
H539 H 0.22694 0.21684 0.94367 0.0
C540 C 0.17746 0.1294 0.99135 0.0
C541 C 0.24679 0.23363 0.99062 0.0
C542 C 0.15081 0.10115 0.00126 0.0
C543 C 0.29411 0.35165 0.94362 0.0
C544 C 0.28042 0.32334 0.95517 0.0
C545 C 0.2332 0.22173 0.95674 0.0
C546 C 0.19254 0.1679 -0.00426 0.0
C547 C 0.21788 0.1981 0.98444 0.0
C548 C 0.28024 0.28948 0.95183 0.0
C549 C 0.26086 0.25755 0.96301 0.0
H550 H 0.14667 0.1574 0.03184 0.0
H551 H 0.19175 0.20651 0.01434 0.0
H552 H 0.1894 0.16582 0.96206 0.0
H553 H 0.32063 0.30925 0.91416 0.0
H554 H 0.29609 0.25942 0.93429 0.0
C555 C 0.03326 0.09574 0.30828 0.0
C556 C 0.04914 0.10177 0.32417 0.0
C557 C 0.0303 0.12422 0.3007 0.0
C558 C 0.06446 0.22568 0.30028 0.0
H559 H 0.96284 0.19186 0.2835 0.0
C560 C 0.02453 0.30698 0.25474 0.0
C561 C 0.98925 0.30478 0.25674 0.0
C562 C 0.03573 0.28771 0.26514 0.0
C563 C 0.99126 0.2019 0.28828 0.0
H564 H 0.07667 0.14334 0.34414 0.0
H565 H 0.07181 0.1934 0.3307 0.0
H566 H 0.97623 0.1471 0.2965 0.0
H567 H 0.93973 0.28352 0.27214 0.0
H568 H 0.95915 0.24963 0.29019 0.0
H569 H 0.07949 0.28051 0.29173 0.0
C570 C 0.06145 0.16643 0.32423 0.0
C571 C -0.00098 0.17615 0.29555 0.0
C572 C 0.06413 0.13774 0.33191 0.0
C573 C 0.9667 0.28511 0.27007 0.0
C574 C 0.97782 0.26576 0.28041 0.0
C575 C 0.05678 0.25148 0.29279 0.0
C576 C 0.04344 0.15948 0.30877 0.0
C577 C 0.03572 0.18764 0.30148 0.0
C578 C 0.01181 0.26578 0.2777 0.0
C579 C 0.02008 0.23974 0.28667 0.0
H580 H 0.02166 0.06851 0.3019 0.0
H581 H 0.01683 0.11835 0.28865 0.0
H582 H 0.09299 0.23521 0.30478 0.0
H583 H 0.04244 0.32161 0.24451 0.0
H584 H 0.06198 0.28806 0.26269 0.0
loop_
_geom_bond_atom_site_label_1
_geom_bond_atom_site_label_2
_geom_bond_distance
_geom_bond_site_symmetry_2
_ccdc_geom_bond_type
C0 O1 1.160 . S
C0 O7 1.185 . S
O1 C0 1.160 . S
O2 Zn3 1.899 . S
O2 C10 1.284 . S
Zn3 O2 1.899 . S
Zn3 O4 2.032 1_445 S
Zn3 O7 2.086 1_545 S
Zn3 O12 1.977 . S
O4 Zn3 2.032 1_665 S
O4 C8 1.278 . S
C5 O6 1.203 . S
C5 O12 1.267 . S
O6 C5 1.203 . S
O7 C0 1.185 . S
O7 Zn3 2.086 1_565 S
C8 O4 1.278 . S
C8 O9 1.211 1_565 S
O9 C8 1.211 1_545 S
C10 O2 1.284 . S
C10 O11 1.273 1_455 S
O11 C10 1.273 1_655 S
O12 Zn3 1.977 . S
O12 C5 1.267 . S
C13 O14 1.160 . S
C13 O20 1.185 . S
O14 C13 1.160 . S
O15 Zn16 1.899 . S
O15 C23 1.284 1_545 S
Zn16 O15 1.899 . S
Zn16 O17 2.032 1_455 S
Zn16 O20 2.086 . S
Zn16 O25 1.977 . S
O17 Zn16 2.032 1_655 S
O17 C21 1.278 . S
C18 O19 1.203 . S
C18 O25 1.267 . S
O19 C18 1.203 . S
O20 C13 1.185 . S
O20 Zn16 2.086 . S
C21 O17 1.278 . S
C21 O22 1.211 . S
O22 C21 1.211 . S
C23 O15 1.284 1_565 S
C23 O24 1.273 1_455 S
O24 C23 1.273 1_655 S
O25 Zn16 1.977 . S
O25 C18 1.267 . S
C26 O27 1.160 1_565 S
C26 O33 1.185 . S
O27 C26 1.160 1_545 S
O28 Zn29 1.899 1_655 S
O28 C36 1.284 1_565 S
Zn29 O28 1.899 1_455 S
Zn29 O30 2.032 1_565 S
Zn29 O33 2.086 . S
Zn29 O38 1.977 1_455 S
O30 Zn29 2.032 1_545 S
O30 C34 1.278 . S
C31 O32 1.203 . S
C31 O38 1.267 . S
O32 C31 1.203 . S
O33 C26 1.185 . S
O33 Zn29 2.086 . S
C34 O30 1.278 . S
C34 O35 1.211 . S
O35 C34 1.211 . S
C36 O28 1.284 1_545 S
C36 O37 1.273 . S
O37 C36 1.273 . S
O38 Zn29 1.977 1_655 S
O38 C31 1.267 . S
H39 C66 0.929 . S
N40 C65 1.433 . S
N40 C71 1.435 . S
N40 C77 1.423 . S
H41 C67 0.930 . S
H42 C70 0.931 . S
H43 C69 0.929 . S
H44 C72 0.930 . S
H45 C73 0.932 . S
H46 C76 0.929 . S
H47 C75 0.931 . S
H48 C78 0.929 . S
H49 C82 0.932 . S
H50 C79 0.931 . S
H51 C81 0.929 1_455 S
H52 C84 0.929 . S
H53 C85 0.930 . S
H54 C87 0.929 . S
H55 C88 0.931 . S
H56 C90 0.930 . S
H57 C91 0.932 . S
H58 C93 0.931 . S
H59 C94 0.929 . S
H60 C96 0.929 . S
H61 C97 0.931 . S
H62 C99 0.929 1_455 S
N63 C83 1.433 . S
N63 C89 1.435 . S
N63 C95 1.423 . S
H64 C100 0.932 . S
C65 N40 1.433 . S
C65 C66 1.363 . S
C65 C70 1.370 1_655 S
C66 H39 0.929 . S
C66 C65 1.363 . S
C66 C67 1.385 . S
C67 H41 0.930 . S
C67 C66 1.385 . S
C67 C68 1.357 1_655 S
C68 C67 1.357 1_455 S
C68 C69 1.406 . S
C69 H43 0.929 . S
C69 C68 1.406 . S
C69 C70 1.391 . S
C70 H42 0.931 . S
C70 C65 1.370 1_455 S
C70 C69 1.391 . S
C71 N40 1.435 . S
C71 C72 1.358 1_655 S
C71 C76 1.371 . S
C72 H44 0.930 . S
C72 C71 1.358 1_455 S
C72 C73 1.405 . S
C73 H45 0.932 . S
C73 C72 1.405 . S
C73 C74 1.383 . S
C74 C73 1.383 . S
C74 C75 1.393 1_455 S
C75 H47 0.931 . S
C75 C74 1.393 1_655 S
C75 C76 1.382 . S
C76 H46 0.929 . S
C76 C71 1.371 . S
C76 C75 1.382 . S
C77 N40 1.423 . S
C77 C78 1.362 . S
C77 C82 1.388 1_655 S
C78 H48 0.929 . S
C78 C77 1.362 . S
C78 C79 1.376 . S
C79 H50 0.931 . S
C79 C78 1.376 . S
C79 C80 1.396 . S
C80 C79 1.396 . S
C80 C81 1.348 . S
C80 C98 1.472 . S
C81 H51 0.929 1_655 S
C81 C80 1.348 . S
C81 C82 1.443 1_655 S
C82 H49 0.932 . S
C82 C77 1.388 1_455 S
C82 C81 1.443 1_455 S
C83 N63 1.433 . S
C83 C84 1.363 . S
C83 C88 1.370 1_655 S
C84 H52 0.929 . S
C84 C83 1.363 . S
C84 C85 1.385 . S
C85 H53 0.930 . S
C85 C84 1.385 . S
C85 C86 1.357 1_655 S
C86 C85 1.357 1_455 S
C86 C87 1.406 . S
C87 H54 0.929 . S
C87 C86 1.406 . S
C87 C88 1.391 . S
C88 H55 0.931 . S
C88 C83 1.370 1_455 S
C88 C87 1.391 . S
C89 N63 1.435 . S
C89 C90 1.358 1_655 S
C89 C94 1.371 . S
C90 H56 0.930 . S
C90 C89 1.358 1_455 S
C90 C91 1.405 . S
C91 H57 0.932 . S
C91 C90 1.405 . S
C91 C92 1.383 . S
C92 C91 1.383 . S
C92 C93 1.393 1_455 S
C93 H58 0.931 . S
C93 C92 1.393 1_655 S
C93 C94 1.382 . S
C94 H59 0.929 . S
C94 C89 1.371 . S
C94 C93 1.382 . S
C95 N63 1.423 . S
C95 C96 1.362 . S
C95 C100 1.388 1_655 S
C96 H60 0.929 . S
C96 C95 1.362 . S
C96 C97 1.376 . S
C97 H61 0.931 . S
C97 C96 1.376 . S
C97 C98 1.396 . S
C98 C80 1.472 . S
C98 C97 1.396 . S
C98 C99 1.348 . S
C99 H62 0.929 1_655 S
C99 C98 1.348 . S
C99 C100 1.443 1_655 S
C100 H64 0.932 . S
C100 C95 1.388 1_455 S
C100 C99 1.443 1_455 S
H101 C128 0.929 . S
N102 C127 1.433 . S
N102 C133 1.435 . S
N102 C139 1.423 . S
H103 C129 0.930 . S
H104 C132 0.934 1_565 S
H105 C131 0.929 . S
H106 C134 0.930 . S
H107 C135 0.932 . S
H108 C138 0.929 . S
H109 C137 0.931 . S
H110 C140 0.929 . S
H111 C144 0.908 1_565 S
H112 C141 0.931 . S
H113 C143 0.929 . S
H114 C146 0.929 . S
H115 C147 0.930 . S
H116 C149 0.929 . S
H117 C150 0.913 1_565 S
H118 C152 0.930 . S
H119 C153 0.932 . S
H120 C155 0.931 . S
H121 C156 0.929 . S
H122 C158 0.929 . S
H123 C159 0.931 . S
H124 C161 0.929 . S
N125 C145 1.433 . S
N125 C151 1.435 . S
N125 C157 1.423 . S
H126 C162 0.925 1_565 S
C127 N102 1.433 . S
C127 C128 1.363 . S
C127 C132 1.376 . S
C128 H101 0.929 . S
C128 C127 1.363 . S
C128 C129 1.385 . S
C129 H103 0.930 . S
C129 C128 1.385 . S
C129 C130 1.357 . S
C130 C129 1.357 . S
C130 C131 1.406 1_545 S
C131 H105 0.929 . S
C131 C130 1.406 1_565 S
C131 C132 1.384 1_565 S
C132 H104 0.934 1_545 S
C132 C127 1.376 . S
C132 C131 1.384 1_545 S
C133 N102 1.435 . S
C133 C134 1.358 1_545 S
C133 C138 1.371 . S
C134 H106 0.930 . S
C134 C133 1.358 1_565 S
C134 C135 1.405 . S
C135 H107 0.932 . S
C135 C134 1.405 . S
C135 C136 1.383 1_565 S
C136 C135 1.383 1_545 S
C136 C137 1.393 . S
C137 H109 0.931 . S
C137 C136 1.393 . S
C137 C138 1.382 . S
C138 H108 0.929 . S
C138 C133 1.371 . S
C138 C137 1.382 . S
C139 N102 1.423 . S
C139 C140 1.362 . S
C139 C144 1.388 . S
C140 H110 0.929 . S
C140 C139 1.362 . S
C140 C141 1.376 . S
C141 H112 0.931 . S
C141 C140 1.376 . S
C141 C142 1.396 . S
C142 C141 1.396 . S
C142 C143 1.348 . S
C142 C160 1.472 . S
C143 H113 0.929 . S
C143 C142 1.348 . S
C143 C144 1.443 . S
C144 H111 0.908 1_545 S
C144 C139 1.388 . S
C144 C143 1.443 . S
C145 N125 1.433 . S
C145 C146 1.363 . S
C145 C150 1.388 . S
C146 H114 0.929 . S
C146 C145 1.363 . S
C146 C147 1.385 . S
C147 H115 0.930 . S
C147 C146 1.385 . S
C147 C148 1.357 . S
C148 C147 1.357 . S
C148 C149 1.406 1_545 S
C149 H116 0.929 . S
C149 C148 1.406 1_565 S
C149 C150 1.392 1_565 S
C150 H117 0.913 1_545 S
C150 C145 1.388 . S
C150 C149 1.392 1_545 S
C151 N125 1.435 . S
C151 C152 1.358 1_545 S
C151 C156 1.371 . S
C152 H118 0.930 . S
C152 C151 1.358 1_565 S
C152 C153 1.405 . S
C153 H119 0.932 . S
C153 C152 1.405 . S
C153 C154 1.383 1_565 S
C154 C153 1.383 1_545 S
C154 C155 1.393 . S
C155 H120 0.931 . S
C155 C154 1.393 . S
C155 C156 1.382 . S
C156 H121 0.929 . S
C156 C151 1.371 . S
C156 C155 1.382 . S
C157 N125 1.423 . S
C157 C158 1.362 . S
C157 C162 1.388 . S
C158 H122 0.929 . S
C158 C157 1.362 . S
C158 C159 1.376 . S
C159 H123 0.931 . S
C159 C158 1.376 . S
C159 C160 1.396 . S
C160 C142 1.472 . S
C160 C159 1.396 . S
C160 C161 1.348 . S
C161 H124 0.929 . S
C161 C160 1.348 . S
C161 C162 1.443 . S
C162 H126 0.925 1_545 S
C162 C157 1.388 . S
C162 C161 1.443 . S
H163 C190 0.929 . S
N164 C189 1.433 . S
N164 C195 1.435 . S
N164 C201 1.423 . S
H165 C191 0.930 . S
H166 C194 0.931 . S
H167 C193 0.929 . S
H168 C196 0.930 . S
H169 C197 0.932 . S
H170 C200 0.929 . S
H171 C199 0.931 . S
H172 C202 0.929 . S
H173 C206 0.932 . S
H174 C203 0.931 . S
H175 C205 0.929 . S
H176 C208 0.929 . S
H177 C209 0.930 . S
H178 C211 0.929 . S
H179 C212 0.931 . S
H180 C214 0.930 . S
H181 C215 0.932 . S
H182 C217 0.931 . S
H183 C218 0.929 . S
H184 C220 0.929 . S
H185 C221 0.931 . S
H186 C223 0.929 . S
N187 C207 1.433 . S
N187 C213 1.435 . S
N187 C219 1.423 . S
H188 C224 0.932 . S
C189 N164 1.433 . S
C189 C190 1.363 . S
C189 C194 1.370 . S
C190 H163 0.929 . S
C190 C189 1.363 . S
C190 C191 1.385 . S
C191 H165 0.930 . S
C191 C190 1.385 . S
C191 C192 1.357 . S
C192 C191 1.357 . S
C192 C193 1.406 . S
C193 H167 0.929 . S
C193 C192 1.406 . S
C193 C194 1.391 . S
C194 H166 0.931 . S
C194 C189 1.370 . S
C194 C193 1.391 . S
C195 N164 1.435 . S
C195 C196 1.358 . S
C195 C200 1.371 . S
C196 H168 0.930 . S
C196 C195 1.358 . S
C196 C197 1.405 . S
C197 H169 0.932 . S
C197 C196 1.405 . S
C197 C198 1.383 . S
C198 C197 1.383 . S
C198 C199 1.393 . S
C199 H171 0.931 . S
C199 C198 1.393 . S
C199 C200 1.382 . S
C200 H170 0.929 . S
C200 C195 1.371 . S
C200 C199 1.382 . S
C201 N164 1.423 . S
C201 C202 1.362 . S
C201 C206 1.388 . S
C202 H172 0.929 . S
C202 C201 1.362 . S
C202 C203 1.376 . S
C203 H174 0.931 . S
C203 C202 1.376 . S
C203 C204 1.396 . S
C204 C203 1.396 . S
C204 C205 1.348 . S
C204 C222 1.472 . S
C205 H175 0.929 . S
C205 C204 1.348 . S
C205 C206 1.443 . S
C206 H173 0.932 . S
C206 C201 1.388 . S
C206 C205 1.443 . S
C207 N187 1.433 . S
C207 C208 1.363 . S
C207 C212 1.370 . S
C208 H176 0.929 . S
C208 C207 1.363 . S
C208 C209 1.385 . S
C209 H177 0.930 . S
C209 C208 1.385 . S
C209 C210 1.357 . S
C210 C209 1.357 . S
C210 C211 1.406 . S
C211 H178 0.929 . S
C211 C210 1.406 . S
C211 C212 1.391 . S
C212 H179 0.931 . S
C212 C207 1.370 . S
C212 C211 1.391 . S
C213 N187 1.435 . S
C213 C214 1.358 . S
C213 C218 1.371 . S
C214 H180 0.930 . S
C214 C213 1.358 . S
C214 C215 1.405 . S
C215 H181 0.932 . S
C215 C214 1.405 . S
C215 C216 1.383 . S
C216 C215 1.383 . S
C216 C217 1.393 . S
C217 H182 0.931 . S
C217 C216 1.393 . S
C217 C218 1.382 . S
C218 H183 0.929 . S
C218 C213 1.371 . S
C218 C217 1.382 . S
C219 N187 1.423 . S
C219 C220 1.362 . S
C219 C224 1.388 . S
C220 H184 0.929 . S
C220 C219 1.362 . S
C220 C221 1.376 . S
C221 H185 0.931 . S
C221 C220 1.376 . S
C221 C222 1.396 . S
C222 C204 1.472 . S
C222 C221 1.396 . S
C222 C223 1.348 . S
C223 H186 0.929 . S
C223 C222 1.348 . S
C223 C224 1.443 . S
C224 H188 0.932 . S
C224 C219 1.388 . S
C224 C223 1.443 . S
C225 C226 1.349 . S
C225 C227 1.327 . S
C225 H250 0.950 . S
C226 C225 1.349 . S
C226 C242 1.348 1_455 S
C227 C225 1.327 . S
C227 C246 1.429 . S
C227 H251 0.950 . S
C228 C245 1.573 . S
C228 C247 1.369 1_655 S
C228 H252 0.938 . S
H229 C233 0.949 . S
C230 C231 1.356 1_655 S
C230 C232 1.329 . S
C230 H253 0.951 . S
C231 C230 1.356 1_455 S
C231 C243 1.349 . S
C232 C230 1.329 . S
C232 C248 1.427 1_655 S
C232 H254 0.942 . S
C233 H229 0.949 . S
C233 C241 1.574 . S
C233 C249 1.368 . S
H234 C242 0.944 . S
H235 C240 0.950 . S
H236 C241 0.949 . S
H237 C243 0.950 . S
H238 C244 0.950 . S
H239 C245 0.952 . S
C240 H235 0.950 . S
C240 C242 1.325 . S
C240 C246 1.436 1_655 S
C241 C233 1.574 . S
C241 H236 0.949 . S
C241 C247 1.368 . S
C242 C226 1.348 1_655 S
C242 H234 0.944 . S
C242 C240 1.325 . S
C243 C231 1.349 . S
C243 H237 0.950 . S
C243 C244 1.327 . S
C244 H238 0.950 . S
C244 C243 1.327 . S
C244 C248 1.429 . S
C245 C228 1.573 . S
C245 H239 0.952 . S
C245 C249 1.379 1_655 S
C246 C227 1.429 . S
C246 C240 1.436 1_455 S
C246 C247 1.523 . S
C247 C228 1.369 1_455 S
C247 C241 1.368 . S
C247 C246 1.523 . S
C248 C232 1.427 1_455 S
C248 C244 1.429 . S
C248 C249 1.523 . S
C249 C233 1.368 . S
C249 C245 1.379 1_455 S
C249 C248 1.523 . S
H250 C225 0.950 . S
H251 C227 0.950 . S
H252 C228 0.938 . S
H253 C230 0.951 . S
H254 C232 0.942 . S
C255 C256 1.349 . S
C255 C257 1.327 . S
C255 H280 0.950 . S
C256 C255 1.349 . S
C256 C272 1.349 1_545 S
C257 C255 1.327 . S
C257 C276 1.429 . S
C257 H281 0.950 . S
C258 C275 1.574 . S
C258 C277 1.368 1_565 S
C258 H282 0.949 . S
H259 C263 0.949 . S
C260 C261 1.349 1_565 S
C260 C262 1.327 . S
C260 H283 0.950 . S
C261 C260 1.349 1_545 S
C261 C273 1.349 . S
C262 C260 1.327 . S
C262 C278 1.429 1_565 S
C262 H284 0.950 . S
C263 H259 0.949 . S
C263 C271 1.574 . S
C263 C279 1.368 . S
H264 C272 0.950 . S
H265 C270 0.950 . S
H266 C271 0.949 . S
H267 C273 0.950 . S
H268 C274 0.950 . S
H269 C275 0.949 . S
C270 H265 0.950 . S
C270 C272 1.327 . S
C270 C276 1.429 1_565 S
C271 C263 1.574 . S
C271 H266 0.949 . S
C271 C277 1.368 . S
C272 C256 1.349 1_565 S
C272 H264 0.950 . S
C272 C270 1.327 . S
C273 C261 1.349 . S
C273 H267 0.950 . S
C273 C274 1.327 . S
C274 H268 0.950 . S
C274 C273 1.327 . S
C274 C278 1.429 . S
C275 C258 1.574 . S
C275 H269 0.949 . S
C275 C279 1.368 1_565 S
C276 C257 1.429 . S
C276 C270 1.429 1_545 S
C276 C277 1.523 . S
C277 C258 1.368 1_545 S
C277 C271 1.368 . S
C277 C276 1.523 . S
C278 C262 1.429 1_545 S
C278 C274 1.429 . S
C278 C279 1.523 . S
C279 C263 1.368 . S
C279 C275 1.368 1_545 S
C279 C278 1.523 . S
H280 C255 0.950 . S
H281 C257 0.950 . S
H282 C258 0.949 . S
H283 C260 0.950 . S
H284 C262 0.950 . S
C285 C286 1.349 . S
C285 C287 1.327 . S
C285 H310 0.950 . S
C286 C285 1.349 . S
C286 C302 1.349 . S
C287 C285 1.327 . S
C287 C306 1.429 . S
C287 H311 0.950 . S
C288 C305 1.574 . S
C288 C307 1.368 . S
C288 H312 0.949 . S
H289 C293 0.949 . S
C290 C291 1.349 . S
C290 C292 1.327 . S
C290 H313 0.950 . S
C291 C290 1.349 . S
C291 C303 1.349 . S
C292 C290 1.327 . S
C292 C308 1.429 . S
C292 H314 0.950 . S
C293 H289 0.949 . S
C293 C301 1.574 . S
C293 C309 1.368 . S
H294 C302 0.950 . S
H295 C300 0.950 . S
H296 C301 0.949 . S
H297 C303 0.950 . S
H298 C304 0.950 . S
H299 C305 0.949 . S
C300 H295 0.950 . S
C300 C302 1.327 . S
C300 C306 1.429 . S
C301 C293 1.574 . S
C301 H296 0.949 . S
C301 C307 1.368 . S
C302 C286 1.349 . S
C302 H294 0.950 . S
C302 C300 1.327 . S
C303 C291 1.349 . S
C303 H297 0.950 . S
C303 C304 1.327 . S
C304 H298 0.950 . S
C304 C303 1.327 . S
C304 C308 1.429 . S
C305 C288 1.574 . S
C305 H299 0.949 . S
C305 C309 1.368 . S
C306 C287 1.429 . S
C306 C300 1.429 . S
C306 C307 1.523 . S
C307 C288 1.368 . S
C307 C301 1.368 . S
C307 C306 1.523 . S
C308 C292 1.429 . S
C308 C304 1.429 . S
C308 C309 1.523 . S
C309 C293 1.368 . S
C309 C305 1.368 . S
C309 C308 1.523 . S
H310 C285 0.950 . S
H311 C287 0.950 . S
H312 C288 0.949 . S
H313 C290 0.950 . S
H314 C292 0.950 . S
C315 C316 1.349 . S
C315 C317 1.327 . S
C315 H340 0.950 . S
C316 C315 1.349 . S
C316 C332 1.349 . S
C317 C315 1.327 . S
C317 C336 1.429 . S
C317 H341 0.950 1_455 S
C318 C335 1.574 . S
C318 C337 1.368 . S
C318 H342 0.949 . S
H319 C323 0.949 . S
C320 C321 1.349 . S
C320 C322 1.327 . S
C320 H343 0.950 . S
C321 C320 1.349 . S
C321 C333 1.349 1_455 S
C322 C320 1.327 . S
C322 C338 1.429 . S
C322 H344 0.950 . S
C323 H319 0.949 . S
C323 C331 1.574 1_655 S
C323 C339 1.368 1_655 S
H324 C332 0.950 . S
H325 C330 0.950 . S
H326 C331 0.949 1_655 S
H327 C333 0.950 . S
H328 C334 0.950 . S
H329 C335 0.949 . S
C330 H325 0.950 . S
C330 C332 1.327 . S
C330 C336 1.429 . S
C331 C323 1.574 1_455 S
C331 H326 0.949 1_455 S
C331 C337 1.368 . S
C332 C316 1.349 . S
C332 H324 0.950 . S
C332 C330 1.327 . S
C333 C321 1.349 1_655 S
C333 H327 0.950 . S
C333 C334 1.327 . S
C334 H328 0.950 . S
C334 C333 1.327 . S
C334 C338 1.429 1_655 S
C335 C318 1.574 . S
C335 H329 0.949 . S
C335 C339 1.368 . S
C336 C317 1.429 . S
C336 C330 1.429 . S
C336 C337 1.523 . S
C337 C318 1.368 . S
C337 C331 1.368 . S
C337 C336 1.523 . S
C338 C322 1.429 . S
C338 C334 1.429 1_455 S
C338 C339 1.523 . S
C339 C323 1.368 1_455 S
C339 C335 1.368 . S
C339 C338 1.523 . S
H340 C315 0.950 . S
H341 C317 0.950 1_655 S
H342 C318 0.949 . S
H343 C320 0.950 . S
H344 C322 0.950 . S
C345 C346 1.349 . S
C345 C347 1.327 . S
C345 H370 0.950 . S
C346 C345 1.349 . S
C346 C362 1.349 . S
C347 C345 1.327 . S
C347 C366 1.429 . S
C347 H371 0.950 . S
C348 C365 1.574 . S
C348 C367 1.368 . S
C348 H372 0.949 . S
H349 C353 0.949 . S
C350 C351 1.349 . S
C350 C352 1.327 . S
C350 H373 0.950 1_545 S
C351 C350 1.349 . S
C351 C363 1.349 . S
C352 C350 1.327 . S
C352 C368 1.429 . S
C352 H374 0.950 1_545 S
C353 H349 0.949 . S
C353 C361 1.574 . S
C353 C369 1.368 . S
H354 C362 0.950 . S
H355 C360 0.950 . S
H356 C361 0.949 . S
H357 C363 0.950 . S
H358 C364 0.950 . S
H359 C365 0.960 . S
C360 H355 0.950 . S
C360 C362 1.327 . S
C360 C366 1.429 . S
C361 C353 1.574 . S
C361 H356 0.949 . S
C361 C367 1.368 . S
C362 C346 1.349 . S
C362 H354 0.950 . S
C362 C360 1.327 . S
C363 C351 1.349 . S
C363 H357 0.950 . S
C363 C364 1.327 . S
C364 H358 0.950 . S
C364 C363 1.327 . S
C364 C368 1.429 . S
C365 C348 1.574 . S
C365 H359 0.960 . S
C365 C369 1.368 . S
C366 C347 1.429 . S
C366 C360 1.429 . S
C366 C367 1.523 . S
C367 C348 1.368 . S
C367 C361 1.368 . S
C367 C366 1.523 . S
C368 C352 1.429 . S
C368 C364 1.429 . S
C368 C369 1.523 . S
C369 C353 1.368 . S
C369 C365 1.368 . S
C369 C368 1.523 . S
H370 C345 0.950 . S
H371 C347 0.950 . S
H372 C348 0.949 . S
H373 C350 0.950 1_565 S
H374 C352 0.950 1_565 S
C375 C376 1.349 . S
C375 C377 1.327 . S
C375 H400 0.950 . S
C376 C375 1.349 . S
C376 C392 1.349 . S
C377 C375 1.327 . S
C377 C396 1.429 . S
C377 H401 0.950 . S
C378 C395 1.574 . S
C378 C397 1.368 . S
C378 H402 0.949 . S
H379 C383 0.949 . S
C380 C381 1.349 . S
C380 C382 1.327 . S
C380 H403 0.950 . S
C381 C380 1.349 . S
C381 C393 1.349 . S
C382 C380 1.327 . S
C382 C398 1.429 . S
C382 H404 0.950 . S
C383 H379 0.949 . S
C383 C391 1.574 . S
C383 C399 1.368 . S
H384 C392 0.950 . S
H385 C390 0.950 . S
H386 C391 0.949 . S
H387 C393 0.950 . S
H388 C394 0.950 . S
H389 C395 0.949 . S
C390 H385 0.950 . S
C390 C392 1.327 . S
C390 C396 1.429 . S
C391 C383 1.574 . S
C391 H386 0.949 . S
C391 C397 1.368 . S
C392 C376 1.349 . S
C392 H384 0.950 . S
C392 C390 1.327 . S
C393 C381 1.349 . S
C393 H387 0.950 . S
C393 C394 1.327 . S
C394 H388 0.950 . S
C394 C393 1.327 . S
C394 C398 1.429 . S
C395 C378 1.574 . S
C395 H389 0.949 . S
C395 C399 1.368 . S
C396 C377 1.429 . S
C396 C390 1.429 . S
C396 C397 1.523 . S
C397 C378 1.368 . S
C397 C391 1.368 . S
C397 C396 1.523 . S
C398 C382 1.429 . S
C398 C394 1.429 . S
C398 C399 1.523 . S
C399 C383 1.368 . S
C399 C395 1.368 . S
C399 C398 1.523 . S
H400 C375 0.950 . S
H401 C377 0.950 . S
H402 C378 0.949 . S
H403 C380 0.950 . S
H404 C382 0.950 . S
C405 C406 1.349 1_565 S
C405 C407 1.327 . S
C405 H430 0.950 . S
C406 C405 1.349 1_545 S
C406 C422 1.349 . S
C407 C405 1.327 . S
C407 C426 1.429 1_565 S
C407 H431 0.950 . S
C408 C425 1.574 . S
C408 C427 1.368 . S
C408 H432 0.949 . S
H409 C413 0.949 . S
C410 C411 1.349 . S
C410 C412 1.327 . S
C410 H433 0.950 . S
C411 C410 1.349 . S
C411 C423 1.349 1_545 S
C412 C410 1.327 . S
C412 C428 1.429 . S
C412 H434 0.950 . S
C413 H409 0.949 . S
C413 C421 1.574 . S
C413 C429 1.368 1_565 S
H414 C422 0.950 . S
H415 C420 0.950 . S
H416 C421 0.949 . S
H417 C423 0.950 . S
H418 C424 0.950 . S
H419 C425 0.949 . S
C420 H415 0.950 . S
C420 C422 1.327 . S
C420 C426 1.429 . S
C421 C413 1.574 . S
C421 H416 0.949 . S
C421 C427 1.368 1_565 S
C422 C406 1.349 . S
C422 H414 0.950 . S
C422 C420 1.327 . S
C423 C411 1.349 1_565 S
C423 H417 0.950 . S
C423 C424 1.327 . S
C424 H418 0.950 . S
C424 C423 1.327 . S
C424 C428 1.429 1_565 S
C425 C408 1.574 . S
C425 H419 0.949 . S
C425 C429 1.368 . S
C426 C407 1.429 1_545 S
C426 C420 1.429 . S
C426 C427 1.523 . S
C427 C408 1.368 . S
C427 C421 1.368 1_545 S
C427 C426 1.523 . S
C428 C412 1.429 . S
C428 C424 1.429 1_545 S
C428 C429 1.523 . S
C429 C413 1.368 1_545 S
C429 C425 1.368 . S
C429 C428 1.523 . S
H430 C405 0.950 . S
H431 C407 0.950 . S
H432 C408 0.949 . S
H433 C410 0.950 . S
H434 C412 0.950 . S
C435 C436 1.349 . S
C435 C437 1.327 . S
C435 H460 0.950 . S
C436 C435 1.349 . S
C436 C452 1.349 1_554 S
C437 C435 1.327 . S
C437 C456 1.429 1_554 S
C437 H461 0.950 . S
C438 C455 1.574 . S
C438 C457 1.368 . S
C438 H462 0.949 . S
H439 C443 0.949 . S
C440 C441 1.349 . S
C440 C442 1.327 . S
C440 H463 0.950 . S
C441 C440 1.349 . S
C441 C453 1.349 . S
C442 C440 1.327 . S
C442 C458 1.429 . S
C442 H464 0.950 . S
C443 H439 0.949 . S
C443 C451 1.574 . S
C443 C459 1.368 . S
H444 C452 0.950 . S
H445 C450 0.950 . S
H446 C451 0.949 . S
H447 C453 0.950 . S
H448 C454 0.950 . S
H449 C455 0.949 . S
C450 H445 0.950 . S
C450 C452 1.327 . S
C450 C456 1.429 . S
C451 C443 1.574 . S
C451 H446 0.949 . S
C451 C457 1.368 . S
C452 C436 1.349 1_556 S
C452 H444 0.950 . S
C452 C450 1.327 . S
C453 C441 1.349 . S
C453 H447 0.950 . S
C453 C454 1.327 . S
C454 H448 0.950 . S
C454 C453 1.327 . S
C454 C458 1.429 . S
C455 C438 1.574 . S
C455 H449 0.949 . S
C455 C459 1.368 . S
C456 C437 1.429 1_556 S
C456 C450 1.429 . S
C456 C457 1.523 . S
C457 C438 1.368 . S
C457 C451 1.368 . S
C457 C456 1.523 . S
C458 C442 1.429 . S
C458 C454 1.429 . S
C458 C459 1.523 . S
C459 C443 1.368 . S
C459 C455 1.368 . S
C459 C458 1.523 . S
H460 C435 0.950 . S
H461 C437 0.950 . S
H462 C438 0.949 . S
H463 C440 0.950 . S
H464 C442 0.950 . S
C465 C466 1.349 . S
C465 C467 1.327 . S
C465 H490 0.950 . S
C466 C465 1.349 . S
C466 C482 1.349 1_455 S
C467 C465 1.327 . S
C467 C486 1.429 . S
C467 H491 0.950 . S
C468 C485 1.574 . S
C468 C487 1.368 1_655 S
C468 H492 0.949 . S
H469 C473 0.949 . S
C470 C471 1.349 1_655 S
C470 C472 1.327 . S
C470 H493 0.950 . S
C471 C470 1.349 1_455 S
C471 C483 1.349 . S
C472 C470 1.327 . S
C472 C488 1.429 1_655 S
C472 H494 0.950 . S
C473 H469 0.949 . S
C473 C481 1.574 . S
C473 C489 1.368 . S
H474 C482 0.950 . S
H475 C480 0.950 . S
H476 C481 0.949 . S
H477 C483 0.950 . S
H478 C484 0.950 . S
H479 C485 0.949 . S
C480 H475 0.950 . S
C480 C482 1.327 . S
C480 C486 1.429 1_655 S
C481 C473 1.574 . S
C481 H476 0.949 . S
C481 C487 1.368 . S
C482 C466 1.349 1_655 S
C482 H474 0.950 . S
C482 C480 1.327 . S
C483 C471 1.349 . S
C483 H477 0.950 . S
C483 C484 1.327 . S
C484 H478 0.950 . S
C484 C483 1.327 . S
C484 C488 1.429 . S
C485 C468 1.574 . S
C485 H479 0.949 . S
C485 C489 1.368 1_655 S
C486 C467 1.429 . S
C486 C480 1.429 1_455 S
C486 C487 1.523 . S
C487 C468 1.368 1_455 S
C487 C481 1.368 . S
C487 C486 1.523 . S
C488 C472 1.429 1_455 S
C488 C484 1.429 . S
C488 C489 1.523 . S
C489 C473 1.368 . S
C489 C485 1.368 1_455 S
C489 C488 1.523 . S
H490 C465 0.950 . S
H491 C467 0.950 . S
H492 C468 0.949 . S
H493 C470 0.950 . S
H494 C472 0.950 . S
C495 C496 1.349 1_545 S
C495 C497 1.327 . S
C495 H520 0.950 . S
C496 C495 1.349 1_565 S
C496 C512 1.349 . S
C497 C495 1.327 . S
C497 C516 1.429 1_545 S
C497 H521 0.950 . S
C498 C515 1.574 . S
C498 C517 1.368 . S
C498 H522 0.949 . S
H499 C503 0.949 . S
C500 C501 1.349 1_565 S
C500 C502 1.327 . S
C500 H523 0.950 . S
C501 C500 1.349 1_545 S
C501 C513 1.349 . S
C502 C500 1.327 . S
C502 C518 1.429 1_565 S
C502 H524 0.950 . S
C503 H499 0.949 . S
C503 C511 1.574 . S
C503 C519 1.369 . S
H504 C512 0.950 . S
H505 C510 0.950 . S
H506 C511 0.949 . S
H507 C513 0.950 . S
H508 C514 0.950 . S
H509 C515 0.949 . S
C510 H505 0.950 . S
C510 C512 1.327 . S
C510 C516 1.429 . S
C511 C503 1.574 . S
C511 H506 0.949 . S
C511 C517 1.368 1_545 S
C512 C496 1.349 . S
C512 H504 0.950 . S
C512 C510 1.327 . S
C513 C501 1.349 . S
C513 H507 0.950 . S
C513 C514 1.327 . S
C514 H508 0.950 . S
C514 C513 1.327 . S
C514 C518 1.429 . S
C515 C498 1.574 . S
C515 H509 0.949 . S
C515 C519 1.368 1_565 S
C516 C497 1.429 1_565 S
C516 C510 1.429 . S
C516 C517 1.523 . S
C517 C498 1.368 . S
C517 C511 1.368 1_565 S
C517 C516 1.523 . S
C518 C502 1.429 1_545 S
C518 C514 1.429 . S
C518 C519 1.523 . S
C519 C503 1.369 . S
C519 C515 1.368 1_545 S
C519 C518 1.523 . S
H520 C495 0.950 . S
H521 C497 0.950 . S
H522 C498 0.949 . S
H523 C500 0.950 . S
H524 C502 0.950 . S
C525 C526 1.349 . S
C525 C527 1.327 . S
C525 H550 0.950 . S
C526 C525 1.349 . S
C526 C542 1.349 1_554 S
C527 C525 1.327 . S
C527 C546 1.429 1_554 S
C527 H551 0.950 . S
C528 C545 1.574 . S
C528 C547 1.368 . S
C528 H552 0.949 . S
H529 C533 0.949 . S
C530 C531 1.349 . S
C530 C532 1.327 . S
C530 H553 0.950 . S
C531 C530 1.349 . S
C531 C543 1.349 . S
C532 C530 1.327 . S
C532 C548 1.429 . S
C532 H554 0.950 . S
C533 H529 0.949 . S
C533 C541 1.574 . S
C533 C549 1.368 . S
H534 C542 0.950 . S
H535 C540 0.950 . S
H536 C541 0.949 . S
H537 C543 0.950 . S
H538 C544 0.950 . S
H539 C545 0.949 . S
C540 H535 0.950 . S
C540 C542 1.327 . S
C540 C546 1.429 . S
C541 C533 1.574 . S
C541 H536 0.949 . S
C541 C547 1.368 . S
C542 C526 1.349 1_556 S
C542 H534 0.950 . S
C542 C540 1.327 . S
C543 C531 1.349 . S
C543 H537 0.950 . S
C543 C544 1.327 . S
C544 H538 0.950 . S
C544 C543 1.327 . S
C544 C548 1.429 . S
C545 C528 1.574 . S
C545 H539 0.949 . S
C545 C549 1.368 . S
C546 C527 1.429 1_556 S
C546 C540 1.429 . S
C546 C547 1.523 . S
C547 C528 1.368 . S
C547 C541 1.368 . S
C547 C546 1.523 . S
C548 C532 1.429 . S
C548 C544 1.429 . S
C548 C549 1.523 . S
C549 C533 1.368 . S
C549 C545 1.368 . S
C549 C548 1.523 . S
H550 C525 0.950 . S
H551 C527 0.950 . S
H552 C528 0.949 . S
H553 C530 0.950 . S
H554 C532 0.950 . S
C555 C556 1.349 . S
C555 C557 1.327 . S
C555 H580 0.950 1_455 S
C556 C555 1.349 . S
C556 C572 1.349 . S
C557 C555 1.327 . S
C557 C576 1.429 . S
C557 H581 0.950 1_455 S
C558 C575 1.574 . S
C558 C577 1.368 . S
C558 H582 0.949 . S
H559 C563 0.949 . S
C560 C561 1.349 . S
C560 C562 1.327 . S
C560 H583 0.950 . S
C561 C560 1.349 . S
C561 C573 1.349 1_455 S
C562 C560 1.327 . S
C562 C578 1.429 . S
C562 H584 0.950 . S
C563 H559 0.949 . S
C563 C571 1.574 . S
C563 C579 1.368 1_655 S
H564 C572 0.950 . S
H565 C570 0.950 . S
H566 C571 0.949 . S
H567 C573 0.950 . S
H568 C574 0.950 . S
H569 C575 0.949 . S
C570 H565 0.950 . S
C570 C572 1.327 . S
C570 C576 1.429 . S
C571 C563 1.574 . S
C571 H566 0.949 . S
C571 C577 1.368 1_655 S
C572 C556 1.349 . S
C572 H564 0.950 . S
C572 C570 1.327 . S
C573 C561 1.349 1_655 S
C573 H567 0.950 . S
C573 C574 1.327 . S
C574 H568 0.950 . S
C574 C573 1.327 . S
C574 C578 1.429 1_655 S
C575 C558 1.574 . S
C575 H569 0.949 . S
C575 C579 1.368 . S
C576 C557 1.429 . S
C576 C570 1.429 . S
C576 C577 1.523 . S
C577 C558 1.368 . S
C577 C571 1.368 1_455 S
C577 C576 1.523 . S
C578 C562 1.429 . S
C578 C574 1.429 1_455 S
C578 C579 1.523 . S
C579 C563 1.368 1_455 S
C579 C575 1.368 . S
C579 C578 1.523 . S
H580 C555 0.950 1_655 S
H581 C557 0.950 1_655 S
H582 C558 0.949 . S
H583 C560 0.950 . S
H584 C562 0.950 . S
C231 C92 1.217 . S
C226 C10 1.228 . S
C256 C21 1.268 . S
C261 C136 1.284 . S
C286 C31 1.237 . S
C291 C198 1.285 . S
C316 C0 1.222 . S
C321 C74 1.250 . S
C351 C154 1.282 . S
C346 C18 1.244 . S
C376 C34 1.245 . S
C381 C216 1.261 . S
C411 C130 1.464 . S
C406 C36 1.563 . S
C436 C8 1.614 . S
C441 C192 1.536 . S
C471 C68 1.503 . S
C466 C23 1.600 . S
C501 C148 1.475 . S
C496 C26 1.541 . S
C531 C210 1.561 . S
C526 C5 1.578 . S
C556 C13 1.592 . S
C561 C86 1.531 . S
