# Generated by pormake.
# Topology llj, (12,3)-cn, num edge types: 1
# Building blocks:
#     Node 0, Type 0, BuildingBlock: QEWDON_clean_sbu_0, # of connection points: 12
#     Node 1, Type 0, BuildingBlock: QEWDON_clean_sbu_0, # of connection points: 12
#     Node 2, Type 1, BuildingBlock: BELTOD_clean_linker_0, # of connection points: 3
#     Node 3, Type 1, BuildingBlock: BELTOD_clean_linker_0, # of connection points: 3
#     Node 4, Type 1, BuildingBlock: BELTOD_clean_linker_0, # of connection points: 3
#     Node 5, Type 1, BuildingBlock: BELTOD_clean_linker_0, # of connection points: 3
#     Node 6, Type 1, BuildingBlock: BELTOD_clean_linker_0, # of connection points: 3
#     Node 7, Type 1, BuildingBlock: BELTOD_clean_linker_0, # of connection points: 3
#     Node 8, Type 1, BuildingBlock: BELTOD_clean_linker_0, # of connection points: 3
#     Node 9, Type 1, BuildingBlock: BELTOD_clean_linker_0, # of connection points: 3
#     Edge 10, Type (0, 1), BuildingBlock: AJUNOK_clean_linker_0, # of connection points: 2
#     Edge 11, Type (0, 1), BuildingBlock: AJUNOK_clean_linker_0, # of connection points: 2
#     Edge 12, Type (0, 1), BuildingBlock: AJUNOK_clean_linker_0, # of connection points: 2
#     Edge 13, Type (0, 1), BuildingBlock: AJUNOK_clean_linker_0, # of connection points: 2
#     Edge 14, Type (0, 1), BuildingBlock: AJUNOK_clean_linker_0, # of connection points: 2
#     Edge 15, Type (0, 1), BuildingBlock: AJUNOK_clean_linker_0, # of connection points: 2
#     Edge 16, Type (0, 1), BuildingBlock: AJUNOK_clean_linker_0, # of connection points: 2
#     Edge 17, Type (0, 1), BuildingBlock: AJUNOK_clean_linker_0, # of connection points: 2
#     Edge 18, Type (0, 1), BuildingBlock: AJUNOK_clean_linker_0, # of connection points: 2
#     Edge 19, Type (0, 1), BuildingBlock: AJUNOK_clean_linker_0, # of connection points: 2
#     Edge 20, Type (0, 1), BuildingBlock: AJUNOK_clean_linker_0, # of connection points: 2
#     Edge 21, Type (0, 1), BuildingBlock: AJUNOK_clean_linker_0, # of connection points: 2
#     Edge 22, Type (0, 1), BuildingBlock: AJUNOK_clean_linker_0, # of connection points: 2
#     Edge 23, Type (0, 1), BuildingBlock: AJUNOK_clean_linker_0, # of connection points: 2
#     Edge 24, Type (0, 1), BuildingBlock: AJUNOK_clean_linker_0, # of connection points: 2
#     Edge 25, Type (0, 1), BuildingBlock: AJUNOK_clean_linker_0, # of connection points: 2
#     Edge 26, Type (0, 1), BuildingBlock: AJUNOK_clean_linker_0, # of connection points: 2
#     Edge 27, Type (0, 1), BuildingBlock: AJUNOK_clean_linker_0, # of connection points: 2
#     Edge 28, Type (0, 1), BuildingBlock: AJUNOK_clean_linker_0, # of connection points: 2
#     Edge 29, Type (0, 1), BuildingBlock: AJUNOK_clean_linker_0, # of connection points: 2
#     Edge 30, Type (0, 1), BuildingBlock: AJUNOK_clean_linker_0, # of connection points: 2
#     Edge 31, Type (0, 1), BuildingBlock: AJUNOK_clean_linker_0, # of connection points: 2
#     Edge 32, Type (0, 1), BuildingBlock: AJUNOK_clean_linker_0, # of connection points: 2
#     Edge 33, Type (0, 1), BuildingBlock: AJUNOK_clean_linker_0, # of connection points: 2
# Relax obj value: 0.009
# Max RMSD: 0.049
# Mean RMSD: 0.045
data_MOF--net-llj--node1-QEWDON_clean_sbu_0--node2-BELTOD_clean_linker_0--edge1-AJUNOK_clean_linker_0
_symmetry_space_group_name_H-M    P1
_symmetry_Int_Tables_number       1
_symmetry_cell_setting            triclinic
loop_
_symmetry_equiv_pos_as_xyz
'x, y, z'
_cell_length_a     33.637955
_cell_length_b     33.603821
_cell_length_c     22.894661
_cell_angle_alpha  89.354863
_cell_angle_beta   90.120294
_cell_angle_gamma 89.911798
loop_
_atom_site_label
_atom_site_type_symbol
_atom_site_fract_x
_atom_site_fract_y
_atom_site_fract_z
_atom_type_partial_charge
Zn0 Zn 0.92568 0.07693 0.94592 0.0
Zn1 Zn 0.92175 0.08104 0.08529 0.0
O2 O 0.95848 0.06944 0.01895 0.0
H3 H 0.97925 0.04964 0.02053 0.0
C4 C 0.87805 0.00124 0.87491 0.0
O5 O 0.86129 0.00971 0.92504 0.0
Zn6 Zn 0.05017 0.92926 0.08343 0.0
Zn7 Zn 0.05275 0.92195 0.94588 0.0
O8 O 0.0159 0.93354 0.01274 0.0
H9 H 0.99287 0.95057 0.00881 0.0
Zn10 Zn 0.9077 0.94003 0.95048 0.0
O11 O 0.91274 0.97647 0.01892 0.0
Zn12 Zn 0.90719 0.94143 0.08882 0.0
H13 H 0.93063 0.99875 0.01597 0.0
Zn14 Zn 0.06466 0.08056 0.94882 0.0
O15 O 0.05507 0.04027 0.0133 0.0
H16 H 0.04137 0.01539 0.00745 0.0
Zn17 Zn 0.05999 0.0722 0.08564 0.0
C18 C 0.10753 0.02805 0.87746 0.0
O19 O 0.12491 0.02391 0.92864 0.0
O20 O 0.8823 0.11829 0.96009 0.0
O21 O 0.88026 0.12127 0.05715 0.0
O22 O 0.10258 0.89021 0.97119 0.0
O23 O 0.09923 0.89512 0.06784 0.0
O24 O 0.87608 0.8894 0.97095 0.0
O25 O 0.87165 0.8942 0.06799 0.0
C26 C 0.99012 0.10173 0.15123 0.0
O27 O 0.10297 0.12464 0.97606 0.0
O28 O 0.09931 0.11623 0.07235 0.0
O29 O 0.02345 0.90429 0.87154 0.0
C30 C 0.86842 0.13316 0.00674 0.0
O31 O 0.95843 0.08367 0.86995 0.0
C32 C 0.98108 0.90754 0.14901 0.0
O33 O 0.8997 0.97029 0.87192 0.0
C34 C 0.11616 0.88201 0.02197 0.0
O35 O 0.07912 0.05274 0.87203 0.0
C36 C 0.88981 0.01131 0.15451 0.0
O37 O 0.95252 0.10249 0.15522 0.0
O38 O 0.00525 0.09072 0.10354 0.0
C39 C 0.86352 0.87651 0.02018 0.0
O40 O 0.01875 0.90507 0.14933 0.0
O41 O 0.9639 0.92505 0.10643 0.0
C42 C 0.07729 0.00082 0.14894 0.0
O43 O 0.88669 0.97358 0.15772 0.0
O44 O 0.90035 0.02679 0.10619 0.0
C45 C 0.11383 0.13373 0.02762 0.0
O46 O 0.07957 0.03836 0.15245 0.0
O47 O 0.06315 0.98564 0.103 0.0
C48 C 0.00071 0.87442 0.87765 0.0
O49 O 0.99843 0.85669 0.92899 0.0
C50 C 0.98483 0.11067 0.87067 0.0
O51 O 0.98871 0.13205 0.91803 0.0
Zn52 Zn 0.42199 0.57733 0.4445 0.0
Zn53 Zn 0.42106 0.57808 0.58591 0.0
O54 O 0.45378 0.5641 0.51666 0.0
H55 H 0.47011 0.54051 0.51746 0.0
C56 C 0.37836 0.48518 0.37674 0.0
O57 O 0.35286 0.48373 0.42007 0.0
Zn58 Zn 0.5544 0.42071 0.56298 0.0
Zn59 Zn 0.55845 0.42292 0.42611 0.0
O60 O 0.5196 0.4251 0.49339 0.0
H61 H 0.49371 0.43759 0.49238 0.0
Zn62 Zn 0.41606 0.43571 0.46056 0.0
O63 O 0.40878 0.47464 0.52564 0.0
Zn64 Zn 0.40993 0.43795 0.59447 0.0
H65 H 0.39201 0.49776 0.52022 0.0
Zn66 Zn 0.55416 0.56621 0.43017 0.0
O67 O 0.54392 0.53113 0.50053 0.0
H68 H 0.52954 0.50632 0.49919 0.0
Zn69 Zn 0.55672 0.56415 0.56992 0.0
C70 C 0.59017 0.50586 0.36168 0.0
O71 O 0.60344 0.49701 0.41428 0.0
O72 O 0.37621 0.6152 0.46312 0.0
O73 O 0.37405 0.61282 0.56032 0.0
O74 O 0.61141 0.3953 0.44794 0.0
O75 O 0.60545 0.3906 0.54439 0.0
O76 O 0.3843 0.38472 0.47855 0.0
O77 O 0.37632 0.3887 0.57487 0.0
C78 C 0.49143 0.60654 0.64068 0.0
O79 O 0.59235 0.61222 0.44934 0.0
O80 O 0.59394 0.60864 0.5464 0.0
O81 O 0.53384 0.40688 0.34739 0.0
C82 C 0.36081 0.6259 0.51127 0.0
O83 O 0.45445 0.58718 0.36876 0.0
C84 C 0.48682 0.39579 0.63235 0.0
O85 O 0.40958 0.46395 0.38036 0.0
C86 C 0.62464 0.38367 0.49747 0.0
O87 O 0.5669 0.53538 0.35524 0.0
C88 C 0.39308 0.50707 0.66359 0.0
O89 O 0.45389 0.60942 0.64417 0.0
O90 O 0.50507 0.58562 0.59939 0.0
C91 C 0.36996 0.37111 0.5263 0.0
O92 O 0.52401 0.39141 0.62477 0.0
O93 O 0.46834 0.42251 0.60313 0.0
C94 C 0.58117 0.49263 0.63001 0.0
O95 O 0.38949 0.46933 0.66508 0.0
O96 O 0.40666 0.52337 0.61756 0.0
C97 C 0.60508 0.62458 0.49836 0.0
O98 O 0.58186 0.53021 0.63298 0.0
O99 O 0.56537 0.47669 0.58584 0.0
C100 C 0.49908 0.39216 0.34751 0.0
O101 O 0.47984 0.3892 0.39722 0.0
C102 C 0.48289 0.61197 0.37118 0.0
O103 O 0.4896 0.63019 0.42069 0.0
P104 P 0.39933 0.23171 0.99222 0.0
H105 H 0.41706 0.21317 0.11347 0.0
H106 H 0.43713 0.25439 0.19612 0.0
H107 H 0.43347 0.35885 0.08471 0.0
H108 H 0.41306 0.31771 0.00235 0.0
H109 H 0.35584 0.15755 0.00962 0.0
H110 H 0.28582 0.14341 0.02857 0.0
H111 H 0.25896 0.26896 0.01968 0.0
H112 H 0.32973 0.28332 0.00232 0.0
H113 H 0.47301 0.25426 0.93709 0.0
H114 H 0.34789 0.26316 0.89651 0.0
O115 O 0.42535 0.18939 0.99461 0.0
H116 H 0.48873 0.29024 0.84663 0.0
H117 H 0.36364 0.29981 0.8065 0.0
C118 C 0.41488 0.26225 0.0516 0.0
C119 C 0.42083 0.24491 0.10682 0.0
C120 C 0.4319 0.26842 0.15395 0.0
C121 C 0.43715 0.30957 0.14627 0.0
C122 C 0.43014 0.32705 0.09124 0.0
C123 C 0.41873 0.30355 0.04424 0.0
C124 C 0.3477 0.22141 0.00372 0.0
C125 C 0.33505 0.1821 0.01183 0.0
C126 C 0.2952 0.17407 0.02311 0.0
C127 C 0.26748 0.20523 0.02604 0.0
C128 C 0.28007 0.24463 0.01786 0.0
C129 C 0.3202 0.25272 0.00765 0.0
C130 C 0.4094 0.25607 0.92361 0.0
C131 C 0.44897 0.26369 0.90854 0.0
C132 C 0.4579 0.28413 0.85698 0.0
C133 C 0.4273 0.29739 0.81974 0.0
C134 C 0.38761 0.28981 0.83474 0.0
C135 C 0.37869 0.26894 0.88624 0.0
P136 P 0.74284 0.41451 0.99394 0.0
H137 H 0.76298 0.45613 0.10123 0.0
H138 H 0.72406 0.47338 0.18733 0.0
H139 H 0.62227 0.41321 0.11441 0.0
H140 H 0.66075 0.39785 0.02729 0.0
H141 H 0.81615 0.37832 0.95369 0.0
H142 H 0.84063 0.30984 0.95527 0.0
H143 H 0.73386 0.2717 0.04391 0.0
H144 H 0.70959 0.34041 0.04288 0.0
H145 H 0.69825 0.48231 0.9508 0.0
H146 H 0.71936 0.36123 0.89786 0.0
O147 O 0.781 0.44601 0.98838 0.0
H148 H 0.65656 0.4932 0.86453 0.0
H149 H 0.67719 0.37189 0.81186 0.0
C150 C 0.71449 0.42632 0.05769 0.0
C151 C 0.73218 0.44696 0.10364 0.0
C152 C 0.70999 0.4565 0.15298 0.0
C153 C 0.6699 0.44503 0.15743 0.0
C154 C 0.65268 0.42336 0.11178 0.0
C155 C 0.67474 0.41432 0.06212 0.0
C156 C 0.76146 0.36455 -0.00086 0.0
C157 C 0.79816 0.35534 0.97398 0.0
C158 C 0.81188 0.3162 0.97432 0.0
C159 C 0.7888 0.28558 -0.0009 0.0
C160 C 0.75213 0.29488 0.02463 0.0
C161 C 0.73837 0.33412 0.0242 0.0
C162 C 0.71191 0.42111 0.93063 0.0
C163 C 0.69375 0.45805 0.92073 0.0
C164 C 0.66978 0.46413 0.87172 0.0
C165 C 0.66372 0.43333 0.83165 0.0
C166 C 0.68174 0.39617 0.84185 0.0
C167 C 0.70573 0.39009 0.89109 0.0
P168 P 0.66707 0.63787 0.00687 0.0
H169 H 0.68288 0.66643 0.88798 0.0
H170 H 0.64216 0.66842 0.79902 0.0
H171 H 0.54302 0.62028 0.89618 0.0
H172 H 0.5834 0.61896 0.98468 0.0
H173 H 0.75209 0.64054 0.03408 0.0
H174 H 0.79991 0.69545 0.03931 0.0
H175 H 0.7064 0.77912 0.99769 0.0
H176 H 0.65885 0.72412 0.9904 0.0
H177 H 0.64728 0.57253 0.08748 0.0
H178 H 0.61975 0.69751 0.06867 0.0
O179 O 0.69219 0.59531 -3e-05 0.0
H180 H 0.60439 0.5686 0.17359 0.0
H181 H 0.57676 0.69345 0.15469 0.0
C182 C 0.6359 0.64353 0.94329 0.0
C183 C 0.6521 0.65719 0.89035 0.0
C184 C 0.62891 0.65815 0.83954 0.0
C185 C 0.5892 0.64518 0.84088 0.0
C186 C 0.57312 0.63163 0.89412 0.0
C187 C 0.5963 0.63068 0.94478 0.0
C188 C 0.70197 0.67827 0.01157 0.0
C189 C 0.74186 0.67064 0.02581 0.0
C190 C 0.76912 0.70191 0.0289 0.0
C191 C 0.75662 0.74126 0.01888 0.0
C192 C 0.71654 0.74894 0.00584 0.0
C193 C 0.68945 0.7176 0.00177 0.0
C194 C 0.63732 0.63551 0.07218 0.0
C195 C 0.63235 0.59919 0.10203 0.0
C196 C 0.6076 0.59683 0.15089 0.0
C197 C 0.58738 0.6307 0.17051 0.0
C198 C 0.59245 0.66706 0.1407 0.0
C199 C 0.61707 0.66938 0.09166 0.0
P200 P 0.357 0.68559 0.02688 0.0
H201 H 0.37419 0.70242 0.90451 0.0
H202 H 0.37818 0.66009 0.81802 0.0
H203 H 0.34383 0.55828 0.9224 0.0
H204 H 0.33902 0.60033 0.00816 0.0
H205 H 0.33673 0.75097 0.10318 0.0
H206 H 0.28071 0.79768 0.10542 0.0
H207 H 0.22744 0.73779 0.95893 0.0
H208 H 0.28356 0.69144 0.95657 0.0
H209 H 0.42223 0.66205 0.10478 0.0
H210 H 0.29628 0.64074 0.08999 0.0
O211 O 0.39755 0.71411 0.02441 0.0
H212 H 0.42573 0.61638 0.18847 0.0
H213 H 0.29993 0.59296 0.17095 0.0
C214 C 0.35699 0.65457 0.96309 0.0
C215 C 0.36729 0.67105 0.90873 0.0
C216 C 0.36971 0.64693 0.85952 0.0
C217 C 0.36175 0.606 0.86396 0.0
C218 C 0.34991 0.58981 0.91789 0.0
C219 C 0.34744 0.61394 0.96708 0.0
C220 C 0.31446 0.71804 0.02944 0.0
C221 C 0.31286 0.74783 0.07175 0.0
C222 C 0.28077 0.7743 0.07324 0.0
C223 C 0.24969 0.77126 0.03244 0.0
C224 C 0.25115 0.74095 0.99062 0.0
C225 C 0.2832 0.71442 0.9893 0.0
C226 C 0.35885 0.65523 0.09197 0.0
C227 C 0.39525 0.64782 0.11993 0.0
C228 C 0.39728 0.62137 0.16737 0.0
C229 C 0.36304 0.60129 0.18688 0.0
C230 C 0.32662 0.60884 0.15844 0.0
C231 C 0.32449 0.63596 0.11188 0.0
P232 P 0.88254 0.74583 0.50618 0.0
H233 H 0.95309 0.73289 0.57798 0.0
H234 H 0.97694 0.76392 0.66766 0.0
H235 H 0.87345 0.84 0.66908 0.0
H236 H 0.84917 0.80831 0.57969 0.0
H237 H 0.81633 0.76808 0.42742 0.0
H238 H 0.74603 0.75008 0.42784 0.0
H239 H 0.76327 0.68552 0.59024 0.0
H240 H 0.83322 0.70468 0.59057 0.0
H241 H 0.91709 0.72714 0.39316 0.0
H242 H 0.87614 0.83171 0.4828 0.0
O243 O 0.90425 0.70139 0.49991 0.0
H244 H 0.93461 0.76806 0.30842 0.0
H245 H 0.8931 0.87285 0.39736 0.0
C246 C 0.89928 0.76816 0.57262 0.0
C247 C 0.93533 0.75598 0.59779 0.0
C248 C 0.9489 0.77363 0.64892 0.0
C249 C 0.92694 0.80421 0.67488 0.0
C250 C 0.89089 0.81655 0.64949 0.0
C251 C 0.87707 0.79849 0.59868 0.0
C252 C 0.8299 0.7378 0.50923 0.0
C253 C 0.80486 0.7509 0.46388 0.0
C254 C 0.76466 0.74056 0.46405 0.0
C255 C 0.74906 0.71679 0.50937 0.0
C256 C 0.7741 0.70479 0.55556 0.0
C257 C 0.81418 0.71534 0.55551 0.0
C258 C 0.896 0.77649 0.4446 0.0
C259 C 0.91185 0.7589 0.39463 0.0
C260 C 0.92135 0.78224 0.34593 0.0
C261 C 0.9146 0.82351 0.34612 0.0
C262 C 0.89851 0.84108 0.39619 0.0
C263 C 0.88902 0.81765 0.44501 0.0
P264 P 0.23397 0.90527 0.50682 0.0
H265 H 0.26037 0.96042 0.59649 0.0
H266 H 0.22824 0.98667 0.68311 0.0
H267 H 0.12712 0.91022 0.65297 0.0
H268 H 0.15815 0.88667 0.56325 0.0
H269 H 0.29601 0.86371 0.44506 0.0
H270 H 0.3184 0.79467 0.44548 0.0
H271 H 0.22897 0.76479 0.57363 0.0
H272 H 0.20707 0.83424 0.57401 0.0
H273 H 0.1864 0.97389 0.47476 0.0
H274 H 0.20557 0.85527 0.40987 0.0
O275 O 0.27353 0.9337 0.49275 0.0
H276 H 0.14403 0.98905 0.39063 0.0
H277 H 0.16279 0.87026 0.32589 0.0
C278 C 0.21172 0.92142 0.57374 0.0
C279 C 0.23126 0.94934 0.60838 0.0
C280 C 0.21291 0.96417 0.65815 0.0
C281 C 0.17492 0.95084 0.67476 0.0
C282 C 0.15587 0.92197 0.64063 0.0
C283 C 0.17389 0.90791 0.58994 0.0
C284 C 0.25028 0.85433 0.51005 0.0
C285 C 0.2813 0.84242 0.47351 0.0
C286 C 0.29371 0.80286 0.47319 0.0
C287 C 0.27492 0.77434 0.50891 0.0
C288 C 0.24379 0.78625 0.54558 0.0
C289 C 0.23134 0.82599 0.54581 0.0
C290 C 0.19905 0.91352 0.44861 0.0
C291 C 0.18092 0.9509 0.44294 0.0
C292 C 0.15661 0.95946 0.39505 0.0
C293 C 0.15032 0.93082 0.35179 0.0
C294 C 0.16753 0.89292 0.35844 0.0
C295 C 0.19187 0.88435 0.40652 0.0
P296 P 0.1756 0.12855 0.51345 0.0
H297 H 0.19169 0.1222 0.38863 0.0
H298 H 0.14821 0.1172 0.30275 0.0
H299 H 0.04529 0.12835 0.41373 0.0
H300 H 0.08836 0.13307 0.49888 0.0
H301 H 0.24199 0.14764 0.58917 0.0
H302 H 0.28802 0.20409 0.59307 0.0
H303 H 0.22672 0.25938 0.44745 0.0
H304 H 0.18083 0.20293 0.44369 0.0
H305 H 0.14771 0.0636 0.58863 0.0
H306 H 0.13646 0.19141 0.57939 0.0
O307 O 0.20355 0.0875 0.51205 0.0
H308 H 0.10281 0.06188 0.67248 0.0
H309 H 0.09068 0.18964 0.66255 0.0
C310 C 0.14347 0.12816 0.45022 0.0
C311 C 0.15978 0.12393 0.39432 0.0
C312 C 0.13496 0.12121 0.34537 0.0
C313 C 0.0934 0.12255 0.35171 0.0
C314 C 0.07721 0.12705 0.40769 0.0
C315 C 0.10199 0.12996 0.45646 0.0
C316 C 0.20852 0.17075 0.51548 0.0
C317 C 0.23857 0.17189 0.55797 0.0
C318 C 0.26469 0.20417 0.56038 0.0
C319 C 0.26127 0.2358 0.52006 0.0
C320 C 0.23053 0.23498 0.47828 0.0
C321 C 0.20426 0.20275 0.47615 0.0
C322 C 0.1461 0.12772 0.57881 0.0
C323 C 0.13598 0.09131 0.60512 0.0
C324 C 0.10999 0.09028 0.65255 0.0
C325 C 0.09339 0.12558 0.67402 0.0
C326 C 0.1036 0.16206 0.64751 0.0
C327 C 0.12975 0.16309 0.60015 0.0
P328 P 0.87245 0.19592 0.51671 0.0
H329 H 0.90945 0.20469 0.4018 0.0
H330 H 0.91336 0.16066 0.31718 0.0
H331 H 0.84338 0.0728 0.4095 0.0
H332 H 0.83947 0.11662 0.49359 0.0
H333 H 0.84255 0.25569 0.59637 0.0
H334 H 0.78582 0.30159 0.59199 0.0
H335 H 0.75105 0.25218 0.42628 0.0
H336 H 0.80795 0.20697 0.43035 0.0
H337 H 0.93567 0.16657 0.59366 0.0
H338 H 0.80807 0.15758 0.58195 0.0
O339 O 0.91285 0.22466 0.51748 0.0
H340 H 0.93553 0.12194 0.67885 0.0
H341 H 0.80781 0.11139 0.66515 0.0
C342 C 0.87504 0.16357 0.45457 0.0
C343 C 0.89517 0.17585 0.40395 0.0
C344 C 0.89725 0.15082 0.35563 0.0
C345 C 0.87919 0.11316 0.35734 0.0
C346 C 0.8583 0.10133 0.40763 0.0
C347 C 0.85604 0.12645 0.4557 0.0
C348 C 0.82953 0.22801 0.51372 0.0
C349 C 0.82267 0.25479 0.55912 0.0
C350 C 0.79028 0.28091 0.55664 0.0
C351 C 0.76435 0.28084 0.50841 0.0
C352 C 0.77105 0.25353 0.46335 0.0
C353 C 0.80343 0.22742 0.4659 0.0
C354 C 0.8718 0.16603 0.5824 0.0
C355 C 0.90758 0.15533 0.60985 0.0
C356 C 0.90749 0.12953 0.65815 0.0
C357 C 0.8716 0.1135 0.67924 0.0
C358 C 0.83582 0.12414 0.6512 0.0
C359 C 0.83592 0.15039 0.60344 0.0
C360 C 0.16077 0.18483 0.98836 0.0
C361 C 0.14869 0.15998 0.03492 0.0
C362 C 0.19843 0.20248 0.98799 0.0
C363 C 0.2252 0.19561 0.03406 0.0
H364 H 0.14195 0.18884 0.95042 0.0
H365 H 0.20767 0.21919 0.94962 0.0
S366 S 0.20646 0.13833 0.17025 0.0
N367 N 0.16529 0.13344 0.13163 0.0
N368 N 0.23604 0.16679 0.13037 0.0
C369 C 0.21249 0.17376 0.08301 0.0
C370 C 0.17412 0.15596 0.08369 0.0
C371 C 0.82583 0.18525 0.05297 0.0
C372 C 0.84226 0.16865 0.00216 0.0
C373 C 0.80676 0.22235 0.05126 0.0
C374 C 0.80359 0.24417 -0.00125 0.0
H375 H 0.82908 0.17029 0.09488 0.0
H376 H 0.79614 0.23488 0.09174 0.0
S377 S 0.83691 0.21246 0.85229 0.0
N378 N 0.8509 0.17603 0.89671 0.0
N379 N 0.81433 0.2452 0.89397 0.0
C380 C 0.81753 0.227 0.94714 0.0
C381 C 0.83698 0.18934 0.94869 0.0
C382 C 0.80715 0.83729 0.06243 0.0
C383 C 0.8381 0.84067 0.02142 0.0
C384 C 0.78096 0.80485 0.06161 0.0
C385 C 0.78545 0.77434 0.02066 0.0
H386 H 0.80247 0.86038 0.09434 0.0
H387 H 0.75696 0.80364 0.09306 0.0
S388 S 0.8629 0.76785 0.9063 0.0
N389 N 0.87247 0.80997 0.94 0.0
N390 N 0.82367 0.74868 0.93947 0.0
C391 C 0.81689 0.77672 0.98061 0.0
C392 C 0.84311 0.81001 0.98071 0.0
C393 C 0.17382 0.84651 0.97714 0.0
C394 C 0.15127 0.85522 0.02721 0.0
C395 C 0.20562 0.81959 0.97946 0.0
C396 C 0.21639 0.80034 0.03197 0.0
H397 H 0.16677 0.86038 0.93545 0.0
H398 H 0.22202 0.81386 0.93974 0.0
S399 S 0.16684 0.81162 0.17545 0.0
N400 N 0.14181 0.84156 0.13101 0.0
N401 N 0.20199 0.79133 0.13522 0.0
C402 C 0.19455 0.80895 0.08259 0.0
C403 C 0.16191 0.83624 0.08024 0.0
C404 C 0.66163 0.6595 0.44997 0.0
C405 C 0.63725 0.65449 0.49936 0.0
C406 C 0.6966 0.68183 0.45272 0.0
C407 C 0.70843 0.70013 0.50487 0.0
H408 H 0.65502 0.64413 0.40976 0.0
H409 H 0.71566 0.6827 0.41464 0.0
S410 S 0.6515 0.70217 0.64339 0.0
N411 N 0.62477 0.67388 0.59984 0.0
N412 N 0.69048 0.71631 0.60465 0.0
C413 C 0.68285 0.69793 0.55326 0.0
C414 C 0.64725 0.67503 0.55057 0.0
C415 C 0.32112 0.67795 0.56284 0.0
C416 C 0.33134 0.65888 0.51041 0.0
C417 C 0.30056 0.71427 0.5623 0.0
C418 C 0.28941 0.73273 0.50938 0.0
H419 H 0.33106 0.66606 0.60456 0.0
H420 H 0.29551 0.72912 0.60339 0.0
S421 S 0.30216 0.69206 0.36079 0.0
N422 N 0.32387 0.65913 0.4044 0.0
N423 N 0.28472 0.72694 0.40401 0.0
C424 C 0.29631 0.71248 0.45709 0.0
C425 C 0.31733 0.67564 0.45746 0.0
C426 C 0.3239 0.32201 0.5751 0.0
C427 C 0.34396 0.33521 0.52447 0.0
C428 C 0.29753 0.28965 0.57352 0.0
C429 C 0.28998 0.26936 0.52124 0.0
H430 H 0.3281 0.33708 0.61622 0.0
H431 H 0.28235 0.28092 0.61332 0.0
S432 S 0.33716 0.28919 0.37762 0.0
N433 N 0.35595 0.32326 0.42103 0.0
N434 N 0.30647 0.26278 0.41865 0.0
C435 C 0.31046 0.28145 0.47072 0.0
C436 C 0.33743 0.31421 0.4722 0.0
C437 C 0.67086 0.33721 0.55095 0.0
C438 C 0.66183 0.35971 0.50031 0.0
C439 C 0.70434 0.31232 0.55352 0.0
C440 C 0.73009 0.30879 0.50552 0.0
H441 H 0.65149 0.33812 0.58865 0.0
H442 H 0.70958 0.29496 0.59296 0.0
S443 S 0.72236 0.36413 0.36479 0.0
N444 N 0.68321 0.37871 0.40232 0.0
N445 N 0.74609 0.33205 0.40749 0.0
C446 C 0.72217 0.33194 0.45528 0.0
C447 C 0.68811 0.35734 0.4526 0.0
C448 C 0.01001 0.08594 0.25375 0.0
C449 C 0.0154 0.10865 0.20253 0.0
C450 C 0.03542 0.0906 0.30185 0.0
C451 C 0.06678 0.11837 0.30038 0.0
H452 H 0.98663 0.06383 0.25611 0.0
H453 H 0.03087 0.07193 0.34014 0.0
S454 S 0.08914 0.18891 0.17919 0.0
N455 N 0.0516 0.16215 0.15472 0.0
N456 N 0.09923 0.1713 0.24524 0.0
C457 C 0.07151 0.14207 0.2499 0.0
C458 C 0.04579 0.13713 0.20094 0.0
C459 C 0.87224 0.07549 0.20201 0.0
C460 C 0.88596 0.03605 0.20718 0.0
C461 C 0.87031 0.10031 0.25072 0.0
C462 C 0.88168 0.08642 0.30645 0.0
H463 H 0.86289 0.08727 0.16 0.0
H464 H 0.8595 0.13048 0.24483 0.0
S465 S 0.92117 0.9861 0.34308 0.0
N466 N 0.91197 0.98454 0.27226 0.0
N467 N 0.90817 0.03117 0.36388 0.0
C468 C 0.89531 0.04702 0.31232 0.0
C469 C 0.89738 0.02179 0.2627 0.0
C470 C 0.96802 0.90138 0.25519 0.0
C471 C 0.9587 0.89022 0.19786 0.0
C472 C 0.9518 0.88096 0.30317 0.0
C473 C 0.92642 0.84823 0.29517 0.0
H474 H 0.98887 0.92532 0.26294 0.0
H475 H 0.96074 0.88961 0.3467 0.0
S476 S 0.89304 0.80755 0.15341 0.0
N477 N 0.92283 0.84474 0.13545 0.0
N478 N 0.89149 0.80672 0.22551 0.0
C479 C 0.916 0.83763 0.2379 0.0
C480 C 0.9324 0.85856 0.18918 0.0
C481 C 0.07392 0.97928 0.25249 0.0
C482 C 0.09177 0.97611 0.19742 0.0
C483 C 0.09184 0.96224 0.30204 0.0
C484 C 0.12841 0.94205 0.298 0.0
H485 H 0.04678 0.9963 0.25756 0.0
H486 H 0.07785 0.9663 0.34415 0.0
S487 S 0.18755 0.92748 0.16329 0.0
N488 N 0.14753 0.95188 0.14106 0.0
N489 N 0.18181 0.92026 0.23426 0.0
C490 C 0.14583 0.93773 0.24261 0.0
C491 C 0.12735 0.9548 0.1922 0.0
C492 C 0.16209 0.99218 0.82698 0.0
C493 C 0.12265 0.00602 0.82667 0.0
C494 C 0.17827 0.97343 0.77828 0.0
C495 C 0.15562 0.96764 0.72734 0.0
H496 H 0.18105 0.9967 0.86464 0.0
H497 H 0.20896 0.96371 0.78041 0.0
S498 S 0.04923 0.99406 0.70711 0.0
N499 N 0.06005 0.00927 0.77359 0.0
N500 N 0.09072 0.97496 0.6811 0.0
C501 C 0.11555 0.97984 0.72735 0.0
C502 C 0.09905 0.99892 0.77716 0.0
C503 C 0.0063 0.09436 0.769 0.0
C504 C 0.01174 0.11674 0.82002 0.0
C505 C 0.03233 0.09808 0.72156 0.0
C506 C 0.06504 0.12399 0.72345 0.0
H507 H 0.982 0.07343 0.76573 0.0
H508 H 0.02691 0.08041 0.68309 0.0
S509 S 0.09196 0.19055 0.8451 0.0
N510 N 0.05174 0.16717 0.86819 0.0
N511 N 0.10104 0.1732 0.77934 0.0
C512 C 0.07044 0.14719 0.77341 0.0
C513 C 0.04378 0.14372 0.82164 0.0
C514 C 0.90098 0.02617 0.77723 0.0
C515 C 0.87444 0.02906 0.82443 0.0
C516 C 0.89972 0.05347 0.73056 0.0
C517 C 0.87185 0.08476 0.72912 0.0
H518 H 0.92345 0.00308 0.77673 0.0
H519 H 0.92075 0.04995 0.6952 0.0
S520 S 0.79485 0.10482 0.84095 0.0
N521 N 0.81859 0.06511 0.86593 0.0
N522 N 0.81678 0.11683 0.77879 0.0
C523 C 0.84482 0.08776 0.77568 0.0
C524 C 0.84604 0.0599 0.82319 0.0
C525 C 0.96899 0.8175 0.82671 0.0
C526 C 0.97914 0.8581 0.82709 0.0
C527 C 0.95131 0.80041 0.77762 0.0
C528 C 0.94242 0.82352 0.72779 0.0
H529 H 0.97587 0.79844 0.86386 0.0
H530 H 0.94493 0.76881 0.77835 0.0
S531 S 0.95954 0.93172 0.70843 0.0
N532 N 0.97678 0.92144 0.77452 0.0
N533 N 0.94295 0.88919 0.6825 0.0
C534 C 0.95081 0.8644 0.7284 0.0
C535 C 0.96938 0.88174 0.77801 0.0
C536 C 0.55829 0.61469 0.68855 0.0
C537 C 0.51735 0.6232 0.68732 0.0
C538 C 0.58185 0.62349 0.73721 0.0
C539 C 0.56554 0.64215 0.78626 0.0
H540 H 0.57227 0.60013 0.65256 0.0
H541 H 0.61266 0.61403 0.73732 0.0
S542 S 0.46326 0.68224 0.79824 0.0
N543 N 0.4636 0.65904 0.73502 0.0
N544 N 0.50823 0.67635 0.82599 0.0
C545 C 0.52577 0.6548 0.78326 0.0
C546 C 0.50164 0.6454 0.73386 0.0
C547 C 0.41396 0.55527 0.73881 0.0
C548 C 0.38418 0.53104 0.71526 0.0
C549 C 0.4063 0.57942 0.78691 0.0
C550 C 0.36864 0.57992 0.81333 0.0
H551 H 0.44364 0.55485 0.7207 0.0
H552 H 0.43022 0.59727 0.80431 0.0
S553 S 0.28117 0.52015 0.76974 0.0
N554 N 0.31617 0.50753 0.72286 0.0
N555 N 0.30158 0.55307 0.81369 0.0
C556 C 0.33887 0.55491 0.7912 0.0
C557 C 0.34673 0.53032 0.74207 0.0
C558 C 0.43781 0.38324 0.71249 0.0
C559 C 0.46644 0.36877 0.67353 0.0
C560 C 0.42332 0.35914 0.75814 0.0
C561 C 0.43736 0.32002 0.76621 0.0
H562 H 0.42854 0.41397 0.7101 0.0
H563 H 0.40277 0.37188 0.78918 0.0
S564 S 0.50819 0.26653 0.67139 0.0
N565 N 0.50519 0.31166 0.64239 0.0
N566 N 0.4782 0.2666 0.72839 0.0
C567 C 0.4642 0.30455 0.72556 0.0
C568 C 0.47875 0.32891 0.67917 0.0
C569 C 0.58209 0.47409 0.73446 0.0
C570 C 0.59789 0.46917 0.67834 0.0
C571 C 0.60247 0.46002 0.78383 0.0
C572 C 0.63958 0.44105 0.77864 0.0
H573 H 0.55471 0.4906 0.74036 0.0
H574 H 0.58997 0.4656 0.82655 0.0
S575 S 0.69337 0.42111 0.64076 0.0
N576 N 0.65203 0.44374 0.61973 0.0
N577 N 0.69076 0.41725 0.71265 0.0
C578 C 0.65481 0.4344 0.72239 0.0
C579 C 0.63386 0.44861 0.67209 0.0
C580 C 0.64374 0.46618 0.31496 0.0
C581 C 0.60684 0.48569 0.3102 0.0
C582 C 0.66321 0.45187 0.26551 0.0
C583 C 0.64645 0.45634 0.20948 0.0
H584 H 0.65859 0.46333 0.35683 0.0
H585 H 0.69206 0.43796 0.27108 0.0
S586 S 0.54732 0.49926 0.17483 0.0
N587 N 0.55183 0.50407 0.24623 0.0
N588 N 0.58903 0.47834 0.15281 0.0
C589 C 0.60844 0.47361 0.20455 0.0
C590 C 0.5885 0.48804 0.25503 0.0
C591 C 0.50335 0.59635 0.26881 0.0
C592 C 0.50905 0.61874 0.31981 0.0
C593 C 0.52847 0.60091 0.22047 0.0
C594 C 0.56041 0.62773 0.22134 0.0
H595 H 0.47952 0.57483 0.2662 0.0
H596 H 0.52279 0.58344 0.18192 0.0
S597 S 0.5876 0.6948 0.34227 0.0
N598 N 0.54843 0.67023 0.36673 0.0
N599 N 0.596 0.67783 0.27603 0.0
C600 C 0.56612 0.65089 0.27124 0.0
C601 C 0.54043 0.64652 0.32048 0.0
C602 C 0.4008 0.51579 0.28218 0.0
C603 C 0.3727 0.5138 0.32758 0.0
C604 C 0.39732 0.54402 0.23694 0.0
C605 C 0.36576 0.57158 0.23538 0.0
H606 H 0.4259 0.49556 0.28159 0.0
H607 H 0.4195 0.54405 0.20269 0.0
S608 S 0.28422 0.57912 0.34373 0.0
N609 N 0.31183 0.54173 0.36766 0.0
N610 N 0.30609 0.59542 0.28364 0.0
C611 C 0.33739 0.56989 0.28038 0.0
C612 C 0.34069 0.54091 0.3262 0.0
C613 C 0.446 0.35349 0.29716 0.0
C614 C 0.48207 0.37468 0.29394 0.0
C615 C 0.43112 0.33316 0.2488 0.0
C616 C 0.45146 0.33378 0.19533 0.0
H617 H 0.42958 0.35159 0.33774 0.0
H618 H 0.40377 0.31642 0.25344 0.0
S619 S 0.54611 0.38536 0.16281 0.0
N620 N 0.53711 0.39569 0.23183 0.0
N621 N 0.50871 0.35748 0.14106 0.0
C622 C 0.48675 0.35572 0.19076 0.0
C623 C 0.50215 0.37621 0.24003 0.0
loop_
_geom_bond_atom_site_label_1
_geom_bond_atom_site_label_2
_geom_bond_distance
_geom_bond_site_symmetry_2
_ccdc_geom_bond_type
Zn0 O2 1.933 1_556 S
Zn0 O20 1.985 . S
Zn0 O31 1.955 . S
Zn1 O2 1.911 . S
Zn1 O21 1.970 . S
Zn1 O37 1.945 . S
Zn1 O44 1.981 . S
O2 Zn0 1.933 1_554 S
O2 Zn1 1.911 . S
O2 H3 0.841 1_655 S
H3 O2 0.841 1_455 S
C4 O5 1.246 . S
C4 O33 1.276 1_545 S
O5 C4 1.246 . S
Zn6 O8 1.911 . S
Zn6 O23 1.970 . S
Zn6 O40 1.945 . S
Zn6 O47 1.981 . S
Zn7 O8 1.933 1_556 S
Zn7 O22 1.985 . S
Zn7 O29 1.955 . S
O8 Zn6 1.911 . S
O8 Zn7 1.933 1_554 S
O8 H9 0.841 1_455 S
H9 O8 0.841 1_655 S
Zn10 O11 1.933 1_556 S
Zn10 O24 1.985 . S
Zn10 O33 1.955 . S
O11 Zn10 1.933 1_554 S
O11 Zn12 1.911 . S
O11 H13 0.841 1_565 S
Zn12 O11 1.911 . S
Zn12 O25 1.970 . S
Zn12 O41 1.981 . S
Zn12 O43 1.945 . S
H13 O11 0.841 1_545 S
Zn14 O15 1.933 1_556 S
Zn14 O27 1.985 . S
Zn14 O35 1.955 . S
O15 Zn14 1.933 1_554 S
O15 H16 0.841 1_545 S
O15 Zn17 1.911 . S
H16 O15 0.841 1_565 S
Zn17 O15 1.911 . S
Zn17 O28 1.970 . S
Zn17 O38 1.981 . S
Zn17 O46 1.945 . S
C18 O19 1.246 . S
C18 O35 1.276 1_565 S
O19 C18 1.246 . S
O20 Zn0 1.985 . S
O20 C30 1.245 1_556 S
O21 Zn1 1.970 . S
O21 C30 1.263 . S
O22 Zn7 1.985 . S
O22 C34 1.245 1_556 S
O23 Zn6 1.970 . S
O23 C34 1.263 . S
O24 Zn10 1.985 . S
O24 C39 1.245 1_556 S
O25 Zn12 1.970 . S
O25 C39 1.263 . S
C26 O37 1.262 1_455 S
C26 O38 1.245 . S
O27 Zn14 1.985 . S
O27 C45 1.245 1_556 S
O28 Zn17 1.970 . S
O28 C45 1.263 . S
O29 Zn7 1.955 . S
O29 C48 1.276 1_455 S
C30 O20 1.245 1_554 S
C30 O21 1.263 . S
O31 Zn0 1.955 . S
O31 C50 1.276 1_655 S
C32 O40 1.262 1_655 S
C32 O41 1.245 . S
O33 C4 1.276 1_565 S
O33 Zn10 1.955 . S
C34 O22 1.245 1_554 S
C34 O23 1.263 . S
O35 Zn14 1.955 . S
O35 C18 1.276 1_545 S
C36 O43 1.262 1_545 S
C36 O44 1.245 . S
O37 Zn1 1.945 . S
O37 C26 1.262 1_655 S
O38 Zn17 1.981 . S
O38 C26 1.245 . S
C39 O24 1.245 1_554 S
C39 O25 1.263 . S
O40 Zn6 1.945 . S
O40 C32 1.262 1_455 S
O41 Zn12 1.981 . S
O41 C32 1.245 . S
C42 O46 1.262 1_565 S
C42 O47 1.245 . S
O43 Zn12 1.945 . S
O43 C36 1.262 1_565 S
O44 Zn1 1.981 . S
O44 C36 1.245 . S
C45 O27 1.245 1_554 S
C45 O28 1.263 . S
O46 Zn17 1.945 . S
O46 C42 1.262 1_545 S
O47 Zn6 1.981 . S
O47 C42 1.245 . S
C48 O29 1.276 1_655 S
C48 O49 1.246 . S
O49 C48 1.246 . S
C50 O31 1.276 1_455 S
C50 O51 1.246 . S
O51 C50 1.246 . S
Zn52 O54 1.933 . S
Zn52 O72 1.985 . S
Zn52 O83 1.955 . S
Zn53 O54 1.911 . S
Zn53 O73 1.970 . S
Zn53 O89 1.945 . S
Zn53 O96 1.981 . S
O54 Zn52 1.933 . S
O54 Zn53 1.911 . S
O54 H55 0.841 . S
H55 O54 0.841 . S
C56 O57 1.246 . S
C56 O85 1.276 . S
O57 C56 1.246 . S
Zn58 O60 1.911 . S
Zn58 O75 1.970 . S
Zn58 O92 1.945 . S
Zn58 O99 1.981 . S
Zn59 O60 1.933 . S
Zn59 O74 1.985 . S
Zn59 O81 1.955 . S
O60 Zn58 1.911 . S
O60 Zn59 1.933 . S
O60 H61 0.841 . S
H61 O60 0.841 . S
Zn62 O63 1.933 . S
Zn62 O76 1.985 . S
Zn62 O85 1.955 . S
O63 Zn62 1.933 . S
O63 Zn64 1.911 . S
O63 H65 0.841 . S
Zn64 O63 1.911 . S
Zn64 O77 1.970 . S
Zn64 O93 1.981 . S
Zn64 O95 1.945 . S
H65 O63 0.841 . S
Zn66 O67 1.933 . S
Zn66 O79 1.985 . S
Zn66 O87 1.955 . S
O67 Zn66 1.933 . S
O67 H68 0.841 . S
O67 Zn69 1.911 . S
H68 O67 0.841 . S
Zn69 O67 1.911 . S
Zn69 O80 1.970 . S
Zn69 O90 1.981 . S
Zn69 O98 1.945 . S
C70 O71 1.246 . S
C70 O87 1.276 . S
O71 C70 1.246 . S
O72 Zn52 1.985 . S
O72 C82 1.245 . S
O73 Zn53 1.970 . S
O73 C82 1.263 . S
O74 Zn59 1.985 . S
O74 C86 1.245 . S
O75 Zn58 1.970 . S
O75 C86 1.263 . S
O76 Zn62 1.985 . S
O76 C91 1.245 . S
O77 Zn64 1.970 . S
O77 C91 1.263 . S
C78 O89 1.262 . S
C78 O90 1.245 . S
O79 Zn66 1.985 . S
O79 C97 1.245 . S
O80 Zn69 1.970 . S
O80 C97 1.263 . S
O81 Zn59 1.955 . S
O81 C100 1.276 . S
C82 O72 1.245 . S
C82 O73 1.263 . S
O83 Zn52 1.955 . S
O83 C102 1.276 . S
C84 O92 1.262 . S
C84 O93 1.245 . S
O85 C56 1.276 . S
O85 Zn62 1.955 . S
C86 O74 1.245 . S
C86 O75 1.263 . S
O87 Zn66 1.955 . S
O87 C70 1.276 . S
C88 O95 1.262 . S
C88 O96 1.245 . S
O89 Zn53 1.945 . S
O89 C78 1.262 . S
O90 Zn69 1.981 . S
O90 C78 1.245 . S
C91 O76 1.245 . S
C91 O77 1.263 . S
O92 Zn58 1.945 . S
O92 C84 1.262 . S
O93 Zn64 1.981 . S
O93 C84 1.245 . S
C94 O98 1.262 . S
C94 O99 1.245 . S
O95 Zn64 1.945 . S
O95 C88 1.262 . S
O96 Zn53 1.981 . S
O96 C88 1.245 . S
C97 O79 1.245 . S
C97 O80 1.263 . S
O98 Zn69 1.945 . S
O98 C94 1.262 . S
O99 Zn58 1.981 . S
O99 C94 1.245 . S
C100 O81 1.276 . S
C100 O101 1.246 . S
O101 C100 1.246 . S
C102 O83 1.276 . S
C102 O103 1.246 . S
O103 C102 1.246 . S
P104 O115 1.490 . S
P104 C118 1.812 . S
P104 C124 1.803 . S
P104 C130 1.819 1_554 S
H105 C119 0.941 . S
H106 C120 0.939 . S
H107 C122 0.940 . S
H108 C123 0.940 . S
H109 C125 0.939 . S
H110 C126 0.942 . S
H111 C128 0.940 . S
H112 C129 0.939 . S
H113 C131 0.941 . S
H114 C135 0.939 . S
O115 P104 1.490 . S
H116 C132 0.939 . S
H117 C134 0.940 . S
C118 P104 1.812 . S
C118 C119 1.389 . S
C118 C123 1.391 . S
C119 H105 0.941 . S
C119 C118 1.389 . S
C119 C120 1.397 . S
C120 H106 0.939 . S
C120 C119 1.397 . S
C120 C121 1.378 . S
C121 C120 1.378 . S
C121 C122 1.378 . S
C122 H107 0.940 . S
C122 C121 1.378 . S
C122 C123 1.396 . S
C123 H108 0.940 . S
C123 C118 1.391 . S
C123 C122 1.396 . S
C124 P104 1.803 . S
C124 C125 1.378 1_554 S
C124 C129 1.400 . S
C125 H109 0.939 . S
C125 C124 1.378 1_556 S
C125 C126 1.361 . S
C126 H110 0.942 . S
C126 C125 1.361 . S
C126 C127 1.369 1_556 S
C127 C126 1.369 1_554 S
C127 C128 1.404 . S
C128 H111 0.940 . S
C128 C127 1.404 . S
C128 C129 1.389 . S
C129 H112 0.939 . S
C129 C124 1.400 . S
C129 C128 1.389 . S
C130 P104 1.819 1_556 S
C130 C131 1.391 . S
C130 C135 1.391 . S
C131 H113 0.941 . S
C131 C130 1.391 . S
C131 C132 1.396 . S
C132 H116 0.939 . S
C132 C131 1.396 . S
C132 C133 1.397 . S
C133 C132 1.397 . S
C133 C134 1.385 . S
C134 H117 0.940 . S
C134 C133 1.385 . S
C134 C135 1.388 . S
C135 H114 0.939 . S
C135 C130 1.391 . S
C135 C134 1.388 . S
P136 O147 1.490 . S
P136 C150 1.812 . S
P136 C156 1.803 . S
P136 C162 1.819 1_554 S
H137 C151 0.941 . S
H138 C152 0.939 . S
H139 C154 0.940 . S
H140 C155 0.940 . S
H141 C157 0.939 . S
H142 C158 0.942 . S
H143 C160 0.940 . S
H144 C161 0.939 . S
H145 C163 0.941 . S
H146 C167 0.939 . S
O147 P136 1.490 . S
H148 C164 0.939 . S
H149 C166 0.940 . S
C150 P136 1.812 . S
C150 C151 1.389 . S
C150 C155 1.391 . S
C151 H137 0.941 . S
C151 C150 1.389 . S
C151 C152 1.397 . S
C152 H138 0.939 . S
C152 C151 1.397 . S
C152 C153 1.378 . S
C153 C152 1.378 . S
C153 C154 1.378 . S
C154 H139 0.940 . S
C154 C153 1.378 . S
C154 C155 1.396 . S
C155 H140 0.940 . S
C155 C150 1.391 . S
C155 C154 1.396 . S
C156 P136 1.803 . S
C156 C157 1.378 1_554 S
C156 C161 1.400 . S
C157 H141 0.939 . S
C157 C156 1.378 1_556 S
C157 C158 1.361 . S
C158 H142 0.942 . S
C158 C157 1.361 . S
C158 C159 1.369 1_556 S
C159 C158 1.369 1_554 S
C159 C160 1.404 . S
C160 H143 0.940 . S
C160 C159 1.404 . S
C160 C161 1.389 . S
C161 H144 0.939 . S
C161 C156 1.400 . S
C161 C160 1.389 . S
C162 P136 1.819 1_556 S
C162 C163 1.391 . S
C162 C167 1.391 . S
C163 H145 0.941 . S
C163 C162 1.391 . S
C163 C164 1.396 . S
C164 H148 0.939 . S
C164 C163 1.396 . S
C164 C165 1.397 . S
C165 C164 1.397 . S
C165 C166 1.385 . S
C166 H149 0.940 . S
C166 C165 1.385 . S
C166 C167 1.388 . S
C167 H146 0.939 . S
C167 C162 1.391 . S
C167 C166 1.388 . S
P168 O179 1.490 . S
P168 C182 1.812 1_554 S
P168 C188 1.803 . S
P168 C194 1.819 . S
H169 C183 0.941 . S
H170 C184 0.939 . S
H171 C186 0.940 . S
H172 C187 0.940 . S
H173 C189 0.939 . S
H174 C190 0.942 . S
H175 C192 0.940 . S
H176 C193 0.939 . S
H177 C195 0.941 . S
H178 C199 0.939 . S
O179 P168 1.490 . S
H180 C196 0.939 . S
H181 C198 0.940 . S
C182 P168 1.812 1_556 S
C182 C183 1.389 . S
C182 C187 1.391 . S
C183 H169 0.941 . S
C183 C182 1.389 . S
C183 C184 1.397 . S
C184 H170 0.939 . S
C184 C183 1.397 . S
C184 C185 1.378 . S
C185 C184 1.378 . S
C185 C186 1.378 . S
C186 H171 0.940 . S
C186 C185 1.378 . S
C186 C187 1.396 . S
C187 H172 0.940 . S
C187 C182 1.391 . S
C187 C186 1.396 . S
C188 P168 1.803 . S
C188 C189 1.378 . S
C188 C193 1.400 1_554 S
C189 H173 0.939 . S
C189 C188 1.378 . S
C189 C190 1.361 . S
C190 H174 0.942 . S
C190 C189 1.361 . S
C190 C191 1.369 . S
C191 C190 1.369 . S
C191 C192 1.404 1_554 S
C192 H175 0.940 . S
C192 C191 1.404 1_556 S
C192 C193 1.389 . S
C193 H176 0.939 . S
C193 C188 1.400 1_556 S
C193 C192 1.389 . S
C194 P168 1.819 . S
C194 C195 1.391 . S
C194 C199 1.391 . S
C195 H177 0.941 . S
C195 C194 1.391 . S
C195 C196 1.396 . S
C196 H180 0.939 . S
C196 C195 1.396 . S
C196 C197 1.397 . S
C197 C196 1.397 . S
C197 C198 1.385 . S
C198 H181 0.940 . S
C198 C197 1.385 . S
C198 C199 1.388 . S
C199 H178 0.939 . S
C199 C194 1.391 . S
C199 C198 1.388 . S
P200 O211 1.490 . S
P200 C214 1.812 1_554 S
P200 C220 1.803 . S
P200 C226 1.819 . S
H201 C215 0.941 . S
H202 C216 0.939 . S
H203 C218 0.940 . S
H204 C219 0.940 . S
H205 C221 0.939 . S
H206 C222 0.942 . S
H207 C224 0.940 . S
H208 C225 0.939 . S
H209 C227 0.941 . S
H210 C231 0.939 . S
O211 P200 1.490 . S
H212 C228 0.939 . S
H213 C230 0.940 . S
C214 P200 1.812 1_556 S
C214 C215 1.389 . S
C214 C219 1.391 . S
C215 H201 0.941 . S
C215 C214 1.389 . S
C215 C216 1.397 . S
C216 H202 0.939 . S
C216 C215 1.397 . S
C216 C217 1.378 . S
C217 C216 1.378 . S
C217 C218 1.378 . S
C218 H203 0.940 . S
C218 C217 1.378 . S
C218 C219 1.396 . S
C219 H204 0.940 . S
C219 C214 1.391 . S
C219 C218 1.396 . S
C220 P200 1.803 . S
C220 C221 1.378 . S
C220 C225 1.400 1_554 S
C221 H205 0.939 . S
C221 C220 1.378 . S
C221 C222 1.361 . S
C222 H206 0.942 . S
C222 C221 1.361 . S
C222 C223 1.369 . S
C223 C222 1.369 . S
C223 C224 1.404 1_554 S
C224 H207 0.940 . S
C224 C223 1.404 1_556 S
C224 C225 1.389 . S
C225 H208 0.939 . S
C225 C220 1.400 1_556 S
C225 C224 1.389 . S
C226 P200 1.819 . S
C226 C227 1.391 . S
C226 C231 1.391 . S
C227 H209 0.941 . S
C227 C226 1.391 . S
C227 C228 1.396 . S
C228 H212 0.939 . S
C228 C227 1.396 . S
C228 C229 1.397 . S
C229 C228 1.397 . S
C229 C230 1.385 . S
C230 H213 0.940 . S
C230 C229 1.385 . S
C230 C231 1.388 . S
C231 H210 0.939 . S
C231 C226 1.391 . S
C231 C230 1.388 . S
P232 O243 1.490 . S
P232 C246 1.812 . S
P232 C252 1.803 . S
P232 C258 1.819 . S
H233 C247 0.941 . S
H234 C248 0.939 . S
H235 C250 0.940 . S
H236 C251 0.940 . S
H237 C253 0.939 . S
H238 C254 0.942 . S
H239 C256 0.940 . S
H240 C257 0.939 . S
H241 C259 0.941 . S
H242 C263 0.939 . S
O243 P232 1.490 . S
H244 C260 0.936 1_455 S
H245 C262 0.940 . S
C246 P232 1.812 . S
C246 C247 1.389 . S
C246 C251 1.391 . S
C247 H233 0.941 . S
C247 C246 1.389 . S
C247 C248 1.397 . S
C248 H234 0.939 . S
C248 C247 1.397 . S
C248 C249 1.378 . S
C249 C248 1.378 . S
C249 C250 1.378 . S
C250 H235 0.940 . S
C250 C249 1.378 . S
C250 C251 1.396 . S
C251 H236 0.940 . S
C251 C246 1.391 . S
C251 C250 1.396 . S
C252 P232 1.803 . S
C252 C253 1.378 . S
C252 C257 1.400 . S
C253 H237 0.939 . S
C253 C252 1.378 . S
C253 C254 1.361 . S
C254 H238 0.942 . S
C254 C253 1.361 . S
C254 C255 1.369 . S
C255 C254 1.369 . S
C255 C256 1.404 . S
C256 H239 0.940 . S
C256 C255 1.404 . S
C256 C257 1.389 . S
C257 H240 0.939 . S
C257 C252 1.400 . S
C257 C256 1.389 . S
C258 P232 1.819 . S
C258 C259 1.391 . S
C258 C263 1.391 . S
C259 H241 0.941 . S
C259 C258 1.391 . S
C259 C260 1.396 . S
C260 H244 0.936 1_655 S
C260 C259 1.396 . S
C260 C261 1.397 . S
C261 C260 1.397 . S
C261 C262 1.385 . S
C262 H245 0.940 . S
C262 C261 1.385 . S
C262 C263 1.388 . S
C263 H242 0.939 . S
C263 C258 1.391 . S
C263 C262 1.388 . S
P264 O275 1.490 . S
P264 C278 1.812 . S
P264 C284 1.803 . S
P264 C290 1.819 . S
H265 C279 0.941 . S
H266 C280 0.939 . S
H267 C282 0.940 . S
H268 C283 0.940 . S
H269 C285 0.939 . S
H270 C286 0.942 . S
H271 C288 0.940 . S
H272 C289 0.939 . S
H273 C291 0.941 . S
H274 C295 0.939 . S
O275 P264 1.490 . S
H276 C292 0.931 1_545 S
H277 C294 0.940 . S
C278 P264 1.812 . S
C278 C279 1.389 . S
C278 C283 1.391 . S
C279 H265 0.941 . S
C279 C278 1.389 . S
C279 C280 1.397 . S
C280 H266 0.939 . S
C280 C279 1.397 . S
C280 C281 1.378 . S
C281 C280 1.378 . S
C281 C282 1.378 . S
C282 H267 0.940 . S
C282 C281 1.378 . S
C282 C283 1.396 . S
C283 H268 0.940 . S
C283 C278 1.391 . S
C283 C282 1.396 . S
C284 P264 1.803 . S
C284 C285 1.378 . S
C284 C289 1.400 . S
C285 H269 0.939 . S
C285 C284 1.378 . S
C285 C286 1.361 . S
C286 H270 0.942 . S
C286 C285 1.361 . S
C286 C287 1.369 . S
C287 C286 1.369 . S
C287 C288 1.404 . S
C288 H271 0.940 . S
C288 C287 1.404 . S
C288 C289 1.389 . S
C289 H272 0.939 . S
C289 C284 1.400 . S
C289 C288 1.389 . S
C290 P264 1.819 . S
C290 C291 1.391 . S
C290 C295 1.391 . S
C291 H273 0.941 . S
C291 C290 1.391 . S
C291 C292 1.396 . S
C292 H276 0.931 1_565 S
C292 C291 1.396 . S
C292 C293 1.397 . S
C293 C292 1.397 . S
C293 C294 1.385 . S
C294 H277 0.940 . S
C294 C293 1.385 . S
C294 C295 1.388 . S
C295 H274 0.939 . S
C295 C290 1.391 . S
C295 C294 1.388 . S
P296 O307 1.490 . S
P296 C310 1.812 . S
P296 C316 1.803 . S
P296 C322 1.819 . S
H297 C311 0.941 . S
H298 C312 0.939 . S
H299 C314 0.940 . S
H300 C315 0.940 . S
H301 C317 0.939 . S
H302 C318 0.942 . S
H303 C320 0.940 . S
H304 C321 0.939 . S
H305 C323 0.941 . S
H306 C327 0.939 . S
O307 P296 1.490 . S
H308 C324 0.939 . S
H309 C326 0.940 . S
C310 P296 1.812 . S
C310 C311 1.389 . S
C310 C315 1.391 . S
C311 H297 0.941 . S
C311 C310 1.389 . S
C311 C312 1.397 . S
C312 H298 0.939 . S
C312 C311 1.397 . S
C312 C313 1.378 . S
C313 C312 1.378 . S
C313 C314 1.378 . S
C314 H299 0.940 . S
C314 C313 1.378 . S
C314 C315 1.396 . S
C315 H300 0.940 . S
C315 C310 1.391 . S
C315 C314 1.396 . S
C316 P296 1.803 . S
C316 C317 1.378 . S
C316 C321 1.400 . S
C317 H301 0.939 . S
C317 C316 1.378 . S
C317 C318 1.361 . S
C318 H302 0.942 . S
C318 C317 1.361 . S
C318 C319 1.369 . S
C319 C318 1.369 . S
C319 C320 1.404 . S
C320 H303 0.940 . S
C320 C319 1.404 . S
C320 C321 1.389 . S
C321 H304 0.939 . S
C321 C316 1.400 . S
C321 C320 1.389 . S
C322 P296 1.819 . S
C322 C323 1.391 . S
C322 C327 1.391 . S
C323 H305 0.941 . S
C323 C322 1.391 . S
C323 C324 1.396 . S
C324 H308 0.939 . S
C324 C323 1.396 . S
C324 C325 1.397 . S
C325 C324 1.397 . S
C325 C326 1.385 . S
C326 H309 0.940 . S
C326 C325 1.385 . S
C326 C327 1.388 . S
C327 H306 0.939 . S
C327 C322 1.391 . S
C327 C326 1.388 . S
P328 O339 1.490 . S
P328 C342 1.812 . S
P328 C348 1.803 . S
P328 C354 1.819 . S
H329 C343 0.941 . S
H330 C344 0.939 . S
H331 C346 0.940 . S
H332 C347 0.940 . S
H333 C349 0.939 . S
H334 C350 0.942 . S
H335 C352 0.940 . S
H336 C353 0.939 . S
H337 C355 0.941 . S
H338 C359 0.939 . S
O339 P328 1.490 . S
H340 C356 0.939 . S
H341 C358 0.940 . S
C342 P328 1.812 . S
C342 C343 1.389 . S
C342 C347 1.391 . S
C343 H329 0.941 . S
C343 C342 1.389 . S
C343 C344 1.397 . S
C344 H330 0.939 . S
C344 C343 1.397 . S
C344 C345 1.378 . S
C345 C344 1.378 . S
C345 C346 1.378 . S
C346 H331 0.940 . S
C346 C345 1.378 . S
C346 C347 1.396 . S
C347 H332 0.940 . S
C347 C342 1.391 . S
C347 C346 1.396 . S
C348 P328 1.803 . S
C348 C349 1.378 . S
C348 C353 1.400 . S
C349 H333 0.939 . S
C349 C348 1.378 . S
C349 C350 1.361 . S
C350 H334 0.942 . S
C350 C349 1.361 . S
C350 C351 1.369 . S
C351 C350 1.369 . S
C351 C352 1.404 . S
C352 H335 0.940 . S
C352 C351 1.404 . S
C352 C353 1.389 . S
C353 H336 0.939 . S
C353 C348 1.400 . S
C353 C352 1.389 . S
C354 P328 1.819 . S
C354 C355 1.391 . S
C354 C359 1.391 . S
C355 H337 0.941 . S
C355 C354 1.391 . S
C355 C356 1.396 . S
C356 H340 0.939 . S
C356 C355 1.396 . S
C356 C357 1.397 . S
C357 C356 1.397 . S
C357 C358 1.385 . S
C358 H341 0.940 . S
C358 C357 1.385 . S
C358 C359 1.388 . S
C359 H338 0.939 . S
C359 C354 1.391 . S
C359 C358 1.388 . S
C360 C361 1.369 1_556 S
C360 C362 1.419 . S
C360 H364 0.930 . S
C361 C360 1.369 1_554 S
C361 C370 1.429 . S
C362 C360 1.419 . S
C362 C363 1.363 1_556 S
C362 H365 0.929 . S
C363 C362 1.363 1_554 S
C363 C369 1.428 . S
H364 C360 0.930 . S
H365 C362 0.929 . S
S366 N367 1.613 . S
S366 N368 1.610 . S
N367 S366 1.613 . S
N367 C370 1.350 . S
N368 S366 1.610 . S
N368 C369 1.351 . S
C369 C363 1.428 . S
C369 N368 1.351 . S
C369 C370 1.434 . S
C370 C361 1.429 . S
C370 N367 1.350 . S
C370 C369 1.434 . S
C371 C372 1.369 . S
C371 C373 1.419 . S
C371 H375 0.930 . S
C372 C371 1.369 . S
C372 C381 1.429 1_554 S
C373 C371 1.419 . S
C373 C374 1.363 . S
C373 H376 0.929 . S
C374 C373 1.363 . S
C374 C380 1.428 1_554 S
H375 C371 0.930 . S
H376 C373 0.929 . S
S377 N378 1.613 . S
S377 N379 1.610 . S
N378 S377 1.613 . S
N378 C381 1.350 . S
N379 S377 1.610 . S
N379 C380 1.351 . S
C380 C374 1.428 1_556 S
C380 N379 1.351 . S
C380 C381 1.434 . S
C381 C372 1.429 1_556 S
C381 N378 1.350 . S
C381 C380 1.434 . S
C382 C383 1.369 . S
C382 C384 1.419 . S
C382 H386 0.930 1_554 S
C383 C382 1.369 . S
C383 C392 1.429 . S
C384 C382 1.419 . S
C384 C385 1.365 . S
C384 H387 0.927 1_554 S
C385 C384 1.365 . S
C385 C391 1.428 . S
H386 C382 0.930 1_556 S
H387 C384 0.927 1_556 S
S388 N389 1.613 . S
S388 N390 1.610 . S
N389 S388 1.613 . S
N389 C392 1.350 . S
N390 S388 1.610 . S
N390 C391 1.351 . S
C391 C385 1.428 . S
C391 N390 1.351 . S
C391 C392 1.434 . S
C392 C383 1.429 . S
C392 N389 1.350 . S
C392 C391 1.434 . S
C393 C394 1.369 1_556 S
C393 C395 1.419 . S
C393 H397 0.930 . S
C394 C393 1.369 1_554 S
C394 C403 1.429 . S
C395 C393 1.419 . S
C395 C396 1.363 1_556 S
C395 H398 0.929 . S
C396 C395 1.363 1_554 S
C396 C402 1.428 . S
H397 C393 0.930 . S
H398 C395 0.929 . S
S399 N400 1.613 . S
S399 N401 1.610 . S
N400 S399 1.613 . S
N400 C403 1.350 . S
N401 S399 1.610 . S
N401 C402 1.351 . S
C402 C396 1.428 . S
C402 N401 1.351 . S
C402 C403 1.434 . S
C403 C394 1.429 . S
C403 N400 1.350 . S
C403 C402 1.434 . S
C404 C405 1.369 . S
C404 C406 1.419 . S
C404 H408 0.930 . S
C405 C404 1.369 . S
C405 C414 1.429 . S
C406 C404 1.419 . S
C406 C407 1.363 . S
C406 H409 0.929 . S
C407 C406 1.363 . S
C407 C413 1.428 . S
H408 C404 0.930 . S
H409 C406 0.929 . S
S410 N411 1.613 . S
S410 N412 1.610 . S
N411 S410 1.613 . S
N411 C414 1.350 . S
N412 S410 1.610 . S
N412 C413 1.351 . S
C413 C407 1.428 . S
C413 N412 1.351 . S
C413 C414 1.434 . S
C414 C405 1.429 . S
C414 N411 1.350 . S
C414 C413 1.434 . S
C415 C416 1.369 . S
C415 C417 1.419 . S
C415 H419 0.930 . S
C416 C415 1.369 . S
C416 C425 1.429 . S
C417 C415 1.419 . S
C417 C418 1.363 . S
C417 H420 0.929 . S
C418 C417 1.363 . S
C418 C424 1.428 . S
H419 C415 0.930 . S
H420 C417 0.929 . S
S421 N422 1.613 . S
S421 N423 1.610 . S
N422 S421 1.613 . S
N422 C425 1.350 . S
N423 S421 1.610 . S
N423 C424 1.351 . S
C424 C418 1.428 . S
C424 N423 1.351 . S
C424 C425 1.434 . S
C425 C416 1.429 . S
C425 N422 1.350 . S
C425 C424 1.434 . S
C426 C427 1.369 . S
C426 C428 1.419 . S
C426 H430 0.930 . S
C427 C426 1.369 . S
C427 C436 1.429 . S
C428 C426 1.419 . S
C428 C429 1.363 . S
C428 H431 0.929 . S
C429 C428 1.363 . S
C429 C435 1.428 . S
H430 C426 0.930 . S
H431 C428 0.929 . S
S432 N433 1.613 . S
S432 N434 1.610 . S
N433 S432 1.613 . S
N433 C436 1.350 . S
N434 S432 1.610 . S
N434 C435 1.351 . S
C435 C429 1.428 . S
C435 N434 1.351 . S
C435 C436 1.434 . S
C436 C427 1.429 . S
C436 N433 1.350 . S
C436 C435 1.434 . S
C437 C438 1.369 . S
C437 C439 1.419 . S
C437 H441 0.930 . S
C438 C437 1.369 . S
C438 C447 1.429 . S
C439 C437 1.419 . S
C439 C440 1.363 . S
C439 H442 0.929 . S
C440 C439 1.363 . S
C440 C446 1.428 . S
H441 C437 0.930 . S
H442 C439 0.929 . S
S443 N444 1.613 . S
S443 N445 1.610 . S
N444 S443 1.613 . S
N444 C447 1.350 . S
N445 S443 1.610 . S
N445 C446 1.351 . S
C446 C440 1.428 . S
C446 N445 1.351 . S
C446 C447 1.434 . S
C447 C438 1.429 . S
C447 N444 1.350 . S
C447 C446 1.434 . S
C448 C449 1.369 . S
C448 C450 1.419 . S
C448 H452 0.930 . S
C449 C448 1.369 . S
C449 C458 1.429 . S
C450 C448 1.419 . S
C450 C451 1.363 . S
C450 H453 0.929 . S
C451 C450 1.363 . S
C451 C457 1.428 . S
H452 C448 0.930 . S
H453 C450 0.929 . S
S454 N455 1.613 . S
S454 N456 1.610 . S
N455 S454 1.613 . S
N455 C458 1.350 . S
N456 S454 1.610 . S
N456 C457 1.351 . S
C457 C451 1.428 . S
C457 N456 1.351 . S
C457 C458 1.434 . S
C458 C449 1.429 . S
C458 N455 1.350 . S
C458 C457 1.434 . S
C459 C460 1.369 . S
C459 C461 1.419 . S
C459 H463 0.930 . S
C460 C459 1.369 . S
C460 C469 1.429 . S
C461 C459 1.419 . S
C461 C462 1.363 . S
C461 H464 0.929 . S
C462 C461 1.363 . S
C462 C468 1.428 . S
H463 C459 0.930 . S
H464 C461 0.929 . S
S465 N466 1.613 . S
S465 N467 1.610 . S
N466 S465 1.613 . S
N466 C469 1.350 . S
N467 S465 1.610 . S
N467 C468 1.351 . S
C468 C462 1.428 . S
C468 N467 1.351 . S
C468 C469 1.434 . S
C469 C460 1.429 . S
C469 N466 1.350 . S
C469 C468 1.434 . S
C470 C471 1.369 . S
C470 C472 1.419 . S
C470 H474 0.930 . S
C471 C470 1.369 . S
C471 C480 1.429 . S
C472 C470 1.419 . S
C472 C473 1.363 . S
C472 H475 0.929 . S
C473 C472 1.363 . S
C473 C479 1.428 . S
H474 C470 0.930 . S
H475 C472 0.929 . S
S476 N477 1.613 . S
S476 N478 1.610 . S
N477 S476 1.613 . S
N477 C480 1.350 . S
N478 S476 1.610 . S
N478 C479 1.351 . S
C479 C473 1.428 . S
C479 N478 1.351 . S
C479 C480 1.434 . S
C480 C471 1.429 . S
C480 N477 1.350 . S
C480 C479 1.434 . S
C481 C482 1.369 . S
C481 C483 1.419 . S
C481 H485 0.930 . S
C482 C481 1.369 . S
C482 C491 1.429 . S
C483 C481 1.419 . S
C483 C484 1.363 . S
C483 H486 0.929 . S
C484 C483 1.363 . S
C484 C490 1.428 . S
H485 C481 0.930 . S
H486 C483 0.929 . S
S487 N488 1.613 . S
S487 N489 1.610 . S
N488 S487 1.613 . S
N488 C491 1.350 . S
N489 S487 1.610 . S
N489 C490 1.351 . S
C490 C484 1.428 . S
C490 N489 1.351 . S
C490 C491 1.434 . S
C491 C482 1.429 . S
C491 N488 1.350 . S
C491 C490 1.434 . S
C492 C493 1.369 . S
C492 C494 1.419 . S
C492 H496 0.930 . S
C493 C492 1.369 . S
C493 C502 1.429 . S
C494 C492 1.419 . S
C494 C495 1.363 . S
C494 H497 0.929 . S
C495 C494 1.363 . S
C495 C501 1.428 . S
H496 C492 0.930 . S
H497 C494 0.929 . S
S498 N499 1.613 . S
S498 N500 1.610 . S
N499 S498 1.613 . S
N499 C502 1.350 . S
N500 S498 1.610 . S
N500 C501 1.351 . S
C501 C495 1.428 . S
C501 N500 1.351 . S
C501 C502 1.434 . S
C502 C493 1.429 . S
C502 N499 1.350 . S
C502 C501 1.434 . S
C503 C504 1.369 . S
C503 C505 1.419 . S
C503 H507 0.930 1_455 S
C504 C503 1.369 . S
C504 C513 1.429 . S
C505 C503 1.419 . S
C505 C506 1.363 . S
C505 H508 0.939 . S
C506 C505 1.363 . S
C506 C512 1.428 . S
H507 C503 0.930 1_655 S
H508 C505 0.939 . S
S509 N510 1.613 . S
S509 N511 1.610 . S
N510 S509 1.613 . S
N510 C513 1.350 . S
N511 S509 1.610 . S
N511 C512 1.351 . S
C512 C506 1.428 . S
C512 N511 1.351 . S
C512 C513 1.434 . S
C513 C504 1.429 . S
C513 N510 1.350 . S
C513 C512 1.434 . S
C514 C515 1.369 . S
C514 C516 1.419 . S
C514 H518 0.930 . S
C515 C514 1.369 . S
C515 C524 1.429 . S
C516 C514 1.419 . S
C516 C517 1.363 . S
C516 H519 0.929 . S
C517 C516 1.363 . S
C517 C523 1.428 . S
H518 C514 0.930 . S
H519 C516 0.929 . S
S520 N521 1.613 . S
S520 N522 1.610 . S
N521 S520 1.613 . S
N521 C524 1.350 . S
N522 S520 1.610 . S
N522 C523 1.351 . S
C523 C517 1.428 . S
C523 N522 1.351 . S
C523 C524 1.434 . S
C524 C515 1.429 . S
C524 N521 1.350 . S
C524 C523 1.434 . S
C525 C526 1.369 . S
C525 C527 1.419 . S
C525 H529 0.930 . S
C526 C525 1.369 . S
C526 C535 1.429 . S
C527 C525 1.419 . S
C527 C528 1.363 . S
C527 H530 0.929 . S
C528 C527 1.363 . S
C528 C534 1.428 . S
H529 C525 0.930 . S
H530 C527 0.929 . S
S531 N532 1.613 . S
S531 N533 1.610 . S
N532 S531 1.613 . S
N532 C535 1.350 . S
N533 S531 1.610 . S
N533 C534 1.351 . S
C534 C528 1.428 . S
C534 N533 1.351 . S
C534 C535 1.434 . S
C535 C526 1.429 . S
C535 N532 1.350 . S
C535 C534 1.434 . S
C536 C537 1.369 . S
C536 C538 1.419 . S
C536 H540 0.930 . S
C537 C536 1.369 . S
C537 C546 1.429 . S
C538 C536 1.419 . S
C538 C539 1.363 . S
C538 H541 0.929 . S
C539 C538 1.363 . S
C539 C545 1.428 . S
H540 C536 0.930 . S
H541 C538 0.929 . S
S542 N543 1.613 . S
S542 N544 1.610 . S
N543 S542 1.613 . S
N543 C546 1.350 . S
N544 S542 1.610 . S
N544 C545 1.351 . S
C545 C539 1.428 . S
C545 N544 1.351 . S
C545 C546 1.434 . S
C546 C537 1.429 . S
C546 N543 1.350 . S
C546 C545 1.434 . S
C547 C548 1.369 . S
C547 C549 1.419 . S
C547 H551 0.930 . S
C548 C547 1.369 . S
C548 C557 1.429 . S
C549 C547 1.419 . S
C549 C550 1.363 . S
C549 H552 0.929 . S
C550 C549 1.363 . S
C550 C556 1.428 . S
H551 C547 0.930 . S
H552 C549 0.929 . S
S553 N554 1.613 . S
S553 N555 1.610 . S
N554 S553 1.613 . S
N554 C557 1.350 . S
N555 S553 1.610 . S
N555 C556 1.351 . S
C556 C550 1.428 . S
C556 N555 1.351 . S
C556 C557 1.434 . S
C557 C548 1.429 . S
C557 N554 1.350 . S
C557 C556 1.434 . S
C558 C559 1.369 . S
C558 C560 1.419 . S
C558 H562 0.930 . S
C559 C558 1.369 . S
C559 C568 1.429 . S
C560 C558 1.419 . S
C560 C561 1.363 . S
C560 H563 0.929 . S
C561 C560 1.363 . S
C561 C567 1.428 . S
H562 C558 0.930 . S
H563 C560 0.929 . S
S564 N565 1.613 . S
S564 N566 1.610 . S
N565 S564 1.613 . S
N565 C568 1.350 . S
N566 S564 1.610 . S
N566 C567 1.351 . S
C567 C561 1.428 . S
C567 N566 1.351 . S
C567 C568 1.434 . S
C568 C559 1.429 . S
C568 N565 1.350 . S
C568 C567 1.434 . S
C569 C570 1.369 . S
C569 C571 1.419 . S
C569 H573 0.930 . S
C570 C569 1.369 . S
C570 C579 1.429 . S
C571 C569 1.419 . S
C571 C572 1.363 . S
C571 H574 0.929 . S
C572 C571 1.363 . S
C572 C578 1.428 . S
H573 C569 0.930 . S
H574 C571 0.929 . S
S575 N576 1.613 . S
S575 N577 1.610 . S
N576 S575 1.613 . S
N576 C579 1.350 . S
N577 S575 1.610 . S
N577 C578 1.351 . S
C578 C572 1.428 . S
C578 N577 1.351 . S
C578 C579 1.434 . S
C579 C570 1.429 . S
C579 N576 1.350 . S
C579 C578 1.434 . S
C580 C581 1.369 . S
C580 C582 1.419 . S
C580 H584 0.930 . S
C581 C580 1.369 . S
C581 C590 1.429 . S
C582 C580 1.419 . S
C582 C583 1.363 . S
C582 H585 0.929 . S
C583 C582 1.363 . S
C583 C589 1.428 . S
H584 C580 0.930 . S
H585 C582 0.929 . S
S586 N587 1.613 . S
S586 N588 1.610 . S
N587 S586 1.613 . S
N587 C590 1.350 . S
N588 S586 1.610 . S
N588 C589 1.351 . S
C589 C583 1.428 . S
C589 N588 1.351 . S
C589 C590 1.434 . S
C590 C581 1.429 . S
C590 N587 1.350 . S
C590 C589 1.434 . S
C591 C592 1.369 . S
C591 C593 1.419 . S
C591 H595 0.930 . S
C592 C591 1.369 . S
C592 C601 1.429 . S
C593 C591 1.419 . S
C593 C594 1.363 . S
C593 H596 0.929 . S
C594 C593 1.363 . S
C594 C600 1.428 . S
H595 C591 0.930 . S
H596 C593 0.929 . S
S597 N598 1.613 . S
S597 N599 1.610 . S
N598 S597 1.613 . S
N598 C601 1.350 . S
N599 S597 1.610 . S
N599 C600 1.351 . S
C600 C594 1.428 . S
C600 N599 1.351 . S
C600 C601 1.434 . S
C601 C592 1.429 . S
C601 N598 1.350 . S
C601 C600 1.434 . S
C602 C603 1.369 . S
C602 C604 1.419 . S
C602 H606 0.930 . S
C603 C602 1.369 . S
C603 C612 1.429 . S
C604 C602 1.419 . S
C604 C605 1.363 . S
C604 H607 0.929 . S
C605 C604 1.363 . S
C605 C611 1.428 . S
H606 C602 0.930 . S
H607 C604 0.929 . S
S608 N609 1.613 . S
S608 N610 1.610 . S
N609 S608 1.613 . S
N609 C612 1.350 . S
N610 S608 1.610 . S
N610 C611 1.351 . S
C611 C605 1.428 . S
C611 N610 1.351 . S
C611 C612 1.434 . S
C612 C603 1.429 . S
C612 N609 1.350 . S
C612 C611 1.434 . S
C613 C614 1.369 . S
C613 C615 1.419 . S
C613 H617 0.930 . S
C614 C613 1.369 . S
C614 C623 1.429 . S
C615 C613 1.419 . S
C615 C616 1.363 . S
C615 H618 0.929 . S
C616 C615 1.363 . S
C616 C622 1.428 . S
H617 C613 0.930 . S
H618 C615 0.929 . S
S619 N620 1.613 . S
S619 N621 1.610 . S
N620 S619 1.613 . S
N620 C623 1.350 . S
N621 S619 1.610 . S
N621 C622 1.351 . S
C622 C616 1.428 . S
C622 N621 1.351 . S
C622 C623 1.434 . S
C623 C614 1.429 . S
C623 N620 1.350 . S
C623 C622 1.434 . S
C361 C45 1.594 . S
C363 C127 1.644 . S
C372 C30 1.591 . S
C374 C159 1.645 . S
C383 C39 1.599 . S
C385 C191 1.513 . S
C396 C223 1.518 . S
C394 C34 1.595 . S
C405 C97 1.599 . S
C407 C255 1.644 . S
C418 C287 1.645 . S
C416 C82 1.592 . S
C429 C319 1.513 . S
C427 C91 1.598 . S
C440 C351 1.521 . S
C438 C86 1.591 . S
C451 C313 1.453 . S
C449 C26 1.473 . S
C462 C345 1.453 . S
C460 C36 1.476 . S
C473 C261 1.577 . S
C471 C32 1.479 . S
C484 C293 1.580 . S
C482 C42 1.481 . S
C493 C18 1.539 . S
C495 C281 1.655 . S
C506 C325 1.516 . S
C504 C50 1.542 . S
C515 C4 1.537 . S
C517 C357 1.521 . S
C526 C48 1.538 . S
C528 C249 1.658 . S
C539 C185 1.458 . S
C537 C78 1.468 . S
C548 C88 1.469 . S
C550 C217 1.456 . S
C561 C133 1.577 . S
C559 C84 1.477 . S
C572 C165 1.580 . S
C570 C94 1.480 . S
C583 C153 1.655 . S
C581 C70 1.536 . S
C594 C197 1.519 . S
C592 C102 1.538 . S
C603 C56 1.538 . S
C605 C229 1.520 . S
C614 C100 1.528 . S
C616 C121 1.659 . S
