# Generated by pormake.
# Topology pto, (3,4)-cn, num edge types: 1
# Building blocks:
#     Node 0, Type 0, BuildingBlock: WUSLED_clean_sbu_0, # of connection points: 3
#     Node 1, Type 0, BuildingBlock: WUSLED_clean_sbu_0, # of connection points: 3
#     Node 2, Type 0, BuildingBlock: WUSLED_clean_sbu_0, # of connection points: 3
#     Node 3, Type 0, BuildingBlock: WUSLED_clean_sbu_0, # of connection points: 3
#     Node 4, Type 0, BuildingBlock: WUSLED_clean_sbu_0, # of connection points: 3
#     Node 5, Type 0, BuildingBlock: WUSLED_clean_sbu_0, # of connection points: 3
#     Node 6, Type 0, BuildingBlock: WUSLED_clean_sbu_0, # of connection points: 3
#     Node 7, Type 0, BuildingBlock: WUSLED_clean_sbu_0, # of connection points: 3
#     Node 8, Type 1, BuildingBlock: GIZVER_clean_linker_0, # of connection points: 4
#     Node 9, Type 1, BuildingBlock: GIZVER_clean_linker_0, # of connection points: 4
#     Node 10, Type 1, BuildingBlock: GIZVER_clean_linker_0, # of connection points: 4
#     Node 11, Type 1, BuildingBlock: GIZVER_clean_linker_0, # of connection points: 4
#     Node 12, Type 1, BuildingBlock: GIZVER_clean_linker_0, # of connection points: 4
#     Node 13, Type 1, BuildingBlock: GIZVER_clean_linker_0, # of connection points: 4
#     Edge 14, Type (0, 1), BuildingBlock: OJICUG_clean_linker_0, # of connection points: 2
#     Edge 15, Type (0, 1), BuildingBlock: OJICUG_clean_linker_0, # of connection points: 2
#     Edge 16, Type (0, 1), BuildingBlock: OJICUG_clean_linker_0, # of connection points: 2
#     Edge 17, Type (0, 1), BuildingBlock: OJICUG_clean_linker_0, # of connection points: 2
#     Edge 18, Type (0, 1), BuildingBlock: OJICUG_clean_linker_0, # of connection points: 2
#     Edge 19, Type (0, 1), BuildingBlock: OJICUG_clean_linker_0, # of connection points: 2
#     Edge 20, Type (0, 1), BuildingBlock: OJICUG_clean_linker_0, # of connection points: 2
#     Edge 21, Type (0, 1), BuildingBlock: OJICUG_clean_linker_0, # of connection points: 2
#     Edge 22, Type (0, 1), BuildingBlock: OJICUG_clean_linker_0, # of connection points: 2
#     Edge 23, Type (0, 1), BuildingBlock: OJICUG_clean_linker_0, # of connection points: 2
#     Edge 24, Type (0, 1), BuildingBlock: OJICUG_clean_linker_0, # of connection points: 2
#     Edge 25, Type (0, 1), BuildingBlock: OJICUG_clean_linker_0, # of connection points: 2
#     Edge 26, Type (0, 1), BuildingBlock: OJICUG_clean_linker_0, # of connection points: 2
#     Edge 27, Type (0, 1), BuildingBlock: OJICUG_clean_linker_0, # of connection points: 2
#     Edge 28, Type (0, 1), BuildingBlock: OJICUG_clean_linker_0, # of connection points: 2
#     Edge 29, Type (0, 1), BuildingBlock: OJICUG_clean_linker_0, # of connection points: 2
#     Edge 30, Type (0, 1), BuildingBlock: OJICUG_clean_linker_0, # of connection points: 2
#     Edge 31, Type (0, 1), BuildingBlock: OJICUG_clean_linker_0, # of connection points: 2
#     Edge 32, Type (0, 1), BuildingBlock: OJICUG_clean_linker_0, # of connection points: 2
#     Edge 33, Type (0, 1), BuildingBlock: OJICUG_clean_linker_0, # of connection points: 2
#     Edge 34, Type (0, 1), BuildingBlock: OJICUG_clean_linker_0, # of connection points: 2
#     Edge 35, Type (0, 1), BuildingBlock: OJICUG_clean_linker_0, # of connection points: 2
#     Edge 36, Type (0, 1), BuildingBlock: OJICUG_clean_linker_0, # of connection points: 2
#     Edge 37, Type (0, 1), BuildingBlock: OJICUG_clean_linker_0, # of connection points: 2
# Relax obj value: 0.003
# Max RMSD: 0.031
# Mean RMSD: 0.021
data_MOF--net-pto--node1-WUSLED_clean_sbu_0--node2-GIZVER_clean_linker_0--edge1-OJICUG_clean_linker_0
_symmetry_space_group_name_H-M    P1
_symmetry_Int_Tables_number       1
_symmetry_cell_setting            triclinic
loop_
_symmetry_equiv_pos_as_xyz
'x, y, z'
_cell_length_a     51.30688
_cell_length_b     42.46669
_cell_length_c     31.965048
_cell_angle_alpha  89.403105
_cell_angle_beta   90.498318
_cell_angle_gamma 90.141063
loop_
_atom_site_label
_atom_site_type_symbol
_atom_site_fract_x
_atom_site_fract_y
_atom_site_fract_z
_atom_type_partial_charge
C0 C 0.25332 0.23698 0.26912 0.0
C1 C 0.27277 0.21541 0.25832 0.0
C2 C 0.26009 0.18092 0.31618 0.0
C3 C 0.27605 0.18754 0.28154 0.0
C4 C 0.24043 0.20258 0.32634 0.0
C5 C 0.23706 0.23023 0.30296 0.0
U6 U 0.28159 0.30566 0.20633 0.0
O7 O 0.26457 0.33296 0.15393 0.0
O8 O 0.27492 0.35654 0.21259 0.0
C9 C 0.2628 0.35873 0.17627 0.0
C10 C 0.25041 0.2673 0.24695 0.0
C11 C 0.23711 0.37462 0.17705 0.0
C12 C 0.21109 0.41937 0.19851 0.0
C13 C 0.23504 0.4039 0.19668 0.0
C14 C 0.19063 0.37688 0.16038 0.0
C15 C 0.18857 0.40608 0.18043 0.0
C16 C 0.21463 0.36121 0.15888 0.0
C17 C 0.35508 0.30235 0.18047 0.0
C18 C 0.37825 0.33922 0.13549 0.0
C19 C 0.40118 0.29504 0.16702 0.0
C20 C 0.37825 0.28552 0.1868 0.0
C21 C 0.40137 0.32167 0.1405 0.0
C22 C 0.35525 0.32959 0.15527 0.0
C23 C 0.3309 0.29011 0.19896 0.0
O24 O 0.26232 0.29118 0.26467 0.0
O25 O 0.25323 0.26675 0.20612 0.0
O26 O 0.31264 0.28153 0.17229 0.0
O27 O 0.3218 0.30563 0.23103 0.0
H28 H 0.28565 0.22032 0.23236 0.0
H29 H 0.29124 0.17135 0.27259 0.0
H30 H 0.22815 0.19879 0.35331 0.0
H31 H 0.22209 0.24674 0.31195 0.0
H32 H 0.21032 0.44212 0.21346 0.0
H33 H 0.25205 0.41489 0.21066 0.0
H34 H 0.17363 0.36603 0.14622 0.0
H35 H 0.21552 0.33862 0.14355 0.0
H36 H 0.37764 0.3596 0.11487 0.0
H37 H 0.41868 0.28121 0.17186 0.0
H38 H 0.37848 0.2645 0.20633 0.0
H39 H 0.33749 0.34287 0.15005 0.0
C40 C 0.24467 0.80024 0.69018 0.0
C41 C 0.25896 0.82595 0.70572 0.0
C42 C 0.25199 0.85487 0.6403 0.0
C43 C 0.26246 0.85304 0.6811 0.0
C44 C 0.23746 0.82915 0.62516 0.0
C45 C 0.23376 0.80224 0.64992 0.0
U46 U 0.27289 0.7333 0.75674 0.0
O47 O 0.25721 0.70974 0.81288 0.0
O48 O 0.26451 0.68253 0.75621 0.0
C49 C 0.25438 0.68265 0.79382 0.0
C50 C 0.24149 0.77087 0.71472 0.0
C51 C 0.22852 0.6678 0.79719 0.0
C52 C 0.18276 0.66444 0.77698 0.0
C53 C 0.20686 0.68003 0.77541 0.0
C54 C 0.2017 0.62473 0.82283 0.0
C55 C 0.17994 0.6364 0.80044 0.0
C56 C 0.22571 0.64029 0.8212 0.0
C57 C 0.34696 0.73463 0.77879 0.0
C58 C 0.36945 0.70287 0.83134 0.0
C59 C 0.39419 0.73675 0.78485 0.0
C60 C 0.37104 0.74628 0.76511 0.0
C61 C 0.39367 0.71538 0.81875 0.0
C62 C 0.3463 0.71241 0.81151 0.0
C63 C 0.32283 0.74723 0.75995 0.0
O64 O 0.25203 0.74569 0.69838 0.0
O65 O 0.24535 0.77286 0.75534 0.0
O66 O 0.30566 0.75826 0.78632 0.0
O67 O 0.31225 0.73045 0.72994 0.0
H68 H 0.26767 0.82505 0.73669 0.0
H69 H 0.2735 0.87247 0.694 0.0
H70 H 0.22954 0.82931 0.59365 0.0
H71 H 0.22276 0.78266 0.63725 0.0
H72 H 0.16641 0.6742 0.7596 0.0
H73 H 0.20871 0.70133 0.7567 0.0
H74 H 0.20048 0.6029 0.84053 0.0
H75 H 0.24225 0.63044 0.83803 0.0
H76 H 0.36824 0.68671 0.85769 0.0
H77 H 0.41247 0.74655 0.77403 0.0
H78 H 0.3719 0.76335 0.73973 0.0
H79 H 0.32786 0.70313 0.82247 0.0
C80 C 0.72787 0.73267 0.188 0.0
C81 C 0.72873 0.71327 0.1528 0.0
C82 C 0.68118 0.71307 0.1485 0.0
C83 C 0.70559 0.70358 0.1332 0.0
C84 C 0.68051 0.7314 0.18488 0.0
C85 C 0.70364 0.74113 0.20436 0.0
U86 U 0.80189 0.73355 0.21124 0.0
O87 O 0.8286 0.77412 0.21126 0.0
O88 O 0.82234 0.74699 0.26913 0.0
C89 C 0.83298 0.77203 0.25175 0.0
C90 C 0.75178 0.74598 0.2066 0.0
C91 C 0.83 0.8014 0.27499 0.0
C92 C 0.80324 0.84405 0.3007 0.0
C93 C 0.80589 0.81682 0.27678 0.0
C94 C 0.84887 0.84085 0.32048 0.0
C95 C 0.82466 0.8562 0.32321 0.0
C96 C 0.85149 0.81374 0.29656 0.0
C97 C 0.84834 0.66983 0.1754 0.0
C98 C 0.89077 0.66 0.20756 0.0
C99 C 0.87969 0.63612 0.14124 0.0
C100 C 0.8553 0.65079 0.14179 0.0
C101 C 0.89755 0.64011 0.17448 0.0
C102 C 0.86645 0.67487 0.2079 0.0
C103 C 0.82192 0.6834 0.17684 0.0
O104 O 0.7624 0.72979 0.23756 0.0
O105 O 0.76896 0.7573 0.18007 0.0
O106 O 0.8186 0.71012 0.15637 0.0
O107 O 0.81092 0.68306 0.21385 0.0
H108 H 0.74726 0.70643 0.13972 0.0
H109 H 0.70692 0.68982 0.10497 0.0
H110 H 0.66211 0.73878 0.19786 0.0
H111 H 0.70261 0.75598 0.23166 0.0
H112 H 0.78438 0.85539 0.30187 0.0
H113 H 0.78909 0.80756 0.26017 0.0
H114 H 0.86565 0.8491 0.33801 0.0
H115 H 0.87021 0.80202 0.29558 0.0
H116 H 0.90415 0.66372 0.23345 0.0
H117 H 0.88414 0.62063 0.11558 0.0
H118 H 0.84163 0.64666 0.11639 0.0
H119 H 0.86157 0.68978 0.23399 0.0
C120 C 0.77228 0.2255 0.71117 0.0
C121 C 0.7975 0.22053 0.6961 0.0
C122 C 0.78302 0.17226 0.66235 0.0
C123 C 0.80284 0.19411 0.67191 0.0
C124 C 0.75799 0.1769 0.67881 0.0
C125 C 0.75268 0.20333 0.703 0.0
U126 U 0.79147 0.30516 0.75629 0.0
O127 O 0.7701 0.35 0.75293 0.0
O128 O 0.77883 0.32822 0.81395 0.0
C129 C 0.76587 0.35022 0.79342 0.0
C130 C 0.76583 0.25456 0.73321 0.0
C131 C 0.73843 0.35356 0.8056 0.0
C132 C 0.69441 0.33243 0.80928 0.0
C133 C 0.72003 0.33044 0.79489 0.0
C134 C 0.70513 0.38122 0.84416 0.0
C135 C 0.68674 0.35756 0.83476 0.0
C136 C 0.73074 0.37919 0.82973 0.0
C137 C 0.8629 0.33238 0.74872 0.0
C138 C 0.87923 0.38125 0.77794 0.0
C139 C 0.90811 0.3478 0.73868 0.0
C140 C 0.88767 0.32644 0.73244 0.0
C141 C 0.90415 0.37552 0.76146 0.0
C142 C 0.85879 0.35988 0.7716 0.0
C143 C 0.84171 0.30961 0.74155 0.0
O144 O 0.77639 0.25769 0.77055 0.0
O145 O 0.76715 0.28036 0.71028 0.0
O146 O 0.82366 0.31835 0.71442 0.0
O147 O 0.83211 0.29614 0.77528 0.0
H148 H 0.81283 0.23754 0.70203 0.0
H149 H 0.82222 0.19155 0.65924 0.0
H150 H 0.74239 0.16037 0.67238 0.0
H151 H 0.73311 0.20684 0.7145 0.0
H152 H 0.68073 0.31397 0.80115 0.0
H153 H 0.72565 0.31048 0.77617 0.0
H154 H 0.70008 0.40061 0.86426 0.0
H155 H 0.74472 0.39719 0.83838 0.0
H156 H 0.87536 0.4026 0.79504 0.0
H157 H 0.92706 0.34251 0.72588 0.0
H158 H 0.8912 0.30524 0.7148 0.0
H159 H 0.83975 0.36488 0.78431 0.0
C160 C 0.8434 0.65455 0.8066 0.0
C161 C 0.8652 0.66903 0.78828 0.0
C162 C 0.89213 0.6236 0.80682 0.0
C163 C 0.88937 0.65369 0.78838 0.0
C164 C 0.87021 0.60957 0.82574 0.0
C165 C 0.84614 0.62491 0.82562 0.0
U166 U 0.79918 0.7214 0.77045 0.0
O167 O 0.75951 0.71994 0.74327 0.0
O168 O 0.76706 0.74587 0.8012 0.0
C169 C 0.74948 0.73588 0.77423 0.0
C170 C 0.81752 0.66937 0.8044 0.0
C171 C 0.72525 0.72325 0.79231 0.0
C172 C 0.7023 0.69519 0.84748 0.0
C173 C 0.72563 0.70387 0.8281 0.0
C174 C 0.67788 0.72384 0.79431 0.0
C175 C 0.67812 0.70565 0.83136 0.0
C176 C 0.70123 0.73258 0.77505 0.0
C177 C 0.82858 0.78996 0.70911 0.0
C178 C 0.80224 0.83384 0.68406 0.0
C179 C 0.84791 0.83083 0.66581 0.0
C180 C 0.85023 0.8028 0.68876 0.0
C181 C 0.82383 0.84657 0.66284 0.0
C182 C 0.8046 0.80573 0.70701 0.0
C183 C 0.83118 0.75978 0.7315 0.0
O184 O 0.815 0.69572 0.8252 0.0
O185 O 0.80695 0.67063 0.76682 0.0
O186 O 0.81988 0.73565 0.71333 0.0
O187 O 0.82709 0.76074 0.77198 0.0
H188 H 0.86341 0.69196 0.77337 0.0
H189 H 0.90582 0.6653 0.7738 0.0
H190 H 0.87138 0.58619 0.83948 0.0
H191 H 0.82949 0.61329 0.83966 0.0
H192 H 0.70334 0.68153 0.87624 0.0
H193 H 0.74399 0.69637 0.84188 0.0
H194 H 0.65966 0.73193 0.78069 0.0
H195 H 0.70055 0.74744 0.7473 0.0
H196 H 0.78348 0.84547 0.68267 0.0
H197 H 0.86482 0.83957 0.64925 0.0
H198 H 0.86886 0.79083 0.68999 0.0
H199 H 0.78767 0.79608 0.72268 0.0
C200 C 0.7221 0.30823 0.18459 0.0
C201 C 0.72185 0.33507 0.15866 0.0
C202 C 0.67545 0.32722 0.1443 0.0
C203 C 0.69866 0.34456 0.13874 0.0
C204 C 0.67576 0.30097 0.17145 0.0
C205 C 0.69886 0.29161 0.1914 0.0
U206 U 0.79654 0.30865 0.20782 0.0
O207 O 0.8168 0.2956 0.26624 0.0
O208 O 0.82267 0.26754 0.20981 0.0
C209 C 0.82656 0.26977 0.25036 0.0
C210 C 0.74638 0.29599 0.20331 0.0
C211 C 0.8228 0.24045 0.27482 0.0
C212 C 0.80186 0.21097 0.33085 0.0
C213 C 0.80409 0.23836 0.30656 0.0
C214 C 0.83624 0.18678 0.29101 0.0
C215 C 0.8181 0.18491 0.32373 0.0
C216 C 0.83862 0.21432 0.26695 0.0
C217 C 0.84408 0.3714 0.17065 0.0
C218 C 0.88667 0.37933 0.20311 0.0
C219 C 0.87611 0.40545 0.13743 0.0
C220 C 0.85143 0.39131 0.13757 0.0
C221 C 0.89387 0.40006 0.17056 0.0
C222 C 0.86206 0.365 0.20304 0.0
C223 C 0.81742 0.35831 0.1718 0.0
O224 O 0.76354 0.28497 0.17694 0.0
O225 O 0.75695 0.31274 0.23339 0.0
O226 O 0.80605 0.35908 0.20849 0.0
O227 O 0.81393 0.33148 0.15234 0.0
H228 H 0.73965 0.34814 0.153 0.0
H229 H 0.69917 0.36465 0.11761 0.0
H230 H 0.65822 0.2873 0.17667 0.0
H231 H 0.6987 0.27088 0.21145 0.0
H232 H 0.78797 0.2107 0.35615 0.0
H233 H 0.79149 0.25808 0.31322 0.0
H234 H 0.84879 0.16706 0.28418 0.0
H235 H 0.85307 0.21534 0.24245 0.0
H236 H 0.89996 0.3745 0.22888 0.0
H237 H 0.88089 0.4216 0.11218 0.0
H238 H 0.83787 0.3965 0.11228 0.0
H239 H 0.85686 0.34942 0.22872 0.0
C240 C 0.25125 0.23518 0.7012 0.0
C241 C 0.27581 0.22816 0.68483 0.0
C242 C 0.25845 0.18014 0.65397 0.0
C243 C 0.27935 0.20098 0.66129 0.0
C244 C 0.2341 0.18679 0.67181 0.0
C245 C 0.23054 0.21412 0.69513 0.0
U246 U 0.27775 0.30455 0.76243 0.0
O247 O 0.26795 0.35485 0.75907 0.0
O248 O 0.26178 0.32837 0.81748 0.0
C249 C 0.25801 0.35493 0.79683 0.0
C250 C 0.24698 0.26461 0.72392 0.0
C251 C 0.23172 0.36855 0.79967 0.0
C252 C 0.1861 0.37041 0.77815 0.0
C253 C 0.2106 0.35586 0.77719 0.0
C254 C 0.20353 0.40993 0.82485 0.0
C255 C 0.18231 0.39783 0.80172 0.0
C256 C 0.22794 0.39543 0.82381 0.0
C257 C 0.35238 0.30571 0.78226 0.0
C258 C 0.37569 0.34156 0.82816 0.0
C259 C 0.39916 0.30048 0.7925 0.0
C260 C 0.37595 0.29065 0.77346 0.0
C261 C 0.39925 0.32563 0.82076 0.0
C262 C 0.3524 0.33161 0.80913 0.0
C263 C 0.32802 0.29259 0.7651 0.0
O264 O 0.25174 0.26322 0.76434 0.0
O265 O 0.25639 0.29014 0.70591 0.0
O266 O 0.31679 0.30864 0.73457 0.0
O267 O 0.31141 0.28165 0.79278 0.0
H268 H 0.2921 0.24407 0.68945 0.0
H269 H 0.29827 0.19697 0.64759 0.0
H270 H 0.21768 0.17107 0.66736 0.0
H271 H 0.21151 0.21904 0.70793 0.0
H272 H 0.17021 0.36033 0.76021 0.0
H273 H 0.21318 0.33504 0.75838 0.0
H274 H 0.20156 0.43133 0.84268 0.0
H275 H 0.24404 0.40564 0.84118 0.0
H276 H 0.37501 0.36077 0.85015 0.0
H277 H 0.41697 0.28792 0.78582 0.0
H278 H 0.37629 0.27065 0.75268 0.0
H279 H 0.33434 0.34348 0.81634 0.0
C280 C 0.20923 0.69821 0.22004 0.0
C281 C 0.20755 0.68034 0.18339 0.0
C282 C 0.16786 0.65497 0.20858 0.0
C283 C 0.18699 0.65902 0.17765 0.0
C284 C 0.16969 0.67289 0.24524 0.0
C285 C 0.19013 0.69436 0.25082 0.0
U286 U 0.28003 0.72765 0.20894 0.0
O287 O 0.29383 0.77589 0.19537 0.0
O288 O 0.30518 0.75212 0.25403 0.0
C289 C 0.30527 0.77849 0.23212 0.0
C290 C 0.23034 0.72135 0.22662 0.0
C291 C 0.29924 0.80715 0.25558 0.0
C292 C 0.27654 0.83343 0.31162 0.0
C293 C 0.28035 0.80684 0.28703 0.0
C294 C 0.30949 0.86152 0.27216 0.0
C295 C 0.29137 0.86097 0.30498 0.0
C296 C 0.31343 0.8348 0.24779 0.0
C297 C 0.33247 0.68077 0.15442 0.0
C298 C 0.37844 0.69474 0.15935 0.0
C299 C 0.36317 0.66078 0.10386 0.0
C300 C 0.3378 0.66259 0.11927 0.0
C301 C 0.38384 0.67706 0.12343 0.0
C302 C 0.35298 0.6967 0.17458 0.0
C303 C 0.30534 0.68399 0.16854 0.0
O304 O 0.24914 0.71267 0.25244 0.0
O305 O 0.23887 0.73608 0.19302 0.0
O306 O 0.29178 0.70623 0.14955 0.0
O307 O 0.30194 0.68321 0.20926 0.0
H308 H 0.22214 0.68277 0.15927 0.0
H309 H 0.18641 0.64518 0.14938 0.0
H310 H 0.15523 0.67043 0.26955 0.0
H311 H 0.19103 0.708 0.27925 0.0
H312 H 0.26269 0.83187 0.33693 0.0
H313 H 0.26908 0.78575 0.29343 0.0
H314 H 0.32096 0.88242 0.26569 0.0
H315 H 0.32797 0.83552 0.22342 0.0
H316 H 0.39381 0.70737 0.17547 0.0
H317 H 0.36633 0.6475 0.07562 0.0
H318 H 0.32221 0.65032 0.10312 0.0
H319 H 0.34926 0.71101 0.20173 0.0
H320 H 1.01069 0.46772 0.14366 0.0
H321 H 1.01231 0.56925 0.14531 0.0
H322 H 0.94638 0.51896 0.19418 0.0
H323 H 0.04096 0.49712 0.09955 0.0
H324 H 0.0406 0.53901 0.09794 0.0
H325 H 0.07175 0.46928 0.14384 0.0
H326 H 0.13138 0.52353 0.2051 0.0
H327 H 0.06435 0.57015 0.15269 0.0
C328 C 1.00215 0.48986 0.15296 0.0
C329 C 0.97735 0.48997 0.17138 0.0
C330 C 1.01533 0.51841 0.14451 0.0
C331 C 1.00307 0.54716 0.15392 0.0
C332 C 0.97831 0.54742 0.1724 0.0
C333 C 0.96605 0.51877 0.18196 0.0
C334 C 0.04032 0.51835 0.11964 0.0
C335 C 0.06458 0.51941 0.14699 0.0
C336 C 0.07887 0.49166 0.15534 0.0
C337 C 0.10294 0.49295 0.17669 0.0
C338 C 0.11226 0.52216 0.19048 0.0
C339 C 0.09863 0.55006 0.18195 0.0
C340 C 0.07466 0.54858 0.16039 0.0
H341 H 0.06589 0.56623 0.75722 0.0
H342 H 0.06676 0.46467 0.75663 0.0
H343 H 0.12918 0.5158 0.81531 0.0
H344 H 0.0378 0.53754 0.70941 0.0
H345 H 0.04013 0.4959 0.70542 0.0
H346 H 1.0085 0.5619 0.7614 0.0
H347 H 0.94475 0.50373 0.80169 0.0
H348 H 1.01154 0.46129 0.74515 0.0
C349 C 0.0746 0.54413 0.76714 0.0
C350 C 0.09853 0.54436 0.7889 0.0
C351 C 0.06257 0.5154 0.75632 0.0
C352 C 0.07509 0.4868 0.76684 0.0
C353 C 0.09899 0.48686 0.78873 0.0
C354 C 0.11009 0.51567 0.8004 0.0
C355 C 0.03863 0.51539 0.72827 0.0
C356 C 1.01348 0.51183 0.75236 0.0
C357 C 1.00013 0.5387 0.76631 0.0
C358 C 0.97546 0.53575 0.78478 0.0
C359 C 0.96438 0.50576 0.7896 0.0
C360 C 0.977 0.47878 0.77515 0.0
C361 C 1.00179 0.48192 0.75707 0.0
H362 H 0.30191 0.05323 0.42021 0.0
H363 H 0.29764 0.05333 0.55483 0.0
H364 H 0.25945 0.1258 0.48212 0.0
H365 H 0.33357 0.02289 0.46492 0.0
H366 H 0.32932 0.02028 0.52027 0.0
H367 H 0.30918 0.9888 0.41787 0.0
H368 H 0.26612 0.91184 0.472 0.0
H369 H 0.29489 0.98593 0.55051 0.0
C370 C 0.29457 0.06331 0.4488 0.0
C371 C 0.2791 0.09046 0.44683 0.0
C372 C 0.301 0.04951 0.48774 0.0
C373 C 0.2922 0.0635 0.52477 0.0
C374 C 0.27702 0.09101 0.52309 0.0
C375 C 0.27024 0.10389 0.48389 0.0
C376 C 0.31861 0.02115 0.48985 0.0
C377 C 0.30314 0.99117 0.4846 0.0
C378 C 0.30029 0.97759 0.44484 0.0
C379 C 0.28675 0.94905 0.44005 0.0
C380 C 0.27557 0.93458 0.47522 0.0
C381 C 0.27858 0.94751 0.51513 0.0
C382 C 0.29223 0.97598 0.51966 0.0
H383 H 0.50798 0.71945 0.91861 0.0
H384 H 0.50474 0.70655 0.05235 0.0
H385 H 0.44198 0.67377 0.97467 0.0
H386 H 0.53486 0.75133 0.96496 0.0
H387 H 0.53276 0.74708 0.02016 0.0
H388 H 0.56207 0.71396 0.9234 0.0
H389 H 0.62993 0.68181 -0.00946 0.0
H390 H 0.56408 0.71609 0.05811 0.0
C391 C 0.49859 0.70939 0.94591 0.0
C392 C 0.47397 0.69506 0.94163 0.0
C393 C 0.51022 0.71295 -0.01427 0.0
C394 C 0.49683 0.70206 0.02142 0.0
C395 C 0.47237 0.68737 0.01736 0.0
C396 C 0.46159 0.6832 0.97741 0.0
C397 C 0.53418 0.73349 -0.00931 0.0
C398 C 0.55944 0.71511 -0.00917 0.0
C399 C 0.57168 0.70803 0.95276 0.0
C400 C 0.59705 0.69554 0.95254 0.0
C401 C 0.60977 0.6894 -0.00925 0.0
C402 C 0.59827 0.69702 0.02894 0.0
C403 C 0.57283 0.7093 0.02882 0.0
H404 H 0.8411 0.05381 0.42968 0.0
H405 H 0.82718 0.04878 0.56221 0.0
H406 H 0.79529 0.12497 0.48857 0.0
H407 H 0.86795 0.02038 0.47422 0.0
H408 H 0.8646 0.02113 0.52966 0.0
H409 H 0.83802 0.98726 0.43078 0.0
H410 H 0.8095 0.90455 0.49416 0.0
H411 H 0.83763 0.98301 0.56536 0.0
C412 C 0.83165 0.06284 0.45727 0.0
C413 C 0.81697 0.09063 0.45434 0.0
C414 C 0.83515 0.04742 0.49606 0.0
C415 C 0.82381 0.06005 0.53207 0.0
C416 C 0.80911 0.0879 0.52955 0.0
C417 C 0.80543 0.10261 0.49043 0.0
C418 C 0.85336 0.01971 0.49979 0.0
C419 C 0.83878 0.98885 0.49824 0.0
C420 C 0.83301 0.97494 0.45948 0.0
C421 C 0.82206 0.94461 0.45775 0.0
C422 C 0.81635 0.92869 0.49529 0.0
C423 C 0.82193 0.94217 0.53426 0.0
C424 C 0.83281 0.97255 0.53548 0.0
H425 H 0.50959 0.3792 0.91322 0.0
H426 H 0.51008 0.37681 0.04837 0.0
H427 H 0.44961 0.32944 0.97968 0.0
H428 H 0.53671 0.41633 0.95356 0.0
H429 H 0.53661 0.41574 0.00935 0.0
H430 H 0.56802 0.38519 0.915 0.0
H431 H 0.62945 0.33956 0.9846 0.0
H432 H 0.56381 0.37698 0.04961 0.0
C433 C 0.50143 0.37091 0.94251 0.0
C434 C 0.47852 0.35273 0.94213 0.0
C435 C 0.51343 0.37904 0.98084 0.0
C436 C 0.50171 0.36956 0.01874 0.0
C437 C 0.47882 0.35135 0.01831 0.0
C438 C 0.46777 0.34261 0.98 0.0
C439 C 0.53711 0.40037 0.98139 0.0
C440 C 0.56235 0.38194 0.98204 0.0
C441 C 0.5759 0.37656 0.94451 0.0
C442 C 0.60006 0.361 0.9453 0.0
C443 C 0.61034 0.35049 0.98363 0.0
C444 C 0.5976 0.35632 0.02119 0.0
C445 C 0.5735 0.37194 0.02045 0.0
C446 C 0.14794 0.42697 0.14519 0.0
C447 C 0.16343 0.4235 0.18148 0.0
H448 H 0.1163 0.45164 0.11531 0.0
C449 C 0.15594 0.43916 0.21797 0.0
H450 H 0.15322 0.41528 0.11655 0.0
C451 C 0.13473 0.45972 0.21734 0.0
C452 C 0.12054 0.46523 0.18017 0.0
H453 H 0.16712 0.43643 0.24669 0.0
H454 H 0.13026 0.47265 0.24542 0.0
C455 C 0.12669 0.44768 0.14453 0.0
C456 C 0.14125 0.61386 0.76177 0.0
C457 C 0.15514 0.61796 0.79952 0.0
H458 H 0.11189 0.58751 0.72905 0.0
C459 C 0.14667 0.6016 0.83543 0.0
H460 H 0.14728 0.62591 0.73343 0.0
C461 C 0.12644 0.57958 0.83281 0.0
C462 C 0.11407 0.57359 0.79432 0.0
H463 H 0.15647 0.60474 0.86525 0.0
H464 H 0.1215 0.56584 0.86038 0.0
C465 C 0.12087 0.59192 0.75923 0.0
C466 C 0.9291 0.60508 0.21306 0.0
C467 C 0.92201 0.62134 0.17615 0.0
H468 H 0.95301 0.56911 0.24095 0.0
C469 C 0.93691 0.6168 0.13995 0.0
H470 H 0.91796 0.60787 0.2414 0.0
C471 C 0.9572 0.59479 0.13988 0.0
C472 C 0.96278 0.5767 0.17587 0.0
H473 H 0.93213 0.62927 0.11118 0.0
H474 H 0.96717 0.59025 0.11083 0.0
C475 C 0.94918 0.58289 0.21285 0.0
C476 C 0.94207 0.40683 0.73337 0.0
C477 C 0.92558 0.39895 0.76688 0.0
H478 H 0.97147 0.43813 0.70984 0.0
C479 C 0.92881 0.41488 0.80492 0.0
H480 H 0.94003 0.39519 0.70354 0.0
C481 C 0.94693 0.43936 0.80856 0.0
C482 C 0.96225 0.44856 0.77424 0.0
H483 H 0.91686 0.40894 0.83165 0.0
H484 H 0.94825 0.45196 0.8378 0.0
C485 C 0.96022 0.43137 0.73702 0.0
C486 C 0.244 0.13748 0.36349 0.0
C487 C 0.2649 0.15293 0.34366 0.0
H488 H 0.23223 0.1052 0.41181 0.0
C489 C 0.29051 0.14341 0.35364 0.0
H490 H 0.22402 0.14355 0.35586 0.0
C491 C 0.29511 0.12076 0.38492 0.0
C492 C 0.27422 0.10747 0.407 0.0
H493 H 0.30711 0.15489 0.33934 0.0
H494 H 0.31502 0.11539 0.39398 0.0
C495 C 0.24863 0.11523 0.39514 0.0
C496 C 0.42212 0.67802 0.86034 0.0
C497 C 0.41781 0.70825 0.84333 0.0
H498 H 0.44407 0.64976 0.9039 0.0
C499 C 0.43546 0.7325 0.85343 0.0
H500 H 0.40926 0.65864 0.85252 0.0
C501 C 0.45553 0.72732 0.88257 0.0
C502 C 0.45838 0.6978 0.90231 0.0
H503 H 0.43268 0.75613 0.84117 0.0
H504 H 0.46741 0.74715 0.89213 0.0
C505 C 0.4422 0.67285 0.88947 0.0
C506 C 0.79963 0.88496 0.37805 0.0
C507 C 0.82158 0.88314 0.35215 0.0
H508 H 0.78222 0.90657 0.43113 0.0
C509 C 0.84171 0.90537 0.35727 0.0
H510 H 0.78378 0.86823 0.37513 0.0
C511 C 0.84094 0.92714 0.38975 0.0
C512 C 0.81997 0.9272 0.41773 0.0
H513 H 0.85864 0.90505 0.33728 0.0
H514 H 0.8576 0.94243 0.39456 0.0
C515 C 0.79882 0.90681 0.4104 0.0
C516 C 0.65073 0.32954 0.87263 0.0
C517 C 0.66071 0.35754 0.8551 0.0
H518 H 0.62303 0.30865 0.91435 0.0
C519 C 0.64706 0.38581 0.86138 0.0
H520 H 0.66076 0.30736 0.86875 0.0
C521 C 0.62528 0.38645 0.88751 0.0
C522 C 0.61687 0.35887 0.90795 0.0
H523 H 0.65397 0.40771 0.84777 0.0
H524 H 0.61636 0.4089 0.89435 0.0
C525 C 0.62908 0.33022 0.89879 0.0
C526 C 0.23864 0.89293 0.58314 0.0
C527 C 0.25738 0.88252 0.61255 0.0
H528 H 0.23063 0.92205 0.52939 0.0
C529 C 0.28205 0.89716 0.61292 0.0
H530 H 0.21924 0.88282 0.58255 0.0
C531 C 0.28829 0.92018 0.58303 0.0
C532 C 0.27012 0.9288 0.55194 0.0
H533 H 0.29709 0.88961 0.63473 0.0
H534 H 0.3079 0.92971 0.58256 0.0
C535 C 0.24501 0.91563 0.55296 0.0
C536 C 0.65355 0.67743 0.10364 0.0
C537 C 0.65682 0.70622 0.12442 0.0
H538 H 0.63178 0.65146 0.05796 0.0
C539 C 0.63776 0.72971 0.11868 0.0
H540 H 0.66752 0.65858 0.10802 0.0
C541 C 0.61715 0.72549 0.09034 0.0
C542 C 0.61517 0.69773 0.06699 0.0
H543 H 0.63971 0.75228 0.13386 0.0
H544 H 0.60402 0.74498 0.08432 0.0
C545 C 0.63295 0.67323 0.07525 0.0
C546 C 0.81182 0.13011 0.63309 0.0
C547 C 0.78799 0.14642 0.63243 0.0
H548 H 0.83708 0.09845 0.6012 0.0
C549 C 0.76979 0.13984 0.60054 0.0
H550 H 0.8261 0.13432 0.65756 0.0
C551 C 0.77596 0.11905 0.56856 0.0
C552 C 0.80045 0.10436 0.56774 0.0
H553 H 0.75132 0.1521 0.59889 0.0
H554 H 0.762 0.11556 0.54339 0.0
C555 C 0.81798 0.10925 0.6011 0.0
C556 C 0.43806 0.30513 0.09447 0.0
C557 C 0.42479 0.32931 0.11512 0.0
H558 H 0.46609 0.29334 0.04788 0.0
C559 C 0.43269 0.36069 0.10828 0.0
H560 H 0.43234 0.28075 0.09866 0.0
C561 C 0.45233 0.36781 0.07947 0.0
C562 C 0.46419 0.34369 0.05678 0.0
H563 H 0.42301 0.3798 0.12403 0.0
H564 H 0.45694 0.39225 0.07278 0.0
C565 C 0.45745 0.31227 0.06546 0.0
C566 C 0.93167 0.60597 0.76703 0.0
C567 C 0.91711 0.6058 0.8042 0.0
H568 H 0.9621 0.58409 0.73206 0.0
C569 C 0.92524 0.58604 0.83741 0.0
H570 H 0.92594 0.6207 0.7407 0.0
C571 C 0.94587 0.56504 0.8323 0.0
C572 C 0.95904 0.5635 0.79404 0.0
H573 H 0.91493 0.58582 0.86683 0.0
H574 H 0.95061 0.54872 0.8575 0.0
C575 C 0.95249 0.58506 0.76206 0.0
C576 C 0.93378 0.42339 0.13664 0.0
C577 C 0.91877 0.41812 0.1727 0.0
H578 H 0.96482 0.4498 0.10836 0.0
C579 C 0.92632 0.43289 0.21009 0.0
H580 H 0.92865 0.41207 0.10748 0.0
C581 C 0.94705 0.45433 0.21059 0.0
C582 C 0.96085 0.46125 0.17383 0.0
H583 H 0.91512 0.42952 0.23837 0.0
H584 H 0.95129 0.46698 0.23912 0.0
C585 C 0.95471 0.44464 0.13725 0.0
C586 C 0.14777 0.4304 0.83606 0.0
C587 C 0.15707 0.41523 0.80024 0.0
H588 H 0.12149 0.46457 0.86062 0.0
C589 C 0.14351 0.41961 0.76212 0.0
H590 H 0.15732 0.427 0.86612 0.0
C591 C 0.12263 0.44077 0.75921 0.0
C592 C 0.11499 0.45801 0.79429 0.0
H593 H 0.15015 0.40846 0.73385 0.0
H594 H 0.1139 0.44553 0.72882 0.0
C595 C 0.12705 0.45163 0.83307 0.0
C596 C 0.14071 0.61037 0.2366 0.0
C597 C 0.14689 0.63098 0.20342 0.0
H598 H 0.12012 0.5688 0.25591 0.0
C599 C 0.13409 0.62714 0.16468 0.0
H600 H 0.1503 0.61256 0.26675 0.0
C601 C 0.11658 0.6022 0.15863 0.0
C602 C 0.11176 0.58045 0.19107 0.0
H603 H 0.13818 0.64289 0.13868 0.0
H604 H 0.10809 0.5988 0.12785 0.0
C605 C 0.12343 0.58531 0.23043 0.0
C606 C 0.8413 0.89711 0.63225 0.0
C607 C 0.82108 0.87479 0.63518 0.0
H608 H 0.85738 0.93608 0.59819 0.0
C609 C 0.79927 0.87802 0.60855 0.0
H610 H 0.85814 0.89566 0.65284 0.0
C611 C 0.79862 0.90156 0.57769 0.0
C612 C 0.81979 0.92231 0.57265 0.0
H613 H 0.78337 0.86123 0.6098 0.0
H614 H 0.78211 0.90253 0.55637 0.0
C615 C 0.84069 0.9206 0.6013 0.0
C616 C 0.64395 0.36606 0.11172 0.0
C617 C 0.65174 0.33471 0.11894 0.0
H618 H 0.6196 0.39744 0.07567 0.0
C619 C 0.63806 0.31042 0.09865 0.0
H620 H 0.65396 0.38525 0.12716 0.0
C621 C 0.61841 0.31742 0.06948 0.0
C622 C 0.61178 0.3488 0.06045 0.0
H623 H 0.6437 0.28605 0.10313 0.0
H624 H 0.60958 0.29843 0.05192 0.0
C625 C 0.62405 0.37303 0.08282 0.0
C626 C 0.24186 0.14574 0.59606 0.0
C627 C 0.26164 0.15311 0.62511 0.0
H628 H 0.23093 0.11956 0.54183 0.0
C629 C 0.28522 0.1363 0.62375 0.0
H630 H 0.22349 0.15824 0.5959 0.0
C631 C 0.28961 0.11437 0.59222 0.0
C632 C 0.27047 0.10872 0.56146 0.0
H633 H 0.30068 0.14089 0.64615 0.0
H634 H 0.30856 0.1033 0.59052 0.0
C635 C 0.2462 0.12373 0.56475 0.0
C636 C 0.425 0.70551 0.10262 0.0
C637 C 0.41027 0.67748 0.1042 0.0
H638 H 0.45692 0.73025 0.0744 0.0
C639 C 0.41977 0.65089 0.08331 0.0
H640 H 0.41831 0.72655 0.11799 0.0
C641 C 0.44184 0.65317 0.05809 0.0
C642 C 0.45514 0.68194 0.05372 0.0
H643 H 0.40938 0.62868 0.08469 0.0
H644 H 0.44751 0.63302 0.03978 0.0
C645 C 0.44727 0.70766 0.07775 0.0
C646 C 0.84038 0.1418 0.36498 0.0
C647 C 0.81721 0.15692 0.3522 0.0
H648 H 0.85835 0.10863 0.40703 0.0
C649 C 0.79349 0.1467 0.36958 0.0
H650 H 0.85905 0.1492 0.35273 0.0
C651 C 0.79319 0.12363 0.40107 0.0
C652 C 0.81653 0.10996 0.41547 0.0
H653 H 0.7752 0.15723 0.35981 0.0
H654 H 0.77479 0.11729 0.4153 0.0
C655 C 0.84002 0.11848 0.39614 0.0
C656 C 0.43014 0.36447 0.85427 0.0
C657 C 0.42314 0.33313 0.84555 0.0
H658 H 0.45416 0.39529 0.8911 0.0
C659 C 0.43781 0.30861 0.86397 0.0
H660 H 0.41937 0.38385 0.84028 0.0
C661 C 0.45767 0.3152 0.89276 0.0
C662 C 0.46354 0.34641 0.90337 0.0
H663 H 0.43281 0.28422 0.85834 0.0
H664 H 0.46736 0.29583 0.90878 0.0
C665 C 0.45027 0.37105 0.88282 0.0
C666 C 0.2653 0.8957 0.35231 0.0
C667 C 0.28935 0.88785 0.33437 0.0
H668 H 0.24556 0.92172 0.39956 0.0
C669 C 0.31189 0.90399 0.3477 0.0
H670 H 0.24745 0.88433 0.34216 0.0
C671 C 0.31068 0.92583 0.38004 0.0
C672 C 0.28695 0.9318 0.39998 0.0
H673 H 0.3308 0.8984 0.33501 0.0
H674 H 0.32861 0.93639 0.39136 0.0
C675 C 0.26414 0.9173 0.38492 0.0
C676 C 0.64982 0.67183 0.87777 0.0
C677 C 0.65371 0.70013 0.8554 0.0
H678 H 0.62813 0.64777 0.92542 0.0
C679 C 0.63542 0.72453 0.85986 0.0
H680 H 0.66315 0.6523 0.8744 0.0
C681 C 0.61514 0.72172 0.88866 0.0
C682 C 0.61278 0.69454 0.91375 0.0
H683 H 0.63783 0.74675 0.84343 0.0
H684 H 0.60272 0.74189 0.89377 0.0
C685 C 0.62961 0.66909 0.90666 0.0
loop_
_geom_bond_atom_site_label_1
_geom_bond_atom_site_label_2
_geom_bond_distance
_geom_bond_site_symmetry_2
_ccdc_geom_bond_type
C0 C1 1.264 . S
C0 C5 1.479 . S
C0 C10 1.465 . S
C1 C0 1.264 . S
C1 C3 1.339 . S
C1 H28 0.931 . S
C2 C3 1.395 . S
C2 C4 1.320 . S
C3 C1 1.339 . S
C3 C2 1.395 . S
C3 H29 0.929 . S
C4 C2 1.320 . S
C4 C5 1.405 . S
C4 H30 0.930 . S
C5 C0 1.479 . S
C5 C4 1.405 . S
C5 H31 0.931 . S
U6 O7 2.454 . S
U6 O8 2.458 . S
U6 C9 2.984 . S
U6 C10 2.847 . S
U6 C23 2.882 . S
U6 O24 2.441 . S
U6 O25 2.420 . S
U6 O26 2.455 . S
U6 O27 2.449 . S
O7 U6 2.454 . S
O7 C9 1.353 . S
O8 U6 2.458 . S
O8 C9 1.286 . S
C9 U6 2.984 . S
C9 O7 1.353 . S
C9 O8 1.286 . S
C9 C11 1.363 . S
C10 C0 1.465 . S
C10 U6 2.847 . S
C10 O24 1.249 . S
C10 O25 1.202 . S
C11 C9 1.363 . S
C11 C13 1.408 . S
C11 C16 1.342 . S
C12 C13 1.310 . S
C12 C15 1.461 . S
C12 H32 0.932 . S
C13 C11 1.408 . S
C13 C12 1.310 . S
C13 H33 0.930 . S
C14 C15 1.474 . S
C14 C16 1.285 . S
C14 H34 0.929 . S
C15 C12 1.461 . S
C15 C14 1.474 . S
C16 C11 1.342 . S
C16 C14 1.285 . S
C16 H35 0.930 . S
C17 C20 1.424 . S
C17 C22 1.245 . S
C17 C23 1.428 . S
C18 C21 1.260 . S
C18 C22 1.477 . S
C18 H36 0.932 . S
C19 C20 1.384 . S
C19 C21 1.479 . S
C19 H37 0.929 . S
C20 C17 1.424 . S
C20 C19 1.384 . S
C20 H38 0.928 . S
C21 C18 1.260 . S
C21 C19 1.479 . S
C22 C17 1.245 . S
C22 C18 1.477 . S
C22 H39 0.932 . S
C23 U6 2.882 . S
C23 C17 1.428 . S
C23 O26 1.301 . S
C23 O27 1.282 . S
O24 U6 2.441 . S
O24 C10 1.249 . S
O25 U6 2.420 . S
O25 C10 1.202 . S
O26 U6 2.455 . S
O26 C23 1.301 . S
O27 U6 2.449 . S
O27 C23 1.282 . S
H28 C1 0.931 . S
H29 C3 0.929 . S
H30 C4 0.930 . S
H31 C5 0.931 . S
H32 C12 0.932 . S
H33 C13 0.930 . S
H34 C14 0.929 . S
H35 C16 0.930 . S
H36 C18 0.932 . S
H37 C19 0.929 . S
H38 C20 0.928 . S
H39 C22 0.932 . S
C40 C41 1.264 . S
C40 C45 1.479 . S
C40 C50 1.465 . S
C41 C40 1.264 . S
C41 C43 1.339 . S
C41 H68 0.931 . S
C42 C43 1.395 . S
C42 C44 1.320 . S
C43 C41 1.339 . S
C43 C42 1.395 . S
C43 H69 0.929 . S
C44 C42 1.320 . S
C44 C45 1.405 . S
C44 H70 0.930 . S
C45 C40 1.479 . S
C45 C44 1.405 . S
C45 H71 0.931 . S
U46 O47 2.454 . S
U46 O48 2.458 . S
U46 C49 2.984 . S
U46 C50 2.847 . S
U46 C63 2.882 . S
U46 O64 2.441 . S
U46 O65 2.420 . S
U46 O66 2.455 . S
U46 O67 2.449 . S
O47 U46 2.454 . S
O47 C49 1.353 . S
O48 U46 2.458 . S
O48 C49 1.286 . S
C49 U46 2.984 . S
C49 O47 1.353 . S
C49 O48 1.286 . S
C49 C51 1.363 . S
C50 C40 1.465 . S
C50 U46 2.847 . S
C50 O64 1.249 . S
C50 O65 1.202 . S
C51 C49 1.363 . S
C51 C53 1.408 . S
C51 C56 1.342 . S
C52 C53 1.310 . S
C52 C55 1.461 . S
C52 H72 0.932 . S
C53 C51 1.408 . S
C53 C52 1.310 . S
C53 H73 0.930 . S
C54 C55 1.474 . S
C54 C56 1.285 . S
C54 H74 0.929 . S
C55 C52 1.461 . S
C55 C54 1.474 . S
C56 C51 1.342 . S
C56 C54 1.285 . S
C56 H75 0.930 . S
C57 C60 1.424 . S
C57 C62 1.245 . S
C57 C63 1.428 . S
C58 C61 1.260 . S
C58 C62 1.477 . S
C58 H76 0.932 . S
C59 C60 1.384 . S
C59 C61 1.479 . S
C59 H77 0.929 . S
C60 C57 1.424 . S
C60 C59 1.384 . S
C60 H78 0.928 . S
C61 C58 1.260 . S
C61 C59 1.479 . S
C62 C57 1.245 . S
C62 C58 1.477 . S
C62 H79 0.932 . S
C63 U46 2.882 . S
C63 C57 1.428 . S
C63 O66 1.301 . S
C63 O67 1.282 . S
O64 U46 2.441 . S
O64 C50 1.249 . S
O65 U46 2.420 . S
O65 C50 1.202 . S
O66 U46 2.455 . S
O66 C63 1.301 . S
O67 U46 2.449 . S
O67 C63 1.282 . S
H68 C41 0.931 . S
H69 C43 0.929 . S
H70 C44 0.930 . S
H71 C45 0.931 . S
H72 C52 0.932 . S
H73 C53 0.930 . S
H74 C54 0.929 . S
H75 C56 0.930 . S
H76 C58 0.932 . S
H77 C59 0.929 . S
H78 C60 0.928 . S
H79 C62 0.932 . S
C80 C81 1.264 . S
C80 C85 1.479 . S
C80 C90 1.465 . S
C81 C80 1.264 . S
C81 C83 1.339 . S
C81 H108 0.931 . S
C82 C83 1.395 . S
C82 C84 1.320 . S
C83 C81 1.339 . S
C83 C82 1.395 . S
C83 H109 0.929 . S
C84 C82 1.320 . S
C84 C85 1.405 . S
C84 H110 0.930 . S
C85 C80 1.479 . S
C85 C84 1.405 . S
C85 H111 0.931 . S
U86 O87 2.454 . S
U86 O88 2.458 . S
U86 C89 2.984 . S
U86 C90 2.847 . S
U86 C103 2.882 . S
U86 O104 2.441 . S
U86 O105 2.420 . S
U86 O106 2.455 . S
U86 O107 2.449 . S
O87 U86 2.454 . S
O87 C89 1.353 . S
O88 U86 2.458 . S
O88 C89 1.286 . S
C89 U86 2.984 . S
C89 O87 1.353 . S
C89 O88 1.286 . S
C89 C91 1.363 . S
C90 C80 1.465 . S
C90 U86 2.847 . S
C90 O104 1.249 . S
C90 O105 1.202 . S
C91 C89 1.363 . S
C91 C93 1.408 . S
C91 C96 1.342 . S
C92 C93 1.310 . S
C92 C95 1.461 . S
C92 H112 0.932 . S
C93 C91 1.408 . S
C93 C92 1.310 . S
C93 H113 0.930 . S
C94 C95 1.474 . S
C94 C96 1.285 . S
C94 H114 0.929 . S
C95 C92 1.461 . S
C95 C94 1.474 . S
C96 C91 1.342 . S
C96 C94 1.285 . S
C96 H115 0.930 . S
C97 C100 1.424 . S
C97 C102 1.245 . S
C97 C103 1.428 . S
C98 C101 1.260 . S
C98 C102 1.477 . S
C98 H116 0.932 . S
C99 C100 1.384 . S
C99 C101 1.479 . S
C99 H117 0.929 . S
C100 C97 1.424 . S
C100 C99 1.384 . S
C100 H118 0.928 . S
C101 C98 1.260 . S
C101 C99 1.479 . S
C102 C97 1.245 . S
C102 C98 1.477 . S
C102 H119 0.932 . S
C103 U86 2.882 . S
C103 C97 1.428 . S
C103 O106 1.301 . S
C103 O107 1.282 . S
O104 U86 2.441 . S
O104 C90 1.249 . S
O105 U86 2.420 . S
O105 C90 1.202 . S
O106 U86 2.455 . S
O106 C103 1.301 . S
O107 U86 2.449 . S
O107 C103 1.282 . S
H108 C81 0.931 . S
H109 C83 0.929 . S
H110 C84 0.930 . S
H111 C85 0.931 . S
H112 C92 0.932 . S
H113 C93 0.930 . S
H114 C94 0.929 . S
H115 C96 0.930 . S
H116 C98 0.932 . S
H117 C99 0.929 . S
H118 C100 0.928 . S
H119 C102 0.932 . S
C120 C121 1.264 . S
C120 C125 1.479 . S
C120 C130 1.465 . S
C121 C120 1.264 . S
C121 C123 1.339 . S
C121 H148 0.931 . S
C122 C123 1.395 . S
C122 C124 1.320 . S
C123 C121 1.339 . S
C123 C122 1.395 . S
C123 H149 0.929 . S
C124 C122 1.320 . S
C124 C125 1.405 . S
C124 H150 0.930 . S
C125 C120 1.479 . S
C125 C124 1.405 . S
C125 H151 0.931 . S
U126 O127 2.454 . S
U126 O128 2.458 . S
U126 C129 2.984 . S
U126 C130 2.847 . S
U126 C143 2.882 . S
U126 O144 2.441 . S
U126 O145 2.420 . S
U126 O146 2.455 . S
U126 O147 2.449 . S
O127 U126 2.454 . S
O127 C129 1.353 . S
O128 U126 2.458 . S
O128 C129 1.286 . S
C129 U126 2.984 . S
C129 O127 1.353 . S
C129 O128 1.286 . S
C129 C131 1.363 . S
C130 C120 1.465 . S
C130 U126 2.847 . S
C130 O144 1.249 . S
C130 O145 1.202 . S
C131 C129 1.363 . S
C131 C133 1.408 . S
C131 C136 1.342 . S
C132 C133 1.310 . S
C132 C135 1.461 . S
C132 H152 0.932 . S
C133 C131 1.408 . S
C133 C132 1.310 . S
C133 H153 0.930 . S
C134 C135 1.474 . S
C134 C136 1.285 . S
C134 H154 0.929 . S
C135 C132 1.461 . S
C135 C134 1.474 . S
C136 C131 1.342 . S
C136 C134 1.285 . S
C136 H155 0.930 . S
C137 C140 1.424 . S
C137 C142 1.245 . S
C137 C143 1.428 . S
C138 C141 1.260 . S
C138 C142 1.477 . S
C138 H156 0.932 . S
C139 C140 1.384 . S
C139 C141 1.479 . S
C139 H157 0.929 . S
C140 C137 1.424 . S
C140 C139 1.384 . S
C140 H158 0.928 . S
C141 C138 1.260 . S
C141 C139 1.479 . S
C142 C137 1.245 . S
C142 C138 1.477 . S
C142 H159 0.932 . S
C143 U126 2.882 . S
C143 C137 1.428 . S
C143 O146 1.301 . S
C143 O147 1.282 . S
O144 U126 2.441 . S
O144 C130 1.249 . S
O145 U126 2.420 . S
O145 C130 1.202 . S
O146 U126 2.455 . S
O146 C143 1.301 . S
O147 U126 2.449 . S
O147 C143 1.282 . S
H148 C121 0.931 . S
H149 C123 0.929 . S
H150 C124 0.930 . S
H151 C125 0.931 . S
H152 C132 0.932 . S
H153 C133 0.930 . S
H154 C134 0.929 . S
H155 C136 0.930 . S
H156 C138 0.932 . S
H157 C139 0.929 . S
H158 C140 0.928 . S
H159 C142 0.932 . S
C160 C161 1.264 . S
C160 C165 1.479 . S
C160 C170 1.465 . S
C161 C160 1.264 . S
C161 C163 1.339 . S
C161 H188 0.931 . S
C162 C163 1.395 . S
C162 C164 1.320 . S
C163 C161 1.339 . S
C163 C162 1.395 . S
C163 H189 0.929 . S
C164 C162 1.320 . S
C164 C165 1.405 . S
C164 H190 0.930 . S
C165 C160 1.479 . S
C165 C164 1.405 . S
C165 H191 0.931 . S
U166 O167 2.454 . S
U166 O168 2.458 . S
U166 C169 2.984 . S
U166 C170 2.847 . S
U166 C183 2.882 . S
U166 O184 2.441 . S
U166 O185 2.420 . S
U166 O186 2.455 . S
U166 O187 2.449 . S
O167 U166 2.454 . S
O167 C169 1.353 . S
O168 U166 2.458 . S
O168 C169 1.286 . S
C169 U166 2.984 . S
C169 O167 1.353 . S
C169 O168 1.286 . S
C169 C171 1.363 . S
C170 C160 1.465 . S
C170 U166 2.847 . S
C170 O184 1.249 . S
C170 O185 1.202 . S
C171 C169 1.363 . S
C171 C173 1.408 . S
C171 C176 1.342 . S
C172 C173 1.310 . S
C172 C175 1.461 . S
C172 H192 0.932 . S
C173 C171 1.408 . S
C173 C172 1.310 . S
C173 H193 0.930 . S
C174 C175 1.474 . S
C174 C176 1.285 . S
C174 H194 0.929 . S
C175 C172 1.461 . S
C175 C174 1.474 . S
C176 C171 1.342 . S
C176 C174 1.285 . S
C176 H195 0.930 . S
C177 C180 1.424 . S
C177 C182 1.245 . S
C177 C183 1.428 . S
C178 C181 1.260 . S
C178 C182 1.477 . S
C178 H196 0.932 . S
C179 C180 1.384 . S
C179 C181 1.479 . S
C179 H197 0.929 . S
C180 C177 1.424 . S
C180 C179 1.384 . S
C180 H198 0.928 . S
C181 C178 1.260 . S
C181 C179 1.479 . S
C182 C177 1.245 . S
C182 C178 1.477 . S
C182 H199 0.932 . S
C183 U166 2.882 . S
C183 C177 1.428 . S
C183 O186 1.301 . S
C183 O187 1.282 . S
O184 U166 2.441 . S
O184 C170 1.249 . S
O185 U166 2.420 . S
O185 C170 1.202 . S
O186 U166 2.455 . S
O186 C183 1.301 . S
O187 U166 2.449 . S
O187 C183 1.282 . S
H188 C161 0.931 . S
H189 C163 0.929 . S
H190 C164 0.930 . S
H191 C165 0.931 . S
H192 C172 0.932 . S
H193 C173 0.930 . S
H194 C174 0.929 . S
H195 C176 0.930 . S
H196 C178 0.932 . S
H197 C179 0.929 . S
H198 C180 0.928 . S
H199 C182 0.932 . S
C200 C201 1.264 . S
C200 C205 1.479 . S
C200 C210 1.465 . S
C201 C200 1.264 . S
C201 C203 1.339 . S
C201 H228 0.931 . S
C202 C203 1.395 . S
C202 C204 1.320 . S
C203 C201 1.339 . S
C203 C202 1.395 . S
C203 H229 0.929 . S
C204 C202 1.320 . S
C204 C205 1.405 . S
C204 H230 0.930 . S
C205 C200 1.479 . S
C205 C204 1.405 . S
C205 H231 0.931 . S
U206 O207 2.454 . S
U206 O208 2.458 . S
U206 C209 2.984 . S
U206 C210 2.847 . S
U206 C223 2.882 . S
U206 O224 2.441 . S
U206 O225 2.420 . S
U206 O226 2.455 . S
U206 O227 2.449 . S
O207 U206 2.454 . S
O207 C209 1.353 . S
O208 U206 2.458 . S
O208 C209 1.286 . S
C209 U206 2.984 . S
C209 O207 1.353 . S
C209 O208 1.286 . S
C209 C211 1.363 . S
C210 C200 1.465 . S
C210 U206 2.847 . S
C210 O224 1.249 . S
C210 O225 1.202 . S
C211 C209 1.363 . S
C211 C213 1.408 . S
C211 C216 1.342 . S
C212 C213 1.310 . S
C212 C215 1.461 . S
C212 H232 0.932 . S
C213 C211 1.408 . S
C213 C212 1.310 . S
C213 H233 0.930 . S
C214 C215 1.474 . S
C214 C216 1.285 . S
C214 H234 0.929 . S
C215 C212 1.461 . S
C215 C214 1.474 . S
C216 C211 1.342 . S
C216 C214 1.285 . S
C216 H235 0.930 . S
C217 C220 1.424 . S
C217 C222 1.245 . S
C217 C223 1.428 . S
C218 C221 1.260 . S
C218 C222 1.477 . S
C218 H236 0.932 . S
C219 C220 1.384 . S
C219 C221 1.479 . S
C219 H237 0.929 . S
C220 C217 1.424 . S
C220 C219 1.384 . S
C220 H238 0.928 . S
C221 C218 1.260 . S
C221 C219 1.479 . S
C222 C217 1.245 . S
C222 C218 1.477 . S
C222 H239 0.932 . S
C223 U206 2.882 . S
C223 C217 1.428 . S
C223 O226 1.301 . S
C223 O227 1.282 . S
O224 U206 2.441 . S
O224 C210 1.249 . S
O225 U206 2.420 . S
O225 C210 1.202 . S
O226 U206 2.455 . S
O226 C223 1.301 . S
O227 U206 2.449 . S
O227 C223 1.282 . S
H228 C201 0.931 . S
H229 C203 0.929 . S
H230 C204 0.930 . S
H231 C205 0.931 . S
H232 C212 0.932 . S
H233 C213 0.930 . S
H234 C214 0.929 . S
H235 C216 0.930 . S
H236 C218 0.932 . S
H237 C219 0.929 . S
H238 C220 0.928 . S
H239 C222 0.932 . S
C240 C241 1.264 . S
C240 C245 1.479 . S
C240 C250 1.465 . S
C241 C240 1.264 . S
C241 C243 1.339 . S
C241 H268 0.931 . S
C242 C243 1.395 . S
C242 C244 1.320 . S
C243 C241 1.339 . S
C243 C242 1.395 . S
C243 H269 0.929 . S
C244 C242 1.320 . S
C244 C245 1.405 . S
C244 H270 0.930 . S
C245 C240 1.479 . S
C245 C244 1.405 . S
C245 H271 0.931 . S
U246 O247 2.454 . S
U246 O248 2.458 . S
U246 C249 2.984 . S
U246 C250 2.847 . S
U246 C263 2.882 . S
U246 O264 2.441 . S
U246 O265 2.420 . S
U246 O266 2.455 . S
U246 O267 2.449 . S
O247 U246 2.454 . S
O247 C249 1.353 . S
O248 U246 2.458 . S
O248 C249 1.286 . S
C249 U246 2.984 . S
C249 O247 1.353 . S
C249 O248 1.286 . S
C249 C251 1.363 . S
C250 C240 1.465 . S
C250 U246 2.847 . S
C250 O264 1.249 . S
C250 O265 1.202 . S
C251 C249 1.363 . S
C251 C253 1.408 . S
C251 C256 1.342 . S
C252 C253 1.310 . S
C252 C255 1.461 . S
C252 H272 0.932 . S
C253 C251 1.408 . S
C253 C252 1.310 . S
C253 H273 0.930 . S
C254 C255 1.474 . S
C254 C256 1.285 . S
C254 H274 0.929 . S
C255 C252 1.461 . S
C255 C254 1.474 . S
C256 C251 1.342 . S
C256 C254 1.285 . S
C256 H275 0.930 . S
C257 C260 1.424 . S
C257 C262 1.245 . S
C257 C263 1.428 . S
C258 C261 1.260 . S
C258 C262 1.477 . S
C258 H276 0.932 . S
C259 C260 1.384 . S
C259 C261 1.479 . S
C259 H277 0.929 . S
C260 C257 1.424 . S
C260 C259 1.384 . S
C260 H278 0.928 . S
C261 C258 1.260 . S
C261 C259 1.479 . S
C262 C257 1.245 . S
C262 C258 1.477 . S
C262 H279 0.932 . S
C263 U246 2.882 . S
C263 C257 1.428 . S
C263 O266 1.301 . S
C263 O267 1.282 . S
O264 U246 2.441 . S
O264 C250 1.249 . S
O265 U246 2.420 . S
O265 C250 1.202 . S
O266 U246 2.455 . S
O266 C263 1.301 . S
O267 U246 2.449 . S
O267 C263 1.282 . S
H268 C241 0.931 . S
H269 C243 0.929 . S
H270 C244 0.930 . S
H271 C245 0.931 . S
H272 C252 0.932 . S
H273 C253 0.930 . S
H274 C254 0.929 . S
H275 C256 0.930 . S
H276 C258 0.932 . S
H277 C259 0.929 . S
H278 C260 0.928 . S
H279 C262 0.932 . S
C280 C281 1.264 . S
C280 C285 1.479 . S
C280 C290 1.465 . S
C281 C280 1.264 . S
C281 C283 1.339 . S
C281 H308 0.931 . S
C282 C283 1.395 . S
C282 C284 1.320 . S
C283 C281 1.339 . S
C283 C282 1.395 . S
C283 H309 0.929 . S
C284 C282 1.320 . S
C284 C285 1.405 . S
C284 H310 0.930 . S
C285 C280 1.479 . S
C285 C284 1.405 . S
C285 H311 0.931 . S
U286 O287 2.454 . S
U286 O288 2.458 . S
U286 C289 2.984 . S
U286 C290 2.847 . S
U286 C303 2.882 . S
U286 O304 2.441 . S
U286 O305 2.420 . S
U286 O306 2.455 . S
U286 O307 2.449 . S
O287 U286 2.454 . S
O287 C289 1.353 . S
O288 U286 2.458 . S
O288 C289 1.286 . S
C289 U286 2.984 . S
C289 O287 1.353 . S
C289 O288 1.286 . S
C289 C291 1.363 . S
C290 C280 1.465 . S
C290 U286 2.847 . S
C290 O304 1.249 . S
C290 O305 1.202 . S
C291 C289 1.363 . S
C291 C293 1.408 . S
C291 C296 1.342 . S
C292 C293 1.310 . S
C292 C295 1.461 . S
C292 H312 0.932 . S
C293 C291 1.408 . S
C293 C292 1.310 . S
C293 H313 0.930 . S
C294 C295 1.474 . S
C294 C296 1.285 . S
C294 H314 0.929 . S
C295 C292 1.461 . S
C295 C294 1.474 . S
C296 C291 1.342 . S
C296 C294 1.285 . S
C296 H315 0.930 . S
C297 C300 1.424 . S
C297 C302 1.245 . S
C297 C303 1.428 . S
C298 C301 1.260 . S
C298 C302 1.477 . S
C298 H316 0.932 . S
C299 C300 1.384 . S
C299 C301 1.479 . S
C299 H317 0.929 . S
C300 C297 1.424 . S
C300 C299 1.384 . S
C300 H318 0.928 . S
C301 C298 1.260 . S
C301 C299 1.479 . S
C302 C297 1.245 . S
C302 C298 1.477 . S
C302 H319 0.932 . S
C303 U286 2.882 . S
C303 C297 1.428 . S
C303 O306 1.301 . S
C303 O307 1.282 . S
O304 U286 2.441 . S
O304 C290 1.249 . S
O305 U286 2.420 . S
O305 C290 1.202 . S
O306 U286 2.455 . S
O306 C303 1.301 . S
O307 U286 2.449 . S
O307 C303 1.282 . S
H308 C281 0.931 . S
H309 C283 0.929 . S
H310 C284 0.930 . S
H311 C285 0.931 . S
H312 C292 0.932 . S
H313 C293 0.930 . S
H314 C294 0.929 . S
H315 C296 0.930 . S
H316 C298 0.932 . S
H317 C299 0.929 . S
H318 C300 0.928 . S
H319 C302 0.932 . S
H320 C328 0.930 . S
H321 C331 0.930 . S
H322 C333 0.930 . S
H323 C334 0.970 . S
H324 C334 0.970 . S
H325 C336 0.930 . S
H326 C338 0.930 . S
H327 C340 0.930 . S
C328 H320 0.930 . S
C328 C329 1.382 . S
C328 C330 1.426 . S
C329 C328 1.382 . S
C329 C333 1.389 . S
C330 C328 1.426 . S
C330 C331 1.375 . S
C330 C334 1.532 1_655 S
C331 H321 0.930 . S
C331 C330 1.375 . S
C331 C332 1.416 . S
C332 C331 1.416 . S
C332 C333 1.371 . S
C333 H322 0.930 . S
C333 C329 1.389 . S
C333 C332 1.371 . S
C334 H323 0.970 . S
C334 H324 0.970 . S
C334 C330 1.532 1_455 S
C334 C335 1.499 . S
C335 C334 1.499 . S
C335 C336 1.370 . S
C335 C340 1.415 . S
C336 H325 0.930 . S
C336 C335 1.370 . S
C336 C337 1.407 . S
C337 C336 1.407 . S
C337 C338 1.365 . S
C338 H326 0.930 . S
C338 C337 1.365 . S
C338 C339 1.393 . S
C339 C338 1.393 . S
C339 C340 1.387 . S
C340 H327 0.930 . S
C340 C335 1.415 . S
C340 C339 1.387 . S
H341 C349 0.930 . S
H342 C352 0.930 . S
H343 C354 0.930 . S
H344 C355 0.970 . S
H345 C355 0.970 . S
H346 C357 0.930 . S
H347 C359 0.930 . S
H348 C361 0.930 . S
C349 H341 0.930 . S
C349 C350 1.382 . S
C349 C351 1.426 . S
C350 C349 1.382 . S
C350 C354 1.389 . S
C351 C349 1.426 . S
C351 C352 1.375 . S
C351 C355 1.532 . S
C352 H342 0.930 . S
C352 C351 1.375 . S
C352 C353 1.416 . S
C353 C352 1.416 . S
C353 C354 1.371 . S
C354 H343 0.930 . S
C354 C350 1.389 . S
C354 C353 1.371 . S
C355 H344 0.970 . S
C355 H345 0.970 . S
C355 C351 1.532 . S
C355 C356 1.499 1_455 S
C356 C355 1.499 1_655 S
C356 C357 1.370 . S
C356 C361 1.415 . S
C357 H346 0.930 . S
C357 C356 1.370 . S
C357 C358 1.407 . S
C358 C357 1.407 . S
C358 C359 1.365 . S
C359 H347 0.930 . S
C359 C358 1.365 . S
C359 C360 1.393 . S
C360 C359 1.393 . S
C360 C361 1.387 . S
C361 H348 0.930 . S
C361 C356 1.415 . S
C361 C360 1.387 . S
H362 C370 0.930 . S
H363 C373 0.930 . S
H364 C375 0.930 . S
H365 C376 0.970 . S
H366 C376 0.970 . S
H367 C378 0.930 . S
H368 C380 0.930 . S
H369 C382 0.930 . S
C370 H362 0.930 . S
C370 C371 1.382 . S
C370 C372 1.426 . S
C371 C370 1.382 . S
C371 C375 1.389 . S
C372 C370 1.426 . S
C372 C373 1.375 . S
C372 C376 1.532 . S
C373 H363 0.930 . S
C373 C372 1.375 . S
C373 C374 1.416 . S
C374 C373 1.416 . S
C374 C375 1.371 . S
C375 H364 0.930 . S
C375 C371 1.389 . S
C375 C374 1.371 . S
C376 H365 0.970 . S
C376 H366 0.970 . S
C376 C372 1.532 . S
C376 C377 1.499 1_545 S
C377 C376 1.499 1_565 S
C377 C378 1.370 . S
C377 C382 1.415 . S
C378 H367 0.930 . S
C378 C377 1.370 . S
C378 C379 1.407 . S
C379 C378 1.407 . S
C379 C380 1.365 . S
C380 H368 0.930 . S
C380 C379 1.365 . S
C380 C381 1.393 . S
C381 C380 1.393 . S
C381 C382 1.387 . S
C382 H369 0.930 . S
C382 C377 1.415 . S
C382 C381 1.387 . S
H383 C391 0.930 . S
H384 C394 0.930 . S
H385 C396 0.930 . S
H386 C397 0.970 1_556 S
H387 C397 0.970 . S
H388 C399 0.930 . S
H389 C401 0.930 . S
H390 C403 0.930 . S
C391 H383 0.930 . S
C391 C392 1.382 . S
C391 C393 1.426 1_556 S
C392 C391 1.382 . S
C392 C396 1.389 1_556 S
C393 C391 1.426 1_554 S
C393 C394 1.375 . S
C393 C397 1.532 . S
C394 H384 0.930 . S
C394 C393 1.375 . S
C394 C395 1.416 . S
C395 C394 1.416 . S
C395 C396 1.371 . S
C396 H385 0.930 . S
C396 C392 1.389 1_554 S
C396 C395 1.371 . S
C397 H386 0.970 1_554 S
C397 H387 0.970 . S
C397 C393 1.532 . S
C397 C398 1.499 . S
C398 C397 1.499 . S
C398 C399 1.370 1_554 S
C398 C403 1.415 . S
C399 H388 0.930 . S
C399 C398 1.370 1_556 S
C399 C400 1.407 . S
C400 C399 1.407 . S
C400 C401 1.365 1_556 S
C401 H389 0.930 . S
C401 C400 1.365 1_554 S
C401 C402 1.393 . S
C402 C401 1.393 . S
C402 C403 1.387 . S
C403 H390 0.930 . S
C403 C398 1.415 . S
C403 C402 1.387 . S
H404 C412 0.930 . S
H405 C415 0.930 . S
H406 C417 0.930 . S
H407 C418 0.970 . S
H408 C418 0.970 . S
H409 C420 0.930 . S
H410 C422 0.930 . S
H411 C424 0.930 . S
C412 H404 0.930 . S
C412 C413 1.382 . S
C412 C414 1.426 . S
C413 C412 1.382 . S
C413 C417 1.389 . S
C414 C412 1.426 . S
C414 C415 1.375 . S
C414 C418 1.532 . S
C415 H405 0.930 . S
C415 C414 1.375 . S
C415 C416 1.416 . S
C416 C415 1.416 . S
C416 C417 1.371 . S
C417 H406 0.930 . S
C417 C413 1.389 . S
C417 C416 1.371 . S
C418 H407 0.970 . S
C418 H408 0.970 . S
C418 C414 1.532 . S
C418 C419 1.499 1_545 S
C419 C418 1.499 1_565 S
C419 C420 1.370 . S
C419 C424 1.415 . S
C420 H409 0.930 . S
C420 C419 1.370 . S
C420 C421 1.407 . S
C421 C420 1.407 . S
C421 C422 1.365 . S
C422 H410 0.930 . S
C422 C421 1.365 . S
C422 C423 1.393 . S
C423 C422 1.393 . S
C423 C424 1.387 . S
C424 H411 0.930 . S
C424 C419 1.415 . S
C424 C423 1.387 . S
H425 C433 0.930 . S
H426 C436 0.930 . S
H427 C438 0.930 . S
H428 C439 0.970 . S
H429 C439 0.970 1_554 S
H430 C441 0.930 . S
H431 C443 0.930 . S
H432 C445 0.930 . S
C433 H425 0.930 . S
C433 C434 1.382 . S
C433 C435 1.426 . S
C434 C433 1.382 . S
C434 C438 1.389 . S
C435 C433 1.426 . S
C435 C436 1.375 1_556 S
C435 C439 1.532 . S
C436 H426 0.930 . S
C436 C435 1.375 1_554 S
C436 C437 1.416 . S
C437 C436 1.416 . S
C437 C438 1.371 1_554 S
C438 H427 0.930 . S
C438 C434 1.389 . S
C438 C437 1.371 1_556 S
C439 H428 0.970 . S
C439 H429 0.970 1_556 S
C439 C435 1.532 . S
C439 C440 1.499 1_556 S
C440 C439 1.499 1_554 S
C440 C441 1.370 1_554 S
C440 C445 1.415 . S
C441 H430 0.930 . S
C441 C440 1.370 1_556 S
C441 C442 1.407 . S
C442 C441 1.407 . S
C442 C443 1.365 1_556 S
C443 H431 0.930 . S
C443 C442 1.365 1_554 S
C443 C444 1.393 . S
C444 C443 1.393 . S
C444 C445 1.387 . S
C445 H432 0.930 . S
C445 C440 1.415 . S
C445 C444 1.387 . S
C446 C447 1.387 . S
C446 H450 0.950 . S
C446 C455 1.390 . S
C447 C446 1.387 . S
C447 C449 1.387 . S
H448 C455 0.950 . S
C449 C447 1.387 . S
C449 C451 1.390 . S
C449 H453 0.950 . S
H450 C446 0.950 . S
C451 C449 1.390 . S
C451 C452 1.387 . S
C451 H454 0.950 . S
C452 C451 1.387 . S
C452 C455 1.387 . S
H453 C449 0.950 . S
H454 C451 0.950 . S
C455 C446 1.390 . S
C455 H448 0.950 . S
C455 C452 1.387 . S
C456 C457 1.387 . S
C456 H460 0.950 . S
C456 C465 1.390 . S
C457 C456 1.387 . S
C457 C459 1.387 . S
H458 C465 0.950 . S
C459 C457 1.387 . S
C459 C461 1.390 . S
C459 H463 0.950 . S
H460 C456 0.950 . S
C461 C459 1.390 . S
C461 C462 1.387 . S
C461 H464 0.950 . S
C462 C461 1.387 . S
C462 C465 1.387 . S
H463 C459 0.950 . S
H464 C461 0.950 . S
C465 C456 1.390 . S
C465 H458 0.950 . S
C465 C462 1.387 . S
C466 C467 1.387 . S
C466 H470 0.950 . S
C466 C475 1.390 . S
C467 C466 1.387 . S
C467 C469 1.387 . S
H468 C475 0.950 . S
C469 C467 1.387 . S
C469 C471 1.390 . S
C469 H473 0.950 . S
H470 C466 0.950 . S
C471 C469 1.390 . S
C471 C472 1.387 . S
C471 H474 0.950 . S
C472 C471 1.387 . S
C472 C475 1.387 . S
H473 C469 0.950 . S
H474 C471 0.950 . S
C475 C466 1.390 . S
C475 H468 0.950 . S
C475 C472 1.387 . S
C476 C477 1.387 . S
C476 H480 0.950 . S
C476 C485 1.390 . S
C477 C476 1.387 . S
C477 C479 1.387 . S
H478 C485 0.950 . S
C479 C477 1.387 . S
C479 C481 1.390 . S
C479 H483 0.950 . S
H480 C476 0.950 . S
C481 C479 1.390 . S
C481 C482 1.387 . S
C481 H484 0.950 . S
C482 C481 1.387 . S
C482 C485 1.387 . S
H483 C479 0.950 . S
H484 C481 0.950 . S
C485 C476 1.390 . S
C485 H478 0.950 . S
C485 C482 1.387 . S
C486 C487 1.387 . S
C486 H490 0.950 . S
C486 C495 1.390 . S
C487 C486 1.387 . S
C487 C489 1.387 . S
H488 C495 0.950 . S
C489 C487 1.387 . S
C489 C491 1.390 . S
C489 H493 0.950 . S
H490 C486 0.950 . S
C491 C489 1.390 . S
C491 C492 1.387 . S
C491 H494 0.950 . S
C492 C491 1.387 . S
C492 C495 1.387 . S
H493 C489 0.950 . S
H494 C491 0.950 . S
C495 C486 1.390 . S
C495 H488 0.950 . S
C495 C492 1.387 . S
C496 C497 1.387 . S
C496 H500 0.950 . S
C496 C505 1.390 . S
C497 C496 1.387 . S
C497 C499 1.387 . S
H498 C505 0.950 . S
C499 C497 1.387 . S
C499 C501 1.390 . S
C499 H503 0.950 . S
H500 C496 0.950 . S
C501 C499 1.390 . S
C501 C502 1.387 . S
C501 H504 0.950 . S
C502 C501 1.387 . S
C502 C505 1.387 . S
H503 C499 0.950 . S
H504 C501 0.950 . S
C505 C496 1.390 . S
C505 H498 0.950 . S
C505 C502 1.387 . S
C506 C507 1.387 . S
C506 H510 0.950 . S
C506 C515 1.390 . S
C507 C506 1.387 . S
C507 C509 1.387 . S
H508 C515 0.950 . S
C509 C507 1.387 . S
C509 C511 1.390 . S
C509 H513 0.950 . S
H510 C506 0.950 . S
C511 C509 1.390 . S
C511 C512 1.387 . S
C511 H514 0.950 . S
C512 C511 1.387 . S
C512 C515 1.387 . S
H513 C509 0.950 . S
H514 C511 0.950 . S
C515 C506 1.390 . S
C515 H508 0.950 . S
C515 C512 1.387 . S
C516 C517 1.387 . S
C516 H520 0.950 . S
C516 C525 1.390 . S
C517 C516 1.387 . S
C517 C519 1.387 . S
H518 C525 0.950 . S
C519 C517 1.387 . S
C519 C521 1.390 . S
C519 H523 0.950 . S
H520 C516 0.950 . S
C521 C519 1.390 . S
C521 C522 1.387 . S
C521 H524 0.950 . S
C522 C521 1.387 . S
C522 C525 1.387 . S
H523 C519 0.950 . S
H524 C521 0.950 . S
C525 C516 1.390 . S
C525 H518 0.950 . S
C525 C522 1.387 . S
C526 C527 1.387 . S
C526 H530 0.950 . S
C526 C535 1.390 . S
C527 C526 1.387 . S
C527 C529 1.387 . S
H528 C535 0.950 . S
C529 C527 1.387 . S
C529 C531 1.390 . S
C529 H533 0.950 . S
H530 C526 0.950 . S
C531 C529 1.390 . S
C531 C532 1.387 . S
C531 H534 0.950 . S
C532 C531 1.387 . S
C532 C535 1.387 . S
H533 C529 0.950 . S
H534 C531 0.950 . S
C535 C526 1.390 . S
C535 H528 0.950 . S
C535 C532 1.387 . S
C536 C537 1.387 . S
C536 H540 0.950 . S
C536 C545 1.390 . S
C537 C536 1.387 . S
C537 C539 1.387 . S
H538 C545 0.950 . S
C539 C537 1.387 . S
C539 C541 1.390 . S
C539 H543 0.950 . S
H540 C536 0.950 . S
C541 C539 1.390 . S
C541 C542 1.387 . S
C541 H544 0.950 . S
C542 C541 1.387 . S
C542 C545 1.387 . S
H543 C539 0.950 . S
H544 C541 0.950 . S
C545 C536 1.390 . S
C545 H538 0.950 . S
C545 C542 1.387 . S
C546 C547 1.387 . S
C546 H550 0.950 . S
C546 C555 1.390 . S
C547 C546 1.387 . S
C547 C549 1.387 . S
H548 C555 0.950 . S
C549 C547 1.387 . S
C549 C551 1.390 . S
C549 H553 0.950 . S
H550 C546 0.950 . S
C551 C549 1.390 . S
C551 C552 1.387 . S
C551 H554 0.950 . S
C552 C551 1.387 . S
C552 C555 1.387 . S
H553 C549 0.950 . S
H554 C551 0.950 . S
C555 C546 1.390 . S
C555 H548 0.950 . S
C555 C552 1.387 . S
C556 C557 1.387 . S
C556 H560 0.950 . S
C556 C565 1.390 . S
C557 C556 1.387 . S
C557 C559 1.387 . S
H558 C565 0.950 . S
C559 C557 1.387 . S
C559 C561 1.390 . S
C559 H563 0.950 . S
H560 C556 0.950 . S
C561 C559 1.390 . S
C561 C562 1.387 . S
C561 H564 0.950 . S
C562 C561 1.387 . S
C562 C565 1.387 . S
H563 C559 0.950 . S
H564 C561 0.950 . S
C565 C556 1.390 . S
C565 H558 0.950 . S
C565 C562 1.387 . S
C566 C567 1.387 . S
C566 H570 0.950 . S
C566 C575 1.390 . S
C567 C566 1.387 . S
C567 C569 1.387 . S
H568 C575 0.950 . S
C569 C567 1.387 . S
C569 C571 1.390 . S
C569 H573 0.950 . S
H570 C566 0.950 . S
C571 C569 1.390 . S
C571 C572 1.387 . S
C571 H574 0.950 . S
C572 C571 1.387 . S
C572 C575 1.387 . S
H573 C569 0.950 . S
H574 C571 0.950 . S
C575 C566 1.390 . S
C575 H568 0.950 . S
C575 C572 1.387 . S
C576 C577 1.387 . S
C576 H580 0.950 . S
C576 C585 1.390 . S
C577 C576 1.387 . S
C577 C579 1.387 . S
H578 C585 0.950 . S
C579 C577 1.387 . S
C579 C581 1.390 . S
C579 H583 0.950 . S
H580 C576 0.950 . S
C581 C579 1.390 . S
C581 C582 1.387 . S
C581 H584 0.950 . S
C582 C581 1.387 . S
C582 C585 1.387 . S
H583 C579 0.950 . S
H584 C581 0.950 . S
C585 C576 1.390 . S
C585 H578 0.950 . S
C585 C582 1.387 . S
C586 C587 1.387 . S
C586 H590 0.950 . S
C586 C595 1.390 . S
C587 C586 1.387 . S
C587 C589 1.387 . S
H588 C595 0.950 . S
C589 C587 1.387 . S
C589 C591 1.390 . S
C589 H593 0.950 . S
H590 C586 0.950 . S
C591 C589 1.390 . S
C591 C592 1.387 . S
C591 H594 0.950 . S
C592 C591 1.387 . S
C592 C595 1.387 . S
H593 C589 0.950 . S
H594 C591 0.950 . S
C595 C586 1.390 . S
C595 H588 0.950 . S
C595 C592 1.387 . S
C596 C597 1.387 . S
C596 H600 0.950 . S
C596 C605 1.390 . S
C597 C596 1.387 . S
C597 C599 1.387 . S
H598 C605 0.950 . S
C599 C597 1.387 . S
C599 C601 1.390 . S
C599 H603 0.950 . S
H600 C596 0.950 . S
C601 C599 1.390 . S
C601 C602 1.387 . S
C601 H604 0.950 . S
C602 C601 1.387 . S
C602 C605 1.387 . S
H603 C599 0.950 . S
H604 C601 0.950 . S
C605 C596 1.390 . S
C605 H598 0.950 . S
C605 C602 1.387 . S
C606 C607 1.387 . S
C606 H610 0.950 . S
C606 C615 1.390 . S
C607 C606 1.387 . S
C607 C609 1.387 . S
H608 C615 0.950 . S
C609 C607 1.387 . S
C609 C611 1.390 . S
C609 H613 0.950 . S
H610 C606 0.950 . S
C611 C609 1.390 . S
C611 C612 1.387 . S
C611 H614 0.950 . S
C612 C611 1.387 . S
C612 C615 1.387 . S
H613 C609 0.950 . S
H614 C611 0.950 . S
C615 C606 1.390 . S
C615 H608 0.950 . S
C615 C612 1.387 . S
C616 C617 1.387 . S
C616 H620 0.950 . S
C616 C625 1.390 . S
C617 C616 1.387 . S
C617 C619 1.387 . S
H618 C625 0.950 . S
C619 C617 1.387 . S
C619 C621 1.390 . S
C619 H623 0.950 . S
H620 C616 0.950 . S
C621 C619 1.390 . S
C621 C622 1.387 . S
C621 H624 0.950 . S
C622 C621 1.387 . S
C622 C625 1.387 . S
H623 C619 0.950 . S
H624 C621 0.950 . S
C625 C616 1.390 . S
C625 H618 0.950 . S
C625 C622 1.387 . S
C626 C627 1.387 . S
C626 H630 0.950 . S
C626 C635 1.390 . S
C627 C626 1.387 . S
C627 C629 1.387 . S
H628 C635 0.950 . S
C629 C627 1.387 . S
C629 C631 1.390 . S
C629 H633 0.950 . S
H630 C626 0.950 . S
C631 C629 1.390 . S
C631 C632 1.387 . S
C631 H634 0.950 . S
C632 C631 1.387 . S
C632 C635 1.387 . S
H633 C629 0.950 . S
H634 C631 0.950 . S
C635 C626 1.390 . S
C635 H628 0.950 . S
C635 C632 1.387 . S
C636 C637 1.387 . S
C636 H640 0.950 . S
C636 C645 1.390 . S
C637 C636 1.387 . S
C637 C639 1.387 . S
H638 C645 0.950 . S
C639 C637 1.387 . S
C639 C641 1.390 . S
C639 H643 0.950 . S
H640 C636 0.950 . S
C641 C639 1.390 . S
C641 C642 1.387 . S
C641 H644 0.950 . S
C642 C641 1.387 . S
C642 C645 1.387 . S
H643 C639 0.950 . S
H644 C641 0.950 . S
C645 C636 1.390 . S
C645 H638 0.950 . S
C645 C642 1.387 . S
C646 C647 1.387 . S
C646 H650 0.950 . S
C646 C655 1.390 . S
C647 C646 1.387 . S
C647 C649 1.387 . S
H648 C655 0.950 . S
C649 C647 1.387 . S
C649 C651 1.390 . S
C649 H653 0.950 . S
H650 C646 0.950 . S
C651 C649 1.390 . S
C651 C652 1.387 . S
C651 H654 0.950 . S
C652 C651 1.387 . S
C652 C655 1.387 . S
H653 C649 0.950 . S
H654 C651 0.950 . S
C655 C646 1.390 . S
C655 H648 0.950 . S
C655 C652 1.387 . S
C656 C657 1.387 . S
C656 H660 0.950 . S
C656 C665 1.390 . S
C657 C656 1.387 . S
C657 C659 1.387 . S
H658 C665 0.950 . S
C659 C657 1.387 . S
C659 C661 1.390 . S
C659 H663 0.950 . S
H660 C656 0.950 . S
C661 C659 1.390 . S
C661 C662 1.387 . S
C661 H664 0.950 . S
C662 C661 1.387 . S
C662 C665 1.387 . S
H663 C659 0.950 . S
H664 C661 0.950 . S
C665 C656 1.390 . S
C665 H658 0.950 . S
C665 C662 1.387 . S
C666 C667 1.387 . S
C666 H670 0.950 . S
C666 C675 1.390 . S
C667 C666 1.387 . S
C667 C669 1.387 . S
H668 C675 0.950 . S
C669 C667 1.387 . S
C669 C671 1.390 . S
C669 H673 0.950 . S
H670 C666 0.950 . S
C671 C669 1.390 . S
C671 C672 1.387 . S
C671 H674 0.950 . S
C672 C671 1.387 . S
C672 C675 1.387 . S
H673 C669 0.950 . S
H674 C671 0.950 . S
C675 C666 1.390 . S
C675 H668 0.950 . S
C675 C672 1.387 . S
C676 C677 1.387 . S
C676 H680 0.950 . S
C676 C685 1.390 . S
C677 C676 1.387 . S
C677 C679 1.387 . S
H678 C685 0.950 . S
C679 C677 1.387 . S
C679 C681 1.390 . S
C679 H683 0.950 . S
H680 C676 0.950 . S
C681 C679 1.390 . S
C681 C682 1.387 . S
C681 H684 0.950 . S
C682 C681 1.387 . S
C682 C685 1.387 . S
H683 C679 0.950 . S
H684 C681 0.950 . S
C685 C676 1.390 . S
C685 H678 0.950 . S
C685 C682 1.387 . S
C452 C337 1.568 . S
C447 C15 1.656 . S
C462 C350 1.438 . S
C457 C55 1.613 . S
C472 C332 1.608 . S
C467 C101 1.643 . S
C482 C360 1.482 . S
C477 C141 1.651 . S
C492 C371 1.428 . S
C487 C2 1.514 . S
C502 C392 1.507 . S
C497 C61 1.584 . S
C507 C95 1.575 . S
C512 C421 1.461 . S
C522 C442 1.552 . S
C517 C135 1.611 . S
C532 C381 1.438 . S
C527 C42 1.511 . S
C537 C82 1.612 . S
C542 C402 1.553 . S
C552 C416 1.450 . S
C547 C122 1.573 . S
C562 C437 1.578 . S
C557 C21 1.615 . S
C567 C162 1.682 . S
C572 C358 1.463 . S
C582 C329 1.649 . S
C577 C221 1.749 . S
C587 C255 1.667 . S
C592 C353 1.432 . S
C597 C282 1.651 . S
C602 C339 1.624 . S
C612 C423 1.500 . S
C607 C181 1.600 . S
C622 C444 1.622 . S
C617 C202 1.665 . S
C632 C374 1.400 . S
C627 C242 1.563 . S
C637 C301 1.645 . S
C642 C395 1.506 . S
C652 C413 1.497 . S
C647 C215 1.596 . S
C662 C434 1.605 . S
C657 C261 1.652 . S
C672 C379 1.408 . S
C667 C295 1.544 . S
C677 C175 1.634 . S
C682 C400 1.501 . S
