# Generated by pormake.
# Topology anh, (6,3)-cn, num edge types: 1
# Building blocks:
#     Node 0, Type 0, BuildingBlock: VOLQOD_clean_sbu_1, # of connection points: 6
#     Node 1, Type 0, BuildingBlock: VOLQOD_clean_sbu_1, # of connection points: 6
#     Node 2, Type 0, BuildingBlock: VOLQOD_clean_sbu_1, # of connection points: 6
#     Node 3, Type 1, BuildingBlock: BETDAH_clean_linker_0, # of connection points: 3
#     Node 4, Type 1, BuildingBlock: BETDAH_clean_linker_0, # of connection points: 3
#     Node 5, Type 1, BuildingBlock: BETDAH_clean_linker_0, # of connection points: 3
#     Node 6, Type 1, BuildingBlock: BETDAH_clean_linker_0, # of connection points: 3
#     Node 7, Type 1, BuildingBlock: BETDAH_clean_linker_0, # of connection points: 3
#     Node 8, Type 1, BuildingBlock: BETDAH_clean_linker_0, # of connection points: 3
#     Edge 9, Type (0, 1), BuildingBlock: UVAHIK_clean_linker_0, # of connection points: 2
#     Edge 10, Type (0, 1), BuildingBlock: UVAHIK_clean_linker_0, # of connection points: 2
#     Edge 11, Type (0, 1), BuildingBlock: UVAHIK_clean_linker_0, # of connection points: 2
#     Edge 12, Type (0, 1), BuildingBlock: UVAHIK_clean_linker_0, # of connection points: 2
#     Edge 13, Type (0, 1), BuildingBlock: UVAHIK_clean_linker_0, # of connection points: 2
#     Edge 14, Type (0, 1), BuildingBlock: UVAHIK_clean_linker_0, # of connection points: 2
#     Edge 15, Type (0, 1), BuildingBlock: UVAHIK_clean_linker_0, # of connection points: 2
#     Edge 16, Type (0, 1), BuildingBlock: UVAHIK_clean_linker_0, # of connection points: 2
#     Edge 17, Type (0, 1), BuildingBlock: UVAHIK_clean_linker_0, # of connection points: 2
#     Edge 18, Type (0, 1), BuildingBlock: UVAHIK_clean_linker_0, # of connection points: 2
#     Edge 19, Type (0, 1), BuildingBlock: UVAHIK_clean_linker_0, # of connection points: 2
#     Edge 20, Type (0, 1), BuildingBlock: UVAHIK_clean_linker_0, # of connection points: 2
#     Edge 21, Type (0, 1), BuildingBlock: UVAHIK_clean_linker_0, # of connection points: 2
#     Edge 22, Type (0, 1), BuildingBlock: UVAHIK_clean_linker_0, # of connection points: 2
#     Edge 23, Type (0, 1), BuildingBlock: UVAHIK_clean_linker_0, # of connection points: 2
#     Edge 24, Type (0, 1), BuildingBlock: UVAHIK_clean_linker_0, # of connection points: 2
#     Edge 25, Type (0, 1), BuildingBlock: UVAHIK_clean_linker_0, # of connection points: 2
#     Edge 26, Type (0, 1), BuildingBlock: UVAHIK_clean_linker_0, # of connection points: 2
# Relax obj value: 0.156
# Max RMSD: 0.216
# Mean RMSD: 0.138
data_MOF--net-anh--node1-VOLQOD_clean_sbu_1--node2-BETDAH_clean_linker_0--edge1-UVAHIK_clean_linker_0
_symmetry_space_group_name_H-M    P1
_symmetry_Int_Tables_number       1
_symmetry_cell_setting            triclinic
loop_
_symmetry_equiv_pos_as_xyz
'x, y, z'
_cell_length_a     37.558311
_cell_length_b     37.502274
_cell_length_c     72.757472
_cell_angle_alpha  92.526428
_cell_angle_beta   92.414125
_cell_angle_gamma 120.15396
loop_
_atom_site_label
_atom_site_type_symbol
_atom_site_fract_x
_atom_site_fract_y
_atom_site_fract_z
_atom_type_partial_charge
O0 O 0.03344 0.59855 0.19823 0.0
Zn1 Zn 0.03394 0.61032 0.1713 0.0
O2 O 0.0341 0.56686 0.15545 0.0
Zn3 Zn 0.98278 0.53657 0.13989 0.0
Zn4 Zn 0.04015 0.5288 0.17084 0.0
Zn5 Zn 0.0795 0.59117 0.13951 0.0
O6 O 0.99349 0.53194 0.11321 0.0
O7 O 0.05968 0.57958 0.11258 0.0
O8 O 0.98424 0.61538 0.16446 0.0
O9 O 0.95129 0.56659 0.14152 0.0
O10 O 0.9466 0.479 0.14795 0.0
O11 O 0.98892 0.47303 0.16811 0.0
O12 O 0.08775 0.52173 0.16422 0.0
O13 O 0.08469 0.66557 0.16835 0.0
O14 O 0.11514 0.56579 0.14259 0.0
O15 O 0.11512 0.65227 0.14567 0.0
C16 C 0.04056 0.57335 0.20659 0.0
C17 C 0.02518 0.55286 0.10432 0.0
C18 C 0.95402 0.45786 0.15909 0.0
C19 C 0.95476 0.59648 0.15199 0.0
C20 C 0.11477 0.53863 0.1526 0.0
C21 C 0.11375 0.6775 0.15751 0.0
O22 O 0.04644 0.54695 0.19772 0.0
O23 O 0.51081 0.05322 0.45904 0.0
Zn24 Zn 0.49823 0.05314 0.48576 0.0
O25 O 0.5376 0.04677 0.50174 0.0
Zn26 Zn 0.57019 0.09654 0.51787 0.0
Zn27 Zn 0.57415 0.03754 0.48655 0.0
Zn28 Zn 0.50856 0.00062 0.51703 0.0
O29 O 0.57153 0.08398 0.54433 0.0
O30 O 0.52136 0.01852 0.54422 0.0
O31 O 0.497 0.10514 0.49339 0.0
O32 O 0.54446 0.13175 0.51704 0.0
O33 O 0.62815 0.12987 0.51009 0.0
O34 O 0.63163 0.08685 0.4893 0.0
O35 O 0.57615 0.98686 0.49314 0.0
O36 O 0.44105 0.00488 0.48753 0.0
O37 O 0.5277 0.95992 0.51303 0.0
O38 O 0.44718 0.97097 0.51063 0.0
C39 C 0.53305 0.04185 0.45071 0.0
C40 C 0.54886 0.0522 0.55286 0.0
C41 C 0.64827 0.12157 0.49869 0.0
C42 C 0.51666 0.1324 0.50671 0.0
C43 C 0.55503 0.95862 0.50372 0.0
C44 C 0.42517 0.97556 0.4982 0.0
O45 O 0.55645 0.03205 0.45961 0.0
O46 O 0.52081 0.55249 0.79708 0.0
Zn47 Zn 0.50856 0.53477 0.82295 0.0
O48 O 0.55151 0.57482 0.84115 0.0
Zn49 Zn 0.5305 0.60346 0.8564 0.0
Zn50 Zn 0.5981 0.61424 0.82819 0.0
Zn51 Zn 0.56917 0.54601 0.85726 0.0
O52 O 0.53724 0.59746 0.88379 0.0
O53 O 0.55449 0.54887 0.8831 0.0
O54 O 0.45328 0.52727 0.82856 0.0
O55 O 0.46919 0.57691 0.85065 0.0
O56 O 0.55828 0.66401 0.85154 0.0
O57 O 0.60742 0.67133 0.83345 0.0
O58 O 0.65046 0.61419 0.83564 0.0
O59 O 0.50496 0.47926 0.82324 0.0
O60 O 0.63042 0.57034 0.85767 0.0
O61 O 0.54407 0.48644 0.84845 0.0
C62 C 0.55401 0.57859 0.7903 0.0
C63 C 0.5442 0.57191 0.89193 0.0
C64 C 0.58902 0.6865 0.84235 0.0
C65 C 0.4426 0.54663 0.8398 0.0
C66 C 0.65845 0.59581 0.84806 0.0
C67 C 0.52011 0.46451 0.83454 0.0
O68 O 0.58651 0.60246 0.80064 0.0
H69 H 0.47088 -0.00048 0.24785 0.0
H70 H 0.60067 0.04061 0.25273 0.0
H71 H 0.53465 0.00277 0.1995 0.0
C72 C 0.49902 0.00673 0.24146 0.0
C73 C 0.49793 -0.00041 0.22224 0.0
C74 C 0.53588 0.02171 0.25263 0.0
C75 C 0.57215 0.03009 0.24434 0.0
C76 C 0.57139 0.02309 0.22524 0.0
C77 C 0.53457 0.0081 0.21425 0.0
N78 N 0.60704 0.02832 0.21715 0.0
C79 C 0.63658 0.06672 0.21208 0.0
H80 H 0.54815 0.49968 0.59472 0.0
H81 H 0.63619 0.62894 0.59117 0.0
H82 H 0.61711 0.54082 0.54671 0.0
C83 C 0.57054 0.52454 0.58717 0.0
C84 C 0.57919 0.51536 0.56956 0.0
C85 C 0.59126 0.56534 0.59527 0.0
C86 C 0.6202 0.59724 0.58527 0.0
C87 C 0.62933 0.58819 0.56776 0.0
C88 C 0.60926 0.54741 0.56012 0.0
N89 N 0.6589 0.61975 0.55766 0.0
C90 C 0.65643 0.65461 0.55448 0.0
H91 H 0.97014 0.51926 0.90892 0.0
H92 H 0.0058 0.42723 0.9025 0.0
H93 H 0.94957 0.45263 0.85613 0.0
C94 C 0.97331 0.49704 0.90014 0.0
C95 C 0.95844 0.48939 0.88151 0.0
C96 C 0.98994 0.47446 0.90787 0.0
C97 C 0.99284 0.44472 0.89667 0.0
C98 C 0.97838 0.43708 0.87797 0.0
C99 C 0.96059 0.45881 0.87058 0.0
N100 N 0.98196 0.40798 0.86634 0.0
C101 C 0.01929 0.40898 0.86584 0.0
H102 H 0.06914 0.62127 0.40495 0.0
H103 H 0.02596 0.49097 0.40555 0.0
H104 H 0.09527 0.57257 0.45288 0.0
C105 C 0.06588 0.59523 0.41213 0.0
C106 C 0.08353 0.60192 0.4303 0.0
C107 C 0.04581 0.55552 0.40286 0.0
C108 C 0.0415 0.52186 0.41238 0.0
C109 C 0.05906 0.52826 0.43047 0.0
C110 C 0.08052 0.56811 0.43918 0.0
N111 N 0.05778 0.49536 0.43976 0.0
C112 C 0.02078 0.45998 0.44239 0.0
H113 H 0.58044 0.14674 0.7488 0.0
H114 H 0.66205 0.09828 0.75522 0.0
H115 H 0.65033 0.1677 0.80065 0.0
C116 C 0.60244 0.14295 0.75738 0.0
C117 C 0.61244 0.15956 0.77578 0.0
C118 C 0.62077 0.12163 0.74973 0.0
C119 C 0.6476 0.11461 0.76096 0.0
C120 C 0.65793 0.13118 0.77938 0.0
C121 C 0.64101 0.15413 0.78659 0.0
N122 N 0.68676 0.12664 0.79065 0.0
C123 C 0.6801 0.08784 0.79421 0.0
H124 H 0.5832 0.5579 0.08748 0.0
H125 H 0.45626 0.46123 0.08682 0.0
H126 H 0.53833 0.48641 0.13466 0.0
C127 C 0.55804 0.53451 0.09455 0.0
C128 C 0.56572 0.52579 0.11239 0.0
C129 C 0.51877 0.51125 0.08517 0.0
C130 C 0.48661 0.47956 0.09398 0.0
C131 C 0.49391 0.47074 0.11184 0.0
C132 C 0.53332 0.49354 0.12086 0.0
N133 N 0.46211 0.43872 0.12095 0.0
C134 C 0.42297 0.43374 0.12062 0.0
C135 C 0.17282 0.54094 0.13604 0.0
C136 C 0.14489 0.52481 0.14982 0.0
C137 C 0.19946 0.5261 0.13252 0.0
C138 C 0.24887 0.47284 0.15307 0.0
H139 H 0.26507 0.45276 0.10217 0.0
C140 C 0.35769 0.41249 0.13476 0.0
C141 C 0.38506 0.43405 0.1215 0.0
C142 C 0.32379 0.41753 0.13736 0.0
C143 C 0.26098 0.45836 0.11645 0.0
H144 H 0.12364 0.48095 0.17096 0.0
H145 H 0.17039 0.45515 0.16478 0.0
H146 H 0.21555 0.47463 0.10896 0.0
H147 H 0.39906 0.47685 0.10029 0.0
H148 H 0.33998 0.48604 0.10481 0.0
H149 H 0.29497 0.45755 0.16058 0.0
C150 C 0.17161 0.47934 0.15676 0.0
C151 C 0.2327 0.47094 0.12033 0.0
C152 C 0.14481 0.49409 0.16026 0.0
C153 C 0.37777 0.45961 0.11044 0.0
C154 C 0.34394 0.46471 0.11301 0.0
C155 C 0.27724 0.46035 0.14919 0.0
C156 C 0.19887 0.49491 0.14271 0.0
C157 C 0.22685 0.47893 0.13867 0.0
C158 C 0.31706 0.44438 0.12676 0.0
C159 C 0.28404 0.45359 0.13083 0.0
H160 H 0.17384 0.5647 0.12777 0.0
H161 H 0.22068 0.53922 0.12183 0.0
H162 H 0.24526 0.47913 0.16733 0.0
H163 H 0.36324 0.39282 0.14348 0.0
H164 H 0.30335 0.40111 0.1479 0.0
C165 C 0.70774 0.19439 0.50337 0.0
C166 C 0.69052 0.15405 0.49505 0.0
C167 C 0.74555 0.22612 0.49834 0.0
C168 C 0.81211 0.25461 0.45952 0.0
H169 H 0.89221 0.34178 0.49473 0.0
C170 C 0.97055 0.38515 0.43956 0.0
C171 C 0.98328 0.42492 0.44732 0.0
C172 C 0.93546 0.35099 0.4454 0.0
C173 C 0.86995 0.31783 0.48471 0.0
H174 H 0.70061 0.11511 0.47551 0.0
H175 H 0.7668 0.17035 0.46696 0.0
H176 H 0.83099 0.28352 0.50562 0.0
H177 H 0.97021 0.46117 0.46689 0.0
H178 H 0.90855 0.40163 0.47702 0.0
H179 H 0.85098 0.28908 0.4386 0.0
C180 C 0.75063 0.17758 0.47711 0.0
C181 C 0.83492 0.28445 0.49096 0.0
C182 C 0.71281 0.14586 0.48212 0.0
C183 C 0.96061 0.43051 0.46076 0.0
C184 C 0.92564 0.39647 0.46664 0.0
C185 C 0.84719 0.28796 0.45328 0.0
C186 C 0.76705 0.21823 0.48489 0.0
C187 C 0.80542 0.25262 0.47842 0.0
C188 C 0.91288 0.35628 0.45914 0.0
C189 C 0.8763 0.32012 0.46579 0.0
H190 H 0.69142 0.20184 0.51336 0.0
H191 H 0.75716 0.25716 0.50448 0.0
H192 H 0.78966 0.23094 0.44946 0.0
H193 H 0.98805 0.38044 0.42923 0.0
H194 H 0.92658 0.3204 0.43947 0.0
C195 C 0.57855 0.7471 0.84777 0.0
C196 C 0.60198 0.73056 0.84077 0.0
C197 C 0.58849 0.78741 0.84448 0.0
C198 C 0.67139 0.88673 0.82961 0.0
H199 H 0.58031 0.90083 0.81256 0.0
C200 C 0.69637 0.0319 0.79452 0.0
C201 C 0.67132 0.04794 0.79951 0.0
C202 C 0.6884 0.99372 0.80038 0.0
C203 C 0.60606 0.89757 0.81752 0.0
H204 H 0.65536 0.74414 0.82554 0.0
H205 H 0.6724 0.8141 0.81976 0.0
H206 H 0.56639 0.83411 0.82249 0.0
H207 H 0.61873 0.03791 0.81433 0.0
H208 H 0.60476 0.97123 0.82475 0.0
H209 H 0.71109 0.95015 0.82447 0.0
C210 C 0.6465 0.79606 0.82786 0.0
C211 C 0.59806 0.85936 0.82325 0.0
C212 C 0.63653 0.7558 0.83109 0.0
C213 C 0.63818 0.02565 0.81029 0.0
C214 C 0.63017 0.98754 0.81616 0.0
C215 C 0.67939 0.92499 0.82389 0.0
C216 C 0.62215 0.81205 0.83421 0.0
C217 C 0.63065 0.85343 0.82925 0.0
C218 C 0.65526 0.97117 0.81132 0.0
C219 C 0.64682 0.93075 0.81767 0.0
H220 H 0.55182 0.72857 0.85533 0.0
H221 H 0.56949 0.79912 0.84977 0.0
H222 H 0.69712 0.88325 0.83437 0.0
H223 H 0.72214 0.04893 0.78619 0.0
H224 H 0.70795 0.9817 0.79622 0.0
C225 C 0.89745 0.59652 0.13347 0.0
C226 C 0.92292 0.60835 0.14989 0.0
C227 C 0.86481 0.60412 0.13193 0.0
C228 C 0.79086 0.60863 0.16012 0.0
H229 H 0.75407 0.63297 0.11421 0.0
C230 C 0.62339 0.5271 0.13158 0.0
C231 C 0.60814 0.54844 0.12158 0.0
C232 C 0.6644 0.54715 0.13871 0.0
C233 C 0.76418 0.62704 0.1273 0.0
H234 H 0.93537 0.63908 0.17733 0.0
H235 H 0.87734 0.65156 0.17474 0.0
H236 H 0.82519 0.64817 0.11894 0.0
H237 H 0.62355 0.60837 0.11219 0.0
H238 H 0.69585 0.64308 0.1242 0.0
H239 H 0.72915 0.58522 0.16802 0.0
C240 C 0.88302 0.63665 0.16305 0.0
C241 C 0.80477 0.63546 0.12994 0.0
C242 C 0.91616 0.62954 0.16451 0.0
C243 C 0.63453 0.59082 0.11952 0.0
C244 C 0.67579 0.6108 0.12649 0.0
C245 C 0.75019 0.59997 0.15743 0.0
C246 C 0.85665 0.62335 0.14685 0.0
C247 C 0.81789 0.62459 0.14602 0.0
C248 C 0.69125 0.5889 0.13586 0.0
C249 C 0.73602 0.60739 0.14066 0.0
H250 H 0.9021 0.58045 0.12191 0.0
H251 H 0.84466 0.593 0.11936 0.0
H252 H 0.80012 0.59982 0.17262 0.0
H253 H 0.60428 0.49433 0.13318 0.0
H254 H 0.67564 0.52925 0.14555 0.0
C255 C 0.36013 0.91699 0.50861 0.0
C256 C 0.38088 0.94415 0.49506 0.0
C257 C 0.31974 0.88417 0.50472 0.0
C258 C 0.23071 0.83819 0.46865 0.0
H259 H 0.21392 0.73502 0.48614 0.0
C260 C 0.13295 0.67822 0.42956 0.0
C261 C 0.10748 0.64436 0.43959 0.0
C262 C 0.15828 0.71736 0.43855 0.0
C263 C 0.21777 0.76367 0.48142 0.0
H264 H 0.37496 0.95939 0.4671 0.0
H265 H 0.30563 0.90147 0.46005 0.0
H266 H 0.27372 0.7998 0.49833 0.0
H267 H 0.08709 0.62589 0.46686 0.0
H268 H 0.1329 0.69409 0.48261 0.0
H269 H 0.17607 0.80107 0.45067 0.0
C270 C 0.31974 0.90586 0.47387 0.0
C271 C 0.25201 0.80096 0.48846 0.0
C272 C 0.35978 0.93904 0.47787 0.0
C273 C 0.10695 0.65102 0.45875 0.0
C274 C 0.13285 0.69007 0.46777 0.0
C275 C 0.19685 0.80075 0.46137 0.0
C276 C 0.29952 0.87735 0.48709 0.0
C277 C 0.25959 0.83867 0.4818 0.0
C278 C 0.15917 0.72338 0.45777 0.0
C279 C 0.1907 0.76317 0.4674 0.0
H280 H 0.37542 0.92052 0.52208 0.0
H281 H 0.30483 0.8635 0.51541 0.0
H282 H 0.23493 0.86662 0.46352 0.0
H283 H 0.13484 0.67428 0.41487 0.0
H284 H 0.1788 0.74247 0.43057 0.0
C285 C 0.50479 0.40494 0.81237 0.0
C286 C 0.51336 0.42254 0.83058 0.0
C287 C 0.50562 0.36866 0.8082 0.0
C288 C 0.55348 0.31157 0.82718 0.0
H289 H 0.49485 0.23662 0.78401 0.0
C290 C 0.5836 0.18103 0.80191 0.0
C291 C 0.59393 0.18349 0.78344 0.0
C292 C 0.56684 0.20413 0.80908 0.0
C293 C 0.51121 0.25722 0.79617 0.0
H294 H 0.52586 0.4142 0.85895 0.0
H295 H 0.52549 0.34995 0.85182 0.0
H296 H 0.4748 0.28631 0.79459 0.0
H297 H 0.59498 0.21272 0.75817 0.0
H298 H 0.5645 0.25169 0.77055 0.0
H299 H 0.5899 0.28235 0.82863 0.0
C300 C 0.51981 0.36493 0.84061 0.0
C301 C 0.49995 0.28582 0.80218 0.0
C302 C 0.51973 0.4016 0.84473 0.0
C303 C 0.58655 0.20918 0.7723 0.0
C304 C 0.56917 0.23164 0.77938 0.0
C305 C 0.56425 0.28252 0.82133 0.0
C306 C 0.51434 0.34884 0.82222 0.0
C307 C 0.52176 0.31422 0.81745 0.0
C308 C 0.55944 0.22955 0.79784 0.0
C309 C 0.54398 0.25592 0.80549 0.0
H310 H 0.49995 0.42049 0.80117 0.0
H311 H 0.50173 0.35761 0.79385 0.0
H312 H 0.57154 0.33327 0.83878 0.0
H313 H 0.58823 0.16111 0.81081 0.0
H314 H 0.55949 0.20204 0.82337 0.0
C315 C 0.54018 0.89321 0.51766 0.0
C316 C 0.56391 0.92484 0.50626 0.0
C317 C 0.55037 0.86315 0.5214 0.0
C318 C 0.63838 0.84607 0.52326 0.0
H319 H 0.5536 0.73192 0.52721 0.0
C320 C 0.67422 0.71603 0.53757 0.0
C321 C 0.6496 0.68763 0.54989 0.0
C322 C 0.66487 0.74559 0.5317 0.0
C323 C 0.5776 0.76378 0.52633 0.0
H324 H 0.61627 0.94885 0.48936 0.0
H325 H 0.63384 0.89594 0.4958 0.0
H326 H 0.53418 0.78107 0.51674 0.0
H327 H 0.5967 0.6673 0.5661 0.0
H328 H 0.58043 0.71932 0.55607 0.0
H329 H 0.68176 0.82872 0.53299 0.0
C330 C 0.60765 0.89486 0.50202 0.0
C331 C 0.56649 0.79189 0.52029 0.0
C332 C 0.5974 0.92498 0.49824 0.0
C333 C 0.61608 0.68928 0.55661 0.0
C334 C 0.60663 0.71871 0.55074 0.0
C335 C 0.64951 0.8179 0.52928 0.0
C336 C 0.58452 0.86393 0.51383 0.0
C337 C 0.59669 0.83345 0.5189 0.0
C338 C 0.63059 0.74682 0.53803 0.0
C339 C 0.61916 0.77658 0.53109 0.0
H340 H 0.51417 0.89209 0.52408 0.0
H341 H 0.53222 0.84003 0.53072 0.0
H342 H 0.66231 0.87802 0.52256 0.0
H343 H 0.70001 0.71474 0.53214 0.0
H344 H 0.68367 0.7666 0.52179 0.0
C345 C 0.72793 0.6165 0.83673 0.0
C346 C 0.70035 0.60175 0.85072 0.0
C347 C 0.7653 0.61673 0.8384 0.0
C348 C 0.83724 0.60775 0.8717 0.0
H349 H 0.85216 0.54746 0.83094 0.0
C350 C 0.95578 0.5545 0.87878 0.0
C351 C 0.93897 0.51209 0.87387 0.0
C352 C 0.93493 0.5748 0.87331 0.0
C353 C 0.84861 0.56466 0.84237 0.0
H354 H 0.6914 0.57821 0.87788 0.0
H355 H 0.75638 0.57883 0.8808 0.0
H356 H 0.8005 0.56847 0.82739 0.0
H357 H 0.88799 0.45817 0.85874 0.0
H358 H 0.85165 0.49351 0.84921 0.0
H359 H 0.88354 0.60187 0.88706 0.0
C360 C 0.74929 0.59019 0.86855 0.0
C361 C 0.81937 0.57706 0.84028 0.0
C362 C 0.71186 0.5895 0.86681 0.0
C363 C 0.90197 0.49093 0.86259 0.0
C364 C 0.88118 0.51124 0.8571 0.0
C365 C 0.86656 0.59551 0.87377 0.0
C366 C 0.77593 0.60283 0.85419 0.0
C367 C 0.81238 0.5974 0.85516 0.0
C368 C 0.89692 0.55313 0.86278 0.0
C369 C 0.87152 0.57256 0.85934 0.0
H370 H 0.71988 0.62613 0.82417 0.0
H371 H 0.78541 0.62682 0.82717 0.0
H372 H 0.83274 0.62376 0.88333 0.0
H373 H 0.98467 0.57182 0.88717 0.0
H374 H 0.94806 0.60722 0.87768 0.0
C375 C 0.18456 0.73229 0.15074 0.0
C376 C 0.14817 0.72089 0.15955 0.0
C377 C 0.21897 0.77177 0.1543 0.0
C378 C 0.26495 0.85577 0.19113 0.0
H379 H 0.34946 0.90706 0.15662 0.0
C380 C 0.4489 0.94927 0.19677 0.0
C381 C 0.45792 0.98011 0.21088 0.0
C382 C 0.40961 0.92718 0.18764 0.0
C383 C 0.32595 0.89329 0.16634 0.0
H384 H 0.11838 0.74302 0.17802 0.0
H385 H 0.17821 0.81238 0.18391 0.0
H386 H 0.28089 0.85057 0.14551 0.0
H387 H 0.43336 0.01385 0.22547 0.0
H388 H 0.36418 0.97405 0.20989 0.0
H389 H 0.31036 0.89786 0.212 0.0
C390 C 0.18051 0.79038 0.17462 0.0
C391 C 0.28678 0.86082 0.16003 0.0
C392 C 0.14616 0.75066 0.17119 0.0
C393 C 0.42722 0.98967 0.21497 0.0
C394 C 0.38771 0.96715 0.20598 0.0
C395 C 0.30392 0.88854 0.19738 0.0
C396 C 0.21773 0.80104 0.16662 0.0
C397 C 0.25631 0.84057 0.17248 0.0
C398 C 0.37833 0.93508 0.19253 0.0
C399 C 0.33521 0.90657 0.18517 0.0
H400 H 0.18722 0.71017 0.14168 0.0
H401 H 0.24717 0.7785 0.14808 0.0
H402 H 0.24256 0.84073 0.20118 0.0
H403 H 0.47145 0.94057 0.19341 0.0
H404 H 0.40306 0.9022 0.1775 0.0
C405 C 0.51451 0.18337 0.5289 0.0
C406 C 0.50691 0.16528 0.5108 0.0
C407 C 0.50805 0.21618 0.53298 0.0
C408 C 0.5147 0.30466 0.51301 0.0
H409 H 0.47049 0.31621 0.55869 0.0
C410 C 0.54397 0.46313 0.5425 0.0
C411 C 0.55795 0.47218 0.56128 0.0
C412 C 0.52617 0.42274 0.53448 0.0
C413 C 0.48285 0.31345 0.54586 0.0
H414 H 0.48548 0.16648 0.48283 0.0
H415 H 0.47532 0.22534 0.48995 0.0
H416 H 0.45866 0.24851 0.54751 0.0
H417 H 0.56376 0.44596 0.58642 0.0
H418 H 0.53313 0.37578 0.57248 0.0
H419 H 0.54119 0.36998 0.51192 0.0
C420 C 0.48582 0.2135 0.50094 0.0
C421 C 0.47587 0.27471 0.53943 0.0
C422 C 0.49158 0.17994 0.4969 0.0
C423 C 0.55276 0.43988 0.57198 0.0
C424 C 0.53504 0.39959 0.56398 0.0
C425 C 0.52191 0.34352 0.5195 0.0
C426 C 0.49436 0.23207 0.51902 0.0
C427 C 0.49313 0.27031 0.52335 0.0
C428 C 0.52201 0.39062 0.54509 0.0
C429 C 0.50747 0.34858 0.53639 0.0
H430 H 0.52599 0.17248 0.53994 0.0
H431 H 0.51546 0.23026 0.54698 0.0
H432 H 0.52861 0.30214 0.50064 0.0
H433 H 0.54702 0.48734 0.53398 0.0
H434 H 0.51606 0.41673 0.51994 0.0
C435 C 0.38565 0.55007 0.85493 0.0
C436 C 0.39819 0.53178 0.84132 0.0
C437 C 0.34384 0.53389 0.85751 0.0
C438 C 0.23944 0.46904 0.83501 0.0
H439 H 0.20673 0.45772 0.88526 0.0
C440 C 0.06851 0.39429 0.85086 0.0
C441 C 0.06023 0.4156 0.86472 0.0
C442 C 0.1092 0.40447 0.84845 0.0
C443 C 0.21539 0.46093 0.87116 0.0
H444 H 0.37642 0.48279 0.81937 0.0
H445 H 0.30334 0.45467 0.82389 0.0
H446 H 0.27908 0.48482 0.8796 0.0
H447 H 0.08655 0.46339 0.88712 0.0
H448 H 0.15782 0.48163 0.88293 0.0
H449 H 0.1759 0.44587 0.82656 0.0
C450 C 0.32597 0.48157 0.83253 0.0
C451 C 0.25682 0.47649 0.86792 0.0
C452 C 0.36786 0.49766 0.82998 0.0
C453 C 0.09257 0.44637 0.87647 0.0
C454 C 0.13323 0.45664 0.87408 0.0
C455 C 0.19799 0.45359 0.83825 0.0
C456 C 0.3136 0.49916 0.8465 0.0
C457 C 0.26935 0.48115 0.84982 0.0
C458 C 0.14209 0.43626 0.85985 0.0
C459 C 0.18557 0.44978 0.85637 0.0
H460 H 0.40812 0.57645 0.86388 0.0
H461 H 0.33518 0.54855 0.86817 0.0
H462 H 0.24824 0.47261 0.82092 0.0
H463 H 0.04369 0.37056 0.84161 0.0
H464 H 0.11497 0.38788 0.83752 0.0
C465 C 0.92946 0.392 0.1745 0.0
C466 C 0.92098 0.41571 0.16255 0.0
C467 C 0.89794 0.35368 0.17907 0.0
C468 C 0.79224 0.26925 0.16486 0.0
H469 H 0.79142 0.24659 0.21641 0.0
C470 C 0.6566 0.12692 0.19395 0.0
C471 C 0.66745 0.1061 0.20649 0.0
C472 C 0.68683 0.16487 0.18826 0.0
C473 C 0.79144 0.25225 0.20193 0.0
H474 H 0.8728 0.417 0.14556 0.0
H475 H 0.81758 0.34994 0.15366 0.0
H476 H 0.8456 0.31196 0.2066 0.0
H477 H 0.71734 0.10737 0.223 0.0
H478 H 0.77052 0.17366 0.21301 0.0
H479 H 0.73799 0.20936 0.16024 0.0
C480 C 0.84877 0.36107 0.1594 0.0
C481 C 0.82249 0.2897 0.19631 0.0
C482 C 0.88039 0.39954 0.1548 0.0
C483 C 0.70856 0.12332 0.21336 0.0
C484 C 0.73881 0.16124 0.2077 0.0
C485 C 0.76111 0.2317 0.1705 0.0
C486 C 0.85714 0.33808 0.17182 0.0
C487 C 0.82345 0.2985 0.1777 0.0
C488 C 0.72829 0.18244 0.19508 0.0
C489 C 0.76056 0.2227 0.18909 0.0
H490 H 0.9604 0.40329 0.18061 0.0
H491 H 0.90552 0.33631 0.18838 0.0
H492 H 0.79236 0.27501 0.1504 0.0
H493 H 0.62483 0.11384 0.18856 0.0
H494 H 0.67769 0.18065 0.17869 0.0
C495 C 0.05196 0.57374 0.07328 0.0
C496 C 0.02248 0.54457 0.08409 0.0
C497 C 0.05027 0.56518 0.05427 0.0
C498 C 0.9799 0.49332 0.01505 0.0
H499 H 0.08163 0.53658 0.99041 0.0
C500 C 0.98287 0.44654 0.93888 0.0
C501 C 0.00128 0.4803 0.92794 0.0
C502 C 0.98831 0.45284 0.95811 0.0
C503 C 0.05304 0.52432 0.99716 0.0
H504 H 0.96839 0.48333 0.08348 0.0
H505 H 0.96629 0.46768 0.05054 0.0
H506 H 0.08455 0.55044 0.02371 0.0
H507 H 0.04147 0.54666 0.9283 0.0
H508 H 0.05193 0.55759 0.962 0.0
H509 H 0.94861 0.46646 0.98845 0.0
C510 C 0.99001 0.49778 0.05654 0.0
C511 C 0.0546 0.53251 0.01621 0.0
C512 C 0.99128 0.50666 0.07549 0.0
C513 C 0.02699 0.52018 0.93649 0.0
C514 C 0.03304 0.52639 0.95571 0.0
C515 C 0.97843 0.48456 0.99609 0.0
C516 C 0.01948 0.52691 0.04564 0.0
C517 C 0.01801 0.51743 0.0254 0.0
C518 C 0.01284 0.49291 0.96668 0.0
C519 C 0.01494 0.50023 0.98695 0.0
H520 H 0.07625 0.60336 0.0795 0.0
H521 H 0.07298 0.58878 0.04634 0.0
H522 H 0.95103 0.48185 0.02148 0.0
H523 H 0.96263 0.41556 0.93259 0.0
H524 H 0.9726 0.42654 0.96631 0.0
C525 C 0.50908 0.0538 0.42005 0.0
C526 C 0.53262 0.04092 0.43031 0.0
C527 C 0.50963 0.05383 0.40085 0.0
C528 C 0.49788 0.02734 0.35986 0.0
H529 H 0.60092 0.06129 0.33736 0.0
C530 C 0.50371 0.99558 0.28225 0.0
C531 C 0.53579 0.02634 0.273 0.0
C532 C 0.50349 -0.00049 0.3014 0.0
C533 C 0.57197 0.05213 0.34342 0.0
H534 H 0.5749 0.01757 0.42833 0.0
H535 H 0.57535 0.01708 0.39492 0.0
H536 H 0.60033 0.0648 0.37086 0.0
H537 H 0.5927 0.0855 0.2766 0.0
H538 H 0.59232 0.09249 0.31014 0.0
H539 H 0.46961 0.01517 0.33241 0.0
C540 C 0.55701 0.02784 0.40173 0.0
C541 C 0.57154 0.05365 0.36262 0.0
C542 C 0.5565 0.02783 0.4209 0.0
C543 C 0.56776 0.06112 0.28336 0.0
C544 C 0.56753 0.06509 0.30255 0.0
C545 C 0.49831 0.02583 0.34065 0.0
C546 C 0.53373 0.04098 0.39147 0.0
C547 C 0.53442 0.04091 0.37107 0.0
C548 C 0.53537 0.0343 0.31179 0.0
C549 C 0.5353 0.03785 0.3322 0.0
H550 H 0.49044 0.06422 0.42685 0.0
H551 H 0.49166 0.06452 0.39337 0.0
H552 H 0.46871 0.01702 0.36591 0.0
H553 H 0.47905 0.96799 0.27471 0.0
H554 H 0.47871 0.97483 0.30809 0.0
C555 C 0.5923 0.60693 0.76216 0.0
C556 C 0.55511 0.58089 0.77002 0.0
C557 C 0.59369 0.6083 0.74303 0.0
C558 C 0.53787 0.54685 0.69963 0.0
H559 H 0.60777 0.64946 0.6775 0.0
C560 C 0.54444 0.55316 0.62089 0.0
C561 C 0.58429 0.57378 0.61455 0.0
C562 C 0.53857 0.55728 0.63953 0.0
C563 C 0.58824 0.62055 0.6835 0.0
H564 H 0.48995 0.5365 0.76384 0.0
H565 H 0.49229 0.53935 0.7305 0.0
H566 H 0.60158 0.65012 0.71077 0.0
H567 H 0.64904 0.61604 0.62276 0.0
H568 H 0.63874 0.62347 0.65525 0.0
H569 H 0.52483 0.51723 0.67241 0.0
C570 C 0.52056 0.5582 0.73913 0.0
C571 C 0.58475 0.62089 0.70256 0.0
C572 C 0.51919 0.55672 0.75827 0.0
C573 C 0.61789 0.60011 0.62714 0.0
C574 C 0.612 0.60432 0.64577 0.0
C575 C 0.54123 0.54655 0.68058 0.0
C576 C 0.55789 0.58379 0.73127 0.0
C577 C 0.55986 0.58395 0.71088 0.0
C578 C 0.57239 0.58225 0.65225 0.0
C579 C 0.56678 0.58331 0.67232 0.0
H580 H 0.62061 0.62591 0.77076 0.0
H581 H 0.62309 0.62789 0.73745 0.0
H582 H 0.51896 0.51774 0.70559 0.0
H583 H 0.51781 0.53324 0.61149 0.0
H584 H 0.50758 0.54047 0.64404 0.0
C585 C 0.53889 0.01897 0.58291 0.0
C586 C 0.55436 0.05489 0.57323 0.0
C587 C 0.54427 0.02195 0.60219 0.0
C588 C 0.55846 0.09032 0.64237 0.0
H589 H 0.60887 0.03679 0.66838 0.0
C590 C 0.61981 0.14027 0.71745 0.0
C591 C 0.61407 0.11017 0.72964 0.0
C592 C 0.6112 0.12997 0.69855 0.0
C593 C 0.59413 0.05138 0.66136 0.0
H594 H 0.58747 0.12199 0.57616 0.0
H595 H 0.59606 0.12703 0.60973 0.0
H596 H 0.59492 0.02448 0.6348 0.0
H597 H 0.59613 0.04597 0.7317 0.0
H598 H 0.58006 0.0274 0.69836 0.0
H599 H 0.55707 0.11694 0.66865 0.0
C600 C 0.57999 0.09665 0.60241 0.0
C601 C 0.58626 0.04439 0.64215 0.0
C602 C 0.57523 0.09373 0.58319 0.0
C603 C 0.60074 0.06966 0.72252 0.0
C604 C 0.59165 0.05915 0.70348 0.0
C605 C 0.56583 0.0969 0.66148 0.0
C606 C 0.56452 0.06085 0.61209 0.0
C607 C 0.56926 0.06462 0.63249 0.0
C608 C 0.59612 0.08912 0.69132 0.0
C609 C 0.58477 0.07844 0.67119 0.0
H610 H 0.52285 0.9886 0.5756 0.0
H611 H 0.53198 0.99391 0.60938 0.0
H612 H 0.54461 0.10566 0.63525 0.0
H613 H 0.63087 0.17193 0.72259 0.0
H614 H 0.61631 0.15415 0.68958 0.0
C615 C 0.53175 0.53055 0.91928 0.0
C616 C 0.53887 0.56735 0.91188 0.0
C617 C 0.52673 0.52546 0.93802 0.0
C618 C 0.50616 0.56847 0.98075 0.0
H619 H 0.54899 0.50508 0.00392 0.0
C620 C 0.52741 0.55796 0.06 0.0
C621 C 0.51289 0.51785 0.06562 0.0
C622 C 0.52674 0.5646 0.04125 0.0
C623 C 0.53659 0.52256 0.99758 0.0
H624 H 0.54608 0.62768 0.91835 0.0
H625 H 0.539 0.61953 0.95141 0.0
H626 H 0.55781 0.51723 0.97147 0.0
H627 H 0.4853 0.45319 0.05618 0.0
H628 H 0.48474 0.46489 0.02339 0.0
H629 H 0.4865 0.57493 0.0074 0.0
C630 C 0.53627 0.59413 0.94259 0.0
C631 C 0.54144 0.52943 0.97895 0.0
C632 C 0.54059 0.59896 0.92367 0.0
C633 C 0.49634 0.48436 0.05222 0.0
C634 C 0.4963 0.49107 0.0335 0.0
C635 C 0.50195 0.56217 -0.00044 0.0
C636 C 0.52951 0.55734 0.95002 0.0
C637 C 0.52578 0.55195 0.97017 0.0
C638 C 0.51223 0.53131 0.02784 0.0
C639 C 0.51668 0.53869 0.00805 0.0
H640 H 0.52953 0.50529 0.91052 0.0
H641 H 0.52035 0.49622 0.94304 0.0
H642 H 0.49333 0.5856 0.97447 0.0
H643 H 0.54023 0.58426 0.07009 0.0
H644 H 0.53933 0.59591 0.0372 0.0
C645 C 0.02693 0.59678 0.23707 0.0
C646 C 0.03947 0.57271 0.22693 0.0
C647 C 0.02308 0.59364 0.25607 0.0
C648 C 0.01041 0.523 0.29252 0.0
H649 H 0.04825 0.62066 0.32589 0.0
C650 C 0.04284 0.5261 0.37084 0.0
C651 C 0.03372 0.5505 0.38276 0.0
C652 C 0.03739 0.52606 0.35173 0.0
C653 C 0.03688 0.593 0.31673 0.0
H654 H 0.05895 0.52735 0.22898 0.0
H655 H 0.05298 0.52252 0.26201 0.0
H656 H 0.05256 0.62754 0.29277 0.0
H657 H 0.00913 0.59191 0.3839 0.0
H658 H -0.00012 0.59202 0.35047 0.0
H659 H 0.99561 0.4886 0.31653 0.0
C660 C 0.04519 0.54312 0.25525 0.0
C661 C 0.03942 0.59696 0.29774 0.0
C662 C 0.04895 0.54618 0.2363 0.0
C663 C 0.01712 0.57331 0.3751 0.0
C664 C 0.01185 0.57343 0.35597 0.0
C665 C 0.00799 0.51907 0.3115 0.0
C666 C 0.03172 0.5664 0.26533 0.0
C667 C 0.0268 0.56207 0.28543 0.0
C668 C 0.0228 0.55051 0.34408 0.0
C669 C 0.02172 0.55408 0.32384 0.0
H670 H 0.01923 0.61743 0.23029 0.0
H671 H 0.0124 0.61183 0.26341 0.0
H672 H -0.00043 0.49537 0.28339 0.0
H673 H 0.05629 0.50868 0.37622 0.0
H674 H 0.04655 0.50842 0.34296 0.0
loop_
_geom_bond_atom_site_label_1
_geom_bond_atom_site_label_2
_geom_bond_distance
_geom_bond_site_symmetry_2
_ccdc_geom_bond_type
O0 Zn1 1.953 . S
O0 C16 1.225 . S
Zn1 O0 1.953 . S
Zn1 O2 1.949 . S
Zn1 O8 1.919 1_455 S
Zn1 O13 1.924 . S
O2 Zn1 1.949 . S
O2 Zn3 1.941 . S
O2 Zn4 1.950 . S
O2 Zn5 1.945 . S
Zn3 O2 1.941 . S
Zn3 O6 1.941 . S
Zn3 O9 1.911 1_455 S
Zn3 O10 1.964 1_455 S
Zn4 O2 1.950 . S
Zn4 O11 1.938 . S
Zn4 O12 1.906 . S
Zn4 O22 1.953 . S
Zn5 O2 1.945 . S
Zn5 O7 1.932 . S
Zn5 O14 1.977 . S
Zn5 O15 1.910 . S
O6 Zn3 1.941 . S
O6 C17 1.226 . S
O7 Zn5 1.932 . S
O7 C17 1.307 . S
O8 Zn1 1.919 1_655 S
O8 C19 1.253 . S
O9 Zn3 1.911 1_655 S
O9 C19 1.283 . S
O10 Zn3 1.964 1_655 S
O10 C18 1.303 . S
O11 Zn4 1.938 . S
O11 C18 1.247 1_455 S
O12 Zn4 1.906 . S
O12 C20 1.304 . S
O13 Zn1 1.924 . S
O13 C21 1.311 . S
O14 Zn5 1.977 . S
O14 C20 1.272 . S
O15 Zn5 1.910 . S
O15 C21 1.231 . S
C16 O0 1.225 . S
C16 O22 1.298 . S
C17 O6 1.226 . S
C17 O7 1.307 . S
C18 O10 1.303 . S
C18 O11 1.247 1_655 S
C19 O8 1.253 . S
C19 O9 1.283 . S
C20 O12 1.304 . S
C20 O14 1.272 . S
C21 O13 1.311 . S
C21 O15 1.231 . S
O22 Zn4 1.953 . S
O22 C16 1.298 . S
O23 Zn24 1.953 . S
O23 C39 1.225 . S
Zn24 O23 1.953 . S
Zn24 O25 1.949 . S
Zn24 O31 1.919 . S
Zn24 O36 1.924 . S
O25 Zn24 1.949 . S
O25 Zn26 1.923 . S
O25 Zn27 1.950 . S
O25 Zn28 1.945 . S
Zn26 O25 1.923 . S
Zn26 O29 1.933 . S
Zn26 O32 1.941 . S
Zn26 O33 1.965 . S
Zn27 O25 1.950 . S
Zn27 O34 1.938 . S
Zn27 O35 1.937 . S
Zn27 O45 1.953 . S
Zn28 O25 1.945 . S
Zn28 O30 1.932 . S
Zn28 O37 1.977 1_545 S
Zn28 O38 1.910 1_545 S
O29 Zn26 1.933 . S
O29 C40 1.226 . S
O30 Zn28 1.932 . S
O30 C40 1.307 . S
O31 Zn24 1.919 . S
O31 C42 1.253 . S
O32 Zn26 1.941 . S
O32 C42 1.283 . S
O33 Zn26 1.965 . S
O33 C41 1.303 . S
O34 Zn27 1.938 . S
O34 C41 1.247 . S
O35 Zn27 1.937 . S
O35 C43 1.288 1_545 S
O36 Zn24 1.924 . S
O36 C44 1.311 1_545 S
O37 Zn28 1.977 1_565 S
O37 C43 1.272 . S
O38 Zn28 1.910 1_565 S
O38 C44 1.231 . S
C39 O23 1.225 . S
C39 O45 1.298 . S
C40 O29 1.226 . S
C40 O30 1.307 . S
C41 O33 1.303 . S
C41 O34 1.247 . S
C42 O31 1.253 . S
C42 O32 1.283 . S
C43 O35 1.288 1_565 S
C43 O37 1.272 . S
C44 O36 1.311 1_565 S
C44 O38 1.231 . S
O45 Zn27 1.953 . S
O45 C39 1.298 . S
O46 Zn47 1.953 . S
O46 C62 1.225 . S
Zn47 O46 1.953 . S
Zn47 O48 1.949 . S
Zn47 O54 1.919 . S
Zn47 O59 1.924 . S
O48 Zn47 1.949 . S
O48 Zn49 1.923 . S
O48 Zn50 1.950 . S
O48 Zn51 1.945 . S
Zn49 O48 1.923 . S
Zn49 O52 1.933 . S
Zn49 O55 1.941 . S
Zn49 O56 1.965 . S
Zn50 O48 1.950 . S
Zn50 O57 1.938 . S
Zn50 O58 1.906 . S
Zn50 O68 1.953 . S
Zn51 O48 1.945 . S
Zn51 O53 1.932 . S
Zn51 O60 1.977 . S
Zn51 O61 1.910 . S
O52 Zn49 1.933 . S
O52 C63 1.226 . S
O53 Zn51 1.932 . S
O53 C63 1.307 . S
O54 Zn47 1.919 . S
O54 C65 1.253 . S
O55 Zn49 1.941 . S
O55 C65 1.283 . S
O56 Zn49 1.965 . S
O56 C64 1.303 . S
O57 Zn50 1.938 . S
O57 C64 1.247 . S
O58 Zn50 1.906 . S
O58 C66 1.304 . S
O59 Zn47 1.924 . S
O59 C67 1.311 . S
O60 Zn51 1.977 . S
O60 C66 1.272 . S
O61 Zn51 1.910 . S
O61 C67 1.231 . S
C62 O46 1.225 . S
C62 O68 1.298 . S
C63 O52 1.226 . S
C63 O53 1.307 . S
C64 O56 1.303 . S
C64 O57 1.247 . S
C65 O54 1.253 . S
C65 O55 1.283 . S
C66 O58 1.304 . S
C66 O60 1.272 . S
C67 O59 1.311 . S
C67 O61 1.231 . S
O68 Zn50 1.953 . S
O68 C62 1.298 . S
H69 C72 0.929 . S
H70 C75 0.929 . S
H71 C77 0.930 . S
C72 H69 0.929 . S
C72 C73 1.398 . S
C72 C74 1.396 . S
C73 C72 1.398 . S
C73 C77 1.407 . S
C74 C72 1.396 . S
C74 C75 1.394 . S
C75 H70 0.929 . S
C75 C74 1.394 . S
C75 C76 1.382 . S
C76 C75 1.382 . S
C76 C77 1.392 . S
C76 N78 1.420 . S
C77 H71 0.930 . S
C77 C73 1.407 . S
C77 C76 1.392 . S
N78 C76 1.420 . S
N78 C79 1.244 . S
C79 N78 1.244 . S
H80 C83 0.929 . S
H81 C86 0.929 . S
H82 C88 0.930 . S
C83 H80 0.929 . S
C83 C84 1.398 . S
C83 C85 1.396 . S
C84 C83 1.398 . S
C84 C88 1.407 . S
C85 C83 1.396 . S
C85 C86 1.394 . S
C86 H81 0.929 . S
C86 C85 1.394 . S
C86 C87 1.382 . S
C87 C86 1.382 . S
C87 C88 1.392 . S
C87 N89 1.420 . S
C88 H82 0.930 . S
C88 C84 1.407 . S
C88 C87 1.392 . S
N89 C87 1.420 . S
N89 C90 1.244 . S
C90 N89 1.244 . S
H91 C94 0.929 . S
H92 C97 0.929 . S
H93 C99 0.930 . S
C94 H91 0.929 . S
C94 C95 1.398 . S
C94 C96 1.396 . S
C95 C94 1.398 . S
C95 C99 1.407 . S
C96 C94 1.396 . S
C96 C97 1.394 . S
C97 H92 0.929 . S
C97 C96 1.394 . S
C97 C98 1.382 . S
C98 C97 1.382 . S
C98 C99 1.392 . S
C98 N100 1.420 . S
C99 H93 0.930 . S
C99 C95 1.407 . S
C99 C98 1.392 . S
N100 C98 1.420 . S
N100 C101 1.244 . S
C101 N100 1.244 . S
H102 C105 0.929 . S
H103 C108 0.929 1_655 S
H104 C110 0.930 . S
C105 H102 0.929 . S
C105 C106 1.398 . S
C105 C107 1.396 . S
C106 C105 1.398 . S
C106 C110 1.407 . S
C107 C105 1.396 . S
C107 C108 1.394 . S
C108 H103 0.929 1_455 S
C108 C107 1.394 . S
C108 C109 1.382 . S
C109 C108 1.382 . S
C109 C110 1.392 . S
C109 N111 1.420 1_455 S
C110 H104 0.930 . S
C110 C106 1.407 . S
C110 C109 1.392 . S
N111 C109 1.420 1_655 S
N111 C112 1.244 . S
C112 N111 1.244 . S
H113 C116 0.929 . S
H114 C119 0.929 1_565 S
H115 C121 0.930 . S
C116 H113 0.929 . S
C116 C117 1.398 . S
C116 C118 1.396 . S
C117 C116 1.398 . S
C117 C121 1.407 . S
C118 C116 1.396 . S
C118 C119 1.394 . S
C119 H114 0.929 1_545 S
C119 C118 1.394 . S
C119 C120 1.382 . S
C120 C119 1.382 . S
C120 C121 1.392 . S
C120 N122 1.420 1_545 S
C121 H115 0.930 . S
C121 C117 1.407 . S
C121 C120 1.392 . S
N122 C120 1.420 1_565 S
N122 C123 1.244 . S
C123 N122 1.244 . S
H124 C127 0.929 . S
H125 C130 0.929 . S
H126 C132 0.930 . S
C127 H124 0.929 . S
C127 C128 1.398 . S
C127 C129 1.396 . S
C128 C127 1.398 . S
C128 C132 1.407 . S
C129 C127 1.396 . S
C129 C130 1.394 . S
C130 H125 0.929 . S
C130 C129 1.394 . S
C130 C131 1.382 . S
C131 C130 1.382 . S
C131 C132 1.392 . S
C131 N133 1.420 . S
C132 H126 0.930 . S
C132 C128 1.407 . S
C132 C131 1.392 . S
N133 C131 1.420 . S
N133 C134 1.244 . S
C134 N133 1.244 . S
C135 C136 1.349 . S
C135 C137 1.327 . S
C135 H160 0.950 . S
C136 C135 1.349 . S
C136 C152 1.349 . S
C137 C135 1.327 . S
C137 C156 1.429 . S
C137 H161 0.950 . S
C138 C155 1.574 . S
C138 C157 1.368 . S
C138 H162 0.949 . S
H139 C143 0.949 . S
C140 C141 1.349 . S
C140 C142 1.327 . S
C140 H163 0.950 . S
C141 C140 1.349 . S
C141 C153 1.349 . S
C142 C140 1.327 . S
C142 C158 1.429 . S
C142 H164 0.950 . S
C143 H139 0.949 . S
C143 C151 1.574 . S
C143 C159 1.368 . S
H144 C152 0.950 . S
H145 C150 0.950 . S
H146 C151 0.949 . S
H147 C153 0.950 . S
H148 C154 0.950 . S
H149 C155 0.949 . S
C150 H145 0.950 . S
C150 C152 1.327 . S
C150 C156 1.429 . S
C151 C143 1.574 . S
C151 H146 0.949 . S
C151 C157 1.368 . S
C152 C136 1.349 . S
C152 H144 0.950 . S
C152 C150 1.327 . S
C153 C141 1.349 . S
C153 H147 0.950 . S
C153 C154 1.327 . S
C154 H148 0.950 . S
C154 C153 1.327 . S
C154 C158 1.429 . S
C155 C138 1.574 . S
C155 H149 0.949 . S
C155 C159 1.368 . S
C156 C137 1.429 . S
C156 C150 1.429 . S
C156 C157 1.523 . S
C157 C138 1.368 . S
C157 C151 1.368 . S
C157 C156 1.523 . S
C158 C142 1.429 . S
C158 C154 1.429 . S
C158 C159 1.523 . S
C159 C143 1.368 . S
C159 C155 1.368 . S
C159 C158 1.523 . S
H160 C135 0.950 . S
H161 C137 0.950 . S
H162 C138 0.949 . S
H163 C140 0.950 . S
H164 C142 0.950 . S
C165 C166 1.349 . S
C165 C167 1.327 . S
C165 H190 0.950 . S
C166 C165 1.349 . S
C166 C182 1.349 . S
C167 C165 1.327 . S
C167 C186 1.429 . S
C167 H191 0.950 . S
C168 C185 1.574 . S
C168 C187 1.368 . S
C168 H192 0.949 . S
H169 C173 0.949 . S
C170 C171 1.349 . S
C170 C172 1.327 . S
C170 H193 0.950 . S
C171 C170 1.349 . S
C171 C183 1.349 . S
C172 C170 1.327 . S
C172 C188 1.429 . S
C172 H194 0.950 . S
C173 H169 0.949 . S
C173 C181 1.574 . S
C173 C189 1.368 . S
H174 C182 0.950 . S
H175 C180 0.950 . S
H176 C181 0.949 . S
H177 C183 0.950 . S
H178 C184 0.950 . S
H179 C185 0.949 . S
C180 H175 0.950 . S
C180 C182 1.327 . S
C180 C186 1.429 . S
C181 C173 1.574 . S
C181 H176 0.949 . S
C181 C187 1.368 . S
C182 C166 1.349 . S
C182 H174 0.950 . S
C182 C180 1.327 . S
C183 C171 1.349 . S
C183 H177 0.950 . S
C183 C184 1.327 . S
C184 H178 0.950 . S
C184 C183 1.327 . S
C184 C188 1.429 . S
C185 C168 1.574 . S
C185 H179 0.949 . S
C185 C189 1.368 . S
C186 C167 1.429 . S
C186 C180 1.429 . S
C186 C187 1.523 . S
C187 C168 1.368 . S
C187 C181 1.368 . S
C187 C186 1.523 . S
C188 C172 1.429 . S
C188 C184 1.429 . S
C188 C189 1.523 . S
C189 C173 1.368 . S
C189 C185 1.368 . S
C189 C188 1.523 . S
H190 C165 0.950 . S
H191 C167 0.950 . S
H192 C168 0.949 . S
H193 C170 0.950 . S
H194 C172 0.950 . S
C195 C196 1.349 . S
C195 C197 1.327 . S
C195 H220 0.950 . S
C196 C195 1.349 . S
C196 C212 1.349 . S
C197 C195 1.327 . S
C197 C216 1.429 . S
C197 H221 0.950 . S
C198 C215 1.574 . S
C198 C217 1.368 . S
C198 H222 0.949 . S
H199 C203 0.949 . S
C200 C201 1.349 . S
C200 C202 1.327 . S
C200 H223 0.950 . S
C201 C200 1.349 . S
C201 C213 1.349 . S
C202 C200 1.327 . S
C202 C218 1.429 . S
C202 H224 0.950 . S
C203 H199 0.949 . S
C203 C211 1.574 . S
C203 C219 1.368 . S
H204 C212 0.950 . S
H205 C210 0.950 . S
H206 C211 0.949 . S
H207 C213 0.950 . S
H208 C214 0.950 . S
H209 C215 0.949 . S
C210 H205 0.950 . S
C210 C212 1.327 . S
C210 C216 1.429 . S
C211 C203 1.574 . S
C211 H206 0.949 . S
C211 C217 1.368 . S
C212 C196 1.349 . S
C212 H204 0.950 . S
C212 C210 1.327 . S
C213 C201 1.349 . S
C213 H207 0.950 . S
C213 C214 1.327 . S
C214 H208 0.950 . S
C214 C213 1.327 . S
C214 C218 1.429 . S
C215 C198 1.574 . S
C215 H209 0.949 . S
C215 C219 1.368 . S
C216 C197 1.429 . S
C216 C210 1.429 . S
C216 C217 1.523 . S
C217 C198 1.368 . S
C217 C211 1.368 . S
C217 C216 1.523 . S
C218 C202 1.429 . S
C218 C214 1.429 . S
C218 C219 1.523 . S
C219 C203 1.368 . S
C219 C215 1.368 . S
C219 C218 1.523 . S
H220 C195 0.950 . S
H221 C197 0.950 . S
H222 C198 0.949 . S
H223 C200 0.950 . S
H224 C202 0.950 . S
C225 C226 1.349 . S
C225 C227 1.327 . S
C225 H250 0.950 . S
C226 C225 1.349 . S
C226 C242 1.349 . S
C227 C225 1.327 . S
C227 C246 1.429 . S
C227 H251 0.950 . S
C228 C245 1.574 . S
C228 C247 1.368 . S
C228 H252 0.949 . S
H229 C233 0.949 . S
C230 C231 1.349 . S
C230 C232 1.327 . S
C230 H253 0.950 . S
C231 C230 1.349 . S
C231 C243 1.349 . S
C232 C230 1.327 . S
C232 C248 1.429 . S
C232 H254 0.950 . S
C233 H229 0.949 . S
C233 C241 1.574 . S
C233 C249 1.368 . S
H234 C242 0.950 . S
H235 C240 0.950 . S
H236 C241 0.949 . S
H237 C243 0.950 . S
H238 C244 0.950 . S
H239 C245 0.949 . S
C240 H235 0.950 . S
C240 C242 1.327 . S
C240 C246 1.429 . S
C241 C233 1.574 . S
C241 H236 0.949 . S
C241 C247 1.368 . S
C242 C226 1.349 . S
C242 H234 0.950 . S
C242 C240 1.327 . S
C243 C231 1.349 . S
C243 H237 0.950 . S
C243 C244 1.327 . S
C244 H238 0.950 . S
C244 C243 1.327 . S
C244 C248 1.429 . S
C245 C228 1.574 . S
C245 H239 0.949 . S
C245 C249 1.368 . S
C246 C227 1.429 . S
C246 C240 1.429 . S
C246 C247 1.523 . S
C247 C228 1.368 . S
C247 C241 1.368 . S
C247 C246 1.523 . S
C248 C232 1.429 . S
C248 C244 1.429 . S
C248 C249 1.523 . S
C249 C233 1.368 . S
C249 C245 1.368 . S
C249 C248 1.523 . S
H250 C225 0.950 . S
H251 C227 0.950 . S
H252 C228 0.949 . S
H253 C230 0.950 . S
H254 C232 0.950 . S
C255 C256 1.349 . S
C255 C257 1.327 . S
C255 H280 0.950 . S
C256 C255 1.349 . S
C256 C272 1.349 . S
C257 C255 1.327 . S
C257 C276 1.429 . S
C257 H281 0.950 . S
C258 C275 1.574 . S
C258 C277 1.368 . S
C258 H282 0.949 . S
H259 C263 0.949 . S
C260 C261 1.349 . S
C260 C262 1.327 . S
C260 H283 0.950 . S
C261 C260 1.349 . S
C261 C273 1.349 . S
C262 C260 1.327 . S
C262 C278 1.429 . S
C262 H284 0.950 . S
C263 H259 0.949 . S
C263 C271 1.574 . S
C263 C279 1.368 . S
H264 C272 0.950 . S
H265 C270 0.950 . S
H266 C271 0.949 . S
H267 C273 0.950 . S
H268 C274 0.950 . S
H269 C275 0.949 . S
C270 H265 0.950 . S
C270 C272 1.327 . S
C270 C276 1.429 . S
C271 C263 1.574 . S
C271 H266 0.949 . S
C271 C277 1.368 . S
C272 C256 1.349 . S
C272 H264 0.950 . S
C272 C270 1.327 . S
C273 C261 1.349 . S
C273 H267 0.950 . S
C273 C274 1.327 . S
C274 H268 0.950 . S
C274 C273 1.327 . S
C274 C278 1.429 . S
C275 C258 1.574 . S
C275 H269 0.949 . S
C275 C279 1.368 . S
C276 C257 1.429 . S
C276 C270 1.429 . S
C276 C277 1.523 . S
C277 C258 1.368 . S
C277 C271 1.368 . S
C277 C276 1.523 . S
C278 C262 1.429 . S
C278 C274 1.429 . S
C278 C279 1.523 . S
C279 C263 1.368 . S
C279 C275 1.368 . S
C279 C278 1.523 . S
H280 C255 0.950 . S
H281 C257 0.950 . S
H282 C258 0.949 . S
H283 C260 0.950 . S
H284 C262 0.950 . S
C285 C286 1.349 . S
C285 C287 1.327 . S
C285 H310 0.950 . S
C286 C285 1.349 . S
C286 C302 1.349 . S
C287 C285 1.327 . S
C287 C306 1.429 . S
C287 H311 0.950 . S
C288 C305 1.574 . S
C288 C307 1.368 . S
C288 H312 0.949 . S
H289 C293 0.949 . S
C290 C291 1.349 . S
C290 C292 1.327 . S
C290 H313 0.950 . S
C291 C290 1.349 . S
C291 C303 1.349 . S
C292 C290 1.327 . S
C292 C308 1.429 . S
C292 H314 0.950 . S
C293 H289 0.949 . S
C293 C301 1.574 . S
C293 C309 1.368 . S
H294 C302 0.950 . S
H295 C300 0.950 . S
H296 C301 0.949 . S
H297 C303 0.950 . S
H298 C304 0.950 . S
H299 C305 0.949 . S
C300 H295 0.950 . S
C300 C302 1.327 . S
C300 C306 1.429 . S
C301 C293 1.574 . S
C301 H296 0.949 . S
C301 C307 1.368 . S
C302 C286 1.349 . S
C302 H294 0.950 . S
C302 C300 1.327 . S
C303 C291 1.349 . S
C303 H297 0.950 . S
C303 C304 1.327 . S
C304 H298 0.950 . S
C304 C303 1.327 . S
C304 C308 1.429 . S
C305 C288 1.574 . S
C305 H299 0.949 . S
C305 C309 1.368 . S
C306 C287 1.429 . S
C306 C300 1.429 . S
C306 C307 1.523 . S
C307 C288 1.368 . S
C307 C301 1.368 . S
C307 C306 1.523 . S
C308 C292 1.429 . S
C308 C304 1.429 . S
C308 C309 1.523 . S
C309 C293 1.368 . S
C309 C305 1.368 . S
C309 C308 1.523 . S
H310 C285 0.950 . S
H311 C287 0.950 . S
H312 C288 0.949 . S
H313 C290 0.950 . S
H314 C292 0.950 . S
C315 C316 1.349 . S
C315 C317 1.327 . S
C315 H340 0.950 . S
C316 C315 1.349 . S
C316 C332 1.349 . S
C317 C315 1.327 . S
C317 C336 1.429 . S
C317 H341 0.950 . S
C318 C335 1.574 . S
C318 C337 1.368 . S
C318 H342 0.949 . S
H319 C323 0.949 . S
C320 C321 1.349 . S
C320 C322 1.327 . S
C320 H343 0.950 . S
C321 C320 1.349 . S
C321 C333 1.349 . S
C322 C320 1.327 . S
C322 C338 1.429 . S
C322 H344 0.950 . S
C323 H319 0.949 . S
C323 C331 1.574 . S
C323 C339 1.368 . S
H324 C332 0.950 . S
H325 C330 0.950 . S
H326 C331 0.949 . S
H327 C333 0.950 . S
H328 C334 0.950 . S
H329 C335 0.949 . S
C330 H325 0.950 . S
C330 C332 1.327 . S
C330 C336 1.429 . S
C331 C323 1.574 . S
C331 H326 0.949 . S
C331 C337 1.368 . S
C332 C316 1.349 . S
C332 H324 0.950 . S
C332 C330 1.327 . S
C333 C321 1.349 . S
C333 H327 0.950 . S
C333 C334 1.327 . S
C334 H328 0.950 . S
C334 C333 1.327 . S
C334 C338 1.429 . S
C335 C318 1.574 . S
C335 H329 0.949 . S
C335 C339 1.368 . S
C336 C317 1.429 . S
C336 C330 1.429 . S
C336 C337 1.523 . S
C337 C318 1.368 . S
C337 C331 1.368 . S
C337 C336 1.523 . S
C338 C322 1.429 . S
C338 C334 1.429 . S
C338 C339 1.523 . S
C339 C323 1.368 . S
C339 C335 1.368 . S
C339 C338 1.523 . S
H340 C315 0.950 . S
H341 C317 0.950 . S
H342 C318 0.949 . S
H343 C320 0.950 . S
H344 C322 0.950 . S
C345 C346 1.349 . S
C345 C347 1.327 . S
C345 H370 0.950 . S
C346 C345 1.349 . S
C346 C362 1.349 . S
C347 C345 1.327 . S
C347 C366 1.429 . S
C347 H371 0.950 . S
C348 C365 1.574 . S
C348 C367 1.368 . S
C348 H372 0.949 . S
H349 C353 0.949 . S
C350 C351 1.349 . S
C350 C352 1.327 . S
C350 H373 0.950 1_655 S
C351 C350 1.349 . S
C351 C363 1.349 . S
C352 C350 1.327 . S
C352 C368 1.429 . S
C352 H374 0.950 . S
C353 H349 0.949 . S
C353 C361 1.574 . S
C353 C369 1.368 . S
H354 C362 0.950 . S
H355 C360 0.950 . S
H356 C361 0.949 . S
H357 C363 0.950 . S
H358 C364 0.950 . S
H359 C365 0.949 . S
C360 H355 0.950 . S
C360 C362 1.327 . S
C360 C366 1.429 . S
C361 C353 1.574 . S
C361 H356 0.949 . S
C361 C367 1.368 . S
C362 C346 1.349 . S
C362 H354 0.950 . S
C362 C360 1.327 . S
C363 C351 1.349 . S
C363 H357 0.950 . S
C363 C364 1.327 . S
C364 H358 0.950 . S
C364 C363 1.327 . S
C364 C368 1.429 . S
C365 C348 1.574 . S
C365 H359 0.949 . S
C365 C369 1.368 . S
C366 C347 1.429 . S
C366 C360 1.429 . S
C366 C367 1.523 . S
C367 C348 1.368 . S
C367 C361 1.368 . S
C367 C366 1.523 . S
C368 C352 1.429 . S
C368 C364 1.429 . S
C368 C369 1.523 . S
C369 C353 1.368 . S
C369 C365 1.368 . S
C369 C368 1.523 . S
H370 C345 0.950 . S
H371 C347 0.950 . S
H372 C348 0.949 . S
H373 C350 0.950 1_455 S
H374 C352 0.950 . S
C375 C376 1.349 . S
C375 C377 1.327 . S
C375 H400 0.950 . S
C376 C375 1.349 . S
C376 C392 1.349 . S
C377 C375 1.327 . S
C377 C396 1.429 . S
C377 H401 0.950 . S
C378 C395 1.574 . S
C378 C397 1.368 . S
C378 H402 0.949 . S
H379 C383 0.949 . S
C380 C381 1.349 . S
C380 C382 1.327 . S
C380 H403 0.950 . S
C381 C380 1.349 . S
C381 C393 1.349 1_565 S
C382 C380 1.327 . S
C382 C398 1.429 . S
C382 H404 0.950 . S
C383 H379 0.949 . S
C383 C391 1.574 . S
C383 C399 1.368 . S
H384 C392 0.950 . S
H385 C390 0.950 . S
H386 C391 0.949 . S
H387 C393 0.950 . S
H388 C394 0.950 . S
H389 C395 0.949 . S
C390 H385 0.950 . S
C390 C392 1.327 . S
C390 C396 1.429 . S
C391 C383 1.574 . S
C391 H386 0.949 . S
C391 C397 1.368 . S
C392 C376 1.349 . S
C392 H384 0.950 . S
C392 C390 1.327 . S
C393 C381 1.349 1_545 S
C393 H387 0.950 . S
C393 C394 1.327 1_545 S
C394 H388 0.950 . S
C394 C393 1.327 1_565 S
C394 C398 1.429 . S
C395 C378 1.574 . S
C395 H389 0.949 . S
C395 C399 1.368 . S
C396 C377 1.429 . S
C396 C390 1.429 . S
C396 C397 1.523 . S
C397 C378 1.368 . S
C397 C391 1.368 . S
C397 C396 1.523 . S
C398 C382 1.429 . S
C398 C394 1.429 . S
C398 C399 1.523 . S
C399 C383 1.368 . S
C399 C395 1.368 . S
C399 C398 1.523 . S
H400 C375 0.950 . S
H401 C377 0.950 . S
H402 C378 0.949 . S
H403 C380 0.950 . S
H404 C382 0.950 . S
C405 C406 1.349 . S
C405 C407 1.327 . S
C405 H430 0.950 . S
C406 C405 1.349 . S
C406 C422 1.349 . S
C407 C405 1.327 . S
C407 C426 1.429 . S
C407 H431 0.950 . S
C408 C425 1.574 . S
C408 C427 1.368 . S
C408 H432 0.949 . S
H409 C413 0.949 . S
C410 C411 1.349 . S
C410 C412 1.327 . S
C410 H433 0.950 . S
C411 C410 1.349 . S
C411 C423 1.349 . S
C412 C410 1.327 . S
C412 C428 1.429 . S
C412 H434 0.950 . S
C413 H409 0.949 . S
C413 C421 1.574 . S
C413 C429 1.368 . S
H414 C422 0.950 . S
H415 C420 0.950 . S
H416 C421 0.949 . S
H417 C423 0.950 . S
H418 C424 0.950 . S
H419 C425 0.949 . S
C420 H415 0.950 . S
C420 C422 1.327 . S
C420 C426 1.429 . S
C421 C413 1.574 . S
C421 H416 0.949 . S
C421 C427 1.368 . S
C422 C406 1.349 . S
C422 H414 0.950 . S
C422 C420 1.327 . S
C423 C411 1.349 . S
C423 H417 0.950 . S
C423 C424 1.327 . S
C424 H418 0.950 . S
C424 C423 1.327 . S
C424 C428 1.429 . S
C425 C408 1.574 . S
C425 H419 0.949 . S
C425 C429 1.368 . S
C426 C407 1.429 . S
C426 C420 1.429 . S
C426 C427 1.523 . S
C427 C408 1.368 . S
C427 C421 1.368 . S
C427 C426 1.523 . S
C428 C412 1.429 . S
C428 C424 1.429 . S
C428 C429 1.523 . S
C429 C413 1.368 . S
C429 C425 1.368 . S
C429 C428 1.523 . S
H430 C405 0.950 . S
H431 C407 0.950 . S
H432 C408 0.949 . S
H433 C410 0.950 . S
H434 C412 0.950 . S
C435 C436 1.349 . S
C435 C437 1.327 . S
C435 H460 0.950 . S
C436 C435 1.349 . S
C436 C452 1.349 . S
C437 C435 1.327 . S
C437 C456 1.429 . S
C437 H461 0.950 . S
C438 C455 1.574 . S
C438 C457 1.368 . S
C438 H462 0.949 . S
H439 C443 0.949 . S
C440 C441 1.349 . S
C440 C442 1.327 . S
C440 H463 0.950 . S
C441 C440 1.349 . S
C441 C453 1.349 . S
C442 C440 1.327 . S
C442 C458 1.429 . S
C442 H464 0.950 . S
C443 H439 0.949 . S
C443 C451 1.574 . S
C443 C459 1.368 . S
H444 C452 0.950 . S
H445 C450 0.950 . S
H446 C451 0.949 . S
H447 C453 0.950 . S
H448 C454 0.950 . S
H449 C455 0.949 . S
C450 H445 0.950 . S
C450 C452 1.327 . S
C450 C456 1.429 . S
C451 C443 1.574 . S
C451 H446 0.949 . S
C451 C457 1.368 . S
C452 C436 1.349 . S
C452 H444 0.950 . S
C452 C450 1.327 . S
C453 C441 1.349 . S
C453 H447 0.950 . S
C453 C454 1.327 . S
C454 H448 0.950 . S
C454 C453 1.327 . S
C454 C458 1.429 . S
C455 C438 1.574 . S
C455 H449 0.949 . S
C455 C459 1.368 . S
C456 C437 1.429 . S
C456 C450 1.429 . S
C456 C457 1.523 . S
C457 C438 1.368 . S
C457 C451 1.368 . S
C457 C456 1.523 . S
C458 C442 1.429 . S
C458 C454 1.429 . S
C458 C459 1.523 . S
C459 C443 1.368 . S
C459 C455 1.368 . S
C459 C458 1.523 . S
H460 C435 0.950 . S
H461 C437 0.950 . S
H462 C438 0.949 . S
H463 C440 0.950 . S
H464 C442 0.950 . S
C465 C466 1.349 . S
C465 C467 1.327 . S
C465 H490 0.950 . S
C466 C465 1.349 . S
C466 C482 1.349 . S
C467 C465 1.327 . S
C467 C486 1.429 . S
C467 H491 0.950 . S
C468 C485 1.574 . S
C468 C487 1.368 . S
C468 H492 0.949 . S
H469 C473 0.949 . S
C470 C471 1.349 . S
C470 C472 1.327 . S
C470 H493 0.950 . S
C471 C470 1.349 . S
C471 C483 1.349 . S
C472 C470 1.327 . S
C472 C488 1.429 . S
C472 H494 0.950 . S
C473 H469 0.949 . S
C473 C481 1.574 . S
C473 C489 1.368 . S
H474 C482 0.950 . S
H475 C480 0.950 . S
H476 C481 0.949 . S
H477 C483 0.950 . S
H478 C484 0.950 . S
H479 C485 0.949 . S
C480 H475 0.950 . S
C480 C482 1.327 . S
C480 C486 1.429 . S
C481 C473 1.574 . S
C481 H476 0.949 . S
C481 C487 1.368 . S
C482 C466 1.349 . S
C482 H474 0.950 . S
C482 C480 1.327 . S
C483 C471 1.349 . S
C483 H477 0.950 . S
C483 C484 1.327 . S
C484 H478 0.950 . S
C484 C483 1.327 . S
C484 C488 1.429 . S
C485 C468 1.574 . S
C485 H479 0.949 . S
C485 C489 1.368 . S
C486 C467 1.429 . S
C486 C480 1.429 . S
C486 C487 1.523 . S
C487 C468 1.368 . S
C487 C481 1.368 . S
C487 C486 1.523 . S
C488 C472 1.429 . S
C488 C484 1.429 . S
C488 C489 1.523 . S
C489 C473 1.368 . S
C489 C485 1.368 . S
C489 C488 1.523 . S
H490 C465 0.950 . S
H491 C467 0.950 . S
H492 C468 0.949 . S
H493 C470 0.950 . S
H494 C472 0.950 . S
C495 C496 1.349 . S
C495 C497 1.327 . S
C495 H520 0.950 . S
C496 C495 1.349 . S
C496 C512 1.349 . S
C497 C495 1.327 . S
C497 C516 1.429 . S
C497 H521 0.950 . S
C498 C515 1.574 . S
C498 C517 1.368 . S
C498 H522 0.949 1_455 S
H499 C503 0.949 . S
C500 C501 1.349 . S
C500 C502 1.327 . S
C500 H523 0.950 . S
C501 C500 1.349 . S
C501 C513 1.349 . S
C502 C500 1.327 . S
C502 C518 1.429 . S
C502 H524 0.950 . S
C503 H499 0.949 . S
C503 C511 1.574 . S
C503 C519 1.368 . S
H504 C512 0.950 1_655 S
H505 C510 0.950 1_655 S
H506 C511 0.949 . S
H507 C513 0.950 . S
H508 C514 0.950 . S
H509 C515 0.937 1_556 S
C510 H505 0.950 1_455 S
C510 C512 1.327 . S
C510 C516 1.429 . S
C511 C503 1.574 . S
C511 H506 0.949 . S
C511 C517 1.368 . S
C512 C496 1.349 . S
C512 H504 0.950 1_455 S
C512 C510 1.327 . S
C513 C501 1.349 . S
C513 H507 0.950 . S
C513 C514 1.327 . S
C514 H508 0.950 . S
C514 C513 1.327 . S
C514 C518 1.429 . S
C515 C498 1.574 . S
C515 H509 0.937 1_554 S
C515 C519 1.368 . S
C516 C497 1.429 . S
C516 C510 1.429 . S
C516 C517 1.523 . S
C517 C498 1.368 . S
C517 C511 1.368 . S
C517 C516 1.523 . S
C518 C502 1.429 . S
C518 C514 1.429 . S
C518 C519 1.523 1_556 S
C519 C503 1.368 . S
C519 C515 1.368 . S
C519 C518 1.523 1_554 S
H520 C495 0.950 . S
H521 C497 0.950 . S
H522 C498 0.949 1_655 S
H523 C500 0.950 . S
H524 C502 0.950 . S
C525 C526 1.349 . S
C525 C527 1.327 . S
C525 H550 0.950 . S
C526 C525 1.349 . S
C526 C542 1.349 . S
C527 C525 1.327 . S
C527 C546 1.429 . S
C527 H551 0.950 . S
C528 C545 1.574 . S
C528 C547 1.368 . S
C528 H552 0.949 . S
H529 C533 0.949 . S
C530 C531 1.349 . S
C530 C532 1.327 . S
C530 H553 0.950 . S
C531 C530 1.349 . S
C531 C543 1.349 . S
C532 C530 1.327 . S
C532 C548 1.429 . S
C532 H554 0.950 . S
C533 H529 0.949 . S
C533 C541 1.574 . S
C533 C549 1.368 . S
H534 C542 0.950 . S
H535 C540 0.950 . S
H536 C541 0.949 . S
H537 C543 0.950 . S
H538 C544 0.950 . S
H539 C545 0.949 . S
C540 H535 0.950 . S
C540 C542 1.327 . S
C540 C546 1.429 . S
C541 C533 1.574 . S
C541 H536 0.949 . S
C541 C547 1.368 . S
C542 C526 1.349 . S
C542 H534 0.950 . S
C542 C540 1.327 . S
C543 C531 1.349 . S
C543 H537 0.950 . S
C543 C544 1.327 . S
C544 H538 0.950 . S
C544 C543 1.327 . S
C544 C548 1.429 . S
C545 C528 1.574 . S
C545 H539 0.949 . S
C545 C549 1.368 . S
C546 C527 1.429 . S
C546 C540 1.429 . S
C546 C547 1.523 . S
C547 C528 1.368 . S
C547 C541 1.368 . S
C547 C546 1.523 . S
C548 C532 1.429 . S
C548 C544 1.429 . S
C548 C549 1.523 . S
C549 C533 1.368 . S
C549 C545 1.368 . S
C549 C548 1.523 . S
H550 C525 0.950 . S
H551 C527 0.950 . S
H552 C528 0.949 . S
H553 C530 0.950 . S
H554 C532 0.950 . S
C555 C556 1.349 . S
C555 C557 1.327 . S
C555 H580 0.950 . S
C556 C555 1.349 . S
C556 C572 1.349 . S
C557 C555 1.327 . S
C557 C576 1.429 . S
C557 H581 0.950 . S
C558 C575 1.574 . S
C558 C577 1.368 . S
C558 H582 0.949 . S
H559 C563 0.949 . S
C560 C561 1.349 . S
C560 C562 1.327 . S
C560 H583 0.950 . S
C561 C560 1.349 . S
C561 C573 1.349 . S
C562 C560 1.327 . S
C562 C578 1.429 . S
C562 H584 0.950 . S
C563 H559 0.949 . S
C563 C571 1.574 . S
C563 C579 1.368 . S
H564 C572 0.950 . S
H565 C570 0.950 . S
H566 C571 0.949 . S
H567 C573 0.950 . S
H568 C574 0.950 . S
H569 C575 0.949 . S
C570 H565 0.950 . S
C570 C572 1.327 . S
C570 C576 1.429 . S
C571 C563 1.574 . S
C571 H566 0.949 . S
C571 C577 1.368 . S
C572 C556 1.349 . S
C572 H564 0.950 . S
C572 C570 1.327 . S
C573 C561 1.349 . S
C573 H567 0.950 . S
C573 C574 1.327 . S
C574 H568 0.950 . S
C574 C573 1.327 . S
C574 C578 1.429 . S
C575 C558 1.574 . S
C575 H569 0.949 . S
C575 C579 1.368 . S
C576 C557 1.429 . S
C576 C570 1.429 . S
C576 C577 1.523 . S
C577 C558 1.368 . S
C577 C571 1.368 . S
C577 C576 1.523 . S
C578 C562 1.429 . S
C578 C574 1.429 . S
C578 C579 1.523 . S
C579 C563 1.368 . S
C579 C575 1.368 . S
C579 C578 1.523 . S
H580 C555 0.950 . S
H581 C557 0.950 . S
H582 C558 0.949 . S
H583 C560 0.950 . S
H584 C562 0.950 . S
C585 C586 1.349 . S
C585 C587 1.327 . S
C585 H610 0.950 . S
C586 C585 1.349 . S
C586 C602 1.349 . S
C587 C585 1.327 . S
C587 C606 1.429 . S
C587 H611 0.950 . S
C588 C605 1.574 . S
C588 C607 1.368 . S
C588 H612 0.949 . S
H589 C593 0.949 1_565 S
C590 C591 1.349 . S
C590 C592 1.327 . S
C590 H613 0.950 . S
C591 C590 1.349 . S
C591 C603 1.349 . S
C592 C590 1.327 . S
C592 C608 1.429 . S
C592 H614 0.950 . S
C593 H589 0.949 1_545 S
C593 C601 1.574 . S
C593 C609 1.368 . S
H594 C602 0.950 . S
H595 C600 0.950 . S
H596 C601 0.949 . S
H597 C603 0.950 1_565 S
H598 C604 0.950 1_565 S
H599 C605 0.949 . S
C600 H595 0.950 . S
C600 C602 1.327 . S
C600 C606 1.429 . S
C601 C593 1.574 . S
C601 H596 0.949 . S
C601 C607 1.368 . S
C602 C586 1.349 . S
C602 H594 0.950 . S
C602 C600 1.327 . S
C603 C591 1.349 . S
C603 H597 0.950 1_545 S
C603 C604 1.327 . S
C604 H598 0.950 1_545 S
C604 C603 1.327 . S
C604 C608 1.429 . S
C605 C588 1.574 . S
C605 H599 0.949 . S
C605 C609 1.368 . S
C606 C587 1.429 . S
C606 C600 1.429 . S
C606 C607 1.523 . S
C607 C588 1.368 . S
C607 C601 1.368 . S
C607 C606 1.523 . S
C608 C592 1.429 . S
C608 C604 1.429 . S
C608 C609 1.523 . S
C609 C593 1.368 . S
C609 C605 1.368 . S
C609 C608 1.523 . S
H610 C585 0.950 . S
H611 C587 0.950 . S
H612 C588 0.949 . S
H613 C590 0.950 . S
H614 C592 0.950 . S
C615 C616 1.349 . S
C615 C617 1.327 . S
C615 H640 0.950 . S
C616 C615 1.349 . S
C616 C632 1.349 . S
C617 C615 1.327 . S
C617 C636 1.429 . S
C617 H641 0.950 . S
C618 C635 1.574 . S
C618 C637 1.368 . S
C618 H642 0.949 . S
H619 C623 0.949 . S
C620 C621 1.349 . S
C620 C622 1.327 . S
C620 H643 0.950 . S
C621 C620 1.349 . S
C621 C633 1.349 . S
C622 C620 1.327 . S
C622 C638 1.429 . S
C622 H644 0.950 . S
C623 H619 0.949 . S
C623 C631 1.574 . S
C623 C639 1.368 . S
H624 C632 0.950 . S
H625 C630 0.950 . S
H626 C631 0.949 . S
H627 C633 0.950 . S
H628 C634 0.950 . S
H629 C635 0.949 . S
C630 H625 0.950 . S
C630 C632 1.327 . S
C630 C636 1.429 . S
C631 C623 1.574 . S
C631 H626 0.949 . S
C631 C637 1.368 . S
C632 C616 1.349 . S
C632 H624 0.950 . S
C632 C630 1.327 . S
C633 C621 1.349 . S
C633 H627 0.950 . S
C633 C634 1.327 . S
C634 H628 0.950 . S
C634 C633 1.327 . S
C634 C638 1.429 . S
C635 C618 1.574 . S
C635 H629 0.949 . S
C635 C639 1.368 . S
C636 C617 1.429 . S
C636 C630 1.429 . S
C636 C637 1.523 . S
C637 C618 1.368 . S
C637 C631 1.368 . S
C637 C636 1.523 . S
C638 C622 1.429 . S
C638 C634 1.429 . S
C638 C639 1.523 1_554 S
C639 C623 1.368 . S
C639 C635 1.368 . S
C639 C638 1.523 1_556 S
H640 C615 0.950 . S
H641 C617 0.950 . S
H642 C618 0.949 . S
H643 C620 0.950 . S
H644 C622 0.950 . S
C645 C646 1.349 . S
C645 C647 1.327 . S
C645 H670 0.950 . S
C646 C645 1.349 . S
C646 C662 1.349 . S
C647 C645 1.327 . S
C647 C666 1.429 . S
C647 H671 0.950 . S
C648 C665 1.574 . S
C648 C667 1.368 . S
C648 H672 0.949 . S
H649 C653 0.949 . S
C650 C651 1.349 . S
C650 C652 1.327 . S
C650 H673 0.950 . S
C651 C650 1.349 . S
C651 C663 1.349 . S
C652 C650 1.327 . S
C652 C668 1.429 . S
C652 H674 0.950 . S
C653 H649 0.949 . S
C653 C661 1.574 . S
C653 C669 1.368 . S
H654 C662 0.950 . S
H655 C660 0.950 . S
H656 C661 0.949 . S
H657 C663 0.950 . S
H658 C664 0.950 . S
H659 C665 0.949 . S
C660 H655 0.950 . S
C660 C662 1.327 . S
C660 C666 1.429 . S
C661 C653 1.574 . S
C661 H656 0.949 . S
C661 C667 1.368 . S
C662 C646 1.349 . S
C662 H654 0.950 . S
C662 C660 1.327 . S
C663 C651 1.349 . S
C663 H657 0.950 . S
C663 C664 1.327 . S
C664 H658 0.950 . S
C664 C663 1.327 . S
C664 C668 1.429 . S
C665 C648 1.574 . S
C665 H659 0.949 . S
C665 C669 1.368 . S
C666 C647 1.429 . S
C666 C660 1.429 . S
C666 C667 1.523 . S
C667 C648 1.368 . S
C667 C661 1.368 . S
C667 C666 1.523 . S
C668 C652 1.429 . S
C668 C664 1.429 . S
C668 C669 1.523 . S
C669 C653 1.368 . S
C669 C665 1.368 . S
C669 C668 1.523 . S
H670 C645 0.950 . S
H671 C647 0.950 . S
H672 C648 0.949 . S
H673 C650 0.950 . S
H674 C652 0.950 . S
C136 C20 1.211 . S
C141 C134 1.220 . S
C166 C41 1.235 . S
C171 C112 1.221 . S
C196 C64 1.250 . S
C201 C123 1.236 . S
C226 C19 1.169 . S
C231 C128 1.215 . S
C261 C106 1.178 . S
C256 C44 1.173 . S
C291 C117 1.143 . S
C286 C67 1.142 . S
C316 C43 1.201 . S
C321 C90 1.211 . S
C346 C66 1.096 . S
C351 C95 1.123 1_655 S
C376 C21 1.172 . S
C381 C73 1.177 1_565 S
C411 C84 1.200 . S
C406 C42 1.157 . S
C441 C101 1.235 . S
C436 C65 1.213 . S
C466 C18 1.235 . S
C471 C79 1.222 . S
C501 C96 1.517 . S
C496 C17 1.519 . S
C526 C39 1.528 . S
C531 C74 1.522 . S
C556 C62 1.535 . S
C561 C85 1.529 . S
C591 C118 1.507 . S
C586 C40 1.508 . S
C621 C129 1.516 . S
C616 C63 1.521 . S
C646 C16 1.525 . S
C651 C107 1.518 . S
