# Generated by pormake.
# Topology pyr, (3,6)-cn, num edge types: 1
# Building blocks:
#     Node 0, Type 0, BuildingBlock: PAMTOO_clean_linker_0, # of connection points: 3
#     Node 1, Type 0, BuildingBlock: PAMTOO_clean_linker_0, # of connection points: 3
#     Node 2, Type 0, BuildingBlock: PAMTOO_clean_linker_0, # of connection points: 3
#     Node 3, Type 0, BuildingBlock: PAMTOO_clean_linker_0, # of connection points: 3
#     Node 4, Type 0, BuildingBlock: PAMTOO_clean_linker_0, # of connection points: 3
#     Node 5, Type 0, BuildingBlock: PAMTOO_clean_linker_0, # of connection points: 3
#     Node 6, Type 0, BuildingBlock: PAMTOO_clean_linker_0, # of connection points: 3
#     Node 7, Type 0, BuildingBlock: PAMTOO_clean_linker_0, # of connection points: 3
#     Node 8, Type 1, BuildingBlock: LEVNOQ01_clean_sbu_1, # of connection points: 6
#     Node 9, Type 1, BuildingBlock: LEVNOQ01_clean_sbu_1, # of connection points: 6
#     Node 10, Type 1, BuildingBlock: LEVNOQ01_clean_sbu_1, # of connection points: 6
#     Node 11, Type 1, BuildingBlock: LEVNOQ01_clean_sbu_1, # of connection points: 6
#     Edge 12, Type (0, 1), BuildingBlock: XIVTED_clean_linker_0, # of connection points: 2
#     Edge 13, Type (0, 1), BuildingBlock: XIVTED_clean_linker_0, # of connection points: 2
#     Edge 14, Type (0, 1), BuildingBlock: XIVTED_clean_linker_0, # of connection points: 2
#     Edge 15, Type (0, 1), BuildingBlock: XIVTED_clean_linker_0, # of connection points: 2
#     Edge 16, Type (0, 1), BuildingBlock: XIVTED_clean_linker_0, # of connection points: 2
#     Edge 17, Type (0, 1), BuildingBlock: XIVTED_clean_linker_0, # of connection points: 2
#     Edge 18, Type (0, 1), BuildingBlock: XIVTED_clean_linker_0, # of connection points: 2
#     Edge 19, Type (0, 1), BuildingBlock: XIVTED_clean_linker_0, # of connection points: 2
#     Edge 20, Type (0, 1), BuildingBlock: XIVTED_clean_linker_0, # of connection points: 2
#     Edge 21, Type (0, 1), BuildingBlock: XIVTED_clean_linker_0, # of connection points: 2
#     Edge 22, Type (0, 1), BuildingBlock: XIVTED_clean_linker_0, # of connection points: 2
#     Edge 23, Type (0, 1), BuildingBlock: XIVTED_clean_linker_0, # of connection points: 2
#     Edge 24, Type (0, 1), BuildingBlock: XIVTED_clean_linker_0, # of connection points: 2
#     Edge 25, Type (0, 1), BuildingBlock: XIVTED_clean_linker_0, # of connection points: 2
#     Edge 26, Type (0, 1), BuildingBlock: XIVTED_clean_linker_0, # of connection points: 2
#     Edge 27, Type (0, 1), BuildingBlock: XIVTED_clean_linker_0, # of connection points: 2
#     Edge 28, Type (0, 1), BuildingBlock: XIVTED_clean_linker_0, # of connection points: 2
#     Edge 29, Type (0, 1), BuildingBlock: XIVTED_clean_linker_0, # of connection points: 2
#     Edge 30, Type (0, 1), BuildingBlock: XIVTED_clean_linker_0, # of connection points: 2
#     Edge 31, Type (0, 1), BuildingBlock: XIVTED_clean_linker_0, # of connection points: 2
#     Edge 32, Type (0, 1), BuildingBlock: XIVTED_clean_linker_0, # of connection points: 2
#     Edge 33, Type (0, 1), BuildingBlock: XIVTED_clean_linker_0, # of connection points: 2
#     Edge 34, Type (0, 1), BuildingBlock: XIVTED_clean_linker_0, # of connection points: 2
#     Edge 35, Type (0, 1), BuildingBlock: XIVTED_clean_linker_0, # of connection points: 2
# Relax obj value: 0.092
# Max RMSD: 0.205
# Mean RMSD: 0.143
data_MOF--net-pry--node1-LEVNOQ01_clean_sbu_1--node2-PAMTOO_clean_linker_0--edge1-XIVTED_clean_linker_0
_symmetry_space_group_name_H-M    P1
_symmetry_Int_Tables_number       1
_symmetry_cell_setting            triclinic
loop_
_symmetry_equiv_pos_as_xyz
'x, y, z'
_cell_length_a     36.427164
_cell_length_b     36.067229
_cell_length_c     35.475076
_cell_angle_alpha  92.307904
_cell_angle_beta   92.291579
_cell_angle_gamma 98.493883
loop_
_atom_site_label
_atom_site_type_symbol
_atom_site_fract_x
_atom_site_fract_y
_atom_site_fract_z
_atom_type_partial_charge
H0 H 0.11905 0.18079 0.20917 0.0
H1 H 0.20385 0.10969 0.20266 0.0
H2 H 0.18535 0.1791 0.11106 0.0
H3 H 0.19311 0.09637 0.09055 0.0
C4 C 0.21385 0.09333 0.11369 0.0
O5 O 0.22224 0.12679 0.13485 0.0
H6 H 0.20116 0.0708 0.13176 0.0
C7 C 0.14145 0.17102 0.19434 0.0
C8 C 0.15033 0.18477 0.15854 0.0
C9 C 0.16056 0.14416 0.21099 0.0
C10 C 0.18822 0.12998 0.19057 0.0
C11 C 0.19615 0.1417 0.15425 0.0
C12 C 0.17764 0.16931 0.1385 0.0
H13 H 0.36306 0.95162 0.66936 0.0
H14 H 0.34954 0.8772 0.57029 0.0
H15 H 0.43962 0.87302 0.6502 0.0
H16 H 0.4564 0.87596 0.56854 0.0
C17 C 0.43472 0.85177 0.5595 0.0
O18 O 0.40806 0.84591 0.58606 0.0
H19 H 0.42145 0.85825 0.53226 0.0
C20 C 0.37237 0.92944 0.65246 0.0
C21 C 0.40403 0.91426 0.66465 0.0
C22 C 0.35187 0.91575 0.619 0.0
C23 C 0.36504 0.88855 0.59592 0.0
C24 C 0.39712 0.87402 0.60701 0.0
C25 C 0.41613 0.88632 0.64139 0.0
H26 H 0.73769 0.30819 0.9349 0.0
H27 H 0.67588 0.29991 0.82796 0.0
H28 H 0.71844 0.4075 0.87924 0.0
H29 H 0.64898 0.40345 0.83467 0.0
C30 C 0.65315 0.38168 0.81276 0.0
O31 O 0.68771 0.37129 0.81826 0.0
H32 H 0.6312 0.35702 0.81525 0.0
C33 C 0.72431 0.32102 0.91218 0.0
C34 C 0.72824 0.36039 0.91235 0.0
C35 C 0.70427 0.29822 0.88288 0.0
C36 C 0.69133 0.31592 0.85139 0.0
C37 C 0.69767 0.35503 0.84986 0.0
C38 C 0.71507 0.37725 0.88057 0.0
H39 H 0.89344 0.65611 0.50481 0.0
H40 H 0.88064 0.56128 0.42562 0.0
H41 H 0.9742 0.64718 0.42077 0.0
H42 H 0.91369 0.62982 0.35775 0.0
C43 C 0.91593 0.59937 0.35488 0.0
O44 O 0.93557 0.58853 0.38577 0.0
H45 H 0.88729 0.58342 0.35367 0.0
C46 C 0.90512 0.6395 0.48349 0.0
C47 C 0.93785 0.65479 0.46645 0.0
C48 C 0.88409 0.60591 0.46869 0.0
C49 C 0.89753 0.58614 0.43858 0.0
C50 C 0.9294 0.60158 0.42087 0.0
C51 C 0.9503 0.63494 0.43569 0.0
H52 H 0.84954 0.9217 0.8485 0.0
H53 H 0.84419 0.84791 0.94156 0.0
H54 H 0.9129 0.82987 0.84951 0.0
H55 H 0.85722 0.76538 0.88373 0.0
C56 C 0.87077 0.77107 0.91253 0.0
O57 O 0.89152 0.80653 0.91502 0.0
H58 H 0.84832 0.76999 0.93295 0.0
C59 C 0.85722 0.89728 0.86181 0.0
C60 C 0.88255 0.87695 0.84427 0.0
C61 C 0.84285 0.88731 0.89695 0.0
C62 C 0.85493 0.85663 0.91477 0.0
C63 C 0.88013 0.83604 0.89764 0.0
C64 C 0.89369 0.84617 0.86251 0.0
H65 H 0.70952 0.08473 0.35373 0.0
H66 H 0.62702 0.15839 0.36578 0.0
H67 H 0.71385 0.16111 0.45082 0.0
H68 H 0.64339 0.17276 0.48425 0.0
C69 C 0.6289 0.18092 0.45836 0.0
O70 O 0.65417 0.18848 0.43069 0.0
H71 H 0.60699 0.15712 0.4488 0.0
C72 C 0.69819 0.10658 0.36921 0.0
C73 C 0.716 0.12152 0.40367 0.0
C74 C 0.66596 0.11945 0.35478 0.0
C75 C 0.65112 0.14697 0.37627 0.0
C76 C 0.668 0.16119 0.41107 0.0
C77 C 0.70039 0.1487 0.42455 0.0
H78 H 0.30855 0.73447 0.1146 0.0
H79 H 0.33741 0.65086 0.18962 0.0
H80 H 0.38212 0.7653 0.21279 0.0
H81 H 0.43099 0.71692 0.24265 0.0
C82 C 0.41101 0.69036 0.24031 0.0
O83 O 0.37531 0.69864 0.23787 0.0
H84 H 0.41709 0.67411 0.21451 0.0
C85 C 0.32374 0.72675 0.13914 0.0
C86 C 0.34663 0.75498 0.1615 0.0
C87 C 0.32023 0.68873 0.14836 0.0
C88 C 0.33861 0.67965 0.18166 0.0
C89 C 0.35939 0.70762 0.20517 0.0
C90 C 0.36388 0.74484 0.19495 0.0
H91 H 0.08935 0.36134 0.67176 0.0
H92 H 0.14431 0.47565 0.67169 0.0
H93 H 0.13728 0.40525 0.57078 0.0
H94 H 0.20312 0.48879 0.63877 0.0
C95 C 0.19482 0.49069 0.60842 0.0
O96 O 0.15901 0.47282 0.60032 0.0
H97 H 0.19538 0.52113 0.60421 0.0
C98 C 0.10458 0.3843 0.65742 0.0
C99 C 0.11153 0.37908 0.61895 0.0
C100 C 0.11694 0.41872 0.67736 0.0
C101 C 0.13502 0.44857 0.6575 0.0
C102 C 0.14283 0.44346 0.61938 0.0
C103 C 0.13175 0.40861 0.60041 0.0
O104 O 0.01735 0.03027 0.63813 0.0
Mg105 Mg 0.0575 0.05995 0.60633 0.0
O106 O 0.99876 0.99395 0.58733 0.0
Mg107 Mg 0.02735 0.0214 0.53328 0.0
O108 O 0.04096 0.08336 0.55813 0.0
O109 O 0.06245 0.11625 0.61179 0.0
O110 O 0.05817 0.05318 0.48026 0.0
O111 O 0.96968 0.03769 0.51594 0.0
Mg112 Mg 0.01814 0.99518 0.47232 0.0
O113 O 0.00969 0.95589 0.51172 0.0
O114 O 0.07106 0.00326 0.45076 0.0
O115 O 0.97883 0.03047 0.45592 0.0
O116 O 0.99407 0.94551 0.44997 0.0
C117 C 0.11104 0.01374 0.57646 0.0
C118 C 0.99758 0.00152 0.6228 0.0
C119 C 0.05006 0.11531 0.57712 0.0
C120 C 0.0763 0.03839 0.45498 0.0
C121 C 0.95966 0.04161 0.48178 0.0
C122 C 0.99642 0.93314 0.48332 0.0
O123 O 0.10678 0.03766 0.60234 0.0
O124 O 0.08593 0.0043 0.5502 0.0
O125 O 0.47124 0.07907 0.01331 0.0
Mg126 Mg 0.52824 0.09706 0.0212 0.0
O127 O 0.4769 0.01913 0.02001 0.0
Mg128 Mg 0.53951 0.00997 0.00805 0.0
O129 O 0.55486 0.06709 0.98442 0.0
O130 O 0.55609 0.12841 0.98063 0.0
O131 O 0.60183 -0.00014 0.99595 0.0
O132 O 0.5196 0.98734 0.94719 0.0
Mg133 Mg 0.55099 0.92062 0.99667 0.0
O134 O 0.52375 0.95301 0.02979 0.0
O135 O 0.60769 0.94064 0.00726 0.0
O136 O 0.52989 0.92795 0.94047 0.0
O137 O 0.51855 0.89233 0.03742 0.0
C138 C 0.56188 0.06274 0.08971 0.0
C139 C 0.45687 0.04554 0.01814 0.0
C140 C 0.56612 0.09763 0.9679 0.0
C141 C 0.62193 0.97371 1.00012 0.0
C142 C 0.51879 0.95689 0.92715 0.0
C143 C 0.50894 0.92426 0.04688 0.0
O144 O 0.55133 0.09185 0.07643 0.0
O145 O 0.56 0.03212 0.06967 0.0
O146 O 0.50319 0.58351 0.58855 0.0
Mg147 Mg 0.49949 0.52628 0.5996 0.0
O148 O 0.51625 0.57621 0.5283 0.0
Mg149 Mg 0.527 0.51394 0.51612 0.0
O150 O 0.54335 0.50564 0.57779 0.0
O151 O 0.53508 0.50987 0.63961 0.0
O152 O 0.53773 0.45116 0.50486 0.0
O153 O 0.59 0.53781 0.51116 0.0
Mg154 Mg 0.55289 0.49864 0.43367 0.0
O155 O 0.51082 0.52339 0.45401 0.0
O156 O 0.54604 0.44158 0.44384 0.0
O157 O 0.60354 0.53195 0.45093 0.0
O158 O 0.51989 0.51619 0.39236 0.0
C159 C 0.4413 0.48159 0.54742 0.0
C160 C 0.5091 0.59688 0.55648 0.0
C161 C 0.55418 0.50014 0.61203 0.0
C162 C 0.54233 0.42936 0.47661 0.0
C163 C 0.61272 0.54333 0.48476 0.0
C164 C 0.50156 0.52882 0.41918 0.0
O165 O 0.45057 0.49021 0.58184 0.0
O166 O 0.4637 0.49021 0.52122 0.0
O167 O 0.03605 0.42785 0.10618 0.0
Mg168 Mg 0.06071 0.48058 0.09122 0.0
O169 O 0.04725 0.42749 0.04649 0.0
Mg170 Mg 0.03187 0.48935 0.03025 0.0
O171 O 0.0262 0.52011 0.0909 0.0
O172 O 0.06708 0.51386 0.13851 0.0
O173 O 0.01327 0.54398 0.00751 0.0
O174 O 0.96941 0.46872 0.04312 0.0
Mg175 Mg 0.98607 0.46065 0.97852 0.0
O176 O 0.04075 0.46481 0.96736 0.0
O177 O 0.96533 0.51334 0.97377 0.0
O178 O 0.96036 0.41624 0.01061 0.0
O179 O 0.99371 0.4384 0.92723 0.0
C180 C 0.1208 0.50654 0.04277 0.0
C181 C 0.04204 0.40957 0.07674 0.0
C182 C 0.03975 0.52897 0.12518 0.0
C183 C 0.9839 0.54425 0.98661 0.0
C184 C 0.94984 0.43697 0.03603 0.0
C185 C 0.02873 0.44841 0.9348 0.0
O186 O 0.11458 0.48549 0.07007 0.0
O187 O 0.09339 0.51615 0.02431 0.0
H188 H 0.1603 0.07331 0.23713 0.0
H189 H 0.07222 0.11099 0.43443 0.0
H190 H 0.1396 0.18395 0.27294 0.0
H191 H 0.12539 0.01464 0.40739 0.0
H192 H 0.09597 0.13953 0.37656 0.0
H193 H 0.14573 0.05174 0.29957 0.0
C194 C 0.15309 0.0933 0.25813 0.0
C195 C 0.15144 0.13068 0.2494 0.0
C196 C 0.10286 0.1124 0.38372 0.0
C197 C 0.13373 0.10563 0.32146 0.0
C198 C 0.08956 0.09625 0.41688 0.0
C199 C 0.09655 0.06022 0.42563 0.0
C200 C 0.12296 0.09217 0.3592 0.0
C201 C 0.11893 0.04228 0.40164 0.0
C202 C 0.14456 0.08083 0.29391 0.0
C203 C 0.14079 0.15475 0.27794 0.0
N204 N 0.13086 0.05817 0.36945 0.0
N205 N 0.13216 0.14179 0.31257 0.0
H206 H 0.37253 0.93634 0.72985 0.0
H207 H 0.54032 0.91536 0.86842 0.0
H208 H 0.47819 0.91785 0.68704 0.0
H209 H 0.46534 0.99363 0.89541 0.0
H210 H 0.51473 0.90958 0.80318 0.0
H211 H 0.40279 0.95206 0.79202 0.0
C212 C 0.40216 0.93611 0.73307 0.0
C213 C 0.42267 0.92569 0.70258 0.0
C214 C 0.50411 0.92822 0.82333 0.0
C215 C 0.45709 0.94233 0.77468 0.0
C216 C 0.51849 0.93137 0.86056 0.0
C217 C 0.50475 0.95486 0.88734 0.0
C218 C 0.4751 0.94792 0.81304 0.0
C219 C 0.47671 0.97524 0.87559 0.0
C220 C 0.41931 0.94488 0.76884 0.0
C221 C 0.46086 0.92488 0.70952 0.0
N222 N 0.46236 0.97086 0.83938 0.0
N223 N 0.4767 0.9326 0.74489 0.0
H224 H 0.68332 0.45087 0.79083 0.0
H225 H 0.56182 0.42711 0.59972 0.0
H226 H 0.61877 0.34704 0.74755 0.0
H227 H 0.61784 0.5326 0.64844 0.0
H228 H 0.59989 0.39418 0.64154 0.0
H229 H 0.67536 0.47775 0.72922 0.0
C230 C 0.66758 0.43379 0.76816 0.0
C231 C 0.65047 0.39732 0.77438 0.0
C232 C 0.6049 0.42455 0.64215 0.0
C233 C 0.64155 0.42741 0.70397 0.0
C234 C 0.58361 0.44329 0.61781 0.0
C235 C 0.58676 0.48242 0.62108 0.0
C236 C 0.62889 0.44539 0.66997 0.0
C237 C 0.6147 0.50228 0.64539 0.0
C238 C 0.66326 0.44894 0.73299 0.0
C239 C 0.63137 0.37572 0.74401 0.0
N240 N 0.63415 0.48354 0.66962 0.0
N241 N 0.62683 0.39132 0.71024 0.0
H242 H 0.98836 0.62281 0.33876 0.0
H243 H 0.96555 0.53388 0.12687 0.0
H244 H 0.88545 0.56349 0.28873 0.0
H245 H 0.07121 0.5733 0.185 0.0
H246 H 0.93414 0.55648 0.18126 0.0
H247 H 0.01787 0.61476 0.27862 0.0
C248 C 0.97218 0.60777 0.31514 0.0
C249 C 0.93483 0.59286 0.31884 0.0
C250 C 0.96422 0.56082 0.18176 0.0
C251 C 0.96784 0.58441 0.24987 0.0
C252 C 0.98211 0.54839 0.15054 0.0
C253 C 0.02097 0.55152 0.1517 0.0
C254 C 0.98545 0.57662 0.21403 0.0
C255 C 0.04115 0.57009 0.18321 0.0
C256 C 0.98884 0.60343 0.2808 0.0
C257 C 0.91459 0.57463 0.28717 0.0
N258 N 0.02317 0.58157 0.21329 0.0
N259 N 0.9314 0.57072 0.25403 0.0
H260 H 0.24309 0.11107 0.04555 0.0
H261 H 0.42126 0.00602 0.07435 0.0
H262 H 0.26326 0.05072 0.14477 0.0
H263 H 0.40236 0.07437 0.98069 0.0
H264 H 0.3595 0.01372 0.0966 0.0
H265 H 0.29838 0.09172 0.01837 0.0
C266 C 0.25923 0.09366 0.06154 0.0
C267 C 0.24849 0.08218 0.09723 0.0
C268 C 0.36861 0.02639 0.07076 0.0
C269 C 0.31201 0.05984 0.06647 0.0
C270 C 0.40359 0.02149 0.05778 0.0
C271 C 0.41683 0.03956 0.02562 0.0
C272 C 0.3469 0.04939 0.05129 0.0
C273 C 0.39317 0.05999 0.00563 0.0
C274 C 0.29074 0.08247 0.04603 0.0
C275 C 0.27055 0.0599 0.117 0.0
N276 N 0.35964 0.06462 0.01893 0.0
N277 N 0.30127 0.04942 0.10138 0.0
H278 H 0.29861 0.92509 0.66857 0.0
H279 H 0.14721 0.98033 0.51981 0.0
H280 H 0.32047 0.93141 0.5501 0.0
H281 H 0.15157 0.00569 0.64003 0.0
H282 H 0.20552 0.95339 0.52781 0.0
H283 H 0.23891 0.94526 0.65598 0.0
C284 C 0.29103 0.93114 0.63987 0.0
C285 C 0.31506 0.92741 0.61051 0.0
C286 C 0.19345 0.96486 0.55226 0.0
C287 C 0.24589 0.94999 0.59566 0.0
C288 C 0.16024 0.98002 0.54775 0.0
C289 C 0.14477 0.99555 0.57925 0.0
C290 C 0.21051 0.96476 0.58855 0.0
C291 C 0.16268 0.99451 0.61484 0.0
C292 C 0.25672 0.94242 0.63263 0.0
C293 C 0.30289 0.93419 0.57362 0.0
N294 N 0.19439 0.97941 0.61846 0.0
N295 N 0.26912 0.94542 0.5672 0.0
H296 H 0.77487 0.42796 0.91172 0.0
H297 H 0.90429 0.37132 0.04598 0.0
H298 H 0.72774 0.34497 0.98773 0.0
H299 H 0.90494 0.49065 0.04052 0.0
H300 H 0.83719 0.36144 0.03207 0.0
H301 H 0.8189 0.45532 0.96222 0.0
C302 C 0.77294 0.41601 0.9392 0.0
C303 C 0.74851 0.383 0.94484 0.0
C304 C 0.85176 0.3899 0.03554 0.0
C305 C 0.79963 0.41372 1.00236 0.0
C306 C 0.89001 0.39548 0.0435 0.0
C307 C 0.91009 0.43171 0.04365 0.0
C308 C 0.83416 0.42062 0.02617 0.0
C309 C 0.8904 0.46218 0.0402 0.0
C310 C 0.79816 0.43176 0.96813 0.0
C311 C 0.74744 0.36919 0.98142 0.0
N312 N 0.85363 0.45589 0.02995 0.0
N313 N 0.77365 0.38369 0.00842 0.0
H314 H 0.82726 0.59853 0.41696 0.0
H315 H 0.66111 0.53436 0.54434 0.0
H316 H 0.85019 0.59725 0.53714 0.0
H317 H 0.6516 0.59379 0.44218 0.0
H318 H 0.72915 0.55371 0.54589 0.0
H319 H 0.76135 0.58986 0.4273 0.0
C320 C 0.81829 0.59584 0.44562 0.0
C321 C 0.84413 0.59788 0.47621 0.0
C322 C 0.7119 0.56324 0.5238 0.0
C323 C 0.76825 0.58886 0.48842 0.0
C324 C 0.67324 0.55241 0.52299 0.0
C325 C 0.65109 0.56203 0.49266 0.0
C326 C 0.72785 0.58346 0.49397 0.0
C327 C 0.66789 0.58522 0.4656 0.0
C328 C 0.78062 0.59147 0.45158 0.0
C329 C 0.83094 0.59537 0.51285 0.0
N330 N 0.70525 0.59466 0.4666 0.0
N331 N 0.79362 0.59056 0.51804 0.0
H332 H 0.12548 0.24271 0.19796 0.0
H333 H 0.0808 0.36709 0.02994 0.0
H334 H 0.13333 0.1993 0.08365 0.0
H335 H 0.02274 0.36367 0.1337 0.0
H336 H 0.10481 0.30899 0.04655 0.0
H337 H 0.09403 0.29201 0.17364 0.0
C338 C 0.12024 0.24298 0.16774 0.0
C339 C 0.13172 0.21585 0.14309 0.0
C340 C 0.08626 0.32077 0.06521 0.0
C341 C 0.0965 0.27405 0.11478 0.0
C342 C 0.07239 0.35375 0.05567 0.0
C343 C 0.05011 0.37063 0.08071 0.0
C344 C 0.07811 0.30513 0.10016 0.0
C345 C 0.04028 0.35214 0.11377 0.0
C346 C 0.10239 0.27153 0.15384 0.0
C347 C 0.12534 0.21945 0.10396 0.0
N348 N 0.0548 0.32093 0.12277 0.0
N349 N 0.10836 0.24811 0.09099 0.0
H350 H 0.7004 0.25881 0.94823 0.0
H351 H 0.55424 0.11596 0.89577 0.0
H352 H 0.68633 0.24101 0.82659 0.0
H353 H 0.63833 0.08802 0.97379 0.0
H354 H 0.60233 0.15378 0.86195 0.0
H355 H 0.68046 0.19324 0.95484 0.0
C356 C 0.6944 0.24144 0.92256 0.0
C357 C 0.69539 0.25661 0.88658 0.0
C358 C 0.61058 0.13769 0.88514 0.0
C359 C 0.66999 0.18032 0.89482 0.0
C360 C 0.58314 0.11594 0.90433 0.0
C361 C 0.59254 0.09965 0.93787 0.0
C362 C 0.64703 0.14408 0.9008 0.0
C363 C 0.63015 0.10066 0.94818 0.0
C364 C 0.68274 0.20351 0.92661 0.0
C365 C 0.68511 0.23151 0.85507 0.0
N366 N 0.65609 0.12407 0.93069 0.0
N367 N 0.67164 0.19481 0.85999 0.0
H368 H 0.95315 0.69471 0.535 0.0
H369 H 0.95128 0.88554 0.43525 0.0
H370 H 0.95435 0.70702 0.41446 0.0
H371 H 0.0158 0.88816 0.5404 0.0
H372 H 0.93976 0.81772 0.43516 0.0
H373 H 0.9677 0.7637 0.54433 0.0
C374 C 0.95715 0.71179 0.51065 0.0
C375 C 0.95279 0.69507 0.47391 0.0
C376 C 0.95642 0.83303 0.45835 0.0
C377 C 0.96826 0.77308 0.48436 0.0
C378 C 0.96292 0.87183 0.45854 0.0
C379 C 0.98521 0.89253 0.4875 0.0
C380 C 0.97211 0.8144 0.48736 0.0
C381 C 0.99872 0.87311 0.51739 0.0
C382 C 0.96541 0.75093 0.51602 0.0
C383 C 0.95806 0.71839 0.4433 0.0
N384 N 0.99219 0.8348 0.51647 0.0
N385 N 0.96504 0.75608 0.44924 0.0
H386 H 0.48261 0.82608 0.60957 0.0
H387 H 0.4869 0.63145 0.49367 0.0
H388 H 0.42644 0.79839 0.50066 0.0
H389 H 0.52309 0.65311 0.61069 0.0
H390 H 0.47446 0.6964 0.49093 0.0
H391 H 0.50719 0.76646 0.60589 0.0
C392 C 0.47598 0.80755 0.58465 0.0
C393 C 0.45276 0.81705 0.5553 0.0
C394 C 0.48558 0.68701 0.51705 0.0
C395 C 0.48026 0.74875 0.55092 0.0
C396 C 0.49303 0.6501 0.51845 0.0
C397 C 0.50604 0.63693 0.55237 0.0
C398 C 0.49141 0.71081 0.5498 0.0
C399 C 0.51278 0.66203 0.584 0.0
C400 C 0.48983 0.77354 0.58256 0.0
C401 C 0.44447 0.79204 0.52376 0.0
N402 N 0.50525 0.69764 0.58199 0.0
N403 N 0.45813 0.75891 0.52243 0.0
H404 H 0.95439 0.87967 0.82281 0.0
H405 H 0.92262 0.97444 0.62525 0.0
H406 H 0.84679 0.90158 0.78209 0.0
H407 H 0.02947 0.96879 0.67943 0.0
H408 H 0.89271 0.93842 0.6765 0.0
H409 H 0.98066 0.90276 0.76456 0.0
C410 C 0.93613 0.8889 0.80144 0.0
C411 C 0.8983 0.88883 0.80764 0.0
C412 C 0.92273 0.94462 0.67677 0.0
C413 C 0.92848 0.91596 0.74062 0.0
C414 C 0.9397 0.96482 0.64742 0.0
C415 C 0.97846 0.9744 0.64827 0.0
C416 C 0.94485 0.93388 0.70676 0.0
C417 C -0.00054 0.9619 0.67785 0.0
C418 C 0.95123 0.90235 0.76818 0.0
C419 C 0.87623 0.90168 0.77889 0.0
N420 N 0.98246 0.94247 0.70587 0.0
N421 N 0.89165 0.91488 0.74674 0.0
H422 H 0.59193 0.10955 0.33079 0.0
H423 H 0.61806 0.02959 0.12214 0.0
H424 H 0.70045 0.097 0.29147 0.0
H425 H 0.53656 0.1011 0.14806 0.0
H426 H 0.64269 0.03891 0.18821 0.0
H427 H 0.56536 0.09148 0.26729 0.0
C428 C 0.61031 0.10308 0.30903 0.0
C429 C 0.64877 0.10541 0.31684 0.0
C430 C 0.61923 0.05223 0.17932 0.0
C431 C 0.61796 0.08332 0.24415 0.0
C432 C 0.60511 0.0468 0.14183 0.0
C433 C 0.57548 0.06487 0.12969 0.0
C434 C 0.60286 0.07501 0.20482 0.0
C435 C 0.55971 0.087 0.15622 0.0
C436 C 0.59496 0.09245 0.27281 0.0
C437 C 0.67067 0.0953 0.28731 0.0
N438 N 0.57348 0.09132 0.19252 0.0
N439 N 0.65497 0.08475 0.25233 0.0
H440 H 0.38175 0.61728 0.24865 0.0
H441 H 0.50207 0.60234 0.43735 0.0
H442 H 0.44841 0.71169 0.3085 0.0
H443 H 0.44011 0.50775 0.37389 0.0
H444 H 0.46941 0.64452 0.40055 0.0
H445 H 0.3911 0.57854 0.30234 0.0
C446 C 0.39826 0.62975 0.27329 0.0
C447 C 0.41518 0.66725 0.27399 0.0
C448 C 0.46196 0.61449 0.39549 0.0
C449 C 0.42582 0.62354 0.3355 0.0
C450 C 0.48003 0.59049 0.41709 0.0
C451 C 0.47318 0.55177 0.40885 0.0
C452 C 0.43749 0.59939 0.36518 0.0
C453 C 0.4458 0.53757 0.3811 0.0
C454 C 0.40344 0.60781 0.30397 0.0
C455 C 0.43562 0.68257 0.3067 0.0
N456 N 0.42935 0.56142 0.35977 0.0
N457 N 0.44083 0.6605 0.33602 0.0
H458 H 0.11724 0.36601 0.7315 0.0
H459 H 0.07844 0.50159 0.90426 0.0
H460 H 0.10363 0.48193 0.71837 0.0
H461 H 0.03385 0.38394 0.89499 0.0
H462 H 0.10698 0.495 0.843 0.0
H463 H 0.10404 0.37292 0.79812 0.0
C464 C 0.11141 0.3929 0.74236 0.0
C465 C 0.11099 0.42324 0.71868 0.0
C466 C 0.09169 0.47052 0.85493 0.0
C467 C 0.09749 0.43155 0.79563 0.0
C468 C 0.07588 0.47415 0.88996 0.0
C469 C 0.05409 0.44317 0.90451 0.0
C470 C 0.08607 0.43554 0.83497 0.0
C471 C 0.05069 0.40838 0.88461 0.0
C472 C 0.10432 0.39685 0.78057 0.0
C473 C 0.10462 0.45774 0.73521 0.0
N474 N 0.06642 0.40548 0.85076 0.0
N475 N 0.09805 0.46092 0.7726 0.0
H476 H 0.83443 0.90406 0.97261 0.0
H477 H 0.65296 0.00193 0.93635 0.0
H478 H 0.7873 0.91969 0.86173 0.0
H479 H 0.67944 0.95264 0.04073 0.0
H480 H 0.71197 0.988 0.91197 0.0
H481 H 0.78639 0.93566 1.00049 0.0
C482 C 0.81411 0.91404 0.95401 0.0
C483 C 0.81499 0.90861 0.91458 0.0
C484 C 0.70529 0.98115 0.94058 0.0
C485 C 0.76024 0.94594 0.94662 0.0
C486 C 0.67193 0.98968 0.9547 0.0
C487 C 0.66146 0.97854 0.99065 0.0
C488 C 0.72834 0.96169 0.96276 0.0
C489 C 0.68663 0.96182 0.01292 0.0
C490 C 0.78684 0.93244 0.97004 0.0
C491 C 0.78825 0.92335 0.89219 0.0
N492 N 0.71867 0.95358 0.99853 0.0
N493 N 0.76198 0.94109 0.90848 0.0
H494 H 0.73942 0.10793 0.47599 0.0
H495 H 0.93579 0.05923 0.41194 0.0
H496 H 0.77473 0.10999 0.36129 0.0
H497 H 0.90455 0.05807 0.52805 0.0
H498 H 0.87716 0.0796 0.3939 0.0
H499 H 0.7996 0.09102 0.4965 0.0
C500 C 0.75981 0.1049 0.45513 0.0
C501 C 0.75186 0.1102 0.41679 0.0
C502 C 0.88304 0.07505 0.42338 0.0
C503 C 0.8207 0.09078 0.44007 0.0
C504 C 0.91664 0.06343 0.43375 0.0
C505 C 0.92511 0.05675 0.47159 0.0
C506 C 0.85737 0.07998 0.45094 0.0
C507 C 0.89917 0.06289 0.49856 0.0
C508 C 0.79411 0.09515 0.46686 0.0
C509 C 0.77925 0.10555 0.39101 0.0
N510 N 0.86633 0.07399 0.48768 0.0
N511 N 0.81233 0.09615 0.40311 0.0
H512 H 0.30555 0.68662 0.0707 0.0
H513 H 0.18485 0.4847 0.06948 0.0
H514 H 0.28203 0.62135 0.16903 0.0
H515 H 0.14369 0.57345 0.01016 0.0
H516 H 0.2423 0.52702 0.08634 0.0
H517 H 0.26436 0.63828 0.03241 0.0
C518 C 0.29206 0.66237 0.08444 0.0
C519 C 0.29732 0.65867 0.12365 0.0
C520 C 0.22112 0.53677 0.06858 0.0
C521 C 0.25224 0.60246 0.07921 0.0
C522 C 0.18841 0.51267 0.05881 0.0
C523 C 0.15901 0.52603 0.03947 0.0
C524 C 0.22452 0.57426 0.05867 0.0
C525 C 0.16544 0.56229 0.02572 0.0
C526 C 0.26903 0.63464 0.06229 0.0
C527 C 0.27985 0.62568 0.1391 0.0
N528 N 0.19732 0.58565 0.03643 0.0
N529 N 0.25824 0.59897 0.11686 0.0
H530 H 0.22357 0.5182 0.54294 0.0
H531 H 0.40063 0.42399 0.58075 0.0
H532 H 0.22889 0.4288 0.61894 0.0
H533 H 0.39303 0.50501 0.49592 0.0
H534 H 0.333 0.41276 0.582 0.0
H535 H 0.27908 0.50237 0.51314 0.0
C536 C 0.23601 0.49462 0.55268 0.0
C537 C 0.22253 0.47542 0.58406 0.0
C538 C 0.34588 0.43229 0.56231 0.0
C539 C 0.28606 0.45736 0.55056 0.0
C540 C 0.3845 0.43849 0.56146 0.0
C541 C 0.40221 0.46574 0.53854 0.0
C542 C 0.32493 0.45444 0.541 0.0
C543 C 0.38027 0.48381 0.51404 0.0
C544 C 0.26769 0.48558 0.53573 0.0
C545 C 0.2391 0.44475 0.5953 0.0
N546 N 0.34269 0.47863 0.51667 0.0
N547 N 0.27053 0.43717 0.57912 0.0
H548 H 0.8818 0.71013 0.86779 0.0
H549 H 0.00151 0.61518 0.02143 0.0
H550 H 0.9119 0.76269 0.97814 0.0
H551 H 0.93762 0.55506 0.92712 0.0
H552 H 0.97827 0.67297 1.00279 0.0
H553 H 0.91263 0.65716 0.88526 0.0
C554 C 0.8954 0.71076 0.89558 0.0
C555 C 0.89434 0.74093 0.92153 0.0
C556 C 0.96951 0.64708 0.98621 0.0
C557 C 0.92946 0.67988 0.94203 0.0
C558 C 0.98282 0.61414 0.99676 0.0
C559 C 0.97138 0.58009 0.97595 0.0
C560 C 0.94518 0.64607 0.95423 0.0
C561 C 0.94702 0.58046 0.94427 0.0
C562 C 0.91282 0.68036 0.90565 0.0
C563 C 0.91229 0.74005 0.95726 0.0
N564 N 0.93494 0.61278 0.93439 0.0
N565 N 0.92903 0.70996 0.96655 0.0
H566 H 0.36556 0.82189 0.20412 0.0
H567 H 0.43836 0.92906 0.02453 0.0
H568 H 0.3489 0.77817 0.0883 0.0
H569 H 0.50833 0.91721 0.12269 0.0
H570 H 0.38426 0.90031 0.05767 0.0
H571 H 0.39677 0.88097 0.18148 0.0
C572 C 0.36773 0.82462 0.174 0.0
C573 C 0.35579 0.79397 0.14831 0.0
C574 C 0.41119 0.90583 0.07256 0.0
C575 C 0.38914 0.86256 0.12251 0.0
C576 C 0.44193 0.92244 0.05386 0.0
C577 C 0.47755 0.92511 0.07107 0.0
C578 C 0.41647 0.89241 0.10863 0.0
C579 C 0.48112 0.91549 0.1087 0.0
C580 C 0.38501 0.85866 0.16124 0.0
C581 C 0.35769 0.8004 0.10952 0.0
N582 N 0.45092 0.89885 0.12615 0.0
N583 N 0.37459 0.83378 0.09788 0.0
H584 H 0.14809 0.33769 0.57028 0.0
H585 H 0.99569 0.15829 0.58364 0.0
H586 H 0.04241 0.33785 0.62091 0.0
H587 H 0.1025 0.1552 0.53698 0.0
H588 H 0.00547 0.22664 0.58078 0.0
H589 H 0.12617 0.27429 0.54331 0.0
C590 C 0.12007 0.32462 0.5752 0.0
C591 C 0.09732 0.3427 0.59855 0.0
C592 C 0.02635 0.21107 0.56998 0.0
C593 C 0.07208 0.27024 0.56792 0.0
C594 C 0.02044 0.17202 0.57108 0.0
C595 C 0.04822 0.15138 0.56023 0.0
C596 C 0.06072 0.22947 0.55888 0.0
C597 C 0.08029 0.17034 0.54518 0.0
C598 C 0.10757 0.28842 0.55985 0.0
C599 C 0.06123 0.3245 0.60393 0.0
N600 N 0.08609 0.20848 0.5457 0.0
N601 N 0.04992 0.28916 0.58915 0.0
H602 H 0.64453 0.23368 0.51749 0.0
H603 H 0.51664 0.37141 0.42743 0.0
H604 H 0.57389 0.20641 0.41689 0.0
H605 H 0.57714 0.39721 0.53448 0.0
H606 H 0.53301 0.30842 0.42691 0.0
H607 H 0.61735 0.29154 0.52745 0.0
C608 C 0.62295 0.23975 0.49779 0.0
C609 C 0.61103 0.21522 0.46654 0.0
C610 C 0.54234 0.32749 0.45089 0.0
C611 C 0.58022 0.28125 0.47741 0.0
C612 C 0.53283 0.36345 0.45126 0.0
C613 C 0.54563 0.38949 0.48101 0.0
C614 C 0.56544 0.31749 0.48021 0.0
C615 C 0.56651 0.37779 0.51117 0.0
C616 C 0.60745 0.27268 0.50348 0.0
C617 C 0.58348 0.22449 0.44151 0.0
N618 N 0.57632 0.34272 0.50973 0.0
N619 N 0.56913 0.2568 0.4474 0.0
loop_
_geom_bond_atom_site_label_1
_geom_bond_atom_site_label_2
_geom_bond_distance
_geom_bond_site_symmetry_2
_ccdc_geom_bond_type
H0 C7 0.929 . S
H1 C10 0.930 . S
H2 C12 0.929 . S
H3 C4 0.969 . S
C4 H3 0.969 . S
C4 O5 1.550 . S
C4 H6 0.973 . S
O5 C4 1.550 . S
O5 C11 1.412 . S
H6 C4 0.973 . S
C7 H0 0.929 . S
C7 C8 1.400 . S
C7 C9 1.364 . S
C8 C7 1.400 . S
C8 C12 1.377 . S
C9 C7 1.364 . S
C9 C10 1.374 . S
C10 H1 0.930 . S
C10 C9 1.374 . S
C10 C11 1.383 . S
C11 O5 1.412 . S
C11 C10 1.383 . S
C11 C12 1.394 . S
C12 H2 0.929 . S
C12 C8 1.377 . S
C12 C11 1.394 . S
H13 C20 0.929 . S
H14 C23 0.930 . S
H15 C25 0.929 . S
H16 C17 0.969 . S
C17 H16 0.969 . S
C17 O18 1.550 . S
C17 H19 0.973 . S
O18 C17 1.550 . S
O18 C24 1.412 . S
H19 C17 0.973 . S
C20 H13 0.929 . S
C20 C21 1.400 . S
C20 C22 1.364 . S
C21 C20 1.400 . S
C21 C25 1.377 . S
C22 C20 1.364 . S
C22 C23 1.374 . S
C23 H14 0.930 . S
C23 C22 1.374 . S
C23 C24 1.383 . S
C24 O18 1.412 . S
C24 C23 1.383 . S
C24 C25 1.394 . S
C25 H15 0.929 . S
C25 C21 1.377 . S
C25 C24 1.394 . S
H26 C33 0.929 . S
H27 C36 0.930 . S
H28 C38 0.929 . S
H29 C30 0.969 . S
C30 H29 0.969 . S
C30 O31 1.550 . S
C30 H32 0.973 . S
O31 C30 1.550 . S
O31 C37 1.412 . S
H32 C30 0.973 . S
C33 H26 0.929 . S
C33 C34 1.400 . S
C33 C35 1.364 . S
C34 C33 1.400 . S
C34 C38 1.377 . S
C35 C33 1.364 . S
C35 C36 1.374 . S
C36 H27 0.930 . S
C36 C35 1.374 . S
C36 C37 1.383 . S
C37 O31 1.412 . S
C37 C36 1.383 . S
C37 C38 1.394 . S
C38 H28 0.929 . S
C38 C34 1.377 . S
C38 C37 1.394 . S
H39 C46 0.929 . S
H40 C49 0.930 . S
H41 C51 0.929 . S
H42 C43 0.969 . S
C43 H42 0.969 . S
C43 O44 1.550 . S
C43 H45 0.973 . S
O44 C43 1.550 . S
O44 C50 1.412 . S
H45 C43 0.973 . S
C46 H39 0.929 . S
C46 C47 1.400 . S
C46 C48 1.364 . S
C47 C46 1.400 . S
C47 C51 1.377 . S
C48 C46 1.364 . S
C48 C49 1.374 . S
C49 H40 0.930 . S
C49 C48 1.374 . S
C49 C50 1.383 . S
C50 O44 1.412 . S
C50 C49 1.383 . S
C50 C51 1.394 . S
C51 H41 0.929 . S
C51 C47 1.377 . S
C51 C50 1.394 . S
H52 C59 0.929 . S
H53 C62 0.930 . S
H54 C64 0.929 . S
H55 C56 0.969 . S
C56 H55 0.969 . S
C56 O57 1.550 . S
C56 H58 0.973 . S
O57 C56 1.550 . S
O57 C63 1.412 . S
H58 C56 0.973 . S
C59 H52 0.929 . S
C59 C60 1.400 . S
C59 C61 1.364 . S
C60 C59 1.400 . S
C60 C64 1.377 . S
C61 C59 1.364 . S
C61 C62 1.374 . S
C62 H53 0.930 . S
C62 C61 1.374 . S
C62 C63 1.383 . S
C63 O57 1.412 . S
C63 C62 1.383 . S
C63 C64 1.394 . S
C64 H54 0.929 . S
C64 C60 1.377 . S
C64 C63 1.394 . S
H65 C72 0.929 . S
H66 C75 0.930 . S
H67 C77 0.929 . S
H68 C69 0.969 . S
C69 H68 0.969 . S
C69 O70 1.550 . S
C69 H71 0.973 . S
O70 C69 1.550 . S
O70 C76 1.412 . S
H71 C69 0.973 . S
C72 H65 0.929 . S
C72 C73 1.400 . S
C72 C74 1.364 . S
C73 C72 1.400 . S
C73 C77 1.377 . S
C74 C72 1.364 . S
C74 C75 1.374 . S
C75 H66 0.930 . S
C75 C74 1.374 . S
C75 C76 1.383 . S
C76 O70 1.412 . S
C76 C75 1.383 . S
C76 C77 1.394 . S
C77 H67 0.929 . S
C77 C73 1.377 . S
C77 C76 1.394 . S
H78 C85 0.929 . S
H79 C88 0.930 . S
H80 C90 0.929 . S
H81 C82 0.969 . S
C82 H81 0.969 . S
C82 O83 1.550 . S
C82 H84 0.973 . S
O83 C82 1.550 . S
O83 C89 1.412 . S
H84 C82 0.973 . S
C85 H78 0.929 . S
C85 C86 1.400 . S
C85 C87 1.364 . S
C86 C85 1.400 . S
C86 C90 1.377 . S
C87 C85 1.364 . S
C87 C88 1.374 . S
C88 H79 0.930 . S
C88 C87 1.374 . S
C88 C89 1.383 . S
C89 O83 1.412 . S
C89 C88 1.383 . S
C89 C90 1.394 . S
C90 H80 0.929 . S
C90 C86 1.377 . S
C90 C89 1.394 . S
H91 C98 0.929 . S
H92 C101 0.930 . S
H93 C103 0.929 . S
H94 C95 0.969 . S
C95 H94 0.969 . S
C95 O96 1.550 . S
C95 H97 0.973 . S
O96 C95 1.550 . S
O96 C102 1.412 . S
H97 C95 0.973 . S
C98 H91 0.929 . S
C98 C99 1.400 . S
C98 C100 1.364 . S
C99 C98 1.400 . S
C99 C103 1.377 . S
C100 C98 1.364 . S
C100 C101 1.374 . S
C101 H92 0.930 . S
C101 C100 1.374 . S
C101 C102 1.383 . S
C102 O96 1.412 . S
C102 C101 1.383 . S
C102 C103 1.394 . S
C103 H93 0.929 . S
C103 C99 1.377 . S
C103 C102 1.394 . S
O104 Mg105 1.990 . S
O104 C118 1.253 1_445 S
Mg105 O104 1.990 . S
Mg105 O108 2.180 . S
Mg105 O109 2.117 . S
Mg105 O123 2.030 . S
O106 Mg107 2.072 1_665 S
O106 C118 1.260 . S
Mg107 O106 2.072 1_445 S
Mg107 O108 2.099 . S
Mg107 O110 2.079 . S
Mg107 O111 2.072 1_455 S
Mg107 O113 2.099 1_445 S
Mg107 O124 2.079 1_545 S
O108 Mg105 2.180 . S
O108 Mg107 2.099 . S
O108 C119 1.279 . S
O109 Mg105 2.117 . S
O109 C119 1.250 . S
O110 Mg107 2.079 . S
O110 C120 1.264 . S
O111 Mg107 2.072 1_655 S
O111 C121 1.260 . S
Mg112 O113 2.180 . S
Mg112 O114 2.030 1_565 S
Mg112 O115 1.990 1_565 S
Mg112 O116 2.117 . S
O113 Mg107 2.099 1_665 S
O113 Mg112 2.180 . S
O113 C122 1.279 . S
O114 Mg112 2.030 1_545 S
O114 C120 1.248 1_655 S
O115 Mg112 1.990 1_545 S
O115 C121 1.253 . S
O116 Mg112 2.117 . S
O116 C122 1.250 . S
C117 O123 1.248 1_565 S
C117 O124 1.264 . S
C118 O104 1.253 1_665 S
C118 O106 1.260 . S
C119 O108 1.279 . S
C119 O109 1.250 . S
C120 O110 1.264 . S
C120 O114 1.248 1_455 S
C121 O111 1.260 . S
C121 O115 1.253 . S
C122 O113 1.279 . S
C122 O116 1.250 . S
O123 Mg105 2.030 . S
O123 C117 1.248 1_545 S
O124 Mg107 2.079 1_565 S
O124 C117 1.264 . S
O125 Mg126 1.990 . S
O125 C139 1.253 . S
Mg126 O125 1.990 . S
Mg126 O129 2.179 . S
Mg126 O130 2.117 1_554 S
Mg126 O144 2.030 . S
O127 Mg128 2.072 . S
O127 C139 1.260 . S
Mg128 O127 2.072 . S
Mg128 O129 2.098 . S
Mg128 O131 2.079 1_554 S
Mg128 O132 2.072 1_554 S
Mg128 O134 2.099 1_545 S
Mg128 O145 2.079 . S
O129 Mg126 2.179 . S
O129 Mg128 2.098 . S
O129 C140 1.280 1_554 S
O130 Mg126 2.117 1_556 S
O130 C140 1.250 . S
O131 Mg128 2.079 1_556 S
O131 C141 1.264 1_545 S
O132 Mg128 2.072 1_556 S
O132 C142 1.260 1_545 S
Mg133 O134 2.180 1_556 S
Mg133 O135 2.030 . S
Mg133 O136 1.990 . S
Mg133 O137 2.117 1_556 S
O134 Mg128 2.099 1_565 S
O134 Mg133 2.180 1_554 S
O134 C143 1.279 . S
O135 Mg133 2.030 . S
O135 C141 1.248 . S
O136 Mg133 1.990 . S
O136 C142 1.253 . S
O137 Mg133 2.117 1_554 S
O137 C143 1.250 . S
C138 O144 1.248 . S
C138 O145 1.264 . S
C139 O125 1.253 . S
C139 O127 1.260 . S
C140 O129 1.280 1_556 S
C140 O130 1.250 . S
C141 O131 1.264 1_565 S
C141 O135 1.248 . S
C142 O132 1.260 1_565 S
C142 O136 1.253 . S
C143 O134 1.279 . S
C143 O137 1.250 . S
O144 Mg126 2.030 . S
O144 C138 1.248 . S
O145 Mg128 2.079 . S
O145 C138 1.264 . S
O146 Mg147 1.990 . S
O146 C160 1.253 . S
Mg147 O146 1.990 . S
Mg147 O150 2.180 . S
Mg147 O151 2.117 . S
Mg147 O165 2.030 . S
O148 Mg149 2.072 . S
O148 C160 1.260 . S
Mg149 O148 2.072 . S
Mg149 O150 2.099 . S
Mg149 O152 2.079 . S
Mg149 O153 2.072 . S
Mg149 O155 2.099 . S
Mg149 O166 2.079 . S
O150 Mg147 2.180 . S
O150 Mg149 2.099 . S
O150 C161 1.279 . S
O151 Mg147 2.117 . S
O151 C161 1.250 . S
O152 Mg149 2.079 . S
O152 C162 1.264 . S
O153 Mg149 2.072 . S
O153 C163 1.260 . S
Mg154 O155 2.180 . S
Mg154 O156 2.030 . S
Mg154 O157 1.990 . S
Mg154 O158 2.117 . S
O155 Mg149 2.099 . S
O155 Mg154 2.180 . S
O155 C164 1.279 . S
O156 Mg154 2.030 . S
O156 C162 1.248 . S
O157 Mg154 1.990 . S
O157 C163 1.253 . S
O158 Mg154 2.117 . S
O158 C164 1.250 . S
C159 O165 1.248 . S
C159 O166 1.264 . S
C160 O146 1.253 . S
C160 O148 1.260 . S
C161 O150 1.279 . S
C161 O151 1.250 . S
C162 O152 1.264 . S
C162 O156 1.248 . S
C163 O153 1.260 . S
C163 O157 1.253 . S
C164 O155 1.279 . S
C164 O158 1.250 . S
O165 Mg147 2.030 . S
O165 C159 1.248 . S
O166 Mg149 2.079 . S
O166 C159 1.264 . S
O167 Mg168 1.990 . S
O167 C181 1.253 . S
Mg168 O167 1.990 . S
Mg168 O171 2.180 . S
Mg168 O172 2.117 . S
Mg168 O186 2.030 . S
O169 Mg170 2.072 . S
O169 C181 1.260 . S
Mg170 O169 2.072 . S
Mg170 O171 2.099 . S
Mg170 O173 2.079 . S
Mg170 O174 2.072 1_455 S
Mg170 O176 2.099 1_554 S
Mg170 O187 2.079 . S
O171 Mg168 2.180 . S
O171 Mg170 2.099 . S
O171 C182 1.279 . S
O172 Mg168 2.117 . S
O172 C182 1.250 . S
O173 Mg170 2.079 . S
O173 C183 1.258 1_454 S
O174 Mg170 2.072 1_655 S
O174 C184 1.260 1_554 S
Mg175 O176 2.180 1_655 S
Mg175 O177 2.030 . S
Mg175 O178 1.990 . S
Mg175 O179 2.117 1_655 S
O176 Mg170 2.099 1_556 S
O176 Mg175 2.180 1_455 S
O176 C185 1.279 . S
O177 Mg175 2.030 . S
O177 C183 1.251 . S
O178 Mg175 1.990 . S
O178 C184 1.253 . S
O179 Mg175 2.117 1_455 S
O179 C185 1.250 . S
C180 O186 1.248 . S
C180 O187 1.264 . S
C181 O167 1.253 . S
C181 O169 1.260 . S
C182 O171 1.279 . S
C182 O172 1.250 . S
C183 O173 1.258 1_656 S
C183 O177 1.251 . S
C184 O174 1.260 1_556 S
C184 O178 1.253 . S
C185 O176 1.279 . S
C185 O179 1.250 . S
O186 Mg168 2.030 . S
O186 C180 1.248 . S
O187 Mg170 2.079 . S
O187 C180 1.264 . S
H188 C194 0.930 . S
H189 C198 0.930 . S
H190 C203 0.929 . S
H191 C201 0.929 . S
H192 C196 0.929 . S
H193 C202 0.929 . S
C194 H188 0.930 . S
C194 C195 1.367 . S
C194 C202 1.378 . S
C195 C194 1.367 . S
C195 C203 1.433 . S
C196 H192 0.929 . S
C196 C198 1.378 . S
C196 C200 1.350 . S
C197 C200 1.463 . S
C197 C202 1.350 . S
C197 N205 1.427 . S
C198 H189 0.930 . S
C198 C196 1.378 . S
C198 C199 1.367 . S
C199 C198 1.367 . S
C199 C201 1.433 . S
C200 C196 1.350 . S
C200 C197 1.463 . S
C200 N204 1.427 . S
C201 H191 0.929 . S
C201 C199 1.433 . S
C201 N204 1.384 . S
C202 H193 0.929 . S
C202 C194 1.378 . S
C202 C197 1.350 . S
C203 H190 0.929 . S
C203 C195 1.433 . S
C203 N205 1.384 . S
N204 C200 1.427 . S
N204 C201 1.384 . S
N205 C197 1.427 . S
N205 C203 1.384 . S
H206 C212 0.930 . S
H207 C216 0.930 . S
H208 C221 0.929 . S
H209 C219 0.929 1_545 S
H210 C214 0.929 . S
H211 C220 0.929 . S
C212 H206 0.930 . S
C212 C213 1.367 . S
C212 C220 1.378 . S
C213 C212 1.367 . S
C213 C221 1.433 . S
C214 H210 0.929 . S
C214 C216 1.378 . S
C214 C218 1.350 . S
C215 C218 1.463 . S
C215 C220 1.350 . S
C215 N223 1.427 . S
C216 H207 0.930 . S
C216 C214 1.378 . S
C216 C217 1.367 . S
C217 C216 1.367 . S
C217 C219 1.433 . S
C218 C214 1.350 . S
C218 C215 1.463 . S
C218 N222 1.427 . S
C219 H209 0.929 1_565 S
C219 C217 1.433 . S
C219 N222 1.384 . S
C220 H211 0.929 . S
C220 C212 1.378 . S
C220 C215 1.350 . S
C221 H208 0.929 . S
C221 C213 1.433 . S
C221 N223 1.384 . S
N222 C218 1.427 . S
N222 C219 1.384 . S
N223 C215 1.427 . S
N223 C221 1.384 . S
H224 C230 0.930 . S
H225 C234 0.930 . S
H226 C239 0.929 . S
H227 C237 0.929 . S
H228 C232 0.929 . S
H229 C238 0.929 . S
C230 H224 0.930 . S
C230 C231 1.367 . S
C230 C238 1.378 . S
C231 C230 1.367 . S
C231 C239 1.433 . S
C232 H228 0.929 . S
C232 C234 1.378 . S
C232 C236 1.350 . S
C233 C236 1.463 . S
C233 C238 1.350 . S
C233 N241 1.427 . S
C234 H225 0.930 . S
C234 C232 1.378 . S
C234 C235 1.367 . S
C235 C234 1.367 . S
C235 C237 1.433 . S
C236 C232 1.350 . S
C236 C233 1.463 . S
C236 N240 1.427 . S
C237 H227 0.929 . S
C237 C235 1.433 . S
C237 N240 1.384 . S
C238 H229 0.929 . S
C238 C230 1.378 . S
C238 C233 1.350 . S
C239 H226 0.929 . S
C239 C231 1.433 . S
C239 N241 1.384 . S
N240 C236 1.427 . S
N240 C237 1.384 . S
N241 C233 1.427 . S
N241 C239 1.384 . S
H242 C248 0.930 . S
H243 C252 0.930 . S
H244 C257 0.929 . S
H245 C255 0.929 . S
H246 C250 0.929 . S
H247 C256 0.929 . S
C248 H242 0.930 . S
C248 C249 1.367 . S
C248 C256 1.378 . S
C249 C248 1.367 . S
C249 C257 1.433 . S
C250 H246 0.929 . S
C250 C252 1.378 . S
C250 C254 1.350 . S
C251 C254 1.463 . S
C251 C256 1.350 . S
C251 N259 1.427 . S
C252 H243 0.930 . S
C252 C250 1.378 . S
C252 C253 1.367 . S
C253 C252 1.367 . S
C253 C255 1.433 . S
C254 C250 1.350 . S
C254 C251 1.463 . S
C254 N258 1.427 . S
C255 H245 0.929 . S
C255 C253 1.433 . S
C255 N258 1.384 . S
C256 H247 0.929 . S
C256 C248 1.378 . S
C256 C251 1.350 . S
C257 H244 0.929 . S
C257 C249 1.433 . S
C257 N259 1.384 . S
N258 C254 1.427 . S
N258 C255 1.384 . S
N259 C251 1.427 . S
N259 C257 1.384 . S
H260 C266 0.930 . S
H261 C270 0.930 . S
H262 C275 0.929 . S
H263 C273 0.929 . S
H264 C268 0.929 . S
H265 C274 0.929 . S
C266 H260 0.930 . S
C266 C267 1.367 . S
C266 C274 1.378 . S
C267 C266 1.367 . S
C267 C275 1.433 . S
C268 H264 0.929 . S
C268 C270 1.378 . S
C268 C272 1.350 . S
C269 C272 1.463 . S
C269 C274 1.350 . S
C269 N277 1.427 . S
C270 H261 0.930 . S
C270 C268 1.378 . S
C270 C271 1.367 . S
C271 C270 1.367 . S
C271 C273 1.433 . S
C272 C268 1.350 . S
C272 C269 1.463 . S
C272 N276 1.427 . S
C273 H263 0.929 . S
C273 C271 1.433 . S
C273 N276 1.384 . S
C274 H265 0.929 . S
C274 C266 1.378 . S
C274 C269 1.350 . S
C275 H262 0.929 . S
C275 C267 1.433 . S
C275 N277 1.384 . S
N276 C272 1.427 . S
N276 C273 1.384 . S
N277 C269 1.427 . S
N277 C275 1.384 . S
H278 C284 0.930 . S
H279 C288 0.930 . S
H280 C293 0.929 . S
H281 C291 0.929 . S
H282 C286 0.929 . S
H283 C292 0.929 . S
C284 H278 0.930 . S
C284 C285 1.367 . S
C284 C292 1.378 . S
C285 C284 1.367 . S
C285 C293 1.433 . S
C286 H282 0.929 . S
C286 C288 1.378 . S
C286 C290 1.350 . S
C287 C290 1.463 . S
C287 C292 1.350 . S
C287 N295 1.427 . S
C288 H279 0.930 . S
C288 C286 1.378 . S
C288 C289 1.367 . S
C289 C288 1.367 . S
C289 C291 1.433 . S
C290 C286 1.350 . S
C290 C287 1.463 . S
C290 N294 1.427 . S
C291 H281 0.929 . S
C291 C289 1.433 . S
C291 N294 1.384 . S
C292 H283 0.929 . S
C292 C284 1.378 . S
C292 C287 1.350 . S
C293 H280 0.929 . S
C293 C285 1.433 . S
C293 N295 1.384 . S
N294 C290 1.427 . S
N294 C291 1.384 . S
N295 C287 1.427 . S
N295 C293 1.384 . S
H296 C302 0.930 . S
H297 C306 0.930 . S
H298 C311 0.929 . S
H299 C309 0.929 . S
H300 C304 0.929 1_554 S
H301 C310 0.929 . S
C302 H296 0.930 . S
C302 C303 1.367 . S
C302 C310 1.378 . S
C303 C302 1.367 . S
C303 C311 1.433 . S
C304 H300 0.929 1_556 S
C304 C306 1.378 1_556 S
C304 C308 1.350 . S
C305 C308 1.463 . S
C305 C310 1.350 . S
C305 N313 1.427 . S
C306 H297 0.930 . S
C306 C304 1.378 1_554 S
C306 C307 1.367 1_554 S
C307 C306 1.367 1_556 S
C307 C309 1.433 . S
C308 C304 1.350 . S
C308 C305 1.463 . S
C308 N312 1.427 . S
C309 H299 0.929 . S
C309 C307 1.433 . S
C309 N312 1.384 . S
C310 H301 0.929 . S
C310 C302 1.378 . S
C310 C305 1.350 . S
C311 H298 0.929 . S
C311 C303 1.433 . S
C311 N313 1.384 . S
N312 C308 1.427 . S
N312 C309 1.384 . S
N313 C305 1.427 . S
N313 C311 1.384 . S
H314 C320 0.930 . S
H315 C324 0.930 . S
H316 C329 0.929 . S
H317 C327 0.929 . S
H318 C322 0.929 . S
H319 C328 0.929 . S
C320 H314 0.930 . S
C320 C321 1.367 . S
C320 C328 1.378 . S
C321 C320 1.367 . S
C321 C329 1.433 . S
C322 H318 0.929 . S
C322 C324 1.378 . S
C322 C326 1.350 . S
C323 C326 1.463 . S
C323 C328 1.350 . S
C323 N331 1.427 . S
C324 H315 0.930 . S
C324 C322 1.378 . S
C324 C325 1.367 . S
C325 C324 1.367 . S
C325 C327 1.433 . S
C326 C322 1.350 . S
C326 C323 1.463 . S
C326 N330 1.427 . S
C327 H317 0.929 . S
C327 C325 1.433 . S
C327 N330 1.384 . S
C328 H319 0.929 . S
C328 C320 1.378 . S
C328 C323 1.350 . S
C329 H316 0.929 . S
C329 C321 1.433 . S
C329 N331 1.384 . S
N330 C326 1.427 . S
N330 C327 1.384 . S
N331 C323 1.427 . S
N331 C329 1.384 . S
H332 C338 0.930 . S
H333 C342 0.930 . S
H334 C347 0.929 . S
H335 C345 0.929 . S
H336 C340 0.929 . S
H337 C346 0.929 . S
C338 H332 0.930 . S
C338 C339 1.367 . S
C338 C346 1.378 . S
C339 C338 1.367 . S
C339 C347 1.433 . S
C340 H336 0.929 . S
C340 C342 1.378 . S
C340 C344 1.350 . S
C341 C344 1.463 . S
C341 C346 1.350 . S
C341 N349 1.427 . S
C342 H333 0.930 . S
C342 C340 1.378 . S
C342 C343 1.367 . S
C343 C342 1.367 . S
C343 C345 1.433 . S
C344 C340 1.350 . S
C344 C341 1.463 . S
C344 N348 1.427 . S
C345 H335 0.929 . S
C345 C343 1.433 . S
C345 N348 1.384 . S
C346 H337 0.929 . S
C346 C338 1.378 . S
C346 C341 1.350 . S
C347 H334 0.929 . S
C347 C339 1.433 . S
C347 N349 1.384 . S
N348 C344 1.427 . S
N348 C345 1.384 . S
N349 C341 1.427 . S
N349 C347 1.384 . S
H350 C356 0.930 . S
H351 C360 0.930 . S
H352 C365 0.929 . S
H353 C363 0.929 1_554 S
H354 C358 0.929 . S
H355 C364 0.929 . S
C356 H350 0.930 . S
C356 C357 1.367 . S
C356 C364 1.378 . S
C357 C356 1.367 . S
C357 C365 1.433 . S
C358 H354 0.929 . S
C358 C360 1.378 . S
C358 C362 1.350 . S
C359 C362 1.463 . S
C359 C364 1.350 . S
C359 N367 1.427 . S
C360 H351 0.930 . S
C360 C358 1.378 . S
C360 C361 1.367 . S
C361 C360 1.367 . S
C361 C363 1.433 . S
C362 C358 1.350 . S
C362 C359 1.463 . S
C362 N366 1.427 . S
C363 H353 0.929 1_556 S
C363 C361 1.433 . S
C363 N366 1.384 . S
C364 H355 0.929 . S
C364 C356 1.378 . S
C364 C359 1.350 . S
C365 H352 0.929 . S
C365 C357 1.433 . S
C365 N367 1.384 . S
N366 C362 1.427 . S
N366 C363 1.384 . S
N367 C359 1.427 . S
N367 C365 1.384 . S
H368 C374 0.930 . S
H369 C378 0.930 . S
H370 C383 0.929 . S
H371 C381 0.929 . S
H372 C376 0.929 . S
H373 C382 0.929 . S
C374 H368 0.930 . S
C374 C375 1.367 . S
C374 C382 1.378 . S
C375 C374 1.367 . S
C375 C383 1.433 . S
C376 H372 0.929 . S
C376 C378 1.378 . S
C376 C380 1.350 . S
C377 C380 1.463 . S
C377 C382 1.350 . S
C377 N385 1.427 . S
C378 H369 0.930 . S
C378 C376 1.378 . S
C378 C379 1.367 . S
C379 C378 1.367 . S
C379 C381 1.433 . S
C380 C376 1.350 . S
C380 C377 1.463 . S
C380 N384 1.427 . S
C381 H371 0.929 . S
C381 C379 1.433 . S
C381 N384 1.384 . S
C382 H373 0.929 . S
C382 C374 1.378 . S
C382 C377 1.350 . S
C383 H370 0.929 . S
C383 C375 1.433 . S
C383 N385 1.384 . S
N384 C380 1.427 . S
N384 C381 1.384 . S
N385 C377 1.427 . S
N385 C383 1.384 . S
H386 C392 0.930 . S
H387 C396 0.930 . S
H388 C401 0.929 . S
H389 C399 0.929 . S
H390 C394 0.929 . S
H391 C400 0.929 . S
C392 H386 0.930 . S
C392 C393 1.367 . S
C392 C400 1.378 . S
C393 C392 1.367 . S
C393 C401 1.433 . S
C394 H390 0.929 . S
C394 C396 1.378 . S
C394 C398 1.350 . S
C395 C398 1.463 . S
C395 C400 1.350 . S
C395 N403 1.427 . S
C396 H387 0.930 . S
C396 C394 1.378 . S
C396 C397 1.367 . S
C397 C396 1.367 . S
C397 C399 1.433 . S
C398 C394 1.350 . S
C398 C395 1.463 . S
C398 N402 1.427 . S
C399 H389 0.929 . S
C399 C397 1.433 . S
C399 N402 1.384 . S
C400 H391 0.929 . S
C400 C392 1.378 . S
C400 C395 1.350 . S
C401 H388 0.929 . S
C401 C393 1.433 . S
C401 N403 1.384 . S
N402 C398 1.427 . S
N402 C399 1.384 . S
N403 C395 1.427 . S
N403 C401 1.384 . S
H404 C410 0.930 . S
H405 C414 0.930 1_545 S
H406 C419 0.929 . S
H407 C417 0.929 1_455 S
H408 C412 0.929 . S
H409 C418 0.929 . S
C410 H404 0.930 . S
C410 C411 1.367 . S
C410 C418 1.378 . S
C411 C410 1.367 . S
C411 C419 1.433 . S
C412 H408 0.929 . S
C412 C414 1.378 . S
C412 C416 1.350 . S
C413 C416 1.463 . S
C413 C418 1.350 . S
C413 N421 1.427 . S
C414 H405 0.930 1_565 S
C414 C412 1.378 . S
C414 C415 1.367 . S
C415 C414 1.367 . S
C415 C417 1.433 . S
C416 C412 1.350 . S
C416 C413 1.463 . S
C416 N420 1.427 . S
C417 H407 0.929 1_655 S
C417 C415 1.433 . S
C417 N420 1.384 . S
C418 H409 0.929 . S
C418 C410 1.378 . S
C418 C413 1.350 . S
C419 H406 0.929 . S
C419 C411 1.433 . S
C419 N421 1.384 . S
N420 C416 1.427 . S
N420 C417 1.384 . S
N421 C413 1.427 . S
N421 C419 1.384 . S
H422 C428 0.930 . S
H423 C432 0.930 . S
H424 C437 0.929 . S
H425 C435 0.929 . S
H426 C430 0.929 . S
H427 C436 0.929 . S
C428 H422 0.930 . S
C428 C429 1.367 . S
C428 C436 1.378 . S
C429 C428 1.367 . S
C429 C437 1.433 . S
C430 H426 0.929 . S
C430 C432 1.378 . S
C430 C434 1.350 . S
C431 C434 1.463 . S
C431 C436 1.350 . S
C431 N439 1.427 . S
C432 H423 0.930 . S
C432 C430 1.378 . S
C432 C433 1.367 . S
C433 C432 1.367 . S
C433 C435 1.433 . S
C434 C430 1.350 . S
C434 C431 1.463 . S
C434 N438 1.427 . S
C435 H425 0.929 . S
C435 C433 1.433 . S
C435 N438 1.384 . S
C436 H427 0.929 . S
C436 C428 1.378 . S
C436 C431 1.350 . S
C437 H424 0.929 . S
C437 C429 1.433 . S
C437 N439 1.384 . S
N438 C434 1.427 . S
N438 C435 1.384 . S
N439 C431 1.427 . S
N439 C437 1.384 . S
H440 C446 0.930 . S
H441 C450 0.930 . S
H442 C455 0.929 . S
H443 C453 0.929 . S
H444 C448 0.929 . S
H445 C454 0.929 . S
C446 H440 0.930 . S
C446 C447 1.367 . S
C446 C454 1.378 . S
C447 C446 1.367 . S
C447 C455 1.433 . S
C448 H444 0.929 . S
C448 C450 1.378 . S
C448 C452 1.350 . S
C449 C452 1.463 . S
C449 C454 1.350 . S
C449 N457 1.427 . S
C450 H441 0.930 . S
C450 C448 1.378 . S
C450 C451 1.367 . S
C451 C450 1.367 . S
C451 C453 1.433 . S
C452 C448 1.350 . S
C452 C449 1.463 . S
C452 N456 1.427 . S
C453 H443 0.929 . S
C453 C451 1.433 . S
C453 N456 1.384 . S
C454 H445 0.929 . S
C454 C446 1.378 . S
C454 C449 1.350 . S
C455 H442 0.929 . S
C455 C447 1.433 . S
C455 N457 1.384 . S
N456 C452 1.427 . S
N456 C453 1.384 . S
N457 C449 1.427 . S
N457 C455 1.384 . S
H458 C464 0.930 . S
H459 C468 0.930 . S
H460 C473 0.929 . S
H461 C471 0.929 . S
H462 C466 0.929 . S
H463 C472 0.929 . S
C464 H458 0.930 . S
C464 C465 1.367 . S
C464 C472 1.378 . S
C465 C464 1.367 . S
C465 C473 1.433 . S
C466 H462 0.929 . S
C466 C468 1.378 . S
C466 C470 1.350 . S
C467 C470 1.463 . S
C467 C472 1.350 . S
C467 N475 1.427 . S
C468 H459 0.930 . S
C468 C466 1.378 . S
C468 C469 1.367 . S
C469 C468 1.367 . S
C469 C471 1.433 . S
C470 C466 1.350 . S
C470 C467 1.463 . S
C470 N474 1.427 . S
C471 H461 0.929 . S
C471 C469 1.433 . S
C471 N474 1.384 . S
C472 H463 0.929 . S
C472 C464 1.378 . S
C472 C467 1.350 . S
C473 H460 0.929 . S
C473 C465 1.433 . S
C473 N475 1.384 . S
N474 C470 1.427 . S
N474 C471 1.384 . S
N475 C467 1.427 . S
N475 C473 1.384 . S
H476 C482 0.930 . S
H477 C486 0.930 . S
H478 C491 0.929 . S
H479 C489 0.929 1_554 S
H480 C484 0.929 . S
H481 C490 0.929 . S
C482 H476 0.930 . S
C482 C483 1.367 . S
C482 C490 1.378 . S
C483 C482 1.367 . S
C483 C491 1.433 . S
C484 H480 0.929 . S
C484 C486 1.378 . S
C484 C488 1.350 . S
C485 C488 1.463 . S
C485 C490 1.350 . S
C485 N493 1.427 . S
C486 H477 0.930 . S
C486 C484 1.378 . S
C486 C487 1.367 . S
C487 C486 1.367 . S
C487 C489 1.433 . S
C488 C484 1.350 . S
C488 C485 1.463 . S
C488 N492 1.427 . S
C489 H479 0.929 1_556 S
C489 C487 1.433 . S
C489 N492 1.384 . S
C490 H481 0.929 . S
C490 C482 1.378 . S
C490 C485 1.350 . S
C491 H478 0.929 . S
C491 C483 1.433 . S
C491 N493 1.384 . S
N492 C488 1.427 . S
N492 C489 1.384 . S
N493 C485 1.427 . S
N493 C491 1.384 . S
H494 C500 0.930 . S
H495 C504 0.930 . S
H496 C509 0.929 . S
H497 C507 0.929 . S
H498 C502 0.929 . S
H499 C508 0.929 . S
C500 H494 0.930 . S
C500 C501 1.367 . S
C500 C508 1.378 . S
C501 C500 1.367 . S
C501 C509 1.433 . S
C502 H498 0.929 . S
C502 C504 1.378 . S
C502 C506 1.350 . S
C503 C506 1.463 . S
C503 C508 1.350 . S
C503 N511 1.427 . S
C504 H495 0.930 . S
C504 C502 1.378 . S
C504 C505 1.367 . S
C505 C504 1.367 . S
C505 C507 1.433 . S
C506 C502 1.350 . S
C506 C503 1.463 . S
C506 N510 1.427 . S
C507 H497 0.929 . S
C507 C505 1.433 . S
C507 N510 1.384 . S
C508 H499 0.929 . S
C508 C500 1.378 . S
C508 C503 1.350 . S
C509 H496 0.929 . S
C509 C501 1.433 . S
C509 N511 1.384 . S
N510 C506 1.427 . S
N510 C507 1.384 . S
N511 C503 1.427 . S
N511 C509 1.384 . S
H512 C518 0.930 . S
H513 C522 0.930 . S
H514 C527 0.929 . S
H515 C525 0.929 . S
H516 C520 0.929 . S
H517 C526 0.929 . S
C518 H512 0.930 . S
C518 C519 1.367 . S
C518 C526 1.378 . S
C519 C518 1.367 . S
C519 C527 1.433 . S
C520 H516 0.929 . S
C520 C522 1.378 . S
C520 C524 1.350 . S
C521 C524 1.463 . S
C521 C526 1.350 . S
C521 N529 1.427 . S
C522 H513 0.930 . S
C522 C520 1.378 . S
C522 C523 1.367 . S
C523 C522 1.367 . S
C523 C525 1.433 . S
C524 C520 1.350 . S
C524 C521 1.463 . S
C524 N528 1.427 . S
C525 H515 0.929 . S
C525 C523 1.433 . S
C525 N528 1.384 . S
C526 H517 0.929 . S
C526 C518 1.378 . S
C526 C521 1.350 . S
C527 H514 0.929 . S
C527 C519 1.433 . S
C527 N529 1.384 . S
N528 C524 1.427 . S
N528 C525 1.384 . S
N529 C521 1.427 . S
N529 C527 1.384 . S
H530 C536 0.930 . S
H531 C540 0.930 . S
H532 C545 0.929 . S
H533 C543 0.929 . S
H534 C538 0.929 . S
H535 C544 0.929 . S
C536 H530 0.930 . S
C536 C537 1.367 . S
C536 C544 1.378 . S
C537 C536 1.367 . S
C537 C545 1.433 . S
C538 H534 0.929 . S
C538 C540 1.378 . S
C538 C542 1.350 . S
C539 C542 1.463 . S
C539 C544 1.350 . S
C539 N547 1.427 . S
C540 H531 0.930 . S
C540 C538 1.378 . S
C540 C541 1.367 . S
C541 C540 1.367 . S
C541 C543 1.433 . S
C542 C538 1.350 . S
C542 C539 1.463 . S
C542 N546 1.427 . S
C543 H533 0.929 . S
C543 C541 1.433 . S
C543 N546 1.384 . S
C544 H535 0.929 . S
C544 C536 1.378 . S
C544 C539 1.350 . S
C545 H532 0.929 . S
C545 C537 1.433 . S
C545 N547 1.384 . S
N546 C542 1.427 . S
N546 C543 1.384 . S
N547 C539 1.427 . S
N547 C545 1.384 . S
H548 C554 0.930 . S
H549 C558 0.930 . S
H550 C563 0.929 . S
H551 C561 0.929 . S
H552 C556 0.929 1_554 S
H553 C562 0.929 . S
C554 H548 0.930 . S
C554 C555 1.367 . S
C554 C562 1.378 . S
C555 C554 1.367 . S
C555 C563 1.433 . S
C556 H552 0.929 1_556 S
C556 C558 1.378 1_556 S
C556 C560 1.350 1_455 S
C557 C560 1.463 . S
C557 C562 1.350 . S
C557 N565 1.427 . S
C558 H549 0.930 . S
C558 C556 1.378 1_554 S
C558 C559 1.367 1_454 S
C559 C558 1.367 1_656 S
C559 C561 1.433 . S
C560 C556 1.350 1_655 S
C560 C557 1.463 . S
C560 N564 1.427 . S
C561 H551 0.929 . S
C561 C559 1.433 . S
C561 N564 1.384 . S
C562 H553 0.929 . S
C562 C554 1.378 . S
C562 C557 1.350 . S
C563 H550 0.929 . S
C563 C555 1.433 . S
C563 N565 1.384 . S
N564 C560 1.427 . S
N564 C561 1.384 . S
N565 C557 1.427 . S
N565 C563 1.384 . S
H566 C572 0.930 . S
H567 C576 0.930 . S
H568 C581 0.929 . S
H569 C579 0.929 . S
H570 C574 0.929 . S
H571 C580 0.929 . S
C572 H566 0.930 . S
C572 C573 1.367 . S
C572 C580 1.378 . S
C573 C572 1.367 . S
C573 C581 1.433 . S
C574 H570 0.929 . S
C574 C576 1.378 . S
C574 C578 1.350 . S
C575 C578 1.463 . S
C575 C580 1.350 . S
C575 N583 1.427 . S
C576 H567 0.930 . S
C576 C574 1.378 . S
C576 C577 1.367 . S
C577 C576 1.367 . S
C577 C579 1.433 . S
C578 C574 1.350 . S
C578 C575 1.463 . S
C578 N582 1.427 . S
C579 H569 0.929 . S
C579 C577 1.433 . S
C579 N582 1.384 . S
C580 H571 0.929 . S
C580 C572 1.378 . S
C580 C575 1.350 . S
C581 H568 0.929 . S
C581 C573 1.433 . S
C581 N583 1.384 . S
N582 C578 1.427 . S
N582 C579 1.384 . S
N583 C575 1.427 . S
N583 C581 1.384 . S
H584 C590 0.930 . S
H585 C594 0.930 1_655 S
H586 C599 0.929 . S
H587 C597 0.929 . S
H588 C592 0.929 . S
H589 C598 0.929 . S
C590 H584 0.930 . S
C590 C591 1.367 . S
C590 C598 1.378 . S
C591 C590 1.367 . S
C591 C599 1.433 . S
C592 H588 0.929 . S
C592 C594 1.378 . S
C592 C596 1.350 . S
C593 C596 1.463 . S
C593 C598 1.350 . S
C593 N601 1.427 . S
C594 H585 0.930 1_455 S
C594 C592 1.378 . S
C594 C595 1.367 . S
C595 C594 1.367 . S
C595 C597 1.433 . S
C596 C592 1.350 . S
C596 C593 1.463 . S
C596 N600 1.427 . S
C597 H587 0.929 . S
C597 C595 1.433 . S
C597 N600 1.384 . S
C598 H589 0.929 . S
C598 C590 1.378 . S
C598 C593 1.350 . S
C599 H586 0.929 . S
C599 C591 1.433 . S
C599 N601 1.384 . S
N600 C596 1.427 . S
N600 C597 1.384 . S
N601 C593 1.427 . S
N601 C599 1.384 . S
H602 C608 0.930 . S
H603 C612 0.930 . S
H604 C617 0.929 . S
H605 C615 0.929 . S
H606 C610 0.929 . S
H607 C616 0.929 . S
C608 H602 0.930 . S
C608 C609 1.367 . S
C608 C616 1.378 . S
C609 C608 1.367 . S
C609 C617 1.433 . S
C610 H606 0.929 . S
C610 C612 1.378 . S
C610 C614 1.350 . S
C611 C614 1.463 . S
C611 C616 1.350 . S
C611 N619 1.427 . S
C612 H603 0.930 . S
C612 C610 1.378 . S
C612 C613 1.367 . S
C613 C612 1.367 . S
C613 C615 1.433 . S
C614 C610 1.350 . S
C614 C611 1.463 . S
C614 N618 1.427 . S
C615 H605 0.929 . S
C615 C613 1.433 . S
C615 N618 1.384 . S
C616 H607 0.929 . S
C616 C608 1.378 . S
C616 C611 1.350 . S
C617 H604 0.929 . S
C617 C609 1.433 . S
C617 N619 1.384 . S
N618 C614 1.427 . S
N618 C615 1.384 . S
N619 C611 1.427 . S
N619 C617 1.384 . S
C195 C9 1.958 . S
C199 C120 1.910 . S
C213 C21 1.505 . S
C217 C142 1.463 . S
C235 C161 1.034 . S
C231 C30 1.215 . S
C249 C43 1.451 . S
C253 C182 1.275 1_655 S
C271 C139 1.624 . S
C267 C4 1.641 . S
C289 C117 2.093 . S
C285 C22 2.129 . S
C307 C184 1.043 . S
C303 C34 1.085 . S
C325 C163 1.244 . S
C321 C48 1.270 . S
C339 C8 1.777 . S
C343 C181 1.712 . S
C361 C140 1.347 . S
C357 C35 1.625 . S
C375 C47 1.697 . S
C379 C122 1.504 . S
C393 C17 1.376 . S
C397 C160 1.361 . S
C415 C118 1.567 . S
C411 C60 1.627 . S
C429 C74 1.600 . S
C433 C138 1.555 . S
C447 C82 1.030 . S
C451 C164 0.937 . S
C465 C100 1.896 . S
C469 C185 1.559 . S
C483 C61 2.012 . S
C487 C141 1.950 . S
C505 C121 1.683 . S
C501 C73 1.764 . S
C523 C180 1.335 . S
C519 C87 1.387 . S
C541 C159 1.137 . S
C537 C95 1.143 . S
C555 C56 1.535 . S
C559 C183 1.573 . S
C577 C143 1.308 . S
C573 C86 1.569 . S
C595 C119 1.271 . S
C591 C99 1.440 . S
C609 C69 1.316 . S
C613 C162 1.319 . S
