# Generated by pormake.
# Topology wbl, (4,4)-cn, num edge types: 1
# Building blocks:
#     Node 0, Type 0, BuildingBlock: NAWXER_clean_linker_0, # of connection points: 4
#     Node 1, Type 0, BuildingBlock: NAWXER_clean_linker_0, # of connection points: 4
#     Node 2, Type 0, BuildingBlock: NAWXER_clean_linker_0, # of connection points: 4
#     Node 3, Type 0, BuildingBlock: NAWXER_clean_linker_0, # of connection points: 4
#     Node 4, Type 0, BuildingBlock: NAWXER_clean_linker_0, # of connection points: 4
#     Node 5, Type 0, BuildingBlock: NAWXER_clean_linker_0, # of connection points: 4
#     Node 6, Type 0, BuildingBlock: NAWXER_clean_linker_0, # of connection points: 4
#     Node 7, Type 0, BuildingBlock: NAWXER_clean_linker_0, # of connection points: 4
#     Node 8, Type 1, BuildingBlock: CEKHIL_clean_sbu_0, # of connection points: 4
#     Node 9, Type 1, BuildingBlock: CEKHIL_clean_sbu_0, # of connection points: 4
#     Node 10, Type 1, BuildingBlock: CEKHIL_clean_sbu_0, # of connection points: 4
#     Node 11, Type 1, BuildingBlock: CEKHIL_clean_sbu_0, # of connection points: 4
#     Node 12, Type 1, BuildingBlock: CEKHIL_clean_sbu_0, # of connection points: 4
#     Node 13, Type 1, BuildingBlock: CEKHIL_clean_sbu_0, # of connection points: 4
#     Node 14, Type 1, BuildingBlock: CEKHIL_clean_sbu_0, # of connection points: 4
#     Node 15, Type 1, BuildingBlock: CEKHIL_clean_sbu_0, # of connection points: 4
#     Edge 16, Type (0, 1), BuildingBlock: AJUNOK_clean_linker_0, # of connection points: 2
#     Edge 17, Type (0, 1), BuildingBlock: AJUNOK_clean_linker_0, # of connection points: 2
#     Edge 18, Type (0, 1), BuildingBlock: AJUNOK_clean_linker_0, # of connection points: 2
#     Edge 19, Type (0, 1), BuildingBlock: AJUNOK_clean_linker_0, # of connection points: 2
#     Edge 20, Type (0, 1), BuildingBlock: AJUNOK_clean_linker_0, # of connection points: 2
#     Edge 21, Type (0, 1), BuildingBlock: AJUNOK_clean_linker_0, # of connection points: 2
#     Edge 22, Type (0, 1), BuildingBlock: AJUNOK_clean_linker_0, # of connection points: 2
#     Edge 23, Type (0, 1), BuildingBlock: AJUNOK_clean_linker_0, # of connection points: 2
#     Edge 24, Type (0, 1), BuildingBlock: AJUNOK_clean_linker_0, # of connection points: 2
#     Edge 25, Type (0, 1), BuildingBlock: AJUNOK_clean_linker_0, # of connection points: 2
#     Edge 26, Type (0, 1), BuildingBlock: AJUNOK_clean_linker_0, # of connection points: 2
#     Edge 27, Type (0, 1), BuildingBlock: AJUNOK_clean_linker_0, # of connection points: 2
#     Edge 28, Type (0, 1), BuildingBlock: AJUNOK_clean_linker_0, # of connection points: 2
#     Edge 29, Type (0, 1), BuildingBlock: AJUNOK_clean_linker_0, # of connection points: 2
#     Edge 30, Type (0, 1), BuildingBlock: AJUNOK_clean_linker_0, # of connection points: 2
#     Edge 31, Type (0, 1), BuildingBlock: AJUNOK_clean_linker_0, # of connection points: 2
#     Edge 32, Type (0, 1), BuildingBlock: AJUNOK_clean_linker_0, # of connection points: 2
#     Edge 33, Type (0, 1), BuildingBlock: AJUNOK_clean_linker_0, # of connection points: 2
#     Edge 34, Type (0, 1), BuildingBlock: AJUNOK_clean_linker_0, # of connection points: 2
#     Edge 35, Type (0, 1), BuildingBlock: AJUNOK_clean_linker_0, # of connection points: 2
#     Edge 36, Type (0, 1), BuildingBlock: AJUNOK_clean_linker_0, # of connection points: 2
#     Edge 37, Type (0, 1), BuildingBlock: AJUNOK_clean_linker_0, # of connection points: 2
#     Edge 38, Type (0, 1), BuildingBlock: AJUNOK_clean_linker_0, # of connection points: 2
#     Edge 39, Type (0, 1), BuildingBlock: AJUNOK_clean_linker_0, # of connection points: 2
#     Edge 40, Type (0, 1), BuildingBlock: AJUNOK_clean_linker_0, # of connection points: 2
#     Edge 41, Type (0, 1), BuildingBlock: AJUNOK_clean_linker_0, # of connection points: 2
#     Edge 42, Type (0, 1), BuildingBlock: AJUNOK_clean_linker_0, # of connection points: 2
#     Edge 43, Type (0, 1), BuildingBlock: AJUNOK_clean_linker_0, # of connection points: 2
#     Edge 44, Type (0, 1), BuildingBlock: AJUNOK_clean_linker_0, # of connection points: 2
#     Edge 45, Type (0, 1), BuildingBlock: AJUNOK_clean_linker_0, # of connection points: 2
#     Edge 46, Type (0, 1), BuildingBlock: AJUNOK_clean_linker_0, # of connection points: 2
#     Edge 47, Type (0, 1), BuildingBlock: AJUNOK_clean_linker_0, # of connection points: 2
# Relax obj value: 0.169
# Max RMSD: 0.173
# Mean RMSD: 0.146
data_MOF--net-wbl--node1-CEKHIL_clean_sbu_0--node2-NAWXER_clean_linker_0--edge1-AJUNOK_clean_linker_0
_symmetry_space_group_name_H-M    P1
_symmetry_Int_Tables_number       1
_symmetry_cell_setting            triclinic
loop_
_symmetry_equiv_pos_as_xyz
'x, y, z'
_cell_length_a     34.873715
_cell_length_b     35.069628
_cell_length_c     61.277722
_cell_angle_alpha  90.30282
_cell_angle_beta   90.119257
_cell_angle_gamma 90.002318
loop_
_atom_site_label
_atom_site_type_symbol
_atom_site_fract_x
_atom_site_fract_y
_atom_site_fract_z
_atom_type_partial_charge
C0 C 0.12421 0.94285 0.36687 0.0
C1 C 0.14267 0.95854 0.3852 0.0
C2 C 0.10672 0.96651 0.35156 0.0
C3 C 0.10756 0.00635 0.35423 0.0
C4 C 0.14487 0.99838 0.38743 0.0
C5 C 0.12724 0.02208 0.37213 0.0
C6 C 0.08357 0.03098 0.34019 0.0
C7 C 0.17743 0.9852 0.30088 0.0
C8 C 0.16621 0.95648 0.28625 0.0
C9 C 0.15015 0.00932 0.31011 0.0
C10 C 0.11105 0.00467 0.30518 0.0
C11 C 0.12748 0.95285 0.28037 0.0
C12 C 0.09996 0.97693 0.28979 0.0
C13 C 0.08204 0.02718 0.31724 0.0
C14 C 0.94769 0.13353 0.29779 0.0
C15 C 0.92257 0.1071 0.28818 0.0
C16 C 0.98345 0.12156 0.30558 0.0
C17 C 0.9943 0.08301 0.30388 0.0
C18 C 0.93487 0.06941 0.28478 0.0
C19 C 0.97059 0.0575 0.29246 0.0
C20 C 0.02724 0.06786 0.31636 0.0
C21 C 0.94017 0.09689 0.37016 0.0
C22 C 0.9528 0.12739 0.38324 0.0
C23 C 0.96469 0.08072 0.35463 0.0
C24 C 0.00216 0.09471 0.3522 0.0
C25 C 0.98951 0.14265 0.37994 0.0
C26 C 0.01419 0.12611 0.36468 0.0
C27 C 0.03043 0.07339 0.33913 0.0
H28 H 0.12182 0.91222 0.36493 0.0
H29 H 0.09077 0.95354 0.33828 0.0
H30 H 0.15821 0.01116 0.40168 0.0
H31 H 0.12776 0.05267 0.37468 0.0
H32 H 0.20734 0.9887 0.30529 0.0
H33 H 0.15952 0.0311 0.32154 0.0
H34 H 0.11854 0.93101 0.26888 0.0
H35 H 0.06999 0.97301 0.28567 0.0
H36 H 0.93867 0.16271 0.30057 0.0
H37 H 0.00165 0.14187 0.31403 0.0
H38 H 0.91584 0.04864 0.27733 0.0
H39 H 0.97842 0.02772 0.2909 0.0
H40 H 0.91199 0.08463 0.37259 0.0
H41 H 0.95514 0.05609 0.34536 0.0
H42 H 0.99987 0.1659 0.39006 0.0
H43 H 0.04316 0.13693 0.36317 0.0
N44 N 0.05819 0.0545 0.35018 0.0
N45 N 0.05336 0.04504 0.30614 0.0
C46 C 0.92657 0.45444 0.62193 0.0
C47 C 0.94701 0.43702 0.63896 0.0
C48 C 0.9462 0.47333 0.60528 0.0
C49 C 0.98645 0.47492 0.60551 0.0
C50 C 0.98722 0.43561 0.63794 0.0
C51 C 0.00677 0.45482 0.6215 0.0
C52 C 0.00702 0.50294 0.592 0.0
C53 C 0.98212 0.40633 0.54776 0.0
C54 C 0.94862 0.41227 0.53553 0.0
C55 C 1.00019 0.43673 0.55827 0.0
C56 C 0.98525 0.47373 0.55668 0.0
C57 C 0.93351 0.44929 0.53387 0.0
C58 C 0.95203 0.48001 0.54422 0.0
C59 C 0.00374 0.50487 0.56913 0.0
C60 C 0.11908 0.63124 0.55139 0.0
C61 C 0.09865 0.65372 0.53643 0.0
C62 C 0.10193 0.59955 0.56098 0.0
C63 C 0.0634 0.59051 0.55658 0.0
C64 C 0.06094 0.64294 0.53085 0.0
C65 C 0.04348 0.61164 0.54085 0.0
C66 C 0.04347 0.56039 0.56913 0.0
C67 C 0.06804 0.64649 0.6251 0.0
C68 C 0.09759 0.63323 0.63873 0.0
C69 C 0.05326 0.62303 0.60854 0.0
C70 C 0.06742 0.58586 0.60577 0.0
C71 C 0.11333 0.59697 0.63488 0.0
C72 C 0.09805 0.57333 0.6187 0.0
C73 C 0.04674 0.55797 0.59206 0.0
H74 H 0.89555 0.45592 0.62238 0.0
H75 H 0.92996 0.48913 0.59325 0.0
H76 H 0.00359 0.42167 0.65065 0.0
H77 H 0.03783 0.4557 0.62194 0.0
H78 H 0.99411 0.37798 0.54938 0.0
H79 H 0.02578 0.43131 0.56783 0.0
H80 H 0.90769 0.45441 0.52448 0.0
H81 H 0.94 0.50839 0.54294 0.0
H82 H 0.14784 0.63889 0.55644 0.0
H83 H 0.11856 0.5828 0.57237 0.0
H84 H 0.04457 0.6593 0.51914 0.0
H85 H 0.01395 0.60488 0.53692 0.0
H86 H 0.05516 0.67416 0.628 0.0
H87 H 0.02922 0.63292 0.59888 0.0
H88 H 0.13551 0.58578 0.64547 0.0
H89 H 0.10899 0.54456 0.61692 0.0
N90 N 0.02846 0.52942 0.60254 0.0
N91 N 0.02196 0.53364 0.55839 0.0
C92 C 0.5812 0.41014 0.86245 0.0
C93 C 0.59969 0.42508 0.88096 0.0
C94 C 0.5617 0.4343 0.84817 0.0
C95 C 0.56023 0.47373 0.85229 0.0
C96 C 0.60012 0.46467 0.8844 0.0
C97 C 0.58018 0.48881 0.87028 0.0
C98 C 0.53363 0.49816 0.83976 0.0
C99 C 0.63389 0.48314 0.79753 0.0
C100 C 0.6303 0.4506 0.78426 0.0
C101 C 0.60177 0.49931 0.80737 0.0
C102 C 0.56529 0.48341 0.80411 0.0
C103 C 0.59375 0.43472 0.78078 0.0
C104 C 0.56128 0.45133 0.79048 0.0
C105 C 0.53274 0.49881 0.81678 0.0
C106 C 0.4021 0.61151 0.80239 0.0
C107 C 0.37724 0.58962 0.78929 0.0
C108 C 0.43598 0.59563 0.81053 0.0
C109 C 0.44526 0.55734 0.80611 0.0
C110 C 0.38815 0.55226 0.78352 0.0
C111 C 0.4219 0.53632 0.79181 0.0
C112 C 0.47678 0.538 0.81797 0.0
C113 C 0.38976 0.56474 0.87269 0.0
C114 C 0.40463 0.59171 0.88752 0.0
C115 C 0.41335 0.54887 0.85653 0.0
C116 C 0.45206 0.55966 0.85516 0.0
C117 C 0.44275 0.60392 0.88522 0.0
C118 C 0.46633 0.58776 0.86933 0.0
C119 C 0.47916 0.53885 0.841 0.0
H120 H 0.58021 0.37961 0.85968 0.0
H121 H 0.54577 0.42188 0.83471 0.0
H122 H 0.61381 0.47666 0.89877 0.0
H123 H 0.5791 0.51907 0.87385 0.0
H124 H 0.66179 0.49567 0.80065 0.0
H125 H 0.60548 0.52391 0.81795 0.0
H126 H 0.59038 0.40959 0.7706 0.0
H127 H 0.53337 0.43846 0.78798 0.0
H128 H 0.3944 0.64018 0.80734 0.0
H129 H 0.45403 0.61274 0.82114 0.0
H130 H 0.36975 0.53484 0.77328 0.0
H131 H 0.42862 0.50686 0.78802 0.0
H132 H 0.36047 0.55485 0.8742 0.0
H133 H 0.40196 0.52691 0.84585 0.0
H134 H 0.45506 0.62426 0.89662 0.0
H135 H 0.49618 0.59623 0.8686 0.0
N136 N 0.50726 0.51867 0.85098 0.0
N137 N 0.504 0.51824 0.80656 0.0
C138 C 0.49964 0.86857 0.04881 0.0
C139 C 0.46712 0.87323 0.03554 0.0
C140 C 0.5177 0.90006 0.05819 0.0
C141 C 0.50373 0.93698 0.05452 0.0
C142 C 0.45381 0.9103 0.03118 0.0
C143 C 0.47231 0.94209 0.04046 0.0
C144 C 0.52047 0.96914 0.067 0.0
C145 C 0.43907 0.91186 0.11389 0.0
C146 C 0.45483 0.9005 0.13397 0.0
C147 C 0.46095 0.93287 0.0991 0.0
C148 C 0.49952 0.94162 0.10371 0.0
C149 C 0.49376 0.90805 0.13815 0.0
C150 C 0.51582 0.92821 0.12318 0.0
C151 C 0.52178 0.9685 0.09002 0.0
C152 C 0.60895 0.10754 0.11858 0.0
C153 C 0.63061 0.08937 0.13494 0.0
C154 C 0.58837 0.08592 0.10317 0.0
C155 C 0.58989 0.04585 0.10362 0.0
C156 C 0.63292 0.04935 0.13474 0.0
C157 C 0.61293 0.02798 0.11929 0.0
C158 C 0.56463 0.02149 0.08997 0.0
C159 C 0.63747 0.09072 0.04538 0.0
C160 C 0.61488 0.1179 0.03449 0.0
C161 C 0.62032 0.05921 0.05535 0.0
C162 C 0.58036 0.05427 0.05448 0.0
C163 C 0.57505 0.11184 0.03293 0.0
C164 C 0.55804 0.08021 0.04269 0.0
C165 C 0.56123 0.02395 0.06705 0.0
H166 H 0.51045 0.84036 0.05249 0.0
H167 H 0.54204 0.89551 0.06889 0.0
H168 H 0.42902 0.91461 0.02082 0.0
H169 H 0.46114 0.9704 0.03744 0.0
H170 H 0.40941 0.90578 0.10994 0.0
H171 H 0.44701 0.94375 0.08464 0.0
H172 H 0.50683 0.90007 0.15351 0.0
H173 H 0.54539 0.93462 0.12725 0.0
H174 H 0.60704 0.13833 0.11804 0.0
H175 H 0.5702 0.10048 0.09154 0.0
H176 H 0.64876 0.03425 0.14722 0.0
H177 H 0.61442 0.99714 0.12008 0.0
H178 H 0.6683 0.09396 0.04637 0.0
H179 H 0.63812 0.03913 0.06414 0.0
H180 H 0.55677 0.13228 0.02477 0.0
H181 H 0.52717 0.0769 0.04185 0.0
N182 N 0.53953 0.99738 0.05629 0.0
N183 N 0.54435 0.99423 0.10045 0.0
C184 C 0.08034 0.62759 0.89551 0.0
C185 C 0.0966 0.60637 0.87835 0.0
C186 C 0.05987 0.60915 0.91202 0.0
C187 C 0.05552 0.56933 0.91153 0.0
C188 C 0.09521 0.56636 0.87911 0.0
C189 C 0.07445 0.54804 0.8954 0.0
C190 C 0.02606 0.55054 0.925 0.0
C191 C 0.12468 0.56979 0.96907 0.0
C192 C 0.12058 0.60373 0.98107 0.0
C193 C 0.09313 0.55321 0.95876 0.0
C194 C 0.05678 0.57005 0.96037 0.0
C195 C 0.0842 0.62069 0.98279 0.0
C196 C 0.0523 0.60365 0.97267 0.0
C197 C 0.02453 0.55334 0.94794 0.0
C198 C 0.89621 0.44882 0.97269 0.0
C199 C 0.86201 0.46993 0.97119 0.0
C200 C 0.93129 0.46545 0.96698 0.0
C201 C 0.93248 0.50316 0.95948 0.0
C202 C 0.86409 0.50879 0.96572 0.0
C203 C 0.89895 0.52511 0.95964 0.0
C204 C 0.96635 0.51755 0.94777 0.0
C205 C 0.90447 0.489 0.87773 0.0
C206 C 0.90442 0.44897 0.87861 0.0
C207 C 0.92282 0.51037 0.89397 0.0
C208 C 0.94102 0.49216 0.91147 0.0
C209 C 0.91979 0.43095 0.89711 0.0
C210 C 0.93837 0.45236 0.91329 0.0
C211 C 0.9688 0.51381 0.92491 0.0
H212 H 0.08099 0.65847 0.89526 0.0
H213 H 0.04503 0.62618 0.92414 0.0
H214 H 0.10813 0.54935 0.86627 0.0
H215 H 0.07147 0.51729 0.89476 0.0
H216 H 0.15253 0.55638 0.96741 0.0
H217 H 0.09717 0.52734 0.94929 0.0
H218 H 0.0805 0.64688 0.992 0.0
H219 H 0.02447 0.61717 0.97394 0.0
H220 H 0.89555 0.41892 0.977 0.0
H221 H 0.957 0.44811 0.96692 0.0
H222 H 0.83843 0.52615 0.96515 0.0
H223 H 0.89938 0.5543 0.95393 0.0
H224 H 0.89313 0.50367 0.86361 0.0
H225 H 0.92493 0.54102 0.89213 0.0
H226 H 0.91986 0.40015 0.89828 0.0
H227 H 0.95323 0.43752 0.92623 0.0
N228 N 0.99831 0.53073 0.91441 0.0
N229 N 0.99439 0.53712 0.95866 0.0
C230 C 0.43242 0.59716 0.14132 0.0
C231 C 0.45061 0.61266 0.12296 0.0
C232 C 0.45397 0.57807 0.15719 0.0
C233 C 0.49387 0.57437 0.15481 0.0
C234 C 0.49083 0.61217 0.12183 0.0
C235 C 0.51223 0.59281 0.13749 0.0
C236 C 0.51536 0.54569 0.16748 0.0
C237 C 0.5018 0.64405 0.21163 0.0
C238 C 0.47037 0.63995 0.22571 0.0
C239 C 0.51684 0.61262 0.20067 0.0
C240 C 0.50093 0.57632 0.2036 0.0
C241 C 0.45477 0.60346 0.22902 0.0
C242 C 0.47026 0.57168 0.21815 0.0
C243 C 0.51572 0.5442 0.19046 0.0
C244 C 0.62935 0.41534 0.20428 0.0
C245 C 0.60988 0.39276 0.21955 0.0
C246 C 0.61157 0.44713 0.19512 0.0
C247 C 0.57354 0.4564 0.20052 0.0
C248 C 0.57258 0.40343 0.22589 0.0
C249 C 0.55461 0.43503 0.21649 0.0
C250 C 0.55305 0.48717 0.18884 0.0
C251 C 0.56413 0.40201 0.13044 0.0
C252 C 0.59466 0.4132 0.11699 0.0
C253 C 0.55239 0.42542 0.14775 0.0
C254 C 0.57059 0.46054 0.15145 0.0
C255 C 0.61437 0.44718 0.12169 0.0
C256 C 0.60208 0.47091 0.13862 0.0
C257 C 0.55295 0.48926 0.16585 0.0
H258 H 0.40143 0.59715 0.1425 0.0
H259 H 0.43916 0.56361 0.17028 0.0
H260 H 0.50551 0.62444 0.10797 0.0
H261 H 0.54297 0.59031 0.13538 0.0
H262 H 0.51416 0.67189 0.20864 0.0
H263 H 0.54065 0.61673 0.18958 0.0
H264 H 0.43063 0.59962 0.23989 0.0
H265 H 0.45764 0.5438 0.22058 0.0
H266 H 0.65782 0.40771 0.19877 0.0
H267 H 0.62732 0.46395 0.1834 0.0
H268 H 0.557 0.38682 0.2378 0.0
H269 H 0.52544 0.44192 0.22111 0.0
H270 H 0.54826 0.37616 0.12687 0.0
H271 H 0.5276 0.41735 0.1573 0.0
H272 H 0.63748 0.45672 0.11126 0.0
H273 H 0.61603 0.49821 0.14108 0.0
N274 N 0.53411 0.51829 0.1561 0.0
N275 N 0.53438 0.51484 0.20043 0.0
C276 C 0.44459 0.94406 0.3827 0.0
C277 C 0.42824 0.96697 0.36639 0.0
C278 C 0.46196 0.96089 0.40099 0.0
C279 C 0.46324 1.00077 0.40308 0.0
C280 C 0.42562 0.00651 0.3699 0.0
C281 C 0.44349 0.02331 0.38794 0.0
C282 C 0.49196 0.01886 0.41752 0.0
C283 C 0.39433 0.99712 0.46105 0.0
C284 C 0.39824 0.96424 0.4738 0.0
C285 C 0.42582 0.01245 0.45032 0.0
C286 C 0.462 0.99528 0.45208 0.0
C287 C 0.43439 0.9468 0.47562 0.0
C288 C 0.46631 0.96259 0.46502 0.0
C289 C 0.49453 0.01214 0.44014 0.0
C290 C 0.62236 0.11754 0.46692 0.0
C291 C 0.65302 0.09349 0.47263 0.0
C292 C 0.58893 0.10245 0.45763 0.0
C293 C 0.58537 0.06303 0.45414 0.0
C294 C 0.64889 0.05387 0.46944 0.0
C295 C 0.61519 0.03878 0.4605 0.0
C296 C 0.5528 0.04776 0.44144 0.0
C297 C 0.63604 0.07969 0.38572 0.0
C298 C 0.62256 0.11143 0.37409 0.0
C299 C 0.61337 0.06321 0.40195 0.0
C300 C 0.57695 0.07819 0.40656 0.0
C301 C 0.58738 0.12798 0.37991 0.0
C302 C 0.56456 0.11122 0.39588 0.0
C303 C 0.54899 0.05578 0.41907 0.0
H304 H 0.44695 0.9135 0.38039 0.0
H305 H 0.47742 0.94298 0.41236 0.0
H306 H 0.41241 0.02472 0.3578 0.0
H307 H 0.44414 0.05413 0.38927 0.0
H308 H 0.36665 0.01079 0.45918 0.0
H309 H 0.42191 0.03789 0.4406 0.0
H310 H 0.43791 0.9213 0.48531 0.0
H311 H 0.49406 0.94899 0.46656 0.0
H312 H 0.62454 0.14811 0.46919 0.0
H313 H 0.56625 0.12162 0.45261 0.0
H314 H 0.6723 0.03457 0.47294 0.0
H315 H 0.61322 0.00836 0.45751 0.0
H316 H 0.66313 0.06654 0.38146 0.0
H317 H 0.6231 0.03733 0.4098 0.0
H318 H 0.57632 0.15227 0.37104 0.0
H319 H 0.53632 0.12284 0.39908 0.0
N320 N 0.51901 0.04076 0.40793 0.0
N321 N 0.52516 0.02652 0.45141 0.0
C322 C 0.09797 0.949 0.63425 0.0
C323 C 0.07512 0.93032 0.6186 0.0
C324 C 0.08095 0.96686 0.65229 0.0
C325 C 0.04093 0.96626 0.65478 0.0
C326 C 0.03567 0.92616 0.62253 0.0
C327 C 0.01864 0.94446 0.64031 0.0
C328 C 0.02186 0.99458 0.66898 0.0
C329 C 0.05985 0.90241 0.71276 0.0
C330 C 0.09169 0.91177 0.72571 0.0
C331 C 0.03962 0.93076 0.70182 0.0
C332 C 0.05077 0.96911 0.70364 0.0
C333 C 0.10298 0.95006 0.72771 0.0
C334 C 0.08235 0.97869 0.71686 0.0
C335 C 0.02924 0.99859 0.6915 0.0
C336 C 0.92127 0.13101 0.71162 0.0
C337 C 0.94613 0.15623 0.72252 0.0
C338 C 0.93512 0.09667 0.70304 0.0
C339 C 0.9742 0.08721 0.70488 0.0
C340 C 0.98454 0.14525 0.72584 0.0
C341 C 0.99841 0.11097 0.71717 0.0
C342 C 0.99048 0.05486 0.69229 0.0
C343 C 0.96241 0.13927 0.63745 0.0
C344 C 0.93425 0.12567 0.62293 0.0
C345 C 0.97633 0.11582 0.65411 0.0
C346 C 0.96231 0.07848 0.65634 0.0
C347 C 0.91825 0.08945 0.62633 0.0
C348 C 0.93245 0.06592 0.64275 0.0
C349 C 0.98311 0.05038 0.66976 0.0
H350 H 0.12845 0.95263 0.63158 0.0
H351 H 0.09863 0.98394 0.66312 0.0
H352 H 0.01754 0.91129 0.6109 0.0
H353 H 0.98771 0.9437 0.64195 0.0
H354 H 0.05054 0.87303 0.71118 0.0
H355 H 0.01498 0.92271 0.69203 0.0
H356 H 0.1273 0.95777 0.73783 0.0
H357 H 0.09132 0.00813 0.71854 0.0
H358 H 0.89168 0.13875 0.70861 0.0
H359 H 0.91566 0.07834 0.69403 0.0
H360 H 0.00426 0.164 0.73437 0.0
H361 H 0.02854 0.10413 0.71897 0.0
H362 H 0.97516 0.16711 0.63511 0.0
H363 H 0.99981 0.12586 0.66421 0.0
H364 H 0.89682 0.07817 0.61521 0.0
H365 H 0.92155 0.03709 0.6441 0.0
N366 N 0.99904 0.02048 0.65907 0.0
N367 N 0.01347 0.02879 0.70244 0.0
Co368 Co 0.33213 0.66986 0.01461 0.0
O369 O 0.2934 0.63118 0.01515 0.0
O370 O 0.28241 0.69171 0.0074 0.0
C371 C 0.36078 0.65224 0.04616 0.0
O372 O 0.36565 0.71775 0.01366 0.0
Co373 Co 0.41781 0.64456 0.01169 0.0
O374 O 0.42748 0.69962 0.01659 0.0
C375 C 0.36687 0.63577 0.97384 0.0
C376 C 0.26892 0.65736 0.00991 0.0
C377 C 0.40171 0.72539 0.01564 0.0
O378 O 0.34212 0.65825 0.98268 0.0
O379 O 0.39665 0.62344 0.98376 0.0
O380 O 0.33063 0.67408 0.04668 0.0
O381 O 0.36994 0.63977 0.0271 0.0
Co382 Co 0.3591 0.85474 0.24783 0.0
O383 O 0.32429 0.89693 0.24653 0.0
O384 O 0.31114 0.84126 0.26175 0.0
C385 C 0.37837 0.85824 0.21299 0.0
O386 O 0.38762 0.80407 0.25081 0.0
Co387 Co 0.44613 0.8694 0.24068 0.0
O388 O 0.44913 0.81314 0.24082 0.0
C389 C 0.40908 0.89576 0.28104 0.0
C390 C 0.29999 0.87557 0.25675 0.0
C391 C 0.42154 0.79152 0.24647 0.0
O392 O 0.37976 0.87472 0.27664 0.0
O393 O 0.43696 0.90013 0.26776 0.0
O394 O 0.34644 0.84103 0.21762 0.0
O395 O 0.39505 0.87571 0.22893 0.0
Co396 Co 0.18154 0.85815 0.49908 0.0
O397 O 0.13852 0.82397 0.49932 0.0
O398 O 0.19633 0.81018 0.51214 0.0
C399 C 0.17439 0.87741 0.46446 0.0
O400 O 0.23318 0.88572 0.50056 0.0
Co401 Co 0.16796 0.94491 0.49222 0.0
O402 O 0.22455 0.94737 0.49152 0.0
C403 C 0.14389 0.90836 0.53305 0.0
C404 C 0.16112 0.79949 0.50855 0.0
C405 C 0.24609 0.91938 0.49649 0.0
O406 O 0.16464 0.87902 0.52844 0.0
O407 O 0.13882 0.93591 0.51977 0.0
O408 O 0.19216 0.84567 0.46848 0.0
O409 O 0.15868 0.89416 0.48092 0.0
Co410 Co 0.16418 0.70977 0.76739 0.0
O411 O 0.12481 0.74771 0.7659 0.0
O412 O 0.1861 0.75865 0.75909 0.0
C413 C 0.14432 0.68456 0.79934 0.0
O414 O 0.21274 0.67705 0.7685 0.0
Co415 Co 0.14041 0.62404 0.76665 0.0
O416 O 0.195 0.61632 0.7746 0.0
C417 C 0.13401 0.6702 0.72696 0.0
C418 C 0.15123 0.77179 0.76049 0.0
C419 C 0.22077 0.64196 0.77283 0.0
O420 O 0.15512 0.69633 0.73563 0.0
O421 O 0.12145 0.64136 0.73746 0.0
O422 O 0.16595 0.71479 0.7994 0.0
O423 O 0.13341 0.67315 0.78034 0.0
Co424 Co 0.86889 0.2087 0.49582 0.0
O425 O 0.91101 0.24361 0.49754 0.0
O426 O 0.85104 0.25857 0.50549 0.0
C427 C 0.88466 0.18432 0.46283 0.0
O428 O 0.81797 0.17978 0.49472 0.0
Co429 Co 0.88645 0.12193 0.49483 0.0
O430 O 0.83032 0.11689 0.49096 0.0
C431 C 0.89841 0.16562 0.53501 0.0
C432 C 0.88665 0.26935 0.50372 0.0
C433 C 0.80709 0.14485 0.49231 0.0
O434 O 0.87829 0.19306 0.52714 0.0
O435 O 0.90882 0.1366 0.52379 0.0
O436 O 0.86577 0.21618 0.46423 0.0
O437 O 0.89629 0.17055 0.48117 0.0
Co438 Co 0.8398 0.375 0.74985 0.0
O439 O 0.80493 0.41698 0.75247 0.0
O440 O 0.78888 0.35677 0.75765 0.0
C441 C 0.86604 0.39478 0.71817 0.0
O442 O 0.86858 0.32408 0.74729 0.0
Co443 Co 0.92789 0.39034 0.74983 0.0
O444 O 0.92964 0.33761 0.73842 0.0
C445 C 0.88512 0.39212 0.79138 0.0
C446 C 0.77842 0.39242 0.75697 0.0
C447 C 0.90234 0.31387 0.74085 0.0
O448 O 0.8542 0.38083 0.78178 0.0
O449 O 0.91629 0.39964 0.78131 0.0
O450 O 0.83409 0.37568 0.71797 0.0
O451 O 0.87895 0.40348 0.73726 0.0
Co452 Co 0.66497 0.32698 0.99138 0.0
O453 O 0.63155 0.28385 0.99363 0.0
O454 O 0.69262 0.28403 0.00372 0.0
C455 C 0.64681 0.34284 0.95741 0.0
O456 O 0.70827 0.36618 0.99016 0.0
Co457 Co 0.6297 0.40777 0.98547 0.0
O458 O 0.68311 0.42063 0.97706 0.0
C459 C 0.62661 0.37048 0.02836 0.0
C460 C 0.66041 0.26549 0.00173 0.0
C461 C 0.7118 0.39995 0.98219 0.0
O462 O 0.64984 0.34447 0.02163 0.0
O463 O 0.6123 0.39599 0.01588 0.0
O464 O 0.67272 0.31667 0.96018 0.0
O465 O 0.63092 0.35587 0.97486 0.0
Co466 Co 0.69568 0.19006 0.25835 0.0
O467 O 0.65106 0.22101 0.25358 0.0
O468 O 0.71079 0.2399 0.24798 0.0
C469 C 0.67805 0.16815 0.29141 0.0
O470 O 0.74888 0.16636 0.26256 0.0
Co471 Co 0.68782 0.1024 0.26214 0.0
O472 O 0.73988 0.1066 0.27461 0.0
C473 C 0.68207 0.13805 0.21901 0.0
C474 C 0.67433 0.24784 0.24764 0.0
C475 C 0.76137 0.13529 0.27125 0.0
O476 O 0.69155 0.17049 0.22728 0.0
O477 O 0.677 0.1079 0.23027 0.0
O478 O 0.69411 0.20138 0.28953 0.0
O479 O 0.66992 0.15108 0.27322 0.0
C480 C 0.21318 0.93999 0.25736 0.0
C481 C 0.19567 0.93089 0.27722 0.0
C482 C 0.24603 0.9205 0.25039 0.0
C483 C 0.2622 0.89109 0.26298 0.0
H484 H 0.20249 0.9635 0.24769 0.0
H485 H 0.25956 0.92937 0.23535 0.0
S486 S 0.22558 0.85572 0.3159 0.0
N487 N 0.1956 0.89019 0.30912 0.0
N488 N 0.2571 0.85286 0.29585 0.0
C489 C 0.24375 0.88054 0.2824 0.0
C490 C 0.21055 0.90075 0.2896 0.0
C491 C 0.09248 0.72304 0.5275 0.0
C492 C 0.11534 0.68997 0.52812 0.0
C493 C 0.10762 0.75813 0.52099 0.0
C494 C 0.14642 0.76181 0.5152 0.0
H495 H 0.06275 0.7221 0.53256 0.0
H496 H 0.0889 0.78279 0.52095 0.0
S497 S 0.21795 0.68384 0.51227 0.0
N498 N 0.17832 0.66284 0.52072 0.0
N499 N 0.20709 0.72939 0.50943 0.0
C500 C 0.16964 0.72913 0.5155 0.0
C501 C 0.15404 0.6931 0.52173 0.0
C502 C 0.30639 0.58027 0.7878 0.0
C503 C 0.33817 0.60382 0.78382 0.0
C504 C 0.26897 0.59297 0.78408 0.0
C505 C 0.26138 0.62995 0.77621 0.0
H506 H 0.31037 0.55191 0.79436 0.0
H507 H 0.24576 0.57352 0.78774 0.0
S508 S 0.33494 0.70238 0.76217 0.0
N509 N 0.36001 0.66546 0.77083 0.0
N510 N 0.28944 0.6897 0.76395 0.0
C511 C 0.293 0.65381 0.77193 0.0
C512 C 0.33136 0.6407 0.77573 0.0
C513 C 0.46887 0.8102 0.01661 0.0
C514 C 0.44727 0.83875 0.02702 0.0
C515 C 0.45305 0.77442 0.01196 0.0
C516 C 0.4149 0.76558 0.01754 0.0
H517 H 0.49879 0.81509 0.01278 0.0
H518 H 0.47141 0.75305 0.00458 0.0
S519 S 0.34542 0.83148 0.04375 0.0
N520 N 0.38519 0.8568 0.04174 0.0
N521 N 0.35515 0.78939 0.03286 0.0
C522 C 0.39223 0.79464 0.02681 0.0
C523 C 0.40849 0.83125 0.0316 0.0
C524 C 0.16915 0.65622 0.98469 0.0
C525 C 0.15484 0.62076 0.99158 0.0
C526 C 0.20537 0.66926 0.99166 0.0
C527 C 0.2283 0.64712 0.00567 0.0
H528 H 0.15318 0.67297 0.97297 0.0
H529 H 0.21625 0.69577 0.98513 0.0
S530 S 0.20065 0.55505 0.0309 0.0
N531 N 0.16411 0.56595 0.01494 0.0
N532 N 0.23175 0.59019 0.02819 0.0
C533 C 0.21292 0.61287 0.01378 0.0
C534 C 0.17629 0.59973 0.00668 0.0
C535 C 0.47844 0.70036 0.24668 0.0
C536 C 0.45386 0.6746 0.23596 0.0
C537 C 0.46646 0.7374 0.25174 0.0
C538 C 0.42937 0.75008 0.24637 0.0
H539 H 0.50795 0.69254 0.24998 0.0
H540 H 0.48717 0.75696 0.2588 0.0
S541 S 0.35267 0.69231 0.22038 0.0
N542 N 0.38973 0.66306 0.22182 0.0
N543 N 0.36695 0.73286 0.23158 0.0
C544 C 0.40342 0.72364 0.23734 0.0
C545 C 0.41575 0.6858 0.23206 0.0
C546 C 0.34938 0.91251 0.47832 0.0
C547 C 0.36371 0.9485 0.48449 0.0
C548 C 0.31193 0.90142 0.48396 0.0
C549 C 0.28784 0.92617 0.4958 0.0
H550 H 0.36611 0.89408 0.46776 0.0
H551 H 0.30082 0.87475 0.47757 0.0
S552 S 0.31455 0.02027 0.51908 0.0
N553 N 0.35308 0.00627 0.50561 0.0
N554 N 0.28276 0.98575 0.51598 0.0
C555 C 0.30314 0.9607 0.50359 0.0
C556 C 0.3411 0.97179 0.498 0.0
C557 C 0.14614 0.86577 0.73012 0.0
C558 C 0.11132 0.88102 0.73774 0.0
C559 C 0.16073 0.83148 0.73864 0.0
C560 C 0.14063 0.81142 0.75485 0.0
H561 H 0.16098 0.87925 0.71669 0.0
H562 H 0.18649 0.81945 0.73154 0.0
S563 S 0.051 0.84278 0.78216 0.0
N564 N 0.05938 0.87597 0.76377 0.0
N565 N 0.08648 0.81185 0.77984 0.0
C566 C 0.10718 0.82798 0.76353 0.0
C567 C 0.09256 0.86271 0.75494 0.0
C568 C 0.67666 0.39628 0.77953 0.0
C569 C 0.66527 0.43371 0.77444 0.0
C570 C 0.71281 0.38229 0.77312 0.0
C571 C 0.73865 0.40537 0.76148 0.0
H572 H 0.65827 0.37837 0.78935 0.0
H573 H 0.72112 0.35386 0.77808 0.0
S574 S 0.71968 0.50355 0.74159 0.0
N575 N 0.6807 0.49202 0.75528 0.0
N576 N 0.74824 0.46614 0.74318 0.0
C577 C 0.72644 0.44207 0.75528 0.0
C578 C 0.68986 0.45614 0.76178 0.0
C579 C 0.61972 0.16607 0.00464 0.0
C580 C 0.63199 0.15318 0.02521 0.0
C581 C 0.63083 0.20176 0.99674 0.0
C582 C 0.65525 0.22571 0.00887 0.0
H583 H 0.60035 0.14894 0.99483 0.0
H584 H 0.61931 0.21114 0.98123 0.0
S585 S 0.69667 0.20534 0.06326 0.0
N586 N 0.67067 0.16725 0.05741 0.0
N587 N 0.6926 0.23387 0.04202 0.0
C588 C 0.66946 0.21257 0.0289 0.0
C589 C 0.65761 0.17638 0.0372 0.0
C590 C 0.87027 0.14377 0.26925 0.0
C591 C 0.88177 0.11679 0.28483 0.0
C592 C 0.83112 0.15091 0.26535 0.0
C593 C 0.80249 0.13129 0.27699 0.0
H594 H 0.89157 0.15857 0.25963 0.0
H595 H 0.82326 0.17087 0.25268 0.0
S596 S 0.81872 0.06234 0.32194 0.0
N597 N 0.86215 0.07358 0.31349 0.0
N598 N 0.78895 0.08695 0.30649 0.0
C599 C 0.81406 0.1058 0.29344 0.0
C600 C 0.85362 0.09856 0.29728 0.0
C601 C 0.89327 0.36721 0.53066 0.0
C602 C 0.9302 0.37926 0.52459 0.0
C603 C 0.87831 0.33229 0.52306 0.0
C604 C 0.89993 0.30842 0.50921 0.0
H605 H 0.87667 0.38395 0.54216 0.0
H606 H 0.85048 0.32318 0.52886 0.0
S607 S 0.99584 0.33039 0.48612 0.0
N608 N 0.98618 0.36699 0.50224 0.0
N609 N 0.9584 0.30176 0.48783 0.0
C610 C 0.93591 0.32155 0.50201 0.0
C611 C 0.95097 0.35688 0.50975 0.0
C612 C 0.70627 0.14153 0.46949 0.0
C613 C 0.69027 0.10979 0.48022 0.0
C614 C 0.74338 0.15454 0.47449 0.0
C615 C 0.76591 0.13594 0.49017 0.0
H616 H 0.69079 0.15536 0.45639 0.0
H617 H 0.75529 0.17785 0.46515 0.0
S618 S 0.73577 0.05562 0.52526 0.0
N619 N 0.69839 0.0635 0.50932 0.0
N620 N 0.76864 0.08692 0.51794 0.0
C621 C 0.74968 0.10558 0.5018 0.0
C622 C 0.71175 0.09275 0.49701 0.0
C623 C 0.95648 0.22639 0.72118 0.0
C624 C 0.93363 0.19571 0.72794 0.0
C625 C 0.9456 0.26408 0.72522 0.0
C626 C 0.91128 0.27306 0.73626 0.0
H627 H 0.9829 0.22129 0.71236 0.0
H628 H 0.96448 0.2864 0.71949 0.0
S629 S 0.84123 0.20284 0.75759 0.0
N630 N 0.87511 0.1764 0.74632 0.0
N631 N 0.85438 0.24761 0.75394 0.0
C632 C 0.88785 0.2426 0.743 0.0
C633 C 0.89907 0.20391 0.73883 0.0
C634 C 0.81662 0.42631 0.99112 0.0
C635 C 0.82405 0.451 0.97356 0.0
C636 C 0.78051 0.40899 0.99362 0.0
C637 C 0.75056 0.41605 0.97875 0.0
H638 H 0.83862 0.42091 0.00322 0.0
H639 H 0.77571 0.3908 0.00759 0.0
S640 S 0.75695 0.47383 0.92833 0.0
N641 N 0.79967 0.47791 0.93975 0.0
N642 N 0.73179 0.44657 0.94485 0.0
C643 C 0.75807 0.4396 0.96076 0.0
C644 C 0.79479 0.45675 0.95807 0.0
C645 C 0.60498 0.32317 0.2277 0.0
C646 C 0.62717 0.35665 0.22755 0.0
C647 C 0.62064 0.28829 0.23421 0.0
C648 C 0.65926 0.28531 0.24066 0.0
H649 H 0.57535 0.32371 0.22235 0.0
H650 H 0.60233 0.26333 0.23388 0.0
S651 S 0.72917 0.36479 0.24443 0.0
N652 N 0.68938 0.38499 0.23551 0.0
N653 N 0.71911 0.31906 0.24722 0.0
C654 C 0.68183 0.31852 0.24072 0.0
C655 C 0.66573 0.35425 0.2343 0.0
C656 C 0.12683 0.90895 0.41262 0.0
C657 C 0.1542 0.93368 0.40353 0.0
C658 C 0.1345 0.88914 0.4319 0.0
C659 C 0.17 0.89285 0.44246 0.0
H660 H 0.09852 0.90644 0.40543 0.0
H661 H 0.11203 0.87191 0.43903 0.0
S662 S 0.25248 0.95116 0.42453 0.0
N663 N 0.21901 0.95901 0.40593 0.0
N664 N 0.23357 0.92095 0.4421 0.0
C665 C 0.19831 0.91588 0.43309 0.0
C666 C 0.19036 0.93654 0.4136 0.0
C667 C 0.07791 0.65792 0.67501 0.0
C668 C 0.10701 0.65315 0.65939 0.0
C669 C 0.08684 0.66647 0.69677 0.0
C670 C 0.12505 0.67141 0.70351 0.0
H671 H 0.04831 0.65192 0.6708 0.0
H672 H 0.06388 0.66709 0.70866 0.0
S673 S 0.2112 0.66694 0.66838 0.0
N674 N 0.17516 0.6574 0.65166 0.0
N675 N 0.19187 0.67462 0.69261 0.0
C676 C 0.15413 0.67001 0.68774 0.0
C677 C 0.14511 0.66054 0.66562 0.0
C678 C 0.38088 0.64196 0.91334 0.0
C679 C 0.38325 0.60318 0.90738 0.0
C680 C 0.3709 0.65291 0.93466 0.0
C681 C 0.36352 0.62535 0.95066 0.0
H682 H 0.38938 0.66379 0.90188 0.0
H683 H 0.37234 0.68282 0.93912 0.0
S684 S 0.3616 0.52063 0.94285 0.0
N685 N 0.37356 0.53754 0.9187 0.0
N686 N 0.3555 0.55825 0.9588 0.0
C687 C 0.3628 0.58681 0.94448 0.0
C688 C 0.37243 0.57566 0.92278 0.0
C689 C 0.44518 0.85511 0.16499 0.0
C690 C 0.43055 0.8843 0.1516 0.0
C691 C 0.42667 0.84479 0.18436 0.0
C692 C 0.39242 0.86257 0.19065 0.0
H693 H 0.47214 0.84141 0.16102 0.0
H694 H 0.44003 0.82393 0.1949 0.0
S695 S 0.34058 0.93863 0.16121 0.0
N696 N 0.37864 0.92982 0.14601 0.0
N697 N 0.34324 0.90883 0.18193 0.0
C698 C 0.37606 0.88984 0.17689 0.0
C699 C 0.39519 0.90101 0.15739 0.0
C700 C 0.13677 0.65539 0.85902 0.0
C701 C 0.10975 0.62563 0.85822 0.0
C702 C 0.14819 0.67428 0.8399 0.0
C703 C 0.1327 0.6642 0.81942 0.0
H704 H 0.14923 0.66399 0.87449 0.0
H705 H 0.16919 0.69694 0.8412 0.0
S706 S 0.05845 0.59017 0.80904 0.0
N707 N 0.06621 0.58847 0.83558 0.0
N708 N 0.0875 0.62349 0.79982 0.0
C709 C 0.10523 0.63477 0.81856 0.0
C710 C 0.09378 0.61564 0.83792 0.0
C711 C 0.3983 0.65052 0.10466 0.0
C712 C 0.42797 0.62344 0.10344 0.0
C713 C 0.37659 0.65997 0.08606 0.0
C714 C 0.38369 0.64235 0.06575 0.0
H715 H 0.39206 0.66464 0.12001 0.0
H716 H 0.3542 0.68121 0.08762 0.0
S717 S 0.456 0.56679 0.05474 0.0
N718 N 0.46169 0.57741 0.08079 0.0
N719 N 0.42132 0.59487 0.04603 0.0
C720 C 0.41287 0.61464 0.06456 0.0
C721 C 0.43486 0.60523 0.08337 0.0
C722 C 0.39766 0.91788 0.34169 0.0
C723 C 0.42038 0.95073 0.3444 0.0
C724 C 0.39294 0.90081 0.32101 0.0
C725 C 0.41148 0.91559 0.30247 0.0
H726 H 0.38379 0.90511 0.35566 0.0
H727 H 0.37565 0.87524 0.31969 0.0
S728 S 0.4737 0.00157 0.30099 0.0
N729 N 0.46128 0.99751 0.32683 0.0
N730 N 0.45226 0.96596 0.28819 0.0
C731 C 0.43369 0.94886 0.30501 0.0
C732 C 0.43821 0.96627 0.32591 0.0
C733 C 0.12462 0.9 0.59408 0.0
C734 C 0.0909 0.9216 0.59665 0.0
C735 C 0.14109 0.89449 0.57334 0.0
C736 C 0.12479 0.91116 0.55461 0.0
H737 H 0.13852 0.88765 0.60819 0.0
H738 H 0.16737 0.87818 0.57207 0.0
S739 S 0.03614 0.96986 0.55274 0.0
N740 N 0.04172 0.95941 0.57876 0.0
N741 N 0.07215 0.94892 0.54003 0.0
C742 C 0.09067 0.93221 0.55704 0.0
C743 C 0.07389 0.93751 0.57799 0.0
C744 C 0.65166 0.39905 0.90506 0.0
C745 C 0.61299 0.39946 0.89846 0.0
C746 C 0.66329 0.37817 0.92345 0.0
C747 C 0.63632 0.35816 0.93598 0.0
H748 H 0.67272 0.41568 0.89629 0.0
H749 H 0.69302 0.37934 0.92856 0.0
S750 S 0.53215 0.34974 0.92526 0.0
N751 N 0.54828 0.37696 0.90537 0.0
N752 N 0.56995 0.33904 0.94031 0.0
C753 C 0.59792 0.35771 0.92925 0.0
C754 C 0.58627 0.37807 0.91035 0.0
C755 C 0.68389 0.09892 0.16189 0.0
C756 C 0.64806 0.11067 0.15359 0.0
C757 C 0.69642 0.1104 0.18263 0.0
C758 C 0.67423 0.13508 0.1955 0.0
H759 H 0.70122 0.07859 0.1529 0.0
H760 H 0.72261 0.09826 0.18914 0.0
S761 S 0.58108 0.17834 0.18061 0.0
N762 N 0.59217 0.15115 0.15946 0.0
N763 N 0.61705 0.17412 0.198 0.0
C764 C 0.64031 0.15003 0.18671 0.0
C765 C 0.62696 0.13765 0.16578 0.0
C766 C 0.91798 0.17817 0.40409 0.0
C767 C 0.9302 0.14013 0.40228 0.0
C768 C 0.90112 0.19174 0.42341 0.0
C769 C 0.89692 0.16793 0.44168 0.0
H770 H 0.92241 0.19772 0.3907 0.0
H771 H 0.89309 0.22154 0.42437 0.0
S772 S 0.923 0.06549 0.44462 0.0
N773 N 0.93549 0.07842 0.41976 0.0
N774 N 0.90459 0.10395 0.45619 0.0
C775 C 0.90799 0.12952 0.43973 0.0
C776 C 0.92447 0.1156 0.41998 0.0
C777 C 0.89507 0.40087 0.65841 0.0
C778 C 0.92704 0.42529 0.65917 0.0
C779 C 0.87547 0.39085 0.67758 0.0
C780 C 0.88707 0.40515 0.69808 0.0
H781 H 0.88527 0.38937 0.64294 0.0
H782 H 0.85111 0.37181 0.67629 0.0
S783 S 0.96723 0.47274 0.70842 0.0
N784 N 0.968 0.46527 0.68183 0.0
N785 N 0.93165 0.44645 0.71769 0.0
C786 C 0.91874 0.43002 0.69892 0.0
C787 C 0.93858 0.44011 0.6795 0.0
C788 C 0.65221 0.16265 0.35141 0.0
C789 C 0.64193 0.12421 0.35398 0.0
C790 C 0.66544 0.17624 0.33129 0.0
C791 C 0.66793 0.15204 0.31293 0.0
H792 H 0.64912 0.18249 0.3649 0.0
H793 H 0.6723 0.20625 0.32993 0.0
S794 S 0.64543 0.04856 0.31156 0.0
N795 N 0.63634 0.06181 0.33691 0.0
N796 N 0.66043 0.08733 0.29902 0.0
C797 C 0.65864 0.11329 0.31552 0.0
C798 C 0.64584 0.09938 0.33608 0.0
C799 C 0.88791 0.15233 0.59565 0.0
C800 C 0.92604 0.14556 0.60217 0.0
C801 C 0.87917 0.16255 0.57407 0.0
C802 C 0.90827 0.16549 0.55834 0.0
H803 H 0.86462 0.14768 0.607 0.0
H804 H 0.84937 0.16531 0.5693 0.0
S805 S 0.01258 0.15378 0.56744 0.0
N806 N 0.99316 0.14552 0.59151 0.0
N807 N 0.97652 0.16385 0.55093 0.0
C808 C 0.94651 0.16104 0.56494 0.0
C809 C 0.95548 0.15134 0.58691 0.0
C810 C 0.86158 0.4349 0.84649 0.0
C811 C 0.89502 0.42683 0.85856 0.0
C812 C 0.85662 0.42063 0.82517 0.0
C813 C 0.88531 0.39844 0.81521 0.0
H814 H 0.84005 0.45393 0.85315 0.0
H815 H 0.83162 0.42931 0.81593 0.0
S816 S 0.97616 0.36592 0.84049 0.0
N817 N 0.95564 0.39249 0.85946 0.0
N818 N 0.94624 0.36589 0.81958 0.0
C819 C 0.9175 0.38805 0.82762 0.0
C820 C 0.92239 0.40218 0.84928 0.0
C821 C 0.57266 0.39432 0.07997 0.0
C822 C 0.60168 0.39383 0.0959 0.0
C823 C 0.58056 0.38458 0.05826 0.0
C824 C 0.61756 0.37329 0.05183 0.0
H825 H 0.54429 0.40476 0.084 0.0
H826 H 0.5579 0.38738 0.04625 0.0
S827 S 0.70239 0.36337 0.08793 0.0
N828 N 0.66799 0.37867 0.10428 0.0
N829 N 0.68271 0.35914 0.06348 0.0
C830 C 0.64614 0.37001 0.06792 0.0
C831 C 0.63825 0.3807 0.08998 0.0
loop_
_geom_bond_atom_site_label_1
_geom_bond_atom_site_label_2
_geom_bond_distance
_geom_bond_site_symmetry_2
_ccdc_geom_bond_type
C0 C1 1.384 . S
C0 C2 1.384 . S
C0 H28 0.931 . S
C1 C0 1.384 . S
C1 C4 1.382 . S
C2 C0 1.384 . S
C2 C3 1.381 . S
C2 H29 0.930 . S
C3 C2 1.381 . S
C3 C5 1.381 1_565 S
C3 C6 1.487 1_565 S
C4 C1 1.382 . S
C4 C5 1.387 1_565 S
C4 H30 0.930 1_565 S
C5 C3 1.381 1_545 S
C5 C4 1.387 1_545 S
C5 H31 0.931 . S
C6 C3 1.487 1_545 S
C6 C13 1.399 . S
C6 N44 1.343 . S
C7 C8 1.384 . S
C7 C9 1.384 . S
C7 H32 0.931 . S
C8 C7 1.384 . S
C8 C11 1.382 . S
C9 C7 1.384 . S
C9 C10 1.381 . S
C9 H33 0.930 1_565 S
C10 C9 1.381 . S
C10 C12 1.381 . S
C10 C13 1.487 1_565 S
C11 C8 1.382 . S
C11 C12 1.387 . S
C11 H34 0.930 . S
C12 C10 1.381 . S
C12 C11 1.387 . S
C12 H35 0.931 . S
C13 C6 1.399 . S
C13 C10 1.487 1_545 S
C13 N45 1.343 . S
C14 C15 1.384 . S
C14 C16 1.384 . S
C14 H36 0.931 . S
C15 C14 1.384 . S
C15 C18 1.382 . S
C16 C14 1.384 . S
C16 C17 1.381 . S
C16 H37 0.930 . S
C17 C16 1.381 . S
C17 C19 1.381 . S
C17 C20 1.487 1_655 S
C18 C15 1.382 . S
C18 C19 1.387 . S
C18 H38 0.930 . S
C19 C17 1.381 . S
C19 C18 1.387 . S
C19 H39 0.931 . S
C20 C17 1.487 1_455 S
C20 C27 1.399 . S
C20 N45 1.343 . S
C21 C22 1.384 . S
C21 C23 1.384 . S
C21 H40 0.931 . S
C22 C21 1.384 . S
C22 C25 1.382 . S
C23 C21 1.384 . S
C23 C24 1.381 . S
C23 H41 0.930 . S
C24 C23 1.381 . S
C24 C26 1.381 . S
C24 C27 1.487 1_655 S
C25 C22 1.382 . S
C25 C26 1.387 . S
C25 H42 0.930 . S
C26 C24 1.381 . S
C26 C25 1.387 . S
C26 H43 0.931 1_655 S
C27 C20 1.399 . S
C27 C24 1.487 1_455 S
C27 N44 1.343 . S
H28 C0 0.931 . S
H29 C2 0.930 . S
H30 C4 0.930 1_545 S
H31 C5 0.931 . S
H32 C7 0.931 . S
H33 C9 0.930 1_545 S
H34 C11 0.930 . S
H35 C12 0.931 . S
H36 C14 0.931 . S
H37 C16 0.930 . S
H38 C18 0.930 . S
H39 C19 0.931 . S
H40 C21 0.931 . S
H41 C23 0.930 . S
H42 C25 0.930 . S
H43 C26 0.931 1_455 S
N44 C6 1.343 . S
N44 C27 1.343 . S
N45 C13 1.343 . S
N45 C20 1.343 . S
C46 C47 1.384 . S
C46 C48 1.384 . S
C46 H74 0.931 . S
C47 C46 1.384 . S
C47 C50 1.382 . S
C48 C46 1.384 . S
C48 C49 1.381 . S
C48 H75 0.930 . S
C49 C48 1.381 . S
C49 C51 1.381 . S
C49 C52 1.487 . S
C50 C47 1.382 . S
C50 C51 1.387 . S
C50 H76 0.930 . S
C51 C49 1.381 . S
C51 C50 1.387 . S
C51 H77 0.931 1_655 S
C52 C49 1.487 . S
C52 C59 1.399 . S
C52 N90 1.343 1_655 S
C53 C54 1.384 . S
C53 C55 1.384 . S
C53 H78 0.931 . S
C54 C53 1.384 . S
C54 C57 1.382 . S
C55 C53 1.384 . S
C55 C56 1.381 . S
C55 H79 0.930 . S
C56 C55 1.381 . S
C56 C58 1.381 . S
C56 C59 1.487 . S
C57 C54 1.382 . S
C57 C58 1.387 . S
C57 H80 0.930 . S
C58 C56 1.381 . S
C58 C57 1.387 . S
C58 H81 0.931 . S
C59 C52 1.399 . S
C59 C56 1.487 . S
C59 N91 1.343 1_655 S
C60 C61 1.384 . S
C60 C62 1.384 . S
C60 H82 0.931 . S
C61 C60 1.384 . S
C61 C64 1.382 . S
C62 C60 1.384 . S
C62 C63 1.381 . S
C62 H83 0.930 . S
C63 C62 1.381 . S
C63 C65 1.381 . S
C63 C66 1.487 . S
C64 C61 1.382 . S
C64 C65 1.387 . S
C64 H84 0.930 . S
C65 C63 1.381 . S
C65 C64 1.387 . S
C65 H85 0.931 . S
C66 C63 1.487 . S
C66 C73 1.399 . S
C66 N91 1.343 . S
C67 C68 1.384 . S
C67 C69 1.384 . S
C67 H86 0.931 . S
C68 C67 1.384 . S
C68 C71 1.382 . S
C69 C67 1.384 . S
C69 C70 1.381 . S
C69 H87 0.930 . S
C70 C69 1.381 . S
C70 C72 1.381 . S
C70 C73 1.487 . S
C71 C68 1.382 . S
C71 C72 1.387 . S
C71 H88 0.930 . S
C72 C70 1.381 . S
C72 C71 1.387 . S
C72 H89 0.931 . S
C73 C66 1.399 . S
C73 C70 1.487 . S
C73 N90 1.343 . S
H74 C46 0.931 . S
H75 C48 0.930 . S
H76 C50 0.930 . S
H77 C51 0.931 1_455 S
H78 C53 0.931 . S
H79 C55 0.930 . S
H80 C57 0.930 . S
H81 C58 0.931 . S
H82 C60 0.931 . S
H83 C62 0.930 . S
H84 C64 0.930 . S
H85 C65 0.931 . S
H86 C67 0.931 . S
H87 C69 0.930 . S
H88 C71 0.930 . S
H89 C72 0.931 . S
N90 C52 1.343 1_455 S
N90 C73 1.343 . S
N91 C59 1.343 1_455 S
N91 C66 1.343 . S
C92 C93 1.384 . S
C92 C94 1.384 . S
C92 H120 0.931 . S
C93 C92 1.384 . S
C93 C96 1.382 . S
C94 C92 1.384 . S
C94 C95 1.381 . S
C94 H121 0.930 . S
C95 C94 1.381 . S
C95 C97 1.381 . S
C95 C98 1.487 . S
C96 C93 1.382 . S
C96 C97 1.387 . S
C96 H122 0.930 . S
C97 C95 1.381 . S
C97 C96 1.387 . S
C97 H123 0.931 . S
C98 C95 1.487 . S
C98 C105 1.399 . S
C98 N136 1.343 . S
C99 C100 1.384 . S
C99 C101 1.384 . S
C99 H124 0.931 . S
C100 C99 1.384 . S
C100 C103 1.382 . S
C101 C99 1.384 . S
C101 C102 1.381 . S
C101 H125 0.930 . S
C102 C101 1.381 . S
C102 C104 1.381 . S
C102 C105 1.487 . S
C103 C100 1.382 . S
C103 C104 1.387 . S
C103 H126 0.930 . S
C104 C102 1.381 . S
C104 C103 1.387 . S
C104 H127 0.931 . S
C105 C98 1.399 . S
C105 C102 1.487 . S
C105 N137 1.343 . S
C106 C107 1.384 . S
C106 C108 1.384 . S
C106 H128 0.931 . S
C107 C106 1.384 . S
C107 C110 1.382 . S
C108 C106 1.384 . S
C108 C109 1.381 . S
C108 H129 0.930 . S
C109 C108 1.381 . S
C109 C111 1.381 . S
C109 C112 1.487 . S
C110 C107 1.382 . S
C110 C111 1.387 . S
C110 H130 0.930 . S
C111 C109 1.381 . S
C111 C110 1.387 . S
C111 H131 0.931 . S
C112 C109 1.487 . S
C112 C119 1.399 . S
C112 N137 1.343 . S
C113 C114 1.384 . S
C113 C115 1.384 . S
C113 H132 0.931 . S
C114 C113 1.384 . S
C114 C117 1.382 . S
C115 C113 1.384 . S
C115 C116 1.381 . S
C115 H133 0.930 . S
C116 C115 1.381 . S
C116 C118 1.381 . S
C116 C119 1.487 . S
C117 C114 1.382 . S
C117 C118 1.387 . S
C117 H134 0.930 . S
C118 C116 1.381 . S
C118 C117 1.387 . S
C118 H135 0.931 . S
C119 C112 1.399 . S
C119 C116 1.487 . S
C119 N136 1.343 . S
H120 C92 0.931 . S
H121 C94 0.930 . S
H122 C96 0.930 . S
H123 C97 0.931 . S
H124 C99 0.931 . S
H125 C101 0.930 . S
H126 C103 0.930 . S
H127 C104 0.931 . S
H128 C106 0.931 . S
H129 C108 0.930 . S
H130 C110 0.930 . S
H131 C111 0.931 . S
H132 C113 0.931 . S
H133 C115 0.930 . S
H134 C117 0.930 . S
H135 C118 0.931 . S
N136 C98 1.343 . S
N136 C119 1.343 . S
N137 C105 1.343 . S
N137 C112 1.343 . S
C138 C139 1.384 . S
C138 C140 1.384 . S
C138 H166 0.931 . S
C139 C138 1.384 . S
C139 C142 1.382 . S
C140 C138 1.384 . S
C140 C141 1.381 . S
C140 H167 0.930 . S
C141 C140 1.381 . S
C141 C143 1.381 . S
C141 C144 1.487 . S
C142 C139 1.382 . S
C142 C143 1.387 . S
C142 H168 0.930 . S
C143 C141 1.381 . S
C143 C142 1.387 . S
C143 H169 0.931 . S
C144 C141 1.487 . S
C144 C151 1.399 . S
C144 N182 1.343 1_565 S
C145 C146 1.384 . S
C145 C147 1.384 . S
C145 H170 0.931 . S
C146 C145 1.384 . S
C146 C149 1.382 . S
C147 C145 1.384 . S
C147 C148 1.381 . S
C147 H171 0.930 . S
C148 C147 1.381 . S
C148 C150 1.381 . S
C148 C151 1.487 . S
C149 C146 1.382 . S
C149 C150 1.387 . S
C149 H172 0.930 . S
C150 C148 1.381 . S
C150 C149 1.387 . S
C150 H173 0.931 . S
C151 C144 1.399 . S
C151 C148 1.487 . S
C151 N183 1.343 . S
C152 C153 1.384 . S
C152 C154 1.384 . S
C152 H174 0.931 . S
C153 C152 1.384 . S
C153 C156 1.382 . S
C154 C152 1.384 . S
C154 C155 1.381 . S
C154 H175 0.930 . S
C155 C154 1.381 . S
C155 C157 1.381 . S
C155 C158 1.487 . S
C156 C153 1.382 . S
C156 C157 1.387 . S
C156 H176 0.930 . S
C157 C155 1.381 . S
C157 C156 1.387 . S
C157 H177 0.931 . S
C158 C155 1.487 . S
C158 C165 1.399 . S
C158 N183 1.343 1_545 S
C159 C160 1.384 . S
C159 C161 1.384 . S
C159 H178 0.931 . S
C160 C159 1.384 . S
C160 C163 1.382 . S
C161 C159 1.384 . S
C161 C162 1.381 . S
C161 H179 0.930 . S
C162 C161 1.381 . S
C162 C164 1.381 . S
C162 C165 1.487 . S
C163 C160 1.382 . S
C163 C164 1.387 . S
C163 H180 0.930 . S
C164 C162 1.381 . S
C164 C163 1.387 . S
C164 H181 0.931 . S
C165 C158 1.399 . S
C165 C162 1.487 . S
C165 N182 1.343 . S
H166 C138 0.931 . S
H167 C140 0.930 . S
H168 C142 0.930 . S
H169 C143 0.931 . S
H170 C145 0.931 . S
H171 C147 0.930 . S
H172 C149 0.930 . S
H173 C150 0.931 . S
H174 C152 0.931 . S
H175 C154 0.930 . S
H176 C156 0.930 . S
H177 C157 0.931 . S
H178 C159 0.931 . S
H179 C161 0.930 . S
H180 C163 0.930 . S
H181 C164 0.931 . S
N182 C144 1.343 1_545 S
N182 C165 1.343 . S
N183 C151 1.343 . S
N183 C158 1.343 1_565 S
C184 C185 1.384 . S
C184 C186 1.384 . S
C184 H212 0.931 . S
C185 C184 1.384 . S
C185 C188 1.382 . S
C186 C184 1.384 . S
C186 C187 1.381 . S
C186 H213 0.930 . S
C187 C186 1.381 . S
C187 C189 1.381 . S
C187 C190 1.487 . S
C188 C185 1.382 . S
C188 C189 1.387 . S
C188 H214 0.930 . S
C189 C187 1.381 . S
C189 C188 1.387 . S
C189 H215 0.931 . S
C190 C187 1.487 . S
C190 C197 1.399 . S
C190 N228 1.343 . S
C191 C192 1.384 . S
C191 C193 1.384 . S
C191 H216 0.931 . S
C192 C191 1.384 . S
C192 C195 1.382 . S
C193 C191 1.384 . S
C193 C194 1.381 . S
C193 H217 0.930 . S
C194 C193 1.381 . S
C194 C196 1.381 . S
C194 C197 1.487 . S
C195 C192 1.382 . S
C195 C196 1.387 . S
C195 H218 0.930 . S
C196 C194 1.381 . S
C196 C195 1.387 . S
C196 H219 0.931 . S
C197 C190 1.399 . S
C197 C194 1.487 . S
C197 N229 1.343 1_455 S
C198 C199 1.384 . S
C198 C200 1.384 . S
C198 H220 0.931 . S
C199 C198 1.384 . S
C199 C202 1.382 . S
C200 C198 1.384 . S
C200 C201 1.381 . S
C200 H221 0.930 . S
C201 C200 1.381 . S
C201 C203 1.381 . S
C201 C204 1.487 . S
C202 C199 1.382 . S
C202 C203 1.387 . S
C202 H222 0.930 . S
C203 C201 1.381 . S
C203 C202 1.387 . S
C203 H223 0.931 . S
C204 C201 1.487 . S
C204 C211 1.399 . S
C204 N229 1.343 . S
C205 C206 1.384 . S
C205 C207 1.384 . S
C205 H224 0.931 . S
C206 C205 1.384 . S
C206 C209 1.382 . S
C207 C205 1.384 . S
C207 C208 1.381 . S
C207 H225 0.930 . S
C208 C207 1.381 . S
C208 C210 1.381 . S
C208 C211 1.487 . S
C209 C206 1.382 . S
C209 C210 1.387 . S
C209 H226 0.930 . S
C210 C208 1.381 . S
C210 C209 1.387 . S
C210 H227 0.931 . S
C211 C204 1.399 . S
C211 C208 1.487 . S
C211 N228 1.343 1_655 S
H212 C184 0.931 . S
H213 C186 0.930 . S
H214 C188 0.930 . S
H215 C189 0.931 . S
H216 C191 0.931 . S
H217 C193 0.930 . S
H218 C195 0.930 . S
H219 C196 0.931 . S
H220 C198 0.931 . S
H221 C200 0.930 . S
H222 C202 0.930 . S
H223 C203 0.931 . S
H224 C205 0.931 . S
H225 C207 0.930 . S
H226 C209 0.930 . S
H227 C210 0.931 . S
N228 C190 1.343 . S
N228 C211 1.343 1_455 S
N229 C197 1.343 1_655 S
N229 C204 1.343 . S
C230 C231 1.384 . S
C230 C232 1.384 . S
C230 H258 0.931 . S
C231 C230 1.384 . S
C231 C234 1.382 . S
C232 C230 1.384 . S
C232 C233 1.381 . S
C232 H259 0.930 . S
C233 C232 1.381 . S
C233 C235 1.381 . S
C233 C236 1.487 . S
C234 C231 1.382 . S
C234 C235 1.387 . S
C234 H260 0.930 . S
C235 C233 1.381 . S
C235 C234 1.387 . S
C235 H261 0.931 . S
C236 C233 1.487 . S
C236 C243 1.399 . S
C236 N274 1.343 . S
C237 C238 1.384 . S
C237 C239 1.384 . S
C237 H262 0.931 . S
C238 C237 1.384 . S
C238 C241 1.382 . S
C239 C237 1.384 . S
C239 C240 1.381 . S
C239 H263 0.930 . S
C240 C239 1.381 . S
C240 C242 1.381 . S
C240 C243 1.487 . S
C241 C238 1.382 . S
C241 C242 1.387 . S
C241 H264 0.930 . S
C242 C240 1.381 . S
C242 C241 1.387 . S
C242 H265 0.931 . S
C243 C236 1.399 . S
C243 C240 1.487 . S
C243 N275 1.343 . S
C244 C245 1.384 . S
C244 C246 1.384 . S
C244 H266 0.931 . S
C245 C244 1.384 . S
C245 C248 1.382 . S
C246 C244 1.384 . S
C246 C247 1.381 . S
C246 H267 0.930 . S
C247 C246 1.381 . S
C247 C249 1.381 . S
C247 C250 1.487 . S
C248 C245 1.382 . S
C248 C249 1.387 . S
C248 H268 0.930 . S
C249 C247 1.381 . S
C249 C248 1.387 . S
C249 H269 0.931 . S
C250 C247 1.487 . S
C250 C257 1.399 . S
C250 N275 1.343 . S
C251 C252 1.384 . S
C251 C253 1.384 . S
C251 H270 0.931 . S
C252 C251 1.384 . S
C252 C255 1.382 . S
C253 C251 1.384 . S
C253 C254 1.381 . S
C253 H271 0.930 . S
C254 C253 1.381 . S
C254 C256 1.381 . S
C254 C257 1.487 . S
C255 C252 1.382 . S
C255 C256 1.387 . S
C255 H272 0.930 . S
C256 C254 1.381 . S
C256 C255 1.387 . S
C256 H273 0.931 . S
C257 C250 1.399 . S
C257 C254 1.487 . S
C257 N274 1.343 . S
H258 C230 0.931 . S
H259 C232 0.930 . S
H260 C234 0.930 . S
H261 C235 0.931 . S
H262 C237 0.931 . S
H263 C239 0.930 . S
H264 C241 0.930 . S
H265 C242 0.931 . S
H266 C244 0.931 . S
H267 C246 0.930 . S
H268 C248 0.930 . S
H269 C249 0.931 . S
H270 C251 0.931 . S
H271 C253 0.930 . S
H272 C255 0.930 . S
H273 C256 0.931 . S
N274 C236 1.343 . S
N274 C257 1.343 . S
N275 C243 1.343 . S
N275 C250 1.343 . S
C276 C277 1.384 . S
C276 C278 1.384 . S
C276 H304 0.931 . S
C277 C276 1.384 . S
C277 C280 1.382 . S
C278 C276 1.384 . S
C278 C279 1.381 . S
C278 H305 0.930 . S
C279 C278 1.381 . S
C279 C281 1.381 . S
C279 C282 1.487 . S
C280 C277 1.382 . S
C280 C281 1.387 . S
C280 H306 0.930 . S
C281 C279 1.381 . S
C281 C280 1.387 . S
C281 H307 0.931 1_565 S
C282 C279 1.487 . S
C282 C289 1.399 . S
C282 N320 1.343 1_565 S
C283 C284 1.384 . S
C283 C285 1.384 . S
C283 H308 0.931 . S
C284 C283 1.384 . S
C284 C287 1.382 . S
C285 C283 1.384 . S
C285 C286 1.381 . S
C285 H309 0.930 . S
C286 C285 1.381 . S
C286 C288 1.381 . S
C286 C289 1.487 . S
C287 C284 1.382 . S
C287 C288 1.387 . S
C287 H310 0.930 . S
C288 C286 1.381 . S
C288 C287 1.387 . S
C288 H311 0.931 . S
C289 C282 1.399 . S
C289 C286 1.487 . S
C289 N321 1.343 1_565 S
C290 C291 1.384 . S
C290 C292 1.384 . S
C290 H312 0.931 . S
C291 C290 1.384 . S
C291 C294 1.382 . S
C292 C290 1.384 . S
C292 C293 1.381 . S
C292 H313 0.930 . S
C293 C292 1.381 . S
C293 C295 1.381 . S
C293 C296 1.487 . S
C294 C291 1.382 . S
C294 C295 1.387 . S
C294 H314 0.930 . S
C295 C293 1.381 . S
C295 C294 1.387 . S
C295 H315 0.931 . S
C296 C293 1.487 . S
C296 C303 1.399 . S
C296 N321 1.343 . S
C297 C298 1.384 . S
C297 C299 1.384 . S
C297 H316 0.931 . S
C298 C297 1.384 . S
C298 C301 1.382 . S
C299 C297 1.384 . S
C299 C300 1.381 . S
C299 H317 0.930 . S
C300 C299 1.381 . S
C300 C302 1.381 . S
C300 C303 1.487 . S
C301 C298 1.382 . S
C301 C302 1.387 . S
C301 H318 0.930 . S
C302 C300 1.381 . S
C302 C301 1.387 . S
C302 H319 0.931 . S
C303 C296 1.399 . S
C303 C300 1.487 . S
C303 N320 1.343 . S
H304 C276 0.931 . S
H305 C278 0.930 . S
H306 C280 0.930 . S
H307 C281 0.931 1_545 S
H308 C283 0.931 . S
H309 C285 0.930 . S
H310 C287 0.930 . S
H311 C288 0.931 . S
H312 C290 0.931 . S
H313 C292 0.930 . S
H314 C294 0.930 . S
H315 C295 0.931 . S
H316 C297 0.931 . S
H317 C299 0.930 . S
H318 C301 0.930 . S
H319 C302 0.931 . S
N320 C282 1.343 1_545 S
N320 C303 1.343 . S
N321 C289 1.343 1_545 S
N321 C296 1.343 . S
C322 C323 1.384 . S
C322 C324 1.384 . S
C322 H350 0.931 . S
C323 C322 1.384 . S
C323 C326 1.382 . S
C324 C322 1.384 . S
C324 C325 1.381 . S
C324 H351 0.930 . S
C325 C324 1.381 . S
C325 C327 1.381 . S
C325 C328 1.487 1_565 S
C326 C323 1.382 . S
C326 C327 1.387 . S
C326 H352 0.930 . S
C327 C325 1.381 . S
C327 C326 1.387 . S
C327 H353 0.931 . S
C328 C325 1.487 1_545 S
C328 C335 1.399 . S
C328 N366 1.343 . S
C329 C330 1.384 . S
C329 C331 1.384 . S
C329 H354 0.931 . S
C330 C329 1.384 . S
C330 C333 1.382 . S
C331 C329 1.384 . S
C331 C332 1.381 . S
C331 H355 0.930 . S
C332 C331 1.381 . S
C332 C334 1.381 1_565 S
C332 C335 1.487 1_565 S
C333 C330 1.382 . S
C333 C334 1.387 1_565 S
C333 H356 0.930 . S
C334 C332 1.381 1_545 S
C334 C333 1.387 1_545 S
C334 H357 0.931 . S
C335 C328 1.399 . S
C335 C332 1.487 1_545 S
C335 N367 1.343 . S
C336 C337 1.384 . S
C336 C338 1.384 . S
C336 H358 0.931 . S
C337 C336 1.384 . S
C337 C340 1.382 . S
C338 C336 1.384 . S
C338 C339 1.381 . S
C338 H359 0.930 . S
C339 C338 1.381 . S
C339 C341 1.381 1_655 S
C339 C342 1.487 1_655 S
C340 C337 1.382 . S
C340 C341 1.387 1_655 S
C340 H360 0.930 1_655 S
C341 C339 1.381 1_455 S
C341 C340 1.387 1_455 S
C341 H361 0.931 . S
C342 C339 1.487 1_455 S
C342 C349 1.399 . S
C342 N367 1.343 . S
C343 C344 1.384 . S
C343 C345 1.384 . S
C343 H362 0.931 . S
C344 C343 1.384 . S
C344 C347 1.382 . S
C345 C343 1.384 . S
C345 C346 1.381 . S
C345 H363 0.930 1_655 S
C346 C345 1.381 . S
C346 C348 1.381 . S
C346 C349 1.487 1_655 S
C347 C344 1.382 . S
C347 C348 1.387 . S
C347 H364 0.930 . S
C348 C346 1.381 . S
C348 C347 1.387 . S
C348 H365 0.931 . S
C349 C342 1.399 . S
C349 C346 1.487 1_455 S
C349 N366 1.343 . S
H350 C322 0.931 . S
H351 C324 0.930 . S
H352 C326 0.930 . S
H353 C327 0.931 . S
H354 C329 0.931 . S
H355 C331 0.930 . S
H356 C333 0.930 . S
H357 C334 0.931 . S
H358 C336 0.931 . S
H359 C338 0.930 . S
H360 C340 0.930 1_455 S
H361 C341 0.931 . S
H362 C343 0.931 . S
H363 C345 0.930 1_455 S
H364 C347 0.930 . S
H365 C348 0.931 . S
N366 C328 1.343 . S
N366 C349 1.343 . S
N367 C335 1.343 . S
N367 C342 1.343 . S
Co368 O369 2.216 . S
Co368 O370 2.091 . S
Co368 O372 2.004 . S
Co368 O378 2.021 1_554 S
Co368 O380 2.137 . S
Co368 O381 2.244 . S
O369 Co368 2.216 . S
O369 C376 1.251 . S
O370 Co368 2.091 . S
O370 C376 1.267 . S
C371 O380 1.247 . S
C371 O381 1.272 . S
O372 Co368 2.004 . S
O372 C377 1.259 . S
Co373 O374 2.061 . S
Co373 O379 2.052 1_554 S
Co373 O381 2.135 . S
O374 Co373 2.061 . S
O374 C377 1.235 . S
C375 O378 1.238 . S
C375 O379 1.241 . S
C376 O369 1.251 . S
C376 O370 1.267 . S
C377 O372 1.259 . S
C377 O374 1.235 . S
O378 Co368 2.021 1_556 S
O378 C375 1.238 . S
O379 Co373 2.052 1_556 S
O379 C375 1.241 . S
O380 Co368 2.137 . S
O380 C371 1.247 . S
O381 Co368 2.244 . S
O381 C371 1.272 . S
O381 Co373 2.135 . S
Co382 O383 2.216 . S
Co382 O384 2.091 . S
Co382 O386 2.004 . S
Co382 O392 2.021 . S
Co382 O394 2.137 . S
Co382 O395 2.244 . S
O383 Co382 2.216 . S
O383 C390 1.247 . S
O384 Co382 2.091 . S
O384 C390 1.261 . S
C385 O394 1.247 . S
C385 O395 1.272 . S
O386 Co382 2.004 . S
O386 C391 1.259 . S
Co387 O388 2.061 . S
Co387 O393 2.052 . S
Co387 O395 2.135 . S
O388 Co387 2.061 . S
O388 C391 1.235 . S
C389 O392 1.238 . S
C389 O393 1.241 . S
C390 O383 1.247 . S
C390 O384 1.261 . S
C391 O386 1.259 . S
C391 O388 1.235 . S
O392 Co382 2.021 . S
O392 C389 1.238 . S
O393 Co387 2.052 . S
O393 C389 1.241 . S
O394 Co382 2.137 . S
O394 C385 1.247 . S
O395 Co382 2.244 . S
O395 C385 1.272 . S
O395 Co387 2.135 . S
Co396 O397 2.216 . S
Co396 O398 2.091 . S
Co396 O400 2.004 . S
Co396 O406 2.021 . S
Co396 O408 2.137 . S
Co396 O409 2.244 . S
O397 Co396 2.216 . S
O397 C404 1.247 . S
O398 Co396 2.091 . S
O398 C404 1.261 . S
C399 O408 1.247 . S
C399 O409 1.272 . S
O400 Co396 2.004 . S
O400 C405 1.259 . S
Co401 O402 2.061 . S
Co401 O407 2.052 . S
Co401 O409 2.135 . S
O402 Co401 2.061 . S
O402 C405 1.235 . S
C403 O406 1.238 . S
C403 O407 1.241 . S
C404 O397 1.247 . S
C404 O398 1.261 . S
C405 O400 1.259 . S
C405 O402 1.235 . S
O406 Co396 2.021 . S
O406 C403 1.238 . S
O407 Co401 2.052 . S
O407 C403 1.241 . S
O408 Co396 2.137 . S
O408 C399 1.247 . S
O409 Co396 2.244 . S
O409 C399 1.272 . S
O409 Co401 2.135 . S
Co410 O411 2.216 . S
Co410 O412 2.091 . S
Co410 O414 2.004 . S
Co410 O420 2.021 . S
Co410 O422 2.137 . S
Co410 O423 2.244 . S
O411 Co410 2.216 . S
O411 C418 1.247 . S
O412 Co410 2.091 . S
O412 C418 1.261 . S
C413 O422 1.247 . S
C413 O423 1.272 . S
O414 Co410 2.004 . S
O414 C419 1.259 . S
Co415 O416 2.061 . S
Co415 O421 2.052 . S
Co415 O423 2.135 . S
O416 Co415 2.061 . S
O416 C419 1.235 . S
C417 O420 1.238 . S
C417 O421 1.241 . S
C418 O411 1.247 . S
C418 O412 1.261 . S
C419 O414 1.259 . S
C419 O416 1.235 . S
O420 Co410 2.021 . S
O420 C417 1.238 . S
O421 Co415 2.052 . S
O421 C417 1.241 . S
O422 Co410 2.137 . S
O422 C413 1.247 . S
O423 Co410 2.244 . S
O423 C413 1.272 . S
O423 Co415 2.135 . S
Co424 O425 2.216 . S
Co424 O426 2.091 . S
Co424 O428 2.004 . S
Co424 O434 2.021 . S
Co424 O436 2.137 . S
Co424 O437 2.244 . S
O425 Co424 2.216 . S
O425 C432 1.247 . S
O426 Co424 2.091 . S
O426 C432 1.261 . S
C427 O436 1.247 . S
C427 O437 1.272 . S
O428 Co424 2.004 . S
O428 C433 1.259 . S
Co429 O430 2.061 . S
Co429 O435 2.052 . S
Co429 O437 2.135 . S
O430 Co429 2.061 . S
O430 C433 1.235 . S
C431 O434 1.238 . S
C431 O435 1.241 . S
C432 O425 1.247 . S
C432 O426 1.261 . S
C433 O428 1.259 . S
C433 O430 1.235 . S
O434 Co424 2.021 . S
O434 C431 1.238 . S
O435 Co429 2.052 . S
O435 C431 1.241 . S
O436 Co424 2.137 . S
O436 C427 1.247 . S
O437 Co424 2.244 . S
O437 C427 1.272 . S
O437 Co429 2.135 . S
Co438 O439 2.216 . S
Co438 O440 2.091 . S
Co438 O442 2.004 . S
Co438 O448 2.021 . S
Co438 O450 2.137 . S
Co438 O451 2.244 . S
O439 Co438 2.216 . S
O439 C446 1.247 . S
O440 Co438 2.091 . S
O440 C446 1.261 . S
C441 O450 1.247 . S
C441 O451 1.272 . S
O442 Co438 2.004 . S
O442 C447 1.259 . S
Co443 O444 2.061 . S
Co443 O449 2.052 . S
Co443 O451 2.135 . S
O444 Co443 2.061 . S
O444 C447 1.235 . S
C445 O448 1.238 . S
C445 O449 1.241 . S
C446 O439 1.247 . S
C446 O440 1.261 . S
C447 O442 1.259 . S
C447 O444 1.235 . S
O448 Co438 2.021 . S
O448 C445 1.238 . S
O449 Co443 2.052 . S
O449 C445 1.241 . S
O450 Co438 2.137 . S
O450 C441 1.247 . S
O451 Co438 2.244 . S
O451 C441 1.272 . S
O451 Co443 2.135 . S
Co452 O453 2.209 1_556 S
Co452 O454 2.085 1_556 S
Co452 O456 2.011 . S
Co452 O462 1.994 1_556 S
Co452 O464 2.165 . S
Co452 O465 2.258 . S
O453 Co452 2.209 1_554 S
O453 C460 1.247 . S
O454 Co452 2.085 1_554 S
O454 C460 1.261 . S
C455 O464 1.247 . S
C455 O465 1.272 . S
O456 Co452 2.011 . S
O456 C461 1.259 . S
Co457 O458 2.061 . S
Co457 O463 2.052 1_556 S
Co457 O465 2.135 . S
O458 Co457 2.061 . S
O458 C461 1.235 . S
C459 O462 1.238 . S
C459 O463 1.241 . S
C460 O453 1.247 . S
C460 O454 1.261 . S
C461 O456 1.259 . S
C461 O458 1.235 . S
O462 Co452 1.994 1_554 S
O462 C459 1.238 . S
O463 Co457 2.052 1_554 S
O463 C459 1.241 . S
O464 Co452 2.165 . S
O464 C455 1.247 . S
O465 Co452 2.258 . S
O465 C455 1.272 . S
O465 Co457 2.135 . S
Co466 O467 2.216 . S
Co466 O468 2.091 . S
Co466 O470 2.004 . S
Co466 O476 2.021 . S
Co466 O478 2.137 . S
Co466 O479 2.244 . S
O467 Co466 2.216 . S
O467 C474 1.247 . S
O468 Co466 2.091 . S
O468 C474 1.261 . S
C469 O478 1.247 . S
C469 O479 1.272 . S
O470 Co466 2.004 . S
O470 C475 1.259 . S
Co471 O472 2.061 . S
Co471 O477 2.052 . S
Co471 O479 2.135 . S
O472 Co471 2.061 . S
O472 C475 1.235 . S
C473 O476 1.238 . S
C473 O477 1.241 . S
C474 O467 1.247 . S
C474 O468 1.261 . S
C475 O470 1.259 . S
C475 O472 1.235 . S
O476 Co466 2.021 . S
O476 C473 1.238 . S
O477 Co471 2.052 . S
O477 C473 1.241 . S
O478 Co466 2.137 . S
O478 C469 1.247 . S
O479 Co466 2.244 . S
O479 C469 1.272 . S
O479 Co471 2.135 . S
C480 C481 1.369 . S
C480 C482 1.419 . S
C480 H484 0.930 . S
C481 C480 1.369 . S
C481 C490 1.429 . S
C482 C480 1.419 . S
C482 C483 1.363 . S
C482 H485 0.929 . S
C483 C482 1.363 . S
C483 C489 1.428 . S
H484 C480 0.930 . S
H485 C482 0.929 . S
S486 N487 1.613 . S
S486 N488 1.610 . S
N487 S486 1.613 . S
N487 C490 1.350 . S
N488 S486 1.610 . S
N488 C489 1.351 . S
C489 C483 1.428 . S
C489 N488 1.351 . S
C489 C490 1.434 . S
C490 C481 1.429 . S
C490 N487 1.350 . S
C490 C489 1.434 . S
C491 C492 1.369 . S
C491 C493 1.419 . S
C491 H495 0.930 . S
C492 C491 1.369 . S
C492 C501 1.429 . S
C493 C491 1.419 . S
C493 C494 1.363 . S
C493 H496 0.929 . S
C494 C493 1.363 . S
C494 C500 1.428 . S
H495 C491 0.930 . S
H496 C493 0.929 . S
S497 N498 1.613 . S
S497 N499 1.610 . S
N498 S497 1.613 . S
N498 C501 1.350 . S
N499 S497 1.610 . S
N499 C500 1.351 . S
C500 C494 1.428 . S
C500 N499 1.351 . S
C500 C501 1.434 . S
C501 C492 1.429 . S
C501 N498 1.350 . S
C501 C500 1.434 . S
C502 C503 1.369 . S
C502 C504 1.419 . S
C502 H506 0.930 . S
C503 C502 1.369 . S
C503 C512 1.429 . S
C504 C502 1.419 . S
C504 C505 1.363 . S
C504 H507 0.929 . S
C505 C504 1.363 . S
C505 C511 1.428 . S
H506 C502 0.930 . S
H507 C504 0.929 . S
S508 N509 1.613 . S
S508 N510 1.610 . S
N509 S508 1.613 . S
N509 C512 1.350 . S
N510 S508 1.610 . S
N510 C511 1.351 . S
C511 C505 1.428 . S
C511 N510 1.351 . S
C511 C512 1.434 . S
C512 C503 1.429 . S
C512 N509 1.350 . S
C512 C511 1.434 . S
C513 C514 1.369 . S
C513 C515 1.419 . S
C513 H517 0.930 . S
C514 C513 1.369 . S
C514 C523 1.429 . S
C515 C513 1.419 . S
C515 C516 1.363 . S
C515 H518 0.929 . S
C516 C515 1.363 . S
C516 C522 1.428 . S
H517 C513 0.930 . S
H518 C515 0.929 . S
S519 N520 1.613 . S
S519 N521 1.610 . S
N520 S519 1.613 . S
N520 C523 1.350 . S
N521 S519 1.610 . S
N521 C522 1.351 . S
C522 C516 1.428 . S
C522 N521 1.351 . S
C522 C523 1.434 . S
C523 C514 1.429 . S
C523 N520 1.350 . S
C523 C522 1.434 . S
C524 C525 1.369 . S
C524 C526 1.419 . S
C524 H528 0.930 . S
C525 C524 1.369 . S
C525 C534 1.429 1_556 S
C526 C524 1.419 . S
C526 C527 1.363 . S
C526 H529 0.929 . S
C527 C526 1.363 . S
C527 C533 1.428 1_556 S
H528 C524 0.930 . S
H529 C526 0.929 . S
S530 N531 1.613 . S
S530 N532 1.610 . S
N531 S530 1.613 . S
N531 C534 1.350 . S
N532 S530 1.610 . S
N532 C533 1.351 . S
C533 C527 1.428 1_554 S
C533 N532 1.351 . S
C533 C534 1.434 . S
C534 C525 1.429 1_554 S
C534 N531 1.350 . S
C534 C533 1.434 . S
C535 C536 1.369 . S
C535 C537 1.419 . S
C535 H539 0.930 . S
C536 C535 1.369 . S
C536 C545 1.429 . S
C537 C535 1.419 . S
C537 C538 1.363 . S
C537 H540 0.929 . S
C538 C537 1.363 . S
C538 C544 1.428 . S
H539 C535 0.930 . S
H540 C537 0.929 . S
S541 N542 1.613 . S
S541 N543 1.610 . S
N542 S541 1.613 . S
N542 C545 1.350 . S
N543 S541 1.610 . S
N543 C544 1.351 . S
C544 C538 1.428 . S
C544 N543 1.351 . S
C544 C545 1.434 . S
C545 C536 1.429 . S
C545 N542 1.350 . S
C545 C544 1.434 . S
C546 C547 1.369 . S
C546 C548 1.419 . S
C546 H550 0.930 . S
C547 C546 1.369 . S
C547 C556 1.429 . S
C548 C546 1.419 . S
C548 C549 1.363 . S
C548 H551 0.929 . S
C549 C548 1.363 . S
C549 C555 1.428 . S
H550 C546 0.930 . S
H551 C548 0.929 . S
S552 N553 1.613 . S
S552 N554 1.610 . S
N553 S552 1.613 . S
N553 C556 1.350 . S
N554 S552 1.610 . S
N554 C555 1.351 . S
C555 C549 1.428 . S
C555 N554 1.351 . S
C555 C556 1.434 . S
C556 C547 1.429 . S
C556 N553 1.350 . S
C556 C555 1.434 . S
C557 C558 1.369 . S
C557 C559 1.419 . S
C557 H561 0.930 . S
C558 C557 1.369 . S
C558 C567 1.429 . S
C559 C557 1.419 . S
C559 C560 1.363 . S
C559 H562 0.929 . S
C560 C559 1.363 . S
C560 C566 1.428 . S
H561 C557 0.930 . S
H562 C559 0.929 . S
S563 N564 1.613 . S
S563 N565 1.610 . S
N564 S563 1.613 . S
N564 C567 1.350 . S
N565 S563 1.610 . S
N565 C566 1.351 . S
C566 C560 1.428 . S
C566 N565 1.351 . S
C566 C567 1.434 . S
C567 C558 1.429 . S
C567 N564 1.350 . S
C567 C566 1.434 . S
C568 C569 1.369 . S
C568 C570 1.419 . S
C568 H572 0.930 . S
C569 C568 1.369 . S
C569 C578 1.429 . S
C570 C568 1.419 . S
C570 C571 1.363 . S
C570 H573 0.929 . S
C571 C570 1.363 . S
C571 C577 1.428 . S
H572 C568 0.930 . S
H573 C570 0.929 . S
S574 N575 1.613 . S
S574 N576 1.610 . S
N575 S574 1.613 . S
N575 C578 1.350 . S
N576 S574 1.610 . S
N576 C577 1.351 . S
C577 C571 1.428 . S
C577 N576 1.351 . S
C577 C578 1.434 . S
C578 C569 1.429 . S
C578 N575 1.350 . S
C578 C577 1.434 . S
C579 C580 1.369 . S
C579 C581 1.419 1_554 S
C579 H583 0.930 1_554 S
C580 C579 1.369 . S
C580 C589 1.429 . S
C581 C579 1.419 1_556 S
C581 C582 1.363 1_556 S
C581 H584 0.929 . S
C582 C581 1.363 1_554 S
C582 C588 1.428 . S
H583 C579 0.930 1_556 S
H584 C581 0.929 . S
S585 N586 1.613 . S
S585 N587 1.610 . S
N586 S585 1.613 . S
N586 C589 1.350 . S
N587 S585 1.610 . S
N587 C588 1.351 . S
C588 C582 1.428 . S
C588 N587 1.351 . S
C588 C589 1.434 . S
C589 C580 1.429 . S
C589 N586 1.350 . S
C589 C588 1.434 . S
C590 C591 1.369 . S
C590 C592 1.419 . S
C590 H594 0.930 . S
C591 C590 1.369 . S
C591 C600 1.429 . S
C592 C590 1.419 . S
C592 C593 1.363 . S
C592 H595 0.929 . S
C593 C592 1.363 . S
C593 C599 1.428 . S
H594 C590 0.930 . S
H595 C592 0.929 . S
S596 N597 1.613 . S
S596 N598 1.610 . S
N597 S596 1.613 . S
N597 C600 1.350 . S
N598 S596 1.610 . S
N598 C599 1.351 . S
C599 C593 1.428 . S
C599 N598 1.351 . S
C599 C600 1.434 . S
C600 C591 1.429 . S
C600 N597 1.350 . S
C600 C599 1.434 . S
C601 C602 1.369 . S
C601 C603 1.419 . S
C601 H605 0.930 . S
C602 C601 1.369 . S
C602 C611 1.429 . S
C603 C601 1.419 . S
C603 C604 1.363 . S
C603 H606 0.929 . S
C604 C603 1.363 . S
C604 C610 1.428 . S
H605 C601 0.930 . S
H606 C603 0.929 . S
S607 N608 1.613 . S
S607 N609 1.610 . S
N608 S607 1.613 . S
N608 C611 1.350 . S
N609 S607 1.610 . S
N609 C610 1.351 . S
C610 C604 1.428 . S
C610 N609 1.351 . S
C610 C611 1.434 . S
C611 C602 1.429 . S
C611 N608 1.350 . S
C611 C610 1.434 . S
C612 C613 1.369 . S
C612 C614 1.419 . S
C612 H616 0.930 . S
C613 C612 1.369 . S
C613 C622 1.429 . S
C614 C612 1.419 . S
C614 C615 1.363 . S
C614 H617 0.929 . S
C615 C614 1.363 . S
C615 C621 1.428 . S
H616 C612 0.930 . S
H617 C614 0.929 . S
S618 N619 1.613 . S
S618 N620 1.610 . S
N619 S618 1.613 . S
N619 C622 1.350 . S
N620 S618 1.610 . S
N620 C621 1.351 . S
C621 C615 1.428 . S
C621 N620 1.351 . S
C621 C622 1.434 . S
C622 C613 1.429 . S
C622 N619 1.350 . S
C622 C621 1.434 . S
C623 C624 1.369 . S
C623 C625 1.419 . S
C623 H627 0.930 . S
C624 C623 1.369 . S
C624 C633 1.429 . S
C625 C623 1.419 . S
C625 C626 1.363 . S
C625 H628 0.929 . S
C626 C625 1.363 . S
C626 C632 1.428 . S
H627 C623 0.930 . S
H628 C625 0.929 . S
S629 N630 1.613 . S
S629 N631 1.610 . S
N630 S629 1.613 . S
N630 C633 1.350 . S
N631 S629 1.610 . S
N631 C632 1.351 . S
C632 C626 1.428 . S
C632 N631 1.351 . S
C632 C633 1.434 . S
C633 C624 1.429 . S
C633 N630 1.350 . S
C633 C632 1.434 . S
C634 C635 1.369 . S
C634 C636 1.423 . S
C634 H638 0.930 1_556 S
C635 C634 1.369 . S
C635 C644 1.429 . S
C636 C634 1.423 . S
C636 C637 1.381 . S
C636 H639 0.907 1_556 S
C637 C636 1.381 . S
C637 C643 1.428 . S
H638 C634 0.930 1_554 S
H639 C636 0.907 1_554 S
S640 N641 1.613 . S
S640 N642 1.610 . S
N641 S640 1.613 . S
N641 C644 1.350 . S
N642 S640 1.610 . S
N642 C643 1.351 . S
C643 C637 1.428 . S
C643 N642 1.351 . S
C643 C644 1.434 . S
C644 C635 1.429 . S
C644 N641 1.350 . S
C644 C643 1.434 . S
C645 C646 1.369 . S
C645 C647 1.419 . S
C645 H649 0.930 . S
C646 C645 1.369 . S
C646 C655 1.429 . S
C647 C645 1.419 . S
C647 C648 1.363 . S
C647 H650 0.929 . S
C648 C647 1.363 . S
C648 C654 1.428 . S
H649 C645 0.930 . S
H650 C647 0.929 . S
S651 N652 1.613 . S
S651 N653 1.610 . S
N652 S651 1.613 . S
N652 C655 1.350 . S
N653 S651 1.610 . S
N653 C654 1.351 . S
C654 C648 1.428 . S
C654 N653 1.351 . S
C654 C655 1.434 . S
C655 C646 1.429 . S
C655 N652 1.350 . S
C655 C654 1.434 . S
C656 C657 1.369 . S
C656 C658 1.419 . S
C656 H660 0.930 . S
C657 C656 1.369 . S
C657 C666 1.429 . S
C658 C656 1.419 . S
C658 C659 1.363 . S
C658 H661 0.929 . S
C659 C658 1.363 . S
C659 C665 1.428 . S
H660 C656 0.930 . S
H661 C658 0.929 . S
S662 N663 1.613 . S
S662 N664 1.610 . S
N663 S662 1.613 . S
N663 C666 1.350 . S
N664 S662 1.610 . S
N664 C665 1.351 . S
C665 C659 1.428 . S
C665 N664 1.351 . S
C665 C666 1.434 . S
C666 C657 1.429 . S
C666 N663 1.350 . S
C666 C665 1.434 . S
C667 C668 1.369 . S
C667 C669 1.419 . S
C667 H671 0.930 . S
C668 C667 1.369 . S
C668 C677 1.429 . S
C669 C667 1.419 . S
C669 C670 1.363 . S
C669 H672 0.929 . S
C670 C669 1.363 . S
C670 C676 1.428 . S
H671 C667 0.930 . S
H672 C669 0.929 . S
S673 N674 1.613 . S
S673 N675 1.610 . S
N674 S673 1.613 . S
N674 C677 1.350 . S
N675 S673 1.610 . S
N675 C676 1.351 . S
C676 C670 1.428 . S
C676 N675 1.351 . S
C676 C677 1.434 . S
C677 C668 1.429 . S
C677 N674 1.350 . S
C677 C676 1.434 . S
C678 C679 1.369 . S
C678 C680 1.419 . S
C678 H682 0.930 . S
C679 C678 1.369 . S
C679 C688 1.429 . S
C680 C678 1.419 . S
C680 C681 1.363 . S
C680 H683 0.929 . S
C681 C680 1.363 . S
C681 C687 1.428 . S
H682 C678 0.930 . S
H683 C680 0.929 . S
S684 N685 1.613 . S
S684 N686 1.610 . S
N685 S684 1.613 . S
N685 C688 1.350 . S
N686 S684 1.610 . S
N686 C687 1.351 . S
C687 C681 1.428 . S
C687 N686 1.351 . S
C687 C688 1.434 . S
C688 C679 1.429 . S
C688 N685 1.350 . S
C688 C687 1.434 . S
C689 C690 1.369 . S
C689 C691 1.419 . S
C689 H693 0.930 . S
C690 C689 1.369 . S
C690 C699 1.429 . S
C691 C689 1.419 . S
C691 C692 1.363 . S
C691 H694 0.929 . S
C692 C691 1.363 . S
C692 C698 1.428 . S
H693 C689 0.930 . S
H694 C691 0.929 . S
S695 N696 1.613 . S
S695 N697 1.610 . S
N696 S695 1.613 . S
N696 C699 1.350 . S
N697 S695 1.610 . S
N697 C698 1.351 . S
C698 C692 1.428 . S
C698 N697 1.351 . S
C698 C699 1.434 . S
C699 C690 1.429 . S
C699 N696 1.350 . S
C699 C698 1.434 . S
C700 C701 1.369 . S
C700 C702 1.419 . S
C700 H704 0.930 . S
C701 C700 1.369 . S
C701 C710 1.429 . S
C702 C700 1.419 . S
C702 C703 1.363 . S
C702 H705 0.929 . S
C703 C702 1.363 . S
C703 C709 1.428 . S
H704 C700 0.930 . S
H705 C702 0.929 . S
S706 N707 1.613 . S
S706 N708 1.610 . S
N707 S706 1.613 . S
N707 C710 1.350 . S
N708 S706 1.610 . S
N708 C709 1.351 . S
C709 C703 1.428 . S
C709 N708 1.351 . S
C709 C710 1.434 . S
C710 C701 1.429 . S
C710 N707 1.350 . S
C710 C709 1.434 . S
C711 C712 1.369 . S
C711 C713 1.419 . S
C711 H715 0.930 . S
C712 C711 1.369 . S
C712 C721 1.429 . S
C713 C711 1.419 . S
C713 C714 1.363 . S
C713 H716 0.929 . S
C714 C713 1.363 . S
C714 C720 1.428 . S
H715 C711 0.930 . S
H716 C713 0.929 . S
S717 N718 1.613 . S
S717 N719 1.610 . S
N718 S717 1.613 . S
N718 C721 1.350 . S
N719 S717 1.610 . S
N719 C720 1.351 . S
C720 C714 1.428 . S
C720 N719 1.351 . S
C720 C721 1.434 . S
C721 C712 1.429 . S
C721 N718 1.350 . S
C721 C720 1.434 . S
C722 C723 1.369 . S
C722 C724 1.419 . S
C722 H726 0.930 . S
C723 C722 1.369 . S
C723 C732 1.429 . S
C724 C722 1.419 . S
C724 C725 1.363 . S
C724 H727 0.929 . S
C725 C724 1.363 . S
C725 C731 1.428 . S
H726 C722 0.930 . S
H727 C724 0.929 . S
S728 N729 1.613 . S
S728 N730 1.610 . S
N729 S728 1.613 . S
N729 C732 1.350 . S
N730 S728 1.610 . S
N730 C731 1.351 . S
C731 C725 1.428 . S
C731 N730 1.351 . S
C731 C732 1.434 . S
C732 C723 1.429 . S
C732 N729 1.350 . S
C732 C731 1.434 . S
C733 C734 1.369 . S
C733 C735 1.419 . S
C733 H737 0.930 . S
C734 C733 1.369 . S
C734 C743 1.429 . S
C735 C733 1.419 . S
C735 C736 1.363 . S
C735 H738 0.929 . S
C736 C735 1.363 . S
C736 C742 1.428 . S
H737 C733 0.930 . S
H738 C735 0.929 . S
S739 N740 1.613 . S
S739 N741 1.610 . S
N740 S739 1.613 . S
N740 C743 1.350 . S
N741 S739 1.610 . S
N741 C742 1.351 . S
C742 C736 1.428 . S
C742 N741 1.351 . S
C742 C743 1.434 . S
C743 C734 1.429 . S
C743 N740 1.350 . S
C743 C742 1.434 . S
C744 C745 1.369 . S
C744 C746 1.419 . S
C744 H748 0.930 . S
C745 C744 1.369 . S
C745 C754 1.429 . S
C746 C744 1.419 . S
C746 C747 1.363 . S
C746 H749 0.929 . S
C747 C746 1.363 . S
C747 C753 1.428 . S
H748 C744 0.930 . S
H749 C746 0.929 . S
S750 N751 1.613 . S
S750 N752 1.610 . S
N751 S750 1.613 . S
N751 C754 1.350 . S
N752 S750 1.610 . S
N752 C753 1.351 . S
C753 C747 1.428 . S
C753 N752 1.351 . S
C753 C754 1.434 . S
C754 C745 1.429 . S
C754 N751 1.350 . S
C754 C753 1.434 . S
C755 C756 1.369 . S
C755 C757 1.419 . S
C755 H759 0.930 . S
C756 C755 1.369 . S
C756 C765 1.429 . S
C757 C755 1.419 . S
C757 C758 1.363 . S
C757 H760 0.929 . S
C758 C757 1.363 . S
C758 C764 1.428 . S
H759 C755 0.930 . S
H760 C757 0.929 . S
S761 N762 1.613 . S
S761 N763 1.610 . S
N762 S761 1.613 . S
N762 C765 1.350 . S
N763 S761 1.610 . S
N763 C764 1.351 . S
C764 C758 1.428 . S
C764 N763 1.351 . S
C764 C765 1.434 . S
C765 C756 1.429 . S
C765 N762 1.350 . S
C765 C764 1.434 . S
C766 C767 1.369 . S
C766 C768 1.419 . S
C766 H770 0.930 . S
C767 C766 1.369 . S
C767 C776 1.429 . S
C768 C766 1.419 . S
C768 C769 1.363 . S
C768 H771 0.929 . S
C769 C768 1.363 . S
C769 C775 1.428 . S
H770 C766 0.930 . S
H771 C768 0.929 . S
S772 N773 1.613 . S
S772 N774 1.610 . S
N773 S772 1.613 . S
N773 C776 1.350 . S
N774 S772 1.610 . S
N774 C775 1.351 . S
C775 C769 1.428 . S
C775 N774 1.351 . S
C775 C776 1.434 . S
C776 C767 1.429 . S
C776 N773 1.350 . S
C776 C775 1.434 . S
C777 C778 1.369 . S
C777 C779 1.419 . S
C777 H781 0.930 . S
C778 C777 1.369 . S
C778 C787 1.429 . S
C779 C777 1.419 . S
C779 C780 1.363 . S
C779 H782 0.929 . S
C780 C779 1.363 . S
C780 C786 1.428 . S
H781 C777 0.930 . S
H782 C779 0.929 . S
S783 N784 1.613 . S
S783 N785 1.610 . S
N784 S783 1.613 . S
N784 C787 1.350 . S
N785 S783 1.610 . S
N785 C786 1.351 . S
C786 C780 1.428 . S
C786 N785 1.351 . S
C786 C787 1.434 . S
C787 C778 1.429 . S
C787 N784 1.350 . S
C787 C786 1.434 . S
C788 C789 1.369 . S
C788 C790 1.419 . S
C788 H792 0.930 . S
C789 C788 1.369 . S
C789 C798 1.429 . S
C790 C788 1.419 . S
C790 C791 1.363 . S
C790 H793 0.929 . S
C791 C790 1.363 . S
C791 C797 1.428 . S
H792 C788 0.930 . S
H793 C790 0.929 . S
S794 N795 1.613 . S
S794 N796 1.610 . S
N795 S794 1.613 . S
N795 C798 1.350 . S
N796 S794 1.610 . S
N796 C797 1.351 . S
C797 C791 1.428 . S
C797 N796 1.351 . S
C797 C798 1.434 . S
C798 C789 1.429 . S
C798 N795 1.350 . S
C798 C797 1.434 . S
C799 C800 1.369 . S
C799 C801 1.419 . S
C799 H803 0.930 . S
C800 C799 1.369 . S
C800 C809 1.429 . S
C801 C799 1.419 . S
C801 C802 1.363 . S
C801 H804 0.929 . S
C802 C801 1.363 . S
C802 C808 1.428 . S
H803 C799 0.930 . S
H804 C801 0.929 . S
S805 N806 1.613 . S
S805 N807 1.610 . S
N806 S805 1.613 . S
N806 C809 1.350 . S
N807 S805 1.610 . S
N807 C808 1.351 . S
C808 C802 1.428 . S
C808 N807 1.351 . S
C808 C809 1.434 . S
C809 C800 1.429 . S
C809 N806 1.350 . S
C809 C808 1.434 . S
C810 C811 1.369 . S
C810 C812 1.419 . S
C810 H814 0.930 . S
C811 C810 1.369 . S
C811 C820 1.429 . S
C812 C810 1.419 . S
C812 C813 1.363 . S
C812 H815 0.929 . S
C813 C812 1.363 . S
C813 C819 1.428 . S
H814 C810 0.930 . S
H815 C812 0.929 . S
S816 N817 1.613 . S
S816 N818 1.610 . S
N817 S816 1.613 . S
N817 C820 1.350 . S
N818 S816 1.610 . S
N818 C819 1.351 . S
C819 C813 1.428 . S
C819 N818 1.351 . S
C819 C820 1.434 . S
C820 C811 1.429 . S
C820 N817 1.350 . S
C820 C819 1.434 . S
C821 C822 1.369 . S
C821 C823 1.419 . S
C821 H825 0.930 . S
C822 C821 1.369 . S
C822 C831 1.429 . S
C823 C821 1.419 . S
C823 C824 1.363 . S
C823 H826 0.929 . S
C824 C823 1.363 . S
C824 C830 1.428 . S
H825 C821 0.930 . S
H826 C823 0.929 . S
S827 N828 1.613 . S
S827 N829 1.610 . S
N828 S827 1.613 . S
N828 C831 1.350 . S
N829 S827 1.610 . S
N829 C830 1.351 . S
C830 C824 1.428 . S
C830 N829 1.351 . S
C830 C831 1.434 . S
C831 C822 1.429 . S
C831 N828 1.350 . S
C831 C830 1.434 . S
C483 C390 1.437 . S
C481 C8 1.385 . S
C494 C404 1.438 . S
C492 C61 1.389 . S
C505 C419 1.420 . S
C503 C107 1.400 . S
C514 C139 1.387 . S
C516 C377 1.407 . S
C525 C192 1.365 . S
C527 C376 1.410 1_556 S
C536 C238 1.356 . S
C538 C391 1.392 . S
C549 C405 1.440 . S
C547 C284 1.406 . S
C560 C418 1.444 . S
C558 C330 1.392 . S
C569 C100 1.368 . S
C571 C446 1.420 . S
C582 C460 1.458 . S
C580 C160 1.383 . S
C591 C15 1.358 . S
C593 C475 1.395 . S
C604 C432 1.398 . S
C602 C54 1.347 . S
C613 C291 1.402 . S
C615 C433 1.411 . S
C624 C337 1.407 . S
C626 C447 1.418 . S
C637 C461 1.412 . S
C635 C199 1.399 . S
C646 C245 1.400 . S
C648 C474 1.456 . S
C659 C399 1.742 . S
C657 C1 1.741 . S
C670 C417 1.736 . S
C668 C68 1.728 . S
C679 C114 1.742 . S
C681 C375 1.748 . S
C690 C146 1.759 . S
C692 C385 1.770 . S
C701 C185 1.663 . S
C703 C413 1.660 . S
C714 C371 1.670 . S
C712 C231 1.672 . S
C725 C389 1.646 . S
C723 C277 1.671 . S
C736 C403 1.641 . S
C734 C323 1.667 . S
C747 C455 1.661 . S
C745 C93 1.662 . S
C758 C473 1.640 . S
C756 C153 1.659 . S
C767 C22 1.657 . S
C769 C427 1.663 . S
C780 C441 1.658 . S
C778 C47 1.662 . S
C791 C469 1.762 . S
C789 C298 1.740 . S
C800 C344 1.751 . S
C802 C431 1.757 . S
C813 C445 1.747 . S
C811 C206 1.737 . S
C824 C459 1.731 . S
C822 C252 1.722 . S
