# Generated by pormake.
# Topology pyr, (3,6)-cn, num edge types: 1
# Building blocks:
#     Node 0, Type 0, BuildingBlock: QEWDON_clean_linker_0, # of connection points: 3
#     Node 1, Type 0, BuildingBlock: QEWDON_clean_linker_0, # of connection points: 3
#     Node 2, Type 0, BuildingBlock: QEWDON_clean_linker_0, # of connection points: 3
#     Node 3, Type 0, BuildingBlock: QEWDON_clean_linker_0, # of connection points: 3
#     Node 4, Type 0, BuildingBlock: QEWDON_clean_linker_0, # of connection points: 3
#     Node 5, Type 0, BuildingBlock: QEWDON_clean_linker_0, # of connection points: 3
#     Node 6, Type 0, BuildingBlock: QEWDON_clean_linker_0, # of connection points: 3
#     Node 7, Type 0, BuildingBlock: QEWDON_clean_linker_0, # of connection points: 3
#     Node 8, Type 1, BuildingBlock: BETGAK_clean_sbu_0, # of connection points: 6
#     Node 9, Type 1, BuildingBlock: BETGAK_clean_sbu_0, # of connection points: 6
#     Node 10, Type 1, BuildingBlock: BETGAK_clean_sbu_0, # of connection points: 6
#     Node 11, Type 1, BuildingBlock: BETGAK_clean_sbu_0, # of connection points: 6
#     Edge 12, Type (0, 1), BuildingBlock: AJUNOK_clean_linker_0, # of connection points: 2
#     Edge 13, Type (0, 1), BuildingBlock: AJUNOK_clean_linker_0, # of connection points: 2
#     Edge 14, Type (0, 1), BuildingBlock: AJUNOK_clean_linker_0, # of connection points: 2
#     Edge 15, Type (0, 1), BuildingBlock: AJUNOK_clean_linker_0, # of connection points: 2
#     Edge 16, Type (0, 1), BuildingBlock: AJUNOK_clean_linker_0, # of connection points: 2
#     Edge 17, Type (0, 1), BuildingBlock: AJUNOK_clean_linker_0, # of connection points: 2
#     Edge 18, Type (0, 1), BuildingBlock: AJUNOK_clean_linker_0, # of connection points: 2
#     Edge 19, Type (0, 1), BuildingBlock: AJUNOK_clean_linker_0, # of connection points: 2
#     Edge 20, Type (0, 1), BuildingBlock: AJUNOK_clean_linker_0, # of connection points: 2
#     Edge 21, Type (0, 1), BuildingBlock: AJUNOK_clean_linker_0, # of connection points: 2
#     Edge 22, Type (0, 1), BuildingBlock: AJUNOK_clean_linker_0, # of connection points: 2
#     Edge 23, Type (0, 1), BuildingBlock: AJUNOK_clean_linker_0, # of connection points: 2
#     Edge 24, Type (0, 1), BuildingBlock: AJUNOK_clean_linker_0, # of connection points: 2
#     Edge 25, Type (0, 1), BuildingBlock: AJUNOK_clean_linker_0, # of connection points: 2
#     Edge 26, Type (0, 1), BuildingBlock: AJUNOK_clean_linker_0, # of connection points: 2
#     Edge 27, Type (0, 1), BuildingBlock: AJUNOK_clean_linker_0, # of connection points: 2
#     Edge 28, Type (0, 1), BuildingBlock: AJUNOK_clean_linker_0, # of connection points: 2
#     Edge 29, Type (0, 1), BuildingBlock: AJUNOK_clean_linker_0, # of connection points: 2
#     Edge 30, Type (0, 1), BuildingBlock: AJUNOK_clean_linker_0, # of connection points: 2
#     Edge 31, Type (0, 1), BuildingBlock: AJUNOK_clean_linker_0, # of connection points: 2
#     Edge 32, Type (0, 1), BuildingBlock: AJUNOK_clean_linker_0, # of connection points: 2
#     Edge 33, Type (0, 1), BuildingBlock: AJUNOK_clean_linker_0, # of connection points: 2
#     Edge 34, Type (0, 1), BuildingBlock: AJUNOK_clean_linker_0, # of connection points: 2
#     Edge 35, Type (0, 1), BuildingBlock: AJUNOK_clean_linker_0, # of connection points: 2
# Relax obj value: 0.227
# Max RMSD: 0.266
# Mean RMSD: 0.197
data_MOF--net-pyr--node1-BETGAK_clean_sbu_0--node2-QEWDON_clean_linker_0--edge1-AJUNOK_clean_linker_0
_symmetry_space_group_name_H-M    P1
_symmetry_Int_Tables_number       1
_symmetry_cell_setting            triclinic
loop_
_symmetry_equiv_pos_as_xyz
'x, y, z'
_cell_length_a     28.32837
_cell_length_b     30.900678
_cell_length_c     29.22266
_cell_angle_alpha  91.856573
_cell_angle_beta   89.674432
_cell_angle_gamma 112.81403
loop_
_atom_site_label
_atom_site_type_symbol
_atom_site_fract_x
_atom_site_fract_y
_atom_site_fract_z
_atom_type_partial_charge
H0 H 0.52713 0.41186 0.23136 0.0
C1 C 0.50335 0.40259 0.26158 0.0
C2 C 0.4938 0.35932 0.28157 0.0
C3 C 0.47744 0.43096 0.27696 0.0
H4 H 0.44939 0.31009 0.3309 0.0
C5 C 0.45928 0.34494 0.31774 0.0
C6 C 0.43206 0.37211 0.33258 0.0
C7 C 0.44269 0.41583 0.31333 0.0
C8 C 0.47981 0.47182 0.25018 0.0
H9 H 0.42061 0.4362 0.32399 0.0
C10 C 0.43435 0.47767 0.23942 0.0
C11 C 0.43509 0.51458 0.21234 0.0
C12 C 0.52645 0.50359 0.23318 0.0
H13 H 0.56207 0.49994 0.24084 0.0
C14 C 0.52743 0.54052 0.2062 0.0
H15 H 0.39782 0.45262 0.25096 0.0
C16 C 0.48202 0.54604 0.19572 0.0
H17 H 0.48358 0.57507 0.17512 0.0
H18 H 0.56354 0.56495 0.19339 0.0
H19 H 0.18702 0.92719 0.78495 0.0
C20 C 0.21186 0.91065 0.7714 0.0
C21 C 0.25089 0.90779 0.79898 0.0
C22 C 0.20495 0.89233 0.72619 0.0
H23 H 0.31566 0.88748 0.80063 0.0
C24 C 0.28382 0.88785 0.78041 0.0
C25 C 0.27746 0.87005 0.73526 0.0
C26 C 0.23749 0.87152 0.70831 0.0
C27 C 0.16605 0.89792 0.6966 0.0
H28 H 0.23303 0.85831 0.6731 0.0
C29 C 0.17263 0.94275 0.68221 0.0
C30 C 0.13697 0.94848 0.6524 0.0
C31 C 0.12325 0.85866 0.68162 0.0
H32 H 0.11788 0.82384 0.69234 0.0
C33 C 0.08686 0.86431 0.65302 0.0
H34 H 0.20635 0.9729 0.69312 0.0
C35 C 0.09353 0.90894 0.63849 0.0
H36 H 0.06473 0.91256 0.61647 0.0
H37 H 0.05351 0.83403 0.64193 0.0
H38 H 0.76321 0.53016 0.95533 0.0
C39 C 0.74387 0.49408 0.9653 0.0
C40 C 0.76825 0.47471 0.99634 0.0
C41 C 0.69341 0.46801 0.94921 0.0
H42 H 0.75765 0.41446 1.03705 0.0
C43 C 0.74089 0.42846 1.01108 0.0
C44 C 0.69072 0.40129 0.99547 0.0
C45 C 0.66777 0.42159 0.96437 0.0
C46 C 0.66245 0.49182 0.92667 0.0
H47 H 0.62855 0.4019 0.95336 0.0
C48 C 0.67107 0.51069 0.88178 0.0
C49 C 0.63862 0.5321 0.86386 0.0
C50 C 0.62176 0.49503 0.95233 0.0
H51 H 0.61421 0.48134 0.98648 0.0
C52 C 0.59046 0.51596 0.93493 0.0
H53 H 0.70209 0.50861 0.86124 0.0
C54 C 0.59872 0.53423 0.89138 0.0
H55 H 0.57338 0.55007 0.87888 0.0
H56 H 0.5594 0.51801 0.95543 0.0
H57 H 0.95681 0.8708 0.42069 0.0
C58 C 0.92547 0.84791 0.44096 0.0
C59 C 0.91476 0.86465 0.48394 0.0
C60 C 0.89481 0.80245 0.42296 0.0
H61 H 0.86279 0.84796 0.54088 0.0
C62 C 0.87227 0.83485 0.50875 0.0
C63 C 0.8399 0.7898 0.4915 0.0
C64 C 0.85215 0.77392 0.44867 0.0
C65 C 0.89852 0.79058 0.37292 0.0
H66 H 0.82747 0.73992 0.43435 0.0
C67 C 0.92512 0.76269 0.35486 0.0
C68 C 0.92694 0.75459 0.30637 0.0
C69 C 0.87367 0.80881 0.34217 0.0
H70 H 0.8531 0.8299 0.35472 0.0
C71 C 0.87468 0.80026 0.2952 0.0
H72 H 0.94477 0.74843 0.37791 0.0
C73 C 0.9009 0.77363 0.27753 0.0
H74 H 0.90087 0.76785 0.24073 0.0
H75 H 0.85507 0.81461 0.27217 0.0
H76 H 0.71258 0.84296 0.05902 0.0
C77 C 0.73832 0.86653 1.0349 0.0
C78 C 0.79046 0.87395 1.03478 0.0
C79 C 0.72 0.89065 1.00407 0.0
H80 H 0.86297 0.90767 1.00157 0.0
C81 C 0.82323 0.9038 1.00298 0.0
C82 C 0.80502 0.92689 0.97164 0.0
C83 C 0.75344 0.92051 0.97247 0.0
C84 C 0.66614 0.88546 1.00388 0.0
H85 H 0.73914 0.93837 0.94812 0.0
C86 C 0.65448 0.92523 1.01185 0.0
C87 C 0.60414 0.92253 1.00678 0.0
C88 C 0.62708 0.84236 0.99134 0.0
H89 H 0.63563 0.8115 0.98457 0.0
C90 C 0.57705 0.83948 0.98544 0.0
H91 H 0.68482 0.95823 1.02237 0.0
C92 C 0.56566 0.87933 0.99253 0.0
H93 H 0.52677 0.87632 0.98672 0.0
H94 H 0.54711 0.8064 0.97475 0.0
H95 H 0.79946 0.20748 0.64207 0.0
C96 C 0.78825 0.20234 0.60628 0.0
C97 C 0.81785 0.189 0.57441 0.0
C98 C 0.74548 0.21092 0.59201 0.0
H99 H 0.82476 0.1714 0.50319 0.0
C100 C 0.80364 0.18355 0.52795 0.0
C101 C 0.76231 0.19367 0.51284 0.0
C102 C 0.73315 0.20696 0.54508 0.0
C103 C 0.71456 0.22539 0.62583 0.0
H104 H 0.70111 0.21472 0.53348 0.0
C105 C 0.69625 0.26011 0.61511 0.0
C106 C 0.66565 0.27316 0.64602 0.0
C107 C 0.70282 0.20456 0.66874 0.0
H108 H 0.71589 0.17735 0.67791 0.0
C109 C 0.67329 0.21819 0.70005 0.0
H110 H 0.70653 0.27775 0.5829 0.0
C111 C 0.65474 0.25235 0.68884 0.0
H112 H 0.63146 0.26213 0.71333 0.0
H113 H 0.66441 0.20195 0.73298 0.0
H114 H 0.48474 0.90074 0.30217 0.0
C115 C 0.44687 0.87826 0.28978 0.0
C116 C 0.42217 0.89604 0.25787 0.0
C117 C 0.42519 0.83104 0.30381 0.0
H118 H 0.35656 0.87799 0.21379 0.0
C119 C 0.37395 0.86575 0.2407 0.0
C120 C 0.34973 0.81893 0.25504 0.0
C121 C 0.37604 0.80192 0.28666 0.0
C122 C 0.45947 0.81106 0.32741 0.0
H123 H 0.35944 0.76554 0.29626 0.0
C124 C 0.44808 0.78593 0.3692 0.0
C125 C 0.48444 0.76977 0.38874 0.0
C126 C 0.50656 0.81844 0.30616 0.0
H127 H 0.51641 0.8366 0.27419 0.0
C128 C 0.54159 0.8026 0.32512 0.0
H129 H 0.41205 0.77942 0.38625 0.0
C130 C 0.53082 0.77876 0.36584 0.0
H131 H 0.5591 0.76699 0.37963 0.0
H132 H 0.57754 0.80886 0.30802 0.0
H133 H 0.29659 0.53966 0.80915 0.0
C134 C 0.27367 0.5065 0.79213 0.0
C135 C 0.28766 0.49571 0.7477 0.0
C136 C 0.23148 0.47358 0.81542 0.0
H137 H 0.27099 0.44175 0.69444 0.0
C138 C 0.25898 0.45118 0.72724 0.0
C139 C 0.21685 0.41763 0.74912 0.0
C140 C 0.20371 0.42928 0.79328 0.0
C141 C 0.22287 0.47984 0.866 0.0
H142 H 0.17247 0.40322 0.81118 0.0
C143 C 0.20441 0.51337 0.88596 0.0
C144 C 0.19504 0.51448 0.93442 0.0
C145 C 0.23231 0.44879 0.89508 0.0
H146 H 0.24643 0.4231 0.88133 0.0
C147 C 0.22352 0.44981 0.94186 0.0
H148 H 0.19727 0.53781 0.86409 0.0
C149 C 0.20487 0.48173 0.96117 0.0
H150 H 0.19722 0.47996 0.99756 0.0
H151 H 0.23069 0.42513 0.96341 0.0
La152 La 0.08363 0.165 0.56598 0.0
La153 La 0.06419 0.12058 0.65707 0.0
C154 C 0.09852 0.21639 0.49778 0.0
C155 C 0.14436 0.23813 0.46974 0.0
C156 C 0.17598 0.2138 0.45896 0.0
C157 C 0.22291 0.23659 0.43774 0.0
C158 C 0.23924 0.28416 0.42712 0.0
C159 C 0.20715 0.30828 0.43708 0.0
C160 C 0.16004 0.28539 0.45838 0.0
C161 C 0.15109 0.12928 0.59116 0.0
C162 C 0.11877 0.2295 0.65695 0.0
C163 C 0.06038 0.07221 0.72594 0.0
C164 C 1.02164 1.05138 0.76059 0.0
C165 C 0.97281 1.05243 0.75636 0.0
C166 C 0.93671 1.03462 0.79071 0.0
C167 C 0.9492 1.01578 0.82971 0.0
C168 C 0.99786 1.01397 0.8333 0.0
C169 C 1.03395 1.03184 0.79895 0.0
C170 C 0.99409 0.15239 0.63267 0.0
C171 C 1.02366 1.05635 0.56581 0.0
O172 O 0.076 0.17059 0.49509 0.0
O173 O 0.10357 0.23233 0.54009 0.0
O174 O 0.14109 0.13557 0.54954 0.0
O175 O 0.12957 0.14999 0.61579 0.0
O176 O 0.09941 0.22501 0.61508 0.0
O177 O 0.11733 0.19171 0.67798 0.0
O178 O 0.08011 0.118 0.72668 0.0
O179 O 0.0485 1.05449 0.68445 0.0
O180 O 1.00352 0.14576 0.67449 0.0
O181 O 1.01715 0.13421 0.60673 0.0
O182 O 1.04216 0.05963 0.60802 0.0
O183 O 1.02735 0.09504 0.54477 0.0
H184 H 0.1651 0.17749 0.46787 0.0
H185 H 0.24699 0.21725 0.43046 0.0
H186 H 0.21846 0.34473 0.42841 0.0
H187 H 0.13638 0.30485 0.46694 0.0
H188 H 0.96283 0.06742 0.72676 0.0
H189 H 0.89937 1.0362 0.78718 0.0
H190 H 1.00788 0.99855 0.86258 0.0
H191 H 0.07152 1.0307 0.80245 0.0
La192 La 0.60021 0.16016 0.14116 0.0
La193 La 0.49941 0.13796 0.10751 0.0
C194 C 0.68893 0.19729 0.1755 0.0
C195 C 0.7056 0.1957 0.22292 0.0
C196 C 0.6877 0.15315 0.24602 0.0
C197 C 0.69805 0.15253 0.29253 0.0
C198 C 0.72588 0.19446 0.31709 0.0
C199 C 0.74529 0.23682 0.29372 0.0
C200 C 0.7351 0.23743 0.24698 0.0
C201 C 0.53542 0.07927 0.17416 0.0
C202 C 0.52891 0.20617 0.18927 0.0
C203 C 0.40898 0.10397 0.07567 0.0
C204 C 0.37726 0.06643 1.04401 0.0
C205 C 0.39576 1.03431 1.02399 0.0
C206 C 0.36797 1.00329 0.98889 0.0
C207 C 0.32135 1.00404 0.97345 0.0
C208 C 0.30201 1.03495 0.995 0.0
C209 C 0.32981 0.0659 1.03009 0.0
C210 C 0.56719 0.21998 0.07861 0.0
C211 C 0.56687 0.08903 0.06231 0.0
O212 O 0.67235 0.15762 0.15194 0.0
O213 O 0.65893 0.2199 0.17048 0.0
O214 O 0.58304 0.09015 0.16553 0.0
O215 O 0.5255 0.11554 0.16848 0.0
O216 O 0.57605 0.2097 0.18097 0.0
O217 O 0.48969 0.17293 0.1692 0.0
O218 O 0.44707 0.13745 0.05696 0.0
O219 O 0.42248 0.0915 0.1141 0.0
O220 O 0.52109 0.21182 0.09188 0.0
O221 O 0.57476 0.18219 0.08085 0.0
O222 O 0.52056 0.08451 0.07439 0.0
O223 O 0.60664 0.12645 0.07626 0.0
H224 H 0.66459 0.12036 0.22853 0.0
H225 H 0.68371 0.11924 0.30943 0.0
H226 H 0.76697 0.26963 0.3119 0.0
H227 H 0.74889 0.27065 0.22995 0.0
H228 H 0.4325 1.03448 1.03412 0.0
H229 H 0.38423 0.98046 0.97227 0.0
H230 H 0.2662 1.03615 0.98371 0.0
H231 H 0.31518 0.09069 1.04514 0.0
La232 La 0.55558 0.60581 0.59349 0.0
La233 La 0.57057 0.68687 0.64906 0.0
C234 C 0.56941 0.53968 0.55075 0.0
C235 C 0.5817 0.49978 0.56505 0.0
C236 C 0.54445 0.45382 0.56116 0.0
C237 C 0.55531 0.41591 0.57539 0.0
C238 C 0.60389 0.4232 0.59319 0.0
C239 C 0.64105 0.46917 0.59725 0.0
C240 C 0.63013 0.50707 0.58333 0.0
C241 C 0.4716 0.59795 0.64005 0.0
C242 C 0.60451 0.61329 0.69477 0.0
C243 C 0.55662 0.75121 0.6951 0.0
C244 C 0.51683 0.77091 0.69545 0.0
C245 C 0.50878 0.79471 0.65792 0.0
C246 C 0.46873 0.81055 0.65849 0.0
C247 C 0.43606 0.80246 0.69636 0.0
C248 C 0.44435 0.779 0.73384 0.0
C249 C 0.48455 0.76366 0.73351 0.0
C250 C 0.65423 0.69499 0.6016 0.0
C251 C 0.51962 0.67782 0.54933 0.0
O252 O 0.52418 0.53842 0.56199 0.0
O253 O 0.60513 0.58168 0.55731 0.0
O254 O 0.4724 0.5836 0.59799 0.0
O255 O 0.51736 0.61546 0.65481 0.0
O256 O 0.5917 0.59 0.65482 0.0
O257 O 0.59861 0.65336 0.70118 0.0
O258 O 0.5868 0.75894 0.65963 0.0
O259 O 0.54108 0.70775 0.70767 0.0
O260 O 0.65392 0.70951 0.64366 0.0
O261 O 0.60826 0.67735 0.58746 0.0
O262 O 0.52282 0.69505 0.59198 0.0
O263 O 0.53676 0.64441 0.54011 0.0
H264 H 0.50678 0.44723 0.54735 0.0
H265 H 0.52558 0.38093 0.57276 0.0
H266 H 0.67888 0.47577 0.61068 0.0
H267 H 0.65974 0.54203 0.58696 0.0
H268 H 0.53298 0.8007 0.62804 0.0
H269 H 0.46289 0.82859 0.62923 0.0
H270 H 0.41996 0.77295 0.76364 0.0
H271 H 0.49005 0.74554 0.76287 0.0
La272 La 0.0662 0.59867 0.14369 0.0
La273 La 0.06444 0.68184 0.09087 0.0
C274 C 0.08986 0.53107 0.1626 0.0
C275 C 0.14068 0.52902 0.16865 0.0
C276 C 0.17794 0.56236 0.19715 0.0
C277 C 0.22631 0.56109 0.20203 0.0
C278 C 0.23873 0.5268 0.17826 0.0
C279 C 0.20182 0.49378 0.14929 0.0
C280 C 0.15313 0.4949 0.14455 0.0
C281 C 1.01585 0.64326 0.19277 0.0
C282 C 0.15817 0.6979 0.1596 0.0
C283 C 0.05492 0.7557 0.06738 0.0
C284 C 1.01405 0.77241 0.07797 0.0
C285 C 1.01902 0.81729 0.06563 0.0
C286 C 0.97837 0.83166 0.07243 0.0
C287 C 0.93214 0.80124 0.09157 0.0
C288 C 0.92791 0.75684 0.10533 0.0
C289 C 0.96878 0.74267 0.09891 0.0
C290 C 0.10081 0.62575 1.04358 0.0
C291 C 0.96866 0.5863 0.08422 0.0
O292 O 0.07715 0.55623 0.19348 0.0
O293 O 0.07837 0.53846 0.12094 0.0
O294 O 1.02146 0.6055 0.20493 0.0
O295 O 1.03573 0.65137 0.15354 0.0
O296 O 0.14017 0.65209 0.16604 0.0
O297 O 0.13483 0.71693 0.13207 0.0
O298 O 1.04104 0.71743 1.04159 0.0
O299 O 0.08286 0.75412 0.1021 0.0
O300 O 0.0778 0.6502 1.0261 0.0
O301 O 0.10739 0.63736 0.08586 0.0
O302 O 0.98387 0.63265 0.08758 0.0
O303 O 0.99809 0.56536 0.09972 0.0
H304 H 0.1699 0.58958 0.21574 0.0
H305 H 0.2542 0.5871 0.22433 0.0
H306 H 0.21031 0.46664 0.13099 0.0
H307 H 0.1252 0.46913 0.1221 0.0
H308 H 0.05369 0.84066 1.04954 0.0
H309 H 0.98219 0.86575 0.06068 0.0
H310 H 0.89264 0.73278 0.11997 0.0
H311 H 0.96456 0.70804 0.10922 0.0
C312 C 0.34818 0.30649 0.34394 0.0
C313 C 0.38484 0.35007 0.35949 0.0
C314 C 0.30134 0.28571 0.36606 0.0
C315 C 0.28918 0.30772 0.40452 0.0
H316 H 0.35523 0.28875 0.31367 0.0
H317 H 0.27404 0.25242 0.35246 0.0
S318 S 0.3729 0.42111 0.4601 0.0
N319 N 0.40664 0.41409 0.41626 0.0
N320 N 0.31822 0.37471 0.45839 0.0
C321 C 0.32558 0.35117 0.42074 0.0
C322 C 0.37348 0.37243 0.39808 0.0
C323 C 0.26688 0.97619 0.85312 0.0
C324 C 0.26077 0.92915 0.84582 0.0
C325 C 0.28425 0.99951 0.89537 0.0
C326 C 0.2961 0.97657 0.93173 0.0
H327 H 0.26076 0.99584 0.82532 0.0
H328 H 0.29088 1.03643 0.89882 0.0
S329 S 0.27909 0.85146 0.93209 0.0
N330 N 0.26237 0.85891 0.87978 0.0
N331 N 0.29523 0.90292 0.9593 0.0
C332 C 0.28729 0.92879 0.92569 0.0
C333 C 0.26953 0.90502 0.88272 0.0
C334 C 0.65345 0.60141 0.81443 0.0
C335 C 0.64341 0.55311 0.81723 0.0
C336 C 0.64312 0.62065 0.7743 0.0
C337 C 0.62192 0.59265 0.73459 0.0
H338 H 0.66667 0.6242 0.84463 0.0
H339 H 0.65003 0.65768 0.77517 0.0
S340 S 0.58962 0.46407 0.72314 0.0
N341 N 0.61212 0.4779 0.77598 0.0
N342 N 0.59337 0.51363 0.70061 0.0
C343 C 0.61398 0.54458 0.73616 0.0
C344 C 0.62444 0.525 0.77729 0.0
C345 C 0.94047 0.67878 0.28747 0.0
C346 C 0.95569 0.72767 0.28313 0.0
C347 C 0.96022 0.65209 0.25838 0.0
C348 C 0.99547 0.67278 0.22306 0.0
H349 H 0.9116 0.66069 0.3123 0.0
H350 H 0.94671 0.61458 0.26291 0.0
S351 S 0.0524 0.80032 0.2011 0.0
N352 N 1.01153 0.79595 0.2429 0.0
N353 N 0.04841 0.74634 0.18951 0.0
C354 C 1.01236 0.72179 0.21981 0.0
C355 C 0.9926 0.74893 0.24938 0.0
C356 C 0.5441 0.30817 0.27235 0.0
C357 C 0.50633 0.32312 0.25651 0.0
C358 C 0.55165 0.27011 0.2505 0.0
C359 C 0.52033 0.24513 0.21343 0.0
H360 H 0.56753 0.32575 0.30181 0.0
H361 H 0.58142 0.25966 0.26312 0.0
S362 S 0.41674 0.2718 0.15924 0.0
N363 N 0.4384 0.31133 0.20149 0.0
N364 N 0.45128 0.23944 0.16115 0.0
C365 C 0.48256 0.26016 0.1975 0.0
C366 C 0.47584 0.29925 0.21894 0.0
C367 C 0.15721 1.03432 0.66636 0.0
C368 C 0.1455 0.99563 0.63546 0.0
C369 C 0.16226 0.07852 0.65127 0.0
C370 C 0.15614 0.0856 0.60477 0.0
H371 H 0.16053 1.02998 0.70268 0.0
H372 H 0.16892 0.10686 0.6764 0.0
S373 S 0.13044 0.9966 0.50957 0.0
N374 N 0.13197 0.96805 0.55593 0.0
N375 N 0.14154 1.05091 0.52743 0.0
C376 C 0.14727 1.04778 0.57321 0.0
C377 C 0.14165 1.00277 0.58864 0.0
C378 C 0.83316 0.55019 1.03298 0.0
C379 C 0.8206 0.50352 1.0166 0.0
C380 C 0.88064 0.57648 1.05474 0.0
C381 C 0.91793 0.55738 0.06153 0.0
H382 H 0.8056 0.56635 1.02989 0.0
H383 H 0.88786 0.61201 0.06684 0.0
S384 S 0.90654 0.43837 1.02108 0.0
N385 N 0.85164 0.44081 1.00584 0.0
N386 N 0.93963 0.48936 1.04709 0.0
C387 C 0.90625 0.51109 1.04446 0.0
C388 C 0.85813 0.4845 1.02202 0.0
C389 C 0.79425 0.75869 0.56592 0.0
C390 C 0.79216 0.76118 0.51783 0.0
C391 C 0.74991 0.73609 0.59212 0.0
C392 C 0.70092 0.71457 0.57177 0.0
H393 H 0.83062 0.77492 0.58376 0.0
H394 H 0.75407 0.73621 0.62895 0.0
S395 S 0.67314 0.71042 0.44729 0.0
N396 N 0.73579 0.73959 0.45109 0.0
N397 N 0.65322 0.69657 0.50008 0.0
C398 C 0.69817 0.71559 0.52366 0.0
C399 C 0.74341 0.73889 0.49687 0.0
C400 C 0.35417 0.52119 0.23865 0.0
C401 C 0.38643 0.51989 0.20233 0.0
C402 C 0.30674 0.52379 0.23043 0.0
C403 C 0.28949 0.52464 0.18556 0.0
H404 H 0.36571 0.52008 0.27374 0.0
H405 H 0.28297 0.52439 0.25943 0.0
S406 S 0.35968 0.52243 0.07861 0.0
N407 N 0.39813 0.51998 0.11987 0.0
N408 N 0.30868 0.52492 0.10437 0.0
C409 C 0.32144 0.52362 0.14891 0.0
C410 C 0.37006 0.5214 0.15731 0.0
C411 C 0.60988 0.34322 1.03064 0.0
C412 C 0.66033 0.35382 1.01537 0.0
C413 C 0.58093 0.30021 1.05086 0.0
C414 C 0.60046 0.26505 0.05667 0.0
H415 H 0.59273 0.36885 1.02782 0.0
H416 H 0.54258 0.29462 0.06218 0.0
S417 S 0.73006 0.27399 1.02212 0.0
N418 N 0.72837 0.32453 1.00726 0.0
N419 N 0.67384 0.24395 1.04511 0.0
C420 C 0.65072 0.27484 1.04147 0.0
C421 C 0.68055 0.31899 1.02103 0.0
C422 C 0.96312 0.92158 0.54847 0.0
C423 C 0.94558 0.914 0.50263 0.0
C424 C 0.98875 0.96723 0.56795 0.0
C425 C 0.99761 1.00808 0.54298 0.0
H426 H 0.95685 0.89177 0.5697 0.0
H427 H 1.0011 0.97034 0.60335 0.0
S428 S 0.96004 1.0082 0.42127 0.0
N429 N 0.93978 0.95187 0.43256 0.0
N430 N 0.9873 1.03712 0.46889 0.0
C431 C 0.98087 1.00102 0.49685 0.0
C432 C 0.95519 0.95438 0.47684 0.0
C433 C 0.30492 0.80435 0.71673 0.0
C434 C 0.3151 0.85251 0.71638 0.0
C435 C 0.34391 0.78802 0.70784 0.0
C436 C 0.39402 0.81943 0.69813 0.0
H437 H 0.26737 0.77955 0.72621 0.0
H438 H 0.33535 0.75082 0.71021 0.0
S439 S 0.43891 0.94871 0.69127 0.0
N440 N 0.37755 0.93121 0.70403 0.0
N441 N 0.45099 0.90056 0.68692 0.0
C442 C 0.40387 0.86743 0.69555 0.0
C443 C 0.3643 0.884 0.7049 0.0
C444 C 0.82639 0.94354 0.88961 0.0
C445 C 0.8396 0.95465 0.93604 0.0
C446 C 0.86167 0.96452 0.85522 0.0
C447 C 0.91119 0.9972 0.86626 0.0
H448 H 0.78941 0.91694 0.87991 0.0
H449 H 0.85081 0.95377 0.81987 0.0
S450 S 0.96179 1.04261 0.98248 0.0
N451 N 0.90344 1.00342 0.99121 0.0
N452 N 0.96986 1.04312 0.92646 0.0
C453 C 0.92389 1.01028 0.91245 0.0
C454 C 0.88802 0.98895 0.9474 0.0
C455 C 0.79211 0.21585 0.43305 0.0
C456 C 0.7517 0.19284 0.46306 0.0
C457 C 0.7834 0.21653 0.38599 0.0
C458 C 0.73401 0.19398 0.36714 0.0
H459 H 0.83077 0.23396 0.44612 0.0
H460 H 0.81567 0.23442 0.36412 0.0
S461 S 0.61502 0.12928 0.43093 0.0
N462 N 0.66049 0.1468 0.47052 0.0
N463 N 0.64388 0.149 0.38216 0.0
C464 C 0.69319 0.17104 0.39676 0.0
C465 C 0.70207 0.17033 0.44468 0.0
C466 C 0.49111 0.76638 0.47513 0.0
C467 C 0.47733 0.74266 0.4321 0.0
C468 C 0.50166 0.74449 0.51361 0.0
C469 C 0.50011 0.69815 0.51061 0.0
H470 H 0.49707 0.80315 0.47836 0.0
H471 H 0.51417 0.76512 0.54515 0.0
S472 S 0.46186 0.61941 0.40669 0.0
N473 N 0.45934 0.66905 0.39007 0.0
N474 N 0.47926 0.62832 0.46116 0.0
C475 C 0.48376 0.67342 0.46833 0.0
C476 C 0.47247 0.69549 0.42957 0.0
C477 C 0.19107 0.56519 1.00423 0.0
C478 C 0.17379 0.5473 0.95922 0.0
C479 C 0.16729 0.5896 1.03152 0.0
C480 C 0.12547 0.59853 1.0151 0.0
H481 H 0.22318 0.55972 1.01907 0.0
H482 H 0.18208 0.6018 0.06571 0.0
S483 S 0.06456 0.56049 0.90032 0.0
N484 N 0.11106 0.5408 0.90039 0.0
N485 N 0.06799 0.58786 0.95044 0.0
C486 C 0.10847 0.58206 0.96994 0.0
C487 C 0.13223 0.55653 0.94237 0.0
C488 C 0.62507 1.00954 1.00423 0.0
C489 C 0.59201 0.96446 1.01781 0.0
C490 C 0.6164 1.04994 1.01764 0.0
C491 C 0.57377 1.04655 1.04425 0.0
H492 H 0.65832 1.01373 0.98355 0.0
H493 H 0.64337 0.08397 1.00742 0.0
S494 S 0.47714 0.93722 0.09096 0.0
N495 N 0.51653 0.91953 0.06146 0.0
N496 N 0.49878 0.99448 0.08479 0.0
C497 C 0.53998 1.00159 0.05743 0.0
C498 C 0.5494 0.9608 1.04462 0.0
C499 C 0.8626 0.15696 0.62983 0.0
C500 C 0.86394 0.18128 0.58955 0.0
C501 C 0.90531 0.14852 0.6442 0.0
C502 C 0.95034 0.16317 0.61824 0.0
H503 H 0.82806 0.14364 0.65006 0.0
H504 H 0.90258 0.12935 0.67517 0.0
S505 S 0.97588 0.23197 0.51304 0.0
N506 N 0.91647 0.22384 0.52657 0.0
N507 N 0.9951 0.20496 0.5522 0.0
C508 C 0.95256 0.18787 0.57843 0.0
C509 C 0.90976 0.19768 0.56441 0.0
C510 C 0.28991 0.7407 0.21894 0.0
C511 C 0.29904 0.78735 0.23343 0.0
C512 C 0.24447 0.71207 0.19542 0.0
C513 C 0.2063 0.7289 0.18448 0.0
H514 H 0.31863 0.72639 0.22478 0.0
H515 H 0.23973 0.67668 0.18486 0.0
S516 S 0.20774 0.84605 0.21907 0.0
N517 N 0.2626 0.84691 0.2388 0.0
N518 N 0.17914 0.79415 0.1931 0.0
C519 C 0.21429 0.77495 0.19959 0.0
C520 C 0.25996 0.80377 0.22434 0.0
C521 C 0.38296 0.54784 0.74268 0.0
C522 C 0.33367 0.52875 0.72237 0.0
C523 C 0.42737 0.57213 0.71668 0.0
C524 C 0.42442 0.57824 0.66921 0.0
H525 H 0.38758 0.54204 0.77843 0.0
H526 H 0.46443 0.5844 0.73352 0.0
S527 S 0.30424 0.54109 0.60091 0.0
N528 N 0.28477 0.52258 0.65272 0.0
N529 N 0.36724 0.56707 0.60437 0.0
C530 C 0.37516 0.56162 0.64927 0.0
C531 C 0.33021 0.53726 0.67561 0.0
C532 C 0.80648 0.80309 1.05277 0.0
C533 C 0.81266 0.84933 0.0649 0.0
C534 C 0.84307 0.78556 0.06591 0.0
C535 C 0.8869 0.81399 0.09122 0.0
H536 H 0.77641 0.78227 1.02901 0.0
H537 H 0.83961 0.7514 1.05234 0.0
S538 S 0.91448 0.93377 0.13919 0.0
N539 N 0.8609 0.92027 0.10954 0.0
N540 N 0.92966 0.88732 0.13438 0.0
C541 C 0.89011 0.85812 0.10795 0.0
C542 C 0.85283 0.87578 0.09481 0.0
C543 C 0.50091 0.95833 0.22471 0.0
C544 C 0.44951 0.94421 0.23832 0.0
C545 C 0.52731 1.00181 0.20455 0.0
C546 C 0.50415 1.0341 0.19696 0.0
H547 H 0.52088 0.93504 0.22865 0.0
H548 H 0.56656 1.00988 0.19437 0.0
S549 S 0.37051 1.0155 0.22714 0.0
N550 N 0.37639 0.96701 0.24319 0.0
N551 N 0.42639 1.04881 0.20552 0.0
C552 C 0.45287 1.02088 0.21062 0.0
C553 C 0.42558 0.97609 0.23106 0.0
C554 C 0.17996 0.32793 0.74927 0.0
C555 C 0.18878 0.36976 0.72613 0.0
C556 C 0.15752 0.28311 0.72694 0.0
C557 C 0.14222 0.27771 0.6804 0.0
H558 H 0.19173 0.32985 0.78473 0.0
H559 H 0.15236 0.25241 0.74644 0.0
S560 S 0.15399 0.37604 0.60482 0.0
N561 N 0.17816 0.40238 0.65428 0.0
N562 N 0.13644 0.31929 0.61265 0.0
C563 C 0.14987 0.31937 0.65723 0.0
C564 C 0.17294 0.36487 0.67989 0.0
C565 C 0.65527 0.34884 0.66248 0.0
C566 C 0.64613 0.30924 0.63346 0.0
C567 C 0.64095 0.38528 0.64941 0.0
C568 C 0.61639 0.38312 0.60714 0.0
H569 H 0.675 0.35233 0.69489 0.0
H570 H 0.64963 0.41557 0.67242 0.0
S571 S 0.58248 0.28603 0.51955 0.0
N572 N 0.60965 0.26905 0.56136 0.0
N573 N 0.58334 0.33784 0.53647 0.0
C574 C 0.60612 0.34319 0.57825 0.0
C575 C 0.62087 0.3062 0.59148 0.0
loop_
_geom_bond_atom_site_label_1
_geom_bond_atom_site_label_2
_geom_bond_distance
_geom_bond_site_symmetry_2
_ccdc_geom_bond_type
H0 C1 0.949 . S
C1 H0 0.949 . S
C1 C2 1.395 . S
C1 C3 1.391 . S
C2 C1 1.395 . S
C2 C5 1.390 . S
C3 C1 1.391 . S
C3 C7 1.387 . S
C3 C8 1.491 . S
H4 C5 0.950 . S
C5 C2 1.390 . S
C5 H4 0.950 . S
C5 C6 1.378 . S
C6 C5 1.378 . S
C6 C7 1.409 . S
C7 C3 1.387 . S
C7 C6 1.409 . S
C7 H9 0.951 . S
C8 C3 1.491 . S
C8 C10 1.382 . S
C8 C12 1.404 . S
H9 C7 0.951 . S
C10 C8 1.382 . S
C10 C11 1.390 . S
C10 H15 0.949 . S
C11 C10 1.390 . S
C11 C16 1.399 . S
C12 C8 1.404 . S
C12 H13 0.950 . S
C12 C14 1.375 . S
H13 C12 0.950 . S
C14 C12 1.375 . S
C14 C16 1.382 . S
C14 H18 0.950 . S
H15 C10 0.949 . S
C16 C11 1.399 . S
C16 C14 1.382 . S
C16 H17 0.952 . S
H17 C16 0.952 . S
H18 C14 0.950 . S
H19 C20 0.949 . S
C20 H19 0.949 . S
C20 C21 1.395 . S
C20 C22 1.391 . S
C21 C20 1.395 . S
C21 C24 1.390 . S
C22 C20 1.391 . S
C22 C26 1.387 . S
C22 C27 1.491 . S
H23 C24 0.950 . S
C24 C21 1.390 . S
C24 H23 0.950 . S
C24 C25 1.378 . S
C25 C24 1.378 . S
C25 C26 1.409 . S
C26 C22 1.387 . S
C26 C25 1.409 . S
C26 H28 0.951 . S
C27 C22 1.491 . S
C27 C29 1.382 . S
C27 C31 1.404 . S
H28 C26 0.951 . S
C29 C27 1.382 . S
C29 C30 1.390 . S
C29 H34 0.949 . S
C30 C29 1.390 . S
C30 C35 1.399 . S
C31 C27 1.404 . S
C31 H32 0.950 . S
C31 C33 1.375 . S
H32 C31 0.950 . S
C33 C31 1.375 . S
C33 C35 1.382 . S
C33 H37 0.950 . S
H34 C29 0.949 . S
C35 C30 1.399 . S
C35 C33 1.382 . S
C35 H36 0.952 . S
H36 C35 0.952 . S
H37 C33 0.950 . S
H38 C39 0.949 . S
C39 H38 0.949 . S
C39 C40 1.395 . S
C39 C41 1.391 . S
C40 C39 1.395 . S
C40 C43 1.390 . S
C41 C39 1.391 . S
C41 C45 1.387 . S
C41 C46 1.491 . S
H42 C43 0.950 . S
C43 C40 1.390 . S
C43 H42 0.950 . S
C43 C44 1.378 . S
C44 C43 1.378 . S
C44 C45 1.409 . S
C45 C41 1.387 . S
C45 C44 1.409 . S
C45 H47 0.951 . S
C46 C41 1.491 . S
C46 C48 1.382 . S
C46 C50 1.404 . S
H47 C45 0.951 . S
C48 C46 1.382 . S
C48 C49 1.390 . S
C48 H53 0.949 . S
C49 C48 1.390 . S
C49 C54 1.399 . S
C50 C46 1.404 . S
C50 H51 0.950 . S
C50 C52 1.375 . S
H51 C50 0.950 . S
C52 C50 1.375 . S
C52 C54 1.382 . S
C52 H56 0.950 . S
H53 C48 0.949 . S
C54 C49 1.399 . S
C54 C52 1.382 . S
C54 H55 0.952 . S
H55 C54 0.952 . S
H56 C52 0.950 . S
H57 C58 0.949 . S
C58 H57 0.949 . S
C58 C59 1.395 . S
C58 C60 1.391 . S
C59 C58 1.395 . S
C59 C62 1.390 . S
C60 C58 1.391 . S
C60 C64 1.387 . S
C60 C65 1.491 . S
H61 C62 0.950 . S
C62 C59 1.390 . S
C62 H61 0.950 . S
C62 C63 1.378 . S
C63 C62 1.378 . S
C63 C64 1.409 . S
C64 C60 1.387 . S
C64 C63 1.409 . S
C64 H66 0.951 . S
C65 C60 1.491 . S
C65 C67 1.382 . S
C65 C69 1.404 . S
H66 C64 0.951 . S
C67 C65 1.382 . S
C67 C68 1.390 . S
C67 H72 0.949 . S
C68 C67 1.390 . S
C68 C73 1.399 . S
C69 C65 1.404 . S
C69 H70 0.950 . S
C69 C71 1.375 . S
H70 C69 0.950 . S
C71 C69 1.375 . S
C71 C73 1.382 . S
C71 H75 0.950 . S
H72 C67 0.949 . S
C73 C68 1.399 . S
C73 C71 1.382 . S
C73 H74 0.952 . S
H74 C73 0.952 . S
H75 C71 0.950 . S
H76 C77 0.949 . S
C77 H76 0.949 . S
C77 C78 1.395 . S
C77 C79 1.391 . S
C78 C77 1.395 . S
C78 C81 1.390 . S
C79 C77 1.391 . S
C79 C83 1.387 . S
C79 C84 1.491 . S
H80 C81 0.950 . S
C81 C78 1.390 . S
C81 H80 0.950 . S
C81 C82 1.378 . S
C82 C81 1.378 . S
C82 C83 1.409 . S
C83 C79 1.387 . S
C83 C82 1.409 . S
C83 H85 0.951 . S
C84 C79 1.491 . S
C84 C86 1.382 . S
C84 C88 1.404 . S
H85 C83 0.951 . S
C86 C84 1.382 . S
C86 C87 1.390 . S
C86 H91 0.949 . S
C87 C86 1.390 . S
C87 C92 1.399 . S
C88 C84 1.404 . S
C88 H89 0.950 . S
C88 C90 1.375 . S
H89 C88 0.950 . S
C90 C88 1.375 . S
C90 C92 1.382 . S
C90 H94 0.950 . S
H91 C86 0.949 . S
C92 C87 1.399 . S
C92 C90 1.382 . S
C92 H93 0.952 . S
H93 C92 0.952 . S
H94 C90 0.950 . S
H95 C96 0.949 . S
C96 H95 0.949 . S
C96 C97 1.395 . S
C96 C98 1.391 . S
C97 C96 1.395 . S
C97 C100 1.390 . S
C98 C96 1.391 . S
C98 C102 1.387 . S
C98 C103 1.491 . S
H99 C100 0.950 . S
C100 C97 1.390 . S
C100 H99 0.950 . S
C100 C101 1.378 . S
C101 C100 1.378 . S
C101 C102 1.409 . S
C102 C98 1.387 . S
C102 C101 1.409 . S
C102 H104 0.951 . S
C103 C98 1.491 . S
C103 C105 1.382 . S
C103 C107 1.404 . S
H104 C102 0.951 . S
C105 C103 1.382 . S
C105 C106 1.390 . S
C105 H110 0.949 . S
C106 C105 1.390 . S
C106 C111 1.399 . S
C107 C103 1.404 . S
C107 H108 0.950 . S
C107 C109 1.375 . S
H108 C107 0.950 . S
C109 C107 1.375 . S
C109 C111 1.382 . S
C109 H113 0.950 . S
H110 C105 0.949 . S
C111 C106 1.399 . S
C111 C109 1.382 . S
C111 H112 0.952 . S
H112 C111 0.952 . S
H113 C109 0.950 . S
H114 C115 0.949 . S
C115 H114 0.949 . S
C115 C116 1.395 . S
C115 C117 1.391 . S
C116 C115 1.395 . S
C116 C119 1.390 . S
C117 C115 1.391 . S
C117 C121 1.387 . S
C117 C122 1.491 . S
H118 C119 0.950 . S
C119 C116 1.390 . S
C119 H118 0.950 . S
C119 C120 1.378 . S
C120 C119 1.378 . S
C120 C121 1.409 . S
C121 C117 1.387 . S
C121 C120 1.409 . S
C121 H123 0.951 . S
C122 C117 1.491 . S
C122 C124 1.382 . S
C122 C126 1.404 . S
H123 C121 0.951 . S
C124 C122 1.382 . S
C124 C125 1.390 . S
C124 H129 0.949 . S
C125 C124 1.390 . S
C125 C130 1.399 . S
C126 C122 1.404 . S
C126 H127 0.950 . S
C126 C128 1.375 . S
H127 C126 0.950 . S
C128 C126 1.375 . S
C128 C130 1.382 . S
C128 H132 0.950 . S
H129 C124 0.949 . S
C130 C125 1.399 . S
C130 C128 1.382 . S
C130 H131 0.952 . S
H131 C130 0.952 . S
H132 C128 0.950 . S
H133 C134 0.949 . S
C134 H133 0.949 . S
C134 C135 1.395 . S
C134 C136 1.391 . S
C135 C134 1.395 . S
C135 C138 1.390 . S
C136 C134 1.391 . S
C136 C140 1.387 . S
C136 C141 1.491 . S
H137 C138 0.950 . S
C138 C135 1.390 . S
C138 H137 0.950 . S
C138 C139 1.378 . S
C139 C138 1.378 . S
C139 C140 1.409 . S
C140 C136 1.387 . S
C140 C139 1.409 . S
C140 H142 0.951 . S
C141 C136 1.491 . S
C141 C143 1.382 . S
C141 C145 1.404 . S
H142 C140 0.951 . S
C143 C141 1.382 . S
C143 C144 1.390 . S
C143 H148 0.949 . S
C144 C143 1.390 . S
C144 C149 1.399 . S
C145 C141 1.404 . S
C145 H146 0.950 . S
C145 C147 1.375 . S
H146 C145 0.950 . S
C147 C145 1.375 . S
C147 C149 1.382 . S
C147 H151 0.950 . S
H148 C143 0.949 . S
C149 C144 1.399 . S
C149 C147 1.382 . S
C149 H150 0.952 . S
H150 C149 0.952 . S
H151 C147 0.950 . S
La152 C154 2.928 . S
La152 O172 2.521 . S
La152 O173 2.628 . S
La152 O174 2.554 . S
La152 O175 2.757 . S
La152 O176 2.470 . S
La152 O181 2.482 1_455 S
La152 O183 2.503 1_445 S
La153 C163 2.928 1_545 S
La153 O175 2.482 1_655 S
La153 O177 2.503 1_655 S
La153 O178 2.521 1_545 S
La153 O179 2.628 1_545 S
La153 O180 2.554 . S
La153 O181 2.757 . S
La153 O182 2.470 1_545 S
C154 La152 2.928 . S
C154 C155 1.503 . S
C154 O172 1.261 . S
C154 O173 1.243 . S
C155 C154 1.503 . S
C155 C156 1.394 . S
C155 C160 1.373 . S
C156 C155 1.394 . S
C156 C157 1.380 . S
C156 H184 0.930 . S
C157 C156 1.380 . S
C157 C158 1.376 . S
C157 H185 0.930 . S
C158 C157 1.376 . S
C158 C159 1.370 . S
C159 C158 1.370 . S
C159 C160 1.396 . S
C159 H186 0.929 . S
C160 C155 1.373 . S
C160 C159 1.396 . S
C160 H187 0.929 . S
C161 O174 1.240 . S
C161 O175 1.289 . S
C162 O176 1.258 . S
C162 O177 1.256 . S
C163 La153 2.928 1_565 S
C163 C164 1.503 . S
C163 O178 1.261 . S
C163 O179 1.243 . S
C164 C163 1.503 . S
C164 C165 1.394 . S
C164 C169 1.373 . S
C165 C164 1.394 . S
C165 C166 1.380 . S
C165 H188 0.930 . S
C166 C165 1.380 . S
C166 C167 1.376 . S
C166 H189 0.930 . S
C167 C166 1.376 . S
C167 C168 1.370 . S
C168 C167 1.370 . S
C168 C169 1.396 . S
C168 H190 0.929 . S
C169 C164 1.373 . S
C169 C168 1.396 . S
C169 H191 0.929 . S
C170 O180 1.240 . S
C170 O181 1.289 . S
C171 O182 1.258 . S
C171 O183 1.256 . S
O172 La152 2.521 . S
O172 C154 1.261 . S
O173 La152 2.628 . S
O173 C154 1.243 . S
O174 La152 2.554 . S
O174 C161 1.240 . S
O175 La152 2.757 . S
O175 La153 2.482 1_455 S
O175 C161 1.289 . S
O176 La152 2.470 . S
O176 C162 1.258 . S
O177 La153 2.503 1_455 S
O177 C162 1.256 . S
O178 La153 2.521 1_565 S
O178 C163 1.261 . S
O179 La153 2.628 1_565 S
O179 C163 1.243 . S
O180 La153 2.554 . S
O180 C170 1.240 . S
O181 La152 2.482 1_655 S
O181 La153 2.757 . S
O181 C170 1.289 . S
O182 La153 2.470 1_565 S
O182 C171 1.258 . S
O183 La152 2.503 1_665 S
O183 C171 1.256 . S
H184 C156 0.930 . S
H185 C157 0.930 . S
H186 C159 0.929 . S
H187 C160 0.929 . S
H188 C165 0.930 . S
H189 C166 0.930 . S
H190 C168 0.929 . S
H191 C169 0.929 . S
La192 C194 2.928 . S
La192 O212 2.521 . S
La192 O213 2.628 . S
La192 O214 2.554 1_545 S
La192 O215 2.757 1_545 S
La192 O216 2.470 . S
La192 O221 2.482 . S
La192 O223 2.503 . S
La193 C203 2.928 1_544 S
La193 O215 2.482 1_545 S
La193 O217 2.503 . S
La193 O218 2.521 1_554 S
La193 O219 2.628 1_545 S
La193 O220 2.554 . S
La193 O221 2.757 . S
La193 O222 2.470 . S
C194 La192 2.928 . S
C194 C195 1.503 . S
C194 O212 1.261 . S
C194 O213 1.243 . S
C195 C194 1.503 . S
C195 C196 1.394 . S
C195 C200 1.373 . S
C196 C195 1.394 . S
C196 C197 1.380 . S
C196 H224 0.930 . S
C197 C196 1.380 . S
C197 C198 1.376 . S
C197 H225 0.930 . S
C198 C197 1.376 . S
C198 C199 1.370 . S
C199 C198 1.370 . S
C199 C200 1.396 . S
C199 H226 0.929 . S
C200 C195 1.373 . S
C200 C199 1.396 . S
C200 H227 0.929 . S
C201 O214 1.240 . S
C201 O215 1.289 . S
C202 O216 1.258 . S
C202 O217 1.256 . S
C203 La193 2.928 1_566 S
C203 C204 1.503 . S
C203 O218 1.261 1_565 S
C203 O219 1.243 1_556 S
C204 C203 1.503 . S
C204 C205 1.394 . S
C204 C209 1.373 . S
C205 C204 1.394 . S
C205 C206 1.380 . S
C205 H228 0.930 1_565 S
C206 C205 1.380 . S
C206 C207 1.376 . S
C206 H229 0.930 . S
C207 C206 1.376 . S
C207 C208 1.370 . S
C208 C207 1.370 . S
C208 C209 1.396 . S
C208 H230 0.929 . S
C209 C204 1.373 . S
C209 C208 1.396 . S
C209 H231 0.929 . S
C210 O220 1.240 . S
C210 O221 1.289 . S
C211 O222 1.258 1_565 S
C211 O223 1.256 1_565 S
O212 La192 2.521 . S
O212 C194 1.261 . S
O213 La192 2.628 . S
O213 C194 1.243 . S
O214 La192 2.554 1_565 S
O214 C201 1.240 . S
O215 La192 2.757 1_565 S
O215 La193 2.482 1_565 S
O215 C201 1.289 . S
O216 La192 2.470 . S
O216 C202 1.258 . S
O217 La193 2.503 . S
O217 C202 1.256 . S
O218 La193 2.521 1_556 S
O218 C203 1.261 1_545 S
O219 La193 2.628 1_565 S
O219 C203 1.243 1_554 S
O220 La193 2.554 . S
O220 C210 1.240 . S
O221 La192 2.482 . S
O221 La193 2.757 . S
O221 C210 1.289 . S
O222 La193 2.470 . S
O222 C211 1.258 1_545 S
O223 La192 2.503 . S
O223 C211 1.256 1_545 S
H224 C196 0.930 . S
H225 C197 0.930 . S
H226 C199 0.929 . S
H227 C200 0.929 . S
H228 C205 0.930 1_545 S
H229 C206 0.930 . S
H230 C208 0.929 . S
H231 C209 0.929 . S
La232 C234 2.928 . S
La232 O252 2.521 . S
La232 O253 2.628 . S
La232 O254 2.554 . S
La232 O255 2.757 . S
La232 O256 2.470 . S
La232 O261 2.482 . S
La232 O263 2.503 . S
La233 C243 2.928 . S
La233 O255 2.482 . S
La233 O257 2.503 . S
La233 O258 2.521 . S
La233 O259 2.628 . S
La233 O260 2.554 . S
La233 O261 2.757 . S
La233 O262 2.470 . S
C234 La232 2.928 . S
C234 C235 1.503 . S
C234 O252 1.261 . S
C234 O253 1.243 . S
C235 C234 1.503 . S
C235 C236 1.394 . S
C235 C240 1.373 . S
C236 C235 1.394 . S
C236 C237 1.380 . S
C236 H264 0.930 . S
C237 C236 1.380 . S
C237 C238 1.376 . S
C237 H265 0.930 . S
C238 C237 1.376 . S
C238 C239 1.370 . S
C239 C238 1.370 . S
C239 C240 1.396 . S
C239 H266 0.929 . S
C240 C235 1.373 . S
C240 C239 1.396 . S
C240 H267 0.929 . S
C241 O254 1.240 . S
C241 O255 1.289 . S
C242 O256 1.258 . S
C242 O257 1.256 . S
C243 La233 2.928 . S
C243 C244 1.503 . S
C243 O258 1.261 . S
C243 O259 1.243 . S
C244 C243 1.503 . S
C244 C245 1.394 . S
C244 C249 1.373 . S
C245 C244 1.394 . S
C245 C246 1.380 . S
C245 H268 0.930 . S
C246 C245 1.380 . S
C246 C247 1.376 . S
C246 H269 0.930 . S
C247 C246 1.376 . S
C247 C248 1.370 . S
C248 C247 1.370 . S
C248 C249 1.396 . S
C248 H270 0.929 . S
C249 C244 1.373 . S
C249 C248 1.396 . S
C249 H271 0.929 . S
C250 O260 1.240 . S
C250 O261 1.289 . S
C251 O262 1.258 . S
C251 O263 1.256 . S
O252 La232 2.521 . S
O252 C234 1.261 . S
O253 La232 2.628 . S
O253 C234 1.243 . S
O254 La232 2.554 . S
O254 C241 1.240 . S
O255 La232 2.757 . S
O255 La233 2.482 . S
O255 C241 1.289 . S
O256 La232 2.470 . S
O256 C242 1.258 . S
O257 La233 2.503 . S
O257 C242 1.256 . S
O258 La233 2.521 . S
O258 C243 1.261 . S
O259 La233 2.628 . S
O259 C243 1.243 . S
O260 La233 2.554 . S
O260 C250 1.240 . S
O261 La232 2.482 . S
O261 La233 2.757 . S
O261 C250 1.289 . S
O262 La233 2.470 . S
O262 C251 1.258 . S
O263 La232 2.503 . S
O263 C251 1.256 . S
H264 C236 0.930 . S
H265 C237 0.930 . S
H266 C239 0.929 . S
H267 C240 0.929 . S
H268 C245 0.930 . S
H269 C246 0.930 . S
H270 C248 0.929 . S
H271 C249 0.929 . S
La272 C274 2.928 . S
La272 O292 2.521 . S
La272 O293 2.628 . S
La272 O294 2.554 . S
La272 O295 2.757 . S
La272 O296 2.470 . S
La272 O301 2.477 1_554 S
La272 O303 2.503 1_455 S
La273 C283 2.928 1_454 S
La273 O295 2.482 . S
La273 O297 2.503 . S
La273 O298 2.531 1_554 S
La273 O299 2.629 1_455 S
La273 O300 2.554 1_554 S
La273 O301 2.757 1_554 S
La273 O302 2.470 1_454 S
C274 La272 2.928 . S
C274 C275 1.503 . S
C274 O292 1.261 . S
C274 O293 1.243 . S
C275 C274 1.503 . S
C275 C276 1.394 . S
C275 C280 1.373 . S
C276 C275 1.394 . S
C276 C277 1.380 . S
C276 H304 0.930 . S
C277 C276 1.380 . S
C277 C278 1.376 . S
C277 H305 0.930 . S
C278 C277 1.376 . S
C278 C279 1.370 . S
C279 C278 1.370 . S
C279 C280 1.396 . S
C279 H306 0.929 . S
C280 C275 1.373 . S
C280 C279 1.396 . S
C280 H307 0.929 . S
C281 O294 1.240 1_655 S
C281 O295 1.289 1_655 S
C282 O296 1.258 . S
C282 O297 1.256 . S
C283 La273 2.928 1_656 S
C283 C284 1.503 . S
C283 O298 1.246 1_655 S
C283 O299 1.220 1_556 S
C284 C283 1.503 . S
C284 C285 1.394 . S
C284 C289 1.373 . S
C285 C284 1.394 . S
C285 C286 1.380 . S
C285 H308 0.930 . S
C286 C285 1.380 . S
C286 C287 1.376 . S
C286 H309 0.930 . S
C287 C286 1.376 . S
C287 C288 1.370 . S
C288 C287 1.370 . S
C288 C289 1.396 . S
C288 H310 0.929 . S
C289 C284 1.373 . S
C289 C288 1.396 . S
C289 H311 0.929 . S
C290 O300 1.240 . S
C290 O301 1.295 . S
C291 O302 1.258 . S
C291 O303 1.256 1_556 S
O292 La272 2.521 . S
O292 C274 1.261 . S
O293 La272 2.628 . S
O293 C274 1.243 . S
O294 La272 2.554 . S
O294 C281 1.240 1_455 S
O295 La272 2.757 . S
O295 La273 2.482 . S
O295 C281 1.289 1_455 S
O296 La272 2.470 . S
O296 C282 1.258 . S
O297 La273 2.503 . S
O297 C282 1.256 . S
O298 La273 2.531 1_556 S
O298 C283 1.246 1_455 S
O299 La273 2.629 1_655 S
O299 C283 1.220 1_554 S
O300 La273 2.554 1_556 S
O300 C290 1.240 . S
O301 La272 2.477 1_556 S
O301 La273 2.757 1_556 S
O301 C290 1.295 . S
O302 La273 2.470 1_656 S
O302 C291 1.258 . S
O303 La272 2.503 1_655 S
O303 C291 1.256 1_554 S
H304 C276 0.930 . S
H305 C277 0.930 . S
H306 C279 0.929 . S
H307 C280 0.929 . S
H308 C285 0.930 . S
H309 C286 0.930 . S
H310 C288 0.929 . S
H311 C289 0.929 . S
C312 C313 1.369 . S
C312 C314 1.419 . S
C312 H316 0.930 . S
C313 C312 1.369 . S
C313 C322 1.429 . S
C314 C312 1.419 . S
C314 C315 1.363 . S
C314 H317 0.929 . S
C315 C314 1.363 . S
C315 C321 1.428 . S
H316 C312 0.930 . S
H317 C314 0.929 . S
S318 N319 1.613 . S
S318 N320 1.610 . S
N319 S318 1.613 . S
N319 C322 1.350 . S
N320 S318 1.610 . S
N320 C321 1.351 . S
C321 C315 1.428 . S
C321 N320 1.351 . S
C321 C322 1.434 . S
C322 C313 1.429 . S
C322 N319 1.350 . S
C322 C321 1.434 . S
C323 C324 1.369 . S
C323 C325 1.419 . S
C323 H327 0.930 . S
C324 C323 1.369 . S
C324 C333 1.429 . S
C325 C323 1.419 . S
C325 C326 1.363 . S
C325 H328 0.929 . S
C326 C325 1.363 . S
C326 C332 1.428 . S
H327 C323 0.930 . S
H328 C325 0.929 . S
S329 N330 1.613 . S
S329 N331 1.610 . S
N330 S329 1.613 . S
N330 C333 1.350 . S
N331 S329 1.610 . S
N331 C332 1.351 . S
C332 C326 1.428 . S
C332 N331 1.351 . S
C332 C333 1.434 . S
C333 C324 1.429 . S
C333 N330 1.350 . S
C333 C332 1.434 . S
C334 C335 1.369 . S
C334 C336 1.419 . S
C334 H338 0.930 . S
C335 C334 1.369 . S
C335 C344 1.429 . S
C336 C334 1.419 . S
C336 C337 1.363 . S
C336 H339 0.929 . S
C337 C336 1.363 . S
C337 C343 1.428 . S
H338 C334 0.930 . S
H339 C336 0.929 . S
S340 N341 1.613 . S
S340 N342 1.610 . S
N341 S340 1.613 . S
N341 C344 1.350 . S
N342 S340 1.610 . S
N342 C343 1.351 . S
C343 C337 1.428 . S
C343 N342 1.351 . S
C343 C344 1.434 . S
C344 C335 1.429 . S
C344 N341 1.350 . S
C344 C343 1.434 . S
C345 C346 1.369 . S
C345 C347 1.419 . S
C345 H349 0.930 . S
C346 C345 1.369 . S
C346 C355 1.429 . S
C347 C345 1.419 . S
C347 C348 1.363 . S
C347 H350 0.929 . S
C348 C347 1.363 . S
C348 C354 1.428 . S
H349 C345 0.930 . S
H350 C347 0.929 . S
S351 N352 1.613 . S
S351 N353 1.610 . S
N352 S351 1.613 . S
N352 C355 1.350 . S
N353 S351 1.610 . S
N353 C354 1.351 . S
C354 C348 1.428 . S
C354 N353 1.351 . S
C354 C355 1.434 . S
C355 C346 1.429 . S
C355 N352 1.350 . S
C355 C354 1.434 . S
C356 C357 1.369 . S
C356 C358 1.419 . S
C356 H360 0.930 . S
C357 C356 1.369 . S
C357 C366 1.429 . S
C358 C356 1.419 . S
C358 C359 1.363 . S
C358 H361 0.929 . S
C359 C358 1.363 . S
C359 C365 1.428 . S
H360 C356 0.930 . S
H361 C358 0.929 . S
S362 N363 1.613 . S
S362 N364 1.610 . S
N363 S362 1.613 . S
N363 C366 1.350 . S
N364 S362 1.610 . S
N364 C365 1.351 . S
C365 C359 1.428 . S
C365 N364 1.351 . S
C365 C366 1.434 . S
C366 C357 1.429 . S
C366 N363 1.350 . S
C366 C365 1.434 . S
C367 C368 1.369 . S
C367 C369 1.419 1_565 S
C367 H371 0.930 . S
C368 C367 1.369 . S
C368 C377 1.429 . S
C369 C367 1.419 1_545 S
C369 C370 1.363 . S
C369 H372 0.929 . S
C370 C369 1.363 . S
C370 C376 1.428 1_545 S
H371 C367 0.930 . S
H372 C369 0.929 . S
S373 N374 1.613 . S
S373 N375 1.610 . S
N374 S373 1.613 . S
N374 C377 1.350 . S
N375 S373 1.610 . S
N375 C376 1.351 . S
C376 C370 1.428 1_565 S
C376 N375 1.351 . S
C376 C377 1.434 . S
C377 C368 1.429 . S
C377 N374 1.350 . S
C377 C376 1.434 . S
C378 C379 1.369 . S
C378 C380 1.419 . S
C378 H382 0.930 . S
C379 C378 1.369 . S
C379 C388 1.429 . S
C380 C378 1.419 . S
C380 C381 1.363 . S
C380 H383 0.929 . S
C381 C380 1.363 . S
C381 C387 1.428 . S
H382 C378 0.930 . S
H383 C380 0.929 . S
S384 N385 1.613 . S
S384 N386 1.610 . S
N385 S384 1.613 . S
N385 C388 1.350 . S
N386 S384 1.610 . S
N386 C387 1.351 . S
C387 C381 1.428 . S
C387 N386 1.351 . S
C387 C388 1.434 . S
C388 C379 1.429 . S
C388 N385 1.350 . S
C388 C387 1.434 . S
C389 C390 1.369 . S
C389 C391 1.419 . S
C389 H393 0.930 . S
C390 C389 1.369 . S
C390 C399 1.429 . S
C391 C389 1.419 . S
C391 C392 1.363 . S
C391 H394 0.929 . S
C392 C391 1.363 . S
C392 C398 1.428 . S
H393 C389 0.930 . S
H394 C391 0.929 . S
S395 N396 1.613 . S
S395 N397 1.610 . S
N396 S395 1.613 . S
N396 C399 1.350 . S
N397 S395 1.610 . S
N397 C398 1.351 . S
C398 C392 1.428 . S
C398 N397 1.351 . S
C398 C399 1.434 . S
C399 C390 1.429 . S
C399 N396 1.350 . S
C399 C398 1.434 . S
C400 C401 1.369 . S
C400 C402 1.419 . S
C400 H404 0.930 . S
C401 C400 1.369 . S
C401 C410 1.429 . S
C402 C400 1.419 . S
C402 C403 1.363 . S
C402 H405 0.929 . S
C403 C402 1.363 . S
C403 C409 1.428 . S
H404 C400 0.930 . S
H405 C402 0.929 . S
S406 N407 1.613 . S
S406 N408 1.610 . S
N407 S406 1.613 . S
N407 C410 1.350 . S
N408 S406 1.610 . S
N408 C409 1.351 . S
C409 C403 1.428 . S
C409 N408 1.351 . S
C409 C410 1.434 . S
C410 C401 1.429 . S
C410 N407 1.350 . S
C410 C409 1.434 . S
C411 C412 1.369 . S
C411 C413 1.419 1_556 S
C411 H415 0.930 . S
C412 C411 1.369 . S
C412 C421 1.429 . S
C413 C411 1.419 1_554 S
C413 C414 1.363 . S
C413 H416 0.929 . S
C414 C413 1.363 . S
C414 C420 1.428 . S
H415 C411 0.930 . S
H416 C413 0.929 . S
S417 N418 1.613 1_554 S
S417 N419 1.610 . S
N418 S417 1.613 1_556 S
N418 C421 1.350 . S
N419 S417 1.610 . S
N419 C420 1.351 . S
C420 C414 1.428 . S
C420 N419 1.351 . S
C420 C421 1.434 1_554 S
C421 C412 1.429 . S
C421 N418 1.350 . S
C421 C420 1.434 1_556 S
C422 C423 1.369 . S
C422 C424 1.419 . S
C422 H426 0.930 . S
C423 C422 1.369 . S
C423 C432 1.429 . S
C424 C422 1.419 . S
C424 C425 1.363 . S
C424 H427 0.929 . S
C425 C424 1.363 . S
C425 C431 1.428 . S
H426 C422 0.930 . S
H427 C424 0.929 . S
S428 N429 1.613 . S
S428 N430 1.610 . S
N429 S428 1.613 . S
N429 C432 1.350 . S
N430 S428 1.610 . S
N430 C431 1.351 . S
C431 C425 1.428 . S
C431 N430 1.351 . S
C431 C432 1.434 . S
C432 C423 1.429 . S
C432 N429 1.350 . S
C432 C431 1.434 . S
C433 C434 1.369 . S
C433 C435 1.419 . S
C433 H437 0.930 . S
C434 C433 1.369 . S
C434 C443 1.429 . S
C435 C433 1.419 . S
C435 C436 1.363 . S
C435 H438 0.929 . S
C436 C435 1.363 . S
C436 C442 1.428 . S
H437 C433 0.930 . S
H438 C435 0.929 . S
S439 N440 1.613 . S
S439 N441 1.610 . S
N440 S439 1.613 . S
N440 C443 1.350 . S
N441 S439 1.610 . S
N441 C442 1.351 . S
C442 C436 1.428 . S
C442 N441 1.351 . S
C442 C443 1.434 . S
C443 C434 1.429 . S
C443 N440 1.350 . S
C443 C442 1.434 . S
C444 C445 1.369 . S
C444 C446 1.419 . S
C444 H448 0.930 . S
C445 C444 1.369 . S
C445 C454 1.429 . S
C446 C444 1.419 . S
C446 C447 1.363 . S
C446 H449 0.929 . S
C447 C446 1.363 . S
C447 C453 1.428 . S
H448 C444 0.930 . S
H449 C446 0.929 . S
S450 N451 1.613 . S
S450 N452 1.610 . S
N451 S450 1.613 . S
N451 C454 1.350 . S
N452 S450 1.610 . S
N452 C453 1.351 . S
C453 C447 1.428 . S
C453 N452 1.351 . S
C453 C454 1.434 . S
C454 C445 1.429 . S
C454 N451 1.350 . S
C454 C453 1.434 . S
C455 C456 1.369 . S
C455 C457 1.419 . S
C455 H459 0.930 . S
C456 C455 1.369 . S
C456 C465 1.429 . S
C457 C455 1.419 . S
C457 C458 1.363 . S
C457 H460 0.929 . S
C458 C457 1.363 . S
C458 C464 1.428 . S
H459 C455 0.930 . S
H460 C457 0.929 . S
S461 N462 1.613 . S
S461 N463 1.610 . S
N462 S461 1.613 . S
N462 C465 1.350 . S
N463 S461 1.610 . S
N463 C464 1.351 . S
C464 C458 1.428 . S
C464 N463 1.351 . S
C464 C465 1.434 . S
C465 C456 1.429 . S
C465 N462 1.350 . S
C465 C464 1.434 . S
C466 C467 1.369 . S
C466 C468 1.419 . S
C466 H470 0.930 . S
C467 C466 1.369 . S
C467 C476 1.429 . S
C468 C466 1.419 . S
C468 C469 1.363 . S
C468 H471 0.929 . S
C469 C468 1.363 . S
C469 C475 1.428 . S
H470 C466 0.930 . S
H471 C468 0.929 . S
S472 N473 1.613 . S
S472 N474 1.610 . S
N473 S472 1.613 . S
N473 C476 1.350 . S
N474 S472 1.610 . S
N474 C475 1.351 . S
C475 C469 1.428 . S
C475 N474 1.351 . S
C475 C476 1.434 . S
C476 C467 1.429 . S
C476 N473 1.350 . S
C476 C475 1.434 . S
C477 C478 1.369 . S
C477 C479 1.419 . S
C477 H481 0.930 . S
C478 C477 1.369 . S
C478 C487 1.429 . S
C479 C477 1.419 . S
C479 C480 1.363 . S
C479 H482 0.929 . S
C480 C479 1.363 . S
C480 C486 1.428 . S
H481 C477 0.930 . S
H482 C479 0.929 . S
S483 N484 1.613 1_655 S
S483 N485 1.610 1_655 S
N484 S483 1.613 1_455 S
N484 C487 1.350 . S
N485 S483 1.610 1_455 S
N485 C486 1.351 . S
C486 C480 1.428 . S
C486 N485 1.351 . S
C486 C487 1.434 . S
C487 C478 1.429 . S
C487 N484 1.350 . S
C487 C486 1.434 . S
C488 C489 1.369 . S
C488 C490 1.419 . S
C488 H492 0.930 . S
C489 C488 1.369 . S
C489 C498 1.429 . S
C490 C488 1.419 . S
C490 C491 1.360 1_556 S
C490 H493 0.929 1_556 S
C491 C490 1.360 1_554 S
C491 C497 1.421 1_554 S
H492 C488 0.930 . S
H493 C490 0.929 1_554 S
S494 N495 1.613 . S
S494 N496 1.610 . S
N495 S494 1.613 . S
N495 C498 1.350 . S
N496 S494 1.610 . S
N496 C497 1.351 . S
C497 C491 1.421 1_556 S
C497 N496 1.351 . S
C497 C498 1.434 . S
C498 C489 1.429 . S
C498 N495 1.350 . S
C498 C497 1.434 . S
C499 C500 1.369 . S
C499 C501 1.419 . S
C499 H503 0.930 . S
C500 C499 1.369 . S
C500 C509 1.429 . S
C501 C499 1.419 . S
C501 C502 1.363 . S
C501 H504 0.929 . S
C502 C501 1.363 . S
C502 C508 1.428 . S
H503 C499 0.930 . S
H504 C501 0.929 . S
S505 N506 1.613 . S
S505 N507 1.610 . S
N506 S505 1.613 . S
N506 C509 1.350 . S
N507 S505 1.610 . S
N507 C508 1.351 . S
C508 C502 1.428 . S
C508 N507 1.351 . S
C508 C509 1.434 . S
C509 C500 1.429 . S
C509 N506 1.350 . S
C509 C508 1.434 . S
C510 C511 1.369 . S
C510 C512 1.419 . S
C510 H514 0.930 . S
C511 C510 1.369 . S
C511 C520 1.429 . S
C512 C510 1.419 . S
C512 C513 1.363 . S
C512 H515 0.929 . S
C513 C512 1.363 . S
C513 C519 1.428 . S
H514 C510 0.930 . S
H515 C512 0.929 . S
S516 N517 1.613 . S
S516 N518 1.610 . S
N517 S516 1.613 . S
N517 C520 1.350 . S
N518 S516 1.610 . S
N518 C519 1.351 . S
C519 C513 1.428 . S
C519 N518 1.351 . S
C519 C520 1.434 . S
C520 C511 1.429 . S
C520 N517 1.350 . S
C520 C519 1.434 . S
C521 C522 1.369 . S
C521 C523 1.419 . S
C521 H525 0.930 . S
C522 C521 1.369 . S
C522 C531 1.429 . S
C523 C521 1.419 . S
C523 C524 1.363 . S
C523 H526 0.929 . S
C524 C523 1.363 . S
C524 C530 1.428 . S
H525 C521 0.930 . S
H526 C523 0.929 . S
S527 N528 1.613 . S
S527 N529 1.610 . S
N528 S527 1.613 . S
N528 C531 1.350 . S
N529 S527 1.610 . S
N529 C530 1.351 . S
C530 C524 1.428 . S
C530 N529 1.351 . S
C530 C531 1.434 . S
C531 C522 1.429 . S
C531 N528 1.350 . S
C531 C530 1.434 . S
C532 C533 1.369 . S
C532 C534 1.419 . S
C532 H536 0.930 . S
C533 C532 1.369 . S
C533 C542 1.429 . S
C534 C532 1.419 . S
C534 C535 1.363 . S
C534 H537 0.929 . S
C535 C534 1.363 . S
C535 C541 1.428 . S
H536 C532 0.930 . S
H537 C534 0.929 . S
S538 N539 1.613 . S
S538 N540 1.610 . S
N539 S538 1.613 . S
N539 C542 1.350 . S
N540 S538 1.610 . S
N540 C541 1.351 . S
C541 C535 1.428 . S
C541 N540 1.351 . S
C541 C542 1.434 . S
C542 C533 1.429 . S
C542 N539 1.350 . S
C542 C541 1.434 . S
C543 C544 1.369 . S
C543 C545 1.419 . S
C543 H547 0.930 . S
C544 C543 1.369 . S
C544 C553 1.429 . S
C545 C543 1.419 . S
C545 C546 1.363 . S
C545 H548 0.929 . S
C546 C545 1.363 . S
C546 C552 1.428 . S
H547 C543 0.930 . S
H548 C545 0.929 . S
S549 N550 1.613 . S
S549 N551 1.610 . S
N550 S549 1.613 . S
N550 C553 1.350 . S
N551 S549 1.610 . S
N551 C552 1.351 . S
C552 C546 1.428 . S
C552 N551 1.351 . S
C552 C553 1.434 . S
C553 C544 1.429 . S
C553 N550 1.350 . S
C553 C552 1.434 . S
C554 C555 1.369 . S
C554 C556 1.419 . S
C554 H558 0.930 . S
C555 C554 1.369 . S
C555 C564 1.429 . S
C556 C554 1.419 . S
C556 C557 1.363 . S
C556 H559 0.929 . S
C557 C556 1.363 . S
C557 C563 1.428 . S
H558 C554 0.930 . S
H559 C556 0.929 . S
S560 N561 1.613 . S
S560 N562 1.610 . S
N561 S560 1.613 . S
N561 C564 1.350 . S
N562 S560 1.610 . S
N562 C563 1.351 . S
C563 C557 1.428 . S
C563 N562 1.351 . S
C563 C564 1.434 . S
C564 C555 1.429 . S
C564 N561 1.350 . S
C564 C563 1.434 . S
C565 C566 1.369 . S
C565 C567 1.419 . S
C565 H569 0.930 . S
C566 C565 1.369 . S
C566 C575 1.429 . S
C567 C565 1.419 . S
C567 C568 1.363 . S
C567 H570 0.929 . S
C568 C567 1.363 . S
C568 C574 1.428 . S
H569 C565 0.930 . S
H570 C567 0.929 . S
S571 N572 1.613 . S
S571 N573 1.610 . S
N572 S571 1.613 . S
N572 C575 1.350 . S
N573 S571 1.610 . S
N573 C574 1.351 . S
C574 C568 1.428 . S
C574 N573 1.351 . S
C574 C575 1.434 . S
C575 C566 1.429 . S
C575 N572 1.350 . S
C575 C574 1.434 . S
C313 C6 1.225 . S
C315 C158 1.253 . S
C324 C21 1.429 . S
C326 C207 1.465 . S
C337 C242 2.017 . S
C335 C49 2.067 . S
C346 C68 2.200 . S
C348 C281 2.253 . S
C359 C202 2.835 . S
C357 C2 2.673 . S
C370 C161 0.477 . S
C368 C30 0.424 . S
C381 C291 2.002 . S
C379 C40 2.083 . S
C392 C250 1.754 . S
C390 C63 1.746 . S
C401 C11 1.350 . S
C403 C278 1.559 . S
C414 C210 2.619 . S
C412 C44 2.709 . S
C423 C59 2.039 . S
C425 C171 2.039 . S
C434 C25 1.591 . S
C436 C247 1.566 . S
C447 C167 1.354 . S
C445 C82 1.349 . S
C456 C101 1.341 . S
C458 C198 1.351 . S
C467 C125 2.320 . S
C469 C251 2.414 . S
C478 C144 2.026 . S
C480 C290 2.092 . S
C489 C87 1.956 . S
C491 C211 2.150 . S
C502 C170 1.591 . S
C500 C97 1.626 . S
C513 C282 1.760 . S
C511 C120 1.874 . S
C524 C241 1.746 . S
C522 C135 1.874 . S
C533 C78 1.889 . S
C535 C287 2.056 . S
C546 C201 1.964 . S
C544 C116 2.028 . S
C557 C162 2.652 . S
C555 C139 2.651 . S
C566 C106 0.884 . S
C568 C238 1.124 . S
