# Generated by pormake.
# Topology zzz, (3,6)-cn, num edge types: 1
# Building blocks:
#     Node 0, Type 0, BuildingBlock: BELTOD_clean_linker_0, # of connection points: 3
#     Node 1, Type 0, BuildingBlock: BELTOD_clean_linker_0, # of connection points: 3
#     Node 2, Type 0, BuildingBlock: BELTOD_clean_linker_0, # of connection points: 3
#     Node 3, Type 0, BuildingBlock: BELTOD_clean_linker_0, # of connection points: 3
#     Node 4, Type 0, BuildingBlock: BELTOD_clean_linker_0, # of connection points: 3
#     Node 5, Type 0, BuildingBlock: BELTOD_clean_linker_0, # of connection points: 3
#     Node 6, Type 0, BuildingBlock: BELTOD_clean_linker_0, # of connection points: 3
#     Node 7, Type 0, BuildingBlock: BELTOD_clean_linker_0, # of connection points: 3
#     Node 8, Type 1, BuildingBlock: BETDIP_clean_sbu_0, # of connection points: 6
#     Node 9, Type 1, BuildingBlock: BETDIP_clean_sbu_0, # of connection points: 6
#     Node 10, Type 1, BuildingBlock: BETDIP_clean_sbu_0, # of connection points: 6
#     Node 11, Type 1, BuildingBlock: BETDIP_clean_sbu_0, # of connection points: 6
#     Edge 12, Type (0, 1), BuildingBlock: KIFKEQ_clean_linker_1, # of connection points: 2
#     Edge 13, Type (0, 1), BuildingBlock: KIFKEQ_clean_linker_1, # of connection points: 2
#     Edge 14, Type (0, 1), BuildingBlock: KIFKEQ_clean_linker_1, # of connection points: 2
#     Edge 15, Type (0, 1), BuildingBlock: KIFKEQ_clean_linker_1, # of connection points: 2
#     Edge 16, Type (0, 1), BuildingBlock: KIFKEQ_clean_linker_1, # of connection points: 2
#     Edge 17, Type (0, 1), BuildingBlock: KIFKEQ_clean_linker_1, # of connection points: 2
#     Edge 18, Type (0, 1), BuildingBlock: KIFKEQ_clean_linker_1, # of connection points: 2
#     Edge 19, Type (0, 1), BuildingBlock: KIFKEQ_clean_linker_1, # of connection points: 2
#     Edge 20, Type (0, 1), BuildingBlock: KIFKEQ_clean_linker_1, # of connection points: 2
#     Edge 21, Type (0, 1), BuildingBlock: KIFKEQ_clean_linker_1, # of connection points: 2
#     Edge 22, Type (0, 1), BuildingBlock: KIFKEQ_clean_linker_1, # of connection points: 2
#     Edge 23, Type (0, 1), BuildingBlock: KIFKEQ_clean_linker_1, # of connection points: 2
#     Edge 24, Type (0, 1), BuildingBlock: KIFKEQ_clean_linker_1, # of connection points: 2
#     Edge 25, Type (0, 1), BuildingBlock: KIFKEQ_clean_linker_1, # of connection points: 2
#     Edge 26, Type (0, 1), BuildingBlock: KIFKEQ_clean_linker_1, # of connection points: 2
#     Edge 27, Type (0, 1), BuildingBlock: KIFKEQ_clean_linker_1, # of connection points: 2
#     Edge 28, Type (0, 1), BuildingBlock: KIFKEQ_clean_linker_1, # of connection points: 2
#     Edge 29, Type (0, 1), BuildingBlock: KIFKEQ_clean_linker_1, # of connection points: 2
#     Edge 30, Type (0, 1), BuildingBlock: KIFKEQ_clean_linker_1, # of connection points: 2
#     Edge 31, Type (0, 1), BuildingBlock: KIFKEQ_clean_linker_1, # of connection points: 2
#     Edge 32, Type (0, 1), BuildingBlock: KIFKEQ_clean_linker_1, # of connection points: 2
#     Edge 33, Type (0, 1), BuildingBlock: KIFKEQ_clean_linker_1, # of connection points: 2
#     Edge 34, Type (0, 1), BuildingBlock: KIFKEQ_clean_linker_1, # of connection points: 2
#     Edge 35, Type (0, 1), BuildingBlock: KIFKEQ_clean_linker_1, # of connection points: 2
# Relax obj value: 0.426
# Max RMSD: 0.251
# Mean RMSD: 0.233
data_MOF--net-zzz--node1-BETDIP_clean_sbu_0--node2-BELTOD_clean_linker_0--edge1-KIFKEQ_clean_linker_1
_symmetry_space_group_name_H-M    P1
_symmetry_Int_Tables_number       1
_symmetry_cell_setting            triclinic
loop_
_symmetry_equiv_pos_as_xyz
'x, y, z'
_cell_length_a     56.600924
_cell_length_b     56.596368
_cell_length_c     17.525522
_cell_angle_alpha  89.805722
_cell_angle_beta   89.944116
_cell_angle_gamma 89.971072
loop_
_atom_site_label
_atom_site_type_symbol
_atom_site_fract_x
_atom_site_fract_y
_atom_site_fract_z
_atom_type_partial_charge
P0 P 0.71897 0.47513 0.37171 0.0
H1 H 0.73398 0.48831 0.526 0.0
H2 H 0.77223 0.50083 0.57397 0.0
H3 H 0.7954 0.51478 0.34316 0.0
H4 H 0.75727 0.50121 0.29544 0.0
H5 H 0.66848 0.46612 0.3631 0.0
H6 H 0.63812 0.47751 0.27226 0.0
H7 H 0.68784 0.52373 0.15893 0.0
H8 H 0.71844 0.51188 0.25031 0.0
H9 H 0.75806 0.44434 0.40974 0.0
H10 H 0.71398 0.45727 0.21325 0.0
O11 O 0.70643 0.46153 0.4461 0.0
H12 H 0.7857 0.42258 0.33089 0.0
H13 H 0.74096 0.4344 0.13436 0.0
C14 C 0.74249 0.49394 0.4069 0.0
C15 C 0.74692 0.49485 0.48564 0.0
C16 C 0.76902 0.50201 0.5132 0.0
C17 C 0.78727 0.50847 0.46258 0.0
C18 C 0.78204 0.50945 0.38398 0.0
C19 C 0.75994 0.50219 0.3565 0.0
C20 C 0.69574 0.48844 0.31478 0.0
C21 C 0.67278 0.47923 0.32016 0.0
C22 C 0.65532 0.48578 0.2678 0.0
C23 C 0.6604 0.50157 0.20786 0.0
C24 C 0.6833 0.51136 0.20386 0.0
C25 C 0.7008 0.50482 0.25674 0.0
C26 C 0.73431 0.45299 0.31721 0.0
C27 C 0.75391 0.44179 0.35 0.0
C28 C 0.76967 0.42912 0.30463 0.0
C29 C 0.76588 0.42706 0.22556 0.0
C30 C 0.74481 0.43621 0.19456 0.0
C31 C 0.72924 0.44925 0.2399 0.0
P32 P 0.02923 0.72016 0.37376 0.0
H33 H 0.0338 0.74048 0.52519 0.0
H34 H 0.02238 0.77834 0.57575 0.0
H35 H 0.97675 0.78956 0.38082 0.0
H36 H 0.99005 0.75204 0.32776 0.0
H37 H 0.02141 0.66908 0.38659 0.0
H38 H 0.00991 0.63965 0.29283 0.0
H39 H 0.99017 0.69537 0.1363 0.0
H40 H 1.00243 0.72481 0.23003 0.0
H41 H 0.05305 0.76599 0.38724 0.0
H42 H 0.05362 0.70742 0.2301 0.0
O43 O 0.04464 0.70494 0.43855 0.0
H44 H 0.07462 0.78976 0.29699 0.0
H45 H 0.07619 0.7312 0.13905 0.0
C46 C 0.01265 0.74304 0.4228 0.0
C47 C 0.02072 0.75065 0.49429 0.0
C48 C 0.01408 0.77267 0.5234 0.0
C49 C 0.99871 0.78772 0.48258 0.0
C50 C 0.98915 0.7791 0.41352 0.0
C51 C 0.99632 0.75721 0.38352 0.0
C52 C 0.01286 0.69929 0.31572 0.0
C53 C 0.01396 0.67507 0.33308 0.0
C54 C 0.0073 0.65813 0.27907 0.0
C55 C 0.99941 0.66501 0.20614 0.0
C56 C 0.99656 0.68935 0.19124 0.0
C57 C 1.00319 0.70629 0.24547 0.0
C58 C 0.0503 0.73536 0.31373 0.0
C59 C 0.05801 0.75804 0.33359 0.0
C60 C 0.07089 0.77161 0.28193 0.0
C61 C 0.07679 0.76264 0.20961 0.0
C62 C 0.07136 0.73891 0.19334 0.0
C63 C 0.05832 0.72532 0.2453 0.0
P64 P 0.7831 0.03022 0.35662 0.0
H65 H 0.77191 1.00535 0.49983 0.0
H66 H 0.73427 0.9928 0.55438 0.0
H67 H 0.70013 0.00691 0.33826 0.0
H68 H 0.73801 0.01789 0.28345 0.0
H69 H 0.83395 0.03595 0.3456 0.0
H70 H 0.86287 0.02451 0.24998 0.0
H71 H 0.80943 0.98423 0.13224 0.0
H72 H 0.78031 0.9958 0.22958 0.0
H73 H 0.75707 0.07092 0.41218 0.0
H74 H 0.77966 0.04388 0.19411 0.0
O75 O 0.79682 0.04023 0.43435 0.0
H76 H 0.72935 0.09735 0.34772 0.0
H77 H 0.75169 0.06943 0.13004 0.0
C78 C 0.75787 0.01287 0.38765 0.0
C79 C 0.75647 1.00494 0.46344 0.0
C80 C 0.73471 0.99816 0.49506 0.0
C81 C 0.71372 0.99944 0.45185 0.0
C82 C 0.71566 0.00554 0.37396 0.0
C83 C 0.7375 0.01192 0.34217 0.0
C84 C 0.80499 0.01642 0.29574 0.0
C85 C 0.82852 0.02403 0.30073 0.0
C86 C 0.84513 0.01749 0.24564 0.0
C87 C 0.83856 1.00345 0.18313 0.0
C88 C 0.81508 0.99517 0.1794 0.0
C89 C 0.79847 1.00152 0.23546 0.0
C90 C 0.77038 0.05529 0.30825 0.0
C91 C 0.75675 0.07129 0.35039 0.0
C92 C 0.74075 0.08624 0.31348 0.0
C93 C 0.73796 0.08519 0.23381 0.0
C94 C 0.75342 0.07086 0.19138 0.0
C95 C 0.76944 0.056 0.22833 0.0
P96 P 0.4654 0.78801 0.38208 0.0
H97 H 0.47553 0.77345 0.53944 0.0
H98 H 0.4883 0.73552 0.59138 0.0
H99 H 0.5066 0.71217 0.36451 0.0
H100 H 0.49421 0.75045 0.31311 0.0
H101 H 0.4474 0.83429 0.34733 0.0
H102 H 0.46026 0.86532 0.26223 0.0
H103 H 0.52653 0.82858 0.22784 0.0
H104 H 0.51239 0.79646 0.3103 0.0
H105 H 0.43247 0.74901 0.39603 0.0
H106 H 0.45882 0.79384 0.21527 0.0
O107 O 0.44764 0.79814 0.45069 0.0
H108 H 0.41464 0.72305 0.30159 0.0
H109 H 0.44014 0.76871 0.12116 0.0
C110 C 0.48378 0.76486 0.42219 0.0
C111 C 0.48308 0.76055 0.50102 0.0
C112 C 0.49009 0.73862 0.53064 0.0
C113 C 0.49791 0.72046 0.48202 0.0
C114 C 0.50068 0.72565 0.40382 0.0
C115 C 0.49371 0.74767 0.37426 0.0
C116 C 0.47908 0.81325 0.33656 0.0
C117 C 0.46499 0.83318 0.32323 0.0
C118 C 0.47252 0.85112 0.27414 0.0
C119 C 0.49463 0.84986 0.23733 0.0
C120 C 0.50924 0.8302 0.2537 0.0
C121 C 0.50139 0.81192 0.30205 0.0
C122 C 0.44715 0.77325 0.31305 0.0
C123 C 0.4337 0.75373 0.3362 0.0
C124 C 0.42337 0.73898 0.282 0.0
C125 C 0.4262 0.74364 0.2036 0.0
C126 C 0.43802 0.76436 0.18102 0.0
C127 C 0.44863 0.7789 0.23519 0.0
P128 P 0.27379 0.45798 0.13632 0.0
H129 H 0.25556 0.43456 0.99953 0.0
H130 H 0.2215 0.4435 0.9196 0.0
H131 H 0.21671 0.51277 0.02093 0.0
H132 H 0.25123 0.50377 0.10029 0.0
H133 H 0.31869 0.43264 0.12293 0.0
H134 H 0.35688 0.44069 0.18002 0.0
H135 H 0.33439 0.51195 0.23016 0.0
H136 H 0.29654 0.50408 0.16795 0.0
H137 H 0.22374 0.45828 0.17503 0.0
H138 H 0.28923 0.47368 0.29101 0.0
O139 O 0.2736 0.42849 0.13448 0.0
H140 H 0.20178 0.47548 0.2811 0.0
H141 H 0.26722 0.49223 0.39464 0.0
C142 C 0.25597 0.46838 0.0567 0.0
C143 C 0.24779 0.452 1.00293 0.0
C144 C 0.22799 0.45704 0.95775 0.0
C145 C 0.21584 0.47863 0.96514 0.0
C146 C 0.22551 0.49593 0.01364 0.0
C147 C 0.24542 0.49087 0.05884 0.0
C148 C 0.30437 0.46752 0.14311 0.0
C149 C 0.3222 0.45032 0.14336 0.0
C150 C 0.34405 0.45487 0.17747 0.0
C151 C 0.34847 0.47662 0.21359 0.0
C152 C 0.3317 0.49486 0.20406 0.0
C153 C 0.30996 0.49043 0.1679 0.0
C154 C 0.2582 0.46621 0.22213 0.0
C155 C 0.23345 0.46537 0.22298 0.0
C156 C 0.2209 0.47501 0.28382 0.0
C157 C 0.23295 0.48556 0.34479 0.0
C158 C 0.25766 0.48458 0.34723 0.0
C159 C 0.27021 0.47437 0.28711 0.0
P160 P 0.04696 0.28629 0.05981 0.0
H161 H 0.03329 0.2757 0.90195 0.0
H162 H 0.02029 0.23872 0.8454 0.0
H163 H 0.00579 0.21091 0.07056 0.0
H164 H 0.0176 0.24851 0.12612 0.0
H165 H 0.0725 0.31218 0.17532 0.0
H166 H 0.0622 0.34292 0.26461 0.0
H167 H 0.99076 0.3434 0.17681 0.0
H168 H 1.00113 0.31078 0.09068 0.0
H169 H 0.08352 0.25571 0.99782 0.0
H170 H 0.05354 0.27115 0.21851 0.0
O171 O 0.06089 0.3006 0.98959 0.0
H172 H 0.10027 0.21907 0.04912 0.0
H173 H 0.07085 0.23547 0.27005 0.0
C174 C 0.02649 0.26512 0.01865 0.0
C175 C 0.02628 0.2621 0.93916 0.0
C176 C 0.01931 0.24056 0.90678 0.0
C177 C 0.01267 0.22125 0.95312 0.0
C178 C 0.01073 0.22515 0.0324 0.0
C179 C 0.01736 0.24688 0.06459 0.0
C180 C 0.03741 0.30845 0.12808 0.0
C181 C 0.05442 0.31845 0.1763 0.0
C182 C 0.04854 0.33658 0.2267 0.0
C183 C 0.02559 0.34619 0.22842 0.0
C184 C 0.00854 0.33638 0.17868 0.0
C185 C 0.01441 0.3177 0.12899 0.0
C186 C 0.06768 0.26651 0.10454 0.0
C187 C 0.08175 0.25202 0.05824 0.0
C188 C 0.09121 0.23103 0.08741 0.0
C189 C 0.08689 0.22448 0.16352 0.0
C190 C 0.0749 0.24027 0.21158 0.0
C191 C 0.06503 0.26089 0.18204 0.0
P192 P 0.21935 0.0545 0.07499 0.0
H193 H 0.23589 0.05816 0.91698 0.0
H194 H 0.2731 0.04638 0.85817 0.0
H195 H 0.28919 1.00302 0.05402 0.0
H196 H 0.25214 0.01549 0.11434 0.0
H197 H 0.16903 0.06548 0.0804 0.0
H198 H 0.13796 0.05389 0.16814 0.0
H199 H 0.18358 1.00011 0.26304 0.0
H200 H 0.21503 0.01231 0.1754 0.0
H201 H 0.265 0.07799 0.07051 0.0
H202 H 0.21176 0.06321 0.24067 0.0
O203 O 0.20873 0.07589 0.01888 0.0
H204 H 0.2933 0.08652 0.17027 0.0
H205 H 0.23995 0.07231 0.34113 0.0
C206 C 0.24075 0.03751 0.02009 0.0
C207 C 0.24685 0.04541 0.94654 0.0
C208 C 0.26836 0.03887 0.91302 0.0
C209 C 0.28422 0.02396 0.95171 0.0
C210 C 0.27728 0.01442 0.02254 0.0
C211 C 0.25585 0.02131 0.05672 0.0
C212 C 0.19448 0.03964 0.12006 0.0
C213 C 0.17223 0.05062 0.11804 0.0
C214 C 0.15432 0.04397 0.16885 0.0
C215 C 0.15817 0.02618 0.22373 0.0
C216 C 0.18002 0.01414 0.22251 0.0
C217 C 0.19797 0.02081 0.17125 0.0
C218 C 0.23669 0.06858 0.14798 0.0
C219 C 0.25919 0.07715 0.12935 0.0
C220 C 0.27534 0.08235 0.1868 0.0
C221 C 0.26909 0.07943 0.26398 0.0
C222 C 0.2455 0.074 0.2822 0.0
C223 C 0.22938 0.06863 0.22452 0.0
P224 P 0.47315 0.23636 0.16874 0.0
H225 H 0.44601 0.24867 0.03226 0.0
H226 H 0.45185 0.2804 0.93934 0.0
H227 H 0.52341 0.2894 0.01952 0.0
H228 H 0.51778 0.25724 0.1094 0.0
H229 H 0.43875 0.20733 0.24717 0.0
H230 H 0.44071 0.16801 0.29948 0.0
H231 H 0.50526 0.1552 0.17425 0.0
H232 H 0.50316 0.19549 0.12153 0.0
H233 H 0.46992 0.27352 0.28328 0.0
H234 H 0.52123 0.22157 0.21243 0.0
O235 O 0.44662 0.24745 0.19024 0.0
H236 H 0.49843 0.28994 0.37202 0.0
H237 H 0.54988 0.23792 0.3019 0.0
C238 C 0.48123 0.25065 0.07938 0.0
C239 C 0.4633 0.25677 0.0277 0.0
C240 C 0.46655 0.2753 0.9753 0.0
C241 C 0.48787 0.28818 0.97335 0.0
C242 C 0.50668 0.28015 0.01921 0.0
C243 C 0.50342 0.26155 0.0713 0.0
C244 C 0.47076 0.20458 0.17984 0.0
C245 C 0.45293 0.19594 0.2281 0.0
C246 C 0.45409 0.17316 0.25849 0.0
C247 C 0.47327 0.15822 0.242 0.0
C248 C 0.49039 0.16628 0.1893 0.0
C249 C 0.48909 0.18925 0.15832 0.0
C250 C 0.49326 0.24612 0.24169 0.0
C251 C 0.48709 0.26522 0.28808 0.0
C252 C 0.50341 0.27451 0.3393 0.0
C253 C 0.52634 0.26504 0.34445 0.0
C254 C 0.53231 0.24548 0.29936 0.0
C255 C 0.51584 0.23604 0.24855 0.0
Tb256 Tb 0.01205 0.99841 0.77452 0.0
Tb257 Tb 0.986 0.01388 0.63731 0.0
C258 C 0.02642 0.9781 0.8936 0.0
C259 C 0.03685 0.95474 0.90891 0.0
C260 C 0.03075 0.93513 0.86427 0.0
C261 C 0.04073 0.91307 0.87881 0.0
C262 C 0.05695 0.91009 0.93869 0.0
C263 C 0.06346 0.92985 0.98239 0.0
C264 C 0.05348 0.95202 0.96749 0.0
C265 C 0.0393 0.01043 0.65706 0.0
C266 C 0.99313 0.95967 0.65543 0.0
C267 C 0.97677 0.03405 0.5132 0.0
C268 C 0.99108 0.05087 0.46786 0.0
C269 C 0.01064 0.04295 0.4253 0.0
C270 C 0.02605 0.05904 0.39109 0.0
C271 C 0.02202 0.08343 0.39743 0.0
C272 C 1.0018 0.09131 0.43669 0.0
C273 C 0.98653 0.07521 0.47168 0.0
C274 C 0.95835 1.00171 0.75291 0.0
C275 C 1.00467 0.05179 0.75648 0.0
O276 O 1.00428 0.97828 0.87196 0.0
O277 O 0.03945 0.99243 0.85292 0.0
O278 O 0.02013 0.99929 0.6549 0.0
O279 O 0.04464 0.01403 0.72778 0.0
O280 O 1.00119 0.96437 0.72461 0.0
O281 O 0.98778 0.97672 0.60698 0.0
O282 O 0.9852 0.01262 0.51818 0.0
O283 O 0.96888 0.04159 0.57901 0.0
O284 O 0.97765 0.01269 0.75656 0.0
O285 O 0.95275 0.9993 0.68162 0.0
O286 O 1.00227 0.04663 0.683 0.0
O287 O 1.00494 0.03463 0.8077 0.0
H288 H 0.01809 0.93667 0.81858 0.0
H289 H 0.03556 0.89828 0.84352 0.0
H290 H 0.07571 0.92806 0.0295 0.0
H291 H 0.05854 0.96698 1.00224 0.0
H292 H 0.01451 0.0243 0.42008 0.0
H293 H 0.04147 0.05234 0.36156 0.0
H294 H 0.99782 0.10998 0.44089 0.0
H295 H 0.97146 0.08183 0.50327 0.0
Tb296 Tb 0.50725 0.01713 0.78681 0.0
Tb297 Tb 0.49378 0.98478 0.66357 0.0
C298 C 0.5258 0.03689 0.90004 0.0
C299 C 0.54778 0.04979 0.91708 0.0
C300 C 0.57004 0.03924 0.90759 0.0
C301 C 0.59049 0.05124 0.92936 0.0
C302 C 0.58916 0.07412 0.96046 0.0
C303 C 0.56688 0.08496 0.96694 0.0
C304 C 0.54641 0.07286 0.94584 0.0
C305 C 0.49318 0.03837 0.6601 0.0
C306 C 0.54753 0.99574 0.67607 0.0
C307 C 0.47316 0.97054 0.54675 0.0
C308 C 0.45224 0.98156 0.51075 0.0
C309 C 0.4548 1.00232 0.46704 0.0
C310 C 0.43516 0.01595 0.44802 0.0
C311 C 0.41246 0.00898 0.47123 0.0
C312 C 0.4097 0.98746 0.5106 0.0
C313 C 0.42941 0.97386 0.53009 0.0
C314 C 0.50716 0.96262 0.78894 0.0
C315 C 0.45427 0.00622 0.77327 0.0
O316 O 0.52759 0.01422 0.88612 0.0
O317 O 0.51102 0.04749 0.85399 0.0
O318 O 0.50595 0.02025 0.66515 0.0
O319 O 0.48897 0.04615 0.72807 0.0
O320 O 0.54211 0.00881 0.73642 0.0
O321 O 0.5311 0.98483 0.63602 0.0
O322 O 0.49249 0.98319 0.54448 0.0
O323 O 0.46974 0.96104 0.61419 0.0
O324 O 0.49513 0.98141 0.7855 0.0
O325 O 0.51009 0.9546 0.72028 0.0
O326 O 0.4597 0.99962 0.70295 0.0
O327 O 0.47116 0.01051 0.82315 0.0
H328 H 0.57169 0.02151 0.88514 0.0
H329 H 0.60725 0.04213 0.92458 0.0
H330 H 0.5652 0.10267 0.9895 0.0
H331 H 0.52943 0.08139 0.95322 0.0
H332 H 0.47211 0.0088 0.45084 0.0
H333 H 0.43793 0.03247 0.41794 0.0
H334 H 0.39235 0.98133 0.52766 0.0
H335 H 0.42684 0.95792 0.56344 0.0
Tb336 Tb 0.48723 0.50809 0.7723 0.0
Tb337 Tb 0.52045 0.49681 0.65192 0.0
C338 C 0.46524 0.52543 0.88366 0.0
C339 C 0.45501 0.54855 0.9024 0.0
C340 C 0.46722 0.56955 0.8864 0.0
C341 C 0.45714 0.59136 0.90392 0.0
C342 C 0.43471 0.59255 0.93829 0.0
C343 C 0.42244 0.57149 0.95378 0.0
C344 C 0.43251 0.54966 0.93573 0.0
C345 C 0.46697 0.49354 0.64467 0.0
C346 C 0.50567 0.54935 0.66147 0.0
C347 C 0.54269 0.47864 0.54252 0.0
C348 C 0.55249 0.45488 0.53054 0.0
C349 C 0.53993 0.43489 0.55498 0.0
C350 C 0.54997 0.41253 0.54956 0.0
C351 C 0.5726 0.40962 0.51821 0.0
C352 C 0.58503 0.4295 0.49187 0.0
C353 C 0.57512 0.45208 0.49887 0.0
C354 C 0.54064 0.51129 0.77975 0.0
C355 C 0.50173 0.4556 0.76407 0.0
O356 O 0.48831 0.5242 0.87971 0.0
O357 O 0.45498 0.51416 0.82794 0.0
O358 O 0.48432 0.50743 0.64956 0.0
O359 O 0.46014 0.48789 0.71274 0.0
O360 O 0.49674 0.54358 0.72898 0.0
O361 O 0.51349 0.53284 0.61478 0.0
O362 O 0.51962 0.48027 0.54511 0.0
O363 O 0.55279 0.49077 0.59662 0.0
O364 O 0.52335 0.49735 0.77427 0.0
O365 O 0.54743 0.51714 0.71178 0.0
O366 O 0.51111 0.46122 0.69696 0.0
O367 O 0.49379 0.47223 0.80982 0.0
H368 H 0.48469 0.56911 0.86132 0.0
H369 H 0.46723 0.60725 0.89267 0.0
H370 H 0.40511 0.5719 0.98002 0.0
H371 H 0.42277 0.53362 0.94816 0.0
H372 H 0.5223 0.43648 0.5782 0.0
H373 H 0.53973 0.39737 0.56807 0.0
H374 H 0.60235 0.42756 0.46628 0.0
H375 H 0.58509 0.46733 0.47978 0.0
Tb376 Tb 0.99339 0.49061 0.77587 0.0
Tb377 Tb 0.0103 0.52087 0.65351 0.0
C378 C 0.9824 0.46971 0.89769 0.0
C379 C 0.96087 0.45762 0.92337 0.0
C380 C 0.93912 0.46253 0.88856 0.0
C381 C 0.91862 0.45126 0.91358 0.0
C382 C 0.91948 0.43465 0.97349 0.0
C383 C 0.94148 0.42936 0.00694 0.0
C384 C 0.96201 0.44079 0.98205 0.0
C385 C 0.99541 0.46891 0.64239 0.0
C386 C 0.95509 0.51118 0.66875 0.0
C387 C 0.02273 0.54349 0.53714 0.0
C388 C 0.04554 0.5551 0.52291 0.0
C389 C 0.05716 0.55137 0.45342 0.0
C390 C 0.08134 0.55586 0.44713 0.0
C391 C 0.09421 0.56394 0.51059 0.0
C392 C 0.08205 0.56994 0.57752 0.0
C393 C 0.05788 0.5656 0.58361 0.0
C394 C 0.00857 0.54193 0.78826 0.0
C395 C 0.04896 0.49942 0.7573 0.0
O396 O 0.98061 0.49258 0.88793 0.0
O397 O 0.99359 0.45953 0.84151 0.0
O398 O 0.01045 0.4834 0.66801 0.0
O399 O 0.97929 0.46552 0.69361 0.0
O400 O 0.95896 0.50316 0.73842 0.0
O401 O 0.97291 0.51647 0.62287 0.0
O402 O 0.02399 0.52045 0.54232 0.0
O403 O 0.00967 0.5526 0.59117 0.0
O404 O 0.99321 0.52809 0.76135 0.0
O405 O 0.02508 0.54468 0.73824 0.0
O406 O 0.04486 0.50801 0.6885 0.0
O407 O 0.03124 0.49398 0.80354 0.0
H408 H 0.93792 0.47533 0.84272 0.0
H409 H 0.90199 0.45613 0.88737 0.0
H410 H 0.94281 0.41649 0.05258 0.0
H411 H 0.97874 0.4366 0.00888 0.0
H412 H 0.048 0.54315 0.40618 0.0
H413 H 0.0903 0.55086 0.39497 0.0
H414 H 0.09152 0.57636 0.62696 0.0
H415 H 0.04934 0.56878 0.63785 0.0
H416 H 0.1095 0.02634 0.21293 0.0
H417 H 0.16601 0.0166 0.37549 0.0
H418 H 0.08063 0.0233 0.31589 0.0
H419 H 0.13714 0.01244 0.47764 0.0
H420 H 0.08203 0.03274 0.65578 0.0
H421 H 0.11015 0.03594 0.55046 0.0
H422 H 0.06246 0.99677 0.40596 0.0
H423 H 0.03427 0.99393 0.51137 0.0
C424 C 0.11582 0.02337 0.27046 0.0
C425 C 0.14024 0.02179 0.2854 0.0
C426 C 0.09918 0.0214 0.32961 0.0
C427 C 0.10644 0.01776 0.40559 0.0
C428 C 0.13081 0.01562 0.42023 0.0
C429 C 0.14744 0.01762 0.36116 0.0
C430 C 0.07755 0.02488 0.60141 0.0
C431 C 0.05593 0.0131 0.59191 0.0
C432 C 0.09375 0.02656 0.54103 0.0
C433 C 0.08879 0.01645 0.46942 0.0
C434 C 0.06691 1.00496 0.45981 0.0
C435 C 0.05073 1.00327 0.52034 0.0
H436 H 0.51438 0.13841 0.29701 0.0
H437 H 0.43893 0.12693 0.28975 0.0
H438 H 0.51832 0.10599 0.38844 0.0
H439 H 0.44292 0.0952 0.38341 0.0
H440 H 0.46032 0.07265 0.63763 0.0
H441 H 0.455 0.09778 0.52516 0.0
H442 H 0.51143 0.06076 0.41069 0.0
H443 H 0.51638 0.03516 0.52309 0.0
C444 C 0.49868 0.12869 0.31323 0.0
C445 C 0.47627 0.13569 0.2864 0.0
C446 C 0.50096 0.11013 0.36609 0.0
C447 C 0.48089 0.09827 0.39402 0.0
C448 C 0.45868 0.10428 0.36397 0.0
C449 C 0.45642 0.12256 0.31039 0.0
C450 C 0.47139 0.06969 0.58809 0.0
C451 C 0.48885 0.05208 0.58927 0.0
C452 C 0.46827 0.08399 0.52353 0.0
C453 C 0.48285 0.08132 0.45908 0.0
C454 C 0.50003 0.06333 0.45963 0.0
C455 C 0.50281 0.04865 0.52379 0.0
H456 H 0.36671 0.4426 0.30832 0.0
H457 H 0.37593 0.51602 0.24653 0.0
H458 H 0.39716 0.44624 0.40408 0.0
H459 H 0.40586 0.51994 0.3465 0.0
H460 H 0.47238 0.51291 0.50106 0.0
H461 H 0.44562 0.50889 0.39152 0.0
H462 H 0.40022 0.4638 0.5265 0.0
H463 H 0.42699 0.46743 0.63405 0.0
C464 C 0.37542 0.45952 0.31403 0.0
C465 C 0.36872 0.47898 0.26853 0.0
C466 C 0.39274 0.46169 0.37038 0.0
C467 C 0.40386 0.48346 0.38418 0.0
C468 C 0.39777 0.50285 0.33746 0.0
C469 C 0.38039 0.50065 0.28051 0.0
C470 C 0.45676 0.50199 0.50675 0.0
C471 C 0.45183 0.49043 0.57616 0.0
C472 C 0.44132 0.49983 0.44423 0.0
C473 C 0.42071 0.48593 0.44969 0.0
C474 C 0.41606 0.4743 0.51926 0.0
C475 C 0.43139 0.47648 0.58135 0.0
H476 H 0.05499 0.38182 0.27922 0.0
H477 H 0.98312 0.3568 0.29967 0.0
H478 H 0.04749 0.41118 0.37561 0.0
H479 H 0.97483 0.38802 0.39034 0.0
H480 H 0.97252 0.42764 0.61479 0.0
H481 H 0.97911 0.39953 0.51306 0.0
H482 H 0.03207 0.44588 0.41587 0.0
H483 H 0.02654 0.4731 0.52212 0.0
C484 C 0.03748 0.38251 0.3039 0.0
C485 C 0.0199 0.3662 0.28206 0.0
C486 C 0.03298 0.39993 0.35868 0.0
C487 C 0.01052 0.40223 0.39252 0.0
C488 C 0.99259 0.38666 0.36793 0.0
C489 C 0.99725 0.36884 0.31427 0.0
C490 C 0.9856 0.43183 0.57167 0.0
C491 C 0.99906 0.45263 0.57683 0.0
C492 C 0.98925 0.41572 0.51231 0.0
C493 C 0.00614 0.4201 0.45477 0.0
C494 C 0.01923 0.44134 0.45927 0.0
C495 C 0.01593 0.45722 0.51995 0.0
H496 H 0.83083 0.00562 0.02877 0.0
H497 H 0.88561 0.99201 0.19436 0.0
H498 H 0.85987 1.00319 0.92633 0.0
H499 H 0.91466 0.98918 0.09195 0.0
H500 H 0.96397 0.01578 0.90095 0.0
H501 H 0.9351 0.01388 1.00431 0.0
H502 H 0.8858 0.97901 0.85395 0.0
H503 H 0.91452 0.98163 0.75016 0.0
C504 C 0.849 1.0016 0.04326 0.0
C505 C 0.85584 0.99911 0.12001 0.0
C506 C 0.86573 1.00021 0.98435 0.0
C507 C 0.8898 0.99617 1.00043 0.0
C508 C 0.89645 0.99284 0.07713 0.0
C509 C 0.87974 0.99435 0.13601 0.0
C510 C 0.947 0.0076 0.89019 0.0
C511 C 0.94147 0.999 0.81726 0.0
C512 C 0.93044 0.00636 0.94965 0.0
C513 C 0.90793 0.99634 0.93789 0.0
C514 C 0.90271 0.98722 0.86513 0.0
C515 C 0.91924 0.98857 0.80562 0.0
H516 H 0.52234 0.84448 0.1083 0.0
H517 H 0.48212 0.89709 0.23093 0.0
H518 H 0.52953 0.87271 0.00717 0.0
H519 H 0.48669 0.92423 0.1257 0.0
H520 H 0.50464 0.9756 0.93939 0.0
H521 H 0.50636 0.95002 0.05141 0.0
H522 H 0.51283 0.88914 0.90376 0.0
H523 H 0.51329 0.91501 0.79361 0.0
C524 C 0.51503 0.86204 0.11431 0.0
C525 C 0.50122 0.86806 0.17826 0.0
C526 C 0.51872 0.87825 0.05481 0.0
C527 C 0.50822 0.90087 0.056 0.0
C528 C 0.49528 0.90721 0.12154 0.0
C529 C 0.49218 0.89125 0.18197 0.0
C530 C 0.50686 0.95677 0.9314 0.0
C531 C 0.50894 0.94736 0.85772 0.0
C532 C 0.50755 0.94193 0.99572 0.0
C533 C 0.5096 0.91716 0.98795 0.0
C534 C 0.51182 0.90797 0.91357 0.0
C535 C 0.51183 0.92286 0.8497 0.0
H536 H 0.66716 0.50569 0.05325 0.0
H537 H 0.61243 0.50791 0.22494 0.0
H538 H 0.63747 0.51013 0.95388 0.0
H539 H 0.58264 0.51231 0.12527 0.0
H540 H 0.53573 0.48979 0.91953 0.0
H541 H 0.56414 0.48954 0.02478 0.0
H542 H 0.60942 0.53682 0.89739 0.0
H543 H 0.58128 0.53663 0.79212 0.0
C544 C 0.64884 0.50757 0.07005 0.0
C545 C 0.6423 0.5064 0.14745 0.0
C546 C 0.63173 0.51008 0.01284 0.0
C547 C 0.60754 0.51151 0.03122 0.0
C548 C 0.60102 0.51087 0.10872 0.0
C549 C 0.61815 0.50838 0.16598 0.0
C550 C 0.55165 0.50031 0.91452 0.0
C551 C 0.55635 0.51308 0.84731 0.0
C552 C 0.56793 0.50025 0.97494 0.0
C553 C 0.58928 0.51298 0.96955 0.0
C554 C 0.59345 0.52642 0.90318 0.0
C555 C 0.57722 0.52646 0.84295 0.0
H556 H 0.98111 0.61973 0.21467 0.0
H557 H 0.01241 0.6693 0.05623 0.0
H558 H 0.98176 0.58923 0.11581 0.0
H559 H 0.01233 0.63923 0.95767 0.0
H560 H 0.04005 0.57422 0.83785 0.0
H561 H 0.03546 0.60342 0.93787 0.0
H562 H 0.96574 0.57653 0.9878 0.0
H563 H 0.97049 0.54681 0.88649 0.0
C564 C 0.98788 0.62425 0.15868 0.0
C565 C 0.9968 0.64708 0.1439 0.0
C566 C 0.98807 0.60678 0.10181 0.0
C567 C 0.99736 0.61164 0.02893 0.0
C568 C 0.00539 0.6347 0.01345 0.0
C569 C 1.00512 0.65212 0.06993 0.0
C570 C 0.02371 0.57441 0.87012 0.0
C571 C 0.00555 0.55829 0.85372 0.0
C572 C 0.02102 0.59133 0.92728 0.0
C573 C 1.00007 0.59267 0.97023 0.0
C574 C 0.9821 0.57602 0.95575 0.0
C575 C 0.98478 0.55902 0.89777 0.0
H576 H 0.07208 0.18551 0.08845 0.0
H577 H 0.10603 0.20773 0.29661 0.0
H578 H 0.06327 0.14749 0.14545 0.0
H579 H 0.09791 0.16913 0.35363 0.0
H580 H 0.03679 0.12517 0.45856 0.0
H581 H 0.06084 0.15539 0.39874 0.0
H582 H 0.07123 0.11032 0.2028 0.0
H583 H 0.0458 0.08054 0.26102 0.0
C584 C 0.07875 0.1818 0.14519 0.0
C585 C 0.08948 0.19964 0.18853 0.0
C586 C 0.07364 0.15993 0.17814 0.0
C587 C 0.07935 0.15543 0.25491 0.0
C588 C 0.09268 0.1723 0.29506 0.0
C589 C 0.09755 0.1943 0.26231 0.0
C590 C 0.04413 0.1217 0.4026 0.0
C591 C 0.03889 0.10067 0.36389 0.0
C592 C 0.05839 0.13887 0.36883 0.0
C593 C 0.068 0.13535 0.29569 0.0
C594 C 0.06389 0.11371 0.25879 0.0
C595 C 0.04943 0.09658 0.29242 0.0
H596 H 0.30947 0.10607 0.27888 0.0
H597 H 0.27193 0.04712 0.37918 0.0
H598 H 0.34527 0.09387 0.34608 0.0
H599 H 0.30733 0.03534 0.44658 0.0
H600 H 0.37527 0.01887 0.566 0.0
H601 H 0.34025 0.04252 0.53697 0.0
H602 H 0.36845 0.05783 0.31306 0.0
H603 H 0.40309 0.03403 0.3413 0.0
C604 C 0.30864 0.09097 0.31692 0.0
C605 C 0.28798 0.07729 0.32225 0.0
C606 C 0.32912 0.084 0.35532 0.0
C607 C 0.32917 0.06338 0.40016 0.0
C608 C 0.30783 0.05136 0.41261 0.0
C609 C 0.28743 0.05822 0.37395 0.0
C610 C 0.37394 0.02728 0.51055 0.0
C611 C 0.3918 0.02433 0.45552 0.0
C612 C 0.35403 0.04099 0.49434 0.0
C613 C 0.3517 0.05213 0.42301 0.0
C614 C 0.36997 0.0499 0.36918 0.0
C615 C 0.38977 0.03612 0.38518 0.0
H616 H 0.52203 0.28211 0.48891 0.0
H617 H 0.57127 0.27672 0.30152 0.0
H618 H 0.54583 0.31301 0.54498 0.0
H619 H 0.59592 0.30708 0.35943 0.0
H620 H 0.58634 0.38992 0.38474 0.0
H621 H 0.58635 0.34797 0.35719 0.0
H622 H 0.57883 0.33252 0.59792 0.0
H623 H 0.57784 0.37482 0.62453 0.0
C624 C 0.53846 0.28696 0.46126 0.0
C625 C 0.54441 0.27759 0.38982 0.0
C626 C 0.55237 0.30452 0.49387 0.0
C627 C 0.57258 0.31302 0.45568 0.0
C628 C 0.58017 0.30133 0.38935 0.0
C629 C 0.56614 0.28379 0.35647 0.0
C630 C 0.58575 0.37752 0.43195 0.0
C631 C 0.58152 0.38544 0.50635 0.0
C632 C 0.58584 0.35336 0.41638 0.0
C633 C 0.58184 0.33681 0.47524 0.0
C634 C 0.58124 0.34482 0.55109 0.0
C635 C 0.58079 0.369 0.56645 0.0
H636 H 0.19733 0.47093 0.43738 0.0
H637 H 0.23786 0.53233 0.37251 0.0
H638 H 0.16888 0.49622 0.50273 0.0
H639 H 0.20911 0.55784 0.43684 0.0
H640 H 0.12595 0.57779 0.40138 0.0
H641 H 0.16608 0.56263 0.38658 0.0
H642 H 0.16085 0.52789 0.60568 0.0
H643 H 0.12081 0.54301 0.62054 0.0
C644 C 0.20051 0.48979 0.43958 0.0
C645 C 0.21959 0.49979 0.4001 0.0
C646 C 0.18436 0.50427 0.47717 0.0
C647 C 0.18683 0.52898 0.47446 0.0
C648 C 0.2069 0.53885 0.43973 0.0
C649 C 0.22332 0.52429 0.40332 0.0
C650 C 0.13373 0.56766 0.44751 0.0
C651 C 0.1202 0.56131 0.51148 0.0
C652 C 0.15673 0.55912 0.43939 0.0
C653 C 0.16638 0.54389 0.49474 0.0
C654 C 0.15373 0.53953 0.56219 0.0
C655 C 0.13086 0.5483 0.57071 0.0
H656 H 0.06396 0.76279 0.05904 0.0
H657 H 0.10709 0.80048 0.22163 0.0
H658 H 0.066 0.7962 0.97247 0.0
H659 H 0.1075 0.83464 0.13745 0.0
H660 H 0.10184 0.89643 0.97964 0.0
H661 H 0.11445 0.85738 0.0243 0.0
H662 H 0.04354 0.83114 0.98948 0.0
H663 H 0.03125 0.86962 0.94473 0.0
C664 C 0.07452 0.77786 0.0756 0.0
C665 C 0.08466 0.77923 0.14868 0.0
C666 C 0.07539 0.79722 0.02619 0.0
C667 C 0.08603 0.81846 0.04935 0.0
C668 C 0.09887 0.8187 0.11796 0.0
C669 C 0.09838 0.79916 0.16682 0.0
C670 C 0.0891 0.88217 0.9809 0.0
C671 C 0.06554 0.88611 0.9589 0.0
C672 C 0.09632 0.85981 0.00618 0.0
C673 C 0.08008 0.84103 0.01021 0.0
C674 C 0.05677 0.84491 0.98537 0.0
C675 C 0.04962 0.86711 0.96 0.0
H676 H 0.73387 0.10678 0.09329 0.0
H677 H 0.69311 0.0845 0.28931 0.0
H678 H 0.6973 0.1129 0.02174 0.0
H679 H 0.65704 0.09039 0.21867 0.0
H680 H 0.59286 0.10087 0.08998 0.0
H681 H 0.62878 0.11373 0.15303 0.0
H682 H 0.67031 0.08467 0.96876 0.0
H683 H 0.63432 0.07326 0.90311 0.0
C684 C 0.71713 0.10374 0.12166 0.0
C685 C 0.71645 0.09493 0.19677 0.0
C686 C 0.6962 0.10717 0.08066 0.0
C687 C 0.67421 0.10183 0.114 0.0
C688 C 0.67355 0.09501 0.19119 0.0
C689 C 0.69438 0.09163 0.23203 0.0
C690 C 0.60957 0.09796 0.06139 0.0
C691 C 0.61068 0.08557 0.99202 0.0
C692 C 0.63022 0.10513 0.09811 0.0
C693 C 0.65248 0.09981 0.06688 0.0
C694 C 0.65351 0.08915 0.99457 0.0
C695 C 0.63284 0.08222 0.95742 0.0
H696 H 0.38733 0.71441 0.20031 0.0
H697 H 0.45192 0.73068 0.07918 0.0
H698 H 0.38237 0.67908 0.12201 0.0
H699 H 0.44686 0.69591 1.00145 0.0
H700 H 0.43423 0.63414 0.85835 0.0
H701 H 0.425 0.67337 0.9078 0.0
H702 H 0.40493 0.64221 0.1238 0.0
H703 H 0.41391 0.60316 0.07422 0.0
C704 C 0.40019 0.71073 0.15612 0.0
C705 C 0.42013 0.72527 0.14661 0.0
C706 C 0.39733 0.69055 0.11126 0.0
C707 C 0.41431 0.68459 0.05596 0.0
C708 C 0.43324 0.70011 0.04269 0.0
C709 C 0.43614 0.72017 0.08751 0.0
C710 C 0.42745 0.63571 0.91594 0.0
C711 C 0.42513 0.61566 0.96287 0.0
C712 C 0.42212 0.65812 0.94417 0.0
C713 C 0.4145 0.66092 0.01997 0.0
C714 C 0.4105 0.64068 0.06488 0.0
C715 C 0.41574 0.61827 0.03656 0.0
H716 H 0.79867 0.39188 0.2522 0.0
H717 H 0.77803 0.44439 0.08508 0.0
H718 H 0.83594 0.38619 0.18423 0.0
H719 H 0.81457 0.43796 0.01657 0.0
H720 H 0.88047 0.41998 0.89365 0.0
H721 H 0.8416 0.41026 0.94558 0.0
H722 H 0.86937 0.416 0.17411 0.0
H723 H 0.90793 0.42628 0.12279 0.0
C724 C 0.80177 0.40182 0.20025 0.0
C725 C 0.78542 0.41892 0.1751 0.0
C726 C 0.82306 0.39844 0.16123 0.0
C727 C 0.82821 0.41178 0.0956 0.0
C728 C 0.81099 0.42723 0.06658 0.0
C729 C 0.78991 0.43085 0.10601 0.0
C730 C 0.87834 0.41893 0.95498 0.0
C731 C 0.89723 0.42435 1.00405 0.0
C732 C 0.85614 0.4132 0.98458 0.0
C733 C 0.85245 0.41252 0.06379 0.0
C734 C 0.87175 0.41611 0.11276 0.0
C735 C 0.89389 0.42204 0.08324 0.0
H736 H 0.03697 0.20126 0.83303 0.0
H737 H 0.98243 0.18526 0.99798 0.0
H738 H 0.03427 0.16129 0.7834 0.0
H739 H 0.98024 0.145 0.94916 0.0
H740 H 1.00365 0.06828 0.90311 0.0
H741 H 1.00447 0.10903 0.94716 0.0
H742 H 0.00865 0.13342 0.71392 0.0
H743 H 0.00791 0.09242 0.6695 0.0
C744 C 0.02407 0.18946 0.85813 0.0
C745 C 0.00985 0.19688 0.9198 0.0
C746 C 0.02263 0.16635 0.82961 0.0
C747 C 0.00711 0.14974 0.86222 0.0
C748 C 0.99268 0.15715 0.92321 0.0
C749 C 0.99396 0.18034 0.95137 0.0
C750 C 1.00481 0.08226 0.86094 0.0
C751 C 0.00579 0.07691 0.78255 0.0
C752 C 1.00507 0.10574 0.88635 0.0
C753 C 0.0065 0.12467 0.8343 0.0
C754 C 0.0077 0.11935 0.75582 0.0
C755 C 0.00721 0.0958 0.73026 0.0
H756 H 0.31562 0.05809 0.91035 0.0
H757 H 0.30845 0.98238 0.92712 0.0
H758 H 0.35637 0.05342 0.86589 0.0
H759 H 0.34924 0.97768 0.8803 0.0
H760 H 0.41492 0.98651 0.70683 0.0
H761 H 0.3736 0.98982 0.7486 0.0
H762 H 0.39513 0.03503 0.93343 0.0
H763 H 0.43637 0.03125 0.8934 0.0
C764 C 0.32268 0.04042 0.90366 0.0
C765 C 0.30876 0.0206 0.92198 0.0
C766 C 0.34605 0.03777 0.87855 0.0
C767 C 0.356 0.0152 0.86942 0.0
C768 C 0.342 0.9953 0.88636 0.0
C769 C 0.31872 0.99798 0.9134 0.0
C770 C 0.41085 0.99712 0.75646 0.0
C771 C 0.42903 0.00858 0.79685 0.0
C772 C 0.3872 0.9989 0.78055 0.0
C773 C 0.38112 0.01265 0.84439 0.0
C774 C 0.39924 0.02435 0.88398 0.0
C775 C 0.42289 0.02213 0.86107 0.0
H776 H 0.45351 0.32194 0.95579 0.0
H777 H 0.52622 0.3075 0.89696 0.0
H778 H 0.45685 0.36102 0.89945 0.0
H779 H 0.52983 0.34726 0.84317 0.0
H780 H 0.52159 0.41577 0.69901 0.0
H781 H 0.51799 0.37471 0.74172 0.0
H782 H 0.4754 0.39758 0.93228 0.0
H783 H 0.47851 0.4382 0.88876 0.0
C784 C 0.47017 0.32688 0.92986 0.0
C785 C 0.48958 0.3113 0.93124 0.0
C786 C 0.47219 0.34958 0.89848 0.0
C787 C 0.49372 0.35759 0.86756 0.0
C788 C 0.51294 0.34177 0.86624 0.0
C789 C 0.51092 0.31898 0.8978 0.0
C790 C 0.51131 0.41201 0.74955 0.0
C791 C 0.50019 0.43042 0.78975 0.0
C792 C 0.50939 0.38843 0.77453 0.0
C793 C 0.49619 0.38264 0.84023 0.0
C794 C 0.4853 0.40115 0.88062 0.0
C795 C 0.48727 0.4246 0.85586 0.0
H796 H 0.18007 0.44636 0.95397 0.0
H797 H 0.19728 0.51847 0.89517 0.0
H798 H 0.14075 0.45152 0.90066 0.0
H799 H 0.15746 0.52378 0.84261 0.0
H800 H 0.09008 0.51536 0.69021 0.0
H801 H 0.13064 0.51083 0.73679 0.0
H802 H 0.1046 0.47284 0.93362 0.0
H803 H 0.06429 0.47724 0.88721 0.0
C804 C 0.1756 0.46329 0.92884 0.0
C805 C 0.19207 0.48194 0.92865 0.0
C806 C 0.15285 0.46634 0.89902 0.0
C807 C 0.14576 0.48812 0.86763 0.0
C808 C 0.16231 0.50671 0.86594 0.0
C809 C 0.18511 0.50372 0.89659 0.0
C810 C 0.09301 0.50597 0.74332 0.0
C811 C 0.07381 0.49656 0.78467 0.0
C812 C 0.11629 0.50352 0.77031 0.0
C813 C 0.121 0.49137 0.83891 0.0
C814 C 0.10176 0.48202 0.88008 0.0
C815 C 0.07854 0.48465 0.85356 0.0
H816 H 0.98795 0.82749 0.39635 0.0
H817 H 0.99953 0.80559 0.63 0.0
H818 H 0.98342 0.8678 0.43786 0.0
H819 H 0.99819 0.84622 0.67 0.0
H820 H 0.98171 0.92075 0.74078 0.0
H821 H 0.97971 0.87977 0.69987 0.0
H822 H 1.0015 0.90111 0.47287 0.0
H823 H 1.00139 0.94209 0.51323 0.0
C824 C 0.98952 0.83105 0.45672 0.0
C825 C 0.99434 0.81272 0.50916 0.0
C826 C 0.98748 0.8546 0.48064 0.0
C827 C 0.99086 0.86095 0.55767 0.0
C828 C 0.99517 0.84254 0.61031 0.0
C829 C 0.99649 0.81892 0.58674 0.0
C830 C 0.98585 0.91658 0.68198 0.0
C831 C 0.9916 0.93466 0.6302 0.0
C832 C 0.98495 0.89292 0.65829 0.0
C833 C 0.99054 0.88651 0.58249 0.0
C834 C 0.99642 0.90488 0.53106 0.0
C835 C 0.99659 0.92857 0.5543 0.0
H836 H 0.67261 0.98142 0.38942 0.0
H837 H 0.70018 0.01069 0.59865 0.0
H838 H 0.63341 0.98031 0.44522 0.0
H839 H 0.66142 0.00764 0.65659 0.0
H840 H 0.58446 0.02503 0.71271 0.0
H841 H 0.62438 0.02478 0.6608 0.0
H842 H 0.60743 0.96258 0.52914 0.0
H843 H 0.56723 0.9637 0.57811 0.0
C844 C 0.67048 0.98746 0.44755 0.0
C845 C 0.6899 0.99629 0.48882 0.0
C846 C 0.64786 0.98646 0.48029 0.0
C847 C 0.64388 0.99393 0.55591 0.0
C848 C 0.66343 1.00211 0.59789 0.0
C849 C 0.68597 1.00342 0.5648 0.0
C850 C 0.5893 0.01124 0.67291 0.0
C851 C 0.57252 0.99449 0.64931 0.0
C852 C 0.61235 0.01098 0.64326 0.0
C853 C 0.61945 0.99371 0.58999 0.0
C854 C 0.60273 0.97654 0.56835 0.0
C855 C 0.5796 0.97705 0.59706 0.0
H856 H 0.46987 0.69705 0.58451 0.0
H857 H 0.53203 0.6875 0.44502 0.0
H858 H 0.47274 0.6564 0.62807 0.0
H859 H 0.53514 0.64662 0.48954 0.0
H860 H 0.51764 0.56754 0.52111 0.0
H861 H 0.51687 0.6087 0.47963 0.0
H862 H 0.49434 0.62974 0.70503 0.0
H863 H 0.49446 0.58862 0.74551 0.0
C864 C 0.48448 0.68642 0.56418 0.0
C865 C 0.50083 0.69576 0.51157 0.0
C866 C 0.48612 0.66296 0.58925 0.0
C867 C 0.50422 0.64802 0.56276 0.0
C868 C 0.52074 0.6574 0.51054 0.0
C869 C 0.51903 0.68091 0.48513 0.0
C870 C 0.51255 0.58094 0.56192 0.0
C871 C 0.50597 0.57461 0.63673 0.0
C872 C 0.51226 0.60465 0.5382 0.0
C873 C 0.50547 0.62275 0.58869 0.0
C874 C 0.49926 0.61638 0.66386 0.0
C875 C 0.49944 0.59269 0.68739 0.0
H876 H 0.80227 0.52899 0.59704 0.0
H877 H 0.82875 0.49497 0.39381 0.0
H878 H 0.84245 0.53106 0.64733 0.0
H879 H 0.86875 0.49743 0.44352 0.0
H880 H 0.9405 0.52345 0.52485 0.0
H881 H 0.90032 0.52495 0.47522 0.0
H882 H 0.87331 0.50437 0.69612 0.0
H883 H 0.91355 0.5031 0.7462 0.0
C884 C 0.81659 0.522 0.56286 0.0
C885 C 0.81205 0.51185 0.49102 0.0
C886 C 0.83967 0.52318 0.59184 0.0
C887 C 0.85893 0.51439 0.54966 0.0
C888 C 0.85447 0.50472 0.47723 0.0
C889 C 0.83141 0.50341 0.44848 0.0
C890 C 0.92603 0.51936 0.56314 0.0
C891 C 0.93039 0.51309 0.63964 0.0
C892 C 0.90293 0.5201 0.53444 0.0
C893 C 0.88348 0.5147 0.58144 0.0
C894 C 0.8878 0.50887 0.65838 0.0
C895 C 0.91094 0.50801 0.68703 0.0
loop_
_geom_bond_atom_site_label_1
_geom_bond_atom_site_label_2
_geom_bond_distance
_geom_bond_site_symmetry_2
_ccdc_geom_bond_type
P0 O11 1.490 . S
P0 C14 1.812 . S
P0 C20 1.803 . S
P0 C26 1.819 . S
H1 C15 0.941 . S
H2 C16 0.939 . S
H3 C18 0.940 . S
H4 C19 0.940 . S
H5 C21 0.939 . S
H6 C22 0.942 . S
H7 C24 0.940 . S
H8 C25 0.939 . S
H9 C27 0.941 . S
H10 C31 0.939 . S
O11 P0 1.490 . S
H12 C28 0.939 . S
H13 C30 0.940 . S
C14 P0 1.812 . S
C14 C15 1.389 . S
C14 C19 1.391 . S
C15 H1 0.941 . S
C15 C14 1.389 . S
C15 C16 1.397 . S
C16 H2 0.939 . S
C16 C15 1.397 . S
C16 C17 1.378 . S
C17 C16 1.378 . S
C17 C18 1.378 . S
C18 H3 0.940 . S
C18 C17 1.378 . S
C18 C19 1.396 . S
C19 H4 0.940 . S
C19 C14 1.391 . S
C19 C18 1.396 . S
C20 P0 1.803 . S
C20 C21 1.378 . S
C20 C25 1.400 . S
C21 H5 0.939 . S
C21 C20 1.378 . S
C21 C22 1.361 . S
C22 H6 0.942 . S
C22 C21 1.361 . S
C22 C23 1.369 . S
C23 C22 1.369 . S
C23 C24 1.404 . S
C24 H7 0.940 . S
C24 C23 1.404 . S
C24 C25 1.389 . S
C25 H8 0.939 . S
C25 C20 1.400 . S
C25 C24 1.389 . S
C26 P0 1.819 . S
C26 C27 1.391 . S
C26 C31 1.391 . S
C27 H9 0.941 . S
C27 C26 1.391 . S
C27 C28 1.396 . S
C28 H12 0.939 . S
C28 C27 1.396 . S
C28 C29 1.397 . S
C29 C28 1.397 . S
C29 C30 1.385 . S
C30 H13 0.940 . S
C30 C29 1.385 . S
C30 C31 1.388 . S
C31 H10 0.939 . S
C31 C26 1.391 . S
C31 C30 1.388 . S
P32 O43 1.490 . S
P32 C46 1.812 . S
P32 C52 1.803 . S
P32 C58 1.819 . S
H33 C47 0.941 . S
H34 C48 0.939 . S
H35 C50 0.940 . S
H36 C51 0.950 . S
H37 C53 0.939 . S
H38 C54 0.942 . S
H39 C56 0.940 . S
H40 C57 0.959 . S
H41 C59 0.941 . S
H42 C63 0.929 1_655 S
O43 P32 1.490 . S
H44 C60 0.939 . S
H45 C62 0.940 . S
C46 P32 1.812 . S
C46 C47 1.389 . S
C46 C51 1.375 1_455 S
C47 H33 0.941 . S
C47 C46 1.389 . S
C47 C48 1.397 . S
C48 H34 0.939 . S
C48 C47 1.397 . S
C48 C49 1.378 . S
C49 C48 1.378 . S
C49 C50 1.378 1_455 S
C50 H35 0.940 . S
C50 C49 1.378 1_655 S
C50 C51 1.403 . S
C51 H36 0.950 . S
C51 C46 1.375 1_655 S
C51 C50 1.403 . S
C52 P32 1.803 . S
C52 C53 1.378 . S
C52 C57 1.368 1_455 S
C53 H37 0.939 . S
C53 C52 1.378 . S
C53 C54 1.361 . S
C54 H38 0.942 . S
C54 C53 1.361 . S
C54 C55 1.369 . S
C55 C54 1.369 . S
C55 C56 1.404 1_455 S
C56 H39 0.940 . S
C56 C55 1.404 1_655 S
C56 C57 1.402 . S
C57 H40 0.959 . S
C57 C52 1.368 1_655 S
C57 C56 1.402 . S
C58 P32 1.819 . S
C58 C59 1.391 . S
C58 C63 1.391 . S
C59 H41 0.941 . S
C59 C58 1.391 . S
C59 C60 1.396 . S
C60 H44 0.939 . S
C60 C59 1.396 . S
C60 C61 1.397 . S
C61 C60 1.397 . S
C61 C62 1.385 1_455 S
C62 H45 0.940 . S
C62 C61 1.385 1_655 S
C62 C63 1.388 1_655 S
C63 H42 0.929 1_455 S
C63 C58 1.391 . S
C63 C62 1.388 1_455 S
P64 O75 1.490 . S
P64 C78 1.812 . S
P64 C84 1.803 . S
P64 C90 1.819 . S
H65 C79 0.941 . S
H66 C80 0.939 . S
H67 C82 0.940 . S
H68 C83 0.950 . S
H69 C85 0.939 . S
H70 C86 0.942 . S
H71 C88 0.940 . S
H72 C89 0.959 . S
H73 C91 0.941 . S
H74 C95 0.929 1_565 S
O75 P64 1.490 . S
H76 C92 0.939 . S
H77 C94 0.940 . S
C78 P64 1.812 . S
C78 C79 1.389 . S
C78 C83 1.375 1_545 S
C79 H65 0.941 . S
C79 C78 1.389 . S
C79 C80 1.397 . S
C80 H66 0.939 . S
C80 C79 1.397 . S
C80 C81 1.378 . S
C81 C80 1.378 . S
C81 C82 1.378 1_545 S
C82 H67 0.940 . S
C82 C81 1.378 1_565 S
C82 C83 1.402 . S
C83 H68 0.950 . S
C83 C78 1.375 1_565 S
C83 C82 1.402 . S
C84 P64 1.803 . S
C84 C85 1.378 . S
C84 C89 1.368 1_545 S
C85 H69 0.939 . S
C85 C84 1.378 . S
C85 C86 1.361 . S
C86 H70 0.942 . S
C86 C85 1.361 . S
C86 C87 1.369 . S
C87 C86 1.369 . S
C87 C88 1.404 1_545 S
C88 H71 0.940 . S
C88 C87 1.404 1_565 S
C88 C89 1.402 . S
C89 H72 0.959 . S
C89 C84 1.368 1_565 S
C89 C88 1.402 . S
C90 P64 1.819 . S
C90 C91 1.391 . S
C90 C95 1.391 . S
C91 H73 0.941 . S
C91 C90 1.391 . S
C91 C92 1.396 . S
C92 H76 0.939 . S
C92 C91 1.396 . S
C92 C93 1.397 . S
C93 C92 1.397 . S
C93 C94 1.385 1_545 S
C94 H77 0.940 . S
C94 C93 1.385 1_565 S
C94 C95 1.388 1_565 S
C95 H74 0.929 1_545 S
C95 C90 1.391 . S
C95 C94 1.388 1_545 S
P96 O107 1.490 . S
P96 C110 1.812 . S
P96 C116 1.803 . S
P96 C122 1.819 . S
H97 C111 0.941 . S
H98 C112 0.939 . S
H99 C114 0.940 . S
H100 C115 0.940 . S
H101 C117 0.939 . S
H102 C118 0.942 . S
H103 C120 0.940 . S
H104 C121 0.939 . S
H105 C123 0.941 . S
H106 C127 0.939 . S
O107 P96 1.490 . S
H108 C124 0.939 . S
H109 C126 0.940 . S
C110 P96 1.812 . S
C110 C111 1.389 . S
C110 C115 1.391 . S
C111 H97 0.941 . S
C111 C110 1.389 . S
C111 C112 1.397 . S
C112 H98 0.939 . S
C112 C111 1.397 . S
C112 C113 1.378 . S
C113 C112 1.378 . S
C113 C114 1.378 . S
C114 H99 0.940 . S
C114 C113 1.378 . S
C114 C115 1.396 . S
C115 H100 0.940 . S
C115 C110 1.391 . S
C115 C114 1.396 . S
C116 P96 1.803 . S
C116 C117 1.378 . S
C116 C121 1.400 . S
C117 H101 0.939 . S
C117 C116 1.378 . S
C117 C118 1.361 . S
C118 H102 0.942 . S
C118 C117 1.361 . S
C118 C119 1.369 . S
C119 C118 1.369 . S
C119 C120 1.404 . S
C120 H103 0.940 . S
C120 C119 1.404 . S
C120 C121 1.389 . S
C121 H104 0.939 . S
C121 C116 1.400 . S
C121 C120 1.389 . S
C122 P96 1.819 . S
C122 C123 1.391 . S
C122 C127 1.391 . S
C123 H105 0.941 . S
C123 C122 1.391 . S
C123 C124 1.396 . S
C124 H108 0.939 . S
C124 C123 1.396 . S
C124 C125 1.397 . S
C125 C124 1.397 . S
C125 C126 1.385 . S
C126 H109 0.940 . S
C126 C125 1.385 . S
C126 C127 1.388 . S
C127 H106 0.939 . S
C127 C122 1.391 . S
C127 C126 1.388 . S
P128 O139 1.490 . S
P128 C142 1.812 1_554 S
P128 C148 1.803 . S
P128 C154 1.819 . S
H129 C143 0.941 . S
H130 C144 0.939 . S
H131 C146 0.940 . S
H132 C147 0.940 1_554 S
H133 C149 0.939 . S
H134 C150 0.942 . S
H135 C152 0.940 . S
H136 C153 0.939 . S
H137 C155 0.941 . S
H138 C159 0.939 . S
O139 P128 1.490 . S
H140 C156 0.939 . S
H141 C158 0.940 . S
C142 P128 1.812 1_556 S
C142 C143 1.389 . S
C142 C147 1.391 . S
C143 H129 0.941 . S
C143 C142 1.389 . S
C143 C144 1.397 . S
C144 H130 0.939 . S
C144 C143 1.397 . S
C144 C145 1.378 . S
C145 C144 1.378 . S
C145 C146 1.378 . S
C146 H131 0.940 . S
C146 C145 1.378 . S
C146 C147 1.396 . S
C147 H132 0.940 1_556 S
C147 C142 1.391 . S
C147 C146 1.396 . S
C148 P128 1.803 . S
C148 C149 1.378 . S
C148 C153 1.400 . S
C149 H133 0.939 . S
C149 C148 1.378 . S
C149 C150 1.361 . S
C150 H134 0.942 . S
C150 C149 1.361 . S
C150 C151 1.369 . S
C151 C150 1.369 . S
C151 C152 1.404 . S
C152 H135 0.940 . S
C152 C151 1.404 . S
C152 C153 1.389 . S
C153 H136 0.939 . S
C153 C148 1.400 . S
C153 C152 1.389 . S
C154 P128 1.819 . S
C154 C155 1.391 . S
C154 C159 1.391 . S
C155 H137 0.941 . S
C155 C154 1.391 . S
C155 C156 1.396 . S
C156 H140 0.939 . S
C156 C155 1.396 . S
C156 C157 1.397 . S
C157 C156 1.397 . S
C157 C158 1.385 . S
C158 H141 0.940 . S
C158 C157 1.385 . S
C158 C159 1.388 . S
C159 H138 0.939 . S
C159 C154 1.391 . S
C159 C158 1.388 . S
P160 O171 1.490 . S
P160 C174 1.812 1_554 S
P160 C180 1.803 . S
P160 C186 1.819 . S
H161 C175 0.941 . S
H162 C176 0.939 . S
H163 C178 0.940 . S
H164 C179 0.944 1_554 S
H165 C181 0.939 . S
H166 C182 0.942 . S
H167 C184 0.940 . S
H168 C185 0.952 . S
H169 C187 0.941 . S
H170 C191 0.933 1_655 S
O171 P160 1.490 . S
H172 C188 0.939 . S
H173 C190 0.940 . S
C174 P160 1.812 1_556 S
C174 C175 1.389 . S
C174 C179 1.385 1_455 S
C175 H161 0.941 . S
C175 C174 1.389 . S
C175 C176 1.397 . S
C176 H162 0.939 . S
C176 C175 1.397 . S
C176 C177 1.378 . S
C177 C176 1.378 . S
C177 C178 1.378 1_455 S
C178 H163 0.940 . S
C178 C177 1.378 1_655 S
C178 C179 1.399 . S
C179 H164 0.944 1_556 S
C179 C174 1.385 1_655 S
C179 C178 1.399 . S
C180 P160 1.803 . S
C180 C181 1.378 . S
C180 C185 1.379 1_455 S
C181 H165 0.939 . S
C181 C180 1.378 . S
C181 C182 1.361 . S
C182 H166 0.942 . S
C182 C181 1.361 . S
C182 C183 1.369 . S
C183 C182 1.369 . S
C183 C184 1.404 1_455 S
C184 H167 0.940 . S
C184 C183 1.404 1_655 S
C184 C185 1.397 . S
C185 H168 0.952 . S
C185 C180 1.379 1_655 S
C185 C184 1.397 . S
C186 P160 1.819 . S
C186 C187 1.391 . S
C186 C191 1.391 . S
C187 H169 0.941 . S
C187 C186 1.391 . S
C187 C188 1.396 . S
C188 H172 0.939 . S
C188 C187 1.396 . S
C188 C189 1.397 . S
C189 C188 1.397 . S
C189 C190 1.385 1_455 S
C190 H173 0.940 . S
C190 C189 1.385 1_655 S
C190 C191 1.388 1_655 S
C191 H170 0.933 1_455 S
C191 C186 1.391 . S
C191 C190 1.388 1_455 S
P192 O203 1.490 . S
P192 C206 1.812 1_554 S
P192 C212 1.803 . S
P192 C218 1.819 . S
H193 C207 0.941 . S
H194 C208 0.939 . S
H195 C210 0.940 . S
H196 C211 0.944 1_554 S
H197 C213 0.939 . S
H198 C214 0.942 . S
H199 C216 0.940 . S
H200 C217 0.953 . S
H201 C219 0.941 . S
H202 C223 0.933 1_565 S
O203 P192 1.490 . S
H204 C220 0.939 . S
H205 C222 0.940 . S
C206 P192 1.812 1_556 S
C206 C207 1.389 . S
C206 C211 1.385 1_545 S
C207 H193 0.941 . S
C207 C206 1.389 . S
C207 C208 1.397 . S
C208 H194 0.939 . S
C208 C207 1.397 . S
C208 C209 1.378 . S
C209 C208 1.378 . S
C209 C210 1.378 1_545 S
C210 H195 0.940 . S
C210 C209 1.378 1_565 S
C210 C211 1.399 . S
C211 H196 0.944 1_556 S
C211 C206 1.385 1_565 S
C211 C210 1.399 . S
C212 P192 1.803 . S
C212 C213 1.378 . S
C212 C217 1.379 1_545 S
C213 H197 0.939 . S
C213 C212 1.378 . S
C213 C214 1.361 . S
C214 H198 0.942 . S
C214 C213 1.361 . S
C214 C215 1.369 . S
C215 C214 1.369 . S
C215 C216 1.404 1_545 S
C216 H199 0.940 . S
C216 C215 1.404 1_565 S
C216 C217 1.397 . S
C217 H200 0.953 . S
C217 C212 1.379 1_565 S
C217 C216 1.397 . S
C218 P192 1.819 . S
C218 C219 1.391 . S
C218 C223 1.391 . S
C219 H201 0.941 . S
C219 C218 1.391 . S
C219 C220 1.396 . S
C220 H204 0.939 . S
C220 C219 1.396 . S
C220 C221 1.397 . S
C221 C220 1.397 . S
C221 C222 1.385 1_545 S
C222 H205 0.940 . S
C222 C221 1.385 1_565 S
C222 C223 1.388 1_565 S
C223 H202 0.933 1_545 S
C223 C218 1.391 . S
C223 C222 1.388 1_545 S
P224 O235 1.490 . S
P224 C238 1.812 1_554 S
P224 C244 1.803 . S
P224 C250 1.819 . S
H225 C239 0.941 . S
H226 C240 0.939 . S
H227 C242 0.940 . S
H228 C243 0.940 1_554 S
H229 C245 0.939 . S
H230 C246 0.942 . S
H231 C248 0.940 . S
H232 C249 0.939 . S
H233 C251 0.941 . S
H234 C255 0.939 . S
O235 P224 1.490 . S
H236 C252 0.939 . S
H237 C254 0.940 . S
C238 P224 1.812 1_556 S
C238 C239 1.389 . S
C238 C243 1.391 . S
C239 H225 0.941 . S
C239 C238 1.389 . S
C239 C240 1.397 . S
C240 H226 0.939 . S
C240 C239 1.397 . S
C240 C241 1.378 . S
C241 C240 1.378 . S
C241 C242 1.378 . S
C242 H227 0.940 . S
C242 C241 1.378 . S
C242 C243 1.396 . S
C243 H228 0.940 1_556 S
C243 C238 1.391 . S
C243 C242 1.396 . S
C244 P224 1.803 . S
C244 C245 1.378 . S
C244 C249 1.400 . S
C245 H229 0.939 . S
C245 C244 1.378 . S
C245 C246 1.361 . S
C246 H230 0.942 . S
C246 C245 1.361 . S
C246 C247 1.369 . S
C247 C246 1.369 . S
C247 C248 1.404 . S
C248 H231 0.940 . S
C248 C247 1.404 . S
C248 C249 1.389 . S
C249 H232 0.939 . S
C249 C244 1.400 . S
C249 C248 1.389 . S
C250 P224 1.819 . S
C250 C251 1.391 . S
C250 C255 1.391 . S
C251 H233 0.941 . S
C251 C250 1.391 . S
C251 C252 1.396 . S
C252 H236 0.939 . S
C252 C251 1.396 . S
C252 C253 1.397 . S
C253 C252 1.397 . S
C253 C254 1.385 . S
C254 H237 0.940 . S
C254 C253 1.385 . S
C254 C255 1.388 . S
C255 H234 0.939 . S
C255 C250 1.391 . S
C255 C254 1.388 . S
Tb256 C258 2.809 . S
Tb256 O276 2.484 . S
Tb256 O277 2.440 . S
Tb256 O278 2.658 1_565 S
Tb256 O279 2.409 . S
Tb256 O280 2.378 . S
Tb256 O284 2.325 1_455 S
Tb256 O287 2.341 1_565 S
Tb257 C267 2.809 . S
Tb257 O278 2.325 1_655 S
Tb257 O281 2.341 1_545 S
Tb257 O282 2.484 . S
Tb257 O283 2.440 . S
Tb257 O284 2.658 1_545 S
Tb257 O285 2.409 . S
Tb257 O286 2.378 . S
C258 Tb256 2.809 . S
C258 C259 1.514 . S
C258 O276 1.248 . S
C258 O277 1.266 . S
C259 C258 1.514 . S
C259 C260 1.359 . S
C259 C264 1.348 . S
C260 C259 1.359 . S
C260 C261 1.380 . S
C260 H288 0.929 1_455 S
C261 C260 1.380 . S
C261 C262 1.347 . S
C261 H289 0.931 1_455 S
C262 C261 1.347 . S
C262 C263 1.369 . S
C263 C262 1.369 . S
C263 C264 1.408 . S
C263 H290 0.930 . S
C264 C259 1.348 . S
C264 C263 1.408 . S
C264 H291 0.930 . S
C265 O278 1.281 1_565 S
C265 O279 1.254 . S
C266 O280 1.236 1_655 S
C266 O281 1.266 . S
C267 Tb257 2.809 . S
C267 C268 1.514 . S
C267 O282 1.248 . S
C267 O283 1.266 . S
C268 C267 1.514 . S
C268 C269 1.359 . S
C268 C273 1.348 . S
C269 C268 1.359 . S
C269 C270 1.380 . S
C269 H292 0.929 1_655 S
C270 C269 1.380 . S
C270 C271 1.347 . S
C270 H293 0.931 1_655 S
C271 C270 1.347 . S
C271 C272 1.369 . S
C272 C271 1.369 . S
C272 C273 1.408 . S
C272 H294 0.930 . S
C273 C268 1.348 . S
C273 C272 1.408 . S
C273 H295 0.930 . S
C274 O284 1.281 1_545 S
C274 O285 1.254 . S
C275 O286 1.236 1_455 S
C275 O287 1.266 . S
O276 Tb256 2.484 . S
O276 C258 1.248 . S
O277 Tb256 2.440 . S
O277 C258 1.266 . S
O278 Tb256 2.658 1_545 S
O278 Tb257 2.325 1_455 S
O278 C265 1.281 1_545 S
O279 Tb256 2.409 . S
O279 C265 1.254 . S
O280 Tb256 2.378 . S
O280 C266 1.236 1_455 S
O281 Tb257 2.341 1_565 S
O281 C266 1.266 . S
O282 Tb257 2.484 . S
O282 C267 1.248 . S
O283 Tb257 2.440 . S
O283 C267 1.266 . S
O284 Tb256 2.325 1_655 S
O284 Tb257 2.658 1_565 S
O284 C274 1.281 1_565 S
O285 Tb257 2.409 . S
O285 C274 1.254 . S
O286 Tb257 2.378 . S
O286 C275 1.236 1_655 S
O287 Tb256 2.341 1_545 S
O287 C275 1.266 . S
H288 C260 0.929 1_655 S
H289 C261 0.931 1_655 S
H290 C263 0.930 . S
H291 C264 0.930 . S
H292 C269 0.929 1_455 S
H293 C270 0.931 1_455 S
H294 C272 0.930 . S
H295 C273 0.930 . S
Tb296 C298 2.809 . S
Tb296 O316 2.484 . S
Tb296 O317 2.440 . S
Tb296 O318 2.658 . S
Tb296 O319 2.409 . S
Tb296 O320 2.378 . S
Tb296 O324 2.325 1_545 S
Tb296 O327 2.341 . S
Tb297 C307 2.809 . S
Tb297 O318 2.325 1_565 S
Tb297 O321 2.341 . S
Tb297 O322 2.484 . S
Tb297 O323 2.440 . S
Tb297 O324 2.658 . S
Tb297 O325 2.409 . S
Tb297 O326 2.378 . S
C298 Tb296 2.809 . S
C298 C299 1.514 . S
C298 O316 1.248 . S
C298 O317 1.266 . S
C299 C298 1.514 . S
C299 C300 1.359 . S
C299 C304 1.348 . S
C300 C299 1.359 . S
C300 C301 1.380 . S
C300 H328 0.929 1_545 S
C301 C300 1.380 . S
C301 C302 1.347 . S
C301 H329 0.931 1_545 S
C302 C301 1.347 . S
C302 C303 1.369 . S
C303 C302 1.369 . S
C303 C304 1.408 . S
C303 H330 0.930 . S
C304 C299 1.348 . S
C304 C303 1.408 . S
C304 H331 0.930 . S
C305 O318 1.281 . S
C305 O319 1.254 . S
C306 O320 1.236 1_565 S
C306 O321 1.266 . S
C307 Tb297 2.809 . S
C307 C308 1.514 . S
C307 O322 1.248 . S
C307 O323 1.266 . S
C308 C307 1.514 . S
C308 C309 1.359 . S
C308 C313 1.348 . S
C309 C308 1.359 . S
C309 C310 1.380 . S
C309 H332 0.929 1_565 S
C310 C309 1.380 . S
C310 C311 1.347 . S
C310 H333 0.931 1_565 S
C311 C310 1.347 . S
C311 C312 1.369 . S
C312 C311 1.369 . S
C312 C313 1.408 . S
C312 H334 0.930 . S
C313 C308 1.348 . S
C313 C312 1.408 . S
C313 H335 0.930 . S
C314 O324 1.281 . S
C314 O325 1.254 . S
C315 O326 1.236 1_545 S
C315 O327 1.266 . S
O316 Tb296 2.484 . S
O316 C298 1.248 . S
O317 Tb296 2.440 . S
O317 C298 1.266 . S
O318 Tb296 2.658 . S
O318 Tb297 2.325 1_545 S
O318 C305 1.281 . S
O319 Tb296 2.409 . S
O319 C305 1.254 . S
O320 Tb296 2.378 . S
O320 C306 1.236 1_545 S
O321 Tb297 2.341 . S
O321 C306 1.266 . S
O322 Tb297 2.484 . S
O322 C307 1.248 . S
O323 Tb297 2.440 . S
O323 C307 1.266 . S
O324 Tb296 2.325 1_565 S
O324 Tb297 2.658 . S
O324 C314 1.281 . S
O325 Tb297 2.409 . S
O325 C314 1.254 . S
O326 Tb297 2.378 . S
O326 C315 1.236 1_565 S
O327 Tb296 2.341 . S
O327 C315 1.266 . S
H328 C300 0.929 1_565 S
H329 C301 0.931 1_565 S
H330 C303 0.930 . S
H331 C304 0.930 . S
H332 C309 0.929 1_545 S
H333 C310 0.931 1_545 S
H334 C312 0.930 . S
H335 C313 0.930 . S
Tb336 C338 2.809 . S
Tb336 O356 2.484 . S
Tb336 O357 2.440 . S
Tb336 O358 2.658 . S
Tb336 O359 2.409 . S
Tb336 O360 2.378 . S
Tb336 O364 2.325 . S
Tb336 O367 2.341 . S
Tb337 C347 2.809 . S
Tb337 O358 2.325 . S
Tb337 O361 2.341 . S
Tb337 O362 2.484 . S
Tb337 O363 2.440 . S
Tb337 O364 2.658 . S
Tb337 O365 2.409 . S
Tb337 O366 2.378 . S
C338 Tb336 2.809 . S
C338 C339 1.514 . S
C338 O356 1.248 . S
C338 O357 1.266 . S
C339 C338 1.514 . S
C339 C340 1.359 . S
C339 C344 1.348 . S
C340 C339 1.359 . S
C340 C341 1.380 . S
C340 H368 0.929 . S
C341 C340 1.380 . S
C341 C342 1.347 . S
C341 H369 0.931 . S
C342 C341 1.347 . S
C342 C343 1.369 . S
C343 C342 1.369 . S
C343 C344 1.408 . S
C343 H370 0.930 . S
C344 C339 1.348 . S
C344 C343 1.408 . S
C344 H371 0.930 . S
C345 O358 1.281 . S
C345 O359 1.254 . S
C346 O360 1.236 . S
C346 O361 1.266 . S
C347 Tb337 2.809 . S
C347 C348 1.514 . S
C347 O362 1.248 . S
C347 O363 1.266 . S
C348 C347 1.514 . S
C348 C349 1.359 . S
C348 C353 1.348 . S
C349 C348 1.359 . S
C349 C350 1.380 . S
C349 H372 0.929 . S
C350 C349 1.380 . S
C350 C351 1.347 . S
C350 H373 0.931 . S
C351 C350 1.347 . S
C351 C352 1.369 . S
C352 C351 1.369 . S
C352 C353 1.408 . S
C352 H374 0.930 . S
C353 C348 1.348 . S
C353 C352 1.408 . S
C353 H375 0.930 . S
C354 O364 1.281 . S
C354 O365 1.254 . S
C355 O366 1.236 . S
C355 O367 1.266 . S
O356 Tb336 2.484 . S
O356 C338 1.248 . S
O357 Tb336 2.440 . S
O357 C338 1.266 . S
O358 Tb336 2.658 . S
O358 Tb337 2.325 . S
O358 C345 1.281 . S
O359 Tb336 2.409 . S
O359 C345 1.254 . S
O360 Tb336 2.378 . S
O360 C346 1.236 . S
O361 Tb337 2.341 . S
O361 C346 1.266 . S
O362 Tb337 2.484 . S
O362 C347 1.248 . S
O363 Tb337 2.440 . S
O363 C347 1.266 . S
O364 Tb336 2.325 . S
O364 Tb337 2.658 . S
O364 C354 1.281 . S
O365 Tb337 2.409 . S
O365 C354 1.254 . S
O366 Tb337 2.378 . S
O366 C355 1.236 . S
O367 Tb336 2.341 . S
O367 C355 1.266 . S
H368 C340 0.929 . S
H369 C341 0.931 . S
H370 C343 0.930 . S
H371 C344 0.930 . S
H372 C349 0.929 . S
H373 C350 0.931 . S
H374 C352 0.930 . S
H375 C353 0.930 . S
Tb376 C378 2.809 . S
Tb376 O396 2.484 . S
Tb376 O397 2.440 . S
Tb376 O398 2.658 1_655 S
Tb376 O399 2.409 . S
Tb376 O400 2.378 . S
Tb376 O404 2.325 . S
Tb376 O407 2.341 1_655 S
Tb377 C387 2.809 . S
Tb377 O398 2.325 . S
Tb377 O401 2.341 1_455 S
Tb377 O402 2.484 . S
Tb377 O403 2.440 . S
Tb377 O404 2.658 1_455 S
Tb377 O405 2.409 . S
Tb377 O406 2.378 . S
C378 Tb376 2.809 . S
C378 C379 1.514 . S
C378 O396 1.248 . S
C378 O397 1.266 . S
C379 C378 1.514 . S
C379 C380 1.359 . S
C379 C384 1.348 . S
C380 C379 1.359 . S
C380 C381 1.380 . S
C380 H408 0.929 . S
C381 C380 1.380 . S
C381 C382 1.347 . S
C381 H409 0.931 . S
C382 C381 1.347 . S
C382 C383 1.369 . S
C383 C382 1.369 . S
C383 C384 1.408 . S
C383 H410 0.930 . S
C384 C379 1.348 . S
C384 C383 1.408 . S
C384 H411 0.930 . S
C385 O398 1.276 1_655 S
C385 O399 1.260 . S
C386 O400 1.236 . S
C386 O401 1.266 . S
C387 Tb377 2.809 . S
C387 C388 1.514 . S
C387 O402 1.248 . S
C387 O403 1.266 . S
C388 C387 1.514 . S
C388 C389 1.359 . S
C388 C393 1.348 . S
C389 C388 1.359 . S
C389 C390 1.380 . S
C389 H412 0.929 . S
C390 C389 1.380 . S
C390 C391 1.347 . S
C390 H413 0.931 . S
C391 C390 1.347 . S
C391 C392 1.369 . S
C392 C391 1.369 . S
C392 C393 1.408 . S
C392 H414 0.930 . S
C393 C388 1.348 . S
C393 C392 1.408 . S
C393 H415 0.930 . S
C394 O404 1.272 1_455 S
C394 O405 1.266 . S
C395 O406 1.236 . S
C395 O407 1.266 . S
O396 Tb376 2.484 . S
O396 C378 1.248 . S
O397 Tb376 2.440 . S
O397 C378 1.266 . S
O398 Tb376 2.658 1_455 S
O398 Tb377 2.325 . S
O398 C385 1.276 1_455 S
O399 Tb376 2.409 . S
O399 C385 1.260 . S
O400 Tb376 2.378 . S
O400 C386 1.236 . S
O401 Tb377 2.341 1_655 S
O401 C386 1.266 . S
O402 Tb377 2.484 . S
O402 C387 1.248 . S
O403 Tb377 2.440 . S
O403 C387 1.266 . S
O404 Tb376 2.325 . S
O404 Tb377 2.658 1_655 S
O404 C394 1.272 1_655 S
O405 Tb377 2.409 . S
O405 C394 1.266 . S
O406 Tb377 2.378 . S
O406 C395 1.236 . S
O407 Tb376 2.341 1_455 S
O407 C395 1.266 . S
H408 C380 0.929 . S
H409 C381 0.931 . S
H410 C383 0.930 . S
H411 C384 0.930 . S
H412 C389 0.929 . S
H413 C390 0.931 . S
H414 C392 0.930 . S
H415 C393 0.930 . S
H416 C424 0.952 . S
H417 C429 0.950 . S
H418 C426 0.950 . S
H419 C428 0.950 . S
H420 C430 0.950 . S
H421 C432 0.952 . S
H422 C434 0.950 . S
H423 C435 0.950 . S
C424 H416 0.952 . S
C424 C425 1.383 1_545 S
C424 C426 1.392 . S
C425 C424 1.383 1_565 S
C425 C429 1.396 . S
C426 H418 0.950 . S
C426 C424 1.392 . S
C426 C427 1.400 1_545 S
C427 C426 1.400 1_565 S
C427 C428 1.399 . S
C427 C433 1.489 1_565 S
C428 H419 0.950 . S
C428 C427 1.399 . S
C428 C429 1.391 . S
C429 H417 0.950 . S
C429 C425 1.396 . S
C429 C428 1.391 . S
C430 H420 0.950 . S
C430 C431 1.385 1_565 S
C430 C432 1.391 . S
C431 C430 1.385 1_545 S
C431 C435 1.393 . S
C432 H421 0.952 . S
C432 C430 1.391 . S
C432 C433 1.399 1_565 S
C433 C427 1.489 1_545 S
C433 C432 1.399 1_545 S
C433 C434 1.402 . S
C434 H422 0.950 . S
C434 C433 1.402 . S
C434 C435 1.391 . S
C435 H423 0.950 . S
C435 C431 1.393 . S
C435 C434 1.391 . S
H436 C444 0.950 . S
H437 C449 0.950 . S
H438 C446 0.950 . S
H439 C448 0.950 . S
H440 C450 0.950 . S
H441 C452 0.950 . S
H442 C454 0.950 . S
H443 C455 0.950 . S
C444 H436 0.950 . S
C444 C445 1.386 . S
C444 C446 1.391 . S
C445 C444 1.386 . S
C445 C449 1.393 . S
C446 H438 0.950 . S
C446 C444 1.391 . S
C446 C447 1.400 . S
C447 C446 1.400 . S
C447 C448 1.398 . S
C447 C453 1.491 . S
C448 H439 0.950 . S
C448 C447 1.398 . S
C448 C449 1.391 . S
C449 H437 0.950 . S
C449 C445 1.393 . S
C449 C448 1.391 . S
C450 H440 0.950 . S
C450 C451 1.386 . S
C450 C452 1.391 . S
C451 C450 1.386 . S
C451 C455 1.393 . S
C452 H441 0.950 . S
C452 C450 1.391 . S
C452 C453 1.400 . S
C453 C447 1.491 . S
C453 C452 1.400 . S
C453 C454 1.398 . S
C454 H442 0.950 . S
C454 C453 1.398 . S
C454 C455 1.391 . S
C455 H443 0.950 . S
C455 C451 1.393 . S
C455 C454 1.391 . S
H456 C464 0.950 . S
H457 C469 0.950 . S
H458 C466 0.950 . S
H459 C468 0.950 . S
H460 C470 0.950 . S
H461 C472 0.950 . S
H462 C474 0.950 . S
H463 C475 0.950 . S
C464 H456 0.950 . S
C464 C465 1.386 . S
C464 C466 1.391 . S
C465 C464 1.386 . S
C465 C469 1.393 . S
C466 H458 0.950 . S
C466 C464 1.391 . S
C466 C467 1.400 . S
C467 C466 1.400 . S
C467 C468 1.398 . S
C467 C473 1.491 . S
C468 H459 0.950 . S
C468 C467 1.398 . S
C468 C469 1.391 . S
C469 H457 0.950 . S
C469 C465 1.393 . S
C469 C468 1.391 . S
C470 H460 0.950 . S
C470 C471 1.386 . S
C470 C472 1.391 . S
C471 C470 1.386 . S
C471 C475 1.393 . S
C472 H461 0.950 . S
C472 C470 1.391 . S
C472 C473 1.400 . S
C473 C467 1.491 . S
C473 C472 1.400 . S
C473 C474 1.398 . S
C474 H462 0.950 . S
C474 C473 1.398 . S
C474 C475 1.391 . S
C475 H463 0.950 . S
C475 C471 1.393 . S
C475 C474 1.391 . S
H476 C484 0.950 . S
H477 C489 0.950 . S
H478 C486 0.950 . S
H479 C488 0.950 . S
H480 C490 0.950 . S
H481 C492 0.950 . S
H482 C494 0.950 . S
H483 C495 0.950 . S
C484 H476 0.950 . S
C484 C485 1.378 1_455 S
C484 C486 1.391 . S
C485 C484 1.378 1_655 S
C485 C489 1.401 . S
C486 H478 0.950 . S
C486 C484 1.391 . S
C486 C487 1.409 . S
C487 C486 1.409 . S
C487 C488 1.389 1_455 S
C487 C493 1.491 . S
C488 H479 0.950 . S
C488 C487 1.389 1_655 S
C488 C489 1.391 . S
C489 H477 0.950 . S
C489 C485 1.401 . S
C489 C488 1.391 . S
C490 H480 0.950 . S
C490 C491 1.386 1_655 S
C490 C492 1.391 . S
C491 C490 1.386 1_455 S
C491 C495 1.393 . S
C492 H481 0.950 . S
C492 C490 1.391 . S
C492 C493 1.400 1_655 S
C493 C487 1.491 . S
C493 C492 1.400 1_455 S
C493 C494 1.398 . S
C494 H482 0.950 . S
C494 C493 1.398 . S
C494 C495 1.391 . S
C495 H483 0.950 . S
C495 C491 1.393 . S
C495 C494 1.391 . S
H496 C504 0.950 . S
H497 C509 0.950 . S
H498 C506 0.950 . S
H499 C508 0.950 . S
H500 C510 0.950 . S
H501 C512 0.950 . S
H502 C514 0.950 . S
H503 C515 0.950 . S
C504 H496 0.950 . S
C504 C505 1.402 . S
C504 C506 1.391 . S
C505 C504 1.402 . S
C505 C509 1.377 1_545 S
C506 H498 0.950 . S
C506 C504 1.391 . S
C506 C507 1.407 . S
C507 C506 1.407 . S
C507 C508 1.392 1_545 S
C507 C513 1.490 1_545 S
C508 H499 0.950 . S
C508 C507 1.392 1_565 S
C508 C509 1.391 . S
C509 H497 0.950 . S
C509 C505 1.377 1_565 S
C509 C508 1.391 . S
C510 H500 0.950 . S
C510 C511 1.402 . S
C510 C512 1.391 1_556 S
C511 C510 1.402 . S
C511 C515 1.377 1_565 S
C512 H501 0.950 . S
C512 C510 1.391 1_554 S
C512 C513 1.407 . S
C513 C507 1.490 1_565 S
C513 C512 1.407 . S
C513 C514 1.392 1_564 S
C514 H502 0.950 . S
C514 C513 1.392 1_546 S
C514 C515 1.391 . S
C515 H503 0.950 . S
C515 C511 1.377 1_545 S
C515 C514 1.391 . S
H516 C524 0.950 . S
H517 C529 0.950 . S
H518 C526 0.950 . S
H519 C528 0.950 . S
H520 C530 0.950 . S
H521 C532 0.950 . S
H522 C534 0.950 . S
H523 C535 0.950 . S
C524 H516 0.950 . S
C524 C525 1.386 . S
C524 C526 1.391 . S
C525 C524 1.386 . S
C525 C529 1.393 . S
C526 H518 0.950 . S
C526 C524 1.391 . S
C526 C527 1.400 . S
C527 C526 1.400 . S
C527 C528 1.398 . S
C527 C533 1.491 . S
C528 H519 0.950 . S
C528 C527 1.398 . S
C528 C529 1.391 . S
C529 H517 0.950 . S
C529 C525 1.393 . S
C529 C528 1.391 . S
C530 H520 0.950 . S
C530 C531 1.386 . S
C530 C532 1.391 1_556 S
C531 C530 1.386 . S
C531 C535 1.393 . S
C532 H521 0.950 . S
C532 C530 1.391 1_554 S
C532 C533 1.400 . S
C533 C527 1.491 . S
C533 C532 1.400 . S
C533 C534 1.398 1_554 S
C534 H522 0.950 . S
C534 C533 1.398 1_556 S
C534 C535 1.391 . S
C535 H523 0.950 . S
C535 C531 1.393 . S
C535 C534 1.391 . S
H536 C544 0.950 . S
H537 C549 0.950 . S
H538 C546 0.950 . S
H539 C548 0.950 . S
H540 C550 0.950 . S
H541 C552 0.950 1_554 S
H542 C554 0.950 1_554 S
H543 C555 0.950 . S
C544 H536 0.950 . S
C544 C545 1.386 . S
C544 C546 1.391 . S
C545 C544 1.386 . S
C545 C549 1.393 . S
C546 H538 0.950 . S
C546 C544 1.391 . S
C546 C547 1.400 . S
C547 C546 1.400 . S
C547 C548 1.398 . S
C547 C553 1.491 . S
C548 H539 0.950 . S
C548 C547 1.398 . S
C548 C549 1.391 . S
C549 H537 0.950 . S
C549 C545 1.393 . S
C549 C548 1.391 . S
C550 H540 0.950 . S
C550 C551 1.386 . S
C550 C552 1.391 . S
C551 C550 1.386 . S
C551 C555 1.393 . S
C552 H541 0.950 1_556 S
C552 C550 1.391 . S
C552 C553 1.400 1_556 S
C553 C547 1.491 . S
C553 C552 1.400 1_554 S
C553 C554 1.398 1_554 S
C554 H542 0.950 1_556 S
C554 C553 1.398 1_556 S
C554 C555 1.391 . S
C555 H543 0.950 . S
C555 C551 1.393 . S
C555 C554 1.391 . S
H556 C564 0.950 . S
H557 C569 0.950 . S
H558 C566 0.950 . S
H559 C568 0.950 . S
H560 C570 0.950 . S
H561 C572 0.950 . S
H562 C574 0.950 . S
H563 C575 0.950 . S
C564 H556 0.950 . S
C564 C565 1.404 . S
C564 C566 1.391 . S
C565 C564 1.404 . S
C565 C569 1.375 1_655 S
C566 H558 0.950 . S
C566 C564 1.391 . S
C566 C567 1.429 . S
C567 C566 1.429 . S
C567 C568 1.370 1_655 S
C567 C573 1.491 . S
C568 H559 0.950 . S
C568 C567 1.370 1_455 S
C568 C569 1.391 . S
C569 H557 0.950 . S
C569 C565 1.375 1_455 S
C569 C568 1.391 . S
C570 H560 0.950 . S
C570 C571 1.348 1_455 S
C570 C572 1.391 . S
C571 C570 1.348 1_655 S
C571 C575 1.430 . S
C572 H561 0.950 . S
C572 C570 1.391 . S
C572 C573 1.374 1_456 S
C573 C567 1.491 . S
C573 C572 1.374 1_654 S
C573 C574 1.424 . S
C574 H562 0.950 . S
C574 C573 1.424 . S
C574 C575 1.391 1_554 S
C575 H563 0.950 . S
C575 C571 1.430 . S
C575 C574 1.391 1_556 S
H576 C584 0.950 . S
H577 C589 0.950 . S
H578 C586 0.950 . S
H579 C588 0.950 . S
H580 C590 0.950 . S
H581 C592 0.950 . S
H582 C594 0.950 . S
H583 C595 0.950 . S
C584 H576 0.950 . S
C584 C585 1.386 . S
C584 C586 1.391 1_455 S
C585 C584 1.386 . S
C585 C589 1.393 1_455 S
C586 H578 0.950 . S
C586 C584 1.391 1_655 S
C586 C587 1.400 . S
C587 C586 1.400 . S
C587 C588 1.398 . S
C587 C593 1.491 . S
C588 H579 0.950 . S
C588 C587 1.398 . S
C588 C589 1.391 . S
C589 H577 0.950 . S
C589 C585 1.393 1_655 S
C589 C588 1.391 . S
C590 H580 0.950 . S
C590 C591 1.386 . S
C590 C592 1.391 . S
C591 C590 1.386 . S
C591 C595 1.393 . S
C592 H581 0.950 . S
C592 C590 1.391 . S
C592 C593 1.400 . S
C593 C587 1.491 . S
C593 C592 1.400 . S
C593 C594 1.398 . S
C594 H582 0.950 . S
C594 C593 1.398 . S
C594 C595 1.391 . S
C595 H583 0.950 . S
C595 C591 1.393 . S
C595 C594 1.391 . S
H596 C604 0.950 . S
H597 C609 0.950 . S
H598 C606 0.950 . S
H599 C608 0.950 . S
H600 C610 0.950 . S
H601 C612 0.950 . S
H602 C614 0.950 1_545 S
H603 C615 0.950 . S
C604 H596 0.950 . S
C604 C605 1.386 . S
C604 C606 1.391 . S
C605 C604 1.386 . S
C605 C609 1.393 1_545 S
C606 H598 0.950 . S
C606 C604 1.391 . S
C606 C607 1.400 1_545 S
C607 C606 1.400 1_565 S
C607 C608 1.398 . S
C607 C613 1.491 . S
C608 H599 0.950 . S
C608 C607 1.398 . S
C608 C609 1.391 . S
C609 H597 0.950 . S
C609 C605 1.393 1_565 S
C609 C608 1.391 . S
C610 H600 0.950 . S
C610 C611 1.386 . S
C610 C612 1.391 . S
C611 C610 1.386 . S
C611 C615 1.393 . S
C612 H601 0.950 . S
C612 C610 1.391 . S
C612 C613 1.400 . S
C613 C607 1.491 . S
C613 C612 1.400 . S
C613 C614 1.398 . S
C614 H602 0.950 1_565 S
C614 C613 1.398 . S
C614 C615 1.391 . S
C615 H603 0.950 . S
C615 C611 1.393 . S
C615 C614 1.391 . S
H616 C624 0.950 . S
H617 C629 0.950 . S
H618 C626 0.950 . S
H619 C628 0.950 . S
H620 C630 0.950 . S
H621 C632 0.950 . S
H622 C634 0.950 . S
H623 C635 0.950 . S
C624 H616 0.950 . S
C624 C625 1.386 . S
C624 C626 1.391 . S
C625 C624 1.386 . S
C625 C629 1.393 . S
C626 H618 0.950 . S
C626 C624 1.391 . S
C626 C627 1.400 . S
C627 C626 1.400 . S
C627 C628 1.398 . S
C627 C633 1.491 . S
C628 H619 0.950 . S
C628 C627 1.398 . S
C628 C629 1.391 . S
C629 H617 0.950 . S
C629 C625 1.393 . S
C629 C628 1.391 . S
C630 H620 0.950 . S
C630 C631 1.386 . S
C630 C632 1.391 . S
C631 C630 1.386 . S
C631 C635 1.393 . S
C632 H621 0.950 . S
C632 C630 1.391 . S
C632 C633 1.400 . S
C633 C627 1.491 . S
C633 C632 1.400 . S
C633 C634 1.398 . S
C634 H622 0.950 . S
C634 C633 1.398 . S
C634 C635 1.391 . S
C635 H623 0.950 . S
C635 C631 1.393 . S
C635 C634 1.391 . S
H636 C644 0.950 . S
H637 C649 0.950 . S
H638 C646 0.950 . S
H639 C648 0.950 . S
H640 C650 0.950 . S
H641 C652 0.950 . S
H642 C654 0.950 . S
H643 C655 0.950 . S
C644 H636 0.950 . S
C644 C645 1.386 . S
C644 C646 1.391 . S
C645 C644 1.386 . S
C645 C649 1.393 . S
C646 H638 0.950 . S
C646 C644 1.391 . S
C646 C647 1.400 . S
C647 C646 1.400 . S
C647 C648 1.398 . S
C647 C653 1.491 . S
C648 H639 0.950 . S
C648 C647 1.398 . S
C648 C649 1.391 . S
C649 H637 0.950 . S
C649 C645 1.393 . S
C649 C648 1.391 . S
C650 H640 0.950 . S
C650 C651 1.386 . S
C650 C652 1.391 . S
C651 C650 1.386 . S
C651 C655 1.393 . S
C652 H641 0.950 . S
C652 C650 1.391 . S
C652 C653 1.400 . S
C653 C647 1.491 . S
C653 C652 1.400 . S
C653 C654 1.398 . S
C654 H642 0.950 . S
C654 C653 1.398 . S
C654 C655 1.391 . S
C655 H643 0.950 . S
C655 C651 1.393 . S
C655 C654 1.391 . S
H656 C664 0.950 . S
H657 C669 0.950 . S
H658 C666 0.950 . S
H659 C668 0.950 . S
H660 C670 0.950 . S
H661 C672 0.950 . S
H662 C674 0.950 . S
H663 C675 0.950 . S
C664 H656 0.950 . S
C664 C665 1.386 . S
C664 C666 1.391 . S
C665 C664 1.386 . S
C665 C669 1.393 1_655 S
C666 H658 0.950 . S
C666 C664 1.391 . S
C666 C667 1.400 1_655 S
C667 C666 1.400 1_455 S
C667 C668 1.398 . S
C667 C673 1.491 . S
C668 H659 0.950 . S
C668 C667 1.398 . S
C668 C669 1.391 . S
C669 H657 0.950 . S
C669 C665 1.393 1_455 S
C669 C668 1.391 . S
C670 H660 0.950 . S
C670 C671 1.386 . S
C670 C672 1.391 . S
C671 C670 1.386 . S
C671 C675 1.393 1_556 S
C672 H661 0.950 . S
C672 C670 1.391 . S
C672 C673 1.400 1_556 S
C673 C667 1.491 . S
C673 C672 1.400 1_554 S
C673 C674 1.398 . S
C674 H662 0.950 . S
C674 C673 1.398 . S
C674 C675 1.391 . S
C675 H663 0.950 . S
C675 C671 1.393 1_554 S
C675 C674 1.391 . S
H676 C684 0.950 . S
H677 C689 0.950 . S
H678 C686 0.950 . S
H679 C688 0.950 . S
H680 C690 0.950 . S
H681 C692 0.950 . S
H682 C694 0.950 . S
H683 C695 0.950 . S
C684 H676 0.950 . S
C684 C685 1.386 . S
C684 C686 1.391 1_565 S
C685 C684 1.386 . S
C685 C689 1.393 1_565 S
C686 H678 0.950 . S
C686 C684 1.391 1_545 S
C686 C687 1.400 . S
C687 C686 1.400 . S
C687 C688 1.398 . S
C687 C693 1.491 . S
C688 H679 0.950 . S
C688 C687 1.398 . S
C688 C689 1.391 . S
C689 H677 0.950 . S
C689 C685 1.393 1_545 S
C689 C688 1.391 . S
C690 H680 0.950 . S
C690 C691 1.386 1_554 S
C690 C692 1.391 . S
C691 C690 1.386 1_556 S
C691 C695 1.393 . S
C692 H681 0.950 . S
C692 C690 1.391 . S
C692 C693 1.400 . S
C693 C687 1.491 . S
C693 C692 1.400 . S
C693 C694 1.398 1_554 S
C694 H682 0.950 . S
C694 C693 1.398 1_556 S
C694 C695 1.391 . S
C695 H683 0.950 . S
C695 C691 1.393 . S
C695 C694 1.391 . S
H696 C704 0.950 . S
H697 C709 0.950 . S
H698 C706 0.950 . S
H699 C708 0.950 . S
H700 C710 0.950 . S
H701 C712 0.950 . S
H702 C714 0.950 . S
H703 C715 0.950 . S
C704 H696 0.950 . S
C704 C705 1.386 . S
C704 C706 1.391 . S
C705 C704 1.386 . S
C705 C709 1.393 . S
C706 H698 0.950 . S
C706 C704 1.391 . S
C706 C707 1.400 . S
C707 C706 1.400 . S
C707 C708 1.398 . S
C707 C713 1.491 . S
C708 H699 0.950 . S
C708 C707 1.398 . S
C708 C709 1.391 . S
C709 H697 0.950 . S
C709 C705 1.393 . S
C709 C708 1.391 . S
C710 H700 0.950 . S
C710 C711 1.386 . S
C710 C712 1.391 1_556 S
C711 C710 1.386 . S
C711 C715 1.393 1_556 S
C712 H701 0.950 . S
C712 C710 1.391 1_554 S
C712 C713 1.400 . S
C713 C707 1.491 . S
C713 C712 1.400 . S
C713 C714 1.398 . S
C714 H702 0.950 . S
C714 C713 1.398 . S
C714 C715 1.391 . S
C715 H703 0.950 . S
C715 C711 1.393 1_554 S
C715 C714 1.391 . S
H716 C724 0.950 . S
H717 C729 0.950 . S
H718 C726 0.950 . S
H719 C728 0.950 . S
H720 C730 0.950 . S
H721 C732 0.950 . S
H722 C734 0.950 . S
H723 C735 0.950 . S
C724 H716 0.950 . S
C724 C725 1.386 . S
C724 C726 1.391 . S
C725 C724 1.386 . S
C725 C729 1.393 . S
C726 H718 0.950 . S
C726 C724 1.391 . S
C726 C727 1.400 . S
C727 C726 1.400 . S
C727 C728 1.398 . S
C727 C733 1.491 . S
C728 H719 0.950 . S
C728 C727 1.398 . S
C728 C729 1.391 . S
C729 H717 0.950 . S
C729 C725 1.393 . S
C729 C728 1.391 . S
C730 H720 0.950 . S
C730 C731 1.386 . S
C730 C732 1.391 1_556 S
C731 C730 1.386 . S
C731 C735 1.393 1_556 S
C732 H721 0.950 . S
C732 C730 1.391 1_554 S
C732 C733 1.400 . S
C733 C727 1.491 . S
C733 C732 1.400 . S
C733 C734 1.398 . S
C734 H722 0.950 . S
C734 C733 1.398 . S
C734 C735 1.391 . S
C735 H723 0.950 . S
C735 C731 1.393 1_554 S
C735 C734 1.391 . S
H736 C744 0.950 . S
H737 C749 0.950 . S
H738 C746 0.950 . S
H739 C748 0.950 . S
H740 C750 0.950 . S
H741 C752 0.950 . S
H742 C754 0.950 . S
H743 C755 0.950 . S
C744 H736 0.950 . S
C744 C745 1.386 . S
C744 C746 1.391 . S
C745 C744 1.386 . S
C745 C749 1.393 1_455 S
C746 H738 0.950 . S
C746 C744 1.391 . S
C746 C747 1.400 . S
C747 C746 1.400 . S
C747 C748 1.398 1_455 S
C747 C753 1.491 . S
C748 H739 0.950 . S
C748 C747 1.398 1_655 S
C748 C749 1.391 . S
C749 H737 0.950 . S
C749 C745 1.393 1_655 S
C749 C748 1.391 . S
C750 H740 0.950 . S
C750 C751 1.386 1_655 S
C750 C752 1.391 . S
C751 C750 1.386 1_455 S
C751 C755 1.393 . S
C752 H741 0.950 . S
C752 C750 1.391 . S
C752 C753 1.400 1_655 S
C753 C747 1.491 . S
C753 C752 1.400 1_455 S
C753 C754 1.398 . S
C754 H742 0.950 . S
C754 C753 1.398 . S
C754 C755 1.391 . S
C755 H743 0.950 . S
C755 C751 1.393 . S
C755 C754 1.391 . S
H756 C764 0.950 . S
H757 C769 0.950 . S
H758 C766 0.950 . S
H759 C768 0.950 . S
H760 C770 0.950 . S
H761 C772 0.950 . S
H762 C774 0.950 . S
H763 C775 0.950 . S
C764 H756 0.950 . S
C764 C765 1.386 . S
C764 C766 1.391 . S
C765 C764 1.386 . S
C765 C769 1.393 1_545 S
C766 H758 0.950 . S
C766 C764 1.391 . S
C766 C767 1.400 . S
C767 C766 1.400 . S
C767 C768 1.398 1_545 S
C767 C773 1.491 . S
C768 H759 0.950 . S
C768 C767 1.398 1_565 S
C768 C769 1.391 . S
C769 H757 0.950 . S
C769 C765 1.393 1_565 S
C769 C768 1.391 . S
C770 H760 0.950 . S
C770 C771 1.386 1_565 S
C770 C772 1.391 . S
C771 C770 1.386 1_545 S
C771 C775 1.393 . S
C772 H761 0.950 . S
C772 C770 1.391 . S
C772 C773 1.400 1_565 S
C773 C767 1.491 . S
C773 C772 1.400 1_545 S
C773 C774 1.398 . S
C774 H762 0.950 . S
C774 C773 1.398 . S
C774 C775 1.391 . S
C775 H763 0.950 . S
C775 C771 1.393 . S
C775 C774 1.391 . S
H776 C784 0.950 . S
H777 C789 0.950 . S
H778 C786 0.950 . S
H779 C788 0.950 . S
H780 C790 0.950 . S
H781 C792 0.950 . S
H782 C794 0.950 . S
H783 C795 0.950 . S
C784 H776 0.950 . S
C784 C785 1.386 . S
C784 C786 1.391 . S
C785 C784 1.386 . S
C785 C789 1.393 . S
C786 H778 0.950 . S
C786 C784 1.391 . S
C786 C787 1.400 . S
C787 C786 1.400 . S
C787 C788 1.398 . S
C787 C793 1.491 . S
C788 H779 0.950 . S
C788 C787 1.398 . S
C788 C789 1.391 . S
C789 H777 0.950 . S
C789 C785 1.393 . S
C789 C788 1.391 . S
C790 H780 0.950 . S
C790 C791 1.386 . S
C790 C792 1.391 . S
C791 C790 1.386 . S
C791 C795 1.393 . S
C792 H781 0.950 . S
C792 C790 1.391 . S
C792 C793 1.400 . S
C793 C787 1.491 . S
C793 C792 1.400 . S
C793 C794 1.398 . S
C794 H782 0.950 . S
C794 C793 1.398 . S
C794 C795 1.391 . S
C795 H783 0.950 . S
C795 C791 1.393 . S
C795 C794 1.391 . S
H796 C804 0.950 . S
H797 C809 0.950 . S
H798 C806 0.950 . S
H799 C808 0.950 . S
H800 C810 0.950 . S
H801 C812 0.950 . S
H802 C814 0.950 . S
H803 C815 0.950 . S
C804 H796 0.950 . S
C804 C805 1.386 . S
C804 C806 1.391 . S
C805 C804 1.386 . S
C805 C809 1.393 . S
C806 H798 0.950 . S
C806 C804 1.391 . S
C806 C807 1.400 . S
C807 C806 1.400 . S
C807 C808 1.398 . S
C807 C813 1.491 . S
C808 H799 0.950 . S
C808 C807 1.398 . S
C808 C809 1.391 . S
C809 H797 0.950 . S
C809 C805 1.393 . S
C809 C808 1.391 . S
C810 H800 0.950 . S
C810 C811 1.386 . S
C810 C812 1.391 . S
C811 C810 1.386 . S
C811 C815 1.393 . S
C812 H801 0.950 . S
C812 C810 1.391 . S
C812 C813 1.400 . S
C813 C807 1.491 . S
C813 C812 1.400 . S
C813 C814 1.398 . S
C814 H802 0.950 . S
C814 C813 1.398 . S
C814 C815 1.391 . S
C815 H803 0.950 . S
C815 C811 1.393 . S
C815 C814 1.391 . S
H816 C824 0.950 . S
H817 C829 0.950 . S
H818 C826 0.950 . S
H819 C828 0.950 . S
H820 C830 0.950 . S
H821 C832 0.950 . S
H822 C834 0.950 . S
H823 C835 0.950 . S
C824 H816 0.950 . S
C824 C825 1.386 . S
C824 C826 1.391 . S
C825 C824 1.386 . S
C825 C829 1.393 . S
C826 H818 0.950 . S
C826 C824 1.391 . S
C826 C827 1.400 . S
C827 C826 1.400 . S
C827 C828 1.398 . S
C827 C833 1.491 . S
C828 H819 0.950 . S
C828 C827 1.398 . S
C828 C829 1.391 . S
C829 H817 0.950 . S
C829 C825 1.393 . S
C829 C828 1.391 . S
C830 H820 0.950 . S
C830 C831 1.386 . S
C830 C832 1.391 . S
C831 C830 1.386 . S
C831 C835 1.393 . S
C832 H821 0.950 . S
C832 C830 1.391 . S
C832 C833 1.400 . S
C833 C827 1.491 . S
C833 C832 1.400 . S
C833 C834 1.398 . S
C834 H822 0.950 . S
C834 C833 1.398 . S
C834 C835 1.391 . S
C835 H823 0.950 . S
C835 C831 1.393 . S
C835 C834 1.391 . S
H836 C844 0.950 . S
H837 C849 0.950 . S
H838 C846 0.950 . S
H839 C848 0.950 . S
H840 C850 0.950 . S
H841 C852 0.950 . S
H842 C854 0.950 . S
H843 C855 0.950 . S
C844 H836 0.950 . S
C844 C845 1.386 . S
C844 C846 1.391 . S
C845 C844 1.386 . S
C845 C849 1.393 1_565 S
C846 H838 0.950 . S
C846 C844 1.391 . S
C846 C847 1.400 . S
C847 C846 1.400 . S
C847 C848 1.398 1_565 S
C847 C853 1.491 . S
C848 H839 0.950 . S
C848 C847 1.398 1_545 S
C848 C849 1.391 . S
C849 H837 0.950 . S
C849 C845 1.393 1_545 S
C849 C848 1.391 . S
C850 H840 0.950 . S
C850 C851 1.386 1_545 S
C850 C852 1.391 . S
C851 C850 1.386 1_565 S
C851 C855 1.393 . S
C852 H841 0.950 . S
C852 C850 1.391 . S
C852 C853 1.400 1_545 S
C853 C847 1.491 . S
C853 C852 1.400 1_565 S
C853 C854 1.398 . S
C854 H842 0.950 . S
C854 C853 1.398 . S
C854 C855 1.391 . S
C855 H843 0.950 . S
C855 C851 1.393 . S
C855 C854 1.391 . S
H856 C864 0.950 . S
H857 C869 0.950 . S
H858 C866 0.950 . S
H859 C868 0.950 . S
H860 C870 0.950 . S
H861 C872 0.950 . S
H862 C874 0.950 . S
H863 C875 0.950 . S
C864 H856 0.950 . S
C864 C865 1.386 . S
C864 C866 1.391 . S
C865 C864 1.386 . S
C865 C869 1.393 . S
C866 H858 0.950 . S
C866 C864 1.391 . S
C866 C867 1.400 . S
C867 C866 1.400 . S
C867 C868 1.398 . S
C867 C873 1.491 . S
C868 H859 0.950 . S
C868 C867 1.398 . S
C868 C869 1.391 . S
C869 H857 0.950 . S
C869 C865 1.393 . S
C869 C868 1.391 . S
C870 H860 0.950 . S
C870 C871 1.386 . S
C870 C872 1.391 . S
C871 C870 1.386 . S
C871 C875 1.393 . S
C872 H861 0.950 . S
C872 C870 1.391 . S
C872 C873 1.400 . S
C873 C867 1.491 . S
C873 C872 1.400 . S
C873 C874 1.398 . S
C874 H862 0.950 . S
C874 C873 1.398 . S
C874 C875 1.391 . S
C875 H863 0.950 . S
C875 C871 1.393 . S
C875 C874 1.391 . S
H876 C884 0.950 . S
H877 C889 0.950 . S
H878 C886 0.950 . S
H879 C888 0.950 . S
H880 C890 0.950 . S
H881 C892 0.950 . S
H882 C894 0.950 . S
H883 C895 0.950 . S
C884 H876 0.950 . S
C884 C885 1.386 . S
C884 C886 1.391 . S
C885 C884 1.386 . S
C885 C889 1.393 . S
C886 H878 0.950 . S
C886 C884 1.391 . S
C886 C887 1.400 . S
C887 C886 1.400 . S
C887 C888 1.398 . S
C887 C893 1.491 . S
C888 H879 0.950 . S
C888 C887 1.398 . S
C888 C889 1.391 . S
C889 H877 0.950 . S
C889 C885 1.393 . S
C889 C888 1.391 . S
C890 H880 0.950 . S
C890 C891 1.386 . S
C890 C892 1.391 . S
C891 C890 1.386 . S
C891 C895 1.393 . S
C892 H881 0.950 . S
C892 C890 1.391 . S
C892 C893 1.400 . S
C893 C887 1.491 . S
C893 C892 1.400 . S
C893 C894 1.398 . S
C894 H882 0.950 . S
C894 C893 1.398 . S
C894 C895 1.391 . S
C895 H883 0.950 . S
C895 C891 1.393 . S
C895 C894 1.391 . S
C425 C215 1.992 1_565 S
C431 C265 2.160 1_545 S
C451 C305 2.180 . S
C445 C247 1.984 . S
C471 C345 2.186 . S
C465 C151 2.017 . S
C491 C385 2.168 1_455 S
C485 C183 2.010 1_655 S
C511 C274 2.161 1_565 S
C505 C87 2.001 . S
C525 C119 2.009 . S
C531 C314 2.184 . S
C545 C23 2.017 . S
C551 C354 2.186 . S
C565 C55 1.987 1_655 S
C571 C394 2.165 1_655 S
C591 C271 0.468 . S
C585 C189 0.360 . S
C611 C311 0.460 . S
C605 C221 0.390 . S
C631 C351 0.399 . S
C625 C253 0.415 . S
C645 C157 0.397 . S
C651 C391 0.394 . S
C665 C61 0.479 1_655 S
C671 C262 0.398 . S
C691 C302 0.475 . S
C685 C93 0.558 1_565 S
C711 C342 0.426 . S
C705 C125 0.515 . S
C725 C29 0.518 . S
C731 C382 0.426 . S
C745 C177 2.502 . S
C751 C275 2.813 . S
C765 C209 2.463 . S
C771 C315 2.779 . S
C791 C355 2.764 . S
C785 C241 2.444 . S
C811 C395 2.800 . S
C805 C145 2.469 . S
C825 C49 2.545 1_655 S
C831 C266 2.822 . S
C851 C306 2.782 . S
C845 C81 2.506 1_565 S
C871 C346 2.757 . S
C865 C113 2.480 . S
C885 C17 2.532 . S
C891 C386 2.813 . S
