# Generated by pormake.
# Topology cml, (3,6)-cn, num edge types: 1
# Building blocks:
#     Node 0, Type 0, BuildingBlock: ESEHIV_clean_linker_0, # of connection points: 3
#     Node 1, Type 0, BuildingBlock: ESEHIV_clean_linker_0, # of connection points: 3
#     Node 2, Type 0, BuildingBlock: ESEHIV_clean_linker_0, # of connection points: 3
#     Node 3, Type 0, BuildingBlock: ESEHIV_clean_linker_0, # of connection points: 3
#     Node 4, Type 0, BuildingBlock: ESEHIV_clean_linker_0, # of connection points: 3
#     Node 5, Type 0, BuildingBlock: ESEHIV_clean_linker_0, # of connection points: 3
#     Node 6, Type 0, BuildingBlock: ESEHIV_clean_linker_0, # of connection points: 3
#     Node 7, Type 0, BuildingBlock: ESEHIV_clean_linker_0, # of connection points: 3
#     Node 8, Type 1, BuildingBlock: IZENUY_clean_sbu_0, # of connection points: 6
#     Node 9, Type 1, BuildingBlock: IZENUY_clean_sbu_0, # of connection points: 6
#     Node 10, Type 1, BuildingBlock: IZENUY_clean_sbu_0, # of connection points: 6
#     Node 11, Type 1, BuildingBlock: IZENUY_clean_sbu_0, # of connection points: 6
#     Edge 12, Type (0, 1), BuildingBlock: AJUNOK_clean_linker_0, # of connection points: 2
#     Edge 13, Type (0, 1), BuildingBlock: AJUNOK_clean_linker_0, # of connection points: 2
#     Edge 14, Type (0, 1), BuildingBlock: AJUNOK_clean_linker_0, # of connection points: 2
#     Edge 15, Type (0, 1), BuildingBlock: AJUNOK_clean_linker_0, # of connection points: 2
#     Edge 16, Type (0, 1), BuildingBlock: AJUNOK_clean_linker_0, # of connection points: 2
#     Edge 17, Type (0, 1), BuildingBlock: AJUNOK_clean_linker_0, # of connection points: 2
#     Edge 18, Type (0, 1), BuildingBlock: AJUNOK_clean_linker_0, # of connection points: 2
#     Edge 19, Type (0, 1), BuildingBlock: AJUNOK_clean_linker_0, # of connection points: 2
#     Edge 20, Type (0, 1), BuildingBlock: AJUNOK_clean_linker_0, # of connection points: 2
#     Edge 21, Type (0, 1), BuildingBlock: AJUNOK_clean_linker_0, # of connection points: 2
#     Edge 22, Type (0, 1), BuildingBlock: AJUNOK_clean_linker_0, # of connection points: 2
#     Edge 23, Type (0, 1), BuildingBlock: AJUNOK_clean_linker_0, # of connection points: 2
#     Edge 24, Type (0, 1), BuildingBlock: AJUNOK_clean_linker_0, # of connection points: 2
#     Edge 25, Type (0, 1), BuildingBlock: AJUNOK_clean_linker_0, # of connection points: 2
#     Edge 26, Type (0, 1), BuildingBlock: AJUNOK_clean_linker_0, # of connection points: 2
#     Edge 27, Type (0, 1), BuildingBlock: AJUNOK_clean_linker_0, # of connection points: 2
#     Edge 28, Type (0, 1), BuildingBlock: AJUNOK_clean_linker_0, # of connection points: 2
#     Edge 29, Type (0, 1), BuildingBlock: AJUNOK_clean_linker_0, # of connection points: 2
#     Edge 30, Type (0, 1), BuildingBlock: AJUNOK_clean_linker_0, # of connection points: 2
#     Edge 31, Type (0, 1), BuildingBlock: AJUNOK_clean_linker_0, # of connection points: 2
#     Edge 32, Type (0, 1), BuildingBlock: AJUNOK_clean_linker_0, # of connection points: 2
#     Edge 33, Type (0, 1), BuildingBlock: AJUNOK_clean_linker_0, # of connection points: 2
#     Edge 34, Type (0, 1), BuildingBlock: AJUNOK_clean_linker_0, # of connection points: 2
#     Edge 35, Type (0, 1), BuildingBlock: AJUNOK_clean_linker_0, # of connection points: 2
# Relax obj value: 0.055
# Max RMSD: 0.070
# Mean RMSD: 0.067
data_MOF--net-cml--node1-IZENUY_clean_sbu_0--node2-ESEHIV_clean_linker_0--edge1-AJUNOK_clean_linker_0
_symmetry_space_group_name_H-M    P1
_symmetry_Int_Tables_number       1
_symmetry_cell_setting            triclinic
loop_
_symmetry_equiv_pos_as_xyz
'x, y, z'
_cell_length_a     23.903334
_cell_length_b     27.768091
_cell_length_c     25.81429
_cell_angle_alpha  90.067519
_cell_angle_beta   89.897591
_cell_angle_gamma 89.726299
loop_
_atom_site_label
_atom_site_type_symbol
_atom_site_fract_x
_atom_site_fract_y
_atom_site_fract_z
_atom_type_partial_charge
H0 H 0.37085 0.43825 0.04778 0.0
H1 H 0.27861 0.39282 0.9137 0.0
H2 H 0.25754 0.3196 0.06001 0.0
C3 C 0.34041 0.41459 0.02997 0.0
C4 C 0.31574 0.37837 0.05974 0.0
C5 C 0.32804 0.41964 0.97718 0.0
C6 C 0.28822 0.38914 0.95452 0.0
C7 C 0.26267 0.35251 0.98398 0.0
C8 C 0.27698 0.34731 0.03667 0.0
H9 H 0.65562 0.58376 0.54649 0.0
H10 H 0.75784 0.62027 0.41564 0.0
H11 H 0.76644 0.70437 0.55633 0.0
C12 C 0.68756 0.6061 0.52897 0.0
C13 C 0.70909 0.64493 0.5571 0.0
C14 C 0.70603 0.59621 0.47846 0.0
C15 C 0.74506 0.62696 0.45528 0.0
C16 C 0.76792 0.66585 0.48313 0.0
C17 C 0.74913 0.67487 0.53409 0.0
H18 H 0.65643 0.43725 0.05294 0.0
H19 H 0.75718 0.30861 0.05503 0.0
H20 H 0.77407 0.41097 0.93035 0.0
C21 C 0.68914 0.41509 0.03592 0.0
C22 C 0.71384 0.4294 0.98922 0.0
C23 C 0.70458 0.37179 0.06011 0.0
C24 C 0.74592 0.34259 0.03714 0.0
C25 C 0.77077 0.35614 0.98977 0.0
C26 C 0.7547 0.39982 0.96636 0.0
H27 H 0.37223 0.5887 0.54835 0.0
H28 H 0.25695 0.62076 0.42648 0.0
H29 H 0.26245 0.71128 0.56269 0.0
C30 C 0.33869 0.61108 0.53325 0.0
C31 C 0.3204 0.65147 0.56128 0.0
C32 C 0.31572 0.59986 0.48515 0.0
C33 C 0.27292 0.62868 0.4648 0.0
C34 C 0.25241 0.66864 0.49292 0.0
C35 C 0.2767 0.67995 0.54126 0.0
H36 H 0.85247 0.9515 0.05876 0.0
H37 H 0.74829 0.9174 0.9286 0.0
H38 H 0.75335 0.82309 0.06134 0.0
C39 C 0.82129 0.92869 0.0408 0.0
C40 C 0.80398 0.88688 0.06637 0.0
C41 C 0.80168 0.93985 0.99115 0.0
C42 C 0.76385 0.90859 0.96686 0.0
C43 C 0.74607 0.86622 0.99182 0.0
C44 C 0.7663 0.85573 0.04181 0.0
H45 H 0.15504 0.08251 0.55041 0.0
H46 H 0.25598 0.1236 0.42062 0.0
H47 H 0.27367 0.19627 0.56789 0.0
C48 C 0.18797 0.10464 0.53421 0.0
C49 C 0.2122 0.1406 0.56475 0.0
C50 C 0.20458 0.09748 0.48271 0.0
C51 C 0.2443 0.12848 0.46081 0.0
C52 C 0.26893 0.16545 0.49047 0.0
C53 C 0.25345 0.17018 0.54313 0.0
H54 H 0.15273 0.93432 0.04881 0.0
H55 H 0.26338 0.81292 0.06326 0.0
H56 H 0.25977 0.89526 0.92161 0.0
C57 C 0.18516 0.91138 0.03255 0.0
C58 C 0.20423 0.91991 0.98201 0.0
C59 C 0.20656 0.8733 0.06225 0.0
C60 C 0.24634 0.84206 0.04019 0.0
C61 C 0.26549 0.84945 0.98911 0.0
C62 C 0.24453 0.88879 0.96053 0.0
H63 H 0.85367 0.0764 0.55884 0.0
H64 H 0.75253 0.11675 0.42842 0.0
H65 H 0.75274 0.20442 0.56677 0.0
C66 C 0.8229 0.1002 0.54141 0.0
C67 C 0.80478 0.14098 0.56874 0.0
C68 C 0.80408 0.09099 0.49105 0.0
C69 C 0.76652 0.12339 0.4677 0.0
C70 C 0.74758 0.1646 0.4946 0.0
C71 C 0.76723 0.17321 0.54526 0.0
Fe72 Fe 0.01053 0.80772 0.31326 0.0
Fe73 Fe 1.00893 0.86706 0.41421 0.0
O74 O 1.00915 0.86435 0.34562 0.0
Fe75 Fe 1.00724 0.91833 0.3091 0.0
O76 O 0.94211 0.90106 0.27879 0.0
O77 O 0.9687 0.82799 0.25755 0.0
O78 O 0.94569 0.78938 0.3436 0.0
C79 C 0.9365 0.78949 0.3917 0.0
C80 C 0.08261 0.85901 0.25269 0.0
O81 O 0.96749 0.81228 0.4228 0.0
C82 C 0.08028 0.94421 0.38503 0.0
O83 O 0.05227 0.77699 0.36314 0.0
O84 O 0.07457 0.83416 0.41819 0.0
O85 O 0.04898 0.89425 0.25543 0.0
O86 O 0.07568 0.82195 0.2802 0.0
C87 C 0.93444 0.93971 0.39307 0.0
O88 O 0.05008 0.92247 0.4178 0.0
O89 O 0.07203 0.93956 0.33709 0.0
C90 C 0.08282 0.79283 0.39934 0.0
O91 O 0.94321 0.90018 0.41566 0.0
O92 O 0.9655 0.95272 0.35601 0.0
C93 C 0.93544 0.8633 0.2524 0.0
Fe94 Fe 0.01519 0.15713 0.9149 0.0
Fe95 Fe 0.00998 0.10418 0.81097 0.0
O96 O 0.01326 0.15866 0.84637 0.0
Fe97 Fe 0.01382 0.21477 0.81336 0.0
O98 O 0.05801 0.24523 0.86179 0.0
O99 O 0.08193 0.18768 0.91586 0.0
O100 O 0.05435 0.10027 0.91878 0.0
C101 C 0.08397 0.07767 0.88602 0.0
C102 C 0.94295 0.23555 0.89402 0.0
O103 O 0.07521 0.08232 0.83817 0.0
C104 C 0.93681 0.15921 0.75487 0.0
O105 O 0.94837 0.12624 0.91835 0.0
O106 O 0.96864 0.07193 0.85939 0.0
O107 O 0.9497 0.23383 0.84555 0.0
O108 O 0.97645 0.21372 0.92387 0.0
C109 C 0.08462 0.16129 0.75241 0.0
O110 O 0.94445 0.12175 0.78145 0.0
O111 O 0.96997 0.19451 0.75894 0.0
C112 C 0.93791 0.08681 0.89606 0.0
O113 O 0.05081 0.12656 0.75624 0.0
O114 O 0.07784 0.19931 0.77864 0.0
C115 C 0.09101 0.22825 0.8957 0.0
Fe116 Fe 0.5085 0.30594 0.31501 0.0
Fe117 Fe 0.50867 0.3684 0.41395 0.0
O118 O 0.50944 0.36342 0.34552 0.0
Fe119 Fe 0.51082 0.4165 0.30735 0.0
O120 O 0.44427 0.40153 0.2782 0.0
O121 O 0.46553 0.32624 0.2598 0.0
O122 O 0.4438 0.28915 0.34694 0.0
C123 C 0.43481 0.29082 0.39505 0.0
C124 C 0.5798 0.35262 0.24974 0.0
O125 O 0.46544 0.31523 0.42489 0.0
C126 C 0.58534 0.44055 0.38271 0.0
O127 O 0.55078 0.27587 0.36502 0.0
O128 O 0.57297 0.33365 0.41963 0.0
O129 O 0.5489 0.38944 0.25324 0.0
O130 O 0.57357 0.31757 0.28015 0.0
C131 C 0.43933 0.44362 0.38978 0.0
O132 O 0.55214 0.42236 0.41547 0.0
O133 O 0.57754 0.43505 0.33462 0.0
C134 C 0.58171 0.29238 0.40063 0.0
O135 O 0.44407 0.40399 0.41338 0.0
O136 O 0.47263 0.45409 0.35359 0.0
C137 C 0.43481 0.36323 0.25335 0.0
Fe138 Fe 0.51609 0.65606 0.91377 0.0
Fe139 Fe 0.52024 0.60655 0.80795 0.0
O140 O 0.51717 0.65981 0.84538 0.0
Fe141 Fe 0.51566 0.71684 0.81461 0.0
O142 O 0.57982 0.73496 0.84658 0.0
O143 O 0.55367 0.71278 0.92445 0.0
O144 O 0.58343 0.62545 0.91504 0.0
C145 C 0.59296 0.586 0.8922 0.0
C146 C 0.43907 0.72732 0.89821 0.0
O147 O 0.56214 0.57257 0.85503 0.0
C148 C 0.44657 0.66678 0.75061 0.0
O149 O 0.47869 0.59858 0.91587 0.0
O150 O 0.45494 0.58434 0.8352 0.0
O151 O 0.47167 0.74553 0.86474 0.0
O152 O 0.44869 0.68607 0.91667 0.0
C153 C 0.59203 0.66262 0.75245 0.0
O154 O 0.47961 0.63118 0.75392 0.0
O155 O 0.45142 0.70264 0.78023 0.0
C156 C 0.44839 0.57716 0.88305 0.0
O157 O 0.58549 0.62469 0.77847 0.0
O158 O 0.55922 0.69822 0.75885 0.0
C159 C 0.58626 0.73603 0.89505 0.0
C160 C 0.17718 0.33879 0.92973 0.0
C161 C 0.22103 0.31974 0.9598 0.0
C162 C 0.13599 0.30892 0.9084 0.0
C163 C 0.13684 0.25873 0.91642 0.0
H164 H 0.17392 0.37729 0.92357 0.0
H165 H 0.10254 0.32553 0.88639 0.0
S166 S 0.24613 0.19032 0.98773 0.0
N167 N 0.26538 0.24713 0.99304 0.0
N168 N 0.18769 0.19104 0.95377 0.0
C169 C 0.18139 0.23907 0.94527 0.0
C170 C 0.22347 0.26951 0.96675 0.0
C171 C 0.80929 0.74723 0.46553 0.0
C172 C 0.81152 0.69683 0.45911 0.0
C173 C 0.8499 0.77714 0.44336 0.0
C174 C 0.8933 0.75778 0.41304 0.0
H175 H 0.77573 0.7638 0.48757 0.0
H176 H 0.84707 0.81569 0.44953 0.0
S177 S 0.92156 0.62878 0.38761 0.0
N178 N 0.86424 0.62907 0.42342 0.0
N179 N 0.93833 0.68588 0.37939 0.0
C180 C 0.89641 0.70781 0.40628 0.0
C181 C 0.85602 0.67717 0.42985 0.0
C182 C 0.85835 0.30638 0.99345 0.0
C183 C 0.81331 0.32465 0.96449 0.0
C184 C 0.89989 0.27776 0.97026 0.0
C185 C 0.8982 0.26625 0.91705 0.0
H186 H 0.86203 0.31488 0.03427 0.0
H187 H 0.9339 0.26497 0.99433 0.0
S188 S 0.78627 0.30194 0.82501 0.0
N189 N 0.7674 0.32682 0.88052 0.0
N190 N 0.84577 0.27357 0.83669 0.0
C191 C 0.8528 0.2837 0.88779 0.0
C192 C 0.81035 0.31272 0.91153 0.0
C193 C 0.21291 0.75026 0.47102 0.0
C194 C 0.20765 0.69975 0.47043 0.0
C195 C 0.1723 0.78011 0.44818 0.0
C196 C 0.12516 0.76062 0.42336 0.0
H197 H 0.24922 0.76689 0.48843 0.0
H198 H 0.17838 0.81875 0.44925 0.0
S199 S 0.08888 0.63094 0.41548 0.0
N200 N 0.14921 0.63186 0.44646 0.0
N201 N 0.07388 0.68771 0.40237 0.0
C202 C 0.11891 0.71023 0.42325 0.0
C203 C 0.15986 0.67991 0.44704 0.0
C204 C 0.66013 0.815 0.99359 0.0
C205 C 0.70636 0.83282 0.96597 0.0
C206 C 0.6219 0.78359 0.97038 0.0
C207 C 0.62807 0.76888 0.91843 0.0
H208 H 0.65299 0.82587 0.03338 0.0
H209 H 0.58677 0.77129 0.99331 0.0
S210 S 0.74436 0.8024 0.83027 0.0
N211 N 0.75806 0.83124 0.88474 0.0
N212 N 0.68556 0.77297 0.84072 0.0
C213 C 0.67446 0.78603 0.89046 0.0
C214 C 0.71369 0.81781 0.91428 0.0
C215 C 0.34818 0.18119 0.42805 0.0
C216 C 0.31066 0.1986 0.46616 0.0
C217 C 0.38698 0.21157 0.40391 0.0
C218 C 0.39122 0.26017 0.41816 0.0
H219 H 0.34841 0.14355 0.41712 0.0
H220 H 0.4151 0.19654 0.37509 0.0
S221 S 0.30337 0.32477 0.5142 0.0
N222 N 0.2788 0.26938 0.51406 0.0
N223 N 0.35557 0.3248 0.47227 0.0
C224 C 0.3549 0.27816 0.45633 0.0
C225 C 0.31381 0.24783 0.47949 0.0
C226 C 0.35478 0.83713 0.93969 0.0
C227 C 0.30869 0.81719 0.96587 0.0
C228 C 0.39618 0.8078 0.9174 0.0
C229 C 0.39349 0.75726 0.9207 0.0
H230 H 0.35936 0.87584 0.93698 0.0
H231 H 0.4311 0.82502 0.89822 0.0
S232 S 0.27935 0.6869 0.98169 0.0
N233 N 0.26109 0.74366 0.99119 0.0
N234 N 0.33951 0.68845 0.95023 0.0
C235 C 0.3473 0.73677 0.94625 0.0
C236 C 0.30485 0.76671 0.96864 0.0
C237 C 0.65888 0.17972 0.44517 0.0
C238 C 0.70671 0.1981 0.46989 0.0
C239 C 0.61916 0.21042 0.42239 0.0
C240 C 0.62543 0.2608 0.42365 0.0
H241 H 0.65158 0.14126 0.44414 0.0
H242 H 0.58268 0.19449 0.40451 0.0
S243 S 0.74613 0.32693 0.47865 0.0
N244 N 0.76019 0.26977 0.49073 0.0
N245 N 0.68524 0.32744 0.44853 0.0
C246 C 0.67363 0.27962 0.44728 0.0
C247 C 0.71427 0.24833 0.47024 0.0
C248 C 0.33059 0.49149 0.91763 0.0
C249 C 0.35911 0.45592 0.94635 0.0
C250 C 0.35973 0.53008 0.89486 0.0
C251 C 0.41799 0.53412 0.90057 0.0
H252 H 0.2854 0.49064 0.91474 0.0
H253 H 0.33643 0.55788 0.87475 0.0
S254 S 0.51274 0.44696 0.96529 0.0
N255 N 0.44953 0.42447 0.97365 0.0
N256 N 0.50361 0.49728 0.93233 0.0
C257 C 0.44706 0.49748 0.9267 0.0
C258 C 0.41778 0.45824 0.94918 0.0
C259 C 0.66242 0.55829 0.3998 0.0
C260 C 0.68385 0.55369 0.45036 0.0
C261 C 0.63407 0.52001 0.3759 0.0
C262 C 0.62596 0.47617 0.40207 0.0
H263 H 0.66491 0.59243 0.37968 0.0
H264 H 0.6153 0.52589 0.33825 0.0
S265 S 0.68197 0.44344 0.53132 0.0
N266 N 0.70195 0.49965 0.52251 0.0
N267 N 0.6468 0.4287 0.47871 0.0
C268 C 0.65046 0.47022 0.4511 0.0
C269 C 0.67987 0.50872 0.47498 0.0
C270 C 0.67306 0.4692 0.9112 0.0
C271 C 0.69253 0.47296 0.96233 0.0
C272 C 0.64376 0.50717 0.88787 0.0
C273 C 0.63275 0.55047 0.91473 0.0
H274 H 0.6778 0.43571 0.89001 0.0
H275 H 0.62755 0.5016 0.84918 0.0
S276 S 0.68254 0.58059 0.04706 0.0
N277 N 0.70468 0.52491 0.03718 0.0
N278 N 0.64936 0.59644 0.99363 0.0
C279 C 0.65555 0.55585 0.96468 0.0
C280 C 0.68532 0.51702 0.98844 0.0
C281 C 0.39168 0.56873 0.42885 0.0
C282 C 0.34122 0.56038 0.45495 0.0
C283 C 0.42201 0.53067 0.4068 0.0
C284 C 0.40342 0.48269 0.41079 0.0
H285 H 0.4087 0.60479 0.42692 0.0
H286 H 0.46146 0.53886 0.38813 0.0
S287 S 0.27083 0.44313 0.47163 0.0
N288 N 0.27177 0.50195 0.48116 0.0
N289 N 0.32895 0.42978 0.43976 0.0
C290 C 0.35195 0.47418 0.43549 0.0
C291 C 0.32077 0.51323 0.45755 0.0
C292 C 0.85162 0.97385 0.91475 0.0
C293 C 0.82627 0.98133 0.96319 0.0
C294 C 0.88527 1.00928 0.89225 0.0
C295 C 0.89502 0.05363 0.91735 0.0
H296 H 0.84817 0.93932 0.89545 0.0
H297 H 0.90566 1.00083 0.85583 0.0
S298 S 0.83 0.09364 0.04099 0.0
N299 N 0.80693 0.03823 0.03259 0.0
N300 N 0.87044 0.105 0.99058 0.0
C301 C 0.86632 0.06288 0.96403 0.0
C302 C 0.832 0.02667 0.98691 0.0
C303 C 0.17465 0.01172 0.47643 0.0
C304 C 0.17969 0.05717 0.45282 0.0
C305 C 0.14476 0.97457 0.45281 0.0
C306 C 0.11943 0.98109 0.40425 0.0
H307 H 0.19252 1.00525 0.51435 0.0
H308 H 0.1401 0.94086 0.47345 0.0
S309 S 0.12299 0.09204 0.32442 0.0
N310 N 0.15858 0.106 0.37707 0.0
N311 N 0.10379 0.03541 0.3318 0.0
C312 C 0.12682 0.02533 0.37867 0.0
C313 C 0.15666 0.06356 0.40315 0.0
C314 C 0.17507 1.00641 0.97791 0.0
C315 C 0.18124 0.96169 0.95273 0.0
C316 C 0.14604 0.04455 0.95473 0.0
C317 C 0.12255 0.03981 0.90512 0.0
H318 H 0.19128 0.01151 0.0167 0.0
H319 H 0.14051 0.0776 0.97656 0.0
S320 S 0.13049 0.93159 0.82087 0.0
N321 N 0.16383 0.91568 0.8742 0.0
N322 N 0.11052 0.98799 0.82994 0.0
C323 C 0.13137 0.99639 0.87803 0.0
C324 C 0.16044 0.95718 0.90199 0.0
C325 C 0.8555 0.0572 0.4148 0.0
C326 C 0.82804 0.04948 0.46216 0.0
C327 C 0.88756 0.02067 0.39157 0.0
C328 C 0.89342 0.97491 0.41478 0.0
H329 H 0.85474 0.09249 0.39696 0.0
H330 H 0.90974 0.02918 0.35614 0.0
S331 S 0.82231 0.93468 0.5352 0.0
N332 N 0.80322 0.99157 0.52867 0.0
N333 N 0.86334 0.92271 0.48525 0.0
C334 C 0.86285 0.96586 0.46044 0.0
C335 C 0.83031 1.00319 0.48409 0.0
C336 C 0.36274 0.32872 0.1276 0.0
C337 C 0.33487 0.37142 0.11377 0.0
C338 C 0.39226 0.32534 0.17441 0.0
C339 C 0.39488 0.36456 0.20913 0.0
H340 H 0.36468 0.29881 0.10064 0.0
H341 H 0.4155 0.29253 0.18203 0.0
S342 S 0.32048 0.48157 0.19387 0.0
N343 N 0.30582 0.4515 0.14042 0.0
N344 N 0.36039 0.44537 0.22873 0.0
C345 C 0.36323 0.40611 0.1973 0.0
C346 C 0.33355 0.40951 0.14951 0.0
C347 C 0.65787 0.6949 0.62276 0.0
C348 C 0.68879 0.65326 0.61061 0.0
C349 C 0.62926 0.69898 0.67018 0.0
C350 C 0.63074 0.66156 0.70714 0.0
H351 H 0.65322 0.72328 0.5943 0.0
H352 H 0.60365 0.7307 0.67669 0.0
S353 S 0.71347 0.54822 0.69602 0.0
N354 N 0.72443 0.57635 0.64066 0.0
N355 N 0.67182 0.58387 0.73 0.0
C356 C 0.66516 0.62128 0.69661 0.0
C357 C 0.69379 0.61713 0.64826 0.0
C358 C 0.61554 0.35921 0.10824 0.0
C359 C 0.67434 0.35707 0.10782 0.0
C360 C 0.58537 0.35462 0.15434 0.0
C361 C 0.61269 0.34708 0.2018 0.0
H362 H 0.59271 0.36665 0.07287 0.0
H363 H 0.54028 0.35895 0.15316 0.0
S364 S 0.76537 0.33428 0.22148 0.0
N365 N 0.75864 0.34368 0.15855 0.0
N366 N 0.70123 0.33417 0.24557 0.0
C367 C 0.67105 0.34154 0.20175 0.0
C368 C 0.70209 0.34665 0.15458 0.0
C369 C 0.4093 0.66364 0.60939 0.0
C370 C 0.3504 0.66412 0.60973 0.0
C371 C 0.4398 0.66654 0.65534 0.0
C372 C 0.4127 0.671 0.70336 0.0
H373 H 0.43206 0.65902 0.57336 0.0
H374 H 0.48503 0.66394 0.65341 0.0
S375 S 0.25991 0.67845 0.72564 0.0
N376 N 0.26621 0.67224 0.66218 0.0
N377 N 0.32429 0.67926 0.74892 0.0
C378 C 0.35417 0.67476 0.70437 0.0
C379 C 0.32278 0.67109 0.65737 0.0
C380 C 0.8288 0.91086 0.15646 0.0
C381 C 0.82878 0.8755 0.11749 0.0
C382 C 0.86093 0.90526 0.20132 0.0
C383 C 0.89479 0.86419 0.20885 0.0
H384 H 0.80551 0.94407 0.15122 0.0
H385 H 0.86095 0.93445 0.2292 0.0
S386 S 0.90487 0.75894 0.12012 0.0
N387 N 0.86178 0.79652 0.09058 0.0
N388 N 0.92209 0.78544 0.17507 0.0
C389 C 0.89226 0.8271 0.17151 0.0
C390 C 0.8593 0.83289 0.12579 0.0
C391 C 0.16938 0.1934 0.6332 0.0
C392 C 0.19117 0.14823 0.61829 0.0
C393 C 0.13803 0.19862 0.67905 0.0
C394 C 0.12736 0.15871 0.71105 0.0
H395 H 0.17344 0.22412 0.60765 0.0
H396 H 0.11897 0.23321 0.68757 0.0
S397 S 0.18427 0.03516 0.69425 0.0
N398 N 0.20695 0.06488 0.64303 0.0
N399 N 0.14757 0.07442 0.72851 0.0
C400 C 0.15284 0.11445 0.69864 0.0
C401 C 0.1849 0.10927 0.65243 0.0
C402 C 0.16161 0.82265 0.13127 0.0
C403 C 0.18562 0.86663 0.11597 0.0
C404 C 0.13154 0.819 0.17801 0.0
C405 C 0.12444 0.8593 0.21053 0.0
H406 H 0.16307 0.79183 0.10553 0.0
H407 H 0.11063 0.78548 0.18692 0.0
S408 S 0.18778 0.97973 0.19254 0.0
N409 N 0.20716 0.94898 0.14068 0.0
N410 N 0.14985 0.94237 0.22762 0.0
C411 C 0.15193 0.90219 0.19751 0.0
C412 C 0.18277 0.90578 0.15046 0.0
C413 C 0.8617 0.19091 0.6295 0.0
C414 C 0.82843 0.15015 0.6208 0.0
C415 C 0.89437 0.19492 0.67446 0.0
C416 C 0.89484 0.15828 0.71231 0.0
H417 H 0.86511 0.21845 0.59997 0.0
H418 H 0.92149 0.22586 0.67821 0.0
S419 S 0.80716 0.04803 0.71081 0.0
N420 N 0.79253 0.07534 0.65568 0.0
N421 N 0.85297 0.08275 0.74046 0.0
C422 C 0.85815 0.11913 0.70559 0.0
C423 C 0.82527 0.11507 0.65975 0.0
loop_
_geom_bond_atom_site_label_1
_geom_bond_atom_site_label_2
_geom_bond_distance
_geom_bond_site_symmetry_2
_ccdc_geom_bond_type
H0 C3 0.931 . S
H1 C6 0.928 . S
H2 C8 0.930 . S
C3 H0 0.931 . S
C3 C4 1.413 . S
C3 C5 1.360 1_554 S
C4 C3 1.413 . S
C4 C8 1.429 . S
C5 C3 1.360 1_556 S
C5 C6 1.372 . S
C6 H1 0.928 . S
C6 C5 1.372 . S
C6 C7 1.404 . S
C7 C6 1.404 . S
C7 C8 1.391 1_556 S
C8 H2 0.930 . S
C8 C4 1.429 . S
C8 C7 1.391 1_554 S
H9 C12 0.931 . S
H10 C15 0.928 . S
H11 C17 0.930 . S
C12 H9 0.931 . S
C12 C13 1.413 . S
C12 C14 1.360 . S
C13 C12 1.413 . S
C13 C17 1.429 . S
C14 C12 1.360 . S
C14 C15 1.372 . S
C15 H10 0.928 . S
C15 C14 1.372 . S
C15 C16 1.404 . S
C16 C15 1.404 . S
C16 C17 1.391 . S
C17 H11 0.930 . S
C17 C13 1.429 . S
C17 C16 1.391 . S
H18 C21 0.931 . S
H19 C24 0.928 . S
H20 C26 0.930 . S
C21 H18 0.931 . S
C21 C22 1.413 1_554 S
C21 C23 1.360 . S
C22 C21 1.413 1_556 S
C22 C26 1.429 . S
C23 C21 1.360 . S
C23 C24 1.372 . S
C24 H19 0.928 . S
C24 C23 1.372 . S
C24 C25 1.404 1_554 S
C25 C24 1.404 1_556 S
C25 C26 1.391 . S
C26 H20 0.930 . S
C26 C22 1.429 . S
C26 C25 1.391 . S
H27 C30 0.931 . S
H28 C33 0.928 . S
H29 C35 0.930 . S
C30 H27 0.931 . S
C30 C31 1.413 . S
C30 C32 1.360 . S
C31 C30 1.413 . S
C31 C35 1.429 . S
C32 C30 1.360 . S
C32 C33 1.372 . S
C33 H28 0.928 . S
C33 C32 1.372 . S
C33 C34 1.404 . S
C34 C33 1.404 . S
C34 C35 1.391 . S
C35 H29 0.930 . S
C35 C31 1.429 . S
C35 C34 1.391 . S
H36 C39 0.931 . S
H37 C42 0.928 . S
H38 C44 0.930 . S
C39 H36 0.931 . S
C39 C40 1.413 . S
C39 C41 1.360 1_554 S
C40 C39 1.413 . S
C40 C44 1.429 . S
C41 C39 1.360 1_556 S
C41 C42 1.372 . S
C42 H37 0.928 . S
C42 C41 1.372 . S
C42 C43 1.404 . S
C43 C42 1.404 . S
C43 C44 1.391 1_556 S
C44 H38 0.930 . S
C44 C40 1.429 . S
C44 C43 1.391 1_554 S
H45 C48 0.931 . S
H46 C51 0.928 . S
H47 C53 0.930 . S
C48 H45 0.931 . S
C48 C49 1.413 . S
C48 C50 1.360 . S
C49 C48 1.413 . S
C49 C53 1.429 . S
C50 C48 1.360 . S
C50 C51 1.372 . S
C51 H46 0.928 . S
C51 C50 1.372 . S
C51 C52 1.404 . S
C52 C51 1.404 . S
C52 C53 1.391 . S
C53 H47 0.930 . S
C53 C49 1.429 . S
C53 C52 1.391 . S
H54 C57 0.931 . S
H55 C60 0.928 . S
H56 C62 0.930 . S
C57 H54 0.931 . S
C57 C58 1.413 1_554 S
C57 C59 1.360 . S
C58 C57 1.413 1_556 S
C58 C62 1.429 . S
C59 C57 1.360 . S
C59 C60 1.372 . S
C60 H55 0.928 . S
C60 C59 1.372 . S
C60 C61 1.404 1_554 S
C61 C60 1.404 1_556 S
C61 C62 1.391 . S
C62 H56 0.930 . S
C62 C58 1.429 . S
C62 C61 1.391 . S
H63 C66 0.931 . S
H64 C69 0.928 . S
H65 C71 0.930 . S
C66 H63 0.931 . S
C66 C67 1.413 . S
C66 C68 1.360 . S
C67 C66 1.413 . S
C67 C71 1.429 . S
C68 C66 1.360 . S
C68 C69 1.372 . S
C69 H64 0.928 . S
C69 C68 1.372 . S
C69 C70 1.404 . S
C70 C69 1.404 . S
C70 C71 1.391 . S
C71 H65 0.930 . S
C71 C67 1.429 . S
C71 C70 1.391 . S
Fe72 O74 1.918 . S
Fe72 O77 1.997 1_455 S
Fe72 O78 2.002 1_455 S
Fe72 O83 1.976 . S
Fe72 O86 1.996 . S
Fe73 O74 1.918 . S
Fe73 O81 1.997 1_455 S
Fe73 O84 1.996 . S
Fe73 O88 1.976 . S
Fe73 O91 2.002 1_455 S
O74 Fe72 1.918 . S
O74 Fe73 1.918 . S
O74 Fe75 1.918 . S
Fe75 O74 1.918 . S
Fe75 O76 2.002 1_455 S
Fe75 O85 1.976 . S
Fe75 O89 1.996 . S
Fe75 O92 1.997 1_455 S
O76 Fe75 2.002 1_655 S
O76 C93 1.295 . S
O77 Fe72 1.997 1_655 S
O77 C93 1.235 . S
O78 Fe72 2.002 1_655 S
O78 C79 1.295 . S
C79 O78 1.295 . S
C79 O81 1.235 . S
C80 O85 1.287 . S
C80 O86 1.255 . S
O81 Fe73 1.997 1_655 S
O81 C79 1.235 . S
C82 O88 1.287 . S
C82 O89 1.255 . S
O83 Fe72 1.976 . S
O83 C90 1.287 . S
O84 Fe73 1.996 . S
O84 C90 1.255 . S
O85 Fe75 1.976 . S
O85 C80 1.287 . S
O86 Fe72 1.996 . S
O86 C80 1.255 . S
C87 O91 1.295 . S
C87 O92 1.235 . S
O88 Fe73 1.976 . S
O88 C82 1.287 . S
O89 Fe75 1.996 . S
O89 C82 1.255 . S
C90 O83 1.287 . S
C90 O84 1.255 . S
O91 Fe73 2.002 1_655 S
O91 C87 1.295 . S
O92 Fe75 1.997 1_655 S
O92 C87 1.235 . S
C93 O76 1.295 . S
C93 O77 1.235 . S
Fe94 O96 1.918 . S
Fe94 O99 1.997 1_655 S
Fe94 O100 2.002 1_655 S
Fe94 O105 1.976 . S
Fe94 O108 1.996 . S
Fe95 O96 1.918 . S
Fe95 O103 1.997 1_655 S
Fe95 O106 1.996 . S
Fe95 O110 1.976 . S
Fe95 O113 2.002 1_655 S
O96 Fe94 1.918 . S
O96 Fe95 1.918 . S
O96 Fe97 1.918 . S
Fe97 O96 1.918 . S
Fe97 O98 2.002 1_655 S
Fe97 O107 1.976 . S
Fe97 O111 1.996 . S
Fe97 O114 1.997 1_655 S
O98 Fe97 2.002 1_455 S
O98 C115 1.295 . S
O99 Fe94 1.997 1_455 S
O99 C115 1.235 . S
O100 Fe94 2.002 1_455 S
O100 C101 1.295 . S
C101 O100 1.295 . S
C101 O103 1.235 . S
C102 O107 1.287 . S
C102 O108 1.255 . S
O103 Fe95 1.997 1_455 S
O103 C101 1.235 . S
C104 O110 1.287 . S
C104 O111 1.255 . S
O105 Fe94 1.976 . S
O105 C112 1.287 . S
O106 Fe95 1.996 . S
O106 C112 1.255 . S
O107 Fe97 1.976 . S
O107 C102 1.287 . S
O108 Fe94 1.996 . S
O108 C102 1.255 . S
C109 O113 1.295 . S
C109 O114 1.235 . S
O110 Fe95 1.976 . S
O110 C104 1.287 . S
O111 Fe97 1.996 . S
O111 C104 1.255 . S
C112 O105 1.287 . S
C112 O106 1.255 . S
O113 Fe95 2.002 1_455 S
O113 C109 1.295 . S
O114 Fe97 1.997 1_455 S
O114 C109 1.235 . S
C115 O98 1.295 . S
C115 O99 1.235 . S
Fe116 O118 1.918 . S
Fe116 O121 1.997 . S
Fe116 O122 2.002 . S
Fe116 O127 1.976 . S
Fe116 O130 1.996 . S
Fe117 O118 1.918 . S
Fe117 O125 1.997 . S
Fe117 O128 1.996 . S
Fe117 O132 1.976 . S
Fe117 O135 2.002 . S
O118 Fe116 1.918 . S
O118 Fe117 1.918 . S
O118 Fe119 1.918 . S
Fe119 O118 1.918 . S
Fe119 O120 2.002 . S
Fe119 O129 1.976 . S
Fe119 O133 1.996 . S
Fe119 O136 1.997 . S
O120 Fe119 2.002 . S
O120 C137 1.295 . S
O121 Fe116 1.997 . S
O121 C137 1.235 . S
O122 Fe116 2.002 . S
O122 C123 1.295 . S
C123 O122 1.295 . S
C123 O125 1.235 . S
C124 O129 1.287 . S
C124 O130 1.255 . S
O125 Fe117 1.997 . S
O125 C123 1.235 . S
C126 O132 1.287 . S
C126 O133 1.255 . S
O127 Fe116 1.976 . S
O127 C134 1.287 . S
O128 Fe117 1.996 . S
O128 C134 1.255 . S
O129 Fe119 1.976 . S
O129 C124 1.287 . S
O130 Fe116 1.996 . S
O130 C124 1.255 . S
C131 O135 1.295 . S
C131 O136 1.235 . S
O132 Fe117 1.976 . S
O132 C126 1.287 . S
O133 Fe119 1.996 . S
O133 C126 1.255 . S
C134 O127 1.287 . S
C134 O128 1.255 . S
O135 Fe117 2.002 . S
O135 C131 1.295 . S
O136 Fe119 1.997 . S
O136 C131 1.235 . S
C137 O120 1.295 . S
C137 O121 1.235 . S
Fe138 O140 1.918 . S
Fe138 O143 1.997 . S
Fe138 O144 2.002 . S
Fe138 O149 1.976 . S
Fe138 O152 1.996 . S
Fe139 O140 1.918 . S
Fe139 O147 1.997 . S
Fe139 O150 1.996 . S
Fe139 O154 1.976 . S
Fe139 O157 2.002 . S
O140 Fe138 1.918 . S
O140 Fe139 1.918 . S
O140 Fe141 1.918 . S
Fe141 O140 1.918 . S
Fe141 O142 2.002 . S
Fe141 O151 1.976 . S
Fe141 O155 1.996 . S
Fe141 O158 1.997 . S
O142 Fe141 2.002 . S
O142 C159 1.295 . S
O143 Fe138 1.997 . S
O143 C159 1.235 . S
O144 Fe138 2.002 . S
O144 C145 1.295 . S
C145 O144 1.295 . S
C145 O147 1.235 . S
C146 O151 1.287 . S
C146 O152 1.255 . S
O147 Fe139 1.997 . S
O147 C145 1.235 . S
C148 O154 1.287 . S
C148 O155 1.255 . S
O149 Fe138 1.976 . S
O149 C156 1.287 . S
O150 Fe139 1.996 . S
O150 C156 1.255 . S
O151 Fe141 1.976 . S
O151 C146 1.287 . S
O152 Fe138 1.996 . S
O152 C146 1.255 . S
C153 O157 1.295 . S
C153 O158 1.235 . S
O154 Fe139 1.976 . S
O154 C148 1.287 . S
O155 Fe141 1.996 . S
O155 C148 1.255 . S
C156 O149 1.287 . S
C156 O150 1.255 . S
O157 Fe139 2.002 . S
O157 C153 1.295 . S
O158 Fe141 1.997 . S
O158 C153 1.235 . S
C159 O142 1.295 . S
C159 O143 1.235 . S
C160 C161 1.369 . S
C160 C162 1.419 . S
C160 H164 0.930 . S
C161 C160 1.369 . S
C161 C170 1.429 . S
C162 C160 1.419 . S
C162 C163 1.363 . S
C162 H165 0.929 . S
C163 C162 1.363 . S
C163 C169 1.428 . S
H164 C160 0.930 . S
H165 C162 0.929 . S
S166 N167 1.613 . S
S166 N168 1.610 1_554 S
N167 S166 1.613 . S
N167 C170 1.350 1_554 S
N168 S166 1.610 1_556 S
N168 C169 1.351 . S
C169 C163 1.428 . S
C169 N168 1.351 . S
C169 C170 1.434 . S
C170 C161 1.429 . S
C170 N167 1.350 1_556 S
C170 C169 1.434 . S
C171 C172 1.369 . S
C171 C173 1.419 . S
C171 H175 0.930 . S
C172 C171 1.369 . S
C172 C181 1.429 . S
C173 C171 1.419 . S
C173 C174 1.363 . S
C173 H176 0.929 . S
C174 C173 1.363 . S
C174 C180 1.428 . S
H175 C171 0.930 . S
H176 C173 0.929 . S
S177 N178 1.613 . S
S177 N179 1.610 . S
N178 S177 1.613 . S
N178 C181 1.350 . S
N179 S177 1.610 . S
N179 C180 1.351 . S
C180 C174 1.428 . S
C180 N179 1.351 . S
C180 C181 1.434 . S
C181 C172 1.429 . S
C181 N178 1.350 . S
C181 C180 1.434 . S
C182 C183 1.369 . S
C182 C184 1.419 . S
C182 H186 0.930 1_556 S
C183 C182 1.369 . S
C183 C192 1.429 . S
C184 C182 1.419 . S
C184 C185 1.363 . S
C184 H187 0.929 . S
C185 C184 1.363 . S
C185 C191 1.428 . S
H186 C182 0.930 1_554 S
H187 C184 0.929 . S
S188 N189 1.613 . S
S188 N190 1.610 . S
N189 S188 1.613 . S
N189 C192 1.350 . S
N190 S188 1.610 . S
N190 C191 1.351 . S
C191 C185 1.428 . S
C191 N190 1.351 . S
C191 C192 1.434 . S
C192 C183 1.429 . S
C192 N189 1.350 . S
C192 C191 1.434 . S
C193 C194 1.369 . S
C193 C195 1.419 . S
C193 H197 0.930 . S
C194 C193 1.369 . S
C194 C203 1.429 . S
C195 C193 1.419 . S
C195 C196 1.363 . S
C195 H198 0.929 . S
C196 C195 1.363 . S
C196 C202 1.428 . S
H197 C193 0.930 . S
H198 C195 0.929 . S
S199 N200 1.613 . S
S199 N201 1.610 . S
N200 S199 1.613 . S
N200 C203 1.350 . S
N201 S199 1.610 . S
N201 C202 1.351 . S
C202 C196 1.428 . S
C202 N201 1.351 . S
C202 C203 1.434 . S
C203 C194 1.429 . S
C203 N200 1.350 . S
C203 C202 1.434 . S
C204 C205 1.369 . S
C204 C206 1.419 . S
C204 H208 0.930 1_556 S
C205 C204 1.369 . S
C205 C214 1.429 . S
C206 C204 1.419 . S
C206 C207 1.363 . S
C206 H209 0.929 . S
C207 C206 1.363 . S
C207 C213 1.428 . S
H208 C204 0.930 1_554 S
H209 C206 0.929 . S
S210 N211 1.613 . S
S210 N212 1.610 . S
N211 S210 1.613 . S
N211 C214 1.350 . S
N212 S210 1.610 . S
N212 C213 1.351 . S
C213 C207 1.428 . S
C213 N212 1.351 . S
C213 C214 1.434 . S
C214 C205 1.429 . S
C214 N211 1.350 . S
C214 C213 1.434 . S
C215 C216 1.369 . S
C215 C217 1.419 . S
C215 H219 0.930 . S
C216 C215 1.369 . S
C216 C225 1.429 . S
C217 C215 1.419 . S
C217 C218 1.363 . S
C217 H220 0.929 . S
C218 C217 1.363 . S
C218 C224 1.428 . S
H219 C215 0.930 . S
H220 C217 0.929 . S
S221 N222 1.613 . S
S221 N223 1.610 . S
N222 S221 1.613 . S
N222 C225 1.350 . S
N223 S221 1.610 . S
N223 C224 1.351 . S
C224 C218 1.428 . S
C224 N223 1.351 . S
C224 C225 1.434 . S
C225 C216 1.429 . S
C225 N222 1.350 . S
C225 C224 1.434 . S
C226 C227 1.369 . S
C226 C228 1.419 . S
C226 H230 0.930 . S
C227 C226 1.369 . S
C227 C236 1.429 . S
C228 C226 1.419 . S
C228 C229 1.363 . S
C228 H231 0.929 . S
C229 C228 1.363 . S
C229 C235 1.428 . S
H230 C226 0.930 . S
H231 C228 0.929 . S
S232 N233 1.613 . S
S232 N234 1.610 . S
N233 S232 1.613 . S
N233 C236 1.350 . S
N234 S232 1.610 . S
N234 C235 1.351 . S
C235 C229 1.428 . S
C235 N234 1.351 . S
C235 C236 1.434 . S
C236 C227 1.429 . S
C236 N233 1.350 . S
C236 C235 1.434 . S
C237 C238 1.369 . S
C237 C239 1.419 . S
C237 H241 0.930 . S
C238 C237 1.369 . S
C238 C247 1.429 . S
C239 C237 1.419 . S
C239 C240 1.363 . S
C239 H242 0.929 . S
C240 C239 1.363 . S
C240 C246 1.428 . S
H241 C237 0.930 . S
H242 C239 0.929 . S
S243 N244 1.613 . S
S243 N245 1.610 . S
N244 S243 1.613 . S
N244 C247 1.350 . S
N245 S243 1.610 . S
N245 C246 1.351 . S
C246 C240 1.428 . S
C246 N245 1.351 . S
C246 C247 1.434 . S
C247 C238 1.429 . S
C247 N244 1.350 . S
C247 C246 1.434 . S
C248 C249 1.369 . S
C248 C250 1.419 . S
C248 H252 0.930 . S
C249 C248 1.369 . S
C249 C258 1.429 . S
C250 C248 1.419 . S
C250 C251 1.363 . S
C250 H253 0.929 . S
C251 C250 1.363 . S
C251 C257 1.428 . S
H252 C248 0.930 . S
H253 C250 0.929 . S
S254 N255 1.613 . S
S254 N256 1.610 1_554 S
N255 S254 1.613 . S
N255 C258 1.350 1_554 S
N256 S254 1.610 1_556 S
N256 C257 1.351 . S
C257 C251 1.428 . S
C257 N256 1.351 . S
C257 C258 1.434 . S
C258 C249 1.429 . S
C258 N255 1.350 1_556 S
C258 C257 1.434 . S
C259 C260 1.369 . S
C259 C261 1.419 . S
C259 H263 0.930 . S
C260 C259 1.369 . S
C260 C269 1.429 . S
C261 C259 1.419 . S
C261 C262 1.363 . S
C261 H264 0.929 . S
C262 C261 1.363 . S
C262 C268 1.428 . S
H263 C259 0.930 . S
H264 C261 0.929 . S
S265 N266 1.613 . S
S265 N267 1.610 . S
N266 S265 1.613 . S
N266 C269 1.350 . S
N267 S265 1.610 . S
N267 C268 1.351 . S
C268 C262 1.428 . S
C268 N267 1.351 . S
C268 C269 1.434 . S
C269 C260 1.429 . S
C269 N266 1.350 . S
C269 C268 1.434 . S
C270 C271 1.369 . S
C270 C272 1.419 . S
C270 H274 0.930 . S
C271 C270 1.369 . S
C271 C280 1.429 . S
C272 C270 1.419 . S
C272 C273 1.363 . S
C272 H275 0.929 . S
C273 C272 1.363 . S
C273 C279 1.428 . S
H274 C270 0.930 . S
H275 C272 0.929 . S
S276 N277 1.613 . S
S276 N278 1.610 . S
N277 S276 1.613 . S
N277 C280 1.350 . S
N278 S276 1.610 . S
N278 C279 1.351 . S
C279 C273 1.428 . S
C279 N278 1.351 . S
C279 C280 1.434 . S
C280 C271 1.429 . S
C280 N277 1.350 . S
C280 C279 1.434 . S
C281 C282 1.369 . S
C281 C283 1.419 . S
C281 H285 0.930 . S
C282 C281 1.369 . S
C282 C291 1.429 . S
C283 C281 1.419 . S
C283 C284 1.363 . S
C283 H286 0.929 . S
C284 C283 1.363 . S
C284 C290 1.428 . S
H285 C281 0.930 . S
H286 C283 0.929 . S
S287 N288 1.613 . S
S287 N289 1.610 . S
N288 S287 1.613 . S
N288 C291 1.350 . S
N289 S287 1.610 . S
N289 C290 1.351 . S
C290 C284 1.428 . S
C290 N289 1.351 . S
C290 C291 1.434 . S
C291 C282 1.429 . S
C291 N288 1.350 . S
C291 C290 1.434 . S
C292 C293 1.369 . S
C292 C294 1.419 1_565 S
C292 H296 0.930 . S
C293 C292 1.369 . S
C293 C302 1.429 1_565 S
C294 C292 1.419 1_545 S
C294 C295 1.363 . S
C294 H297 0.929 . S
C295 C294 1.363 . S
C295 C301 1.428 . S
H296 C292 0.930 . S
H297 C294 0.929 . S
S298 N299 1.613 . S
S298 N300 1.610 . S
N299 S298 1.613 . S
N299 C302 1.350 . S
N300 S298 1.610 . S
N300 C301 1.351 . S
C301 C295 1.428 . S
C301 N300 1.351 . S
C301 C302 1.434 . S
C302 C293 1.429 1_545 S
C302 N299 1.350 . S
C302 C301 1.434 . S
C303 C304 1.369 1_565 S
C303 C305 1.419 . S
C303 H307 0.930 . S
C304 C303 1.369 1_545 S
C304 C313 1.429 . S
C305 C303 1.419 . S
C305 C306 1.363 . S
C305 H308 0.929 . S
C306 C305 1.363 . S
C306 C312 1.428 . S
H307 C303 0.930 . S
H308 C305 0.929 . S
S309 N310 1.613 . S
S309 N311 1.610 1_545 S
N310 S309 1.613 . S
N310 C313 1.350 . S
N311 S309 1.610 1_565 S
N311 C312 1.351 . S
C312 C306 1.428 . S
C312 N311 1.351 . S
C312 C313 1.434 1_565 S
C313 C304 1.429 . S
C313 N310 1.350 . S
C313 C312 1.434 1_545 S
C314 C315 1.369 1_545 S
C314 C316 1.419 . S
C314 H318 0.930 1_546 S
C315 C314 1.369 1_565 S
C315 C324 1.429 . S
C316 C314 1.419 . S
C316 C317 1.363 . S
C316 H319 0.929 . S
C317 C316 1.363 . S
C317 C323 1.428 . S
H318 C314 0.930 1_564 S
H319 C316 0.929 . S
S320 N321 1.613 1_545 S
S320 N322 1.610 . S
N321 S320 1.613 1_565 S
N321 C324 1.350 . S
N322 S320 1.610 . S
N322 C323 1.351 . S
C323 C317 1.428 . S
C323 N322 1.351 . S
C323 C324 1.434 1_545 S
C324 C315 1.429 . S
C324 N321 1.350 . S
C324 C323 1.434 1_565 S
C325 C326 1.369 . S
C325 C327 1.419 1_545 S
C325 H329 0.930 . S
C326 C325 1.369 . S
C326 C335 1.429 1_545 S
C327 C325 1.419 1_565 S
C327 C328 1.363 . S
C327 H330 0.929 1_565 S
C328 C327 1.363 . S
C328 C334 1.428 . S
H329 C325 0.930 . S
H330 C327 0.929 1_545 S
S331 N332 1.613 . S
S331 N333 1.610 . S
N332 S331 1.613 . S
N332 C335 1.350 . S
N333 S331 1.610 . S
N333 C334 1.351 . S
C334 C328 1.428 . S
C334 N333 1.351 . S
C334 C335 1.434 . S
C335 C326 1.429 1_565 S
C335 N332 1.350 . S
C335 C334 1.434 . S
C336 C337 1.369 . S
C336 C338 1.419 . S
C336 H340 0.930 . S
C337 C336 1.369 . S
C337 C346 1.429 . S
C338 C336 1.419 . S
C338 C339 1.363 . S
C338 H341 0.929 . S
C339 C338 1.363 . S
C339 C345 1.428 . S
H340 C336 0.930 . S
H341 C338 0.929 . S
S342 N343 1.613 . S
S342 N344 1.610 . S
N343 S342 1.613 . S
N343 C346 1.350 . S
N344 S342 1.610 . S
N344 C345 1.351 . S
C345 C339 1.428 . S
C345 N344 1.351 . S
C345 C346 1.434 . S
C346 C337 1.429 . S
C346 N343 1.350 . S
C346 C345 1.434 . S
C347 C348 1.369 . S
C347 C349 1.419 . S
C347 H351 0.930 . S
C348 C347 1.369 . S
C348 C357 1.429 . S
C349 C347 1.419 . S
C349 C350 1.363 . S
C349 H352 0.929 . S
C350 C349 1.363 . S
C350 C356 1.428 . S
H351 C347 0.930 . S
H352 C349 0.929 . S
S353 N354 1.613 . S
S353 N355 1.610 . S
N354 S353 1.613 . S
N354 C357 1.350 . S
N355 S353 1.610 . S
N355 C356 1.351 . S
C356 C350 1.428 . S
C356 N355 1.351 . S
C356 C357 1.434 . S
C357 C348 1.429 . S
C357 N354 1.350 . S
C357 C356 1.434 . S
C358 C359 1.369 . S
C358 C360 1.419 . S
C358 H362 0.930 . S
C359 C358 1.369 . S
C359 C368 1.429 . S
C360 C358 1.419 . S
C360 C361 1.363 . S
C360 H363 0.929 . S
C361 C360 1.363 . S
C361 C367 1.428 . S
H362 C358 0.930 . S
H363 C360 0.929 . S
S364 N365 1.613 . S
S364 N366 1.610 . S
N365 S364 1.613 . S
N365 C368 1.350 . S
N366 S364 1.610 . S
N366 C367 1.351 . S
C367 C361 1.428 . S
C367 N366 1.351 . S
C367 C368 1.434 . S
C368 C359 1.429 . S
C368 N365 1.350 . S
C368 C367 1.434 . S
C369 C370 1.369 . S
C369 C371 1.419 . S
C369 H373 0.930 . S
C370 C369 1.369 . S
C370 C379 1.429 . S
C371 C369 1.419 . S
C371 C372 1.363 . S
C371 H374 0.929 . S
C372 C371 1.363 . S
C372 C378 1.428 . S
H373 C369 0.930 . S
H374 C371 0.929 . S
S375 N376 1.613 . S
S375 N377 1.610 . S
N376 S375 1.613 . S
N376 C379 1.350 . S
N377 S375 1.610 . S
N377 C378 1.351 . S
C378 C372 1.428 . S
C378 N377 1.351 . S
C378 C379 1.434 . S
C379 C370 1.429 . S
C379 N376 1.350 . S
C379 C378 1.434 . S
C380 C381 1.369 . S
C380 C382 1.419 . S
C380 H384 0.930 . S
C381 C380 1.369 . S
C381 C390 1.429 . S
C382 C380 1.419 . S
C382 C383 1.363 . S
C382 H385 0.929 . S
C383 C382 1.363 . S
C383 C389 1.428 . S
H384 C380 0.930 . S
H385 C382 0.929 . S
S386 N387 1.613 . S
S386 N388 1.610 . S
N387 S386 1.613 . S
N387 C390 1.350 . S
N388 S386 1.610 . S
N388 C389 1.351 . S
C389 C383 1.428 . S
C389 N388 1.351 . S
C389 C390 1.434 . S
C390 C381 1.429 . S
C390 N387 1.350 . S
C390 C389 1.434 . S
C391 C392 1.369 . S
C391 C393 1.419 . S
C391 H395 0.930 . S
C392 C391 1.369 . S
C392 C401 1.429 . S
C393 C391 1.419 . S
C393 C394 1.363 . S
C393 H396 0.929 . S
C394 C393 1.363 . S
C394 C400 1.428 . S
H395 C391 0.930 . S
H396 C393 0.929 . S
S397 N398 1.613 . S
S397 N399 1.610 . S
N398 S397 1.613 . S
N398 C401 1.350 . S
N399 S397 1.610 . S
N399 C400 1.351 . S
C400 C394 1.428 . S
C400 N399 1.351 . S
C400 C401 1.434 . S
C401 C392 1.429 . S
C401 N398 1.350 . S
C401 C400 1.434 . S
C402 C403 1.369 . S
C402 C404 1.419 . S
C402 H406 0.930 . S
C403 C402 1.369 . S
C403 C412 1.429 . S
C404 C402 1.419 . S
C404 C405 1.363 . S
C404 H407 0.929 . S
C405 C404 1.363 . S
C405 C411 1.428 . S
H406 C402 0.930 . S
H407 C404 0.929 . S
S408 N409 1.613 . S
S408 N410 1.610 . S
N409 S408 1.613 . S
N409 C412 1.350 . S
N410 S408 1.610 . S
N410 C411 1.351 . S
C411 C405 1.428 . S
C411 N410 1.351 . S
C411 C412 1.434 . S
C412 C403 1.429 . S
C412 N409 1.350 . S
C412 C411 1.434 . S
C413 C414 1.369 . S
C413 C415 1.419 . S
C413 H417 0.930 . S
C414 C413 1.369 . S
C414 C423 1.429 . S
C415 C413 1.419 . S
C415 C416 1.363 . S
C415 H418 0.929 . S
C416 C415 1.363 . S
C416 C422 1.428 . S
H417 C413 0.930 . S
H418 C415 0.929 . S
S419 N420 1.613 . S
S419 N421 1.610 . S
N420 S419 1.613 . S
N420 C423 1.350 . S
N421 S419 1.610 . S
N421 C422 1.351 . S
C422 C416 1.428 . S
C422 N421 1.351 . S
C422 C423 1.434 . S
C423 C414 1.429 . S
C423 N420 1.350 . S
C423 C422 1.434 . S
C161 C7 1.525 . S
C163 C115 1.512 . S
C174 C79 1.510 . S
C172 C16 1.526 . S
C185 C102 1.503 . S
C183 C25 1.505 . S
C196 C90 1.505 . S
C194 C34 1.504 . S
C207 C159 1.512 . S
C205 C43 1.524 . S
C218 C123 1.513 . S
C216 C52 1.523 . S
C227 C61 1.506 . S
C229 C146 1.501 . S
C240 C134 1.505 . S
C238 C70 1.504 . S
C249 C5 1.474 . S
C251 C156 1.482 . S
C262 C126 1.483 . S
C260 C14 1.476 . S
C271 C22 1.494 . S
C273 C145 1.490 . S
C282 C32 1.495 . S
C284 C131 1.493 . S
C295 C112 1.483 . S
C293 C41 1.478 . S
C304 C50 1.476 . S
C306 C82 1.482 . S
C317 C101 1.490 . S
C315 C58 1.494 . S
C328 C87 1.493 . S
C326 C68 1.494 . S
C339 C137 1.483 . S
C337 C4 1.495 . S
C350 C153 1.482 . S
C348 C13 1.495 . S
C359 C23 1.475 . S
C361 C124 1.478 . S
C372 C148 1.478 . S
C370 C31 1.471 . S
C383 C93 1.480 . S
C381 C40 1.492 . S
C392 C49 1.493 . S
C394 C109 1.481 . S
C403 C59 1.476 . S
C405 C80 1.478 . S
C414 C67 1.471 . S
C416 C104 1.479 . S
