# Generated by pormake.
# Topology ftw, (4,12)-cn, num edge types: 1
# Building blocks:
#     Node 0, Type 0, BuildingBlock: NAHDIM_clean_linker_0, # of connection points: 4
#     Node 1, Type 0, BuildingBlock: NAHDIM_clean_linker_0, # of connection points: 4
#     Node 2, Type 0, BuildingBlock: NAHDIM_clean_linker_0, # of connection points: 4
#     Node 3, Type 1, BuildingBlock: QEWDON_clean_sbu_0, # of connection points: 12
#     Edge 4, Type (0, 1), BuildingBlock: TEMPAE_clean_linker_10, # of connection points: 2
#     Edge 5, Type (0, 1), BuildingBlock: TEMPAE_clean_linker_10, # of connection points: 2
#     Edge 6, Type (0, 1), BuildingBlock: TEMPAE_clean_linker_10, # of connection points: 2
#     Edge 7, Type (0, 1), BuildingBlock: TEMPAE_clean_linker_10, # of connection points: 2
#     Edge 8, Type (0, 1), BuildingBlock: TEMPAE_clean_linker_10, # of connection points: 2
#     Edge 9, Type (0, 1), BuildingBlock: TEMPAE_clean_linker_10, # of connection points: 2
#     Edge 10, Type (0, 1), BuildingBlock: TEMPAE_clean_linker_10, # of connection points: 2
#     Edge 11, Type (0, 1), BuildingBlock: TEMPAE_clean_linker_10, # of connection points: 2
#     Edge 12, Type (0, 1), BuildingBlock: TEMPAE_clean_linker_10, # of connection points: 2
#     Edge 13, Type (0, 1), BuildingBlock: TEMPAE_clean_linker_10, # of connection points: 2
#     Edge 14, Type (0, 1), BuildingBlock: TEMPAE_clean_linker_10, # of connection points: 2
#     Edge 15, Type (0, 1), BuildingBlock: TEMPAE_clean_linker_10, # of connection points: 2
# Relax obj value: 0.036
# Max RMSD: 0.107
# Mean RMSD: 0.083
data_MOF--net-ftw--node1-QEWDON_clean_sbu_0--node2-NAHDIM_clean_linker_0--edge1-TEMPAE_clean_linker_10
_symmetry_space_group_name_H-M    P1
_symmetry_Int_Tables_number       1
_symmetry_cell_setting            triclinic
loop_
_symmetry_equiv_pos_as_xyz
'x, y, z'
_cell_length_a     32.462325
_cell_length_b     31.994123
_cell_length_c     33.403056
_cell_angle_alpha  90.419111
_cell_angle_beta   89.609797
_cell_angle_gamma 89.619242
loop_
_atom_site_label
_atom_site_type_symbol
_atom_site_fract_x
_atom_site_fract_y
_atom_site_fract_z
_atom_type_partial_charge
C0 C 0.93606 0.65556 0.24577 0.0
C1 C 0.94721 0.69142 0.27451 0.0
C2 C 0.98289 0.65061 0.32654 0.0
C3 C 0.94798 0.63041 0.34203 0.0
C4 C 0.95213 0.59745 0.36929 0.0
C5 C 0.99189 0.58518 0.38203 0.0
C6 C 0.02689 0.60683 0.36799 0.0
C7 C 0.02187 0.63926 0.34036 0.0
C8 C 0.91411 0.57505 0.38373 0.0
C9 C 0.06967 0.59509 0.38146 0.0
C10 C 0.10531 0.27924 0.36912 0.0
C11 C 0.08891 0.29918 0.33078 0.0
C12 C 0.04313 0.35654 0.35446 0.0
C13 C 0.07413 0.38337 0.36837 0.0
C14 C 0.06396 0.42201 0.38624 0.0
C15 C 0.02207 0.43399 0.39027 0.0
C16 C 0.99092 0.40743 0.37558 0.0
C17 C 0.00193 0.36901 0.35793 0.0
C18 C 0.0979 0.44976 0.40152 0.0
C19 C 0.94599 0.4193 0.37929 0.0
C20 C 0.98784 0.36297 0.64397 0.0
C21 C 0.02298 0.38847 0.64224 0.0
C22 C 0.02194 0.42693 0.62227 0.0
C23 C 0.98505 0.4403 0.60394 0.0
C24 C 0.94934 0.41537 0.60669 0.0
C25 C 0.95133 0.37691 0.6265 0.0
C26 C 0.06056 0.45282 0.61981 0.0
C27 C 0.90935 0.42892 0.58785 0.0
C28 C 0.91371 0.75452 0.65437 0.0
C29 C 0.93401 0.72527 0.68459 0.0
C30 C 0.96779 0.66895 0.64489 0.0
C31 C 0.00616 0.6527 0.63348 0.0
C32 C 0.00953 0.6156 0.61107 0.0
C33 C 0.9734 0.59436 0.59949 0.0
C34 C 0.93433 0.61078 0.61049 0.0
C35 C 0.93185 0.64798 0.63311 0.0
C36 C 0.05175 0.59895 0.60002 0.0
C37 C 0.89527 0.58895 0.59832 0.0
C38 C 0.99702 0.54808 0.40803 0.0
C39 C 0.00667 0.50989 0.38945 0.0
C40 C 0.01079 0.47332 0.41167 0.0
C41 C 0.00426 0.47444 0.45354 0.0
C42 C 0.00672 0.43791 0.47656 0.0
C43 C 1.00005 0.43921 0.51768 0.0
C44 C 0.9912 0.47719 0.53751 0.0
C45 C 0.98458 0.47877 0.57936 0.0
C46 C 0.97779 0.51723 0.59846 0.0
C47 C 0.97686 0.55443 0.57672 0.0
C48 C 0.98158 0.55327 0.53456 0.0
C49 C 0.97924 0.58984 0.51153 0.0
C50 C 0.98411 0.58828 0.47006 0.0
C51 C 0.99201 0.55015 0.45012 0.0
C52 C 0.99511 0.51304 0.47285 0.0
C53 C 0.98917 0.5145 0.51499 0.0
C54 C 0.05017 0.28469 0.65344 0.0
C55 C 0.01931 0.30566 0.68238 0.0
O56 O 0.98072 0.68056 0.29792 0.0
O57 O 0.96736 0.70486 0.66691 0.0
O58 O 0.98771 0.32465 0.66142 0.0
O59 O 0.05109 0.31828 0.33808 0.0
H60 H 0.92035 0.69896 0.2942 0.0
H61 H 0.92584 0.62761 0.26243 0.0
H62 H 0.96307 0.64655 0.22691 0.0
H63 H 0.9104 0.66526 0.22595 0.0
H64 H 0.91749 0.63967 0.33254 0.0
H65 H 0.04859 0.65537 0.32867 0.0
H66 H 0.91689 0.54112 0.37687 0.0
H67 H 0.88554 0.58728 0.36978 0.0
H68 H 0.91123 0.57851 0.41672 0.0
H69 H 0.09315 0.6179 0.37136 0.0
H70 H 0.078 0.56381 0.36915 0.0
H71 H 0.07057 0.59305 0.41462 0.0
H72 H 0.11136 0.32266 0.31976 0.0
H73 H 0.13528 0.26337 0.36303 0.0
H74 H 0.08311 0.25601 0.38095 0.0
H75 H 0.11023 0.30347 0.39251 0.0
H76 H 0.10619 0.37431 0.36592 0.0
H77 H 0.97824 0.34818 0.34704 0.0
H78 H 0.09528 0.48119 0.38784 0.0
H79 H 0.12903 0.43677 0.39484 0.0
H80 H 0.09461 0.45387 0.43443 0.0
H81 H 0.92553 0.39579 0.3652 0.0
H82 H 0.94053 0.45006 0.36501 0.0
H83 H 0.93744 0.42255 0.41142 0.0
H84 H 0.03603 0.32945 0.70038 0.0
H85 H 0.05156 0.37845 0.65563 0.0
H86 H 0.92434 0.35721 0.62809 0.0
H87 H 0.06924 0.45753 0.58796 0.0
H88 H 0.08693 0.43802 0.63546 0.0
H89 H 0.05471 0.48413 0.6333 0.0
H90 H 0.88343 0.40803 0.5959 0.0
H91 H 0.91293 0.42887 0.55477 0.0
H92 H 0.90145 0.46135 0.59737 0.0
H93 H 0.91111 0.70204 0.69521 0.0
H94 H 0.8869 0.77089 0.66835 0.0
H95 H 0.90255 0.73644 0.62817 0.0
H96 H 0.93609 0.77814 0.64363 0.0
H97 H 0.03368 0.66918 0.64254 0.0
H98 H 0.90184 0.66039 0.64121 0.0
H99 H 0.05499 0.59736 0.56693 0.0
H100 H 0.05555 0.56671 0.61158 0.0
H101 H 0.07684 0.6187 0.61214 0.0
H102 H 0.86719 0.60652 0.6078 0.0
H103 H 0.89444 0.55737 0.61186 0.0
H104 H 0.89481 0.58474 0.56529 0.0
H105 H 0.01099 0.5086 0.35722 0.0
H106 H 0.01361 0.40779 0.46304 0.0
H107 H 0.00223 0.41002 0.53374 0.0
H108 H 0.97381 0.51828 0.63073 0.0
H109 H 0.97334 0.62005 0.52531 0.0
H110 H 0.98185 0.61735 0.45382 0.0
H111 H 0.07422 0.26766 0.67047 0.0
H112 H 0.06571 0.30847 0.63475 0.0
H113 H 0.0345 0.2624 0.63307 0.0
C114 C 0.75959 0.11125 0.62273 0.0
C115 C 0.7387 0.08309 0.65357 0.0
C116 C 0.68484 0.04423 0.61712 0.0
C117 C 0.67372 0.00456 0.60344 0.0
C118 C 0.63547 0.99758 0.58536 0.0
C119 C 0.60768 0.03139 0.58052 0.0
C120 C 0.61882 0.07183 0.59382 0.0
C121 C 0.65731 0.07792 0.61198 0.0
C122 C 0.62463 0.95398 0.57167 0.0
C123 C 0.58997 0.10855 0.58881 0.0
C124 C 0.34496 0.91403 0.70363 0.0
C125 C 0.36966 0.94999 0.72198 0.0
C126 C 0.40251 0.98559 0.66477 0.0
C127 C 0.40371 0.02303 0.64353 0.0
C128 C 0.43306 0.02955 0.61317 0.0
C129 C 0.46148 0.99733 0.60323 0.0
C130 C 0.45983 0.95888 0.62387 0.0
C131 C 0.4306 0.95347 0.6546 0.0
C132 C 0.43428 0.07125 0.59238 0.0
C133 C 0.48943 0.92369 0.61388 0.0
C134 C 0.35889 0.9529 0.35059 0.0
C135 C 0.364 0.99518 0.36098 0.0
C136 C 0.40046 0.00898 0.37921 0.0
C137 C 0.43247 0.97996 0.38707 0.0
C138 C 0.4276 0.93751 0.376 0.0
C139 C 0.39102 0.92466 0.35754 0.0
C140 C 0.40507 0.05466 0.38964 0.0
C141 C 0.46116 0.90573 0.38357 0.0
C142 C 0.727 0.103 0.32273 0.0
C143 C 0.715 0.06098 0.30417 0.0
C144 C 0.64188 0.0504 0.31546 0.0
C145 C 0.60918 0.07819 0.32216 0.0
C146 C 0.57624 0.0676 0.34753 0.0
C147 C 0.57561 0.02772 0.36564 0.0
C148 C 0.60758 0.99858 0.35704 0.0
C149 C 0.6406 0.0104 0.33226 0.0
C150 C 0.54258 0.09935 0.35568 0.0
C151 C 0.60716 0.9552 0.37443 0.0
C152 C 0.56659 0.02395 0.56247 0.0
C153 C 0.53368 0.0155 0.58825 0.0
C154 C 0.49486 0.00499 0.57348 0.0
C155 C 0.48869 0.00211 0.53161 0.0
C156 C 0.4507 0.98967 0.51557 0.0
C157 C 0.44506 0.98691 0.47429 0.0
C158 C 0.47708 0.99679 0.44744 0.0
C159 C 0.47168 0.99416 0.40544 0.0
C160 C 0.50428 0.00438 0.37974 0.0
C161 C 0.54237 0.01711 0.39468 0.0
C162 C 0.5484 0.01963 0.43657 0.0
C163 C 0.58635 0.03214 0.45269 0.0
C164 C 0.59242 0.03346 0.49386 0.0
C165 C 0.56052 0.02317 0.52059 0.0
C166 C 0.52157 0.01168 0.50509 0.0
C167 C 0.51565 0.00942 0.463 0.0
C168 C 0.26184 0.91658 0.36317 0.0
C169 C 0.28405 0.95118 0.34039 0.0
O170 O 0.72232 0.04822 0.63475 0.0
O171 O 0.67412 0.06267 0.29238 0.0
O172 O 0.3243 0.93848 0.33249 0.0
O173 O 0.37389 0.9821 0.69457 0.0
H174 H 0.71379 0.10102 0.66916 0.0
H175 H 0.73685 0.12224 0.60042 0.0
H176 H 0.78455 0.09399 0.60661 0.0
H177 H 0.77291 0.1391 0.63777 0.0
H178 H 0.69516 0.97881 0.60733 0.0
H179 H 0.66553 0.109 0.62185 0.0
H180 H 0.59556 0.94401 0.58636 0.0
H181 H 0.6492 0.93085 0.57856 0.0
H182 H 0.61938 0.95379 0.53886 0.0
H183 H 0.60382 0.13841 0.59904 0.0
H184 H 0.56124 0.10317 0.60619 0.0
H185 H 0.5813 0.11152 0.55685 0.0
H186 H 0.40062 0.93818 0.73073 0.0
H187 H 0.3413 0.88849 0.72572 0.0
H188 H 0.36105 0.901 0.67689 0.0
H189 H 0.31396 0.92506 0.69433 0.0
H190 H 0.38191 0.04759 0.65141 0.0
H191 H 0.4301 0.92413 0.67042 0.0
H192 H 0.4278 0.06685 0.56005 0.0
H193 H 0.46553 0.08491 0.59487 0.0
H194 H 0.41147 0.09383 0.60507 0.0
H195 H 0.48061 0.89398 0.62854 0.0
H196 H 0.52079 0.93227 0.62399 0.0
H197 H 0.49091 0.91851 0.58099 0.0
H198 H 0.28328 0.97931 0.36013 0.0
H199 H 0.3401 0.01768 0.35403 0.0
H200 H 0.38709 0.89224 0.34883 0.0
H201 H 0.41004 0.05825 0.42234 0.0
H202 H 0.37762 0.07345 0.38115 0.0
H203 H 0.43258 0.06742 0.37415 0.0
H204 H 0.45179 0.87354 0.37514 0.0
H205 H 0.4696 0.90621 0.41573 0.0
H206 H 0.48912 0.91399 0.36608 0.0
H207 H 0.71934 0.03671 0.32753 0.0
H208 H 0.7597 0.10222 0.33235 0.0
H209 H 0.7074 0.10964 0.34944 0.0
H210 H 0.72273 0.1287 0.30091 0.0
H211 H 0.61023 0.10877 0.30846 0.0
H212 H 0.66529 0.98837 0.32581 0.0
H213 H 0.53914 0.10458 0.38845 0.0
H214 H 0.51282 0.08721 0.34446 0.0
H215 H 0.54881 0.12979 0.34112 0.0
H216 H 0.63101 0.93455 0.36056 0.0
H217 H 0.57646 0.94074 0.37026 0.0
H218 H 0.61297 0.95709 0.4071 0.0
H219 H 0.53847 0.01671 0.62036 0.0
H220 H 0.42499 0.98173 0.5348 0.0
H221 H 0.41521 0.97702 0.46365 0.0
H222 H 0.49997 0.00225 0.3476 0.0
H223 H 0.612 0.04074 0.43365 0.0
H224 H 0.6224 0.04291 0.50451 0.0
H225 H 0.22948 0.92603 0.36976 0.0
H226 H 0.27765 0.91076 0.39201 0.0
H227 H 0.26188 0.88703 0.34548 0.0
C228 C 0.78697 0.54722 0.93922 0.0
C229 C 0.76671 0.58408 0.96149 0.0
C230 C 0.71312 0.56337 0.0096 0.0
C231 C 0.70265 0.5662 0.05015 0.0
C232 C 0.66181 0.56109 0.06317 0.0
C233 C 0.63075 0.55244 0.03484 0.0
C234 C 0.64142 0.54736 0.99396 0.0
C235 C 0.68256 0.55257 0.98175 0.0
C236 C 0.65158 0.56632 0.10706 0.0
C237 C 0.60913 0.53738 0.96311 0.0
C238 C 0.42073 0.76867 0.11796 0.0
C239 C 0.42917 0.77804 0.07345 0.0
C240 C 0.45576 0.70875 0.05131 0.0
C241 C 0.44667 0.67449 0.02695 0.0
C242 C 0.47053 0.63791 0.02797 0.0
C243 C 0.50317 0.63478 0.05578 0.0
C244 C 0.51383 0.67014 0.07924 0.0
C245 C 0.49076 0.70725 0.07577 0.0
C246 C 0.46 0.6025 0.99976 0.0
C247 C 0.54894 0.66863 0.10861 0.0
C248 C 0.31959 0.46023 0.16538 0.0
C249 C 0.32608 0.4552 0.12394 0.0
C250 C 0.36613 0.45129 0.10806 0.0
C251 C 0.40035 0.45243 0.13408 0.0
C252 C 0.39384 0.45645 0.17584 0.0
C253 C 0.3535 0.46016 0.19091 0.0
C254 C 0.37198 0.44637 0.06341 0.0
C255 C 0.42959 0.45743 0.20445 0.0
C256 C 0.54051 0.19589 0.02626 0.0
C257 C 0.57644 0.22543 0.03504 0.0
C258 C 0.55232 0.28448 0.07672 0.0
C259 C 0.52901 0.30451 0.04704 0.0
C260 C 0.51233 0.34453 0.0537 0.0
C261 C 0.51873 0.36486 0.09086 0.0
C262 C 0.5412 0.34442 0.12118 0.0
C263 C 0.55763 0.30439 0.1137 0.0
C264 C 0.48791 0.36523 0.02093 0.0
C265 C 0.54818 0.36512 0.16125 0.0
C266 C 0.58683 0.55252 0.04763 0.0
C267 C 0.56561 0.59066 0.04662 0.0
C268 C 0.52514 0.59425 0.06078 0.0
C269 C 0.50538 0.55894 0.07724 0.0
C270 C 0.46581 0.56198 0.09452 0.0
C271 C 0.44556 0.52667 0.10829 0.0
C272 C 0.46406 0.48691 0.1053 0.0
C273 C 0.44298 0.45057 0.11757 0.0
C274 C 0.46201 0.41145 0.1134 0.0
C275 C 0.50192 0.40757 0.09768 0.0
C276 C 0.52395 0.44367 0.08636 0.0
C277 C 0.56462 0.44104 0.07157 0.0
C278 C 0.58565 0.47673 0.05962 0.0
C279 C 0.56645 0.51622 0.06107 0.0
C280 C 0.52557 0.51955 0.07607 0.0
C281 C 0.50462 0.48338 0.08949 0.0
C282 C 0.21463 0.49479 0.19047 0.0
C283 C 0.24475 0.4723 0.16213 0.0
O284 O 0.75277 0.57138 0.99878 0.0
O285 O 0.56995 0.24613 0.07116 0.0
O286 O 0.28146 0.46521 0.18203 0.0
O287 O 0.42939 0.74186 0.05039 0.0
H288 H 0.74059 0.595 0.9428 0.0
H289 H 0.7636 0.52288 0.93299 0.0
H290 H 0.8118 0.53284 0.95732 0.0
H291 H 0.80007 0.55773 0.9102 0.0
H292 H 0.72649 0.57378 0.07152 0.0
H293 H 0.6905 0.54834 0.95047 0.0
H294 H 0.63093 0.59383 0.11134 0.0
H295 H 0.67953 0.5708 0.12559 0.0
H296 H 0.63481 0.53845 0.11797 0.0
H297 H 0.62267 0.5319 0.93288 0.0
H298 H 0.58677 0.56371 0.9614 0.0
H299 H 0.59175 0.50918 0.97218 0.0
H300 H 0.45944 0.79389 0.07045 0.0
H301 H 0.41514 0.79826 0.13484 0.0
H302 H 0.44723 0.75287 0.13217 0.0
H303 H 0.39341 0.74827 0.12146 0.0
H304 H 0.42036 0.67638 0.00721 0.0
H305 H 0.49989 0.73451 0.09273 0.0
H306 H 0.43973 0.58002 0.01542 0.0
H307 H 0.48812 0.5855 0.98949 0.0
H308 H 0.44322 0.61399 0.97308 0.0
H309 H 0.54869 0.69601 0.12926 0.0
H310 H 0.57864 0.66835 0.09195 0.0
H311 H 0.54755 0.63965 0.12667 0.0
H312 H 0.25017 0.49387 0.13663 0.0
H313 H 0.30016 0.45431 0.10379 0.0
H314 H 0.34824 0.46365 0.22284 0.0
H315 H 0.38978 0.4732 0.05168 0.0
H316 H 0.34222 0.44468 0.04728 0.0
H317 H 0.39006 0.41753 0.05682 0.0
H318 H 0.41938 0.46037 0.23617 0.0
H319 H 0.44987 0.48419 0.1972 0.0
H320 H 0.44827 0.42842 0.20095 0.0
H321 H 0.57799 0.2481 0.00998 0.0
H322 H 0.54742 0.17646 0.9993 0.0
H323 H 0.5121 0.21427 0.02041 0.0
H324 H 0.53416 0.17516 0.05205 0.0
H325 H 0.5234 0.28918 0.01868 0.0
H326 H 0.57523 0.28859 0.13659 0.0
H327 H 0.50281 0.39501 0.01235 0.0
H328 H 0.45644 0.37293 0.03206 0.0
H329 H 0.48531 0.34512 0.99382 0.0
H330 H 0.56624 0.34502 0.18178 0.0
H331 H 0.51806 0.37274 0.17558 0.0
H332 H 0.56482 0.39498 0.15695 0.0
H333 H 0.58082 0.61792 0.03446 0.0
H334 H 0.44993 0.59171 0.09738 0.0
H335 H 0.41495 0.5309 0.12083 0.0
H336 H 0.44531 0.38359 0.12194 0.0
H337 H 0.58066 0.41135 0.06915 0.0
H338 H 0.61686 0.47292 0.04846 0.0
H339 H 0.20863 0.4758 0.21759 0.0
H340 H 0.18498 0.50097 0.17509 0.0
H341 H 0.22778 0.52521 0.20004 0.0
Zn342 Zn 0.16606 0.11082 0.01827 0.0
Zn343 Zn 0.09171 0.11643 0.06384 0.0
O344 O 0.10649 0.09453 0.0095 0.0
H345 H 0.09699 0.06885 0.99739 0.0
C346 C 0.91212 0.10928 0.89201 0.0
O347 O 0.87587 0.11537 0.90886 0.0
Zn348 Zn 0.95804 0.92402 0.03389 0.0
Zn349 Zn 0.9525 0.92391 0.93715 0.0
O350 O 0.95438 0.96142 0.98646 0.0
H351 H 0.95769 0.9914 0.98644 0.0
Zn352 Zn 0.92768 0.06725 0.96819 0.0
O353 O 0.97274 0.08106 0.00816 0.0
Zn354 Zn 0.94282 0.07125 0.0595 0.0
H355 H 0.00175 0.07641 0.00309 0.0
Zn356 Zn 0.09505 0.9506 0.96032 0.0
O357 O 0.06202 0.97731 0.00521 0.0
H358 H 0.03889 0.99615 0.00215 0.0
Zn359 Zn 0.0964 0.97156 0.05406 0.0
C360 C 0.0517 0.88229 0.92043 0.0
O361 O 0.06181 0.86282 0.95348 0.0
O362 O 0.17147 0.16916 0.04485 0.0
O363 O 0.10832 0.1773 0.07004 0.0
O364 O 0.94163 0.86209 0.95102 0.0
O365 O 0.94174 0.86466 0.0177 0.0
O366 O 0.86945 0.07892 0.99129 0.0
O367 O 0.88363 0.09186 0.05525 0.0
C368 C 0.12408 0.04588 0.10208 0.0
O369 O 0.15476 0.93355 0.97508 0.0
O370 O 0.15326 0.94988 0.03996 0.0
O371 O 0.91926 0.94722 0.88927 0.0
C372 C 0.14429 0.19163 0.06276 0.0
O373 O 0.20944 0.08936 0.97647 0.0
C374 C 0.91663 0.98426 0.08363 0.0
O375 O 0.93916 0.08818 0.91054 0.0
C376 C 0.93701 0.84452 0.98488 0.0
O377 O 0.06283 0.91993 0.91566 0.0
C378 C 0.00997 0.1127 0.10252 0.0
O379 O 0.12483 0.08535 0.10455 0.0
O380 O 0.10186 0.0295 0.07519 0.0
C381 C 0.85815 0.09049 0.02631 0.0
O382 O 0.9186 0.94529 0.07614 0.0
O383 O 0.94151 0.00835 0.06548 0.0
C384 C 0.03346 0.91946 0.08678 0.0
O385 O 0.9723 0.10213 0.10439 0.0
O386 O 0.03126 0.10372 0.07166 0.0
C387 C 0.17247 0.93635 0.00897 0.0
O388 O 0.06928 0.93327 0.09392 0.0
O389 O 0.01589 0.9303 0.05457 0.0
C390 C 0.93145 0.97765 0.86811 0.0
O391 O 0.96713 0.99492 0.876 0.0
C392 C 0.20464 0.05281 0.96209 0.0
O393 O 0.17351 0.03042 0.97488 0.0
C394 C 0.11286 0.26069 0.26809 0.0
C395 C 0.08347 0.26597 0.29873 0.0
C396 C 0.10659 0.23188 0.23682 0.0
C397 C 0.06985 0.20828 0.23604 0.0
C398 C 0.04141 0.21159 0.26822 0.0
C399 C 0.04875 0.2401 0.29935 0.0
C400 C 0.1382 0.22872 0.20361 0.0
C401 C 0.00214 0.18653 0.26881 0.0
C402 C 0.01979 0.17988 0.13769 0.0
C403 C 0.02803 0.13707 0.13511 0.0
C404 C 0.035 0.20376 0.16954 0.0
C405 C 0.05846 0.18403 0.19971 0.0
C406 C 0.06808 0.14086 0.19634 0.0
C407 C 0.05255 0.11775 0.16393 0.0
C408 C 0.02473 0.24983 0.17163 0.0
C409 C 0.09376 0.11894 0.2274 0.0
H410 H 0.14025 0.2799 0.268 0.0
H411 H 0.02655 0.24324 0.3236 0.0
H412 H 0.13995 0.19678 0.19054 0.0
H413 H 0.12937 0.25049 0.17948 0.0
H414 H 0.16928 0.2376 0.21432 0.0
H415 H 0.98515 0.18987 0.29766 0.0
H416 H 0.98171 0.19714 0.24434 0.0
H417 H 0.00901 0.15293 0.26349 0.0
H418 H 0.001 0.19456 0.11496 0.0
H419 H 0.05879 0.08448 0.16154 0.0
H420 H 0.0032 0.25589 0.19699 0.0
H421 H 0.01022 0.2612 0.14369 0.0
H422 H 0.05296 0.26825 0.17722 0.0
H423 H 0.1226 0.13644 0.23289 0.0
H424 H 0.10186 0.08643 0.21826 0.0
H425 H 0.0765 0.11795 0.25615 0.0
C426 C 0.73693 0.07024 0.2316 0.0
C427 C 0.74281 0.05086 0.26871 0.0
C428 C 0.76405 0.06258 0.19934 0.0
C429 C 0.79785 0.03495 0.20435 0.0
C430 C 0.80421 0.01576 0.2419 0.0
C431 C 0.77673 0.02408 0.27361 0.0
C432 C 0.75623 0.08376 0.15989 0.0
C433 C 0.84009 0.98639 0.2486 0.0
C434 C 0.84788 0.97784 0.11659 0.0
C435 C 0.88446 0.00033 0.11141 0.0
C436 C 0.81856 0.98993 0.14553 0.0
C437 C 0.82619 0.02508 0.17027 0.0
C438 C 0.86239 0.04879 0.16423 0.0
C439 C 0.89113 0.03604 0.13487 0.0
C440 C 0.78006 0.96421 0.15056 0.0
C441 C 0.87154 0.08665 0.1898 0.0
H442 H 0.71119 0.09158 0.22791 0.0
H443 H 0.78186 0.00972 0.30246 0.0
H444 H 0.78521 0.09626 0.14711 0.0
H445 H 0.74398 0.06065 0.13817 0.0
H446 H 0.73364 0.10978 0.16308 0.0
H447 H 0.84117 0.9747 0.27981 0.0
H448 H 0.83802 0.95918 0.22794 0.0
H449 H 0.86948 0.00249 0.24187 0.0
H450 H 0.84245 0.95028 0.09836 0.0
H451 H 0.91962 0.0529 0.13153 0.0
H452 H 0.75236 0.98464 0.14935 0.0
H453 H 0.78015 0.94907 0.18035 0.0
H454 H 0.77741 0.93951 0.12719 0.0
H455 H 0.89961 0.10327 0.17955 0.0
H456 H 0.87601 0.07694 0.22131 0.0
H457 H 0.84511 0.1088 0.18943 0.0
C458 C 0.99709 0.73292 0.23228 0.0
C459 C 0.958 0.7296 0.25009 0.0
C460 C 0.00669 0.76639 0.20714 0.0
C461 C 0.97627 0.79704 0.19904 0.0
C462 C 0.93675 0.794 0.21691 0.0
C463 C 0.92803 0.76018 0.24215 0.0
C464 C 0.04912 0.76832 0.18839 0.0
C465 C 0.90353 0.82598 0.20875 0.0
C466 C 0.01828 0.89802 0.15676 0.0
C467 C 0.01359 0.8913 0.11558 0.0
C468 C 0.00433 0.86852 0.18453 0.0
C469 C 0.98577 0.83125 0.1706 0.0
C470 C 0.97995 0.82496 0.129 0.0
C471 C 0.99405 0.85513 0.102 0.0
C472 C 0.01124 0.87631 0.22859 0.0
C473 C 0.96053 0.78556 0.11286 0.0
H474 H 0.02004 0.70885 0.23754 0.0
H475 H 0.89754 0.75724 0.25523 0.0
H476 H 0.04667 0.76597 0.15533 0.0
H477 H 0.06367 0.79875 0.19544 0.0
H478 H 0.06969 0.74284 0.19891 0.0
H479 H 0.87517 0.82044 0.2267 0.0
H480 H 0.9149 0.85788 0.2155 0.0
H481 H 0.89542 0.82513 0.17654 0.0
H482 H 0.0337 0.92598 0.16717 0.0
H483 H 0.99227 0.84915 0.07019 0.0
H484 H 0.03427 0.85362 0.23995 0.0
H485 H 0.98225 0.87151 0.24569 0.0
H486 H 0.02254 0.90842 0.2347 0.0
H487 H 0.97689 0.75757 0.12427 0.0
H488 H 0.96101 0.78426 0.07964 0.0
H489 H 0.92808 0.78375 0.12331 0.0
C490 C 0.23587 0.9956 0.29913 0.0
C491 C 0.26175 0.96051 0.30164 0.0
C492 C 0.21366 0.00403 0.26416 0.0
C493 C 0.21715 0.97657 0.23078 0.0
C494 C 0.24251 0.94046 0.23347 0.0
C495 C 0.26447 0.93292 0.26884 0.0
C496 C 0.18646 0.04252 0.26291 0.0
C497 C 0.24731 0.90943 0.19952 0.0
C498 C 0.13204 0.99125 0.15437 0.0
C499 C 0.14983 0.02103 0.12924 0.0
C500 C 0.15451 0.97423 0.18632 0.0
C501 C 0.19555 0.98736 0.19292 0.0
C502 C 0.21453 0.01472 0.1654 0.0
C503 C 0.19121 0.03179 0.13426 0.0
C504 C 0.13373 0.94402 0.21426 0.0
C505 C 0.25886 0.02763 0.1701 0.0
H506 H 0.23299 0.01654 0.32467 0.0
H507 H 0.28376 0.90523 0.27087 0.0
H508 H 0.19736 0.0638 0.23905 0.0
H509 H 0.15442 0.03354 0.25553 0.0
H510 H 0.18609 0.05996 0.29179 0.0
H511 H 0.27994 0.90908 0.18933 0.0
H512 H 0.24037 0.87754 0.21048 0.0
H513 H 0.22727 0.91606 0.17356 0.0
H514 H 0.09984 0.98345 0.15077 0.0
H515 H 0.20492 0.05473 0.11458 0.0
H516 H 0.1294 0.95897 0.24409 0.0
H517 H 0.1535 0.91595 0.21835 0.0
H518 H 0.1032 0.93395 0.20304 0.0
H519 H 0.26201 0.04723 0.19745 0.0
H520 H 0.27023 0.04565 0.14401 0.0
H521 H 0.27874 -0.00044 0.17382 0.0
C522 C 0.92226 0.75709 0.75342 0.0
C523 C 0.94864 0.7502 0.72054 0.0
C524 C 0.93537 0.77986 0.78709 0.0
C525 C 0.97582 0.79612 0.7878 0.0
C526 C 0.0022 0.7902 0.7543 0.0
C527 C 0.9881 0.7679 0.72087 0.0
C528 C 0.9061 0.78635 0.82193 0.0
C529 C 0.04564 0.80686 0.75399 0.0
C530 C 0.00859 0.88281 0.85869 0.0
C531 C 0.02924 0.86021 0.88835 0.0
C532 C 0.98925 0.86228 0.82673 0.0
C533 C 0.99138 0.81813 0.82399 0.0
C534 C 0.01111 0.79512 0.85454 0.0
C535 C 0.02948 0.81645 0.88655 0.0
C536 C 0.96733 0.88784 0.79547 0.0
C537 C 0.01491 0.74809 0.85242 0.0
H538 H 0.89138 0.7444 0.75281 0.0
H539 H 0.00826 0.7638 0.69513 0.0
H540 H 0.92085 0.77665 0.85026 0.0
H541 H 0.89844 0.82007 0.82495 0.0
H542 H 0.87703 0.76865 0.81823 0.0
H543 H 0.06221 0.79965 0.72553 0.0
H544 H 0.04516 0.84125 0.75849 0.0
H545 H 0.06327 0.79316 0.7791 0.0
H546 H 0.00782 0.91665 0.86031 0.0
H547 H 0.04539 0.79881 0.9094 0.0
H548 H 0.9345 0.87855 0.79407 0.0
H549 H 0.98109 0.88172 0.76549 0.0
H550 H 0.96879 0.92193 0.80179 0.0
H551 H 0.98585 0.73368 0.84208 0.0
H552 H 0.02319 0.73451 0.88183 0.0
H553 H 0.03936 0.73949 0.83043 0.0
C554 C 0.36092 0.95455 0.79741 0.0
C555 C 0.34768 0.96642 0.7592 0.0
C556 C 0.33974 0.968 0.83207 0.0
C557 C 0.30425 0.99361 0.82839 0.0
C558 C 0.29062 0.00551 0.7899 0.0
C559 C 0.31241 0.9917 0.75581 0.0
C560 C 0.35513 0.95455 0.87259 0.0
C561 C 0.25267 0.03244 0.78469 0.0
C562 C 0.224 0.99771 0.91167 0.0
C563 C 0.23202 0.03654 0.92972 0.0
C564 C 0.24793 0.98287 0.87937 0.0
C565 C 0.28075 0.00743 0.86466 0.0
C566 C 0.2898 0.04609 0.88344 0.0
C567 C 0.2653 0.06021 0.91572 0.0
C568 C 0.23727 0.94145 0.86023 0.0
C569 C 0.32476 0.073 0.86882 0.0
H570 H 0.38778 0.93449 0.80015 0.0
H571 H 0.30167 0.00035 0.72633 0.0
H572 H 0.36202 0.98244 0.89124 0.0
H573 H 0.33089 0.93673 0.88848 0.0
H574 H 0.38332 0.93478 0.87035 0.0
H575 H 0.24645 0.03934 0.75274 0.0
H576 H 0.22543 0.01653 0.79759 0.0
H577 H 0.25629 0.06245 0.80111 0.0
H578 H 0.19837 0.9792 0.92217 0.0
H579 H 0.27187 0.09015 0.92957 0.0
H580 H 0.26478 0.92072 0.85914 0.0
H581 H 0.22737 0.94648 0.8289 0.0
H582 H 0.21221 0.92515 0.87652 0.0
H583 H 0.35388 0.05466 0.86803 0.0
H584 H 0.32922 0.1011 0.88801 0.0
H585 H 0.31856 0.08337 0.8378 0.0
C586 C 0.0066 0.27786 0.75201 0.0
C587 C 0.00092 0.27384 0.71061 0.0
C588 C 0.98975 0.24884 0.77864 0.0
C589 C 0.96708 0.21457 0.76352 0.0
C590 C 0.961 0.21039 0.72176 0.0
C591 C 0.97764 0.24032 0.69584 0.0
C592 C 0.99627 0.25486 0.82305 0.0
C593 C 0.93763 0.17396 0.70439 0.0
C594 C 0.96197 0.12489 0.83675 0.0
C595 C 0.92349 0.13185 0.85505 0.0
C596 C 0.97544 0.14991 0.805 0.0
C597 C 0.95019 0.18322 0.79178 0.0
C598 C 0.91043 0.18901 0.8087 0.0
C599 C 0.89743 0.16303 0.83994 0.0
C600 C 0.01746 0.14182 0.78682 0.0
C601 C 0.88261 0.22426 0.79554 0.0
H602 H 0.02422 0.30388 0.76363 0.0
H603 H 0.97271 0.2374 0.66389 0.0
H604 H 0.96611 0.25606 0.83887 0.0
H605 H 0.01379 0.22795 0.83517 0.0
H606 H 0.01334 0.28398 0.83 0.0
H607 H 0.93281 0.17707 0.67165 0.0
H608 H 0.95506 0.14463 0.70979 0.0
H609 H 0.90718 0.17093 0.7193 0.0
H610 H 0.98213 0.10055 0.84794 0.0
H611 H 0.86755 0.16849 0.85374 0.0
H612 H 0.03863 0.16738 0.79547 0.0
H613 H 0.01565 0.14146 0.75366 0.0
H614 H 0.03094 0.11168 0.79683 0.0
H615 H 0.89615 0.25457 0.80477 0.0
H616 H 0.85123 0.222 0.80879 0.0
H617 H 0.87995 0.22451 0.76246 0.0
C618 C 0.77232 0.08999 0.72151 0.0
C619 C 0.76978 0.06911 0.68454 0.0
C620 C 0.80043 0.07701 0.75078 0.0
C621 C 0.82672 0.04241 0.7428 0.0
C622 C 0.82545 0.02227 0.70495 0.0
C623 C 0.7972 0.03602 0.67619 0.0
C624 C 0.80145 0.09978 0.79051 0.0
C625 C 0.85351 0.98574 0.69508 0.0
C626 C 0.91978 0.0246 0.80944 0.0
C627 C 0.90512 0.99392 0.8356 0.0
C628 C 0.89474 0.04067 0.77897 0.0
C629 C 0.85399 0.02583 0.77473 0.0
C630 C 0.83912 0.99469 0.80091 0.0
C631 C 0.86487 0.97905 0.83092 0.0
C632 C 0.91174 0.07393 0.7518 0.0
C633 C 0.79588 0.97798 0.79733 0.0
H634 H 0.7519 0.11623 0.7277 0.0
H635 H 0.79614 0.02052 0.64726 0.0
H636 H 0.79284 0.07811 0.81493 0.0
H637 H 0.83311 0.11079 0.79668 0.0
H638 H 0.78015 0.12709 0.79146 0.0
H639 H 0.8499 0.97462 0.66372 0.0
H640 H 0.88612 0.99465 0.69972 0.0
H641 H 0.84683 0.95943 0.71553 0.0
H642 H 0.95093 0.03603 0.81266 0.0
H643 H 0.85323 0.95535 0.85099 0.0
H644 H 0.8971 0.10436 0.75951 0.0
H645 H 0.90454 0.06696 0.72003 0.0
H646 H 0.94563 0.07715 0.75475 0.0
H647 H 0.77324 0.0039 0.80089 0.0
H648 H 0.78901 0.95378 0.82006 0.0
H649 H 0.7914 0.96418 0.76712 0.0
C650 C 0.22385 0.39712 0.17351 0.0
C651 C 0.22651 0.43142 0.14775 0.0
C652 C 0.20733 0.35903 0.16041 0.0
C653 C 0.19292 0.35523 0.12062 0.0
C654 C 0.19437 0.39017 0.09489 0.0
C655 C 0.21104 0.4279 0.10881 0.0
C656 C 0.20534 0.32293 0.18916 0.0
C657 C 0.17903 0.38744 0.05239 0.0
C658 C 0.19679 0.2473 0.07321 0.0
C659 C 0.15569 0.23425 0.07642 0.0
C660 C 0.20905 0.28658 0.08734 0.0
C661 C 0.17951 0.31387 0.10492 0.0
C662 C 0.13781 0.30136 0.10769 0.0
C663 C 0.12641 0.26153 0.09364 0.0
C664 C 0.25389 0.2986 0.08409 0.0
C665 C 0.10541 0.3295 0.12639 0.0
H666 H 0.23504 0.4001 0.2039 0.0
H667 H 0.21246 0.4546 0.08908 0.0
H668 H 0.17266 0.31662 0.19667 0.0
H669 H 0.21851 0.29415 0.17527 0.0
H670 H 0.22202 0.32948 0.21743 0.0
H671 H 0.18005 0.41807 0.03698 0.0
H672 H 0.19815 0.3647 0.0351 0.0
H673 H 0.14688 0.37587 0.05207 0.0
H674 H 0.21977 0.2265 0.06014 0.0
H675 H 0.09464 0.25169 0.09649 0.0
H676 H 0.26652 0.30429 0.11442 0.0
H677 H 0.25696 0.32808 0.06708 0.0
H678 H 0.27291 0.27406 0.06902 0.0
H679 H 0.10941 0.33002 0.15935 0.0
H680 H 0.07374 0.3186 0.11977 0.0
H681 H 0.10861 0.36205 0.11564 0.0
C682 C 0.3548 0.79055 0.05592 0.0
C683 C 0.39508 0.80596 0.05793 0.0
C684 C 0.32199 0.81614 0.04429 0.0
C685 C 0.32965 0.85807 0.03345 0.0
C686 C 0.37046 0.87346 0.03371 0.0
C687 C 0.40275 0.84728 0.04639 0.0
C688 C 0.27887 0.7986 0.04493 0.0
C689 C 0.37975 0.91784 0.02181 0.0
C690 C 0.23746 0.9045 0.9808 0.0
C691 C 0.21577 0.92227 0.01325 0.0
C692 C 0.27659 0.88649 0.98613 0.0
C693 C 0.29412 0.88601 0.02482 0.0
C694 C 0.27388 0.90701 0.05685 0.0
C695 C 0.23496 0.92482 0.05069 0.0
C696 C 0.29795 0.8657 0.95092 0.0
C697 C 0.29146 0.90788 0.09857 0.0
H698 H 0.34886 0.7585 0.06441 0.0
H699 H 0.43388 0.85921 0.04768 0.0
H700 H 0.25961 0.81634 0.06685 0.0
H701 H 0.26444 0.80209 0.01513 0.0
H702 H 0.27837 0.76502 0.05316 0.0
H703 H 0.41338 0.92361 0.01951 0.0
H704 H 0.36531 0.92511 0.99264 0.0
H705 H 0.3664 0.93979 0.04433 0.0
H706 H 0.22326 0.90312 0.95156 0.0
H707 H 0.2189 0.93924 0.07586 0.0
H708 H 0.29635 0.83126 0.95414 0.0
H709 H 0.33099 0.8743 0.94997 0.0
H710 H 0.28357 0.87435 0.92203 0.0
H711 H 0.2836 0.87827 0.11385 0.0
H712 H 0.27847 0.9343 0.11648 0.0
H713 H 0.32547 0.91065 0.09811 0.0
C714 C 0.62269 0.16641 0.05962 0.0
C715 C 0.61748 0.20257 0.03656 0.0
C716 C 0.66068 0.1452 0.06051 0.0
C717 C 0.69479 0.16163 0.03936 0.0
C718 C 0.69019 0.19905 0.01742 0.0
C719 C 0.65161 0.21893 0.01619 0.0
C720 C 0.66419 0.10556 0.08451 0.0
C721 C 0.72598 0.21797 0.99498 0.0
C722 C 0.8048 0.13126 0.06487 0.0
C723 C 0.81515 0.10486 0.03257 0.0
C724 C 0.76521 0.14896 0.06831 0.0
C725 C 0.73521 0.13949 0.0391 0.0
C726 C 0.74483 0.111 0.00776 0.0
C727 C 0.78477 0.09431 0.00468 0.0
C728 C 0.75625 0.17953 0.10193 0.0
C729 C 0.71327 0.09916 0.97674 0.0
H730 H 0.59702 0.15442 0.07681 0.0
H731 H 0.64813 0.24747 0.99921 0.0
H732 H 0.68345 0.08176 0.06875 0.0
H733 H 0.67904 0.11279 0.11348 0.0
H734 H 0.63351 0.09185 0.09093 0.0
H735 H 0.71765 0.24807 0.98067 0.0
H736 H 0.75202 0.22343 0.01567 0.0
H737 H 0.73701 0.19595 0.97137 0.0
H738 H 0.82812 0.13951 0.08657 0.0
H739 H 0.79238 0.07346 0.97995 0.0
H740 H 0.7262 0.17264 0.11632 0.0
H741 H 0.75421 0.21159 0.08962 0.0
H742 H 0.78059 0.17904 0.12515 0.0
H743 H 0.72465 0.07417 0.95614 0.0
H744 H 0.70508 0.12697 0.95873 0.0
H745 H 0.68465 0.08829 0.99163 0.0
C746 C 0.83396 0.61498 0.98664 0.0
C747 C 0.79627 0.62026 0.96683 0.0
C748 C 0.86123 0.64857 0.99154 0.0
C749 C 0.85002 0.68861 0.97733 0.0
C750 C 0.81167 0.69429 0.95809 0.0
C751 C 0.78541 0.66008 0.95296 0.0
C752 C 0.90219 0.64117 0.01149 0.0
C753 C 0.7983 0.73661 0.94295 0.0
C754 C 0.8964 0.78855 0.0183 0.0
C755 C 0.9208 0.8014 0.98589 0.0
C756 C 0.87474 0.75076 0.01682 0.0
C757 C 0.87807 0.7249 0.98234 0.0
C758 C 0.90508 0.73626 0.95082 0.0
C759 C 0.9257 0.77466 0.95271 0.0
C760 C 0.84607 0.74006 0.05097 0.0
C761 C 0.91043 0.7091 0.914 0.0
H762 H 0.8422 0.58452 0.99818 0.0
H763 H 0.75611 0.66456 0.93816 0.0
H764 H 0.92759 0.64979 0.99079 0.0
H765 H 0.90486 0.66137 0.03846 0.0
H766 H 0.90649 0.60808 0.0205 0.0
H767 H 0.76692 0.73607 0.92991 0.0
H768 H 0.79863 0.75985 0.96777 0.0
H769 H 0.82024 0.74748 0.91971 0.0
H770 H 0.89226 0.80918 0.04392 0.0
H771 H 0.94477 0.78427 0.92768 0.0
H772 H 0.85046 0.7071 0.06014 0.0
H773 H 0.8137 0.74355 0.041 0.0
H774 H 0.85075 0.76062 0.07749 0.0
H775 H 0.91075 0.67545 0.92178 0.0
H776 H 0.9394 0.71639 0.89776 0.0
H777 H 0.88427 0.71459 0.89345 0.0
loop_
_geom_bond_atom_site_label_1
_geom_bond_atom_site_label_2
_geom_bond_distance
_geom_bond_site_symmetry_2
_ccdc_geom_bond_type
C0 C1 1.560 . S
C0 H61 0.959 . S
C0 H62 0.959 . S
C0 H63 0.960 . S
C1 C0 1.560 . S
C1 O56 1.426 . S
C1 H60 0.980 . S
C2 C3 1.387 1_455 S
C2 C7 1.418 . S
C2 O56 1.334 . S
C3 C2 1.387 1_655 S
C3 C4 1.367 . S
C3 H64 0.942 . S
C4 C3 1.367 . S
C4 C5 1.401 1_655 S
C4 C8 1.527 . S
C5 C4 1.401 1_455 S
C5 C6 1.405 . S
C5 C38 1.587 1_455 S
C6 C5 1.405 . S
C6 C7 1.332 . S
C6 C9 1.496 . S
C7 C2 1.418 . S
C7 C6 1.332 . S
C7 H65 0.929 . S
C8 C4 1.527 . S
C8 H66 0.959 . S
C8 H67 0.961 . S
C8 H68 0.961 . S
C9 C6 1.496 . S
C9 H69 0.960 . S
C9 H70 0.960 . S
C9 H71 0.961 . S
C10 C11 1.517 . S
C10 H73 0.961 1_655 S
C10 H74 0.960 . S
C10 H75 0.959 . S
C11 C10 1.517 . S
C11 O59 1.468 . S
C11 H72 0.980 1_655 S
C12 C13 1.349 1_655 S
C12 C17 1.367 . S
C12 O59 1.408 . S
C13 C12 1.349 1_455 S
C13 C14 1.407 . S
C13 H76 0.930 . S
C14 C13 1.407 . S
C14 C15 1.449 1_455 S
C14 C18 1.535 . S
C15 C14 1.449 1_655 S
C15 C16 1.384 . S
C15 C40 1.553 . S
C16 C15 1.384 . S
C16 C17 1.364 . S
C16 C19 1.450 . S
C17 C12 1.367 . S
C17 C16 1.364 . S
C17 H77 0.931 . S
C18 C14 1.535 . S
C18 H78 0.959 . S
C18 H79 0.961 . S
C18 H80 0.959 . S
C19 C16 1.450 . S
C19 H81 0.960 . S
C19 H82 0.960 . S
C19 H83 0.960 . S
C20 C21 1.309 1_655 S
C20 C25 1.304 . S
C20 O58 1.435 . S
C21 C20 1.309 1_455 S
C21 C22 1.476 . S
C21 H85 0.930 . S
C22 C21 1.476 . S
C22 C23 1.400 1_455 S
C22 C26 1.567 . S
C23 C22 1.400 1_655 S
C23 C24 1.373 . S
C23 C45 1.432 . S
C24 C23 1.373 . S
C24 C25 1.339 . S
C24 C27 1.530 . S
C25 C20 1.304 . S
C25 C24 1.339 . S
C25 H86 0.930 . S
C26 C22 1.567 . S
C26 H87 0.961 . S
C26 H88 0.960 . S
C26 H89 0.958 . S
C27 C24 1.530 . S
C27 H90 0.961 . S
C27 H91 0.960 . S
C27 H92 0.960 . S
C28 C29 1.530 . S
C28 H94 0.961 . S
C28 H95 0.961 . S
C28 H96 0.959 . S
C29 C28 1.530 . S
C29 O57 1.412 . S
C29 H93 0.980 . S
C30 C31 1.288 . S
C30 C35 1.368 1_455 S
C30 O57 1.393 . S
C31 C30 1.288 . S
C31 C32 1.369 . S
C31 H97 0.932 . S
C32 C31 1.369 . S
C32 C33 1.398 . S
C32 C36 1.527 . S
C33 C32 1.398 . S
C33 C34 1.380 1_455 S
C33 C47 1.497 . S
C34 C33 1.380 1_655 S
C34 C35 1.385 . S
C34 C37 1.603 . S
C35 C30 1.368 1_655 S
C35 C34 1.385 . S
C35 H98 0.935 . S
C36 C32 1.527 . S
C36 H99 0.961 . S
C36 H100 0.959 . S
C36 H101 0.959 . S
C37 C34 1.603 . S
C37 H102 0.960 . S
C37 H103 0.962 . S
C37 H104 0.961 . S
C38 C5 1.587 1_655 S
C38 C39 1.360 . S
C38 C51 1.413 . S
C39 C38 1.360 . S
C39 C40 1.365 . S
C39 H105 0.929 . S
C40 C15 1.553 . S
C40 C39 1.365 . S
C40 C41 1.404 . S
C41 C40 1.404 . S
C41 C42 1.395 . S
C41 C52 1.451 . S
C42 C41 1.395 . S
C42 C43 1.322 . S
C42 H106 0.930 . S
C43 C42 1.322 . S
C43 C44 1.459 . S
C43 H107 0.929 . S
C44 C43 1.459 . S
C44 C45 1.445 . S
C44 C53 1.395 . S
C45 C23 1.432 . S
C45 C44 1.445 . S
C45 C46 1.370 1_655 S
C46 C45 1.370 1_455 S
C46 C47 1.438 . S
C46 H108 0.930 . S
C47 C33 1.497 . S
C47 C46 1.438 . S
C47 C48 1.360 . S
C48 C47 1.360 . S
C48 C49 1.401 . S
C48 C53 1.446 1_455 S
C49 C48 1.401 . S
C49 C50 1.347 . S
C49 H109 0.929 . S
C50 C49 1.347 . S
C50 C51 1.451 1_455 S
C50 H110 0.930 . S
C51 C38 1.413 . S
C51 C50 1.451 1_655 S
C51 C52 1.336 . S
C52 C41 1.451 . S
C52 C51 1.336 . S
C52 C53 1.497 . S
C53 C44 1.395 . S
C53 C48 1.446 1_655 S
C53 C52 1.497 . S
C54 C55 1.582 1_655 S
C54 H111 0.954 1_655 S
C54 H112 0.959 . S
C54 H113 0.958 . S
C55 C54 1.582 1_455 S
C55 O58 1.458 1_455 S
C55 H84 0.980 . S
O56 C1 1.426 . S
O56 C2 1.334 . S
O57 C29 1.412 . S
O57 C30 1.393 . S
O58 C20 1.435 . S
O58 C55 1.458 1_655 S
O59 C11 1.468 . S
O59 C12 1.408 . S
H60 C1 0.980 . S
H61 C0 0.959 . S
H62 C0 0.959 . S
H63 C0 0.960 . S
H64 C3 0.942 . S
H65 C7 0.929 . S
H66 C8 0.959 . S
H67 C8 0.961 . S
H68 C8 0.961 . S
H69 C9 0.960 . S
H70 C9 0.960 . S
H71 C9 0.961 . S
H72 C11 0.980 1_455 S
H73 C10 0.961 1_455 S
H74 C10 0.960 . S
H75 C10 0.959 . S
H76 C13 0.930 . S
H77 C17 0.931 . S
H78 C18 0.959 . S
H79 C18 0.961 . S
H80 C18 0.959 . S
H81 C19 0.960 . S
H82 C19 0.960 . S
H83 C19 0.960 . S
H84 C55 0.980 . S
H85 C21 0.930 . S
H86 C25 0.930 . S
H87 C26 0.961 . S
H88 C26 0.960 . S
H89 C26 0.958 . S
H90 C27 0.961 . S
H91 C27 0.960 . S
H92 C27 0.960 . S
H93 C29 0.980 . S
H94 C28 0.961 . S
H95 C28 0.961 . S
H96 C28 0.959 . S
H97 C31 0.932 . S
H98 C35 0.935 . S
H99 C36 0.961 . S
H100 C36 0.959 . S
H101 C36 0.959 . S
H102 C37 0.960 . S
H103 C37 0.962 . S
H104 C37 0.961 . S
H105 C39 0.929 . S
H106 C42 0.930 . S
H107 C43 0.929 . S
H108 C46 0.930 . S
H109 C49 0.929 . S
H110 C50 0.930 . S
H111 C54 0.954 1_455 S
H112 C54 0.959 . S
H113 C54 0.958 . S
C114 C115 1.560 . S
C114 H175 0.959 . S
C114 H176 0.959 . S
C114 H177 0.960 . S
C115 C114 1.560 . S
C115 O170 1.426 . S
C115 H174 0.980 . S
C116 C117 1.407 1_545 S
C116 C121 1.418 . S
C116 O170 1.334 . S
C117 C116 1.407 1_565 S
C117 C118 1.360 . S
C117 H178 0.929 . S
C118 C117 1.360 . S
C118 C119 1.401 1_565 S
C118 C122 1.527 . S
C119 C118 1.401 1_545 S
C119 C120 1.405 . S
C119 C152 1.587 1_545 S
C120 C119 1.405 . S
C120 C121 1.332 . S
C120 C123 1.496 . S
C121 C116 1.418 . S
C121 C120 1.332 . S
C121 H179 0.929 . S
C122 C118 1.527 . S
C122 H180 0.959 . S
C122 H181 0.961 . S
C122 H182 0.961 . S
C123 C120 1.496 . S
C123 H183 0.960 . S
C123 H184 0.960 . S
C123 H185 0.961 . S
C124 C125 1.517 . S
C124 H187 0.960 1_565 S
C124 H188 0.960 . S
C124 H189 0.959 . S
C125 C124 1.517 . S
C125 O173 1.468 . S
C125 H186 0.980 1_565 S
C126 C127 1.346 1_565 S
C126 C131 1.367 . S
C126 O173 1.408 . S
C127 C126 1.346 1_545 S
C127 C128 1.408 . S
C127 H190 0.933 . S
C128 C127 1.408 . S
C128 C129 1.449 1_545 S
C128 C132 1.535 . S
C129 C128 1.449 1_565 S
C129 C130 1.384 . S
C129 C154 1.553 . S
C130 C129 1.384 . S
C130 C131 1.364 . S
C130 C133 1.450 . S
C131 C126 1.367 . S
C131 C130 1.364 . S
C131 H191 0.931 . S
C132 C128 1.535 . S
C132 H192 0.959 . S
C132 H193 0.961 . S
C132 H194 0.959 . S
C133 C130 1.450 . S
C133 H195 0.960 . S
C133 H196 0.960 . S
C133 H197 0.960 . S
C134 C135 1.309 1_565 S
C134 C139 1.304 . S
C134 O172 1.435 . S
C135 C134 1.309 1_545 S
C135 C136 1.476 . S
C135 H199 0.930 . S
C136 C135 1.476 . S
C136 C137 1.400 1_545 S
C136 C140 1.567 . S
C137 C136 1.400 1_565 S
C137 C138 1.373 . S
C137 C159 1.432 . S
C138 C137 1.373 . S
C138 C139 1.339 . S
C138 C141 1.530 . S
C139 C134 1.304 . S
C139 C138 1.339 . S
C139 H200 0.930 . S
C140 C136 1.567 . S
C140 H201 0.961 . S
C140 H202 0.960 . S
C140 H203 0.958 . S
C141 C138 1.530 . S
C141 H204 0.961 . S
C141 H205 0.960 . S
C141 H206 0.960 . S
C142 C143 1.530 . S
C142 H208 0.961 . S
C142 H209 0.961 . S
C142 H210 0.959 . S
C143 C142 1.530 . S
C143 O171 1.412 . S
C143 H207 0.980 . S
C144 C145 1.288 . S
C144 C149 1.377 1_545 S
C144 O171 1.393 . S
C145 C144 1.288 . S
C145 C146 1.369 . S
C145 H211 0.932 . S
C146 C145 1.369 . S
C146 C147 1.398 . S
C146 C150 1.527 . S
C147 C146 1.398 . S
C147 C148 1.380 1_545 S
C147 C161 1.497 . S
C148 C147 1.380 1_565 S
C148 C149 1.383 . S
C148 C151 1.603 . S
C149 C144 1.377 1_565 S
C149 C148 1.383 . S
C149 H212 0.929 . S
C150 C146 1.527 . S
C150 H213 0.961 . S
C150 H214 0.959 . S
C150 H215 0.959 . S
C151 C148 1.603 . S
C151 H216 0.960 . S
C151 H217 0.962 . S
C151 H218 0.961 . S
C152 C119 1.587 1_565 S
C152 C153 1.360 . S
C152 C165 1.412 . S
C153 C152 1.360 . S
C153 C154 1.365 . S
C153 H219 0.929 . S
C154 C129 1.553 . S
C154 C153 1.365 . S
C154 C155 1.404 . S
C155 C154 1.404 . S
C155 C156 1.395 . S
C155 C166 1.451 . S
C156 C155 1.395 . S
C156 C157 1.322 . S
C156 H220 0.930 . S
C157 C156 1.322 . S
C157 C158 1.459 . S
C157 H221 0.929 . S
C158 C157 1.459 . S
C158 C159 1.445 . S
C158 C167 1.395 . S
C159 C137 1.432 . S
C159 C158 1.445 . S
C159 C160 1.370 . S
C160 C159 1.370 . S
C160 C161 1.438 1_565 S
C160 H222 0.932 . S
C161 C147 1.497 . S
C161 C160 1.438 1_545 S
C161 C162 1.360 1_545 S
C162 C161 1.360 1_565 S
C162 C163 1.401 1_565 S
C162 C167 1.446 . S
C163 C162 1.401 1_545 S
C163 C164 1.347 . S
C163 H223 0.929 . S
C164 C163 1.347 . S
C164 C165 1.455 1_545 S
C164 H224 0.930 . S
C165 C152 1.412 . S
C165 C164 1.455 1_565 S
C165 C166 1.331 . S
C166 C155 1.451 . S
C166 C165 1.331 . S
C166 C167 1.497 . S
C167 C158 1.395 . S
C167 C162 1.446 . S
C167 C166 1.497 . S
C168 C169 1.582 1_565 S
C168 H225 0.962 . S
C168 H226 0.959 . S
C168 H227 0.958 . S
C169 C168 1.582 1_545 S
C169 O172 1.458 1_545 S
C169 H198 0.980 . S
O170 C115 1.426 . S
O170 C116 1.334 . S
O171 C143 1.412 . S
O171 C144 1.393 . S
O172 C134 1.435 . S
O172 C169 1.458 1_565 S
O173 C125 1.468 . S
O173 C126 1.408 . S
H174 C115 0.980 . S
H175 C114 0.959 . S
H176 C114 0.959 . S
H177 C114 0.960 . S
H178 C117 0.929 . S
H179 C121 0.929 . S
H180 C122 0.959 . S
H181 C122 0.961 . S
H182 C122 0.961 . S
H183 C123 0.960 . S
H184 C123 0.960 . S
H185 C123 0.961 . S
H186 C125 0.980 1_545 S
H187 C124 0.960 1_545 S
H188 C124 0.960 . S
H189 C124 0.959 . S
H190 C127 0.933 . S
H191 C131 0.931 . S
H192 C132 0.959 . S
H193 C132 0.961 . S
H194 C132 0.959 . S
H195 C133 0.960 . S
H196 C133 0.960 . S
H197 C133 0.960 . S
H198 C169 0.980 . S
H199 C135 0.930 . S
H200 C139 0.930 . S
H201 C140 0.961 . S
H202 C140 0.960 . S
H203 C140 0.958 . S
H204 C141 0.961 . S
H205 C141 0.960 . S
H206 C141 0.960 . S
H207 C143 0.980 . S
H208 C142 0.961 . S
H209 C142 0.961 . S
H210 C142 0.959 . S
H211 C145 0.932 . S
H212 C149 0.929 . S
H213 C150 0.961 . S
H214 C150 0.959 . S
H215 C150 0.959 . S
H216 C151 0.960 . S
H217 C151 0.962 . S
H218 C151 0.961 . S
H219 C153 0.929 . S
H220 C156 0.930 . S
H221 C157 0.929 . S
H222 C160 0.932 . S
H223 C163 0.929 . S
H224 C164 0.930 . S
H225 C168 0.962 . S
H226 C168 0.959 . S
H227 C168 0.958 . S
C228 C229 1.560 . S
C228 H289 0.959 . S
C228 H290 0.959 . S
C228 H291 0.960 . S
C229 C228 1.560 . S
C229 O284 1.426 . S
C229 H288 0.980 1_556 S
C230 C231 1.407 1_556 S
C230 C235 1.418 . S
C230 O284 1.334 . S
C231 C230 1.407 1_554 S
C231 C232 1.360 . S
C231 H292 0.929 . S
C232 C231 1.360 . S
C232 C233 1.401 . S
C232 C236 1.527 . S
C233 C232 1.401 . S
C233 C234 1.405 1_554 S
C233 C266 1.587 . S
C234 C233 1.405 1_556 S
C234 C235 1.332 . S
C234 C237 1.496 . S
C235 C230 1.418 . S
C235 C234 1.332 . S
C235 H293 0.929 . S
C236 C232 1.527 . S
C236 H294 0.959 . S
C236 H295 0.961 . S
C236 H296 0.961 . S
C237 C234 1.496 . S
C237 H297 0.960 . S
C237 H298 0.960 . S
C237 H299 0.961 . S
C238 C239 1.517 . S
C238 H301 0.961 . S
C238 H302 0.960 . S
C238 H303 0.959 . S
C239 C238 1.517 . S
C239 O287 1.468 . S
C239 H300 0.980 . S
C240 C241 1.349 . S
C240 C245 1.367 . S
C240 O287 1.408 . S
C241 C240 1.349 . S
C241 C242 1.407 . S
C241 H304 0.930 . S
C242 C241 1.407 . S
C242 C243 1.449 . S
C242 C246 1.535 1_554 S
C243 C242 1.449 . S
C243 C244 1.384 . S
C243 C268 1.553 . S
C244 C243 1.384 . S
C244 C245 1.364 . S
C244 C247 1.450 . S
C245 C240 1.367 . S
C245 C244 1.364 . S
C245 H305 0.931 . S
C246 C242 1.535 1_556 S
C246 H306 0.959 . S
C246 H307 0.961 . S
C246 H308 0.959 . S
C247 C244 1.450 . S
C247 H309 0.960 . S
C247 H310 0.960 . S
C247 H311 0.960 . S
C248 C249 1.309 . S
C248 C253 1.304 . S
C248 O286 1.435 . S
C249 C248 1.309 . S
C249 C250 1.476 . S
C249 H313 0.930 1_554 S
C250 C249 1.476 . S
C250 C251 1.400 . S
C250 C254 1.567 1_554 S
C251 C250 1.400 . S
C251 C252 1.373 . S
C251 C273 1.432 . S
C252 C251 1.373 . S
C252 C253 1.339 . S
C252 C255 1.530 . S
C253 C248 1.304 . S
C253 C252 1.339 . S
C253 H314 0.930 . S
C254 C250 1.567 1_556 S
C254 H315 0.961 . S
C254 H316 0.960 . S
C254 H317 0.958 . S
C255 C252 1.530 . S
C255 H318 0.961 . S
C255 H319 0.960 . S
C255 H320 0.960 . S
C256 C257 1.530 1_556 S
C256 H322 0.961 . S
C256 H323 0.961 . S
C256 H324 0.959 . S
C257 C256 1.530 1_554 S
C257 O285 1.412 1_554 S
C257 H321 0.980 . S
C258 C259 1.288 . S
C258 C263 1.377 1_556 S
C258 O285 1.393 . S
C259 C258 1.288 . S
C259 C260 1.369 . S
C259 H325 0.932 . S
C260 C259 1.369 . S
C260 C261 1.398 1_556 S
C260 C264 1.527 . S
C261 C260 1.398 1_554 S
C261 C262 1.380 . S
C261 C275 1.497 . S
C262 C261 1.380 . S
C262 C263 1.383 . S
C262 C265 1.603 . S
C263 C258 1.377 1_554 S
C263 C262 1.383 . S
C263 H326 0.929 . S
C264 C260 1.527 . S
C264 H327 0.961 . S
C264 H328 0.959 . S
C264 H329 0.959 . S
C265 C262 1.603 . S
C265 H330 0.960 . S
C265 H331 0.962 . S
C265 H332 0.961 . S
C266 C233 1.587 . S
C266 C267 1.360 . S
C266 C279 1.412 . S
C267 C266 1.360 . S
C267 C268 1.365 . S
C267 H333 0.929 . S
C268 C243 1.553 . S
C268 C267 1.365 . S
C268 C269 1.404 . S
C269 C268 1.404 . S
C269 C270 1.395 . S
C269 C280 1.451 . S
C270 C269 1.395 . S
C270 C271 1.322 . S
C270 H334 0.930 . S
C271 C270 1.322 . S
C271 C272 1.459 . S
C271 H335 0.929 . S
C272 C271 1.459 . S
C272 C273 1.445 . S
C272 C281 1.395 . S
C273 C251 1.432 . S
C273 C272 1.445 . S
C273 C274 1.370 . S
C274 C273 1.370 . S
C274 C275 1.438 . S
C274 H336 0.930 . S
C275 C261 1.497 . S
C275 C274 1.438 . S
C275 C276 1.360 . S
C276 C275 1.360 . S
C276 C277 1.401 . S
C276 C281 1.446 . S
C277 C276 1.401 . S
C277 C278 1.347 . S
C277 H337 0.929 . S
C278 C277 1.347 . S
C278 C279 1.455 . S
C278 H338 0.930 . S
C279 C266 1.412 . S
C279 C278 1.455 . S
C279 C280 1.331 . S
C280 C269 1.451 . S
C280 C279 1.331 . S
C280 C281 1.497 . S
C281 C272 1.395 . S
C281 C276 1.446 . S
C281 C280 1.497 . S
C282 C283 1.582 . S
C282 H339 0.962 . S
C282 H340 0.959 . S
C282 H341 0.958 . S
C283 C282 1.582 . S
C283 O286 1.458 . S
C283 H312 0.980 . S
O284 C229 1.426 . S
O284 C230 1.334 . S
O285 C257 1.412 1_556 S
O285 C258 1.393 . S
O286 C248 1.435 . S
O286 C283 1.458 . S
O287 C239 1.468 . S
O287 C240 1.408 . S
H288 C229 0.980 1_554 S
H289 C228 0.959 . S
H290 C228 0.959 . S
H291 C228 0.960 . S
H292 C231 0.929 . S
H293 C235 0.929 . S
H294 C236 0.959 . S
H295 C236 0.961 . S
H296 C236 0.961 . S
H297 C237 0.960 . S
H298 C237 0.960 . S
H299 C237 0.961 . S
H300 C239 0.980 . S
H301 C238 0.961 . S
H302 C238 0.960 . S
H303 C238 0.959 . S
H304 C241 0.930 . S
H305 C245 0.931 . S
H306 C246 0.959 . S
H307 C246 0.961 . S
H308 C246 0.959 . S
H309 C247 0.960 . S
H310 C247 0.960 . S
H311 C247 0.960 . S
H312 C283 0.980 . S
H313 C249 0.930 1_556 S
H314 C253 0.930 . S
H315 C254 0.961 . S
H316 C254 0.960 . S
H317 C254 0.958 . S
H318 C255 0.961 . S
H319 C255 0.960 . S
H320 C255 0.960 . S
H321 C257 0.980 . S
H322 C256 0.961 . S
H323 C256 0.961 . S
H324 C256 0.959 . S
H325 C259 0.932 . S
H326 C263 0.929 . S
H327 C264 0.961 . S
H328 C264 0.959 . S
H329 C264 0.959 . S
H330 C265 0.960 . S
H331 C265 0.962 . S
H332 C265 0.961 . S
H333 C267 0.929 . S
H334 C270 0.930 . S
H335 C271 0.929 . S
H336 C274 0.930 . S
H337 C277 0.929 . S
H338 C278 0.930 . S
H339 C282 0.962 . S
H340 C282 0.959 . S
H341 C282 0.958 . S
Zn342 O344 1.933 1_556 S
Zn342 O362 1.985 . S
Zn342 O373 1.955 . S
Zn343 O344 1.911 . S
Zn343 O363 1.970 . S
Zn343 O379 1.945 . S
Zn343 O386 1.981 . S
O344 Zn342 1.933 1_554 S
O344 Zn343 1.911 . S
O344 H345 0.841 . S
H345 O344 0.841 . S
C346 O347 1.246 . S
C346 O375 1.276 1_455 S
O347 C346 1.246 . S
Zn348 O350 1.911 . S
Zn348 O365 1.970 . S
Zn348 O382 1.945 . S
Zn348 O389 1.981 . S
Zn349 O350 1.933 1_556 S
Zn349 O364 1.985 . S
Zn349 O371 1.955 . S
O350 Zn348 1.911 . S
O350 Zn349 1.933 1_554 S
O350 H351 0.841 1_565 S
H351 O350 0.841 1_545 S
Zn352 O353 1.933 1_556 S
Zn352 O366 1.985 . S
Zn352 O375 1.955 . S
O353 Zn352 1.933 1_554 S
O353 Zn354 1.911 . S
O353 H355 0.841 1_655 S
Zn354 O353 1.911 . S
Zn354 O367 1.970 . S
Zn354 O383 1.981 . S
Zn354 O385 1.945 . S
H355 O353 0.841 1_455 S
Zn356 O357 1.933 1_556 S
Zn356 O369 1.985 . S
Zn356 O377 1.955 . S
O357 Zn356 1.933 1_554 S
O357 H358 0.841 . S
O357 Zn359 1.911 . S
H358 O357 0.841 . S
Zn359 O357 1.911 . S
Zn359 O370 1.970 . S
Zn359 O380 1.981 . S
Zn359 O388 1.945 . S
C360 O361 1.246 1_455 S
C360 O377 1.276 . S
O361 C360 1.246 1_655 S
O362 Zn342 1.985 . S
O362 C372 1.245 1_556 S
O363 Zn343 1.970 . S
O363 C372 1.263 . S
O364 Zn349 1.985 . S
O364 C376 1.245 1_556 S
O365 Zn348 1.970 . S
O365 C376 1.263 . S
O366 Zn352 1.985 . S
O366 C381 1.245 1_556 S
O367 Zn354 1.970 . S
O367 C381 1.263 . S
C368 O379 1.262 . S
C368 O380 1.245 1_545 S
O369 Zn356 1.985 . S
O369 C387 1.245 1_556 S
O370 Zn359 1.970 . S
O370 C387 1.263 . S
O371 Zn349 1.955 . S
O371 C390 1.276 1_565 S
C372 O362 1.245 1_554 S
C372 O363 1.263 . S
O373 Zn342 1.955 . S
O373 C392 1.276 . S
C374 O382 1.262 1_545 S
C374 O383 1.245 . S
O375 C346 1.276 1_655 S
O375 Zn352 1.955 . S
C376 O364 1.245 1_554 S
C376 O365 1.263 . S
O377 Zn356 1.955 . S
O377 C360 1.276 . S
C378 O385 1.262 1_455 S
C378 O386 1.245 . S
O379 Zn343 1.945 . S
O379 C368 1.262 . S
O380 Zn359 1.981 . S
O380 C368 1.245 1_565 S
C381 O366 1.245 1_554 S
C381 O367 1.263 . S
O382 Zn348 1.945 . S
O382 C374 1.262 1_565 S
O383 Zn354 1.981 . S
O383 C374 1.245 . S
C384 O388 1.262 . S
C384 O389 1.245 1_455 S
O385 Zn354 1.945 . S
O385 C378 1.262 1_655 S
O386 Zn343 1.981 . S
O386 C378 1.245 . S
C387 O369 1.245 1_554 S
C387 O370 1.263 . S
O388 Zn359 1.945 . S
O388 C384 1.262 . S
O389 Zn348 1.981 . S
O389 C384 1.245 1_655 S
C390 O371 1.276 1_545 S
C390 O391 1.246 . S
O391 C390 1.246 . S
C392 O373 1.276 . S
C392 O393 1.246 1_545 S
O393 C392 1.246 1_565 S
C394 C395 1.391 . S
C394 C396 1.394 . S
C394 H410 0.931 . S
C395 C394 1.391 . S
C395 C399 1.376 1_455 S
C396 C394 1.394 . S
C396 C397 1.369 . S
C396 C400 1.531 . S
C397 C396 1.369 . S
C397 C398 1.410 1_455 S
C397 C405 1.503 . S
C398 C397 1.410 1_655 S
C398 C399 1.392 . S
C398 C401 1.511 . S
C399 C395 1.376 1_655 S
C399 C398 1.392 . S
C399 H411 0.929 . S
C400 C396 1.531 . S
C400 H412 0.960 . S
C400 H413 0.962 . S
C400 H414 0.960 . S
C401 C398 1.511 . S
C401 H415 0.961 . S
C401 H416 0.961 . S
C401 H417 0.961 . S
C402 C403 1.370 . S
C402 C404 1.363 . S
C402 H418 0.931 . S
C403 C402 1.370 . S
C403 C407 1.408 1_455 S
C404 C402 1.363 . S
C404 C405 1.370 . S
C404 C408 1.524 . S
C405 C397 1.503 . S
C405 C404 1.370 . S
C405 C406 1.403 1_455 S
C406 C405 1.403 1_655 S
C406 C407 1.404 . S
C406 C409 1.539 . S
C407 C403 1.408 1_655 S
C407 C406 1.404 . S
C407 H419 0.930 . S
C408 C404 1.524 . S
C408 H420 0.956 . S
C408 H421 0.961 . S
C408 H422 0.961 . S
C409 C406 1.539 . S
C409 H423 0.958 . S
C409 H424 0.961 . S
C409 H425 0.960 . S
H410 C394 0.931 . S
H411 C399 0.929 . S
H412 C400 0.960 . S
H413 C400 0.962 . S
H414 C400 0.960 . S
H415 C401 0.961 . S
H416 C401 0.961 . S
H417 C401 0.961 . S
H418 C402 0.931 . S
H419 C407 0.930 . S
H420 C408 0.956 . S
H421 C408 0.961 . S
H422 C408 0.961 . S
H423 C409 0.958 . S
H424 C409 0.961 . S
H425 C409 0.960 . S
C426 C427 1.391 . S
C426 C428 1.394 . S
C426 H442 0.931 . S
C427 C426 1.391 . S
C427 C431 1.376 1_545 S
C428 C426 1.394 . S
C428 C429 1.369 . S
C428 C432 1.531 . S
C429 C428 1.369 . S
C429 C430 1.410 1_545 S
C429 C437 1.503 . S
C430 C429 1.410 1_565 S
C430 C431 1.392 . S
C430 C433 1.511 . S
C431 C427 1.376 1_565 S
C431 C430 1.392 . S
C431 H443 0.929 . S
C432 C428 1.531 . S
C432 H444 0.960 . S
C432 H445 0.962 . S
C432 H446 0.960 . S
C433 C430 1.511 . S
C433 H447 0.961 . S
C433 H448 0.961 . S
C433 H449 0.961 . S
C434 C435 1.370 . S
C434 C436 1.363 . S
C434 H450 0.931 . S
C435 C434 1.370 . S
C435 C439 1.408 . S
C436 C434 1.363 . S
C436 C437 1.370 . S
C436 C440 1.524 . S
C437 C429 1.503 . S
C437 C436 1.370 . S
C437 C438 1.403 . S
C438 C437 1.403 . S
C438 C439 1.404 . S
C438 C441 1.539 . S
C439 C435 1.408 . S
C439 C438 1.404 . S
C439 H451 0.930 . S
C440 C436 1.524 . S
C440 H452 0.956 . S
C440 H453 0.961 1_545 S
C440 H454 0.961 1_545 S
C441 C438 1.539 . S
C441 H455 0.958 . S
C441 H456 0.961 . S
C441 H457 0.960 . S
H442 C426 0.931 . S
H443 C431 0.929 . S
H444 C432 0.960 . S
H445 C432 0.962 . S
H446 C432 0.960 . S
H447 C433 0.961 . S
H448 C433 0.961 . S
H449 C433 0.961 . S
H450 C434 0.931 . S
H451 C439 0.930 . S
H452 C440 0.956 . S
H453 C440 0.961 1_565 S
H454 C440 0.961 1_565 S
H455 C441 0.958 . S
H456 C441 0.961 . S
H457 C441 0.960 . S
C458 C459 1.391 . S
C458 C460 1.394 . S
C458 H474 0.931 . S
C459 C458 1.391 . S
C459 C463 1.376 1_455 S
C460 C458 1.394 . S
C460 C461 1.369 . S
C460 C464 1.531 . S
C461 C460 1.369 . S
C461 C462 1.410 1_455 S
C461 C469 1.503 . S
C462 C461 1.410 1_655 S
C462 C463 1.392 . S
C462 C465 1.511 . S
C463 C459 1.376 1_655 S
C463 C462 1.392 . S
C463 H475 0.929 . S
C464 C460 1.531 . S
C464 H476 0.960 . S
C464 H477 0.962 . S
C464 H478 0.960 . S
C465 C462 1.511 . S
C465 H479 0.961 . S
C465 H480 0.961 . S
C465 H481 0.961 . S
C466 C467 1.370 1_655 S
C466 C468 1.363 . S
C466 H482 0.931 . S
C467 C466 1.370 1_455 S
C467 C471 1.408 . S
C468 C466 1.363 . S
C468 C469 1.370 1_655 S
C468 C472 1.524 . S
C469 C461 1.503 . S
C469 C468 1.370 1_455 S
C469 C470 1.403 . S
C470 C469 1.403 . S
C470 C471 1.404 . S
C470 C473 1.539 . S
C471 C467 1.408 . S
C471 C470 1.404 . S
C471 H483 0.930 . S
C472 C468 1.524 . S
C472 H484 0.956 . S
C472 H485 0.961 . S
C472 H486 0.961 . S
C473 C470 1.539 . S
C473 H487 0.958 . S
C473 H488 0.961 . S
C473 H489 0.960 . S
H474 C458 0.931 . S
H475 C463 0.929 . S
H476 C464 0.960 . S
H477 C464 0.962 . S
H478 C464 0.960 . S
H479 C465 0.961 . S
H480 C465 0.961 . S
H481 C465 0.961 . S
H482 C466 0.931 . S
H483 C471 0.930 . S
H484 C472 0.956 . S
H485 C472 0.961 . S
H486 C472 0.961 . S
H487 C473 0.958 . S
H488 C473 0.961 . S
H489 C473 0.960 . S
C490 C491 1.391 . S
C490 C492 1.394 . S
C490 H506 0.931 . S
C491 C490 1.391 . S
C491 C495 1.376 1_545 S
C492 C490 1.394 . S
C492 C493 1.369 . S
C492 C496 1.531 . S
C493 C492 1.369 . S
C493 C494 1.410 1_545 S
C493 C501 1.503 . S
C494 C493 1.410 1_565 S
C494 C495 1.392 . S
C494 C497 1.511 . S
C495 C491 1.376 1_565 S
C495 C494 1.392 . S
C495 H507 0.929 . S
C496 C492 1.531 . S
C496 H508 0.960 . S
C496 H509 0.962 . S
C496 H510 0.960 . S
C497 C494 1.511 . S
C497 H511 0.961 . S
C497 H512 0.961 . S
C497 H513 0.961 . S
C498 C499 1.370 . S
C498 C500 1.363 . S
C498 H514 0.933 . S
C499 C498 1.370 . S
C499 C503 1.408 . S
C500 C498 1.363 . S
C500 C501 1.370 . S
C500 C504 1.524 . S
C501 C493 1.503 . S
C501 C500 1.370 . S
C501 C502 1.403 . S
C502 C501 1.403 . S
C502 C503 1.404 . S
C502 C505 1.539 . S
C503 C499 1.408 . S
C503 C502 1.404 . S
C503 H515 0.930 . S
C504 C500 1.524 . S
C504 H516 0.956 . S
C504 H517 0.961 1_545 S
C504 H518 0.961 1_545 S
C505 C502 1.539 . S
C505 H519 0.958 . S
C505 H520 0.961 . S
C505 H521 0.960 . S
H506 C490 0.931 . S
H507 C495 0.929 . S
H508 C496 0.960 . S
H509 C496 0.962 . S
H510 C496 0.960 . S
H511 C497 0.961 . S
H512 C497 0.961 . S
H513 C497 0.961 . S
H514 C498 0.933 . S
H515 C503 0.930 . S
H516 C504 0.956 . S
H517 C504 0.961 1_565 S
H518 C504 0.961 1_565 S
H519 C505 0.958 . S
H520 C505 0.961 . S
H521 C505 0.960 . S
C522 C523 1.391 1_655 S
C522 C524 1.394 . S
C522 H538 0.931 . S
C523 C522 1.391 1_455 S
C523 C527 1.376 . S
C524 C522 1.394 . S
C524 C525 1.369 1_655 S
C524 C528 1.531 . S
C525 C524 1.369 1_455 S
C525 C526 1.410 . S
C525 C533 1.503 . S
C526 C525 1.410 . S
C526 C527 1.392 . S
C526 C529 1.511 . S
C527 C523 1.376 . S
C527 C526 1.392 . S
C527 H539 0.929 . S
C528 C524 1.531 . S
C528 H540 0.960 . S
C528 H541 0.962 . S
C528 H542 0.960 . S
C529 C526 1.511 . S
C529 H543 0.961 . S
C529 H544 0.961 . S
C529 H545 0.961 . S
C530 C531 1.370 1_655 S
C530 C532 1.363 . S
C530 H546 0.931 . S
C531 C530 1.370 1_455 S
C531 C535 1.408 . S
C532 C530 1.363 . S
C532 C533 1.370 1_655 S
C532 C536 1.524 . S
C533 C525 1.503 . S
C533 C532 1.370 1_455 S
C533 C534 1.403 . S
C534 C533 1.403 . S
C534 C535 1.404 . S
C534 C537 1.539 . S
C535 C531 1.408 . S
C535 C534 1.404 . S
C535 H547 0.930 . S
C536 C532 1.524 . S
C536 H548 0.956 . S
C536 H549 0.961 . S
C536 H550 0.961 . S
C537 C534 1.539 . S
C537 H551 0.958 . S
C537 H552 0.961 . S
C537 H553 0.960 . S
H538 C522 0.931 . S
H539 C527 0.929 . S
H540 C528 0.960 . S
H541 C528 0.962 . S
H542 C528 0.960 . S
H543 C529 0.961 . S
H544 C529 0.961 . S
H545 C529 0.961 . S
H546 C530 0.931 . S
H547 C535 0.930 . S
H548 C536 0.956 . S
H549 C536 0.961 . S
H550 C536 0.961 . S
H551 C537 0.958 . S
H552 C537 0.961 . S
H553 C537 0.960 . S
C554 C555 1.391 . S
C554 C556 1.394 . S
C554 H570 0.931 . S
C555 C554 1.391 . S
C555 C559 1.376 1_545 S
C556 C554 1.394 . S
C556 C557 1.369 . S
C556 C560 1.531 . S
C557 C556 1.369 . S
C557 C558 1.410 1_545 S
C557 C565 1.503 . S
C558 C557 1.410 1_565 S
C558 C559 1.392 . S
C558 C561 1.511 . S
C559 C555 1.376 1_565 S
C559 C558 1.392 . S
C559 H571 0.929 . S
C560 C556 1.531 . S
C560 H572 0.960 . S
C560 H573 0.962 . S
C560 H574 0.960 . S
C561 C558 1.511 . S
C561 H575 0.961 . S
C561 H576 0.961 . S
C561 H577 0.961 . S
C562 C563 1.370 . S
C562 C564 1.363 . S
C562 H578 0.931 . S
C563 C562 1.370 . S
C563 C567 1.408 1_565 S
C564 C562 1.363 . S
C564 C565 1.370 1_565 S
C564 C568 1.524 . S
C565 C557 1.503 . S
C565 C564 1.370 1_545 S
C565 C566 1.403 . S
C566 C565 1.403 . S
C566 C567 1.404 . S
C566 C569 1.539 . S
C567 C563 1.408 1_545 S
C567 C566 1.404 . S
C567 H579 0.930 . S
C568 C564 1.524 . S
C568 H580 0.956 1_565 S
C568 H581 0.961 . S
C568 H582 0.961 . S
C569 C566 1.539 . S
C569 H583 0.958 . S
C569 H584 0.961 1_545 S
C569 H585 0.960 1_545 S
H570 C554 0.931 . S
H571 C559 0.929 . S
H572 C560 0.960 . S
H573 C560 0.962 . S
H574 C560 0.960 . S
H575 C561 0.961 . S
H576 C561 0.961 . S
H577 C561 0.961 . S
H578 C562 0.931 . S
H579 C567 0.930 . S
H580 C568 0.956 1_545 S
H581 C568 0.961 . S
H582 C568 0.961 . S
H583 C569 0.958 . S
H584 C569 0.961 1_565 S
H585 C569 0.960 1_565 S
C586 C587 1.391 . S
C586 C588 1.394 . S
C586 H602 0.931 . S
C587 C586 1.391 . S
C587 C591 1.376 1_455 S
C588 C586 1.394 . S
C588 C589 1.369 . S
C588 C592 1.531 . S
C589 C588 1.369 . S
C589 C590 1.410 1_455 S
C589 C597 1.503 . S
C590 C589 1.410 1_655 S
C590 C591 1.392 . S
C590 C593 1.511 . S
C591 C587 1.376 1_655 S
C591 C590 1.392 . S
C591 H603 0.929 . S
C592 C588 1.531 . S
C592 H604 0.960 . S
C592 H605 0.962 . S
C592 H606 0.960 . S
C593 C590 1.511 . S
C593 H607 0.961 . S
C593 H608 0.961 . S
C593 H609 0.961 . S
C594 C595 1.370 . S
C594 C596 1.363 . S
C594 H610 0.931 . S
C595 C594 1.370 . S
C595 C599 1.408 . S
C596 C594 1.363 . S
C596 C597 1.370 . S
C596 C600 1.524 . S
C597 C589 1.503 . S
C597 C596 1.370 . S
C597 C598 1.403 . S
C598 C597 1.403 . S
C598 C599 1.404 . S
C598 C601 1.539 1_455 S
C599 C595 1.408 . S
C599 C598 1.404 . S
C599 H611 0.932 . S
C600 C596 1.524 . S
C600 H612 0.956 . S
C600 H613 0.961 . S
C600 H614 0.961 . S
C601 C598 1.539 1_655 S
C601 H615 0.958 1_655 S
C601 H616 0.961 . S
C601 H617 0.960 . S
H602 C586 0.931 . S
H603 C591 0.929 . S
H604 C592 0.960 . S
H605 C592 0.962 . S
H606 C592 0.960 . S
H607 C593 0.961 . S
H608 C593 0.961 . S
H609 C593 0.961 . S
H610 C594 0.931 . S
H611 C599 0.932 . S
H612 C600 0.956 . S
H613 C600 0.961 . S
H614 C600 0.961 . S
H615 C601 0.958 1_455 S
H616 C601 0.961 . S
H617 C601 0.960 . S
C618 C619 1.391 . S
C618 C620 1.394 . S
C618 H634 0.931 . S
C619 C618 1.391 . S
C619 C623 1.376 . S
C620 C618 1.394 . S
C620 C621 1.369 . S
C620 C624 1.531 . S
C621 C620 1.369 . S
C621 C622 1.413 . S
C621 C629 1.503 . S
C622 C621 1.413 . S
C622 C623 1.393 . S
C622 C625 1.507 1_545 S
C623 C619 1.376 . S
C623 C622 1.393 . S
C623 H635 0.929 1_545 S
C624 C620 1.531 . S
C624 H636 0.960 . S
C624 H637 0.962 . S
C624 H638 0.960 . S
C625 C622 1.507 1_565 S
C625 H639 0.961 . S
C625 H640 0.961 . S
C625 H641 0.961 . S
C626 C627 1.370 . S
C626 C628 1.363 . S
C626 H642 0.931 . S
C627 C626 1.370 . S
C627 C631 1.408 1_545 S
C628 C626 1.363 . S
C628 C629 1.370 . S
C628 C632 1.524 . S
C629 C621 1.503 . S
C629 C628 1.370 . S
C629 C630 1.403 1_545 S
C630 C629 1.403 1_565 S
C630 C631 1.404 . S
C630 C633 1.539 . S
C631 C627 1.408 1_565 S
C631 C630 1.404 . S
C631 H643 0.930 . S
C632 C628 1.524 . S
C632 H644 0.956 . S
C632 H645 0.961 . S
C632 H646 0.961 . S
C633 C630 1.539 . S
C633 H647 0.958 . S
C633 H648 0.961 . S
C633 H649 0.960 . S
H634 C618 0.931 . S
H635 C623 0.929 1_565 S
H636 C624 0.960 . S
H637 C624 0.962 . S
H638 C624 0.960 . S
H639 C625 0.961 . S
H640 C625 0.961 . S
H641 C625 0.961 . S
H642 C626 0.931 . S
H643 C631 0.930 . S
H644 C632 0.956 . S
H645 C632 0.961 . S
H646 C632 0.961 . S
H647 C633 0.958 . S
H648 C633 0.961 . S
H649 C633 0.960 . S
C650 C651 1.391 1_556 S
C650 C652 1.394 1_556 S
C650 H666 0.931 . S
C651 C650 1.391 1_554 S
C651 C655 1.376 . S
C652 C650 1.394 1_554 S
C652 C653 1.369 . S
C652 C656 1.531 1_554 S
C653 C652 1.369 . S
C653 C654 1.410 . S
C653 C661 1.503 . S
C654 C653 1.410 . S
C654 C655 1.392 . S
C654 C657 1.511 . S
C655 C651 1.376 . S
C655 C654 1.392 . S
C655 H667 0.929 . S
C656 C652 1.531 1_556 S
C656 H668 0.947 1_556 S
C656 H669 0.962 . S
C656 H670 0.960 . S
C657 C654 1.511 . S
C657 H671 0.961 . S
C657 H672 0.961 . S
C657 H673 0.961 . S
C658 C659 1.370 1_556 S
C658 C660 1.363 . S
C658 H674 0.931 . S
C659 C658 1.370 1_554 S
C659 C663 1.408 . S
C660 C658 1.363 . S
C660 C661 1.370 1_556 S
C660 C664 1.524 . S
C661 C653 1.503 . S
C661 C660 1.370 1_554 S
C661 C662 1.403 . S
C662 C661 1.403 . S
C662 C663 1.404 . S
C662 C665 1.539 . S
C663 C659 1.408 . S
C663 C662 1.404 . S
C663 H675 0.930 . S
C664 C660 1.524 . S
C664 H676 0.956 . S
C664 H677 0.961 . S
C664 H678 0.961 . S
C665 C662 1.539 . S
C665 H679 0.958 . S
C665 H680 0.961 . S
C665 H681 0.960 . S
H666 C650 0.931 . S
H667 C655 0.929 . S
H668 C656 0.947 1_554 S
H669 C656 0.962 . S
H670 C656 0.960 . S
H671 C657 0.961 . S
H672 C657 0.961 . S
H673 C657 0.961 . S
H674 C658 0.931 . S
H675 C663 0.930 . S
H676 C664 0.956 . S
H677 C664 0.961 . S
H678 C664 0.961 . S
H679 C665 0.958 . S
H680 C665 0.961 . S
H681 C665 0.960 . S
C682 C683 1.391 . S
C682 C684 1.394 . S
C682 H698 0.931 . S
C683 C682 1.391 . S
C683 C687 1.376 . S
C684 C682 1.394 . S
C684 C685 1.369 . S
C684 C688 1.531 . S
C685 C684 1.369 . S
C685 C686 1.410 . S
C685 C693 1.503 . S
C686 C685 1.410 . S
C686 C687 1.392 . S
C686 C689 1.511 . S
C687 C683 1.376 . S
C687 C686 1.392 . S
C687 H699 0.929 . S
C688 C684 1.531 . S
C688 H700 0.960 . S
C688 H701 0.962 . S
C688 H702 0.960 . S
C689 C686 1.511 . S
C689 H703 0.961 1_554 S
C689 H704 0.961 1_554 S
C689 H705 0.961 . S
C690 C691 1.370 1_556 S
C690 C692 1.363 . S
C690 H706 0.931 . S
C691 C690 1.370 1_554 S
C691 C695 1.408 . S
C692 C690 1.363 . S
C692 C693 1.370 1_556 S
C692 C696 1.524 . S
C693 C685 1.503 . S
C693 C692 1.370 1_554 S
C693 C694 1.403 . S
C694 C693 1.403 . S
C694 C695 1.404 . S
C694 C697 1.539 . S
C695 C691 1.408 . S
C695 C694 1.404 . S
C695 H707 0.930 . S
C696 C692 1.524 . S
C696 H708 0.956 . S
C696 H709 0.961 . S
C696 H710 0.961 . S
C697 C694 1.539 . S
C697 H711 0.958 . S
C697 H712 0.961 . S
C697 H713 0.960 . S
H698 C682 0.931 . S
H699 C687 0.929 . S
H700 C688 0.960 . S
H701 C688 0.962 . S
H702 C688 0.960 . S
H703 C689 0.961 1_556 S
H704 C689 0.961 1_556 S
H705 C689 0.961 . S
H706 C690 0.931 . S
H707 C695 0.930 . S
H708 C696 0.956 . S
H709 C696 0.961 . S
H710 C696 0.961 . S
H711 C697 0.958 . S
H712 C697 0.961 . S
H713 C697 0.960 . S
C714 C715 1.391 . S
C714 C716 1.394 . S
C714 H730 0.931 . S
C715 C714 1.391 . S
C715 C719 1.376 1_554 S
C716 C714 1.394 . S
C716 C717 1.369 . S
C716 C720 1.531 . S
C717 C716 1.369 . S
C717 C718 1.410 1_554 S
C717 C725 1.503 . S
C718 C717 1.410 1_556 S
C718 C719 1.392 . S
C718 C721 1.511 . S
C719 C715 1.376 1_556 S
C719 C718 1.392 . S
C719 H731 0.929 . S
C720 C716 1.531 . S
C720 H732 0.960 . S
C720 H733 0.962 . S
C720 H734 0.960 . S
C721 C718 1.511 . S
C721 H735 0.961 . S
C721 H736 0.961 . S
C721 H737 0.961 . S
C722 C723 1.370 . S
C722 C724 1.363 . S
C722 H738 0.931 . S
C723 C722 1.370 . S
C723 C727 1.408 1_554 S
C724 C722 1.363 . S
C724 C725 1.370 . S
C724 C728 1.524 . S
C725 C717 1.503 . S
C725 C724 1.370 . S
C725 C726 1.403 1_554 S
C726 C725 1.403 1_556 S
C726 C727 1.404 . S
C726 C729 1.539 . S
C727 C723 1.408 1_556 S
C727 C726 1.404 . S
C727 H739 0.930 . S
C728 C724 1.524 . S
C728 H740 0.956 . S
C728 H741 0.961 . S
C728 H742 0.961 . S
C729 C726 1.539 . S
C729 H743 0.958 . S
C729 H744 0.961 . S
C729 H745 0.960 . S
H730 C714 0.931 . S
H731 C719 0.929 . S
H732 C720 0.960 . S
H733 C720 0.962 . S
H734 C720 0.960 . S
H735 C721 0.961 . S
H736 C721 0.961 . S
H737 C721 0.961 . S
H738 C722 0.931 . S
H739 C727 0.930 . S
H740 C728 0.956 . S
H741 C728 0.961 . S
H742 C728 0.961 . S
H743 C729 0.958 . S
H744 C729 0.961 . S
H745 C729 0.960 . S
C746 C747 1.391 1_556 S
C746 C748 1.394 . S
C746 H762 0.931 . S
C747 C746 1.391 1_554 S
C747 C751 1.376 . S
C748 C746 1.394 . S
C748 C749 1.369 1_556 S
C748 C752 1.531 . S
C749 C748 1.369 1_554 S
C749 C750 1.410 . S
C749 C757 1.503 . S
C750 C749 1.410 . S
C750 C751 1.392 . S
C750 C753 1.511 . S
C751 C747 1.376 . S
C751 C750 1.392 . S
C751 H763 0.929 . S
C752 C748 1.531 . S
C752 H764 0.960 . S
C752 H765 0.962 . S
C752 H766 0.960 . S
C753 C750 1.511 . S
C753 H767 0.961 . S
C753 H768 0.961 . S
C753 H769 0.961 . S
C754 C755 1.370 . S
C754 C756 1.363 . S
C754 H770 0.931 . S
C755 C754 1.370 . S
C755 C759 1.408 1_554 S
C756 C754 1.363 . S
C756 C757 1.370 . S
C756 C760 1.524 . S
C757 C749 1.503 . S
C757 C756 1.370 . S
C757 C758 1.403 1_554 S
C758 C757 1.403 1_556 S
C758 C759 1.404 . S
C758 C761 1.539 . S
C759 C755 1.408 1_556 S
C759 C758 1.404 . S
C759 H771 0.930 . S
C760 C756 1.524 . S
C760 H772 0.956 . S
C760 H773 0.961 . S
C760 H774 0.961 . S
C761 C758 1.539 . S
C761 H775 0.958 . S
C761 H776 0.961 . S
C761 H777 0.960 . S
H762 C746 0.931 . S
H763 C751 0.929 . S
H764 C752 0.960 . S
H765 C752 0.962 . S
H766 C752 0.960 . S
H767 C753 0.961 . S
H768 C753 0.961 . S
H769 C753 0.961 . S
H770 C754 0.931 . S
H771 C759 0.930 . S
H772 C760 0.956 . S
H773 C760 0.961 . S
H774 C760 0.961 . S
H775 C761 0.958 . S
H776 C761 0.961 . S
H777 C761 0.960 . S
C403 C378 1.643 . S
C395 C11 1.010 1_455 S
C435 C374 1.596 . S
C427 C143 1.321 . S
C467 C384 1.387 . S
C459 C1 1.038 . S
C499 C368 1.728 . S
C491 C169 1.420 . S
C523 C29 1.422 . S
C531 C360 1.592 . S
C563 C392 1.853 1_565 S
C555 C125 1.206 1_545 S
C587 C55 1.458 . S
C595 C346 1.751 . S
C619 C115 1.291 . S
C627 C390 1.584 . S
C651 C283 0.835 . S
C659 C372 1.111 . S
C683 C239 0.604 . S
C691 C387 1.143 . S
C723 C381 1.002 . S
C715 C257 0.906 . S
C755 C376 0.868 . S
C747 C229 0.685 1_554 S
