# Generated by pormake.
# Topology the, (3,8)-cn, num edge types: 1
# Building blocks:
#     Node 0, Type 0, BuildingBlock: ESEHIV_clean_linker_0, # of connection points: 3
#     Node 1, Type 0, BuildingBlock: ESEHIV_clean_linker_0, # of connection points: 3
#     Node 2, Type 0, BuildingBlock: ESEHIV_clean_linker_0, # of connection points: 3
#     Node 3, Type 0, BuildingBlock: ESEHIV_clean_linker_0, # of connection points: 3
#     Node 4, Type 0, BuildingBlock: ESEHIV_clean_linker_0, # of connection points: 3
#     Node 5, Type 0, BuildingBlock: ESEHIV_clean_linker_0, # of connection points: 3
#     Node 6, Type 0, BuildingBlock: ESEHIV_clean_linker_0, # of connection points: 3
#     Node 7, Type 0, BuildingBlock: ESEHIV_clean_linker_0, # of connection points: 3
#     Node 8, Type 1, BuildingBlock: GIZVER_clean_sbu_0, # of connection points: 8
#     Node 9, Type 1, BuildingBlock: GIZVER_clean_sbu_0, # of connection points: 8
#     Node 10, Type 1, BuildingBlock: GIZVER_clean_sbu_0, # of connection points: 8
#     Edge 11, Type (0, 1), BuildingBlock: TEMPAE_clean_linker_10, # of connection points: 2
#     Edge 12, Type (0, 1), BuildingBlock: TEMPAE_clean_linker_10, # of connection points: 2
#     Edge 13, Type (0, 1), BuildingBlock: TEMPAE_clean_linker_10, # of connection points: 2
#     Edge 14, Type (0, 1), BuildingBlock: TEMPAE_clean_linker_10, # of connection points: 2
#     Edge 15, Type (0, 1), BuildingBlock: TEMPAE_clean_linker_10, # of connection points: 2
#     Edge 16, Type (0, 1), BuildingBlock: TEMPAE_clean_linker_10, # of connection points: 2
#     Edge 17, Type (0, 1), BuildingBlock: TEMPAE_clean_linker_10, # of connection points: 2
#     Edge 18, Type (0, 1), BuildingBlock: TEMPAE_clean_linker_10, # of connection points: 2
#     Edge 19, Type (0, 1), BuildingBlock: TEMPAE_clean_linker_10, # of connection points: 2
#     Edge 20, Type (0, 1), BuildingBlock: TEMPAE_clean_linker_10, # of connection points: 2
#     Edge 21, Type (0, 1), BuildingBlock: TEMPAE_clean_linker_10, # of connection points: 2
#     Edge 22, Type (0, 1), BuildingBlock: TEMPAE_clean_linker_10, # of connection points: 2
#     Edge 23, Type (0, 1), BuildingBlock: TEMPAE_clean_linker_10, # of connection points: 2
#     Edge 24, Type (0, 1), BuildingBlock: TEMPAE_clean_linker_10, # of connection points: 2
#     Edge 25, Type (0, 1), BuildingBlock: TEMPAE_clean_linker_10, # of connection points: 2
#     Edge 26, Type (0, 1), BuildingBlock: TEMPAE_clean_linker_10, # of connection points: 2
#     Edge 27, Type (0, 1), BuildingBlock: TEMPAE_clean_linker_10, # of connection points: 2
#     Edge 28, Type (0, 1), BuildingBlock: TEMPAE_clean_linker_10, # of connection points: 2
#     Edge 29, Type (0, 1), BuildingBlock: TEMPAE_clean_linker_10, # of connection points: 2
#     Edge 30, Type (0, 1), BuildingBlock: TEMPAE_clean_linker_10, # of connection points: 2
#     Edge 31, Type (0, 1), BuildingBlock: TEMPAE_clean_linker_10, # of connection points: 2
#     Edge 32, Type (0, 1), BuildingBlock: TEMPAE_clean_linker_10, # of connection points: 2
#     Edge 33, Type (0, 1), BuildingBlock: TEMPAE_clean_linker_10, # of connection points: 2
#     Edge 34, Type (0, 1), BuildingBlock: TEMPAE_clean_linker_10, # of connection points: 2
# Relax obj value: 0.048
# Max RMSD: 0.137
# Mean RMSD: 0.072
data_MOF--net-the--node1-GIZVER_clean_sbu_0--node2-ESEHIV_clean_linker_0--edge1-TEMPAE_clean_linker_10
_symmetry_space_group_name_H-M    P1
_symmetry_Int_Tables_number       1
_symmetry_cell_setting            triclinic
loop_
_symmetry_equiv_pos_as_xyz
'x, y, z'
_cell_length_a     39.75593
_cell_length_b     37.425306
_cell_length_c     34.729716
_cell_angle_alpha  86.502711
_cell_angle_beta   95.557994
_cell_angle_gamma 104.14745
loop_
_atom_site_label
_atom_site_type_symbol
_atom_site_fract_x
_atom_site_fract_y
_atom_site_fract_z
_atom_type_partial_charge
H0 H 0.29774 0.39585 0.37644 0.0
H1 H 0.35891 0.32098 0.35274 0.0
H2 H 0.29466 0.29883 0.44858 0.0
C3 C 0.30707 0.37117 0.3836 0.0
C4 C 0.29274 0.3471 0.41335 0.0
C5 C 0.33178 0.36243 0.36202 0.0
C6 C 0.34217 0.32938 0.37133 0.0
C7 C 0.33015 0.30648 0.40332 0.0
C8 C 0.30516 0.31581 0.42416 0.0
H9 H 0.72361 0.30443 0.36875 0.0
H10 H 0.72791 0.39554 0.28508 0.0
H11 H 0.63447 0.30919 0.29031 0.0
C12 C 0.71189 0.31828 0.34468 0.0
C13 C 0.6774 0.30257 0.33071 0.0
C14 C 0.73054 0.3523 0.32911 0.0
C15 C 0.71404 0.36981 0.29818 0.0
C16 C 0.67931 0.35451 0.28435 0.0
C17 C 0.66115 0.32116 0.30106 0.0
H18 H 0.67116 0.75025 0.28558 0.0
H19 H 0.75003 0.68955 0.28166 0.0
H20 H 0.75499 0.76005 0.3756 0.0
C21 C 0.69531 0.74372 0.29717 0.0
C22 C 0.71219 0.75976 0.33185 0.0
C23 C 0.70829 0.71782 0.27873 0.0
C24 C 0.73909 0.70886 0.29534 0.0
C25 C 0.75531 0.72325 0.33061 0.0
C26 C 0.74194 0.74873 0.34861 0.0
H27 H 0.28876 0.72172 0.38135 0.0
H28 H 0.36666 0.72702 0.30127 0.0
H29 H 0.27309 0.64029 0.29551 0.0
C30 C 0.29789 0.71136 0.35688 0.0
C31 C 0.27693 0.67974 0.33924 0.0
C32 C 0.33037 0.7293 0.34327 0.0
C33 C 0.3418 0.714 0.31215 0.0
C34 C 0.32172 0.68141 0.29533 0.0
C35 C 0.28903 0.66505 0.30861 0.0
H36 H 0.31209 0.73501 0.6662 0.0
H37 H 0.31061 0.63891 0.74257 0.0
H38 H 0.39852 0.73207 0.74926 0.0
C39 C 0.32403 0.72011 0.68911 0.0
C40 C 0.35718 0.73728 0.70591 0.0
C41 C 0.30642 0.68443 0.70179 0.0
C42 C 0.32276 0.66665 0.73272 0.0
C43 C 0.35578 0.68388 0.75008 0.0
C44 C 0.37276 0.71909 0.73648 0.0
H45 H 0.29345 0.33049 0.7575 0.0
H46 H 0.3678 0.26593 0.75022 0.0
H47 H 0.2867 0.26352 0.65899 0.0
C48 C 0.30282 0.31135 0.74189 0.0
C49 C 0.28555 0.29868 0.70602 0.0
C50 C 0.3331 0.30077 0.75755 0.0
C51 C 0.34479 0.27469 0.73825 0.0
C52 C 0.32767 0.2606 0.70302 0.0
C53 C 0.29865 0.27334 0.68686 0.0
H54 H 0.66718 0.30307 0.72578 0.0
H55 H 0.75683 0.30286 0.66492 0.0
H56 H 0.75723 0.39425 0.73372 0.0
C57 C 0.69354 0.31559 0.71878 0.0
C58 C 0.71054 0.35014 0.73386 0.0
C59 C 0.70964 0.2981 0.6934 0.0
C60 C 0.74358 0.31575 0.68386 0.0
C61 C 0.7604 0.35065 0.69772 0.0
C62 C 0.74382 0.36758 0.72264 0.0
H63 H 0.68727 0.7122 0.68731 0.0
H64 H 0.74041 0.63218 0.65819 0.0
H65 H 0.75519 0.73633 0.59549 0.0
C66 C 0.70374 0.7036 0.66853 0.0
C67 C 0.71777 0.72748 0.63821 0.0
C68 C 0.71093 0.66877 0.67534 0.0
C69 C 0.73508 0.65921 0.65363 0.0
C70 C 0.75282 0.68448 0.62646 0.0
C71 C 0.74291 0.71781 0.61782 0.0
Co72 Co 0.0843 0.46523 0.54153 0.0
Co73 Co 0.04561 0.45201 0.47543 0.0
Co74 Co 0.02057 0.51097 0.51617 0.0
O75 O 0.03684 0.46447 0.52408 0.0
H76 H 0.02026 0.44451 0.53584 0.0
O77 O 1.00375 0.55715 0.50855 0.0
Co78 Co 0.95657 0.5541 0.48715 0.0
Co79 Co 0.99107 0.56957 0.55564 0.0
H80 H 0.02047 0.57744 0.49747 0.0
O81 O 0.04891 0.40488 0.46562 0.0
O82 O 0.09154 0.45211 0.48928 0.0
O83 O 0.04889 0.48876 0.43347 0.0
O84 O 0.05257 0.5329 0.47446 0.0
O85 O 0.98326 0.48546 0.4765 0.0
O86 O 0.91459 0.55497 0.46569 0.0
O87 O 0.96294 0.60145 0.46797 0.0
O88 O 0.9432 0.50423 0.50312 0.0
O89 O 0.98846 0.48903 0.55789 0.0
O90 O 0.98627 0.53258 0.5976 0.0
O91 O 0.94557 0.5684 0.53693 0.0
O92 O 0.98466 0.61658 0.56285 0.0
C93 C 0.11122 0.42841 0.56739 0.0
C94 C 0.09048 0.53733 0.55139 0.0
C95 C 0.05892 0.5223 0.44227 0.0
C96 C 0.08147 0.41936 0.47548 0.0
C97 C 0.93003 0.58878 0.45663 0.0
C98 C 0.95122 0.48235 0.48119 0.0
C99 C 0.97926 0.49894 0.58905 0.0
C100 C 0.95321 0.60185 0.54879 0.0
O101 O 0.12695 0.46212 0.55843 0.0
O102 O 0.07761 0.41717 0.55896 0.0
O103 O 0.05854 0.53629 0.55531 0.0
O104 O 0.09764 0.51577 0.52818 0.0
Co105 Co 0.56096 0.94809 0.49159 0.0
Co106 Co 0.57827 0.97634 0.55928 0.0
Co107 Co 0.52216 0.014 0.51605 0.0
O108 O 0.56491 0.99579 0.51193 0.0
H109 H 0.58389 0.01456 0.50241 0.0
O110 O 0.47905 0.03191 0.51926 0.0
Co111 Co 0.48197 0.07855 0.54085 0.0
Co112 Co 0.46646 0.05249 0.47145 0.0
H113 H 0.45991 0.01275 0.52788 0.0
O114 O 0.62314 0.97319 0.57177 0.0
O115 O 0.57896 0.93048 0.54276 0.0
O116 O 0.54638 0.96709 0.59878 0.0
O117 O 0.50253 0.97614 0.55781 0.0
O118 O 0.54929 0.04957 0.55602 0.0
O119 O 0.48174 0.11987 0.56244 0.0
O120 O 0.43796 0.06897 0.55679 0.0
O121 O 0.52815 0.09478 0.52857 0.0
O122 O 0.54193 0.05228 0.47511 0.0
O123 O 0.49981 0.06351 0.43284 0.0
O124 O 0.46579 0.09777 0.48984 0.0
O125 O 0.42173 0.05748 0.45813 0.0
C126 C 0.59148 0.92281 0.46287 0.0
C127 C 0.49213 0.94376 0.4825 0.0
C128 C 0.51403 0.96248 0.5896 0.0
C129 C 0.61058 0.94014 0.55931 0.0
C130 C 0.45031 0.10234 0.5693 0.0
C131 C 0.55071 0.08408 0.55172 0.0
C132 C 0.53184 0.06744 0.44358 0.0
C133 C 0.43447 0.08967 0.47258 0.0
O134 O 0.56029 0.90582 0.47117 0.0
O135 O 0.60435 0.95661 0.47402 0.0
O136 O 0.49527 0.9784 0.47625 0.0
O137 O 0.5147 0.93247 0.50523 0.0
Co138 Co 0.47643 0.53725 0.09003 0.0
Co139 Co 0.46203 0.46866 0.0715 0.0
Co140 Co 0.51605 0.51545 0.0156 0.0
O141 O 0.47338 0.51257 0.04287 0.0
H142 H 0.45374 0.51547 0.02533 0.0
O143 O 0.55812 0.51797 0.98754 0.0
Co144 Co 0.55317 0.49388 0.93915 0.0
Co145 Co 0.56943 0.56223 0.95947 0.0
H146 H 0.57784 0.51429 1.0045 0.0
O147 O 0.41738 0.44946 0.08502 0.0
O148 O 0.46069 0.48933 0.11833 0.0
O149 O 0.49609 0.43934 0.0798 0.0
O150 O 0.53762 0.48365 0.05553 0.0
O151 O 0.48954 0.47109 0.9863 0.0
O152 O 0.55186 0.47079 0.89596 0.0
O153 O 0.59684 0.48596 0.9412 0.0
O154 O 0.50646 0.49716 0.93068 0.0
O155 O 0.49452 0.54752 0.97575 0.0
O156 O 0.53638 0.59282 0.9537 0.0
O157 O 0.56899 0.54229 0.91173 0.0
O158 O 0.61369 0.58062 0.9449 0.0
C159 C 0.44478 0.56095 0.11843 0.0
C160 C 0.54491 0.55853 0.0825 0.0
C161 C 0.52796 0.45385 0.07588 0.0
C162 C 0.42954 0.4676 0.1161 0.0
C163 C 0.58356 0.47024 0.90868 0.0
C164 C 0.48521 0.4731 0.94941 0.0
C165 C 0.50441 0.57811 0.95674 0.0
C166 C 0.60054 0.56318 0.91363 0.0
O167 O 0.47629 0.56088 0.13221 0.0
O168 O 0.43236 0.54457 0.08604 0.0
O169 O 0.54292 0.55969 0.04547 0.0
O170 O 0.52279 0.53438 0.10006 0.0
C171 C 0.22954 0.32691 0.41862 0.0
C172 C 0.2612 0.35175 0.42885 0.0
C173 C 0.19809 0.33373 0.42713 0.0
C174 C 0.19872 0.36563 0.44725 0.0
C175 C 0.23093 0.38978 0.45946 0.0
C176 C 0.26192 0.3828 0.44949 0.0
C177 C 0.1643 0.30855 0.41175 0.0
C178 C 0.23289 0.42428 0.48079 0.0
C179 C 0.12578 0.41439 0.43313 0.0
C180 C 0.10788 0.40144 0.46575 0.0
C181 C 0.15436 0.40124 0.42559 0.0
C182 C 0.16583 0.37573 0.45232 0.0
C183 C 0.14711 0.3619 0.4849 0.0
C184 C 0.11767 0.37447 0.49079 0.0
C185 C 0.17295 0.41569 0.38982 0.0
C186 C 0.15891 0.33513 0.51427 0.0
H187 H 0.22934 0.30328 0.40192 0.0
H188 H 0.2866 0.40204 0.45691 0.0
H189 H 0.14619 0.30025 0.43479 0.0
H190 H 0.15142 0.32355 0.38855 0.0
H191 H 0.16838 0.28328 0.39962 0.0
H192 H 0.2325 0.44751 0.45949 0.0
H193 H 0.21063 0.42122 0.49864 0.0
H194 H 0.25754 0.43178 0.49972 0.0
H195 H 0.1178 0.43537 0.41396 0.0
H196 H 0.10327 0.36451 0.51582 0.0
H197 H 0.17854 0.39276 0.37471 0.0
H198 H 0.1982 0.435 0.39824 0.0
H199 H 0.15752 0.43064 0.36922 0.0
H200 H 0.15493 0.3079 0.50137 0.0
H201 H 0.1444 0.3313 0.54057 0.0
H202 H 0.18712 0.34489 0.52291 0.0
C203 C 0.67095 0.23513 0.34636 0.0
C204 C 0.65809 0.26673 0.34719 0.0
C205 C 0.65217 0.20069 0.36042 0.0
C206 C 0.62022 0.19805 0.37661 0.0
C207 C 0.60751 0.23015 0.37812 0.0
C208 C 0.62636 0.26398 0.36291 0.0
C209 C 0.66623 0.16707 0.35746 0.0
C210 C 0.57408 0.22881 0.39606 0.0
C211 C 0.55131 0.10776 0.38541 0.0
C212 C 0.55746 0.09709 0.42435 0.0
C213 C 0.57268 0.13954 0.36892 0.0
C214 C 0.6001 0.16189 0.39228 0.0
C215 C 0.60691 0.15072 0.43137 0.0
C216 C 0.58591 0.11819 0.4467 0.0
C217 C 0.56515 0.1499 0.32685 0.0
C218 C 0.63511 0.17419 0.45771 0.0
H219 H 0.69537 0.23725 0.33389 0.0
H220 H 0.61654 0.2885 0.36371 0.0
H221 H 0.67073 0.15459 0.38671 0.0
H222 H 0.64685 0.14598 0.34059 0.0
H223 H 0.69105 0.17361 0.34334 0.0
H224 H 0.56845 0.25645 0.39626 0.0
H225 H 0.55195 0.21017 0.37984 0.0
H226 H 0.57557 0.21747 0.42629 0.0
H227 H 0.52934 0.09164 0.36805 0.0
H228 H 0.59056 0.11053 0.477 0.0
H229 H 0.58939 0.15606 0.31176 0.0
H230 H 0.55518 0.17523 0.32459 0.0
H231 H 0.54555 0.12769 0.31164 0.0
H232 H 0.66048 0.1798 0.44496 0.0
H233 H 0.6379 0.161 0.48701 0.0
H234 H 0.62899 0.20121 0.46084 0.0
C235 C 0.77947 0.68776 0.38481 0.0
C236 C 0.78433 0.70879 0.35017 0.0
C237 C 0.80486 0.66998 0.40167 0.0
C238 C 0.83637 0.67415 0.38395 0.0
C239 C 0.84166 0.69612 0.34933 0.0
C240 C 0.81539 0.71289 0.33262 0.0
C241 C 0.79646 0.64483 0.4369 0.0
C242 C 0.87441 0.70056 0.32906 0.0
C243 C 0.91374 0.64937 0.44402 0.0
C244 C 0.90902 0.61234 0.43531 0.0
C245 C 0.89045 0.67009 0.42738 0.0
C246 C 0.86269 0.65367 0.40031 0.0
C247 C 0.85886 0.61668 0.39035 0.0
C248 C 0.88171 0.59637 0.4084 0.0
C249 C 0.89539 0.70925 0.43935 0.0
C250 C 0.83 0.59811 0.36142 0.0
H251 H 0.75504 0.68383 0.39783 0.0
H252 H 0.81886 0.72881 0.30554 0.0
H253 H 0.78123 0.61738 0.42732 0.0
H254 H 0.82008 0.64088 0.4546 0.0
H255 H 0.78003 0.65544 0.45534 0.0
H256 H 0.87481 0.71902 0.30272 0.0
H257 H 0.89755 0.71197 0.34901 0.0
H258 H 0.87673 0.6732 0.32058 0.0
H259 H 0.93462 0.66163 0.46517 0.0
H260 H 0.87802 0.56768 0.40164 0.0
H261 H 0.87006 0.716 0.44197 0.0
H262 H 0.90885 0.7284 0.41695 0.0
H263 H 0.91147 0.71435 0.46738 0.0
H264 H 0.80457 0.59406 0.37377 0.0
H265 H 0.83303 0.57079 0.3536 0.0
H266 H 0.82922 0.61574 0.33463 0.0
C267 C 0.38913 0.77027 0.36481 0.0
C268 C 0.35257 0.7633 0.36207 0.0
C269 C 0.41023 0.80172 0.38269 0.0
C270 C 0.39464 0.82655 0.39951 0.0
C271 C 0.35788 0.81986 0.39698 0.0
C272 C 0.33739 0.78876 0.37787 0.0
C273 C 0.44933 0.80793 0.38432 0.0
C274 C 0.34014 0.84516 0.41518 0.0
C275 C 0.45146 0.88145 0.48076 0.0
C276 C 0.46392 0.91591 0.46229 0.0
C277 C 0.42794 0.85271 0.46108 0.0
C278 C 0.41691 0.85822 0.42161 0.0
C279 C 0.42869 0.89333 0.40306 0.0
C280 C 0.45176 0.92193 0.42377 0.0
C281 C 0.41538 0.81619 0.48242 0.0
C282 C 0.41827 0.90014 0.36082 0.0
H283 H 0.40152 0.75075 0.35371 0.0
H284 H 0.30933 0.78447 0.3754 0.0
H285 H 0.46114 0.83627 0.37337 0.0
H286 H 0.46006 0.80531 0.41477 0.0
H287 H 0.45744 0.78792 0.36705 0.0
H288 H 0.31133 0.83659 0.4101 0.0
H289 H 0.34731 0.84549 0.44686 0.0
H290 H 0.3491 0.8738 0.40346 0.0
H291 H 0.46055 0.87679 0.51068 0.0
H292 H 0.46161 0.94839 0.40928 0.0
H293 H 0.42116 0.79356 0.46702 0.0
H294 H 0.38672 0.8102 0.48337 0.0
H295 H 0.42764 0.81591 0.5125 0.0
H296 H 0.42896 0.88263 0.34297 0.0
H297 H 0.4279 0.92944 0.35124 0.0
H298 H 0.38953 0.89231 0.35513 0.0
C299 C 0.24708 0.63941 0.70163 0.0
C300 C 0.27186 0.66552 0.68174 0.0
C301 C 0.21564 0.62003 0.68243 0.0
C302 C 0.20796 0.62767 0.64253 0.0
C303 C 0.23196 0.65509 0.62265 0.0
C304 C 0.26373 0.67299 0.64213 0.0
C305 C 0.19134 0.5902 0.7045 0.0
C306 C 0.22467 0.66473 0.58029 0.0
C307 C 0.15269 0.55286 0.57843 0.0
C308 C 0.11974 0.56082 0.57547 0.0
C309 C 0.18094 0.57351 0.60122 0.0
C310 C 0.17696 0.60427 0.62046 0.0
C311 C 0.14398 0.61306 0.6172 0.0
C312 C 0.11557 0.59084 0.59527 0.0
C313 C 0.21521 0.56236 0.60448 0.0
C314 C 0.13896 0.64641 0.63609 0.0
H315 H 0.25226 0.63369 0.73227 0.0
H316 H 0.28253 0.69217 0.62569 0.0
H317 H 0.16468 0.5948 0.70133 0.0
H318 H 0.18977 0.56306 0.6923 0.0
H319 H 0.20005 0.58888 0.73582 0.0
H320 H 0.24327 0.69021 0.57056 0.0
H321 H 0.22662 0.64179 0.56252 0.0
H322 H 0.19783 0.66865 0.57452 0.0
H323 H 0.15658 0.53014 0.56303 0.0
H324 H 0.09038 0.59747 0.5929 0.0
H325 H 0.2248 0.55974 0.63536 0.0
H326 H 0.23507 0.58392 0.59037 0.0
H327 H 0.2131 0.53577 0.59073 0.0
H328 H 0.14621 0.64475 0.66768 0.0
H329 H 0.11169 0.64926 0.63135 0.0
H330 H 0.15642 0.67168 0.62425 0.0
C331 C 0.3434 0.23741 0.64217 0.0
C332 C 0.34102 0.23365 0.68236 0.0
C333 C 0.3575 0.21335 0.62268 0.0
C334 C 0.36999 0.18495 0.64387 0.0
C335 C 0.36659 0.18023 0.68422 0.0
C336 C 0.35218 0.20457 0.70293 0.0
C337 C 0.36077 0.21992 0.57977 0.0
C338 C 0.37937 0.15027 0.70793 0.0
C339 C 0.3929 0.10885 0.59012 0.0
C340 C 0.42905 0.12195 0.58933 0.0
C341 C 0.37317 0.12902 0.60764 0.0
C342 C 0.39 0.16291 0.62485 0.0
C343 C 0.42645 0.17609 0.62409 0.0
C344 C 0.44541 0.15554 0.60649 0.0
C345 C 0.33426 0.11446 0.60719 0.0
C346 C 0.44552 0.21225 0.64157 0.0
H347 H 0.33534 0.26002 0.62597 0.0
H348 H 0.34991 0.201 0.73385 0.0
H349 H 0.38725 0.2369 0.57522 0.0
H350 H 0.35708 0.19368 0.56488 0.0
H351 H 0.34165 0.23507 0.56602 0.0
H352 H 0.37222 0.14822 0.73826 0.0
H353 H 0.36846 0.12321 0.6946 0.0
H354 H 0.40814 0.15593 0.70838 0.0
H355 H 0.37998 0.08321 0.57654 0.0
H356 H 0.47331 0.16608 0.60602 0.0
H357 H 0.32101 0.13432 0.59092 0.0
H358 H 0.32623 0.1117 0.63716 0.0
H359 H 0.32515 0.08726 0.59363 0.0
H360 H 0.43531 0.23509 0.62691 0.0
H361 H 0.47402 0.21841 0.63901 0.0
H362 H 0.44102 0.2117 0.67265 0.0
C363 C 0.82383 0.35553 0.69228 0.0
C364 C 0.79469 0.37045 0.68466 0.0
C365 C 0.85642 0.37443 0.68002 0.0
C366 C 0.85957 0.40847 0.65875 0.0
C367 C 0.82999 0.42338 0.65075 0.0
C368 C 0.79804 0.40441 0.66426 0.0
C369 C 0.88745 0.35806 0.68988 0.0
C370 C 0.83191 0.45906 0.6273 0.0
C371 C 0.94549 0.47888 0.64744 0.0
C372 C 0.95274 0.47202 0.61023 0.0
C373 C 0.91636 0.45695 0.66464 0.0
C374 C 0.89338 0.42817 0.64368 0.0
C375 C 0.90133 0.42026 0.60674 0.0
C376 C 0.93115 0.44185 0.59078 0.0
C377 C 0.90931 0.46568 0.7045 0.0
C378 C 0.87714 0.39054 0.58288 0.0
H379 H 0.82118 0.32933 0.70826 0.0
H380 H 0.77537 0.41574 0.65819 0.0
H381 H 0.89745 0.35187 0.66295 0.0
H382 H 0.90879 0.37826 0.70546 0.0
H383 H 0.88104 0.33228 0.70814 0.0
H384 H 0.80643 0.46663 0.62317 0.0
H385 H 0.85128 0.48183 0.64183 0.0
H386 H 0.84073 0.45668 0.59841 0.0
H387 H 0.96204 0.50207 0.66267 0.0
H388 H 0.93626 0.43643 0.56187 0.0
H389 H 0.90312 0.4401 0.72303 0.0
H390 H 0.88635 0.47782 0.70233 0.0
H391 H 0.93179 0.48549 0.71892 0.0
H392 H 0.87186 0.36391 0.5997 0.0
H393 H 0.88788 0.38666 0.55548 0.0
H394 H 0.85182 0.39792 0.5756 0.0
C395 C 0.72615 0.79218 0.60832 0.0
C396 C 0.70534 0.76168 0.62748 0.0
C397 C 0.71307 0.82265 0.595 0.0
C398 C 0.67947 0.82406 0.60374 0.0
C399 C 0.65896 0.79451 0.62468 0.0
C400 C 0.67154 0.76321 0.63489 0.0
C401 C 0.73458 0.8526 0.57024 0.0
C402 C 0.62331 0.79546 0.63564 0.0
C403 C 0.65541 0.91587 0.60041 0.0
C404 C 0.63067 0.91208 0.56839 0.0
C405 C 0.67204 0.88757 0.61201 0.0
C406 C 0.66494 0.85571 0.58983 0.0
C407 C 0.64138 0.85268 0.55627 0.0
C408 C 0.62365 0.88038 0.54677 0.0
C409 C 0.69528 0.89069 0.64935 0.0
C410 C 0.6334 0.81959 0.53118 0.0
H411 H 0.75256 0.79242 0.60308 0.0
H412 H 0.65428 0.73975 0.64812 0.0
H413 H 0.71997 0.855 0.54166 0.0
H414 H 0.73943 0.87962 0.58384 0.0
H415 H 0.76002 0.84704 0.56545 0.0
H416 H 0.61365 0.77359 0.65776 0.0
H417 H 0.62375 0.82262 0.64714 0.0
H418 H 0.60448 0.79131 0.60965 0.0
H419 H 0.66039 0.94008 0.61769 0.0
H420 H 0.60395 0.87676 0.52268 0.0
H421 H 0.72112 0.88639 0.64447 0.0
H422 H 0.68354 0.86881 0.67047 0.0
H423 H 0.69908 0.91791 0.66243 0.0
H424 H 0.65589 0.80689 0.53165 0.0
H425 H 0.62584 0.82727 0.50073 0.0
H426 H 0.61111 0.79856 0.54185 0.0
C427 C 0.32289 0.24226 0.43382 0.0
C428 C 0.34327 0.27278 0.41426 0.0
C429 C 0.33587 0.21144 0.44583 0.0
C430 C 0.36889 0.20974 0.43538 0.0
C431 C 0.38918 0.23962 0.41462 0.0
C432 C 0.37671 0.27122 0.40561 0.0
C433 C 0.31459 0.1811 0.47036 0.0
C434 C 0.42435 0.23856 0.40231 0.0
C435 C 0.42392 0.14997 0.48774 0.0
C436 C 0.41523 0.11872 0.46524 0.0
C437 C 0.40721 0.1787 0.47998 0.0
C438 C 0.38293 0.17726 0.4472 0.0
C439 C 0.37419 0.14594 0.42404 0.0
C440 C 0.38984 0.11655 0.43397 0.0
C441 C 0.41706 0.21108 0.50615 0.0
C442 C 0.3501 0.14448 0.38746 0.0
H443 H 0.29673 0.24214 0.44003 0.0
H444 H 0.39356 0.29476 0.39198 0.0
H445 H 0.30508 0.15582 0.45357 0.0
H446 H 0.33093 0.17415 0.49614 0.0
H447 H 0.29175 0.18895 0.48034 0.0
H448 H 0.43397 0.26113 0.38087 0.0
H449 H 0.44358 0.24143 0.42795 0.0
H450 H 0.42313 0.21179 0.38945 0.0
H451 H 0.4442 0.15249 0.51117 0.0
H452 H 0.38354 0.09274 0.41599 0.0
H453 H 0.39627 0.22622 0.50558 0.0
H454 H 0.44098 0.23049 0.49681 0.0
H455 H 0.42302 0.20182 0.5365 0.0
H456 H 0.32456 0.14855 0.39389 0.0
H457 H 0.34573 0.11791 0.37292 0.0
H458 H 0.36137 0.16723 0.36699 0.0
C459 C 0.78941 0.3485 0.36161 0.0
C460 C 0.76635 0.37004 0.34659 0.0
C461 C 0.82154 0.36438 0.38179 0.0
C462 C 0.83143 0.40295 0.38656 0.0
C463 C 0.80915 0.42512 0.36989 0.0
C464 C 0.77688 0.40844 0.35047 0.0
C465 C 0.84428 0.33964 0.39934 0.0
C466 C 0.81881 0.46643 0.37384 0.0
C467 C 0.89066 0.44356 0.47384 0.0
C468 C 0.92264 0.45756 0.45801 0.0
C469 C 0.8613 0.42444 0.45129 0.0
C470 C 0.86361 0.41985 0.41152 0.0
C471 C 0.89616 0.43293 0.39561 0.0
C472 C 0.92543 0.45132 0.41919 0.0
C473 C 0.82749 0.41024 0.46984 0.0
C474 C 0.89966 0.42914 0.35328 0.0
H475 H 0.78216 0.31896 0.35813 0.0
H476 H 0.75937 0.42552 0.33958 0.0
H477 H 0.87107 0.34954 0.39022 0.0
H478 H 0.84615 0.34054 0.43138 0.0
H479 H 0.83399 0.31054 0.39106 0.0
H480 H 0.80045 0.48015 0.35609 0.0
H481 H 0.81883 0.47295 0.40458 0.0
H482 H 0.84548 0.47831 0.36501 0.0
H483 H 0.88841 0.44825 0.50389 0.0
H484 H 0.94999 0.4625 0.40674 0.0
H485 H 0.81685 0.38056 0.46426 0.0
H486 H 0.80798 0.42519 0.45691 0.0
H487 H 0.83067 0.41374 0.50163 0.0
H488 H 0.88903 0.40014 0.34498 0.0
H489 H 0.92714 0.43808 0.34602 0.0
H490 H 0.88425 0.44617 0.33553 0.0
C491 C 0.69751 0.78562 0.3918 0.0
C492 C 0.69799 0.78689 0.35134 0.0
C493 C 0.68345 0.81028 0.41045 0.0
C494 C 0.66895 0.83675 0.38821 0.0
C495 C 0.6701 0.8388 0.34745 0.0
C496 C 0.68458 0.81395 0.32956 0.0
C497 C 0.68262 0.80653 0.45387 0.0
C498 C 0.65511 0.86661 0.32258 0.0
C499 C 0.5953 0.86736 0.4285 0.0
C500 C 0.61194 0.9022 0.44277 0.0
C501 C 0.61356 0.84605 0.41084 0.0
C502 C 0.64959 0.8597 0.40703 0.0
C503 C 0.66669 0.89488 0.42125 0.0
C504 C 0.64767 0.91576 0.43893 0.0
C505 C 0.59423 0.80861 0.3966 0.0
C506 C 0.70518 0.91015 0.41827 0.0
H507 H 0.70724 0.76457 0.40902 0.0
H508 H 0.68531 0.81566 0.29838 0.0
H509 H 0.68747 0.83384 0.46693 0.0
H510 H 0.65645 0.79037 0.46084 0.0
H511 H 0.70213 0.79183 0.46751 0.0
H512 H 0.66029 0.86655 0.29172 0.0
H513 H 0.62653 0.86041 0.32434 0.0
H514 H 0.66618 0.89472 0.33336 0.0
H515 H 0.56774 0.8564 0.4313 0.0
H516 H 0.66086 0.94241 0.45018 0.0
H517 H 0.60567 0.78693 0.41198 0.0
H518 H 0.59693 0.80721 0.36527 0.0
H519 H 0.56607 0.80223 0.40115 0.0
H520 H 0.71988 0.89163 0.43467 0.0
H521 H 0.71452 0.93824 0.42975 0.0
H522 H 0.71118 0.91119 0.38762 0.0
C523 C 0.24026 0.64841 0.39202 0.0
C524 C 0.24269 0.6609 0.3533 0.0
C525 C 0.20862 0.62734 0.40471 0.0
C526 C 0.17857 0.61922 0.37817 0.0
C527 C 0.18067 0.63306 0.33938 0.0
C528 C 0.2128 0.65335 0.32731 0.0
C529 C 0.20766 0.61262 0.44617 0.0
C530 C 0.14913 0.62583 0.31043 0.0
C531 C 0.10855 0.53311 0.40064 0.0
C532 C 0.08573 0.54752 0.42006 0.0
C533 C 0.13852 0.5562 0.38634 0.0
C534 C 0.14544 0.5948 0.39059 0.0
C535 C 0.12146 0.60969 0.40818 0.0
C536 C 0.09215 0.58584 0.42319 0.0
C537 C 0.16373 0.53903 0.36854 0.0
C538 C 0.12741 0.65071 0.41244 0.0
H539 H 0.26345 0.65396 0.41202 0.0
H540 H 0.21467 0.6632 0.29739 0.0
H541 H 0.18739 0.62149 0.46036 0.0
H542 H 0.20063 0.58202 0.44685 0.0
H543 H 0.23305 0.62207 0.46335 0.0
H544 H 0.15448 0.64088 0.28226 0.0
H545 H 0.14045 0.59589 0.30527 0.0
H546 H 0.12727 0.63415 0.32206 0.0
H547 H 0.10416 0.50351 0.39868 0.0
H548 H 0.0747 0.59712 0.43831 0.0
H549 H 0.18912 0.54494 0.38621 0.0
H550 H 0.16851 0.55126 0.33909 0.0
H551 H 0.15414 0.50866 0.36656 0.0
H552 H 0.15034 0.66049 0.43328 0.0
H553 H 0.10458 0.65814 0.42296 0.0
H554 H 0.13311 0.66563 0.38432 0.0
C555 C 0.38924 0.80337 0.71402 0.0
C556 C 0.37653 0.77339 0.69003 0.0
C557 C 0.40926 0.83702 0.69958 0.0
C558 C 0.41764 0.84031 0.66057 0.0
C559 C 0.40438 0.81016 0.63614 0.0
C560 C 0.38363 0.77724 0.65106 0.0
C561 C 0.42201 0.86878 0.72626 0.0
C562 C 0.41332 0.81209 0.59467 0.0
C563 C 0.45366 0.93244 0.60826 0.0
C564 C 0.48954 0.93446 0.61216 0.0
C565 C 0.42999 0.90288 0.62544 0.0
C566 C 0.44239 0.87408 0.64597 0.0
C567 C 0.47864 0.87646 0.65071 0.0
C568 C 0.50172 0.90678 0.63427 0.0
C569 C 0.39165 0.9019 0.62062 0.0
C570 C 0.493 0.846 0.67146 0.0
H571 H 0.38355 0.80042 0.74412 0.0
H572 H 0.374 0.75393 0.63261 0.0
H573 H 0.45073 0.87443 0.73184 0.0
H574 H 0.41574 0.89416 0.71244 0.0
H575 H 0.41035 0.86308 0.75447 0.0
H576 H 0.40019 0.78661 0.57923 0.0
H577 H 0.40577 0.83589 0.5787 0.0
H578 H 0.44188 0.81639 0.5939 0.0
H579 H 0.44401 0.95365 0.5912 0.0
H580 H 0.52931 0.90773 0.63707 0.0
H581 H 0.38025 0.89571 0.64891 0.0
H582 H 0.3779 0.87962 0.60107 0.0
H583 H 0.38666 0.92839 0.60824 0.0
H584 H 0.48438 0.84093 0.70115 0.0
H585 H 0.5219 0.85245 0.67347 0.0
H586 H 0.48278 0.82 0.6559 0.0
C587 C 0.23095 0.29352 0.65968 0.0
C588 C 0.25514 0.31323 0.6879 0.0
C589 C 0.20467 0.30855 0.63989 0.0
C590 C 0.20087 0.34335 0.64996 0.0
C591 C 0.22315 0.3621 0.68039 0.0
C592 C 0.25062 0.34767 0.69778 0.0
C593 C 0.18263 0.28789 0.60667 0.0
C594 C 0.219 0.39842 0.69358 0.0
C595 C 0.16725 0.40945 0.57785 0.0
C596 C 0.1324 0.40358 0.586 0.0
C597 C 0.18926 0.38891 0.59735 0.0
C598 C 0.17638 0.36225 0.6264 0.0
C599 C 0.14101 0.35576 0.63439 0.0
C600 C 0.11921 0.37613 0.61357 0.0
C601 C 0.22646 0.39599 0.58704 0.0
C602 C 0.12669 0.3286 0.66615 0.0
H603 H 0.23261 0.26643 0.65215 0.0
H604 H 0.26899 0.36444 0.71834 0.0
H605 H 0.15599 0.29249 0.60322 0.0
H606 H 0.19512 0.29777 0.57951 0.0
H607 H 0.18068 0.25777 0.61032 0.0
H608 H 0.23389 0.40594 0.72187 0.0
H609 H 0.2285 0.42071 0.67189 0.0
H610 H 0.19116 0.39726 0.69628 0.0
H611 H 0.1774 0.43034 0.55614 0.0
H612 H 0.09238 0.37179 0.62015 0.0
H613 H 0.24492 0.40261 0.61306 0.0
H614 H 0.23298 0.41919 0.56551 0.0
H615 H 0.23081 0.37073 0.57526 0.0
H616 H 0.13038 0.30092 0.66092 0.0
H617 H 0.09857 0.32633 0.66847 0.0
H618 H 0.14123 0.33731 0.69428 0.0
C619 C 0.69482 0.25583 0.6369 0.0
C620 C 0.69037 0.26259 0.67529 0.0
C621 C 0.67527 0.22391 0.61858 0.0
C622 C 0.64986 0.19827 0.63859 0.0
C623 C 0.64587 0.20422 0.67762 0.0
C624 C 0.66636 0.23599 0.69556 0.0
C625 C 0.6807 0.21854 0.57707 0.0
C626 C 0.6187 0.17798 0.69987 0.0
C627 C 0.57118 0.148 0.57554 0.0
C628 C 0.57658 0.11232 0.57465 0.0
C629 C 0.59437 0.17563 0.59685 0.0
C630 C 0.6246 0.16807 0.61718 0.0
C631 C 0.63061 0.13227 0.6162 0.0
C632 C 0.6063 0.10464 0.59528 0.0
C633 C 0.58642 0.21308 0.59746 0.0
C634 C 0.66294 0.12338 0.63675 0.0
H635 H 0.7127 0.27614 0.62042 0.0
H636 H 0.66307 0.24021 0.72542 0.0
H637 H 0.68275 0.18992 0.57341 0.0
H638 H 0.65798 0.22292 0.55785 0.0
H639 H 0.7045 0.23799 0.56735 0.0
H640 H 0.62079 0.18469 0.73086 0.0
H641 H 0.59237 0.17918 0.68683 0.0
H642 H 0.62104 0.14922 0.69802 0.0
H643 H 0.54848 0.15452 0.55968 0.0
H644 H 0.61085 0.0773 0.59456 0.0
H645 H 0.6069 0.23426 0.5838 0.0
H646 H 0.5864 0.22086 0.62778 0.0
H647 H 0.56081 0.21384 0.58191 0.0
H648 H 0.68638 0.14166 0.62499 0.0
H649 H 0.6637 0.09423 0.63358 0.0
H650 H 0.66442 0.12868 0.66802 0.0
C651 C 0.80495 0.65791 0.63139 0.0
C652 C 0.78305 0.67696 0.60914 0.0
C653 C 0.83375 0.65058 0.61632 0.0
C654 C 0.84181 0.66389 0.5785 0.0
C655 C 0.821 0.68466 0.5564 0.0
C656 C 0.7914 0.69028 0.57165 0.0
C657 C 0.85534 0.62818 0.64083 0.0
C658 C 0.83022 0.70181 0.51719 0.0
C659 C 0.93242 0.65707 0.56326 0.0
C660 C 0.92532 0.62144 0.54923 0.0
C661 C 0.90519 0.67321 0.5695 0.0
C662 C 0.87041 0.65302 0.5617 0.0
C663 C 0.86328 0.61879 0.54375 0.0
C664 C 0.89085 0.60328 0.53795 0.0
C665 C 0.91352 0.71061 0.58698 0.0
C666 C 0.82648 0.59684 0.534 0.0
H667 H 0.79982 0.6488 0.66092 0.0
H668 H 0.77485 0.70499 0.55394 0.0
H669 H 0.85474 0.60249 0.62614 0.0
H670 H 0.88288 0.64397 0.64449 0.0
H671 H 0.84586 0.62051 0.66998 0.0
H672 H 0.80688 0.70618 0.49904 0.0
H673 H 0.8485 0.72918 0.52121 0.0
H674 H 0.84334 0.68497 0.50146 0.0
H675 H 0.95908 0.67164 0.57111 0.0
H676 H 0.8851 0.57597 0.52646 0.0
H677 H 0.90688 0.70747 0.61751 0.0
H678 H 0.89763 0.7283 0.57119 0.0
H679 H 0.94151 0.72479 0.5864 0.0
H680 H 0.8157 0.58296 0.56084 0.0
H681 H 0.82542 0.5754 0.51285 0.0
H682 H 0.80952 0.61505 0.52192 0.0
C683 C 0.32421 0.40512 0.30456 0.0
C684 C 0.34546 0.38636 0.32844 0.0
C685 C 0.33615 0.42493 0.27096 0.0
C686 C 0.36937 0.42446 0.26011 0.0
C687 C 0.3915 0.40705 0.2848 0.0
C688 C 0.37957 0.38901 0.3191 0.0
C689 C 0.31274 0.44514 0.24634 0.0
C690 C 0.42712 0.40574 0.27407 0.0
C691 C 0.38551 0.42577 0.15476 0.0
C692 C 0.41017 0.45936 0.15094 0.0
C693 C 0.37077 0.41475 0.18984 0.0
C694 C 0.37988 0.43863 0.22127 0.0
C695 C 0.40245 0.47391 0.2165 0.0
C696 C 0.41817 0.4834 0.18173 0.0
C697 C 0.34747 0.37647 0.19409 0.0
C698 C 0.41158 0.50091 0.24865 0.0
H699 H 0.29777 0.40335 0.31116 0.0
H700 H 0.39674 0.37596 0.33805 0.0
H701 H 0.32764 0.47307 0.23741 0.0
H702 H 0.30237 0.42998 0.21961 0.0
H703 H 0.29041 0.44794 0.26185 0.0
H704 H 0.44103 0.39097 0.29655 0.0
H705 H 0.4246 0.39165 0.24635 0.0
H706 H 0.44331 0.43409 0.26971 0.0
H707 H 0.37935 0.40698 0.13112 0.0
H708 H 0.43738 0.50925 0.1792 0.0
H709 H 0.32251 0.37776 0.20499 0.0
H710 H 0.36025 0.35978 0.21563 0.0
H711 H 0.3417 0.36202 0.16634 0.0
H712 H 0.38922 0.49887 0.26614 0.0
H713 H 0.41999 0.52973 0.23703 0.0
H714 H 0.43342 0.4948 0.26817 0.0
C715 C 0.36235 0.66014 0.81881 0.0
C716 C 0.37365 0.66481 0.78146 0.0
C717 C 0.38122 0.64535 0.84958 0.0
C718 C 0.41171 0.6343 0.84259 0.0
C719 C 0.42245 0.63789 0.80448 0.0
C720 C 0.40355 0.65354 0.77453 0.0
C721 C 0.36922 0.64268 0.88979 0.0
C722 C 0.45427 0.62577 0.79542 0.0
C723 C 0.48459 0.631 0.9217 0.0
C724 C 0.47824 0.59323 0.93174 0.0
C725 C 0.46215 0.64491 0.89417 0.0
C726 C 0.43326 0.62033 0.87515 0.0
C727 C 0.42636 0.58221 0.88576 0.0
C728 C 0.44858 0.56925 0.91434 0.0
C729 C 0.47001 0.68583 0.88457 0.0
C730 C 0.3966 0.55481 0.86552 0.0
H731 H 0.33939 0.66922 0.82416 0.0
H732 H 0.41226 0.65723 0.74559 0.0
H733 H 0.36545 0.61397 0.90182 0.0
H734 H 0.38951 0.66037 0.90921 0.0
H735 H 0.34448 0.65139 0.89026 0.0
H736 H 0.45766 0.62791 0.76392 0.0
H737 H 0.47787 0.64306 0.81072 0.0
H738 H 0.45244 0.5968 0.80588 0.0
H739 H 0.50745 0.64966 0.93503 0.0
H740 H 0.44374 0.53995 0.92157 0.0
H741 H 0.44638 0.69635 0.88595 0.0
H742 H 0.47787 0.69127 0.85457 0.0
H743 H 0.49125 0.70159 0.90453 0.0
H744 H 0.39361 0.52644 0.87849 0.0
H745 H 0.40113 0.55431 0.83455 0.0
H746 H 0.37182 0.5632 0.86658 0.0
C747 C 0.33752 0.33022 0.82207 0.0
C748 C 0.35396 0.3196 0.79209 0.0
C749 C 0.3567 0.35287 0.85144 0.0
C750 C 0.39337 0.36454 0.85153 0.0
C751 C 0.41034 0.35197 0.82291 0.0
C752 C 0.39048 0.33004 0.79341 0.0
C753 C 0.33752 0.36591 0.88114 0.0
C754 C 0.44946 0.36319 0.82231 0.0
C755 C 0.44335 0.45642 0.89165 0.0
C756 C 0.45819 0.4457 0.9274 0.0
C757 C 0.42085 0.43045 0.86767 0.0
C758 C 0.41379 0.39255 0.87914 0.0
C759 C 0.42794 0.38164 0.91577 0.0
C760 C 0.44966 0.40847 0.93974 0.0
C761 C 0.40562 0.44354 0.82942 0.0
C762 C 0.42162 0.34152 0.92877 0.0
H763 H 0.30944 0.32167 0.82206 0.0
H764 H 0.40365 0.32254 0.77036 0.0
H765 H 0.34902 0.36106 0.9108 0.0
H766 H 0.34017 0.39607 0.87679 0.0
H767 H 0.30937 0.35194 0.87916 0.0
H768 H 0.45893 0.34771 0.80107 0.0
H769 H 0.45775 0.39307 0.81458 0.0
H770 H 0.46223 0.35859 0.85141 0.0
H771 H 0.4498 0.48524 0.88211 0.0
H772 H 0.46142 0.40009 0.96721 0.0
H773 H 0.37705 0.43201 0.82607 0.0
H774 H 0.41687 0.43359 0.80532 0.0
H775 H 0.41088 0.4741 0.82656 0.0
H776 H 0.39339 0.32813 0.92579 0.0
H777 H 0.43185 0.33781 0.95929 0.0
H778 H 0.43454 0.32697 0.90998 0.0
C779 C 0.69527 0.40637 0.75677 0.0
C780 C 0.69348 0.36838 0.76089 0.0
C781 C 0.67946 0.42392 0.78209 0.0
C782 C 0.66125 0.40304 0.81232 0.0
C783 C 0.65969 0.36479 0.81691 0.0
C784 C 0.67572 0.34794 0.79115 0.0
C785 C 0.68133 0.46461 0.77567 0.0
C786 C 0.64061 0.34152 0.84876 0.0
C787 C 0.63898 0.45302 0.89573 0.0
C788 C 0.6041 0.45311 0.88478 0.0
C789 C 0.65802 0.43689 0.87247 0.0
C790 C 0.64183 0.42061 0.83743 0.0
C791 C 0.60674 0.42091 0.82621 0.0
C792 C 0.58839 0.43699 0.84995 0.0
C793 C 0.69547 0.43733 0.88529 0.0
C794 C 0.58849 0.4043 0.78895 0.0
H795 H 0.7085 0.42234 0.73319 0.0
H796 H 0.6746 0.31872 0.79491 0.0
H797 H 0.65534 0.46844 0.76435 0.0
H798 H 0.68855 0.47902 0.80333 0.0
H799 H 0.7004 0.47792 0.75464 0.0
H800 H 0.64321 0.31259 0.84966 0.0
H801 H 0.65068 0.35354 0.87724 0.0
H802 H 0.61254 0.34131 0.84448 0.0
H803 H 0.65143 0.46555 0.92242 0.0
H804 H 0.56152 0.437 0.84095 0.0
H805 H 0.71256 0.45222 0.86307 0.0
H806 H 0.6989 0.40871 0.88816 0.0
H807 H 0.70424 0.45076 0.91338 0.0
H808 H 0.60246 0.41833 0.764 0.0
H809 H 0.56103 0.40658 0.78449 0.0
H810 H 0.58878 0.37473 0.78895 0.0
C811 C 0.65977 0.64294 0.71372 0.0
C812 C 0.6939 0.64331 0.70615 0.0
C813 C 0.6452 0.62412 0.74642 0.0
C814 C 0.66458 0.60365 0.77117 0.0
C815 C 0.69745 0.60053 0.7615 0.0
C816 C 0.71213 0.6211 0.72954 0.0
C817 C 0.61 0.62816 0.75577 0.0
C818 C 0.71785 0.57702 0.78595 0.0
C819 C 0.64689 0.60249 0.87599 0.0
C820 C 0.6199 0.57065 0.87873 0.0
C821 C 0.66269 0.61275 0.84142 0.0
C822 C 0.6522 0.58977 0.80936 0.0
C823 C 0.62693 0.5561 0.81292 0.0
C824 C 0.61026 0.54752 0.84721 0.0
C825 C 0.68893 0.64941 0.83847 0.0
C826 C 0.61613 0.5299 0.78013 0.0
H827 H 0.64483 0.65864 0.69487 0.0
H828 H 0.73844 0.6209 0.72405 0.0
H829 H 0.59185 0.60066 0.75861 0.0
H830 H 0.61256 0.64153 0.78393 0.0
H831 H 0.59826 0.64493 0.73328 0.0
H832 H 0.73817 0.57031 0.76979 0.0
H833 H 0.7309 0.59207 0.81195 0.0
H834 H 0.70037 0.55092 0.79599 0.0
H835 H 0.65438 0.62058 0.90017 0.0
H836 H 0.58922 0.52306 0.84884 0.0
H837 H 0.67879 0.66771 0.81635 0.0
H838 H 0.7136 0.64552 0.82903 0.0
H839 H 0.69477 0.66359 0.86639 0.0
H840 H 0.5944 0.53732 0.76151 0.0
H841 H 0.60681 0.50105 0.79127 0.0
H842 H 0.63787 0.53116 0.76192 0.0
C843 C 0.68838 0.66099 0.23894 0.0
C844 C 0.68854 0.69808 0.24399 0.0
C845 C 0.66843 0.64119 0.20807 0.0
C846 C 0.64692 0.65824 0.18203 0.0
C847 C 0.64756 0.69585 0.1861 0.0
C848 C 0.66862 0.7154 0.21666 0.0
C849 C 0.66896 0.60128 0.20464 0.0
C850 C 0.62451 0.71491 0.15947 0.0
C851 C 0.60218 0.60621 0.09207 0.0
C852 C 0.5709 0.58599 0.1061 0.0
C853 C 0.6272 0.6304 0.11612 0.0
C854 C 0.62026 0.63515 0.15459 0.0
C855 C 0.58817 0.61577 0.16819 0.0
C856 C 0.56439 0.59109 0.14417 0.0
C857 C 0.66149 0.64982 0.10091 0.0
C858 C 0.57914 0.62037 0.20862 0.0
H859 H 0.7028 0.64665 0.25997 0.0
H860 H 0.66889 0.74413 0.21948 0.0
H861 H 0.64419 0.5832 0.21354 0.0
H862 H 0.67122 0.59544 0.17418 0.0
H863 H 0.6908 0.59379 0.22314 0.0
H864 H 0.63067 0.74508 0.16368 0.0
H865 H 0.62709 0.71022 0.12879 0.0
H866 H 0.5969 0.70307 0.16506 0.0
H867 H 0.60757 0.60223 0.06284 0.0
H868 H 0.54053 0.57557 0.1556 0.0
H869 H 0.68279 0.63946 0.11729 0.0
H870 H 0.667 0.67986 0.10533 0.0
H871 H 0.66196 0.64539 0.06964 0.0
H872 H 0.5966 0.60899 0.2302 0.0
H873 H 0.55178 0.60612 0.21336 0.0
H874 H 0.58306 0.65004 0.21424 0.0
C875 C 0.35279 0.68394 0.23493 0.0
C876 C 0.33549 0.66322 0.26532 0.0
C877 C 0.36747 0.66709 0.20787 0.0
C878 C 0.36501 0.62862 0.21136 0.0
C879 C 0.34664 0.60738 0.24124 0.0
C880 C 0.33218 0.62492 0.26782 0.0
C881 C 0.38676 0.6907 0.17637 0.0
C882 C 0.34378 0.56641 0.24648 0.0
C883 C 0.38911 0.57898 0.12882 0.0
C884 C 0.42361 0.57833 0.14115 0.0
C885 C 0.3696 0.59541 0.15118 0.0
C886 C 0.38495 0.61135 0.18667 0.0
C887 C 0.41968 0.61055 0.1992 0.0
C888 C 0.4385 0.59423 0.17635 0.0
C889 C 0.33254 0.59557 0.13703 0.0
C890 C 0.43703 0.62675 0.23701 0.0
H891 H 0.35506 0.71343 0.23246 0.0
H892 H 0.31929 0.60871 0.29148 0.0
H893 H 0.41492 0.69151 0.18137 0.0
H894 H 0.37745 0.67864 0.14775 0.0
H895 H 0.38358 0.71943 0.17533 0.0
H896 H 0.32432 0.55302 0.26706 0.0
H897 H 0.33655 0.55274 0.21839 0.0
H898 H 0.36944 0.56167 0.25788 0.0
H899 H 0.37735 0.56666 0.10179 0.0
H900 H 0.46507 0.5938 0.18642 0.0
H901 H 0.32941 0.6243 0.13441 0.0
H902 H 0.31464 0.58042 0.15837 0.0
H903 H 0.32457 0.5827 0.10854 0.0
H904 H 0.4369 0.65635 0.23709 0.0
H905 H 0.46438 0.62423 0.24238 0.0
H906 H 0.42232 0.61257 0.2614 0.0
C907 C 0.67207 0.37623 0.21498 0.0
C908 C 0.66137 0.37304 0.25256 0.0
C909 C 0.6528 0.39003 0.18386 0.0
C910 C 0.62258 0.40163 0.19073 0.0
C911 C 0.61254 0.3997 0.22903 0.0
C912 C 0.63177 0.38496 0.25934 0.0
C913 C 0.66403 0.39091 0.14347 0.0
C914 C 0.58106 0.41254 0.23792 0.0
C915 C 0.5845 0.46411 0.11702 0.0
C916 C 0.55452 0.43953 0.10106 0.0
C917 C 0.60728 0.45212 0.14566 0.0
C918 C 0.60052 0.4144 0.1579 0.0
C919 C 0.57125 0.38917 0.14038 0.0
C920 C 0.54832 0.40212 0.11268 0.0
C921 C 0.63752 0.48018 0.16425 0.0
C922 C 0.5635 0.3486 0.15182 0.0
H923 H 0.69477 0.36662 0.20973 0.0
H924 H 0.62353 0.38245 0.28846 0.0
H925 H 0.64348 0.37229 0.12518 0.0
H926 H 0.66741 0.41908 0.13004 0.0
H927 H 0.68879 0.38221 0.14313 0.0
H928 H 0.57831 0.41184 0.26951 0.0
H929 H 0.58277 0.44111 0.22613 0.0
H930 H 0.55714 0.39472 0.22375 0.0
H931 H 0.58917 0.49318 0.10866 0.0
H932 H 0.52521 0.38302 0.10046 0.0
H933 H 0.66216 0.47157 0.16301 0.0
H934 H 0.63378 0.48194 0.19527 0.0
H935 H 0.64027 0.50809 0.15014 0.0
H936 H 0.58701 0.33784 0.15058 0.0
H937 H 0.54188 0.33212 0.13283 0.0
H938 H 0.55624 0.34447 0.1821 0.0
loop_
_geom_bond_atom_site_label_1
_geom_bond_atom_site_label_2
_geom_bond_distance
_geom_bond_site_symmetry_2
_ccdc_geom_bond_type
H0 C3 0.931 . S
H1 C6 0.928 . S
H2 C8 0.930 . S
C3 H0 0.931 . S
C3 C4 1.413 . S
C3 C5 1.360 . S
C4 C3 1.413 . S
C4 C8 1.429 . S
C5 C3 1.360 . S
C5 C6 1.372 . S
C6 H1 0.928 . S
C6 C5 1.372 . S
C6 C7 1.404 . S
C7 C6 1.404 . S
C7 C8 1.391 . S
C8 H2 0.930 . S
C8 C4 1.429 . S
C8 C7 1.391 . S
H9 C12 0.931 . S
H10 C15 0.928 . S
H11 C17 0.930 . S
C12 H9 0.931 . S
C12 C13 1.413 . S
C12 C14 1.360 . S
C13 C12 1.413 . S
C13 C17 1.429 . S
C14 C12 1.360 . S
C14 C15 1.372 . S
C15 H10 0.928 . S
C15 C14 1.372 . S
C15 C16 1.404 . S
C16 C15 1.404 . S
C16 C17 1.391 . S
C17 H11 0.930 . S
C17 C13 1.429 . S
C17 C16 1.391 . S
H18 C21 0.931 . S
H19 C24 0.928 . S
H20 C26 0.930 . S
C21 H18 0.931 . S
C21 C22 1.413 . S
C21 C23 1.360 . S
C22 C21 1.413 . S
C22 C26 1.429 . S
C23 C21 1.360 . S
C23 C24 1.372 . S
C24 H19 0.928 . S
C24 C23 1.372 . S
C24 C25 1.404 . S
C25 C24 1.404 . S
C25 C26 1.391 . S
C26 H20 0.930 . S
C26 C22 1.429 . S
C26 C25 1.391 . S
H27 C30 0.931 . S
H28 C33 0.928 . S
H29 C35 0.930 . S
C30 H27 0.931 . S
C30 C31 1.413 . S
C30 C32 1.360 . S
C31 C30 1.413 . S
C31 C35 1.429 . S
C32 C30 1.360 . S
C32 C33 1.372 . S
C33 H28 0.928 . S
C33 C32 1.372 . S
C33 C34 1.404 . S
C34 C33 1.404 . S
C34 C35 1.391 . S
C35 H29 0.930 . S
C35 C31 1.429 . S
C35 C34 1.391 . S
H36 C39 0.931 . S
H37 C42 0.928 . S
H38 C44 0.930 . S
C39 H36 0.931 . S
C39 C40 1.413 . S
C39 C41 1.360 . S
C40 C39 1.413 . S
C40 C44 1.429 . S
C41 C39 1.360 . S
C41 C42 1.372 . S
C42 H37 0.928 . S
C42 C41 1.372 . S
C42 C43 1.404 . S
C43 C42 1.404 . S
C43 C44 1.391 . S
C44 H38 0.930 . S
C44 C40 1.429 . S
C44 C43 1.391 . S
H45 C48 0.931 . S
H46 C51 0.928 . S
H47 C53 0.930 . S
C48 H45 0.931 . S
C48 C49 1.413 . S
C48 C50 1.360 . S
C49 C48 1.413 . S
C49 C53 1.429 . S
C50 C48 1.360 . S
C50 C51 1.372 . S
C51 H46 0.928 . S
C51 C50 1.372 . S
C51 C52 1.404 . S
C52 C51 1.404 . S
C52 C53 1.391 . S
C53 H47 0.930 . S
C53 C49 1.429 . S
C53 C52 1.391 . S
H54 C57 0.931 . S
H55 C60 0.928 . S
H56 C62 0.930 . S
C57 H54 0.931 . S
C57 C58 1.413 . S
C57 C59 1.360 . S
C58 C57 1.413 . S
C58 C62 1.429 . S
C59 C57 1.360 . S
C59 C60 1.372 . S
C60 H55 0.928 . S
C60 C59 1.372 . S
C60 C61 1.404 . S
C61 C60 1.404 . S
C61 C62 1.391 . S
C62 H56 0.930 . S
C62 C58 1.429 . S
C62 C61 1.391 . S
H63 C66 0.931 . S
H64 C69 0.928 . S
H65 C71 0.930 . S
C66 H63 0.931 . S
C66 C67 1.413 . S
C66 C68 1.360 . S
C67 C66 1.413 . S
C67 C71 1.429 . S
C68 C66 1.360 . S
C68 C69 1.372 . S
C69 H64 0.928 . S
C69 C68 1.372 . S
C69 C70 1.404 . S
C70 C69 1.404 . S
C70 C71 1.391 . S
C71 H65 0.930 . S
C71 C67 1.429 . S
C71 C70 1.391 . S
Co72 O75 2.042 . S
Co72 O82 2.264 . S
Co72 O101 2.286 . S
Co72 O102 2.069 . S
Co72 O104 2.015 . S
Co73 O75 2.122 . S
Co73 O81 2.073 . S
Co73 O82 2.327 . S
Co73 O83 1.976 . S
Co74 O75 2.087 . S
Co74 O77 2.087 1_455 S
Co74 O84 2.111 . S
Co74 O85 2.143 1_455 S
Co74 O89 2.111 1_455 S
Co74 O103 2.143 . S
O75 Co72 2.042 . S
O75 Co73 2.122 . S
O75 Co74 2.087 . S
O75 H76 0.980 . S
H76 O75 0.980 . S
O77 Co74 2.087 1_655 S
O77 Co78 2.042 . S
O77 Co79 2.122 . S
O77 H80 0.980 . S
Co78 O77 2.042 . S
Co78 O86 2.286 . S
Co78 O87 2.069 . S
Co78 O88 2.015 . S
Co78 O91 2.264 . S
Co79 O77 2.122 . S
Co79 O90 1.976 . S
Co79 O91 2.327 . S
Co79 O92 2.073 . S
H80 O77 0.980 . S
O81 Co73 2.073 . S
O81 C96 1.245 . S
O82 Co72 2.264 . S
O82 Co73 2.327 . S
O82 C96 1.257 . S
O83 Co73 1.976 . S
O83 C95 1.251 . S
O84 Co74 2.111 . S
O84 C95 1.274 . S
O85 Co74 2.143 1_655 S
O85 C98 1.246 . S
O86 Co78 2.286 . S
O86 C97 1.259 . S
O87 Co78 2.069 . S
O87 C97 1.289 . S
O88 Co78 2.015 . S
O88 C98 1.257 . S
O89 Co74 2.111 1_655 S
O89 C99 1.274 . S
O90 Co79 1.976 . S
O90 C99 1.251 . S
O91 Co78 2.264 . S
O91 Co79 2.327 . S
O91 C100 1.257 . S
O92 Co79 2.073 . S
O92 C100 1.245 . S
C93 O101 1.259 . S
C93 O102 1.289 . S
C94 O103 1.246 . S
C94 O104 1.257 . S
C95 O83 1.251 . S
C95 O84 1.274 . S
C96 O81 1.245 . S
C96 O82 1.257 . S
C97 O86 1.259 . S
C97 O87 1.289 . S
C98 O85 1.246 . S
C98 O88 1.257 . S
C99 O89 1.274 . S
C99 O90 1.251 . S
C100 O91 1.257 . S
C100 O92 1.245 . S
O101 Co72 2.286 . S
O101 C93 1.259 . S
O102 Co72 2.069 . S
O102 C93 1.289 . S
O103 Co74 2.143 . S
O103 C94 1.246 . S
O104 Co72 2.015 . S
O104 C94 1.257 . S
Co105 O108 2.042 . S
Co105 O115 2.264 . S
Co105 O134 2.286 . S
Co105 O135 2.069 . S
Co105 O137 2.015 . S
Co106 O108 2.122 . S
Co106 O114 2.073 . S
Co106 O115 2.327 . S
Co106 O116 1.976 . S
Co107 O108 2.087 1_545 S
Co107 O110 2.087 . S
Co107 O117 2.111 1_545 S
Co107 O118 2.143 . S
Co107 O122 2.111 . S
Co107 O136 2.143 1_545 S
O108 Co105 2.042 . S
O108 Co106 2.122 . S
O108 Co107 2.087 1_565 S
O108 H109 0.980 . S
H109 O108 0.980 . S
O110 Co107 2.087 . S
O110 Co111 2.042 . S
O110 Co112 2.122 . S
O110 H113 0.980 . S
Co111 O110 2.042 . S
Co111 O119 2.286 . S
Co111 O120 2.069 . S
Co111 O121 2.015 . S
Co111 O124 2.264 . S
Co112 O110 2.122 . S
Co112 O123 1.976 . S
Co112 O124 2.327 . S
Co112 O125 2.073 . S
H113 O110 0.980 . S
O114 Co106 2.073 . S
O114 C129 1.245 . S
O115 Co105 2.264 . S
O115 Co106 2.327 . S
O115 C129 1.257 . S
O116 Co106 1.976 . S
O116 C128 1.251 . S
O117 Co107 2.111 1_565 S
O117 C128 1.274 . S
O118 Co107 2.143 . S
O118 C131 1.246 . S
O119 Co111 2.286 . S
O119 C130 1.259 . S
O120 Co111 2.069 . S
O120 C130 1.289 . S
O121 Co111 2.015 . S
O121 C131 1.257 . S
O122 Co107 2.111 . S
O122 C132 1.274 . S
O123 Co112 1.976 . S
O123 C132 1.251 . S
O124 Co111 2.264 . S
O124 Co112 2.327 . S
O124 C133 1.257 . S
O125 Co112 2.073 . S
O125 C133 1.245 . S
C126 O134 1.259 . S
C126 O135 1.289 . S
C127 O136 1.246 . S
C127 O137 1.257 . S
C128 O116 1.251 . S
C128 O117 1.274 . S
C129 O114 1.245 . S
C129 O115 1.257 . S
C130 O119 1.259 . S
C130 O120 1.289 . S
C131 O118 1.246 . S
C131 O121 1.257 . S
C132 O122 1.274 . S
C132 O123 1.251 . S
C133 O124 1.257 . S
C133 O125 1.245 . S
O134 Co105 2.286 . S
O134 C126 1.259 . S
O135 Co105 2.069 . S
O135 C126 1.289 . S
O136 Co107 2.143 1_565 S
O136 C127 1.246 . S
O137 Co105 2.015 . S
O137 C127 1.257 . S
Co138 O141 2.042 . S
Co138 O148 2.264 . S
Co138 O167 2.286 . S
Co138 O168 2.069 . S
Co138 O170 2.015 . S
Co139 O141 2.122 . S
Co139 O147 2.073 . S
Co139 O148 2.327 . S
Co139 O149 1.976 . S
Co140 O141 2.087 . S
Co140 O143 2.087 1_554 S
Co140 O150 2.111 . S
Co140 O151 2.143 1_554 S
Co140 O155 2.111 1_554 S
Co140 O169 2.143 . S
O141 Co138 2.042 . S
O141 Co139 2.122 . S
O141 Co140 2.087 . S
O141 H142 0.980 . S
H142 O141 0.980 . S
O143 Co140 2.087 1_556 S
O143 Co144 2.042 . S
O143 Co145 2.122 . S
O143 H146 0.980 . S
Co144 O143 2.042 . S
Co144 O152 2.286 . S
Co144 O153 2.069 . S
Co144 O154 2.015 . S
Co144 O157 2.264 . S
Co145 O143 2.122 . S
Co145 O156 1.976 . S
Co145 O157 2.327 . S
Co145 O158 2.073 . S
H146 O143 0.980 . S
O147 Co139 2.073 . S
O147 C162 1.245 . S
O148 Co138 2.264 . S
O148 Co139 2.327 . S
O148 C162 1.257 . S
O149 Co139 1.976 . S
O149 C161 1.251 . S
O150 Co140 2.111 . S
O150 C161 1.274 . S
O151 Co140 2.143 1_556 S
O151 C164 1.246 . S
O152 Co144 2.286 . S
O152 C163 1.259 . S
O153 Co144 2.069 . S
O153 C163 1.289 . S
O154 Co144 2.015 . S
O154 C164 1.257 . S
O155 Co140 2.111 1_556 S
O155 C165 1.274 . S
O156 Co145 1.976 . S
O156 C165 1.251 . S
O157 Co144 2.264 . S
O157 Co145 2.327 . S
O157 C166 1.257 . S
O158 Co145 2.073 . S
O158 C166 1.245 . S
C159 O167 1.259 . S
C159 O168 1.289 . S
C160 O169 1.246 . S
C160 O170 1.257 . S
C161 O149 1.251 . S
C161 O150 1.274 . S
C162 O147 1.245 . S
C162 O148 1.257 . S
C163 O152 1.259 . S
C163 O153 1.289 . S
C164 O151 1.246 . S
C164 O154 1.257 . S
C165 O155 1.274 . S
C165 O156 1.251 . S
C166 O157 1.257 . S
C166 O158 1.245 . S
O167 Co138 2.286 . S
O167 C159 1.259 . S
O168 Co138 2.069 . S
O168 C159 1.289 . S
O169 Co140 2.143 . S
O169 C160 1.246 . S
O170 Co138 2.015 . S
O170 C160 1.257 . S
C171 C172 1.391 . S
C171 C173 1.394 . S
C171 H187 0.931 . S
C172 C171 1.391 . S
C172 C176 1.376 . S
C173 C171 1.394 . S
C173 C174 1.369 . S
C173 C177 1.531 . S
C174 C173 1.369 . S
C174 C175 1.410 . S
C174 C182 1.503 . S
C175 C174 1.410 . S
C175 C176 1.392 . S
C175 C178 1.511 . S
C176 C172 1.376 . S
C176 C175 1.392 . S
C176 H188 0.929 . S
C177 C173 1.531 . S
C177 H189 0.960 . S
C177 H190 0.962 . S
C177 H191 0.960 . S
C178 C175 1.511 . S
C178 H192 0.961 . S
C178 H193 0.961 . S
C178 H194 0.961 . S
C179 C180 1.370 . S
C179 C181 1.363 . S
C179 H195 0.931 . S
C180 C179 1.370 . S
C180 C184 1.408 . S
C181 C179 1.363 . S
C181 C182 1.370 . S
C181 C185 1.524 . S
C182 C174 1.503 . S
C182 C181 1.370 . S
C182 C183 1.403 . S
C183 C182 1.403 . S
C183 C184 1.404 . S
C183 C186 1.539 . S
C184 C180 1.408 . S
C184 C183 1.404 . S
C184 H196 0.930 . S
C185 C181 1.524 . S
C185 H197 0.956 . S
C185 H198 0.961 . S
C185 H199 0.961 . S
C186 C183 1.539 . S
C186 H200 0.958 . S
C186 H201 0.961 . S
C186 H202 0.960 . S
H187 C171 0.931 . S
H188 C176 0.929 . S
H189 C177 0.960 . S
H190 C177 0.962 . S
H191 C177 0.960 . S
H192 C178 0.961 . S
H193 C178 0.961 . S
H194 C178 0.961 . S
H195 C179 0.931 . S
H196 C184 0.930 . S
H197 C185 0.956 . S
H198 C185 0.961 . S
H199 C185 0.961 . S
H200 C186 0.958 . S
H201 C186 0.961 . S
H202 C186 0.960 . S
C203 C204 1.391 . S
C203 C205 1.394 . S
C203 H219 0.931 . S
C204 C203 1.391 . S
C204 C208 1.376 . S
C205 C203 1.394 . S
C205 C206 1.369 . S
C205 C209 1.531 . S
C206 C205 1.369 . S
C206 C207 1.410 . S
C206 C214 1.503 . S
C207 C206 1.410 . S
C207 C208 1.392 . S
C207 C210 1.511 . S
C208 C204 1.376 . S
C208 C207 1.392 . S
C208 H220 0.929 . S
C209 C205 1.531 . S
C209 H221 0.960 . S
C209 H222 0.962 . S
C209 H223 0.960 . S
C210 C207 1.511 . S
C210 H224 0.961 . S
C210 H225 0.961 . S
C210 H226 0.961 . S
C211 C212 1.370 . S
C211 C213 1.363 . S
C211 H227 0.931 . S
C212 C211 1.370 . S
C212 C216 1.408 . S
C213 C211 1.363 . S
C213 C214 1.370 . S
C213 C217 1.524 . S
C214 C206 1.503 . S
C214 C213 1.370 . S
C214 C215 1.403 . S
C215 C214 1.403 . S
C215 C216 1.404 . S
C215 C218 1.539 . S
C216 C212 1.408 . S
C216 C215 1.404 . S
C216 H228 0.930 . S
C217 C213 1.524 . S
C217 H229 0.956 . S
C217 H230 0.961 . S
C217 H231 0.961 . S
C218 C215 1.539 . S
C218 H232 0.958 . S
C218 H233 0.961 . S
C218 H234 0.960 . S
H219 C203 0.931 . S
H220 C208 0.929 . S
H221 C209 0.960 . S
H222 C209 0.962 . S
H223 C209 0.960 . S
H224 C210 0.961 . S
H225 C210 0.961 . S
H226 C210 0.961 . S
H227 C211 0.931 . S
H228 C216 0.930 . S
H229 C217 0.956 . S
H230 C217 0.961 . S
H231 C217 0.961 . S
H232 C218 0.958 . S
H233 C218 0.961 . S
H234 C218 0.960 . S
C235 C236 1.391 . S
C235 C237 1.394 . S
C235 H251 0.931 . S
C236 C235 1.391 . S
C236 C240 1.376 . S
C237 C235 1.394 . S
C237 C238 1.369 . S
C237 C241 1.531 . S
C238 C237 1.369 . S
C238 C239 1.410 . S
C238 C246 1.503 . S
C239 C238 1.410 . S
C239 C240 1.392 . S
C239 C242 1.511 . S
C240 C236 1.376 . S
C240 C239 1.392 . S
C240 H252 0.929 . S
C241 C237 1.531 . S
C241 H253 0.960 . S
C241 H254 0.962 . S
C241 H255 0.960 . S
C242 C239 1.511 . S
C242 H256 0.961 . S
C242 H257 0.961 . S
C242 H258 0.961 . S
C243 C244 1.370 . S
C243 C245 1.363 . S
C243 H259 0.931 . S
C244 C243 1.370 . S
C244 C248 1.408 . S
C245 C243 1.363 . S
C245 C246 1.370 . S
C245 C249 1.524 . S
C246 C238 1.503 . S
C246 C245 1.370 . S
C246 C247 1.403 . S
C247 C246 1.403 . S
C247 C248 1.404 . S
C247 C250 1.539 . S
C248 C244 1.408 . S
C248 C247 1.404 . S
C248 H260 0.930 . S
C249 C245 1.524 . S
C249 H261 0.956 . S
C249 H262 0.961 . S
C249 H263 0.961 . S
C250 C247 1.539 . S
C250 H264 0.958 . S
C250 H265 0.961 . S
C250 H266 0.960 . S
H251 C235 0.931 . S
H252 C240 0.929 . S
H253 C241 0.960 . S
H254 C241 0.962 . S
H255 C241 0.960 . S
H256 C242 0.961 . S
H257 C242 0.961 . S
H258 C242 0.961 . S
H259 C243 0.931 . S
H260 C248 0.930 . S
H261 C249 0.956 . S
H262 C249 0.961 . S
H263 C249 0.961 . S
H264 C250 0.958 . S
H265 C250 0.961 . S
H266 C250 0.960 . S
C267 C268 1.391 . S
C267 C269 1.394 . S
C267 H283 0.931 . S
C268 C267 1.391 . S
C268 C272 1.376 . S
C269 C267 1.394 . S
C269 C270 1.369 . S
C269 C273 1.531 . S
C270 C269 1.369 . S
C270 C271 1.410 . S
C270 C278 1.503 . S
C271 C270 1.410 . S
C271 C272 1.392 . S
C271 C274 1.511 . S
C272 C268 1.376 . S
C272 C271 1.392 . S
C272 H284 0.929 . S
C273 C269 1.531 . S
C273 H285 0.960 . S
C273 H286 0.962 . S
C273 H287 0.960 . S
C274 C271 1.511 . S
C274 H288 0.961 . S
C274 H289 0.961 . S
C274 H290 0.961 . S
C275 C276 1.370 . S
C275 C277 1.363 . S
C275 H291 0.931 . S
C276 C275 1.370 . S
C276 C280 1.408 . S
C277 C275 1.363 . S
C277 C278 1.370 . S
C277 C281 1.524 . S
C278 C270 1.503 . S
C278 C277 1.370 . S
C278 C279 1.403 . S
C279 C278 1.403 . S
C279 C280 1.404 . S
C279 C282 1.539 . S
C280 C276 1.408 . S
C280 C279 1.404 . S
C280 H292 0.930 . S
C281 C277 1.524 . S
C281 H293 0.956 . S
C281 H294 0.961 . S
C281 H295 0.961 . S
C282 C279 1.539 . S
C282 H296 0.958 . S
C282 H297 0.961 . S
C282 H298 0.960 . S
H283 C267 0.931 . S
H284 C272 0.929 . S
H285 C273 0.960 . S
H286 C273 0.962 . S
H287 C273 0.960 . S
H288 C274 0.961 . S
H289 C274 0.961 . S
H290 C274 0.961 . S
H291 C275 0.931 . S
H292 C280 0.930 . S
H293 C281 0.956 . S
H294 C281 0.961 . S
H295 C281 0.961 . S
H296 C282 0.958 . S
H297 C282 0.961 . S
H298 C282 0.960 . S
C299 C300 1.391 . S
C299 C301 1.394 . S
C299 H315 0.931 . S
C300 C299 1.391 . S
C300 C304 1.376 . S
C301 C299 1.394 . S
C301 C302 1.369 . S
C301 C305 1.531 . S
C302 C301 1.369 . S
C302 C303 1.410 . S
C302 C310 1.503 . S
C303 C302 1.410 . S
C303 C304 1.392 . S
C303 C306 1.511 . S
C304 C300 1.376 . S
C304 C303 1.392 . S
C304 H316 0.929 . S
C305 C301 1.531 . S
C305 H317 0.960 . S
C305 H318 0.962 . S
C305 H319 0.960 . S
C306 C303 1.511 . S
C306 H320 0.961 . S
C306 H321 0.961 . S
C306 H322 0.961 . S
C307 C308 1.370 . S
C307 C309 1.363 . S
C307 H323 0.931 . S
C308 C307 1.370 . S
C308 C312 1.408 . S
C309 C307 1.363 . S
C309 C310 1.370 . S
C309 C313 1.524 . S
C310 C302 1.503 . S
C310 C309 1.370 . S
C310 C311 1.403 . S
C311 C310 1.403 . S
C311 C312 1.404 . S
C311 C314 1.539 . S
C312 C308 1.408 . S
C312 C311 1.404 . S
C312 H324 0.930 . S
C313 C309 1.524 . S
C313 H325 0.956 . S
C313 H326 0.961 . S
C313 H327 0.961 . S
C314 C311 1.539 . S
C314 H328 0.958 . S
C314 H329 0.961 . S
C314 H330 0.960 . S
H315 C299 0.931 . S
H316 C304 0.929 . S
H317 C305 0.960 . S
H318 C305 0.962 . S
H319 C305 0.960 . S
H320 C306 0.961 . S
H321 C306 0.961 . S
H322 C306 0.961 . S
H323 C307 0.931 . S
H324 C312 0.930 . S
H325 C313 0.956 . S
H326 C313 0.961 . S
H327 C313 0.961 . S
H328 C314 0.958 . S
H329 C314 0.961 . S
H330 C314 0.960 . S
C331 C332 1.391 . S
C331 C333 1.394 . S
C331 H347 0.931 . S
C332 C331 1.391 . S
C332 C336 1.376 . S
C333 C331 1.394 . S
C333 C334 1.369 . S
C333 C337 1.531 . S
C334 C333 1.369 . S
C334 C335 1.410 . S
C334 C342 1.503 . S
C335 C334 1.410 . S
C335 C336 1.392 . S
C335 C338 1.511 . S
C336 C332 1.376 . S
C336 C335 1.392 . S
C336 H348 0.929 . S
C337 C333 1.531 . S
C337 H349 0.960 . S
C337 H350 0.962 . S
C337 H351 0.960 . S
C338 C335 1.511 . S
C338 H352 0.961 . S
C338 H353 0.961 . S
C338 H354 0.961 . S
C339 C340 1.370 . S
C339 C341 1.363 . S
C339 H355 0.931 . S
C340 C339 1.370 . S
C340 C344 1.408 . S
C341 C339 1.363 . S
C341 C342 1.370 . S
C341 C345 1.524 . S
C342 C334 1.503 . S
C342 C341 1.370 . S
C342 C343 1.403 . S
C343 C342 1.403 . S
C343 C344 1.404 . S
C343 C346 1.539 . S
C344 C340 1.408 . S
C344 C343 1.404 . S
C344 H356 0.930 . S
C345 C341 1.524 . S
C345 H357 0.956 . S
C345 H358 0.961 . S
C345 H359 0.961 . S
C346 C343 1.539 . S
C346 H360 0.958 . S
C346 H361 0.961 . S
C346 H362 0.960 . S
H347 C331 0.931 . S
H348 C336 0.929 . S
H349 C337 0.960 . S
H350 C337 0.962 . S
H351 C337 0.960 . S
H352 C338 0.961 . S
H353 C338 0.961 . S
H354 C338 0.961 . S
H355 C339 0.931 . S
H356 C344 0.930 . S
H357 C345 0.956 . S
H358 C345 0.961 . S
H359 C345 0.961 . S
H360 C346 0.958 . S
H361 C346 0.961 . S
H362 C346 0.960 . S
C363 C364 1.391 . S
C363 C365 1.394 . S
C363 H379 0.931 . S
C364 C363 1.391 . S
C364 C368 1.376 . S
C365 C363 1.394 . S
C365 C366 1.369 . S
C365 C369 1.531 . S
C366 C365 1.369 . S
C366 C367 1.410 . S
C366 C374 1.503 . S
C367 C366 1.410 . S
C367 C368 1.392 . S
C367 C370 1.511 . S
C368 C364 1.376 . S
C368 C367 1.392 . S
C368 H380 0.929 . S
C369 C365 1.531 . S
C369 H381 0.960 . S
C369 H382 0.962 . S
C369 H383 0.960 . S
C370 C367 1.511 . S
C370 H384 0.961 . S
C370 H385 0.961 . S
C370 H386 0.961 . S
C371 C372 1.370 . S
C371 C373 1.363 . S
C371 H387 0.931 . S
C372 C371 1.370 . S
C372 C376 1.408 . S
C373 C371 1.363 . S
C373 C374 1.370 . S
C373 C377 1.524 . S
C374 C366 1.503 . S
C374 C373 1.370 . S
C374 C375 1.403 . S
C375 C374 1.403 . S
C375 C376 1.404 . S
C375 C378 1.539 . S
C376 C372 1.408 . S
C376 C375 1.404 . S
C376 H388 0.930 . S
C377 C373 1.524 . S
C377 H389 0.956 . S
C377 H390 0.961 . S
C377 H391 0.961 . S
C378 C375 1.539 . S
C378 H392 0.958 . S
C378 H393 0.961 . S
C378 H394 0.960 . S
H379 C363 0.931 . S
H380 C368 0.929 . S
H381 C369 0.960 . S
H382 C369 0.962 . S
H383 C369 0.960 . S
H384 C370 0.961 . S
H385 C370 0.961 . S
H386 C370 0.961 . S
H387 C371 0.931 . S
H388 C376 0.930 . S
H389 C377 0.956 . S
H390 C377 0.961 . S
H391 C377 0.961 . S
H392 C378 0.958 . S
H393 C378 0.961 . S
H394 C378 0.960 . S
C395 C396 1.391 . S
C395 C397 1.394 . S
C395 H411 0.931 . S
C396 C395 1.391 . S
C396 C400 1.376 . S
C397 C395 1.394 . S
C397 C398 1.369 . S
C397 C401 1.531 . S
C398 C397 1.369 . S
C398 C399 1.410 . S
C398 C406 1.503 . S
C399 C398 1.410 . S
C399 C400 1.392 . S
C399 C402 1.511 . S
C400 C396 1.376 . S
C400 C399 1.392 . S
C400 H412 0.929 . S
C401 C397 1.531 . S
C401 H413 0.960 . S
C401 H414 0.962 . S
C401 H415 0.960 . S
C402 C399 1.511 . S
C402 H416 0.961 . S
C402 H417 0.961 . S
C402 H418 0.961 . S
C403 C404 1.370 . S
C403 C405 1.363 . S
C403 H419 0.931 . S
C404 C403 1.370 . S
C404 C408 1.408 . S
C405 C403 1.363 . S
C405 C406 1.370 . S
C405 C409 1.524 . S
C406 C398 1.503 . S
C406 C405 1.370 . S
C406 C407 1.403 . S
C407 C406 1.403 . S
C407 C408 1.404 . S
C407 C410 1.539 . S
C408 C404 1.408 . S
C408 C407 1.404 . S
C408 H420 0.930 . S
C409 C405 1.524 . S
C409 H421 0.956 . S
C409 H422 0.961 . S
C409 H423 0.961 . S
C410 C407 1.539 . S
C410 H424 0.958 . S
C410 H425 0.961 . S
C410 H426 0.960 . S
H411 C395 0.931 . S
H412 C400 0.929 . S
H413 C401 0.960 . S
H414 C401 0.962 . S
H415 C401 0.960 . S
H416 C402 0.961 . S
H417 C402 0.961 . S
H418 C402 0.961 . S
H419 C403 0.931 . S
H420 C408 0.930 . S
H421 C409 0.956 . S
H422 C409 0.961 . S
H423 C409 0.961 . S
H424 C410 0.958 . S
H425 C410 0.961 . S
H426 C410 0.960 . S
C427 C428 1.391 . S
C427 C429 1.394 . S
C427 H443 0.931 . S
C428 C427 1.391 . S
C428 C432 1.376 . S
C429 C427 1.394 . S
C429 C430 1.369 . S
C429 C433 1.531 . S
C430 C429 1.369 . S
C430 C431 1.410 . S
C430 C438 1.503 . S
C431 C430 1.410 . S
C431 C432 1.392 . S
C431 C434 1.511 . S
C432 C428 1.376 . S
C432 C431 1.392 . S
C432 H444 0.929 . S
C433 C429 1.531 . S
C433 H445 0.960 . S
C433 H446 0.962 . S
C433 H447 0.960 . S
C434 C431 1.511 . S
C434 H448 0.961 . S
C434 H449 0.961 . S
C434 H450 0.961 . S
C435 C436 1.370 . S
C435 C437 1.363 . S
C435 H451 0.931 . S
C436 C435 1.370 . S
C436 C440 1.408 . S
C437 C435 1.363 . S
C437 C438 1.370 . S
C437 C441 1.524 . S
C438 C430 1.503 . S
C438 C437 1.370 . S
C438 C439 1.403 . S
C439 C438 1.403 . S
C439 C440 1.404 . S
C439 C442 1.539 . S
C440 C436 1.408 . S
C440 C439 1.404 . S
C440 H452 0.930 . S
C441 C437 1.524 . S
C441 H453 0.956 . S
C441 H454 0.961 . S
C441 H455 0.961 . S
C442 C439 1.539 . S
C442 H456 0.958 . S
C442 H457 0.961 . S
C442 H458 0.960 . S
H443 C427 0.931 . S
H444 C432 0.929 . S
H445 C433 0.960 . S
H446 C433 0.962 . S
H447 C433 0.960 . S
H448 C434 0.961 . S
H449 C434 0.961 . S
H450 C434 0.961 . S
H451 C435 0.931 . S
H452 C440 0.930 . S
H453 C441 0.956 . S
H454 C441 0.961 . S
H455 C441 0.961 . S
H456 C442 0.958 . S
H457 C442 0.961 . S
H458 C442 0.960 . S
C459 C460 1.391 . S
C459 C461 1.394 . S
C459 H475 0.931 . S
C460 C459 1.391 . S
C460 C464 1.376 . S
C461 C459 1.394 . S
C461 C462 1.369 . S
C461 C465 1.531 . S
C462 C461 1.369 . S
C462 C463 1.410 . S
C462 C470 1.503 . S
C463 C462 1.410 . S
C463 C464 1.392 . S
C463 C466 1.511 . S
C464 C460 1.376 . S
C464 C463 1.392 . S
C464 H476 0.929 . S
C465 C461 1.531 . S
C465 H477 0.960 . S
C465 H478 0.962 . S
C465 H479 0.960 . S
C466 C463 1.511 . S
C466 H480 0.961 . S
C466 H481 0.961 . S
C466 H482 0.961 . S
C467 C468 1.370 . S
C467 C469 1.363 . S
C467 H483 0.931 . S
C468 C467 1.370 . S
C468 C472 1.408 . S
C469 C467 1.363 . S
C469 C470 1.370 . S
C469 C473 1.524 . S
C470 C462 1.503 . S
C470 C469 1.370 . S
C470 C471 1.403 . S
C471 C470 1.403 . S
C471 C472 1.404 . S
C471 C474 1.539 . S
C472 C468 1.408 . S
C472 C471 1.404 . S
C472 H484 0.930 . S
C473 C469 1.524 . S
C473 H485 0.956 . S
C473 H486 0.961 . S
C473 H487 0.961 . S
C474 C471 1.539 . S
C474 H488 0.958 . S
C474 H489 0.961 . S
C474 H490 0.960 . S
H475 C459 0.931 . S
H476 C464 0.929 . S
H477 C465 0.960 . S
H478 C465 0.962 . S
H479 C465 0.960 . S
H480 C466 0.961 . S
H481 C466 0.961 . S
H482 C466 0.961 . S
H483 C467 0.931 . S
H484 C472 0.930 . S
H485 C473 0.956 . S
H486 C473 0.961 . S
H487 C473 0.961 . S
H488 C474 0.958 . S
H489 C474 0.961 . S
H490 C474 0.960 . S
C491 C492 1.391 . S
C491 C493 1.394 . S
C491 H507 0.931 . S
C492 C491 1.391 . S
C492 C496 1.376 . S
C493 C491 1.394 . S
C493 C494 1.369 . S
C493 C497 1.531 . S
C494 C493 1.369 . S
C494 C495 1.410 . S
C494 C502 1.503 . S
C495 C494 1.410 . S
C495 C496 1.392 . S
C495 C498 1.511 . S
C496 C492 1.376 . S
C496 C495 1.392 . S
C496 H508 0.929 . S
C497 C493 1.531 . S
C497 H509 0.960 . S
C497 H510 0.962 . S
C497 H511 0.960 . S
C498 C495 1.511 . S
C498 H512 0.961 . S
C498 H513 0.961 . S
C498 H514 0.961 . S
C499 C500 1.370 . S
C499 C501 1.363 . S
C499 H515 0.931 . S
C500 C499 1.370 . S
C500 C504 1.408 . S
C501 C499 1.363 . S
C501 C502 1.370 . S
C501 C505 1.524 . S
C502 C494 1.503 . S
C502 C501 1.370 . S
C502 C503 1.403 . S
C503 C502 1.403 . S
C503 C504 1.404 . S
C503 C506 1.539 . S
C504 C500 1.408 . S
C504 C503 1.404 . S
C504 H516 0.930 . S
C505 C501 1.524 . S
C505 H517 0.956 . S
C505 H518 0.961 . S
C505 H519 0.961 . S
C506 C503 1.539 . S
C506 H520 0.958 . S
C506 H521 0.961 . S
C506 H522 0.960 . S
H507 C491 0.931 . S
H508 C496 0.929 . S
H509 C497 0.960 . S
H510 C497 0.962 . S
H511 C497 0.960 . S
H512 C498 0.961 . S
H513 C498 0.961 . S
H514 C498 0.961 . S
H515 C499 0.931 . S
H516 C504 0.930 . S
H517 C505 0.956 . S
H518 C505 0.961 . S
H519 C505 0.961 . S
H520 C506 0.958 . S
H521 C506 0.961 . S
H522 C506 0.960 . S
C523 C524 1.391 . S
C523 C525 1.394 . S
C523 H539 0.931 . S
C524 C523 1.391 . S
C524 C528 1.376 . S
C525 C523 1.394 . S
C525 C526 1.369 . S
C525 C529 1.531 . S
C526 C525 1.369 . S
C526 C527 1.410 . S
C526 C534 1.503 . S
C527 C526 1.410 . S
C527 C528 1.392 . S
C527 C530 1.511 . S
C528 C524 1.376 . S
C528 C527 1.392 . S
C528 H540 0.929 . S
C529 C525 1.531 . S
C529 H541 0.960 . S
C529 H542 0.962 . S
C529 H543 0.960 . S
C530 C527 1.511 . S
C530 H544 0.961 . S
C530 H545 0.961 . S
C530 H546 0.961 . S
C531 C532 1.370 . S
C531 C533 1.363 . S
C531 H547 0.931 . S
C532 C531 1.370 . S
C532 C536 1.408 . S
C533 C531 1.363 . S
C533 C534 1.370 . S
C533 C537 1.524 . S
C534 C526 1.503 . S
C534 C533 1.370 . S
C534 C535 1.403 . S
C535 C534 1.403 . S
C535 C536 1.404 . S
C535 C538 1.539 . S
C536 C532 1.408 . S
C536 C535 1.404 . S
C536 H548 0.930 . S
C537 C533 1.524 . S
C537 H549 0.956 . S
C537 H550 0.961 . S
C537 H551 0.961 . S
C538 C535 1.539 . S
C538 H552 0.958 . S
C538 H553 0.961 . S
C538 H554 0.960 . S
H539 C523 0.931 . S
H540 C528 0.929 . S
H541 C529 0.960 . S
H542 C529 0.962 . S
H543 C529 0.960 . S
H544 C530 0.961 . S
H545 C530 0.961 . S
H546 C530 0.961 . S
H547 C531 0.931 . S
H548 C536 0.930 . S
H549 C537 0.956 . S
H550 C537 0.961 . S
H551 C537 0.961 . S
H552 C538 0.958 . S
H553 C538 0.961 . S
H554 C538 0.960 . S
C555 C556 1.391 . S
C555 C557 1.394 . S
C555 H571 0.931 . S
C556 C555 1.391 . S
C556 C560 1.376 . S
C557 C555 1.394 . S
C557 C558 1.369 . S
C557 C561 1.531 . S
C558 C557 1.369 . S
C558 C559 1.410 . S
C558 C566 1.503 . S
C559 C558 1.410 . S
C559 C560 1.392 . S
C559 C562 1.511 . S
C560 C556 1.376 . S
C560 C559 1.392 . S
C560 H572 0.929 . S
C561 C557 1.531 . S
C561 H573 0.960 . S
C561 H574 0.962 . S
C561 H575 0.960 . S
C562 C559 1.511 . S
C562 H576 0.961 . S
C562 H577 0.961 . S
C562 H578 0.961 . S
C563 C564 1.370 . S
C563 C565 1.363 . S
C563 H579 0.931 . S
C564 C563 1.370 . S
C564 C568 1.408 . S
C565 C563 1.363 . S
C565 C566 1.370 . S
C565 C569 1.524 . S
C566 C558 1.503 . S
C566 C565 1.370 . S
C566 C567 1.403 . S
C567 C566 1.403 . S
C567 C568 1.404 . S
C567 C570 1.539 . S
C568 C564 1.408 . S
C568 C567 1.404 . S
C568 H580 0.930 . S
C569 C565 1.524 . S
C569 H581 0.956 . S
C569 H582 0.961 . S
C569 H583 0.961 . S
C570 C567 1.539 . S
C570 H584 0.958 . S
C570 H585 0.961 . S
C570 H586 0.960 . S
H571 C555 0.931 . S
H572 C560 0.929 . S
H573 C561 0.960 . S
H574 C561 0.962 . S
H575 C561 0.960 . S
H576 C562 0.961 . S
H577 C562 0.961 . S
H578 C562 0.961 . S
H579 C563 0.931 . S
H580 C568 0.930 . S
H581 C569 0.956 . S
H582 C569 0.961 . S
H583 C569 0.961 . S
H584 C570 0.958 . S
H585 C570 0.961 . S
H586 C570 0.960 . S
C587 C588 1.391 . S
C587 C589 1.394 . S
C587 H603 0.931 . S
C588 C587 1.391 . S
C588 C592 1.376 . S
C589 C587 1.394 . S
C589 C590 1.369 . S
C589 C593 1.531 . S
C590 C589 1.369 . S
C590 C591 1.410 . S
C590 C598 1.503 . S
C591 C590 1.410 . S
C591 C592 1.392 . S
C591 C594 1.511 . S
C592 C588 1.376 . S
C592 C591 1.392 . S
C592 H604 0.929 . S
C593 C589 1.531 . S
C593 H605 0.960 . S
C593 H606 0.962 . S
C593 H607 0.960 . S
C594 C591 1.511 . S
C594 H608 0.961 . S
C594 H609 0.961 . S
C594 H610 0.961 . S
C595 C596 1.370 . S
C595 C597 1.363 . S
C595 H611 0.931 . S
C596 C595 1.370 . S
C596 C600 1.408 . S
C597 C595 1.363 . S
C597 C598 1.370 . S
C597 C601 1.524 . S
C598 C590 1.503 . S
C598 C597 1.370 . S
C598 C599 1.403 . S
C599 C598 1.403 . S
C599 C600 1.404 . S
C599 C602 1.539 . S
C600 C596 1.408 . S
C600 C599 1.404 . S
C600 H612 0.930 . S
C601 C597 1.524 . S
C601 H613 0.956 . S
C601 H614 0.961 . S
C601 H615 0.961 . S
C602 C599 1.539 . S
C602 H616 0.958 . S
C602 H617 0.961 . S
C602 H618 0.960 . S
H603 C587 0.931 . S
H604 C592 0.929 . S
H605 C593 0.960 . S
H606 C593 0.962 . S
H607 C593 0.960 . S
H608 C594 0.961 . S
H609 C594 0.961 . S
H610 C594 0.961 . S
H611 C595 0.931 . S
H612 C600 0.930 . S
H613 C601 0.956 . S
H614 C601 0.961 . S
H615 C601 0.961 . S
H616 C602 0.958 . S
H617 C602 0.961 . S
H618 C602 0.960 . S
C619 C620 1.391 . S
C619 C621 1.394 . S
C619 H635 0.931 . S
C620 C619 1.391 . S
C620 C624 1.376 . S
C621 C619 1.394 . S
C621 C622 1.369 . S
C621 C625 1.531 . S
C622 C621 1.369 . S
C622 C623 1.410 . S
C622 C630 1.503 . S
C623 C622 1.410 . S
C623 C624 1.392 . S
C623 C626 1.511 . S
C624 C620 1.376 . S
C624 C623 1.392 . S
C624 H636 0.929 . S
C625 C621 1.531 . S
C625 H637 0.960 . S
C625 H638 0.962 . S
C625 H639 0.960 . S
C626 C623 1.511 . S
C626 H640 0.961 . S
C626 H641 0.961 . S
C626 H642 0.961 . S
C627 C628 1.370 . S
C627 C629 1.363 . S
C627 H643 0.931 . S
C628 C627 1.370 . S
C628 C632 1.408 . S
C629 C627 1.363 . S
C629 C630 1.370 . S
C629 C633 1.524 . S
C630 C622 1.503 . S
C630 C629 1.370 . S
C630 C631 1.403 . S
C631 C630 1.403 . S
C631 C632 1.404 . S
C631 C634 1.539 . S
C632 C628 1.408 . S
C632 C631 1.404 . S
C632 H644 0.930 . S
C633 C629 1.524 . S
C633 H645 0.956 . S
C633 H646 0.961 . S
C633 H647 0.961 . S
C634 C631 1.539 . S
C634 H648 0.958 . S
C634 H649 0.961 . S
C634 H650 0.960 . S
H635 C619 0.931 . S
H636 C624 0.929 . S
H637 C625 0.960 . S
H638 C625 0.962 . S
H639 C625 0.960 . S
H640 C626 0.961 . S
H641 C626 0.961 . S
H642 C626 0.961 . S
H643 C627 0.931 . S
H644 C632 0.930 . S
H645 C633 0.956 . S
H646 C633 0.961 . S
H647 C633 0.961 . S
H648 C634 0.958 . S
H649 C634 0.961 . S
H650 C634 0.960 . S
C651 C652 1.391 . S
C651 C653 1.394 . S
C651 H667 0.931 . S
C652 C651 1.391 . S
C652 C656 1.376 . S
C653 C651 1.394 . S
C653 C654 1.369 . S
C653 C657 1.531 . S
C654 C653 1.369 . S
C654 C655 1.410 . S
C654 C662 1.503 . S
C655 C654 1.410 . S
C655 C656 1.392 . S
C655 C658 1.511 . S
C656 C652 1.376 . S
C656 C655 1.392 . S
C656 H668 0.929 . S
C657 C653 1.531 . S
C657 H669 0.960 . S
C657 H670 0.962 . S
C657 H671 0.960 . S
C658 C655 1.511 . S
C658 H672 0.961 . S
C658 H673 0.961 . S
C658 H674 0.961 . S
C659 C660 1.370 . S
C659 C661 1.363 . S
C659 H675 0.931 . S
C660 C659 1.370 . S
C660 C664 1.408 . S
C661 C659 1.363 . S
C661 C662 1.370 . S
C661 C665 1.524 . S
C662 C654 1.503 . S
C662 C661 1.370 . S
C662 C663 1.403 . S
C663 C662 1.403 . S
C663 C664 1.404 . S
C663 C666 1.539 . S
C664 C660 1.408 . S
C664 C663 1.404 . S
C664 H676 0.930 . S
C665 C661 1.524 . S
C665 H677 0.956 . S
C665 H678 0.961 . S
C665 H679 0.961 . S
C666 C663 1.539 . S
C666 H680 0.958 . S
C666 H681 0.961 . S
C666 H682 0.960 . S
H667 C651 0.931 . S
H668 C656 0.929 . S
H669 C657 0.960 . S
H670 C657 0.962 . S
H671 C657 0.960 . S
H672 C658 0.961 . S
H673 C658 0.961 . S
H674 C658 0.961 . S
H675 C659 0.931 . S
H676 C664 0.930 . S
H677 C665 0.956 . S
H678 C665 0.961 . S
H679 C665 0.961 . S
H680 C666 0.958 . S
H681 C666 0.961 . S
H682 C666 0.960 . S
C683 C684 1.391 . S
C683 C685 1.394 . S
C683 H699 0.931 . S
C684 C683 1.391 . S
C684 C688 1.376 . S
C685 C683 1.394 . S
C685 C686 1.369 . S
C685 C689 1.531 . S
C686 C685 1.369 . S
C686 C687 1.410 . S
C686 C694 1.503 . S
C687 C686 1.410 . S
C687 C688 1.392 . S
C687 C690 1.511 . S
C688 C684 1.376 . S
C688 C687 1.392 . S
C688 H700 0.929 . S
C689 C685 1.531 . S
C689 H701 0.960 . S
C689 H702 0.962 . S
C689 H703 0.960 . S
C690 C687 1.511 . S
C690 H704 0.961 . S
C690 H705 0.961 . S
C690 H706 0.961 . S
C691 C692 1.370 . S
C691 C693 1.363 . S
C691 H707 0.931 . S
C692 C691 1.370 . S
C692 C696 1.408 . S
C693 C691 1.363 . S
C693 C694 1.370 . S
C693 C697 1.524 . S
C694 C686 1.503 . S
C694 C693 1.370 . S
C694 C695 1.403 . S
C695 C694 1.403 . S
C695 C696 1.404 . S
C695 C698 1.539 . S
C696 C692 1.408 . S
C696 C695 1.404 . S
C696 H708 0.930 . S
C697 C693 1.524 . S
C697 H709 0.956 . S
C697 H710 0.961 . S
C697 H711 0.961 . S
C698 C695 1.539 . S
C698 H712 0.958 . S
C698 H713 0.961 . S
C698 H714 0.960 . S
H699 C683 0.931 . S
H700 C688 0.929 . S
H701 C689 0.960 . S
H702 C689 0.962 . S
H703 C689 0.960 . S
H704 C690 0.961 . S
H705 C690 0.961 . S
H706 C690 0.961 . S
H707 C691 0.931 . S
H708 C696 0.930 . S
H709 C697 0.956 . S
H710 C697 0.961 . S
H711 C697 0.961 . S
H712 C698 0.958 . S
H713 C698 0.961 . S
H714 C698 0.960 . S
C715 C716 1.391 . S
C715 C717 1.394 . S
C715 H731 0.931 . S
C716 C715 1.391 . S
C716 C720 1.376 . S
C717 C715 1.394 . S
C717 C718 1.369 . S
C717 C721 1.531 . S
C718 C717 1.369 . S
C718 C719 1.410 . S
C718 C726 1.503 . S
C719 C718 1.410 . S
C719 C720 1.392 . S
C719 C722 1.511 . S
C720 C716 1.376 . S
C720 C719 1.392 . S
C720 H732 0.929 . S
C721 C717 1.531 . S
C721 H733 0.960 . S
C721 H734 0.962 . S
C721 H735 0.960 . S
C722 C719 1.511 . S
C722 H736 0.961 . S
C722 H737 0.961 . S
C722 H738 0.961 . S
C723 C724 1.370 . S
C723 C725 1.363 . S
C723 H739 0.931 . S
C724 C723 1.370 . S
C724 C728 1.408 . S
C725 C723 1.363 . S
C725 C726 1.370 . S
C725 C729 1.524 . S
C726 C718 1.503 . S
C726 C725 1.370 . S
C726 C727 1.403 . S
C727 C726 1.403 . S
C727 C728 1.404 . S
C727 C730 1.539 . S
C728 C724 1.408 . S
C728 C727 1.404 . S
C728 H740 0.930 . S
C729 C725 1.524 . S
C729 H741 0.956 . S
C729 H742 0.961 . S
C729 H743 0.961 . S
C730 C727 1.539 . S
C730 H744 0.958 . S
C730 H745 0.961 . S
C730 H746 0.960 . S
H731 C715 0.931 . S
H732 C720 0.929 . S
H733 C721 0.960 . S
H734 C721 0.962 . S
H735 C721 0.960 . S
H736 C722 0.961 . S
H737 C722 0.961 . S
H738 C722 0.961 . S
H739 C723 0.931 . S
H740 C728 0.930 . S
H741 C729 0.956 . S
H742 C729 0.961 . S
H743 C729 0.961 . S
H744 C730 0.958 . S
H745 C730 0.961 . S
H746 C730 0.960 . S
C747 C748 1.391 . S
C747 C749 1.394 . S
C747 H763 0.931 . S
C748 C747 1.391 . S
C748 C752 1.376 . S
C749 C747 1.394 . S
C749 C750 1.369 . S
C749 C753 1.531 . S
C750 C749 1.369 . S
C750 C751 1.410 . S
C750 C758 1.503 . S
C751 C750 1.410 . S
C751 C752 1.392 . S
C751 C754 1.511 . S
C752 C748 1.376 . S
C752 C751 1.392 . S
C752 H764 0.929 . S
C753 C749 1.531 . S
C753 H765 0.960 . S
C753 H766 0.962 . S
C753 H767 0.960 . S
C754 C751 1.511 . S
C754 H768 0.961 . S
C754 H769 0.961 . S
C754 H770 0.961 . S
C755 C756 1.370 . S
C755 C757 1.363 . S
C755 H771 0.931 . S
C756 C755 1.370 . S
C756 C760 1.408 . S
C757 C755 1.363 . S
C757 C758 1.370 . S
C757 C761 1.524 . S
C758 C750 1.503 . S
C758 C757 1.370 . S
C758 C759 1.403 . S
C759 C758 1.403 . S
C759 C760 1.404 . S
C759 C762 1.539 . S
C760 C756 1.408 . S
C760 C759 1.404 . S
C760 H772 0.930 . S
C761 C757 1.524 . S
C761 H773 0.956 . S
C761 H774 0.961 . S
C761 H775 0.961 . S
C762 C759 1.539 . S
C762 H776 0.958 . S
C762 H777 0.961 . S
C762 H778 0.960 . S
H763 C747 0.931 . S
H764 C752 0.929 . S
H765 C753 0.960 . S
H766 C753 0.962 . S
H767 C753 0.960 . S
H768 C754 0.961 . S
H769 C754 0.961 . S
H770 C754 0.961 . S
H771 C755 0.931 . S
H772 C760 0.930 . S
H773 C761 0.956 . S
H774 C761 0.961 . S
H775 C761 0.961 . S
H776 C762 0.958 . S
H777 C762 0.961 . S
H778 C762 0.960 . S
C779 C780 1.391 . S
C779 C781 1.394 . S
C779 H795 0.931 . S
C780 C779 1.391 . S
C780 C784 1.376 . S
C781 C779 1.394 . S
C781 C782 1.369 . S
C781 C785 1.531 . S
C782 C781 1.369 . S
C782 C783 1.410 . S
C782 C790 1.503 . S
C783 C782 1.410 . S
C783 C784 1.392 . S
C783 C786 1.511 . S
C784 C780 1.376 . S
C784 C783 1.392 . S
C784 H796 0.929 . S
C785 C781 1.531 . S
C785 H797 0.960 . S
C785 H798 0.962 . S
C785 H799 0.960 . S
C786 C783 1.511 . S
C786 H800 0.961 . S
C786 H801 0.961 . S
C786 H802 0.961 . S
C787 C788 1.370 . S
C787 C789 1.363 . S
C787 H803 0.931 . S
C788 C787 1.370 . S
C788 C792 1.408 . S
C789 C787 1.363 . S
C789 C790 1.370 . S
C789 C793 1.524 . S
C790 C782 1.503 . S
C790 C789 1.370 . S
C790 C791 1.403 . S
C791 C790 1.403 . S
C791 C792 1.404 . S
C791 C794 1.539 . S
C792 C788 1.408 . S
C792 C791 1.404 . S
C792 H804 0.930 . S
C793 C789 1.524 . S
C793 H805 0.956 . S
C793 H806 0.961 . S
C793 H807 0.961 . S
C794 C791 1.539 . S
C794 H808 0.958 . S
C794 H809 0.961 . S
C794 H810 0.960 . S
H795 C779 0.931 . S
H796 C784 0.929 . S
H797 C785 0.960 . S
H798 C785 0.962 . S
H799 C785 0.960 . S
H800 C786 0.961 . S
H801 C786 0.961 . S
H802 C786 0.961 . S
H803 C787 0.931 . S
H804 C792 0.930 . S
H805 C793 0.956 . S
H806 C793 0.961 . S
H807 C793 0.961 . S
H808 C794 0.958 . S
H809 C794 0.961 . S
H810 C794 0.960 . S
C811 C812 1.391 . S
C811 C813 1.394 . S
C811 H827 0.931 . S
C812 C811 1.391 . S
C812 C816 1.376 . S
C813 C811 1.394 . S
C813 C814 1.369 . S
C813 C817 1.531 . S
C814 C813 1.369 . S
C814 C815 1.410 . S
C814 C822 1.503 . S
C815 C814 1.410 . S
C815 C816 1.392 . S
C815 C818 1.511 . S
C816 C812 1.376 . S
C816 C815 1.392 . S
C816 H828 0.929 . S
C817 C813 1.531 . S
C817 H829 0.960 . S
C817 H830 0.962 . S
C817 H831 0.960 . S
C818 C815 1.511 . S
C818 H832 0.961 . S
C818 H833 0.961 . S
C818 H834 0.961 . S
C819 C820 1.370 . S
C819 C821 1.363 . S
C819 H835 0.931 . S
C820 C819 1.370 . S
C820 C824 1.408 . S
C821 C819 1.363 . S
C821 C822 1.370 . S
C821 C825 1.524 . S
C822 C814 1.503 . S
C822 C821 1.370 . S
C822 C823 1.403 . S
C823 C822 1.403 . S
C823 C824 1.404 . S
C823 C826 1.539 . S
C824 C820 1.408 . S
C824 C823 1.404 . S
C824 H836 0.930 . S
C825 C821 1.524 . S
C825 H837 0.956 . S
C825 H838 0.961 . S
C825 H839 0.961 . S
C826 C823 1.539 . S
C826 H840 0.958 . S
C826 H841 0.961 . S
C826 H842 0.960 . S
H827 C811 0.931 . S
H828 C816 0.929 . S
H829 C817 0.960 . S
H830 C817 0.962 . S
H831 C817 0.960 . S
H832 C818 0.961 . S
H833 C818 0.961 . S
H834 C818 0.961 . S
H835 C819 0.931 . S
H836 C824 0.930 . S
H837 C825 0.956 . S
H838 C825 0.961 . S
H839 C825 0.961 . S
H840 C826 0.958 . S
H841 C826 0.961 . S
H842 C826 0.960 . S
C843 C844 1.391 . S
C843 C845 1.394 . S
C843 H859 0.931 . S
C844 C843 1.391 . S
C844 C848 1.376 . S
C845 C843 1.394 . S
C845 C846 1.369 . S
C845 C849 1.531 . S
C846 C845 1.369 . S
C846 C847 1.410 . S
C846 C854 1.503 . S
C847 C846 1.410 . S
C847 C848 1.392 . S
C847 C850 1.511 . S
C848 C844 1.376 . S
C848 C847 1.392 . S
C848 H860 0.929 . S
C849 C845 1.531 . S
C849 H861 0.960 . S
C849 H862 0.962 . S
C849 H863 0.960 . S
C850 C847 1.511 . S
C850 H864 0.961 . S
C850 H865 0.961 . S
C850 H866 0.961 . S
C851 C852 1.370 . S
C851 C853 1.363 . S
C851 H867 0.931 . S
C852 C851 1.370 . S
C852 C856 1.408 . S
C853 C851 1.363 . S
C853 C854 1.370 . S
C853 C857 1.524 . S
C854 C846 1.503 . S
C854 C853 1.370 . S
C854 C855 1.403 . S
C855 C854 1.403 . S
C855 C856 1.404 . S
C855 C858 1.539 . S
C856 C852 1.408 . S
C856 C855 1.404 . S
C856 H868 0.930 . S
C857 C853 1.524 . S
C857 H869 0.956 . S
C857 H870 0.961 . S
C857 H871 0.961 . S
C858 C855 1.539 . S
C858 H872 0.958 . S
C858 H873 0.961 . S
C858 H874 0.960 . S
H859 C843 0.931 . S
H860 C848 0.929 . S
H861 C849 0.960 . S
H862 C849 0.962 . S
H863 C849 0.960 . S
H864 C850 0.961 . S
H865 C850 0.961 . S
H866 C850 0.961 . S
H867 C851 0.931 . S
H868 C856 0.930 . S
H869 C857 0.956 . S
H870 C857 0.961 . S
H871 C857 0.961 . S
H872 C858 0.958 . S
H873 C858 0.961 . S
H874 C858 0.960 . S
C875 C876 1.391 . S
C875 C877 1.394 . S
C875 H891 0.931 . S
C876 C875 1.391 . S
C876 C880 1.376 . S
C877 C875 1.394 . S
C877 C878 1.369 . S
C877 C881 1.531 . S
C878 C877 1.369 . S
C878 C879 1.410 . S
C878 C886 1.503 . S
C879 C878 1.410 . S
C879 C880 1.392 . S
C879 C882 1.511 . S
C880 C876 1.376 . S
C880 C879 1.392 . S
C880 H892 0.929 . S
C881 C877 1.531 . S
C881 H893 0.960 . S
C881 H894 0.962 . S
C881 H895 0.960 . S
C882 C879 1.511 . S
C882 H896 0.961 . S
C882 H897 0.961 . S
C882 H898 0.961 . S
C883 C884 1.370 . S
C883 C885 1.363 . S
C883 H899 0.931 . S
C884 C883 1.370 . S
C884 C888 1.408 . S
C885 C883 1.363 . S
C885 C886 1.370 . S
C885 C889 1.524 . S
C886 C878 1.503 . S
C886 C885 1.370 . S
C886 C887 1.403 . S
C887 C886 1.403 . S
C887 C888 1.404 . S
C887 C890 1.539 . S
C888 C884 1.408 . S
C888 C887 1.404 . S
C888 H900 0.930 . S
C889 C885 1.524 . S
C889 H901 0.956 . S
C889 H902 0.961 . S
C889 H903 0.961 . S
C890 C887 1.539 . S
C890 H904 0.958 . S
C890 H905 0.961 . S
C890 H906 0.960 . S
H891 C875 0.931 . S
H892 C880 0.929 . S
H893 C881 0.960 . S
H894 C881 0.962 . S
H895 C881 0.960 . S
H896 C882 0.961 . S
H897 C882 0.961 . S
H898 C882 0.961 . S
H899 C883 0.931 . S
H900 C888 0.930 . S
H901 C889 0.956 . S
H902 C889 0.961 . S
H903 C889 0.961 . S
H904 C890 0.958 . S
H905 C890 0.961 . S
H906 C890 0.960 . S
C907 C908 1.391 . S
C907 C909 1.394 . S
C907 H923 0.931 . S
C908 C907 1.391 . S
C908 C912 1.376 . S
C909 C907 1.394 . S
C909 C910 1.369 . S
C909 C913 1.531 . S
C910 C909 1.369 . S
C910 C911 1.410 . S
C910 C918 1.503 . S
C911 C910 1.410 . S
C911 C912 1.392 . S
C911 C914 1.511 . S
C912 C908 1.376 . S
C912 C911 1.392 . S
C912 H924 0.929 . S
C913 C909 1.531 . S
C913 H925 0.960 . S
C913 H926 0.962 . S
C913 H927 0.960 . S
C914 C911 1.511 . S
C914 H928 0.961 . S
C914 H929 0.961 . S
C914 H930 0.961 . S
C915 C916 1.370 . S
C915 C917 1.363 . S
C915 H931 0.931 . S
C916 C915 1.370 . S
C916 C920 1.408 . S
C917 C915 1.363 . S
C917 C918 1.370 . S
C917 C921 1.524 . S
C918 C910 1.503 . S
C918 C917 1.370 . S
C918 C919 1.403 . S
C919 C918 1.403 . S
C919 C920 1.404 . S
C919 C922 1.539 . S
C920 C916 1.408 . S
C920 C919 1.404 . S
C920 H932 0.930 . S
C921 C917 1.524 . S
C921 H933 0.956 . S
C921 H934 0.961 . S
C921 H935 0.961 . S
C922 C919 1.539 . S
C922 H936 0.958 . S
C922 H937 0.961 . S
C922 H938 0.960 . S
H923 C907 0.931 . S
H924 C912 0.929 . S
H925 C913 0.960 . S
H926 C913 0.962 . S
H927 C913 0.960 . S
H928 C914 0.961 . S
H929 C914 0.961 . S
H930 C914 0.961 . S
H931 C915 0.931 . S
H932 C920 0.930 . S
H933 C921 0.956 . S
H934 C921 0.961 . S
H935 C921 0.961 . S
H936 C922 0.958 . S
H937 C922 0.961 . S
H938 C922 0.960 . S
C180 C96 1.170 . S
C172 C4 1.219 . S
C212 C132 1.609 . S
C204 C13 1.704 . S
C244 C97 1.324 . S
C236 C25 1.341 . S
C276 C127 1.454 . S
C268 C32 1.512 . S
C308 C94 1.430 . S
C300 C41 1.500 . S
C332 C52 1.561 . S
C340 C130 1.573 . S
C364 C61 1.234 . S
C372 C99 1.151 . S
C404 C129 1.366 . S
C396 C67 1.407 . S
C436 C133 1.344 . S
C428 C7 1.395 . S
C468 C98 1.435 . S
C460 C14 1.516 . S
C500 C126 1.600 . S
C492 C22 1.584 . S
C532 C95 1.150 . S
C524 C31 1.243 . S
C564 C128 1.581 . S
C556 C40 1.688 . S
C588 C49 1.352 . S
C596 C93 1.329 . S
C620 C59 1.527 . S
C628 C131 1.471 . S
C660 C100 1.124 . S
C652 C70 1.201 . S
C692 C162 1.594 . S
C684 C5 1.688 . S
C716 C43 1.926 . S
C724 C165 1.804 . S
C756 C164 1.547 . S
C748 C50 1.621 . S
C780 C58 1.926 . S
C788 C163 1.921 . S
C820 C166 1.595 . S
C812 C68 1.685 . S
C844 C23 1.606 . S
C852 C160 1.555 . S
C884 C159 1.892 . S
C876 C34 1.911 . S
C908 C16 1.955 . S
C916 C161 1.804 . S
