# Generated by pormake.
# Topology wbl, (4,4)-cn, num edge types: 1
# Building blocks:
#     Node 0, Type 0, BuildingBlock: MIFKUJ_clean_linker_1, # of connection points: 4
#     Node 1, Type 0, BuildingBlock: MIFKUJ_clean_linker_1, # of connection points: 4
#     Node 2, Type 0, BuildingBlock: MIFKUJ_clean_linker_1, # of connection points: 4
#     Node 3, Type 0, BuildingBlock: MIFKUJ_clean_linker_1, # of connection points: 4
#     Node 4, Type 0, BuildingBlock: MIFKUJ_clean_linker_1, # of connection points: 4
#     Node 5, Type 0, BuildingBlock: MIFKUJ_clean_linker_1, # of connection points: 4
#     Node 6, Type 0, BuildingBlock: MIFKUJ_clean_linker_1, # of connection points: 4
#     Node 7, Type 0, BuildingBlock: MIFKUJ_clean_linker_1, # of connection points: 4
#     Node 8, Type 1, BuildingBlock: CEKHIL_clean_sbu_0, # of connection points: 4
#     Node 9, Type 1, BuildingBlock: CEKHIL_clean_sbu_0, # of connection points: 4
#     Node 10, Type 1, BuildingBlock: CEKHIL_clean_sbu_0, # of connection points: 4
#     Node 11, Type 1, BuildingBlock: CEKHIL_clean_sbu_0, # of connection points: 4
#     Node 12, Type 1, BuildingBlock: CEKHIL_clean_sbu_0, # of connection points: 4
#     Node 13, Type 1, BuildingBlock: CEKHIL_clean_sbu_0, # of connection points: 4
#     Node 14, Type 1, BuildingBlock: CEKHIL_clean_sbu_0, # of connection points: 4
#     Node 15, Type 1, BuildingBlock: CEKHIL_clean_sbu_0, # of connection points: 4
#     Edge 16, Type (0, 1), BuildingBlock: TEMPAE_clean_linker_10, # of connection points: 2
#     Edge 17, Type (0, 1), BuildingBlock: TEMPAE_clean_linker_10, # of connection points: 2
#     Edge 18, Type (0, 1), BuildingBlock: TEMPAE_clean_linker_10, # of connection points: 2
#     Edge 19, Type (0, 1), BuildingBlock: TEMPAE_clean_linker_10, # of connection points: 2
#     Edge 20, Type (0, 1), BuildingBlock: TEMPAE_clean_linker_10, # of connection points: 2
#     Edge 21, Type (0, 1), BuildingBlock: TEMPAE_clean_linker_10, # of connection points: 2
#     Edge 22, Type (0, 1), BuildingBlock: TEMPAE_clean_linker_10, # of connection points: 2
#     Edge 23, Type (0, 1), BuildingBlock: TEMPAE_clean_linker_10, # of connection points: 2
#     Edge 24, Type (0, 1), BuildingBlock: TEMPAE_clean_linker_10, # of connection points: 2
#     Edge 25, Type (0, 1), BuildingBlock: TEMPAE_clean_linker_10, # of connection points: 2
#     Edge 26, Type (0, 1), BuildingBlock: TEMPAE_clean_linker_10, # of connection points: 2
#     Edge 27, Type (0, 1), BuildingBlock: TEMPAE_clean_linker_10, # of connection points: 2
#     Edge 28, Type (0, 1), BuildingBlock: TEMPAE_clean_linker_10, # of connection points: 2
#     Edge 29, Type (0, 1), BuildingBlock: TEMPAE_clean_linker_10, # of connection points: 2
#     Edge 30, Type (0, 1), BuildingBlock: TEMPAE_clean_linker_10, # of connection points: 2
#     Edge 31, Type (0, 1), BuildingBlock: TEMPAE_clean_linker_10, # of connection points: 2
#     Edge 32, Type (0, 1), BuildingBlock: TEMPAE_clean_linker_10, # of connection points: 2
#     Edge 33, Type (0, 1), BuildingBlock: TEMPAE_clean_linker_10, # of connection points: 2
#     Edge 34, Type (0, 1), BuildingBlock: TEMPAE_clean_linker_10, # of connection points: 2
#     Edge 35, Type (0, 1), BuildingBlock: TEMPAE_clean_linker_10, # of connection points: 2
#     Edge 36, Type (0, 1), BuildingBlock: TEMPAE_clean_linker_10, # of connection points: 2
#     Edge 37, Type (0, 1), BuildingBlock: TEMPAE_clean_linker_10, # of connection points: 2
#     Edge 38, Type (0, 1), BuildingBlock: TEMPAE_clean_linker_10, # of connection points: 2
#     Edge 39, Type (0, 1), BuildingBlock: TEMPAE_clean_linker_10, # of connection points: 2
#     Edge 40, Type (0, 1), BuildingBlock: TEMPAE_clean_linker_10, # of connection points: 2
#     Edge 41, Type (0, 1), BuildingBlock: TEMPAE_clean_linker_10, # of connection points: 2
#     Edge 42, Type (0, 1), BuildingBlock: TEMPAE_clean_linker_10, # of connection points: 2
#     Edge 43, Type (0, 1), BuildingBlock: TEMPAE_clean_linker_10, # of connection points: 2
#     Edge 44, Type (0, 1), BuildingBlock: TEMPAE_clean_linker_10, # of connection points: 2
#     Edge 45, Type (0, 1), BuildingBlock: TEMPAE_clean_linker_10, # of connection points: 2
#     Edge 46, Type (0, 1), BuildingBlock: TEMPAE_clean_linker_10, # of connection points: 2
#     Edge 47, Type (0, 1), BuildingBlock: TEMPAE_clean_linker_10, # of connection points: 2
# Relax obj value: 0.158
# Max RMSD: 0.158
# Mean RMSD: 0.137
data_MOF--net-wbl--node1-CEKHIL_clean_sbu_0--node2-MIFKUJ_clean_linker_1--edge1-TEMPAE_clean_linker_10
_symmetry_space_group_name_H-M    P1
_symmetry_Int_Tables_number       1
_symmetry_cell_setting            triclinic
loop_
_symmetry_equiv_pos_as_xyz
'x, y, z'
_cell_length_a     46.27971
_cell_length_b     46.474791
_cell_length_c     75.828862
_cell_angle_alpha  90.375991
_cell_angle_beta   90.111423
_cell_angle_gamma 89.979084
loop_
_atom_site_label
_atom_site_type_symbol
_atom_site_fract_x
_atom_site_fract_y
_atom_site_fract_z
_atom_type_partial_charge
H0 H 0.00918 0.09366 0.33603 0.0
H1 H 0.97669 0.12331 0.35389 0.0
H2 H 0.91365 0.05456 0.35326 0.0
H3 H 0.94576 0.02588 0.33453 0.0
H4 H 0.01762 0.02254 0.34882 0.0
H5 H 0.99729 0.09549 0.30213 0.0
H6 H 0.95632 0.12231 0.28995 0.0
H7 H 0.91653 0.0422 0.27388 0.0
H8 H 0.95731 0.01563 0.28624 0.0
H9 H 0.03283 0.95554 0.28558 0.0
H10 H 0.07088 0.92228 0.27558 0.0
H11 H 0.13519 0.97619 0.30065 0.0
H12 H 0.09735 0.00893 0.31063 0.0
H13 H 0.02152 0.01751 0.28337 0.0
H14 H 0.03886 0.94421 0.32538 0.0
H15 H 0.06652 0.91167 0.34419 0.0
H16 H 0.10306 0.98487 0.37168 0.0
H17 H 0.07597 0.01731 0.35246 0.0
C18 C 0.97974 0.05772 0.33402 0.0
C19 C 0.9881 0.08531 0.3395 0.0
C20 C 0.96957 0.1021 0.34981 0.0
C21 C 0.94262 0.09125 0.35523 0.0
C22 C 0.93401 0.06383 0.34919 0.0
C23 C 0.95241 0.04726 0.33862 0.0
C24 C 0.0004 0.03906 0.32455 0.0
C25 C 0.01886 0.02177 0.33454 0.0
C26 C 0.00101 0.03728 0.30595 0.0
C27 C 0.98 0.05362 0.29529 0.0
C28 C 0.97994 0.08381 0.29569 0.0
C29 C 0.95658 0.09907 0.28875 0.0
C30 C 0.93315 0.08432 0.28111 0.0
C31 C 0.9344 0.05417 0.27954 0.0
C32 C 0.95765 0.03894 0.2866 0.0
C33 C 0.06236 0.9845 0.29893 0.0
C34 C 0.05522 0.9604 0.28856 0.0
C35 C 0.07689 0.9414 0.28296 0.0
C36 C 0.10589 0.94635 0.28768 0.0
C37 C 0.11297 0.97142 0.2972 0.0
C38 C 0.09143 0.9903 0.30274 0.0
C39 C 0.03971 0.0018 0.30772 0.0
C40 C 0.02068 0.0186 0.29766 0.0
C41 C 0.03815 0.00278 0.32634 0.0
C42 C 0.05551 0.98317 0.33748 0.0
C43 C 0.0532 0.95323 0.33527 0.0
C44 C 0.06887 0.93467 0.34609 0.0
C45 C 0.08702 0.94571 0.35937 0.0
C46 C 0.08961 0.97572 0.36138 0.0
C47 C 0.07391 0.99427 0.35056 0.0
H48 H 0.00673 0.44609 0.54758 0.0
H49 H 0.98325 0.40302 0.53542 0.0
H50 H 0.90086 0.44666 0.53684 0.0
H51 H 0.9245 0.48965 0.54902 0.0
H52 H 0.00513 0.51159 0.53816 0.0
H53 H 0.9829 0.44145 0.58643 0.0
H54 H 0.9513 0.40992 0.60339 0.0
H55 H 0.88633 0.47687 0.60483 0.0
H56 H 0.91875 0.50859 0.58851 0.0
H57 H 0.98596 0.57872 0.60238 0.0
H58 H 0.01285 0.6085 0.62348 0.0
H59 H 0.09228 0.56724 0.60714 0.0
H60 H 0.06537 0.53838 0.58577 0.0
H61 H 0.98222 0.51969 0.60202 0.0
H62 H 0.00503 0.59255 0.56265 0.0
H63 H 0.03762 0.62976 0.55206 0.0
H64 H 0.09568 0.56445 0.53219 0.0
H65 H 0.06282 0.52689 0.54309 0.0
C66 C 0.96733 0.47098 0.54907 0.0
C67 C 0.98376 0.4466 0.5448 0.0
C68 C 0.97029 0.42197 0.53807 0.0
C69 C 0.94022 0.42148 0.53537 0.0
C70 C 0.92407 0.44653 0.53871 0.0
C71 C 0.93753 0.47106 0.5456 0.0
C72 C 0.9804 0.49429 0.55973 0.0
C73 C 0.0003 0.51331 0.55212 0.0
C74 C 0.97336 0.49719 0.57774 0.0
C75 C 0.95315 0.47731 0.58644 0.0
C76 C 0.96172 0.44912 0.59029 0.0
C77 C 0.94349 0.43107 0.59983 0.0
C78 C 0.91629 0.44091 0.60559 0.0
C79 C 0.90732 0.46879 0.6009 0.0
C80 C 0.92573 0.48692 0.59155 0.0
C81 C 0.02368 0.55637 0.59254 0.0
C82 C 0.00921 0.57639 0.60325 0.0
C83 C 0.02463 0.59332 0.61533 0.0
C84 C 0.05476 0.5902 0.61711 0.0
C85 C 0.06921 0.57062 0.60596 0.0
C86 C 0.05382 0.55393 0.59379 0.0
C87 C 0.0073 0.53687 0.58063 0.0
C88 C 0.98686 0.51836 0.58801 0.0
C89 C 0.01335 0.53504 0.56237 0.0
C90 C 0.03174 0.55699 0.55388 0.0
C91 C 0.02473 0.58617 0.55598 0.0
C92 C 0.04343 0.6074 0.55002 0.0
C93 C 0.06943 0.59993 0.54165 0.0
C94 C 0.07582 0.57071 0.53871 0.0
C95 C 0.05707 0.54932 0.54483 0.0
H96 H 0.49891 0.56681 0.85271 0.0
H97 H 0.46691 0.5938 0.87235 0.0
H98 H 0.39418 0.54385 0.85374 0.0
H99 H 0.42649 0.51704 0.83375 0.0
H100 H 0.50446 0.50468 0.8545 0.0
H101 H 0.47378 0.58037 0.8165 0.0
H102 H 0.43468 0.60734 0.80326 0.0
H103 H 0.41526 0.53453 0.76932 0.0
H104 H 0.45194 0.50646 0.78445 0.0
H105 H 0.51891 0.44243 0.79011 0.0
H106 H 0.55776 0.41178 0.7783 0.0
H107 H 0.62117 0.46852 0.80185 0.0
H108 H 0.58251 0.49863 0.81365 0.0
H109 H 0.50617 0.50584 0.78904 0.0
H110 H 0.52949 0.42936 0.82953 0.0
H111 H 0.56187 0.39864 0.84672 0.0
H112 H 0.59589 0.47392 0.87328 0.0
H113 H 0.56397 0.50451 0.85577 0.0
C114 C 0.46501 0.54003 0.84181 0.0
C115 C 0.47601 0.56197 0.85266 0.0
C116 C 0.45769 0.5775 0.86375 0.0
C117 C 0.42807 0.57102 0.86444 0.0
C118 C 0.41693 0.54929 0.85337 0.0
C119 C 0.43528 0.53403 0.842 0.0
C120 C 0.4852 0.52251 0.83112 0.0
C121 C 0.50486 0.50509 0.8402 0.0
C122 C 0.48531 0.52274 0.81242 0.0
C123 C 0.46488 0.54084 0.80218 0.0
C124 C 0.46067 0.56996 0.80649 0.0
C125 C 0.43862 0.5857 0.7985 0.0
C126 C 0.42108 0.57308 0.78537 0.0
C127 C 0.42738 0.54475 0.77985 0.0
C128 C 0.44874 0.5287 0.78833 0.0
C129 C 0.54797 0.47259 0.80281 0.0
C130 C 0.54122 0.44846 0.79238 0.0
C131 C 0.56336 0.43096 0.78574 0.0
C132 C 0.59242 0.43747 0.78949 0.0
C133 C 0.59896 0.46257 0.79913 0.0
C134 C 0.57695 0.47996 0.80571 0.0
C135 C 0.52521 0.48827 0.81252 0.0
C136 C 0.50534 0.50536 0.80333 0.0
C137 C 0.52464 0.4878 0.83112 0.0
C138 C 0.54441 0.46919 0.84138 0.0
C139 C 0.5442 0.43923 0.83891 0.0
C140 C 0.56261 0.42171 0.84876 0.0
C141 C 0.58151 0.43389 0.86127 0.0
C142 C 0.58192 0.46395 0.86353 0.0
C143 C 0.56346 0.48143 0.85371 0.0
H144 H 0.4968 0.96129 0.03692 0.0
H145 H 0.47448 0.92058 0.02178 0.0
H146 H 0.39367 0.93931 0.04815 0.0
H147 H 0.41528 0.98175 0.06143 0.0
H148 H 0.49213 0.01719 0.03958 0.0
H149 H 0.48336 0.94032 0.08662 0.0
H150 H 0.45771 0.907 0.10592 0.0
H151 H 0.39134 0.97125 0.11435 0.0
H152 H 0.41826 0.00486 0.09606 0.0
H153 H 0.48489 0.0759 0.10669 0.0
H154 H 0.51406 0.10411 0.12738 0.0
H155 H 0.59161 0.06582 0.10578 0.0
H156 H 0.56225 0.03871 0.08464 0.0
H157 H 0.48378 0.016 0.10483 0.0
H158 H 0.50274 0.09508 0.06937 0.0
H159 H 0.53365 0.13197 0.05727 0.0
H160 H 0.57583 0.06801 0.0245 0.0
H161 H 0.54648 0.03053 0.03816 0.0
C162 C 0.45804 0.97399 0.05087 0.0
C163 C 0.47406 0.95704 0.03905 0.0
C164 C 0.46131 0.93342 0.0306 0.0
C165 C 0.4324 0.92585 0.0341 0.0
C166 C 0.41592 0.94418 0.04501 0.0
C167 C 0.42847 0.96827 0.05299 0.0
C168 C 0.47274 0.99615 0.0619 0.0
C169 C 0.49051 0.01678 0.05384 0.0
C170 C 0.47003 0.99636 0.08048 0.0
C171 C 0.45268 0.97496 0.09007 0.0
C172 C 0.46313 0.94698 0.09255 0.0
C173 C 0.44828 0.92791 0.10347 0.0
C174 C 0.42255 0.93649 0.11191 0.0
C175 C 0.41144 0.96412 0.10849 0.0
C176 C 0.42664 0.98332 0.09794 0.0
C177 C 0.52143 0.05521 0.0942 0.0
C178 C 0.50821 0.0739 0.10631 0.0
C179 C 0.52493 0.08991 0.11817 0.0
C180 C 0.55523 0.08706 0.1184 0.0
C181 C 0.56842 0.0689 0.10585 0.0
C182 C 0.55167 0.0532 0.09383 0.0
C183 C 0.50356 0.03659 0.08259 0.0
C184 C 0.4853 0.01658 0.09055 0.0
C185 C 0.5057 0.03726 0.06398 0.0
C186 C 0.52275 0.05989 0.05504 0.0
C187 C 0.51895 0.08886 0.05978 0.0
C188 C 0.53638 0.11011 0.05256 0.0
C189 C 0.55735 0.10313 0.03981 0.0
C190 C 0.56034 0.07417 0.03452 0.0
C191 C 0.54329 0.05273 0.04213 0.0
H192 H 0.00623 0.58539 0.90948 0.0
H193 H 0.0364 0.61842 0.89254 0.0
H194 H 0.10332 0.55354 0.88971 0.0
H195 H 0.07333 0.5212 0.90725 0.0
H196 H 0.99583 0.51975 0.89479 0.0
H197 H 0.02447 0.58025 0.94859 0.0
H198 H 0.0672 0.60504 0.96046 0.0
H199 H 0.11507 0.52531 0.95812 0.0
H200 H 0.07226 0.50068 0.94636 0.0
H201 H 0.98871 0.44684 0.95779 0.0
H202 H 0.95103 0.4161 0.97077 0.0
H203 H 0.88535 0.46923 0.94695 0.0
H204 H 0.92258 0.50012 0.93453 0.0
H205 H 0.00454 0.50256 0.95918 0.0
H206 H 0.97039 0.43837 0.91589 0.0
H207 H 0.93917 0.41097 0.89602 0.0
H208 H 0.91133 0.49018 0.87166 0.0
H209 H 0.94111 0.5175 0.89233 0.0
C210 C 0.03759 0.55094 0.90942 0.0
C211 C 0.02756 0.57854 0.90535 0.0
C212 C 0.04479 0.59729 0.89564 0.0
C213 C 0.0722 0.58856 0.88962 0.0
C214 C 0.08251 0.56113 0.8943 0.0
C215 C 0.06534 0.5425 0.90416 0.0
C216 C 0.01852 0.53058 0.91863 0.0
C217 C 0.99726 0.51619 0.90889 0.0
C218 C 0.02169 0.52502 0.93675 0.0
C219 C 0.0453 0.53867 0.94682 0.0
C220 C 0.04398 0.56804 0.9511 0.0
C221 C 0.06834 0.58214 0.9578 0.0
C222 C 0.0944 0.56708 0.96005 0.0
C223 C 0.09528 0.53742 0.95634 0.0
C224 C 0.07084 0.52329 0.94983 0.0
C225 C 0.95841 0.47539 0.94491 0.0
C226 C 0.96618 0.45205 0.95562 0.0
C227 C 0.94476 0.4345 0.96294 0.0
C228 C 0.91549 0.44008 0.95948 0.0
C229 C 0.90785 0.46419 0.94946 0.0
C230 C 0.92908 0.48182 0.94239 0.0
C231 C 0.9805 0.49239 0.93547 0.0
C232 C 0.00262 0.50606 0.9451 0.0
C233 C 0.97851 0.49665 0.917 0.0
C234 C 0.95807 0.48007 0.90568 0.0
C235 C 0.95698 0.4499 0.90659 0.0
C236 C 0.93932 0.43421 0.89507 0.0
C237 C 0.92281 0.4483 0.88214 0.0
C238 C 0.92337 0.47856 0.88159 0.0
C239 C 0.94074 0.49425 0.89326 0.0
H240 H 0.50244 0.55234 0.20002 0.0
H241 H 0.48164 0.59647 0.2126 0.0
H242 H 0.39699 0.55757 0.21166 0.0
H243 H 0.4178 0.51358 0.19871 0.0
H244 H 0.49864 0.48922 0.20989 0.0
H245 H 0.47786 0.55743 0.1626 0.0
H246 H 0.44914 0.59042 0.14478 0.0
H247 H 0.38254 0.52558 0.13968 0.0
H248 H 0.41207 0.49239 0.15701 0.0
H249 H 0.47608 0.41764 0.14774 0.0
H250 H 0.50223 0.3855 0.12759 0.0
H251 H 0.58245 0.4271 0.14214 0.0
H252 H 0.55632 0.45849 0.16241 0.0
H253 H 0.47321 0.47722 0.14657 0.0
H254 H 0.49936 0.4061 0.18758 0.0
H255 H 0.53419 0.37095 0.19836 0.0
H256 H 0.59038 0.43978 0.21563 0.0
H257 H 0.5554 0.47521 0.20448 0.0
C258 C 0.46162 0.52983 0.19851 0.0
C259 C 0.47953 0.5531 0.2029 0.0
C260 C 0.46765 0.57826 0.20994 0.0
C261 C 0.43779 0.58024 0.21299 0.0
C262 C 0.42009 0.55637 0.20949 0.0
C263 C 0.43192 0.53135 0.20215 0.0
C264 C 0.47344 0.50552 0.18819 0.0
C265 C 0.49312 0.48655 0.19606 0.0
C266 C 0.46582 0.50177 0.17029 0.0
C267 C 0.44704 0.52253 0.16104 0.0
C268 C 0.45688 0.55053 0.15782 0.0
C269 C 0.44031 0.56942 0.14773 0.0
C270 C 0.41353 0.56065 0.1407 0.0
C271 C 0.40327 0.53288 0.14461 0.0
C272 C 0.42001 0.51392 0.15456 0.0
C273 C 0.51427 0.44036 0.15659 0.0
C274 C 0.49933 0.41956 0.14667 0.0
C275 C 0.51432 0.40124 0.13518 0.0
C276 C 0.54448 0.40365 0.13326 0.0
C277 C 0.55936 0.42416 0.14353 0.0
C278 C 0.54441 0.44232 0.15505 0.0
C279 C 0.49851 0.46084 0.16816 0.0
C280 C 0.47821 0.47932 0.1605 0.0
C281 C 0.50548 0.46398 0.18625 0.0
C282 C 0.525 0.44323 0.195 0.0
C283 C 0.51912 0.41369 0.19373 0.0
C284 C 0.53908 0.39364 0.19979 0.0
C285 C 0.56518 0.40272 0.20748 0.0
C286 C 0.57045 0.43231 0.20965 0.0
C287 C 0.55048 0.45248 0.20339 0.0
H288 H 0.50236 0.93941 0.40128 0.0
H289 H 0.47065 0.91115 0.38217 0.0
H290 H 0.3963 0.95465 0.40414 0.0
H291 H 0.42845 0.98324 0.42324 0.0
H292 H 0.50562 -0.00013 0.40004 0.0
H293 H 0.48461 0.92429 0.44218 0.0
H294 H 0.44612 0.89494 0.45493 0.0
H295 H 0.40876 0.97132 0.4784 0.0
H296 H 0.44729 0.00042 0.46569 0.0
H297 H 0.52219 0.06288 0.46533 0.0
H298 H 0.56179 0.09351 0.47657 0.0
H299 H 0.62356 0.03962 0.4494 0.0
H300 H 0.58444 0.0091 0.43858 0.0
H301 H 0.50877 0.00108 0.46554 0.0
H302 H 0.52922 0.07667 0.42408 0.0
H303 H 0.55958 0.10784 0.40588 0.0
H304 H 0.59485 0.03282 0.37976 0.0
H305 H 0.56472 0.00181 0.39808 0.0
C306 C 0.46776 0.96341 0.41362 0.0
C307 C 0.47921 0.94259 0.40215 0.0
C308 C 0.46102 0.92626 0.39137 0.0
C309 C 0.43094 0.93058 0.39172 0.0
C310 C 0.41939 0.95091 0.40358 0.0
C311 C 0.43768 0.96716 0.41451 0.0
C312 C 0.48764 0.98222 0.42379 0.0
C313 C 0.50644 -5e-05 0.41435 0.0
C314 C 0.48816 0.98288 0.44244 0.0
C315 C 0.46844 0.96455 0.45278 0.0
C316 C 0.4684 0.93457 0.45036 0.0
C317 C 0.44641 0.91786 0.45761 0.0
C318 C 0.42428 0.93086 0.46752 0.0
C319 C 0.42565 0.96061 0.47098 0.0
C320 C 0.4476 0.97731 0.46369 0.0
C321 C 0.55046 0.034 0.45097 0.0
C322 C 0.54434 0.0574 0.46216 0.0
C323 C 0.56685 0.0749 0.46847 0.0
C324 C 0.59552 0.06917 0.46349 0.0
C325 C 0.60155 0.0448 0.45311 0.0
C326 C 0.57927 0.02729 0.44702 0.0
C327 C 0.52716 0.01819 0.44169 0.0
C328 C 0.50779 0.00109 0.45125 0.0
C329 C 0.52594 0.0181 0.42306 0.0
C330 C 0.54475 0.03696 0.41238 0.0
C331 C 0.54372 0.06698 0.41454 0.0
C332 C 0.56099 0.08473 0.40415 0.0
C333 C 0.57965 0.07272 0.39149 0.0
C334 C 0.58099 0.04264 0.38959 0.0
C335 C 0.56357 0.02493 0.39989 0.0
H336 H 0.99522 0.05983 0.71061 0.0
H337 H 0.96932 0.09987 0.72444 0.0
H338 H 0.88898 0.06773 0.70289 0.0
H339 H 0.91506 0.02777 0.68903 0.0
H340 H 0.99344 0.00013 0.71022 0.0
H341 H 0.97712 0.07843 0.66952 0.0
H342 H 0.95225 0.11344 0.65079 0.0
H343 H 0.90198 0.04456 0.62754 0.0
H344 H 0.92632 0.01 0.64651 0.0
H345 H 0.98298 0.93749 0.64557 0.0
H346 H 0.01051 0.90611 0.62577 0.0
H347 H 0.08984 0.9457 0.64392 0.0
H348 H 0.06216 0.9761 0.66413 0.0
H349 H 0.98415 -0.00071 0.64494 0.0
H350 H 0.99713 0.9221 0.68541 0.0
H351 H 0.02895 0.88434 0.69636 0.0
H352 H 0.08699 0.94886 0.71737 0.0
H353 H 0.05479 0.98682 0.70629 0.0
C354 C 0.95711 0.0412 0.69856 0.0
C355 C 0.97194 0.06102 0.70925 0.0
C356 C 0.95709 0.08383 0.71718 0.0
C357 C 0.92716 0.08707 0.71458 0.0
C358 C 0.9121 0.06599 0.7049 0.0
C359 C 0.92695 0.04318 0.697 0.0
C360 C 0.97337 0.02022 0.6877 0.0
C361 C 0.99156 0.00016 0.69596 0.0
C362 C 0.97069 0.01991 0.6691 0.0
C363 C 0.95352 0.04162 0.65939 0.0
C364 C 0.96023 0.07104 0.66068 0.0
C365 C 0.94613 0.09098 0.64992 0.0
C366 C 0.92513 0.0818 0.63769 0.0
C367 C 0.91768 0.05246 0.63701 0.0
C368 C 0.93178 0.0326 0.64771 0.0
C369 C 0.02057 0.95913 0.65621 0.0
C370 C 0.00633 0.93912 0.64537 0.0
C371 C 0.02211 0.92127 0.63405 0.0
C372 C 0.05242 0.92349 0.63313 0.0
C373 C 0.06662 0.94304 0.64445 0.0
C374 C 0.05082 0.96064 0.65591 0.0
C375 C 0.00376 0.9792 0.66743 0.0
C376 C 0.98574 -0.00078 0.65923 0.0
C377 C 0.00652 0.97946 0.68598 0.0
C378 C 0.0238 0.95716 0.69493 0.0
C379 C 0.01656 0.92812 0.69253 0.0
C380 C 0.03486 0.90661 0.69865 0.0
C381 C 0.0607 0.91372 0.7074 0.0
C382 C 0.06723 0.94284 0.71062 0.0
C383 C 0.04886 0.96447 0.70439 0.0
Co384 Co 0.32573 0.67255 0.00787 0.0
O385 O 0.30146 0.63925 0.00557 0.0
O386 O 0.28965 0.68311 0.99679 0.0
C387 C 0.33884 0.66395 0.03597 0.0
O388 O 0.34438 0.71228 0.00877 0.0
Co389 Co 0.3915 0.66712 0.01518 0.0
O390 O 0.38789 0.70828 0.02182 0.0
C391 C 0.36829 0.6537 0.97966 0.0
C392 C 0.28248 0.6562 -0.00152 0.0
C393 C 0.36693 0.7233 0.01609 0.0
O394 O 0.34349 0.66391 0.98414 0.0
O395 O 0.38942 0.65129 0.9905 0.0
O396 O 0.31439 0.67658 0.03262 0.0
O397 O 0.35327 0.6553 0.0224 0.0
Co398 Co 0.33323 0.8304 0.24627 0.0
O399 O 0.30834 0.8633 0.24766 0.0
O400 O 0.29649 0.81946 0.25637 0.0
C401 C 0.34811 0.83798 0.21844 0.0
O402 O 0.35281 0.7911 0.24601 0.0
Co403 Co 0.39934 0.83877 0.2412 0.0
O404 O 0.39991 0.79634 0.2392 0.0
C405 C 0.37256 0.85283 0.27537 0.0
C406 C 0.28909 0.84625 0.25432 0.0
C407 C 0.37799 0.78072 0.24254 0.0
O408 O 0.34919 0.83999 0.27048 0.0
O409 O 0.39387 0.85697 0.26495 0.0
O410 O 0.32357 0.82532 0.22133 0.0
O411 O 0.36127 0.84782 0.23223 0.0
Co412 Co 0.17106 0.82845 0.49339 0.0
O413 O 0.13917 0.80246 0.49607 0.0
O414 O 0.18478 0.79206 0.50231 0.0
C415 C 0.15844 0.84405 0.46638 0.0
O416 O 0.20988 0.84889 0.49158 0.0
Co417 Co 0.16186 0.89431 0.48909 0.0
O418 O 0.20285 0.89388 0.4818 0.0
C419 C 0.15538 0.86765 0.52418 0.0
C420 C 0.15795 0.78379 0.50158 0.0
C421 C 0.21946 0.87295 0.48562 0.0
O422 O 0.16464 0.84336 0.51818 0.0
O423 O 0.15122 0.88973 0.51449 0.0
O424 O 0.17252 0.82001 0.46807 0.0
O425 O 0.15074 0.8564 0.48091 0.0
Co426 Co 0.17319 0.68986 0.75661 0.0
O427 O 0.13981 0.71395 0.75391 0.0
O428 O 0.18439 0.72605 0.74631 0.0
C429 C 0.16305 0.67609 0.78432 0.0
O430 O 0.2131 0.67149 0.75805 0.0
Co431 Co 0.16813 0.62416 0.76304 0.0
O432 O 0.20839 0.62879 0.77151 0.0
C433 C 0.15749 0.64754 0.7274 0.0
C434 C 0.15724 0.73305 0.74745 0.0
C435 C 0.22377 0.64957 0.76602 0.0
O436 O 0.16592 0.67264 0.7325 0.0
O437 O 0.15541 0.62599 0.73777 0.0
O438 O 0.17571 0.70061 0.78157 0.0
O439 O 0.15522 0.66198 0.77039 0.0
Co440 Co 0.84144 0.18602 0.49085 0.0
O441 O 0.87342 0.2122 0.4922 0.0
O442 O 0.82907 0.22199 0.50142 0.0
C443 C 0.84965 0.17167 0.46283 0.0
O444 O 0.80279 0.16488 0.49073 0.0
Co445 Co 0.85246 0.12059 0.48495 0.0
O446 O 0.81002 0.11908 0.48196 0.0
C447 C 0.86407 0.14681 0.51976 0.0
C448 C 0.85558 0.23053 0.49918 0.0
C449 C 0.79333 0.13978 0.48627 0.0
O450 O 0.85165 0.17026 0.51487 0.0
O451 O 0.86873 0.12566 0.50924 0.0
O452 O 0.83588 0.19555 0.46591 0.0
O453 O 0.86 0.15896 0.47652 0.0
Co454 Co 0.82253 0.33863 0.73909 0.0
O455 O 0.79525 0.36953 0.74089 0.0
O456 O 0.78754 0.32505 0.75014 0.0
C457 C 0.83512 0.3468 0.71093 0.0
O458 O 0.84504 0.301 0.73873 0.0
Co459 Co 0.88753 0.35134 0.73221 0.0
O460 O 0.88992 0.30915 0.72862 0.0
C461 C 0.86178 0.36494 0.76677 0.0
C462 C 0.77793 0.35115 0.74815 0.0
C463 C 0.86991 0.29208 0.73342 0.0
O464 O 0.8393 0.34991 0.76277 0.0
O465 O 0.88198 0.37032 0.75577 0.0
O466 O 0.81175 0.3324 0.71436 0.0
O467 O 0.8483 0.35772 0.72439 0.0
Co468 Co 0.67515 0.32257 0.99364 0.0
O469 O 0.64489 0.29438 0.99343 0.0
O470 O 0.68985 0.28667 0.00265 0.0
C471 C 0.66583 0.33949 0.96643 0.0
O472 O 0.71259 0.34554 0.99476 0.0
Co473 Co 0.66189 0.38793 0.99074 0.0
O474 O 0.70397 0.39126 0.98686 0.0
C475 C 0.65151 0.35789 0.02432 0.0
C476 C 0.66396 0.27681 -0.00018 0.0
C477 C 0.7213 0.37092 0.99067 0.0
O478 O 0.66367 0.33496 0.01826 0.0
O479 O 0.64714 0.3804 0.01504 0.0
O480 O 0.68128 0.31632 0.96833 0.0
O481 O 0.65505 0.35013 0.98073 0.0
Co482 Co 0.67615 0.18036 0.25812 0.0
O483 O 0.64349 0.20527 0.25508 0.0
O484 O 0.68877 0.21694 0.24894 0.0
C485 C 0.66362 0.16515 0.2852 0.0
O486 O 0.71559 0.16116 0.26028 0.0
Co487 Co 0.66913 0.11446 0.2629 0.0
O488 O 0.70997 0.11631 0.27055 0.0
C489 C 0.6616 0.14014 0.22761 0.0
C490 C 0.66168 0.22438 0.24948 0.0
C491 C 0.72591 0.13763 0.26657 0.0
O492 O 0.67028 0.16474 0.23345 0.0
O493 O 0.65814 0.11812 0.23745 0.0
O494 O 0.67714 0.18946 0.28336 0.0
O495 O 0.65654 0.15212 0.27076 0.0
C496 C 0.1313 0.91403 0.26609 0.0
C497 C 0.12895 0.92544 0.28318 0.0
C498 C 0.15524 0.89714 0.26127 0.0
C499 C 0.17722 0.89168 0.27385 0.0
C500 C 0.1739 0.90155 0.29142 0.0
C501 C 0.14978 0.91824 0.29587 0.0
C502 C 0.15789 0.88673 0.24245 0.0
C503 C 0.19675 0.89613 0.30525 0.0
C504 C 0.23821 0.83867 0.26476 0.0
C505 C 0.26017 0.85725 0.25914 0.0
C506 C 0.21074 0.84939 0.26925 0.0
C507 C 0.20535 0.87932 0.26819 0.0
C508 C 0.22742 0.89807 0.26241 0.0
C509 C 0.25448 0.8868 0.25792 0.0
C510 C 0.18761 0.82879 0.27526 0.0
C511 C 0.22263 0.93017 0.26121 0.0
H512 H 0.1152 0.91947 0.25626 0.0
H513 H 0.14762 0.92644 0.30922 0.0
H514 H 0.17471 0.89945 0.2356 0.0
H515 H 0.16473 0.86385 0.24203 0.0
H516 H 0.13725 0.88896 0.23507 0.0
H517 H 0.18938 0.90233 0.31869 0.0
H518 H 0.20302 0.8731 0.30533 0.0
H519 H 0.2164 0.90877 0.30211 0.0
H520 H 0.24246 0.81579 0.26564 0.0
H521 H 0.27133 0.90131 0.25357 0.0
H522 H 0.16792 0.83133 0.26705 0.0
H523 H 0.18146 0.83381 0.28907 0.0
H524 H 0.1948 0.80601 0.27452 0.0
H525 H 0.20403 0.93477 0.25242 0.0
H526 H 0.24188 0.94169 0.25611 0.0
H527 H 0.21732 0.93903 0.27444 0.0
C528 C 0.10033 0.62388 0.51897 0.0
C529 C 0.0895 0.623 0.5362 0.0
C530 C 0.11561 0.64804 0.51301 0.0
C531 C 0.1201 0.67167 0.5246 0.0
C532 C 0.11102 0.66988 0.54237 0.0
C533 C 0.09582 0.64556 0.54794 0.0
C534 C 0.12517 0.64909 0.49401 0.0
C535 C 0.11557 0.69447 0.5552 0.0
C536 C 0.16908 0.73435 0.51283 0.0
C537 C 0.14887 0.75461 0.50687 0.0
C538 C 0.16023 0.70685 0.51823 0.0
C539 C 0.13053 0.69964 0.5177 0.0
C540 C 0.11016 0.71987 0.51142 0.0
C541 C 0.11958 0.74706 0.50608 0.0
C542 C 0.18252 0.68576 0.52482 0.0
C543 C 0.07825 0.71304 0.51069 0.0
H544 H 0.09549 0.60642 0.50989 0.0
H545 H 0.08794 0.6446 0.56139 0.0
H546 H 0.11105 0.66413 0.48664 0.0
H547 H 0.14762 0.65729 0.49305 0.0
H548 H 0.12402 0.62761 0.48752 0.0
H549 H 0.11039 0.68833 0.56897 0.0
H550 H 0.13825 0.70212 0.55473 0.0
H551 H 0.10151 0.7128 0.55145 0.0
H552 H 0.19177 0.74004 0.51341 0.0
H553 H 0.10384 0.76256 0.50144 0.0
H554 H 0.18057 0.66502 0.51759 0.0
H555 H 0.1787 0.68125 0.53897 0.0
H556 H 0.20492 0.69397 0.52329 0.0
H557 H 0.07453 0.69322 0.50278 0.0
H558 H 0.06538 0.73079 0.50486 0.0
H559 H 0.07008 0.70894 0.52419 0.0
C560 C 0.36979 0.57264 0.77455 0.0
C561 C 0.39484 0.58834 0.77875 0.0
C562 C 0.34381 0.58651 0.77046 0.0
C563 C 0.34237 0.61689 0.77121 0.0
C564 C 0.36767 0.63303 0.77467 0.0
C565 C 0.39372 0.61857 0.7781 0.0
C566 C 0.31744 0.56848 0.76634 0.0
C567 C 0.36689 0.66546 0.77584 0.0
C568 C 0.2729 0.64801 0.75286 0.0
C569 C 0.25521 0.64684 0.76778 0.0
C570 C 0.30208 0.63983 0.75387 0.0
C571 C 0.31368 0.63112 0.77029 0.0
C572 C 0.29633 0.63233 0.78564 0.0
C573 C 0.26709 0.63964 0.78413 0.0
C574 C 0.31967 0.63823 0.73715 0.0
C575 C 0.30812 0.62409 0.8035 0.0
H576 H 0.36988 0.54939 0.77526 0.0
H577 H 0.41299 0.63107 0.7808 0.0
H578 H 0.30217 0.56953 0.77759 0.0
H579 H 0.30604 0.57692 0.75457 0.0
H580 H 0.32302 0.54555 0.76389 0.0
H581 H 0.38891 0.67496 0.77622 0.0
H582 H 0.3549 0.67465 0.76452 0.0
H583 H 0.3553 0.67202 0.78802 0.0
H584 H 0.26346 0.65338 0.7402 0.0
H585 H 0.25325 0.63895 0.79565 0.0
H586 H 0.32208 0.61536 0.73312 0.0
H587 H 0.34167 0.64702 0.73929 0.0
H588 H 0.30923 0.65008 0.72617 0.0
H589 H 0.31151 0.60047 0.80394 0.0
H590 H 0.29321 0.63023 0.81436 0.0
H591 H 0.32935 0.63453 0.80587 0.0
C592 C 0.43824 0.87342 0.02669 0.0
C593 C 0.42031 0.89776 0.02784 0.0
C594 C 0.42692 0.84615 0.02279 0.0
C595 C 0.39676 0.84279 0.02057 0.0
C596 C 0.37856 0.86724 0.0211 0.0
C597 C 0.3906 0.89448 0.02445 0.0
C598 C 0.4472 0.82069 0.0219 0.0
C599 C 0.34622 0.86444 0.01905 0.0
C600 C 0.37284 0.77076 0.00167 0.0
C601 C 0.3698 0.75468 0.01709 0.0
C602 C 0.38048 0.79999 0.00252 0.0
C603 C 0.38438 0.81334 0.01921 0.0
C604 C 0.37939 0.79747 0.0348 0.0
C605 C 0.37269 0.76812 0.03354 0.0
C606 C 0.38634 0.81594 0.98563 0.0
C607 C 0.38251 0.8111 0.05284 0.0
H608 H 0.46109 0.87526 0.02957 0.0
H609 H 0.37653 0.9131 0.02484 0.0
H610 H 0.44368 0.80668 0.03349 0.0
H611 H 0.44281 0.8076 0.00991 0.0
H612 H 0.47025 0.82737 0.02178 0.0
H613 H 0.33536 0.88571 0.01818 0.0
H614 H 0.34081 0.85166 0.0071 0.0
H615 H 0.33731 0.85277 0.03055 0.0
H616 H 0.37088 0.76006 0.98897 0.0
H617 H 0.37029 0.75547 0.04542 0.0
H618 H 0.40991 0.81982 0.98441 0.0
H619 H 0.37555 0.83724 0.98575 0.0
H620 H 0.37896 0.80367 0.97383 0.0
H621 H 0.40562 0.81577 0.0555 0.0
H622 H 0.37431 0.79692 0.06345 0.0
H623 H 0.37066 0.83185 0.05341 0.0
C624 C 0.12116 0.60092 0.98002 0.0
C625 C 0.12105 0.58245 0.96534 0.0
C626 C 0.14665 0.61483 0.98539 0.0
C627 C 0.17241 0.6104 0.97569 0.0
C628 C 0.17213 0.59247 0.96053 0.0
C629 C 0.14646 0.57857 0.9556 0.0
C630 C 0.14623 0.63356 0.00173 0.0
C631 C 0.19906 0.58752 0.9497 0.0
C632 C 0.23592 0.66136 0.98191 0.0
C633 C 0.25399 0.64513 0.99288 0.0
C634 C 0.20911 0.65046 0.97628 0.0
C635 C 0.20012 0.62293 0.98198 0.0
C636 C 0.21808 0.60674 0.99333 0.0
C637 C 0.24487 0.61796 -0.00147 0.0
C638 C 0.19064 0.66813 0.96399 0.0
C639 C 0.20911 0.57743 -0.00015 0.0
H640 H 0.10148 0.60387 0.98755 0.0
H641 H 0.14622 0.56468 0.94406 0.0
H642 H 0.16042 0.62406 0.01197 0.0
H643 H 0.15487 0.65524 -0.00127 0.0
H644 H 0.12414 0.63596 0.00726 0.0
H645 H 0.19472 0.57453 0.93763 0.0
H646 H 0.20857 0.6084 0.94574 0.0
H647 H 0.21548 0.57615 0.95775 0.0
H648 H 0.24294 0.68235 0.97749 0.0
H649 H 0.25866 0.60542 0.00713 0.0
H650 H 0.16894 0.6716 0.96982 0.0
H651 H 0.18749 0.65633 0.95137 0.0
H652 H 0.20042 0.68942 0.96112 0.0
H653 H 0.18783 0.57885 0.00651 0.0
H654 H 0.22503 0.56818 0.00922 0.0
H655 H 0.20666 0.56239 0.98853 0.0
C656 C 0.42942 0.63227 0.208 0.0
C657 C 0.425 0.60797 0.21844 0.0
C658 C 0.41828 0.6591 0.21302 0.0
C659 C 0.40285 0.66174 0.22906 0.0
C660 C 0.39782 0.63708 0.2395 0.0
C661 C 0.40875 0.61031 0.23394 0.0
C662 C 0.42366 0.68475 0.20134 0.0
C663 C 0.38185 0.63918 0.25679 0.0
C664 C 0.40818 0.73731 0.24734 0.0
C665 C 0.38198 0.74929 0.24175 0.0
C666 C 0.4143 0.70815 0.24446 0.0
C667 C 0.39402 0.69079 0.23532 0.0
C668 C 0.36689 0.70244 0.23042 0.0
C669 C 0.36104 0.73161 0.23389 0.0
C670 C 0.4432 0.6964 0.25027 0.0
C671 C 0.3449 0.68472 0.22043 0.0
H672 H 0.44166 0.63023 0.19588 0.0
H673 H 0.40538 0.59137 0.24195 0.0
H674 H 0.40303 0.69598 0.19847 0.0
H675 H 0.43798 0.70032 0.20824 0.0
H676 H 0.43395 0.67858 0.18864 0.0
H677 H 0.37788 0.61772 0.26268 0.0
H678 H 0.39463 0.65229 0.26628 0.0
H679 H 0.36082 0.65022 0.25494 0.0
H680 H 0.42425 0.75097 0.25361 0.0
H681 H 0.34083 0.74096 0.22949 0.0
H682 H 0.45691 0.69228 0.23854 0.0
H683 H 0.44037 0.67561 0.25717 0.0
H684 H 0.45483 0.71154 0.25918 0.0
H685 H 0.35281 0.68077 0.20682 0.0
H686 H 0.32361 0.69568 0.21963 0.0
H687 H 0.34193 0.66344 0.2267 0.0
C688 C 0.38462 0.919 0.4887 0.0
C689 C 0.39804 0.91443 0.47236 0.0
C690 C 0.357 0.90792 0.49206 0.0
C691 C 0.34252 0.89201 0.47873 0.0
C692 C 0.35691 0.88542 0.46276 0.0
C693 C 0.38451 0.89676 0.45976 0.0
C694 C 0.34247 0.91516 0.50934 0.0
C695 C 0.34226 0.86848 0.44823 0.0
C696 C 0.27077 0.85609 0.48924 0.0
C697 C 0.25104 0.87708 0.48357 0.0
C698 C 0.30072 0.86046 0.48771 0.0
C699 C 0.31106 0.88637 0.48033 0.0
C700 C 0.29127 0.90744 0.47441 0.0
C701 C 0.26158 0.90254 0.47611 0.0
C702 C 0.32127 0.83754 0.4941 0.0
C703 C 0.30144 0.93532 0.46637 0.0
H704 H 0.39521 0.93227 0.49858 0.0
H705 H 0.39464 0.89333 0.44703 0.0
H706 H 0.32544 0.93154 0.50706 0.0
H707 H 0.33183 0.89588 0.5149 0.0
H708 H 0.35799 0.92387 0.51922 0.0
H709 H 0.3578 0.86129 0.43796 0.0
H710 H 0.33113 0.84933 0.45362 0.0
H711 H 0.32562 0.88213 0.44186 0.0
H712 H 0.26287 0.83634 0.49502 0.0
H713 H 0.24661 0.91886 0.47159 0.0
H714 H 0.33516 0.84638 0.50477 0.0
H715 H 0.33577 0.83069 0.48322 0.0
H716 H 0.30976 0.81833 0.49917 0.0
H717 H 0.315 0.94735 0.47598 0.0
H718 H 0.28321 0.94936 0.46229 0.0
H719 H 0.31502 0.93078 0.45463 0.0
C720 C 0.08686 0.86796 0.70102 0.0
C721 C 0.0807 0.89052 0.71279 0.0
C722 C 0.10281 0.84398 0.70642 0.0
C723 C 0.11285 0.84256 0.72403 0.0
C724 C 0.10828 0.86609 0.73566 0.0
C725 C 0.09221 0.88988 0.72989 0.0
C726 C 0.10739 0.81943 0.69357 0.0
C727 C 0.11885 0.8654 0.7545 0.0
C728 C 0.11682 0.76758 0.74298 0.0
C729 C 0.1464 0.76141 0.74177 0.0
C730 C 0.10582 0.79414 0.73754 0.0
C731 C 0.12487 0.81511 0.73074 0.0
C732 C 0.15483 0.80924 0.72969 0.0
C733 C 0.16527 0.78236 0.7352 0.0
C734 C 0.07369 0.79955 0.73882 0.0
C735 C 0.17573 0.83117 0.72253 0.0
H736 H 0.07851 0.86875 0.68766 0.0
H737 H 0.0875 0.90733 0.739 0.0
H738 H 0.13038 0.81268 0.69351 0.0
H739 H 0.09438 0.80061 0.69772 0.0
H740 H 0.10098 0.82521 0.67992 0.0
H741 H 0.11698 0.88674 0.76108 0.0
H742 H 0.10593 0.84962 0.76205 0.0
H743 H 0.14173 0.85832 0.75505 0.0
H744 H 0.10211 0.75152 0.74808 0.0
H745 H 0.18818 0.77773 0.7343 0.0
H746 H 0.06462 0.80325 0.72547 0.0
H747 H 0.06951 0.81923 0.74678 0.0
H748 H 0.06196 0.78128 0.74489 0.0
H749 H 0.17055 0.83565 0.70852 0.0
H750 H 0.19852 0.82379 0.72338 0.0
H751 H 0.17359 0.85177 0.72989 0.0
C752 C 0.63867 0.41182 0.79553 0.0
C753 C 0.61615 0.41818 0.78378 0.0
C754 C 0.66327 0.3969 0.78988 0.0
C755 C 0.66531 0.38798 0.77205 0.0
C756 C 0.64174 0.39246 0.76044 0.0
C757 C 0.61737 0.4076 0.76645 0.0
C758 C 0.68787 0.39247 0.8027 0.0
C759 C 0.64301 0.38293 0.74139 0.0
C760 C 0.74088 0.38903 0.75322 0.0
C761 C 0.74874 0.35993 0.75389 0.0
C762 C 0.71359 0.39823 0.7588 0.0
C763 C 0.69351 0.37779 0.76511 0.0
C764 C 0.70104 0.34828 0.76553 0.0
C765 C 0.72871 0.33967 0.75998 0.0
C766 C 0.70649 0.42996 0.75828 0.0
C767 C 0.68002 0.32592 0.77203 0.0
H768 H 0.63742 0.41934 0.80908 0.0
H769 H 0.59994 0.41239 0.75736 0.0
H770 H 0.69561 0.3699 0.80215 0.0
H771 H 0.70627 0.40648 0.79901 0.0
H772 H 0.68157 0.39766 0.81649 0.0
H773 H 0.6215 0.38397 0.7349 0.0
H774 H 0.6581 0.39706 0.7341 0.0
H775 H 0.65137 0.36061 0.74032 0.0
H776 H 0.75625 0.40481 0.74852 0.0
H777 H 0.73464 0.31712 0.76042 0.0
H778 H 0.70202 0.43798 0.77182 0.0
H779 H 0.68672 0.43356 0.75031 0.0
H780 H 0.72432 0.44295 0.75263 0.0
H781 H 0.67519 0.32981 0.78617 0.0
H782 H 0.68854 0.30369 0.77049 0.0
H783 H 0.65929 0.32758 0.76473 0.0
C784 C 0.56493 0.15394 0.02994 0.0
C785 C 0.57604 0.12612 0.03235 0.0
C786 C 0.5826 0.1765 0.02435 0.0
C787 C 0.61191 0.17099 0.02029 0.0
C788 C 0.6231 0.14281 0.02193 0.0
C789 C 0.60515 0.12077 0.02821 0.0
C790 C 0.56989 0.20639 0.023 0.0
C791 C 0.65404 0.136 0.01719 0.0
C792 C 0.64176 0.23013 0.99177 0.0
C793 C 0.65573 0.24736 0.00432 0.0
C794 C 0.62968 0.20366 0.9965 0.0
C795 C 0.6305 0.19506 0.01437 0.0
C796 C 0.64578 0.21191 0.02694 0.0
C797 C 0.65868 0.23777 0.02166 0.0
C798 C 0.61452 0.18579 0.98259 0.0
C799 C 0.64643 0.20393 0.0462 0.0
H800 H 0.54233 0.15824 0.03254 0.0
H801 H 0.61414 0.09951 0.03017 0.0
H802 H 0.5828 0.22175 0.03105 0.0
H803 H 0.57069 0.2138 0.00914 0.0
H804 H 0.5471 0.20729 0.02754 0.0
H805 H 0.65878 0.11261 0.01794 0.0
H806 H 0.65878 0.1435 0.00364 0.0
H807 H 0.6689 0.1476 0.02626 0.0
H808 H 0.63968 0.23773 0.97833 0.0
H809 H 0.66929 0.25145 0.03134 0.0
H810 H 0.5908 0.18775 0.98426 0.0
H811 H 0.62019 0.16272 0.98398 0.0
H812 H 0.62012 0.19283 0.96905 0.0
H813 H 0.62452 0.20675 0.05189 0.0
H814 H 0.66181 0.21746 0.05388 0.0
H815 H 0.65248 0.18102 0.04782 0.0
C816 C 0.89057 0.0927 0.2614 0.0
C817 C 0.90601 0.09966 0.27676 0.0
C818 C 0.86245 0.10306 0.25876 0.0
C819 C 0.84948 0.12064 0.27186 0.0
C820 C 0.86572 0.1294 0.28678 0.0
C821 C 0.89384 0.11879 0.28905 0.0
C822 C 0.84591 0.09349 0.24258 0.0
C823 C 0.85268 0.1481 0.30105 0.0
C824 C 0.77672 0.15485 0.26161 0.0
C825 C 0.75761 0.13448 0.26865 0.0
C826 C 0.80679 0.15098 0.26276 0.0
C827 C 0.8179 0.12624 0.27119 0.0
C828 C 0.79874 0.10603 0.2787 0.0
C829 C 0.7689 0.11037 0.27732 0.0
C830 C 0.82664 0.17301 0.25468 0.0
C831 C 0.80975 0.07946 0.28795 0.0
H832 H 0.90009 0.0782 0.25178 0.0
H833 H 0.90558 0.12403 0.30104 0.0
H834 H 0.82903 0.07781 0.24644 0.0
H835 H 0.83483 0.11203 0.23639 0.0
H836 H 0.86017 0.08311 0.23262 0.0
H837 H 0.86934 0.15661 0.31028 0.0
H838 H 0.84076 0.16646 0.29524 0.0
H839 H 0.83696 0.13527 0.30874 0.0
H840 H 0.76823 0.17357 0.2549 0.0
H841 H 0.75439 0.09463 0.28296 0.0
H842 H 0.83903 0.16297 0.24374 0.0
H843 H 0.84255 0.18071 0.26459 0.0
H844 H 0.81465 0.19183 0.24944 0.0
H845 H 0.82219 0.0659 0.27856 0.0
H846 H 0.79198 0.06629 0.29352 0.0
H847 H 0.82461 0.08567 0.29882 0.0
C848 C 0.90521 0.39396 0.51647 0.0
C849 C 0.92557 0.39438 0.53017 0.0
C850 C 0.89163 0.36818 0.51136 0.0
C851 C 0.89835 0.3424 0.52035 0.0
C852 C 0.91829 0.34293 0.53453 0.0
C853 C 0.93177 0.36889 0.53921 0.0
C854 C 0.87073 0.36838 0.49606 0.0
C855 C 0.92576 0.31598 0.54459 0.0
C856 C 0.84959 0.2768 0.51596 0.0
C857 C 0.8654 0.25973 0.50412 0.0
C858 C 0.85981 0.30403 0.52123 0.0
C859 C 0.88614 0.31447 0.51424 0.0
C860 C 0.90168 0.29761 0.50188 0.0
C861 C 0.89125 0.27037 0.4971 0.0
C862 C 0.84287 0.32128 0.53462 0.0
C863 C 0.92963 0.30813 0.49393 0.0
H864 H 0.90042 0.41368 0.50949 0.0
H865 H 0.94709 0.36932 0.55004 0.0
H866 H 0.87943 0.35501 0.48511 0.0
H867 H 0.84981 0.35877 0.50002 0.0
H868 H 0.86671 0.39044 0.49106 0.0
H869 H 0.94023 0.32042 0.556 0.0
H870 H 0.90579 0.30555 0.54949 0.0
H871 H 0.93665 0.30037 0.53569 0.0
H872 H 0.82963 0.26859 0.52144 0.0
H873 H 0.90341 0.25736 0.4878 0.0
H874 H 0.83802 0.34299 0.52939 0.0
H875 H 0.85601 0.32429 0.54674 0.0
H876 H 0.82224 0.31066 0.53824 0.0
H877 H 0.92636 0.32951 0.48782 0.0
H878 H 0.93819 0.29309 0.48376 0.0
H879 H 0.94617 0.31075 0.50442 0.0
C880 C 0.63829 0.09835 0.4553 0.0
C881 C 0.61951 0.08862 0.46843 0.0
C882 C 0.66429 0.11202 0.45968 0.0
C883 C 0.67171 0.11589 0.47766 0.0
C884 C 0.65159 0.10843 0.49094 0.0
C885 C 0.62557 0.09483 0.48615 0.0
C886 C 0.6849 0.1199 0.44507 0.0
C887 C 0.65855 0.11257 0.51023 0.0
C888 C 0.75172 0.10581 0.4852 0.0
C889 C 0.76178 0.13426 0.48597 0.0
C890 C 0.72227 0.09969 0.48342 0.0
C891 C 0.7022 0.12259 0.48232 0.0
C892 C 0.71193 0.15138 0.48393 0.0
C893 C 0.74169 0.1569 0.48576 0.0
C894 C 0.71282 0.06863 0.48189 0.0
C895 C 0.69113 0.17632 0.48292 0.0
H896 H 0.63325 0.09396 0.44156 0.0
H897 H 0.61092 0.0874 0.49628 0.0
H898 H 0.6939 0.14174 0.44729 0.0
H899 H 0.70327 0.10454 0.44496 0.0
H900 H 0.67433 0.11923 0.4319 0.0
H901 H 0.63889 0.11117 0.51857 0.0
H902 H 0.67388 0.0956 0.51448 0.0
H903 H 0.6691 0.13368 0.51259 0.0
H904 H 0.76698 0.08812 0.48565 0.0
H905 H 0.74926 0.17895 0.48642 0.0
H906 H 0.70394 0.06449 0.46851 0.0
H907 H 0.69542 0.06407 0.49151 0.0
H908 H 0.73089 0.05337 0.48422 0.0
H909 H 0.68362 0.17883 0.46911 0.0
H910 H 0.70128 0.19684 0.48725 0.0
H911 H 0.67178 0.17227 0.49115 0.0
C912 C 0.91848 0.12675 0.73651 0.0
C913 C 0.91257 0.11406 0.72007 0.0
C914 C 0.9084 0.15448 0.7406 0.0
C915 C 0.8923 0.16986 0.72786 0.0
C916 C 0.88477 0.15643 0.71169 0.0
C917 C 0.89499 0.12867 0.708 0.0
C918 C 0.91652 0.16797 0.75807 0.0
C919 C 0.86777 0.17214 0.69772 0.0
C920 C 0.85532 0.24079 0.73884 0.0
C921 C 0.87574 0.26072 0.73273 0.0
C922 C 0.8606 0.21105 0.73775 0.0
C923 C 0.8868 0.2011 0.7303 0.0
C924 C 0.90763 0.22108 0.72437 0.0
C925 C 0.90188 0.25058 0.72569 0.0
C926 C 0.83802 0.19029 0.74431 0.0
C927 C 0.93582 0.21131 0.71627 0.0
H928 H 0.93178 0.11534 0.74595 0.0
H929 H 0.89063 0.11912 0.69519 0.0
H930 H 0.93322 0.18471 0.75594 0.0
H931 H 0.89755 0.17867 0.76417 0.0
H932 H 0.92528 0.15189 0.76746 0.0
H933 H 0.86076 0.15759 0.68684 0.0
H934 H 0.84839 0.18251 0.70354 0.0
H935 H 0.88134 0.18944 0.69204 0.0
H936 H 0.83511 0.24837 0.74437 0.0
H937 H 0.91784 0.2657 0.72094 0.0
H938 H 0.84776 0.17514 0.75388 0.0
H939 H 0.82962 0.17725 0.73312 0.0
H940 H 0.81958 0.20149 0.75073 0.0
H941 H 0.94771 0.19732 0.7256 0.0
H942 H 0.95 0.22964 0.71268 0.0
H943 H 0.93147 0.19837 0.7042 0.0
C944 C 0.87206 0.41022 0.95384 0.0
C945 C 0.8924 0.42095 0.96587 0.0
C946 C 0.84668 0.39706 0.95967 0.0
C947 C 0.84152 0.39479 0.978 0.0
C948 C 0.86321 0.40326 0.99018 0.0
C949 C 0.88857 0.4163 0.98394 0.0
C950 C 0.82432 0.38798 0.94621 0.0
C951 C 0.85864 0.40082 0.00981 0.0
C952 C 0.76247 0.40525 0.98827 0.0
C953 C 0.75272 0.37682 0.9898 0.0
C954 C 0.79169 0.41135 0.98546 0.0
C955 C 0.81176 0.38846 0.98412 0.0
C956 C 0.80243 0.35979 0.98666 0.0
C957 C 0.77294 0.35428 0.98948 0.0
C958 C 0.80077 0.4423 0.98295 0.0
C959 C 0.82326 0.33487 0.98547 0.0
H960 H 0.87536 0.41351 0.93983 0.0
H961 H 0.90444 0.42456 0.99321 0.0
H962 H 0.81575 0.36631 0.9493 0.0
H963 H 0.80589 0.40327 0.94659 0.0
H964 H 0.83318 0.38761 0.93261 0.0
H965 H 0.87928 0.40282 0.01722 0.0
H966 H 0.84393 0.41823 0.01429 0.0
H967 H 0.84835 0.38 0.01313 0.0
H968 H 0.74712 0.42286 0.98877 0.0
H969 H 0.76563 0.33223 0.99074 0.0
H970 H 0.80794 0.44548 0.96914 0.0
H971 H 0.81931 0.44759 0.99168 0.0
H972 H 0.78296 0.45767 0.98577 0.0
H973 H 0.82903 0.33102 0.97146 0.0
H974 H 0.81381 0.31477 0.99081 0.0
H975 H 0.84354 0.33977 0.9927 0.0
C976 C 0.59364 0.35825 0.20155 0.0
C977 C 0.58659 0.38093 0.21303 0.0
C978 C 0.61023 0.33494 0.20732 0.0
C979 C 0.61989 0.3343 0.22503 0.0
C980 C 0.61468 0.35817 0.2363 0.0
C981 C 0.59806 0.38133 0.23013 0.0
C982 C 0.61556 0.31008 0.19481 0.0
C983 C 0.62481 0.35834 0.25523 0.0
C984 C 0.62216 0.25976 0.24469 0.0
C985 C 0.65165 0.25309 0.24386 0.0
C986 C 0.61178 0.28642 0.239 0.0
C987 C 0.63138 0.307 0.23232 0.0
C988 C 0.6613 0.3007 0.23177 0.0
C989 C 0.67112 0.27372 0.23754 0.0
C990 C 0.57968 0.29229 0.23978 0.0
C991 C 0.68278 0.32219 0.22477 0.0
H992 H 0.58522 0.35827 0.18819 0.0
H993 H 0.59267 0.39892 0.23899 0.0
H994 H 0.63851 0.30326 0.19534 0.0
H995 H 0.6022 0.29142 0.19883 0.0
H996 H 0.61001 0.31556 0.18097 0.0
H997 H 0.62316 0.38008 0.26133 0.0
H998 H 0.61136 0.34327 0.26299 0.0
H999 H 0.64753 0.35087 0.25616 0.0
H1000 H 0.60699 0.24398 0.24961 0.0
H1001 H 0.69397 0.26869 0.23694 0.0
H1002 H 0.57113 0.29555 0.22626 0.0
H1003 H 0.57547 0.31231 0.24739 0.0
H1004 H 0.5675 0.27441 0.24596 0.0
H1005 H 0.67871 0.32582 0.21053 0.0
H1006 H 0.70546 0.31484 0.22644 0.0
H1007 H 0.68014 0.34322 0.23158 0.0
C1008 C 0.08596 0.90361 0.37968 0.0
C1009 C 0.1015 0.92618 0.37201 0.0
C1010 C 0.09784 0.88744 0.39345 0.0
C1011 C 0.12594 0.89402 0.39968 0.0
C1012 C 0.14247 0.91547 0.39119 0.0
C1013 C 0.13 0.93139 0.37748 0.0
C1014 C 0.07948 0.86477 0.40216 0.0
C1015 C 0.17262 0.92288 0.39733 0.0
C1016 C 0.13696 0.88336 0.44862 0.0
C1017 C 0.15179 0.85708 0.44914 0.0
C1018 C 0.12902 0.89577 0.43257 0.0
C1019 C 0.1361 0.88159 0.41659 0.0
C1020 C 0.15166 0.85536 0.41695 0.0
C1021 C 0.15932 0.84334 0.43329 0.0
C1022 C 0.11244 0.92381 0.43277 0.0
C1023 C 0.15967 0.83976 0.40014 0.0
H1024 H 0.06385 0.8996 0.3756 0.0
H1025 H 0.14226 0.9485 0.37136 0.0
H1026 H 0.09201 0.84466 0.40402 0.0
H1027 H 0.07277 0.8725 0.41541 0.0
H1028 H 0.05974 0.85971 0.39438 0.0
H1029 H 0.18408 0.93686 0.38779 0.0
H1030 H 0.17146 0.93438 0.41018 0.0
H1031 H 0.18554 0.90307 0.39938 0.0
H1032 H 0.13113 0.89416 0.46081 0.0
H1033 H 0.17084 0.82303 0.43364 0.0
H1034 H 0.09088 0.92062 0.42664 0.0
H1035 H 0.124 0.94019 0.4249 0.0
H1036 H 0.10933 0.93242 0.44634 0.0
H1037 H 0.13978 0.83254 0.39323 0.0
H1038 H 0.17351 0.82067 0.40264 0.0
H1039 H 0.17124 0.85448 0.39112 0.0
C1040 C 0.09913 0.61513 0.62893 0.0
C1041 C 0.07076 0.60528 0.6315 0.0
C1042 C 0.11565 0.62582 0.64309 0.0
C1043 C 0.10343 0.62686 0.66017 0.0
C1044 C 0.07429 0.61859 0.66264 0.0
C1045 C 0.05839 0.60776 0.64832 0.0
C1046 C 0.14662 0.63453 0.63993 0.0
C1047 C 0.06034 0.61959 0.68063 0.0
C1048 C 0.14769 0.6157 0.7015 0.0
C1049 C 0.14798 0.64341 0.70892 0.0
C1050 C 0.13488 0.61044 0.68505 0.0
C1051 C 0.12167 0.63339 0.67586 0.0
C1052 C 0.12336 0.66173 0.68277 0.0
C1053 C 0.13668 0.66645 0.69922 0.0
C1054 C 0.13403 0.57997 0.67799 0.0
C1055 C 0.10952 0.68674 0.67338 0.0
H1056 H 0.10869 0.61382 0.61592 0.0
H1057 H 0.03667 0.59991 0.65055 0.0
H1058 H 0.15136 0.65548 0.6464 0.0
H1059 H 0.16127 0.6183 0.64583 0.0
H1060 H 0.15164 0.6362 0.62565 0.0
H1061 H 0.03675 0.61527 0.68 0.0
H1062 H 0.0705 0.60324 0.68926 0.0
H1063 H 0.06378 0.64094 0.68691 0.0
H1064 H 0.15677 0.59788 0.70882 0.0
H1065 H 0.13681 0.68792 0.70489 0.0
H1066 H 0.14129 0.57932 0.66406 0.0
H1067 H 0.11149 0.57185 0.67831 0.0
H1068 H 0.14783 0.56518 0.6858 0.0
H1069 H 0.11495 0.68631 0.65914 0.0
H1070 H 0.11634 0.70776 0.67907 0.0
H1071 H 0.08567 0.68504 0.67446 0.0
C1072 C 0.39456 0.56836 0.89009 0.0
C1073 C 0.40992 0.58515 0.87803 0.0
C1074 C 0.38285 0.58073 0.90543 0.0
C1075 C 0.38644 0.61059 0.90862 0.0
C1076 C 0.39948 0.62801 0.89562 0.0
C1077 C 0.41128 0.61502 0.88052 0.0
C1078 C 0.36913 0.56138 0.91895 0.0
C1079 C 0.40322 0.66 0.89833 0.0
C1080 C 0.35021 0.64451 0.94877 0.0
C1081 C 0.37273 0.64369 0.96122 0.0
C1082 C 0.35427 0.63408 0.93149 0.0
C1083 C 0.38141 0.62249 0.9266 0.0
C1084 C 0.40423 0.62188 0.93905 0.0
C1085 C 0.39965 0.6325 0.95613 0.0
C1086 C 0.32951 0.63523 0.91852 0.0
C1087 C 0.43356 0.60969 0.93439 0.0
H1088 H 0.39359 0.54523 0.88822 0.0
H1089 H 0.42287 0.62805 0.87106 0.0
H1090 H 0.3843 0.55846 0.93015 0.0
H1091 H 0.3491 0.57119 0.92428 0.0
H1092 H 0.36386 0.53984 0.91338 0.0
H1093 H 0.40891 0.67106 0.88587 0.0
H1094 H 0.38322 0.66977 0.90374 0.0
H1095 H 0.4208 0.6639 0.90803 0.0
H1096 H 0.32931 0.65308 0.95254 0.0
H1097 H 0.41725 0.63176 0.96556 0.0
H1098 H 0.32343 0.61309 0.91441 0.0
H1099 H 0.3362 0.64685 0.90646 0.0
H1100 H 0.31016 0.64602 0.92414 0.0
H1101 H 0.43136 0.58688 0.93018 0.0
H1102 H 0.44899 0.61076 0.94561 0.0
H1103 H 0.44291 0.62168 0.92316 0.0
C1104 C 0.39713 0.93036 0.14073 0.0
C1105 C 0.40876 0.91786 0.1254 0.0
C1106 C 0.38586 0.91342 0.15425 0.0
C1107 C 0.38679 0.88309 0.15268 0.0
C1108 C 0.39788 0.87018 0.13716 0.0
C1109 C 0.40857 0.88774 0.12363 0.0
C1110 C 0.37392 0.92809 0.17053 0.0
C1111 C 0.39941 0.83789 0.13511 0.0
C1112 C 0.3881 0.85017 0.198 0.0
C1113 C 0.35883 0.84393 0.20056 0.0
C1114 C 0.398 0.86052 0.18178 0.0
C1115 C 0.37796 0.86537 0.16799 0.0
C1116 C 0.34869 0.85723 0.17012 0.0
C1117 C 0.3395 0.8463 0.1864 0.0
C1118 C 0.42952 0.86825 0.17989 0.0
C1119 C 0.32662 0.86231 0.1558 0.0
H1120 H 0.39771 0.9535 0.14251 0.0
H1121 H 0.41712 0.87785 0.11176 0.0
H1122 H 0.35204 0.91972 0.17354 0.0
H1123 H 0.38797 0.92337 0.18202 0.0
H1124 H 0.37253 0.95181 0.16903 0.0
H1125 H 0.40601 0.83125 0.1216 0.0
H1126 H 0.41528 0.82913 0.14466 0.0
H1127 H 0.3782 0.828 0.13813 0.0
H1128 H 0.40315 0.84793 0.20888 0.0
H1129 H 0.31683 0.84144 0.18837 0.0
H1130 H 0.43193 0.892 0.18014 0.0
H1131 H 0.43807 0.86037 0.16709 0.0
H1132 H 0.44289 0.85916 0.19069 0.0
H1133 H 0.32179 0.88566 0.15507 0.0
H1134 H 0.30611 0.85064 0.15834 0.0
H1135 H 0.33512 0.85553 0.14275 0.0
C1136 C 0.07424 0.621 0.86349 0.0
C1137 C 0.08876 0.60676 0.87714 0.0
C1138 C 0.08949 0.63523 0.85021 0.0
C1139 C 0.12006 0.63498 0.85045 0.0
C1140 C 0.1349 0.62206 0.86469 0.0
C1141 C 0.11905 0.60811 0.8779 0.0
C1142 C 0.07281 0.6489 0.83531 0.0
C1143 C 0.16748 0.62149 0.86544 0.0
C1144 C 0.15013 0.63598 0.80425 0.0
C1145 C 0.15663 0.66516 0.80209 0.0
C1146 C 0.14009 0.62556 0.82038 0.0
C1147 C 0.13602 0.64492 0.83465 0.0
C1148 C 0.14412 0.67415 0.83287 0.0
C1149 C 0.15455 0.68394 0.81657 0.0
C1150 C 0.13218 0.59412 0.82179 0.0
C1151 C 0.14003 0.69542 0.84778 0.0
H1152 H 0.0509 0.61981 0.86261 0.0
H1153 H 0.13042 0.59761 0.88859 0.0
H1154 H 0.08087 0.67098 0.83282 0.0
H1155 H 0.07601 0.63617 0.82303 0.0
H1156 H 0.04927 0.65006 0.83808 0.0
H1157 H 0.1756 0.61456 0.87854 0.0
H1158 H 0.17577 0.60629 0.8553 0.0
H1159 H 0.17651 0.64302 0.86245 0.0
H1160 H 0.15207 0.62133 0.79313 0.0
H1161 H 0.15959 0.70653 0.81492 0.0
H1162 H 0.10837 0.59196 0.82289 0.0
H1163 H 0.14185 0.58467 0.83384 0.0
H1164 H 0.13949 0.58142 0.81017 0.0
H1165 H 0.11665 0.70002 0.84939 0.0
H1166 H 0.1514 0.71604 0.84528 0.0
H1167 H 0.14794 0.68637 0.86039 0.0
C1168 C 0.3972 0.60939 0.13028 0.0
C1169 C 0.39779 0.57936 0.12805 0.0
C1170 C 0.38555 0.62731 0.1172 0.0
C1171 C 0.37411 0.61486 0.1016 0.0
C1172 C 0.37321 0.58455 0.09972 0.0
C1173 C 0.38519 0.56722 0.11289 0.0
C1174 C 0.38683 0.65953 0.11969 0.0
C1175 C 0.36103 0.57038 0.08333 0.0
C1176 C 0.32844 0.65376 0.06766 0.0
C1177 C 0.34848 0.6569 0.05398 0.0
C1178 C 0.3368 0.64173 0.08385 0.0
C1179 C 0.36587 0.63309 0.08636 0.0
C1180 C 0.38656 0.63851 0.07306 0.0
C1181 C 0.37755 0.65014 0.05698 0.0
C1182 C 0.31412 0.63629 0.09771 0.0
C1183 C 0.41789 0.63016 0.07532 0.0
H1184 H 0.40644 0.61895 0.14208 0.0
H1185 H 0.38588 0.54413 0.11086 0.0
H1186 H 0.40322 0.66864 0.11065 0.0
H1187 H 0.36576 0.6695 0.11633 0.0
H1188 H 0.39269 0.66568 0.13342 0.0
H1189 H 0.3594 0.54664 0.08465 0.0
H1190 H 0.33924 0.57906 0.08035 0.0
H1191 H 0.37511 0.57518 0.0719 0.0
H1192 H 0.30593 0.65901 0.06536 0.0
H1193 H 0.39315 0.65292 0.04648 0.0
H1194 H 0.32222 0.64235 0.111 0.0
H1195 H 0.30895 0.61298 0.09795 0.0
H1196 H 0.29387 0.64837 0.09503 0.0
H1197 H 0.42621 0.6378 0.08825 0.0
H1198 H 0.43176 0.63906 0.06473 0.0
H1199 H 0.41986 0.60636 0.07506 0.0
C1200 C 0.41732 0.88693 0.37406 0.0
C1201 C 0.41252 0.91594 0.37835 0.0
C1202 C 0.40524 0.87465 0.3588 0.0
C1203 C 0.38802 0.89184 0.34757 0.0
C1204 C 0.38068 0.92021 0.35281 0.0
C1205 C 0.39306 0.93196 0.36817 0.0
C1206 C 0.4133 0.84418 0.35385 0.0
C1207 C 0.36215 0.93918 0.34132 0.0
C1208 C 0.40012 0.87893 0.29883 0.0
C1209 C 0.37552 0.86316 0.29387 0.0
C1210 C 0.40406 0.88857 0.31618 0.0
C1211 C 0.38289 0.88234 0.32905 0.0
C1212 C 0.35777 0.8668 0.32419 0.0
C1213 C 0.35435 0.85737 0.30662 0.0
C1214 C 0.43115 0.90524 0.32075 0.0
C1215 C 0.33476 0.85982 0.33757 0.0
H1216 H 0.4319 0.8743 0.38212 0.0
H1217 H 0.38924 0.9544 0.3714 0.0
H1218 H 0.39428 0.83231 0.34866 0.0
H1219 H 0.42982 0.8446 0.34326 0.0
H1220 H 0.42235 0.83222 0.36523 0.0
H1221 H 0.35385 0.95818 0.3487 0.0
H1222 H 0.37521 0.94699 0.33007 0.0
H1223 H 0.34357 0.92699 0.33582 0.0
H1224 H 0.41657 0.88376 0.28914 0.0
H1225 H 0.33524 0.84526 0.30293 0.0
H1226 H 0.44376 0.89352 0.33089 0.0
H1227 H 0.42536 0.92654 0.32641 0.0
H1228 H 0.44524 0.9087 0.30911 0.0
H1229 H 0.34375 0.84514 0.34767 0.0
H1230 H 0.31558 0.8494 0.33144 0.0
H1231 H 0.3277 0.87967 0.34452 0.0
C1232 C 0.05748 0.90515 0.60222 0.0
C1233 C 0.06889 0.90762 0.61931 0.0
C1234 C 0.07396 0.89379 0.58836 0.0
C1235 C 0.10275 0.88494 0.59158 0.0
C1236 C 0.11391 0.88577 0.60897 0.0
C1237 C 0.09681 0.89708 0.62265 0.0
C1238 C 0.06113 0.89311 0.57002 0.0
C1239 C 0.14443 0.87635 0.61294 0.0
C1240 C 0.13615 0.84681 0.5522 0.0
C1241 C 0.14741 0.87032 0.54297 0.0
C1242 C 0.12324 0.85073 0.56882 0.0
C1243 C 0.1219 0.87871 0.57631 0.0
C1244 C 0.13557 0.90194 0.5677 0.0
C1245 C 0.14801 0.89747 0.5511 0.0
C1246 C 0.10912 0.8254 0.57767 0.0
C1247 C 0.13512 0.93203 0.57535 0.0
H1248 H 0.03613 0.91354 0.59938 0.0
H1249 H 0.10561 0.89839 0.63589 0.0
H1250 H 0.07205 0.90937 0.56171 0.0
H1251 H 0.06463 0.87175 0.56377 0.0
H1252 H 0.03759 0.89778 0.57006 0.0
H1253 H 0.14807 0.87348 0.62731 0.0
H1254 H 0.14957 0.85588 0.60602 0.0
H1255 H 0.15975 0.89287 0.60813 0.0
H1256 H 0.13571 0.82575 0.54597 0.0
H1257 H 0.15717 0.91561 0.54414 0.0
H1258 H 0.08535 0.8268 0.57589 0.0
H1259 H 0.11355 0.82559 0.59205 0.0
H1260 H 0.11661 0.80459 0.572 0.0
H1261 H 0.1128 0.94072 0.57474 0.0
H1262 H 0.14961 0.94687 0.5681 0.0
H1263 H 0.14174 0.93181 0.58941 0.0
C1264 C 0.58622 0.39182 0.88138 0.0
C1265 C 0.59905 0.41538 0.87301 0.0
C1266 C 0.60082 0.37691 0.89471 0.0
C1267 C 0.62894 0.38578 0.89974 0.0
C1268 C 0.64286 0.40805 0.89038 0.0
C1269 C 0.62767 0.42271 0.87716 0.0
C1270 C 0.58519 0.35327 0.90437 0.0
C1271 C 0.673 0.4178 0.89516 0.0
C1272 C 0.64359 0.37811 0.9485 0.0
C1273 C 0.65943 0.35244 0.94914 0.0
C1274 C 0.63448 0.3896 0.93244 0.0
C1275 C 0.64146 0.37513 0.91653 0.0
C1276 C 0.65857 0.34987 0.91697 0.0
C1277 C 0.66735 0.33873 0.93334 0.0
C1278 C 0.61635 0.41667 0.93257 0.0
C1279 C 0.66665 0.33406 0.90025 0.0
H1280 H 0.56405 0.38613 0.87829 0.0
H1281 H 0.63784 0.44059 0.87047 0.0
H1282 H 0.5994 0.33424 0.90598 0.0
H1283 H 0.57924 0.36099 0.91776 0.0
H1284 H 0.56516 0.34644 0.89741 0.0
H1285 H 0.68254 0.43164 0.8848 0.0
H1286 H 0.67229 0.43029 0.90767 0.0
H1287 H 0.68738 0.39904 0.8973 0.0
H1288 H 0.63757 0.38895 0.96066 0.0
H1289 H 0.67967 0.31891 0.93378 0.0
H1290 H 0.59451 0.41188 0.92725 0.0
H1291 H 0.6262 0.43317 0.92396 0.0
H1292 H 0.61392 0.42595 0.94602 0.0
H1293 H 0.64711 0.32385 0.89447 0.0
H1294 H 0.68302 0.31703 0.90265 0.0
H1295 H 0.67523 0.34926 0.89033 0.0
C1296 C 0.56211 0.10188 0.14992 0.0
C1297 C 0.57271 0.10097 0.1326 0.0
C1298 C 0.57911 0.11226 0.16387 0.0
C1299 C 0.60767 0.12164 0.16053 0.0
C1300 C 0.61821 0.12189 0.14302 0.0
C1301 C 0.60056 0.11161 0.12924 0.0
C1302 C 0.56694 0.11177 0.18235 0.0
C1303 C 0.64852 0.13175 0.13895 0.0
C1304 C 0.64109 0.16038 0.19974 0.0
C1305 C 0.65321 0.13716 0.20887 0.0
C1306 C 0.6278 0.15616 0.18323 0.0
C1307 C 0.62703 0.12819 0.17571 0.0
C1308 C 0.64152 0.10529 0.1842 0.0
C1309 C 0.65424 0.11002 0.20073 0.0
C1310 C 0.61265 0.18113 0.17458 0.0
C1311 C 0.64172 0.07525 0.17648 0.0
H1312 H 0.54088 0.09329 0.15278 0.0
H1313 H 0.60879 0.11144 0.11587 0.0
H1314 H 0.5787 0.09557 0.1903 0.0
H1315 H 0.56997 0.13299 0.18887 0.0
H1316 H 0.54357 0.10635 0.1825 0.0
H1317 H 0.6521 0.13428 0.12456 0.0
H1318 H 0.65321 0.15252 0.14566 0.0
H1319 H 0.66422 0.11573 0.14401 0.0
H1320 H 0.64027 0.18142 0.20599 0.0
H1321 H 0.66401 0.09211 0.20764 0.0
H1322 H 0.58897 0.17883 0.17636 0.0
H1323 H 0.61694 0.18135 0.16019 0.0
H1324 H 0.61942 0.20211 0.18037 0.0
H1325 H 0.61974 0.06584 0.1774 0.0
H1326 H 0.65703 0.06086 0.18349 0.0
H1327 H 0.64767 0.07575 0.16232 0.0
C1328 C 0.93854 0.12156 0.38251 0.0
C1329 C 0.9249 0.10719 0.36845 0.0
C1330 C 0.92251 0.13411 0.39618 0.0
C1331 C 0.89201 0.1319 0.39602 0.0
C1332 C 0.87794 0.11853 0.38154 0.0
C1333 C 0.89456 0.10642 0.36788 0.0
C1334 C 0.93839 0.14842 0.41131 0.0
C1335 C 0.84547 0.11575 0.38091 0.0
C1336 C 0.86315 0.13174 0.44253 0.0
C1337 C 0.85535 0.16062 0.4449 0.0
C1338 C 0.87297 0.12159 0.42618 0.0
C1339 C 0.87555 0.14095 0.41194 0.0
C1340 C 0.86595 0.16973 0.41393 0.0
C1341 C 0.85572 0.17921 0.43042 0.0
C1342 C 0.8824 0.09057 0.42452 0.0
C1343 C 0.86844 0.19103 0.39908 0.0
H1344 H 0.96191 0.12193 0.38332 0.0
H1345 H 0.88378 0.0958 0.35693 0.0
H1346 H 0.92913 0.17 0.41407 0.0
H1347 H 0.93584 0.13537 0.42341 0.0
H1348 H 0.96184 0.15087 0.4086 0.0
H1349 H 0.83768 0.1084 0.36776 0.0
H1350 H 0.83836 0.09994 0.39091 0.0
H1351 H 0.83501 0.13658 0.38418 0.0
H1352 H 0.86248 0.11721 0.45364 0.0
H1353 H 0.84965 0.20157 0.43223 0.0
H1354 H 0.9063 0.08956 0.4235 0.0
H1355 H 0.87332 0.08067 0.41237 0.0
H1356 H 0.87562 0.07755 0.43603 0.0
H1357 H 0.89147 0.19698 0.39732 0.0
H1358 H 0.8559 0.21097 0.40175 0.0
H1359 H 0.86083 0.18139 0.38648 0.0
C1360 C 0.88532 0.43664 0.6324 0.0
C1361 C 0.89882 0.42333 0.61794 0.0
C1362 C 0.87205 0.42037 0.64556 0.0
C1363 C 0.87257 0.38997 0.64441 0.0
C1364 C 0.88468 0.37636 0.6294 0.0
C1365 C 0.89762 0.39323 0.61629 0.0
C1366 C 0.85915 0.43577 0.6613 0.0
C1367 C 0.88552 0.344 0.62767 0.0
C1368 C 0.87446 0.35858 0.69007 0.0
C1369 C 0.84527 0.3523 0.69288 0.0
C1370 C 0.88403 0.36856 0.67373 0.0
C1371 C 0.86376 0.37294 0.66 0.0
C1372 C 0.83455 0.36476 0.66239 0.0
C1373 C 0.82565 0.35425 0.67885 0.0
C1374 C 0.91551 0.3764 0.67161 0.0
C1375 C 0.81231 0.36917 0.64809 0.0
H1376 H 0.88643 0.4598 0.63398 0.0
H1377 H 0.90754 0.38279 0.605 0.0
H1378 H 0.83723 0.42735 0.66413 0.0
H1379 H 0.87274 0.43185 0.67312 0.0
H1380 H 0.85762 0.45937 0.65927 0.0
H1381 H 0.89125 0.33696 0.61409 0.0
H1382 H 0.90189 0.33528 0.63692 0.0
H1383 H 0.86437 0.33448 0.63125 0.0
H1384 H 0.88972 0.35664 0.70086 0.0
H1385 H 0.80305 0.34935 0.68105 0.0
H1386 H 0.91773 0.40015 0.67116 0.0
H1387 H 0.9241 0.3676 0.65904 0.0
H1388 H 0.92899 0.36825 0.68264 0.0
H1389 H 0.80707 0.39242 0.6472 0.0
H1390 H 0.79203 0.35722 0.65079 0.0
H1391 H 0.82084 0.36227 0.63507 0.0
C1392 C 0.58191 0.11362 0.37037 0.0
C1393 C 0.59605 0.09132 0.37927 0.0
C1394 C 0.59565 0.12844 0.3567 0.0
C1395 C 0.62423 0.12086 0.35193 0.0
C1396 C 0.63933 0.09986 0.36176 0.0
C1397 C 0.62497 0.08519 0.37527 0.0
C1398 C 0.57875 0.15062 0.34649 0.0
C1399 C 0.66998 0.09151 0.35726 0.0
C1400 C 0.64075 0.12709 0.30328 0.0
C1401 C 0.65573 0.15324 0.30255 0.0
C1402 C 0.631 0.11612 0.31934 0.0
C1403 C 0.63649 0.13162 0.33512 0.0
C1404 C 0.6524 0.15762 0.33458 0.0
C1405 C 0.66181 0.16821 0.31824 0.0
C1406 C 0.61408 0.08831 0.31932 0.0
C1407 C 0.65885 0.17453 0.35118 0.0
H1408 H 0.5595 0.11831 0.37337 0.0
H1409 H 0.63607 0.06824 0.38234 0.0
H1410 H 0.59181 0.17035 0.3446 0.0
H1411 H 0.57345 0.1419 0.33322 0.0
H1412 H 0.55825 0.15659 0.35319 0.0
H1413 H 0.6801 0.07837 0.36778 0.0
H1414 H 0.67008 0.07879 0.34483 0.0
H1415 H 0.68341 0.11093 0.35508 0.0
H1416 H 0.63606 0.11535 0.29122 0.0
H1417 H 0.67345 0.18842 0.31772 0.0
H1418 H 0.59196 0.09226 0.32441 0.0
H1419 H 0.62452 0.0725 0.3282 0.0
H1420 H 0.61232 0.07856 0.30595 0.0
H1421 H 0.63842 0.18293 0.35686 0.0
H1422 H 0.67353 0.19297 0.34871 0.0
H1423 H 0.66884 0.1604 0.36123 0.0
C1424 C 0.93203 0.11985 0.61489 0.0
C1425 C 0.91335 0.10169 0.6242 0.0
C1426 C 0.9229 0.13347 0.59938 0.0
C1427 C 0.89453 0.12861 0.59302 0.0
C1428 C 0.87473 0.11282 0.60337 0.0
C1429 C 0.88439 0.09956 0.61887 0.0
C1430 C 0.94456 0.15053 0.5889 0.0
C1431 C 0.84418 0.10739 0.5972 0.0
C1432 C 0.8671 0.16475 0.5512 0.0
C1433 C 0.87276 0.14333 0.5385 0.0
C1434 C 0.87443 0.16066 0.56904 0.0
C1435 C 0.88757 0.13453 0.57424 0.0
C1436 C 0.89374 0.11311 0.56144 0.0
C1437 C 0.88634 0.11779 0.5438 0.0
C1438 C 0.86771 0.18401 0.58232 0.0
C1439 C 0.90783 0.08492 0.56638 0.0
H1440 H 0.95445 0.12165 0.6189 0.0
H1441 H 0.86968 0.08609 0.62626 0.0
H1442 H 0.95271 0.13707 0.57783 0.0
H1443 H 0.93441 0.16996 0.58314 0.0
H1444 H 0.96331 0.15726 0.59712 0.0
H1445 H 0.83025 0.0993 0.608 0.0
H1446 H 0.83444 0.12728 0.59181 0.0
H1447 H 0.84442 0.09105 0.58646 0.0
H1448 H 0.85668 0.18459 0.54725 0.0
H1449 H 0.891 0.1011 0.53418 0.0
H1450 H 0.88715 0.18911 0.59034 0.0
H1451 H 0.8508 0.1764 0.59153 0.0
H1452 H 0.85996 0.20405 0.57595 0.0
H1453 H 0.92897 0.089 0.57286 0.0
H1454 H 0.91146 0.07066 0.55478 0.0
H1455 H 0.89407 0.0733 0.57595 0.0
C1456 C 0.92042 0.40731 0.86056 0.0
C1457 C 0.90737 0.43166 0.86817 0.0
C1458 C 0.90867 0.39407 0.84552 0.0
C1459 C 0.88345 0.40566 0.83773 0.0
C1460 C 0.86897 0.42887 0.84605 0.0
C1461 C 0.88105 0.44153 0.86122 0.0
C1462 C 0.9246 0.36911 0.83718 0.0
C1463 C 0.84193 0.44174 0.83821 0.0
C1464 C 0.88354 0.39983 0.78799 0.0
C1465 C 0.86505 0.37642 0.78492 0.0
C1466 C 0.88868 0.41016 0.80507 0.0
C1467 C 0.87526 0.39659 0.81956 0.0
C1468 C 0.85581 0.37353 0.81658 0.0
C1469 C 0.85078 0.36379 0.79923 0.0
C1470 C 0.90924 0.43513 0.80763 0.0
C1471 C 0.84123 0.35847 0.83172 0.0
H1472 H 0.94085 0.39957 0.86568 0.0
H1473 H 0.87042 0.45989 0.86726 0.0
H1474 H 0.90931 0.35178 0.83335 0.0
H1475 H 0.93553 0.37647 0.825 0.0
H1476 H 0.94119 0.36 0.84616 0.0
H1477 H 0.83074 0.45631 0.84766 0.0
H1478 H 0.84772 0.45432 0.82634 0.0
H1479 H 0.82669 0.42463 0.83396 0.0
H1480 H 0.89429 0.41002 0.77698 0.0
H1481 H 0.83644 0.34571 0.79694 0.0
H1482 H 0.92859 0.4279 0.81504 0.0
H1483 H 0.89877 0.45239 0.81552 0.0
H1484 H 0.91647 0.44439 0.79491 0.0
H1485 H 0.85757 0.34622 0.83932 0.0
H1486 H 0.82423 0.34328 0.82712 0.0
H1487 H 0.83136 0.37435 0.84088 0.0
C1488 C 0.58842 0.37721 0.12231 0.0
C1489 C 0.56014 0.3871 0.11939 0.0
C1490 C 0.60531 0.36659 0.10834 0.0
C1491 C 0.59357 0.36579 0.0911 0.0
C1492 C 0.56424 0.37328 0.08839 0.0
C1493 C 0.54793 0.38396 0.10254 0.0
C1494 C 0.63636 0.35845 0.11182 0.0
C1495 C 0.55077 0.37244 0.07024 0.0
C1496 C 0.63864 0.38504 0.05149 0.0
C1497 C 0.641 0.35854 0.0427 0.0
C1498 C 0.62484 0.38723 0.06784 0.0
C1499 C 0.61279 0.36231 0.07554 0.0
C1500 C 0.61667 0.33515 0.06729 0.0
C1501 C 0.63091 0.33354 0.05093 0.0
C1502 C 0.62171 0.41658 0.07633 0.0
C1503 C 0.60428 0.30809 0.07514 0.0
H1504 H 0.5978 0.37891 0.13538 0.0
H1505 H 0.5262 0.39165 0.10008 0.0
H1506 H 0.64239 0.33878 0.10432 0.0
H1507 H 0.65069 0.3761 0.10738 0.0
H1508 H 0.64046 0.35475 0.12607 0.0
H1509 H 0.52691 0.37498 0.07073 0.0
H1510 H 0.5598 0.39012 0.06218 0.0
H1511 H 0.55591 0.35186 0.06345 0.0
H1512 H 0.64687 0.40434 0.04531 0.0
H1513 H 0.63273 0.31299 0.04416 0.0
H1514 H 0.6288 0.41592 0.0903 0.0
H1515 H 0.59865 0.42312 0.07619 0.0
H1516 H 0.63447 0.4333 0.06941 0.0
H1517 H 0.60814 0.30745 0.08957 0.0
H1518 H 0.61361 0.28841 0.06899 0.0
H1519 H 0.58055 0.30778 0.07302 0.0
loop_
_geom_bond_atom_site_label_1
_geom_bond_atom_site_label_2
_geom_bond_distance
_geom_bond_site_symmetry_2
_ccdc_geom_bond_type
H0 C19 0.949 . S
H1 C20 0.950 . S
H2 C22 0.950 . S
H3 C23 0.950 . S
H4 C25 0.950 . S
H5 C28 0.950 . S
H6 C29 0.950 . S
H7 C31 0.951 . S
H8 C32 0.945 1_565 S
H9 C34 0.949 . S
H10 C35 0.950 . S
H11 C37 0.950 . S
H12 C38 0.950 . S
H13 C40 0.947 1_565 S
H14 C43 0.950 . S
H15 C44 0.950 . S
H16 C46 0.951 . S
H17 C47 0.949 1_545 S
C18 C19 1.376 . S
C18 C23 1.386 . S
C18 C24 1.483 . S
C19 H0 0.949 . S
C19 C18 1.376 . S
C19 C20 1.397 . S
C20 H1 0.950 . S
C20 C19 1.397 . S
C20 C21 1.391 . S
C21 C20 1.391 . S
C21 C22 1.405 . S
C22 H2 0.950 . S
C22 C21 1.405 . S
C22 C23 1.367 . S
C23 H3 0.950 . S
C23 C18 1.386 . S
C23 C22 1.367 . S
C24 C18 1.483 . S
C24 C25 1.382 1_655 S
C24 C26 1.403 . S
C25 H4 0.950 . S
C25 C24 1.382 1_455 S
C25 C41 1.411 1_545 S
C26 C24 1.403 . S
C26 C27 1.489 . S
C26 C40 1.426 1_655 S
C27 C26 1.489 . S
C27 C28 1.383 . S
C27 C32 1.382 . S
C28 H5 0.950 . S
C28 C27 1.383 . S
C28 C29 1.395 . S
C29 H6 0.950 . S
C29 C28 1.395 . S
C29 C30 1.288 . S
C30 C29 1.288 . S
C30 C31 1.392 . S
C31 H7 0.951 . S
C31 C30 1.392 . S
C31 C32 1.392 . S
C32 H8 0.945 1_545 S
C32 C27 1.382 . S
C32 C31 1.392 . S
C33 C34 1.376 . S
C33 C38 1.386 . S
C33 C39 1.483 . S
C34 H9 0.949 . S
C34 C33 1.376 . S
C34 C35 1.397 . S
C35 H10 0.950 . S
C35 C34 1.397 . S
C35 C36 1.391 . S
C36 C35 1.391 . S
C36 C37 1.405 . S
C37 H11 0.950 . S
C37 C36 1.405 . S
C37 C38 1.367 . S
C38 H12 0.950 . S
C38 C33 1.386 . S
C38 C37 1.367 . S
C39 C33 1.483 . S
C39 C40 1.371 1_565 S
C39 C41 1.403 . S
C40 H13 0.947 1_545 S
C40 C26 1.426 1_455 S
C40 C39 1.371 1_545 S
C41 C25 1.411 1_565 S
C41 C39 1.403 . S
C41 C42 1.489 . S
C42 C41 1.489 . S
C42 C43 1.383 . S
C42 C47 1.382 . S
C43 H14 0.950 . S
C43 C42 1.383 . S
C43 C44 1.395 . S
C44 H15 0.950 . S
C44 C43 1.395 . S
C44 C45 1.288 . S
C45 C44 1.288 . S
C45 C46 1.392 . S
C46 H16 0.951 . S
C46 C45 1.392 . S
C46 C47 1.392 . S
C47 H17 0.949 1_565 S
C47 C42 1.382 . S
C47 C46 1.392 . S
H48 C67 0.949 1_455 S
H49 C68 0.950 . S
H50 C70 0.950 . S
H51 C71 0.950 . S
H52 C73 0.950 . S
H53 C76 0.950 . S
H54 C77 0.950 . S
H55 C79 0.951 . S
H56 C80 0.949 . S
H57 C82 0.971 . S
H58 C83 0.950 . S
H59 C85 0.950 . S
H60 C86 0.950 . S
H61 C88 0.950 1_655 S
H62 C91 0.950 . S
H63 C92 0.950 . S
H64 C94 0.951 . S
H65 C95 0.949 . S
C66 C67 1.376 . S
C66 C71 1.386 . S
C66 C72 1.483 . S
C67 H48 0.949 1_655 S
C67 C66 1.376 . S
C67 C68 1.397 . S
C68 H49 0.950 . S
C68 C67 1.397 . S
C68 C69 1.391 . S
C69 C68 1.391 . S
C69 C70 1.405 . S
C70 H50 0.950 . S
C70 C69 1.405 . S
C70 C71 1.367 . S
C71 H51 0.950 . S
C71 C66 1.386 . S
C71 C70 1.367 . S
C72 C66 1.483 . S
C72 C73 1.382 1_655 S
C72 C74 1.403 . S
C73 H52 0.950 . S
C73 C72 1.382 1_455 S
C73 C89 1.411 . S
C74 C72 1.403 . S
C74 C75 1.489 . S
C74 C88 1.411 1_655 S
C75 C74 1.489 . S
C75 C76 1.383 . S
C75 C80 1.382 . S
C76 H53 0.950 . S
C76 C75 1.383 . S
C76 C77 1.395 . S
C77 H54 0.950 . S
C77 C76 1.395 . S
C77 C78 1.288 . S
C78 C77 1.288 . S
C78 C79 1.392 . S
C79 H55 0.951 . S
C79 C78 1.392 . S
C79 C80 1.392 . S
C80 H56 0.949 . S
C80 C75 1.382 . S
C80 C79 1.392 . S
C81 C82 1.376 . S
C81 C86 1.386 . S
C81 C87 1.483 . S
C82 H57 0.971 . S
C82 C81 1.376 . S
C82 C83 1.397 . S
C83 H58 0.950 . S
C83 C82 1.397 . S
C83 C84 1.391 . S
C84 C83 1.391 . S
C84 C85 1.405 . S
C85 H59 0.950 . S
C85 C84 1.405 . S
C85 C86 1.367 . S
C86 H60 0.950 . S
C86 C81 1.386 . S
C86 C85 1.367 . S
C87 C81 1.483 . S
C87 C88 1.382 . S
C87 C89 1.403 . S
C88 H61 0.950 1_455 S
C88 C74 1.411 1_455 S
C88 C87 1.382 . S
C89 C73 1.411 . S
C89 C87 1.403 . S
C89 C90 1.489 . S
C90 C89 1.489 . S
C90 C91 1.383 . S
C90 C95 1.382 . S
C91 H62 0.950 . S
C91 C90 1.383 . S
C91 C92 1.395 . S
C92 H63 0.950 . S
C92 C91 1.395 . S
C92 C93 1.288 . S
C93 C92 1.288 . S
C93 C94 1.392 . S
C94 H64 0.951 . S
C94 C93 1.392 . S
C94 C95 1.392 . S
C95 H65 0.949 . S
C95 C90 1.382 . S
C95 C94 1.392 . S
H96 C115 0.949 . S
H97 C116 0.950 . S
H98 C118 0.950 . S
H99 C119 0.950 . S
H100 C121 0.950 . S
H101 C124 0.950 . S
H102 C125 0.950 . S
H103 C127 0.951 . S
H104 C128 0.949 . S
H105 C130 0.949 . S
H106 C131 0.950 . S
H107 C133 0.950 . S
H108 C134 0.950 . S
H109 C136 0.950 . S
H110 C139 0.950 . S
H111 C140 0.950 . S
H112 C142 0.951 . S
H113 C143 0.949 . S
C114 C115 1.376 . S
C114 C119 1.386 . S
C114 C120 1.483 . S
C115 H96 0.949 . S
C115 C114 1.376 . S
C115 C116 1.397 . S
C116 H97 0.950 . S
C116 C115 1.397 . S
C116 C117 1.391 . S
C117 C116 1.391 . S
C117 C118 1.405 . S
C118 H98 0.950 . S
C118 C117 1.405 . S
C118 C119 1.367 . S
C119 H99 0.950 . S
C119 C114 1.386 . S
C119 C118 1.367 . S
C120 C114 1.483 . S
C120 C121 1.382 . S
C120 C122 1.403 . S
C121 H100 0.950 . S
C121 C120 1.382 . S
C121 C137 1.411 . S
C122 C120 1.403 . S
C122 C123 1.489 . S
C122 C136 1.411 . S
C123 C122 1.489 . S
C123 C124 1.383 . S
C123 C128 1.382 . S
C124 H101 0.950 . S
C124 C123 1.383 . S
C124 C125 1.395 . S
C125 H102 0.950 . S
C125 C124 1.395 . S
C125 C126 1.288 . S
C126 C125 1.288 . S
C126 C127 1.392 . S
C127 H103 0.951 . S
C127 C126 1.392 . S
C127 C128 1.392 . S
C128 H104 0.949 . S
C128 C123 1.382 . S
C128 C127 1.392 . S
C129 C130 1.376 . S
C129 C134 1.386 . S
C129 C135 1.483 . S
C130 H105 0.949 . S
C130 C129 1.376 . S
C130 C131 1.397 . S
C131 H106 0.950 . S
C131 C130 1.397 . S
C131 C132 1.391 . S
C132 C131 1.391 . S
C132 C133 1.405 . S
C133 H107 0.950 . S
C133 C132 1.405 . S
C133 C134 1.367 . S
C134 H108 0.950 . S
C134 C129 1.386 . S
C134 C133 1.367 . S
C135 C129 1.483 . S
C135 C136 1.382 . S
C135 C137 1.403 . S
C136 H109 0.950 . S
C136 C122 1.411 . S
C136 C135 1.382 . S
C137 C121 1.411 . S
C137 C135 1.403 . S
C137 C138 1.489 . S
C138 C137 1.489 . S
C138 C139 1.383 . S
C138 C143 1.382 . S
C139 H110 0.950 . S
C139 C138 1.383 . S
C139 C140 1.395 . S
C140 H111 0.950 . S
C140 C139 1.395 . S
C140 C141 1.288 . S
C141 C140 1.288 . S
C141 C142 1.392 . S
C142 H112 0.951 . S
C142 C141 1.392 . S
C142 C143 1.392 . S
C143 H113 0.949 . S
C143 C138 1.382 . S
C143 C142 1.392 . S
H144 C163 0.949 . S
H145 C164 0.950 . S
H146 C166 0.950 . S
H147 C167 0.950 . S
H148 C169 0.950 . S
H149 C172 0.950 . S
H150 C173 0.950 . S
H151 C175 0.951 . S
H152 C176 0.949 . S
H153 C178 0.949 . S
H154 C179 0.950 . S
H155 C181 0.950 . S
H156 C182 0.950 . S
H157 C184 0.950 . S
H158 C187 0.950 . S
H159 C188 0.950 . S
H160 C190 0.951 . S
H161 C191 0.949 . S
C162 C163 1.376 . S
C162 C167 1.386 . S
C162 C168 1.483 . S
C163 H144 0.949 . S
C163 C162 1.376 . S
C163 C164 1.397 . S
C164 H145 0.950 . S
C164 C163 1.397 . S
C164 C165 1.391 . S
C165 C164 1.391 . S
C165 C166 1.405 . S
C166 H146 0.950 . S
C166 C165 1.405 . S
C166 C167 1.367 . S
C167 H147 0.950 . S
C167 C162 1.386 . S
C167 C166 1.367 . S
C168 C162 1.483 . S
C168 C169 1.382 . S
C168 C170 1.403 . S
C169 H148 0.950 . S
C169 C168 1.382 . S
C169 C185 1.411 1_565 S
C170 C168 1.403 . S
C170 C171 1.489 . S
C170 C184 1.411 1_565 S
C171 C170 1.489 . S
C171 C172 1.383 . S
C171 C176 1.382 . S
C172 H149 0.950 . S
C172 C171 1.383 . S
C172 C173 1.395 . S
C173 H150 0.950 . S
C173 C172 1.395 . S
C173 C174 1.288 . S
C174 C173 1.288 . S
C174 C175 1.392 . S
C175 H151 0.951 . S
C175 C174 1.392 . S
C175 C176 1.392 . S
C176 H152 0.949 . S
C176 C171 1.382 . S
C176 C175 1.392 . S
C177 C178 1.376 . S
C177 C182 1.386 . S
C177 C183 1.483 . S
C178 H153 0.949 . S
C178 C177 1.376 . S
C178 C179 1.397 . S
C179 H154 0.950 . S
C179 C178 1.397 . S
C179 C180 1.391 . S
C180 C179 1.391 . S
C180 C181 1.405 . S
C181 H155 0.950 . S
C181 C180 1.405 . S
C181 C182 1.367 . S
C182 H156 0.950 . S
C182 C177 1.386 . S
C182 C181 1.367 . S
C183 C177 1.483 . S
C183 C184 1.382 . S
C183 C185 1.403 . S
C184 H157 0.950 . S
C184 C170 1.411 1_545 S
C184 C183 1.382 . S
C185 C169 1.411 1_545 S
C185 C183 1.403 . S
C185 C186 1.489 . S
C186 C185 1.489 . S
C186 C187 1.383 . S
C186 C191 1.382 . S
C187 H158 0.950 . S
C187 C186 1.383 . S
C187 C188 1.395 . S
C188 H159 0.950 . S
C188 C187 1.395 . S
C188 C189 1.288 . S
C189 C188 1.288 . S
C189 C190 1.392 . S
C190 H160 0.951 . S
C190 C189 1.392 . S
C190 C191 1.392 . S
C191 H161 0.949 . S
C191 C186 1.382 . S
C191 C190 1.392 . S
H192 C211 0.949 . S
H193 C212 0.950 . S
H194 C214 0.950 . S
H195 C215 0.950 . S
H196 C217 0.950 . S
H197 C220 0.950 . S
H198 C221 0.950 . S
H199 C223 0.951 . S
H200 C224 0.949 . S
H201 C226 0.949 . S
H202 C227 0.950 . S
H203 C229 0.950 . S
H204 C230 0.950 . S
H205 C232 0.950 . S
H206 C235 0.950 . S
H207 C236 0.950 . S
H208 C238 0.951 . S
H209 C239 0.949 . S
C210 C211 1.376 . S
C210 C215 1.386 . S
C210 C216 1.483 . S
C211 H192 0.949 . S
C211 C210 1.376 . S
C211 C212 1.397 . S
C212 H193 0.950 . S
C212 C211 1.397 . S
C212 C213 1.391 . S
C213 C212 1.391 . S
C213 C214 1.405 . S
C214 H194 0.950 . S
C214 C213 1.405 . S
C214 C215 1.367 . S
C215 H195 0.950 . S
C215 C210 1.386 . S
C215 C214 1.367 . S
C216 C210 1.483 . S
C216 C217 1.382 1_455 S
C216 C218 1.403 . S
C217 H196 0.950 . S
C217 C216 1.382 1_655 S
C217 C233 1.411 . S
C218 C216 1.403 . S
C218 C219 1.489 . S
C218 C232 1.411 . S
C219 C218 1.489 . S
C219 C220 1.383 . S
C219 C224 1.382 . S
C220 H197 0.950 . S
C220 C219 1.383 . S
C220 C221 1.395 . S
C221 H198 0.950 . S
C221 C220 1.395 . S
C221 C222 1.288 . S
C222 C221 1.288 . S
C222 C223 1.392 . S
C223 H199 0.951 . S
C223 C222 1.392 . S
C223 C224 1.392 . S
C224 H200 0.949 . S
C224 C219 1.382 . S
C224 C223 1.392 . S
C225 C226 1.376 . S
C225 C230 1.386 . S
C225 C231 1.483 . S
C226 H201 0.949 . S
C226 C225 1.376 . S
C226 C227 1.397 . S
C227 H202 0.950 . S
C227 C226 1.397 . S
C227 C228 1.391 . S
C228 C227 1.391 . S
C228 C229 1.405 . S
C229 H203 0.950 . S
C229 C228 1.405 . S
C229 C230 1.367 . S
C230 H204 0.950 . S
C230 C225 1.386 . S
C230 C229 1.367 . S
C231 C225 1.483 . S
C231 C232 1.382 1_655 S
C231 C233 1.403 . S
C232 H205 0.950 . S
C232 C218 1.411 . S
C232 C231 1.382 1_455 S
C233 C217 1.411 . S
C233 C231 1.403 . S
C233 C234 1.489 . S
C234 C233 1.489 . S
C234 C235 1.383 . S
C234 C239 1.382 . S
C235 H206 0.950 . S
C235 C234 1.383 . S
C235 C236 1.395 . S
C236 H207 0.950 . S
C236 C235 1.395 . S
C236 C237 1.288 . S
C237 C236 1.288 . S
C237 C238 1.392 . S
C238 H208 0.951 . S
C238 C237 1.392 . S
C238 C239 1.392 . S
C239 H209 0.949 . S
C239 C234 1.382 . S
C239 C238 1.392 . S
H240 C259 0.949 . S
H241 C260 0.950 . S
H242 C262 0.950 . S
H243 C263 0.950 . S
H244 C265 0.950 . S
H245 C268 0.950 . S
H246 C269 0.950 . S
H247 C271 0.951 . S
H248 C272 0.949 . S
H249 C274 0.949 . S
H250 C275 0.950 . S
H251 C277 0.950 . S
H252 C278 0.950 . S
H253 C280 0.950 . S
H254 C283 0.950 . S
H255 C284 0.950 . S
H256 C286 0.951 . S
H257 C287 0.949 . S
C258 C259 1.376 . S
C258 C263 1.386 . S
C258 C264 1.483 . S
C259 H240 0.949 . S
C259 C258 1.376 . S
C259 C260 1.397 . S
C260 H241 0.950 . S
C260 C259 1.397 . S
C260 C261 1.391 . S
C261 C260 1.391 . S
C261 C262 1.405 . S
C262 H242 0.950 . S
C262 C261 1.405 . S
C262 C263 1.367 . S
C263 H243 0.950 . S
C263 C258 1.386 . S
C263 C262 1.367 . S
C264 C258 1.483 . S
C264 C265 1.382 . S
C264 C266 1.403 . S
C265 H244 0.950 . S
C265 C264 1.382 . S
C265 C281 1.411 . S
C266 C264 1.403 . S
C266 C267 1.489 . S
C266 C280 1.411 . S
C267 C266 1.489 . S
C267 C268 1.383 . S
C267 C272 1.382 . S
C268 H245 0.950 . S
C268 C267 1.383 . S
C268 C269 1.395 . S
C269 H246 0.950 . S
C269 C268 1.395 . S
C269 C270 1.288 . S
C270 C269 1.288 . S
C270 C271 1.392 . S
C271 H247 0.951 . S
C271 C270 1.392 . S
C271 C272 1.392 . S
C272 H248 0.949 . S
C272 C267 1.382 . S
C272 C271 1.392 . S
C273 C274 1.376 . S
C273 C278 1.386 . S
C273 C279 1.483 . S
C274 H249 0.949 . S
C274 C273 1.376 . S
C274 C275 1.397 . S
C275 H250 0.950 . S
C275 C274 1.397 . S
C275 C276 1.391 . S
C276 C275 1.391 . S
C276 C277 1.405 . S
C277 H251 0.950 . S
C277 C276 1.405 . S
C277 C278 1.367 . S
C278 H252 0.950 . S
C278 C273 1.386 . S
C278 C277 1.367 . S
C279 C273 1.483 . S
C279 C280 1.382 . S
C279 C281 1.403 . S
C280 H253 0.950 . S
C280 C266 1.411 . S
C280 C279 1.382 . S
C281 C265 1.411 . S
C281 C279 1.403 . S
C281 C282 1.489 . S
C282 C281 1.489 . S
C282 C283 1.383 . S
C282 C287 1.382 . S
C283 H254 0.950 . S
C283 C282 1.383 . S
C283 C284 1.395 . S
C284 H255 0.950 . S
C284 C283 1.395 . S
C284 C285 1.288 . S
C285 C284 1.288 . S
C285 C286 1.392 . S
C286 H256 0.951 . S
C286 C285 1.392 . S
C286 C287 1.392 . S
C287 H257 0.949 . S
C287 C282 1.382 . S
C287 C286 1.392 . S
H288 C307 0.949 . S
H289 C308 0.950 . S
H290 C310 0.950 . S
H291 C311 0.950 . S
H292 C313 0.953 . S
H293 C316 0.950 . S
H294 C317 0.950 . S
H295 C319 0.951 . S
H296 C320 0.949 1_545 S
H297 C322 0.949 . S
H298 C323 0.950 . S
H299 C325 0.950 . S
H300 C326 0.950 . S
H301 C328 0.950 . S
H302 C331 0.950 . S
H303 C332 0.950 . S
H304 C334 0.951 . S
H305 C335 0.949 1_565 S
C306 C307 1.376 . S
C306 C311 1.386 . S
C306 C312 1.483 . S
C307 H288 0.949 . S
C307 C306 1.376 . S
C307 C308 1.397 . S
C308 H289 0.950 . S
C308 C307 1.397 . S
C308 C309 1.391 . S
C309 C308 1.391 . S
C309 C310 1.405 . S
C310 H290 0.950 . S
C310 C309 1.405 . S
C310 C311 1.367 . S
C311 H291 0.950 . S
C311 C306 1.386 . S
C311 C310 1.367 . S
C312 C306 1.483 . S
C312 C313 1.390 . S
C312 C314 1.403 . S
C313 H292 0.953 . S
C313 C312 1.390 . S
C313 C329 1.400 1_565 S
C314 C312 1.403 . S
C314 C315 1.489 . S
C314 C328 1.411 1_565 S
C315 C314 1.489 . S
C315 C316 1.383 . S
C315 C320 1.382 . S
C316 H293 0.950 . S
C316 C315 1.383 . S
C316 C317 1.395 . S
C317 H294 0.950 . S
C317 C316 1.395 . S
C317 C318 1.288 . S
C318 C317 1.288 . S
C318 C319 1.392 . S
C319 H295 0.951 . S
C319 C318 1.392 . S
C319 C320 1.392 . S
C320 H296 0.949 1_565 S
C320 C315 1.382 . S
C320 C319 1.392 . S
C321 C322 1.376 . S
C321 C326 1.386 . S
C321 C327 1.483 . S
C322 H297 0.949 . S
C322 C321 1.376 . S
C322 C323 1.397 . S
C323 H298 0.950 . S
C323 C322 1.397 . S
C323 C324 1.391 . S
C324 C323 1.391 . S
C324 C325 1.405 . S
C325 H299 0.950 . S
C325 C324 1.405 . S
C325 C326 1.367 . S
C326 H300 0.950 . S
C326 C321 1.386 . S
C326 C325 1.367 . S
C327 C321 1.483 . S
C327 C328 1.382 . S
C327 C329 1.403 . S
C328 H301 0.950 . S
C328 C314 1.411 1_545 S
C328 C327 1.382 . S
C329 C313 1.400 1_545 S
C329 C327 1.403 . S
C329 C330 1.489 . S
C330 C329 1.489 . S
C330 C331 1.383 . S
C330 C335 1.382 . S
C331 H302 0.950 . S
C331 C330 1.383 . S
C331 C332 1.395 . S
C332 H303 0.950 . S
C332 C331 1.395 . S
C332 C333 1.288 . S
C333 C332 1.288 . S
C333 C334 1.392 . S
C334 H304 0.951 . S
C334 C333 1.392 . S
C334 C335 1.392 . S
C335 H305 0.949 1_545 S
C335 C330 1.382 . S
C335 C334 1.392 . S
H336 C355 0.949 1_455 S
H337 C356 0.950 . S
H338 C358 0.950 . S
H339 C359 0.950 . S
H340 C361 0.950 . S
H341 C364 0.950 . S
H342 C365 0.950 . S
H343 C367 0.951 . S
H344 C368 0.949 . S
H345 C370 0.949 . S
H346 C371 0.950 . S
H347 C373 0.950 . S
H348 C374 0.950 . S
H349 C376 0.950 . S
H350 C379 0.950 . S
H351 C380 0.950 . S
H352 C382 0.951 . S
H353 C383 0.949 1_545 S
C354 C355 1.376 . S
C354 C359 1.386 . S
C354 C360 1.483 . S
C355 H336 0.949 1_655 S
C355 C354 1.376 . S
C355 C356 1.397 . S
C356 H337 0.950 . S
C356 C355 1.397 . S
C356 C357 1.391 . S
C357 C356 1.391 . S
C357 C358 1.405 . S
C358 H338 0.950 . S
C358 C357 1.405 . S
C358 C359 1.367 . S
C359 H339 0.950 . S
C359 C354 1.386 . S
C359 C358 1.367 . S
C360 C354 1.483 . S
C360 C361 1.382 1_655 S
C360 C362 1.403 . S
C361 H340 0.950 . S
C361 C360 1.382 1_455 S
C361 C377 1.411 1_545 S
C362 C360 1.403 . S
C362 C363 1.489 . S
C362 C376 1.411 1_655 S
C363 C362 1.489 . S
C363 C364 1.383 . S
C363 C368 1.382 . S
C364 H341 0.950 . S
C364 C363 1.383 . S
C364 C365 1.395 . S
C365 H342 0.950 . S
C365 C364 1.395 . S
C365 C366 1.288 . S
C366 C365 1.288 . S
C366 C367 1.392 . S
C367 H343 0.951 . S
C367 C366 1.392 . S
C367 C368 1.392 . S
C368 H344 0.949 . S
C368 C363 1.382 . S
C368 C367 1.392 . S
C369 C370 1.376 . S
C369 C374 1.386 . S
C369 C375 1.483 . S
C370 H345 0.949 . S
C370 C369 1.376 . S
C370 C371 1.397 . S
C371 H346 0.950 . S
C371 C370 1.397 . S
C371 C372 1.391 . S
C372 C371 1.391 . S
C372 C373 1.405 . S
C373 H347 0.950 . S
C373 C372 1.405 . S
C373 C374 1.367 . S
C374 H348 0.950 . S
C374 C369 1.386 . S
C374 C373 1.367 . S
C375 C369 1.483 . S
C375 C376 1.382 1_565 S
C375 C377 1.403 . S
C376 H349 0.950 . S
C376 C362 1.411 1_455 S
C376 C375 1.382 1_545 S
C377 C361 1.411 1_565 S
C377 C375 1.403 . S
C377 C378 1.489 . S
C378 C377 1.489 . S
C378 C379 1.383 . S
C378 C383 1.382 . S
C379 H350 0.950 . S
C379 C378 1.383 . S
C379 C380 1.395 . S
C380 H351 0.950 . S
C380 C379 1.395 . S
C380 C381 1.288 . S
C381 C380 1.288 . S
C381 C382 1.392 . S
C382 H352 0.951 . S
C382 C381 1.392 . S
C382 C383 1.392 . S
C383 H353 0.949 1_565 S
C383 C378 1.382 . S
C383 C382 1.392 . S
Co384 O385 2.216 1_554 S
Co384 O386 2.091 1_554 S
Co384 O388 2.004 . S
Co384 O394 2.021 1_554 S
Co384 O396 2.137 . S
Co384 O397 2.244 . S
O385 Co384 2.216 1_556 S
O385 C392 1.247 . S
O386 Co384 2.091 1_556 S
O386 C392 1.261 . S
C387 O396 1.247 . S
C387 O397 1.272 . S
O388 Co384 2.004 . S
O388 C393 1.259 . S
Co389 O390 2.061 . S
Co389 O395 2.052 1_554 S
Co389 O397 2.135 . S
O390 Co389 2.061 . S
O390 C393 1.235 . S
C391 O394 1.238 . S
C391 O395 1.241 . S
C392 O385 1.247 . S
C392 O386 1.261 . S
C393 O388 1.259 . S
C393 O390 1.235 . S
O394 Co384 2.021 1_556 S
O394 C391 1.238 . S
O395 Co389 2.052 1_556 S
O395 C391 1.241 . S
O396 Co384 2.137 . S
O396 C387 1.247 . S
O397 Co384 2.244 . S
O397 C387 1.272 . S
O397 Co389 2.135 . S
Co398 O399 2.216 . S
Co398 O400 2.091 . S
Co398 O402 2.004 . S
Co398 O408 2.021 . S
Co398 O410 2.137 . S
Co398 O411 2.244 . S
O399 Co398 2.216 . S
O399 C406 1.247 . S
O400 Co398 2.091 . S
O400 C406 1.261 . S
C401 O410 1.247 . S
C401 O411 1.272 . S
O402 Co398 2.004 . S
O402 C407 1.259 . S
Co403 O404 2.061 . S
Co403 O409 2.052 . S
Co403 O411 2.135 . S
O404 Co403 2.061 . S
O404 C407 1.235 . S
C405 O408 1.238 . S
C405 O409 1.241 . S
C406 O399 1.247 . S
C406 O400 1.261 . S
C407 O402 1.259 . S
C407 O404 1.235 . S
O408 Co398 2.021 . S
O408 C405 1.238 . S
O409 Co403 2.052 . S
O409 C405 1.241 . S
O410 Co398 2.137 . S
O410 C401 1.247 . S
O411 Co398 2.244 . S
O411 C401 1.272 . S
O411 Co403 2.135 . S
Co412 O413 2.216 . S
Co412 O414 2.091 . S
Co412 O416 2.004 . S
Co412 O422 2.021 . S
Co412 O424 2.137 . S
Co412 O425 2.244 . S
O413 Co412 2.216 . S
O413 C420 1.247 . S
O414 Co412 2.091 . S
O414 C420 1.261 . S
C415 O424 1.247 . S
C415 O425 1.272 . S
O416 Co412 2.004 . S
O416 C421 1.259 . S
Co417 O418 2.061 . S
Co417 O423 2.052 . S
Co417 O425 2.135 . S
O418 Co417 2.061 . S
O418 C421 1.235 . S
C419 O422 1.238 . S
C419 O423 1.241 . S
C420 O413 1.247 . S
C420 O414 1.261 . S
C421 O416 1.259 . S
C421 O418 1.235 . S
O422 Co412 2.021 . S
O422 C419 1.238 . S
O423 Co417 2.052 . S
O423 C419 1.241 . S
O424 Co412 2.137 . S
O424 C415 1.247 . S
O425 Co412 2.244 . S
O425 C415 1.272 . S
O425 Co417 2.135 . S
Co426 O427 2.216 . S
Co426 O428 2.091 . S
Co426 O430 2.004 . S
Co426 O436 2.021 . S
Co426 O438 2.137 . S
Co426 O439 2.244 . S
O427 Co426 2.216 . S
O427 C434 1.247 . S
O428 Co426 2.091 . S
O428 C434 1.261 . S
C429 O438 1.247 . S
C429 O439 1.272 . S
O430 Co426 2.004 . S
O430 C435 1.259 . S
Co431 O432 2.061 . S
Co431 O437 2.052 . S
Co431 O439 2.135 . S
O432 Co431 2.061 . S
O432 C435 1.235 . S
C433 O436 1.238 . S
C433 O437 1.241 . S
C434 O427 1.247 . S
C434 O428 1.261 . S
C435 O430 1.259 . S
C435 O432 1.235 . S
O436 Co426 2.021 . S
O436 C433 1.238 . S
O437 Co431 2.052 . S
O437 C433 1.241 . S
O438 Co426 2.137 . S
O438 C429 1.247 . S
O439 Co426 2.244 . S
O439 C429 1.272 . S
O439 Co431 2.135 . S
Co440 O441 2.216 . S
Co440 O442 2.091 . S
Co440 O444 2.004 . S
Co440 O450 2.021 . S
Co440 O452 2.137 . S
Co440 O453 2.244 . S
O441 Co440 2.216 . S
O441 C448 1.247 . S
O442 Co440 2.091 . S
O442 C448 1.261 . S
C443 O452 1.247 . S
C443 O453 1.272 . S
O444 Co440 2.004 . S
O444 C449 1.259 . S
Co445 O446 2.061 . S
Co445 O451 2.052 . S
Co445 O453 2.135 . S
O446 Co445 2.061 . S
O446 C449 1.235 . S
C447 O450 1.238 . S
C447 O451 1.241 . S
C448 O441 1.247 . S
C448 O442 1.261 . S
C449 O444 1.259 . S
C449 O446 1.235 . S
O450 Co440 2.021 . S
O450 C447 1.238 . S
O451 Co445 2.052 . S
O451 C447 1.241 . S
O452 Co440 2.137 . S
O452 C443 1.247 . S
O453 Co440 2.244 . S
O453 C443 1.272 . S
O453 Co445 2.135 . S
Co454 O455 2.216 . S
Co454 O456 2.091 . S
Co454 O458 2.004 . S
Co454 O464 2.021 . S
Co454 O466 2.137 . S
Co454 O467 2.244 . S
O455 Co454 2.216 . S
O455 C462 1.247 . S
O456 Co454 2.091 . S
O456 C462 1.261 . S
C457 O466 1.247 . S
C457 O467 1.272 . S
O458 Co454 2.004 . S
O458 C463 1.259 . S
Co459 O460 2.061 . S
Co459 O465 2.052 . S
Co459 O467 2.135 . S
O460 Co459 2.061 . S
O460 C463 1.235 . S
C461 O464 1.238 . S
C461 O465 1.241 . S
C462 O455 1.247 . S
C462 O456 1.261 . S
C463 O458 1.259 . S
C463 O460 1.235 . S
O464 Co454 2.021 . S
O464 C461 1.238 . S
O465 Co459 2.052 . S
O465 C461 1.241 . S
O466 Co454 2.137 . S
O466 C457 1.247 . S
O467 Co454 2.244 . S
O467 C457 1.272 . S
O467 Co459 2.135 . S
Co468 O469 2.216 1_556 S
Co468 O470 2.091 1_556 S
Co468 O472 2.004 . S
Co468 O478 2.021 1_556 S
Co468 O480 2.137 . S
Co468 O481 2.244 . S
O469 Co468 2.216 1_554 S
O469 C476 1.247 . S
O470 Co468 2.091 1_554 S
O470 C476 1.261 . S
C471 O480 1.247 . S
C471 O481 1.272 . S
O472 Co468 2.004 . S
O472 C477 1.259 . S
Co473 O474 2.061 . S
Co473 O479 2.052 1_556 S
Co473 O481 2.135 . S
O474 Co473 2.061 . S
O474 C477 1.235 . S
C475 O478 1.238 . S
C475 O479 1.241 . S
C476 O469 1.247 . S
C476 O470 1.261 . S
C477 O472 1.259 . S
C477 O474 1.235 . S
O478 Co468 2.021 1_554 S
O478 C475 1.238 . S
O479 Co473 2.052 1_554 S
O479 C475 1.241 . S
O480 Co468 2.137 . S
O480 C471 1.247 . S
O481 Co468 2.244 . S
O481 C471 1.272 . S
O481 Co473 2.135 . S
Co482 O483 2.216 . S
Co482 O484 2.091 . S
Co482 O486 2.004 . S
Co482 O492 2.021 . S
Co482 O494 2.137 . S
Co482 O495 2.244 . S
O483 Co482 2.216 . S
O483 C490 1.247 . S
O484 Co482 2.091 . S
O484 C490 1.261 . S
C485 O494 1.247 . S
C485 O495 1.272 . S
O486 Co482 2.004 . S
O486 C491 1.259 . S
Co487 O488 2.061 . S
Co487 O493 2.052 . S
Co487 O495 2.135 . S
O488 Co487 2.061 . S
O488 C491 1.235 . S
C489 O492 1.238 . S
C489 O493 1.241 . S
C490 O483 1.247 . S
C490 O484 1.261 . S
C491 O486 1.259 . S
C491 O488 1.235 . S
O492 Co482 2.021 . S
O492 C489 1.238 . S
O493 Co487 2.052 . S
O493 C489 1.241 . S
O494 Co482 2.137 . S
O494 C485 1.247 . S
O495 Co482 2.244 . S
O495 C485 1.272 . S
O495 Co487 2.135 . S
C496 C497 1.391 . S
C496 C498 1.394 . S
C496 H512 0.931 . S
C497 C496 1.391 . S
C497 C501 1.376 . S
C498 C496 1.394 . S
C498 C499 1.369 . S
C498 C502 1.531 . S
C499 C498 1.369 . S
C499 C500 1.410 . S
C499 C507 1.503 . S
C500 C499 1.410 . S
C500 C501 1.392 . S
C500 C503 1.511 . S
C501 C497 1.376 . S
C501 C500 1.392 . S
C501 H513 0.929 . S
C502 C498 1.531 . S
C502 H514 0.960 . S
C502 H515 0.962 . S
C502 H516 0.960 . S
C503 C500 1.511 . S
C503 H517 0.961 . S
C503 H518 0.961 . S
C503 H519 0.961 . S
C504 C505 1.370 . S
C504 C506 1.363 . S
C504 H520 0.931 . S
C505 C504 1.370 . S
C505 C509 1.408 . S
C506 C504 1.363 . S
C506 C507 1.370 . S
C506 C510 1.524 . S
C507 C499 1.503 . S
C507 C506 1.370 . S
C507 C508 1.403 . S
C508 C507 1.403 . S
C508 C509 1.404 . S
C508 C511 1.539 . S
C509 C505 1.408 . S
C509 C508 1.404 . S
C509 H521 0.930 . S
C510 C506 1.524 . S
C510 H522 0.956 . S
C510 H523 0.961 . S
C510 H524 0.961 . S
C511 C508 1.539 . S
C511 H525 0.958 . S
C511 H526 0.961 . S
C511 H527 0.960 . S
H512 C496 0.931 . S
H513 C501 0.929 . S
H514 C502 0.960 . S
H515 C502 0.962 . S
H516 C502 0.960 . S
H517 C503 0.961 . S
H518 C503 0.961 . S
H519 C503 0.961 . S
H520 C504 0.931 . S
H521 C509 0.930 . S
H522 C510 0.956 . S
H523 C510 0.961 . S
H524 C510 0.961 . S
H525 C511 0.958 . S
H526 C511 0.961 . S
H527 C511 0.960 . S
C528 C529 1.391 . S
C528 C530 1.394 . S
C528 H544 0.931 . S
C529 C528 1.391 . S
C529 C533 1.376 . S
C530 C528 1.394 . S
C530 C531 1.369 . S
C530 C534 1.531 . S
C531 C530 1.369 . S
C531 C532 1.410 . S
C531 C539 1.503 . S
C532 C531 1.410 . S
C532 C533 1.392 . S
C532 C535 1.511 . S
C533 C529 1.376 . S
C533 C532 1.392 . S
C533 H545 0.929 . S
C534 C530 1.531 . S
C534 H546 0.960 . S
C534 H547 0.962 . S
C534 H548 0.960 . S
C535 C532 1.511 . S
C535 H549 0.961 . S
C535 H550 0.961 . S
C535 H551 0.961 . S
C536 C537 1.370 . S
C536 C538 1.363 . S
C536 H552 0.931 . S
C537 C536 1.370 . S
C537 C541 1.408 . S
C538 C536 1.363 . S
C538 C539 1.370 . S
C538 C542 1.524 . S
C539 C531 1.503 . S
C539 C538 1.370 . S
C539 C540 1.403 . S
C540 C539 1.403 . S
C540 C541 1.404 . S
C540 C543 1.539 . S
C541 C537 1.408 . S
C541 C540 1.404 . S
C541 H553 0.930 . S
C542 C538 1.524 . S
C542 H554 0.956 . S
C542 H555 0.961 . S
C542 H556 0.961 . S
C543 C540 1.539 . S
C543 H557 0.958 . S
C543 H558 0.961 . S
C543 H559 0.960 . S
H544 C528 0.931 . S
H545 C533 0.929 . S
H546 C534 0.960 . S
H547 C534 0.962 . S
H548 C534 0.960 . S
H549 C535 0.961 . S
H550 C535 0.961 . S
H551 C535 0.961 . S
H552 C536 0.931 . S
H553 C541 0.930 . S
H554 C542 0.956 . S
H555 C542 0.961 . S
H556 C542 0.961 . S
H557 C543 0.958 . S
H558 C543 0.961 . S
H559 C543 0.960 . S
C560 C561 1.391 . S
C560 C562 1.394 . S
C560 H576 0.931 . S
C561 C560 1.391 . S
C561 C565 1.376 . S
C562 C560 1.394 . S
C562 C563 1.369 . S
C562 C566 1.531 . S
C563 C562 1.369 . S
C563 C564 1.410 . S
C563 C571 1.503 . S
C564 C563 1.410 . S
C564 C565 1.392 . S
C564 C567 1.511 . S
C565 C561 1.376 . S
C565 C564 1.392 . S
C565 H577 0.929 . S
C566 C562 1.531 . S
C566 H578 0.960 . S
C566 H579 0.962 . S
C566 H580 0.960 . S
C567 C564 1.511 . S
C567 H581 0.961 . S
C567 H582 0.961 . S
C567 H583 0.961 . S
C568 C569 1.370 . S
C568 C570 1.363 . S
C568 H584 0.931 . S
C569 C568 1.370 . S
C569 C573 1.408 . S
C570 C568 1.363 . S
C570 C571 1.370 . S
C570 C574 1.524 . S
C571 C563 1.503 . S
C571 C570 1.370 . S
C571 C572 1.403 . S
C572 C571 1.403 . S
C572 C573 1.404 . S
C572 C575 1.539 . S
C573 C569 1.408 . S
C573 C572 1.404 . S
C573 H585 0.930 . S
C574 C570 1.524 . S
C574 H586 0.956 . S
C574 H587 0.961 . S
C574 H588 0.961 . S
C575 C572 1.539 . S
C575 H589 0.958 . S
C575 H590 0.961 . S
C575 H591 0.960 . S
H576 C560 0.931 . S
H577 C565 0.929 . S
H578 C566 0.960 . S
H579 C566 0.962 . S
H580 C566 0.960 . S
H581 C567 0.961 . S
H582 C567 0.961 . S
H583 C567 0.961 . S
H584 C568 0.931 . S
H585 C573 0.930 . S
H586 C574 0.956 . S
H587 C574 0.961 . S
H588 C574 0.961 . S
H589 C575 0.958 . S
H590 C575 0.961 . S
H591 C575 0.960 . S
C592 C593 1.391 . S
C592 C594 1.394 . S
C592 H608 0.931 . S
C593 C592 1.391 . S
C593 C597 1.376 . S
C594 C592 1.394 . S
C594 C595 1.369 . S
C594 C598 1.531 . S
C595 C594 1.369 . S
C595 C596 1.410 . S
C595 C603 1.503 . S
C596 C595 1.410 . S
C596 C597 1.392 . S
C596 C599 1.511 . S
C597 C593 1.376 . S
C597 C596 1.392 . S
C597 H609 0.929 . S
C598 C594 1.531 . S
C598 H610 0.960 . S
C598 H611 0.962 . S
C598 H612 0.960 . S
C599 C596 1.511 . S
C599 H613 0.961 . S
C599 H614 0.961 . S
C599 H615 0.961 . S
C600 C601 1.328 1_556 S
C600 C602 1.351 1_556 S
C600 H616 0.988 . S
C601 C600 1.328 1_554 S
C601 C605 1.408 . S
C602 C600 1.351 1_554 S
C602 C603 1.370 . S
C602 C606 1.524 1_554 S
C603 C595 1.503 . S
C603 C602 1.370 . S
C603 C604 1.403 . S
C604 C603 1.403 . S
C604 C605 1.404 . S
C604 C607 1.539 . S
C605 C601 1.408 . S
C605 C604 1.404 . S
C605 H617 0.930 . S
C606 C602 1.524 1_556 S
C606 H618 0.956 . S
C606 H619 0.961 . S
C606 H620 0.961 . S
C607 C604 1.539 . S
C607 H621 0.958 . S
C607 H622 0.961 . S
C607 H623 0.960 . S
H608 C592 0.931 . S
H609 C597 0.929 . S
H610 C598 0.960 . S
H611 C598 0.962 . S
H612 C598 0.960 . S
H613 C599 0.961 . S
H614 C599 0.961 . S
H615 C599 0.961 . S
H616 C600 0.988 . S
H617 C605 0.930 . S
H618 C606 0.956 . S
H619 C606 0.961 . S
H620 C606 0.961 . S
H621 C607 0.958 . S
H622 C607 0.961 . S
H623 C607 0.960 . S
C624 C625 1.391 . S
C624 C626 1.394 . S
C624 H640 0.931 . S
C625 C624 1.391 . S
C625 C629 1.376 . S
C626 C624 1.394 . S
C626 C627 1.369 . S
C626 C630 1.531 1_556 S
C627 C626 1.369 . S
C627 C628 1.410 . S
C627 C635 1.503 . S
C628 C627 1.410 . S
C628 C629 1.392 . S
C628 C631 1.511 . S
C629 C625 1.376 . S
C629 C628 1.392 . S
C629 H641 0.929 . S
C630 C626 1.531 1_554 S
C630 H642 0.960 . S
C630 H643 0.962 . S
C630 H644 0.960 . S
C631 C628 1.511 . S
C631 H645 0.961 . S
C631 H646 0.961 . S
C631 H647 0.961 . S
C632 C633 1.370 . S
C632 C634 1.363 . S
C632 H648 0.931 . S
C633 C632 1.370 . S
C633 C637 1.408 1_556 S
C634 C632 1.363 . S
C634 C635 1.370 . S
C634 C638 1.524 . S
C635 C627 1.503 . S
C635 C634 1.370 . S
C635 C636 1.401 1_556 S
C636 C635 1.401 1_554 S
C636 C637 1.404 . S
C636 C639 1.540 . S
C637 C633 1.408 1_554 S
C637 C636 1.404 . S
C637 H649 0.930 . S
C638 C634 1.524 . S
C638 H650 0.956 . S
C638 H651 0.961 . S
C638 H652 0.961 . S
C639 C636 1.540 . S
C639 H653 0.958 . S
C639 H654 0.961 . S
C639 H655 0.960 . S
H640 C624 0.931 . S
H641 C629 0.929 . S
H642 C630 0.960 . S
H643 C630 0.962 . S
H644 C630 0.960 . S
H645 C631 0.961 . S
H646 C631 0.961 . S
H647 C631 0.961 . S
H648 C632 0.931 . S
H649 C637 0.930 . S
H650 C638 0.956 . S
H651 C638 0.961 . S
H652 C638 0.961 . S
H653 C639 0.958 . S
H654 C639 0.961 . S
H655 C639 0.960 . S
C656 C657 1.391 . S
C656 C658 1.394 . S
C656 H672 0.931 . S
C657 C656 1.391 . S
C657 C661 1.376 . S
C658 C656 1.394 . S
C658 C659 1.369 . S
C658 C662 1.531 . S
C659 C658 1.369 . S
C659 C660 1.410 . S
C659 C667 1.503 . S
C660 C659 1.410 . S
C660 C661 1.392 . S
C660 C663 1.511 . S
C661 C657 1.376 . S
C661 C660 1.392 . S
C661 H673 0.929 . S
C662 C658 1.531 . S
C662 H674 0.960 . S
C662 H675 0.962 . S
C662 H676 0.960 . S
C663 C660 1.511 . S
C663 H677 0.961 . S
C663 H678 0.961 . S
C663 H679 0.961 . S
C664 C665 1.370 . S
C664 C666 1.363 . S
C664 H680 0.931 . S
C665 C664 1.370 . S
C665 C669 1.408 . S
C666 C664 1.363 . S
C666 C667 1.370 . S
C666 C670 1.524 . S
C667 C659 1.503 . S
C667 C666 1.370 . S
C667 C668 1.403 . S
C668 C667 1.403 . S
C668 C669 1.404 . S
C668 C671 1.539 . S
C669 C665 1.408 . S
C669 C668 1.404 . S
C669 H681 0.930 . S
C670 C666 1.524 . S
C670 H682 0.956 . S
C670 H683 0.961 . S
C670 H684 0.961 . S
C671 C668 1.539 . S
C671 H685 0.958 . S
C671 H686 0.961 . S
C671 H687 0.960 . S
H672 C656 0.931 . S
H673 C661 0.929 . S
H674 C662 0.960 . S
H675 C662 0.962 . S
H676 C662 0.960 . S
H677 C663 0.961 . S
H678 C663 0.961 . S
H679 C663 0.961 . S
H680 C664 0.931 . S
H681 C669 0.930 . S
H682 C670 0.956 . S
H683 C670 0.961 . S
H684 C670 0.961 . S
H685 C671 0.958 . S
H686 C671 0.961 . S
H687 C671 0.960 . S
C688 C689 1.391 . S
C688 C690 1.394 . S
C688 H704 0.931 . S
C689 C688 1.391 . S
C689 C693 1.376 . S
C690 C688 1.394 . S
C690 C691 1.369 . S
C690 C694 1.531 . S
C691 C690 1.369 . S
C691 C692 1.410 . S
C691 C699 1.503 . S
C692 C691 1.410 . S
C692 C693 1.392 . S
C692 C695 1.511 . S
C693 C689 1.376 . S
C693 C692 1.392 . S
C693 H705 0.929 . S
C694 C690 1.531 . S
C694 H706 0.960 . S
C694 H707 0.962 . S
C694 H708 0.960 . S
C695 C692 1.511 . S
C695 H709 0.961 . S
C695 H710 0.961 . S
C695 H711 0.961 . S
C696 C697 1.370 . S
C696 C698 1.363 . S
C696 H712 0.931 . S
C697 C696 1.370 . S
C697 C701 1.408 . S
C698 C696 1.363 . S
C698 C699 1.370 . S
C698 C702 1.524 . S
C699 C691 1.503 . S
C699 C698 1.370 . S
C699 C700 1.403 . S
C700 C699 1.403 . S
C700 C701 1.404 . S
C700 C703 1.539 . S
C701 C697 1.408 . S
C701 C700 1.404 . S
C701 H713 0.930 . S
C702 C698 1.524 . S
C702 H714 0.956 . S
C702 H715 0.961 . S
C702 H716 0.961 . S
C703 C700 1.539 . S
C703 H717 0.958 . S
C703 H718 0.961 . S
C703 H719 0.960 . S
H704 C688 0.931 . S
H705 C693 0.929 . S
H706 C694 0.960 . S
H707 C694 0.962 . S
H708 C694 0.960 . S
H709 C695 0.961 . S
H710 C695 0.961 . S
H711 C695 0.961 . S
H712 C696 0.931 . S
H713 C701 0.930 . S
H714 C702 0.956 . S
H715 C702 0.961 . S
H716 C702 0.961 . S
H717 C703 0.958 . S
H718 C703 0.961 . S
H719 C703 0.960 . S
C720 C721 1.391 . S
C720 C722 1.394 . S
C720 H736 0.931 . S
C721 C720 1.391 . S
C721 C725 1.376 . S
C722 C720 1.394 . S
C722 C723 1.369 . S
C722 C726 1.531 . S
C723 C722 1.369 . S
C723 C724 1.410 . S
C723 C731 1.503 . S
C724 C723 1.410 . S
C724 C725 1.392 . S
C724 C727 1.511 . S
C725 C721 1.376 . S
C725 C724 1.392 . S
C725 H737 0.929 . S
C726 C722 1.531 . S
C726 H738 0.960 . S
C726 H739 0.962 . S
C726 H740 0.960 . S
C727 C724 1.511 . S
C727 H741 0.961 . S
C727 H742 0.961 . S
C727 H743 0.961 . S
C728 C729 1.370 . S
C728 C730 1.363 . S
C728 H744 0.931 . S
C729 C728 1.370 . S
C729 C733 1.408 . S
C730 C728 1.363 . S
C730 C731 1.370 . S
C730 C734 1.524 . S
C731 C723 1.503 . S
C731 C730 1.370 . S
C731 C732 1.403 . S
C732 C731 1.403 . S
C732 C733 1.404 . S
C732 C735 1.539 . S
C733 C729 1.408 . S
C733 C732 1.404 . S
C733 H745 0.930 . S
C734 C730 1.524 . S
C734 H746 0.956 . S
C734 H747 0.961 . S
C734 H748 0.961 . S
C735 C732 1.539 . S
C735 H749 0.958 . S
C735 H750 0.961 . S
C735 H751 0.960 . S
H736 C720 0.931 . S
H737 C725 0.929 . S
H738 C726 0.960 . S
H739 C726 0.962 . S
H740 C726 0.960 . S
H741 C727 0.961 . S
H742 C727 0.961 . S
H743 C727 0.961 . S
H744 C728 0.931 . S
H745 C733 0.930 . S
H746 C734 0.956 . S
H747 C734 0.961 . S
H748 C734 0.961 . S
H749 C735 0.958 . S
H750 C735 0.961 . S
H751 C735 0.960 . S
C752 C753 1.391 . S
C752 C754 1.394 . S
C752 H768 0.931 . S
C753 C752 1.391 . S
C753 C757 1.376 . S
C754 C752 1.394 . S
C754 C755 1.369 . S
C754 C758 1.531 . S
C755 C754 1.369 . S
C755 C756 1.410 . S
C755 C763 1.503 . S
C756 C755 1.410 . S
C756 C757 1.392 . S
C756 C759 1.511 . S
C757 C753 1.376 . S
C757 C756 1.392 . S
C757 H769 0.929 . S
C758 C754 1.531 . S
C758 H770 0.960 . S
C758 H771 0.962 . S
C758 H772 0.960 . S
C759 C756 1.511 . S
C759 H773 0.961 . S
C759 H774 0.961 . S
C759 H775 0.961 . S
C760 C761 1.370 . S
C760 C762 1.363 . S
C760 H776 0.931 . S
C761 C760 1.370 . S
C761 C765 1.408 . S
C762 C760 1.363 . S
C762 C763 1.370 . S
C762 C766 1.524 . S
C763 C755 1.503 . S
C763 C762 1.370 . S
C763 C764 1.403 . S
C764 C763 1.403 . S
C764 C765 1.404 . S
C764 C767 1.539 . S
C765 C761 1.408 . S
C765 C764 1.404 . S
C765 H777 0.930 . S
C766 C762 1.524 . S
C766 H778 0.956 . S
C766 H779 0.961 . S
C766 H780 0.961 . S
C767 C764 1.539 . S
C767 H781 0.958 . S
C767 H782 0.961 . S
C767 H783 0.960 . S
H768 C752 0.931 . S
H769 C757 0.929 . S
H770 C758 0.960 . S
H771 C758 0.962 . S
H772 C758 0.960 . S
H773 C759 0.961 . S
H774 C759 0.961 . S
H775 C759 0.961 . S
H776 C760 0.931 . S
H777 C765 0.930 . S
H778 C766 0.956 . S
H779 C766 0.961 . S
H780 C766 0.961 . S
H781 C767 0.958 . S
H782 C767 0.961 . S
H783 C767 0.960 . S
C784 C785 1.391 . S
C784 C786 1.394 . S
C784 H800 0.931 . S
C785 C784 1.391 . S
C785 C789 1.376 . S
C786 C784 1.394 . S
C786 C787 1.369 . S
C786 C790 1.531 . S
C787 C786 1.369 . S
C787 C788 1.410 . S
C787 C795 1.503 . S
C788 C787 1.410 . S
C788 C789 1.392 . S
C788 C791 1.511 . S
C789 C785 1.376 . S
C789 C788 1.392 . S
C789 H801 0.929 . S
C790 C786 1.531 . S
C790 H802 0.960 . S
C790 H803 0.962 . S
C790 H804 0.960 . S
C791 C788 1.511 . S
C791 H805 0.961 1_554 S
C791 H806 0.964 . S
C791 H807 0.961 . S
C792 C793 1.365 1_556 S
C792 C794 1.361 1_556 S
C792 H808 0.939 . S
C793 C792 1.365 1_554 S
C793 C797 1.408 . S
C794 C792 1.361 1_554 S
C794 C795 1.370 . S
C794 C798 1.524 1_554 S
C795 C787 1.503 . S
C795 C794 1.370 . S
C795 C796 1.403 . S
C796 C795 1.403 . S
C796 C797 1.404 . S
C796 C799 1.539 . S
C797 C793 1.408 . S
C797 C796 1.404 . S
C797 H809 0.930 . S
C798 C794 1.524 1_556 S
C798 H810 0.956 . S
C798 H811 0.961 . S
C798 H812 0.961 . S
C799 C796 1.539 . S
C799 H813 0.958 . S
C799 H814 0.961 . S
C799 H815 0.960 . S
H800 C784 0.931 . S
H801 C789 0.929 . S
H802 C790 0.960 . S
H803 C790 0.962 . S
H804 C790 0.960 . S
H805 C791 0.961 1_556 S
H806 C791 0.964 . S
H807 C791 0.961 . S
H808 C792 0.939 . S
H809 C797 0.930 . S
H810 C798 0.956 . S
H811 C798 0.961 . S
H812 C798 0.961 . S
H813 C799 0.958 . S
H814 C799 0.961 . S
H815 C799 0.960 . S
C816 C817 1.391 . S
C816 C818 1.394 . S
C816 H832 0.931 . S
C817 C816 1.391 . S
C817 C821 1.376 . S
C818 C816 1.394 . S
C818 C819 1.369 . S
C818 C822 1.531 . S
C819 C818 1.369 . S
C819 C820 1.410 . S
C819 C827 1.503 . S
C820 C819 1.410 . S
C820 C821 1.392 . S
C820 C823 1.511 . S
C821 C817 1.376 . S
C821 C820 1.392 . S
C821 H833 0.929 . S
C822 C818 1.531 . S
C822 H834 0.960 . S
C822 H835 0.962 . S
C822 H836 0.960 . S
C823 C820 1.511 . S
C823 H837 0.961 . S
C823 H838 0.961 . S
C823 H839 0.961 . S
C824 C825 1.370 . S
C824 C826 1.363 . S
C824 H840 0.931 . S
C825 C824 1.370 . S
C825 C829 1.408 . S
C826 C824 1.363 . S
C826 C827 1.370 . S
C826 C830 1.524 . S
C827 C819 1.503 . S
C827 C826 1.370 . S
C827 C828 1.403 . S
C828 C827 1.403 . S
C828 C829 1.404 . S
C828 C831 1.539 . S
C829 C825 1.408 . S
C829 C828 1.404 . S
C829 H841 0.930 . S
C830 C826 1.524 . S
C830 H842 0.956 . S
C830 H843 0.961 . S
C830 H844 0.961 . S
C831 C828 1.539 . S
C831 H845 0.958 . S
C831 H846 0.961 . S
C831 H847 0.960 . S
H832 C816 0.931 . S
H833 C821 0.929 . S
H834 C822 0.960 . S
H835 C822 0.962 . S
H836 C822 0.960 . S
H837 C823 0.961 . S
H838 C823 0.961 . S
H839 C823 0.961 . S
H840 C824 0.931 . S
H841 C829 0.930 . S
H842 C830 0.956 . S
H843 C830 0.961 . S
H844 C830 0.961 . S
H845 C831 0.958 . S
H846 C831 0.961 . S
H847 C831 0.960 . S
C848 C849 1.391 . S
C848 C850 1.394 . S
C848 H864 0.931 . S
C849 C848 1.391 . S
C849 C853 1.376 . S
C850 C848 1.394 . S
C850 C851 1.369 . S
C850 C854 1.531 . S
C851 C850 1.369 . S
C851 C852 1.410 . S
C851 C859 1.503 . S
C852 C851 1.410 . S
C852 C853 1.392 . S
C852 C855 1.511 . S
C853 C849 1.376 . S
C853 C852 1.392 . S
C853 H865 0.929 . S
C854 C850 1.531 . S
C854 H866 0.960 . S
C854 H867 0.962 . S
C854 H868 0.960 . S
C855 C852 1.511 . S
C855 H869 0.961 . S
C855 H870 0.961 . S
C855 H871 0.961 . S
C856 C857 1.370 . S
C856 C858 1.363 . S
C856 H872 0.931 . S
C857 C856 1.370 . S
C857 C861 1.408 . S
C858 C856 1.363 . S
C858 C859 1.370 . S
C858 C862 1.524 . S
C859 C851 1.503 . S
C859 C858 1.370 . S
C859 C860 1.403 . S
C860 C859 1.403 . S
C860 C861 1.404 . S
C860 C863 1.539 . S
C861 C857 1.408 . S
C861 C860 1.404 . S
C861 H873 0.930 . S
C862 C858 1.524 . S
C862 H874 0.956 . S
C862 H875 0.961 . S
C862 H876 0.961 . S
C863 C860 1.539 . S
C863 H877 0.958 . S
C863 H878 0.961 . S
C863 H879 0.960 . S
H864 C848 0.931 . S
H865 C853 0.929 . S
H866 C854 0.960 . S
H867 C854 0.962 . S
H868 C854 0.960 . S
H869 C855 0.961 . S
H870 C855 0.961 . S
H871 C855 0.961 . S
H872 C856 0.931 . S
H873 C861 0.930 . S
H874 C862 0.956 . S
H875 C862 0.961 . S
H876 C862 0.961 . S
H877 C863 0.958 . S
H878 C863 0.961 . S
H879 C863 0.960 . S
C880 C881 1.391 . S
C880 C882 1.394 . S
C880 H896 0.931 . S
C881 C880 1.391 . S
C881 C885 1.376 . S
C882 C880 1.394 . S
C882 C883 1.369 . S
C882 C886 1.531 . S
C883 C882 1.369 . S
C883 C884 1.410 . S
C883 C891 1.503 . S
C884 C883 1.410 . S
C884 C885 1.392 . S
C884 C887 1.511 . S
C885 C881 1.376 . S
C885 C884 1.392 . S
C885 H897 0.929 . S
C886 C882 1.531 . S
C886 H898 0.960 . S
C886 H899 0.962 . S
C886 H900 0.960 . S
C887 C884 1.511 . S
C887 H901 0.961 . S
C887 H902 0.961 . S
C887 H903 0.961 . S
C888 C889 1.370 . S
C888 C890 1.363 . S
C888 H904 0.931 . S
C889 C888 1.370 . S
C889 C893 1.408 . S
C890 C888 1.363 . S
C890 C891 1.370 . S
C890 C894 1.524 . S
C891 C883 1.503 . S
C891 C890 1.370 . S
C891 C892 1.403 . S
C892 C891 1.403 . S
C892 C893 1.404 . S
C892 C895 1.539 . S
C893 C889 1.408 . S
C893 C892 1.404 . S
C893 H905 0.930 . S
C894 C890 1.524 . S
C894 H906 0.956 . S
C894 H907 0.961 . S
C894 H908 0.961 . S
C895 C892 1.539 . S
C895 H909 0.958 . S
C895 H910 0.961 . S
C895 H911 0.960 . S
H896 C880 0.931 . S
H897 C885 0.929 . S
H898 C886 0.960 . S
H899 C886 0.962 . S
H900 C886 0.960 . S
H901 C887 0.961 . S
H902 C887 0.961 . S
H903 C887 0.961 . S
H904 C888 0.931 . S
H905 C893 0.930 . S
H906 C894 0.956 . S
H907 C894 0.961 . S
H908 C894 0.961 . S
H909 C895 0.958 . S
H910 C895 0.961 . S
H911 C895 0.960 . S
C912 C913 1.391 . S
C912 C914 1.394 . S
C912 H928 0.931 . S
C913 C912 1.391 . S
C913 C917 1.376 . S
C914 C912 1.394 . S
C914 C915 1.369 . S
C914 C918 1.531 . S
C915 C914 1.369 . S
C915 C916 1.410 . S
C915 C923 1.503 . S
C916 C915 1.410 . S
C916 C917 1.392 . S
C916 C919 1.511 . S
C917 C913 1.376 . S
C917 C916 1.392 . S
C917 H929 0.929 . S
C918 C914 1.531 . S
C918 H930 0.960 . S
C918 H931 0.962 . S
C918 H932 0.960 . S
C919 C916 1.511 . S
C919 H933 0.961 . S
C919 H934 0.961 . S
C919 H935 0.961 . S
C920 C921 1.370 . S
C920 C922 1.363 . S
C920 H936 0.931 . S
C921 C920 1.370 . S
C921 C925 1.408 . S
C922 C920 1.363 . S
C922 C923 1.370 . S
C922 C926 1.524 . S
C923 C915 1.503 . S
C923 C922 1.370 . S
C923 C924 1.403 . S
C924 C923 1.403 . S
C924 C925 1.404 . S
C924 C927 1.539 . S
C925 C921 1.408 . S
C925 C924 1.404 . S
C925 H937 0.930 . S
C926 C922 1.524 . S
C926 H938 0.956 . S
C926 H939 0.961 . S
C926 H940 0.961 . S
C927 C924 1.539 . S
C927 H941 0.958 . S
C927 H942 0.961 . S
C927 H943 0.960 . S
H928 C912 0.931 . S
H929 C917 0.929 . S
H930 C918 0.960 . S
H931 C918 0.962 . S
H932 C918 0.960 . S
H933 C919 0.961 . S
H934 C919 0.961 . S
H935 C919 0.961 . S
H936 C920 0.931 . S
H937 C925 0.930 . S
H938 C926 0.956 . S
H939 C926 0.961 . S
H940 C926 0.961 . S
H941 C927 0.958 . S
H942 C927 0.961 . S
H943 C927 0.960 . S
C944 C945 1.391 . S
C944 C946 1.394 . S
C944 H960 0.931 . S
C945 C944 1.391 . S
C945 C949 1.376 . S
C946 C944 1.394 . S
C946 C947 1.369 . S
C946 C950 1.531 . S
C947 C946 1.369 . S
C947 C948 1.410 . S
C947 C955 1.503 . S
C948 C947 1.410 . S
C948 C949 1.392 . S
C948 C951 1.511 1_556 S
C949 C945 1.376 . S
C949 C948 1.392 . S
C949 H961 0.929 . S
C950 C946 1.531 . S
C950 H962 0.960 . S
C950 H963 0.962 . S
C950 H964 0.960 . S
C951 C948 1.511 1_554 S
C951 H965 0.961 . S
C951 H966 0.961 . S
C951 H967 0.961 . S
C952 C953 1.370 . S
C952 C954 1.363 . S
C952 H968 0.931 1_556 S
C953 C952 1.370 . S
C953 C957 1.408 . S
C954 C952 1.363 . S
C954 C955 1.370 . S
C954 C958 1.527 1_556 S
C955 C947 1.503 . S
C955 C954 1.370 . S
C955 C956 1.403 . S
C956 C955 1.403 . S
C956 C957 1.404 . S
C956 C959 1.539 . S
C957 C953 1.408 . S
C957 C956 1.404 . S
C957 H969 0.930 . S
C958 C954 1.527 1_554 S
C958 H970 0.961 1_554 S
C958 H971 0.957 . S
C958 H972 0.956 . S
C959 C956 1.539 . S
C959 H973 0.958 . S
C959 H974 0.961 . S
C959 H975 0.960 . S
H960 C944 0.931 . S
H961 C949 0.929 . S
H962 C950 0.960 . S
H963 C950 0.962 . S
H964 C950 0.960 . S
H965 C951 0.961 . S
H966 C951 0.961 . S
H967 C951 0.961 . S
H968 C952 0.931 1_554 S
H969 C957 0.930 . S
H970 C958 0.961 1_556 S
H971 C958 0.957 . S
H972 C958 0.956 . S
H973 C959 0.958 . S
H974 C959 0.961 . S
H975 C959 0.960 . S
C976 C977 1.391 . S
C976 C978 1.394 . S
C976 H992 0.931 . S
C977 C976 1.391 . S
C977 C981 1.376 . S
C978 C976 1.394 . S
C978 C979 1.369 . S
C978 C982 1.531 . S
C979 C978 1.369 . S
C979 C980 1.410 . S
C979 C987 1.503 . S
C980 C979 1.410 . S
C980 C981 1.392 . S
C980 C983 1.511 . S
C981 C977 1.376 . S
C981 C980 1.392 . S
C981 H993 0.929 . S
C982 C978 1.531 . S
C982 H994 0.960 . S
C982 H995 0.962 . S
C982 H996 0.960 . S
C983 C980 1.511 . S
C983 H997 0.961 . S
C983 H998 0.961 . S
C983 H999 0.961 . S
C984 C985 1.370 . S
C984 C986 1.363 . S
C984 H1000 0.931 . S
C985 C984 1.370 . S
C985 C989 1.408 . S
C986 C984 1.363 . S
C986 C987 1.370 . S
C986 C990 1.524 . S
C987 C979 1.503 . S
C987 C986 1.370 . S
C987 C988 1.403 . S
C988 C987 1.403 . S
C988 C989 1.404 . S
C988 C991 1.539 . S
C989 C985 1.408 . S
C989 C988 1.404 . S
C989 H1001 0.930 . S
C990 C986 1.524 . S
C990 H1002 0.956 . S
C990 H1003 0.961 . S
C990 H1004 0.961 . S
C991 C988 1.539 . S
C991 H1005 0.958 . S
C991 H1006 0.961 . S
C991 H1007 0.960 . S
H992 C976 0.931 . S
H993 C981 0.929 . S
H994 C982 0.960 . S
H995 C982 0.962 . S
H996 C982 0.960 . S
H997 C983 0.961 . S
H998 C983 0.961 . S
H999 C983 0.961 . S
H1000 C984 0.931 . S
H1001 C989 0.930 . S
H1002 C990 0.956 . S
H1003 C990 0.961 . S
H1004 C990 0.961 . S
H1005 C991 0.958 . S
H1006 C991 0.961 . S
H1007 C991 0.960 . S
C1008 C1009 1.391 . S
C1008 C1010 1.394 . S
C1008 H1024 0.931 . S
C1009 C1008 1.391 . S
C1009 C1013 1.376 . S
C1010 C1008 1.394 . S
C1010 C1011 1.369 . S
C1010 C1014 1.531 . S
C1011 C1010 1.369 . S
C1011 C1012 1.410 . S
C1011 C1019 1.503 . S
C1012 C1011 1.410 . S
C1012 C1013 1.392 . S
C1012 C1015 1.511 . S
C1013 C1009 1.376 . S
C1013 C1012 1.392 . S
C1013 H1025 0.929 . S
C1014 C1010 1.531 . S
C1014 H1026 0.960 . S
C1014 H1027 0.962 . S
C1014 H1028 0.960 . S
C1015 C1012 1.511 . S
C1015 H1029 0.961 . S
C1015 H1030 0.961 . S
C1015 H1031 0.961 . S
C1016 C1017 1.370 . S
C1016 C1018 1.363 . S
C1016 H1032 0.931 . S
C1017 C1016 1.370 . S
C1017 C1021 1.408 . S
C1018 C1016 1.363 . S
C1018 C1019 1.370 . S
C1018 C1022 1.524 . S
C1019 C1011 1.503 . S
C1019 C1018 1.370 . S
C1019 C1020 1.403 . S
C1020 C1019 1.403 . S
C1020 C1021 1.404 . S
C1020 C1023 1.539 . S
C1021 C1017 1.408 . S
C1021 C1020 1.404 . S
C1021 H1033 0.930 . S
C1022 C1018 1.524 . S
C1022 H1034 0.956 . S
C1022 H1035 0.961 . S
C1022 H1036 0.961 . S
C1023 C1020 1.539 . S
C1023 H1037 0.958 . S
C1023 H1038 0.961 . S
C1023 H1039 0.960 . S
H1024 C1008 0.931 . S
H1025 C1013 0.929 . S
H1026 C1014 0.960 . S
H1027 C1014 0.962 . S
H1028 C1014 0.960 . S
H1029 C1015 0.961 . S
H1030 C1015 0.961 . S
H1031 C1015 0.961 . S
H1032 C1016 0.931 . S
H1033 C1021 0.930 . S
H1034 C1022 0.956 . S
H1035 C1022 0.961 . S
H1036 C1022 0.961 . S
H1037 C1023 0.958 . S
H1038 C1023 0.961 . S
H1039 C1023 0.960 . S
C1040 C1041 1.391 . S
C1040 C1042 1.394 . S
C1040 H1056 0.931 . S
C1041 C1040 1.391 . S
C1041 C1045 1.376 . S
C1042 C1040 1.394 . S
C1042 C1043 1.369 . S
C1042 C1046 1.531 . S
C1043 C1042 1.369 . S
C1043 C1044 1.410 . S
C1043 C1051 1.503 . S
C1044 C1043 1.410 . S
C1044 C1045 1.392 . S
C1044 C1047 1.511 . S
C1045 C1041 1.376 . S
C1045 C1044 1.392 . S
C1045 H1057 0.929 . S
C1046 C1042 1.531 . S
C1046 H1058 0.960 . S
C1046 H1059 0.962 . S
C1046 H1060 0.960 . S
C1047 C1044 1.511 . S
C1047 H1061 0.961 . S
C1047 H1062 0.961 . S
C1047 H1063 0.961 . S
C1048 C1049 1.370 . S
C1048 C1050 1.363 . S
C1048 H1064 0.931 . S
C1049 C1048 1.370 . S
C1049 C1053 1.408 . S
C1050 C1048 1.363 . S
C1050 C1051 1.370 . S
C1050 C1054 1.524 . S
C1051 C1043 1.503 . S
C1051 C1050 1.370 . S
C1051 C1052 1.403 . S
C1052 C1051 1.403 . S
C1052 C1053 1.404 . S
C1052 C1055 1.539 . S
C1053 C1049 1.408 . S
C1053 C1052 1.404 . S
C1053 H1065 0.930 . S
C1054 C1050 1.524 . S
C1054 H1066 0.956 . S
C1054 H1067 0.961 . S
C1054 H1068 0.961 . S
C1055 C1052 1.539 . S
C1055 H1069 0.958 . S
C1055 H1070 0.961 . S
C1055 H1071 0.960 . S
H1056 C1040 0.931 . S
H1057 C1045 0.929 . S
H1058 C1046 0.960 . S
H1059 C1046 0.962 . S
H1060 C1046 0.960 . S
H1061 C1047 0.961 . S
H1062 C1047 0.961 . S
H1063 C1047 0.961 . S
H1064 C1048 0.931 . S
H1065 C1053 0.930 . S
H1066 C1054 0.956 . S
H1067 C1054 0.961 . S
H1068 C1054 0.961 . S
H1069 C1055 0.958 . S
H1070 C1055 0.961 . S
H1071 C1055 0.960 . S
C1072 C1073 1.391 . S
C1072 C1074 1.394 . S
C1072 H1088 0.931 . S
C1073 C1072 1.391 . S
C1073 C1077 1.376 . S
C1074 C1072 1.394 . S
C1074 C1075 1.369 . S
C1074 C1078 1.531 . S
C1075 C1074 1.369 . S
C1075 C1076 1.410 . S
C1075 C1083 1.503 . S
C1076 C1075 1.410 . S
C1076 C1077 1.392 . S
C1076 C1079 1.511 . S
C1077 C1073 1.376 . S
C1077 C1076 1.392 . S
C1077 H1089 0.929 . S
C1078 C1074 1.531 . S
C1078 H1090 0.960 . S
C1078 H1091 0.962 . S
C1078 H1092 0.960 . S
C1079 C1076 1.511 . S
C1079 H1093 0.961 . S
C1079 H1094 0.961 . S
C1079 H1095 0.961 . S
C1080 C1081 1.370 . S
C1080 C1082 1.363 . S
C1080 H1096 0.931 . S
C1081 C1080 1.370 . S
C1081 C1085 1.408 . S
C1082 C1080 1.363 . S
C1082 C1083 1.370 . S
C1082 C1086 1.524 . S
C1083 C1075 1.503 . S
C1083 C1082 1.370 . S
C1083 C1084 1.403 . S
C1084 C1083 1.403 . S
C1084 C1085 1.404 . S
C1084 C1087 1.539 . S
C1085 C1081 1.408 . S
C1085 C1084 1.404 . S
C1085 H1097 0.930 . S
C1086 C1082 1.524 . S
C1086 H1098 0.956 . S
C1086 H1099 0.961 . S
C1086 H1100 0.961 . S
C1087 C1084 1.539 . S
C1087 H1101 0.958 . S
C1087 H1102 0.961 . S
C1087 H1103 0.960 . S
H1088 C1072 0.931 . S
H1089 C1077 0.929 . S
H1090 C1078 0.960 . S
H1091 C1078 0.962 . S
H1092 C1078 0.960 . S
H1093 C1079 0.961 . S
H1094 C1079 0.961 . S
H1095 C1079 0.961 . S
H1096 C1080 0.931 . S
H1097 C1085 0.930 . S
H1098 C1086 0.956 . S
H1099 C1086 0.961 . S
H1100 C1086 0.961 . S
H1101 C1087 0.958 . S
H1102 C1087 0.961 . S
H1103 C1087 0.960 . S
C1104 C1105 1.391 . S
C1104 C1106 1.394 . S
C1104 H1120 0.931 . S
C1105 C1104 1.391 . S
C1105 C1109 1.376 . S
C1106 C1104 1.394 . S
C1106 C1107 1.369 . S
C1106 C1110 1.531 . S
C1107 C1106 1.369 . S
C1107 C1108 1.410 . S
C1107 C1115 1.503 . S
C1108 C1107 1.410 . S
C1108 C1109 1.392 . S
C1108 C1111 1.511 . S
C1109 C1105 1.376 . S
C1109 C1108 1.392 . S
C1109 H1121 0.929 . S
C1110 C1106 1.531 . S
C1110 H1122 0.960 . S
C1110 H1123 0.962 . S
C1110 H1124 0.960 . S
C1111 C1108 1.511 . S
C1111 H1125 0.961 . S
C1111 H1126 0.961 . S
C1111 H1127 0.961 . S
C1112 C1113 1.370 . S
C1112 C1114 1.363 . S
C1112 H1128 0.931 . S
C1113 C1112 1.370 . S
C1113 C1117 1.408 . S
C1114 C1112 1.363 . S
C1114 C1115 1.370 . S
C1114 C1118 1.524 . S
C1115 C1107 1.503 . S
C1115 C1114 1.370 . S
C1115 C1116 1.403 . S
C1116 C1115 1.403 . S
C1116 C1117 1.404 . S
C1116 C1119 1.539 . S
C1117 C1113 1.408 . S
C1117 C1116 1.404 . S
C1117 H1129 0.930 . S
C1118 C1114 1.524 . S
C1118 H1130 0.956 . S
C1118 H1131 0.961 . S
C1118 H1132 0.961 . S
C1119 C1116 1.539 . S
C1119 H1133 0.958 . S
C1119 H1134 0.961 . S
C1119 H1135 0.960 . S
H1120 C1104 0.931 . S
H1121 C1109 0.929 . S
H1122 C1110 0.960 . S
H1123 C1110 0.962 . S
H1124 C1110 0.960 . S
H1125 C1111 0.961 . S
H1126 C1111 0.961 . S
H1127 C1111 0.961 . S
H1128 C1112 0.931 . S
H1129 C1117 0.930 . S
H1130 C1118 0.956 . S
H1131 C1118 0.961 . S
H1132 C1118 0.961 . S
H1133 C1119 0.958 . S
H1134 C1119 0.961 . S
H1135 C1119 0.960 . S
C1136 C1137 1.391 . S
C1136 C1138 1.394 . S
C1136 H1152 0.931 . S
C1137 C1136 1.391 . S
C1137 C1141 1.376 . S
C1138 C1136 1.394 . S
C1138 C1139 1.369 . S
C1138 C1142 1.531 . S
C1139 C1138 1.369 . S
C1139 C1140 1.410 . S
C1139 C1147 1.503 . S
C1140 C1139 1.410 . S
C1140 C1141 1.392 . S
C1140 C1143 1.511 . S
C1141 C1137 1.376 . S
C1141 C1140 1.392 . S
C1141 H1153 0.929 . S
C1142 C1138 1.531 . S
C1142 H1154 0.960 . S
C1142 H1155 0.962 . S
C1142 H1156 0.960 . S
C1143 C1140 1.511 . S
C1143 H1157 0.961 . S
C1143 H1158 0.961 . S
C1143 H1159 0.961 . S
C1144 C1145 1.370 . S
C1144 C1146 1.363 . S
C1144 H1160 0.931 . S
C1145 C1144 1.370 . S
C1145 C1149 1.408 . S
C1146 C1144 1.363 . S
C1146 C1147 1.370 . S
C1146 C1150 1.524 . S
C1147 C1139 1.503 . S
C1147 C1146 1.370 . S
C1147 C1148 1.403 . S
C1148 C1147 1.403 . S
C1148 C1149 1.404 . S
C1148 C1151 1.539 . S
C1149 C1145 1.408 . S
C1149 C1148 1.404 . S
C1149 H1161 0.930 . S
C1150 C1146 1.524 . S
C1150 H1162 0.956 . S
C1150 H1163 0.961 . S
C1150 H1164 0.961 . S
C1151 C1148 1.539 . S
C1151 H1165 0.958 . S
C1151 H1166 0.961 . S
C1151 H1167 0.960 . S
H1152 C1136 0.931 . S
H1153 C1141 0.929 . S
H1154 C1142 0.960 . S
H1155 C1142 0.962 . S
H1156 C1142 0.960 . S
H1157 C1143 0.961 . S
H1158 C1143 0.961 . S
H1159 C1143 0.961 . S
H1160 C1144 0.931 . S
H1161 C1149 0.930 . S
H1162 C1150 0.956 . S
H1163 C1150 0.961 . S
H1164 C1150 0.961 . S
H1165 C1151 0.958 . S
H1166 C1151 0.961 . S
H1167 C1151 0.960 . S
C1168 C1169 1.391 . S
C1168 C1170 1.394 . S
C1168 H1184 0.931 . S
C1169 C1168 1.391 . S
C1169 C1173 1.376 . S
C1170 C1168 1.394 . S
C1170 C1171 1.369 . S
C1170 C1174 1.531 . S
C1171 C1170 1.369 . S
C1171 C1172 1.410 . S
C1171 C1179 1.503 . S
C1172 C1171 1.410 . S
C1172 C1173 1.392 . S
C1172 C1175 1.511 . S
C1173 C1169 1.376 . S
C1173 C1172 1.392 . S
C1173 H1185 0.929 . S
C1174 C1170 1.531 . S
C1174 H1186 0.960 . S
C1174 H1187 0.962 . S
C1174 H1188 0.960 . S
C1175 C1172 1.511 . S
C1175 H1189 0.961 . S
C1175 H1190 0.961 . S
C1175 H1191 0.961 . S
C1176 C1177 1.370 . S
C1176 C1178 1.363 . S
C1176 H1192 0.931 . S
C1177 C1176 1.370 . S
C1177 C1181 1.408 . S
C1178 C1176 1.363 . S
C1178 C1179 1.370 . S
C1178 C1182 1.524 . S
C1179 C1171 1.503 . S
C1179 C1178 1.370 . S
C1179 C1180 1.403 . S
C1180 C1179 1.403 . S
C1180 C1181 1.404 . S
C1180 C1183 1.539 . S
C1181 C1177 1.408 . S
C1181 C1180 1.404 . S
C1181 H1193 0.930 . S
C1182 C1178 1.524 . S
C1182 H1194 0.956 . S
C1182 H1195 0.961 . S
C1182 H1196 0.961 . S
C1183 C1180 1.539 . S
C1183 H1197 0.958 . S
C1183 H1198 0.961 . S
C1183 H1199 0.960 . S
H1184 C1168 0.931 . S
H1185 C1173 0.929 . S
H1186 C1174 0.960 . S
H1187 C1174 0.962 . S
H1188 C1174 0.960 . S
H1189 C1175 0.961 . S
H1190 C1175 0.961 . S
H1191 C1175 0.961 . S
H1192 C1176 0.931 . S
H1193 C1181 0.930 . S
H1194 C1182 0.956 . S
H1195 C1182 0.961 . S
H1196 C1182 0.961 . S
H1197 C1183 0.958 . S
H1198 C1183 0.961 . S
H1199 C1183 0.960 . S
C1200 C1201 1.391 . S
C1200 C1202 1.394 . S
C1200 H1216 0.931 . S
C1201 C1200 1.391 . S
C1201 C1205 1.376 . S
C1202 C1200 1.394 . S
C1202 C1203 1.369 . S
C1202 C1206 1.531 . S
C1203 C1202 1.369 . S
C1203 C1204 1.410 . S
C1203 C1211 1.503 . S
C1204 C1203 1.410 . S
C1204 C1205 1.392 . S
C1204 C1207 1.511 . S
C1205 C1201 1.376 . S
C1205 C1204 1.392 . S
C1205 H1217 0.929 . S
C1206 C1202 1.531 . S
C1206 H1218 0.960 . S
C1206 H1219 0.962 . S
C1206 H1220 0.960 . S
C1207 C1204 1.511 . S
C1207 H1221 0.961 . S
C1207 H1222 0.961 . S
C1207 H1223 0.961 . S
C1208 C1209 1.370 . S
C1208 C1210 1.363 . S
C1208 H1224 0.931 . S
C1209 C1208 1.370 . S
C1209 C1213 1.408 . S
C1210 C1208 1.363 . S
C1210 C1211 1.370 . S
C1210 C1214 1.524 . S
C1211 C1203 1.503 . S
C1211 C1210 1.370 . S
C1211 C1212 1.403 . S
C1212 C1211 1.403 . S
C1212 C1213 1.404 . S
C1212 C1215 1.539 . S
C1213 C1209 1.408 . S
C1213 C1212 1.404 . S
C1213 H1225 0.930 . S
C1214 C1210 1.524 . S
C1214 H1226 0.956 . S
C1214 H1227 0.961 . S
C1214 H1228 0.961 . S
C1215 C1212 1.539 . S
C1215 H1229 0.958 . S
C1215 H1230 0.961 . S
C1215 H1231 0.960 . S
H1216 C1200 0.931 . S
H1217 C1205 0.929 . S
H1218 C1206 0.960 . S
H1219 C1206 0.962 . S
H1220 C1206 0.960 . S
H1221 C1207 0.961 . S
H1222 C1207 0.961 . S
H1223 C1207 0.961 . S
H1224 C1208 0.931 . S
H1225 C1213 0.930 . S
H1226 C1214 0.956 . S
H1227 C1214 0.961 . S
H1228 C1214 0.961 . S
H1229 C1215 0.958 . S
H1230 C1215 0.961 . S
H1231 C1215 0.960 . S
C1232 C1233 1.391 . S
C1232 C1234 1.394 . S
C1232 H1248 0.931 . S
C1233 C1232 1.391 . S
C1233 C1237 1.376 . S
C1234 C1232 1.394 . S
C1234 C1235 1.369 . S
C1234 C1238 1.531 . S
C1235 C1234 1.369 . S
C1235 C1236 1.410 . S
C1235 C1243 1.503 . S
C1236 C1235 1.410 . S
C1236 C1237 1.392 . S
C1236 C1239 1.511 . S
C1237 C1233 1.376 . S
C1237 C1236 1.392 . S
C1237 H1249 0.929 . S
C1238 C1234 1.531 . S
C1238 H1250 0.960 . S
C1238 H1251 0.962 . S
C1238 H1252 0.960 . S
C1239 C1236 1.511 . S
C1239 H1253 0.961 . S
C1239 H1254 0.961 . S
C1239 H1255 0.961 . S
C1240 C1241 1.370 . S
C1240 C1242 1.363 . S
C1240 H1256 0.931 . S
C1241 C1240 1.370 . S
C1241 C1245 1.408 . S
C1242 C1240 1.363 . S
C1242 C1243 1.370 . S
C1242 C1246 1.524 . S
C1243 C1235 1.503 . S
C1243 C1242 1.370 . S
C1243 C1244 1.403 . S
C1244 C1243 1.403 . S
C1244 C1245 1.404 . S
C1244 C1247 1.539 . S
C1245 C1241 1.408 . S
C1245 C1244 1.404 . S
C1245 H1257 0.930 . S
C1246 C1242 1.524 . S
C1246 H1258 0.956 . S
C1246 H1259 0.961 . S
C1246 H1260 0.961 . S
C1247 C1244 1.539 . S
C1247 H1261 0.958 . S
C1247 H1262 0.961 . S
C1247 H1263 0.960 . S
H1248 C1232 0.931 . S
H1249 C1237 0.929 . S
H1250 C1238 0.960 . S
H1251 C1238 0.962 . S
H1252 C1238 0.960 . S
H1253 C1239 0.961 . S
H1254 C1239 0.961 . S
H1255 C1239 0.961 . S
H1256 C1240 0.931 . S
H1257 C1245 0.930 . S
H1258 C1246 0.956 . S
H1259 C1246 0.961 . S
H1260 C1246 0.961 . S
H1261 C1247 0.958 . S
H1262 C1247 0.961 . S
H1263 C1247 0.960 . S
C1264 C1265 1.391 . S
C1264 C1266 1.394 . S
C1264 H1280 0.931 . S
C1265 C1264 1.391 . S
C1265 C1269 1.376 . S
C1266 C1264 1.394 . S
C1266 C1267 1.369 . S
C1266 C1270 1.531 . S
C1267 C1266 1.369 . S
C1267 C1268 1.410 . S
C1267 C1275 1.503 . S
C1268 C1267 1.410 . S
C1268 C1269 1.392 . S
C1268 C1271 1.511 . S
C1269 C1265 1.376 . S
C1269 C1268 1.392 . S
C1269 H1281 0.929 . S
C1270 C1266 1.531 . S
C1270 H1282 0.960 . S
C1270 H1283 0.962 . S
C1270 H1284 0.960 . S
C1271 C1268 1.511 . S
C1271 H1285 0.961 . S
C1271 H1286 0.961 . S
C1271 H1287 0.961 . S
C1272 C1273 1.370 . S
C1272 C1274 1.363 . S
C1272 H1288 0.931 . S
C1273 C1272 1.370 . S
C1273 C1277 1.408 . S
C1274 C1272 1.363 . S
C1274 C1275 1.370 . S
C1274 C1278 1.524 . S
C1275 C1267 1.503 . S
C1275 C1274 1.370 . S
C1275 C1276 1.403 . S
C1276 C1275 1.403 . S
C1276 C1277 1.404 . S
C1276 C1279 1.539 . S
C1277 C1273 1.408 . S
C1277 C1276 1.404 . S
C1277 H1289 0.930 . S
C1278 C1274 1.524 . S
C1278 H1290 0.956 . S
C1278 H1291 0.961 . S
C1278 H1292 0.961 . S
C1279 C1276 1.539 . S
C1279 H1293 0.958 . S
C1279 H1294 0.961 . S
C1279 H1295 0.960 . S
H1280 C1264 0.931 . S
H1281 C1269 0.929 . S
H1282 C1270 0.960 . S
H1283 C1270 0.962 . S
H1284 C1270 0.960 . S
H1285 C1271 0.961 . S
H1286 C1271 0.961 . S
H1287 C1271 0.961 . S
H1288 C1272 0.931 . S
H1289 C1277 0.930 . S
H1290 C1278 0.956 . S
H1291 C1278 0.961 . S
H1292 C1278 0.961 . S
H1293 C1279 0.958 . S
H1294 C1279 0.961 . S
H1295 C1279 0.960 . S
C1296 C1297 1.391 . S
C1296 C1298 1.394 . S
C1296 H1312 0.931 . S
C1297 C1296 1.391 . S
C1297 C1301 1.376 . S
C1298 C1296 1.394 . S
C1298 C1299 1.369 . S
C1298 C1302 1.531 . S
C1299 C1298 1.369 . S
C1299 C1300 1.410 . S
C1299 C1307 1.503 . S
C1300 C1299 1.410 . S
C1300 C1301 1.392 . S
C1300 C1303 1.511 . S
C1301 C1297 1.376 . S
C1301 C1300 1.392 . S
C1301 H1313 0.929 . S
C1302 C1298 1.531 . S
C1302 H1314 0.960 . S
C1302 H1315 0.962 . S
C1302 H1316 0.960 . S
C1303 C1300 1.511 . S
C1303 H1317 0.961 . S
C1303 H1318 0.961 . S
C1303 H1319 0.961 . S
C1304 C1305 1.370 . S
C1304 C1306 1.363 . S
C1304 H1320 0.931 . S
C1305 C1304 1.370 . S
C1305 C1309 1.408 . S
C1306 C1304 1.363 . S
C1306 C1307 1.370 . S
C1306 C1310 1.524 . S
C1307 C1299 1.503 . S
C1307 C1306 1.370 . S
C1307 C1308 1.403 . S
C1308 C1307 1.403 . S
C1308 C1309 1.404 . S
C1308 C1311 1.539 . S
C1309 C1305 1.408 . S
C1309 C1308 1.404 . S
C1309 H1321 0.930 . S
C1310 C1306 1.524 . S
C1310 H1322 0.956 . S
C1310 H1323 0.961 . S
C1310 H1324 0.961 . S
C1311 C1308 1.539 . S
C1311 H1325 0.958 . S
C1311 H1326 0.961 . S
C1311 H1327 0.960 . S
H1312 C1296 0.931 . S
H1313 C1301 0.929 . S
H1314 C1302 0.960 . S
H1315 C1302 0.962 . S
H1316 C1302 0.960 . S
H1317 C1303 0.961 . S
H1318 C1303 0.961 . S
H1319 C1303 0.961 . S
H1320 C1304 0.931 . S
H1321 C1309 0.930 . S
H1322 C1310 0.956 . S
H1323 C1310 0.961 . S
H1324 C1310 0.961 . S
H1325 C1311 0.958 . S
H1326 C1311 0.961 . S
H1327 C1311 0.960 . S
C1328 C1329 1.391 . S
C1328 C1330 1.394 . S
C1328 H1344 0.931 . S
C1329 C1328 1.391 . S
C1329 C1333 1.376 . S
C1330 C1328 1.394 . S
C1330 C1331 1.369 . S
C1330 C1334 1.531 . S
C1331 C1330 1.369 . S
C1331 C1332 1.410 . S
C1331 C1339 1.503 . S
C1332 C1331 1.410 . S
C1332 C1333 1.392 . S
C1332 C1335 1.511 . S
C1333 C1329 1.376 . S
C1333 C1332 1.392 . S
C1333 H1345 0.929 . S
C1334 C1330 1.531 . S
C1334 H1346 0.960 . S
C1334 H1347 0.962 . S
C1334 H1348 0.960 . S
C1335 C1332 1.511 . S
C1335 H1349 0.961 . S
C1335 H1350 0.961 . S
C1335 H1351 0.961 . S
C1336 C1337 1.370 . S
C1336 C1338 1.363 . S
C1336 H1352 0.931 . S
C1337 C1336 1.370 . S
C1337 C1341 1.408 . S
C1338 C1336 1.363 . S
C1338 C1339 1.370 . S
C1338 C1342 1.524 . S
C1339 C1331 1.503 . S
C1339 C1338 1.370 . S
C1339 C1340 1.403 . S
C1340 C1339 1.403 . S
C1340 C1341 1.404 . S
C1340 C1343 1.539 . S
C1341 C1337 1.408 . S
C1341 C1340 1.404 . S
C1341 H1353 0.930 . S
C1342 C1338 1.524 . S
C1342 H1354 0.956 . S
C1342 H1355 0.961 . S
C1342 H1356 0.961 . S
C1343 C1340 1.539 . S
C1343 H1357 0.958 . S
C1343 H1358 0.961 . S
C1343 H1359 0.960 . S
H1344 C1328 0.931 . S
H1345 C1333 0.929 . S
H1346 C1334 0.960 . S
H1347 C1334 0.962 . S
H1348 C1334 0.960 . S
H1349 C1335 0.961 . S
H1350 C1335 0.961 . S
H1351 C1335 0.961 . S
H1352 C1336 0.931 . S
H1353 C1341 0.930 . S
H1354 C1342 0.956 . S
H1355 C1342 0.961 . S
H1356 C1342 0.961 . S
H1357 C1343 0.958 . S
H1358 C1343 0.961 . S
H1359 C1343 0.960 . S
C1360 C1361 1.391 . S
C1360 C1362 1.394 . S
C1360 H1376 0.931 . S
C1361 C1360 1.391 . S
C1361 C1365 1.376 . S
C1362 C1360 1.394 . S
C1362 C1363 1.369 . S
C1362 C1366 1.531 . S
C1363 C1362 1.369 . S
C1363 C1364 1.410 . S
C1363 C1371 1.503 . S
C1364 C1363 1.410 . S
C1364 C1365 1.392 . S
C1364 C1367 1.511 . S
C1365 C1361 1.376 . S
C1365 C1364 1.392 . S
C1365 H1377 0.929 . S
C1366 C1362 1.531 . S
C1366 H1378 0.960 . S
C1366 H1379 0.962 . S
C1366 H1380 0.960 . S
C1367 C1364 1.511 . S
C1367 H1381 0.961 . S
C1367 H1382 0.961 . S
C1367 H1383 0.961 . S
C1368 C1369 1.370 . S
C1368 C1370 1.363 . S
C1368 H1384 0.931 . S
C1369 C1368 1.370 . S
C1369 C1373 1.408 . S
C1370 C1368 1.363 . S
C1370 C1371 1.370 . S
C1370 C1374 1.524 . S
C1371 C1363 1.503 . S
C1371 C1370 1.370 . S
C1371 C1372 1.403 . S
C1372 C1371 1.403 . S
C1372 C1373 1.404 . S
C1372 C1375 1.539 . S
C1373 C1369 1.408 . S
C1373 C1372 1.404 . S
C1373 H1385 0.930 . S
C1374 C1370 1.524 . S
C1374 H1386 0.956 . S
C1374 H1387 0.961 . S
C1374 H1388 0.961 . S
C1375 C1372 1.539 . S
C1375 H1389 0.958 . S
C1375 H1390 0.961 . S
C1375 H1391 0.960 . S
H1376 C1360 0.931 . S
H1377 C1365 0.929 . S
H1378 C1366 0.960 . S
H1379 C1366 0.962 . S
H1380 C1366 0.960 . S
H1381 C1367 0.961 . S
H1382 C1367 0.961 . S
H1383 C1367 0.961 . S
H1384 C1368 0.931 . S
H1385 C1373 0.930 . S
H1386 C1374 0.956 . S
H1387 C1374 0.961 . S
H1388 C1374 0.961 . S
H1389 C1375 0.958 . S
H1390 C1375 0.961 . S
H1391 C1375 0.960 . S
C1392 C1393 1.391 . S
C1392 C1394 1.394 . S
C1392 H1408 0.931 . S
C1393 C1392 1.391 . S
C1393 C1397 1.376 . S
C1394 C1392 1.394 . S
C1394 C1395 1.369 . S
C1394 C1398 1.531 . S
C1395 C1394 1.369 . S
C1395 C1396 1.410 . S
C1395 C1403 1.503 . S
C1396 C1395 1.410 . S
C1396 C1397 1.392 . S
C1396 C1399 1.511 . S
C1397 C1393 1.376 . S
C1397 C1396 1.392 . S
C1397 H1409 0.929 . S
C1398 C1394 1.531 . S
C1398 H1410 0.960 . S
C1398 H1411 0.962 . S
C1398 H1412 0.960 . S
C1399 C1396 1.511 . S
C1399 H1413 0.961 . S
C1399 H1414 0.961 . S
C1399 H1415 0.961 . S
C1400 C1401 1.370 . S
C1400 C1402 1.363 . S
C1400 H1416 0.931 . S
C1401 C1400 1.370 . S
C1401 C1405 1.408 . S
C1402 C1400 1.363 . S
C1402 C1403 1.370 . S
C1402 C1406 1.524 . S
C1403 C1395 1.503 . S
C1403 C1402 1.370 . S
C1403 C1404 1.403 . S
C1404 C1403 1.403 . S
C1404 C1405 1.404 . S
C1404 C1407 1.539 . S
C1405 C1401 1.408 . S
C1405 C1404 1.404 . S
C1405 H1417 0.930 . S
C1406 C1402 1.524 . S
C1406 H1418 0.956 . S
C1406 H1419 0.961 . S
C1406 H1420 0.961 . S
C1407 C1404 1.539 . S
C1407 H1421 0.958 . S
C1407 H1422 0.961 . S
C1407 H1423 0.960 . S
H1408 C1392 0.931 . S
H1409 C1397 0.929 . S
H1410 C1398 0.960 . S
H1411 C1398 0.962 . S
H1412 C1398 0.960 . S
H1413 C1399 0.961 . S
H1414 C1399 0.961 . S
H1415 C1399 0.961 . S
H1416 C1400 0.931 . S
H1417 C1405 0.930 . S
H1418 C1406 0.956 . S
H1419 C1406 0.961 . S
H1420 C1406 0.961 . S
H1421 C1407 0.958 . S
H1422 C1407 0.961 . S
H1423 C1407 0.960 . S
C1424 C1425 1.391 . S
C1424 C1426 1.394 . S
C1424 H1440 0.931 . S
C1425 C1424 1.391 . S
C1425 C1429 1.376 . S
C1426 C1424 1.394 . S
C1426 C1427 1.369 . S
C1426 C1430 1.531 . S
C1427 C1426 1.369 . S
C1427 C1428 1.410 . S
C1427 C1435 1.503 . S
C1428 C1427 1.410 . S
C1428 C1429 1.392 . S
C1428 C1431 1.511 . S
C1429 C1425 1.376 . S
C1429 C1428 1.392 . S
C1429 H1441 0.929 . S
C1430 C1426 1.531 . S
C1430 H1442 0.960 . S
C1430 H1443 0.962 . S
C1430 H1444 0.960 . S
C1431 C1428 1.511 . S
C1431 H1445 0.961 . S
C1431 H1446 0.961 . S
C1431 H1447 0.961 . S
C1432 C1433 1.370 . S
C1432 C1434 1.363 . S
C1432 H1448 0.931 . S
C1433 C1432 1.370 . S
C1433 C1437 1.408 . S
C1434 C1432 1.363 . S
C1434 C1435 1.370 . S
C1434 C1438 1.524 . S
C1435 C1427 1.503 . S
C1435 C1434 1.370 . S
C1435 C1436 1.403 . S
C1436 C1435 1.403 . S
C1436 C1437 1.404 . S
C1436 C1439 1.539 . S
C1437 C1433 1.408 . S
C1437 C1436 1.404 . S
C1437 H1449 0.930 . S
C1438 C1434 1.524 . S
C1438 H1450 0.956 . S
C1438 H1451 0.961 . S
C1438 H1452 0.961 . S
C1439 C1436 1.539 . S
C1439 H1453 0.958 . S
C1439 H1454 0.961 . S
C1439 H1455 0.960 . S
H1440 C1424 0.931 . S
H1441 C1429 0.929 . S
H1442 C1430 0.960 . S
H1443 C1430 0.962 . S
H1444 C1430 0.960 . S
H1445 C1431 0.961 . S
H1446 C1431 0.961 . S
H1447 C1431 0.961 . S
H1448 C1432 0.931 . S
H1449 C1437 0.930 . S
H1450 C1438 0.956 . S
H1451 C1438 0.961 . S
H1452 C1438 0.961 . S
H1453 C1439 0.958 . S
H1454 C1439 0.961 . S
H1455 C1439 0.960 . S
C1456 C1457 1.391 . S
C1456 C1458 1.394 . S
C1456 H1472 0.931 . S
C1457 C1456 1.391 . S
C1457 C1461 1.376 . S
C1458 C1456 1.394 . S
C1458 C1459 1.369 . S
C1458 C1462 1.531 . S
C1459 C1458 1.369 . S
C1459 C1460 1.410 . S
C1459 C1467 1.503 . S
C1460 C1459 1.410 . S
C1460 C1461 1.392 . S
C1460 C1463 1.511 . S
C1461 C1457 1.376 . S
C1461 C1460 1.392 . S
C1461 H1473 0.929 . S
C1462 C1458 1.531 . S
C1462 H1474 0.960 . S
C1462 H1475 0.962 . S
C1462 H1476 0.960 . S
C1463 C1460 1.511 . S
C1463 H1477 0.961 . S
C1463 H1478 0.961 . S
C1463 H1479 0.961 . S
C1464 C1465 1.370 . S
C1464 C1466 1.363 . S
C1464 H1480 0.931 . S
C1465 C1464 1.370 . S
C1465 C1469 1.408 . S
C1466 C1464 1.363 . S
C1466 C1467 1.370 . S
C1466 C1470 1.524 . S
C1467 C1459 1.503 . S
C1467 C1466 1.370 . S
C1467 C1468 1.403 . S
C1468 C1467 1.403 . S
C1468 C1469 1.404 . S
C1468 C1471 1.539 . S
C1469 C1465 1.408 . S
C1469 C1468 1.404 . S
C1469 H1481 0.930 . S
C1470 C1466 1.524 . S
C1470 H1482 0.956 . S
C1470 H1483 0.961 . S
C1470 H1484 0.961 . S
C1471 C1468 1.539 . S
C1471 H1485 0.958 . S
C1471 H1486 0.961 . S
C1471 H1487 0.960 . S
H1472 C1456 0.931 . S
H1473 C1461 0.929 . S
H1474 C1462 0.960 . S
H1475 C1462 0.962 . S
H1476 C1462 0.960 . S
H1477 C1463 0.961 . S
H1478 C1463 0.961 . S
H1479 C1463 0.961 . S
H1480 C1464 0.931 . S
H1481 C1469 0.930 . S
H1482 C1470 0.956 . S
H1483 C1470 0.961 . S
H1484 C1470 0.961 . S
H1485 C1471 0.958 . S
H1486 C1471 0.961 . S
H1487 C1471 0.960 . S
C1488 C1489 1.391 . S
C1488 C1490 1.394 . S
C1488 H1504 0.931 . S
C1489 C1488 1.391 . S
C1489 C1493 1.376 . S
C1490 C1488 1.394 . S
C1490 C1491 1.369 . S
C1490 C1494 1.531 . S
C1491 C1490 1.369 . S
C1491 C1492 1.410 . S
C1491 C1499 1.503 . S
C1492 C1491 1.410 . S
C1492 C1493 1.392 . S
C1492 C1495 1.511 . S
C1493 C1489 1.376 . S
C1493 C1492 1.392 . S
C1493 H1505 0.929 . S
C1494 C1490 1.531 . S
C1494 H1506 0.960 . S
C1494 H1507 0.962 . S
C1494 H1508 0.960 . S
C1495 C1492 1.511 . S
C1495 H1509 0.961 . S
C1495 H1510 0.961 . S
C1495 H1511 0.961 . S
C1496 C1497 1.370 . S
C1496 C1498 1.363 . S
C1496 H1512 0.931 . S
C1497 C1496 1.370 . S
C1497 C1501 1.408 . S
C1498 C1496 1.363 . S
C1498 C1499 1.370 . S
C1498 C1502 1.524 . S
C1499 C1491 1.503 . S
C1499 C1498 1.370 . S
C1499 C1500 1.403 . S
C1500 C1499 1.403 . S
C1500 C1501 1.404 . S
C1500 C1503 1.539 . S
C1501 C1497 1.408 . S
C1501 C1500 1.404 . S
C1501 H1513 0.930 . S
C1502 C1498 1.524 . S
C1502 H1514 0.956 . S
C1502 H1515 0.961 . S
C1502 H1516 0.961 . S
C1503 C1500 1.539 . S
C1503 H1517 0.958 . S
C1503 H1518 0.961 . S
C1503 H1519 0.960 . S
H1504 C1488 0.931 . S
H1505 C1493 0.929 . S
H1506 C1494 0.960 . S
H1507 C1494 0.962 . S
H1508 C1494 0.960 . S
H1509 C1495 0.961 . S
H1510 C1495 0.961 . S
H1511 C1495 0.961 . S
H1512 C1496 0.931 . S
H1513 C1501 0.930 . S
H1514 C1502 0.956 . S
H1515 C1502 0.961 . S
H1516 C1502 0.961 . S
H1517 C1503 0.958 . S
H1518 C1503 0.961 . S
H1519 C1503 0.960 . S
C505 C406 1.338 . S
C497 C36 1.323 . S
C537 C420 1.341 . S
C529 C93 1.334 . S
C569 C435 1.322 . S
C561 C126 1.294 . S
C593 C165 1.265 . S
C601 C393 1.312 . S
C625 C222 1.294 . S
C633 C392 1.320 . S
C657 C261 1.269 . S
C665 C407 1.309 . S
C697 C421 1.338 . S
C689 C318 1.308 . S
C729 C434 1.360 . S
C721 C381 1.314 . S
C753 C132 1.291 . S
C761 C462 1.333 . S
C793 C476 1.372 . S
C785 C189 1.317 . S
C817 C30 1.274 . S
C825 C491 1.294 . S
C857 C448 1.310 . S
C849 C69 1.304 . S
C881 C324 1.290 . S
C889 C449 1.329 . S
C913 C357 1.299 . S
C921 C463 1.307 . S
C953 C477 1.334 . S
C945 C228 1.305 . S
C977 C285 1.338 . S
C985 C490 1.371 . S
C1017 C415 1.739 . S
C1009 C45 1.740 . S
C1049 C433 1.696 . S
C1041 C84 1.739 . S
C1073 C117 1.708 . S
C1081 C391 1.702 . S
C1105 C174 1.696 . S
C1113 C401 1.758 . S
C1137 C213 1.707 . S
C1145 C429 1.734 . S
C1177 C387 1.735 . S
C1169 C270 1.722 . S
C1209 C405 1.706 . S
C1201 C309 1.730 . S
C1241 C419 1.685 . S
C1233 C372 1.717 . S
C1273 C471 1.732 . S
C1265 C141 1.736 . S
C1305 C489 1.683 . S
C1297 C180 1.710 . S
C1329 C21 1.720 . S
C1337 C443 1.738 . S
C1369 C457 1.734 . S
C1361 C78 1.670 . S
C1401 C485 1.755 . S
C1393 C333 1.741 . S
C1425 C366 1.685 . S
C1433 C447 1.702 . S
C1465 C461 1.714 . S
C1457 C237 1.750 . S
C1497 C475 1.704 . S
C1489 C276 1.745 . S
