# Generated by pormake.
# Topology ctn, (3,4)-cn, num edge types: 1
# Building blocks:
#     Node 0, Type 0, BuildingBlock: BETDAH_clean_linker_0, # of connection points: 3
#     Node 1, Type 0, BuildingBlock: BETDAH_clean_linker_0, # of connection points: 3
#     Node 2, Type 0, BuildingBlock: BETDAH_clean_linker_0, # of connection points: 3
#     Node 3, Type 0, BuildingBlock: BETDAH_clean_linker_0, # of connection points: 3
#     Node 4, Type 0, BuildingBlock: BETDAH_clean_linker_0, # of connection points: 3
#     Node 5, Type 0, BuildingBlock: BETDAH_clean_linker_0, # of connection points: 3
#     Node 6, Type 0, BuildingBlock: BETDAH_clean_linker_0, # of connection points: 3
#     Node 7, Type 0, BuildingBlock: BETDAH_clean_linker_0, # of connection points: 3
#     Node 8, Type 0, BuildingBlock: BETDAH_clean_linker_0, # of connection points: 3
#     Node 9, Type 0, BuildingBlock: BETDAH_clean_linker_0, # of connection points: 3
#     Node 10, Type 0, BuildingBlock: BETDAH_clean_linker_0, # of connection points: 3
#     Node 11, Type 0, BuildingBlock: BETDAH_clean_linker_0, # of connection points: 3
#     Node 12, Type 0, BuildingBlock: BETDAH_clean_linker_0, # of connection points: 3
#     Node 13, Type 0, BuildingBlock: BETDAH_clean_linker_0, # of connection points: 3
#     Node 14, Type 0, BuildingBlock: BETDAH_clean_linker_0, # of connection points: 3
#     Node 15, Type 0, BuildingBlock: BETDAH_clean_linker_0, # of connection points: 3
#     Node 16, Type 1, BuildingBlock: UXUYUI_clean_sbu_0, # of connection points: 4
#     Node 17, Type 1, BuildingBlock: UXUYUI_clean_sbu_0, # of connection points: 4
#     Node 18, Type 1, BuildingBlock: UXUYUI_clean_sbu_0, # of connection points: 4
#     Node 19, Type 1, BuildingBlock: UXUYUI_clean_sbu_0, # of connection points: 4
#     Node 20, Type 1, BuildingBlock: UXUYUI_clean_sbu_0, # of connection points: 4
#     Node 21, Type 1, BuildingBlock: UXUYUI_clean_sbu_0, # of connection points: 4
#     Node 22, Type 1, BuildingBlock: UXUYUI_clean_sbu_0, # of connection points: 4
#     Node 23, Type 1, BuildingBlock: UXUYUI_clean_sbu_0, # of connection points: 4
#     Node 24, Type 1, BuildingBlock: UXUYUI_clean_sbu_0, # of connection points: 4
#     Node 25, Type 1, BuildingBlock: UXUYUI_clean_sbu_0, # of connection points: 4
#     Node 26, Type 1, BuildingBlock: UXUYUI_clean_sbu_0, # of connection points: 4
#     Node 27, Type 1, BuildingBlock: UXUYUI_clean_sbu_0, # of connection points: 4
#     Edge 28, Type (0, 1), BuildingBlock: MIFKUJ_clean_linker_0, # of connection points: 2
#     Edge 29, Type (0, 1), BuildingBlock: MIFKUJ_clean_linker_0, # of connection points: 2
#     Edge 30, Type (0, 1), BuildingBlock: MIFKUJ_clean_linker_0, # of connection points: 2
#     Edge 31, Type (0, 1), BuildingBlock: MIFKUJ_clean_linker_0, # of connection points: 2
#     Edge 32, Type (0, 1), BuildingBlock: MIFKUJ_clean_linker_0, # of connection points: 2
#     Edge 33, Type (0, 1), BuildingBlock: MIFKUJ_clean_linker_0, # of connection points: 2
#     Edge 34, Type (0, 1), BuildingBlock: MIFKUJ_clean_linker_0, # of connection points: 2
#     Edge 35, Type (0, 1), BuildingBlock: MIFKUJ_clean_linker_0, # of connection points: 2
#     Edge 36, Type (0, 1), BuildingBlock: MIFKUJ_clean_linker_0, # of connection points: 2
#     Edge 37, Type (0, 1), BuildingBlock: MIFKUJ_clean_linker_0, # of connection points: 2
#     Edge 38, Type (0, 1), BuildingBlock: MIFKUJ_clean_linker_0, # of connection points: 2
#     Edge 39, Type (0, 1), BuildingBlock: MIFKUJ_clean_linker_0, # of connection points: 2
#     Edge 40, Type (0, 1), BuildingBlock: MIFKUJ_clean_linker_0, # of connection points: 2
#     Edge 41, Type (0, 1), BuildingBlock: MIFKUJ_clean_linker_0, # of connection points: 2
#     Edge 42, Type (0, 1), BuildingBlock: MIFKUJ_clean_linker_0, # of connection points: 2
#     Edge 43, Type (0, 1), BuildingBlock: MIFKUJ_clean_linker_0, # of connection points: 2
#     Edge 44, Type (0, 1), BuildingBlock: MIFKUJ_clean_linker_0, # of connection points: 2
#     Edge 45, Type (0, 1), BuildingBlock: MIFKUJ_clean_linker_0, # of connection points: 2
#     Edge 46, Type (0, 1), BuildingBlock: MIFKUJ_clean_linker_0, # of connection points: 2
#     Edge 47, Type (0, 1), BuildingBlock: MIFKUJ_clean_linker_0, # of connection points: 2
#     Edge 48, Type (0, 1), BuildingBlock: MIFKUJ_clean_linker_0, # of connection points: 2
#     Edge 49, Type (0, 1), BuildingBlock: MIFKUJ_clean_linker_0, # of connection points: 2
#     Edge 50, Type (0, 1), BuildingBlock: MIFKUJ_clean_linker_0, # of connection points: 2
#     Edge 51, Type (0, 1), BuildingBlock: MIFKUJ_clean_linker_0, # of connection points: 2
#     Edge 52, Type (0, 1), BuildingBlock: MIFKUJ_clean_linker_0, # of connection points: 2
#     Edge 53, Type (0, 1), BuildingBlock: MIFKUJ_clean_linker_0, # of connection points: 2
#     Edge 54, Type (0, 1), BuildingBlock: MIFKUJ_clean_linker_0, # of connection points: 2
#     Edge 55, Type (0, 1), BuildingBlock: MIFKUJ_clean_linker_0, # of connection points: 2
#     Edge 56, Type (0, 1), BuildingBlock: MIFKUJ_clean_linker_0, # of connection points: 2
#     Edge 57, Type (0, 1), BuildingBlock: MIFKUJ_clean_linker_0, # of connection points: 2
#     Edge 58, Type (0, 1), BuildingBlock: MIFKUJ_clean_linker_0, # of connection points: 2
#     Edge 59, Type (0, 1), BuildingBlock: MIFKUJ_clean_linker_0, # of connection points: 2
#     Edge 60, Type (0, 1), BuildingBlock: MIFKUJ_clean_linker_0, # of connection points: 2
#     Edge 61, Type (0, 1), BuildingBlock: MIFKUJ_clean_linker_0, # of connection points: 2
#     Edge 62, Type (0, 1), BuildingBlock: MIFKUJ_clean_linker_0, # of connection points: 2
#     Edge 63, Type (0, 1), BuildingBlock: MIFKUJ_clean_linker_0, # of connection points: 2
#     Edge 64, Type (0, 1), BuildingBlock: MIFKUJ_clean_linker_0, # of connection points: 2
#     Edge 65, Type (0, 1), BuildingBlock: MIFKUJ_clean_linker_0, # of connection points: 2
#     Edge 66, Type (0, 1), BuildingBlock: MIFKUJ_clean_linker_0, # of connection points: 2
#     Edge 67, Type (0, 1), BuildingBlock: MIFKUJ_clean_linker_0, # of connection points: 2
#     Edge 68, Type (0, 1), BuildingBlock: MIFKUJ_clean_linker_0, # of connection points: 2
#     Edge 69, Type (0, 1), BuildingBlock: MIFKUJ_clean_linker_0, # of connection points: 2
#     Edge 70, Type (0, 1), BuildingBlock: MIFKUJ_clean_linker_0, # of connection points: 2
#     Edge 71, Type (0, 1), BuildingBlock: MIFKUJ_clean_linker_0, # of connection points: 2
#     Edge 72, Type (0, 1), BuildingBlock: MIFKUJ_clean_linker_0, # of connection points: 2
#     Edge 73, Type (0, 1), BuildingBlock: MIFKUJ_clean_linker_0, # of connection points: 2
#     Edge 74, Type (0, 1), BuildingBlock: MIFKUJ_clean_linker_0, # of connection points: 2
#     Edge 75, Type (0, 1), BuildingBlock: MIFKUJ_clean_linker_0, # of connection points: 2
# Relax obj value: 0.050
# Max RMSD: 0.166
# Mean RMSD: 0.106
data_MOF--net-ctn--node1-UXUYUI_clean_sbu_0--node2-BETDAH_clean_linker_0--edge1-MIFKUJ_clean_linker_0
_symmetry_space_group_name_H-M    P1
_symmetry_Int_Tables_number       1
_symmetry_cell_setting            triclinic
loop_
_symmetry_equiv_pos_as_xyz
'x, y, z'
_cell_length_a     83.693667
_cell_length_b     83.650823
_cell_length_c     84.725622
_cell_angle_alpha  97.948579
_cell_angle_beta   90.370323
_cell_angle_gamma 94.369527
loop_
_atom_site_label
_atom_site_type_symbol
_atom_site_fract_x
_atom_site_fract_y
_atom_site_fract_z
_atom_type_partial_charge
H0 H 0.07224 0.02768 0.09024 0.0
H1 H 0.07444 0.04394 0.04409 0.0
H2 H 0.03576 0.05615 0.07534 0.0
C3 C 0.06725 0.03416 0.08138 0.0
C4 C 0.05322 0.0421 0.08478 0.0
C5 C 0.07499 0.03461 0.0667 0.0
C6 C 0.06879 0.04367 0.05553 0.0
C7 C 0.05461 0.05146 0.05876 0.0
C8 C 0.0469 0.05046 0.07322 0.0
N9 N 0.04696 0.05938 0.04739 0.0
C10 C 0.05464 0.06765 0.0361 0.0
H11 H 0.31188 0.69976 0.24844 0.0
H12 H 0.32425 0.73517 0.21712 0.0
H13 H 0.28533 0.69904 0.20478 0.0
C14 C 0.30972 0.70495 0.23767 0.0
C15 C 0.29713 0.69803 0.22731 0.0
C16 C 0.31968 0.71832 0.23415 0.0
C17 C 0.31671 0.72493 0.22005 0.0
C18 C 0.3042 0.71794 0.20953 0.0
C19 C 0.29468 0.70451 0.21317 0.0
N20 N 0.30127 0.72337 0.19471 0.0
C21 C 0.30447 0.73906 0.19127 0.0
H22 H 0.00874 0.45021 0.05386 0.0
H23 H 0.98491 0.49458 0.05878 0.0
H24 H 0.98276 0.46299 0.0142 0.0
C25 C 1.00116 0.45835 0.04902 0.0
C26 C 0.99588 0.45463 0.03309 0.0
C27 C 0.99741 0.47277 0.05846 0.0
C28 C 0.98795 0.48345 0.05172 0.0
C29 C 0.98275 0.47988 0.03569 0.0
C30 C 0.9869 0.46564 0.02651 0.0
N31 N 0.97394 0.49055 0.02804 0.0
C32 C 0.96389 0.50167 0.03547 0.0
H33 H 0.7605 0.80946 0.2096 0.0
H34 H 0.72239 0.78161 0.23001 0.0
H35 H 0.74554 0.82416 0.25742 0.0
C36 C 0.75267 0.80759 0.21941 0.0
C37 C 0.75414 0.81865 0.23348 0.0
C38 C 0.74125 0.79413 0.21793 0.0
C39 C 0.73125 0.79184 0.23092 0.0
C40 C 0.73286 0.80276 0.24517 0.0
C41 C 0.74429 0.81596 0.24631 0.0
N42 N 0.72365 0.80082 0.25888 0.0
C43 C 0.70957 0.79097 0.25941 0.0
H44 H 0.05978 0.99838 0.46963 0.0
H45 H 0.06513 0.96674 0.50505 0.0
H46 H 0.0228 0.96112 0.47507 0.0
C47 C 0.05517 0.98831 0.47552 0.0
C48 C 0.04027 0.98027 0.47073 0.0
C49 C 0.06417 0.9836 0.48794 0.0
C50 C 0.05826 0.9704 0.49547 0.0
C51 C 0.04316 0.96241 0.49088 0.0
C52 C 0.03432 0.96747 0.47863 0.0
N53 N 0.03608 0.94946 0.4983 0.0
C54 C 0.04329 0.94129 0.50932 0.0
H55 H 0.26074 0.71053 0.83421 0.0
H56 H 0.2158 0.72334 0.8164 0.0
H57 H 0.23797 0.68206 0.79282 0.0
C58 C 0.25106 0.70838 0.82542 0.0
C59 C 0.25096 0.69501 0.81339 0.0
C60 C 0.23837 0.71857 0.82666 0.0
C61 C 0.22558 0.7155 0.8155 0.0
C62 C 0.22555 0.70234 0.80319 0.0
C63 C 0.23814 0.69217 0.80234 0.0
N64 N 0.21309 0.69868 0.79148 0.0
C65 C 0.20051 0.70816 0.78936 0.0
H66 H 0.95154 0.55045 0.50835 0.0
H67 H 0.99451 0.55299 0.48052 0.0
H68 H 0.96437 0.50878 0.4769 0.0
C69 C 0.95944 0.54498 0.49943 0.0
C70 C 0.95603 0.52871 0.49287 0.0
C71 C 0.9734 0.55389 0.49527 0.0
C72 C 0.98374 0.54637 0.48392 0.0
C73 C 0.98043 0.53006 0.47738 0.0
C74 C 0.96676 0.52135 0.48204 0.0
N75 N 0.99103 0.52157 0.46689 0.0
C76 C 1.00047 0.52817 0.45561 0.0
H77 H 0.83261 0.7703 0.81572 0.0
H78 H 0.81029 0.80722 0.79446 0.0
H79 H 0.78952 0.78913 0.83532 0.0
C80 C 0.82313 0.77839 0.81546 0.0
C81 C 0.81118 0.77851 0.82705 0.0
C82 C 0.82299 0.78874 0.80364 0.0
C83 C 0.81048 0.79913 0.80338 0.0
C84 C 0.79846 0.79927 0.81493 0.0
C85 C 0.79895 0.789 0.8266 0.0
N86 N 0.78564 0.80952 0.81554 0.0
C87 C 0.78266 0.82053 0.80519 0.0
H88 H 0.32128 0.26451 0.30998 0.0
H89 H 0.30643 0.30849 0.29487 0.0
H90 H 0.28286 0.2889 0.3335 0.0
C91 C 0.31367 0.2745 0.31119 0.0
C92 C 0.30182 0.27516 0.32288 0.0
C93 C 0.31559 0.28647 0.30094 0.0
C94 C 0.30501 0.29898 0.30233 0.0
C95 C 0.29315 0.29971 0.31404 0.0
C96 C 0.29178 0.28794 0.32426 0.0
N97 N 0.28293 0.31257 0.3167 0.0
C98 C 0.27832 0.32209 0.3055 0.0
H99 H 0.50759 0.95225 0.55555 0.0
H100 H 0.49289 0.99911 0.57451 0.0
H101 H 0.47312 0.97503 0.52988 0.0
C102 C 0.50063 0.96246 0.55451 0.0
C103 C 0.49061 0.96215 0.54102 0.0
C104 C 0.50156 0.97566 0.56677 0.0
C105 C 0.49209 0.98856 0.56545 0.0
C106 C 0.48163 0.9883 0.55246 0.0
C107 C 0.48085 0.97506 0.54019 0.0
N108 N 0.47257 1.00194 0.5522 0.0
C109 C 0.46012 0.00337 0.54168 0.0
H110 H 0.27048 0.30596 0.70259 0.0
H111 H 0.23104 0.27984 0.72287 0.0
H112 H 0.25461 0.32243 0.74977 0.0
C113 C 0.26226 0.3047 0.71225 0.0
C114 C 0.26397 0.31584 0.72628 0.0
C115 C 0.25047 0.29158 0.71088 0.0
C116 C 0.24019 0.28981 0.72378 0.0
C117 C 0.2418 0.30099 0.73783 0.0
C118 C 0.25364 0.31382 0.73893 0.0
N119 N 0.232 0.29988 0.7513 0.0
C120 C 0.21852 0.28928 0.75216 0.0
H121 H 0.81905 0.19936 0.7483 0.0
H122 H 0.84179 0.24101 0.73078 0.0
H123 H 0.79805 0.21807 0.70865 0.0
C124 C 0.81936 0.20801 0.73987 0.0
C125 C 0.80713 0.20693 0.72817 0.0
C126 C 0.8319 0.22025 0.74099 0.0
C127 C 0.83201 0.23167 0.73034 0.0
C128 C 0.8198 0.23115 0.71888 0.0
C129 C 0.80726 0.21879 0.71781 0.0
N130 N 0.82115 0.24295 0.70832 0.0
C131 C 0.80916 0.24681 0.69839 0.0
H132 H 0.56528 0.53379 0.58593 0.0
H133 H 0.57368 0.54054 0.53731 0.0
H134 H 0.53571 0.56403 0.56266 0.0
C135 C 0.56236 0.5395 0.57566 0.0
C136 C 0.54951 0.54952 0.57624 0.0
C137 C 0.57131 0.53645 0.56178 0.0
C138 C 0.56719 0.54327 0.54827 0.0
C139 C 0.55451 0.55328 0.54854 0.0
C140 C 0.54572 0.55653 0.56258 0.0
N141 N 0.54989 0.55831 0.53399 0.0
C142 C 0.54596 0.57381 0.53216 0.0
H143 H 0.56572 0.49235 0.96086 0.0
H144 H 0.57275 0.48355 0.0091 0.0
H145 H 0.52907 0.46525 0.98392 0.0
C146 C 0.56157 0.48673 0.97102 0.0
C147 C 0.54629 0.47835 0.97045 0.0
C148 C 0.57131 0.48854 0.98481 0.0
C149 C 0.56568 0.4817 0.99814 0.0
C150 C 0.55062 0.47311 0.99776 0.0
C151 C 0.54093 0.47143 0.98393 0.0
N152 N 0.54441 0.46859 0.01215 0.0
C153 C 0.54146 0.45262 0.01488 0.0
H154 H 0.75245 0.21078 0.33078 0.0
H155 H 0.70983 0.22646 0.31061 0.0
H156 H 0.73219 0.18547 0.28679 0.0
C157 C 0.74331 0.20945 0.32148 0.0
C158 C 0.74378 0.19682 0.30876 0.0
C159 C 0.73102 0.22015 0.32242 0.0
C160 C 0.71943 0.21843 0.31 0.0
C161 C 0.71991 0.2059 0.29712 0.0
C162 C 0.73194 0.19512 0.29673 0.0
N163 N 0.70839 0.20337 0.28446 0.0
C164 C 0.69712 0.21401 0.28145 0.0
H165 H 0.45947 0.05361 1.00268 0.0
H166 H 0.49303 0.06567 0.96688 0.0
H167 H 0.4562 0.02704 0.9555 0.0
C168 C 0.46419 0.05128 0.99076 0.0
C169 C 0.45651 0.03896 0.97978 0.0
C170 C 0.47723 0.0612 0.98622 0.0
C171 C 0.48299 0.05818 0.97055 0.0
C172 C 0.47539 0.04576 0.95951 0.0
C173 C 0.46206 0.03649 0.96413 0.0
N174 N 0.48025 0.04267 0.94343 0.0
C175 C 0.49579 0.04533 0.93815 0.0
Li176 Li 0.27765 0.89798 0.02547 0.0
Li177 Li 0.26531 0.87986 0.04205 0.0
Li178 Li 0.25942 0.87543 0.01312 0.0
Li179 Li 0.24923 0.89953 0.03163 0.0
C180 C 0.29282 0.86724 0.01811 0.0
N181 N 0.31935 0.85266 0.00551 0.0
C182 C 0.30405 0.862 0.02816 0.0
C183 C 0.29505 0.86495 1.00164 0.0
C184 C 0.31739 0.85469 0.02156 0.0
C185 C 0.30854 0.85759 0.9955 0.0
C186 C 0.27917 0.90921 0.05812 0.0
C187 C 0.28831 0.92729 0.08164 0.0
N188 N 0.30221 0.91984 0.08148 0.0
C189 C 0.29354 0.90174 0.05818 0.0
C190 C 0.27651 0.92209 0.06992 0.0
C191 C 0.30504 0.90729 0.0701 0.0
C192 C 0.29464 0.92809 0.02443 0.0
N193 N 0.29654 0.91192 0.02247 0.0
C194 C 0.32422 0.91691 0.01643 0.0
C195 C 0.31105 0.90624 0.01872 0.0
C196 C 0.32242 0.93358 0.01784 0.0
C197 C 0.3074 0.93916 0.02194 0.0
H198 H 0.28311 0.93237 0.02782 0.0
H199 H 0.31252 0.89346 0.01748 0.0
C200 C 0.27285 0.85278 0.05604 0.0
N201 N 0.2686 0.8682 0.05964 0.0
C202 C 0.27626 0.84374 0.06816 0.0
C203 C 0.27045 0.86647 0.08755 0.0
C204 C 0.26713 0.87507 0.07503 0.0
C205 C 0.27527 0.85062 0.0842 0.0
H206 H 0.27371 0.84753 0.0437 0.0
H207 H 0.26356 0.8873 0.0776 0.0
C208 C 0.26499 0.91004 1.00101 0.0
N209 N 0.27697 0.93315 0.9829 0.0
C210 C 0.25909 0.92537 0.00284 0.0
C211 C 0.27684 0.90641 0.9898 0.0
C212 C 0.26533 0.9369 0.99361 0.0
C213 C 0.28279 0.91828 0.98082 0.0
C214 C 0.2358 0.86794 0.04224 0.0
C215 C 0.23416 0.85103 0.04047 0.0
C216 C 0.22997 0.8769 0.05585 0.0
C217 C 0.22674 0.84335 0.05243 0.0
C218 C 0.22262 0.86876 0.06753 0.0
N219 N 0.22118 0.85229 0.0656 0.0
C220 C 0.25424 0.84386 0.99576 0.0
C221 C 0.25305 0.86529 0.98028 0.0
C222 C 0.25173 0.83239 0.98213 0.0
N223 N 0.25484 0.85994 0.99459 0.0
C224 C 0.25082 0.85426 0.96633 0.0
C225 C 0.25017 0.83758 0.96716 0.0
H226 H 0.256 0.83994 0.00724 0.0
H227 H 0.25361 0.87814 0.97967 0.0
C228 C 0.23559 0.92902 0.04202 0.0
N229 N 0.23218 0.91339 0.03531 0.0
C230 C 0.22339 0.93959 0.04442 0.0
C231 C 0.20437 0.91772 0.03319 0.0
C232 C 0.21695 0.9076 0.03092 0.0
C233 C 0.20751 0.93399 0.03996 0.0
H234 H 0.24783 0.9333 0.04536 0.0
H235 H 0.21461 0.89512 0.02556 0.0
O236 O 0.27964 0.87434 0.0244 0.0
O237 O 0.26771 0.90401 0.04658 0.0
O238 O 0.25924 0.89871 0.01018 0.0
O239 O 0.24355 0.87572 0.03099 0.0
H240 H 0.30252 0.8636 0.04094 0.0
H241 H 0.2865 0.86883 0.99366 0.0
H242 H 0.32619 0.85063 0.02921 0.0
H243 H 0.31042 0.85578 0.98278 0.0
H244 H 0.28641 0.93724 0.09086 0.0
H245 H 0.29581 0.8918 0.04914 0.0
H246 H 0.26543 0.92799 0.07003 0.0
H247 H 0.31622 0.90162 0.07028 0.0
H248 H 0.33563 0.91216 0.01328 0.0
H249 H 0.30561 0.95197 0.02334 0.0
H250 H 0.27957 0.83146 0.06497 0.0
H251 H 0.26959 0.8723 0.09971 0.0
H252 H 0.24985 0.92837 0.01136 0.0
H253 H 0.28154 0.89463 0.9882 0.0
H254 H 0.26093 0.94883 0.99498 0.0
H255 H 0.29206 0.91567 0.97222 0.0
H256 H 0.23869 0.84393 0.03006 0.0
H257 H 0.23132 0.88999 0.05748 0.0
H258 H 0.22545 0.83027 0.05126 0.0
H259 H 0.21813 0.87553 0.07817 0.0
H260 H 0.25146 0.81962 0.98321 0.0
H261 H 0.24958 0.85872 0.955 0.0
H262 H 0.22634 0.95197 0.04984 0.0
H263 H 0.19235 0.91293 0.02943 0.0
Li264 Li 0.13278 0.5053 0.27365 0.0
Li265 Li 0.15147 0.48737 0.25899 0.0
Li266 Li 0.15376 0.51674 0.25822 0.0
Li267 Li 0.13155 0.49934 0.24429 0.0
C268 C 0.16981 0.513 0.28366 0.0
N269 N 0.19792 0.5298 0.29579 0.0
C270 C 0.18448 0.50628 0.28077 0.0
C271 C 0.16943 0.52822 0.29278 0.0
C272 C 0.19856 0.51497 0.28701 0.0
C273 C 0.18378 0.53654 0.29878 0.0
C274 C 0.12521 0.46855 0.26266 0.0
C275 C 0.12475 0.43995 0.25332 0.0
N276 N 0.12156 0.43676 0.26835 0.0
C277 C 0.12184 0.46501 0.27799 0.0
C278 C 0.12659 0.45595 0.25019 0.0
C279 C 0.12006 0.44885 0.28063 0.0
C280 C 0.10379 0.5069 0.29059 0.0
N281 N 0.12 0.50875 0.29232 0.0
C282 C 0.1178 0.51601 0.3205 0.0
C283 C 0.12712 0.51309 0.30691 0.0
C284 C 0.10096 0.51452 0.31908 0.0
C285 C 0.09401 0.5099 0.3038 0.0
H286 H 0.09843 0.50328 0.27886 0.0
H287 H 0.14004 0.51423 0.30801 0.0
C288 C 0.17351 0.46422 0.24774 0.0
N289 N 0.16372 0.46903 0.25995 0.0
C290 C 0.18335 0.45159 0.24874 0.0
C291 C 0.17273 0.44896 0.27478 0.0
C292 C 0.16327 0.46177 0.27337 0.0
C293 C 0.18306 0.4438 0.26241 0.0
H294 H 0.17392 0.47039 0.23734 0.0
H295 H 0.15576 0.46614 0.28312 0.0
C296 C 0.11891 0.52966 0.26387 0.0
N297 N 0.09428 0.54707 0.27693 0.0
C298 C 0.1036 0.52715 0.25686 0.0
C299 C 0.12172 0.54109 0.27748 0.0
C300 C 0.09131 0.53608 0.26365 0.0
C301 C 0.1091 0.54973 0.28393 0.0
C302 C 0.15567 0.49714 0.22422 0.0
C303 C 0.16022 0.51049 0.21656 0.0
C304 C 0.15135 0.48214 0.21518 0.0
C305 C 0.16024 0.50863 0.19991 0.0
C306 C 0.15149 0.48079 0.19856 0.0
N307 N 0.15589 0.49395 0.19134 0.0
C308 C 0.18385 0.53232 0.25218 0.0
C309 C 0.16377 0.55017 0.26001 0.0
C310 C 0.19494 0.54538 0.25075 0.0
N311 N 0.16862 0.53494 0.25676 0.0
C312 C 0.17447 0.56357 0.25877 0.0
C313 C 0.19029 0.56129 0.254 0.0
H314 H 0.18732 0.52006 0.2495 0.0
H315 H 0.15158 0.55193 0.26349 0.0
C316 C 0.10602 0.48408 0.22378 0.0
N317 N 0.11745 0.49665 0.22605 0.0
C318 C 0.09519 0.48255 0.21091 0.0
C319 C 0.10825 0.5068 0.20284 0.0
C320 C 0.11865 0.50799 0.21599 0.0
C321 C 0.09618 0.49402 0.20017 0.0
H322 H 0.1051 0.4754 0.23214 0.0
H323 H 0.12762 0.51807 0.21825 0.0
O324 O 0.15594 0.50488 0.2773 0.0
O325 O 0.12723 0.48428 0.25988 0.0
O326 O 0.13105 0.52087 0.25754 0.0
O327 O 0.15535 0.49876 0.2405 0.0
H328 H 0.18501 0.49456 0.27366 0.0
H329 H 0.15819 0.53365 0.29501 0.0
H330 H 0.21001 0.50995 0.28481 0.0
H331 H 0.18367 0.54838 0.30576 0.0
H332 H 0.12589 0.43007 0.24381 0.0
H333 H 0.12076 0.47463 0.28778 0.0
H334 H 0.12916 0.4585 0.23826 0.0
H335 H 0.11753 0.44592 0.29244 0.0
H336 H 0.12376 0.51919 0.33201 0.0
H337 H 0.08114 0.50879 0.30199 0.0
H338 H 0.19112 0.44797 0.23892 0.0
H339 H 0.17233 0.44347 0.28563 0.0
H340 H 0.10118 0.51833 0.24637 0.0
H341 H 0.13344 0.54305 0.28318 0.0
H342 H 0.07939 0.53422 0.25838 0.0
H343 H 0.11107 0.55851 0.29453 0.0
H344 H 0.16352 0.52221 0.22337 0.0
H345 H 0.14779 0.4717 0.22094 0.0
H346 H 0.16365 0.51888 0.19381 0.0
H347 H 0.14809 0.46928 0.19141 0.0
H348 H 0.20692 0.543 0.24681 0.0
H349 H 0.17039 0.5756 0.26158 0.0
H350 H 0.08594 0.47266 0.20962 0.0
H351 H 0.10973 0.51583 0.19485 0.0
Li352 Li 0.7626 0.63018 0.00715 0.0
Li353 Li 0.77467 0.6532 0.02595 0.0
Li354 Li 0.78139 0.65054 0.99657 0.0
Li355 Li 0.79227 0.63301 0.01444 0.0
C356 C 0.74627 0.65727 1.00082 0.0
N357 N 0.71768 0.66441 0.98792 0.0
C358 C 0.73492 0.66493 0.01059 0.0
C359 C 0.74317 0.65349 0.98445 0.0
C360 C 0.7205 0.66836 0.00386 0.0
C361 C 0.72863 0.65714 0.97816 0.0
C362 C 0.76891 0.62899 0.04347 0.0
C363 C 0.7749 0.63383 0.07169 0.0
N364 N 0.75967 0.62825 0.07463 0.0
C365 C 0.75337 0.62315 0.04676 0.0
C366 C 0.77982 0.63423 0.05602 0.0
C367 C 0.74892 0.62292 0.0626 0.0
C368 C 0.74571 0.5999 0.99614 0.0
N369 N 0.74395 0.61537 0.00292 0.0
C370 C 0.71568 0.60943 0.00498 0.0
C371 C 0.72932 0.62022 0.00745 0.0
C372 C 0.7171 0.59338 0.99797 0.0
C373 C 0.73238 0.58866 0.99353 0.0
H374 H 0.75751 0.59627 0.99287 0.0
H375 H 0.72826 0.63236 0.01337 0.0
C376 C 0.7811 0.67987 0.05065 0.0
N377 N 0.77007 0.66776 0.04459 0.0
C378 C 0.77798 0.69008 0.06463 0.0
C379 C 0.75221 0.67521 0.06583 0.0
C380 C 0.75573 0.66545 0.05174 0.0
C381 C 0.76344 0.68768 0.07249 0.0
H382 H 0.79236 0.68154 0.04469 0.0
H383 H 0.74705 0.65591 0.04656 0.0
C384 C 0.7822 0.62 0.97751 0.0
N385 N 0.78362 0.60687 0.94581 0.0
C386 C 0.79666 0.61502 0.97112 0.0
C387 C 0.7684 0.61799 0.96785 0.0
C388 C 0.79715 0.60851 0.95504 0.0
C389 C 0.76937 0.61141 0.95184 0.0
C390 C 0.81184 0.66002 0.01873 0.0
C391 C 0.82219 0.66348 0.00656 0.0
C392 C 0.81805 0.65945 0.03397 0.0
C393 C 0.83865 0.66605 0.00979 0.0
C394 C 0.83458 0.66207 0.03673 0.0
N395 N 0.84445 0.66527 0.02468 0.0
C396 C 0.77756 0.67563 0.97783 0.0
C397 C 0.79665 0.65756 0.96774 0.0
C398 C 0.78017 0.68459 0.96519 0.0
N399 N 0.78562 0.66228 0.9788 0.0
C400 C 0.79973 0.66622 0.95495 0.0
C401 C 0.79141 0.67995 0.95349 0.0
H402 H 0.76906 0.67937 0.98691 0.0
H403 H 0.80333 0.64726 0.96899 0.0
C404 C 0.80892 0.6115 0.03035 0.0
N405 N 0.81023 0.62108 0.01863 0.0
C406 C 0.82156 0.60246 0.03376 0.0
C407 C 0.83673 0.6132 0.01293 0.0
C408 C 0.82378 0.62203 0.00991 0.0
C409 C 0.83572 0.60318 0.02497 0.0
H410 H 0.79799 0.61077 0.03701 0.0
H411 H 0.8245 0.62955 1.00051 0.0
O412 O 0.76041 0.65375 0.00726 0.0
O413 O 0.77341 0.62956 0.02804 0.0
O414 O 0.78151 0.62637 0.99325 0.0
O415 O 0.79571 0.65726 0.01573 0.0
H416 H 0.73717 0.66812 0.02326 0.0
H417 H 0.75199 0.64802 0.97664 0.0
H418 H 0.71158 0.67419 0.0113 0.0
H419 H 0.72609 0.65425 0.96551 0.0
H420 H 0.78319 0.63797 0.08152 0.0
H421 H 0.74481 0.61893 0.03721 0.0
H422 H 0.79192 0.63864 0.05369 0.0
H423 H 0.7369 0.61853 0.06532 0.0
H424 H 0.7042 0.6135 0.00891 0.0
H425 H 0.73401 0.57643 0.98803 0.0
H426 H 0.78697 0.69953 0.06942 0.0
H427 H 0.74077 0.6731 0.07139 0.0
H428 H 0.80742 0.61629 0.97845 0.0
H429 H 0.757 0.62127 0.97268 0.0
H430 H 0.8083 0.60474 0.94992 0.0
H431 H 0.75878 0.60984 0.94422 0.0
H432 H 0.81759 0.66408 0.99473 0.0
H433 H 0.81021 0.65697 0.04356 0.0
H434 H 0.8468 0.66865 1.00046 0.0
H435 H 0.83955 0.66156 0.04845 0.0
H436 H 0.77333 0.69496 0.96456 0.0
H437 H 0.80877 0.66236 0.94648 0.0
H438 H 0.82026 0.59505 0.04326 0.0
H439 H 0.84729 0.61396 0.00566 0.0
Li440 Li 0.89781 0.03858 0.28129 0.0
Li441 Li 0.91807 0.02251 0.29232 0.0
Li442 Li 0.9192 0.02718 0.26435 0.0
Li443 Li 0.89876 0.00831 0.27296 0.0
C444 C 0.92749 0.0581 0.27998 0.0
N445 N 0.9402 0.08715 0.27163 0.0
C446 C 0.94226 0.065 0.28637 0.0
C447 C 0.9192 0.06593 0.26931 0.0
C448 C 0.94848 0.07971 0.28202 0.0
C449 C 0.92582 0.08061 0.26524 0.0
C450 C 0.89218 0.01973 0.31012 0.0
C451 C 0.89282 0.00521 0.33279 0.0
N452 N 0.88862 0.01861 0.34237 0.0
C453 C 0.88774 0.03331 0.32017 0.0
C454 C 0.89461 0.00552 0.31645 0.0
C455 C 0.88604 0.03251 0.33644 0.0
C456 C 0.8689 0.05301 0.27888 0.0
N457 N 0.88377 0.05555 0.2857 0.0
C458 C 0.8777 0.08163 0.2986 0.0
C459 C 0.88833 0.06949 0.29546 0.0
C460 C 0.86225 0.07943 0.29159 0.0
C461 C 0.85797 0.06485 0.28156 0.0
H462 H 0.86556 0.04175 0.27126 0.0
H463 H 0.90017 0.07111 0.30091 0.0
C464 C 0.94147 0.00927 0.30968 0.0
N465 N 0.9309 0.02091 0.31077 0.0
C466 C 0.95087 0.00735 0.32286 0.0
C467 C 0.93857 0.02963 0.33805 0.0
C468 C 0.92952 0.03124 0.32449 0.0
C469 C 0.94939 0.01752 0.33733 0.0
H470 H 0.94263 1.00144 0.29856 0.0
H471 H 0.92135 0.04069 0.32494 0.0
C472 C 0.89373 0.02664 0.24377 0.0
N473 N 0.89003 0.02862 0.21167 0.0
C474 C 0.89946 0.01485 0.23236 0.0
C475 C 0.88615 0.03949 0.23884 0.0
C476 C 0.89748 0.01605 0.2162 0.0
C477 C 0.88438 0.04026 0.22256 0.0
C478 C 0.92341 0.99078 0.26843 0.0
C479 C 0.92768 0.98527 0.2528 0.0
C480 C 0.91999 0.97962 0.27902 0.0
C481 C 0.92832 0.96867 0.24801 0.0
C482 C 0.92073 0.96312 0.27377 0.0
N483 N 0.92484 0.95803 0.2585 0.0
C484 C 0.94795 0.02396 0.24784 0.0
C485 C 0.93101 0.04108 0.23677 0.0
C486 C 0.95908 0.02546 0.23582 0.0
N487 N 0.93404 0.03137 0.24789 0.0
C488 C 0.94178 0.04287 0.22448 0.0
C489 C 0.95595 0.0348 0.22374 0.0
H490 H 0.95031 0.01667 0.25707 0.0
H491 H 0.92012 0.04724 0.23722 0.0
C492 C 0.8741 0.98488 0.27836 0.0
N493 N 0.8851 0.98872 0.26748 0.0
C494 C 0.86376 0.97086 0.2752 0.0
C495 C 0.87613 0.96496 0.24961 0.0
C496 C 0.8862 0.97912 0.25326 0.0
C497 C 0.86469 0.96067 0.26065 0.0
H498 H 0.87328 0.99275 0.28952 0.0
H499 H 0.89488 0.98237 0.24469 0.0
O500 O 0.92129 0.04366 0.28404 0.0
O501 O 0.89411 0.02035 0.29418 0.0
O502 O 0.89563 0.02573 0.25967 0.0
O503 O 0.92253 0.00699 0.27333 0.0
H504 H 0.94883 0.05904 0.29462 0.0
H505 H 0.90783 0.06068 0.26414 0.0
H506 H 0.9599 0.08522 0.28689 0.0
H507 H 0.91955 0.08679 0.25697 0.0
H508 H 0.89477 0.99433 0.33786 0.0
H509 H 0.88574 0.04438 0.31549 0.0
H510 H 0.8979 0.99486 0.30885 0.0
H511 H 0.8827 0.04296 0.34436 0.0
H512 H 0.88149 0.0925 0.30662 0.0
H513 H 0.84634 0.06264 0.27566 0.0
H514 H 0.95901 0.99781 0.3218 0.0
H515 H 0.93724 0.03788 0.34891 0.0
H516 H 0.90576 0.00513 0.23595 0.0
H517 H 0.88178 0.04884 0.24747 0.0
H518 H 0.90197 0.00706 0.20726 0.0
H519 H 0.87855 0.05013 0.21858 0.0
H520 H 0.9303 0.99367 0.24438 0.0
H521 H 0.91674 0.98365 0.29116 0.0
H522 H 0.93152 0.96424 0.23593 0.0
H523 H 0.91802 0.95435 0.28183 0.0
H524 H 0.97 0.01933 0.23599 0.0
H525 H 0.93882 0.05018 0.21543 0.0
H526 H 0.85524 0.96797 0.28414 0.0
H527 H 0.87713 0.95761 0.23814 0.0
Li528 Li 0.26991 0.14653 0.51813 0.0
Li529 Li 0.2558 0.12294 0.50039 0.0
Li530 Li 0.28522 0.12413 0.50367 0.0
Li531 Li 0.27277 0.14202 0.48875 0.0
C532 C 0.27405 0.11319 0.52986 0.0
N533 N 0.28717 0.09263 0.54833 0.0
C534 C 0.26973 0.09657 0.527 0.0
C535 C 0.28497 0.1194 0.54214 0.0
C536 C 0.27651 0.08637 0.53647 0.0
C537 C 0.29149 0.10879 0.55133 0.0
C538 C 0.2372 0.14707 0.49956 0.0
C539 C 0.21293 0.14116 0.48363 0.0
N540 N 0.20428 0.14668 0.49651 0.0
C541 C 0.22809 0.15284 0.51259 0.0
C542 C 0.22959 0.14132 0.48492 0.0
C543 C 0.21145 0.15249 0.51082 0.0
C544 C 0.27747 0.17484 0.54092 0.0
N545 N 0.26812 0.16073 0.53765 0.0
C546 C 0.25493 0.16602 0.5626 0.0
C547 C 0.25712 0.15612 0.5482 0.0
C548 C 0.26421 0.18083 0.56623 0.0
C549 C 0.27567 0.18514 0.55518 0.0
H550 H 0.28637 0.17811 0.53252 0.0
H551 H 0.24991 0.14477 0.54533 0.0
C552 C 0.2345 0.09636 0.48678 0.0
N553 N 0.23678 0.10861 0.4991 0.0
C554 C 0.22088 0.08548 0.48611 0.0
C555 C 0.21218 0.1001 0.51078 0.0
C556 C 0.22606 0.11055 0.51107 0.0
C557 C 0.20949 0.08731 0.49821 0.0
H558 H 0.24333 0.09494 0.47753 0.0
H559 H 0.22835 0.12017 0.52092 0.0
C560 C 0.29942 0.15923 0.49935 0.0
N561 N 0.31765 0.18222 0.48538 0.0
C562 C 0.31409 0.15556 0.49255 0.0
C563 C 0.29402 0.17461 0.49909 0.0
C564 C 0.32314 0.16735 0.48555 0.0
C565 C 0.3034 0.18605 0.49194 0.0
C566 C 0.27562 0.11481 0.46843 0.0
C567 C 0.29113 0.11131 0.46384 0.0
C568 C 0.26376 0.11499 0.45678 0.0
C569 C 0.29457 0.10828 0.44764 0.0
C570 C 0.26769 0.11193 0.4407 0.0
N571 N 0.28289 0.10868 0.4365 0.0
C572 C 0.30056 0.09497 0.50064 0.0
C573 C 0.31655 0.11785 0.51323 0.0
C574 C 0.31296 0.08498 0.50214 0.0
N575 N 0.3026 0.11108 0.50608 0.0
C576 C 0.32933 0.10833 0.51484 0.0
C577 C 0.32764 0.09166 0.50921 0.0
H578 H 0.28928 0.08992 0.49507 0.0
H579 H 0.31775 0.13064 0.51769 0.0
C580 C 0.26441 0.16425 0.46793 0.0
N581 N 0.27537 0.15365 0.47051 0.0
C582 C 0.26627 0.17351 0.45543 0.0
C583 C 0.29066 0.1608 0.44836 0.0
C584 C 0.28835 0.15184 0.46101 0.0
C585 C 0.27959 0.17192 0.44544 0.0
H586 H 0.25436 0.16577 0.47579 0.0
H587 H 0.29713 0.14366 0.46342 0.0
O588 O 0.26797 0.12329 0.5204 0.0
O589 O 0.25347 0.14701 0.50112 0.0
O590 O 0.29026 0.14776 0.50602 0.0
O591 O 0.27202 0.11778 0.48423 0.0
H592 H 0.26134 0.09161 0.51747 0.0
H593 H 0.28848 0.13224 0.54441 0.0
H594 H 0.27335 0.07346 0.53436 0.0
H595 H 0.30002 0.11339 0.56083 0.0
H596 H 0.20688 0.13663 0.4724 0.0
H597 H 0.23379 0.15747 0.52396 0.0
H598 H 0.23648 0.13696 0.47469 0.0
H599 H 0.20424 0.15683 0.52083 0.0
H600 H 0.24586 0.16225 0.57066 0.0
H601 H 0.2833 0.19628 0.55758 0.0
H602 H 0.21922 0.07583 0.47618 0.0
H603 H 0.20382 0.10179 0.52046 0.0
H604 H 0.31836 0.14366 0.49247 0.0
H605 H 0.28255 0.17755 0.50405 0.0
H606 H 0.33449 0.16466 0.48018 0.0
H607 H 0.29932 0.19795 0.49152 0.0
H608 H 0.30048 0.11118 0.47268 0.0
H609 H 0.25166 0.11748 0.46011 0.0
H610 H 0.30655 0.10569 0.44392 0.0
H611 H 0.25865 0.11213 0.43156 0.0
H612 H 0.31118 0.07222 0.49755 0.0
H613 H 0.34036 0.11392 0.5206 0.0
H614 H 0.25756 0.18211 0.45385 0.0
H615 H 0.30103 0.15901 0.44094 0.0
Li616 Li 0.42541 0.52044 0.79028 0.0
Li617 Li 0.40555 0.5374 0.7805 0.0
Li618 Li 0.40516 0.5073 0.77104 0.0
Li619 Li 0.42565 0.52627 0.76149 0.0
C620 C 0.39935 0.51731 0.80846 0.0
N621 N 0.39517 0.51442 0.84031 0.0
C622 C 0.39527 0.53058 0.81916 0.0
C623 C 0.4011 0.50251 0.81394 0.0
C624 C 0.39324 0.52888 0.83521 0.0
C625 C 0.39901 0.50131 0.83009 0.0
C626 C 0.4337 0.55778 0.78562 0.0
C627 C 0.43684 0.5847 0.77833 0.0
N628 N 0.44216 0.59053 0.79338 0.0
C629 C 0.43939 0.56401 0.80095 0.0
C630 C 0.43259 0.56818 0.77416 0.0
C631 C 0.44354 0.58061 0.80467 0.0
C632 C 0.44835 0.50491 0.80635 0.0
N633 N 0.43823 0.51698 0.80835 0.0
C634 C 0.44509 0.52251 0.83618 0.0
C635 C 0.43664 0.52589 0.82288 0.0
C636 C 0.45538 0.50987 0.83455 0.0
C637 C 0.45703 0.50111 0.81931 0.0
H638 H 0.44957 0.49807 0.7947 0.0
H639 H 0.42865 0.53551 0.82422 0.0
C640 C 0.37754 0.55317 0.77761 0.0
N641 N 0.39185 0.55481 0.78559 0.0
C642 C 0.36665 0.56504 0.7805 0.0
C643 C 0.38521 0.58004 0.80006 0.0
C644 C 0.39578 0.56788 0.79674 0.0
C645 C 0.37038 0.57873 0.7919 0.0
H646 H 0.37456 0.54257 0.76895 0.0
H647 H 0.40697 0.56875 0.80332 0.0
C648 C 0.43008 0.48959 0.7649 0.0
N649 N 0.43198 0.45707 0.75412 0.0
C650 C 0.43546 0.48465 0.74954 0.0
C651 C 0.4259 0.47798 0.77485 0.0
C652 C 0.43628 0.46816 0.74429 0.0
C653 C 0.42687 0.4616 0.76916 0.0
C654 C 0.39785 0.53039 0.74463 0.0
C655 C 0.3921 0.51916 0.73169 0.0
C656 C 0.39912 0.54688 0.74321 0.0
C657 C 0.38808 0.5246 0.71743 0.0
C658 C 0.39496 0.55185 0.72875 0.0
N659 N 0.3896 0.54069 0.71626 0.0
C660 C 0.38047 0.48346 0.77551 0.0
C661 C 0.39286 0.47906 0.75038 0.0
C662 C 0.37049 0.46927 0.77175 0.0
N663 N 0.39147 0.48799 0.76492 0.0
C664 C 0.3831 0.46477 0.74611 0.0
C665 C 0.37177 0.45965 0.7569 0.0
H666 H 0.37942 0.49089 0.78688 0.0
H667 H 0.40164 0.48295 0.74213 0.0
C668 C 0.45133 0.54135 0.74526 0.0
N669 N 0.43837 0.53038 0.74343 0.0
C670 C 0.46038 0.5446 0.73207 0.0
C671 C 0.44284 0.5249 0.71538 0.0
C672 C 0.43413 0.52208 0.72887 0.0
C673 C 0.45615 0.53635 0.71682 0.0
H674 H 0.45466 0.54763 0.75698 0.0
H675 H 0.42407 0.51309 0.72774 0.0
O676 O 0.40154 0.51879 0.79272 0.0
O677 O 0.42952 0.54155 0.78181 0.0
O678 O 0.42895 0.50568 0.77017 0.0
O679 O 0.40194 0.52525 0.75867 0.0
H680 H 0.39378 0.54209 0.81514 0.0
H681 H 0.4041 0.49207 0.80583 0.0
H682 H 0.39017 0.53908 0.84363 0.0
H683 H 0.40044 0.48996 0.8345 0.0
H684 H 0.43598 0.59289 0.76958 0.0
H685 H 0.44056 0.55614 0.80991 0.0
H686 H 0.42864 0.56354 0.76213 0.0
H687 H 0.44786 0.5856 0.81652 0.0
H688 H 0.44362 0.52978 0.8476 0.0
H689 H 0.46469 0.49118 0.81744 0.0
H690 H 0.35547 0.56354 0.77376 0.0
H691 H 0.38849 0.59019 0.80917 0.0
H692 H 0.43894 0.49345 0.74174 0.0
H693 H 0.42186 0.48159 0.7868 0.0
H694 H 0.44035 0.46417 0.7324 0.0
H695 H 0.42355 0.4525 0.7767 0.0
H696 H 0.39086 0.50637 0.73262 0.0
H697 H 0.40309 0.55577 0.7532 0.0
H698 H 0.38374 0.51602 0.70729 0.0
H699 H 0.39593 0.56458 0.72749 0.0
H700 H 0.36173 0.46596 0.78032 0.0
H701 H 0.3846 0.45768 0.73459 0.0
H702 H 0.47046 0.5536 0.7338 0.0
H703 H 0.43932 0.51794 0.70398 0.0
Li704 Li 0.76821 0.39356 0.52623 0.0
Li705 Li 0.75459 0.37327 0.54113 0.0
Li706 Li 0.74984 0.3727 0.51229 0.0
Li707 Li 0.73937 0.39387 0.53179 0.0
C708 C 0.7749 0.3564 0.51469 0.0
N709 N 0.78279 0.32855 0.49583 0.0
C710 C 0.77215 0.34137 0.52003 0.0
C711 C 0.78173 0.35728 0.49978 0.0
C712 C 0.77623 0.32743 0.51032 0.0
C713 C 0.7856 0.34305 0.49041 0.0
C714 C 0.76217 0.39903 0.56269 0.0
C715 C 0.75597 0.3983 0.59035 0.0
N716 N 0.7718 0.40148 0.59424 0.0
C717 C 0.77836 0.40237 0.56695 0.0
C718 C 0.75086 0.39706 0.57447 0.0
C719 C 0.78299 0.40355 0.58297 0.0
C720 C 0.78755 0.42316 0.53087 0.0
N721 N 0.78743 0.40723 0.5248 0.0
C722 C 0.81421 0.41117 0.51563 0.0
C723 C 0.80044 0.40108 0.51743 0.0
C724 C 0.81466 0.42776 0.52158 0.0
C725 C 0.80108 0.43369 0.52938 0.0
H726 H 0.77705 0.42771 0.53677 0.0
H727 H 0.80008 0.38837 0.51278 0.0
C728 C 0.74449 0.35 0.56131 0.0
N729 N 0.75702 0.36013 0.55772 0.0
C730 C 0.74622 0.33997 0.57302 0.0
C731 C 0.77369 0.35099 0.57717 0.0
C732 C 0.7715 0.36064 0.56523 0.0
C733 C 0.76096 0.34043 0.58116 0.0
H734 H 0.7332 0.34955 0.55495 0.0
H735 H 0.78141 0.36843 0.56183 0.0
C736 C 0.75634 0.40932 0.50491 0.0
N737 N 0.7698 0.4363 0.49299 0.0
C738 C 0.75121 0.42461 0.51026 0.0
C739 C 0.76827 0.40773 0.49343 0.0
C740 C 0.75816 0.43811 0.50409 0.0
C741 C 0.77495 0.42153 0.48759 0.0
C742 C 0.71784 0.36851 0.53071 0.0
C743 C 0.70799 0.36396 0.5172 0.0
C744 C 0.71094 0.37199 0.54565 0.0
C745 C 0.69136 0.36309 0.51886 0.0
C746 C 0.69426 0.37102 0.54681 0.0
N747 N 0.6849 0.36663 0.5335 0.0
C748 C 0.74007 0.34286 0.49357 0.0
C749 C 0.74785 0.36391 0.47851 0.0
C750 C 0.73741 0.33187 0.47965 0.0
N751 N 0.74533 0.3585 0.49276 0.0
C752 C 0.74542 0.35332 0.46429 0.0
C753 C 0.74021 0.33699 0.46471 0.0
H754 H 0.73809 0.3389 0.50507 0.0
H755 H 0.75196 0.37641 0.47818 0.0
C756 C 0.72337 0.41905 0.54951 0.0
N757 N 0.72221 0.40762 0.53639 0.0
C758 C 0.71128 0.42962 0.55282 0.0
C759 C 0.69692 0.41634 0.52918 0.0
C760 C 0.70944 0.40626 0.52614 0.0
C761 C 0.69781 0.42825 0.54262 0.0
H762 H 0.73379 0.4201 0.5573 0.0
H763 H 0.70905 0.39744 0.51551 0.0
O764 O 0.7706 0.37014 0.52384 0.0
O765 O 0.75742 0.3976 0.54706 0.0
O766 O 0.74997 0.39601 0.51109 0.0
O767 O 0.73414 0.36962 0.52931 0.0
H768 H 0.76679 0.34043 0.53147 0.0
H769 H 0.78369 0.36877 0.49534 0.0
H770 H 0.77411 0.31571 0.51427 0.0
H771 H 0.79075 0.34354 0.4788 0.0
H772 H 0.74736 0.39671 0.59958 0.0
H773 H 0.78728 0.40386 0.55798 0.0
H774 H 0.73828 0.3945 0.57136 0.0
H775 H 0.79549 0.40604 0.58644 0.0
H776 H 0.82427 0.40605 0.50936 0.0
H777 H 0.80093 0.4463 0.53438 0.0
H778 H 0.7361 0.33201 0.57575 0.0
H779 H 0.78533 0.35152 0.58296 0.0
H780 H 0.74205 0.4261 0.51917 0.0
H781 H 0.77259 0.39603 0.48935 0.0
H782 H 0.75434 0.45002 0.50817 0.0
H783 H 0.78429 0.4205 0.47883 0.0
H784 H 0.71312 0.3613 0.50553 0.0
H785 H 0.71839 0.37554 0.55622 0.0
H786 H 0.68359 0.35967 0.5085 0.0
H787 H 0.68876 0.37377 0.55829 0.0
H788 H 0.73313 0.3195 0.48061 0.0
H789 H 0.74794 0.35781 0.45311 0.0
H790 H 0.71239 0.4387 0.56328 0.0
H791 H 0.68684 0.4151 0.5209 0.0
Li792 Li 0.66681 0.99534 0.7615 0.0
Li793 Li 0.6476 0.01322 0.77519 0.0
Li794 Li 0.64558 0.00425 0.74618 0.0
Li795 Li 0.66723 0.02406 0.75778 0.0
C796 C 0.63005 0.98096 0.75951 0.0
N797 N 0.60244 0.96172 0.74992 0.0
C798 C 0.6158 0.98333 0.76772 0.0
C799 C 0.63027 0.96875 0.74647 0.0
C800 C 0.60197 0.97348 0.76268 0.0
C801 C 0.61618 0.95918 0.74179 0.0
C802 C 0.67351 0.01785 0.79362 0.0
C803 C 0.67301 0.03581 0.81843 0.0
N804 N 0.67638 0.02344 0.82645 0.0
C805 C 0.67702 0.00532 0.80209 0.0
C806 C 0.67155 0.03324 0.80182 0.0
C807 C 0.67842 0.00839 0.8187 0.0
C808 C 0.69585 0.98108 0.767 0.0
N809 N 0.67997 0.97784 0.76342 0.0
C810 C 0.68251 0.94942 0.76234 0.0
C811 C 0.67321 0.96238 0.76113 0.0
C812 C 0.69897 0.95234 0.7661 0.0
C813 C 0.70562 0.96847 0.76839 0.0
H814 H 0.70092 0.9935 0.76886 0.0
H815 H 0.66056 0.9601 0.75836 0.0
C816 C 0.62586 0.03062 0.79505 0.0
N817 N 0.6353 0.01801 0.79407 0.0
C818 C 0.61636 0.03424 0.80838 0.0
C819 C 0.62643 0.01182 0.81949 0.0
C820 C 0.63565 0.00856 0.80587 0.0
C821 C 0.61654 0.0248 0.82088 0.0
H822 H 0.62549 0.03773 0.78536 0.0
H823 H 0.643 0.99839 0.80467 0.0
C824 C 0.68087 0.9971 0.73436 0.0
N825 N 0.70621 0.98051 0.72178 0.0
C826 C 0.69649 0.00439 0.73606 0.0
C827 C 0.67811 0.98141 0.7262 0.0
C828 C 0.70914 0.99579 0.72961 0.0
C829 C 0.69109 0.97321 0.71996 0.0
C830 C 0.64248 0.04119 0.754 0.0
C831 C 0.6376 0.04304 0.73859 0.0
C832 C 0.64665 0.05489 0.76508 0.0
C833 C 0.63711 0.05861 0.73448 0.0
C834 C 0.64603 0.07025 0.7605 0.0
N835 N 0.64132 0.07177 0.74542 0.0
C836 C 0.61508 0.99976 0.73078 0.0
C837 C 0.63697 0.99563 0.71351 0.0
C838 C 0.60427 0.99658 0.7179 0.0
N839 N 0.63107 0.99908 0.72839 0.0
C840 C 0.62662 0.99263 0.70025 0.0
C841 C 0.60997 0.99309 0.7023 0.0
H842 H 0.61072 0.00287 0.74271 0.0
H843 H 0.64977 0.99554 0.71191 0.0
C844 C 0.69074 0.05071 0.76518 0.0
N845 N 0.6804 0.04275 0.75378 0.0
C846 C 0.70014 0.0645 0.76223 0.0
C847 C 0.68805 0.06165 0.73591 0.0
C848 C 0.67908 0.04778 0.73927 0.0
C849 C 0.69876 0.07019 0.74747 0.0
H850 H 0.6917 0.04635 0.77655 0.0
H851 H 0.67099 0.04104 0.73032 0.0
O852 O 0.64368 0.99058 0.76417 0.0
O853 O 0.67186 0.01504 0.77738 0.0
O854 O 0.66838 0.00513 0.74097 0.0
O855 O 0.64334 0.02605 0.75817 0.0
H856 H 0.61539 0.99273 0.77781 0.0
H857 H 0.64114 0.96688 0.73984 0.0
H858 H 0.59085 0.97521 0.7689 0.0
H859 H 0.61616 0.94978 0.73164 0.0
H860 H 0.67142 0.04763 0.82494 0.0
H861 H 0.67848 0.99331 0.79594 0.0
H862 H 0.66876 0.04305 0.79544 0.0
H863 H 0.68106 0.99879 0.82542 0.0
H864 H 0.67686 0.93722 0.76023 0.0
H865 H 0.71817 0.97137 0.77151 0.0
H866 H 0.60868 0.04412 0.80867 0.0
H867 H 0.6271 0.00426 0.82883 0.0
H868 H 0.69883 0.01648 0.74243 0.0
H869 H 0.6661 0.97557 0.72488 0.0
H870 H 0.7213 1.00124 0.73089 0.0
H871 H 0.68916 0.96102 0.71371 0.0
H872 H 0.63438 0.03258 0.72984 0.0
H873 H 0.6505 0.05367 0.77704 0.0
H874 H 0.63343 0.06022 0.72257 0.0
H875 H 0.64933 0.08095 0.76891 0.0
H876 H 0.59158 0.99687 0.72019 0.0
H877 H 0.63168 0.99039 0.6885 0.0
H878 H 0.70826 0.07077 0.77146 0.0
H879 H 0.68681 0.06551 0.7243 0.0
Li880 Li 0.04225 0.24123 0.87975 0.0
Li881 Li 0.02693 0.25479 0.90268 0.0
Li882 Li 0.03018 0.22556 0.9005 0.0
Li883 Li 0.01313 0.23623 0.88247 0.0
C884 C 0.05646 0.24037 0.91506 0.0
N885 N 0.07386 0.23115 0.93964 0.0
C886 C 0.05328 0.24632 0.93087 0.0
C887 C 0.06852 0.22978 0.91174 0.0
C888 C 0.06221 0.24151 0.94313 0.0
C889 C 0.07717 0.22525 0.92434 0.0
C890 C 0.02567 0.27283 0.87955 0.0
C891 C 0.01264 0.29776 0.8842 0.0
N892 N 0.02651 0.30606 0.88079 0.0
C893 C 0.03977 0.28159 0.87599 0.0
C894 C 0.01195 0.28094 0.88358 0.0
C895 C 0.03995 0.29839 0.87671 0.0
C896 C 0.05576 0.24283 0.84966 0.0
N897 N 0.05941 0.24376 0.86543 0.0
C898 C 0.08727 0.24892 0.86037 0.0
C899 C 0.07477 0.24682 0.87095 0.0
C900 C 0.08391 0.24789 0.84395 0.0
C901 C 0.06787 0.24478 0.83866 0.0
H902 H 0.04341 0.24069 0.84564 0.0
H903 H 0.07731 0.24781 0.88359 0.0
C904 C 0.01322 0.27626 0.92668 0.0
N905 N 0.02609 0.27444 0.91708 0.0
C906 C 0.01181 0.29076 0.93675 0.0
C907 C 0.03711 0.30116 0.92715 0.0
C908 C 0.03809 0.2864 0.91735 0.0
C909 C 0.02377 0.30352 0.93696 0.0
H910 H 0.00396 0.26651 0.92642 0.0
H911 H 0.04833 0.28453 0.90979 0.0
C912 C 0.02052 0.20777 0.86781 0.0
N913 N 1.00183 0.18374 0.84898 0.0
C914 C 0.01274 0.19504 0.87457 0.0
C915 C 0.01882 0.20825 0.85147 0.0
C916 C 0.00336 0.18299 0.86485 0.0
C917 C 0.00929 0.19601 0.84215 0.0
C918 C 0.99502 0.23263 0.90745 0.0
C919 C 0.99018 0.21714 0.91089 0.0
C920 C 0.98351 0.24349 0.90549 0.0
C921 C 0.97385 0.21273 0.9122 0.0
C922 C 0.9673 0.2386 0.90686 0.0
N923 N 0.96285 0.22345 0.91016 0.0
C924 C 0.02981 0.21051 0.92837 0.0
C925 C 0.04232 0.19597 0.90646 0.0
C926 C 0.03342 0.19906 0.93812 0.0
N927 N 0.03429 0.20878 0.91288 0.0
C928 C 0.04611 0.18417 0.91576 0.0
C929 C 0.04172 0.18567 0.93186 0.0
H930 H 0.02358 0.22091 0.9332 0.0
H931 H 0.04597 0.19505 0.89416 0.0
C932 C 0.99196 0.24371 0.85921 0.0
N933 N 0.9938 0.23275 0.86941 0.0
C934 C 0.97838 0.24246 0.84935 0.0
C935 C 0.96883 0.21842 0.8603 0.0
C936 C 0.98262 0.22014 0.86998 0.0
C937 C 0.96651 0.22975 0.84986 0.0
H938 H 1.0011 0.25343 0.85864 0.0
H939 H 0.98434 0.21142 0.87798 0.0
O940 O 0.04746 0.24447 0.90293 0.0
O941 O 0.02532 0.25642 0.87922 0.0
O942 O 0.02961 0.21978 0.87717 0.0
O943 O 0.01096 0.23718 0.90619 0.0
H944 H 0.04388 0.2544 0.93365 0.0
H945 H 0.07098 0.2249 0.89957 0.0
H946 H 0.05983 0.24596 0.95543 0.0
H947 H 0.08646 0.21697 0.92196 0.0
H948 H 1.00215 0.30421 0.88742 0.0
H949 H 0.05049 0.27551 0.87287 0.0
H950 H 1.00095 0.27433 0.88635 0.0
H951 H 0.0508 0.30534 0.87407 0.0
H952 H 0.09939 0.25161 0.86506 0.0
H953 H 0.06468 0.24374 0.82614 0.0
H954 H 1.00128 0.29208 0.94403 0.0
H955 H 0.04671 0.3106 0.92711 0.0
H956 H 0.01374 0.19456 0.88722 0.0
H957 H 0.02466 0.21806 0.84605 0.0
H958 H 0.99722 0.17311 0.86994 0.0
H959 H 0.0078 0.19628 0.8295 0.0
H960 H 0.99891 0.20856 0.9124 0.0
H961 H 0.98704 0.25549 0.90276 0.0
H962 H 0.96993 0.20076 0.91479 0.0
H963 H 0.95826 0.24684 0.90527 0.0
H964 H 0.02966 0.20062 0.95041 0.0
H965 H 0.05269 0.17416 0.9105 0.0
H966 H 0.9773 0.25128 0.84124 0.0
H967 H 0.95997 0.20846 0.86116 0.0
Li968 Li 0.52622 0.75004 0.38102 0.0
Li969 Li 0.50932 0.76503 0.40191 0.0
Li970 Li 0.5115 0.73575 0.40145 0.0
Li971 Li 0.49681 0.74593 0.3811 0.0
C972 C 0.53701 0.75031 0.41763 0.0
N973 N 0.55173 0.74148 0.44404 0.0
C974 C 0.53303 0.75722 0.43293 0.0
C975 C 0.54852 0.73897 0.41574 0.0
C976 C 0.54061 0.7526 0.44614 0.0
C977 C 0.55581 0.73464 0.42925 0.0
C978 C 0.51067 0.78175 0.37739 0.0
C979 C 0.4976 0.8066 0.37866 0.0
N980 N 0.51189 0.81463 0.37608 0.0
C981 C 0.52521 0.79022 0.37466 0.0
C982 C 0.49673 0.78996 0.37931 0.0
C983 C 0.52558 0.80685 0.37406 0.0
C984 C 0.54163 0.75147 0.35198 0.0
N985 N 0.54448 0.75162 0.36781 0.0
C986 C 0.57277 0.75496 0.36395 0.0
C987 C 0.55966 0.75337 0.37395 0.0
C988 C 0.57022 0.75482 0.34749 0.0
C989 C 0.55435 0.75298 0.34156 0.0
H990 H 0.52943 0.75032 0.34747 0.0
H991 H 0.56159 0.75375 0.38663 0.0
C992 C 0.49418 0.78721 0.42405 0.0
N993 N 0.5076 0.78525 0.41527 0.0
C994 C 0.49204 0.80197 0.43339 0.0
C995 C 0.51776 0.81241 0.42481 0.0
C996 C 0.51945 0.79737 0.4157 0.0
C997 C 0.50384 0.81492 0.43375 0.0
H998 H 0.4851 0.77729 0.42381 0.0
H999 H 0.53012 0.79544 0.40879 0.0
C1000 C 0.50421 0.71705 0.36849 0.0
N1001 N 0.4859 0.69351 0.3487 0.0
C1002 C 0.49458 0.70527 0.37495 0.0
C1003 C 0.50458 0.71682 0.35198 0.0
C1004 C 0.48542 0.69346 0.36474 0.0
C1005 C 0.4952 0.70484 0.34217 0.0
C1006 C 0.47622 0.74407 0.40485 0.0
C1007 C 0.47046 0.729 0.40874 0.0
C1008 C 0.4654 0.75514 0.40153 0.0
C1009 C 0.45393 0.72521 0.40912 0.0
C1010 C 0.44896 0.75089 0.40201 0.0
N1011 N 0.44361 0.73614 0.40576 0.0
C1012 C 0.50781 0.72237 0.43026 0.0
C1013 C 0.52115 0.70606 0.41021 0.0
C1014 C 0.50982 0.7114 0.44101 0.0
N1015 N 0.51347 0.71955 0.4152 0.0
C1016 C 0.52342 0.69474 0.42057 0.0
C1017 C 0.51777 0.69735 0.43626 0.0
H1018 H 0.50194 0.73332 0.43399 0.0
H1019 H 0.52568 0.70418 0.39822 0.0
C1020 C 0.47963 0.75224 0.35443 0.0
N1021 N 0.4789 0.74256 0.36608 0.0
C1022 C 0.46726 0.75125 0.34313 0.0
C1023 C 0.45361 0.72999 0.35567 0.0
C1024 C 0.46635 0.73132 0.36667 0.0
C1025 C 0.45387 0.74016 0.34374 0.0
H1026 H 0.48989 0.76078 0.35383 0.0
H1027 H 0.46612 0.72342 0.37572 0.0
O1028 O 0.52932 0.75427 0.4046 0.0
O1029 O 0.51009 0.76552 0.37827 0.0
O1030 O 0.51301 0.72889 0.37832 0.0
O1031 O 0.49236 0.74804 0.40454 0.0
H1032 H 0.52405 0.76593 0.43459 0.0
H1033 H 0.55158 0.73335 0.40398 0.0
H1034 H 0.5376 0.75778 0.45805 0.0
H1035 H 0.56465 0.72578 0.42798 0.0
H1036 H 0.48693 0.81313 0.38023 0.0
H1037 H 0.53612 0.78406 0.37318 0.0
H1038 H 0.48538 0.78355 0.38138 0.0
H1039 H 0.53676 0.81359 0.37205 0.0
H1040 H 0.58475 0.75663 0.36912 0.0
H1041 H 0.55176 0.75264 0.32898 0.0
H1042 H 0.4813 0.80316 0.44036 0.0
H1043 H 0.52715 0.82202 0.4246 0.0
H1044 H 0.49404 0.70534 0.38771 0.0
H1045 H 0.5119 0.72589 0.34679 0.0
H1046 H 0.47785 0.68431 0.36958 0.0
H1047 H 0.4953 0.70458 0.32937 0.0
H1048 H 0.47865 0.72027 0.41132 0.0
H1049 H 0.46965 0.76685 0.39848 0.0
H1050 H 0.4493 0.71357 0.41205 0.0
H1051 H 0.44045 0.7593 0.39938 0.0
H1052 H 0.50549 0.71408 0.45303 0.0
H1053 H 0.52948 0.68403 0.41631 0.0
H1054 H 0.46828 0.75903 0.33392 0.0
H1055 H 0.44356 0.72128 0.3567 0.0
Li1056 Li 0.0201 0.77767 0.64351 0.0
Li1057 Li 1.00026 0.76563 0.66338 0.0
Li1058 Li 0.02928 0.76147 0.66322 0.0
Li1059 Li 0.01264 0.74835 0.64198 0.0
C1060 C 0.02871 0.7904 0.67923 0.0
N1061 N 0.04927 0.8051 0.70346 0.0
C1062 C 0.0256 0.78823 0.69501 0.0
C1063 C 0.0422 0.80011 0.67575 0.0
C1064 C 0.03617 0.79574 0.70709 0.0
C1065 C 0.05247 0.80743 0.68818 0.0
C1066 C 0.98806 0.75881 0.62791 0.0
C1067 C 0.96334 0.74358 0.61873 0.0
N1068 N 0.96826 0.74323 0.60343 0.0
C1069 C 0.99284 0.75841 0.61209 0.0
C1070 C 0.97318 0.75141 0.63129 0.0
C1071 C 0.98267 0.75042 0.59988 0.0
C1072 C 0.03067 0.79171 0.6167 0.0
N1073 N 0.02452 0.79514 0.63147 0.0
C1074 C 0.02433 0.82314 0.6284 0.0
C1075 C 0.02134 0.81048 0.63746 0.0
C1076 C 0.03072 0.82 0.61304 0.0
C1077 C 0.03398 0.80399 0.60731 0.0
H1078 H 0.03309 0.7794 0.61224 0.0
H1079 H 0.01634 0.81285 0.64922 0.0
C1080 C 0.9809 0.76245 0.69002 0.0
N1081 N 0.98192 0.76919 0.67632 0.0
C1082 C 0.9677 0.76464 0.6999 0.0
C1083 C 0.95687 0.78078 0.68146 0.0
C1084 C 0.97028 0.77824 0.6719 0.0
C1085 C 0.95543 0.77395 0.69571 0.0
H1086 H 0.99034 0.75532 0.69325 0.0
H1087 H 0.97143 0.78351 0.66096 0.0
C1088 C 0.04992 0.75829 0.63806 0.0
N1089 N 0.08235 0.75554 0.63378 0.0
C1090 C 0.05626 0.74328 0.63784 0.0
C1091 C 0.06006 0.77187 0.63593 0.0
C1092 C 0.0727 0.74215 0.63573 0.0
C1093 C 0.07642 0.77024 0.63382 0.0
C1094 C 0.00847 0.72952 0.66521 0.0
C1095 C 0.02127 0.71974 0.66261 0.0
C1096 C 0.99328 0.7226 0.66825 0.0
C1097 C 0.01858 0.70309 0.6628 0.0
C1098 C 0.99108 0.70588 0.66835 0.0
N1099 N 0.00367 0.69656 0.66563 0.0
C1100 C 0.04271 0.75058 0.69005 0.0
C1101 C 0.06172 0.76586 0.67655 0.0
C1102 C 0.05439 0.74805 0.7011 0.0
N1103 N 0.04655 0.75913 0.67789 0.0
C1104 C 0.07385 0.76339 0.68717 0.0
C1105 C 0.07035 0.75425 0.69964 0.0
H1106 H 0.03048 0.74577 0.69124 0.0
H1107 H 0.06447 0.77321 0.66731 0.0
C1108 C 0.01954 0.72644 0.61479 0.0
N1109 N 0.00871 0.72911 0.62657 0.0
C1110 C 0.01734 0.71288 0.60312 0.0
C1111 C 0.99266 0.70515 0.61567 0.0
C1112 C 0.99535 0.71886 0.6271 0.0
C1113 C 0.00377 0.70196 0.60347 0.0
H1114 H 0.02985 0.73495 0.61433 0.0
H1115 H 0.98668 0.72138 0.6363 0.0
O1116 O 0.01881 0.78273 0.66719 0.0
O1117 O 0.99801 0.76619 0.64004 0.0
O1118 O 0.03383 0.75959 0.63991 0.0
O1119 O 0.01085 0.74584 0.665 0.0
H1120 H 0.01523 0.78066 0.69784 0.0
H1121 H 0.04481 0.8018 0.66357 0.0
H1122 H 0.03398 0.79409 0.71935 0.0
H1123 H 0.06301 0.81491 0.68568 0.0
H1124 H 0.95183 0.73771 0.62117 0.0
H1125 H 0.00436 0.76402 0.60931 0.0
H1126 H 0.96936 0.75154 0.64348 0.0
H1127 H 0.98626 0.74989 0.58759 0.0
H1128 H 0.02137 0.83519 0.63328 0.0
H1129 H 0.03915 0.80095 0.5957 0.0
H1130 H 0.96705 0.75892 0.71061 0.0
H1131 H 0.94785 0.78821 0.67782 0.0
H1132 H 0.04857 0.73259 0.63919 0.0
H1133 H 0.05541 0.78361 0.63619 0.0
H1134 H 0.07777 0.73062 0.63558 0.0
H1135 H 0.08442 0.78067 0.63228 0.0
H1136 H 0.03314 0.72497 0.66051 0.0
H1137 H 0.98325 0.73002 0.67029 0.0
H1138 H 0.02837 0.69535 0.66074 0.0
H1139 H 0.97936 0.70033 0.67056 0.0
H1140 H 0.05088 0.74136 0.71074 0.0
H1141 H 0.0859 0.76841 0.68539 0.0
H1142 H 0.02606 0.71113 0.59378 0.0
H1143 H 0.98207 0.69705 0.61649 0.0
Li1144 Li 0.51247 0.28042 0.13978 0.0
Li1145 Li 0.49389 0.26847 0.16052 0.0
Li1146 Li 0.5231 0.26638 0.16069 0.0
Li1147 Li 0.50724 0.25097 0.13991 0.0
C1148 C 0.52201 0.2966 0.17338 0.0
N1149 N 0.54413 0.3157 0.19346 0.0
C1150 C 0.52143 0.29637 0.18983 0.0
C1151 C 0.5338 0.30659 0.16714 0.0
C1152 C 0.53275 0.3061 0.19978 0.0
C1153 C 0.54487 0.31616 0.17749 0.0
C1154 C 0.48281 0.25864 0.12423 0.0
C1155 C 0.46181 0.23864 0.11362 0.0
N1156 N 0.46658 0.24037 0.0986 0.0
C1157 C 0.48747 0.26028 0.10869 0.0
C1158 C 0.46985 0.24778 0.12675 0.0
C1159 C 0.47912 0.25091 0.09588 0.0
C1160 C 0.5251 0.29492 0.11374 0.0
N1161 N 0.51553 0.29719 0.12664 0.0
C1162 C 0.50968 0.32318 0.12036 0.0
C1163 C 0.50786 0.31097 0.1301 0.0
C1164 C 0.51952 0.32121 0.10694 0.0
C1165 C 0.52733 0.30684 0.10373 0.0
H1166 H 0.53087 0.28374 0.11112 0.0
H1167 H 0.5003 0.31244 0.14043 0.0
C1168 C 0.47714 0.27182 0.18942 0.0
N1169 N 0.47538 0.27168 0.17345 0.0
C1170 C 0.464 0.27369 0.19942 0.0
C1171 C 0.44733 0.27498 0.17632 0.0
C1172 C 0.46088 0.2733 0.16679 0.0
C1173 C 0.44873 0.27518 0.19293 0.0
H1174 H 0.48878 0.27033 0.1944 0.0
H1175 H 0.45977 0.27312 0.15404 0.0
C1176 C 0.5426 0.25792 0.13605 0.0
N1177 N 0.57273 0.24652 0.13346 0.0
C1178 C 0.54494 0.24228 0.13913 0.0
C1179 C 0.55555 0.26774 0.13153 0.0
C1180 C 0.56026 0.23674 0.13779 0.0
C1181 C 0.57071 0.26176 0.13033 0.0
C1182 C 0.50042 0.2345 0.16587 0.0
C1183 C 0.51126 0.22277 0.16696 0.0
C1184 C 0.48408 0.23073 0.16802 0.0
C1185 C 0.50552 0.20735 0.16989 0.0
C1186 C 0.47883 0.21518 0.17096 0.0
N1187 N 0.48957 0.2039 0.17181 0.0
C1188 C 0.53875 0.25693 0.18712 0.0
C1189 C 0.55546 0.27398 0.17302 0.0
C1190 C 0.55137 0.25538 0.19753 0.0
N1191 N 0.54103 0.26592 0.17501 0.0
C1192 C 0.56845 0.27273 0.18314 0.0
C1193 C 0.56655 0.26319 0.19553 0.0
H1194 H 0.52713 0.25081 0.18861 0.0
H1195 H 0.55694 0.28135 0.16354 0.0
C1196 C 0.51425 0.23085 0.11172 0.0
N1197 N 0.50506 0.23114 0.12494 0.0
C1198 C 0.51349 0.21717 0.10014 0.0
C1199 C 0.49359 0.20433 0.11574 0.0
C1200 C 0.49467 0.2183 0.12698 0.0
C1201 C 0.50313 0.20361 0.10212 0.0
H1202 H 0.52215 0.24131 0.1101 0.0
H1203 H 0.48695 0.21891 0.13712 0.0
O1204 O 0.51134 0.28685 0.16338 0.0
O1205 O 0.49119 0.26729 0.13691 0.0
O1206 O 0.52772 0.26363 0.1375 0.0
O1207 O 0.50584 0.24975 0.16326 0.0
H1208 H 0.51247 0.28863 0.19484 0.0
H1209 H 0.53451 0.3068 0.15442 0.0
H1210 H 0.5325 0.30597 0.21252 0.0
H1211 H 0.55411 0.32389 0.17282 0.0
H1212 H 0.45183 0.2301 0.11539 0.0
H1213 H 0.49755 0.26855 0.10656 0.0
H1214 H 0.46623 0.24622 0.13872 0.0
H1215 H 0.48265 0.25197 0.08379 0.0
H1216 H 0.50356 0.33411 0.1234 0.0
H1217 H 0.53485 0.3047 0.09342 0.0
H1218 H 0.46587 0.27407 0.21212 0.0
H1219 H 0.43586 0.27581 0.17065 0.0
H1220 H 0.53501 0.2345 0.14251 0.0
H1221 H 0.55396 0.27992 0.12919 0.0
H1222 H 0.56225 0.22467 0.14019 0.0
H1223 H 0.58086 0.26926 0.12693 0.0
H1224 H 0.52397 0.22554 0.16566 0.0
H1225 H 0.4755 0.23961 0.16721 0.0
H1226 H 0.51377 0.19813 0.17071 0.0
H1227 H 0.46621 0.21207 0.17253 0.0
H1228 H 0.54935 0.24779 0.20681 0.0
H1229 H 0.57984 0.2792 0.18131 0.0
H1230 H 0.52108 0.21716 0.08984 0.0
H1231 H 0.48514 0.19432 0.11757 0.0
H1232 H 0.26204 0.74245 0.83518 0.0
H1233 H 0.26311 0.76339 0.85846 0.0
H1234 H 0.21619 0.74542 0.87204 0.0
H1235 H 0.21485 0.72492 0.84829 0.0
H1236 H 0.21818 0.77641 0.87843 0.0
H1237 H 0.25215 0.73602 0.88965 0.0
H1238 H 0.27384 0.71764 0.88503 0.0
H1239 H 0.30839 0.75839 0.88561 0.0
H1240 H 0.28687 0.77703 0.89 0.0
H1241 H 0.2288 0.81098 0.96119 0.0
H1242 H 0.22589 0.79134 0.93675 0.0
H1243 H 0.26468 0.81753 0.91572 0.0
H1244 H 0.26744 0.83735 0.93998 0.0
H1245 H 0.26637 0.78222 0.9138 0.0
H1246 H 0.23048 0.8223 0.90305 0.0
H1247 H 0.20792 0.83934 0.9091 0.0
H1248 H 0.17588 0.79684 0.90977 0.0
H1249 H 0.19832 0.77954 0.90397 0.0
C1250 C 0.25191 0.7431 0.84308 0.0
C1251 C 0.2384 0.73205 0.84002 0.0
C1252 C 0.25256 0.75499 0.85644 0.0
C1253 C 0.2399 0.75577 0.86729 0.0
C1254 C 0.22615 0.74506 0.86392 0.0
C1255 C 0.22537 0.73335 0.85036 0.0
C1256 C 0.24119 0.76749 0.88229 0.0
C1257 C 0.22865 0.7775 0.88623 0.0
C1258 C 0.25487 0.76907 0.89253 0.0
C1259 C 0.26787 0.75791 0.89 0.0
C1260 C 0.26436 0.74106 0.88868 0.0
C1261 C 0.27663 0.73059 0.88612 0.0
C1262 C 0.29248 0.73684 0.88499 0.0
C1263 C 0.2961 0.75357 0.88647 0.0
C1264 C 0.28388 0.76409 0.889 0.0
C1265 C 0.23668 0.81252 0.95134 0.0
C1266 C 0.24831 0.82569 0.95243 0.0
C1267 C 0.23498 0.80136 0.9374 0.0
C1268 C 0.24505 0.80304 0.92444 0.0
C1269 C 0.25679 0.81606 0.92559 0.0
C1270 C 0.2583 0.82739 0.93939 0.0
C1271 C 0.24347 0.79111 0.90974 0.0
C1272 C 0.25595 0.78106 0.90593 0.0
C1273 C 0.22961 0.78926 0.89984 0.0
C1274 C 0.21611 0.79964 0.90325 0.0
C1275 C 0.21865 0.81659 0.90464 0.0
C1276 C 0.20588 0.8263 0.90799 0.0
C1277 C 0.19048 0.81918 0.90986 0.0
C1278 C 0.18782 0.80234 0.90835 0.0
C1279 C 0.20055 0.79258 0.90501 0.0
H1280 H 0.18061 0.82671 0.91245 0.0
H1281 H 0.30196 0.72872 0.883 0.0
H1282 H 0.99308 0.51665 0.42529 0.0
H1283 H 0.01071 0.51699 0.40235 0.0
H1284 H 0.04716 0.5457 0.43229 0.0
H1285 H 0.02943 0.54525 0.4554 0.0
H1286 H 0.04333 0.55475 0.40006 0.0
H1287 H 0.05146 0.50833 0.42631 0.0
H1288 H 0.04265 0.48392 0.43822 0.0
H1289 H 0.02141 0.46184 0.39343 0.0
H1290 H 0.0299 0.48624 0.38132 0.0
H1291 H 0.10661 0.53714 0.34581 0.0
H1292 H 0.09012 0.54152 0.36944 0.0
H1293 H 0.05518 0.50402 0.34818 0.0
H1294 H 0.07206 0.4988 0.32503 0.0
H1295 H 0.0594 0.50051 0.37741 0.0
H1296 H 0.05004 0.54615 0.35089 0.0
H1297 H 0.05747 0.57052 0.33836 0.0
H1298 H 0.07943 0.59401 0.3823 0.0
H1299 H 0.07231 0.5697 0.39504 0.0
C1300 C 0.00471 0.52334 0.42686 0.0
C1301 C 0.00995 0.53101 0.44196 0.0
C1302 C 0.01478 0.52348 0.4138 0.0
C1303 C 0.03028 0.53126 0.41566 0.0
C1304 C 0.03523 0.53967 0.43062 0.0
C1305 C 0.02514 0.53943 0.44377 0.0
C1306 C 0.04161 0.52936 0.40224 0.0
C1307 C 0.04707 0.54295 0.39521 0.0
C1308 C 0.04617 0.51391 0.39574 0.0
C1309 C 0.04119 0.49917 0.40296 0.0
C1310 C 0.0448 0.49832 0.41904 0.0
C1311 C 0.03988 0.48448 0.42582 0.0
C1312 C 0.03144 0.47135 0.4166 0.0
C1313 C 0.02794 0.47202 0.40056 0.0
C1314 C 0.03281 0.48585 0.39373 0.0
C1315 C 0.09551 0.52967 0.34621 0.0
C1316 C 0.09072 0.5176 0.33341 0.0
C1317 C 0.08595 0.53237 0.35967 0.0
C1318 C 0.07124 0.52328 0.36055 0.0
C1319 C 0.06643 0.51125 0.3478 0.0
C1320 C 0.07606 0.50841 0.33444 0.0
C1321 C 0.06102 0.52588 0.37489 0.0
C1322 C 0.05577 0.51237 0.38219 0.0
C1323 C 0.05653 0.54139 0.38149 0.0
C1324 C 0.06079 0.55604 0.37387 0.0
C1325 C 0.05656 0.55647 0.35784 0.0
C1326 C 0.0607 0.57028 0.35071 0.0
C1327 C 0.06896 0.58379 0.35951 0.0
C1328 C 0.07305 0.58353 0.37549 0.0
C1329 C 0.06896 0.56974 0.38268 0.0
H1330 H 0.07215 0.59447 0.35397 0.0
H1331 H 0.02765 0.46064 0.42186 0.0
H1332 H 0.80599 0.78657 0.85885 0.0
H1333 H 0.80446 0.76879 0.87944 0.0
H1334 H 0.81524 0.72848 0.8447 0.0
H1335 H 0.8165 0.74624 0.82388 0.0
H1336 H 0.7899 0.72071 0.86328 0.0
H1337 H 0.8433 0.74527 0.87191 0.0
H1338 H 0.86428 0.76785 0.87616 0.0
H1339 H 0.84193 0.78711 0.91941 0.0
H1340 H 0.82067 0.76476 0.91531 0.0
H1341 H 0.79776 0.66868 0.92226 0.0
H1342 H 0.80304 0.6844 0.90036 0.0
H1343 H 0.79682 0.72845 0.93197 0.0
H1344 H 0.79236 0.71293 0.9541 0.0
H1345 H 0.82151 0.733 0.91382 0.0
H1346 H 0.76723 0.71004 0.90447 0.0
H1347 H 0.74559 0.68809 0.90025 0.0
H1348 H 0.76891 0.66643 0.85854 0.0
H1349 H 0.79081 0.68816 0.86263 0.0
C1350 C 0.80804 0.77392 0.85557 0.0
C1351 C 0.81133 0.76781 0.83971 0.0
C1352 C 0.80728 0.76379 0.86739 0.0
C1353 C 0.80985 0.74731 0.86366 0.0
C1354 C 0.81325 0.74117 0.84786 0.0
C1355 C 0.81409 0.75134 0.83601 0.0
C1356 C 0.80849 0.73651 0.87624 0.0
C1357 C 0.79702 0.72321 0.87422 0.0
C1358 C 0.8175 0.73999 0.89067 0.0
C1359 C 0.83032 0.7534 0.89323 0.0
C1360 C 0.84279 0.75438 0.88227 0.0
C1361 C 0.85474 0.76713 0.88466 0.0
C1362 C 0.85442 0.77893 0.89803 0.0
C1363 C 0.84216 0.77797 0.90906 0.0
C1364 C 0.83016 0.76525 0.90671 0.0
C1365 C 0.7977 0.68173 0.92463 0.0
C1366 C 0.79455 0.68949 0.94001 0.0
C1367 C 0.80054 0.69071 0.91201 0.0
C1368 C 0.80011 0.70763 0.91441 0.0
C1369 C 0.79716 0.71542 0.92977 0.0
C1370 C 0.79442 0.70647 0.9424 0.0
C1371 C 0.80276 0.71729 0.90099 0.0
C1372 C 0.81447 0.73039 0.90284 0.0
C1373 C 0.7939 0.71368 0.88645 0.0
C1374 C 0.78074 0.70062 0.88396 0.0
C1375 C 0.76781 0.70053 0.89447 0.0
C1376 C 0.75549 0.68814 0.89209 0.0
C1377 C 0.7559 0.67585 0.87916 0.0
C1378 C 0.76862 0.67595 0.86856 0.0
C1379 C 0.78098 0.6883 0.8709 0.0
H1380 H 0.74635 0.66627 0.87733 0.0
H1381 H 0.86368 0.78879 0.89986 0.0
H1382 H 0.05123 0.98679 0.4418 0.0
H1383 H 0.03581 0.99437 0.41974 0.0
H1384 H 0.99292 0.99264 0.44766 0.0
H1385 H 0.00826 0.98476 0.46964 0.0
H1386 H 0.98652 0.97836 0.41874 0.0
H1387 H 0.0134 0.02906 0.44097 0.0
H1388 H 0.03649 0.04801 0.45073 0.0
H1389 H 0.05732 0.04122 0.40434 0.0
H1390 H 0.03446 0.02204 0.39434 0.0
H1391 H 0.93919 0.01747 0.36793 0.0
H1392 H 0.95473 0.0125 0.39113 0.0
H1393 H 0.99669 0.00743 0.36212 0.0
H1394 H 0.98125 0.01253 0.33892 0.0
H1395 H 0.00321 0.02588 0.39189 0.0
H1396 H 0.97621 0.97453 0.37023 0.0
H1397 H 0.95276 0.95594 0.3608 0.0
H1398 H 0.93168 0.96474 0.40695 0.0
H1399 H 0.95492 0.98358 0.4166 0.0
C1400 C 0.03853 0.98817 0.44327 0.0
C1401 C 0.03095 0.98521 0.45746 0.0
C1402 C 0.02973 0.99253 0.43067 0.0
C1403 C 0.01322 0.99431 0.43209 0.0
C1404 C 0.00564 0.99135 0.44626 0.0
C1405 C 0.0144 0.98683 0.45881 0.0
C1406 C 0.00378 0.99884 0.41866 0.0
C1407 C 0.99005 0.98891 0.41306 0.0
C1408 C 0.00852 0.01242 0.41099 0.0
C1409 C 0.02227 0.02401 0.41694 0.0
C1410 C 0.02295 0.03152 0.43287 0.0
C1411 C 0.03599 0.04231 0.43845 0.0
C1412 C 0.04837 0.0458 0.42817 0.0
C1413 C 0.04773 0.0385 0.41229 0.0
C1414 C 0.03472 0.02768 0.40666 0.0
C1415 C 0.95177 0.01548 0.36655 0.0
C1416 C 0.95898 0.01531 0.35159 0.0
C1417 C 0.96061 0.01255 0.37978 0.0
C1418 C 0.97683 0.00946 0.37831 0.0
C1419 C 0.98418 0.00975 0.3635 0.0
C1420 C 0.97532 0.01255 0.35024 0.0
C1421 C 0.98602 0.00543 0.39208 0.0
C1422 C 0.99969 0.01541 0.39769 0.0
C1423 C 0.98117 0.99198 0.39985 0.0
C1424 C 0.96722 0.9806 0.39409 0.0
C1425 C 0.96652 0.97261 0.37833 0.0
C1426 C 0.95327 0.96201 0.37295 0.0
C1427 C 0.94072 0.9592 0.38326 0.0
C1428 C 0.9414 0.96695 0.39898 0.0
C1429 C 0.95461 0.97758 0.40441 0.0
H1430 H 0.93048 0.95098 0.37907 0.0
H1431 H 0.05843 0.05419 0.4325 0.0
H1432 H 0.24636 0.25845 0.70831 0.0
H1433 H 0.24674 0.23883 0.68405 0.0
H1434 H 0.253 0.27794 0.65584 0.0
H1435 H 0.25218 0.29758 0.67996 0.0
H1436 H 0.23235 0.25403 0.64137 0.0
H1437 H 0.28481 0.2582 0.66595 0.0
H1438 H 0.30415 0.25735 0.68784 0.0
H1439 H 0.28868 0.20749 0.68951 0.0
H1440 H 0.26907 0.20811 0.66776 0.0
H1441 H 0.26412 0.21391 0.5707 0.0
H1442 H 0.26025 0.23177 0.59551 0.0
H1443 H 0.25469 0.1904 0.62079 0.0
H1444 H 0.25903 0.17247 0.59608 0.0
H1445 H 0.27379 0.21434 0.63724 0.0
H1446 H 0.22226 0.2098 0.61151 0.0
H1447 H 0.20308 0.21078 0.58952 0.0
H1448 H 0.21684 0.26134 0.58987 0.0
H1449 H 0.23628 0.26062 0.61173 0.0
C1450 C 0.24754 0.26287 0.69692 0.0
C1451 C 0.24937 0.27959 0.69609 0.0
C1452 C 0.24791 0.25164 0.68307 0.0
C1453 C 0.25015 0.2569 0.66813 0.0
C1454 C 0.25134 0.27358 0.66722 0.0
C1455 C 0.25099 0.2848 0.68104 0.0
C1456 C 0.25181 0.24512 0.65348 0.0
C1457 C 0.24151 0.24545 0.64041 0.0
C1458 C 0.26353 0.23368 0.65233 0.0
C1459 C 0.27536 0.23325 0.66535 0.0
C1460 C 0.28545 0.24709 0.67107 0.0
C1461 C 0.29647 0.24665 0.68344 0.0
C1462 C 0.29761 0.23239 0.69009 0.0
C1463 C 0.28776 0.21853 0.68436 0.0
C1464 C 0.2767 0.21892 0.67201 0.0
C1465 C 0.26221 0.2086 0.58155 0.0
C1466 C 0.26186 0.19173 0.58136 0.0
C1467 C 0.25983 0.21883 0.59571 0.0
C1468 C 0.25697 0.21243 0.61 0.0
C1469 C 0.2568 0.19562 0.60991 0.0
C1470 C 0.25916 0.18537 0.59574 0.0
C1471 C 0.25439 0.2233 0.62507 0.0
C1472 C 0.26455 0.22282 0.63822 0.0
C1473 C 0.24255 0.23462 0.62628 0.0
C1474 C 0.23083 0.23511 0.61316 0.0
C1475 C 0.22129 0.2211 0.60682 0.0
C1476 C 0.21036 0.22162 0.59439 0.0
C1477 C 0.20877 0.2361 0.58827 0.0
C1478 C 0.21809 0.25012 0.59461 0.0
C1479 C 0.22906 0.24967 0.60702 0.0
H1480 H 0.2003 0.23648 0.57865 0.0
H1481 H 0.30616 0.23206 0.69967 0.0
H1482 H 0.51673 0.5485 0.57834 0.0
H1483 H 0.5007 0.54861 0.60243 0.0
H1484 H 0.54396 0.55501 0.6313 0.0
H1485 H 0.56001 0.55503 0.60732 0.0
H1486 H 0.52439 0.53057 0.63905 0.0
H1487 H 0.51906 0.58561 0.63096 0.0
H1488 H 0.51263 0.60751 0.61582 0.0
H1489 H 0.4639 0.5873 0.60972 0.0
H1490 H 0.47009 0.56514 0.62463 0.0
H1491 H 0.48879 0.54209 0.71471 0.0
H1492 H 0.50428 0.54657 0.69118 0.0
H1493 H 0.46073 0.54153 0.66285 0.0
H1494 H 0.44506 0.53775 0.68648 0.0
H1495 H 0.48029 0.56557 0.65478 0.0
H1496 H 0.48542 0.51035 0.66198 0.0
H1497 H 0.49151 0.488 0.67666 0.0
H1498 H 0.54025 0.50797 0.68376 0.0
H1499 H 0.53439 0.53057 0.66931 0.0
C1500 C 0.52282 0.5503 0.58984 0.0
C1501 C 0.53967 0.55167 0.59088 0.0
C1502 C 0.51364 0.55031 0.60362 0.0
C1503 C 0.52111 0.55181 0.61871 0.0
C1504 C 0.53791 0.55373 0.6198 0.0
C1505 C 0.54707 0.55372 0.60607 0.0
C1506 C 0.51154 0.55042 0.6333 0.0
C1507 C 0.51491 0.53841 0.64261 0.0
C1508 C 0.49885 0.5603 0.63772 0.0
C1509 C 0.49508 0.57363 0.62878 0.0
C1510 C 0.507 0.58576 0.62627 0.0
C1511 C 0.50339 0.59824 0.61776 0.0
C1512 C 0.48788 0.59878 0.61178 0.0
C1513 C 0.47592 0.58686 0.61434 0.0
C1514 C 0.47947 0.57435 0.62284 0.0
C1515 C 0.48245 0.54216 0.70355 0.0
C1516 C 0.46564 0.53946 0.70253 0.0
C1517 C 0.49136 0.54456 0.69003 0.0
C1518 C 0.48371 0.54414 0.67515 0.0
C1519 C 0.46692 0.54183 0.67416 0.0
C1520 C 0.45799 0.5395 0.68768 0.0
C1521 C 0.49323 0.5458 0.66058 0.0
C1522 C 0.48981 0.55779 0.65123 0.0
C1523 C 0.50585 0.53585 0.65605 0.0
C1524 C 0.50942 0.52224 0.6647 0.0
C1525 C 0.49741 0.51004 0.66678 0.0
C1526 C 0.50082 0.49732 0.67504 0.0
C1527 C 0.51625 0.49659 0.68118 0.0
C1528 C 0.5283 0.50856 0.67902 0.0
C1529 C 0.52494 0.52133 0.67079 0.0
H1530 H 0.51887 0.48673 0.68757 0.0
H1531 H 0.48511 0.60844 0.60519 0.0
H1532 H 0.80487 0.27828 0.70079 0.0
H1533 H 0.79256 0.2923 0.68098 0.0
H1534 H 0.7798 0.24642 0.65194 0.0
H1535 H 0.7927 0.23241 0.67175 0.0
H1536 H 0.793 0.26644 0.63422 0.0
H1537 H 0.75087 0.27045 0.67141 0.0
H1538 H 0.73817 0.27598 0.69757 0.0
H1539 H 0.7555 0.32603 0.70127 0.0
H1540 H 0.7685 0.32077 0.67523 0.0
H1541 H 0.75184 0.30812 0.57967 0.0
H1542 H 0.75633 0.29043 0.5998 0.0
H1543 H 0.77954 0.33095 0.6307 0.0
H1544 H 0.77509 0.3487 0.61063 0.0
H1545 H 0.75754 0.31128 0.64648 0.0
H1546 H 0.80195 0.30566 0.61024 0.0
H1547 H 0.81402 0.29968 0.58381 0.0
H1548 H 0.79083 0.2516 0.57816 0.0
H1549 H 0.77842 0.25738 0.60448 0.0
C1550 C 0.79909 0.2712 0.69034 0.0
C1551 C 0.79949 0.25433 0.6878 0.0
C1552 C 0.792 0.2792 0.67903 0.0
C1553 C 0.78499 0.27045 0.665 0.0
C1554 C 0.78504 0.25345 0.66268 0.0
C1555 C 0.79228 0.24544 0.67401 0.0
C1556 C 0.77891 0.27925 0.65232 0.0
C1557 C 0.78493 0.27598 0.63686 0.0
C1558 C 0.76859 0.29193 0.65572 0.0
C1559 C 0.76076 0.29518 0.67139 0.0
C1560 C 0.75208 0.28262 0.67785 0.0
C1561 C 0.7448 0.28571 0.69265 0.0
C1562 C 0.74605 0.30134 0.70109 0.0
C1563 C 0.75454 0.31393 0.69472 0.0
C1564 C 0.76185 0.3109 0.67993 0.0
C1565 C 0.75777 0.31328 0.59082 0.0
C1566 C 0.76316 0.32979 0.59356 0.0
C1567 C 0.76038 0.30315 0.60227 0.0
C1568 C 0.76833 0.30937 0.61671 0.0
C1569 C 0.77338 0.32592 0.61963 0.0
C1570 C 0.77094 0.33601 0.60812 0.0
C1571 C 0.77185 0.29858 0.62862 0.0
C1572 C 0.76537 0.30153 0.64388 0.0
C1573 C 0.7816 0.28552 0.62501 0.0
C1574 C 0.78911 0.28202 0.60923 0.0
C1575 C 0.79931 0.29386 0.6033 0.0
C1576 C 0.80624 0.2905 0.58835 0.0
C1577 C 0.80316 0.27529 0.57929 0.0
C1578 C 0.79318 0.26339 0.58518 0.0
C1579 C 0.7862 0.2667 0.60011 0.0
H1580 H 0.80853 0.2727 0.56772 0.0
H1581 H 0.74041 0.30371 0.71255 0.0
H1582 H 0.5317 0.96464 0.56748 0.0
H1583 H 0.54991 0.96631 0.59044 0.0
H1584 H 0.51512 0.9902 0.6206 0.0
H1585 H 0.4965 0.98793 0.59796 0.0
H1586 H 0.54717 0.00604 0.62276 0.0
H1587 H 0.51944 0.95342 0.62429 0.0
H1588 H 0.50985 0.9256 0.61284 0.0
H1589 H 0.55835 0.9139 0.60403 0.0
H1590 H 0.56822 0.94174 0.61521 0.0
H1591 H 0.58208 0.00762 0.69847 0.0
H1592 H 0.5638 0.00339 0.6756 0.0
H1593 H 0.59439 0.9693 0.65084 0.0
H1594 H 0.61216 0.9725 0.6742 0.0
H1595 H 0.56511 0.9584 0.64496 0.0
H1596 H 0.5936 0.00958 0.6428 0.0
H1597 H 0.60451 0.03742 0.65266 0.0
H1598 H 0.55682 0.0521 0.6605 0.0
H1599 H 0.54562 0.02428 0.65088 0.0
C1600 C 0.52775 0.96998 0.57903 0.0
C1601 C 0.51258 0.97619 0.58079 0.0
C1602 C 0.53824 0.97101 0.59212 0.0
C1603 C 0.53385 0.97839 0.60718 0.0
C1604 C 0.51876 0.98454 0.60903 0.0
C1605 C 0.50817 0.98332 0.59603 0.0
C1606 C 0.54512 0.98006 0.62097 0.0
C1607 C 0.55097 0.99566 0.62777 0.0
C1608 C 0.55047 0.96647 0.62707 0.0
C1609 C 0.54455 0.94971 0.62043 0.0
C1610 C 0.52805 0.94496 0.61978 0.0
C1611 C 0.52256 0.92918 0.61336 0.0
C1612 C 0.53348 0.918 0.60767 0.0
C1613 C 0.54991 0.92257 0.60842 0.0
C1614 C 0.55545 0.93835 0.61481 0.0
C1615 C 0.58484 0.99898 0.68832 0.0
C1616 C 0.59871 0.99044 0.68827 0.0
C1617 C 0.57446 0.99677 0.67509 0.0
C1618 C 0.57786 0.98629 0.6613 0.0
C1619 C 0.59154 0.97755 0.66127 0.0
C1620 C 0.60181 0.97955 0.67461 0.0
C1621 C 0.56713 0.98447 0.64696 0.0
C1622 C 0.5614 0.96884 0.63999 0.0
C1623 C 0.56211 0.99805 0.64049 0.0
C1624 C 0.56879 0.01481 0.64626 0.0
C1625 C 0.58545 0.01872 0.64674 0.0
C1626 C 0.59168 0.03449 0.65227 0.0
C1627 C 0.58136 0.04651 0.65724 0.0
C1628 C 0.56479 0.04277 0.65666 0.0
C1629 C 0.5585 0.02701 0.65116 0.0
H1630 H 0.58621 0.05871 0.66152 0.0
H1631 H 0.52921 0.90579 0.60271 0.0
H1632 H 0.84606 0.24696 0.75969 0.0
H1633 H 0.86835 0.24813 0.77872 0.0
H1634 H 0.86979 0.19629 0.7686 0.0
H1635 H 0.84751 0.19503 0.74952 0.0
H1636 H 0.87307 0.20647 0.80016 0.0
H1637 H 0.89693 0.22136 0.75243 0.0
H1638 H 0.90019 0.23692 0.72981 0.0
H1639 H 0.90969 0.28085 0.76229 0.0
H1640 H 0.90625 0.26558 0.78511 0.0
H1641 H 0.95113 0.20228 0.83332 0.0
H1642 H 0.92759 0.20032 0.81569 0.0
H1643 H 0.92539 0.25211 0.8252 0.0
H1644 H 0.94881 0.25415 0.84292 0.0
H1645 H 0.92247 0.24159 0.79388 0.0
H1646 H 0.89873 0.22658 0.84166 0.0
H1647 H 0.89548 0.21094 0.86421 0.0
H1648 H 0.88593 0.16711 0.83161 0.0
H1649 H 0.88935 0.18246 0.80884 0.0
C1650 C 0.85117 0.23581 0.76146 0.0
C1651 C 0.84506 0.22091 0.75301 0.0
C1652 C 0.8639 0.23649 0.77235 0.0
C1653 C 0.87089 0.22231 0.77494 0.0
C1654 C 0.86459 0.20738 0.76681 0.0
C1655 C 0.85182 0.20668 0.75593 0.0
C1656 C 0.88492 0.2231 0.78594 0.0
C1657 C 0.88396 0.21399 0.79867 0.0
C1658 C 0.89901 0.23315 0.78418 0.0
C1659 C 0.90118 0.24235 0.77048 0.0
C1660 C 0.89959 0.23436 0.75475 0.0
C1661 C 0.90149 0.24312 0.74189 0.0
C1662 C 0.90511 0.25987 0.74461 0.0
C1663 C 0.90687 0.26788 0.7602 0.0
C1664 C 0.90496 0.25918 0.7731 0.0
C1665 C 0.94551 0.21323 0.83183 0.0
C1666 C 0.95189 0.22838 0.83952 0.0
C1667 C 0.93206 0.21209 0.82172 0.0
C1668 C 0.92465 0.22606 0.81919 0.0
C1669 C 0.93094 0.24118 0.82692 0.0
C1670 C 0.94437 0.24232 0.83701 0.0
C1671 C 0.91061 0.22503 0.80817 0.0
C1672 C 0.91159 0.23408 0.79539 0.0
C1673 C 0.89656 0.21491 0.80988 0.0
C1674 C 0.89446 0.20565 0.82355 0.0
C1675 C 0.89607 0.21359 0.8393 0.0
C1676 C 0.89417 0.20478 0.85212 0.0
C1677 C 0.89054 0.18803 0.84934 0.0
C1678 C 0.88876 0.18007 0.83374 0.0
C1679 C 0.89067 0.18883 0.82087 0.0
H1680 H 0.88908 0.18123 0.85929 0.0
H1681 H 0.90658 0.26663 0.73464 0.0
H1682 H 0.46508 0.94569 0.52358 0.0
H1683 H 0.4657 0.92193 0.50314 0.0
H1684 H 0.5171 0.92355 0.50865 0.0
H1685 H 0.51664 0.94754 0.52848 0.0
H1686 H 0.50919 0.91648 0.47835 0.0
H1687 H 0.49128 0.89743 0.52697 0.0
H1688 H 0.47359 0.89596 0.54998 0.0
H1689 H 0.43338 0.88059 0.51834 0.0
H1690 H 0.45081 0.88217 0.49512 0.0
H1691 H 0.52646 0.83566 0.45126 0.0
H1692 H 0.52265 0.86169 0.46722 0.0
H1693 H 0.47237 0.8563 0.45452 0.0
H1694 H 0.47611 0.83041 0.43823 0.0
H1695 H 0.4775 0.86581 0.48656 0.0
H1696 H 0.49672 0.88243 0.43782 0.0
H1697 H 0.51511 0.88331 0.41529 0.0
H1698 H 0.55366 0.90278 0.44765 0.0
H1699 H 0.53556 0.90179 0.47042 0.0
C1700 C 0.47652 0.94111 0.52025 0.0
C1701 C 0.49078 0.94839 0.52783 0.0
C1702 C 0.47685 0.92744 0.50867 0.0
C1703 C 0.49143 0.92075 0.50454 0.0
C1704 C 0.5057 0.92839 0.51167 0.0
C1705 C 0.50539 0.94204 0.52315 0.0
C1706 C 0.49196 0.90553 0.4932 0.0
C1707 C 0.50234 0.90538 0.48022 0.0
C1708 C 0.48278 0.89109 0.49539 0.0
C1709 C 0.4723 0.8901 0.50932 0.0
C1710 C 0.47864 0.89386 0.52493 0.0
C1711 C 0.46867 0.89298 0.538 0.0
C1712 C 0.45236 0.88823 0.53562 0.0
C1713 C 0.446 0.8843 0.52016 0.0
C1714 C 0.45592 0.88518 0.50704 0.0
C1715 C 0.51462 0.84009 0.45165 0.0
C1716 C 0.5016 0.83089 0.44341 0.0
C1717 C 0.51246 0.85497 0.46084 0.0
C1718 C 0.49724 0.86101 0.46197 0.0
C1719 C 0.4842 0.85186 0.45384 0.0
C1720 C 0.48637 0.83701 0.44459 0.0
C1721 C 0.49492 0.87673 0.47189 0.0
C1722 C 0.48422 0.87695 0.4846 0.0
C1723 C 0.5039 0.8912 0.46951 0.0
C1724 C 0.5148 0.89191 0.45584 0.0
C1725 C 0.50914 0.88679 0.44015 0.0
C1726 C 0.51951 0.88732 0.42733 0.0
C1727 C 0.53555 0.89306 0.43004 0.0
C1728 C 0.54124 0.89832 0.44557 0.0
C1729 C 0.53093 0.89779 0.45844 0.0
H1730 H 0.54356 0.89347 0.4201 0.0
H1731 H 0.44466 0.88756 0.54576 0.0
H1732 H 0.18825 0.29218 0.74244 0.0
H1733 H 0.16369 0.28209 0.75478 0.0
H1734 H 0.19212 0.2579 0.78548 0.0
H1735 H 0.21658 0.26776 0.77293 0.0
H1736 H 0.16418 0.24017 0.77699 0.0
H1737 H 0.18081 0.29572 0.79778 0.0
H1738 H 0.18812 0.32451 0.79587 0.0
H1739 H 0.14187 0.32876 0.77531 0.0
H1740 H 0.13436 0.29992 0.77691 0.0
H1741 H 0.11431 0.23761 0.84415 0.0
H1742 H 0.13592 0.24228 0.82571 0.0
H1743 H 0.10471 0.26767 0.79888 0.0
H1744 H 0.08327 0.26372 0.81768 0.0
H1745 H 0.13274 0.28396 0.80338 0.0
H1746 H 0.11516 0.22872 0.78497 0.0
H1747 H 0.10795 0.20004 0.78739 0.0
H1748 H 0.15574 0.19506 0.80376 0.0
H1749 H 0.16318 0.22378 0.80165 0.0
C1750 C 0.18913 0.28427 0.75147 0.0
C1751 C 0.20415 0.28058 0.75672 0.0
C1752 C 0.17516 0.27863 0.7586 0.0
C1753 C 0.17608 0.26946 0.77126 0.0
C1754 C 0.1911 0.26495 0.77576 0.0
C1755 C 0.20505 0.27054 0.76858 0.0
C1756 C 0.16172 0.26584 0.78078 0.0
C1757 C 0.15734 0.24973 0.78284 0.0
C1758 C 0.15262 0.27829 0.7882 0.0
C1759 C 0.1571 0.29564 0.7873 0.0
C1760 C 0.17224 0.30277 0.79275 0.0
C1761 C 0.17642 0.3191 0.79173 0.0
C1762 C 0.16548 0.32845 0.78543 0.0
C1763 C 0.15034 0.3215 0.78016 0.0
C1764 C 0.14611 0.30517 0.78112 0.0
C1765 C 0.11205 0.24429 0.8344 0.0
C1766 C 0.097 0.25028 0.83244 0.0
C1767 C 0.12438 0.24677 0.82372 0.0
C1768 C 0.12189 0.25512 0.81074 0.0
C1769 C 0.10689 0.2611 0.80874 0.0
C1770 C 0.09459 0.2587 0.81945 0.0
C1771 C 0.13514 0.25826 0.79966 0.0
C1772 C 0.13939 0.27432 0.79737 0.0
C1773 C 0.14409 0.24576 0.79207 0.0
C1774 C 0.13969 0.22845 0.79327 0.0
C1775 C 0.1241 0.22154 0.78919 0.0
C1776 C 0.11998 0.20527 0.79049 0.0
C1777 C 0.13137 0.19574 0.79575 0.0
C1778 C 0.14693 0.20246 0.79969 0.0
C1779 C 0.15111 0.21873 0.79843 0.0
H1780 H 0.12816 0.18315 0.79675 0.0
H1781 H 0.16874 0.34109 0.78466 0.0
H1782 H 0.51941 0.59073 0.53555 0.0
H1783 H 0.51396 0.61402 0.52203 0.0
H1784 H 0.56086 0.613 0.50114 0.0
H1785 H 0.56636 0.59014 0.51498 0.0
H1786 H 0.55432 0.64313 0.50882 0.0
H1787 H 0.52596 0.59491 0.48082 0.0
H1788 H 0.50688 0.57069 0.47822 0.0
H1789 H 0.46847 0.60044 0.49257 0.0
H1790 H 0.48738 0.62483 0.49544 0.0
H1791 H 0.54441 0.68091 0.43999 0.0
H1792 H 0.54849 0.66165 0.45857 0.0
H1793 H 0.5013 0.6683 0.47732 0.0
H1794 H 0.4969 0.68715 0.45836 0.0
H1795 H 0.50662 0.63695 0.47279 0.0
H1796 H 0.53524 0.68564 0.49809 0.0
H1797 H 0.55467 0.70953 0.49978 0.0
H1798 H 0.59305 0.67858 0.48969 0.0
H1799 H 0.57381 0.65451 0.48772 0.0
C1800 C 0.52861 0.59578 0.52834 0.0
C1801 C 0.54332 0.58884 0.52632 0.0
C1802 C 0.52547 0.60896 0.5205 0.0
C1803 C 0.5369 0.61514 0.51032 0.0
C1804 C 0.55184 0.60851 0.5089 0.0
C1805 C 0.555 0.59547 0.51681 0.0
C1806 C 0.53319 0.62791 0.50048 0.0
C1807 C 0.54394 0.64171 0.50087 0.0
C1808 C 0.51948 0.6263 0.4903 0.0
C1809 C 0.50811 0.61166 0.48852 0.0
C1810 C 0.51347 0.59627 0.48353 0.0
C1811 C 0.50268 0.58251 0.48199 0.0
C1812 C 0.48648 0.58402 0.48527 0.0
C1813 C 0.48102 0.59929 0.49006 0.0
C1814 C 0.49177 0.61308 0.49164 0.0
C1815 C 0.53482 0.67818 0.44795 0.0
C1816 C 0.52032 0.68563 0.44765 0.0
C1817 C 0.53725 0.66729 0.45872 0.0
C1818 C 0.52529 0.66368 0.46954 0.0
C1819 C 0.51074 0.67095 0.46917 0.0
C1820 C 0.5083 0.68184 0.45839 0.0
C1821 C 0.52786 0.65205 0.48098 0.0
C1822 C 0.51691 0.63846 0.48087 0.0
C1823 C 0.54144 0.65382 0.49134 0.0
C1824 C 0.55305 0.66827 0.49264 0.0
C1825 C 0.5478 0.68393 0.49613 0.0
C1826 C 0.55879 0.6975 0.49715 0.0
C1827 C 0.57508 0.69557 0.49481 0.0
C1828 C 0.58042 0.68006 0.49149 0.0
C1829 C 0.56949 0.66645 0.49044 0.0
H1830 H 0.58357 0.7061 0.49561 0.0
H1831 H 0.47815 0.57335 0.48407 0.0
H1832 H 0.85516 0.78854 0.80922 0.0
H1833 H 0.87666 0.78738 0.78984 0.0
H1834 H 0.84218 0.78797 0.75192 0.0
H1835 H 0.82048 0.78886 0.77131 0.0
H1836 H 0.8635 0.76481 0.74435 0.0
H1837 H 0.8663 0.8213 0.76423 0.0
H1838 H 0.86779 0.84532 0.7848 0.0
H1839 H 0.91275 0.83229 0.80189 0.0
H1840 H 0.91142 0.80806 0.78157 0.0
H1841 H 0.92387 0.77488 0.68681 0.0
H1842 H 0.90081 0.7789 0.70406 0.0
H1843 H 0.93168 0.78221 0.74554 0.0
H1844 H 0.95487 0.77892 0.72841 0.0
H1845 H 0.91098 0.8046 0.74999 0.0
H1846 H 0.90747 0.74736 0.73163 0.0
H1847 H 0.90603 0.72292 0.71158 0.0
H1848 H 0.86257 0.73694 0.6921 0.0
H1849 H 0.86387 0.76159 0.71192 0.0
C1850 C 0.85212 0.78838 0.79675 0.0
C1851 C 0.83609 0.78874 0.79181 0.0
C1852 C 0.86445 0.78785 0.78569 0.0
C1853 C 0.86107 0.78772 0.76942 0.0
C1854 C 0.84508 0.7881 0.76441 0.0
C1855 C 0.83272 0.78873 0.77552 0.0
C1856 C 0.87425 0.78682 0.75768 0.0
C1857 C 0.87375 0.77367 0.7454 0.0
C1858 C 0.8878 0.79817 0.75926 0.0
C1859 C 0.88869 0.81279 0.77145 0.0
C1860 C 0.87644 0.82349 0.77245 0.0
C1861 C 0.87727 0.83716 0.78406 0.0
C1862 C 0.89034 0.84031 0.79467 0.0
C1863 C 0.90263 0.82983 0.79367 0.0
C1864 C 0.90185 0.81613 0.7821 0.0
C1865 C 0.92581 0.77665 0.6996 0.0
C1866 C 0.94129 0.77649 0.70618 0.0
C1867 C 0.91255 0.77877 0.70947 0.0
C1868 C 0.91443 0.78063 0.72613 0.0
C1869 C 0.92988 0.78073 0.73273 0.0
C1870 C 0.94314 0.77868 0.72289 0.0
C1871 C 0.90035 0.78246 0.73676 0.0
C1872 C 0.90068 0.7958 0.74884 0.0
C1873 C 0.88668 0.77123 0.73505 0.0
C1874 C 0.88587 0.75641 0.72314 0.0
C1875 C 0.89768 0.7453 0.72299 0.0
C1876 C 0.89687 0.73139 0.71168 0.0
C1877 C 0.88425 0.7284 0.70054 0.0
C1878 C 0.87236 0.73929 0.70072 0.0
C1879 C 0.87312 0.75322 0.71199 0.0
H1880 H 0.88364 0.71763 0.6918 0.0
H1881 H 0.89096 0.8509 0.80364 0.0
H1882 H 0.05051 0.94794 0.54097 0.0
H1883 H 0.05121 0.9279 0.55968 0.0
H1884 H 0.04361 0.88927 0.52038 0.0
H1885 H 0.04304 0.90922 0.50179 0.0
H1886 H 0.02129 0.88773 0.54441 0.0
H1887 H 0.07869 0.89479 0.53928 0.0
H1888 H 0.10493 0.91048 0.54045 0.0
H1889 H 0.09887 0.9266 0.59026 0.0
H1890 H 0.07246 0.91118 0.58933 0.0
H1891 H 0.02661 0.81808 0.58065 0.0
H1892 H 0.03134 0.83946 0.56408 0.0
H1893 H 0.04532 0.87353 0.60574 0.0
H1894 H 0.0415 0.8519 0.62238 0.0
H1895 H 0.0644 0.87892 0.582 0.0
H1896 H 0.00782 0.87249 0.58803 0.0
H1897 H 0.98106 0.8579 0.58773 0.0
H1898 H 0.98459 0.84235 0.53749 0.0
H1899 H 0.01148 0.85667 0.53754 0.0
C1900 C 0.04949 0.93515 0.53637 0.0
C1901 C 0.04691 0.93 0.52002 0.0
C1902 C 0.04983 0.92373 0.54702 0.0
C1903 C 0.04743 0.90708 0.54141 0.0
C1904 C 0.04548 0.90203 0.52496 0.0
C1905 C 0.04527 0.91341 0.51436 0.0
C1906 C 0.0455 0.89493 0.55264 0.0
C1907 C 0.03079 0.88565 0.55249 0.0
C1908 C 0.05766 0.8927 0.56362 0.0
C1909 C 0.07352 0.90198 0.56419 0.0
C1910 C 0.08288 0.90181 0.55045 0.0
C1911 C 0.0978 0.91062 0.55108 0.0
C1912 C 0.10354 0.91957 0.56541 0.0
C1913 C 0.09439 0.91969 0.57915 0.0
C1914 C 0.07945 0.9109 0.57859 0.0
C1915 C 0.03094 0.83003 0.58633 0.0
C1916 C 0.03363 0.83319 0.60293 0.0
C1917 C 0.03345 0.84234 0.57682 0.0
C1918 C 0.03842 0.85822 0.58366 0.0
C1919 C 0.0414 0.8614 0.60017 0.0
C1920 C 0.03902 0.84903 0.60971 0.0
C1921 C 0.04027 0.87144 0.57353 0.0
C1922 C 0.05488 0.881 0.57395 0.0
C1923 C 0.02793 0.87414 0.56291 0.0
C1924 C 0.01173 0.86554 0.56282 0.0
C1925 C 0.00294 0.86586 0.57694 0.0
C1926 C 0.98774 0.85766 0.57681 0.0
C1927 C 0.98114 0.84918 0.56261 0.0
C1928 C 0.98972 0.84891 0.54849 0.0
C1929 C 0.00494 0.85708 0.54856 0.0
H1930 H 0.96937 0.84283 0.56253 0.0
H1931 H 0.1151 0.92639 0.56587 0.0
H1932 H 0.16992 0.696 0.78918 0.0
H1933 H 0.14701 0.70587 0.77626 0.0
H1934 H 0.1773 0.74649 0.76453 0.0
H1935 H 0.20026 0.73659 0.77755 0.0
H1936 H 0.14588 0.75453 0.7736 0.0
H1937 H 0.17137 0.71486 0.73739 0.0
H1938 H 0.1821 0.68837 0.7292 0.0
H1939 H 0.13565 0.66435 0.73451 0.0
H1940 H 0.12469 0.69069 0.74295 0.0
H1941 H 0.09729 0.77385 0.71065 0.0
H1942 H 0.11895 0.76757 0.72755 0.0
H1943 H 0.09393 0.7214 0.73192 0.0
H1944 H 0.07291 0.72697 0.71398 0.0
H1945 H 0.12311 0.71683 0.72716 0.0
H1946 H 0.09699 0.75574 0.76296 0.0
H1947 H 0.08577 0.78183 0.77189 0.0
H1948 H 0.13209 0.80683 0.76843 0.0
H1949 H 0.14355 0.7809 0.75928 0.0
C1950 C 0.17154 0.70725 0.78419 0.0
C1951 C 0.18669 0.71564 0.78437 0.0
C1952 C 0.15851 0.71283 0.77675 0.0
C1953 C 0.1605 0.72682 0.76927 0.0
C1954 C 0.1755 0.73569 0.77024 0.0
C1955 C 0.18857 0.73006 0.77767 0.0
C1956 C 0.1473 0.73133 0.75934 0.0
C1957 C 0.14097 0.74639 0.76334 0.0
C1958 C 0.14071 0.72056 0.74616 0.0
C1959 C 0.14725 0.70473 0.74094 0.0
C1960 C 0.16347 0.70392 0.73692 0.0
C1961 C 0.16959 0.68893 0.73222 0.0
C1962 C 0.15957 0.67468 0.73138 0.0
C1963 C 0.1434 0.67539 0.73519 0.0
C1964 C 0.13722 0.69035 0.73992 0.0
C1965 C 0.09642 0.76226 0.71502 0.0
C1966 C 0.08322 0.75094 0.71082 0.0
C1967 C 0.10876 0.7588 0.72497 0.0
C1968 C 0.10804 0.74409 0.73129 0.0
C1969 C 0.0948 0.73286 0.72728 0.0
C1970 C 0.08263 0.73618 0.71713 0.0
C1971 C 0.12135 0.74001 0.74147 0.0
C1972 C 0.12785 0.72501 0.73746 0.0
C1973 C 0.12794 0.75079 0.75473 0.0
C1974 C 0.12109 0.76639 0.76029 0.0
C1975 C 0.10476 0.76681 0.764 0.0
C1976 C 0.09836 0.78157 0.76911 0.0
C1977 C 0.1082 0.79598 0.77069 0.0
C1978 C 0.12448 0.79566 0.76719 0.0
C1979 C 0.13093 0.78094 0.76205 0.0
H1980 H 0.10323 0.8074 0.77465 0.0
H1981 H 0.16433 0.66309 0.72774 0.0
H1982 H 0.95327 0.57798 0.50366 0.0
H1983 H 0.95953 0.60391 0.52038 0.0
H1984 H 0.00924 0.59386 0.52242 0.0
H1985 H 0.00293 0.56754 0.50631 0.0
H1986 H 0.99947 0.60395 0.55113 0.0
H1987 H 0.99588 0.62304 0.50069 0.0
H1988 H 0.98363 0.62599 0.4748 0.0
H1989 H 0.94367 0.64721 0.49873 0.0
H1990 H 0.95558 0.64418 0.52476 0.0
H1991 H 0.02619 0.68197 0.59048 0.0
H1992 H 0.02198 0.65799 0.57045 0.0
H1993 H 0.97142 0.66458 0.56887 0.0
H1994 H 0.9756 0.68891 0.58852 0.0
H1995 H 0.98274 0.65671 0.53925 0.0
H1996 H 0.98592 0.63633 0.58952 0.0
H1997 H 0.99827 0.6334 0.61537 0.0
H1998 H 0.03933 0.61458 0.59141 0.0
H1999 H 0.02731 0.61761 0.56542 0.0
C2000 C 0.96556 0.58129 0.50762 0.0
C2001 C 0.97757 0.57059 0.50367 0.0
C2002 C 0.96916 0.59623 0.51706 0.0
C2003 C 0.9849 0.60096 0.5226 0.0
C2004 C 0.99701 0.59052 0.51829 0.0
C2005 C 0.9934 0.57552 0.50892 0.0
C2006 C 0.98852 0.61629 0.53367 0.0
C2007 C 0.99607 0.61552 0.54837 0.0
C2008 C 0.98374 0.63138 0.53031 0.0
C2009 C 0.97656 0.63325 0.51468 0.0
C2010 C 0.98442 0.62822 0.50043 0.0
C2011 C 0.97755 0.62993 0.48573 0.0
C2012 C 0.96287 0.63675 0.48512 0.0
C2013 C 0.95504 0.64191 0.49922 0.0
C2014 C 0.96185 0.64022 0.51395 0.0
C2015 C 0.01419 0.67844 0.58576 0.0
C2016 C 1.00122 0.68737 0.59119 0.0
C2017 C 0.01178 0.66463 0.57439 0.0
C2018 C 0.99635 0.65935 0.56828 0.0
C2019 C 0.98343 0.66837 0.57345 0.0
C2020 C 0.98582 0.6822 0.58481 0.0
C2021 C 0.99364 0.6443 0.55665 0.0
C2022 C 0.98624 0.64513 0.5419 0.0
C2023 C 0.99858 0.62926 0.55993 0.0
C2024 C 0.00578 0.62735 0.57554 0.0
C2025 C 0.99763 0.63169 0.58977 0.0
C2026 C 0.00456 0.62999 0.60445 0.0
C2027 C 0.01959 0.62385 0.60503 0.0
C2028 C 0.0277 0.61935 0.59094 0.0
C2029 C 0.02083 0.62105 0.57623 0.0
H2030 H 0.02494 0.62255 0.6164 0.0
H2031 H 0.95757 0.63806 0.47373 0.0
H2032 H 0.7495 0.84969 0.24636 0.0
H2033 H 0.76894 0.87324 0.24944 0.0
H2034 H 0.80475 0.84396 0.22661 0.0
H2035 H 0.78542 0.82016 0.22387 0.0
H2036 H 0.81671 0.863 0.25313 0.0
H2037 H 0.78701 0.87044 0.20669 0.0
H2038 H 0.7628 0.87242 0.19054 0.0
H2039 H 0.75012 0.91314 0.22338 0.0
H2040 H 0.77413 0.91126 0.23985 0.0
H2041 H 0.87171 0.93082 0.24581 0.0
H2042 H 0.85349 0.90643 0.23966 0.0
H2043 H 0.8147 0.93222 0.2613 0.0
H2044 H 0.83269 0.9568 0.267 0.0
H2045 H 0.80514 0.91428 0.23369 0.0
H2046 H 0.83395 0.90586 0.28083 0.0
H2047 H 0.85804 0.90385 0.29714 0.0
H2048 H 0.87231 0.86493 0.26296 0.0
H2049 H 0.8484 0.86687 0.24634 0.0
C2050 C 0.76154 0.84823 0.24206 0.0
C2051 C 0.76592 0.83304 0.23488 0.0
C2052 C 0.7726 0.86174 0.2437 0.0
C2053 C 0.78825 0.86041 0.2381 0.0
C2054 C 0.79271 0.84527 0.23095 0.0
C2055 C 0.78162 0.83172 0.22929 0.0
C2056 C 0.80002 0.87479 0.24007 0.0
C2057 C 0.81431 0.87413 0.24864 0.0
C2058 C 0.79674 0.88942 0.23449 0.0
C2059 C 0.78231 0.89062 0.22458 0.0
C2060 C 0.77899 0.87974 0.21054 0.0
C2061 C 0.76532 0.88086 0.20131 0.0
C2062 C 0.75491 0.89288 0.20595 0.0
C2063 C 0.75818 0.90383 0.21981 0.0
C2064 C 0.77183 0.90275 0.22908 0.0
C2065 C 0.85927 0.93135 0.24913 0.0
C2066 C 0.85368 0.94577 0.25695 0.0
C2067 C 0.8489 0.91735 0.24574 0.0
C2068 C 0.83277 0.91744 0.25018 0.0
C2069 C 0.82711 0.93185 0.25781 0.0
C2070 C 0.83746 0.94585 0.26119 0.0
C2071 C 0.82173 0.90255 0.2469 0.0
C2072 C 0.80758 0.90312 0.23808 0.0
C2073 C 0.82514 0.88785 0.25226 0.0
C2074 C 0.83948 0.88663 0.26226 0.0
C2075 C 0.84229 0.89696 0.27673 0.0
C2076 C 0.8559 0.89582 0.28604 0.0
C2077 C 0.86673 0.8843 0.28107 0.0
C2078 C 0.86393 0.87387 0.26679 0.0
C2079 C 0.85035 0.87497 0.25742 0.0
H2080 H 0.87725 0.88343 0.28829 0.0
H2081 H 0.74433 0.89372 0.19879 0.0
H2082 H 0.77613 0.20373 0.31329 0.0
H2083 H 0.79703 0.18456 0.31168 0.0
H2084 H 0.76099 0.14473 0.30123 0.0
H2085 H 0.74007 0.16382 0.30283 0.0
H2086 H 0.78397 0.13988 0.32425 0.0
H2087 H 0.78202 0.15632 0.27182 0.0
H2088 H 0.78301 0.17619 0.25282 0.0
H2089 H 0.83073 0.19351 0.26908 0.0
H2090 H 0.82992 0.17388 0.28835 0.0
H2091 H 0.82962 0.07524 0.29487 0.0
H2092 H 0.81054 0.09592 0.29882 0.0
H2093 H 0.84928 0.13323 0.3003 0.0
H2094 H 0.86842 0.11254 0.29533 0.0
H2095 H 0.82593 0.14072 0.28321 0.0
H2096 H 0.82912 0.12416 0.33465 0.0
H2097 H 0.8287 0.1051 0.35442 0.0
H2098 H 0.77977 0.08919 0.34159 0.0
H2099 H 0.77996 0.10799 0.32158 0.0
C2100 C 0.77267 0.19088 0.31074 0.0
C2101 C 0.75648 0.18527 0.30811 0.0
C2102 C 0.78462 0.17996 0.30975 0.0
C2103 C 0.78056 0.16323 0.30625 0.0
C2104 C 0.76438 0.15759 0.30393 0.0
C2105 C 0.75246 0.1685 0.30474 0.0
C2106 C 0.79317 0.15157 0.30475 0.0
C2107 C 0.79307 0.13993 0.31519 0.0
C2108 C 0.80532 0.15201 0.29326 0.0
C2109 C 0.80584 0.16376 0.28164 0.0
C2110 C 0.79267 0.16446 0.27144 0.0
C2111 C 0.79321 0.17566 0.26061 0.0
C2112 C 0.80691 0.18614 0.25978 0.0
C2113 C 0.82011 0.18541 0.26976 0.0
C2114 C 0.81963 0.17424 0.28063 0.0
C2115 C 0.83413 0.08783 0.29585 0.0
C2116 C 0.85063 0.09215 0.29472 0.0
C2117 C 0.82318 0.09969 0.29836 0.0
C2118 C 0.82844 0.1162 0.30014 0.0
C2119 C 0.8449 0.12059 0.29905 0.0
C2120 C 0.85587 0.10871 0.29637 0.0
C2121 C 0.81671 0.12881 0.30264 0.0
C2122 C 0.81695 0.14067 0.29239 0.0
C2123 C 0.80479 0.1287 0.31445 0.0
C2124 C 0.80461 0.11739 0.32651 0.0
C2125 C 0.81831 0.11651 0.33596 0.0
C2126 C 0.81811 0.10577 0.34723 0.0
C2127 C 0.80423 0.09591 0.34924 0.0
C2128 C 0.79052 0.09682 0.34001 0.0
C2129 C 0.79066 0.10753 0.32871 0.0
H2130 H 0.8041 0.08761 0.35797 0.0
H2131 H 0.80731 0.1948 0.25138 0.0
H2132 H 0.4541 0.02291 0.00572 0.0
H2133 H 0.43122 0.00548 0.01312 0.0
H2134 H 0.40454 0.01492 0.97213 0.0
H2135 H 0.42744 0.03219 0.96458 0.0
H2136 H 0.38719 0.01743 1.00195 0.0
H2137 H 0.41974 0.98109 0.96904 0.0
H2138 H 0.44488 0.96862 0.96161 0.0
H2139 H 0.4468 0.95129 0.00694 0.0
H2140 H 0.42178 0.96388 0.01473 0.0
H2141 H 0.32296 0.95698 0.99842 0.0
H2142 H 0.34573 0.97537 0.99287 0.0
H2143 H 0.37535 0.95472 0.02547 0.0
H2144 H 0.35272 0.93583 0.03047 0.0
H2145 H 0.39177 0.95851 1.00095 0.0
H2146 H 0.35985 0.99348 0.03445 0.0
H2147 H 0.33544 0.00648 0.04356 0.0
H2148 H 0.33304 0.0272 1.00005 0.0
H2149 H 0.35733 0.01414 0.99058 0.0
C2150 C 0.44331 0.02132 0.99836 0.0
C2151 C 0.44253 0.02883 0.98455 0.0
C2152 C 0.4303 0.01135 1.00256 0.0
C2153 C 0.41624 0.00889 0.99313 0.0
C2154 C 0.4153 0.01667 0.97955 0.0
C2155 C 0.42839 0.02644 0.9752 0.0
C2156 C 0.4026 0.99795 0.99724 0.0
C2157 C 0.38808 0.00451 1.00159 0.0
C2158 C 0.404 0.98122 0.99725 0.0
C2159 C 0.41899 0.97358 0.99253 0.0
C2160 C 0.4256 0.97475 0.97748 0.0
C2161 C 0.43981 0.96763 0.97319 0.0
C2162 C 0.44746 0.95921 0.98381 0.0
C2163 C 0.44088 0.95785 0.99873 0.0
C2164 C 0.42668 0.96496 0.00309 0.0
C2165 C 0.33432 0.95647 0.00446 0.0
C2166 C 0.3361 0.94506 0.01491 0.0
C2167 C 0.34732 0.96703 1.00135 0.0
C2168 C 0.36225 0.96669 0.00897 0.0
C2169 C 0.36399 0.95526 0.01944 0.0
C2170 C 0.35107 0.94449 0.02231 0.0
C2171 C 0.37614 0.97791 0.00567 0.0
C2172 C 0.39078 0.97142 1.00145 0.0
C2173 C 0.37492 0.99478 0.00607 0.0
C2174 C 0.36033 1.0027 0.01174 0.0
C2175 C 0.35405 1.00071 0.02677 0.0
C2176 C 0.34025 0.00811 0.03201 0.0
C2177 C 0.33267 0.01763 0.02237 0.0
C2178 C 0.33891 0.01981 0.0075 0.0
C2179 C 0.35271 0.01242 1.00219 0.0
H2180 H 0.32198 0.02334 0.02645 0.0
H2181 H 0.45846 0.9537 0.98047 0.0
H2182 H 0.29178 0.34723 0.29169 0.0
H2183 H 0.27725 0.36755 0.28025 0.0
H2184 H 0.2323 0.34166 0.28908 0.0
H2185 H 0.24683 0.32126 0.29999 0.0
H2186 H 0.22987 0.35308 0.26214 0.0
H2187 H 0.24912 0.37506 0.31514 0.0
H2188 H 0.2696 0.38336 0.33636 0.0
H2189 H 0.29318 0.41646 0.30791 0.0
H2190 H 0.27293 0.40819 0.28643 0.0
H2191 H 0.17538 0.41473 0.2729 0.0
H2192 H 0.19326 0.39359 0.27646 0.0
H2193 H 0.23282 0.42211 0.25926 0.0
H2194 H 0.21498 0.44333 0.2557 0.0
H2195 H 0.24001 0.41012 0.28748 0.0
H2196 H 0.21771 0.38992 0.23579 0.0
H2197 H 0.19608 0.38178 0.21576 0.0
H2198 H 0.17694 0.34538 0.24305 0.0
H2199 H 0.19834 0.35346 0.26338 0.0
C2200 C 0.27882 0.34577 0.2908 0.0
C2201 C 0.27034 0.33275 0.29657 0.0
C2202 C 0.27051 0.35742 0.28441 0.0
C2203 C 0.25362 0.35631 0.28403 0.0
C2204 C 0.24528 0.34282 0.2892 0.0
C2205 C 0.25357 0.33117 0.29544 0.0
C2206 C 0.2445 0.36953 0.27916 0.0
C2207 C 0.23206 0.36553 0.26775 0.0
C2208 C 0.24748 0.38588 0.28622 0.0
C2209 C 0.25964 0.39086 0.29911 0.0
C2210 C 0.25875 0.38401 0.31336 0.0
C2211 C 0.27029 0.38873 0.32544 0.0
C2212 C 0.28271 0.40039 0.32346 0.0
C2213 C 0.28358 0.4074 0.30941 0.0
C2214 C 0.27207 0.40271 0.29729 0.0
C2215 C 0.18789 0.41648 0.26986 0.0
C2216 C 0.19377 0.43068 0.264 0.0
C2217 C 0.19807 0.40435 0.2718 0.0
C2218 C 0.21436 0.40622 0.26802 0.0
C2219 C 0.22028 0.42039 0.26219 0.0
C2220 C 0.21006 0.43245 0.26007 0.0
C2221 C 0.22526 0.39358 0.27069 0.0
C2222 C 0.238 0.3977 0.28171 0.0
C2223 C 0.22242 0.37733 0.26342 0.0
C2224 C 0.20957 0.37239 0.25118 0.0
C2225 C 0.20882 0.38026 0.23759 0.0
C2226 C 0.19661 0.37565 0.22617 0.0
C2227 C 0.18512 0.36309 0.22814 0.0
C2228 C 0.18584 0.35511 0.24154 0.0
C2229 C 0.19802 0.35969 0.25301 0.0
H2230 H 0.17568 0.35953 0.21928 0.0
H2231 H 0.29164 0.40403 0.33283 0.0
H2232 H 0.06896 0.01593 0.49721 0.0
H2233 H 0.09454 0.03226 0.50069 0.0
H2234 H 0.11979 0.98887 0.49243 0.0
H2235 H 0.09401 0.97239 0.48927 0.0
H2236 H 0.13535 0.01168 0.51484 0.0
H2237 H 0.11403 0.00965 0.4623 0.0
H2238 H 0.09322 0.01156 0.44207 0.0
H2239 H 0.09073 0.06199 0.45945 0.0
H2240 H 0.11135 0.06033 0.48 0.0
H2241 H 0.20754 0.05422 0.49186 0.0
H2242 H 0.1835 0.03546 0.49147 0.0
H2243 H 0.1546 0.07583 0.50332 0.0
H2244 H 0.17857 0.09463 0.5037 0.0
H2245 H 0.14182 0.05307 0.47816 0.0
H2246 H 0.16332 0.05412 0.53133 0.0
H2247 H 0.1843 0.05132 0.55111 0.0
H2248 H 0.18722 1.00159 0.53116 0.0
H2249 H 0.1664 0.00416 0.5111 0.0
C2250 C 0.07998 0.00987 0.49645 0.0
C2251 C 0.07957 0.99294 0.49284 0.0
C2252 C 0.09457 0.01919 0.49837 0.0
C2253 C 0.10908 0.01181 0.49643 0.0
C2254 C 0.10873 0.99482 0.49388 0.0
C2255 C 0.09405 0.98542 0.49211 0.0
C2256 C 0.12439 0.02198 0.49593 0.0
C2257 C 0.13686 0.02056 0.50667 0.0
C2258 C 0.12634 0.03366 0.48532 0.0
C2259 C 0.11415 0.03483 0.47278 0.0
C2260 C 0.10898 0.02113 0.46188 0.0
C2261 C 0.09722 0.02217 0.45035 0.0
C2262 C 0.09064 0.03688 0.4495 0.0
C2263 C 0.09584 0.0506 0.46014 0.0
C2264 C 0.10757 0.04962 0.47173 0.0
C2265 C 0.19604 0.05909 0.49431 0.0
C2266 C 0.19493 0.0759 0.49783 0.0
C2267 C 0.18235 0.04836 0.49418 0.0
C2268 C 0.16728 0.05425 0.49747 0.0
C2269 C 0.16612 0.07103 0.50079 0.0
C2270 C 0.17982 0.08174 0.50109 0.0
C2271 C 0.15266 0.04297 0.49727 0.0
C2272 C 0.14033 0.04415 0.4863 0.0
C2273 C 0.15096 0.03096 0.50752 0.0
C2274 C 0.16343 0.02938 0.51961 0.0
C2275 C 0.16854 0.04263 0.53107 0.0
C2276 C 0.18038 0.04107 0.54235 0.0
C2277 C 0.18712 0.0263 0.54236 0.0
C2278 C 0.182 0.01303 0.53112 0.0
C2279 C 0.17017 0.01453 0.5198 0.0
H2280 H 0.19629 0.02512 0.55111 0.0
H2281 H 0.08155 0.03765 0.44056 0.0
H2282 H 0.77464 0.20707 0.72251 0.0
H2283 H 0.7542 0.18443 0.72251 0.0
H2284 H 0.79098 0.15319 0.73149 0.0
H2285 H 0.81135 0.17534 0.73061 0.0
H2286 H 0.77035 0.13693 0.71187 0.0
H2287 H 0.76682 0.17233 0.76171 0.0
H2288 H 0.76299 0.19816 0.77864 0.0
H2289 H 0.71599 0.19865 0.75818 0.0
H2290 H 0.71963 0.1729 0.74097 0.0
H2291 H 0.73089 0.07729 0.75262 0.0
H2292 H 0.74725 0.10113 0.74648 0.0
H2293 H 0.70525 0.11997 0.72852 0.0
H2294 H 0.68881 0.09603 0.73455 0.0
H2295 H 0.72558 0.14309 0.74979 0.0
H2296 H 0.7289 0.10501 0.70233 0.0
H2297 H 0.73342 0.07851 0.68702 0.0
H2298 H 0.78192 0.08255 0.70484 0.0
H2299 H 0.77762 0.10898 0.72046 0.0
C2300 C 0.77836 0.1953 0.72421 0.0
C2301 C 0.79462 0.19311 0.72684 0.0
C2302 C 0.76665 0.1824 0.72438 0.0
C2303 C 0.77098 0.16714 0.72734 0.0
C2304 C 0.78726 0.16483 0.72929 0.0
C2305 C 0.79892 0.1776 0.72896 0.0
C2306 C 0.75873 0.15359 0.72896 0.0
C2307 C 0.76062 0.13831 0.72023 0.0
C2308 C 0.74577 0.15535 0.7396 0.0
C2309 C 0.74357 0.17081 0.74992 0.0
C2310 C 0.75572 0.17801 0.76074 0.0
C2311 C 0.75357 0.19262 0.7704 0.0
C2312 C 0.73928 0.20007 0.76945 0.0
C2313 C 0.72707 0.19289 0.75887 0.0
C2314 C 0.72916 0.17829 0.74917 0.0
C2315 C 0.72514 0.08655 0.74744 0.0
C2316 C 0.70859 0.0848 0.74404 0.0
C2317 C 0.73449 0.10011 0.74387 0.0
C2318 C 0.72746 0.11225 0.73696 0.0
C2319 C 0.7109 0.11071 0.73381 0.0
C2320 C 0.70156 0.09702 0.73718 0.0
C2321 C 0.73753 0.12649 0.73302 0.0
C2322 C 0.73519 0.14184 0.74128 0.0
C2323 C 0.75022 0.12476 0.72214 0.0
C2324 C 0.75289 0.10892 0.71266 0.0
C2325 C 0.74049 0.10019 0.70309 0.0
C2326 C 0.74302 0.08519 0.69433 0.0
C2327 C 0.75794 0.07884 0.69498 0.0
C2328 C 0.77037 0.08749 0.70435 0.0
C2329 C 0.7679 0.10249 0.71315 0.0
H2330 H 0.75987 0.06722 0.68819 0.0
H2331 H 0.73764 0.21138 0.77694 0.0
H2332 H 0.42901 0.99228 0.54249 0.0
H2333 H 0.40602 0.00548 0.53349 0.0
H2334 H 0.4384 0.04026 0.51428 0.0
H2335 H 0.46132 0.02707 0.52332 0.0
H2336 H 0.41747 0.05466 0.5348 0.0
H2337 H 0.41448 0.01292 0.48969 0.0
H2338 H 0.41287 0.98485 0.47597 0.0
H2339 H 0.36827 0.97463 0.49871 0.0
H2340 H 0.36973 1.00259 0.51275 0.0
H2341 H 0.35924 0.09836 0.50288 0.0
H2342 H 0.38152 0.08162 0.50559 0.0
H2343 H 0.34893 0.04491 0.52155 0.0
H2344 H 0.32653 0.06154 0.5186 0.0
H2345 H 0.36997 0.03106 0.50193 0.0
H2346 H 0.37315 0.07148 0.54797 0.0
H2347 H 0.37441 0.09913 0.56269 0.0
H2348 H 0.41833 0.11123 0.53958 0.0
H2349 H 0.41721 0.0837 0.52455 0.0
C2350 C 0.43113 1.00241 0.53586 0.0
C2351 C 0.4468 0.00861 0.53336 0.0
C2352 C 0.41803 0.00996 0.53076 0.0
C2353 C 0.42049 0.02386 0.52319 0.0
C2354 C 0.43622 0.02956 0.52007 0.0
C2355 C 0.44928 0.02197 0.52512 0.0
C2356 C 0.40684 0.03344 0.52003 0.0
C2357 C 0.40721 0.04957 0.52737 0.0
C2358 C 0.3932 0.02664 0.51083 0.0
C2359 C 0.3923 0.00982 0.5024 0.0
C2360 C 0.4044 0.00465 0.49188 0.0
C2361 C 0.4035 0.98877 0.48402 0.0
C2362 C 0.3905 0.97795 0.4865 0.0
C2363 C 0.37835 0.98301 0.49682 0.0
C2364 C 0.3792 0.99888 0.50472 0.0
C2365 C 0.35683 0.08676 0.50703 0.0
C2366 C 0.34114 0.08134 0.51065 0.0
C2367 C 0.36957 0.07718 0.50857 0.0
C2368 C 0.36697 0.06208 0.51401 0.0
C2369 C 0.35126 0.05649 0.51733 0.0
C2370 C 0.33847 0.06601 0.51565 0.0
C2371 C 0.38067 0.05233 0.51659 0.0
C2372 C 0.38028 0.03616 0.50926 0.0
C2373 C 0.39427 0.05902 0.52596 0.0
C2374 C 0.39501 0.07558 0.53502 0.0
C2375 C 0.38301 0.08007 0.54594 0.0
C2376 C 0.38371 0.09572 0.55435 0.0
C2377 C 0.39642 0.10694 0.55204 0.0
C2378 C 0.40848 0.10253 0.54134 0.0
C2379 C 0.40782 0.0869 0.53288 0.0
H2380 H 0.39694 0.11905 0.55857 0.0
H2381 H 0.38982 0.96566 0.4804 0.0
H2382 H 0.57036 0.5055 0.56867 0.0
H2383 H 0.592 0.48726 0.56629 0.0
H2384 H 0.62406 0.52517 0.55155 0.0
H2385 H 0.60213 0.54308 0.55313 0.0
H2386 H 0.62905 0.49935 0.53394 0.0
H2387 H 0.62519 0.51221 0.59032 0.0
H2388 H 0.61205 0.51528 0.61642 0.0
H2389 H 0.59842 0.46425 0.61054 0.0
H2390 H 0.61129 0.4609 0.58429 0.0
H2391 H 0.70094 0.46124 0.54813 0.0
H2392 H 0.67949 0.47977 0.55228 0.0
H2393 H 0.64426 0.43899 0.54856 0.0
H2394 H 0.66565 0.4204 0.54404 0.0
H2395 H 0.64161 0.46621 0.57599 0.0
H2396 H 0.64625 0.4549 0.51848 0.0
H2397 H 0.6613 0.45331 0.49345 0.0
H2398 H 0.67594 0.50405 0.50347 0.0
H2399 H 0.66118 0.50589 0.5287 0.0
C2400 C 0.58207 0.50992 0.56503 0.0
C2401 C 0.58463 0.52568 0.56114 0.0
C2402 C 0.59448 0.49953 0.56375 0.0
C2403 C 0.60983 0.50486 0.559 0.0
C2404 C 0.61237 0.5207 0.55522 0.0
C2405 C 0.59987 0.53096 0.55617 0.0
C2406 C 0.62309 0.4938 0.55743 0.0
C2407 C 0.63189 0.49233 0.54329 0.0
C2408 C 0.6268 0.48438 0.56947 0.0
C2409 C 0.61907 0.48633 0.58527 0.0
C2410 C 0.61929 0.50166 0.59454 0.0
C2411 C 0.61191 0.50345 0.60937 0.0
C2412 C 0.60437 0.48997 0.61512 0.0
C2413 C 0.60424 0.47467 0.60606 0.0
C2414 C 0.61159 0.47282 0.59122 0.0
C2415 C 0.68862 0.45626 0.5483 0.0
C2416 C 0.68492 0.43942 0.54575 0.0
C2417 C 0.67641 0.46683 0.55063 0.0
C2418 C 0.66033 0.46072 0.55072 0.0
C2419 C 0.65661 0.44391 0.54856 0.0
C2420 C 0.6688 0.43334 0.5459 0.0
C2421 C 0.64735 0.4719 0.55261 0.0
C2422 C 0.63868 0.47335 0.56676 0.0
C2423 C 0.64398 0.48156 0.54076 0.0
C2424 C 0.65276 0.48049 0.52555 0.0
C2425 C 0.65281 0.46568 0.51542 0.0
C2426 C 0.66126 0.46474 0.50118 0.0
C2427 C 0.66961 0.47856 0.4969 0.0
C2428 C 0.66949 0.49336 0.50682 0.0
C2429 C 0.66108 0.49435 0.52108 0.0
H2430 H 0.67614 0.47781 0.48587 0.0
H2431 H 0.59867 0.49138 0.6266 0.0
H2432 H 0.73669 0.21698 0.35363 0.0
H2433 H 0.73653 0.23761 0.37687 0.0
H2434 H 0.72248 0.27223 0.34715 0.0
H2435 H 0.72338 0.25173 0.32356 0.0
H2436 H 0.74522 0.28576 0.36764 0.0
H2437 H 0.69556 0.25499 0.37203 0.0
H2438 H 0.67743 0.23044 0.37265 0.0
H2439 H 0.70269 0.21981 0.41375 0.0
H2440 H 0.72113 0.24418 0.41325 0.0
H2441 H 0.72817 0.34237 0.43578 0.0
H2442 H 0.72512 0.32336 0.4111 0.0
H2443 H 0.74365 0.28618 0.43493 0.0
H2444 H 0.74715 0.30517 0.45954 0.0
H2445 H 0.7165 0.27518 0.41664 0.0
H2446 H 0.76713 0.30531 0.41077 0.0
H2447 H 0.78489 0.3301 0.41004 0.0
H2448 H 0.75679 0.34231 0.37148 0.0
H2449 H 0.73872 0.31769 0.37213 0.0
C2450 C 0.7337 0.22901 0.35195 0.0
C2451 C 0.73015 0.2327 0.33666 0.0
C2452 C 0.7334 0.24076 0.36533 0.0
C2453 C 0.72927 0.25644 0.36384 0.0
C2454 C 0.72564 0.26019 0.34862 0.0
C2455 C 0.72603 0.24843 0.33516 0.0
C2456 C 0.72922 0.26894 0.37817 0.0
C2457 C 0.73868 0.28356 0.37824 0.0
C2458 C 0.72091 0.26601 0.39214 0.0
C2459 C 0.70981 0.25136 0.39252 0.0
C2460 C 0.69733 0.24736 0.38113 0.0
C2461 C 0.68698 0.23348 0.38147 0.0
C2462 C 0.68893 0.22356 0.39321 0.0
C2463 C 0.7012 0.2275 0.40466 0.0
C2464 C 0.71159 0.24136 0.40436 0.0
C2465 C 0.73177 0.33021 0.43576 0.0
C2466 C 0.73795 0.32535 0.44971 0.0
C2467 C 0.72994 0.31933 0.42164 0.0
C2468 C 0.73423 0.30338 0.42115 0.0
C2469 C 0.74019 0.29842 0.43506 0.0
C2470 C 0.74211 0.30929 0.44915 0.0
C2471 C 0.73265 0.29183 0.40614 0.0
C2472 C 0.72288 0.27741 0.40596 0.0
C2473 C 0.74057 0.29499 0.39206 0.0
C2474 C 0.75147 0.30976 0.39162 0.0
C2475 C 0.76465 0.31335 0.40222 0.0
C2476 C 0.77479 0.32736 0.40181 0.0
C2477 C 0.77194 0.3378 0.39075 0.0
C2478 C 0.75897 0.33423 0.38005 0.0
C2479 C 0.74878 0.32024 0.38043 0.0
H2480 H 0.77981 0.34864 0.39045 0.0
H2481 H 0.6809 0.21282 0.39345 0.0
H2482 H 0.5129 0.01984 0.92987 0.0
H2483 H 0.53613 0.01865 0.91248 0.0
H2484 H 0.53564 0.06989 0.91036 0.0
H2485 H 0.51203 0.07091 0.92753 0.0
H2486 H 0.53757 0.05428 0.8816 0.0
H2487 H 0.56621 0.05377 0.93018 0.0
H2488 H 0.5724 0.04508 0.95603 0.0
H2489 H 0.57915 0.99724 0.93262 0.0
H2490 H 0.57278 0.00557 0.90664 0.0
H2491 H 0.60907 0.05439 0.83621 0.0
H2492 H 0.59074 0.05984 0.85831 0.0
H2493 H 0.58235 0.00863 0.86002 0.0
H2494 H 0.60028 0.00299 0.83764 0.0
H2495 H 0.58673 0.0268 0.89024 0.0
H2496 H 0.55557 0.02721 0.84215 0.0
H2497 H 0.54951 0.03618 0.81639 0.0
H2498 H 0.54795 0.08505 0.83953 0.0
H2499 H 0.55423 0.07639 0.86541 0.0
C2500 C 0.51803 0.03089 0.92596 0.0
C2501 C 0.51093 0.04549 0.93009 0.0
C2502 C 0.53132 0.03024 0.91606 0.0
C2503 C 0.53782 0.04423 0.91021 0.0
C2504 C 0.5309 0.05896 0.91475 0.0
C2505 C 0.51752 0.05958 0.92462 0.0
C2506 C 0.55092 0.0431 0.89837 0.0
C2507 C 0.54848 0.04859 0.88367 0.0
C2508 C 0.56503 0.03535 0.90085 0.0
C2509 C 0.56889 0.03028 0.91646 0.0
C2510 C 0.56889 0.04136 0.93055 0.0
C2511 C 0.57246 0.03651 0.94523 0.0
C2512 C 0.57613 0.02061 0.94597 0.0
C2513 C 0.57629 0.00955 0.93203 0.0
C2514 C 0.57272 0.01434 0.91732 0.0
C2515 C 0.60326 0.04425 0.84118 0.0
C2516 C 0.60612 0.02822 0.835 0.0
C2517 C 0.59285 0.04741 0.85389 0.0
C2518 C 0.5851 0.03464 0.86074 0.0
C2519 C 0.58826 0.01867 0.85495 0.0
C2520 C 0.59858 0.01548 0.84217 0.0
C2521 C 0.57324 0.03785 0.87355 0.0
C2522 C 0.57591 0.03269 0.88835 0.0
C2523 C 0.55938 0.04598 0.87122 0.0
C2524 C 0.55555 0.05119 0.85568 0.0
C2525 C 0.55407 0.03989 0.84172 0.0
C2526 C 0.55057 0.04491 0.8271 0.0
C2527 C 0.5484 0.06118 0.82631 0.0
C2528 C 0.54967 0.07245 0.84015 0.0
C2529 C 0.55319 0.0675 0.8548 0.0
H2530 H 0.54569 0.06505 0.81498 0.0
H2531 H 0.57889 0.01688 0.95735 0.0
H2532 H 0.27411 0.25962 0.33176 0.0
H2533 H 0.27082 0.24124 0.35175 0.0
H2534 H 0.32204 0.24463 0.35942 0.0
H2535 H 0.32541 0.26293 0.33923 0.0
H2536 H 0.30986 0.21426 0.35991 0.0
H2537 H 0.29757 0.2666 0.38507 0.0
H2538 H 0.284 0.29197 0.38806 0.0
H2539 H 0.2384 0.26503 0.38967 0.0
H2540 H 0.25169 0.23947 0.38646 0.0
H2541 H 0.30788 0.18597 0.43566 0.0
H2542 H 0.31192 0.20234 0.41406 0.0
H2543 H 0.26108 0.19741 0.40397 0.0
H2544 H 0.25694 0.18076 0.42537 0.0
H2545 H 0.27348 0.22856 0.40483 0.0
H2546 H 0.28637 0.17606 0.37988 0.0
H2547 H 0.30044 0.15101 0.37732 0.0
H2548 H 0.34563 0.17875 0.37602 0.0
H2549 H 0.33183 0.204 0.37881 0.0
C2550 C 0.28468 0.25643 0.33768 0.0
C2551 C 0.30002 0.26287 0.33402 0.0
C2552 C 0.28279 0.24593 0.34912 0.0
C2553 C 0.29616 0.24179 0.35736 0.0
C2554 C 0.31154 0.24769 0.35329 0.0
C2555 C 0.31346 0.25812 0.34172 0.0
C2556 C 0.294 0.23169 0.37048 0.0
C2557 C 0.30207 0.2175 0.36984 0.0
C2558 C 0.28363 0.23575 0.38334 0.0
C2559 C 0.27561 0.25111 0.38537 0.0
C2560 C 0.28464 0.26607 0.38595 0.0
C2561 C 0.277 0.28049 0.3877 0.0
C2562 C 0.26034 0.28011 0.38902 0.0
C2563 C 0.2513 0.26531 0.38863 0.0
C2564 C 0.25888 0.25085 0.38686 0.0
C2565 C 0.29755 0.18815 0.42872 0.0
C2566 C 0.28207 0.18194 0.43226 0.0
C2567 C 0.29989 0.19757 0.41639 0.0
C2568 C 0.28682 0.20099 0.40728 0.0
C2569 C 0.27135 0.19495 0.41084 0.0
C2570 C 0.269 0.18548 0.42315 0.0
C2571 C 0.28925 0.21108 0.39421 0.0
C2572 C 0.28126 0.22531 0.39489 0.0
C2573 C 0.29976 0.20711 0.38147 0.0
C2574 C 0.30807 0.19193 0.37971 0.0
C2575 C 0.29931 0.17683 0.37918 0.0
C2576 C 0.30724 0.16259 0.37766 0.0
C2577 C 0.32392 0.16329 0.37655 0.0
C2578 C 0.33271 0.17823 0.3769 0.0
C2579 C 0.32484 0.19251 0.37844 0.0
H2580 H 0.33003 0.15225 0.37537 0.0
H2581 H 0.25445 0.29128 0.39037 0.0
H2582 H 0.51435 0.48366 0.96973 0.0
H2583 H 0.49802 0.48706 0.94653 0.0
H2584 H 0.53794 0.47667 0.91587 0.0
H2585 H 0.55427 0.47311 0.93897 0.0
H2586 H 0.52542 0.50407 0.91043 0.0
H2587 H 0.505 0.44982 0.91555 0.0
H2588 H 0.49289 0.42806 0.92955 0.0
H2589 H 0.45089 0.45411 0.93862 0.0
H2590 H 0.46284 0.47615 0.92486 0.0
H2591 H 0.48617 0.50083 0.8359 0.0
H2592 H 0.50054 0.49383 0.85883 0.0
H2593 H 0.45942 0.50305 0.88817 0.0
H2594 H 0.4447 0.50945 0.8651 0.0
H2595 H 0.47211 0.47626 0.89457 0.0
H2596 H 0.49223 0.53052 0.89011 0.0
H2597 H 0.50412 0.55277 0.87663 0.0
H2598 H 0.54646 0.52737 0.86709 0.0
H2599 H 0.53473 0.50485 0.88033 0.0
C2600 C 0.51953 0.48169 0.95801 0.0
C2601 C 0.53566 0.47817 0.95623 0.0
C2602 C 0.51019 0.48371 0.94474 0.0
C2603 C 0.51674 0.48214 0.92942 0.0
C2604 C 0.53265 0.47804 0.92756 0.0
C2605 C 0.54197 0.47603 0.94079 0.0
C2606 C 0.50742 0.48574 0.91547 0.0
C2607 C 0.51387 0.4978 0.90682 0.0
C2608 C 0.49211 0.47796 0.91106 0.0
C2609 C 0.48489 0.46471 0.91931 0.0
C2610 C 0.49324 0.45098 0.92064 0.0
C2611 C 0.48639 0.43858 0.92851 0.0
C2612 C 0.47115 0.43972 0.93501 0.0
C2613 C 0.4627 0.45325 0.9336 0.0
C2614 C 0.4695 0.46569 0.92575 0.0
C2615 C 0.48008 0.50122 0.84717 0.0
C2616 C 0.46426 0.50578 0.84861 0.0
C2617 C 0.48839 0.49736 0.86034 0.0
C2618 C 0.48116 0.49811 0.87532 0.0
C2619 C 0.4653 0.50244 0.87677 0.0
C2620 C 0.45695 0.50627 0.86358 0.0
C2621 C 0.49019 0.49448 0.88945 0.0
C2622 C 0.48367 0.48249 0.89816 0.0
C2623 C 0.50542 0.50239 0.89402 0.0
C2624 C 0.51253 0.51592 0.88607 0.0
C2625 C 0.50402 0.52962 0.88503 0.0
C2626 C 0.51074 0.54229 0.87745 0.0
C2627 C 0.52602 0.54146 0.87097 0.0
C2628 C 0.53462 0.52798 0.8721 0.0
C2629 C 0.52795 0.51526 0.87965 0.0
H2630 H 0.5312 0.55129 0.86511 0.0
H2631 H 0.46587 0.43011 0.9411 0.0
H2632 H 0.73673 0.7609 0.21455 0.0
H2633 H 0.73787 0.7418 0.19004 0.0
H2634 H 0.74578 0.78166 0.16298 0.0
H2635 H 0.74367 0.80076 0.1872 0.0
H2636 H 0.72754 0.75929 0.14632 0.0
H2637 H 0.77707 0.76004 0.1755 0.0
H2638 H 0.79419 0.75753 0.1987 0.0
H2639 H 0.77603 0.70795 0.19742 0.0
H2640 H 0.75864 0.71023 0.17433 0.0
H2641 H 0.76765 0.72068 0.07919 0.0
H2642 H 0.76171 0.73772 0.10407 0.0
H2643 H 0.74559 0.69516 0.12476 0.0
H2644 H 0.75148 0.67805 0.0999 0.0
H2645 H 0.76662 0.7174 0.14478 0.0
H2646 H 0.71846 0.71714 0.11346 0.0
H2647 H 0.70286 0.72057 0.08953 0.0
H2648 H 0.72047 0.7706 0.09411 0.0
H2649 H 0.73637 0.76741 0.11794 0.0
C2650 C 0.73836 0.76561 0.20334 0.0
C2651 C 0.74034 0.7824 0.20292 0.0
C2652 C 0.73922 0.75466 0.18934 0.0
C2653 C 0.74232 0.76025 0.17467 0.0
C2654 C 0.74353 0.777 0.17413 0.0
C2655 C 0.74249 0.78793 0.18806 0.0
C2656 C 0.74485 0.74881 0.15994 0.0
C2657 C 0.73619 0.75023 0.14599 0.0
C2658 C 0.75596 0.73678 0.15946 0.0
C2659 C 0.76642 0.73537 0.17331 0.0
C2660 C 0.77664 0.74864 0.18025 0.0
C2661 C 0.78641 0.74725 0.19336 0.0
C2662 C 0.78616 0.7326 0.19956 0.0
C2663 C 0.77618 0.7193 0.19263 0.0
C2664 C 0.76637 0.72063 0.17952 0.0
C2665 C 0.7629 0.71497 0.08907 0.0
C2666 C 0.75998 0.69805 0.08759 0.0
C2667 C 0.75942 0.72471 0.10322 0.0
C2668 C 0.7531 0.7177 0.11621 0.0
C2669 C 0.75041 0.7008 0.11486 0.0
C2670 C 0.75369 0.69107 0.10064 0.0
C2671 C 0.74944 0.72803 0.13125 0.0
C2672 C 0.75789 0.72639 0.1452 0.0
C2673 C 0.73835 0.74002 0.13167 0.0
C2674 C 0.72872 0.74199 0.1174 0.0
C2675 C 0.71911 0.72884 0.10929 0.0
C2676 C 0.71019 0.73075 0.09576 0.0
C2677 C 0.7107 0.74578 0.09028 0.0
C2678 C 0.7201 0.75895 0.09835 0.0
C2679 C 0.72905 0.75711 0.11188 0.0
H2680 H 0.70379 0.74724 0.0798 0.0
H2681 H 0.79374 0.73155 0.20971 0.0
H2682 H 0.03951 0.06662 0.10337 0.0
H2683 H 0.02434 0.06514 0.1277 0.0
H2684 H 0.03307 0.01473 0.12565 0.0
H2685 H 0.04781 0.01598 0.10093 0.0
H2686 H 1.00233 0.01917 0.1315 0.0
H2687 H 0.05269 0.04403 0.15303 0.0
H2688 H 0.07604 0.06411 0.1558 0.0
H2689 H 0.04516 0.10227 0.16905 0.0
H2690 H 0.02159 0.08244 0.16614 0.0
H2691 H 0.97241 0.0105 0.20799 0.0
H2692 H 0.99031 0.01182 0.18552 0.0
H2693 H 0.98237 0.06221 0.18592 0.0
H2694 H 0.96493 0.06119 0.20887 0.0
H2695 H 0.01341 0.0573 0.18131 0.0
H2696 H 0.96308 0.03272 0.15883 0.0
H2697 H 0.93961 0.01279 0.15595 0.0
H2698 H 0.97041 0.97423 0.14433 0.0
H2699 H 0.9941 0.99393 0.14737 0.0
C2700 C 0.03818 0.0552 0.10806 0.0
C2701 C 0.04485 0.04141 0.10016 0.0
C2702 C 0.02963 0.05441 0.12208 0.0
C2703 C 0.02769 0.03987 0.12862 0.0
C2704 C 0.03446 0.02611 0.12086 0.0
C2705 C 0.043 0.02687 0.1068 0.0
C2706 C 0.01808 0.03889 0.1432 0.0
C2707 C 0.00493 0.02733 0.14248 0.0
C2708 C 0.02119 0.04981 0.15741 0.0
C2709 C 0.03536 0.06176 0.15923 0.0
C2710 C 0.05086 0.05672 0.15641 0.0
C2711 C 0.06414 0.06805 0.15803 0.0
C2712 C 0.06208 0.08446 0.16256 0.0
C2713 C 0.04673 0.08956 0.16552 0.0
C2714 C 0.03341 0.07828 0.16391 0.0
C2715 C 0.97463 0.02195 0.20348 0.0
C2716 C 0.96717 0.03574 0.21025 0.0
C2717 C 0.98475 0.02263 0.1905 0.0
C2718 C 0.98751 0.03705 0.18387 0.0
C2719 C 0.98036 0.05093 0.19078 0.0
C2720 C 0.97027 0.05028 0.20382 0.0
C2721 C 0.99767 0.0376 0.16959 0.0
C2722 C 0.01089 0.04909 0.17036 0.0
C2723 C 0.99461 0.02664 0.15541 0.0
C2724 C 0.98037 0.01478 0.15349 0.0
C2725 C 0.96486 0.01998 0.15578 0.0
C2726 C 0.95151 0.00873 0.1541 0.0
C2727 C 0.95352 0.99225 0.15 0.0
C2728 C 0.96887 0.987 0.14753 0.0
C2729 C 0.98226 0.9982 0.14922 0.0
H2730 H 0.94317 0.98356 0.1487 0.0
H2731 H 0.07237 0.09322 0.16381 0.0
H2732 H 0.32362 0.7478 0.16802 0.0
H2733 H 0.3203 0.77028 0.15284 0.0
H2734 H 0.2822 0.78606 0.18393 0.0
H2735 H 0.28545 0.7634 0.19896 0.0
H2736 H 0.27273 0.78274 0.1537 0.0
H2737 H 0.31827 0.80907 0.18338 0.0
H2738 H 0.34571 0.81184 0.19471 0.0
H2739 H 0.36494 0.80482 0.14762 0.0
H2740 H 0.3376 0.80178 0.13599 0.0
H2741 H 0.26034 0.84954 0.11289 0.0
H2742 H 0.2669 0.83376 0.13397 0.0
H2743 H 0.30575 0.81451 0.10607 0.0
H2744 H 0.29968 0.8307 0.08523 0.0
H2745 H 0.31468 0.82167 0.13679 0.0
H2746 H 0.26947 0.79269 0.10738 0.0
H2747 H 0.24215 0.78935 0.09571 0.0
H2748 H 0.22251 0.80082 0.14224 0.0
H2749 H 0.24975 0.80445 0.15417 0.0
C2750 C 0.31491 0.75641 0.17188 0.0
C2751 C 0.30493 0.75412 0.18472 0.0
C2752 C 0.31299 0.76924 0.16321 0.0
C2753 C 0.30104 0.77996 0.16727 0.0
C2754 C 0.29152 0.77799 0.18058 0.0
C2755 C 0.29345 0.76515 0.18924 0.0
C2756 C 0.29743 0.7921 0.15671 0.0
C2757 C 0.28184 0.79149 0.15029 0.0
C2758 C 0.30939 0.80323 0.15187 0.0
C2759 C 0.32587 0.80507 0.15881 0.0
C2760 C 0.32834 0.80799 0.17543 0.0
C2761 C 0.34388 0.80963 0.18191 0.0
C2762 C 0.35706 0.80847 0.17189 0.0
C2763 C 0.35473 0.8057 0.15537 0.0
C2764 C 0.33921 0.80404 0.14882 0.0
C2765 C 0.27042 0.84212 0.11132 0.0
C2766 C 0.27939 0.84131 0.09727 0.0
C2767 C 0.27407 0.83299 0.12334 0.0
C2768 C 0.2867 0.82276 0.12154 0.0
C2769 C 0.29592 0.82225 0.10773 0.0
C2770 C 0.29231 0.83139 0.09573 0.0
C2771 C 0.29003 0.8122 0.13376 0.0
C2772 C 0.30555 0.81306 0.14041 0.0
C2773 C 0.27803 0.80123 0.13879 0.0
C2774 C 0.26165 0.79902 0.13164 0.0
C2775 C 0.25933 0.79462 0.11511 0.0
C2776 C 0.24386 0.79266 0.10845 0.0
C2777 C 0.2306 0.79492 0.11822 0.0
C2778 C 0.23279 0.79911 0.13468 0.0
C2779 C 0.24824 0.80111 0.1414 0.0
H2780 H 0.21863 0.79339 0.11304 0.0
H2781 H 0.36908 0.80975 0.17693 0.0
H2782 H 1.00071 0.45226 0.08066 0.0
H2783 H 0.01553 0.4578 0.10586 0.0
H2784 H 0.02395 0.50802 0.09945 0.0
H2785 H 0.00992 0.50231 0.07363 0.0
H2786 H 0.0505 0.49792 0.10792 0.0
H2787 H 0.99796 0.49464 0.12867 0.0
H2788 H 0.97031 0.48324 0.13182 0.0
H2789 H 0.98818 0.44109 0.14725 0.0
H2790 H 0.01595 0.45213 0.14399 0.0
H2791 H 0.08352 0.51876 0.18709 0.0
H2792 H 0.06525 0.51669 0.16419 0.0
H2793 H 0.06354 0.46464 0.15958 0.0
H2794 H 0.08242 0.46649 0.18199 0.0
H2795 H 0.03269 0.47796 0.15792 0.0
H2796 H 0.08548 0.48163 0.13504 0.0
H2797 H 0.11277 0.49424 0.1325 0.0
H2798 H 0.09332 0.53768 0.12195 0.0
H2799 H 0.06589 0.5254 0.12467 0.0
C2800 C 0.00568 0.46452 0.08459 0.0
C2801 C 0.00423 0.4768 0.07498 0.0
C2802 C 0.01399 0.46772 0.09917 0.0
C2803 C 0.02079 0.48338 0.10472 0.0
C2804 C 0.01883 0.49583 0.09546 0.0
C2805 C 0.01064 0.49258 0.08075 0.0
C2806 C 0.03085 0.48641 0.11959 0.0
C2807 C 0.04643 0.49383 0.11892 0.0
C2808 C 0.02574 0.48087 0.13396 0.0
C2809 C 0.00905 0.47417 0.13596 0.0
C2810 C 0.996 0.48289 0.13263 0.0
C2811 C 0.9803 0.4765 0.13445 0.0
C2812 C 0.97749 0.46144 0.1397 0.0
C2813 C 0.99037 0.45275 0.14318 0.0
C2814 C 0.0061 0.45908 0.14136 0.0
C2815 C 0.0795 0.50683 0.18112 0.0
C2816 C 0.08463 0.49279 0.18644 0.0
C2817 C 0.06892 0.5057 0.16809 0.0
C2818 C 0.06307 0.49052 0.16019 0.0
C2819 C 0.06786 0.47648 0.16559 0.0
C2820 C 0.07861 0.47759 0.17848 0.0
C2821 C 0.05223 0.48927 0.14607 0.0
C2822 C 0.03658 0.48217 0.14691 0.0
C2823 C 0.05716 0.49531 0.13194 0.0
C2824 C 0.07364 0.50267 0.13024 0.0
C2825 C 0.08702 0.49392 0.13233 0.0
C2826 C 0.10252 0.501 0.13082 0.0
C2827 C 0.10478 0.51677 0.12711 0.0
C2828 C 0.09155 0.52548 0.12485 0.0
C2829 C 0.07603 0.51847 0.12637 0.0
H2830 H 0.11679 0.52223 0.12595 0.0
H2831 H 0.96533 0.45651 0.14111 0.0
H2832 H 0.32059 0.72294 0.2668 0.0
H2833 H 0.34408 0.7292 0.28432 0.0
H2834 H 0.3738 0.73462 0.24369 0.0
H2835 H 0.35037 0.72752 0.22595 0.0
H2836 H 0.38757 0.71694 0.26164 0.0
H2837 H 0.36497 0.76767 0.27151 0.0
H2838 H 0.34399 0.78656 0.27799 0.0
H2839 H 0.33828 0.77073 0.32386 0.0
H2840 H 0.35909 0.75158 0.31758 0.0
H2841 H 0.44142 0.76524 0.33127 0.0
H2842 H 0.41986 0.76387 0.31152 0.0
H2843 H 0.41318 0.71211 0.31067 0.0
H2844 H 0.43537 0.71325 0.32973 0.0
H2845 H 0.38961 0.75572 0.31164 0.0
H2846 H 0.40015 0.6937 0.27459 0.0
H2847 H 0.42264 0.67708 0.26663 0.0
H2848 H 0.4552 0.71977 0.27218 0.0
H2849 H 0.43288 0.73666 0.27996 0.0
C2850 C 0.33211 0.72551 0.26156 0.0
C2851 C 0.33359 0.72458 0.24493 0.0
C2852 C 0.34554 0.72927 0.27164 0.0
C2853 C 0.36076 0.7325 0.26538 0.0
C2854 C 0.3622 0.73217 0.24882 0.0
C2855 C 0.34875 0.72828 0.23869 0.0
C2856 C 0.37521 0.73522 0.27607 0.0
C2857 C 0.38803 0.72549 0.27253 0.0
C2858 C 0.37603 0.74657 0.29016 0.0
C2859 C 0.36352 0.7581 0.29402 0.0
C2860 C 0.35917 0.76813 0.28294 0.0
C2861 C 0.34731 0.7789 0.28658 0.0
C2862 C 0.33978 0.77982 0.30132 0.0
C2863 C 0.34412 0.77 0.31245 0.0
C2864 C 0.35596 0.7592 0.30886 0.0
C2865 C 0.43557 0.75351 0.32671 0.0
C2866 C 0.44031 0.73933 0.33204 0.0
C2867 C 0.42309 0.75278 0.31551 0.0
C2868 C 0.41498 0.73788 0.3094 0.0
C2869 C 0.41943 0.72374 0.31495 0.0
C2870 C 0.43201 0.72444 0.32604 0.0
C2871 C 0.40178 0.73717 0.29738 0.0
C2872 C 0.38919 0.74725 0.30069 0.0
C2873 C 0.40137 0.72646 0.28286 0.0
C2874 C 0.41485 0.71642 0.278 0.0
C2875 C 0.4121 0.69954 0.27404 0.0
C2876 C 0.42482 0.69008 0.26957 0.0
C2877 C 0.44035 0.69736 0.26894 0.0
C2878 C 0.44318 0.71414 0.27272 0.0
C2879 C 0.4305 0.72366 0.27718 0.0
H2880 H 0.45018 0.69001 0.2655 0.0
H2881 H 0.33061 0.78817 0.30412 0.0
H2882 H 0.99408 0.42426 0.04173 0.0
H2883 H 0.99989 0.39892 0.02551 0.0
H2884 H 0.01227 0.42493 0.98618 0.0
H2885 H 0.00631 0.4503 1.00232 0.0
H2886 H 0.99403 0.3984 0.97594 0.0
H2887 H 0.04119 0.41068 0.00903 0.0
H2888 H 0.05653 0.41764 0.0343 0.0
H2889 H 0.03735 0.37351 0.04994 0.0
H2890 H 0.0217 0.36639 0.02484 0.0
H2891 H 0.02995 0.33401 0.9291 0.0
H2892 H 0.02631 0.35987 0.94558 0.0
H2893 H 0.00998 0.3345 0.98418 0.0
H2894 H 0.01388 0.30861 0.96787 0.0
H2895 H 0.03086 0.36087 0.99454 0.0
H2896 H 0.98334 0.34906 0.96147 0.0
H2897 H 0.96818 0.34222 0.93608 0.0
H2898 H 0.98857 0.38579 0.92023 0.0
H2899 H 0.00404 0.39278 0.94545 0.0
C2900 C 0.9982 0.42459 0.02968 0.0
C2901 C 0.99977 0.43929 0.02332 0.0
C2902 C 1.00152 0.4101 0.02041 0.0
C2903 C 0.00672 0.41002 0.00466 0.0
C2904 C 0.00828 0.42468 0.99828 0.0
C2905 C 0.00484 0.43916 0.00751 0.0
C2906 C 0.01019 0.39461 0.99474 0.0
C2907 C 1.00229 0.39033 0.97991 0.0
C2908 C 0.02069 0.38387 1.00004 0.0
C2909 C 0.03016 0.38807 0.01511 0.0
C2910 C 0.04015 0.40251 0.0179 0.0
C2911 C 0.04892 0.40648 0.03219 0.0
C2912 C 0.04789 0.39604 0.04374 0.0
C2913 C 0.03812 0.38159 0.041 0.0
C2914 C 0.02931 0.37758 0.02673 0.0
C2915 C 0.02577 0.33395 0.94116 0.0
C2916 C 0.02215 0.31925 0.94716 0.0
C2917 C 0.02357 0.34872 0.95052 0.0
C2918 C 0.01771 0.3491 0.96605 0.0
C2919 C 0.01446 0.33448 0.97221 0.0
C2920 C 0.01658 0.3197 0.96283 0.0
C2921 C 0.01471 0.36472 0.97579 0.0
C2922 C 0.02267 0.369 0.99057 0.0
C2923 C 0.00432 0.3755 0.97043 0.0
C2924 C 0.99497 0.37135 0.95528 0.0
C2925 C 0.98469 0.35711 0.95252 0.0
C2926 C 0.97602 0.35322 0.93817 0.0
C2927 C 0.97744 0.36354 0.92653 0.0
C2928 C 0.9875 0.3778 0.92924 0.0
C2929 C 0.99621 0.38174 0.94357 0.0
H2930 H 0.97072 0.3605 0.91543 0.0
H2931 H 0.05468 0.39914 0.05479 0.0
H2932 H 0.67985 0.7966 0.25021 0.0
H2933 H 0.65466 0.78771 0.26223 0.0
H2934 H 0.68077 0.75975 0.29133 0.0
H2935 H 0.70587 0.76844 0.2791 0.0
H2936 H 0.65171 0.74436 0.28223 0.0
H2937 H 0.67225 0.79792 0.30558 0.0
H2938 H 0.6819 0.82646 0.30517 0.0
H2939 H 0.63678 0.83565 0.28519 0.0
H2940 H 0.62693 0.80709 0.28529 0.0
H2941 H 0.5996 0.74229 0.34808 0.0
H2942 H 0.62222 0.74628 0.33056 0.0
H2943 H 0.59443 0.77555 0.30443 0.0
H2944 H 0.57202 0.77218 0.32228 0.0
H2945 H 0.62341 0.78965 0.31047 0.0
H2946 H 0.60209 0.73626 0.28906 0.0
H2947 H 0.5926 0.70774 0.28982 0.0
H2948 H 0.63902 0.69812 0.30642 0.0
H2949 H 0.64873 0.72665 0.30597 0.0
C2950 C 0.68007 0.78814 0.2588 0.0
C2951 C 0.69464 0.78304 0.2637 0.0
C2952 C 0.66573 0.78319 0.26576 0.0
C2953 C 0.66585 0.77328 0.27789 0.0
C2954 C 0.68037 0.76739 0.28202 0.0
C2955 C 0.69468 0.77231 0.27502 0.0
C2956 C 0.65123 0.77026 0.28727 0.0
C2957 C 0.64557 0.75425 0.2885 0.0
C2958 C 0.64306 0.78315 0.29526 0.0
C2959 C 0.64892 0.80034 0.29528 0.0
C2960 C 0.66443 0.806 0.301 0.0
C2961 C 0.66993 0.82218 0.30083 0.0
C2962 C 0.65998 0.83285 0.29511 0.0
C2963 C 0.64449 0.82737 0.28959 0.0
C2964 C 0.63894 0.81119 0.2897 0.0
C2965 C 0.59832 0.74966 0.33868 0.0
C2966 C 0.58394 0.75688 0.33661 0.0
C2967 C 0.61121 0.75177 0.32853 0.0
C2968 C 0.60998 0.76103 0.316 0.0
C2969 C 0.59566 0.76827 0.31393 0.0
C2970 C 0.58279 0.76621 0.32409 0.0
C2971 C 0.6238 0.76373 0.30545 0.0
C2972 C 0.6294 0.77972 0.30408 0.0
C2973 C 0.63189 0.7508 0.29737 0.0
C2974 C 0.6261 0.73363 0.29761 0.0
C2975 C 0.61024 0.72809 0.29299 0.0
C2976 C 0.60482 0.71192 0.29334 0.0
C2977 C 0.61518 0.70114 0.2982 0.0
C2978 C 0.631 0.70649 0.30267 0.0
C2979 C 0.63647 0.72266 0.30236 0.0
H2980 H 0.61097 0.68862 0.29846 0.0
H2981 H 0.66426 0.84537 0.295 0.0
H2982 H 0.06793 0.09817 0.04242 0.0
H2983 H 0.06965 0.11831 0.02388 0.0
H2984 H 0.05186 0.08161 0.98567 0.0
H2985 H 0.05028 0.06144 0.00423 0.0
H2986 H 0.07475 0.10361 0.97534 0.0
H2987 H 0.02621 0.10457 0.00569 0.0
H2988 H 0.01048 0.10644 0.0303 0.0
H2989 H 0.03349 0.15366 0.04604 0.0
H2990 H 0.04954 0.15196 0.0216 0.0
H2991 H 0.03959 0.15263 0.92423 0.0
H2992 H 0.04542 0.13251 0.94141 0.0
H2993 H 0.05884 0.17078 0.9798 0.0
H2994 H 0.05296 0.19094 0.96271 0.0
H2995 H 0.03966 0.14832 0.99028 0.0
H2996 H 0.08704 0.14824 0.959 0.0
H2997 H 0.10264 0.14639 0.93433 0.0
H2998 H 0.08204 0.09788 0.92017 0.0
H2999 H 0.06613 0.09953 0.94467 0.0
C3000 C 0.0649 0.09435 0.02994 0.0
C3001 C 0.05911 0.07834 0.02462 0.0
C3002 C 0.06576 0.10585 0.0194 0.0
C3003 C 0.06066 0.10151 0.00344 0.0
C3004 C 0.05587 0.08522 0.99791 0.0
C3005 C 0.055 0.07372 0.00848 0.0
C3006 C 0.05881 0.11415 0.99298 0.0
C3007 C 0.067 0.11333 0.97852 0.0
C3008 C 0.04889 0.12698 0.99726 0.0
C3009 C 0.0392 0.12806 0.01191 0.0
C3010 C 0.02801 0.1153 0.01446 0.0
C3011 C 0.01902 0.11633 0.02836 0.0
C3012 C 0.02102 0.13014 0.03975 0.0
C3013 C 0.03198 0.14296 0.03722 0.0
C3014 C 0.04102 0.14197 0.02335 0.0
C3015 C 0.04398 0.15677 0.93627 0.0
C3016 C 0.04577 0.1734 0.9421 0.0
C3017 C 0.04733 0.14525 0.94608 0.0
C3018 C 0.05274 0.15011 0.96188 0.0
C3019 C 0.05466 0.16671 0.96768 0.0
C3020 C 0.05124 0.17823 0.9579 0.0
C3021 C 0.05567 0.1379 0.97259 0.0
C3022 C 0.04757 0.13874 0.98711 0.0
C3023 C 0.06568 0.12512 0.96833 0.0
C3024 C 0.07528 0.12407 0.95361 0.0
C3025 C 0.08574 0.13723 0.95057 0.0
C3026 C 0.09466 0.1362 0.93663 0.0
C3027 C 0.0933 0.12204 0.92567 0.0
C3028 C 0.08306 0.10885 0.92866 0.0
C3029 C 0.0741 0.10982 0.94258 0.0
H3030 H 0.10022 0.12127 0.91488 0.0
H3031 H 0.01405 0.13092 0.0505 0.0
H3032 H 0.31572 0.29512 0.27064 0.0
H3033 H 0.33776 0.29458 0.25185 0.0
H3034 H 0.36747 0.27556 0.28551 0.0
H3035 H 0.34599 0.27716 0.30472 0.0
H3036 H 0.38473 0.29653 0.27289 0.0
H3037 H 0.34831 0.25162 0.2514 0.0
H3038 H 0.32243 0.23782 0.24126 0.0
H3039 H 0.32227 0.26742 0.2037 0.0
H3040 H 0.34806 0.28155 0.21376 0.0
H3041 H 0.44235 0.2614 0.22015 0.0
H3042 H 0.41951 0.26477 0.2377 0.0
H3043 H 0.39922 0.2951 0.20691 0.0
H3044 H 0.42242 0.29252 0.1896 0.0
H3045 H 0.37705 0.26983 0.21704 0.0
H3046 H 0.41521 0.31344 0.23882 0.0
H3047 H 0.44174 0.32535 0.24911 0.0
H3048 H 0.43911 0.29558 0.28658 0.0
H3049 H 0.41266 0.28331 0.27636 0.0
C3050 C 0.32699 0.29101 0.27415 0.0
C3051 C 0.32892 0.28605 0.28923 0.0
C3052 C 0.33956 0.29049 0.26327 0.0
C3053 C 0.35427 0.28474 0.26708 0.0
C3054 C 0.35626 0.27997 0.28218 0.0
C3055 C 0.34382 0.2807 0.29312 0.0
C3056 C 0.36767 0.28377 0.25552 0.0
C3057 C 0.38302 0.29052 0.26074 0.0
C3058 C 0.36552 0.27623 0.23951 0.0
C3059 C 0.35002 0.26777 0.23344 0.0
C3060 C 0.34269 0.25528 0.24106 0.0
C3061 C 0.32805 0.24738 0.23531 0.0
C3062 C 0.32069 0.25177 0.22187 0.0
C3063 C 0.32797 0.26405 0.21413 0.0
C3064 C 0.3426 0.272 0.21984 0.0
C3065 C 0.43322 0.26902 0.21715 0.0
C3066 C 0.43443 0.27679 0.20342 0.0
C3067 C 0.42007 0.27081 0.22718 0.0
C3068 C 0.40771 0.28024 0.22364 0.0
C3069 C 0.40862 0.28772 0.20982 0.0
C3070 C 0.42189 0.28614 0.19988 0.0
C3071 C 0.39397 0.28239 0.23456 0.0
C3072 C 0.37864 0.27589 0.22919 0.0
C3073 C 0.39616 0.28991 0.25051 0.0
C3074 C 0.41202 0.29735 0.25674 0.0
C3075 C 0.42035 0.30933 0.24918 0.0
C3076 C 0.43536 0.31617 0.25501 0.0
C3077 C 0.44212 0.31119 0.26847 0.0
C3078 C 0.43387 0.2994 0.27615 0.0
C3079 C 0.41886 0.29252 0.27035 0.0
H3080 H 0.45375 0.3165 0.27297 0.0
H3081 H 0.30936 0.24564 0.21744 0.0
H3082 H 0.5637 0.43262 0.02124 0.0
H3083 H 0.55941 0.40872 0.03502 0.0
H3084 H 0.50862 0.41461 0.03607 0.0
H3085 H 0.51301 0.43862 0.02245 0.0
H3086 H 0.51974 0.41115 0.06487 0.0
H3087 H 0.52426 0.38297 0.01196 0.0
H3088 H 0.5369 0.37619 0.98593 0.0
H3089 H 0.5782 0.36196 0.00919 0.0
H3090 H 0.5659 0.36886 0.03539 0.0
H3091 H 0.49644 0.33883 0.09623 0.0
H3092 H 0.49977 0.35992 0.07896 0.0
H3093 H 0.55041 0.35366 0.07628 0.0
H3094 H 0.54712 0.33242 0.09344 0.0
H3095 H 0.53904 0.35694 0.04777 0.0
H3096 H 0.53552 0.38588 0.1004 0.0
H3097 H 0.52359 0.39297 0.12674 0.0
H3098 H 0.48133 0.40628 0.10437 0.0
H3099 H 0.49292 0.39906 0.07787 0.0
C3100 C 0.55161 0.42853 0.02411 0.0
C3101 C 0.53864 0.43722 0.02068 0.0
C3102 C 0.54915 0.4149 0.03198 0.0
C3103 C 0.53366 0.40976 0.03651 0.0
C3104 C 0.52066 0.4183 0.03268 0.0
C3105 C 0.52314 0.43192 0.02482 0.0
C3106 C 0.53116 0.39621 0.04618 0.0
C3107 C 0.52371 0.39921 0.06099 0.0
C3108 C 0.5368 0.38076 0.04139 0.0
C3109 C 0.54421 0.37657 0.02565 0.0
C3110 C 0.53609 0.37852 0.01154 0.0
C3111 C 0.54318 0.37463 0.99675 0.0
C3112 C 0.55836 0.36869 0.99591 0.0
C3113 C 0.56645 0.36658 0.00986 0.0
C3114 C 0.55942 0.37046 0.02468 0.0
C3115 C 0.50831 0.34202 0.09206 0.0
C3116 C 0.52153 0.334 0.09632 0.0
C3117 C 0.5102 0.35408 0.08216 0.0
C3118 C 0.52539 0.35858 0.07646 0.0
C3119 C 0.53857 0.35042 0.0805 0.0
C3120 C 0.53667 0.33827 0.09031 0.0
C3121 C 0.52755 0.37187 0.06642 0.0
C3122 C 0.53498 0.36885 0.0516 0.0
C3123 C 0.522 0.38736 0.07123 0.0
C3124 C 0.51502 0.39177 0.08715 0.0
C3125 C 0.52363 0.39021 0.10109 0.0
C3126 C 0.51694 0.39426 0.11605 0.0
C3127 C 0.50169 0.40003 0.11722 0.0
C3128 C 0.49313 0.40179 0.10344 0.0
C3129 C 0.49976 0.39773 0.08845 0.0
H3130 H 0.49653 0.40317 0.12882 0.0
H3131 H 0.56383 0.36569 0.98445 0.0
H3132 H 0.6967 0.22424 0.25292 0.0
H3133 H 0.67461 0.23604 0.24076 0.0
H3134 H 0.64782 0.23546 0.28408 0.0
H3135 H 0.66994 0.22324 0.29611 0.0
H3136 H 0.62963 0.22301 0.25933 0.0
H3137 H 0.66362 0.27156 0.2718 0.0
H3138 H 0.68875 0.28911 0.2728 0.0
H3139 H 0.68952 0.28319 0.22167 0.0
H3140 H 0.6645 0.26542 0.22035 0.0
H3141 H 0.56675 0.26251 0.22784 0.0
H3142 H 0.58907 0.25725 0.24469 0.0
H3143 H 0.61987 0.25366 0.20394 0.0
H3144 H 0.59762 0.25885 0.18701 0.0
H3145 H 0.63534 0.27037 0.22987 0.0
H3146 H 0.60289 0.21984 0.2177 0.0
H3147 H 0.57786 0.2021 0.21664 0.0
H3148 H 0.57439 0.21193 0.26756 0.0
H3149 H 0.5993 0.22991 0.26889 0.0
C3150 C 0.68621 0.22697 0.25992 0.0
C3151 C 0.68497 0.22307 0.27544 0.0
C3152 C 0.6736 0.23375 0.253 0.0
C3153 C 0.65957 0.23686 0.26155 0.0
C3154 C 0.65853 0.23324 0.27727 0.0
C3155 C 0.67116 0.22638 0.28417 0.0
C3156 C 0.64564 0.24273 0.2536 0.0
C3157 C 0.63082 0.23359 0.25319 0.0
C3158 C 0.64721 0.2563 0.24525 0.0
C3159 C 0.66223 0.26706 0.24598 0.0
C3160 C 0.6692 0.27391 0.26077 0.0
C3161 C 0.68342 0.28391 0.26139 0.0
C3162 C 0.69074 0.28724 0.24731 0.0
C3163 C 0.68384 0.2806 0.23257 0.0
C3164 C 0.66962 0.27057 0.23188 0.0
C3165 C 0.57827 0.26056 0.22244 0.0
C3166 C 0.58035 0.261 0.20603 0.0
C3167 C 0.59103 0.25759 0.23211 0.0
C3168 C 0.60612 0.25486 0.22556 0.0
C3169 C 0.60836 0.25575 0.20928 0.0
C3170 C 0.59561 0.25877 0.19962 0.0
C3171 C 0.61945 0.25055 0.23549 0.0
C3172 C 0.63414 0.25994 0.23622 0.0
C3173 C 0.61777 0.23722 0.24416 0.0
C3174 C 0.60285 0.22635 0.24338 0.0
C3175 C 0.59672 0.21831 0.22866 0.0
C3176 C 0.58257 0.2082 0.22801 0.0
C3177 C 0.57452 0.20593 0.24202 0.0
C3178 C 0.58063 0.21372 0.25671 0.0
C3179 C 0.59476 0.22387 0.25742 0.0
H3180 H 0.56356 0.1981 0.24149 0.0
H3181 H 0.70175 0.29498 0.24782 0.0
H3182 H 0.48477 0.09224 0.98036 0.0
H3183 H 0.49183 0.11618 0.99989 0.0
H3184 H 0.49128 0.08618 0.03743 0.0
H3185 H 0.48422 0.06222 0.01797 0.0
H3186 H 0.47349 0.11107 0.04494 0.0
H3187 H 0.52644 0.10437 0.02509 0.0
H3188 H 0.54708 0.10099 0.00452 0.0
H3189 H 0.53789 0.14677 0.99024 0.0
H3190 H 0.51703 0.15032 0.01059 0.0
H3191 H 0.50162 0.17196 0.10729 0.0
H3192 H 0.4995 0.1477 0.08745 0.0
H3193 H 0.50035 0.17751 0.04974 0.0
H3194 H 0.50258 0.20186 0.06956 0.0
H3195 H 0.51855 0.15267 0.04234 0.0
H3196 H 0.46517 0.15903 0.06123 0.0
H3197 H 0.44419 0.16255 0.08144 0.0
H3198 H 0.45381 0.11746 0.097 0.0
H3199 H 0.47501 0.11377 0.07702 0.0
C3200 C 0.48655 0.09069 0.99272 0.0
C3201 C 0.48387 0.07533 0.99762 0.0
C3202 C 0.49055 0.1044 0.00389 0.0
C3203 C 0.4921 0.103 0.02016 0.0
C3204 C 0.49006 0.08759 0.02497 0.0
C3205 C 0.48603 0.0739 0.01383 0.0
C3206 C 0.4947 0.11766 0.03229 0.0
C3207 C 0.48351 0.12002 0.04451 0.0
C3208 C 0.50747 0.12961 0.03147 0.0
C3209 C 0.52006 0.12754 0.01927 0.0
C3210 C 0.52873 0.11365 0.01748 0.0
C3211 C 0.54049 0.11172 0.00587 0.0
C3212 C 0.54377 0.12363 0.99605 0.0
C3213 C 0.53533 0.13754 0.99785 0.0
C3214 C 0.52354 0.13953 0.00942 0.0
C3215 C 0.50127 0.17336 0.09478 0.0
C3216 C 0.50216 0.18885 0.09002 0.0
C3217 C 0.50009 0.15947 0.08343 0.0
C3218 C 0.49955 0.16076 0.06708 0.0
C3219 C 0.50076 0.17621 0.06228 0.0
C3220 C 0.50205 0.19011 0.07362 0.0
C3221 C 0.49741 0.14599 0.05502 0.0
C3222 C 0.5086 0.14366 0.04279 0.0
C3223 C 0.48459 0.13406 0.05576 0.0
C3224 C 0.47178 0.1362 0.06773 0.0
C3225 C 0.46289 0.14992 0.06904 0.0
C3226 C 0.45095 0.15194 0.08044 0.0
C3227 C 0.4477 0.14026 0.09053 0.0
C3228 C 0.45635 0.12651 0.0892 0.0
C3229 C 0.46833 0.12444 0.07783 0.0
H3230 H 0.43845 0.14184 0.09935 0.0
H3231 H 0.55288 0.12211 0.98707 0.0
H3232 H 0.28361 0.32692 0.75197 0.0
H3233 H 0.30236 0.351 0.75567 0.0
H3234 H 0.29154 0.36012 0.70803 0.0
H3235 H 0.27259 0.33599 0.70426 0.0
H3236 H 0.32385 0.36561 0.71547 0.0
H3237 H 0.27437 0.38107 0.73876 0.0
H3238 H 0.25088 0.37881 0.75594 0.0
H3239 H 0.28176 0.38463 0.79733 0.0
H3240 H 0.30547 0.38667 0.78036 0.0
H3241 H 0.35664 0.44802 0.72833 0.0
H3242 H 0.33907 0.42319 0.72181 0.0
H3243 H 0.34563 0.41204 0.76952 0.0
H3244 H 0.36322 0.43678 0.77611 0.0
H3245 H 0.31475 0.40802 0.76086 0.0
H3246 H 0.36428 0.3919 0.73756 0.0
H3247 H 0.38782 0.39398 0.72039 0.0
H3248 H 0.35694 0.38946 0.67908 0.0
H3249 H 0.3332 0.38758 0.69605 0.0
C3250 C 0.28519 0.33405 0.74227 0.0
C3251 C 0.27644 0.32966 0.72789 0.0
C3252 C 0.29594 0.34779 0.7444 0.0
C3253 C 0.29815 0.35751 0.73223 0.0
C3254 C 0.28998 0.35281 0.7176 0.0
C3255 C 0.27919 0.33901 0.71545 0.0
C3256 C 0.30856 0.37285 0.73509 0.0
C3257 C 0.32175 0.375 0.72525 0.0
C3258 C 0.30595 0.38498 0.74801 0.0
C3259 C 0.29171 0.38388 0.75827 0.0
C3260 C 0.27616 0.38174 0.75151 0.0
C3261 C 0.2628 0.38052 0.76122 0.0
C3262 C 0.26483 0.38154 0.77772 0.0
C3263 C 0.28022 0.38382 0.78455 0.0
C3264 C 0.29362 0.38503 0.77489 0.0
C3265 C 0.35449 0.44019 0.73738 0.0
C3266 C 0.36133 0.44441 0.75275 0.0
C3267 C 0.34443 0.426 0.73364 0.0
C3268 C 0.34112 0.41567 0.74514 0.0
C3269 C 0.34796 0.41984 0.76047 0.0
C3270 C 0.35798 0.43402 0.76423 0.0
C3271 C 0.33023 0.40071 0.74139 0.0
C3272 C 0.31687 0.39866 0.75105 0.0
C3273 C 0.33271 0.3887 0.72831 0.0
C3274 C 0.34696 0.38978 0.71809 0.0
C3275 C 0.36251 0.39149 0.72483 0.0
C3276 C 0.37588 0.3926 0.71513 0.0
C3277 C 0.37387 0.3919 0.69866 0.0
C3278 C 0.35848 0.39003 0.69185 0.0
C3279 C 0.34506 0.38893 0.70149 0.0
H3280 H 0.38424 0.39276 0.69117 0.0
H3281 H 0.25447 0.38059 0.78521 0.0
H3282 H 0.24802 0.66192 0.80805 0.0
H3283 H 0.26936 0.64342 0.80588 0.0
H3284 H 0.30477 0.684 0.81473 0.0
H3285 H 0.28341 0.70267 0.81663 0.0
H3286 H 0.3128 0.66171 0.78972 0.0
H3287 H 0.29626 0.6612 0.84358 0.0
H3288 H 0.277 0.65871 0.86517 0.0
H3289 H 0.26294 0.60972 0.8448 0.0
H3290 H 0.28195 0.612 0.82295 0.0
H3291 H 0.37674 0.61175 0.79806 0.0
H3292 H 0.35756 0.6324 0.80334 0.0
H3293 H 0.31856 0.59517 0.79824 0.0
H3294 H 0.33765 0.57445 0.79363 0.0
H3295 H 0.31361 0.61726 0.82283 0.0
H3296 H 0.3285 0.61817 0.76816 0.0
H3297 H 0.34722 0.62048 0.74609 0.0
H3298 H 0.36389 0.66845 0.76752 0.0
H3299 H 0.34541 0.66633 0.78984 0.0
C3300 C 0.26035 0.66693 0.80945 0.0
C3301 C 0.26401 0.68378 0.81248 0.0
C3302 C 0.27254 0.65633 0.80835 0.0
C3303 C 0.28867 0.6623 0.81029 0.0
C3304 C 0.2924 0.67912 0.81325 0.0
C3305 C 0.28019 0.68976 0.81444 0.0
C3306 C 0.30158 0.65094 0.80892 0.0
C3307 C 0.31316 0.65216 0.79715 0.0
C3308 C 0.30184 0.63826 0.81837 0.0
C3309 C 0.29044 0.63682 0.83155 0.0
C3310 C 0.28897 0.64994 0.84363 0.0
C3311 C 0.27812 0.64856 0.85593 0.0
C3312 C 0.26873 0.63408 0.85633 0.0
C3313 C 0.27021 0.62094 0.84446 0.0
C3314 C 0.28104 0.62226 0.83213 0.0
C3315 C 0.3641 0.60793 0.79824 0.0
C3316 C 0.35877 0.5914 0.79531 0.0
C3317 C 0.35312 0.61978 0.8011 0.0
C3318 C 0.33657 0.61538 0.80097 0.0
C3319 C 0.33125 0.59889 0.79834 0.0
C3320 C 0.3422 0.58705 0.79553 0.0
C3321 C 0.32474 0.62788 0.80348 0.0
C3322 C 0.31335 0.62688 0.81547 0.0
C3323 C 0.32461 0.64071 0.79418 0.0
C3324 C 0.3357 0.64202 0.78076 0.0
C3325 C 0.33625 0.62916 0.76823 0.0
C3326 C 0.3468 0.63044 0.75566 0.0
C3327 C 0.35677 0.64458 0.75542 0.0
C3328 C 0.35618 0.65749 0.76773 0.0
C3329 C 0.34567 0.65626 0.78034 0.0
H3330 H 0.36493 0.64556 0.74568 0.0
H3331 H 0.26033 0.63303 0.86586 0.0
H3332 H 0.95369 0.498 0.50068 0.0
H3333 H 0.92946 0.48174 0.50637 0.0
H3334 H 0.90104 0.52159 0.50082 0.0
H3335 H 0.92535 0.53802 0.49528 0.0
H3336 H 0.89073 0.50704 0.52537 0.0
H3337 H 0.90289 0.48962 0.47094 0.0
H3338 H 0.91977 0.47978 0.44846 0.0
H3339 H 0.92608 0.43654 0.46909 0.0
H3340 H 0.90941 0.44624 0.49182 0.0
H3341 H 0.81589 0.45901 0.51484 0.0
H3342 H 0.83966 0.47688 0.51111 0.0
H3343 H 0.86994 0.43933 0.51947 0.0
H3344 H 0.84628 0.4215 0.52356 0.0
H3345 H 0.87877 0.4532 0.49313 0.0
H3346 H 0.86629 0.4712 0.54776 0.0
H3347 H 0.84897 0.48133 0.56977 0.0
H3348 H 0.84254 0.5238 0.54791 0.0
H3349 H 0.85965 0.51381 0.52565 0.0
C3350 C 0.94227 0.5033 0.50065 0.0
C3351 C 0.94141 0.51924 0.49736 0.0
C3352 C 0.92843 0.49399 0.5039 0.0
C3353 C 0.91337 0.50032 0.50372 0.0
C3354 C 0.91251 0.51642 0.50097 0.0
C3355 C 0.92641 0.5258 0.49783 0.0
C3356 C 0.89853 0.48999 0.50608 0.0
C3357 C 0.888 0.49536 0.51817 0.0
C3358 C 0.89506 0.47464 0.49685 0.0
C3359 C 0.90502 0.46873 0.48316 0.0
C3360 C 0.90797 0.47807 0.47074 0.0
C3361 C 0.91749 0.47251 0.45795 0.0
C3362 C 0.92403 0.45756 0.45737 0.0
C3363 C 0.92103 0.44813 0.46956 0.0
C3364 C 0.91153 0.45364 0.4824 0.0
C3365 C 0.8276 0.45461 0.51612 0.0
C3366 C 0.82913 0.43878 0.51952 0.0
C3367 C 0.84119 0.46484 0.51393 0.0
C3368 C 0.85659 0.45948 0.5151 0.0
C3369 C 0.85817 0.44371 0.51846 0.0
C3370 C 0.84461 0.43349 0.52072 0.0
C3371 C 0.87106 0.47017 0.5125 0.0
C3372 C 0.8815 0.46487 0.50032 0.0
C3373 C 0.87436 0.48562 0.52156 0.0
C3374 C 0.86412 0.49167 0.53496 0.0
C3375 C 0.86107 0.48263 0.54758 0.0
C3376 C 0.85132 0.48836 0.56011 0.0
C3377 C 0.84462 0.50317 0.56022 0.0
C3378 C 0.84771 0.51231 0.54781 0.0
C3379 C 0.85745 0.50663 0.53523 0.0
H3380 H 0.83708 0.50759 0.56993 0.0
H3381 H 0.9314 0.45328 0.44745 0.0
H3382 H 0.79827 0.84299 0.78909 0.0
H3383 H 0.78609 0.8652 0.77826 0.0
H3384 H 0.73963 0.84771 0.79352 0.0
H3385 H 0.75171 0.82545 0.80379 0.0
H3386 H 0.73633 0.85733 0.76594 0.0
H3387 H 0.76397 0.87979 0.81554 0.0
H3388 H 0.78758 0.88628 0.83351 0.0
H3389 H 0.81105 0.91321 0.79948 0.0
H3390 H 0.78763 0.90671 0.78123 0.0
H3391 H 0.6906 0.92491 0.77944 0.0
H3392 H 0.70677 0.90236 0.7821 0.0
H3393 H 0.7464 0.92615 0.75997 0.0
H3394 H 0.73016 0.94873 0.75694 0.0
H3395 H 0.75578 0.91386 0.78679 0.0
H3396 H 0.7256 0.8944 0.73907 0.0
H3397 H 0.70124 0.88833 0.72211 0.0
H3398 H 0.68183 0.85588 0.75345 0.0
H3399 H 0.70597 0.86193 0.77074 0.0
C3400 C 0.78543 0.84383 0.78981 0.0
C3401 C 0.77583 0.8326 0.79714 0.0
C3402 C 0.77849 0.85655 0.78376 0.0
C3403 C 0.76193 0.8583 0.78525 0.0
C3404 C 0.75239 0.84666 0.79216 0.0
C3405 C 0.75928 0.83395 0.79804 0.0
C3406 C 0.7544 0.87249 0.78035 0.0
C3407 C 0.74057 0.86968 0.77056 0.0
C3408 C 0.76011 0.88868 0.78599 0.0
C3409 C 0.77415 0.89261 0.79696 0.0
C3410 C 0.77422 0.887 0.81185 0.0
C3411 C 0.78755 0.89069 0.82209 0.0
C3412 C 0.80083 0.9001 0.81762 0.0
C3413 C 0.80078 0.90589 0.80291 0.0
C3414 C 0.78748 0.90221 0.79262 0.0
C3415 C 0.70267 0.9253 0.77491 0.0
C3416 C 0.70899 0.93864 0.76785 0.0
C3417 C 0.71193 0.91238 0.77649 0.0
C3418 C 0.72774 0.91245 0.77105 0.0
C3419 C 0.73422 0.92582 0.76423 0.0
C3420 C 0.72492 0.93876 0.76257 0.0
C3421 C 0.73748 0.89862 0.77281 0.0
C3422 C 0.7517 0.90151 0.78196 0.0
C3423 C 0.73206 0.88249 0.7667 0.0
C3424 C 0.71757 0.87871 0.75626 0.0
C3425 C 0.71609 0.88605 0.74241 0.0
C3426 C 0.70233 0.8826 0.73273 0.0
C3427 C 0.68999 0.87175 0.73672 0.0
C3428 C 0.6914 0.86429 0.75038 0.0
C3429 C 0.70513 0.86771 0.76011 0.0
H3430 H 0.67934 0.8691 0.72921 0.0
H3431 H 0.81114 0.90295 0.82556 0.0
H3432 H 0.60016 0.48136 0.99636 0.0
H3433 H 0.62569 0.49796 0.99794 0.0
H3434 H 0.60301 0.53485 0.97704 0.0
H3435 H 0.57761 0.51819 0.97518 0.0
H3436 H 0.631 0.53103 0.96425 0.0
H3437 H 0.61172 0.538 0.01789 0.0
H3438 H 0.6018 0.52911 0.04286 0.0
H3439 H 0.64547 0.50659 0.0487 0.0
H3440 H 0.65557 0.51516 0.02363 0.0
H3441 H 0.68729 0.59831 0.987 0.0
H3442 H 0.66342 0.57931 0.98416 0.0
H3443 H 0.69046 0.54286 1.00079 0.0
H3444 H 0.71436 0.56192 0.00391 0.0
H3445 H 0.66134 0.54526 0.01539 0.0
H3446 H 0.68097 0.53999 0.96202 0.0
H3447 H 0.69059 0.54975 0.93735 0.0
H3448 H 0.64574 0.57014 0.93139 0.0
H3449 H 0.63593 0.5607 0.95616 0.0
C3450 C 0.60065 0.49303 0.99214 0.0
C3451 C 0.58689 0.49846 0.98563 0.0
C3452 C 0.61523 0.50253 0.99307 0.0
C3453 C 0.61627 0.51778 0.98778 0.0
C3454 C 0.60256 0.52313 0.98115 0.0
C3455 C 0.58804 0.51358 0.98007 0.0
C3456 C 0.63158 0.52822 0.98914 0.0
C3457 C 0.63752 0.53427 0.97548 0.0
C3458 C 0.64035 0.53219 0.0037 0.0
C3459 C 0.63432 0.52707 0.0188 0.0
C3460 C 0.61915 0.53105 0.02444 0.0
C3461 C 0.61351 0.52608 0.03862 0.0
C3462 C 0.62298 0.51725 0.04734 0.0
C3463 C 0.63814 0.5134 0.04191 0.0
C3464 C 0.64383 0.51832 0.02773 0.0
C3465 C 0.68816 0.58626 0.99009 0.0
C3466 C 0.70274 0.58162 0.99567 0.0
C3467 C 0.67453 0.57537 0.98834 0.0
C3468 C 0.67518 0.55961 0.99214 0.0
C3469 C 0.6897 0.55494 0.99774 0.0
C3470 C 0.70337 0.5658 0.9994 0.0
C3471 C 0.66061 0.54816 0.99055 0.0
C3472 C 0.65483 0.54192 0.00415 0.0
C3473 C 0.65192 0.54413 0.97597 0.0
C3474 C 0.65777 0.54976 0.96103 0.0
C3475 C 0.6732 0.54667 0.95552 0.0
C3476 C 0.67868 0.55212 0.9415 0.0
C3477 C 0.6688 0.56059 0.93282 0.0
C3478 C 0.65339 0.56359 0.93813 0.0
C3479 C 0.64786 0.55817 0.95215 0.0
H3480 H 0.67306 0.56481 0.92197 0.0
H3481 H 0.61859 0.51342 0.05831 0.0
H3482 H 0.26459 0.69287 0.22334 0.0
H3483 H 0.24731 0.66957 0.229 0.0
H3484 H 0.2883 0.64826 0.24604 0.0
H3485 H 0.30579 0.67129 0.23981 0.0
H3486 H 0.26966 0.6261 0.22733 0.0
H3487 H 0.26143 0.66591 0.27203 0.0
H3488 H 0.2553 0.69259 0.28589 0.0
H3489 H 0.20849 0.68677 0.26385 0.0
H3490 H 0.21441 0.66015 0.24968 0.0
H3491 H 0.22234 0.56565 0.26197 0.0
H3492 H 0.24113 0.58871 0.25843 0.0
H3493 H 0.203 0.61197 0.23851 0.0
H3494 H 0.18421 0.58891 0.24177 0.0
H3495 H 0.22115 0.63294 0.26017 0.0
H3496 H 0.23014 0.59356 0.2146 0.0
H3497 H 0.23644 0.56685 0.20094 0.0
H3498 H 0.28213 0.57187 0.22519 0.0
H3499 H 0.27601 0.59853 0.23917 0.0
C3500 C 0.26997 0.68318 0.22818 0.0
C3501 C 0.28659 0.68397 0.23113 0.0
C3502 C 0.26004 0.66994 0.23158 0.0
C3503 C 0.26647 0.65726 0.23815 0.0
C3504 C 0.28306 0.65794 0.24104 0.0
C3505 C 0.29302 0.67118 0.23761 0.0
C3506 C 0.25587 0.64316 0.2417 0.0
C3507 C 0.2592 0.62757 0.23473 0.0
C3508 C 0.24206 0.6451 0.25113 0.0
C3509 C 0.23842 0.66109 0.25968 0.0
C3510 C 0.24987 0.67037 0.27004 0.0
C3511 C 0.24643 0.68548 0.27797 0.0
C3512 C 0.23153 0.69139 0.27572 0.0
C3513 C 0.22003 0.68219 0.26557 0.0
C3514 C 0.22342 0.66708 0.2576 0.0
C3515 C 0.21797 0.5756 0.2567 0.0
C3516 C 0.20175 0.57539 0.25213 0.0
C3517 C 0.22872 0.5888 0.25474 0.0
C3518 C 0.22349 0.60201 0.24811 0.0
C3519 C 0.20729 0.60193 0.24371 0.0
C3520 C 0.19654 0.58875 0.24564 0.0
C3521 C 0.23486 0.61593 0.24567 0.0
C3522 C 0.23167 0.63148 0.25286 0.0
C3523 C 0.24883 0.61395 0.2365 0.0
C3524 C 0.25254 0.59796 0.22806 0.0
C3525 C 0.24148 0.58891 0.21712 0.0
C3526 C 0.24502 0.57379 0.2093 0.0
C3527 C 0.25965 0.56765 0.21223 0.0
C3528 C 0.27079 0.57663 0.22295 0.0
C3529 C 0.26729 0.59175 0.23082 0.0
H3530 H 0.26238 0.55594 0.20616 0.0
H3531 H 0.22889 0.70309 0.28187 0.0
H3532 H 0.96708 0.53408 0.03614 0.0
H3533 H 0.94523 0.55219 0.03767 0.0
H3534 H 0.91146 0.51224 0.04464 0.0
H3535 H 0.93333 0.49415 0.04295 0.0
H3536 H 0.90203 0.52724 0.02077 0.0
H3537 H 0.9205 0.54389 0.07458 0.0
H3538 H 0.94028 0.55382 0.09606 0.0
H3539 H 0.95013 0.59775 0.07578 0.0
H3540 H 0.93056 0.58798 0.05403 0.0
H3541 H 0.83387 0.57203 0.03185 0.0
H3542 H 0.85586 0.55562 0.03658 0.0
H3543 H 0.89006 0.5951 0.02945 0.0
H3544 H 0.86808 0.61183 0.02523 0.0
H3545 H 0.89912 0.58045 0.05427 0.0
H3546 H 0.88193 0.56361 1.00005 0.0
H3547 H 0.86254 0.55388 0.97816 0.0
H3548 H 0.8509 0.51046 0.99879 0.0
H3549 H 0.87008 0.52003 0.02094 0.0
C3550 C 0.95504 0.52934 0.03848 0.0
C3551 C 0.9518 0.51286 0.03965 0.0
C3552 C 0.94257 0.53966 0.03933 0.0
C3553 C 0.92667 0.53361 0.04133 0.0
C3554 C 0.9236 0.5172 0.04312 0.0
C3555 C 0.93608 0.50691 0.04228 0.0
C3556 C 0.91314 0.54395 0.04007 0.0
C3557 C 0.90126 0.53874 0.02832 0.0
C3558 C 0.91238 0.55921 0.04953 0.0
C3559 C 0.92416 0.56512 0.06258 0.0
C3560 C 0.92698 0.5556 0.07461 0.0
C3561 C 0.93814 0.56122 0.08686 0.0
C3562 C 0.94649 0.57639 0.08726 0.0
C3563 C 0.94367 0.58599 0.07544 0.0
C3564 C 0.93253 0.58043 0.06316 0.0
C3565 C 0.84605 0.57733 0.03149 0.0
C3566 C 0.84917 0.59327 0.02811 0.0
C3567 C 0.85863 0.56786 0.03406 0.0
C3568 C 0.87463 0.57404 0.03318 0.0
C3569 C 0.87782 0.59005 0.03014 0.0
C3570 C 0.86523 0.59955 0.02758 0.0
C3571 C 0.888 0.56365 0.03506 0.0
C3572 C 0.89987 0.5689 0.04683 0.0
C3573 C 0.88883 0.54843 0.02557 0.0
C3574 C 0.87732 0.54262 0.01224 0.0
C3575 C 0.87514 0.55204 0.99999 0.0
C3576 C 0.86421 0.54655 0.98752 0.0
C3577 C 0.85546 0.53158 0.98711 0.0
C3578 C 0.85767 0.52206 0.99914 0.0
C3579 C 0.86857 0.52751 0.01165 0.0
H3580 H 0.847 0.52734 0.97744 0.0
H3581 H 0.95511 0.58072 0.09675 0.0
H3582 H 0.10336 0.04359 0.05292 0.0
H3583 H 0.12666 0.0276 0.04781 0.0
H3584 H 0.1014 0.98771 0.06671 0.0
H3585 H 0.07828 0.0036 0.07194 0.0
H3586 H 0.13068 0.99228 0.07856 0.0
H3587 H 0.10698 0.98805 0.02605 0.0
H3588 H 0.0966 0.99845 1.00245 0.0
H3589 H 0.14269 0.02272 0.99602 0.0
H3590 H 0.1533 0.01263 0.01972 0.0
H3591 H 0.17733 0.92747 0.05092 0.0
H3592 H 0.1557 0.94562 0.05486 0.0
H3593 H 0.18619 0.98374 0.0386 0.0
H3594 H 0.20781 0.96552 0.03432 0.0
H3595 H 0.1558 0.98172 0.02565 0.0
H3596 H 0.1797 0.98463 0.07758 0.0
H3597 H 0.18991 0.97382 0.101 0.0
H3598 H 0.14308 0.95164 0.10838 0.0
H3599 H 0.13263 0.96213 0.08485 0.0
C3600 C 0.10277 0.03136 0.05586 0.0
C3601 C 0.08902 0.02491 0.06294 0.0
C3602 C 0.11607 0.02223 0.05293 0.0
C3603 C 0.11579 0.00639 0.05682 0.0
C3604 C 0.10199 0.99991 0.06371 0.0
C3605 C 0.08878 0.00904 0.06672 0.0
C3606 C 0.12989 0.99656 0.05407 0.0
C3607 C 0.13604 0.98984 0.06693 0.0
C3608 C 0.13722 0.9937 0.03902 0.0
C3609 C 0.13088 0.99974 0.02476 0.0
C3610 C 0.11487 0.99571 0.01967 0.0
C3611 C 0.10895 1.00153 0.00627 0.0
C3612 C 0.11897 0.01128 0.99777 0.0
C3613 C 0.13494 0.01519 1.00264 0.0
C3614 C 0.14091 0.00942 0.01605 0.0
C3615 C 0.17941 0.93967 0.04806 0.0
C3616 C 0.19433 0.94505 0.04235 0.0
C3617 C 0.16707 0.95008 0.05043 0.0
C3618 C 0.16937 0.9661 0.04718 0.0
C3619 C 0.18416 0.97145 0.04124 0.0
C3620 C 0.19655 0.96106 0.03893 0.0
C3621 C 0.15635 0.97725 0.05007 0.0
C3622 C 0.15045 0.98424 0.03727 0.0
C3623 C 0.14919 0.98032 0.06516 0.0
C3624 C 0.15542 0.97405 0.07936 0.0
C3625 C 0.1716 0.97734 0.08412 0.0
C3626 C 0.17743 0.97129 0.09743 0.0
C3627 C 0.16716 0.96202 0.10615 0.0
C3628 C 0.15103 0.95881 0.1016 0.0
C3629 C 0.14514 0.96482 0.08829 0.0
H3630 H 0.17169 0.95734 0.11646 0.0
H3631 H 0.11436 0.01577 0.9874 0.0
loop_
_geom_bond_atom_site_label_1
_geom_bond_atom_site_label_2
_geom_bond_distance
_geom_bond_site_symmetry_2
_ccdc_geom_bond_type
H0 C3 0.929 . S
H1 C6 0.929 . S
H2 C8 0.930 . S
C3 H0 0.929 . S
C3 C4 1.398 . S
C3 C5 1.396 . S
C4 C3 1.398 . S
C4 C8 1.407 . S
C5 C3 1.396 . S
C5 C6 1.394 . S
C6 H1 0.929 . S
C6 C5 1.394 . S
C6 C7 1.382 . S
C7 C6 1.382 . S
C7 C8 1.392 . S
C7 N9 1.420 . S
C8 H2 0.930 . S
C8 C4 1.407 . S
C8 C7 1.392 . S
N9 C7 1.420 . S
N9 C10 1.244 . S
C10 N9 1.244 . S
H11 C14 0.929 . S
H12 C17 0.929 . S
H13 C19 0.930 . S
C14 H11 0.929 . S
C14 C15 1.398 . S
C14 C16 1.396 . S
C15 C14 1.398 . S
C15 C19 1.407 . S
C16 C14 1.396 . S
C16 C17 1.394 . S
C17 H12 0.929 . S
C17 C16 1.394 . S
C17 C18 1.382 . S
C18 C17 1.382 . S
C18 C19 1.392 . S
C18 N20 1.420 . S
C19 H13 0.930 . S
C19 C15 1.407 . S
C19 C18 1.392 . S
N20 C18 1.420 . S
N20 C21 1.244 . S
C21 N20 1.244 . S
H22 C25 0.930 . S
H23 C28 0.929 . S
H24 C30 0.930 . S
C25 H22 0.930 . S
C25 C26 1.398 1_455 S
C25 C27 1.396 1_455 S
C26 C25 1.398 1_655 S
C26 C30 1.407 . S
C27 C25 1.396 1_655 S
C27 C28 1.394 . S
C28 H23 0.929 . S
C28 C27 1.394 . S
C28 C29 1.382 . S
C29 C28 1.382 . S
C29 C30 1.392 . S
C29 N31 1.420 . S
C30 H24 0.930 . S
C30 C26 1.407 . S
C30 C29 1.392 . S
N31 C29 1.420 . S
N31 C32 1.244 . S
C32 N31 1.244 . S
H33 C36 0.929 . S
H34 C39 0.929 . S
H35 C41 0.930 . S
C36 H33 0.929 . S
C36 C37 1.398 . S
C36 C38 1.396 . S
C37 C36 1.398 . S
C37 C41 1.407 . S
C38 C36 1.396 . S
C38 C39 1.394 . S
C39 H34 0.929 . S
C39 C38 1.394 . S
C39 C40 1.382 . S
C40 C39 1.382 . S
C40 C41 1.392 . S
C40 N42 1.420 . S
C41 H35 0.930 . S
C41 C37 1.407 . S
C41 C40 1.392 . S
N42 C40 1.420 . S
N42 C43 1.244 . S
C43 N42 1.244 . S
H44 C47 0.929 . S
H45 C50 0.929 . S
H46 C52 0.930 . S
C47 H44 0.929 . S
C47 C48 1.398 . S
C47 C49 1.396 . S
C48 C47 1.398 . S
C48 C52 1.407 . S
C49 C47 1.396 . S
C49 C50 1.394 . S
C50 H45 0.929 . S
C50 C49 1.394 . S
C50 C51 1.382 . S
C51 C50 1.382 . S
C51 C52 1.392 . S
C51 N53 1.420 . S
C52 H46 0.930 . S
C52 C48 1.407 . S
C52 C51 1.392 . S
N53 C51 1.420 . S
N53 C54 1.244 . S
C54 N53 1.244 . S
H55 C58 0.929 . S
H56 C61 0.929 . S
H57 C63 0.930 . S
C58 H55 0.929 . S
C58 C59 1.398 . S
C58 C60 1.396 . S
C59 C58 1.398 . S
C59 C63 1.407 . S
C60 C58 1.396 . S
C60 C61 1.394 . S
C61 H56 0.929 . S
C61 C60 1.394 . S
C61 C62 1.382 . S
C62 C61 1.382 . S
C62 C63 1.392 . S
C62 N64 1.420 . S
C63 H57 0.930 . S
C63 C59 1.407 . S
C63 C62 1.392 . S
N64 C62 1.420 . S
N64 C65 1.244 . S
C65 N64 1.244 . S
H66 C69 0.929 . S
H67 C72 0.929 1_455 S
H68 C74 0.930 . S
C69 H66 0.929 . S
C69 C70 1.398 . S
C69 C71 1.396 . S
C70 C69 1.398 . S
C70 C74 1.407 . S
C71 C69 1.396 . S
C71 C72 1.394 . S
C72 H67 0.929 1_655 S
C72 C71 1.394 . S
C72 C73 1.382 . S
C73 C72 1.382 . S
C73 C74 1.392 . S
C73 N75 1.420 1_655 S
C74 H68 0.930 . S
C74 C70 1.407 . S
C74 C73 1.392 . S
N75 C73 1.420 1_455 S
N75 C76 1.244 . S
C76 N75 1.244 . S
H77 C80 0.929 . S
H78 C83 0.929 . S
H79 C85 0.930 . S
C80 H77 0.929 . S
C80 C81 1.398 . S
C80 C82 1.396 . S
C81 C80 1.398 . S
C81 C85 1.407 . S
C82 C80 1.396 . S
C82 C83 1.394 . S
C83 H78 0.929 . S
C83 C82 1.394 . S
C83 C84 1.382 . S
C84 C83 1.382 . S
C84 C85 1.392 . S
C84 N86 1.420 . S
C85 H79 0.930 . S
C85 C81 1.407 . S
C85 C84 1.392 . S
N86 C84 1.420 . S
N86 C87 1.244 . S
C87 N86 1.244 . S
H88 C91 0.929 . S
H89 C94 0.929 . S
H90 C96 0.930 . S
C91 H88 0.929 . S
C91 C92 1.398 . S
C91 C93 1.396 . S
C92 C91 1.398 . S
C92 C96 1.407 . S
C93 C91 1.396 . S
C93 C94 1.394 . S
C94 H89 0.929 . S
C94 C93 1.394 . S
C94 C95 1.382 . S
C95 C94 1.382 . S
C95 C96 1.392 . S
C95 N97 1.420 . S
C96 H90 0.930 . S
C96 C92 1.407 . S
C96 C95 1.392 . S
N97 C95 1.420 . S
N97 C98 1.244 . S
C98 N97 1.244 . S
H99 C102 0.929 . S
H100 C105 0.929 1_545 S
H101 C107 0.930 . S
C102 H99 0.929 . S
C102 C103 1.398 . S
C102 C104 1.396 . S
C103 C102 1.398 . S
C103 C107 1.407 . S
C104 C102 1.396 . S
C104 C105 1.394 . S
C105 H100 0.929 1_565 S
C105 C104 1.394 . S
C105 C106 1.382 . S
C106 C105 1.382 . S
C106 C107 1.392 . S
C106 N108 1.420 1_565 S
C107 H101 0.930 . S
C107 C103 1.407 . S
C107 C106 1.392 . S
N108 C106 1.420 1_545 S
N108 C109 1.244 . S
C109 N108 1.244 . S
H110 C113 0.929 . S
H111 C116 0.929 . S
H112 C118 0.930 . S
C113 H110 0.929 . S
C113 C114 1.398 . S
C113 C115 1.396 . S
C114 C113 1.398 . S
C114 C118 1.407 . S
C115 C113 1.396 . S
C115 C116 1.394 . S
C116 H111 0.929 . S
C116 C115 1.394 . S
C116 C117 1.382 . S
C117 C116 1.382 . S
C117 C118 1.392 . S
C117 N119 1.420 . S
C118 H112 0.930 . S
C118 C114 1.407 . S
C118 C117 1.392 . S
N119 C117 1.420 . S
N119 C120 1.244 . S
C120 N119 1.244 . S
H121 C124 0.929 . S
H122 C127 0.929 . S
H123 C129 0.930 . S
C124 H121 0.929 . S
C124 C125 1.398 . S
C124 C126 1.396 . S
C125 C124 1.398 . S
C125 C129 1.407 . S
C126 C124 1.396 . S
C126 C127 1.394 . S
C127 H122 0.929 . S
C127 C126 1.394 . S
C127 C128 1.382 . S
C128 C127 1.382 . S
C128 C129 1.392 . S
C128 N130 1.420 . S
C129 H123 0.930 . S
C129 C125 1.407 . S
C129 C128 1.392 . S
N130 C128 1.420 . S
N130 C131 1.244 . S
C131 N130 1.244 . S
H132 C135 0.929 . S
H133 C138 0.929 . S
H134 C140 0.930 . S
C135 H132 0.929 . S
C135 C136 1.398 . S
C135 C137 1.396 . S
C136 C135 1.398 . S
C136 C140 1.407 . S
C137 C135 1.396 . S
C137 C138 1.394 . S
C138 H133 0.929 . S
C138 C137 1.394 . S
C138 C139 1.382 . S
C139 C138 1.382 . S
C139 C140 1.392 . S
C139 N141 1.420 . S
C140 H134 0.930 . S
C140 C136 1.407 . S
C140 C139 1.392 . S
N141 C139 1.420 . S
N141 C142 1.244 . S
C142 N141 1.244 . S
H143 C146 0.929 . S
H144 C149 0.929 . S
H145 C151 0.930 . S
C146 H143 0.929 . S
C146 C147 1.398 . S
C146 C148 1.396 . S
C147 C146 1.398 . S
C147 C151 1.407 . S
C148 C146 1.396 . S
C148 C149 1.394 1_556 S
C149 H144 0.929 . S
C149 C148 1.394 1_554 S
C149 C150 1.382 . S
C150 C149 1.382 . S
C150 C151 1.392 1_554 S
C150 N152 1.420 . S
C151 H145 0.930 . S
C151 C147 1.407 . S
C151 C150 1.392 1_556 S
N152 C150 1.420 . S
N152 C153 1.244 . S
C153 N152 1.244 . S
H154 C157 0.929 . S
H155 C160 0.929 . S
H156 C162 0.930 . S
C157 H154 0.929 . S
C157 C158 1.398 . S
C157 C159 1.396 . S
C158 C157 1.398 . S
C158 C162 1.407 . S
C159 C157 1.396 . S
C159 C160 1.394 . S
C160 H155 0.929 . S
C160 C159 1.394 . S
C160 C161 1.382 . S
C161 C160 1.382 . S
C161 C162 1.392 . S
C161 N163 1.420 . S
C162 H156 0.930 . S
C162 C158 1.407 . S
C162 C161 1.392 . S
N163 C161 1.420 . S
N163 C164 1.244 . S
C164 N163 1.244 . S
H165 C168 0.929 . S
H166 C171 0.929 . S
H167 C173 0.930 . S
C168 H165 0.929 . S
C168 C169 1.398 . S
C168 C170 1.396 . S
C169 C168 1.398 . S
C169 C173 1.407 . S
C170 C168 1.396 . S
C170 C171 1.394 . S
C171 H166 0.929 . S
C171 C170 1.394 . S
C171 C172 1.382 . S
C172 C171 1.382 . S
C172 C173 1.392 . S
C172 N174 1.420 . S
C173 H167 0.930 . S
C173 C169 1.407 . S
C173 C172 1.392 . S
N174 C172 1.420 . S
N174 C175 1.244 . S
C175 N174 1.244 . S
Li176 N193 1.990 . S
Li176 O236 1.956 . S
Li176 O237 1.970 . S
Li176 O238 1.961 . S
Li177 N201 1.990 . S
Li177 O236 1.970 . S
Li177 O237 1.956 . S
Li177 O239 1.961 . S
Li178 N223 1.990 1_554 S
Li178 O236 1.961 . S
Li178 O238 1.956 . S
Li178 O239 1.970 . S
Li179 N229 1.990 . S
Li179 O237 1.961 . S
Li179 O238 1.970 . S
Li179 O239 1.956 . S
C180 C182 1.348 . S
C180 C183 1.356 . S
C180 O236 1.325 . S
N181 C184 1.314 . S
N181 C185 1.279 . S
C182 C180 1.348 . S
C182 C184 1.353 . S
C182 H240 0.929 . S
C183 C180 1.356 . S
C183 C185 1.358 . S
C183 H241 0.930 . S
C184 N181 1.314 . S
C184 C182 1.353 . S
C184 H242 0.930 . S
C185 N181 1.279 . S
C185 C183 1.358 . S
C185 H243 0.994 . S
C186 C189 1.348 . S
C186 C190 1.356 . S
C186 O237 1.325 . S
C187 N188 1.279 . S
C187 C190 1.358 . S
C187 H244 0.930 . S
N188 C187 1.279 . S
N188 C191 1.314 . S
C189 C186 1.348 . S
C189 C191 1.353 . S
C189 H245 0.929 . S
C190 C186 1.356 . S
C190 C187 1.358 . S
C190 H246 0.930 . S
C191 N188 1.314 . S
C191 C189 1.353 . S
C191 H247 0.930 . S
C192 N193 1.314 . S
C192 C197 1.353 . S
C192 H198 0.930 . S
N193 Li176 1.990 . S
N193 C192 1.314 . S
N193 C195 1.279 . S
C194 C195 1.358 . S
C194 C196 1.356 . S
C194 H248 0.930 . S
C195 N193 1.279 . S
C195 C194 1.358 . S
C195 H199 0.930 . S
C196 C194 1.356 . S
C196 C197 1.348 . S
C197 C192 1.353 . S
C197 C196 1.348 . S
C197 H249 0.929 . S
H198 C192 0.930 . S
H199 C195 0.930 . S
C200 N201 1.314 . S
C200 C202 1.353 . S
C200 H206 0.930 . S
N201 Li177 1.990 . S
N201 C200 1.314 . S
N201 C204 1.279 . S
C202 C200 1.353 . S
C202 C205 1.348 . S
C202 H250 0.929 . S
C203 C204 1.358 . S
C203 C205 1.356 . S
C203 H251 0.930 . S
C204 N201 1.279 . S
C204 C203 1.358 . S
C204 H207 0.930 . S
C205 C202 1.348 . S
C205 C203 1.356 . S
H206 C200 0.930 . S
H207 C204 0.930 . S
C208 C210 1.348 . S
C208 C211 1.356 1_554 S
C208 O238 1.325 . S
N209 C212 1.314 . S
N209 C213 1.279 . S
C210 C208 1.348 . S
C210 C212 1.353 1_554 S
C210 H252 0.929 . S
C211 C208 1.356 1_556 S
C211 C213 1.358 . S
C211 H253 0.930 . S
C212 N209 1.314 . S
C212 C210 1.353 1_556 S
C212 H254 0.930 . S
C213 N209 1.279 . S
C213 C211 1.358 . S
C213 H255 0.930 . S
C214 C215 1.348 . S
C214 C216 1.356 . S
C214 O239 1.325 . S
C215 C214 1.348 . S
C215 C217 1.353 . S
C215 H256 0.929 . S
C216 C214 1.356 . S
C216 C218 1.358 . S
C216 H257 0.930 . S
C217 C215 1.353 . S
C217 N219 1.314 . S
C217 H258 0.930 . S
C218 C216 1.358 . S
C218 N219 1.279 . S
C218 H259 0.930 . S
N219 C217 1.314 . S
N219 C218 1.279 . S
C220 C222 1.353 . S
C220 N223 1.314 . S
C220 H226 0.930 1_556 S
C221 N223 1.279 . S
C221 C224 1.358 . S
C221 H227 0.930 . S
C222 C220 1.353 . S
C222 C225 1.348 . S
C222 H260 0.929 . S
N223 Li178 1.990 1_556 S
N223 C220 1.314 . S
N223 C221 1.279 . S
C224 C221 1.358 . S
C224 C225 1.356 . S
C224 H261 0.930 . S
C225 C222 1.348 . S
C225 C224 1.356 . S
H226 C220 0.930 1_554 S
H227 C221 0.930 . S
C228 N229 1.314 . S
C228 C230 1.353 . S
C228 H234 0.930 . S
N229 Li179 1.990 . S
N229 C228 1.314 . S
N229 C232 1.279 . S
C230 C228 1.353 . S
C230 C233 1.348 . S
C230 H262 0.929 . S
C231 C232 1.358 . S
C231 C233 1.356 . S
C231 H263 0.930 . S
C232 N229 1.279 . S
C232 C231 1.358 . S
C232 H235 0.930 . S
C233 C230 1.348 . S
C233 C231 1.356 . S
H234 C228 0.930 . S
H235 C232 0.930 . S
O236 Li176 1.956 . S
O236 Li177 1.970 . S
O236 Li178 1.961 . S
O236 C180 1.325 . S
O237 Li176 1.970 . S
O237 Li177 1.956 . S
O237 Li179 1.961 . S
O237 C186 1.325 . S
O238 Li176 1.961 . S
O238 Li178 1.956 . S
O238 Li179 1.970 . S
O238 C208 1.325 . S
O239 Li177 1.961 . S
O239 Li178 1.970 . S
O239 Li179 1.956 . S
O239 C214 1.325 . S
H240 C182 0.929 . S
H241 C183 0.930 . S
H242 C184 0.930 . S
H243 C185 0.994 . S
H244 C187 0.930 . S
H245 C189 0.929 . S
H246 C190 0.930 . S
H247 C191 0.930 . S
H248 C194 0.930 . S
H249 C197 0.929 . S
H250 C202 0.929 . S
H251 C203 0.930 . S
H252 C210 0.929 . S
H253 C211 0.930 . S
H254 C212 0.930 . S
H255 C213 0.930 . S
H256 C215 0.929 . S
H257 C216 0.930 . S
H258 C217 0.930 . S
H259 C218 0.930 . S
H260 C222 0.929 . S
H261 C224 0.930 . S
H262 C230 0.929 . S
H263 C231 0.930 . S
Li264 N281 1.990 . S
Li264 O324 1.956 . S
Li264 O325 1.970 . S
Li264 O326 1.961 . S
Li265 N289 1.990 . S
Li265 O324 1.970 . S
Li265 O325 1.956 . S
Li265 O327 1.961 . S
Li266 N311 1.990 . S
Li266 O324 1.961 . S
Li266 O326 1.956 . S
Li266 O327 1.970 . S
Li267 N317 1.990 . S
Li267 O325 1.961 . S
Li267 O326 1.970 . S
Li267 O327 1.956 . S
C268 C270 1.348 . S
C268 C271 1.356 . S
C268 O324 1.325 . S
N269 C272 1.314 . S
N269 C273 1.279 . S
C270 C268 1.348 . S
C270 C272 1.353 . S
C270 H328 0.929 . S
C271 C268 1.356 . S
C271 C273 1.358 . S
C271 H329 0.930 . S
C272 N269 1.314 . S
C272 C270 1.353 . S
C272 H330 0.930 . S
C273 N269 1.279 . S
C273 C271 1.358 . S
C273 H331 0.930 . S
C274 C277 1.348 . S
C274 C278 1.356 . S
C274 O325 1.325 . S
C275 N276 1.279 . S
C275 C278 1.358 . S
C275 H332 0.930 . S
N276 C275 1.279 . S
N276 C279 1.314 . S
C277 C274 1.348 . S
C277 C279 1.353 . S
C277 H333 0.929 . S
C278 C274 1.356 . S
C278 C275 1.358 . S
C278 H334 0.930 . S
C279 N276 1.314 . S
C279 C277 1.353 . S
C279 H335 0.930 . S
C280 N281 1.314 . S
C280 C285 1.353 . S
C280 H286 0.930 . S
N281 Li264 1.990 . S
N281 C280 1.314 . S
N281 C283 1.279 . S
C282 C283 1.358 . S
C282 C284 1.356 . S
C282 H336 0.930 . S
C283 N281 1.279 . S
C283 C282 1.358 . S
C283 H287 0.930 . S
C284 C282 1.356 . S
C284 C285 1.348 . S
C285 C280 1.353 . S
C285 C284 1.348 . S
C285 H337 0.929 . S
H286 C280 0.930 . S
H287 C283 0.930 . S
C288 N289 1.314 . S
C288 C290 1.353 . S
C288 H294 0.930 . S
N289 Li265 1.990 . S
N289 C288 1.314 . S
N289 C292 1.279 . S
C290 C288 1.353 . S
C290 C293 1.348 . S
C290 H338 0.929 . S
C291 C292 1.358 . S
C291 C293 1.356 . S
C291 H339 0.930 . S
C292 N289 1.279 . S
C292 C291 1.358 . S
C292 H295 0.930 . S
C293 C290 1.348 . S
C293 C291 1.356 . S
H294 C288 0.930 . S
H295 C292 0.930 . S
C296 C298 1.348 . S
C296 C299 1.356 . S
C296 O326 1.325 . S
N297 C300 1.314 . S
N297 C301 1.279 . S
C298 C296 1.348 . S
C298 C300 1.353 . S
C298 H340 0.929 . S
C299 C296 1.356 . S
C299 C301 1.358 . S
C299 H341 0.930 . S
C300 N297 1.314 . S
C300 C298 1.353 . S
C300 H342 0.930 . S
C301 N297 1.279 . S
C301 C299 1.358 . S
C301 H343 0.930 . S
C302 C303 1.348 . S
C302 C304 1.356 . S
C302 O327 1.325 . S
C303 C302 1.348 . S
C303 C305 1.353 . S
C303 H344 0.929 . S
C304 C302 1.356 . S
C304 C306 1.358 . S
C304 H345 0.930 . S
C305 C303 1.353 . S
C305 N307 1.314 . S
C305 H346 0.930 . S
C306 C304 1.358 . S
C306 N307 1.279 . S
C306 H347 0.930 . S
N307 C305 1.314 . S
N307 C306 1.279 . S
C308 C310 1.353 . S
C308 N311 1.314 . S
C308 H314 0.930 . S
C309 N311 1.279 . S
C309 C312 1.358 . S
C309 H315 0.930 . S
C310 C308 1.353 . S
C310 C313 1.348 . S
C310 H348 0.929 . S
N311 Li266 1.990 . S
N311 C308 1.314 . S
N311 C309 1.279 . S
C312 C309 1.358 . S
C312 C313 1.356 . S
C312 H349 0.930 . S
C313 C310 1.348 . S
C313 C312 1.356 . S
H314 C308 0.930 . S
H315 C309 0.930 . S
C316 N317 1.314 . S
C316 C318 1.353 . S
C316 H322 0.930 . S
N317 Li267 1.990 . S
N317 C316 1.314 . S
N317 C320 1.279 . S
C318 C316 1.353 . S
C318 C321 1.348 . S
C318 H350 0.929 . S
C319 C320 1.358 . S
C319 C321 1.356 . S
C319 H351 0.930 . S
C320 N317 1.279 . S
C320 C319 1.358 . S
C320 H323 0.930 . S
C321 C318 1.348 . S
C321 C319 1.356 . S
H322 C316 0.930 . S
H323 C320 0.930 . S
O324 Li264 1.956 . S
O324 Li265 1.970 . S
O324 Li266 1.961 . S
O324 C268 1.325 . S
O325 Li264 1.970 . S
O325 Li265 1.956 . S
O325 Li267 1.961 . S
O325 C274 1.325 . S
O326 Li264 1.961 . S
O326 Li266 1.956 . S
O326 Li267 1.970 . S
O326 C296 1.325 . S
O327 Li265 1.961 . S
O327 Li266 1.970 . S
O327 Li267 1.956 . S
O327 C302 1.325 . S
H328 C270 0.929 . S
H329 C271 0.930 . S
H330 C272 0.930 . S
H331 C273 0.930 . S
H332 C275 0.930 . S
H333 C277 0.929 . S
H334 C278 0.930 . S
H335 C279 0.930 . S
H336 C282 0.930 . S
H337 C285 0.929 . S
H338 C290 0.929 . S
H339 C291 0.930 . S
H340 C298 0.929 . S
H341 C299 0.930 . S
H342 C300 0.930 . S
H343 C301 0.930 . S
H344 C303 0.929 . S
H345 C304 0.930 . S
H346 C305 0.930 . S
H347 C306 0.930 . S
H348 C310 0.929 . S
H349 C312 0.930 . S
H350 C318 0.929 . S
H351 C319 0.930 . S
Li352 N369 1.992 . S
Li352 O412 1.968 1_556 S
Li352 O413 1.942 1_556 S
Li352 O414 1.985 . S
Li353 N377 1.990 . S
Li353 O412 2.025 . S
Li353 O413 1.956 . S
Li353 O415 1.961 . S
Li354 N399 1.990 . S
Li354 O412 1.915 1_556 S
Li354 O414 1.956 . S
Li354 O415 1.970 1_556 S
Li355 N405 1.990 . S
Li355 O413 1.961 . S
Li355 O414 1.970 1_554 S
Li355 O415 1.956 . S
C356 C358 1.350 1_556 S
C356 C359 1.354 . S
C356 O412 1.318 1_556 S
N357 C360 1.314 1_556 S
N357 C361 1.279 . S
C358 C356 1.350 1_554 S
C358 C360 1.353 . S
C358 H416 0.929 . S
C359 C356 1.354 . S
C359 C361 1.358 . S
C359 H417 0.930 . S
C360 N357 1.314 1_554 S
C360 C358 1.353 . S
C360 H418 0.930 . S
C361 N357 1.279 . S
C361 C359 1.358 . S
C361 H419 0.930 . S
C362 C365 1.348 . S
C362 C366 1.356 . S
C362 O413 1.325 . S
C363 N364 1.279 . S
C363 C366 1.358 . S
C363 H420 0.930 . S
N364 C363 1.279 . S
N364 C367 1.314 . S
C365 C362 1.348 . S
C365 C367 1.353 . S
C365 H421 0.929 . S
C366 C362 1.356 . S
C366 C363 1.358 . S
C366 H422 0.930 . S
C367 N364 1.314 . S
C367 C365 1.353 . S
C367 H423 0.930 . S
C368 N369 1.314 . S
C368 C373 1.353 . S
C368 H374 0.930 . S
N369 Li352 1.992 . S
N369 C368 1.314 . S
N369 C371 1.279 . S
C370 C371 1.358 . S
C370 C372 1.356 . S
C370 H424 0.930 . S
C371 N369 1.279 . S
C371 C370 1.358 . S
C371 H375 0.930 1_556 S
C372 C370 1.356 . S
C372 C373 1.348 . S
C373 C368 1.353 . S
C373 C372 1.348 . S
C373 H425 0.929 . S
H374 C368 0.930 . S
H375 C371 0.930 1_554 S
C376 N377 1.314 . S
C376 C378 1.353 . S
C376 H382 0.930 . S
N377 Li353 1.990 . S
N377 C376 1.314 . S
N377 C380 1.279 . S
C378 C376 1.353 . S
C378 C381 1.348 . S
C378 H426 0.929 . S
C379 C380 1.358 . S
C379 C381 1.356 . S
C379 H427 0.930 . S
C380 N377 1.279 . S
C380 C379 1.358 . S
C380 H383 0.930 . S
C381 C378 1.348 . S
C381 C379 1.356 . S
H382 C376 0.930 . S
H383 C380 0.930 . S
C384 C386 1.348 . S
C384 C387 1.356 . S
C384 O414 1.325 . S
N385 C388 1.314 . S
N385 C389 1.279 . S
C386 C384 1.348 . S
C386 C388 1.353 . S
C386 H428 0.929 . S
C387 C384 1.356 . S
C387 C389 1.358 . S
C387 H429 0.930 . S
C388 N385 1.314 . S
C388 C386 1.353 . S
C388 H430 0.930 . S
C389 N385 1.279 . S
C389 C387 1.358 . S
C389 H431 0.930 . S
C390 C391 1.348 1_554 S
C390 C392 1.356 . S
C390 O415 1.325 . S
C391 C390 1.348 1_556 S
C391 C393 1.353 . S
C391 H432 0.929 . S
C392 C390 1.356 . S
C392 C394 1.358 . S
C392 H433 0.930 . S
C393 C391 1.353 . S
C393 N395 1.314 1_556 S
C393 H434 0.930 . S
C394 C392 1.358 . S
C394 N395 1.279 . S
C394 H435 0.930 . S
N395 C393 1.314 1_554 S
N395 C394 1.279 . S
C396 C398 1.353 . S
C396 N399 1.314 . S
C396 H402 0.930 . S
C397 N399 1.279 . S
C397 C400 1.358 . S
C397 H403 0.930 . S
C398 C396 1.353 . S
C398 C401 1.348 . S
C398 H436 0.929 . S
N399 Li354 1.990 . S
N399 C396 1.314 . S
N399 C397 1.279 . S
C400 C397 1.358 . S
C400 C401 1.356 . S
C400 H437 0.930 . S
C401 C398 1.348 . S
C401 C400 1.356 . S
H402 C396 0.930 . S
H403 C397 0.930 . S
C404 N405 1.314 . S
C404 C406 1.353 . S
C404 H410 0.930 . S
N405 Li355 1.990 . S
N405 C404 1.314 . S
N405 C408 1.279 . S
C406 C404 1.353 . S
C406 C409 1.348 . S
C406 H438 0.929 . S
C407 C408 1.358 . S
C407 C409 1.356 . S
C407 H439 0.930 . S
C408 N405 1.279 . S
C408 C407 1.358 . S
C408 H411 0.930 . S
C409 C406 1.348 . S
C409 C407 1.356 . S
H410 C404 0.930 . S
H411 C408 0.930 . S
O412 Li352 1.968 1_554 S
O412 Li353 2.025 . S
O412 Li354 1.915 1_554 S
O412 C356 1.318 1_554 S
O413 Li352 1.942 1_554 S
O413 Li353 1.956 . S
O413 Li355 1.961 . S
O413 C362 1.325 . S
O414 Li352 1.985 . S
O414 Li354 1.956 . S
O414 Li355 1.970 1_556 S
O414 C384 1.325 . S
O415 Li353 1.961 . S
O415 Li354 1.970 1_554 S
O415 Li355 1.956 . S
O415 C390 1.325 . S
H416 C358 0.929 . S
H417 C359 0.930 . S
H418 C360 0.930 . S
H419 C361 0.930 . S
H420 C363 0.930 . S
H421 C365 0.929 . S
H422 C366 0.930 . S
H423 C367 0.930 . S
H424 C370 0.930 . S
H425 C373 0.929 . S
H426 C378 0.929 . S
H427 C379 0.930 . S
H428 C386 0.929 . S
H429 C387 0.930 . S
H430 C388 0.930 . S
H431 C389 0.930 . S
H432 C391 0.929 . S
H433 C392 0.930 . S
H434 C393 0.930 . S
H435 C394 0.930 . S
H436 C398 0.929 . S
H437 C400 0.930 . S
H438 C406 0.929 . S
H439 C407 0.930 . S
Li440 N457 1.990 . S
Li440 O500 1.956 . S
Li440 O501 1.970 . S
Li440 O502 1.961 . S
Li441 N465 1.990 . S
Li441 O500 1.970 . S
Li441 O501 1.956 . S
Li441 O503 1.961 . S
Li442 N487 1.990 . S
Li442 O500 1.961 . S
Li442 O502 1.956 . S
Li442 O503 1.970 . S
Li443 N493 1.963 1_545 S
Li443 O501 1.978 . S
Li443 O502 1.999 . S
Li443 O503 1.955 . S
C444 C446 1.348 . S
C444 C447 1.356 . S
C444 O500 1.325 . S
N445 C448 1.314 . S
N445 C449 1.279 . S
C446 C444 1.348 . S
C446 C448 1.353 . S
C446 H504 0.929 . S
C447 C444 1.356 . S
C447 C449 1.358 . S
C447 H505 0.930 . S
C448 N445 1.314 . S
C448 C446 1.353 . S
C448 H506 0.930 . S
C449 N445 1.279 . S
C449 C447 1.358 . S
C449 H507 0.930 . S
C450 C453 1.348 . S
C450 C454 1.356 1_545 S
C450 O501 1.325 . S
C451 N452 1.279 1_565 S
C451 C454 1.358 . S
C451 H508 0.930 . S
N452 C451 1.279 1_545 S
N452 C455 1.314 . S
C453 C450 1.348 . S
C453 C455 1.353 . S
C453 H509 0.929 . S
C454 C450 1.356 1_565 S
C454 C451 1.358 . S
C454 H510 0.930 . S
C455 N452 1.314 . S
C455 C453 1.353 . S
C455 H511 0.930 . S
C456 N457 1.314 . S
C456 C461 1.353 . S
C456 H462 0.930 . S
N457 Li440 1.990 . S
N457 C456 1.314 . S
N457 C459 1.279 . S
C458 C459 1.358 . S
C458 C460 1.356 . S
C458 H512 0.930 . S
C459 N457 1.279 . S
C459 C458 1.358 . S
C459 H463 0.930 . S
C460 C458 1.356 . S
C460 C461 1.348 . S
C461 C456 1.353 . S
C461 C460 1.348 . S
C461 H513 0.929 . S
H462 C456 0.930 . S
H463 C459 0.930 . S
C464 N465 1.314 . S
C464 C466 1.353 . S
C464 H470 0.930 . S
N465 Li441 1.990 . S
N465 C464 1.314 . S
N465 C468 1.279 . S
C466 C464 1.353 . S
C466 C469 1.348 . S
C466 H514 0.929 . S
C467 C468 1.358 . S
C467 C469 1.356 . S
C467 H515 0.930 . S
C468 N465 1.279 . S
C468 C467 1.358 . S
C468 H471 0.930 . S
C469 C466 1.348 . S
C469 C467 1.356 . S
H470 C464 0.930 . S
H471 C468 0.930 . S
C472 C474 1.348 . S
C472 C475 1.356 . S
C472 O502 1.325 . S
N473 C476 1.314 . S
N473 C477 1.279 . S
C474 C472 1.348 . S
C474 C476 1.353 . S
C474 H516 0.929 1_545 S
C475 C472 1.356 . S
C475 C477 1.358 . S
C475 H517 0.930 . S
C476 N473 1.314 . S
C476 C474 1.353 . S
C476 H518 0.892 1_545 S
C477 N473 1.279 . S
C477 C475 1.358 . S
C477 H519 0.930 . S
C478 C479 1.348 . S
C478 C480 1.356 . S
C478 O503 1.325 1_565 S
C479 C478 1.348 . S
C479 C481 1.353 . S
C479 H520 0.929 . S
C480 C478 1.356 . S
C480 C482 1.358 . S
C480 H521 0.930 . S
C481 C479 1.353 . S
C481 N483 1.314 . S
C481 H522 0.930 . S
C482 C480 1.358 . S
C482 N483 1.279 . S
C482 H523 0.930 . S
N483 C481 1.314 . S
N483 C482 1.279 . S
C484 C486 1.353 . S
C484 N487 1.314 . S
C484 H490 0.930 . S
C485 N487 1.279 . S
C485 C488 1.358 . S
C485 H491 0.930 . S
C486 C484 1.353 . S
C486 C489 1.348 . S
C486 H524 0.929 . S
N487 Li442 1.990 . S
N487 C484 1.314 . S
N487 C485 1.279 . S
C488 C485 1.358 . S
C488 C489 1.356 . S
C488 H525 0.930 . S
C489 C486 1.348 . S
C489 C488 1.356 . S
H490 C484 0.930 . S
H491 C485 0.930 . S
C492 N493 1.314 . S
C492 C494 1.353 . S
C492 H498 0.930 . S
N493 Li443 1.963 1_565 S
N493 C492 1.314 . S
N493 C496 1.279 . S
C494 C492 1.353 . S
C494 C497 1.348 . S
C494 H526 0.929 . S
C495 C496 1.358 . S
C495 C497 1.356 . S
C495 H527 0.930 . S
C496 N493 1.279 . S
C496 C495 1.358 . S
C496 H499 0.930 . S
C497 C494 1.348 . S
C497 C495 1.356 . S
H498 C492 0.930 . S
H499 C496 0.930 . S
O500 Li440 1.956 . S
O500 Li441 1.970 . S
O500 Li442 1.961 . S
O500 C444 1.325 . S
O501 Li440 1.970 . S
O501 Li441 1.956 . S
O501 Li443 1.978 . S
O501 C450 1.325 . S
O502 Li440 1.961 . S
O502 Li442 1.956 . S
O502 Li443 1.999 . S
O502 C472 1.325 . S
O503 Li441 1.961 . S
O503 Li442 1.970 . S
O503 Li443 1.955 . S
O503 C478 1.325 1_545 S
H504 C446 0.929 . S
H505 C447 0.930 . S
H506 C448 0.930 . S
H507 C449 0.930 . S
H508 C451 0.930 . S
H509 C453 0.929 . S
H510 C454 0.930 . S
H511 C455 0.930 . S
H512 C458 0.930 . S
H513 C461 0.929 . S
H514 C466 0.929 . S
H515 C467 0.930 . S
H516 C474 0.929 1_565 S
H517 C475 0.930 . S
H518 C476 0.892 1_565 S
H519 C477 0.930 . S
H520 C479 0.929 . S
H521 C480 0.930 . S
H522 C481 0.930 . S
H523 C482 0.930 . S
H524 C486 0.929 . S
H525 C488 0.930 . S
H526 C494 0.929 . S
H527 C495 0.930 . S
Li528 N545 1.990 . S
Li528 O588 1.956 . S
Li528 O589 1.970 . S
Li528 O590 1.961 . S
Li529 N553 1.990 . S
Li529 O588 1.970 . S
Li529 O589 1.956 . S
Li529 O591 1.961 . S
Li530 N575 1.990 . S
Li530 O588 1.961 . S
Li530 O590 1.956 . S
Li530 O591 1.970 . S
Li531 N581 1.990 . S
Li531 O589 1.961 . S
Li531 O590 1.970 . S
Li531 O591 1.956 . S
C532 C534 1.348 . S
C532 C535 1.356 . S
C532 O588 1.325 . S
N533 C536 1.314 . S
N533 C537 1.279 . S
C534 C532 1.348 . S
C534 C536 1.353 . S
C534 H592 0.929 . S
C535 C532 1.356 . S
C535 C537 1.358 . S
C535 H593 0.930 . S
C536 N533 1.314 . S
C536 C534 1.353 . S
C536 H594 0.930 . S
C537 N533 1.279 . S
C537 C535 1.358 . S
C537 H595 0.930 . S
C538 C541 1.348 . S
C538 C542 1.356 . S
C538 O589 1.325 . S
C539 N540 1.279 . S
C539 C542 1.358 . S
C539 H596 0.930 . S
N540 C539 1.279 . S
N540 C543 1.314 . S
C541 C538 1.348 . S
C541 C543 1.353 . S
C541 H597 0.929 . S
C542 C538 1.356 . S
C542 C539 1.358 . S
C542 H598 0.930 . S
C543 N540 1.314 . S
C543 C541 1.353 . S
C543 H599 0.930 . S
C544 N545 1.314 . S
C544 C549 1.353 . S
C544 H550 0.930 . S
N545 Li528 1.990 . S
N545 C544 1.314 . S
N545 C547 1.279 . S
C546 C547 1.358 . S
C546 C548 1.356 . S
C546 H600 0.930 . S
C547 N545 1.279 . S
C547 C546 1.358 . S
C547 H551 0.930 . S
C548 C546 1.356 . S
C548 C549 1.348 . S
C549 C544 1.353 . S
C549 C548 1.348 . S
C549 H601 0.929 . S
H550 C544 0.930 . S
H551 C547 0.930 . S
C552 N553 1.314 . S
C552 C554 1.353 . S
C552 H558 0.930 . S
N553 Li529 1.990 . S
N553 C552 1.314 . S
N553 C556 1.279 . S
C554 C552 1.353 . S
C554 C557 1.348 . S
C554 H602 0.929 . S
C555 C556 1.358 . S
C555 C557 1.356 . S
C555 H603 0.930 . S
C556 N553 1.279 . S
C556 C555 1.358 . S
C556 H559 0.930 . S
C557 C554 1.348 . S
C557 C555 1.356 . S
H558 C552 0.930 . S
H559 C556 0.930 . S
C560 C562 1.348 . S
C560 C563 1.356 . S
C560 O590 1.325 . S
N561 C564 1.314 . S
N561 C565 1.279 . S
C562 C560 1.348 . S
C562 C564 1.353 . S
C562 H604 0.929 . S
C563 C560 1.356 . S
C563 C565 1.358 . S
C563 H605 0.930 . S
C564 N561 1.314 . S
C564 C562 1.353 . S
C564 H606 0.930 . S
C565 N561 1.279 . S
C565 C563 1.358 . S
C565 H607 0.930 . S
C566 C567 1.348 . S
C566 C568 1.356 . S
C566 O591 1.325 . S
C567 C566 1.348 . S
C567 C569 1.353 . S
C567 H608 0.929 . S
C568 C566 1.356 . S
C568 C570 1.358 . S
C568 H609 0.930 . S
C569 C567 1.353 . S
C569 N571 1.314 . S
C569 H610 0.930 . S
C570 C568 1.358 . S
C570 N571 1.279 . S
C570 H611 0.930 . S
N571 C569 1.314 . S
N571 C570 1.279 . S
C572 C574 1.353 . S
C572 N575 1.314 . S
C572 H578 0.930 . S
C573 N575 1.279 . S
C573 C576 1.358 . S
C573 H579 0.930 . S
C574 C572 1.353 . S
C574 C577 1.348 . S
C574 H612 0.929 . S
N575 Li530 1.990 . S
N575 C572 1.314 . S
N575 C573 1.279 . S
C576 C573 1.358 . S
C576 C577 1.356 . S
C576 H613 0.930 . S
C577 C574 1.348 . S
C577 C576 1.356 . S
H578 C572 0.930 . S
H579 C573 0.930 . S
C580 N581 1.314 . S
C580 C582 1.353 . S
C580 H586 0.930 . S
N581 Li531 1.990 . S
N581 C580 1.314 . S
N581 C584 1.279 . S
C582 C580 1.353 . S
C582 C585 1.348 . S
C582 H614 0.929 . S
C583 C584 1.358 . S
C583 C585 1.356 . S
C583 H615 0.930 . S
C584 N581 1.279 . S
C584 C583 1.358 . S
C584 H587 0.930 . S
C585 C582 1.348 . S
C585 C583 1.356 . S
H586 C580 0.930 . S
H587 C584 0.930 . S
O588 Li528 1.956 . S
O588 Li529 1.970 . S
O588 Li530 1.961 . S
O588 C532 1.325 . S
O589 Li528 1.970 . S
O589 Li529 1.956 . S
O589 Li531 1.961 . S
O589 C538 1.325 . S
O590 Li528 1.961 . S
O590 Li530 1.956 . S
O590 Li531 1.970 . S
O590 C560 1.325 . S
O591 Li529 1.961 . S
O591 Li530 1.970 . S
O591 Li531 1.956 . S
O591 C566 1.325 . S
H592 C534 0.929 . S
H593 C535 0.930 . S
H594 C536 0.930 . S
H595 C537 0.930 . S
H596 C539 0.930 . S
H597 C541 0.929 . S
H598 C542 0.930 . S
H599 C543 0.930 . S
H600 C546 0.930 . S
H601 C549 0.929 . S
H602 C554 0.929 . S
H603 C555 0.930 . S
H604 C562 0.929 . S
H605 C563 0.930 . S
H606 C564 0.930 . S
H607 C565 0.930 . S
H608 C567 0.929 . S
H609 C568 0.930 . S
H610 C569 0.930 . S
H611 C570 0.930 . S
H612 C574 0.929 . S
H613 C576 0.930 . S
H614 C582 0.929 . S
H615 C583 0.930 . S
Li616 N633 1.990 . S
Li616 O676 1.956 . S
Li616 O677 1.970 . S
Li616 O678 1.961 . S
Li617 N641 1.990 . S
Li617 O676 1.970 . S
Li617 O677 1.956 . S
Li617 O679 1.961 . S
Li618 N663 1.990 . S
Li618 O676 1.961 . S
Li618 O678 1.956 . S
Li618 O679 1.970 . S
Li619 N669 1.990 . S
Li619 O677 1.961 . S
Li619 O678 1.970 . S
Li619 O679 1.956 . S
C620 C622 1.348 . S
C620 C623 1.356 . S
C620 O676 1.325 . S
N621 C624 1.314 . S
N621 C625 1.279 . S
C622 C620 1.348 . S
C622 C624 1.353 . S
C622 H680 0.929 . S
C623 C620 1.356 . S
C623 C625 1.358 . S
C623 H681 0.930 . S
C624 N621 1.314 . S
C624 C622 1.353 . S
C624 H682 0.930 . S
C625 N621 1.279 . S
C625 C623 1.358 . S
C625 H683 0.930 . S
C626 C629 1.348 . S
C626 C630 1.356 . S
C626 O677 1.325 . S
C627 N628 1.279 . S
C627 C630 1.358 . S
C627 H684 0.930 . S
N628 C627 1.279 . S
N628 C631 1.314 . S
C629 C626 1.348 . S
C629 C631 1.353 . S
C629 H685 0.929 . S
C630 C626 1.356 . S
C630 C627 1.358 . S
C630 H686 0.930 . S
C631 N628 1.314 . S
C631 C629 1.353 . S
C631 H687 0.930 . S
C632 N633 1.314 . S
C632 C637 1.353 . S
C632 H638 0.930 . S
N633 Li616 1.990 . S
N633 C632 1.314 . S
N633 C635 1.279 . S
C634 C635 1.358 . S
C634 C636 1.356 . S
C634 H688 0.930 . S
C635 N633 1.279 . S
C635 C634 1.358 . S
C635 H639 0.930 . S
C636 C634 1.356 . S
C636 C637 1.348 . S
C637 C632 1.353 . S
C637 C636 1.348 . S
C637 H689 0.929 . S
H638 C632 0.930 . S
H639 C635 0.930 . S
C640 N641 1.314 . S
C640 C642 1.353 . S
C640 H646 0.930 . S
N641 Li617 1.990 . S
N641 C640 1.314 . S
N641 C644 1.279 . S
C642 C640 1.353 . S
C642 C645 1.348 . S
C642 H690 0.929 . S
C643 C644 1.358 . S
C643 C645 1.356 . S
C643 H691 0.930 . S
C644 N641 1.279 . S
C644 C643 1.358 . S
C644 H647 0.930 . S
C645 C642 1.348 . S
C645 C643 1.356 . S
H646 C640 0.930 . S
H647 C644 0.930 . S
C648 C650 1.348 . S
C648 C651 1.356 . S
C648 O678 1.325 . S
N649 C652 1.314 . S
N649 C653 1.279 . S
C650 C648 1.348 . S
C650 C652 1.353 . S
C650 H692 0.929 . S
C651 C648 1.356 . S
C651 C653 1.358 . S
C651 H693 0.930 . S
C652 N649 1.314 . S
C652 C650 1.353 . S
C652 H694 0.930 . S
C653 N649 1.279 . S
C653 C651 1.358 . S
C653 H695 0.930 . S
C654 C655 1.348 . S
C654 C656 1.356 . S
C654 O679 1.325 . S
C655 C654 1.348 . S
C655 C657 1.353 . S
C655 H696 0.929 . S
C656 C654 1.356 . S
C656 C658 1.358 . S
C656 H697 0.930 . S
C657 C655 1.353 . S
C657 N659 1.314 . S
C657 H698 0.930 . S
C658 C656 1.358 . S
C658 N659 1.279 . S
C658 H699 0.930 . S
N659 C657 1.314 . S
N659 C658 1.279 . S
C660 C662 1.353 . S
C660 N663 1.314 . S
C660 H666 0.930 . S
C661 N663 1.279 . S
C661 C664 1.358 . S
C661 H667 0.930 . S
C662 C660 1.353 . S
C662 C665 1.348 . S
C662 H700 0.929 . S
N663 Li618 1.990 . S
N663 C660 1.314 . S
N663 C661 1.279 . S
C664 C661 1.358 . S
C664 C665 1.356 . S
C664 H701 0.930 . S
C665 C662 1.348 . S
C665 C664 1.356 . S
H666 C660 0.930 . S
H667 C661 0.930 . S
C668 N669 1.314 . S
C668 C670 1.353 . S
C668 H674 0.930 . S
N669 Li619 1.990 . S
N669 C668 1.314 . S
N669 C672 1.279 . S
C670 C668 1.353 . S
C670 C673 1.348 . S
C670 H702 0.929 . S
C671 C672 1.358 . S
C671 C673 1.356 . S
C671 H703 0.930 . S
C672 N669 1.279 . S
C672 C671 1.358 . S
C672 H675 0.930 . S
C673 C670 1.348 . S
C673 C671 1.356 . S
H674 C668 0.930 . S
H675 C672 0.930 . S
O676 Li616 1.956 . S
O676 Li617 1.970 . S
O676 Li618 1.961 . S
O676 C620 1.325 . S
O677 Li616 1.970 . S
O677 Li617 1.956 . S
O677 Li619 1.961 . S
O677 C626 1.325 . S
O678 Li616 1.961 . S
O678 Li618 1.956 . S
O678 Li619 1.970 . S
O678 C648 1.325 . S
O679 Li617 1.961 . S
O679 Li618 1.970 . S
O679 Li619 1.956 . S
O679 C654 1.325 . S
H680 C622 0.929 . S
H681 C623 0.930 . S
H682 C624 0.930 . S
H683 C625 0.930 . S
H684 C627 0.930 . S
H685 C629 0.929 . S
H686 C630 0.930 . S
H687 C631 0.930 . S
H688 C634 0.930 . S
H689 C637 0.929 . S
H690 C642 0.929 . S
H691 C643 0.930 . S
H692 C650 0.929 . S
H693 C651 0.930 . S
H694 C652 0.930 . S
H695 C653 0.930 . S
H696 C655 0.929 . S
H697 C656 0.930 . S
H698 C657 0.930 . S
H699 C658 0.930 . S
H700 C662 0.929 . S
H701 C664 0.930 . S
H702 C670 0.929 . S
H703 C671 0.930 . S
Li704 N721 1.990 . S
Li704 O764 1.956 . S
Li704 O765 1.970 . S
Li704 O766 1.961 . S
Li705 N729 1.990 . S
Li705 O764 1.970 . S
Li705 O765 1.956 . S
Li705 O767 1.961 . S
Li706 N751 1.990 . S
Li706 O764 1.961 . S
Li706 O766 1.956 . S
Li706 O767 1.970 . S
Li707 N757 1.990 . S
Li707 O765 1.961 . S
Li707 O766 1.970 . S
Li707 O767 1.956 . S
C708 C710 1.348 . S
C708 C711 1.356 . S
C708 O764 1.325 . S
N709 C712 1.314 . S
N709 C713 1.279 . S
C710 C708 1.348 . S
C710 C712 1.353 . S
C710 H768 0.929 . S
C711 C708 1.356 . S
C711 C713 1.358 . S
C711 H769 0.930 . S
C712 N709 1.314 . S
C712 C710 1.353 . S
C712 H770 0.930 . S
C713 N709 1.279 . S
C713 C711 1.358 . S
C713 H771 0.930 . S
C714 C717 1.348 . S
C714 C718 1.356 . S
C714 O765 1.325 . S
C715 N716 1.279 . S
C715 C718 1.358 . S
C715 H772 0.930 . S
N716 C715 1.279 . S
N716 C719 1.314 . S
C717 C714 1.348 . S
C717 C719 1.353 . S
C717 H773 0.929 . S
C718 C714 1.356 . S
C718 C715 1.358 . S
C718 H774 0.930 . S
C719 N716 1.314 . S
C719 C717 1.353 . S
C719 H775 0.930 . S
C720 N721 1.314 . S
C720 C725 1.353 . S
C720 H726 0.930 . S
N721 Li704 1.990 . S
N721 C720 1.314 . S
N721 C723 1.279 . S
C722 C723 1.358 . S
C722 C724 1.356 . S
C722 H776 0.930 . S
C723 N721 1.279 . S
C723 C722 1.358 . S
C723 H727 0.930 . S
C724 C722 1.356 . S
C724 C725 1.348 . S
C725 C720 1.353 . S
C725 C724 1.348 . S
C725 H777 0.929 . S
H726 C720 0.930 . S
H727 C723 0.930 . S
C728 N729 1.314 . S
C728 C730 1.353 . S
C728 H734 0.930 . S
N729 Li705 1.990 . S
N729 C728 1.314 . S
N729 C732 1.279 . S
C730 C728 1.353 . S
C730 C733 1.348 . S
C730 H778 0.929 . S
C731 C732 1.358 . S
C731 C733 1.356 . S
C731 H779 0.930 . S
C732 N729 1.279 . S
C732 C731 1.358 . S
C732 H735 0.930 . S
C733 C730 1.348 . S
C733 C731 1.356 . S
H734 C728 0.930 . S
H735 C732 0.930 . S
C736 C738 1.348 . S
C736 C739 1.356 . S
C736 O766 1.325 . S
N737 C740 1.314 . S
N737 C741 1.279 . S
C738 C736 1.348 . S
C738 C740 1.353 . S
C738 H780 0.929 . S
C739 C736 1.356 . S
C739 C741 1.358 . S
C739 H781 0.930 . S
C740 N737 1.314 . S
C740 C738 1.353 . S
C740 H782 0.930 . S
C741 N737 1.279 . S
C741 C739 1.358 . S
C741 H783 0.930 . S
C742 C743 1.348 . S
C742 C744 1.356 . S
C742 O767 1.325 . S
C743 C742 1.348 . S
C743 C745 1.353 . S
C743 H784 0.929 . S
C744 C742 1.356 . S
C744 C746 1.358 . S
C744 H785 0.930 . S
C745 C743 1.353 . S
C745 N747 1.314 . S
C745 H786 0.930 . S
C746 C744 1.358 . S
C746 N747 1.279 . S
C746 H787 0.930 . S
N747 C745 1.314 . S
N747 C746 1.279 . S
C748 C750 1.353 . S
C748 N751 1.314 . S
C748 H754 0.930 . S
C749 N751 1.279 . S
C749 C752 1.358 . S
C749 H755 0.930 . S
C750 C748 1.353 . S
C750 C753 1.348 . S
C750 H788 0.929 . S
N751 Li706 1.990 . S
N751 C748 1.314 . S
N751 C749 1.279 . S
C752 C749 1.358 . S
C752 C753 1.356 . S
C752 H789 0.930 . S
C753 C750 1.348 . S
C753 C752 1.356 . S
H754 C748 0.930 . S
H755 C749 0.930 . S
C756 N757 1.314 . S
C756 C758 1.353 . S
C756 H762 0.930 . S
N757 Li707 1.990 . S
N757 C756 1.314 . S
N757 C760 1.279 . S
C758 C756 1.353 . S
C758 C761 1.348 . S
C758 H790 0.929 . S
C759 C760 1.358 . S
C759 C761 1.356 . S
C759 H791 0.930 . S
C760 N757 1.279 . S
C760 C759 1.358 . S
C760 H763 0.930 . S
C761 C758 1.348 . S
C761 C759 1.356 . S
H762 C756 0.930 . S
H763 C760 0.930 . S
O764 Li704 1.956 . S
O764 Li705 1.970 . S
O764 Li706 1.961 . S
O764 C708 1.325 . S
O765 Li704 1.970 . S
O765 Li705 1.956 . S
O765 Li707 1.961 . S
O765 C714 1.325 . S
O766 Li704 1.961 . S
O766 Li706 1.956 . S
O766 Li707 1.970 . S
O766 C736 1.325 . S
O767 Li705 1.961 . S
O767 Li706 1.970 . S
O767 Li707 1.956 . S
O767 C742 1.325 . S
H768 C710 0.929 . S
H769 C711 0.930 . S
H770 C712 0.930 . S
H771 C713 0.930 . S
H772 C715 0.930 . S
H773 C717 0.929 . S
H774 C718 0.930 . S
H775 C719 0.930 . S
H776 C722 0.930 . S
H777 C725 0.929 . S
H778 C730 0.929 . S
H779 C731 0.930 . S
H780 C738 0.929 . S
H781 C739 0.930 . S
H782 C740 0.930 . S
H783 C741 0.930 . S
H784 C743 0.929 . S
H785 C744 0.930 . S
H786 C745 0.930 . S
H787 C746 0.930 . S
H788 C750 0.929 . S
H789 C752 0.930 . S
H790 C758 0.929 . S
H791 C759 0.930 . S
Li792 N809 1.990 . S
Li792 O852 1.956 . S
Li792 O853 1.970 1_565 S
Li792 O854 1.961 . S
Li793 N817 1.990 . S
Li793 O852 1.970 1_545 S
Li793 O853 1.956 . S
Li793 O855 1.961 . S
Li794 N839 1.990 . S
Li794 O852 1.961 . S
Li794 O854 1.956 . S
Li794 O855 1.970 1_565 S
Li795 N845 1.990 . S
Li795 O853 1.961 . S
Li795 O854 1.970 1_545 S
Li795 O855 1.956 . S
C796 C798 1.348 . S
C796 C799 1.356 . S
C796 O852 1.325 . S
N797 C800 1.314 . S
N797 C801 1.279 . S
C798 C796 1.348 . S
C798 C800 1.353 . S
C798 H856 0.929 . S
C799 C796 1.356 . S
C799 C801 1.358 . S
C799 H857 0.930 . S
C800 N797 1.314 . S
C800 C798 1.353 . S
C800 H858 0.930 . S
C801 N797 1.279 . S
C801 C799 1.358 . S
C801 H859 0.930 . S
C802 C805 1.348 1_545 S
C802 C806 1.356 . S
C802 O853 1.325 . S
C803 N804 1.279 . S
C803 C806 1.358 . S
C803 H860 0.930 . S
N804 C803 1.279 . S
N804 C807 1.314 1_545 S
C805 C802 1.348 1_565 S
C805 C807 1.353 . S
C805 H861 0.929 . S
C806 C802 1.356 . S
C806 C803 1.358 . S
C806 H862 0.930 . S
C807 N804 1.314 1_565 S
C807 C805 1.353 . S
C807 H863 0.930 . S
C808 N809 1.314 . S
C808 C813 1.353 . S
C808 H814 0.930 . S
N809 Li792 1.990 . S
N809 C808 1.314 . S
N809 C811 1.279 . S
C810 C811 1.358 . S
C810 C812 1.356 . S
C810 H864 0.930 . S
C811 N809 1.279 . S
C811 C810 1.358 . S
C811 H815 0.930 . S
C812 C810 1.356 . S
C812 C813 1.348 . S
C813 C808 1.353 . S
C813 C812 1.348 . S
C813 H865 0.929 . S
H814 C808 0.930 . S
H815 C811 0.930 . S
C816 N817 1.314 . S
C816 C818 1.353 . S
C816 H822 0.930 . S
N817 Li793 1.990 . S
N817 C816 1.314 . S
N817 C820 1.279 . S
C818 C816 1.353 . S
C818 C821 1.348 . S
C818 H866 0.929 . S
C819 C820 1.358 . S
C819 C821 1.356 . S
C819 H867 0.930 . S
C820 N817 1.279 . S
C820 C819 1.358 . S
C820 H823 0.930 . S
C821 C818 1.348 . S
C821 C819 1.356 . S
H822 C816 0.930 . S
H823 C820 0.930 . S
C824 C826 1.348 1_565 S
C824 C827 1.356 . S
C824 O854 1.325 . S
N825 C828 1.314 1_565 S
N825 C829 1.279 . S
C826 C824 1.348 1_545 S
C826 C828 1.353 . S
C826 H868 0.929 . S
C827 C824 1.356 . S
C827 C829 1.358 . S
C827 H869 0.930 . S
C828 N825 1.314 1_545 S
C828 C826 1.353 . S
C828 H870 0.930 . S
C829 N825 1.279 . S
C829 C827 1.358 . S
C829 H871 0.930 . S
C830 C831 1.348 . S
C830 C832 1.356 . S
C830 O855 1.325 . S
C831 C830 1.348 . S
C831 C833 1.353 . S
C831 H872 0.929 . S
C832 C830 1.356 . S
C832 C834 1.358 . S
C832 H873 0.930 . S
C833 C831 1.353 . S
C833 N835 1.314 . S
C833 H874 0.930 . S
C834 C832 1.358 . S
C834 N835 1.279 . S
C834 H875 0.930 . S
N835 C833 1.314 . S
N835 C834 1.279 . S
C836 C838 1.353 . S
C836 N839 1.314 . S
C836 H842 0.930 . S
C837 N839 1.279 . S
C837 C840 1.358 . S
C837 H843 0.930 . S
C838 C836 1.353 . S
C838 C841 1.348 . S
C838 H876 0.929 . S
N839 Li794 1.990 . S
N839 C836 1.314 . S
N839 C837 1.279 . S
C840 C837 1.358 . S
C840 C841 1.356 . S
C840 H877 0.930 . S
C841 C838 1.348 . S
C841 C840 1.356 . S
H842 C836 0.930 . S
H843 C837 0.930 . S
C844 N845 1.314 . S
C844 C846 1.353 . S
C844 H850 0.930 . S
N845 Li795 1.990 . S
N845 C844 1.314 . S
N845 C848 1.279 . S
C846 C844 1.353 . S
C846 C849 1.348 . S
C846 H878 0.929 . S
C847 C848 1.358 . S
C847 C849 1.356 . S
C847 H879 0.930 . S
C848 N845 1.279 . S
C848 C847 1.358 . S
C848 H851 0.930 . S
C849 C846 1.348 . S
C849 C847 1.356 . S
H850 C844 0.930 . S
H851 C848 0.930 . S
O852 Li792 1.956 . S
O852 Li793 1.970 1_565 S
O852 Li794 1.961 . S
O852 C796 1.325 . S
O853 Li792 1.970 1_545 S
O853 Li793 1.956 . S
O853 Li795 1.961 . S
O853 C802 1.325 . S
O854 Li792 1.961 . S
O854 Li794 1.956 . S
O854 Li795 1.970 1_565 S
O854 C824 1.325 . S
O855 Li793 1.961 . S
O855 Li794 1.970 1_545 S
O855 Li795 1.956 . S
O855 C830 1.325 . S
H856 C798 0.929 . S
H857 C799 0.930 . S
H858 C800 0.930 . S
H859 C801 0.930 . S
H860 C803 0.930 . S
H861 C805 0.929 . S
H862 C806 0.930 . S
H863 C807 0.930 . S
H864 C810 0.930 . S
H865 C813 0.929 . S
H866 C818 0.929 . S
H867 C819 0.930 . S
H868 C826 0.929 . S
H869 C827 0.930 . S
H870 C828 0.930 . S
H871 C829 0.930 . S
H872 C831 0.929 . S
H873 C832 0.930 . S
H874 C833 0.930 . S
H875 C834 0.930 . S
H876 C838 0.929 . S
H877 C840 0.930 . S
H878 C846 0.929 . S
H879 C847 0.930 . S
Li880 N897 1.990 . S
Li880 O940 1.956 . S
Li880 O941 1.970 . S
Li880 O942 1.961 . S
Li881 N905 1.990 . S
Li881 O940 1.970 . S
Li881 O941 1.956 . S
Li881 O943 1.961 1_455 S
Li882 N927 1.990 . S
Li882 O940 1.961 . S
Li882 O942 1.956 . S
Li882 O943 1.970 1_455 S
Li883 N933 1.990 . S
Li883 O941 1.961 1_655 S
Li883 O942 1.970 1_655 S
Li883 O943 1.956 . S
C884 C886 1.348 . S
C884 C887 1.356 . S
C884 O940 1.325 . S
N885 C888 1.314 . S
N885 C889 1.279 . S
C886 C884 1.348 . S
C886 C888 1.353 . S
C886 H944 0.929 . S
C887 C884 1.356 . S
C887 C889 1.358 . S
C887 H945 0.930 . S
C888 N885 1.314 . S
C888 C886 1.353 . S
C888 H946 0.930 . S
C889 N885 1.279 . S
C889 C887 1.358 . S
C889 H947 0.930 . S
C890 C893 1.348 . S
C890 C894 1.356 1_455 S
C890 O941 1.325 . S
C891 N892 1.279 1_655 S
C891 C894 1.358 . S
C891 H948 0.930 . S
N892 C891 1.279 1_455 S
N892 C895 1.314 . S
C893 C890 1.348 . S
C893 C895 1.353 . S
C893 H949 0.929 . S
C894 C890 1.356 1_655 S
C894 C891 1.358 . S
C894 H950 0.930 . S
C895 N892 1.314 . S
C895 C893 1.353 . S
C895 H951 0.930 . S
C896 N897 1.314 . S
C896 C901 1.353 . S
C896 H902 0.930 . S
N897 Li880 1.990 . S
N897 C896 1.314 . S
N897 C899 1.279 . S
C898 C899 1.358 . S
C898 C900 1.356 . S
C898 H952 0.930 . S
C899 N897 1.279 . S
C899 C898 1.358 . S
C899 H903 0.930 . S
C900 C898 1.356 . S
C900 C901 1.348 . S
C901 C896 1.353 . S
C901 C900 1.348 . S
C901 H953 0.929 . S
H902 C896 0.930 . S
H903 C899 0.930 . S
C904 N905 1.314 . S
C904 C906 1.353 . S
C904 H910 0.930 . S
N905 Li881 1.990 . S
N905 C904 1.314 . S
N905 C908 1.279 . S
C906 C904 1.353 . S
C906 C909 1.348 . S
C906 H954 0.938 . S
C907 C908 1.358 . S
C907 C909 1.356 . S
C907 H955 0.930 . S
C908 N905 1.279 . S
C908 C907 1.358 . S
C908 H911 0.930 . S
C909 C906 1.348 . S
C909 C907 1.356 . S
H910 C904 0.930 . S
H911 C908 0.930 . S
C912 C914 1.348 . S
C912 C915 1.356 . S
C912 O942 1.325 . S
N913 C916 1.314 . S
N913 C917 1.279 . S
C914 C912 1.348 . S
C914 C916 1.353 . S
C914 H956 0.929 1_455 S
C915 C912 1.356 . S
C915 C917 1.358 . S
C915 H957 0.930 . S
C916 N913 1.314 . S
C916 C914 1.353 . S
C916 H958 0.930 1_455 S
C917 N913 1.279 . S
C917 C915 1.358 . S
C917 H959 0.930 . S
C918 C919 1.348 . S
C918 C920 1.356 . S
C918 O943 1.325 . S
C919 C918 1.348 . S
C919 C921 1.353 . S
C919 H960 0.929 . S
C920 C918 1.356 . S
C920 C922 1.358 . S
C920 H961 0.930 . S
C921 C919 1.353 . S
C921 N923 1.314 . S
C921 H962 0.930 . S
C922 C920 1.358 . S
C922 N923 1.279 . S
C922 H963 0.930 . S
N923 C921 1.314 . S
N923 C922 1.279 . S
C924 C926 1.353 . S
C924 N927 1.314 . S
C924 H930 0.930 . S
C925 N927 1.279 . S
C925 C928 1.358 . S
C925 H931 0.930 . S
C926 C924 1.353 . S
C926 C929 1.348 . S
C926 H964 0.929 . S
N927 Li882 1.990 . S
N927 C924 1.314 . S
N927 C925 1.279 . S
C928 C925 1.358 . S
C928 C929 1.356 . S
C928 H965 0.930 . S
C929 C926 1.348 . S
C929 C928 1.356 . S
H930 C924 0.930 . S
H931 C925 0.930 . S
C932 N933 1.314 . S
C932 C934 1.353 . S
C932 H938 0.930 . S
N933 Li883 1.990 . S
N933 C932 1.314 . S
N933 C936 1.279 . S
C934 C932 1.353 . S
C934 C937 1.348 . S
C934 H966 0.929 . S
C935 C936 1.358 . S
C935 C937 1.356 . S
C935 H967 0.930 . S
C936 N933 1.279 . S
C936 C935 1.358 . S
C936 H939 0.930 . S
C937 C934 1.348 . S
C937 C935 1.356 . S
H938 C932 0.930 . S
H939 C936 0.930 . S
O940 Li880 1.956 . S
O940 Li881 1.970 . S
O940 Li882 1.961 . S
O940 C884 1.325 . S
O941 Li880 1.970 . S
O941 Li881 1.956 . S
O941 Li883 1.961 1_455 S
O941 C890 1.325 . S
O942 Li880 1.961 . S
O942 Li882 1.956 . S
O942 Li883 1.970 1_455 S
O942 C912 1.325 . S
O943 Li881 1.961 1_655 S
O943 Li882 1.970 1_655 S
O943 Li883 1.956 . S
O943 C918 1.325 . S
H944 C886 0.929 . S
H945 C887 0.930 . S
H946 C888 0.930 . S
H947 C889 0.930 . S
H948 C891 0.930 . S
H949 C893 0.929 . S
H950 C894 0.930 . S
H951 C895 0.930 . S
H952 C898 0.930 . S
H953 C901 0.929 . S
H954 C906 0.938 . S
H955 C907 0.930 . S
H956 C914 0.929 1_655 S
H957 C915 0.930 . S
H958 C916 0.930 1_655 S
H959 C917 0.930 . S
H960 C919 0.929 . S
H961 C920 0.930 . S
H962 C921 0.930 . S
H963 C922 0.930 . S
H964 C926 0.929 . S
H965 C928 0.930 . S
H966 C934 0.929 . S
H967 C935 0.930 . S
Li968 N985 1.990 . S
Li968 O1028 1.956 . S
Li968 O1029 1.970 . S
Li968 O1030 1.961 . S
Li969 N993 1.990 . S
Li969 O1028 1.970 . S
Li969 O1029 1.956 . S
Li969 O1031 1.961 . S
Li970 N1015 1.990 . S
Li970 O1028 1.961 . S
Li970 O1030 1.956 . S
Li970 O1031 1.970 . S
Li971 N1021 1.990 . S
Li971 O1029 1.961 . S
Li971 O1030 1.970 . S
Li971 O1031 1.956 . S
C972 C974 1.348 . S
C972 C975 1.356 . S
C972 O1028 1.325 . S
N973 C976 1.314 . S
N973 C977 1.279 . S
C974 C972 1.348 . S
C974 C976 1.353 . S
C974 H1032 0.929 . S
C975 C972 1.356 . S
C975 C977 1.358 . S
C975 H1033 0.930 . S
C976 N973 1.314 . S
C976 C974 1.353 . S
C976 H1034 0.930 . S
C977 N973 1.279 . S
C977 C975 1.358 . S
C977 H1035 0.930 . S
C978 C981 1.348 . S
C978 C982 1.356 . S
C978 O1029 1.325 . S
C979 N980 1.279 . S
C979 C982 1.358 . S
C979 H1036 0.930 . S
N980 C979 1.279 . S
N980 C983 1.314 . S
C981 C978 1.348 . S
C981 C983 1.353 . S
C981 H1037 0.929 . S
C982 C978 1.356 . S
C982 C979 1.358 . S
C982 H1038 0.930 . S
C983 N980 1.314 . S
C983 C981 1.353 . S
C983 H1039 0.930 . S
C984 N985 1.314 . S
C984 C989 1.353 . S
C984 H990 0.930 . S
N985 Li968 1.990 . S
N985 C984 1.314 . S
N985 C987 1.279 . S
C986 C987 1.358 . S
C986 C988 1.356 . S
C986 H1040 0.930 . S
C987 N985 1.279 . S
C987 C986 1.358 . S
C987 H991 0.930 . S
C988 C986 1.356 . S
C988 C989 1.348 . S
C989 C984 1.353 . S
C989 C988 1.348 . S
C989 H1041 0.929 . S
H990 C984 0.930 . S
H991 C987 0.930 . S
C992 N993 1.314 . S
C992 C994 1.353 . S
C992 H998 0.930 . S
N993 Li969 1.990 . S
N993 C992 1.314 . S
N993 C996 1.279 . S
C994 C992 1.353 . S
C994 C997 1.348 . S
C994 H1042 0.929 . S
C995 C996 1.358 . S
C995 C997 1.356 . S
C995 H1043 0.930 . S
C996 N993 1.279 . S
C996 C995 1.358 . S
C996 H999 0.930 . S
C997 C994 1.348 . S
C997 C995 1.356 . S
H998 C992 0.930 . S
H999 C996 0.930 . S
C1000 C1002 1.348 . S
C1000 C1003 1.356 . S
C1000 O1030 1.325 . S
N1001 C1004 1.314 . S
N1001 C1005 1.279 . S
C1002 C1000 1.348 . S
C1002 C1004 1.353 . S
C1002 H1044 0.929 . S
C1003 C1000 1.356 . S
C1003 C1005 1.358 . S
C1003 H1045 0.930 . S
C1004 N1001 1.314 . S
C1004 C1002 1.353 . S
C1004 H1046 0.930 . S
C1005 N1001 1.279 . S
C1005 C1003 1.358 . S
C1005 H1047 0.930 . S
C1006 C1007 1.348 . S
C1006 C1008 1.356 . S
C1006 O1031 1.325 . S
C1007 C1006 1.348 . S
C1007 C1009 1.353 . S
C1007 H1048 0.929 . S
C1008 C1006 1.356 . S
C1008 C1010 1.358 . S
C1008 H1049 0.930 . S
C1009 C1007 1.353 . S
C1009 N1011 1.314 . S
C1009 H1050 0.930 . S
C1010 C1008 1.358 . S
C1010 N1011 1.279 . S
C1010 H1051 0.930 . S
N1011 C1009 1.314 . S
N1011 C1010 1.279 . S
C1012 C1014 1.353 . S
C1012 N1015 1.314 . S
C1012 H1018 0.930 . S
C1013 N1015 1.279 . S
C1013 C1016 1.358 . S
C1013 H1019 0.930 . S
C1014 C1012 1.353 . S
C1014 C1017 1.348 . S
C1014 H1052 0.929 . S
N1015 Li970 1.990 . S
N1015 C1012 1.314 . S
N1015 C1013 1.279 . S
C1016 C1013 1.358 . S
C1016 C1017 1.356 . S
C1016 H1053 0.930 . S
C1017 C1014 1.348 . S
C1017 C1016 1.356 . S
H1018 C1012 0.930 . S
H1019 C1013 0.930 . S
C1020 N1021 1.314 . S
C1020 C1022 1.353 . S
C1020 H1026 0.930 . S
N1021 Li971 1.990 . S
N1021 C1020 1.314 . S
N1021 C1024 1.279 . S
C1022 C1020 1.353 . S
C1022 C1025 1.348 . S
C1022 H1054 0.929 . S
C1023 C1024 1.358 . S
C1023 C1025 1.356 . S
C1023 H1055 0.930 . S
C1024 N1021 1.279 . S
C1024 C1023 1.358 . S
C1024 H1027 0.930 . S
C1025 C1022 1.348 . S
C1025 C1023 1.356 . S
H1026 C1020 0.930 . S
H1027 C1024 0.930 . S
O1028 Li968 1.956 . S
O1028 Li969 1.970 . S
O1028 Li970 1.961 . S
O1028 C972 1.325 . S
O1029 Li968 1.970 . S
O1029 Li969 1.956 . S
O1029 Li971 1.961 . S
O1029 C978 1.325 . S
O1030 Li968 1.961 . S
O1030 Li970 1.956 . S
O1030 Li971 1.970 . S
O1030 C1000 1.325 . S
O1031 Li969 1.961 . S
O1031 Li970 1.970 . S
O1031 Li971 1.956 . S
O1031 C1006 1.325 . S
H1032 C974 0.929 . S
H1033 C975 0.930 . S
H1034 C976 0.930 . S
H1035 C977 0.930 . S
H1036 C979 0.930 . S
H1037 C981 0.929 . S
H1038 C982 0.930 . S
H1039 C983 0.930 . S
H1040 C986 0.930 . S
H1041 C989 0.929 . S
H1042 C994 0.929 . S
H1043 C995 0.930 . S
H1044 C1002 0.929 . S
H1045 C1003 0.930 . S
H1046 C1004 0.930 . S
H1047 C1005 0.930 . S
H1048 C1007 0.929 . S
H1049 C1008 0.930 . S
H1050 C1009 0.930 . S
H1051 C1010 0.930 . S
H1052 C1014 0.929 . S
H1053 C1016 0.930 . S
H1054 C1022 0.929 . S
H1055 C1023 0.930 . S
Li1056 N1073 1.990 . S
Li1056 O1116 1.956 . S
Li1056 O1117 1.970 1_455 S
Li1056 O1118 1.961 . S
Li1057 N1081 1.990 . S
Li1057 O1116 1.970 1_655 S
Li1057 O1117 1.956 . S
Li1057 O1119 1.986 . S
Li1058 N1103 1.990 . S
Li1058 O1116 1.961 . S
Li1058 O1118 1.956 . S
Li1058 O1119 1.940 1_455 S
Li1059 N1109 1.987 1_455 S
Li1059 O1117 1.936 1_455 S
Li1059 O1118 2.003 . S
Li1059 O1119 1.953 1_455 S
C1060 C1062 1.348 1_455 S
C1060 C1063 1.356 . S
C1060 O1116 1.325 . S
N1061 C1064 1.314 1_455 S
N1061 C1065 1.279 . S
C1062 C1060 1.348 1_655 S
C1062 C1064 1.353 . S
C1062 H1120 0.929 . S
C1063 C1060 1.356 . S
C1063 C1065 1.358 . S
C1063 H1121 0.930 . S
C1064 N1061 1.314 1_655 S
C1064 C1062 1.353 . S
C1064 H1122 0.930 . S
C1065 N1061 1.279 . S
C1065 C1063 1.358 . S
C1065 H1123 0.930 . S
C1066 C1069 1.348 . S
C1066 C1070 1.356 . S
C1066 O1117 1.325 . S
C1067 N1068 1.279 . S
C1067 C1070 1.358 . S
C1067 H1124 0.930 . S
N1068 C1067 1.279 . S
N1068 C1071 1.314 . S
C1069 C1066 1.348 . S
C1069 C1071 1.353 . S
C1069 H1125 0.929 . S
C1070 C1066 1.356 . S
C1070 C1067 1.358 . S
C1070 H1126 0.930 . S
C1071 N1068 1.314 . S
C1071 C1069 1.353 . S
C1071 H1127 0.930 . S
C1072 N1073 1.314 . S
C1072 C1077 1.353 . S
C1072 H1078 0.930 . S
N1073 Li1056 1.990 . S
N1073 C1072 1.314 . S
N1073 C1075 1.279 . S
C1074 C1075 1.358 . S
C1074 C1076 1.356 . S
C1074 H1128 0.930 . S
C1075 N1073 1.279 . S
C1075 C1074 1.358 . S
C1075 H1079 0.930 . S
C1076 C1074 1.356 . S
C1076 C1077 1.348 . S
C1077 C1072 1.353 . S
C1077 C1076 1.348 . S
C1077 H1129 0.929 . S
H1078 C1072 0.930 . S
H1079 C1075 0.930 . S
C1080 N1081 1.314 . S
C1080 C1082 1.353 . S
C1080 H1086 0.930 . S
N1081 Li1057 1.990 . S
N1081 C1080 1.314 . S
N1081 C1084 1.279 . S
C1082 C1080 1.353 . S
C1082 C1085 1.348 . S
C1082 H1130 0.929 . S
C1083 C1084 1.358 . S
C1083 C1085 1.356 . S
C1083 H1131 0.930 . S
C1084 N1081 1.279 . S
C1084 C1083 1.358 . S
C1084 H1087 0.930 . S
C1085 C1082 1.348 . S
C1085 C1083 1.356 . S
H1086 C1080 0.930 . S
H1087 C1084 0.930 . S
C1088 C1090 1.348 . S
C1088 C1091 1.356 . S
C1088 O1118 1.325 . S
N1089 C1092 1.314 . S
N1089 C1093 1.279 . S
C1090 C1088 1.348 . S
C1090 C1092 1.353 . S
C1090 H1132 0.929 . S
C1091 C1088 1.356 . S
C1091 C1093 1.358 . S
C1091 H1133 0.930 . S
C1092 N1089 1.314 . S
C1092 C1090 1.353 . S
C1092 H1134 0.930 . S
C1093 N1089 1.279 . S
C1093 C1091 1.358 . S
C1093 H1135 0.930 . S
C1094 C1095 1.348 1_655 S
C1094 C1096 1.356 . S
C1094 O1119 1.331 . S
C1095 C1094 1.348 1_455 S
C1095 C1097 1.353 . S
C1095 H1136 0.929 . S
C1096 C1094 1.356 . S
C1096 C1098 1.358 . S
C1096 H1137 0.930 . S
C1097 C1095 1.353 . S
C1097 N1099 1.314 1_455 S
C1097 H1138 0.930 . S
C1098 C1096 1.358 . S
C1098 N1099 1.279 . S
C1098 H1139 0.930 . S
N1099 C1097 1.314 1_655 S
N1099 C1098 1.279 . S
C1100 C1102 1.353 . S
C1100 N1103 1.314 . S
C1100 H1106 0.930 . S
C1101 N1103 1.279 . S
C1101 C1104 1.358 . S
C1101 H1107 0.930 . S
C1102 C1100 1.353 . S
C1102 C1105 1.348 . S
C1102 H1140 0.929 . S
N1103 Li1058 1.990 . S
N1103 C1100 1.314 . S
N1103 C1101 1.279 . S
C1104 C1101 1.358 . S
C1104 C1105 1.356 . S
C1104 H1141 0.930 . S
C1105 C1102 1.348 . S
C1105 C1104 1.356 . S
H1106 C1100 0.930 . S
H1107 C1101 0.930 . S
C1108 N1109 1.314 . S
C1108 C1110 1.353 . S
C1108 H1114 0.930 . S
N1109 Li1059 1.987 1_655 S
N1109 C1108 1.314 . S
N1109 C1112 1.279 . S
C1110 C1108 1.353 . S
C1110 C1113 1.348 . S
C1110 H1142 0.929 . S
C1111 C1112 1.358 . S
C1111 C1113 1.356 . S
C1111 H1143 0.930 . S
C1112 N1109 1.279 . S
C1112 C1111 1.358 . S
C1112 H1115 0.930 . S
C1113 C1110 1.348 . S
C1113 C1111 1.356 . S
H1114 C1108 0.930 . S
H1115 C1112 0.930 . S
O1116 Li1056 1.956 . S
O1116 Li1057 1.970 1_455 S
O1116 Li1058 1.961 . S
O1116 C1060 1.325 . S
O1117 Li1056 1.970 1_655 S
O1117 Li1057 1.956 . S
O1117 Li1059 1.936 1_655 S
O1117 C1066 1.325 . S
O1118 Li1056 1.961 . S
O1118 Li1058 1.956 . S
O1118 Li1059 2.003 . S
O1118 C1088 1.325 . S
O1119 Li1057 1.986 . S
O1119 Li1058 1.940 1_655 S
O1119 Li1059 1.953 1_655 S
O1119 C1094 1.331 . S
H1120 C1062 0.929 . S
H1121 C1063 0.930 . S
H1122 C1064 0.930 . S
H1123 C1065 0.930 . S
H1124 C1067 0.930 . S
H1125 C1069 0.929 . S
H1126 C1070 0.930 . S
H1127 C1071 0.930 . S
H1128 C1074 0.930 . S
H1129 C1077 0.929 . S
H1130 C1082 0.929 . S
H1131 C1083 0.930 . S
H1132 C1090 0.929 . S
H1133 C1091 0.930 . S
H1134 C1092 0.930 . S
H1135 C1093 0.930 . S
H1136 C1095 0.929 . S
H1137 C1096 0.930 . S
H1138 C1097 0.930 . S
H1139 C1098 0.930 . S
H1140 C1102 0.929 . S
H1141 C1104 0.930 . S
H1142 C1110 0.929 . S
H1143 C1111 0.930 . S
Li1144 N1161 1.990 . S
Li1144 O1204 1.956 . S
Li1144 O1205 1.970 . S
Li1144 O1206 1.961 . S
Li1145 N1169 1.990 . S
Li1145 O1204 1.970 . S
Li1145 O1205 1.956 . S
Li1145 O1207 1.961 . S
Li1146 N1191 1.990 . S
Li1146 O1204 1.961 . S
Li1146 O1206 1.956 . S
Li1146 O1207 1.970 . S
Li1147 N1197 1.990 . S
Li1147 O1205 1.961 . S
Li1147 O1206 1.970 . S
Li1147 O1207 1.956 . S
C1148 C1150 1.348 . S
C1148 C1151 1.356 . S
C1148 O1204 1.325 . S
N1149 C1152 1.314 . S
N1149 C1153 1.279 . S
C1150 C1148 1.348 . S
C1150 C1152 1.353 . S
C1150 H1208 0.929 . S
C1151 C1148 1.356 . S
C1151 C1153 1.358 . S
C1151 H1209 0.930 . S
C1152 N1149 1.314 . S
C1152 C1150 1.353 . S
C1152 H1210 0.930 . S
C1153 N1149 1.279 . S
C1153 C1151 1.358 . S
C1153 H1211 0.930 . S
C1154 C1157 1.348 . S
C1154 C1158 1.356 . S
C1154 O1205 1.325 . S
C1155 N1156 1.279 . S
C1155 C1158 1.358 . S
C1155 H1212 0.930 . S
N1156 C1155 1.279 . S
N1156 C1159 1.314 . S
C1157 C1154 1.348 . S
C1157 C1159 1.353 . S
C1157 H1213 0.929 . S
C1158 C1154 1.356 . S
C1158 C1155 1.358 . S
C1158 H1214 0.930 . S
C1159 N1156 1.314 . S
C1159 C1157 1.353 . S
C1159 H1215 0.930 . S
C1160 N1161 1.314 . S
C1160 C1165 1.353 . S
C1160 H1166 0.930 . S
N1161 Li1144 1.990 . S
N1161 C1160 1.314 . S
N1161 C1163 1.279 . S
C1162 C1163 1.358 . S
C1162 C1164 1.356 . S
C1162 H1216 0.930 . S
C1163 N1161 1.279 . S
C1163 C1162 1.358 . S
C1163 H1167 0.930 . S
C1164 C1162 1.356 . S
C1164 C1165 1.348 . S
C1165 C1160 1.353 . S
C1165 C1164 1.348 . S
C1165 H1217 0.929 . S
H1166 C1160 0.930 . S
H1167 C1163 0.930 . S
C1168 N1169 1.314 . S
C1168 C1170 1.353 . S
C1168 H1174 0.930 . S
N1169 Li1145 1.990 . S
N1169 C1168 1.314 . S
N1169 C1172 1.279 . S
C1170 C1168 1.353 . S
C1170 C1173 1.348 . S
C1170 H1218 0.929 . S
C1171 C1172 1.358 . S
C1171 C1173 1.356 . S
C1171 H1219 0.930 . S
C1172 N1169 1.279 . S
C1172 C1171 1.358 . S
C1172 H1175 0.930 . S
C1173 C1170 1.348 . S
C1173 C1171 1.356 . S
H1174 C1168 0.930 . S
H1175 C1172 0.930 . S
C1176 C1178 1.348 . S
C1176 C1179 1.356 . S
C1176 O1206 1.325 . S
N1177 C1180 1.314 . S
N1177 C1181 1.279 . S
C1178 C1176 1.348 . S
C1178 C1180 1.353 . S
C1178 H1220 0.929 . S
C1179 C1176 1.356 . S
C1179 C1181 1.358 . S
C1179 H1221 0.930 . S
C1180 N1177 1.314 . S
C1180 C1178 1.353 . S
C1180 H1222 0.930 . S
C1181 N1177 1.279 . S
C1181 C1179 1.358 . S
C1181 H1223 0.930 . S
C1182 C1183 1.348 . S
C1182 C1184 1.356 . S
C1182 O1207 1.325 . S
C1183 C1182 1.348 . S
C1183 C1185 1.353 . S
C1183 H1224 0.929 . S
C1184 C1182 1.356 . S
C1184 C1186 1.358 . S
C1184 H1225 0.930 . S
C1185 C1183 1.353 . S
C1185 N1187 1.314 . S
C1185 H1226 0.930 . S
C1186 C1184 1.358 . S
C1186 N1187 1.279 . S
C1186 H1227 0.930 . S
N1187 C1185 1.314 . S
N1187 C1186 1.279 . S
C1188 C1190 1.353 . S
C1188 N1191 1.314 . S
C1188 H1194 0.930 . S
C1189 N1191 1.279 . S
C1189 C1192 1.358 . S
C1189 H1195 0.930 . S
C1190 C1188 1.353 . S
C1190 C1193 1.348 . S
C1190 H1228 0.929 . S
N1191 Li1146 1.990 . S
N1191 C1188 1.314 . S
N1191 C1189 1.279 . S
C1192 C1189 1.358 . S
C1192 C1193 1.356 . S
C1192 H1229 0.930 . S
C1193 C1190 1.348 . S
C1193 C1192 1.356 . S
H1194 C1188 0.930 . S
H1195 C1189 0.930 . S
C1196 N1197 1.314 . S
C1196 C1198 1.353 . S
C1196 H1202 0.930 . S
N1197 Li1147 1.990 . S
N1197 C1196 1.314 . S
N1197 C1200 1.279 . S
C1198 C1196 1.353 . S
C1198 C1201 1.348 . S
C1198 H1230 0.929 . S
C1199 C1200 1.358 . S
C1199 C1201 1.356 . S
C1199 H1231 0.930 . S
C1200 N1197 1.279 . S
C1200 C1199 1.358 . S
C1200 H1203 0.930 . S
C1201 C1198 1.348 . S
C1201 C1199 1.356 . S
H1202 C1196 0.930 . S
H1203 C1200 0.930 . S
O1204 Li1144 1.956 . S
O1204 Li1145 1.970 . S
O1204 Li1146 1.961 . S
O1204 C1148 1.325 . S
O1205 Li1144 1.970 . S
O1205 Li1145 1.956 . S
O1205 Li1147 1.961 . S
O1205 C1154 1.325 . S
O1206 Li1144 1.961 . S
O1206 Li1146 1.956 . S
O1206 Li1147 1.970 . S
O1206 C1176 1.325 . S
O1207 Li1145 1.961 . S
O1207 Li1146 1.970 . S
O1207 Li1147 1.956 . S
O1207 C1182 1.325 . S
H1208 C1150 0.929 . S
H1209 C1151 0.930 . S
H1210 C1152 0.930 . S
H1211 C1153 0.930 . S
H1212 C1155 0.930 . S
H1213 C1157 0.929 . S
H1214 C1158 0.930 . S
H1215 C1159 0.930 . S
H1216 C1162 0.930 . S
H1217 C1165 0.929 . S
H1218 C1170 0.929 . S
H1219 C1171 0.930 . S
H1220 C1178 0.929 . S
H1221 C1179 0.930 . S
H1222 C1180 0.930 . S
H1223 C1181 0.930 . S
H1224 C1183 0.929 . S
H1225 C1184 0.930 . S
H1226 C1185 0.930 . S
H1227 C1186 0.930 . S
H1228 C1190 0.929 . S
H1229 C1192 0.930 . S
H1230 C1198 0.929 . S
H1231 C1199 0.930 . S
H1232 C1250 0.951 . S
H1233 C1252 0.951 . S
H1234 C1254 0.950 . S
H1235 C1255 0.950 . S
H1236 C1257 0.950 . S
H1237 C1260 0.950 . S
H1238 C1261 0.950 . S
H1239 C1263 0.950 . S
H1240 C1264 0.950 . S
H1241 C1265 0.951 . S
H1242 C1267 0.951 . S
H1243 C1269 0.950 . S
H1244 C1270 0.950 . S
H1245 C1272 0.950 . S
H1246 C1275 0.950 . S
H1247 C1276 0.950 . S
H1248 C1278 0.950 . S
H1249 C1279 0.950 . S
C1250 H1232 0.951 . S
C1250 C1251 1.366 . S
C1250 C1252 1.388 . S
C1251 C1250 1.366 . S
C1251 C1255 1.385 . S
C1252 H1233 0.951 . S
C1252 C1250 1.388 . S
C1252 C1253 1.366 . S
C1253 C1252 1.366 . S
C1253 C1254 1.414 . S
C1253 C1256 1.499 . S
C1254 H1234 0.950 . S
C1254 C1253 1.414 . S
C1254 C1255 1.374 . S
C1255 H1235 0.950 . S
C1255 C1251 1.385 . S
C1255 C1254 1.374 . S
C1256 C1253 1.499 . S
C1256 C1257 1.373 . S
C1256 C1258 1.389 . S
C1257 H1236 0.950 . S
C1257 C1256 1.373 . S
C1257 C1273 1.377 . S
C1258 C1256 1.389 . S
C1258 C1259 1.524 . S
C1258 C1272 1.377 . S
C1259 C1258 1.524 . S
C1259 C1260 1.397 . S
C1259 C1264 1.363 . S
C1260 H1237 0.950 . S
C1260 C1259 1.397 . S
C1260 C1261 1.334 . S
C1261 H1238 0.950 . S
C1261 C1260 1.334 . S
C1261 C1262 1.287 . S
C1262 C1261 1.287 . S
C1262 C1263 1.524 . S
C1262 H1281 0.913 . S
C1263 H1239 0.950 . S
C1263 C1262 1.524 . S
C1263 C1264 1.415 . S
C1264 H1240 0.950 . S
C1264 C1259 1.363 . S
C1264 C1263 1.415 . S
C1265 H1241 0.951 . S
C1265 C1266 1.366 . S
C1265 C1267 1.388 . S
C1266 C1265 1.366 . S
C1266 C1270 1.385 . S
C1267 H1242 0.951 . S
C1267 C1265 1.388 . S
C1267 C1268 1.366 . S
C1268 C1267 1.366 . S
C1268 C1269 1.414 . S
C1268 C1271 1.499 . S
C1269 H1243 0.950 . S
C1269 C1268 1.414 . S
C1269 C1270 1.374 . S
C1270 H1244 0.950 . S
C1270 C1266 1.385 . S
C1270 C1269 1.374 . S
C1271 C1268 1.499 . S
C1271 C1272 1.373 . S
C1271 C1273 1.389 . S
C1272 H1245 0.950 . S
C1272 C1258 1.377 . S
C1272 C1271 1.373 . S
C1273 C1257 1.377 . S
C1273 C1271 1.389 . S
C1273 C1274 1.524 . S
C1274 C1273 1.524 . S
C1274 C1275 1.397 . S
C1274 C1279 1.363 . S
C1275 H1246 0.950 . S
C1275 C1274 1.397 . S
C1275 C1276 1.334 . S
C1276 H1247 0.950 . S
C1276 C1275 1.334 . S
C1276 C1277 1.287 . S
C1277 C1276 1.287 . S
C1277 C1278 1.524 . S
C1277 H1280 0.999 . S
C1278 H1248 0.950 . S
C1278 C1277 1.524 . S
C1278 C1279 1.415 . S
C1279 H1249 0.950 . S
C1279 C1274 1.363 . S
C1279 C1278 1.415 . S
H1280 C1277 0.999 . S
H1281 C1262 0.913 . S
H1282 C1300 0.991 . S
H1283 C1302 0.951 . S
H1284 C1304 0.950 . S
H1285 C1305 0.950 . S
H1286 C1307 0.950 . S
H1287 C1310 0.950 . S
H1288 C1311 0.950 . S
H1289 C1313 0.950 . S
H1290 C1314 0.950 . S
H1291 C1315 0.951 . S
H1292 C1317 0.951 . S
H1293 C1319 0.950 . S
H1294 C1320 0.950 . S
H1295 C1322 0.950 . S
H1296 C1325 0.950 . S
H1297 C1326 0.950 . S
H1298 C1328 0.950 . S
H1299 C1329 0.950 . S
C1300 H1282 0.991 . S
C1300 C1301 1.366 . S
C1300 C1302 1.388 . S
C1301 C1300 1.366 . S
C1301 C1305 1.385 . S
C1302 H1283 0.951 . S
C1302 C1300 1.388 . S
C1302 C1303 1.366 . S
C1303 C1302 1.366 . S
C1303 C1304 1.414 . S
C1303 C1306 1.499 . S
C1304 H1284 0.950 . S
C1304 C1303 1.414 . S
C1304 C1305 1.374 . S
C1305 H1285 0.950 . S
C1305 C1301 1.385 . S
C1305 C1304 1.374 . S
C1306 C1303 1.499 . S
C1306 C1307 1.373 . S
C1306 C1308 1.389 . S
C1307 H1286 0.950 . S
C1307 C1306 1.373 . S
C1307 C1323 1.377 . S
C1308 C1306 1.389 . S
C1308 C1309 1.524 . S
C1308 C1322 1.377 . S
C1309 C1308 1.524 . S
C1309 C1310 1.397 . S
C1309 C1314 1.363 . S
C1310 H1287 0.950 . S
C1310 C1309 1.397 . S
C1310 C1311 1.334 . S
C1311 H1288 0.950 . S
C1311 C1310 1.334 . S
C1311 C1312 1.287 . S
C1312 C1311 1.287 . S
C1312 C1313 1.524 . S
C1312 H1331 0.913 . S
C1313 H1289 0.950 . S
C1313 C1312 1.524 . S
C1313 C1314 1.415 . S
C1314 H1290 0.950 . S
C1314 C1309 1.363 . S
C1314 C1313 1.415 . S
C1315 H1291 0.951 . S
C1315 C1316 1.366 . S
C1315 C1317 1.388 . S
C1316 C1315 1.366 . S
C1316 C1320 1.385 . S
C1317 H1292 0.951 . S
C1317 C1315 1.388 . S
C1317 C1318 1.366 . S
C1318 C1317 1.366 . S
C1318 C1319 1.414 . S
C1318 C1321 1.499 . S
C1319 H1293 0.950 . S
C1319 C1318 1.414 . S
C1319 C1320 1.374 . S
C1320 H1294 0.950 . S
C1320 C1316 1.385 . S
C1320 C1319 1.374 . S
C1321 C1318 1.499 . S
C1321 C1322 1.373 . S
C1321 C1323 1.389 . S
C1322 H1295 0.950 . S
C1322 C1308 1.377 . S
C1322 C1321 1.373 . S
C1323 C1307 1.377 . S
C1323 C1321 1.389 . S
C1323 C1324 1.524 . S
C1324 C1323 1.524 . S
C1324 C1325 1.397 . S
C1324 C1329 1.363 . S
C1325 H1296 0.950 . S
C1325 C1324 1.397 . S
C1325 C1326 1.334 . S
C1326 H1297 0.950 . S
C1326 C1325 1.334 . S
C1326 C1327 1.287 . S
C1327 C1326 1.287 . S
C1327 C1328 1.524 . S
C1327 H1330 0.999 . S
C1328 H1298 0.950 . S
C1328 C1327 1.524 . S
C1328 C1329 1.415 . S
C1329 H1299 0.950 . S
C1329 C1324 1.363 . S
C1329 C1328 1.415 . S
H1330 C1327 0.999 . S
H1331 C1312 0.913 . S
H1332 C1350 0.951 . S
H1333 C1352 0.951 . S
H1334 C1354 0.950 . S
H1335 C1355 0.950 . S
H1336 C1357 0.950 . S
H1337 C1360 0.950 . S
H1338 C1361 0.950 . S
H1339 C1363 0.950 . S
H1340 C1364 0.950 . S
H1341 C1365 0.951 . S
H1342 C1367 0.951 . S
H1343 C1369 0.950 . S
H1344 C1370 0.950 . S
H1345 C1372 0.950 . S
H1346 C1375 0.950 . S
H1347 C1376 0.950 . S
H1348 C1378 0.950 . S
H1349 C1379 0.950 . S
C1350 H1332 0.951 . S
C1350 C1351 1.366 . S
C1350 C1352 1.388 . S
C1351 C1350 1.366 . S
C1351 C1355 1.385 . S
C1352 H1333 0.951 . S
C1352 C1350 1.388 . S
C1352 C1353 1.366 . S
C1353 C1352 1.366 . S
C1353 C1354 1.414 . S
C1353 C1356 1.499 . S
C1354 H1334 0.950 . S
C1354 C1353 1.414 . S
C1354 C1355 1.374 . S
C1355 H1335 0.950 . S
C1355 C1351 1.385 . S
C1355 C1354 1.374 . S
C1356 C1353 1.499 . S
C1356 C1357 1.373 . S
C1356 C1358 1.389 . S
C1357 H1336 0.950 . S
C1357 C1356 1.373 . S
C1357 C1373 1.377 . S
C1358 C1356 1.389 . S
C1358 C1359 1.524 . S
C1358 C1372 1.377 . S
C1359 C1358 1.524 . S
C1359 C1360 1.397 . S
C1359 C1364 1.363 . S
C1360 H1337 0.950 . S
C1360 C1359 1.397 . S
C1360 C1361 1.334 . S
C1361 H1338 0.950 . S
C1361 C1360 1.334 . S
C1361 C1362 1.287 . S
C1362 C1361 1.287 . S
C1362 C1363 1.524 . S
C1362 H1381 0.913 . S
C1363 H1339 0.950 . S
C1363 C1362 1.524 . S
C1363 C1364 1.415 . S
C1364 H1340 0.950 . S
C1364 C1359 1.363 . S
C1364 C1363 1.415 . S
C1365 H1341 0.951 . S
C1365 C1366 1.366 . S
C1365 C1367 1.388 . S
C1366 C1365 1.366 . S
C1366 C1370 1.385 . S
C1367 H1342 0.951 . S
C1367 C1365 1.388 . S
C1367 C1368 1.366 . S
C1368 C1367 1.366 . S
C1368 C1369 1.414 . S
C1368 C1371 1.499 . S
C1369 H1343 0.950 . S
C1369 C1368 1.414 . S
C1369 C1370 1.374 . S
C1370 H1344 0.950 . S
C1370 C1366 1.385 . S
C1370 C1369 1.374 . S
C1371 C1368 1.499 . S
C1371 C1372 1.373 . S
C1371 C1373 1.389 . S
C1372 H1345 0.950 . S
C1372 C1358 1.377 . S
C1372 C1371 1.373 . S
C1373 C1357 1.377 . S
C1373 C1371 1.389 . S
C1373 C1374 1.524 . S
C1374 C1373 1.524 . S
C1374 C1375 1.397 . S
C1374 C1379 1.363 . S
C1375 H1346 0.950 . S
C1375 C1374 1.397 . S
C1375 C1376 1.334 . S
C1376 H1347 0.950 . S
C1376 C1375 1.334 . S
C1376 C1377 1.287 . S
C1377 C1376 1.287 . S
C1377 C1378 1.524 . S
C1377 H1380 0.999 . S
C1378 H1348 0.950 . S
C1378 C1377 1.524 . S
C1378 C1379 1.415 . S
C1379 H1349 0.950 . S
C1379 C1374 1.363 . S
C1379 C1378 1.415 . S
H1380 C1377 0.999 . S
H1381 C1362 0.913 . S
H1382 C1400 0.951 . S
H1383 C1402 0.951 . S
H1384 C1404 0.950 1_655 S
H1385 C1405 0.950 . S
H1386 C1407 0.950 . S
H1387 C1410 0.950 . S
H1388 C1411 0.950 . S
H1389 C1413 0.950 . S
H1390 C1414 0.950 . S
H1391 C1415 0.951 . S
H1392 C1417 0.940 1_565 S
H1393 C1419 0.950 1_455 S
H1394 C1420 0.950 . S
H1395 C1422 0.950 . S
H1396 C1425 0.950 . S
H1397 C1426 0.950 . S
H1398 C1428 0.950 . S
H1399 C1429 0.950 . S
C1400 H1382 0.951 . S
C1400 C1401 1.366 . S
C1400 C1402 1.388 . S
C1401 C1400 1.366 . S
C1401 C1405 1.385 . S
C1402 H1383 0.951 . S
C1402 C1400 1.388 . S
C1402 C1403 1.366 . S
C1403 C1402 1.366 . S
C1403 C1404 1.414 . S
C1403 C1406 1.499 . S
C1404 H1384 0.950 1_455 S
C1404 C1403 1.414 . S
C1404 C1405 1.374 . S
C1405 H1385 0.950 . S
C1405 C1401 1.385 . S
C1405 C1404 1.374 . S
C1406 C1403 1.499 . S
C1406 C1407 1.373 1_455 S
C1406 C1408 1.389 1_565 S
C1407 H1386 0.950 . S
C1407 C1406 1.373 1_655 S
C1407 C1423 1.377 . S
C1408 C1406 1.389 1_545 S
C1408 C1409 1.524 . S
C1408 C1422 1.377 . S
C1409 C1408 1.524 . S
C1409 C1410 1.397 . S
C1409 C1414 1.363 . S
C1410 H1387 0.950 . S
C1410 C1409 1.397 . S
C1410 C1411 1.334 . S
C1411 H1388 0.950 . S
C1411 C1410 1.334 . S
C1411 C1412 1.287 . S
C1412 C1411 1.287 . S
C1412 C1413 1.524 . S
C1412 H1431 0.913 . S
C1413 H1389 0.950 . S
C1413 C1412 1.524 . S
C1413 C1414 1.415 . S
C1414 H1390 0.950 . S
C1414 C1409 1.363 . S
C1414 C1413 1.415 . S
C1415 H1391 0.951 . S
C1415 C1416 1.366 . S
C1415 C1417 1.398 . S
C1416 C1415 1.366 . S
C1416 C1420 1.385 . S
C1417 H1392 0.940 1_545 S
C1417 C1415 1.398 . S
C1417 C1418 1.367 . S
C1418 C1417 1.367 . S
C1418 C1419 1.414 . S
C1418 C1421 1.499 1_545 S
C1419 H1393 0.950 1_655 S
C1419 C1418 1.414 . S
C1419 C1420 1.374 . S
C1420 H1394 0.950 . S
C1420 C1416 1.385 . S
C1420 C1419 1.374 . S
C1421 C1418 1.499 1_565 S
C1421 C1422 1.373 1_665 S
C1421 C1423 1.389 . S
C1422 H1395 0.950 . S
C1422 C1408 1.377 . S
C1422 C1421 1.373 1_445 S
C1423 C1407 1.377 . S
C1423 C1421 1.389 . S
C1423 C1424 1.524 . S
C1424 C1423 1.524 . S
C1424 C1425 1.397 . S
C1424 C1429 1.363 . S
C1425 H1396 0.950 . S
C1425 C1424 1.397 . S
C1425 C1426 1.334 . S
C1426 H1397 0.950 . S
C1426 C1425 1.334 . S
C1426 C1427 1.287 . S
C1427 C1426 1.287 . S
C1427 C1428 1.524 . S
C1427 H1430 0.999 . S
C1428 H1398 0.950 . S
C1428 C1427 1.524 . S
C1428 C1429 1.415 . S
C1429 H1399 0.950 . S
C1429 C1424 1.363 . S
C1429 C1428 1.415 . S
H1430 C1427 0.999 . S
H1431 C1412 0.913 . S
H1432 C1450 0.951 . S
H1433 C1452 0.951 . S
H1434 C1454 0.950 . S
H1435 C1455 0.950 . S
H1436 C1457 0.950 . S
H1437 C1460 0.950 . S
H1438 C1461 0.950 . S
H1439 C1463 0.950 . S
H1440 C1464 0.950 . S
H1441 C1465 0.951 . S
H1442 C1467 0.951 . S
H1443 C1469 0.950 . S
H1444 C1470 0.950 . S
H1445 C1472 0.950 . S
H1446 C1475 0.950 . S
H1447 C1476 0.950 . S
H1448 C1478 0.950 . S
H1449 C1479 0.950 . S
C1450 H1432 0.951 . S
C1450 C1451 1.366 . S
C1450 C1452 1.388 . S
C1451 C1450 1.366 . S
C1451 C1455 1.385 . S
C1452 H1433 0.951 . S
C1452 C1450 1.388 . S
C1452 C1453 1.366 . S
C1453 C1452 1.366 . S
C1453 C1454 1.414 . S
C1453 C1456 1.499 . S
C1454 H1434 0.950 . S
C1454 C1453 1.414 . S
C1454 C1455 1.374 . S
C1455 H1435 0.950 . S
C1455 C1451 1.385 . S
C1455 C1454 1.374 . S
C1456 C1453 1.499 . S
C1456 C1457 1.373 . S
C1456 C1458 1.389 . S
C1457 H1436 0.950 . S
C1457 C1456 1.373 . S
C1457 C1473 1.377 . S
C1458 C1456 1.389 . S
C1458 C1459 1.524 . S
C1458 C1472 1.377 . S
C1459 C1458 1.524 . S
C1459 C1460 1.397 . S
C1459 C1464 1.363 . S
C1460 H1437 0.950 . S
C1460 C1459 1.397 . S
C1460 C1461 1.334 . S
C1461 H1438 0.950 . S
C1461 C1460 1.334 . S
C1461 C1462 1.287 . S
C1462 C1461 1.287 . S
C1462 C1463 1.524 . S
C1462 H1481 0.913 . S
C1463 H1439 0.950 . S
C1463 C1462 1.524 . S
C1463 C1464 1.415 . S
C1464 H1440 0.950 . S
C1464 C1459 1.363 . S
C1464 C1463 1.415 . S
C1465 H1441 0.951 . S
C1465 C1466 1.366 . S
C1465 C1467 1.388 . S
C1466 C1465 1.366 . S
C1466 C1470 1.385 . S
C1467 H1442 0.951 . S
C1467 C1465 1.388 . S
C1467 C1468 1.366 . S
C1468 C1467 1.366 . S
C1468 C1469 1.414 . S
C1468 C1471 1.499 . S
C1469 H1443 0.950 . S
C1469 C1468 1.414 . S
C1469 C1470 1.374 . S
C1470 H1444 0.950 . S
C1470 C1466 1.385 . S
C1470 C1469 1.374 . S
C1471 C1468 1.499 . S
C1471 C1472 1.373 . S
C1471 C1473 1.389 . S
C1472 H1445 0.950 . S
C1472 C1458 1.377 . S
C1472 C1471 1.373 . S
C1473 C1457 1.377 . S
C1473 C1471 1.389 . S
C1473 C1474 1.524 . S
C1474 C1473 1.524 . S
C1474 C1475 1.397 . S
C1474 C1479 1.363 . S
C1475 H1446 0.950 . S
C1475 C1474 1.397 . S
C1475 C1476 1.334 . S
C1476 H1447 0.950 . S
C1476 C1475 1.334 . S
C1476 C1477 1.287 . S
C1477 C1476 1.287 . S
C1477 C1478 1.524 . S
C1477 H1480 0.999 . S
C1478 H1448 0.950 . S
C1478 C1477 1.524 . S
C1478 C1479 1.415 . S
C1479 H1449 0.950 . S
C1479 C1474 1.363 . S
C1479 C1478 1.415 . S
H1480 C1477 0.999 . S
H1481 C1462 0.913 . S
H1482 C1500 0.951 . S
H1483 C1502 0.951 . S
H1484 C1504 0.950 . S
H1485 C1505 0.950 . S
H1486 C1507 0.950 . S
H1487 C1510 0.950 . S
H1488 C1511 0.950 . S
H1489 C1513 0.950 . S
H1490 C1514 0.950 . S
H1491 C1515 0.951 . S
H1492 C1517 0.951 . S
H1493 C1519 0.950 . S
H1494 C1520 0.950 . S
H1495 C1522 0.950 . S
H1496 C1525 0.950 . S
H1497 C1526 0.950 . S
H1498 C1528 0.950 . S
H1499 C1529 0.950 . S
C1500 H1482 0.951 . S
C1500 C1501 1.366 . S
C1500 C1502 1.388 . S
C1501 C1500 1.366 . S
C1501 C1505 1.385 . S
C1502 H1483 0.951 . S
C1502 C1500 1.388 . S
C1502 C1503 1.366 . S
C1503 C1502 1.366 . S
C1503 C1504 1.414 . S
C1503 C1506 1.499 . S
C1504 H1484 0.950 . S
C1504 C1503 1.414 . S
C1504 C1505 1.374 . S
C1505 H1485 0.950 . S
C1505 C1501 1.385 . S
C1505 C1504 1.374 . S
C1506 C1503 1.499 . S
C1506 C1507 1.373 . S
C1506 C1508 1.389 . S
C1507 H1486 0.950 . S
C1507 C1506 1.373 . S
C1507 C1523 1.377 . S
C1508 C1506 1.389 . S
C1508 C1509 1.524 . S
C1508 C1522 1.377 . S
C1509 C1508 1.524 . S
C1509 C1510 1.397 . S
C1509 C1514 1.363 . S
C1510 H1487 0.950 . S
C1510 C1509 1.397 . S
C1510 C1511 1.334 . S
C1511 H1488 0.950 . S
C1511 C1510 1.334 . S
C1511 C1512 1.287 . S
C1512 C1511 1.287 . S
C1512 C1513 1.524 . S
C1512 H1531 0.913 . S
C1513 H1489 0.950 . S
C1513 C1512 1.524 . S
C1513 C1514 1.415 . S
C1514 H1490 0.950 . S
C1514 C1509 1.363 . S
C1514 C1513 1.415 . S
C1515 H1491 0.951 . S
C1515 C1516 1.366 . S
C1515 C1517 1.388 . S
C1516 C1515 1.366 . S
C1516 C1520 1.385 . S
C1517 H1492 0.951 . S
C1517 C1515 1.388 . S
C1517 C1518 1.366 . S
C1518 C1517 1.366 . S
C1518 C1519 1.414 . S
C1518 C1521 1.499 . S
C1519 H1493 0.950 . S
C1519 C1518 1.414 . S
C1519 C1520 1.374 . S
C1520 H1494 0.950 . S
C1520 C1516 1.385 . S
C1520 C1519 1.374 . S
C1521 C1518 1.499 . S
C1521 C1522 1.373 . S
C1521 C1523 1.389 . S
C1522 H1495 0.950 . S
C1522 C1508 1.377 . S
C1522 C1521 1.373 . S
C1523 C1507 1.377 . S
C1523 C1521 1.389 . S
C1523 C1524 1.524 . S
C1524 C1523 1.524 . S
C1524 C1525 1.397 . S
C1524 C1529 1.363 . S
C1525 H1496 0.950 . S
C1525 C1524 1.397 . S
C1525 C1526 1.334 . S
C1526 H1497 0.950 . S
C1526 C1525 1.334 . S
C1526 C1527 1.287 . S
C1527 C1526 1.287 . S
C1527 C1528 1.524 . S
C1527 H1530 0.999 . S
C1528 H1498 0.950 . S
C1528 C1527 1.524 . S
C1528 C1529 1.415 . S
C1529 H1499 0.950 . S
C1529 C1524 1.363 . S
C1529 C1528 1.415 . S
H1530 C1527 0.999 . S
H1531 C1512 0.913 . S
H1532 C1550 0.951 . S
H1533 C1552 0.951 . S
H1534 C1554 0.950 . S
H1535 C1555 0.950 . S
H1536 C1557 0.950 . S
H1537 C1560 0.950 . S
H1538 C1561 0.950 . S
H1539 C1563 0.950 . S
H1540 C1564 0.950 . S
H1541 C1565 0.951 . S
H1542 C1567 0.951 . S
H1543 C1569 0.950 . S
H1544 C1570 0.950 . S
H1545 C1572 0.950 . S
H1546 C1575 0.950 . S
H1547 C1576 0.950 . S
H1548 C1578 0.950 . S
H1549 C1579 0.950 . S
C1550 H1532 0.951 . S
C1550 C1551 1.366 . S
C1550 C1552 1.388 . S
C1551 C1550 1.366 . S
C1551 C1555 1.385 . S
C1552 H1533 0.951 . S
C1552 C1550 1.388 . S
C1552 C1553 1.366 . S
C1553 C1552 1.366 . S
C1553 C1554 1.414 . S
C1553 C1556 1.499 . S
C1554 H1534 0.950 . S
C1554 C1553 1.414 . S
C1554 C1555 1.374 . S
C1555 H1535 0.950 . S
C1555 C1551 1.385 . S
C1555 C1554 1.374 . S
C1556 C1553 1.499 . S
C1556 C1557 1.373 . S
C1556 C1558 1.389 . S
C1557 H1536 0.950 . S
C1557 C1556 1.373 . S
C1557 C1573 1.377 . S
C1558 C1556 1.389 . S
C1558 C1559 1.524 . S
C1558 C1572 1.377 . S
C1559 C1558 1.524 . S
C1559 C1560 1.397 . S
C1559 C1564 1.363 . S
C1560 H1537 0.950 . S
C1560 C1559 1.397 . S
C1560 C1561 1.334 . S
C1561 H1538 0.950 . S
C1561 C1560 1.334 . S
C1561 C1562 1.287 . S
C1562 C1561 1.287 . S
C1562 C1563 1.524 . S
C1562 H1581 0.913 . S
C1563 H1539 0.950 . S
C1563 C1562 1.524 . S
C1563 C1564 1.415 . S
C1564 H1540 0.950 . S
C1564 C1559 1.363 . S
C1564 C1563 1.415 . S
C1565 H1541 0.951 . S
C1565 C1566 1.366 . S
C1565 C1567 1.388 . S
C1566 C1565 1.366 . S
C1566 C1570 1.385 . S
C1567 H1542 0.951 . S
C1567 C1565 1.388 . S
C1567 C1568 1.366 . S
C1568 C1567 1.366 . S
C1568 C1569 1.414 . S
C1568 C1571 1.499 . S
C1569 H1543 0.950 . S
C1569 C1568 1.414 . S
C1569 C1570 1.374 . S
C1570 H1544 0.950 . S
C1570 C1566 1.385 . S
C1570 C1569 1.374 . S
C1571 C1568 1.499 . S
C1571 C1572 1.373 . S
C1571 C1573 1.389 . S
C1572 H1545 0.950 . S
C1572 C1558 1.377 . S
C1572 C1571 1.373 . S
C1573 C1557 1.377 . S
C1573 C1571 1.389 . S
C1573 C1574 1.524 . S
C1574 C1573 1.524 . S
C1574 C1575 1.397 . S
C1574 C1579 1.363 . S
C1575 H1546 0.950 . S
C1575 C1574 1.397 . S
C1575 C1576 1.334 . S
C1576 H1547 0.950 . S
C1576 C1575 1.334 . S
C1576 C1577 1.287 . S
C1577 C1576 1.287 . S
C1577 C1578 1.524 . S
C1577 H1580 0.999 . S
C1578 H1548 0.950 . S
C1578 C1577 1.524 . S
C1578 C1579 1.415 . S
C1579 H1549 0.950 . S
C1579 C1574 1.363 . S
C1579 C1578 1.415 . S
H1580 C1577 0.999 . S
H1581 C1562 0.913 . S
H1582 C1600 0.951 . S
H1583 C1602 0.951 . S
H1584 C1604 0.950 1_545 S
H1585 C1605 0.950 1_545 S
H1586 C1607 0.950 . S
H1587 C1610 0.950 . S
H1588 C1611 0.950 . S
H1589 C1613 0.950 . S
H1590 C1614 0.950 . S
H1591 C1615 0.951 1_545 S
H1592 C1617 0.951 1_545 S
H1593 C1619 0.950 . S
H1594 C1620 0.950 . S
H1595 C1622 0.950 . S
H1596 C1625 0.950 . S
H1597 C1626 0.950 . S
H1598 C1628 0.950 . S
H1599 C1629 0.950 . S
C1600 H1582 0.951 . S
C1600 C1601 1.366 . S
C1600 C1602 1.388 . S
C1601 C1600 1.366 . S
C1601 C1605 1.385 . S
C1602 H1583 0.951 . S
C1602 C1600 1.388 . S
C1602 C1603 1.366 . S
C1603 C1602 1.366 . S
C1603 C1604 1.414 . S
C1603 C1606 1.499 . S
C1604 H1584 0.950 1_565 S
C1604 C1603 1.414 . S
C1604 C1605 1.374 . S
C1605 H1585 0.950 1_565 S
C1605 C1601 1.385 . S
C1605 C1604 1.374 . S
C1606 C1603 1.499 . S
C1606 C1607 1.373 1_565 S
C1606 C1608 1.389 . S
C1607 H1586 0.950 . S
C1607 C1606 1.373 1_545 S
C1607 C1623 1.377 . S
C1608 C1606 1.389 . S
C1608 C1609 1.524 . S
C1608 C1622 1.377 . S
C1609 C1608 1.524 . S
C1609 C1610 1.397 . S
C1609 C1614 1.363 . S
C1610 H1587 0.950 . S
C1610 C1609 1.397 . S
C1610 C1611 1.334 . S
C1611 H1588 0.950 . S
C1611 C1610 1.334 . S
C1611 C1612 1.287 . S
C1612 C1611 1.287 . S
C1612 C1613 1.524 . S
C1612 H1631 0.913 . S
C1613 H1589 0.950 . S
C1613 C1612 1.524 . S
C1613 C1614 1.415 . S
C1614 H1590 0.950 . S
C1614 C1609 1.363 . S
C1614 C1613 1.415 . S
C1615 H1591 0.951 1_565 S
C1615 C1616 1.366 . S
C1615 C1617 1.388 . S
C1616 C1615 1.366 . S
C1616 C1620 1.385 . S
C1617 H1592 0.951 1_565 S
C1617 C1615 1.388 . S
C1617 C1618 1.366 . S
C1618 C1617 1.366 . S
C1618 C1619 1.414 . S
C1618 C1621 1.499 . S
C1619 H1593 0.950 . S
C1619 C1618 1.414 . S
C1619 C1620 1.374 . S
C1620 H1594 0.950 . S
C1620 C1616 1.385 . S
C1620 C1619 1.374 . S
C1621 C1618 1.499 . S
C1621 C1622 1.373 . S
C1621 C1623 1.389 1_565 S
C1622 H1595 0.950 . S
C1622 C1608 1.377 . S
C1622 C1621 1.373 . S
C1623 C1607 1.377 . S
C1623 C1621 1.389 1_545 S
C1623 C1624 1.524 . S
C1624 C1623 1.524 . S
C1624 C1625 1.397 . S
C1624 C1629 1.363 . S
C1625 H1596 0.950 . S
C1625 C1624 1.397 . S
C1625 C1626 1.334 . S
C1626 H1597 0.950 . S
C1626 C1625 1.334 . S
C1626 C1627 1.287 . S
C1627 C1626 1.287 . S
C1627 C1628 1.524 . S
C1627 H1630 0.999 . S
C1628 H1598 0.950 . S
C1628 C1627 1.524 . S
C1628 C1629 1.415 . S
C1629 H1599 0.950 . S
C1629 C1624 1.363 . S
C1629 C1628 1.415 . S
H1630 C1627 0.999 . S
H1631 C1612 0.913 . S
H1632 C1650 0.951 . S
H1633 C1652 0.951 . S
H1634 C1654 0.950 . S
H1635 C1655 0.950 . S
H1636 C1657 0.950 . S
H1637 C1660 0.950 . S
H1638 C1661 0.950 . S
H1639 C1663 0.950 . S
H1640 C1664 0.950 . S
H1641 C1665 0.951 . S
H1642 C1667 0.951 . S
H1643 C1669 0.950 . S
H1644 C1670 0.950 . S
H1645 C1672 0.950 . S
H1646 C1675 0.950 . S
H1647 C1676 0.950 . S
H1648 C1678 0.950 . S
H1649 C1679 0.950 . S
C1650 H1632 0.951 . S
C1650 C1651 1.366 . S
C1650 C1652 1.388 . S
C1651 C1650 1.366 . S
C1651 C1655 1.385 . S
C1652 H1633 0.951 . S
C1652 C1650 1.388 . S
C1652 C1653 1.366 . S
C1653 C1652 1.366 . S
C1653 C1654 1.414 . S
C1653 C1656 1.499 . S
C1654 H1634 0.950 . S
C1654 C1653 1.414 . S
C1654 C1655 1.374 . S
C1655 H1635 0.950 . S
C1655 C1651 1.385 . S
C1655 C1654 1.374 . S
C1656 C1653 1.499 . S
C1656 C1657 1.373 . S
C1656 C1658 1.389 . S
C1657 H1636 0.950 . S
C1657 C1656 1.373 . S
C1657 C1673 1.377 . S
C1658 C1656 1.389 . S
C1658 C1659 1.524 . S
C1658 C1672 1.377 . S
C1659 C1658 1.524 . S
C1659 C1660 1.397 . S
C1659 C1664 1.363 . S
C1660 H1637 0.950 . S
C1660 C1659 1.397 . S
C1660 C1661 1.334 . S
C1661 H1638 0.950 . S
C1661 C1660 1.334 . S
C1661 C1662 1.287 . S
C1662 C1661 1.287 . S
C1662 C1663 1.524 . S
C1662 H1681 0.913 . S
C1663 H1639 0.950 . S
C1663 C1662 1.524 . S
C1663 C1664 1.415 . S
C1664 H1640 0.950 . S
C1664 C1659 1.363 . S
C1664 C1663 1.415 . S
C1665 H1641 0.951 . S
C1665 C1666 1.366 . S
C1665 C1667 1.388 . S
C1666 C1665 1.366 . S
C1666 C1670 1.385 . S
C1667 H1642 0.951 . S
C1667 C1665 1.388 . S
C1667 C1668 1.366 . S
C1668 C1667 1.366 . S
C1668 C1669 1.414 . S
C1668 C1671 1.499 . S
C1669 H1643 0.950 . S
C1669 C1668 1.414 . S
C1669 C1670 1.374 . S
C1670 H1644 0.950 . S
C1670 C1666 1.385 . S
C1670 C1669 1.374 . S
C1671 C1668 1.499 . S
C1671 C1672 1.373 . S
C1671 C1673 1.389 . S
C1672 H1645 0.950 . S
C1672 C1658 1.377 . S
C1672 C1671 1.373 . S
C1673 C1657 1.377 . S
C1673 C1671 1.389 . S
C1673 C1674 1.524 . S
C1674 C1673 1.524 . S
C1674 C1675 1.397 . S
C1674 C1679 1.363 . S
C1675 H1646 0.950 . S
C1675 C1674 1.397 . S
C1675 C1676 1.334 . S
C1676 H1647 0.950 . S
C1676 C1675 1.334 . S
C1676 C1677 1.287 . S
C1677 C1676 1.287 . S
C1677 C1678 1.524 . S
C1677 H1680 0.999 . S
C1678 H1648 0.950 . S
C1678 C1677 1.524 . S
C1678 C1679 1.415 . S
C1679 H1649 0.950 . S
C1679 C1674 1.363 . S
C1679 C1678 1.415 . S
H1680 C1677 0.999 . S
H1681 C1662 0.913 . S
H1682 C1700 0.951 . S
H1683 C1702 0.951 . S
H1684 C1704 0.950 . S
H1685 C1705 0.950 . S
H1686 C1707 0.950 . S
H1687 C1710 0.950 . S
H1688 C1711 0.950 . S
H1689 C1713 0.950 . S
H1690 C1714 0.950 . S
H1691 C1715 0.951 . S
H1692 C1717 0.951 . S
H1693 C1719 0.950 . S
H1694 C1720 0.950 . S
H1695 C1722 0.950 . S
H1696 C1725 0.950 . S
H1697 C1726 0.950 . S
H1698 C1728 0.950 . S
H1699 C1729 0.950 . S
C1700 H1682 0.951 . S
C1700 C1701 1.366 . S
C1700 C1702 1.388 . S
C1701 C1700 1.366 . S
C1701 C1705 1.385 . S
C1702 H1683 0.951 . S
C1702 C1700 1.388 . S
C1702 C1703 1.366 . S
C1703 C1702 1.366 . S
C1703 C1704 1.414 . S
C1703 C1706 1.499 . S
C1704 H1684 0.950 . S
C1704 C1703 1.414 . S
C1704 C1705 1.374 . S
C1705 H1685 0.950 . S
C1705 C1701 1.385 . S
C1705 C1704 1.374 . S
C1706 C1703 1.499 . S
C1706 C1707 1.373 . S
C1706 C1708 1.389 . S
C1707 H1686 0.950 . S
C1707 C1706 1.373 . S
C1707 C1723 1.377 . S
C1708 C1706 1.389 . S
C1708 C1709 1.524 . S
C1708 C1722 1.377 . S
C1709 C1708 1.524 . S
C1709 C1710 1.397 . S
C1709 C1714 1.363 . S
C1710 H1687 0.950 . S
C1710 C1709 1.397 . S
C1710 C1711 1.334 . S
C1711 H1688 0.950 . S
C1711 C1710 1.334 . S
C1711 C1712 1.287 . S
C1712 C1711 1.287 . S
C1712 C1713 1.524 . S
C1712 H1731 0.913 . S
C1713 H1689 0.950 . S
C1713 C1712 1.524 . S
C1713 C1714 1.415 . S
C1714 H1690 0.950 . S
C1714 C1709 1.363 . S
C1714 C1713 1.415 . S
C1715 H1691 0.951 . S
C1715 C1716 1.366 . S
C1715 C1717 1.388 . S
C1716 C1715 1.366 . S
C1716 C1720 1.385 . S
C1717 H1692 0.951 . S
C1717 C1715 1.388 . S
C1717 C1718 1.366 . S
C1718 C1717 1.366 . S
C1718 C1719 1.414 . S
C1718 C1721 1.499 . S
C1719 H1693 0.950 . S
C1719 C1718 1.414 . S
C1719 C1720 1.374 . S
C1720 H1694 0.950 . S
C1720 C1716 1.385 . S
C1720 C1719 1.374 . S
C1721 C1718 1.499 . S
C1721 C1722 1.373 . S
C1721 C1723 1.389 . S
C1722 H1695 0.950 . S
C1722 C1708 1.377 . S
C1722 C1721 1.373 . S
C1723 C1707 1.377 . S
C1723 C1721 1.389 . S
C1723 C1724 1.524 . S
C1724 C1723 1.524 . S
C1724 C1725 1.397 . S
C1724 C1729 1.363 . S
C1725 H1696 0.950 . S
C1725 C1724 1.397 . S
C1725 C1726 1.334 . S
C1726 H1697 0.950 . S
C1726 C1725 1.334 . S
C1726 C1727 1.287 . S
C1727 C1726 1.287 . S
C1727 C1728 1.524 . S
C1727 H1730 0.999 . S
C1728 H1698 0.950 . S
C1728 C1727 1.524 . S
C1728 C1729 1.415 . S
C1729 H1699 0.950 . S
C1729 C1724 1.363 . S
C1729 C1728 1.415 . S
H1730 C1727 0.999 . S
H1731 C1712 0.913 . S
H1732 C1750 0.951 . S
H1733 C1752 0.951 . S
H1734 C1754 0.950 . S
H1735 C1755 0.950 . S
H1736 C1757 0.950 . S
H1737 C1760 0.950 . S
H1738 C1761 0.950 . S
H1739 C1763 0.950 . S
H1740 C1764 0.950 . S
H1741 C1765 0.951 . S
H1742 C1767 0.951 . S
H1743 C1769 0.950 . S
H1744 C1770 0.950 . S
H1745 C1772 0.950 . S
H1746 C1775 0.950 . S
H1747 C1776 0.950 . S
H1748 C1778 0.950 . S
H1749 C1779 0.950 . S
C1750 H1732 0.951 . S
C1750 C1751 1.366 . S
C1750 C1752 1.388 . S
C1751 C1750 1.366 . S
C1751 C1755 1.385 . S
C1752 H1733 0.951 . S
C1752 C1750 1.388 . S
C1752 C1753 1.366 . S
C1753 C1752 1.366 . S
C1753 C1754 1.414 . S
C1753 C1756 1.499 . S
C1754 H1734 0.950 . S
C1754 C1753 1.414 . S
C1754 C1755 1.374 . S
C1755 H1735 0.950 . S
C1755 C1751 1.385 . S
C1755 C1754 1.374 . S
C1756 C1753 1.499 . S
C1756 C1757 1.373 . S
C1756 C1758 1.389 . S
C1757 H1736 0.950 . S
C1757 C1756 1.373 . S
C1757 C1773 1.377 . S
C1758 C1756 1.389 . S
C1758 C1759 1.524 . S
C1758 C1772 1.377 . S
C1759 C1758 1.524 . S
C1759 C1760 1.397 . S
C1759 C1764 1.363 . S
C1760 H1737 0.950 . S
C1760 C1759 1.397 . S
C1760 C1761 1.334 . S
C1761 H1738 0.950 . S
C1761 C1760 1.334 . S
C1761 C1762 1.287 . S
C1762 C1761 1.287 . S
C1762 C1763 1.524 . S
C1762 H1781 0.913 . S
C1763 H1739 0.950 . S
C1763 C1762 1.524 . S
C1763 C1764 1.415 . S
C1764 H1740 0.950 . S
C1764 C1759 1.363 . S
C1764 C1763 1.415 . S
C1765 H1741 0.951 . S
C1765 C1766 1.366 . S
C1765 C1767 1.388 . S
C1766 C1765 1.366 . S
C1766 C1770 1.385 . S
C1767 H1742 0.951 . S
C1767 C1765 1.388 . S
C1767 C1768 1.366 . S
C1768 C1767 1.366 . S
C1768 C1769 1.414 . S
C1768 C1771 1.499 . S
C1769 H1743 0.950 . S
C1769 C1768 1.414 . S
C1769 C1770 1.374 . S
C1770 H1744 0.950 . S
C1770 C1766 1.385 . S
C1770 C1769 1.374 . S
C1771 C1768 1.499 . S
C1771 C1772 1.373 . S
C1771 C1773 1.389 . S
C1772 H1745 0.950 . S
C1772 C1758 1.377 . S
C1772 C1771 1.373 . S
C1773 C1757 1.377 . S
C1773 C1771 1.389 . S
C1773 C1774 1.524 . S
C1774 C1773 1.524 . S
C1774 C1775 1.397 . S
C1774 C1779 1.363 . S
C1775 H1746 0.950 . S
C1775 C1774 1.397 . S
C1775 C1776 1.334 . S
C1776 H1747 0.950 . S
C1776 C1775 1.334 . S
C1776 C1777 1.287 . S
C1777 C1776 1.287 . S
C1777 C1778 1.524 . S
C1777 H1780 0.999 . S
C1778 H1748 0.950 . S
C1778 C1777 1.524 . S
C1778 C1779 1.415 . S
C1779 H1749 0.950 . S
C1779 C1774 1.363 . S
C1779 C1778 1.415 . S
H1780 C1777 0.999 . S
H1781 C1762 0.913 . S
H1782 C1800 0.951 . S
H1783 C1802 0.951 . S
H1784 C1804 0.950 . S
H1785 C1805 0.950 . S
H1786 C1807 0.950 . S
H1787 C1810 0.950 . S
H1788 C1811 0.950 . S
H1789 C1813 0.950 . S
H1790 C1814 0.950 . S
H1791 C1815 0.951 . S
H1792 C1817 0.951 . S
H1793 C1819 0.950 . S
H1794 C1820 0.950 . S
H1795 C1822 0.950 . S
H1796 C1825 0.950 . S
H1797 C1826 0.950 . S
H1798 C1828 0.950 . S
H1799 C1829 0.950 . S
C1800 H1782 0.951 . S
C1800 C1801 1.366 . S
C1800 C1802 1.388 . S
C1801 C1800 1.366 . S
C1801 C1805 1.385 . S
C1802 H1783 0.951 . S
C1802 C1800 1.388 . S
C1802 C1803 1.366 . S
C1803 C1802 1.366 . S
C1803 C1804 1.414 . S
C1803 C1806 1.499 . S
C1804 H1784 0.950 . S
C1804 C1803 1.414 . S
C1804 C1805 1.374 . S
C1805 H1785 0.950 . S
C1805 C1801 1.385 . S
C1805 C1804 1.374 . S
C1806 C1803 1.499 . S
C1806 C1807 1.373 . S
C1806 C1808 1.389 . S
C1807 H1786 0.950 . S
C1807 C1806 1.373 . S
C1807 C1823 1.377 . S
C1808 C1806 1.389 . S
C1808 C1809 1.524 . S
C1808 C1822 1.377 . S
C1809 C1808 1.524 . S
C1809 C1810 1.397 . S
C1809 C1814 1.363 . S
C1810 H1787 0.950 . S
C1810 C1809 1.397 . S
C1810 C1811 1.334 . S
C1811 H1788 0.950 . S
C1811 C1810 1.334 . S
C1811 C1812 1.287 . S
C1812 C1811 1.287 . S
C1812 C1813 1.524 . S
C1812 H1831 0.913 . S
C1813 H1789 0.950 . S
C1813 C1812 1.524 . S
C1813 C1814 1.415 . S
C1814 H1790 0.950 . S
C1814 C1809 1.363 . S
C1814 C1813 1.415 . S
C1815 H1791 0.951 . S
C1815 C1816 1.366 . S
C1815 C1817 1.388 . S
C1816 C1815 1.366 . S
C1816 C1820 1.385 . S
C1817 H1792 0.951 . S
C1817 C1815 1.388 . S
C1817 C1818 1.366 . S
C1818 C1817 1.366 . S
C1818 C1819 1.414 . S
C1818 C1821 1.499 . S
C1819 H1793 0.950 . S
C1819 C1818 1.414 . S
C1819 C1820 1.374 . S
C1820 H1794 0.950 . S
C1820 C1816 1.385 . S
C1820 C1819 1.374 . S
C1821 C1818 1.499 . S
C1821 C1822 1.373 . S
C1821 C1823 1.389 . S
C1822 H1795 0.950 . S
C1822 C1808 1.377 . S
C1822 C1821 1.373 . S
C1823 C1807 1.377 . S
C1823 C1821 1.389 . S
C1823 C1824 1.524 . S
C1824 C1823 1.524 . S
C1824 C1825 1.397 . S
C1824 C1829 1.363 . S
C1825 H1796 0.950 . S
C1825 C1824 1.397 . S
C1825 C1826 1.334 . S
C1826 H1797 0.950 . S
C1826 C1825 1.334 . S
C1826 C1827 1.287 . S
C1827 C1826 1.287 . S
C1827 C1828 1.524 . S
C1827 H1830 0.999 . S
C1828 H1798 0.950 . S
C1828 C1827 1.524 . S
C1828 C1829 1.415 . S
C1829 H1799 0.950 . S
C1829 C1824 1.363 . S
C1829 C1828 1.415 . S
H1830 C1827 0.999 . S
H1831 C1812 0.913 . S
H1832 C1850 0.951 . S
H1833 C1852 0.951 . S
H1834 C1854 0.950 . S
H1835 C1855 0.950 . S
H1836 C1857 0.950 . S
H1837 C1860 0.950 . S
H1838 C1861 0.950 . S
H1839 C1863 0.950 . S
H1840 C1864 0.950 . S
H1841 C1865 0.951 . S
H1842 C1867 0.951 . S
H1843 C1869 0.950 . S
H1844 C1870 0.950 . S
H1845 C1872 0.950 . S
H1846 C1875 0.950 . S
H1847 C1876 0.950 . S
H1848 C1878 0.950 . S
H1849 C1879 0.950 . S
C1850 H1832 0.951 . S
C1850 C1851 1.366 . S
C1850 C1852 1.388 . S
C1851 C1850 1.366 . S
C1851 C1855 1.385 . S
C1852 H1833 0.951 . S
C1852 C1850 1.388 . S
C1852 C1853 1.366 . S
C1853 C1852 1.366 . S
C1853 C1854 1.414 . S
C1853 C1856 1.499 . S
C1854 H1834 0.950 . S
C1854 C1853 1.414 . S
C1854 C1855 1.374 . S
C1855 H1835 0.950 . S
C1855 C1851 1.385 . S
C1855 C1854 1.374 . S
C1856 C1853 1.499 . S
C1856 C1857 1.373 . S
C1856 C1858 1.389 . S
C1857 H1836 0.950 . S
C1857 C1856 1.373 . S
C1857 C1873 1.377 . S
C1858 C1856 1.389 . S
C1858 C1859 1.524 . S
C1858 C1872 1.377 . S
C1859 C1858 1.524 . S
C1859 C1860 1.397 . S
C1859 C1864 1.363 . S
C1860 H1837 0.950 . S
C1860 C1859 1.397 . S
C1860 C1861 1.334 . S
C1861 H1838 0.950 . S
C1861 C1860 1.334 . S
C1861 C1862 1.287 . S
C1862 C1861 1.287 . S
C1862 C1863 1.524 . S
C1862 H1881 0.913 . S
C1863 H1839 0.950 . S
C1863 C1862 1.524 . S
C1863 C1864 1.415 . S
C1864 H1840 0.950 . S
C1864 C1859 1.363 . S
C1864 C1863 1.415 . S
C1865 H1841 0.951 . S
C1865 C1866 1.366 . S
C1865 C1867 1.388 . S
C1866 C1865 1.366 . S
C1866 C1870 1.385 . S
C1867 H1842 0.951 . S
C1867 C1865 1.388 . S
C1867 C1868 1.366 . S
C1868 C1867 1.366 . S
C1868 C1869 1.414 . S
C1868 C1871 1.499 . S
C1869 H1843 0.950 . S
C1869 C1868 1.414 . S
C1869 C1870 1.374 . S
C1870 H1844 0.950 . S
C1870 C1866 1.385 . S
C1870 C1869 1.374 . S
C1871 C1868 1.499 . S
C1871 C1872 1.373 . S
C1871 C1873 1.389 . S
C1872 H1845 0.950 . S
C1872 C1858 1.377 . S
C1872 C1871 1.373 . S
C1873 C1857 1.377 . S
C1873 C1871 1.389 . S
C1873 C1874 1.524 . S
C1874 C1873 1.524 . S
C1874 C1875 1.397 . S
C1874 C1879 1.363 . S
C1875 H1846 0.950 . S
C1875 C1874 1.397 . S
C1875 C1876 1.334 . S
C1876 H1847 0.950 . S
C1876 C1875 1.334 . S
C1876 C1877 1.287 . S
C1877 C1876 1.287 . S
C1877 C1878 1.524 . S
C1877 H1880 0.999 . S
C1878 H1848 0.950 . S
C1878 C1877 1.524 . S
C1878 C1879 1.415 . S
C1879 H1849 0.950 . S
C1879 C1874 1.363 . S
C1879 C1878 1.415 . S
H1880 C1877 0.999 . S
H1881 C1862 0.913 . S
H1882 C1900 0.951 . S
H1883 C1902 0.951 . S
H1884 C1904 0.950 . S
H1885 C1905 0.950 . S
H1886 C1907 0.950 . S
H1887 C1910 0.950 . S
H1888 C1911 0.950 . S
H1889 C1913 0.950 . S
H1890 C1914 0.950 . S
H1891 C1915 0.951 . S
H1892 C1917 0.951 . S
H1893 C1919 0.950 . S
H1894 C1920 0.950 . S
H1895 C1922 0.950 . S
H1896 C1925 0.950 1_455 S
H1897 C1926 0.950 . S
H1898 C1928 0.950 . S
H1899 C1929 0.950 . S
C1900 H1882 0.951 . S
C1900 C1901 1.366 . S
C1900 C1902 1.388 . S
C1901 C1900 1.366 . S
C1901 C1905 1.385 . S
C1902 H1883 0.951 . S
C1902 C1900 1.388 . S
C1902 C1903 1.366 . S
C1903 C1902 1.366 . S
C1903 C1904 1.414 . S
C1903 C1906 1.499 . S
C1904 H1884 0.950 . S
C1904 C1903 1.414 . S
C1904 C1905 1.374 . S
C1905 H1885 0.950 . S
C1905 C1901 1.385 . S
C1905 C1904 1.374 . S
C1906 C1903 1.499 . S
C1906 C1907 1.373 . S
C1906 C1908 1.389 . S
C1907 H1886 0.950 . S
C1907 C1906 1.373 . S
C1907 C1923 1.377 . S
C1908 C1906 1.389 . S
C1908 C1909 1.524 . S
C1908 C1922 1.377 . S
C1909 C1908 1.524 . S
C1909 C1910 1.397 . S
C1909 C1914 1.363 . S
C1910 H1887 0.950 . S
C1910 C1909 1.397 . S
C1910 C1911 1.334 . S
C1911 H1888 0.950 . S
C1911 C1910 1.334 . S
C1911 C1912 1.287 . S
C1912 C1911 1.287 . S
C1912 C1913 1.524 . S
C1912 H1931 0.913 . S
C1913 H1889 0.950 . S
C1913 C1912 1.524 . S
C1913 C1914 1.415 . S
C1914 H1890 0.950 . S
C1914 C1909 1.363 . S
C1914 C1913 1.415 . S
C1915 H1891 0.951 . S
C1915 C1916 1.366 . S
C1915 C1917 1.388 . S
C1916 C1915 1.366 . S
C1916 C1920 1.385 . S
C1917 H1892 0.951 . S
C1917 C1915 1.388 . S
C1917 C1918 1.366 . S
C1918 C1917 1.366 . S
C1918 C1919 1.414 . S
C1918 C1921 1.499 . S
C1919 H1893 0.950 . S
C1919 C1918 1.414 . S
C1919 C1920 1.374 . S
C1920 H1894 0.950 . S
C1920 C1916 1.385 . S
C1920 C1919 1.374 . S
C1921 C1918 1.499 . S
C1921 C1922 1.373 . S
C1921 C1923 1.389 . S
C1922 H1895 0.950 . S
C1922 C1908 1.377 . S
C1922 C1921 1.373 . S
C1923 C1907 1.377 . S
C1923 C1921 1.389 . S
C1923 C1924 1.521 . S
C1924 C1923 1.521 . S
C1924 C1925 1.398 1_455 S
C1924 C1929 1.365 1_455 S
C1925 H1896 0.950 1_655 S
C1925 C1924 1.398 1_655 S
C1925 C1926 1.334 . S
C1926 H1897 0.950 . S
C1926 C1925 1.334 . S
C1926 C1927 1.287 . S
C1927 C1926 1.287 . S
C1927 C1928 1.524 . S
C1927 H1930 0.999 . S
C1928 H1898 0.950 . S
C1928 C1927 1.524 . S
C1928 C1929 1.415 . S
C1929 H1899 0.950 . S
C1929 C1924 1.365 1_655 S
C1929 C1928 1.415 . S
H1930 C1927 0.999 . S
H1931 C1912 0.913 . S
H1932 C1950 0.951 . S
H1933 C1952 0.951 . S
H1934 C1954 0.950 . S
H1935 C1955 0.950 . S
H1936 C1957 0.950 . S
H1937 C1960 0.950 . S
H1938 C1961 0.950 . S
H1939 C1963 0.950 . S
H1940 C1964 0.950 . S
H1941 C1965 0.951 . S
H1942 C1967 0.951 . S
H1943 C1969 0.950 . S
H1944 C1970 0.950 . S
H1945 C1972 0.950 . S
H1946 C1975 0.950 . S
H1947 C1976 0.950 . S
H1948 C1978 0.950 . S
H1949 C1979 0.950 . S
C1950 H1932 0.951 . S
C1950 C1951 1.366 . S
C1950 C1952 1.388 . S
C1951 C1950 1.366 . S
C1951 C1955 1.385 . S
C1952 H1933 0.951 . S
C1952 C1950 1.388 . S
C1952 C1953 1.366 . S
C1953 C1952 1.366 . S
C1953 C1954 1.414 . S
C1953 C1956 1.499 . S
C1954 H1934 0.950 . S
C1954 C1953 1.414 . S
C1954 C1955 1.374 . S
C1955 H1935 0.950 . S
C1955 C1951 1.385 . S
C1955 C1954 1.374 . S
C1956 C1953 1.499 . S
C1956 C1957 1.373 . S
C1956 C1958 1.389 . S
C1957 H1936 0.950 . S
C1957 C1956 1.373 . S
C1957 C1973 1.377 . S
C1958 C1956 1.389 . S
C1958 C1959 1.524 . S
C1958 C1972 1.377 . S
C1959 C1958 1.524 . S
C1959 C1960 1.397 . S
C1959 C1964 1.363 . S
C1960 H1937 0.950 . S
C1960 C1959 1.397 . S
C1960 C1961 1.334 . S
C1961 H1938 0.950 . S
C1961 C1960 1.334 . S
C1961 C1962 1.287 . S
C1962 C1961 1.287 . S
C1962 C1963 1.524 . S
C1962 H1981 0.913 . S
C1963 H1939 0.950 . S
C1963 C1962 1.524 . S
C1963 C1964 1.415 . S
C1964 H1940 0.950 . S
C1964 C1959 1.363 . S
C1964 C1963 1.415 . S
C1965 H1941 0.951 . S
C1965 C1966 1.366 . S
C1965 C1967 1.388 . S
C1966 C1965 1.366 . S
C1966 C1970 1.385 . S
C1967 H1942 0.951 . S
C1967 C1965 1.388 . S
C1967 C1968 1.366 . S
C1968 C1967 1.366 . S
C1968 C1969 1.414 . S
C1968 C1971 1.499 . S
C1969 H1943 0.950 . S
C1969 C1968 1.414 . S
C1969 C1970 1.374 . S
C1970 H1944 0.950 . S
C1970 C1966 1.385 . S
C1970 C1969 1.374 . S
C1971 C1968 1.499 . S
C1971 C1972 1.373 . S
C1971 C1973 1.389 . S
C1972 H1945 0.950 . S
C1972 C1958 1.377 . S
C1972 C1971 1.373 . S
C1973 C1957 1.377 . S
C1973 C1971 1.389 . S
C1973 C1974 1.524 . S
C1974 C1973 1.524 . S
C1974 C1975 1.397 . S
C1974 C1979 1.363 . S
C1975 H1946 0.950 . S
C1975 C1974 1.397 . S
C1975 C1976 1.334 . S
C1976 H1947 0.950 . S
C1976 C1975 1.334 . S
C1976 C1977 1.287 . S
C1977 C1976 1.287 . S
C1977 C1978 1.524 . S
C1977 H1980 0.999 . S
C1978 H1948 0.950 . S
C1978 C1977 1.524 . S
C1978 C1979 1.415 . S
C1979 H1949 0.950 . S
C1979 C1974 1.363 . S
C1979 C1978 1.415 . S
H1980 C1977 0.999 . S
H1981 C1962 0.913 . S
H1982 C2000 0.951 . S
H1983 C2002 0.951 . S
H1984 C2004 0.950 . S
H1985 C2005 0.950 . S
H1986 C2007 0.950 . S
H1987 C2010 0.950 . S
H1988 C2011 0.950 . S
H1989 C2013 0.950 . S
H1990 C2014 0.950 . S
H1991 C2015 0.951 . S
H1992 C2017 0.951 . S
H1993 C2019 0.950 . S
H1994 C2020 0.950 . S
H1995 C2022 0.950 . S
H1996 C2025 0.950 . S
H1997 C2026 0.950 . S
H1998 C2028 0.950 . S
H1999 C2029 0.950 . S
C2000 H1982 0.951 . S
C2000 C2001 1.366 . S
C2000 C2002 1.388 . S
C2001 C2000 1.366 . S
C2001 C2005 1.385 1_655 S
C2002 H1983 0.951 . S
C2002 C2000 1.388 . S
C2002 C2003 1.366 . S
C2003 C2002 1.366 . S
C2003 C2004 1.414 1_655 S
C2003 C2006 1.499 . S
C2004 H1984 0.950 . S
C2004 C2003 1.414 1_455 S
C2004 C2005 1.374 . S
C2005 H1985 0.950 . S
C2005 C2001 1.385 1_455 S
C2005 C2004 1.374 . S
C2006 C2003 1.499 . S
C2006 C2007 1.373 1_655 S
C2006 C2008 1.389 . S
C2007 H1986 0.950 . S
C2007 C2006 1.373 1_455 S
C2007 C2023 1.377 . S
C2008 C2006 1.389 . S
C2008 C2009 1.524 . S
C2008 C2022 1.377 . S
C2009 C2008 1.524 . S
C2009 C2010 1.397 . S
C2009 C2014 1.363 . S
C2010 H1987 0.950 . S
C2010 C2009 1.397 . S
C2010 C2011 1.334 . S
C2011 H1988 0.950 . S
C2011 C2010 1.334 . S
C2011 C2012 1.287 . S
C2012 C2011 1.287 . S
C2012 C2013 1.524 . S
C2012 H2031 0.913 . S
C2013 H1989 0.950 . S
C2013 C2012 1.524 . S
C2013 C2014 1.415 . S
C2014 H1990 0.950 . S
C2014 C2009 1.363 . S
C2014 C2013 1.415 . S
C2015 H1991 0.951 . S
C2015 C2016 1.366 1_455 S
C2015 C2017 1.388 . S
C2016 C2015 1.366 1_655 S
C2016 C2020 1.385 . S
C2017 H1992 0.951 . S
C2017 C2015 1.388 . S
C2017 C2018 1.366 1_455 S
C2018 C2017 1.366 1_655 S
C2018 C2019 1.414 . S
C2018 C2021 1.499 . S
C2019 H1993 0.950 . S
C2019 C2018 1.414 . S
C2019 C2020 1.374 . S
C2020 H1994 0.950 . S
C2020 C2016 1.385 . S
C2020 C2019 1.374 . S
C2021 C2018 1.499 . S
C2021 C2022 1.373 . S
C2021 C2023 1.389 1_655 S
C2022 H1995 0.950 . S
C2022 C2008 1.377 . S
C2022 C2021 1.373 . S
C2023 C2007 1.377 . S
C2023 C2021 1.389 1_455 S
C2023 C2024 1.524 . S
C2024 C2023 1.524 . S
C2024 C2025 1.397 . S
C2024 C2029 1.363 . S
C2025 H1996 0.950 . S
C2025 C2024 1.397 . S
C2025 C2026 1.334 . S
C2026 H1997 0.950 . S
C2026 C2025 1.334 . S
C2026 C2027 1.287 . S
C2027 C2026 1.287 . S
C2027 C2028 1.524 . S
C2027 H2030 0.999 . S
C2028 H1998 0.950 . S
C2028 C2027 1.524 . S
C2028 C2029 1.415 . S
C2029 H1999 0.950 . S
C2029 C2024 1.363 . S
C2029 C2028 1.415 . S
H2030 C2027 0.999 . S
H2031 C2012 0.913 . S
H2032 C2050 0.951 . S
H2033 C2052 0.951 . S
H2034 C2054 0.950 . S
H2035 C2055 0.950 . S
H2036 C2057 0.950 . S
H2037 C2060 0.950 . S
H2038 C2061 0.950 . S
H2039 C2063 0.950 . S
H2040 C2064 0.950 . S
H2041 C2065 0.951 . S
H2042 C2067 0.951 . S
H2043 C2069 0.950 . S
H2044 C2070 0.950 . S
H2045 C2072 0.950 . S
H2046 C2075 0.950 . S
H2047 C2076 0.950 . S
H2048 C2078 0.950 . S
H2049 C2079 0.950 . S
C2050 H2032 0.951 . S
C2050 C2051 1.366 . S
C2050 C2052 1.388 . S
C2051 C2050 1.366 . S
C2051 C2055 1.385 . S
C2052 H2033 0.951 . S
C2052 C2050 1.388 . S
C2052 C2053 1.366 . S
C2053 C2052 1.366 . S
C2053 C2054 1.414 . S
C2053 C2056 1.499 . S
C2054 H2034 0.950 . S
C2054 C2053 1.414 . S
C2054 C2055 1.374 . S
C2055 H2035 0.950 . S
C2055 C2051 1.385 . S
C2055 C2054 1.374 . S
C2056 C2053 1.499 . S
C2056 C2057 1.373 . S
C2056 C2058 1.389 . S
C2057 H2036 0.950 . S
C2057 C2056 1.373 . S
C2057 C2073 1.377 . S
C2058 C2056 1.389 . S
C2058 C2059 1.524 . S
C2058 C2072 1.377 . S
C2059 C2058 1.524 . S
C2059 C2060 1.397 . S
C2059 C2064 1.363 . S
C2060 H2037 0.950 . S
C2060 C2059 1.397 . S
C2060 C2061 1.334 . S
C2061 H2038 0.950 . S
C2061 C2060 1.334 . S
C2061 C2062 1.287 . S
C2062 C2061 1.287 . S
C2062 C2063 1.524 . S
C2062 H2081 0.913 . S
C2063 H2039 0.950 . S
C2063 C2062 1.524 . S
C2063 C2064 1.415 . S
C2064 H2040 0.950 . S
C2064 C2059 1.363 . S
C2064 C2063 1.415 . S
C2065 H2041 0.951 . S
C2065 C2066 1.366 . S
C2065 C2067 1.388 . S
C2066 C2065 1.366 . S
C2066 C2070 1.385 . S
C2067 H2042 0.951 . S
C2067 C2065 1.388 . S
C2067 C2068 1.366 . S
C2068 C2067 1.366 . S
C2068 C2069 1.414 . S
C2068 C2071 1.499 . S
C2069 H2043 0.950 . S
C2069 C2068 1.414 . S
C2069 C2070 1.374 . S
C2070 H2044 0.950 . S
C2070 C2066 1.385 . S
C2070 C2069 1.374 . S
C2071 C2068 1.499 . S
C2071 C2072 1.373 . S
C2071 C2073 1.389 . S
C2072 H2045 0.950 . S
C2072 C2058 1.377 . S
C2072 C2071 1.373 . S
C2073 C2057 1.377 . S
C2073 C2071 1.389 . S
C2073 C2074 1.524 . S
C2074 C2073 1.524 . S
C2074 C2075 1.397 . S
C2074 C2079 1.363 . S
C2075 H2046 0.950 . S
C2075 C2074 1.397 . S
C2075 C2076 1.334 . S
C2076 H2047 0.950 . S
C2076 C2075 1.334 . S
C2076 C2077 1.287 . S
C2077 C2076 1.287 . S
C2077 C2078 1.524 . S
C2077 H2080 0.999 . S
C2078 H2048 0.950 . S
C2078 C2077 1.524 . S
C2078 C2079 1.415 . S
C2079 H2049 0.950 . S
C2079 C2074 1.363 . S
C2079 C2078 1.415 . S
H2080 C2077 0.999 . S
H2081 C2062 0.913 . S
H2082 C2100 0.951 . S
H2083 C2102 0.951 . S
H2084 C2104 0.950 . S
H2085 C2105 0.950 . S
H2086 C2107 0.950 . S
H2087 C2110 0.950 . S
H2088 C2111 0.950 . S
H2089 C2113 0.950 . S
H2090 C2114 0.950 . S
H2091 C2115 0.951 . S
H2092 C2117 0.951 . S
H2093 C2119 0.950 . S
H2094 C2120 0.950 . S
H2095 C2122 0.950 . S
H2096 C2125 0.950 . S
H2097 C2126 0.950 . S
H2098 C2128 0.950 . S
H2099 C2129 0.950 . S
C2100 H2082 0.951 . S
C2100 C2101 1.366 . S
C2100 C2102 1.388 . S
C2101 C2100 1.366 . S
C2101 C2105 1.385 . S
C2102 H2083 0.951 . S
C2102 C2100 1.388 . S
C2102 C2103 1.366 . S
C2103 C2102 1.366 . S
C2103 C2104 1.414 . S
C2103 C2106 1.499 . S
C2104 H2084 0.950 . S
C2104 C2103 1.414 . S
C2104 C2105 1.374 . S
C2105 H2085 0.950 . S
C2105 C2101 1.385 . S
C2105 C2104 1.374 . S
C2106 C2103 1.499 . S
C2106 C2107 1.373 . S
C2106 C2108 1.389 . S
C2107 H2086 0.950 . S
C2107 C2106 1.373 . S
C2107 C2123 1.377 . S
C2108 C2106 1.389 . S
C2108 C2109 1.524 . S
C2108 C2122 1.377 . S
C2109 C2108 1.524 . S
C2109 C2110 1.397 . S
C2109 C2114 1.363 . S
C2110 H2087 0.950 . S
C2110 C2109 1.397 . S
C2110 C2111 1.334 . S
C2111 H2088 0.950 . S
C2111 C2110 1.334 . S
C2111 C2112 1.287 . S
C2112 C2111 1.287 . S
C2112 C2113 1.524 . S
C2112 H2131 0.913 . S
C2113 H2089 0.950 . S
C2113 C2112 1.524 . S
C2113 C2114 1.415 . S
C2114 H2090 0.950 . S
C2114 C2109 1.363 . S
C2114 C2113 1.415 . S
C2115 H2091 0.951 . S
C2115 C2116 1.366 . S
C2115 C2117 1.388 . S
C2116 C2115 1.366 . S
C2116 C2120 1.385 . S
C2117 H2092 0.951 . S
C2117 C2115 1.388 . S
C2117 C2118 1.366 . S
C2118 C2117 1.366 . S
C2118 C2119 1.414 . S
C2118 C2121 1.499 . S
C2119 H2093 0.950 . S
C2119 C2118 1.414 . S
C2119 C2120 1.374 . S
C2120 H2094 0.950 . S
C2120 C2116 1.385 . S
C2120 C2119 1.374 . S
C2121 C2118 1.499 . S
C2121 C2122 1.373 . S
C2121 C2123 1.389 . S
C2122 H2095 0.950 . S
C2122 C2108 1.377 . S
C2122 C2121 1.373 . S
C2123 C2107 1.377 . S
C2123 C2121 1.389 . S
C2123 C2124 1.524 . S
C2124 C2123 1.524 . S
C2124 C2125 1.397 . S
C2124 C2129 1.363 . S
C2125 H2096 0.950 . S
C2125 C2124 1.397 . S
C2125 C2126 1.334 . S
C2126 H2097 0.950 . S
C2126 C2125 1.334 . S
C2126 C2127 1.287 . S
C2127 C2126 1.287 . S
C2127 C2128 1.524 . S
C2127 H2130 0.999 . S
C2128 H2098 0.950 . S
C2128 C2127 1.524 . S
C2128 C2129 1.415 . S
C2129 H2099 0.950 . S
C2129 C2124 1.363 . S
C2129 C2128 1.415 . S
H2130 C2127 0.999 . S
H2131 C2112 0.913 . S
H2132 C2150 0.951 . S
H2133 C2152 0.951 1_554 S
H2134 C2154 0.950 . S
H2135 C2155 0.950 . S
H2136 C2157 0.966 1_545 S
H2137 C2160 0.950 . S
H2138 C2161 0.950 . S
H2139 C2163 0.950 1_554 S
H2140 C2164 0.950 . S
H2141 C2165 0.951 . S
H2142 C2167 0.951 1_556 S
H2143 C2169 0.950 . S
H2144 C2170 0.950 . S
H2145 C2172 0.950 . S
H2146 C2175 0.950 . S
H2147 C2176 0.950 . S
H2148 C2178 0.950 1_556 S
H2149 C2179 0.949 1_556 S
C2150 H2132 0.951 . S
C2150 C2151 1.366 . S
C2150 C2152 1.388 1_545 S
C2151 C2150 1.366 . S
C2151 C2155 1.385 . S
C2152 H2133 0.951 1_556 S
C2152 C2150 1.388 1_565 S
C2152 C2153 1.366 . S
C2153 C2152 1.366 . S
C2153 C2154 1.414 1_565 S
C2153 C2156 1.499 . S
C2154 H2134 0.950 . S
C2154 C2153 1.414 1_545 S
C2154 C2155 1.374 . S
C2155 H2135 0.950 . S
C2155 C2151 1.385 . S
C2155 C2154 1.374 . S
C2156 C2153 1.499 . S
C2156 C2157 1.383 . S
C2156 C2158 1.389 . S
C2157 H2136 0.966 1_565 S
C2157 C2156 1.383 . S
C2157 C2173 1.354 1_556 S
C2158 C2156 1.389 . S
C2158 C2159 1.524 . S
C2158 C2172 1.377 1_556 S
C2159 C2158 1.524 . S
C2159 C2160 1.397 . S
C2159 C2164 1.363 1_556 S
C2160 H2137 0.950 . S
C2160 C2159 1.397 . S
C2160 C2161 1.334 . S
C2161 H2138 0.950 . S
C2161 C2160 1.334 . S
C2161 C2162 1.287 . S
C2162 C2161 1.287 . S
C2162 C2163 1.524 . S
C2162 H2181 0.913 . S
C2163 H2139 0.950 1_556 S
C2163 C2162 1.524 . S
C2163 C2164 1.415 1_556 S
C2164 H2140 0.950 . S
C2164 C2159 1.363 1_554 S
C2164 C2163 1.415 1_554 S
C2165 H2141 0.951 . S
C2165 C2166 1.366 . S
C2165 C2167 1.388 . S
C2166 C2165 1.366 . S
C2166 C2170 1.385 . S
C2167 H2142 0.951 1_554 S
C2167 C2165 1.388 . S
C2167 C2168 1.366 . S
C2168 C2167 1.366 . S
C2168 C2169 1.414 . S
C2168 C2171 1.499 . S
C2169 H2143 0.950 . S
C2169 C2168 1.414 . S
C2169 C2170 1.374 . S
C2170 H2144 0.950 . S
C2170 C2166 1.385 . S
C2170 C2169 1.374 . S
C2171 C2168 1.499 . S
C2171 C2172 1.373 . S
C2171 C2173 1.389 . S
C2172 H2145 0.950 . S
C2172 C2158 1.377 1_554 S
C2172 C2171 1.373 . S
C2173 C2157 1.354 1_554 S
C2173 C2171 1.389 . S
C2173 C2174 1.524 . S
C2174 C2173 1.524 . S
C2174 C2175 1.397 . S
C2174 C2179 1.363 1_565 S
C2175 H2146 0.950 . S
C2175 C2174 1.397 . S
C2175 C2176 1.334 1_565 S
C2176 H2147 0.950 . S
C2176 C2175 1.334 1_545 S
C2176 C2177 1.287 . S
C2177 C2176 1.287 . S
C2177 C2178 1.524 . S
C2177 H2180 0.999 . S
C2178 H2148 0.950 1_554 S
C2178 C2177 1.524 . S
C2178 C2179 1.415 . S
C2179 H2149 0.949 1_554 S
C2179 C2174 1.363 1_545 S
C2179 C2178 1.415 . S
H2180 C2177 0.999 . S
H2181 C2162 0.913 . S
H2182 C2200 0.951 . S
H2183 C2202 0.951 . S
H2184 C2204 0.950 . S
H2185 C2205 0.950 . S
H2186 C2207 0.950 . S
H2187 C2210 0.950 . S
H2188 C2211 0.950 . S
H2189 C2213 0.950 . S
H2190 C2214 0.950 . S
H2191 C2215 0.951 . S
H2192 C2217 0.951 . S
H2193 C2219 0.950 . S
H2194 C2220 0.950 . S
H2195 C2222 0.950 . S
H2196 C2225 0.950 . S
H2197 C2226 0.950 . S
H2198 C2228 0.950 . S
H2199 C2229 0.950 . S
C2200 H2182 0.951 . S
C2200 C2201 1.366 . S
C2200 C2202 1.388 . S
C2201 C2200 1.366 . S
C2201 C2205 1.385 . S
C2202 H2183 0.951 . S
C2202 C2200 1.388 . S
C2202 C2203 1.366 . S
C2203 C2202 1.366 . S
C2203 C2204 1.414 . S
C2203 C2206 1.499 . S
C2204 H2184 0.950 . S
C2204 C2203 1.414 . S
C2204 C2205 1.374 . S
C2205 H2185 0.950 . S
C2205 C2201 1.385 . S
C2205 C2204 1.374 . S
C2206 C2203 1.499 . S
C2206 C2207 1.373 . S
C2206 C2208 1.389 . S
C2207 H2186 0.950 . S
C2207 C2206 1.373 . S
C2207 C2223 1.377 . S
C2208 C2206 1.389 . S
C2208 C2209 1.524 . S
C2208 C2222 1.377 . S
C2209 C2208 1.524 . S
C2209 C2210 1.397 . S
C2209 C2214 1.363 . S
C2210 H2187 0.950 . S
C2210 C2209 1.397 . S
C2210 C2211 1.334 . S
C2211 H2188 0.950 . S
C2211 C2210 1.334 . S
C2211 C2212 1.287 . S
C2212 C2211 1.287 . S
C2212 C2213 1.524 . S
C2212 H2231 0.913 . S
C2213 H2189 0.950 . S
C2213 C2212 1.524 . S
C2213 C2214 1.415 . S
C2214 H2190 0.950 . S
C2214 C2209 1.363 . S
C2214 C2213 1.415 . S
C2215 H2191 0.951 . S
C2215 C2216 1.366 . S
C2215 C2217 1.388 . S
C2216 C2215 1.366 . S
C2216 C2220 1.385 . S
C2217 H2192 0.951 . S
C2217 C2215 1.388 . S
C2217 C2218 1.366 . S
C2218 C2217 1.366 . S
C2218 C2219 1.414 . S
C2218 C2221 1.499 . S
C2219 H2193 0.950 . S
C2219 C2218 1.414 . S
C2219 C2220 1.374 . S
C2220 H2194 0.950 . S
C2220 C2216 1.385 . S
C2220 C2219 1.374 . S
C2221 C2218 1.499 . S
C2221 C2222 1.373 . S
C2221 C2223 1.389 . S
C2222 H2195 0.950 . S
C2222 C2208 1.377 . S
C2222 C2221 1.373 . S
C2223 C2207 1.377 . S
C2223 C2221 1.389 . S
C2223 C2224 1.524 . S
C2224 C2223 1.524 . S
C2224 C2225 1.397 . S
C2224 C2229 1.363 . S
C2225 H2196 0.950 . S
C2225 C2224 1.397 . S
C2225 C2226 1.334 . S
C2226 H2197 0.950 . S
C2226 C2225 1.334 . S
C2226 C2227 1.287 . S
C2227 C2226 1.287 . S
C2227 C2228 1.524 . S
C2227 H2230 0.999 . S
C2228 H2198 0.950 . S
C2228 C2227 1.524 . S
C2228 C2229 1.415 . S
C2229 H2199 0.950 . S
C2229 C2224 1.363 . S
C2229 C2228 1.415 . S
H2230 C2227 0.999 . S
H2231 C2212 0.913 . S
H2232 C2250 0.951 . S
H2233 C2252 0.951 . S
H2234 C2254 0.963 . S
H2235 C2255 0.950 . S
H2236 C2257 0.950 . S
H2237 C2260 0.950 . S
H2238 C2261 0.950 1_565 S
H2239 C2263 0.950 . S
H2240 C2264 0.950 . S
H2241 C2265 0.951 . S
H2242 C2267 0.951 . S
H2243 C2269 0.950 . S
H2244 C2270 0.950 . S
H2245 C2272 0.950 . S
H2246 C2275 0.950 . S
H2247 C2276 0.950 . S
H2248 C2278 0.950 . S
H2249 C2279 0.950 . S
C2250 H2232 0.951 . S
C2250 C2251 1.366 1_545 S
C2250 C2252 1.388 . S
C2251 C2250 1.366 1_565 S
C2251 C2255 1.385 . S
C2252 H2233 0.951 . S
C2252 C2250 1.388 . S
C2252 C2253 1.366 . S
C2253 C2252 1.366 . S
C2253 C2254 1.414 . S
C2253 C2256 1.499 . S
C2254 H2234 0.963 . S
C2254 C2253 1.414 . S
C2254 C2255 1.374 1_545 S
C2255 H2235 0.950 . S
C2255 C2251 1.385 . S
C2255 C2254 1.374 1_565 S
C2256 C2253 1.499 . S
C2256 C2257 1.373 . S
C2256 C2258 1.389 . S
C2257 H2236 0.950 . S
C2257 C2256 1.373 . S
C2257 C2273 1.377 . S
C2258 C2256 1.389 . S
C2258 C2259 1.524 . S
C2258 C2272 1.377 . S
C2259 C2258 1.524 . S
C2259 C2260 1.397 . S
C2259 C2264 1.363 . S
C2260 H2237 0.950 . S
C2260 C2259 1.397 . S
C2260 C2261 1.334 . S
C2261 H2238 0.950 1_545 S
C2261 C2260 1.334 . S
C2261 C2262 1.287 . S
C2262 C2261 1.287 . S
C2262 C2263 1.524 . S
C2262 H2281 0.913 . S
C2263 H2239 0.950 . S
C2263 C2262 1.524 . S
C2263 C2264 1.415 . S
C2264 H2240 0.950 . S
C2264 C2259 1.363 . S
C2264 C2263 1.415 . S
C2265 H2241 0.951 . S
C2265 C2266 1.366 . S
C2265 C2267 1.388 . S
C2266 C2265 1.366 . S
C2266 C2270 1.385 . S
C2267 H2242 0.951 . S
C2267 C2265 1.388 . S
C2267 C2268 1.366 . S
C2268 C2267 1.366 . S
C2268 C2269 1.414 . S
C2268 C2271 1.499 . S
C2269 H2243 0.950 . S
C2269 C2268 1.414 . S
C2269 C2270 1.374 . S
C2270 H2244 0.950 . S
C2270 C2266 1.385 . S
C2270 C2269 1.374 . S
C2271 C2268 1.499 . S
C2271 C2272 1.373 . S
C2271 C2273 1.389 . S
C2272 H2245 0.950 . S
C2272 C2258 1.377 . S
C2272 C2271 1.373 . S
C2273 C2257 1.377 . S
C2273 C2271 1.389 . S
C2273 C2274 1.524 . S
C2274 C2273 1.524 . S
C2274 C2275 1.397 . S
C2274 C2279 1.363 . S
C2275 H2246 0.950 . S
C2275 C2274 1.397 . S
C2275 C2276 1.334 . S
C2276 H2247 0.950 . S
C2276 C2275 1.334 . S
C2276 C2277 1.287 . S
C2277 C2276 1.287 . S
C2277 C2278 1.524 . S
C2277 H2280 0.999 . S
C2278 H2248 0.950 . S
C2278 C2277 1.524 . S
C2278 C2279 1.415 . S
C2279 H2249 0.950 . S
C2279 C2274 1.363 . S
C2279 C2278 1.415 . S
H2280 C2277 0.999 . S
H2281 C2262 0.913 . S
H2282 C2300 0.951 . S
H2283 C2302 0.951 . S
H2284 C2304 0.950 . S
H2285 C2305 0.950 . S
H2286 C2307 0.950 . S
H2287 C2310 0.950 . S
H2288 C2311 0.950 . S
H2289 C2313 0.950 . S
H2290 C2314 0.950 . S
H2291 C2315 0.951 . S
H2292 C2317 0.951 . S
H2293 C2319 0.950 . S
H2294 C2320 0.950 . S
H2295 C2322 0.950 . S
H2296 C2325 0.950 . S
H2297 C2326 0.950 . S
H2298 C2328 0.950 . S
H2299 C2329 0.950 . S
C2300 H2282 0.951 . S
C2300 C2301 1.366 . S
C2300 C2302 1.388 . S
C2301 C2300 1.366 . S
C2301 C2305 1.385 . S
C2302 H2283 0.951 . S
C2302 C2300 1.388 . S
C2302 C2303 1.366 . S
C2303 C2302 1.366 . S
C2303 C2304 1.414 . S
C2303 C2306 1.499 . S
C2304 H2284 0.950 . S
C2304 C2303 1.414 . S
C2304 C2305 1.374 . S
C2305 H2285 0.950 . S
C2305 C2301 1.385 . S
C2305 C2304 1.374 . S
C2306 C2303 1.499 . S
C2306 C2307 1.373 . S
C2306 C2308 1.389 . S
C2307 H2286 0.950 . S
C2307 C2306 1.373 . S
C2307 C2323 1.377 . S
C2308 C2306 1.389 . S
C2308 C2309 1.524 . S
C2308 C2322 1.377 . S
C2309 C2308 1.524 . S
C2309 C2310 1.397 . S
C2309 C2314 1.363 . S
C2310 H2287 0.950 . S
C2310 C2309 1.397 . S
C2310 C2311 1.334 . S
C2311 H2288 0.950 . S
C2311 C2310 1.334 . S
C2311 C2312 1.287 . S
C2312 C2311 1.287 . S
C2312 C2313 1.524 . S
C2312 H2331 0.913 . S
C2313 H2289 0.950 . S
C2313 C2312 1.524 . S
C2313 C2314 1.415 . S
C2314 H2290 0.950 . S
C2314 C2309 1.363 . S
C2314 C2313 1.415 . S
C2315 H2291 0.951 . S
C2315 C2316 1.366 . S
C2315 C2317 1.388 . S
C2316 C2315 1.366 . S
C2316 C2320 1.385 . S
C2317 H2292 0.951 . S
C2317 C2315 1.388 . S
C2317 C2318 1.366 . S
C2318 C2317 1.366 . S
C2318 C2319 1.414 . S
C2318 C2321 1.499 . S
C2319 H2293 0.950 . S
C2319 C2318 1.414 . S
C2319 C2320 1.374 . S
C2320 H2294 0.950 . S
C2320 C2316 1.385 . S
C2320 C2319 1.374 . S
C2321 C2318 1.499 . S
C2321 C2322 1.373 . S
C2321 C2323 1.389 . S
C2322 H2295 0.950 . S
C2322 C2308 1.377 . S
C2322 C2321 1.373 . S
C2323 C2307 1.377 . S
C2323 C2321 1.389 . S
C2323 C2324 1.524 . S
C2324 C2323 1.524 . S
C2324 C2325 1.397 . S
C2324 C2329 1.363 . S
C2325 H2296 0.950 . S
C2325 C2324 1.397 . S
C2325 C2326 1.334 . S
C2326 H2297 0.950 . S
C2326 C2325 1.334 . S
C2326 C2327 1.287 . S
C2327 C2326 1.287 . S
C2327 C2328 1.524 . S
C2327 H2330 0.999 . S
C2328 H2298 0.950 . S
C2328 C2327 1.524 . S
C2328 C2329 1.415 . S
C2329 H2299 0.950 . S
C2329 C2324 1.363 . S
C2329 C2328 1.415 . S
H2330 C2327 0.999 . S
H2331 C2312 0.913 . S
H2332 C2350 0.951 . S
H2333 C2352 0.951 . S
H2334 C2354 0.950 . S
H2335 C2355 0.950 . S
H2336 C2357 0.950 . S
H2337 C2360 0.950 . S
H2338 C2361 0.950 1_565 S
H2339 C2363 0.950 1_565 S
H2340 C2364 0.950 . S
H2341 C2365 0.951 . S
H2342 C2367 0.951 . S
H2343 C2369 0.950 . S
H2344 C2370 0.950 . S
H2345 C2372 0.950 . S
H2346 C2375 0.950 . S
H2347 C2376 0.950 . S
H2348 C2378 0.950 . S
H2349 C2379 0.950 . S
C2350 H2332 0.951 . S
C2350 C2351 1.366 . S
C2350 C2352 1.388 . S
C2351 C2350 1.366 . S
C2351 C2355 1.385 . S
C2352 H2333 0.951 . S
C2352 C2350 1.388 . S
C2352 C2353 1.366 . S
C2353 C2352 1.366 . S
C2353 C2354 1.414 . S
C2353 C2356 1.499 . S
C2354 H2334 0.950 . S
C2354 C2353 1.414 . S
C2354 C2355 1.374 . S
C2355 H2335 0.950 . S
C2355 C2351 1.385 . S
C2355 C2354 1.374 . S
C2356 C2353 1.499 . S
C2356 C2357 1.373 . S
C2356 C2358 1.389 . S
C2357 H2336 0.950 . S
C2357 C2356 1.373 . S
C2357 C2373 1.377 . S
C2358 C2356 1.389 . S
C2358 C2359 1.524 . S
C2358 C2372 1.377 . S
C2359 C2358 1.524 . S
C2359 C2360 1.397 . S
C2359 C2364 1.363 . S
C2360 H2337 0.950 . S
C2360 C2359 1.397 . S
C2360 C2361 1.334 . S
C2361 H2338 0.950 1_545 S
C2361 C2360 1.334 . S
C2361 C2362 1.287 1_545 S
C2362 C2361 1.287 1_565 S
C2362 C2363 1.524 1_565 S
C2362 H2381 0.913 . S
C2363 H2339 0.950 1_545 S
C2363 C2362 1.524 1_545 S
C2363 C2364 1.415 . S
C2364 H2340 0.950 . S
C2364 C2359 1.363 . S
C2364 C2363 1.415 . S
C2365 H2341 0.951 . S
C2365 C2366 1.366 . S
C2365 C2367 1.388 . S
C2366 C2365 1.366 . S
C2366 C2370 1.385 . S
C2367 H2342 0.951 . S
C2367 C2365 1.388 . S
C2367 C2368 1.366 . S
C2368 C2367 1.366 . S
C2368 C2369 1.414 . S
C2368 C2371 1.499 . S
C2369 H2343 0.950 . S
C2369 C2368 1.414 . S
C2369 C2370 1.374 . S
C2370 H2344 0.950 . S
C2370 C2366 1.385 . S
C2370 C2369 1.374 . S
C2371 C2368 1.499 . S
C2371 C2372 1.373 . S
C2371 C2373 1.389 . S
C2372 H2345 0.950 . S
C2372 C2358 1.377 . S
C2372 C2371 1.373 . S
C2373 C2357 1.377 . S
C2373 C2371 1.389 . S
C2373 C2374 1.524 . S
C2374 C2373 1.524 . S
C2374 C2375 1.397 . S
C2374 C2379 1.363 . S
C2375 H2346 0.950 . S
C2375 C2374 1.397 . S
C2375 C2376 1.334 . S
C2376 H2347 0.950 . S
C2376 C2375 1.334 . S
C2376 C2377 1.287 . S
C2377 C2376 1.287 . S
C2377 C2378 1.524 . S
C2377 H2380 0.999 . S
C2378 H2348 0.950 . S
C2378 C2377 1.524 . S
C2378 C2379 1.415 . S
C2379 H2349 0.950 . S
C2379 C2374 1.363 . S
C2379 C2378 1.415 . S
H2380 C2377 0.999 . S
H2381 C2362 0.913 . S
H2382 C2400 0.951 . S
H2383 C2402 0.951 . S
H2384 C2404 0.950 . S
H2385 C2405 0.950 . S
H2386 C2407 0.950 . S
H2387 C2410 0.950 . S
H2388 C2411 0.950 . S
H2389 C2413 0.950 . S
H2390 C2414 0.950 . S
H2391 C2415 0.951 . S
H2392 C2417 0.951 . S
H2393 C2419 0.950 . S
H2394 C2420 0.950 . S
H2395 C2422 0.950 . S
H2396 C2425 0.950 . S
H2397 C2426 0.950 . S
H2398 C2428 0.950 . S
H2399 C2429 0.950 . S
C2400 H2382 0.951 . S
C2400 C2401 1.366 . S
C2400 C2402 1.388 . S
C2401 C2400 1.366 . S
C2401 C2405 1.385 . S
C2402 H2383 0.951 . S
C2402 C2400 1.388 . S
C2402 C2403 1.366 . S
C2403 C2402 1.366 . S
C2403 C2404 1.414 . S
C2403 C2406 1.499 . S
C2404 H2384 0.950 . S
C2404 C2403 1.414 . S
C2404 C2405 1.374 . S
C2405 H2385 0.950 . S
C2405 C2401 1.385 . S
C2405 C2404 1.374 . S
C2406 C2403 1.499 . S
C2406 C2407 1.373 . S
C2406 C2408 1.389 . S
C2407 H2386 0.950 . S
C2407 C2406 1.373 . S
C2407 C2423 1.377 . S
C2408 C2406 1.389 . S
C2408 C2409 1.524 . S
C2408 C2422 1.377 . S
C2409 C2408 1.524 . S
C2409 C2410 1.397 . S
C2409 C2414 1.363 . S
C2410 H2387 0.950 . S
C2410 C2409 1.397 . S
C2410 C2411 1.334 . S
C2411 H2388 0.950 . S
C2411 C2410 1.334 . S
C2411 C2412 1.287 . S
C2412 C2411 1.287 . S
C2412 C2413 1.524 . S
C2412 H2431 0.913 . S
C2413 H2389 0.950 . S
C2413 C2412 1.524 . S
C2413 C2414 1.415 . S
C2414 H2390 0.950 . S
C2414 C2409 1.363 . S
C2414 C2413 1.415 . S
C2415 H2391 0.951 . S
C2415 C2416 1.366 . S
C2415 C2417 1.388 . S
C2416 C2415 1.366 . S
C2416 C2420 1.385 . S
C2417 H2392 0.951 . S
C2417 C2415 1.388 . S
C2417 C2418 1.366 . S
C2418 C2417 1.366 . S
C2418 C2419 1.414 . S
C2418 C2421 1.499 . S
C2419 H2393 0.950 . S
C2419 C2418 1.414 . S
C2419 C2420 1.374 . S
C2420 H2394 0.950 . S
C2420 C2416 1.385 . S
C2420 C2419 1.374 . S
C2421 C2418 1.499 . S
C2421 C2422 1.373 . S
C2421 C2423 1.389 . S
C2422 H2395 0.950 . S
C2422 C2408 1.377 . S
C2422 C2421 1.373 . S
C2423 C2407 1.377 . S
C2423 C2421 1.389 . S
C2423 C2424 1.524 . S
C2424 C2423 1.524 . S
C2424 C2425 1.397 . S
C2424 C2429 1.363 . S
C2425 H2396 0.950 . S
C2425 C2424 1.397 . S
C2425 C2426 1.334 . S
C2426 H2397 0.950 . S
C2426 C2425 1.334 . S
C2426 C2427 1.287 . S
C2427 C2426 1.287 . S
C2427 C2428 1.524 . S
C2427 H2430 0.999 . S
C2428 H2398 0.950 . S
C2428 C2427 1.524 . S
C2428 C2429 1.415 . S
C2429 H2399 0.950 . S
C2429 C2424 1.363 . S
C2429 C2428 1.415 . S
H2430 C2427 0.999 . S
H2431 C2412 0.913 . S
H2432 C2450 0.951 . S
H2433 C2452 0.951 . S
H2434 C2454 0.950 . S
H2435 C2455 0.950 . S
H2436 C2457 0.950 . S
H2437 C2460 0.950 . S
H2438 C2461 0.950 . S
H2439 C2463 0.950 . S
H2440 C2464 0.950 . S
H2441 C2465 0.951 . S
H2442 C2467 0.951 . S
H2443 C2469 0.950 . S
H2444 C2470 0.950 . S
H2445 C2472 0.950 . S
H2446 C2475 0.950 . S
H2447 C2476 0.950 . S
H2448 C2478 0.950 . S
H2449 C2479 0.950 . S
C2450 H2432 0.951 . S
C2450 C2451 1.366 . S
C2450 C2452 1.388 . S
C2451 C2450 1.366 . S
C2451 C2455 1.385 . S
C2452 H2433 0.951 . S
C2452 C2450 1.388 . S
C2452 C2453 1.366 . S
C2453 C2452 1.366 . S
C2453 C2454 1.414 . S
C2453 C2456 1.499 . S
C2454 H2434 0.950 . S
C2454 C2453 1.414 . S
C2454 C2455 1.374 . S
C2455 H2435 0.950 . S
C2455 C2451 1.385 . S
C2455 C2454 1.374 . S
C2456 C2453 1.499 . S
C2456 C2457 1.373 . S
C2456 C2458 1.389 . S
C2457 H2436 0.950 . S
C2457 C2456 1.373 . S
C2457 C2473 1.377 . S
C2458 C2456 1.389 . S
C2458 C2459 1.524 . S
C2458 C2472 1.377 . S
C2459 C2458 1.524 . S
C2459 C2460 1.397 . S
C2459 C2464 1.363 . S
C2460 H2437 0.950 . S
C2460 C2459 1.397 . S
C2460 C2461 1.334 . S
C2461 H2438 0.950 . S
C2461 C2460 1.334 . S
C2461 C2462 1.287 . S
C2462 C2461 1.287 . S
C2462 C2463 1.524 . S
C2462 H2481 0.913 . S
C2463 H2439 0.950 . S
C2463 C2462 1.524 . S
C2463 C2464 1.415 . S
C2464 H2440 0.950 . S
C2464 C2459 1.363 . S
C2464 C2463 1.415 . S
C2465 H2441 0.951 . S
C2465 C2466 1.366 . S
C2465 C2467 1.388 . S
C2466 C2465 1.366 . S
C2466 C2470 1.385 . S
C2467 H2442 0.951 . S
C2467 C2465 1.388 . S
C2467 C2468 1.366 . S
C2468 C2467 1.366 . S
C2468 C2469 1.414 . S
C2468 C2471 1.499 . S
C2469 H2443 0.950 . S
C2469 C2468 1.414 . S
C2469 C2470 1.374 . S
C2470 H2444 0.950 . S
C2470 C2466 1.385 . S
C2470 C2469 1.374 . S
C2471 C2468 1.499 . S
C2471 C2472 1.373 . S
C2471 C2473 1.389 . S
C2472 H2445 0.950 . S
C2472 C2458 1.377 . S
C2472 C2471 1.373 . S
C2473 C2457 1.377 . S
C2473 C2471 1.389 . S
C2473 C2474 1.524 . S
C2474 C2473 1.524 . S
C2474 C2475 1.397 . S
C2474 C2479 1.363 . S
C2475 H2446 0.950 . S
C2475 C2474 1.397 . S
C2475 C2476 1.334 . S
C2476 H2447 0.950 . S
C2476 C2475 1.334 . S
C2476 C2477 1.287 . S
C2477 C2476 1.287 . S
C2477 C2478 1.524 . S
C2477 H2480 0.999 . S
C2478 H2448 0.950 . S
C2478 C2477 1.524 . S
C2478 C2479 1.415 . S
C2479 H2449 0.950 . S
C2479 C2474 1.363 . S
C2479 C2478 1.415 . S
H2480 C2477 0.999 . S
H2481 C2462 0.913 . S
H2482 C2500 0.951 . S
H2483 C2502 0.951 . S
H2484 C2504 0.950 . S
H2485 C2505 0.950 . S
H2486 C2507 0.950 . S
H2487 C2510 0.950 . S
H2488 C2511 0.950 . S
H2489 C2513 0.926 1_565 S
H2490 C2514 0.950 1_565 S
H2491 C2515 0.951 . S
H2492 C2517 0.951 . S
H2493 C2519 0.950 1_565 S
H2494 C2520 0.950 1_565 S
H2495 C2522 0.950 . S
H2496 C2525 0.950 1_565 S
H2497 C2526 0.950 1_565 S
H2498 C2528 0.950 . S
H2499 C2529 0.950 . S
C2500 H2482 0.951 . S
C2500 C2501 1.366 . S
C2500 C2502 1.388 . S
C2501 C2500 1.366 . S
C2501 C2505 1.385 . S
C2502 H2483 0.951 . S
C2502 C2500 1.388 . S
C2502 C2503 1.366 . S
C2503 C2502 1.366 . S
C2503 C2504 1.414 . S
C2503 C2506 1.499 . S
C2504 H2484 0.950 . S
C2504 C2503 1.414 . S
C2504 C2505 1.374 . S
C2505 H2485 0.950 . S
C2505 C2501 1.385 . S
C2505 C2504 1.374 . S
C2506 C2503 1.499 . S
C2506 C2507 1.373 . S
C2506 C2508 1.389 . S
C2507 H2486 0.950 . S
C2507 C2506 1.373 . S
C2507 C2523 1.377 . S
C2508 C2506 1.389 . S
C2508 C2509 1.524 . S
C2508 C2522 1.377 . S
C2509 C2508 1.524 . S
C2509 C2510 1.397 . S
C2509 C2514 1.363 . S
C2510 H2487 0.950 . S
C2510 C2509 1.397 . S
C2510 C2511 1.334 . S
C2511 H2488 0.950 . S
C2511 C2510 1.334 . S
C2511 C2512 1.287 . S
C2512 C2511 1.287 . S
C2512 C2513 1.524 . S
C2512 H2531 0.913 . S
C2513 H2489 0.926 1_545 S
C2513 C2512 1.524 . S
C2513 C2514 1.415 . S
C2514 H2490 0.950 1_545 S
C2514 C2509 1.363 . S
C2514 C2513 1.415 . S
C2515 H2491 0.951 . S
C2515 C2516 1.366 . S
C2515 C2517 1.388 . S
C2516 C2515 1.366 . S
C2516 C2520 1.385 . S
C2517 H2492 0.951 . S
C2517 C2515 1.388 . S
C2517 C2518 1.366 . S
C2518 C2517 1.366 . S
C2518 C2519 1.414 . S
C2518 C2521 1.499 . S
C2519 H2493 0.950 1_545 S
C2519 C2518 1.414 . S
C2519 C2520 1.374 . S
C2520 H2494 0.950 1_545 S
C2520 C2516 1.385 . S
C2520 C2519 1.374 . S
C2521 C2518 1.499 . S
C2521 C2522 1.373 . S
C2521 C2523 1.389 . S
C2522 H2495 0.950 . S
C2522 C2508 1.377 . S
C2522 C2521 1.373 . S
C2523 C2507 1.377 . S
C2523 C2521 1.389 . S
C2523 C2524 1.524 . S
C2524 C2523 1.524 . S
C2524 C2525 1.397 . S
C2524 C2529 1.363 . S
C2525 H2496 0.950 1_545 S
C2525 C2524 1.397 . S
C2525 C2526 1.334 . S
C2526 H2497 0.950 1_545 S
C2526 C2525 1.334 . S
C2526 C2527 1.287 . S
C2527 C2526 1.287 . S
C2527 C2528 1.524 . S
C2527 H2530 0.999 . S
C2528 H2498 0.950 . S
C2528 C2527 1.524 . S
C2528 C2529 1.415 . S
C2529 H2499 0.950 . S
C2529 C2524 1.363 . S
C2529 C2528 1.415 . S
H2530 C2527 0.999 . S
H2531 C2512 0.913 . S
H2532 C2550 0.951 . S
H2533 C2552 0.951 . S
H2534 C2554 0.950 . S
H2535 C2555 0.950 . S
H2536 C2557 0.950 . S
H2537 C2560 0.950 . S
H2538 C2561 0.950 . S
H2539 C2563 0.950 . S
H2540 C2564 0.950 . S
H2541 C2565 0.951 . S
H2542 C2567 0.951 . S
H2543 C2569 0.950 . S
H2544 C2570 0.950 . S
H2545 C2572 0.950 . S
H2546 C2575 0.950 . S
H2547 C2576 0.950 . S
H2548 C2578 0.950 . S
H2549 C2579 0.950 . S
C2550 H2532 0.951 . S
C2550 C2551 1.366 . S
C2550 C2552 1.388 . S
C2551 C2550 1.366 . S
C2551 C2555 1.385 . S
C2552 H2533 0.951 . S
C2552 C2550 1.388 . S
C2552 C2553 1.366 . S
C2553 C2552 1.366 . S
C2553 C2554 1.414 . S
C2553 C2556 1.499 . S
C2554 H2534 0.950 . S
C2554 C2553 1.414 . S
C2554 C2555 1.374 . S
C2555 H2535 0.950 . S
C2555 C2551 1.385 . S
C2555 C2554 1.374 . S
C2556 C2553 1.499 . S
C2556 C2557 1.373 . S
C2556 C2558 1.389 . S
C2557 H2536 0.950 . S
C2557 C2556 1.373 . S
C2557 C2573 1.377 . S
C2558 C2556 1.389 . S
C2558 C2559 1.524 . S
C2558 C2572 1.377 . S
C2559 C2558 1.524 . S
C2559 C2560 1.397 . S
C2559 C2564 1.363 . S
C2560 H2537 0.950 . S
C2560 C2559 1.397 . S
C2560 C2561 1.334 . S
C2561 H2538 0.950 . S
C2561 C2560 1.334 . S
C2561 C2562 1.287 . S
C2562 C2561 1.287 . S
C2562 C2563 1.524 . S
C2562 H2581 0.913 . S
C2563 H2539 0.950 . S
C2563 C2562 1.524 . S
C2563 C2564 1.415 . S
C2564 H2540 0.950 . S
C2564 C2559 1.363 . S
C2564 C2563 1.415 . S
C2565 H2541 0.951 . S
C2565 C2566 1.366 . S
C2565 C2567 1.388 . S
C2566 C2565 1.366 . S
C2566 C2570 1.385 . S
C2567 H2542 0.951 . S
C2567 C2565 1.388 . S
C2567 C2568 1.366 . S
C2568 C2567 1.366 . S
C2568 C2569 1.414 . S
C2568 C2571 1.499 . S
C2569 H2543 0.950 . S
C2569 C2568 1.414 . S
C2569 C2570 1.374 . S
C2570 H2544 0.950 . S
C2570 C2566 1.385 . S
C2570 C2569 1.374 . S
C2571 C2568 1.499 . S
C2571 C2572 1.373 . S
C2571 C2573 1.389 . S
C2572 H2545 0.950 . S
C2572 C2558 1.377 . S
C2572 C2571 1.373 . S
C2573 C2557 1.377 . S
C2573 C2571 1.389 . S
C2573 C2574 1.524 . S
C2574 C2573 1.524 . S
C2574 C2575 1.397 . S
C2574 C2579 1.363 . S
C2575 H2546 0.950 . S
C2575 C2574 1.397 . S
C2575 C2576 1.334 . S
C2576 H2547 0.950 . S
C2576 C2575 1.334 . S
C2576 C2577 1.287 . S
C2577 C2576 1.287 . S
C2577 C2578 1.524 . S
C2577 H2580 0.999 . S
C2578 H2548 0.950 . S
C2578 C2577 1.524 . S
C2578 C2579 1.415 . S
C2579 H2549 0.950 . S
C2579 C2574 1.363 . S
C2579 C2578 1.415 . S
H2580 C2577 0.999 . S
H2581 C2562 0.913 . S
H2582 C2600 0.951 . S
H2583 C2602 0.951 . S
H2584 C2604 0.950 . S
H2585 C2605 0.950 . S
H2586 C2607 0.950 . S
H2587 C2610 0.950 . S
H2588 C2611 0.950 . S
H2589 C2613 0.950 . S
H2590 C2614 0.950 . S
H2591 C2615 0.951 . S
H2592 C2617 0.951 . S
H2593 C2619 0.950 . S
H2594 C2620 0.950 . S
H2595 C2622 0.950 . S
H2596 C2625 0.950 . S
H2597 C2626 0.950 . S
H2598 C2628 0.950 . S
H2599 C2629 0.950 . S
C2600 H2582 0.951 . S
C2600 C2601 1.366 . S
C2600 C2602 1.388 . S
C2601 C2600 1.366 . S
C2601 C2605 1.385 . S
C2602 H2583 0.951 . S
C2602 C2600 1.388 . S
C2602 C2603 1.366 . S
C2603 C2602 1.366 . S
C2603 C2604 1.414 . S
C2603 C2606 1.499 . S
C2604 H2584 0.950 . S
C2604 C2603 1.414 . S
C2604 C2605 1.374 . S
C2605 H2585 0.950 . S
C2605 C2601 1.385 . S
C2605 C2604 1.374 . S
C2606 C2603 1.499 . S
C2606 C2607 1.373 . S
C2606 C2608 1.389 . S
C2607 H2586 0.950 . S
C2607 C2606 1.373 . S
C2607 C2623 1.377 . S
C2608 C2606 1.389 . S
C2608 C2609 1.524 . S
C2608 C2622 1.377 . S
C2609 C2608 1.524 . S
C2609 C2610 1.397 . S
C2609 C2614 1.363 . S
C2610 H2587 0.950 . S
C2610 C2609 1.397 . S
C2610 C2611 1.334 . S
C2611 H2588 0.950 . S
C2611 C2610 1.334 . S
C2611 C2612 1.287 . S
C2612 C2611 1.287 . S
C2612 C2613 1.524 . S
C2612 H2631 0.913 . S
C2613 H2589 0.950 . S
C2613 C2612 1.524 . S
C2613 C2614 1.415 . S
C2614 H2590 0.950 . S
C2614 C2609 1.363 . S
C2614 C2613 1.415 . S
C2615 H2591 0.951 . S
C2615 C2616 1.366 . S
C2615 C2617 1.388 . S
C2616 C2615 1.366 . S
C2616 C2620 1.385 . S
C2617 H2592 0.951 . S
C2617 C2615 1.388 . S
C2617 C2618 1.366 . S
C2618 C2617 1.366 . S
C2618 C2619 1.414 . S
C2618 C2621 1.499 . S
C2619 H2593 0.950 . S
C2619 C2618 1.414 . S
C2619 C2620 1.374 . S
C2620 H2594 0.950 . S
C2620 C2616 1.385 . S
C2620 C2619 1.374 . S
C2621 C2618 1.499 . S
C2621 C2622 1.373 . S
C2621 C2623 1.389 . S
C2622 H2595 0.950 . S
C2622 C2608 1.377 . S
C2622 C2621 1.373 . S
C2623 C2607 1.377 . S
C2623 C2621 1.389 . S
C2623 C2624 1.524 . S
C2624 C2623 1.524 . S
C2624 C2625 1.397 . S
C2624 C2629 1.363 . S
C2625 H2596 0.950 . S
C2625 C2624 1.397 . S
C2625 C2626 1.334 . S
C2626 H2597 0.950 . S
C2626 C2625 1.334 . S
C2626 C2627 1.287 . S
C2627 C2626 1.287 . S
C2627 C2628 1.524 . S
C2627 H2630 0.999 . S
C2628 H2598 0.950 . S
C2628 C2627 1.524 . S
C2628 C2629 1.415 . S
C2629 H2599 0.950 . S
C2629 C2624 1.363 . S
C2629 C2628 1.415 . S
H2630 C2627 0.999 . S
H2631 C2612 0.913 . S
H2632 C2650 0.951 . S
H2633 C2652 0.951 . S
H2634 C2654 0.950 . S
H2635 C2655 0.950 . S
H2636 C2657 0.950 . S
H2637 C2660 0.950 . S
H2638 C2661 0.950 . S
H2639 C2663 0.950 . S
H2640 C2664 0.950 . S
H2641 C2665 0.951 . S
H2642 C2667 0.951 . S
H2643 C2669 0.950 . S
H2644 C2670 0.950 . S
H2645 C2672 0.950 . S
H2646 C2675 0.950 . S
H2647 C2676 0.950 . S
H2648 C2678 0.950 . S
H2649 C2679 0.950 . S
C2650 H2632 0.951 . S
C2650 C2651 1.366 . S
C2650 C2652 1.388 . S
C2651 C2650 1.366 . S
C2651 C2655 1.385 . S
C2652 H2633 0.951 . S
C2652 C2650 1.388 . S
C2652 C2653 1.366 . S
C2653 C2652 1.366 . S
C2653 C2654 1.414 . S
C2653 C2656 1.499 . S
C2654 H2634 0.950 . S
C2654 C2653 1.414 . S
C2654 C2655 1.374 . S
C2655 H2635 0.950 . S
C2655 C2651 1.385 . S
C2655 C2654 1.374 . S
C2656 C2653 1.499 . S
C2656 C2657 1.373 . S
C2656 C2658 1.389 . S
C2657 H2636 0.950 . S
C2657 C2656 1.373 . S
C2657 C2673 1.377 . S
C2658 C2656 1.389 . S
C2658 C2659 1.524 . S
C2658 C2672 1.377 . S
C2659 C2658 1.524 . S
C2659 C2660 1.397 . S
C2659 C2664 1.363 . S
C2660 H2637 0.950 . S
C2660 C2659 1.397 . S
C2660 C2661 1.334 . S
C2661 H2638 0.950 . S
C2661 C2660 1.334 . S
C2661 C2662 1.287 . S
C2662 C2661 1.287 . S
C2662 C2663 1.524 . S
C2662 H2681 0.913 . S
C2663 H2639 0.950 . S
C2663 C2662 1.524 . S
C2663 C2664 1.415 . S
C2664 H2640 0.950 . S
C2664 C2659 1.363 . S
C2664 C2663 1.415 . S
C2665 H2641 0.951 . S
C2665 C2666 1.366 . S
C2665 C2667 1.388 . S
C2666 C2665 1.366 . S
C2666 C2670 1.385 . S
C2667 H2642 0.951 . S
C2667 C2665 1.388 . S
C2667 C2668 1.366 . S
C2668 C2667 1.366 . S
C2668 C2669 1.414 . S
C2668 C2671 1.499 . S
C2669 H2643 0.950 . S
C2669 C2668 1.414 . S
C2669 C2670 1.374 . S
C2670 H2644 0.950 . S
C2670 C2666 1.385 . S
C2670 C2669 1.374 . S
C2671 C2668 1.499 . S
C2671 C2672 1.373 . S
C2671 C2673 1.389 . S
C2672 H2645 0.950 . S
C2672 C2658 1.377 . S
C2672 C2671 1.373 . S
C2673 C2657 1.377 . S
C2673 C2671 1.389 . S
C2673 C2674 1.524 . S
C2674 C2673 1.524 . S
C2674 C2675 1.397 . S
C2674 C2679 1.363 . S
C2675 H2646 0.950 . S
C2675 C2674 1.397 . S
C2675 C2676 1.334 . S
C2676 H2647 0.950 . S
C2676 C2675 1.334 . S
C2676 C2677 1.287 . S
C2677 C2676 1.287 . S
C2677 C2678 1.524 . S
C2677 H2680 0.999 . S
C2678 H2648 0.950 . S
C2678 C2677 1.524 . S
C2678 C2679 1.415 . S
C2679 H2649 0.950 . S
C2679 C2674 1.363 . S
C2679 C2678 1.415 . S
H2680 C2677 0.999 . S
H2681 C2662 0.913 . S
H2682 C2700 0.951 . S
H2683 C2702 0.951 . S
H2684 C2704 0.950 . S
H2685 C2705 0.950 . S
H2686 C2707 0.950 . S
H2687 C2710 0.950 . S
H2688 C2711 0.950 . S
H2689 C2713 0.950 . S
H2690 C2714 0.950 1_655 S
H2691 C2715 0.951 . S
H2692 C2717 0.951 . S
H2693 C2719 0.950 . S
H2694 C2720 0.950 . S
H2695 C2722 0.942 1_655 S
H2696 C2725 0.950 . S
H2697 C2726 0.950 . S
H2698 C2728 0.950 . S
H2699 C2729 0.950 1_455 S
C2700 H2682 0.951 . S
C2700 C2701 1.366 . S
C2700 C2702 1.388 . S
C2701 C2700 1.366 . S
C2701 C2705 1.385 . S
C2702 H2683 0.951 . S
C2702 C2700 1.388 . S
C2702 C2703 1.366 . S
C2703 C2702 1.366 . S
C2703 C2704 1.414 . S
C2703 C2706 1.499 . S
C2704 H2684 0.950 . S
C2704 C2703 1.414 . S
C2704 C2705 1.374 . S
C2705 H2685 0.950 . S
C2705 C2701 1.385 . S
C2705 C2704 1.374 . S
C2706 C2703 1.499 . S
C2706 C2707 1.373 . S
C2706 C2708 1.389 . S
C2707 H2686 0.950 . S
C2707 C2706 1.373 . S
C2707 C2723 1.377 1_455 S
C2708 C2706 1.389 . S
C2708 C2709 1.524 . S
C2708 C2722 1.399 . S
C2709 C2708 1.524 . S
C2709 C2710 1.397 . S
C2709 C2714 1.363 . S
C2710 H2687 0.950 . S
C2710 C2709 1.397 . S
C2710 C2711 1.334 . S
C2711 H2688 0.950 . S
C2711 C2710 1.334 . S
C2711 C2712 1.287 . S
C2712 C2711 1.287 . S
C2712 C2713 1.524 . S
C2712 H2731 0.913 . S
C2713 H2689 0.950 . S
C2713 C2712 1.524 . S
C2713 C2714 1.415 . S
C2714 H2690 0.950 1_455 S
C2714 C2709 1.363 . S
C2714 C2713 1.415 . S
C2715 H2691 0.951 . S
C2715 C2716 1.366 . S
C2715 C2717 1.388 . S
C2716 C2715 1.366 . S
C2716 C2720 1.385 . S
C2717 H2692 0.951 . S
C2717 C2715 1.388 . S
C2717 C2718 1.366 . S
C2718 C2717 1.366 . S
C2718 C2719 1.414 . S
C2718 C2721 1.499 . S
C2719 H2693 0.950 . S
C2719 C2718 1.414 . S
C2719 C2720 1.374 . S
C2720 H2694 0.950 . S
C2720 C2716 1.385 . S
C2720 C2719 1.374 . S
C2721 C2718 1.499 . S
C2721 C2722 1.361 1_655 S
C2721 C2723 1.389 . S
C2722 H2695 0.942 1_455 S
C2722 C2708 1.399 . S
C2722 C2721 1.361 1_455 S
C2723 C2707 1.377 1_655 S
C2723 C2721 1.389 . S
C2723 C2724 1.524 . S
C2724 C2723 1.524 . S
C2724 C2725 1.397 . S
C2724 C2729 1.363 1_545 S
C2725 H2696 0.950 . S
C2725 C2724 1.397 . S
C2725 C2726 1.334 1_545 S
C2726 H2697 0.950 . S
C2726 C2725 1.334 1_565 S
C2726 C2727 1.287 . S
C2727 C2726 1.287 . S
C2727 C2728 1.524 . S
C2727 H2730 0.999 . S
C2728 H2698 0.950 . S
C2728 C2727 1.524 . S
C2728 C2729 1.415 . S
C2729 H2699 0.950 1_655 S
C2729 C2724 1.363 1_565 S
C2729 C2728 1.415 . S
H2730 C2727 0.999 . S
H2731 C2712 0.913 . S
H2732 C2750 0.951 . S
H2733 C2752 0.951 . S
H2734 C2754 0.950 . S
H2735 C2755 0.950 . S
H2736 C2757 0.950 . S
H2737 C2760 0.950 . S
H2738 C2761 0.950 . S
H2739 C2763 0.950 . S
H2740 C2764 0.950 . S
H2741 C2765 0.951 . S
H2742 C2767 0.951 . S
H2743 C2769 0.950 . S
H2744 C2770 0.950 . S
H2745 C2772 0.950 . S
H2746 C2775 0.950 . S
H2747 C2776 0.950 . S
H2748 C2778 0.950 . S
H2749 C2779 0.950 . S
C2750 H2732 0.951 . S
C2750 C2751 1.366 . S
C2750 C2752 1.388 . S
C2751 C2750 1.366 . S
C2751 C2755 1.385 . S
C2752 H2733 0.951 . S
C2752 C2750 1.388 . S
C2752 C2753 1.366 . S
C2753 C2752 1.366 . S
C2753 C2754 1.414 . S
C2753 C2756 1.499 . S
C2754 H2734 0.950 . S
C2754 C2753 1.414 . S
C2754 C2755 1.374 . S
C2755 H2735 0.950 . S
C2755 C2751 1.385 . S
C2755 C2754 1.374 . S
C2756 C2753 1.499 . S
C2756 C2757 1.373 . S
C2756 C2758 1.389 . S
C2757 H2736 0.950 . S
C2757 C2756 1.373 . S
C2757 C2773 1.377 . S
C2758 C2756 1.389 . S
C2758 C2759 1.524 . S
C2758 C2772 1.377 . S
C2759 C2758 1.524 . S
C2759 C2760 1.397 . S
C2759 C2764 1.363 . S
C2760 H2737 0.950 . S
C2760 C2759 1.397 . S
C2760 C2761 1.334 . S
C2761 H2738 0.950 . S
C2761 C2760 1.334 . S
C2761 C2762 1.287 . S
C2762 C2761 1.287 . S
C2762 C2763 1.524 . S
C2762 H2781 0.913 . S
C2763 H2739 0.950 . S
C2763 C2762 1.524 . S
C2763 C2764 1.415 . S
C2764 H2740 0.950 . S
C2764 C2759 1.363 . S
C2764 C2763 1.415 . S
C2765 H2741 0.951 . S
C2765 C2766 1.366 . S
C2765 C2767 1.388 . S
C2766 C2765 1.366 . S
C2766 C2770 1.385 . S
C2767 H2742 0.951 . S
C2767 C2765 1.388 . S
C2767 C2768 1.366 . S
C2768 C2767 1.366 . S
C2768 C2769 1.414 . S
C2768 C2771 1.499 . S
C2769 H2743 0.950 . S
C2769 C2768 1.414 . S
C2769 C2770 1.374 . S
C2770 H2744 0.950 . S
C2770 C2766 1.385 . S
C2770 C2769 1.374 . S
C2771 C2768 1.499 . S
C2771 C2772 1.373 . S
C2771 C2773 1.389 . S
C2772 H2745 0.950 . S
C2772 C2758 1.377 . S
C2772 C2771 1.373 . S
C2773 C2757 1.377 . S
C2773 C2771 1.389 . S
C2773 C2774 1.524 . S
C2774 C2773 1.524 . S
C2774 C2775 1.397 . S
C2774 C2779 1.363 . S
C2775 H2746 0.950 . S
C2775 C2774 1.397 . S
C2775 C2776 1.334 . S
C2776 H2747 0.950 . S
C2776 C2775 1.334 . S
C2776 C2777 1.287 . S
C2777 C2776 1.287 . S
C2777 C2778 1.524 . S
C2777 H2780 0.999 . S
C2778 H2748 0.950 . S
C2778 C2777 1.524 . S
C2778 C2779 1.415 . S
C2779 H2749 0.950 . S
C2779 C2774 1.363 . S
C2779 C2778 1.415 . S
H2780 C2777 0.999 . S
H2781 C2762 0.913 . S
H2782 C2800 0.951 1_655 S
H2783 C2802 0.951 . S
H2784 C2804 0.950 . S
H2785 C2805 0.950 . S
H2786 C2807 0.950 . S
H2787 C2810 0.950 . S
H2788 C2811 0.950 . S
H2789 C2813 0.950 . S
H2790 C2814 0.950 . S
H2791 C2815 0.951 . S
H2792 C2817 0.951 . S
H2793 C2819 0.950 . S
H2794 C2820 0.950 . S
H2795 C2822 0.950 . S
H2796 C2825 0.950 . S
H2797 C2826 0.950 . S
H2798 C2828 0.950 . S
H2799 C2829 0.950 . S
C2800 H2782 0.951 1_455 S
C2800 C2801 1.366 . S
C2800 C2802 1.388 . S
C2801 C2800 1.366 . S
C2801 C2805 1.385 . S
C2802 H2783 0.951 . S
C2802 C2800 1.388 . S
C2802 C2803 1.366 . S
C2803 C2802 1.366 . S
C2803 C2804 1.414 . S
C2803 C2806 1.499 . S
C2804 H2784 0.950 . S
C2804 C2803 1.414 . S
C2804 C2805 1.374 . S
C2805 H2785 0.950 . S
C2805 C2801 1.385 . S
C2805 C2804 1.374 . S
C2806 C2803 1.499 . S
C2806 C2807 1.373 . S
C2806 C2808 1.389 . S
C2807 H2786 0.950 . S
C2807 C2806 1.373 . S
C2807 C2823 1.377 . S
C2808 C2806 1.389 . S
C2808 C2809 1.524 . S
C2808 C2822 1.377 . S
C2809 C2808 1.524 . S
C2809 C2810 1.397 . S
C2809 C2814 1.363 . S
C2810 H2787 0.950 . S
C2810 C2809 1.397 . S
C2810 C2811 1.334 1_455 S
C2811 H2788 0.950 . S
C2811 C2810 1.334 1_655 S
C2811 C2812 1.287 . S
C2812 C2811 1.287 . S
C2812 C2813 1.524 . S
C2812 H2831 0.913 . S
C2813 H2789 0.950 . S
C2813 C2812 1.524 . S
C2813 C2814 1.415 1_655 S
C2814 H2790 0.950 . S
C2814 C2809 1.363 . S
C2814 C2813 1.415 1_455 S
C2815 H2791 0.951 . S
C2815 C2816 1.366 . S
C2815 C2817 1.388 . S
C2816 C2815 1.366 . S
C2816 C2820 1.385 . S
C2817 H2792 0.951 . S
C2817 C2815 1.388 . S
C2817 C2818 1.366 . S
C2818 C2817 1.366 . S
C2818 C2819 1.414 . S
C2818 C2821 1.499 . S
C2819 H2793 0.950 . S
C2819 C2818 1.414 . S
C2819 C2820 1.374 . S
C2820 H2794 0.950 . S
C2820 C2816 1.385 . S
C2820 C2819 1.374 . S
C2821 C2818 1.499 . S
C2821 C2822 1.373 . S
C2821 C2823 1.389 . S
C2822 H2795 0.950 . S
C2822 C2808 1.377 . S
C2822 C2821 1.373 . S
C2823 C2807 1.377 . S
C2823 C2821 1.389 . S
C2823 C2824 1.524 . S
C2824 C2823 1.524 . S
C2824 C2825 1.397 . S
C2824 C2829 1.363 . S
C2825 H2796 0.950 . S
C2825 C2824 1.397 . S
C2825 C2826 1.334 . S
C2826 H2797 0.950 . S
C2826 C2825 1.334 . S
C2826 C2827 1.287 . S
C2827 C2826 1.287 . S
C2827 C2828 1.524 . S
C2827 H2830 0.999 . S
C2828 H2798 0.950 . S
C2828 C2827 1.524 . S
C2828 C2829 1.415 . S
C2829 H2799 0.950 . S
C2829 C2824 1.363 . S
C2829 C2828 1.415 . S
H2830 C2827 0.999 . S
H2831 C2812 0.913 . S
H2832 C2850 0.951 . S
H2833 C2852 0.951 . S
H2834 C2854 0.950 . S
H2835 C2855 0.950 . S
H2836 C2857 0.950 . S
H2837 C2860 0.950 . S
H2838 C2861 0.950 . S
H2839 C2863 0.950 . S
H2840 C2864 0.950 . S
H2841 C2865 0.951 . S
H2842 C2867 0.951 . S
H2843 C2869 0.950 . S
H2844 C2870 0.950 . S
H2845 C2872 0.950 . S
H2846 C2875 0.950 . S
H2847 C2876 0.950 . S
H2848 C2878 0.950 . S
H2849 C2879 0.950 . S
C2850 H2832 0.951 . S
C2850 C2851 1.366 . S
C2850 C2852 1.388 . S
C2851 C2850 1.366 . S
C2851 C2855 1.385 . S
C2852 H2833 0.951 . S
C2852 C2850 1.388 . S
C2852 C2853 1.366 . S
C2853 C2852 1.366 . S
C2853 C2854 1.414 . S
C2853 C2856 1.499 . S
C2854 H2834 0.950 . S
C2854 C2853 1.414 . S
C2854 C2855 1.374 . S
C2855 H2835 0.950 . S
C2855 C2851 1.385 . S
C2855 C2854 1.374 . S
C2856 C2853 1.499 . S
C2856 C2857 1.373 . S
C2856 C2858 1.389 . S
C2857 H2836 0.950 . S
C2857 C2856 1.373 . S
C2857 C2873 1.377 . S
C2858 C2856 1.389 . S
C2858 C2859 1.524 . S
C2858 C2872 1.377 . S
C2859 C2858 1.524 . S
C2859 C2860 1.397 . S
C2859 C2864 1.363 . S
C2860 H2837 0.950 . S
C2860 C2859 1.397 . S
C2860 C2861 1.334 . S
C2861 H2838 0.950 . S
C2861 C2860 1.334 . S
C2861 C2862 1.287 . S
C2862 C2861 1.287 . S
C2862 C2863 1.524 . S
C2862 H2881 0.913 . S
C2863 H2839 0.950 . S
C2863 C2862 1.524 . S
C2863 C2864 1.415 . S
C2864 H2840 0.950 . S
C2864 C2859 1.363 . S
C2864 C2863 1.415 . S
C2865 H2841 0.951 . S
C2865 C2866 1.366 . S
C2865 C2867 1.388 . S
C2866 C2865 1.366 . S
C2866 C2870 1.385 . S
C2867 H2842 0.951 . S
C2867 C2865 1.388 . S
C2867 C2868 1.366 . S
C2868 C2867 1.366 . S
C2868 C2869 1.414 . S
C2868 C2871 1.499 . S
C2869 H2843 0.950 . S
C2869 C2868 1.414 . S
C2869 C2870 1.374 . S
C2870 H2844 0.950 . S
C2870 C2866 1.385 . S
C2870 C2869 1.374 . S
C2871 C2868 1.499 . S
C2871 C2872 1.373 . S
C2871 C2873 1.389 . S
C2872 H2845 0.950 . S
C2872 C2858 1.377 . S
C2872 C2871 1.373 . S
C2873 C2857 1.377 . S
C2873 C2871 1.389 . S
C2873 C2874 1.524 . S
C2874 C2873 1.524 . S
C2874 C2875 1.397 . S
C2874 C2879 1.363 . S
C2875 H2846 0.950 . S
C2875 C2874 1.397 . S
C2875 C2876 1.334 . S
C2876 H2847 0.950 . S
C2876 C2875 1.334 . S
C2876 C2877 1.287 . S
C2877 C2876 1.287 . S
C2877 C2878 1.524 . S
C2877 H2880 0.999 . S
C2878 H2848 0.950 . S
C2878 C2877 1.524 . S
C2878 C2879 1.415 . S
C2879 H2849 0.950 . S
C2879 C2874 1.363 . S
C2879 C2878 1.415 . S
H2880 C2877 0.999 . S
H2881 C2862 0.913 . S
H2882 C2900 0.951 . S
H2883 C2902 0.951 . S
H2884 C2904 0.950 . S
H2885 C2905 0.950 . S
H2886 C2907 0.950 . S
H2887 C2910 0.950 1_556 S
H2888 C2911 0.950 . S
H2889 C2913 0.950 . S
H2890 C2914 0.950 . S
H2891 C2915 0.951 . S
H2892 C2917 0.951 . S
H2893 C2919 0.955 . S
H2894 C2920 0.950 . S
H2895 C2922 0.950 . S
H2896 C2925 0.950 . S
H2897 C2926 0.950 . S
H2898 C2928 0.950 . S
H2899 C2929 0.950 . S
C2900 H2882 0.951 . S
C2900 C2901 1.366 . S
C2900 C2902 1.388 . S
C2901 C2900 1.366 . S
C2901 C2905 1.385 1_554 S
C2902 H2883 0.951 . S
C2902 C2900 1.388 . S
C2902 C2903 1.366 1_554 S
C2903 C2902 1.366 1_556 S
C2903 C2904 1.414 . S
C2903 C2906 1.499 . S
C2904 H2884 0.950 . S
C2904 C2903 1.414 . S
C2904 C2905 1.374 . S
C2905 H2885 0.950 . S
C2905 C2901 1.385 1_556 S
C2905 C2904 1.374 . S
C2906 C2903 1.499 . S
C2906 C2907 1.373 . S
C2906 C2908 1.389 1_655 S
C2907 H2886 0.950 . S
C2907 C2906 1.373 . S
C2907 C2923 1.377 . S
C2908 C2906 1.389 1_455 S
C2908 C2909 1.524 1_556 S
C2908 C2922 1.377 . S
C2909 C2908 1.524 1_554 S
C2909 C2910 1.397 . S
C2909 C2914 1.363 . S
C2910 H2887 0.950 1_554 S
C2910 C2909 1.397 . S
C2910 C2911 1.334 . S
C2911 H2888 0.950 . S
C2911 C2910 1.334 . S
C2911 C2912 1.287 . S
C2912 C2911 1.287 . S
C2912 C2913 1.524 . S
C2912 H2931 0.913 . S
C2913 H2889 0.950 . S
C2913 C2912 1.524 . S
C2913 C2914 1.415 . S
C2914 H2890 0.950 . S
C2914 C2909 1.363 . S
C2914 C2913 1.415 . S
C2915 H2891 0.951 . S
C2915 C2916 1.366 . S
C2915 C2917 1.388 . S
C2916 C2915 1.366 . S
C2916 C2920 1.385 . S
C2917 H2892 0.951 . S
C2917 C2915 1.388 . S
C2917 C2918 1.366 . S
C2918 C2917 1.366 . S
C2918 C2919 1.414 . S
C2918 C2921 1.498 1_455 S
C2919 H2893 0.955 . S
C2919 C2918 1.414 . S
C2919 C2920 1.374 . S
C2920 H2894 0.950 . S
C2920 C2916 1.385 . S
C2920 C2919 1.374 . S
C2921 C2918 1.498 1_655 S
C2921 C2922 1.370 1_655 S
C2921 C2923 1.394 . S
C2922 H2895 0.950 . S
C2922 C2908 1.377 . S
C2922 C2921 1.370 1_455 S
C2923 C2907 1.377 . S
C2923 C2921 1.394 . S
C2923 C2924 1.524 . S
C2924 C2923 1.524 . S
C2924 C2925 1.397 . S
C2924 C2929 1.363 . S
C2925 H2896 0.950 . S
C2925 C2924 1.397 . S
C2925 C2926 1.334 . S
C2926 H2897 0.950 . S
C2926 C2925 1.334 . S
C2926 C2927 1.287 . S
C2927 C2926 1.287 . S
C2927 C2928 1.524 . S
C2927 H2930 0.999 . S
C2928 H2898 0.950 . S
C2928 C2927 1.524 . S
C2928 C2929 1.415 . S
C2929 H2899 0.950 . S
C2929 C2924 1.363 . S
C2929 C2928 1.415 . S
H2930 C2927 0.999 . S
H2931 C2912 0.913 . S
H2932 C2950 0.951 . S
H2933 C2952 0.951 . S
H2934 C2954 0.950 . S
H2935 C2955 0.950 . S
H2936 C2957 0.950 . S
H2937 C2960 0.950 . S
H2938 C2961 0.950 . S
H2939 C2963 0.950 . S
H2940 C2964 0.950 . S
H2941 C2965 0.951 . S
H2942 C2967 0.951 . S
H2943 C2969 0.950 . S
H2944 C2970 0.950 . S
H2945 C2972 0.950 . S
H2946 C2975 0.950 . S
H2947 C2976 0.950 . S
H2948 C2978 0.950 . S
H2949 C2979 0.950 . S
C2950 H2932 0.951 . S
C2950 C2951 1.366 . S
C2950 C2952 1.388 . S
C2951 C2950 1.366 . S
C2951 C2955 1.385 . S
C2952 H2933 0.951 . S
C2952 C2950 1.388 . S
C2952 C2953 1.366 . S
C2953 C2952 1.366 . S
C2953 C2954 1.414 . S
C2953 C2956 1.499 . S
C2954 H2934 0.950 . S
C2954 C2953 1.414 . S
C2954 C2955 1.374 . S
C2955 H2935 0.950 . S
C2955 C2951 1.385 . S
C2955 C2954 1.374 . S
C2956 C2953 1.499 . S
C2956 C2957 1.373 . S
C2956 C2958 1.389 . S
C2957 H2936 0.950 . S
C2957 C2956 1.373 . S
C2957 C2973 1.377 . S
C2958 C2956 1.389 . S
C2958 C2959 1.524 . S
C2958 C2972 1.377 . S
C2959 C2958 1.524 . S
C2959 C2960 1.397 . S
C2959 C2964 1.363 . S
C2960 H2937 0.950 . S
C2960 C2959 1.397 . S
C2960 C2961 1.334 . S
C2961 H2938 0.950 . S
C2961 C2960 1.334 . S
C2961 C2962 1.287 . S
C2962 C2961 1.287 . S
C2962 C2963 1.524 . S
C2962 H2981 0.913 . S
C2963 H2939 0.950 . S
C2963 C2962 1.524 . S
C2963 C2964 1.415 . S
C2964 H2940 0.950 . S
C2964 C2959 1.363 . S
C2964 C2963 1.415 . S
C2965 H2941 0.951 . S
C2965 C2966 1.366 . S
C2965 C2967 1.388 . S
C2966 C2965 1.366 . S
C2966 C2970 1.385 . S
C2967 H2942 0.951 . S
C2967 C2965 1.388 . S
C2967 C2968 1.366 . S
C2968 C2967 1.366 . S
C2968 C2969 1.414 . S
C2968 C2971 1.499 . S
C2969 H2943 0.950 . S
C2969 C2968 1.414 . S
C2969 C2970 1.374 . S
C2970 H2944 0.950 . S
C2970 C2966 1.385 . S
C2970 C2969 1.374 . S
C2971 C2968 1.499 . S
C2971 C2972 1.373 . S
C2971 C2973 1.389 . S
C2972 H2945 0.950 . S
C2972 C2958 1.377 . S
C2972 C2971 1.373 . S
C2973 C2957 1.377 . S
C2973 C2971 1.389 . S
C2973 C2974 1.524 . S
C2974 C2973 1.524 . S
C2974 C2975 1.397 . S
C2974 C2979 1.363 . S
C2975 H2946 0.950 . S
C2975 C2974 1.397 . S
C2975 C2976 1.334 . S
C2976 H2947 0.950 . S
C2976 C2975 1.334 . S
C2976 C2977 1.287 . S
C2977 C2976 1.287 . S
C2977 C2978 1.524 . S
C2977 H2980 0.999 . S
C2978 H2948 0.950 . S
C2978 C2977 1.524 . S
C2978 C2979 1.415 . S
C2979 H2949 0.950 . S
C2979 C2974 1.363 . S
C2979 C2978 1.415 . S
H2980 C2977 0.999 . S
H2981 C2962 0.913 . S
H2982 C3000 0.951 . S
H2983 C3002 0.951 . S
H2984 C3004 0.950 . S
H2985 C3005 0.950 . S
H2986 C3007 0.950 . S
H2987 C3010 0.950 . S
H2988 C3011 0.950 1_655 S
H2989 C3013 0.950 . S
H2990 C3014 0.950 . S
H2991 C3015 0.951 . S
H2992 C3017 0.951 . S
H2993 C3019 0.950 . S
H2994 C3020 0.950 . S
H2995 C3022 0.950 . S
H2996 C3025 0.950 . S
H2997 C3026 0.950 . S
H2998 C3028 0.950 . S
H2999 C3029 0.950 . S
C3000 H2982 0.951 . S
C3000 C3001 1.366 . S
C3000 C3002 1.388 . S
C3001 C3000 1.366 . S
C3001 C3005 1.385 . S
C3002 H2983 0.951 . S
C3002 C3000 1.388 . S
C3002 C3003 1.366 . S
C3003 C3002 1.366 . S
C3003 C3004 1.414 1_554 S
C3003 C3006 1.499 1_554 S
C3004 H2984 0.950 . S
C3004 C3003 1.414 1_556 S
C3004 C3005 1.374 1_556 S
C3005 H2985 0.950 . S
C3005 C3001 1.385 . S
C3005 C3004 1.374 1_554 S
C3006 C3003 1.499 1_556 S
C3006 C3007 1.373 . S
C3006 C3008 1.389 . S
C3007 H2986 0.950 . S
C3007 C3006 1.373 . S
C3007 C3023 1.377 . S
C3008 C3006 1.389 . S
C3008 C3009 1.524 1_556 S
C3008 C3022 1.377 . S
C3009 C3008 1.524 1_554 S
C3009 C3010 1.397 . S
C3009 C3014 1.363 . S
C3010 H2987 0.950 . S
C3010 C3009 1.397 . S
C3010 C3011 1.334 . S
C3011 H2988 0.950 1_455 S
C3011 C3010 1.334 . S
C3011 C3012 1.287 . S
C3012 C3011 1.287 . S
C3012 C3013 1.524 . S
C3012 H3031 0.913 1_455 S
C3013 H2989 0.950 . S
C3013 C3012 1.524 . S
C3013 C3014 1.415 . S
C3014 H2990 0.950 . S
C3014 C3009 1.363 . S
C3014 C3013 1.415 . S
C3015 H2991 0.951 . S
C3015 C3016 1.366 . S
C3015 C3017 1.388 . S
C3016 C3015 1.366 . S
C3016 C3020 1.385 . S
C3017 H2992 0.951 . S
C3017 C3015 1.388 . S
C3017 C3018 1.366 . S
C3018 C3017 1.366 . S
C3018 C3019 1.414 . S
C3018 C3021 1.499 . S
C3019 H2993 0.950 . S
C3019 C3018 1.414 . S
C3019 C3020 1.374 . S
C3020 H2994 0.950 . S
C3020 C3016 1.385 . S
C3020 C3019 1.374 . S
C3021 C3018 1.499 . S
C3021 C3022 1.373 . S
C3021 C3023 1.389 . S
C3022 H2995 0.950 . S
C3022 C3008 1.377 . S
C3022 C3021 1.373 . S
C3023 C3007 1.377 . S
C3023 C3021 1.389 . S
C3023 C3024 1.524 . S
C3024 C3023 1.524 . S
C3024 C3025 1.397 . S
C3024 C3029 1.363 . S
C3025 H2996 0.950 . S
C3025 C3024 1.397 . S
C3025 C3026 1.334 . S
C3026 H2997 0.950 . S
C3026 C3025 1.334 . S
C3026 C3027 1.287 . S
C3027 C3026 1.287 . S
C3027 C3028 1.524 . S
C3027 H3030 0.999 . S
C3028 H2998 0.950 . S
C3028 C3027 1.524 . S
C3028 C3029 1.415 . S
C3029 H2999 0.950 . S
C3029 C3024 1.363 . S
C3029 C3028 1.415 . S
H3030 C3027 0.999 . S
H3031 C3012 0.913 1_655 S
H3032 C3050 0.951 . S
H3033 C3052 0.951 . S
H3034 C3054 0.950 . S
H3035 C3055 0.950 . S
H3036 C3057 0.950 . S
H3037 C3060 0.950 . S
H3038 C3061 0.950 . S
H3039 C3063 0.950 . S
H3040 C3064 0.950 . S
H3041 C3065 0.951 . S
H3042 C3067 0.951 . S
H3043 C3069 0.950 . S
H3044 C3070 0.950 . S
H3045 C3072 0.950 . S
H3046 C3075 0.950 . S
H3047 C3076 0.950 . S
H3048 C3078 0.950 . S
H3049 C3079 0.950 . S
C3050 H3032 0.951 . S
C3050 C3051 1.366 . S
C3050 C3052 1.388 . S
C3051 C3050 1.366 . S
C3051 C3055 1.385 . S
C3052 H3033 0.951 . S
C3052 C3050 1.388 . S
C3052 C3053 1.366 . S
C3053 C3052 1.366 . S
C3053 C3054 1.414 . S
C3053 C3056 1.499 . S
C3054 H3034 0.950 . S
C3054 C3053 1.414 . S
C3054 C3055 1.374 . S
C3055 H3035 0.950 . S
C3055 C3051 1.385 . S
C3055 C3054 1.374 . S
C3056 C3053 1.499 . S
C3056 C3057 1.373 . S
C3056 C3058 1.389 . S
C3057 H3036 0.950 . S
C3057 C3056 1.373 . S
C3057 C3073 1.377 . S
C3058 C3056 1.389 . S
C3058 C3059 1.524 . S
C3058 C3072 1.377 . S
C3059 C3058 1.524 . S
C3059 C3060 1.397 . S
C3059 C3064 1.363 . S
C3060 H3037 0.950 . S
C3060 C3059 1.397 . S
C3060 C3061 1.334 . S
C3061 H3038 0.950 . S
C3061 C3060 1.334 . S
C3061 C3062 1.287 . S
C3062 C3061 1.287 . S
C3062 C3063 1.524 . S
C3062 H3081 0.913 . S
C3063 H3039 0.950 . S
C3063 C3062 1.524 . S
C3063 C3064 1.415 . S
C3064 H3040 0.950 . S
C3064 C3059 1.363 . S
C3064 C3063 1.415 . S
C3065 H3041 0.951 . S
C3065 C3066 1.366 . S
C3065 C3067 1.388 . S
C3066 C3065 1.366 . S
C3066 C3070 1.385 . S
C3067 H3042 0.951 . S
C3067 C3065 1.388 . S
C3067 C3068 1.366 . S
C3068 C3067 1.366 . S
C3068 C3069 1.414 . S
C3068 C3071 1.499 . S
C3069 H3043 0.950 . S
C3069 C3068 1.414 . S
C3069 C3070 1.374 . S
C3070 H3044 0.950 . S
C3070 C3066 1.385 . S
C3070 C3069 1.374 . S
C3071 C3068 1.499 . S
C3071 C3072 1.373 . S
C3071 C3073 1.389 . S
C3072 H3045 0.950 . S
C3072 C3058 1.377 . S
C3072 C3071 1.373 . S
C3073 C3057 1.377 . S
C3073 C3071 1.389 . S
C3073 C3074 1.524 . S
C3074 C3073 1.524 . S
C3074 C3075 1.397 . S
C3074 C3079 1.363 . S
C3075 H3046 0.950 . S
C3075 C3074 1.397 . S
C3075 C3076 1.334 . S
C3076 H3047 0.950 . S
C3076 C3075 1.334 . S
C3076 C3077 1.287 . S
C3077 C3076 1.287 . S
C3077 C3078 1.524 . S
C3077 H3080 0.999 . S
C3078 H3048 0.950 . S
C3078 C3077 1.524 . S
C3078 C3079 1.415 . S
C3079 H3049 0.950 . S
C3079 C3074 1.363 . S
C3079 C3078 1.415 . S
H3080 C3077 0.999 . S
H3081 C3062 0.913 . S
H3082 C3100 0.951 . S
H3083 C3102 0.951 . S
H3084 C3104 0.950 . S
H3085 C3105 0.950 . S
H3086 C3107 0.950 . S
H3087 C3110 0.950 . S
H3088 C3111 0.950 . S
H3089 C3113 0.950 . S
H3090 C3114 0.950 . S
H3091 C3115 0.951 . S
H3092 C3117 0.951 . S
H3093 C3119 0.950 . S
H3094 C3120 0.950 . S
H3095 C3122 0.950 . S
H3096 C3125 0.950 . S
H3097 C3126 0.950 . S
H3098 C3128 0.950 . S
H3099 C3129 0.950 . S
C3100 H3082 0.951 . S
C3100 C3101 1.366 . S
C3100 C3102 1.388 . S
C3101 C3100 1.366 . S
C3101 C3105 1.385 . S
C3102 H3083 0.951 . S
C3102 C3100 1.388 . S
C3102 C3103 1.366 . S
C3103 C3102 1.366 . S
C3103 C3104 1.414 . S
C3103 C3106 1.499 . S
C3104 H3084 0.950 . S
C3104 C3103 1.414 . S
C3104 C3105 1.374 . S
C3105 H3085 0.950 . S
C3105 C3101 1.385 . S
C3105 C3104 1.374 . S
C3106 C3103 1.499 . S
C3106 C3107 1.373 . S
C3106 C3108 1.389 . S
C3107 H3086 0.950 . S
C3107 C3106 1.373 . S
C3107 C3123 1.377 . S
C3108 C3106 1.389 . S
C3108 C3109 1.524 . S
C3108 C3122 1.377 . S
C3109 C3108 1.524 . S
C3109 C3110 1.397 . S
C3109 C3114 1.363 . S
C3110 H3087 0.950 . S
C3110 C3109 1.397 . S
C3110 C3111 1.334 . S
C3111 H3088 0.950 . S
C3111 C3110 1.334 . S
C3111 C3112 1.287 . S
C3112 C3111 1.287 . S
C3112 C3113 1.524 . S
C3112 H3131 0.913 . S
C3113 H3089 0.950 . S
C3113 C3112 1.524 . S
C3113 C3114 1.415 . S
C3114 H3090 0.950 . S
C3114 C3109 1.363 . S
C3114 C3113 1.415 . S
C3115 H3091 0.951 . S
C3115 C3116 1.366 . S
C3115 C3117 1.388 . S
C3116 C3115 1.366 . S
C3116 C3120 1.385 . S
C3117 H3092 0.951 . S
C3117 C3115 1.388 . S
C3117 C3118 1.366 . S
C3118 C3117 1.366 . S
C3118 C3119 1.414 . S
C3118 C3121 1.499 . S
C3119 H3093 0.950 . S
C3119 C3118 1.414 . S
C3119 C3120 1.374 . S
C3120 H3094 0.950 . S
C3120 C3116 1.385 . S
C3120 C3119 1.374 . S
C3121 C3118 1.499 . S
C3121 C3122 1.373 . S
C3121 C3123 1.389 . S
C3122 H3095 0.950 . S
C3122 C3108 1.377 . S
C3122 C3121 1.373 . S
C3123 C3107 1.377 . S
C3123 C3121 1.389 . S
C3123 C3124 1.524 . S
C3124 C3123 1.524 . S
C3124 C3125 1.397 . S
C3124 C3129 1.363 . S
C3125 H3096 0.950 . S
C3125 C3124 1.397 . S
C3125 C3126 1.334 . S
C3126 H3097 0.950 . S
C3126 C3125 1.334 . S
C3126 C3127 1.287 . S
C3127 C3126 1.287 . S
C3127 C3128 1.524 . S
C3127 H3130 0.999 . S
C3128 H3098 0.950 . S
C3128 C3127 1.524 . S
C3128 C3129 1.415 . S
C3129 H3099 0.950 . S
C3129 C3124 1.363 . S
C3129 C3128 1.415 . S
H3130 C3127 0.999 . S
H3131 C3112 0.913 . S
H3132 C3150 0.951 . S
H3133 C3152 0.951 . S
H3134 C3154 0.950 . S
H3135 C3155 0.950 . S
H3136 C3157 0.950 . S
H3137 C3160 0.950 . S
H3138 C3161 0.950 . S
H3139 C3163 0.950 . S
H3140 C3164 0.950 . S
H3141 C3165 0.951 . S
H3142 C3167 0.951 . S
H3143 C3169 0.950 . S
H3144 C3170 0.950 . S
H3145 C3172 0.950 . S
H3146 C3175 0.950 . S
H3147 C3176 0.950 . S
H3148 C3178 0.950 . S
H3149 C3179 0.950 . S
C3150 H3132 0.951 . S
C3150 C3151 1.366 . S
C3150 C3152 1.388 . S
C3151 C3150 1.366 . S
C3151 C3155 1.385 . S
C3152 H3133 0.951 . S
C3152 C3150 1.388 . S
C3152 C3153 1.366 . S
C3153 C3152 1.366 . S
C3153 C3154 1.414 . S
C3153 C3156 1.499 . S
C3154 H3134 0.950 . S
C3154 C3153 1.414 . S
C3154 C3155 1.374 . S
C3155 H3135 0.950 . S
C3155 C3151 1.385 . S
C3155 C3154 1.374 . S
C3156 C3153 1.499 . S
C3156 C3157 1.373 . S
C3156 C3158 1.389 . S
C3157 H3136 0.950 . S
C3157 C3156 1.373 . S
C3157 C3173 1.377 . S
C3158 C3156 1.389 . S
C3158 C3159 1.524 . S
C3158 C3172 1.377 . S
C3159 C3158 1.524 . S
C3159 C3160 1.397 . S
C3159 C3164 1.363 . S
C3160 H3137 0.950 . S
C3160 C3159 1.397 . S
C3160 C3161 1.334 . S
C3161 H3138 0.950 . S
C3161 C3160 1.334 . S
C3161 C3162 1.287 . S
C3162 C3161 1.287 . S
C3162 C3163 1.524 . S
C3162 H3181 0.913 . S
C3163 H3139 0.950 . S
C3163 C3162 1.524 . S
C3163 C3164 1.415 . S
C3164 H3140 0.950 . S
C3164 C3159 1.363 . S
C3164 C3163 1.415 . S
C3165 H3141 0.951 . S
C3165 C3166 1.366 . S
C3165 C3167 1.388 . S
C3166 C3165 1.366 . S
C3166 C3170 1.385 . S
C3167 H3142 0.951 . S
C3167 C3165 1.388 . S
C3167 C3168 1.366 . S
C3168 C3167 1.366 . S
C3168 C3169 1.414 . S
C3168 C3171 1.499 . S
C3169 H3143 0.950 . S
C3169 C3168 1.414 . S
C3169 C3170 1.374 . S
C3170 H3144 0.950 . S
C3170 C3166 1.385 . S
C3170 C3169 1.374 . S
C3171 C3168 1.499 . S
C3171 C3172 1.373 . S
C3171 C3173 1.389 . S
C3172 H3145 0.950 . S
C3172 C3158 1.377 . S
C3172 C3171 1.373 . S
C3173 C3157 1.377 . S
C3173 C3171 1.389 . S
C3173 C3174 1.524 . S
C3174 C3173 1.524 . S
C3174 C3175 1.397 . S
C3174 C3179 1.363 . S
C3175 H3146 0.950 . S
C3175 C3174 1.397 . S
C3175 C3176 1.334 . S
C3176 H3147 0.950 . S
C3176 C3175 1.334 . S
C3176 C3177 1.287 . S
C3177 C3176 1.287 . S
C3177 C3178 1.524 . S
C3177 H3180 0.999 . S
C3178 H3148 0.950 . S
C3178 C3177 1.524 . S
C3178 C3179 1.415 . S
C3179 H3149 0.950 . S
C3179 C3174 1.363 . S
C3179 C3178 1.415 . S
H3180 C3177 0.999 . S
H3181 C3162 0.913 . S
H3182 C3200 0.951 . S
H3183 C3202 0.951 1_556 S
H3184 C3204 0.950 . S
H3185 C3205 0.950 . S
H3186 C3207 0.950 . S
H3187 C3210 0.950 . S
H3188 C3211 0.949 1_556 S
H3189 C3213 0.950 . S
H3190 C3214 0.950 . S
H3191 C3215 0.951 . S
H3192 C3217 0.951 . S
H3193 C3219 0.950 . S
H3194 C3220 0.950 . S
H3195 C3222 0.950 . S
H3196 C3225 0.950 . S
H3197 C3226 0.950 . S
H3198 C3228 0.950 . S
H3199 C3229 0.950 . S
C3200 H3182 0.951 . S
C3200 C3201 1.366 . S
C3200 C3202 1.388 1_556 S
C3201 C3200 1.366 . S
C3201 C3205 1.385 1_556 S
C3202 H3183 0.951 1_554 S
C3202 C3200 1.388 1_554 S
C3202 C3203 1.366 . S
C3203 C3202 1.366 . S
C3203 C3204 1.414 . S
C3203 C3206 1.499 . S
C3204 H3184 0.950 . S
C3204 C3203 1.414 . S
C3204 C3205 1.374 . S
C3205 H3185 0.950 . S
C3205 C3201 1.385 1_554 S
C3205 C3204 1.374 . S
C3206 C3203 1.499 . S
C3206 C3207 1.373 . S
C3206 C3208 1.389 . S
C3207 H3186 0.950 . S
C3207 C3206 1.373 . S
C3207 C3223 1.377 . S
C3208 C3206 1.389 . S
C3208 C3209 1.524 . S
C3208 C3222 1.377 . S
C3209 C3208 1.524 . S
C3209 C3210 1.397 . S
C3209 C3214 1.363 . S
C3210 H3187 0.950 . S
C3210 C3209 1.397 . S
C3210 C3211 1.345 . S
C3211 H3188 0.949 1_554 S
C3211 C3210 1.345 . S
C3211 C3212 1.278 1_554 S
C3212 C3211 1.278 1_556 S
C3212 C3213 1.524 . S
C3212 H3231 0.913 . S
C3213 H3189 0.950 . S
C3213 C3212 1.524 . S
C3213 C3214 1.415 1_556 S
C3214 H3190 0.950 . S
C3214 C3209 1.363 . S
C3214 C3213 1.415 1_554 S
C3215 H3191 0.951 . S
C3215 C3216 1.366 . S
C3215 C3217 1.388 . S
C3216 C3215 1.366 . S
C3216 C3220 1.385 . S
C3217 H3192 0.951 . S
C3217 C3215 1.388 . S
C3217 C3218 1.366 . S
C3218 C3217 1.366 . S
C3218 C3219 1.414 . S
C3218 C3221 1.499 . S
C3219 H3193 0.950 . S
C3219 C3218 1.414 . S
C3219 C3220 1.374 . S
C3220 H3194 0.950 . S
C3220 C3216 1.385 . S
C3220 C3219 1.374 . S
C3221 C3218 1.499 . S
C3221 C3222 1.373 . S
C3221 C3223 1.389 . S
C3222 H3195 0.950 . S
C3222 C3208 1.377 . S
C3222 C3221 1.373 . S
C3223 C3207 1.377 . S
C3223 C3221 1.389 . S
C3223 C3224 1.524 . S
C3224 C3223 1.524 . S
C3224 C3225 1.397 . S
C3224 C3229 1.363 . S
C3225 H3196 0.950 . S
C3225 C3224 1.397 . S
C3225 C3226 1.334 . S
C3226 H3197 0.950 . S
C3226 C3225 1.334 . S
C3226 C3227 1.287 . S
C3227 C3226 1.287 . S
C3227 C3228 1.524 . S
C3227 H3230 0.999 . S
C3228 H3198 0.950 . S
C3228 C3227 1.524 . S
C3228 C3229 1.415 . S
C3229 H3199 0.950 . S
C3229 C3224 1.363 . S
C3229 C3228 1.415 . S
H3230 C3227 0.999 . S
H3231 C3212 0.913 . S
H3232 C3250 0.951 . S
H3233 C3252 0.951 . S
H3234 C3254 0.950 . S
H3235 C3255 0.950 . S
H3236 C3257 0.950 . S
H3237 C3260 0.950 . S
H3238 C3261 0.950 . S
H3239 C3263 0.950 . S
H3240 C3264 0.950 . S
H3241 C3265 0.951 . S
H3242 C3267 0.951 . S
H3243 C3269 0.950 . S
H3244 C3270 0.950 . S
H3245 C3272 0.950 . S
H3246 C3275 0.950 . S
H3247 C3276 0.950 . S
H3248 C3278 0.950 . S
H3249 C3279 0.950 . S
C3250 H3232 0.951 . S
C3250 C3251 1.366 . S
C3250 C3252 1.388 . S
C3251 C3250 1.366 . S
C3251 C3255 1.385 . S
C3252 H3233 0.951 . S
C3252 C3250 1.388 . S
C3252 C3253 1.366 . S
C3253 C3252 1.366 . S
C3253 C3254 1.414 . S
C3253 C3256 1.499 . S
C3254 H3234 0.950 . S
C3254 C3253 1.414 . S
C3254 C3255 1.374 . S
C3255 H3235 0.950 . S
C3255 C3251 1.385 . S
C3255 C3254 1.374 . S
C3256 C3253 1.499 . S
C3256 C3257 1.373 . S
C3256 C3258 1.389 . S
C3257 H3236 0.950 . S
C3257 C3256 1.373 . S
C3257 C3273 1.377 . S
C3258 C3256 1.389 . S
C3258 C3259 1.524 . S
C3258 C3272 1.377 . S
C3259 C3258 1.524 . S
C3259 C3260 1.397 . S
C3259 C3264 1.363 . S
C3260 H3237 0.950 . S
C3260 C3259 1.397 . S
C3260 C3261 1.334 . S
C3261 H3238 0.950 . S
C3261 C3260 1.334 . S
C3261 C3262 1.287 . S
C3262 C3261 1.287 . S
C3262 C3263 1.524 . S
C3262 H3281 0.913 . S
C3263 H3239 0.950 . S
C3263 C3262 1.524 . S
C3263 C3264 1.415 . S
C3264 H3240 0.950 . S
C3264 C3259 1.363 . S
C3264 C3263 1.415 . S
C3265 H3241 0.951 . S
C3265 C3266 1.366 . S
C3265 C3267 1.388 . S
C3266 C3265 1.366 . S
C3266 C3270 1.385 . S
C3267 H3242 0.951 . S
C3267 C3265 1.388 . S
C3267 C3268 1.366 . S
C3268 C3267 1.366 . S
C3268 C3269 1.414 . S
C3268 C3271 1.499 . S
C3269 H3243 0.950 . S
C3269 C3268 1.414 . S
C3269 C3270 1.374 . S
C3270 H3244 0.950 . S
C3270 C3266 1.385 . S
C3270 C3269 1.374 . S
C3271 C3268 1.499 . S
C3271 C3272 1.373 . S
C3271 C3273 1.389 . S
C3272 H3245 0.950 . S
C3272 C3258 1.377 . S
C3272 C3271 1.373 . S
C3273 C3257 1.377 . S
C3273 C3271 1.389 . S
C3273 C3274 1.524 . S
C3274 C3273 1.524 . S
C3274 C3275 1.397 . S
C3274 C3279 1.363 . S
C3275 H3246 0.950 . S
C3275 C3274 1.397 . S
C3275 C3276 1.334 . S
C3276 H3247 0.950 . S
C3276 C3275 1.334 . S
C3276 C3277 1.287 . S
C3277 C3276 1.287 . S
C3277 C3278 1.524 . S
C3277 H3280 0.999 . S
C3278 H3248 0.950 . S
C3278 C3277 1.524 . S
C3278 C3279 1.415 . S
C3279 H3249 0.950 . S
C3279 C3274 1.363 . S
C3279 C3278 1.415 . S
H3280 C3277 0.999 . S
H3281 C3262 0.913 . S
H3282 C3300 0.951 . S
H3283 C3302 0.951 . S
H3284 C3304 0.950 . S
H3285 C3305 0.950 . S
H3286 C3307 0.950 . S
H3287 C3310 0.950 . S
H3288 C3311 0.950 . S
H3289 C3313 0.950 . S
H3290 C3314 0.950 . S
H3291 C3315 0.951 . S
H3292 C3317 0.951 . S
H3293 C3319 0.950 . S
H3294 C3320 0.950 . S
H3295 C3322 0.950 . S
H3296 C3325 0.950 . S
H3297 C3326 0.950 . S
H3298 C3328 0.950 . S
H3299 C3329 0.950 . S
C3300 H3282 0.951 . S
C3300 C3301 1.366 . S
C3300 C3302 1.388 . S
C3301 C3300 1.366 . S
C3301 C3305 1.385 . S
C3302 H3283 0.951 . S
C3302 C3300 1.388 . S
C3302 C3303 1.366 . S
C3303 C3302 1.366 . S
C3303 C3304 1.414 . S
C3303 C3306 1.499 . S
C3304 H3284 0.950 . S
C3304 C3303 1.414 . S
C3304 C3305 1.374 . S
C3305 H3285 0.950 . S
C3305 C3301 1.385 . S
C3305 C3304 1.374 . S
C3306 C3303 1.499 . S
C3306 C3307 1.373 . S
C3306 C3308 1.389 . S
C3307 H3286 0.950 . S
C3307 C3306 1.373 . S
C3307 C3323 1.377 . S
C3308 C3306 1.389 . S
C3308 C3309 1.524 . S
C3308 C3322 1.377 . S
C3309 C3308 1.524 . S
C3309 C3310 1.397 . S
C3309 C3314 1.363 . S
C3310 H3287 0.950 . S
C3310 C3309 1.397 . S
C3310 C3311 1.334 . S
C3311 H3288 0.950 . S
C3311 C3310 1.334 . S
C3311 C3312 1.287 . S
C3312 C3311 1.287 . S
C3312 C3313 1.524 . S
C3312 H3331 0.913 . S
C3313 H3289 0.950 . S
C3313 C3312 1.524 . S
C3313 C3314 1.415 . S
C3314 H3290 0.950 . S
C3314 C3309 1.363 . S
C3314 C3313 1.415 . S
C3315 H3291 0.951 . S
C3315 C3316 1.366 . S
C3315 C3317 1.388 . S
C3316 C3315 1.366 . S
C3316 C3320 1.385 . S
C3317 H3292 0.951 . S
C3317 C3315 1.388 . S
C3317 C3318 1.366 . S
C3318 C3317 1.366 . S
C3318 C3319 1.414 . S
C3318 C3321 1.499 . S
C3319 H3293 0.950 . S
C3319 C3318 1.414 . S
C3319 C3320 1.374 . S
C3320 H3294 0.950 . S
C3320 C3316 1.385 . S
C3320 C3319 1.374 . S
C3321 C3318 1.499 . S
C3321 C3322 1.373 . S
C3321 C3323 1.389 . S
C3322 H3295 0.950 . S
C3322 C3308 1.377 . S
C3322 C3321 1.373 . S
C3323 C3307 1.377 . S
C3323 C3321 1.389 . S
C3323 C3324 1.524 . S
C3324 C3323 1.524 . S
C3324 C3325 1.397 . S
C3324 C3329 1.363 . S
C3325 H3296 0.950 . S
C3325 C3324 1.397 . S
C3325 C3326 1.334 . S
C3326 H3297 0.950 . S
C3326 C3325 1.334 . S
C3326 C3327 1.287 . S
C3327 C3326 1.287 . S
C3327 C3328 1.524 . S
C3327 H3330 0.999 . S
C3328 H3298 0.950 . S
C3328 C3327 1.524 . S
C3328 C3329 1.415 . S
C3329 H3299 0.950 . S
C3329 C3324 1.363 . S
C3329 C3328 1.415 . S
H3330 C3327 0.999 . S
H3331 C3312 0.913 . S
H3332 C3350 0.951 . S
H3333 C3352 0.951 . S
H3334 C3354 0.950 . S
H3335 C3355 0.950 . S
H3336 C3357 0.950 . S
H3337 C3360 0.950 . S
H3338 C3361 0.950 . S
H3339 C3363 0.950 . S
H3340 C3364 0.950 . S
H3341 C3365 0.951 . S
H3342 C3367 0.951 . S
H3343 C3369 0.950 . S
H3344 C3370 0.950 . S
H3345 C3372 0.950 . S
H3346 C3375 0.950 . S
H3347 C3376 0.950 . S
H3348 C3378 0.950 . S
H3349 C3379 0.950 . S
C3350 H3332 0.951 . S
C3350 C3351 1.366 . S
C3350 C3352 1.388 . S
C3351 C3350 1.366 . S
C3351 C3355 1.385 . S
C3352 H3333 0.951 . S
C3352 C3350 1.388 . S
C3352 C3353 1.366 . S
C3353 C3352 1.366 . S
C3353 C3354 1.414 . S
C3353 C3356 1.499 . S
C3354 H3334 0.950 . S
C3354 C3353 1.414 . S
C3354 C3355 1.374 . S
C3355 H3335 0.950 . S
C3355 C3351 1.385 . S
C3355 C3354 1.374 . S
C3356 C3353 1.499 . S
C3356 C3357 1.373 . S
C3356 C3358 1.389 . S
C3357 H3336 0.950 . S
C3357 C3356 1.373 . S
C3357 C3373 1.377 . S
C3358 C3356 1.389 . S
C3358 C3359 1.524 . S
C3358 C3372 1.377 . S
C3359 C3358 1.524 . S
C3359 C3360 1.397 . S
C3359 C3364 1.363 . S
C3360 H3337 0.950 . S
C3360 C3359 1.397 . S
C3360 C3361 1.334 . S
C3361 H3338 0.950 . S
C3361 C3360 1.334 . S
C3361 C3362 1.287 . S
C3362 C3361 1.287 . S
C3362 C3363 1.524 . S
C3362 H3381 0.913 . S
C3363 H3339 0.950 . S
C3363 C3362 1.524 . S
C3363 C3364 1.415 . S
C3364 H3340 0.950 . S
C3364 C3359 1.363 . S
C3364 C3363 1.415 . S
C3365 H3341 0.951 . S
C3365 C3366 1.366 . S
C3365 C3367 1.388 . S
C3366 C3365 1.366 . S
C3366 C3370 1.385 . S
C3367 H3342 0.951 . S
C3367 C3365 1.388 . S
C3367 C3368 1.366 . S
C3368 C3367 1.366 . S
C3368 C3369 1.414 . S
C3368 C3371 1.499 . S
C3369 H3343 0.950 . S
C3369 C3368 1.414 . S
C3369 C3370 1.374 . S
C3370 H3344 0.950 . S
C3370 C3366 1.385 . S
C3370 C3369 1.374 . S
C3371 C3368 1.499 . S
C3371 C3372 1.373 . S
C3371 C3373 1.389 . S
C3372 H3345 0.950 . S
C3372 C3358 1.377 . S
C3372 C3371 1.373 . S
C3373 C3357 1.377 . S
C3373 C3371 1.389 . S
C3373 C3374 1.524 . S
C3374 C3373 1.524 . S
C3374 C3375 1.397 . S
C3374 C3379 1.363 . S
C3375 H3346 0.950 . S
C3375 C3374 1.397 . S
C3375 C3376 1.334 . S
C3376 H3347 0.950 . S
C3376 C3375 1.334 . S
C3376 C3377 1.287 . S
C3377 C3376 1.287 . S
C3377 C3378 1.524 . S
C3377 H3380 0.999 . S
C3378 H3348 0.950 . S
C3378 C3377 1.524 . S
C3378 C3379 1.415 . S
C3379 H3349 0.950 . S
C3379 C3374 1.363 . S
C3379 C3378 1.415 . S
H3380 C3377 0.999 . S
H3381 C3362 0.913 . S
H3382 C3400 0.951 . S
H3383 C3402 0.951 . S
H3384 C3404 0.950 . S
H3385 C3405 0.950 . S
H3386 C3407 0.950 . S
H3387 C3410 0.950 . S
H3388 C3411 0.950 . S
H3389 C3413 0.950 . S
H3390 C3414 0.950 . S
H3391 C3415 0.951 . S
H3392 C3417 0.951 . S
H3393 C3419 0.950 . S
H3394 C3420 0.950 . S
H3395 C3422 0.950 . S
H3396 C3425 0.950 . S
H3397 C3426 0.950 . S
H3398 C3428 0.950 . S
H3399 C3429 0.950 . S
C3400 H3382 0.951 . S
C3400 C3401 1.366 . S
C3400 C3402 1.388 . S
C3401 C3400 1.366 . S
C3401 C3405 1.385 . S
C3402 H3383 0.951 . S
C3402 C3400 1.388 . S
C3402 C3403 1.366 . S
C3403 C3402 1.366 . S
C3403 C3404 1.414 . S
C3403 C3406 1.499 . S
C3404 H3384 0.950 . S
C3404 C3403 1.414 . S
C3404 C3405 1.374 . S
C3405 H3385 0.950 . S
C3405 C3401 1.385 . S
C3405 C3404 1.374 . S
C3406 C3403 1.499 . S
C3406 C3407 1.373 . S
C3406 C3408 1.389 . S
C3407 H3386 0.950 . S
C3407 C3406 1.373 . S
C3407 C3423 1.377 . S
C3408 C3406 1.389 . S
C3408 C3409 1.524 . S
C3408 C3422 1.377 . S
C3409 C3408 1.524 . S
C3409 C3410 1.397 . S
C3409 C3414 1.363 . S
C3410 H3387 0.950 . S
C3410 C3409 1.397 . S
C3410 C3411 1.334 . S
C3411 H3388 0.950 . S
C3411 C3410 1.334 . S
C3411 C3412 1.287 . S
C3412 C3411 1.287 . S
C3412 C3413 1.524 . S
C3412 H3431 0.913 . S
C3413 H3389 0.950 . S
C3413 C3412 1.524 . S
C3413 C3414 1.415 . S
C3414 H3390 0.950 . S
C3414 C3409 1.363 . S
C3414 C3413 1.415 . S
C3415 H3391 0.951 . S
C3415 C3416 1.366 . S
C3415 C3417 1.388 . S
C3416 C3415 1.366 . S
C3416 C3420 1.385 . S
C3417 H3392 0.951 . S
C3417 C3415 1.388 . S
C3417 C3418 1.366 . S
C3418 C3417 1.366 . S
C3418 C3419 1.414 . S
C3418 C3421 1.499 . S
C3419 H3393 0.950 . S
C3419 C3418 1.414 . S
C3419 C3420 1.374 . S
C3420 H3394 0.950 . S
C3420 C3416 1.385 . S
C3420 C3419 1.374 . S
C3421 C3418 1.499 . S
C3421 C3422 1.373 . S
C3421 C3423 1.389 . S
C3422 H3395 0.950 . S
C3422 C3408 1.377 . S
C3422 C3421 1.373 . S
C3423 C3407 1.377 . S
C3423 C3421 1.389 . S
C3423 C3424 1.524 . S
C3424 C3423 1.524 . S
C3424 C3425 1.397 . S
C3424 C3429 1.363 . S
C3425 H3396 0.950 . S
C3425 C3424 1.397 . S
C3425 C3426 1.334 . S
C3426 H3397 0.950 . S
C3426 C3425 1.334 . S
C3426 C3427 1.287 . S
C3427 C3426 1.287 . S
C3427 C3428 1.524 . S
C3427 H3430 0.999 . S
C3428 H3398 0.950 . S
C3428 C3427 1.524 . S
C3428 C3429 1.415 . S
C3429 H3399 0.950 . S
C3429 C3424 1.363 . S
C3429 C3428 1.415 . S
H3430 C3427 0.999 . S
H3431 C3412 0.913 . S
H3432 C3450 0.951 . S
H3433 C3452 0.951 . S
H3434 C3454 0.950 . S
H3435 C3455 0.950 . S
H3436 C3457 0.950 . S
H3437 C3460 0.950 . S
H3438 C3461 0.950 . S
H3439 C3463 0.950 . S
H3440 C3464 0.950 . S
H3441 C3465 0.951 . S
H3442 C3467 0.951 . S
H3443 C3469 0.950 . S
H3444 C3470 0.950 . S
H3445 C3472 0.950 . S
H3446 C3475 0.950 . S
H3447 C3476 0.950 . S
H3448 C3478 0.950 . S
H3449 C3479 0.950 . S
C3450 H3432 0.951 . S
C3450 C3451 1.366 1_554 S
C3450 C3452 1.388 . S
C3451 C3450 1.366 1_556 S
C3451 C3455 1.385 . S
C3452 H3433 0.951 . S
C3452 C3450 1.388 . S
C3452 C3453 1.366 1_554 S
C3453 C3452 1.366 1_556 S
C3453 C3454 1.414 . S
C3453 C3456 1.499 . S
C3454 H3434 0.950 . S
C3454 C3453 1.414 . S
C3454 C3455 1.374 . S
C3455 H3435 0.950 . S
C3455 C3451 1.385 . S
C3455 C3454 1.374 . S
C3456 C3453 1.499 . S
C3456 C3457 1.373 . S
C3456 C3458 1.389 1_556 S
C3457 H3436 0.950 . S
C3457 C3456 1.373 . S
C3457 C3473 1.377 . S
C3458 C3456 1.389 1_554 S
C3458 C3459 1.524 . S
C3458 C3472 1.377 . S
C3459 C3458 1.524 . S
C3459 C3460 1.397 . S
C3459 C3464 1.363 . S
C3460 H3437 0.950 . S
C3460 C3459 1.397 . S
C3460 C3461 1.334 . S
C3461 H3438 0.950 . S
C3461 C3460 1.334 . S
C3461 C3462 1.287 . S
C3462 C3461 1.287 . S
C3462 C3463 1.524 . S
C3462 H3481 0.913 . S
C3463 H3439 0.950 . S
C3463 C3462 1.524 . S
C3463 C3464 1.415 . S
C3464 H3440 0.950 . S
C3464 C3459 1.363 . S
C3464 C3463 1.415 . S
C3465 H3441 0.951 . S
C3465 C3466 1.366 . S
C3465 C3467 1.388 . S
C3466 C3465 1.366 . S
C3466 C3470 1.385 1_556 S
C3467 H3442 0.951 . S
C3467 C3465 1.388 . S
C3467 C3468 1.366 . S
C3468 C3467 1.366 . S
C3468 C3469 1.414 1_556 S
C3468 C3471 1.499 . S
C3469 H3443 0.950 . S
C3469 C3468 1.414 1_554 S
C3469 C3470 1.374 . S
C3470 H3444 0.950 . S
C3470 C3466 1.385 1_554 S
C3470 C3469 1.374 . S
C3471 C3468 1.499 . S
C3471 C3472 1.373 1_556 S
C3471 C3473 1.389 . S
C3472 H3445 0.950 . S
C3472 C3458 1.377 . S
C3472 C3471 1.373 1_554 S
C3473 C3457 1.377 . S
C3473 C3471 1.389 . S
C3473 C3474 1.524 . S
C3474 C3473 1.524 . S
C3474 C3475 1.397 . S
C3474 C3479 1.363 . S
C3475 H3446 0.950 . S
C3475 C3474 1.397 . S
C3475 C3476 1.334 . S
C3476 H3447 0.950 . S
C3476 C3475 1.334 . S
C3476 C3477 1.287 . S
C3477 C3476 1.287 . S
C3477 C3478 1.524 . S
C3477 H3480 0.999 . S
C3478 H3448 0.950 . S
C3478 C3477 1.524 . S
C3478 C3479 1.415 . S
C3479 H3449 0.950 . S
C3479 C3474 1.363 . S
C3479 C3478 1.415 . S
H3480 C3477 0.999 . S
H3481 C3462 0.913 . S
H3482 C3500 0.951 . S
H3483 C3502 0.951 . S
H3484 C3504 0.950 . S
H3485 C3505 0.950 . S
H3486 C3507 0.950 . S
H3487 C3510 0.950 . S
H3488 C3511 0.950 . S
H3489 C3513 0.950 . S
H3490 C3514 0.950 . S
H3491 C3515 0.951 . S
H3492 C3517 0.951 . S
H3493 C3519 0.950 . S
H3494 C3520 0.950 . S
H3495 C3522 0.950 . S
H3496 C3525 0.950 . S
H3497 C3526 0.950 . S
H3498 C3528 0.950 . S
H3499 C3529 0.950 . S
C3500 H3482 0.951 . S
C3500 C3501 1.366 . S
C3500 C3502 1.388 . S
C3501 C3500 1.366 . S
C3501 C3505 1.385 . S
C3502 H3483 0.951 . S
C3502 C3500 1.388 . S
C3502 C3503 1.366 . S
C3503 C3502 1.366 . S
C3503 C3504 1.414 . S
C3503 C3506 1.499 . S
C3504 H3484 0.950 . S
C3504 C3503 1.414 . S
C3504 C3505 1.374 . S
C3505 H3485 0.950 . S
C3505 C3501 1.385 . S
C3505 C3504 1.374 . S
C3506 C3503 1.499 . S
C3506 C3507 1.373 . S
C3506 C3508 1.389 . S
C3507 H3486 0.950 . S
C3507 C3506 1.373 . S
C3507 C3523 1.377 . S
C3508 C3506 1.389 . S
C3508 C3509 1.524 . S
C3508 C3522 1.377 . S
C3509 C3508 1.524 . S
C3509 C3510 1.397 . S
C3509 C3514 1.363 . S
C3510 H3487 0.950 . S
C3510 C3509 1.397 . S
C3510 C3511 1.334 . S
C3511 H3488 0.950 . S
C3511 C3510 1.334 . S
C3511 C3512 1.287 . S
C3512 C3511 1.287 . S
C3512 C3513 1.524 . S
C3512 H3531 0.913 . S
C3513 H3489 0.950 . S
C3513 C3512 1.524 . S
C3513 C3514 1.415 . S
C3514 H3490 0.950 . S
C3514 C3509 1.363 . S
C3514 C3513 1.415 . S
C3515 H3491 0.951 . S
C3515 C3516 1.366 . S
C3515 C3517 1.388 . S
C3516 C3515 1.366 . S
C3516 C3520 1.385 . S
C3517 H3492 0.951 . S
C3517 C3515 1.388 . S
C3517 C3518 1.366 . S
C3518 C3517 1.366 . S
C3518 C3519 1.414 . S
C3518 C3521 1.499 . S
C3519 H3493 0.950 . S
C3519 C3518 1.414 . S
C3519 C3520 1.374 . S
C3520 H3494 0.950 . S
C3520 C3516 1.385 . S
C3520 C3519 1.374 . S
C3521 C3518 1.499 . S
C3521 C3522 1.373 . S
C3521 C3523 1.389 . S
C3522 H3495 0.950 . S
C3522 C3508 1.377 . S
C3522 C3521 1.373 . S
C3523 C3507 1.377 . S
C3523 C3521 1.389 . S
C3523 C3524 1.524 . S
C3524 C3523 1.524 . S
C3524 C3525 1.397 . S
C3524 C3529 1.363 . S
C3525 H3496 0.950 . S
C3525 C3524 1.397 . S
C3525 C3526 1.334 . S
C3526 H3497 0.950 . S
C3526 C3525 1.334 . S
C3526 C3527 1.287 . S
C3527 C3526 1.287 . S
C3527 C3528 1.524 . S
C3527 H3530 0.999 . S
C3528 H3498 0.950 . S
C3528 C3527 1.524 . S
C3528 C3529 1.415 . S
C3529 H3499 0.950 . S
C3529 C3524 1.363 . S
C3529 C3528 1.415 . S
H3530 C3527 0.999 . S
H3531 C3512 0.913 . S
H3532 C3550 0.951 . S
H3533 C3552 0.951 . S
H3534 C3554 0.950 . S
H3535 C3555 0.950 . S
H3536 C3557 0.950 1_556 S
H3537 C3560 0.950 . S
H3538 C3561 0.950 . S
H3539 C3563 0.950 . S
H3540 C3564 0.950 . S
H3541 C3565 0.951 1_556 S
H3542 C3567 0.951 . S
H3543 C3569 0.950 . S
H3544 C3570 0.950 . S
H3545 C3572 0.950 . S
H3546 C3575 0.950 . S
H3547 C3576 0.950 . S
H3548 C3578 0.950 . S
H3549 C3579 0.950 . S
C3550 H3532 0.951 . S
C3550 C3551 1.366 . S
C3550 C3552 1.388 . S
C3551 C3550 1.366 . S
C3551 C3555 1.385 . S
C3552 H3533 0.951 . S
C3552 C3550 1.388 . S
C3552 C3553 1.366 . S
C3553 C3552 1.366 . S
C3553 C3554 1.414 . S
C3553 C3556 1.499 . S
C3554 H3534 0.950 . S
C3554 C3553 1.414 . S
C3554 C3555 1.374 . S
C3555 H3535 0.950 . S
C3555 C3551 1.385 . S
C3555 C3554 1.374 . S
C3556 C3553 1.499 . S
C3556 C3557 1.373 . S
C3556 C3558 1.389 . S
C3557 H3536 0.950 1_554 S
C3557 C3556 1.373 . S
C3557 C3573 1.377 . S
C3558 C3556 1.389 . S
C3558 C3559 1.524 . S
C3558 C3572 1.377 . S
C3559 C3558 1.524 . S
C3559 C3560 1.397 . S
C3559 C3564 1.363 . S
C3560 H3537 0.950 . S
C3560 C3559 1.397 . S
C3560 C3561 1.334 . S
C3561 H3538 0.950 . S
C3561 C3560 1.334 . S
C3561 C3562 1.287 . S
C3562 C3561 1.287 . S
C3562 C3563 1.524 . S
C3562 H3581 0.913 . S
C3563 H3539 0.950 . S
C3563 C3562 1.524 . S
C3563 C3564 1.415 . S
C3564 H3540 0.950 . S
C3564 C3559 1.363 . S
C3564 C3563 1.415 . S
C3565 H3541 0.951 1_554 S
C3565 C3566 1.366 . S
C3565 C3567 1.388 . S
C3566 C3565 1.366 . S
C3566 C3570 1.385 . S
C3567 H3542 0.951 . S
C3567 C3565 1.388 . S
C3567 C3568 1.366 . S
C3568 C3567 1.366 . S
C3568 C3569 1.414 . S
C3568 C3571 1.499 . S
C3569 H3543 0.950 . S
C3569 C3568 1.414 . S
C3569 C3570 1.374 . S
C3570 H3544 0.950 . S
C3570 C3566 1.385 . S
C3570 C3569 1.374 . S
C3571 C3568 1.499 . S
C3571 C3572 1.373 . S
C3571 C3573 1.389 . S
C3572 H3545 0.950 . S
C3572 C3558 1.377 . S
C3572 C3571 1.373 . S
C3573 C3557 1.377 . S
C3573 C3571 1.389 . S
C3573 C3574 1.524 1_554 S
C3574 C3573 1.524 1_556 S
C3574 C3575 1.397 . S
C3574 C3579 1.363 . S
C3575 H3546 0.950 . S
C3575 C3574 1.397 . S
C3575 C3576 1.334 . S
C3576 H3547 0.950 . S
C3576 C3575 1.334 . S
C3576 C3577 1.287 . S
C3577 C3576 1.287 . S
C3577 C3578 1.524 . S
C3577 H3580 0.999 . S
C3578 H3548 0.950 . S
C3578 C3577 1.524 . S
C3578 C3579 1.415 . S
C3579 H3549 0.950 . S
C3579 C3574 1.363 . S
C3579 C3578 1.415 . S
H3580 C3577 0.999 . S
H3581 C3562 0.913 . S
H3582 C3600 0.951 . S
H3583 C3602 0.951 . S
H3584 C3604 0.950 . S
H3585 C3605 0.950 . S
H3586 C3607 0.950 . S
H3587 C3610 0.950 1_565 S
H3588 C3611 0.950 1_556 S
H3589 C3613 0.950 . S
H3590 C3614 0.950 . S
H3591 C3615 0.951 . S
H3592 C3617 0.951 . S
H3593 C3619 0.950 . S
H3594 C3620 0.950 . S
H3595 C3622 0.950 . S
H3596 C3625 0.950 . S
H3597 C3626 0.950 . S
H3598 C3628 0.950 . S
H3599 C3629 0.950 . S
C3600 H3582 0.951 . S
C3600 C3601 1.366 . S
C3600 C3602 1.388 . S
C3601 C3600 1.366 . S
C3601 C3605 1.385 . S
C3602 H3583 0.951 . S
C3602 C3600 1.388 . S
C3602 C3603 1.366 . S
C3603 C3602 1.366 . S
C3603 C3604 1.414 1_545 S
C3603 C3606 1.499 1_545 S
C3604 H3584 0.950 . S
C3604 C3603 1.414 1_565 S
C3604 C3605 1.374 1_565 S
C3605 H3585 0.950 . S
C3605 C3601 1.385 . S
C3605 C3604 1.374 1_545 S
C3606 C3603 1.499 1_565 S
C3606 C3607 1.373 . S
C3606 C3608 1.389 . S
C3607 H3586 0.950 . S
C3607 C3606 1.373 . S
C3607 C3623 1.377 . S
C3608 C3606 1.389 . S
C3608 C3609 1.524 1_565 S
C3608 C3622 1.377 . S
C3609 C3608 1.524 1_545 S
C3609 C3610 1.397 . S
C3609 C3614 1.363 . S
C3610 H3587 0.950 1_545 S
C3610 C3609 1.397 . S
C3610 C3611 1.334 . S
C3611 H3588 0.950 1_554 S
C3611 C3610 1.334 . S
C3611 C3612 1.297 . S
C3612 C3611 1.297 . S
C3612 C3613 1.540 . S
C3612 H3631 0.887 1_554 S
C3613 H3589 0.950 . S
C3613 C3612 1.540 . S
C3613 C3614 1.415 . S
C3614 H3590 0.950 . S
C3614 C3609 1.363 . S
C3614 C3613 1.415 . S
C3615 H3591 0.951 . S
C3615 C3616 1.366 . S
C3615 C3617 1.388 . S
C3616 C3615 1.366 . S
C3616 C3620 1.385 . S
C3617 H3592 0.951 . S
C3617 C3615 1.388 . S
C3617 C3618 1.366 . S
C3618 C3617 1.366 . S
C3618 C3619 1.414 . S
C3618 C3621 1.499 . S
C3619 H3593 0.950 . S
C3619 C3618 1.414 . S
C3619 C3620 1.374 . S
C3620 H3594 0.950 . S
C3620 C3616 1.385 . S
C3620 C3619 1.374 . S
C3621 C3618 1.499 . S
C3621 C3622 1.373 . S
C3621 C3623 1.389 . S
C3622 H3595 0.950 . S
C3622 C3608 1.377 . S
C3622 C3621 1.373 . S
C3623 C3607 1.377 . S
C3623 C3621 1.389 . S
C3623 C3624 1.524 . S
C3624 C3623 1.524 . S
C3624 C3625 1.397 . S
C3624 C3629 1.363 . S
C3625 H3596 0.950 . S
C3625 C3624 1.397 . S
C3625 C3626 1.334 . S
C3626 H3597 0.950 . S
C3626 C3625 1.334 . S
C3626 C3627 1.287 . S
C3627 C3626 1.287 . S
C3627 C3628 1.524 . S
C3627 H3630 0.999 . S
C3628 H3598 0.950 . S
C3628 C3627 1.524 . S
C3628 C3629 1.415 . S
C3629 H3599 0.950 . S
C3629 C3624 1.363 . S
C3629 C3628 1.415 . S
H3630 C3627 0.999 . S
H3631 C3612 0.887 1_556 S
C1266 C225 1.579 . S
C1251 C60 1.580 . S
C1316 C284 1.261 . S
C1301 C76 1.256 . S
C1351 C81 1.744 . S
C1366 C401 1.743 . S
C1416 C469 1.637 . S
C1401 C48 1.645 . S
C1466 C548 1.520 . S
C1451 C115 1.519 . S
C1516 C673 1.591 . S
C1501 C136 1.595 . S
C1551 C131 1.283 . S
C1566 C733 1.283 . S
C1616 C841 1.590 . S
C1601 C104 1.577 . S
C1651 C126 1.535 . S
C1666 C937 1.538 . S
C1716 C997 1.407 . S
C1701 C103 1.410 . S
C1751 C120 1.407 . S
C1766 C900 1.411 . S
C1816 C1017 1.380 . S
C1801 C142 1.381 . S
C1851 C82 1.456 . S
C1866 C1085 1.462 . S
C1901 C54 1.952 . S
C1916 C1076 1.957 . S
C1951 C65 1.383 . S
C1966 C1105 1.390 . S
C2001 C71 1.213 . S
C2016 C1113 1.223 . S
C2051 C37 1.617 . S
C2066 C497 1.615 . S
C2101 C158 2.144 . S
C2116 C460 2.138 . S
C2166 C196 1.352 . S
C2151 C169 1.356 . S
C2216 C293 1.153 . S
C2201 C98 1.146 . S
C2251 C49 1.809 . S
C2266 C557 1.827 . S
C2316 C849 1.396 . S
C2301 C125 1.395 . S
C2366 C577 1.356 . S
C2351 C109 1.357 . S
C2416 C761 1.899 . S
C2401 C137 1.891 . S
C2466 C753 1.579 . S
C2451 C159 1.580 . S
C2501 C175 1.256 . S
C2516 C821 1.261 . S
C2551 C92 1.745 . S
C2566 C585 1.743 . S
C2616 C636 1.636 . S
C2601 C147 1.645 . S
C2651 C38 1.519 . S
C2666 C381 1.520 . S
C2716 C489 1.591 . S
C2701 C4 1.595 . S
C2766 C205 1.283 . S
C2751 C21 1.283 . S
C2816 C321 1.590 . S
C2801 C27 1.576 1_455 S
C2851 C16 1.535 . S
C2866 C1025 1.538 . S
C2901 C26 1.410 . S
C2916 C909 1.407 . S
C2951 C43 1.407 . S
C2966 C988 1.411 . S
C3001 C10 1.381 . S
C3016 C929 1.381 . S
C3066 C1173 1.462 . S
C3051 C93 1.456 . S
C3116 C1164 1.957 . S
C3101 C153 1.952 . S
C3166 C1193 1.389 . S
C3151 C164 1.383 . S
C3201 C170 1.213 . S
C3216 C1201 1.223 . S
C3251 C114 1.617 . S
C3266 C665 1.615 . S
C3316 C645 2.138 . S
C3301 C59 2.143 . S
C3366 C724 1.352 . S
C3351 C70 1.356 . S
C3416 C812 1.154 . S
C3401 C87 1.146 . S
C3451 C148 1.809 . S
C3466 C372 1.827 . S
C3516 C313 1.396 . S
C3501 C15 1.395 . S
C3551 C32 1.357 . S
C3566 C409 1.355 . S
C3616 C233 1.898 . S
C3601 C5 1.890 . S
