# Generated by pormake.
# Topology zzz, (3,6)-cn, num edge types: 1
# Building blocks:
#     Node 0, Type 0, BuildingBlock: KAKCAD_clean_linker_0, # of connection points: 3
#     Node 1, Type 0, BuildingBlock: KAKCAD_clean_linker_0, # of connection points: 3
#     Node 2, Type 0, BuildingBlock: KAKCAD_clean_linker_0, # of connection points: 3
#     Node 3, Type 0, BuildingBlock: KAKCAD_clean_linker_0, # of connection points: 3
#     Node 4, Type 0, BuildingBlock: KAKCAD_clean_linker_0, # of connection points: 3
#     Node 5, Type 0, BuildingBlock: KAKCAD_clean_linker_0, # of connection points: 3
#     Node 6, Type 0, BuildingBlock: KAKCAD_clean_linker_0, # of connection points: 3
#     Node 7, Type 0, BuildingBlock: KAKCAD_clean_linker_0, # of connection points: 3
#     Node 8, Type 1, BuildingBlock: FUNLAD_clean_sbu_0, # of connection points: 6
#     Node 9, Type 1, BuildingBlock: FUNLAD_clean_sbu_0, # of connection points: 6
#     Node 10, Type 1, BuildingBlock: FUNLAD_clean_sbu_0, # of connection points: 6
#     Node 11, Type 1, BuildingBlock: FUNLAD_clean_sbu_0, # of connection points: 6
#     Edge 12, Type (0, 1), BuildingBlock: OJICUG_clean_linker_0, # of connection points: 2
#     Edge 13, Type (0, 1), BuildingBlock: OJICUG_clean_linker_0, # of connection points: 2
#     Edge 14, Type (0, 1), BuildingBlock: OJICUG_clean_linker_0, # of connection points: 2
#     Edge 15, Type (0, 1), BuildingBlock: OJICUG_clean_linker_0, # of connection points: 2
#     Edge 16, Type (0, 1), BuildingBlock: OJICUG_clean_linker_0, # of connection points: 2
#     Edge 17, Type (0, 1), BuildingBlock: OJICUG_clean_linker_0, # of connection points: 2
#     Edge 18, Type (0, 1), BuildingBlock: OJICUG_clean_linker_0, # of connection points: 2
#     Edge 19, Type (0, 1), BuildingBlock: OJICUG_clean_linker_0, # of connection points: 2
#     Edge 20, Type (0, 1), BuildingBlock: OJICUG_clean_linker_0, # of connection points: 2
#     Edge 21, Type (0, 1), BuildingBlock: OJICUG_clean_linker_0, # of connection points: 2
#     Edge 22, Type (0, 1), BuildingBlock: OJICUG_clean_linker_0, # of connection points: 2
#     Edge 23, Type (0, 1), BuildingBlock: OJICUG_clean_linker_0, # of connection points: 2
#     Edge 24, Type (0, 1), BuildingBlock: OJICUG_clean_linker_0, # of connection points: 2
#     Edge 25, Type (0, 1), BuildingBlock: OJICUG_clean_linker_0, # of connection points: 2
#     Edge 26, Type (0, 1), BuildingBlock: OJICUG_clean_linker_0, # of connection points: 2
#     Edge 27, Type (0, 1), BuildingBlock: OJICUG_clean_linker_0, # of connection points: 2
#     Edge 28, Type (0, 1), BuildingBlock: OJICUG_clean_linker_0, # of connection points: 2
#     Edge 29, Type (0, 1), BuildingBlock: OJICUG_clean_linker_0, # of connection points: 2
#     Edge 30, Type (0, 1), BuildingBlock: OJICUG_clean_linker_0, # of connection points: 2
#     Edge 31, Type (0, 1), BuildingBlock: OJICUG_clean_linker_0, # of connection points: 2
#     Edge 32, Type (0, 1), BuildingBlock: OJICUG_clean_linker_0, # of connection points: 2
#     Edge 33, Type (0, 1), BuildingBlock: OJICUG_clean_linker_0, # of connection points: 2
#     Edge 34, Type (0, 1), BuildingBlock: OJICUG_clean_linker_0, # of connection points: 2
#     Edge 35, Type (0, 1), BuildingBlock: OJICUG_clean_linker_0, # of connection points: 2
# Relax obj value: 0.266
# Max RMSD: 0.236
# Mean RMSD: 0.193
data_MOF--net-zzz--node1-FUNLAD_clean_sbu_0--node2-KAKCAD_clean_linker_0--edge1-OJICUG_clean_linker_0
_symmetry_space_group_name_H-M    P1
_symmetry_Int_Tables_number       1
_symmetry_cell_setting            triclinic
loop_
_symmetry_equiv_pos_as_xyz
'x, y, z'
_cell_length_a     45.44877
_cell_length_b     50.840102
_cell_length_c     17.830241
_cell_angle_alpha  85.859813
_cell_angle_beta   85.562351
_cell_angle_gamma 92.41944
loop_
_atom_site_label
_atom_site_type_symbol
_atom_site_fract_x
_atom_site_fract_y
_atom_site_fract_z
_atom_type_partial_charge
C0 C 0.88999 0.418 0.00766 0.0
C1 C 0.91701 0.41022 0.03267 0.0
C2 C 0.86505 0.41792 0.05832 0.0
C3 C 0.86645 0.40948 0.13493 0.0
C4 C 0.8928 0.39877 0.1575 0.0
C5 C 0.91804 0.39965 0.10714 0.0
C6 C 0.8425 0.41585 0.19194 0.0
C7 C 0.81318 0.41761 0.17307 0.0
C8 C 0.79201 0.4294 0.21994 0.0
C9 C 0.80001 0.4383 0.28892 0.0
C10 C 0.82877 0.43511 0.31078 0.0
C11 C 0.84976 0.42418 0.26182 0.0
C12 C 0.83867 0.44493 0.3813 0.0
C13 C 0.83734 0.47175 0.39468 0.0
C14 C 0.85439 0.42835 0.42842 0.0
C15 C 0.87042 0.43867 0.48398 0.0
C16 C 0.87111 0.46589 0.49395 0.0
C17 C 0.76284 0.43474 0.19138 0.0
C18 C 0.75187 0.46017 0.19197 0.0
C19 C 0.74784 0.41548 0.154 0.0
C20 C 0.72361 0.42194 0.11395 0.0
C21 C 0.71374 0.44779 0.11052 0.0
C22 C 0.72753 0.46663 0.15194 0.0
C23 C 0.85348 0.48217 0.45053 0.0
H24 H 0.88883 0.42655 0.95055 0.0
H25 H 0.84555 0.42663 0.03817 0.0
H26 H 0.89453 0.39125 0.21527 0.0
H27 H 0.93874 0.39351 0.12738 0.0
H28 H 0.80717 0.41122 0.11944 0.0
H29 H 0.87242 0.42394 0.27664 0.0
H30 H 0.78403 0.44766 0.32524 0.0
H31 H 0.82552 0.48496 0.35866 0.0
H32 H 0.85578 0.4076 0.41901 0.0
H33 H 0.88391 0.42549 0.51537 0.0
H34 H 0.76315 0.47551 0.21955 0.0
H35 H 0.75555 0.39562 0.15344 0.0
H36 H 0.85316 0.50314 0.45746 0.0
H37 H 0.72052 0.48675 0.15021 0.0
H38 H 0.71301 0.40682 0.08409 0.0
C39 C 0.98949 0.86855 0.06941 0.0
C40 C 0.0155 0.86506 0.02425 0.0
C41 C 0.97399 0.847 0.10884 0.0
C42 C 0.98431 0.8214 0.10504 0.0
C43 C 0.01053 0.8179 0.06029 0.0
C44 C 0.0259 0.83953 0.01985 0.0
C45 C 0.96787 0.79873 0.14917 0.0
C46 C 0.96474 0.77395 0.11994 0.0
C47 C 0.94925 0.75264 0.16288 0.0
C48 C 0.93663 0.75636 0.23582 0.0
C49 C 0.93942 0.78115 0.26466 0.0
C50 C 0.95517 0.80198 0.22171 0.0
C51 C 0.9274 0.78638 0.34069 0.0
C52 C 0.90211 0.80115 0.34799 0.0
C53 C 0.94642 0.78516 0.39883 0.0
C54 C 0.94252 0.8014 0.45828 0.0
C55 C 0.91947 0.81909 0.4603 0.0
C56 C 0.94741 0.72644 0.13173 0.0
C57 C 0.94087 0.72436 0.05659 0.0
C58 C 0.9544 0.70368 0.17486 0.0
C59 C 0.95636 0.67956 0.1422 0.0
C60 C 0.95113 0.67775 0.06599 0.0
C61 C 0.94265 0.70025 0.02409 0.0
C62 C 0.89801 0.81725 0.40785 0.0
H63 H 0.98048 0.88789 0.07211 0.0
H64 H 0.95353 0.8504 0.14127 0.0
H65 H 0.01931 0.79851 0.0569 0.0
H66 H 0.04583 0.83633 0.98498 0.0
H67 H 0.97455 0.77115 0.06391 0.0
H68 H 0.95796 0.82079 0.24609 0.0
H69 H 0.92468 0.74019 0.26966 0.0
H70 H 0.88736 0.80253 0.30308 0.0
H71 H 0.96632 0.77419 0.39343 0.0
H72 H 0.95958 0.80221 0.4973 0.0
H73 H 0.93509 0.74155 0.02232 0.0
H74 H 0.95965 0.70475 0.23284 0.0
H75 H 0.8796 0.83011 0.40885 0.0
H76 H 0.93869 0.69955 0.96513 0.0
H77 H 0.96263 0.66246 0.17606 0.0
C78 C 0.6777 0.03752 0.9449 0.0
C79 C 0.65384 0.05122 0.97433 0.0
C80 C 0.70197 0.03324 0.98691 0.0
C81 C 0.7029 0.04292 0.0587 0.0
C82 C 0.68016 0.05889 0.08437 0.0
C83 C 0.65559 0.0626 0.04312 0.0
C84 C 0.72497 0.03334 0.11054 0.0
C85 C 0.75383 0.02829 0.08369 0.0
C86 C 0.77345 0.01596 0.13111 0.0
C87 C 0.76402 0.00968 0.20831 0.0
C88 C 0.7352 0.0154 0.23615 0.0
C89 C 0.71606 0.02681 0.18665 0.0
C90 C 0.72293 0.00941 0.31558 0.0
C91 C 0.71359 0.98349 0.34211 0.0
C92 C 0.71248 0.03034 0.35572 0.0
C93 C 0.69118 0.02578 0.41663 0.0
C94 C 0.67986 -0.0 0.44032 0.0
C95 C 0.80312 0.00938 0.09693 0.0
C96 C 0.80538 -0.00088 0.02559 0.0
C97 C 0.82934 0.01538 0.13054 0.0
C98 C 0.85709 0.01233 0.09193 0.0
C99 C 0.85925 0.00313 0.0189 0.0
C100 C 0.83287 0.99624 0.98709 0.0
C101 C 0.69245 0.97881 0.40418 0.0
H102 H 0.67653 0.02835 0.89213 0.0
H103 H 0.71884 0.02069 0.96542 0.0
H104 H 0.68054 0.0673 0.1384 0.0
H105 H 0.63733 0.07326 0.06656 0.0
H106 H 0.76103 0.03383 0.02511 0.0
H107 H 0.69349 0.02968 0.20771 0.0
H108 H 0.77868 0.00021 0.24583 0.0
H109 H 0.72084 0.967 0.31137 0.0
H110 H 0.71881 0.05056 0.33547 0.0
H111 H 0.68213 0.04285 0.44106 0.0
H112 H 0.7857 0.99392 0.99827 0.0
H113 H 0.82843 0.02335 0.18533 0.0
H114 H 0.68507 0.95861 0.42142 0.0
H115 H 0.83324 0.98944 0.93089 0.0
H116 H 0.87682 0.01745 0.11908 0.0
C117 C 0.54145 0.65661 0.4872 0.0
C118 C 0.56748 0.64247 0.48687 0.0
C119 C 0.53648 0.67429 0.42625 0.0
C120 C 0.55735 0.67813 0.36397 0.0
C121 C 0.5846 0.66627 0.36693 0.0
C122 C 0.58975 0.64877 0.42819 0.0
C123 C 0.54722 0.68665 0.28994 0.0
C124 C 0.54522 0.7133 0.26489 0.0
C125 C 0.53386 0.71994 0.19487 0.0
C126 C 0.52452 0.69965 0.15104 0.0
C127 C 0.52682 0.67309 0.17569 0.0
C128 C 0.5381 0.66684 0.24517 0.0
C129 C 0.51839 0.65161 0.12864 0.0
C130 C 0.49127 0.65109 0.09579 0.0
C131 C 0.53743 0.63094 0.11834 0.0
C132 C 0.52941 0.60994 0.07716 0.0
C133 C 0.50201 0.60892 0.04556 0.0
C134 C 0.53246 0.74782 0.16487 0.0
C135 C 0.50718 0.75618 0.13117 0.0
C136 C 0.55719 0.76547 0.16297 0.0
C137 C 0.55716 0.7905 0.1245 0.0
C138 C 0.53234 0.79834 0.08747 0.0
C139 C 0.50709 0.78114 0.09309 0.0
C140 C 0.4831 0.62987 0.05463 0.0
H141 H 0.52363 0.65223 0.53078 0.0
H142 H 0.51506 0.68281 0.42429 0.0
H143 H 0.60083 0.66869 0.31882 0.0
H144 H 0.61029 0.63871 0.42681 0.0
H145 H 0.5522 0.72865 0.2997 0.0
H146 H 0.53939 0.64629 0.26535 0.0
H147 H 0.51647 0.70452 0.09632 0.0
H148 H 0.47615 0.66677 0.1033 0.0
H149 H 0.55872 0.63111 0.14182 0.0
H150 H 0.54497 0.59463 0.06921 0.0
H151 H 0.48763 0.74314 0.13278 0.0
H152 H 0.57705 0.75946 0.18798 0.0
H153 H 0.46188 0.62967 0.03089 0.0
H154 H 0.48734 0.7868 0.06694 0.0
H155 H 0.57701 0.80322 0.12101 0.0
C156 C 0.15177 0.59752 0.36748 0.0
C157 C 0.12655 0.58062 0.36466 0.0
C158 C 0.17687 0.59533 0.31792 0.0
C159 C 0.17705 0.57644 0.26414 0.0
C160 C 0.15128 0.5607 0.25862 0.0
C161 C 0.12646 0.56272 0.30813 0.0
C162 C 0.20445 0.57087 0.21849 0.0
C163 C 0.23099 0.56759 0.25253 0.0
C164 C 0.25513 0.55651 0.21411 0.0
C165 C 0.25248 0.54862 0.1406 0.0
C166 C 0.22639 0.55297 0.1052 0.0
C167 C 0.20289 0.56455 0.14381 0.0
C168 C 0.22083 0.54289 0.03192 0.0
C169 C 0.21636 0.56103 0.97132 0.0
C170 C 0.21045 0.51655 0.03045 0.0
C171 C 0.19268 0.50925 0.97394 0.0
C172 C 0.18509 0.52827 0.91841 0.0
C173 C 0.28194 0.5515 0.25431 0.0
C174 C 0.29446 0.57137 0.29438 0.0
C175 C 0.29358 0.52632 0.25853 0.0
C176 C 0.31664 0.52089 0.30416 0.0
C177 C 0.3287 0.54065 0.34561 0.0
C178 C 0.31768 0.56605 0.33923 0.0
C179 C 0.19879 0.55373 0.91467 0.0
H180 H 0.15251 0.61176 0.40969 0.0
H181 H 0.19637 0.60787 0.32297 0.0
H182 H 0.15081 0.54555 0.21896 0.0
H183 H 0.10795 0.54883 0.30496 0.0
H184 H 0.23219 0.57186 0.31095 0.0
H185 H 0.18246 0.56705 0.11694 0.0
H186 H 0.27043 0.53911 0.11136 0.0
H187 H 0.22386 0.58152 0.97196 0.0
H188 H 0.21321 0.50239 0.07749 0.0
H189 H 0.18244 0.48951 0.97847 0.0
H190 H 0.2859 0.59096 0.29202 0.0
H191 H 0.28413 0.51058 0.22879 0.0
H192 H 0.19374 0.56867 0.87175 0.0
H193 H 0.32639 0.58162 0.37082 0.0
H194 H 0.32491 0.50121 0.30745 0.0
C195 C 0.01229 0.15463 0.44048 0.0
C196 C 0.02463 0.12978 0.44045 0.0
C197 C 0.02692 0.17655 0.3996 0.0
C198 C 0.05439 0.17404 0.35913 0.0
C199 C 0.06679 0.14914 0.36055 0.0
C200 C 0.05197 0.12726 0.40011 0.0
C201 C 0.06978 0.1969 0.31331 0.0
C202 C 0.06934 0.22256 0.33751 0.0
C203 C 0.08329 0.2441 0.29227 0.0
C204 C 0.09826 0.23972 0.22244 0.0
C205 C 0.09906 0.2141 0.19856 0.0
C206 C 0.08471 0.19302 0.24365 0.0
C207 C 0.11206 0.20834 0.12381 0.0
C208 C 0.09411 0.20997 0.06345 0.0
C209 C 0.13691 0.19291 0.11947 0.0
C210 C 0.14147 0.17661 0.06023 0.0
C211 C 0.12085 0.17516 0.00555 0.0
C212 C 0.08141 0.27111 0.31794 0.0
C213 C 0.0544 0.2794 0.34951 0.0
C214 C 0.10653 0.28843 0.31348 0.0
C215 C 0.10477 0.31331 0.34201 0.0
C216 C 0.0778 0.32137 0.37479 0.0
C217 C 0.05261 0.30421 0.3776 0.0
C218 C 0.0984 0.19345 0.00474 0.0
H219 H 0.99132 0.15705 0.47186 0.0
H220 H 0.01654 0.19534 0.399 0.0
H221 H 0.08822 0.14653 0.33178 0.0
H222 H 0.06237 0.10846 0.40103 0.0
H223 H 0.05842 0.22577 0.39207 0.0
H224 H 0.08438 0.17353 0.22256 0.0
H225 H 0.10859 0.25611 0.1862 0.0
H226 H 0.07457 0.22147 0.06644 0.0
H227 H 0.15087 0.19126 0.16601 0.0
H228 H 0.15949 0.16335 0.06139 0.0
H229 H 0.0346 0.2666 0.35291 0.0
H230 H 0.12765 0.2825 0.28969 0.0
H231 H 0.08199 0.19299 0.96391 0.0
H232 H 0.03159 0.30968 0.40328 0.0
H233 H 0.12449 0.32621 0.33858 0.0
C234 C 0.38418 0.93979 0.3981 0.0
C235 C 0.38472 0.94824 0.47106 0.0
C236 C 0.35978 0.94425 0.3568 0.0
C237 C 0.33585 0.95795 0.38694 0.0
C238 C 0.33548 0.96445 0.46234 0.0
C239 C 0.35968 0.95949 0.50418 0.0
C240 C 0.31374 0.9686 0.33693 0.0
C241 C 0.28393 0.97017 0.36267 0.0
C242 C 0.26384 0.98243 0.31668 0.0
C243 C 0.27389 0.99295 0.24297 0.0
C244 C 0.30376 0.99108 0.21653 0.0
C245 C 0.32325 0.97919 0.264 0.0
C246 C 0.31621 0.00042 0.13941 0.0
C247 C 0.3165 0.98265 0.0827 0.0
C248 C 0.33592 0.0227 0.12985 0.0
C249 C 0.35714 0.02598 0.06799 0.0
C250 C 0.35932 0.0068 0.01501 0.0
C251 C 0.23281 0.98453 0.34865 0.0
C252 C 0.21661 0.96186 0.38146 0.0
C253 C 0.22069 0.00928 0.35584 0.0
C254 C 0.19354 0.01137 0.39796 0.0
C255 C 0.17774 0.9887 0.43277 0.0
C256 C 0.18935 0.96389 0.42245 0.0
C257 C 0.33782 0.9858 0.02115 0.0
H258 H 0.40325 0.93095 0.37174 0.0
H259 H 0.36041 0.93829 0.29961 0.0
H260 H 0.31755 0.97514 0.48728 0.0
H261 H 0.3598 0.96637 0.56028 0.0
H262 H 0.27639 0.96223 0.41927 0.0
H263 H 0.34634 0.97868 0.24381 0.0
H264 H 0.25868 0.00228 0.20669 0.0
H265 H 0.30207 0.96498 0.08961 0.0
H266 H 0.3367 0.03629 0.17385 0.0
H267 H 0.3734 0.04228 0.06536 0.0
H268 H 0.22551 0.94253 0.37722 0.0
H269 H 0.23285 0.0271 0.33194 0.0
H270 H 0.33864 0.97085 0.98082 0.0
H271 H 0.17795 0.94605 0.44879 0.0
H272 H 0.18511 0.03077 0.40423 0.0
C273 C 0.44726 0.36454 0.06125 0.0
C274 C 0.46096 0.35844 0.99167 0.0
C275 C 0.45063 0.34852 0.12674 0.0
C276 C 0.46779 0.32619 0.12387 0.0
C277 C 0.47794 0.3181 0.05326 0.0
C278 C 0.47448 0.33409 0.98756 0.0
C279 C 0.48095 0.31571 0.19281 0.0
C280 C 0.48136 0.28851 0.21354 0.0
C281 C 0.49649 0.27952 0.27584 0.0
C282 C 0.51142 0.29793 0.3164 0.0
C283 C 0.51127 0.32506 0.29599 0.0
C284 C 0.49576 0.33368 0.23466 0.0
C285 C 0.52643 0.34468 0.33952 0.0
C286 C 0.52427 0.34193 0.41879 0.0
C287 C 0.5412 0.3674 0.30223 0.0
C288 C 0.55152 0.38777 0.3432 0.0
C289 C 0.54768 0.38567 0.42227 0.0
C290 C 0.49676 0.25105 0.30048 0.0
C291 C 0.47029 0.23555 0.31386 0.0
C292 C 0.5234 0.23988 0.31778 0.0
C293 C 0.52348 0.21415 0.35076 0.0
C294 C 0.49691 0.19898 0.3675 0.0
C295 C 0.47034 0.20978 0.34747 0.0
C296 C 0.5349 0.3622 0.45977 0.0
H297 H 0.43664 0.38305 0.06672 0.0
H298 H 0.44228 0.355 0.18058 0.0
H299 H 0.49114 0.30093 0.04942 0.0
H300 H 0.48469 0.32855 0.93445 0.0
H301 H 0.47025 0.27446 0.18106 0.0
H302 H 0.49546 0.35464 0.21862 0.0
H303 H 0.52313 0.29109 0.36423 0.0
H304 H 0.51286 0.3248 0.44928 0.0
H305 H 0.54391 0.36983 0.2412 0.0
H306 H 0.56153 0.40559 0.31305 0.0
H307 H 0.44944 0.24375 0.3014 0.0
H308 H 0.54415 0.25135 0.3076 0.0
H309 H 0.53134 0.36022 0.52074 0.0
H310 H 0.44955 0.19846 0.35892 0.0
H311 H 0.5443 0.20655 0.36596 0.0
C312 C 0.03778 0.95691 0.82673 0.0
N313 N 0.98714 0.95546 0.64308 0.0
C314 C 1.0016 0.93298 0.63217 0.0
C315 C 0.9868 0.91096 0.60837 0.0
C316 C 0.9569 0.91209 0.59469 0.0
C317 C 0.94275 0.93584 0.60303 0.0
C318 C 0.95835 0.9574 0.62815 0.0
Zn319 Zn 0.00864 0.98397 0.69583 0.0
C320 C 0.96944 0.00034 0.82854 0.0
N321 N 0.05361 0.03905 0.82036 0.0
C322 C 0.0823 0.03697 0.83608 0.0
C323 C 0.03924 0.0616 0.83086 0.0
C324 C 0.05403 0.08355 0.85508 0.0
C325 C 0.08382 0.08226 0.86973 0.0
C326 C 0.09787 0.05844 0.86175 0.0
Zn327 Zn 0.03211 0.01055 0.76752 0.0
O328 O 0.02296 0.95409 0.77019 0.0
C329 C 0.07119 0.99392 0.6345 0.0
O330 O 0.04579 0.97998 0.84259 0.0
H331 H 0.01644 0.06287 0.81817 0.0
H332 H 0.02447 0.93181 0.64431 0.0
H333 H 0.09335 0.01893 0.82664 0.0
O334 O 0.04749 0.98134 0.6221 0.0
O335 O 0.07119 0.00756 0.69173 0.0
H336 H 0.94724 0.97539 0.63791 0.0
O337 O 0.01787 0.04045 0.69289 0.0
O338 O 0.99486 0.0145 0.62096 0.0
O339 O 0.99287 0.01325 0.84153 0.0
O340 O 0.96988 0.98677 0.77122 0.0
C341 C 1.00295 0.03757 0.63656 0.0
H342 H 0.99864 0.89315 0.60085 0.0
H343 H 0.91973 0.93745 0.59239 0.0
H344 H 0.04228 0.10142 0.86228 0.0
H345 H 0.1208 0.05672 0.87317 0.0
C346 C 0.48464 0.97315 0.63076 0.0
N347 N 0.50987 0.05323 0.6341 0.0
C348 C 0.51397 0.05328 0.55767 0.0
C349 C 0.51057 0.07624 0.51202 0.0
C350 C 0.50288 0.09949 0.54511 0.0
C351 C 0.49844 0.09881 0.6242 0.0
C352 C 0.5021 0.07536 0.66784 0.0
Zn353 Zn 0.51589 0.01874 0.69664 0.0
C354 C 0.4675 0.00486 0.81786 0.0
N355 N 0.52778 0.94453 0.81652 0.0
C356 C 0.53426 0.92231 0.78164 0.0
C357 C 0.52418 0.94417 0.89309 0.0
C358 C 0.52655 0.92075 0.93769 0.0
C359 C 0.53269 0.89737 0.90333 0.0
C360 C 0.53684 0.89843 0.82414 0.0
Zn361 Zn 0.52193 0.97915 0.75445 0.0
O362 O 0.49057 0.9979 0.62335 0.0
C363 C 0.5705 0.99308 0.63425 0.0
O364 O 0.49523 0.95914 0.68305 0.0
H365 H 0.51897 0.96203 0.91976 0.0
H366 H 0.51999 0.03546 0.53186 0.0
H367 H 0.5371 0.92305 0.72073 0.0
O368 O 0.55576 0.01374 0.62872 0.0
O369 O 0.56117 0.97403 0.68156 0.0
H370 H 0.49897 0.07488 0.72869 0.0
O371 O 0.54813 -8e-05 0.82607 0.0
O372 O 0.54163 0.03888 0.76941 0.0
O373 O 0.483 0.98471 0.82475 0.0
O374 O 0.47602 0.02339 0.76794 0.0
C375 C 0.55318 0.0248 0.81996 0.0
H376 H 0.51382 0.07573 0.45133 0.0
H377 H 0.49281 0.11635 0.65216 0.0
H378 H 0.52278 0.92085 0.99838 0.0
H379 H 0.54199 0.88098 0.79523 0.0
C380 C 0.54391 0.46909 0.61872 0.0
N381 N 0.46518 0.50861 0.64119 0.0
C382 C 0.47201 0.51667 0.56718 0.0
C383 C 0.44979 0.52187 0.51937 0.0
C384 C 0.42009 0.51857 0.54747 0.0
C385 C 0.41351 0.50989 0.62385 0.0
C386 C 0.43656 0.50511 0.67013 0.0
Zn387 Zn 0.50003 0.5018 0.70535 0.0
C388 C 0.49436 0.4521 0.80005 0.0
N389 N 0.57722 0.48768 0.8217 0.0
C390 C 0.60567 0.48913 0.79114 0.0
C391 C 0.5706 0.48097 0.8966 0.0
C392 C 0.59291 0.47541 0.94392 0.0
C393 C 0.62245 0.47657 0.91411 0.0
C394 C 0.62876 0.48355 0.83656 0.0
Zn395 Zn 0.54244 0.49483 0.75763 0.0
O396 O 0.5188 0.47923 0.62005 0.0
C397 C 0.54851 0.54433 0.66325 0.0
O398 O 0.56051 0.47263 0.67158 0.0
H399 H 0.54786 0.47968 0.91986 0.0
H400 H 0.49484 0.51904 0.54486 0.0
H401 H 0.61045 0.49451 0.7315 0.0
O402 O 0.52218 0.53675 0.65368 0.0
O403 O 0.56399 0.5302 0.70513 0.0
H404 H 0.43161 0.49866 0.72907 0.0
O405 O 0.52343 0.51686 0.84333 0.0
O406 O 0.48216 0.52455 0.7907 0.0
O407 O 0.52081 0.45989 0.80757 0.0
O408 O 0.4783 0.46642 0.76016 0.0
C409 C 0.49858 0.52744 0.8443 0.0
H410 H 0.45582 0.52812 0.46062 0.0
H411 H 0.39085 0.50724 0.64775 0.0
H412 H 0.58699 0.4697 0.00304 0.0
H413 H 0.65128 0.48485 0.81139 0.0
C414 C 0.04508 0.54008 0.60166 0.0
N415 N 0.04773 0.45758 0.61777 0.0
C416 C 0.04263 0.45928 0.54343 0.0
C417 C 0.0504 0.43902 0.49815 0.0
C418 C 0.06336 0.41665 0.52968 0.0
C419 C 0.0693 0.41584 0.60602 0.0
C420 C 0.06128 0.43664 0.64923 0.0
Zn421 Zn 0.03243 0.48625 0.68292 0.0
C422 C 0.07697 0.50778 0.77694 0.0
N423 N 0.99911 0.54803 0.80986 0.0
C424 C 0.98493 0.56856 0.77828 0.0
C425 C 1.00357 0.54623 0.88459 0.0
C426 C 0.99395 0.56575 0.93054 0.0
C427 C 0.97976 0.58747 0.89929 0.0
C428 C 0.97507 0.58861 0.82212 0.0
Zn429 Zn 0.01469 0.51948 0.74472 0.0
O430 O 0.0483 0.51551 0.5977 0.0
C431 C 0.97028 0.49818 0.65049 0.0
O432 O 0.03131 0.54841 0.65915 0.0
H433 H 0.01485 0.52972 0.9086 0.0
H434 H 0.03185 0.4761 0.51949 0.0
H435 H 0.98163 0.56958 0.71874 0.0
O436 O 0.99125 0.48319 0.63557 0.0
O437 O 0.97361 0.51625 0.69512 0.0
H438 H 0.0651 0.4357 0.70847 0.0
O439 O 0.99877 0.49008 0.8303 0.0
O440 O 0.01593 0.45744 0.76828 0.0
O441 O 0.05565 0.52243 0.79209 0.0
O442 O 0.07365 0.48964 0.73235 0.0
C443 C 1.00202 0.46552 0.82598 0.0
H444 H 0.04582 0.44067 0.43933 0.0
H445 H 0.07895 0.39886 0.63293 0.0
H446 H 0.99768 0.56384 0.9899 0.0
H447 H 0.96461 0.60515 0.79534 0.0
C448 C 0.12545 0.97329 0.47823 0.0
C449 C 0.14998 0.9908 0.48242 0.0
H450 H 0.08148 0.96063 0.5221 0.0
C451 C 0.14824 0.00955 0.53677 0.0
H452 H 0.12595 0.95871 0.43682 0.0
C453 C 0.12282 0.01048 0.58636 0.0
C454 C 0.09832 0.99291 0.58226 0.0
H455 H 0.16683 0.02313 0.54218 0.0
H456 H 0.12237 0.02503 0.62788 0.0
C457 C 0.0999 0.97444 0.52711 0.0
C458 C 0.51928 0.15517 0.39199 0.0
C459 C 0.49702 0.17262 0.40942 0.0
H460 H 0.53877 0.11868 0.4214 0.0
C461 C 0.47599 0.16541 0.4703 0.0
H462 H 0.53567 0.16004 0.34511 0.0
C463 C 0.47766 0.14159 0.51391 0.0
C464 C 0.50031 0.12439 0.49737 0.0
H465 H 0.45874 0.17855 0.48568 0.0
H466 H 0.46126 0.13668 0.56072 0.0
C467 C 0.5209 0.13134 0.43537 0.0
C468 C 0.34986 0.51186 0.44658 0.0
C469 C 0.35221 0.53475 0.39685 0.0
H470 H 0.36935 0.48889 0.53376 0.0
C471 C 0.37681 0.55237 0.39778 0.0
H472 H 0.33096 0.49807 0.44769 0.0
C473 C 0.39868 0.54715 0.44697 0.0
C474 C 0.39634 0.52429 0.49682 0.0
H475 H 0.37929 0.57011 0.35993 0.0
H476 H 0.41736 0.56113 0.44639 0.0
C477 C 0.37162 0.50676 0.4964 0.0
C478 C 0.0512 0.36248 0.39866 0.0
C479 C 0.0758 0.34714 0.40853 0.0
H480 H 0.02785 0.39612 0.4296 0.0
C481 C 0.09741 0.35578 0.45472 0.0
H482 H 0.03435 0.35651 0.36271 0.0
C483 C 0.09386 0.37875 0.49256 0.0
C484 C 0.06869 0.39356 0.48475 0.0
H485 H 0.11653 0.3443 0.4638 0.0
H486 H 0.11063 0.3847 0.52871 0.0
C487 C 0.04765 0.38537 0.43638 0.0
C488 C 0.89277 0.98179 0.92328 0.0
C489 C 0.8885 0.0015 0.97424 0.0
H490 H 0.92112 0.96617 0.83751 0.0
C491 C 0.91185 0.02035 0.97868 0.0
H492 H 0.87583 0.96647 0.91917 0.0
C493 C 0.93828 0.01983 0.93239 0.0
C494 C 0.94195 0.00063 0.8798 0.0
H495 H 0.90946 0.03604 0.01631 0.0
H496 H 0.95557 0.03485 0.9366 0.0
C497 C 0.91893 0.98151 0.87641 0.0
C498 C 0.54621 0.84693 0.06387 0.0
C499 C 0.53305 0.82375 0.04021 0.0
H500 H 0.55675 0.88827 0.039 0.0
C501 C 0.52056 0.82489 0.97035 0.0
H502 H 0.55594 0.84677 0.11745 0.0
C503 C 0.5208 0.84864 0.92578 0.0
C504 C 0.53359 0.87192 0.94974 0.0
H505 H 0.51069 0.80732 0.94973 0.0
H506 H 0.51041 0.84883 0.8731 0.0
C507 C 0.54643 0.87076 0.0192 0.0
C508 C 0.66784 0.4717 0.08442 0.0
C509 C 0.69033 0.45536 0.06044 0.0
H510 H 0.62893 0.4914 0.05681 0.0
C511 C 0.69073 0.44661 0.9873 0.0
H512 H 0.66689 0.47871 0.14045 0.0
C513 C 0.66902 0.45383 0.93947 0.0
C514 C 0.6463 0.46989 0.96374 0.0
H515 H 0.70804 0.43433 0.96668 0.0
H516 H 0.66972 0.44644 0.88392 0.0
C517 C 0.646 0.47881 0.03669 0.0
C518 C 0.93778 0.64404 0.97642 0.0
C519 C 0.95683 0.65317 0.02835 0.0
H520 H 0.92969 0.61579 0.89611 0.0
C521 C 0.98264 0.63973 0.04025 0.0
H522 H 0.91756 0.65385 0.9667 0.0
C523 C 0.98972 0.61812 0.9995 0.0
C524 C 0.97108 0.60935 0.94608 0.0
H525 H 0.99802 0.64656 0.07891 0.0
H526 H 0.01037 0.6089 0.008 0.0
C527 C 0.94479 0.62232 0.93584 0.0
C528 C 1.00469 0.10877 0.56542 0.0
C529 C 0.0109 0.1068 0.48783 0.0
H530 H 0.99689 0.08786 0.67408 0.0
C531 C 0.0084 0.08194 0.45843 0.0
H532 H 1.00659 0.12769 0.58942 0.0
C533 C 1.0024 0.05913 0.50678 0.0
C534 C 0.9994 0.06096 0.5851 0.0
H535 H 0.01293 0.08003 0.39857 0.0
H536 H 1.00282 0.04006 0.48339 0.0
C537 C 0.9992 0.08599 0.61377 0.0
C538 C 0.43654 0.96553 0.47114 0.0
C539 C 0.41276 0.94975 0.50728 0.0
H540 H 0.47821 0.98547 0.4828 0.0
C541 C 0.41475 0.93874 0.58107 0.0
H542 H 0.43528 0.97447 0.4145 0.0
C543 C 0.4397 0.94445 0.61939 0.0
C544 C 0.46242 0.9619 0.58506 0.0
H545 H 0.39653 0.92666 0.60996 0.0
H546 H 0.44018 0.93685 0.67762 0.0
C547 C 0.46101 0.97185 0.51009 0.0
C548 C 0.56686 0.40697 0.53266 0.0
C549 C 0.55281 0.40905 0.46515 0.0
H550 H 0.57587 0.42508 0.63394 0.0
C551 C 0.53998 0.43279 0.44359 0.0
H552 H 0.57697 0.38887 0.55028 0.0
C553 C 0.53902 0.45326 0.49156 0.0
C554 C 0.55132 0.45053 0.56133 0.0
H555 H 0.52876 0.43484 0.39217 0.0
H556 H 0.52726 0.47067 0.47588 0.0
C557 C 0.56641 0.42772 0.58012 0.0
C558 C 0.10899 0.57947 0.50176 0.0
C559 C 0.10231 0.57838 0.42621 0.0
H560 H 0.09508 0.56845 0.6178 0.0
C561 C 0.07345 0.57011 0.41152 0.0
H562 H 0.13092 0.5855 0.51561 0.0
C563 C 0.0533 0.55962 0.47022 0.0
C564 C 0.06126 0.55837 0.54457 0.0
H565 H 0.06721 0.56975 0.35419 0.0
H566 H 0.03233 0.55088 0.45711 0.0
C567 C 0.0885 0.56964 0.56053 0.0
C568 C 0.03322 0.91261 0.00508 0.0
C569 C 0.0295 0.88778 0.97603 0.0
H570 H 0.03975 0.95442 0.97969 0.0
C571 C 0.03477 0.88572 0.89818 0.0
H572 H 0.02956 0.91463 0.06511 0.0
C573 C 0.04045 0.90839 0.84954 0.0
C574 C 0.04128 0.93346 0.87804 0.0
H575 H 0.03198 0.86687 0.87425 0.0
H576 H 0.04205 0.90645 0.78925 0.0
C577 C 0.0393 0.93533 0.95636 0.0
C578 C 0.62282 0.06034 0.86648 0.0
C579 C 0.62553 0.04935 0.93988 0.0
H580 H 0.59661 0.06179 0.77138 0.0
C581 C 0.60238 0.03307 0.97699 0.0
H582 H 0.64065 0.0727 0.83686 0.0
C583 C 0.57772 0.02631 0.93927 0.0
C584 C 0.57554 0.03632 0.86466 0.0
H585 H 0.60431 0.02416 0.03337 0.0
H586 H 0.56099 0.01235 0.96716 0.0
C587 C 0.59768 0.05419 0.82942 0.0
C588 C 0.50263 0.56092 0.02337 0.0
C589 C 0.49431 0.58645 0.00086 0.0
H590 H 0.51027 0.52197 0.99075 0.0
C591 C 0.48178 0.59067 0.93151 0.0
H592 H 0.51152 0.55681 0.07739 0.0
C593 C 0.48027 0.57037 0.88271 0.0
C594 C 0.49158 0.54577 0.90241 0.0
H595 H 0.47518 0.61009 0.91249 0.0
H596 H 0.47269 0.57463 0.82718 0.0
C597 C 0.50162 0.54088 0.97424 0.0
C598 C 0.94871 0.41125 0.91153 0.0
C599 C 0.94433 0.41864 0.98574 0.0
H600 H 0.97168 0.4201 0.80242 0.0
C601 C 0.96271 0.4387 0.0099 0.0
H602 H 0.93447 0.39605 0.89173 0.0
C603 C 0.98325 0.4529 0.95864 0.0
C604 C 0.98623 0.44675 0.88314 0.0
H605 H 0.95936 0.44496 0.06663 0.0
H606 H 0.99558 0.46967 0.97692 0.0
C607 C 0.96993 0.42499 0.86071 0.0
C608 C 0.10704 0.15339 0.88997 0.0
C609 C 0.11859 0.15157 0.961 0.0
H610 H 0.08691 0.13265 0.80526 0.0
C611 C 0.12291 0.12631 0.99534 0.0
H612 H 0.10397 0.17244 0.86113 0.0
C613 C 0.11355 0.10357 0.96269 0.0
C614 C 0.0994 0.10563 0.8956 0.0
H615 H 0.13133 0.12397 0.05046 0.0
H616 H 0.11537 0.0845 0.99284 0.0
C617 C 0.09731 0.13064 0.85792 0.0
C618 C 0.39819 0.02983 0.91975 0.0
C619 C 0.38605 0.00662 0.96055 0.0
H620 H 0.43322 0.04756 0.84183 0.0
C621 C 0.40083 0.98309 0.95309 0.0
H622 H 0.38739 0.0483 0.92435 0.0
C623 C 0.42713 0.98274 0.90705 0.0
C624 C 0.43938 0.00586 0.86628 0.0
H625 H 0.39251 0.96495 0.98466 0.0
H626 H 0.43789 0.96421 0.90357 0.0
C627 C 0.42443 0.0294 0.87251 0.0
C628 C 0.4458 0.39842 0.91318 0.0
C629 C 0.46685 0.37968 0.92964 0.0
H630 H 0.43784 0.4362 0.85772 0.0
C631 C 0.4957 0.38378 0.89512 0.0
H632 H 0.42337 0.39577 0.93872 0.0
C633 C 0.5039 0.4068 0.85003 0.0
C634 C 0.48348 0.42628 0.83749 0.0
H635 H 0.51267 0.37012 0.90714 0.0
H636 H 0.52672 0.40983 0.82735 0.0
C637 C 0.45402 0.42149 0.86682 0.0
C638 C 0.13711 0.54205 0.8737 0.0
C639 C 0.15896 0.52333 0.87533 0.0
H640 H 0.09434 0.55172 0.84228 0.0
C641 C 0.154 0.49935 0.84248 0.0
H642 H 0.13987 0.56046 0.89998 0.0
C643 C 0.12757 0.49426 0.80903 0.0
C644 C 0.10551 0.51286 0.80933 0.0
H645 H 0.17039 0.4845 0.84329 0.0
H646 H 0.12416 0.4756 0.7845 0.0
C647 C 0.11075 0.53687 0.84144 0.0
C648 C 0.93419 0.8408 0.57503 0.0
C649 C 0.92182 0.84258 0.50507 0.0
H650 H 0.95502 0.86163 0.65844 0.0
C651 C 0.91679 0.8678 0.47155 0.0
H652 H 0.93784 0.82176 0.60316 0.0
C653 C 0.9263 0.89058 0.50375 0.0
C654 C 0.94126 0.8886 0.5696 0.0
H655 H 0.9077 0.87008 0.41723 0.0
H656 H 0.92394 0.90964 0.47408 0.0
C657 C 0.94402 0.86359 0.60667 0.0
C658 C 0.63204 0.97505 0.49312 0.0
C659 C 0.65338 0.99587 0.49703 0.0
H660 H 0.58929 0.95753 0.5343 0.0
C661 C 0.64771 0.01417 0.55162 0.0
H662 H 0.63505 0.96067 0.45166 0.0
C663 C 0.62096 0.01285 0.59654 0.0
C664 C 0.5995 0.99265 0.59049 0.0
H665 H 0.66367 0.02998 0.55903 0.0
H666 H 0.61694 0.02781 0.63597 0.0
C667 C 0.60558 0.97329 0.54003 0.0
C668 C 0.55524 0.61736 0.61346 0.0
C669 C 0.56892 0.61848 0.53962 0.0
H670 H 0.53818 0.59253 0.71099 0.0
C671 C 0.58005 0.59516 0.51255 0.0
H672 H 0.54677 0.63491 0.63661 0.0
C673 C 0.5756 0.57107 0.55588 0.0
C674 C 0.56 0.56987 0.62692 0.0
H675 H 0.59023 0.59502 0.45566 0.0
H676 H 0.58253 0.55315 0.53177 0.0
C677 C 0.55057 0.5932 0.65639 0.0
C678 C 0.89984 0.46291 0.60912 0.0
C679 C 0.89284 0.47722 0.54279 0.0
H680 H 0.93024 0.45848 0.69492 0.0
C681 C 0.90959 0.50068 0.51836 0.0
H682 H 0.88715 0.44506 0.63044 0.0
C683 C 0.93388 0.5086 0.5565 0.0
C684 C 0.94185 0.49315 0.61926 0.0
H685 H 0.90516 0.51204 0.46707 0.0
H686 H 0.94742 0.5259 0.53442 0.0
C687 C 0.92432 0.47064 0.64642 0.0
loop_
_geom_bond_atom_site_label_1
_geom_bond_atom_site_label_2
_geom_bond_distance
_geom_bond_site_symmetry_2
_ccdc_geom_bond_type
C0 C1 1.386 . S
C0 C2 1.397 . S
C0 H24 0.931 . S
C1 C0 1.386 . S
C1 C5 1.397 1_556 S
C2 C0 1.397 . S
C2 C3 1.384 1_556 S
C2 H25 0.930 . S
C3 C2 1.384 1_554 S
C3 C4 1.377 . S
C3 C6 1.481 . S
C4 C3 1.377 . S
C4 C5 1.389 . S
C4 H26 0.929 . S
C5 C1 1.397 1_554 S
C5 C4 1.389 . S
C5 H27 0.931 . S
C6 C3 1.481 . S
C6 C7 1.387 . S
C6 C11 1.390 . S
C7 C6 1.387 . S
C7 C8 1.401 . S
C7 H28 0.930 . S
C8 C7 1.401 . S
C8 C9 1.376 . S
C8 C17 1.511 . S
C9 C8 1.376 . S
C9 C10 1.392 . S
C9 H30 0.931 . S
C10 C9 1.392 . S
C10 C11 1.361 . S
C10 C12 1.500 . S
C11 C6 1.390 . S
C11 C10 1.361 . S
C11 H29 0.931 . S
C12 C10 1.500 . S
C12 C13 1.371 . S
C12 C14 1.365 . S
C13 C12 1.371 . S
C13 C23 1.386 . S
C13 H31 0.931 . S
C14 C12 1.365 . S
C14 C15 1.409 . S
C14 H32 0.929 . S
C15 C14 1.409 . S
C15 C16 1.380 . S
C15 H33 0.930 . S
C16 C15 1.380 . S
C16 C23 1.357 . S
C17 C8 1.511 . S
C17 C18 1.341 . S
C17 C19 1.371 . S
C18 C17 1.341 . S
C18 C22 1.394 . S
C18 H34 0.930 . S
C19 C17 1.371 . S
C19 C20 1.392 . S
C19 H35 0.931 . S
C20 C19 1.392 . S
C20 C21 1.331 . S
C20 H38 0.932 . S
C21 C20 1.331 . S
C21 C22 1.336 . S
C22 C18 1.394 . S
C22 C21 1.336 . S
C22 H37 0.929 . S
C23 C13 1.386 . S
C23 C16 1.357 . S
C23 H36 0.928 . S
H24 C0 0.931 . S
H25 C2 0.930 . S
H26 C4 0.929 . S
H27 C5 0.931 . S
H28 C7 0.930 . S
H29 C11 0.931 . S
H30 C9 0.931 . S
H31 C13 0.931 . S
H32 C14 0.929 . S
H33 C15 0.930 . S
H34 C18 0.930 . S
H35 C19 0.931 . S
H36 C23 0.928 . S
H37 C22 0.929 . S
H38 C20 0.932 . S
C39 C40 1.386 . S
C39 C41 1.397 . S
C39 H63 0.931 . S
C40 C39 1.386 . S
C40 C44 1.397 . S
C41 C39 1.397 . S
C41 C42 1.384 . S
C41 H64 0.930 . S
C42 C41 1.384 . S
C42 C43 1.377 . S
C42 C45 1.481 . S
C43 C42 1.377 . S
C43 C44 1.389 . S
C43 H65 0.929 . S
C44 C40 1.397 . S
C44 C43 1.389 . S
C44 H66 0.931 . S
C45 C42 1.481 . S
C45 C46 1.387 . S
C45 C50 1.390 1_556 S
C46 C45 1.387 . S
C46 C47 1.401 . S
C46 H67 0.930 . S
C47 C46 1.401 . S
C47 C48 1.376 1_556 S
C47 C56 1.511 . S
C48 C47 1.376 1_554 S
C48 C49 1.392 . S
C48 H69 0.931 . S
C49 C48 1.392 . S
C49 C50 1.361 . S
C49 C51 1.500 . S
C50 C45 1.390 1_554 S
C50 C49 1.361 . S
C50 H68 0.931 . S
C51 C49 1.500 . S
C51 C52 1.371 . S
C51 C53 1.365 . S
C52 C51 1.371 . S
C52 C62 1.386 . S
C52 H70 0.931 . S
C53 C51 1.365 . S
C53 C54 1.409 . S
C53 H71 0.929 . S
C54 C53 1.409 . S
C54 C55 1.380 . S
C54 H72 0.930 . S
C55 C54 1.380 . S
C55 C62 1.357 . S
C56 C47 1.511 . S
C56 C57 1.341 . S
C56 C58 1.371 1_556 S
C57 C56 1.341 . S
C57 C61 1.394 . S
C57 H73 0.930 . S
C58 C56 1.371 1_554 S
C58 C59 1.392 . S
C58 H74 0.931 . S
C59 C58 1.392 . S
C59 C60 1.331 1_554 S
C59 H77 0.932 . S
C60 C59 1.331 1_556 S
C60 C61 1.336 . S
C61 C57 1.394 . S
C61 C60 1.336 . S
C61 H76 0.929 . S
C62 C52 1.386 . S
C62 C55 1.357 . S
C62 H75 0.928 . S
H63 C39 0.931 . S
H64 C41 0.930 . S
H65 C43 0.929 . S
H66 C44 0.931 . S
H67 C46 0.930 . S
H68 C50 0.931 . S
H69 C48 0.931 . S
H70 C52 0.931 . S
H71 C53 0.929 . S
H72 C54 0.930 . S
H73 C57 0.930 . S
H74 C58 0.931 . S
H75 C62 0.928 . S
H76 C61 0.929 . S
H77 C59 0.932 . S
C78 C79 1.395 . S
C78 C80 1.397 . S
C78 H102 0.931 . S
C79 C78 1.395 . S
C79 C83 1.388 1_565 S
C80 C78 1.397 . S
C80 C81 1.389 . S
C80 H103 0.930 . S
C81 C80 1.389 . S
C81 C82 1.372 1_565 S
C81 C84 1.481 1_556 S
C82 C81 1.372 1_545 S
C82 C83 1.389 . S
C82 H104 0.929 1_556 S
C83 C79 1.388 1_545 S
C83 C82 1.389 . S
C83 H105 0.931 . S
C84 C81 1.481 1_554 S
C84 C85 1.390 . S
C84 C89 1.389 . S
C85 C84 1.390 . S
C85 C86 1.403 . S
C85 H106 0.930 1_554 S
C86 C85 1.403 . S
C86 C87 1.374 . S
C86 C95 1.515 . S
C87 C86 1.374 . S
C87 C88 1.393 . S
C87 H108 0.931 . S
C88 C87 1.393 . S
C88 C89 1.361 . S
C88 C90 1.497 1_565 S
C89 C84 1.389 . S
C89 C88 1.361 . S
C89 H107 0.930 . S
C90 C88 1.497 1_545 S
C90 C91 1.362 1_545 S
C90 C92 1.377 . S
C91 C90 1.362 1_565 S
C91 C101 1.386 . S
C91 H109 0.931 . S
C92 C90 1.377 . S
C92 C93 1.409 . S
C92 H110 0.929 . S
C93 C92 1.409 . S
C93 C94 1.380 . S
C93 H111 0.930 . S
C94 C93 1.380 . S
C94 C101 1.358 1_545 S
C95 C86 1.515 . S
C95 C96 1.341 1_554 S
C95 C97 1.371 1_565 S
C96 C95 1.341 1_556 S
C96 C100 1.394 . S
C96 H112 0.930 . S
C97 C95 1.371 1_545 S
C97 C98 1.392 . S
C97 H113 0.931 . S
C98 C97 1.392 . S
C98 C99 1.320 1_545 S
C98 H116 0.932 . S
C99 C98 1.320 1_565 S
C99 C100 1.346 1_554 S
C100 C96 1.394 . S
C100 C99 1.346 1_556 S
C100 H115 0.929 . S
C101 C91 1.386 . S
C101 C94 1.358 1_565 S
C101 H114 0.928 . S
H102 C78 0.931 . S
H103 C80 0.930 . S
H104 C82 0.929 1_554 S
H105 C83 0.931 . S
H106 C85 0.930 1_556 S
H107 C89 0.930 . S
H108 C87 0.931 . S
H109 C91 0.931 . S
H110 C92 0.929 . S
H111 C93 0.930 . S
H112 C96 0.930 . S
H113 C97 0.931 . S
H114 C101 0.928 . S
H115 C100 0.929 . S
H116 C98 0.932 . S
C117 C118 1.386 . S
C117 C119 1.397 . S
C117 H141 0.931 . S
C118 C117 1.386 . S
C118 C122 1.397 . S
C119 C117 1.397 . S
C119 C120 1.384 . S
C119 H142 0.930 . S
C120 C119 1.384 . S
C120 C121 1.377 . S
C120 C123 1.481 . S
C121 C120 1.377 . S
C121 C122 1.389 . S
C121 H143 0.929 . S
C122 C118 1.397 . S
C122 C121 1.389 . S
C122 H144 0.931 . S
C123 C120 1.481 . S
C123 C124 1.387 . S
C123 C128 1.390 . S
C124 C123 1.387 . S
C124 C125 1.401 . S
C124 H145 0.930 . S
C125 C124 1.401 . S
C125 C126 1.376 . S
C125 C134 1.511 . S
C126 C125 1.376 . S
C126 C127 1.392 . S
C126 H147 0.931 1_554 S
C127 C126 1.392 . S
C127 C128 1.361 . S
C127 C129 1.500 1_554 S
C128 C123 1.390 . S
C128 C127 1.361 . S
C128 H146 0.931 . S
C129 C127 1.500 1_556 S
C129 C130 1.371 . S
C129 C131 1.365 1_556 S
C130 C129 1.371 . S
C130 C140 1.386 . S
C130 H148 0.931 . S
C131 C129 1.365 1_554 S
C131 C132 1.409 1_554 S
C131 H149 0.929 . S
C132 C131 1.409 1_556 S
C132 C133 1.380 . S
C132 H150 0.930 . S
C133 C132 1.380 . S
C133 C140 1.357 . S
C134 C125 1.511 . S
C134 C135 1.341 . S
C134 C136 1.359 1_554 S
C135 C134 1.341 . S
C135 C139 1.394 . S
C135 H151 0.930 . S
C136 C134 1.359 1_556 S
C136 C137 1.395 . S
C136 H152 0.942 . S
C137 C136 1.395 . S
C137 C138 1.331 1_556 S
C137 H155 0.932 . S
C138 C137 1.331 1_554 S
C138 C139 1.336 . S
C139 C135 1.394 . S
C139 C138 1.336 . S
C139 H154 0.929 . S
C140 C130 1.386 . S
C140 C133 1.357 . S
C140 H153 0.928 . S
H141 C117 0.931 . S
H142 C119 0.930 . S
H143 C121 0.929 . S
H144 C122 0.931 . S
H145 C124 0.930 . S
H146 C128 0.931 . S
H147 C126 0.931 1_556 S
H148 C130 0.931 . S
H149 C131 0.929 . S
H150 C132 0.930 . S
H151 C135 0.930 . S
H152 C136 0.942 . S
H153 C140 0.928 . S
H154 C139 0.929 . S
H155 C137 0.932 . S
C156 C157 1.386 . S
C156 C158 1.397 . S
C156 H180 0.931 . S
C157 C156 1.386 . S
C157 C161 1.397 . S
C158 C156 1.397 . S
C158 C159 1.384 . S
C158 H181 0.930 . S
C159 C158 1.384 . S
C159 C160 1.377 . S
C159 C162 1.481 . S
C160 C159 1.377 . S
C160 C161 1.389 . S
C160 H182 0.929 . S
C161 C157 1.397 . S
C161 C160 1.389 . S
C161 H183 0.931 . S
C162 C159 1.481 . S
C162 C163 1.387 . S
C162 C167 1.390 . S
C163 C162 1.387 . S
C163 C164 1.401 . S
C163 H184 0.930 . S
C164 C163 1.401 . S
C164 C165 1.376 . S
C164 C173 1.511 . S
C165 C164 1.376 . S
C165 C166 1.392 . S
C165 H186 0.931 . S
C166 C165 1.392 . S
C166 C167 1.361 . S
C166 C168 1.500 . S
C167 C162 1.390 . S
C167 C166 1.361 . S
C167 H185 0.931 . S
C168 C166 1.500 . S
C168 C169 1.371 . S
C168 C170 1.365 . S
C169 C168 1.371 . S
C169 C179 1.386 1_554 S
C169 H187 0.931 . S
C170 C168 1.365 . S
C170 C171 1.409 . S
C170 H188 0.929 . S
C171 C170 1.409 . S
C171 C172 1.380 1_554 S
C171 H189 0.930 . S
C172 C171 1.380 1_556 S
C172 C179 1.357 . S
C173 C164 1.511 . S
C173 C174 1.341 . S
C173 C175 1.371 . S
C174 C173 1.341 . S
C174 C178 1.394 . S
C174 H190 0.930 . S
C175 C173 1.371 . S
C175 C176 1.392 . S
C175 H191 0.931 . S
C176 C175 1.392 . S
C176 C177 1.331 . S
C176 H194 0.932 . S
C177 C176 1.331 . S
C177 C178 1.336 . S
C178 C174 1.394 . S
C178 C177 1.336 . S
C178 H193 0.929 . S
C179 C169 1.386 1_556 S
C179 C172 1.357 . S
C179 H192 0.928 . S
H180 C156 0.931 . S
H181 C158 0.930 . S
H182 C160 0.929 . S
H183 C161 0.931 . S
H184 C163 0.930 . S
H185 C167 0.931 . S
H186 C165 0.931 . S
H187 C169 0.931 . S
H188 C170 0.929 . S
H189 C171 0.930 . S
H190 C174 0.930 . S
H191 C175 0.931 . S
H192 C179 0.928 . S
H193 C178 0.929 . S
H194 C176 0.932 . S
C195 C196 1.386 . S
C195 C197 1.397 . S
C195 H219 0.931 . S
C196 C195 1.386 . S
C196 C200 1.397 . S
C197 C195 1.397 . S
C197 C198 1.384 . S
C197 H220 0.930 . S
C198 C197 1.384 . S
C198 C199 1.377 . S
C198 C201 1.481 . S
C199 C198 1.377 . S
C199 C200 1.389 . S
C199 H221 0.929 . S
C200 C196 1.397 . S
C200 C199 1.389 . S
C200 H222 0.931 . S
C201 C198 1.481 . S
C201 C202 1.387 . S
C201 C206 1.390 . S
C202 C201 1.387 . S
C202 C203 1.401 . S
C202 H223 0.930 . S
C203 C202 1.401 . S
C203 C204 1.376 . S
C203 C212 1.511 . S
C204 C203 1.376 . S
C204 C205 1.392 . S
C204 H225 0.931 . S
C205 C204 1.392 . S
C205 C206 1.361 . S
C205 C207 1.500 . S
C206 C201 1.390 . S
C206 C205 1.361 . S
C206 H224 0.931 . S
C207 C205 1.500 . S
C207 C208 1.371 . S
C207 C209 1.365 . S
C208 C207 1.371 . S
C208 C218 1.386 . S
C208 H226 0.931 . S
C209 C207 1.365 . S
C209 C210 1.409 . S
C209 H227 0.929 . S
C210 C209 1.409 . S
C210 C211 1.380 . S
C210 H228 0.930 . S
C211 C210 1.380 . S
C211 C218 1.357 . S
C212 C203 1.511 . S
C212 C213 1.341 . S
C212 C214 1.371 . S
C213 C212 1.341 . S
C213 C217 1.394 . S
C213 H229 0.930 . S
C214 C212 1.371 . S
C214 C215 1.392 . S
C214 H230 0.931 . S
C215 C214 1.392 . S
C215 C216 1.331 . S
C215 H233 0.932 . S
C216 C215 1.331 . S
C216 C217 1.336 . S
C217 C213 1.394 . S
C217 C216 1.336 . S
C217 H232 0.929 . S
C218 C208 1.386 . S
C218 C211 1.357 . S
C218 H231 0.928 . S
H219 C195 0.931 . S
H220 C197 0.930 . S
H221 C199 0.929 . S
H222 C200 0.931 . S
H223 C202 0.930 . S
H224 C206 0.931 . S
H225 C204 0.931 . S
H226 C208 0.931 . S
H227 C209 0.929 . S
H228 C210 0.930 . S
H229 C213 0.930 . S
H230 C214 0.931 . S
H231 C218 0.928 . S
H232 C217 0.929 . S
H233 C215 0.932 . S
C234 C235 1.388 . S
C234 C236 1.397 . S
C234 H258 0.931 . S
C235 C234 1.388 . S
C235 C239 1.395 1_565 S
C236 C234 1.397 . S
C236 C237 1.383 . S
C236 H259 0.930 . S
C237 C236 1.383 . S
C237 C238 1.378 1_565 S
C237 C240 1.480 . S
C238 C237 1.378 1_545 S
C238 C239 1.389 . S
C238 H260 0.929 . S
C239 C235 1.395 1_545 S
C239 C238 1.389 . S
C239 H261 0.931 . S
C240 C237 1.480 . S
C240 C241 1.387 . S
C240 C245 1.392 . S
C241 C240 1.387 . S
C241 C242 1.401 . S
C241 H262 0.930 . S
C242 C241 1.401 . S
C242 C243 1.375 . S
C242 C251 1.511 . S
C243 C242 1.375 . S
C243 C244 1.394 1_565 S
C243 H264 0.934 . S
C244 C243 1.394 1_545 S
C244 C245 1.361 1_545 S
C244 C246 1.502 . S
C245 C240 1.392 . S
C245 C244 1.361 1_565 S
C245 H263 0.931 . S
C246 C244 1.502 . S
C246 C247 1.356 1_545 S
C246 C248 1.378 . S
C247 C246 1.356 1_565 S
C247 C257 1.386 . S
C247 H265 0.931 . S
C248 C246 1.378 . S
C248 C249 1.409 . S
C248 H266 0.929 . S
C249 C248 1.409 . S
C249 C250 1.385 . S
C249 H267 0.930 . S
C250 C249 1.385 . S
C250 C257 1.354 1_545 S
C251 C242 1.511 . S
C251 C252 1.341 . S
C251 C253 1.371 1_565 S
C252 C251 1.341 . S
C252 C256 1.394 . S
C252 H268 0.930 . S
C253 C251 1.371 1_545 S
C253 C254 1.392 . S
C253 H269 0.931 . S
C254 C253 1.392 . S
C254 C255 1.327 1_545 S
C254 H272 0.932 . S
C255 C254 1.327 1_565 S
C255 C256 1.342 . S
C256 C252 1.394 . S
C256 C255 1.342 . S
C256 H271 0.929 . S
C257 C247 1.386 . S
C257 C250 1.354 1_565 S
C257 H270 0.928 . S
H258 C234 0.931 . S
H259 C236 0.930 . S
H260 C238 0.929 . S
H261 C239 0.931 . S
H262 C241 0.930 . S
H263 C245 0.931 . S
H264 C243 0.934 . S
H265 C247 0.931 . S
H266 C248 0.929 . S
H267 C249 0.930 . S
H268 C252 0.930 . S
H269 C253 0.931 . S
H270 C257 0.928 . S
H271 C256 0.929 . S
H272 C254 0.932 . S
C273 C274 1.386 . S
C273 C275 1.397 . S
C273 H297 0.931 . S
C274 C273 1.386 . S
C274 C278 1.397 . S
C275 C273 1.397 . S
C275 C276 1.384 . S
C275 H298 0.930 . S
C276 C275 1.384 . S
C276 C277 1.377 . S
C276 C279 1.481 . S
C277 C276 1.377 . S
C277 C278 1.389 . S
C277 H299 0.929 . S
C278 C274 1.397 . S
C278 C277 1.389 . S
C278 H300 0.931 . S
C279 C276 1.481 . S
C279 C280 1.387 . S
C279 C284 1.390 . S
C280 C279 1.387 . S
C280 C281 1.401 . S
C280 H301 0.930 . S
C281 C280 1.401 . S
C281 C282 1.376 . S
C281 C290 1.511 . S
C282 C281 1.376 . S
C282 C283 1.392 . S
C282 H303 0.931 . S
C283 C282 1.392 . S
C283 C284 1.361 . S
C283 C285 1.500 . S
C284 C279 1.390 . S
C284 C283 1.361 . S
C284 H302 0.931 . S
C285 C283 1.500 . S
C285 C286 1.371 . S
C285 C287 1.365 . S
C286 C285 1.371 . S
C286 C296 1.386 . S
C286 H304 0.931 . S
C287 C285 1.365 . S
C287 C288 1.409 . S
C287 H305 0.929 . S
C288 C287 1.409 . S
C288 C289 1.380 . S
C288 H306 0.930 . S
C289 C288 1.380 . S
C289 C296 1.357 . S
C290 C281 1.511 . S
C290 C291 1.341 . S
C290 C292 1.371 . S
C291 C290 1.341 . S
C291 C295 1.394 . S
C291 H307 0.930 . S
C292 C290 1.371 . S
C292 C293 1.392 . S
C292 H308 0.931 . S
C293 C292 1.392 . S
C293 C294 1.331 . S
C293 H311 0.932 . S
C294 C293 1.331 . S
C294 C295 1.336 . S
C295 C291 1.394 . S
C295 C294 1.336 . S
C295 H310 0.929 . S
C296 C286 1.386 . S
C296 C289 1.357 . S
C296 H309 0.928 . S
H297 C273 0.931 . S
H298 C275 0.930 . S
H299 C277 0.929 . S
H300 C278 0.931 . S
H301 C280 0.930 . S
H302 C284 0.931 . S
H303 C282 0.931 . S
H304 C286 0.931 . S
H305 C287 0.929 . S
H306 C288 0.930 . S
H307 C291 0.930 . S
H308 C292 0.931 . S
H309 C296 0.928 . S
H310 C295 0.929 . S
H311 C293 0.932 . S
C312 O328 1.251 1_455 S
C312 O330 1.254 . S
N313 C314 1.333 . S
N313 C318 1.307 . S
N313 Zn319 2.020 1_655 S
C314 N313 1.333 . S
C314 C315 1.379 . S
C314 H332 0.952 . S
C315 C314 1.379 . S
C315 C316 1.390 . S
C315 H342 0.949 . S
C316 C315 1.390 . S
C316 C317 1.357 . S
C317 C316 1.357 . S
C317 C318 1.370 . S
C317 H343 0.950 . S
C318 N313 1.307 . S
C318 C317 1.370 . S
C318 H336 0.948 1_565 S
Zn319 N313 2.020 1_455 S
Zn319 O328 2.039 1_455 S
Zn319 O334 2.034 . S
Zn319 O338 2.025 1_565 S
Zn319 O340 2.025 1_465 S
C320 O339 1.246 . S
C320 O340 1.249 . S
N321 C322 1.307 . S
N321 C323 1.333 . S
N321 Zn327 2.020 . S
C322 N321 1.307 . S
C322 C326 1.370 1_556 S
C322 H333 0.948 1_545 S
C323 N321 1.333 . S
C323 C324 1.379 . S
C323 H331 0.952 . S
C324 C323 1.379 . S
C324 C325 1.390 1_556 S
C324 H344 0.949 . S
C325 C324 1.390 1_554 S
C325 C326 1.357 . S
C326 C322 1.370 1_554 S
C326 C325 1.357 . S
C326 H345 0.950 . S
Zn327 N321 2.020 . S
Zn327 O330 2.025 1_545 S
Zn327 O335 2.025 . S
Zn327 O337 2.039 . S
Zn327 O339 2.034 1_455 S
O328 C312 1.251 1_655 S
O328 Zn319 2.039 1_655 S
C329 O334 1.246 . S
C329 O335 1.249 1_565 S
O330 C312 1.254 . S
O330 Zn327 2.025 1_565 S
H331 C323 0.952 . S
H332 C314 0.952 . S
H333 C322 0.948 1_565 S
O334 Zn319 2.034 . S
O334 C329 1.246 . S
O335 Zn327 2.025 . S
O335 C329 1.249 1_545 S
H336 C318 0.948 1_545 S
O337 Zn327 2.039 . S
O337 C341 1.251 . S
O338 Zn319 2.025 1_545 S
O338 C341 1.254 . S
O339 C320 1.246 . S
O339 Zn327 2.034 1_655 S
O340 Zn319 2.025 1_645 S
O340 C320 1.249 . S
C341 O337 1.251 . S
C341 O338 1.254 . S
H342 C315 0.949 . S
H343 C317 0.950 . S
H344 C324 0.949 . S
H345 C326 0.950 . S
C346 O362 1.251 1_565 S
C346 O364 1.254 . S
N347 C348 1.333 . S
N347 C352 1.307 . S
N347 Zn353 2.020 . S
C348 N347 1.333 . S
C348 C349 1.379 . S
C348 H366 0.952 . S
C349 C348 1.379 . S
C349 C350 1.390 . S
C349 H376 0.949 . S
C350 C349 1.390 . S
C350 C351 1.357 . S
C351 C350 1.357 . S
C351 C352 1.370 . S
C351 H377 0.950 . S
C352 N347 1.307 . S
C352 C351 1.370 . S
C352 H370 0.948 . S
Zn353 N347 2.020 . S
Zn353 O362 2.039 . S
Zn353 O368 2.034 . S
Zn353 O372 2.025 . S
Zn353 O374 2.024 . S
C354 O373 1.246 1_545 S
C354 O374 1.249 . S
N355 C356 1.307 . S
N355 C357 1.333 . S
N355 Zn361 2.020 . S
C356 N355 1.307 . S
C356 C360 1.370 . S
C356 H367 0.948 . S
C357 N355 1.333 . S
C357 C358 1.379 . S
C357 H365 0.952 . S
C358 C357 1.379 . S
C358 C359 1.390 . S
C358 H378 0.949 . S
C359 C358 1.390 . S
C359 C360 1.357 . S
C360 C356 1.370 . S
C360 C359 1.357 . S
C360 H379 0.950 . S
Zn361 N355 2.020 . S
Zn361 O364 2.025 . S
Zn361 O369 2.024 . S
Zn361 O371 2.039 . S
Zn361 O373 2.034 . S
O362 C346 1.251 1_545 S
O362 Zn353 2.039 . S
C363 O368 1.246 1_565 S
C363 O369 1.249 . S
O364 C346 1.254 . S
O364 Zn361 2.025 . S
H365 C357 0.952 . S
H366 C348 0.952 . S
H367 C356 0.948 . S
O368 Zn353 2.034 . S
O368 C363 1.246 1_545 S
O369 Zn361 2.024 . S
O369 C363 1.249 . S
H370 C352 0.948 . S
O371 Zn361 2.039 . S
O371 C375 1.251 1_565 S
O372 Zn353 2.025 . S
O372 C375 1.254 . S
O373 C354 1.246 1_565 S
O373 Zn361 2.034 . S
O374 Zn353 2.024 . S
O374 C354 1.249 . S
C375 O371 1.251 1_545 S
C375 O372 1.254 . S
H376 C349 0.949 . S
H377 C351 0.950 . S
H378 C358 0.949 . S
H379 C360 0.950 . S
C380 O396 1.251 . S
C380 O398 1.254 . S
N381 C382 1.333 . S
N381 C386 1.307 . S
N381 Zn387 2.020 . S
C382 N381 1.333 . S
C382 C383 1.379 . S
C382 H400 0.952 . S
C383 C382 1.379 . S
C383 C384 1.390 . S
C383 H410 0.949 . S
C384 C383 1.390 . S
C384 C385 1.357 . S
C385 C384 1.357 . S
C385 C386 1.370 . S
C385 H411 0.950 . S
C386 N381 1.307 . S
C386 C385 1.370 . S
C386 H404 0.948 . S
Zn387 N381 2.020 . S
Zn387 O396 2.039 . S
Zn387 O402 2.034 . S
Zn387 O406 2.025 . S
Zn387 O408 2.024 . S
C388 O407 1.246 . S
C388 O408 1.249 . S
N389 C390 1.307 . S
N389 C391 1.333 . S
N389 Zn395 2.020 . S
C390 N389 1.307 . S
C390 C394 1.370 . S
C390 H401 0.948 . S
C391 N389 1.333 . S
C391 C392 1.379 . S
C391 H399 0.952 . S
C392 C391 1.379 . S
C392 C393 1.390 . S
C392 H412 0.949 . S
C393 C392 1.390 . S
C393 C394 1.357 . S
C394 C390 1.370 . S
C394 C393 1.357 . S
C394 H413 0.950 . S
Zn395 N389 2.020 . S
Zn395 O398 2.025 . S
Zn395 O403 2.024 . S
Zn395 O405 2.039 . S
Zn395 O407 2.034 . S
O396 C380 1.251 . S
O396 Zn387 2.039 . S
C397 O402 1.246 . S
C397 O403 1.249 . S
O398 C380 1.254 . S
O398 Zn395 2.025 . S
H399 C391 0.952 . S
H400 C382 0.952 . S
H401 C390 0.948 . S
O402 Zn387 2.034 . S
O402 C397 1.246 . S
O403 Zn395 2.024 . S
O403 C397 1.249 . S
H404 C386 0.948 . S
O405 Zn395 2.039 . S
O405 C409 1.251 . S
O406 Zn387 2.025 . S
O406 C409 1.254 . S
O407 C388 1.246 . S
O407 Zn395 2.034 . S
O408 Zn387 2.024 . S
O408 C388 1.249 . S
C409 O405 1.251 . S
C409 O406 1.254 . S
H410 C383 0.949 . S
H411 C385 0.950 . S
H412 C392 0.949 . S
H413 C394 0.950 . S
C414 O430 1.251 . S
C414 O432 1.254 . S
N415 C416 1.333 . S
N415 C420 1.307 . S
N415 Zn421 2.020 . S
C416 N415 1.333 . S
C416 C417 1.379 . S
C416 H434 0.952 . S
C417 C416 1.379 . S
C417 C418 1.390 . S
C417 H444 0.949 . S
C418 C417 1.390 . S
C418 C419 1.357 . S
C419 C418 1.357 . S
C419 C420 1.370 . S
C419 H445 0.950 . S
C420 N415 1.307 . S
C420 C419 1.370 . S
C420 H438 0.948 . S
Zn421 N415 2.020 . S
Zn421 O430 2.039 . S
Zn421 O436 2.034 1_455 S
Zn421 O440 2.025 1_455 S
Zn421 O442 2.024 . S
C422 O441 1.246 . S
C422 O442 1.249 . S
N423 C424 1.307 . S
N423 C425 1.333 . S
N423 Zn429 2.020 1_655 S
C424 N423 1.307 . S
C424 C428 1.370 . S
C424 H435 0.948 1_655 S
C425 N423 1.333 . S
C425 C426 1.379 . S
C425 H433 0.952 . S
C426 C425 1.379 . S
C426 C427 1.390 . S
C426 H446 0.949 . S
C427 C426 1.390 . S
C427 C428 1.357 . S
C428 C424 1.370 . S
C428 C427 1.357 . S
C428 H447 0.950 . S
Zn429 N423 2.020 1_455 S
Zn429 O432 2.025 . S
Zn429 O437 2.024 1_455 S
Zn429 O439 2.039 1_455 S
Zn429 O441 2.034 . S
O430 C414 1.251 . S
O430 Zn421 2.039 . S
C431 O436 1.246 . S
C431 O437 1.249 . S
O432 C414 1.254 . S
O432 Zn429 2.025 . S
H433 C425 0.952 . S
H434 C416 0.952 . S
H435 C424 0.948 1_455 S
O436 Zn421 2.034 1_655 S
O436 C431 1.246 . S
O437 Zn429 2.024 1_655 S
O437 C431 1.249 . S
H438 C420 0.948 . S
O439 Zn429 2.039 1_655 S
O439 C443 1.251 . S
O440 Zn421 2.025 1_655 S
O440 C443 1.254 . S
O441 C422 1.246 . S
O441 Zn429 2.034 . S
O442 Zn421 2.024 . S
O442 C422 1.249 . S
C443 O439 1.251 . S
C443 O440 1.254 . S
H444 C417 0.949 . S
H445 C419 0.950 . S
H446 C426 0.949 . S
H447 C428 0.950 . S
C448 C449 1.387 . S
C448 H452 0.950 . S
C448 C457 1.390 . S
C449 C448 1.387 . S
C449 C451 1.387 1_565 S
H450 C457 0.950 . S
C451 C449 1.387 1_545 S
C451 C453 1.390 . S
C451 H455 0.950 . S
H452 C448 0.950 . S
C453 C451 1.390 . S
C453 C454 1.387 1_545 S
C453 H456 0.950 . S
C454 C453 1.387 1_565 S
C454 C457 1.387 . S
H455 C451 0.950 . S
H456 C453 0.950 . S
C457 C448 1.390 . S
C457 H450 0.950 . S
C457 C454 1.387 . S
C458 C459 1.387 . S
C458 H462 0.950 . S
C458 C467 1.390 . S
C459 C458 1.387 . S
C459 C461 1.387 . S
H460 C467 0.950 . S
C461 C459 1.387 . S
C461 C463 1.390 . S
C461 H465 0.950 . S
H462 C458 0.950 . S
C463 C461 1.390 . S
C463 C464 1.387 . S
C463 H466 0.950 . S
C464 C463 1.387 . S
C464 C467 1.387 . S
H465 C461 0.950 . S
H466 C463 0.950 . S
C467 C458 1.390 . S
C467 H460 0.950 . S
C467 C464 1.387 . S
C468 C469 1.387 . S
C468 H472 0.950 . S
C468 C477 1.390 . S
C469 C468 1.387 . S
C469 C471 1.387 . S
H470 C477 0.950 . S
C471 C469 1.387 . S
C471 C473 1.390 . S
C471 H475 0.950 . S
H472 C468 0.950 . S
C473 C471 1.390 . S
C473 C474 1.387 . S
C473 H476 0.950 . S
C474 C473 1.387 . S
C474 C477 1.387 . S
H475 C471 0.950 . S
H476 C473 0.950 . S
C477 C468 1.390 . S
C477 H470 0.950 . S
C477 C474 1.387 . S
C478 C479 1.387 . S
C478 H482 0.950 . S
C478 C487 1.390 . S
C479 C478 1.387 . S
C479 C481 1.387 . S
H480 C487 0.950 . S
C481 C479 1.387 . S
C481 C483 1.390 . S
C481 H485 0.950 . S
H482 C478 0.950 . S
C483 C481 1.390 . S
C483 C484 1.387 . S
C483 H486 0.950 . S
C484 C483 1.387 . S
C484 C487 1.387 . S
H485 C481 0.950 . S
H486 C483 0.950 . S
C487 C478 1.390 . S
C487 H480 0.950 . S
C487 C484 1.387 . S
C488 C489 1.387 1_565 S
C488 H492 0.950 . S
C488 C497 1.390 . S
C489 C488 1.387 1_545 S
C489 C491 1.387 . S
H490 C497 0.950 . S
C491 C489 1.387 . S
C491 C493 1.390 . S
C491 H495 0.950 . S
H492 C488 0.950 . S
C493 C491 1.390 . S
C493 C494 1.387 . S
C493 H496 0.950 . S
C494 C493 1.387 . S
C494 C497 1.387 1_545 S
H495 C491 0.950 . S
H496 C493 0.950 . S
C497 C488 1.390 . S
C497 H490 0.950 . S
C497 C494 1.387 1_565 S
C498 C499 1.387 . S
C498 H502 0.950 1_556 S
C498 C507 1.390 . S
C499 C498 1.387 . S
C499 C501 1.387 . S
H500 C507 0.950 . S
C501 C499 1.387 . S
C501 C503 1.390 . S
C501 H505 0.950 . S
H502 C498 0.950 1_554 S
C503 C501 1.390 . S
C503 C504 1.387 . S
C503 H506 0.950 . S
C504 C503 1.387 . S
C504 C507 1.387 . S
H505 C501 0.950 . S
H506 C503 0.950 . S
C507 C498 1.390 . S
C507 H500 0.950 . S
C507 C504 1.387 . S
C508 C509 1.387 . S
C508 H512 0.950 . S
C508 C517 1.390 1_554 S
C509 C508 1.387 . S
C509 C511 1.387 1_554 S
H510 C517 0.950 . S
C511 C509 1.387 1_556 S
C511 C513 1.390 . S
C511 H515 0.950 1_556 S
H512 C508 0.950 . S
C513 C511 1.390 . S
C513 C514 1.387 . S
C513 H516 0.950 . S
C514 C513 1.387 . S
C514 C517 1.387 . S
H515 C511 0.950 1_554 S
H516 C513 0.950 . S
C517 C508 1.390 1_556 S
C517 H510 0.950 . S
C517 C514 1.387 . S
C518 C519 1.387 . S
C518 H522 0.950 . S
C518 C527 1.390 . S
C519 C518 1.387 . S
C519 C521 1.387 . S
H520 C527 0.950 . S
C521 C519 1.387 . S
C521 C523 1.390 . S
C521 H525 0.950 . S
H522 C518 0.950 . S
C523 C521 1.390 . S
C523 C524 1.387 . S
C523 H526 0.950 . S
C524 C523 1.387 . S
C524 C527 1.387 . S
H525 C521 0.950 . S
H526 C523 0.950 . S
C527 C518 1.390 . S
C527 H520 0.950 . S
C527 C524 1.387 . S
C528 C529 1.387 . S
C528 H532 0.950 . S
C528 C537 1.390 . S
C529 C528 1.387 . S
C529 C531 1.387 . S
H530 C537 0.950 . S
C531 C529 1.387 . S
C531 C533 1.390 . S
C531 H535 0.950 . S
H532 C528 0.950 . S
C533 C531 1.390 . S
C533 C534 1.387 . S
C533 H536 0.950 . S
C534 C533 1.387 . S
C534 C537 1.387 . S
H535 C531 0.950 . S
H536 C533 0.950 . S
C537 C528 1.390 . S
C537 H530 0.950 . S
C537 C534 1.387 . S
C538 C539 1.398 . S
C538 H542 0.950 . S
C538 C547 1.390 . S
C539 C538 1.398 . S
C539 C541 1.380 1_565 S
H540 C547 0.950 . S
C541 C539 1.380 1_545 S
C541 C543 1.390 . S
C541 H545 0.950 . S
H542 C538 0.950 . S
C543 C541 1.390 . S
C543 C544 1.387 1_545 S
C543 H546 0.950 . S
C544 C543 1.387 1_565 S
C544 C547 1.387 . S
H545 C541 0.950 . S
H546 C543 0.950 . S
C547 C538 1.390 . S
C547 H540 0.950 . S
C547 C544 1.387 . S
C548 C549 1.387 . S
C548 H552 0.950 . S
C548 C557 1.390 . S
C549 C548 1.387 . S
C549 C551 1.387 . S
H550 C557 0.950 . S
C551 C549 1.387 . S
C551 C553 1.390 . S
C551 H555 0.950 . S
H552 C548 0.950 . S
C553 C551 1.390 . S
C553 C554 1.387 . S
C553 H556 0.950 . S
C554 C553 1.387 . S
C554 C557 1.387 . S
H555 C551 0.950 . S
H556 C553 0.950 . S
C557 C548 1.390 . S
C557 H550 0.950 . S
C557 C554 1.387 . S
C558 C559 1.387 . S
C558 H562 0.950 . S
C558 C567 1.390 . S
C559 C558 1.387 . S
C559 C561 1.387 . S
H560 C567 0.950 . S
C561 C559 1.387 . S
C561 C563 1.390 . S
C561 H565 0.950 . S
H562 C558 0.950 . S
C563 C561 1.390 . S
C563 C564 1.387 . S
C563 H566 0.950 . S
C564 C563 1.387 . S
C564 C567 1.387 . S
H565 C561 0.950 . S
H566 C563 0.950 . S
C567 C558 1.390 . S
C567 H560 0.950 . S
C567 C564 1.387 . S
C568 C569 1.387 . S
C568 H572 0.950 . S
C568 C577 1.390 . S
C569 C568 1.387 . S
C569 C571 1.387 . S
H570 C577 0.950 . S
C571 C569 1.387 . S
C571 C573 1.390 . S
C571 H575 0.950 . S
H572 C568 0.950 . S
C573 C571 1.390 . S
C573 C574 1.387 . S
C573 H576 0.950 . S
C574 C573 1.387 . S
C574 C577 1.387 . S
H575 C571 0.950 . S
H576 C573 0.950 . S
C577 C568 1.390 . S
C577 H570 0.950 . S
C577 C574 1.387 . S
C578 C579 1.400 . S
C578 H582 0.950 . S
C578 C587 1.390 . S
C579 C578 1.400 . S
C579 C581 1.379 1_545 S
H580 C587 0.950 . S
C581 C579 1.379 1_565 S
C581 C583 1.390 . S
C581 H585 0.950 . S
H582 C578 0.950 . S
C583 C581 1.390 . S
C583 C584 1.387 1_565 S
C583 H586 0.950 . S
C584 C583 1.387 1_545 S
C584 C587 1.387 . S
H585 C581 0.950 . S
H586 C583 0.950 . S
C587 C578 1.390 . S
C587 H580 0.950 . S
C587 C584 1.387 . S
C588 C589 1.387 . S
C588 H592 0.950 . S
C588 C597 1.390 . S
C589 C588 1.387 . S
C589 C591 1.387 . S
H590 C597 0.950 . S
C591 C589 1.387 . S
C591 C593 1.390 . S
C591 H595 0.950 . S
H592 C588 0.950 . S
C593 C591 1.390 . S
C593 C594 1.387 . S
C593 H596 0.950 . S
C594 C593 1.387 . S
C594 C597 1.387 . S
H595 C591 0.950 . S
H596 C593 0.950 . S
C597 C588 1.390 . S
C597 H590 0.950 . S
C597 C594 1.387 . S
C598 C599 1.387 . S
C598 H602 0.950 . S
C598 C607 1.390 . S
C599 C598 1.387 . S
C599 C601 1.387 . S
H600 C607 0.950 . S
C601 C599 1.387 . S
C601 C603 1.390 . S
C601 H605 0.950 . S
H602 C598 0.950 . S
C603 C601 1.390 . S
C603 C604 1.387 . S
C603 H606 0.950 . S
C604 C603 1.387 . S
C604 C607 1.387 . S
H605 C601 0.950 . S
H606 C603 0.950 . S
C607 C598 1.390 . S
C607 H600 0.950 . S
C607 C604 1.387 . S
C608 C609 1.387 . S
C608 H612 0.950 1_554 S
C608 C617 1.392 . S
C609 C608 1.387 . S
C609 C611 1.387 . S
H610 C617 0.943 1_556 S
C611 C609 1.387 . S
C611 C613 1.390 . S
C611 H615 0.950 . S
H612 C608 0.950 1_556 S
C613 C611 1.390 . S
C613 C614 1.387 . S
C613 H616 0.950 . S
C614 C613 1.387 . S
C614 C617 1.392 . S
H615 C611 0.950 . S
H616 C613 0.950 . S
C617 C608 1.392 . S
C617 H610 0.943 1_554 S
C617 C614 1.392 . S
C618 C619 1.387 . S
C618 H622 0.950 . S
C618 C627 1.390 . S
C619 C618 1.387 . S
C619 C621 1.387 1_545 S
H620 C627 0.950 . S
C621 C619 1.387 1_565 S
C621 C623 1.390 . S
C621 H625 0.950 . S
H622 C618 0.950 . S
C623 C621 1.390 . S
C623 C624 1.387 1_565 S
C623 H626 0.950 . S
C624 C623 1.387 1_545 S
C624 C627 1.387 . S
H625 C621 0.950 . S
H626 C623 0.950 . S
C627 C618 1.390 . S
C627 H620 0.950 . S
C627 C624 1.387 . S
C628 C629 1.387 . S
C628 H632 0.950 . S
C628 C637 1.390 . S
C629 C628 1.387 . S
C629 C631 1.387 1_556 S
H630 C637 0.950 . S
C631 C629 1.387 1_554 S
C631 C633 1.390 1_554 S
C631 H635 0.950 . S
H632 C628 0.950 . S
C633 C631 1.390 1_556 S
C633 C634 1.387 . S
C633 H636 0.950 1_556 S
C634 C633 1.387 . S
C634 C637 1.387 . S
H635 C631 0.950 . S
H636 C633 0.950 1_554 S
C637 C628 1.390 . S
C637 H630 0.950 . S
C637 C634 1.387 . S
C638 C639 1.387 . S
C638 H642 0.950 . S
C638 C647 1.390 . S
C639 C638 1.387 . S
C639 C641 1.387 . S
H640 C647 0.950 . S
C641 C639 1.387 . S
C641 C643 1.390 . S
C641 H645 0.950 . S
H642 C638 0.950 . S
C643 C641 1.390 . S
C643 C644 1.387 . S
C643 H646 0.950 . S
C644 C643 1.387 . S
C644 C647 1.387 . S
H645 C641 0.950 . S
H646 C643 0.950 . S
C647 C638 1.390 . S
C647 H640 0.950 . S
C647 C644 1.387 . S
C648 C649 1.387 . S
C648 H652 0.950 . S
C648 C657 1.390 . S
C649 C648 1.387 . S
C649 C651 1.387 . S
H650 C657 0.950 . S
C651 C649 1.387 . S
C651 C653 1.390 . S
C651 H655 0.950 . S
H652 C648 0.950 . S
C653 C651 1.390 . S
C653 C654 1.387 . S
C653 H656 0.950 . S
C654 C653 1.387 . S
C654 C657 1.387 . S
H655 C651 0.950 . S
H656 C653 0.950 . S
C657 C648 1.390 . S
C657 H650 0.950 . S
C657 C654 1.387 . S
C658 C659 1.420 . S
C658 H662 0.950 . S
C658 C667 1.390 . S
C659 C658 1.420 . S
C659 C661 1.354 1_565 S
H660 C667 0.950 . S
C661 C659 1.354 1_545 S
C661 C663 1.390 . S
C661 H665 0.950 . S
H662 C658 0.950 . S
C663 C661 1.390 . S
C663 C664 1.387 1_545 S
C663 H666 0.950 . S
C664 C663 1.387 1_565 S
C664 C667 1.387 . S
H665 C661 0.950 . S
H666 C663 0.950 . S
C667 C658 1.390 . S
C667 H660 0.950 . S
C667 C664 1.387 . S
C668 C669 1.387 . S
C668 H672 0.950 . S
C668 C677 1.390 . S
C669 C668 1.387 . S
C669 C671 1.387 . S
H670 C677 0.950 . S
C671 C669 1.387 . S
C671 C673 1.390 . S
C671 H675 0.950 . S
H672 C668 0.950 . S
C673 C671 1.390 . S
C673 C674 1.387 . S
C673 H676 0.950 . S
C674 C673 1.387 . S
C674 C677 1.387 . S
H675 C671 0.950 . S
H676 C673 0.950 . S
C677 C668 1.390 . S
C677 H670 0.950 . S
C677 C674 1.387 . S
C678 C679 1.387 . S
C678 H682 0.950 . S
C678 C687 1.390 . S
C679 C678 1.387 . S
C679 C681 1.387 . S
H680 C687 0.950 . S
C681 C679 1.387 . S
C681 C683 1.390 . S
C681 H685 0.950 . S
H682 C678 0.950 . S
C683 C681 1.390 . S
C683 C684 1.387 . S
C683 H686 0.950 . S
C684 C683 1.387 . S
C684 C687 1.387 . S
H685 C681 0.950 . S
H686 C683 0.950 . S
C687 C678 1.390 . S
C687 H680 0.950 . S
C687 C684 1.387 . S
C449 C255 1.953 . S
C454 C329 1.979 . S
C464 C350 1.825 . S
C459 C294 1.771 . S
C474 C384 1.776 . S
C469 C177 1.746 . S
C484 C418 1.775 . S
C479 C216 1.713 . S
C494 C320 1.980 . S
C489 C99 1.958 1_546 S
C499 C138 1.757 1_556 S
C504 C359 1.828 . S
C509 C21 1.739 . S
C514 C393 1.779 . S
C519 C60 1.732 . S
C524 C427 1.775 . S
C534 C341 1.304 . S
C529 C196 1.118 . S
C544 C346 0.848 . S
C539 C235 0.843 . S
C554 C380 1.018 . S
C549 C289 0.987 . S
C559 C157 0.597 . S
C564 C414 0.549 . S
C569 C40 1.140 . S
C574 C312 1.308 1_655 S
C584 C375 0.847 . S
C579 C79 0.840 1_545 S
C594 C409 1.017 . S
C589 C133 0.990 . S
C599 C1 0.614 . S
C604 C443 0.556 . S
C609 C211 1.762 . S
C614 C325 1.903 . S
C619 C250 2.090 1_556 S
C624 C354 2.245 . S
C634 C388 1.989 . S
C629 C274 1.840 1_556 S
C644 C422 2.081 . S
C639 C172 1.894 . S
C649 C55 1.758 . S
C654 C316 1.911 . S
C664 C363 2.244 . S
C659 C94 2.090 1_565 S
C674 C397 1.989 . S
C669 C118 1.835 . S
C679 C16 1.902 . S
C684 C431 2.082 . S
