# Generated by pormake.
# Topology nom, (4,4)-cn, num edge types: 1
# Building blocks:
#     Node 0, Type 0, BuildingBlock: MUDLON_clean_linker_0, # of connection points: 4
#     Node 1, Type 0, BuildingBlock: MUDLON_clean_linker_0, # of connection points: 4
#     Node 2, Type 0, BuildingBlock: MUDLON_clean_linker_0, # of connection points: 4
#     Node 3, Type 0, BuildingBlock: MUDLON_clean_linker_0, # of connection points: 4
#     Node 4, Type 0, BuildingBlock: MUDLON_clean_linker_0, # of connection points: 4
#     Node 5, Type 0, BuildingBlock: MUDLON_clean_linker_0, # of connection points: 4
#     Node 6, Type 1, BuildingBlock: TATPOV_clean_sbu_0, # of connection points: 4
#     Node 7, Type 1, BuildingBlock: TATPOV_clean_sbu_0, # of connection points: 4
#     Node 8, Type 1, BuildingBlock: TATPOV_clean_sbu_0, # of connection points: 4
#     Node 9, Type 1, BuildingBlock: TATPOV_clean_sbu_0, # of connection points: 4
#     Node 10, Type 1, BuildingBlock: TATPOV_clean_sbu_0, # of connection points: 4
#     Node 11, Type 1, BuildingBlock: TATPOV_clean_sbu_0, # of connection points: 4
#     Edge 12, Type (0, 1), BuildingBlock: ZUJKAS_clean_linker_0, # of connection points: 2
#     Edge 13, Type (0, 1), BuildingBlock: ZUJKAS_clean_linker_0, # of connection points: 2
#     Edge 14, Type (0, 1), BuildingBlock: ZUJKAS_clean_linker_0, # of connection points: 2
#     Edge 15, Type (0, 1), BuildingBlock: ZUJKAS_clean_linker_0, # of connection points: 2
#     Edge 16, Type (0, 1), BuildingBlock: ZUJKAS_clean_linker_0, # of connection points: 2
#     Edge 17, Type (0, 1), BuildingBlock: ZUJKAS_clean_linker_0, # of connection points: 2
#     Edge 18, Type (0, 1), BuildingBlock: ZUJKAS_clean_linker_0, # of connection points: 2
#     Edge 19, Type (0, 1), BuildingBlock: ZUJKAS_clean_linker_0, # of connection points: 2
#     Edge 20, Type (0, 1), BuildingBlock: ZUJKAS_clean_linker_0, # of connection points: 2
#     Edge 21, Type (0, 1), BuildingBlock: ZUJKAS_clean_linker_0, # of connection points: 2
#     Edge 22, Type (0, 1), BuildingBlock: ZUJKAS_clean_linker_0, # of connection points: 2
#     Edge 23, Type (0, 1), BuildingBlock: ZUJKAS_clean_linker_0, # of connection points: 2
#     Edge 24, Type (0, 1), BuildingBlock: ZUJKAS_clean_linker_0, # of connection points: 2
#     Edge 25, Type (0, 1), BuildingBlock: ZUJKAS_clean_linker_0, # of connection points: 2
#     Edge 26, Type (0, 1), BuildingBlock: ZUJKAS_clean_linker_0, # of connection points: 2
#     Edge 27, Type (0, 1), BuildingBlock: ZUJKAS_clean_linker_0, # of connection points: 2
#     Edge 28, Type (0, 1), BuildingBlock: ZUJKAS_clean_linker_0, # of connection points: 2
#     Edge 29, Type (0, 1), BuildingBlock: ZUJKAS_clean_linker_0, # of connection points: 2
#     Edge 30, Type (0, 1), BuildingBlock: ZUJKAS_clean_linker_0, # of connection points: 2
#     Edge 31, Type (0, 1), BuildingBlock: ZUJKAS_clean_linker_0, # of connection points: 2
#     Edge 32, Type (0, 1), BuildingBlock: ZUJKAS_clean_linker_0, # of connection points: 2
#     Edge 33, Type (0, 1), BuildingBlock: ZUJKAS_clean_linker_0, # of connection points: 2
#     Edge 34, Type (0, 1), BuildingBlock: ZUJKAS_clean_linker_0, # of connection points: 2
#     Edge 35, Type (0, 1), BuildingBlock: ZUJKAS_clean_linker_0, # of connection points: 2
# Relax obj value: 0.022
# Max RMSD: 0.118
# Mean RMSD: 0.104
data_MOF--net-nom--node1-TATPOV_clean_sbu_0--node2-MUDLON_clean_linker_0--edge1-ZUJKAS_clean_linker_0
_symmetry_space_group_name_H-M    P1
_symmetry_Int_Tables_number       1
_symmetry_cell_setting            triclinic
loop_
_symmetry_equiv_pos_as_xyz
'x, y, z'
_cell_length_a     73.053111
_cell_length_b     74.71795
_cell_length_c     73.53901
_cell_angle_alpha  90.926594
_cell_angle_beta   90.426479
_cell_angle_gamma 120.35786
loop_
_atom_site_label
_atom_site_type_symbol
_atom_site_fract_x
_atom_site_fract_y
_atom_site_fract_z
_atom_type_partial_charge
H0 H 0.1028 0.54329 0.32285 0.0
N1 N 0.07656 0.55719 0.3345 0.0
H2 H 0.13016 0.55925 0.29997 0.0
H3 H 0.08343 0.58804 0.31299 0.0
H4 H 0.11124 0.60465 0.29049 0.0
H5 H 0.09104 0.58989 0.35674 0.0
H6 H 0.11015 0.59585 0.38567 0.0
H7 H 0.08427 0.52933 0.3515 0.0
H8 H 0.10324 0.53499 0.38065 0.0
H9 H 0.06558 0.52078 0.31577 0.0
H10 H 0.04067 0.55289 0.34682 0.0
H11 H 0.02974 0.49225 0.30956 0.0
H12 H 0.00475 0.52376 0.34178 0.0
H13 H 0.90296 0.4044 0.29021 0.0
H14 H 0.88669 0.39871 0.25993 0.0
H15 H 0.92497 0.46434 0.25009 0.0
H16 H 0.94029 0.47004 0.28031 0.0
H17 H 0.90722 0.46129 0.30427 0.0
H18 H 0.87859 0.45736 0.32357 0.0
H19 H 0.8844 0.41222 0.3552 0.0
H20 H 0.91352 0.41643 0.33576 0.0
H21 H 0.96277 0.43644 0.31256 0.0
H22 H 0.99899 0.4637 0.32073 0.0
H23 H 0.97911 0.50924 0.31888 0.0
N24 N 0.92899 0.44041 0.30689 0.0
H25 H 0.94323 0.48207 0.31183 0.0
C26 C 0.09103 0.56451 0.31957 0.0
C27 C 0.10423 0.55638 0.31557 0.0
C28 C 0.12001 0.56565 0.30257 0.0
C29 C 0.12304 0.58334 0.29346 0.0
C30 C 0.10921 0.59089 0.29702 0.0
C31 C 0.09336 0.58151 0.30993 0.0
C32 C 0.08628 0.55926 0.35208 0.0
C33 C 0.09348 0.57779 0.36203 0.0
C34 C 0.10429 0.58109 0.37857 0.0
C35 C 0.10815 0.56585 0.3855 0.0
C36 C 0.10066 0.54708 0.37559 0.0
C37 C 0.08975 0.54378 0.359 0.0
C38 C 0.05579 0.53929 0.33144 0.0
C39 C 0.05244 0.52168 0.32138 0.0
C40 C 0.03182 0.50517 0.31801 0.0
C41 C 0.01418 0.50571 0.32495 0.0
C42 C 0.01779 0.52298 0.33572 0.0
C43 C 0.03832 0.53959 0.33877 0.0
C44 C 0.92283 0.43755 0.28782 0.0
C45 C 0.90809 0.41749 0.28137 0.0
C46 C 0.89884 0.41427 0.26402 0.0
C47 C 0.9043 0.43112 0.25262 0.0
C48 C 0.91999 0.45107 0.25866 0.0
C49 C 0.92901 0.45431 0.27607 0.0
C50 C 0.91271 0.43924 0.31869 0.0
C51 C 0.9027 0.45083 0.31553 0.0
C52 C 0.88629 0.44857 0.3266 0.0
C53 C 0.87934 0.43456 0.34095 0.0
C54 C 0.88941 0.42308 0.3442 0.0
C55 C 0.90604 0.42552 0.33319 0.0
C56 C 0.95019 0.45703 0.31152 0.0
C57 C 0.96632 0.45233 0.31404 0.0
C58 C 0.98703 0.46798 0.31859 0.0
C59 C 0.9921 0.48878 0.32053 0.0
C60 C 0.97585 0.49342 0.31795 0.0
C61 C 0.95515 0.47776 0.31373 0.0
H62 H 0.51201 0.91946 0.47477 0.0
N63 N 0.50472 0.94811 0.46154 0.0
H64 H 0.49002 0.89211 0.49587 0.0
H65 H 0.47237 0.94639 0.48182 0.0
H66 H 0.45051 0.91932 0.50297 0.0
H67 H 0.46406 0.93451 0.44955 0.0
H68 H 0.4479 0.91549 0.42111 0.0
H69 H 0.52423 0.94192 0.43391 0.0
H70 H 0.50814 0.92308 0.40516 0.0
H71 H 0.54494 0.97512 0.46938 0.0
H72 H 0.48481 0.97088 0.45872 0.0
H73 H 0.5619 0.01274 0.47274 0.0
H74 H 0.50124 0.00836 0.46316 0.0
H75 H 0.61051 0.12933 0.49691 0.0
H76 H 0.61299 0.14392 0.52753 0.0
H77 H 0.54481 0.10699 0.53178 0.0
H78 H 0.54254 0.0925 0.50117 0.0
H79 H 0.54067 0.10697 0.47284 0.0
H80 H 0.53999 0.13467 0.45622 0.0
H81 H 0.60433 0.15682 0.43922 0.0
H82 H 0.60462 0.12879 0.45561 0.0
H83 H 0.58335 0.07641 0.49556 0.0
H84 H 0.56515 0.0389 0.4923 0.0
H85 H 0.52442 0.04088 0.45042 0.0
N86 N 0.57557 0.10289 0.47827 0.0
H87 H 0.54185 0.07827 0.45439 0.0
C88 C 0.49391 0.93496 0.47661 0.0
C89 C 0.49893 0.9198 0.48127 0.0
C90 C 0.48636 0.90421 0.49335 0.0
C91 C 0.46839 0.90344 0.50096 0.0
C92 C 0.46408 0.91934 0.49712 0.0
C93 C 0.47671 0.93497 0.48508 0.0
C94 C 0.4954 0.93947 0.44392 0.0
C95 C 0.4739 0.93234 0.43991 0.0
C96 C 0.46463 0.92138 0.42367 0.0
C97 C 0.47674 0.91765 0.41104 0.0
C98 C 0.49848 0.9258 0.41463 0.0
C99 C 0.50767 0.93652 0.43099 0.0
C100 C 0.51365 0.97015 0.4641 0.0
C101 C 0.53536 0.98235 0.46808 0.0
C102 C 0.54496 0.00385 0.47011 0.0
C103 C 0.53294 0.01372 0.46845 0.0
C104 C 0.51108 0.00141 0.46439 0.0
C105 C 0.50155 0.97985 0.4621 0.0
C106 C 0.57643 0.10997 0.49679 0.0
C107 C 0.59617 0.12428 0.50457 0.0
C108 C 0.59753 0.13251 0.52204 0.0
C109 C 0.57908 0.12663 0.53203 0.0
C110 C 0.55928 0.11199 0.52432 0.0
C111 C 0.55795 0.10368 0.50687 0.0
C112 C 0.57278 0.1158 0.46544 0.0
C113 C 0.55442 0.11746 0.46516 0.0
C114 C 0.55412 0.13343 0.45575 0.0
C115 C 0.5722 0.14818 0.44656 0.0
C116 C 0.59003 0.14566 0.44595 0.0
C117 C 0.59026 0.12964 0.45531 0.0
C118 C 0.56394 0.0805 0.47562 0.0
C119 C 0.57031 0.06878 0.48581 0.0
C120 C 0.56 0.04725 0.48376 0.0
C121 C 0.5433 0.03671 0.47102 0.0
C122 C 0.53695 0.04838 0.46061 0.0
C123 C 0.5471 0.07 0.46288 0.0
H124 H 0.45166 0.5669 0.65868 0.0
N125 N 0.43761 0.52823 0.67236 0.0
H126 H 0.43231 0.57625 0.63757 0.0
H127 H 0.40365 0.50239 0.6524 0.0
H128 H 0.38457 0.51145 0.63033 0.0
H129 H 0.40877 0.51637 0.69803 0.0
H130 H 0.41062 0.53503 0.72628 0.0
H131 H 0.47157 0.565 0.68454 0.0
H132 H 0.47359 0.58384 0.71279 0.0
H133 H 0.47318 0.55018 0.65185 0.0
H134 H 0.43947 0.49619 0.68477 0.0
H135 H 0.50056 0.54127 0.64625 0.0
H136 H 0.46725 0.48765 0.68007 0.0
H137 H 0.58816 0.50776 0.63389 0.0
H138 H 0.59559 0.49895 0.60371 0.0
H139 H 0.52831 0.46285 0.59178 0.0
H140 H 0.52101 0.4714 0.62184 0.0
H141 H 0.52743 0.45012 0.64477 0.0
H142 H 0.53289 0.42511 0.66096 0.0
H143 H 0.58094 0.4744 0.69495 0.0
H144 H 0.57531 0.49972 0.67857 0.0
H145 H 0.5562 0.53024 0.65419 0.0
H146 H 0.52922 0.53976 0.66003 0.0
H147 H 0.48077 0.47482 0.65781 0.0
N148 N 0.55061 0.49252 0.64929 0.0
H149 H 0.50771 0.46556 0.6529 0.0
C150 C 0.42883 0.53389 0.6574 0.0
C151 C 0.43718 0.55466 0.65244 0.0
C152 C 0.42612 0.55998 0.64015 0.0
C153 C 0.40664 0.54464 0.63239 0.0
C154 C 0.39923 0.52373 0.63637 0.0
C155 C 0.41019 0.51847 0.64882 0.0
C156 C 0.43994 0.53925 0.68926 0.0
C157 C 0.42301 0.531 0.7013 0.0
C158 C 0.42415 0.54165 0.71741 0.0
C159 C 0.44228 0.56089 0.72175 0.0
C160 C 0.45937 0.56913 0.70972 0.0
C161 C 0.45826 0.55834 0.69363 0.0
C162 C 0.45405 0.52356 0.6685 0.0
C163 C 0.47164 0.53639 0.65786 0.0
C164 C 0.48745 0.53137 0.65485 0.0
C165 C 0.48611 0.51365 0.66262 0.0
C166 C 0.46862 0.50113 0.6735 0.0
C167 C 0.45277 0.50602 0.6763 0.0
C168 C 0.55414 0.49034 0.63028 0.0
C169 C 0.57507 0.4984 0.62456 0.0
C170 C 0.57925 0.49333 0.60733 0.0
C171 C 0.5625 0.48 0.59545 0.0
C172 C 0.54154 0.47288 0.60075 0.0
C173 C 0.53736 0.47798 0.61797 0.0
C174 C 0.55106 0.47698 0.66042 0.0
C175 C 0.53886 0.45568 0.65589 0.0
C176 C 0.54211 0.44133 0.66508 0.0
C177 C 0.55756 0.44786 0.67902 0.0
C178 C 0.56891 0.46895 0.68426 0.0
C179 C 0.56572 0.48339 0.67496 0.0
C180 C 0.53416 0.49727 0.65315 0.0
C181 C 0.53974 0.51811 0.65512 0.0
C182 C 0.52427 0.5235 0.65828 0.0
C183 C 0.50274 0.50807 0.65937 0.0
C184 C 0.49718 0.48714 0.65739 0.0
C185 C 0.51269 0.48179 0.65444 0.0
H186 H 0.09104 0.588 0.82867 0.0
N187 N 0.07682 0.55913 0.80232 0.0
H188 H 0.11813 0.59476 0.85199 0.0
H189 H 0.09242 0.53368 0.81021 0.0
H190 H 0.11938 0.5403 0.83322 0.0
H191 H 0.07933 0.53116 0.77962 0.0
H192 H 0.10177 0.53954 0.75277 0.0
H193 H 0.09798 0.59552 0.78662 0.0
H194 H 0.1197 0.60401 0.75951 0.0
H195 H 0.04742 0.56742 0.79134 0.0
H196 H 0.05525 0.51841 0.81301 0.0
H197 H 0.00898 0.54507 0.79219 0.0
H198 H 0.01688 0.49636 0.81504 0.0
H199 H 0.89899 0.48622 0.83268 0.0
H200 H 0.88431 0.47643 0.86312 0.0
H201 H 0.90907 0.43487 0.86661 0.0
H202 H 0.92388 0.44499 0.83608 0.0
H203 H 0.90756 0.43097 0.80677 0.0
H204 H 0.87801 0.40674 0.787 0.0
H205 H 0.86941 0.45701 0.76953 0.0
H206 H 0.89873 0.48102 0.78974 0.0
H207 H 0.94423 0.51205 0.81727 0.0
H208 H 0.98255 0.53248 0.81384 0.0
H209 H 0.98354 0.47647 0.79999 0.0
N210 N 0.9194 0.47144 0.81384 0.0
H211 H 0.94517 0.4561 0.8045 0.0
C212 C 0.08961 0.56033 0.81781 0.0
C213 C 0.09679 0.57725 0.82999 0.0
C214 C 0.11235 0.58117 0.84316 0.0
C215 C 0.12096 0.56812 0.84439 0.0
C216 C 0.11288 0.5505 0.8328 0.0
C217 C 0.09743 0.54669 0.81958 0.0
C218 C 0.08724 0.56284 0.78513 0.0
C219 C 0.08804 0.54704 0.77519 0.0
C220 C 0.10079 0.55186 0.75982 0.0
C221 C 0.11284 0.57252 0.75416 0.0
C222 C 0.1111 0.58804 0.76374 0.0
C223 C 0.09851 0.58322 0.77908 0.0
C224 C 0.05427 0.54485 0.8024 0.0
C225 C 0.04079 0.55184 0.79638 0.0
C226 C 0.01881 0.53907 0.79705 0.0
C227 C 0.0097 0.51898 0.80406 0.0
C228 C 0.02325 0.51168 0.8095 0.0
C229 C 0.04533 0.52442 0.80853 0.0
C230 C 0.91238 0.46629 0.8322 0.0
C231 C 0.90141 0.47518 0.84014 0.0
C232 C 0.89313 0.46961 0.85751 0.0
C233 C 0.89555 0.45488 0.86724 0.0
C234 C 0.90681 0.44612 0.85934 0.0
C235 C 0.9153 0.4519 0.84197 0.0
C236 C 0.90522 0.4578 0.79976 0.0
C237 C 0.89966 0.43686 0.79838 0.0
C238 C 0.88276 0.42302 0.78701 0.0
C239 C 0.87116 0.4299 0.77687 0.0
C240 C 0.87777 0.45115 0.77741 0.0
C241 C 0.89461 0.46492 0.78878 0.0
C242 C 0.94188 0.4827 0.81092 0.0
C243 C 0.95278 0.50426 0.81343 0.0
C244 C 0.97468 0.51589 0.8113 0.0
C245 C 0.98625 0.50623 0.80635 0.0
C246 C 0.97524 0.48447 0.8039 0.0
C247 C 0.95323 0.47278 0.8063 0.0
H248 H 0.54399 0.12258 0.99331 0.0
N249 N 0.54754 0.09208 0.97843 0.0
H250 H 0.57048 0.15179 0.01172 0.0
H251 H 0.58322 0.09478 0.99382 0.0
H252 H 0.60972 0.12372 0.01272 0.0
H253 H 0.58489 0.10438 0.96091 0.0
H254 H 0.59419 0.11981 0.93092 0.0
H255 H 0.52216 0.09567 0.95462 0.0
H256 H 0.53135 0.11113 0.92452 0.0
H257 H 0.51122 0.06708 0.99425 0.0
H258 H 0.5646 0.06795 0.96885 0.0
H259 H 0.49381 0.02943 0.9969 0.0
H260 H 0.54707 0.03021 0.97088 0.0
H261 H 0.44427 0.93019 0.01437 0.0
H262 H 0.44119 0.91249 0.04288 0.0
H263 H 0.49755 0.9101 0.03001 0.0
H264 H 0.50042 0.9277 0.00156 0.0
H265 H 0.50236 0.93479 0.96931 0.0
H266 H 0.49589 0.90659 0.94794 0.0
H267 H 0.42833 0.88169 0.95232 0.0
H268 H 0.43503 0.90992 0.97352 0.0
H269 H 0.45722 0.96227 0.97834 0.0
H270 H 0.47686 1.00005 0.97628 0.0
H271 H 0.53471 0.00109 0.99136 0.0
N272 N 0.4719 0.93795 0.98819 0.0
H273 H 0.51493 0.96319 0.99284 0.0
C274 C 0.56159 0.10657 0.99219 0.0
C275 C 0.55807 0.12251 0.99793 0.0
C276 C 0.57325 0.13917 0.00851 0.0
C277 C 0.59236 0.14022 0.01366 0.0
C278 C 0.59533 0.12356 0.00877 0.0
C279 C 0.58009 0.10688 -0.00191 0.0
C280 C 0.55279 0.099 0.96003 0.0
C281 C 0.57301 0.10554 0.953 0.0
C282 C 0.57836 0.11445 0.93588 0.0
C283 C 0.56354 0.11679 0.92544 0.0
C284 C 0.54304 0.10937 0.93218 0.0
C285 C 0.53777 0.10061 0.94935 0.0
C286 C 0.53904 0.07028 0.98128 0.0
C287 C 0.51921 0.0591 0.98936 0.0
C288 C 0.50923 0.03759 0.99067 0.0
C289 C 0.51888 0.02673 0.9838 0.0
C290 C 0.53922 0.03807 0.97634 0.0
C291 C 0.54924 0.05968 0.9751 0.0
C292 C 0.47242 0.93017 0.00584 0.0
C293 C 0.45616 0.9262 0.01792 0.0
C294 C 0.45449 0.91615 0.0342 0.0
C295 C 0.46909 0.90981 0.03864 0.0
C296 C 0.48594 0.9146 0.02685 0.0
C297 C 0.48766 0.92477 0.01061 0.0
C298 C 0.46908 0.92431 0.97305 0.0
C299 C 0.48621 0.92352 0.96534 0.0
C300 C 0.48247 0.90733 0.9532 0.0
C301 C 0.46158 0.89179 0.94852 0.0
C302 C 0.44461 0.89349 0.95542 0.0
C303 C 0.44837 0.90957 0.96757 0.0
C304 C 0.48452 0.95997 0.98581 0.0
C305 C 0.47418 0.97069 0.98101 0.0
C306 C 0.48541 0.99227 0.98004 0.0
C307 C 0.50733 0.00365 0.98396 0.0
C308 C 0.51787 0.9928 0.98822 0.0
C309 C 0.50656 0.97112 0.98913 0.0
H310 H 0.51277 0.42054 0.14761 0.0
N311 N 0.51979 0.45571 0.16322 0.0
H312 H 0.53628 0.41565 0.12725 0.0
H313 H 0.55416 0.48683 0.14577 0.0
H314 H 0.57744 0.48212 0.12528 0.0
H315 H 0.55975 0.47903 0.17809 0.0
H316 H 0.57247 0.4723 0.20653 0.0
H317 H 0.49659 0.42877 0.18837 0.0
H318 H 0.5092 0.42227 0.21721 0.0
H319 H 0.48053 0.44557 0.15452 0.0
H320 H 0.54149 0.49791 0.16959 0.0
H321 H 0.4655 0.46811 0.15324 0.0
H322 H 0.52718 0.52103 0.16687 0.0
H323 H 0.42152 0.53885 0.13593 0.0
H324 H 0.41997 0.55322 0.10664 0.0
H325 H 0.48845 0.58778 0.10551 0.0
H326 H 0.48982 0.57295 0.13475 0.0
H327 H 0.48791 0.58602 0.16412 0.0
H328 H 0.48434 0.61087 0.18339 0.0
H329 H 0.42236 0.56218 0.19947 0.0
H330 H 0.42569 0.53773 0.17921 0.0
H331 H 0.44678 0.51325 0.13535 0.0
H332 H 0.46373 0.49252 0.13629 0.0
H333 H 0.50564 0.53239 0.1796 0.0
N334 N 0.45581 0.5468 0.15507 0.0
H335 H 0.48967 0.55409 0.1775 0.0
C336 C 0.53159 0.45395 0.14833 0.0
C337 C 0.52657 0.43404 0.14236 0.0
C338 C 0.54002 0.4313 0.13071 0.0
C339 C 0.55888 0.4485 0.1248 0.0
C340 C 0.56321 0.46854 0.12984 0.0
C341 C 0.54973 0.47126 0.14149 0.0
C342 C 0.52719 0.45416 0.18101 0.0
C343 C 0.54854 0.46674 0.18656 0.0
C344 C 0.55582 0.46285 0.20279 0.0
C345 C 0.54183 0.44664 0.21391 0.0
C346 C 0.52028 0.43488 0.20887 0.0
C347 C 0.51307 0.43855 0.19247 0.0
C348 C 0.51214 0.47002 0.1617 0.0
C349 C 0.49077 0.46206 0.15714 0.0
C350 C 0.48228 0.47509 0.15628 0.0
C351 C 0.49514 0.49662 0.15963 0.0
C352 C 0.51668 0.50459 0.1643 0.0
C353 C 0.52504 0.49139 0.16555 0.0
C354 C 0.45569 0.5549 0.13746 0.0
C355 C 0.43615 0.54939 0.12925 0.0
C356 C 0.43532 0.55756 0.11257 0.0
C357 C 0.45411 0.5716 0.10385 0.0
C358 C 0.47376 0.57712 0.11204 0.0
C359 C 0.47456 0.56868 0.12868 0.0
C360 C 0.45683 0.56006 0.16999 0.0
C361 C 0.47373 0.58061 0.17204 0.0
C362 C 0.47169 0.59482 0.18322 0.0
C363 C 0.45282 0.58868 0.19271 0.0
C364 C 0.43686 0.56761 0.19197 0.0
C365 C 0.43883 0.55351 0.18062 0.0
C366 C 0.46681 0.5353 0.15625 0.0
C367 C 0.45981 0.51768 0.14492 0.0
C368 C 0.46939 0.50564 0.14566 0.0
C369 C 0.48594 0.51046 0.15823 0.0
C370 C 0.49313 0.52825 0.16958 0.0
C371 C 0.48381 0.54066 0.1685 0.0
Zn372 Zn 0.66328 0.43825 0.40646 0.0
Zn373 Zn 0.64033 0.39692 0.40786 0.0
O374 O 0.67141 0.40361 0.40624 0.0
O375 O 0.69037 0.43763 0.40503 0.0
O376 O 0.62441 0.36572 0.41013 0.0
O377 O 0.65237 0.44108 0.43052 0.0
O378 O 0.6322 0.40709 0.43119 0.0
C379 C 0.68936 0.42022 0.40515 0.0
C380 C 0.63291 0.41927 0.37675 0.0
O381 O 0.62867 0.40234 0.38423 0.0
O382 O 0.6469 0.4365 0.3837 0.0
C383 C 0.62738 0.35437 0.39886 0.0
O384 O 0.64025 0.36316 0.38526 0.0
C385 C 0.63845 0.425 0.43831 0.0
Zn386 Zn 0.25533 0.6879 0.57096 0.0
Zn387 Zn 0.27581 0.66642 0.57033 0.0
O388 O 0.2996 0.697 0.56815 0.0
O389 O 0.28316 0.71484 0.56903 0.0
O390 O 0.29202 0.65122 0.57099 0.0
O391 O 0.2435 0.67633 0.59553 0.0
O392 O 0.25928 0.65787 0.59428 0.0
C393 C 0.30018 0.71434 0.56784 0.0
C394 C 0.24255 0.65793 0.54093 0.0
O395 O 0.25639 0.65431 0.54779 0.0
O396 O 0.23926 0.67153 0.54821 0.0
C397 C 0.28242 0.63175 0.57329 0.0
O398 O 0.26167 0.62157 0.57475 0.0
C399 C 0.24727 0.66308 0.60243 0.0
Zn400 Zn 0.57071 0.23762 0.73302 0.0
Zn401 Zn 0.6137 0.26002 0.73327 0.0
O402 O 0.60485 0.28215 0.73238 0.0
O403 O 0.56995 0.26427 0.73329 0.0
O404 O 0.64565 0.27728 0.73515 0.0
O405 O 0.57139 0.22486 0.75675 0.0
O406 O 0.6063 0.2429 0.75656 0.0
C407 C 0.58709 0.28153 0.73271 0.0
C408 C 0.58985 0.2291 0.70204 0.0
O409 O 0.60722 0.2426 0.70972 0.0
O410 O 0.57228 0.22438 0.70919 0.0
C411 C 0.65807 0.28378 0.72172 0.0
O412 O 0.6501 0.27899 0.7051 0.0
C413 C 0.58911 0.2298 0.76407 0.0
Zn414 Zn 0.35227 0.59687 0.91292 0.0
Zn415 Zn 0.37101 0.63818 0.9132 0.0
O416 O 0.33886 0.628 0.91158 0.0
O417 O 0.32344 0.59399 0.9123 0.0
O418 O 0.38434 0.66932 0.91464 0.0
O419 O 0.36631 0.59793 0.93674 0.0
O420 O 0.38214 0.63199 0.93685 0.0
C421 C 0.32206 0.61017 0.91152 0.0
C422 C 0.37996 0.61566 0.88255 0.0
O423 O 0.38309 0.63253 0.88999 0.0
O424 O 0.36737 0.59844 0.88963 0.0
C425 C 0.38731 0.68043 0.90082 0.0
O426 O 0.38174 0.67148 0.8846 0.0
C427 C 0.37888 0.61533 0.94424 0.0
Zn428 Zn 0.77341 0.43653 0.06398 0.0
Zn429 Zn 0.75087 0.39473 0.0621 0.0
O430 O 0.72823 0.40339 0.06461 0.0
O431 O 0.74632 0.43752 0.06514 0.0
O432 O 0.73316 0.36351 0.06053 0.0
O433 O 0.78628 0.43648 0.03974 0.0
O434 O 0.76762 0.40237 0.03828 0.0
C435 C 0.72871 0.42069 0.0655 0.0
C436 C 0.78325 0.41705 0.09313 0.0
O437 O 0.76968 0.40039 0.08483 0.0
O438 O 0.78737 0.4345 0.08718 0.0
C439 C 0.74122 0.35239 0.05646 0.0
O440 O 0.76165 0.36147 0.05332 0.0
C441 C 0.78116 0.41955 0.03145 0.0
Zn442 Zn 0.34866 0.77983 0.21879 0.0
Zn443 Zn 0.36764 0.75713 0.22293 0.0
O444 O 0.33554 0.73603 0.22368 0.0
O445 O 0.31972 0.75417 0.2199 0.0
O446 O 0.38 0.73837 0.22455 0.0
O447 O 0.36266 0.78943 0.19466 0.0
O448 O 0.37941 0.77219 0.19878 0.0
C449 C 0.31862 0.73692 0.22228 0.0
C450 C 0.37626 0.79123 0.25086 0.0
O451 O 0.37906 0.77649 0.24547 0.0
O452 O 0.36426 0.79564 0.24185 0.0
C453 C 0.39912 0.74422 0.22892 0.0
O454 O 0.41228 0.76387 0.23306 0.0
C455 C 0.37576 0.78421 0.18928 0.0
H456 H 0.16347 0.59082 0.29861 0.0
H457 H 0.19487 0.61345 0.28116 0.0
H458 H 0.15656 0.62579 0.24441 0.0
H459 H 0.1248 0.60264 0.26146 0.0
H460 H 0.20296 0.61488 0.23927 0.0
H461 H 0.20276 0.68276 0.27169 0.0
H462 H 0.18933 0.65738 0.28159 0.0
H463 H 0.17833 0.66232 0.26173 0.0
C464 C 0.16153 0.59782 0.28652 0.0
C465 C 0.14158 0.59498 0.28151 0.0
C466 C 0.17954 0.61082 0.27662 0.0
C467 C 0.17796 0.62131 0.26162 0.0
C468 C 0.15802 0.61785 0.25604 0.0
H469 H 0.27987 0.73132 0.21278 0.0
H470 H 0.24505 0.70169 0.2193 0.0
C471 C 0.13995 0.60475 0.26587 0.0
C472 C 0.19746 0.63734 0.25298 0.0
H473 H 0.23066 0.6897 0.25219 0.0
C474 C 0.20901 0.63127 0.24192 0.0
C475 C 0.20516 0.65862 0.25652 0.0
C476 C 0.1934 0.66582 0.26859 0.0
C477 C 0.22826 0.64607 0.23427 0.0
C478 C 0.23632 0.6674 0.23825 0.0
C479 C 0.22447 0.67337 0.24909 0.0
C480 C 0.25735 0.6839 0.23204 0.0
C481 C 0.23959 0.6387 0.22187 0.0
C482 C 0.27589 0.68364 0.23675 0.0
C483 C 0.29585 0.70049 0.23283 0.0
C484 C 0.29763 0.71808 0.22448 0.0
C485 C 0.27904 0.71805 0.21933 0.0
C486 C 0.25912 0.70111 0.22303 0.0
H487 H 0.22837 0.62337 0.21546 0.0
H488 H 0.24801 0.64995 0.21097 0.0
H489 H 0.25143 0.63692 0.22996 0.0
H490 H 0.27498 0.67081 0.24414 0.0
H491 H 0.30987 0.70011 0.23708 0.0
H492 H 0.59067 0.16842 0.41504 0.0
H493 H 0.59667 0.20224 0.40559 0.0
H494 H 0.56217 0.20475 0.45192 0.0
H495 H 0.55675 0.17143 0.46183 0.0
H496 H 0.56863 0.21758 0.3979 0.0
H497 H 0.62094 0.25728 0.4581 0.0
H498 H 0.61311 0.23103 0.45126 0.0
H499 H 0.59501 0.2363 0.46338 0.0
C500 C 0.58431 0.17614 0.4232 0.0
C501 C 0.57338 0.16723 0.43929 0.0
C502 C 0.58764 0.1954 0.41771 0.0
C503 C 0.58018 0.20615 0.42824 0.0
C504 C 0.56835 0.19686 0.44376 0.0
H505 H 0.60119 0.33148 0.42626 0.0
H506 H 0.58783 0.29487 0.43239 0.0
C507 C 0.56505 0.17765 0.44928 0.0
C508 C 0.58566 0.2275 0.42351 0.0
H509 H 0.61289 0.27774 0.43924 0.0
C510 C 0.57832 0.23076 0.40691 0.0
C511 C 0.59835 0.24466 0.43529 0.0
C512 C 0.6075 0.24226 0.45294 0.0
C513 C 0.58306 0.25072 0.40188 0.0
C514 C 0.59576 0.26787 0.41366 0.0
C515 C 0.60305 0.26456 0.43028 0.0
C516 C 0.60226 0.2895 0.40892 0.0
C517 C 0.57414 0.25323 0.38417 0.0
C518 C 0.61476 0.29864 0.39366 0.0
C519 C 0.62242 0.31957 0.39011 0.0
C520 C 0.61786 0.33182 0.40184 0.0
C521 C 0.605 0.32251 0.41694 0.0
C522 C 0.59735 0.30158 0.42047 0.0
H523 H 0.5602 0.23839 0.37931 0.0
H524 H 0.56935 0.26512 0.38556 0.0
H525 H 0.58649 0.25835 0.37364 0.0
H526 H 0.61915 0.28977 0.38478 0.0
H527 H 0.63234 0.32624 0.3784 0.0
H528 H 0.36344 0.52689 0.63293 0.0
H529 H 0.34173 0.539 0.61849 0.0
H530 H 0.39748 0.58913 0.59463 0.0
H531 H 0.41928 0.5764 0.60818 0.0
H532 H 0.34539 0.57564 0.62628 0.0
H533 H 0.35614 0.57045 0.55223 0.0
H534 H 0.36365 0.55756 0.56871 0.0
H535 H 0.38074 0.58477 0.56473 0.0
C536 C 0.37108 0.54006 0.6241 0.0
C537 C 0.3932 0.55064 0.62175 0.0
C538 C 0.35861 0.54708 0.61598 0.0
C539 C 0.36792 0.56488 0.60536 0.0
C540 C 0.38986 0.57513 0.60248 0.0
H541 H 0.32523 0.64789 0.57004 0.0
H542 H 0.34554 0.63076 0.57652 0.0
C543 C 0.40236 0.56799 0.61047 0.0
C544 C 0.35496 0.57381 0.59899 0.0
H545 H 0.34025 0.5903 0.56148 0.0
C546 C 0.34411 0.57863 0.61208 0.0
C547 C 0.35341 0.57786 0.58047 0.0
C548 C 0.36394 0.57222 0.5657 0.0
C549 C 0.33201 0.58762 0.60722 0.0
C550 C 0.33058 0.59179 0.58876 0.0
C551 C 0.3414 0.58704 0.57562 0.0
C552 C 0.31809 0.60137 0.58307 0.0
C553 C 0.32114 0.59299 0.62191 0.0
C554 C 0.29591 0.59032 0.58423 0.0
C555 C 0.28424 0.60002 0.58054 0.0
C556 C 0.29459 0.62098 0.57566 0.0
C557 C 0.31678 0.63177 0.57387 0.0
C558 C 0.32842 0.62201 0.5775 0.0
H559 H 0.32692 0.59225 0.63574 0.0
H560 H 0.32369 0.6088 0.62001 0.0
H561 H 0.30381 0.58185 0.62108 0.0
H562 H 0.28767 0.57431 0.5884 0.0
H563 H 0.26718 0.59123 0.58196 0.0
H564 H 0.83375 0.42967 0.77665 0.0
H565 H 0.7998 0.40358 0.76327 0.0
H566 H 0.82857 0.36946 0.74243 0.0
H567 H 0.86283 0.39564 0.75592 0.0
H568 H 0.78702 0.38937 0.72808 0.0
H569 H 0.77963 0.32629 0.77214 0.0
H570 H 0.79941 0.35316 0.77631 0.0
H571 H 0.80298 0.3385 0.75852 0.0
C572 C 0.83301 0.41682 0.76896 0.0
C573 C 0.85103 0.41475 0.76734 0.0
C574 C 0.81353 0.40185 0.76139 0.0
C575 C 0.81157 0.38443 0.75206 0.0
C576 C 0.82964 0.38258 0.74989 0.0
H577 H 0.68957 0.29935 0.69645 0.0
H578 H 0.72768 0.32259 0.70197 0.0
C579 C 0.84919 0.39755 0.75756 0.0
C580 C 0.79036 0.36809 0.74522 0.0
H581 H 0.75137 0.31796 0.75172 0.0
C582 C 0.77927 0.37368 0.73308 0.0
C583 C 0.78025 0.34769 0.75193 0.0
C584 C 0.79105 0.341 0.76556 0.0
C585 C 0.75814 0.35964 0.72787 0.0
C586 C 0.74797 0.33931 0.73471 0.0
C587 C 0.75926 0.33352 0.74643 0.0
C588 C 0.72511 0.32439 0.73116 0.0
C589 C 0.74659 0.36702 0.7158 0.0
C590 C 0.71112 0.31717 0.74577 0.0
C591 C 0.68942 0.30378 0.7427 0.0
C592 C 0.68123 0.2973 0.72491 0.0
C593 C 0.69534 0.30418 0.7103 0.0
C594 C 0.71711 0.31754 0.71341 0.0
H595 H 0.75517 0.3842 0.71497 0.0
H596 H 0.74509 0.3605 0.70185 0.0
H597 H 0.73037 0.36167 0.72084 0.0
H598 H 0.71695 0.32222 0.75958 0.0
H599 H 0.67904 0.29876 0.75428 0.0
H600 H 0.48143 0.86933 0.95231 0.0
H601 H 0.47051 0.83512 0.93916 0.0
H602 H 0.42042 0.83629 0.9088 0.0
H603 H 0.43136 0.87069 0.92182 0.0
H604 H 0.4062 0.80184 0.92985 0.0
H605 H 0.47452 0.81268 0.88927 0.0
H606 H 0.48192 0.82342 0.91195 0.0
H607 H 0.47107 0.83405 0.89631 0.0
C608 C 0.46854 0.86265 0.94238 0.0
C609 C 0.45724 0.87274 0.93815 0.0
C610 C 0.4623 0.84304 0.93487 0.0
C611 C 0.44475 0.83321 0.92289 0.0
C612 C 0.43403 0.84363 0.918 0.0
H613 H 0.39718 0.70908 0.87424 0.0
H614 H 0.41093 0.7464 0.87832 0.0
C615 C 0.44026 0.86324 0.92549 0.0
C616 C 0.43615 0.81121 0.91723 0.0
H617 H 0.44934 0.77771 0.89735 0.0
C618 C 0.41555 0.79661 0.92254 0.0
C619 C 0.44829 0.80441 0.90758 0.0
C620 C 0.47011 0.81948 0.90078 0.0
C621 C 0.40705 0.77533 0.91907 0.0
C622 C 0.41959 0.76844 0.91027 0.0
C623 C 0.43987 0.78305 0.90429 0.0
C624 C 0.41206 0.74606 0.9077 0.0
C625 C 0.38476 0.76034 0.92499 0.0
C626 C 0.40852 0.73364 0.92287 0.0
C627 C 0.40073 0.71238 0.92061 0.0
C628 C 0.39633 0.70312 0.90311 0.0
C629 C 0.4003 0.7157 0.88791 0.0
C630 C 0.40819 0.73702 0.89019 0.0
H631 H 0.37551 0.76823 0.92731 0.0
H632 H 0.37623 0.74767 0.91468 0.0
H633 H 0.38545 0.75327 0.93794 0.0
H634 H 0.41171 0.7404 0.93649 0.0
H635 H 0.39796 0.70319 0.93261 0.0
H636 H 0.60168 0.46929 0.13087 0.0
H637 H 0.62787 0.46238 0.11717 0.0
H638 H 0.57882 0.41331 0.08385 0.0
H639 H 0.5524 0.4204 0.09728 0.0
H640 H 0.62519 0.42242 0.11878 0.0
H641 H 0.62802 0.44903 0.04801 0.0
H642 H 0.61824 0.45766 0.06669 0.0
H643 H 0.60227 0.43197 0.05718 0.0
C644 C 0.59648 0.45736 0.12031 0.0
C645 C 0.57494 0.44547 0.11509 0.0
C646 C 0.61146 0.45332 0.11261 0.0
C647 C 0.60529 0.43742 0.09945 0.0
C648 C 0.58392 0.4258 0.09386 0.0
H649 H 0.68859 0.38821 0.0716 0.0
H650 H 0.65676 0.39012 0.0782 0.0
C651 C 0.56885 0.42978 0.10162 0.0
C652 C 0.62117 0.43237 0.09251 0.0
H653 H 0.64986 0.43516 0.05511 0.0
C654 C 0.63047 0.42501 0.10482 0.0
C655 C 0.62802 0.43588 0.07432 0.0
C656 C 0.61878 0.44419 0.06073 0.0
C657 C 0.64677 0.42142 0.09953 0.0
C658 C 0.6538 0.42512 0.08138 0.0
C659 C 0.64427 0.43218 0.06897 0.0
C660 C 0.67223 0.42341 0.07555 0.0
C661 C 0.65692 0.41448 0.11355 0.0
C662 C 0.69124 0.4414 0.07135 0.0
C663 C 0.70941 0.44039 0.06761 0.0
C664 C 0.7089 0.42131 0.06789 0.0
C665 C 0.68956 0.40316 0.07135 0.0
C666 C 0.67138 0.40421 0.07518 0.0
H667 H 0.65212 0.41575 0.1276 0.0
H668 H 0.65208 0.39802 0.11074 0.0
H669 H 0.67449 0.42385 0.11287 0.0
H670 H 0.6922 0.45636 0.07155 0.0
H671 H 0.72397 0.45466 0.06487 0.0
H672 H 0.47702 0.8828 0.52721 0.0
H673 H 0.45164 0.8504 0.54187 0.0
H674 H 0.40012 0.85011 0.51266 0.0
H675 H 0.42522 0.88219 0.49784 0.0
H676 H 0.41216 0.84059 0.56288 0.0
H677 H 0.39783 0.79348 0.49952 0.0
H678 H 0.42115 0.81876 0.50313 0.0
H679 H 0.39623 0.81656 0.49701 0.0
C680 C 0.46027 0.87587 0.524 0.0
C681 C 0.45314 0.88506 0.51136 0.0
C682 C 0.44582 0.85744 0.53242 0.0
C683 C 0.42409 0.84783 0.52817 0.0
C684 C 0.41687 0.85726 0.516 0.0
H685 H 0.30744 0.75393 0.5701 0.0
H686 H 0.33981 0.78592 0.56272 0.0
C687 C 0.43123 0.87569 0.50768 0.0
C688 C 0.40883 0.82757 0.53591 0.0
H689 H 0.37384 0.77722 0.52362 0.0
C690 C 0.40393 0.82665 0.5544 0.0
C691 C 0.39839 0.8094 0.52482 0.0
C692 C 0.40373 0.80944 0.50504 0.0
C693 C 0.38806 0.80814 0.56191 0.0
C694 C 0.37677 0.79024 0.55056 0.0
C695 C 0.38243 0.79097 0.53228 0.0
C696 C 0.35803 0.77104 0.55692 0.0
C697 C 0.38332 0.80793 0.58185 0.0
C698 C 0.35748 0.75199 0.55603 0.0
C699 C 0.33891 0.73358 0.56021 0.0
C700 C 0.32049 0.73389 0.56511 0.0
C701 C 0.32131 0.7531 0.56637 0.0
C702 C 0.33987 0.77146 0.5623 0.0
H703 H 0.39707 0.82048 0.5896 0.0
H704 H 0.3697 0.81046 0.58348 0.0
H705 H 0.37904 0.79279 0.58785 0.0
H706 H 0.37129 0.75133 0.55176 0.0
H707 H 0.33882 0.71906 0.55906 0.0
H708 H 0.56434 0.41978 0.66105 0.0
H709 H 0.57086 0.39358 0.67395 0.0
H710 H 0.56881 0.41556 0.72807 0.0
H711 H 0.56254 0.4422 0.71514 0.0
H712 H 0.60122 0.40624 0.72386 0.0
H713 H 0.52438 0.34176 0.69761 0.0
H714 H 0.54012 0.35882 0.68001 0.0
H715 H 0.53056 0.3684 0.69801 0.0
C716 C 0.56518 0.41899 0.67571 0.0
C717 C 0.56254 0.43275 0.68712 0.0
C718 C 0.56892 0.40403 0.68305 0.0
C719 C 0.56981 0.40232 0.70195 0.0
C720 C 0.568 0.41654 0.71343 0.0
H721 H 0.55478 0.28741 0.74306 0.0
H722 H 0.55166 0.31809 0.73878 0.0
C723 C 0.56443 0.4317 0.70606 0.0
C724 C 0.57208 0.38528 0.70953 0.0
H725 H 0.54977 0.33271 0.70751 0.0
C726 C 0.58988 0.39012 0.72049 0.0
C727 C 0.55706 0.36427 0.70539 0.0
C728 C 0.53684 0.35796 0.69477 0.0
C729 C 0.59346 0.37448 0.72684 0.0
C730 C 0.57908 0.35354 0.72174 0.0
C731 C 0.56092 0.34874 0.71131 0.0
C732 C 0.58248 0.33622 0.72665 0.0
C733 C 0.61251 0.38055 0.73904 0.0
C734 C 0.60103 0.33629 0.72157 0.0
C735 C 0.60298 0.31882 0.72427 0.0
C736 C 0.58621 0.30083 0.73169 0.0
C737 C 0.56791 0.30099 0.73717 0.0
C738 C 0.56612 0.31853 0.73476 0.0
H739 H 0.61757 0.39548 0.74641 0.0
H740 H 0.60917 0.36845 0.74915 0.0
H741 H 0.62596 0.38264 0.73061 0.0
H742 H 0.61365 0.34951 0.71485 0.0
H743 H 0.61721 0.31909 0.71979 0.0
H744 H 0.15621 0.60642 0.84944 0.0
H745 H 0.1893 0.61491 0.86525 0.0
H746 H 0.16154 0.55141 0.88175 0.0
H747 H 0.12834 0.54276 0.86595 0.0
H748 H 0.20063 0.61029 0.90161 0.0
H749 H 0.21251 0.56155 0.85061 0.0
H750 H 0.19285 0.56913 0.84759 0.0
H751 H 0.18786 0.5483 0.86241 0.0
C752 C 0.15695 0.59436 0.8568 0.0
C753 C 0.13972 0.57386 0.85631 0.0
C754 C 0.1759 0.59923 0.86578 0.0
C755 C 0.17795 0.58371 0.87437 0.0
C756 C 0.16037 0.56353 0.87489 0.0
H757 H 0.28369 0.57533 0.91611 0.0
H758 H 0.24866 0.57025 0.90928 0.0
C759 C 0.14144 0.55861 0.86586 0.0
C760 C 0.19893 0.58824 0.88146 0.0
H761 H 0.23749 0.57598 0.87479 0.0
C762 C 0.20873 0.60281 0.89579 0.0
C763 C 0.20952 0.57861 0.87367 0.0
C764 C 0.20029 0.56367 0.85761 0.0
C765 C 0.22871 0.60763 0.90284 0.0
C766 C 0.23915 0.5978 0.89515 0.0
C767 C 0.22937 0.58337 0.88074 0.0
C768 C 0.26021 0.602 0.90171 0.0
C769 C 0.23829 0.62286 0.91864 0.0
C770 C 0.27835 0.62169 0.90003 0.0
C771 C 0.29852 0.6247 0.90399 0.0
C772 C 0.30083 0.60798 0.90948 0.0
C773 C 0.28252 0.58851 0.91179 0.0
C774 C 0.26245 0.58557 0.90792 0.0
H775 H 0.22624 0.62519 0.9257 0.0
H776 H 0.24589 0.61753 0.92862 0.0
H777 H 0.25069 0.63807 0.91354 0.0
H778 H 0.277 0.6345 0.89493 0.0
H779 H 0.31231 0.63986 0.90202 0.0
H780 H 0.63492 0.15939 0.00697 0.0
H781 H 0.66272 0.1935 0.01797 0.0
H782 H 0.61694 0.19985 0.04988 0.0
H783 H 0.58926 0.16528 0.03973 0.0
H784 H 0.66325 0.22854 0.01078 0.0
H785 H 0.66589 0.22213 0.08549 0.0
H786 H 0.65265 0.19966 0.07046 0.0
H787 H 0.63959 0.21367 0.07708 0.0
C788 C 0.63086 0.16768 0.01684 0.0
C789 C 0.60978 0.15954 0.02242 0.0
C790 C 0.64677 0.1873 0.02299 0.0
C791 C 0.64199 0.19921 0.03487 0.0
C792 C 0.62115 0.19083 0.04102 0.0
H793 H 0.6991 0.32858 0.06429 0.0
H794 H 0.67626 0.29105 0.05979 0.0
C795 C 0.60525 0.17114 0.03499 0.0
C796 C 0.65818 0.22117 0.03917 0.0
H797 H 0.68187 0.25671 0.07402 0.0
C798 C 0.66754 0.23461 0.02462 0.0
C799 C 0.66371 0.22913 0.05723 0.0
C800 C 0.65509 0.21534 0.07345 0.0
C801 C 0.68177 0.25586 0.02761 0.0
C802 C 0.6869 0.26388 0.04563 0.0
C803 C 0.67782 0.25047 0.06022 0.0
C804 C 0.70116 0.28631 0.04946 0.0
C805 C 0.69073 0.26975 0.01146 0.0
C806 C 0.72279 0.29596 0.04541 0.0
C807 C 0.73591 0.3174 0.04798 0.0
C808 C 0.72759 0.32955 0.05462 0.0
C809 C 0.70599 0.31971 0.05907 0.0
C810 C 0.69292 0.29826 0.05657 0.0
H811 H 0.6824 0.26178 -0.00146 0.0
H812 H 0.68962 0.28394 0.01338 0.0
H813 H 0.70775 0.27465 0.01018 0.0
H814 H 0.72944 0.28693 0.04004 0.0
H815 H 0.75248 0.32447 0.04448 0.0
H816 H 0.48097 0.62451 0.21177 0.0
H817 H 0.47475 0.6521 0.22282 0.0
H818 H 0.40959 0.61641 0.20433 0.0
H819 H 0.41566 0.58917 0.19288 0.0
H820 H 0.46078 0.67383 0.20048 0.0
H821 H 0.40492 0.6347 0.25637 0.0
H822 H 0.42172 0.62555 0.24729 0.0
H823 H 0.39752 0.61959 0.23557 0.0
C824 C 0.46527 0.62246 0.21017 0.0
C825 C 0.4488 0.60448 0.2015 0.0
C826 C 0.46174 0.6382 0.21657 0.0
C827 C 0.44163 0.63615 0.21463 0.0
C828 C 0.42509 0.61809 0.20638 0.0
H829 H 0.37632 0.70307 0.21932 0.0
H830 H 0.38874 0.67831 0.21764 0.0
C831 C 0.42861 0.60245 0.19989 0.0
C832 C 0.43812 0.65345 0.21977 0.0
H833 H 0.40568 0.66475 0.24442 0.0
C834 C 0.44903 0.67206 0.21034 0.0
C835 C 0.42273 0.65101 0.23259 0.0
C836 C 0.41118 0.6317 0.24367 0.0
C837 C 0.44412 0.68786 0.21262 0.0
C838 C 0.42815 0.6851 0.22495 0.0
C839 C 0.41786 0.66682 0.23493 0.0
C840 C 0.4208 0.70028 0.22672 0.0
C841 C 0.45525 0.70687 0.2011 0.0
C842 C 0.43462 0.72083 0.23265 0.0
C843 C 0.42758 0.73512 0.23354 0.0
C844 C 0.40654 0.72905 0.22865 0.0
C845 C 0.39264 0.70831 0.22314 0.0
C846 C 0.3997 0.6941 0.2222 0.0
H847 H 0.46373 0.7046 0.18962 0.0
H848 H 0.44378 0.71104 0.19549 0.0
H849 H 0.4671 0.72014 0.20964 0.0
H850 H 0.45087 0.72583 0.23655 0.0
H851 H 0.43866 0.75092 0.23797 0.0
H852 H 0.84489 0.39779 0.35059 0.0
H853 H 0.81241 0.39276 0.36487 0.0
H854 H 0.83987 0.45907 0.36995 0.0
H855 H 0.87226 0.46421 0.35565 0.0
H856 H 0.80357 0.4071 0.39866 0.0
H857 H 0.78619 0.4392 0.3377 0.0
H858 H 0.80588 0.43141 0.33786 0.0
H859 H 0.81195 0.45602 0.34772 0.0
C860 C 0.84413 0.41127 0.35509 0.0
C861 C 0.86097 0.4314 0.35181 0.0
C862 C 0.82558 0.40838 0.36319 0.0
C863 C 0.82365 0.42555 0.36812 0.0
C864 C 0.84093 0.44563 0.36589 0.0
H865 H 0.72996 0.45276 0.40508 0.0
H866 H 0.76207 0.45203 0.39781 0.0
C867 C 0.85939 0.44854 0.35773 0.0
C868 C 0.80316 0.42267 0.37441 0.0
H869 H 0.76484 0.43414 0.36346 0.0
C870 C 0.79497 0.41284 0.39095 0.0
C871 C 0.79191 0.42997 0.36415 0.0
C872 C 0.79928 0.43956 0.34578 0.0
C873 C 0.77617 0.41093 0.39787 0.0
C874 C 0.76539 0.41892 0.38788 0.0
C875 C 0.7733 0.4282 0.37113 0.0
C876 C 0.74627 0.41865 0.39469 0.0
C877 C 0.7683 0.40102 0.41601 0.0
C878 C 0.72679 0.40003 0.39561 0.0
C879 C 0.70828 0.40036 0.39974 0.0
C880 C 0.70902 0.41936 0.40288 0.0
C881 C 0.72876 0.43787 0.40262 0.0
C882 C 0.74717 0.43751 0.39852 0.0
H883 H 0.78014 0.39846 0.42328 0.0
H884 H 0.76439 0.41085 0.42475 0.0
H885 H 0.75356 0.3858 0.41389 0.0
H886 H 0.72577 0.38534 0.39244 0.0
H887 H 0.69332 0.38584 0.39981 0.0
H888 H 0.13972 0.55727 0.39295 0.0
H889 H 0.16234 0.56717 0.42036 0.0
H890 H 0.12812 0.59475 0.44373 0.0
H891 H 0.10505 0.58429 0.41678 0.0
H892 H 0.18866 0.60674 0.43288 0.0
H893 H 0.13094 0.56225 0.48592 0.0
H894 H 0.12492 0.55635 0.46195 0.0
H895 H 0.12246 0.57683 0.47276 0.0
C896 C 0.13668 0.56497 0.40413 0.0
C897 C 0.12061 0.57002 0.40269 0.0
C898 C 0.1497 0.57073 0.41972 0.0
C899 C 0.14675 0.58146 0.43419 0.0
C900 C 0.13042 0.58609 0.43292 0.0
H901 H 0.20958 0.65955 0.52502 0.0
H902 H 0.18752 0.63902 0.49908 0.0
C903 C 0.11741 0.58034 0.4174 0.0
C904 C 0.16172 0.58941 0.44996 0.0
H905 H 0.16355 0.59246 0.49637 0.0
C906 C 0.18328 0.60329 0.44677 0.0
C907 C 0.15467 0.58484 0.46807 0.0
C908 C 0.13201 0.56908 0.47238 0.0
C909 C 0.19772 0.61365 0.46122 0.0
C910 C 0.19037 0.60991 0.47924 0.0
C911 C 0.16906 0.59536 0.48248 0.0
C912 C 0.20412 0.62223 0.49483 0.0
C913 C 0.22048 0.62931 0.45714 0.0
C914 C 0.22077 0.61953 0.50098 0.0
C915 C 0.23345 0.63124 0.51589 0.0
C916 C 0.22968 0.64585 0.52481 0.0
C917 C 0.213 0.64851 0.51847 0.0
C918 C 0.20032 0.63675 0.50368 0.0
H919 H 0.22313 0.63197 0.44233 0.0
H920 H 0.22524 0.64433 0.46418 0.0
H921 H 0.23096 0.62371 0.46234 0.0
H922 H 0.22381 0.60826 0.49436 0.0
H923 H 0.24612 0.62877 0.52047 0.0
H924 H 0.60729 0.13391 0.55985 0.0
H925 H 0.61048 0.15131 0.58923 0.0
H926 H 0.55741 0.15861 0.57451 0.0
H927 H 0.55429 0.14151 0.54502 0.0
H928 H 0.59534 0.19578 0.58859 0.0
H929 H 0.56828 0.1272 0.6325 0.0
H930 H 0.58856 0.13174 0.61643 0.0
H931 H 0.56251 0.12479 0.60836 0.0
C932 C 0.59631 0.13923 0.56288 0.0
C933 C 0.58049 0.13629 0.55016 0.0
C934 C 0.59806 0.14902 0.57969 0.0
C935 C 0.58408 0.15606 0.58403 0.0
C936 C 0.56829 0.15317 0.5714 0.0
H937 H 0.55599 0.19716 0.68402 0.0
H938 H 0.55598 0.18006 0.65546 0.0
C939 C 0.56643 0.14328 0.55464 0.0
C940 C 0.58616 0.16691 0.60159 0.0
H941 H 0.58006 0.15958 0.64733 0.0
C942 C 0.59209 0.18793 0.60146 0.0
C943 C 0.58177 0.15651 0.61828 0.0
C944 C 0.57477 0.13377 0.61903 0.0
C945 C 0.59372 0.19888 0.61766 0.0
C946 C 0.58941 0.1885 0.63435 0.0
C947 C 0.58351 0.16748 0.63448 0.0
C948 C 0.58983 0.19892 0.65174 0.0
C949 C 0.5995 0.22129 0.61679 0.0
C950 C 0.60894 0.21509 0.65916 0.0
C951 C 0.60904 0.22492 0.67555 0.0
C952 C 0.59 0.21872 0.68475 0.0
C953 C 0.57093 0.2024 0.67728 0.0
C954 C 0.57088 0.19255 0.66098 0.0
H955 H 0.59874 0.22595 0.60266 0.0
H956 H 0.58874 0.22416 0.62535 0.0
H957 H 0.61592 0.23134 0.62216 0.0
H958 H 0.62376 0.22005 0.65229 0.0
H959 H 0.624 0.2374 0.68096 0.0
H960 H 0.45535 0.60216 0.72583 0.0
H961 H 0.45336 0.6202 0.75328 0.0
H962 H 0.42804 0.56332 0.78278 0.0
H963 H 0.43039 0.5454 0.75566 0.0
H964 H 0.41615 0.60993 0.77127 0.0
H965 H 0.47297 0.60535 0.81816 0.0
H966 H 0.47318 0.60161 0.79383 0.0
H967 H 0.45504 0.58056 0.80777 0.0
C968 C 0.44982 0.59366 0.73831 0.0
C969 C 0.44298 0.57237 0.73862 0.0
C970 C 0.44862 0.60395 0.75392 0.0
C971 C 0.44085 0.59317 0.77012 0.0
C972 C 0.43452 0.57205 0.77054 0.0
H973 H 0.37924 0.58264 0.86568 0.0
H974 H 0.39758 0.58235 0.8383 0.0
C975 C 0.43562 0.56177 0.75497 0.0
C976 C 0.43734 0.60318 0.7862 0.0
H977 H 0.44443 0.60801 0.83229 0.0
C978 C 0.42277 0.61011 0.78457 0.0
C979 C 0.44613 0.60351 0.80348 0.0
C980 C 0.46288 0.59756 0.80589 0.0
C981 C 0.41538 0.61565 0.80001 0.0
C982 C 0.42291 0.61432 0.81739 0.0
C983 C 0.43862 0.60888 0.8189 0.0
C984 C 0.41239 0.61534 0.83413 0.0
C985 C 0.39846 0.62139 0.7978 0.0
C986 C 0.41472 0.63408 0.84085 0.0
C987 C 0.40421 0.63434 0.85663 0.0
C988 C 0.3912 0.61584 0.86582 0.0
C989 C 0.38904 0.59717 0.85896 0.0
C990 C 0.39958 0.59696 0.84333 0.0
H991 H 0.39351 0.62065 0.78335 0.0
H992 H 0.38431 0.61081 0.80575 0.0
H993 H 0.4045 0.6374 0.80321 0.0
H994 H 0.42466 0.64843 0.83392 0.0
H995 H 0.40622 0.64897 0.86159 0.0
H996 H 0.89641 0.47971 0.89522 0.0
H997 H 0.87745 0.46904 0.92384 0.0
H998 H 0.85351 0.40484 0.9089 0.0
H999 H 0.87225 0.41544 0.87997 0.0
H1000 H 0.82208 0.41392 0.92028 0.0
H1001 H 0.88951 0.44554 0.96953 0.0
H1002 H 0.89185 0.4642 0.95325 0.0
H1003 H 0.89236 0.44144 0.94568 0.0
C1004 C 0.88724 0.46333 0.89808 0.0
C1005 C 0.88579 0.44841 0.88535 0.0
C1006 C 0.87657 0.45726 0.91451 0.0
C1007 C 0.86429 0.43617 0.91858 0.0
C1008 C 0.86306 0.42121 0.90605 0.0
H1009 H 0.77724 0.38652 0.01115 0.0
H1010 H 0.7967 0.38781 0.98369 0.0
C1011 C 0.87385 0.42728 0.88961 0.0
C1012 C 0.85165 0.42994 0.93536 0.0
H1013 H 0.85592 0.43825 0.98134 0.0
C1014 C 0.82942 0.41887 0.93369 0.0
C1015 C 0.86131 0.43639 0.9528 0.0
C1016 C 0.88507 0.44737 0.95548 0.0
C1017 C 0.8166 0.41518 0.94894 0.0
C1018 C 0.82633 0.42254 0.96626 0.0
C1019 C 0.84852 0.43275 0.96801 0.0
C1020 C 0.81397 0.42132 0.98254 0.0
C1021 C 0.79284 0.40444 0.94629 0.0
C1022 C 0.81734 0.4397 0.99103 0.0
C1023 C 0.80635 0.43904 0.00666 0.0
C1024 C 0.79178 0.41994 0.01423 0.0
C1025 C 0.78825 0.40148 0.00561 0.0
C1026 C 0.79931 0.40217 0.9899 0.0
H1027 H 0.78812 0.40295 0.9317 0.0
H1028 H 0.78549 0.38863 0.95189 0.0
H1029 H 0.78635 0.41302 0.95369 0.0
H1030 H 0.82857 0.45463 0.98554 0.0
H1031 H 0.80949 0.45357 0.01292 0.0
H1032 H 0.45799 0.9153 0.07284 0.0
H1033 H 0.44787 0.89146 0.09814 0.0
H1034 H 0.46214 0.85123 0.06625 0.0
H1035 H 0.47188 0.8748 0.04072 0.0
H1036 H 0.42176 0.83116 0.0806 0.0
H1037 H 0.48156 0.87745 0.13425 0.0
H1038 H 0.46984 0.89117 0.12429 0.0
H1039 H 0.48554 0.88408 0.11052 0.0
C1040 C 0.45923 0.90151 0.0713 0.0
C1041 C 0.4657 0.89691 0.05479 0.0
C1042 C 0.45366 0.88802 0.08583 0.0
C1043 C 0.45453 0.86972 0.08414 0.0
C1044 C 0.46158 0.86538 0.06788 0.0
H1045 H 0.41283 0.78686 0.17813 0.0
H1046 H 0.43362 0.80492 0.15142 0.0
C1047 C 0.46724 0.87892 0.05335 0.0
C1048 C 0.44586 0.85418 0.09863 0.0
H1049 H 0.44856 0.84865 0.14438 0.0
C1050 C 0.42788 0.83482 0.09448 0.0
C1051 C 0.454 0.85886 0.11667 0.0
C1052 C 0.47393 0.87895 0.12169 0.0
C1053 C 0.417 0.82057 0.10814 0.0
C1054 C 0.42421 0.82592 0.12638 0.0
C1055 C 0.44299 0.84467 0.13037 0.0
C1056 C 0.41117 0.81349 0.14163 0.0
C1057 C 0.39744 0.80018 0.10307 0.0
C1058 C 0.39173 0.81236 0.14486 0.0
C1059 C 0.37999 0.80228 0.16006 0.0
C1060 C 0.38742 0.79307 0.17235 0.0
C1061 C 0.40664 0.79371 0.16884 0.0
C1062 C 0.41855 0.80404 0.15366 0.0
H1063 H 0.39747 0.79589 0.08853 0.0
H1064 H 0.39614 0.78751 0.11166 0.0
H1065 H 0.38317 0.80154 0.10524 0.0
H1066 H 0.38593 0.81982 0.13587 0.0
H1067 H 0.36524 0.80205 0.16235 0.0
H1068 H 0.5749 0.43975 0.21576 0.0
H1069 H 0.58849 0.43076 0.24247 0.0
H1070 H 0.5412 0.43331 0.27549 0.0
H1071 H 0.52703 0.44146 0.24857 0.0
H1072 H 0.60621 0.45232 0.2717 0.0
H1073 H 0.53483 0.38 0.29214 0.0
H1074 H 0.53635 0.39182 0.27058 0.0
H1075 H 0.52969 0.401 0.29087 0.0
C1076 C 0.56737 0.43828 0.22873 0.0
C1077 C 0.54996 0.44131 0.23017 0.0
C1078 C 0.57507 0.43307 0.24395 0.0
C1079 C 0.56565 0.43098 0.26096 0.0
C1080 C 0.54833 0.43417 0.26244 0.0
H1081 H 0.62964 0.45129 0.36361 0.0
H1082 H 0.61281 0.4524 0.33531 0.0
C1083 C 0.54037 0.43902 0.24711 0.0
C1084 C 0.57495 0.42691 0.27731 0.0
H1085 H 0.56278 0.3967 0.31475 0.0
C1086 C 0.59672 0.43998 0.28097 0.0
C1087 C 0.56271 0.41057 0.28928 0.0
C1088 C 0.53966 0.39492 0.28541 0.0
C1089 C 0.60643 0.43765 0.29653 0.0
C1090 C 0.59389 0.4223 0.30916 0.0
C1091 C 0.5723 0.40868 0.3052 0.0
C1092 C 0.60283 0.42084 0.32687 0.0
C1093 C 0.63009 0.45164 0.29918 0.0
C1094 C 0.60184 0.40235 0.33202 0.0
C1095 C 0.61118 0.40153 0.34847 0.0
C1096 C 0.62171 0.41924 0.35991 0.0
C1097 C 0.622 0.43747 0.35494 0.0
C1098 C 0.61247 0.43818 0.33871 0.0
H1099 H 0.63809 0.45723 0.28597 0.0
H1100 H 0.63324 0.46545 0.30752 0.0
H1101 H 0.63727 0.44358 0.30623 0.0
H1102 H 0.59426 0.38871 0.32315 0.0
H1103 H 0.61063 0.38725 0.35199 0.0
H1104 H 0.4406 0.87988 0.40958 0.0
H1105 H 0.42413 0.85702 0.38296 0.0
H1106 H 0.47286 0.90251 0.34903 0.0
H1107 H 0.48977 0.92516 0.3758 0.0
H1108 H 0.40711 0.86177 0.35333 0.0
H1109 H 0.47433 0.85165 0.33359 0.0
H1110 H 0.47392 0.86356 0.355 0.0
H1111 H 0.48162 0.87845 0.33457 0.0
C1112 C 0.44776 0.885 0.39642 0.0
C1113 C 0.46646 0.90426 0.39472 0.0
C1114 C 0.4384 0.8719 0.38124 0.0
C1115 C 0.44747 0.87784 0.36403 0.0
C1116 C 0.46593 0.89729 0.36224 0.0
H1117 H 0.38059 0.82817 0.26188 0.0
H1118 H 0.39783 0.84832 0.28953 0.0
C1119 C 0.47548 0.91029 0.37749 0.0
C1120 C 0.43712 0.86398 0.34791 0.0
H1121 H 0.44614 0.84057 0.3116 0.0
C1122 C 0.41562 0.85702 0.34429 0.0
C1123 C 0.44808 0.8574 0.3363 0.0
C1124 C 0.47069 0.86297 0.34016 0.0
C1125 C 0.40494 0.84413 0.32917 0.0
C1126 C 0.41624 0.83859 0.31696 0.0
C1127 C 0.43757 0.84506 0.32083 0.0
C1128 C 0.40631 0.82648 0.29992 0.0
C1129 C 0.38156 0.83636 0.32662 0.0
C1130 C 0.40614 0.8079 0.29614 0.0
C1131 C 0.39659 0.79647 0.2801 0.0
C1132 C 0.38698 0.80341 0.26762 0.0
C1133 C 0.38756 0.82222 0.27132 0.0
C1134 C 0.3973 0.83371 0.2872 0.0
H1135 H 0.37404 0.83618 0.33975 0.0
H1136 H 0.37947 0.8469 0.31747 0.0
H1137 H 0.37307 0.82048 0.32047 0.0
H1138 H 0.41318 0.80212 0.3057 0.0
H1139 H 0.39647 0.78208 0.27761 0.0
H1140 H 0.5419 0.44035 0.58152 0.0
H1141 H 0.55058 0.42717 0.55423 0.0
H1142 H 0.60203 0.48875 0.54359 0.0
H1143 H 0.59317 0.50219 0.57065 0.0
H1144 H 0.5753 0.46601 0.51252 0.0
H1145 H 0.60382 0.42083 0.5509 0.0
H1146 H 0.57777 0.41617 0.5561 0.0
H1147 H 0.60059 0.44098 0.56157 0.0
C1148 C 0.55485 0.45116 0.57321 0.0
C1149 C 0.56688 0.47233 0.57824 0.0
C1150 C 0.55992 0.44354 0.55776 0.0
C1151 C 0.57712 0.45695 0.5471 0.0
C1152 C 0.58878 0.47816 0.55175 0.0
H1153 H 0.65022 0.46085 0.45731 0.0
H1154 H 0.63294 0.46598 0.48337 0.0
C1155 C 0.58376 0.48579 0.56723 0.0
C1156 C 0.58323 0.44894 0.53116 0.0
H1157 H 0.60566 0.4201 0.51896 0.0
C1158 C 0.58178 0.45584 0.51389 0.0
C1159 C 0.59148 0.43553 0.53304 0.0
C1160 C 0.59369 0.42799 0.55138 0.0
C1161 C 0.58887 0.45008 0.49844 0.0
C1162 C 0.598 0.43742 0.50041 0.0
C1163 C 0.59866 0.42981 0.51756 0.0
C1164 C 0.60873 0.43365 0.48512 0.0
C1165 C 0.58682 0.45782 0.48014 0.0
C1166 C 0.60128 0.41358 0.47792 0.0
C1167 C 0.61122 0.41051 0.46294 0.0
C1168 C 0.62881 0.4275 0.45509 0.0
C1169 C 0.6366 0.44743 0.46287 0.0
C1170 C 0.62669 0.45044 0.47773 0.0
H1171 H 0.57426 0.46204 0.48008 0.0
H1172 H 0.60207 0.4719 0.47693 0.0
H1173 H 0.58313 0.44596 0.46924 0.0
H1174 H 0.58753 0.40041 0.48361 0.0
H1175 H 0.60486 0.39497 0.45729 0.0
H1176 H 0.1526 0.60636 0.75188 0.0
H1177 H 0.17589 0.6175 0.7258 0.0
H1178 H 0.13093 0.56226 0.69574 0.0
H1179 H 0.10694 0.55143 0.7216 0.0
H1180 H 0.19545 0.60042 0.70652 0.0
H1181 H 0.13748 0.60811 0.66274 0.0
H1182 H 0.13399 0.60406 0.68686 0.0
H1183 H 0.12813 0.58273 0.67159 0.0
C1184 C 0.14751 0.59664 0.73968 0.0
C1185 C 0.12766 0.57822 0.7387 0.0
C1186 C 0.16099 0.60292 0.72484 0.0
C1187 C 0.15501 0.59091 0.70871 0.0
C1188 C 0.13568 0.57199 0.70794 0.0
H1189 H 0.243 0.6275 0.6168 0.0
H1190 H 0.22122 0.60833 0.64259 0.0
C1191 C 0.12207 0.56572 0.72279 0.0
C1192 C 0.16868 0.59893 0.69257 0.0
H1193 H 0.17023 0.61691 0.64991 0.0
C1194 C 0.18993 0.60387 0.69406 0.0
C1195 C 0.16145 0.6036 0.67642 0.0
C1196 C 0.13909 0.59954 0.67427 0.0
C1197 C 0.2043 0.61385 0.68 0.0
C1198 C 0.19708 0.61868 0.66394 0.0
C1199 C 0.1757 0.61317 0.66225 0.0
C1200 C 0.2116 0.63071 0.64915 0.0
C1201 C 0.22723 0.61994 0.68279 0.0
C1202 C 0.21342 0.64961 0.64427 0.0
C1203 C 0.22563 0.66045 0.62949 0.0
C1204 C 0.23635 0.65264 0.61926 0.0
C1205 C 0.23508 0.63401 0.6245 0.0
C1206 C 0.22268 0.62306 0.63926 0.0
H1207 H 0.2311 0.61925 0.6973 0.0
H1208 H 0.23044 0.60911 0.67483 0.0
H1209 H 0.23796 0.63588 0.67795 0.0
H1210 H 0.20506 0.65583 0.65174 0.0
H1211 H 0.22632 0.67477 0.62587 0.0
H1212 H 0.54119 0.10614 0.8932 0.0
H1213 H 0.55024 0.12657 0.86555 0.0
H1214 H 0.60877 0.17348 0.891 0.0
H1215 H 0.59975 0.15326 0.91876 0.0
H1216 H 0.58228 0.18793 0.87546 0.0
H1217 H 0.59677 0.13868 0.82714 0.0
H1218 H 0.57272 0.12515 0.83979 0.0
H1219 H 0.59791 0.13671 0.85155 0.0
C1220 C 0.55607 0.12072 0.89283 0.0
C1221 C 0.56978 0.12809 0.90812 0.0
C1222 C 0.56129 0.13227 0.87701 0.0
C1223 C 0.58027 0.15139 0.87622 0.0
C1224 C 0.59414 0.15866 0.89133 0.0
H1225 H 0.6232 0.23006 0.78028 0.0
H1226 H 0.62331 0.21238 0.8081 0.0
C1227 C 0.58902 0.14704 0.90712 0.0
C1228 C 0.58479 0.16449 0.86013 0.0
H1229 H 0.59255 0.16557 0.81435 0.0
C1230 C 0.58479 0.18319 0.86214 0.0
C1231 C 0.58819 0.15828 0.84282 0.0
C1232 C 0.5891 0.1387 0.84013 0.0
C1233 C 0.58723 0.19546 0.8471 0.0
C1234 C 0.5897 0.1888 0.82969 0.0
C1235 C 0.59057 0.17054 0.82776 0.0
C1236 C 0.58995 0.19989 0.81319 0.0
C1237 C 0.58674 0.21527 0.8498 0.0
C1238 C 0.57115 0.19857 0.80694 0.0
C1239 C 0.57097 0.20846 0.79107 0.0
C1240 C 0.58966 0.21995 0.7812 0.0
C1241 C 0.60857 0.22141 0.78762 0.0
C1242 C 0.60867 0.2113 0.80345 0.0
H1243 H 0.5888 0.22026 0.86435 0.0
H1244 H 0.59938 0.22793 0.84183 0.0
H1245 H 0.57123 0.21281 0.84483 0.0
H1246 H 0.55653 0.18969 0.81426 0.0
H1247 H 0.55614 0.20704 0.78653 0.0
H1248 H 0.42985 0.55088 0.07409 0.0
H1249 H 0.42516 0.56563 0.04625 0.0
H1250 H 0.47065 0.62715 0.06625 0.0
H1251 H 0.47537 0.61239 0.09434 0.0
H1252 H 0.43039 0.62141 0.05384 0.0
H1253 H 0.46544 0.59253 0.00307 0.0
H1254 H 0.44763 0.5727 0.01803 0.0
H1255 H 0.47166 0.59449 0.02712 0.0
C1256 C 0.43901 0.56753 0.07248 0.0
C1257 C 0.45293 0.58051 0.08635 0.0
C1258 C 0.43645 0.57592 0.05653 0.0
C1259 C 0.44775 0.59744 0.05413 0.0
C1260 C 0.46195 0.61048 0.06781 0.0
H1261 H 0.41063 0.64948 0.9627 0.0
H1262 H 0.43101 0.64955 0.98948 0.0
C1263 C 0.46468 0.60205 0.08377 0.0
C1264 C 0.44323 0.60606 0.03789 0.0
H1265 H 0.43942 0.6006 0.99168 0.0
C1266 C 0.43283 0.61739 0.04019 0.0
C1267 C 0.44657 0.60084 0.02016 0.0
C1268 C 0.45863 0.58965 0.0169 0.0
C1269 C 0.4241 0.62213 0.02523 0.0
C1270 C 0.42609 0.61552 0.00762 0.0
C1271 C 0.43782 0.60552 0.00524 0.0
C1272 C 0.41375 0.61617 0.99188 0.0
C1273 C 0.41155 0.63284 0.02842 0.0
C1274 C 0.39737 0.59742 0.98448 0.0
C1275 C 0.3858 0.59731 0.96931 0.0
C1276 C 0.3904 0.61598 0.96112 0.0
C1277 C 0.40664 0.63485 0.96873 0.0
C1278 C 0.41828 0.63493 0.98401 0.0
H1279 H 0.40988 0.63525 0.04312 0.0
H1280 H 0.4196 0.64819 0.02191 0.0
H1281 H 0.39547 0.62359 0.0221 0.0
H1282 H 0.3936 0.58279 0.99042 0.0
H1283 H 0.37339 0.58249 0.96388 0.0
H1284 H 0.89011 0.39867 0.2277 0.0
H1285 H 0.86955 0.39347 0.19959 0.0
H1286 H 0.87196 0.45161 0.20957 0.0
H1287 H 0.89172 0.45665 0.23788 0.0
H1288 H 0.82814 0.39542 0.19754 0.0
H1289 H 0.89479 0.45232 0.15577 0.0
H1290 H 0.8988 0.44006 0.17518 0.0
H1291 H 0.89324 0.46068 0.17851 0.0
C1292 C 0.88618 0.41031 0.22398 0.0
C1293 C 0.89274 0.42816 0.23504 0.0
C1294 C 0.87453 0.40734 0.20788 0.0
C1295 C 0.86947 0.42226 0.20251 0.0
C1296 C 0.876 0.44007 0.21342 0.0
H1297 H 0.80824 0.44884 0.11679 0.0
H1298 H 0.82831 0.44806 0.14311 0.0
C1299 C 0.88745 0.44298 0.22954 0.0
C1300 C 0.85689 0.41919 0.18573 0.0
H1301 H 0.86003 0.43925 0.14379 0.0
C1302 C 0.83507 0.40476 0.18565 0.0
C1303 C 0.86607 0.43153 0.17039 0.0
C1304 C 0.88954 0.44695 0.16979 0.0
C1305 C 0.82195 0.40296 0.17083 0.0
C1306 C 0.83107 0.41561 0.15557 0.0
C1307 C 0.85305 0.4296 0.1555 0.0
C1308 C 0.81809 0.41547 0.13991 0.0
C1309 C 0.79835 0.38824 0.172 0.0
C1310 C 0.80561 0.39737 0.12936 0.0
C1311 C 0.7939 0.39771 0.11434 0.0
C1312 C 0.79473 0.41624 0.10949 0.0
C1313 C 0.80726 0.43431 0.12011 0.0
C1314 C 0.81877 0.43391 0.13516 0.0
H1315 H 0.7934 0.38361 0.18622 0.0
H1316 H 0.78934 0.39533 0.16649 0.0
H1317 H 0.79395 0.37397 0.16382 0.0
H1318 H 0.80519 0.38307 0.13253 0.0
H1319 H 0.78455 0.38357 0.10634 0.0
loop_
_geom_bond_atom_site_label_1
_geom_bond_atom_site_label_2
_geom_bond_distance
_geom_bond_site_symmetry_2
_ccdc_geom_bond_type
H0 C27 0.929 . S
N1 C26 1.433 . S
N1 C32 1.435 . S
N1 C38 1.423 . S
H2 C28 0.930 . S
H3 C31 0.931 . S
H4 C30 0.929 . S
H5 C33 0.930 . S
H6 C34 0.932 . S
H7 C37 0.929 . S
H8 C36 0.931 . S
H9 C39 0.929 . S
H10 C43 0.932 . S
H11 C40 0.931 . S
H12 C42 0.929 . S
H13 C45 0.929 . S
H14 C46 0.930 . S
H15 C48 0.929 . S
H16 C49 0.931 . S
H17 C51 0.930 . S
H18 C52 0.932 . S
H19 C54 0.931 . S
H20 C55 0.929 . S
H21 C57 0.929 . S
H22 C58 0.931 . S
H23 C60 0.929 . S
N24 C44 1.433 . S
N24 C50 1.435 . S
N24 C56 1.423 . S
H25 C61 0.932 . S
C26 N1 1.433 . S
C26 C27 1.363 . S
C26 C31 1.370 . S
C27 H0 0.929 . S
C27 C26 1.363 . S
C27 C28 1.385 . S
C28 H2 0.930 . S
C28 C27 1.385 . S
C28 C29 1.357 . S
C29 C28 1.357 . S
C29 C30 1.406 . S
C30 H4 0.929 . S
C30 C29 1.406 . S
C30 C31 1.391 . S
C31 H3 0.931 . S
C31 C26 1.370 . S
C31 C30 1.391 . S
C32 N1 1.435 . S
C32 C33 1.358 . S
C32 C37 1.371 . S
C33 H5 0.930 . S
C33 C32 1.358 . S
C33 C34 1.405 . S
C34 H6 0.932 . S
C34 C33 1.405 . S
C34 C35 1.383 . S
C35 C34 1.383 . S
C35 C36 1.393 . S
C36 H8 0.931 . S
C36 C35 1.393 . S
C36 C37 1.382 . S
C37 H7 0.929 . S
C37 C32 1.371 . S
C37 C36 1.382 . S
C38 N1 1.423 . S
C38 C39 1.362 . S
C38 C43 1.388 . S
C39 H9 0.929 . S
C39 C38 1.362 . S
C39 C40 1.376 . S
C40 H11 0.931 . S
C40 C39 1.376 . S
C40 C41 1.396 . S
C41 C40 1.396 . S
C41 C42 1.348 . S
C41 C59 1.472 1_455 S
C42 H12 0.929 . S
C42 C41 1.348 . S
C42 C43 1.443 . S
C43 H10 0.932 . S
C43 C38 1.388 . S
C43 C42 1.443 . S
C44 N24 1.433 . S
C44 C45 1.363 . S
C44 C49 1.370 . S
C45 H13 0.929 . S
C45 C44 1.363 . S
C45 C46 1.385 . S
C46 H14 0.930 . S
C46 C45 1.385 . S
C46 C47 1.357 . S
C47 C46 1.357 . S
C47 C48 1.406 . S
C48 H15 0.929 . S
C48 C47 1.406 . S
C48 C49 1.391 . S
C49 H16 0.931 . S
C49 C44 1.370 . S
C49 C48 1.391 . S
C50 N24 1.435 . S
C50 C51 1.358 . S
C50 C55 1.371 . S
C51 H17 0.930 . S
C51 C50 1.358 . S
C51 C52 1.405 . S
C52 H18 0.932 . S
C52 C51 1.405 . S
C52 C53 1.383 . S
C53 C52 1.383 . S
C53 C54 1.393 . S
C54 H19 0.931 . S
C54 C53 1.393 . S
C54 C55 1.382 . S
C55 H20 0.929 . S
C55 C50 1.371 . S
C55 C54 1.382 . S
C56 N24 1.423 . S
C56 C57 1.362 . S
C56 C61 1.388 . S
C57 H21 0.929 . S
C57 C56 1.362 . S
C57 C58 1.376 . S
C58 H22 0.931 . S
C58 C57 1.376 . S
C58 C59 1.396 . S
C59 C41 1.472 1_655 S
C59 C58 1.396 . S
C59 C60 1.348 . S
C60 H23 0.929 . S
C60 C59 1.348 . S
C60 C61 1.443 . S
C61 H25 0.932 . S
C61 C56 1.388 . S
C61 C60 1.443 . S
H62 C89 0.929 . S
N63 C88 1.433 . S
N63 C94 1.435 . S
N63 C100 1.423 . S
H64 C90 0.930 . S
H65 C93 0.931 . S
H66 C92 0.929 . S
H67 C95 0.930 . S
H68 C96 0.932 . S
H69 C99 0.929 . S
H70 C98 0.931 . S
H71 C101 0.929 . S
H72 C105 0.932 . S
H73 C102 0.931 . S
H74 C104 0.929 1_545 S
H75 C107 0.929 . S
H76 C108 0.930 . S
H77 C110 0.929 . S
H78 C111 0.931 . S
H79 C113 0.930 . S
H80 C114 0.932 . S
H81 C116 0.931 . S
H82 C117 0.929 . S
H83 C119 0.929 . S
H84 C120 0.931 . S
H85 C122 0.929 . S
N86 C106 1.433 . S
N86 C112 1.435 . S
N86 C118 1.423 . S
H87 C123 0.932 . S
C88 N63 1.433 . S
C88 C89 1.363 . S
C88 C93 1.370 . S
C89 H62 0.929 . S
C89 C88 1.363 . S
C89 C90 1.385 . S
C90 H64 0.930 . S
C90 C89 1.385 . S
C90 C91 1.357 . S
C91 C90 1.357 . S
C91 C92 1.406 . S
C92 H66 0.929 . S
C92 C91 1.406 . S
C92 C93 1.391 . S
C93 H65 0.931 . S
C93 C88 1.370 . S
C93 C92 1.391 . S
C94 N63 1.435 . S
C94 C95 1.358 . S
C94 C99 1.371 . S
C95 H67 0.930 . S
C95 C94 1.358 . S
C95 C96 1.405 . S
C96 H68 0.932 . S
C96 C95 1.405 . S
C96 C97 1.383 . S
C97 C96 1.383 . S
C97 C98 1.393 . S
C98 H70 0.931 . S
C98 C97 1.393 . S
C98 C99 1.382 . S
C99 H69 0.929 . S
C99 C94 1.371 . S
C99 C98 1.382 . S
C100 N63 1.423 . S
C100 C101 1.362 . S
C100 C105 1.388 . S
C101 H71 0.929 . S
C101 C100 1.362 . S
C101 C102 1.376 . S
C102 H73 0.931 . S
C102 C101 1.376 . S
C102 C103 1.396 1_565 S
C103 C102 1.396 1_545 S
C103 C104 1.348 1_545 S
C103 C121 1.472 . S
C104 H74 0.929 1_565 S
C104 C103 1.348 1_565 S
C104 C105 1.443 . S
C105 H72 0.932 . S
C105 C100 1.388 . S
C105 C104 1.443 . S
C106 N86 1.433 . S
C106 C107 1.363 . S
C106 C111 1.370 . S
C107 H75 0.929 . S
C107 C106 1.363 . S
C107 C108 1.385 . S
C108 H76 0.930 . S
C108 C107 1.385 . S
C108 C109 1.357 . S
C109 C108 1.357 . S
C109 C110 1.406 . S
C110 H77 0.929 . S
C110 C109 1.406 . S
C110 C111 1.391 . S
C111 H78 0.931 . S
C111 C106 1.370 . S
C111 C110 1.391 . S
C112 N86 1.435 . S
C112 C113 1.358 . S
C112 C117 1.371 . S
C113 H79 0.930 . S
C113 C112 1.358 . S
C113 C114 1.405 . S
C114 H80 0.932 . S
C114 C113 1.405 . S
C114 C115 1.383 . S
C115 C114 1.383 . S
C115 C116 1.393 . S
C116 H81 0.931 . S
C116 C115 1.393 . S
C116 C117 1.382 . S
C117 H82 0.929 . S
C117 C112 1.371 . S
C117 C116 1.382 . S
C118 N86 1.423 . S
C118 C119 1.362 . S
C118 C123 1.388 . S
C119 H83 0.929 . S
C119 C118 1.362 . S
C119 C120 1.376 . S
C120 H84 0.931 . S
C120 C119 1.376 . S
C120 C121 1.396 . S
C121 C103 1.472 . S
C121 C120 1.396 . S
C121 C122 1.348 . S
C122 H85 0.929 . S
C122 C121 1.348 . S
C122 C123 1.443 . S
C123 H87 0.932 . S
C123 C118 1.388 . S
C123 C122 1.443 . S
H124 C151 0.929 . S
N125 C150 1.433 . S
N125 C156 1.435 . S
N125 C162 1.423 . S
H126 C152 0.930 . S
H127 C155 0.931 . S
H128 C154 0.929 . S
H129 C157 0.930 . S
H130 C158 0.932 . S
H131 C161 0.929 . S
H132 C160 0.931 . S
H133 C163 0.929 . S
H134 C167 0.932 . S
H135 C164 0.931 . S
H136 C166 0.929 . S
H137 C169 0.929 . S
H138 C170 0.930 . S
H139 C172 0.929 . S
H140 C173 0.931 . S
H141 C175 0.930 . S
H142 C176 0.932 . S
H143 C178 0.931 . S
H144 C179 0.929 . S
H145 C181 0.929 . S
H146 C182 0.931 . S
H147 C184 0.929 . S
N148 C168 1.433 . S
N148 C174 1.435 . S
N148 C180 1.423 . S
H149 C185 0.932 . S
C150 N125 1.433 . S
C150 C151 1.363 . S
C150 C155 1.370 . S
C151 H124 0.929 . S
C151 C150 1.363 . S
C151 C152 1.385 . S
C152 H126 0.930 . S
C152 C151 1.385 . S
C152 C153 1.357 . S
C153 C152 1.357 . S
C153 C154 1.406 . S
C154 H128 0.929 . S
C154 C153 1.406 . S
C154 C155 1.391 . S
C155 H127 0.931 . S
C155 C150 1.370 . S
C155 C154 1.391 . S
C156 N125 1.435 . S
C156 C157 1.358 . S
C156 C161 1.371 . S
C157 H129 0.930 . S
C157 C156 1.358 . S
C157 C158 1.405 . S
C158 H130 0.932 . S
C158 C157 1.405 . S
C158 C159 1.383 . S
C159 C158 1.383 . S
C159 C160 1.393 . S
C160 H132 0.931 . S
C160 C159 1.393 . S
C160 C161 1.382 . S
C161 H131 0.929 . S
C161 C156 1.371 . S
C161 C160 1.382 . S
C162 N125 1.423 . S
C162 C163 1.362 . S
C162 C167 1.388 . S
C163 H133 0.929 . S
C163 C162 1.362 . S
C163 C164 1.376 . S
C164 H135 0.931 . S
C164 C163 1.376 . S
C164 C165 1.396 . S
C165 C164 1.396 . S
C165 C166 1.348 . S
C165 C183 1.472 . S
C166 H136 0.929 . S
C166 C165 1.348 . S
C166 C167 1.443 . S
C167 H134 0.932 . S
C167 C162 1.388 . S
C167 C166 1.443 . S
C168 N148 1.433 . S
C168 C169 1.363 . S
C168 C173 1.370 . S
C169 H137 0.929 . S
C169 C168 1.363 . S
C169 C170 1.385 . S
C170 H138 0.930 . S
C170 C169 1.385 . S
C170 C171 1.357 . S
C171 C170 1.357 . S
C171 C172 1.406 . S
C172 H139 0.929 . S
C172 C171 1.406 . S
C172 C173 1.391 . S
C173 H140 0.931 . S
C173 C168 1.370 . S
C173 C172 1.391 . S
C174 N148 1.435 . S
C174 C175 1.358 . S
C174 C179 1.371 . S
C175 H141 0.930 . S
C175 C174 1.358 . S
C175 C176 1.405 . S
C176 H142 0.932 . S
C176 C175 1.405 . S
C176 C177 1.383 . S
C177 C176 1.383 . S
C177 C178 1.393 . S
C178 H143 0.931 . S
C178 C177 1.393 . S
C178 C179 1.382 . S
C179 H144 0.929 . S
C179 C174 1.371 . S
C179 C178 1.382 . S
C180 N148 1.423 . S
C180 C181 1.362 . S
C180 C185 1.388 . S
C181 H145 0.929 . S
C181 C180 1.362 . S
C181 C182 1.376 . S
C182 H146 0.931 . S
C182 C181 1.376 . S
C182 C183 1.396 . S
C183 C165 1.472 . S
C183 C182 1.396 . S
C183 C184 1.348 . S
C184 H147 0.929 . S
C184 C183 1.348 . S
C184 C185 1.443 . S
C185 H149 0.932 . S
C185 C180 1.388 . S
C185 C184 1.443 . S
H186 C213 0.929 . S
N187 C212 1.433 . S
N187 C218 1.435 . S
N187 C224 1.423 . S
H188 C214 0.930 . S
H189 C217 0.931 . S
H190 C216 0.929 . S
H191 C219 0.930 . S
H192 C220 0.932 . S
H193 C223 0.929 . S
H194 C222 0.931 . S
H195 C225 0.929 . S
H196 C229 0.932 . S
H197 C226 0.931 . S
H198 C228 0.929 . S
H199 C231 0.929 . S
H200 C232 0.930 . S
H201 C234 0.929 . S
H202 C235 0.931 . S
H203 C237 0.930 . S
H204 C238 0.932 . S
H205 C240 0.931 . S
H206 C241 0.929 . S
H207 C243 0.929 . S
H208 C244 0.931 . S
H209 C246 0.929 . S
N210 C230 1.433 . S
N210 C236 1.435 . S
N210 C242 1.423 . S
H211 C247 0.932 . S
C212 N187 1.433 . S
C212 C213 1.363 . S
C212 C217 1.370 . S
C213 H186 0.929 . S
C213 C212 1.363 . S
C213 C214 1.385 . S
C214 H188 0.930 . S
C214 C213 1.385 . S
C214 C215 1.357 . S
C215 C214 1.357 . S
C215 C216 1.406 . S
C216 H190 0.929 . S
C216 C215 1.406 . S
C216 C217 1.391 . S
C217 H189 0.931 . S
C217 C212 1.370 . S
C217 C216 1.391 . S
C218 N187 1.435 . S
C218 C219 1.358 . S
C218 C223 1.371 . S
C219 H191 0.930 . S
C219 C218 1.358 . S
C219 C220 1.405 . S
C220 H192 0.932 . S
C220 C219 1.405 . S
C220 C221 1.383 . S
C221 C220 1.383 . S
C221 C222 1.393 . S
C222 H194 0.931 . S
C222 C221 1.393 . S
C222 C223 1.382 . S
C223 H193 0.929 . S
C223 C218 1.371 . S
C223 C222 1.382 . S
C224 N187 1.423 . S
C224 C225 1.362 . S
C224 C229 1.388 . S
C225 H195 0.929 . S
C225 C224 1.362 . S
C225 C226 1.376 . S
C226 H197 0.931 . S
C226 C225 1.376 . S
C226 C227 1.396 . S
C227 C226 1.396 . S
C227 C228 1.348 . S
C227 C245 1.472 1_455 S
C228 H198 0.929 . S
C228 C227 1.348 . S
C228 C229 1.443 . S
C229 H196 0.932 . S
C229 C224 1.388 . S
C229 C228 1.443 . S
C230 N210 1.433 . S
C230 C231 1.363 . S
C230 C235 1.370 . S
C231 H199 0.929 . S
C231 C230 1.363 . S
C231 C232 1.385 . S
C232 H200 0.930 . S
C232 C231 1.385 . S
C232 C233 1.357 . S
C233 C232 1.357 . S
C233 C234 1.406 . S
C234 H201 0.929 . S
C234 C233 1.406 . S
C234 C235 1.391 . S
C235 H202 0.931 . S
C235 C230 1.370 . S
C235 C234 1.391 . S
C236 N210 1.435 . S
C236 C237 1.358 . S
C236 C241 1.371 . S
C237 H203 0.930 . S
C237 C236 1.358 . S
C237 C238 1.405 . S
C238 H204 0.932 . S
C238 C237 1.405 . S
C238 C239 1.383 . S
C239 C238 1.383 . S
C239 C240 1.393 . S
C240 H205 0.931 . S
C240 C239 1.393 . S
C240 C241 1.382 . S
C241 H206 0.929 . S
C241 C236 1.371 . S
C241 C240 1.382 . S
C242 N210 1.423 . S
C242 C243 1.362 . S
C242 C247 1.388 . S
C243 H207 0.929 . S
C243 C242 1.362 . S
C243 C244 1.376 . S
C244 H208 0.931 . S
C244 C243 1.376 . S
C244 C245 1.396 . S
C245 C227 1.472 1_655 S
C245 C244 1.396 . S
C245 C246 1.348 . S
C246 H209 0.929 . S
C246 C245 1.348 . S
C246 C247 1.443 . S
C247 H211 0.932 . S
C247 C242 1.388 . S
C247 C246 1.443 . S
H248 C275 0.929 . S
N249 C274 1.433 . S
N249 C280 1.435 . S
N249 C286 1.423 . S
H250 C276 0.930 . S
H251 C279 0.931 . S
H252 C278 0.929 . S
H253 C281 0.930 . S
H254 C282 0.932 . S
H255 C285 0.929 . S
H256 C284 0.931 . S
H257 C287 0.929 . S
H258 C291 0.932 . S
H259 C288 0.931 . S
H260 C290 0.929 . S
H261 C293 0.929 . S
H262 C294 0.930 . S
H263 C296 0.929 . S
H264 C297 0.931 . S
H265 C299 0.930 1_554 S
H266 C300 0.932 . S
H267 C302 0.931 . S
H268 C303 0.929 . S
H269 C305 0.929 . S
H270 C306 0.952 1_554 S
H271 C308 0.929 . S
N272 C292 1.433 . S
N272 C298 1.435 1_554 S
N272 C304 1.423 1_554 S
H273 C309 0.932 . S
C274 N249 1.433 . S
C274 C275 1.363 . S
C274 C279 1.370 . S
C275 H248 0.929 . S
C275 C274 1.363 . S
C275 C276 1.385 . S
C276 H250 0.930 . S
C276 C275 1.385 . S
C276 C277 1.357 1_556 S
C277 C276 1.357 1_554 S
C277 C278 1.406 . S
C278 H252 0.929 . S
C278 C277 1.406 . S
C278 C279 1.391 1_554 S
C279 H251 0.931 . S
C279 C274 1.370 . S
C279 C278 1.391 1_556 S
C280 N249 1.435 . S
C280 C281 1.358 . S
C280 C285 1.371 . S
C281 H253 0.930 . S
C281 C280 1.358 . S
C281 C282 1.405 . S
C282 H254 0.932 . S
C282 C281 1.405 . S
C282 C283 1.383 . S
C283 C282 1.383 . S
C283 C284 1.393 . S
C284 H256 0.931 . S
C284 C283 1.393 . S
C284 C285 1.382 . S
C285 H255 0.929 . S
C285 C280 1.371 . S
C285 C284 1.382 . S
C286 N249 1.423 . S
C286 C287 1.362 . S
C286 C291 1.388 . S
C287 H257 0.929 . S
C287 C286 1.362 . S
C287 C288 1.376 . S
C288 H259 0.931 . S
C288 C287 1.376 . S
C288 C289 1.396 . S
C289 C288 1.396 . S
C289 C290 1.348 . S
C289 C307 1.472 1_545 S
C290 H260 0.929 . S
C290 C289 1.348 . S
C290 C291 1.443 . S
C291 H258 0.932 . S
C291 C286 1.388 . S
C291 C290 1.443 . S
C292 N272 1.433 . S
C292 C293 1.363 . S
C292 C297 1.370 . S
C293 H261 0.929 . S
C293 C292 1.363 . S
C293 C294 1.385 . S
C294 H262 0.930 . S
C294 C293 1.385 . S
C294 C295 1.357 . S
C295 C294 1.357 . S
C295 C296 1.406 . S
C296 H263 0.929 . S
C296 C295 1.406 . S
C296 C297 1.391 . S
C297 H264 0.931 . S
C297 C292 1.370 . S
C297 C296 1.391 . S
C298 N272 1.435 1_556 S
C298 C299 1.358 . S
C298 C303 1.371 . S
C299 H265 0.930 1_556 S
C299 C298 1.358 . S
C299 C300 1.405 . S
C300 H266 0.932 . S
C300 C299 1.405 . S
C300 C301 1.383 . S
C301 C300 1.383 . S
C301 C302 1.393 . S
C302 H267 0.931 . S
C302 C301 1.393 . S
C302 C303 1.382 . S
C303 H268 0.929 . S
C303 C298 1.371 . S
C303 C302 1.382 . S
C304 N272 1.423 1_556 S
C304 C305 1.362 1_556 S
C304 C309 1.388 . S
C305 H269 0.929 . S
C305 C304 1.362 1_554 S
C305 C306 1.376 1_554 S
C306 H270 0.952 1_556 S
C306 C305 1.376 1_556 S
C306 C307 1.396 . S
C307 C289 1.472 1_565 S
C307 C306 1.396 . S
C307 C308 1.348 . S
C308 H271 0.929 . S
C308 C307 1.348 . S
C308 C309 1.443 . S
C309 H273 0.932 . S
C309 C304 1.388 . S
C309 C308 1.443 . S
H310 C337 0.929 . S
N311 C336 1.433 . S
N311 C342 1.435 . S
N311 C348 1.423 . S
H312 C338 0.930 . S
H313 C341 0.931 . S
H314 C340 0.929 . S
H315 C343 0.930 . S
H316 C344 0.932 . S
H317 C347 0.929 . S
H318 C346 0.931 . S
H319 C349 0.929 . S
H320 C353 0.932 . S
H321 C350 0.931 . S
H322 C352 0.929 . S
H323 C355 0.929 . S
H324 C356 0.930 . S
H325 C358 0.929 . S
H326 C359 0.931 . S
H327 C361 0.930 . S
H328 C362 0.932 . S
H329 C364 0.931 . S
H330 C365 0.929 . S
H331 C367 0.929 . S
H332 C368 0.931 . S
H333 C370 0.929 . S
N334 C354 1.433 . S
N334 C360 1.435 . S
N334 C366 1.423 . S
H335 C371 0.932 . S
C336 N311 1.433 . S
C336 C337 1.363 . S
C336 C341 1.370 . S
C337 H310 0.929 . S
C337 C336 1.363 . S
C337 C338 1.385 . S
C338 H312 0.930 . S
C338 C337 1.385 . S
C338 C339 1.357 . S
C339 C338 1.357 . S
C339 C340 1.406 . S
C340 H314 0.929 . S
C340 C339 1.406 . S
C340 C341 1.391 . S
C341 H313 0.931 . S
C341 C336 1.370 . S
C341 C340 1.391 . S
C342 N311 1.435 . S
C342 C343 1.358 . S
C342 C347 1.371 . S
C343 H315 0.930 . S
C343 C342 1.358 . S
C343 C344 1.405 . S
C344 H316 0.932 . S
C344 C343 1.405 . S
C344 C345 1.383 . S
C345 C344 1.383 . S
C345 C346 1.393 . S
C346 H318 0.931 . S
C346 C345 1.393 . S
C346 C347 1.382 . S
C347 H317 0.929 . S
C347 C342 1.371 . S
C347 C346 1.382 . S
C348 N311 1.423 . S
C348 C349 1.362 . S
C348 C353 1.388 . S
C349 H319 0.929 . S
C349 C348 1.362 . S
C349 C350 1.376 . S
C350 H321 0.931 . S
C350 C349 1.376 . S
C350 C351 1.396 . S
C351 C350 1.396 . S
C351 C352 1.348 . S
C351 C369 1.472 . S
C352 H322 0.929 . S
C352 C351 1.348 . S
C352 C353 1.443 . S
C353 H320 0.932 . S
C353 C348 1.388 . S
C353 C352 1.443 . S
C354 N334 1.433 . S
C354 C355 1.363 . S
C354 C359 1.370 . S
C355 H323 0.929 . S
C355 C354 1.363 . S
C355 C356 1.385 . S
C356 H324 0.930 . S
C356 C355 1.385 . S
C356 C357 1.357 . S
C357 C356 1.357 . S
C357 C358 1.406 . S
C358 H325 0.929 . S
C358 C357 1.406 . S
C358 C359 1.391 . S
C359 H326 0.931 . S
C359 C354 1.370 . S
C359 C358 1.391 . S
C360 N334 1.435 . S
C360 C361 1.358 . S
C360 C365 1.371 . S
C361 H327 0.930 . S
C361 C360 1.358 . S
C361 C362 1.405 . S
C362 H328 0.932 . S
C362 C361 1.405 . S
C362 C363 1.383 . S
C363 C362 1.383 . S
C363 C364 1.393 . S
C364 H329 0.931 . S
C364 C363 1.393 . S
C364 C365 1.382 . S
C365 H330 0.929 . S
C365 C360 1.371 . S
C365 C364 1.382 . S
C366 N334 1.423 . S
C366 C367 1.362 . S
C366 C371 1.388 . S
C367 H331 0.929 . S
C367 C366 1.362 . S
C367 C368 1.376 . S
C368 H332 0.931 . S
C368 C367 1.376 . S
C368 C369 1.396 . S
C369 C351 1.472 . S
C369 C368 1.396 . S
C369 C370 1.348 . S
C370 H333 0.929 . S
C370 C369 1.348 . S
C370 C371 1.443 . S
C371 H335 0.932 . S
C371 C366 1.388 . S
C371 C370 1.443 . S
Zn372 O375 2.031 . S
Zn372 O377 2.049 . S
Zn372 O382 2.067 . S
Zn373 O374 1.962 . S
Zn373 O376 1.986 . S
Zn373 O378 1.996 . S
Zn373 O381 1.943 . S
O374 Zn373 1.962 . S
O374 C379 1.254 . S
O375 Zn372 2.031 . S
O375 C379 1.269 . S
O376 Zn373 1.986 . S
O376 C383 1.262 . S
O377 Zn372 2.049 . S
O377 C385 1.260 . S
O378 Zn373 1.996 . S
O378 C385 1.257 . S
C379 O374 1.254 . S
C379 O375 1.269 . S
C380 O381 1.249 . S
C380 O382 1.270 . S
O381 Zn373 1.943 . S
O381 C380 1.249 . S
O382 Zn372 2.067 . S
O382 C380 1.270 . S
C383 O376 1.262 . S
C383 O384 1.232 . S
O384 C383 1.232 . S
C385 O377 1.260 . S
C385 O378 1.257 . S
Zn386 O389 2.031 . S
Zn386 O391 2.049 . S
Zn386 O396 2.067 . S
Zn387 O388 1.962 . S
Zn387 O390 1.986 . S
Zn387 O392 1.996 . S
Zn387 O395 1.943 . S
O388 Zn387 1.962 . S
O388 C393 1.254 . S
O389 Zn386 2.031 . S
O389 C393 1.269 . S
O390 Zn387 1.986 . S
O390 C397 1.262 . S
O391 Zn386 2.049 . S
O391 C399 1.260 . S
O392 Zn387 1.996 . S
O392 C399 1.257 . S
C393 O388 1.254 . S
C393 O389 1.269 . S
C394 O395 1.249 . S
C394 O396 1.270 . S
O395 Zn387 1.943 . S
O395 C394 1.249 . S
O396 Zn386 2.067 . S
O396 C394 1.270 . S
C397 O390 1.262 . S
C397 O398 1.232 . S
O398 C397 1.232 . S
C399 O391 1.260 . S
C399 O392 1.257 . S
Zn400 O403 2.031 . S
Zn400 O405 2.049 . S
Zn400 O410 2.067 . S
Zn401 O402 1.962 . S
Zn401 O404 1.986 . S
Zn401 O406 1.996 . S
Zn401 O409 1.943 . S
O402 Zn401 1.962 . S
O402 C407 1.254 . S
O403 Zn400 2.031 . S
O403 C407 1.269 . S
O404 Zn401 1.986 . S
O404 C411 1.262 . S
O405 Zn400 2.049 . S
O405 C413 1.260 . S
O406 Zn401 1.996 . S
O406 C413 1.257 . S
C407 O402 1.254 . S
C407 O403 1.269 . S
C408 O409 1.249 . S
C408 O410 1.270 . S
O409 Zn401 1.943 . S
O409 C408 1.249 . S
O410 Zn400 2.067 . S
O410 C408 1.270 . S
C411 O404 1.262 . S
C411 O412 1.232 . S
O412 C411 1.232 . S
C413 O405 1.260 . S
C413 O406 1.257 . S
Zn414 O417 2.031 . S
Zn414 O419 2.049 . S
Zn414 O424 2.067 . S
Zn415 O416 1.962 . S
Zn415 O418 1.986 . S
Zn415 O420 1.996 . S
Zn415 O423 1.943 . S
O416 Zn415 1.962 . S
O416 C421 1.254 . S
O417 Zn414 2.031 . S
O417 C421 1.269 . S
O418 Zn415 1.986 . S
O418 C425 1.262 . S
O419 Zn414 2.049 . S
O419 C427 1.260 . S
O420 Zn415 1.996 . S
O420 C427 1.257 . S
C421 O416 1.254 . S
C421 O417 1.269 . S
C422 O423 1.249 . S
C422 O424 1.270 . S
O423 Zn415 1.943 . S
O423 C422 1.249 . S
O424 Zn414 2.067 . S
O424 C422 1.270 . S
C425 O418 1.262 . S
C425 O426 1.232 . S
O426 C425 1.232 . S
C427 O419 1.260 . S
C427 O420 1.257 . S
Zn428 O431 2.031 . S
Zn428 O433 2.049 . S
Zn428 O438 2.067 . S
Zn429 O430 1.962 . S
Zn429 O432 1.986 . S
Zn429 O434 1.996 . S
Zn429 O437 1.943 . S
O430 Zn429 1.962 . S
O430 C435 1.254 . S
O431 Zn428 2.031 . S
O431 C435 1.269 . S
O432 Zn429 1.986 . S
O432 C439 1.262 . S
O433 Zn428 2.049 . S
O433 C441 1.260 . S
O434 Zn429 1.996 . S
O434 C441 1.257 . S
C435 O430 1.254 . S
C435 O431 1.269 . S
C436 O437 1.249 . S
C436 O438 1.270 . S
O437 Zn429 1.943 . S
O437 C436 1.249 . S
O438 Zn428 2.067 . S
O438 C436 1.270 . S
C439 O432 1.262 . S
C439 O440 1.232 . S
O440 C439 1.232 . S
C441 O433 1.260 . S
C441 O434 1.257 . S
Zn442 O445 2.031 . S
Zn442 O447 2.049 . S
Zn442 O452 2.067 . S
Zn443 O444 1.962 . S
Zn443 O446 1.986 . S
Zn443 O448 1.996 . S
Zn443 O451 1.943 . S
O444 Zn443 1.962 . S
O444 C449 1.254 . S
O445 Zn442 2.031 . S
O445 C449 1.269 . S
O446 Zn443 1.986 . S
O446 C453 1.262 . S
O447 Zn442 2.049 . S
O447 C455 1.260 . S
O448 Zn443 1.996 . S
O448 C455 1.257 . S
C449 O444 1.254 . S
C449 O445 1.269 . S
C450 O451 1.249 . S
C450 O452 1.270 . S
O451 Zn443 1.943 . S
O451 C450 1.249 . S
O452 Zn442 2.067 . S
O452 C450 1.270 . S
C453 O446 1.262 . S
C453 O454 1.232 . S
O454 C453 1.232 . S
C455 O447 1.260 . S
C455 O448 1.257 . S
H456 C464 0.929 . S
H457 C466 0.930 . S
H458 C468 0.930 . S
H459 C471 0.929 . S
H460 C474 0.930 . S
H461 C476 0.960 . S
H462 C476 0.960 . S
H463 C476 0.960 . S
C464 H456 0.929 . S
C464 C465 1.377 . S
C464 C466 1.384 . S
C465 C464 1.377 . S
C465 C471 1.390 . S
C466 H457 0.930 . S
C466 C464 1.384 . S
C466 C467 1.372 . S
C467 C466 1.372 . S
C467 C468 1.400 . S
C467 C472 1.490 . S
C468 H458 0.930 . S
C468 C467 1.400 . S
C468 C471 1.386 . S
H469 C485 0.930 . S
H470 C486 0.931 . S
C471 H459 0.929 . S
C471 C465 1.390 . S
C471 C468 1.386 . S
C472 C467 1.490 . S
C472 C474 1.395 . S
C472 C475 1.403 . S
H473 C479 0.930 . S
C474 H460 0.930 . S
C474 C472 1.395 . S
C474 C477 1.403 . S
C475 C472 1.403 . S
C475 C476 1.524 . S
C475 C479 1.400 . S
C476 H461 0.960 . S
C476 H462 0.960 . S
C476 H463 0.960 . S
C476 C475 1.524 . S
C477 C474 1.403 . S
C477 C478 1.392 . S
C477 C481 1.495 . S
C478 C477 1.392 . S
C478 C479 1.385 . S
C478 C480 1.478 . S
C479 H473 0.930 . S
C479 C475 1.400 . S
C479 C478 1.385 . S
C480 C478 1.478 . S
C480 C482 1.381 . S
C480 C486 1.383 . S
C481 C477 1.495 . S
C481 H487 0.959 . S
C481 H488 0.961 . S
C481 H489 0.960 . S
C482 C480 1.381 . S
C482 C483 1.394 . S
C482 H490 0.930 . S
C483 C482 1.394 . S
C483 C484 1.383 . S
C483 H491 0.929 . S
C484 C483 1.383 . S
C484 C485 1.377 . S
C485 H469 0.930 . S
C485 C484 1.377 . S
C485 C486 1.379 . S
C486 H470 0.931 . S
C486 C480 1.383 . S
C486 C485 1.379 . S
H487 C481 0.959 . S
H488 C481 0.961 . S
H489 C481 0.960 . S
H490 C482 0.930 . S
H491 C483 0.929 . S
H492 C500 0.929 . S
H493 C502 0.930 . S
H494 C504 0.930 . S
H495 C507 0.929 . S
H496 C510 0.930 . S
H497 C512 0.960 . S
H498 C512 0.960 . S
H499 C512 0.960 . S
C500 H492 0.929 . S
C500 C501 1.377 . S
C500 C502 1.384 . S
C501 C500 1.377 . S
C501 C507 1.390 . S
C502 H493 0.930 . S
C502 C500 1.384 . S
C502 C503 1.372 . S
C503 C502 1.372 . S
C503 C504 1.400 . S
C503 C508 1.490 . S
C504 H494 0.930 . S
C504 C503 1.400 . S
C504 C507 1.386 . S
H505 C521 0.930 . S
H506 C522 0.931 . S
C507 H495 0.929 . S
C507 C501 1.390 . S
C507 C504 1.386 . S
C508 C503 1.490 . S
C508 C510 1.395 . S
C508 C511 1.403 . S
H509 C515 0.930 . S
C510 H496 0.930 . S
C510 C508 1.395 . S
C510 C513 1.403 . S
C511 C508 1.403 . S
C511 C512 1.524 . S
C511 C515 1.400 . S
C512 H497 0.960 . S
C512 H498 0.960 . S
C512 H499 0.960 . S
C512 C511 1.524 . S
C513 C510 1.403 . S
C513 C514 1.392 . S
C513 C517 1.495 . S
C514 C513 1.392 . S
C514 C515 1.385 . S
C514 C516 1.478 . S
C515 H509 0.930 . S
C515 C511 1.400 . S
C515 C514 1.385 . S
C516 C514 1.478 . S
C516 C518 1.381 . S
C516 C522 1.383 . S
C517 C513 1.495 . S
C517 H523 0.959 . S
C517 H524 0.961 . S
C517 H525 0.960 . S
C518 C516 1.381 . S
C518 C519 1.394 . S
C518 H526 0.930 . S
C519 C518 1.394 . S
C519 C520 1.383 . S
C519 H527 0.929 . S
C520 C519 1.383 . S
C520 C521 1.377 . S
C521 H505 0.930 . S
C521 C520 1.377 . S
C521 C522 1.379 . S
C522 H506 0.931 . S
C522 C516 1.383 . S
C522 C521 1.379 . S
H523 C517 0.959 . S
H524 C517 0.961 . S
H525 C517 0.960 . S
H526 C518 0.930 . S
H527 C519 0.929 . S
H528 C536 0.929 . S
H529 C538 0.930 . S
H530 C540 0.930 . S
H531 C543 0.929 . S
H532 C546 0.930 . S
H533 C548 0.960 . S
H534 C548 0.960 . S
H535 C548 0.960 . S
C536 H528 0.929 . S
C536 C537 1.377 . S
C536 C538 1.384 . S
C537 C536 1.377 . S
C537 C543 1.390 . S
C538 H529 0.930 . S
C538 C536 1.384 . S
C538 C539 1.372 . S
C539 C538 1.372 . S
C539 C540 1.400 . S
C539 C544 1.490 . S
C540 H530 0.930 . S
C540 C539 1.400 . S
C540 C543 1.386 . S
H541 C557 0.930 . S
H542 C558 0.931 . S
C543 H531 0.929 . S
C543 C537 1.390 . S
C543 C540 1.386 . S
C544 C539 1.490 . S
C544 C546 1.395 . S
C544 C547 1.403 . S
H545 C551 0.930 . S
C546 H532 0.930 . S
C546 C544 1.395 . S
C546 C549 1.403 . S
C547 C544 1.403 . S
C547 C548 1.524 . S
C547 C551 1.400 . S
C548 H533 0.960 . S
C548 H534 0.960 . S
C548 H535 0.960 . S
C548 C547 1.524 . S
C549 C546 1.403 . S
C549 C550 1.392 . S
C549 C553 1.495 . S
C550 C549 1.392 . S
C550 C551 1.385 . S
C550 C552 1.478 . S
C551 H545 0.930 . S
C551 C547 1.400 . S
C551 C550 1.385 . S
C552 C550 1.478 . S
C552 C554 1.381 . S
C552 C558 1.383 . S
C553 C549 1.495 . S
C553 H559 0.959 . S
C553 H560 0.961 . S
C553 H561 0.960 . S
C554 C552 1.381 . S
C554 C555 1.394 . S
C554 H562 0.930 . S
C555 C554 1.394 . S
C555 C556 1.383 . S
C555 H563 0.929 . S
C556 C555 1.383 . S
C556 C557 1.377 . S
C557 H541 0.930 . S
C557 C556 1.377 . S
C557 C558 1.379 . S
C558 H542 0.931 . S
C558 C552 1.383 . S
C558 C557 1.379 . S
H559 C553 0.959 . S
H560 C553 0.961 . S
H561 C553 0.960 . S
H562 C554 0.930 . S
H563 C555 0.929 . S
H564 C572 0.929 . S
H565 C574 0.930 . S
H566 C576 0.930 . S
H567 C579 0.929 . S
H568 C582 0.930 . S
H569 C584 0.960 . S
H570 C584 0.960 . S
H571 C584 0.960 . S
C572 H564 0.929 . S
C572 C573 1.377 . S
C572 C574 1.384 . S
C573 C572 1.377 . S
C573 C579 1.390 . S
C574 H565 0.930 . S
C574 C572 1.384 . S
C574 C575 1.372 . S
C575 C574 1.372 . S
C575 C576 1.400 . S
C575 C580 1.490 . S
C576 H566 0.930 . S
C576 C575 1.400 . S
C576 C579 1.386 . S
H577 C593 0.930 . S
H578 C594 0.931 . S
C579 H567 0.929 . S
C579 C573 1.390 . S
C579 C576 1.386 . S
C580 C575 1.490 . S
C580 C582 1.395 . S
C580 C583 1.403 . S
H581 C587 0.930 . S
C582 H568 0.930 . S
C582 C580 1.395 . S
C582 C585 1.403 . S
C583 C580 1.403 . S
C583 C584 1.524 . S
C583 C587 1.400 . S
C584 H569 0.960 . S
C584 H570 0.960 . S
C584 H571 0.960 . S
C584 C583 1.524 . S
C585 C582 1.403 . S
C585 C586 1.392 . S
C585 C589 1.495 . S
C586 C585 1.392 . S
C586 C587 1.385 . S
C586 C588 1.478 . S
C587 H581 0.930 . S
C587 C583 1.400 . S
C587 C586 1.385 . S
C588 C586 1.478 . S
C588 C590 1.381 . S
C588 C594 1.383 . S
C589 C585 1.495 . S
C589 H595 0.959 . S
C589 H596 0.961 . S
C589 H597 0.960 . S
C590 C588 1.381 . S
C590 C591 1.394 . S
C590 H598 0.930 . S
C591 C590 1.394 . S
C591 C592 1.383 . S
C591 H599 0.929 . S
C592 C591 1.383 . S
C592 C593 1.377 . S
C593 H577 0.930 . S
C593 C592 1.377 . S
C593 C594 1.379 . S
C594 H578 0.931 . S
C594 C588 1.383 . S
C594 C593 1.379 . S
H595 C589 0.959 . S
H596 C589 0.961 . S
H597 C589 0.960 . S
H598 C590 0.930 . S
H599 C591 0.929 . S
H600 C608 0.929 . S
H601 C610 0.930 . S
H602 C612 0.930 . S
H603 C615 0.929 . S
H604 C618 0.930 . S
H605 C620 0.960 . S
H606 C620 0.960 . S
H607 C620 0.960 . S
C608 H600 0.929 . S
C608 C609 1.377 . S
C608 C610 1.384 . S
C609 C608 1.377 . S
C609 C615 1.390 . S
C610 H601 0.930 . S
C610 C608 1.384 . S
C610 C611 1.372 . S
C611 C610 1.372 . S
C611 C612 1.400 . S
C611 C616 1.490 . S
C612 H602 0.930 . S
C612 C611 1.400 . S
C612 C615 1.386 . S
H613 C629 0.930 . S
H614 C630 0.931 . S
C615 H603 0.929 . S
C615 C609 1.390 . S
C615 C612 1.386 . S
C616 C611 1.490 . S
C616 C618 1.395 . S
C616 C619 1.403 . S
H617 C623 0.930 . S
C618 H604 0.930 . S
C618 C616 1.395 . S
C618 C621 1.403 . S
C619 C616 1.403 . S
C619 C620 1.524 . S
C619 C623 1.400 . S
C620 H605 0.960 . S
C620 H606 0.960 . S
C620 H607 0.960 . S
C620 C619 1.524 . S
C621 C618 1.403 . S
C621 C622 1.392 . S
C621 C625 1.495 . S
C622 C621 1.392 . S
C622 C623 1.385 . S
C622 C624 1.478 . S
C623 H617 0.930 . S
C623 C619 1.400 . S
C623 C622 1.385 . S
C624 C622 1.478 . S
C624 C626 1.381 . S
C624 C630 1.383 . S
C625 C621 1.495 . S
C625 H631 0.959 . S
C625 H632 0.961 . S
C625 H633 0.960 . S
C626 C624 1.381 . S
C626 C627 1.394 . S
C626 H634 0.930 . S
C627 C626 1.394 . S
C627 C628 1.383 . S
C627 H635 0.929 . S
C628 C627 1.383 . S
C628 C629 1.377 . S
C629 H613 0.930 . S
C629 C628 1.377 . S
C629 C630 1.379 . S
C630 H614 0.931 . S
C630 C624 1.383 . S
C630 C629 1.379 . S
H631 C625 0.959 . S
H632 C625 0.961 . S
H633 C625 0.960 . S
H634 C626 0.930 . S
H635 C627 0.929 . S
H636 C644 0.929 . S
H637 C646 0.930 . S
H638 C648 0.930 . S
H639 C651 0.929 . S
H640 C654 0.930 . S
H641 C656 0.960 . S
H642 C656 0.960 . S
H643 C656 0.960 . S
C644 H636 0.929 . S
C644 C645 1.377 . S
C644 C646 1.384 . S
C645 C644 1.377 . S
C645 C651 1.390 . S
C646 H637 0.930 . S
C646 C644 1.384 . S
C646 C647 1.372 . S
C647 C646 1.372 . S
C647 C648 1.400 . S
C647 C652 1.490 . S
C648 H638 0.930 . S
C648 C647 1.400 . S
C648 C651 1.386 . S
H649 C665 0.930 . S
H650 C666 0.931 . S
C651 H639 0.929 . S
C651 C645 1.390 . S
C651 C648 1.386 . S
C652 C647 1.490 . S
C652 C654 1.395 . S
C652 C655 1.403 . S
H653 C659 0.930 . S
C654 H640 0.930 . S
C654 C652 1.395 . S
C654 C657 1.403 . S
C655 C652 1.403 . S
C655 C656 1.524 . S
C655 C659 1.400 . S
C656 H641 0.960 . S
C656 H642 0.960 . S
C656 H643 0.960 . S
C656 C655 1.524 . S
C657 C654 1.403 . S
C657 C658 1.392 . S
C657 C661 1.495 . S
C658 C657 1.392 . S
C658 C659 1.385 . S
C658 C660 1.478 . S
C659 H653 0.930 . S
C659 C655 1.400 . S
C659 C658 1.385 . S
C660 C658 1.478 . S
C660 C662 1.381 . S
C660 C666 1.383 . S
C661 C657 1.495 . S
C661 H667 0.959 . S
C661 H668 0.961 . S
C661 H669 0.960 . S
C662 C660 1.381 . S
C662 C663 1.394 . S
C662 H670 0.930 . S
C663 C662 1.394 . S
C663 C664 1.383 . S
C663 H671 0.929 . S
C664 C663 1.383 . S
C664 C665 1.377 . S
C665 H649 0.930 . S
C665 C664 1.377 . S
C665 C666 1.379 . S
C666 H650 0.931 . S
C666 C660 1.383 . S
C666 C665 1.379 . S
H667 C661 0.959 . S
H668 C661 0.961 . S
H669 C661 0.960 . S
H670 C662 0.930 . S
H671 C663 0.929 . S
H672 C680 0.929 . S
H673 C682 0.930 . S
H674 C684 0.930 . S
H675 C687 0.929 . S
H676 C690 0.930 . S
H677 C692 0.960 . S
H678 C692 0.960 . S
H679 C692 0.960 . S
C680 H672 0.929 . S
C680 C681 1.377 . S
C680 C682 1.384 . S
C681 C680 1.377 . S
C681 C687 1.390 . S
C682 H673 0.930 . S
C682 C680 1.384 . S
C682 C683 1.372 . S
C683 C682 1.372 . S
C683 C684 1.400 . S
C683 C688 1.490 . S
C684 H674 0.930 . S
C684 C683 1.400 . S
C684 C687 1.386 . S
H685 C701 0.930 . S
H686 C702 0.931 . S
C687 H675 0.929 . S
C687 C681 1.390 . S
C687 C684 1.386 . S
C688 C683 1.490 . S
C688 C690 1.395 . S
C688 C691 1.403 . S
H689 C695 0.930 . S
C690 H676 0.930 . S
C690 C688 1.395 . S
C690 C693 1.403 . S
C691 C688 1.403 . S
C691 C692 1.524 . S
C691 C695 1.400 . S
C692 H677 0.960 . S
C692 H678 0.960 . S
C692 H679 0.960 . S
C692 C691 1.524 . S
C693 C690 1.403 . S
C693 C694 1.392 . S
C693 C697 1.495 . S
C694 C693 1.392 . S
C694 C695 1.385 . S
C694 C696 1.478 . S
C695 H689 0.930 . S
C695 C691 1.400 . S
C695 C694 1.385 . S
C696 C694 1.478 . S
C696 C698 1.381 . S
C696 C702 1.383 . S
C697 C693 1.495 . S
C697 H703 0.959 . S
C697 H704 0.961 . S
C697 H705 0.960 . S
C698 C696 1.381 . S
C698 C699 1.394 . S
C698 H706 0.930 . S
C699 C698 1.394 . S
C699 C700 1.383 . S
C699 H707 0.929 . S
C700 C699 1.383 . S
C700 C701 1.377 . S
C701 H685 0.930 . S
C701 C700 1.377 . S
C701 C702 1.379 . S
C702 H686 0.931 . S
C702 C696 1.383 . S
C702 C701 1.379 . S
H703 C697 0.959 . S
H704 C697 0.961 . S
H705 C697 0.960 . S
H706 C698 0.930 . S
H707 C699 0.929 . S
H708 C716 0.929 . S
H709 C718 0.930 . S
H710 C720 0.930 . S
H711 C723 0.929 . S
H712 C726 0.930 . S
H713 C728 0.960 . S
H714 C728 0.960 . S
H715 C728 0.960 . S
C716 H708 0.929 . S
C716 C717 1.377 . S
C716 C718 1.384 . S
C717 C716 1.377 . S
C717 C723 1.390 . S
C718 H709 0.930 . S
C718 C716 1.384 . S
C718 C719 1.372 . S
C719 C718 1.372 . S
C719 C720 1.400 . S
C719 C724 1.490 . S
C720 H710 0.930 . S
C720 C719 1.400 . S
C720 C723 1.386 . S
H721 C737 0.930 . S
H722 C738 0.931 . S
C723 H711 0.929 . S
C723 C717 1.390 . S
C723 C720 1.386 . S
C724 C719 1.490 . S
C724 C726 1.395 . S
C724 C727 1.403 . S
H725 C731 0.930 . S
C726 H712 0.930 . S
C726 C724 1.395 . S
C726 C729 1.403 . S
C727 C724 1.403 . S
C727 C728 1.524 . S
C727 C731 1.400 . S
C728 H713 0.960 . S
C728 H714 0.960 . S
C728 H715 0.960 . S
C728 C727 1.524 . S
C729 C726 1.403 . S
C729 C730 1.392 . S
C729 C733 1.495 . S
C730 C729 1.392 . S
C730 C731 1.385 . S
C730 C732 1.478 . S
C731 H725 0.930 . S
C731 C727 1.400 . S
C731 C730 1.385 . S
C732 C730 1.478 . S
C732 C734 1.381 . S
C732 C738 1.383 . S
C733 C729 1.495 . S
C733 H739 0.959 . S
C733 H740 0.961 . S
C733 H741 0.960 . S
C734 C732 1.381 . S
C734 C735 1.394 . S
C734 H742 0.930 . S
C735 C734 1.394 . S
C735 C736 1.383 . S
C735 H743 0.929 . S
C736 C735 1.383 . S
C736 C737 1.377 . S
C737 H721 0.930 . S
C737 C736 1.377 . S
C737 C738 1.379 . S
C738 H722 0.931 . S
C738 C732 1.383 . S
C738 C737 1.379 . S
H739 C733 0.959 . S
H740 C733 0.961 . S
H741 C733 0.960 . S
H742 C734 0.930 . S
H743 C735 0.929 . S
H744 C752 0.929 . S
H745 C754 0.930 . S
H746 C756 0.930 . S
H747 C759 0.929 . S
H748 C762 0.930 . S
H749 C764 0.960 . S
H750 C764 0.960 . S
H751 C764 0.960 . S
C752 H744 0.929 . S
C752 C753 1.377 . S
C752 C754 1.384 . S
C753 C752 1.377 . S
C753 C759 1.390 . S
C754 H745 0.930 . S
C754 C752 1.384 . S
C754 C755 1.372 . S
C755 C754 1.372 . S
C755 C756 1.400 . S
C755 C760 1.490 . S
C756 H746 0.930 . S
C756 C755 1.400 . S
C756 C759 1.386 . S
H757 C773 0.930 . S
H758 C774 0.931 . S
C759 H747 0.929 . S
C759 C753 1.390 . S
C759 C756 1.386 . S
C760 C755 1.490 . S
C760 C762 1.395 . S
C760 C763 1.403 . S
H761 C767 0.930 . S
C762 H748 0.930 . S
C762 C760 1.395 . S
C762 C765 1.403 . S
C763 C760 1.403 . S
C763 C764 1.524 . S
C763 C767 1.400 . S
C764 H749 0.960 . S
C764 H750 0.960 . S
C764 H751 0.960 . S
C764 C763 1.524 . S
C765 C762 1.403 . S
C765 C766 1.392 . S
C765 C769 1.495 . S
C766 C765 1.392 . S
C766 C767 1.385 . S
C766 C768 1.478 . S
C767 H761 0.930 . S
C767 C763 1.400 . S
C767 C766 1.385 . S
C768 C766 1.478 . S
C768 C770 1.381 . S
C768 C774 1.383 . S
C769 C765 1.495 . S
C769 H775 0.959 . S
C769 H776 0.961 . S
C769 H777 0.960 . S
C770 C768 1.381 . S
C770 C771 1.394 . S
C770 H778 0.930 . S
C771 C770 1.394 . S
C771 C772 1.383 . S
C771 H779 0.929 . S
C772 C771 1.383 . S
C772 C773 1.377 . S
C773 H757 0.930 . S
C773 C772 1.377 . S
C773 C774 1.379 . S
C774 H758 0.931 . S
C774 C768 1.383 . S
C774 C773 1.379 . S
H775 C769 0.959 . S
H776 C769 0.961 . S
H777 C769 0.960 . S
H778 C770 0.930 . S
H779 C771 0.929 . S
H780 C788 0.929 . S
H781 C790 0.930 . S
H782 C792 0.930 . S
H783 C795 0.929 . S
H784 C798 0.930 . S
H785 C800 0.960 . S
H786 C800 0.960 . S
H787 C800 0.960 . S
C788 H780 0.929 . S
C788 C789 1.377 . S
C788 C790 1.384 . S
C789 C788 1.377 . S
C789 C795 1.390 . S
C790 H781 0.930 . S
C790 C788 1.384 . S
C790 C791 1.372 . S
C791 C790 1.372 . S
C791 C792 1.400 . S
C791 C796 1.490 . S
C792 H782 0.930 . S
C792 C791 1.400 . S
C792 C795 1.386 . S
H793 C809 0.930 . S
H794 C810 0.931 . S
C795 H783 0.929 . S
C795 C789 1.390 . S
C795 C792 1.386 . S
C796 C791 1.490 . S
C796 C798 1.395 . S
C796 C799 1.403 . S
H797 C803 0.930 . S
C798 H784 0.930 . S
C798 C796 1.395 . S
C798 C801 1.403 . S
C799 C796 1.403 . S
C799 C800 1.524 . S
C799 C803 1.400 . S
C800 H785 0.960 . S
C800 H786 0.960 . S
C800 H787 0.960 . S
C800 C799 1.524 . S
C801 C798 1.403 . S
C801 C802 1.392 . S
C801 C805 1.495 . S
C802 C801 1.392 . S
C802 C803 1.385 . S
C802 C804 1.478 . S
C803 H797 0.930 . S
C803 C799 1.400 . S
C803 C802 1.385 . S
C804 C802 1.478 . S
C804 C806 1.381 . S
C804 C810 1.383 . S
C805 C801 1.495 . S
C805 H811 0.959 . S
C805 H812 0.961 . S
C805 H813 0.960 . S
C806 C804 1.381 . S
C806 C807 1.394 . S
C806 H814 0.930 . S
C807 C806 1.394 . S
C807 C808 1.383 . S
C807 H815 0.929 . S
C808 C807 1.383 . S
C808 C809 1.377 . S
C809 H793 0.930 . S
C809 C808 1.377 . S
C809 C810 1.379 . S
C810 H794 0.931 . S
C810 C804 1.383 . S
C810 C809 1.379 . S
H811 C805 0.959 . S
H812 C805 0.961 . S
H813 C805 0.960 . S
H814 C806 0.930 . S
H815 C807 0.929 . S
H816 C824 0.929 . S
H817 C826 0.930 . S
H818 C828 0.930 . S
H819 C831 0.929 . S
H820 C834 0.930 . S
H821 C836 0.960 . S
H822 C836 0.960 . S
H823 C836 0.960 . S
C824 H816 0.929 . S
C824 C825 1.377 . S
C824 C826 1.384 . S
C825 C824 1.377 . S
C825 C831 1.390 . S
C826 H817 0.930 . S
C826 C824 1.384 . S
C826 C827 1.372 . S
C827 C826 1.372 . S
C827 C828 1.400 . S
C827 C832 1.490 . S
C828 H818 0.930 . S
C828 C827 1.400 . S
C828 C831 1.386 . S
H829 C845 0.930 . S
H830 C846 0.931 . S
C831 H819 0.929 . S
C831 C825 1.390 . S
C831 C828 1.386 . S
C832 C827 1.490 . S
C832 C834 1.395 . S
C832 C835 1.403 . S
H833 C839 0.930 . S
C834 H820 0.930 . S
C834 C832 1.395 . S
C834 C837 1.403 . S
C835 C832 1.403 . S
C835 C836 1.524 . S
C835 C839 1.400 . S
C836 H821 0.960 . S
C836 H822 0.960 . S
C836 H823 0.960 . S
C836 C835 1.524 . S
C837 C834 1.403 . S
C837 C838 1.392 . S
C837 C841 1.495 . S
C838 C837 1.392 . S
C838 C839 1.385 . S
C838 C840 1.478 . S
C839 H833 0.930 . S
C839 C835 1.400 . S
C839 C838 1.385 . S
C840 C838 1.478 . S
C840 C842 1.381 . S
C840 C846 1.383 . S
C841 C837 1.495 . S
C841 H847 0.959 . S
C841 H848 0.961 . S
C841 H849 0.960 . S
C842 C840 1.381 . S
C842 C843 1.394 . S
C842 H850 0.930 . S
C843 C842 1.394 . S
C843 C844 1.383 . S
C843 H851 0.929 . S
C844 C843 1.383 . S
C844 C845 1.377 . S
C845 H829 0.930 . S
C845 C844 1.377 . S
C845 C846 1.379 . S
C846 H830 0.931 . S
C846 C840 1.383 . S
C846 C845 1.379 . S
H847 C841 0.959 . S
H848 C841 0.961 . S
H849 C841 0.960 . S
H850 C842 0.930 . S
H851 C843 0.929 . S
H852 C860 0.929 . S
H853 C862 0.930 . S
H854 C864 0.930 . S
H855 C867 0.929 . S
H856 C870 0.930 . S
H857 C872 0.960 . S
H858 C872 0.960 . S
H859 C872 0.960 . S
C860 H852 0.929 . S
C860 C861 1.377 . S
C860 C862 1.384 . S
C861 C860 1.377 . S
C861 C867 1.390 . S
C862 H853 0.930 . S
C862 C860 1.384 . S
C862 C863 1.372 . S
C863 C862 1.372 . S
C863 C864 1.400 . S
C863 C868 1.490 . S
C864 H854 0.930 . S
C864 C863 1.400 . S
C864 C867 1.386 . S
H865 C881 0.930 . S
H866 C882 0.931 . S
C867 H855 0.929 . S
C867 C861 1.390 . S
C867 C864 1.386 . S
C868 C863 1.490 . S
C868 C870 1.395 . S
C868 C871 1.403 . S
H869 C875 0.930 . S
C870 H856 0.930 . S
C870 C868 1.395 . S
C870 C873 1.403 . S
C871 C868 1.403 . S
C871 C872 1.524 . S
C871 C875 1.400 . S
C872 H857 0.960 . S
C872 H858 0.960 . S
C872 H859 0.960 . S
C872 C871 1.524 . S
C873 C870 1.403 . S
C873 C874 1.392 . S
C873 C877 1.495 . S
C874 C873 1.392 . S
C874 C875 1.385 . S
C874 C876 1.478 . S
C875 H869 0.930 . S
C875 C871 1.400 . S
C875 C874 1.385 . S
C876 C874 1.478 . S
C876 C878 1.381 . S
C876 C882 1.383 . S
C877 C873 1.495 . S
C877 H883 0.959 . S
C877 H884 0.961 . S
C877 H885 0.960 . S
C878 C876 1.381 . S
C878 C879 1.394 . S
C878 H886 0.930 . S
C879 C878 1.394 . S
C879 C880 1.383 . S
C879 H887 0.929 . S
C880 C879 1.383 . S
C880 C881 1.377 . S
C881 H865 0.930 . S
C881 C880 1.377 . S
C881 C882 1.379 . S
C882 H866 0.931 . S
C882 C876 1.383 . S
C882 C881 1.379 . S
H883 C877 0.959 . S
H884 C877 0.961 . S
H885 C877 0.960 . S
H886 C878 0.930 . S
H887 C879 0.929 . S
H888 C896 0.929 . S
H889 C898 0.930 . S
H890 C900 0.930 . S
H891 C903 0.929 . S
H892 C906 0.930 . S
H893 C908 0.960 . S
H894 C908 0.960 . S
H895 C908 0.960 . S
C896 H888 0.929 . S
C896 C897 1.377 . S
C896 C898 1.384 . S
C897 C896 1.377 . S
C897 C903 1.390 . S
C898 H889 0.930 . S
C898 C896 1.384 . S
C898 C899 1.372 . S
C899 C898 1.372 . S
C899 C900 1.400 . S
C899 C904 1.490 . S
C900 H890 0.930 . S
C900 C899 1.400 . S
C900 C903 1.386 . S
H901 C917 0.930 . S
H902 C918 0.931 . S
C903 H891 0.929 . S
C903 C897 1.390 . S
C903 C900 1.386 . S
C904 C899 1.490 . S
C904 C906 1.395 . S
C904 C907 1.403 . S
H905 C911 0.930 . S
C906 H892 0.930 . S
C906 C904 1.395 . S
C906 C909 1.403 . S
C907 C904 1.403 . S
C907 C908 1.524 . S
C907 C911 1.400 . S
C908 H893 0.960 . S
C908 H894 0.960 . S
C908 H895 0.960 . S
C908 C907 1.524 . S
C909 C906 1.403 . S
C909 C910 1.392 . S
C909 C913 1.495 . S
C910 C909 1.392 . S
C910 C911 1.385 . S
C910 C912 1.478 . S
C911 H905 0.930 . S
C911 C907 1.400 . S
C911 C910 1.385 . S
C912 C910 1.478 . S
C912 C914 1.381 . S
C912 C918 1.383 . S
C913 C909 1.495 . S
C913 H919 0.959 . S
C913 H920 0.961 . S
C913 H921 0.960 . S
C914 C912 1.381 . S
C914 C915 1.394 . S
C914 H922 0.930 . S
C915 C914 1.394 . S
C915 C916 1.383 . S
C915 H923 0.929 . S
C916 C915 1.383 . S
C916 C917 1.377 . S
C917 H901 0.930 . S
C917 C916 1.377 . S
C917 C918 1.379 . S
C918 H902 0.931 . S
C918 C912 1.383 . S
C918 C917 1.379 . S
H919 C913 0.959 . S
H920 C913 0.961 . S
H921 C913 0.960 . S
H922 C914 0.930 . S
H923 C915 0.929 . S
H924 C932 0.929 . S
H925 C934 0.930 . S
H926 C936 0.930 . S
H927 C939 0.929 . S
H928 C942 0.930 . S
H929 C944 0.960 . S
H930 C944 0.960 . S
H931 C944 0.960 . S
C932 H924 0.929 . S
C932 C933 1.377 . S
C932 C934 1.384 . S
C933 C932 1.377 . S
C933 C939 1.390 . S
C934 H925 0.930 . S
C934 C932 1.384 . S
C934 C935 1.372 . S
C935 C934 1.372 . S
C935 C936 1.400 . S
C935 C940 1.490 . S
C936 H926 0.930 . S
C936 C935 1.400 . S
C936 C939 1.386 . S
H937 C953 0.930 . S
H938 C954 0.931 . S
C939 H927 0.929 . S
C939 C933 1.390 . S
C939 C936 1.386 . S
C940 C935 1.490 . S
C940 C942 1.395 . S
C940 C943 1.403 . S
H941 C947 0.930 . S
C942 H928 0.930 . S
C942 C940 1.395 . S
C942 C945 1.403 . S
C943 C940 1.403 . S
C943 C944 1.524 . S
C943 C947 1.400 . S
C944 H929 0.960 . S
C944 H930 0.960 . S
C944 H931 0.960 . S
C944 C943 1.524 . S
C945 C942 1.403 . S
C945 C946 1.392 . S
C945 C949 1.495 . S
C946 C945 1.392 . S
C946 C947 1.385 . S
C946 C948 1.478 . S
C947 H941 0.930 . S
C947 C943 1.400 . S
C947 C946 1.385 . S
C948 C946 1.478 . S
C948 C950 1.381 . S
C948 C954 1.383 . S
C949 C945 1.495 . S
C949 H955 0.959 . S
C949 H956 0.961 . S
C949 H957 0.960 . S
C950 C948 1.381 . S
C950 C951 1.394 . S
C950 H958 0.930 . S
C951 C950 1.394 . S
C951 C952 1.383 . S
C951 H959 0.929 . S
C952 C951 1.383 . S
C952 C953 1.377 . S
C953 H937 0.930 . S
C953 C952 1.377 . S
C953 C954 1.379 . S
C954 H938 0.931 . S
C954 C948 1.383 . S
C954 C953 1.379 . S
H955 C949 0.959 . S
H956 C949 0.961 . S
H957 C949 0.960 . S
H958 C950 0.930 . S
H959 C951 0.929 . S
H960 C968 0.929 . S
H961 C970 0.930 . S
H962 C972 0.930 . S
H963 C975 0.929 . S
H964 C978 0.930 . S
H965 C980 0.960 . S
H966 C980 0.960 . S
H967 C980 0.960 . S
C968 H960 0.929 . S
C968 C969 1.377 . S
C968 C970 1.384 . S
C969 C968 1.377 . S
C969 C975 1.390 . S
C970 H961 0.930 . S
C970 C968 1.384 . S
C970 C971 1.372 . S
C971 C970 1.372 . S
C971 C972 1.400 . S
C971 C976 1.490 . S
C972 H962 0.930 . S
C972 C971 1.400 . S
C972 C975 1.386 . S
H973 C989 0.930 . S
H974 C990 0.931 . S
C975 H963 0.929 . S
C975 C969 1.390 . S
C975 C972 1.386 . S
C976 C971 1.490 . S
C976 C978 1.395 . S
C976 C979 1.403 . S
H977 C983 0.930 . S
C978 H964 0.930 . S
C978 C976 1.395 . S
C978 C981 1.403 . S
C979 C976 1.403 . S
C979 C980 1.524 . S
C979 C983 1.400 . S
C980 H965 0.960 . S
C980 H966 0.960 . S
C980 H967 0.960 . S
C980 C979 1.524 . S
C981 C978 1.403 . S
C981 C982 1.392 . S
C981 C985 1.495 . S
C982 C981 1.392 . S
C982 C983 1.385 . S
C982 C984 1.478 . S
C983 H977 0.930 . S
C983 C979 1.400 . S
C983 C982 1.385 . S
C984 C982 1.478 . S
C984 C986 1.381 . S
C984 C990 1.383 . S
C985 C981 1.495 . S
C985 H991 0.959 . S
C985 H992 0.961 . S
C985 H993 0.960 . S
C986 C984 1.381 . S
C986 C987 1.394 . S
C986 H994 0.930 . S
C987 C986 1.394 . S
C987 C988 1.383 . S
C987 H995 0.929 . S
C988 C987 1.383 . S
C988 C989 1.377 . S
C989 H973 0.930 . S
C989 C988 1.377 . S
C989 C990 1.379 . S
C990 H974 0.931 . S
C990 C984 1.383 . S
C990 C989 1.379 . S
H991 C985 0.959 . S
H992 C985 0.961 . S
H993 C985 0.960 . S
H994 C986 0.930 . S
H995 C987 0.929 . S
H996 C1004 0.929 . S
H997 C1006 0.930 . S
H998 C1008 0.930 . S
H999 C1011 0.929 . S
H1000 C1014 0.930 . S
H1001 C1016 0.960 . S
H1002 C1016 0.960 . S
H1003 C1016 0.960 . S
C1004 H996 0.929 . S
C1004 C1005 1.377 . S
C1004 C1006 1.384 . S
C1005 C1004 1.377 . S
C1005 C1011 1.390 . S
C1006 H997 0.930 . S
C1006 C1004 1.384 . S
C1006 C1007 1.372 . S
C1007 C1006 1.372 . S
C1007 C1008 1.400 . S
C1007 C1012 1.490 . S
C1008 H998 0.930 . S
C1008 C1007 1.400 . S
C1008 C1011 1.386 . S
H1009 C1025 0.930 . S
H1010 C1026 0.931 . S
C1011 H999 0.929 . S
C1011 C1005 1.390 . S
C1011 C1008 1.386 . S
C1012 C1007 1.490 . S
C1012 C1014 1.395 . S
C1012 C1015 1.403 . S
H1013 C1019 0.930 . S
C1014 H1000 0.930 . S
C1014 C1012 1.395 . S
C1014 C1017 1.403 . S
C1015 C1012 1.403 . S
C1015 C1016 1.524 . S
C1015 C1019 1.400 . S
C1016 H1001 0.960 . S
C1016 H1002 0.960 . S
C1016 H1003 0.960 . S
C1016 C1015 1.524 . S
C1017 C1014 1.403 . S
C1017 C1018 1.392 . S
C1017 C1021 1.495 . S
C1018 C1017 1.392 . S
C1018 C1019 1.385 . S
C1018 C1020 1.478 . S
C1019 H1013 0.930 . S
C1019 C1015 1.400 . S
C1019 C1018 1.385 . S
C1020 C1018 1.478 . S
C1020 C1022 1.403 . S
C1020 C1026 1.383 . S
C1021 C1017 1.495 . S
C1021 H1027 0.959 . S
C1021 H1028 0.961 . S
C1021 H1029 0.960 . S
C1022 C1020 1.403 . S
C1022 C1023 1.356 1_556 S
C1022 H1030 0.949 . S
C1023 C1022 1.356 1_554 S
C1023 C1024 1.383 . S
C1023 H1031 0.929 . S
C1024 C1023 1.383 . S
C1024 C1025 1.377 . S
C1025 H1009 0.930 . S
C1025 C1024 1.377 . S
C1025 C1026 1.379 1_554 S
C1026 H1010 0.931 . S
C1026 C1020 1.383 . S
C1026 C1025 1.379 1_556 S
H1027 C1021 0.959 . S
H1028 C1021 0.961 . S
H1029 C1021 0.960 . S
H1030 C1022 0.949 . S
H1031 C1023 0.929 . S
H1032 C1040 0.929 . S
H1033 C1042 0.930 . S
H1034 C1044 0.930 . S
H1035 C1047 0.929 . S
H1036 C1050 0.930 . S
H1037 C1052 0.960 . S
H1038 C1052 0.960 . S
H1039 C1052 0.960 . S
C1040 H1032 0.929 . S
C1040 C1041 1.377 . S
C1040 C1042 1.384 . S
C1041 C1040 1.377 . S
C1041 C1047 1.390 . S
C1042 H1033 0.930 . S
C1042 C1040 1.384 . S
C1042 C1043 1.372 . S
C1043 C1042 1.372 . S
C1043 C1044 1.400 . S
C1043 C1048 1.490 . S
C1044 H1034 0.930 . S
C1044 C1043 1.400 . S
C1044 C1047 1.386 . S
H1045 C1061 0.930 . S
H1046 C1062 0.931 . S
C1047 H1035 0.929 . S
C1047 C1041 1.390 . S
C1047 C1044 1.386 . S
C1048 C1043 1.490 . S
C1048 C1050 1.395 . S
C1048 C1051 1.403 . S
H1049 C1055 0.930 . S
C1050 H1036 0.930 . S
C1050 C1048 1.395 . S
C1050 C1053 1.403 . S
C1051 C1048 1.403 . S
C1051 C1052 1.524 . S
C1051 C1055 1.400 . S
C1052 H1037 0.960 . S
C1052 H1038 0.960 . S
C1052 H1039 0.960 . S
C1052 C1051 1.524 . S
C1053 C1050 1.403 . S
C1053 C1054 1.392 . S
C1053 C1057 1.495 . S
C1054 C1053 1.392 . S
C1054 C1055 1.385 . S
C1054 C1056 1.478 . S
C1055 H1049 0.930 . S
C1055 C1051 1.400 . S
C1055 C1054 1.385 . S
C1056 C1054 1.478 . S
C1056 C1058 1.381 . S
C1056 C1062 1.383 . S
C1057 C1053 1.495 . S
C1057 H1063 0.959 . S
C1057 H1064 0.961 . S
C1057 H1065 0.960 . S
C1058 C1056 1.381 . S
C1058 C1059 1.394 . S
C1058 H1066 0.930 . S
C1059 C1058 1.394 . S
C1059 C1060 1.383 . S
C1059 H1067 0.929 . S
C1060 C1059 1.383 . S
C1060 C1061 1.377 . S
C1061 H1045 0.930 . S
C1061 C1060 1.377 . S
C1061 C1062 1.379 . S
C1062 H1046 0.931 . S
C1062 C1056 1.383 . S
C1062 C1061 1.379 . S
H1063 C1057 0.959 . S
H1064 C1057 0.961 . S
H1065 C1057 0.960 . S
H1066 C1058 0.930 . S
H1067 C1059 0.929 . S
H1068 C1076 0.929 . S
H1069 C1078 0.930 . S
H1070 C1080 0.930 . S
H1071 C1083 0.929 . S
H1072 C1086 0.930 . S
H1073 C1088 0.960 . S
H1074 C1088 0.960 . S
H1075 C1088 0.960 . S
C1076 H1068 0.929 . S
C1076 C1077 1.377 . S
C1076 C1078 1.384 . S
C1077 C1076 1.377 . S
C1077 C1083 1.390 . S
C1078 H1069 0.930 . S
C1078 C1076 1.384 . S
C1078 C1079 1.372 . S
C1079 C1078 1.372 . S
C1079 C1080 1.400 . S
C1079 C1084 1.490 . S
C1080 H1070 0.930 . S
C1080 C1079 1.400 . S
C1080 C1083 1.386 . S
H1081 C1097 0.930 . S
H1082 C1098 0.931 . S
C1083 H1071 0.929 . S
C1083 C1077 1.390 . S
C1083 C1080 1.386 . S
C1084 C1079 1.490 . S
C1084 C1086 1.395 . S
C1084 C1087 1.403 . S
H1085 C1091 0.930 . S
C1086 H1072 0.930 . S
C1086 C1084 1.395 . S
C1086 C1089 1.403 . S
C1087 C1084 1.403 . S
C1087 C1088 1.524 . S
C1087 C1091 1.400 . S
C1088 H1073 0.960 . S
C1088 H1074 0.960 . S
C1088 H1075 0.960 . S
C1088 C1087 1.524 . S
C1089 C1086 1.403 . S
C1089 C1090 1.392 . S
C1089 C1093 1.495 . S
C1090 C1089 1.392 . S
C1090 C1091 1.385 . S
C1090 C1092 1.478 . S
C1091 H1085 0.930 . S
C1091 C1087 1.400 . S
C1091 C1090 1.385 . S
C1092 C1090 1.478 . S
C1092 C1094 1.381 . S
C1092 C1098 1.383 . S
C1093 C1089 1.495 . S
C1093 H1099 0.959 . S
C1093 H1100 0.961 . S
C1093 H1101 0.960 . S
C1094 C1092 1.381 . S
C1094 C1095 1.394 . S
C1094 H1102 0.930 . S
C1095 C1094 1.394 . S
C1095 C1096 1.383 . S
C1095 H1103 0.929 . S
C1096 C1095 1.383 . S
C1096 C1097 1.377 . S
C1097 H1081 0.930 . S
C1097 C1096 1.377 . S
C1097 C1098 1.379 . S
C1098 H1082 0.931 . S
C1098 C1092 1.383 . S
C1098 C1097 1.379 . S
H1099 C1093 0.959 . S
H1100 C1093 0.961 . S
H1101 C1093 0.960 . S
H1102 C1094 0.930 . S
H1103 C1095 0.929 . S
H1104 C1112 0.929 . S
H1105 C1114 0.930 . S
H1106 C1116 0.930 . S
H1107 C1119 0.929 . S
H1108 C1122 0.930 . S
H1109 C1124 0.960 . S
H1110 C1124 0.960 . S
H1111 C1124 0.960 . S
C1112 H1104 0.929 . S
C1112 C1113 1.377 . S
C1112 C1114 1.384 . S
C1113 C1112 1.377 . S
C1113 C1119 1.390 . S
C1114 H1105 0.930 . S
C1114 C1112 1.384 . S
C1114 C1115 1.372 . S
C1115 C1114 1.372 . S
C1115 C1116 1.400 . S
C1115 C1120 1.490 . S
C1116 H1106 0.930 . S
C1116 C1115 1.400 . S
C1116 C1119 1.386 . S
H1117 C1133 0.930 . S
H1118 C1134 0.931 . S
C1119 H1107 0.929 . S
C1119 C1113 1.390 . S
C1119 C1116 1.386 . S
C1120 C1115 1.490 . S
C1120 C1122 1.395 . S
C1120 C1123 1.403 . S
H1121 C1127 0.930 . S
C1122 H1108 0.930 . S
C1122 C1120 1.395 . S
C1122 C1125 1.403 . S
C1123 C1120 1.403 . S
C1123 C1124 1.524 . S
C1123 C1127 1.400 . S
C1124 H1109 0.960 . S
C1124 H1110 0.960 . S
C1124 H1111 0.960 . S
C1124 C1123 1.524 . S
C1125 C1122 1.403 . S
C1125 C1126 1.392 . S
C1125 C1129 1.495 . S
C1126 C1125 1.392 . S
C1126 C1127 1.385 . S
C1126 C1128 1.478 . S
C1127 H1121 0.930 . S
C1127 C1123 1.400 . S
C1127 C1126 1.385 . S
C1128 C1126 1.478 . S
C1128 C1130 1.381 . S
C1128 C1134 1.383 . S
C1129 C1125 1.495 . S
C1129 H1135 0.959 . S
C1129 H1136 0.961 . S
C1129 H1137 0.960 . S
C1130 C1128 1.381 . S
C1130 C1131 1.394 . S
C1130 H1138 0.930 . S
C1131 C1130 1.394 . S
C1131 C1132 1.383 . S
C1131 H1139 0.929 . S
C1132 C1131 1.383 . S
C1132 C1133 1.377 . S
C1133 H1117 0.930 . S
C1133 C1132 1.377 . S
C1133 C1134 1.379 . S
C1134 H1118 0.931 . S
C1134 C1128 1.383 . S
C1134 C1133 1.379 . S
H1135 C1129 0.959 . S
H1136 C1129 0.961 . S
H1137 C1129 0.960 . S
H1138 C1130 0.930 . S
H1139 C1131 0.929 . S
H1140 C1148 0.929 . S
H1141 C1150 0.930 . S
H1142 C1152 0.930 . S
H1143 C1155 0.929 . S
H1144 C1158 0.930 . S
H1145 C1160 0.960 . S
H1146 C1160 0.960 . S
H1147 C1160 0.960 . S
C1148 H1140 0.929 . S
C1148 C1149 1.377 . S
C1148 C1150 1.384 . S
C1149 C1148 1.377 . S
C1149 C1155 1.390 . S
C1150 H1141 0.930 . S
C1150 C1148 1.384 . S
C1150 C1151 1.372 . S
C1151 C1150 1.372 . S
C1151 C1152 1.400 . S
C1151 C1156 1.490 . S
C1152 H1142 0.930 . S
C1152 C1151 1.400 . S
C1152 C1155 1.386 . S
H1153 C1169 0.930 . S
H1154 C1170 0.931 . S
C1155 H1143 0.929 . S
C1155 C1149 1.390 . S
C1155 C1152 1.386 . S
C1156 C1151 1.490 . S
C1156 C1158 1.395 . S
C1156 C1159 1.403 . S
H1157 C1163 0.930 . S
C1158 H1144 0.930 . S
C1158 C1156 1.395 . S
C1158 C1161 1.403 . S
C1159 C1156 1.403 . S
C1159 C1160 1.524 . S
C1159 C1163 1.400 . S
C1160 H1145 0.960 . S
C1160 H1146 0.960 . S
C1160 H1147 0.960 . S
C1160 C1159 1.524 . S
C1161 C1158 1.403 . S
C1161 C1162 1.392 . S
C1161 C1165 1.495 . S
C1162 C1161 1.392 . S
C1162 C1163 1.385 . S
C1162 C1164 1.478 . S
C1163 H1157 0.930 . S
C1163 C1159 1.400 . S
C1163 C1162 1.385 . S
C1164 C1162 1.478 . S
C1164 C1166 1.381 . S
C1164 C1170 1.383 . S
C1165 C1161 1.495 . S
C1165 H1171 0.959 . S
C1165 H1172 0.961 . S
C1165 H1173 0.960 . S
C1166 C1164 1.381 . S
C1166 C1167 1.394 . S
C1166 H1174 0.930 . S
C1167 C1166 1.394 . S
C1167 C1168 1.383 . S
C1167 H1175 0.929 . S
C1168 C1167 1.383 . S
C1168 C1169 1.377 . S
C1169 H1153 0.930 . S
C1169 C1168 1.377 . S
C1169 C1170 1.379 . S
C1170 H1154 0.931 . S
C1170 C1164 1.383 . S
C1170 C1169 1.379 . S
H1171 C1165 0.959 . S
H1172 C1165 0.961 . S
H1173 C1165 0.960 . S
H1174 C1166 0.930 . S
H1175 C1167 0.929 . S
H1176 C1184 0.929 . S
H1177 C1186 0.930 . S
H1178 C1188 0.930 . S
H1179 C1191 0.929 . S
H1180 C1194 0.930 . S
H1181 C1196 0.960 . S
H1182 C1196 0.960 . S
H1183 C1196 0.960 . S
C1184 H1176 0.929 . S
C1184 C1185 1.377 . S
C1184 C1186 1.384 . S
C1185 C1184 1.377 . S
C1185 C1191 1.390 . S
C1186 H1177 0.930 . S
C1186 C1184 1.384 . S
C1186 C1187 1.372 . S
C1187 C1186 1.372 . S
C1187 C1188 1.400 . S
C1187 C1192 1.490 . S
C1188 H1178 0.930 . S
C1188 C1187 1.400 . S
C1188 C1191 1.386 . S
H1189 C1205 0.930 . S
H1190 C1206 0.931 . S
C1191 H1179 0.929 . S
C1191 C1185 1.390 . S
C1191 C1188 1.386 . S
C1192 C1187 1.490 . S
C1192 C1194 1.395 . S
C1192 C1195 1.403 . S
H1193 C1199 0.930 . S
C1194 H1180 0.930 . S
C1194 C1192 1.395 . S
C1194 C1197 1.403 . S
C1195 C1192 1.403 . S
C1195 C1196 1.524 . S
C1195 C1199 1.400 . S
C1196 H1181 0.960 . S
C1196 H1182 0.960 . S
C1196 H1183 0.960 . S
C1196 C1195 1.524 . S
C1197 C1194 1.403 . S
C1197 C1198 1.392 . S
C1197 C1201 1.495 . S
C1198 C1197 1.392 . S
C1198 C1199 1.385 . S
C1198 C1200 1.478 . S
C1199 H1193 0.930 . S
C1199 C1195 1.400 . S
C1199 C1198 1.385 . S
C1200 C1198 1.478 . S
C1200 C1202 1.381 . S
C1200 C1206 1.383 . S
C1201 C1197 1.495 . S
C1201 H1207 0.959 . S
C1201 H1208 0.961 . S
C1201 H1209 0.960 . S
C1202 C1200 1.381 . S
C1202 C1203 1.394 . S
C1202 H1210 0.930 . S
C1203 C1202 1.394 . S
C1203 C1204 1.383 . S
C1203 H1211 0.929 . S
C1204 C1203 1.383 . S
C1204 C1205 1.377 . S
C1205 H1189 0.930 . S
C1205 C1204 1.377 . S
C1205 C1206 1.379 . S
C1206 H1190 0.931 . S
C1206 C1200 1.383 . S
C1206 C1205 1.379 . S
H1207 C1201 0.959 . S
H1208 C1201 0.961 . S
H1209 C1201 0.960 . S
H1210 C1202 0.930 . S
H1211 C1203 0.929 . S
H1212 C1220 0.929 . S
H1213 C1222 0.930 . S
H1214 C1224 0.930 . S
H1215 C1227 0.929 . S
H1216 C1230 0.930 . S
H1217 C1232 0.960 . S
H1218 C1232 0.960 . S
H1219 C1232 0.960 . S
C1220 H1212 0.929 . S
C1220 C1221 1.377 . S
C1220 C1222 1.384 . S
C1221 C1220 1.377 . S
C1221 C1227 1.390 . S
C1222 H1213 0.930 . S
C1222 C1220 1.384 . S
C1222 C1223 1.372 . S
C1223 C1222 1.372 . S
C1223 C1224 1.400 . S
C1223 C1228 1.490 . S
C1224 H1214 0.930 . S
C1224 C1223 1.400 . S
C1224 C1227 1.386 . S
H1225 C1241 0.930 . S
H1226 C1242 0.931 . S
C1227 H1215 0.929 . S
C1227 C1221 1.390 . S
C1227 C1224 1.386 . S
C1228 C1223 1.490 . S
C1228 C1230 1.395 . S
C1228 C1231 1.403 . S
H1229 C1235 0.930 . S
C1230 H1216 0.930 . S
C1230 C1228 1.395 . S
C1230 C1233 1.403 . S
C1231 C1228 1.403 . S
C1231 C1232 1.524 . S
C1231 C1235 1.400 . S
C1232 H1217 0.960 . S
C1232 H1218 0.960 . S
C1232 H1219 0.960 . S
C1232 C1231 1.524 . S
C1233 C1230 1.403 . S
C1233 C1234 1.392 . S
C1233 C1237 1.495 . S
C1234 C1233 1.392 . S
C1234 C1235 1.385 . S
C1234 C1236 1.478 . S
C1235 H1229 0.930 . S
C1235 C1231 1.400 . S
C1235 C1234 1.385 . S
C1236 C1234 1.478 . S
C1236 C1238 1.381 . S
C1236 C1242 1.383 . S
C1237 C1233 1.495 . S
C1237 H1243 0.959 . S
C1237 H1244 0.961 . S
C1237 H1245 0.960 . S
C1238 C1236 1.381 . S
C1238 C1239 1.394 . S
C1238 H1246 0.930 . S
C1239 C1238 1.394 . S
C1239 C1240 1.383 . S
C1239 H1247 0.929 . S
C1240 C1239 1.383 . S
C1240 C1241 1.377 . S
C1241 H1225 0.930 . S
C1241 C1240 1.377 . S
C1241 C1242 1.379 . S
C1242 H1226 0.931 . S
C1242 C1236 1.383 . S
C1242 C1241 1.379 . S
H1243 C1237 0.959 . S
H1244 C1237 0.961 . S
H1245 C1237 0.960 . S
H1246 C1238 0.930 . S
H1247 C1239 0.929 . S
H1248 C1256 0.929 . S
H1249 C1258 0.930 . S
H1250 C1260 0.930 . S
H1251 C1263 0.929 . S
H1252 C1266 0.930 . S
H1253 C1268 0.960 . S
H1254 C1268 0.963 . S
H1255 C1268 0.941 1_554 S
C1256 H1248 0.929 . S
C1256 C1257 1.377 . S
C1256 C1258 1.384 . S
C1257 C1256 1.377 . S
C1257 C1263 1.390 . S
C1258 H1249 0.930 . S
C1258 C1256 1.384 . S
C1258 C1259 1.372 . S
C1259 C1258 1.372 . S
C1259 C1260 1.400 . S
C1259 C1264 1.490 . S
C1260 H1250 0.930 . S
C1260 C1259 1.400 . S
C1260 C1263 1.386 . S
H1261 C1277 0.930 . S
H1262 C1278 0.931 . S
C1263 H1251 0.929 . S
C1263 C1257 1.390 . S
C1263 C1260 1.386 . S
C1264 C1259 1.490 . S
C1264 C1266 1.395 . S
C1264 C1267 1.403 . S
H1265 C1271 0.930 . S
C1266 H1252 0.930 . S
C1266 C1264 1.395 . S
C1266 C1269 1.403 . S
C1267 C1264 1.403 . S
C1267 C1268 1.524 1_554 S
C1267 C1271 1.400 1_554 S
C1268 H1253 0.960 . S
C1268 H1254 0.963 . S
C1268 H1255 0.941 1_556 S
C1268 C1267 1.524 1_556 S
C1269 C1266 1.403 . S
C1269 C1270 1.392 1_554 S
C1269 C1273 1.495 . S
C1270 C1269 1.392 1_556 S
C1270 C1271 1.385 . S
C1270 C1272 1.478 . S
C1271 H1265 0.930 . S
C1271 C1267 1.400 1_556 S
C1271 C1270 1.385 . S
C1272 C1270 1.478 . S
C1272 C1274 1.381 . S
C1272 C1278 1.383 . S
C1273 C1269 1.495 . S
C1273 H1279 0.959 . S
C1273 H1280 0.961 . S
C1273 H1281 0.960 . S
C1274 C1272 1.381 . S
C1274 C1275 1.394 . S
C1274 H1282 0.930 . S
C1275 C1274 1.394 . S
C1275 C1276 1.383 . S
C1275 H1283 0.929 . S
C1276 C1275 1.383 . S
C1276 C1277 1.377 . S
C1277 H1261 0.930 . S
C1277 C1276 1.377 . S
C1277 C1278 1.379 . S
C1278 H1262 0.931 . S
C1278 C1272 1.383 . S
C1278 C1277 1.379 . S
H1279 C1273 0.959 . S
H1280 C1273 0.961 . S
H1281 C1273 0.960 . S
H1282 C1274 0.930 . S
H1283 C1275 0.929 . S
H1284 C1292 0.929 . S
H1285 C1294 0.930 . S
H1286 C1296 0.930 . S
H1287 C1299 0.929 . S
H1288 C1302 0.930 . S
H1289 C1304 0.960 . S
H1290 C1304 0.960 . S
H1291 C1304 0.960 . S
C1292 H1284 0.929 . S
C1292 C1293 1.377 . S
C1292 C1294 1.384 . S
C1293 C1292 1.377 . S
C1293 C1299 1.390 . S
C1294 H1285 0.930 . S
C1294 C1292 1.384 . S
C1294 C1295 1.372 . S
C1295 C1294 1.372 . S
C1295 C1296 1.400 . S
C1295 C1300 1.490 . S
C1296 H1286 0.930 . S
C1296 C1295 1.400 . S
C1296 C1299 1.386 . S
H1297 C1313 0.930 . S
H1298 C1314 0.931 . S
C1299 H1287 0.929 . S
C1299 C1293 1.390 . S
C1299 C1296 1.386 . S
C1300 C1295 1.490 . S
C1300 C1302 1.395 . S
C1300 C1303 1.403 . S
H1301 C1307 0.930 . S
C1302 H1288 0.930 . S
C1302 C1300 1.395 . S
C1302 C1305 1.403 . S
C1303 C1300 1.403 . S
C1303 C1304 1.524 . S
C1303 C1307 1.400 . S
C1304 H1289 0.960 . S
C1304 H1290 0.960 . S
C1304 H1291 0.960 . S
C1304 C1303 1.524 . S
C1305 C1302 1.403 . S
C1305 C1306 1.392 . S
C1305 C1309 1.495 . S
C1306 C1305 1.392 . S
C1306 C1307 1.385 . S
C1306 C1308 1.478 . S
C1307 H1301 0.930 . S
C1307 C1303 1.400 . S
C1307 C1306 1.385 . S
C1308 C1306 1.478 . S
C1308 C1310 1.381 . S
C1308 C1314 1.383 . S
C1309 C1305 1.495 . S
C1309 H1315 0.959 . S
C1309 H1316 0.961 . S
C1309 H1317 0.960 . S
C1310 C1308 1.381 . S
C1310 C1311 1.394 . S
C1310 H1318 0.930 . S
C1311 C1310 1.394 . S
C1311 C1312 1.383 . S
C1311 H1319 0.929 . S
C1312 C1311 1.383 . S
C1312 C1313 1.377 . S
C1313 H1297 0.930 . S
C1313 C1312 1.377 . S
C1313 C1314 1.379 . S
C1314 H1298 0.931 . S
C1314 C1308 1.383 . S
C1314 C1313 1.379 . S
H1315 C1309 0.959 . S
H1316 C1309 0.961 . S
H1317 C1309 0.960 . S
H1318 C1310 0.930 . S
H1319 C1311 0.929 . S
C484 C449 1.622 . S
C465 C29 1.527 . S
C501 C115 1.364 . S
C520 C383 1.379 . S
C537 C153 1.348 . S
C556 C397 1.415 . S
C573 C239 1.361 . S
C592 C411 1.356 . S
C628 C425 1.456 . S
C609 C301 1.468 . S
C645 C339 1.746 . S
C664 C435 1.838 . S
C681 C91 1.538 . S
C700 C393 1.628 . S
C717 C177 1.576 . S
C736 C407 1.602 . S
C753 C215 1.527 . S
C772 C421 1.619 . S
C808 C439 1.800 . S
C789 C277 1.718 . S
C844 C453 1.485 . S
C825 C363 1.470 . S
C880 C379 1.494 . S
C861 C53 1.469 . S
C897 C35 1.569 . S
C916 C394 1.556 . S
C933 C109 1.492 . S
C952 C408 1.564 . S
C988 C422 1.523 . S
C969 C159 1.530 . S
C1005 C233 1.600 . S
C1024 C441 1.637 . S
C1060 C455 1.393 . S
C1041 C295 1.370 . S
C1096 C380 1.294 . S
C1077 C345 1.335 . S
C1132 C450 1.362 . S
C1113 C97 1.389 . S
C1149 C171 1.242 . S
C1168 C385 1.256 . S
C1204 C399 1.399 . S
C1185 C221 1.401 . S
C1221 C283 1.300 . S
C1240 C413 1.238 . S
C1257 C357 1.387 . S
C1276 C427 1.456 . S
C1293 C47 1.638 . S
C1312 C436 1.699 . S
