# Generated by pormake.
# Topology sqc, (4,8)-cn, num edge types: 1
# Building blocks:
#     Node 0, Type 0, BuildingBlock: AZAVOO_clean_linker_0, # of connection points: 4
#     Node 1, Type 0, BuildingBlock: AZAVOO_clean_linker_0, # of connection points: 4
#     Node 2, Type 0, BuildingBlock: AZAVOO_clean_linker_0, # of connection points: 4
#     Node 3, Type 0, BuildingBlock: AZAVOO_clean_linker_0, # of connection points: 4
#     Node 4, Type 0, BuildingBlock: AZAVOO_clean_linker_0, # of connection points: 4
#     Node 5, Type 0, BuildingBlock: AZAVOO_clean_linker_0, # of connection points: 4
#     Node 6, Type 0, BuildingBlock: AZAVOO_clean_linker_0, # of connection points: 4
#     Node 7, Type 0, BuildingBlock: AZAVOO_clean_linker_0, # of connection points: 4
#     Node 8, Type 1, BuildingBlock: VETTIZ_charged_sbu_0, # of connection points: 8
#     Node 9, Type 1, BuildingBlock: VETTIZ_charged_sbu_0, # of connection points: 8
#     Node 10, Type 1, BuildingBlock: VETTIZ_charged_sbu_0, # of connection points: 8
#     Node 11, Type 1, BuildingBlock: VETTIZ_charged_sbu_0, # of connection points: 8
#     Edge 12, Type (0, 1), None
#     Edge 13, Type (0, 1), None
#     Edge 14, Type (0, 1), None
#     Edge 15, Type (0, 1), None
#     Edge 16, Type (0, 1), None
#     Edge 17, Type (0, 1), None
#     Edge 18, Type (0, 1), None
#     Edge 19, Type (0, 1), None
#     Edge 20, Type (0, 1), None
#     Edge 21, Type (0, 1), None
#     Edge 22, Type (0, 1), None
#     Edge 23, Type (0, 1), None
#     Edge 24, Type (0, 1), None
#     Edge 25, Type (0, 1), None
#     Edge 26, Type (0, 1), None
#     Edge 27, Type (0, 1), None
#     Edge 28, Type (0, 1), None
#     Edge 29, Type (0, 1), None
#     Edge 30, Type (0, 1), None
#     Edge 31, Type (0, 1), None
#     Edge 32, Type (0, 1), None
#     Edge 33, Type (0, 1), None
#     Edge 34, Type (0, 1), None
#     Edge 35, Type (0, 1), None
#     Edge 36, Type (0, 1), None
#     Edge 37, Type (0, 1), None
#     Edge 38, Type (0, 1), None
#     Edge 39, Type (0, 1), None
#     Edge 40, Type (0, 1), None
#     Edge 41, Type (0, 1), None
#     Edge 42, Type (0, 1), None
#     Edge 43, Type (0, 1), None
# Relax obj value: 0.197
# Max RMSD: 0.323
# Mean RMSD: 0.235
data_MOF--net-sqc--node1-VETTIZ_charged_sbu_0--node2-AZAVOO_clean_linker_0--edge1-none
_symmetry_space_group_name_H-M    P1
_symmetry_Int_Tables_number       1
_symmetry_cell_setting            triclinic
loop_
_symmetry_equiv_pos_as_xyz
'x, y, z'
_cell_length_a     14.847946
_cell_length_b     14.76533
_cell_length_c     50.36786
_cell_angle_alpha  89.785665
_cell_angle_beta   89.563373
_cell_angle_gamma 90.598524
loop_
_atom_site_label
_atom_site_type_symbol
_atom_site_fract_x
_atom_site_fract_y
_atom_site_fract_z
_atom_type_partial_charge
H0 H 0.07221 0.2979 0.69668 0.0
H1 H 0.51964 0.71894 0.56699 0.0
H2 H 0.14249 0.22458 0.53985 0.0
H3 H 0.22345 0.32491 0.57047 0.0
H4 H 0.33812 0.09264 0.60888 0.0
H5 H 0.25696 0.99204 0.57844 0.0
H6 H 0.01276 0.21545 0.5845 0.0
H7 H 0.03081 0.27622 0.62931 0.0
H8 H 0.11884 0.01363 0.65653 0.0
H9 H 0.10056 0.95389 0.61158 0.0
H10 H 0.85098 0.13024 0.5401 0.0
H11 H 0.71488 0.18931 0.5582 0.0
H12 H 0.7694 0.05607 0.63295 0.0
H13 H 0.89729 0.9781 0.61182 0.0
H14 H 0.79007 0.02255 0.51089 0.0
H15 H 0.64305 0.95374 0.51414 0.0
H16 H 0.75041 0.74657 0.56509 0.0
H17 H 0.90101 0.81231 0.55957 0.0
H18 H 0.93547 0.12666 0.49034 0.0
H19 H 0.80327 0.1085 0.46198 0.0
H20 H 0.87832 0.83227 0.44719 0.0
H21 H 0.0061 0.84868 0.47729 0.0
H22 H 0.15114 0.09444 0.47408 0.0
H23 H 0.28471 0.06012 0.44655 0.0
H24 H 0.36296 0.85627 0.50305 0.0
H25 H 0.23065 0.89055 0.53042 0.0
O26 O 0.06697 0.27349 0.67894 0.0
O27 O 0.11382 0.13775 0.69166 0.0
O28 O 0.52763 0.84729 0.53558 0.0
O29 O 0.57951 0.74066 0.56257 0.0
C30 C 0.11525 0.04606 0.54855 0.0
C31 C 0.04466 0.04313 0.56754 0.0
C32 C 0.96055 0.00915 0.56051 0.0
C33 C 0.94715 0.96948 0.53561 0.0
C34 C 0.01235 0.9832 0.51511 0.0
C35 C 0.10073 0.01432 0.52208 0.0
C36 C 0.19504 0.10049 0.55641 0.0
C37 C 0.18807 0.19523 0.55414 0.0
C38 C 0.23075 0.2524 0.5724 0.0
C39 C 0.2817 0.21617 0.59314 0.0
C40 C 0.29423 0.12194 0.59413 0.0
C41 C 0.25205 0.0647 0.57583 0.0
C42 C 0.0565 0.08068 0.59476 0.0
C43 C 0.03624 0.17139 0.60016 0.0
C44 C 0.04657 0.20584 0.62578 0.0
C45 C 0.07677 0.1499 0.64648 0.0
C46 C 0.09598 0.05867 0.64101 0.0
C47 C 0.08568 0.02437 0.61538 0.0
C48 C 0.88049 0.04543 0.57402 0.0
C49 C 0.83015 0.10814 0.55978 0.0
C50 C 0.75228 0.14245 0.57038 0.0
C51 C 0.72799 0.12314 0.5968 0.0
C52 C 0.78268 0.06615 0.61203 0.0
C53 C 0.85677 0.02399 0.60029 0.0
C54 C 0.86035 0.91805 0.53241 0.0
C55 C 0.78523 0.95739 0.52027 0.0
C56 C 0.69924 0.91972 0.52328 0.0
C57 C 0.68513 0.84378 0.53964 0.0
C58 C 0.75952 0.80393 0.55189 0.0
C59 C 0.84585 0.84104 0.54849 0.0
C60 C 0.97731 0.98699 0.4874 0.0
C61 C 0.92589 0.06299 0.48006 0.0
C62 C 0.84912 0.05238 0.46398 0.0
C63 C 0.82449 0.96576 0.45491 0.0
C64 C 0.88994 0.89721 0.45647 0.0
C65 C 0.9647 0.90687 0.47316 0.0
C66 C 0.18031 0.99535 0.50445 0.0
C67 C 0.19673 0.04206 0.48048 0.0
C68 C 0.27329 0.02237 0.46477 0.0
C69 C 0.334 0.95415 0.47237 0.0
C70 C 0.31688 0.90764 0.49631 0.0
C71 C 0.24144 0.92795 0.51209 0.0
C72 C 0.08742 0.18644 0.67371 0.0
C73 C 0.59263 0.81055 0.54557 0.0
H74 H 0.46436 0.81717 0.61391 0.0
H75 H 0.3795 0.41036 0.81455 0.0
H76 H 0.21828 0.65396 0.73887 0.0
H77 H 0.25404 0.5273 0.70915 0.0
H78 H 0.45481 0.43967 0.76446 0.0
H79 H 0.42736 0.57143 0.79213 0.0
H80 H 0.25828 0.79287 0.71271 0.0
H81 H 0.31237 0.78493 0.6668 0.0
H82 H 0.57768 0.71971 0.69477 0.0
H83 H 0.52281 0.72511 0.74083 0.0
H84 H 0.24546 0.96374 0.73133 0.0
H85 H 0.28284 0.09291 0.70208 0.0
H86 H 0.56415 0.06212 0.7209 0.0
H87 H 0.52729 0.93288 0.74944 0.0
H88 H 0.19496 0.01152 0.78471 0.0
H89 H 0.18227 0.17617 0.78877 0.0
H90 H 0.46764 0.19539 0.80432 0.0
H91 H 0.47966 0.03075 0.7993 0.0
H92 H 0.15748 0.86212 0.83163 0.0
H93 H 0.10355 0.99546 0.85385 0.0
H94 H 0.37496 0.08878 0.8657 0.0
H95 H 0.4297 0.9471 0.84584 0.0
H96 H 0.17066 0.65092 0.79981 0.0
H97 H 0.1344 0.51299 0.82186 0.0
H98 H 0.34472 0.56186 0.8792 0.0
H99 H 0.39087 0.69859 0.85315 0.0
O100 O 0.44089 0.80849 0.63173 0.0
O101 O 0.555 0.72096 0.64377 0.0
O102 O 0.2463 0.33654 0.79499 0.0
O103 O 0.38454 0.34603 0.81136 0.0
C104 C 0.33262 0.72165 0.7771 0.0
C105 C 0.35936 0.78504 0.75757 0.0
C106 C 0.36183 0.87684 0.76356 0.0
C107 C 0.3441 0.90907 0.78911 0.0
C108 C 0.32476 0.84814 0.81029 0.0
C109 C 0.31771 0.75232 0.8042 0.0
C110 C 0.32225 0.62486 0.7675 0.0
C111 C 0.26776 0.60536 0.74515 0.0
C112 C 0.28716 0.53226 0.72811 0.0
C113 C 0.35771 0.47382 0.73401 0.0
C114 C 0.40066 0.48441 0.7589 0.0
C115 C 0.38456 0.55968 0.77513 0.0
C116 C 0.38628 0.75809 0.73013 0.0
C117 C 0.32734 0.77346 0.70891 0.0
C118 C 0.35857 0.77006 0.68275 0.0
C119 C 0.44937 0.75152 0.67736 0.0
C120 C 0.50715 0.73191 0.69851 0.0
C121 C 0.47587 0.73496 0.72474 0.0
C122 C 0.38411 0.94159 0.74253 0.0
C123 C 0.31526 0.9835 0.72826 0.0
C124 C 0.33631 0.05575 0.71154 0.0
C125 C 0.42563 0.08561 0.70964 0.0
C126 C 0.49484 0.0385 0.7222 0.0
C127 C 0.47413 0.96596 0.73855 0.0
C128 C 0.33747 0.00921 0.79248 0.0
C129 C 0.25431 0.05152 0.78915 0.0
C130 C 0.24745 0.14542 0.79136 0.0
C131 C 0.32366 0.19864 0.79733 0.0
C132 C 0.40745 0.15616 0.80009 0.0
C133 C 0.41451 0.06228 0.79731 0.0
C134 C 0.2977 0.89306 0.83619 0.0
C135 C 0.20581 0.90721 0.8405 0.0
C136 C 0.1748 0.9874 0.8522 0.0
C137 C 0.23398 0.05802 0.85966 0.0
C138 C 0.32649 0.03792 0.85952 0.0
C139 C 0.35782 0.95527 0.84853 0.0
C140 C 0.28486 0.68411 0.82402 0.0
C141 C 0.21033 0.63224 0.81684 0.0
C142 C 0.18993 0.5521 0.82983 0.0
C143 C 0.23796 0.52334 0.8524 0.0
C144 C 0.30766 0.58021 0.86165 0.0
C145 C 0.33268 0.65927 0.84707 0.0
C146 C 0.48487 0.75847 0.64993 0.0
C147 C 0.31563 0.29785 0.801 0.0
H148 H 0.4389 0.72573 0.16053 0.0
H149 H 0.07419 0.41946 0.04968 0.0
H150 H 0.35986 0.93484 0.0238 0.0
H151 H 0.22897 0.89967 0.05037 0.0
H152 H 0.27892 0.13289 0.09856 0.0
H153 H 0.39277 0.18569 0.06625 0.0
H154 H 0.5223 0.88553 0.05694 0.0
H155 H 0.48344 0.79509 0.09627 0.0
H156 H 0.46937 0.0397 0.14283 0.0
H157 H 0.50658 0.12914 0.10322 0.0
H158 H 0.78179 0.99869 0.04248 0.0
H159 H 0.90528 0.97143 0.07241 0.0
H160 H 0.76043 0.10993 0.13424 0.0
H161 H 0.65432 0.16695 0.10089 0.0
H162 H 0.82628 0.07557 0.0071 0.0
H163 H 0.97082 0.14735 0.01281 0.0
H164 H 0.8417 0.37857 0.04786 0.0
H165 H 0.69462 0.3051 0.042 0.0
H166 H 0.69437 0.98087 0.97907 0.0
H167 H 0.83949 1.00452 0.95644 0.0
H168 H 0.7684 0.27966 0.9397 0.0
H169 H 0.629 0.26097 0.96604 0.0
H170 H 0.41573 0.94555 0.98406 0.0
H171 H 0.26528 0.95837 0.96363 0.0
H172 H 0.31722 0.24295 0.95079 0.0
H173 H 0.45672 0.23282 0.97561 0.0
O174 O 0.45167 0.76327 0.14515 0.0
O175 O 0.44029 0.89107 0.16812 0.0
O176 O 0.07585 0.27475 0.02607 0.0
O177 O 0.01559 0.39231 0.0467 0.0
C178 C 0.48253 0.07362 0.03273 0.0
C179 C 0.54734 0.06608 0.05317 0.0
C180 C 0.63533 0.10004 0.04923 0.0
C181 C 0.66012 0.13546 0.02418 0.0
C182 C 0.60412 0.11954 0.00172 0.0
C183 C 0.5119 0.09108 0.00587 0.0
C184 C 0.38591 0.0655 0.04171 0.0
C185 C 0.33697 0.98514 0.0376 0.0
C186 C 0.26478 0.96143 0.05423 0.0
C187 C 0.24792 0.00953 0.07764 0.0
C188 C 0.29126 0.09344 0.0809 0.0
C189 C 0.35609 0.12348 0.06223 0.0
C190 C 0.52391 0.01322 0.07759 0.0
C191 C 0.51353 0.91904 0.07584 0.0
C192 C 0.4903 0.86772 0.09824 0.0
C193 C 0.47599 0.90985 0.12285 0.0
C194 C 0.48236 1.00483 0.12433 0.0
C195 C 0.50525 0.05604 0.10182 0.0
C196 C 0.70762 0.08397 0.0692 0.0
C197 C 0.78052 0.03027 0.06176 0.0
C198 C 0.85055 0.01345 0.07913 0.0
C199 C 0.84169 0.03654 0.10584 0.0
C200 C 0.76998 0.09244 0.11358 0.0
C201 C 0.70637 0.12064 0.09489 0.0
C202 C 0.74758 0.18683 0.02234 0.0
C203 C 0.82725 0.14409 0.01427 0.0
C204 C 0.91106 0.18469 0.0182 0.0
C205 C 0.91796 0.27026 0.02992 0.0
C206 C 0.8387 0.31353 0.03818 0.0
C207 C 0.75441 0.27203 0.03452 0.0
C208 C 0.65138 0.1199 0.9753 0.0
C209 C 0.70773 0.04582 0.96967 0.0
C210 C 0.79191 0.05959 0.95705 0.0
C211 C 0.81849 0.14668 0.94866 0.0
C212 C 0.75286 0.2146 0.94849 0.0
C213 C 0.67122 0.20274 0.96259 0.0
C214 C 0.44421 0.08965 0.98362 0.0
C215 C 0.39334 0.01112 0.97733 0.0
C216 C 0.30872 0.01759 0.96463 0.0
C217 C 0.27772 0.10207 0.95585 0.0
C218 C 0.33823 0.17666 0.9575 0.0
C219 C 0.41873 0.17127 0.9718 0.0
C220 C 0.45457 0.85457 0.14678 0.0
C221 C 0.00786 0.31241 0.03404 0.0
H222 H 0.17374 0.28789 0.10654 0.0
H223 H 0.30068 0.93829 0.28623 0.0
H224 H 0.1525 0.16032 0.27342 0.0
H225 H 0.09615 0.04843 0.2416 0.0
H226 H 0.36321 0.02792 0.20799 0.0
H227 H 0.42048 0.13203 0.24149 0.0
H228 H 0.14382 0.31883 0.22214 0.0
H229 H 0.12908 0.31138 0.17377 0.0
H230 H 0.41596 0.27006 0.16654 0.0
H231 H 0.43008 0.28265 0.21475 0.0
H232 H 0.1428 0.50374 0.25942 0.0
H233 H 0.11813 0.64844 0.23839 0.0
H234 H 0.36762 0.62146 0.19415 0.0
H235 H 0.39701 0.47982 0.21823 0.0
H236 H 0.18406 0.51267 0.31565 0.0
H237 H 0.16139 0.67532 0.32202 0.0
H238 H 0.40441 0.73204 0.27683 0.0
H239 H 0.42706 0.5698 0.27099 0.0
H240 H 0.26759 0.38485 0.35376 0.0
H241 H 0.30207 0.51346 0.38352 0.0
H242 H 0.52478 0.58931 0.33282 0.0
H243 H 0.50296 0.45204 0.30709 0.0
H244 H 0.25365 0.113 0.31355 0.0
H245 H 0.31544 0.98291 0.33761 0.0
H246 H 0.56839 0.12402 0.34417 0.0
H247 H 0.50993 0.25083 0.3183 0.0
O248 O 0.18075 0.28936 0.12563 0.0
O249 O 0.3302 0.28393 0.12292 0.0
O250 O 0.20129 0.84358 0.3149 0.0
O251 O 0.31314 0.8741 0.28649 0.0
C252 C 0.31345 0.24821 0.26948 0.0
C253 C 0.29872 0.31844 0.25077 0.0
C254 C 0.29551 0.4083 0.25903 0.0
C255 C 0.31361 0.43115 0.28541 0.0
C256 C 0.34444 0.36455 0.30362 0.0
C257 C 0.34253 0.26945 0.29601 0.0
C258 C 0.29102 0.15511 0.25991 0.0
C259 C 0.19981 0.12809 0.26007 0.0
C260 C 0.16682 0.06686 0.24116 0.0
C261 C 0.2232 0.0348 0.22083 0.0
C262 C 0.31633 0.05432 0.22253 0.0
C263 C 0.35003 0.11228 0.24219 0.0
C264 C 0.28753 0.29956 0.22196 0.0
C265 C 0.20295 0.30693 0.21007 0.0
C266 C 0.19488 0.30259 0.18247 0.0
C267 C 0.27119 0.28923 0.16632 0.0
C268 C 0.35574 0.28007 0.17839 0.0
C269 C 0.36386 0.28619 0.20594 0.0
C270 C 0.27127 0.48136 0.24028 0.0
C271 C 0.19189 0.52868 0.24506 0.0
C272 C 0.17907 0.61242 0.23333 0.0
C273 C 0.24154 0.64706 0.21468 0.0
C274 C 0.31866 0.59671 0.20853 0.0
C275 C 0.33431 0.51486 0.22168 0.0
C276 C 0.30721 0.52924 0.29291 0.0
C277 C 0.23341 0.56026 0.30771 0.0
C278 C 0.22035 0.6532 0.31115 0.0
C279 C 0.28054 0.71664 0.29963 0.0
C280 C 0.3563 0.68515 0.28573 0.0
C281 C 0.36955 0.59247 0.28244 0.0
C282 C 0.38408 0.40543 0.3283 0.0
C283 C 0.32739 0.42571 0.35006 0.0
C284 C 0.34353 0.50305 0.36603 0.0
C285 C 0.41243 0.5664 0.35955 0.0
C286 C 0.46861 0.5452 0.33794 0.0
C287 C 0.45891 0.46338 0.32398 0.0
C288 C 0.37694 0.19309 0.31343 0.0
C289 C 0.32384 0.11506 0.31913 0.0
C290 C 0.35969 0.03921 0.33255 0.0
C291 C 0.45014 0.03813 0.34067 0.0
C292 C 0.50168 0.11772 0.33593 0.0
C293 C 0.46664 0.19274 0.32212 0.0
C294 C 0.26284 0.28711 0.13699 0.0
C295 C 0.26272 0.81521 0.30104 0.0
H296 H 0.92316 0.24297 0.1252 0.0
H297 H 0.75045 0.89035 0.29034 0.0
H298 H 0.70916 0.11396 0.24454 0.0
H299 H 0.72174 0.96893 0.22223 0.0
H300 H 0.97647 0.92466 0.2613 0.0
H301 H 0.96189 0.07007 0.28377 0.0
H302 H 0.77232 0.25909 0.20406 0.0
H303 H 0.8315 0.22068 0.16024 0.0
H304 H 0.08424 0.14636 0.19564 0.0
H305 H 0.02532 0.19077 0.23929 0.0
H306 H 0.73961 0.44198 0.22223 0.0
H307 H 0.7726 0.56927 0.19313 0.0
H308 H 0.05732 0.53181 0.2046 0.0
H309 H 0.02271 0.40733 0.23617 0.0
H310 H 0.65131 0.45054 0.28003 0.0
H311 H 0.60137 0.60732 0.28373 0.0
H312 H 0.87905 0.6988 0.28137 0.0
H313 H 0.92819 0.54142 0.27813 0.0
H314 H 0.65205 0.32614 0.33046 0.0
H315 H 0.59979 0.4536 0.35742 0.0
H316 H 0.85682 0.58517 0.35002 0.0
H317 H 0.91593 0.44969 0.32804 0.0
H318 H 0.68132 0.10256 0.29652 0.0
H319 H 0.65758 0.97312 0.32565 0.0
H320 H 0.8574 0.07839 0.37893 0.0
H321 H 0.89206 0.20238 0.34719 0.0
O322 O 0.97039 0.19846 0.12529 0.0
O323 O 0.06817 0.11161 0.14603 0.0
O324 O 0.62643 0.77852 0.28674 0.0
O325 O 0.76824 0.82787 0.28853 0.0
C326 C 0.83912 0.20038 0.2719 0.0
C327 C 0.86343 0.2606 0.25097 0.0
C328 C 0.85576 0.3541 0.25428 0.0
C329 C 0.82228 0.38799 0.27836 0.0
C330 C 0.80945 0.33003 0.30094 0.0
C331 C 0.81419 0.23308 0.2976 0.0
C332 C 0.83547 0.10281 0.26532 0.0
C333 C 0.76587 0.07106 0.24904 0.0
C334 C 0.77322 0.98791 0.23634 0.0
C335 C 0.85161 0.93634 0.2392 0.0
C336 C 0.91569 0.96317 0.25827 0.0
C337 C 0.90781 0.04638 0.27117 0.0
C338 C 0.89468 0.22623 0.22484 0.0
C339 C 0.84032 0.23378 0.2023 0.0
C340 C 0.87458 0.21202 0.17722 0.0
C341 C 0.96329 0.18065 0.17434 0.0
C342 C 0.01568 0.16963 0.19722 0.0
C343 C 0.98221 0.19385 0.22214 0.0
C344 C 0.87852 0.41766 0.23207 0.0
C345 C 0.8093 0.46089 0.2185 0.0
C346 C 0.82882 0.53389 0.20179 0.0
C347 C 0.91835 0.56497 0.198 0.0
C348 C 0.9882 0.51367 0.20878 0.0
C349 C 0.96842 0.4415 0.22621 0.0
C350 C 0.7933 0.48452 0.27919 0.0
C351 C 0.70121 0.50457 0.28035 0.0
C352 C 0.67288 0.59415 0.28239 0.0
C353 C 0.7363 0.66552 0.28309 0.0
C354 C 0.82854 0.64537 0.28111 0.0
C355 C 0.85681 0.55563 0.27912 0.0
C356 C 0.78766 0.3784 0.32629 0.0
C357 C 0.69825 0.38079 0.3352 0.0
C358 C 0.66601 0.45741 0.34857 0.0
C359 C 0.71894 0.53697 0.35117 0.0
C360 C 0.81128 0.52959 0.34556 0.0
C361 C 0.84578 0.45003 0.33413 0.0
C362 C 0.79004 0.16329 0.31893 0.0
C363 C 0.72418 0.09619 0.31369 0.0
C364 C 0.71156 0.02022 0.33028 0.0
C365 C 0.75881 0.01104 0.35418 0.0
C366 C 0.82314 0.07955 0.36003 0.0
C367 C 0.84028 0.15308 0.34236 0.0
C368 C 1.00302 0.16113 0.14777 0.0
C369 C 0.70664 0.76055 0.28617 0.0
H370 H 0.64333 0.88371 0.59953 0.0
H371 H 0.96737 0.20528 0.76506 0.0
H372 H 0.98525 1.00487 0.71298 0.0
H373 H 0.91061 0.1279 0.68899 0.0
H374 H 0.71735 0.14544 0.75347 0.0
H375 H 0.78541 0.0192 0.77533 0.0
H376 H 0.92933 0.84146 0.67809 0.0
H377 H 0.8327 0.86128 0.63938 0.0
H378 H 0.61223 0.93524 0.69092 0.0
H379 H 0.70749 0.91109 0.7296 0.0
H380 H 0.95063 0.66572 0.69084 0.0
H381 H 0.87804 0.52734 0.67289 0.0
H382 H 0.63934 0.5868 0.71918 0.0
H383 H 0.71378 0.71943 0.7373 0.0
H384 H 0.08236 0.64365 0.7621 0.0
H385 H 0.12627 0.48394 0.7652 0.0
H386 H 0.84628 0.40395 0.76006 0.0
H387 H 0.80379 0.56248 0.75903 0.0
H388 H 0.04582 0.7768 0.82011 0.0
H389 H 0.07054 0.66324 0.85511 0.0
H390 H 0.82922 0.52224 0.83114 0.0
H391 H 0.79481 0.64739 0.8009 0.0
H392 H 0.03798 0.99494 0.77875 0.0
H393 H 0.04981 0.1145 0.811 0.0
H394 H 0.8457 0.98472 0.85993 0.0
H395 H 0.82397 0.86959 0.825 0.0
O396 O 0.68065 0.87685 0.61505 0.0
O397 O 0.58434 0.95099 0.64088 0.0
O398 O 0.09472 0.3132 0.76026 0.0
O399 O 0.95191 0.26881 0.76491 0.0
C400 C 0.89948 0.90206 0.75133 0.0
C401 C 0.8776 0.84423 0.73042 0.0
C402 C 0.88862 0.75164 0.73382 0.0
C403 C 0.91662 0.71337 0.75789 0.0
C404 C 0.91883 0.76772 0.78069 0.0
C405 C 0.91473 0.86355 0.77716 0.0
C406 C 0.8893 1.00089 0.74569 0.0
C407 C 0.92878 0.03829 0.72236 0.0
C408 C 0.8854 0.10757 0.70835 0.0
C409 C 0.80554 0.14403 0.71844 0.0
C410 C 0.77664 0.11697 0.7442 0.0
C411 C 0.81737 0.04581 0.7575 0.0
C412 C 0.82624 0.87662 0.70671 0.0
C413 C 0.86078 0.86408 0.68097 0.0
C414 C 0.80532 0.87489 0.65891 0.0
C415 C 0.71512 0.90097 0.66215 0.0
C416 C 0.6818 0.91681 0.68785 0.0
C417 C 0.73652 0.90404 0.70993 0.0
C418 C 0.83918 0.69411 0.7164 0.0
C419 C 0.88318 0.64677 0.69657 0.0
C420 C 0.84165 0.57075 0.68637 0.0
C421 C 0.75675 0.54616 0.69631 0.0
C422 C 0.70695 0.60403 0.71245 0.0
C423 C 0.74848 0.6793 0.72249 0.0
C424 C 0.94058 0.61522 0.75931 0.0
C425 C 0.03107 0.59129 0.76164 0.0
C426 C 0.05568 0.50028 0.76336 0.0
C427 C 0.98986 0.43118 0.76224 0.0
C428 C 0.89887 0.4553 0.76052 0.0
C429 C 0.87449 0.54629 0.75932 0.0
C430 C 0.92052 0.71961 0.80713 0.0
C431 C 0.99557 0.72518 0.8237 0.0
C432 C 0.01052 0.65834 0.84312 0.0
C433 C 0.95521 0.58022 0.84447 0.0
C434 C 0.875 0.57973 0.82995 0.0
C435 C 0.85568 0.6513 0.81256 0.0
C436 C 0.93003 0.92429 0.79948 0.0
C437 C 0.99521 0.99214 0.79627 0.0
C438 C 1.00172 0.06029 0.81464 0.0
C439 C 0.94858 0.05767 0.8377 0.0
C440 C 0.88676 0.98706 0.84207 0.0
C441 C 0.87576 0.92115 0.8225 0.0
C442 C 0.65572 0.91093 0.63882 0.0
C443 C 0.01569 0.33435 0.76251 0.0
H444 H 0.49839 0.41903 0.84708 0.0
H445 H 0.10867 0.568 0.07598 0.0
H446 H 0.36845 0.69805 0.96257 0.0
H447 H 0.23263 0.62916 0.94341 0.0
H448 H 0.20555 0.45888 0.01326 0.0
H449 H 0.34629 0.5165 0.0297 0.0
H450 H 0.54093 0.66633 0.93634 0.0
H451 H 0.5179 0.58844 0.8941 0.0
H452 H 0.43971 0.34513 0.93665 0.0
H453 H 0.46402 0.42345 0.97887 0.0
H454 H 0.71066 0.64137 0.94754 0.0
H455 H 0.83766 0.5601 0.92715 0.0
H456 H 0.80372 0.34726 0.98534 0.0
H457 H 0.67488 0.42482 0.00442 0.0
H458 H 0.79142 0.71248 0.99362 0.0
H459 H 0.95033 0.70594 0.00592 0.0
H460 H 0.88096 0.52558 0.07088 0.0
H461 H 0.7231 0.52809 0.05739 0.0
H462 H 0.67505 0.82435 0.0283 0.0
H463 H 0.81698 0.85289 0.05044 0.0
H464 H 0.73421 0.6794 0.11503 0.0
H465 H 0.60378 0.63134 0.08952 0.0
H466 H 0.33971 0.76591 0.02522 0.0
H467 H 0.20393 0.75826 0.05327 0.0
H468 H 0.34357 0.59419 0.10971 0.0
H469 H 0.46922 0.579 0.07816 0.0
O470 O 0.50002 0.45053 0.86386 0.0
O471 O 0.43492 0.33592 0.88578 0.0
O472 O 0.08262 0.64288 0.03269 0.0
O473 O 0.04646 0.57516 0.07091 0.0
C474 C 0.46457 0.62697 0.00408 0.0
C475 C 0.52978 0.59448 0.98596 0.0
C476 C 0.62021 0.59184 0.99325 0.0
C477 C 0.64827 0.62733 0.01764 0.0
C478 C 0.58545 0.66762 0.03533 0.0
C479 C 0.491 0.66093 0.02955 0.0
C480 C 0.36865 0.61063 0.99723 0.0
C481 C 0.33188 0.64669 0.9738 0.0
C482 C 0.25386 0.60809 0.96299 0.0
C483 C 0.21029 0.53606 0.97625 0.0
C484 C 0.23927 0.51185 0.00189 0.0
C485 C 0.31952 0.54586 0.01172 0.0
C486 C 0.50368 0.55064 0.96058 0.0
C487 C 0.51765 0.59655 0.93648 0.0
C488 C 0.5049 0.55176 0.91241 0.0
C489 C 0.47724 0.46041 0.91207 0.0
C490 C 0.46048 0.41552 0.93631 0.0
C491 C 0.47402 0.46016 0.9604 0.0
C492 C 0.68452 0.53853 0.97745 0.0
C493 C 0.72877 0.57532 0.95509 0.0
C494 C 0.80103 0.52929 0.94359 0.0
C495 C 0.83018 0.44792 0.95497 0.0
C496 C 0.78252 0.41018 0.97651 0.0
C497 C 0.70907 0.45396 0.98728 0.0
C498 C 0.74557 0.62127 0.02474 0.0
C499 C 0.81089 0.67033 0.01021 0.0
C500 C 0.90146 0.66701 0.01739 0.0
C501 C 0.92806 0.61551 0.03945 0.0
C502 C 0.86255 0.56612 0.05384 0.0
C503 C 0.77235 0.56765 0.04624 0.0
C504 C 0.62674 0.72474 0.05679 0.0
C505 C 0.68451 0.7953 0.04787 0.0
C506 C 0.76637 0.81268 0.06064 0.0
C507 C 0.78639 0.77136 0.08488 0.0
C508 C 0.72108 0.71289 0.09631 0.0
C509 C 0.64359 0.6875 0.08205 0.0
C510 C 0.41858 0.67696 0.05003 0.0
C511 C 0.34139 0.727 0.04347 0.0
C512 C 0.26329 0.72229 0.05931 0.0
C513 C 0.26356 0.67833 0.08392 0.0
C514 C 0.34025 0.62797 0.09062 0.0
C515 C 0.41506 0.62434 0.07339 0.0
C516 C 0.46886 0.41168 0.8865 0.0
C517 C 0.02375 0.61258 0.04742 0.0
H518 H 0.09556 0.47079 0.71116 0.0
H519 H 0.70423 0.60562 0.51604 0.0
H520 H 0.98467 0.39285 0.54172 0.0
H521 H 0.87859 0.3022 0.56864 0.0
H522 H 0.75344 0.54775 0.59594 0.0
H523 H 0.86271 0.63766 0.57023 0.0
H524 H 0.00487 0.44723 0.60069 0.0
H525 H 0.01348 0.43779 0.64836 0.0
H526 H 0.096 0.71903 0.65135 0.0
H527 H 0.08292 0.72926 0.60311 0.0
H528 H 0.1775 0.46061 0.60314 0.0
H529 H 0.28119 0.44851 0.63903 0.0
H530 H 0.44205 0.65966 0.60297 0.0
H531 H 0.31263 0.70438 0.57593 0.0
H532 H 0.29904 0.43375 0.54605 0.0
H533 H 0.46126 0.41321 0.54064 0.0
H534 H 0.48731 0.69004 0.51332 0.0
H535 H 0.32605 0.71178 0.52129 0.0
H536 H 0.2246 0.45977 0.48735 0.0
H537 H 0.36125 0.4954 0.46201 0.0
H538 H 0.28237 0.77549 0.45842 0.0
H539 H 0.15137 0.74122 0.48627 0.0
H540 H 0.97803 0.48514 0.48057 0.0
H541 H 0.84678 0.5252 0.45357 0.0
H542 H 0.82632 0.77888 0.495 0.0
H543 H 0.96259 0.742 0.52003 0.0
O544 O 0.07621 0.48181 0.69319 0.0
O545 O 0.11924 0.62659 0.69394 0.0
O546 O 0.62108 0.46633 0.52873 0.0
O547 O 0.6394 0.61078 0.5171 0.0
C548 C 0.01668 0.57086 0.54852 0.0
C549 C 0.0758 0.58491 0.5699 0.0
C550 C 0.16935 0.59014 0.56487 0.0
C551 C 0.20218 0.58612 0.53854 0.0
C552 C 0.14127 0.5891 0.51694 0.0
C553 C 0.04739 0.58447 0.52216 0.0
C554 C 0.93099 0.52215 0.55398 0.0
C555 C 0.93157 0.42695 0.55252 0.0
C556 C 0.87251 0.37515 0.56833 0.0
C557 C 0.81036 0.41819 0.58493 0.0
C558 C 0.80201 0.51301 0.58358 0.0
C559 C 0.86266 0.56474 0.5684 0.0
C560 C 0.04309 0.58905 0.59801 0.0
C561 C 0.01742 0.50906 0.61143 0.0
C562 C 0.026 0.50273 0.6389 0.0
C563 C 0.05959 0.5764 0.65344 0.0
C564 C 0.0726 0.66017 0.64052 0.0
C565 C 0.06358 0.66659 0.61298 0.0
C566 C 0.23342 0.58616 0.58737 0.0
C567 C 0.22676 0.51412 0.60548 0.0
C568 C 0.28889 0.50524 0.62553 0.0
C569 C 0.37105 0.55137 0.62314 0.0
C570 C 0.37807 0.62566 0.60586 0.0
C571 C 0.30622 0.64727 0.58936 0.0
C572 C 0.30064 0.57408 0.53391 0.0
C573 C 0.34007 0.49009 0.5392 0.0
C574 C 0.43272 0.47849 0.53594 0.0
C575 C 0.48763 0.55056 0.52689 0.0
C576 C 0.44744 0.63396 0.52097 0.0
C577 C 0.35515 0.6462 0.52503 0.0
C578 C 0.17993 0.59849 0.48974 0.0
C579 C 0.23464 0.52835 0.4801 0.0
C580 C 0.31407 0.54917 0.46603 0.0
C581 C 0.33686 0.63992 0.46032 0.0
C582 C 0.27074 0.70625 0.46454 0.0
C583 C 0.19347 0.68612 0.47962 0.0
C584 C 0.97966 0.61106 0.50223 0.0
C585 C 0.94729 0.55079 0.48306 0.0
C586 C 0.87177 0.57364 0.4679 0.0
C587 C 0.82701 0.65658 0.47194 0.0
C588 C 0.86086 0.71645 0.49091 0.0
C589 C 0.93742 0.69475 0.50545 0.0
C590 C 0.08674 0.56357 0.68143 0.0
C591 C 0.58657 0.53956 0.5242 0.0
Fe592 Fe 0.0511 0.82935 0.18837 0.0
O593 O 0.11899 0.83271 0.15329 0.0
Fe594 Fe 0.85225 0.81405 0.15979 0.0
Fe595 Fe 0.24926 0.85513 0.15108 0.0
O596 O 0.95935 0.88429 0.16761 0.0
O597 O 0.95222 0.75524 0.1376 0.0
O598 O 0.11507 0.84675 0.14949 0.0
Fe599 Fe 0.03996 0.83477 0.11552 0.0
C600 C 0.18739 0.9768 0.1989 0.0
O601 O 0.15324 0.77572 0.2095 0.0
O602 O 0.25846 0.74846 0.17804 0.0
O603 O 0.94718 0.81362 0.08493 0.0
O604 O 0.89202 0.7574 0.12191 0.0
O605 O 0.86433 0.70085 0.18109 0.0
O606 O 0.01175 0.6923 0.18305 0.0
O607 O 0.25783 0.76605 0.12081 0.0
O608 O 0.12184 0.72526 0.10391 0.0
C609 C 0.93367 0.65641 0.1861 0.0
O610 O 0.96767 0.95578 0.12224 0.0
O611 O 0.82842 0.92573 0.13796 0.0
O612 O 0.10322 0.95549 0.19828 0.0
O613 O 0.24509 0.94416 0.18265 0.0
C614 C 0.21968 0.73099 0.2004 0.0
C615 C 0.20886 0.7188 0.1054 0.0
C616 C 0.19934 0.9626 0.0998 0.0
O617 O 0.23896 0.95912 0.12257 0.0
O618 O 0.12988 0.91428 0.09371 0.0
C619 C 0.87667 0.78387 0.09735 0.0
O620 O 0.82733 0.87203 0.19664 0.0
O621 O 0.95828 0.83924 0.21924 0.0
C622 C 0.88374 0.97527 0.12499 0.0
C623 C 0.87733 0.87253 0.21793 0.0
Fe624 Fe 0.5797 0.80513 0.45146 0.0
O625 O 0.59577 0.72453 0.41888 0.0
Fe626 Fe 0.56271 0.00674 0.41676 0.0
Fe627 Fe 0.59585 0.59292 0.42319 0.0
O628 O 0.56123 0.87424 0.41649 0.0
O629 O 0.54131 0.87513 0.41195 0.0
O630 O 0.61612 0.72252 0.41467 0.0
Fe631 Fe 0.58159 0.7937 0.38179 0.0
C632 C 0.74082 0.67585 0.45832 0.0
O633 O 0.45079 0.75148 0.45195 0.0
O634 O 0.49194 0.6059 0.45119 0.0
O635 O 0.5237 0.89596 0.35556 0.0
O636 O 0.4743 0.00648 0.38518 0.0
O637 O 0.45952 1.001 0.44528 0.0
O638 O 0.44521 0.85088 0.45516 0.0
O639 O 0.50168 0.57644 0.39546 0.0
O640 O 0.46187 0.71186 0.37872 0.0
C641 C 0.41711 0.93399 0.45637 0.0
O642 O 0.7024 0.8738 0.3774 0.0
O643 O 0.6601 0.01434 0.38893 0.0
O644 O 0.7146 0.75892 0.45482 0.0
O645 O 0.69421 0.60676 0.45123 0.0
C646 C 0.43079 0.66667 0.4527 0.0
C647 C 0.45314 0.62426 0.3806 0.0
C648 C 0.68518 0.61029 0.36872 0.0
O649 O 0.68871 0.58493 0.39323 0.0
O650 O 0.64371 0.68352 0.3597 0.0
C651 C 0.48172 0.97259 0.36151 0.0
O652 O 0.66752 1.00174 0.4453 0.0
O653 O 0.70842 0.85676 0.44888 0.0
C654 C 0.71103 0.96152 0.37625 0.0
C655 C 0.72916 0.9412 0.44773 0.0
Fe656 Fe 0.58178 0.32589 0.71506 0.0
O657 O 0.58092 0.31205 0.67588 0.0
Fe658 Fe 0.44325 0.32293 0.66037 0.0
Fe659 Fe 0.69244 0.31143 0.65191 0.0
O660 O 0.56697 0.32827 0.67698 0.0
O661 O 0.51368 0.2721 0.63228 0.0
O662 O 0.62107 0.39465 0.62738 0.0
Fe663 Fe 0.54205 0.33964 0.60034 0.0
C664 C 0.72225 0.45788 0.69213 0.0
O665 O 0.67688 0.23012 0.71541 0.0
O666 O 0.76763 0.23383 0.67918 0.0
O667 O 0.42067 0.28303 0.59207 0.0
O668 O 0.33972 0.29499 0.63188 0.0
O669 O 0.42942 0.19692 0.6763 0.0
O670 O 0.48453 0.22698 0.71749 0.0
O671 O 0.65625 0.19043 0.63374 0.0
O672 O 0.61306 0.22729 0.59281 0.0
C673 C 0.44603 0.17561 0.70041 0.0
O674 O 0.47207 0.45409 0.60545 0.0
O675 O 0.45808 0.45609 0.64886 0.0
O676 O 0.67743 0.42249 0.71131 0.0
O677 O 0.73345 0.4251 0.6692 0.0
C678 C 0.74766 0.20672 0.70299 0.0
C679 C 0.65583 0.17651 0.60872 0.0
C680 C 0.75528 0.36633 0.60419 0.0
O681 O 0.79309 0.3236 0.62328 0.0
O682 O 0.67389 0.39671 0.60981 0.0
C683 C 0.34849 0.27345 0.6065 0.0
O684 O 0.36931 0.37784 0.69343 0.0
O685 O 0.49069 0.42564 0.7153 0.0
C686 C 0.44811 0.49315 0.62649 0.0
C687 C 0.4061 0.42004 0.7132 0.0
Fe688 Fe 0.06267 0.28248 0.96828 0.0
O689 O 0.10747 0.2915 0.93103 0.0
Fe690 Fe 0.07145 0.40889 0.90802 0.0
Fe691 Fe 0.0695 0.19441 0.9059 0.0
O692 O 0.10757 0.30262 0.93105 0.0
O693 O 0.03373 0.30976 0.88338 0.0
O694 O 0.03458 0.29931 0.88332 0.0
Fe695 Fe 0.06073 0.30073 0.84551 0.0
C696 C 0.1796 0.12499 0.95412 0.0
O697 O 0.97123 0.17519 0.96213 0.0
O698 O 0.93918 0.19576 0.92045 0.0
O699 O 0.98319 0.42079 0.84437 0.0
O700 O 0.02682 0.50561 0.88072 0.0
O701 O 0.94291 0.40998 0.92341 0.0
O702 O 0.96047 0.3712 0.96578 0.0
O703 O 0.01466 0.10894 0.87694 0.0
O704 O 0.95713 0.2091 0.84636 0.0
C705 C 0.91594 0.40711 0.94733 0.0
O706 O 0.16861 0.38498 0.84759 0.0
O707 O 0.1975 0.42431 0.88958 0.0
O708 O 0.16106 0.19028 0.97007 0.0
O709 O 0.12811 0.10166 0.93396 0.0
C710 C 0.91526 0.1701 0.94324 0.0
C711 C 0.96418 0.12906 0.85668 0.0
C712 C 0.19755 0.15229 0.86468 0.0
O713 O 0.19515 0.18388 0.88818 0.0
O714 O 0.14519 0.18581 0.84717 0.0
C715 C 0.98747 0.49633 0.85787 0.0
O716 O 0.1175 0.49383 0.93895 0.0
O717 O 0.14262 0.39376 0.97367 0.0
C718 C 0.20957 0.43419 0.86438 0.0
C719 C 0.14988 0.47244 0.96225 0.0
loop_
_geom_bond_atom_site_label_1
_geom_bond_atom_site_label_2
_geom_bond_distance
_geom_bond_site_symmetry_2
_ccdc_geom_bond_type
H0 O26 0.856 . S
H1 O29 0.854 . S
H2 C37 0.930 . S
H3 C38 0.930 . S
H4 C40 0.930 1_565 S
H5 C41 0.930 1_565 S
H6 C43 0.931 . S
H7 C44 0.930 . S
H8 C46 0.930 . S
H9 C47 0.929 . S
H10 C49 0.930 . S
H11 C50 0.931 . S
H12 C52 0.930 . S
H13 C53 0.936 . S
H14 C55 0.931 . S
H15 C56 0.930 . S
H16 C58 0.930 . S
H17 C59 0.932 . S
H18 C61 0.930 1_445 S
H19 C62 0.929 . S
H20 C64 0.931 . S
H21 C65 0.930 . S
H22 C67 0.929 . S
H23 C68 0.931 1_545 S
H24 C70 0.930 . S
H25 C71 0.929 . S
O26 H0 0.856 . S
O26 C72 1.300 . S
O27 C72 1.209 . S
O28 C73 1.199 . S
O29 H1 0.854 . S
O29 C73 1.297 . S
C30 C31 1.404 . S
C30 C35 1.397 . S
C30 C36 1.492 . S
C31 C30 1.404 . S
C31 C32 1.396 1_455 S
C31 C42 1.492 . S
C32 C31 1.396 1_655 S
C32 C33 1.397 . S
C32 C48 1.509 . S
C33 C32 1.397 . S
C33 C34 1.412 1_645 S
C33 C54 1.483 1_545 S
C34 C33 1.412 1_465 S
C34 C35 1.388 1_565 S
C34 C60 1.490 1_455 S
C35 C30 1.397 . S
C35 C34 1.388 1_545 S
C35 C66 1.519 1_545 S
C36 C30 1.492 . S
C36 C37 1.363 . S
C36 C41 1.390 . S
C37 H2 0.930 . S
C37 C36 1.363 . S
C37 C38 1.372 . S
C38 H3 0.930 . S
C38 C37 1.372 . S
C38 C39 1.383 . S
C39 C38 1.383 . S
C39 C40 1.395 . S
C40 H4 0.930 1_545 S
C40 C39 1.395 . S
C40 C41 1.362 . S
C41 H5 0.930 1_545 S
C41 C36 1.390 . S
C41 C40 1.362 . S
C42 C31 1.492 . S
C42 C43 1.377 . S
C42 C47 1.397 . S
C43 H6 0.931 . S
C43 C42 1.377 . S
C43 C44 1.376 . S
C44 H7 0.930 . S
C44 C43 1.376 . S
C44 C45 1.376 . S
C45 C44 1.376 . S
C45 C46 1.378 . S
C45 C72 1.486 . S
C46 H8 0.930 . S
C46 C45 1.378 . S
C46 C47 1.376 . S
C47 H9 0.929 . S
C47 C42 1.397 . S
C47 C46 1.376 . S
C48 C32 1.509 . S
C48 C49 1.391 . S
C48 C53 1.386 . S
C49 H10 0.930 . S
C49 C48 1.391 . S
C49 C50 1.375 . S
C50 H11 0.931 . S
C50 C49 1.375 . S
C50 C51 1.375 . S
C51 C50 1.375 . S
C51 C52 1.361 . S
C52 H12 0.930 . S
C52 C51 1.361 . S
C52 C53 1.399 . S
C53 H13 0.936 . S
C53 C48 1.386 . S
C53 C52 1.399 . S
C54 C33 1.483 1_565 S
C54 C55 1.389 1_565 S
C54 C59 1.367 . S
C55 H14 0.931 . S
C55 C54 1.389 1_545 S
C55 C56 1.372 . S
C56 H15 0.930 . S
C56 C55 1.372 . S
C56 C57 1.397 1_545 S
C57 C56 1.397 1_565 S
C57 C58 1.390 . S
C57 C73 1.476 . S
C58 H16 0.930 . S
C58 C57 1.390 . S
C58 C59 1.366 . S
C59 H17 0.932 . S
C59 C54 1.367 . S
C59 C58 1.366 . S
C60 C34 1.490 1_655 S
C60 C61 1.380 . S
C60 C65 1.386 . S
C61 H18 0.930 1_665 S
C61 C60 1.380 . S
C61 C62 1.381 . S
C62 H19 0.929 . S
C62 C61 1.381 . S
C62 C63 1.371 . S
C63 C62 1.371 . S
C63 C64 1.380 . S
C64 H20 0.931 . S
C64 C63 1.380 . S
C64 C65 1.387 . S
C65 H21 0.930 . S
C65 C60 1.386 . S
C65 C64 1.387 . S
C66 C35 1.519 1_565 S
C66 C67 1.377 1_565 S
C66 C71 1.361 . S
C67 H22 0.929 . S
C67 C66 1.377 1_545 S
C67 C68 1.386 1_545 S
C68 H23 0.931 1_565 S
C68 C67 1.386 1_565 S
C68 C69 1.363 . S
C69 C68 1.363 . S
C69 C70 1.385 . S
C70 H24 0.930 . S
C70 C69 1.385 . S
C70 C71 1.396 . S
C71 H25 0.929 . S
C71 C66 1.361 . S
C71 C70 1.396 . S
C72 O26 1.300 . S
C72 O27 1.209 . S
C72 C45 1.486 . S
C73 O28 1.199 . S
C73 O29 1.297 . S
C73 C57 1.476 . S
H74 O100 0.856 . S
H75 O103 0.854 . S
H76 C111 0.930 . S
H77 C112 0.930 . S
H78 C114 0.930 . S
H79 C115 0.930 . S
H80 C117 0.931 . S
H81 C118 0.930 . S
H82 C120 0.930 . S
H83 C121 0.929 . S
H84 C123 0.930 . S
H85 C124 0.931 . S
H86 C126 0.930 . S
H87 C127 0.929 . S
H88 C129 0.931 . S
H89 C130 0.930 . S
H90 C132 0.930 . S
H91 C133 0.932 . S
H92 C135 0.930 . S
H93 C136 0.929 1_655 S
H94 C138 0.935 . S
H95 C139 0.930 . S
H96 C141 0.929 . S
H97 C142 0.931 . S
H98 C144 0.930 . S
H99 C145 0.929 . S
O100 H74 0.856 . S
O100 C146 1.300 . S
O101 C146 1.209 . S
O102 C147 1.199 . S
O103 H75 0.854 . S
O103 C147 1.297 . S
C104 C105 1.404 . S
C104 C109 1.397 . S
C104 C110 1.492 . S
C105 C104 1.404 . S
C105 C106 1.396 . S
C105 C116 1.492 . S
C106 C105 1.396 . S
C106 C107 1.397 . S
C106 C122 1.509 . S
C107 C106 1.397 . S
C107 C108 1.412 . S
C107 C128 1.485 1_565 S
C108 C107 1.412 . S
C108 C109 1.388 . S
C108 C134 1.490 . S
C109 C104 1.397 . S
C109 C108 1.388 . S
C109 C140 1.519 . S
C110 C104 1.492 . S
C110 C111 1.363 . S
C110 C115 1.390 . S
C111 H76 0.930 . S
C111 C110 1.363 . S
C111 C112 1.372 . S
C112 H77 0.930 . S
C112 C111 1.372 . S
C112 C113 1.383 . S
C113 C112 1.383 . S
C113 C114 1.395 . S
C114 H78 0.930 . S
C114 C113 1.395 . S
C114 C115 1.362 . S
C115 H79 0.930 . S
C115 C110 1.390 . S
C115 C114 1.362 . S
C116 C105 1.492 . S
C116 C117 1.377 . S
C116 C121 1.397 . S
C117 H80 0.931 . S
C117 C116 1.377 . S
C117 C118 1.376 . S
C118 H81 0.930 . S
C118 C117 1.376 . S
C118 C119 1.376 . S
C119 C118 1.376 . S
C119 C120 1.378 . S
C119 C146 1.486 . S
C120 H82 0.930 . S
C120 C119 1.378 . S
C120 C121 1.376 . S
C121 H83 0.929 . S
C121 C116 1.397 . S
C121 C120 1.376 . S
C122 C106 1.509 . S
C122 C123 1.391 1_565 S
C122 C127 1.386 . S
C123 H84 0.930 . S
C123 C122 1.391 1_545 S
C123 C124 1.375 . S
C124 H85 0.931 . S
C124 C123 1.375 . S
C124 C125 1.375 . S
C125 C124 1.375 . S
C125 C126 1.361 . S
C126 H86 0.930 . S
C126 C125 1.361 . S
C126 C127 1.399 1_545 S
C127 H87 0.929 . S
C127 C122 1.386 . S
C127 C126 1.399 1_565 S
C128 C107 1.485 1_545 S
C128 C129 1.394 . S
C128 C133 1.360 . S
C129 H88 0.931 . S
C129 C128 1.394 . S
C129 C130 1.372 . S
C130 H89 0.930 . S
C130 C129 1.372 . S
C130 C131 1.397 . S
C131 C130 1.397 . S
C131 C132 1.390 . S
C131 C147 1.476 . S
C132 H90 0.930 . S
C132 C131 1.390 . S
C132 C133 1.366 . S
C133 H91 0.932 . S
C133 C128 1.360 . S
C133 C132 1.366 . S
C134 C108 1.490 . S
C134 C135 1.380 . S
C134 C139 1.386 . S
C135 H92 0.930 . S
C135 C134 1.380 . S
C135 C136 1.381 . S
C136 H93 0.929 1_455 S
C136 C135 1.381 . S
C136 C137 1.371 . S
C137 C136 1.371 . S
C137 C138 1.380 . S
C138 H94 0.935 . S
C138 C137 1.380 . S
C138 C139 1.387 . S
C139 H95 0.930 . S
C139 C134 1.386 . S
C139 C138 1.387 . S
C140 C109 1.519 . S
C140 C141 1.377 . S
C140 C145 1.361 . S
C141 H96 0.929 . S
C141 C140 1.377 . S
C141 C142 1.386 . S
C142 H97 0.931 . S
C142 C141 1.386 . S
C142 C143 1.363 . S
C143 C142 1.363 . S
C143 C144 1.385 . S
C144 H98 0.930 . S
C144 C143 1.385 . S
C144 C145 1.396 . S
C145 H99 0.929 . S
C145 C140 1.361 . S
C145 C144 1.396 . S
C146 O100 1.300 . S
C146 O101 1.209 . S
C146 C119 1.486 . S
C147 O102 1.199 . S
C147 O103 1.297 . S
C147 C131 1.476 . S
H148 O174 0.856 . S
H149 O177 0.854 . S
H150 C185 0.930 . S
H151 C186 0.930 . S
H152 C188 0.930 . S
H153 C189 0.930 . S
H154 C191 0.931 . S
H155 C192 0.930 . S
H156 C194 0.930 . S
H157 C195 0.929 . S
H158 C197 0.930 . S
H159 C198 0.931 . S
H160 C200 0.930 . S
H161 C201 0.929 . S
H162 C203 0.931 1_556 S
H163 C204 0.930 1_556 S
H164 C206 0.930 . S
H165 C207 0.932 . S
H166 C209 0.930 . S
H167 C210 0.929 . S
H168 C212 0.931 . S
H169 C213 0.930 1_554 S
H170 C215 0.929 . S
H171 C216 0.931 . S
H172 C218 0.930 . S
H173 C219 0.929 . S
O174 H148 0.856 . S
O174 C220 1.300 . S
O175 C220 1.209 . S
O176 C221 1.199 1_556 S
O177 H149 0.854 . S
O177 C221 1.297 . S
C178 C179 1.404 . S
C178 C183 1.397 . S
C178 C184 1.492 . S
C179 C178 1.404 . S
C179 C180 1.396 . S
C179 C190 1.492 . S
C180 C179 1.396 . S
C180 C181 1.397 . S
C180 C196 1.509 . S
C181 C180 1.397 . S
C181 C182 1.412 . S
C181 C202 1.485 . S
C182 C181 1.412 . S
C182 C183 1.388 . S
C182 C208 1.490 1_554 S
C183 C178 1.397 . S
C183 C182 1.388 . S
C183 C214 1.519 . S
C184 C178 1.492 . S
C184 C185 1.363 1_545 S
C184 C189 1.390 . S
C185 H150 0.930 . S
C185 C184 1.363 1_565 S
C185 C186 1.372 . S
C186 H151 0.930 . S
C186 C185 1.372 . S
C186 C187 1.383 1_565 S
C187 C186 1.383 1_545 S
C187 C188 1.395 . S
C188 H152 0.930 . S
C188 C187 1.395 . S
C188 C189 1.362 . S
C189 H153 0.930 . S
C189 C184 1.390 . S
C189 C188 1.362 . S
C190 C179 1.492 . S
C190 C191 1.377 1_545 S
C190 C195 1.397 . S
C191 H154 0.931 . S
C191 C190 1.377 1_565 S
C191 C192 1.376 . S
C192 H155 0.930 . S
C192 C191 1.376 . S
C192 C193 1.376 . S
C193 C192 1.376 . S
C193 C194 1.378 1_565 S
C193 C220 1.486 . S
C194 H156 0.930 . S
C194 C193 1.378 1_545 S
C194 C195 1.376 . S
C195 H157 0.929 . S
C195 C190 1.397 . S
C195 C194 1.376 . S
C196 C180 1.509 . S
C196 C197 1.391 1_545 S
C196 C201 1.386 . S
C197 H158 0.930 . S
C197 C196 1.391 1_565 S
C197 C198 1.375 . S
C198 H159 0.931 . S
C198 C197 1.375 . S
C198 C199 1.375 . S
C199 C198 1.375 . S
C199 C200 1.361 1_565 S
C200 H160 0.930 . S
C200 C199 1.361 1_545 S
C200 C201 1.399 . S
C201 H161 0.929 . S
C201 C196 1.386 . S
C201 C200 1.399 . S
C202 C181 1.485 . S
C202 C203 1.394 . S
C202 C207 1.360 . S
C203 H162 0.931 1_554 S
C203 C202 1.394 . S
C203 C204 1.372 . S
C204 H163 0.930 1_554 S
C204 C203 1.372 . S
C204 C205 1.397 . S
C205 C204 1.397 . S
C205 C206 1.390 . S
C205 C221 1.476 1_655 S
C206 H164 0.930 . S
C206 C205 1.390 . S
C206 C207 1.366 . S
C207 H165 0.932 . S
C207 C202 1.360 . S
C207 C206 1.366 . S
C208 C182 1.490 1_556 S
C208 C209 1.380 . S
C208 C213 1.386 . S
C209 H166 0.930 . S
C209 C208 1.380 . S
C209 C210 1.381 . S
C210 H167 0.929 . S
C210 C209 1.381 . S
C210 C211 1.371 . S
C211 C210 1.371 . S
C211 C212 1.380 . S
C212 H168 0.931 . S
C212 C211 1.380 . S
C212 C213 1.387 . S
C213 H169 0.930 1_556 S
C213 C208 1.386 . S
C213 C212 1.387 . S
C214 C183 1.519 . S
C214 C215 1.377 1_554 S
C214 C219 1.361 . S
C215 H170 0.929 . S
C215 C214 1.377 1_556 S
C215 C216 1.386 . S
C216 H171 0.931 . S
C216 C215 1.386 . S
C216 C217 1.363 . S
C217 C216 1.363 . S
C217 C218 1.385 . S
C218 H172 0.930 . S
C218 C217 1.385 . S
C218 C219 1.396 1_556 S
C219 H173 0.929 . S
C219 C214 1.361 . S
C219 C218 1.396 1_554 S
C220 O174 1.300 . S
C220 O175 1.209 . S
C220 C193 1.486 . S
C221 O176 1.199 1_554 S
C221 O177 1.297 . S
C221 C205 1.476 1_455 S
H222 O248 0.856 . S
H223 O251 0.854 . S
H224 C259 0.930 . S
H225 C260 0.930 . S
H226 C262 0.930 1_565 S
H227 C263 0.930 . S
H228 C265 0.931 . S
H229 C266 0.930 . S
H230 C268 0.930 . S
H231 C269 0.929 . S
H232 C271 0.930 . S
H233 C272 0.931 . S
H234 C274 0.930 . S
H235 C275 0.929 . S
H236 C277 0.931 . S
H237 C278 0.930 . S
H238 C280 0.930 . S
H239 C281 0.932 . S
H240 C283 0.930 . S
H241 C284 0.929 . S
H242 C286 0.931 . S
H243 C287 0.930 . S
H244 C289 0.929 . S
H245 C290 0.931 . S
H246 C292 0.930 . S
H247 C293 0.929 . S
O248 H222 0.856 . S
O248 C294 1.300 . S
O249 C294 1.209 . S
O250 C295 1.199 . S
O251 H223 0.854 . S
O251 C295 1.297 . S
C252 C253 1.404 . S
C252 C257 1.397 . S
C252 C258 1.492 . S
C253 C252 1.404 . S
C253 C254 1.396 . S
C253 C264 1.492 . S
C254 C253 1.396 . S
C254 C255 1.397 . S
C254 C270 1.509 . S
C255 C254 1.397 . S
C255 C256 1.412 . S
C255 C276 1.485 . S
C256 C255 1.412 . S
C256 C257 1.388 . S
C256 C282 1.490 . S
C257 C252 1.397 . S
C257 C256 1.388 . S
C257 C288 1.519 . S
C258 C252 1.492 . S
C258 C259 1.363 . S
C258 C263 1.390 . S
C259 H224 0.930 . S
C259 C258 1.363 . S
C259 C260 1.372 . S
C260 H225 0.930 . S
C260 C259 1.372 . S
C260 C261 1.383 1_545 S
C261 C260 1.383 1_565 S
C261 C262 1.395 1_565 S
C262 H226 0.930 1_545 S
C262 C261 1.395 1_545 S
C262 C263 1.362 . S
C263 H227 0.930 . S
C263 C258 1.390 . S
C263 C262 1.362 . S
C264 C253 1.492 . S
C264 C265 1.377 . S
C264 C269 1.397 . S
C265 H228 0.931 . S
C265 C264 1.377 . S
C265 C266 1.376 . S
C266 H229 0.930 . S
C266 C265 1.376 . S
C266 C267 1.376 . S
C267 C266 1.376 . S
C267 C268 1.378 . S
C267 C294 1.486 . S
C268 H230 0.930 . S
C268 C267 1.378 . S
C268 C269 1.376 . S
C269 H231 0.929 . S
C269 C264 1.397 . S
C269 C268 1.376 . S
C270 C254 1.509 . S
C270 C271 1.391 . S
C270 C275 1.386 . S
C271 H232 0.930 . S
C271 C270 1.391 . S
C271 C272 1.375 . S
C272 H233 0.931 . S
C272 C271 1.375 . S
C272 C273 1.375 . S
C273 C272 1.375 . S
C273 C274 1.361 . S
C274 H234 0.930 . S
C274 C273 1.361 . S
C274 C275 1.399 . S
C275 H235 0.929 . S
C275 C270 1.386 . S
C275 C274 1.399 . S
C276 C255 1.485 . S
C276 C277 1.394 . S
C276 C281 1.360 . S
C277 H236 0.931 . S
C277 C276 1.394 . S
C277 C278 1.372 . S
C278 H237 0.930 . S
C278 C277 1.372 . S
C278 C279 1.397 . S
C279 C278 1.397 . S
C279 C280 1.390 . S
C279 C295 1.476 . S
C280 H238 0.930 . S
C280 C279 1.390 . S
C280 C281 1.366 . S
C281 H239 0.932 . S
C281 C276 1.360 . S
C281 C280 1.366 . S
C282 C256 1.490 . S
C282 C283 1.380 . S
C282 C287 1.386 . S
C283 H240 0.930 . S
C283 C282 1.380 . S
C283 C284 1.381 . S
C284 H241 0.929 . S
C284 C283 1.381 . S
C284 C285 1.371 . S
C285 C284 1.371 . S
C285 C286 1.380 . S
C286 H242 0.931 . S
C286 C285 1.380 . S
C286 C287 1.387 . S
C287 H243 0.930 . S
C287 C282 1.386 . S
C287 C286 1.387 . S
C288 C257 1.519 . S
C288 C289 1.377 . S
C288 C293 1.361 . S
C289 H244 0.929 . S
C289 C288 1.377 . S
C289 C290 1.386 . S
C290 H245 0.931 . S
C290 C289 1.386 . S
C290 C291 1.363 . S
C291 C290 1.363 . S
C291 C292 1.385 . S
C292 H246 0.930 . S
C292 C291 1.385 . S
C292 C293 1.396 . S
C293 H247 0.929 . S
C293 C288 1.361 . S
C293 C292 1.396 . S
C294 O248 1.300 . S
C294 O249 1.209 . S
C294 C267 1.486 . S
C295 O250 1.199 . S
C295 O251 1.297 . S
C295 C279 1.476 . S
H296 O322 0.856 . S
H297 O325 0.854 . S
H298 C333 0.930 . S
H299 C334 0.930 . S
H300 C336 0.930 1_565 S
H301 C337 0.930 . S
H302 C339 0.931 . S
H303 C340 0.930 . S
H304 C342 0.930 . S
H305 C343 0.929 1_455 S
H306 C345 0.930 . S
H307 C346 0.931 . S
H308 C348 0.930 . S
H309 C349 0.929 1_455 S
H310 C351 0.931 . S
H311 C352 0.930 . S
H312 C354 0.930 . S
H313 C355 0.932 . S
H314 C357 0.930 . S
H315 C358 0.929 . S
H316 C360 0.931 . S
H317 C361 0.930 . S
H318 C363 0.929 . S
H319 C364 0.931 . S
H320 C366 0.930 . S
H321 C367 0.929 . S
O322 H296 0.856 . S
O322 C368 1.300 . S
O323 C368 1.209 . S
O324 C369 1.199 . S
O325 H297 0.854 . S
O325 C369 1.297 . S
C326 C327 1.404 . S
C326 C331 1.397 . S
C326 C332 1.492 . S
C327 C326 1.404 . S
C327 C328 1.396 . S
C327 C338 1.492 . S
C328 C327 1.396 . S
C328 C329 1.397 . S
C328 C344 1.509 . S
C329 C328 1.397 . S
C329 C330 1.412 . S
C329 C350 1.485 . S
C330 C329 1.412 . S
C330 C331 1.388 . S
C330 C356 1.490 . S
C331 C326 1.397 . S
C331 C330 1.388 . S
C331 C362 1.519 . S
C332 C326 1.492 . S
C332 C333 1.363 . S
C332 C337 1.390 . S
C333 H298 0.930 . S
C333 C332 1.363 . S
C333 C334 1.372 . S
C334 H299 0.930 . S
C334 C333 1.372 . S
C334 C335 1.383 1_545 S
C335 C334 1.383 1_565 S
C335 C336 1.395 1_565 S
C336 H300 0.930 1_545 S
C336 C335 1.395 1_545 S
C336 C337 1.362 . S
C337 H301 0.930 . S
C337 C332 1.390 . S
C337 C336 1.362 . S
C338 C327 1.492 . S
C338 C339 1.377 . S
C338 C343 1.397 . S
C339 H302 0.931 . S
C339 C338 1.377 . S
C339 C340 1.376 . S
C340 H303 0.930 . S
C340 C339 1.376 . S
C340 C341 1.376 1_655 S
C341 C340 1.376 1_455 S
C341 C342 1.378 . S
C341 C368 1.486 . S
C342 H304 0.930 . S
C342 C341 1.378 . S
C342 C343 1.376 1_455 S
C343 H305 0.929 1_655 S
C343 C338 1.397 . S
C343 C342 1.376 1_655 S
C344 C328 1.509 . S
C344 C345 1.391 . S
C344 C349 1.386 . S
C345 H306 0.930 . S
C345 C344 1.391 . S
C345 C346 1.375 . S
C346 H307 0.931 . S
C346 C345 1.375 . S
C346 C347 1.375 . S
C347 C346 1.375 . S
C347 C348 1.361 1_655 S
C348 H308 0.930 . S
C348 C347 1.361 1_455 S
C348 C349 1.399 1_455 S
C349 H309 0.929 1_655 S
C349 C344 1.386 . S
C349 C348 1.399 1_655 S
C350 C329 1.485 . S
C350 C351 1.394 . S
C350 C355 1.360 . S
C351 H310 0.931 . S
C351 C350 1.394 . S
C351 C352 1.372 . S
C352 H311 0.930 . S
C352 C351 1.372 . S
C352 C353 1.397 . S
C353 C352 1.397 . S
C353 C354 1.390 . S
C353 C369 1.476 . S
C354 H312 0.930 . S
C354 C353 1.390 . S
C354 C355 1.366 . S
C355 H313 0.932 . S
C355 C350 1.360 . S
C355 C354 1.366 . S
C356 C330 1.490 . S
C356 C357 1.380 . S
C356 C361 1.386 . S
C357 H314 0.930 . S
C357 C356 1.380 . S
C357 C358 1.381 . S
C358 H315 0.929 . S
C358 C357 1.381 . S
C358 C359 1.371 . S
C359 C358 1.371 . S
C359 C360 1.380 . S
C360 H316 0.931 . S
C360 C359 1.380 . S
C360 C361 1.387 . S
C361 H317 0.930 . S
C361 C356 1.386 . S
C361 C360 1.387 . S
C362 C331 1.519 . S
C362 C363 1.377 . S
C362 C367 1.361 . S
C363 H318 0.929 . S
C363 C362 1.377 . S
C363 C364 1.386 . S
C364 H319 0.931 . S
C364 C363 1.386 . S
C364 C365 1.363 . S
C365 C364 1.363 . S
C365 C366 1.385 . S
C366 H320 0.930 . S
C366 C365 1.385 . S
C366 C367 1.396 . S
C367 H321 0.929 . S
C367 C362 1.361 . S
C367 C366 1.396 . S
C368 O322 1.300 . S
C368 O323 1.209 . S
C368 C341 1.486 . S
C369 O324 1.199 . S
C369 O325 1.297 . S
C369 C353 1.476 . S
H370 O396 0.856 . S
H371 O399 0.854 . S
H372 C407 0.930 . S
H373 C408 0.930 . S
H374 C410 0.930 . S
H375 C411 0.930 . S
H376 C413 0.931 . S
H377 C414 0.930 . S
H378 C416 0.930 . S
H379 C417 0.929 . S
H380 C419 0.930 . S
H381 C420 0.931 . S
H382 C422 0.930 . S
H383 C423 0.929 . S
H384 C425 0.931 . S
H385 C426 0.930 . S
H386 C428 0.930 . S
H387 C429 0.932 . S
H388 C431 0.930 . S
H389 C432 0.929 . S
H390 C434 0.931 . S
H391 C435 0.930 . S
H392 C437 0.929 1_455 S
H393 C438 0.931 1_455 S
H394 C440 0.930 1_545 S
H395 C441 0.929 . S
O396 H370 0.856 . S
O396 C442 1.300 . S
O397 C442 1.209 . S
O398 C443 1.199 . S
O399 H371 0.854 . S
O399 C443 1.297 . S
C400 C401 1.404 . S
C400 C405 1.397 . S
C400 C406 1.492 . S
C401 C400 1.404 . S
C401 C402 1.396 . S
C401 C412 1.492 . S
C402 C401 1.396 . S
C402 C403 1.397 . S
C402 C418 1.509 . S
C403 C402 1.397 . S
C403 C404 1.412 . S
C403 C424 1.485 . S
C404 C403 1.412 . S
C404 C405 1.388 . S
C404 C430 1.490 . S
C405 C400 1.397 . S
C405 C404 1.388 . S
C405 C436 1.519 . S
C406 C400 1.492 . S
C406 C407 1.363 . S
C406 C411 1.390 1_565 S
C407 H372 0.930 . S
C407 C406 1.363 . S
C407 C408 1.372 1_565 S
C408 H373 0.930 . S
C408 C407 1.372 1_545 S
C408 C409 1.383 . S
C409 C408 1.383 . S
C409 C410 1.395 . S
C410 H374 0.930 . S
C410 C409 1.395 . S
C410 C411 1.362 . S
C411 H375 0.930 . S
C411 C406 1.390 1_545 S
C411 C410 1.362 . S
C412 C401 1.492 . S
C412 C413 1.377 . S
C412 C417 1.397 . S
C413 H376 0.931 . S
C413 C412 1.377 . S
C413 C414 1.376 . S
C414 H377 0.930 . S
C414 C413 1.376 . S
C414 C415 1.376 . S
C415 C414 1.376 . S
C415 C416 1.378 . S
C415 C442 1.486 . S
C416 H378 0.930 . S
C416 C415 1.378 . S
C416 C417 1.376 . S
C417 H379 0.929 . S
C417 C412 1.397 . S
C417 C416 1.376 . S
C418 C402 1.509 . S
C418 C419 1.391 . S
C418 C423 1.386 . S
C419 H380 0.930 . S
C419 C418 1.391 . S
C419 C420 1.375 . S
C420 H381 0.931 . S
C420 C419 1.375 . S
C420 C421 1.375 . S
C421 C420 1.375 . S
C421 C422 1.361 . S
C422 H382 0.930 . S
C422 C421 1.361 . S
C422 C423 1.399 . S
C423 H383 0.929 . S
C423 C418 1.386 . S
C423 C422 1.399 . S
C424 C403 1.485 . S
C424 C425 1.394 . S
C424 C429 1.360 . S
C425 H384 0.931 . S
C425 C424 1.394 . S
C425 C426 1.372 . S
C426 H385 0.930 . S
C426 C425 1.372 . S
C426 C427 1.397 . S
C427 C426 1.397 . S
C427 C428 1.390 . S
C427 C443 1.476 . S
C428 H386 0.930 . S
C428 C427 1.390 . S
C428 C429 1.366 . S
C429 H387 0.932 . S
C429 C424 1.360 . S
C429 C428 1.366 . S
C430 C404 1.490 . S
C430 C431 1.380 1_655 S
C430 C435 1.386 . S
C431 H388 0.930 . S
C431 C430 1.380 1_455 S
C431 C432 1.381 . S
C432 H389 0.929 . S
C432 C431 1.381 . S
C432 C433 1.371 . S
C433 C432 1.371 . S
C433 C434 1.380 1_455 S
C434 H390 0.931 . S
C434 C433 1.380 1_655 S
C434 C435 1.387 . S
C435 H391 0.930 . S
C435 C430 1.386 . S
C435 C434 1.387 . S
C436 C405 1.519 . S
C436 C437 1.377 . S
C436 C441 1.361 . S
C437 H392 0.929 1_655 S
C437 C436 1.377 . S
C437 C438 1.386 1_565 S
C438 H393 0.931 1_655 S
C438 C437 1.386 1_545 S
C438 C439 1.363 . S
C439 C438 1.363 . S
C439 C440 1.385 1_545 S
C440 H394 0.930 1_565 S
C440 C439 1.385 1_565 S
C440 C441 1.396 . S
C441 H395 0.929 . S
C441 C436 1.361 . S
C441 C440 1.396 . S
C442 O396 1.300 . S
C442 O397 1.209 . S
C442 C415 1.486 . S
C443 O398 1.199 . S
C443 O399 1.297 . S
C443 C427 1.476 . S
H444 O470 0.856 . S
H445 O473 0.854 . S
H446 C481 0.930 . S
H447 C482 0.930 . S
H448 C484 0.930 . S
H449 C485 0.930 . S
H450 C487 0.931 . S
H451 C488 0.930 . S
H452 C490 0.930 . S
H453 C491 0.929 . S
H454 C493 0.930 . S
H455 C494 0.931 . S
H456 C496 0.930 . S
H457 C497 0.929 . S
H458 C499 0.931 . S
H459 C500 0.930 . S
H460 C502 0.930 . S
H461 C503 0.932 . S
H462 C505 0.930 . S
H463 C506 0.929 . S
H464 C508 0.931 . S
H465 C509 0.930 . S
H466 C511 0.929 . S
H467 C512 0.931 . S
H468 C514 0.930 . S
H469 C515 0.929 . S
O470 H444 0.856 . S
O470 C516 1.300 . S
O471 C516 1.209 . S
O472 C517 1.199 . S
O473 H445 0.854 . S
O473 C517 1.297 . S
C474 C475 1.404 1_554 S
C474 C479 1.397 . S
C474 C480 1.492 . S
C475 C474 1.404 1_556 S
C475 C476 1.396 1_556 S
C475 C486 1.492 . S
C476 C475 1.396 1_554 S
C476 C477 1.397 . S
C476 C492 1.509 1_554 S
C477 C476 1.397 . S
C477 C478 1.412 . S
C477 C498 1.485 . S
C478 C477 1.412 . S
C478 C479 1.388 . S
C478 C504 1.490 . S
C479 C474 1.397 . S
C479 C478 1.388 . S
C479 C510 1.519 . S
C480 C474 1.492 . S
C480 C481 1.363 1_554 S
C480 C485 1.390 . S
C481 H446 0.930 . S
C481 C480 1.363 1_556 S
C481 C482 1.372 . S
C482 H447 0.930 . S
C482 C481 1.372 . S
C482 C483 1.383 . S
C483 C482 1.383 . S
C483 C484 1.395 1_556 S
C484 H448 0.930 . S
C484 C483 1.395 1_554 S
C484 C485 1.362 . S
C485 H449 0.930 . S
C485 C480 1.390 . S
C485 C484 1.362 . S
C486 C475 1.492 . S
C486 C487 1.377 . S
C486 C491 1.397 . S
C487 H450 0.931 . S
C487 C486 1.377 . S
C487 C488 1.376 . S
C488 H451 0.930 . S
C488 C487 1.376 . S
C488 C489 1.376 . S
C489 C488 1.376 . S
C489 C490 1.378 . S
C489 C516 1.486 . S
C490 H452 0.930 . S
C490 C489 1.378 . S
C490 C491 1.376 . S
C491 H453 0.929 . S
C491 C486 1.397 . S
C491 C490 1.376 . S
C492 C476 1.509 1_556 S
C492 C493 1.391 . S
C492 C497 1.386 . S
C493 H454 0.930 . S
C493 C492 1.391 . S
C493 C494 1.375 . S
C494 H455 0.931 . S
C494 C493 1.375 . S
C494 C495 1.375 . S
C495 C494 1.375 . S
C495 C496 1.361 . S
C496 H456 0.930 . S
C496 C495 1.361 . S
C496 C497 1.399 . S
C497 H457 0.929 . S
C497 C492 1.386 . S
C497 C496 1.399 . S
C498 C477 1.485 . S
C498 C499 1.394 . S
C498 C503 1.360 . S
C499 H458 0.931 . S
C499 C498 1.394 . S
C499 C500 1.372 . S
C500 H459 0.930 . S
C500 C499 1.372 . S
C500 C501 1.397 . S
C501 C500 1.397 . S
C501 C502 1.390 . S
C501 C517 1.476 1_655 S
C502 H460 0.930 . S
C502 C501 1.390 . S
C502 C503 1.366 . S
C503 H461 0.932 . S
C503 C498 1.360 . S
C503 C502 1.366 . S
C504 C478 1.490 . S
C504 C505 1.380 . S
C504 C509 1.386 . S
C505 H462 0.930 . S
C505 C504 1.380 . S
C505 C506 1.381 . S
C506 H463 0.929 . S
C506 C505 1.381 . S
C506 C507 1.371 . S
C507 C506 1.371 . S
C507 C508 1.380 . S
C508 H464 0.931 . S
C508 C507 1.380 . S
C508 C509 1.387 . S
C509 H465 0.930 . S
C509 C504 1.386 . S
C509 C508 1.387 . S
C510 C479 1.519 . S
C510 C511 1.377 . S
C510 C515 1.361 . S
C511 H466 0.929 . S
C511 C510 1.377 . S
C511 C512 1.386 . S
C512 H467 0.931 . S
C512 C511 1.386 . S
C512 C513 1.363 . S
C513 C512 1.363 . S
C513 C514 1.385 . S
C514 H468 0.930 . S
C514 C513 1.385 . S
C514 C515 1.396 . S
C515 H469 0.929 . S
C515 C510 1.361 . S
C515 C514 1.396 . S
C516 O470 1.300 . S
C516 O471 1.209 . S
C516 C489 1.486 . S
C517 O472 1.199 . S
C517 O473 1.297 . S
C517 C501 1.476 1_455 S
H518 O544 0.856 . S
H519 O547 0.854 . S
H520 C555 0.930 . S
H521 C556 0.930 . S
H522 C558 0.930 . S
H523 C559 0.930 . S
H524 C561 0.931 . S
H525 C562 0.930 . S
H526 C564 0.930 . S
H527 C565 0.929 1_655 S
H528 C567 0.930 . S
H529 C568 0.931 . S
H530 C570 0.930 . S
H531 C571 0.929 . S
H532 C573 0.931 . S
H533 C574 0.930 . S
H534 C576 0.930 . S
H535 C577 0.932 . S
H536 C579 0.930 . S
H537 C580 0.929 . S
H538 C582 0.931 . S
H539 C583 0.930 . S
H540 C585 0.929 . S
H541 C586 0.931 . S
H542 C588 0.930 . S
H543 C589 0.929 1_455 S
O544 H518 0.856 . S
O544 C590 1.300 . S
O545 C590 1.209 . S
O546 C591 1.199 . S
O547 H519 0.854 . S
O547 C591 1.297 . S
C548 C549 1.404 . S
C548 C553 1.397 . S
C548 C554 1.492 1_455 S
C549 C548 1.404 . S
C549 C550 1.396 . S
C549 C560 1.492 . S
C550 C549 1.396 . S
C550 C551 1.397 . S
C550 C566 1.509 . S
C551 C550 1.397 . S
C551 C552 1.412 . S
C551 C572 1.485 . S
C552 C551 1.412 . S
C552 C553 1.388 . S
C552 C578 1.490 . S
C553 C548 1.397 . S
C553 C552 1.388 . S
C553 C584 1.519 1_455 S
C554 C548 1.492 1_655 S
C554 C555 1.363 . S
C554 C559 1.390 . S
C555 H520 0.930 . S
C555 C554 1.363 . S
C555 C556 1.372 . S
C556 H521 0.930 . S
C556 C555 1.372 . S
C556 C557 1.383 . S
C557 C556 1.383 . S
C557 C558 1.395 . S
C558 H522 0.930 . S
C558 C557 1.395 . S
C558 C559 1.362 . S
C559 H523 0.930 . S
C559 C554 1.390 . S
C559 C558 1.362 . S
C560 C549 1.492 . S
C560 C561 1.377 . S
C560 C565 1.397 . S
C561 H524 0.931 . S
C561 C560 1.377 . S
C561 C562 1.376 . S
C562 H525 0.930 . S
C562 C561 1.376 . S
C562 C563 1.376 1_455 S
C563 C562 1.376 1_655 S
C563 C564 1.378 . S
C563 C590 1.486 . S
C564 H526 0.930 . S
C564 C563 1.378 . S
C564 C565 1.376 1_655 S
C565 H527 0.929 1_455 S
C565 C560 1.397 . S
C565 C564 1.376 1_455 S
C566 C550 1.509 . S
C566 C567 1.391 . S
C566 C571 1.386 . S
C567 H528 0.930 . S
C567 C566 1.391 . S
C567 C568 1.375 . S
C568 H529 0.931 . S
C568 C567 1.375 . S
C568 C569 1.375 . S
C569 C568 1.375 . S
C569 C570 1.361 . S
C570 H530 0.930 . S
C570 C569 1.361 . S
C570 C571 1.399 . S
C571 H531 0.929 . S
C571 C566 1.386 . S
C571 C570 1.399 . S
C572 C551 1.485 . S
C572 C573 1.394 . S
C572 C577 1.360 . S
C573 H532 0.931 . S
C573 C572 1.394 . S
C573 C574 1.372 . S
C574 H533 0.930 . S
C574 C573 1.372 . S
C574 C575 1.397 . S
C575 C574 1.397 . S
C575 C576 1.390 . S
C575 C591 1.476 . S
C576 H534 0.930 . S
C576 C575 1.390 . S
C576 C577 1.366 . S
C577 H535 0.932 . S
C577 C572 1.360 . S
C577 C576 1.366 . S
C578 C552 1.490 . S
C578 C579 1.380 . S
C578 C583 1.386 . S
C579 H536 0.930 . S
C579 C578 1.380 . S
C579 C580 1.381 . S
C580 H537 0.929 . S
C580 C579 1.381 . S
C580 C581 1.371 . S
C581 C580 1.371 . S
C581 C582 1.380 . S
C582 H538 0.931 . S
C582 C581 1.380 . S
C582 C583 1.387 . S
C583 H539 0.930 . S
C583 C578 1.386 . S
C583 C582 1.387 . S
C584 C553 1.519 1_655 S
C584 C585 1.377 . S
C584 C589 1.361 . S
C585 H540 0.929 . S
C585 C584 1.377 . S
C585 C586 1.386 . S
C586 H541 0.931 . S
C586 C585 1.386 . S
C586 C587 1.363 . S
C587 C586 1.363 . S
C587 C588 1.385 . S
C588 H542 0.930 . S
C588 C587 1.385 . S
C588 C589 1.396 . S
C589 H543 0.929 1_655 S
C589 C584 1.361 . S
C589 C588 1.396 . S
C590 O544 1.300 . S
C590 O545 1.209 . S
C590 C563 1.486 . S
C591 O546 1.199 . S
C591 O547 1.297 . S
C591 C575 1.476 . S
Fe592 O593 1.886 . S
Fe592 O596 1.715 1_455 S
Fe592 O601 2.077 . S
Fe592 O606 1.935 1_455 S
Fe592 O612 2.077 . S
Fe592 O621 1.935 1_455 S
O593 Fe592 1.886 . S
O593 Fe595 1.715 . S
Fe594 O596 1.886 . S
Fe594 O597 1.715 . S
Fe594 O604 1.935 . S
Fe594 O605 2.077 . S
Fe594 O611 1.935 . S
Fe594 O620 2.077 . S
Fe595 O593 1.715 . S
Fe595 O598 1.886 . S
Fe595 O602 1.935 . S
Fe595 O607 2.077 . S
Fe595 O613 1.935 . S
Fe595 O617 2.077 . S
O596 Fe592 1.715 1_655 S
O596 Fe594 1.886 . S
O597 Fe594 1.715 . S
O597 Fe599 1.886 1_655 S
O598 Fe595 1.886 . S
O598 Fe599 1.715 . S
Fe599 O597 1.886 1_455 S
Fe599 O598 1.715 . S
Fe599 O603 2.077 1_455 S
Fe599 O608 1.935 . S
Fe599 O610 2.077 1_455 S
Fe599 O618 1.935 . S
C600 O612 1.381 . S
C600 O613 1.421 . S
O601 Fe592 2.077 . S
O601 C614 1.381 . S
O602 Fe595 1.935 . S
O602 C614 1.421 . S
O603 Fe599 2.077 1_655 S
O603 C619 1.381 . S
O604 Fe594 1.935 . S
O604 C619 1.421 . S
O605 Fe594 2.077 . S
O605 C609 1.381 . S
O606 Fe592 1.935 1_655 S
O606 C609 1.421 . S
O607 Fe595 2.077 . S
O607 C615 1.381 . S
O608 Fe599 1.935 . S
O608 C615 1.421 . S
C609 O605 1.381 . S
C609 O606 1.421 . S
O610 Fe599 2.077 1_655 S
O610 C622 1.381 . S
O611 Fe594 1.935 . S
O611 C622 1.421 . S
O612 Fe592 2.077 . S
O612 C600 1.381 . S
O613 Fe595 1.935 . S
O613 C600 1.421 . S
C614 O601 1.381 . S
C614 O602 1.421 . S
C615 O607 1.381 . S
C615 O608 1.421 . S
C616 O617 1.381 . S
C616 O618 1.421 . S
O617 Fe595 2.077 . S
O617 C616 1.381 . S
O618 Fe599 1.935 . S
O618 C616 1.421 . S
C619 O603 1.381 . S
C619 O604 1.421 . S
O620 Fe594 2.077 . S
O620 C623 1.381 . S
O621 Fe592 1.935 1_655 S
O621 C623 1.421 . S
C622 O610 1.381 . S
C622 O611 1.421 . S
C623 O620 1.381 . S
C623 O621 1.421 . S
Fe624 O625 1.886 . S
Fe624 O628 1.715 . S
Fe624 O633 2.077 . S
Fe624 O638 1.935 . S
Fe624 O644 2.077 . S
Fe624 O653 1.935 . S
O625 Fe624 1.886 . S
O625 Fe627 1.715 . S
Fe626 O628 1.886 . S
Fe626 O629 1.715 . S
Fe626 O636 1.935 . S
Fe626 O637 2.077 . S
Fe626 O643 1.935 . S
Fe626 O652 2.077 . S
Fe627 O625 1.715 . S
Fe627 O630 1.886 . S
Fe627 O634 1.935 . S
Fe627 O639 2.077 . S
Fe627 O645 1.935 . S
Fe627 O649 2.077 . S
O628 Fe624 1.715 . S
O628 Fe626 1.886 . S
O629 Fe626 1.715 . S
O629 Fe631 1.886 . S
O630 Fe627 1.886 . S
O630 Fe631 1.715 . S
Fe631 O629 1.886 . S
Fe631 O630 1.715 . S
Fe631 O635 2.077 . S
Fe631 O640 1.935 . S
Fe631 O642 2.077 . S
Fe631 O650 1.935 . S
C632 O644 1.381 . S
C632 O645 1.421 . S
O633 Fe624 2.077 . S
O633 C646 1.381 . S
O634 Fe627 1.935 . S
O634 C646 1.421 . S
O635 Fe631 2.077 . S
O635 C651 1.381 . S
O636 Fe626 1.935 . S
O636 C651 1.421 . S
O637 Fe626 2.077 . S
O637 C641 1.381 . S
O638 Fe624 1.935 . S
O638 C641 1.421 . S
O639 Fe627 2.077 . S
O639 C647 1.381 . S
O640 Fe631 1.935 . S
O640 C647 1.421 . S
C641 O637 1.381 . S
C641 O638 1.421 . S
O642 Fe631 2.077 . S
O642 C654 1.381 . S
O643 Fe626 1.935 . S
O643 C654 1.421 . S
O644 Fe624 2.077 . S
O644 C632 1.381 . S
O645 Fe627 1.935 . S
O645 C632 1.421 . S
C646 O633 1.381 . S
C646 O634 1.421 . S
C647 O639 1.381 . S
C647 O640 1.421 . S
C648 O649 1.381 . S
C648 O650 1.421 . S
O649 Fe627 2.077 . S
O649 C648 1.381 . S
O650 Fe631 1.935 . S
O650 C648 1.421 . S
C651 O635 1.381 . S
C651 O636 1.421 . S
O652 Fe626 2.077 . S
O652 C655 1.381 . S
O653 Fe624 1.935 . S
O653 C655 1.421 . S
C654 O642 1.381 . S
C654 O643 1.421 . S
C655 O652 1.381 . S
C655 O653 1.421 . S
Fe656 O657 1.886 . S
Fe656 O660 1.715 . S
Fe656 O665 2.077 . S
Fe656 O670 1.935 . S
Fe656 O676 2.077 . S
Fe656 O685 1.935 . S
O657 Fe656 1.886 . S
O657 Fe659 1.715 . S
Fe658 O660 1.886 . S
Fe658 O661 1.715 . S
Fe658 O668 1.935 . S
Fe658 O669 2.077 . S
Fe658 O675 1.935 . S
Fe658 O684 2.077 . S
Fe659 O657 1.715 . S
Fe659 O662 1.886 . S
Fe659 O666 1.935 . S
Fe659 O671 2.077 . S
Fe659 O677 1.935 . S
Fe659 O681 2.077 . S
O660 Fe656 1.715 . S
O660 Fe658 1.886 . S
O661 Fe658 1.715 . S
O661 Fe663 1.886 . S
O662 Fe659 1.886 . S
O662 Fe663 1.715 . S
Fe663 O661 1.886 . S
Fe663 O662 1.715 . S
Fe663 O667 2.077 . S
Fe663 O672 1.935 . S
Fe663 O674 2.077 . S
Fe663 O682 1.935 . S
C664 O676 1.381 . S
C664 O677 1.421 . S
O665 Fe656 2.077 . S
O665 C678 1.381 . S
O666 Fe659 1.935 . S
O666 C678 1.421 . S
O667 Fe663 2.077 . S
O667 C683 1.381 . S
O668 Fe658 1.935 . S
O668 C683 1.421 . S
O669 Fe658 2.077 . S
O669 C673 1.381 . S
O670 Fe656 1.935 . S
O670 C673 1.421 . S
O671 Fe659 2.077 . S
O671 C679 1.381 . S
O672 Fe663 1.935 . S
O672 C679 1.421 . S
C673 O669 1.381 . S
C673 O670 1.421 . S
O674 Fe663 2.077 . S
O674 C686 1.381 . S
O675 Fe658 1.935 . S
O675 C686 1.421 . S
O676 Fe656 2.077 . S
O676 C664 1.381 . S
O677 Fe659 1.935 . S
O677 C664 1.421 . S
C678 O665 1.381 . S
C678 O666 1.421 . S
C679 O671 1.381 . S
C679 O672 1.421 . S
C680 O681 1.381 . S
C680 O682 1.421 . S
O681 Fe659 2.077 . S
O681 C680 1.381 . S
O682 Fe663 1.935 . S
O682 C680 1.421 . S
C683 O667 1.381 . S
C683 O668 1.421 . S
O684 Fe658 2.077 . S
O684 C687 1.381 . S
O685 Fe656 1.935 . S
O685 C687 1.421 . S
C686 O674 1.381 . S
C686 O675 1.421 . S
C687 O684 1.381 . S
C687 O685 1.421 . S
Fe688 O689 1.886 . S
Fe688 O692 1.715 . S
Fe688 O697 2.077 1_455 S
Fe688 O702 1.935 1_455 S
Fe688 O708 2.077 . S
Fe688 O717 1.935 . S
O689 Fe688 1.886 . S
O689 Fe691 1.715 . S
Fe690 O692 1.886 . S
Fe690 O693 1.715 . S
Fe690 O700 1.935 1_455 S
Fe690 O701 2.077 1_455 S
Fe690 O707 1.935 . S
Fe690 O716 2.077 . S
Fe691 O689 1.715 . S
Fe691 O694 1.886 . S
Fe691 O698 1.935 1_455 S
Fe691 O703 2.077 1_455 S
Fe691 O709 1.935 . S
Fe691 O713 2.077 . S
O692 Fe688 1.715 . S
O692 Fe690 1.886 . S
O693 Fe690 1.715 . S
O693 Fe695 1.886 . S
O694 Fe691 1.886 . S
O694 Fe695 1.715 . S
Fe695 O693 1.886 . S
Fe695 O694 1.715 . S
Fe695 O699 2.077 1_455 S
Fe695 O704 1.935 1_455 S
Fe695 O706 2.077 . S
Fe695 O714 1.935 . S
C696 O708 1.381 . S
C696 O709 1.421 . S
O697 Fe688 2.077 1_655 S
O697 C710 1.381 . S
O698 Fe691 1.935 1_655 S
O698 C710 1.421 . S
O699 Fe695 2.077 1_655 S
O699 C715 1.381 . S
O700 Fe690 1.935 1_655 S
O700 C715 1.421 . S
O701 Fe690 2.077 1_655 S
O701 C705 1.381 . S
O702 Fe688 1.935 1_655 S
O702 C705 1.421 . S
O703 Fe691 2.077 1_655 S
O703 C711 1.381 . S
O704 Fe695 1.935 1_655 S
O704 C711 1.421 . S
C705 O701 1.381 . S
C705 O702 1.421 . S
O706 Fe695 2.077 . S
O706 C718 1.381 . S
O707 Fe690 1.935 . S
O707 C718 1.421 . S
O708 Fe688 2.077 . S
O708 C696 1.381 . S
O709 Fe691 1.935 . S
O709 C696 1.421 . S
C710 O697 1.381 . S
C710 O698 1.421 . S
C711 O703 1.381 . S
C711 O704 1.421 . S
C712 O713 1.381 . S
C712 O714 1.421 . S
O713 Fe691 2.077 . S
O713 C712 1.381 . S
O714 Fe695 1.935 . S
O714 C712 1.421 . S
C715 O699 1.381 . S
C715 O700 1.421 . S
O716 Fe690 2.077 . S
O716 C719 1.381 . S
O717 Fe688 1.935 . S
O717 C719 1.421 . S
C718 O706 1.381 . S
C718 O707 1.421 . S
C719 O716 1.381 . S
C719 O717 1.421 . S
C641 C69 2.679 . S
C125 C673 1.377 . S
C217 C696 2.823 . S
C600 C261 2.020 . S
C683 C39 2.389 . S
C712 C137 3.426 1_545 S
C616 C187 2.407 1_565 S
C651 C291 2.667 1_565 S
C51 C679 0.925 . S
C365 C654 2.273 1_545 S
C199 C622 0.566 . S
C711 C439 1.845 . S
C655 C63 3.651 . S
C335 C623 1.830 . S
C211 C710 3.537 . S
C678 C409 2.290 . S
C495 C705 1.772 . S
C347 C609 1.568 . S
C587 C632 2.803 . S
C421 C664 1.325 . S
C619 C507 3.055 . S
C359 C648 3.038 . S
C557 C680 2.290 . S
C715 C433 3.455 1_655 S
C513 C615 1.963 . S
C143 C718 1.843 . S
C569 C686 0.857 . S
C647 C285 2.872 . S
C719 C483 1.989 . S
C687 C113 2.268 . S
C646 C581 3.727 . S
C614 C273 1.252 . S
