# Generated by pormake.
# Topology tsx, (6,3)-cn, num edge types: 1
# Building blocks:
#     Node 0, Type 0, BuildingBlock: MIDCAF_clean_sbu_0, # of connection points: 6
#     Node 1, Type 0, BuildingBlock: MIDCAF_clean_sbu_0, # of connection points: 6
#     Node 2, Type 1, BuildingBlock: QEWDON_clean_linker_0, # of connection points: 3
#     Node 3, Type 1, BuildingBlock: QEWDON_clean_linker_0, # of connection points: 3
#     Node 4, Type 1, BuildingBlock: QEWDON_clean_linker_0, # of connection points: 3
#     Node 5, Type 1, BuildingBlock: QEWDON_clean_linker_0, # of connection points: 3
#     Edge 6, Type (0, 1), BuildingBlock: MIFKUJ_clean_linker_0, # of connection points: 2
#     Edge 7, Type (0, 1), BuildingBlock: MIFKUJ_clean_linker_0, # of connection points: 2
#     Edge 8, Type (0, 1), BuildingBlock: MIFKUJ_clean_linker_0, # of connection points: 2
#     Edge 9, Type (0, 1), BuildingBlock: MIFKUJ_clean_linker_0, # of connection points: 2
#     Edge 10, Type (0, 1), BuildingBlock: MIFKUJ_clean_linker_0, # of connection points: 2
#     Edge 11, Type (0, 1), BuildingBlock: MIFKUJ_clean_linker_0, # of connection points: 2
#     Edge 12, Type (0, 1), BuildingBlock: MIFKUJ_clean_linker_0, # of connection points: 2
#     Edge 13, Type (0, 1), BuildingBlock: MIFKUJ_clean_linker_0, # of connection points: 2
#     Edge 14, Type (0, 1), BuildingBlock: MIFKUJ_clean_linker_0, # of connection points: 2
#     Edge 15, Type (0, 1), BuildingBlock: MIFKUJ_clean_linker_0, # of connection points: 2
#     Edge 16, Type (0, 1), BuildingBlock: MIFKUJ_clean_linker_0, # of connection points: 2
#     Edge 17, Type (0, 1), BuildingBlock: MIFKUJ_clean_linker_0, # of connection points: 2
# Relax obj value: 0.092
# Max RMSD: 0.157
# Mean RMSD: 0.153
data_MOF--net-tsx--node1-MIDCAF_clean_sbu_0--node2-QEWDON_clean_linker_0--edge1-MIFKUJ_clean_linker_0
_symmetry_space_group_name_H-M    P1
_symmetry_Int_Tables_number       1
_symmetry_cell_setting            triclinic
loop_
_symmetry_equiv_pos_as_xyz
'x, y, z'
_cell_length_a     27.370168
_cell_length_b     28.022405
_cell_length_c     45.488238
_cell_angle_alpha  90.295205
_cell_angle_beta   106.95701
_cell_angle_gamma 90.3224
loop_
_atom_site_label
_atom_site_type_symbol
_atom_site_fract_x
_atom_site_fract_y
_atom_site_fract_z
_atom_type_partial_charge
Zn0 Zn 0.96349 0.99384 0.96604 0.0
Zn1 Zn 0.14193 0.01946 0.04758 0.0
Zn2 Zn 0.05221 0.01022 0.00607 0.0
C3 C 0.11029 0.11076 0.02555 0.0
C4 C 0.15833 0.96336 1.001 0.0
O5 O 1.00308 0.96763 0.02831 0.0
O6 O 0.93157 0.95389 0.99109 0.0
C7 C 0.97404 0.09383 0.97542 0.0
O8 O 0.0707 0.08735 0.00953 0.0
O9 O 0.14661 0.08956 0.04441 0.0
O10 O 0.18219 0.98021 0.02704 0.0
O11 O 0.11018 0.97157 0.98941 0.0
O12 O 0.94316 0.06178 0.96149 0.0
O13 O 0.01862 0.08206 0.99272 0.0
O14 O 0.06472 0.97395 0.96506 0.0
O15 O 0.98719 0.9642 0.93305 0.0
C16 C 0.03499 0.96053 0.93867 0.0
O17 O 0.0472 0.98227 0.05109 0.0
O18 O 0.12441 0.99342 0.0833 0.0
C19 C 0.95807 0.94864 0.01864 0.0
C20 C 0.07866 0.97994 0.07842 0.0
Zn21 Zn 0.6411 0.51585 0.5457 0.0
Zn22 Zn 0.45879 0.49961 0.46432 0.0
Zn23 Zn 0.5491 0.51094 0.5048 0.0
C24 C 0.52887 0.46724 0.43559 0.0
C25 C 0.47441 0.59819 0.47679 0.0
O26 O 0.54419 0.48 0.54879 0.0
O27 O 0.62265 0.486 0.58032 0.0
C28 C 0.65288 0.46286 0.49647 0.0
O29 O 0.55926 0.47808 0.46232 0.0
O30 O 0.48123 0.47171 0.4304 0.0
O31 O 0.44187 0.56835 0.46163 0.0
O32 O 0.51801 0.58378 0.49393 0.0
O33 O 0.67894 0.47852 0.52241 0.0
O34 O 0.60475 0.47205 0.48632 0.0
O35 O 0.56947 0.58758 0.51154 0.0
O36 O 0.6461 0.58644 0.54564 0.0
C37 C 0.60948 0.6095 0.52835 0.0
O38 O 0.49918 0.46759 0.52579 0.0
O39 O 0.42634 0.45893 0.48881 0.0
C40 C 0.57631 0.47456 0.57565 0.0
C41 C 0.45332 0.45062 0.5159 0.0
H42 H 0.05272 0.07801 0.3877 0.0
C43 C 0.07567 0.04981 0.40102 0.0
C44 C 0.08874 0.01025 0.38574 0.0
C45 C 0.09593 0.05488 0.43318 0.0
H46 H 0.13173 0.94519 0.39117 0.0
C47 C 0.12074 0.97511 0.40299 0.0
C48 C 0.14127 0.97944 0.43493 0.0
C49 C 0.12799 0.01895 0.4499 0.0
C50 C 0.0892 0.09995 0.44906 0.0
H51 H 0.14378 0.02227 0.47462 0.0
C52 C 0.04188 0.12378 0.44203 0.0
C53 C 0.03726 0.16737 0.45678 0.0
C54 C 0.13151 0.12003 0.47121 0.0
H55 H 0.16842 0.10292 0.47706 0.0
C56 C 0.12727 0.16301 0.48559 0.0
H57 H 0.00899 0.10851 0.42514 0.0
C58 C 0.08097 0.18685 0.47818 0.0
H59 H 0.07945 0.22016 0.48998 0.0
H60 H 0.16002 0.17804 0.50262 0.0
H61 H 0.07503 0.05827 0.62957 0.0
C62 C 0.04586 0.0328 0.61787 0.0
C63 C 0.03435 0.99402 0.63441 0.0
C64 C 0.01838 0.03974 0.5867 0.0
H65 H 0.98365 0.93407 0.6324 0.0
C66 C 0.99433 0.96275 0.61956 0.0
C67 C 0.96612 0.96921 0.58878 0.0
C68 C 0.97974 0.00652 0.57226 0.0
C69 C 0.0261 0.08364 0.56984 0.0
H70 H 0.95836 0.01083 0.54835 0.0
C71 C 0.07444 0.10624 0.5755 0.0
C72 C 0.07997 0.14879 0.56009 0.0
C73 C 0.98381 0.10413 0.54817 0.0
H74 H 0.94575 0.08929 0.54367 0.0
C75 C 0.98944 0.14505 0.53234 0.0
H76 H 0.10742 0.09118 0.59205 0.0
C77 C 0.03659 0.16761 0.53856 0.0
H78 H 0.03866 0.2 0.52623 0.0
H79 H 0.95688 0.15985 0.51536 0.0
H80 H 0.5612 0.58622 0.88518 0.0
C81 C 0.58374 0.55782 0.89851 0.0
C82 C 0.59564 0.51769 0.88321 0.0
C83 C 0.60437 0.56293 0.93068 0.0
H84 H 0.6367 0.45144 0.88866 0.0
C85 C 0.62684 0.48205 0.90042 0.0
C86 C 0.64804 0.48653 0.93225 0.0
C87 C 0.63609 0.52657 0.9473 0.0
C88 C 0.59761 0.60799 0.94673 0.0
H89 H 0.65236 0.52958 0.97199 0.0
C90 C 0.55096 0.63319 0.93878 0.0
C91 C 0.54606 0.67626 0.9541 0.0
C92 C 0.63911 0.62648 0.9702 0.0
H93 H 0.67559 0.60865 0.97673 0.0
C94 C 0.63468 0.66876 0.98523 0.0
H95 H 0.51879 0.61924 0.92077 0.0
C96 C 0.58908 0.69369 0.9771 0.0
H97 H 0.5877 0.72626 0.98965 0.0
H98 H 0.66677 0.68236 0.0034 0.0
H99 H 0.55445 0.57485 0.12662 0.0
C100 C 0.52719 0.54853 0.1139 0.0
C101 C 0.51075 0.51192 0.12999 0.0
C102 C 0.50556 0.55317 0.08179 0.0
H103 H 0.46095 0.45079 0.12574 0.0
C104 C 0.47318 0.47953 0.1136 0.0
C105 C 0.44997 0.48427 0.082 0.0
C106 C 0.4678 0.51986 0.06608 0.0
C107 C 0.51743 0.59554 0.06505 0.0
H108 H 0.45044 0.52282 0.04154 0.0
C109 C 0.56663 0.61695 0.0728 0.0
C110 C 0.57568 0.65846 0.05746 0.0
C111 C 0.47802 0.616 0.04141 0.0
H112 H 0.43958 0.60166 0.03509 0.0
C113 C 0.48693 0.65628 0.02603 0.0
H114 H 0.59748 0.60175 0.09086 0.0
C115 C 0.53482 0.67772 0.03422 0.0
H116 H 0.53948 0.70954 0.02203 0.0
H117 H 0.45637 0.67142 0.00781 0.0
H118 H 0.13066 0.1825 0.06735 0.0
H119 H 0.16932 0.25969 0.06191 0.0
H120 H 0.15232 0.22781 0.96658 0.0
H121 H 0.11154 0.15109 0.97173 0.0
H122 H 0.25688 0.24177 0.00789 0.0
H123 H 0.09711 0.31872 0.97567 0.0
H124 H 0.01034 0.33855 0.97732 0.0
H125 H 0.07246 0.40548 0.06556 0.0
H126 H 0.15963 0.38507 0.06485 0.0
H127 H 0.42443 0.44155 0.0246 0.0
H128 H 0.34991 0.39067 1.00103 0.0
H129 H 0.29812 0.40885 0.08132 0.0
H130 H 0.3706 0.46115 0.10419 0.0
H131 H 0.21839 0.4075 0.03235 0.0
H132 H 0.3697 0.31094 0.07133 0.0
H133 H 0.45699 0.28408 0.07514 0.0
H134 H 0.41054 0.24901 0.9789 0.0
H135 H 0.32305 0.27625 0.97448 0.0
C136 C 0.13304 0.19305 0.04492 0.0
C137 C 0.11797 0.16137 0.0199 0.0
C138 C 0.15521 0.23698 0.04183 0.0
C139 C 0.1638 0.24926 0.01387 0.0
C140 C 0.1457 0.21898 0.98826 0.0
C141 C 0.12217 0.17547 0.99116 0.0
C142 C 0.19879 0.28951 0.01337 0.0
C143 C 0.24808 0.2784 0.01221 0.0
C144 C 0.18741 0.33679 0.01988 0.0
C145 C 0.13508 0.35017 0.02024 0.0
C146 C 0.09234 0.33738 0.99555 0.0
C147 C 0.04304 0.34874 0.99631 0.0
C148 C 0.03591 0.37329 0.02151 0.0
C149 C 0.07807 0.38651 0.04603 0.0
C150 C 0.12747 0.37509 0.04545 0.0
C151 C 0.39675 0.43522 0.037 0.0
C152 C 0.40415 0.45462 0.06658 0.0
C153 C 0.35425 0.40598 0.02356 0.0
C154 C 0.31865 0.39533 0.03957 0.0
C155 C 0.32494 0.41636 0.06848 0.0
C156 C 0.367 0.4457 0.08177 0.0
C157 C 0.27708 0.35948 0.02774 0.0
C158 C 0.22674 0.37131 0.02687 0.0
C159 C 0.28757 0.31244 0.0199 0.0
C160 C 0.34012 0.29627 0.02248 0.0
C161 C 0.37824 0.29788 0.05094 0.0
C162 C 0.42771 0.28253 0.05322 0.0
C163 C 0.43936 0.26503 0.02725 0.0
C164 C 0.4015 0.26272 0.99897 0.0
C165 C 0.35198 0.27812 0.99656 0.0
H166 H 0.47767 0.25312 0.02906 0.0
H167 H 0.99773 0.3822 0.02198 0.0
H168 H 0.25834 0.9725 0.0047 0.0
H169 H 0.30937 0.92111 0.98212 0.0
H170 H 0.17526 0.83739 0.93734 0.0
H171 H 0.12395 0.8882 0.96101 0.0
H172 H 0.25458 0.78292 0.96874 0.0
H173 H 0.23162 0.91277 0.89977 0.0
H174 H 0.23329 0.99498 0.88141 0.0
H175 H 0.39624 1.0001 0.91921 0.0
H176 H 0.39601 0.91795 0.9379 0.0
H177 H 0.44689 0.64057 0.93471 0.0
H178 H 0.36757 0.6844 0.92704 0.0
H179 H 0.45378 0.81504 0.95393 0.0
H180 H 0.53178 0.77311 0.95724 0.0
H181 H 0.37756 0.83868 0.915 0.0
H182 H 0.37979 0.74434 0.01136 0.0
H183 H 0.38074 0.66974 0.04017 0.0
H184 H 0.26997 0.60733 0.96215 0.0
H185 H 0.26681 0.6825 0.93344 0.0
C186 C 0.23951 0.94345 0.98979 0.0
C187 C 0.18704 0.93459 0.98439 0.0
C188 C 0.26868 0.91434 0.97666 0.0
C189 C 0.24605 0.87582 0.95765 0.0
C190 C 0.19339 0.86723 0.95173 0.0
C191 C 0.16406 0.89643 0.96503 0.0
C192 C 0.27886 0.84239 0.94661 0.0
C193 C 0.28084 0.79492 0.95641 0.0
C194 C 0.31381 0.85841 0.93111 0.0
C195 C 0.3138 0.90849 0.92007 0.0
C196 C 0.26793 0.93124 0.90434 0.0
C197 C 0.26858 0.97796 0.89383 0.0
C198 C 0.31476 0.00271 0.89914 0.0
C199 C 0.36046 0.9808 0.91497 0.0
C200 C 0.36011 0.93399 0.92538 0.0
C201 C 0.449 0.67883 0.93822 0.0
C202 C 0.49655 0.70278 0.94724 0.0
C203 C 0.40331 0.70384 0.9346 0.0
C204 C 0.40404 0.75312 0.94093 0.0
C205 C 0.45139 0.7771 0.94898 0.0
C206 C 0.49661 0.75261 0.95149 0.0
C207 C 0.35663 0.78052 0.93983 0.0
C208 C 0.35108 0.82663 0.92712 0.0
C209 C 0.31984 0.7643 0.95396 0.0
C210 C 0.32407 0.71831 0.9701 0.0
C211 C 0.35604 0.71448 1.00033 0.0
C212 C 0.35658 0.67232 0.01671 0.0
C213 C 0.326 0.63355 0.00286 0.0
C214 C 0.294 0.63722 0.97277 0.0
C215 C 0.29248 0.67969 0.95653 0.0
H216 H 0.32684 0.6008 0.01551 0.0
H217 H 0.31514 0.0389 0.891 0.0
H218 H 0.86378 0.95813 0.02487 0.0
H219 H 0.81876 0.90277 0.04926 0.0
H220 H 0.95514 0.81833 0.08099 0.0
H221 H 1.00103 0.87502 0.05696 0.0
H222 H 0.86844 0.76785 0.04412 0.0
H223 H 0.9092 0.85869 0.13621 0.0
H224 H 0.92224 0.93066 0.16932 0.0
H225 H 0.76472 0.96781 0.13046 0.0
H226 H 0.7508 0.89578 0.09752 0.0
H227 H 0.67171 0.61755 0.07407 0.0
H228 H 0.75437 0.65808 0.08326 0.0
H229 H 0.67776 0.79354 0.06459 0.0
H230 H 0.59647 0.75428 0.05857 0.0
H231 H 0.75759 0.80469 0.11003 0.0
H232 H 0.75169 0.74129 0.99923 0.0
H233 H 0.74318 0.67352 0.96308 0.0
H234 H 0.83311 0.58632 0.0361 0.0
H235 H 0.84322 0.65414 0.07241 0.0
C236 C 0.88461 0.92857 0.03785 0.0
C237 C 0.93571 0.92066 0.03901 0.0
C238 C 0.85893 0.89703 0.0519 0.0
C239 C 0.88353 0.85639 0.06699 0.0
C240 C 0.93551 0.84959 0.06957 0.0
C241 C 0.96169 0.88195 0.05596 0.0
C242 C 0.85213 0.81852 0.07565 0.0
C243 C 0.84523 0.77523 0.05929 0.0
C244 C 0.82134 0.8283 0.09503 0.0
C245 C 0.82922 0.87205 0.11438 0.0
C246 C 0.8776 0.88249 0.13468 0.0
C247 C 0.88506 0.92315 0.15344 0.0
C248 C 0.84446 0.95398 0.15184 0.0
C249 C 0.79618 0.94394 0.13166 0.0
C250 C 0.78842 0.90303 0.11307 0.0
C251 C 0.67259 0.65606 0.07247 0.0
C252 C 0.62695 0.68238 0.06508 0.0
C253 C 0.71998 0.67917 0.07702 0.0
C254 C 0.72264 0.72894 0.07367 0.0
C255 C 0.67718 0.75513 0.06711 0.0
C256 C 0.63029 0.73237 0.06327 0.0
C257 C 0.77183 0.75502 0.07714 0.0
C258 C 0.78193 0.79636 0.0957 0.0
C259 C 0.80539 0.74359 0.05962 0.0
C260 C 0.79696 0.70213 0.03857 0.0
C261 C 0.76928 0.7075 0.00754 0.0
C262 C 0.7646 0.66928 0.98699 0.0
C263 C 0.78725 0.62551 0.99733 0.0
C264 C 0.81524 0.6201 0.02817 0.0
C265 C 0.82064 0.65846 0.04869 0.0
H266 H 0.78326 0.59587 0.98143 0.0
H267 H 0.85038 0.98553 0.16632 0.0
H268 H 0.01659 0.17346 0.01023 0.0
H269 H 0.97968 0.25337 0.00739 0.0
H270 H 0.84987 0.20501 0.93369 0.0
H271 H 0.88858 0.12767 0.93449 0.0
H272 H 0.86566 0.28936 0.92228 0.0
H273 H 0.85992 0.20893 0.0173 0.0
H274 H 0.90068 0.17329 0.06799 0.0
H275 H 0.9809 0.3048 0.09911 0.0
H276 H 0.94072 0.34105 0.04854 0.0
H277 H 0.64169 0.38949 0.92889 0.0
H278 H 0.71274 0.33363 0.94407 0.0
H279 H 0.81454 0.44867 0.98655 0.0
H280 H 0.74338 0.50511 0.97114 0.0
H281 H 0.83181 0.34919 0.01731 0.0
H282 H 0.81719 0.43185 0.92197 0.0
H283 H 0.76556 0.46323 0.87209 0.0
H284 H 0.71574 0.32116 0.84136 0.0
H285 H 0.76616 0.28903 0.89134 0.0
C286 C 0.9813 0.1805 0.99268 0.0
C287 C 0.95596 0.14401 0.9725 0.0
C288 C 0.95959 0.22604 0.99144 0.0
C289 C 0.91125 0.23528 0.97073 0.0
C290 C 0.88714 0.19928 0.94989 0.0
C291 C 0.90931 0.15459 0.95057 0.0
C292 C 0.88312 0.28059 0.97136 0.0
C293 C 0.85867 0.30241 0.94317 0.0
C294 C 0.87466 0.29897 0.99861 0.0
C295 C 0.89796 0.27742 0.02908 0.0
C296 C 0.88641 0.23012 0.03495 0.0
C297 C 0.90936 0.20984 0.06364 0.0
C298 C 0.94352 0.2367 0.08672 0.0
C299 C 0.95457 0.28399 0.08119 0.0
C300 C 0.93172 0.30442 0.05253 0.0
C301 C 0.67889 0.40268 0.9422 0.0
C302 C 0.68717 0.45168 0.94849 0.0
C303 C 0.71939 0.37076 0.95092 0.0
C304 C 0.76891 0.38723 0.96604 0.0
C305 C 0.77654 0.43536 0.97492 0.0
C306 C 0.73585 0.46748 0.96616 0.0
C307 C 0.81275 0.35533 0.96816 0.0
C308 C 0.84013 0.33667 0.99669 0.0
C309 C 0.82331 0.33911 0.94118 0.0
C310 C 0.79534 0.35806 0.91047 0.0
C311 C 0.79513 0.40731 0.90461 0.0
C312 C 0.76601 0.42525 0.87633 0.0
C313 C 0.73734 0.39422 0.85358 0.0
C314 C 0.73798 0.34516 0.859 0.0
C315 C 0.76687 0.32705 0.88729 0.0
H316 H 0.71466 0.4082 0.83175 0.0
H317 H 0.9613 0.22093 0.1089 0.0
H318 H 0.60233 0.65965 0.4763 0.0
H319 H 0.64473 0.73665 0.47441 0.0
H320 H 0.67767 0.75128 0.5727 0.0
H321 H 0.63705 0.67392 0.57471 0.0
H322 H 0.65935 0.84212 0.5372 0.0
H323 H 0.75861 0.69256 0.55166 0.0
H324 H 0.77282 0.61161 0.53435 0.0
H325 H 0.78142 0.66799 0.44837 0.0
H326 H 0.76634 0.74923 0.46505 0.0
H327 H 0.89339 0.94214 0.61564 0.0
H328 H 0.81747 0.89356 0.59392 0.0
H329 H 0.85454 0.88324 0.50819 0.0
H330 H 0.93258 0.93032 0.53048 0.0
H331 H 0.82672 0.79941 0.52276 0.0
H332 H 0.75333 0.95187 0.5145 0.0
H333 H 0.73765 0.03322 0.53033 0.0
H334 H 0.67723 0.97585 0.59998 0.0
H335 H 0.69336 0.89412 0.58495 0.0
C336 C 0.61657 0.68046 0.49723 0.0
C337 C 0.6168 0.66111 0.52567 0.0
C338 C 0.64088 0.72427 0.49615 0.0
C339 C 0.66468 0.74934 0.52347 0.0
C340 C 0.65938 0.73257 0.55138 0.0
C341 C 0.63623 0.68842 0.55253 0.0
C342 C 0.70342 0.78684 0.52434 0.0
C343 C 0.69588 0.83315 0.53387 0.0
C344 C 0.75047 0.77528 0.51911 0.0
C345 C 0.76078 0.72675 0.50943 0.0
C346 C 0.76321 0.6876 0.529 0.0
C347 C 0.77143 0.6417 0.51931 0.0
C348 C 0.77787 0.63464 0.49024 0.0
C349 C 0.7763 0.6735 0.47085 0.0
C350 C 0.7679 0.71947 0.4804 0.0
C351 C 0.88589 0.92914 0.59227 0.0
C352 C 0.9195 0.93975 0.57493 0.0
C353 C 0.84182 0.90202 0.57965 0.0
C354 C 0.82959 0.88546 0.54917 0.0
C355 C 0.86292 0.89597 0.53168 0.0
C356 C 0.90739 0.92302 0.5444 0.0
C357 C 0.78353 0.85483 0.53662 0.0
C358 C 0.7898 0.80945 0.5251 0.0
C359 C 0.73511 0.86766 0.5396 0.0
C360 C 0.72478 0.91676 0.54864 0.0
C361 C 0.73698 0.95656 0.53332 0.0
C362 C 0.72799 0.00277 0.54214 0.0
C363 C 0.70648 0.00969 0.56616 0.0
C364 C 0.69385 0.97042 0.58136 0.0
C365 C 0.70284 0.92412 0.57267 0.0
H366 H 0.69956 0.0455 0.57297 0.0
H367 H 0.7842 0.59907 0.48276 0.0
H368 H 0.74919 0.47359 0.49282 0.0
H369 H 0.79755 0.41765 0.47111 0.0
H370 H 0.66431 0.32704 0.43966 0.0
H371 H 0.61521 0.38379 0.46115 0.0
H372 H 0.75167 0.28106 0.47752 0.0
H373 H 0.7088 0.37143 0.38614 0.0
H374 H 0.69583 0.44226 0.35266 0.0
H375 H 0.85441 0.4795 0.38929 0.0
H376 H 0.8684 0.40842 0.42241 0.0
H377 H 0.94043 0.12861 0.44569 0.0
H378 H 0.86025 0.17111 0.43942 0.0
H379 H 0.94193 0.3054 0.4509 0.0
H380 H 0.02053 0.26374 0.45418 0.0
H381 H 0.86027 0.31779 0.41023 0.0
H382 H 0.88874 0.24976 0.51631 0.0
H383 H 0.89993 0.18395 0.55361 0.0
H384 H 0.77261 0.10894 0.49286 0.0
H385 H 0.75973 0.17513 0.45572 0.0
C386 C 0.72987 0.44227 0.48068 0.0
C387 C 0.67859 0.43284 0.47876 0.0
C388 C 0.75744 0.41046 0.46812 0.0
C389 C 0.73453 0.36822 0.45371 0.0
C390 C 0.68262 0.35955 0.4506 0.0
C391 C 0.65463 0.39197 0.46276 0.0
C392 C 0.76713 0.33123 0.44563 0.0
C393 C 0.77456 0.28846 0.46217 0.0
C394 C 0.79758 0.34127 0.42609 0.0
C395 C 0.78946 0.38465 0.40672 0.0
C396 C 0.74073 0.39489 0.38705 0.0
C397 C 0.73325 0.43499 0.36814 0.0
C398 C 0.77415 0.46555 0.36902 0.0
C399 C 0.82272 0.45583 0.38864 0.0
C400 C 0.83051 0.41544 0.40733 0.0
C401 C 0.9411 0.16724 0.4462 0.0
C402 C 0.98737 0.19257 0.4508 0.0
C403 C 0.89523 0.19155 0.44325 0.0
C404 C 0.8948 0.24165 0.44541 0.0
C405 C 0.9408 0.26681 0.44923 0.0
C406 C 0.98617 0.24274 0.45153 0.0
C407 C 0.84725 0.26884 0.44367 0.0
C408 C 0.83677 0.30973 0.42511 0.0
C409 C 0.81456 0.25753 0.46179 0.0
C410 C 0.82388 0.2168 0.48314 0.0
C411 C 0.8634 0.21905 0.5109 0.0
C412 C 0.86971 0.18194 0.5321 0.0
C413 C 0.83729 0.1421 0.52549 0.0
C414 C 0.79791 0.13966 0.49787 0.0
C415 C 0.79084 0.17709 0.47685 0.0
H416 H 0.84255 0.11324 0.54182 0.0
H417 H 0.76822 0.49666 0.35443 0.0
H418 H 0.35793 0.45689 0.52104 0.0
H419 H 0.31392 0.39997 0.54503 0.0
H420 H 0.4524 0.31862 0.57736 0.0
H421 H 0.49726 0.37677 0.5537 0.0
H422 H 0.36588 0.26644 0.5403 0.0
H423 H 0.40722 0.36008 0.63127 0.0
H424 H 0.41864 0.43261 0.66382 0.0
H425 H 0.25904 0.46355 0.62733 0.0
H426 H 0.24668 0.39091 0.59503 0.0
H427 H 0.17713 0.1108 0.57288 0.0
H428 H 0.25777 0.15397 0.5801 0.0
H429 H 0.17627 0.28725 0.5652 0.0
H430 H 0.09723 0.24525 0.56128 0.0
H431 H 0.2572 0.30089 0.6079 0.0
H432 H 0.24098 0.23589 0.49837 0.0
H433 H 0.23055 0.16817 0.46199 0.0
H434 H 0.33827 0.08666 0.53067 0.0
H435 H 0.35027 0.15456 0.56708 0.0
C436 C 0.37936 0.42757 0.53396 0.0
C437 C 0.43083 0.42102 0.53546 0.0
C438 C 0.35426 0.39516 0.54778 0.0
C439 C 0.37985 0.35506 0.56302 0.0
C440 C 0.43204 0.34946 0.5658 0.0
C441 C 0.45761 0.38266 0.55241 0.0
C442 C 0.34952 0.31671 0.57205 0.0
C443 C 0.34314 0.27333 0.5558 0.0
C444 C 0.31922 0.32599 0.59179 0.0
C445 C 0.32623 0.37015 0.61075 0.0
C446 C 0.37476 0.38257 0.63017 0.0
C447 C 0.38134 0.42358 0.64858 0.0
C448 C 0.3397 0.45283 0.64748 0.0
C449 C 0.2913 0.44089 0.62815 0.0
C450 C 0.28444 0.39962 0.60993 0.0
C451 C 0.17653 0.14937 0.57172 0.0
C452 C 0.13015 0.17427 0.56604 0.0
C453 C 0.22273 0.17404 0.57517 0.0
C454 C 0.22339 0.22401 0.57236 0.0
C455 C 0.17724 0.24875 0.56736 0.0
C456 C 0.13158 0.22442 0.56466 0.0
C457 C 0.27126 0.25167 0.57471 0.0
C458 C 0.28095 0.29318 0.59311 0.0
C459 C 0.30416 0.241 0.55663 0.0
C460 C 0.29559 0.19963 0.53551 0.0
C461 C 0.26217 0.20337 0.50567 0.0
C462 C 0.2563 0.16516 0.48501 0.0
C463 C 0.28338 0.12296 0.4941 0.0
C464 C 0.31703 0.11921 0.52373 0.0
C465 C 0.32361 0.15762 0.54431 0.0
H466 H 0.27843 0.09328 0.47816 0.0
H467 H 0.34492 0.48466 0.66168 0.0
H468 H 0.50973 0.6688 0.52047 0.0
H469 H 0.47156 0.74764 0.52155 0.0
H470 H 0.36376 0.71843 0.43288 0.0
H471 H 0.40304 0.64157 0.43108 0.0
H472 H 0.38532 0.80738 0.43548 0.0
H473 H 0.33966 0.69389 0.50433 0.0
H474 H 0.35891 0.63986 0.54886 0.0
H475 H 0.42713 0.75623 0.6089 0.0
H476 H 0.40874 0.81081 0.56462 0.0
H477 H 0.14091 0.88238 0.42872 0.0
H478 H 0.21411 0.82938 0.44628 0.0
H479 H 0.30539 0.94584 0.49616 0.0
H480 H 0.23269 0.99978 0.47786 0.0
H481 H 0.30918 0.82952 0.52117 0.0
H482 H 0.34008 0.94467 0.44628 0.0
H483 H 0.30598 0.99158 0.39904 0.0
H484 H 0.25342 0.8628 0.34769 0.0
H485 H 0.28651 0.81525 0.39479 0.0
C486 C 0.47919 0.68006 0.50077 0.0
C487 C 0.45926 0.64889 0.47575 0.0
C488 C 0.45691 0.72486 0.50158 0.0
C489 C 0.41402 0.73869 0.47757 0.0
C490 C 0.39665 0.70878 0.45175 0.0
C491 C 0.41902 0.66456 0.45082 0.0
C492 C 0.3836 0.78169 0.47981 0.0
C493 C 0.36951 0.81256 0.45453 0.0
C494 C 0.36271 0.78889 0.50461 0.0
C495 C 0.37344 0.75622 0.53119 0.0
C496 C 0.35903 0.70784 0.52702 0.0
C497 C 0.36976 0.67715 0.5522 0.0
C498 C 0.39439 0.69457 0.58168 0.0
C499 C 0.40818 0.74276 0.58605 0.0
C500 C 0.39762 0.77359 0.56093 0.0
C501 C 0.17623 0.89658 0.4439 0.0
C502 C 0.18119 0.94541 0.45152 0.0
C503 C 0.21786 0.86619 0.45408 0.0
C504 C 0.265 0.8839 0.47232 0.0
C505 C 0.2691 0.93161 0.4822 0.0
C506 C 0.22747 0.96228 0.47179 0.0
C507 C 0.31086 0.85402 0.47676 0.0
C508 C 0.32711 0.82551 0.50296 0.0
C509 C 0.3331 0.84824 0.4526 0.0
C510 C 0.31553 0.87651 0.42404 0.0
C511 C 0.3211 0.92643 0.42492 0.0
C512 C 0.30194 0.95311 0.39819 0.0
C513 C 0.27746 0.9302 0.37039 0.0
C514 C 0.27238 0.88051 0.36924 0.0
C515 C 0.2914 0.85368 0.39593 0.0
H516 H 0.26248 0.95092 0.34973 0.0
H517 H 0.40267 0.67075 0.60114 0.0
H518 H 0.1366 0.94248 0.1318 0.0
H519 H 0.1161 0.93772 0.18009 0.0
H520 H 0.96211 0.9832 0.13497 0.0
H521 H 0.98353 0.99017 0.08646 0.0
H522 H 0.99829 0.034 0.18382 0.0
H523 H 0.99249 0.86888 0.1662 0.0
H524 H 0.01733 0.78954 0.15225 0.0
H525 H 0.15269 0.79498 0.22925 0.0
H526 H 0.12891 0.87466 0.24337 0.0
H527 H 0.99367 0.02246 0.34412 0.0
H528 H 0.96985 0.00888 0.28809 0.0
H529 H 0.1268 0.97673 0.29512 0.0
H530 H 0.15059 0.99057 0.35032 0.0
H531 H 0.0601 0.90856 0.26209 0.0
H532 H 0.07406 0.08324 0.26861 0.0
H533 H 0.04799 0.16266 0.28194 0.0
H534 H 0.89476 0.13606 0.22515 0.0
H535 H 0.91985 0.05618 0.2118 0.0
C536 C 0.09793 0.9503 0.13192 0.0
C537 C 0.06158 0.96635 0.10524 0.0
C538 C 0.08606 0.94723 0.15961 0.0
C539 C 0.03724 0.95937 0.1613 0.0
C540 C 0.9999 0.97316 0.13428 0.0
C541 C 0.01197 0.97658 0.10644 0.0
C542 C 0.02803 0.96256 0.19195 0.0
C543 C 0.01056 0.00597 0.20068 0.0
C544 C 0.04389 0.92609 0.21412 0.0
C545 C 0.05859 0.87788 0.20587 0.0
C546 C 0.02749 0.85321 0.18013 0.0
C547 C 0.04148 0.80816 0.17217 0.0
C548 C 0.08655 0.78717 0.18989 0.0
C549 C 0.1177 0.81123 0.21559 0.0
C550 C 0.10388 0.85634 0.22361 0.0
C551 C 0.02299 0.01304 0.33352 0.0
C552 C 0.07381 0.00686 0.35164 0.0
C553 C 0.00936 0.00509 0.30162 0.0
C554 C 0.04649 0.99118 0.28751 0.0
C555 C 0.09736 0.98664 0.30554 0.0
C556 C 0.1109 0.99459 0.33713 0.0
C557 C 0.03368 0.98079 0.25406 0.0
C558 C 0.04662 0.93588 0.24487 0.0
C559 C 0.01353 0.01565 0.2315 0.0
C560 C 0.99863 0.06357 0.23957 0.0
C561 C 0.03471 0.09418 0.2592 0.0
C562 C 0.02014 0.1393 0.26671 0.0
C563 C 0.9697 0.15432 0.25449 0.0
C564 C 0.93377 0.12432 0.23466 0.0
C565 C 0.94814 0.07914 0.22712 0.0
H566 H 0.9585 0.18927 0.26032 0.0
H567 H 0.09736 0.75228 0.1837 0.0
H568 H 0.98935 0.90367 0.88979 0.0
H569 H 0.01022 0.89883 0.84124 0.0
H570 H 0.14602 0.9832 0.87991 0.0
H571 H 0.12493 0.98907 0.92864 0.0
H572 H 0.01896 0.99494 0.8157 0.0
H573 H 0.22325 0.92155 0.82076 0.0
H574 H 0.28341 0.85972 0.84728 0.0
H575 H 0.16348 0.78896 0.87372 0.0
H576 H 0.10185 0.84826 0.84571 0.0
H577 H 0.0611 0.06363 0.67922 0.0
H578 H 0.08435 0.05209 0.73474 0.0
H579 H 0.08362 0.89956 0.72131 0.0
H580 H 0.06399 0.91095 0.66599 0.0
H581 H 0.14855 0.91957 0.77411 0.0
H582 H 0.97474 0.95995 0.72368 0.0
H583 H 0.9049 0.00845 0.69124 0.0
H584 H 0.95191 0.12715 0.75338 0.0
H585 H 0.02255 0.0795 0.78596 0.0
C586 C 0.0246 0.91989 0.88835 0.0
C587 C 0.05543 0.94681 0.91306 0.0
C588 C 0.03655 0.91694 0.86061 0.0
C589 C 0.07988 0.94036 0.85706 0.0
C590 C 0.11305 0.96407 0.8824 0.0
C591 C 0.10089 0.96736 0.91024 0.0
C592 C 0.08379 0.94816 0.82562 0.0
C593 C 0.0478 0.97884 0.8068 0.0
C594 C 0.12073 0.92611 0.81385 0.0
C595 C 0.15786 0.89058 0.83172 0.0
C596 C 0.20945 0.89272 0.83205 0.0
C597 C 0.2438 0.85769 0.84707 0.0
C598 C 0.22731 0.82055 0.86228 0.0
C599 C 0.17631 0.81801 0.86215 0.0
C600 C 0.14158 0.85239 0.84665 0.0
C601 C 0.06782 0.02772 0.68807 0.0
C602 C 0.05943 0.98816 0.66802 0.0
C603 C 0.08061 0.02111 0.71989 0.0
C604 C 0.08407 0.97486 0.73221 0.0
C605 C 0.08058 0.93558 0.71245 0.0
C606 C 0.06874 0.94217 0.68072 0.0
C607 C 0.08453 0.96715 0.76467 0.0
C608 C 0.12082 0.9365 0.78352 0.0
C609 C 0.04692 0.98776 0.77643 0.0
C610 C 1.00423 0.01636 0.75706 0.0
C611 C 0.97035 0.99649 0.73032 0.0
C612 C 0.93063 0.02381 0.71192 0.0
C613 C 0.92405 0.07089 0.72021 0.0
C614 C 0.95711 0.0907 0.74696 0.0
C615 C 0.997 0.06357 0.76541 0.0
H616 H 0.89327 0.09199 0.70593 0.0
H617 H 0.25404 0.7937 0.87412 0.0
H618 H 0.63308 0.43401 0.62842 0.0
H619 H 0.61364 0.43131 0.67711 0.0
H620 H 0.46198 0.48379 0.6332 0.0
H621 H 0.48233 0.48842 0.58437 0.0
H622 H 0.5019 0.53474 0.68092 0.0
H623 H 0.48688 0.36875 0.66643 0.0
H624 H 0.50704 0.2872 0.65343 0.0
H625 H 0.64523 0.29078 0.72852 0.0
H626 H 0.62613 0.37263 0.74161 0.0
H627 H 0.50058 0.53212 0.84206 0.0
H628 H 0.47505 0.51681 0.78618 0.0
H629 H 0.63017 0.47862 0.79233 0.0
H630 H 0.65574 0.49442 0.84733 0.0
H631 H 0.55973 0.41116 0.76092 0.0
H632 H 0.5825 0.58485 0.76464 0.0
H633 H 0.56139 0.66655 0.77701 0.0
H634 H 0.40617 0.64559 0.72173 0.0
H635 H 0.42628 0.56347 0.70936 0.0
C636 C 0.59503 0.44364 0.6289 0.0
C637 C 0.55918 0.46117 0.60248 0.0
C638 C 0.58374 0.44177 0.65682 0.0
C639 C 0.53599 0.45669 0.65899 0.0
C640 C 0.49891 0.47158 0.63218 0.0
C641 C 0.51038 0.47373 0.60413 0.0
C642 C 0.52809 0.46226 0.68988 0.0
C643 C 0.5132 0.50713 0.69816 0.0
C644 C 0.54289 0.42645 0.7126 0.0
C645 C 0.55482 0.37699 0.70496 0.0
C646 C 0.52155 0.35222 0.68008 0.0
C647 C 0.53286 0.30592 0.67269 0.0
C648 C 0.57739 0.28378 0.69016 0.0
C649 C 0.61067 0.30793 0.71504 0.0
C650 C 0.59953 0.3543 0.72247 0.0
C651 C 0.52917 0.5211 0.83129 0.0
C652 C 0.57995 0.51376 0.84913 0.0
C653 C 0.51455 0.51213 0.79949 0.0
C654 C 0.55062 0.49593 0.78521 0.0
C655 C 0.60153 0.49031 0.80291 0.0
C656 C 0.61608 0.49938 0.83439 0.0
C657 C 0.53661 0.48415 0.75193 0.0
C658 C 0.54708 0.43805 0.74331 0.0
C659 C 0.51765 0.51863 0.72893 0.0
C660 C 0.50569 0.56786 0.73646 0.0
C661 C 0.54376 0.59751 0.75538 0.0
C662 C 0.53201 0.64392 0.76233 0.0
C663 C 0.48242 0.66119 0.75027 0.0
C664 C 0.44452 0.63212 0.73114 0.0
C665 C 0.45607 0.58566 0.72415 0.0
H666 H 0.4734 0.69714 0.75566 0.0
H667 H 0.58612 0.24792 0.68443 0.0
H668 H 0.47869 0.4213 0.38267 0.0
H669 H 0.50077 0.4209 0.33482 0.0
H670 H 0.64541 0.48861 0.3803 0.0
H671 H 0.62187 0.49147 0.42811 0.0
H672 H 0.60637 0.53414 0.33203 0.0
H673 H 0.63293 0.36998 0.34692 0.0
H674 H 0.61882 0.28696 0.36028 0.0
H675 H 0.48093 0.27995 0.28507 0.0
H676 H 0.49395 0.3632 0.27165 0.0
H677 H 0.60899 0.52164 0.16904 0.0
H678 H 0.63722 0.50829 0.22505 0.0
H679 H 0.48132 0.4808 0.22336 0.0
H680 H 0.45285 0.49575 0.16843 0.0
H681 H 0.55773 0.40716 0.25231 0.0
H682 H 0.52633 0.58056 0.24878 0.0
H683 H 0.54508 0.6629 0.23625 0.0
H684 H 0.70112 0.64785 0.29098 0.0
H685 H 0.68337 0.5651 0.30347 0.0
C686 C 0.51587 0.4349 0.38275 0.0
C687 C 0.54865 0.45605 0.40933 0.0
C688 C 0.52878 0.43428 0.35529 0.0
C689 C 0.57534 0.45391 0.35375 0.0
C690 C 0.60954 0.47268 0.38077 0.0
C691 C 0.5963 0.47378 0.4083 0.0
C692 C 0.58442 0.46005 0.32318 0.0
C693 C 0.59717 0.5058 0.31493 0.0
C694 C 0.57287 0.4233 0.30059 0.0
C695 C 0.56459 0.37299 0.30836 0.0
C696 C 0.59956 0.3508 0.33336 0.0
C697 C 0.59172 0.30368 0.34093 0.0
C698 C 0.54899 0.27816 0.32352 0.0
C699 C 0.51407 0.29974 0.29851 0.0
C700 C 0.52177 0.3469 0.29089 0.0
C701 C 0.5808 0.51345 0.18078 0.0
C702 C 0.52881 0.50874 0.16415 0.0
C703 C 0.59699 0.50555 0.21265 0.0
C704 C 0.56135 0.49272 0.22813 0.0
C705 C 0.50948 0.48981 0.21173 0.0
C706 C 0.49334 0.49822 0.18027 0.0
C707 C 0.57669 0.48138 0.26132 0.0
C708 C 0.56863 0.43469 0.26992 0.0
C709 C 0.59328 0.51689 0.28425 0.0
C710 C 0.60374 0.56649 0.27665 0.0
C711 C 0.56477 0.59464 0.25785 0.0
C712 C 0.57517 0.64142 0.25083 0.0
C713 C 0.62432 0.66053 0.2627 0.0
C714 C 0.66311 0.63295 0.28171 0.0
C715 C 0.65291 0.58613 0.28877 0.0
H716 H 0.63229 0.69677 0.25726 0.0
H717 H 0.54293 0.24167 0.3294 0.0
loop_
_geom_bond_atom_site_label_1
_geom_bond_atom_site_label_2
_geom_bond_distance
_geom_bond_site_symmetry_2
_ccdc_geom_bond_type
Zn0 O6 1.920 1_545 S
Zn0 O12 1.898 . S
Zn0 O15 1.905 1_545 S
Zn1 O9 1.905 . S
Zn1 O10 1.898 1_545 S
Zn1 O18 1.920 1_545 S
Zn2 O5 2.083 1_444 S
Zn2 O8 2.114 . S
Zn2 O11 2.120 1_545 S
Zn2 O13 2.120 1_455 S
Zn2 O14 2.114 1_554 S
Zn2 O17 2.080 . S
C3 O8 1.166 . S
C3 O9 1.182 . S
C4 O10 1.167 . S
C4 O11 1.299 . S
O5 Zn2 2.083 1_666 S
O5 C19 1.297 . S
O6 Zn0 1.920 1_565 S
O6 C19 1.234 . S
C7 O12 1.167 . S
C7 O13 1.299 1_556 S
O8 Zn2 2.114 . S
O8 C3 1.166 . S
O9 Zn1 1.905 . S
O9 C3 1.182 . S
O10 Zn1 1.898 1_565 S
O10 C4 1.167 . S
O11 Zn2 2.120 1_565 S
O11 C4 1.299 . S
O12 Zn0 1.898 . S
O12 C7 1.167 . S
O13 Zn2 2.120 1_655 S
O13 C7 1.299 1_554 S
O14 Zn2 2.114 1_556 S
O14 C16 1.166 1_545 S
O15 Zn0 1.905 1_565 S
O15 C16 1.182 1_655 S
C16 O14 1.166 1_565 S
C16 O15 1.182 1_455 S
O17 Zn2 2.080 . S
O17 C20 1.305 1_545 S
O18 Zn1 1.920 1_565 S
O18 C20 1.234 . S
C19 O5 1.297 . S
C19 O6 1.234 . S
C20 O17 1.305 1_565 S
C20 O18 1.234 . S
Zn21 O27 1.920 . S
Zn21 O33 1.898 . S
Zn21 O36 1.905 . S
Zn22 O30 1.905 . S
Zn22 O31 1.898 . S
Zn22 O39 1.920 . S
Zn23 O26 2.080 . S
Zn23 O29 2.114 . S
Zn23 O32 2.120 . S
Zn23 O34 2.120 . S
Zn23 O35 2.114 . S
Zn23 O38 2.080 . S
C24 O29 1.166 . S
C24 O30 1.182 . S
C25 O31 1.167 . S
C25 O32 1.299 . S
O26 Zn23 2.080 . S
O26 C40 1.305 . S
O27 Zn21 1.920 . S
O27 C40 1.234 . S
C28 O33 1.167 . S
C28 O34 1.299 . S
O29 Zn23 2.114 . S
O29 C24 1.166 . S
O30 Zn22 1.905 . S
O30 C24 1.182 . S
O31 Zn22 1.898 . S
O31 C25 1.167 . S
O32 Zn23 2.120 . S
O32 C25 1.299 . S
O33 Zn21 1.898 . S
O33 C28 1.167 . S
O34 Zn23 2.120 . S
O34 C28 1.299 . S
O35 Zn23 2.114 . S
O35 C37 1.166 . S
O36 Zn21 1.905 . S
O36 C37 1.182 . S
C37 O35 1.166 . S
C37 O36 1.182 . S
O38 Zn23 2.080 . S
O38 C41 1.305 . S
O39 Zn22 1.920 . S
O39 C41 1.234 . S
C40 O26 1.305 . S
C40 O27 1.234 . S
C41 O38 1.305 . S
C41 O39 1.234 . S
H42 C43 0.949 . S
C43 H42 0.949 . S
C43 C44 1.395 . S
C43 C45 1.391 . S
C44 C43 1.395 . S
C44 C47 1.390 1_545 S
C45 C43 1.391 . S
C45 C49 1.387 . S
C45 C50 1.491 . S
H46 C47 0.950 . S
C47 C44 1.390 1_565 S
C47 H46 0.950 . S
C47 C48 1.378 . S
C48 C47 1.378 . S
C48 C49 1.409 1_565 S
C49 C45 1.387 . S
C49 C48 1.409 1_545 S
C49 H51 0.951 . S
C50 C45 1.491 . S
C50 C52 1.382 . S
C50 C54 1.404 . S
H51 C49 0.951 . S
C52 C50 1.382 . S
C52 C53 1.390 . S
C52 H57 0.949 . S
C53 C52 1.390 . S
C53 C58 1.399 . S
C54 C50 1.404 . S
C54 H55 0.950 . S
C54 C56 1.375 . S
H55 C54 0.950 . S
C56 C54 1.375 . S
C56 C58 1.382 . S
C56 H60 0.950 . S
H57 C52 0.949 . S
C58 C53 1.399 . S
C58 C56 1.382 . S
C58 H59 0.952 . S
H59 C58 0.952 . S
H60 C56 0.950 . S
H61 C62 0.949 . S
C62 H61 0.949 . S
C62 C63 1.395 1_455 S
C62 C64 1.391 1_455 S
C63 C62 1.395 1_655 S
C63 C66 1.390 1_545 S
C64 C62 1.391 1_655 S
C64 C68 1.387 . S
C64 C69 1.491 1_655 S
H65 C66 0.950 . S
C66 C63 1.390 1_565 S
C66 H65 0.950 . S
C66 C67 1.378 . S
C67 C66 1.378 . S
C67 C68 1.409 1_565 S
C68 C64 1.387 . S
C68 C67 1.409 1_545 S
C68 H70 0.951 . S
C69 C64 1.491 1_455 S
C69 C71 1.382 . S
C69 C73 1.404 1_455 S
H70 C68 0.951 . S
C71 C69 1.382 . S
C71 C72 1.390 . S
C71 H76 0.949 . S
C72 C71 1.390 . S
C72 C77 1.399 . S
C73 C69 1.404 1_655 S
C73 H74 0.950 . S
C73 C75 1.375 . S
H74 C73 0.950 . S
C75 C73 1.375 . S
C75 C77 1.382 1_655 S
C75 H79 0.950 . S
H76 C71 0.949 . S
C77 C72 1.399 . S
C77 C75 1.382 1_455 S
C77 H78 0.952 . S
H78 C77 0.952 . S
H79 C75 0.950 . S
H80 C81 0.949 . S
C81 H80 0.949 . S
C81 C82 1.395 . S
C81 C83 1.391 . S
C82 C81 1.395 . S
C82 C85 1.390 . S
C83 C81 1.391 . S
C83 C87 1.387 . S
C83 C88 1.491 . S
H84 C85 0.950 . S
C85 C82 1.390 . S
C85 H84 0.950 . S
C85 C86 1.378 . S
C86 C85 1.378 . S
C86 C87 1.409 . S
C87 C83 1.387 . S
C87 C86 1.409 . S
C87 H89 0.951 . S
C88 C83 1.491 . S
C88 C90 1.382 . S
C88 C92 1.404 . S
H89 C87 0.951 . S
C90 C88 1.382 . S
C90 C91 1.390 . S
C90 H95 0.949 . S
C91 C90 1.390 . S
C91 C96 1.399 . S
C92 C88 1.404 . S
C92 H93 0.950 . S
C92 C94 1.375 1_556 S
H93 C92 0.950 . S
C94 C92 1.375 1_554 S
C94 C96 1.382 1_554 S
C94 H98 0.950 . S
H95 C90 0.949 . S
C96 C91 1.399 . S
C96 C94 1.382 1_556 S
C96 H97 0.952 1_556 S
H97 C96 0.952 1_554 S
H98 C94 0.950 . S
H99 C100 0.949 . S
C100 H99 0.949 . S
C100 C101 1.395 . S
C100 C102 1.391 . S
C101 C100 1.395 . S
C101 C104 1.390 . S
C102 C100 1.391 . S
C102 C106 1.387 . S
C102 C107 1.491 . S
H103 C104 0.950 . S
C104 C101 1.390 . S
C104 H103 0.950 . S
C104 C105 1.378 . S
C105 C104 1.378 . S
C105 C106 1.409 . S
C106 C102 1.387 . S
C106 C105 1.409 . S
C106 H108 0.951 . S
C107 C102 1.491 . S
C107 C109 1.382 . S
C107 C111 1.404 . S
H108 C106 0.951 . S
C109 C107 1.382 . S
C109 C110 1.390 . S
C109 H114 0.949 . S
C110 C109 1.390 . S
C110 C115 1.399 . S
C111 C107 1.404 . S
C111 H112 0.950 . S
C111 C113 1.375 . S
H112 C111 0.950 . S
C113 C111 1.375 . S
C113 C115 1.382 . S
C113 H117 0.950 1_554 S
H114 C109 0.949 . S
C115 C110 1.399 . S
C115 C113 1.382 . S
C115 H116 0.952 . S
H116 C115 0.952 . S
H117 C113 0.950 1_556 S
H118 C136 0.951 . S
H119 C138 0.951 . S
H120 C140 0.950 . S
H121 C141 0.950 . S
H122 C143 0.950 . S
H123 C146 0.950 . S
H124 C147 0.950 . S
H125 C149 0.950 . S
H126 C150 0.950 . S
H127 C151 0.951 . S
H128 C153 0.951 . S
H129 C155 0.950 . S
H130 C156 0.950 . S
H131 C158 0.950 . S
H132 C161 0.950 . S
H133 C162 0.950 . S
H134 C164 0.950 . S
H135 C165 0.950 . S
C136 H118 0.951 . S
C136 C137 1.366 . S
C136 C138 1.388 . S
C137 C136 1.366 . S
C137 C141 1.385 . S
C138 H119 0.951 . S
C138 C136 1.388 . S
C138 C139 1.366 . S
C139 C138 1.366 . S
C139 C140 1.414 . S
C139 C142 1.499 . S
C140 H120 0.950 . S
C140 C139 1.414 . S
C140 C141 1.374 . S
C141 H121 0.950 . S
C141 C137 1.385 . S
C141 C140 1.374 . S
C142 C139 1.499 . S
C142 C143 1.373 . S
C142 C144 1.389 . S
C143 H122 0.950 . S
C143 C142 1.373 . S
C143 C159 1.377 . S
C144 C142 1.389 . S
C144 C145 1.524 . S
C144 C158 1.377 . S
C145 C144 1.524 . S
C145 C146 1.397 1_554 S
C145 C150 1.363 . S
C146 H123 0.950 . S
C146 C145 1.397 1_556 S
C146 C147 1.334 . S
C147 H124 0.950 . S
C147 C146 1.334 . S
C147 C148 1.287 . S
C148 C147 1.287 . S
C148 C149 1.524 1_556 S
C148 H167 0.913 . S
C149 H125 0.950 . S
C149 C148 1.524 1_554 S
C149 C150 1.415 . S
C150 H126 0.950 . S
C150 C145 1.363 . S
C150 C149 1.415 . S
C151 H127 0.951 . S
C151 C152 1.366 . S
C151 C153 1.388 . S
C152 C151 1.366 . S
C152 C156 1.385 . S
C153 H128 0.951 . S
C153 C151 1.388 . S
C153 C154 1.366 . S
C154 C153 1.366 . S
C154 C155 1.414 . S
C154 C157 1.499 . S
C155 H129 0.950 . S
C155 C154 1.414 . S
C155 C156 1.374 . S
C156 H130 0.950 . S
C156 C152 1.385 . S
C156 C155 1.374 . S
C157 C154 1.499 . S
C157 C158 1.373 . S
C157 C159 1.389 . S
C158 H131 0.950 . S
C158 C144 1.377 . S
C158 C157 1.373 . S
C159 C143 1.377 . S
C159 C157 1.389 . S
C159 C160 1.524 . S
C160 C159 1.524 . S
C160 C161 1.397 . S
C160 C165 1.363 . S
C161 H132 0.950 . S
C161 C160 1.397 . S
C161 C162 1.334 . S
C162 H133 0.950 . S
C162 C161 1.334 . S
C162 C163 1.287 . S
C163 C162 1.287 . S
C163 C164 1.524 . S
C163 H166 0.999 . S
C164 H134 0.950 . S
C164 C163 1.524 . S
C164 C165 1.415 . S
C165 H135 0.950 . S
C165 C160 1.363 . S
C165 C164 1.415 . S
H166 C163 0.999 . S
H167 C148 0.913 . S
H168 C186 0.951 . S
H169 C188 0.952 . S
H170 C190 0.950 . S
H171 C191 0.950 . S
H172 C193 0.950 1_554 S
H173 C196 0.950 . S
H174 C197 0.950 . S
H175 C199 0.950 . S
H176 C200 0.950 . S
H177 C201 0.951 . S
H178 C203 0.951 . S
H179 C205 0.950 . S
H180 C206 0.950 . S
H181 C208 0.950 . S
H182 C211 0.950 . S
H183 C212 0.950 . S
H184 C214 0.950 . S
H185 C215 0.950 . S
C186 H168 0.951 . S
C186 C187 1.366 1_554 S
C186 C188 1.403 . S
C187 C186 1.366 1_556 S
C187 C191 1.385 . S
C188 H169 0.952 . S
C188 C186 1.403 . S
C188 C189 1.351 1_554 S
C189 C188 1.351 1_556 S
C189 C190 1.414 . S
C189 C192 1.499 . S
C190 H170 0.950 . S
C190 C189 1.414 . S
C190 C191 1.374 . S
C191 H171 0.950 . S
C191 C187 1.385 . S
C191 C190 1.374 . S
C192 C189 1.499 . S
C192 C193 1.373 . S
C192 C194 1.389 . S
C193 H172 0.950 1_556 S
C193 C192 1.373 . S
C193 C209 1.377 . S
C194 C192 1.389 . S
C194 C195 1.524 . S
C194 C208 1.377 . S
C195 C194 1.524 . S
C195 C196 1.397 . S
C195 C200 1.363 . S
C196 H173 0.950 . S
C196 C195 1.397 . S
C196 C197 1.334 . S
C197 H174 0.950 . S
C197 C196 1.334 . S
C197 C198 1.287 . S
C198 C197 1.287 . S
C198 C199 1.524 . S
C198 H217 0.913 . S
C199 H175 0.950 . S
C199 C198 1.524 . S
C199 C200 1.415 . S
C200 H176 0.950 . S
C200 C195 1.363 . S
C200 C199 1.415 . S
C201 H177 0.951 . S
C201 C202 1.366 . S
C201 C203 1.388 . S
C202 C201 1.366 . S
C202 C206 1.385 . S
C203 H178 0.951 . S
C203 C201 1.388 . S
C203 C204 1.366 . S
C204 C203 1.366 . S
C204 C205 1.414 . S
C204 C207 1.499 . S
C205 H179 0.950 . S
C205 C204 1.414 . S
C205 C206 1.374 . S
C206 H180 0.950 . S
C206 C202 1.385 . S
C206 C205 1.374 . S
C207 C204 1.499 . S
C207 C208 1.373 . S
C207 C209 1.389 . S
C208 H181 0.950 . S
C208 C194 1.377 . S
C208 C207 1.373 . S
C209 C193 1.377 . S
C209 C207 1.389 . S
C209 C210 1.524 1_556 S
C210 C209 1.524 1_554 S
C210 C211 1.397 . S
C210 C215 1.363 1_554 S
C211 H182 0.950 . S
C211 C210 1.397 . S
C211 C212 1.334 . S
C212 H183 0.950 . S
C212 C211 1.334 . S
C212 C213 1.287 . S
C213 C212 1.287 . S
C213 C214 1.524 . S
C213 H216 0.999 . S
C214 H184 0.950 . S
C214 C213 1.524 . S
C214 C215 1.415 1_554 S
C215 H185 0.950 . S
C215 C210 1.363 1_556 S
C215 C214 1.415 1_556 S
H216 C213 0.999 . S
H217 C198 0.913 . S
H218 C236 0.951 . S
H219 C238 0.951 . S
H220 C240 0.950 . S
H221 C241 0.950 . S
H222 C243 0.950 1_556 S
H223 C246 0.950 . S
H224 C247 0.950 . S
H225 C249 0.950 . S
H226 C250 0.950 . S
H227 C251 0.951 . S
H228 C253 0.951 . S
H229 C255 0.950 . S
H230 C256 0.950 . S
H231 C258 0.950 . S
H232 C261 0.950 . S
H233 C262 0.950 . S
H234 C264 0.950 . S
H235 C265 0.950 . S
C236 H218 0.951 . S
C236 C237 1.366 . S
C236 C238 1.388 . S
C237 C236 1.366 . S
C237 C241 1.385 . S
C238 H219 0.951 . S
C238 C236 1.388 . S
C238 C239 1.366 . S
C239 C238 1.366 . S
C239 C240 1.414 . S
C239 C242 1.499 . S
C240 H220 0.950 . S
C240 C239 1.414 . S
C240 C241 1.374 . S
C241 H221 0.950 . S
C241 C237 1.385 . S
C241 C240 1.374 . S
C242 C239 1.499 . S
C242 C243 1.373 . S
C242 C244 1.389 . S
C243 H222 0.950 1_554 S
C243 C242 1.373 . S
C243 C259 1.377 . S
C244 C242 1.389 . S
C244 C245 1.524 . S
C244 C258 1.377 . S
C245 C244 1.524 . S
C245 C246 1.397 . S
C245 C250 1.363 . S
C246 H223 0.950 . S
C246 C245 1.397 . S
C246 C247 1.334 . S
C247 H224 0.950 . S
C247 C246 1.334 . S
C247 C248 1.287 . S
C248 C247 1.287 . S
C248 C249 1.524 . S
C248 H267 0.913 . S
C249 H225 0.950 . S
C249 C248 1.524 . S
C249 C250 1.415 . S
C250 H226 0.950 . S
C250 C245 1.363 . S
C250 C249 1.415 . S
C251 H227 0.951 . S
C251 C252 1.366 . S
C251 C253 1.388 . S
C252 C251 1.366 . S
C252 C256 1.385 . S
C253 H228 0.951 . S
C253 C251 1.388 . S
C253 C254 1.366 . S
C254 C253 1.366 . S
C254 C255 1.414 . S
C254 C257 1.499 . S
C255 H229 0.950 . S
C255 C254 1.414 . S
C255 C256 1.374 . S
C256 H230 0.950 . S
C256 C252 1.385 . S
C256 C255 1.374 . S
C257 C254 1.499 . S
C257 C258 1.373 . S
C257 C259 1.389 . S
C258 H231 0.950 . S
C258 C244 1.377 . S
C258 C257 1.373 . S
C259 C243 1.377 . S
C259 C257 1.389 . S
C259 C260 1.524 1_554 S
C260 C259 1.524 1_556 S
C260 C261 1.397 . S
C260 C265 1.363 . S
C261 H232 0.950 . S
C261 C260 1.397 . S
C261 C262 1.334 . S
C262 H233 0.950 . S
C262 C261 1.334 . S
C262 C263 1.287 . S
C263 C262 1.287 . S
C263 C264 1.524 . S
C263 H266 0.999 . S
C264 H234 0.950 . S
C264 C263 1.524 . S
C264 C265 1.415 . S
C265 H235 0.950 . S
C265 C260 1.363 . S
C265 C264 1.415 . S
H266 C263 0.999 . S
H267 C248 0.913 . S
H268 C286 0.957 . S
H269 C288 0.951 . S
H270 C290 0.950 . S
H271 C291 0.950 . S
H272 C293 0.950 . S
H273 C296 0.950 . S
H274 C297 0.950 . S
H275 C299 0.950 1_455 S
H276 C300 0.950 1_556 S
H277 C301 0.951 . S
H278 C303 0.951 . S
H279 C305 0.950 . S
H280 C306 0.950 . S
H281 C308 0.950 . S
H282 C311 0.950 . S
H283 C312 0.950 . S
H284 C314 0.950 . S
H285 C315 0.950 . S
C286 H268 0.957 . S
C286 C287 1.366 . S
C286 C288 1.388 . S
C287 C286 1.366 . S
C287 C291 1.385 . S
C288 H269 0.951 . S
C288 C286 1.388 . S
C288 C289 1.366 . S
C289 C288 1.366 . S
C289 C290 1.414 . S
C289 C292 1.499 . S
C290 H270 0.950 . S
C290 C289 1.414 . S
C290 C291 1.374 . S
C291 H271 0.950 . S
C291 C287 1.385 . S
C291 C290 1.374 . S
C292 C289 1.499 . S
C292 C293 1.373 . S
C292 C294 1.389 . S
C293 H272 0.950 . S
C293 C292 1.373 . S
C293 C309 1.377 . S
C294 C292 1.389 . S
C294 C295 1.524 1_556 S
C294 C308 1.377 . S
C295 C294 1.524 1_554 S
C295 C296 1.397 . S
C295 C300 1.363 . S
C296 H273 0.950 . S
C296 C295 1.397 . S
C296 C297 1.334 . S
C297 H274 0.950 . S
C297 C296 1.334 . S
C297 C298 1.287 1_655 S
C298 C297 1.287 1_455 S
C298 C299 1.524 1_455 S
C298 H317 0.913 . S
C299 H275 0.950 1_655 S
C299 C298 1.524 1_655 S
C299 C300 1.415 . S
C300 H276 0.950 1_554 S
C300 C295 1.363 . S
C300 C299 1.415 . S
C301 H277 0.951 . S
C301 C302 1.366 . S
C301 C303 1.388 . S
C302 C301 1.366 . S
C302 C306 1.385 . S
C303 H278 0.951 . S
C303 C301 1.388 . S
C303 C304 1.366 . S
C304 C303 1.366 . S
C304 C305 1.414 . S
C304 C307 1.499 . S
C305 H279 0.950 . S
C305 C304 1.414 . S
C305 C306 1.374 . S
C306 H280 0.950 . S
C306 C302 1.385 . S
C306 C305 1.374 . S
C307 C304 1.499 . S
C307 C308 1.373 . S
C307 C309 1.389 . S
C308 H281 0.950 . S
C308 C294 1.377 . S
C308 C307 1.373 . S
C309 C293 1.377 . S
C309 C307 1.389 . S
C309 C310 1.524 . S
C310 C309 1.524 . S
C310 C311 1.397 . S
C310 C315 1.363 . S
C311 H282 0.950 . S
C311 C310 1.397 . S
C311 C312 1.334 . S
C312 H283 0.950 . S
C312 C311 1.334 . S
C312 C313 1.287 . S
C313 C312 1.287 . S
C313 C314 1.524 . S
C313 H316 0.999 . S
C314 H284 0.950 . S
C314 C313 1.524 . S
C314 C315 1.415 . S
C315 H285 0.950 . S
C315 C310 1.363 . S
C315 C314 1.415 . S
H316 C313 0.999 . S
H317 C298 0.913 . S
H318 C336 0.951 . S
H319 C338 0.951 . S
H320 C340 0.950 . S
H321 C341 0.950 . S
H322 C343 0.950 . S
H323 C346 0.950 . S
H324 C347 0.950 . S
H325 C349 0.950 . S
H326 C350 0.950 . S
H327 C351 0.951 . S
H328 C353 0.951 . S
H329 C355 0.950 . S
H330 C356 0.950 . S
H331 C358 0.950 . S
H332 C361 0.950 . S
H333 C362 0.950 . S
H334 C364 0.950 . S
H335 C365 0.950 . S
C336 H318 0.951 . S
C336 C337 1.366 . S
C336 C338 1.388 . S
C337 C336 1.366 . S
C337 C341 1.385 . S
C338 H319 0.951 . S
C338 C336 1.388 . S
C338 C339 1.366 . S
C339 C338 1.366 . S
C339 C340 1.414 . S
C339 C342 1.499 . S
C340 H320 0.950 . S
C340 C339 1.414 . S
C340 C341 1.374 . S
C341 H321 0.950 . S
C341 C337 1.385 . S
C341 C340 1.374 . S
C342 C339 1.499 . S
C342 C343 1.373 . S
C342 C344 1.389 . S
C343 H322 0.950 . S
C343 C342 1.373 . S
C343 C359 1.377 . S
C344 C342 1.389 . S
C344 C345 1.524 . S
C344 C358 1.377 . S
C345 C344 1.524 . S
C345 C346 1.397 . S
C345 C350 1.363 . S
C346 H323 0.950 . S
C346 C345 1.397 . S
C346 C347 1.334 . S
C347 H324 0.950 . S
C347 C346 1.334 . S
C347 C348 1.287 . S
C348 C347 1.287 . S
C348 C349 1.524 . S
C348 H367 0.913 . S
C349 H325 0.950 . S
C349 C348 1.524 . S
C349 C350 1.415 . S
C350 H326 0.950 . S
C350 C345 1.363 . S
C350 C349 1.415 . S
C351 H327 0.951 . S
C351 C352 1.366 . S
C351 C353 1.388 . S
C352 C351 1.366 . S
C352 C356 1.385 . S
C353 H328 0.951 . S
C353 C351 1.388 . S
C353 C354 1.366 . S
C354 C353 1.366 . S
C354 C355 1.414 . S
C354 C357 1.499 . S
C355 H329 0.950 . S
C355 C354 1.414 . S
C355 C356 1.374 . S
C356 H330 0.950 . S
C356 C352 1.385 . S
C356 C355 1.374 . S
C357 C354 1.499 . S
C357 C358 1.373 . S
C357 C359 1.389 . S
C358 H331 0.950 . S
C358 C344 1.377 . S
C358 C357 1.373 . S
C359 C343 1.377 . S
C359 C357 1.389 . S
C359 C360 1.524 . S
C360 C359 1.524 . S
C360 C361 1.397 . S
C360 C365 1.363 . S
C361 H332 0.950 . S
C361 C360 1.397 . S
C361 C362 1.334 . S
C362 H333 0.950 . S
C362 C361 1.334 . S
C362 C363 1.287 . S
C363 C362 1.287 . S
C363 C364 1.524 . S
C363 H366 0.999 . S
C364 H334 0.950 . S
C364 C363 1.524 . S
C364 C365 1.415 . S
C365 H335 0.950 . S
C365 C360 1.363 . S
C365 C364 1.415 . S
H366 C363 0.999 . S
H367 C348 0.913 . S
H368 C386 0.951 . S
H369 C388 0.951 . S
H370 C390 0.950 . S
H371 C391 0.950 . S
H372 C393 0.950 . S
H373 C396 0.950 . S
H374 C397 0.950 . S
H375 C399 0.950 . S
H376 C400 0.950 . S
H377 C401 0.951 . S
H378 C403 0.951 . S
H379 C405 0.950 . S
H380 C406 0.950 1_455 S
H381 C408 0.950 . S
H382 C411 0.950 . S
H383 C412 0.950 . S
H384 C414 0.950 . S
H385 C415 0.950 . S
C386 H368 0.951 . S
C386 C387 1.366 . S
C386 C388 1.388 . S
C387 C386 1.366 . S
C387 C391 1.385 . S
C388 H369 0.951 . S
C388 C386 1.388 . S
C388 C389 1.366 . S
C389 C388 1.366 . S
C389 C390 1.414 . S
C389 C392 1.499 . S
C390 H370 0.950 . S
C390 C389 1.414 . S
C390 C391 1.374 . S
C391 H371 0.950 . S
C391 C387 1.385 . S
C391 C390 1.374 . S
C392 C389 1.499 . S
C392 C393 1.373 . S
C392 C394 1.389 . S
C393 H372 0.950 . S
C393 C392 1.373 . S
C393 C409 1.377 . S
C394 C392 1.389 . S
C394 C395 1.524 . S
C394 C408 1.377 . S
C395 C394 1.524 . S
C395 C396 1.397 . S
C395 C400 1.363 . S
C396 H373 0.950 . S
C396 C395 1.397 . S
C396 C397 1.334 . S
C397 H374 0.950 . S
C397 C396 1.334 . S
C397 C398 1.287 . S
C398 C397 1.287 . S
C398 C399 1.524 . S
C398 H417 0.913 . S
C399 H375 0.950 . S
C399 C398 1.524 . S
C399 C400 1.415 . S
C400 H376 0.950 . S
C400 C395 1.363 . S
C400 C399 1.415 . S
C401 H377 0.951 . S
C401 C402 1.366 . S
C401 C403 1.388 . S
C402 C401 1.366 . S
C402 C406 1.385 . S
C403 H378 0.951 . S
C403 C401 1.388 . S
C403 C404 1.366 . S
C404 C403 1.366 . S
C404 C405 1.414 . S
C404 C407 1.499 . S
C405 H379 0.950 . S
C405 C404 1.414 . S
C405 C406 1.374 . S
C406 H380 0.950 1_655 S
C406 C402 1.385 . S
C406 C405 1.374 . S
C407 C404 1.499 . S
C407 C408 1.373 . S
C407 C409 1.389 . S
C408 H381 0.950 . S
C408 C394 1.377 . S
C408 C407 1.373 . S
C409 C393 1.377 . S
C409 C407 1.389 . S
C409 C410 1.524 . S
C410 C409 1.524 . S
C410 C411 1.397 . S
C410 C415 1.363 . S
C411 H382 0.950 . S
C411 C410 1.397 . S
C411 C412 1.334 . S
C412 H383 0.950 . S
C412 C411 1.334 . S
C412 C413 1.287 . S
C413 C412 1.287 . S
C413 C414 1.524 . S
C413 H416 0.999 . S
C414 H384 0.950 . S
C414 C413 1.524 . S
C414 C415 1.415 . S
C415 H385 0.950 . S
C415 C410 1.363 . S
C415 C414 1.415 . S
H416 C413 0.999 . S
H417 C398 0.913 . S
H418 C436 0.951 . S
H419 C438 0.951 . S
H420 C440 0.950 . S
H421 C441 0.950 . S
H422 C443 0.950 . S
H423 C446 0.950 . S
H424 C447 0.950 . S
H425 C449 0.950 . S
H426 C450 0.950 . S
H427 C451 0.951 . S
H428 C453 0.951 . S
H429 C455 0.950 . S
H430 C456 0.950 . S
H431 C458 0.950 . S
H432 C461 0.950 . S
H433 C462 0.950 . S
H434 C464 0.950 . S
H435 C465 0.950 . S
C436 H418 0.951 . S
C436 C437 1.366 . S
C436 C438 1.388 . S
C437 C436 1.366 . S
C437 C441 1.385 . S
C438 H419 0.951 . S
C438 C436 1.388 . S
C438 C439 1.366 . S
C439 C438 1.366 . S
C439 C440 1.414 . S
C439 C442 1.499 . S
C440 H420 0.950 . S
C440 C439 1.414 . S
C440 C441 1.374 . S
C441 H421 0.950 . S
C441 C437 1.385 . S
C441 C440 1.374 . S
C442 C439 1.499 . S
C442 C443 1.373 . S
C442 C444 1.389 . S
C443 H422 0.950 . S
C443 C442 1.373 . S
C443 C459 1.377 . S
C444 C442 1.389 . S
C444 C445 1.524 . S
C444 C458 1.377 . S
C445 C444 1.524 . S
C445 C446 1.397 . S
C445 C450 1.363 . S
C446 H423 0.950 . S
C446 C445 1.397 . S
C446 C447 1.334 . S
C447 H424 0.950 . S
C447 C446 1.334 . S
C447 C448 1.287 . S
C448 C447 1.287 . S
C448 C449 1.524 . S
C448 H467 0.913 . S
C449 H425 0.950 . S
C449 C448 1.524 . S
C449 C450 1.415 . S
C450 H426 0.950 . S
C450 C445 1.363 . S
C450 C449 1.415 . S
C451 H427 0.951 . S
C451 C452 1.366 . S
C451 C453 1.388 . S
C452 C451 1.366 . S
C452 C456 1.385 . S
C453 H428 0.951 . S
C453 C451 1.388 . S
C453 C454 1.366 . S
C454 C453 1.366 . S
C454 C455 1.414 . S
C454 C457 1.499 . S
C455 H429 0.950 . S
C455 C454 1.414 . S
C455 C456 1.374 . S
C456 H430 0.950 . S
C456 C452 1.385 . S
C456 C455 1.374 . S
C457 C454 1.499 . S
C457 C458 1.373 . S
C457 C459 1.389 . S
C458 H431 0.950 . S
C458 C444 1.377 . S
C458 C457 1.373 . S
C459 C443 1.377 . S
C459 C457 1.389 . S
C459 C460 1.524 . S
C460 C459 1.524 . S
C460 C461 1.397 . S
C460 C465 1.363 . S
C461 H432 0.950 . S
C461 C460 1.397 . S
C461 C462 1.334 . S
C462 H433 0.950 . S
C462 C461 1.334 . S
C462 C463 1.287 . S
C463 C462 1.287 . S
C463 C464 1.524 . S
C463 H466 0.999 . S
C464 H434 0.950 . S
C464 C463 1.524 . S
C464 C465 1.415 . S
C465 H435 0.950 . S
C465 C460 1.363 . S
C465 C464 1.415 . S
H466 C463 0.999 . S
H467 C448 0.913 . S
H468 C486 0.951 . S
H469 C488 0.951 . S
H470 C490 0.950 . S
H471 C491 0.950 . S
H472 C493 0.950 . S
H473 C496 0.950 . S
H474 C497 0.950 . S
H475 C499 0.950 . S
H476 C500 0.950 . S
H477 C501 0.951 . S
H478 C503 0.951 . S
H479 C505 0.950 . S
H480 C506 0.950 . S
H481 C508 0.950 . S
H482 C511 0.950 . S
H483 C512 0.950 . S
H484 C514 0.950 . S
H485 C515 0.950 . S
C486 H468 0.951 . S
C486 C487 1.366 . S
C486 C488 1.388 . S
C487 C486 1.366 . S
C487 C491 1.385 . S
C488 H469 0.951 . S
C488 C486 1.388 . S
C488 C489 1.366 . S
C489 C488 1.366 . S
C489 C490 1.414 . S
C489 C492 1.499 . S
C490 H470 0.950 . S
C490 C489 1.414 . S
C490 C491 1.374 . S
C491 H471 0.950 . S
C491 C487 1.385 . S
C491 C490 1.374 . S
C492 C489 1.499 . S
C492 C493 1.373 . S
C492 C494 1.389 . S
C493 H472 0.950 . S
C493 C492 1.373 . S
C493 C509 1.377 . S
C494 C492 1.389 . S
C494 C495 1.524 . S
C494 C508 1.377 . S
C495 C494 1.524 . S
C495 C496 1.397 . S
C495 C500 1.363 . S
C496 H473 0.950 . S
C496 C495 1.397 . S
C496 C497 1.334 . S
C497 H474 0.950 . S
C497 C496 1.334 . S
C497 C498 1.287 . S
C498 C497 1.287 . S
C498 C499 1.524 . S
C498 H517 0.913 . S
C499 H475 0.950 . S
C499 C498 1.524 . S
C499 C500 1.415 . S
C500 H476 0.950 . S
C500 C495 1.363 . S
C500 C499 1.415 . S
C501 H477 0.951 . S
C501 C502 1.366 . S
C501 C503 1.388 . S
C502 C501 1.366 . S
C502 C506 1.385 . S
C503 H478 0.951 . S
C503 C501 1.388 . S
C503 C504 1.366 . S
C504 C503 1.366 . S
C504 C505 1.414 . S
C504 C507 1.499 . S
C505 H479 0.950 . S
C505 C504 1.414 . S
C505 C506 1.374 . S
C506 H480 0.950 . S
C506 C502 1.385 . S
C506 C505 1.374 . S
C507 C504 1.499 . S
C507 C508 1.373 . S
C507 C509 1.389 . S
C508 H481 0.950 . S
C508 C494 1.377 . S
C508 C507 1.373 . S
C509 C493 1.377 . S
C509 C507 1.389 . S
C509 C510 1.524 . S
C510 C509 1.524 . S
C510 C511 1.397 . S
C510 C515 1.363 . S
C511 H482 0.950 . S
C511 C510 1.397 . S
C511 C512 1.334 . S
C512 H483 0.950 . S
C512 C511 1.334 . S
C512 C513 1.287 . S
C513 C512 1.287 . S
C513 C514 1.524 . S
C513 H516 0.999 . S
C514 H484 0.950 . S
C514 C513 1.524 . S
C514 C515 1.415 . S
C515 H485 0.950 . S
C515 C510 1.363 . S
C515 C514 1.415 . S
H516 C513 0.999 . S
H517 C498 0.913 . S
H518 C536 0.951 . S
H519 C538 0.951 . S
H520 C540 0.947 1_545 S
H521 C541 0.950 1_655 S
H522 C543 0.950 . S
H523 C546 0.950 . S
H524 C547 0.950 . S
H525 C549 0.950 . S
H526 C550 0.950 . S
H527 C551 0.951 . S
H528 C553 0.951 . S
H529 C555 0.950 . S
H530 C556 0.950 . S
H531 C558 0.950 . S
H532 C561 0.950 . S
H533 C562 0.950 . S
H534 C564 0.950 . S
H535 C565 0.950 . S
C536 H518 0.951 . S
C536 C537 1.366 . S
C536 C538 1.388 . S
C537 C536 1.366 . S
C537 C541 1.385 . S
C538 H519 0.951 . S
C538 C536 1.388 . S
C538 C539 1.366 . S
C539 C538 1.366 . S
C539 C540 1.415 . S
C539 C542 1.499 1_565 S
C540 H520 0.947 1_565 S
C540 C539 1.415 . S
C540 C541 1.375 . S
C541 H521 0.950 1_455 S
C541 C537 1.385 . S
C541 C540 1.375 . S
C542 C539 1.499 1_545 S
C542 C543 1.373 . S
C542 C544 1.389 1_545 S
C543 H522 0.950 . S
C543 C542 1.373 . S
C543 C559 1.377 . S
C544 C542 1.389 1_565 S
C544 C545 1.524 . S
C544 C558 1.377 . S
C545 C544 1.524 . S
C545 C546 1.397 . S
C545 C550 1.363 . S
C546 H523 0.950 . S
C546 C545 1.397 . S
C546 C547 1.334 . S
C547 H524 0.950 . S
C547 C546 1.334 . S
C547 C548 1.287 . S
C548 C547 1.287 . S
C548 C549 1.524 . S
C548 H567 0.913 . S
C549 H525 0.950 . S
C549 C548 1.524 . S
C549 C550 1.415 . S
C550 H526 0.950 . S
C550 C545 1.363 . S
C550 C549 1.415 . S
C551 H527 0.951 . S
C551 C552 1.366 . S
C551 C553 1.388 . S
C552 C551 1.366 . S
C552 C556 1.385 . S
C553 H528 0.951 . S
C553 C551 1.388 . S
C553 C554 1.366 . S
C554 C553 1.366 . S
C554 C555 1.414 . S
C554 C557 1.499 . S
C555 H529 0.950 . S
C555 C554 1.414 . S
C555 C556 1.374 . S
C556 H530 0.950 . S
C556 C552 1.385 . S
C556 C555 1.374 . S
C557 C554 1.499 . S
C557 C558 1.373 1_545 S
C557 C559 1.389 . S
C558 H531 0.950 . S
C558 C544 1.377 . S
C558 C557 1.373 1_565 S
C559 C543 1.377 . S
C559 C557 1.389 . S
C559 C560 1.524 . S
C560 C559 1.524 . S
C560 C561 1.397 . S
C560 C565 1.363 1_455 S
C561 H532 0.950 . S
C561 C560 1.397 . S
C561 C562 1.334 . S
C562 H533 0.950 . S
C562 C561 1.334 . S
C562 C563 1.287 . S
C563 C562 1.287 . S
C563 C564 1.524 1_455 S
C563 H566 0.999 . S
C564 H534 0.950 . S
C564 C563 1.524 1_655 S
C564 C565 1.415 . S
C565 H535 0.950 . S
C565 C560 1.363 1_655 S
C565 C564 1.415 . S
H566 C563 0.999 . S
H567 C548 0.913 . S
H568 C586 0.951 . S
H569 C588 0.951 . S
H570 C590 0.950 . S
H571 C591 0.950 . S
H572 C593 0.950 . S
H573 C596 0.950 1_545 S
H574 C597 0.950 . S
H575 C599 0.950 . S
H576 C600 0.950 . S
H577 C601 0.951 . S
H578 C603 0.951 . S
H579 C605 0.950 . S
H580 C606 0.945 1_455 S
H581 C608 0.950 . S
H582 C611 0.950 1_565 S
H583 C612 0.950 . S
H584 C614 0.950 . S
H585 C615 0.950 . S
C586 H568 0.951 . S
C586 C587 1.366 . S
C586 C588 1.388 . S
C587 C586 1.366 . S
C587 C591 1.385 1_565 S
C588 H569 0.951 . S
C588 C586 1.388 . S
C588 C589 1.366 . S
C589 C588 1.366 . S
C589 C590 1.414 1_565 S
C589 C592 1.499 1_565 S
C590 H570 0.950 . S
C590 C589 1.414 1_545 S
C590 C591 1.374 . S
C591 H571 0.950 . S
C591 C587 1.385 1_545 S
C591 C590 1.374 . S
C592 C589 1.499 1_545 S
C592 C593 1.373 1_455 S
C592 C594 1.389 1_545 S
C593 H572 0.950 . S
C593 C592 1.373 1_655 S
C593 C609 1.377 . S
C594 C592 1.389 1_565 S
C594 C595 1.524 . S
C594 C608 1.377 . S
C595 C594 1.524 . S
C595 C596 1.397 . S
C595 C600 1.363 . S
C596 H573 0.950 1_565 S
C596 C595 1.397 . S
C596 C597 1.334 . S
C597 H574 0.950 . S
C597 C596 1.334 . S
C597 C598 1.287 . S
C598 C597 1.287 . S
C598 C599 1.524 . S
C598 H617 0.913 . S
C599 H575 0.950 . S
C599 C598 1.524 . S
C599 C600 1.415 . S
C600 H576 0.950 . S
C600 C595 1.363 . S
C600 C599 1.415 . S
C601 H577 0.951 . S
C601 C602 1.366 . S
C601 C603 1.388 . S
C602 C601 1.366 . S
C602 C606 1.385 1_545 S
C603 H578 0.951 . S
C603 C601 1.388 . S
C603 C604 1.366 . S
C604 C603 1.366 . S
C604 C605 1.414 1_645 S
C604 C607 1.501 1_655 S
C605 H579 0.950 . S
C605 C604 1.414 1_465 S
C605 C606 1.379 1_455 S
C606 H580 0.945 1_655 S
C606 C602 1.385 1_565 S
C606 C605 1.379 1_655 S
C607 C604 1.501 1_455 S
C607 C608 1.380 1_545 S
C607 C609 1.381 1_455 S
C608 H581 0.950 . S
C608 C594 1.377 . S
C608 C607 1.380 1_565 S
C609 C593 1.377 . S
C609 C607 1.381 1_655 S
C609 C610 1.524 . S
C610 C609 1.524 . S
C610 C611 1.397 . S
C610 C615 1.363 . S
C611 H582 0.950 1_545 S
C611 C610 1.397 . S
C611 C612 1.334 . S
C612 H583 0.950 . S
C612 C611 1.334 . S
C612 C613 1.287 . S
C613 C612 1.287 . S
C613 C614 1.524 . S
C613 H616 0.999 . S
C614 H584 0.950 . S
C614 C613 1.524 . S
C614 C615 1.415 . S
C615 H585 0.950 . S
C615 C610 1.363 . S
C615 C614 1.415 . S
H616 C613 0.999 . S
H617 C598 0.913 . S
H618 C636 0.951 . S
H619 C638 0.951 . S
H620 C640 0.950 . S
H621 C641 0.950 . S
H622 C643 0.950 . S
H623 C646 0.950 . S
H624 C647 0.950 . S
H625 C649 0.950 . S
H626 C650 0.950 . S
H627 C651 0.951 . S
H628 C653 0.951 . S
H629 C655 0.950 . S
H630 C656 0.950 . S
H631 C658 0.950 . S
H632 C661 0.950 . S
H633 C662 0.950 . S
H634 C664 0.950 . S
H635 C665 0.950 . S
C636 H618 0.951 . S
C636 C637 1.366 . S
C636 C638 1.388 . S
C637 C636 1.366 . S
C637 C641 1.385 . S
C638 H619 0.951 . S
C638 C636 1.388 . S
C638 C639 1.366 . S
C639 C638 1.366 . S
C639 C640 1.414 . S
C639 C642 1.499 . S
C640 H620 0.950 . S
C640 C639 1.414 . S
C640 C641 1.374 . S
C641 H621 0.950 . S
C641 C637 1.385 . S
C641 C640 1.374 . S
C642 C639 1.499 . S
C642 C643 1.373 . S
C642 C644 1.389 . S
C643 H622 0.950 . S
C643 C642 1.373 . S
C643 C659 1.377 . S
C644 C642 1.389 . S
C644 C645 1.524 . S
C644 C658 1.377 . S
C645 C644 1.524 . S
C645 C646 1.397 . S
C645 C650 1.363 . S
C646 H623 0.950 . S
C646 C645 1.397 . S
C646 C647 1.334 . S
C647 H624 0.950 . S
C647 C646 1.334 . S
C647 C648 1.287 . S
C648 C647 1.287 . S
C648 C649 1.524 . S
C648 H667 0.913 . S
C649 H625 0.950 . S
C649 C648 1.524 . S
C649 C650 1.415 . S
C650 H626 0.950 . S
C650 C645 1.363 . S
C650 C649 1.415 . S
C651 H627 0.951 . S
C651 C652 1.366 . S
C651 C653 1.388 . S
C652 C651 1.366 . S
C652 C656 1.385 . S
C653 H628 0.951 . S
C653 C651 1.388 . S
C653 C654 1.366 . S
C654 C653 1.366 . S
C654 C655 1.414 . S
C654 C657 1.499 . S
C655 H629 0.950 . S
C655 C654 1.414 . S
C655 C656 1.374 . S
C656 H630 0.950 . S
C656 C652 1.385 . S
C656 C655 1.374 . S
C657 C654 1.499 . S
C657 C658 1.373 . S
C657 C659 1.389 . S
C658 H631 0.950 . S
C658 C644 1.377 . S
C658 C657 1.373 . S
C659 C643 1.377 . S
C659 C657 1.389 . S
C659 C660 1.524 . S
C660 C659 1.524 . S
C660 C661 1.397 . S
C660 C665 1.363 . S
C661 H632 0.950 . S
C661 C660 1.397 . S
C661 C662 1.334 . S
C662 H633 0.950 . S
C662 C661 1.334 . S
C662 C663 1.287 . S
C663 C662 1.287 . S
C663 C664 1.524 . S
C663 H666 0.999 . S
C664 H634 0.950 . S
C664 C663 1.524 . S
C664 C665 1.415 . S
C665 H635 0.950 . S
C665 C660 1.363 . S
C665 C664 1.415 . S
H666 C663 0.999 . S
H667 C648 0.913 . S
H668 C686 0.951 . S
H669 C688 0.951 . S
H670 C690 0.950 . S
H671 C691 0.950 . S
H672 C693 0.950 . S
H673 C696 0.950 . S
H674 C697 0.950 . S
H675 C699 0.950 . S
H676 C700 0.950 . S
H677 C701 0.951 . S
H678 C703 0.951 . S
H679 C705 0.950 . S
H680 C706 0.950 . S
H681 C708 0.950 . S
H682 C711 0.950 . S
H683 C712 0.950 . S
H684 C714 0.950 . S
H685 C715 0.950 . S
C686 H668 0.951 . S
C686 C687 1.366 . S
C686 C688 1.388 . S
C687 C686 1.366 . S
C687 C691 1.385 . S
C688 H669 0.951 . S
C688 C686 1.388 . S
C688 C689 1.366 . S
C689 C688 1.366 . S
C689 C690 1.414 . S
C689 C692 1.499 . S
C690 H670 0.950 . S
C690 C689 1.414 . S
C690 C691 1.374 . S
C691 H671 0.950 . S
C691 C687 1.385 . S
C691 C690 1.374 . S
C692 C689 1.499 . S
C692 C693 1.373 . S
C692 C694 1.389 . S
C693 H672 0.950 . S
C693 C692 1.373 . S
C693 C709 1.377 . S
C694 C692 1.389 . S
C694 C695 1.524 . S
C694 C708 1.377 . S
C695 C694 1.524 . S
C695 C696 1.397 . S
C695 C700 1.363 . S
C696 H673 0.950 . S
C696 C695 1.397 . S
C696 C697 1.334 . S
C697 H674 0.950 . S
C697 C696 1.334 . S
C697 C698 1.287 . S
C698 C697 1.287 . S
C698 C699 1.524 . S
C698 H717 0.913 . S
C699 H675 0.950 . S
C699 C698 1.524 . S
C699 C700 1.415 . S
C700 H676 0.950 . S
C700 C695 1.363 . S
C700 C699 1.415 . S
C701 H677 0.951 . S
C701 C702 1.366 . S
C701 C703 1.388 . S
C702 C701 1.366 . S
C702 C706 1.385 . S
C703 H678 0.951 . S
C703 C701 1.388 . S
C703 C704 1.366 . S
C704 C703 1.366 . S
C704 C705 1.414 . S
C704 C707 1.499 . S
C705 H679 0.950 . S
C705 C704 1.414 . S
C705 C706 1.374 . S
C706 H680 0.950 . S
C706 C702 1.385 . S
C706 C705 1.374 . S
C707 C704 1.499 . S
C707 C708 1.373 . S
C707 C709 1.389 . S
C708 H681 0.950 . S
C708 C694 1.377 . S
C708 C707 1.373 . S
C709 C693 1.377 . S
C709 C707 1.389 . S
C709 C710 1.524 . S
C710 C709 1.524 . S
C710 C711 1.397 . S
C710 C715 1.363 . S
C711 H682 0.950 . S
C711 C710 1.397 . S
C711 C712 1.334 . S
C712 H683 0.950 . S
C712 C711 1.334 . S
C712 C713 1.287 . S
C713 C712 1.287 . S
C713 C714 1.524 . S
C713 H716 0.999 . S
C714 H684 0.950 . S
C714 C713 1.524 . S
C714 C715 1.415 . S
C715 H685 0.950 . S
C715 C710 1.363 . S
C715 C714 1.415 . S
H716 C713 0.999 . S
H717 C698 0.913 . S
C152 C105 1.358 . S
C137 C3 1.256 . S
C187 C4 1.436 1_556 S
C202 C91 1.499 . S
C237 C19 1.462 1_554 S
C252 C110 1.517 . S
C287 C7 1.262 . S
C302 C86 1.372 . S
C337 C37 1.258 . S
C352 C67 1.357 . S
C387 C28 1.436 . S
C402 C53 1.499 1_655 S
C452 C72 1.516 . S
C437 C41 1.463 . S
C502 C48 1.372 . S
C487 C25 1.263 . S
C537 C20 1.377 . S
C552 C44 1.493 . S
C587 C16 1.427 . S
C602 C63 1.542 . S
C652 C82 1.493 . S
C637 C40 1.377 . S
C687 C24 1.427 . S
C702 C101 1.542 . S
