# Generated by pormake.
# Topology zzz, (3,6)-cn, num edge types: 1
# Building blocks:
#     Node 0, Type 0, BuildingBlock: BELTOD_clean_linker_0, # of connection points: 3
#     Node 1, Type 0, BuildingBlock: BELTOD_clean_linker_0, # of connection points: 3
#     Node 2, Type 0, BuildingBlock: BELTOD_clean_linker_0, # of connection points: 3
#     Node 3, Type 0, BuildingBlock: BELTOD_clean_linker_0, # of connection points: 3
#     Node 4, Type 0, BuildingBlock: BELTOD_clean_linker_0, # of connection points: 3
#     Node 5, Type 0, BuildingBlock: BELTOD_clean_linker_0, # of connection points: 3
#     Node 6, Type 0, BuildingBlock: BELTOD_clean_linker_0, # of connection points: 3
#     Node 7, Type 0, BuildingBlock: BELTOD_clean_linker_0, # of connection points: 3
#     Node 8, Type 1, BuildingBlock: BETDEL_clean_sbu_0, # of connection points: 6
#     Node 9, Type 1, BuildingBlock: BETDEL_clean_sbu_0, # of connection points: 6
#     Node 10, Type 1, BuildingBlock: BETDEL_clean_sbu_0, # of connection points: 6
#     Node 11, Type 1, BuildingBlock: BETDEL_clean_sbu_0, # of connection points: 6
#     Edge 12, Type (0, 1), BuildingBlock: AJUNOK_clean_linker_0, # of connection points: 2
#     Edge 13, Type (0, 1), BuildingBlock: AJUNOK_clean_linker_0, # of connection points: 2
#     Edge 14, Type (0, 1), BuildingBlock: AJUNOK_clean_linker_0, # of connection points: 2
#     Edge 15, Type (0, 1), BuildingBlock: AJUNOK_clean_linker_0, # of connection points: 2
#     Edge 16, Type (0, 1), BuildingBlock: AJUNOK_clean_linker_0, # of connection points: 2
#     Edge 17, Type (0, 1), BuildingBlock: AJUNOK_clean_linker_0, # of connection points: 2
#     Edge 18, Type (0, 1), BuildingBlock: AJUNOK_clean_linker_0, # of connection points: 2
#     Edge 19, Type (0, 1), BuildingBlock: AJUNOK_clean_linker_0, # of connection points: 2
#     Edge 20, Type (0, 1), BuildingBlock: AJUNOK_clean_linker_0, # of connection points: 2
#     Edge 21, Type (0, 1), BuildingBlock: AJUNOK_clean_linker_0, # of connection points: 2
#     Edge 22, Type (0, 1), BuildingBlock: AJUNOK_clean_linker_0, # of connection points: 2
#     Edge 23, Type (0, 1), BuildingBlock: AJUNOK_clean_linker_0, # of connection points: 2
#     Edge 24, Type (0, 1), BuildingBlock: AJUNOK_clean_linker_0, # of connection points: 2
#     Edge 25, Type (0, 1), BuildingBlock: AJUNOK_clean_linker_0, # of connection points: 2
#     Edge 26, Type (0, 1), BuildingBlock: AJUNOK_clean_linker_0, # of connection points: 2
#     Edge 27, Type (0, 1), BuildingBlock: AJUNOK_clean_linker_0, # of connection points: 2
#     Edge 28, Type (0, 1), BuildingBlock: AJUNOK_clean_linker_0, # of connection points: 2
#     Edge 29, Type (0, 1), BuildingBlock: AJUNOK_clean_linker_0, # of connection points: 2
#     Edge 30, Type (0, 1), BuildingBlock: AJUNOK_clean_linker_0, # of connection points: 2
#     Edge 31, Type (0, 1), BuildingBlock: AJUNOK_clean_linker_0, # of connection points: 2
#     Edge 32, Type (0, 1), BuildingBlock: AJUNOK_clean_linker_0, # of connection points: 2
#     Edge 33, Type (0, 1), BuildingBlock: AJUNOK_clean_linker_0, # of connection points: 2
#     Edge 34, Type (0, 1), BuildingBlock: AJUNOK_clean_linker_0, # of connection points: 2
#     Edge 35, Type (0, 1), BuildingBlock: AJUNOK_clean_linker_0, # of connection points: 2
# Relax obj value: 0.330
# Max RMSD: 0.216
# Mean RMSD: 0.203
data_MOF--net-zzz--node1-BETDEL_clean_sbu_0--node2-BELTOD_clean_linker_0--edge1-AJUNOK_clean_linker_0
_symmetry_space_group_name_H-M    P1
_symmetry_Int_Tables_number       1
_symmetry_cell_setting            triclinic
loop_
_symmetry_equiv_pos_as_xyz
'x, y, z'
_cell_length_a     40.515732
_cell_length_b     40.614371
_cell_length_c     14.104483
_cell_angle_alpha  91.215601
_cell_angle_beta   89.01983
_cell_angle_gamma 95.522174
loop_
_atom_site_label
_atom_site_type_symbol
_atom_site_fract_x
_atom_site_fract_y
_atom_site_fract_z
_atom_type_partial_charge
P0 P 0.73462 0.45163 0.11585 0.0
H1 H 0.74587 0.45258 0.31983 0.0
H2 H 0.79463 0.47362 0.40692 0.0
H3 H 0.8282 0.53415 0.16946 0.0
H4 H 0.78059 0.51075 0.07959 0.0
H5 H 0.66928 0.42309 0.05922 0.0
H6 H 0.6297 0.43846 0.94409 0.0
H7 H 0.69234 0.52798 0.88604 0.0
H8 H 0.73205 0.51268 0.00291 0.0
H9 H 0.78752 0.41269 0.16741 0.0
H10 H 0.75359 0.45496 0.91262 0.0
O11 O 0.71597 0.42133 0.18151 0.0
H12 H 0.84044 0.40447 0.0882 0.0
H13 H 0.80613 0.44645 0.83363 0.0
C14 C 0.75888 0.48034 0.19305 0.0
C15 C 0.76278 0.47153 0.28761 0.0
C16 C 0.79095 0.48375 0.33797 0.0
C17 C 0.81563 0.50565 0.29549 0.0
C18 C 0.80989 0.51711 0.20427 0.0
C19 C 0.782 0.50435 0.15328 0.0
C20 C 0.70355 0.46696 0.04172 0.0
C21 C 0.67431 0.44648 0.02388 0.0
C22 C 0.65161 0.45526 0.95772 0.0
C23 C 0.65775 0.48459 0.9067 0.0
C24 C 0.68692 0.50529 0.92471 0.0
C25 C 0.70954 0.49665 0.99215 0.0
C26 C 0.76657 0.43448 0.04611 0.0
C27 C 0.7909 0.41901 0.09341 0.0
C28 C 0.82121 0.41459 0.04866 0.0
C29 C 0.82731 0.42523 0.95557 0.0
C30 C 0.80187 0.43801 0.90557 0.0
C31 C 0.77176 0.44286 0.95079 0.0
P32 P 0.02367 0.74003 0.13307 0.0
H33 H 0.99388 0.73941 0.32473 0.0
H34 H 0.97076 0.78483 0.41041 0.0
H35 H 0.96184 0.83447 0.14501 0.0
H36 H 0.98064 0.7873 0.06028 0.0
H37 H 0.05955 0.68524 0.0702 0.0
H38 H 0.04847 0.64105 0.95209 0.0
H39 H 0.95204 0.6741 0.90399 0.0
H40 H 0.96376 0.71906 0.02167 0.0
H41 H 0.06108 0.80034 0.19854 0.0
H42 H 0.03423 0.75353 0.92962 0.0
O43 O 0.04746 0.72787 0.21863 0.0
H44 H 0.07325 0.85341 0.11992 0.0
H45 H 0.0471 0.80628 0.85108 0.0
C46 C 0.99015 0.76052 0.1864 0.0
C47 C 0.98492 0.75909 0.28464 0.0
C48 C 0.9722 0.7855 0.33372 0.0
C49 C 0.96568 0.8142 0.2855 0.0
C50 C 0.96631 0.8131 0.18563 0.0
C51 C 0.97746 0.78594 0.13653 0.0
C52 C 0.0123 0.70509 0.05565 0.0
C53 C 0.03577 0.68267 0.0355 0.0
C54 C 0.02938 0.65736 0.96799 0.0
C55 C 0.99943 0.65409 0.91837 0.0
C56 C 0.97553 0.67622 0.94017 0.0
C57 C 0.98203 0.70171 0.00797 0.0
C58 C 0.04692 0.77289 0.07002 0.0
C59 C 0.05949 0.80107 0.12203 0.0
C60 C 0.06604 0.83144 0.07745 0.0
C61 C 0.0607 0.8338 0.97998 0.0
C62 C 0.05147 0.80494 0.92642 0.0
C63 C 0.04432 0.77469 0.97128 0.0
P64 P 0.77704 0.04475 0.1353 0.0
H65 H 0.7605 0.04081 0.33823 0.0
H66 H 0.70955 0.01865 0.4184 0.0
H67 H 0.67764 0.96695 0.1607 0.0
H68 H 0.72852 0.98932 0.08041 0.0
H69 H 0.84535 0.07088 0.09907 0.0
H70 H 0.88694 0.05576 0.9839 0.0
H71 H 0.82523 0.96631 0.9126 0.0
H72 H 0.783 0.98222 0.02641 0.0
H73 H 0.71005 0.06544 0.14832 0.0
H74 H 0.78794 0.06521 0.93564 0.0
O75 O 0.79268 0.07524 0.20737 0.0
H76 H 0.67068 0.07574 0.02711 0.0
H77 H 0.74909 0.07822 0.81494 0.0
C78 C 0.74871 0.01663 0.20308 0.0
C79 C 0.74337 0.02354 0.29977 0.0
C80 C 0.714 0.01107 0.34556 0.0
C81 C 0.68945 0.99127 0.29572 0.0
C82 C 0.69624 0.98176 0.20148 0.0
C83 C 0.72563 0.99432 0.1556 0.0
C84 C 0.81102 0.02757 0.07257 0.0
C85 C 0.84104 0.0475 0.0609 0.0
C86 C 0.86491 0.03885 0.99452 0.0
C87 C 0.85927 0.0101 0.93758 0.0
C88 C 0.83005 0.98905 0.9536 0.0
C89 C 0.80601 0.99788 0.01983 0.0
C90 C 0.7515 0.06258 0.05037 0.0
C91 C 0.71891 0.06829 0.07581 0.0
C92 C 0.69642 0.07464 0.00637 0.0
C93 C 0.70644 0.07647 0.91055 0.0
C94 C 0.74024 0.07532 0.88744 0.0
C95 C 0.76257 0.06807 0.95674 0.0
P96 P 0.48599 0.77087 0.2004 0.0
H97 H 0.48731 0.75714 0.40222 0.0
H98 H 0.50998 0.71059 0.47333 0.0
H99 H 0.57552 0.70246 0.23117 0.0
H100 H 0.55118 0.74796 0.15737 0.0
H101 H 0.44543 0.81216 0.09954 0.0
H102 H 0.45725 0.85425 0.97994 0.0
H103 H 0.56223 0.84769 0.01072 0.0
H104 H 0.5502 0.80575 0.13306 0.0
H105 H 0.45173 0.70668 0.24537 0.0
H106 H 0.49808 0.75428 0.99985 0.0
O107 O 0.4534 0.77913 0.26768 0.0
H108 H 0.45018 0.65301 0.16197 0.0
H109 H 0.49552 0.70119 0.91577 0.0
C110 C 0.51714 0.75598 0.27368 0.0
C111 C 0.50775 0.74662 0.36616 0.0
C112 C 0.5207 0.71967 0.40688 0.0
C113 C 0.54355 0.70192 0.356 0.0
C114 C 0.55705 0.71493 0.27059 0.0
C115 C 0.54373 0.74166 0.2293 0.0
C116 C 0.49687 0.80591 0.12571 0.0
C117 C 0.47106 0.82023 0.08233 0.0
C118 C 0.47782 0.8441 0.01335 0.0
C119 C 0.51064 0.8541 0.98556 0.0
C120 C 0.53671 0.8406 0.03131 0.0
C121 C 0.52984 0.81653 0.10089 0.0
C122 C 0.4744 0.73464 0.12835 0.0
C123 C 0.4602 0.70581 0.17218 0.0
C124 C 0.45944 0.67515 0.12474 0.0
C125 C 0.4728 0.673 0.03259 0.0
C126 C 0.48528 0.70217 0.98713 0.0
C127 C 0.48631 0.73267 0.03479 0.0
P128 P 0.26767 0.44556 0.00478 0.0
H129 H 0.24464 0.41283 0.82754 0.0
H130 H 0.20041 0.42717 0.72594 0.0
H131 H 0.20974 0.5264 0.84344 0.0
H132 H 0.25507 0.51239 0.94296 0.0
H133 H 0.31077 0.40792 0.11145 0.0
H134 H 0.35645 0.42399 0.21664 0.0
H135 H 0.35885 0.52473 0.12332 0.0
H136 H 0.31356 0.50798 0.01317 0.0
H137 H 0.20157 0.4172 0.06065 0.0
H138 H 0.26594 0.50559 0.12392 0.0
O139 O 0.26224 0.40429 0.99798 0.0
H140 H 0.15487 0.4431 0.13142 0.0
H141 H 0.21934 0.53226 0.18713 0.0
C142 C 0.25309 0.46126 0.89497 0.0
C143 C 0.23864 0.43823 0.82831 0.0
C144 C 0.21295 0.44635 0.77046 0.0
C145 C 0.20108 0.47768 0.7783 0.0
C146 C 0.21808 0.50189 0.83685 0.0
C147 C 0.24435 0.49393 0.89311 0.0
C148 C 0.30848 0.45667 0.05382 0.0
C149 C 0.32177 0.43328 0.11023 0.0
C150 C 0.34775 0.44259 0.1718 0.0
C151 C 0.36095 0.47575 0.18007 0.0
C152 C 0.34938 0.49891 0.11853 0.0
C153 C 0.32345 0.48936 0.05537 0.0
C154 C 0.23745 0.45921 0.08756 0.0
C155 C 0.20591 0.4418 0.0918 0.0
C156 C 0.17906 0.45699 0.12979 0.0
C157 C 0.18323 0.49024 0.16101 0.0
C158 C 0.21526 0.50673 0.16295 0.0
C159 C 0.24215 0.49124 0.12728 0.0
P160 P 0.09869 0.27443 0.01562 0.0
H161 H 0.13776 0.24631 0.86423 0.0
H162 H 0.12152 0.1986 0.76238 0.0
H163 H 0.01856 0.21174 0.81543 0.0
H164 H 0.0347 0.25945 0.91914 0.0
H165 H 0.13776 0.32942 0.10825 0.0
H166 H 0.12185 0.37623 0.20224 0.0
H167 H 0.02101 0.35603 0.10836 0.0
H168 H 0.03771 0.31048 0.00707 0.0
H169 H 0.11965 0.21285 0.08437 0.0
H170 H 0.03222 0.26553 0.10621 0.0
O171 O 0.13962 0.27385 0.02682 0.0
H172 H 0.08867 0.16451 0.15399 0.0
H173 H 1.00102 0.21717 0.17084 0.0
C174 C 0.08753 0.25661 0.90074 0.0
C175 C 0.11164 0.24026 0.8507 0.0
C176 C 0.10241 0.21264 0.79299 0.0
C177 C 0.06888 0.20125 0.78295 0.0
C178 C 0.04462 0.2201 0.82249 0.0
C179 C 0.05391 0.24772 0.88092 0.0
C180 C 0.0887 0.3154 0.05274 0.0
C181 C 0.1124 0.3355 0.10467 0.0
C182 C 0.10321 0.36219 0.15967 0.0
C183 C 0.06986 0.36877 0.16649 0.0
C184 C 0.04683 0.35114 0.10605 0.0
C185 C 0.05632 0.32485 0.0486 0.0
C186 C 0.07876 0.24344 0.09253 0.0
C187 C 0.09416 0.21451 0.10676 0.0
C188 C 0.07624 0.18665 0.14482 0.0
C189 C 0.04239 0.18706 0.16804 0.0
C190 C 0.02722 0.21628 0.15581 0.0
C191 C 0.04527 0.2442 0.11886 0.0
P192 P 0.26161 0.04704 0.0116 0.0
H193 H 0.27367 0.07729 0.82497 0.0
H194 H 0.31965 0.06959 0.71533 0.0
H195 H 0.33388 0.97736 0.84868 0.0
H196 H 0.28562 0.98336 0.94971 0.0
H197 H 0.21957 0.09305 0.10075 0.0
H198 H 0.1693 0.08444 0.19613 0.0
H199 H 0.158 0.98169 0.10756 0.0
H200 H 0.2085 0.99078 0.00812 0.0
H201 H 0.33137 0.05605 0.05155 0.0
H202 H 0.24597 0.99467 0.1553 0.0
O203 O 0.27398 0.08747 0.01575 0.0
H204 H 0.36749 0.02289 0.13718 0.0
H205 H 0.28204 0.9617 0.24124 0.0
C206 C 0.27696 0.03169 0.89895 0.0
C207 C 0.28545 0.0545 0.82717 0.0
C208 C 0.31258 0.05052 0.76624 0.0
C209 C 0.33228 0.02413 0.77792 0.0
C210 C 0.32013 0.99858 0.83892 0.0
C211 C 0.29217 0.00197 0.89704 0.0
C212 C 0.21816 0.04252 0.04714 0.0
C213 C 0.20579 0.06888 0.09805 0.0
C214 C 0.17704 0.06389 0.15378 0.0
C215 C 0.15999 0.03228 0.16111 0.0
C216 C 0.1705 0.00642 0.10319 0.0
C217 C 0.19931 0.0116 0.04594 0.0
C218 C 0.28585 0.02837 0.09776 0.0
C219 C 0.32028 0.03617 0.09513 0.0
C220 C 0.34092 0.01689 0.14298 0.0
C221 C 0.32752 0.98979 0.19597 0.0
C222 C 0.29298 0.98267 0.20162 0.0
C223 C 0.27229 0.00174 0.15248 0.0
P224 P 0.4305 0.23203 0.97148 0.0
H225 H 0.40765 0.24481 0.78163 0.0
H226 H 0.4255 0.29347 0.6897 0.0
H227 H 0.51804 0.30466 0.83906 0.0
H228 H 0.49994 0.25578 0.93164 0.0
H229 H 0.40397 0.2024 0.14182 0.0
H230 H 0.42115 0.1603 0.2451 0.0
H231 H 0.50275 0.14462 0.05363 0.0
H232 H 0.48595 0.18855 0.95119 0.0
H233 H 0.40448 0.29584 0.9591 0.0
H234 H 0.47224 0.25025 0.13651 0.0
O235 O 0.39016 0.2239 0.94957 0.0
H236 H 0.42618 0.35027 0.01937 0.0
H237 H 0.49225 0.30415 0.20149 0.0
C238 C 0.4521 0.24686 0.86536 0.0
C239 C 0.43261 0.25638 0.79113 0.0
C240 C 0.44267 0.28466 0.73914 0.0
C241 C 0.47254 0.3037 0.76014 0.0
C242 C 0.49439 0.29102 0.82347 0.0
C243 C 0.48438 0.2625 0.87484 0.0
C244 C 0.44331 0.19816 0.03808 0.0
C245 C 0.42535 0.18967 0.12115 0.0
C246 C 0.43514 0.16545 0.1801 0.0
C247 C 0.46284 0.14847 0.15652 0.0
C248 C 0.48116 0.15716 0.0733 0.0
C249 C 0.47148 0.18198 0.01439 0.0
C250 C 0.43629 0.26887 0.04418 0.0
C251 C 0.42293 0.2974 0.01413 0.0
C252 C 0.43564 0.32852 0.04779 0.0
C253 C 0.46171 0.3315 0.11281 0.0
C254 C 0.47314 0.3027 0.14842 0.0
C255 C 0.46093 0.27169 0.11326 0.0
Dy256 Dy 0.02624 0.99021 0.62493 0.0
C257 C 0.98407 0.0658 0.329 0.0
C258 C 0.04426 0.95019 0.76497 0.0
Dy259 Dy 0.99185 0.02262 0.47064 0.0
O260 O 0.06148 0.95777 0.68894 0.0
O261 O 0.01722 0.96499 0.76546 0.0
O262 O 0.07525 0.011 0.56389 0.0
O263 O 0.03593 0.9962 0.47297 0.0
C264 C 0.06545 0.0092 0.47652 0.0
C265 C 0.95157 0.00404 0.61656 0.0
O266 O 0.9813 0.97119 0.41372 0.0
O267 O 0.99733 0.94709 0.55133 0.0
O268 O 0.96679 0.0637 0.40737 0.0
O269 O 0.00381 0.04247 0.3256 0.0
O270 O 0.94197 0.00437 0.52887 0.0
O271 O 0.9815 0.01617 0.62224 0.0
O272 O 0.03294 0.04159 0.68549 0.0
O273 O 0.02145 0.06539 0.54406 0.0
C274 C 0.98408 0.94484 0.46566 0.0
C275 C 0.03208 0.068 0.63247 0.0
Dy276 Dy 0.48844 0.97261 0.48815 0.0
C277 C 0.59319 0.05005 0.66986 0.0
C278 C 0.43323 0.94446 0.39839 0.0
Dy279 Dy 0.53469 0.02323 0.59627 0.0
O280 O 0.46223 0.95098 0.35874 0.0
O281 O 0.43531 0.95163 0.48813 0.0
O282 O 0.53247 0.94672 0.43657 0.0
O283 O 0.53704 0.99815 0.45983 0.0
C284 C 0.55278 0.97362 0.43891 0.0
C285 C 0.47054 0.0251 0.64354 0.0
O286 O 0.52605 0.05362 0.46949 0.0
O287 O 0.47832 0.02118 0.42719 0.0
O288 O 0.56487 0.0623 0.68303 0.0
O289 O 0.58914 0.02342 0.6175 0.0
O290 O 0.49251 0.05068 0.6501 0.0
O291 O 0.48492 0.99947 0.6231 0.0
O292 O 0.49698 0.94044 0.60875 0.0
O293 O 0.53668 0.97691 0.68278 0.0
C294 C 0.49841 0.04876 0.41991 0.0
C295 C 0.51887 0.94765 0.67659 0.0
Dy296 Dy 0.49355 0.51864 0.63987 0.0
C297 C 0.51381 0.45253 0.29515 0.0
C298 C 0.48762 0.55648 0.80046 0.0
Dy299 Dy 0.52187 0.48802 0.46003 0.0
O300 O 0.46333 0.53834 0.7605 0.0
O301 O 0.51496 0.55334 0.75338 0.0
O302 O 0.44173 0.50607 0.58518 0.0
O303 O 0.4812 0.51794 0.49065 0.0
C304 C 0.45079 0.50822 0.49651 0.0
C305 C 0.56529 0.49891 0.60145 0.0
O306 O 0.53406 0.54046 0.41964 0.0
O307 O 0.52057 0.56284 0.5669 0.0
O308 O 0.5408 0.45473 0.34503 0.0
O309 O 0.49265 0.4707 0.33403 0.0
O310 O 0.57422 0.49899 0.51183 0.0
O311 O 0.53474 0.48964 0.60901 0.0
O312 O 0.48976 0.46555 0.6846 0.0
O313 O 0.49651 0.44334 0.53376 0.0
C314 C 0.53281 0.56606 0.47901 0.0
C315 C 0.48898 0.43967 0.6251 0.0
Dy316 Dy 0.99264 0.48174 0.61924 0.0
C317 C 0.06717 0.54078 0.31702 0.0
C318 C 0.95047 0.4526 0.75224 0.0
Dy319 Dy 0.02495 0.52295 0.46312 0.0
O320 O 0.9548 0.44146 0.6667 0.0
O321 O 0.96988 0.47963 0.76632 0.0
O322 O 0.01825 0.43833 0.56547 0.0
O323 O 1.00303 0.47233 0.46926 0.0
C324 C 0.01853 0.4471 0.47745 0.0
C325 C 1.00128 0.55903 0.60542 0.0
O326 O 0.97382 0.51855 0.40619 0.0
O327 O 0.94934 0.50213 0.54912 0.0
O328 O 0.06781 0.55465 0.40085 0.0
O329 O 0.04172 0.51889 0.31195 0.0
O330 O 1.00293 0.56828 0.51744 0.0
O331 O 0.01517 0.53267 0.61336 0.0
O332 O 0.04373 0.48796 0.67942 0.0
O333 O 0.06812 0.5031 0.53528 0.0
C334 C 0.94719 0.51219 0.46074 0.0
C335 C 0.07043 0.49383 0.62433 0.0
C336 C 0.14234 0.03741 0.33131 0.0
C337 C 0.13461 0.02604 0.23846 0.0
C338 C 0.11968 0.03203 0.4069 0.0
C339 C 0.08812 0.01518 0.39323 0.0
H340 H 0.16645 0.05024 0.34618 0.0
H341 H 0.12707 0.04113 0.47688 0.0
S342 S 0.05519 0.98059 0.16398 0.0
N343 N 0.09289 0.99732 0.13695 0.0
N344 N 0.05014 0.9871 0.27915 0.0
C345 C 0.07984 0.00377 0.30071 0.0
C346 C 0.10313 0.0091 0.22347 0.0
C347 C 0.5049 0.1217 0.25148 0.0
C348 C 0.47213 0.12197 0.21983 0.0
C349 C 0.51329 0.09832 0.31717 0.0
C350 C 0.48927 0.07416 0.35297 0.0
H351 H 0.52405 0.14015 0.22691 0.0
H352 H 0.5388 0.09909 0.3395 0.0
S353 S 0.39992 0.0641 0.29178 0.0
N354 N 0.41577 0.09543 0.22766 0.0
N355 N 0.43113 0.05233 0.35195 0.0
C356 C 0.45646 0.07411 0.32119 0.0
C357 C 0.44801 0.09775 0.25448 0.0
C358 C 0.37657 0.47422 0.35129 0.0
C359 C 0.38415 0.48588 0.25919 0.0
C360 C 0.398 0.48209 0.42731 0.0
C361 C 0.42812 0.50181 0.41474 0.0
H362 H 0.35371 0.45883 0.36499 0.0
H363 H 0.3911 0.47214 0.4963 0.0
S364 S 0.45921 0.54 0.18924 0.0
N365 N 0.42371 0.51901 0.16059 0.0
N366 N 0.4638 0.5343 0.30376 0.0
C367 C 0.43577 0.51438 0.32367 0.0
C368 C 0.41384 0.50634 0.24598 0.0
C369 C 0.03689 0.41472 0.22813 0.0
C370 C 0.05864 0.3905 0.2449 0.0
C371 C 0.02462 0.43369 0.30327 0.0
C372 C 0.03329 0.42873 0.39789 0.0
H373 H 0.02916 0.41889 0.15658 0.0
H374 H 0.00762 0.45177 0.28735 0.0
S375 S 0.09 0.3691 0.47973 0.0
N376 N 0.08855 0.36307 0.36375 0.0
N377 N 0.06591 0.39882 0.50359 0.0
C378 C 0.05549 0.40512 0.41523 0.0
C379 C 0.06805 0.38599 0.33916 0.0
C380 C 0.91714 0.0091 0.86908 0.0
C381 C 0.88253 0.00413 0.85682 0.0
C382 C 0.93938 0.00776 0.79169 0.0
C383 C 0.92794 1.00148 0.69875 0.0
H384 H 0.92713 0.01476 0.93893 0.0
H385 H 0.9657 0.01263 0.80457 0.0
S386 S 0.83985 0.98567 0.6281 0.0
N387 N 0.83807 0.99208 0.74392 0.0
N388 N 0.87968 0.98872 0.59955 0.0
C389 C 0.89349 0.9952 0.68593 0.0
C390 C 0.87086 0.99673 0.76457 0.0
C391 C 0.49918 0.87005 0.82044 0.0
C392 C 0.51673 0.87696 0.90476 0.0
C393 C 0.50127 0.89244 0.74609 0.0
C394 C 0.52092 0.92296 0.75263 0.0
H395 H 0.48309 0.84729 0.81251 0.0
H396 H 0.48651 0.88596 0.68397 0.0
S397 S 0.57385 0.95182 0.9566 0.0
N398 N 0.55592 0.91548 0.9892 0.0
N399 N 0.56011 0.95785 0.84933 0.0
C400 C 0.53987 0.92957 0.8352 0.0
C401 C 0.53774 0.90652 0.91116 0.0
C402 C 0.64559 0.49808 0.73826 0.0
C403 C 0.63429 0.49234 0.83197 0.0
C404 C 0.62321 0.50128 0.66448 0.0
C405 C 0.58872 0.49892 0.68173 0.0
H406 H 0.67181 0.49881 0.72116 0.0
H407 H 0.63299 0.50464 0.59303 0.0
S408 S 0.54696 0.48827 0.91734 0.0
N409 N 0.58674 0.48753 0.93952 0.0
N410 N 0.54478 0.49327 0.80185 0.0
C411 C 0.57733 0.49476 0.77612 0.0
C412 C 0.60007 0.49151 0.8509 0.0
C413 C 1.00293 0.59633 0.85448 0.0
C414 C 0.99463 0.62876 0.84058 0.0
C415 C 0.00342 0.57336 0.77885 0.0
C416 C 0.9958 0.58197 0.6862 0.0
H417 H 0.01003 0.58893 0.92401 0.0
H418 H 0.01105 0.54908 0.79261 0.0
S419 S 0.96991 0.66279 0.61304 0.0
N420 N 0.97686 0.66766 0.72772 0.0
N421 N 0.9772 0.62437 0.58609 0.0
C422 C 0.98572 0.6137 0.67219 0.0
C423 C 0.98526 0.63712 0.74922 0.0
C424 C 0.02656 0.12601 0.15716 0.0
C425 C 0.02293 0.15672 0.2024 0.0
C426 C 0.01124 0.09654 0.19401 0.0
C427 C 0.99142 0.09675 0.2767 0.0
H428 H 0.04224 0.12464 0.09448 0.0
H429 H 0.01636 0.0733 0.1603 0.0
S430 S 0.97234 0.17076 0.41867 0.0
N431 N 0.99701 0.18562 0.3322 0.0
N432 N 0.96723 0.13038 0.39948 0.0
C433 C 0.98577 0.12744 0.31904 0.0
C434 C 1.00182 0.15741 0.28243 0.0
C435 C 0.37812 0.95942 0.19743 0.0
C436 C 0.35006 0.96962 0.24564 0.0
C437 C 0.40371 0.947 0.24679 0.0
C438 C 0.40209 0.94451 0.34599 0.0
H439 H 0.38123 0.96299 0.12177 0.0
H440 H 0.42605 0.94205 0.20787 0.0
S441 S 0.33111 0.96203 0.50271 0.0
N442 N 0.32007 0.97219 0.39591 0.0
N443 N 0.36788 0.94809 0.48876 0.0
C444 C 0.3725 0.95098 0.39349 0.0
C445 C 0.34652 0.96386 0.34324 0.0
C446 C 0.45606 0.38932 0.16906 0.0
C447 C 0.47669 0.36453 0.14444 0.0
C448 C 0.4691 0.41932 0.20949 0.0
C449 C 0.50318 0.42539 0.22851 0.0
H450 H 0.42942 0.38495 0.16171 0.0
H451 H 0.45187 0.43689 0.23192 0.0
S452 S 0.5686 0.37179 0.15739 0.0
N453 N 0.53362 0.35053 0.12529 0.0
N454 N 0.55793 0.40662 0.20623 0.0
C455 C 0.52447 0.40212 0.19699 0.0
C456 C 0.51124 0.37166 0.15415 0.0
C457 C 0.15607 0.52838 0.27218 0.0
C458 C 0.15433 0.50796 0.1903 0.0
C459 C 0.1282 0.54277 0.30673 0.0
C460 C 0.0975 0.53673 0.2615 0.0
H461 H 0.17856 0.53177 0.3131 0.0
H462 H 0.13015 0.55625 0.37384 0.0
S463 S 0.08133 0.49054 0.03518 0.0
N464 N 0.1208 0.48706 0.05628 0.0
N465 N 0.06789 0.51294 0.12429 0.0
C466 C 0.09606 0.51878 0.17543 0.0
C467 C 0.12457 0.50449 0.13935 0.0
C468 C 0.07994 0.8744 0.85558 0.0
C469 C 0.06009 0.86641 0.93588 0.0
C470 C 0.07596 0.90285 0.80415 0.0
C471 C 0.05149 0.92387 0.83009 0.0
H472 H 0.09794 0.85798 0.83076 0.0
H473 H 0.09109 0.90747 0.74089 0.0
S474 S 0.9942 0.91448 0.03783 0.0
N475 N 0.01626 0.88241 0.04208 0.0
N476 N 0.00833 0.93564 0.94439 0.0
C477 C 0.03236 0.91683 0.91251 0.0
C478 C 0.03676 0.88811 0.96567 0.0
C479 C 0.65281 0.0926 0.84733 0.0
C480 C 0.68084 0.07478 0.8358 0.0
C481 C 0.62505 0.08595 0.78945 0.0
C482 C 0.62444 0.06134 0.71788 0.0
H483 H 0.65171 0.11079 0.90433 0.0
H484 H 0.60338 0.09902 0.80401 0.0
S485 S 0.6927 0.01034 0.65044 0.0
N486 N 0.70692 0.03307 0.74196 0.0
N487 N 0.6554 0.02164 0.63137 0.0
C488 C 0.65317 0.04516 0.70068 0.0
C489 C 0.68125 0.05164 0.76002 0.0
C490 C 0.50737 0.63448 0.94571 0.0
C491 C 0.47643 0.64055 0.98551 0.0
C492 C 0.51113 0.60592 0.89124 0.0
C493 C 0.48403 0.58242 0.87376 0.0
H494 H 0.52872 0.65242 0.95476 0.0
H495 H 0.53517 0.60309 0.85891 0.0
S496 S 0.39885 0.58429 0.97295 0.0
N497 N 0.41899 0.61907 0.01232 0.0
N498 N 0.42606 0.56516 0.90912 0.0
C499 C 0.45346 0.58698 0.91841 0.0
C500 C 0.44966 0.61611 0.97463 0.0
C501 C 0.86612 0.41282 0.82351 0.0
C502 C 0.86106 0.42696 0.91359 0.0
C503 C 0.89632 0.41934 0.77473 0.0
C504 C 0.92221 0.44076 0.81366 0.0
H505 H 0.84612 0.39773 0.78901 0.0
H506 H 0.8986 0.40906 0.70367 0.0
S507 S 0.92233 0.48154 0.05104 0.0
N508 N 0.88514 0.46115 0.04321 0.0
N509 N 0.94188 0.4738 0.95053 0.0
C510 C 0.91815 0.45352 0.90586 0.0
C511 C 0.88752 0.44652 0.95613 0.0
C512 C 0.04302 0.16215 0.6588 0.0
C513 C 0.05968 0.16736 0.74496 0.0
C514 C 0.03461 0.12995 0.62275 0.0
C515 C 0.04207 0.10174 0.67228 0.0
H516 H 0.03671 0.18307 0.61873 0.0
H517 H 0.02184 0.12727 0.55578 0.0
S518 S 0.08448 0.10281 0.90401 0.0
N519 N 0.08277 0.14225 0.88033 0.0
N520 N 0.06674 0.08181 0.81386 0.0
C521 C 0.05843 0.10688 0.75944 0.0
C522 C 0.06727 0.13965 0.7954 0.0
C523 C 0.38027 0.99586 0.70555 0.0
C524 C 0.36691 0.02512 0.73678 0.0
C525 C 0.41361 0.99597 0.67527 0.0
C526 C 0.43504 0.02538 0.6736 0.0
H527 H 0.36498 0.97248 0.7055 0.0
H528 H 0.42277 0.97266 0.65491 0.0
S529 S 0.4137 0.10849 0.75392 0.0
N530 N 0.37914 0.08414 0.76979 0.0
N531 N 0.44076 0.08447 0.70835 0.0
C532 C 0.42211 0.05481 0.70425 0.0
C533 C 0.3884 0.05467 0.73663 0.0
C534 C 0.47427 0.34547 0.63024 0.0
C535 C 0.47832 0.33837 0.72628 0.0
C536 C 0.47729 0.37824 0.5986 0.0
C537 C 0.48387 0.40535 0.66194 0.0
H538 H 0.46881 0.32552 0.57904 0.0
H539 H 0.47432 0.38229 0.52368 0.0
S540 S 0.49542 0.40009 0.92161 0.0
N541 N 0.48858 0.3612 0.88497 0.0
N542 N 0.49394 0.42256 0.82598 0.0
C543 C 0.48757 0.39854 0.75845 0.0
C544 C 0.48494 0.36517 0.7904 0.0
C545 C 0.14249 0.4926 0.79469 0.0
C546 C 0.16867 0.48344 0.73576 0.0
C547 C 0.11072 0.4954 0.75865 0.0
C548 C 0.10399 0.48981 0.66176 0.0
H549 H 0.14644 0.49692 0.86985 0.0
H550 H 0.09139 0.50237 0.80693 0.0
S551 S 0.16413 0.4657 0.47703 0.0
N552 N 0.18571 0.46884 0.57571 0.0
N553 N 0.12646 0.4748 0.50728 0.0
C554 C 0.13012 0.48106 0.60178 0.0
C555 C 0.16228 0.47766 0.63889 0.0
C556 C 0.98781 0.85357 0.41316 0.0
C557 C 0.96544 0.84656 0.33827 0.0
C558 C 0.99245 0.885 0.45579 0.0
C559 C 0.97548 0.91125 0.42457 0.0
H560 H 0.00329 0.83512 0.43656 0.0
H561 H 0.01077 0.88904 0.51095 0.0
S562 S 0.91135 0.90579 0.23892 0.0
N563 N 0.92346 0.86813 0.2416 0.0
N564 N 0.93353 0.92785 0.31917 0.0
C565 C 0.95219 0.90463 0.35219 0.0
C566 C 0.94688 0.87222 0.30974 0.0
C567 C 0.63918 0.01199 0.3728 0.0
C568 C 0.6553 0.98507 0.33692 0.0
C569 C 0.6062 0.00788 0.40548 0.0
C570 C 0.58798 0.97656 0.40552 0.0
H571 H 0.65186 0.03673 0.37302 0.0
H572 H 0.59479 0.02964 0.42982 0.0
S573 S 0.61895 0.8978 0.32126 0.0
N574 N 0.65068 0.92587 0.30408 0.0
N575 N 0.58882 0.91794 0.36768 0.0
C576 C 0.60391 0.94928 0.37113 0.0
C577 C 0.63748 0.95358 0.33633 0.0
C578 C 0.55134 0.65955 0.47907 0.0
C579 C 0.5478 0.66732 0.38323 0.0
C580 C 0.54824 0.62662 0.50879 0.0
C581 C 0.54168 0.60007 0.4438 0.0
H582 H 0.55515 0.67916 0.53217 0.0
H583 H 0.54984 0.62202 0.58388 0.0
S584 S 0.53158 0.6069 0.18386 0.0
N585 N 0.53813 0.64551 0.22292 0.0
N586 N 0.53352 0.58382 0.27812 0.0
C587 C 0.53999 0.60739 0.34695 0.0
C588 C 0.54274 0.64094 0.31684 0.0
C589 C 0.87778 0.51006 0.28226 0.0
C590 C 0.8491 0.51213 0.33924 0.0
C591 C 0.90942 0.51144 0.32184 0.0
C592 C 0.91382 0.51457 0.42042 0.0
H593 H 0.87572 0.50587 0.2065 0.0
H594 H 0.93043 0.50859 0.27484 0.0
S595 S 0.84762 0.52553 0.60051 0.0
N596 N 0.82779 0.52122 0.499 0.0
N597 N 0.88711 0.52281 0.57374 0.0
C598 C 0.88562 0.51815 0.47815 0.0
C599 C 0.85336 0.51716 0.43759 0.0
loop_
_geom_bond_atom_site_label_1
_geom_bond_atom_site_label_2
_geom_bond_distance
_geom_bond_site_symmetry_2
_ccdc_geom_bond_type
P0 O11 1.490 . S
P0 C14 1.812 . S
P0 C20 1.803 . S
P0 C26 1.819 1_554 S
H1 C15 0.941 . S
H2 C16 0.939 . S
H3 C18 0.940 . S
H4 C19 0.940 . S
H5 C21 0.939 . S
H6 C22 0.942 . S
H7 C24 0.940 . S
H8 C25 0.939 . S
H9 C27 0.941 . S
H10 C31 0.939 . S
O11 P0 1.490 . S
H12 C28 0.939 . S
H13 C30 0.940 . S
C14 P0 1.812 . S
C14 C15 1.389 . S
C14 C19 1.391 . S
C15 H1 0.941 . S
C15 C14 1.389 . S
C15 C16 1.397 . S
C16 H2 0.939 . S
C16 C15 1.397 . S
C16 C17 1.378 . S
C17 C16 1.378 . S
C17 C18 1.378 . S
C18 H3 0.940 . S
C18 C17 1.378 . S
C18 C19 1.396 . S
C19 H4 0.940 . S
C19 C14 1.391 . S
C19 C18 1.396 . S
C20 P0 1.803 . S
C20 C21 1.378 1_554 S
C20 C25 1.400 . S
C21 H5 0.939 . S
C21 C20 1.378 1_556 S
C21 C22 1.361 . S
C22 H6 0.942 . S
C22 C21 1.361 . S
C22 C23 1.369 . S
C23 C22 1.369 . S
C23 C24 1.404 1_556 S
C24 H7 0.940 . S
C24 C23 1.404 1_554 S
C24 C25 1.389 . S
C25 H8 0.939 . S
C25 C20 1.400 . S
C25 C24 1.389 . S
C26 P0 1.819 1_556 S
C26 C27 1.391 . S
C26 C31 1.391 . S
C27 H9 0.941 . S
C27 C26 1.391 . S
C27 C28 1.396 . S
C28 H12 0.939 . S
C28 C27 1.396 . S
C28 C29 1.397 . S
C29 C28 1.397 . S
C29 C30 1.385 . S
C30 H13 0.940 . S
C30 C29 1.385 . S
C30 C31 1.388 . S
C31 H10 0.939 . S
C31 C26 1.391 . S
C31 C30 1.388 . S
P32 O43 1.490 1_655 S
P32 C46 1.812 . S
P32 C52 1.803 . S
P32 C58 1.819 1_554 S
H33 C47 0.941 1_455 S
H34 C48 0.939 . S
H35 C50 0.940 . S
H36 C51 0.940 . S
H37 C53 0.939 1_455 S
H38 C54 0.942 . S
H39 C56 0.940 . S
H40 C57 0.939 . S
H41 C59 0.933 1_455 S
H42 C63 0.939 . S
O43 P32 1.490 1_455 S
H44 C60 0.939 . S
H45 C62 0.940 . S
C46 P32 1.812 . S
C46 C47 1.389 . S
C46 C51 1.391 . S
C47 H33 0.941 1_655 S
C47 C46 1.389 . S
C47 C48 1.397 . S
C48 H34 0.939 . S
C48 C47 1.397 . S
C48 C49 1.378 . S
C49 C48 1.378 . S
C49 C50 1.378 . S
C50 H35 0.940 . S
C50 C49 1.378 . S
C50 C51 1.396 . S
C51 H36 0.940 . S
C51 C46 1.391 . S
C51 C50 1.396 . S
C52 P32 1.803 . S
C52 C53 1.378 1_554 S
C52 C57 1.400 . S
C53 H37 0.939 1_655 S
C53 C52 1.378 1_556 S
C53 C54 1.361 . S
C54 H38 0.942 . S
C54 C53 1.361 . S
C54 C55 1.369 . S
C55 C54 1.369 . S
C55 C56 1.404 1_556 S
C56 H39 0.940 . S
C56 C55 1.404 1_554 S
C56 C57 1.389 . S
C57 H40 0.939 . S
C57 C52 1.400 . S
C57 C56 1.389 . S
C58 P32 1.819 1_556 S
C58 C59 1.391 . S
C58 C63 1.391 . S
C59 H41 0.933 1_655 S
C59 C58 1.391 . S
C59 C60 1.396 . S
C60 H44 0.939 . S
C60 C59 1.396 . S
C60 C61 1.397 . S
C61 C60 1.397 . S
C61 C62 1.385 . S
C62 H45 0.940 . S
C62 C61 1.385 . S
C62 C63 1.388 . S
C63 H42 0.939 . S
C63 C58 1.391 . S
C63 C62 1.388 . S
P64 O75 1.490 . S
P64 C78 1.812 . S
P64 C84 1.803 . S
P64 C90 1.819 1_554 S
H65 C79 0.941 . S
H66 C80 0.939 . S
H67 C82 0.940 . S
H68 C83 0.950 . S
H69 C85 0.939 . S
H70 C86 0.942 . S
H71 C88 0.940 . S
H72 C89 0.958 . S
H73 C91 0.941 1_554 S
H74 C95 0.926 1_565 S
O75 P64 1.490 . S
H76 C92 0.939 . S
H77 C94 0.940 . S
C78 P64 1.812 . S
C78 C79 1.389 . S
C78 C83 1.376 1_545 S
C79 H65 0.941 . S
C79 C78 1.389 . S
C79 C80 1.397 . S
C80 H66 0.939 . S
C80 C79 1.397 . S
C80 C81 1.378 . S
C81 C80 1.378 . S
C81 C82 1.378 1_545 S
C82 H67 0.940 . S
C82 C81 1.378 1_565 S
C82 C83 1.402 . S
C83 H68 0.950 . S
C83 C78 1.376 1_565 S
C83 C82 1.402 . S
C84 P64 1.803 . S
C84 C85 1.378 1_554 S
C84 C89 1.367 1_545 S
C85 H69 0.939 . S
C85 C84 1.378 1_556 S
C85 C86 1.361 . S
C86 H70 0.942 . S
C86 C85 1.361 . S
C86 C87 1.369 . S
C87 C86 1.369 . S
C87 C88 1.404 1_546 S
C88 H71 0.940 . S
C88 C87 1.404 1_564 S
C88 C89 1.405 . S
C89 H72 0.958 . S
C89 C84 1.367 1_565 S
C89 C88 1.405 . S
C90 P64 1.819 1_556 S
C90 C91 1.391 . S
C90 C95 1.391 . S
C91 H73 0.941 1_556 S
C91 C90 1.391 . S
C91 C92 1.396 . S
C92 H76 0.939 . S
C92 C91 1.396 . S
C92 C93 1.397 . S
C93 C92 1.397 . S
C93 C94 1.385 1_545 S
C94 H77 0.940 . S
C94 C93 1.385 1_565 S
C94 C95 1.388 1_565 S
C95 H74 0.926 1_545 S
C95 C90 1.391 . S
C95 C94 1.388 1_545 S
P96 O107 1.490 . S
P96 C110 1.812 . S
P96 C116 1.803 . S
P96 C122 1.819 1_554 S
H97 C111 0.941 . S
H98 C112 0.939 . S
H99 C114 0.940 . S
H100 C115 0.940 . S
H101 C117 0.939 1_556 S
H102 C118 0.942 . S
H103 C120 0.940 . S
H104 C121 0.939 . S
H105 C123 0.941 1_554 S
H106 C127 0.939 . S
O107 P96 1.490 . S
H108 C124 0.939 . S
H109 C126 0.940 . S
C110 P96 1.812 . S
C110 C111 1.389 . S
C110 C115 1.391 . S
C111 H97 0.941 . S
C111 C110 1.389 . S
C111 C112 1.397 . S
C112 H98 0.939 . S
C112 C111 1.397 . S
C112 C113 1.378 . S
C113 C112 1.378 . S
C113 C114 1.378 . S
C114 H99 0.940 . S
C114 C113 1.378 . S
C114 C115 1.396 . S
C115 H100 0.940 . S
C115 C110 1.391 . S
C115 C114 1.396 . S
C116 P96 1.803 . S
C116 C117 1.378 . S
C116 C121 1.400 . S
C117 H101 0.939 1_554 S
C117 C116 1.378 . S
C117 C118 1.361 1_554 S
C118 H102 0.942 . S
C118 C117 1.361 1_556 S
C118 C119 1.369 1_556 S
C119 C118 1.369 1_554 S
C119 C120 1.404 . S
C120 H103 0.940 . S
C120 C119 1.404 . S
C120 C121 1.389 . S
C121 H104 0.939 . S
C121 C116 1.400 . S
C121 C120 1.389 . S
C122 P96 1.819 1_556 S
C122 C123 1.391 . S
C122 C127 1.391 . S
C123 H105 0.941 1_556 S
C123 C122 1.391 . S
C123 C124 1.396 . S
C124 H108 0.939 . S
C124 C123 1.396 . S
C124 C125 1.397 . S
C125 C124 1.397 . S
C125 C126 1.385 . S
C126 H109 0.940 . S
C126 C125 1.385 . S
C126 C127 1.388 . S
C127 H106 0.939 . S
C127 C122 1.391 . S
C127 C126 1.388 . S
P128 O139 1.490 . S
P128 C142 1.812 1_554 S
P128 C148 1.803 . S
P128 C154 1.819 . S
H129 C143 0.941 . S
H130 C144 0.939 . S
H131 C146 0.940 . S
H132 C147 0.940 . S
H133 C149 0.939 . S
H134 C150 0.942 . S
H135 C152 0.940 . S
H136 C153 0.939 . S
H137 C155 0.941 . S
H138 C159 0.939 . S
O139 P128 1.490 . S
H140 C156 0.939 . S
H141 C158 0.940 . S
C142 P128 1.812 1_556 S
C142 C143 1.389 . S
C142 C147 1.391 . S
C143 H129 0.941 . S
C143 C142 1.389 . S
C143 C144 1.397 . S
C144 H130 0.939 . S
C144 C143 1.397 . S
C144 C145 1.378 . S
C145 C144 1.378 . S
C145 C146 1.378 . S
C146 H131 0.940 . S
C146 C145 1.378 . S
C146 C147 1.396 . S
C147 H132 0.940 . S
C147 C142 1.391 . S
C147 C146 1.396 . S
C148 P128 1.803 . S
C148 C149 1.378 . S
C148 C153 1.400 . S
C149 H133 0.939 . S
C149 C148 1.378 . S
C149 C150 1.361 . S
C150 H134 0.942 . S
C150 C149 1.361 . S
C150 C151 1.369 . S
C151 C150 1.369 . S
C151 C152 1.404 . S
C152 H135 0.940 . S
C152 C151 1.404 . S
C152 C153 1.389 . S
C153 H136 0.939 . S
C153 C148 1.400 . S
C153 C152 1.389 . S
C154 P128 1.819 . S
C154 C155 1.391 . S
C154 C159 1.391 . S
C155 H137 0.941 . S
C155 C154 1.391 . S
C155 C156 1.396 . S
C156 H140 0.939 . S
C156 C155 1.396 . S
C156 C157 1.397 . S
C157 C156 1.397 . S
C157 C158 1.385 . S
C158 H141 0.940 . S
C158 C157 1.385 . S
C158 C159 1.388 . S
C159 H138 0.939 . S
C159 C154 1.391 . S
C159 C158 1.388 . S
P160 O171 1.490 . S
P160 C174 1.812 1_554 S
P160 C180 1.803 . S
P160 C186 1.819 . S
H161 C175 0.941 . S
H162 C176 0.939 . S
H163 C178 0.940 . S
H164 C179 0.940 1_554 S
H165 C181 0.939 . S
H166 C182 0.942 . S
H167 C184 0.940 . S
H168 C185 0.939 . S
H169 C187 0.941 . S
H170 C191 0.939 . S
O171 P160 1.490 . S
H172 C188 0.939 . S
H173 C190 0.940 . S
C174 P160 1.812 1_556 S
C174 C175 1.389 . S
C174 C179 1.391 . S
C175 H161 0.941 . S
C175 C174 1.389 . S
C175 C176 1.397 . S
C176 H162 0.939 . S
C176 C175 1.397 . S
C176 C177 1.378 . S
C177 C176 1.378 . S
C177 C178 1.378 . S
C178 H163 0.940 . S
C178 C177 1.378 . S
C178 C179 1.396 . S
C179 H164 0.940 1_556 S
C179 C174 1.391 . S
C179 C178 1.396 . S
C180 P160 1.803 . S
C180 C181 1.378 . S
C180 C185 1.400 . S
C181 H165 0.939 . S
C181 C180 1.378 . S
C181 C182 1.361 . S
C182 H166 0.942 . S
C182 C181 1.361 . S
C182 C183 1.369 . S
C183 C182 1.369 . S
C183 C184 1.404 . S
C184 H167 0.940 . S
C184 C183 1.404 . S
C184 C185 1.389 . S
C185 H168 0.939 . S
C185 C180 1.400 . S
C185 C184 1.389 . S
C186 P160 1.819 . S
C186 C187 1.391 . S
C186 C191 1.391 . S
C187 H169 0.941 . S
C187 C186 1.391 . S
C187 C188 1.396 . S
C188 H172 0.939 . S
C188 C187 1.396 . S
C188 C189 1.397 . S
C189 C188 1.397 . S
C189 C190 1.385 . S
C190 H173 0.940 . S
C190 C189 1.385 . S
C190 C191 1.388 . S
C191 H170 0.939 . S
C191 C186 1.391 . S
C191 C190 1.388 . S
P192 O203 1.490 . S
P192 C206 1.812 1_554 S
P192 C212 1.803 . S
P192 C218 1.819 . S
H193 C207 0.941 . S
H194 C208 0.939 . S
H195 C210 0.940 . S
H196 C211 0.946 . S
H197 C213 0.939 . S
H198 C214 0.942 . S
H199 C216 0.940 . S
H200 C217 0.956 . S
H201 C219 0.941 . S
H202 C223 0.934 1_565 S
O203 P192 1.490 . S
H204 C220 0.939 . S
H205 C222 0.940 . S
C206 P192 1.812 1_556 S
C206 C207 1.389 . S
C206 C211 1.382 1_545 S
C207 H193 0.941 . S
C207 C206 1.389 . S
C207 C208 1.397 . S
C208 H194 0.939 . S
C208 C207 1.397 . S
C208 C209 1.378 . S
C209 C208 1.378 . S
C209 C210 1.378 1_545 S
C210 H195 0.940 . S
C210 C209 1.378 1_565 S
C210 C211 1.400 . S
C211 H196 0.946 . S
C211 C206 1.382 1_565 S
C211 C210 1.400 . S
C212 P192 1.803 . S
C212 C213 1.378 . S
C212 C217 1.377 1_545 S
C213 H197 0.939 . S
C213 C212 1.378 . S
C213 C214 1.361 . S
C214 H198 0.942 . S
C214 C213 1.361 . S
C214 C215 1.369 . S
C215 C214 1.369 . S
C215 C216 1.404 1_545 S
C216 H199 0.940 . S
C216 C215 1.404 1_565 S
C216 C217 1.397 . S
C217 H200 0.956 . S
C217 C212 1.377 1_565 S
C217 C216 1.397 . S
C218 P192 1.819 . S
C218 C219 1.391 . S
C218 C223 1.391 . S
C219 H201 0.941 . S
C219 C218 1.391 . S
C219 C220 1.396 . S
C220 H204 0.939 . S
C220 C219 1.396 . S
C220 C221 1.397 . S
C221 C220 1.397 . S
C221 C222 1.385 1_545 S
C222 H205 0.940 . S
C222 C221 1.385 1_565 S
C222 C223 1.388 1_565 S
C223 H202 0.934 1_545 S
C223 C218 1.391 . S
C223 C222 1.388 1_545 S
P224 O235 1.490 . S
P224 C238 1.812 1_554 S
P224 C244 1.803 . S
P224 C250 1.819 . S
H225 C239 0.941 . S
H226 C240 0.939 . S
H227 C242 0.940 . S
H228 C243 0.940 . S
H229 C245 0.939 . S
H230 C246 0.942 . S
H231 C248 0.940 . S
H232 C249 0.939 1_556 S
H233 C251 0.941 . S
H234 C255 0.939 . S
O235 P224 1.490 . S
H236 C252 0.939 . S
H237 C254 0.940 . S
C238 P224 1.812 1_556 S
C238 C239 1.389 . S
C238 C243 1.391 . S
C239 H225 0.941 . S
C239 C238 1.389 . S
C239 C240 1.397 . S
C240 H226 0.939 . S
C240 C239 1.397 . S
C240 C241 1.378 . S
C241 C240 1.378 . S
C241 C242 1.378 . S
C242 H227 0.940 . S
C242 C241 1.378 . S
C242 C243 1.396 . S
C243 H228 0.940 . S
C243 C238 1.391 . S
C243 C242 1.396 . S
C244 P224 1.803 . S
C244 C245 1.378 . S
C244 C249 1.400 . S
C245 H229 0.939 . S
C245 C244 1.378 . S
C245 C246 1.361 . S
C246 H230 0.942 . S
C246 C245 1.361 . S
C246 C247 1.369 . S
C247 C246 1.369 . S
C247 C248 1.404 . S
C248 H231 0.940 . S
C248 C247 1.404 . S
C248 C249 1.389 . S
C249 H232 0.939 1_554 S
C249 C244 1.400 . S
C249 C248 1.389 . S
C250 P224 1.819 . S
C250 C251 1.391 . S
C250 C255 1.391 . S
C251 H233 0.941 . S
C251 C250 1.391 . S
C251 C252 1.396 . S
C252 H236 0.939 . S
C252 C251 1.396 . S
C252 C253 1.397 . S
C253 C252 1.397 . S
C253 C254 1.385 . S
C254 H237 0.940 . S
C254 C253 1.385 . S
C254 C255 1.388 . S
C255 H234 0.939 . S
C255 C250 1.391 . S
C255 C254 1.388 . S
Dy256 O260 2.398 . S
Dy256 O261 2.491 1_455 S
Dy256 O262 2.403 . S
Dy256 O263 2.664 1_565 S
Dy256 O267 2.326 . S
Dy256 O271 2.310 1_455 S
Dy256 O272 2.351 1_565 S
C257 O268 1.185 1_455 S
C257 O269 1.355 . S
C258 O260 1.185 . S
C258 O261 1.355 1_455 S
Dy259 O263 2.310 1_655 S
Dy259 O266 2.351 1_545 S
Dy259 O268 2.398 . S
Dy259 O269 2.491 1_655 S
Dy259 O270 2.403 . S
Dy259 O271 2.664 1_545 S
Dy259 O273 2.326 1_655 S
O260 Dy256 2.398 . S
O260 C258 1.185 . S
O261 Dy256 2.491 1_655 S
O261 C258 1.355 1_655 S
O262 Dy256 2.403 . S
O262 C264 1.254 . S
O263 Dy256 2.664 1_545 S
O263 Dy259 2.310 1_455 S
O263 C264 1.268 1_545 S
C264 O262 1.254 . S
C264 O263 1.268 1_565 S
C265 O270 1.254 . S
C265 O271 1.268 1_545 S
O266 Dy259 2.351 1_565 S
O266 C274 1.249 . S
O267 Dy256 2.326 . S
O267 C274 1.267 1_455 S
O268 C257 1.185 1_655 S
O268 Dy259 2.398 . S
O269 C257 1.355 . S
O269 Dy259 2.491 1_455 S
O270 Dy259 2.403 . S
O270 C265 1.254 . S
O271 Dy256 2.310 1_655 S
O271 Dy259 2.664 1_565 S
O271 C265 1.268 1_565 S
O272 Dy256 2.351 1_545 S
O272 C275 1.249 . S
O273 Dy259 2.326 1_455 S
O273 C275 1.267 . S
C274 O266 1.249 . S
C274 O267 1.267 1_655 S
C275 O272 1.249 . S
C275 O273 1.267 . S
Dy276 O280 2.398 . S
Dy276 O281 2.491 . S
Dy276 O282 2.403 . S
Dy276 O283 2.664 . S
Dy276 O287 2.326 1_565 S
Dy276 O291 2.310 1_565 S
Dy276 O292 2.351 . S
C277 O288 1.185 . S
C277 O289 1.355 . S
C278 O280 1.185 . S
C278 O281 1.355 . S
Dy279 O283 2.310 1_545 S
Dy279 O286 2.351 . S
Dy279 O288 2.398 . S
Dy279 O289 2.491 . S
Dy279 O290 2.403 . S
Dy279 O291 2.664 . S
Dy279 O293 2.326 1_545 S
O280 Dy276 2.398 . S
O280 C278 1.185 . S
O281 Dy276 2.491 . S
O281 C278 1.355 . S
O282 Dy276 2.403 . S
O282 C284 1.254 . S
O283 Dy276 2.664 . S
O283 Dy279 2.310 1_565 S
O283 C284 1.268 . S
C284 O282 1.254 . S
C284 O283 1.268 . S
C285 O290 1.254 . S
C285 O291 1.268 . S
O286 Dy279 2.351 . S
O286 C294 1.249 . S
O287 Dy276 2.326 1_545 S
O287 C294 1.267 . S
O288 C277 1.185 . S
O288 Dy279 2.398 . S
O289 C277 1.355 . S
O289 Dy279 2.491 . S
O290 Dy279 2.403 . S
O290 C285 1.254 . S
O291 Dy276 2.310 1_545 S
O291 Dy279 2.664 . S
O291 C285 1.268 . S
O292 Dy276 2.351 . S
O292 C295 1.249 . S
O293 Dy279 2.326 1_565 S
O293 C295 1.267 . S
C294 O286 1.249 . S
C294 O287 1.267 . S
C295 O292 1.249 . S
C295 O293 1.267 . S
Dy296 O300 2.398 . S
Dy296 O301 2.491 . S
Dy296 O302 2.403 . S
Dy296 O303 2.664 . S
Dy296 O307 2.326 . S
Dy296 O311 2.310 . S
Dy296 O312 2.351 . S
C297 O308 1.185 . S
C297 O309 1.355 . S
C298 O300 1.185 . S
C298 O301 1.355 . S
Dy299 O303 2.310 . S
Dy299 O306 2.351 . S
Dy299 O308 2.398 . S
Dy299 O309 2.491 . S
Dy299 O310 2.403 . S
Dy299 O311 2.664 . S
Dy299 O313 2.326 . S
O300 Dy296 2.398 . S
O300 C298 1.185 . S
O301 Dy296 2.491 . S
O301 C298 1.355 . S
O302 Dy296 2.403 . S
O302 C304 1.254 . S
O303 Dy296 2.664 . S
O303 Dy299 2.310 . S
O303 C304 1.268 . S
C304 O302 1.254 . S
C304 O303 1.268 . S
C305 O310 1.254 . S
C305 O311 1.268 . S
O306 Dy299 2.351 . S
O306 C314 1.249 . S
O307 Dy296 2.326 . S
O307 C314 1.267 . S
O308 C297 1.185 . S
O308 Dy299 2.398 . S
O309 C297 1.355 . S
O309 Dy299 2.491 . S
O310 Dy299 2.403 . S
O310 C305 1.254 . S
O311 Dy296 2.310 . S
O311 Dy299 2.664 . S
O311 C305 1.268 . S
O312 Dy296 2.351 . S
O312 C315 1.249 . S
O313 Dy299 2.326 . S
O313 C315 1.267 . S
C314 O306 1.249 . S
C314 O307 1.267 . S
C315 O312 1.249 . S
C315 O313 1.267 . S
Dy316 O320 2.398 . S
Dy316 O321 2.491 . S
Dy316 O322 2.403 . S
Dy316 O323 2.664 1_655 S
Dy316 O327 2.326 . S
Dy316 O331 2.310 . S
Dy316 O332 2.351 1_655 S
C317 O328 1.185 . S
C317 O329 1.355 . S
C318 O320 1.185 . S
C318 O321 1.355 . S
Dy319 O323 2.310 . S
Dy319 O326 2.351 1_455 S
Dy319 O328 2.398 . S
Dy319 O329 2.491 . S
Dy319 O330 2.403 . S
Dy319 O331 2.664 1_455 S
Dy319 O333 2.326 . S
O320 Dy316 2.398 . S
O320 C318 1.185 . S
O321 Dy316 2.491 . S
O321 C318 1.355 . S
O322 Dy316 2.403 . S
O322 C324 1.254 1_655 S
O323 Dy316 2.664 1_455 S
O323 Dy319 2.310 . S
O323 C324 1.268 . S
C324 O322 1.254 1_455 S
C324 O323 1.268 . S
C325 O330 1.254 1_655 S
C325 O331 1.268 . S
O326 Dy319 2.351 1_655 S
O326 C334 1.249 . S
O327 Dy316 2.326 . S
O327 C334 1.267 . S
O328 C317 1.185 . S
O328 Dy319 2.398 . S
O329 C317 1.355 . S
O329 Dy319 2.491 . S
O330 Dy319 2.403 . S
O330 C325 1.254 1_455 S
O331 Dy316 2.310 . S
O331 Dy319 2.664 1_655 S
O331 C325 1.268 . S
O332 Dy316 2.351 1_455 S
O332 C335 1.249 . S
O333 Dy319 2.326 . S
O333 C335 1.267 . S
C334 O326 1.249 . S
C334 O327 1.267 . S
C335 O332 1.249 . S
C335 O333 1.267 . S
C336 C337 1.378 . S
C336 C338 1.419 . S
C336 H340 0.930 . S
C337 C336 1.378 . S
C337 C346 1.420 1_565 S
C338 C336 1.419 . S
C338 C339 1.363 . S
C338 H341 0.929 . S
C339 C338 1.363 . S
C339 C345 1.428 1_565 S
H340 C336 0.930 . S
H341 C338 0.929 . S
S342 N343 1.613 . S
S342 N344 1.610 . S
N343 S342 1.613 . S
N343 C346 1.350 . S
N344 S342 1.610 . S
N344 C345 1.351 . S
C345 C339 1.428 1_545 S
C345 N344 1.351 . S
C345 C346 1.434 . S
C346 C337 1.420 1_545 S
C346 N343 1.350 . S
C346 C345 1.434 . S
C347 C348 1.369 . S
C347 C349 1.419 . S
C347 H351 0.930 . S
C348 C347 1.369 . S
C348 C357 1.429 . S
C349 C347 1.419 . S
C349 C350 1.363 . S
C349 H352 0.929 . S
C350 C349 1.363 . S
C350 C356 1.428 . S
H351 C347 0.930 . S
H352 C349 0.929 . S
S353 N354 1.613 . S
S353 N355 1.610 . S
N354 S353 1.613 . S
N354 C357 1.350 . S
N355 S353 1.610 . S
N355 C356 1.351 . S
C356 C350 1.428 . S
C356 N355 1.351 . S
C356 C357 1.434 . S
C357 C348 1.429 . S
C357 N354 1.350 . S
C357 C356 1.434 . S
C358 C359 1.369 . S
C358 C360 1.419 . S
C358 H362 0.930 . S
C359 C358 1.369 . S
C359 C368 1.429 . S
C360 C358 1.419 . S
C360 C361 1.363 . S
C360 H363 0.929 . S
C361 C360 1.363 . S
C361 C367 1.428 . S
H362 C358 0.930 . S
H363 C360 0.929 . S
S364 N365 1.613 . S
S364 N366 1.610 . S
N365 S364 1.613 . S
N365 C368 1.350 . S
N366 S364 1.610 . S
N366 C367 1.351 . S
C367 C361 1.428 . S
C367 N366 1.351 . S
C367 C368 1.434 . S
C368 C359 1.429 . S
C368 N365 1.350 . S
C368 C367 1.434 . S
C369 C370 1.369 . S
C369 C371 1.419 . S
C369 H373 0.930 . S
C370 C369 1.369 . S
C370 C379 1.429 . S
C371 C369 1.419 . S
C371 C372 1.363 . S
C371 H374 0.929 1_455 S
C372 C371 1.363 . S
C372 C378 1.428 . S
H373 C369 0.930 . S
H374 C371 0.929 1_655 S
S375 N376 1.613 . S
S375 N377 1.610 . S
N376 S375 1.613 . S
N376 C379 1.350 . S
N377 S375 1.610 . S
N377 C378 1.351 . S
C378 C372 1.428 . S
C378 N377 1.351 . S
C378 C379 1.434 . S
C379 C370 1.429 . S
C379 N376 1.350 . S
C379 C378 1.434 . S
C380 C381 1.369 1_565 S
C380 C382 1.419 . S
C380 H384 0.930 . S
C381 C380 1.369 1_545 S
C381 C390 1.429 . S
C382 C380 1.419 . S
C382 C383 1.363 1_565 S
C382 H385 0.929 . S
C383 C382 1.363 1_545 S
C383 C389 1.428 . S
H384 C380 0.930 . S
H385 C382 0.929 . S
S386 N387 1.613 . S
S386 N388 1.610 . S
N387 S386 1.613 . S
N387 C390 1.350 . S
N388 S386 1.610 . S
N388 C389 1.351 . S
C389 C383 1.428 . S
C389 N388 1.351 . S
C389 C390 1.434 . S
C390 C381 1.429 . S
C390 N387 1.350 . S
C390 C389 1.434 . S
C391 C392 1.369 . S
C391 C393 1.419 . S
C391 H395 0.930 . S
C392 C391 1.369 . S
C392 C401 1.429 . S
C393 C391 1.419 . S
C393 C394 1.363 . S
C393 H396 0.929 . S
C394 C393 1.363 . S
C394 C400 1.428 . S
H395 C391 0.930 . S
H396 C393 0.929 . S
S397 N398 1.613 . S
S397 N399 1.610 . S
N398 S397 1.613 . S
N398 C401 1.350 . S
N399 S397 1.610 . S
N399 C400 1.351 . S
C400 C394 1.428 . S
C400 N399 1.351 . S
C400 C401 1.434 . S
C401 C392 1.429 . S
C401 N398 1.350 . S
C401 C400 1.434 . S
C402 C403 1.369 . S
C402 C404 1.419 . S
C402 H406 0.930 . S
C403 C402 1.369 . S
C403 C412 1.429 . S
C404 C402 1.419 . S
C404 C405 1.363 . S
C404 H407 0.929 . S
C405 C404 1.363 . S
C405 C411 1.428 . S
H406 C402 0.930 . S
H407 C404 0.929 . S
S408 N409 1.613 . S
S408 N410 1.610 . S
N409 S408 1.613 . S
N409 C412 1.350 . S
N410 S408 1.610 . S
N410 C411 1.351 . S
C411 C405 1.428 . S
C411 N410 1.351 . S
C411 C412 1.434 . S
C412 C403 1.429 . S
C412 N409 1.350 . S
C412 C411 1.434 . S
C413 C414 1.369 . S
C413 C415 1.419 . S
C413 H417 0.930 . S
C414 C413 1.369 . S
C414 C423 1.429 . S
C415 C413 1.419 . S
C415 C416 1.363 . S
C415 H418 0.929 1_655 S
C416 C415 1.363 . S
C416 C422 1.428 . S
H417 C413 0.930 . S
H418 C415 0.929 1_455 S
S419 N420 1.613 . S
S419 N421 1.610 . S
N420 S419 1.613 . S
N420 C423 1.350 . S
N421 S419 1.610 . S
N421 C422 1.351 . S
C422 C416 1.428 . S
C422 N421 1.351 . S
C422 C423 1.434 . S
C423 C414 1.429 . S
C423 N420 1.350 . S
C423 C422 1.434 . S
C424 C425 1.369 . S
C424 C426 1.419 . S
C424 H428 0.930 . S
C425 C424 1.369 . S
C425 C434 1.429 . S
C426 C424 1.419 . S
C426 C427 1.363 . S
C426 H429 0.929 . S
C427 C426 1.363 . S
C427 C433 1.428 . S
H428 C424 0.930 . S
H429 C426 0.929 . S
S430 N431 1.613 . S
S430 N432 1.610 . S
N431 S430 1.613 . S
N431 C434 1.350 . S
N432 S430 1.610 . S
N432 C433 1.351 . S
C433 C427 1.428 . S
C433 N432 1.351 . S
C433 C434 1.434 . S
C434 C425 1.429 . S
C434 N431 1.350 . S
C434 C433 1.434 . S
C435 C436 1.371 . S
C435 C437 1.419 . S
C435 H439 0.930 . S
C436 C435 1.371 . S
C436 C445 1.426 1_545 S
C437 C435 1.419 . S
C437 C438 1.363 1_545 S
C437 H440 0.929 . S
C438 C437 1.363 1_565 S
C438 C444 1.428 . S
H439 C435 0.930 . S
H440 C437 0.929 . S
S441 N442 1.613 . S
S441 N443 1.610 . S
N442 S441 1.613 . S
N442 C445 1.350 . S
N443 S441 1.610 . S
N443 C444 1.351 . S
C444 C438 1.428 . S
C444 N443 1.351 . S
C444 C445 1.434 . S
C445 C436 1.426 1_565 S
C445 N442 1.350 . S
C445 C444 1.434 . S
C446 C447 1.369 . S
C446 C448 1.419 . S
C446 H450 0.930 . S
C447 C446 1.369 . S
C447 C456 1.429 . S
C448 C446 1.419 . S
C448 C449 1.363 . S
C448 H451 0.929 . S
C449 C448 1.363 . S
C449 C455 1.428 . S
H450 C446 0.930 . S
H451 C448 0.929 . S
S452 N453 1.613 . S
S452 N454 1.610 . S
N453 S452 1.613 . S
N453 C456 1.350 . S
N454 S452 1.610 . S
N454 C455 1.351 . S
C455 C449 1.428 . S
C455 N454 1.351 . S
C455 C456 1.434 . S
C456 C447 1.429 . S
C456 N453 1.350 . S
C456 C455 1.434 . S
C457 C458 1.369 . S
C457 C459 1.419 . S
C457 H461 0.930 . S
C458 C457 1.369 . S
C458 C467 1.429 . S
C459 C457 1.419 . S
C459 C460 1.363 . S
C459 H462 0.929 . S
C460 C459 1.363 . S
C460 C466 1.428 . S
H461 C457 0.930 . S
H462 C459 0.929 . S
S463 N464 1.613 . S
S463 N465 1.610 . S
N464 S463 1.613 . S
N464 C467 1.350 . S
N465 S463 1.610 . S
N465 C466 1.351 . S
C466 C460 1.428 . S
C466 N465 1.351 . S
C466 C467 1.434 . S
C467 C458 1.429 . S
C467 N464 1.350 . S
C467 C466 1.434 . S
C468 C469 1.369 . S
C468 C470 1.434 . S
C468 H472 0.930 . S
C469 C468 1.369 . S
C469 C478 1.429 . S
C470 C468 1.434 . S
C470 C471 1.367 . S
C470 H473 0.909 1_655 S
C471 C470 1.367 . S
C471 C477 1.428 . S
H472 C468 0.930 . S
H473 C470 0.909 1_455 S
S474 N475 1.613 . S
S474 N476 1.610 . S
N475 S474 1.613 . S
N475 C478 1.350 . S
N476 S474 1.610 . S
N476 C477 1.351 . S
C477 C471 1.428 . S
C477 N476 1.351 . S
C477 C478 1.434 . S
C478 C469 1.429 . S
C478 N475 1.350 . S
C478 C477 1.434 . S
C479 C480 1.353 1_545 S
C479 C481 1.419 . S
C479 H483 0.930 . S
C480 C479 1.353 1_565 S
C480 C489 1.439 . S
C481 C479 1.419 . S
C481 C482 1.363 . S
C481 H484 0.929 . S
C482 C481 1.363 . S
C482 C488 1.428 1_545 S
H483 C479 0.930 . S
H484 C481 0.929 . S
S485 N486 1.613 . S
S485 N487 1.610 . S
N486 S485 1.613 . S
N486 C489 1.350 . S
N487 S485 1.610 . S
N487 C488 1.351 . S
C488 C482 1.428 1_565 S
C488 N487 1.351 . S
C488 C489 1.434 . S
C489 C480 1.439 . S
C489 N486 1.350 . S
C489 C488 1.434 . S
C490 C491 1.369 . S
C490 C492 1.419 . S
C490 H494 0.930 . S
C491 C490 1.369 . S
C491 C500 1.429 . S
C492 C490 1.419 . S
C492 C493 1.363 . S
C492 H495 0.929 . S
C493 C492 1.363 . S
C493 C499 1.428 . S
H494 C490 0.930 . S
H495 C492 0.929 . S
S496 N497 1.613 . S
S496 N498 1.610 . S
N497 S496 1.613 . S
N497 C500 1.350 . S
N498 S496 1.610 . S
N498 C499 1.351 . S
C499 C493 1.428 . S
C499 N498 1.351 . S
C499 C500 1.434 . S
C500 C491 1.429 . S
C500 N497 1.350 . S
C500 C499 1.434 . S
C501 C502 1.369 . S
C501 C503 1.419 . S
C501 H505 0.930 . S
C502 C501 1.369 . S
C502 C511 1.429 . S
C503 C501 1.419 . S
C503 C504 1.363 . S
C503 H506 0.929 . S
C504 C503 1.363 . S
C504 C510 1.428 . S
H505 C501 0.930 . S
H506 C503 0.929 . S
S507 N508 1.613 . S
S507 N509 1.610 . S
N508 S507 1.613 . S
N508 C511 1.350 . S
N509 S507 1.610 . S
N509 C510 1.351 . S
C510 C504 1.428 . S
C510 N509 1.351 . S
C510 C511 1.434 . S
C511 C502 1.429 . S
C511 N508 1.350 . S
C511 C510 1.434 . S
C512 C513 1.369 . S
C512 C514 1.419 . S
C512 H516 0.930 . S
C513 C512 1.369 . S
C513 C522 1.429 . S
C514 C512 1.419 . S
C514 C515 1.363 . S
C514 H517 0.929 . S
C515 C514 1.363 . S
C515 C521 1.428 . S
H516 C512 0.930 . S
H517 C514 0.929 . S
S518 N519 1.613 . S
S518 N520 1.610 . S
N519 S518 1.613 . S
N519 C522 1.350 . S
N520 S518 1.610 . S
N520 C521 1.351 . S
C521 C515 1.428 . S
C521 N520 1.351 . S
C521 C522 1.434 . S
C522 C513 1.429 . S
C522 N519 1.350 . S
C522 C521 1.434 . S
C523 C524 1.369 1_565 S
C523 C525 1.419 . S
C523 H527 0.930 . S
C524 C523 1.369 1_545 S
C524 C533 1.429 . S
C525 C523 1.419 . S
C525 C526 1.363 1_565 S
C525 H528 0.929 . S
C526 C525 1.363 1_545 S
C526 C532 1.428 . S
H527 C523 0.930 . S
H528 C525 0.929 . S
S529 N530 1.613 . S
S529 N531 1.610 . S
N530 S529 1.613 . S
N530 C533 1.350 . S
N531 S529 1.610 . S
N531 C532 1.351 . S
C532 C526 1.428 . S
C532 N531 1.351 . S
C532 C533 1.434 . S
C533 C524 1.429 . S
C533 N530 1.350 . S
C533 C532 1.434 . S
C534 C535 1.369 . S
C534 C536 1.419 . S
C534 H538 0.930 . S
C535 C534 1.369 . S
C535 C544 1.429 . S
C536 C534 1.419 . S
C536 C537 1.363 . S
C536 H539 0.929 . S
C537 C536 1.363 . S
C537 C543 1.428 . S
H538 C534 0.930 . S
H539 C536 0.929 . S
S540 N541 1.613 . S
S540 N542 1.610 . S
N541 S540 1.613 . S
N541 C544 1.350 . S
N542 S540 1.610 . S
N542 C543 1.351 . S
C543 C537 1.428 . S
C543 N542 1.351 . S
C543 C544 1.434 . S
C544 C535 1.429 . S
C544 N541 1.350 . S
C544 C543 1.434 . S
C545 C546 1.369 . S
C545 C547 1.419 . S
C545 H549 0.930 . S
C546 C545 1.369 . S
C546 C555 1.429 . S
C547 C545 1.419 . S
C547 C548 1.363 . S
C547 H550 0.929 . S
C548 C547 1.363 . S
C548 C554 1.428 . S
H549 C545 0.930 . S
H550 C547 0.929 . S
S551 N552 1.613 . S
S551 N553 1.610 . S
N552 S551 1.613 . S
N552 C555 1.350 . S
N553 S551 1.610 . S
N553 C554 1.351 . S
C554 C548 1.428 . S
C554 N553 1.351 . S
C554 C555 1.434 . S
C555 C546 1.429 . S
C555 N552 1.350 . S
C555 C554 1.434 . S
C556 C557 1.369 . S
C556 C558 1.419 . S
C556 H560 0.930 . S
C557 C556 1.369 . S
C557 C566 1.429 . S
C558 C556 1.419 . S
C558 C559 1.363 . S
C558 H561 0.929 1_655 S
C559 C558 1.363 . S
C559 C565 1.428 . S
H560 C556 0.930 . S
H561 C558 0.929 1_455 S
S562 N563 1.613 . S
S562 N564 1.610 . S
N563 S562 1.613 . S
N563 C566 1.350 . S
N564 S562 1.610 . S
N564 C565 1.351 . S
C565 C559 1.428 . S
C565 N564 1.351 . S
C565 C566 1.434 . S
C566 C557 1.429 . S
C566 N563 1.350 . S
C566 C565 1.434 . S
C567 C568 1.369 1_545 S
C567 C569 1.419 . S
C567 H571 0.930 . S
C568 C567 1.369 1_565 S
C568 C577 1.429 . S
C569 C567 1.419 . S
C569 C570 1.363 1_545 S
C569 H572 0.929 . S
C570 C569 1.363 1_565 S
C570 C576 1.428 . S
H571 C567 0.930 . S
H572 C569 0.929 . S
S573 N574 1.613 . S
S573 N575 1.610 . S
N574 S573 1.613 . S
N574 C577 1.350 . S
N575 S573 1.610 . S
N575 C576 1.351 . S
C576 C570 1.428 . S
C576 N575 1.351 . S
C576 C577 1.434 . S
C577 C568 1.429 . S
C577 N574 1.350 . S
C577 C576 1.434 . S
C578 C579 1.369 . S
C578 C580 1.419 . S
C578 H582 0.930 . S
C579 C578 1.369 . S
C579 C588 1.429 . S
C580 C578 1.419 . S
C580 C581 1.363 . S
C580 H583 0.929 . S
C581 C580 1.363 . S
C581 C587 1.428 . S
H582 C578 0.930 . S
H583 C580 0.929 . S
S584 N585 1.613 . S
S584 N586 1.610 . S
N585 S584 1.613 . S
N585 C588 1.350 . S
N586 S584 1.610 . S
N586 C587 1.351 . S
C587 C581 1.428 . S
C587 N586 1.351 . S
C587 C588 1.434 . S
C588 C579 1.429 . S
C588 N585 1.350 . S
C588 C587 1.434 . S
C589 C590 1.369 . S
C589 C591 1.419 . S
C589 H593 0.930 . S
C590 C589 1.369 . S
C590 C599 1.429 . S
C591 C589 1.419 . S
C591 C592 1.363 . S
C591 H594 0.929 . S
C592 C591 1.363 . S
C592 C598 1.428 . S
H593 C589 0.930 . S
H594 C591 0.929 . S
S595 N596 1.613 . S
S595 N597 1.610 . S
N596 S595 1.613 . S
N596 C599 1.350 . S
N597 S595 1.610 . S
N597 C598 1.351 . S
C598 C592 1.428 . S
C598 N597 1.351 . S
C598 C599 1.434 . S
C599 C590 1.429 . S
C599 N596 1.350 . S
C599 C598 1.434 . S
C337 C215 1.753 1_565 S
C339 C264 1.884 . S
C350 C294 2.245 . S
C348 C247 2.204 . S
C361 C304 1.943 . S
C359 C151 1.733 . S
C372 C324 1.862 . S
C370 C183 1.747 . S
C383 C265 1.883 . S
C381 C87 1.740 . S
C392 C119 2.020 1_556 S
C394 C295 2.246 . S
C403 C23 1.871 . S
C405 C305 1.941 . S
C414 C55 1.610 . S
C416 C325 1.860 . S
C427 C257 1.089 . S
C425 C189 1.108 . S
C438 C278 0.705 . S
C436 C221 0.727 . S
C449 C297 1.297 . S
C447 C253 1.299 . S
C458 C157 0.804 . S
C460 C317 0.813 . S
C469 C61 0.960 . S
C471 C258 1.093 1_655 S
C482 C277 0.709 . S
C480 C93 0.727 1_565 S
C493 C298 1.297 . S
C491 C125 1.067 . S
C502 C29 0.808 . S
C504 C318 0.812 . S
C513 C177 2.122 . S
C515 C275 2.310 . S
C524 C209 1.808 . S
C526 C285 2.096 . S
C537 C315 2.504 . S
C535 C241 2.303 . S
C548 C335 2.410 . S
C546 C145 2.114 . S
C557 C49 2.027 . S
C559 C274 2.318 . S
C570 C284 2.095 . S
C568 C81 1.835 1_565 S
C581 C314 2.506 . S
C579 C113 2.162 . S
C590 C17 2.256 . S
C592 C334 2.412 . S
