# Generated by pormake.
# Topology nom, (4,4)-cn, num edge types: 1
# Building blocks:
#     Node 0, Type 0, BuildingBlock: MUDLON_clean_linker_0, # of connection points: 4
#     Node 1, Type 0, BuildingBlock: MUDLON_clean_linker_0, # of connection points: 4
#     Node 2, Type 0, BuildingBlock: MUDLON_clean_linker_0, # of connection points: 4
#     Node 3, Type 0, BuildingBlock: MUDLON_clean_linker_0, # of connection points: 4
#     Node 4, Type 0, BuildingBlock: MUDLON_clean_linker_0, # of connection points: 4
#     Node 5, Type 0, BuildingBlock: MUDLON_clean_linker_0, # of connection points: 4
#     Node 6, Type 1, BuildingBlock: QUQFOY_clean_sbu_1, # of connection points: 4
#     Node 7, Type 1, BuildingBlock: QUQFOY_clean_sbu_1, # of connection points: 4
#     Node 8, Type 1, BuildingBlock: QUQFOY_clean_sbu_1, # of connection points: 4
#     Node 9, Type 1, BuildingBlock: QUQFOY_clean_sbu_1, # of connection points: 4
#     Node 10, Type 1, BuildingBlock: QUQFOY_clean_sbu_1, # of connection points: 4
#     Node 11, Type 1, BuildingBlock: QUQFOY_clean_sbu_1, # of connection points: 4
#     Edge 12, Type (0, 1), BuildingBlock: AJUNOK_clean_linker_0, # of connection points: 2
#     Edge 13, Type (0, 1), BuildingBlock: AJUNOK_clean_linker_0, # of connection points: 2
#     Edge 14, Type (0, 1), BuildingBlock: AJUNOK_clean_linker_0, # of connection points: 2
#     Edge 15, Type (0, 1), BuildingBlock: AJUNOK_clean_linker_0, # of connection points: 2
#     Edge 16, Type (0, 1), BuildingBlock: AJUNOK_clean_linker_0, # of connection points: 2
#     Edge 17, Type (0, 1), BuildingBlock: AJUNOK_clean_linker_0, # of connection points: 2
#     Edge 18, Type (0, 1), BuildingBlock: AJUNOK_clean_linker_0, # of connection points: 2
#     Edge 19, Type (0, 1), BuildingBlock: AJUNOK_clean_linker_0, # of connection points: 2
#     Edge 20, Type (0, 1), BuildingBlock: AJUNOK_clean_linker_0, # of connection points: 2
#     Edge 21, Type (0, 1), BuildingBlock: AJUNOK_clean_linker_0, # of connection points: 2
#     Edge 22, Type (0, 1), BuildingBlock: AJUNOK_clean_linker_0, # of connection points: 2
#     Edge 23, Type (0, 1), BuildingBlock: AJUNOK_clean_linker_0, # of connection points: 2
#     Edge 24, Type (0, 1), BuildingBlock: AJUNOK_clean_linker_0, # of connection points: 2
#     Edge 25, Type (0, 1), BuildingBlock: AJUNOK_clean_linker_0, # of connection points: 2
#     Edge 26, Type (0, 1), BuildingBlock: AJUNOK_clean_linker_0, # of connection points: 2
#     Edge 27, Type (0, 1), BuildingBlock: AJUNOK_clean_linker_0, # of connection points: 2
#     Edge 28, Type (0, 1), BuildingBlock: AJUNOK_clean_linker_0, # of connection points: 2
#     Edge 29, Type (0, 1), BuildingBlock: AJUNOK_clean_linker_0, # of connection points: 2
#     Edge 30, Type (0, 1), BuildingBlock: AJUNOK_clean_linker_0, # of connection points: 2
#     Edge 31, Type (0, 1), BuildingBlock: AJUNOK_clean_linker_0, # of connection points: 2
#     Edge 32, Type (0, 1), BuildingBlock: AJUNOK_clean_linker_0, # of connection points: 2
#     Edge 33, Type (0, 1), BuildingBlock: AJUNOK_clean_linker_0, # of connection points: 2
#     Edge 34, Type (0, 1), BuildingBlock: AJUNOK_clean_linker_0, # of connection points: 2
#     Edge 35, Type (0, 1), BuildingBlock: AJUNOK_clean_linker_0, # of connection points: 2
# Relax obj value: 0.010
# Max RMSD: 0.111
# Mean RMSD: 0.097
data_MOF--net-nom--node1-QUQFOY_clean_sbu_1--node2-MUDLON_clean_linker_0--edge1-AJUNOK_clean_linker_0
_symmetry_space_group_name_H-M    P1
_symmetry_Int_Tables_number       1
_symmetry_cell_setting            triclinic
loop_
_symmetry_equiv_pos_as_xyz
'x, y, z'
_cell_length_a     50.861481
_cell_length_b     51.743344
_cell_length_c     46.099746
_cell_angle_alpha  90.403239
_cell_angle_beta   89.779036
_cell_angle_gamma 120.50723
loop_
_atom_site_label
_atom_site_type_symbol
_atom_site_fract_x
_atom_site_fract_y
_atom_site_fract_z
_atom_type_partial_charge
H0 H 0.15231 0.58335 0.30407 0.0
N1 N 0.11525 0.60403 0.3239 0.0
H2 H 0.19696 0.61143 0.27394 0.0
H3 H 0.12547 0.64882 0.2889 0.0
H4 H 0.1687 0.67564 0.25585 0.0
H5 H 0.13564 0.64748 0.3634 0.0
H6 H 0.16362 0.65172 0.40789 0.0
H7 H 0.1247 0.56064 0.34627 0.0
H8 H 0.15515 0.56579 0.38921 0.0
H9 H 0.09466 0.55091 0.29445 0.0
H10 H 0.06631 0.60311 0.3445 0.0
H11 H 0.04128 0.5114 0.28827 0.0
H12 H 0.01318 0.56327 0.34009 0.0
H13 H 0.86235 0.38791 0.27467 0.0
H14 H 0.83889 0.37535 0.22645 0.0
H15 H 0.88626 0.46944 0.20485 0.0
H16 H 0.90866 0.48191 0.25297 0.0
H17 H 0.86877 0.47545 0.29143 0.0
H18 H 0.82525 0.46977 0.3188 0.0
H19 H 0.82684 0.40215 0.3718 0.0
H20 H 0.87106 0.40811 0.34417 0.0
H21 H 0.94394 0.43432 0.30459 0.0
H22 H 0.99764 0.47274 0.3115 0.0
H23 H 0.97324 0.54144 0.30717 0.0
N24 N 0.89661 0.44217 0.2977 0.0
H25 H 0.92013 0.50324 0.30199 0.0
C26 C 0.13596 0.61456 0.29956 0.0
C27 C 0.15536 0.60322 0.29344 0.0
C28 C 0.18085 0.61917 0.2756 0.0
C29 C 0.1868 0.64612 0.26252 0.0
C30 C 0.16527 0.65537 0.26606 0.0
C31 C 0.14033 0.63991 0.28466 0.0
C32 C 0.12879 0.60418 0.3513 0.0
C33 C 0.13952 0.62945 0.36924 0.0
C34 C 0.15593 0.632 0.39434 0.0
C35 C 0.16276 0.60966 0.40149 0.0
C36 C 0.15061 0.58357 0.38419 0.0
C37 C 0.13342 0.58068 0.3595 0.0
C38 C 0.08429 0.58021 0.31948 0.0
C39 C 0.07692 0.55385 0.3041 0.0
C40 C 0.04634 0.53111 0.30091 0.0
C41 C 0.02269 0.53411 0.31348 0.0
C42 C 0.0305 0.56035 0.3294 0.0
C43 C 0.06088 0.58312 0.33215 0.0
C44 C 0.88747 0.43571 0.26763 0.0
C45 C 0.86817 0.40573 0.25926 0.0
C46 C 0.85489 0.39861 0.2317 0.0
C47 C 0.86088 0.42144 0.21184 0.0
C48 C 0.88114 0.4514 0.21978 0.0
C49 C 0.89421 0.45852 0.24738 0.0
C50 C 0.87363 0.44244 0.31602 0.0
C51 C 0.86059 0.46008 0.30947 0.0
C52 C 0.83557 0.4568 0.32517 0.0
C53 C 0.82288 0.43574 0.34763 0.0
C54 C 0.8363 0.41863 0.35466 0.0
C55 C 0.86157 0.42212 0.33905 0.0
C56 C 0.92782 0.46561 0.30287 0.0
C57 C 0.95029 0.45771 0.30548 0.0
C58 C 0.98101 0.47975 0.3091 0.0
C59 C 0.98998 0.51035 0.30989 0.0
C60 C 0.96732 0.51817 0.30729 0.0
C61 C 0.93665 0.49614 0.30412 0.0
H62 H 0.47469 0.84988 0.48092 0.0
N63 N 0.473 0.89824 0.46538 0.0
H64 H 0.43611 0.80706 0.50819 0.0
H65 H 0.42776 0.89804 0.49917 0.0
H66 H 0.39061 0.85635 0.52836 0.0
H67 H 0.41553 0.87102 0.44204 0.0
H68 H 0.40013 0.8465 0.39481 0.0
H69 H 0.50918 0.89803 0.42353 0.0
H70 H 0.49391 0.87409 0.3755 0.0
H71 H 0.52241 0.94094 0.49216 0.0
H72 H 0.44123 0.92541 0.44752 0.0
H73 H 0.53827 0.99409 0.49808 0.0
H74 H 0.45705 0.97819 0.45304 0.0
H75 H 0.5813 0.12883 0.51404 0.0
H76 H 0.60465 0.15757 0.55847 0.0
H77 H 0.52218 0.15948 0.57665 0.0
H78 H 0.49858 0.12931 0.53316 0.0
H79 H 0.49407 0.13668 0.47359 0.0
H80 H 0.51401 0.18049 0.44231 0.0
H81 H 0.59686 0.17781 0.4299 0.0
H82 H 0.57681 0.13418 0.4621 0.0
H83 H 0.52979 0.07445 0.53319 0.0
H84 H 0.51924 0.02393 0.52514 0.0
H85 H 0.49835 0.02867 0.43547 0.0
N86 N 0.52396 0.11115 0.49384 0.0
H87 H 0.50931 0.07981 0.4431 0.0
C88 C 0.4542 0.87715 0.48754 0.0
C89 C 0.45671 0.85165 0.49171 0.0
C90 C 0.43461 0.82718 0.50737 0.0
C91 C 0.40968 0.82786 0.51979 0.0
C92 C 0.40881 0.85458 0.51807 0.0
C93 C 0.43048 0.87878 0.50169 0.0
C94 C 0.46368 0.88644 0.43634 0.0
C95 C 0.43291 0.87221 0.42758 0.0
C96 C 0.42412 0.85831 0.40045 0.0
C97 C 0.44586 0.8586 0.38137 0.0
C98 C 0.47667 0.87345 0.38984 0.0
C99 C 0.48546 0.88727 0.41709 0.0
C100 C 0.48087 0.92912 0.46923 0.0
C101 C 0.50804 0.94898 0.48366 0.0
C102 C 0.51704 0.97926 0.487 0.0
C103 C 0.49906 0.99036 0.47572 0.0
C104 C 0.47169 0.97042 0.46144 0.0
C105 C 0.46256 0.94011 0.45837 0.0
C106 C 0.53798 0.12661 0.52062 0.0
C107 C 0.56825 0.13526 0.52779 0.0
C108 C 0.58167 0.152 0.553 0.0
C109 C 0.56541 0.16113 0.57099 0.0
C110 C 0.53524 0.15253 0.56352 0.0
C111 C 0.52169 0.13534 0.5387 0.0
C112 C 0.53392 0.13233 0.4703 0.0
C113 C 0.5162 0.1451 0.46352 0.0
C114 C 0.52769 0.17015 0.44563 0.0
C115 C 0.55727 0.18299 0.43399 0.0
C116 C 0.5743 0.16889 0.43913 0.0
C117 C 0.56278 0.14381 0.45727 0.0
C118 C 0.5223 0.08256 0.48837 0.0
C119 C 0.5243 0.06562 0.51132 0.0
C120 C 0.51792 0.03627 0.50686 0.0
C121 C 0.50824 0.02239 0.47964 0.0
C122 C 0.50589 0.03884 0.45671 0.0
C123 C 0.51264 0.06839 0.46105 0.0
H124 H 0.46914 0.63498 0.63686 0.0
N125 N 0.47342 0.58634 0.64429 0.0
H126 H 0.43089 0.63906 0.60893 0.0
H127 H 0.43761 0.54711 0.59973 0.0
H128 H 0.40072 0.55194 0.57088 0.0
H129 H 0.41497 0.55588 0.66522 0.0
H130 H 0.39787 0.56264 0.71266 0.0
H131 H 0.50812 0.6198 0.68823 0.0
H132 H 0.49115 0.62618 0.73631 0.0
H133 H 0.52825 0.5939 0.63369 0.0
H134 H 0.43467 0.52552 0.64852 0.0
H135 H 0.54273 0.55555 0.63134 0.0
H136 H 0.44823 0.48696 0.64423 0.0
H137 H 0.58053 0.44658 0.60785 0.0
H138 H 0.60292 0.44029 0.56343 0.0
H139 H 0.51295 0.38844 0.52587 0.0
H140 H 0.49052 0.39366 0.57119 0.0
H141 H 0.49168 0.36299 0.63288 0.0
H142 H 0.51001 0.33817 0.66492 0.0
H143 H 0.58468 0.42455 0.69192 0.0
H144 H 0.56635 0.44923 0.65907 0.0
H145 H 0.55236 0.47795 0.59697 0.0
H146 H 0.54123 0.51771 0.60348 0.0
H147 H 0.47135 0.46385 0.66611 0.0
N148 N 0.51959 0.42065 0.61997 0.0
H149 H 0.48102 0.42287 0.65768 0.0
C150 C 0.45567 0.59026 0.6219 0.0
C151 C 0.45454 0.61685 0.62224 0.0
C152 C 0.43268 0.61921 0.60613 0.0
C153 C 0.41189 0.59529 0.58853 0.0
C154 C 0.41539 0.57015 0.58538 0.0
C155 C 0.43681 0.56745 0.60205 0.0
C156 C 0.46297 0.58741 0.67322 0.0
C157 C 0.43185 0.57082 0.68076 0.0
C158 C 0.42208 0.57465 0.70794 0.0
C159 C 0.44321 0.59479 0.72825 0.0
C160 C 0.47437 0.61061 0.721 0.0
C161 C 0.48412 0.6069 0.69372 0.0
C162 C 0.48042 0.56271 0.64073 0.0
C163 C 0.51075 0.57052 0.63585 0.0
C164 C 0.51891 0.54848 0.63444 0.0
C165 C 0.49671 0.5179 0.63752 0.0
C166 C 0.4662 0.51016 0.64236 0.0
C167 C 0.45824 0.53228 0.64444 0.0
C168 C 0.53371 0.42031 0.59286 0.0
C169 C 0.56559 0.4339 0.59009 0.0
C170 C 0.57841 0.43061 0.56452 0.0
C171 C 0.5597 0.41404 0.54108 0.0
C172 C 0.52791 0.40119 0.54364 0.0
C173 C 0.51509 0.4043 0.56934 0.0
C174 C 0.52766 0.40778 0.64349 0.0
C175 C 0.51155 0.37655 0.64627 0.0
C176 C 0.52209 0.36246 0.6646 0.0
C177 C 0.54908 0.37939 0.68063 0.0
C178 C 0.56418 0.4109 0.67936 0.0
C179 C 0.55359 0.42503 0.66086 0.0
C180 C 0.51725 0.44682 0.62668 0.0
C181 C 0.53469 0.4744 0.61225 0.0
C182 C 0.52842 0.49756 0.61619 0.0
C183 C 0.50505 0.49411 0.63507 0.0
C184 C 0.4889 0.46718 0.65071 0.0
C185 C 0.49471 0.4438 0.64627 0.0
H186 H 0.15591 0.58755 0.79775 0.0
N187 N 0.11323 0.52887 0.78607 0.0
H188 H 0.2007 0.60401 0.82806 0.0
H189 H 0.11921 0.49694 0.8277 0.0
H190 H 0.16275 0.51372 0.86039 0.0
H191 H 0.14198 0.50863 0.75331 0.0
H192 H 0.17037 0.53045 0.70844 0.0
H193 H 0.11499 0.57527 0.75575 0.0
H194 H 0.14218 0.59639 0.7104 0.0
H195 H 0.09541 0.56762 0.80578 0.0
H196 H 0.06257 0.47674 0.7778 0.0
H197 H 0.04277 0.55673 0.81075 0.0
H198 H 0.00993 0.46502 0.78396 0.0
H199 H 0.86228 0.4981 0.8389 0.0
H200 H 0.83752 0.48143 0.88639 0.0
H201 H 0.88149 0.42945 0.89776 0.0
H202 H 0.90531 0.44534 0.85015 0.0
H203 H 0.87748 0.42018 0.80651 0.0
H204 H 0.8319 0.38212 0.78145 0.0
H205 H 0.81767 0.45136 0.7466 0.0
H206 H 0.86266 0.48937 0.77318 0.0
H207 H 0.94479 0.51854 0.84314 0.0
H208 H 0.99752 0.53083 0.83835 0.0
H209 H 0.9733 0.47399 0.76234 0.0
N210 N 0.89623 0.47994 0.81121 0.0
H211 H 0.92071 0.46078 0.76764 0.0
C212 C 0.1346 0.54073 0.80983 0.0
C213 C 0.15689 0.57137 0.81174 0.0
C214 C 0.18246 0.58088 0.8295 0.0
C215 C 0.18564 0.56014 0.84652 0.0
C216 C 0.16141 0.53018 0.84708 0.0
C217 C 0.13633 0.52056 0.82868 0.0
C218 C 0.12616 0.54002 0.75781 0.0
C219 C 0.14165 0.52755 0.7438 0.0
C220 C 0.15785 0.54007 0.71825 0.0
C221 C 0.15883 0.56539 0.70611 0.0
C222 C 0.14243 0.57731 0.7196 0.0
C223 C 0.12643 0.56491 0.74534 0.0
C224 C 0.08273 0.52293 0.79122 0.0
C225 C 0.07679 0.54524 0.80097 0.0
C226 C 0.04665 0.53886 0.80396 0.0
C227 C 0.02193 0.50999 0.79755 0.0
C228 C 0.02822 0.48766 0.78846 0.0
C229 C 0.05827 0.49416 0.78521 0.0
C230 C 0.8856 0.47306 0.8409 0.0
C231 C 0.86685 0.48344 0.85187 0.0
C232 C 0.85276 0.47391 0.87892 0.0
C233 C 0.85717 0.45373 0.89549 0.0
C234 C 0.87707 0.44441 0.88511 0.0
C235 C 0.89094 0.45373 0.85801 0.0
C236 C 0.87331 0.45773 0.792 0.0
C237 C 0.86474 0.42725 0.79333 0.0
C238 C 0.83873 0.40549 0.7788 0.0
C239 C 0.82076 0.41365 0.76251 0.0
C240 C 0.83052 0.44427 0.75964 0.0
C241 C 0.85643 0.46604 0.77444 0.0
C242 C 0.92773 0.48724 0.807 0.0
C243 C 0.95061 0.50821 0.8257 0.0
C244 C 0.981 0.5156 0.82271 0.0
C245 C 0.98972 0.50297 0.80028 0.0
C246 C 0.9673 0.48333 0.78053 0.0
C247 C 0.93682 0.47568 0.78368 0.0
H248 H 0.55193 0.16662 0.9806 0.0
N249 N 0.5556 0.12021 0.96151 0.0
H250 H 0.59157 0.21082 0.00586 0.0
H251 H 0.60433 0.12286 0.99107 0.0
H252 H 0.64288 0.16604 0.0178 0.0
H253 H 0.60906 0.13736 0.93239 0.0
H254 H 0.62357 0.16156 0.88536 0.0
H255 H 0.52177 0.13173 0.92627 0.0
H256 H 0.53742 0.15907 0.88048 0.0
H257 H 0.50087 0.07768 0.97912 0.0
H258 H 0.58789 0.09146 0.95067 0.0
H259 H 0.48149 0.02378 0.98297 0.0
H260 H 0.56957 0.03859 0.95586 0.0
H261 H 0.43429 0.87561 0.00619 0.0
H262 H 0.41362 0.84772 0.05122 0.0
H263 H 0.50523 0.87839 0.08132 0.0
H264 H 0.52565 0.90513 0.03553 0.0
H265 H 0.52151 0.87508 0.97463 0.0
H266 H 0.50118 0.8305 0.94379 0.0
H267 H 0.42369 0.83983 0.92277 0.0
H268 H 0.44422 0.88446 0.95428 0.0
H269 H 0.47119 0.93642 0.01901 0.0
H270 H 0.48506 0.98784 0.01091 0.0
H271 H 0.53767 0.99123 0.93568 0.0
N272 N 0.49424 0.90514 0.98961 0.0
H273 H 0.52525 0.93999 0.94489 0.0
C274 C 0.57506 0.14144 0.98335 0.0
C275 C 0.57139 0.16607 0.98929 0.0
C276 C 0.5941 0.19134 0.00374 0.0
C277 C 0.62087 0.19233 0.01303 0.0
C278 C 0.62308 0.16643 0.00986 0.0
C279 C 0.60066 0.14139 0.99477 0.0
C280 C 0.56379 0.13183 0.93249 0.0
C281 C 0.59269 0.1407 0.92066 0.0
C282 C 0.60139 0.1555 0.89407 0.0
C283 C 0.582 0.16298 0.87937 0.0
C284 C 0.55289 0.15353 0.89103 0.0
C285 C 0.54386 0.13791 0.91719 0.0
C286 C 0.54586 0.08888 0.96495 0.0
C287 C 0.51591 0.06916 0.97408 0.0
C288 C 0.50493 0.03837 0.97633 0.0
C289 C 0.52388 0.02663 0.96965 0.0
C290 C 0.554 0.04654 0.9606 0.0
C291 C 0.56475 0.07718 0.95798 0.0
C292 C 0.48158 0.89206 0.01742 0.0
C293 C 0.4499 0.8763 0.02245 0.0
C294 C 0.43814 0.86055 0.04826 0.0
C295 C 0.4578 0.86036 0.06948 0.0
C296 C 0.4895 0.87744 0.06499 0.0
C297 C 0.50122 0.89298 0.03909 0.0
C298 C 0.48437 0.88289 0.96685 0.0
C299 C 0.50054 0.8679 0.9628 0.0
C300 C 0.48885 0.84246 0.94518 0.0
C301 C 0.46061 0.83141 0.93115 0.0
C302 C 0.44521 0.8475 0.93377 0.0
C303 C 0.457 0.87308 0.95154 0.0
C304 C 0.49703 0.93368 0.98242 0.0
C305 C 0.48534 0.9477 0.00044 0.0
C306 C 0.49324 0.97745 0.99572 0.0
C307 C 0.51282 0.99401 0.97283 0.0
C308 C 0.52314 0.97952 0.95398 0.0
C309 C 0.51563 0.94995 0.95894 0.0
H310 H 0.54664 0.38516 0.13314 0.0
N311 N 0.54925 0.43594 0.14795 0.0
H312 H 0.58539 0.37952 0.10748 0.0
H313 H 0.59579 0.47989 0.11448 0.0
H314 H 0.63348 0.47405 0.08741 0.0
H315 H 0.6062 0.46736 0.17221 0.0
H316 H 0.62132 0.45828 0.21935 0.0
H317 H 0.51278 0.39951 0.18919 0.0
H318 H 0.52769 0.39087 0.23713 0.0
H319 H 0.49614 0.42656 0.12815 0.0
H320 H 0.58352 0.49644 0.15942 0.0
H321 H 0.47926 0.46298 0.12346 0.0
H322 H 0.56761 0.53314 0.15353 0.0
H323 H 0.43449 0.5644 0.10458 0.0
H324 H 0.41125 0.56963 0.06045 0.0
H325 H 0.5009 0.63042 0.02592 0.0
H326 H 0.52393 0.62625 0.07098 0.0
H327 H 0.52478 0.6529 0.13255 0.0
H328 H 0.50722 0.67871 0.16479 0.0
H329 H 0.42844 0.59368 0.18761 0.0
H330 H 0.4464 0.56791 0.15512 0.0
H331 H 0.47325 0.54198 0.08734 0.0
H332 H 0.48588 0.50362 0.09547 0.0
H333 H 0.53623 0.55023 0.17251 0.0
N334 N 0.49531 0.59538 0.11815 0.0
H335 H 0.52489 0.58986 0.16352 0.0
C336 C 0.56805 0.43282 0.12613 0.0
C337 C 0.56505 0.4045 0.12244 0.0
C338 C 0.58722 0.4013 0.10758 0.0
C339 C 0.61266 0.42636 0.09533 0.0
C340 C 0.61438 0.45435 0.09693 0.0
C341 C 0.59251 0.45766 0.11235 0.0
C342 C 0.5582 0.43403 0.17717 0.0
C343 C 0.58877 0.45103 0.18639 0.0
C344 C 0.5974 0.4459 0.21345 0.0
C345 C 0.57565 0.42398 0.23201 0.0
C346 C 0.54495 0.40779 0.22319 0.0
C347 C 0.53636 0.41282 0.196 0.0
C348 C 0.54109 0.45864 0.1438 0.0
C349 C 0.51181 0.44985 0.13359 0.0
C350 C 0.50227 0.47077 0.13088 0.0
C351 C 0.52201 0.50114 0.13814 0.0
C352 C 0.55149 0.50992 0.14825 0.0
C353 C 0.56084 0.48892 0.1513 0.0
C354 C 0.48103 0.59525 0.09111 0.0
C355 C 0.44914 0.57886 0.08755 0.0
C356 C 0.43589 0.58155 0.06212 0.0
C357 C 0.45426 0.60031 0.03963 0.0
C358 C 0.48616 0.61597 0.04297 0.0
C359 C 0.49936 0.61348 0.06851 0.0
C360 C 0.48696 0.60865 0.1414 0.0
C361 C 0.50421 0.63979 0.14517 0.0
C362 C 0.49416 0.65444 0.16366 0.0
C363 C 0.46654 0.63817 0.17891 0.0
C364 C 0.4498 0.60674 0.17612 0.0
C365 C 0.46004 0.59202 0.15764 0.0
C366 C 0.49759 0.56922 0.12515 0.0
C367 C 0.48652 0.54411 0.10641 0.0
C368 C 0.49377 0.52178 0.11109 0.0
C369 C 0.51225 0.52373 0.13458 0.0
C370 C 0.5224 0.54815 0.15386 0.0
C371 C 0.51546 0.57068 0.14901 0.0
O372 O 0.59335 0.36642 0.42348 0.0
Cd373 Cd 0.60411 0.35037 0.38687 0.0
Cd374 Cd 0.65485 0.40487 0.38976 0.0
O375 O 0.63728 0.40856 0.4288 0.0
O376 O 0.57399 0.30647 0.38658 0.0
O377 O 0.6235 0.3251 0.39255 0.0
C378 C 0.59628 0.30197 0.39143 0.0
C379 C 0.7043 0.41313 0.38604 0.0
C380 C 0.61043 0.39036 0.43765 0.0
C381 C 0.61432 0.3927 0.33837 0.0
O382 O 0.63687 0.41228 0.35298 0.0
O383 O 0.59929 0.36572 0.3471 0.0
O384 O 0.69929 0.43504 0.38932 0.0
O385 O 0.68097 0.38619 0.38577 0.0
O386 O 0.23721 0.59816 0.58669 0.0
Cd387 Cd 0.26356 0.60802 0.55005 0.0
Cd388 Cd 0.26838 0.66226 0.55726 0.0
O389 O 0.24537 0.64357 0.59573 0.0
O390 O 0.27966 0.58012 0.54959 0.0
O391 O 0.30911 0.6294 0.55396 0.0
C392 C 0.30651 0.60322 0.55337 0.0
C393 C 0.30925 0.71154 0.55534 0.0
C394 C 0.23341 0.6161 0.60267 0.0
C395 C 0.23648 0.62523 0.50331 0.0
O396 O 0.24431 0.64847 0.51874 0.0
O397 O 0.24252 0.60539 0.51132 0.0
O398 O 0.28156 0.70568 0.55835 0.0
O399 O 0.31407 0.68931 0.55529 0.0
O400 O 0.64146 0.24228 0.76104 0.0
Cd401 Cd 0.65689 0.26761 0.72349 0.0
Cd402 Cd 0.60172 0.26293 0.72655 0.0
O403 O 0.59811 0.24219 0.76521 0.0
O404 O 0.70229 0.28707 0.72359 0.0
O405 O 0.67812 0.31236 0.72786 0.0
C406 C 0.70355 0.31241 0.72739 0.0
C407 C 0.59094 0.30157 0.7228 0.0
C408 C 0.61688 0.23496 0.77468 0.0
C409 C 0.61317 0.23402 0.67538 0.0
O410 O 0.59376 0.237 0.69016 0.0
O411 O 0.64077 0.24619 0.68374 0.0
O412 O 0.56961 0.27413 0.72668 0.0
O413 O 0.61878 0.30726 0.7221 0.0
O414 O 0.41902 0.64597 0.92288 0.0
Cd415 Cd 0.40915 0.66192 0.886 0.0
Cd416 Cd 0.35904 0.60584 0.88727 0.0
O417 O 0.37661 0.60207 0.92612 0.0
O418 O 0.44032 0.70543 0.88636 0.0
O419 O 0.39096 0.68849 0.8908 0.0
C420 C 0.41857 0.71098 0.8902 0.0
C421 C 0.30828 0.59362 0.88348 0.0
C422 C 0.40265 0.62133 0.93604 0.0
C423 C 0.40113 0.62078 0.8363 0.0
O424 O 0.3783 0.60054 0.84998 0.0
O425 O 0.41563 0.64742 0.84624 0.0
O426 O 0.31562 0.57322 0.88538 0.0
O427 O 0.32994 0.62136 0.88476 0.0
O428 O 0.78401 0.3816 0.01278 0.0
Cd429 Cd 0.76175 0.3598 0.05022 0.0
Cd430 Cd 0.76121 0.41161 0.05828 0.0
O431 O 0.7841 0.42388 0.01917 0.0
O432 O 0.7499 0.31738 0.04261 0.0
O433 O 0.71624 0.3318 0.04995 0.0
C434 C 0.72181 0.31059 0.04406 0.0
C435 C 0.71778 0.41549 0.06424 0.0
C436 C 0.79095 0.40753 0.00401 0.0
C437 C 0.79303 0.39525 0.10352 0.0
O438 O 0.78524 0.41377 0.09512 0.0
O439 O 0.78573 0.37179 0.08867 0.0
O440 O 0.74482 0.43874 0.06582 0.0
O441 O 0.71535 0.38981 0.05892 0.0
O442 O 0.4239 0.78033 0.18775 0.0
Cd443 Cd 0.41404 0.75525 0.22513 0.0
Cd444 Cd 0.3636 0.76306 0.2223 0.0
O445 O 0.38231 0.78328 0.18333 0.0
O446 O 0.44636 0.7443 0.2255 0.0
O447 O 0.39744 0.71063 0.22085 0.0
C448 C 0.42539 0.7167 0.22187 0.0
C449 C 0.31158 0.72807 0.22581 0.0
C450 C 0.40812 0.78881 0.1738 0.0
C451 C 0.40587 0.78966 0.27367 0.0
O452 O 0.38351 0.78749 0.25943 0.0
O453 O 0.42001 0.77681 0.26456 0.0
O454 O 0.32151 0.7564 0.22381 0.0
O455 O 0.33127 0.71933 0.22482 0.0
C456 C 0.232 0.69759 0.2558 0.0
C457 C 0.21722 0.6667 0.24924 0.0
C458 C 0.26203 0.71727 0.24702 0.0
C459 C 0.2789 0.70691 0.23179 0.0
H460 H 0.22084 0.70662 0.26898 0.0
H461 H 0.27254 0.74063 0.25342 0.0
S462 S 0.2501 0.62911 0.20583 0.0
N463 N 0.22095 0.6274 0.22352 0.0
N464 N 0.27811 0.66436 0.20831 0.0
C465 C 0.26429 0.67639 0.2241 0.0
C466 C 0.23333 0.65633 0.23251 0.0
C467 C 0.55279 0.21749 0.3991 0.0
C468 C 0.57067 0.21237 0.41887 0.0
C469 C 0.56216 0.24638 0.389 0.0
C470 C 0.58996 0.27131 0.39797 0.0
H471 H 0.53072 0.19919 0.39233 0.0
H472 H 0.54692 0.24932 0.37487 0.0
S473 S 0.64634 0.26986 0.44773 0.0
N474 N 0.61832 0.23461 0.44589 0.0
N475 N 0.63631 0.28874 0.42617 0.0
C476 C 0.60905 0.26629 0.41615 0.0
C477 C 0.59933 0.23686 0.42676 0.0
C478 C 0.38847 0.6221 0.56395 0.0
C479 C 0.38508 0.59563 0.57602 0.0
C480 C 0.36301 0.62412 0.55578 0.0
C481 C 0.33317 0.59963 0.55902 0.0
H482 H 0.41097 0.64168 0.56143 0.0
H483 H 0.36674 0.64521 0.54735 0.0
S484 S 0.31166 0.52518 0.58943 0.0
N485 N 0.34927 0.54444 0.59096 0.0
N486 N 0.30169 0.54788 0.57463 0.0
C487 C 0.32947 0.57269 0.57007 0.0
C488 C 0.35533 0.57076 0.57877 0.0
C489 C 0.78893 0.36465 0.73642 0.0
C490 C 0.79103 0.38993 0.75033 0.0
C491 C 0.76065 0.34025 0.72802 0.0
C492 C 0.73327 0.34014 0.73305 0.0
H493 H 0.80928 0.3634 0.73257 0.0
H494 H 0.76026 0.32101 0.71812 0.0
S495 S 0.72623 0.40124 0.76797 0.0
N496 N 0.76319 0.41355 0.76832 0.0
N497 N 0.71018 0.36808 0.75188 0.0
C498 C 0.73511 0.36579 0.74585 0.0
C499 C 0.76393 0.39057 0.75464 0.0
C500 C 0.46496 0.7954 0.89785 0.0
C501 C 0.44674 0.80189 0.91602 0.0
C502 C 0.45481 0.76613 0.88814 0.0
C503 C 0.42592 0.74216 0.89601 0.0
H504 H 0.48784 0.81289 0.89215 0.0
H505 H 0.47027 0.76209 0.8753 0.0
S506 S 0.36828 0.74756 0.94105 0.0
N507 N 0.3976 0.78221 0.94002 0.0
N508 N 0.37823 0.72724 0.92115 0.0
C509 C 0.40658 0.74863 0.91244 0.0
C510 C 0.41705 0.77849 0.92258 0.0
C511 C 0.66884 0.44598 0.09288 0.0
C512 C 0.63908 0.42413 0.08441 0.0
C513 C 0.69407 0.44326 0.08557 0.0
C514 C 0.69064 0.41836 0.06982 0.0
H515 H 0.67269 0.46493 0.10618 0.0
H516 H 0.71635 0.46042 0.0932 0.0
S517 S 0.61817 0.35634 0.03982 0.0
N518 N 0.60803 0.37798 0.05713 0.0
N519 N 0.65544 0.37237 0.04423 0.0
C520 C 0.66119 0.3967 0.06048 0.0
C521 C 0.63545 0.39969 0.06759 0.0
C522 C 0.38866 0.78 0.54835 0.0
C523 C 0.38349 0.79983 0.53181 0.0
C524 C 0.3645 0.75175 0.55664 0.0
C525 C 0.33419 0.74248 0.54921 0.0
H526 H 0.41166 0.78608 0.55442 0.0
H527 H 0.36964 0.73691 0.56864 0.0
S528 S 0.30812 0.78527 0.50556 0.0
N529 N 0.34548 0.80743 0.50762 0.0
N530 N 0.3002 0.75515 0.52437 0.0
C531 C 0.32854 0.76234 0.53346 0.0
C532 C 0.35312 0.79081 0.52452 0.0
C533 C 0.5432 0.33797 0.71274 0.0
C534 C 0.56232 0.36357 0.69626 0.0
C535 C 0.55331 0.319 0.72273 0.0
C536 C 0.58304 0.32494 0.7168 0.0
H537 H 0.51975 0.33182 0.71689 0.0
H538 H 0.53724 0.29886 0.73421 0.0
S539 S 0.64305 0.39057 0.67677 0.0
N540 N 0.61307 0.39491 0.67599 0.0
N541 N 0.63233 0.35964 0.6954 0.0
C542 C 0.60311 0.35159 0.7021 0.0
C543 C 0.5927 0.37082 0.69169 0.0
C544 C 0.22691 0.54861 0.85648 0.0
C545 C 0.21567 0.56837 0.85976 0.0
C546 C 0.25637 0.55668 0.86533 0.0
C547 C 0.27623 0.58506 0.87745 0.0
H548 H 0.21334 0.52709 0.84582 0.0
H549 H 0.26403 0.54086 0.86145 0.0
S550 S 0.25716 0.64394 0.894 0.0
N551 N 0.22591 0.61662 0.8788 0.0
N552 N 0.28192 0.63222 0.89445 0.0
C553 C 0.26511 0.60475 0.88188 0.0
C554 C 0.23476 0.59632 0.87325 0.0
C555 C 0.64315 0.24043 0.04177 0.0
C556 C 0.64743 0.22125 0.02301 0.0
C557 C 0.66737 0.26917 0.04886 0.0
C558 C 0.69685 0.27965 0.03774 0.0
H559 H 0.6208 0.23335 0.05074 0.0
H560 H 0.66293 0.28332 0.06302 0.0
S561 S 0.72001 0.23897 0.9867 0.0
N562 N 0.68336 0.21554 0.99252 0.0
N563 N 0.72893 0.26888 0.00671 0.0
C564 C 0.70159 0.26057 0.01937 0.0
C565 C 0.6769 0.23155 0.01181 0.0
C566 C 0.42453 0.64891 0.18894 0.0
C567 C 0.45411 0.6546 0.19506 0.0
C568 C 0.41449 0.66802 0.19938 0.0
C569 C 0.43376 0.69355 0.21615 0.0
H570 H 0.40971 0.63067 0.17453 0.0
H571 H 0.39221 0.66376 0.19275 0.0
S572 S 0.51108 0.71499 0.24272 0.0
N573 N 0.5008 0.68496 0.22237 0.0
N574 N 0.48222 0.72108 0.24166 0.0
C575 C 0.46247 0.6981 0.22424 0.0
C576 C 0.47258 0.67858 0.21377 0.0
C577 C 0.76865 0.40071 0.36213 0.0
C578 C 0.7941 0.42997 0.3617 0.0
C579 C 0.73995 0.39527 0.37131 0.0
C580 C 0.73562 0.41889 0.38043 0.0
H581 H 0.77059 0.38205 0.354 0.0
H582 H 0.72081 0.37251 0.3701 0.0
S583 S 0.79621 0.49907 0.3873 0.0
N584 N 0.81401 0.48236 0.37402 0.0
N585 N 0.76022 0.47236 0.39127 0.0
C586 C 0.76138 0.44804 0.38172 0.0
C587 C 0.79055 0.45352 0.37232 0.0
C588 C 0.17544 0.58959 0.44546 0.0
C589 C 0.18277 0.61371 0.42668 0.0
C590 C 0.19357 0.59317 0.46973 0.0
C591 C 0.21931 0.62111 0.47635 0.0
H592 H 0.15517 0.56793 0.44179 0.0
H593 H 0.18679 0.57422 0.48395 0.0
S594 S 0.2506 0.69039 0.43268 0.0
N595 N 0.21969 0.66572 0.41497 0.0
N596 N 0.2526 0.67267 0.46147 0.0
C597 C 0.22737 0.64518 0.45753 0.0
C598 C 0.20939 0.64143 0.43249 0.0
C599 C 0.56176 0.17228 0.62323 0.0
C600 C 0.5793 0.17929 0.59771 0.0
C601 C 0.57315 0.19001 0.6482 0.0
C602 C 0.60277 0.21518 0.64893 0.0
H603 H 0.53887 0.15298 0.6239 0.0
H604 H 0.55859 0.18388 0.66717 0.0
S605 S 0.65811 0.24359 0.58815 0.0
N606 N 0.62781 0.21371 0.57466 0.0
N607 N 0.64963 0.24631 0.62224 0.0
C608 C 0.62096 0.22213 0.62395 0.0
C609 C 0.60915 0.20434 0.5982 0.0
C610 C 0.44314 0.6303 0.76527 0.0
C611 C 0.4326 0.60061 0.75625 0.0
C612 C 0.43277 0.63654 0.79109 0.0
C613 C 0.41135 0.61333 0.80891 0.0
H614 H 0.4592 0.64892 0.75202 0.0
H615 H 0.44148 0.65981 0.79694 0.0
S616 S 0.37807 0.53162 0.79577 0.0
N617 N 0.40072 0.54774 0.7677 0.0
N618 N 0.38081 0.55929 0.81607 0.0
C619 C 0.40083 0.58347 0.80024 0.0
C620 C 0.41154 0.57716 0.77397 0.0
C621 C 0.83908 0.46086 0.94396 0.0
C622 C 0.84013 0.44154 0.92299 0.0
C623 C 0.82297 0.44969 0.97001 0.0
C624 C 0.80735 0.41876 0.97607 0.0
H625 H 0.85109 0.48485 0.94037 0.0
H626 H 0.8231 0.46549 0.98563 0.0
S627 S 0.80086 0.35853 0.92699 0.0
N628 N 0.82254 0.38988 0.90909 0.0
N629 N 0.7927 0.36886 0.95809 0.0
C630 C 0.80786 0.39917 0.95501 0.0
C631 C 0.82413 0.41055 0.92848 0.0
C632 C 0.42198 0.84233 0.11189 0.0
C633 C 0.44519 0.84166 0.09582 0.0
C634 C 0.40978 0.82482 0.13683 0.0
C635 C 0.42044 0.80609 0.14669 0.0
H636 H 0.41346 0.85682 0.10537 0.0
H637 H 0.39225 0.82643 0.14873 0.0
S638 S 0.47886 0.7941 0.11068 0.0
N639 N 0.47677 0.81906 0.09026 0.0
N640 N 0.45435 0.78662 0.13738 0.0
C641 C 0.44325 0.80479 0.13047 0.0
C642 C 0.4555 0.82246 0.105 0.0
C643 C 0.57518 0.38666 0.26653 0.0
C644 C 0.58525 0.41672 0.25967 0.0
C645 C 0.58477 0.37915 0.29193 0.0
C646 C 0.60493 0.40142 0.31144 0.0
H647 H 0.56014 0.36876 0.2519 0.0
H648 H 0.57648 0.35567 0.29611 0.0
S649 S 0.63635 0.48348 0.30436 0.0
N650 N 0.6152 0.46882 0.27507 0.0
N651 N 0.63368 0.4549 0.32261 0.0
C652 C 0.61494 0.43162 0.30496 0.0
C653 C 0.60501 0.43921 0.27915 0.0
C654 C 0.44624 0.82231 0.34541 0.0
C655 C 0.43615 0.84214 0.35331 0.0
C656 C 0.43635 0.80547 0.31967 0.0
C657 C 0.41588 0.80774 0.30084 0.0
H658 H 0.46149 0.81933 0.35951 0.0
H659 H 0.44459 0.79033 0.31471 0.0
S660 S 0.38447 0.85829 0.3107 0.0
N661 N 0.40599 0.86445 0.3396 0.0
N662 N 0.38698 0.83262 0.29143 0.0
C663 C 0.40597 0.82789 0.30833 0.0
C664 C 0.41618 0.84512 0.33449 0.0
C665 C 0.56029 0.37975 0.50293 0.0
C666 C 0.57309 0.40887 0.51456 0.0
C667 C 0.57266 0.37402 0.47822 0.0
C668 C 0.59848 0.39715 0.46423 0.0
H669 H 0.54071 0.3611 0.5132 0.0
H670 H 0.56197 0.35117 0.47017 0.0
S671 S 0.63959 0.47773 0.48518 0.0
N672 N 0.61218 0.46138 0.50956 0.0
N673 N 0.63588 0.45061 0.46341 0.0
C674 C 0.61149 0.42645 0.47561 0.0
C675 C 0.59871 0.4323 0.50068 0.0
C676 C 0.17557 0.56102 0.65616 0.0
C677 C 0.1773 0.57931 0.67962 0.0
C678 C 0.19371 0.57323 0.63146 0.0
C679 C 0.21424 0.6043 0.62906 0.0
H680 H 0.16003 0.537 0.65687 0.0
H681 H 0.19147 0.5581 0.61402 0.0
S682 S 0.2282 0.6619 0.68491 0.0
N683 N 0.20183 0.63001 0.69935 0.0
N684 N 0.23549 0.65311 0.65255 0.0
C685 C 0.21604 0.62295 0.65226 0.0
C686 C 0.19767 0.61043 0.67759 0.0
C687 C 0.57139 0.17423 0.82937 0.0
C688 C 0.59212 0.18122 0.8524 0.0
C689 C 0.57966 0.19184 0.80436 0.0
C690 C 0.60918 0.21669 0.80108 0.0
H691 H 0.54852 0.15497 0.83064 0.0
H692 H 0.56289 0.18578 0.7873 0.0
S693 S 0.67176 0.2457 0.85492 0.0
N694 N 0.64323 0.21606 0.87059 0.0
N695 N 0.6591 0.24795 0.82265 0.0
C696 C 0.63033 0.22382 0.82352 0.0
C697 C 0.62174 0.20637 0.84939 0.0
C698 C 0.45095 0.63398 0.00301 0.0
C699 C 0.44032 0.60478 0.01328 0.0
C700 C 0.43841 0.63904 0.97823 0.0
C701 C 0.41455 0.61511 0.96279 0.0
H702 H 0.469 0.65318 0.01435 0.0
H703 H 0.44746 0.66197 0.97123 0.0
S704 S 0.37936 0.53419 0.97998 0.0
N705 N 0.40527 0.55147 0.00555 0.0
N706 N 0.38118 0.56096 0.95927 0.0
C707 C 0.40357 0.58575 0.97288 0.0
C708 C 0.41656 0.58059 -0.00196 0.0
C709 C 0.83022 0.43063 0.17558 0.0
C710 C 0.84429 0.41441 0.18381 0.0
C711 C 0.8138 0.42424 0.14965 0.0
C712 C 0.81065 0.40127 0.13085 0.0
H713 H 0.83151 0.44818 0.18953 0.0
H714 H 0.80327 0.43734 0.14449 0.0
S715 S 0.84448 0.35309 0.14186 0.0
N716 N 0.85506 0.37514 0.17075 0.0
N717 N 0.82387 0.36274 0.12206 0.0
C718 C 0.8248 0.38494 0.13876 0.0
C719 C 0.84164 0.39157 0.16521 0.0
loop_
_geom_bond_atom_site_label_1
_geom_bond_atom_site_label_2
_geom_bond_distance
_geom_bond_site_symmetry_2
_ccdc_geom_bond_type
H0 C27 0.929 . S
N1 C26 1.433 . S
N1 C32 1.435 . S
N1 C38 1.423 . S
H2 C28 0.930 . S
H3 C31 0.931 . S
H4 C30 0.929 . S
H5 C33 0.930 . S
H6 C34 0.932 . S
H7 C37 0.929 . S
H8 C36 0.931 . S
H9 C39 0.929 . S
H10 C43 0.932 . S
H11 C40 0.931 . S
H12 C42 0.929 . S
H13 C45 0.929 . S
H14 C46 0.930 . S
H15 C48 0.929 . S
H16 C49 0.931 . S
H17 C51 0.930 . S
H18 C52 0.932 . S
H19 C54 0.931 . S
H20 C55 0.929 . S
H21 C57 0.929 . S
H22 C58 0.931 . S
H23 C60 0.929 . S
N24 C44 1.433 . S
N24 C50 1.435 . S
N24 C56 1.423 . S
H25 C61 0.932 . S
C26 N1 1.433 . S
C26 C27 1.363 . S
C26 C31 1.370 . S
C27 H0 0.929 . S
C27 C26 1.363 . S
C27 C28 1.385 . S
C28 H2 0.930 . S
C28 C27 1.385 . S
C28 C29 1.357 . S
C29 C28 1.357 . S
C29 C30 1.406 . S
C30 H4 0.929 . S
C30 C29 1.406 . S
C30 C31 1.391 . S
C31 H3 0.931 . S
C31 C26 1.370 . S
C31 C30 1.391 . S
C32 N1 1.435 . S
C32 C33 1.358 . S
C32 C37 1.371 . S
C33 H5 0.930 . S
C33 C32 1.358 . S
C33 C34 1.405 . S
C34 H6 0.932 . S
C34 C33 1.405 . S
C34 C35 1.383 . S
C35 C34 1.383 . S
C35 C36 1.393 . S
C36 H8 0.931 . S
C36 C35 1.393 . S
C36 C37 1.382 . S
C37 H7 0.929 . S
C37 C32 1.371 . S
C37 C36 1.382 . S
C38 N1 1.423 . S
C38 C39 1.362 . S
C38 C43 1.388 . S
C39 H9 0.929 . S
C39 C38 1.362 . S
C39 C40 1.376 . S
C40 H11 0.931 . S
C40 C39 1.376 . S
C40 C41 1.396 . S
C41 C40 1.396 . S
C41 C42 1.348 . S
C41 C59 1.472 1_455 S
C42 H12 0.929 . S
C42 C41 1.348 . S
C42 C43 1.443 . S
C43 H10 0.932 . S
C43 C38 1.388 . S
C43 C42 1.443 . S
C44 N24 1.433 . S
C44 C45 1.363 . S
C44 C49 1.370 . S
C45 H13 0.929 . S
C45 C44 1.363 . S
C45 C46 1.385 . S
C46 H14 0.930 . S
C46 C45 1.385 . S
C46 C47 1.357 . S
C47 C46 1.357 . S
C47 C48 1.406 . S
C48 H15 0.929 . S
C48 C47 1.406 . S
C48 C49 1.391 . S
C49 H16 0.931 . S
C49 C44 1.370 . S
C49 C48 1.391 . S
C50 N24 1.435 . S
C50 C51 1.358 . S
C50 C55 1.371 . S
C51 H17 0.930 . S
C51 C50 1.358 . S
C51 C52 1.405 . S
C52 H18 0.932 . S
C52 C51 1.405 . S
C52 C53 1.383 . S
C53 C52 1.383 . S
C53 C54 1.393 . S
C54 H19 0.931 . S
C54 C53 1.393 . S
C54 C55 1.382 . S
C55 H20 0.929 . S
C55 C50 1.371 . S
C55 C54 1.382 . S
C56 N24 1.423 . S
C56 C57 1.362 . S
C56 C61 1.388 . S
C57 H21 0.929 . S
C57 C56 1.362 . S
C57 C58 1.376 . S
C58 H22 0.931 . S
C58 C57 1.376 . S
C58 C59 1.396 . S
C59 C41 1.472 1_655 S
C59 C58 1.396 . S
C59 C60 1.348 . S
C60 H23 0.929 . S
C60 C59 1.348 . S
C60 C61 1.443 . S
C61 H25 0.932 . S
C61 C56 1.388 . S
C61 C60 1.443 . S
H62 C89 0.929 . S
N63 C88 1.433 . S
N63 C94 1.435 . S
N63 C100 1.423 . S
H64 C90 0.930 . S
H65 C93 0.931 . S
H66 C92 0.929 . S
H67 C95 0.930 . S
H68 C96 0.932 . S
H69 C99 0.929 . S
H70 C98 0.931 . S
H71 C101 0.929 . S
H72 C105 0.932 . S
H73 C102 0.931 . S
H74 C104 0.917 1_545 S
H75 C107 0.929 . S
H76 C108 0.930 . S
H77 C110 0.929 . S
H78 C111 0.931 . S
H79 C113 0.930 . S
H80 C114 0.932 . S
H81 C116 0.931 . S
H82 C117 0.929 . S
H83 C119 0.929 . S
H84 C120 0.931 . S
H85 C122 0.929 . S
N86 C106 1.433 . S
N86 C112 1.435 . S
N86 C118 1.423 . S
H87 C123 0.932 . S
C88 N63 1.433 . S
C88 C89 1.363 . S
C88 C93 1.370 . S
C89 H62 0.929 . S
C89 C88 1.363 . S
C89 C90 1.385 . S
C90 H64 0.930 . S
C90 C89 1.385 . S
C90 C91 1.357 . S
C91 C90 1.357 . S
C91 C92 1.406 . S
C92 H66 0.929 . S
C92 C91 1.406 . S
C92 C93 1.391 . S
C93 H65 0.931 . S
C93 C88 1.370 . S
C93 C92 1.391 . S
C94 N63 1.435 . S
C94 C95 1.358 . S
C94 C99 1.371 . S
C95 H67 0.930 . S
C95 C94 1.358 . S
C95 C96 1.405 . S
C96 H68 0.932 . S
C96 C95 1.405 . S
C96 C97 1.383 . S
C97 C96 1.383 . S
C97 C98 1.393 . S
C98 H70 0.931 . S
C98 C97 1.393 . S
C98 C99 1.382 . S
C99 H69 0.929 . S
C99 C94 1.371 . S
C99 C98 1.382 . S
C100 N63 1.423 . S
C100 C101 1.362 . S
C100 C105 1.388 . S
C101 H71 0.929 . S
C101 C100 1.362 . S
C101 C102 1.376 . S
C102 H73 0.931 . S
C102 C101 1.376 . S
C102 C103 1.396 . S
C103 C102 1.396 . S
C103 C104 1.348 . S
C103 C121 1.472 1_565 S
C104 H74 0.917 1_565 S
C104 C103 1.348 . S
C104 C105 1.443 . S
C105 H72 0.932 . S
C105 C100 1.388 . S
C105 C104 1.443 . S
C106 N86 1.433 . S
C106 C107 1.363 . S
C106 C111 1.370 . S
C107 H75 0.929 . S
C107 C106 1.363 . S
C107 C108 1.385 . S
C108 H76 0.930 . S
C108 C107 1.385 . S
C108 C109 1.357 . S
C109 C108 1.357 . S
C109 C110 1.406 . S
C110 H77 0.929 . S
C110 C109 1.406 . S
C110 C111 1.391 . S
C111 H78 0.931 . S
C111 C106 1.370 . S
C111 C110 1.391 . S
C112 N86 1.435 . S
C112 C113 1.358 . S
C112 C117 1.371 . S
C113 H79 0.930 . S
C113 C112 1.358 . S
C113 C114 1.405 . S
C114 H80 0.932 . S
C114 C113 1.405 . S
C114 C115 1.383 . S
C115 C114 1.383 . S
C115 C116 1.393 . S
C116 H81 0.931 . S
C116 C115 1.393 . S
C116 C117 1.382 . S
C117 H82 0.929 . S
C117 C112 1.371 . S
C117 C116 1.382 . S
C118 N86 1.423 . S
C118 C119 1.362 . S
C118 C123 1.388 . S
C119 H83 0.929 . S
C119 C118 1.362 . S
C119 C120 1.376 . S
C120 H84 0.931 . S
C120 C119 1.376 . S
C120 C121 1.396 . S
C121 C103 1.472 1_545 S
C121 C120 1.396 . S
C121 C122 1.348 . S
C122 H85 0.929 . S
C122 C121 1.348 . S
C122 C123 1.443 . S
C123 H87 0.932 . S
C123 C118 1.388 . S
C123 C122 1.443 . S
H124 C151 0.929 . S
N125 C150 1.433 . S
N125 C156 1.435 . S
N125 C162 1.423 . S
H126 C152 0.930 . S
H127 C155 0.931 . S
H128 C154 0.929 . S
H129 C157 0.930 . S
H130 C158 0.932 . S
H131 C161 0.929 . S
H132 C160 0.931 . S
H133 C163 0.929 . S
H134 C167 0.932 . S
H135 C164 0.931 . S
H136 C166 0.929 . S
H137 C169 0.929 . S
H138 C170 0.930 . S
H139 C172 0.929 . S
H140 C173 0.931 . S
H141 C175 0.930 . S
H142 C176 0.932 . S
H143 C178 0.931 . S
H144 C179 0.929 . S
H145 C181 0.929 . S
H146 C182 0.931 . S
H147 C184 0.929 . S
N148 C168 1.433 . S
N148 C174 1.435 . S
N148 C180 1.423 . S
H149 C185 0.932 . S
C150 N125 1.433 . S
C150 C151 1.363 . S
C150 C155 1.370 . S
C151 H124 0.929 . S
C151 C150 1.363 . S
C151 C152 1.385 . S
C152 H126 0.930 . S
C152 C151 1.385 . S
C152 C153 1.357 . S
C153 C152 1.357 . S
C153 C154 1.406 . S
C154 H128 0.929 . S
C154 C153 1.406 . S
C154 C155 1.391 . S
C155 H127 0.931 . S
C155 C150 1.370 . S
C155 C154 1.391 . S
C156 N125 1.435 . S
C156 C157 1.358 . S
C156 C161 1.371 . S
C157 H129 0.930 . S
C157 C156 1.358 . S
C157 C158 1.405 . S
C158 H130 0.932 . S
C158 C157 1.405 . S
C158 C159 1.383 . S
C159 C158 1.383 . S
C159 C160 1.393 . S
C160 H132 0.931 . S
C160 C159 1.393 . S
C160 C161 1.382 . S
C161 H131 0.929 . S
C161 C156 1.371 . S
C161 C160 1.382 . S
C162 N125 1.423 . S
C162 C163 1.362 . S
C162 C167 1.388 . S
C163 H133 0.929 . S
C163 C162 1.362 . S
C163 C164 1.376 . S
C164 H135 0.931 . S
C164 C163 1.376 . S
C164 C165 1.396 . S
C165 C164 1.396 . S
C165 C166 1.348 . S
C165 C183 1.472 . S
C166 H136 0.929 . S
C166 C165 1.348 . S
C166 C167 1.443 . S
C167 H134 0.932 . S
C167 C162 1.388 . S
C167 C166 1.443 . S
C168 N148 1.433 . S
C168 C169 1.363 . S
C168 C173 1.370 . S
C169 H137 0.929 . S
C169 C168 1.363 . S
C169 C170 1.385 . S
C170 H138 0.930 . S
C170 C169 1.385 . S
C170 C171 1.357 . S
C171 C170 1.357 . S
C171 C172 1.406 . S
C172 H139 0.929 . S
C172 C171 1.406 . S
C172 C173 1.391 . S
C173 H140 0.931 . S
C173 C168 1.370 . S
C173 C172 1.391 . S
C174 N148 1.435 . S
C174 C175 1.358 . S
C174 C179 1.371 . S
C175 H141 0.930 . S
C175 C174 1.358 . S
C175 C176 1.405 . S
C176 H142 0.932 . S
C176 C175 1.405 . S
C176 C177 1.383 . S
C177 C176 1.383 . S
C177 C178 1.393 . S
C178 H143 0.931 . S
C178 C177 1.393 . S
C178 C179 1.382 . S
C179 H144 0.929 . S
C179 C174 1.371 . S
C179 C178 1.382 . S
C180 N148 1.423 . S
C180 C181 1.362 . S
C180 C185 1.388 . S
C181 H145 0.929 . S
C181 C180 1.362 . S
C181 C182 1.376 . S
C182 H146 0.931 . S
C182 C181 1.376 . S
C182 C183 1.396 . S
C183 C165 1.472 . S
C183 C182 1.396 . S
C183 C184 1.348 . S
C184 H147 0.929 . S
C184 C183 1.348 . S
C184 C185 1.443 . S
C185 H149 0.932 . S
C185 C180 1.388 . S
C185 C184 1.443 . S
H186 C213 0.929 . S
N187 C212 1.433 . S
N187 C218 1.435 . S
N187 C224 1.423 . S
H188 C214 0.930 . S
H189 C217 0.931 . S
H190 C216 0.929 . S
H191 C219 0.930 . S
H192 C220 0.932 . S
H193 C223 0.929 . S
H194 C222 0.931 . S
H195 C225 0.929 . S
H196 C229 0.932 . S
H197 C226 0.931 . S
H198 C228 0.929 . S
H199 C231 0.929 . S
H200 C232 0.930 . S
H201 C234 0.929 . S
H202 C235 0.931 . S
H203 C237 0.930 . S
H204 C238 0.932 . S
H205 C240 0.931 . S
H206 C241 0.929 . S
H207 C243 0.929 . S
H208 C244 0.931 . S
H209 C246 0.929 . S
N210 C230 1.433 . S
N210 C236 1.435 . S
N210 C242 1.423 . S
H211 C247 0.932 . S
C212 N187 1.433 . S
C212 C213 1.363 . S
C212 C217 1.370 . S
C213 H186 0.929 . S
C213 C212 1.363 . S
C213 C214 1.385 . S
C214 H188 0.930 . S
C214 C213 1.385 . S
C214 C215 1.357 . S
C215 C214 1.357 . S
C215 C216 1.406 . S
C216 H190 0.929 . S
C216 C215 1.406 . S
C216 C217 1.391 . S
C217 H189 0.931 . S
C217 C212 1.370 . S
C217 C216 1.391 . S
C218 N187 1.435 . S
C218 C219 1.358 . S
C218 C223 1.371 . S
C219 H191 0.930 . S
C219 C218 1.358 . S
C219 C220 1.405 . S
C220 H192 0.932 . S
C220 C219 1.405 . S
C220 C221 1.383 . S
C221 C220 1.383 . S
C221 C222 1.393 . S
C222 H194 0.931 . S
C222 C221 1.393 . S
C222 C223 1.382 . S
C223 H193 0.929 . S
C223 C218 1.371 . S
C223 C222 1.382 . S
C224 N187 1.423 . S
C224 C225 1.362 . S
C224 C229 1.388 . S
C225 H195 0.929 . S
C225 C224 1.362 . S
C225 C226 1.376 . S
C226 H197 0.931 . S
C226 C225 1.376 . S
C226 C227 1.396 . S
C227 C226 1.396 . S
C227 C228 1.348 . S
C227 C245 1.472 1_455 S
C228 H198 0.929 . S
C228 C227 1.348 . S
C228 C229 1.443 . S
C229 H196 0.932 . S
C229 C224 1.388 . S
C229 C228 1.443 . S
C230 N210 1.433 . S
C230 C231 1.363 . S
C230 C235 1.370 . S
C231 H199 0.929 . S
C231 C230 1.363 . S
C231 C232 1.385 . S
C232 H200 0.930 . S
C232 C231 1.385 . S
C232 C233 1.357 . S
C233 C232 1.357 . S
C233 C234 1.406 . S
C234 H201 0.929 . S
C234 C233 1.406 . S
C234 C235 1.391 . S
C235 H202 0.931 . S
C235 C230 1.370 . S
C235 C234 1.391 . S
C236 N210 1.435 . S
C236 C237 1.358 . S
C236 C241 1.371 . S
C237 H203 0.930 . S
C237 C236 1.358 . S
C237 C238 1.405 . S
C238 H204 0.932 . S
C238 C237 1.405 . S
C238 C239 1.383 . S
C239 C238 1.383 . S
C239 C240 1.393 . S
C240 H205 0.931 . S
C240 C239 1.393 . S
C240 C241 1.382 . S
C241 H206 0.929 . S
C241 C236 1.371 . S
C241 C240 1.382 . S
C242 N210 1.423 . S
C242 C243 1.362 . S
C242 C247 1.388 . S
C243 H207 0.929 . S
C243 C242 1.362 . S
C243 C244 1.376 . S
C244 H208 0.931 . S
C244 C243 1.376 . S
C244 C245 1.396 . S
C245 C227 1.472 1_655 S
C245 C244 1.396 . S
C245 C246 1.348 . S
C246 H209 0.929 . S
C246 C245 1.348 . S
C246 C247 1.443 . S
C247 H211 0.932 . S
C247 C242 1.388 . S
C247 C246 1.443 . S
H248 C275 0.929 . S
N249 C274 1.433 . S
N249 C280 1.435 . S
N249 C286 1.423 . S
H250 C276 0.930 . S
H251 C279 0.931 . S
H252 C278 0.929 . S
H253 C281 0.930 . S
H254 C282 0.932 . S
H255 C285 0.929 . S
H256 C284 0.931 . S
H257 C287 0.929 . S
H258 C291 0.932 . S
H259 C288 0.931 . S
H260 C290 0.929 . S
H261 C293 0.929 . S
H262 C294 0.930 . S
H263 C296 0.929 . S
H264 C297 0.931 . S
H265 C299 0.930 1_554 S
H266 C300 0.932 . S
H267 C302 0.931 . S
H268 C303 0.929 . S
H269 C305 0.929 . S
H270 C306 0.931 1_554 S
H271 C308 0.929 . S
N272 C292 1.433 . S
N272 C298 1.435 1_554 S
N272 C304 1.423 1_554 S
H273 C309 0.932 . S
C274 N249 1.433 . S
C274 C275 1.363 . S
C274 C279 1.370 . S
C275 H248 0.929 . S
C275 C274 1.363 . S
C275 C276 1.385 . S
C276 H250 0.930 . S
C276 C275 1.385 . S
C276 C277 1.357 1_556 S
C277 C276 1.357 1_554 S
C277 C278 1.406 . S
C278 H252 0.929 . S
C278 C277 1.406 . S
C278 C279 1.391 1_554 S
C279 H251 0.931 . S
C279 C274 1.370 . S
C279 C278 1.391 1_556 S
C280 N249 1.435 . S
C280 C281 1.358 . S
C280 C285 1.371 . S
C281 H253 0.930 . S
C281 C280 1.358 . S
C281 C282 1.405 . S
C282 H254 0.932 . S
C282 C281 1.405 . S
C282 C283 1.383 . S
C283 C282 1.383 . S
C283 C284 1.393 . S
C284 H256 0.931 . S
C284 C283 1.393 . S
C284 C285 1.382 . S
C285 H255 0.929 . S
C285 C280 1.371 . S
C285 C284 1.382 . S
C286 N249 1.423 . S
C286 C287 1.362 . S
C286 C291 1.388 . S
C287 H257 0.929 . S
C287 C286 1.362 . S
C287 C288 1.376 . S
C288 H259 0.931 . S
C288 C287 1.376 . S
C288 C289 1.396 . S
C289 C288 1.396 . S
C289 C290 1.348 . S
C289 C307 1.472 1_545 S
C290 H260 0.929 . S
C290 C289 1.348 . S
C290 C291 1.443 . S
C291 H258 0.932 . S
C291 C286 1.388 . S
C291 C290 1.443 . S
C292 N272 1.433 . S
C292 C293 1.363 . S
C292 C297 1.370 . S
C293 H261 0.929 . S
C293 C292 1.363 . S
C293 C294 1.385 . S
C294 H262 0.930 . S
C294 C293 1.385 . S
C294 C295 1.357 . S
C295 C294 1.357 . S
C295 C296 1.406 . S
C296 H263 0.929 . S
C296 C295 1.406 . S
C296 C297 1.391 . S
C297 H264 0.931 . S
C297 C292 1.370 . S
C297 C296 1.391 . S
C298 N272 1.435 1_556 S
C298 C299 1.358 . S
C298 C303 1.371 . S
C299 H265 0.930 1_556 S
C299 C298 1.358 . S
C299 C300 1.405 . S
C300 H266 0.932 . S
C300 C299 1.405 . S
C300 C301 1.383 . S
C301 C300 1.383 . S
C301 C302 1.393 . S
C302 H267 0.931 . S
C302 C301 1.393 . S
C302 C303 1.382 . S
C303 H268 0.929 . S
C303 C298 1.371 . S
C303 C302 1.382 . S
C304 N272 1.423 1_556 S
C304 C305 1.362 1_556 S
C304 C309 1.388 . S
C305 H269 0.929 . S
C305 C304 1.362 1_554 S
C305 C306 1.376 1_554 S
C306 H270 0.931 1_556 S
C306 C305 1.376 1_556 S
C306 C307 1.396 . S
C307 C289 1.472 1_565 S
C307 C306 1.396 . S
C307 C308 1.348 . S
C308 H271 0.929 . S
C308 C307 1.348 . S
C308 C309 1.443 . S
C309 H273 0.932 . S
C309 C304 1.388 . S
C309 C308 1.443 . S
H310 C337 0.929 . S
N311 C336 1.433 . S
N311 C342 1.435 . S
N311 C348 1.423 . S
H312 C338 0.930 . S
H313 C341 0.931 . S
H314 C340 0.929 . S
H315 C343 0.930 . S
H316 C344 0.932 . S
H317 C347 0.929 . S
H318 C346 0.931 . S
H319 C349 0.929 . S
H320 C353 0.932 . S
H321 C350 0.931 . S
H322 C352 0.929 . S
H323 C355 0.929 . S
H324 C356 0.930 . S
H325 C358 0.929 . S
H326 C359 0.931 . S
H327 C361 0.930 . S
H328 C362 0.932 . S
H329 C364 0.931 . S
H330 C365 0.929 . S
H331 C367 0.929 . S
H332 C368 0.931 . S
H333 C370 0.929 . S
N334 C354 1.433 . S
N334 C360 1.435 . S
N334 C366 1.423 . S
H335 C371 0.932 . S
C336 N311 1.433 . S
C336 C337 1.363 . S
C336 C341 1.370 . S
C337 H310 0.929 . S
C337 C336 1.363 . S
C337 C338 1.385 . S
C338 H312 0.930 . S
C338 C337 1.385 . S
C338 C339 1.357 . S
C339 C338 1.357 . S
C339 C340 1.406 . S
C340 H314 0.929 . S
C340 C339 1.406 . S
C340 C341 1.391 . S
C341 H313 0.931 . S
C341 C336 1.370 . S
C341 C340 1.391 . S
C342 N311 1.435 . S
C342 C343 1.358 . S
C342 C347 1.371 . S
C343 H315 0.930 . S
C343 C342 1.358 . S
C343 C344 1.405 . S
C344 H316 0.932 . S
C344 C343 1.405 . S
C344 C345 1.383 . S
C345 C344 1.383 . S
C345 C346 1.393 . S
C346 H318 0.931 . S
C346 C345 1.393 . S
C346 C347 1.382 . S
C347 H317 0.929 . S
C347 C342 1.371 . S
C347 C346 1.382 . S
C348 N311 1.423 . S
C348 C349 1.362 . S
C348 C353 1.388 . S
C349 H319 0.929 . S
C349 C348 1.362 . S
C349 C350 1.376 . S
C350 H321 0.931 . S
C350 C349 1.376 . S
C350 C351 1.396 . S
C351 C350 1.396 . S
C351 C352 1.348 . S
C351 C369 1.472 . S
C352 H322 0.929 . S
C352 C351 1.348 . S
C352 C353 1.443 . S
C353 H320 0.932 . S
C353 C348 1.388 . S
C353 C352 1.443 . S
C354 N334 1.433 . S
C354 C355 1.363 . S
C354 C359 1.370 . S
C355 H323 0.929 . S
C355 C354 1.363 . S
C355 C356 1.385 . S
C356 H324 0.930 . S
C356 C355 1.385 . S
C356 C357 1.357 . S
C357 C356 1.357 . S
C357 C358 1.406 . S
C358 H325 0.929 . S
C358 C357 1.406 . S
C358 C359 1.391 . S
C359 H326 0.931 . S
C359 C354 1.370 . S
C359 C358 1.391 . S
C360 N334 1.435 . S
C360 C361 1.358 . S
C360 C365 1.371 . S
C361 H327 0.930 . S
C361 C360 1.358 . S
C361 C362 1.405 . S
C362 H328 0.932 . S
C362 C361 1.405 . S
C362 C363 1.383 . S
C363 C362 1.383 . S
C363 C364 1.393 . S
C364 H329 0.931 . S
C364 C363 1.393 . S
C364 C365 1.382 . S
C365 H330 0.929 . S
C365 C360 1.371 . S
C365 C364 1.382 . S
C366 N334 1.423 . S
C366 C367 1.362 . S
C366 C371 1.388 . S
C367 H331 0.929 . S
C367 C366 1.362 . S
C367 C368 1.376 . S
C368 H332 0.931 . S
C368 C367 1.376 . S
C368 C369 1.396 . S
C369 C351 1.472 . S
C369 C368 1.396 . S
C369 C370 1.348 . S
C370 H333 0.929 . S
C370 C369 1.348 . S
C370 C371 1.443 . S
C371 H335 0.932 . S
C371 C366 1.388 . S
C371 C370 1.443 . S
O372 Cd373 2.223 . S
O372 C380 1.315 . S
Cd373 O372 2.223 . S
Cd373 O376 2.297 . S
Cd373 O377 2.439 . S
Cd373 O383 2.240 . S
Cd374 O375 2.240 . S
Cd374 O382 2.223 . S
Cd374 O384 2.297 . S
Cd374 O385 2.439 . S
O375 Cd374 2.240 . S
O375 C380 1.279 . S
O376 Cd373 2.297 . S
O376 C378 1.247 . S
O377 Cd373 2.439 . S
O377 C378 1.208 . S
C378 O376 1.247 . S
C378 O377 1.208 . S
C379 O384 1.247 . S
C379 O385 1.208 . S
C380 O372 1.315 . S
C380 O375 1.279 . S
C381 O382 1.315 . S
C381 O383 1.279 . S
O382 Cd374 2.223 . S
O382 C381 1.315 . S
O383 Cd373 2.240 . S
O383 C381 1.279 . S
O384 Cd374 2.297 . S
O384 C379 1.247 . S
O385 Cd374 2.439 . S
O385 C379 1.208 . S
O386 Cd387 2.223 . S
O386 C394 1.315 . S
Cd387 O386 2.223 . S
Cd387 O390 2.297 . S
Cd387 O391 2.439 . S
Cd387 O397 2.240 . S
Cd388 O389 2.240 . S
Cd388 O396 2.223 . S
Cd388 O398 2.297 . S
Cd388 O399 2.439 . S
O389 Cd388 2.240 . S
O389 C394 1.279 . S
O390 Cd387 2.297 . S
O390 C392 1.247 . S
O391 Cd387 2.439 . S
O391 C392 1.208 . S
C392 O390 1.247 . S
C392 O391 1.208 . S
C393 O398 1.247 . S
C393 O399 1.208 . S
C394 O386 1.315 . S
C394 O389 1.279 . S
C395 O396 1.315 . S
C395 O397 1.279 . S
O396 Cd388 2.223 . S
O396 C395 1.315 . S
O397 Cd387 2.240 . S
O397 C395 1.279 . S
O398 Cd388 2.297 . S
O398 C393 1.247 . S
O399 Cd388 2.439 . S
O399 C393 1.208 . S
O400 Cd401 2.223 . S
O400 C408 1.315 . S
Cd401 O400 2.223 . S
Cd401 O404 2.297 . S
Cd401 O405 2.439 . S
Cd401 O411 2.240 . S
Cd402 O403 2.240 . S
Cd402 O410 2.223 . S
Cd402 O412 2.297 . S
Cd402 O413 2.439 . S
O403 Cd402 2.240 . S
O403 C408 1.279 . S
O404 Cd401 2.297 . S
O404 C406 1.247 . S
O405 Cd401 2.439 . S
O405 C406 1.208 . S
C406 O404 1.247 . S
C406 O405 1.208 . S
C407 O412 1.247 . S
C407 O413 1.208 . S
C408 O400 1.315 . S
C408 O403 1.279 . S
C409 O410 1.315 . S
C409 O411 1.279 . S
O410 Cd402 2.223 . S
O410 C409 1.315 . S
O411 Cd401 2.240 . S
O411 C409 1.279 . S
O412 Cd402 2.297 . S
O412 C407 1.247 . S
O413 Cd402 2.439 . S
O413 C407 1.208 . S
O414 Cd415 2.223 . S
O414 C422 1.315 . S
Cd415 O414 2.223 . S
Cd415 O418 2.297 . S
Cd415 O419 2.439 . S
Cd415 O425 2.240 . S
Cd416 O417 2.240 . S
Cd416 O424 2.223 . S
Cd416 O426 2.297 . S
Cd416 O427 2.439 . S
O417 Cd416 2.240 . S
O417 C422 1.279 . S
O418 Cd415 2.297 . S
O418 C420 1.247 . S
O419 Cd415 2.439 . S
O419 C420 1.208 . S
C420 O418 1.247 . S
C420 O419 1.208 . S
C421 O426 1.247 . S
C421 O427 1.208 . S
C422 O414 1.315 . S
C422 O417 1.279 . S
C423 O424 1.315 . S
C423 O425 1.279 . S
O424 Cd416 2.223 . S
O424 C423 1.315 . S
O425 Cd415 2.240 . S
O425 C423 1.279 . S
O426 Cd416 2.297 . S
O426 C421 1.247 . S
O427 Cd416 2.439 . S
O427 C421 1.208 . S
O428 Cd429 2.223 . S
O428 C436 1.315 . S
Cd429 O428 2.223 . S
Cd429 O432 2.297 . S
Cd429 O433 2.439 . S
Cd429 O439 2.240 . S
Cd430 O431 2.240 . S
Cd430 O438 2.223 . S
Cd430 O440 2.297 . S
Cd430 O441 2.439 . S
O431 Cd430 2.240 . S
O431 C436 1.279 . S
O432 Cd429 2.297 . S
O432 C434 1.247 . S
O433 Cd429 2.439 . S
O433 C434 1.208 . S
C434 O432 1.247 . S
C434 O433 1.208 . S
C435 O440 1.247 . S
C435 O441 1.208 . S
C436 O428 1.315 . S
C436 O431 1.279 . S
C437 O438 1.315 . S
C437 O439 1.279 . S
O438 Cd430 2.223 . S
O438 C437 1.315 . S
O439 Cd429 2.240 . S
O439 C437 1.279 . S
O440 Cd430 2.297 . S
O440 C435 1.247 . S
O441 Cd430 2.439 . S
O441 C435 1.208 . S
O442 Cd443 2.223 . S
O442 C450 1.315 . S
Cd443 O442 2.223 . S
Cd443 O446 2.297 . S
Cd443 O447 2.439 . S
Cd443 O453 2.240 . S
Cd444 O445 2.240 . S
Cd444 O452 2.223 . S
Cd444 O454 2.297 . S
Cd444 O455 2.439 . S
O445 Cd444 2.240 . S
O445 C450 1.279 . S
O446 Cd443 2.297 . S
O446 C448 1.247 . S
O447 Cd443 2.439 . S
O447 C448 1.208 . S
C448 O446 1.247 . S
C448 O447 1.208 . S
C449 O454 1.247 . S
C449 O455 1.208 . S
C450 O442 1.315 . S
C450 O445 1.279 . S
C451 O452 1.315 . S
C451 O453 1.279 . S
O452 Cd444 2.223 . S
O452 C451 1.315 . S
O453 Cd443 2.240 . S
O453 C451 1.279 . S
O454 Cd444 2.297 . S
O454 C449 1.247 . S
O455 Cd444 2.439 . S
O455 C449 1.208 . S
C456 C457 1.369 . S
C456 C458 1.419 . S
C456 H460 0.930 . S
C457 C456 1.369 . S
C457 C466 1.429 . S
C458 C456 1.419 . S
C458 C459 1.363 . S
C458 H461 0.929 . S
C459 C458 1.363 . S
C459 C465 1.428 . S
H460 C456 0.930 . S
H461 C458 0.929 . S
S462 N463 1.613 . S
S462 N464 1.610 . S
N463 S462 1.613 . S
N463 C466 1.350 . S
N464 S462 1.610 . S
N464 C465 1.351 . S
C465 C459 1.428 . S
C465 N464 1.351 . S
C465 C466 1.434 . S
C466 C457 1.429 . S
C466 N463 1.350 . S
C466 C465 1.434 . S
C467 C468 1.369 . S
C467 C469 1.419 . S
C467 H471 0.930 . S
C468 C467 1.369 . S
C468 C477 1.429 . S
C469 C467 1.419 . S
C469 C470 1.363 . S
C469 H472 0.929 . S
C470 C469 1.363 . S
C470 C476 1.428 . S
H471 C467 0.930 . S
H472 C469 0.929 . S
S473 N474 1.613 . S
S473 N475 1.610 . S
N474 S473 1.613 . S
N474 C477 1.350 . S
N475 S473 1.610 . S
N475 C476 1.351 . S
C476 C470 1.428 . S
C476 N475 1.351 . S
C476 C477 1.434 . S
C477 C468 1.429 . S
C477 N474 1.350 . S
C477 C476 1.434 . S
C478 C479 1.369 . S
C478 C480 1.419 . S
C478 H482 0.930 . S
C479 C478 1.369 . S
C479 C488 1.429 . S
C480 C478 1.419 . S
C480 C481 1.363 . S
C480 H483 0.929 . S
C481 C480 1.363 . S
C481 C487 1.428 . S
H482 C478 0.930 . S
H483 C480 0.929 . S
S484 N485 1.613 . S
S484 N486 1.610 . S
N485 S484 1.613 . S
N485 C488 1.350 . S
N486 S484 1.610 . S
N486 C487 1.351 . S
C487 C481 1.428 . S
C487 N486 1.351 . S
C487 C488 1.434 . S
C488 C479 1.429 . S
C488 N485 1.350 . S
C488 C487 1.434 . S
C489 C490 1.369 . S
C489 C491 1.419 . S
C489 H493 0.930 . S
C490 C489 1.369 . S
C490 C499 1.429 . S
C491 C489 1.419 . S
C491 C492 1.363 . S
C491 H494 0.929 . S
C492 C491 1.363 . S
C492 C498 1.428 . S
H493 C489 0.930 . S
H494 C491 0.929 . S
S495 N496 1.613 . S
S495 N497 1.610 . S
N496 S495 1.613 . S
N496 C499 1.350 . S
N497 S495 1.610 . S
N497 C498 1.351 . S
C498 C492 1.428 . S
C498 N497 1.351 . S
C498 C499 1.434 . S
C499 C490 1.429 . S
C499 N496 1.350 . S
C499 C498 1.434 . S
C500 C501 1.369 . S
C500 C502 1.419 . S
C500 H504 0.930 . S
C501 C500 1.369 . S
C501 C510 1.429 . S
C502 C500 1.419 . S
C502 C503 1.363 . S
C502 H505 0.929 . S
C503 C502 1.363 . S
C503 C509 1.428 . S
H504 C500 0.930 . S
H505 C502 0.929 . S
S506 N507 1.613 1_554 S
S506 N508 1.610 1_554 S
N507 S506 1.613 1_556 S
N507 C510 1.350 . S
N508 S506 1.610 1_556 S
N508 C509 1.351 . S
C509 C503 1.428 . S
C509 N508 1.351 . S
C509 C510 1.434 . S
C510 C501 1.429 . S
C510 N507 1.350 . S
C510 C509 1.434 . S
C511 C512 1.369 . S
C511 C513 1.419 . S
C511 H515 0.930 . S
C512 C511 1.369 . S
C512 C521 1.429 . S
C513 C511 1.419 . S
C513 C514 1.363 . S
C513 H516 0.929 . S
C514 C513 1.363 . S
C514 C520 1.428 . S
H515 C511 0.930 . S
H516 C513 0.929 . S
S517 N518 1.613 . S
S517 N519 1.610 . S
N518 S517 1.613 . S
N518 C521 1.350 . S
N519 S517 1.610 . S
N519 C520 1.351 . S
C520 C514 1.428 . S
C520 N519 1.351 . S
C520 C521 1.434 . S
C521 C512 1.429 . S
C521 N518 1.350 . S
C521 C520 1.434 . S
C522 C523 1.369 . S
C522 C524 1.419 . S
C522 H526 0.930 . S
C523 C522 1.369 . S
C523 C532 1.429 . S
C524 C522 1.419 . S
C524 C525 1.363 . S
C524 H527 0.929 . S
C525 C524 1.363 . S
C525 C531 1.428 . S
H526 C522 0.930 . S
H527 C524 0.929 . S
S528 N529 1.613 . S
S528 N530 1.610 . S
N529 S528 1.613 . S
N529 C532 1.350 . S
N530 S528 1.610 . S
N530 C531 1.351 . S
C531 C525 1.428 . S
C531 N530 1.351 . S
C531 C532 1.434 . S
C532 C523 1.429 . S
C532 N529 1.350 . S
C532 C531 1.434 . S
C533 C534 1.369 . S
C533 C535 1.419 . S
C533 H537 0.930 . S
C534 C533 1.369 . S
C534 C543 1.429 . S
C535 C533 1.419 . S
C535 C536 1.363 . S
C535 H538 0.929 . S
C536 C535 1.363 . S
C536 C542 1.428 . S
H537 C533 0.930 . S
H538 C535 0.929 . S
S539 N540 1.613 . S
S539 N541 1.610 . S
N540 S539 1.613 . S
N540 C543 1.350 . S
N541 S539 1.610 . S
N541 C542 1.351 . S
C542 C536 1.428 . S
C542 N541 1.351 . S
C542 C543 1.434 . S
C543 C534 1.429 . S
C543 N540 1.350 . S
C543 C542 1.434 . S
C544 C545 1.369 . S
C544 C546 1.419 . S
C544 H548 0.930 . S
C545 C544 1.369 . S
C545 C554 1.429 . S
C546 C544 1.419 . S
C546 C547 1.363 . S
C546 H549 0.929 . S
C547 C546 1.363 . S
C547 C553 1.428 . S
H548 C544 0.930 . S
H549 C546 0.929 . S
S550 N551 1.613 . S
S550 N552 1.610 . S
N551 S550 1.613 . S
N551 C554 1.350 . S
N552 S550 1.610 . S
N552 C553 1.351 . S
C553 C547 1.428 . S
C553 N552 1.351 . S
C553 C554 1.434 . S
C554 C545 1.429 . S
C554 N551 1.350 . S
C554 C553 1.434 . S
C555 C556 1.369 . S
C555 C557 1.419 . S
C555 H559 0.930 . S
C556 C555 1.369 . S
C556 C565 1.429 . S
C557 C555 1.419 . S
C557 C558 1.363 . S
C557 H560 0.929 . S
C558 C557 1.363 . S
C558 C564 1.428 . S
H559 C555 0.930 . S
H560 C557 0.929 . S
S561 N562 1.613 . S
S561 N563 1.610 . S
N562 S561 1.613 . S
N562 C565 1.350 . S
N563 S561 1.610 . S
N563 C564 1.351 . S
C564 C558 1.428 . S
C564 N563 1.351 . S
C564 C565 1.434 . S
C565 C556 1.429 . S
C565 N562 1.350 . S
C565 C564 1.434 . S
C566 C567 1.369 . S
C566 C568 1.419 . S
C566 H570 0.930 . S
C567 C566 1.369 . S
C567 C576 1.429 . S
C568 C566 1.419 . S
C568 C569 1.363 . S
C568 H571 0.929 . S
C569 C568 1.363 . S
C569 C575 1.428 . S
H570 C566 0.930 . S
H571 C568 0.929 . S
S572 N573 1.613 . S
S572 N574 1.610 . S
N573 S572 1.613 . S
N573 C576 1.350 . S
N574 S572 1.610 . S
N574 C575 1.351 . S
C575 C569 1.428 . S
C575 N574 1.351 . S
C575 C576 1.434 . S
C576 C567 1.429 . S
C576 N573 1.350 . S
C576 C575 1.434 . S
C577 C578 1.369 . S
C577 C579 1.419 . S
C577 H581 0.930 . S
C578 C577 1.369 . S
C578 C587 1.429 . S
C579 C577 1.419 . S
C579 C580 1.363 . S
C579 H582 0.929 . S
C580 C579 1.363 . S
C580 C586 1.428 . S
H581 C577 0.930 . S
H582 C579 0.929 . S
S583 N584 1.613 . S
S583 N585 1.610 . S
N584 S583 1.613 . S
N584 C587 1.350 . S
N585 S583 1.610 . S
N585 C586 1.351 . S
C586 C580 1.428 . S
C586 N585 1.351 . S
C586 C587 1.434 . S
C587 C578 1.429 . S
C587 N584 1.350 . S
C587 C586 1.434 . S
C588 C589 1.369 . S
C588 C590 1.419 . S
C588 H592 0.930 . S
C589 C588 1.369 . S
C589 C598 1.429 . S
C590 C588 1.419 . S
C590 C591 1.363 . S
C590 H593 0.929 . S
C591 C590 1.363 . S
C591 C597 1.428 . S
H592 C588 0.930 . S
H593 C590 0.929 . S
S594 N595 1.613 . S
S594 N596 1.610 . S
N595 S594 1.613 . S
N595 C598 1.350 . S
N596 S594 1.610 . S
N596 C597 1.351 . S
C597 C591 1.428 . S
C597 N596 1.351 . S
C597 C598 1.434 . S
C598 C589 1.429 . S
C598 N595 1.350 . S
C598 C597 1.434 . S
C599 C600 1.369 . S
C599 C601 1.419 . S
C599 H603 0.930 . S
C600 C599 1.369 . S
C600 C609 1.429 . S
C601 C599 1.419 . S
C601 C602 1.363 . S
C601 H604 0.929 . S
C602 C601 1.363 . S
C602 C608 1.428 . S
H603 C599 0.930 . S
H604 C601 0.929 . S
S605 N606 1.613 . S
S605 N607 1.610 . S
N606 S605 1.613 . S
N606 C609 1.350 . S
N607 S605 1.610 . S
N607 C608 1.351 . S
C608 C602 1.428 . S
C608 N607 1.351 . S
C608 C609 1.434 . S
C609 C600 1.429 . S
C609 N606 1.350 . S
C609 C608 1.434 . S
C610 C611 1.369 . S
C610 C612 1.419 . S
C610 H614 0.930 . S
C611 C610 1.369 . S
C611 C620 1.429 . S
C612 C610 1.419 . S
C612 C613 1.363 . S
C612 H615 0.929 . S
C613 C612 1.363 . S
C613 C619 1.428 . S
H614 C610 0.930 . S
H615 C612 0.929 . S
S616 N617 1.613 . S
S616 N618 1.610 . S
N617 S616 1.613 . S
N617 C620 1.350 . S
N618 S616 1.610 . S
N618 C619 1.351 . S
C619 C613 1.428 . S
C619 N618 1.351 . S
C619 C620 1.434 . S
C620 C611 1.429 . S
C620 N617 1.350 . S
C620 C619 1.434 . S
C621 C622 1.369 . S
C621 C623 1.419 . S
C621 H625 0.930 . S
C622 C621 1.369 . S
C622 C631 1.429 . S
C623 C621 1.419 . S
C623 C624 1.363 . S
C623 H626 0.929 . S
C624 C623 1.363 . S
C624 C630 1.428 . S
H625 C621 0.930 . S
H626 C623 0.929 . S
S627 N628 1.613 . S
S627 N629 1.624 . S
N628 S627 1.613 . S
N628 C631 1.350 . S
N629 S627 1.624 . S
N629 C630 1.361 . S
C630 C624 1.428 . S
C630 N629 1.361 . S
C630 C631 1.434 . S
C631 C622 1.429 . S
C631 N628 1.350 . S
C631 C630 1.434 . S
C632 C633 1.369 . S
C632 C634 1.419 . S
C632 H636 0.930 . S
C633 C632 1.369 . S
C633 C642 1.429 . S
C634 C632 1.419 . S
C634 C635 1.363 . S
C634 H637 0.929 . S
C635 C634 1.363 . S
C635 C641 1.428 . S
H636 C632 0.930 . S
H637 C634 0.929 . S
S638 N639 1.613 . S
S638 N640 1.610 . S
N639 S638 1.613 . S
N639 C642 1.350 . S
N640 S638 1.610 . S
N640 C641 1.351 . S
C641 C635 1.428 . S
C641 N640 1.351 . S
C641 C642 1.434 . S
C642 C633 1.429 . S
C642 N639 1.350 . S
C642 C641 1.434 . S
C643 C644 1.369 . S
C643 C645 1.419 . S
C643 H647 0.930 . S
C644 C643 1.369 . S
C644 C653 1.429 . S
C645 C643 1.419 . S
C645 C646 1.363 . S
C645 H648 0.929 . S
C646 C645 1.363 . S
C646 C652 1.428 . S
H647 C643 0.930 . S
H648 C645 0.929 . S
S649 N650 1.613 . S
S649 N651 1.610 . S
N650 S649 1.613 . S
N650 C653 1.350 . S
N651 S649 1.610 . S
N651 C652 1.351 . S
C652 C646 1.428 . S
C652 N651 1.351 . S
C652 C653 1.434 . S
C653 C644 1.429 . S
C653 N650 1.350 . S
C653 C652 1.434 . S
C654 C655 1.369 . S
C654 C656 1.419 . S
C654 H658 0.930 . S
C655 C654 1.369 . S
C655 C664 1.429 . S
C656 C654 1.419 . S
C656 C657 1.363 . S
C656 H659 0.929 . S
C657 C656 1.363 . S
C657 C663 1.428 . S
H658 C654 0.930 . S
H659 C656 0.929 . S
S660 N661 1.613 . S
S660 N662 1.610 . S
N661 S660 1.613 . S
N661 C664 1.350 . S
N662 S660 1.610 . S
N662 C663 1.351 . S
C663 C657 1.428 . S
C663 N662 1.351 . S
C663 C664 1.434 . S
C664 C655 1.429 . S
C664 N661 1.350 . S
C664 C663 1.434 . S
C665 C666 1.369 . S
C665 C667 1.419 . S
C665 H669 0.930 . S
C666 C665 1.369 . S
C666 C675 1.429 . S
C667 C665 1.419 . S
C667 C668 1.363 . S
C667 H670 0.929 . S
C668 C667 1.363 . S
C668 C674 1.428 . S
H669 C665 0.930 . S
H670 C667 0.929 . S
S671 N672 1.613 . S
S671 N673 1.610 . S
N672 S671 1.613 . S
N672 C675 1.350 . S
N673 S671 1.610 . S
N673 C674 1.351 . S
C674 C668 1.428 . S
C674 N673 1.351 . S
C674 C675 1.434 . S
C675 C666 1.429 . S
C675 N672 1.350 . S
C675 C674 1.434 . S
C676 C677 1.369 . S
C676 C678 1.419 . S
C676 H680 0.930 . S
C677 C676 1.369 . S
C677 C686 1.429 . S
C678 C676 1.419 . S
C678 C679 1.363 . S
C678 H681 0.929 . S
C679 C678 1.363 . S
C679 C685 1.428 . S
H680 C676 0.930 . S
H681 C678 0.929 . S
S682 N683 1.613 . S
S682 N684 1.610 . S
N683 S682 1.613 . S
N683 C686 1.350 . S
N684 S682 1.610 . S
N684 C685 1.351 . S
C685 C679 1.428 . S
C685 N684 1.351 . S
C685 C686 1.434 . S
C686 C677 1.429 . S
C686 N683 1.350 . S
C686 C685 1.434 . S
C687 C688 1.369 . S
C687 C689 1.419 . S
C687 H691 0.930 . S
C688 C687 1.369 . S
C688 C697 1.429 . S
C689 C687 1.419 . S
C689 C690 1.363 . S
C689 H692 0.929 . S
C690 C689 1.363 . S
C690 C696 1.428 . S
H691 C687 0.930 . S
H692 C689 0.929 . S
S693 N694 1.613 . S
S693 N695 1.610 . S
N694 S693 1.613 . S
N694 C697 1.350 . S
N695 S693 1.610 . S
N695 C696 1.351 . S
C696 C690 1.428 . S
C696 N695 1.351 . S
C696 C697 1.434 . S
C697 C688 1.429 . S
C697 N694 1.350 . S
C697 C696 1.434 . S
C698 C699 1.369 . S
C698 C700 1.419 . S
C698 H702 0.930 . S
C699 C698 1.369 . S
C699 C708 1.429 . S
C700 C698 1.419 . S
C700 C701 1.363 . S
C700 H703 0.929 . S
C701 C700 1.363 . S
C701 C707 1.428 . S
H702 C698 0.930 . S
H703 C700 0.929 . S
S704 N705 1.613 . S
S704 N706 1.610 1_554 S
N705 S704 1.613 . S
N705 C708 1.350 1_554 S
N706 S704 1.610 1_556 S
N706 C707 1.351 . S
C707 C701 1.428 . S
C707 N706 1.351 . S
C707 C708 1.434 . S
C708 C699 1.429 . S
C708 N705 1.350 1_556 S
C708 C707 1.434 . S
C709 C710 1.369 . S
C709 C711 1.419 . S
C709 H713 0.930 . S
C710 C709 1.369 . S
C710 C719 1.429 . S
C711 C709 1.419 . S
C711 C712 1.363 . S
C711 H714 0.929 . S
C712 C711 1.363 . S
C712 C718 1.428 . S
H713 C709 0.930 . S
H714 C711 0.929 . S
S715 N716 1.613 . S
S715 N717 1.610 . S
N716 S715 1.613 . S
N716 C719 1.350 . S
N717 S715 1.610 . S
N717 C718 1.351 . S
C718 C712 1.428 . S
C718 N717 1.351 . S
C718 C719 1.434 . S
C719 C710 1.429 . S
C719 N716 1.350 . S
C719 C718 1.434 . S
C459 C449 1.535 . S
C457 C29 1.421 . S
C468 C115 1.409 . S
C470 C378 1.423 . S
C479 C153 1.428 . S
C481 C392 1.519 . S
C490 C239 1.378 . S
C492 C406 1.394 . S
C503 C420 1.471 . S
C501 C301 1.455 . S
C512 C339 1.643 . S
C514 C435 1.778 . S
C523 C91 1.430 . S
C525 C393 1.518 . S
C534 C177 1.411 . S
C536 C407 1.423 . S
C545 C215 1.429 . S
C547 C421 1.533 . S
C558 C434 1.774 . S
C556 C277 1.648 . S
C569 C448 1.469 . S
C567 C363 1.463 . S
C580 C379 1.392 . S
C578 C53 1.384 . S
C589 C35 1.621 . S
C591 C395 1.631 . S
C600 C109 1.410 . S
C602 C409 1.556 . S
C613 C423 1.511 . S
C611 C159 1.524 . S
C622 C233 1.641 . S
C624 C436 1.775 1_556 S
C635 C450 1.629 . S
C633 C295 1.445 . S
C646 C381 1.498 . S
C644 C345 1.520 . S
C657 C451 1.510 . S
C655 C97 1.520 . S
C666 C171 1.419 . S
C668 C380 1.557 . S
C679 C394 1.635 . S
C677 C221 1.625 . S
C688 C283 1.519 . S
C690 C408 1.498 . S
C699 C357 1.448 1_556 S
C701 C422 1.632 . S
C710 C47 1.638 . S
C712 C437 1.779 . S
