# Generated by pormake.
# Topology wbl, (4,4)-cn, num edge types: 1
# Building blocks:
#     Node 0, Type 0, BuildingBlock: MUDLON_clean_linker_0, # of connection points: 4
#     Node 1, Type 0, BuildingBlock: MUDLON_clean_linker_0, # of connection points: 4
#     Node 2, Type 0, BuildingBlock: MUDLON_clean_linker_0, # of connection points: 4
#     Node 3, Type 0, BuildingBlock: MUDLON_clean_linker_0, # of connection points: 4
#     Node 4, Type 0, BuildingBlock: MUDLON_clean_linker_0, # of connection points: 4
#     Node 5, Type 0, BuildingBlock: MUDLON_clean_linker_0, # of connection points: 4
#     Node 6, Type 0, BuildingBlock: MUDLON_clean_linker_0, # of connection points: 4
#     Node 7, Type 0, BuildingBlock: MUDLON_clean_linker_0, # of connection points: 4
#     Node 8, Type 1, BuildingBlock: GALJAG_clean_sbu_0, # of connection points: 4
#     Node 9, Type 1, BuildingBlock: GALJAG_clean_sbu_0, # of connection points: 4
#     Node 10, Type 1, BuildingBlock: GALJAG_clean_sbu_0, # of connection points: 4
#     Node 11, Type 1, BuildingBlock: GALJAG_clean_sbu_0, # of connection points: 4
#     Node 12, Type 1, BuildingBlock: GALJAG_clean_sbu_0, # of connection points: 4
#     Node 13, Type 1, BuildingBlock: GALJAG_clean_sbu_0, # of connection points: 4
#     Node 14, Type 1, BuildingBlock: GALJAG_clean_sbu_0, # of connection points: 4
#     Node 15, Type 1, BuildingBlock: GALJAG_clean_sbu_0, # of connection points: 4
#     Edge 16, Type (0, 1), BuildingBlock: AJUNOK_clean_linker_0, # of connection points: 2
#     Edge 17, Type (0, 1), BuildingBlock: AJUNOK_clean_linker_0, # of connection points: 2
#     Edge 18, Type (0, 1), BuildingBlock: AJUNOK_clean_linker_0, # of connection points: 2
#     Edge 19, Type (0, 1), BuildingBlock: AJUNOK_clean_linker_0, # of connection points: 2
#     Edge 20, Type (0, 1), BuildingBlock: AJUNOK_clean_linker_0, # of connection points: 2
#     Edge 21, Type (0, 1), BuildingBlock: AJUNOK_clean_linker_0, # of connection points: 2
#     Edge 22, Type (0, 1), BuildingBlock: AJUNOK_clean_linker_0, # of connection points: 2
#     Edge 23, Type (0, 1), BuildingBlock: AJUNOK_clean_linker_0, # of connection points: 2
#     Edge 24, Type (0, 1), BuildingBlock: AJUNOK_clean_linker_0, # of connection points: 2
#     Edge 25, Type (0, 1), BuildingBlock: AJUNOK_clean_linker_0, # of connection points: 2
#     Edge 26, Type (0, 1), BuildingBlock: AJUNOK_clean_linker_0, # of connection points: 2
#     Edge 27, Type (0, 1), BuildingBlock: AJUNOK_clean_linker_0, # of connection points: 2
#     Edge 28, Type (0, 1), BuildingBlock: AJUNOK_clean_linker_0, # of connection points: 2
#     Edge 29, Type (0, 1), BuildingBlock: AJUNOK_clean_linker_0, # of connection points: 2
#     Edge 30, Type (0, 1), BuildingBlock: AJUNOK_clean_linker_0, # of connection points: 2
#     Edge 31, Type (0, 1), BuildingBlock: AJUNOK_clean_linker_0, # of connection points: 2
#     Edge 32, Type (0, 1), BuildingBlock: AJUNOK_clean_linker_0, # of connection points: 2
#     Edge 33, Type (0, 1), BuildingBlock: AJUNOK_clean_linker_0, # of connection points: 2
#     Edge 34, Type (0, 1), BuildingBlock: AJUNOK_clean_linker_0, # of connection points: 2
#     Edge 35, Type (0, 1), BuildingBlock: AJUNOK_clean_linker_0, # of connection points: 2
#     Edge 36, Type (0, 1), BuildingBlock: AJUNOK_clean_linker_0, # of connection points: 2
#     Edge 37, Type (0, 1), BuildingBlock: AJUNOK_clean_linker_0, # of connection points: 2
#     Edge 38, Type (0, 1), BuildingBlock: AJUNOK_clean_linker_0, # of connection points: 2
#     Edge 39, Type (0, 1), BuildingBlock: AJUNOK_clean_linker_0, # of connection points: 2
#     Edge 40, Type (0, 1), BuildingBlock: AJUNOK_clean_linker_0, # of connection points: 2
#     Edge 41, Type (0, 1), BuildingBlock: AJUNOK_clean_linker_0, # of connection points: 2
#     Edge 42, Type (0, 1), BuildingBlock: AJUNOK_clean_linker_0, # of connection points: 2
#     Edge 43, Type (0, 1), BuildingBlock: AJUNOK_clean_linker_0, # of connection points: 2
#     Edge 44, Type (0, 1), BuildingBlock: AJUNOK_clean_linker_0, # of connection points: 2
#     Edge 45, Type (0, 1), BuildingBlock: AJUNOK_clean_linker_0, # of connection points: 2
#     Edge 46, Type (0, 1), BuildingBlock: AJUNOK_clean_linker_0, # of connection points: 2
#     Edge 47, Type (0, 1), BuildingBlock: AJUNOK_clean_linker_0, # of connection points: 2
# Relax obj value: 0.114
# Max RMSD: 0.157
# Mean RMSD: 0.142
data_MOF--net-wbl--node1-GALJAG_clean_sbu_0--node2-MUDLON_clean_linker_0--edge1-AJUNOK_clean_linker_0
_symmetry_space_group_name_H-M    P1
_symmetry_Int_Tables_number       1
_symmetry_cell_setting            triclinic
loop_
_symmetry_equiv_pos_as_xyz
'x, y, z'
_cell_length_a     42.277656
_cell_length_b     42.370232
_cell_length_c     68.347099
_cell_angle_alpha  90.029891
_cell_angle_beta   90.055734
_cell_angle_gamma 90.023857
loop_
_atom_site_label
_atom_site_type_symbol
_atom_site_fract_x
_atom_site_fract_y
_atom_site_fract_z
_atom_type_partial_charge
H0 H 0.12978 0.92816 0.35213 0.0
N1 N 0.07492 0.9133 0.33284 0.0
H2 H 0.1447 0.91157 0.38514 0.0
H3 H 0.03949 0.88194 0.35862 0.0
H4 H 0.05437 0.86544 0.39191 0.0
H5 H 0.09674 0.8562 0.32399 0.0
H6 H 0.14431 0.84293 0.30548 0.0
H7 H 0.11016 0.95463 0.30964 0.0
H8 H 0.15623 0.94116 0.29043 0.0
H9 H 0.09527 0.97225 0.34366 0.0
H10 H 0.01707 0.9214 0.31828 0.0
H11 H 0.0652 0.02106 0.34204 0.0
H12 H 0.98591 0.9701 0.31743 0.0
H13 H 0.95322 0.16738 0.35385 0.0
H14 H 0.93611 0.17997 0.38732 0.0
H15 H 0.89765 0.08601 0.39311 0.0
H16 H 0.91547 0.07337 0.36006 0.0
H17 H 0.89407 0.07568 0.32858 0.0
H18 H 0.84746 0.08988 0.30933 0.0
H19 H 0.89372 0.17569 0.29087 0.0
H20 H 0.94013 0.16167 0.31065 0.0
H21 H 0.99212 0.09334 0.3594 0.0
H22 H 0.02331 0.04564 0.35792 0.0
H23 H 0.97883 0.02092 0.30308 0.0
N24 N 0.94633 0.11287 0.33478 0.0
H25 H 0.94647 0.06805 0.30491 0.0
C26 C 0.08352 0.90592 0.35281 0.0
C27 C 0.11305 0.91467 0.3607 0.0
C28 C 0.12162 0.90508 0.37952 0.0
C29 C 0.1008 0.88691 0.39088 0.0
C30 C 0.07082 0.87936 0.38337 0.0
C31 C 0.06235 0.88869 0.36443 0.0
C32 C 0.09984 0.90641 0.31885 0.0
C33 C 0.10946 0.87487 0.31656 0.0
C34 C 0.13663 0.8673 0.30592 0.0
C35 C 0.15462 0.89111 0.29694 0.0
C36 C 0.14364 0.9224 0.29785 0.0
C37 C 0.11684 0.93009 0.30884 0.0
C38 C 0.05842 0.94304 0.33099 0.0
C39 C 0.07155 0.97156 0.33775 0.0
C40 C 0.05413 0.99953 0.33693 0.0
C41 C 0.02288 0.99964 0.32978 0.0
C42 C 0.01 0.97112 0.32278 0.0
C43 C 0.02767 0.9432 0.32335 0.0
C44 C 0.93575 0.11955 0.35447 0.0
C45 C 0.9412 0.14955 0.36242 0.0
C46 C 0.93138 0.15669 0.38145 0.0
C47 C 0.91598 0.1338 0.39287 0.0
C48 C 0.91009 0.10387 0.38479 0.0
C49 C 0.9199 0.09676 0.3658 0.0
C50 C 0.92068 0.11774 0.32109 0.0
C51 C 0.89435 0.09741 0.3203 0.0
C52 C 0.86776 0.10549 0.30921 0.0
C53 C 0.86679 0.13413 0.29885 0.0
C54 C 0.89358 0.15377 0.29901 0.0
C55 C 0.9202 0.14564 0.31008 0.0
C56 C 0.96494 0.08396 0.33306 0.0
C57 C 0.98833 0.07745 0.3472 0.0
C58 C 0.00675 0.05022 0.34617 0.0
C59 C 0.00345 0.02904 0.33048 0.0
C60 C 0.98137 0.03616 0.31571 0.0
C61 C 0.96258 0.06337 0.31685 0.0
H62 H 0.93479 0.3781 0.60408 0.0
N63 N 0.91447 0.42954 0.58318 0.0
H64 H 0.92107 0.36517 0.6378 0.0
H65 H 0.88095 0.46427 0.60815 0.0
H66 H 0.86767 0.45172 0.64225 0.0
H67 H 0.85771 0.41318 0.57007 0.0
H68 H 0.8432 0.365 0.55241 0.0
H69 H 0.95609 0.38686 0.56693 0.0
H70 H 0.94192 0.33963 0.54852 0.0
H71 H 0.97469 0.41856 0.59682 0.0
H72 H 0.91845 0.48168 0.56168 0.0
H73 H 0.01979 0.45362 0.59381 0.0
H74 H 0.96426 0.51645 0.55765 0.0
H75 H 0.15801 0.58495 0.59612 0.0
H76 H 0.17246 0.60005 0.62943 0.0
H77 H 0.07455 0.59202 0.64685 0.0
H78 H 0.05999 0.57968 0.61342 0.0
H79 H 0.07471 0.63296 0.58674 0.0
H80 H 0.08631 0.67991 0.56716 0.0
H81 H 0.14378 0.62353 0.52837 0.0
H82 H 0.1327 0.57675 0.54838 0.0
H83 H 0.10347 0.51215 0.57699 0.0
H84 H 0.05946 0.47499 0.57382 0.0
H85 H 0.99358 0.55296 0.57642 0.0
N86 N 0.10054 0.57427 0.58176 0.0
H87 H 0.0377 0.58972 0.57866 0.0
C88 C 0.90849 0.42211 0.60348 0.0
C89 C 0.9202 0.39439 0.61225 0.0
C90 C 0.9125 0.38708 0.63159 0.0
C91 C 0.89299 0.40724 0.64256 0.0
C92 C 0.88223 0.43544 0.634 0.0
C93 C 0.8899 0.44272 0.61463 0.0
C94 C 0.90786 0.40381 0.56989 0.0
C95 C 0.87622 0.39744 0.56511 0.0
C96 C 0.86799 0.36993 0.55502 0.0
C97 C 0.89135 0.34818 0.5494 0.0
C98 C 0.92328 0.35549 0.55313 0.0
C99 C 0.93147 0.38282 0.56346 0.0
C100 C 0.94284 0.44774 0.5797 0.0
C101 C 0.97209 0.43977 0.5882 0.0
C102 C 0.99814 0.45983 0.58627 0.0
C103 C 0.99578 0.48814 0.57558 0.0
C104 C 0.96687 0.49524 0.56633 0.0
C105 C 0.94071 0.47528 0.56845 0.0
C106 C 0.10809 0.58065 0.60207 0.0
C107 C 0.13973 0.58623 0.60719 0.0
C108 C 0.14797 0.59451 0.62632 0.0
C109 C 0.12476 0.59659 0.64101 0.0
C110 C 0.09306 0.5907 0.63593 0.0
C111 C 0.08472 0.58325 0.61668 0.0
C112 C 0.10315 0.60136 0.56906 0.0
C113 C 0.08943 0.63061 0.57387 0.0
C114 C 0.09606 0.65742 0.56266 0.0
C115 C 0.11644 0.6555 0.54645 0.0
C116 C 0.12863 0.62588 0.54106 0.0
C117 C 0.1221 0.59913 0.55232 0.0
C118 C 0.074 0.5536 0.57813 0.0
C119 C 0.07949 0.52112 0.57654 0.0
C120 C 0.05426 0.49995 0.57491 0.0
C121 C 0.0228 0.51083 0.57508 0.0
C122 C 0.0174 0.54361 0.57597 0.0
C123 C 0.0427 0.56479 0.57735 0.0
H124 H 0.62756 0.43231 0.85226 0.0
N125 N 0.57705 0.41141 0.83082 0.0
H126 H 0.64123 0.41647 0.88566 0.0
H127 H 0.54399 0.37413 0.85452 0.0
H128 H 0.55774 0.35791 0.88798 0.0
H129 H 0.59759 0.35386 0.82232 0.0
H130 H 0.64551 0.33918 0.80461 0.0
H131 H 0.61476 0.45187 0.80855 0.0
H132 H 0.66139 0.4371 0.79019 0.0
H133 H 0.59582 0.47223 0.83864 0.0
H134 H 0.51773 0.4157 0.81832 0.0
H135 H 0.56356 0.51938 0.8364 0.0
H136 H 0.48408 0.4625 0.81757 0.0
H137 H 0.43463 0.66058 0.84963 0.0
H138 H 0.4172 0.67363 0.88276 0.0
H139 H 0.40396 0.57437 0.89489 0.0
H140 H 0.41915 0.56183 0.86132 0.0
H141 H 0.38395 0.5683 0.83187 0.0
H142 H 0.33629 0.58009 0.81293 0.0
H143 H 0.3841 0.65886 0.78587 0.0
H144 H 0.43151 0.64739 0.80538 0.0
H145 H 0.49047 0.59156 0.8537 0.0
H146 H 0.52446 0.54575 0.8521 0.0
H147 H 0.46961 0.50982 0.80349 0.0
N148 N 0.43801 0.60378 0.83308 0.0
H149 H 0.43422 0.55445 0.80609 0.0
C150 C 0.58456 0.40445 0.85096 0.0
C151 C 0.61185 0.41658 0.86007 0.0
C152 C 0.61972 0.40743 0.8791 0.0
C153 C 0.60067 0.38577 0.88927 0.0
C154 C 0.57302 0.37431 0.88033 0.0
C155 C 0.56505 0.38365 0.86135 0.0
C156 C 0.60249 0.40396 0.81735 0.0
C157 C 0.61126 0.37217 0.8152 0.0
C158 C 0.63865 0.36379 0.80502 0.0
C159 C 0.65779 0.38705 0.79643 0.0
C160 C 0.64785 0.41871 0.79731 0.0
C161 C 0.62075 0.42717 0.80782 0.0
C162 C 0.55938 0.44031 0.82824 0.0
C163 C 0.5717 0.46993 0.83358 0.0
C164 C 0.55289 0.497 0.83257 0.0
C165 C 0.52083 0.49508 0.82698 0.0
C166 C 0.50868 0.46534 0.82157 0.0
C167 C 0.52783 0.4384 0.82208 0.0
C168 C 0.42876 0.61034 0.85307 0.0
C169 C 0.42809 0.64171 0.85951 0.0
C170 C 0.41848 0.64904 0.87853 0.0
C171 C 0.40996 0.62498 0.89171 0.0
C172 C 0.41042 0.59348 0.88517 0.0
C173 C 0.41932 0.58624 0.866 0.0
C174 C 0.41136 0.607 0.81996 0.0
C175 C 0.38433 0.58779 0.82165 0.0
C176 C 0.35717 0.59445 0.81071 0.0
C177 C 0.35651 0.62031 0.79779 0.0
C178 C 0.38388 0.63885 0.79573 0.0
C179 C 0.41101 0.6322 0.80671 0.0
C180 C 0.45852 0.57636 0.83078 0.0
C181 C 0.48534 0.57361 0.84286 0.0
C182 C 0.50524 0.54742 0.84169 0.0
C183 C 0.49991 0.52358 0.82773 0.0
C184 C 0.47407 0.52705 0.81486 0.0
C185 C 0.45362 0.55298 0.81635 0.0
H186 H 0.42741 0.88319 0.1035 0.0
N187 N 0.40696 0.93518 0.08337 0.0
H188 H 0.41399 0.86922 0.13725 0.0
H189 H 0.37135 0.96781 0.10828 0.0
H190 H 0.35743 0.95363 0.14207 0.0
H191 H 0.34922 0.916 0.07388 0.0
H192 H 0.33418 0.86976 0.05473 0.0
H193 H 0.44759 0.89731 0.06152 0.0
H194 H 0.43257 0.85246 0.04159 0.0
H195 H 0.46767 0.91682 0.09208 0.0
H196 H 0.41171 0.99387 0.06987 0.0
H197 H 0.51491 0.94918 0.09032 0.0
H198 H 0.45892 0.02737 0.06902 0.0
H199 H 0.65974 0.0609 0.09982 0.0
H200 H 0.67755 0.07709 0.13251 0.0
H201 H 0.58522 0.11638 0.1441 0.0
H202 H 0.5674 0.0995 0.11162 0.0
H203 H 0.56885 0.12442 0.08059 0.0
H204 H 0.58293 0.17041 0.06076 0.0
H205 H 0.661 0.11847 0.03586 0.0
H206 H 0.64741 0.07289 0.05631 0.0
H207 H 0.5855 0.02295 0.10815 0.0
H208 H 0.53834 0.99076 0.10704 0.0
H209 H 0.50862 0.03841 0.05427 0.0
N210 N 0.60304 0.06963 0.08375 0.0
H211 H 0.55507 0.07189 0.05587 0.0
C212 C 0.40042 0.92673 0.10342 0.0
C213 C 0.41253 0.89896 0.11188 0.0
C214 C 0.40482 0.89095 0.13114 0.0
C215 C 0.38457 0.91029 0.14216 0.0
C216 C 0.37283 0.9382 0.13378 0.0
C217 C 0.38081 0.94635 0.11459 0.0
C218 C 0.39945 0.91047 0.06942 0.0
C219 C 0.36752 0.90251 0.06661 0.0
C220 C 0.35894 0.87617 0.05549 0.0
C221 C 0.38215 0.85745 0.04644 0.0
C222 C 0.41409 0.86619 0.04851 0.0
C223 C 0.42272 0.89219 0.05997 0.0
C224 C 0.43597 0.95281 0.08089 0.0
C225 C 0.46549 0.94071 0.08672 0.0
C226 C 0.4926 0.9595 0.08591 0.0
C227 C 0.49085 0.99117 0.07976 0.0
C228 C 0.46137 0.00304 0.07361 0.0
C229 C 0.4343 0.98399 0.07414 0.0
C230 C 0.61244 0.0791 0.10324 0.0
C231 C 0.64341 0.07296 0.10946 0.0
C232 C 0.65354 0.08237 0.12804 0.0
C233 C 0.63284 0.09829 0.14073 0.0
C234 C 0.60164 0.10411 0.13461 0.0
C235 C 0.59152 0.09472 0.11601 0.0
C236 C 0.60735 0.09524 0.07004 0.0
C237 C 0.58887 0.12285 0.0708 0.0
C238 C 0.59684 0.14906 0.05937 0.0
C239 C 0.62344 0.14824 0.04703 0.0
C240 C 0.64084 0.12007 0.04557 0.0
C241 C 0.63292 0.09393 0.05704 0.0
C242 C 0.57373 0.05149 0.08281 0.0
C243 C 0.56858 0.02725 0.09655 0.0
C244 C 0.54167 0.00826 0.09569 0.0
C245 C 0.51942 0.01191 0.08058 0.0
C246 C 0.52481 0.03538 0.06641 0.0
C247 C 0.55166 0.05476 0.0674 0.0
H248 H 0.1254 0.5683 0.89904 0.0
N249 N 0.07587 0.59112 0.92082 0.0
H250 H 0.13878 0.58309 0.86557 0.0
H251 H 0.04413 0.62973 0.89726 0.0
H252 H 0.05786 0.64503 0.8636 0.0
H253 H 0.08076 0.64617 0.93898 0.0
H254 H 0.12525 0.66543 0.95866 0.0
H255 H 0.12607 0.55553 0.93356 0.0
H256 H 0.17112 0.57491 0.95262 0.0
H257 H 0.08966 0.5303 0.9095 0.0
H258 H 0.0217 0.58751 0.94028 0.0
H259 H 0.05496 0.48491 0.91216 0.0
H260 H 0.98726 0.5415 0.94406 0.0
H261 H 0.94298 0.3476 0.90501 0.0
H262 H 0.93139 0.33139 0.87123 0.0
H263 H 0.89818 0.42551 0.85848 0.0
H264 H 0.91012 0.44157 0.89186 0.0
H265 H 0.8749 0.43244 0.91904 0.0
H266 H 0.82838 0.41975 0.93852 0.0
H267 H 0.88247 0.3509 0.97085 0.0
H268 H 0.92944 0.364 0.95129 0.0
H269 H 0.99477 0.40165 0.92816 0.0
H270 H 0.03141 0.44601 0.9316 0.0
H271 H 0.95319 0.51086 0.9248 0.0
N272 N 0.93304 0.40368 0.9213 0.0
H273 H 0.91694 0.46665 0.92253 0.0
C274 C 0.0835 0.59784 0.90068 0.0
C275 C 0.11013 0.58463 0.89142 0.0
C276 C 0.11782 0.5931 0.87226 0.0
C277 C 0.0994 0.61525 0.86211 0.0
C278 C 0.07254 0.62806 0.87121 0.0
C279 C 0.06465 0.6193 0.89032 0.0
C280 C 0.10012 0.59961 0.9347 0.0
C281 C 0.10016 0.63034 0.94226 0.0
C282 C 0.12571 0.64138 0.95329 0.0
C283 C 0.152 0.6219 0.95679 0.0
C284 C 0.15123 0.59049 0.9501 0.0
C285 C 0.1255 0.5794 0.93915 0.0
C286 C 0.05804 0.56266 0.92443 0.0
C287 C 0.06749 0.53309 0.91713 0.0
C288 C 0.04758 0.50686 0.91885 0.0
C289 C 0.01797 0.50941 0.92817 0.0
C290 C 0.00946 0.53869 0.93637 0.0
C291 C 0.02923 0.56498 0.93442 0.0
C292 C 0.92772 0.39574 0.90102 0.0
C293 C 0.9336 0.36477 0.8948 0.0
C294 C 0.92689 0.35556 0.87559 0.0
C295 C 0.91424 0.3773 0.86218 0.0
C296 C 0.90861 0.40844 0.86835 0.0
C297 C 0.91528 0.4176 0.88756 0.0
C298 C 0.90599 0.39943 0.93389 0.0
C299 C 0.87721 0.41527 0.93062 0.0
C300 C 0.8505 0.40796 0.94178 0.0
C301 C 0.85191 0.38453 0.9563 0.0
C302 C 0.88078 0.36911 0.95978 0.0
C303 C 0.90758 0.37665 0.94872 0.0
C304 C 0.95317 0.43059 0.92494 0.0
C305 C 0.9856 0.4255 0.92773 0.0
C306 C 0.00651 0.45094 0.9295 0.0
C307 C 0.99545 0.48222 0.92828 0.0
C308 C 0.9627 0.48723 0.92608 0.0
C309 C 0.94178 0.46176 0.92456 0.0
H310 H 0.52401 0.37688 0.1317 0.0
N311 N 0.55224 0.39587 0.16439 0.0
H312 H 0.54784 0.37005 0.0993 0.0
H313 H 0.6133 0.41002 0.15422 0.0
H314 H 0.63697 0.40434 0.12183 0.0
H315 H 0.6007 0.41152 0.18923 0.0
H316 H 0.62841 0.37515 0.21144 0.0
H317 H 0.53693 0.3369 0.17255 0.0
H318 H 0.56442 0.30047 0.19447 0.0
H319 H 0.49537 0.40553 0.1797 0.0
H320 H 0.58026 0.45427 0.16234 0.0
H321 H 0.46935 0.45608 0.18578 0.0
H322 H 0.55402 0.50457 0.1667 0.0
H323 H 0.38641 0.59088 0.1574 0.0
H324 H 0.3602 0.59704 0.12578 0.0
H325 H 0.44788 0.62987 0.10058 0.0
H326 H 0.47425 0.6227 0.13225 0.0
H327 H 0.46754 0.66239 0.1738 0.0
H328 H 0.44351 0.70013 0.19644 0.0
H329 H 0.37625 0.62913 0.21445 0.0
H330 H 0.40073 0.59131 0.19168 0.0
H331 H 0.41996 0.54621 0.16435 0.0
H332 H 0.44634 0.49579 0.16798 0.0
H333 H 0.53225 0.54401 0.18525 0.0
N334 N 0.44832 0.60447 0.16579 0.0
H335 H 0.50602 0.59463 0.17988 0.0
C336 C 0.56669 0.39403 0.14532 0.0
C337 C 0.54859 0.38318 0.12954 0.0
C338 C 0.56218 0.37957 0.11104 0.0
C339 C 0.59419 0.3871 0.10796 0.0
C340 C 0.61226 0.39834 0.12377 0.0
C341 C 0.59869 0.40172 0.14229 0.0
C342 C 0.56677 0.37671 0.17926 0.0
C343 C 0.59249 0.38742 0.19051 0.0
C344 C 0.6084 0.3666 0.20307 0.0
C345 C 0.59873 0.3349 0.20454 0.0
C346 C 0.57229 0.32478 0.19376 0.0
C347 C 0.55657 0.34548 0.18124 0.0
C348 C 0.53942 0.42599 0.17016 0.0
C349 C 0.5084 0.42719 0.17728 0.0
C350 C 0.49348 0.45618 0.18051 0.0
C351 C 0.50917 0.48473 0.17633 0.0
C352 C 0.54102 0.48334 0.17026 0.0
C353 C 0.5561 0.45434 0.16748 0.0
C354 C 0.43239 0.60646 0.14717 0.0
C355 C 0.4001 0.59917 0.14509 0.0
C356 C 0.38506 0.60291 0.12701 0.0
C357 C 0.40189 0.61435 0.11077 0.0
C358 C 0.43433 0.62089 0.11281 0.0
C359 C 0.44939 0.61695 0.13086 0.0
C360 C 0.43585 0.6243 0.18102 0.0
C361 C 0.44796 0.65487 0.18289 0.0
C362 C 0.43423 0.67631 0.19581 0.0
C363 C 0.40785 0.66763 0.20707 0.0
C364 C 0.39629 0.63654 0.20573 0.0
C365 C 0.41029 0.61494 0.19282 0.0
C366 C 0.46135 0.57432 0.17129 0.0
C367 C 0.44442 0.54604 0.16894 0.0
C368 C 0.4596 0.51697 0.17131 0.0
C369 C 0.49182 0.5155 0.17661 0.0
C370 C 0.50781 0.54399 0.18053 0.0
C371 C 0.49278 0.57301 0.17771 0.0
H372 H 0.37301 0.93424 0.40442 0.0
N373 N 0.42734 0.91845 0.42405 0.0
H374 H 0.35879 0.91854 0.37106 0.0
H375 H 0.46276 0.88684 0.39848 0.0
H376 H 0.44879 0.87167 0.36481 0.0
H377 H 0.40782 0.86199 0.43565 0.0
H378 H 0.36055 0.8492 0.4546 0.0
H379 H 0.38921 0.9613 0.44385 0.0
H380 H 0.34336 0.94861 0.46364 0.0
H381 H 0.41156 0.9783 0.4124 0.0
H382 H 0.48455 0.92301 0.43993 0.0
H383 H 0.44519 0.02493 0.41391 0.0
H384 H 0.51923 0.96924 0.44067 0.0
H385 H 0.57856 0.16019 0.402 0.0
H386 H 0.59971 0.16989 0.36928 0.0
H387 H 0.6141 0.06958 0.36166 0.0
H388 H 0.5955 0.06054 0.39499 0.0
H389 H 0.62023 0.06263 0.42843 0.0
H390 H 0.66701 0.07186 0.44876 0.0
H391 H 0.63283 0.16559 0.46208 0.0
H392 H 0.58529 0.15521 0.4428 0.0
H393 H 0.52588 0.08943 0.39599 0.0
H394 H 0.48965 0.04537 0.39824 0.0
H395 H 0.52991 0.01985 0.45415 0.0
N396 N 0.57327 0.10526 0.42055 0.0
H397 H 0.56709 0.06314 0.4516 0.0
C398 C 0.41891 0.91129 0.40404 0.0
C399 C 0.38974 0.92063 0.39592 0.0
C400 C 0.38162 0.91169 0.37689 0.0
C401 C 0.40273 0.89394 0.36548 0.0
C402 C 0.43224 0.88553 0.37333 0.0
C403 C 0.44017 0.89406 0.39248 0.0
C404 C 0.40228 0.91247 0.43803 0.0
C405 C 0.39403 0.88101 0.44191 0.0
C406 C 0.36703 0.87375 0.45279 0.0
C407 C 0.34775 0.89789 0.4603 0.0
C408 C 0.35708 0.92944 0.4575 0.0
C409 C 0.38376 0.93673 0.44628 0.0
C410 C 0.44553 0.94711 0.42621 0.0
C411 C 0.43481 0.97624 0.41889 0.0
C412 C 0.45429 0.00288 0.41959 0.0
C413 C 0.48518 1.00094 0.42724 0.0
C414 C 0.49551 0.97187 0.43492 0.0
C415 C 0.47581 0.94534 0.43444 0.0
C416 C 0.5851 0.10976 0.40088 0.0
C417 C 0.58651 0.1404 0.39327 0.0
C418 C 0.59842 0.14581 0.37452 0.0
C419 C 0.60879 0.12055 0.36278 0.0
C420 C 0.60721 0.08973 0.37041 0.0
C421 C 0.59612 0.08444 0.38941 0.0
C422 C 0.59894 0.1081 0.43444 0.0
C423 C 0.62243 0.08477 0.43622 0.0
C424 C 0.64928 0.09023 0.44773 0.0
C425 C 0.65367 0.1194 0.45726 0.0
C426 C 0.6299 0.14248 0.45557 0.0
C427 C 0.60276 0.13671 0.44443 0.0
C428 C 0.55132 0.07887 0.4228 0.0
C429 C 0.52761 0.07404 0.40859 0.0
C430 C 0.50632 0.04899 0.41007 0.0
C431 C 0.50707 0.02855 0.42625 0.0
C432 C 0.52931 0.03441 0.44114 0.0
C433 C 0.55092 0.05937 0.43957 0.0
H434 H 0.07301 0.87416 0.65282 0.0
N435 N 0.08967 0.92745 0.67335 0.0
H436 H 0.08936 0.86062 0.61966 0.0
H437 H 0.12129 0.96358 0.64813 0.0
H438 H 0.1371 0.95017 0.61445 0.0
H439 H 0.14586 0.91935 0.68994 0.0
H440 H 0.16383 0.87421 0.70943 0.0
H441 H 0.05228 0.87924 0.68706 0.0
H442 H 0.0702 0.83378 0.70594 0.0
H443 H 0.03019 0.91292 0.65978 0.0
H444 H 0.08298 0.97973 0.69439 0.0
H445 H 0.98313 0.94559 0.66269 0.0
H446 H 0.03543 0.01212 0.69818 0.0
H447 H 0.84056 0.07883 0.65858 0.0
H448 H 0.82802 0.09436 0.625 0.0
H449 H 0.923 0.07009 0.60736 0.0
H450 H 0.93619 0.05708 0.64073 0.0
H451 H 0.92015 0.12133 0.66426 0.0
H452 H 0.90818 0.17063 0.68143 0.0
H453 H 0.85643 0.11866 0.72519 0.0
H454 H 0.8678 0.06915 0.70766 0.0
H455 H 0.89667 1.00078 0.67948 0.0
H456 H 0.9424 0.96576 0.68291 0.0
H457 H 0.00466 0.04643 0.67852 0.0
N458 N 0.8968 0.06273 0.67323 0.0
H459 H 0.95903 0.08104 0.67579 0.0
C460 C 0.09647 0.91982 0.65318 0.0
C461 C 0.08696 0.89102 0.6447 0.0
C462 C 0.0962 0.88327 0.6257 0.0
C463 C 0.11464 0.90429 0.61471 0.0
C464 C 0.12288 0.93364 0.62274 0.0
C465 C 0.11397 0.94124 0.64189 0.0
C466 C 0.09779 0.90289 0.68712 0.0
C467 C 0.12907 0.9011 0.69384 0.0
C468 C 0.13933 0.87521 0.70481 0.0
C469 C 0.11843 0.85047 0.70929 0.0
C470 C 0.08675 0.85274 0.7031 0.0
C471 C 0.07646 0.87875 0.69221 0.0
C472 C 0.06039 0.94415 0.67667 0.0
C473 C 0.03159 0.9344 0.66827 0.0
C474 C 0.00448 0.95308 0.67012 0.0
C475 C 0.0054 0.98175 0.68055 0.0
C476 C 0.03392 0.99058 0.6897 0.0
C477 C 0.06107 0.972 0.68771 0.0
C478 C 0.88937 0.06721 0.65263 0.0
C479 C 0.85866 0.07677 0.64745 0.0
C480 C 0.85149 0.08552 0.62822 0.0
C481 C 0.87477 0.0843 0.61357 0.0
C482 C 0.90488 0.07261 0.61843 0.0
C483 C 0.91232 0.06471 0.63772 0.0
C484 C 0.89451 0.09147 0.6846 0.0
C485 C 0.90661 0.12038 0.67768 0.0
C486 C 0.89971 0.14853 0.68744 0.0
C487 C 0.88116 0.14828 0.70445 0.0
C488 C 0.87075 0.11932 0.71206 0.0
C489 C 0.87725 0.09116 0.70212 0.0
C490 C 0.92423 0.04348 0.67746 0.0
C491 C 0.92022 0.01085 0.67967 0.0
C492 C 0.94642 0.99088 0.68142 0.0
C493 C 0.97735 0.00315 0.68085 0.0
C494 C 0.98128 0.03608 0.67934 0.0
C495 C 0.95507 0.05603 0.67775 0.0
In496 In 0.33124 0.67679 0.00163 0.0
O497 O 0.31944 0.72921 0.0065 0.0
O498 O 0.36637 0.71369 0.01202 0.0
C499 C 0.2705 0.66536 0.99114 0.0
C500 C 0.3469 0.64869 0.03576 0.0
C501 C 0.36181 0.65812 0.96877 0.0
O502 O 0.28571 0.68919 0.98525 0.0
O503 O 0.28555 0.64809 0.00294 0.0
O504 O 0.34507 0.63968 0.97884 0.0
O505 O 0.36371 0.68576 0.97544 0.0
C506 C 0.34703 0.73632 0.01214 0.0
O507 O 0.3617 0.64352 0.02004 0.0
O508 O 0.3235 0.66694 0.03399 0.0
In509 In 0.33533 0.83673 0.25386 0.0
O510 O 0.32529 0.78657 0.24261 0.0
O511 O 0.37148 0.7969 0.25269 0.0
C512 C 0.27666 0.85547 0.26408 0.0
C513 C 0.34933 0.86563 0.21956 0.0
C514 C 0.36152 0.85207 0.28858 0.0
O515 O 0.28308 0.82691 0.26041 0.0
O516 O 0.2995 0.87434 0.26196 0.0
O517 O 0.36876 0.866 0.27287 0.0
O518 O 0.34171 0.82997 0.28665 0.0
C519 C 0.35317 0.77681 0.24517 0.0
O520 O 0.36899 0.86329 0.23337 0.0
O521 O 0.32258 0.85394 0.22322 0.0
In522 In 0.16974 0.83565 0.5031 0.0
O523 O 0.1411 0.86904 0.52277 0.0
O524 O 0.1788 0.84315 0.5355 0.0
C525 C 0.14305 0.846 0.46779 0.0
C526 C 0.15346 0.77538 0.51164 0.0
C527 C 0.2275 0.85875 0.49403 0.0
O528 O 0.13352 0.85971 0.48312 0.0
O529 O 0.16491 0.82623 0.47053 0.0
O530 O 0.22315 0.83017 0.49853 0.0
O531 O 0.20304 0.87572 0.49487 0.0
C532 C 0.15639 0.86228 0.53808 0.0
O533 O 0.18178 0.78409 0.50938 0.0
O534 O 0.1333 0.79688 0.50887 0.0
In535 In 0.17579 0.67097 0.75242 0.0
O536 O 0.14676 0.63692 0.77132 0.0
O537 O 0.1614 0.68035 0.7839 0.0
C538 C 0.1588 0.64213 0.71865 0.0
C539 C 0.23545 0.6557 0.76333 0.0
C540 C 0.16122 0.73107 0.74226 0.0
O541 O 0.13881 0.65203 0.73088 0.0
O542 O 0.18722 0.64637 0.72354 0.0
O543 O 0.18713 0.71831 0.73752 0.0
O544 O 0.14332 0.71375 0.75233 0.0
C545 C 0.14691 0.65462 0.7862 0.0
O546 O 0.22597 0.68398 0.76256 0.0
O547 O 0.21501 0.63556 0.75836 0.0
In548 In 0.83384 0.1692 0.50402 0.0
O549 O 0.82618 0.22292 0.50786 0.0
O550 O 0.86802 0.20228 0.51916 0.0
C551 C 0.77518 0.15215 0.49231 0.0
C552 C 0.84559 0.13494 0.5365 0.0
C553 C 0.8659 0.16055 0.4703 0.0
O554 O 0.77986 0.17589 0.50318 0.0
O555 O 0.79983 0.1371 0.48778 0.0
O556 O 0.86584 0.14059 0.484 0.0
O557 O 0.85017 0.18524 0.47377 0.0
C558 C 0.85184 0.22693 0.51705 0.0
O559 O 0.86607 0.13998 0.52348 0.0
O560 O 0.81851 0.14594 0.53281 0.0
In561 In 0.83683 0.32877 0.75155 0.0
O562 O 0.87443 0.34904 0.73088 0.0
O563 O 0.82623 0.35652 0.7238 0.0
C564 C 0.86807 0.34076 0.7852 0.0
C565 C 0.84576 0.26868 0.73891 0.0
C566 C 0.77915 0.34802 0.76389 0.0
O567 O 0.87256 0.35653 0.76976 0.0
O568 O 0.8485 0.31839 0.78343 0.0
O569 O 0.78455 0.31977 0.75901 0.0
O570 O 0.8025 0.36628 0.76214 0.0
C571 C 0.8547 0.36046 0.71897 0.0
O572 O 0.82376 0.28609 0.73271 0.0
O573 O 0.86256 0.28109 0.75208 0.0
In574 In 0.67246 0.32745 0.99984 0.0
O575 O 0.687 0.27947 0.01217 0.0
O576 O 0.6394 0.28502 0.00299 0.0
C577 C 0.73238 0.34472 0.99051 0.0
C578 C 0.65034 0.35408 0.03307 0.0
C579 C 0.64501 0.34394 0.96558 0.0
O580 O 0.7217 0.31737 0.98733 0.0
O581 O 0.71313 0.36295 0.9989 0.0
O582 O 0.64891 0.3631 0.9795 0.0
O583 O 0.65447 0.31627 0.96907 0.0
C584 C 0.6599 0.2672 0.01062 0.0
O585 O 0.63499 0.35418 0.01724 0.0
O586 O 0.67722 0.34127 0.03198 0.0
In587 In 0.68454 0.17248 0.25213 0.0
O588 O 0.67049 0.13348 0.27368 0.0
O589 O 0.65705 0.18056 0.28034 0.0
C590 C 0.67151 0.1445 0.21741 0.0
C591 C 0.7456 0.16548 0.26333 0.0
C592 C 0.66156 0.22979 0.24234 0.0
O593 O 0.65538 0.13929 0.23261 0.0
O594 O 0.69446 0.16302 0.21996 0.0
O595 O 0.69087 0.22376 0.24204 0.0
O596 O 0.64439 0.20724 0.24803 0.0
C597 C 0.65718 0.15204 0.28552 0.0
O598 O 0.7301 0.19039 0.26667 0.0
O599 O 0.73055 0.1448 0.25388 0.0
C600 C 0.1888 0.8564 0.2758 0.0
C601 C 0.18558 0.88342 0.28767 0.0
C602 C 0.21824 0.84765 0.268 0.0
C603 C 0.24549 0.8658 0.27157 0.0
H604 H 0.16842 0.84178 0.27259 0.0
H605 H 0.21967 0.8265 0.25913 0.0
S606 S 0.25042 0.93756 0.30258 0.0
N607 N 0.21279 0.92728 0.30339 0.0
N608 N 0.26767 0.91151 0.28816 0.0
C609 C 0.24262 0.89298 0.28325 0.0
C610 C 0.2128 0.90163 0.29143 0.0
C611 C 0.10355 0.70713 0.53028 0.0
C612 C 0.12626 0.68467 0.53597 0.0
C613 C 0.11252 0.7359 0.52177 0.0
C614 C 0.14459 0.74343 0.51868 0.0
H615 H 0.07863 0.70257 0.53265 0.0
H616 H 0.09416 0.75265 0.51799 0.0
S617 S 0.21333 0.69262 0.53099 0.0
N618 N 0.18223 0.67188 0.5379 0.0
N619 N 0.1991 0.72566 0.52171 0.0
C620 C 0.16751 0.72086 0.5239 0.0
C621 C 0.15836 0.69157 0.53258 0.0
C622 C 0.31583 0.66054 0.78815 0.0
C623 C 0.32674 0.62915 0.78752 0.0
C624 C 0.28671 0.66911 0.77983 0.0
C625 C 0.2673 0.64661 0.77057 0.0
H626 H 0.32947 0.67849 0.79567 0.0
H627 H 0.279 0.6934 0.78114 0.0
S628 S 0.28657 0.56191 0.76315 0.0
N629 N 0.31703 0.57605 0.7755 0.0
N630 N 0.26219 0.59193 0.76007 0.0
C631 C 0.27844 0.61535 0.76925 0.0
C632 C 0.30813 0.60667 0.77768 0.0
C633 C 0.39122 0.79996 0.03995 0.0
C634 C 0.37343 0.82743 0.03635 0.0
C635 C 0.38278 0.77091 0.03169 0.0
C636 C 0.35594 0.76792 0.01966 0.0
H637 H 0.41145 0.80064 0.04968 0.0
H638 H 0.39703 0.75043 0.03522 0.0
S639 S 0.30272 0.83286 0.00422 0.0
N640 N 0.32891 0.8501 0.01865 0.0
N641 N 0.31244 0.79512 0.00367 0.0
C642 C 0.33818 0.79517 0.0156 0.0
C643 C 0.34704 0.82497 0.02382 0.0
C644 C 0.19579 0.61782 0.98153 0.0
C645 C 0.18089 0.63472 0.9664 0.0
C646 C 0.22414 0.62855 0.98992 0.0
C647 C 0.23882 0.65652 0.98346 0.0
H648 H 0.1856 0.59597 0.9868 0.0
H649 H 0.23497 0.61438 1.00129 0.0
S650 S 0.20943 0.70939 0.94414 0.0
N651 N 0.18298 0.68079 0.94523 0.0
N652 N 0.23594 0.70113 0.96113 0.0
C653 C 0.22382 0.67397 0.9686 0.0
C654 C 0.19497 0.66304 0.96005 0.0
C655 C 0.41002 0.71127 0.23167 0.0
C656 C 0.39191 0.69189 0.21927 0.0
C657 C 0.39674 0.73767 0.24086 0.0
C658 C 0.36481 0.74589 0.23794 0.0
H659 H 0.43499 0.70658 0.23376 0.0
H660 H 0.41203 0.75246 0.2497 0.0
S661 S 0.30666 0.70151 0.20789 0.0
N662 N 0.33999 0.68163 0.20536 0.0
N663 N 0.31486 0.73117 0.22274 0.0
C664 C 0.34598 0.72573 0.22641 0.0
C665 C 0.35956 0.69875 0.21706 0.0
C666 C 0.31544 0.86463 0.48333 0.0
C667 C 0.31719 0.88996 0.47002 0.0
C668 C 0.28645 0.85506 0.49139 0.0
C669 C 0.25816 0.87073 0.48666 0.0
H670 H 0.33662 0.85183 0.4874 0.0
H671 H 0.28618 0.83509 0.50127 0.0
S672 S 0.24937 0.93757 0.45203 0.0
N673 N 0.2876 0.92972 0.45197 0.0
N674 N 0.23349 0.91251 0.46767 0.0
C675 C 0.25956 0.89643 0.47368 0.0
C676 C 0.28897 0.90587 0.46524 0.0
C677 C 0.15806 0.80669 0.71245 0.0
C678 C 0.1302 0.82138 0.71913 0.0
C679 C 0.1685 0.77801 0.72044 0.0
C680 C 0.15144 0.76284 0.73538 0.0
H681 H 0.17142 0.8169 0.70051 0.0
H682 H 0.1896 0.76723 0.71444 0.0
S683 S 0.07881 0.79319 0.75945 0.0
N684 N 0.0872 0.8199 0.74267 0.0
N685 N 0.10645 0.76585 0.75751 0.0
C686 C 0.12414 0.77783 0.74267 0.0
C687 C 0.11359 0.80709 0.73457 0.0
C688 C 0.69126 0.35135 0.77548 0.0
C689 C 0.68873 0.37831 0.78748 0.0
C690 C 0.72053 0.34171 0.76784 0.0
C691 C 0.74833 0.35885 0.7717 0.0
H692 H 0.67044 0.33753 0.77199 0.0
H693 H 0.72135 0.32075 0.75876 0.0
S694 S 0.7551 0.42994 0.80319 0.0
N695 N 0.71712 0.42094 0.80367 0.0
N696 N 0.77174 0.4035 0.78876 0.0
C697 C 0.74617 0.38588 0.78359 0.0
C698 C 0.7165 0.39545 0.79159 0.0
C699 C 0.61184 0.19555 0.02608 0.0
C700 C 0.63383 0.17724 0.03656 0.0
C701 C 0.62075 0.22406 0.0172 0.0
C702 C 0.65197 0.23551 0.01853 0.0
H703 H 0.58746 0.1879 0.02488 0.0
H704 H 0.6028 0.23754 0.00957 0.0
S705 S 0.71856 0.1965 0.04444 0.0
N706 N 0.68819 0.17264 0.04784 0.0
N707 N 0.70502 0.22593 0.03101 0.0
C708 C 0.67433 0.21712 0.02867 0.0
C709 C 0.66525 0.18809 0.03771 0.0
C710 C 0.8216 0.12252 0.27622 0.0
C711 C 0.83731 0.14386 0.28862 0.0
C712 C 0.79252 0.13023 0.26759 0.0
C713 C 0.77785 0.15954 0.27112 0.0
H714 H 0.83171 0.09949 0.27332 0.0
H715 H 0.78113 0.11272 0.25842 0.0
S716 S 0.80944 0.22388 0.30242 0.0
N717 N 0.83626 0.19566 0.30392 0.0
N718 N 0.78171 0.21028 0.28762 0.0
C719 C 0.79367 0.1814 0.28316 0.0
C720 C 0.82336 0.17354 0.29192 0.0
C721 C 0.85905 0.31536 0.526 0.0
C722 C 0.88216 0.31715 0.54084 0.0
C723 C 0.84919 0.28614 0.51836 0.0
C724 C 0.86222 0.25768 0.52521 0.0
H725 H 0.84857 0.33672 0.52019 0.0
H726 H 0.83144 0.28589 0.50693 0.0
S727 S 0.92155 0.2492 0.56499 0.0
N728 N 0.91623 0.28764 0.56292 0.0
N729 N 0.89842 0.23303 0.5483 0.0
C730 C 0.88516 0.25913 0.54014 0.0
C731 C 0.89496 0.28877 0.548 0.0
C732 C 0.7129 0.11771 0.4586 0.0
C733 C 0.68414 0.12669 0.46736 0.0
C734 C 0.74205 0.12563 0.46703 0.0
C735 C 0.74377 0.1433 0.48442 0.0
H736 H 0.71302 0.1051 0.44482 0.0
H737 H 0.76345 0.11848 0.45954 0.0
S738 S 0.67577 0.17051 0.51418 0.0
N739 N 0.6594 0.15229 0.49534 0.0
N740 N 0.71436 0.16825 0.51072 0.0
C741 C 0.71535 0.1521 0.49355 0.0
C742 C 0.68554 0.14357 0.48514 0.0
C743 C 0.88049 0.1865 0.73248 0.0
C744 C 0.87093 0.17839 0.71343 0.0
C745 C 0.8719 0.21564 0.74076 0.0
C746 C 0.85288 0.23727 0.73043 0.0
H747 H 0.89525 0.17053 0.74083 0.0
H748 H 0.88032 0.22129 0.75532 0.0
S749 S 0.82073 0.22619 0.68032 0.0
N750 N 0.84102 0.19364 0.68464 0.0
N751 N 0.82425 0.24799 0.70024 0.0
C752 C 0.84255 0.22892 0.71154 0.0
C753 C 0.85176 0.19958 0.70303 0.0
C754 C 0.81354 0.34277 0.96669 0.0
C755 C 0.82275 0.37467 0.96676 0.0
C756 C 0.78467 0.33319 0.97487 0.0
C757 C 0.76401 0.35511 0.9836 0.0
H758 H 0.82828 0.3252 0.95966 0.0
H759 H 0.77824 0.30848 0.97398 0.0
S760 S 0.77858 0.44115 0.98902 0.0
N761 N 0.81001 0.4279 0.97728 0.0
N762 N 0.75583 0.41006 0.99278 0.0
C763 C 0.77355 0.38696 0.98442 0.0
C764 C 0.80286 0.3967 0.97594 0.0
C765 C 0.59995 0.29082 0.22883 0.0
C766 C 0.61653 0.31159 0.2165 0.0
C767 C 0.61516 0.26538 0.23788 0.0
C768 C 0.64762 0.25964 0.23501 0.0
H769 H 0.57473 0.29368 0.231 0.0
H770 H 0.60107 0.24947 0.2467 0.0
S771 S 0.70221 0.30817 0.20499 0.0
N772 N 0.6675 0.32561 0.20254 0.0
N773 N 0.69628 0.27796 0.21981 0.0
C774 C 0.66488 0.28117 0.22353 0.0
C775 C 0.6493 0.3071 0.21423 0.0
C776 C 0.09334 0.88213 0.42716 0.0
C777 C 0.11091 0.87498 0.41027 0.0
C778 C 0.10359 0.87223 0.44572 0.0
C779 C 0.13143 0.85435 0.44798 0.0
H780 H 0.07197 0.89612 0.42604 0.0
H781 H 0.08973 0.87886 0.4584 0.0
S782 S 0.1848 0.82807 0.40803 0.0
N783 N 0.15668 0.84813 0.39679 0.0
N784 N 0.17582 0.82917 0.43152 0.0
C785 C 0.14868 0.84635 0.43108 0.0
C786 C 0.13846 0.85678 0.41227 0.0
C787 C 0.1139 0.62801 0.67147 0.0
C788 C 0.13323 0.60638 0.66133 0.0
C789 C 0.12185 0.63866 0.69026 0.0
C790 C 0.14974 0.62858 0.69953 0.0
H791 H 0.0928 0.63746 0.66465 0.0
H792 H 0.10655 0.65572 0.69731 0.0
S793 S 0.20693 0.56989 0.68046 0.0
N794 N 0.18014 0.57312 0.66298 0.0
N795 N 0.19578 0.59446 0.69789 0.0
C796 C 0.16899 0.60657 0.68985 0.0
C797 C 0.1606 0.59518 0.67086 0.0
C798 C 0.37288 0.61726 0.91997 0.0
C799 C 0.39937 0.63272 0.91194 0.0
C800 C 0.36155 0.62495 0.93864 0.0
C801 C 0.37592 0.64875 0.94988 0.0
H802 H 0.36025 0.59958 0.91159 0.0
H803 H 0.34072 0.61284 0.94402 0.0
S804 S 0.44775 0.69416 0.93668 0.0
N805 N 0.44138 0.67099 0.91764 0.0
N806 N 0.41907 0.68639 0.95234 0.0
C807 C 0.40277 0.66394 0.94231 0.0
C808 C 0.41472 0.65572 0.92344 0.0
C809 C 0.39811 0.89369 0.17631 0.0
C810 C 0.37502 0.90072 0.16215 0.0
C811 C 0.38954 0.88331 0.19506 0.0
C812 C 0.35759 0.87908 0.20022 0.0
H813 H 0.42298 0.89614 0.17282 0.0
H814 H 0.40816 0.87782 0.20542 0.0
S815 S 0.28813 0.89442 0.16833 0.0
N816 N 0.31896 0.9031 0.15452 0.0
N817 N 0.30276 0.88332 0.18965 0.0
C818 C 0.33427 0.88637 0.18622 0.0
C819 C 0.34301 0.89727 0.16722 0.0
C820 C 0.11458 0.60393 0.82739 0.0
C821 C 0.10928 0.62599 0.84241 0.0
C822 C 0.1258 0.6135 0.80901 0.0
C823 C 0.13266 0.6454 0.80514 0.0
H824 H 0.11023 0.57906 0.82993 0.0
H825 H 0.12994 0.59566 0.79795 0.0
S826 S 0.12242 0.71237 0.83962 0.0
N827 N 0.1112 0.68105 0.8522 0.0
N828 N 0.13257 0.69912 0.81778 0.0
C829 C 0.12703 0.66772 0.82 0.0
C830 C 0.11525 0.658 0.8386 0.0
C831 C 0.39918 0.61048 0.07419 0.0
C832 C 0.38563 0.62069 0.09189 0.0
C833 C 0.38571 0.6185 0.05611 0.0
C834 C 0.35821 0.63714 0.05502 0.0
H835 H 0.42067 0.59655 0.07432 0.0
H836 H 0.39747 0.61073 0.04289 0.0
S837 S 0.31319 0.66937 0.09718 0.0
N838 N 0.34295 0.65007 0.10723 0.0
N839 N 0.31733 0.66477 0.07333 0.0
C840 C 0.34386 0.64669 0.07264 0.0
C841 C 0.35764 0.63856 0.09105 0.0
C842 C 0.36599 0.86458 0.34343 0.0
C843 C 0.3933 0.88313 0.34572 0.0
C844 C 0.3564 0.85403 0.32492 0.0
C845 C 0.37346 0.86213 0.30798 0.0
H846 H 0.35202 0.85805 0.35608 0.0
H847 H 0.33507 0.83994 0.32387 0.0
S848 S 0.44671 0.91032 0.30622 0.0
N849 N 0.4375 0.90895 0.32969 0.0
N850 N 0.41917 0.8897 0.29475 0.0
C851 C 0.40086 0.88068 0.31009 0.0
C852 C 0.41089 0.89099 0.32901 0.0
C853 C 0.11726 0.91054 0.57828 0.0
C854 C 0.1267 0.89459 0.59533 0.0
C855 C 0.12723 0.9002 0.55975 0.0
C856 C 0.14745 0.87398 0.55774 0.0
H857 H 0.10149 0.93063 0.57927 0.0
H858 H 0.11893 0.91272 0.54692 0.0
S859 S 0.17975 0.8252 0.59825 0.0
N860 N 0.15776 0.85203 0.60926 0.0
N861 N 0.17705 0.83285 0.57462 0.0
C862 C 0.15763 0.85842 0.57482 0.0
C863 C 0.14709 0.86866 0.59358 0.0
C864 C 0.61749 0.39622 0.92379 0.0
C865 C 0.61033 0.37446 0.90891 0.0
C866 C 0.62791 0.38605 0.94223 0.0
C867 C 0.63197 0.35375 0.94637 0.0
H868 H 0.61508 0.42131 0.92115 0.0
H869 H 0.6334 0.40373 0.95317 0.0
S870 S 0.61659 0.28732 0.91221 0.0
N871 N 0.60795 0.31924 0.89943 0.0
N872 N 0.62767 0.30003 0.93401 0.0
C873 C 0.62464 0.33173 0.93162 0.0
C874 C 0.61377 0.34211 0.91292 0.0
C875 C 0.62599 0.10244 0.17709 0.0
C876 C 0.64381 0.10925 0.16024 0.0
C877 C 0.63552 0.11328 0.19559 0.0
C878 C 0.6631 0.13153 0.19791 0.0
H879 H 0.60452 0.08859 0.17597 0.0
H880 H 0.62087 0.10766 0.20811 0.0
S881 S 0.71766 0.1564 0.15821 0.0
N882 N 0.69002 0.1357 0.14695 0.0
N883 N 0.70811 0.15593 0.18162 0.0
C884 C 0.68123 0.13832 0.18114 0.0
C885 C 0.67155 0.12721 0.16234 0.0
C886 C 0.88764 0.16868 0.41668 0.0
C887 C 0.90543 0.14127 0.41304 0.0
C888 C 0.87568 0.17516 0.43538 0.0
C889 C 0.88111 0.15449 0.45115 0.0
H890 H 0.88213 0.18479 0.40485 0.0
H891 H 0.86142 0.19616 0.43734 0.0
S892 S 0.92915 0.08118 0.44967 0.0
N893 N 0.93005 0.09461 0.427 0.0
N894 N 0.90738 0.10653 0.46211 0.0
C895 C 0.89983 0.12755 0.44784 0.0
C896 C 0.91201 0.12099 0.4288 0.0
C897 C 0.9054 0.38725 0.67623 0.0
C898 C 0.88295 0.39799 0.66257 0.0
C899 C 0.89616 0.37613 0.69469 0.0
C900 C 0.86407 0.37515 0.70015 0.0
H901 H 0.93032 0.38712 0.67254 0.0
H902 H 0.91428 0.36759 0.70457 0.0
S903 S 0.79601 0.40083 0.66966 0.0
N904 N 0.82728 0.40712 0.65575 0.0
N905 N 0.80984 0.38659 0.69045 0.0
C906 C 0.84143 0.38648 0.68675 0.0
C907 C 0.85088 0.39782 0.66798 0.0
C908 C 0.60567 0.1493 0.33072 0.0
C909 C 0.6208 0.12668 0.3426 0.0
C910 C 0.61733 0.15699 0.31214 0.0
C911 C 0.64409 0.14179 0.30448 0.0
H912 H 0.58467 0.16139 0.33583 0.0
H913 H 0.60529 0.17499 0.3037 0.0
S914 S 0.69315 0.08161 0.32949 0.0
N915 N 0.66499 0.09004 0.34538 0.0
N916 N 0.68573 0.1034 0.31 0.0
C917 C 0.65912 0.11867 0.31588 0.0
C918 C 0.64774 0.11134 0.33503 0.0
C919 C 0.83903 0.08972 0.58425 0.0
C920 C 0.86807 0.09643 0.59352 0.0
C921 C 0.83188 0.10198 0.56567 0.0
C922 C 0.85378 0.1208 0.55556 0.0
H923 H 0.82164 0.07492 0.5914 0.0
H924 H 0.80915 0.09658 0.55915 0.0
S925 S 0.93177 0.14789 0.57387 0.0
N926 N 0.91772 0.12546 0.59159 0.0
N927 N 0.90484 0.14702 0.55639 0.0
C928 C 0.88282 0.12772 0.56458 0.0
C929 C 0.88984 0.11589 0.58362 0.0
C930 C 0.88615 0.34012 0.83961 0.0
C931 C 0.90512 0.36709 0.84215 0.0
C932 C 0.87506 0.33134 0.82106 0.0
C933 C 0.8826 0.34909 0.80429 0.0
H934 H 0.87897 0.32624 0.85215 0.0
H935 H 0.85985 0.31083 0.81996 0.0
S936 S 0.93399 0.42016 0.8029 0.0
N937 N 0.93281 0.41027 0.82625 0.0
N938 N 0.9119 0.39393 0.79135 0.0
C939 C 0.90251 0.37551 0.80655 0.0
C940 C 0.91373 0.38449 0.82547 0.0
C941 C 0.63818 0.36516 0.08758 0.0
C942 C 0.6092 0.38141 0.08862 0.0
C943 C 0.6518 0.3574 0.06953 0.0
C944 C 0.63693 0.36545 0.0518 0.0
H945 H 0.64997 0.35747 0.10083 0.0
H946 H 0.67369 0.34412 0.06952 0.0
S947 S 0.56251 0.41111 0.04649 0.0
N948 N 0.56746 0.4077 0.07036 0.0
N949 N 0.59274 0.39259 0.0364 0.0
C950 C 0.60852 0.38268 0.05261 0.0
C951 C 0.59472 0.39074 0.07101 0.0
loop_
_geom_bond_atom_site_label_1
_geom_bond_atom_site_label_2
_geom_bond_distance
_geom_bond_site_symmetry_2
_ccdc_geom_bond_type
H0 C27 0.929 . S
N1 C26 1.433 . S
N1 C32 1.435 . S
N1 C38 1.423 . S
H2 C28 0.930 . S
H3 C31 0.931 . S
H4 C30 0.929 . S
H5 C33 0.930 . S
H6 C34 0.932 . S
H7 C37 0.929 . S
H8 C36 0.931 . S
H9 C39 0.929 . S
H10 C43 0.932 . S
H11 C40 0.931 . S
H12 C42 0.929 . S
H13 C45 0.929 . S
H14 C46 0.930 . S
H15 C48 0.929 . S
H16 C49 0.931 . S
H17 C51 0.930 . S
H18 C52 0.932 . S
H19 C54 0.931 . S
H20 C55 0.929 . S
H21 C57 0.929 . S
H22 C58 0.931 1_455 S
H23 C60 0.929 . S
N24 C44 1.433 . S
N24 C50 1.435 . S
N24 C56 1.423 . S
H25 C61 0.932 . S
C26 N1 1.433 . S
C26 C27 1.363 . S
C26 C31 1.370 . S
C27 H0 0.929 . S
C27 C26 1.363 . S
C27 C28 1.385 . S
C28 H2 0.930 . S
C28 C27 1.385 . S
C28 C29 1.357 . S
C29 C28 1.357 . S
C29 C30 1.406 . S
C30 H4 0.929 . S
C30 C29 1.406 . S
C30 C31 1.391 . S
C31 H3 0.931 . S
C31 C26 1.370 . S
C31 C30 1.391 . S
C32 N1 1.435 . S
C32 C33 1.358 . S
C32 C37 1.371 . S
C33 H5 0.930 . S
C33 C32 1.358 . S
C33 C34 1.405 . S
C34 H6 0.932 . S
C34 C33 1.405 . S
C34 C35 1.383 . S
C35 C34 1.383 . S
C35 C36 1.393 . S
C36 H8 0.931 . S
C36 C35 1.393 . S
C36 C37 1.382 . S
C37 H7 0.929 . S
C37 C32 1.371 . S
C37 C36 1.382 . S
C38 N1 1.423 . S
C38 C39 1.362 . S
C38 C43 1.388 . S
C39 H9 0.929 . S
C39 C38 1.362 . S
C39 C40 1.376 1_565 S
C40 H11 0.931 . S
C40 C39 1.376 1_545 S
C40 C41 1.396 . S
C41 C40 1.396 . S
C41 C42 1.348 1_545 S
C41 C59 1.472 . S
C42 H12 0.929 . S
C42 C41 1.348 1_565 S
C42 C43 1.443 . S
C43 H10 0.932 . S
C43 C38 1.388 . S
C43 C42 1.443 . S
C44 N24 1.433 . S
C44 C45 1.363 . S
C44 C49 1.370 . S
C45 H13 0.929 . S
C45 C44 1.363 . S
C45 C46 1.385 . S
C46 H14 0.930 . S
C46 C45 1.385 . S
C46 C47 1.357 . S
C47 C46 1.357 . S
C47 C48 1.406 . S
C48 H15 0.929 . S
C48 C47 1.406 . S
C48 C49 1.391 . S
C49 H16 0.931 . S
C49 C44 1.370 . S
C49 C48 1.391 . S
C50 N24 1.435 . S
C50 C51 1.358 . S
C50 C55 1.371 . S
C51 H17 0.930 . S
C51 C50 1.358 . S
C51 C52 1.405 . S
C52 H18 0.932 . S
C52 C51 1.405 . S
C52 C53 1.383 . S
C53 C52 1.383 . S
C53 C54 1.393 . S
C54 H19 0.931 . S
C54 C53 1.393 . S
C54 C55 1.382 . S
C55 H20 0.929 . S
C55 C50 1.371 . S
C55 C54 1.382 . S
C56 N24 1.423 . S
C56 C57 1.362 . S
C56 C61 1.388 . S
C57 H21 0.929 . S
C57 C56 1.362 . S
C57 C58 1.376 . S
C58 H22 0.931 1_655 S
C58 C57 1.376 . S
C58 C59 1.396 1_655 S
C59 C41 1.472 . S
C59 C58 1.396 1_455 S
C59 C60 1.348 1_455 S
C60 H23 0.929 . S
C60 C59 1.348 1_655 S
C60 C61 1.443 . S
C61 H25 0.932 . S
C61 C56 1.388 . S
C61 C60 1.443 . S
H62 C89 0.929 . S
N63 C88 1.433 . S
N63 C94 1.435 . S
N63 C100 1.423 . S
H64 C90 0.930 . S
H65 C93 0.931 . S
H66 C92 0.929 . S
H67 C95 0.930 . S
H68 C96 0.932 . S
H69 C99 0.929 . S
H70 C98 0.931 . S
H71 C101 0.929 . S
H72 C105 0.932 . S
H73 C102 0.931 . S
H74 C104 0.929 . S
H75 C107 0.929 . S
H76 C108 0.930 . S
H77 C110 0.929 . S
H78 C111 0.931 . S
H79 C113 0.930 . S
H80 C114 0.932 . S
H81 C116 0.931 . S
H82 C117 0.929 . S
H83 C119 0.929 . S
H84 C120 0.931 . S
H85 C122 0.929 . S
N86 C106 1.433 . S
N86 C112 1.435 . S
N86 C118 1.423 . S
H87 C123 0.932 . S
C88 N63 1.433 . S
C88 C89 1.363 . S
C88 C93 1.370 . S
C89 H62 0.929 . S
C89 C88 1.363 . S
C89 C90 1.385 . S
C90 H64 0.930 . S
C90 C89 1.385 . S
C90 C91 1.357 . S
C91 C90 1.357 . S
C91 C92 1.406 . S
C92 H66 0.929 . S
C92 C91 1.406 . S
C92 C93 1.391 . S
C93 H65 0.931 . S
C93 C88 1.370 . S
C93 C92 1.391 . S
C94 N63 1.435 . S
C94 C95 1.358 . S
C94 C99 1.371 . S
C95 H67 0.930 . S
C95 C94 1.358 . S
C95 C96 1.405 . S
C96 H68 0.932 . S
C96 C95 1.405 . S
C96 C97 1.383 . S
C97 C96 1.383 . S
C97 C98 1.393 . S
C98 H70 0.931 . S
C98 C97 1.393 . S
C98 C99 1.382 . S
C99 H69 0.929 . S
C99 C94 1.371 . S
C99 C98 1.382 . S
C100 N63 1.423 . S
C100 C101 1.362 . S
C100 C105 1.388 . S
C101 H71 0.929 . S
C101 C100 1.362 . S
C101 C102 1.376 1_655 S
C102 H73 0.931 . S
C102 C101 1.376 1_455 S
C102 C103 1.396 . S
C103 C102 1.396 . S
C103 C104 1.348 1_455 S
C103 C121 1.472 . S
C104 H74 0.929 . S
C104 C103 1.348 1_655 S
C104 C105 1.443 . S
C105 H72 0.932 . S
C105 C100 1.388 . S
C105 C104 1.443 . S
C106 N86 1.433 . S
C106 C107 1.363 . S
C106 C111 1.370 . S
C107 H75 0.929 . S
C107 C106 1.363 . S
C107 C108 1.385 . S
C108 H76 0.930 . S
C108 C107 1.385 . S
C108 C109 1.357 . S
C109 C108 1.357 . S
C109 C110 1.406 . S
C110 H77 0.929 . S
C110 C109 1.406 . S
C110 C111 1.391 . S
C111 H78 0.931 . S
C111 C106 1.370 . S
C111 C110 1.391 . S
C112 N86 1.435 . S
C112 C113 1.358 . S
C112 C117 1.371 . S
C113 H79 0.930 . S
C113 C112 1.358 . S
C113 C114 1.405 . S
C114 H80 0.932 . S
C114 C113 1.405 . S
C114 C115 1.383 . S
C115 C114 1.383 . S
C115 C116 1.393 . S
C116 H81 0.931 . S
C116 C115 1.393 . S
C116 C117 1.382 . S
C117 H82 0.929 . S
C117 C112 1.371 . S
C117 C116 1.382 . S
C118 N86 1.423 . S
C118 C119 1.362 . S
C118 C123 1.388 . S
C119 H83 0.929 . S
C119 C118 1.362 . S
C119 C120 1.376 . S
C120 H84 0.931 . S
C120 C119 1.376 . S
C120 C121 1.396 . S
C121 C103 1.472 . S
C121 C120 1.396 . S
C121 C122 1.348 . S
C122 H85 0.929 . S
C122 C121 1.348 . S
C122 C123 1.443 . S
C123 H87 0.932 . S
C123 C118 1.388 . S
C123 C122 1.443 . S
H124 C151 0.929 . S
N125 C150 1.433 . S
N125 C156 1.435 . S
N125 C162 1.423 . S
H126 C152 0.930 . S
H127 C155 0.931 . S
H128 C154 0.929 . S
H129 C157 0.930 . S
H130 C158 0.932 . S
H131 C161 0.929 . S
H132 C160 0.931 . S
H133 C163 0.929 . S
H134 C167 0.932 . S
H135 C164 0.931 . S
H136 C166 0.929 . S
H137 C169 0.929 . S
H138 C170 0.930 . S
H139 C172 0.929 . S
H140 C173 0.931 . S
H141 C175 0.930 . S
H142 C176 0.932 . S
H143 C178 0.931 . S
H144 C179 0.929 . S
H145 C181 0.929 . S
H146 C182 0.931 . S
H147 C184 0.929 . S
N148 C168 1.433 . S
N148 C174 1.435 . S
N148 C180 1.423 . S
H149 C185 0.932 . S
C150 N125 1.433 . S
C150 C151 1.363 . S
C150 C155 1.370 . S
C151 H124 0.929 . S
C151 C150 1.363 . S
C151 C152 1.385 . S
C152 H126 0.930 . S
C152 C151 1.385 . S
C152 C153 1.357 . S
C153 C152 1.357 . S
C153 C154 1.406 . S
C154 H128 0.929 . S
C154 C153 1.406 . S
C154 C155 1.391 . S
C155 H127 0.931 . S
C155 C150 1.370 . S
C155 C154 1.391 . S
C156 N125 1.435 . S
C156 C157 1.358 . S
C156 C161 1.371 . S
C157 H129 0.930 . S
C157 C156 1.358 . S
C157 C158 1.405 . S
C158 H130 0.932 . S
C158 C157 1.405 . S
C158 C159 1.383 . S
C159 C158 1.383 . S
C159 C160 1.393 . S
C160 H132 0.931 . S
C160 C159 1.393 . S
C160 C161 1.382 . S
C161 H131 0.929 . S
C161 C156 1.371 . S
C161 C160 1.382 . S
C162 N125 1.423 . S
C162 C163 1.362 . S
C162 C167 1.388 . S
C163 H133 0.929 . S
C163 C162 1.362 . S
C163 C164 1.376 . S
C164 H135 0.931 . S
C164 C163 1.376 . S
C164 C165 1.396 . S
C165 C164 1.396 . S
C165 C166 1.348 . S
C165 C183 1.472 . S
C166 H136 0.929 . S
C166 C165 1.348 . S
C166 C167 1.443 . S
C167 H134 0.932 . S
C167 C162 1.388 . S
C167 C166 1.443 . S
C168 N148 1.433 . S
C168 C169 1.363 . S
C168 C173 1.370 . S
C169 H137 0.929 . S
C169 C168 1.363 . S
C169 C170 1.385 . S
C170 H138 0.930 . S
C170 C169 1.385 . S
C170 C171 1.357 . S
C171 C170 1.357 . S
C171 C172 1.406 . S
C172 H139 0.929 . S
C172 C171 1.406 . S
C172 C173 1.391 . S
C173 H140 0.931 . S
C173 C168 1.370 . S
C173 C172 1.391 . S
C174 N148 1.435 . S
C174 C175 1.358 . S
C174 C179 1.371 . S
C175 H141 0.930 . S
C175 C174 1.358 . S
C175 C176 1.405 . S
C176 H142 0.932 . S
C176 C175 1.405 . S
C176 C177 1.383 . S
C177 C176 1.383 . S
C177 C178 1.393 . S
C178 H143 0.931 . S
C178 C177 1.393 . S
C178 C179 1.382 . S
C179 H144 0.929 . S
C179 C174 1.371 . S
C179 C178 1.382 . S
C180 N148 1.423 . S
C180 C181 1.362 . S
C180 C185 1.388 . S
C181 H145 0.929 . S
C181 C180 1.362 . S
C181 C182 1.376 . S
C182 H146 0.931 . S
C182 C181 1.376 . S
C182 C183 1.396 . S
C183 C165 1.472 . S
C183 C182 1.396 . S
C183 C184 1.348 . S
C184 H147 0.929 . S
C184 C183 1.348 . S
C184 C185 1.443 . S
C185 H149 0.932 . S
C185 C180 1.388 . S
C185 C184 1.443 . S
H186 C213 0.929 . S
N187 C212 1.433 . S
N187 C218 1.435 . S
N187 C224 1.423 . S
H188 C214 0.930 . S
H189 C217 0.931 . S
H190 C216 0.929 . S
H191 C219 0.930 . S
H192 C220 0.932 . S
H193 C223 0.929 . S
H194 C222 0.931 . S
H195 C225 0.929 . S
H196 C229 0.932 . S
H197 C226 0.931 . S
H198 C228 0.929 . S
H199 C231 0.929 . S
H200 C232 0.930 . S
H201 C234 0.929 . S
H202 C235 0.931 . S
H203 C237 0.930 . S
H204 C238 0.932 . S
H205 C240 0.931 . S
H206 C241 0.929 . S
H207 C243 0.929 . S
H208 C244 0.931 1_565 S
H209 C246 0.929 . S
N210 C230 1.433 . S
N210 C236 1.435 . S
N210 C242 1.423 . S
H211 C247 0.932 . S
C212 N187 1.433 . S
C212 C213 1.363 . S
C212 C217 1.370 . S
C213 H186 0.929 . S
C213 C212 1.363 . S
C213 C214 1.385 . S
C214 H188 0.930 . S
C214 C213 1.385 . S
C214 C215 1.357 . S
C215 C214 1.357 . S
C215 C216 1.406 . S
C216 H190 0.929 . S
C216 C215 1.406 . S
C216 C217 1.391 . S
C217 H189 0.931 . S
C217 C212 1.370 . S
C217 C216 1.391 . S
C218 N187 1.435 . S
C218 C219 1.358 . S
C218 C223 1.371 . S
C219 H191 0.930 . S
C219 C218 1.358 . S
C219 C220 1.405 . S
C220 H192 0.932 . S
C220 C219 1.405 . S
C220 C221 1.383 . S
C221 C220 1.383 . S
C221 C222 1.393 . S
C222 H194 0.931 . S
C222 C221 1.393 . S
C222 C223 1.382 . S
C223 H193 0.929 . S
C223 C218 1.371 . S
C223 C222 1.382 . S
C224 N187 1.423 . S
C224 C225 1.362 . S
C224 C229 1.388 . S
C225 H195 0.929 . S
C225 C224 1.362 . S
C225 C226 1.376 . S
C226 H197 0.931 . S
C226 C225 1.376 . S
C226 C227 1.396 . S
C227 C226 1.396 . S
C227 C228 1.348 . S
C227 C245 1.444 1_565 S
C228 H198 0.929 . S
C228 C227 1.348 . S
C228 C229 1.443 . S
C229 H196 0.932 . S
C229 C224 1.388 . S
C229 C228 1.443 . S
C230 N210 1.433 . S
C230 C231 1.363 . S
C230 C235 1.370 . S
C231 H199 0.929 . S
C231 C230 1.363 . S
C231 C232 1.385 . S
C232 H200 0.930 . S
C232 C231 1.385 . S
C232 C233 1.357 . S
C233 C232 1.357 . S
C233 C234 1.406 . S
C234 H201 0.929 . S
C234 C233 1.406 . S
C234 C235 1.391 . S
C235 H202 0.931 . S
C235 C230 1.370 . S
C235 C234 1.391 . S
C236 N210 1.435 . S
C236 C237 1.358 . S
C236 C241 1.371 . S
C237 H203 0.930 . S
C237 C236 1.358 . S
C237 C238 1.405 . S
C238 H204 0.932 . S
C238 C237 1.405 . S
C238 C239 1.383 . S
C239 C238 1.383 . S
C239 C240 1.393 . S
C240 H205 0.931 . S
C240 C239 1.393 . S
C240 C241 1.382 . S
C241 H206 0.929 . S
C241 C236 1.371 . S
C241 C240 1.382 . S
C242 N210 1.423 . S
C242 C243 1.362 . S
C242 C247 1.388 . S
C243 H207 0.929 . S
C243 C242 1.362 . S
C243 C244 1.376 . S
C244 H208 0.931 1_545 S
C244 C243 1.376 . S
C244 C245 1.400 . S
C245 C227 1.444 1_545 S
C245 C244 1.400 . S
C245 C246 1.375 . S
C246 H209 0.929 . S
C246 C245 1.375 . S
C246 C247 1.443 . S
C247 H211 0.932 . S
C247 C242 1.388 . S
C247 C246 1.443 . S
H248 C275 0.929 . S
N249 C274 1.433 . S
N249 C280 1.435 . S
N249 C286 1.423 . S
H250 C276 0.930 . S
H251 C279 0.931 . S
H252 C278 0.929 . S
H253 C281 0.930 . S
H254 C282 0.932 . S
H255 C285 0.929 . S
H256 C284 0.931 . S
H257 C287 0.929 . S
H258 C291 0.932 . S
H259 C288 0.931 . S
H260 C290 0.929 . S
H261 C293 0.929 . S
H262 C294 0.930 . S
H263 C296 0.929 . S
H264 C297 0.931 . S
H265 C299 0.930 . S
H266 C300 0.932 . S
H267 C302 0.931 . S
H268 C303 0.929 . S
H269 C305 0.929 . S
H270 C306 0.931 1_455 S
H271 C308 0.929 . S
N272 C292 1.433 . S
N272 C298 1.435 . S
N272 C304 1.423 . S
H273 C309 0.932 . S
C274 N249 1.433 . S
C274 C275 1.363 . S
C274 C279 1.370 . S
C275 H248 0.929 . S
C275 C274 1.363 . S
C275 C276 1.385 . S
C276 H250 0.930 . S
C276 C275 1.385 . S
C276 C277 1.357 . S
C277 C276 1.357 . S
C277 C278 1.406 . S
C278 H252 0.929 . S
C278 C277 1.406 . S
C278 C279 1.391 . S
C279 H251 0.931 . S
C279 C274 1.370 . S
C279 C278 1.391 . S
C280 N249 1.435 . S
C280 C281 1.358 . S
C280 C285 1.371 . S
C281 H253 0.930 . S
C281 C280 1.358 . S
C281 C282 1.405 . S
C282 H254 0.932 . S
C282 C281 1.405 . S
C282 C283 1.383 . S
C283 C282 1.383 . S
C283 C284 1.393 . S
C284 H256 0.931 . S
C284 C283 1.393 . S
C284 C285 1.382 . S
C285 H255 0.929 . S
C285 C280 1.371 . S
C285 C284 1.382 . S
C286 N249 1.423 . S
C286 C287 1.362 . S
C286 C291 1.388 . S
C287 H257 0.929 . S
C287 C286 1.362 . S
C287 C288 1.376 . S
C288 H259 0.931 . S
C288 C287 1.376 . S
C288 C289 1.396 . S
C289 C288 1.396 . S
C289 C290 1.348 . S
C289 C307 1.472 . S
C290 H260 0.929 . S
C290 C289 1.348 . S
C290 C291 1.443 . S
C291 H258 0.932 . S
C291 C286 1.388 . S
C291 C290 1.443 . S
C292 N272 1.433 . S
C292 C293 1.363 . S
C292 C297 1.370 . S
C293 H261 0.929 . S
C293 C292 1.363 . S
C293 C294 1.385 . S
C294 H262 0.930 . S
C294 C293 1.385 . S
C294 C295 1.357 . S
C295 C294 1.357 . S
C295 C296 1.406 . S
C296 H263 0.929 . S
C296 C295 1.406 . S
C296 C297 1.391 . S
C297 H264 0.931 . S
C297 C292 1.370 . S
C297 C296 1.391 . S
C298 N272 1.435 . S
C298 C299 1.358 . S
C298 C303 1.371 . S
C299 H265 0.930 . S
C299 C298 1.358 . S
C299 C300 1.405 . S
C300 H266 0.932 . S
C300 C299 1.405 . S
C300 C301 1.383 . S
C301 C300 1.383 . S
C301 C302 1.393 . S
C302 H267 0.931 . S
C302 C301 1.393 . S
C302 C303 1.382 . S
C303 H268 0.929 . S
C303 C298 1.371 . S
C303 C302 1.382 . S
C304 N272 1.423 . S
C304 C305 1.362 . S
C304 C309 1.388 . S
C305 H269 0.929 . S
C305 C304 1.362 . S
C305 C306 1.376 . S
C306 H270 0.931 1_655 S
C306 C305 1.376 . S
C306 C307 1.396 1_655 S
C307 C289 1.472 . S
C307 C306 1.396 1_455 S
C307 C308 1.348 1_455 S
C308 H271 0.929 . S
C308 C307 1.348 1_655 S
C308 C309 1.443 . S
C309 H273 0.932 . S
C309 C304 1.388 . S
C309 C308 1.443 . S
H310 C337 0.929 . S
N311 C336 1.433 . S
N311 C342 1.435 . S
N311 C348 1.423 . S
H312 C338 0.930 . S
H313 C341 0.931 . S
H314 C340 0.929 . S
H315 C343 0.930 . S
H316 C344 0.932 . S
H317 C347 0.929 . S
H318 C346 0.931 . S
H319 C349 0.929 . S
H320 C353 0.932 . S
H321 C350 0.931 . S
H322 C352 0.929 . S
H323 C355 0.929 . S
H324 C356 0.930 . S
H325 C358 0.929 . S
H326 C359 0.931 . S
H327 C361 0.930 . S
H328 C362 0.932 . S
H329 C364 0.931 . S
H330 C365 0.929 . S
H331 C367 0.929 . S
H332 C368 0.931 . S
H333 C370 0.929 . S
N334 C354 1.433 . S
N334 C360 1.435 . S
N334 C366 1.423 . S
H335 C371 0.932 . S
C336 N311 1.433 . S
C336 C337 1.363 . S
C336 C341 1.370 . S
C337 H310 0.929 . S
C337 C336 1.363 . S
C337 C338 1.385 . S
C338 H312 0.930 . S
C338 C337 1.385 . S
C338 C339 1.357 . S
C339 C338 1.357 . S
C339 C340 1.406 . S
C340 H314 0.929 . S
C340 C339 1.406 . S
C340 C341 1.391 . S
C341 H313 0.931 . S
C341 C336 1.370 . S
C341 C340 1.391 . S
C342 N311 1.435 . S
C342 C343 1.358 . S
C342 C347 1.371 . S
C343 H315 0.930 . S
C343 C342 1.358 . S
C343 C344 1.405 . S
C344 H316 0.932 . S
C344 C343 1.405 . S
C344 C345 1.383 . S
C345 C344 1.383 . S
C345 C346 1.393 . S
C346 H318 0.931 . S
C346 C345 1.393 . S
C346 C347 1.382 . S
C347 H317 0.929 . S
C347 C342 1.371 . S
C347 C346 1.382 . S
C348 N311 1.423 . S
C348 C349 1.362 . S
C348 C353 1.388 . S
C349 H319 0.929 . S
C349 C348 1.362 . S
C349 C350 1.376 . S
C350 H321 0.931 . S
C350 C349 1.376 . S
C350 C351 1.396 . S
C351 C350 1.396 . S
C351 C352 1.348 . S
C351 C369 1.472 . S
C352 H322 0.929 . S
C352 C351 1.348 . S
C352 C353 1.443 . S
C353 H320 0.932 . S
C353 C348 1.388 . S
C353 C352 1.443 . S
C354 N334 1.433 . S
C354 C355 1.363 . S
C354 C359 1.370 . S
C355 H323 0.929 . S
C355 C354 1.363 . S
C355 C356 1.385 . S
C356 H324 0.930 . S
C356 C355 1.385 . S
C356 C357 1.357 . S
C357 C356 1.357 . S
C357 C358 1.406 . S
C358 H325 0.929 . S
C358 C357 1.406 . S
C358 C359 1.391 . S
C359 H326 0.931 . S
C359 C354 1.370 . S
C359 C358 1.391 . S
C360 N334 1.435 . S
C360 C361 1.358 . S
C360 C365 1.371 . S
C361 H327 0.930 . S
C361 C360 1.358 . S
C361 C362 1.405 . S
C362 H328 0.932 . S
C362 C361 1.405 . S
C362 C363 1.383 . S
C363 C362 1.383 . S
C363 C364 1.393 . S
C364 H329 0.931 . S
C364 C363 1.393 . S
C364 C365 1.382 . S
C365 H330 0.929 . S
C365 C360 1.371 . S
C365 C364 1.382 . S
C366 N334 1.423 . S
C366 C367 1.362 . S
C366 C371 1.388 . S
C367 H331 0.929 . S
C367 C366 1.362 . S
C367 C368 1.376 . S
C368 H332 0.931 . S
C368 C367 1.376 . S
C368 C369 1.396 . S
C369 C351 1.472 . S
C369 C368 1.396 . S
C369 C370 1.348 . S
C370 H333 0.929 . S
C370 C369 1.348 . S
C370 C371 1.443 . S
C371 H335 0.932 . S
C371 C366 1.388 . S
C371 C370 1.443 . S
H372 C399 0.929 . S
N373 C398 1.433 . S
N373 C404 1.435 . S
N373 C410 1.423 . S
H374 C400 0.930 . S
H375 C403 0.931 . S
H376 C402 0.929 . S
H377 C405 0.930 . S
H378 C406 0.932 . S
H379 C409 0.929 . S
H380 C408 0.931 . S
H381 C411 0.929 . S
H382 C415 0.932 . S
H383 C412 0.931 . S
H384 C414 0.929 . S
H385 C417 0.929 . S
H386 C418 0.930 . S
H387 C420 0.929 . S
H388 C421 0.931 . S
H389 C423 0.930 . S
H390 C424 0.932 . S
H391 C426 0.931 . S
H392 C427 0.929 . S
H393 C429 0.929 . S
H394 C430 0.931 . S
H395 C432 0.929 . S
N396 C416 1.433 . S
N396 C422 1.435 . S
N396 C428 1.423 . S
H397 C433 0.932 . S
C398 N373 1.433 . S
C398 C399 1.363 . S
C398 C403 1.370 . S
C399 H372 0.929 . S
C399 C398 1.363 . S
C399 C400 1.385 . S
C400 H374 0.930 . S
C400 C399 1.385 . S
C400 C401 1.357 . S
C401 C400 1.357 . S
C401 C402 1.406 . S
C402 H376 0.929 . S
C402 C401 1.406 . S
C402 C403 1.391 . S
C403 H375 0.931 . S
C403 C398 1.370 . S
C403 C402 1.391 . S
C404 N373 1.435 . S
C404 C405 1.358 . S
C404 C409 1.371 . S
C405 H377 0.930 . S
C405 C404 1.358 . S
C405 C406 1.405 . S
C406 H378 0.932 . S
C406 C405 1.405 . S
C406 C407 1.383 . S
C407 C406 1.383 . S
C407 C408 1.393 . S
C408 H380 0.931 . S
C408 C407 1.393 . S
C408 C409 1.382 . S
C409 H379 0.929 . S
C409 C404 1.371 . S
C409 C408 1.382 . S
C410 N373 1.423 . S
C410 C411 1.362 . S
C410 C415 1.388 . S
C411 H381 0.929 . S
C411 C410 1.362 . S
C411 C412 1.376 1_565 S
C412 H383 0.931 . S
C412 C411 1.376 1_545 S
C412 C413 1.396 . S
C413 C412 1.396 . S
C413 C414 1.348 1_545 S
C413 C431 1.472 . S
C414 H384 0.929 . S
C414 C413 1.348 1_565 S
C414 C415 1.443 . S
C415 H382 0.932 . S
C415 C410 1.388 . S
C415 C414 1.443 . S
C416 N396 1.433 . S
C416 C417 1.363 . S
C416 C421 1.370 . S
C417 H385 0.929 . S
C417 C416 1.363 . S
C417 C418 1.385 . S
C418 H386 0.930 . S
C418 C417 1.385 . S
C418 C419 1.357 . S
C419 C418 1.357 . S
C419 C420 1.406 . S
C420 H387 0.929 . S
C420 C419 1.406 . S
C420 C421 1.391 . S
C421 H388 0.931 . S
C421 C416 1.370 . S
C421 C420 1.391 . S
C422 N396 1.435 . S
C422 C423 1.358 . S
C422 C427 1.371 . S
C423 H389 0.930 . S
C423 C422 1.358 . S
C423 C424 1.405 . S
C424 H390 0.932 . S
C424 C423 1.405 . S
C424 C425 1.383 . S
C425 C424 1.383 . S
C425 C426 1.393 . S
C426 H391 0.931 . S
C426 C425 1.393 . S
C426 C427 1.382 . S
C427 H392 0.929 . S
C427 C422 1.371 . S
C427 C426 1.382 . S
C428 N396 1.423 . S
C428 C429 1.362 . S
C428 C433 1.388 . S
C429 H393 0.929 . S
C429 C428 1.362 . S
C429 C430 1.376 . S
C430 H394 0.931 . S
C430 C429 1.376 . S
C430 C431 1.396 . S
C431 C413 1.472 . S
C431 C430 1.396 . S
C431 C432 1.348 . S
C432 H395 0.929 . S
C432 C431 1.348 . S
C432 C433 1.443 . S
C433 H397 0.932 . S
C433 C428 1.388 . S
C433 C432 1.443 . S
H434 C461 0.929 . S
N435 C460 1.433 . S
N435 C466 1.435 . S
N435 C472 1.423 . S
H436 C462 0.930 . S
H437 C465 0.931 . S
H438 C464 0.929 . S
H439 C467 0.930 . S
H440 C468 0.932 . S
H441 C471 0.929 . S
H442 C470 0.931 . S
H443 C473 0.929 . S
H444 C477 0.932 . S
H445 C474 0.931 . S
H446 C476 0.929 . S
H447 C479 0.929 . S
H448 C480 0.930 . S
H449 C482 0.929 . S
H450 C483 0.931 . S
H451 C485 0.930 . S
H452 C486 0.932 . S
H453 C488 0.931 . S
H454 C489 0.929 . S
H455 C491 0.929 . S
H456 C492 0.931 1_565 S
H457 C494 0.929 . S
N458 C478 1.433 . S
N458 C484 1.435 . S
N458 C490 1.423 . S
H459 C495 0.932 . S
C460 N435 1.433 . S
C460 C461 1.363 . S
C460 C465 1.370 . S
C461 H434 0.929 . S
C461 C460 1.363 . S
C461 C462 1.385 . S
C462 H436 0.930 . S
C462 C461 1.385 . S
C462 C463 1.357 . S
C463 C462 1.357 . S
C463 C464 1.406 . S
C464 H438 0.929 . S
C464 C463 1.406 . S
C464 C465 1.391 . S
C465 H437 0.931 . S
C465 C460 1.370 . S
C465 C464 1.391 . S
C466 N435 1.435 . S
C466 C467 1.358 . S
C466 C471 1.371 . S
C467 H439 0.930 . S
C467 C466 1.358 . S
C467 C468 1.405 . S
C468 H440 0.932 . S
C468 C467 1.405 . S
C468 C469 1.383 . S
C469 C468 1.383 . S
C469 C470 1.393 . S
C470 H442 0.931 . S
C470 C469 1.393 . S
C470 C471 1.382 . S
C471 H441 0.929 . S
C471 C466 1.371 . S
C471 C470 1.382 . S
C472 N435 1.423 . S
C472 C473 1.362 . S
C472 C477 1.388 . S
C473 H443 0.929 . S
C473 C472 1.362 . S
C473 C474 1.376 1_455 S
C474 H445 0.931 . S
C474 C473 1.376 1_655 S
C474 C475 1.396 . S
C475 C474 1.396 . S
C475 C476 1.348 1_655 S
C475 C493 1.468 1_565 S
C476 H446 0.929 . S
C476 C475 1.348 1_455 S
C476 C477 1.443 . S
C477 H444 0.932 . S
C477 C472 1.388 . S
C477 C476 1.443 . S
C478 N458 1.433 . S
C478 C479 1.363 . S
C478 C483 1.370 . S
C479 H447 0.929 . S
C479 C478 1.363 . S
C479 C480 1.385 . S
C480 H448 0.930 . S
C480 C479 1.385 . S
C480 C481 1.357 . S
C481 C480 1.357 . S
C481 C482 1.406 . S
C482 H449 0.929 . S
C482 C481 1.406 . S
C482 C483 1.391 . S
C483 H450 0.931 . S
C483 C478 1.370 . S
C483 C482 1.391 . S
C484 N458 1.435 . S
C484 C485 1.358 . S
C484 C489 1.371 . S
C485 H451 0.930 . S
C485 C484 1.358 . S
C485 C486 1.405 . S
C486 H452 0.932 . S
C486 C485 1.405 . S
C486 C487 1.383 . S
C487 C486 1.383 . S
C487 C488 1.393 . S
C488 H453 0.931 . S
C488 C487 1.393 . S
C488 C489 1.382 . S
C489 H454 0.929 . S
C489 C484 1.371 . S
C489 C488 1.382 . S
C490 N458 1.423 . S
C490 C491 1.362 . S
C490 C495 1.388 . S
C491 H455 0.929 . S
C491 C490 1.362 . S
C491 C492 1.376 . S
C492 H456 0.931 1_545 S
C492 C491 1.376 . S
C492 C493 1.396 . S
C493 C475 1.468 1_545 S
C493 C492 1.396 . S
C493 C494 1.352 . S
C494 H457 0.929 . S
C494 C493 1.352 . S
C494 C495 1.443 . S
C495 H459 0.932 . S
C495 C490 1.388 . S
C495 C494 1.443 . S
In496 O497 2.294 . S
In496 O498 2.326 . S
In496 O502 2.266 1_554 S
In496 O503 2.326 1_554 S
In496 O504 2.266 1_554 S
In496 O505 2.326 1_554 S
In496 O507 2.294 . S
In496 O508 2.326 . S
O497 In496 2.294 . S
O497 C506 1.240 . S
O498 In496 2.326 . S
O498 C506 1.252 . S
C499 O502 1.252 . S
C499 O503 1.260 . S
C500 O507 1.240 . S
C500 O508 1.252 . S
C501 O504 1.252 . S
C501 O505 1.260 . S
O502 In496 2.266 1_556 S
O502 C499 1.252 . S
O503 In496 2.326 1_556 S
O503 C499 1.260 . S
O504 In496 2.266 1_556 S
O504 C501 1.252 . S
O505 In496 2.326 1_556 S
O505 C501 1.260 . S
C506 O497 1.240 . S
C506 O498 1.252 . S
O507 In496 2.294 . S
O507 C500 1.240 . S
O508 In496 2.326 . S
O508 C500 1.252 . S
In509 O510 2.294 . S
In509 O511 2.326 . S
In509 O515 2.266 . S
In509 O516 2.326 . S
In509 O517 2.266 . S
In509 O518 2.326 . S
In509 O520 2.294 . S
In509 O521 2.326 . S
O510 In509 2.294 . S
O510 C519 1.240 . S
O511 In509 2.326 . S
O511 C519 1.252 . S
C512 O515 1.252 . S
C512 O516 1.260 . S
C513 O520 1.240 . S
C513 O521 1.252 . S
C514 O517 1.252 . S
C514 O518 1.260 . S
O515 In509 2.266 . S
O515 C512 1.252 . S
O516 In509 2.326 . S
O516 C512 1.260 . S
O517 In509 2.266 . S
O517 C514 1.252 . S
O518 In509 2.326 . S
O518 C514 1.260 . S
C519 O510 1.240 . S
C519 O511 1.252 . S
O520 In509 2.294 . S
O520 C513 1.240 . S
O521 In509 2.326 . S
O521 C513 1.252 . S
In522 O523 2.294 . S
In522 O524 2.326 . S
In522 O528 2.266 . S
In522 O529 2.326 . S
In522 O530 2.266 . S
In522 O531 2.326 . S
In522 O533 2.294 . S
In522 O534 2.326 . S
O523 In522 2.294 . S
O523 C532 1.240 . S
O524 In522 2.326 . S
O524 C532 1.252 . S
C525 O528 1.252 . S
C525 O529 1.260 . S
C526 O533 1.240 . S
C526 O534 1.252 . S
C527 O530 1.252 . S
C527 O531 1.260 . S
O528 In522 2.266 . S
O528 C525 1.252 . S
O529 In522 2.326 . S
O529 C525 1.260 . S
O530 In522 2.266 . S
O530 C527 1.252 . S
O531 In522 2.326 . S
O531 C527 1.260 . S
C532 O523 1.240 . S
C532 O524 1.252 . S
O533 In522 2.294 . S
O533 C526 1.240 . S
O534 In522 2.326 . S
O534 C526 1.252 . S
In535 O536 2.294 . S
In535 O537 2.326 . S
In535 O541 2.266 . S
In535 O542 2.326 . S
In535 O543 2.266 . S
In535 O544 2.326 . S
In535 O546 2.294 . S
In535 O547 2.326 . S
O536 In535 2.294 . S
O536 C545 1.240 . S
O537 In535 2.326 . S
O537 C545 1.252 . S
C538 O541 1.252 . S
C538 O542 1.260 . S
C539 O546 1.240 . S
C539 O547 1.252 . S
C540 O543 1.252 . S
C540 O544 1.260 . S
O541 In535 2.266 . S
O541 C538 1.252 . S
O542 In535 2.326 . S
O542 C538 1.260 . S
O543 In535 2.266 . S
O543 C540 1.252 . S
O544 In535 2.326 . S
O544 C540 1.260 . S
C545 O536 1.240 . S
C545 O537 1.252 . S
O546 In535 2.294 . S
O546 C539 1.240 . S
O547 In535 2.326 . S
O547 C539 1.252 . S
In548 O549 2.294 . S
In548 O550 2.326 . S
In548 O554 2.266 . S
In548 O555 2.326 . S
In548 O556 2.266 . S
In548 O557 2.326 . S
In548 O559 2.294 . S
In548 O560 2.326 . S
O549 In548 2.294 . S
O549 C558 1.240 . S
O550 In548 2.326 . S
O550 C558 1.252 . S
C551 O554 1.252 . S
C551 O555 1.260 . S
C552 O559 1.240 . S
C552 O560 1.252 . S
C553 O556 1.252 . S
C553 O557 1.260 . S
O554 In548 2.266 . S
O554 C551 1.252 . S
O555 In548 2.326 . S
O555 C551 1.260 . S
O556 In548 2.266 . S
O556 C553 1.252 . S
O557 In548 2.326 . S
O557 C553 1.260 . S
C558 O549 1.240 . S
C558 O550 1.252 . S
O559 In548 2.294 . S
O559 C552 1.240 . S
O560 In548 2.326 . S
O560 C552 1.252 . S
In561 O562 2.294 . S
In561 O563 2.326 . S
In561 O567 2.266 . S
In561 O568 2.326 . S
In561 O569 2.266 . S
In561 O570 2.326 . S
In561 O572 2.294 . S
In561 O573 2.326 . S
O562 In561 2.294 . S
O562 C571 1.240 . S
O563 In561 2.326 . S
O563 C571 1.252 . S
C564 O567 1.252 . S
C564 O568 1.260 . S
C565 O572 1.240 . S
C565 O573 1.252 . S
C566 O569 1.252 . S
C566 O570 1.260 . S
O567 In561 2.266 . S
O567 C564 1.252 . S
O568 In561 2.326 . S
O568 C564 1.260 . S
O569 In561 2.266 . S
O569 C566 1.252 . S
O570 In561 2.326 . S
O570 C566 1.260 . S
C571 O562 1.240 . S
C571 O563 1.252 . S
O572 In561 2.294 . S
O572 C565 1.240 . S
O573 In561 2.326 . S
O573 C565 1.252 . S
In574 O575 2.294 . S
In574 O576 2.326 . S
In574 O580 2.266 1_554 S
In574 O581 2.326 1_554 S
In574 O582 2.266 1_554 S
In574 O583 2.326 1_554 S
In574 O585 2.294 . S
In574 O586 2.326 . S
O575 In574 2.294 . S
O575 C584 1.240 . S
O576 In574 2.326 . S
O576 C584 1.252 . S
C577 O580 1.252 . S
C577 O581 1.260 . S
C578 O585 1.240 . S
C578 O586 1.252 . S
C579 O582 1.252 . S
C579 O583 1.260 . S
O580 In574 2.266 1_556 S
O580 C577 1.252 . S
O581 In574 2.326 1_556 S
O581 C577 1.260 . S
O582 In574 2.266 1_556 S
O582 C579 1.252 . S
O583 In574 2.326 1_556 S
O583 C579 1.260 . S
C584 O575 1.240 . S
C584 O576 1.252 . S
O585 In574 2.294 . S
O585 C578 1.240 . S
O586 In574 2.326 . S
O586 C578 1.252 . S
In587 O588 2.294 . S
In587 O589 2.326 . S
In587 O593 2.266 . S
In587 O594 2.326 . S
In587 O595 2.266 . S
In587 O596 2.326 . S
In587 O598 2.294 . S
In587 O599 2.326 . S
O588 In587 2.294 . S
O588 C597 1.240 . S
O589 In587 2.326 . S
O589 C597 1.252 . S
C590 O593 1.252 . S
C590 O594 1.260 . S
C591 O598 1.240 . S
C591 O599 1.252 . S
C592 O595 1.252 . S
C592 O596 1.260 . S
O593 In587 2.266 . S
O593 C590 1.252 . S
O594 In587 2.326 . S
O594 C590 1.260 . S
O595 In587 2.266 . S
O595 C592 1.252 . S
O596 In587 2.326 . S
O596 C592 1.260 . S
C597 O588 1.240 . S
C597 O589 1.252 . S
O598 In587 2.294 . S
O598 C591 1.240 . S
O599 In587 2.326 . S
O599 C591 1.252 . S
C600 C601 1.369 . S
C600 C602 1.419 . S
C600 H604 0.930 . S
C601 C600 1.369 . S
C601 C610 1.429 . S
C602 C600 1.419 . S
C602 C603 1.363 . S
C602 H605 0.929 . S
C603 C602 1.363 . S
C603 C609 1.428 . S
H604 C600 0.930 . S
H605 C602 0.929 . S
S606 N607 1.613 . S
S606 N608 1.610 . S
N607 S606 1.613 . S
N607 C610 1.350 . S
N608 S606 1.610 . S
N608 C609 1.351 . S
C609 C603 1.428 . S
C609 N608 1.351 . S
C609 C610 1.434 . S
C610 C601 1.429 . S
C610 N607 1.350 . S
C610 C609 1.434 . S
C611 C612 1.369 . S
C611 C613 1.419 . S
C611 H615 0.930 . S
C612 C611 1.369 . S
C612 C621 1.429 . S
C613 C611 1.419 . S
C613 C614 1.363 . S
C613 H616 0.929 . S
C614 C613 1.363 . S
C614 C620 1.428 . S
H615 C611 0.930 . S
H616 C613 0.929 . S
S617 N618 1.613 . S
S617 N619 1.610 . S
N618 S617 1.613 . S
N618 C621 1.350 . S
N619 S617 1.610 . S
N619 C620 1.351 . S
C620 C614 1.428 . S
C620 N619 1.351 . S
C620 C621 1.434 . S
C621 C612 1.429 . S
C621 N618 1.350 . S
C621 C620 1.434 . S
C622 C623 1.369 . S
C622 C624 1.419 . S
C622 H626 0.930 . S
C623 C622 1.369 . S
C623 C632 1.429 . S
C624 C622 1.419 . S
C624 C625 1.363 . S
C624 H627 0.929 . S
C625 C624 1.363 . S
C625 C631 1.428 . S
H626 C622 0.930 . S
H627 C624 0.929 . S
S628 N629 1.613 . S
S628 N630 1.610 . S
N629 S628 1.613 . S
N629 C632 1.350 . S
N630 S628 1.610 . S
N630 C631 1.351 . S
C631 C625 1.428 . S
C631 N630 1.351 . S
C631 C632 1.434 . S
C632 C623 1.429 . S
C632 N629 1.350 . S
C632 C631 1.434 . S
C633 C634 1.369 . S
C633 C635 1.419 . S
C633 H637 0.930 . S
C634 C633 1.369 . S
C634 C643 1.429 . S
C635 C633 1.419 . S
C635 C636 1.363 . S
C635 H638 0.929 . S
C636 C635 1.363 . S
C636 C642 1.428 . S
H637 C633 0.930 . S
H638 C635 0.929 . S
S639 N640 1.613 . S
S639 N641 1.610 . S
N640 S639 1.613 . S
N640 C643 1.350 . S
N641 S639 1.610 . S
N641 C642 1.351 . S
C642 C636 1.428 . S
C642 N641 1.351 . S
C642 C643 1.434 . S
C643 C634 1.429 . S
C643 N640 1.350 . S
C643 C642 1.434 . S
C644 C645 1.369 . S
C644 C646 1.419 . S
C644 H648 0.918 1_556 S
C645 C644 1.369 . S
C645 C654 1.429 . S
C646 C644 1.419 . S
C646 C647 1.363 . S
C646 H649 0.929 1_556 S
C647 C646 1.363 . S
C647 C653 1.428 . S
H648 C644 0.918 1_554 S
H649 C646 0.929 1_554 S
S650 N651 1.613 . S
S650 N652 1.610 . S
N651 S650 1.613 . S
N651 C654 1.350 . S
N652 S650 1.610 . S
N652 C653 1.351 . S
C653 C647 1.428 . S
C653 N652 1.351 . S
C653 C654 1.434 . S
C654 C645 1.429 . S
C654 N651 1.350 . S
C654 C653 1.434 . S
C655 C656 1.369 . S
C655 C657 1.419 . S
C655 H659 0.930 . S
C656 C655 1.369 . S
C656 C665 1.429 . S
C657 C655 1.419 . S
C657 C658 1.363 . S
C657 H660 0.929 . S
C658 C657 1.363 . S
C658 C664 1.428 . S
H659 C655 0.930 . S
H660 C657 0.929 . S
S661 N662 1.613 . S
S661 N663 1.610 . S
N662 S661 1.613 . S
N662 C665 1.350 . S
N663 S661 1.610 . S
N663 C664 1.351 . S
C664 C658 1.428 . S
C664 N663 1.351 . S
C664 C665 1.434 . S
C665 C656 1.429 . S
C665 N662 1.350 . S
C665 C664 1.434 . S
C666 C667 1.369 . S
C666 C668 1.419 . S
C666 H670 0.930 . S
C667 C666 1.369 . S
C667 C676 1.429 . S
C668 C666 1.419 . S
C668 C669 1.363 . S
C668 H671 0.929 . S
C669 C668 1.363 . S
C669 C675 1.428 . S
H670 C666 0.930 . S
H671 C668 0.929 . S
S672 N673 1.613 . S
S672 N674 1.610 . S
N673 S672 1.613 . S
N673 C676 1.350 . S
N674 S672 1.610 . S
N674 C675 1.351 . S
C675 C669 1.428 . S
C675 N674 1.351 . S
C675 C676 1.434 . S
C676 C667 1.429 . S
C676 N673 1.350 . S
C676 C675 1.434 . S
C677 C678 1.369 . S
C677 C679 1.419 . S
C677 H681 0.930 . S
C678 C677 1.369 . S
C678 C687 1.429 . S
C679 C677 1.419 . S
C679 C680 1.363 . S
C679 H682 0.929 . S
C680 C679 1.363 . S
C680 C686 1.428 . S
H681 C677 0.930 . S
H682 C679 0.929 . S
S683 N684 1.613 . S
S683 N685 1.610 . S
N684 S683 1.613 . S
N684 C687 1.350 . S
N685 S683 1.610 . S
N685 C686 1.351 . S
C686 C680 1.428 . S
C686 N685 1.351 . S
C686 C687 1.434 . S
C687 C678 1.429 . S
C687 N684 1.350 . S
C687 C686 1.434 . S
C688 C689 1.369 . S
C688 C690 1.419 . S
C688 H692 0.930 . S
C689 C688 1.369 . S
C689 C698 1.429 . S
C690 C688 1.419 . S
C690 C691 1.363 . S
C690 H693 0.929 . S
C691 C690 1.363 . S
C691 C697 1.428 . S
H692 C688 0.930 . S
H693 C690 0.929 . S
S694 N695 1.613 . S
S694 N696 1.610 . S
N695 S694 1.613 . S
N695 C698 1.350 . S
N696 S694 1.610 . S
N696 C697 1.351 . S
C697 C691 1.428 . S
C697 N696 1.351 . S
C697 C698 1.434 . S
C698 C689 1.429 . S
C698 N695 1.350 . S
C698 C697 1.434 . S
C699 C700 1.369 . S
C699 C701 1.417 1_554 S
C699 H703 0.930 1_554 S
C700 C699 1.369 . S
C700 C709 1.429 . S
C701 C699 1.417 1_556 S
C701 C702 1.353 1_556 S
C701 H704 0.941 . S
C702 C701 1.353 1_554 S
C702 C708 1.428 . S
H703 C699 0.930 1_556 S
H704 C701 0.941 . S
S705 N706 1.613 . S
S705 N707 1.610 . S
N706 S705 1.613 . S
N706 C709 1.350 . S
N707 S705 1.610 . S
N707 C708 1.351 . S
C708 C702 1.428 . S
C708 N707 1.351 . S
C708 C709 1.434 . S
C709 C700 1.429 . S
C709 N706 1.350 . S
C709 C708 1.434 . S
C710 C711 1.369 . S
C710 C712 1.419 . S
C710 H714 0.930 . S
C711 C710 1.369 . S
C711 C720 1.429 . S
C712 C710 1.419 . S
C712 C713 1.363 . S
C712 H715 0.929 . S
C713 C712 1.363 . S
C713 C719 1.428 . S
H714 C710 0.930 . S
H715 C712 0.929 . S
S716 N717 1.613 . S
S716 N718 1.610 . S
N717 S716 1.613 . S
N717 C720 1.350 . S
N718 S716 1.610 . S
N718 C719 1.351 . S
C719 C713 1.428 . S
C719 N718 1.351 . S
C719 C720 1.434 . S
C720 C711 1.429 . S
C720 N717 1.350 . S
C720 C719 1.434 . S
C721 C722 1.369 . S
C721 C723 1.419 . S
C721 H725 0.930 . S
C722 C721 1.369 . S
C722 C731 1.429 . S
C723 C721 1.419 . S
C723 C724 1.363 . S
C723 H726 0.929 . S
C724 C723 1.363 . S
C724 C730 1.428 . S
H725 C721 0.930 . S
H726 C723 0.929 . S
S727 N728 1.613 . S
S727 N729 1.610 . S
N728 S727 1.613 . S
N728 C731 1.350 . S
N729 S727 1.610 . S
N729 C730 1.351 . S
C730 C724 1.428 . S
C730 N729 1.351 . S
C730 C731 1.434 . S
C731 C722 1.429 . S
C731 N728 1.350 . S
C731 C730 1.434 . S
C732 C733 1.369 . S
C732 C734 1.419 . S
C732 H736 0.930 . S
C733 C732 1.369 . S
C733 C742 1.429 . S
C734 C732 1.419 . S
C734 C735 1.363 . S
C734 H737 0.929 . S
C735 C734 1.363 . S
C735 C741 1.428 . S
H736 C732 0.930 . S
H737 C734 0.929 . S
S738 N739 1.613 . S
S738 N740 1.610 . S
N739 S738 1.613 . S
N739 C742 1.350 . S
N740 S738 1.610 . S
N740 C741 1.351 . S
C741 C735 1.428 . S
C741 N740 1.351 . S
C741 C742 1.434 . S
C742 C733 1.429 . S
C742 N739 1.350 . S
C742 C741 1.434 . S
C743 C744 1.369 . S
C743 C745 1.419 . S
C743 H747 0.930 . S
C744 C743 1.369 . S
C744 C753 1.429 . S
C745 C743 1.419 . S
C745 C746 1.363 . S
C745 H748 0.929 . S
C746 C745 1.363 . S
C746 C752 1.428 . S
H747 C743 0.930 . S
H748 C745 0.929 . S
S749 N750 1.613 . S
S749 N751 1.610 . S
N750 S749 1.613 . S
N750 C753 1.350 . S
N751 S749 1.610 . S
N751 C752 1.351 . S
C752 C746 1.428 . S
C752 N751 1.351 . S
C752 C753 1.434 . S
C753 C744 1.429 . S
C753 N750 1.350 . S
C753 C752 1.434 . S
C754 C755 1.369 . S
C754 C756 1.419 . S
C754 H758 0.930 . S
C755 C754 1.369 . S
C755 C764 1.429 1_556 S
C756 C754 1.419 . S
C756 C757 1.363 . S
C756 H759 0.929 . S
C757 C756 1.363 . S
C757 C763 1.428 1_556 S
H758 C754 0.930 . S
H759 C756 0.929 . S
S760 N761 1.613 . S
S760 N762 1.610 . S
N761 S760 1.613 . S
N761 C764 1.350 . S
N762 S760 1.610 . S
N762 C763 1.351 . S
C763 C757 1.428 1_554 S
C763 N762 1.351 . S
C763 C764 1.434 . S
C764 C755 1.429 1_554 S
C764 N761 1.350 . S
C764 C763 1.434 . S
C765 C766 1.369 . S
C765 C767 1.419 . S
C765 H769 0.930 . S
C766 C765 1.369 . S
C766 C775 1.429 . S
C767 C765 1.419 . S
C767 C768 1.363 . S
C767 H770 0.929 . S
C768 C767 1.363 . S
C768 C774 1.428 . S
H769 C765 0.930 . S
H770 C767 0.929 . S
S771 N772 1.613 . S
S771 N773 1.610 . S
N772 S771 1.613 . S
N772 C775 1.350 . S
N773 S771 1.610 . S
N773 C774 1.351 . S
C774 C768 1.428 . S
C774 N773 1.351 . S
C774 C775 1.434 . S
C775 C766 1.429 . S
C775 N772 1.350 . S
C775 C774 1.434 . S
C776 C777 1.369 . S
C776 C778 1.419 . S
C776 H780 0.930 . S
C777 C776 1.369 . S
C777 C786 1.429 . S
C778 C776 1.419 . S
C778 C779 1.363 . S
C778 H781 0.929 . S
C779 C778 1.363 . S
C779 C785 1.428 . S
H780 C776 0.930 . S
H781 C778 0.929 . S
S782 N783 1.613 . S
S782 N784 1.610 . S
N783 S782 1.613 . S
N783 C786 1.350 . S
N784 S782 1.610 . S
N784 C785 1.351 . S
C785 C779 1.428 . S
C785 N784 1.351 . S
C785 C786 1.434 . S
C786 C777 1.429 . S
C786 N783 1.350 . S
C786 C785 1.434 . S
C787 C788 1.369 . S
C787 C789 1.419 . S
C787 H791 0.930 . S
C788 C787 1.369 . S
C788 C797 1.429 . S
C789 C787 1.419 . S
C789 C790 1.363 . S
C789 H792 0.929 . S
C790 C789 1.363 . S
C790 C796 1.428 . S
H791 C787 0.930 . S
H792 C789 0.929 . S
S793 N794 1.613 . S
S793 N795 1.610 . S
N794 S793 1.613 . S
N794 C797 1.350 . S
N795 S793 1.610 . S
N795 C796 1.351 . S
C796 C790 1.428 . S
C796 N795 1.351 . S
C796 C797 1.434 . S
C797 C788 1.429 . S
C797 N794 1.350 . S
C797 C796 1.434 . S
C798 C799 1.369 . S
C798 C800 1.419 . S
C798 H802 0.930 . S
C799 C798 1.369 . S
C799 C808 1.429 . S
C800 C798 1.419 . S
C800 C801 1.363 . S
C800 H803 0.929 . S
C801 C800 1.363 . S
C801 C807 1.428 . S
H802 C798 0.930 . S
H803 C800 0.929 . S
S804 N805 1.613 . S
S804 N806 1.610 . S
N805 S804 1.613 . S
N805 C808 1.350 . S
N806 S804 1.610 . S
N806 C807 1.351 . S
C807 C801 1.428 . S
C807 N806 1.351 . S
C807 C808 1.434 . S
C808 C799 1.429 . S
C808 N805 1.350 . S
C808 C807 1.434 . S
C809 C810 1.369 . S
C809 C811 1.419 . S
C809 H813 0.930 . S
C810 C809 1.369 . S
C810 C819 1.429 . S
C811 C809 1.419 . S
C811 C812 1.363 . S
C811 H814 0.929 . S
C812 C811 1.363 . S
C812 C818 1.428 . S
H813 C809 0.930 . S
H814 C811 0.929 . S
S815 N816 1.613 . S
S815 N817 1.610 . S
N816 S815 1.613 . S
N816 C819 1.350 . S
N817 S815 1.610 . S
N817 C818 1.351 . S
C818 C812 1.428 . S
C818 N817 1.351 . S
C818 C819 1.434 . S
C819 C810 1.429 . S
C819 N816 1.350 . S
C819 C818 1.434 . S
C820 C821 1.369 . S
C820 C822 1.419 . S
C820 H824 0.930 . S
C821 C820 1.369 . S
C821 C830 1.429 . S
C822 C820 1.419 . S
C822 C823 1.363 . S
C822 H825 0.929 . S
C823 C822 1.363 . S
C823 C829 1.428 . S
H824 C820 0.930 . S
H825 C822 0.929 . S
S826 N827 1.613 . S
S826 N828 1.610 . S
N827 S826 1.613 . S
N827 C830 1.350 . S
N828 S826 1.610 . S
N828 C829 1.351 . S
C829 C823 1.428 . S
C829 N828 1.351 . S
C829 C830 1.434 . S
C830 C821 1.429 . S
C830 N827 1.350 . S
C830 C829 1.434 . S
C831 C832 1.369 . S
C831 C833 1.419 . S
C831 H835 0.930 . S
C832 C831 1.369 . S
C832 C841 1.429 . S
C833 C831 1.419 . S
C833 C834 1.363 . S
C833 H836 0.929 . S
C834 C833 1.363 . S
C834 C840 1.428 . S
H835 C831 0.930 . S
H836 C833 0.929 . S
S837 N838 1.613 . S
S837 N839 1.610 . S
N838 S837 1.613 . S
N838 C841 1.350 . S
N839 S837 1.610 . S
N839 C840 1.351 . S
C840 C834 1.428 . S
C840 N839 1.351 . S
C840 C841 1.434 . S
C841 C832 1.429 . S
C841 N838 1.350 . S
C841 C840 1.434 . S
C842 C843 1.369 . S
C842 C844 1.419 . S
C842 H846 0.930 . S
C843 C842 1.369 . S
C843 C852 1.429 . S
C844 C842 1.419 . S
C844 C845 1.363 . S
C844 H847 0.929 . S
C845 C844 1.363 . S
C845 C851 1.428 . S
H846 C842 0.930 . S
H847 C844 0.929 . S
S848 N849 1.613 . S
S848 N850 1.610 . S
N849 S848 1.613 . S
N849 C852 1.350 . S
N850 S848 1.610 . S
N850 C851 1.351 . S
C851 C845 1.428 . S
C851 N850 1.351 . S
C851 C852 1.434 . S
C852 C843 1.429 . S
C852 N849 1.350 . S
C852 C851 1.434 . S
C853 C854 1.369 . S
C853 C855 1.419 . S
C853 H857 0.930 . S
C854 C853 1.369 . S
C854 C863 1.429 . S
C855 C853 1.419 . S
C855 C856 1.363 . S
C855 H858 0.929 . S
C856 C855 1.363 . S
C856 C862 1.428 . S
H857 C853 0.930 . S
H858 C855 0.929 . S
S859 N860 1.613 . S
S859 N861 1.610 . S
N860 S859 1.613 . S
N860 C863 1.350 . S
N861 S859 1.610 . S
N861 C862 1.351 . S
C862 C856 1.428 . S
C862 N861 1.351 . S
C862 C863 1.434 . S
C863 C854 1.429 . S
C863 N860 1.350 . S
C863 C862 1.434 . S
C864 C865 1.369 . S
C864 C866 1.419 . S
C864 H868 0.930 . S
C865 C864 1.369 . S
C865 C874 1.429 . S
C866 C864 1.419 . S
C866 C867 1.363 . S
C866 H869 0.929 . S
C867 C866 1.363 . S
C867 C873 1.428 . S
H868 C864 0.930 . S
H869 C866 0.929 . S
S870 N871 1.613 . S
S870 N872 1.610 . S
N871 S870 1.613 . S
N871 C874 1.350 . S
N872 S870 1.610 . S
N872 C873 1.351 . S
C873 C867 1.428 . S
C873 N872 1.351 . S
C873 C874 1.434 . S
C874 C865 1.429 . S
C874 N871 1.350 . S
C874 C873 1.434 . S
C875 C876 1.369 . S
C875 C877 1.419 . S
C875 H879 0.930 . S
C876 C875 1.369 . S
C876 C885 1.429 . S
C877 C875 1.419 . S
C877 C878 1.363 . S
C877 H880 0.929 . S
C878 C877 1.363 . S
C878 C884 1.428 . S
H879 C875 0.930 . S
H880 C877 0.929 . S
S881 N882 1.613 . S
S881 N883 1.610 . S
N882 S881 1.613 . S
N882 C885 1.350 . S
N883 S881 1.610 . S
N883 C884 1.351 . S
C884 C878 1.428 . S
C884 N883 1.351 . S
C884 C885 1.434 . S
C885 C876 1.429 . S
C885 N882 1.350 . S
C885 C884 1.434 . S
C886 C887 1.369 . S
C886 C888 1.419 . S
C886 H890 0.930 . S
C887 C886 1.369 . S
C887 C896 1.429 . S
C888 C886 1.419 . S
C888 C889 1.363 . S
C888 H891 0.929 . S
C889 C888 1.363 . S
C889 C895 1.428 . S
H890 C886 0.930 . S
H891 C888 0.929 . S
S892 N893 1.613 . S
S892 N894 1.610 . S
N893 S892 1.613 . S
N893 C896 1.350 . S
N894 S892 1.610 . S
N894 C895 1.351 . S
C895 C889 1.428 . S
C895 N894 1.351 . S
C895 C896 1.434 . S
C896 C887 1.429 . S
C896 N893 1.350 . S
C896 C895 1.434 . S
C897 C898 1.369 . S
C897 C899 1.419 . S
C897 H901 0.930 . S
C898 C897 1.369 . S
C898 C907 1.429 . S
C899 C897 1.419 . S
C899 C900 1.363 . S
C899 H902 0.929 . S
C900 C899 1.363 . S
C900 C906 1.428 . S
H901 C897 0.930 . S
H902 C899 0.929 . S
S903 N904 1.613 . S
S903 N905 1.610 . S
N904 S903 1.613 . S
N904 C907 1.350 . S
N905 S903 1.610 . S
N905 C906 1.351 . S
C906 C900 1.428 . S
C906 N905 1.351 . S
C906 C907 1.434 . S
C907 C898 1.429 . S
C907 N904 1.350 . S
C907 C906 1.434 . S
C908 C909 1.369 . S
C908 C910 1.419 . S
C908 H912 0.930 . S
C909 C908 1.369 . S
C909 C918 1.429 . S
C910 C908 1.419 . S
C910 C911 1.363 . S
C910 H913 0.929 . S
C911 C910 1.363 . S
C911 C917 1.428 . S
H912 C908 0.930 . S
H913 C910 0.929 . S
S914 N915 1.613 . S
S914 N916 1.610 . S
N915 S914 1.613 . S
N915 C918 1.350 . S
N916 S914 1.610 . S
N916 C917 1.351 . S
C917 C911 1.428 . S
C917 N916 1.351 . S
C917 C918 1.434 . S
C918 C909 1.429 . S
C918 N915 1.350 . S
C918 C917 1.434 . S
C919 C920 1.369 . S
C919 C921 1.419 . S
C919 H923 0.930 . S
C920 C919 1.369 . S
C920 C929 1.429 . S
C921 C919 1.419 . S
C921 C922 1.363 . S
C921 H924 0.929 . S
C922 C921 1.363 . S
C922 C928 1.428 . S
H923 C919 0.930 . S
H924 C921 0.929 . S
S925 N926 1.613 . S
S925 N927 1.610 . S
N926 S925 1.613 . S
N926 C929 1.350 . S
N927 S925 1.610 . S
N927 C928 1.351 . S
C928 C922 1.428 . S
C928 N927 1.351 . S
C928 C929 1.434 . S
C929 C920 1.429 . S
C929 N926 1.350 . S
C929 C928 1.434 . S
C930 C931 1.369 . S
C930 C932 1.419 . S
C930 H934 0.930 . S
C931 C930 1.369 . S
C931 C940 1.429 . S
C932 C930 1.419 . S
C932 C933 1.363 . S
C932 H935 0.929 . S
C933 C932 1.363 . S
C933 C939 1.428 . S
H934 C930 0.930 . S
H935 C932 0.929 . S
S936 N937 1.613 . S
S936 N938 1.610 . S
N937 S936 1.613 . S
N937 C940 1.350 . S
N938 S936 1.610 . S
N938 C939 1.351 . S
C939 C933 1.428 . S
C939 N938 1.351 . S
C939 C940 1.434 . S
C940 C931 1.429 . S
C940 N937 1.350 . S
C940 C939 1.434 . S
C941 C942 1.369 . S
C941 C943 1.419 . S
C941 H945 0.930 . S
C942 C941 1.369 . S
C942 C951 1.429 . S
C943 C941 1.419 . S
C943 C944 1.363 . S
C943 H946 0.929 . S
C944 C943 1.363 . S
C944 C950 1.428 . S
H945 C941 0.930 . S
H946 C943 0.929 . S
S947 N948 1.613 . S
S947 N949 1.610 . S
N948 S947 1.613 . S
N948 C951 1.350 . S
N949 S947 1.610 . S
N949 C950 1.351 . S
C950 C944 1.428 . S
C950 N949 1.351 . S
C950 C951 1.434 . S
C951 C942 1.429 . S
C951 N948 1.350 . S
C951 C950 1.434 . S
C603 C512 1.500 . S
C601 C35 1.349 . S
C614 C526 1.498 . S
C612 C115 1.360 . S
C625 C539 1.501 . S
C623 C177 1.376 . S
C634 C221 1.354 . S
C636 C506 1.508 . S
C645 C283 1.358 . S
C647 C499 1.511 . S
C656 C363 1.371 . S
C658 C519 1.508 . S
C669 C527 1.499 . S
C667 C407 1.355 . S
C680 C540 1.505 . S
C678 C469 1.367 . S
C689 C159 1.351 . S
C691 C566 1.500 . S
C702 C584 1.498 . S
C700 C239 1.360 . S
C711 C53 1.364 . S
C713 C591 1.502 . S
C724 C558 1.507 . S
C722 C97 1.363 . S
C733 C425 1.386 . S
C735 C551 1.510 . S
C744 C487 1.371 . S
C746 C565 1.508 . S
C757 C577 1.499 . S
C755 C301 1.379 . S
C766 C345 1.352 . S
C768 C592 1.507 . S
C779 C525 1.954 . S
C777 C29 1.959 . S
C790 C538 1.958 . S
C788 C109 1.910 . S
C799 C171 1.904 . S
C801 C501 1.950 . S
C810 C215 1.951 . S
C812 C513 1.939 . S
C821 C277 1.947 . S
C823 C545 1.934 . S
C834 C500 1.936 . S
C832 C357 1.897 . S
C845 C514 1.949 . S
C843 C401 1.960 . S
C856 C532 1.940 . S
C854 C463 1.953 . S
C867 C579 1.954 . S
C865 C153 1.961 . S
C878 C590 1.957 . S
C876 C233 1.910 . S
C887 C47 1.906 . S
C889 C553 1.949 . S
C900 C571 1.938 . S
C898 C91 1.953 . S
C911 C597 1.930 . S
C909 C419 1.902 . S
C920 C481 1.904 . S
C922 C552 1.932 . S
C933 C564 1.949 . S
C931 C295 1.911 . S
C944 C578 1.937 . S
C942 C339 1.957 . S
