# Generated by pormake.
# Topology pto, (3,4)-cn, num edge types: 1
# Building blocks:
#     Node 0, Type 0, BuildingBlock: QEWDON_clean_linker_0, # of connection points: 3
#     Node 1, Type 0, BuildingBlock: QEWDON_clean_linker_0, # of connection points: 3
#     Node 2, Type 0, BuildingBlock: QEWDON_clean_linker_0, # of connection points: 3
#     Node 3, Type 0, BuildingBlock: QEWDON_clean_linker_0, # of connection points: 3
#     Node 4, Type 0, BuildingBlock: QEWDON_clean_linker_0, # of connection points: 3
#     Node 5, Type 0, BuildingBlock: QEWDON_clean_linker_0, # of connection points: 3
#     Node 6, Type 0, BuildingBlock: QEWDON_clean_linker_0, # of connection points: 3
#     Node 7, Type 0, BuildingBlock: QEWDON_clean_linker_0, # of connection points: 3
#     Node 8, Type 1, BuildingBlock: KOZSID_clean_sbu_0, # of connection points: 4
#     Node 9, Type 1, BuildingBlock: KOZSID_clean_sbu_0, # of connection points: 4
#     Node 10, Type 1, BuildingBlock: KOZSID_clean_sbu_0, # of connection points: 4
#     Node 11, Type 1, BuildingBlock: KOZSID_clean_sbu_0, # of connection points: 4
#     Node 12, Type 1, BuildingBlock: KOZSID_clean_sbu_0, # of connection points: 4
#     Node 13, Type 1, BuildingBlock: KOZSID_clean_sbu_0, # of connection points: 4
#     Edge 14, Type (0, 1), BuildingBlock: EYOCIG_clean_linker_4, # of connection points: 2
#     Edge 15, Type (0, 1), BuildingBlock: EYOCIG_clean_linker_4, # of connection points: 2
#     Edge 16, Type (0, 1), BuildingBlock: EYOCIG_clean_linker_4, # of connection points: 2
#     Edge 17, Type (0, 1), BuildingBlock: EYOCIG_clean_linker_4, # of connection points: 2
#     Edge 18, Type (0, 1), BuildingBlock: EYOCIG_clean_linker_4, # of connection points: 2
#     Edge 19, Type (0, 1), BuildingBlock: EYOCIG_clean_linker_4, # of connection points: 2
#     Edge 20, Type (0, 1), BuildingBlock: EYOCIG_clean_linker_4, # of connection points: 2
#     Edge 21, Type (0, 1), BuildingBlock: EYOCIG_clean_linker_4, # of connection points: 2
#     Edge 22, Type (0, 1), BuildingBlock: EYOCIG_clean_linker_4, # of connection points: 2
#     Edge 23, Type (0, 1), BuildingBlock: EYOCIG_clean_linker_4, # of connection points: 2
#     Edge 24, Type (0, 1), BuildingBlock: EYOCIG_clean_linker_4, # of connection points: 2
#     Edge 25, Type (0, 1), BuildingBlock: EYOCIG_clean_linker_4, # of connection points: 2
#     Edge 26, Type (0, 1), BuildingBlock: EYOCIG_clean_linker_4, # of connection points: 2
#     Edge 27, Type (0, 1), BuildingBlock: EYOCIG_clean_linker_4, # of connection points: 2
#     Edge 28, Type (0, 1), BuildingBlock: EYOCIG_clean_linker_4, # of connection points: 2
#     Edge 29, Type (0, 1), BuildingBlock: EYOCIG_clean_linker_4, # of connection points: 2
#     Edge 30, Type (0, 1), BuildingBlock: EYOCIG_clean_linker_4, # of connection points: 2
#     Edge 31, Type (0, 1), BuildingBlock: EYOCIG_clean_linker_4, # of connection points: 2
#     Edge 32, Type (0, 1), BuildingBlock: EYOCIG_clean_linker_4, # of connection points: 2
#     Edge 33, Type (0, 1), BuildingBlock: EYOCIG_clean_linker_4, # of connection points: 2
#     Edge 34, Type (0, 1), BuildingBlock: EYOCIG_clean_linker_4, # of connection points: 2
#     Edge 35, Type (0, 1), BuildingBlock: EYOCIG_clean_linker_4, # of connection points: 2
#     Edge 36, Type (0, 1), BuildingBlock: EYOCIG_clean_linker_4, # of connection points: 2
#     Edge 37, Type (0, 1), BuildingBlock: EYOCIG_clean_linker_4, # of connection points: 2
# Relax obj value: 0.017
# Max RMSD: 0.202
# Mean RMSD: 0.076
data_MOF--net-pto--node1-KOZSID_clean_sbu_0--node2-QEWDON_clean_linker_0--edge1-EYOCIG_clean_linker_4
_symmetry_space_group_name_H-M    P1
_symmetry_Int_Tables_number       1
_symmetry_cell_setting            triclinic
loop_
_symmetry_equiv_pos_as_xyz
'x, y, z'
_cell_length_a     27.338295
_cell_length_b     41.299271
_cell_length_c     37.020833
_cell_angle_alpha  92.651314
_cell_angle_beta   109.16769
_cell_angle_gamma 103.6699
loop_
_atom_site_label
_atom_site_type_symbol
_atom_site_fract_x
_atom_site_fract_y
_atom_site_fract_z
_atom_type_partial_charge
H0 H 0.17063 0.31557 0.27669 0.0
C1 C 0.1693 0.29082 0.2855 0.0
C2 C 0.19259 0.26974 0.26963 0.0
C3 C 0.14859 0.28102 0.31477 0.0
H4 H 0.21643 0.22347 0.27214 0.0
C5 C 0.19574 0.23888 0.2829 0.0
C6 C 0.17531 0.22881 0.31174 0.0
C7 C 0.14981 0.24902 0.32633 0.0
C8 C 0.13274 0.30547 0.33688 0.0
H9 H 0.1336 0.24038 0.34829 0.0
C10 C 0.11213 0.33169 0.31992 0.0
C11 C 0.10311 0.35622 0.34272 0.0
C12 C 0.14254 0.30432 0.37667 0.0
H13 H 0.1606 0.28585 0.39157 0.0
C14 C 0.13146 0.32801 0.39863 0.0
H15 H 0.10438 0.33362 0.28958 0.0
C16 C 0.11205 0.35393 0.38182 0.0
H17 H 0.10533 0.37278 0.39966 0.0
H18 H 0.13947 0.32682 0.42911 0.0
H19 H 0.38764 0.80334 0.69753 0.0
C20 C 0.35865 0.7793 0.69355 0.0
C21 C 0.36972 0.75633 0.72035 0.0
C22 C 0.30769 0.77207 0.66374 0.0
H23 H 0.33749 0.71035 0.73963 0.0
C24 C 0.33038 0.72681 0.71749 0.0
C25 C 0.28034 0.71962 0.68843 0.0
C26 C 0.27011 0.741 0.66044 0.0
C27 C 0.28843 0.79824 0.64042 0.0
H28 H 0.23069 0.7348 0.6381 0.0
C29 C 0.32021 0.82079 0.62396 0.0
C30 C 0.29801 0.84407 0.60143 0.0
C31 C 0.23571 0.8005 0.63473 0.0
H32 H 0.21075 0.7849 0.64815 0.0
C33 C 0.21405 0.82298 0.61194 0.0
H34 H 0.36113 0.82013 0.62837 0.0
C35 C 0.24484 0.8445 0.59523 0.0
H36 H 0.22721 0.86205 0.57784 0.0
H37 H 0.1733 0.82394 0.60753 0.0
H38 H 0.93945 0.88098 0.45875 0.0
C39 C 0.91886 0.87582 0.42775 0.0
C40 C 0.92172 0.84742 0.40733 0.0
C41 C 0.88573 0.89577 0.40862 0.0
H42 H 0.89449 0.81661 0.35241 0.0
C43 C 0.89315 0.83922 0.36785 0.0
C44 C 0.86024 0.85861 0.34852 0.0
C45 C 0.85688 0.88715 0.36856 0.0
C46 C 0.87643 0.92286 0.43122 0.0
H47 H 0.83065 0.90187 0.3533 0.0
C48 C 0.91876 0.94406 0.46245 0.0
C49 C 0.90817 0.96789 0.48499 0.0
C50 C 0.82393 0.92622 0.4231 0.0
H51 H 0.7903 0.9098 0.39999 0.0
C52 C 0.8138 0.95006 0.44558 0.0
H53 H 0.95954 0.94202 0.46922 0.0
C54 C 0.85568 0.97077 0.47646 0.0
H55 H 0.84705 0.98902 0.49382 0.0
H56 H 0.77324 0.95223 0.43929 0.0
H57 H 0.82471 0.394 0.95964 0.0
C58 C 0.84069 0.37665 0.94699 0.0
C59 C 0.86718 0.38727 0.92117 0.0
C60 C 0.83739 0.34411 0.95784 0.0
H61 H 0.9109 0.37401 0.88635 0.0
C62 C 0.88982 0.36556 0.9059 0.0
C63 C 0.88656 0.33331 0.91621 0.0
C64 C 0.85993 0.32241 0.94168 0.0
C65 C 0.81437 0.33333 0.98804 0.0
H66 H 0.85744 0.29719 0.94929 0.0
C67 C 0.76666 0.34037 0.98908 0.0
C68 C 0.74595 0.32928 0.01784 0.0
C69 C 0.84085 0.31565 1.01647 0.0
H70 H 0.87809 0.31043 1.01706 0.0
C71 C 0.82015 0.30484 0.04487 0.0
H72 H 0.74543 0.35381 0.96744 0.0
C73 C 0.77291 0.31155 0.04555 0.0
H74 H 0.75734 0.30286 0.06783 0.0
H75 H 0.84086 0.29123 0.06649 0.0
H76 H 0.01176 0.86047 0.85633 0.0
C77 C 0.98207 0.85175 0.86969 0.0
C78 C 0.96294 0.81704 0.87039 0.0
C79 C 0.96455 0.87515 0.88806 0.0
H80 H 0.91212 0.77899 0.8898 0.0
C81 C 0.92622 0.80572 0.88886 0.0
C82 C 0.90805 0.82844 0.90663 0.0
C83 C 0.92667 0.86298 0.90598 0.0
C84 C 0.98878 0.91218 0.8922 0.0
H85 H 0.91236 0.88042 0.92004 0.0
C86 C 0.99587 0.9289 0.86095 0.0
C87 C 0.01666 0.96424 0.86642 0.0
C88 C 1.00416 0.93133 0.92854 0.0
H89 H 1.00025 0.91936 0.95324 0.0
C90 C 0.02491 0.96609 0.9337 0.0
H91 H 0.98393 0.91478 0.83263 0.0
C92 C 0.03088 0.98247 0.90284 0.0
H93 H 0.04645 1.00962 0.90741 0.0
H94 H 0.03613 0.98045 0.96175 0.0
H95 H 0.8468 0.40295 0.52954 0.0
C96 C 0.80779 0.39811 0.50699 0.0
C97 C 0.79747 0.42219 0.48188 0.0
C98 C 0.76971 0.3666 0.50024 0.0
H99 H 0.74394 0.4323 0.42884 0.0
C100 C 0.74981 0.41488 0.44997 0.0
C101 C 0.7121 0.38391 0.44315 0.0
C102 C 0.72025 0.36096 0.46952 0.0
C103 C 0.78417 0.33756 0.51991 0.0
H104 H 0.68981 0.33728 0.46374 0.0
C105 C 0.82062 0.34166 0.55824 0.0
C106 C 0.83512 0.31353 0.57422 0.0
C107 C 0.76357 0.30498 0.49863 0.0
H108 H 0.73805 0.30059 0.46857 0.0
C109 C 0.77693 0.2773 0.51514 0.0
H110 H 0.83801 0.36629 0.57528 0.0
C111 C 0.81248 0.28151 0.5527 0.0
H112 H 0.82331 0.25967 0.56474 0.0
H113 H 0.76057 0.25256 0.49839 0.0
H114 H 0.26688 0.26774 0.77564 0.0
C115 C 0.24165 0.28487 0.77221 0.0
C116 C 0.23059 0.2965 0.80423 0.0
C117 C 0.22163 0.29637 0.73632 0.0
H118 H 0.1924 0.3291 0.82578 0.0
C119 C 0.19953 0.31945 0.80072 0.0
C120 C 0.17954 0.33112 0.76555 0.0
C121 C 0.18956 0.31919 0.73342 0.0
C122 C 0.23172 0.28411 0.70124 0.0
H123 H 0.17194 0.3278 0.70616 0.0
C124 C 0.23567 0.25085 0.69439 0.0
C125 C 0.23949 0.23931 0.65919 0.0
C126 C 0.23345 0.30528 0.6726 0.0
H127 H 0.23244 0.33117 0.6769 0.0
C128 C 0.23607 0.29344 0.63763 0.0
H129 H 0.2341 0.23374 0.71555 0.0
C130 C 0.23879 0.26064 0.63086 0.0
H131 H 0.24089 0.25199 0.60344 0.0
H132 H 0.23611 0.30985 0.61567 0.0
H133 H 0.29825 0.83629 0.20904 0.0
C134 C 0.27656 0.81717 0.22141 0.0
C135 C 0.26258 0.82637 0.25302 0.0
C136 C 0.26046 0.78321 0.20487 0.0
H137 H 0.22293 0.80872 0.29285 0.0
C138 C 0.23368 0.80165 0.26844 0.0
C139 C 0.2182 0.76791 0.25245 0.0
C140 C 0.2312 0.75874 0.2206 0.0
C141 C 0.26967 0.77302 0.16927 0.0
H142 H 0.21834 0.73259 0.20787 0.0
C143 C 0.32174 0.77501 0.16889 0.0
C144 C 0.32829 0.76237 0.13524 0.0
C145 C 0.22494 0.75893 0.13575 0.0
H146 H 0.18461 0.75697 0.13554 0.0
C147 C 0.23174 0.74706 0.10233 0.0
H148 H 0.3565 0.78537 0.19476 0.0
C149 C 0.28312 0.74867 0.10207 0.0
H150 H 0.28757 0.73892 0.07596 0.0
H151 H 0.19704 0.73623 0.07665 0.0
C152 C 0.11282 0.65207 0.3768 0.0
C153 C 0.16583 0.66915 0.39776 0.0
C154 C 0.17763 0.65876 0.43331 0.0
C155 C 0.13142 0.63601 0.43207 0.0
N156 N 0.09063 0.63125 0.39786 0.0
Co157 Co 0.0149 0.60305 0.3848 0.0
N158 N 0.03116 0.59018 0.43838 0.0
C159 C 0.07878 0.59989 0.46801 0.0
C160 C 0.07737 0.5876 0.50149 0.0
C161 C 0.02591 0.56851 0.49271 0.0
C162 C 0.99888 0.57032 0.45419 0.0
N163 N 0.93918 0.57486 0.37175 0.0
C164 C 0.9164 0.55518 0.39342 0.0
C165 C 0.86336 0.53808 0.37253 0.0
C166 C 0.85216 0.54733 0.33641 0.0
C167 C 0.89873 0.56947 0.33729 0.0
N168 N 0.99856 0.6162 0.33133 0.0
C169 C 0.95102 0.60634 0.30163 0.0
C170 C 0.95189 0.61981 0.26865 0.0
C171 C 1.0028 0.63993 0.27791 0.0
C172 C 0.03013 0.63749 0.31618 0.0
N173 N 0.03475 0.56315 0.36801 0.0
C174 C 0.05595 0.50333 0.34655 0.0
C175 C 0.0146 0.51425 0.32174 0.0
C176 C 1.0047 0.54401 0.33296 0.0
C177 C 0.08812 0.52309 0.38163 0.0
C178 C 0.07725 0.55305 0.39157 0.0
N179 N 0.9952 0.64289 0.40143 0.0
C180 C 0.94407 0.6839 0.38613 0.0
C181 C 0.97903 0.70503 0.4196 0.0
C182 C 0.01957 0.69398 0.44512 0.0
C183 C 0.02685 0.66294 0.43558 0.0
C184 C 0.9524 0.65271 0.37789 0.0
H185 H 0.05949 0.65634 0.45576 0.0
H186 H 0.92476 0.6374 0.35191 0.0
H187 H 0.97179 0.55049 0.31298 0.0
H188 H 0.10322 0.56731 0.41861 0.0
C189 C 0.12398 0.62088 0.46349 0.0
C190 C 0.08534 0.65671 0.33717 0.0
C191 C 0.94332 0.55168 0.43361 0.0
C192 C 0.90609 0.58474 0.30589 0.0
H193 H 0.19291 0.6876 0.38847 0.0
H194 H 0.21497 0.66747 0.45755 0.0
H195 H 0.1099 0.59192 0.52897 0.0
H196 H 0.01015 0.55454 0.51231 0.0
H197 H 0.83575 0.52055 0.38233 0.0
H198 H 0.81473 0.53864 0.31225 0.0
H199 H 0.9192 0.61582 0.24129 0.0
H200 H 0.01793 0.65508 0.25884 0.0
H201 H 0.98909 0.49949 0.29415 0.0
H202 H 0.12091 0.51528 0.40152 0.0
H203 H 0.91147 0.6917 0.366 0.0
H204 H 0.04678 0.70973 0.47168 0.0
C205 C 0.13848 0.61224 0.7927 0.0
C206 C 0.19089 0.62982 0.81463 0.0
C207 C 0.19947 0.62235 0.85134 0.0
C208 C 0.15204 0.60079 0.84977 0.0
N209 N 0.11359 0.59396 0.81424 0.0
Co210 Co 0.03735 0.56613 0.79968 0.0
N211 N 0.04968 0.55574 0.85397 0.0
C212 C 0.09609 0.56605 0.88463 0.0
C213 C 0.09289 0.55377 0.91776 0.0
C214 C 0.04145 0.53424 0.90771 0.0
C215 C 0.01615 0.5358 0.86884 0.0
N216 N 0.96093 0.53861 0.7852 0.0
C217 C 0.93595 0.52016 0.80659 0.0
C218 C 0.88315 0.50328 0.7848 0.0
C219 C 0.87438 0.51135 0.74833 0.0
C220 C 0.92204 0.53261 0.74992 0.0
N221 N 0.0251 0.57612 0.74527 0.0
C222 C 0.9789 0.56544 0.71451 0.0
C223 C 0.98224 0.57725 0.68119 0.0
C224 C 0.03366 0.59672 0.69116 0.0
C225 C 0.05875 0.5956 0.73018 0.0
N226 N 0.05845 0.52511 0.78772 0.0
C227 C 0.08436 0.46486 0.77392 0.0
C228 C 0.04051 0.47264 0.74753 0.0
C229 C 0.02833 0.50278 0.75492 0.0
C230 C 0.11605 0.48785 0.80664 0.0
C231 C 0.10275 0.51777 0.81279 0.0
N232 N 0.01676 0.60738 0.81168 0.0
C233 C 0.96826 0.64906 0.79017 0.0
C234 C 1.00056 0.67116 0.82357 0.0
C235 C 0.03837 0.66025 0.85206 0.0
C236 C 0.0456 0.62841 0.84566 0.0
C237 C 0.97655 0.61723 0.78502 0.0
H238 H 0.07575 0.62182 0.86828 0.0
H239 H 0.9508 0.60133 0.75894 0.0
H240 H 0.99411 0.50729 0.73391 0.0
H241 H 0.12871 0.53443 0.83816 0.0
C242 C 0.14215 0.58708 0.88127 0.0
C243 C 0.11422 0.61383 0.75163 0.0
C244 C 0.96067 0.51737 0.84724 0.0
C245 C 0.93239 0.54555 0.71826 0.0
H246 H 0.21978 0.64652 0.80511 0.0
H247 H 0.23577 0.63179 0.87629 0.0
H248 H 0.12435 0.55822 0.94579 0.0
H249 H 0.02455 0.52017 0.92673 0.0
H250 H 0.85421 0.4865 0.79421 0.0
H251 H 0.83796 0.50222 0.72341 0.0
H252 H 0.95077 0.5727 0.65315 0.0
H253 H 0.05064 0.61051 0.672 0.0
H254 H 0.01546 0.45547 0.72149 0.0
H255 H 0.15086 0.48273 0.82752 0.0
H256 H 0.93745 0.65647 0.76784 0.0
H257 H 0.0632 0.6765 0.87884 0.0
C258 C 0.35258 1.00301 0.51371 0.0
C259 C 0.40688 1.0063 0.53259 0.0
C260 C 0.43385 0.03597 0.52511 0.0
C261 C 0.39468 0.0491 0.50225 0.0
N262 N 0.34417 0.0298 0.49498 0.0
Co263 Co 0.27549 0.0384 0.46114 0.0
N264 N 0.31562 0.0796 0.44579 0.0
C265 C 0.36956 0.09222 0.45736 0.0
C266 C 0.38536 0.12093 0.44236 0.0
C267 C 0.33872 0.12723 0.42001 0.0
C268 C 0.29702 0.10186 0.42276 0.0
N269 N 0.20674 0.04712 0.4276 0.0
C270 C 0.1985 0.0728 0.40687 0.0
C271 C 0.14413 0.07007 0.38892 0.0
C272 C 0.11701 0.04178 0.39881 0.0
C273 C 0.15614 0.0289 0.42215 0.0
N274 N 0.23549 0.99683 0.47595 0.0
C275 C 0.18154 0.98428 0.46462 0.0
C276 C 0.16588 0.95458 0.47791 0.0
C277 C 0.21258 0.94731 0.49841 0.0
C278 C 0.25424 0.97316 0.49643 0.0
N279 N 0.27311 0.06666 0.50554 0.0
C280 C 0.2658 0.11031 0.56337 0.0
C281 C 0.22256 0.08323 0.54278 0.0
C282 C 0.22707 0.06183 0.51431 0.0
C283 C 0.3134 0.11478 0.55569 0.0
C284 C 0.31631 0.09267 0.52702 0.0
N285 N 0.27765 1.01023 0.41691 0.0
C286 C 0.23444 0.96342 0.36551 0.0
C287 C 0.28303 0.96468 0.36037 0.0
C288 C 0.32842 0.98992 0.38246 0.0
C289 C 0.32484 0.01244 0.41035 0.0
C290 C 0.23255 0.98646 0.39356 0.0
H291 H 0.36099 0.03089 0.42689 0.0
H292 H 0.19441 0.98403 0.39647 0.0
H293 H 0.19231 0.04194 0.4994 0.0
H294 H 0.35364 0.09749 0.52238 0.0
C295 C 0.40422 0.07743 0.48382 0.0
C296 C 0.31074 0.97346 0.51324 0.0
C297 C 0.24055 0.10056 0.4039 0.0
C298 C 0.14665 1.00005 0.43978 0.0
H299 H 0.42511 0.98861 0.54918 0.0
H300 H 0.47696 0.04609 0.53397 0.0
H301 H 0.42594 0.13586 0.44763 0.0
H302 H 0.33568 0.14837 0.40397 0.0
H303 H 0.12597 0.087 0.37085 0.0
H304 H 0.0739 0.03197 0.39036 0.0
H305 H 0.12532 0.93952 0.47243 0.0
H306 H 0.21565 0.92513 0.51252 0.0
H307 H 0.18494 0.07893 0.54802 0.0
H308 H 0.34795 0.13558 0.57123 0.0
H309 H 0.19825 0.94425 0.34858 0.0
H310 H 0.36678 0.99177 0.37897 0.0
C311 C 0.55215 0.79031 0.06561 0.0
C312 C 0.53944 0.81941 0.0752 0.0
C313 C 0.57046 0.84514 0.06422 0.0
C314 C 0.60027 0.83042 0.04868 0.0
N315 N 0.5894 0.79666 0.04822 0.0
Co316 Co 0.62767 0.76599 0.03197 0.0
N317 N 0.67525 0.80432 0.01768 0.0
C318 C 0.6731 0.83677 0.01883 0.0
C319 C 0.71009 0.85729 1.00667 0.0
C320 C 0.73696 0.83671 0.99645 0.0
C321 C 0.71477 0.80463 1.00314 0.0
N322 N 0.66776 0.73564 0.01752 0.0
C323 C 0.7083 0.74246 1.00314 0.0
C324 C 0.72405 0.71385 0.99649 0.0
C325 C 0.69223 0.688 1.00695 0.0
C326 C 0.65912 0.70227 0.01943 0.0
N327 N 0.57831 0.72752 0.0447 0.0
C328 C 0.57727 0.69465 0.04031 0.0
C329 C 0.54074 0.67424 0.05312 0.0
C330 C 0.51728 0.69538 0.06677 0.0
C331 C 0.54112 0.72758 0.06161 0.0
N332 N 0.57693 0.75837 0.97772 0.0
C333 C 0.52208 0.75298 0.89786 0.0
C334 C 0.53464 0.72497 0.91452 0.0
C335 C 0.56186 0.72817 0.95454 0.0
C336 C 0.5338 0.78275 0.92177 0.0
C337 C 0.56032 0.78476 0.96129 0.0
N338 N 0.67853 0.77423 0.08606 0.0
C339 C 0.70856 0.75642 0.14922 0.0
C340 C 0.73364 0.78981 0.16577 0.0
C341 C 0.73469 0.81469 0.14202 0.0
C342 C 0.7074 0.80645 0.10258 0.0
C343 C 0.68184 0.74911 0.10911 0.0
H344 H 0.70885 0.82704 0.08654 0.0
H345 H 0.66286 0.72323 0.09754 0.0
H346 H 0.57147 0.70625 0.96597 0.0
H347 H 0.56817 0.80834 0.97772 0.0
C348 C 0.63875 0.84765 0.03434 0.0
C349 C 0.52914 0.7576 0.07492 0.0
C350 C 0.73202 0.77536 0.99452 0.0
C351 C 0.61635 0.68459 0.02951 0.0
H352 H 0.51137 0.82189 0.08938 0.0
H353 H 0.57183 0.87154 0.06776 0.0
H354 H 0.71711 0.88411 1.00579 0.0
H355 H 0.76928 0.8445 0.98533 0.0
H356 H 0.75472 0.71182 0.98468 0.0
H357 H 0.69218 0.66176 1.00466 0.0
H358 H 0.53392 0.64745 0.05419 0.0
H359 H 0.48735 0.68811 0.08021 0.0
H360 H 0.52462 0.70106 0.89681 0.0
H361 H 0.52344 0.80476 0.90993 0.0
H362 H 0.70829 0.73634 0.16704 0.0
H363 H 0.75494 0.84078 0.15398 0.0
C364 C 0.06674 0.12414 0.77749 0.0
C365 C 0.12102 0.12678 0.7953 0.0
C366 C 0.14823 0.15642 0.78763 0.0
C367 C 0.1092 0.17022 0.76572 0.0
N368 N 0.05868 0.15137 0.75953 0.0
Co369 Co 0.98996 0.16017 0.72624 0.0
N370 N 0.02955 0.20057 0.71005 0.0
C371 C 0.08291 0.21112 0.71777 0.0
C372 C 0.09709 0.23838 0.7002 0.0
C373 C 0.05096 0.24744 0.68281 0.0
C374 C 0.01076 0.22438 0.69012 0.0
N375 N 0.92127 0.16948 0.69355 0.0
C376 C 0.91355 0.19766 0.67777 0.0
C377 C 0.85944 0.19579 0.66055 0.0
C378 C 0.83182 0.16568 0.66668 0.0
C379 C 0.87055 0.151 0.68717 0.0
N380 N 0.94972 0.11926 0.74169 0.0
C381 C 0.89572 0.1069 0.73053 0.0
C382 C 0.87996 0.07775 0.74475 0.0
C383 C 0.92658 0.07043 0.7652 0.0
C384 C 0.96828 0.09566 0.76219 0.0
N385 N 0.98932 0.18915 0.77021 0.0
C386 C 0.98073 0.23544 0.82408 0.0
C387 C 0.9387 0.20709 0.80602 0.0
C388 C 0.94383 0.18437 0.77949 0.0
C389 C 0.02836 0.23986 0.81644 0.0
C390 C 0.03198 0.21624 0.78964 0.0
N391 N 0.99099 0.13119 0.6822 0.0
C392 C 0.94706 0.08353 0.63209 0.0
C393 C 0.99549 0.08413 0.62706 0.0
C394 C 0.04119 0.10916 0.64855 0.0
C395 C 0.03804 0.13237 0.67574 0.0
C396 C 0.94559 0.10737 0.65943 0.0
H397 H 0.07462 0.15039 0.69165 0.0
H398 H 0.90754 0.10557 0.66213 0.0
H399 H 0.90966 0.16372 0.76599 0.0
H400 H 0.06893 0.22082 0.78422 0.0
C401 C 0.11849 0.19726 0.74505 0.0
C402 C 0.02423 0.09457 0.77636 0.0
C403 C 0.95633 0.22734 0.68053 0.0
C404 C 0.86086 0.12236 0.70512 0.0
H405 H 0.13897 0.1085 0.81083 0.0
H406 H 0.19127 0.16571 0.79504 0.0
H407 H 0.13618 0.25042 0.70037 0.0
H408 H 0.04745 0.2689 0.66739 0.0
H409 H 0.84189 0.2148 0.64641 0.0
H410 H 0.78875 0.15648 0.65909 0.0
H411 H 0.8394 0.06295 0.7397 0.0
H412 H 0.92942 0.04834 0.77953 0.0
H413 H 0.90128 0.20287 0.81156 0.0
H414 H 0.06198 0.26166 0.83028 0.0
H415 H 0.91054 0.06456 0.61528 0.0
H416 H 0.07932 0.11059 0.64481 0.0
C417 C 0.36833 0.33706 0.15401 0.0
C418 C 0.35209 0.36508 0.16226 0.0
C419 C 0.38277 0.39177 0.15229 0.0
C420 C 0.41581 0.37861 0.13856 0.0
N421 N 0.40813 0.34506 0.1391 0.0
Co422 Co 0.45027 0.31626 0.12458 0.0
N423 N 0.49577 0.35577 0.11025 0.0
C424 C 0.49325 0.38809 0.11296 0.0
C425 C 0.52836 0.40934 0.09982 0.0
C426 C 0.55413 0.38931 0.0871 0.0
C427 C 0.5331 0.35688 0.09331 0.0
N428 N 0.49259 0.28759 0.11007 0.0
C429 C 0.52945 0.29512 0.09242 0.0
C430 C 0.54671 0.2673 0.08509 0.0
C431 C 0.51935 0.24118 0.09814 0.0
C432 C 0.48712 0.25445 0.11269 0.0
N433 N 0.40448 0.2767 0.13851 0.0
C434 C 0.40832 0.24461 0.13698 0.0
C435 C 0.37196 0.22311 0.14887 0.0
C436 C 0.34336 0.24263 0.1589 0.0
C437 C 0.3641 0.27507 0.15252 0.0
N438 N 0.39914 0.30658 0.07069 0.0
C439 C 0.33852 0.29372 0.99164 0.0
C440 C 0.34939 0.26744 1.01228 0.0
C441 C 0.37962 0.27438 0.05163 0.0
C442 C 0.3554 0.32625 1.01119 0.0
C443 C 0.38505 0.33206 0.05072 0.0
N444 N 0.50138 0.32587 0.17882 0.0
C445 C 0.54145 0.3063 0.23947 0.0
C446 C 0.55924 0.33903 0.25847 0.0
C447 C 0.55097 0.36524 0.2371 0.0
C448 C 0.52228 0.35818 0.19754 0.0
C449 C 0.5133 0.30035 0.19966 0.0
H450 H 0.51659 0.3793 0.1831 0.0
H451 H 0.50082 0.27489 0.18664 0.0
H452 H 0.38801 0.25342 0.06572 0.0
H453 H 0.39735 0.35741 0.06435 0.0
C454 C 0.45546 0.39731 0.12612 0.0
C455 C 0.34537 0.3036 0.16149 0.0
C456 C 0.54799 0.32781 0.08102 0.0
C457 C 0.44745 0.2357 0.12512 0.0
H458 H 0.3216 0.36614 0.17462 0.0
H459 H 0.38168 0.41776 0.15523 0.0
H460 H 0.53349 0.43602 0.09858 0.0
H461 H 0.58407 0.39747 0.07386 0.0
H462 H 0.57514 0.26587 0.07088 0.0
H463 H 0.52113 0.21529 0.09587 0.0
H464 H 0.36729 0.19651 0.15054 0.0
H465 H 0.31134 0.23407 0.17015 0.0
H466 H 0.3362 0.24181 0.99793 0.0
H467 H 0.34696 0.34719 0.99593 0.0
H468 H 0.54854 0.2854 0.25524 0.0
H469 H 0.56559 0.39109 0.25095 0.0
C470 C 0.07822 0.41219 0.32432 0.0
C471 C 0.08886 0.3856 0.32803 0.0
C472 C 0.06982 0.44429 0.32867 0.0
C473 C 0.06327 0.47117 0.33664 0.0
C474 C 0.20559 0.67264 0.70029 0.0
C475 C 0.23705 0.6943 0.69249 0.0
C476 C 0.17223 0.65069 0.71575 0.0
C477 C 0.14569 0.63363 0.73169 0.0
C478 C 0.96324 0.79884 0.43324 0.0
C479 C 0.94757 0.82347 0.42649 0.0
C480 C 0.97182 0.76669 0.43228 0.0
C481 C 0.97563 0.73864 0.42691 0.0
C482 C 0.88724 0.44662 0.89836 0.0
C483 C 0.87479 0.42088 0.91116 0.0
C484 C 0.9087 0.47359 0.88121 0.0
C485 C 0.93092 0.49435 0.86586 0.0
C486 C 0.19704 0.17617 0.34535 0.0
C487 C 0.18709 0.20016 0.33009 0.0
C488 C 0.21224 0.14968 0.36509 0.0
C489 C 0.22574 0.12748 0.38259 0.0
C490 C 0.44912 0.76161 0.78554 0.0
C491 C 0.41721 0.7636 0.75465 0.0
C492 C 0.47731 0.75596 0.82331 0.0
C493 C 0.49759 0.75225 0.85666 0.0
C494 C 0.97549 1.01071 0.54487 0.0
C495 C 0.94998 0.98974 0.51724 0.0
C496 C 0.9926 0.03689 0.57557 0.0
C497 C 0.99755 0.05926 0.59957 0.0
C498 C 0.65821 0.33659 0.02806 0.0
C499 C 0.69696 0.3352 0.01987 0.0
C500 C 0.61673 0.33492 0.04331 0.0
C501 C 0.58436 0.33193 0.05943 0.0
C502 C 0.33671 0.89255 0.56753 0.0
C503 C 0.32756 0.86902 0.58478 0.0
C504 C 0.33411 0.92095 0.54758 0.0
C505 C 0.32531 0.94492 0.53154 0.0
C506 C 0.80301 0.83228 0.27661 0.0
C507 C 0.82698 0.84661 0.30895 0.0
C508 C 0.77747 0.81363 0.23952 0.0
C509 C 0.75651 0.79984 0.20676 0.0
C510 C 0.93451 0.29601 0.88707 0.0
C511 C 0.91208 0.31203 0.90109 0.0
C512 C 0.95814 0.27742 0.86798 0.0
C513 C 0.97266 0.26003 0.84879 0.0
C514 C 0.24282 0.28794 0.22091 0.0
C515 C 0.2192 0.28112 0.24304 0.0
C516 C 0.27532 0.29443 0.19795 0.0
C517 C 0.306 0.29898 0.18047 0.0
C518 C 0.98913 0.76622 0.84325 0.0
C519 C 0.98122 0.79196 0.85393 0.0
C520 C 0.99337 0.73355 0.83427 0.0
C521 C 0.99578 0.70502 0.82864 0.0
C522 C 0.86588 0.47802 0.47953 0.0
C523 C 0.83838 0.45219 0.48406 0.0
C524 C 0.89381 0.50576 0.46685 0.0
C525 C 0.91606 0.52742 0.45248 0.0
C526 C 0.1308 0.37977 0.76289 0.0
C527 C 0.15288 0.35761 0.76344 0.0
C528 C 0.11058 0.4081 0.76452 0.0
C529 C 0.09723 0.43362 0.76768 0.0
C530 C 0.16442 0.72272 0.28369 0.0
C531 C 0.18888 0.74281 0.26893 0.0
C532 C 0.13675 0.69977 0.30208 0.0
C533 C 0.1135 0.68028 0.31811 0.0
C534 C 0.03006 1.00607 0.81688 0.0
C535 C 0.02188 0.98342 0.83553 0.0
C536 C 0.03672 0.03672 0.80095 0.0
C537 C 0.03606 0.06371 0.78971 0.0
C538 C 0.63935 0.36415 0.37329 0.0
C539 C 0.6722 0.37266 0.4053 0.0
C540 C 0.60835 0.35383 0.33393 0.0
C541 C 0.58582 0.34607 0.29963 0.0
C542 C 0.24919 0.18053 0.63612 0.0
C543 C 0.24454 0.20594 0.65072 0.0
C544 C 0.25543 0.15429 0.61329 0.0
C545 C 0.2602 0.13428 0.59057 0.0
C546 C 0.41925 0.75996 0.12608 0.0
C547 C 0.38045 0.76241 0.13372 0.0
C548 C 0.45985 0.75655 0.11146 0.0
C549 C 0.49196 0.75528 0.09582 0.0
C550 C 0.90379 0.30549 0.63811 0.0
C551 C 0.87499 0.31581 0.61168 0.0
C552 C 0.9292 0.28296 0.6595 0.0
C553 C 0.94406 0.25889 0.67111 0.0
C554 C 0.27092 0.28354 0.87537 0.0
C555 C 0.25443 0.2877 0.84197 0.0
C556 C 0.29219 0.28407 0.9157 0.0
C557 C 0.31319 0.28766 0.9503 0.0
C558 C 0.28274 0.8879 0.2877 0.0
C559 C 0.27588 0.86101 0.26976 0.0
C560 C 0.28627 0.91672 0.3117 0.0
C561 C 0.2865 0.93902 0.33412 0.0
C562 C 0.84084 0.80315 0.94221 0.0
C563 C 0.87139 0.81574 0.92637 0.0
C564 C 0.8044 0.78877 0.96042 0.0
C565 C 0.77201 0.77974 0.97601 0.0
loop_
_geom_bond_atom_site_label_1
_geom_bond_atom_site_label_2
_geom_bond_distance
_geom_bond_site_symmetry_2
_ccdc_geom_bond_type
H0 C1 0.949 . S
C1 H0 0.949 . S
C1 C2 1.395 . S
C1 C3 1.391 . S
C2 C1 1.395 . S
C2 C5 1.390 . S
C3 C1 1.391 . S
C3 C7 1.387 . S
C3 C8 1.491 . S
H4 C5 0.950 . S
C5 C2 1.390 . S
C5 H4 0.950 . S
C5 C6 1.378 . S
C6 C5 1.378 . S
C6 C7 1.409 . S
C7 C3 1.387 . S
C7 C6 1.409 . S
C7 H9 0.951 . S
C8 C3 1.491 . S
C8 C10 1.382 . S
C8 C12 1.404 . S
H9 C7 0.951 . S
C10 C8 1.382 . S
C10 C11 1.390 . S
C10 H15 0.949 . S
C11 C10 1.390 . S
C11 C16 1.399 . S
C12 C8 1.404 . S
C12 H13 0.950 . S
C12 C14 1.375 . S
H13 C12 0.950 . S
C14 C12 1.375 . S
C14 C16 1.382 . S
C14 H18 0.950 . S
H15 C10 0.949 . S
C16 C11 1.399 . S
C16 C14 1.382 . S
C16 H17 0.952 . S
H17 C16 0.952 . S
H18 C14 0.950 . S
H19 C20 0.949 . S
C20 H19 0.949 . S
C20 C21 1.395 . S
C20 C22 1.391 . S
C21 C20 1.395 . S
C21 C24 1.390 . S
C22 C20 1.391 . S
C22 C26 1.387 . S
C22 C27 1.491 . S
H23 C24 0.950 . S
C24 C21 1.390 . S
C24 H23 0.950 . S
C24 C25 1.378 . S
C25 C24 1.378 . S
C25 C26 1.409 . S
C26 C22 1.387 . S
C26 C25 1.409 . S
C26 H28 0.951 . S
C27 C22 1.491 . S
C27 C29 1.382 . S
C27 C31 1.404 . S
H28 C26 0.951 . S
C29 C27 1.382 . S
C29 C30 1.390 . S
C29 H34 0.949 . S
C30 C29 1.390 . S
C30 C35 1.399 . S
C31 C27 1.404 . S
C31 H32 0.950 . S
C31 C33 1.375 . S
H32 C31 0.950 . S
C33 C31 1.375 . S
C33 C35 1.382 . S
C33 H37 0.950 . S
H34 C29 0.949 . S
C35 C30 1.399 . S
C35 C33 1.382 . S
C35 H36 0.952 . S
H36 C35 0.952 . S
H37 C33 0.950 . S
H38 C39 0.949 . S
C39 H38 0.949 . S
C39 C40 1.395 . S
C39 C41 1.391 . S
C40 C39 1.395 . S
C40 C43 1.390 . S
C41 C39 1.391 . S
C41 C45 1.387 . S
C41 C46 1.491 . S
H42 C43 0.950 . S
C43 C40 1.390 . S
C43 H42 0.950 . S
C43 C44 1.378 . S
C44 C43 1.378 . S
C44 C45 1.409 . S
C45 C41 1.387 . S
C45 C44 1.409 . S
C45 H47 0.951 . S
C46 C41 1.491 . S
C46 C48 1.382 . S
C46 C50 1.404 . S
H47 C45 0.951 . S
C48 C46 1.382 . S
C48 C49 1.390 . S
C48 H53 0.949 . S
C49 C48 1.390 . S
C49 C54 1.399 . S
C50 C46 1.404 . S
C50 H51 0.950 . S
C50 C52 1.375 . S
H51 C50 0.950 . S
C52 C50 1.375 . S
C52 C54 1.382 . S
C52 H56 0.950 . S
H53 C48 0.949 . S
C54 C49 1.399 . S
C54 C52 1.382 . S
C54 H55 0.952 . S
H55 C54 0.952 . S
H56 C52 0.950 . S
H57 C58 0.949 . S
C58 H57 0.949 . S
C58 C59 1.395 . S
C58 C60 1.391 . S
C59 C58 1.395 . S
C59 C62 1.390 . S
C60 C58 1.391 . S
C60 C64 1.387 . S
C60 C65 1.491 . S
H61 C62 0.950 . S
C62 C59 1.390 . S
C62 H61 0.950 . S
C62 C63 1.378 . S
C63 C62 1.378 . S
C63 C64 1.409 . S
C64 C60 1.387 . S
C64 C63 1.409 . S
C64 H66 0.951 . S
C65 C60 1.491 . S
C65 C67 1.382 . S
C65 C69 1.404 . S
H66 C64 0.951 . S
C67 C65 1.382 . S
C67 C68 1.401 . S
C67 H72 0.949 . S
C68 C67 1.401 . S
C68 C73 1.392 1_556 S
C69 C65 1.404 . S
C69 H70 0.950 . S
C69 C71 1.375 1_556 S
H70 C69 0.950 . S
C71 C69 1.375 1_554 S
C71 C73 1.382 . S
C71 H75 0.950 . S
H72 C67 0.949 . S
C73 C68 1.392 1_554 S
C73 C71 1.382 . S
C73 H74 0.952 . S
H74 C73 0.952 . S
H75 C71 0.950 . S
H76 C77 0.949 1_455 S
C77 H76 0.949 1_655 S
C77 C78 1.395 . S
C77 C79 1.391 . S
C78 C77 1.395 . S
C78 C81 1.390 . S
C79 C77 1.391 . S
C79 C83 1.387 . S
C79 C84 1.491 . S
H80 C81 0.950 . S
C81 C78 1.390 . S
C81 H80 0.950 . S
C81 C82 1.378 . S
C82 C81 1.378 . S
C82 C83 1.409 . S
C83 C79 1.387 . S
C83 C82 1.409 . S
C83 H85 0.951 . S
C84 C79 1.491 . S
C84 C86 1.382 . S
C84 C88 1.404 . S
H85 C83 0.951 . S
C86 C84 1.382 . S
C86 C87 1.390 1_655 S
C86 H91 0.949 . S
C87 C86 1.390 1_455 S
C87 C92 1.399 . S
C88 C84 1.404 . S
C88 H89 0.950 . S
C88 C90 1.375 1_655 S
H89 C88 0.950 . S
C90 C88 1.375 1_455 S
C90 C92 1.382 . S
C90 H94 0.950 . S
H91 C86 0.949 . S
C92 C87 1.399 . S
C92 C90 1.382 . S
C92 H93 0.952 . S
H93 C92 0.952 . S
H94 C90 0.950 . S
H95 C96 0.949 . S
C96 H95 0.949 . S
C96 C97 1.395 . S
C96 C98 1.391 . S
C97 C96 1.395 . S
C97 C100 1.390 . S
C98 C96 1.391 . S
C98 C102 1.387 . S
C98 C103 1.491 . S
H99 C100 0.950 . S
C100 C97 1.390 . S
C100 H99 0.950 . S
C100 C101 1.378 . S
C101 C100 1.378 . S
C101 C102 1.409 . S
C102 C98 1.387 . S
C102 C101 1.409 . S
C102 H104 0.951 . S
C103 C98 1.491 . S
C103 C105 1.382 . S
C103 C107 1.404 . S
H104 C102 0.951 . S
C105 C103 1.382 . S
C105 C106 1.390 . S
C105 H110 0.949 . S
C106 C105 1.390 . S
C106 C111 1.399 . S
C107 C103 1.404 . S
C107 H108 0.950 . S
C107 C109 1.375 . S
H108 C107 0.950 . S
C109 C107 1.375 . S
C109 C111 1.382 . S
C109 H113 0.950 . S
H110 C105 0.949 . S
C111 C106 1.399 . S
C111 C109 1.382 . S
C111 H112 0.952 . S
H112 C111 0.952 . S
H113 C109 0.950 . S
H114 C115 0.949 . S
C115 H114 0.949 . S
C115 C116 1.395 . S
C115 C117 1.391 . S
C116 C115 1.395 . S
C116 C119 1.390 . S
C117 C115 1.391 . S
C117 C121 1.387 . S
C117 C122 1.491 . S
H118 C119 0.950 . S
C119 C116 1.390 . S
C119 H118 0.950 . S
C119 C120 1.378 . S
C120 C119 1.378 . S
C120 C121 1.409 . S
C121 C117 1.387 . S
C121 C120 1.409 . S
C121 H123 0.951 . S
C122 C117 1.491 . S
C122 C124 1.382 . S
C122 C126 1.404 . S
H123 C121 0.951 . S
C124 C122 1.382 . S
C124 C125 1.390 . S
C124 H129 0.949 . S
C125 C124 1.390 . S
C125 C130 1.399 . S
C126 C122 1.404 . S
C126 H127 0.950 . S
C126 C128 1.375 . S
H127 C126 0.950 . S
C128 C126 1.375 . S
C128 C130 1.382 . S
C128 H132 0.950 . S
H129 C124 0.949 . S
C130 C125 1.399 . S
C130 C128 1.382 . S
C130 H131 0.952 . S
H131 C130 0.952 . S
H132 C128 0.950 . S
H133 C134 0.949 . S
C134 H133 0.949 . S
C134 C135 1.395 . S
C134 C136 1.391 . S
C135 C134 1.395 . S
C135 C138 1.390 . S
C136 C134 1.391 . S
C136 C140 1.387 . S
C136 C141 1.491 . S
H137 C138 0.950 . S
C138 C135 1.390 . S
C138 H137 0.950 . S
C138 C139 1.378 . S
C139 C138 1.378 . S
C139 C140 1.409 . S
C140 C136 1.387 . S
C140 C139 1.409 . S
C140 H142 0.951 . S
C141 C136 1.491 . S
C141 C143 1.382 . S
C141 C145 1.404 . S
H142 C140 0.951 . S
C143 C141 1.382 . S
C143 C144 1.390 . S
C143 H148 0.949 . S
C144 C143 1.390 . S
C144 C149 1.399 . S
C145 C141 1.404 . S
C145 H146 0.950 . S
C145 C147 1.375 . S
H146 C145 0.950 . S
C147 C145 1.375 . S
C147 C149 1.382 . S
C147 H151 0.950 . S
H148 C143 0.949 . S
C149 C144 1.399 . S
C149 C147 1.382 . S
C149 H150 0.952 . S
H150 C149 0.952 . S
H151 C147 0.950 . S
C152 C153 1.443 . S
C152 N156 1.376 . S
C152 C190 1.389 . S
C153 C152 1.443 . S
C153 C154 1.340 . S
C153 H193 0.951 . S
C154 C153 1.340 . S
C154 C155 1.439 . S
C154 H194 0.950 . S
C155 C154 1.439 . S
C155 N156 1.374 . S
C155 C189 1.395 . S
N156 C152 1.376 . S
N156 C155 1.374 . S
N156 Co157 2.008 . S
Co157 N156 2.008 . S
Co157 N158 1.995 . S
Co157 N163 2.008 1_455 S
Co157 N168 1.995 1_455 S
Co157 N173 2.282 . S
Co157 N179 2.282 1_455 S
N158 Co157 1.995 . S
N158 C159 1.376 . S
N158 C162 1.383 1_455 S
C159 N158 1.376 . S
C159 C160 1.446 . S
C159 C189 1.391 . S
C160 C159 1.446 . S
C160 C161 1.339 . S
C160 H195 0.949 . S
C161 C160 1.339 . S
C161 C162 1.439 1_455 S
C161 H196 0.950 1_455 S
C162 N158 1.383 1_655 S
C162 C161 1.439 1_655 S
C162 C191 1.392 . S
N163 Co157 2.008 1_655 S
N163 C164 1.376 . S
N163 C167 1.374 . S
C164 N163 1.376 . S
C164 C165 1.443 . S
C164 C191 1.389 . S
C165 C164 1.443 . S
C165 C166 1.340 . S
C165 H197 0.951 . S
C166 C165 1.340 . S
C166 C167 1.439 . S
C166 H198 0.950 . S
C167 N163 1.374 . S
C167 C166 1.439 . S
C167 C192 1.395 . S
N168 Co157 1.995 1_655 S
N168 C169 1.376 . S
N168 C172 1.383 1_655 S
C169 N168 1.376 . S
C169 C170 1.446 . S
C169 C192 1.391 . S
C170 C169 1.446 . S
C170 C171 1.339 . S
C170 H199 0.949 . S
C171 C170 1.339 . S
C171 C172 1.439 1_655 S
C171 H200 0.950 1_655 S
C172 N168 1.383 1_455 S
C172 C171 1.439 1_455 S
C172 C190 1.392 . S
N173 Co157 2.282 . S
N173 C176 1.332 . S
N173 C178 1.332 . S
C174 C175 1.386 . S
C174 C177 1.388 . S
C175 C174 1.386 . S
C175 C176 1.382 . S
C175 H201 0.950 1_455 S
C176 N173 1.332 . S
C176 C175 1.382 . S
C176 H187 0.952 1_455 S
C177 C174 1.388 . S
C177 C178 1.382 . S
C177 H202 0.950 . S
C178 N173 1.332 . S
C178 C177 1.382 . S
C178 H188 0.948 . S
N179 Co157 2.282 1_655 S
N179 C183 1.332 1_655 S
N179 C184 1.332 . S
C180 C181 1.388 . S
C180 C184 1.382 . S
C180 H203 0.950 . S
C181 C180 1.388 . S
C181 C182 1.386 . S
C182 C181 1.386 . S
C182 C183 1.382 1_655 S
C182 H204 0.950 1_655 S
C183 N179 1.332 1_455 S
C183 C182 1.382 1_455 S
C183 H185 0.952 . S
C184 N179 1.332 . S
C184 C180 1.382 . S
C184 H186 0.948 . S
H185 C183 0.952 . S
H186 C184 0.948 . S
H187 C176 0.952 1_655 S
H188 C178 0.948 . S
C189 C155 1.395 . S
C189 C159 1.391 . S
C190 C152 1.389 . S
C190 C172 1.392 . S
C191 C162 1.392 . S
C191 C164 1.389 . S
C192 C167 1.395 . S
C192 C169 1.391 . S
H193 C153 0.951 . S
H194 C154 0.950 . S
H195 C160 0.949 . S
H196 C161 0.950 1_655 S
H197 C165 0.951 . S
H198 C166 0.950 . S
H199 C170 0.949 . S
H200 C171 0.950 1_455 S
H201 C175 0.950 1_655 S
H202 C177 0.950 . S
H203 C180 0.950 . S
H204 C182 0.950 1_455 S
C205 C206 1.443 . S
C205 N209 1.376 . S
C205 C243 1.389 . S
C206 C205 1.443 . S
C206 C207 1.340 . S
C206 H246 0.951 . S
C207 C206 1.340 . S
C207 C208 1.439 . S
C207 H247 0.950 . S
C208 C207 1.439 . S
C208 N209 1.374 . S
C208 C242 1.395 . S
N209 C205 1.376 . S
N209 C208 1.374 . S
N209 Co210 2.008 . S
Co210 N209 2.008 . S
Co210 N211 1.995 . S
Co210 N216 2.008 1_455 S
Co210 N221 1.995 . S
Co210 N226 2.282 . S
Co210 N232 2.290 . S
N211 Co210 1.995 . S
N211 C212 1.376 . S
N211 C215 1.383 . S
C212 N211 1.376 . S
C212 C213 1.446 . S
C212 C242 1.391 . S
C213 C212 1.446 . S
C213 C214 1.339 . S
C213 H248 0.949 . S
C214 C213 1.339 . S
C214 C215 1.439 . S
C214 H249 0.950 . S
C215 N211 1.383 . S
C215 C214 1.439 . S
C215 C244 1.392 1_455 S
N216 Co210 2.008 1_655 S
N216 C217 1.376 . S
N216 C220 1.374 . S
C217 N216 1.376 . S
C217 C218 1.443 . S
C217 C244 1.389 . S
C218 C217 1.443 . S
C218 C219 1.340 . S
C218 H250 0.951 . S
C219 C218 1.340 . S
C219 C220 1.439 . S
C219 H251 0.950 . S
C220 N216 1.374 . S
C220 C219 1.439 . S
C220 C245 1.395 . S
N221 Co210 1.995 . S
N221 C222 1.376 1_455 S
N221 C225 1.383 . S
C222 N221 1.376 1_655 S
C222 C223 1.446 . S
C222 C245 1.391 . S
C223 C222 1.446 . S
C223 C224 1.339 1_655 S
C223 H252 0.949 . S
C224 C223 1.339 1_455 S
C224 C225 1.439 . S
C224 H253 0.950 . S
C225 N221 1.383 . S
C225 C224 1.439 . S
C225 C243 1.392 . S
N226 Co210 2.282 . S
N226 C229 1.332 . S
N226 C231 1.332 . S
C227 C228 1.386 . S
C227 C230 1.388 . S
C228 C227 1.386 . S
C228 C229 1.382 . S
C228 H254 0.950 . S
C229 N226 1.332 . S
C229 C228 1.382 . S
C229 H240 0.952 . S
C230 C227 1.388 . S
C230 C231 1.382 . S
C230 H255 0.950 . S
C231 N226 1.332 . S
C231 C230 1.382 . S
C231 H241 0.948 . S
N232 Co210 2.290 . S
N232 C236 1.333 . S
N232 C237 1.326 1_455 S
C233 C234 1.388 . S
C233 C237 1.382 . S
C233 H256 0.950 . S
C234 C233 1.388 . S
C234 C235 1.386 1_655 S
C235 C234 1.386 1_455 S
C235 C236 1.382 . S
C235 H257 0.950 . S
C236 N232 1.333 . S
C236 C235 1.382 . S
C236 H238 0.952 . S
C237 N232 1.326 1_655 S
C237 C233 1.382 . S
C237 H239 0.948 . S
H238 C236 0.952 . S
H239 C237 0.948 . S
H240 C229 0.952 . S
H241 C231 0.948 . S
C242 C208 1.395 . S
C242 C212 1.391 . S
C243 C205 1.389 . S
C243 C225 1.392 . S
C244 C215 1.392 1_655 S
C244 C217 1.389 . S
C245 C220 1.395 . S
C245 C222 1.391 . S
H246 C206 0.951 . S
H247 C207 0.950 . S
H248 C213 0.949 . S
H249 C214 0.950 . S
H250 C218 0.951 . S
H251 C219 0.950 . S
H252 C223 0.949 . S
H253 C224 0.950 . S
H254 C228 0.950 . S
H255 C230 0.950 . S
H256 C233 0.950 . S
H257 C235 0.950 . S
C258 C259 1.443 . S
C258 N262 1.376 1_565 S
C258 C296 1.389 . S
C259 C258 1.443 . S
C259 C260 1.340 1_565 S
C259 H299 0.951 . S
C260 C259 1.340 1_545 S
C260 C261 1.439 . S
C260 H300 0.950 . S
C261 C260 1.439 . S
C261 N262 1.374 . S
C261 C295 1.395 . S
N262 C258 1.376 1_545 S
N262 C261 1.374 . S
N262 Co263 2.008 . S
Co263 N262 2.008 . S
Co263 N264 1.995 . S
Co263 N269 2.008 . S
Co263 N274 1.995 1_545 S
Co263 N279 2.282 . S
Co263 N285 2.282 1_545 S
N264 Co263 1.995 . S
N264 C265 1.376 . S
N264 C268 1.383 . S
C265 N264 1.376 . S
C265 C266 1.446 . S
C265 C295 1.391 . S
C266 C265 1.446 . S
C266 C267 1.339 . S
C266 H301 0.949 . S
C267 C266 1.339 . S
C267 C268 1.439 . S
C267 H302 0.950 . S
C268 N264 1.383 . S
C268 C267 1.439 . S
C268 C297 1.392 . S
N269 Co263 2.008 . S
N269 C270 1.376 . S
N269 C273 1.374 . S
C270 N269 1.376 . S
C270 C271 1.443 . S
C270 C297 1.389 . S
C271 C270 1.443 . S
C271 C272 1.340 . S
C271 H303 0.951 . S
C272 C271 1.340 . S
C272 C273 1.439 . S
C272 H304 0.950 . S
C273 N269 1.374 . S
C273 C272 1.439 . S
C273 C298 1.395 1_545 S
N274 Co263 1.995 1_565 S
N274 C275 1.376 . S
N274 C278 1.383 . S
C275 N274 1.376 . S
C275 C276 1.446 . S
C275 C298 1.391 . S
C276 C275 1.446 . S
C276 C277 1.339 . S
C276 H305 0.949 . S
C277 C276 1.339 . S
C277 C278 1.439 . S
C277 H306 0.950 . S
C278 N274 1.383 . S
C278 C277 1.439 . S
C278 C296 1.392 . S
N279 Co263 2.282 . S
N279 C282 1.332 . S
N279 C284 1.332 . S
C280 C281 1.386 . S
C280 C283 1.388 . S
C281 C280 1.386 . S
C281 C282 1.382 . S
C281 H307 0.950 . S
C282 N279 1.332 . S
C282 C281 1.382 . S
C282 H293 0.952 . S
C283 C280 1.388 . S
C283 C284 1.382 . S
C283 H308 0.950 . S
C284 N279 1.332 . S
C284 C283 1.382 . S
C284 H294 0.948 . S
N285 Co263 2.282 1_565 S
N285 C289 1.332 . S
N285 C290 1.332 . S
C286 C287 1.388 . S
C286 C290 1.382 . S
C286 H309 0.950 . S
C287 C286 1.388 . S
C287 C288 1.386 . S
C288 C287 1.386 . S
C288 C289 1.382 . S
C288 H310 0.950 . S
C289 N285 1.332 . S
C289 C288 1.382 . S
C289 H291 0.952 1_565 S
C290 N285 1.332 . S
C290 C286 1.382 . S
C290 H292 0.948 . S
H291 C289 0.952 1_545 S
H292 C290 0.948 . S
H293 C282 0.952 . S
H294 C284 0.948 . S
C295 C261 1.395 . S
C295 C265 1.391 . S
C296 C258 1.389 . S
C296 C278 1.392 . S
C297 C268 1.392 . S
C297 C270 1.389 . S
C298 C273 1.395 1_565 S
C298 C275 1.391 . S
H299 C259 0.951 . S
H300 C260 0.950 . S
H301 C266 0.949 . S
H302 C267 0.950 . S
H303 C271 0.951 . S
H304 C272 0.950 . S
H305 C276 0.949 . S
H306 C277 0.950 . S
H307 C281 0.950 . S
H308 C283 0.950 . S
H309 C286 0.950 . S
H310 C288 0.950 . S
C311 C312 1.443 . S
C311 N315 1.376 . S
C311 C349 1.389 . S
C312 C311 1.443 . S
C312 C313 1.340 . S
C312 H352 0.951 . S
C313 C312 1.340 . S
C313 C314 1.439 . S
C313 H353 0.950 . S
C314 C313 1.439 . S
C314 N315 1.374 . S
C314 C348 1.395 . S
N315 C311 1.376 . S
N315 C314 1.374 . S
N315 Co316 2.008 . S
Co316 N315 2.008 . S
Co316 N317 1.995 . S
Co316 N322 1.999 1_554 S
Co316 N327 1.995 . S
Co316 N332 2.282 1_554 S
Co316 N338 2.282 . S
N317 Co316 1.995 . S
N317 C318 1.376 . S
N317 C321 1.383 1_554 S
C318 N317 1.376 . S
C318 C319 1.446 1_554 S
C318 C348 1.391 . S
C319 C318 1.446 1_556 S
C319 C320 1.339 . S
C319 H354 0.949 . S
C320 C319 1.339 . S
C320 C321 1.439 . S
C320 H355 0.950 . S
C321 N317 1.383 1_556 S
C321 C320 1.439 . S
C321 C350 1.392 . S
N322 Co316 1.999 1_556 S
N322 C323 1.391 . S
N322 C326 1.373 . S
C323 N322 1.391 . S
C323 C324 1.443 . S
C323 C350 1.389 . S
C324 C323 1.443 . S
C324 C325 1.340 . S
C324 H356 0.951 . S
C325 C324 1.340 . S
C325 C326 1.439 . S
C325 H357 0.950 . S
C326 N322 1.373 . S
C326 C325 1.439 . S
C326 C351 1.395 1_556 S
N327 Co316 1.995 . S
N327 C328 1.376 . S
N327 C331 1.383 . S
C328 N327 1.376 . S
C328 C329 1.446 . S
C328 C351 1.391 . S
C329 C328 1.446 . S
C329 C330 1.339 . S
C329 H358 0.949 . S
C330 C329 1.339 . S
C330 C331 1.439 . S
C330 H359 0.950 . S
C331 N327 1.383 . S
C331 C330 1.439 . S
C331 C349 1.392 . S
N332 Co316 2.282 1_556 S
N332 C335 1.332 . S
N332 C337 1.332 . S
C333 C334 1.386 . S
C333 C336 1.388 . S
C334 C333 1.386 . S
C334 C335 1.382 . S
C334 H360 0.950 . S
C335 N332 1.332 . S
C335 C334 1.382 . S
C335 H346 0.952 . S
C336 C333 1.388 . S
C336 C337 1.382 . S
C336 H361 0.950 . S
C337 N332 1.332 . S
C337 C336 1.382 . S
C337 H347 0.948 . S
N338 Co316 2.282 . S
N338 C342 1.332 . S
N338 C343 1.332 . S
C339 C340 1.388 . S
C339 C343 1.382 . S
C339 H362 0.950 . S
C340 C339 1.388 . S
C340 C341 1.386 . S
C341 C340 1.386 . S
C341 C342 1.382 . S
C341 H363 0.950 . S
C342 N338 1.332 . S
C342 C341 1.382 . S
C342 H344 0.952 . S
C343 N338 1.332 . S
C343 C339 1.382 . S
C343 H345 0.948 . S
H344 C342 0.952 . S
H345 C343 0.948 . S
H346 C335 0.952 . S
H347 C337 0.948 . S
C348 C314 1.395 . S
C348 C318 1.391 . S
C349 C311 1.389 . S
C349 C331 1.392 . S
C350 C321 1.392 . S
C350 C323 1.389 . S
C351 C326 1.395 1_554 S
C351 C328 1.391 . S
H352 C312 0.951 . S
H353 C313 0.950 . S
H354 C319 0.949 . S
H355 C320 0.950 . S
H356 C324 0.951 . S
H357 C325 0.950 . S
H358 C329 0.949 . S
H359 C330 0.950 . S
H360 C334 0.950 . S
H361 C336 0.950 . S
H362 C339 0.950 . S
H363 C341 0.950 . S
C364 C365 1.443 . S
C364 N368 1.376 . S
C364 C402 1.389 . S
C365 C364 1.443 . S
C365 C366 1.340 . S
C365 H405 0.951 . S
C366 C365 1.340 . S
C366 C367 1.439 . S
C366 H406 0.950 . S
C367 C366 1.439 . S
C367 N368 1.374 . S
C367 C401 1.395 . S
N368 C364 1.376 . S
N368 C367 1.374 . S
N368 Co369 2.006 1_455 S
Co369 N368 2.006 1_655 S
Co369 N370 1.993 1_655 S
Co369 N375 2.010 . S
Co369 N380 1.996 . S
Co369 N385 2.284 . S
Co369 N391 2.272 1_655 S
N370 Co369 1.993 1_455 S
N370 C371 1.376 . S
N370 C374 1.383 . S
C371 N370 1.376 . S
C371 C372 1.446 . S
C371 C401 1.391 . S
C372 C371 1.446 . S
C372 C373 1.339 . S
C372 H407 0.949 . S
C373 C372 1.339 . S
C373 C374 1.439 . S
C373 H408 0.950 . S
C374 N370 1.383 . S
C374 C373 1.439 . S
C374 C403 1.392 1_455 S
N375 Co369 2.010 . S
N375 C376 1.376 . S
N375 C379 1.374 . S
C376 N375 1.376 . S
C376 C377 1.443 . S
C376 C403 1.389 . S
C377 C376 1.443 . S
C377 C378 1.340 . S
C377 H409 0.951 . S
C378 C377 1.340 . S
C378 C379 1.439 . S
C378 H410 0.950 . S
C379 N375 1.374 . S
C379 C378 1.439 . S
C379 C404 1.395 . S
N380 Co369 1.996 . S
N380 C381 1.376 . S
N380 C384 1.383 . S
C381 N380 1.376 . S
C381 C382 1.446 . S
C381 C404 1.391 . S
C382 C381 1.446 . S
C382 C383 1.339 . S
C382 H411 0.949 . S
C383 C382 1.339 . S
C383 C384 1.439 . S
C383 H412 0.950 . S
C384 N380 1.383 . S
C384 C383 1.439 . S
C384 C402 1.392 1_655 S
N385 Co369 2.284 . S
N385 C388 1.332 . S
N385 C390 1.332 1_655 S
C386 C387 1.386 . S
C386 C389 1.388 1_655 S
C387 C386 1.386 . S
C387 C388 1.382 . S
C387 H413 0.950 . S
C388 N385 1.332 . S
C388 C387 1.382 . S
C388 H399 0.952 . S
C389 C386 1.388 1_455 S
C389 C390 1.382 . S
C389 H414 0.950 . S
C390 N385 1.332 1_455 S
C390 C389 1.382 . S
C390 H400 0.948 . S
N391 Co369 2.272 1_455 S
N391 C395 1.353 . S
N391 C396 1.323 1_455 S
C392 C393 1.388 1_655 S
C392 C396 1.382 . S
C392 H415 0.950 . S
C393 C392 1.388 1_455 S
C393 C394 1.386 . S
C394 C393 1.386 . S
C394 C395 1.382 . S
C394 H416 0.950 . S
C395 N391 1.353 . S
C395 C394 1.382 . S
C395 H397 0.952 . S
C396 N391 1.323 1_655 S
C396 C392 1.382 . S
C396 H398 0.948 . S
H397 C395 0.952 . S
H398 C396 0.948 . S
H399 C388 0.952 . S
H400 C390 0.948 . S
C401 C367 1.395 . S
C401 C371 1.391 . S
C402 C364 1.389 . S
C402 C384 1.392 1_455 S
C403 C374 1.392 1_655 S
C403 C376 1.389 . S
C404 C379 1.395 . S
C404 C381 1.391 . S
H405 C365 0.951 . S
H406 C366 0.950 . S
H407 C372 0.949 . S
H408 C373 0.950 . S
H409 C377 0.951 . S
H410 C378 0.950 . S
H411 C382 0.949 . S
H412 C383 0.950 . S
H413 C387 0.950 . S
H414 C389 0.950 . S
H415 C392 0.950 . S
H416 C394 0.950 . S
C417 C418 1.443 . S
C417 N421 1.376 . S
C417 C455 1.389 . S
C418 C417 1.443 . S
C418 C419 1.340 . S
C418 H458 0.951 . S
C419 C418 1.340 . S
C419 C420 1.439 . S
C419 H459 0.950 . S
C420 C419 1.439 . S
C420 N421 1.374 . S
C420 C454 1.395 . S
N421 C417 1.376 . S
N421 C420 1.374 . S
N421 Co422 2.008 . S
Co422 N421 2.008 . S
Co422 N423 1.995 . S
Co422 N428 2.008 . S
Co422 N433 1.995 . S
Co422 N438 2.282 . S
Co422 N444 2.282 . S
N423 Co422 1.995 . S
N423 C424 1.376 . S
N423 C427 1.383 . S
C424 N423 1.376 . S
C424 C425 1.446 . S
C424 C454 1.391 . S
C425 C424 1.446 . S
C425 C426 1.339 . S
C425 H460 0.949 . S
C426 C425 1.339 . S
C426 C427 1.439 . S
C426 H461 0.950 . S
C427 N423 1.383 . S
C427 C426 1.439 . S
C427 C456 1.392 . S
N428 Co422 2.008 . S
N428 C429 1.376 . S
N428 C432 1.374 . S
C429 N428 1.376 . S
C429 C430 1.443 . S
C429 C456 1.389 . S
C430 C429 1.443 . S
C430 C431 1.340 . S
C430 H462 0.951 . S
C431 C430 1.340 . S
C431 C432 1.439 . S
C431 H463 0.950 . S
C432 N428 1.374 . S
C432 C431 1.439 . S
C432 C457 1.395 . S
N433 Co422 1.995 . S
N433 C434 1.376 . S
N433 C437 1.383 . S
C434 N433 1.376 . S
C434 C435 1.446 . S
C434 C457 1.391 . S
C435 C434 1.446 . S
C435 C436 1.339 . S
C435 H464 0.949 . S
C436 C435 1.339 . S
C436 C437 1.439 . S
C436 H465 0.950 . S
C437 N433 1.383 . S
C437 C436 1.439 . S
C437 C455 1.392 . S
N438 Co422 2.282 . S
N438 C441 1.332 . S
N438 C443 1.332 . S
C439 C440 1.386 . S
C439 C442 1.388 . S
C440 C439 1.386 . S
C440 C441 1.382 1_556 S
C440 H466 0.950 . S
C441 N438 1.332 . S
C441 C440 1.382 1_554 S
C441 H452 0.952 . S
C442 C439 1.388 . S
C442 C443 1.382 1_556 S
C442 H467 0.950 . S
C443 N438 1.332 . S
C443 C442 1.382 1_554 S
C443 H453 0.948 . S
N444 Co422 2.282 . S
N444 C448 1.332 . S
N444 C449 1.332 . S
C445 C446 1.388 . S
C445 C449 1.382 . S
C445 H468 0.950 . S
C446 C445 1.388 . S
C446 C447 1.386 . S
C447 C446 1.386 . S
C447 C448 1.382 . S
C447 H469 0.950 . S
C448 N444 1.332 . S
C448 C447 1.382 . S
C448 H450 0.952 . S
C449 N444 1.332 . S
C449 C445 1.382 . S
C449 H451 0.948 . S
H450 C448 0.952 . S
H451 C449 0.948 . S
H452 C441 0.952 . S
H453 C443 0.948 . S
C454 C420 1.395 . S
C454 C424 1.391 . S
C455 C417 1.389 . S
C455 C437 1.392 . S
C456 C427 1.392 . S
C456 C429 1.389 . S
C457 C432 1.395 . S
C457 C434 1.391 . S
H458 C418 0.951 . S
H459 C419 0.950 . S
H460 C425 0.949 . S
H461 C426 0.950 . S
H462 C430 0.951 . S
H463 C431 0.950 . S
H464 C435 0.949 . S
H465 C436 0.950 . S
H466 C440 0.950 . S
H467 C442 0.950 . S
H468 C445 0.950 . S
H469 C447 0.950 . S
C470 C471 1.170 . S
C470 C472 1.380 . S
C471 C470 1.170 . S
C472 C470 1.380 . S
C472 C473 1.170 . S
C473 C472 1.170 . S
C474 C475 1.170 . S
C474 C476 1.380 . S
C475 C474 1.170 . S
C476 C474 1.380 . S
C476 C477 1.170 . S
C477 C476 1.170 . S
C478 C479 1.170 . S
C478 C480 1.380 . S
C479 C478 1.170 . S
C480 C478 1.380 . S
C480 C481 1.170 . S
C481 C480 1.170 . S
C482 C483 1.170 . S
C482 C484 1.380 . S
C483 C482 1.170 . S
C484 C482 1.380 . S
C484 C485 1.170 . S
C485 C484 1.170 . S
C486 C487 1.170 . S
C486 C488 1.380 . S
C487 C486 1.170 . S
C488 C486 1.380 . S
C488 C489 1.170 . S
C489 C488 1.170 . S
C490 C491 1.170 . S
C490 C492 1.380 . S
C491 C490 1.170 . S
C492 C490 1.380 . S
C492 C493 1.170 . S
C493 C492 1.170 . S
C494 C495 1.170 . S
C494 C496 1.380 1_565 S
C495 C494 1.170 . S
C496 C494 1.380 1_545 S
C496 C497 1.170 1_655 S
C497 C496 1.170 1_455 S
C498 C499 1.170 . S
C498 C500 1.380 . S
C499 C498 1.170 . S
C500 C498 1.380 . S
C500 C501 1.170 . S
C501 C500 1.170 . S
C502 C503 1.170 . S
C502 C504 1.380 . S
C503 C502 1.170 . S
C504 C502 1.380 . S
C504 C505 1.170 . S
C505 C504 1.170 . S
C506 C507 1.170 . S
C506 C508 1.380 . S
C507 C506 1.170 . S
C508 C506 1.380 . S
C508 C509 1.170 . S
C509 C508 1.170 . S
C510 C511 1.170 . S
C510 C512 1.380 . S
C511 C510 1.170 . S
C512 C510 1.380 . S
C512 C513 1.170 . S
C513 C512 1.170 . S
C514 C515 1.170 . S
C514 C516 1.380 . S
C515 C514 1.170 . S
C516 C514 1.380 . S
C516 C517 1.170 . S
C517 C516 1.170 . S
C518 C519 1.170 . S
C518 C520 1.380 . S
C519 C518 1.170 . S
C520 C518 1.380 . S
C520 C521 1.170 . S
C521 C520 1.170 . S
C522 C523 1.170 . S
C522 C524 1.380 . S
C523 C522 1.170 . S
C524 C522 1.380 . S
C524 C525 1.170 . S
C525 C524 1.170 . S
C526 C527 1.170 . S
C526 C528 1.380 . S
C527 C526 1.170 . S
C528 C526 1.380 . S
C528 C529 1.170 . S
C529 C528 1.170 . S
C530 C531 1.170 . S
C530 C532 1.380 . S
C531 C530 1.170 . S
C532 C530 1.380 . S
C532 C533 1.170 . S
C533 C532 1.170 . S
C534 C535 1.170 1_545 S
C534 C536 1.380 . S
C535 C534 1.170 1_565 S
C536 C534 1.380 . S
C536 C537 1.170 . S
C537 C536 1.170 . S
C538 C539 1.170 . S
C538 C540 1.380 . S
C539 C538 1.170 . S
C540 C538 1.380 . S
C540 C541 1.170 . S
C541 C540 1.170 . S
C542 C543 1.170 . S
C542 C544 1.380 . S
C543 C542 1.170 . S
C544 C542 1.380 . S
C544 C545 1.170 . S
C545 C544 1.170 . S
C546 C547 1.170 . S
C546 C548 1.380 . S
C547 C546 1.170 . S
C548 C546 1.380 . S
C548 C549 1.170 . S
C549 C548 1.170 . S
C550 C551 1.170 . S
C550 C552 1.380 . S
C551 C550 1.170 . S
C552 C550 1.380 . S
C552 C553 1.170 . S
C553 C552 1.170 . S
C554 C555 1.170 . S
C554 C556 1.380 . S
C555 C554 1.170 . S
C556 C554 1.380 . S
C556 C557 1.170 . S
C557 C556 1.170 . S
C558 C559 1.170 . S
C558 C560 1.380 . S
C559 C558 1.170 . S
C560 C558 1.380 . S
C560 C561 1.170 . S
C561 C560 1.170 . S
C562 C563 1.170 . S
C562 C564 1.380 . S
C563 C562 1.170 . S
C564 C562 1.380 . S
C564 C565 1.170 . S
C565 C564 1.170 . S
C473 C174 1.532 . S
C471 C11 1.380 . S
C477 C243 1.676 . S
C475 C25 1.633 . S
C481 C181 1.287 . S
C479 C40 1.232 . S
C485 C244 1.461 . S
C483 C59 1.422 . S
C489 C297 1.826 . S
C487 C6 1.795 . S
C493 C333 1.761 . S
C491 C21 1.674 . S
C495 C49 1.582 . S
C497 C393 1.605 . S
C501 C456 1.522 . S
C499 C68 1.437 1_554 S
C505 C296 1.769 . S
C503 C30 1.553 . S
C507 C44 1.630 . S
C509 C340 1.668 . S
C513 C386 1.716 . S
C511 C63 1.739 . S
C517 C455 1.683 . S
C515 C2 1.672 . S
C519 C78 1.660 . S
C521 C234 1.716 . S
C525 C191 1.574 . S
C523 C97 1.474 . S
C527 C120 1.625 . S
C529 C227 1.629 . S
C531 C139 1.666 . S
C533 C190 1.673 . S
C537 C402 1.591 . S
C535 C87 1.432 . S
C541 C446 1.631 . S
C539 C101 1.588 . S
C545 C280 1.613 . S
C543 C125 1.488 . S
C547 C144 1.651 . S
C549 C349 1.780 . S
C553 C403 1.804 . S
C551 C106 1.573 . S
C557 C439 1.619 . S
C555 C116 1.604 . S
C561 C287 1.645 . S
C559 C135 1.629 . S
C563 C82 1.756 . S
C565 C350 1.735 . S
