# Generated by pormake.
# Topology apo, (3,6)-cn, num edge types: 1
# Building blocks:
#     Node 0, Type 0, BuildingBlock: KAKCAD_clean_linker_0, # of connection points: 3
#     Node 1, Type 0, BuildingBlock: KAKCAD_clean_linker_0, # of connection points: 3
#     Node 2, Type 0, BuildingBlock: KAKCAD_clean_linker_0, # of connection points: 3
#     Node 3, Type 0, BuildingBlock: KAKCAD_clean_linker_0, # of connection points: 3
#     Node 4, Type 0, BuildingBlock: KAKCAD_clean_linker_0, # of connection points: 3
#     Node 5, Type 0, BuildingBlock: KAKCAD_clean_linker_0, # of connection points: 3
#     Node 6, Type 0, BuildingBlock: KAKCAD_clean_linker_0, # of connection points: 3
#     Node 7, Type 0, BuildingBlock: KAKCAD_clean_linker_0, # of connection points: 3
#     Node 8, Type 1, BuildingBlock: MIDCAF_clean_sbu_0, # of connection points: 6
#     Node 9, Type 1, BuildingBlock: MIDCAF_clean_sbu_0, # of connection points: 6
#     Node 10, Type 1, BuildingBlock: MIDCAF_clean_sbu_0, # of connection points: 6
#     Node 11, Type 1, BuildingBlock: MIDCAF_clean_sbu_0, # of connection points: 6
#     Edge 12, Type (0, 1), BuildingBlock: AJUNOK_clean_linker_0, # of connection points: 2
#     Edge 13, Type (0, 1), BuildingBlock: AJUNOK_clean_linker_0, # of connection points: 2
#     Edge 14, Type (0, 1), BuildingBlock: AJUNOK_clean_linker_0, # of connection points: 2
#     Edge 15, Type (0, 1), BuildingBlock: AJUNOK_clean_linker_0, # of connection points: 2
#     Edge 16, Type (0, 1), BuildingBlock: AJUNOK_clean_linker_0, # of connection points: 2
#     Edge 17, Type (0, 1), BuildingBlock: AJUNOK_clean_linker_0, # of connection points: 2
#     Edge 18, Type (0, 1), BuildingBlock: AJUNOK_clean_linker_0, # of connection points: 2
#     Edge 19, Type (0, 1), BuildingBlock: AJUNOK_clean_linker_0, # of connection points: 2
#     Edge 20, Type (0, 1), BuildingBlock: AJUNOK_clean_linker_0, # of connection points: 2
#     Edge 21, Type (0, 1), BuildingBlock: AJUNOK_clean_linker_0, # of connection points: 2
#     Edge 22, Type (0, 1), BuildingBlock: AJUNOK_clean_linker_0, # of connection points: 2
#     Edge 23, Type (0, 1), BuildingBlock: AJUNOK_clean_linker_0, # of connection points: 2
#     Edge 24, Type (0, 1), BuildingBlock: AJUNOK_clean_linker_0, # of connection points: 2
#     Edge 25, Type (0, 1), BuildingBlock: AJUNOK_clean_linker_0, # of connection points: 2
#     Edge 26, Type (0, 1), BuildingBlock: AJUNOK_clean_linker_0, # of connection points: 2
#     Edge 27, Type (0, 1), BuildingBlock: AJUNOK_clean_linker_0, # of connection points: 2
#     Edge 28, Type (0, 1), BuildingBlock: AJUNOK_clean_linker_0, # of connection points: 2
#     Edge 29, Type (0, 1), BuildingBlock: AJUNOK_clean_linker_0, # of connection points: 2
#     Edge 30, Type (0, 1), BuildingBlock: AJUNOK_clean_linker_0, # of connection points: 2
#     Edge 31, Type (0, 1), BuildingBlock: AJUNOK_clean_linker_0, # of connection points: 2
#     Edge 32, Type (0, 1), BuildingBlock: AJUNOK_clean_linker_0, # of connection points: 2
#     Edge 33, Type (0, 1), BuildingBlock: AJUNOK_clean_linker_0, # of connection points: 2
#     Edge 34, Type (0, 1), BuildingBlock: AJUNOK_clean_linker_0, # of connection points: 2
#     Edge 35, Type (0, 1), BuildingBlock: AJUNOK_clean_linker_0, # of connection points: 2
# Relax obj value: 0.085
# Max RMSD: 0.099
# Mean RMSD: 0.090
data_MOF--net-apo--node1-MIDCAF_clean_sbu_0--node2-KAKCAD_clean_linker_0--edge1-AJUNOK_clean_linker_0
_symmetry_space_group_name_H-M    P1
_symmetry_Int_Tables_number       1
_symmetry_cell_setting            triclinic
loop_
_symmetry_equiv_pos_as_xyz
'x, y, z'
_cell_length_a     33.536602
_cell_length_b     39.931043
_cell_length_c     35.3959
_cell_angle_alpha  90.069558
_cell_angle_beta   89.933652
_cell_angle_gamma 90.212508
loop_
_atom_site_label
_atom_site_type_symbol
_atom_site_fract_x
_atom_site_fract_y
_atom_site_fract_z
_atom_type_partial_charge
C0 C 0.3712 0.44164 0.3416 0.0
C1 C 0.41268 0.44173 0.33557 0.0
C2 C 0.35221 0.41379 0.35717 0.0
C3 C 0.37436 0.38576 0.36811 0.0
C4 C 0.41583 0.38575 0.36281 0.0
C5 C 0.43482 0.41342 0.34636 0.0
C6 C 0.35375 0.357 0.38562 0.0
C7 C 0.32269 0.34098 0.36628 0.0
C8 C 0.30051 0.31536 0.38356 0.0
C9 C 0.30933 0.30622 0.42101 0.0
C10 C 0.34041 0.3222 0.44073 0.0
C11 C 0.36292 0.34723 0.42258 0.0
C12 C 0.3483 0.3144 0.48092 0.0
C13 C 0.31736 0.31537 0.50776 0.0
C14 C 0.38749 0.30881 0.49314 0.0
C15 C 0.39588 0.30562 0.53154 0.0
C16 C 0.36534 0.30832 0.55858 0.0
C17 C 0.26769 0.29883 0.3625 0.0
C18 C 0.24057 0.31805 0.34149 0.0
C19 C 0.26351 0.26382 0.36281 0.0
C20 C 0.23268 0.24837 0.34267 0.0
C21 C 0.20534 0.26765 0.32201 0.0
C22 C 0.2096 0.30262 0.32159 0.0
C23 C 0.32586 0.31257 0.54637 0.0
H24 H 0.35337 0.46349 0.33539 0.0
H25 H 0.32026 0.41448 0.36166 0.0
H26 H 0.43341 0.3643 0.37119 0.0
H27 H 0.46683 0.41279 0.34233 0.0
H28 H 0.31597 0.34845 0.33754 0.0
H29 H 0.38628 0.36032 0.43785 0.0
H30 H 0.29176 0.28703 0.43497 0.0
H31 H 0.28691 0.31991 0.49903 0.0
H32 H 0.41181 0.30784 0.47299 0.0
H33 H 0.42665 0.30273 0.54022 0.0
H34 H 0.24281 0.34512 0.34106 0.0
H35 H 0.28413 0.24839 0.37858 0.0
H36 H 0.30184 0.31474 0.5667 0.0
H37 H 0.1886 0.31803 0.30627 0.0
H38 H 0.22946 0.2214 0.34422 0.0
C39 C 0.11889 0.06157 0.82317 0.0
C40 C 0.07789 0.05782 0.83049 0.0
C41 C 0.14 0.08907 0.83744 0.0
C42 C 0.12069 0.11329 0.85964 0.0
C43 C 0.07938 0.11022 0.86576 0.0
C44 C 0.05823 0.08279 0.85134 0.0
C45 C 0.14411 0.14018 0.87861 0.0
C46 C 0.1747 0.1573 0.85935 0.0
C47 C 0.19826 0.18144 0.87798 0.0
C48 C 0.19117 0.18802 0.91649 0.0
C49 C 0.16053 0.1714 0.93596 0.0
C50 C 0.13707 0.14767 0.91683 0.0
C51 C 0.15283 0.17856 0.97639 0.0
C52 C 0.18377 0.17748 1.00316 0.0
C53 C 0.11386 0.18528 0.98859 0.0
C54 C 0.10578 0.19028 0.02681 0.0
C55 C 0.13645 0.18852 0.05377 0.0
C56 C 0.23068 0.1995 0.85759 0.0
C57 C 0.25622 0.18235 0.83263 0.0
C58 C 0.23733 0.23383 0.86411 0.0
C59 C 0.2696 0.25028 0.84728 0.0
C60 C 0.29572 0.2328 0.82349 0.0
C61 C 0.28859 0.19887 0.81584 0.0
C62 C 0.17556 0.18205 0.04166 0.0
H63 H 0.13519 0.04236 0.80812 0.0
H64 H 0.17188 0.09044 0.83267 0.0
H65 H 0.06354 0.12869 0.88239 0.0
H66 H 0.02665 0.0806 0.85738 0.0
H67 H 0.17976 0.15215 0.82967 0.0
H68 H 0.11417 0.13413 0.9322 0.0
H69 H 0.20949 0.20609 0.93144 0.0
H70 H 0.21403 0.17203 0.99444 0.0
H71 H 0.08951 0.18631 0.96853 0.0
H72 H 0.07518 0.19436 0.03545 0.0
H73 H 0.25218 0.15584 0.82729 0.0
H74 H 0.21793 0.24791 0.8827 0.0
H75 H 0.19955 0.1801 0.062 0.0
H76 H 0.30888 0.1849 0.798 0.0
H77 H 0.27498 0.27643 0.85382 0.0
C78 C 0.88603 0.06197 0.69051 0.0
C79 C 0.92715 0.05908 0.68364 0.0
C80 C 0.86468 0.08922 0.67652 0.0
C81 C 0.88395 0.1142 0.65526 0.0
C82 C 0.92543 0.11217 0.6499 0.0
C83 C 0.94687 0.08498 0.66417 0.0
C84 C 0.86024 0.14094 0.63683 0.0
C85 C 0.82931 0.15697 0.65648 0.0
C86 C 0.80453 0.18029 0.63832 0.0
C87 C 0.81095 0.18735 0.59981 0.0
C88 C 0.8422 0.17194 0.58002 0.0
C89 C 0.86684 0.14899 0.59874 0.0
C90 C 0.84868 0.1786 0.53937 0.0
C91 C 0.8183 0.1723 0.51295 0.0
C92 C 0.88652 0.18845 0.52651 0.0
C93 C 0.89436 0.19077 0.48788 0.0
C94 C 0.86463 0.18287 0.46134 0.0
C95 C 0.77188 0.19697 0.65961 0.0
C96 C 0.74846 0.17883 0.68557 0.0
C97 C 0.76405 0.23121 0.65438 0.0
C98 C 0.73321 0.24681 0.67424 0.0
C99 C 0.70943 0.22853 0.6997 0.0
C100 C 0.71765 0.19446 0.70546 0.0
C101 C 0.82637 0.17404 0.47417 0.0
H102 H 0.86992 0.04226 0.70506 0.0
H103 H 0.83271 0.08988 0.68081 0.0
H104 H 0.94117 0.13133 0.63412 0.0
H105 H 0.97868 0.08374 0.65908 0.0
H106 H 0.82483 0.15147 0.68616 0.0
H107 H 0.89011 0.13627 0.58306 0.0
H108 H 0.79162 0.20468 0.58512 0.0
H109 H 0.78899 0.16435 0.52229 0.0
H110 H 0.91038 0.19335 0.5464 0.0
H111 H 0.92436 0.19687 0.47875 0.0
H112 H 0.75344 0.15235 0.69003 0.0
H113 H 0.78182 0.24601 0.63499 0.0
H114 H 0.80318 0.1674 0.4542 0.0
H115 H 0.69996 0.17981 0.72506 0.0
H116 H 0.72728 0.27303 0.66893 0.0
C117 C 0.60727 0.41749 0.21153 0.0
C118 C 0.57405 0.43196 0.1938 0.0
C119 C 0.62832 0.39151 0.19432 0.0
C120 C 0.61563 0.37764 0.15966 0.0
C121 C 0.58034 0.39038 0.14356 0.0
C122 C 0.56067 0.41769 0.15969 0.0
C123 C 0.64019 0.3516 0.13961 0.0
C124 C 0.66821 0.33206 0.15937 0.0
C125 C 0.69419 0.31022 0.14035 0.0
C126 C 0.69034 0.30602 0.10111 0.0
C127 C 0.66127 0.32376 0.08112 0.0
C128 C 0.63723 0.34701 0.1002 0.0
C129 C 0.65537 0.31822 0.04017 0.0
C130 C 0.68684 0.32256 0.01438 0.0
C131 C 0.61717 0.3104 0.02658 0.0
C132 C 0.61016 0.30803 0.98786 0.0
C133 C 0.64114 0.31375 0.96189 0.0
C134 C 0.72586 0.29245 0.16165 0.0
C135 C 0.74821 0.30943 0.1894 0.0
C136 C 0.73434 0.25866 0.15422 0.0
C137 C 0.76479 0.24235 0.17375 0.0
C138 C 0.78754 0.25949 0.20102 0.0
C139 C 0.77868 0.2931 0.20892 0.0
C140 C 0.67966 0.32074 0.97543 0.0
H141 H 0.61832 0.42722 0.2381 0.0
H142 H 0.65546 0.38353 0.20797 0.0
H143 H 0.56808 0.38012 0.1178 0.0
H144 H 0.53613 0.42841 0.14412 0.0
H145 H 0.67006 0.3334 0.18981 0.0
H146 H 0.61701 0.36196 0.08355 0.0
H147 H 0.70983 0.28899 0.08607 0.0
H148 H 0.71649 0.32881 0.0243 0.0
H149 H 0.59248 0.30691 0.04598 0.0
H150 H 0.58 0.30342 0.97819 0.0
H151 H 0.74267 0.33559 0.19551 0.0
H152 H 0.71744 0.2448 0.13331 0.0
H153 H 0.70383 0.32571 0.95589 0.0
H154 H 0.79555 0.30686 0.22993 0.0
H155 H 0.77125 0.2165 0.1668 0.0
C156 C 0.59201 0.57932 0.68611 0.0
C157 C 0.59607 0.54866 0.66708 0.0
C158 C 0.60903 0.60853 0.67103 0.0
C159 C 0.62976 0.60753 0.63645 0.0
C160 C 0.63265 0.57693 0.61704 0.0
C161 C 0.61622 0.54779 0.63232 0.0
C162 C 0.64994 0.63775 0.62111 0.0
C163 C 0.67497 0.65729 0.6442 0.0
C164 C 0.69739 0.68381 0.62883 0.0
C165 C 0.69386 0.69128 0.59014 0.0
C166 C 0.66801 0.67262 0.56718 0.0
C167 C 0.64635 0.64586 0.58266 0.0
C168 C 0.66256 0.68116 0.52702 0.0
C169 C 0.62896 0.69936 0.51597 0.0
C170 C 0.68837 0.66836 0.49938 0.0
C171 C 0.67975 0.67267 0.46097 0.0
C172 C 0.6452 0.6899 0.44968 0.0
C173 C 0.72557 0.7029 0.65295 0.0
C174 C 0.71294 0.7171 0.68731 0.0
C175 C 0.76547 0.70686 0.64172 0.0
C176 C 0.79224 0.72469 0.66436 0.0
C177 C 0.7795 0.73936 0.69834 0.0
C178 C 0.73961 0.73561 0.70961 0.0
C179 C 0.62032 0.70368 0.47771 0.0
H180 H 0.57674 0.58045 0.71307 0.0
H181 H 0.60621 0.63185 0.68646 0.0
H182 H 0.64876 0.5753 0.59055 0.0
H183 H 0.61971 0.52436 0.61721 0.0
H184 H 0.6785 0.65088 0.67376 0.0
H185 H 0.6267 0.63128 0.56465 0.0
H186 H 0.71073 0.71186 0.57803 0.0
H187 H 0.60848 0.70904 0.53698 0.0
H188 H 0.71424 0.6539 0.50752 0.0
H189 H 0.69927 0.66148 0.44012 0.0
H190 H 0.68225 0.71449 0.69645 0.0
H191 H 0.77599 0.69602 0.61548 0.0
H192 H 0.59276 0.71605 0.47024 0.0
H193 H 0.7291 0.74716 0.73546 0.0
H194 H 0.82276 0.7278 0.65486 0.0
C195 C 0.81756 0.81339 0.9737 0.0
C196 C 0.85715 0.80852 0.9619 0.0
C197 C 0.80885 0.81859 0.01204 0.0
C198 C 0.83969 0.81944 0.03897 0.0
C199 C 0.87901 0.81369 0.02714 0.0
C200 C 0.88761 0.80826 0.98913 0.0
C201 C 0.83171 0.82781 0.07911 0.0
C202 C 0.80115 0.81169 0.0994 0.0
C203 C 0.79538 0.81868 0.13798 0.0
C204 C 0.81954 0.8427 0.15584 0.0
C205 C 0.84956 0.85951 0.13574 0.0
C206 C 0.85569 0.85171 0.09753 0.0
C207 C 0.8735 0.88618 0.15415 0.0
C208 C 0.85454 0.91145 0.17506 0.0
C209 C 0.91508 0.88754 0.14944 0.0
C210 C 0.93706 0.91437 0.16412 0.0
C211 C 0.91777 0.94065 0.18319 0.0
C212 C 0.76486 0.80041 0.16015 0.0
C213 C 0.72538 0.79817 0.14728 0.0
C214 C 0.77522 0.785 0.19444 0.0
C215 C 0.74679 0.76704 0.21509 0.0
C216 C 0.70734 0.76473 0.2022 0.0
C217 C 0.6968 0.78065 0.16825 0.0
C218 C 0.87643 0.93844 0.18934 0.0
H219 H 0.79355 0.81364 0.95327 0.0
H220 H 0.77827 0.82306 0.02047 0.0
H221 H 0.9033 0.81386 0.04729 0.0
H222 H 0.91848 0.805 0.98086 0.0
H223 H 0.78293 0.79284 0.08558 0.0
H224 H 0.87855 0.86494 0.08175 0.0
H225 H 0.81487 0.84837 0.18548 0.0
H226 H 0.82249 0.91113 0.17891 0.0
H227 H 0.93051 0.86807 0.13395 0.0
H228 H 0.96902 0.91501 0.15969 0.0
H229 H 0.71668 0.80993 0.12099 0.0
H230 H 0.80559 0.78615 0.20476 0.0
H231 H 0.86065 0.95842 0.20363 0.0
H232 H 0.66676 0.77852 0.15725 0.0
H233 H 0.75571 0.75451 0.24085 0.0
C234 C 0.10012 0.91874 0.31746 0.0
C235 C 0.10166 0.94938 0.33684 0.0
C236 C 0.1154 0.8897 0.33421 0.0
C237 C 0.13176 0.89088 0.37079 0.0
C238 C 0.13189 0.92143 0.39051 0.0
C239 C 0.11713 0.95037 0.37364 0.0
C240 C 0.15028 0.8609 0.38811 0.0
C241 C 0.17769 0.8415 0.36765 0.0
C242 C 0.19839 0.81522 0.38518 0.0
C243 C 0.19103 0.80808 0.4235 0.0
C244 C 0.16253 0.82644 0.44379 0.0
C245 C 0.14249 0.85286 0.42599 0.0
C246 C 0.15235 0.81779 0.48328 0.0
C247 C 0.11244 0.81165 0.49288 0.0
C248 C 0.18153 0.8174 0.51176 0.0
C249 C 0.17056 0.81218 0.54958 0.0
C250 C 0.13035 0.80678 0.5592 0.0
C251 C 0.22815 0.79568 0.36349 0.0
C252 C 0.21834 0.78194 0.32806 0.0
C253 C 0.26671 0.79097 0.37789 0.0
C254 C 0.29498 0.77297 0.35721 0.0
C255 C 0.28501 0.75886 0.32209 0.0
C256 C 0.24645 0.76337 0.30769 0.0
C257 C 0.10159 0.80609 0.53034 0.0
H258 H 0.08819 0.91749 0.28906 0.0
H259 H 0.11466 0.86638 0.31855 0.0
H260 H 0.14456 0.92319 0.41858 0.0
H261 H 0.11833 0.97377 0.38917 0.0
H262 H 0.18425 0.84776 0.3385 0.0
H263 H 0.1209 0.86739 0.44184 0.0
H264 H 0.20651 0.78761 0.43715 0.0
H265 H 0.08947 0.8117 0.47138 0.0
H266 H 0.21251 0.82225 0.50492 0.0
H267 H 0.19329 0.8128 0.57128 0.0
H268 H 0.18871 0.78511 0.31647 0.0
H269 H 0.27508 0.80147 0.40499 0.0
H270 H 0.07031 0.80244 0.53691 0.0
H271 H 0.2381 0.75244 0.2808 0.0
H272 H 0.32446 0.76943 0.36902 0.0
C273 C 0.34195 0.67719 0.0365 0.0
C274 C 0.38151 0.68658 0.04436 0.0
C275 C 0.32861 0.67553 0.99899 0.0
C276 C 0.35487 0.68283 0.96914 0.0
C277 C 0.39348 0.69417 0.97717 0.0
C278 C 0.40651 0.69642 0.0144 0.0
C279 C 0.34396 0.6756 0.92961 0.0
C280 C 0.31383 0.69363 0.91153 0.0
C281 C 0.30525 0.68776 0.8732 0.0
C282 C 0.32724 0.66347 0.85333 0.0
C283 C 0.35669 0.64421 0.87146 0.0
C284 C 0.36481 0.65078 0.90976 0.0
C285 C 0.37738 0.61623 0.85118 0.0
C286 C 0.35763 0.59796 0.82271 0.0
C287 C 0.41615 0.60619 0.86146 0.0
C288 C 0.43339 0.57754 0.84563 0.0
C289 C 0.41298 0.55876 0.81807 0.0
C290 C 0.27253 0.70619 0.85409 0.0
C291 C 0.23601 0.71126 0.87267 0.0
C292 C 0.27702 0.71791 0.81682 0.0
C293 C 0.24558 0.73412 0.79848 0.0
C294 C 0.20904 0.73898 0.81706 0.0
C295 C 0.20466 0.72743 0.85436 0.0
C296 C 0.37543 0.57004 0.80602 0.0
H297 H 0.32228 0.66902 0.05898 0.0
H298 H 0.29868 0.66662 0.9932 0.0
H299 H 0.41409 0.70005 0.9545 0.0
H300 H 0.43709 0.70395 0.01969 0.0
H301 H 0.29782 0.71274 0.92709 0.0
H302 H 0.38669 0.63609 0.92486 0.0
H303 H 0.32073 0.65923 0.82378 0.0
H304 H 0.3276 0.60415 0.81416 0.0
H305 H 0.43302 0.61987 0.88249 0.0
H306 H 0.4619 0.56937 0.85645 0.0
H307 H 0.23137 0.70224 0.90119 0.0
H308 H 0.30493 0.71468 0.80186 0.0
H309 H 0.35891 0.55644 0.78462 0.0
H310 H 0.17697 0.73116 0.86957 0.0
H311 H 0.24974 0.74259 0.76969 0.0
Zn312 Zn 0.02602 0.14051 0.317 0.0
Zn313 Zn 0.9741 0.14045 0.19098 0.0
Zn314 Zn 0.00212 0.14066 0.25663 0.0
C315 C 0.04948 0.1676 0.18392 0.0
C316 C 0.9748 0.07413 0.21181 0.0
O317 O 0.95646 0.16208 0.29571 0.0
O318 O 0.9759 0.13328 0.34533 0.0
C319 C 0.06675 0.19048 0.28634 0.0
O320 O 0.04804 0.16516 0.22017 0.0
O321 O 0.02085 0.15738 0.16393 0.0
O322 O 0.96211 0.09247 0.1855 0.0
O323 O 0.99213 0.08727 0.24077 0.0
O324 O 0.04942 0.18623 0.3176 0.0
O325 O 0.05723 0.17167 0.25812 0.0
O326 O 0.01718 0.08806 0.27222 0.0
O327 O 0.06334 0.1024 0.31328 0.0
C328 C 0.04718 0.08015 0.2931 0.0
O329 O 0.94546 0.16977 0.25867 0.0
O330 O 0.92992 0.1719 0.19799 0.0
C331 C 0.95022 0.15147 0.3296 0.0
C332 C 0.92309 0.18037 0.23167 0.0
Zn333 Zn 0.52982 0.35281 0.69727 0.0
Zn334 Zn 0.48309 0.36306 0.81942 0.0
Zn335 Zn 0.5044 0.35643 0.75828 0.0
C336 C 0.46678 0.42299 0.79236 0.0
C337 C 0.43669 0.31212 0.79375 0.0
O338 O 0.55976 0.32519 0.75991 0.0
O339 O 0.55856 0.30994 0.70013 0.0
C340 C 0.54442 0.41685 0.71365 0.0
O341 O 0.49299 0.41103 0.76933 0.0
O342 O 0.45068 0.40391 0.81627 0.0
O343 O 0.45351 0.32036 0.82426 0.0
O344 O 0.44796 0.32641 0.76283 0.0
O345 O 0.56166 0.39455 0.69448 0.0
O346 O 0.51716 0.40833 0.73758 0.0
O347 O 0.45722 0.3317 0.72415 0.0
O348 O 0.47896 0.35182 0.66985 0.0
C349 C 0.45226 0.33703 0.68859 0.0
O350 O 0.55074 0.33547 0.79662 0.0
O351 O 0.53502 0.36679 0.84559 0.0
C352 C 0.57244 0.30634 0.7329 0.0
C353 C 0.55888 0.34688 0.8298 0.0
Zn354 Zn 0.02209 0.85677 0.82725 0.0
Zn355 Zn 0.96408 0.85721 0.69283 0.0
Zn356 Zn 0.99294 0.85631 0.75956 0.0
C357 C 0.97603 0.92339 0.71032 0.0
C358 C 0.90606 0.82637 0.73472 0.0
O359 O 0.04936 0.82658 0.75898 0.0
O360 O 0.0695 0.82927 0.81846 0.0
C361 C 0.01993 0.9231 0.80672 0.0
O362 O 0.98598 0.90947 0.74179 0.0
O363 O 0.96654 0.90554 0.68232 0.0
O364 O 0.9111 0.83813 0.70205 0.0
O365 O 0.93351 0.82984 0.76001 0.0
O366 O 0.02935 0.90537 0.83476 0.0
O367 O 0.00547 0.90923 0.77673 0.0
O368 O 0.94761 0.8325 0.79718 0.0
O369 O 0.97742 0.83471 0.85289 0.0
C370 C 0.9478 0.82658 0.83298 0.0
O371 O 0.03635 0.83094 0.72162 0.0
O372 O 0.00375 0.82878 0.66742 0.0
C373 C 0.07433 0.8188 0.78519 0.0
C374 C 0.03441 0.82227 0.68658 0.0
Zn375 Zn 0.54846 0.62782 0.17398 0.0
Zn376 Zn 0.47146 0.63899 0.32506 0.0
Zn377 Zn 0.49636 0.6397 0.25588 0.0
C378 C 0.54524 0.67016 0.32634 0.0
C379 C 0.47389 0.57306 0.30376 0.0
O380 O 0.45143 0.66402 0.21998 0.0
O381 O 0.49659 0.64753 0.18134 0.0
C382 C 0.58623 0.67026 0.23011 0.0
O383 O 0.54293 0.66391 0.29076 0.0
O384 O 0.51692 0.66245 0.34813 0.0
O385 O 0.4672 0.59018 0.33301 0.0
O386 O 0.48496 0.58735 0.27284 0.0
O387 O 0.58962 0.65498 0.19891 0.0
O388 O 0.55509 0.66704 0.25157 0.0
O389 O 0.50717 0.58596 0.23857 0.0
O390 O 0.54692 0.58056 0.18781 0.0
C391 C 0.52676 0.56786 0.21446 0.0
O392 O 0.4385 0.66828 0.25699 0.0
O393 O 0.42155 0.66378 0.31731 0.0
C394 C 0.463 0.66028 0.18598 0.0
C395 C 0.41421 0.6743 0.28448 0.0
C396 C 0.04871 0.98631 0.30933 0.0
C397 C 0.08893 0.98093 0.31872 0.0
C398 C 0.03542 0.01823 0.29833 0.0
C399 C 0.06203 0.04547 0.2962 0.0
H400 H 0.02709 0.9663 0.31267 0.0
H401 H 0.00386 0.02209 0.29412 0.0
S402 S 0.17127 0.04275 0.31235 0.0
N403 N 0.15578 0.00426 0.32125 0.0
N404 N 0.13108 0.06393 0.30023 0.0
C405 C 0.10273 0.03962 0.30295 0.0
C406 C 0.11611 0.00739 0.31428 0.0
C407 C 0.40088 0.49835 0.80337 0.0
C408 C 0.42796 0.52534 0.8056 0.0
C409 C 0.41388 0.46569 0.7967 0.0
C410 C 0.45451 0.45841 0.79209 0.0
H411 H 0.36941 0.50205 0.80873 0.0
H412 H 0.39196 0.44568 0.79663 0.0
S413 S 0.53775 0.51964 0.79304 0.0
N414 N 0.49746 0.54263 0.79958 0.0
N415 N 0.52195 0.48052 0.78944 0.0
C416 C 0.482 0.48498 0.79299 0.0
C417 C 0.46871 0.51858 0.79922 0.0
C418 C 0.60946 0.4914 0.69119 0.0
C419 C 0.58181 0.51693 0.684 0.0
C420 C 0.59691 0.45958 0.70274 0.0
C421 C 0.55623 0.45205 0.70749 0.0
H422 H 0.64103 0.49584 0.68685 0.0
H423 H 0.61921 0.44038 0.70695 0.0
S424 S 0.47193 0.51024 0.69232 0.0
N425 N 0.51204 0.53304 0.68322 0.0
N426 N 0.48825 0.47263 0.70396 0.0
C427 C 0.52824 0.47755 0.70126 0.0
C428 C 0.54111 0.51019 0.68982 0.0
C429 C 0.93295 0.98755 0.22849 0.0
C430 C 0.93942 0.97196 0.19325 0.0
C431 C 0.94734 0.02 0.23583 0.0
C432 C 0.96873 0.03775 0.2082 0.0
H433 H 0.91511 0.97517 0.24989 0.0
H434 H 0.93947 0.03203 0.26224 0.0
S435 S 0.99602 0.00781 0.11257 0.0
N436 N 0.97039 0.97656 0.13123 0.0
N437 N 0.99794 0.03705 0.1455 0.0
C438 C 0.97731 0.02183 0.17381 0.0
C439 C 0.96265 0.98899 0.16624 0.0
C440 C 0.94183 0.01202 0.72862 0.0
C441 C 0.94779 0.02729 0.69314 0.0
C442 C 0.95413 0.97897 0.73536 0.0
C443 C 0.97238 0.96007 0.70668 0.0
H444 H 0.92587 0.02518 0.75069 0.0
H445 H 0.9469 0.96748 0.76223 0.0
S446 S -0.00043 0.98957 0.61079 0.0
N447 N 0.97673 0.02177 0.63038 0.0
N448 N 4e-05 0.95997 0.64328 0.0
C449 C 0.98119 0.97583 0.67221 0.0
C450 C 0.96891 0.00939 0.66538 0.0
C451 C 0.5839 0.4887 0.22267 0.0
C452 C 0.55748 0.46442 0.20796 0.0
C453 C 0.57171 0.5216 0.22913 0.0
C454 C 0.53287 0.53192 0.22056 0.0
H455 H 0.6152 0.48325 0.22659 0.0
H456 H 0.5939 0.53985 0.23784 0.0
S457 S 0.45042 0.47819 0.18626 0.0
N458 N 0.4885 0.4524 0.19063 0.0
N459 N 0.46713 0.5155 0.199 0.0
C460 C 0.50531 0.50789 0.20819 0.0
C461 C 0.51728 0.47386 0.20279 0.0
C462 C 0.46705 0.48474 0.3399 0.0
C463 C 0.43288 0.47246 0.32126 0.0
C464 C 0.48228 0.5167 0.33198 0.0
C465 C 0.46425 0.53722 0.30483 0.0
H466 H 0.48057 0.47057 0.36255 0.0
H467 H 0.50705 0.52612 0.34857 0.0
S468 S 0.37605 0.51651 0.24641 0.0
N469 N 0.38357 0.48264 0.27213 0.0
N470 N 0.41153 0.5432 0.25856 0.0
C471 C 0.43158 0.52475 0.28454 0.0
C472 C 0.41608 0.49219 0.29241 0.0
C473 C 0.03564 0.00888 0.84901 0.0
C474 C 0.05711 0.02596 0.82075 0.0
C475 C 0.02153 0.97624 0.84317 0.0
C476 C 0.02799 0.95946 0.80879 0.0
H477 H 0.03167 0.02002 0.87667 0.0
H478 H 0.00685 0.9635 0.86638 0.0
S479 S 0.07921 0.99411 0.7245 0.0
N480 N 0.08103 0.02473 0.75588 0.0
N481 N 0.05565 0.96281 0.74543 0.0
C482 C 0.04751 0.97679 0.77956 0.0
C483 C 0.06183 0.01016 0.78545 0.0
C484 C 0.13395 0.1621 0.11763 0.0
C485 C 0.12602 0.1899 0.09446 0.0
C486 C 0.11327 0.15751 0.15178 0.0
C487 C 0.08432 0.18063 0.16362 0.0
H488 H 0.1529 0.14209 0.1075 0.0
H489 H 0.11642 0.13388 0.16648 0.0
S490 S 0.05954 0.26095 0.11744 0.0
N491 N 0.09286 0.24366 0.08915 0.0
N492 N 0.05376 0.2347 0.15308 0.0
C493 C 0.08013 0.21046 0.14322 0.0
C494 C 0.10102 0.21515 0.10855 0.0
C495 C 0.40217 0.28671 0.61474 0.0
C496 C 0.37622 0.31056 0.59908 0.0
C497 C 0.42279 0.29335 0.64837 0.0
C498 C 0.41818 0.32407 0.6672 0.0
H499 H 0.4091 0.26404 0.59924 0.0
H500 H 0.4456 0.27595 0.65738 0.0
S501 S 0.34979 0.39266 0.64104 0.0
N502 N 0.34347 0.36429 0.60755 0.0
N503 N 0.38269 0.37671 0.6706 0.0
C504 C 0.38939 0.34653 0.65403 0.0
C505 C 0.36819 0.33977 0.61994 0.0
C506 C 0.63751 0.34848 0.90378 0.0
C507 C 0.63125 0.31734 0.92133 0.0
C508 C 0.61758 0.35666 0.87029 0.0
C509 C 0.59154 0.33371 0.85292 0.0
H510 H 0.65463 0.36783 0.91793 0.0
H511 H 0.61968 0.38211 0.85984 0.0
S512 S 0.5706 0.24695 0.88406 0.0
N513 N 0.60136 0.26199 0.91639 0.0
N514 N 0.56456 0.27725 0.85285 0.0
C515 C 0.58866 0.30126 0.8678 0.0
C516 C 0.60834 0.29309 0.90228 0.0
C517 C 0.87216 0.14706 0.40428 0.0
C518 C 0.87585 0.17884 0.4211 0.0
C519 C 0.8928 0.13932 0.37099 0.0
C520 C 0.91699 0.1633 0.35304 0.0
H521 H 0.85639 0.12713 0.4188 0.0
H522 H 0.8926 0.11364 0.36105 0.0
S523 S 0.93121 0.25156 0.38228 0.0
N524 N 0.90156 0.23554 0.41497 0.0
N525 N 0.93972 0.22104 0.35177 0.0
C526 C 0.91749 0.19608 0.36729 0.0
C527 C 0.89709 0.20384 0.4016 0.0
C528 C 0.89589 0.78189 0.90981 0.0
C529 C 0.86835 0.80637 0.92136 0.0
C530 C 0.91783 0.78572 0.87641 0.0
C531 C 0.91267 0.81393 0.85331 0.0
H532 H 0.90332 0.76138 0.92852 0.0
H533 H 0.94207 0.7685 0.87089 0.0
S534 S 0.83895 0.8816 0.86693 0.0
N535 N 0.8329 0.85711 0.90411 0.0
N536 N 0.87389 0.86382 0.84087 0.0
C537 C 0.88156 0.83609 0.86182 0.0
C538 C 0.85941 0.83245 0.8961 0.0
C539 C 0.6304 0.65799 0.39051 0.0
C540 C 0.63132 0.68889 0.40971 0.0
C541 C 0.60665 0.65351 0.35833 0.0
C542 C 0.58293 0.67965 0.34445 0.0
H543 H 0.64472 0.63618 0.40248 0.0
H544 H 0.60321 0.62841 0.34703 0.0
S545 S 0.58279 0.76734 0.37812 0.0
N546 N 0.61316 0.74782 0.40741 0.0
N547 N 0.56721 0.73873 0.34771 0.0
C548 C 0.58741 0.71155 0.36036 0.0
C549 C 0.61195 0.71633 0.39287 0.0
C550 C 0.43465 0.66165 0.0832 0.0
C551 C 0.3995 0.68045 0.08194 0.0
C552 C 0.45401 0.65553 0.11708 0.0
C553 C 0.43918 0.66766 0.15177 0.0
H554 H 0.44748 0.65137 0.05758 0.0
H555 H 0.48111 0.64089 0.1157 0.0
S556 S 0.34667 0.71699 0.16432 0.0
N557 N 0.34934 0.71043 0.11823 0.0
N558 N 0.38605 0.69849 0.18294 0.0
C559 C 0.40332 0.6858 0.15135 0.0
C560 C 0.38337 0.69221 0.11624 0.0
C561 C 0.08869 0.77969 0.60903 0.0
C562 C 0.11677 0.80444 0.59907 0.0
C563 C 0.06525 0.78294 0.64157 0.0
C564 C 0.06959 0.81073 0.66556 0.0
H565 H 0.08223 0.75929 0.58974 0.0
H566 H 0.04094 0.76541 0.64595 0.0
S567 S 0.14317 0.87952 0.65568 0.0
N568 N 0.15094 0.85549 0.61838 0.0
N569 N 0.10743 0.86099 0.68017 0.0
C570 C 0.10084 0.83338 0.65854 0.0
C571 C 0.12438 0.8304 0.62503 0.0
C572 C 0.13172 0.26255 0.31546 0.0
C573 C 0.16986 0.25155 0.30479 0.0
C574 C 0.09768 0.24403 0.30606 0.0
C575 C 0.10049 0.21416 0.28516 0.0
H576 H 0.12835 0.2843 0.3335 0.0
H577 H 0.06916 0.25202 0.31726 0.0
S578 S 0.19276 0.17752 0.24538 0.0
N579 N 0.20817 0.21111 0.26854 0.0
N580 N 0.14379 0.17641 0.25043 0.0
C581 C 0.13798 0.20451 0.27137 0.0
C582 C 0.17284 0.22313 0.28145 0.0
C583 C 0.36573 0.24869 0.83616 0.0
C584 C 0.33321 0.249 0.8114 0.0
C585 C 0.39996 0.26759 0.82859 0.0
C586 C 0.40299 0.28787 0.79606 0.0
H587 H 0.36407 0.23468 0.86232 0.0
H588 H 0.4237 0.26725 0.84932 0.0
S589 S 0.32649 0.29487 0.72084 0.0
N590 N 0.30649 0.26889 0.75192 0.0
N591 N 0.37078 0.30518 0.73776 0.0
C592 C 0.37125 0.28699 0.77008 0.0
C593 C 0.33628 0.26747 0.77782 0.0
C594 C 0.67798 0.27653 0.73453 0.0
C595 C 0.67429 0.24469 0.71759 0.0
C596 C 0.64413 0.29523 0.7445 0.0
C597 C 0.60566 0.28276 0.73741 0.0
H598 H 0.70716 0.28781 0.7381 0.0
H599 H 0.64812 0.32068 0.75451 0.0
S600 S 0.57964 0.19959 0.69795 0.0
N601 N 0.62887 0.20042 0.69776 0.0
N602 N 0.56557 0.23573 0.71623 0.0
C603 C 0.60162 0.25002 0.72346 0.0
C604 C 0.63589 0.23091 0.71359 0.0
C605 C 0.81789 0.20984 0.23317 0.0
C606 C 0.82208 0.2426 0.21891 0.0
C607 C 0.85139 0.19061 0.24251 0.0
C608 C 0.89003 0.20361 0.23805 0.0
H609 H 0.78865 0.1983 0.23487 0.0
H610 H 0.84716 0.16455 0.25009 0.0
S611 S 0.91728 0.28869 0.20536 0.0
N612 N 0.86807 0.28791 0.20373 0.0
N613 N 0.93079 0.25166 0.22156 0.0
C614 C 0.89452 0.23708 0.22686 0.0
C615 C 0.86056 0.25667 0.21725 0.0
C616 C 0.80222 0.79604 0.71812 0.0
C617 C 0.80736 0.76119 0.71952 0.0
C618 C 0.83337 0.8178 0.72819 0.0
C619 C 0.87034 0.80541 0.74058 0.0
H620 H 0.77536 0.80648 0.70597 0.0
H621 H 0.82973 0.84436 0.72307 0.0
S622 S 0.89609 0.71627 0.75515 0.0
N623 N 0.85011 0.71526 0.7384 0.0
N624 N 0.90841 0.75629 0.75828 0.0
C625 C 0.87421 0.77076 0.746 0.0
C626 C 0.84276 0.74856 0.73505 0.0
C627 C 0.68749 0.7081 0.22459 0.0
C628 C 0.67838 0.74227 0.22115 0.0
C629 C 0.65769 0.68464 0.23297 0.0
C630 C 0.61796 0.69461 0.23865 0.0
H631 H 0.71699 0.69908 0.21744 0.0
H632 H 0.66503 0.65825 0.23151 0.0
S633 S 0.58053 0.78169 0.24015 0.0
N634 N 0.62834 0.78549 0.22953 0.0
N635 N 0.57223 0.74118 0.24574 0.0
C636 C 0.60943 0.72896 0.23962 0.0
C637 C 0.63969 0.75289 0.23053 0.0
C638 C 0.35137 0.7511 0.29091 0.0
C639 C 0.31443 0.7376 0.30222 0.0
C640 C 0.38287 0.73018 0.27971 0.0
C641 C 0.37847 0.69517 0.28009 0.0
H642 H 0.35665 0.77783 0.29292 0.0
H643 H 0.41181 0.7413 0.27418 0.0
S644 S 0.28691 0.64774 0.30458 0.0
N645 N 0.27429 0.6874 0.31015 0.0
N646 N 0.33378 0.64811 0.29015 0.0
C647 C 0.3409 0.68161 0.28886 0.0
C648 C 0.30874 0.70285 0.2997 0.0
C649 C 0.13662 0.74342 0.80109 0.0
C650 C 0.17544 0.75677 0.79858 0.0
C651 C 0.10329 0.76264 0.79144 0.0
C652 C 0.10763 0.79576 0.77876 0.0
H653 H 0.13183 0.71869 0.81284 0.0
H654 H 0.07383 0.75254 0.79707 0.0
S655 S 0.20249 0.84111 0.76268 0.0
N656 N 0.21629 0.80412 0.77883 0.0
N657 N 0.15329 0.84008 0.76072 0.0
C658 C 0.14618 0.80839 0.77297 0.0
C659 C 0.18025 0.78888 0.78281 0.0
loop_
_geom_bond_atom_site_label_1
_geom_bond_atom_site_label_2
_geom_bond_distance
_geom_bond_site_symmetry_2
_ccdc_geom_bond_type
C0 C1 1.386 . S
C0 C2 1.397 . S
C0 H24 0.931 . S
C1 C0 1.386 . S
C1 C5 1.397 . S
C2 C0 1.397 . S
C2 C3 1.384 . S
C2 H25 0.930 . S
C3 C2 1.384 . S
C3 C4 1.377 . S
C3 C6 1.481 . S
C4 C3 1.377 . S
C4 C5 1.389 . S
C4 H26 0.929 . S
C5 C1 1.397 . S
C5 C4 1.389 . S
C5 H27 0.931 . S
C6 C3 1.481 . S
C6 C7 1.387 . S
C6 C11 1.390 . S
C7 C6 1.387 . S
C7 C8 1.401 . S
C7 H28 0.930 . S
C8 C7 1.401 . S
C8 C9 1.376 . S
C8 C17 1.511 . S
C9 C8 1.376 . S
C9 C10 1.392 . S
C9 H30 0.931 . S
C10 C9 1.392 . S
C10 C11 1.361 . S
C10 C12 1.500 . S
C11 C6 1.390 . S
C11 C10 1.361 . S
C11 H29 0.931 . S
C12 C10 1.500 . S
C12 C13 1.371 . S
C12 C14 1.365 . S
C13 C12 1.371 . S
C13 C23 1.386 . S
C13 H31 0.931 . S
C14 C12 1.365 . S
C14 C15 1.409 . S
C14 H32 0.929 . S
C15 C14 1.409 . S
C15 C16 1.380 . S
C15 H33 0.930 . S
C16 C15 1.380 . S
C16 C23 1.357 . S
C17 C8 1.511 . S
C17 C18 1.341 . S
C17 C19 1.371 . S
C18 C17 1.341 . S
C18 C22 1.394 . S
C18 H34 0.930 . S
C19 C17 1.371 . S
C19 C20 1.392 . S
C19 H35 0.931 . S
C20 C19 1.392 . S
C20 C21 1.331 . S
C20 H38 0.932 . S
C21 C20 1.331 . S
C21 C22 1.336 . S
C22 C18 1.394 . S
C22 C21 1.336 . S
C22 H37 0.929 . S
C23 C13 1.386 . S
C23 C16 1.357 . S
C23 H36 0.928 . S
H24 C0 0.931 . S
H25 C2 0.930 . S
H26 C4 0.929 . S
H27 C5 0.931 . S
H28 C7 0.930 . S
H29 C11 0.931 . S
H30 C9 0.931 . S
H31 C13 0.931 . S
H32 C14 0.929 . S
H33 C15 0.930 . S
H34 C18 0.930 . S
H35 C19 0.931 . S
H36 C23 0.928 . S
H37 C22 0.929 . S
H38 C20 0.932 . S
C39 C40 1.386 . S
C39 C41 1.397 . S
C39 H63 0.931 . S
C40 C39 1.386 . S
C40 C44 1.397 . S
C41 C39 1.397 . S
C41 C42 1.384 . S
C41 H64 0.930 . S
C42 C41 1.384 . S
C42 C43 1.377 . S
C42 C45 1.481 . S
C43 C42 1.377 . S
C43 C44 1.389 . S
C43 H65 0.929 . S
C44 C40 1.397 . S
C44 C43 1.389 . S
C44 H66 0.931 . S
C45 C42 1.481 . S
C45 C46 1.387 . S
C45 C50 1.390 . S
C46 C45 1.387 . S
C46 C47 1.401 . S
C46 H67 0.930 . S
C47 C46 1.401 . S
C47 C48 1.376 . S
C47 C56 1.511 . S
C48 C47 1.376 . S
C48 C49 1.392 . S
C48 H69 0.931 . S
C49 C48 1.392 . S
C49 C50 1.361 . S
C49 C51 1.500 . S
C50 C45 1.390 . S
C50 C49 1.361 . S
C50 H68 0.931 . S
C51 C49 1.500 . S
C51 C52 1.371 . S
C51 C53 1.365 . S
C52 C51 1.371 . S
C52 C62 1.386 1_556 S
C52 H70 0.931 . S
C53 C51 1.365 . S
C53 C54 1.409 1_556 S
C53 H71 0.929 . S
C54 C53 1.409 1_554 S
C54 C55 1.380 . S
C54 H72 0.930 . S
C55 C54 1.380 . S
C55 C62 1.357 . S
C56 C47 1.511 . S
C56 C57 1.341 . S
C56 C58 1.371 . S
C57 C56 1.341 . S
C57 C61 1.394 . S
C57 H73 0.930 . S
C58 C56 1.371 . S
C58 C59 1.392 . S
C58 H74 0.931 . S
C59 C58 1.392 . S
C59 C60 1.331 . S
C59 H77 0.932 . S
C60 C59 1.331 . S
C60 C61 1.336 . S
C61 C57 1.394 . S
C61 C60 1.336 . S
C61 H76 0.929 . S
C62 C52 1.386 1_554 S
C62 C55 1.357 . S
C62 H75 0.928 . S
H63 C39 0.931 . S
H64 C41 0.930 . S
H65 C43 0.929 . S
H66 C44 0.931 . S
H67 C46 0.930 . S
H68 C50 0.931 . S
H69 C48 0.931 . S
H70 C52 0.931 . S
H71 C53 0.929 . S
H72 C54 0.930 . S
H73 C57 0.930 . S
H74 C58 0.931 . S
H75 C62 0.928 . S
H76 C61 0.929 . S
H77 C59 0.932 . S
C78 C79 1.386 . S
C78 C80 1.397 . S
C78 H102 0.931 . S
C79 C78 1.386 . S
C79 C83 1.397 . S
C80 C78 1.397 . S
C80 C81 1.384 . S
C80 H103 0.930 . S
C81 C80 1.384 . S
C81 C82 1.377 . S
C81 C84 1.481 . S
C82 C81 1.377 . S
C82 C83 1.389 . S
C82 H104 0.929 . S
C83 C79 1.397 . S
C83 C82 1.389 . S
C83 H105 0.931 . S
C84 C81 1.481 . S
C84 C85 1.387 . S
C84 C89 1.390 . S
C85 C84 1.387 . S
C85 C86 1.401 . S
C85 H106 0.930 . S
C86 C85 1.401 . S
C86 C87 1.376 . S
C86 C95 1.511 . S
C87 C86 1.376 . S
C87 C88 1.392 . S
C87 H108 0.931 . S
C88 C87 1.392 . S
C88 C89 1.361 . S
C88 C90 1.500 . S
C89 C84 1.390 . S
C89 C88 1.361 . S
C89 H107 0.931 . S
C90 C88 1.500 . S
C90 C91 1.371 . S
C90 C92 1.365 . S
C91 C90 1.371 . S
C91 C101 1.386 . S
C91 H109 0.931 . S
C92 C90 1.365 . S
C92 C93 1.409 . S
C92 H110 0.929 . S
C93 C92 1.409 . S
C93 C94 1.380 . S
C93 H111 0.930 . S
C94 C93 1.380 . S
C94 C101 1.357 . S
C95 C86 1.511 . S
C95 C96 1.341 . S
C95 C97 1.371 . S
C96 C95 1.341 . S
C96 C100 1.394 . S
C96 H112 0.930 . S
C97 C95 1.371 . S
C97 C98 1.392 . S
C97 H113 0.931 . S
C98 C97 1.392 . S
C98 C99 1.331 . S
C98 H116 0.932 . S
C99 C98 1.331 . S
C99 C100 1.336 . S
C100 C96 1.394 . S
C100 C99 1.336 . S
C100 H115 0.929 . S
C101 C91 1.386 . S
C101 C94 1.357 . S
C101 H114 0.928 . S
H102 C78 0.931 . S
H103 C80 0.930 . S
H104 C82 0.929 . S
H105 C83 0.931 . S
H106 C85 0.930 . S
H107 C89 0.931 . S
H108 C87 0.931 . S
H109 C91 0.931 . S
H110 C92 0.929 . S
H111 C93 0.930 . S
H112 C96 0.930 . S
H113 C97 0.931 . S
H114 C101 0.928 . S
H115 C100 0.929 . S
H116 C98 0.932 . S
C117 C118 1.386 . S
C117 C119 1.397 . S
C117 H141 0.931 . S
C118 C117 1.386 . S
C118 C122 1.397 . S
C119 C117 1.397 . S
C119 C120 1.384 . S
C119 H142 0.930 . S
C120 C119 1.384 . S
C120 C121 1.377 . S
C120 C123 1.481 . S
C121 C120 1.377 . S
C121 C122 1.389 . S
C121 H143 0.929 . S
C122 C118 1.397 . S
C122 C121 1.389 . S
C122 H144 0.931 . S
C123 C120 1.481 . S
C123 C124 1.387 . S
C123 C128 1.390 . S
C124 C123 1.387 . S
C124 C125 1.401 . S
C124 H145 0.930 . S
C125 C124 1.401 . S
C125 C126 1.376 . S
C125 C134 1.511 . S
C126 C125 1.376 . S
C126 C127 1.392 . S
C126 H147 0.931 . S
C127 C126 1.392 . S
C127 C128 1.361 . S
C127 C129 1.500 . S
C128 C123 1.390 . S
C128 C127 1.361 . S
C128 H146 0.931 . S
C129 C127 1.500 . S
C129 C130 1.371 . S
C129 C131 1.365 . S
C130 C129 1.371 . S
C130 C140 1.386 1_554 S
C130 H148 0.931 . S
C131 C129 1.365 . S
C131 C132 1.409 1_554 S
C131 H149 0.929 . S
C132 C131 1.409 1_556 S
C132 C133 1.380 . S
C132 H150 0.930 . S
C133 C132 1.380 . S
C133 C140 1.357 . S
C134 C125 1.511 . S
C134 C135 1.341 . S
C134 C136 1.371 . S
C135 C134 1.341 . S
C135 C139 1.394 . S
C135 H151 0.930 . S
C136 C134 1.371 . S
C136 C137 1.392 . S
C136 H152 0.931 . S
C137 C136 1.392 . S
C137 C138 1.331 . S
C137 H155 0.932 . S
C138 C137 1.331 . S
C138 C139 1.336 . S
C139 C135 1.394 . S
C139 C138 1.336 . S
C139 H154 0.929 . S
C140 C130 1.386 1_556 S
C140 C133 1.357 . S
C140 H153 0.928 . S
H141 C117 0.931 . S
H142 C119 0.930 . S
H143 C121 0.929 . S
H144 C122 0.931 . S
H145 C124 0.930 . S
H146 C128 0.931 . S
H147 C126 0.931 . S
H148 C130 0.931 . S
H149 C131 0.929 . S
H150 C132 0.930 . S
H151 C135 0.930 . S
H152 C136 0.931 . S
H153 C140 0.928 . S
H154 C139 0.929 . S
H155 C137 0.932 . S
C156 C157 1.386 . S
C156 C158 1.397 . S
C156 H180 0.931 . S
C157 C156 1.386 . S
C157 C161 1.397 . S
C158 C156 1.397 . S
C158 C159 1.384 . S
C158 H181 0.930 . S
C159 C158 1.384 . S
C159 C160 1.377 . S
C159 C162 1.481 . S
C160 C159 1.377 . S
C160 C161 1.389 . S
C160 H182 0.929 . S
C161 C157 1.397 . S
C161 C160 1.389 . S
C161 H183 0.931 . S
C162 C159 1.481 . S
C162 C163 1.387 . S
C162 C167 1.390 . S
C163 C162 1.387 . S
C163 C164 1.401 . S
C163 H184 0.930 . S
C164 C163 1.401 . S
C164 C165 1.376 . S
C164 C173 1.511 . S
C165 C164 1.376 . S
C165 C166 1.392 . S
C165 H186 0.931 . S
C166 C165 1.392 . S
C166 C167 1.361 . S
C166 C168 1.500 . S
C167 C162 1.390 . S
C167 C166 1.361 . S
C167 H185 0.931 . S
C168 C166 1.500 . S
C168 C169 1.371 . S
C168 C170 1.365 . S
C169 C168 1.371 . S
C169 C179 1.386 . S
C169 H187 0.931 . S
C170 C168 1.365 . S
C170 C171 1.409 . S
C170 H188 0.929 . S
C171 C170 1.409 . S
C171 C172 1.380 . S
C171 H189 0.930 . S
C172 C171 1.380 . S
C172 C179 1.357 . S
C173 C164 1.511 . S
C173 C174 1.341 . S
C173 C175 1.371 . S
C174 C173 1.341 . S
C174 C178 1.394 . S
C174 H190 0.930 . S
C175 C173 1.371 . S
C175 C176 1.392 . S
C175 H191 0.931 . S
C176 C175 1.392 . S
C176 C177 1.331 . S
C176 H194 0.932 . S
C177 C176 1.331 . S
C177 C178 1.336 . S
C178 C174 1.394 . S
C178 C177 1.336 . S
C178 H193 0.929 . S
C179 C169 1.386 . S
C179 C172 1.357 . S
C179 H192 0.928 . S
H180 C156 0.931 . S
H181 C158 0.930 . S
H182 C160 0.929 . S
H183 C161 0.931 . S
H184 C163 0.930 . S
H185 C167 0.931 . S
H186 C165 0.931 . S
H187 C169 0.931 . S
H188 C170 0.929 . S
H189 C171 0.930 . S
H190 C174 0.930 . S
H191 C175 0.931 . S
H192 C179 0.928 . S
H193 C178 0.929 . S
H194 C176 0.932 . S
C195 C196 1.386 . S
C195 C197 1.397 1_556 S
C195 H219 0.931 . S
C196 C195 1.386 . S
C196 C200 1.397 . S
C197 C195 1.397 1_554 S
C197 C198 1.384 . S
C197 H220 0.930 . S
C198 C197 1.384 . S
C198 C199 1.377 . S
C198 C201 1.481 . S
C199 C198 1.377 . S
C199 C200 1.389 1_554 S
C199 H221 0.929 . S
C200 C196 1.397 . S
C200 C199 1.389 1_556 S
C200 H222 0.931 . S
C201 C198 1.481 . S
C201 C202 1.387 . S
C201 C206 1.390 . S
C202 C201 1.387 . S
C202 C203 1.401 . S
C202 H223 0.930 . S
C203 C202 1.401 . S
C203 C204 1.376 . S
C203 C212 1.511 . S
C204 C203 1.376 . S
C204 C205 1.392 . S
C204 H225 0.931 . S
C205 C204 1.392 . S
C205 C206 1.361 . S
C205 C207 1.500 . S
C206 C201 1.390 . S
C206 C205 1.361 . S
C206 H224 0.931 . S
C207 C205 1.500 . S
C207 C208 1.371 . S
C207 C209 1.365 . S
C208 C207 1.371 . S
C208 C218 1.386 . S
C208 H226 0.931 . S
C209 C207 1.365 . S
C209 C210 1.409 . S
C209 H227 0.929 . S
C210 C209 1.409 . S
C210 C211 1.380 . S
C210 H228 0.930 . S
C211 C210 1.380 . S
C211 C218 1.357 . S
C212 C203 1.511 . S
C212 C213 1.341 . S
C212 C214 1.371 . S
C213 C212 1.341 . S
C213 C217 1.394 . S
C213 H229 0.930 . S
C214 C212 1.371 . S
C214 C215 1.392 . S
C214 H230 0.931 . S
C215 C214 1.392 . S
C215 C216 1.331 . S
C215 H233 0.932 . S
C216 C215 1.331 . S
C216 C217 1.336 . S
C217 C213 1.394 . S
C217 C216 1.336 . S
C217 H232 0.929 . S
C218 C208 1.386 . S
C218 C211 1.357 . S
C218 H231 0.928 . S
H219 C195 0.931 . S
H220 C197 0.930 . S
H221 C199 0.929 . S
H222 C200 0.931 . S
H223 C202 0.930 . S
H224 C206 0.931 . S
H225 C204 0.931 . S
H226 C208 0.931 . S
H227 C209 0.929 . S
H228 C210 0.930 . S
H229 C213 0.930 . S
H230 C214 0.931 . S
H231 C218 0.928 . S
H232 C217 0.929 . S
H233 C215 0.932 . S
C234 C235 1.386 . S
C234 C236 1.397 . S
C234 H258 0.931 . S
C235 C234 1.386 . S
C235 C239 1.397 . S
C236 C234 1.397 . S
C236 C237 1.384 . S
C236 H259 0.930 . S
C237 C236 1.384 . S
C237 C238 1.377 . S
C237 C240 1.481 . S
C238 C237 1.377 . S
C238 C239 1.389 . S
C238 H260 0.929 . S
C239 C235 1.397 . S
C239 C238 1.389 . S
C239 H261 0.931 . S
C240 C237 1.481 . S
C240 C241 1.387 . S
C240 C245 1.390 . S
C241 C240 1.387 . S
C241 C242 1.401 . S
C241 H262 0.930 . S
C242 C241 1.401 . S
C242 C243 1.376 . S
C242 C251 1.511 . S
C243 C242 1.376 . S
C243 C244 1.392 . S
C243 H264 0.931 . S
C244 C243 1.392 . S
C244 C245 1.361 . S
C244 C246 1.500 . S
C245 C240 1.390 . S
C245 C244 1.361 . S
C245 H263 0.931 . S
C246 C244 1.500 . S
C246 C247 1.371 . S
C246 C248 1.365 . S
C247 C246 1.371 . S
C247 C257 1.386 . S
C247 H265 0.931 . S
C248 C246 1.365 . S
C248 C249 1.409 . S
C248 H266 0.929 . S
C249 C248 1.409 . S
C249 C250 1.380 . S
C249 H267 0.930 . S
C250 C249 1.380 . S
C250 C257 1.357 . S
C251 C242 1.511 . S
C251 C252 1.341 . S
C251 C253 1.371 . S
C252 C251 1.341 . S
C252 C256 1.394 . S
C252 H268 0.930 . S
C253 C251 1.371 . S
C253 C254 1.392 . S
C253 H269 0.931 . S
C254 C253 1.392 . S
C254 C255 1.331 . S
C254 H272 0.932 . S
C255 C254 1.331 . S
C255 C256 1.336 . S
C256 C252 1.394 . S
C256 C255 1.336 . S
C256 H271 0.929 . S
C257 C247 1.386 . S
C257 C250 1.357 . S
C257 H270 0.928 . S
H258 C234 0.931 . S
H259 C236 0.930 . S
H260 C238 0.929 . S
H261 C239 0.931 . S
H262 C241 0.930 . S
H263 C245 0.931 . S
H264 C243 0.931 . S
H265 C247 0.931 . S
H266 C248 0.929 . S
H267 C249 0.930 . S
H268 C252 0.930 . S
H269 C253 0.931 . S
H270 C257 0.928 . S
H271 C256 0.929 . S
H272 C254 0.932 . S
C273 C274 1.386 . S
C273 C275 1.397 1_554 S
C273 H297 0.931 . S
C274 C273 1.386 . S
C274 C278 1.397 . S
C275 C273 1.397 1_556 S
C275 C276 1.384 . S
C275 H298 0.930 . S
C276 C275 1.384 . S
C276 C277 1.377 . S
C276 C279 1.481 . S
C277 C276 1.377 . S
C277 C278 1.389 1_556 S
C277 H299 0.929 . S
C278 C274 1.397 . S
C278 C277 1.389 1_554 S
C278 H300 0.931 . S
C279 C276 1.481 . S
C279 C280 1.387 . S
C279 C284 1.390 . S
C280 C279 1.387 . S
C280 C281 1.401 . S
C280 H301 0.930 . S
C281 C280 1.401 . S
C281 C282 1.376 . S
C281 C290 1.511 . S
C282 C281 1.376 . S
C282 C283 1.392 . S
C282 H303 0.931 . S
C283 C282 1.392 . S
C283 C284 1.361 . S
C283 C285 1.500 . S
C284 C279 1.390 . S
C284 C283 1.361 . S
C284 H302 0.931 . S
C285 C283 1.500 . S
C285 C286 1.371 . S
C285 C287 1.365 . S
C286 C285 1.371 . S
C286 C296 1.386 . S
C286 H304 0.931 . S
C287 C285 1.365 . S
C287 C288 1.409 . S
C287 H305 0.929 . S
C288 C287 1.409 . S
C288 C289 1.380 . S
C288 H306 0.930 . S
C289 C288 1.380 . S
C289 C296 1.357 . S
C290 C281 1.511 . S
C290 C291 1.341 . S
C290 C292 1.371 . S
C291 C290 1.341 . S
C291 C295 1.394 . S
C291 H307 0.930 . S
C292 C290 1.371 . S
C292 C293 1.392 . S
C292 H308 0.931 . S
C293 C292 1.392 . S
C293 C294 1.331 . S
C293 H311 0.932 . S
C294 C293 1.331 . S
C294 C295 1.336 . S
C295 C291 1.394 . S
C295 C294 1.336 . S
C295 H310 0.929 . S
C296 C286 1.386 . S
C296 C289 1.357 . S
C296 H309 0.928 . S
H297 C273 0.931 . S
H298 C275 0.930 . S
H299 C277 0.929 . S
H300 C278 0.931 . S
H301 C280 0.930 . S
H302 C284 0.931 . S
H303 C282 0.931 . S
H304 C286 0.931 . S
H305 C287 0.929 . S
H306 C288 0.930 . S
H307 C291 0.930 . S
H308 C292 0.931 . S
H309 C296 0.928 . S
H310 C295 0.929 . S
H311 C293 0.932 . S
Zn312 O318 1.920 1_455 S
Zn312 O324 1.898 . S
Zn312 O327 1.905 . S
Zn313 O321 1.905 1_655 S
Zn313 O322 1.898 . S
Zn313 O330 1.920 . S
Zn314 O317 2.080 1_455 S
Zn314 O320 2.114 . S
Zn314 O323 2.120 1_455 S
Zn314 O325 2.120 . S
Zn314 O326 2.114 . S
Zn314 O329 2.080 1_455 S
C315 O320 1.166 . S
C315 O321 1.182 . S
C316 O322 1.167 . S
C316 O323 1.299 . S
O317 Zn314 2.080 1_655 S
O317 C331 1.305 . S
O318 Zn312 1.920 1_655 S
O318 C331 1.234 . S
C319 O324 1.167 . S
C319 O325 1.299 . S
O320 Zn314 2.114 . S
O320 C315 1.166 . S
O321 Zn313 1.905 1_455 S
O321 C315 1.182 . S
O322 Zn313 1.898 . S
O322 C316 1.167 . S
O323 Zn314 2.120 1_655 S
O323 C316 1.299 . S
O324 Zn312 1.898 . S
O324 C319 1.167 . S
O325 Zn314 2.120 . S
O325 C319 1.299 . S
O326 Zn314 2.114 . S
O326 C328 1.166 . S
O327 Zn312 1.905 . S
O327 C328 1.182 . S
C328 O326 1.166 . S
C328 O327 1.182 . S
O329 Zn314 2.080 1_655 S
O329 C332 1.305 . S
O330 Zn313 1.920 . S
O330 C332 1.234 . S
C331 O317 1.305 . S
C331 O318 1.234 . S
C332 O329 1.305 . S
C332 O330 1.234 . S
Zn333 O339 1.920 . S
Zn333 O345 1.898 . S
Zn333 O348 1.905 . S
Zn334 O342 1.905 . S
Zn334 O343 1.898 . S
Zn334 O351 1.920 . S
Zn335 O338 2.080 . S
Zn335 O341 2.114 . S
Zn335 O344 2.120 . S
Zn335 O346 2.120 . S
Zn335 O347 2.114 . S
Zn335 O350 2.080 . S
C336 O341 1.166 . S
C336 O342 1.182 . S
C337 O343 1.167 . S
C337 O344 1.299 . S
O338 Zn335 2.080 . S
O338 C352 1.305 . S
O339 Zn333 1.920 . S
O339 C352 1.234 . S
C340 O345 1.167 . S
C340 O346 1.299 . S
O341 Zn335 2.114 . S
O341 C336 1.166 . S
O342 Zn334 1.905 . S
O342 C336 1.182 . S
O343 Zn334 1.898 . S
O343 C337 1.167 . S
O344 Zn335 2.120 . S
O344 C337 1.299 . S
O345 Zn333 1.898 . S
O345 C340 1.167 . S
O346 Zn335 2.120 . S
O346 C340 1.299 . S
O347 Zn335 2.114 . S
O347 C349 1.166 . S
O348 Zn333 1.905 . S
O348 C349 1.182 . S
C349 O347 1.166 . S
C349 O348 1.182 . S
O350 Zn335 2.080 . S
O350 C353 1.305 . S
O351 Zn334 1.920 . S
O351 C353 1.234 . S
C352 O338 1.305 . S
C352 O339 1.234 . S
C353 O350 1.305 . S
C353 O351 1.234 . S
Zn354 O360 1.920 . S
Zn354 O366 1.898 . S
Zn354 O369 1.905 1_455 S
Zn355 O363 1.905 . S
Zn355 O364 1.898 . S
Zn355 O372 1.920 1_655 S
Zn356 O359 2.094 . S
Zn356 O362 2.098 1_455 S
Zn356 O365 2.106 1_455 S
Zn356 O367 2.136 . S
Zn356 O368 2.102 1_455 S
Zn356 O371 2.092 . S
C357 O362 1.166 . S
C357 O363 1.182 . S
C358 O364 1.167 . S
C358 O365 1.299 . S
O359 Zn356 2.094 . S
O359 C373 1.305 . S
O360 Zn354 1.920 . S
O360 C373 1.234 . S
C361 O366 1.167 . S
C361 O367 1.299 . S
O362 Zn356 2.098 1_655 S
O362 C357 1.166 . S
O363 Zn355 1.905 . S
O363 C357 1.182 . S
O364 Zn355 1.898 . S
O364 C358 1.167 . S
O365 Zn356 2.106 1_655 S
O365 C358 1.299 . S
O366 Zn354 1.898 . S
O366 C361 1.167 . S
O367 Zn356 2.136 . S
O367 C361 1.299 . S
O368 Zn356 2.102 1_655 S
O368 C370 1.166 . S
O369 Zn354 1.905 1_655 S
O369 C370 1.182 . S
C370 O368 1.166 . S
C370 O369 1.182 . S
O371 Zn356 2.092 . S
O371 C374 1.305 . S
O372 Zn355 1.920 1_455 S
O372 C374 1.234 . S
C373 O359 1.305 . S
C373 O360 1.234 . S
C374 O371 1.305 . S
C374 O372 1.234 . S
Zn375 O381 1.920 . S
Zn375 O387 1.898 . S
Zn375 O390 1.905 . S
Zn376 O384 1.905 . S
Zn376 O385 1.898 . S
Zn376 O393 1.920 . S
Zn377 O380 2.080 . S
Zn377 O383 2.114 . S
Zn377 O386 2.120 . S
Zn377 O388 2.120 . S
Zn377 O389 2.114 . S
Zn377 O392 2.080 . S
C378 O383 1.166 . S
C378 O384 1.182 . S
C379 O385 1.167 . S
C379 O386 1.299 . S
O380 Zn377 2.080 . S
O380 C394 1.305 . S
O381 Zn375 1.920 . S
O381 C394 1.234 . S
C382 O387 1.167 . S
C382 O388 1.299 . S
O383 Zn377 2.114 . S
O383 C378 1.166 . S
O384 Zn376 1.905 . S
O384 C378 1.182 . S
O385 Zn376 1.898 . S
O385 C379 1.167 . S
O386 Zn377 2.120 . S
O386 C379 1.299 . S
O387 Zn375 1.898 . S
O387 C382 1.167 . S
O388 Zn377 2.120 . S
O388 C382 1.299 . S
O389 Zn377 2.114 . S
O389 C391 1.166 . S
O390 Zn375 1.905 . S
O390 C391 1.182 . S
C391 O389 1.166 . S
C391 O390 1.182 . S
O392 Zn377 2.080 . S
O392 C395 1.305 . S
O393 Zn376 1.920 . S
O393 C395 1.234 . S
C394 O380 1.305 . S
C394 O381 1.234 . S
C395 O392 1.305 . S
C395 O393 1.234 . S
C396 C397 1.369 . S
C396 C398 1.419 1_565 S
C396 H400 0.930 . S
C397 C396 1.369 . S
C397 C406 1.429 1_565 S
C398 C396 1.419 1_545 S
C398 C399 1.363 . S
C398 H401 0.929 . S
C399 C398 1.363 . S
C399 C405 1.428 . S
H400 C396 0.930 . S
H401 C398 0.929 . S
S402 N403 1.613 . S
S402 N404 1.610 . S
N403 S402 1.613 . S
N403 C406 1.350 . S
N404 S402 1.610 . S
N404 C405 1.351 . S
C405 C399 1.428 . S
C405 N404 1.351 . S
C405 C406 1.434 . S
C406 C397 1.429 1_545 S
C406 N403 1.350 . S
C406 C405 1.434 . S
C407 C408 1.369 . S
C407 C409 1.419 . S
C407 H411 0.930 . S
C408 C407 1.369 . S
C408 C417 1.429 . S
C409 C407 1.419 . S
C409 C410 1.363 . S
C409 H412 0.929 . S
C410 C409 1.363 . S
C410 C416 1.428 . S
H411 C407 0.930 . S
H412 C409 0.929 . S
S413 N414 1.613 . S
S413 N415 1.610 . S
N414 S413 1.613 . S
N414 C417 1.350 . S
N415 S413 1.610 . S
N415 C416 1.351 . S
C416 C410 1.428 . S
C416 N415 1.351 . S
C416 C417 1.434 . S
C417 C408 1.429 . S
C417 N414 1.350 . S
C417 C416 1.434 . S
C418 C419 1.369 . S
C418 C420 1.419 . S
C418 H422 0.930 . S
C419 C418 1.369 . S
C419 C428 1.429 . S
C420 C418 1.419 . S
C420 C421 1.363 . S
C420 H423 0.929 . S
C421 C420 1.363 . S
C421 C427 1.428 . S
H422 C418 0.930 . S
H423 C420 0.929 . S
S424 N425 1.613 . S
S424 N426 1.610 . S
N425 S424 1.613 . S
N425 C428 1.350 . S
N426 S424 1.610 . S
N426 C427 1.351 . S
C427 C421 1.428 . S
C427 N426 1.351 . S
C427 C428 1.434 . S
C428 C419 1.429 . S
C428 N425 1.350 . S
C428 C427 1.434 . S
C429 C430 1.369 . S
C429 C431 1.419 1_565 S
C429 H433 0.930 . S
C430 C429 1.369 . S
C430 C439 1.429 1_565 S
C431 C429 1.419 1_545 S
C431 C432 1.363 . S
C431 H434 0.929 . S
C432 C431 1.363 . S
C432 C438 1.428 . S
H433 C429 0.930 . S
H434 C431 0.929 . S
S435 N436 1.613 . S
S435 N437 1.610 . S
N436 S435 1.613 . S
N436 C439 1.350 . S
N437 S435 1.610 . S
N437 C438 1.351 . S
C438 C432 1.428 . S
C438 N437 1.351 . S
C438 C439 1.434 . S
C439 C430 1.429 1_545 S
C439 N436 1.350 . S
C439 C438 1.434 . S
C440 C441 1.369 1_565 S
C440 C442 1.419 . S
C440 H444 0.930 1_565 S
C441 C440 1.369 1_545 S
C441 C450 1.429 1_545 S
C442 C440 1.419 . S
C442 C443 1.363 . S
C442 H445 0.929 . S
C443 C442 1.363 . S
C443 C449 1.428 . S
H444 C440 0.930 1_545 S
H445 C442 0.929 . S
S446 N447 1.613 1_565 S
S446 N448 1.610 . S
N447 S446 1.613 1_545 S
N447 C450 1.350 1_545 S
N448 S446 1.610 . S
N448 C449 1.351 . S
C449 C443 1.428 . S
C449 N448 1.351 . S
C449 C450 1.434 . S
C450 C441 1.429 1_565 S
C450 N447 1.350 1_565 S
C450 C449 1.434 . S
C451 C452 1.369 . S
C451 C453 1.419 . S
C451 H455 0.930 . S
C452 C451 1.369 . S
C452 C461 1.429 . S
C453 C451 1.419 . S
C453 C454 1.363 . S
C453 H456 0.929 . S
C454 C453 1.363 . S
C454 C460 1.428 . S
H455 C451 0.930 . S
H456 C453 0.929 . S
S457 N458 1.613 . S
S457 N459 1.610 . S
N458 S457 1.613 . S
N458 C461 1.350 . S
N459 S457 1.610 . S
N459 C460 1.351 . S
C460 C454 1.428 . S
C460 N459 1.351 . S
C460 C461 1.434 . S
C461 C452 1.429 . S
C461 N458 1.350 . S
C461 C460 1.434 . S
C462 C463 1.369 . S
C462 C464 1.419 . S
C462 H466 0.930 . S
C463 C462 1.369 . S
C463 C472 1.429 . S
C464 C462 1.419 . S
C464 C465 1.363 . S
C464 H467 0.929 . S
C465 C464 1.363 . S
C465 C471 1.428 . S
H466 C462 0.930 . S
H467 C464 0.929 . S
S468 N469 1.613 . S
S468 N470 1.610 . S
N469 S468 1.613 . S
N469 C472 1.350 . S
N470 S468 1.610 . S
N470 C471 1.351 . S
C471 C465 1.428 . S
C471 N470 1.351 . S
C471 C472 1.434 . S
C472 C463 1.429 . S
C472 N469 1.350 . S
C472 C471 1.434 . S
C473 C474 1.369 1_565 S
C473 C475 1.419 . S
C473 H477 0.932 . S
C474 C473 1.369 1_545 S
C474 C483 1.429 1_545 S
C475 C473 1.419 . S
C475 C476 1.363 . S
C475 H478 0.929 . S
C476 C475 1.363 . S
C476 C482 1.428 . S
H477 C473 0.932 . S
H478 C475 0.929 . S
S479 N480 1.613 1_565 S
S479 N481 1.610 . S
N480 S479 1.613 1_545 S
N480 C483 1.350 1_545 S
N481 S479 1.610 . S
N481 C482 1.351 . S
C482 C476 1.428 . S
C482 N481 1.351 . S
C482 C483 1.434 . S
C483 C474 1.429 1_565 S
C483 N480 1.350 1_565 S
C483 C482 1.434 . S
C484 C485 1.369 . S
C484 C486 1.419 . S
C484 H488 0.930 . S
C485 C484 1.369 . S
C485 C494 1.429 . S
C486 C484 1.419 . S
C486 C487 1.363 . S
C486 H489 0.929 . S
C487 C486 1.363 . S
C487 C493 1.428 . S
H488 C484 0.930 . S
H489 C486 0.929 . S
S490 N491 1.613 . S
S490 N492 1.610 . S
N491 S490 1.613 . S
N491 C494 1.350 . S
N492 S490 1.610 . S
N492 C493 1.351 . S
C493 C487 1.428 . S
C493 N492 1.351 . S
C493 C494 1.434 . S
C494 C485 1.429 . S
C494 N491 1.350 . S
C494 C493 1.434 . S
C495 C496 1.369 . S
C495 C497 1.419 . S
C495 H499 0.930 . S
C496 C495 1.369 . S
C496 C505 1.429 . S
C497 C495 1.419 . S
C497 C498 1.363 . S
C497 H500 0.929 . S
C498 C497 1.363 . S
C498 C504 1.428 . S
H499 C495 0.930 . S
H500 C497 0.929 . S
S501 N502 1.613 . S
S501 N503 1.610 . S
N502 S501 1.613 . S
N502 C505 1.350 . S
N503 S501 1.610 . S
N503 C504 1.351 . S
C504 C498 1.428 . S
C504 N503 1.351 . S
C504 C505 1.434 . S
C505 C496 1.429 . S
C505 N502 1.350 . S
C505 C504 1.434 . S
C506 C507 1.369 . S
C506 C508 1.419 . S
C506 H510 0.930 . S
C507 C506 1.369 . S
C507 C516 1.429 . S
C508 C506 1.419 . S
C508 C509 1.363 . S
C508 H511 0.929 . S
C509 C508 1.363 . S
C509 C515 1.428 . S
H510 C506 0.930 . S
H511 C508 0.929 . S
S512 N513 1.613 . S
S512 N514 1.610 . S
N513 S512 1.613 . S
N513 C516 1.350 . S
N514 S512 1.610 . S
N514 C515 1.351 . S
C515 C509 1.428 . S
C515 N514 1.351 . S
C515 C516 1.434 . S
C516 C507 1.429 . S
C516 N513 1.350 . S
C516 C515 1.434 . S
C517 C518 1.369 . S
C517 C519 1.419 . S
C517 H521 0.930 . S
C518 C517 1.369 . S
C518 C527 1.429 . S
C519 C517 1.419 . S
C519 C520 1.363 . S
C519 H522 0.929 . S
C520 C519 1.363 . S
C520 C526 1.428 . S
H521 C517 0.930 . S
H522 C519 0.929 . S
S523 N524 1.613 . S
S523 N525 1.610 . S
N524 S523 1.613 . S
N524 C527 1.350 . S
N525 S523 1.610 . S
N525 C526 1.351 . S
C526 C520 1.428 . S
C526 N525 1.351 . S
C526 C527 1.434 . S
C527 C518 1.429 . S
C527 N524 1.350 . S
C527 C526 1.434 . S
C528 C529 1.369 . S
C528 C530 1.419 . S
C528 H532 0.930 . S
C529 C528 1.369 . S
C529 C538 1.429 . S
C530 C528 1.419 . S
C530 C531 1.363 . S
C530 H533 0.929 . S
C531 C530 1.363 . S
C531 C537 1.428 . S
H532 C528 0.930 . S
H533 C530 0.929 . S
S534 N535 1.613 . S
S534 N536 1.610 . S
N535 S534 1.613 . S
N535 C538 1.350 . S
N536 S534 1.610 . S
N536 C537 1.351 . S
C537 C531 1.428 . S
C537 N536 1.351 . S
C537 C538 1.434 . S
C538 C529 1.429 . S
C538 N535 1.350 . S
C538 C537 1.434 . S
C539 C540 1.369 . S
C539 C541 1.419 . S
C539 H543 0.930 . S
C540 C539 1.369 . S
C540 C549 1.429 . S
C541 C539 1.419 . S
C541 C542 1.363 . S
C541 H544 0.929 . S
C542 C541 1.363 . S
C542 C548 1.428 . S
H543 C539 0.930 . S
H544 C541 0.929 . S
S545 N546 1.613 . S
S545 N547 1.610 . S
N546 S545 1.613 . S
N546 C549 1.350 . S
N547 S545 1.610 . S
N547 C548 1.351 . S
C548 C542 1.428 . S
C548 N547 1.351 . S
C548 C549 1.434 . S
C549 C540 1.429 . S
C549 N546 1.350 . S
C549 C548 1.434 . S
C550 C551 1.369 . S
C550 C552 1.419 . S
C550 H554 0.930 . S
C551 C550 1.369 . S
C551 C560 1.429 . S
C552 C550 1.419 . S
C552 C553 1.363 . S
C552 H555 0.929 . S
C553 C552 1.363 . S
C553 C559 1.428 . S
H554 C550 0.930 . S
H555 C552 0.929 . S
S556 N557 1.613 . S
S556 N558 1.610 . S
N557 S556 1.613 . S
N557 C560 1.350 . S
N558 S556 1.610 . S
N558 C559 1.351 . S
C559 C553 1.428 . S
C559 N558 1.351 . S
C559 C560 1.434 . S
C560 C551 1.429 . S
C560 N557 1.350 . S
C560 C559 1.434 . S
C561 C562 1.369 . S
C561 C563 1.419 . S
C561 H565 0.930 . S
C562 C561 1.369 . S
C562 C571 1.429 . S
C563 C561 1.419 . S
C563 C564 1.363 . S
C563 H566 0.929 . S
C564 C563 1.363 . S
C564 C570 1.428 . S
H565 C561 0.930 . S
H566 C563 0.929 . S
S567 N568 1.613 . S
S567 N569 1.610 . S
N568 S567 1.613 . S
N568 C571 1.350 . S
N569 S567 1.610 . S
N569 C570 1.351 . S
C570 C564 1.428 . S
C570 N569 1.351 . S
C570 C571 1.434 . S
C571 C562 1.429 . S
C571 N568 1.350 . S
C571 C570 1.434 . S
C572 C573 1.369 . S
C572 C574 1.419 . S
C572 H576 0.930 . S
C573 C572 1.369 . S
C573 C582 1.429 . S
C574 C572 1.419 . S
C574 C575 1.363 . S
C574 H577 0.929 . S
C575 C574 1.363 . S
C575 C581 1.428 . S
H576 C572 0.930 . S
H577 C574 0.929 . S
S578 N579 1.613 . S
S578 N580 1.610 . S
N579 S578 1.613 . S
N579 C582 1.350 . S
N580 S578 1.610 . S
N580 C581 1.351 . S
C581 C575 1.428 . S
C581 N580 1.351 . S
C581 C582 1.434 . S
C582 C573 1.429 . S
C582 N579 1.350 . S
C582 C581 1.434 . S
C583 C584 1.369 . S
C583 C585 1.419 . S
C583 H587 0.930 . S
C584 C583 1.369 . S
C584 C593 1.429 . S
C585 C583 1.419 . S
C585 C586 1.363 . S
C585 H588 0.929 . S
C586 C585 1.363 . S
C586 C592 1.428 . S
H587 C583 0.930 . S
H588 C585 0.929 . S
S589 N590 1.613 . S
S589 N591 1.610 . S
N590 S589 1.613 . S
N590 C593 1.350 . S
N591 S589 1.610 . S
N591 C592 1.351 . S
C592 C586 1.428 . S
C592 N591 1.351 . S
C592 C593 1.434 . S
C593 C584 1.429 . S
C593 N590 1.350 . S
C593 C592 1.434 . S
C594 C595 1.369 . S
C594 C596 1.419 . S
C594 H598 0.930 . S
C595 C594 1.369 . S
C595 C604 1.429 . S
C596 C594 1.419 . S
C596 C597 1.363 . S
C596 H599 0.929 . S
C597 C596 1.363 . S
C597 C603 1.428 . S
H598 C594 0.930 . S
H599 C596 0.929 . S
S600 N601 1.613 . S
S600 N602 1.610 . S
N601 S600 1.613 . S
N601 C604 1.350 . S
N602 S600 1.610 . S
N602 C603 1.351 . S
C603 C597 1.428 . S
C603 N602 1.351 . S
C603 C604 1.434 . S
C604 C595 1.429 . S
C604 N601 1.350 . S
C604 C603 1.434 . S
C605 C606 1.369 . S
C605 C607 1.419 . S
C605 H609 0.930 . S
C606 C605 1.369 . S
C606 C615 1.429 . S
C607 C605 1.419 . S
C607 C608 1.363 . S
C607 H610 0.929 . S
C608 C607 1.363 . S
C608 C614 1.428 . S
H609 C605 0.930 . S
H610 C607 0.929 . S
S611 N612 1.613 . S
S611 N613 1.610 . S
N612 S611 1.613 . S
N612 C615 1.350 . S
N613 S611 1.610 . S
N613 C614 1.351 . S
C614 C608 1.428 . S
C614 N613 1.351 . S
C614 C615 1.434 . S
C615 C606 1.429 . S
C615 N612 1.350 . S
C615 C614 1.434 . S
C616 C617 1.369 . S
C616 C618 1.419 . S
C616 H620 0.930 . S
C617 C616 1.369 . S
C617 C626 1.429 . S
C618 C616 1.419 . S
C618 C619 1.363 . S
C618 H621 0.929 . S
C619 C618 1.363 . S
C619 C625 1.428 . S
H620 C616 0.930 . S
H621 C618 0.929 . S
S622 N623 1.613 . S
S622 N624 1.610 . S
N623 S622 1.613 . S
N623 C626 1.350 . S
N624 S622 1.610 . S
N624 C625 1.351 . S
C625 C619 1.428 . S
C625 N624 1.351 . S
C625 C626 1.434 . S
C626 C617 1.429 . S
C626 N623 1.350 . S
C626 C625 1.434 . S
C627 C628 1.369 . S
C627 C629 1.419 . S
C627 H631 0.930 . S
C628 C627 1.369 . S
C628 C637 1.429 . S
C629 C627 1.419 . S
C629 C630 1.363 . S
C629 H632 0.929 . S
C630 C629 1.363 . S
C630 C636 1.428 . S
H631 C627 0.930 . S
H632 C629 0.929 . S
S633 N634 1.613 . S
S633 N635 1.610 . S
N634 S633 1.613 . S
N634 C637 1.350 . S
N635 S633 1.610 . S
N635 C636 1.351 . S
C636 C630 1.428 . S
C636 N635 1.351 . S
C636 C637 1.434 . S
C637 C628 1.429 . S
C637 N634 1.350 . S
C637 C636 1.434 . S
C638 C639 1.369 . S
C638 C640 1.419 . S
C638 H642 0.930 . S
C639 C638 1.369 . S
C639 C648 1.429 . S
C640 C638 1.419 . S
C640 C641 1.363 . S
C640 H643 0.929 . S
C641 C640 1.363 . S
C641 C647 1.428 . S
H642 C638 0.930 . S
H643 C640 0.929 . S
S644 N645 1.613 . S
S644 N646 1.610 . S
N645 S644 1.613 . S
N645 C648 1.350 . S
N646 S644 1.610 . S
N646 C647 1.351 . S
C647 C641 1.428 . S
C647 N646 1.351 . S
C647 C648 1.434 . S
C648 C639 1.429 . S
C648 N645 1.350 . S
C648 C647 1.434 . S
C649 C650 1.369 . S
C649 C651 1.419 . S
C649 H653 0.930 . S
C650 C649 1.369 . S
C650 C659 1.429 . S
C651 C649 1.419 . S
C651 C652 1.363 . S
C651 H654 0.929 . S
C652 C651 1.363 . S
C652 C658 1.428 . S
H653 C649 0.930 . S
H654 C651 0.929 . S
S655 N656 1.613 . S
S655 N657 1.610 . S
N656 S655 1.613 . S
N656 C659 1.350 . S
N657 S655 1.610 . S
N657 C658 1.351 . S
C658 C652 1.428 . S
C658 N657 1.351 . S
C658 C659 1.434 . S
C659 C650 1.429 . S
C659 N656 1.350 . S
C659 C658 1.434 . S
C397 C235 1.489 . S
C399 C328 1.487 . S
C410 C336 1.484 . S
C408 C289 1.484 . S
C421 C340 1.475 . S
C419 C157 1.483 . S
C430 C211 1.468 . S
C432 C316 1.460 . S
C443 C357 1.485 . S
C441 C79 1.484 . S
C454 C391 1.492 . S
C452 C118 1.490 . S
C463 C1 1.482 . S
C465 C379 1.473 . S
C474 C40 1.483 . S
C476 C361 1.476 . S
C487 C315 1.343 . S
C485 C55 1.480 . S
C498 C349 1.334 . S
C496 C16 1.478 . S
C509 C353 1.342 . S
C507 C133 1.482 . S
C520 C331 1.344 . S
C518 C94 1.483 . S
C531 C370 1.349 . S
C529 C196 1.483 . S
C540 C172 1.485 . S
C542 C378 1.346 . S
C553 C394 1.350 . S
C551 C274 1.488 . S
C562 C250 1.481 . S
C564 C374 1.341 . S
C575 C319 1.316 . S
C573 C21 1.509 . S
C586 C337 1.320 . S
C584 C60 1.510 . S
C595 C99 1.495 . S
C597 C352 1.305 . S
C608 C332 1.305 . S
C606 C138 1.498 . S
C619 C358 1.321 . S
C617 C177 1.518 . S
C628 C216 1.508 . S
C630 C382 1.318 . S
C639 C255 1.505 . S
C641 C395 1.307 . S
C650 C294 1.498 . S
C652 C373 1.309 . S
