# Generated by pormake.
# Topology pyr, (3,6)-cn, num edge types: 1
# Building blocks:
#     Node 0, Type 0, BuildingBlock: PAMTOO_clean_linker_0, # of connection points: 3
#     Node 1, Type 0, BuildingBlock: PAMTOO_clean_linker_0, # of connection points: 3
#     Node 2, Type 0, BuildingBlock: PAMTOO_clean_linker_0, # of connection points: 3
#     Node 3, Type 0, BuildingBlock: PAMTOO_clean_linker_0, # of connection points: 3
#     Node 4, Type 0, BuildingBlock: PAMTOO_clean_linker_0, # of connection points: 3
#     Node 5, Type 0, BuildingBlock: PAMTOO_clean_linker_0, # of connection points: 3
#     Node 6, Type 0, BuildingBlock: PAMTOO_clean_linker_0, # of connection points: 3
#     Node 7, Type 0, BuildingBlock: PAMTOO_clean_linker_0, # of connection points: 3
#     Node 8, Type 1, BuildingBlock: FUNLAD_clean_sbu_0, # of connection points: 6
#     Node 9, Type 1, BuildingBlock: FUNLAD_clean_sbu_0, # of connection points: 6
#     Node 10, Type 1, BuildingBlock: FUNLAD_clean_sbu_0, # of connection points: 6
#     Node 11, Type 1, BuildingBlock: FUNLAD_clean_sbu_0, # of connection points: 6
#     Edge 12, Type (0, 1), BuildingBlock: OJICUG_clean_linker_0, # of connection points: 2
#     Edge 13, Type (0, 1), BuildingBlock: OJICUG_clean_linker_0, # of connection points: 2
#     Edge 14, Type (0, 1), BuildingBlock: OJICUG_clean_linker_0, # of connection points: 2
#     Edge 15, Type (0, 1), BuildingBlock: OJICUG_clean_linker_0, # of connection points: 2
#     Edge 16, Type (0, 1), BuildingBlock: OJICUG_clean_linker_0, # of connection points: 2
#     Edge 17, Type (0, 1), BuildingBlock: OJICUG_clean_linker_0, # of connection points: 2
#     Edge 18, Type (0, 1), BuildingBlock: OJICUG_clean_linker_0, # of connection points: 2
#     Edge 19, Type (0, 1), BuildingBlock: OJICUG_clean_linker_0, # of connection points: 2
#     Edge 20, Type (0, 1), BuildingBlock: OJICUG_clean_linker_0, # of connection points: 2
#     Edge 21, Type (0, 1), BuildingBlock: OJICUG_clean_linker_0, # of connection points: 2
#     Edge 22, Type (0, 1), BuildingBlock: OJICUG_clean_linker_0, # of connection points: 2
#     Edge 23, Type (0, 1), BuildingBlock: OJICUG_clean_linker_0, # of connection points: 2
#     Edge 24, Type (0, 1), BuildingBlock: OJICUG_clean_linker_0, # of connection points: 2
#     Edge 25, Type (0, 1), BuildingBlock: OJICUG_clean_linker_0, # of connection points: 2
#     Edge 26, Type (0, 1), BuildingBlock: OJICUG_clean_linker_0, # of connection points: 2
#     Edge 27, Type (0, 1), BuildingBlock: OJICUG_clean_linker_0, # of connection points: 2
#     Edge 28, Type (0, 1), BuildingBlock: OJICUG_clean_linker_0, # of connection points: 2
#     Edge 29, Type (0, 1), BuildingBlock: OJICUG_clean_linker_0, # of connection points: 2
#     Edge 30, Type (0, 1), BuildingBlock: OJICUG_clean_linker_0, # of connection points: 2
#     Edge 31, Type (0, 1), BuildingBlock: OJICUG_clean_linker_0, # of connection points: 2
#     Edge 32, Type (0, 1), BuildingBlock: OJICUG_clean_linker_0, # of connection points: 2
#     Edge 33, Type (0, 1), BuildingBlock: OJICUG_clean_linker_0, # of connection points: 2
#     Edge 34, Type (0, 1), BuildingBlock: OJICUG_clean_linker_0, # of connection points: 2
#     Edge 35, Type (0, 1), BuildingBlock: OJICUG_clean_linker_0, # of connection points: 2
# Relax obj value: 0.263
# Max RMSD: 0.227
# Mean RMSD: 0.141
data_MOF--net-pry--node1-FUNLAD_clean_sbu_0--node2-PAMTOO_clean_linker_0--edge1-OJICUG_clean_linker_0
_symmetry_space_group_name_H-M    P1
_symmetry_Int_Tables_number       1
_symmetry_cell_setting            triclinic
loop_
_symmetry_equiv_pos_as_xyz
'x, y, z'
_cell_length_a     24.605063
_cell_length_b     27.866617
_cell_length_c     26.684637
_cell_angle_alpha  87.715764
_cell_angle_beta   92.600846
_cell_angle_gamma 84.35803
loop_
_atom_site_label
_atom_site_type_symbol
_atom_site_fract_x
_atom_site_fract_y
_atom_site_fract_z
_atom_type_partial_charge
H0 H 0.1098 0.24681 0.31828 0.0
H1 H 0.23328 0.12679 0.30547 0.0
H2 H 0.22726 0.2488 0.20297 0.0
H3 H 0.2467 0.15953 0.15701 0.0
C4 C 0.27252 0.13807 0.18694 0.0
O5 O 0.27787 0.16502 0.2288 0.0
H6 H 0.25187 0.1054 0.19671 0.0
C7 C 0.14456 0.22982 0.29992 0.0
C8 C 0.1645 0.25358 0.25747 0.0
C9 C 0.1686 0.18325 0.31745 0.0
C10 C 0.21328 0.16173 0.29245 0.0
C11 C 0.23395 0.18552 0.25151 0.0
C12 C 0.20996 0.23101 0.23449 0.0
H13 H 0.37488 0.99362 0.79098 0.0
H14 H 0.38988 0.87977 0.68549 0.0
H15 H 0.50956 0.88188 0.8062 0.0
H16 H 0.55652 0.84059 0.71368 0.0
C17 C 0.51773 0.83138 0.69518 0.0
O18 O 0.47715 0.83401 0.7295 0.0
H19 H 0.50651 0.85819 0.66342 0.0
C20 C 0.39694 0.96172 0.77706 0.0
C21 C 0.44541 0.94135 0.80346 0.0
C22 C 0.37545 0.9396 0.73459 0.0
C23 C 0.40435 0.89723 0.71835 0.0
C24 C 0.45225 0.87649 0.74415 0.0
C25 C 0.47253 0.89845 0.78652 0.0
H26 H 0.75431 0.4247 0.05906 0.0
H27 H 0.58402 0.47703 1.04053 0.0
H28 H 0.70321 0.57619 0.06964 0.0
H29 H 0.60554 0.63148 1.01482 0.0
C30 C 0.58338 0.59882 1.01104 0.0
O31 O 0.59884 0.56737 1.05183 0.0
H32 H 0.53915 0.61084 1.01285 0.0
C33 C 0.7222 0.45438 1.05748 0.0
C34 C 0.73562 0.50139 0.06558 0.0
C35 C 0.66766 0.44518 1.04808 0.0
C36 C 0.62644 0.48369 1.04616 0.0
C37 C 0.63941 0.53083 1.05311 0.0
C38 C 0.69374 0.53962 0.0637 0.0
H39 H 0.89313 0.67165 0.56349 0.0
H40 H 0.94904 0.52101 0.58967 0.0
H41 H 0.06503 0.62341 0.56487 0.0
H42 H 0.0279 0.47679 0.53608 0.0
C43 C 0.05859 0.50349 0.53604 0.0
O44 O 0.05168 0.53214 0.5769 0.0
H45 H 0.09929 0.48249 0.53982 0.0
C46 C 0.92618 0.64283 0.56787 0.0
C47 C 0.98055 0.65363 0.56442 0.0
C48 C 0.91422 0.59508 0.57688 0.0
C49 C 0.95737 0.55822 0.58364 0.0
C50 C 1.01132 0.56851 0.57792 0.0
C51 C 0.02294 0.61603 0.56864 0.0
H52 H 0.87374 0.99513 0.8745 0.0
H53 H 0.90607 0.88754 0.99606 0.0
H54 H 1.01118 0.88624 0.87303 0.0
H55 H 0.98229 0.78701 0.91061 0.0
C56 C 0.97296 0.79682 0.94954 0.0
O57 O 0.98953 0.84198 0.95775 0.0
H58 H 0.92788 0.7975 0.95248 0.0
C59 C 0.89868 0.96443 0.89233 0.0
C60 C 0.94513 0.94421 0.86816 0.0
C61 C 0.88301 0.94359 0.93815 0.0
C62 C 0.9159 0.90352 0.96034 0.0
C63 C 0.96112 0.88254 0.93663 0.0
C64 C 0.97568 0.90275 0.89074 0.0
H65 H 0.77228 0.10482 0.37172 0.0
H66 H 0.6323 0.21122 0.35157 0.0
H67 H 0.74428 0.21634 0.47802 0.0
H68 H 0.63437 0.2301 0.49878 0.0
C69 C 0.62147 0.25982 0.47028 0.0
O70 O 0.65751 0.25899 0.43176 0.0
H71 H 0.58018 0.25387 0.45461 0.0
C72 C 0.74743 0.13565 0.38477 0.0
C73 C 0.76454 0.15784 0.42881 0.0
C74 C 0.69986 0.15453 0.35601 0.0
C75 C 0.66889 0.19584 0.37278 0.0
C76 C 0.68532 0.21789 0.41676 0.0
C77 C 0.73279 0.1989 0.44412 0.0
H78 H 0.39129 0.67282 0.14906 0.0
H79 H 0.4405 0.52179 0.13165 0.0
H80 H 0.56176 0.62137 0.14208 0.0
H81 H 0.6101 0.48938 0.16637 0.0
C82 C 0.56628 0.49993 0.17261 0.0
O83 O 0.54495 0.53116 0.1333 0.0
H84 H 0.5454 0.46636 0.17147 0.0
C85 C 0.42305 0.64337 0.1461 0.0
C86 C 0.47822 0.65305 0.14599 0.0
C87 C 0.40873 0.59602 0.14117 0.0
C88 C 0.4503 0.55858 0.13543 0.0
C89 C 0.50516 0.56777 0.13691 0.0
C90 C 0.51909 0.61473 0.1423 0.0
H91 H 0.06047 0.43915 0.68633 0.0
H92 H 0.1397 0.56843 0.70438 0.0
H93 H 0.19616 0.46689 0.59723 0.0
H94 H 0.24637 0.54273 0.70334 0.0
C95 C 0.2494 0.56125 0.66586 0.0
O96 O 0.20668 0.55255 0.6331 0.0
H97 H 0.2464 0.60051 0.67243 0.0
C98 C 0.09004 0.46318 0.67451 0.0
C99 C 0.12626 0.44872 0.6379 0.0
C100 C 0.09782 0.5037 0.70206 0.0
C101 C 0.13366 0.53607 0.68455 0.0
C102 C 0.16854 0.52322 0.64607 0.0
C103 C 0.16682 0.4783 0.62452 0.0
C104 C 0.10715 0.08041 0.49858 0.0
N105 N 0.08298 0.15229 0.62796 0.0
C106 C 0.13349 0.16496 0.61763 0.0
C107 C 0.14423 0.21292 0.61754 0.0
C108 C 0.10277 0.24843 0.62855 0.0
C109 C 0.05202 0.23411 0.64251 0.0
C110 C 0.0428 0.18547 0.64164 0.0
Zn111 Zn 0.06781 0.08573 0.60656 0.0
C112 C 0.96326 0.0863 0.54641 0.0
N113 N 0.04849 0.94823 0.54895 0.0
C114 C 0.08949 0.91439 0.53797 0.0
C115 C 0.99646 0.93647 0.5533 0.0
C116 C 0.9844 0.88917 0.54879 0.0
C117 C 0.02645 0.85275 0.54156 0.0
C118 C 0.07933 0.866 0.53425 0.0
Zn119 Zn 0.06264 1.01542 0.57186 0.0
O120 O 0.10037 0.10496 0.53717 0.0
C121 C 0.16811 1.0146 0.63124 0.0
O122 O 0.09672 0.03639 0.5008 0.0
H123 H 0.96445 0.96309 0.56344 0.0
H124 H 0.16457 0.1384 0.60556 0.0
H125 H 0.13068 0.92427 0.53504 0.0
O126 O 0.14714 0.05716 0.63827 0.0
O127 O 0.14169 0.98789 0.60356 0.0
H128 H 1.00283 0.17465 0.64915 0.0
O129 O 0.028 0.99662 0.64304 0.0
O130 O 0.03302 0.06694 0.67608 0.0
O131 O 0.98452 0.04375 0.54023 0.0
O132 O 0.98879 0.11347 0.57435 0.0
C133 C 1.02024 1.02378 0.67998 0.0
H134 H 0.18367 0.22221 0.60607 0.0
H135 H 1.01926 0.26032 0.65244 0.0
H136 H 0.94276 0.88092 0.55344 0.0
H137 H 0.11308 0.83906 0.52871 0.0
C138 C 0.68552 1.01194 1.03778 0.0
N139 N 0.6 0.15132 1.03116 0.0
C140 C 0.65208 0.16303 1.03858 0.0
C141 C 0.66349 0.21084 1.03464 0.0
C142 C 0.62081 0.24757 1.02437 0.0
C143 C 0.56791 0.23452 1.01346 0.0
C144 C 0.55835 0.18576 1.01704 0.0
Zn145 Zn 0.5868 0.08304 1.05613 0.0
C146 C 0.53535 1.02282 0.98426 0.0
N147 N 0.56914 0.94221 0.11937 0.0
C148 C 0.60883 0.90631 0.13443 0.0
C149 C 0.51582 0.9331 0.11444 0.0
C150 C 0.50064 0.88705 0.12406 0.0
C151 C 0.54064 0.84864 0.137 0.0
C152 C 0.59543 0.85894 0.14333 0.0
Zn153 Zn 0.58455 1.01035 0.09377 0.0
O154 O 0.66419 0.05511 1.02951 0.0
C155 C 0.63389 0.07113 0.16688 0.0
O156 O 0.66112 0.98331 0.06529 0.0
H157 H 0.48462 0.96106 0.10077 0.0
H158 H 0.68462 0.13577 1.05105 0.0
H159 H 0.65111 0.91388 0.13747 0.0
O160 O 0.62365 0.09917 0.12798 0.0
O161 O 0.6238 0.02719 0.16435 0.0
H162 H 0.51713 0.1759 1.0117 0.0
O163 O 0.50874 0.0391 0.1213 0.0
O164 O 0.5093 0.10939 0.08197 0.0
O165 O 0.54529 0.99509 1.02335 0.0
O166 O 0.54843 0.06596 0.98546 0.0
C167 C 0.48576 0.08125 0.11051 0.0
H168 H 0.7051 0.2191 1.04221 0.0
H169 H 0.53376 0.26173 1.00543 0.0
H170 H 0.45776 0.88153 0.11986 0.0
H171 H 0.62789 0.83051 0.1529 0.0
C172 C 0.59778 0.44672 0.56419 0.0
N173 N 0.60584 0.51044 0.70841 0.0
C174 C 0.56593 0.49441 0.73664 0.0
C175 C 0.56669 0.50055 0.7884 0.0
C176 C 0.61015 0.52161 0.81221 0.0
C177 C 0.65443 0.53121 0.78312 0.0
C178 C 0.65086 0.52656 0.73124 0.0
Zn179 Zn 0.5899 0.52651 0.63167 0.0
C180 C 0.68899 0.55337 0.58126 0.0
N181 N 0.55325 0.57293 0.47852 0.0
C182 C 0.51933 0.54323 0.45676 0.0
C183 C 0.58134 0.60274 0.4501 0.0
C184 C 0.57823 0.60102 0.39759 0.0
C185 C 0.54644 0.56791 0.37448 0.0
C186 C 0.51552 0.53998 0.40502 0.0
Zn187 Zn 0.57005 0.55778 0.55361 0.0
O188 O 0.60366 0.45193 0.61138 0.0
C189 C 0.47066 0.53282 0.60463 0.0
O190 O 0.58473 0.48392 0.53551 0.0
H191 H 0.6086 0.62571 0.4681 0.0
H192 H 0.53102 0.48009 0.71906 0.0
H193 H 0.49843 0.51874 0.4796 0.0
O194 O 0.50643 0.51914 0.63923 0.0
O195 O 0.48568 0.55052 0.56358 0.0
H196 H 0.68283 0.53924 0.7095 0.0
O197 O 0.55572 0.6308 0.5727 0.0
O198 O 0.57522 0.60184 0.6499 0.0
O199 O 0.6544 0.56656 0.54528 0.0
O200 O 0.67277 0.53461 0.62128 0.0
C201 C 0.56107 0.63786 0.61945 0.0
H202 H 0.53143 0.49182 0.80835 0.0
H203 H 0.69049 0.54497 0.79947 0.0
H204 H 0.60223 0.62382 0.37563 0.0
H205 H 0.4915 0.51297 0.38979 0.0
C206 C 0.05114 0.63282 0.08297 0.0
N207 N 0.04963 0.57594 0.23176 0.0
C208 C 0.07815 0.60791 0.2566 0.0
C209 C 0.07448 0.61139 0.30857 0.0
C210 C 0.04073 0.58202 0.33442 0.0
C211 C 1.00926 0.55193 0.30699 0.0
C212 C 1.01473 0.54911 0.2558 0.0
Zn213 Zn 0.06439 0.5561 0.16096 0.0
C214 C 0.96325 0.52696 0.10849 0.0
N215 N 0.0936 0.5037 1.01833 0.0
C216 C 0.12228 0.53313 0.99012 0.0
C217 C 0.06373 0.47061 0.9971 0.0
C218 C 0.05856 0.46884 0.94501 0.0
C219 C 0.08438 0.5015 0.91511 0.0
C220 C 0.11807 0.53273 0.93812 0.0
Zn221 Zn 0.08122 0.52284 0.08916 0.0
O222 O 0.04642 0.62925 0.13026 0.0
C223 C 0.18247 0.55357 0.13809 0.0
O224 O 0.06491 0.59496 0.0599 0.0
H225 H 0.041 0.44786 1.02035 0.0
H226 H 0.1061 0.62853 0.23676 0.0
H227 H 0.14538 0.55947 1.00774 0.0
O228 O 0.14963 0.56751 0.17134 0.0
O229 O 0.16433 0.53263 0.10039 0.0
H230 H 0.99392 0.52257 0.23617 0.0
O231 O 0.09713 0.45074 0.11839 0.0
O232 O 0.08256 0.48134 0.19146 0.0
O233 O 0.99811 0.5132 0.0773 0.0
O234 O 0.97935 0.54618 0.1481 0.0
C235 C 0.0946 0.44454 0.16569 0.0
H236 H 0.09954 0.63493 0.32857 0.0
H237 H 0.98394 0.52756 0.32534 0.0
H238 H 0.03271 0.44386 0.92834 0.0
H239 H 0.13986 0.55741 0.91613 0.0
C240 C 0.1461 0.10662 0.36346 0.0
C241 C 0.14941 0.15703 0.36261 0.0
H242 H 0.13037 0.04274 0.40638 0.0
C243 C 0.13837 0.18137 0.40661 0.0
H244 H 0.15396 0.08661 0.33014 0.0
C245 C 0.12557 0.15611 0.45033 0.0
C246 C 0.12277 0.10565 0.4515 0.0
H247 H 0.14115 0.21986 0.40775 0.0
H248 H 0.11779 0.17649 0.48344 0.0
C249 C 0.1327 0.08131 0.40722 0.0
C250 C 0.48432 0.93384 0.89271 0.0
C251 C 0.46675 0.96334 0.84993 0.0
H252 H 0.51878 0.92923 0.96793 0.0
C253 C 0.47064 1.01338 0.85196 0.0
H254 H 0.4813 0.89532 0.8929 0.0
C255 C 0.49274 0.03311 0.89531 0.0
C256 C 0.51067 1.00333 0.93794 0.0
H257 H 0.45767 0.03716 0.81964 0.0
H258 H 0.49585 0.0716 0.89538 0.0
C259 C 0.50563 0.95349 0.936 0.0
C260 C 0.56492 0.53739 0.94622 0.0
C261 C 0.59256 0.57667 0.9608 0.0
H262 H 0.55193 0.48652 0.89041 0.0
C263 C 0.62752 0.59643 0.92743 0.0
H264 H 0.53692 0.5221 0.97105 0.0
C265 C 0.63393 0.57802 0.87995 0.0
C266 C 0.60676 0.53822 0.86491 0.0
H267 H 0.64881 0.62715 0.93752 0.0
H268 H 0.65886 0.59653 0.85469 0.0
C269 C 0.57297 0.51759 0.89943 0.0
C270 C 1.00184 0.54456 0.463 0.0
C271 C 0.05356 0.53246 0.48693 0.0
H272 H 0.95687 0.57336 0.39649 0.0
C273 C 0.10012 0.54652 0.4642 0.0
H274 H 0.96528 0.53486 0.48036 0.0
C275 C 0.09553 0.56762 0.41563 0.0
C276 C 0.04414 0.57558 0.38977 0.0
H277 H 0.14025 0.53846 0.48275 0.0
H278 H 0.13255 0.57398 0.39703 0.0
C279 C 0.9971 0.56668 0.41516 0.0
C280 C 0.3559 0.0785 0.18139 0.0
C281 C 0.32808 0.12379 0.16762 0.0
H282 H 0.42721 0.02945 0.17389 0.0
C283 C 0.35316 0.15595 0.13641 0.0
H284 H 0.33771 0.05341 0.20604 0.0
C285 C 0.40458 0.14243 0.11799 0.0
C286 C 0.43197 0.09658 0.13077 0.0
H287 H 0.33268 0.19137 0.12595 0.0
H288 H 0.42266 0.16776 0.09353 0.0
C289 C 0.40716 0.06493 0.16298 0.0
C290 C 0.2869 0.92804 0.68639 0.0
C291 C 0.32225 0.95935 0.70795 0.0
H292 H 0.21168 0.92067 0.64503 0.0
C293 C 0.30613 1.00935 0.70353 0.0
H294 H 0.29663 0.88929 0.68988 0.0
C295 C 0.25636 0.02731 0.67852 0.0
C296 C 0.22161 0.99585 0.65666 0.0
H297 H 0.33219 0.03484 0.71885 0.0
H298 H 0.24529 0.06595 0.67601 0.0
C299 C 0.2377 0.94602 0.66078 0.0
C300 C 0.8342 0.48898 1.04604 0.0
C301 C 0.79351 0.50986 0.07591 0.0
H302 H 0.91937 0.47802 1.03289 0.0
C303 C 0.80884 0.53702 0.11655 0.0
H304 H 0.82348 0.46823 1.01421 0.0
C305 C 0.86405 0.5424 0.12762 0.0
C306 C 0.90476 0.52116 0.09785 0.0
H307 H 0.77824 0.55317 0.14038 0.0
H308 H 0.8748 0.5632 0.15938 0.0
C309 C 0.88912 0.49469 1.05675 0.0
C310 C 0.81833 0.60293 0.53939 0.0
C311 C 0.85677 0.58349 0.57725 0.0
H312 H 0.73522 0.60805 0.51042 0.0
C313 C 0.84011 0.55256 0.6151 0.0
H314 H 0.83035 0.62631 0.50932 0.0
C315 C 0.7858 0.54213 0.61577 0.0
C316 C 0.7471 0.56201 0.57828 0.0
H317 H 0.86887 0.53718 0.64477 0.0
H318 H 0.77405 0.51879 0.646 0.0
C319 C 0.76405 0.59212 0.53976 0.0
C320 C 0.1272 0.34136 0.26538 0.0
C321 C 0.13923 0.30153 0.2355 0.0
H322 H 0.10398 0.4178 0.26707 0.0
C323 C 0.13223 0.30888 0.18295 0.0
H324 H 0.13235 0.33715 0.30589 0.0
C325 C 0.11661 0.35483 0.16076 0.0
C326 C 0.10706 0.39517 0.1903 0.0
H327 H 0.14021 0.27901 0.15866 0.0
H328 H 0.11308 0.35879 0.12016 0.0
C329 C 0.11133 0.38766 0.24304 0.0
C330 C 0.67766 0.3581 0.0756 0.0
C331 C 0.65397 0.39508 1.04204 0.0
H332 H 0.68468 0.2832 0.09703 0.0
C333 C 0.61774 0.38374 1.00296 0.0
H334 H 0.70471 0.36595 0.10674 0.0
C335 C 0.60651 0.3359 0.99697 0.0
C336 C 0.63125 0.29874 1.03007 0.0
H337 H 0.59902 0.41169 0.97649 0.0
H338 H 0.57936 0.32791 0.966 0.0
C339 C 0.66628 0.31062 0.06984 0.0
C340 C 0.96866 0.73922 0.58834 0.0
C341 C 0.99284 0.70429 0.55773 0.0
H342 H 0.96166 0.81265 0.60834 0.0
C343 C 0.02906 0.71803 0.52175 0.0
H344 H 0.94153 0.72937 0.61707 0.0
C345 C 0.04016 0.76625 0.51608 0.0
C346 C 1.01544 0.80134 0.54653 0.0
H347 H 0.04811 0.69164 0.49758 0.0
H348 H 0.06744 0.77611 0.48753 0.0
C349 C 0.98008 0.78701 0.58308 0.0
C350 C 0.51881 0.77288 0.62439 0.0
C351 C 0.52682 0.7809 0.6758 0.0
H352 H 0.52355 0.72188 0.56627 0.0
C353 C 0.54604 0.74155 0.70854 0.0
H354 H 0.50426 0.80253 0.59818 0.0
C355 C 0.5572 0.69524 0.6903 0.0
C356 C 0.54963 0.68718 0.63876 0.0
H357 H 0.55289 0.74678 0.74825 0.0
H358 H 0.57203 0.66579 0.71666 0.0
C359 C 0.53012 0.72665 0.60609 0.0
C360 C 0.96374 1.01544 0.81128 0.0
C361 C 0.96154 0.96537 0.81906 0.0
H362 H 0.98443 0.07316 0.762 0.0
C363 C 0.97705 0.93522 0.77996 0.0
H364 H 0.95242 0.03975 0.84059 0.0
C365 C 0.99488 0.95434 0.7348 0.0
C366 C 0.99849 1.00424 0.72741 0.0
H367 H 0.97535 0.89658 0.78423 0.0
H368 H 1.00674 0.92972 0.70592 0.0
C369 C 0.98238 0.03458 0.76625 0.0
C370 C 0.68545 0.08197 0.30361 0.0
C371 C 0.68391 0.13244 0.30757 0.0
H372 H 0.67067 1.02289 0.25681 0.0
C373 C 0.66744 0.16191 0.26445 0.0
H374 H 0.69774 0.05807 0.336 0.0
C375 C 0.65274 0.14177 0.219 0.0
C376 C 0.65325 0.09139 0.2151 0.0
H377 H 0.66643 0.20079 0.26564 0.0
H378 H 0.64011 0.16601 0.18694 0.0
C379 C 0.66989 0.06174 0.25814 0.0
C380 C 0.51053 0.52207 0.24677 0.0
C381 C 0.56054 0.52135 0.22355 0.0
H382 H 0.4653 0.54114 0.31041 0.0
C383 C 0.60431 0.54132 0.24771 0.0
H384 H 0.476 0.50734 0.2286 0.0
C385 C 0.59913 0.55884 0.29589 0.0
C386 C 0.54954 0.55784 0.32017 0.0
H387 H 0.64305 0.54179 0.23006 0.0
H388 H 0.63479 0.57101 0.3148 0.0
C389 C 0.50469 0.54111 0.29391 0.0
C390 C 0.07117 0.54721 0.77954 0.0
C391 C 0.08184 0.50391 0.75497 0.0
H392 H 0.06325 0.58036 0.85029 0.0
C393 C 0.08657 0.45982 0.78353 0.0
H394 H 0.06672 0.58164 0.75871 0.0
C395 C 0.08414 0.45914 0.83535 0.0
C396 C 0.07769 0.50242 0.86004 0.0
H397 H 0.09635 0.42557 0.76662 0.0
H398 H 0.0911 0.42479 0.8563 0.0
C399 C 0.06933 0.54646 0.8318 0.0
C400 C 0.81435 1.01136 0.96326 0.0
C401 C 0.83178 0.96177 0.96275 0.0
H402 H 0.75507 0.06613 0.98764 0.0
C403 C 0.80037 0.92909 0.9873 0.0
H404 H 0.8375 0.03768 0.94525 0.0
C405 C 0.75383 0.94539 1.01241 0.0
C406 C 0.7366 0.99488 1.01314 0.0
H407 H 0.81137 0.89053 0.98679 0.0
H408 H 0.73082 0.91903 1.03058 0.0
C409 C 0.76728 0.02769 0.98802 0.0
C410 C 0.83158 0.08937 0.46544 0.0
C411 C 0.81572 0.13919 0.45886 0.0
H412 H 0.89003 0.03366 0.49851 0.0
C413 C 0.8486 0.17131 0.48242 0.0
H414 H 0.80712 0.06344 0.44862 0.0
C415 C 0.89544 0.15418 0.51203 0.0
C416 C 0.91133 0.10446 0.51827 0.0
H417 H 0.83869 0.20998 0.47748 0.0
H418 H 0.91993 0.18001 0.52905 0.0
C419 C 0.87889 0.07225 0.49455 0.0
C420 C 0.31502 0.60519 0.17643 0.0
C421 C 0.35065 0.58537 0.14114 0.0
H422 H 0.234 0.61015 0.20388 0.0
C423 C 0.33072 0.55435 0.10602 0.0
H424 H 0.32939 0.62884 0.20429 0.0
C425 C 0.27653 0.54358 0.10587 0.0
C426 C 0.24071 0.56337 0.14098 0.0
H427 H 0.35689 0.53887 0.07802 0.0
H428 H 0.26264 0.51992 0.07779 0.0
C429 C 0.2606 0.59413 0.1765 0.0
C430 C 0.34277 0.51524 0.67275 0.0
C431 C 0.30373 0.54667 0.64466 0.0
H432 H 0.42628 0.48569 0.68161 0.0
C433 C 0.31835 0.56881 0.59976 0.0
H434 H 0.33243 0.4977 0.7075 0.0
C435 C 0.37215 0.56179 0.58467 0.0
C436 C 0.41215 0.53294 0.61467 0.0
H437 H 0.2888 0.59335 0.57772 0.0
H438 H 0.38301 0.58113 0.55116 0.0
C439 C 0.3965 0.50847 0.65793 0.0
C440 C 0.98408 0.75689 1.03732 0.0
C441 C 1.00025 0.75906 0.98739 0.0
H442 H 0.98785 0.71534 0.10741 0.0
C443 C 0.03811 0.72244 0.97169 0.0
H444 H 0.95487 0.78477 1.05027 0.0
C445 C 0.0566 0.68291 1.00396 0.0
C446 C 0.03805 0.67903 1.053 0.0
H447 H 0.05153 0.72322 0.93358 0.0
H448 H 0.08406 0.65439 0.98973 0.0
C449 C 1.00296 0.71725 0.06997 0.0
C450 C 0.46652 0.73804 0.11141 0.0
C451 C 0.49312 0.70331 0.14592 0.0
H452 H 0.46205 0.80978 0.07997 0.0
C453 C 0.53591 0.71628 0.17776 0.0
H454 H 0.43434 0.72871 0.0856 0.0
C455 C 0.55139 0.76339 0.17533 0.0
C456 C 0.52481 0.79827 0.14056 0.0
H457 H 0.55716 0.69001 0.20468 0.0
H458 H 0.58381 0.7725 0.20094 0.0
C459 C 0.48246 0.78467 0.10841 0.0
C460 C 0.16961 0.36494 0.63671 0.0
C461 C 0.12568 0.39904 0.62157 0.0
H462 H 0.1962 0.29045 0.65291 0.0
C463 C 0.07618 0.38331 0.60383 0.0
H464 H 0.20767 0.37638 0.65175 0.0
C465 C 0.06946 0.33429 0.60434 0.0
C466 C 0.11187 0.30011 0.62341 0.0
H467 H 0.04136 0.40905 0.5931 0.0
H468 H 0.03037 0.32333 0.59145 0.0
C469 C 0.16269 0.31581 0.63791 0.0
C470 C 0.60183 0.3508 0.46628 0.0
C471 C 0.61821 0.30816 0.49497 0.0
H472 H 0.58276 0.42728 0.46533 0.0
C473 C 0.62837 0.31116 0.54713 0.0
H474 H 0.59322 0.34957 0.4262 0.0
C475 C 0.62207 0.35588 0.57002 0.0
C476 C 0.60543 0.3986 0.54122 0.0
H477 H 0.64066 0.27881 0.57034 0.0
H478 H 0.62997 0.35694 0.6102 0.0
C479 C 0.5957 0.39533 0.48897 0.0
loop_
_geom_bond_atom_site_label_1
_geom_bond_atom_site_label_2
_geom_bond_distance
_geom_bond_site_symmetry_2
_ccdc_geom_bond_type
H0 C7 0.929 . S
H1 C10 0.930 . S
H2 C12 0.929 . S
H3 C4 0.969 . S
C4 H3 0.969 . S
C4 O5 1.550 . S
C4 H6 0.973 . S
O5 C4 1.550 . S
O5 C11 1.412 . S
H6 C4 0.973 . S
C7 H0 0.929 . S
C7 C8 1.400 . S
C7 C9 1.364 . S
C8 C7 1.400 . S
C8 C12 1.377 . S
C9 C7 1.364 . S
C9 C10 1.374 . S
C10 H1 0.930 . S
C10 C9 1.374 . S
C10 C11 1.383 . S
C11 O5 1.412 . S
C11 C10 1.383 . S
C11 C12 1.394 . S
C12 H2 0.929 . S
C12 C8 1.377 . S
C12 C11 1.394 . S
H13 C20 0.929 . S
H14 C23 0.930 . S
H15 C25 0.929 . S
H16 C17 0.969 . S
C17 H16 0.969 . S
C17 O18 1.550 . S
C17 H19 0.973 . S
O18 C17 1.550 . S
O18 C24 1.412 . S
H19 C17 0.973 . S
C20 H13 0.929 . S
C20 C21 1.400 . S
C20 C22 1.364 . S
C21 C20 1.400 . S
C21 C25 1.377 . S
C22 C20 1.364 . S
C22 C23 1.374 . S
C23 H14 0.930 . S
C23 C22 1.374 . S
C23 C24 1.383 . S
C24 O18 1.412 . S
C24 C23 1.383 . S
C24 C25 1.394 . S
C25 H15 0.929 . S
C25 C21 1.377 . S
C25 C24 1.394 . S
H26 C33 0.929 . S
H27 C36 0.930 . S
H28 C38 0.929 . S
H29 C30 0.969 . S
C30 H29 0.969 . S
C30 O31 1.550 . S
C30 H32 0.973 . S
O31 C30 1.550 . S
O31 C37 1.412 . S
H32 C30 0.973 . S
C33 H26 0.929 . S
C33 C34 1.400 1_554 S
C33 C35 1.364 1_554 S
C34 C33 1.400 1_556 S
C34 C38 1.377 . S
C35 C33 1.364 1_556 S
C35 C36 1.374 . S
C36 H27 0.930 . S
C36 C35 1.374 . S
C36 C37 1.383 . S
C37 O31 1.412 . S
C37 C36 1.383 . S
C37 C38 1.394 . S
C38 H28 0.929 . S
C38 C34 1.377 . S
C38 C37 1.394 . S
H39 C46 0.929 . S
H40 C49 0.930 . S
H41 C51 0.929 . S
H42 C43 0.969 . S
C43 H42 0.969 . S
C43 O44 1.550 . S
C43 H45 0.973 . S
O44 C43 1.550 . S
O44 C50 1.412 . S
H45 C43 0.973 . S
C46 H39 0.929 . S
C46 C47 1.400 . S
C46 C48 1.364 . S
C47 C46 1.400 . S
C47 C51 1.377 . S
C48 C46 1.364 . S
C48 C49 1.374 . S
C49 H40 0.930 . S
C49 C48 1.374 . S
C49 C50 1.383 . S
C50 O44 1.412 . S
C50 C49 1.383 . S
C50 C51 1.394 . S
C51 H41 0.929 . S
C51 C47 1.377 . S
C51 C50 1.394 . S
H52 C59 0.929 . S
H53 C62 0.930 . S
H54 C64 0.929 . S
H55 C56 0.969 . S
C56 H55 0.969 . S
C56 O57 1.550 . S
C56 H58 0.973 . S
O57 C56 1.550 . S
O57 C63 1.412 . S
H58 C56 0.973 . S
C59 H52 0.929 . S
C59 C60 1.400 . S
C59 C61 1.364 . S
C60 C59 1.400 . S
C60 C64 1.377 . S
C61 C59 1.364 . S
C61 C62 1.374 . S
C62 H53 0.930 . S
C62 C61 1.374 . S
C62 C63 1.383 . S
C63 O57 1.412 . S
C63 C62 1.383 . S
C63 C64 1.394 . S
C64 H54 0.929 . S
C64 C60 1.377 . S
C64 C63 1.394 . S
H65 C72 0.929 . S
H66 C75 0.930 . S
H67 C77 0.929 . S
H68 C69 0.969 . S
C69 H68 0.969 . S
C69 O70 1.550 . S
C69 H71 0.973 . S
O70 C69 1.550 . S
O70 C76 1.412 . S
H71 C69 0.973 . S
C72 H65 0.929 . S
C72 C73 1.400 . S
C72 C74 1.364 . S
C73 C72 1.400 . S
C73 C77 1.377 . S
C74 C72 1.364 . S
C74 C75 1.374 . S
C75 H66 0.930 . S
C75 C74 1.374 . S
C75 C76 1.383 . S
C76 O70 1.412 . S
C76 C75 1.383 . S
C76 C77 1.394 . S
C77 H67 0.929 . S
C77 C73 1.377 . S
C77 C76 1.394 . S
H78 C85 0.929 . S
H79 C88 0.930 . S
H80 C90 0.929 . S
H81 C82 0.969 . S
C82 H81 0.969 . S
C82 O83 1.550 . S
C82 H84 0.973 . S
O83 C82 1.550 . S
O83 C89 1.412 . S
H84 C82 0.973 . S
C85 H78 0.929 . S
C85 C86 1.400 . S
C85 C87 1.364 . S
C86 C85 1.400 . S
C86 C90 1.377 . S
C87 C85 1.364 . S
C87 C88 1.374 . S
C88 H79 0.930 . S
C88 C87 1.374 . S
C88 C89 1.383 . S
C89 O83 1.412 . S
C89 C88 1.383 . S
C89 C90 1.394 . S
C90 H80 0.929 . S
C90 C86 1.377 . S
C90 C89 1.394 . S
H91 C98 0.929 . S
H92 C101 0.930 . S
H93 C103 0.929 . S
H94 C95 0.969 . S
C95 H94 0.969 . S
C95 O96 1.550 . S
C95 H97 0.973 . S
O96 C95 1.550 . S
O96 C102 1.412 . S
H97 C95 0.973 . S
C98 H91 0.929 . S
C98 C99 1.400 . S
C98 C100 1.364 . S
C99 C98 1.400 . S
C99 C103 1.377 . S
C100 C98 1.364 . S
C100 C101 1.374 . S
C101 H92 0.930 . S
C101 C100 1.374 . S
C101 C102 1.383 . S
C102 O96 1.412 . S
C102 C101 1.383 . S
C102 C103 1.394 . S
C103 H93 0.929 . S
C103 C99 1.377 . S
C103 C102 1.394 . S
C104 O120 1.251 . S
C104 O122 1.254 . S
N105 C106 1.333 . S
N105 C110 1.307 . S
N105 Zn111 2.020 . S
C106 N105 1.333 . S
C106 C107 1.379 . S
C106 H124 0.952 . S
C107 C106 1.379 . S
C107 C108 1.390 . S
C107 H134 0.949 . S
C108 C107 1.390 . S
C108 C109 1.357 . S
C109 C108 1.357 . S
C109 C110 1.370 . S
C109 H135 0.950 . S
C110 N105 1.307 . S
C110 C109 1.370 . S
C110 H128 0.948 . S
Zn111 N105 2.020 . S
Zn111 O120 2.039 . S
Zn111 O126 2.034 . S
Zn111 O130 2.025 . S
Zn111 O132 2.024 1_455 S
C112 O131 1.246 . S
C112 O132 1.249 . S
N113 C114 1.307 1_655 S
N113 C115 1.333 . S
N113 Zn119 2.020 1_655 S
C114 N113 1.307 1_455 S
C114 C118 1.370 1_455 S
C114 H125 0.948 . S
C115 N113 1.333 . S
C115 C116 1.379 . S
C115 H123 0.952 . S
C116 C115 1.379 . S
C116 C117 1.390 . S
C116 H136 0.949 . S
C117 C116 1.390 . S
C117 C118 1.357 . S
C118 C114 1.370 1_655 S
C118 C117 1.357 . S
C118 H137 0.950 1_655 S
Zn119 N113 2.020 1_455 S
Zn119 O122 2.025 1_565 S
Zn119 O127 2.024 . S
Zn119 O129 2.039 1_455 S
Zn119 O131 2.034 1_465 S
O120 C104 1.251 . S
O120 Zn111 2.039 . S
C121 O126 1.246 . S
C121 O127 1.249 1_545 S
O122 C104 1.254 . S
O122 Zn119 2.025 1_545 S
H123 C115 0.952 . S
H124 C106 0.952 . S
H125 C114 0.948 . S
O126 Zn111 2.034 . S
O126 C121 1.246 . S
O127 Zn119 2.024 . S
O127 C121 1.249 1_565 S
H128 C110 0.948 . S
O129 Zn119 2.039 1_655 S
O129 C133 1.251 1_565 S
O130 Zn111 2.025 . S
O130 C133 1.254 1_455 S
O131 C112 1.246 . S
O131 Zn119 2.034 1_645 S
O132 Zn111 2.024 1_655 S
O132 C112 1.249 . S
C133 O129 1.251 1_545 S
C133 O130 1.254 1_655 S
H134 C107 0.949 . S
H135 C109 0.950 . S
H136 C116 0.949 . S
H137 C118 0.950 1_455 S
C138 O154 1.248 1_564 S
C138 O156 1.254 . S
N139 C140 1.333 . S
N139 C144 1.307 . S
N139 Zn145 2.020 1_556 S
C140 N139 1.333 . S
C140 C141 1.379 . S
C140 H158 0.952 1_556 S
C141 C140 1.379 . S
C141 C142 1.390 . S
C141 H168 0.949 . S
C142 C141 1.390 . S
C142 C143 1.357 . S
C143 C142 1.357 . S
C143 C144 1.370 . S
C143 H169 0.950 . S
C144 N139 1.307 . S
C144 C143 1.370 . S
C144 H162 0.948 . S
Zn145 N139 2.020 1_554 S
Zn145 O154 2.034 1_554 S
Zn145 O160 2.034 . S
Zn145 O164 2.025 . S
Zn145 O166 2.024 1_554 S
C146 O165 1.246 1_545 S
C146 O166 1.249 . S
N147 C148 1.307 . S
N147 C149 1.333 . S
N147 Zn153 2.020 . S
C148 N147 1.307 . S
C148 C152 1.370 . S
C148 H159 0.948 . S
C149 N147 1.333 . S
C149 C150 1.379 . S
C149 H157 0.952 . S
C150 C149 1.379 . S
C150 C151 1.390 . S
C150 H170 0.949 . S
C151 C150 1.390 . S
C151 C152 1.357 . S
C152 C148 1.370 . S
C152 C151 1.357 . S
C152 H171 0.950 . S
Zn153 N147 2.020 . S
Zn153 O156 2.025 . S
Zn153 O161 2.030 . S
Zn153 O163 2.039 1_565 S
Zn153 O165 2.034 1_554 S
O154 C138 1.248 1_546 S
O154 Zn145 2.034 1_556 S
C155 O160 1.246 . S
C155 O161 1.233 1_545 S
O156 C138 1.254 . S
O156 Zn153 2.025 . S
H157 C149 0.952 . S
H158 C140 0.952 1_554 S
H159 C148 0.948 . S
O160 Zn145 2.034 . S
O160 C155 1.246 . S
O161 Zn153 2.030 . S
O161 C155 1.233 1_565 S
H162 C144 0.948 . S
O163 Zn153 2.039 1_545 S
O163 C167 1.251 . S
O164 Zn145 2.025 . S
O164 C167 1.254 . S
O165 C146 1.246 1_565 S
O165 Zn153 2.034 1_556 S
O166 Zn145 2.024 1_556 S
O166 C146 1.249 . S
C167 O163 1.251 . S
C167 O164 1.254 . S
H168 C141 0.949 . S
H169 C143 0.950 . S
H170 C150 0.949 . S
H171 C152 0.950 . S
C172 O188 1.251 . S
C172 O190 1.254 . S
N173 C174 1.333 . S
N173 C178 1.307 . S
N173 Zn179 2.020 . S
C174 N173 1.333 . S
C174 C175 1.379 . S
C174 H192 0.952 . S
C175 C174 1.379 . S
C175 C176 1.390 . S
C175 H202 0.949 . S
C176 C175 1.390 . S
C176 C177 1.357 . S
C177 C176 1.357 . S
C177 C178 1.370 . S
C177 H203 0.950 . S
C178 N173 1.307 . S
C178 C177 1.370 . S
C178 H196 0.948 . S
Zn179 N173 2.020 . S
Zn179 O188 2.039 . S
Zn179 O194 2.034 . S
Zn179 O198 2.025 . S
Zn179 O200 2.024 . S
C180 O199 1.246 . S
C180 O200 1.249 . S
N181 C182 1.307 . S
N181 C183 1.333 . S
N181 Zn187 2.020 . S
C182 N181 1.307 . S
C182 C186 1.370 . S
C182 H193 0.948 . S
C183 N181 1.333 . S
C183 C184 1.379 . S
C183 H191 0.952 . S
C184 C183 1.379 . S
C184 C185 1.390 . S
C184 H204 0.949 . S
C185 C184 1.390 . S
C185 C186 1.357 . S
C186 C182 1.370 . S
C186 C185 1.357 . S
C186 H205 0.950 . S
Zn187 N181 2.020 . S
Zn187 O190 2.025 . S
Zn187 O195 2.024 . S
Zn187 O197 2.039 . S
Zn187 O199 2.034 . S
O188 C172 1.251 . S
O188 Zn179 2.039 . S
C189 O194 1.246 . S
C189 O195 1.249 . S
O190 C172 1.254 . S
O190 Zn187 2.025 . S
H191 C183 0.952 . S
H192 C174 0.952 . S
H193 C182 0.948 . S
O194 Zn179 2.034 . S
O194 C189 1.246 . S
O195 Zn187 2.024 . S
O195 C189 1.249 . S
H196 C178 0.948 . S
O197 Zn187 2.039 . S
O197 C201 1.251 . S
O198 Zn179 2.025 . S
O198 C201 1.254 . S
O199 C180 1.246 . S
O199 Zn187 2.034 . S
O200 Zn179 2.024 . S
O200 C180 1.249 . S
C201 O197 1.251 . S
C201 O198 1.254 . S
H202 C175 0.949 . S
H203 C177 0.950 . S
H204 C184 0.949 . S
H205 C186 0.950 . S
C206 O222 1.251 . S
C206 O224 1.254 1_554 S
N207 C208 1.333 . S
N207 C212 1.307 1_455 S
N207 Zn213 2.020 . S
C208 N207 1.333 . S
C208 C209 1.379 1_455 S
C208 H226 0.952 . S
C209 C208 1.379 1_655 S
C209 C210 1.390 . S
C209 H236 0.949 . S
C210 C209 1.390 . S
C210 C211 1.357 . S
C211 C210 1.357 . S
C211 C212 1.370 . S
C211 H237 0.950 . S
C212 N207 1.307 1_655 S
C212 C211 1.370 . S
C212 H230 0.948 . S
Zn213 N207 2.020 . S
Zn213 O222 2.039 . S
Zn213 O228 2.034 . S
Zn213 O232 2.025 . S
Zn213 O234 2.024 1_455 S
C214 O233 1.246 1_554 S
C214 O234 1.249 . S
N215 C216 1.307 . S
N215 C217 1.333 . S
N215 Zn221 2.020 . S
C216 N215 1.307 . S
C216 C220 1.370 . S
C216 H227 0.948 . S
C217 N215 1.333 . S
C217 C218 1.379 . S
C217 H225 0.952 . S
C218 C217 1.379 . S
C218 C219 1.390 . S
C218 H238 0.949 . S
C219 C218 1.390 . S
C219 C220 1.357 . S
C220 C216 1.370 . S
C220 C219 1.357 . S
C220 H239 0.950 . S
Zn221 N215 2.020 . S
Zn221 O224 2.025 . S
Zn221 O229 2.024 1_556 S
Zn221 O231 2.039 1_556 S
Zn221 O233 2.034 1_455 S
O222 C206 1.251 . S
O222 Zn213 2.039 . S
C223 O228 1.246 . S
C223 O229 1.249 . S
O224 C206 1.254 1_556 S
O224 Zn221 2.025 . S
H225 C217 0.952 . S
H226 C208 0.952 . S
H227 C216 0.948 . S
O228 Zn213 2.034 . S
O228 C223 1.246 . S
O229 Zn221 2.024 1_554 S
O229 C223 1.249 . S
H230 C212 0.948 . S
O231 Zn221 2.039 1_554 S
O231 C235 1.251 . S
O232 Zn213 2.025 . S
O232 C235 1.254 . S
O233 C214 1.246 1_556 S
O233 Zn221 2.034 1_655 S
O234 Zn213 2.024 1_655 S
O234 C214 1.249 . S
C235 O231 1.251 . S
C235 O232 1.254 . S
H236 C209 0.949 . S
H237 C211 0.950 . S
H238 C218 0.949 . S
H239 C220 0.950 . S
C240 C241 1.387 . S
C240 H244 0.950 . S
C240 C249 1.390 . S
C241 C240 1.387 . S
C241 C243 1.387 . S
H242 C249 0.950 . S
C243 C241 1.387 . S
C243 C245 1.390 . S
C243 H247 0.950 . S
H244 C240 0.950 . S
C245 C243 1.390 . S
C245 C246 1.387 . S
C245 H248 0.950 . S
C246 C245 1.387 . S
C246 C249 1.387 . S
H247 C243 0.950 . S
H248 C245 0.950 . S
C249 C240 1.390 . S
C249 H242 0.950 . S
C249 C246 1.387 . S
C250 C251 1.387 . S
C250 H254 0.950 . S
C250 C259 1.390 . S
C251 C250 1.387 . S
C251 C253 1.387 1_565 S
H252 C259 0.950 . S
C253 C251 1.387 1_545 S
C253 C255 1.390 . S
C253 H257 0.950 . S
H254 C250 0.950 . S
C255 C253 1.390 . S
C255 C256 1.387 1_545 S
C255 H258 0.950 . S
C256 C255 1.387 1_565 S
C256 C259 1.387 . S
H257 C253 0.950 . S
H258 C255 0.950 . S
C259 C250 1.390 . S
C259 H252 0.950 . S
C259 C256 1.387 . S
C260 C261 1.387 . S
C260 H264 0.950 . S
C260 C269 1.390 . S
C261 C260 1.387 . S
C261 C263 1.387 . S
H262 C269 0.950 . S
C263 C261 1.387 . S
C263 C265 1.390 . S
C263 H267 0.950 . S
H264 C260 0.950 . S
C265 C263 1.390 . S
C265 C266 1.387 . S
C265 H268 0.950 . S
C266 C265 1.387 . S
C266 C269 1.387 . S
H267 C263 0.950 . S
H268 C265 0.950 . S
C269 C260 1.390 . S
C269 H262 0.950 . S
C269 C266 1.387 . S
C270 C271 1.387 . S
C270 H274 0.950 . S
C270 C279 1.390 . S
C271 C270 1.387 . S
C271 C273 1.387 . S
H272 C279 0.950 . S
C273 C271 1.387 . S
C273 C275 1.390 . S
C273 H277 0.950 . S
H274 C270 0.950 . S
C275 C273 1.390 . S
C275 C276 1.387 . S
C275 H278 0.950 . S
C276 C275 1.387 . S
C276 C279 1.387 . S
H277 C273 0.950 . S
H278 C275 0.950 . S
C279 C270 1.390 . S
C279 H272 0.950 . S
C279 C276 1.387 . S
C280 C281 1.387 . S
C280 H284 0.950 . S
C280 C289 1.390 . S
C281 C280 1.387 . S
C281 C283 1.387 . S
H282 C289 0.950 . S
C283 C281 1.387 . S
C283 C285 1.390 . S
C283 H287 0.950 . S
H284 C280 0.950 . S
C285 C283 1.390 . S
C285 C286 1.387 . S
C285 H288 0.950 . S
C286 C285 1.387 . S
C286 C289 1.387 . S
H287 C283 0.950 . S
H288 C285 0.950 . S
C289 C280 1.390 . S
C289 H282 0.950 . S
C289 C286 1.387 . S
C290 C291 1.387 . S
C290 H294 0.950 . S
C290 C299 1.390 . S
C291 C290 1.387 . S
C291 C293 1.387 . S
H292 C299 0.950 . S
C293 C291 1.387 . S
C293 C295 1.390 1_565 S
C293 H297 0.950 1_565 S
H294 C290 0.950 . S
C295 C293 1.390 1_545 S
C295 C296 1.387 1_545 S
C295 H298 0.950 . S
C296 C295 1.387 1_565 S
C296 C299 1.387 . S
H297 C293 0.950 1_545 S
H298 C295 0.950 . S
C299 C290 1.390 . S
C299 H292 0.950 . S
C299 C296 1.387 . S
C300 C301 1.387 1_556 S
C300 H304 0.950 . S
C300 C309 1.390 . S
C301 C300 1.387 1_554 S
C301 C303 1.387 . S
H302 C309 0.950 . S
C303 C301 1.387 . S
C303 C305 1.390 . S
C303 H307 0.950 . S
H304 C300 0.950 . S
C305 C303 1.390 . S
C305 C306 1.395 . S
C305 H308 0.950 . S
C306 C305 1.395 . S
C306 C309 1.381 1_554 S
H307 C303 0.950 . S
H308 C305 0.950 . S
C309 C300 1.390 . S
C309 H302 0.950 . S
C309 C306 1.381 1_556 S
C310 C311 1.387 . S
C310 H314 0.950 . S
C310 C319 1.390 . S
C311 C310 1.387 . S
C311 C313 1.387 . S
H312 C319 0.950 . S
C313 C311 1.387 . S
C313 C315 1.390 . S
C313 H317 0.950 . S
H314 C310 0.950 . S
C315 C313 1.390 . S
C315 C316 1.387 . S
C315 H318 0.950 . S
C316 C315 1.387 . S
C316 C319 1.387 . S
H317 C313 0.950 . S
H318 C315 0.950 . S
C319 C310 1.390 . S
C319 H312 0.950 . S
C319 C316 1.387 . S
C320 C321 1.387 . S
C320 H324 0.950 . S
C320 C329 1.390 . S
C321 C320 1.387 . S
C321 C323 1.387 . S
H322 C329 0.950 . S
C323 C321 1.387 . S
C323 C325 1.390 . S
C323 H327 0.950 . S
H324 C320 0.950 . S
C325 C323 1.390 . S
C325 C326 1.387 . S
C325 H328 0.950 . S
C326 C325 1.387 . S
C326 C329 1.387 . S
H327 C323 0.950 . S
H328 C325 0.950 . S
C329 C320 1.390 . S
C329 H322 0.950 . S
C329 C326 1.387 . S
C330 C331 1.387 1_554 S
C330 H334 0.950 . S
C330 C339 1.390 . S
C331 C330 1.387 1_556 S
C331 C333 1.387 . S
H332 C339 0.950 . S
C333 C331 1.387 . S
C333 C335 1.390 . S
C333 H337 0.950 . S
H334 C330 0.950 . S
C335 C333 1.390 . S
C335 C336 1.387 . S
C335 H338 0.950 . S
C336 C335 1.387 . S
C336 C339 1.387 1_556 S
H337 C333 0.950 . S
H338 C335 0.950 . S
C339 C330 1.390 . S
C339 H332 0.950 . S
C339 C336 1.387 1_554 S
C340 C341 1.387 . S
C340 H344 0.950 . S
C340 C349 1.390 . S
C341 C340 1.387 . S
C341 C343 1.387 . S
H342 C349 0.950 . S
C343 C341 1.387 . S
C343 C345 1.390 . S
C343 H347 0.950 . S
H344 C340 0.950 . S
C345 C343 1.390 . S
C345 C346 1.387 . S
C345 H348 0.950 . S
C346 C345 1.387 . S
C346 C349 1.387 . S
H347 C343 0.950 . S
H348 C345 0.950 . S
C349 C340 1.390 . S
C349 H342 0.950 . S
C349 C346 1.387 . S
C350 C351 1.387 . S
C350 H354 0.950 . S
C350 C359 1.390 . S
C351 C350 1.387 . S
C351 C353 1.387 . S
H352 C359 0.950 . S
C353 C351 1.387 . S
C353 C355 1.390 . S
C353 H357 0.950 . S
H354 C350 0.950 . S
C355 C353 1.390 . S
C355 C356 1.387 . S
C355 H358 0.950 . S
C356 C355 1.387 . S
C356 C359 1.387 . S
H357 C353 0.950 . S
H358 C355 0.950 . S
C359 C350 1.390 . S
C359 H352 0.950 . S
C359 C356 1.387 . S
C360 C361 1.387 . S
C360 H364 0.950 1_565 S
C360 C369 1.390 1_565 S
C361 C360 1.387 . S
C361 C363 1.387 . S
H362 C369 0.950 . S
C363 C361 1.387 . S
C363 C365 1.390 1_655 S
C363 H367 0.950 1_655 S
H364 C360 0.950 1_545 S
C365 C363 1.390 1_455 S
C365 C366 1.387 1_455 S
C365 H368 0.950 . S
C366 C365 1.387 1_655 S
C366 C369 1.387 1_565 S
H367 C363 0.950 1_455 S
H368 C365 0.950 . S
C369 C360 1.390 1_545 S
C369 H362 0.950 . S
C369 C366 1.387 1_545 S
C370 C371 1.387 . S
C370 H374 0.950 . S
C370 C379 1.390 . S
C371 C370 1.387 . S
C371 C373 1.387 . S
H372 C379 0.950 . S
C373 C371 1.387 . S
C373 C375 1.390 . S
C373 H377 0.950 . S
H374 C370 0.950 . S
C375 C373 1.390 . S
C375 C376 1.387 . S
C375 H378 0.950 . S
C376 C375 1.387 . S
C376 C379 1.387 . S
H377 C373 0.950 . S
H378 C375 0.950 . S
C379 C370 1.390 . S
C379 H372 0.950 . S
C379 C376 1.387 . S
C380 C381 1.387 . S
C380 H384 0.950 . S
C380 C389 1.390 . S
C381 C380 1.387 . S
C381 C383 1.387 . S
H382 C389 0.950 . S
C383 C381 1.387 . S
C383 C385 1.390 . S
C383 H387 0.950 . S
H384 C380 0.950 . S
C385 C383 1.390 . S
C385 C386 1.387 . S
C385 H388 0.950 . S
C386 C385 1.387 . S
C386 C389 1.387 . S
H387 C383 0.950 . S
H388 C385 0.950 . S
C389 C380 1.390 . S
C389 H382 0.950 . S
C389 C386 1.387 . S
C390 C391 1.387 . S
C390 H394 0.950 . S
C390 C399 1.390 . S
C391 C390 1.387 . S
C391 C393 1.387 . S
H392 C399 0.950 . S
C393 C391 1.387 . S
C393 C395 1.390 . S
C393 H397 0.950 . S
H394 C390 0.950 . S
C395 C393 1.390 . S
C395 C396 1.387 . S
C395 H398 0.950 . S
C396 C395 1.387 . S
C396 C399 1.387 . S
H397 C393 0.950 . S
H398 C395 0.950 . S
C399 C390 1.390 . S
C399 H392 0.950 . S
C399 C396 1.387 . S
C400 C401 1.387 . S
C400 H404 0.950 . S
C400 C409 1.390 . S
C401 C400 1.387 . S
C401 C403 1.387 . S
H402 C409 0.950 1_545 S
C403 C401 1.387 . S
C403 C405 1.390 1_556 S
C403 H407 0.950 1_556 S
H404 C400 0.950 . S
C405 C403 1.390 1_554 S
C405 C406 1.387 1_554 S
C405 H408 0.950 . S
C406 C405 1.387 1_556 S
C406 C409 1.387 . S
H407 C403 0.950 1_554 S
H408 C405 0.950 . S
C409 C400 1.390 . S
C409 H402 0.950 1_565 S
C409 C406 1.387 . S
C410 C411 1.387 . S
C410 H414 0.950 . S
C410 C419 1.390 . S
C411 C410 1.387 . S
C411 C413 1.387 . S
H412 C419 0.950 . S
C413 C411 1.387 . S
C413 C415 1.390 . S
C413 H417 0.950 . S
H414 C410 0.950 . S
C415 C413 1.390 . S
C415 C416 1.387 . S
C415 H418 0.950 . S
C416 C415 1.387 . S
C416 C419 1.387 . S
H417 C413 0.950 . S
H418 C415 0.950 . S
C419 C410 1.390 . S
C419 H412 0.950 . S
C419 C416 1.387 . S
C420 C421 1.387 . S
C420 H424 0.950 . S
C420 C429 1.390 . S
C421 C420 1.387 . S
C421 C423 1.387 . S
H422 C429 0.950 . S
C423 C421 1.387 . S
C423 C425 1.390 . S
C423 H427 0.950 . S
H424 C420 0.950 . S
C425 C423 1.390 . S
C425 C426 1.387 . S
C425 H428 0.946 1_554 S
C426 C425 1.387 . S
C426 C429 1.387 . S
H427 C423 0.950 . S
H428 C425 0.946 1_556 S
C429 C420 1.390 . S
C429 H422 0.950 . S
C429 C426 1.387 . S
C430 C431 1.387 . S
C430 H434 0.950 . S
C430 C439 1.390 . S
C431 C430 1.387 . S
C431 C433 1.387 . S
H432 C439 0.950 . S
C433 C431 1.387 . S
C433 C435 1.390 . S
C433 H437 0.950 . S
H434 C430 0.950 . S
C435 C433 1.390 . S
C435 C436 1.387 . S
C435 H438 0.950 . S
C436 C435 1.387 . S
C436 C439 1.387 . S
H437 C433 0.950 . S
H438 C435 0.950 . S
C439 C430 1.390 . S
C439 H432 0.950 . S
C439 C436 1.387 . S
C440 C441 1.387 1_554 S
C440 H444 0.950 . S
C440 C449 1.390 . S
C441 C440 1.387 1_556 S
C441 C443 1.387 1_655 S
H442 C449 0.950 . S
C443 C441 1.387 1_455 S
C443 C445 1.390 . S
C443 H447 0.950 . S
H444 C440 0.950 . S
C445 C443 1.390 . S
C445 C446 1.387 . S
C445 H448 0.950 . S
C446 C445 1.387 . S
C446 C449 1.387 1_456 S
H447 C443 0.950 . S
H448 C445 0.950 . S
C449 C440 1.390 . S
C449 H442 0.950 . S
C449 C446 1.387 1_654 S
C450 C451 1.387 . S
C450 H454 0.950 . S
C450 C459 1.390 . S
C451 C450 1.387 . S
C451 C453 1.387 . S
H452 C459 0.950 . S
C453 C451 1.387 . S
C453 C455 1.390 . S
C453 H457 0.950 . S
H454 C450 0.950 . S
C455 C453 1.390 . S
C455 C456 1.387 . S
C455 H458 0.950 . S
C456 C455 1.387 . S
C456 C459 1.387 . S
H457 C453 0.950 . S
H458 C455 0.950 . S
C459 C450 1.390 . S
C459 H452 0.950 . S
C459 C456 1.387 . S
C460 C461 1.387 . S
C460 H464 0.950 . S
C460 C469 1.390 . S
C461 C460 1.387 . S
C461 C463 1.387 . S
H462 C469 0.950 . S
C463 C461 1.387 . S
C463 C465 1.390 . S
C463 H467 0.950 . S
H464 C460 0.950 . S
C465 C463 1.390 . S
C465 C466 1.387 . S
C465 H468 0.950 . S
C466 C465 1.387 . S
C466 C469 1.387 . S
H467 C463 0.950 . S
H468 C465 0.950 . S
C469 C460 1.390 . S
C469 H462 0.950 . S
C469 C466 1.387 . S
C470 C471 1.387 . S
C470 H474 0.950 . S
C470 C479 1.390 . S
C471 C470 1.387 . S
C471 C473 1.387 . S
H472 C479 0.950 . S
C473 C471 1.387 . S
C473 C475 1.390 . S
C473 H477 0.950 . S
H474 C470 0.950 . S
C475 C473 1.390 . S
C475 C476 1.387 . S
C475 H478 0.950 . S
C476 C475 1.387 . S
C476 C479 1.387 . S
H477 C473 0.950 . S
H478 C475 0.950 . S
C479 C470 1.390 . S
C479 H472 0.950 . S
C479 C476 1.387 . S
C241 C9 2.692 . S
C246 C104 2.702 . S
C251 C21 2.264 . S
C256 C146 2.275 1_565 S
C266 C176 0.867 . S
C261 C30 0.867 . S
C271 C43 0.869 . S
C276 C210 0.904 . S
C286 C167 1.761 . S
C281 C4 1.765 . S
C296 C121 2.243 1_565 S
C291 C22 2.234 . S
C306 C214 1.049 . S
C301 C34 1.022 1_554 S
C316 C180 1.218 . S
C311 C48 1.183 . S
C321 C8 2.299 . S
C326 C235 2.313 . S
C336 C142 1.249 . S
C331 C35 1.247 . S
C341 C47 1.184 . S
C346 C117 1.222 . S
C351 C17 1.966 . S
C356 C201 1.997 . S
C366 C133 2.335 1_565 S
C361 C60 2.323 . S
C371 C74 2.529 . S
C376 C155 2.546 . S
C381 C82 0.901 . S
C386 C185 0.874 . S
C391 C100 1.269 . S
C396 C219 1.291 . S
C401 C61 2.094 . S
C406 C138 2.110 1_556 S
C416 C112 1.963 . S
C411 C73 1.938 . S
C426 C223 1.450 . S
C421 C87 1.456 . S
C436 C189 0.960 . S
C431 C95 0.897 . S
C441 C56 2.160 . S
C446 C206 2.280 1_556 S
C456 C151 1.315 . S
C451 C86 1.279 . S
C466 C108 1.116 . S
C461 C99 1.096 . S
C471 C69 2.103 . S
C476 C172 2.104 . S
