# Generated by pormake.
# Topology eea, (3,6)-cn, num edge types: 1
# Building blocks:
#     Node 0, Type 0, BuildingBlock: CUQRIR_clean_linker_1, # of connection points: 3
#     Node 1, Type 0, BuildingBlock: CUQRIR_clean_linker_1, # of connection points: 3
#     Node 2, Type 0, BuildingBlock: CUQRIR_clean_linker_1, # of connection points: 3
#     Node 3, Type 0, BuildingBlock: CUQRIR_clean_linker_1, # of connection points: 3
#     Node 4, Type 0, BuildingBlock: CUQRIR_clean_linker_1, # of connection points: 3
#     Node 5, Type 0, BuildingBlock: CUQRIR_clean_linker_1, # of connection points: 3
#     Node 6, Type 0, BuildingBlock: CUQRIR_clean_linker_1, # of connection points: 3
#     Node 7, Type 0, BuildingBlock: CUQRIR_clean_linker_1, # of connection points: 3
#     Node 8, Type 0, BuildingBlock: CUQRIR_clean_linker_1, # of connection points: 3
#     Node 9, Type 0, BuildingBlock: CUQRIR_clean_linker_1, # of connection points: 3
#     Node 10, Type 0, BuildingBlock: CUQRIR_clean_linker_1, # of connection points: 3
#     Node 11, Type 0, BuildingBlock: CUQRIR_clean_linker_1, # of connection points: 3
#     Node 12, Type 0, BuildingBlock: CUQRIR_clean_linker_1, # of connection points: 3
#     Node 13, Type 0, BuildingBlock: CUQRIR_clean_linker_1, # of connection points: 3
#     Node 14, Type 0, BuildingBlock: CUQRIR_clean_linker_1, # of connection points: 3
#     Node 15, Type 0, BuildingBlock: CUQRIR_clean_linker_1, # of connection points: 3
#     Node 16, Type 0, BuildingBlock: CUQRIR_clean_linker_1, # of connection points: 3
#     Node 17, Type 0, BuildingBlock: CUQRIR_clean_linker_1, # of connection points: 3
#     Node 18, Type 1, BuildingBlock: CUKXOW_clean_sbu_0, # of connection points: 6
#     Node 19, Type 1, BuildingBlock: CUKXOW_clean_sbu_0, # of connection points: 6
#     Node 20, Type 1, BuildingBlock: CUKXOW_clean_sbu_0, # of connection points: 6
#     Node 21, Type 1, BuildingBlock: CUKXOW_clean_sbu_0, # of connection points: 6
#     Node 22, Type 1, BuildingBlock: CUKXOW_clean_sbu_0, # of connection points: 6
#     Node 23, Type 1, BuildingBlock: CUKXOW_clean_sbu_0, # of connection points: 6
#     Node 24, Type 1, BuildingBlock: CUKXOW_clean_sbu_0, # of connection points: 6
#     Node 25, Type 1, BuildingBlock: CUKXOW_clean_sbu_0, # of connection points: 6
#     Node 26, Type 1, BuildingBlock: CUKXOW_clean_sbu_0, # of connection points: 6
#     Edge 27, Type (0, 1), BuildingBlock: ZUJKAS_clean_linker_0, # of connection points: 2
#     Edge 28, Type (0, 1), BuildingBlock: ZUJKAS_clean_linker_0, # of connection points: 2
#     Edge 29, Type (0, 1), BuildingBlock: ZUJKAS_clean_linker_0, # of connection points: 2
#     Edge 30, Type (0, 1), BuildingBlock: ZUJKAS_clean_linker_0, # of connection points: 2
#     Edge 31, Type (0, 1), BuildingBlock: ZUJKAS_clean_linker_0, # of connection points: 2
#     Edge 32, Type (0, 1), BuildingBlock: ZUJKAS_clean_linker_0, # of connection points: 2
#     Edge 33, Type (0, 1), BuildingBlock: ZUJKAS_clean_linker_0, # of connection points: 2
#     Edge 34, Type (0, 1), BuildingBlock: ZUJKAS_clean_linker_0, # of connection points: 2
#     Edge 35, Type (0, 1), BuildingBlock: ZUJKAS_clean_linker_0, # of connection points: 2
#     Edge 36, Type (0, 1), BuildingBlock: ZUJKAS_clean_linker_0, # of connection points: 2
#     Edge 37, Type (0, 1), BuildingBlock: ZUJKAS_clean_linker_0, # of connection points: 2
#     Edge 38, Type (0, 1), BuildingBlock: ZUJKAS_clean_linker_0, # of connection points: 2
#     Edge 39, Type (0, 1), BuildingBlock: ZUJKAS_clean_linker_0, # of connection points: 2
#     Edge 40, Type (0, 1), BuildingBlock: ZUJKAS_clean_linker_0, # of connection points: 2
#     Edge 41, Type (0, 1), BuildingBlock: ZUJKAS_clean_linker_0, # of connection points: 2
#     Edge 42, Type (0, 1), BuildingBlock: ZUJKAS_clean_linker_0, # of connection points: 2
#     Edge 43, Type (0, 1), BuildingBlock: ZUJKAS_clean_linker_0, # of connection points: 2
#     Edge 44, Type (0, 1), BuildingBlock: ZUJKAS_clean_linker_0, # of connection points: 2
#     Edge 45, Type (0, 1), BuildingBlock: ZUJKAS_clean_linker_0, # of connection points: 2
#     Edge 46, Type (0, 1), BuildingBlock: ZUJKAS_clean_linker_0, # of connection points: 2
#     Edge 47, Type (0, 1), BuildingBlock: ZUJKAS_clean_linker_0, # of connection points: 2
#     Edge 48, Type (0, 1), BuildingBlock: ZUJKAS_clean_linker_0, # of connection points: 2
#     Edge 49, Type (0, 1), BuildingBlock: ZUJKAS_clean_linker_0, # of connection points: 2
#     Edge 50, Type (0, 1), BuildingBlock: ZUJKAS_clean_linker_0, # of connection points: 2
#     Edge 51, Type (0, 1), BuildingBlock: ZUJKAS_clean_linker_0, # of connection points: 2
#     Edge 52, Type (0, 1), BuildingBlock: ZUJKAS_clean_linker_0, # of connection points: 2
#     Edge 53, Type (0, 1), BuildingBlock: ZUJKAS_clean_linker_0, # of connection points: 2
#     Edge 54, Type (0, 1), BuildingBlock: ZUJKAS_clean_linker_0, # of connection points: 2
#     Edge 55, Type (0, 1), BuildingBlock: ZUJKAS_clean_linker_0, # of connection points: 2
#     Edge 56, Type (0, 1), BuildingBlock: ZUJKAS_clean_linker_0, # of connection points: 2
#     Edge 57, Type (0, 1), BuildingBlock: ZUJKAS_clean_linker_0, # of connection points: 2
#     Edge 58, Type (0, 1), BuildingBlock: ZUJKAS_clean_linker_0, # of connection points: 2
#     Edge 59, Type (0, 1), BuildingBlock: ZUJKAS_clean_linker_0, # of connection points: 2
#     Edge 60, Type (0, 1), BuildingBlock: ZUJKAS_clean_linker_0, # of connection points: 2
#     Edge 61, Type (0, 1), BuildingBlock: ZUJKAS_clean_linker_0, # of connection points: 2
#     Edge 62, Type (0, 1), BuildingBlock: ZUJKAS_clean_linker_0, # of connection points: 2
#     Edge 63, Type (0, 1), BuildingBlock: ZUJKAS_clean_linker_0, # of connection points: 2
#     Edge 64, Type (0, 1), BuildingBlock: ZUJKAS_clean_linker_0, # of connection points: 2
#     Edge 65, Type (0, 1), BuildingBlock: ZUJKAS_clean_linker_0, # of connection points: 2
#     Edge 66, Type (0, 1), BuildingBlock: ZUJKAS_clean_linker_0, # of connection points: 2
#     Edge 67, Type (0, 1), BuildingBlock: ZUJKAS_clean_linker_0, # of connection points: 2
#     Edge 68, Type (0, 1), BuildingBlock: ZUJKAS_clean_linker_0, # of connection points: 2
#     Edge 69, Type (0, 1), BuildingBlock: ZUJKAS_clean_linker_0, # of connection points: 2
#     Edge 70, Type (0, 1), BuildingBlock: ZUJKAS_clean_linker_0, # of connection points: 2
#     Edge 71, Type (0, 1), BuildingBlock: ZUJKAS_clean_linker_0, # of connection points: 2
#     Edge 72, Type (0, 1), BuildingBlock: ZUJKAS_clean_linker_0, # of connection points: 2
#     Edge 73, Type (0, 1), BuildingBlock: ZUJKAS_clean_linker_0, # of connection points: 2
#     Edge 74, Type (0, 1), BuildingBlock: ZUJKAS_clean_linker_0, # of connection points: 2
#     Edge 75, Type (0, 1), BuildingBlock: ZUJKAS_clean_linker_0, # of connection points: 2
#     Edge 76, Type (0, 1), BuildingBlock: ZUJKAS_clean_linker_0, # of connection points: 2
#     Edge 77, Type (0, 1), BuildingBlock: ZUJKAS_clean_linker_0, # of connection points: 2
#     Edge 78, Type (0, 1), BuildingBlock: ZUJKAS_clean_linker_0, # of connection points: 2
#     Edge 79, Type (0, 1), BuildingBlock: ZUJKAS_clean_linker_0, # of connection points: 2
#     Edge 80, Type (0, 1), BuildingBlock: ZUJKAS_clean_linker_0, # of connection points: 2
# Relax obj value: 0.066
# Max RMSD: 0.205
# Mean RMSD: 0.142
data_MOF--net-eea--node1-CUKXOW_clean_sbu_0--node2-CUQRIR_clean_linker_1--edge1-ZUJKAS_clean_linker_0
_symmetry_space_group_name_H-M    P1
_symmetry_Int_Tables_number       1
_symmetry_cell_setting            triclinic
loop_
_symmetry_equiv_pos_as_xyz
'x, y, z'
_cell_length_a     70.126286
_cell_length_b     68.572979
_cell_length_c     63.622454
_cell_angle_alpha  86.930813
_cell_angle_beta   93.070021
_cell_angle_gamma 118.96399
loop_
_atom_site_label
_atom_site_type_symbol
_atom_site_fract_x
_atom_site_fract_y
_atom_site_fract_z
_atom_type_partial_charge
C0 C 0.22916 0.12074 0.42285 0.0
N1 N 0.23736 0.13871 0.4353 0.0
N2 N 0.2359 0.10604 0.43009 0.0
C3 C 0.21586 0.11822 0.40284 0.0
C4 C 0.24848 0.1157 0.44737 0.0
N5 N 0.24962 0.13567 0.45041 0.0
C6 C 0.25799 0.10465 0.46233 0.0
H7 H 0.19838 0.11036 0.40669 0.0
H8 H 0.21791 0.10745 0.39178 0.0
H9 H 0.22057 0.13472 0.39502 0.0
H10 H 0.27504 0.11022 0.45805 0.0
H11 H 0.2486 0.08623 0.46143 0.0
H12 H 0.25813 0.10931 0.47879 0.0
C13 C 0.89594 0.12561 0.43428 0.0
N14 N 0.90655 0.1421 0.44827 0.0
N15 N 0.87671 0.10952 0.44193 0.0
C16 C 0.9053 0.12423 0.41401 0.0
C17 C 0.87609 0.11683 0.46113 0.0
N18 N 0.89433 0.13636 0.46515 0.0
C19 C 0.85679 0.106 0.47521 0.0
H20 H 0.90033 0.13256 0.40114 0.0
H21 H 0.89919 0.10662 0.40992 0.0
H22 H 0.92338 0.13276 0.41518 0.0
H23 H 0.85905 0.09452 0.48675 0.0
H24 H 0.84141 0.09635 0.46595 0.0
H25 H 0.85535 0.1187 0.48409 0.0
C26 C 0.92887 0.84167 0.45564 0.0
N27 N 0.93678 0.83179 0.46979 0.0
N28 N 0.91157 0.84225 0.46327 0.0
C29 C 0.93636 0.84832 0.43342 0.0
C30 C 0.90918 0.83225 0.48261 0.0
N31 N 0.92462 0.82597 0.48667 0.0
C32 C 0.8897 0.82531 0.496 0.0
H33 H 0.95421 0.85476 0.4328 0.0
H34 H 0.93218 0.86115 0.42687 0.0
H35 H 0.92804 0.83342 0.42354 0.0
H36 H 0.87839 0.83108 0.48903 0.0
H37 H 0.89527 0.83238 0.51184 0.0
H38 H 0.88082 0.80687 0.49805 0.0
C39 C 0.10663 0.21661 0.60329 0.0
N40 N 0.12289 0.23158 0.59108 0.0
N41 N 0.08864 0.21897 0.60008 0.0
C42 C 0.10916 0.20167 0.62015 0.0
C43 C 0.09455 0.236 0.58574 0.0
N44 N 0.11546 0.24385 0.58044 0.0
C45 C 0.07959 0.24446 0.57659 0.0
H46 H 0.1071 0.18643 0.6128 0.0
H47 H 0.09681 0.19659 0.6324 0.0
H48 H 0.12567 0.21014 0.62776 0.0
H49 H 0.08152 0.25852 0.58597 0.0
H50 H 0.06232 0.23115 0.57716 0.0
H51 H 0.08364 0.25053 0.56005 0.0
C52 C 0.79289 0.90379 0.61904 0.0
N53 N 0.78612 0.88684 0.60556 0.0
N54 N 0.7882 0.91977 0.61094 0.0
C55 C 0.80534 0.90537 0.63944 0.0
C56 C 0.77821 0.91177 0.59206 0.0
N57 N 0.77708 0.89189 0.58876 0.0
C58 C 0.76912 0.92314 0.57699 0.0
H59 H 0.7936 0.89746 0.65228 0.0
H60 H 0.81652 0.92302 0.64325 0.0
H61 H 0.8149 0.89644 0.6387 0.0
H62 H 0.78189 0.93407 0.56582 0.0
H63 H 0.76405 0.93349 0.58552 0.0
H64 H 0.75492 0.91092 0.56767 0.0
C65 C 0.12673 0.92305 0.61322 0.0
N66 N 0.11692 0.90512 0.60069 0.0
N67 N 0.14591 0.93883 0.60517 0.0
C68 C 0.11655 0.92613 0.63211 0.0
C69 C 0.14731 0.92982 0.58723 0.0
N70 N 0.12964 0.90959 0.58438 0.0
C71 C 0.16673 0.93988 0.57329 0.0
H72 H 0.12193 0.94404 0.63418 0.0
H73 H 0.12163 0.91961 0.64641 0.0
H74 H 0.09849 0.91688 0.63054 0.0
H75 H 0.18195 0.95053 0.58237 0.0
H76 H 0.16424 0.95024 0.5606 0.0
H77 H 0.16862 0.9267 0.56579 0.0
C78 C 0.89002 0.45082 0.75553 0.0
N79 N 0.89819 0.46883 0.7679 0.0
N80 N 0.89647 0.43599 0.76309 0.0
C81 C 0.87703 0.44838 0.73532 0.0
C82 C 0.90888 0.44565 0.78048 0.0
N83 N 0.91011 0.46569 0.78328 0.0
C84 C 0.91823 0.43465 0.79567 0.0
H85 H 0.8595 0.44065 0.73893 0.0
H86 H 0.87916 0.43753 0.72442 0.0
H87 H 0.88196 0.46489 0.72745 0.0
H88 H 0.9353 0.44014 0.79153 0.0
H89 H 0.9088 0.41622 0.79489 0.0
H90 H 0.91832 0.43949 0.81206 0.0
C91 C 0.56943 0.45788 0.77217 0.0
N92 N 0.57873 0.4744 0.78624 0.0
N93 N 0.54926 0.44231 0.77816 0.0
C94 C 0.57966 0.45779 0.75203 0.0
C95 C 0.54665 0.44996 0.79637 0.0
N96 N 0.56449 0.46948 0.80129 0.0
C97 C 0.52685 0.43797 0.80966 0.0
H98 H 0.57934 0.47068 0.74094 0.0
H99 H 0.57092 0.44143 0.74445 0.0
H100 H 0.59699 0.46224 0.75518 0.0
H101 H 0.51867 0.41973 0.80738 0.0
H102 H 0.51515 0.44406 0.80492 0.0
H103 H 0.53133 0.4413 0.8266 0.0
C104 C 0.58133 0.1521 0.80018 0.0
N105 N 0.59142 0.14125 0.80954 0.0
N106 N 0.56343 0.14786 0.81075 0.0
C107 C 0.58891 0.16693 0.78071 0.0
C108 C 0.56308 0.13413 0.82701 0.0
N109 N 0.58026 0.13032 0.8264 0.0
C110 C 0.54452 0.1222 0.84185 0.0
H111 H 0.58357 0.17976 0.78051 0.0
H112 H 0.5817 0.15674 0.76656 0.0
H113 H 0.60693 0.17519 0.7799 0.0
H114 H 0.52906 0.12067 0.83482 0.0
H115 H 0.54855 0.13185 0.85639 0.0
H116 H 0.54203 0.10528 0.84631 0.0
C117 C 0.75203 0.51408 0.91645 0.0
N118 N 0.76933 0.52517 0.904 0.0
N119 N 0.73384 0.513 0.90693 0.0
C120 C 0.75361 0.50772 0.93922 0.0
C121 C 0.74078 0.52365 0.88807 0.0
N122 N 0.76235 0.5311 0.88628 0.0
C123 C 0.72735 0.53015 0.87304 0.0
H124 H 0.76731 0.50403 0.94206 0.0
H125 H 0.73816 0.49298 0.94402 0.0
H126 H 0.75654 0.52183 0.94909 0.0
H127 H 0.70971 0.52015 0.87625 0.0
H128 H 0.73005 0.52776 0.85658 0.0
H129 H 0.73257 0.54809 0.8747 0.0
C130 C 0.45761 0.24244 0.9564 0.0
N131 N 0.44949 0.22499 0.94335 0.0
N132 N 0.45058 0.25713 0.95006 0.0
C133 C 0.47112 0.2444 0.97616 0.0
C134 C 0.43783 0.24796 0.93274 0.0
N135 N 0.43694 0.22831 0.9288 0.0
C136 C 0.4276 0.25902 0.91876 0.0
H137 H 0.46931 0.25492 0.98769 0.0
H138 H 0.48854 0.25224 0.97207 0.0
H139 H 0.46638 0.22771 0.98354 0.0
H140 H 0.43648 0.27738 0.92032 0.0
H141 H 0.4105 0.25262 0.92338 0.0
H142 H 0.42738 0.25512 0.90201 0.0
C143 C 0.7912 0.25134 0.94977 0.0
N144 N 0.78178 0.2336 0.93707 0.0
N145 N 0.8121 0.26524 0.94441 0.0
C146 C 0.7805 0.25434 0.96828 0.0
C147 C 0.81503 0.25527 0.92799 0.0
N148 N 0.79671 0.23591 0.92368 0.0
C149 C 0.83513 0.26547 0.91499 0.0
H150 H 0.7713 0.26313 0.9628 0.0
H151 H 0.79282 0.26443 0.98045 0.0
H152 H 0.76885 0.23796 0.97541 0.0
H153 H 0.84623 0.25907 0.9211 0.0
H154 H 0.8439 0.28391 0.91587 0.0
H155 H 0.83088 0.26094 0.89825 0.0
C156 C 0.55769 0.7913 0.08645 0.0
N157 N 0.56553 0.80912 0.09902 0.0
N158 N 0.56466 0.77679 0.0937 0.0
C159 C 0.54459 0.78878 0.0663 0.0
C160 C 0.577 0.78641 0.11109 0.0
N161 N 0.57772 0.80614 0.11421 0.0
C162 C 0.58706 0.77579 0.12589 0.0
H163 H 0.52706 0.78082 0.06998 0.0
H164 H 0.54684 0.7781 0.05529 0.0
H165 H 0.5493 0.80529 0.05851 0.0
H166 H 0.57811 0.75736 0.12494 0.0
H167 H 0.58717 0.78034 0.14239 0.0
H168 H 0.60418 0.78191 0.12151 0.0
C169 C 0.22384 0.79236 0.09696 0.0
N170 N 0.23519 0.80872 0.11091 0.0
N171 N 0.20559 0.77573 0.10567 0.0
C172 C 0.23137 0.79176 0.07542 0.0
C173 C 0.20626 0.78254 0.12542 0.0
N174 N 0.22429 0.80244 0.12867 0.0
C175 C 0.18887 0.77013 0.1413 0.0
H176 H 0.22542 0.80049 0.06393 0.0
H177 H 0.22479 0.77433 0.07046 0.0
H178 H 0.24944 0.80031 0.07515 0.0
H179 H 0.19279 0.75828 0.15057 0.0
H180 H 0.17266 0.7605 0.13336 0.0
H181 H 0.18806 0.78161 0.15241 0.0
C182 C 0.23772 0.46807 0.11495 0.0
N183 N 0.24701 0.45754 0.1265 0.0
N184 N 0.21644 0.45925 0.11955 0.0
C185 C 0.2487 0.48517 0.09757 0.0
C186 C 0.21305 0.44287 0.13409 0.0
N187 N 0.23156 0.4417 0.1381 0.0
C188 C 0.19186 0.42835 0.14476 0.0
H189 H 0.23667 0.48505 0.08546 0.0
H190 H 0.26079 0.48212 0.08986 0.0
H191 H 0.25741 0.50196 0.1044 0.0
H192 H 0.18285 0.41248 0.13635 0.0
H193 H 0.18161 0.43662 0.14452 0.0
H194 H 0.19487 0.42428 0.1613 0.0
C195 C 0.42504 0.85754 0.24493 0.0
N196 N 0.44271 0.87112 0.23355 0.0
N197 N 0.4081 0.8612 0.23939 0.0
C198 C 0.42566 0.8439 0.26404 0.0
C199 C 0.41615 0.87748 0.22423 0.0
N200 N 0.43716 0.88362 0.2208 0.0
C201 C 0.40423 0.88916 0.21454 0.0
H202 H 0.43258 0.83312 0.25998 0.0
H203 H 0.40921 0.83327 0.27038 0.0
H204 H 0.43648 0.85526 0.27641 0.0
H205 H 0.38632 0.87802 0.21482 0.0
H206 H 0.40925 0.89474 0.19809 0.0
H207 H 0.40839 0.90411 0.2237 0.0
C208 C 0.12647 0.57182 0.28645 0.0
N209 N 0.11963 0.55436 0.27352 0.0
N210 N 0.12285 0.58812 0.27724 0.0
C211 C 0.13847 0.57379 0.30723 0.0
C212 C 0.11365 0.57992 0.25819 0.0
N213 N 0.11199 0.55965 0.25583 0.0
C214 C 0.10476 0.59089 0.24239 0.0
H215 H 0.12651 0.56664 0.31995 0.0
H216 H 0.14995 0.5915 0.31059 0.0
H217 H 0.14771 0.56444 0.30733 0.0
H218 H 0.11764 0.60142 0.23115 0.0
H219 H 0.0996 0.60155 0.25025 0.0
H220 H 0.09062 0.57828 0.23325 0.0
C221 C 0.4614 0.5834 0.28533 0.0
N222 N 0.45191 0.5655 0.27276 0.0
N223 N 0.48181 0.59793 0.27904 0.0
C224 C 0.45149 0.58594 0.30468 0.0
C225 C 0.48442 0.58824 0.26224 0.0
N226 N 0.4664 0.56842 0.25856 0.0
C227 C 0.50389 0.59905 0.24839 0.0
H228 H 0.44132 0.59391 0.30006 0.0
H229 H 0.4643 0.59664 0.3162 0.0
H230 H 0.44092 0.56945 0.3123 0.0
H231 H 0.51568 0.59327 0.25378 0.0
H232 H 0.51215 0.61749 0.24923 0.0
H233 H 0.49901 0.59441 0.23175 0.0
Tb234 Tb 0.53347 0.03692 0.0197 0.0
C235 C 0.52153 0.98615 0.03089 0.0
Tb236 Tb 0.48469 1.00013 0.02486 0.0
O237 O 0.534 0.05193 0.04937 0.0
O238 O 0.51265 0.0184 0.04434 0.0
O239 O 0.53631 1.00628 0.02378 0.0
C240 C 0.44482 0.9732 0.03965 0.0
O241 O 0.50094 0.98076 0.03403 0.0
C242 C 0.50161 1.00433 0.98816 0.0
C243 C 0.49679 0.05104 0.01454 0.0
O244 O 0.44887 0.982 0.02069 0.0
O245 O 0.46316 0.97958 0.05007 0.0
O246 O 0.48584 0.98549 0.99508 0.0
O247 O 0.50529 0.01927 1.00072 0.0
O248 O 0.48238 0.03117 0.02259 0.0
O249 O 0.51705 0.05609 0.01019 0.0
C250 C 0.57318 0.06274 0.00417 0.0
O251 O 0.56865 0.05956 0.02401 0.0
O252 O 0.55539 0.05126 0.99316 0.0
C253 C 0.51725 0.03405 0.05656 0.0
Tb254 Tb 0.98673 0.53184 0.02248 0.0
C255 C 0.03665 0.56799 0.02762 0.0
Tb256 Tb 0.02342 0.51816 0.01822 0.0
O257 O 0.98679 0.53078 0.05755 0.0
O258 O 0.00747 0.52451 0.04126 0.0
O259 O 0.01664 0.56427 0.02185 0.0
C260 C 0.05089 0.50231 0.0267 0.0
O261 O 0.04184 0.55173 0.0301 0.0
C262 C 0.0103 0.5311 0.98311 0.0
C263 C 0.9734 0.48065 0.01529 0.0
O264 O 0.05341 0.51742 0.01228 0.0
O265 O 0.03273 0.49589 0.03611 0.0
O266 O 0.02919 0.53189 0.9857 0.0
O267 O 0.99938 0.52101 0.99895 0.0
O268 O 0.99424 0.48532 0.01647 0.0
O269 O 0.96719 0.49619 0.01604 0.0
C270 C 0.95784 0.54482 0.01 0.0
O271 O 0.9545 0.52899 0.02393 0.0
O272 O 0.97763 0.55365 1.0034 0.0
C273 C 1.00247 0.52567 0.05955 0.0
Tb274 Tb 0.48596 0.50742 0.03057 0.0
C275 C 0.50009 0.47188 0.02261 0.0
Tb276 Tb 0.53485 0.52317 0.02985 0.0
O277 O 0.48112 0.49884 0.99732 0.0
O278 O 0.511 0.52398 0.00868 0.0
O279 O 0.48416 0.47499 0.02917 0.0
C280 C 0.57393 0.53041 0.01922 0.0
O281 O 0.52018 0.48855 0.01997 0.0
C282 C 0.51922 0.51847 0.06733 0.0
C283 C 0.52068 0.55907 0.0359 0.0
O284 O 0.56337 0.51846 0.03539 0.0
O285 O 0.56272 0.53876 0.00941 0.0
O286 O 0.53928 0.53249 0.06282 0.0
O287 O 0.50983 0.50657 0.05166 0.0
O288 O 0.53658 0.5557 0.02957 0.0
O289 O 0.50064 0.54247 0.0392 0.0
C290 C 0.44688 0.49671 0.0443 0.0
O291 O 0.45581 0.50976 0.02805 0.0
O292 O 0.45976 0.48957 0.05242 0.0
C293 C 0.50136 0.51238 0.99289 0.0
Tb294 Tb 0.20523 0.36776 0.35745 0.0
C295 C 0.19315 0.31717 0.37011 0.0
Tb296 Tb 0.15637 0.33127 0.36147 0.0
O297 O 0.20533 0.38096 0.38818 0.0
O298 O 0.18417 0.34793 0.38141 0.0
O299 O 0.20815 0.33716 0.36282 0.0
C300 C 0.11603 0.30595 0.37598 0.0
O301 O 0.17266 0.31238 0.37324 0.0
C302 C 0.17362 0.33623 0.32477 0.0
C303 C 0.16826 0.38159 0.34802 0.0
O304 O 0.12357 0.30222 0.35931 0.0
O305 O 0.1311 0.32417 0.38424 0.0
O306 O 0.15705 0.31766 0.33104 0.0
O307 O 0.17755 0.35096 0.33768 0.0
O308 O 0.15331 0.3617 0.35551 0.0
O309 O 0.1888 0.3864 0.34515 0.0
C310 C 0.24569 0.39366 0.3436 0.0
O311 O 0.23719 0.39784 0.35923 0.0
O312 O 0.23152 0.37462 0.33598 0.0
C313 C 0.18863 0.36263 0.39457 0.0
Tb314 Tb 0.6588 0.86629 0.35243 0.0
C315 C 0.70741 0.90189 0.36155 0.0
Tb316 Tb 0.69347 0.85124 0.35256 0.0
O317 O 0.66387 0.87302 0.38609 0.0
O318 O 0.67034 0.8493 0.37375 0.0
O319 O 0.68774 0.89878 0.35553 0.0
C320 C 0.72628 0.84304 0.36233 0.0
O321 O 0.71233 0.88545 0.36329 0.0
C322 C 0.67905 0.85645 0.31514 0.0
C323 C 0.64488 0.81517 0.34494 0.0
O324 O 0.7264 0.85701 0.34773 0.0
O325 O 0.70758 0.83346 0.37129 0.0
O326 O 0.68786 0.84375 0.31915 0.0
O327 O 0.68149 0.86774 0.33108 0.0
O328 O 0.66455 0.81857 0.35146 0.0
O329 O 0.64004 0.8317 0.34226 0.0
C330 C 0.62817 0.87685 0.33941 0.0
O331 O 0.62556 0.86123 0.3533 0.0
O332 O 0.6481 0.88675 0.33323 0.0
C333 C 0.6724 0.86001 0.39 0.0
Tb334 Tb 0.15014 0.83647 0.3605 0.0
C335 C 0.16293 0.79971 0.35258 0.0
Tb336 Tb 0.19881 0.84978 0.36243 0.0
O337 O 0.14661 0.83004 0.32681 0.0
O338 O 0.17669 0.85257 0.34012 0.0
O339 O 0.14701 0.80349 0.35795 0.0
C340 C 0.23803 0.8562 0.35337 0.0
O341 O 0.18354 0.81562 0.35149 0.0
C342 C 0.18175 0.84486 0.39918 0.0
C343 C 0.18635 0.887 0.36898 0.0
O344 O 0.22553 0.84208 0.36748 0.0
O345 O 0.22864 0.86704 0.34471 0.0
O346 O 0.20249 0.85679 0.39599 0.0
O347 O 0.17231 0.83408 0.38287 0.0
O348 O 0.20202 0.88296 0.36324 0.0
O349 O 0.16579 0.87098 0.37097 0.0
C350 C 0.11041 0.82697 0.3715 0.0
O351 O 0.12275 0.84342 0.35899 0.0
O352 O 0.12029 0.8157 0.37746 0.0
C353 C 0.16736 0.84214 0.32364 0.0
Tb354 Tb 0.87343 0.70016 0.68583 0.0
C355 C 0.86068 0.65146 0.70304 0.0
Tb356 Tb 0.82449 0.66723 0.69436 0.0
O357 O 0.8818 0.7023 0.71942 0.0
O358 O 0.85055 0.69521 0.70886 0.0
O359 O 0.87597 0.67007 0.6939 0.0
C360 C 0.78633 0.63908 0.71214 0.0
O361 O 0.84038 0.64764 0.70544 0.0
C362 C 0.83644 0.67013 0.65522 0.0
C363 C 0.83741 0.71523 0.67731 0.0
O364 O 0.80548 0.64298 0.71922 0.0
O365 O 0.78864 0.65096 0.69493 0.0
O366 O 0.81655 0.66366 0.66037 0.0
O367 O 0.84745 0.67189 0.67188 0.0
O368 O 0.82458 0.69915 0.69071 0.0
O369 O 0.85584 0.71668 0.67098 0.0
C370 C 0.91186 0.72927 0.66958 0.0
O371 O 0.9019 0.73348 0.68383 0.0
O372 O 0.90013 0.70858 0.66438 0.0
C373 C 0.86213 0.69626 0.72508 0.0
Tb374 Tb 0.33245 0.20292 0.68519 0.0
C375 C 0.38185 0.23546 0.69583 0.0
Tb376 Tb 0.36438 0.18362 0.68848 0.0
O377 O 0.33559 0.20941 0.71893 0.0
O378 O 0.34148 0.18489 0.70774 0.0
O379 O 0.36311 0.23389 0.68839 0.0
C380 C 0.3914 0.16963 0.7049 0.0
O381 O 0.38501 0.21788 0.69861 0.0
C382 C 0.35354 0.19046 0.64992 0.0
C383 C 0.3151 0.15116 0.67747 0.0
O384 O 0.39594 0.18441 0.68962 0.0
O385 O 0.37149 0.16234 0.71046 0.0
O386 O 0.36152 0.17711 0.65479 0.0
O387 O 0.35525 0.20149 0.66586 0.0
O388 O 0.33394 0.15269 0.68453 0.0
O389 O 0.3117 0.16863 0.67497 0.0
C390 C 0.30532 0.21775 0.67101 0.0
O391 O 0.30061 0.20144 0.6847 0.0
O392 O 0.32533 0.2258 0.66543 0.0
C393 C 0.34339 0.19594 0.72368 0.0
Tb394 Tb 0.81106 0.16571 0.69383 0.0
C395 C 0.82515 0.12959 0.68739 0.0
Tb396 Tb 0.85984 0.18019 0.6969 0.0
O397 O 0.80852 0.1588 0.66029 0.0
O398 O 0.83795 0.18233 0.67395 0.0
O399 O 0.80876 0.13308 0.69155 0.0
C400 C 0.89929 0.1864 0.68954 0.0
O401 O 0.84569 0.14571 0.6871 0.0
C402 C 0.84201 0.17575 0.73304 0.0
C403 C 0.84623 0.21682 0.70171 0.0
O404 O 0.88755 0.17492 0.7053 0.0
O405 O 0.88906 0.19493 0.67817 0.0
O406 O 0.8627 0.18837 0.73002 0.0
O407 O 0.83307 0.16424 0.71697 0.0
O408 O 0.86232 0.21309 0.69666 0.0
O409 O 0.82569 0.20054 0.70338 0.0
C410 C 0.77076 0.15336 0.70512 0.0
O411 O 0.7817 0.1695 0.69167 0.0
O412 O 0.78241 0.14419 0.71182 0.0
C413 C 0.82928 0.17154 0.65752 0.0
H414 H 0.2731 0.82235 0.13326 0.0
H415 H 0.30891 0.8534 0.12392 0.0
H416 H 0.27919 0.87004 0.0698 0.0
H417 H 0.24341 0.83964 0.07974 0.0
H418 H 0.3299 0.85696 0.08879 0.0
H419 H 0.31841 0.9311 0.09159 0.0
H420 H 0.2995 0.90439 0.10309 0.0
H421 H 0.29799 0.91004 0.07525 0.0
C422 C 0.2742 0.83318 0.11985 0.0
C423 C 0.25555 0.8288 0.10731 0.0
C424 C 0.29466 0.85076 0.11436 0.0
C425 C 0.29682 0.86431 0.09625 0.0
C426 C 0.278 0.86027 0.08409 0.0
H427 H 0.40473 0.95885 0.01996 0.0
H428 H 0.3689 0.93278 0.03422 0.0
C429 C 0.25759 0.8428 0.08966 0.0
C430 C 0.31884 0.88128 0.08901 0.0
H431 H 0.34933 0.93592 0.07297 0.0
C432 C 0.3342 0.87427 0.08558 0.0
C433 C 0.32451 0.9039 0.08467 0.0
C434 C 0.30931 0.91287 0.08904 0.0
C435 C 0.35475 0.88905 0.07751 0.0
C436 C 0.36026 0.91154 0.07287 0.0
C437 C 0.34503 0.91864 0.07641 0.0
C438 C 0.38186 0.9279 0.06447 0.0
C439 C 0.37026 0.88035 0.07351 0.0
C440 C 0.40098 0.93407 0.07685 0.0
C441 C 0.42137 0.94895 0.06877 0.0
C442 C 0.42307 0.95797 0.04815 0.0
C443 C 0.40391 0.95209 0.03587 0.0
C444 C 0.38346 0.93725 0.04401 0.0
H445 H 0.36191 0.86184 0.07359 0.0
H446 H 0.37815 0.88692 0.05814 0.0
H447 H 0.38328 0.88604 0.08604 0.0
H448 H 0.40013 0.92732 0.09277 0.0
H449 H 0.43585 0.95328 0.07866 0.0
H450 H 0.17912 0.43038 0.1001 0.0
H451 H 0.15175 0.43874 0.08272 0.0
H452 H 0.19109 0.50796 0.09819 0.0
H453 H 0.21818 0.49931 0.1162 0.0
H454 H 0.14754 0.49061 0.10703 0.0
H455 H 0.15689 0.47131 0.02596 0.0
H456 H 0.15179 0.44894 0.0447 0.0
H457 H 0.17653 0.47509 0.04706 0.0
C458 C 0.18173 0.4473 0.09986 0.0
C459 C 0.20051 0.46425 0.10943 0.0
C460 C 0.16632 0.45212 0.08976 0.0
C461 C 0.16965 0.47402 0.08888 0.0
C462 C 0.18837 0.49098 0.09859 0.0
H463 H 0.09167 0.51917 0.01185 0.0
H464 H 0.12107 0.51257 0.0267 0.0
C465 C 0.20376 0.48611 0.10878 0.0
C466 C 0.15315 0.47898 0.07843 0.0
H467 H 0.12529 0.47478 0.03181 0.0
C468 C 0.14276 0.48733 0.09055 0.0
C469 C 0.14727 0.47497 0.05686 0.0
C470 C 0.15885 0.4673 0.04282 0.0
C471 C 0.12609 0.49117 0.08179 0.0
C472 C 0.1194 0.48602 0.06051 0.0
C473 C 0.13026 0.47834 0.04822 0.0
C474 C 0.10129 0.48874 0.05068 0.0
C475 C 0.11594 0.50088 0.09535 0.0
C476 C 0.08034 0.47693 0.05884 0.0
C477 C 0.06361 0.48073 0.05047 0.0
C478 C 0.06759 0.49619 0.03367 0.0
C479 C 0.08825 0.50717 0.02482 0.0
C480 C 0.10502 0.50346 0.03329 0.0
H481 H 0.1268 0.50954 0.10901 0.0
H482 H 0.11217 0.51288 0.08613 0.0
H483 H 0.10048 0.48723 0.10157 0.0
H484 H 0.07706 0.46509 0.07194 0.0
H485 H 0.04775 0.47202 0.05748 0.0
H486 H 0.59403 0.765 0.08248 0.0
H487 H 0.58654 0.72853 0.07024 0.0
H488 H 0.51747 0.70481 0.0741 0.0
H489 H 0.5251 0.74146 0.0861 0.0
H490 H 0.56613 0.6886 0.09133 0.0
H491 H 0.52064 0.68483 0.01628 0.0
H492 H 0.53615 0.71034 0.03029 0.0
H493 H 0.50936 0.69009 0.03858 0.0
C494 C 0.57729 0.75199 0.08047 0.0
C495 C 0.56011 0.7559 0.08511 0.0
C496 C 0.573 0.73121 0.0735 0.0
C497 C 0.55143 0.71397 0.07097 0.0
C498 C 0.53422 0.71797 0.07543 0.0
H499 H 0.49202 0.57296 0.04684 0.0
H500 H 0.49998 0.61065 0.05489 0.0
C501 C 0.53854 0.73882 0.08232 0.0
C502 C 0.54708 0.6915 0.06486 0.0
H503 H 0.52006 0.65113 0.02868 0.0
C504 C 0.5562 0.6805 0.07753 0.0
C505 C 0.53407 0.68088 0.04689 0.0
C506 C 0.52465 0.69221 0.0321 0.0
C507 C 0.55234 0.65905 0.07295 0.0
C508 C 0.53922 0.64839 0.05507 0.0
C509 C 0.53012 0.65935 0.04237 0.0
C510 C 0.53451 0.62569 0.04954 0.0
C511 C 0.5619 0.64771 0.08754 0.0
C512 C 0.55125 0.62169 0.04356 0.0
C513 C 0.54678 0.60012 0.03887 0.0
C514 C 0.52544 0.58214 0.04008 0.0
C515 C 0.50866 0.58634 0.04578 0.0
C516 C 0.51315 0.6079 0.05037 0.0
H517 H 0.56767 0.65609 0.10285 0.0
H518 H 0.54971 0.62997 0.0906 0.0
H519 H 0.57602 0.64812 0.08004 0.0
H520 H 0.56781 0.63525 0.04256 0.0
H521 H 0.5601 0.59755 0.03451 0.0
H522 H 0.80669 0.30085 0.95088 0.0
H523 H 0.83408 0.3368 0.96513 0.0
H524 H 0.88016 0.3121 0.97313 0.0
H525 H 0.85272 0.2762 0.95903 0.0
H526 H 0.85791 0.34686 0.0046 0.0
H527 H 0.91254 0.36986 0.93699 0.0
H528 H 0.88461 0.34777 0.93593 0.0
H529 H 0.90533 0.3431 0.94931 0.0
C530 C 0.82261 0.30313 0.95591 0.0
C531 C 0.82772 0.28591 0.95379 0.0
C532 C 0.83824 0.32362 0.96396 0.0
C533 C 0.85928 0.32726 0.96988 0.0
C534 C 0.86419 0.30983 0.96827 0.0
H535 H 0.97856 0.44369 0.01189 0.0
H536 H 0.95072 0.40609 1.00245 0.0
C537 C 0.84856 0.28936 0.96027 0.0
C538 C 0.87616 0.34934 0.97752 0.0
H539 H 0.92573 0.3937 0.96591 0.0
C540 C 0.87272 0.35714 0.99614 0.0
C541 C 0.89551 0.36271 0.96648 0.0
C542 C 0.89973 0.35559 0.94597 0.0
C543 C 0.88826 0.37781 0.00418 0.0
C544 C 0.90756 0.39126 0.99306 0.0
C545 C 0.911 0.38338 0.97448 0.0
C546 C 0.92417 0.41378 1.00007 0.0
C547 C 0.88404 0.38484 0.02473 0.0
C548 C 0.91855 0.43068 1.00187 0.0
C549 C 0.93441 0.45219 0.00734 0.0
C550 C 0.95634 0.45739 0.01094 0.0
C551 C 0.96188 0.44036 0.00929 0.0
C552 C 0.94597 0.41882 0.00386 0.0
H553 H 0.87215 0.3703 0.03417 0.0
H554 H 0.89936 0.3938 0.0343 0.0
H555 H 0.87711 0.39624 0.02141 0.0
H556 H 0.90197 0.42738 0.99856 0.0
H557 H 0.9295 0.46484 0.00829 0.0
H558 H 0.73059 0.5481 0.91819 0.0
H559 H 0.70239 0.54767 0.93964 0.0
H560 H 0.67005 0.47573 0.94308 0.0
H561 H 0.69847 0.4763 0.92129 0.0
H562 H 0.64233 0.49646 0.93314 0.0
H563 H 0.69654 0.53033 1.00376 0.0
H564 H 0.70777 0.54601 0.97983 0.0
H565 H 0.70282 0.51773 0.98284 0.0
C566 C 0.71725 0.53226 0.92336 0.0
C567 C 0.71631 0.51222 0.91811 0.0
C568 C 0.70137 0.532 0.9357 0.0
C569 C 0.68443 0.51169 0.94312 0.0
C570 C 0.68315 0.49154 0.93753 0.0
H571 H 0.5955 0.50889 0.0357 0.0
H572 H 0.62224 0.50273 0.01801 0.0
C573 C 0.69918 0.49183 0.92514 0.0
C574 C 0.66809 0.51186 0.95657 0.0
H575 H 0.66335 0.53237 1.00249 0.0
C576 C 0.64676 0.50399 0.94844 0.0
C577 C 0.674 0.52147 0.97659 0.0
C578 C 0.69648 0.52919 0.9864 0.0
C579 C 0.63136 0.50654 0.95943 0.0
C580 C 0.63771 0.5175 0.97883 0.0
C581 C 0.65871 0.52429 0.98745 0.0
C582 C 0.6229 0.52255 0.99013 0.0
C583 C 0.60853 0.4977 0.9501 0.0
C584 C 0.61526 0.53648 0.98062 0.0
C585 C 0.60012 0.54009 0.99068 0.0
C586 C 0.59258 0.52991 0.01045 0.0
C587 C 0.60114 0.51695 0.02047 0.0
C588 C 0.61628 0.51333 0.01037 0.0
H589 H 0.60467 0.48457 0.93858 0.0
H590 H 0.59625 0.49072 0.96256 0.0
H591 H 0.60705 0.51153 0.94168 0.0
H592 H 0.62064 0.54416 0.9652 0.0
H593 H 0.59372 0.55013 0.98265 0.0
H594 H 0.41787 0.18233 0.94844 0.0
H595 H 0.42316 0.15034 0.95996 0.0
H596 H 0.49278 0.19215 0.95621 0.0
H597 H 0.48739 0.22398 0.94492 0.0
H598 H 0.44485 0.12871 0.9436 0.0
H599 H 0.48448 0.17044 0.01813 0.0
H600 H 0.46948 0.17996 1.00046 0.0
H601 H 0.49704 0.18704 0.99502 0.0
C602 C 0.43421 0.1844 0.94963 0.0
C603 C 0.45226 0.2055 0.94601 0.0
C604 C 0.43725 0.16624 0.95631 0.0
C605 C 0.4584 0.169 0.95946 0.0
C606 C 0.47635 0.18976 0.95439 0.0
H607 H 0.52253 0.09471 1.00275 0.0
H608 H 0.51119 0.12182 0.99009 0.0
C609 C 0.47329 0.20786 0.94781 0.0
C610 C 0.4619 0.15067 0.96905 0.0
H611 H 0.4871 0.13812 0.01093 0.0
C612 C 0.45389 0.13064 0.95842 0.0
C613 C 0.47354 0.15314 0.98851 0.0
C614 C 0.48145 0.17371 1.00133 0.0
C615 C 0.45806 0.11342 0.96626 0.0
C616 C 0.4703 0.11622 0.98537 0.0
C617 C 0.47778 0.13601 0.99626 0.0
C618 C 0.47673 0.09949 0.99371 0.0
C619 C 0.45008 0.09272 0.95367 0.0
C620 C 0.46114 0.07798 1.00042 0.0
C621 C 0.46759 0.06233 0.00783 0.0
C622 C 0.48976 0.06793 0.00859 0.0
C623 C 0.50531 0.0897 1.00231 0.0
C624 C 0.49886 0.10529 0.99505 0.0
H625 H 0.4444 0.09485 0.9375 0.0
H626 H 0.46319 0.08818 0.95254 0.0
H627 H 0.43624 0.07862 0.96173 0.0
H628 H 0.44399 0.07327 0.99987 0.0
H629 H 0.45518 0.04574 0.01251 0.0
H630 H 0.77128 0.1907 0.94534 0.0
H631 H 0.73498 0.1598 0.95353 0.0
H632 H 0.70743 0.20368 0.94087 0.0
H633 H 0.74389 0.23458 0.93343 0.0
H634 H 0.69452 0.18279 0.977 0.0
H635 H 0.682 0.11984 0.91926 0.0
H636 H 0.70682 0.12839 0.93459 0.0
H637 H 0.70365 0.14831 0.9172 0.0
C638 C 0.7573 0.19345 0.9439 0.0
C639 C 0.76018 0.21484 0.93878 0.0
C640 C 0.73656 0.17583 0.94847 0.0
C641 C 0.71829 0.17925 0.9476 0.0
C642 C 0.72118 0.20054 0.94166 0.0
H643 H 0.58294 0.07487 0.96291 0.0
H644 H 0.61801 0.10285 0.9488 0.0
C645 C 0.74193 0.21816 0.93736 0.0
C646 C 0.69661 0.16137 0.95472 0.0
H647 H 0.65801 0.10688 0.94832 0.0
C648 C 0.6865 0.16625 0.97058 0.0
C649 C 0.6859 0.13981 0.94623 0.0
C650 C 0.69504 0.13382 0.92823 0.0
C651 C 0.66629 0.15022 0.97839 0.0
C652 C 0.65611 0.12832 0.97069 0.0
C653 C 0.66595 0.12352 0.9545 0.0
C654 C 0.63516 0.11036 0.97911 0.0
C655 C 0.65588 0.15714 0.99452 0.0
C656 C 0.6332 0.10476 1.00077 0.0
C657 C 0.61312 0.08902 0.00888 0.0
C658 C 0.5947 0.07824 0.99544 0.0
C659 C 0.59686 0.08304 0.97366 0.0
C660 C 0.6169 0.09898 0.96557 0.0
H661 H 0.66209 0.17545 0.99379 0.0
H662 H 0.63787 0.14865 0.99225 0.0
H663 H 0.65989 0.15262 0.01052 0.0
H664 H 0.64716 0.11278 0.01148 0.0
H665 H 0.61198 0.08546 0.0257 0.0
H666 H 0.79201 0.56007 0.92865 0.0
H667 H 0.82874 0.5726 0.94396 0.0
H668 H 0.83199 0.51993 0.91269 0.0
H669 H 0.79591 0.50878 0.8961 0.0
H670 H 0.83956 0.55159 0.97089 0.0
H671 H 0.89213 0.56763 0.90369 0.0
H672 H 0.86492 0.56403 0.90018 0.0
H673 H 0.86933 0.54014 0.90219 0.0
C674 C 0.80111 0.5519 0.92445 0.0
C675 C 0.79169 0.53393 0.9109 0.0
C676 C 0.82192 0.55886 0.9333 0.0
C677 C 0.8334 0.54748 0.92925 0.0
C678 C 0.82392 0.52955 0.91549 0.0
H679 H 0.91436 0.52061 0.01562 0.0
H680 H 0.88556 0.52503 0.99653 0.0
C681 C 0.8033 0.52302 0.90616 0.0
C682 C 0.85388 0.55258 0.94137 0.0
H683 H 0.90447 0.55791 0.9371 0.0
C684 C 0.8539 0.55344 0.96339 0.0
C685 C 0.87285 0.5555 0.93173 0.0
C686 C 0.87488 0.55704 0.90813 0.0
C687 C 0.87184 0.55592 0.97605 0.0
C688 C 0.8899 0.55655 0.96654 0.0
C689 C 0.89045 0.557 0.94447 0.0
C690 C 0.90755 0.55503 0.97915 0.0
C691 C 0.87111 0.55772 0.99951 0.0
C692 C 0.92955 0.57011 0.97543 0.0
C693 C 0.94606 0.56728 0.98603 0.0
C694 C 0.94079 0.54943 1.00059 0.0
C695 C 0.91885 0.5347 0.0047 0.0
C696 C 0.90237 0.53732 0.99388 0.0
H697 H 0.86116 0.56566 1.00311 0.0
H698 H 0.86332 0.54074 0.00698 0.0
H699 H 0.88769 0.56755 0.00671 0.0
H700 H 0.93392 0.5838 0.96403 0.0
H701 H 0.96291 0.57875 0.98251 0.0
H702 H 0.49063 0.29171 0.95752 0.0
H703 H 0.49939 0.32789 0.97175 0.0
H704 H 0.43074 0.30566 0.97687 0.0
H705 H 0.4221 0.26945 0.9629 0.0
H706 H 0.48529 0.35813 0.95402 0.0
H707 H 0.45685 0.33041 0.03551 0.0
H708 H 0.46234 0.31361 0.01843 0.0
H709 H 0.43744 0.31503 0.01503 0.0
C710 C 0.47752 0.29456 0.96199 0.0
C711 C 0.45574 0.27793 0.95926 0.0
C712 C 0.48248 0.31517 0.97 0.0
C713 C 0.46572 0.31937 0.97559 0.0
C714 C 0.44393 0.30266 0.97299 0.0
H715 H 0.46032 0.43383 0.02121 0.0
H716 H 0.45228 0.39702 0.00979 0.0
C717 C 0.43899 0.2821 0.96491 0.0
C718 C 0.47098 0.34155 0.98327 0.0
H719 H 0.46638 0.36774 0.02538 0.0
C720 C 0.48129 0.36028 0.96967 0.0
C721 C 0.46559 0.34426 1.00362 0.0
C722 C 0.4551 0.32482 0.01911 0.0
C723 C 0.48601 0.38161 0.97572 0.0
C724 C 0.48074 0.38437 0.99614 0.0
C725 C 0.47042 0.36562 0.00975 0.0
C726 C 0.48578 0.40658 1.00365 0.0
C727 C 0.49607 0.40087 0.95996 0.0
C728 C 0.50734 0.42409 0.00444 0.0
C729 C 0.51199 0.44516 0.01086 0.0
C730 C 0.49519 0.44915 0.0169 0.0
C731 C 0.47366 0.4314 0.01667 0.0
C732 C 0.46903 0.41033 0.01014 0.0
H733 H 0.49339 0.39505 0.94356 0.0
H734 H 0.48928 0.41241 0.9611 0.0
H735 H 0.51393 0.41034 0.96319 0.0
H736 H 0.52062 0.42147 1.00002 0.0
H737 H 0.52879 0.45835 0.01098 0.0
H738 H 0.18318 0.77284 0.06904 0.0
H739 H 0.15366 0.7388 0.05353 0.0
H740 H 0.16085 0.69948 0.1054 0.0
H741 H 0.19049 0.73345 0.12069 0.0
H742 H 0.15382 0.6994 0.04144 0.0
H743 H 0.0954 0.6817 0.10453 0.0
H744 H 0.1194 0.7085 0.10097 0.0
H745 H 0.12164 0.68571 0.11389 0.0
C746 C 0.17852 0.75686 0.07695 0.0
C747 C 0.18893 0.75569 0.09609 0.0
C748 C 0.16165 0.73749 0.06818 0.0
C749 C 0.15479 0.71664 0.0785 0.0
C750 C 0.16554 0.71542 0.09739 0.0
H751 H 0.08004 0.5826 0.03591 0.0
H752 H 0.10795 0.61951 0.04653 0.0
C753 C 0.18245 0.73477 0.1061 0.0
C754 C 0.13652 0.69612 0.0695 0.0
H755 H 0.08594 0.65295 0.08022 0.0
C756 C 0.13891 0.68932 0.04984 0.0
C757 C 0.11694 0.68315 0.08032 0.0
C758 C 0.11301 0.69019 0.10101 0.0
C759 C 0.12256 0.66947 0.04108 0.0
C760 C 0.10339 0.656 0.05234 0.0
C761 C 0.10069 0.66321 0.07165 0.0
C762 C 0.08642 0.63389 0.04485 0.0
C763 C 0.12595 0.66308 0.01982 0.0
C764 C 0.06487 0.62953 0.04059 0.0
C765 C 0.04873 0.60831 0.03448 0.0
C766 C 0.0538 0.59096 0.03278 0.0
C767 C 0.07547 0.5955 0.03698 0.0
C768 C 0.09155 0.61668 0.04296 0.0
H769 H 0.13825 0.67774 0.01081 0.0
H770 H 0.13192 0.65077 0.02205 0.0
H771 H 0.11043 0.65533 0.01035 0.0
H772 H 0.06052 0.64254 0.0421 0.0
H773 H 0.03222 0.60541 0.03149 0.0
H774 H 0.25651 0.42587 0.11619 0.0
H775 H 0.29213 0.43152 0.10632 0.0
H776 H 0.32075 0.50144 0.11935 0.0
H777 H 0.28516 0.49544 0.13014 0.0
H778 H 0.31277 0.45832 0.07296 0.0
H779 H 0.36659 0.48624 0.14458 0.0
H780 H 0.33722 0.47271 0.14556 0.0
H781 H 0.35248 0.50187 0.1384 0.0
C782 C 0.27062 0.44219 0.11776 0.0
C783 C 0.26835 0.46021 0.12403 0.0
C784 C 0.29086 0.44547 0.11194 0.0
C785 C 0.30908 0.46686 0.11224 0.0
C786 C 0.307 0.48473 0.1194 0.0
H787 H 0.4199 0.51361 0.03152 0.0
H788 H 0.3863 0.50663 0.04816 0.0
C789 C 0.28675 0.48137 0.12539 0.0
C790 C 0.32943 0.47088 0.10268 0.0
H791 H 0.3841 0.49182 0.11192 0.0
C792 C 0.32835 0.46549 0.08152 0.0
C793 C 0.34966 0.48018 0.11393 0.0
C794 C 0.35159 0.4854 0.13693 0.0
C795 C 0.34702 0.46928 0.0712 0.0
C796 C 0.36737 0.47921 0.08224 0.0
C797 C 0.36845 0.48441 0.10347 0.0
C798 C 0.38764 0.48371 0.0722 0.0
C799 C 0.34473 0.46225 0.04872 0.0
C800 C 0.39964 0.47348 0.08051 0.0
C801 C 0.41879 0.47756 0.07118 0.0
C802 C 0.42623 0.49194 0.05339 0.0
C803 C 0.4143 0.50226 0.04509 0.0
C804 C 0.39515 0.49825 0.05452 0.0
H805 H 0.32764 0.44983 0.04447 0.0
H806 H 0.34953 0.47706 0.03798 0.0
H807 H 0.35546 0.45496 0.046 0.0
H808 H 0.39411 0.46226 0.09418 0.0
H809 H 0.42784 0.46954 0.07796 0.0
H810 H 0.59748 0.85173 0.0951 0.0
H811 H 0.59302 0.8846 0.08558 0.0
H812 H 0.52313 0.84299 0.08491 0.0
H813 H 0.5277 0.81033 0.09468 0.0
H814 H 0.57122 0.88957 0.04845 0.0
H815 H 0.53318 0.89597 0.12009 0.0
H816 H 0.5477 0.88026 0.1198 0.0
H817 H 0.52009 0.86855 0.10955 0.0
C818 C 0.58123 0.84983 0.09333 0.0
C819 C 0.56291 0.82865 0.09562 0.0
C820 C 0.57868 0.8685 0.08778 0.0
C821 C 0.55774 0.86629 0.0847 0.0
C822 C 0.53943 0.84517 0.08751 0.0
H823 H 0.49529 0.94216 0.0412 0.0
H824 H 0.50607 0.91465 0.0538 0.0
C825 C 0.54201 0.82653 0.09295 0.0
C826 C 0.5549 0.88569 0.07733 0.0
H827 H 0.53074 0.91638 0.08945 0.0
C828 C 0.56261 0.89566 0.0575 0.0
C829 C 0.54367 0.89358 0.08916 0.0
C830 C 0.53585 0.8842 0.11092 0.0
C831 C 0.55855 0.91265 0.04879 0.0
C832 C 0.54681 0.92014 0.0604 0.0
C833 C 0.53966 0.91058 0.08049 0.0
C834 C 0.54071 0.93702 0.05167 0.0
C835 C 0.56604 0.92173 0.02687 0.0
C836 C 0.55662 0.95883 0.04608 0.0
C837 C 0.55048 0.97471 0.03869 0.0
C838 C 0.52833 0.96912 0.03697 0.0
C839 C 0.51251 0.94717 0.04235 0.0
C840 C 0.51864 0.93136 0.04962 0.0
H841 H 0.57028 0.91073 0.01829 0.0
H842 H 0.55325 0.9238 0.01756 0.0
H843 H 0.58079 0.93834 0.02792 0.0
H844 H 0.57378 0.96372 0.04787 0.0
H845 H 0.56311 0.99148 0.03486 0.0
H846 H 0.91651 0.17266 0.41663 0.0
H847 H 0.95287 0.20279 0.40782 0.0
H848 H 0.97981 0.18661 0.46434 0.0
H849 H 0.94328 0.15602 0.47285 0.0
H850 H 0.98414 0.24052 0.42771 0.0
H851 H 0.01454 0.18036 0.41797 0.0
H852 H 0.986 0.17161 0.42055 0.0
H853 H 0.00404 0.17929 0.44339 0.0
C854 C 0.93021 0.17578 0.42726 0.0
C855 C 0.92723 0.162 0.44529 0.0
C856 C 0.95095 0.19298 0.42226 0.0
C857 C 0.96921 0.19674 0.43517 0.0
C858 C 0.96607 0.18377 0.4539 0.0
H859 H 0.10008 0.3102 0.41277 0.0
H860 H 0.06489 0.2845 0.42822 0.0
C861 C 0.94522 0.1665 0.4589 0.0
C862 C 0.99148 0.21344 0.42829 0.0
H863 H 0.03955 0.21843 0.41247 0.0
C864 C 0.99632 0.23573 0.42453 0.0
C865 C 0.00728 0.20714 0.42377 0.0
C866 C 1.00274 0.18329 0.42642 0.0
C867 C 0.01641 0.25182 0.41633 0.0
C868 C 0.03228 0.24555 0.412 0.0
C869 C 0.02748 0.22329 0.41589 0.0
C870 C 0.05361 0.26153 0.40263 0.0
C871 C 0.02015 0.27519 0.41167 0.0
C872 C 0.05926 0.25705 0.38328 0.0
C873 C 0.0794 0.27165 0.3745 0.0
C874 C 0.09437 0.29102 0.38491 0.0
C875 C 0.08876 0.29552 0.40427 0.0
C876 C 0.06861 0.28088 0.41308 0.0
H877 H 0.00462 0.27589 0.41091 0.0
H878 H 0.0307 0.28618 0.42438 0.0
H879 H 0.02847 0.28192 0.39653 0.0
H880 H 0.04803 0.24222 0.37493 0.0
H881 H 0.0833 0.26767 0.35962 0.0
H882 H 0.90377 0.87698 0.45947 0.0
H883 H 0.87302 0.87792 0.4396 0.0
H884 H 0.85056 0.81068 0.42006 0.0
H885 H 0.88155 0.81018 0.43947 0.0
H886 H 0.84841 0.83771 0.38791 0.0
H887 H 0.8107 0.84475 0.45971 0.0
H888 H 0.83816 0.86662 0.45613 0.0
H889 H 0.83287 0.83837 0.46085 0.0
C890 C 0.89227 0.86264 0.4507 0.0
C891 C 0.89465 0.84353 0.45077 0.0
C892 C 0.87475 0.86306 0.43954 0.0
C893 C 0.85939 0.84422 0.42868 0.0
C894 C 0.86222 0.82535 0.42838 0.0
H895 H 0.72779 0.8141 0.39238 0.0
H896 H 0.76035 0.81314 0.40701 0.0
C897 C 0.87977 0.82502 0.43938 0.0
C898 C 0.83996 0.84375 0.41803 0.0
H899 H 0.79401 0.84679 0.42698 0.0
C900 C 0.83649 0.8397 0.39641 0.0
C901 C 0.8243 0.84593 0.42931 0.0
C902 C 0.82652 0.84894 0.45282 0.0
C903 C 0.81775 0.83789 0.38567 0.0
C904 C 0.80241 0.84073 0.39683 0.0
C905 C 0.80587 0.8447 0.41847 0.0
C906 C 0.78266 0.8398 0.38647 0.0
C907 C 0.81433 0.83244 0.36264 0.0
C908 C 0.78445 0.85492 0.36994 0.0
C909 C 0.76588 0.85528 0.36142 0.0
C910 C 0.74534 0.84078 0.36956 0.0
C911 C 0.74348 0.82537 0.38581 0.0
C912 C 0.76203 0.82486 0.39419 0.0
H913 H 0.82387 0.82433 0.35819 0.0
H914 H 0.79684 0.82126 0.35866 0.0
H915 H 0.81987 0.8481 0.353 0.0
H916 H 0.80026 0.86693 0.36411 0.0
H917 H 0.76771 0.86747 0.34902 0.0
H918 H 0.26464 0.0932 0.41919 0.0
H919 H 0.25639 0.05652 0.40682 0.0
H920 H 0.18758 0.03437 0.41021 0.0
H921 H 0.19596 0.07119 0.42237 0.0
H922 H 0.23504 0.01623 0.42722 0.0
H923 H 0.19058 0.01486 0.35212 0.0
H924 H 0.20646 0.04003 0.36652 0.0
H925 H 0.17942 0.02015 0.3745 0.0
C926 C 0.24779 0.08049 0.41708 0.0
C927 C 0.23091 0.08493 0.4216 0.0
C928 C 0.24306 0.05958 0.41003 0.0
C929 C 0.22135 0.04271 0.40728 0.0
C930 C 0.20444 0.04722 0.41169 0.0
H931 H 0.15855 0.90217 0.37954 0.0
H932 H 0.16762 0.93996 0.3885 0.0
C933 C 0.2092 0.06819 0.41868 0.0
C934 C 0.21649 0.02014 0.40083 0.0
H935 H 0.18897 0.98057 0.364 0.0
C936 C 0.2251 1.00852 0.4133 0.0
C937 C 0.20349 0.01001 0.38268 0.0
C938 C 0.19462 0.02197 0.36806 0.0
C939 C 0.22072 0.98695 0.40839 0.0
C940 C 0.2076 0.97678 0.39035 0.0
C941 C 0.19903 0.98838 0.37783 0.0
C942 C 0.20227 0.95394 0.38443 0.0
C943 C 0.22971 0.97498 0.42286 0.0
C944 C 0.21871 0.94924 0.37887 0.0
C945 C 0.21359 0.92759 0.37366 0.0
C946 C 0.19189 0.91018 0.37389 0.0
C947 C 0.17545 0.91508 0.37922 0.0
C948 C 0.18058 0.93672 0.38433 0.0
H949 H 0.23523 0.98291 0.43839 0.0
H950 H 0.21729 0.95724 0.42543 0.0
H951 H 0.24392 0.97541 0.41553 0.0
H952 H 0.23553 0.96235 0.37852 0.0
H953 H 0.22667 0.92451 0.3696 0.0
H954 H 0.47593 0.63326 0.28541 0.0
H955 H 0.50353 0.66993 0.29812 0.0
H956 H 0.55037 0.64614 0.30569 0.0
H957 H 0.52283 0.60969 0.29277 0.0
H958 H 0.52791 0.68302 0.33538 0.0
H959 H 0.58228 0.70165 0.26842 0.0
H960 H 0.55467 0.67892 0.26836 0.0
H961 H 0.57614 0.67594 0.28237 0.0
C962 C 0.49209 0.63593 0.28999 0.0
C963 C 0.49741 0.61885 0.28801 0.0
C964 C 0.50785 0.65682 0.29717 0.0
C965 C 0.52919 0.66097 0.30244 0.0
C966 C 0.53422 0.64357 0.3012 0.0
H967 H 0.64851 0.77701 0.34502 0.0
H968 H 0.62023 0.7395 0.33569 0.0
C969 C 0.51851 0.62276 0.29394 0.0
C970 C 0.54623 0.68349 0.30909 0.0
H971 H 0.59636 0.72657 0.29668 0.0
C972 C 0.54283 0.69258 0.32687 0.0
C973 C 0.56572 0.69601 0.29797 0.0
C974 C 0.56989 0.68776 0.2781 0.0
C975 C 0.55853 0.71363 0.33403 0.0
C976 C 0.57805 0.72605 0.32298 0.0
C977 C 0.58146 0.71698 0.30521 0.0
C978 C 0.59498 0.74871 0.3293 0.0
C979 C 0.55429 0.72223 0.3536 0.0
C980 C 0.59025 0.76642 0.32864 0.0
C981 C 0.60638 0.7879 0.3339 0.0
C982 C 0.62765 0.79218 0.33991 0.0
C983 C 0.63232 0.77436 0.34057 0.0
C984 C 0.61618 0.75289 0.33521 0.0
H985 H 0.54139 0.70863 0.3631 0.0
H986 H 0.56937 0.73067 0.3636 0.0
H987 H 0.54878 0.73459 0.34899 0.0
H988 H 0.57414 0.7637 0.32374 0.0
H989 H 0.60215 0.80117 0.33309 0.0
H990 H 0.37025 0.82304 0.24441 0.0
H991 H 0.34028 0.81729 0.26702 0.0
H992 H 0.37773 0.88537 0.28663 0.0
H993 H 0.40756 0.89072 0.26457 0.0
H994 H 0.35785 0.85526 0.31967 0.0
H995 H 0.29975 0.84388 0.25222 0.0
H996 H 0.31083 0.82505 0.25409 0.0
H997 H 0.32846 0.85422 0.24868 0.0
C998 C 0.37186 0.83657 0.25369 0.0
C999 C 0.39077 0.85735 0.25277 0.0
C1000 C 0.35489 0.83337 0.26646 0.0
C1001 C 0.35676 0.85102 0.27824 0.0
C1002 C 0.37598 0.87158 0.27764 0.0
H1003 H 0.2642 0.8838 0.32283 0.0
H1004 H 0.29357 0.88125 0.30628 0.0
C1005 C 0.39287 0.87469 0.26502 0.0
C1006 C 0.33864 0.84872 0.29076 0.0
H1007 H 0.28796 0.84404 0.28602 0.0
C1008 C 0.34245 0.85256 0.31242 0.0
C1009 C 0.31874 0.84544 0.28109 0.0
C1010 C 0.31414 0.84207 0.25773 0.0
C1011 C 0.32709 0.85393 0.3246 0.0
C1012 C 0.30732 0.85094 0.31486 0.0
C1013 C 0.30322 0.84636 0.29336 0.0
C1014 C 0.29104 0.85361 0.32632 0.0
C1015 C 0.33255 0.85952 0.34752 0.0
C1016 C 0.28024 0.83918 0.3433 0.0
C1017 C 0.26365 0.84079 0.35292 0.0
C1018 C 0.25753 0.85669 0.34549 0.0
C1019 C 0.26874 0.8715 0.32889 0.0
C1020 C 0.2854 0.86998 0.31938 0.0
H1021 H 0.35023 0.86621 0.35132 0.0
H1022 H 0.32773 0.87197 0.35184 0.0
H1023 H 0.32344 0.8442 0.35741 0.0
H1024 H 0.28413 0.82621 0.34863 0.0
H1025 H 0.25504 0.82903 0.36557 0.0
H1026 H 0.1389 0.53632 0.25148 0.0
H1027 H 0.14431 0.50438 0.26282 0.0
H1028 H 0.10747 0.49473 0.31822 0.0
H1029 H 0.10207 0.52649 0.30679 0.0
H1030 H 0.14818 0.49807 0.3272 0.0
H1031 H 0.10337 0.43641 0.26533 0.0
H1032 H 0.12237 0.46386 0.25566 0.0
H1033 H 0.09887 0.45974 0.26932 0.0
C1034 C 0.13152 0.52693 0.26575 0.0
C1035 C 0.12012 0.53378 0.27832 0.0
C1036 C 0.13461 0.50873 0.27226 0.0
C1037 C 0.12622 0.49705 0.29136 0.0
C1038 C 0.11411 0.50345 0.30345 0.0
H1039 H 0.12678 0.37652 0.34401 0.0
H1040 H 0.1161 0.40416 0.33051 0.0
C1041 C 0.11102 0.52155 0.29694 0.0
C1042 C 0.13146 0.4794 0.29971 0.0
H1043 H 0.12577 0.4283 0.28965 0.0
C1044 C 0.1432 0.48279 0.319 0.0
C1045 C 0.12483 0.45936 0.28914 0.0
C1046 C 0.11149 0.45443 0.2688 0.0
C1047 C 0.14879 0.46691 0.32781 0.0
C1048 C 0.14265 0.44713 0.31698 0.0
C1049 C 0.13056 0.44352 0.29788 0.0
C1050 C 0.14905 0.43029 0.32513 0.0
C1051 C 0.16108 0.47134 0.34875 0.0
C1052 C 0.17111 0.43574 0.32651 0.0
C1053 C 0.17727 0.42002 0.33417 0.0
C1054 C 0.16151 0.39842 0.34066 0.0
C1055 C 0.13939 0.393 0.33929 0.0
C1056 C 0.13322 0.40874 0.33148 0.0
H1057 H 0.16005 0.48449 0.3573 0.0
H1058 H 0.1547 0.45592 0.35888 0.0
H1059 H 0.17853 0.47703 0.34609 0.0
H1060 H 0.1836 0.45216 0.32149 0.0
H1061 H 0.19445 0.42485 0.33491 0.0
H1062 H 0.41326 0.56476 0.27464 0.0
H1063 H 0.37818 0.53254 0.28385 0.0
H1064 H 0.4078 0.49007 0.28566 0.0
H1065 H 0.44305 0.52253 0.27694 0.0
H1066 H 0.35146 0.49112 0.26551 0.0
H1067 H 0.38354 0.48116 0.34484 0.0
H1068 H 0.39801 0.50565 0.32813 0.0
H1069 H 0.39842 0.48033 0.32309 0.0
C1070 C 0.41215 0.54848 0.27689 0.0
C1071 C 0.4308 0.54607 0.27534 0.0
C1072 C 0.39215 0.53009 0.28206 0.0
C1073 C 0.39041 0.50893 0.28583 0.0
C1074 C 0.40882 0.50629 0.28321 0.0
H1075 H 0.26384 0.38862 0.30862 0.0
H1076 H 0.29909 0.41511 0.29366 0.0
C1077 C 0.42886 0.52474 0.27803 0.0
C1078 C 0.36962 0.49004 0.29349 0.0
H1079 H 0.34705 0.45538 0.33628 0.0
C1080 C 0.3505 0.48317 0.28092 0.0
C1081 C 0.36833 0.47987 0.31372 0.0
C1082 C 0.38809 0.48719 0.32836 0.0
C1083 C 0.33013 0.46657 0.28807 0.0
C1084 C 0.32886 0.45635 0.30828 0.0
C1085 C 0.34803 0.46308 0.32074 0.0
C1086 C 0.30768 0.43976 0.3174 0.0
C1087 C 0.31002 0.4607 0.27426 0.0
C1088 C 0.30101 0.44445 0.33603 0.0
C1089 C 0.28101 0.42929 0.34466 0.0
C1090 C 0.2673 0.40904 0.33492 0.0
C1091 C 0.2741 0.40411 0.31647 0.0
C1092 C 0.29415 0.41932 0.30782 0.0
H1093 H 0.31308 0.47342 0.26144 0.0
H1094 H 0.30483 0.44449 0.26692 0.0
H1095 H 0.29638 0.45899 0.28367 0.0
H1096 H 0.31115 0.46005 0.34375 0.0
H1097 H 0.27619 0.43355 0.35886 0.0
H1098 H 0.45964 0.84392 0.22932 0.0
H1099 H 0.49424 0.84856 0.24533 0.0
H1100 H 0.50929 0.91347 0.26623 0.0
H1101 H 0.47427 0.90817 0.25126 0.0
H1102 H 0.53806 0.87934 0.24235 0.0
H1103 H 0.5074 0.87945 0.321 0.0
H1104 H 0.4902 0.87242 0.29746 0.0
H1105 H 0.50846 0.90114 0.30321 0.0
C1106 C 0.47067 0.8593 0.23698 0.0
C1107 C 0.4646 0.87579 0.23898 0.0
C1108 C 0.49033 0.86197 0.24608 0.0
C1109 C 0.50409 0.8812 0.25726 0.0
C1110 C 0.4987 0.89837 0.25795 0.0
H1111 H 0.63204 0.90876 0.31011 0.0
H1112 H 0.60249 0.91135 0.29009 0.0
C1113 C 0.47893 0.89553 0.24911 0.0
C1114 C 0.52303 0.88241 0.2697 0.0
H1115 H 0.54361 0.88588 0.32002 0.0
C1116 C 0.53936 0.88084 0.25932 0.0
C1117 C 0.52438 0.88391 0.29189 0.0
C1118 C 0.50658 0.8841 0.3041 0.0
C1119 C 0.55712 0.88079 0.27057 0.0
C1120 C 0.55875 0.88293 0.2927 0.0
C1121 C 0.54241 0.8845 0.30303 0.0
C1122 C 0.57668 0.88244 0.30562 0.0
C1123 C 0.57353 0.87772 0.25873 0.0
C1124 C 0.57191 0.86604 0.32169 0.0
C1125 C 0.58872 0.86482 0.33341 0.0
C1126 C 0.61053 0.87996 0.32918 0.0
C1127 C 0.6153 0.89687 0.31362 0.0
C1128 C 0.59848 0.8982 0.30203 0.0
H1129 H 0.56689 0.87046 0.24309 0.0
H1130 H 0.58816 0.89419 0.2561 0.0
H1131 H 0.57875 0.86674 0.26781 0.0
H1132 H 0.55517 0.85381 0.3248 0.0
H1133 H 0.58465 0.85158 0.34527 0.0
H1134 H 0.11392 0.59537 0.31611 0.0
H1135 H 0.12122 0.63099 0.33004 0.0
H1136 H 0.14751 0.66387 0.27051 0.0
H1137 H 0.14244 0.62872 0.25753 0.0
H1138 H 0.17067 0.68964 0.29843 0.0
H1139 H 0.08608 0.66102 0.32122 0.0
H1140 H 0.09699 0.6451 0.33523 0.0
H1141 H 0.09335 0.64372 0.30695 0.0
C1142 C 0.12162 0.61029 0.30618 0.0
C1143 C 0.12743 0.60921 0.28565 0.0
C1144 C 0.12537 0.63062 0.31399 0.0
C1145 C 0.13425 0.65018 0.30116 0.0
C1146 C 0.14042 0.64911 0.28075 0.0
H1147 H 0.12674 0.76945 0.33098 0.0
H1148 H 0.12001 0.73352 0.31807 0.0
C1149 C 0.13729 0.62894 0.27321 0.0
C1150 C 0.13765 0.67186 0.30901 0.0
H1151 H 0.11306 0.69617 0.33425 0.0
C1152 C 0.15795 0.69102 0.30609 0.0
C1153 C 0.12102 0.67403 0.31865 0.0
C1154 C 0.09809 0.65491 0.32047 0.0
C1155 C 0.16213 0.71203 0.3126 0.0
C1156 C 0.146 0.71389 0.32353 0.0
C1157 C 0.12562 0.69481 0.32624 0.0
C1158 C 0.14979 0.73547 0.33192 0.0
C1159 C 0.18356 0.73207 0.30695 0.0
C1160 C 0.16846 0.74843 0.34446 0.0
C1161 C 0.17257 0.76919 0.35133 0.0
C1162 C 0.15767 0.77707 0.34656 0.0
C1163 C 0.13843 0.76369 0.33498 0.0
C1164 C 0.13462 0.74317 0.32758 0.0
H1165 H 0.19027 0.72916 0.29273 0.0
H1166 H 0.18181 0.74723 0.30389 0.0
H1167 H 0.19564 0.73521 0.32011 0.0
H1168 H 0.18 0.74259 0.34885 0.0
H1169 H 0.18742 0.77908 0.36045 0.0
H1170 H 0.85743 0.0682 0.46013 0.0
H1171 H 0.82871 0.03399 0.4449 0.0
H1172 H 0.83239 0.06974 0.386 0.0
H1173 H 0.85966 0.10449 0.40205 0.0
H1174 H 0.79247 0.04346 0.39252 0.0
H1175 H 0.83379 0.99299 0.40802 0.0
H1176 H 0.8303 1.00279 0.43227 0.0
H1177 H 0.84739 0.02248 0.41246 0.0
C1178 C 0.85193 0.06877 0.44401 0.0
C1179 C 0.86078 0.08904 0.4323 0.0
C1180 C 0.83577 0.04909 0.43514 0.0
C1181 C 0.82865 0.04896 0.41403 0.0
C1182 C 0.83763 0.06923 0.40225 0.0
H1183 H 0.7507 0.92089 0.35427 0.0
H1184 H 0.7797 0.95741 0.36495 0.0
C1185 C 0.85341 0.08906 0.41133 0.0
C1186 C 0.81134 0.02791 0.40457 0.0
H1187 H 0.79535 0.97262 0.40016 0.0
C1188 C 0.79327 0.02804 0.39398 0.0
C1189 C 0.81238 1.00774 0.40599 0.0
C1190 C 0.83215 1.00656 0.41509 0.0
C1191 C 0.77615 1.00864 0.38522 0.0
C1192 C 0.77648 0.98814 0.38797 0.0
C1193 C 0.79476 0.98813 0.39822 0.0
C1194 C 0.75836 0.96654 0.38019 0.0
C1195 C 0.75826 0.01062 0.37265 0.0
C1196 C 0.73651 0.9593 0.38495 0.0
C1197 C 0.71978 0.93866 0.3782 0.0
C1198 C 0.72467 0.92447 0.36723 0.0
C1199 C 0.74647 0.93152 0.36269 0.0
C1200 C 0.76308 0.9524 0.36887 0.0
H1201 H 0.76419 0.02775 0.36579 0.0
H1202 H 0.75168 0.9987 0.35964 0.0
H1203 H 0.7448 1.00715 0.38321 0.0
H1204 H 0.73236 0.96934 0.39432 0.0
H1205 H 0.70315 0.93342 0.38226 0.0
H1206 H 0.97891 0.85338 0.48195 0.0
H1207 H 0.00818 0.84878 0.46724 0.0
H1208 H 0.95997 0.79191 0.43335 0.0
H1209 H 0.93104 0.79753 0.4471 0.0
H1210 H 0.02053 0.81706 0.46523 0.0
H1211 H 0.99352 0.83419 0.3862 0.0
H1212 H 0.9826 0.83709 0.41012 0.0
H1213 H 0.97261 0.81002 0.39923 0.0
C1214 C 0.97475 0.83959 0.47183 0.0
C1215 C 0.95299 0.82563 0.46571 0.0
C1216 C 0.99135 0.83698 0.46339 0.0
C1217 C 0.98622 0.82031 0.44882 0.0
C1218 C 0.96428 0.80519 0.44418 0.0
H1219 H 0.08291 0.79254 0.39668 0.0
H1220 H 0.05213 0.78985 0.41549 0.0
C1221 C 0.9478 0.80813 0.45224 0.0
C1222 C 1.0037 0.82011 0.43699 0.0
H1223 H 0.02124 0.82388 0.38719 0.0
C1224 C 0.02072 0.81852 0.44817 0.0
C1225 C 0.00416 0.82261 0.41475 0.0
C1226 C 0.98738 0.82632 0.40188 0.0
C1227 C 0.03811 0.81914 0.43767 0.0
C1228 C 0.03804 0.82068 0.41538 0.0
C1229 C 0.02108 0.82239 0.40425 0.0
C1230 C 0.05584 0.82154 0.40323 0.0
C1231 C 0.05673 0.81893 0.45056 0.0
C1232 C 0.06737 0.83966 0.38927 0.0
C1233 C 0.08458 0.84094 0.37814 0.0
C1234 C 0.09055 0.82417 0.38091 0.0
C1235 C 0.0786 0.8057 0.39435 0.0
C1236 C 0.06122 0.80429 0.40528 0.0
H1237 H 0.05726 0.82399 0.46698 0.0
H1238 H 0.0546 0.80179 0.45128 0.0
H1239 H 0.07263 0.83028 0.4434 0.0
H1240 H 0.06338 0.85307 0.38735 0.0
H1241 H 0.09365 0.85541 0.36795 0.0
H1242 H 0.19933 0.13953 0.43225 0.0
H1243 H 0.19402 0.17163 0.42199 0.0
H1244 H 0.26372 0.21382 0.42003 0.0
H1245 H 0.26893 0.18156 0.43056 0.0
H1246 H 0.24274 0.23456 0.43758 0.0
H1247 H 0.20202 0.19714 0.36187 0.0
H1248 H 0.18914 0.17943 0.38431 0.0
H1249 H 0.21653 0.18618 0.37846 0.0
C1250 C 0.21345 0.15573 0.42978 0.0
C1251 C 0.2345 0.15814 0.43195 0.0
C1252 C 0.21045 0.17402 0.42381 0.0
C1253 C 0.22846 0.19506 0.41968 0.0
C1254 C 0.24958 0.19773 0.42293 0.0
H1255 H 0.23436 0.32134 0.37269 0.0
H1256 H 0.2445 0.29282 0.3845 0.0
C1257 C 0.25257 0.17939 0.42901 0.0
C1258 C 0.2251 0.21398 0.41142 0.0
H1259 H 0.19984 0.22912 0.37145 0.0
C1260 C 0.23354 0.23347 0.42303 0.0
C1261 C 0.21324 0.21266 0.39231 0.0
C1262 C 0.20489 0.19283 0.37839 0.0
C1263 C 0.22968 0.25125 0.41647 0.0
C1264 C 0.21728 0.24961 0.3977 0.0
C1265 C 0.20927 0.23034 0.38588 0.0
C1266 C 0.21147 0.26716 0.39051 0.0
C1267 C 0.23825 0.27135 0.43004 0.0
C1268 C 0.18953 0.26212 0.38954 0.0
C1269 C 0.18369 0.27831 0.38279 0.0
C1270 C 0.19964 0.29996 0.37665 0.0
C1271 C 0.22164 0.3049 0.37732 0.0
C1272 C 0.22749 0.28865 0.38421 0.0
H1273 H 0.24396 0.26829 0.44588 0.0
H1274 H 0.25221 0.28561 0.42228 0.0
H1275 H 0.22548 0.2762 0.43196 0.0
H1276 H 0.17688 0.24563 0.3942 0.0
H1277 H 0.16659 0.27378 0.38243 0.0
H1278 H 0.61676 0.48343 0.80626 0.0
H1279 H 0.65303 0.51429 0.79776 0.0
H1280 H 0.62337 0.53966 0.75064 0.0
H1281 H 0.58723 0.50921 0.75978 0.0
H1282 H 0.6719 0.52128 0.76071 0.0
H1283 H 0.66655 0.59673 0.77765 0.0
H1284 H 0.64697 0.56925 0.7871 0.0
H1285 H 0.64463 0.57852 0.76054 0.0
C1286 C 0.61807 0.49619 0.79474 0.0
C1287 C 0.59933 0.49444 0.78404 0.0
C1288 C 0.63875 0.51365 0.78969 0.0
C1289 C 0.64104 0.52961 0.77375 0.0
C1290 C 0.62214 0.52805 0.76339 0.0
H1291 H 0.74523 0.62953 0.69841 0.0
H1292 H 0.71058 0.60329 0.7145 0.0
C1293 C 0.6015 0.51067 0.76855 0.0
C1294 C 0.66311 0.54651 0.76655 0.0
H1295 H 0.69556 0.6022 0.75561 0.0
C1296 C 0.67716 0.539 0.75987 0.0
C1297 C 0.67004 0.56967 0.76532 0.0
C1298 C 0.65634 0.57906 0.77323 0.0
C1299 C 0.69754 0.55382 0.75144 0.0
C1300 C 0.70426 0.57691 0.74984 0.0
C1301 C 0.69038 0.5845 0.75676 0.0
C1302 C 0.72542 0.59332 0.74056 0.0
C1303 C 0.7114 0.54455 0.74367 0.0
C1304 C 0.74533 0.59672 0.75001 0.0
C1305 C 0.76513 0.61169 0.74083 0.0
C1306 C 0.76541 0.6236 0.72205 0.0
C1307 C 0.74551 0.62051 0.71283 0.0
C1308 C 0.72572 0.60556 0.72203 0.0
H1309 H 0.70189 0.52625 0.7416 0.0
H1310 H 0.71871 0.55274 0.72844 0.0
H1311 H 0.72488 0.54782 0.75533 0.0
H1312 H 0.74556 0.58779 0.7645 0.0
H1313 H 0.78023 0.61387 0.74839 0.0
H1314 H 0.54446 0.16816 0.82952 0.0
H1315 H 0.51246 0.1714 0.81585 0.0
H1316 H 0.51059 0.13723 0.7601 0.0
H1317 H 0.5419 0.13353 0.77399 0.0
H1318 H 0.50743 0.19181 0.77809 0.0
H1319 H 0.44839 0.1016 0.78084 0.0
H1320 H 0.47447 0.11324 0.79485 0.0
H1321 H 0.4725 0.10758 0.76728 0.0
C1322 C 0.53707 0.16144 0.81437 0.0
C1323 C 0.54552 0.15081 0.80261 0.0
C1324 C 0.51892 0.16324 0.80662 0.0
C1325 C 0.50902 0.1542 0.78716 0.0
C1326 C 0.51775 0.1439 0.77533 0.0
H1327 H 0.43337 0.18342 0.69504 0.0
H1328 H 0.46117 0.17977 0.71724 0.0
C1329 C 0.53575 0.14208 0.78308 0.0
C1330 C 0.4899 0.15591 0.77864 0.0
H1331 H 0.43872 0.12455 0.75757 0.0
C1332 C 0.49225 0.17714 0.77389 0.0
C1333 C 0.47003 0.13671 0.77356 0.0
C1334 C 0.46609 0.1135 0.77961 0.0
C1335 C 0.47564 0.17968 0.76303 0.0
C1336 C 0.45648 0.16047 0.75643 0.0
C1337 C 0.45362 0.13925 0.76231 0.0
C1338 C 0.43954 0.16201 0.7428 0.0
C1339 C 0.47883 0.20289 0.75853 0.0
C1340 C 0.41802 0.15233 0.74947 0.0
C1341 C 0.40208 0.15403 0.73666 0.0
C1342 C 0.40748 0.16543 0.71704 0.0
C1343 C 0.42886 0.17455 0.71012 0.0
C1344 C 0.44476 0.17271 0.72287 0.0
H1345 H 0.49076 0.21492 0.7699 0.0
H1346 H 0.48529 0.20859 0.74252 0.0
H1347 H 0.4632 0.20322 0.75918 0.0
H1348 H 0.41367 0.14386 0.76474 0.0
H1349 H 0.38571 0.14703 0.74241 0.0
H1350 H 0.92481 0.4223 0.75295 0.0
H1351 H 0.91603 0.38541 0.74069 0.0
H1352 H 0.84741 0.3646 0.74307 0.0
H1353 H 0.85633 0.40161 0.75512 0.0
H1354 H 0.89368 0.34507 0.76086 0.0
H1355 H 0.8508 0.34512 0.68508 0.0
H1356 H 0.86686 0.37012 0.69967 0.0
H1357 H 0.83958 0.3506 0.70729 0.0
C1358 C 0.90789 0.40982 0.75067 0.0
C1359 C 0.89123 0.4147 0.75485 0.0
C1360 C 0.90287 0.3888 0.74368 0.0
C1361 C 0.88105 0.37226 0.74065 0.0
C1362 C 0.86436 0.3772 0.74477 0.0
H1363 H 0.8179 0.23157 0.71178 0.0
H1364 H 0.82659 0.26923 0.72097 0.0
C1365 C 0.86942 0.39827 0.7517 0.0
C1366 C 0.87585 0.3496 0.73416 0.0
H1367 H 0.84858 0.31055 0.69683 0.0
C1368 C 0.88394 0.33761 0.74678 0.0
C1369 C 0.86307 0.33977 0.71581 0.0
C1370 C 0.85473 0.35213 0.70106 0.0
C1371 C 0.87934 0.316 0.74176 0.0
C1372 C 0.86653 0.30618 0.72347 0.0
C1373 C 0.85839 0.3181 0.71085 0.0
C1374 C 0.86133 0.28347 0.71727 0.0
C1375 C 0.88784 0.30365 0.75633 0.0
C1376 C 0.87793 0.279 0.71179 0.0
C1377 C 0.87303 0.25747 0.70645 0.0
C1378 C 0.85139 0.23993 0.70645 0.0
C1379 C 0.83475 0.2446 0.71162 0.0
C1380 C 0.83967 0.26615 0.71687 0.0
H1381 H 0.89307 0.31134 0.77199 0.0
H1382 H 0.87522 0.28593 0.75859 0.0
H1383 H 0.90214 0.30401 0.74927 0.0
H1384 H 0.89472 0.29218 0.71168 0.0
H1385 H 0.88627 0.25457 0.70253 0.0
H1386 H 0.16523 0.97859 0.58398 0.0
H1387 H 0.19394 0.01404 0.59719 0.0
H1388 H 0.18848 0.9836 0.65933 0.0
H1389 H 0.16148 0.94757 0.64547 0.0
H1390 H 0.19639 0.04161 0.62264 0.0
H1391 H 0.25182 0.01097 0.65583 0.0
H1392 H 0.2278 0.9937 0.64022 0.0
H1393 H 0.22588 0.99667 0.66793 0.0
C1394 C 0.17052 0.9794 0.60035 0.0
C1395 C 0.1614 0.9602 0.61358 0.0
C1396 C 0.18678 0.99975 0.608 0.0
C1397 C 0.19398 1.00156 0.62922 0.0
C1398 C 0.18397 0.98262 0.64274 0.0
H1399 H 0.27139 0.13471 0.68161 0.0
H1400 H 0.24182 0.09835 0.67108 0.0
C1401 C 0.16816 0.96208 0.63491 0.0
C1402 C 0.21172 0.02333 0.63705 0.0
H1403 H 0.26011 0.04742 0.66521 0.0
C1404 C 0.2104 0.04284 0.63182 0.0
C1405 C 0.23032 0.02523 0.64874 0.0
C1406 C 0.23418 1.00556 0.65329 0.0
C1407 C 0.22697 0.06399 0.63781 0.0
C1408 C 0.24496 0.06573 0.65049 0.0
C1409 C 0.24628 0.04622 0.65575 0.0
C1410 C 0.26293 0.08756 0.65791 0.0
C1411 C 0.2253 0.08421 0.62966 0.0
C1412 C 0.28485 0.09332 0.65523 0.0
C1413 C 0.3018 0.11374 0.66206 0.0
C1414 C 0.29721 0.12907 0.67134 0.0
C1415 C 0.27537 0.12331 0.67423 0.0
C1416 C 0.25844 0.1026 0.66799 0.0
H1417 H 0.21518 0.08071 0.61486 0.0
H1418 H 0.21732 0.08892 0.6415 0.0
H1419 H 0.2416 0.09863 0.62654 0.0
H1420 H 0.2889 0.08211 0.64759 0.0
H1421 H 0.3185 0.11779 0.65955 0.0
H1422 H 0.07715 0.24164 0.62461 0.0
H1423 H 0.04395 0.22682 0.64466 0.0
H1424 H 0.02476 0.16054 0.62436 0.0
H1425 H 0.05817 0.17575 0.60385 0.0
H1426 H 0.99282 0.1724 0.61754 0.0
H1427 H 0.02496 0.1904 0.69925 0.0
H1428 H 0.03916 0.21466 0.68252 0.0
H1429 H 0.04106 0.18989 0.67824 0.0
C1430 C 0.06585 0.22391 0.62463 0.0
C1431 C 0.0698 0.20974 0.61273 0.0
C1432 C 0.04712 0.2154 0.63627 0.0
C1433 C 0.03218 0.19252 0.63633 0.0
C1434 C 0.0363 0.1782 0.6247 0.0
H1435 H 0.9186 0.16418 0.70942 0.0
H1436 H 0.94925 0.1606 0.69721 0.0
C1437 C 0.05517 0.1868 0.61302 0.0
C1438 C 0.01124 0.18449 0.64661 0.0
H1439 H 0.99068 0.19102 0.69137 0.0
C1440 C 0.99217 0.17585 0.63386 0.0
C1441 C 0.01037 0.18859 0.66797 0.0
C1442 C 0.02999 0.19616 0.68281 0.0
C1443 C 0.97265 0.1732 0.6414 0.0
C1444 C 0.97249 0.17987 0.66202 0.0
C1445 C 0.991 0.18645 0.67538 0.0
C1446 C 0.95397 0.18188 0.66941 0.0
C1447 C 0.95268 0.16414 0.62693 0.0
C1448 C 0.94697 0.19556 0.65812 0.0
C1449 C 0.9295 0.19758 0.66501 0.0
C1450 C 0.91905 0.18623 0.68347 0.0
C1451 C 0.92651 0.17316 0.69516 0.0
C1452 C 0.94389 0.171 0.68817 0.0
H1453 H 0.95304 0.15255 0.61559 0.0
H1454 H 0.93744 0.15523 0.63584 0.0
H1455 H 0.95241 0.17819 0.61766 0.0
H1456 H 0.955 0.20464 0.64395 0.0
H1457 H 0.92399 0.20773 0.65575 0.0
H1458 H 0.811 0.87447 0.58497 0.0
H1459 H 0.81776 0.84306 0.59469 0.0
H1460 H 0.7728 0.82369 0.6452 0.0
H1461 H 0.76601 0.85498 0.63527 0.0
H1462 H 0.83473 0.83773 0.63484 0.0
H1463 H 0.75461 0.76408 0.61711 0.0
H1464 H 0.76228 0.79158 0.60593 0.0
H1465 H 0.75336 0.78459 0.63257 0.0
C1466 C 0.80211 0.86303 0.59769 0.0
C1467 C 0.78772 0.86676 0.60918 0.0
C1468 C 0.80609 0.84525 0.60337 0.0
C1469 C 0.79558 0.83082 0.62053 0.0
C1470 C 0.78076 0.83427 0.63166 0.0
H1471 H 0.80502 0.72296 0.69053 0.0
H1472 H 0.79515 0.751 0.67651 0.0
C1473 C 0.77691 0.85211 0.62604 0.0
C1474 C 0.80143 0.81336 0.62793 0.0
H1475 H 0.78037 0.75726 0.63742 0.0
C1476 C 0.8229 0.82011 0.63523 0.0
C1477 C 0.78593 0.79041 0.62866 0.0
C1478 C 0.76279 0.78213 0.6205 0.0
C1479 C 0.8292 0.80462 0.64365 0.0
C1480 C 0.81372 0.78161 0.64432 0.0
C1481 C 0.79224 0.77486 0.63693 0.0
C1482 C 0.81954 0.76434 0.65263 0.0
C1483 C 0.85222 0.81319 0.65236 0.0
C1484 C 0.83629 0.7622 0.64369 0.0
C1485 C 0.8421 0.74635 0.6518 0.0
C1486 C 0.83109 0.73202 0.66887 0.0
C1487 C 0.81393 0.73379 0.67747 0.0
C1488 C 0.80824 0.74979 0.66943 0.0
H1489 H 0.85984 0.83106 0.65631 0.0
H1490 H 0.85266 0.80346 0.66673 0.0
H1491 H 0.86225 0.81162 0.64034 0.0
H1492 H 0.84486 0.77274 0.63035 0.0
H1493 H 0.85514 0.74524 0.64451 0.0
H1494 H 0.10642 0.87951 0.63624 0.0
H1495 H 0.07127 0.84719 0.64434 0.0
H1496 H 0.04697 0.85174 0.58152 0.0
H1497 H 0.08191 0.88504 0.57391 0.0
H1498 H 0.01808 0.84616 0.6088 0.0
H1499 H 0.04458 0.78363 0.62926 0.0
H1500 H 0.05944 0.80764 0.64505 0.0
H1501 H 0.06238 0.81026 0.61689 0.0
C1502 C 0.09356 0.87354 0.62419 0.0
C1503 C 0.09682 0.88477 0.6045 0.0
C1504 C 0.07356 0.85486 0.6287 0.0
C1505 C 0.05648 0.84663 0.61343 0.0
C1506 C 0.0599 0.85761 0.59354 0.0
H1507 H 0.93624 0.72187 0.64211 0.0
H1508 H 0.97051 0.74959 0.62629 0.0
C1509 C 0.0799 0.8765 0.58911 0.0
C1510 C 0.0347 0.82766 0.61885 0.0
H1511 H 0.00983 0.77573 0.64257 0.0
C1512 C 0.01627 0.83065 0.61592 0.0
C1513 C 0.03207 0.80714 0.62776 0.0
C1514 C 0.05066 0.80189 0.62969 0.0
C1515 C 0.9956 0.81421 0.62248 0.0
C1516 C 0.99335 0.79447 0.63294 0.0
C1517 C 0.01155 0.79101 0.63496 0.0
C1518 C 0.97248 0.77756 0.64241 0.0
C1519 C 0.97639 0.81819 0.61799 0.0
C1520 C 0.96236 0.78388 0.65709 0.0
C1521 C 0.94275 0.76813 0.66596 0.0
C1522 C 0.93295 0.74565 0.66057 0.0
C1523 C 0.94338 0.73913 0.64644 0.0
C1524 C 0.96295 0.75496 0.6374 0.0
H1525 H 0.97913 0.82964 0.60408 0.0
H1526 H 0.96115 0.80235 0.61509 0.0
H1527 H 0.97414 0.82611 0.63172 0.0
H1528 H 0.9697 0.80103 0.6618 0.0
H1529 H 0.93521 0.7736 0.677 0.0
H1530 H 0.13728 0.20256 0.5851 0.0
H1531 H 0.17381 0.20783 0.59449 0.0
H1532 H 0.19516 0.27629 0.60896 0.0
H1533 H 0.15827 0.27057 0.60054 0.0
H1534 H 0.21636 0.23636 0.58315 0.0
H1535 H 0.20185 0.24887 0.66534 0.0
H1536 H 0.18065 0.2396 0.64505 0.0
H1537 H 0.20107 0.26847 0.6459 0.0
C1538 C 0.14996 0.21877 0.58998 0.0
C1539 C 0.14513 0.23608 0.5924 0.0
C1540 C 0.17076 0.22184 0.5952 0.0
C1541 C 0.187 0.24233 0.60281 0.0
C1542 C 0.18269 0.26024 0.60348 0.0
H1543 H 0.31344 0.2514 0.64216 0.0
H1544 H 0.28684 0.26104 0.62492 0.0
C1545 C 0.16178 0.25707 0.59848 0.0
C1546 C 0.20735 0.24385 0.61224 0.0
H1547 H 0.23395 0.24769 0.6596 0.0
C1548 C 0.22045 0.23915 0.5998 0.0
C1549 C 0.21234 0.24718 0.63405 0.0
C1550 C 0.19819 0.25113 0.64845 0.0
C1551 C 0.23804 0.23691 0.60873 0.0
C1552 C 0.24282 0.23994 0.63058 0.0
C1553 C 0.23024 0.2455 0.64284 0.0
C1554 C 0.25929 0.23519 0.64148 0.0
C1555 C 0.25059 0.23012 0.59497 0.0
C1556 C 0.25267 0.218 0.65695 0.0
C1557 C 0.2678 0.21269 0.66697 0.0
C1558 C 0.28977 0.22449 0.66161 0.0
C1559 C 0.29653 0.24204 0.64648 0.0
C1560 C 0.28137 0.24744 0.63653 0.0
H1561 H 0.24209 0.22416 0.57951 0.0
H1562 H 0.26682 0.24469 0.59201 0.0
H1563 H 0.25317 0.21672 0.60289 0.0
H1564 H 0.23567 0.20839 0.661 0.0
H1565 H 0.26222 0.19907 0.67857 0.0
H1566 H 0.77994 0.92593 0.65045 0.0
H1567 H 0.787 0.9611 0.66539 0.0
H1568 H 0.81237 0.99545 0.60613 0.0
H1569 H 0.80733 0.96075 0.59204 0.0
H1570 H 0.83586 0.02051 0.63489 0.0
H1571 H 0.75088 0.99046 0.65763 0.0
H1572 H 0.76222 0.97456 0.67092 0.0
H1573 H 0.75847 0.97387 0.64265 0.0
C1574 C 0.78734 0.94109 0.6408 0.0
C1575 C 0.79285 0.94056 0.62 0.0
C1576 C 0.79099 0.96114 0.64919 0.0
C1577 C 0.79956 0.98096 0.63673 0.0
C1578 C 0.80551 0.98045 0.61608 0.0
H1579 H 0.78971 0.09868 0.6655 0.0
H1580 H 0.78388 0.06284 0.65332 0.0
C1581 C 0.80241 0.96056 0.60792 0.0
C1582 C 0.80274 1.00232 0.64512 0.0
H1583 H 0.77737 0.02581 0.67035 0.0
C1584 C 0.82298 0.02163 0.64252 0.0
C1585 C 0.78589 1.00408 0.65477 0.0
C1586 C 0.7631 0.98469 0.65645 0.0
C1587 C 0.82684 0.04248 0.6492 0.0
C1588 C 0.81039 0.044 0.65989 0.0
C1589 C 0.79014 0.02471 0.66246 0.0
C1590 C 0.81362 0.06548 0.66799 0.0
C1591 C 0.84827 0.06271 0.64392 0.0
C1592 C 0.83198 0.07879 0.68073 0.0
C1593 C 0.83559 0.09953 0.6872 0.0
C1594 C 0.82049 0.10701 0.68179 0.0
C1595 C 0.80156 0.09325 0.66999 0.0
C1596 C 0.79825 0.07277 0.66301 0.0
H1597 H 0.85547 0.05999 0.62996 0.0
H1598 H 0.84631 0.07772 0.64062 0.0
H1599 H 0.86004 0.06602 0.65738 0.0
H1600 H 0.84367 0.07327 0.68557 0.0
H1601 H 0.85021 0.1097 0.6965 0.0
H1602 H 0.55333 0.40629 0.77031 0.0
H1603 H 0.52548 0.37162 0.75418 0.0
H1604 H 0.48166 0.39919 0.74679 0.0
H1605 H 0.50963 0.43381 0.76273 0.0
H1606 H 0.48301 0.34334 0.76933 0.0
H1607 H 0.47937 0.37535 0.68802 0.0
H1608 H 0.50192 0.39037 0.70626 0.0
H1609 H 0.47672 0.39086 0.7085 0.0
C1610 C 0.53785 0.40494 0.76487 0.0
C1611 C 0.53358 0.42264 0.76744 0.0
C1612 C 0.52195 0.3852 0.75578 0.0
C1613 C 0.50158 0.38292 0.749 0.0
C1614 C 0.49739 0.40071 0.7515 0.0
H1615 H 0.38117 0.27515 0.69719 0.0
H1616 H 0.41026 0.31077 0.70998 0.0
C1617 C 0.51325 0.42039 0.76066 0.0
C1618 C 0.48433 0.36154 0.74034 0.0
H1619 H 0.45205 0.33849 0.69662 0.0
C1620 C 0.47633 0.34224 0.75339 0.0
C1621 C 0.4755 0.36017 0.7196 0.0
C1622 C 0.4839 0.38023 0.70467 0.0
C1623 C 0.45951 0.32168 0.74641 0.0
C1624 C 0.45076 0.32024 0.7256 0.0
C1625 C 0.45875 0.33958 0.71255 0.0
C1626 C 0.43338 0.29879 0.71711 0.0
C1627 C 0.45086 0.30184 0.76162 0.0
C1628 C 0.43684 0.28032 0.71638 0.0
C1629 C 0.42024 0.25992 0.70916 0.0
C1630 C 0.39983 0.25756 0.70226 0.0
C1631 C 0.39664 0.2763 0.70238 0.0
C1632 C 0.41326 0.29671 0.70971 0.0
H1633 H 0.45473 0.30703 0.77825 0.0
H1634 H 0.43292 0.29138 0.75957 0.0
H1635 H 0.45854 0.29143 0.75868 0.0
H1636 H 0.45239 0.28164 0.72149 0.0
H1637 H 0.42341 0.24595 0.70916 0.0
H1638 H 0.59193 0.12713 0.77121 0.0
H1639 H 0.62246 0.12611 0.75548 0.0
H1640 H 0.66011 0.14801 0.81368 0.0
H1641 H 0.62956 0.14987 0.82913 0.0
H1642 H 0.68255 0.17235 0.77971 0.0
H1643 H 0.64552 0.08255 0.76399 0.0
H1644 H 0.62895 0.09417 0.7531 0.0
H1645 H 0.63346 0.09338 0.7812 0.0
C1646 C 0.60678 0.13176 0.78053 0.0
C1647 C 0.60878 0.13898 0.80113 0.0
C1648 C 0.62404 0.13084 0.77171 0.0
C1649 C 0.64341 0.13669 0.78352 0.0
C1650 C 0.64521 0.14333 0.80437 0.0
H1651 H 0.75001 0.12308 0.73628 0.0
H1652 H 0.71908 0.11872 0.75579 0.0
C1653 C 0.6279 0.14435 0.81317 0.0
C1654 C 0.66224 0.13752 0.77337 0.0
H1655 H 0.67707 0.10714 0.74405 0.0
C1656 C 0.68148 0.15804 0.77213 0.0
C1657 C 0.66084 0.11875 0.76373 0.0
C1658 C 0.64115 0.09593 0.76576 0.0
C1659 C 0.69915 0.16049 0.76082 0.0
C1660 C 0.6972 0.14207 0.75004 0.0
C1661 C 0.67829 0.12135 0.75196 0.0
C1662 C 0.71491 0.14383 0.73721 0.0
C1663 C 0.71977 0.18272 0.76065 0.0
C1664 C 0.72231 0.15892 0.71989 0.0
C1665 C 0.74006 0.1615 0.70874 0.0
C1666 C 0.75039 0.14884 0.71468 0.0
C1667 C 0.74229 0.13302 0.73138 0.0
C1668 C 0.72467 0.13054 0.74256 0.0
H1669 H 0.72073 0.19294 0.77405 0.0
H1670 H 0.73446 0.18048 0.76141 0.0
H1671 H 0.72003 0.19215 0.74585 0.0
H1672 H 0.71462 0.16896 0.71526 0.0
H1673 H 0.74605 0.17378 0.69589 0.0
H1674 H 0.86065 0.4707 0.76356 0.0
H1675 H 0.85663 0.50387 0.75446 0.0
H1676 H 0.92661 0.54457 0.75505 0.0
H1677 H 0.93055 0.51129 0.76401 0.0
H1678 H 0.87491 0.54652 0.77638 0.0
H1679 H 0.90452 0.55544 0.69514 0.0
H1680 H 0.89503 0.52981 0.71068 0.0
H1681 H 0.92139 0.55302 0.71631 0.0
C1682 C 0.8751 0.48678 0.7618 0.0
C1683 C 0.89589 0.48855 0.7643 0.0
C1684 C 0.87283 0.50568 0.75668 0.0
C1685 C 0.89132 0.52663 0.75381 0.0
C1686 C 0.91213 0.52852 0.75694 0.0
H1687 H 0.90068 0.65291 0.70465 0.0
H1688 H 0.90927 0.62384 0.71823 0.0
C1689 C 0.91439 0.50962 0.76219 0.0
C1690 C 0.88872 0.54632 0.74706 0.0
H1691 H 0.89516 0.58216 0.70524 0.0
C1692 C 0.8794 0.55438 0.76086 0.0
C1693 C 0.89471 0.55662 0.72685 0.0
C1694 C 0.90435 0.54828 0.71125 0.0
C1695 C 0.87588 0.57249 0.755 0.0
C1696 C 0.88128 0.58243 0.73453 0.0
C1697 C 0.89099 0.57458 0.72089 0.0
C1698 C 0.8762 0.60033 0.72667 0.0
C1699 C 0.86668 0.58095 0.77093 0.0
C1700 C 0.85472 0.59674 0.72656 0.0
C1701 C 0.84978 0.61333 0.71893 0.0
C1702 C 0.86616 0.63386 0.71088 0.0
C1703 C 0.88764 0.63733 0.71069 0.0
C1704 C 0.89259 0.62072 0.71848 0.0
H1705 H 0.87029 0.57688 0.78729 0.0
H1706 H 0.8733 0.59928 0.76917 0.0
H1707 H 0.84868 0.57279 0.76865 0.0
H1708 H 0.84165 0.58096 0.7322 0.0
H1709 H 0.83302 0.60992 0.71925 0.0
H1710 H 0.45364 0.88579 0.18319 0.0
H1711 H 0.47397 0.91966 0.16128 0.0
H1712 H 0.47398 0.95972 0.21144 0.0
H1713 H 0.45258 0.92562 0.23265 0.0
H1714 H 0.4611 0.97144 0.17727 0.0
H1715 H 0.53524 0.96796 0.15906 0.0
H1716 H 0.51175 0.94232 0.15204 0.0
H1717 H 0.51713 0.95015 0.17923 0.0
C1718 C 0.45852 0.90195 0.18953 0.0
C1719 C 0.45194 0.90343 0.20945 0.0
C1720 C 0.47023 0.92128 0.17717 0.0
C1721 C 0.47592 0.94234 0.18486 0.0
C1722 C 0.46994 0.94372 0.20521 0.0
H1723 H 0.54591 0.0465 0.09005 0.0
H1724 H 0.53797 0.03027 0.12589 0.0
C1725 C 0.45787 0.92438 0.21733 0.0
C1726 C 0.48575 0.96251 0.1708 0.0
H1727 H 0.52382 0.98824 0.13331 0.0
C1728 C 0.47515 0.97543 0.16801 0.0
C1729 C 0.50441 0.9682 0.15907 0.0
C1730 C 0.5179 0.95654 0.16272 0.0
C1731 C 0.4817 0.99277 0.15274 0.0
C1732 C 0.4988 0.99677 0.13941 0.0
C1733 C 0.51046 0.985 0.14328 0.0
C1734 C 0.50313 0.01082 0.11986 0.0
C1735 C 0.46989 1.00626 0.15082 0.0
C1736 C 0.48611 1.00616 0.10489 0.0
C1737 C 0.49063 0.01579 0.08467 0.0
C1738 C 0.51219 0.02968 0.07892 0.0
C1739 C 0.5291 0.03582 0.09423 0.0
C1740 C 0.52459 0.02642 0.11462 0.0
H1741 H 0.46466 1.00798 0.16648 0.0
H1742 H 0.48022 0.02317 0.14383 0.0
H1743 H 0.45495 0.99746 0.14072 0.0
H1744 H 0.46948 0.99393 0.10832 0.0
H1745 H 0.47738 0.01156 0.07322 0.0
H1746 H 0.13135 0.56675 0.21903 0.0
H1747 H 0.11242 0.55351 0.18491 0.0
H1748 H 0.05264 0.51149 0.21678 0.0
H1749 H 0.07178 0.52474 0.25094 0.0
H1750 H 0.07223 0.50049 0.1696 0.0
H1751 H 0.05627 0.57181 0.1783 0.0
H1752 H 0.08128 0.57301 0.18862 0.0
H1753 H 0.0561 0.55475 0.20097 0.0
C1754 C 0.11445 0.55381 0.21869 0.0
C1755 C 0.10301 0.54645 0.23744 0.0
C1756 C 0.10363 0.54636 0.19927 0.0
C1757 C 0.08116 0.53153 0.19835 0.0
C1758 C 0.07005 0.52275 0.21719 0.0
H1759 H 0.98759 0.52102 0.09897 0.0
H1760 H 0.00593 0.51973 0.13242 0.0
C1761 C 0.08095 0.53016 0.23666 0.0
C1762 C 0.06881 0.52856 0.17805 0.0
H1763 H 0.04324 0.55184 0.14735 0.0
C1764 C 0.06577 0.51159 0.16469 0.0
C1765 C 0.06051 0.54315 0.17175 0.0
C1766 C 0.06361 0.56178 0.18554 0.0
C1767 C 0.05441 0.50874 0.14514 0.0
C1768 C 0.04624 0.52351 0.13873 0.0
C1769 C 0.04937 0.54045 0.15223 0.0
C1770 C 0.03431 0.52191 0.11821 0.0
C1771 C 0.05094 0.48971 0.13176 0.0
C1772 C 0.04401 0.52341 0.09898 0.0
C1773 C 0.03339 0.52393 0.07981 0.0
C1774 C 0.01303 0.52325 0.07954 0.0
C1775 C 1.00325 0.52151 0.09872 0.0
C1776 C 0.01374 0.52078 0.11784 0.0
H1777 H 0.05228 0.47637 0.14134 0.0
H1778 H 0.03472 0.48233 0.12351 0.0
H1779 H 0.06365 0.49601 0.11973 0.0
H1780 H 0.06012 0.52496 0.09877 0.0
H1781 H 0.0415 0.52571 0.06528 0.0
H1782 H 0.43489 0.55571 0.22795 0.0
H1783 H 0.43435 0.53852 0.19477 0.0
H1784 H 0.49139 0.5339 0.21674 0.0
H1785 H 0.49127 0.5502 0.24993 0.0
H1786 H 0.46493 0.55735 0.16707 0.0
H1787 H 0.45837 0.47561 0.18889 0.0
H1788 H 0.45206 0.49095 0.20698 0.0
H1789 H 0.4798 0.49666 0.20439 0.0
C1790 C 0.44671 0.55015 0.22588 0.0
C1791 C 0.46313 0.55419 0.24133 0.0
C1792 C 0.44654 0.54051 0.20692 0.0
C1793 C 0.46273 0.53468 0.20323 0.0
C1794 C 0.47838 0.53765 0.21927 0.0
H1795 H 0.5335 0.55258 0.09403 0.0
H1796 H 0.51626 0.55436 0.12569 0.0
C1797 C 0.47845 0.54713 0.23818 0.0
C1798 C 0.46527 0.52847 0.18187 0.0
H1799 H 0.4778 0.49353 0.15667 0.0
C1800 C 0.46727 0.5431 0.16475 0.0
C1801 C 0.46795 0.50969 0.17855 0.0
C1802 C 0.46417 0.49223 0.19567 0.0
C1803 C 0.47334 0.54033 0.1449 0.0
C1804 C 0.47814 0.52283 0.14219 0.0
C1805 C 0.4746 0.50726 0.15883 0.0
C1806 C 0.48834 0.52143 0.12282 0.0
C1807 C 0.4749 0.55646 0.12712 0.0
C1808 C 0.47887 0.50198 0.11105 0.0
C1809 C 0.48895 0.50082 0.09306 0.0
C1810 C 0.5086 0.51909 0.08654 0.0
C1811 C 0.51826 0.5383 0.09858 0.0
C1812 C 0.50828 0.53943 0.11655 0.0
H1813 H 0.46378 0.56342 0.12933 0.0
H1814 H 0.49178 0.57061 0.12681 0.0
H1815 H 0.47087 0.54837 0.11165 0.0
H1816 H 0.46368 0.48774 0.11576 0.0
H1817 H 0.48156 0.48555 0.08444 0.0
H1818 H 0.95244 0.48434 0.79546 0.0
H1819 H 0.96863 0.50241 0.829 0.0
H1820 H 0.90682 0.49611 0.84487 0.0
H1821 H 0.89066 0.4779 0.81127 0.0
H1822 H 0.96996 0.54128 0.85009 0.0
H1823 H 0.92203 0.45873 0.89098 0.0
H1824 H 0.92629 0.46143 0.86301 0.0
H1825 H 0.90723 0.4685 0.87346 0.0
C1826 C 0.94253 0.48729 0.80599 0.0
C1827 C 0.92037 0.47972 0.80101 0.0
C1828 C 0.95174 0.4976 0.82506 0.0
C1829 C 0.93886 0.50037 0.8395 0.0
C1830 C 0.91699 0.49398 0.83399 0.0
H1831 H 0.96826 0.52165 0.97411 0.0
H1832 H 0.9505 0.51806 0.93929 0.0
C1833 C 0.90782 0.48375 0.81483 0.0
C1834 C 0.94784 0.50792 0.86098 0.0
H1835 H 0.94604 0.48854 0.91178 0.0
C1836 C 0.96463 0.52986 0.86365 0.0
C1837 C 0.94082 0.49296 0.87862 0.0
C1838 C 0.92321 0.46903 0.87652 0.0
C1839 C 0.97472 0.53721 0.88354 0.0
C1840 C 0.96821 0.52202 0.90107 0.0
C1841 C 0.95102 0.50023 0.89841 0.0
C1842 C 0.97971 0.52769 0.92205 0.0
C1843 C 0.99215 0.5612 0.88554 0.0
C1844 C 1.00216 0.53476 0.92405 0.0
C1845 C 0.01241 0.53714 0.94396 0.0
C1846 C 1.00033 0.53214 0.96227 0.0
C1847 C 0.97804 0.52582 0.96029 0.0
C1848 C 0.96785 0.52365 0.94038 0.0
H1849 H 0.98987 0.57209 0.87323 0.0
H1850 H 0.9922 0.56754 0.90125 0.0
H1851 H 0.00833 0.5625 0.88339 0.0
H1852 H 0.0116 0.53743 0.91023 0.0
H1853 H 0.02957 0.54187 0.945 0.0
H1854 H 0.59237 0.4783 0.83487 0.0
H1855 H 0.58944 0.49244 0.86859 0.0
H1856 H 0.53658 0.50205 0.84192 0.0
H1857 H 0.54038 0.48898 0.80812 0.0
H1858 H 0.56042 0.5338 0.86928 0.0
H1859 H 0.54077 0.451 0.90582 0.0
H1860 H 0.56757 0.46621 0.89543 0.0
H1861 H 0.544 0.45666 0.87788 0.0
C1862 C 0.58083 0.48438 0.83606 0.0
C1863 C 0.5667 0.48277 0.81897 0.0
C1864 C 0.57884 0.49203 0.85541 0.0
C1865 C 0.56234 0.49771 0.85803 0.0
C1866 C 0.54935 0.49766 0.84042 0.0
H1867 H 0.48496 0.48033 0.96367 0.0
H1868 H 0.50213 0.47875 0.93183 0.0
C1869 C 0.55154 0.49029 0.82109 0.0
C1870 C 0.55713 0.50185 0.87923 0.0
H1871 H 0.53896 0.47671 0.92736 0.0
C1872 C 0.55593 0.52142 0.88206 0.0
C1873 C 0.55097 0.48555 0.89587 0.0
C1874 C 0.55067 0.46359 0.89363 0.0
C1875 C 0.54817 0.52484 0.90072 0.0
C1876 C 0.54192 0.50848 0.91727 0.0
C1877 C 0.5438 0.48927 0.91471 0.0
C1878 C 0.53174 0.50998 0.93668 0.0
C1879 C 0.54575 0.54543 0.90207 0.0
C1880 C 0.54261 0.52806 0.95012 0.0
C1881 C 0.5326 0.52914 0.9682 0.0
C1882 C 0.51179 0.51194 0.97343 0.0
C1883 C 0.501 0.49386 0.96003 0.0
C1884 C 0.51087 0.49288 0.94189 0.0
H1885 H 0.54621 0.55345 0.88632 0.0
H1886 H 0.53019 0.54138 0.90942 0.0
H1887 H 0.55938 0.55773 0.91194 0.0
H1888 H 0.55884 0.54129 0.94669 0.0
H1889 H 0.54106 0.5435 0.978 0.0
H1890 H 0.58802 0.13121 0.86797 0.0
H1891 H 0.58451 0.09997 0.89084 0.0
H1892 H 0.57493 0.06107 0.83622 0.0
H1893 H 0.57796 0.09247 0.81339 0.0
H1894 H 0.54182 0.04086 0.86131 0.0
H1895 H 0.61549 0.06667 0.91185 0.0
H1896 H 0.60852 0.08859 0.91062 0.0
H1897 H 0.61585 0.08082 0.88691 0.0
C1898 C 0.58599 0.11624 0.86097 0.0
C1899 C 0.58331 0.11407 0.83913 0.0
C1900 C 0.58421 0.09846 0.87395 0.0
C1901 C 0.57985 0.07822 0.86527 0.0
C1902 C 0.57862 0.0766 0.84326 0.0
H1903 H 0.50827 0.97582 0.96437 0.0
H1904 H 0.52954 0.98608 0.93194 0.0
C1905 C 0.58039 0.09447 0.83025 0.0
C1906 C 0.57208 0.05801 0.87925 0.0
H1907 H 0.58007 0.04421 0.92992 0.0
C1908 C 0.55056 0.04092 0.87592 0.0
C1909 C 0.58349 0.05777 0.89819 0.0
C1910 C 0.60721 0.07437 0.90194 0.0
C1911 C 0.53917 0.02578 0.89225 0.0
C1912 C 0.54963 0.02789 0.91221 0.0
C1913 C 0.57202 0.04279 0.91459 0.0
C1914 C 0.53667 0.02054 0.93134 0.0
C1915 C 0.51526 1.00957 0.88895 0.0
C1916 C 0.53339 0.0364 0.94118 0.0
C1917 C 0.5213 0.03062 0.95922 0.0
C1918 C 0.51238 1.0089 0.96794 0.0
C1919 C 0.51506 0.99269 0.95784 0.0
C1920 C 0.52727 0.99853 0.93953 0.0
H1921 H 0.51023 1.0079 0.872 0.0
H1922 H 0.51145 0.99291 0.89583 0.0
H1923 H 0.50548 0.01546 0.89714 0.0
H1924 H 0.54029 0.05338 0.93488 0.0
H1925 H 0.5192 0.04334 0.96654 0.0
H1926 H 0.13746 0.24392 0.54715 0.0
H1927 H 0.15512 0.27443 0.52096 0.0
H1928 H 0.13836 0.31588 0.55599 0.0
H1929 H 0.12107 0.28544 0.58235 0.0
H1930 H 0.12343 0.31036 0.51347 0.0
H1931 H 0.21133 0.33559 0.52083 0.0
H1932 H 0.1942 0.3059 0.52019 0.0
H1933 H 0.19262 0.32093 0.54176 0.0
C1934 C 0.13806 0.25975 0.54939 0.0
C1935 C 0.12773 0.26241 0.56639 0.0
C1936 C 0.14818 0.27715 0.53458 0.0
C1937 C 0.14817 0.29743 0.53671 0.0
C1938 C 0.13859 0.30038 0.55418 0.0
H1939 H 0.20244 0.39079 0.4276 0.0
H1940 H 0.19294 0.38045 0.46475 0.0
C1941 C 0.12859 0.28302 0.56904 0.0
C1942 C 0.15563 0.31423 0.51928 0.0
H1943 H 0.19833 0.34306 0.48691 0.0
C1944 C 0.13996 0.31805 0.50796 0.0
C1945 C 0.17724 0.32439 0.51231 0.0
C1946 C 0.19488 0.32169 0.52454 0.0
C1947 C 0.1449 0.33018 0.48878 0.0
C1948 C 0.16596 0.33861 0.48088 0.0
C1949 C 0.18216 0.33648 0.49307 0.0
C1950 C 0.17029 0.34588 0.45866 0.0
C1951 C 0.12723 0.33275 0.47644 0.0
C1952 C 0.16068 0.32981 0.44321 0.0
C1953 C 0.16627 0.33552 0.42228 0.0
C1954 C 0.18138 0.35749 0.41638 0.0
C1955 C 0.1906 0.37378 0.43178 0.0
C1956 C 0.18522 0.36794 0.4529 0.0
H1957 H 0.11418 0.33094 0.48682 0.0
H1958 H 0.13404 0.34923 0.46799 0.0
H1959 H 0.11972 0.31961 0.46455 0.0
H1960 H 0.14945 0.31261 0.44748 0.0
H1961 H 0.15935 0.3225 0.41089 0.0
H1962 H 0.73467 0.86509 0.57998 0.0
H1963 H 0.71838 0.85301 0.54486 0.0
H1964 H 0.78266 0.87859 0.52028 0.0
H1965 H 0.79874 0.89178 0.55533 0.0
H1966 H 0.76258 0.89534 0.49841 0.0
H1967 H 0.70481 0.80543 0.50507 0.0
H1968 H 0.69924 0.81975 0.52455 0.0
H1969 H 0.72502 0.81977 0.52551 0.0
C1970 C 0.74515 0.86718 0.56717 0.0
C1971 C 0.76786 0.87895 0.57026 0.0
C1972 C 0.73588 0.86027 0.54708 0.0
C1973 C 0.74921 0.8646 0.52977 0.0
C1974 C 0.77196 0.87494 0.5333 0.0
H1975 H 0.68571 0.82963 0.4033 0.0
H1976 H 0.70637 0.83008 0.43588 0.0
C1977 C 0.78119 0.88222 0.55333 0.0
C1978 C 0.7397 0.86156 0.50785 0.0
H1979 H 0.69678 0.82598 0.47673 0.0
C1980 C 0.74844 0.87997 0.49362 0.0
C1981 C 0.72142 0.8415 0.50124 0.0
C1982 C 0.71227 0.82046 0.51486 0.0
C1983 C 0.73887 0.87927 0.47353 0.0
C1984 C 0.71947 0.85989 0.46766 0.0
C1985 C 0.71137 0.84103 0.48136 0.0
C1986 C 0.70693 0.85934 0.44783 0.0
C1987 C 0.74968 0.89942 0.45884 0.0
C1988 C 0.69998 0.8753 0.44385 0.0
C1989 C 0.68867 0.87533 0.4251 0.0
C1990 C 0.68376 0.8592 0.41003 0.0
C1991 C 0.68994 0.84269 0.41431 0.0
C1992 C 0.7015 0.84279 0.43304 0.0
H1993 H 0.76749 0.90908 0.46242 0.0
H1994 H 0.74717 0.8946 0.44212 0.0
H1995 H 0.74265 0.91059 0.46091 0.0
H1996 H 0.70332 0.88781 0.45527 0.0
H1997 H 0.6839 0.88812 0.42235 0.0
H1998 H 0.13015 0.8705 0.58417 0.0
H1999 H 0.13297 0.85277 0.55258 0.0
H2000 H 0.12417 0.90112 0.51315 0.0
H2001 H 0.12156 0.91876 0.54464 0.0
H2002 H 0.10561 0.83776 0.50958 0.0
H2003 H 0.18897 0.91091 0.5067 0.0
H2004 H 0.17336 0.90226 0.53031 0.0
H2005 H 0.16691 0.91686 0.50933 0.0
C2006 C 0.12802 0.87668 0.56869 0.0
C2007 C 0.12562 0.89585 0.56661 0.0
C2008 C 0.12967 0.86666 0.55073 0.0
C2009 C 0.12891 0.87576 0.53057 0.0
C2010 C 0.12479 0.89386 0.52855 0.0
H2011 H 0.1426 0.84358 0.4039 0.0
H2012 H 0.12792 0.84786 0.43629 0.0
C2013 C 0.12324 0.90387 0.54644 0.0
C2014 C 0.13561 0.86872 0.51196 0.0
H2015 H 0.17753 0.8867 0.47828 0.0
C2016 C 0.12135 0.84834 0.50273 0.0
C2017 C 0.15622 0.88251 0.50324 0.0
C2018 C 0.17239 0.9043 0.51292 0.0
C2019 C 0.12713 0.84156 0.48469 0.0
C2020 C 0.14759 0.85566 0.47566 0.0
C2021 C 0.16187 0.87588 0.48517 0.0
C2022 C 0.15479 0.85006 0.45637 0.0
C2023 C 0.11145 0.81927 0.47565 0.0
C2024 C 0.17483 0.85005 0.45668 0.0
C2025 C 0.18315 0.84761 0.43811 0.0
C2026 C 0.1715 0.84486 0.41888 0.0
C2027 C 0.1513 0.84447 0.41858 0.0
C2028 C 0.14301 0.8471 0.43714 0.0
H2029 H 0.0993 0.80814 0.4873 0.0
H2030 H 0.10245 0.82183 0.46187 0.0
H2031 H 0.12029 0.81078 0.47027 0.0
H2032 H 0.18434 0.85253 0.47125 0.0
H2033 H 0.19892 0.84825 0.43873 0.0
H2034 H 0.62047 0.82771 0.12406 0.0
H2035 H 0.63699 0.84271 0.15853 0.0
H2036 H 0.57419 0.82923 0.17957 0.0
H2037 H 0.55776 0.81441 0.14482 0.0
H2038 H 0.61475 0.87147 0.19546 0.0
H2039 H 0.61742 0.79191 0.20657 0.0
H2040 H 0.62926 0.80756 0.18277 0.0
H2041 H 0.60053 0.79608 0.18639 0.0
C2042 C 0.61046 0.82875 0.13585 0.0
C2043 C 0.58797 0.81997 0.13201 0.0
C2044 C 0.6198 0.8372 0.15549 0.0
C2045 C 0.60674 0.8368 0.17164 0.0
C2046 C 0.58453 0.82971 0.16728 0.0
H2047 H 0.6411 0.8581 0.30681 0.0
H2048 H 0.62275 0.8556 0.27239 0.0
C2049 C 0.57519 0.82134 0.14751 0.0
C2050 C 0.61572 0.84074 0.19356 0.0
H2051 H 0.63609 0.81899 0.2323 0.0
C2052 C 0.61933 0.86001 0.20365 0.0
C2053 C 0.62134 0.82553 0.20425 0.0
C2054 C 0.61679 0.80399 0.19458 0.0
C2055 C 0.62946 0.86498 0.22386 0.0
C2056 C 0.63587 0.85015 0.23417 0.0
C2057 C 0.63146 0.83051 0.22429 0.0
C2058 C 0.64794 0.85475 0.25483 0.0
C2059 C 0.63384 0.88635 0.23369 0.0
C2060 C 0.66814 0.85506 0.25651 0.0
C2061 C 0.67854 0.85646 0.27614 0.0
C2062 C 0.66913 0.8579 0.29449 0.0
C2063 C 0.6492 0.85814 0.29285 0.0
C2064 C 0.63863 0.85652 0.27316 0.0
H2065 H 0.63248 0.89821 0.2219 0.0
H2066 H 0.62171 0.88249 0.24593 0.0
H2067 H 0.65034 0.8946 0.24137 0.0
H2068 H 0.67558 0.85354 0.24263 0.0
H2069 H 0.69378 0.85597 0.27703 0.0
H2070 H 0.21019 0.83115 0.13656 0.0
H2071 H 0.20852 0.84372 0.17138 0.0
H2072 H 0.24661 0.81385 0.19801 0.0
H2073 H 0.24697 0.80021 0.16321 0.0
H2074 H 0.21286 0.79988 0.21929 0.0
H2075 H 0.24518 0.89067 0.21108 0.0
H2076 H 0.22423 0.87724 0.1913 0.0
H2077 H 0.24889 0.87511 0.19119 0.0
C2078 C 0.21895 0.82818 0.14977 0.0
C2079 C 0.22912 0.81523 0.14729 0.0
C2080 C 0.21805 0.83537 0.1697 0.0
C2081 C 0.22772 0.8301 0.18748 0.0
C2082 C 0.2391 0.81829 0.18464 0.0
H2083 H 0.20921 0.87053 0.31134 0.0
H2084 H 0.22683 0.86801 0.27999 0.0
C2085 C 0.23959 0.81073 0.16476 0.0
C2086 C 0.22323 0.83398 0.20914 0.0
H2087 H 0.21915 0.87182 0.23888 0.0
C2088 C 0.21468 0.81579 0.22363 0.0
C2089 C 0.22586 0.85475 0.21522 0.0
C2090 C 0.23679 0.87557 0.20142 0.0
C2091 C 0.20768 0.81744 0.24341 0.0
C2092 C 0.2084 0.8376 0.24865 0.0
C2093 C 0.2181 0.85619 0.23473 0.0
C2094 C 0.19809 0.83924 0.2679 0.0
C2095 C 0.1995 0.79743 0.25843 0.0
C2096 C 0.17602 0.82426 0.2714 0.0
C2097 C 0.16617 0.82539 0.28948 0.0
C2098 C 0.17806 0.84175 0.30434 0.0
C2099 C 0.19992 0.85728 0.30053 0.0
C2100 C 0.20989 0.85601 0.28249 0.0
H2101 H 0.20716 0.78696 0.25561 0.0
H2102 H 0.20285 0.80248 0.2751 0.0
H2103 H 0.18163 0.78695 0.25589 0.0
H2104 H 0.16631 0.81165 0.26009 0.0
H2105 H 0.14922 0.81332 0.29185 0.0
H2106 H 0.21771 0.39823 0.13334 0.0
H2107 H 0.2148 0.37111 0.16159 0.0
H2108 H 0.2464 0.42474 0.20513 0.0
H2109 H 0.25037 0.45174 0.17648 0.0
H2110 H 0.25592 0.39136 0.21544 0.0
H2111 H 0.16642 0.35687 0.20055 0.0
H2112 H 0.18115 0.35493 0.17929 0.0
H2113 H 0.18612 0.38184 0.18721 0.0
C2114 C 0.22469 0.40407 0.14883 0.0
C2115 C 0.23421 0.42679 0.15305 0.0
C2116 C 0.22288 0.38868 0.16494 0.0
C2117 C 0.22981 0.39585 0.18558 0.0
C2118 C 0.24088 0.41882 0.18934 0.0
H2119 H 0.20295 0.37638 0.30878 0.0
H2120 H 0.2195 0.38496 0.27461 0.0
C2121 C 0.24315 0.43422 0.17309 0.0
C2122 C 0.2229 0.37978 0.20374 0.0
H2123 H 0.17762 0.34492 0.23122 0.0
C2124 C 0.2388 0.3808 0.21869 0.0
C2125 C 0.20051 0.36597 0.20796 0.0
C2126 C 0.18253 0.36488 0.19304 0.0
C2127 C 0.23291 0.36962 0.23834 0.0
C2128 C 0.21059 0.35711 0.24302 0.0
C2129 C 0.19472 0.35446 0.22743 0.0
C2130 C 0.20335 0.35072 0.26486 0.0
C2131 C 0.25059 0.37232 0.25437 0.0
C2132 C 0.18854 0.32858 0.27066 0.0
C2133 C 0.17914 0.32356 0.29046 0.0
C2134 C 0.18422 0.34071 0.30443 0.0
C2135 C 0.19914 0.36275 0.29856 0.0
C2136 C 0.20871 0.36769 0.27905 0.0
H2137 H 0.2656 0.37524 0.24658 0.0
H2138 H 0.25486 0.38703 0.26394 0.0
H2139 H 0.24515 0.35742 0.26514 0.0
H2140 H 0.18386 0.31535 0.25969 0.0
H2141 H 0.16755 0.30645 0.29462 0.0
H2142 H 0.76555 0.52681 0.84512 0.0
H2143 H 0.78446 0.55728 0.81913 0.0
H2144 H 0.80799 0.60464 0.86891 0.0
H2145 H 0.78775 0.57437 0.89433 0.0
H2146 H 0.79222 0.61892 0.83802 0.0
H2147 H 0.84724 0.59261 0.80542 0.0
H2148 H 0.81936 0.57154 0.80185 0.0
H2149 H 0.8312 0.57864 0.82805 0.0
C2150 C 0.77518 0.54373 0.85037 0.0
C2151 C 0.77593 0.54834 0.87166 0.0
C2152 C 0.78601 0.56108 0.83563 0.0
C2153 C 0.79805 0.58323 0.84213 0.0
C2154 C 0.79902 0.58769 0.86355 0.0
H2155 H 0.88438 0.68696 0.75655 0.0
H2156 H 0.8692 0.66215 0.78717 0.0
C2157 C 0.78785 0.57041 0.87814 0.0
C2158 C 0.80844 0.60192 0.82655 0.0
H2159 H 0.84241 0.62053 0.78518 0.0
C2160 C 0.80342 0.61943 0.82661 0.0
C2161 C 0.82323 0.60271 0.81184 0.0
C2162 C 0.83073 0.58546 0.81193 0.0
C2163 C 0.81263 0.63762 0.81227 0.0
C2164 C 0.82655 0.63783 0.79688 0.0
C2165 C 0.83166 0.62037 0.79691 0.0
C2166 C 0.83611 0.65584 0.78048 0.0
C2167 C 0.80767 0.65654 0.81415 0.0
C2168 C 0.82279 0.66145 0.76707 0.0
C2169 C 0.83166 0.6763 0.74992 0.0
C2170 C 0.85368 0.68485 0.74541 0.0
C2171 C 0.86724 0.68032 0.7595 0.0
C2172 C 0.85854 0.66602 0.77693 0.0
H2173 H 0.80346 0.65756 0.83051 0.0
H2174 H 0.82168 0.67281 0.8095 0.0
H2175 H 0.79337 0.65359 0.80374 0.0
H2176 H 0.80538 0.65359 0.76919 0.0
H2177 H 0.82104 0.68004 0.7395 0.0
H2178 H 0.45677 0.22216 0.89673 0.0
H2179 H 0.44029 0.21014 0.86137 0.0
H2180 H 0.3775 0.19446 0.88422 0.0
H2181 H 0.39408 0.20666 0.91935 0.0
H2182 H 0.39975 0.16943 0.84317 0.0
H2183 H 0.39694 0.24918 0.84041 0.0
H2184 H 0.41386 0.24344 0.85931 0.0
H2185 H 0.38508 0.23119 0.86305 0.0
C2186 C 0.43932 0.21523 0.89428 0.0
C2187 C 0.42659 0.21523 0.91056 0.0
C2188 C 0.42994 0.2085 0.87413 0.0
C2189 C 0.40773 0.20169 0.87015 0.0
C2190 C 0.39468 0.19978 0.88695 0.0
H2191 H 0.32644 0.1949 0.76116 0.0
H2192 H 0.34189 0.19406 0.79644 0.0
C2193 C 0.40407 0.20658 0.90698 0.0
C2194 C 0.39882 0.19972 0.84821 0.0
H2195 H 0.37998 0.2254 0.81199 0.0
C2196 C 0.39545 0.18164 0.83626 0.0
C2197 C 0.39346 0.21583 0.83922 0.0
C2198 C 0.39765 0.23613 0.85103 0.0
C2199 C 0.3861 0.17885 0.81571 0.0
C2200 C 0.38031 0.19477 0.80689 0.0
C2201 C 0.38416 0.21306 0.8188 0.0
C2202 C 0.37004 0.19293 0.78547 0.0
C2203 C 0.38196 0.15859 0.8039 0.0
C2204 C 0.38066 0.19259 0.76749 0.0
C2205 C 0.37169 0.19288 0.74734 0.0
C2206 C 0.35203 0.19359 0.74479 0.0
C2207 C 0.34147 0.19402 0.76272 0.0
C2208 C 0.35029 0.19354 0.78286 0.0
H2209 H 0.38172 0.1452 0.8147 0.0
H2210 H 0.36624 0.15182 0.79478 0.0
H2211 H 0.39521 0.16335 0.79268 0.0
H2212 H 0.39629 0.19298 0.76898 0.0
H2213 H 0.38078 0.19383 0.73382 0.0
H2214 H 0.76635 0.22461 0.89211 0.0
H2215 H 0.76552 0.20641 0.8595 0.0
H2216 H 0.82018 0.19852 0.88358 0.0
H2217 H 0.82048 0.21607 0.91619 0.0
H2218 H 0.79844 0.22364 0.83255 0.0
H2219 H 0.78306 0.13905 0.85747 0.0
H2220 H 0.77779 0.15627 0.87418 0.0
H2221 H 0.8049 0.1598 0.8729 0.0
C2222 C 0.77761 0.21822 0.89061 0.0
C2223 C 0.79347 0.22163 0.90652 0.0
C2224 C 0.77726 0.20799 0.87199 0.0
C2225 C 0.79265 0.20087 0.86911 0.0
C2226 C 0.8078 0.20335 0.88553 0.0
H2227 H 0.85855 0.17905 0.77284 0.0
H2228 H 0.84309 0.1826 0.80515 0.0
C2229 C 0.80811 0.21351 0.90409 0.0
C2230 C 0.79479 0.19345 0.84822 0.0
H2231 H 0.80173 0.15377 0.82466 0.0
C2232 C 0.79868 0.20812 0.83071 0.0
C2233 C 0.79514 0.17322 0.84579 0.0
C2234 C 0.78977 0.15609 0.86356 0.0
C2235 C 0.80416 0.20377 0.81123 0.0
C2236 C 0.80555 0.18406 0.80912 0.0
C2237 C 0.80077 0.16892 0.82634 0.0
C2238 C 0.81367 0.17984 0.78972 0.0
C2239 C 0.80955 0.22085 0.79338 0.0
C2240 C 0.80211 0.17677 0.77037 0.0
C2241 C 0.81097 0.17474 0.75191 0.0
C2242 C 0.83134 0.17546 0.75254 0.0
C2243 C 0.84267 0.17815 0.77197 0.0
C2244 C 0.83384 0.18012 0.79041 0.0
H2245 H 0.81146 0.23688 0.79869 0.0
H2246 H 0.82484 0.22414 0.78591 0.0
H2247 H 0.79621 0.21432 0.78118 0.0
H2248 H 0.78653 0.17653 0.76944 0.0
H2249 H 0.80248 0.17391 0.7371 0.0
H2250 H 0.29198 0.15313 0.4619 0.0
H2251 H 0.30869 0.16936 0.49584 0.0
H2252 H 0.24858 0.16662 0.51253 0.0
H2253 H 0.23164 0.14944 0.47875 0.0
H2254 H 0.31661 0.20546 0.51765 0.0
H2255 H 0.25601 0.1282 0.55901 0.0
H2256 H 0.25836 0.13023 0.53081 0.0
H2257 H 0.24458 0.14268 0.54317 0.0
C2258 C 0.28253 0.15637 0.47274 0.0
C2259 C 0.26052 0.14982 0.46796 0.0
C2260 C 0.29204 0.16565 0.49209 0.0
C2261 C 0.27973 0.16866 0.50703 0.0
C2262 C 0.25823 0.16389 0.50152 0.0
H2263 H 0.31777 0.19598 0.6409 0.0
H2264 H 0.29983 0.19437 0.6064 0.0
C2265 C 0.24865 0.1544 0.48214 0.0
C2266 C 0.28911 0.17516 0.52872 0.0
H2267 H 0.2833 0.15576 0.57994 0.0
C2268 C 0.30919 0.1947 0.53129 0.0
C2269 C 0.27951 0.16107 0.54658 0.0
C2270 C 0.25854 0.13928 0.54484 0.0
C2271 C 0.32012 0.20023 0.55105 0.0
C2272 C 0.3108 0.18583 0.5687 0.0
C2273 C 0.29035 0.1668 0.56636 0.0
C2274 C 0.32276 0.18915 0.58932 0.0
C2275 C 0.34174 0.22127 0.55288 0.0
C2276 C 0.34154 0.1867 0.59122 0.0
C2277 C 0.35178 0.18771 0.61092 0.0
C2278 C 0.34363 0.19148 0.62907 0.0
C2279 C 0.32498 0.19414 0.62713 0.0
C2280 C 0.31455 0.19288 0.60744 0.0
H2281 H 0.34405 0.23319 0.53946 0.0
H2282 H 0.34314 0.22961 0.56782 0.0
H2283 H 0.35509 0.21696 0.55294 0.0
H2284 H 0.34788 0.18332 0.57753 0.0
H2285 H 0.36595 0.18525 0.61202 0.0
H2286 H 0.89913 0.12153 0.50373 0.0
H2287 H 0.89544 0.13563 0.53693 0.0
H2288 H 0.89595 0.1922 0.50325 0.0
H2289 H 0.89882 0.17738 0.46981 0.0
H2290 H 0.91507 0.17204 0.56067 0.0
H2291 H 0.83597 0.16195 0.52731 0.0
H2292 H 0.85198 0.15263 0.51397 0.0
H2293 H 0.85949 0.18173 0.51327 0.0
C2294 C 0.89913 0.13732 0.50359 0.0
C2295 C 0.89906 0.14831 0.48436 0.0
C2296 C 0.89696 0.14538 0.52252 0.0
C2297 C 0.89477 0.16466 0.5226 0.0
C2298 C 0.89702 0.17696 0.50355 0.0
H2299 H 0.86961 0.20373 0.64472 0.0
H2300 H 0.8877 0.20476 0.61232 0.0
C2301 C 0.89899 0.16873 0.48451 0.0
C2302 C 0.88763 0.17006 0.54213 0.0
H2303 H 0.84453 0.17217 0.56245 0.0
C2304 C 0.89978 0.17235 0.56104 0.0
C2305 C 0.86744 0.17004 0.54271 0.0
C2306 C 0.85282 0.16627 0.52331 0.0
C2307 C 0.89205 0.17401 0.5805 0.0
C2308 C 0.87183 0.17389 0.58102 0.0
C2309 C 0.86006 0.17234 0.56205 0.0
C2310 C 0.86155 0.17346 0.60109 0.0
C2311 C 0.90507 0.1747 0.60039 0.0
C2312 C 0.84071 0.15578 0.60547 0.0
C2313 C 0.83037 0.15528 0.62382 0.0
C2314 C 0.84065 0.1724 0.63828 0.0
C2315 C 0.86151 0.19011 0.63401 0.0
C2316 C 0.87185 0.19069 0.61552 0.0
H2317 H 0.91717 0.1691 0.59777 0.0
H2318 H 0.91406 0.19207 0.60587 0.0
H2319 H 0.89424 0.16401 0.61312 0.0
H2320 H 0.83239 0.14228 0.59464 0.0
H2321 H 0.81432 0.14139 0.62673 0.0
H2322 H 0.91654 0.7838 0.48214 0.0
H2323 H 0.90652 0.75492 0.51001 0.0
H2324 H 0.91719 0.80349 0.55606 0.0
H2325 H 0.92894 0.83271 0.52819 0.0
H2326 H 0.92753 0.7734 0.57255 0.0
H2327 H 0.84646 0.7302 0.53167 0.0
H2328 H 0.86821 0.73271 0.51619 0.0
H2329 H 0.86737 0.75738 0.5232 0.0
C2330 C 0.91785 0.78848 0.49831 0.0
C2331 C 0.9237 0.81043 0.50316 0.0
C2332 C 0.91161 0.77189 0.51419 0.0
C2333 C 0.91038 0.77691 0.535 0.0
C2334 C 0.91781 0.79918 0.54007 0.0
H2335 H 0.82159 0.69279 0.62913 0.0
H2336 H 0.84038 0.71766 0.59939 0.0
C2337 C 0.92452 0.81584 0.52423 0.0
C2338 C 0.89969 0.75889 0.55117 0.0
H2339 H 0.85159 0.71241 0.5625 0.0
C2340 C 0.91094 0.76002 0.57035 0.0
C2341 C 0.87787 0.74168 0.5484 0.0
C2342 C 0.86418 0.74049 0.52886 0.0
C2343 C 0.90093 0.74457 0.58693 0.0
C2344 C 0.87935 0.72699 0.58396 0.0
C2345 C 0.86821 0.72571 0.56467 0.0
C2346 C 0.86745 0.71067 0.60111 0.0
C2347 C 0.91339 0.74775 0.60764 0.0
C2348 C 0.87605 0.69795 0.61159 0.0
C2349 C 0.86548 0.68402 0.62883 0.0
C2350 C 0.84591 0.68219 0.63544 0.0
C2351 C 0.83661 0.69382 0.62419 0.0
C2352 C 0.84739 0.70809 0.60726 0.0
H2353 H 0.92692 0.7651 0.60916 0.0
H2354 H 0.90257 0.74367 0.62116 0.0
H2355 H 0.92062 0.73649 0.60851 0.0
H2356 H 0.89113 0.6991 0.60672 0.0
H2357 H 0.87277 0.67497 0.63721 0.0
loop_
_geom_bond_atom_site_label_1
_geom_bond_atom_site_label_2
_geom_bond_distance
_geom_bond_site_symmetry_2
_ccdc_geom_bond_type
C0 N1 1.317 . S
C0 N2 1.348 . S
C0 C3 1.485 . S
N1 C0 1.317 . S
N1 N5 1.370 . S
N2 C0 1.348 . S
N2 C4 1.346 . S
C3 C0 1.485 . S
C3 H7 0.960 . S
C3 H8 0.961 . S
C3 H9 0.960 . S
C4 N2 1.346 . S
C4 N5 1.307 . S
C4 C6 1.486 . S
N5 N1 1.370 . S
N5 C4 1.307 . S
C6 C4 1.486 . S
C6 H10 0.960 . S
C6 H11 0.960 . S
C6 H12 0.959 . S
H7 C3 0.960 . S
H8 C3 0.961 . S
H9 C3 0.960 . S
H10 C6 0.960 . S
H11 C6 0.960 . S
H12 C6 0.959 . S
C13 N14 1.317 . S
C13 N15 1.348 . S
C13 C16 1.485 . S
N14 C13 1.317 . S
N14 N18 1.370 . S
N15 C13 1.348 . S
N15 C17 1.346 . S
C16 C13 1.485 . S
C16 H20 0.960 . S
C16 H21 0.961 . S
C16 H22 0.960 . S
C17 N15 1.346 . S
C17 N18 1.307 . S
C17 C19 1.486 . S
N18 N14 1.370 . S
N18 C17 1.307 . S
C19 C17 1.486 . S
C19 H23 0.960 . S
C19 H24 0.960 . S
C19 H25 0.959 . S
H20 C16 0.960 . S
H21 C16 0.961 . S
H22 C16 0.960 . S
H23 C19 0.960 . S
H24 C19 0.960 . S
H25 C19 0.959 . S
C26 N27 1.317 . S
C26 N28 1.348 . S
C26 C29 1.485 . S
N27 C26 1.317 . S
N27 N31 1.370 . S
N28 C26 1.348 . S
N28 C30 1.346 . S
C29 C26 1.485 . S
C29 H33 0.960 . S
C29 H34 0.961 . S
C29 H35 0.960 . S
C30 N28 1.346 . S
C30 N31 1.307 . S
C30 C32 1.486 . S
N31 N27 1.370 . S
N31 C30 1.307 . S
C32 C30 1.486 . S
C32 H36 0.960 . S
C32 H37 0.960 . S
C32 H38 0.959 . S
H33 C29 0.960 . S
H34 C29 0.961 . S
H35 C29 0.960 . S
H36 C32 0.960 . S
H37 C32 0.960 . S
H38 C32 0.959 . S
C39 N40 1.317 . S
C39 N41 1.348 . S
C39 C42 1.485 . S
N40 C39 1.317 . S
N40 N44 1.370 . S
N41 C39 1.348 . S
N41 C43 1.346 . S
C42 C39 1.485 . S
C42 H46 0.960 . S
C42 H47 0.961 . S
C42 H48 0.960 . S
C43 N41 1.346 . S
C43 N44 1.307 . S
C43 C45 1.486 . S
N44 N40 1.370 . S
N44 C43 1.307 . S
C45 C43 1.486 . S
C45 H49 0.960 . S
C45 H50 0.960 . S
C45 H51 0.959 . S
H46 C42 0.960 . S
H47 C42 0.961 . S
H48 C42 0.960 . S
H49 C45 0.960 . S
H50 C45 0.960 . S
H51 C45 0.959 . S
C52 N53 1.317 . S
C52 N54 1.348 . S
C52 C55 1.485 . S
N53 C52 1.317 . S
N53 N57 1.370 . S
N54 C52 1.348 . S
N54 C56 1.346 . S
C55 C52 1.485 . S
C55 H59 0.960 . S
C55 H60 0.961 . S
C55 H61 0.960 . S
C56 N54 1.346 . S
C56 N57 1.307 . S
C56 C58 1.486 . S
N57 N53 1.370 . S
N57 C56 1.307 . S
C58 C56 1.486 . S
C58 H62 0.960 . S
C58 H63 0.960 . S
C58 H64 0.959 . S
H59 C55 0.960 . S
H60 C55 0.961 . S
H61 C55 0.960 . S
H62 C58 0.960 . S
H63 C58 0.960 . S
H64 C58 0.959 . S
C65 N66 1.317 . S
C65 N67 1.348 . S
C65 C68 1.485 . S
N66 C65 1.317 . S
N66 N70 1.370 . S
N67 C65 1.348 . S
N67 C69 1.346 . S
C68 C65 1.485 . S
C68 H72 0.960 . S
C68 H73 0.961 . S
C68 H74 0.960 . S
C69 N67 1.346 . S
C69 N70 1.307 . S
C69 C71 1.486 . S
N70 N66 1.370 . S
N70 C69 1.307 . S
C71 C69 1.486 . S
C71 H75 0.960 . S
C71 H76 0.960 . S
C71 H77 0.959 . S
H72 C68 0.960 . S
H73 C68 0.961 . S
H74 C68 0.960 . S
H75 C71 0.960 . S
H76 C71 0.960 . S
H77 C71 0.959 . S
C78 N79 1.317 . S
C78 N80 1.348 . S
C78 C81 1.485 . S
N79 C78 1.317 . S
N79 N83 1.370 . S
N80 C78 1.348 . S
N80 C82 1.346 . S
C81 C78 1.485 . S
C81 H85 0.960 . S
C81 H86 0.961 . S
C81 H87 0.960 . S
C82 N80 1.346 . S
C82 N83 1.307 . S
C82 C84 1.486 . S
N83 N79 1.370 . S
N83 C82 1.307 . S
C84 C82 1.486 . S
C84 H88 0.960 . S
C84 H89 0.960 . S
C84 H90 0.959 . S
H85 C81 0.960 . S
H86 C81 0.961 . S
H87 C81 0.960 . S
H88 C84 0.960 . S
H89 C84 0.960 . S
H90 C84 0.959 . S
C91 N92 1.317 . S
C91 N93 1.348 . S
C91 C94 1.485 . S
N92 C91 1.317 . S
N92 N96 1.370 . S
N93 C91 1.348 . S
N93 C95 1.346 . S
C94 C91 1.485 . S
C94 H98 0.960 . S
C94 H99 0.961 . S
C94 H100 0.960 . S
C95 N93 1.346 . S
C95 N96 1.307 . S
C95 C97 1.486 . S
N96 N92 1.370 . S
N96 C95 1.307 . S
C97 C95 1.486 . S
C97 H101 0.960 . S
C97 H102 0.960 . S
C97 H103 0.959 . S
H98 C94 0.960 . S
H99 C94 0.961 . S
H100 C94 0.960 . S
H101 C97 0.960 . S
H102 C97 0.960 . S
H103 C97 0.959 . S
C104 N105 1.317 . S
C104 N106 1.348 . S
C104 C107 1.485 . S
N105 C104 1.317 . S
N105 N109 1.370 . S
N106 C104 1.348 . S
N106 C108 1.346 . S
C107 C104 1.485 . S
C107 H111 0.960 . S
C107 H112 0.961 . S
C107 H113 0.960 . S
C108 N106 1.346 . S
C108 N109 1.307 . S
C108 C110 1.486 . S
N109 N105 1.370 . S
N109 C108 1.307 . S
C110 C108 1.486 . S
C110 H114 0.960 . S
C110 H115 0.960 . S
C110 H116 0.959 . S
H111 C107 0.960 . S
H112 C107 0.961 . S
H113 C107 0.960 . S
H114 C110 0.960 . S
H115 C110 0.960 . S
H116 C110 0.959 . S
C117 N118 1.317 . S
C117 N119 1.348 . S
C117 C120 1.485 . S
N118 C117 1.317 . S
N118 N122 1.370 . S
N119 C117 1.348 . S
N119 C121 1.346 . S
C120 C117 1.485 . S
C120 H124 0.960 . S
C120 H125 0.961 . S
C120 H126 0.960 . S
C121 N119 1.346 . S
C121 N122 1.307 . S
C121 C123 1.486 . S
N122 N118 1.370 . S
N122 C121 1.307 . S
C123 C121 1.486 . S
C123 H127 0.960 . S
C123 H128 0.960 . S
C123 H129 0.959 . S
H124 C120 0.960 . S
H125 C120 0.961 . S
H126 C120 0.960 . S
H127 C123 0.960 . S
H128 C123 0.960 . S
H129 C123 0.959 . S
C130 N131 1.317 . S
C130 N132 1.348 . S
C130 C133 1.485 . S
N131 C130 1.317 . S
N131 N135 1.370 . S
N132 C130 1.348 . S
N132 C134 1.346 . S
C133 C130 1.485 . S
C133 H137 0.960 1_556 S
C133 H138 0.961 1_556 S
C133 H139 0.960 . S
C134 N132 1.346 . S
C134 N135 1.307 . S
C134 C136 1.486 . S
N135 N131 1.370 . S
N135 C134 1.307 . S
C136 C134 1.486 . S
C136 H140 0.960 . S
C136 H141 0.960 . S
C136 H142 0.959 . S
H137 C133 0.960 1_554 S
H138 C133 0.961 1_554 S
H139 C133 0.960 . S
H140 C136 0.960 . S
H141 C136 0.960 . S
H142 C136 0.959 . S
C143 N144 1.317 . S
C143 N145 1.348 . S
C143 C146 1.485 . S
N144 C143 1.317 . S
N144 N148 1.370 . S
N145 C143 1.348 . S
N145 C147 1.346 . S
C146 C143 1.485 . S
C146 H150 0.960 . S
C146 H151 0.961 1_556 S
C146 H152 0.970 . S
C147 N145 1.346 . S
C147 N148 1.307 . S
C147 C149 1.486 . S
N148 N144 1.370 . S
N148 C147 1.307 . S
C149 C147 1.486 . S
C149 H153 0.960 . S
C149 H154 0.960 . S
C149 H155 0.959 . S
H150 C146 0.960 . S
H151 C146 0.961 1_554 S
H152 C146 0.970 . S
H153 C149 0.960 . S
H154 C149 0.960 . S
H155 C149 0.959 . S
C156 N157 1.317 . S
C156 N158 1.348 . S
C156 C159 1.485 . S
N157 C156 1.317 . S
N157 N161 1.370 . S
N158 C156 1.348 . S
N158 C160 1.346 . S
C159 C156 1.485 . S
C159 H163 0.960 . S
C159 H164 0.961 . S
C159 H165 0.960 . S
C160 N158 1.346 . S
C160 N161 1.307 . S
C160 C162 1.486 . S
N161 N157 1.370 . S
N161 C160 1.307 . S
C162 C160 1.486 . S
C162 H166 0.960 . S
C162 H167 0.960 . S
C162 H168 0.959 . S
H163 C159 0.960 . S
H164 C159 0.961 . S
H165 C159 0.960 . S
H166 C162 0.960 . S
H167 C162 0.960 . S
H168 C162 0.959 . S
C169 N170 1.317 . S
C169 N171 1.348 . S
C169 C172 1.485 . S
N170 C169 1.317 . S
N170 N174 1.370 . S
N171 C169 1.348 . S
N171 C173 1.346 . S
C172 C169 1.485 . S
C172 H176 0.960 . S
C172 H177 0.961 . S
C172 H178 0.960 . S
C173 N171 1.346 . S
C173 N174 1.307 . S
C173 C175 1.486 . S
N174 N170 1.370 . S
N174 C173 1.307 . S
C175 C173 1.486 . S
C175 H179 0.960 . S
C175 H180 0.960 . S
C175 H181 0.959 . S
H176 C172 0.960 . S
H177 C172 0.961 . S
H178 C172 0.960 . S
H179 C175 0.960 . S
H180 C175 0.960 . S
H181 C175 0.959 . S
C182 N183 1.317 . S
C182 N184 1.348 . S
C182 C185 1.485 . S
N183 C182 1.317 . S
N183 N187 1.370 . S
N184 C182 1.348 . S
N184 C186 1.346 . S
C185 C182 1.485 . S
C185 H189 0.960 . S
C185 H190 0.961 . S
C185 H191 0.960 . S
C186 N184 1.346 . S
C186 N187 1.307 . S
C186 C188 1.486 . S
N187 N183 1.370 . S
N187 C186 1.307 . S
C188 C186 1.486 . S
C188 H192 0.960 . S
C188 H193 0.960 . S
C188 H194 0.959 . S
H189 C185 0.960 . S
H190 C185 0.961 . S
H191 C185 0.960 . S
H192 C188 0.960 . S
H193 C188 0.960 . S
H194 C188 0.959 . S
C195 N196 1.317 . S
C195 N197 1.348 . S
C195 C198 1.485 . S
N196 C195 1.317 . S
N196 N200 1.370 . S
N197 C195 1.348 . S
N197 C199 1.346 . S
C198 C195 1.485 . S
C198 H202 0.960 . S
C198 H203 0.961 . S
C198 H204 0.960 . S
C199 N197 1.346 . S
C199 N200 1.307 . S
C199 C201 1.486 . S
N200 N196 1.370 . S
N200 C199 1.307 . S
C201 C199 1.486 . S
C201 H205 0.960 . S
C201 H206 0.960 . S
C201 H207 0.959 . S
H202 C198 0.960 . S
H203 C198 0.961 . S
H204 C198 0.960 . S
H205 C201 0.960 . S
H206 C201 0.960 . S
H207 C201 0.959 . S
C208 N209 1.317 . S
C208 N210 1.348 . S
C208 C211 1.485 . S
N209 C208 1.317 . S
N209 N213 1.370 . S
N210 C208 1.348 . S
N210 C212 1.346 . S
C211 C208 1.485 . S
C211 H215 0.960 . S
C211 H216 0.961 . S
C211 H217 0.960 . S
C212 N210 1.346 . S
C212 N213 1.307 . S
C212 C214 1.486 . S
N213 N209 1.370 . S
N213 C212 1.307 . S
C214 C212 1.486 . S
C214 H218 0.960 . S
C214 H219 0.960 . S
C214 H220 0.959 . S
H215 C211 0.960 . S
H216 C211 0.961 . S
H217 C211 0.960 . S
H218 C214 0.960 . S
H219 C214 0.960 . S
H220 C214 0.959 . S
C221 N222 1.317 . S
C221 N223 1.348 . S
C221 C224 1.485 . S
N222 C221 1.317 . S
N222 N226 1.370 . S
N223 C221 1.348 . S
N223 C225 1.346 . S
C224 C221 1.485 . S
C224 H228 0.960 . S
C224 H229 0.961 . S
C224 H230 0.960 . S
C225 N223 1.346 . S
C225 N226 1.307 . S
C225 C227 1.486 . S
N226 N222 1.370 . S
N226 C225 1.307 . S
C227 C225 1.486 . S
C227 H231 0.960 . S
C227 H232 0.960 . S
C227 H233 0.959 . S
H228 C224 0.960 . S
H229 C224 0.961 . S
H230 C224 0.960 . S
H231 C227 0.960 . S
H232 C227 0.960 . S
H233 C227 0.959 . S
Tb234 O237 2.453 . S
Tb234 O238 2.596 1_545 S
Tb234 O239 2.374 1_545 S
Tb234 O247 2.343 . S
Tb234 O249 2.353 . S
Tb234 O251 2.427 . S
Tb234 O252 2.513 . S
C235 O239 1.251 . S
C235 O241 1.263 . S
Tb236 O238 2.343 . S
Tb236 O241 2.353 . S
Tb236 O244 2.427 . S
Tb236 O245 2.513 . S
Tb236 O246 2.453 1_564 S
Tb236 O247 2.596 1_565 S
Tb236 O248 2.374 1_565 S
O237 Tb234 2.453 . S
O237 C253 1.245 1_545 S
O238 Tb234 2.596 1_565 S
O238 Tb236 2.343 . S
O238 C253 1.259 . S
O239 Tb234 2.374 1_565 S
O239 C235 1.251 . S
C240 O244 1.275 . S
C240 O245 1.246 . S
O241 C235 1.263 . S
O241 Tb236 2.353 . S
C242 O246 1.245 . S
C242 O247 1.259 1_556 S
C243 O248 1.250 . S
C243 O249 1.263 . S
O244 Tb236 2.427 . S
O244 C240 1.275 . S
O245 Tb236 2.513 . S
O245 C240 1.246 . S
O246 Tb236 2.453 1_546 S
O246 C242 1.245 . S
O247 Tb234 2.343 . S
O247 Tb236 2.596 1_545 S
O247 C242 1.259 1_554 S
O248 Tb236 2.374 1_545 S
O248 C243 1.250 . S
O249 Tb234 2.353 . S
O249 C243 1.263 . S
C250 O251 1.275 . S
C250 O252 1.246 . S
O251 Tb234 2.427 . S
O251 C250 1.275 . S
O252 Tb234 2.513 . S
O252 C250 1.246 . S
C253 O237 1.245 1_565 S
C253 O238 1.259 . S
Tb254 O257 2.453 . S
Tb254 O258 2.596 1_655 S
Tb254 O259 2.374 1_655 S
Tb254 O267 2.358 1_554 S
Tb254 O269 2.353 . S
Tb254 O271 2.427 1_554 S
Tb254 O272 2.513 1_554 S
C255 O259 1.251 . S
C255 O261 1.263 . S
Tb256 O258 2.353 . S
Tb256 O261 2.355 . S
Tb256 O264 2.433 . S
Tb256 O265 2.520 . S
Tb256 O266 2.443 1_554 S
Tb256 O267 2.567 1_454 S
Tb256 O268 2.375 . S
O257 Tb254 2.453 . S
O257 C273 1.245 1_655 S
O258 Tb254 2.596 1_455 S
O258 Tb256 2.353 . S
O258 C273 1.259 . S
O259 Tb254 2.374 1_455 S
O259 C255 1.251 . S
C260 O264 1.275 . S
C260 O265 1.246 . S
O261 C255 1.263 . S
O261 Tb256 2.355 . S
C262 O266 1.245 . S
C262 O267 1.251 1_455 S
C263 O268 1.250 1_655 S
C263 O269 1.263 . S
O264 Tb256 2.433 . S
O264 C260 1.275 . S
O265 Tb256 2.520 . S
O265 C260 1.246 . S
O266 Tb256 2.443 1_556 S
O266 C262 1.245 . S
O267 Tb254 2.358 1_556 S
O267 Tb256 2.567 1_656 S
O267 C262 1.251 1_655 S
O268 Tb256 2.375 . S
O268 C263 1.250 1_455 S
O269 Tb254 2.353 . S
O269 C263 1.263 . S
C270 O271 1.275 . S
C270 O272 1.246 . S
O271 Tb254 2.427 1_556 S
O271 C270 1.275 . S
O272 Tb254 2.513 1_556 S
O272 C270 1.246 . S
C273 O257 1.245 1_455 S
C273 O258 1.259 . S
Tb274 O277 2.453 1_554 S
Tb274 O278 2.596 . S
Tb274 O279 2.374 . S
Tb274 O287 2.343 . S
Tb274 O289 2.353 . S
Tb274 O291 2.427 . S
Tb274 O292 2.513 . S
C275 O279 1.251 . S
C275 O281 1.263 . S
Tb276 O278 2.343 . S
Tb276 O281 2.353 . S
Tb276 O284 2.427 . S
Tb276 O285 2.513 . S
Tb276 O286 2.453 . S
Tb276 O287 2.596 . S
Tb276 O288 2.374 . S
O277 Tb274 2.453 1_556 S
O277 C293 1.245 . S
O278 Tb274 2.596 . S
O278 Tb276 2.343 . S
O278 C293 1.259 1_554 S
O279 Tb274 2.374 . S
O279 C275 1.251 . S
C280 O284 1.275 . S
C280 O285 1.246 . S
O281 C275 1.263 . S
O281 Tb276 2.353 . S
C282 O286 1.245 . S
C282 O287 1.259 . S
C283 O288 1.250 . S
C283 O289 1.263 . S
O284 Tb276 2.427 . S
O284 C280 1.275 . S
O285 Tb276 2.513 . S
O285 C280 1.246 . S
O286 Tb276 2.453 . S
O286 C282 1.245 . S
O287 Tb274 2.343 . S
O287 Tb276 2.596 . S
O287 C282 1.259 . S
O288 Tb276 2.374 . S
O288 C283 1.250 . S
O289 Tb274 2.353 . S
O289 C283 1.263 . S
C290 O291 1.275 . S
C290 O292 1.246 . S
O291 Tb274 2.427 . S
O291 C290 1.275 . S
O292 Tb274 2.513 . S
O292 C290 1.246 . S
C293 O277 1.245 . S
C293 O278 1.259 1_556 S
Tb294 O297 2.453 . S
Tb294 O298 2.596 . S
Tb294 O299 2.374 . S
Tb294 O307 2.343 . S
Tb294 O309 2.353 . S
Tb294 O311 2.427 . S
Tb294 O312 2.513 . S
C295 O299 1.251 . S
C295 O301 1.263 . S
Tb296 O298 2.343 . S
Tb296 O301 2.353 . S
Tb296 O304 2.427 . S
Tb296 O305 2.513 . S
Tb296 O306 2.453 . S
Tb296 O307 2.596 . S
Tb296 O308 2.374 . S
O297 Tb294 2.453 . S
O297 C313 1.245 . S
O298 Tb294 2.596 . S
O298 Tb296 2.343 . S
O298 C313 1.259 . S
O299 Tb294 2.374 . S
O299 C295 1.251 . S
C300 O304 1.275 . S
C300 O305 1.246 . S
O301 C295 1.263 . S
O301 Tb296 2.353 . S
C302 O306 1.245 . S
C302 O307 1.259 . S
C303 O308 1.250 . S
C303 O309 1.263 . S
O304 Tb296 2.427 . S
O304 C300 1.275 . S
O305 Tb296 2.513 . S
O305 C300 1.246 . S
O306 Tb296 2.453 . S
O306 C302 1.245 . S
O307 Tb294 2.343 . S
O307 Tb296 2.596 . S
O307 C302 1.259 . S
O308 Tb296 2.374 . S
O308 C303 1.250 . S
O309 Tb294 2.353 . S
O309 C303 1.263 . S
C310 O311 1.275 . S
C310 O312 1.246 . S
O311 Tb294 2.427 . S
O311 C310 1.275 . S
O312 Tb294 2.513 . S
O312 C310 1.246 . S
C313 O297 1.245 . S
C313 O298 1.259 . S
Tb314 O317 2.453 . S
Tb314 O318 2.596 . S
Tb314 O319 2.374 . S
Tb314 O327 2.343 . S
Tb314 O329 2.353 . S
Tb314 O331 2.427 . S
Tb314 O332 2.513 . S
C315 O319 1.251 . S
C315 O321 1.263 . S
Tb316 O318 2.343 . S
Tb316 O321 2.353 . S
Tb316 O324 2.427 . S
Tb316 O325 2.513 . S
Tb316 O326 2.453 . S
Tb316 O327 2.596 . S
Tb316 O328 2.374 . S
O317 Tb314 2.453 . S
O317 C333 1.245 . S
O318 Tb314 2.596 . S
O318 Tb316 2.343 . S
O318 C333 1.259 . S
O319 Tb314 2.374 . S
O319 C315 1.251 . S
C320 O324 1.275 . S
C320 O325 1.246 . S
O321 C315 1.263 . S
O321 Tb316 2.353 . S
C322 O326 1.245 . S
C322 O327 1.259 . S
C323 O328 1.250 . S
C323 O329 1.263 . S
O324 Tb316 2.427 . S
O324 C320 1.275 . S
O325 Tb316 2.513 . S
O325 C320 1.246 . S
O326 Tb316 2.453 . S
O326 C322 1.245 . S
O327 Tb314 2.343 . S
O327 Tb316 2.596 . S
O327 C322 1.259 . S
O328 Tb316 2.374 . S
O328 C323 1.250 . S
O329 Tb314 2.353 . S
O329 C323 1.263 . S
C330 O331 1.275 . S
C330 O332 1.246 . S
O331 Tb314 2.427 . S
O331 C330 1.275 . S
O332 Tb314 2.513 . S
O332 C330 1.246 . S
C333 O317 1.245 . S
C333 O318 1.259 . S
Tb334 O337 2.453 . S
Tb334 O338 2.596 . S
Tb334 O339 2.374 . S
Tb334 O347 2.343 . S
Tb334 O349 2.353 . S
Tb334 O351 2.427 . S
Tb334 O352 2.513 . S
C335 O339 1.251 . S
C335 O341 1.263 . S
Tb336 O338 2.343 . S
Tb336 O341 2.353 . S
Tb336 O344 2.427 . S
Tb336 O345 2.513 . S
Tb336 O346 2.453 . S
Tb336 O347 2.596 . S
Tb336 O348 2.374 . S
O337 Tb334 2.453 . S
O337 C353 1.245 . S
O338 Tb334 2.596 . S
O338 Tb336 2.343 . S
O338 C353 1.259 . S
O339 Tb334 2.374 . S
O339 C335 1.251 . S
C340 O344 1.275 . S
C340 O345 1.246 . S
O341 C335 1.263 . S
O341 Tb336 2.353 . S
C342 O346 1.245 . S
C342 O347 1.259 . S
C343 O348 1.250 . S
C343 O349 1.263 . S
O344 Tb336 2.427 . S
O344 C340 1.275 . S
O345 Tb336 2.513 . S
O345 C340 1.246 . S
O346 Tb336 2.453 . S
O346 C342 1.245 . S
O347 Tb334 2.343 . S
O347 Tb336 2.596 . S
O347 C342 1.259 . S
O348 Tb336 2.374 . S
O348 C343 1.250 . S
O349 Tb334 2.353 . S
O349 C343 1.263 . S
C350 O351 1.275 . S
C350 O352 1.246 . S
O351 Tb334 2.427 . S
O351 C350 1.275 . S
O352 Tb334 2.513 . S
O352 C350 1.246 . S
C353 O337 1.245 . S
C353 O338 1.259 . S
Tb354 O357 2.453 . S
Tb354 O358 2.596 . S
Tb354 O359 2.374 . S
Tb354 O367 2.343 . S
Tb354 O369 2.353 . S
Tb354 O371 2.427 . S
Tb354 O372 2.513 . S
C355 O359 1.251 . S
C355 O361 1.263 . S
Tb356 O358 2.343 . S
Tb356 O361 2.353 . S
Tb356 O364 2.427 . S
Tb356 O365 2.513 . S
Tb356 O366 2.453 . S
Tb356 O367 2.596 . S
Tb356 O368 2.374 . S
O357 Tb354 2.453 . S
O357 C373 1.245 . S
O358 Tb354 2.596 . S
O358 Tb356 2.343 . S
O358 C373 1.259 . S
O359 Tb354 2.374 . S
O359 C355 1.251 . S
C360 O364 1.275 . S
C360 O365 1.246 . S
O361 C355 1.263 . S
O361 Tb356 2.353 . S
C362 O366 1.245 . S
C362 O367 1.259 . S
C363 O368 1.250 . S
C363 O369 1.263 . S
O364 Tb356 2.427 . S
O364 C360 1.275 . S
O365 Tb356 2.513 . S
O365 C360 1.246 . S
O366 Tb356 2.453 . S
O366 C362 1.245 . S
O367 Tb354 2.343 . S
O367 Tb356 2.596 . S
O367 C362 1.259 . S
O368 Tb356 2.374 . S
O368 C363 1.250 . S
O369 Tb354 2.353 . S
O369 C363 1.263 . S
C370 O371 1.275 . S
C370 O372 1.246 . S
O371 Tb354 2.427 . S
O371 C370 1.275 . S
O372 Tb354 2.513 . S
O372 C370 1.246 . S
C373 O357 1.245 . S
C373 O358 1.259 . S
Tb374 O377 2.453 . S
Tb374 O378 2.596 . S
Tb374 O379 2.374 . S
Tb374 O387 2.343 . S
Tb374 O389 2.353 . S
Tb374 O391 2.427 . S
Tb374 O392 2.513 . S
C375 O379 1.251 . S
C375 O381 1.263 . S
Tb376 O378 2.343 . S
Tb376 O381 2.353 . S
Tb376 O384 2.427 . S
Tb376 O385 2.513 . S
Tb376 O386 2.453 . S
Tb376 O387 2.596 . S
Tb376 O388 2.374 . S
O377 Tb374 2.453 . S
O377 C393 1.245 . S
O378 Tb374 2.596 . S
O378 Tb376 2.343 . S
O378 C393 1.259 . S
O379 Tb374 2.374 . S
O379 C375 1.251 . S
C380 O384 1.275 . S
C380 O385 1.246 . S
O381 C375 1.263 . S
O381 Tb376 2.353 . S
C382 O386 1.245 . S
C382 O387 1.259 . S
C383 O388 1.250 . S
C383 O389 1.263 . S
O384 Tb376 2.427 . S
O384 C380 1.275 . S
O385 Tb376 2.513 . S
O385 C380 1.246 . S
O386 Tb376 2.453 . S
O386 C382 1.245 . S
O387 Tb374 2.343 . S
O387 Tb376 2.596 . S
O387 C382 1.259 . S
O388 Tb376 2.374 . S
O388 C383 1.250 . S
O389 Tb374 2.353 . S
O389 C383 1.263 . S
C390 O391 1.275 . S
C390 O392 1.246 . S
O391 Tb374 2.427 . S
O391 C390 1.275 . S
O392 Tb374 2.513 . S
O392 C390 1.246 . S
C393 O377 1.245 . S
C393 O378 1.259 . S
Tb394 O397 2.453 . S
Tb394 O398 2.596 . S
Tb394 O399 2.374 . S
Tb394 O407 2.343 . S
Tb394 O409 2.353 . S
Tb394 O411 2.427 . S
Tb394 O412 2.513 . S
C395 O399 1.251 . S
C395 O401 1.263 . S
Tb396 O398 2.343 . S
Tb396 O401 2.353 . S
Tb396 O404 2.427 . S
Tb396 O405 2.513 . S
Tb396 O406 2.453 . S
Tb396 O407 2.596 . S
Tb396 O408 2.374 . S
O397 Tb394 2.453 . S
O397 C413 1.245 . S
O398 Tb394 2.596 . S
O398 Tb396 2.343 . S
O398 C413 1.259 . S
O399 Tb394 2.374 . S
O399 C395 1.251 . S
C400 O404 1.275 . S
C400 O405 1.246 . S
O401 C395 1.263 . S
O401 Tb396 2.353 . S
C402 O406 1.245 . S
C402 O407 1.259 . S
C403 O408 1.250 . S
C403 O409 1.263 . S
O404 Tb396 2.427 . S
O404 C400 1.275 . S
O405 Tb396 2.513 . S
O405 C400 1.246 . S
O406 Tb396 2.453 . S
O406 C402 1.245 . S
O407 Tb394 2.343 . S
O407 Tb396 2.596 . S
O407 C402 1.259 . S
O408 Tb396 2.374 . S
O408 C403 1.250 . S
O409 Tb394 2.353 . S
O409 C403 1.263 . S
C410 O411 1.275 . S
C410 O412 1.246 . S
O411 Tb394 2.427 . S
O411 C410 1.275 . S
O412 Tb394 2.513 . S
O412 C410 1.246 . S
C413 O397 1.245 . S
C413 O398 1.259 . S
H414 C422 0.929 . S
H415 C424 0.930 . S
H416 C426 0.930 . S
H417 C429 0.929 . S
H418 C432 0.930 . S
H419 C434 0.960 . S
H420 C434 0.960 . S
H421 C434 0.960 . S
C422 H414 0.929 . S
C422 C423 1.377 . S
C422 C424 1.384 . S
C423 C422 1.377 . S
C423 C429 1.390 . S
C424 H415 0.930 . S
C424 C422 1.384 . S
C424 C425 1.372 . S
C425 C424 1.372 . S
C425 C426 1.400 . S
C425 C430 1.490 . S
C426 H416 0.930 . S
C426 C425 1.400 . S
C426 C429 1.386 . S
H427 C443 0.930 . S
H428 C444 0.931 . S
C429 H417 0.929 . S
C429 C423 1.390 . S
C429 C426 1.386 . S
C430 C425 1.490 . S
C430 C432 1.395 . S
C430 C433 1.403 . S
H431 C437 0.930 . S
C432 H418 0.930 . S
C432 C430 1.395 . S
C432 C435 1.403 . S
C433 C430 1.403 . S
C433 C434 1.524 . S
C433 C437 1.400 . S
C434 H419 0.960 . S
C434 H420 0.960 . S
C434 H421 0.960 . S
C434 C433 1.524 . S
C435 C432 1.403 . S
C435 C436 1.392 . S
C435 C439 1.495 . S
C436 C435 1.392 . S
C436 C437 1.385 . S
C436 C438 1.478 . S
C437 H431 0.930 . S
C437 C433 1.400 . S
C437 C436 1.385 . S
C438 C436 1.478 . S
C438 C440 1.381 . S
C438 C444 1.383 . S
C439 C435 1.495 . S
C439 H445 0.959 . S
C439 H446 0.961 . S
C439 H447 0.960 . S
C440 C438 1.381 . S
C440 C441 1.394 . S
C440 H448 0.930 . S
C441 C440 1.394 . S
C441 C442 1.383 . S
C441 H449 0.929 . S
C442 C441 1.383 . S
C442 C443 1.377 . S
C443 H427 0.930 . S
C443 C442 1.377 . S
C443 C444 1.379 . S
C444 H428 0.931 . S
C444 C438 1.383 . S
C444 C443 1.379 . S
H445 C439 0.959 . S
H446 C439 0.961 . S
H447 C439 0.960 . S
H448 C440 0.930 . S
H449 C441 0.929 . S
H450 C458 0.929 . S
H451 C460 0.930 . S
H452 C462 0.930 . S
H453 C465 0.929 . S
H454 C468 0.930 . S
H455 C470 0.960 . S
H456 C470 0.960 . S
H457 C470 0.960 . S
C458 H450 0.929 . S
C458 C459 1.377 . S
C458 C460 1.384 . S
C459 C458 1.377 . S
C459 C465 1.390 . S
C460 H451 0.930 . S
C460 C458 1.384 . S
C460 C461 1.372 . S
C461 C460 1.372 . S
C461 C462 1.400 . S
C461 C466 1.490 . S
C462 H452 0.930 . S
C462 C461 1.400 . S
C462 C465 1.386 . S
H463 C479 0.930 . S
H464 C480 0.931 . S
C465 H453 0.929 . S
C465 C459 1.390 . S
C465 C462 1.386 . S
C466 C461 1.490 . S
C466 C468 1.395 . S
C466 C469 1.403 . S
H467 C473 0.930 . S
C468 H454 0.930 . S
C468 C466 1.395 . S
C468 C471 1.403 . S
C469 C466 1.403 . S
C469 C470 1.524 . S
C469 C473 1.400 . S
C470 H455 0.960 . S
C470 H456 0.960 . S
C470 H457 0.960 . S
C470 C469 1.524 . S
C471 C468 1.403 . S
C471 C472 1.392 . S
C471 C475 1.495 . S
C472 C471 1.392 . S
C472 C473 1.385 . S
C472 C474 1.478 . S
C473 H467 0.930 . S
C473 C469 1.400 . S
C473 C472 1.385 . S
C474 C472 1.478 . S
C474 C476 1.381 . S
C474 C480 1.383 . S
C475 C471 1.495 . S
C475 H481 0.959 . S
C475 H482 0.961 . S
C475 H483 0.960 . S
C476 C474 1.381 . S
C476 C477 1.394 . S
C476 H484 0.930 . S
C477 C476 1.394 . S
C477 C478 1.383 . S
C477 H485 0.929 . S
C478 C477 1.383 . S
C478 C479 1.377 . S
C479 H463 0.930 . S
C479 C478 1.377 . S
C479 C480 1.379 . S
C480 H464 0.931 . S
C480 C474 1.383 . S
C480 C479 1.379 . S
H481 C475 0.959 . S
H482 C475 0.961 . S
H483 C475 0.960 . S
H484 C476 0.930 . S
H485 C477 0.929 . S
H486 C494 0.929 . S
H487 C496 0.930 . S
H488 C498 0.930 . S
H489 C501 0.929 . S
H490 C504 0.930 . S
H491 C506 0.960 . S
H492 C506 0.960 . S
H493 C506 0.960 . S
C494 H486 0.929 . S
C494 C495 1.377 . S
C494 C496 1.384 . S
C495 C494 1.377 . S
C495 C501 1.390 . S
C496 H487 0.930 . S
C496 C494 1.384 . S
C496 C497 1.372 . S
C497 C496 1.372 . S
C497 C498 1.400 . S
C497 C502 1.490 . S
C498 H488 0.930 . S
C498 C497 1.400 . S
C498 C501 1.386 . S
H499 C515 0.930 . S
H500 C516 0.931 . S
C501 H489 0.929 . S
C501 C495 1.390 . S
C501 C498 1.386 . S
C502 C497 1.490 . S
C502 C504 1.395 . S
C502 C505 1.403 . S
H503 C509 0.930 . S
C504 H490 0.930 . S
C504 C502 1.395 . S
C504 C507 1.403 . S
C505 C502 1.403 . S
C505 C506 1.524 . S
C505 C509 1.400 . S
C506 H491 0.960 . S
C506 H492 0.960 . S
C506 H493 0.960 . S
C506 C505 1.524 . S
C507 C504 1.403 . S
C507 C508 1.392 . S
C507 C511 1.495 . S
C508 C507 1.392 . S
C508 C509 1.385 . S
C508 C510 1.478 . S
C509 H503 0.930 . S
C509 C505 1.400 . S
C509 C508 1.385 . S
C510 C508 1.478 . S
C510 C512 1.381 . S
C510 C516 1.383 . S
C511 C507 1.495 . S
C511 H517 0.959 . S
C511 H518 0.961 . S
C511 H519 0.960 . S
C512 C510 1.381 . S
C512 C513 1.394 . S
C512 H520 0.930 . S
C513 C512 1.394 . S
C513 C514 1.383 . S
C513 H521 0.929 . S
C514 C513 1.383 . S
C514 C515 1.377 . S
C515 H499 0.930 . S
C515 C514 1.377 . S
C515 C516 1.379 . S
C516 H500 0.931 . S
C516 C510 1.383 . S
C516 C515 1.379 . S
H517 C511 0.959 . S
H518 C511 0.961 . S
H519 C511 0.960 . S
H520 C512 0.930 . S
H521 C513 0.929 . S
H522 C530 0.929 . S
H523 C532 0.930 . S
H524 C534 0.930 . S
H525 C537 0.929 . S
H526 C540 0.930 . S
H527 C542 0.960 . S
H528 C542 0.960 . S
H529 C542 0.960 . S
C530 H522 0.929 . S
C530 C531 1.377 . S
C530 C532 1.384 . S
C531 C530 1.377 . S
C531 C537 1.390 . S
C532 H523 0.930 . S
C532 C530 1.384 . S
C532 C533 1.372 . S
C533 C532 1.372 . S
C533 C534 1.400 . S
C533 C538 1.490 . S
C534 H524 0.930 . S
C534 C533 1.400 . S
C534 C537 1.386 . S
H535 C551 0.930 . S
H536 C552 0.931 . S
C537 H525 0.929 . S
C537 C531 1.390 . S
C537 C534 1.386 . S
C538 C533 1.490 . S
C538 C540 1.395 1_556 S
C538 C541 1.403 . S
H539 C545 0.930 . S
C540 H526 0.930 . S
C540 C538 1.395 1_554 S
C540 C543 1.403 . S
C541 C538 1.403 . S
C541 C542 1.524 . S
C541 C545 1.400 . S
C542 H527 0.960 . S
C542 H528 0.960 . S
C542 H529 0.960 . S
C542 C541 1.524 . S
C543 C540 1.403 . S
C543 C544 1.392 1_554 S
C543 C547 1.495 . S
C544 C543 1.392 1_556 S
C544 C545 1.385 . S
C544 C546 1.478 . S
C545 H539 0.930 . S
C545 C541 1.400 . S
C545 C544 1.385 . S
C546 C544 1.478 . S
C546 C548 1.381 1_556 S
C546 C552 1.383 . S
C547 C543 1.495 . S
C547 H553 0.959 . S
C547 H554 0.961 . S
C547 H555 0.960 . S
C548 C546 1.381 1_554 S
C548 C549 1.394 . S
C548 H556 0.930 . S
C549 C548 1.394 . S
C549 C550 1.383 . S
C549 H557 0.929 . S
C550 C549 1.383 . S
C550 C551 1.377 1_554 S
C551 H535 0.930 . S
C551 C550 1.377 1_556 S
C551 C552 1.379 . S
C552 H536 0.931 . S
C552 C546 1.383 . S
C552 C551 1.379 . S
H553 C547 0.959 . S
H554 C547 0.961 . S
H555 C547 0.960 . S
H556 C548 0.930 . S
H557 C549 0.929 . S
H558 C566 0.929 . S
H559 C568 0.930 . S
H560 C570 0.930 . S
H561 C573 0.929 . S
H562 C576 0.930 . S
H563 C578 0.960 1_554 S
H564 C578 0.960 . S
H565 C578 0.960 . S
C566 H558 0.929 . S
C566 C567 1.377 . S
C566 C568 1.384 . S
C567 C566 1.377 . S
C567 C573 1.390 . S
C568 H559 0.930 . S
C568 C566 1.384 . S
C568 C569 1.372 . S
C569 C568 1.372 . S
C569 C570 1.400 . S
C569 C574 1.490 . S
C570 H560 0.930 . S
C570 C569 1.400 . S
C570 C573 1.386 . S
H571 C587 0.917 1_554 S
H572 C588 0.931 . S
C573 H561 0.929 . S
C573 C567 1.390 . S
C573 C570 1.386 . S
C574 C569 1.490 . S
C574 C576 1.395 . S
C574 C577 1.403 . S
H575 C581 0.953 . S
C576 H562 0.930 . S
C576 C574 1.395 . S
C576 C579 1.403 . S
C577 C574 1.403 . S
C577 C578 1.524 . S
C577 C581 1.400 . S
C578 H563 0.960 1_556 S
C578 H564 0.960 . S
C578 H565 0.960 . S
C578 C577 1.524 . S
C579 C576 1.403 . S
C579 C580 1.392 . S
C579 C583 1.495 . S
C580 C579 1.392 . S
C580 C581 1.385 . S
C580 C582 1.478 . S
C581 H575 0.953 . S
C581 C577 1.400 . S
C581 C580 1.385 . S
C582 C580 1.478 . S
C582 C584 1.381 . S
C582 C588 1.383 . S
C583 C579 1.495 . S
C583 H589 0.959 . S
C583 H590 0.961 . S
C583 H591 0.960 . S
C584 C582 1.381 . S
C584 C585 1.394 . S
C584 H592 0.930 . S
C585 C584 1.394 . S
C585 C586 1.383 1_556 S
C585 H593 0.929 . S
C586 C585 1.383 1_554 S
C586 C587 1.372 1_554 S
C587 H571 0.917 1_556 S
C587 C586 1.372 1_556 S
C587 C588 1.398 . S
C588 H572 0.931 . S
C588 C582 1.383 . S
C588 C587 1.398 . S
H589 C583 0.959 . S
H590 C583 0.961 . S
H591 C583 0.960 . S
H592 C584 0.930 . S
H593 C585 0.929 . S
H594 C602 0.929 . S
H595 C604 0.930 1_554 S
H596 C606 0.930 . S
H597 C609 0.929 . S
H598 C612 0.930 . S
H599 C614 0.969 . S
H600 C614 0.960 1_554 S
H601 C614 0.960 . S
C602 H594 0.929 . S
C602 C603 1.377 . S
C602 C604 1.384 . S
C603 C602 1.377 . S
C603 C609 1.390 . S
C604 H595 0.930 1_556 S
C604 C602 1.384 . S
C604 C605 1.372 . S
C605 C604 1.372 . S
C605 C606 1.400 . S
C605 C610 1.490 . S
C606 H596 0.930 . S
C606 C605 1.400 . S
C606 C609 1.386 . S
H607 C623 0.930 . S
H608 C624 0.931 . S
C609 H597 0.929 . S
C609 C603 1.390 . S
C609 C606 1.386 . S
C610 C605 1.490 . S
C610 C612 1.395 . S
C610 C613 1.403 . S
H611 C617 0.928 1_554 S
C612 H598 0.930 . S
C612 C610 1.395 . S
C612 C615 1.403 . S
C613 C610 1.403 . S
C613 C614 1.524 . S
C613 C617 1.400 . S
C614 H599 0.969 . S
C614 H600 0.960 1_556 S
C614 H601 0.960 . S
C614 C613 1.524 . S
C615 C612 1.403 . S
C615 C616 1.392 . S
C615 C619 1.495 . S
C616 C615 1.392 . S
C616 C617 1.385 . S
C616 C618 1.478 . S
C617 H611 0.928 1_556 S
C617 C613 1.400 . S
C617 C616 1.385 . S
C618 C616 1.478 . S
C618 C620 1.377 1_556 S
C618 C624 1.386 . S
C619 C615 1.495 . S
C619 H625 0.959 . S
C619 H626 0.961 . S
C619 H627 0.922 1_556 S
C620 C618 1.377 1_554 S
C620 C621 1.394 . S
C620 H628 0.930 . S
C621 C620 1.394 . S
C621 C622 1.383 . S
C621 H629 0.929 . S
C622 C621 1.383 . S
C622 C623 1.377 1_554 S
C623 H607 0.930 . S
C623 C622 1.377 1_556 S
C623 C624 1.379 . S
C624 H608 0.931 . S
C624 C618 1.386 . S
C624 C623 1.379 . S
H625 C619 0.959 . S
H626 C619 0.961 . S
H627 C619 0.922 1_554 S
H628 C620 0.930 . S
H629 C621 0.929 . S
H630 C638 0.929 . S
H631 C640 0.930 1_554 S
H632 C642 0.930 . S
H633 C645 0.929 . S
H634 C648 0.930 1_554 S
H635 C650 0.960 . S
H636 C650 0.960 . S
H637 C650 0.960 . S
C638 H630 0.929 . S
C638 C639 1.377 . S
C638 C640 1.384 . S
C639 C638 1.377 . S
C639 C645 1.390 . S
C640 H631 0.930 1_556 S
C640 C638 1.384 . S
C640 C641 1.372 . S
C641 C640 1.372 . S
C641 C642 1.400 . S
C641 C646 1.490 . S
C642 H632 0.930 . S
C642 C641 1.400 . S
C642 C645 1.386 . S
H643 C659 0.930 . S
H644 C660 0.931 . S
C645 H633 0.929 . S
C645 C639 1.390 . S
C645 C642 1.386 . S
C646 C641 1.490 . S
C646 C648 1.395 . S
C646 C649 1.403 . S
H647 C653 0.930 . S
C648 H634 0.930 1_556 S
C648 C646 1.395 . S
C648 C651 1.403 1_556 S
C649 C646 1.403 . S
C649 C650 1.524 . S
C649 C653 1.400 . S
C650 H635 0.960 . S
C650 H636 0.960 . S
C650 H637 0.960 . S
C650 C649 1.524 . S
C651 C648 1.403 1_554 S
C651 C652 1.392 1_554 S
C651 C655 1.495 . S
C652 C651 1.392 1_556 S
C652 C653 1.385 . S
C652 C654 1.478 . S
C653 H647 0.930 . S
C653 C649 1.400 . S
C653 C652 1.385 . S
C654 C652 1.478 . S
C654 C656 1.381 1_556 S
C654 C660 1.383 . S
C655 C651 1.495 . S
C655 H661 0.959 . S
C655 H662 0.961 . S
C655 H663 0.960 . S
C656 C654 1.381 1_554 S
C656 C657 1.394 . S
C656 H664 0.930 . S
C657 C656 1.394 . S
C657 C658 1.383 . S
C657 H665 0.929 . S
C658 C657 1.383 . S
C658 C659 1.377 1_554 S
C659 H643 0.930 . S
C659 C658 1.377 1_556 S
C659 C660 1.379 . S
C660 H644 0.931 . S
C660 C654 1.383 . S
C660 C659 1.379 . S
H661 C655 0.959 . S
H662 C655 0.961 . S
H663 C655 0.960 . S
H664 C656 0.930 . S
H665 C657 0.929 . S
H666 C674 0.929 . S
H667 C676 0.930 . S
H668 C678 0.930 . S
H669 C681 0.929 . S
H670 C684 0.930 . S
H671 C686 0.960 . S
H672 C686 0.960 . S
H673 C686 0.960 . S
C674 H666 0.929 . S
C674 C675 1.377 . S
C674 C676 1.384 . S
C675 C674 1.377 . S
C675 C681 1.390 . S
C676 H667 0.930 . S
C676 C674 1.384 . S
C676 C677 1.372 . S
C677 C676 1.372 . S
C677 C678 1.400 . S
C677 C682 1.490 . S
C678 H668 0.930 . S
C678 C677 1.400 . S
C678 C681 1.386 . S
H679 C695 0.930 . S
H680 C696 0.931 . S
C681 H669 0.929 . S
C681 C675 1.390 . S
C681 C678 1.386 . S
C682 C677 1.490 . S
C682 C684 1.395 . S
C682 C685 1.403 . S
H683 C689 0.930 . S
C684 H670 0.930 . S
C684 C682 1.395 . S
C684 C687 1.403 . S
C685 C682 1.403 . S
C685 C686 1.524 . S
C685 C689 1.400 . S
C686 H671 0.960 . S
C686 H672 0.960 . S
C686 H673 0.960 . S
C686 C685 1.524 . S
C687 C684 1.403 . S
C687 C688 1.392 . S
C687 C691 1.495 . S
C688 C687 1.392 . S
C688 C689 1.385 . S
C688 C690 1.478 . S
C689 H683 0.930 . S
C689 C685 1.400 . S
C689 C688 1.385 . S
C690 C688 1.478 . S
C690 C692 1.381 . S
C690 C696 1.383 . S
C691 C687 1.495 . S
C691 H697 0.959 1_556 S
C691 H698 0.961 1_556 S
C691 H699 0.960 . S
C692 C690 1.381 . S
C692 C693 1.394 . S
C692 H700 0.930 . S
C693 C692 1.394 . S
C693 C694 1.383 . S
C693 H701 0.929 . S
C694 C693 1.383 . S
C694 C695 1.377 . S
C695 H679 0.930 . S
C695 C694 1.377 . S
C695 C696 1.379 . S
C696 H680 0.931 . S
C696 C690 1.383 . S
C696 C695 1.379 . S
H697 C691 0.959 1_554 S
H698 C691 0.961 1_554 S
H699 C691 0.960 . S
H700 C692 0.930 . S
H701 C693 0.929 . S
H702 C710 0.946 . S
H703 C712 0.930 1_554 S
H704 C714 0.930 . S
H705 C717 0.929 . S
H706 C720 0.930 . S
H707 C722 0.960 . S
H708 C722 0.960 . S
H709 C722 0.960 . S
C710 H702 0.946 . S
C710 C711 1.377 . S
C710 C712 1.384 . S
C711 C710 1.377 . S
C711 C717 1.390 . S
C712 H703 0.930 1_556 S
C712 C710 1.384 . S
C712 C713 1.372 . S
C713 C712 1.372 . S
C713 C714 1.400 . S
C713 C718 1.490 . S
C714 H704 0.930 . S
C714 C713 1.400 . S
C714 C717 1.386 . S
H715 C731 0.937 . S
H716 C732 0.931 1_556 S
C717 H705 0.929 . S
C717 C711 1.390 . S
C717 C714 1.386 . S
C718 C713 1.490 . S
C718 C720 1.395 . S
C718 C721 1.403 1_556 S
H719 C725 0.930 . S
C720 H706 0.930 . S
C720 C718 1.395 . S
C720 C723 1.403 . S
C721 C718 1.403 1_554 S
C721 C722 1.524 . S
C721 C725 1.400 . S
C722 H707 0.960 . S
C722 H708 0.960 . S
C722 H709 0.960 . S
C722 C721 1.524 . S
C723 C720 1.403 . S
C723 C724 1.392 1_556 S
C723 C727 1.495 . S
C724 C723 1.392 1_554 S
C724 C725 1.385 . S
C724 C726 1.478 . S
C725 H719 0.930 . S
C725 C721 1.400 . S
C725 C724 1.385 . S
C726 C724 1.478 . S
C726 C728 1.381 . S
C726 C732 1.383 . S
C727 C723 1.495 . S
C727 H733 0.959 . S
C727 H734 0.961 . S
C727 H735 0.927 1_556 S
C728 C726 1.381 . S
C728 C729 1.394 . S
C728 H736 0.930 . S
C729 C728 1.394 . S
C729 C730 1.383 . S
C729 H737 0.929 . S
C730 C729 1.383 . S
C730 C731 1.377 . S
C731 H715 0.937 . S
C731 C730 1.377 . S
C731 C732 1.379 . S
C732 H716 0.931 1_554 S
C732 C726 1.383 . S
C732 C731 1.379 . S
H733 C727 0.959 . S
H734 C727 0.961 . S
H735 C727 0.927 1_554 S
H736 C728 0.930 . S
H737 C729 0.929 . S
H738 C746 0.929 . S
H739 C748 0.930 . S
H740 C750 0.930 . S
H741 C753 0.929 . S
H742 C756 0.930 . S
H743 C758 0.960 . S
H744 C758 0.960 . S
H745 C758 0.960 . S
C746 H738 0.929 . S
C746 C747 1.377 . S
C746 C748 1.384 . S
C747 C746 1.377 . S
C747 C753 1.390 . S
C748 H739 0.930 . S
C748 C746 1.384 . S
C748 C749 1.372 . S
C749 C748 1.372 . S
C749 C750 1.400 . S
C749 C754 1.490 . S
C750 H740 0.930 . S
C750 C749 1.400 . S
C750 C753 1.386 . S
H751 C767 0.930 . S
H752 C768 0.931 . S
C753 H741 0.929 . S
C753 C747 1.390 . S
C753 C750 1.386 . S
C754 C749 1.490 . S
C754 C756 1.395 . S
C754 C757 1.403 . S
H755 C761 0.930 . S
C756 H742 0.930 . S
C756 C754 1.395 . S
C756 C759 1.403 . S
C757 C754 1.403 . S
C757 C758 1.524 . S
C757 C761 1.400 . S
C758 H743 0.960 . S
C758 H744 0.960 . S
C758 H745 0.960 . S
C758 C757 1.524 . S
C759 C756 1.403 . S
C759 C760 1.392 . S
C759 C763 1.495 . S
C760 C759 1.392 . S
C760 C761 1.385 . S
C760 C762 1.478 . S
C761 H755 0.930 . S
C761 C757 1.400 . S
C761 C760 1.385 . S
C762 C760 1.478 . S
C762 C764 1.381 . S
C762 C768 1.383 . S
C763 C759 1.495 . S
C763 H769 0.959 . S
C763 H770 0.961 . S
C763 H771 0.949 1_554 S
C764 C762 1.381 . S
C764 C765 1.394 . S
C764 H772 0.901 1_554 S
C765 C764 1.394 . S
C765 C766 1.383 . S
C765 H773 0.929 1_554 S
C766 C765 1.383 . S
C766 C767 1.377 . S
C767 H751 0.930 . S
C767 C766 1.377 . S
C767 C768 1.379 . S
C768 H752 0.931 . S
C768 C762 1.383 . S
C768 C767 1.379 . S
H769 C763 0.959 . S
H770 C763 0.961 . S
H771 C763 0.949 1_556 S
H772 C764 0.901 1_556 S
H773 C765 0.929 1_556 S
H774 C782 0.929 . S
H775 C784 0.930 . S
H776 C786 0.930 . S
H777 C789 0.929 . S
H778 C792 0.930 . S
H779 C794 0.960 . S
H780 C794 0.960 . S
H781 C794 0.960 . S
C782 H774 0.929 . S
C782 C783 1.377 . S
C782 C784 1.384 . S
C783 C782 1.377 . S
C783 C789 1.390 . S
C784 H775 0.930 . S
C784 C782 1.384 . S
C784 C785 1.372 . S
C785 C784 1.372 . S
C785 C786 1.400 . S
C785 C790 1.490 . S
C786 H776 0.930 . S
C786 C785 1.400 . S
C786 C789 1.386 . S
H787 C803 0.930 . S
H788 C804 0.931 . S
C789 H777 0.929 . S
C789 C783 1.390 . S
C789 C786 1.386 . S
C790 C785 1.490 . S
C790 C792 1.395 . S
C790 C793 1.403 . S
H791 C797 0.930 . S
C792 H778 0.930 . S
C792 C790 1.395 . S
C792 C795 1.403 . S
C793 C790 1.403 . S
C793 C794 1.524 . S
C793 C797 1.400 . S
C794 H779 0.960 . S
C794 H780 0.960 . S
C794 H781 0.960 . S
C794 C793 1.524 . S
C795 C792 1.403 . S
C795 C796 1.392 . S
C795 C799 1.495 . S
C796 C795 1.392 . S
C796 C797 1.385 . S
C796 C798 1.478 . S
C797 H791 0.930 . S
C797 C793 1.400 . S
C797 C796 1.385 . S
C798 C796 1.478 . S
C798 C800 1.381 . S
C798 C804 1.383 . S
C799 C795 1.495 . S
C799 H805 0.959 . S
C799 H806 0.961 . S
C799 H807 0.960 . S
C800 C798 1.381 . S
C800 C801 1.394 . S
C800 H808 0.930 . S
C801 C800 1.394 . S
C801 C802 1.383 . S
C801 H809 0.929 . S
C802 C801 1.383 . S
C802 C803 1.377 . S
C803 H787 0.930 . S
C803 C802 1.377 . S
C803 C804 1.379 . S
C804 H788 0.931 . S
C804 C798 1.383 . S
C804 C803 1.379 . S
H805 C799 0.959 . S
H806 C799 0.961 . S
H807 C799 0.960 . S
H808 C800 0.930 . S
H809 C801 0.929 . S
H810 C818 0.929 . S
H811 C820 0.930 . S
H812 C822 0.930 . S
H813 C825 0.929 . S
H814 C828 0.930 . S
H815 C830 0.960 . S
H816 C830 0.960 . S
H817 C830 0.960 . S
C818 H810 0.929 . S
C818 C819 1.377 . S
C818 C820 1.384 . S
C819 C818 1.377 . S
C819 C825 1.390 . S
C820 H811 0.930 . S
C820 C818 1.384 . S
C820 C821 1.372 . S
C821 C820 1.372 . S
C821 C822 1.400 . S
C821 C826 1.490 . S
C822 H812 0.930 . S
C822 C821 1.400 . S
C822 C825 1.386 . S
H823 C839 0.930 . S
H824 C840 0.931 . S
C825 H813 0.929 . S
C825 C819 1.390 . S
C825 C822 1.386 . S
C826 C821 1.490 . S
C826 C828 1.395 . S
C826 C829 1.403 . S
H827 C833 0.930 . S
C828 H814 0.930 . S
C828 C826 1.395 . S
C828 C831 1.403 . S
C829 C826 1.403 . S
C829 C830 1.524 . S
C829 C833 1.400 . S
C830 H815 0.960 . S
C830 H816 0.960 . S
C830 H817 0.960 . S
C830 C829 1.524 . S
C831 C828 1.403 . S
C831 C832 1.392 . S
C831 C835 1.495 . S
C832 C831 1.392 . S
C832 C833 1.385 . S
C832 C834 1.478 . S
C833 H827 0.930 . S
C833 C829 1.400 . S
C833 C832 1.385 . S
C834 C832 1.478 . S
C834 C836 1.381 . S
C834 C840 1.383 . S
C835 C831 1.495 . S
C835 H841 0.959 . S
C835 H842 0.961 . S
C835 H843 0.960 . S
C836 C834 1.381 . S
C836 C837 1.394 . S
C836 H844 0.930 . S
C837 C836 1.394 . S
C837 C838 1.383 . S
C837 H845 0.929 . S
C838 C837 1.383 . S
C838 C839 1.377 . S
C839 H823 0.930 . S
C839 C838 1.377 . S
C839 C840 1.379 . S
C840 H824 0.931 . S
C840 C834 1.383 . S
C840 C839 1.379 . S
H841 C835 0.959 . S
H842 C835 0.961 . S
H843 C835 0.960 . S
H844 C836 0.930 . S
H845 C837 0.929 . S
H846 C854 0.929 . S
H847 C856 0.930 . S
H848 C858 0.930 . S
H849 C861 0.929 . S
H850 C864 0.930 . S
H851 C866 0.960 1_455 S
H852 C866 0.960 . S
H853 C866 0.960 . S
C854 H846 0.929 . S
C854 C855 1.377 . S
C854 C856 1.384 . S
C855 C854 1.377 . S
C855 C861 1.390 . S
C856 H847 0.930 . S
C856 C854 1.384 . S
C856 C857 1.372 . S
C857 C856 1.372 . S
C857 C858 1.400 . S
C857 C862 1.490 . S
C858 H848 0.930 . S
C858 C857 1.400 . S
C858 C861 1.386 . S
H859 C875 0.930 . S
H860 C876 0.931 . S
C861 H849 0.929 . S
C861 C855 1.390 . S
C861 C858 1.386 . S
C862 C857 1.490 . S
C862 C864 1.395 . S
C862 C865 1.403 . S
H863 C869 0.930 . S
C864 H850 0.930 . S
C864 C862 1.395 . S
C864 C867 1.403 1_655 S
C865 C862 1.403 . S
C865 C866 1.524 . S
C865 C869 1.400 1_655 S
C866 H851 0.960 1_655 S
C866 H852 0.960 . S
C866 H853 0.960 . S
C866 C865 1.524 . S
C867 C864 1.403 1_455 S
C867 C868 1.392 . S
C867 C871 1.495 . S
C868 C867 1.392 . S
C868 C869 1.385 . S
C868 C870 1.478 . S
C869 H863 0.930 . S
C869 C865 1.400 1_455 S
C869 C868 1.385 . S
C870 C868 1.478 . S
C870 C872 1.381 . S
C870 C876 1.383 . S
C871 C867 1.495 . S
C871 H877 0.995 . S
C871 H878 0.961 . S
C871 H879 0.960 . S
C872 C870 1.381 . S
C872 C873 1.394 . S
C872 H880 0.930 . S
C873 C872 1.394 . S
C873 C874 1.383 . S
C873 H881 0.929 . S
C874 C873 1.383 . S
C874 C875 1.377 . S
C875 H859 0.930 . S
C875 C874 1.377 . S
C875 C876 1.379 . S
C876 H860 0.931 . S
C876 C870 1.383 . S
C876 C875 1.379 . S
H877 C871 0.995 . S
H878 C871 0.961 . S
H879 C871 0.960 . S
H880 C872 0.930 . S
H881 C873 0.929 . S
H882 C890 0.929 . S
H883 C892 0.930 . S
H884 C894 0.930 . S
H885 C897 0.929 . S
H886 C900 0.930 . S
H887 C902 0.960 . S
H888 C902 0.960 . S
H889 C902 0.960 . S
C890 H882 0.929 . S
C890 C891 1.377 . S
C890 C892 1.384 . S
C891 C890 1.377 . S
C891 C897 1.390 . S
C892 H883 0.930 . S
C892 C890 1.384 . S
C892 C893 1.372 . S
C893 C892 1.372 . S
C893 C894 1.400 . S
C893 C898 1.490 . S
C894 H884 0.930 . S
C894 C893 1.400 . S
C894 C897 1.386 . S
H895 C911 0.930 . S
H896 C912 0.931 . S
C897 H885 0.929 . S
C897 C891 1.390 . S
C897 C894 1.386 . S
C898 C893 1.490 . S
C898 C900 1.395 . S
C898 C901 1.403 . S
H899 C905 0.930 . S
C900 H886 0.930 . S
C900 C898 1.395 . S
C900 C903 1.403 . S
C901 C898 1.403 . S
C901 C902 1.524 . S
C901 C905 1.400 . S
C902 H887 0.960 . S
C902 H888 0.960 . S
C902 H889 0.960 . S
C902 C901 1.524 . S
C903 C900 1.403 . S
C903 C904 1.392 . S
C903 C907 1.495 . S
C904 C903 1.392 . S
C904 C905 1.385 . S
C904 C906 1.478 . S
C905 H899 0.930 . S
C905 C901 1.400 . S
C905 C904 1.385 . S
C906 C904 1.478 . S
C906 C908 1.381 . S
C906 C912 1.383 . S
C907 C903 1.495 . S
C907 H913 0.959 . S
C907 H914 0.961 . S
C907 H915 0.960 . S
C908 C906 1.381 . S
C908 C909 1.394 . S
C908 H916 0.930 . S
C909 C908 1.394 . S
C909 C910 1.383 . S
C909 H917 0.929 . S
C910 C909 1.383 . S
C910 C911 1.377 . S
C911 H895 0.930 . S
C911 C910 1.377 . S
C911 C912 1.379 . S
C912 H896 0.931 . S
C912 C906 1.383 . S
C912 C911 1.379 . S
H913 C907 0.959 . S
H914 C907 0.961 . S
H915 C907 0.960 . S
H916 C908 0.930 . S
H917 C909 0.929 . S
H918 C926 0.929 . S
H919 C928 0.930 . S
H920 C930 0.930 . S
H921 C933 0.929 . S
H922 C936 0.930 . S
H923 C938 0.960 1_565 S
H924 C938 0.960 . S
H925 C938 0.960 . S
C926 H918 0.929 . S
C926 C927 1.377 . S
C926 C928 1.384 . S
C927 C926 1.377 . S
C927 C933 1.390 . S
C928 H919 0.930 . S
C928 C926 1.384 . S
C928 C929 1.372 . S
C929 C928 1.372 . S
C929 C930 1.400 . S
C929 C934 1.490 . S
C930 H920 0.930 . S
C930 C929 1.400 . S
C930 C933 1.386 . S
H931 C947 0.930 . S
H932 C948 0.931 . S
C933 H921 0.929 . S
C933 C927 1.390 . S
C933 C930 1.386 . S
C934 C929 1.490 . S
C934 C936 1.395 . S
C934 C937 1.403 1_545 S
H935 C941 0.930 . S
C936 H922 0.930 . S
C936 C934 1.395 . S
C936 C939 1.403 1_545 S
C937 C934 1.403 1_565 S
C937 C938 1.524 1_565 S
C937 C941 1.400 . S
C938 H923 0.960 1_545 S
C938 H924 0.960 . S
C938 H925 0.960 . S
C938 C937 1.524 1_545 S
C939 C936 1.403 1_565 S
C939 C940 1.392 . S
C939 C943 1.495 . S
C940 C939 1.392 . S
C940 C941 1.385 . S
C940 C942 1.478 . S
C941 H935 0.930 . S
C941 C937 1.400 . S
C941 C940 1.385 . S
C942 C940 1.478 . S
C942 C944 1.381 . S
C942 C948 1.383 . S
C943 C939 1.495 . S
C943 H949 0.959 . S
C943 H950 0.961 . S
C943 H951 0.960 . S
C944 C942 1.381 . S
C944 C945 1.394 . S
C944 H952 0.930 . S
C945 C944 1.394 . S
C945 C946 1.383 . S
C945 H953 0.929 . S
C946 C945 1.383 . S
C946 C947 1.377 . S
C947 H931 0.930 . S
C947 C946 1.377 . S
C947 C948 1.379 . S
C948 H932 0.931 . S
C948 C942 1.383 . S
C948 C947 1.379 . S
H949 C943 0.959 . S
H950 C943 0.961 . S
H951 C943 0.960 . S
H952 C944 0.930 . S
H953 C945 0.929 . S
H954 C962 0.929 . S
H955 C964 0.930 . S
H956 C966 0.930 . S
H957 C969 0.929 . S
H958 C972 0.930 . S
H959 C974 0.960 . S
H960 C974 0.960 . S
H961 C974 0.960 . S
C962 H954 0.929 . S
C962 C963 1.377 . S
C962 C964 1.384 . S
C963 C962 1.377 . S
C963 C969 1.390 . S
C964 H955 0.930 . S
C964 C962 1.384 . S
C964 C965 1.372 . S
C965 C964 1.372 . S
C965 C966 1.400 . S
C965 C970 1.490 . S
C966 H956 0.930 . S
C966 C965 1.400 . S
C966 C969 1.386 . S
H967 C983 0.930 . S
H968 C984 0.931 . S
C969 H957 0.929 . S
C969 C963 1.390 . S
C969 C966 1.386 . S
C970 C965 1.490 . S
C970 C972 1.395 . S
C970 C973 1.403 . S
H971 C977 0.930 . S
C972 H958 0.930 . S
C972 C970 1.395 . S
C972 C975 1.403 . S
C973 C970 1.403 . S
C973 C974 1.524 . S
C973 C977 1.400 . S
C974 H959 0.960 . S
C974 H960 0.960 . S
C974 H961 0.960 . S
C974 C973 1.524 . S
C975 C972 1.403 . S
C975 C976 1.392 . S
C975 C979 1.495 . S
C976 C975 1.392 . S
C976 C977 1.385 . S
C976 C978 1.478 . S
C977 H971 0.930 . S
C977 C973 1.400 . S
C977 C976 1.385 . S
C978 C976 1.478 . S
C978 C980 1.381 . S
C978 C984 1.383 . S
C979 C975 1.495 . S
C979 H985 0.959 . S
C979 H986 0.961 . S
C979 H987 0.960 . S
C980 C978 1.381 . S
C980 C981 1.394 . S
C980 H988 0.930 . S
C981 C980 1.394 . S
C981 C982 1.383 . S
C981 H989 0.929 . S
C982 C981 1.383 . S
C982 C983 1.377 . S
C983 H967 0.930 . S
C983 C982 1.377 . S
C983 C984 1.379 . S
C984 H968 0.931 . S
C984 C978 1.383 . S
C984 C983 1.379 . S
H985 C979 0.959 . S
H986 C979 0.961 . S
H987 C979 0.960 . S
H988 C980 0.930 . S
H989 C981 0.929 . S
H990 C998 0.929 . S
H991 C1000 0.930 . S
H992 C1002 0.930 . S
H993 C1005 0.929 . S
H994 C1008 0.930 . S
H995 C1010 0.960 . S
H996 C1010 0.960 . S
H997 C1010 0.960 . S
C998 H990 0.929 . S
C998 C999 1.377 . S
C998 C1000 1.384 . S
C999 C998 1.377 . S
C999 C1005 1.390 . S
C1000 H991 0.930 . S
C1000 C998 1.384 . S
C1000 C1001 1.372 . S
C1001 C1000 1.372 . S
C1001 C1002 1.400 . S
C1001 C1006 1.490 . S
C1002 H992 0.930 . S
C1002 C1001 1.400 . S
C1002 C1005 1.386 . S
H1003 C1019 0.930 . S
H1004 C1020 0.931 . S
C1005 H993 0.929 . S
C1005 C999 1.390 . S
C1005 C1002 1.386 . S
C1006 C1001 1.490 . S
C1006 C1008 1.395 . S
C1006 C1009 1.403 . S
H1007 C1013 0.930 . S
C1008 H994 0.930 . S
C1008 C1006 1.395 . S
C1008 C1011 1.403 . S
C1009 C1006 1.403 . S
C1009 C1010 1.524 . S
C1009 C1013 1.400 . S
C1010 H995 0.960 . S
C1010 H996 0.960 . S
C1010 H997 0.960 . S
C1010 C1009 1.524 . S
C1011 C1008 1.403 . S
C1011 C1012 1.392 . S
C1011 C1015 1.495 . S
C1012 C1011 1.392 . S
C1012 C1013 1.385 . S
C1012 C1014 1.478 . S
C1013 H1007 0.930 . S
C1013 C1009 1.400 . S
C1013 C1012 1.385 . S
C1014 C1012 1.478 . S
C1014 C1016 1.381 . S
C1014 C1020 1.383 . S
C1015 C1011 1.495 . S
C1015 H1021 0.959 . S
C1015 H1022 0.961 . S
C1015 H1023 0.960 . S
C1016 C1014 1.381 . S
C1016 C1017 1.394 . S
C1016 H1024 0.930 . S
C1017 C1016 1.394 . S
C1017 C1018 1.383 . S
C1017 H1025 0.929 . S
C1018 C1017 1.383 . S
C1018 C1019 1.377 . S
C1019 H1003 0.930 . S
C1019 C1018 1.377 . S
C1019 C1020 1.379 . S
C1020 H1004 0.931 . S
C1020 C1014 1.383 . S
C1020 C1019 1.379 . S
H1021 C1015 0.959 . S
H1022 C1015 0.961 . S
H1023 C1015 0.960 . S
H1024 C1016 0.930 . S
H1025 C1017 0.929 . S
H1026 C1034 0.929 . S
H1027 C1036 0.930 . S
H1028 C1038 0.930 . S
H1029 C1041 0.929 . S
H1030 C1044 0.930 . S
H1031 C1046 0.960 . S
H1032 C1046 0.960 . S
H1033 C1046 0.960 . S
C1034 H1026 0.929 . S
C1034 C1035 1.377 . S
C1034 C1036 1.384 . S
C1035 C1034 1.377 . S
C1035 C1041 1.390 . S
C1036 H1027 0.930 . S
C1036 C1034 1.384 . S
C1036 C1037 1.372 . S
C1037 C1036 1.372 . S
C1037 C1038 1.400 . S
C1037 C1042 1.490 . S
C1038 H1028 0.930 . S
C1038 C1037 1.400 . S
C1038 C1041 1.386 . S
H1039 C1055 0.930 . S
H1040 C1056 0.931 . S
C1041 H1029 0.929 . S
C1041 C1035 1.390 . S
C1041 C1038 1.386 . S
C1042 C1037 1.490 . S
C1042 C1044 1.395 . S
C1042 C1045 1.403 . S
H1043 C1049 0.930 . S
C1044 H1030 0.930 . S
C1044 C1042 1.395 . S
C1044 C1047 1.403 . S
C1045 C1042 1.403 . S
C1045 C1046 1.524 . S
C1045 C1049 1.400 . S
C1046 H1031 0.960 . S
C1046 H1032 0.960 . S
C1046 H1033 0.960 . S
C1046 C1045 1.524 . S
C1047 C1044 1.403 . S
C1047 C1048 1.392 . S
C1047 C1051 1.495 . S
C1048 C1047 1.392 . S
C1048 C1049 1.385 . S
C1048 C1050 1.478 . S
C1049 H1043 0.930 . S
C1049 C1045 1.400 . S
C1049 C1048 1.385 . S
C1050 C1048 1.478 . S
C1050 C1052 1.381 . S
C1050 C1056 1.383 . S
C1051 C1047 1.495 . S
C1051 H1057 0.959 . S
C1051 H1058 0.961 . S
C1051 H1059 0.960 . S
C1052 C1050 1.381 . S
C1052 C1053 1.394 . S
C1052 H1060 0.930 . S
C1053 C1052 1.394 . S
C1053 C1054 1.383 . S
C1053 H1061 0.929 . S
C1054 C1053 1.383 . S
C1054 C1055 1.377 . S
C1055 H1039 0.930 . S
C1055 C1054 1.377 . S
C1055 C1056 1.379 . S
C1056 H1040 0.931 . S
C1056 C1050 1.383 . S
C1056 C1055 1.379 . S
H1057 C1051 0.959 . S
H1058 C1051 0.961 . S
H1059 C1051 0.960 . S
H1060 C1052 0.930 . S
H1061 C1053 0.929 . S
H1062 C1070 0.929 . S
H1063 C1072 0.930 . S
H1064 C1074 0.930 . S
H1065 C1077 0.929 . S
H1066 C1080 0.930 . S
H1067 C1082 0.960 . S
H1068 C1082 0.960 . S
H1069 C1082 0.960 . S
C1070 H1062 0.929 . S
C1070 C1071 1.377 . S
C1070 C1072 1.384 . S
C1071 C1070 1.377 . S
C1071 C1077 1.390 . S
C1072 H1063 0.930 . S
C1072 C1070 1.384 . S
C1072 C1073 1.372 . S
C1073 C1072 1.372 . S
C1073 C1074 1.400 . S
C1073 C1078 1.490 . S
C1074 H1064 0.930 . S
C1074 C1073 1.400 . S
C1074 C1077 1.386 . S
H1075 C1091 0.930 . S
H1076 C1092 0.931 . S
C1077 H1065 0.929 . S
C1077 C1071 1.390 . S
C1077 C1074 1.386 . S
C1078 C1073 1.490 . S
C1078 C1080 1.395 . S
C1078 C1081 1.403 . S
H1079 C1085 0.930 . S
C1080 H1066 0.930 . S
C1080 C1078 1.395 . S
C1080 C1083 1.403 . S
C1081 C1078 1.403 . S
C1081 C1082 1.524 . S
C1081 C1085 1.400 . S
C1082 H1067 0.960 . S
C1082 H1068 0.960 . S
C1082 H1069 0.960 . S
C1082 C1081 1.524 . S
C1083 C1080 1.403 . S
C1083 C1084 1.392 . S
C1083 C1087 1.495 . S
C1084 C1083 1.392 . S
C1084 C1085 1.385 . S
C1084 C1086 1.478 . S
C1085 H1079 0.930 . S
C1085 C1081 1.400 . S
C1085 C1084 1.385 . S
C1086 C1084 1.478 . S
C1086 C1088 1.381 . S
C1086 C1092 1.383 . S
C1087 C1083 1.495 . S
C1087 H1093 0.959 . S
C1087 H1094 0.961 . S
C1087 H1095 0.960 . S
C1088 C1086 1.381 . S
C1088 C1089 1.394 . S
C1088 H1096 0.930 . S
C1089 C1088 1.394 . S
C1089 C1090 1.383 . S
C1089 H1097 0.929 . S
C1090 C1089 1.383 . S
C1090 C1091 1.377 . S
C1091 H1075 0.930 . S
C1091 C1090 1.377 . S
C1091 C1092 1.379 . S
C1092 H1076 0.931 . S
C1092 C1086 1.383 . S
C1092 C1091 1.379 . S
H1093 C1087 0.959 . S
H1094 C1087 0.961 . S
H1095 C1087 0.960 . S
H1096 C1088 0.930 . S
H1097 C1089 0.929 . S
H1098 C1106 0.929 . S
H1099 C1108 0.930 . S
H1100 C1110 0.930 . S
H1101 C1113 0.929 . S
H1102 C1116 0.930 . S
H1103 C1118 0.960 . S
H1104 C1118 0.960 . S
H1105 C1118 0.960 . S
C1106 H1098 0.929 . S
C1106 C1107 1.377 . S
C1106 C1108 1.384 . S
C1107 C1106 1.377 . S
C1107 C1113 1.390 . S
C1108 H1099 0.930 . S
C1108 C1106 1.384 . S
C1108 C1109 1.372 . S
C1109 C1108 1.372 . S
C1109 C1110 1.400 . S
C1109 C1114 1.490 . S
C1110 H1100 0.930 . S
C1110 C1109 1.400 . S
C1110 C1113 1.386 . S
H1111 C1127 0.930 . S
H1112 C1128 0.931 . S
C1113 H1101 0.929 . S
C1113 C1107 1.390 . S
C1113 C1110 1.386 . S
C1114 C1109 1.490 . S
C1114 C1116 1.395 . S
C1114 C1117 1.403 . S
H1115 C1121 0.930 . S
C1116 H1102 0.930 . S
C1116 C1114 1.395 . S
C1116 C1119 1.403 . S
C1117 C1114 1.403 . S
C1117 C1118 1.524 . S
C1117 C1121 1.400 . S
C1118 H1103 0.960 . S
C1118 H1104 0.960 . S
C1118 H1105 0.960 . S
C1118 C1117 1.524 . S
C1119 C1116 1.403 . S
C1119 C1120 1.392 . S
C1119 C1123 1.495 . S
C1120 C1119 1.392 . S
C1120 C1121 1.385 . S
C1120 C1122 1.478 . S
C1121 H1115 0.930 . S
C1121 C1117 1.400 . S
C1121 C1120 1.385 . S
C1122 C1120 1.478 . S
C1122 C1124 1.381 . S
C1122 C1128 1.383 . S
C1123 C1119 1.495 . S
C1123 H1129 0.959 . S
C1123 H1130 0.961 . S
C1123 H1131 0.960 . S
C1124 C1122 1.381 . S
C1124 C1125 1.394 . S
C1124 H1132 0.930 . S
C1125 C1124 1.394 . S
C1125 C1126 1.383 . S
C1125 H1133 0.929 . S
C1126 C1125 1.383 . S
C1126 C1127 1.377 . S
C1127 H1111 0.930 . S
C1127 C1126 1.377 . S
C1127 C1128 1.379 . S
C1128 H1112 0.931 . S
C1128 C1122 1.383 . S
C1128 C1127 1.379 . S
H1129 C1123 0.959 . S
H1130 C1123 0.961 . S
H1131 C1123 0.960 . S
H1132 C1124 0.930 . S
H1133 C1125 0.929 . S
H1134 C1142 0.929 . S
H1135 C1144 0.930 . S
H1136 C1146 0.930 . S
H1137 C1149 0.929 . S
H1138 C1152 0.930 . S
H1139 C1154 0.960 . S
H1140 C1154 0.960 . S
H1141 C1154 0.960 . S
C1142 H1134 0.929 . S
C1142 C1143 1.377 . S
C1142 C1144 1.384 . S
C1143 C1142 1.377 . S
C1143 C1149 1.390 . S
C1144 H1135 0.930 . S
C1144 C1142 1.384 . S
C1144 C1145 1.372 . S
C1145 C1144 1.372 . S
C1145 C1146 1.400 . S
C1145 C1150 1.490 . S
C1146 H1136 0.930 . S
C1146 C1145 1.400 . S
C1146 C1149 1.386 . S
H1147 C1163 0.930 . S
H1148 C1164 0.931 . S
C1149 H1137 0.929 . S
C1149 C1143 1.390 . S
C1149 C1146 1.386 . S
C1150 C1145 1.490 . S
C1150 C1152 1.395 . S
C1150 C1153 1.403 . S
H1151 C1157 0.930 . S
C1152 H1138 0.930 . S
C1152 C1150 1.395 . S
C1152 C1155 1.403 . S
C1153 C1150 1.403 . S
C1153 C1154 1.524 . S
C1153 C1157 1.400 . S
C1154 H1139 0.960 . S
C1154 H1140 0.960 . S
C1154 H1141 0.960 . S
C1154 C1153 1.524 . S
C1155 C1152 1.403 . S
C1155 C1156 1.392 . S
C1155 C1159 1.495 . S
C1156 C1155 1.392 . S
C1156 C1157 1.385 . S
C1156 C1158 1.478 . S
C1157 H1151 0.930 . S
C1157 C1153 1.400 . S
C1157 C1156 1.385 . S
C1158 C1156 1.478 . S
C1158 C1160 1.381 . S
C1158 C1164 1.383 . S
C1159 C1155 1.495 . S
C1159 H1165 0.959 . S
C1159 H1166 0.961 . S
C1159 H1167 0.960 . S
C1160 C1158 1.381 . S
C1160 C1161 1.394 . S
C1160 H1168 0.930 . S
C1161 C1160 1.394 . S
C1161 C1162 1.383 . S
C1161 H1169 0.929 . S
C1162 C1161 1.383 . S
C1162 C1163 1.377 . S
C1163 H1147 0.930 . S
C1163 C1162 1.377 . S
C1163 C1164 1.379 . S
C1164 H1148 0.931 . S
C1164 C1158 1.383 . S
C1164 C1163 1.379 . S
H1165 C1159 0.959 . S
H1166 C1159 0.961 . S
H1167 C1159 0.960 . S
H1168 C1160 0.930 . S
H1169 C1161 0.929 . S
H1170 C1178 0.929 . S
H1171 C1180 0.930 . S
H1172 C1182 0.930 . S
H1173 C1185 0.929 . S
H1174 C1188 0.930 . S
H1175 C1190 0.932 1_565 S
H1176 C1190 0.960 . S
H1177 C1190 0.960 . S
C1178 H1170 0.929 . S
C1178 C1179 1.377 . S
C1178 C1180 1.384 . S
C1179 C1178 1.377 . S
C1179 C1185 1.390 . S
C1180 H1171 0.930 . S
C1180 C1178 1.384 . S
C1180 C1181 1.372 . S
C1181 C1180 1.372 . S
C1181 C1182 1.400 . S
C1181 C1186 1.490 . S
C1182 H1172 0.930 . S
C1182 C1181 1.400 . S
C1182 C1185 1.386 . S
H1183 C1199 0.930 . S
H1184 C1200 0.931 . S
C1185 H1173 0.929 . S
C1185 C1179 1.390 . S
C1185 C1182 1.386 . S
C1186 C1181 1.490 . S
C1186 C1188 1.395 . S
C1186 C1189 1.403 . S
H1187 C1193 0.930 . S
C1188 H1174 0.930 . S
C1188 C1186 1.395 . S
C1188 C1191 1.403 1_545 S
C1189 C1186 1.403 . S
C1189 C1190 1.524 . S
C1189 C1193 1.400 1_545 S
C1190 H1175 0.932 1_545 S
C1190 H1176 0.960 . S
C1190 H1177 0.960 . S
C1190 C1189 1.524 . S
C1191 C1188 1.403 1_565 S
C1191 C1192 1.392 . S
C1191 C1195 1.495 . S
C1192 C1191 1.392 . S
C1192 C1193 1.385 . S
C1192 C1194 1.478 . S
C1193 H1187 0.930 . S
C1193 C1189 1.400 1_565 S
C1193 C1192 1.385 . S
C1194 C1192 1.478 . S
C1194 C1196 1.381 . S
C1194 C1200 1.383 . S
C1195 C1191 1.495 . S
C1195 H1201 0.959 . S
C1195 H1202 0.961 . S
C1195 H1203 0.960 . S
C1196 C1194 1.381 . S
C1196 C1197 1.394 . S
C1196 H1204 0.930 . S
C1197 C1196 1.394 . S
C1197 C1198 1.383 . S
C1197 H1205 0.929 . S
C1198 C1197 1.383 . S
C1198 C1199 1.377 . S
C1199 H1183 0.930 . S
C1199 C1198 1.377 . S
C1199 C1200 1.379 . S
C1200 H1184 0.931 . S
C1200 C1194 1.383 . S
C1200 C1199 1.379 . S
H1201 C1195 0.959 . S
H1202 C1195 0.961 . S
H1203 C1195 0.960 . S
H1204 C1196 0.930 . S
H1205 C1197 0.929 . S
H1206 C1214 0.929 . S
H1207 C1216 0.930 . S
H1208 C1218 0.930 . S
H1209 C1221 0.929 . S
H1210 C1224 0.930 . S
H1211 C1226 0.960 . S
H1212 C1226 0.960 . S
H1213 C1226 0.960 . S
C1214 H1206 0.929 . S
C1214 C1215 1.377 . S
C1214 C1216 1.384 . S
C1215 C1214 1.377 . S
C1215 C1221 1.390 . S
C1216 H1207 0.930 . S
C1216 C1214 1.384 . S
C1216 C1217 1.372 . S
C1217 C1216 1.372 . S
C1217 C1218 1.400 . S
C1217 C1222 1.490 . S
C1218 H1208 0.930 . S
C1218 C1217 1.400 . S
C1218 C1221 1.386 . S
H1219 C1235 0.930 . S
H1220 C1236 0.931 . S
C1221 H1209 0.929 . S
C1221 C1215 1.390 . S
C1221 C1218 1.386 . S
C1222 C1217 1.490 . S
C1222 C1224 1.395 1_655 S
C1222 C1225 1.403 . S
H1223 C1229 0.930 . S
C1224 H1210 0.930 . S
C1224 C1222 1.395 1_455 S
C1224 C1227 1.403 . S
C1225 C1222 1.403 . S
C1225 C1226 1.524 . S
C1225 C1229 1.400 1_655 S
C1226 H1211 0.960 . S
C1226 H1212 0.960 . S
C1226 H1213 0.960 . S
C1226 C1225 1.524 . S
C1227 C1224 1.403 . S
C1227 C1228 1.392 . S
C1227 C1231 1.495 . S
C1228 C1227 1.392 . S
C1228 C1229 1.385 . S
C1228 C1230 1.478 . S
C1229 H1223 0.930 . S
C1229 C1225 1.400 1_455 S
C1229 C1228 1.385 . S
C1230 C1228 1.478 . S
C1230 C1232 1.381 . S
C1230 C1236 1.383 . S
C1231 C1227 1.495 . S
C1231 H1237 0.959 . S
C1231 H1238 0.961 . S
C1231 H1239 0.960 . S
C1232 C1230 1.381 . S
C1232 C1233 1.394 . S
C1232 H1240 0.930 . S
C1233 C1232 1.394 . S
C1233 C1234 1.383 . S
C1233 H1241 0.929 . S
C1234 C1233 1.383 . S
C1234 C1235 1.377 . S
C1235 H1219 0.930 . S
C1235 C1234 1.377 . S
C1235 C1236 1.379 . S
C1236 H1220 0.931 . S
C1236 C1230 1.383 . S
C1236 C1235 1.379 . S
H1237 C1231 0.959 . S
H1238 C1231 0.961 . S
H1239 C1231 0.960 . S
H1240 C1232 0.930 . S
H1241 C1233 0.929 . S
H1242 C1250 0.929 . S
H1243 C1252 0.930 . S
H1244 C1254 0.930 . S
H1245 C1257 0.929 . S
H1246 C1260 0.930 . S
H1247 C1262 0.960 . S
H1248 C1262 0.960 . S
H1249 C1262 0.960 . S
C1250 H1242 0.929 . S
C1250 C1251 1.377 . S
C1250 C1252 1.384 . S
C1251 C1250 1.377 . S
C1251 C1257 1.390 . S
C1252 H1243 0.930 . S
C1252 C1250 1.384 . S
C1252 C1253 1.372 . S
C1253 C1252 1.372 . S
C1253 C1254 1.400 . S
C1253 C1258 1.490 . S
C1254 H1244 0.930 . S
C1254 C1253 1.400 . S
C1254 C1257 1.386 . S
H1255 C1271 0.930 . S
H1256 C1272 0.931 . S
C1257 H1245 0.929 . S
C1257 C1251 1.390 . S
C1257 C1254 1.386 . S
C1258 C1253 1.490 . S
C1258 C1260 1.395 . S
C1258 C1261 1.403 . S
H1259 C1265 0.930 . S
C1260 H1246 0.930 . S
C1260 C1258 1.395 . S
C1260 C1263 1.403 . S
C1261 C1258 1.403 . S
C1261 C1262 1.524 . S
C1261 C1265 1.400 . S
C1262 H1247 0.960 . S
C1262 H1248 0.960 . S
C1262 H1249 0.960 . S
C1262 C1261 1.524 . S
C1263 C1260 1.403 . S
C1263 C1264 1.392 . S
C1263 C1267 1.495 . S
C1264 C1263 1.392 . S
C1264 C1265 1.385 . S
C1264 C1266 1.478 . S
C1265 H1259 0.930 . S
C1265 C1261 1.400 . S
C1265 C1264 1.385 . S
C1266 C1264 1.478 . S
C1266 C1268 1.381 . S
C1266 C1272 1.383 . S
C1267 C1263 1.495 . S
C1267 H1273 0.959 . S
C1267 H1274 0.961 . S
C1267 H1275 0.960 . S
C1268 C1266 1.381 . S
C1268 C1269 1.394 . S
C1268 H1276 0.930 . S
C1269 C1268 1.394 . S
C1269 C1270 1.383 . S
C1269 H1277 0.929 . S
C1270 C1269 1.383 . S
C1270 C1271 1.377 . S
C1271 H1255 0.930 . S
C1271 C1270 1.377 . S
C1271 C1272 1.379 . S
C1272 H1256 0.931 . S
C1272 C1266 1.383 . S
C1272 C1271 1.379 . S
H1273 C1267 0.959 . S
H1274 C1267 0.961 . S
H1275 C1267 0.960 . S
H1276 C1268 0.930 . S
H1277 C1269 0.929 . S
H1278 C1286 0.929 . S
H1279 C1288 0.930 . S
H1280 C1290 0.930 . S
H1281 C1293 0.929 . S
H1282 C1296 0.930 . S
H1283 C1298 0.960 . S
H1284 C1298 0.960 . S
H1285 C1298 0.960 . S
C1286 H1278 0.929 . S
C1286 C1287 1.377 . S
C1286 C1288 1.384 . S
C1287 C1286 1.377 . S
C1287 C1293 1.390 . S
C1288 H1279 0.930 . S
C1288 C1286 1.384 . S
C1288 C1289 1.372 . S
C1289 C1288 1.372 . S
C1289 C1290 1.400 . S
C1289 C1294 1.490 . S
C1290 H1280 0.930 . S
C1290 C1289 1.400 . S
C1290 C1293 1.386 . S
H1291 C1307 0.930 . S
H1292 C1308 0.931 . S
C1293 H1281 0.929 . S
C1293 C1287 1.390 . S
C1293 C1290 1.386 . S
C1294 C1289 1.490 . S
C1294 C1296 1.395 . S
C1294 C1297 1.403 . S
H1295 C1301 0.930 . S
C1296 H1282 0.930 . S
C1296 C1294 1.395 . S
C1296 C1299 1.403 . S
C1297 C1294 1.403 . S
C1297 C1298 1.524 . S
C1297 C1301 1.400 . S
C1298 H1283 0.960 . S
C1298 H1284 0.960 . S
C1298 H1285 0.960 . S
C1298 C1297 1.524 . S
C1299 C1296 1.403 . S
C1299 C1300 1.392 . S
C1299 C1303 1.495 . S
C1300 C1299 1.392 . S
C1300 C1301 1.385 . S
C1300 C1302 1.478 . S
C1301 H1295 0.930 . S
C1301 C1297 1.400 . S
C1301 C1300 1.385 . S
C1302 C1300 1.478 . S
C1302 C1304 1.381 . S
C1302 C1308 1.383 . S
C1303 C1299 1.495 . S
C1303 H1309 0.959 . S
C1303 H1310 0.961 . S
C1303 H1311 0.960 . S
C1304 C1302 1.381 . S
C1304 C1305 1.394 . S
C1304 H1312 0.930 . S
C1305 C1304 1.394 . S
C1305 C1306 1.383 . S
C1305 H1313 0.929 . S
C1306 C1305 1.383 . S
C1306 C1307 1.377 . S
C1307 H1291 0.930 . S
C1307 C1306 1.377 . S
C1307 C1308 1.379 . S
C1308 H1292 0.931 . S
C1308 C1302 1.383 . S
C1308 C1307 1.379 . S
H1309 C1303 0.959 . S
H1310 C1303 0.961 . S
H1311 C1303 0.960 . S
H1312 C1304 0.930 . S
H1313 C1305 0.929 . S
H1314 C1322 0.929 . S
H1315 C1324 0.930 . S
H1316 C1326 0.930 . S
H1317 C1329 0.929 . S
H1318 C1332 0.930 . S
H1319 C1334 0.960 . S
H1320 C1334 0.960 . S
H1321 C1334 0.960 . S
C1322 H1314 0.929 . S
C1322 C1323 1.377 . S
C1322 C1324 1.384 . S
C1323 C1322 1.377 . S
C1323 C1329 1.390 . S
C1324 H1315 0.930 . S
C1324 C1322 1.384 . S
C1324 C1325 1.372 . S
C1325 C1324 1.372 . S
C1325 C1326 1.400 . S
C1325 C1330 1.490 . S
C1326 H1316 0.930 . S
C1326 C1325 1.400 . S
C1326 C1329 1.386 . S
H1327 C1343 0.930 . S
H1328 C1344 0.931 . S
C1329 H1317 0.929 . S
C1329 C1323 1.390 . S
C1329 C1326 1.386 . S
C1330 C1325 1.490 . S
C1330 C1332 1.395 . S
C1330 C1333 1.403 . S
H1331 C1337 0.930 . S
C1332 H1318 0.930 . S
C1332 C1330 1.395 . S
C1332 C1335 1.403 . S
C1333 C1330 1.403 . S
C1333 C1334 1.524 . S
C1333 C1337 1.400 . S
C1334 H1319 0.960 . S
C1334 H1320 0.960 . S
C1334 H1321 0.960 . S
C1334 C1333 1.524 . S
C1335 C1332 1.403 . S
C1335 C1336 1.392 . S
C1335 C1339 1.495 . S
C1336 C1335 1.392 . S
C1336 C1337 1.385 . S
C1336 C1338 1.478 . S
C1337 H1331 0.930 . S
C1337 C1333 1.400 . S
C1337 C1336 1.385 . S
C1338 C1336 1.478 . S
C1338 C1340 1.381 . S
C1338 C1344 1.383 . S
C1339 C1335 1.495 . S
C1339 H1345 0.959 . S
C1339 H1346 0.961 . S
C1339 H1347 0.960 . S
C1340 C1338 1.381 . S
C1340 C1341 1.394 . S
C1340 H1348 0.930 . S
C1341 C1340 1.394 . S
C1341 C1342 1.383 . S
C1341 H1349 0.929 . S
C1342 C1341 1.383 . S
C1342 C1343 1.377 . S
C1343 H1327 0.930 . S
C1343 C1342 1.377 . S
C1343 C1344 1.379 . S
C1344 H1328 0.931 . S
C1344 C1338 1.383 . S
C1344 C1343 1.379 . S
H1345 C1339 0.959 . S
H1346 C1339 0.961 . S
H1347 C1339 0.960 . S
H1348 C1340 0.930 . S
H1349 C1341 0.929 . S
H1350 C1358 0.929 . S
H1351 C1360 0.930 . S
H1352 C1362 0.930 . S
H1353 C1365 0.929 . S
H1354 C1368 0.930 . S
H1355 C1370 0.960 . S
H1356 C1370 0.960 . S
H1357 C1370 0.960 . S
C1358 H1350 0.929 . S
C1358 C1359 1.377 . S
C1358 C1360 1.384 . S
C1359 C1358 1.377 . S
C1359 C1365 1.390 . S
C1360 H1351 0.930 . S
C1360 C1358 1.384 . S
C1360 C1361 1.372 . S
C1361 C1360 1.372 . S
C1361 C1362 1.400 . S
C1361 C1366 1.490 . S
C1362 H1352 0.930 . S
C1362 C1361 1.400 . S
C1362 C1365 1.386 . S
H1363 C1379 0.930 . S
H1364 C1380 0.931 . S
C1365 H1353 0.929 . S
C1365 C1359 1.390 . S
C1365 C1362 1.386 . S
C1366 C1361 1.490 . S
C1366 C1368 1.395 . S
C1366 C1369 1.403 . S
H1367 C1373 0.930 . S
C1368 H1354 0.930 . S
C1368 C1366 1.395 . S
C1368 C1371 1.403 . S
C1369 C1366 1.403 . S
C1369 C1370 1.524 . S
C1369 C1373 1.400 . S
C1370 H1355 0.960 . S
C1370 H1356 0.960 . S
C1370 H1357 0.960 . S
C1370 C1369 1.524 . S
C1371 C1368 1.403 . S
C1371 C1372 1.392 . S
C1371 C1375 1.495 . S
C1372 C1371 1.392 . S
C1372 C1373 1.385 . S
C1372 C1374 1.478 . S
C1373 H1367 0.930 . S
C1373 C1369 1.400 . S
C1373 C1372 1.385 . S
C1374 C1372 1.478 . S
C1374 C1376 1.381 . S
C1374 C1380 1.383 . S
C1375 C1371 1.495 . S
C1375 H1381 0.959 . S
C1375 H1382 0.961 . S
C1375 H1383 0.960 . S
C1376 C1374 1.381 . S
C1376 C1377 1.394 . S
C1376 H1384 0.930 . S
C1377 C1376 1.394 . S
C1377 C1378 1.383 . S
C1377 H1385 0.929 . S
C1378 C1377 1.383 . S
C1378 C1379 1.377 . S
C1379 H1363 0.930 . S
C1379 C1378 1.377 . S
C1379 C1380 1.379 . S
C1380 H1364 0.931 . S
C1380 C1374 1.383 . S
C1380 C1379 1.379 . S
H1381 C1375 0.959 . S
H1382 C1375 0.961 . S
H1383 C1375 0.960 . S
H1384 C1376 0.930 . S
H1385 C1377 0.929 . S
H1386 C1394 0.929 . S
H1387 C1396 0.930 . S
H1388 C1398 0.930 . S
H1389 C1401 0.929 . S
H1390 C1404 0.930 . S
H1391 C1406 0.960 1_545 S
H1392 C1406 0.960 . S
H1393 C1406 0.960 . S
C1394 H1386 0.929 . S
C1394 C1395 1.377 . S
C1394 C1396 1.384 . S
C1395 C1394 1.377 . S
C1395 C1401 1.390 . S
C1396 H1387 0.930 . S
C1396 C1394 1.384 . S
C1396 C1397 1.372 . S
C1397 C1396 1.372 . S
C1397 C1398 1.400 . S
C1397 C1402 1.490 1_565 S
C1398 H1388 0.930 . S
C1398 C1397 1.400 . S
C1398 C1401 1.386 . S
H1399 C1415 0.930 . S
H1400 C1416 0.931 . S
C1401 H1389 0.929 . S
C1401 C1395 1.390 . S
C1401 C1398 1.386 . S
C1402 C1397 1.490 1_545 S
C1402 C1404 1.395 . S
C1402 C1405 1.403 . S
H1403 C1409 0.930 . S
C1404 H1390 0.930 . S
C1404 C1402 1.395 . S
C1404 C1407 1.403 . S
C1405 C1402 1.403 . S
C1405 C1406 1.524 1_545 S
C1405 C1409 1.400 . S
C1406 H1391 0.960 1_565 S
C1406 H1392 0.960 . S
C1406 H1393 0.960 . S
C1406 C1405 1.524 1_565 S
C1407 C1404 1.403 . S
C1407 C1408 1.392 . S
C1407 C1411 1.495 . S
C1408 C1407 1.392 . S
C1408 C1409 1.385 . S
C1408 C1410 1.478 . S
C1409 H1403 0.930 . S
C1409 C1405 1.400 . S
C1409 C1408 1.385 . S
C1410 C1408 1.478 . S
C1410 C1412 1.381 . S
C1410 C1416 1.383 . S
C1411 C1407 1.495 . S
C1411 H1417 0.959 . S
C1411 H1418 0.961 . S
C1411 H1419 0.960 . S
C1412 C1410 1.381 . S
C1412 C1413 1.394 . S
C1412 H1420 0.930 . S
C1413 C1412 1.394 . S
C1413 C1414 1.383 . S
C1413 H1421 0.929 . S
C1414 C1413 1.383 . S
C1414 C1415 1.377 . S
C1415 H1399 0.930 . S
C1415 C1414 1.377 . S
C1415 C1416 1.379 . S
C1416 H1400 0.931 . S
C1416 C1410 1.383 . S
C1416 C1415 1.379 . S
H1417 C1411 0.959 . S
H1418 C1411 0.961 . S
H1419 C1411 0.960 . S
H1420 C1412 0.930 . S
H1421 C1413 0.929 . S
H1422 C1430 0.929 . S
H1423 C1432 0.930 . S
H1424 C1434 0.930 . S
H1425 C1437 0.929 . S
H1426 C1440 0.930 . S
H1427 C1442 0.960 . S
H1428 C1442 0.960 . S
H1429 C1442 0.960 . S
C1430 H1422 0.929 . S
C1430 C1431 1.377 . S
C1430 C1432 1.384 . S
C1431 C1430 1.377 . S
C1431 C1437 1.390 . S
C1432 H1423 0.930 . S
C1432 C1430 1.384 . S
C1432 C1433 1.372 . S
C1433 C1432 1.372 . S
C1433 C1434 1.400 . S
C1433 C1438 1.490 . S
C1434 H1424 0.930 . S
C1434 C1433 1.400 . S
C1434 C1437 1.386 . S
H1435 C1451 0.930 . S
H1436 C1452 0.931 . S
C1437 H1425 0.929 . S
C1437 C1431 1.390 . S
C1437 C1434 1.386 . S
C1438 C1433 1.490 . S
C1438 C1440 1.395 1_455 S
C1438 C1441 1.403 1_455 S
H1439 C1445 0.930 . S
C1440 H1426 0.930 . S
C1440 C1438 1.395 1_655 S
C1440 C1443 1.403 . S
C1441 C1438 1.403 1_655 S
C1441 C1442 1.524 1_655 S
C1441 C1445 1.400 . S
C1442 H1427 0.960 . S
C1442 H1428 0.960 . S
C1442 H1429 0.960 . S
C1442 C1441 1.524 1_455 S
C1443 C1440 1.403 . S
C1443 C1444 1.392 . S
C1443 C1447 1.495 . S
C1444 C1443 1.392 . S
C1444 C1445 1.385 . S
C1444 C1446 1.478 . S
C1445 H1439 0.930 . S
C1445 C1441 1.400 . S
C1445 C1444 1.385 . S
C1446 C1444 1.478 . S
C1446 C1448 1.381 . S
C1446 C1452 1.383 . S
C1447 C1443 1.495 . S
C1447 H1453 0.959 . S
C1447 H1454 0.961 . S
C1447 H1455 0.960 . S
C1448 C1446 1.381 . S
C1448 C1449 1.394 . S
C1448 H1456 0.930 . S
C1449 C1448 1.394 . S
C1449 C1450 1.383 . S
C1449 H1457 0.929 . S
C1450 C1449 1.383 . S
C1450 C1451 1.377 . S
C1451 H1435 0.930 . S
C1451 C1450 1.377 . S
C1451 C1452 1.379 . S
C1452 H1436 0.931 . S
C1452 C1446 1.383 . S
C1452 C1451 1.379 . S
H1453 C1447 0.959 . S
H1454 C1447 0.961 . S
H1455 C1447 0.960 . S
H1456 C1448 0.930 . S
H1457 C1449 0.929 . S
H1458 C1466 0.929 . S
H1459 C1468 0.930 . S
H1460 C1470 0.930 . S
H1461 C1473 0.929 . S
H1462 C1476 0.930 . S
H1463 C1478 0.960 . S
H1464 C1478 0.960 . S
H1465 C1478 0.960 . S
C1466 H1458 0.929 . S
C1466 C1467 1.377 . S
C1466 C1468 1.384 . S
C1467 C1466 1.377 . S
C1467 C1473 1.390 . S
C1468 H1459 0.930 . S
C1468 C1466 1.384 . S
C1468 C1469 1.372 . S
C1469 C1468 1.372 . S
C1469 C1470 1.400 . S
C1469 C1474 1.490 . S
C1470 H1460 0.930 . S
C1470 C1469 1.400 . S
C1470 C1473 1.386 . S
H1471 C1487 0.930 . S
H1472 C1488 0.931 . S
C1473 H1461 0.929 . S
C1473 C1467 1.390 . S
C1473 C1470 1.386 . S
C1474 C1469 1.490 . S
C1474 C1476 1.395 . S
C1474 C1477 1.403 . S
H1475 C1481 0.930 . S
C1476 H1462 0.930 . S
C1476 C1474 1.395 . S
C1476 C1479 1.403 . S
C1477 C1474 1.403 . S
C1477 C1478 1.524 . S
C1477 C1481 1.400 . S
C1478 H1463 0.960 . S
C1478 H1464 0.960 . S
C1478 H1465 0.960 . S
C1478 C1477 1.524 . S
C1479 C1476 1.403 . S
C1479 C1480 1.392 . S
C1479 C1483 1.495 . S
C1480 C1479 1.392 . S
C1480 C1481 1.385 . S
C1480 C1482 1.478 . S
C1481 H1475 0.930 . S
C1481 C1477 1.400 . S
C1481 C1480 1.385 . S
C1482 C1480 1.478 . S
C1482 C1484 1.381 . S
C1482 C1488 1.383 . S
C1483 C1479 1.495 . S
C1483 H1489 0.959 . S
C1483 H1490 0.961 . S
C1483 H1491 0.960 . S
C1484 C1482 1.381 . S
C1484 C1485 1.394 . S
C1484 H1492 0.930 . S
C1485 C1484 1.394 . S
C1485 C1486 1.383 . S
C1485 H1493 0.929 . S
C1486 C1485 1.383 . S
C1486 C1487 1.377 . S
C1487 H1471 0.930 . S
C1487 C1486 1.377 . S
C1487 C1488 1.379 . S
C1488 H1472 0.931 . S
C1488 C1482 1.383 . S
C1488 C1487 1.379 . S
H1489 C1483 0.959 . S
H1490 C1483 0.961 . S
H1491 C1483 0.960 . S
H1492 C1484 0.930 . S
H1493 C1485 0.929 . S
H1494 C1502 0.929 . S
H1495 C1504 0.930 . S
H1496 C1506 0.930 . S
H1497 C1509 0.929 . S
H1498 C1512 0.930 . S
H1499 C1514 0.960 . S
H1500 C1514 0.960 . S
H1501 C1514 0.960 . S
C1502 H1494 0.929 . S
C1502 C1503 1.377 . S
C1502 C1504 1.384 . S
C1503 C1502 1.377 . S
C1503 C1509 1.390 . S
C1504 H1495 0.930 . S
C1504 C1502 1.384 . S
C1504 C1505 1.372 . S
C1505 C1504 1.372 . S
C1505 C1506 1.400 . S
C1505 C1510 1.490 . S
C1506 H1496 0.930 . S
C1506 C1505 1.400 . S
C1506 C1509 1.386 . S
H1507 C1523 0.930 . S
H1508 C1524 0.931 . S
C1509 H1497 0.929 . S
C1509 C1503 1.390 . S
C1509 C1506 1.386 . S
C1510 C1505 1.490 . S
C1510 C1512 1.395 . S
C1510 C1513 1.403 . S
H1511 C1517 0.930 . S
C1512 H1498 0.930 . S
C1512 C1510 1.395 . S
C1512 C1515 1.403 . S
C1513 C1510 1.403 . S
C1513 C1514 1.524 . S
C1513 C1517 1.400 . S
C1514 H1499 0.960 . S
C1514 H1500 0.960 . S
C1514 H1501 0.960 . S
C1514 C1513 1.524 . S
C1515 C1512 1.403 . S
C1515 C1516 1.392 . S
C1515 C1519 1.495 . S
C1516 C1515 1.392 . S
C1516 C1517 1.385 . S
C1516 C1518 1.478 1_455 S
C1517 H1511 0.930 . S
C1517 C1513 1.400 . S
C1517 C1516 1.385 . S
C1518 C1516 1.478 1_655 S
C1518 C1520 1.381 . S
C1518 C1524 1.383 . S
C1519 C1515 1.495 . S
C1519 H1525 0.959 . S
C1519 H1526 0.961 1_455 S
C1519 H1527 0.960 1_455 S
C1520 C1518 1.381 . S
C1520 C1521 1.394 . S
C1520 H1528 0.930 . S
C1521 C1520 1.394 . S
C1521 C1522 1.383 . S
C1521 H1529 0.929 . S
C1522 C1521 1.383 . S
C1522 C1523 1.377 . S
C1523 H1507 0.930 . S
C1523 C1522 1.377 . S
C1523 C1524 1.379 . S
C1524 H1508 0.931 . S
C1524 C1518 1.383 . S
C1524 C1523 1.379 . S
H1525 C1519 0.959 . S
H1526 C1519 0.961 1_655 S
H1527 C1519 0.960 1_655 S
H1528 C1520 0.930 . S
H1529 C1521 0.929 . S
H1530 C1538 0.929 . S
H1531 C1540 0.930 . S
H1532 C1542 0.930 . S
H1533 C1545 0.929 . S
H1534 C1548 0.930 . S
H1535 C1550 0.960 . S
H1536 C1550 0.960 . S
H1537 C1550 0.960 . S
C1538 H1530 0.929 . S
C1538 C1539 1.377 . S
C1538 C1540 1.384 . S
C1539 C1538 1.377 . S
C1539 C1545 1.390 . S
C1540 H1531 0.930 . S
C1540 C1538 1.384 . S
C1540 C1541 1.372 . S
C1541 C1540 1.372 . S
C1541 C1542 1.400 . S
C1541 C1546 1.490 . S
C1542 H1532 0.930 . S
C1542 C1541 1.400 . S
C1542 C1545 1.386 . S
H1543 C1559 0.930 . S
H1544 C1560 0.931 . S
C1545 H1533 0.929 . S
C1545 C1539 1.390 . S
C1545 C1542 1.386 . S
C1546 C1541 1.490 . S
C1546 C1548 1.395 . S
C1546 C1549 1.403 . S
H1547 C1553 0.930 . S
C1548 H1534 0.930 . S
C1548 C1546 1.395 . S
C1548 C1551 1.403 . S
C1549 C1546 1.403 . S
C1549 C1550 1.524 . S
C1549 C1553 1.400 . S
C1550 H1535 0.960 . S
C1550 H1536 0.960 . S
C1550 H1537 0.960 . S
C1550 C1549 1.524 . S
C1551 C1548 1.403 . S
C1551 C1552 1.392 . S
C1551 C1555 1.495 . S
C1552 C1551 1.392 . S
C1552 C1553 1.385 . S
C1552 C1554 1.478 . S
C1553 H1547 0.930 . S
C1553 C1549 1.400 . S
C1553 C1552 1.385 . S
C1554 C1552 1.478 . S
C1554 C1556 1.381 . S
C1554 C1560 1.383 . S
C1555 C1551 1.495 . S
C1555 H1561 0.959 . S
C1555 H1562 0.961 . S
C1555 H1563 0.960 . S
C1556 C1554 1.381 . S
C1556 C1557 1.394 . S
C1556 H1564 0.930 . S
C1557 C1556 1.394 . S
C1557 C1558 1.383 . S
C1557 H1565 0.929 . S
C1558 C1557 1.383 . S
C1558 C1559 1.377 . S
C1559 H1543 0.930 . S
C1559 C1558 1.377 . S
C1559 C1560 1.379 . S
C1560 H1544 0.931 . S
C1560 C1554 1.383 . S
C1560 C1559 1.379 . S
H1561 C1555 0.959 . S
H1562 C1555 0.961 . S
H1563 C1555 0.960 . S
H1564 C1556 0.930 . S
H1565 C1557 0.929 . S
H1566 C1574 0.929 . S
H1567 C1576 0.930 . S
H1568 C1578 0.930 . S
H1569 C1581 0.929 . S
H1570 C1584 0.930 1_565 S
H1571 C1586 0.960 . S
H1572 C1586 0.960 . S
H1573 C1586 0.960 . S
C1574 H1566 0.929 . S
C1574 C1575 1.377 . S
C1574 C1576 1.384 . S
C1575 C1574 1.377 . S
C1575 C1581 1.390 . S
C1576 H1567 0.930 . S
C1576 C1574 1.384 . S
C1576 C1577 1.372 . S
C1577 C1576 1.372 . S
C1577 C1578 1.400 . S
C1577 C1582 1.490 . S
C1578 H1568 0.930 . S
C1578 C1577 1.400 . S
C1578 C1581 1.386 . S
H1579 C1595 0.930 . S
H1580 C1596 0.931 . S
C1581 H1569 0.929 . S
C1581 C1575 1.390 . S
C1581 C1578 1.386 . S
C1582 C1577 1.490 . S
C1582 C1584 1.395 1_565 S
C1582 C1585 1.403 . S
H1583 C1589 0.930 . S
C1584 H1570 0.930 1_545 S
C1584 C1582 1.395 1_545 S
C1584 C1587 1.403 . S
C1585 C1582 1.403 . S
C1585 C1586 1.524 . S
C1585 C1589 1.400 1_565 S
C1586 H1571 0.960 . S
C1586 H1572 0.960 . S
C1586 H1573 0.960 . S
C1586 C1585 1.524 . S
C1587 C1584 1.403 . S
C1587 C1588 1.392 . S
C1587 C1591 1.495 . S
C1588 C1587 1.392 . S
C1588 C1589 1.385 . S
C1588 C1590 1.478 . S
C1589 H1583 0.930 . S
C1589 C1585 1.400 1_545 S
C1589 C1588 1.385 . S
C1590 C1588 1.478 . S
C1590 C1592 1.381 . S
C1590 C1596 1.383 . S
C1591 C1587 1.495 . S
C1591 H1597 0.959 . S
C1591 H1598 0.961 . S
C1591 H1599 0.960 . S
C1592 C1590 1.381 . S
C1592 C1593 1.394 . S
C1592 H1600 0.930 . S
C1593 C1592 1.394 . S
C1593 C1594 1.383 . S
C1593 H1601 0.929 . S
C1594 C1593 1.383 . S
C1594 C1595 1.377 . S
C1595 H1579 0.930 . S
C1595 C1594 1.377 . S
C1595 C1596 1.379 . S
C1596 H1580 0.931 . S
C1596 C1590 1.383 . S
C1596 C1595 1.379 . S
H1597 C1591 0.959 . S
H1598 C1591 0.961 . S
H1599 C1591 0.960 . S
H1600 C1592 0.930 . S
H1601 C1593 0.929 . S
H1602 C1610 0.929 . S
H1603 C1612 0.930 . S
H1604 C1614 0.930 . S
H1605 C1617 0.929 . S
H1606 C1620 0.930 . S
H1607 C1622 0.960 . S
H1608 C1622 0.960 . S
H1609 C1622 0.960 . S
C1610 H1602 0.929 . S
C1610 C1611 1.377 . S
C1610 C1612 1.384 . S
C1611 C1610 1.377 . S
C1611 C1617 1.390 . S
C1612 H1603 0.930 . S
C1612 C1610 1.384 . S
C1612 C1613 1.372 . S
C1613 C1612 1.372 . S
C1613 C1614 1.400 . S
C1613 C1618 1.490 . S
C1614 H1604 0.930 . S
C1614 C1613 1.400 . S
C1614 C1617 1.386 . S
H1615 C1631 0.930 . S
H1616 C1632 0.931 . S
C1617 H1605 0.929 . S
C1617 C1611 1.390 . S
C1617 C1614 1.386 . S
C1618 C1613 1.490 . S
C1618 C1620 1.395 . S
C1618 C1621 1.403 . S
H1619 C1625 0.930 . S
C1620 H1606 0.930 . S
C1620 C1618 1.395 . S
C1620 C1623 1.403 . S
C1621 C1618 1.403 . S
C1621 C1622 1.524 . S
C1621 C1625 1.400 . S
C1622 H1607 0.960 . S
C1622 H1608 0.960 . S
C1622 H1609 0.960 . S
C1622 C1621 1.524 . S
C1623 C1620 1.403 . S
C1623 C1624 1.392 . S
C1623 C1627 1.495 . S
C1624 C1623 1.392 . S
C1624 C1625 1.385 . S
C1624 C1626 1.478 . S
C1625 H1619 0.930 . S
C1625 C1621 1.400 . S
C1625 C1624 1.385 . S
C1626 C1624 1.478 . S
C1626 C1628 1.381 . S
C1626 C1632 1.383 . S
C1627 C1623 1.495 . S
C1627 H1633 0.959 . S
C1627 H1634 0.961 . S
C1627 H1635 0.960 . S
C1628 C1626 1.381 . S
C1628 C1629 1.394 . S
C1628 H1636 0.930 . S
C1629 C1628 1.394 . S
C1629 C1630 1.383 . S
C1629 H1637 0.929 . S
C1630 C1629 1.383 . S
C1630 C1631 1.377 . S
C1631 H1615 0.930 . S
C1631 C1630 1.377 . S
C1631 C1632 1.379 . S
C1632 H1616 0.931 . S
C1632 C1626 1.383 . S
C1632 C1631 1.379 . S
H1633 C1627 0.959 . S
H1634 C1627 0.961 . S
H1635 C1627 0.960 . S
H1636 C1628 0.930 . S
H1637 C1629 0.929 . S
H1638 C1646 0.929 . S
H1639 C1648 0.930 . S
H1640 C1650 0.930 . S
H1641 C1653 0.929 . S
H1642 C1656 0.930 . S
H1643 C1658 0.960 . S
H1644 C1658 0.960 . S
H1645 C1658 0.960 . S
C1646 H1638 0.929 . S
C1646 C1647 1.377 . S
C1646 C1648 1.384 . S
C1647 C1646 1.377 . S
C1647 C1653 1.390 . S
C1648 H1639 0.930 . S
C1648 C1646 1.384 . S
C1648 C1649 1.372 . S
C1649 C1648 1.372 . S
C1649 C1650 1.400 . S
C1649 C1654 1.490 . S
C1650 H1640 0.930 . S
C1650 C1649 1.400 . S
C1650 C1653 1.386 . S
H1651 C1667 0.930 . S
H1652 C1668 0.931 . S
C1653 H1641 0.929 . S
C1653 C1647 1.390 . S
C1653 C1650 1.386 . S
C1654 C1649 1.490 . S
C1654 C1656 1.395 . S
C1654 C1657 1.403 . S
H1655 C1661 0.930 . S
C1656 H1642 0.930 . S
C1656 C1654 1.395 . S
C1656 C1659 1.403 . S
C1657 C1654 1.403 . S
C1657 C1658 1.524 . S
C1657 C1661 1.400 . S
C1658 H1643 0.960 . S
C1658 H1644 0.960 . S
C1658 H1645 0.960 . S
C1658 C1657 1.524 . S
C1659 C1656 1.403 . S
C1659 C1660 1.392 . S
C1659 C1663 1.495 . S
C1660 C1659 1.392 . S
C1660 C1661 1.385 . S
C1660 C1662 1.478 . S
C1661 H1655 0.930 . S
C1661 C1657 1.400 . S
C1661 C1660 1.385 . S
C1662 C1660 1.478 . S
C1662 C1664 1.381 . S
C1662 C1668 1.383 . S
C1663 C1659 1.495 . S
C1663 H1669 0.959 . S
C1663 H1670 0.961 . S
C1663 H1671 0.960 . S
C1664 C1662 1.381 . S
C1664 C1665 1.394 . S
C1664 H1672 0.930 . S
C1665 C1664 1.394 . S
C1665 C1666 1.383 . S
C1665 H1673 0.929 . S
C1666 C1665 1.383 . S
C1666 C1667 1.377 . S
C1667 H1651 0.930 . S
C1667 C1666 1.377 . S
C1667 C1668 1.379 . S
C1668 H1652 0.931 . S
C1668 C1662 1.383 . S
C1668 C1667 1.379 . S
H1669 C1663 0.959 . S
H1670 C1663 0.961 . S
H1671 C1663 0.960 . S
H1672 C1664 0.930 . S
H1673 C1665 0.929 . S
H1674 C1682 0.929 . S
H1675 C1684 0.930 . S
H1676 C1686 0.930 . S
H1677 C1689 0.929 . S
H1678 C1692 0.930 . S
H1679 C1694 0.960 . S
H1680 C1694 0.960 . S
H1681 C1694 0.960 . S
C1682 H1674 0.929 . S
C1682 C1683 1.377 . S
C1682 C1684 1.384 . S
C1683 C1682 1.377 . S
C1683 C1689 1.390 . S
C1684 H1675 0.930 . S
C1684 C1682 1.384 . S
C1684 C1685 1.372 . S
C1685 C1684 1.372 . S
C1685 C1686 1.400 . S
C1685 C1690 1.490 . S
C1686 H1676 0.930 . S
C1686 C1685 1.400 . S
C1686 C1689 1.386 . S
H1687 C1703 0.930 . S
H1688 C1704 0.931 . S
C1689 H1677 0.929 . S
C1689 C1683 1.390 . S
C1689 C1686 1.386 . S
C1690 C1685 1.490 . S
C1690 C1692 1.395 . S
C1690 C1693 1.403 . S
H1691 C1697 0.930 . S
C1692 H1678 0.930 . S
C1692 C1690 1.395 . S
C1692 C1695 1.403 . S
C1693 C1690 1.403 . S
C1693 C1694 1.524 . S
C1693 C1697 1.400 . S
C1694 H1679 0.960 . S
C1694 H1680 0.960 . S
C1694 H1681 0.960 . S
C1694 C1693 1.524 . S
C1695 C1692 1.403 . S
C1695 C1696 1.392 . S
C1695 C1699 1.495 . S
C1696 C1695 1.392 . S
C1696 C1697 1.385 . S
C1696 C1698 1.478 . S
C1697 H1691 0.930 . S
C1697 C1693 1.400 . S
C1697 C1696 1.385 . S
C1698 C1696 1.478 . S
C1698 C1700 1.381 . S
C1698 C1704 1.383 . S
C1699 C1695 1.495 . S
C1699 H1705 0.959 . S
C1699 H1706 0.961 . S
C1699 H1707 0.960 . S
C1700 C1698 1.381 . S
C1700 C1701 1.394 . S
C1700 H1708 0.930 . S
C1701 C1700 1.394 . S
C1701 C1702 1.383 . S
C1701 H1709 0.929 . S
C1702 C1701 1.383 . S
C1702 C1703 1.377 . S
C1703 H1687 0.930 . S
C1703 C1702 1.377 . S
C1703 C1704 1.379 . S
C1704 H1688 0.931 . S
C1704 C1698 1.383 . S
C1704 C1703 1.379 . S
H1705 C1699 0.959 . S
H1706 C1699 0.961 . S
H1707 C1699 0.960 . S
H1708 C1700 0.930 . S
H1709 C1701 0.929 . S
H1710 C1718 0.929 . S
H1711 C1720 0.930 . S
H1712 C1722 0.930 . S
H1713 C1725 0.929 . S
H1714 C1728 0.930 . S
H1715 C1730 0.960 . S
H1716 C1730 0.960 . S
H1717 C1730 0.960 . S
C1718 H1710 0.929 . S
C1718 C1719 1.377 . S
C1718 C1720 1.384 . S
C1719 C1718 1.377 . S
C1719 C1725 1.390 . S
C1720 H1711 0.930 . S
C1720 C1718 1.384 . S
C1720 C1721 1.372 . S
C1721 C1720 1.372 . S
C1721 C1722 1.400 . S
C1721 C1726 1.490 . S
C1722 H1712 0.930 . S
C1722 C1721 1.400 . S
C1722 C1725 1.386 . S
H1723 C1739 0.941 . S
H1724 C1740 0.931 . S
C1725 H1713 0.929 . S
C1725 C1719 1.390 . S
C1725 C1722 1.386 . S
C1726 C1721 1.490 . S
C1726 C1728 1.395 . S
C1726 C1729 1.403 . S
H1727 C1733 0.930 . S
C1728 H1714 0.930 . S
C1728 C1726 1.395 . S
C1728 C1731 1.403 . S
C1729 C1726 1.403 . S
C1729 C1730 1.524 . S
C1729 C1733 1.400 . S
C1730 H1715 0.960 . S
C1730 H1716 0.960 . S
C1730 H1717 0.960 . S
C1730 C1729 1.524 . S
C1731 C1728 1.403 . S
C1731 C1732 1.392 . S
C1731 C1735 1.495 . S
C1732 C1731 1.392 . S
C1732 C1733 1.385 . S
C1732 C1734 1.478 . S
C1733 H1727 0.930 . S
C1733 C1729 1.400 . S
C1733 C1732 1.385 . S
C1734 C1732 1.478 . S
C1734 C1736 1.381 . S
C1734 C1740 1.383 . S
C1735 C1731 1.495 . S
C1735 H1741 0.959 . S
C1735 H1742 0.961 . S
C1735 H1743 0.960 . S
C1736 C1734 1.381 . S
C1736 C1737 1.394 . S
C1736 H1744 0.930 . S
C1737 C1736 1.394 . S
C1737 C1738 1.383 . S
C1737 H1745 0.929 . S
C1738 C1737 1.383 . S
C1738 C1739 1.377 . S
C1739 H1723 0.941 . S
C1739 C1738 1.377 . S
C1739 C1740 1.379 . S
C1740 H1724 0.931 . S
C1740 C1734 1.383 . S
C1740 C1739 1.379 . S
H1741 C1735 0.959 . S
H1742 C1735 0.961 . S
H1743 C1735 0.960 . S
H1744 C1736 0.930 . S
H1745 C1737 0.929 . S
H1746 C1754 0.929 . S
H1747 C1756 0.930 . S
H1748 C1758 0.930 . S
H1749 C1761 0.929 . S
H1750 C1764 0.930 . S
H1751 C1766 0.960 . S
H1752 C1766 0.960 . S
H1753 C1766 0.960 . S
C1754 H1746 0.929 . S
C1754 C1755 1.377 . S
C1754 C1756 1.384 . S
C1755 C1754 1.377 . S
C1755 C1761 1.390 . S
C1756 H1747 0.930 . S
C1756 C1754 1.384 . S
C1756 C1757 1.372 . S
C1757 C1756 1.372 . S
C1757 C1758 1.400 . S
C1757 C1762 1.490 . S
C1758 H1748 0.930 . S
C1758 C1757 1.400 . S
C1758 C1761 1.386 . S
H1759 C1775 0.930 . S
H1760 C1776 0.931 . S
C1761 H1749 0.929 . S
C1761 C1755 1.390 . S
C1761 C1758 1.386 . S
C1762 C1757 1.490 . S
C1762 C1764 1.395 . S
C1762 C1765 1.403 . S
H1763 C1769 0.930 . S
C1764 H1750 0.930 . S
C1764 C1762 1.395 . S
C1764 C1767 1.403 . S
C1765 C1762 1.403 . S
C1765 C1766 1.524 . S
C1765 C1769 1.400 . S
C1766 H1751 0.960 . S
C1766 H1752 0.960 . S
C1766 H1753 0.960 . S
C1766 C1765 1.524 . S
C1767 C1764 1.403 . S
C1767 C1768 1.392 . S
C1767 C1771 1.495 . S
C1768 C1767 1.392 . S
C1768 C1769 1.385 . S
C1768 C1770 1.478 . S
C1769 H1763 0.930 . S
C1769 C1765 1.400 . S
C1769 C1768 1.385 . S
C1770 C1768 1.478 . S
C1770 C1772 1.381 . S
C1770 C1776 1.383 . S
C1771 C1767 1.495 . S
C1771 H1777 0.959 . S
C1771 H1778 0.961 . S
C1771 H1779 0.960 . S
C1772 C1770 1.381 . S
C1772 C1773 1.394 . S
C1772 H1780 0.930 . S
C1773 C1772 1.394 . S
C1773 C1774 1.383 . S
C1773 H1781 0.929 . S
C1774 C1773 1.383 . S
C1774 C1775 1.377 . S
C1775 H1759 0.930 . S
C1775 C1774 1.377 . S
C1775 C1776 1.379 . S
C1776 H1760 0.931 . S
C1776 C1770 1.383 . S
C1776 C1775 1.379 . S
H1777 C1771 0.959 . S
H1778 C1771 0.961 . S
H1779 C1771 0.960 . S
H1780 C1772 0.930 . S
H1781 C1773 0.929 . S
H1782 C1790 0.929 . S
H1783 C1792 0.930 . S
H1784 C1794 0.930 . S
H1785 C1797 0.929 . S
H1786 C1800 0.930 . S
H1787 C1802 0.960 . S
H1788 C1802 0.960 . S
H1789 C1802 0.960 . S
C1790 H1782 0.929 . S
C1790 C1791 1.377 . S
C1790 C1792 1.384 . S
C1791 C1790 1.377 . S
C1791 C1797 1.390 . S
C1792 H1783 0.930 . S
C1792 C1790 1.384 . S
C1792 C1793 1.372 . S
C1793 C1792 1.372 . S
C1793 C1794 1.400 . S
C1793 C1798 1.490 . S
C1794 H1784 0.930 . S
C1794 C1793 1.400 . S
C1794 C1797 1.386 . S
H1795 C1811 0.930 . S
H1796 C1812 0.931 . S
C1797 H1785 0.929 . S
C1797 C1791 1.390 . S
C1797 C1794 1.386 . S
C1798 C1793 1.490 . S
C1798 C1800 1.395 . S
C1798 C1801 1.403 . S
H1799 C1805 0.930 . S
C1800 H1786 0.930 . S
C1800 C1798 1.395 . S
C1800 C1803 1.403 . S
C1801 C1798 1.403 . S
C1801 C1802 1.524 . S
C1801 C1805 1.400 . S
C1802 H1787 0.960 . S
C1802 H1788 0.960 . S
C1802 H1789 0.960 . S
C1802 C1801 1.524 . S
C1803 C1800 1.403 . S
C1803 C1804 1.392 . S
C1803 C1807 1.495 . S
C1804 C1803 1.392 . S
C1804 C1805 1.385 . S
C1804 C1806 1.478 . S
C1805 H1799 0.930 . S
C1805 C1801 1.400 . S
C1805 C1804 1.385 . S
C1806 C1804 1.478 . S
C1806 C1808 1.381 . S
C1806 C1812 1.383 . S
C1807 C1803 1.495 . S
C1807 H1813 0.959 . S
C1807 H1814 0.961 . S
C1807 H1815 0.960 . S
C1808 C1806 1.381 . S
C1808 C1809 1.394 . S
C1808 H1816 0.930 . S
C1809 C1808 1.394 . S
C1809 C1810 1.383 . S
C1809 H1817 0.929 . S
C1810 C1809 1.383 . S
C1810 C1811 1.377 . S
C1811 H1795 0.930 . S
C1811 C1810 1.377 . S
C1811 C1812 1.379 . S
C1812 H1796 0.931 . S
C1812 C1806 1.383 . S
C1812 C1811 1.379 . S
H1813 C1807 0.959 . S
H1814 C1807 0.961 . S
H1815 C1807 0.960 . S
H1816 C1808 0.930 . S
H1817 C1809 0.929 . S
H1818 C1826 0.929 . S
H1819 C1828 0.930 . S
H1820 C1830 0.930 . S
H1821 C1833 0.929 . S
H1822 C1836 0.930 . S
H1823 C1838 0.960 . S
H1824 C1838 0.960 . S
H1825 C1838 0.960 . S
C1826 H1818 0.929 . S
C1826 C1827 1.377 . S
C1826 C1828 1.384 . S
C1827 C1826 1.377 . S
C1827 C1833 1.390 . S
C1828 H1819 0.930 . S
C1828 C1826 1.384 . S
C1828 C1829 1.372 . S
C1829 C1828 1.372 . S
C1829 C1830 1.400 . S
C1829 C1834 1.490 . S
C1830 H1820 0.930 . S
C1830 C1829 1.400 . S
C1830 C1833 1.386 . S
H1831 C1847 0.930 . S
H1832 C1848 0.931 . S
C1833 H1821 0.929 . S
C1833 C1827 1.390 . S
C1833 C1830 1.386 . S
C1834 C1829 1.490 . S
C1834 C1836 1.395 . S
C1834 C1837 1.403 . S
H1835 C1841 0.930 . S
C1836 H1822 0.930 . S
C1836 C1834 1.395 . S
C1836 C1839 1.403 . S
C1837 C1834 1.403 . S
C1837 C1838 1.524 . S
C1837 C1841 1.400 . S
C1838 H1823 0.960 . S
C1838 H1824 0.960 . S
C1838 H1825 0.960 . S
C1838 C1837 1.524 . S
C1839 C1836 1.403 . S
C1839 C1840 1.392 . S
C1839 C1843 1.495 1_655 S
C1840 C1839 1.392 . S
C1840 C1841 1.385 . S
C1840 C1842 1.478 . S
C1841 H1835 0.930 . S
C1841 C1837 1.400 . S
C1841 C1840 1.385 . S
C1842 C1840 1.478 . S
C1842 C1844 1.381 . S
C1842 C1848 1.383 . S
C1843 C1839 1.495 1_455 S
C1843 H1849 0.959 . S
C1843 H1850 0.961 . S
C1843 H1851 0.960 . S
C1844 C1842 1.381 . S
C1844 C1845 1.391 1_655 S
C1844 H1852 0.930 1_655 S
C1845 C1844 1.391 1_455 S
C1845 C1846 1.358 1_455 S
C1845 H1853 0.959 . S
C1846 C1845 1.358 1_655 S
C1846 C1847 1.377 . S
C1847 H1831 0.930 . S
C1847 C1846 1.377 . S
C1847 C1848 1.379 . S
C1848 H1832 0.931 . S
C1848 C1842 1.383 . S
C1848 C1847 1.379 . S
H1849 C1843 0.959 . S
H1850 C1843 0.961 . S
H1851 C1843 0.960 . S
H1852 C1844 0.930 1_455 S
H1853 C1845 0.959 . S
H1854 C1862 0.929 . S
H1855 C1864 0.930 . S
H1856 C1866 0.930 . S
H1857 C1869 0.929 . S
H1858 C1872 0.930 . S
H1859 C1874 0.960 . S
H1860 C1874 0.960 . S
H1861 C1874 0.960 . S
C1862 H1854 0.929 . S
C1862 C1863 1.377 . S
C1862 C1864 1.384 . S
C1863 C1862 1.377 . S
C1863 C1869 1.390 . S
C1864 H1855 0.930 . S
C1864 C1862 1.384 . S
C1864 C1865 1.372 . S
C1865 C1864 1.372 . S
C1865 C1866 1.400 . S
C1865 C1870 1.490 . S
C1866 H1856 0.930 . S
C1866 C1865 1.400 . S
C1866 C1869 1.386 . S
H1867 C1883 0.930 . S
H1868 C1884 0.931 . S
C1869 H1857 0.929 . S
C1869 C1863 1.390 . S
C1869 C1866 1.386 . S
C1870 C1865 1.490 . S
C1870 C1872 1.395 . S
C1870 C1873 1.403 . S
H1871 C1877 0.930 . S
C1872 H1858 0.930 . S
C1872 C1870 1.395 . S
C1872 C1875 1.403 . S
C1873 C1870 1.403 . S
C1873 C1874 1.524 . S
C1873 C1877 1.400 . S
C1874 H1859 0.960 . S
C1874 H1860 0.960 . S
C1874 H1861 0.960 . S
C1874 C1873 1.524 . S
C1875 C1872 1.403 . S
C1875 C1876 1.392 . S
C1875 C1879 1.495 . S
C1876 C1875 1.392 . S
C1876 C1877 1.385 . S
C1876 C1878 1.478 . S
C1877 H1871 0.930 . S
C1877 C1873 1.400 . S
C1877 C1876 1.385 . S
C1878 C1876 1.478 . S
C1878 C1880 1.381 . S
C1878 C1884 1.383 . S
C1879 C1875 1.495 . S
C1879 H1885 0.959 . S
C1879 H1886 0.961 . S
C1879 H1887 0.960 . S
C1880 C1878 1.381 . S
C1880 C1881 1.394 . S
C1880 H1888 0.930 . S
C1881 C1880 1.394 . S
C1881 C1882 1.383 . S
C1881 H1889 0.929 . S
C1882 C1881 1.383 . S
C1882 C1883 1.377 . S
C1883 H1867 0.930 . S
C1883 C1882 1.377 . S
C1883 C1884 1.379 . S
C1884 H1868 0.931 . S
C1884 C1878 1.383 . S
C1884 C1883 1.379 . S
H1885 C1879 0.959 . S
H1886 C1879 0.961 . S
H1887 C1879 0.960 . S
H1888 C1880 0.930 . S
H1889 C1881 0.929 . S
H1890 C1898 0.929 . S
H1891 C1900 0.930 . S
H1892 C1902 0.930 . S
H1893 C1905 0.929 . S
H1894 C1908 0.930 . S
H1895 C1910 0.960 . S
H1896 C1910 0.960 . S
H1897 C1910 0.960 . S
C1898 H1890 0.929 . S
C1898 C1899 1.377 . S
C1898 C1900 1.384 . S
C1899 C1898 1.377 . S
C1899 C1905 1.390 . S
C1900 H1891 0.930 . S
C1900 C1898 1.384 . S
C1900 C1901 1.372 . S
C1901 C1900 1.372 . S
C1901 C1902 1.400 . S
C1901 C1906 1.490 . S
C1902 H1892 0.930 . S
C1902 C1901 1.400 . S
C1902 C1905 1.386 . S
H1903 C1919 0.930 . S
H1904 C1920 0.931 . S
C1905 H1893 0.929 . S
C1905 C1899 1.390 . S
C1905 C1902 1.386 . S
C1906 C1901 1.490 . S
C1906 C1908 1.395 . S
C1906 C1909 1.403 . S
H1907 C1913 0.930 . S
C1908 H1894 0.930 . S
C1908 C1906 1.395 . S
C1908 C1911 1.403 . S
C1909 C1906 1.403 . S
C1909 C1910 1.524 . S
C1909 C1913 1.400 . S
C1910 H1895 0.960 . S
C1910 H1896 0.960 . S
C1910 H1897 0.960 . S
C1910 C1909 1.524 . S
C1911 C1908 1.403 . S
C1911 C1912 1.392 . S
C1911 C1915 1.495 . S
C1912 C1911 1.392 . S
C1912 C1913 1.385 . S
C1912 C1914 1.478 . S
C1913 H1907 0.930 . S
C1913 C1909 1.400 . S
C1913 C1912 1.385 . S
C1914 C1912 1.478 . S
C1914 C1916 1.381 . S
C1914 C1920 1.383 . S
C1915 C1911 1.495 . S
C1915 H1921 0.959 . S
C1915 H1922 0.961 . S
C1915 H1923 0.960 . S
C1916 C1914 1.381 . S
C1916 C1917 1.394 . S
C1916 H1924 0.930 . S
C1917 C1916 1.394 . S
C1917 C1918 1.383 . S
C1917 H1925 0.929 . S
C1918 C1917 1.383 . S
C1918 C1919 1.377 . S
C1919 H1903 0.930 . S
C1919 C1918 1.377 . S
C1919 C1920 1.379 . S
C1920 H1904 0.931 . S
C1920 C1914 1.383 . S
C1920 C1919 1.379 . S
H1921 C1915 0.959 . S
H1922 C1915 0.961 . S
H1923 C1915 0.960 . S
H1924 C1916 0.930 . S
H1925 C1917 0.929 . S
H1926 C1934 0.929 . S
H1927 C1936 0.930 . S
H1928 C1938 0.930 . S
H1929 C1941 0.929 . S
H1930 C1944 0.930 . S
H1931 C1946 0.960 . S
H1932 C1946 0.960 . S
H1933 C1946 0.960 . S
C1934 H1926 0.929 . S
C1934 C1935 1.377 . S
C1934 C1936 1.384 . S
C1935 C1934 1.377 . S
C1935 C1941 1.390 . S
C1936 H1927 0.930 . S
C1936 C1934 1.384 . S
C1936 C1937 1.372 . S
C1937 C1936 1.372 . S
C1937 C1938 1.400 . S
C1937 C1942 1.490 . S
C1938 H1928 0.930 . S
C1938 C1937 1.400 . S
C1938 C1941 1.386 . S
H1939 C1955 0.930 . S
H1940 C1956 0.931 . S
C1941 H1929 0.929 . S
C1941 C1935 1.390 . S
C1941 C1938 1.386 . S
C1942 C1937 1.490 . S
C1942 C1944 1.395 . S
C1942 C1945 1.403 . S
H1943 C1949 0.930 . S
C1944 H1930 0.930 . S
C1944 C1942 1.395 . S
C1944 C1947 1.403 . S
C1945 C1942 1.403 . S
C1945 C1946 1.524 . S
C1945 C1949 1.400 . S
C1946 H1931 0.960 . S
C1946 H1932 0.960 . S
C1946 H1933 0.960 . S
C1946 C1945 1.524 . S
C1947 C1944 1.403 . S
C1947 C1948 1.392 . S
C1947 C1951 1.495 . S
C1948 C1947 1.392 . S
C1948 C1949 1.385 . S
C1948 C1950 1.478 . S
C1949 H1943 0.930 . S
C1949 C1945 1.400 . S
C1949 C1948 1.385 . S
C1950 C1948 1.478 . S
C1950 C1952 1.381 . S
C1950 C1956 1.383 . S
C1951 C1947 1.495 . S
C1951 H1957 0.959 . S
C1951 H1958 0.961 . S
C1951 H1959 0.960 . S
C1952 C1950 1.381 . S
C1952 C1953 1.394 . S
C1952 H1960 0.930 . S
C1953 C1952 1.394 . S
C1953 C1954 1.383 . S
C1953 H1961 0.929 . S
C1954 C1953 1.383 . S
C1954 C1955 1.377 . S
C1955 H1939 0.930 . S
C1955 C1954 1.377 . S
C1955 C1956 1.379 . S
C1956 H1940 0.931 . S
C1956 C1950 1.383 . S
C1956 C1955 1.379 . S
H1957 C1951 0.959 . S
H1958 C1951 0.961 . S
H1959 C1951 0.960 . S
H1960 C1952 0.930 . S
H1961 C1953 0.929 . S
H1962 C1970 0.929 . S
H1963 C1972 0.930 . S
H1964 C1974 0.930 . S
H1965 C1977 0.929 . S
H1966 C1980 0.930 . S
H1967 C1982 0.960 . S
H1968 C1982 0.960 . S
H1969 C1982 0.960 . S
C1970 H1962 0.929 . S
C1970 C1971 1.377 . S
C1970 C1972 1.384 . S
C1971 C1970 1.377 . S
C1971 C1977 1.390 . S
C1972 H1963 0.930 . S
C1972 C1970 1.384 . S
C1972 C1973 1.372 . S
C1973 C1972 1.372 . S
C1973 C1974 1.400 . S
C1973 C1978 1.490 . S
C1974 H1964 0.930 . S
C1974 C1973 1.400 . S
C1974 C1977 1.386 . S
H1975 C1991 0.930 . S
H1976 C1992 0.931 . S
C1977 H1965 0.929 . S
C1977 C1971 1.390 . S
C1977 C1974 1.386 . S
C1978 C1973 1.490 . S
C1978 C1980 1.395 . S
C1978 C1981 1.403 . S
H1979 C1985 0.930 . S
C1980 H1966 0.930 . S
C1980 C1978 1.395 . S
C1980 C1983 1.403 . S
C1981 C1978 1.403 . S
C1981 C1982 1.524 . S
C1981 C1985 1.400 . S
C1982 H1967 0.960 . S
C1982 H1968 0.960 . S
C1982 H1969 0.960 . S
C1982 C1981 1.524 . S
C1983 C1980 1.403 . S
C1983 C1984 1.392 . S
C1983 C1987 1.495 . S
C1984 C1983 1.392 . S
C1984 C1985 1.385 . S
C1984 C1986 1.478 . S
C1985 H1979 0.930 . S
C1985 C1981 1.400 . S
C1985 C1984 1.385 . S
C1986 C1984 1.478 . S
C1986 C1988 1.381 . S
C1986 C1992 1.383 . S
C1987 C1983 1.495 . S
C1987 H1993 0.959 . S
C1987 H1994 0.961 . S
C1987 H1995 0.960 . S
C1988 C1986 1.381 . S
C1988 C1989 1.394 . S
C1988 H1996 0.930 . S
C1989 C1988 1.394 . S
C1989 C1990 1.383 . S
C1989 H1997 0.929 . S
C1990 C1989 1.383 . S
C1990 C1991 1.377 . S
C1991 H1975 0.930 . S
C1991 C1990 1.377 . S
C1991 C1992 1.379 . S
C1992 H1976 0.931 . S
C1992 C1986 1.383 . S
C1992 C1991 1.379 . S
H1993 C1987 0.959 . S
H1994 C1987 0.961 . S
H1995 C1987 0.960 . S
H1996 C1988 0.930 . S
H1997 C1989 0.929 . S
H1998 C2006 0.929 . S
H1999 C2008 0.930 . S
H2000 C2010 0.930 . S
H2001 C2013 0.929 . S
H2002 C2016 0.930 . S
H2003 C2018 0.960 . S
H2004 C2018 0.960 . S
H2005 C2018 0.960 . S
C2006 H1998 0.929 . S
C2006 C2007 1.377 . S
C2006 C2008 1.384 . S
C2007 C2006 1.377 . S
C2007 C2013 1.390 . S
C2008 H1999 0.930 . S
C2008 C2006 1.384 . S
C2008 C2009 1.372 . S
C2009 C2008 1.372 . S
C2009 C2010 1.400 . S
C2009 C2014 1.490 . S
C2010 H2000 0.930 . S
C2010 C2009 1.400 . S
C2010 C2013 1.386 . S
H2011 C2027 0.930 . S
H2012 C2028 0.931 . S
C2013 H2001 0.929 . S
C2013 C2007 1.390 . S
C2013 C2010 1.386 . S
C2014 C2009 1.490 . S
C2014 C2016 1.395 . S
C2014 C2017 1.403 . S
H2015 C2021 0.930 . S
C2016 H2002 0.930 . S
C2016 C2014 1.395 . S
C2016 C2019 1.403 . S
C2017 C2014 1.403 . S
C2017 C2018 1.524 . S
C2017 C2021 1.400 . S
C2018 H2003 0.960 . S
C2018 H2004 0.960 . S
C2018 H2005 0.960 . S
C2018 C2017 1.524 . S
C2019 C2016 1.403 . S
C2019 C2020 1.392 . S
C2019 C2023 1.495 . S
C2020 C2019 1.392 . S
C2020 C2021 1.385 . S
C2020 C2022 1.478 . S
C2021 H2015 0.930 . S
C2021 C2017 1.400 . S
C2021 C2020 1.385 . S
C2022 C2020 1.478 . S
C2022 C2024 1.381 . S
C2022 C2028 1.383 . S
C2023 C2019 1.495 . S
C2023 H2029 0.959 . S
C2023 H2030 0.961 . S
C2023 H2031 0.960 . S
C2024 C2022 1.381 . S
C2024 C2025 1.394 . S
C2024 H2032 0.930 . S
C2025 C2024 1.394 . S
C2025 C2026 1.383 . S
C2025 H2033 0.929 . S
C2026 C2025 1.383 . S
C2026 C2027 1.377 . S
C2027 H2011 0.930 . S
C2027 C2026 1.377 . S
C2027 C2028 1.379 . S
C2028 H2012 0.931 . S
C2028 C2022 1.383 . S
C2028 C2027 1.379 . S
H2029 C2023 0.959 . S
H2030 C2023 0.961 . S
H2031 C2023 0.960 . S
H2032 C2024 0.930 . S
H2033 C2025 0.929 . S
H2034 C2042 0.929 . S
H2035 C2044 0.930 . S
H2036 C2046 0.930 . S
H2037 C2049 0.929 . S
H2038 C2052 0.930 . S
H2039 C2054 0.960 . S
H2040 C2054 0.960 . S
H2041 C2054 0.960 . S
C2042 H2034 0.929 . S
C2042 C2043 1.377 . S
C2042 C2044 1.384 . S
C2043 C2042 1.377 . S
C2043 C2049 1.390 . S
C2044 H2035 0.930 . S
C2044 C2042 1.384 . S
C2044 C2045 1.372 . S
C2045 C2044 1.372 . S
C2045 C2046 1.400 . S
C2045 C2050 1.490 . S
C2046 H2036 0.930 . S
C2046 C2045 1.400 . S
C2046 C2049 1.386 . S
H2047 C2063 0.930 . S
H2048 C2064 0.931 . S
C2049 H2037 0.929 . S
C2049 C2043 1.390 . S
C2049 C2046 1.386 . S
C2050 C2045 1.490 . S
C2050 C2052 1.395 . S
C2050 C2053 1.403 . S
H2051 C2057 0.930 . S
C2052 H2038 0.930 . S
C2052 C2050 1.395 . S
C2052 C2055 1.403 . S
C2053 C2050 1.403 . S
C2053 C2054 1.524 . S
C2053 C2057 1.400 . S
C2054 H2039 0.960 . S
C2054 H2040 0.960 . S
C2054 H2041 0.960 . S
C2054 C2053 1.524 . S
C2055 C2052 1.403 . S
C2055 C2056 1.392 . S
C2055 C2059 1.495 . S
C2056 C2055 1.392 . S
C2056 C2057 1.385 . S
C2056 C2058 1.478 . S
C2057 H2051 0.930 . S
C2057 C2053 1.400 . S
C2057 C2056 1.385 . S
C2058 C2056 1.478 . S
C2058 C2060 1.381 . S
C2058 C2064 1.383 . S
C2059 C2055 1.495 . S
C2059 H2065 0.959 . S
C2059 H2066 0.961 . S
C2059 H2067 0.960 . S
C2060 C2058 1.381 . S
C2060 C2061 1.394 . S
C2060 H2068 0.930 . S
C2061 C2060 1.394 . S
C2061 C2062 1.383 . S
C2061 H2069 0.929 . S
C2062 C2061 1.383 . S
C2062 C2063 1.377 . S
C2063 H2047 0.930 . S
C2063 C2062 1.377 . S
C2063 C2064 1.379 . S
C2064 H2048 0.931 . S
C2064 C2058 1.383 . S
C2064 C2063 1.379 . S
H2065 C2059 0.959 . S
H2066 C2059 0.961 . S
H2067 C2059 0.960 . S
H2068 C2060 0.930 . S
H2069 C2061 0.929 . S
H2070 C2078 0.929 . S
H2071 C2080 0.930 . S
H2072 C2082 0.930 . S
H2073 C2085 0.929 . S
H2074 C2088 0.930 . S
H2075 C2090 0.960 . S
H2076 C2090 0.960 . S
H2077 C2090 0.960 . S
C2078 H2070 0.929 . S
C2078 C2079 1.377 . S
C2078 C2080 1.384 . S
C2079 C2078 1.377 . S
C2079 C2085 1.390 . S
C2080 H2071 0.930 . S
C2080 C2078 1.384 . S
C2080 C2081 1.372 . S
C2081 C2080 1.372 . S
C2081 C2082 1.400 . S
C2081 C2086 1.490 . S
C2082 H2072 0.930 . S
C2082 C2081 1.400 . S
C2082 C2085 1.386 . S
H2083 C2099 0.930 . S
H2084 C2100 0.931 . S
C2085 H2073 0.929 . S
C2085 C2079 1.390 . S
C2085 C2082 1.386 . S
C2086 C2081 1.490 . S
C2086 C2088 1.395 . S
C2086 C2089 1.403 . S
H2087 C2093 0.930 . S
C2088 H2074 0.930 . S
C2088 C2086 1.395 . S
C2088 C2091 1.403 . S
C2089 C2086 1.403 . S
C2089 C2090 1.524 . S
C2089 C2093 1.400 . S
C2090 H2075 0.960 . S
C2090 H2076 0.960 . S
C2090 H2077 0.960 . S
C2090 C2089 1.524 . S
C2091 C2088 1.403 . S
C2091 C2092 1.392 . S
C2091 C2095 1.495 . S
C2092 C2091 1.392 . S
C2092 C2093 1.385 . S
C2092 C2094 1.478 . S
C2093 H2087 0.930 . S
C2093 C2089 1.400 . S
C2093 C2092 1.385 . S
C2094 C2092 1.478 . S
C2094 C2096 1.381 . S
C2094 C2100 1.383 . S
C2095 C2091 1.495 . S
C2095 H2101 0.959 . S
C2095 H2102 0.961 . S
C2095 H2103 0.960 . S
C2096 C2094 1.381 . S
C2096 C2097 1.394 . S
C2096 H2104 0.930 . S
C2097 C2096 1.394 . S
C2097 C2098 1.383 . S
C2097 H2105 0.929 . S
C2098 C2097 1.383 . S
C2098 C2099 1.377 . S
C2099 H2083 0.930 . S
C2099 C2098 1.377 . S
C2099 C2100 1.379 . S
C2100 H2084 0.931 . S
C2100 C2094 1.383 . S
C2100 C2099 1.379 . S
H2101 C2095 0.959 . S
H2102 C2095 0.961 . S
H2103 C2095 0.960 . S
H2104 C2096 0.930 . S
H2105 C2097 0.929 . S
H2106 C2114 0.929 . S
H2107 C2116 0.930 . S
H2108 C2118 0.930 . S
H2109 C2121 0.929 . S
H2110 C2124 0.930 . S
H2111 C2126 0.960 . S
H2112 C2126 0.960 . S
H2113 C2126 0.960 . S
C2114 H2106 0.929 . S
C2114 C2115 1.377 . S
C2114 C2116 1.384 . S
C2115 C2114 1.377 . S
C2115 C2121 1.390 . S
C2116 H2107 0.930 . S
C2116 C2114 1.384 . S
C2116 C2117 1.372 . S
C2117 C2116 1.372 . S
C2117 C2118 1.400 . S
C2117 C2122 1.490 . S
C2118 H2108 0.930 . S
C2118 C2117 1.400 . S
C2118 C2121 1.386 . S
H2119 C2135 0.930 . S
H2120 C2136 0.931 . S
C2121 H2109 0.929 . S
C2121 C2115 1.390 . S
C2121 C2118 1.386 . S
C2122 C2117 1.490 . S
C2122 C2124 1.395 . S
C2122 C2125 1.403 . S
H2123 C2129 0.930 . S
C2124 H2110 0.930 . S
C2124 C2122 1.395 . S
C2124 C2127 1.403 . S
C2125 C2122 1.403 . S
C2125 C2126 1.524 . S
C2125 C2129 1.400 . S
C2126 H2111 0.960 . S
C2126 H2112 0.960 . S
C2126 H2113 0.960 . S
C2126 C2125 1.524 . S
C2127 C2124 1.403 . S
C2127 C2128 1.392 . S
C2127 C2131 1.495 . S
C2128 C2127 1.392 . S
C2128 C2129 1.385 . S
C2128 C2130 1.478 . S
C2129 H2123 0.930 . S
C2129 C2125 1.400 . S
C2129 C2128 1.385 . S
C2130 C2128 1.478 . S
C2130 C2132 1.381 . S
C2130 C2136 1.383 . S
C2131 C2127 1.495 . S
C2131 H2137 0.959 . S
C2131 H2138 0.961 . S
C2131 H2139 0.960 . S
C2132 C2130 1.381 . S
C2132 C2133 1.394 . S
C2132 H2140 0.930 . S
C2133 C2132 1.394 . S
C2133 C2134 1.383 . S
C2133 H2141 0.929 . S
C2134 C2133 1.383 . S
C2134 C2135 1.377 . S
C2135 H2119 0.930 . S
C2135 C2134 1.377 . S
C2135 C2136 1.379 . S
C2136 H2120 0.931 . S
C2136 C2130 1.383 . S
C2136 C2135 1.379 . S
H2137 C2131 0.959 . S
H2138 C2131 0.961 . S
H2139 C2131 0.960 . S
H2140 C2132 0.930 . S
H2141 C2133 0.929 . S
H2142 C2150 0.929 . S
H2143 C2152 0.930 . S
H2144 C2154 0.930 . S
H2145 C2157 0.929 . S
H2146 C2160 0.930 . S
H2147 C2162 0.960 . S
H2148 C2162 0.960 . S
H2149 C2162 0.960 . S
C2150 H2142 0.929 . S
C2150 C2151 1.377 . S
C2150 C2152 1.384 . S
C2151 C2150 1.377 . S
C2151 C2157 1.390 . S
C2152 H2143 0.930 . S
C2152 C2150 1.384 . S
C2152 C2153 1.372 . S
C2153 C2152 1.372 . S
C2153 C2154 1.400 . S
C2153 C2158 1.490 . S
C2154 H2144 0.930 . S
C2154 C2153 1.400 . S
C2154 C2157 1.386 . S
H2155 C2171 0.930 . S
H2156 C2172 0.931 . S
C2157 H2145 0.929 . S
C2157 C2151 1.390 . S
C2157 C2154 1.386 . S
C2158 C2153 1.490 . S
C2158 C2160 1.395 . S
C2158 C2161 1.403 . S
H2159 C2165 0.930 . S
C2160 H2146 0.930 . S
C2160 C2158 1.395 . S
C2160 C2163 1.403 . S
C2161 C2158 1.403 . S
C2161 C2162 1.524 . S
C2161 C2165 1.400 . S
C2162 H2147 0.960 . S
C2162 H2148 0.960 . S
C2162 H2149 0.960 . S
C2162 C2161 1.524 . S
C2163 C2160 1.403 . S
C2163 C2164 1.392 . S
C2163 C2167 1.495 . S
C2164 C2163 1.392 . S
C2164 C2165 1.385 . S
C2164 C2166 1.478 . S
C2165 H2159 0.930 . S
C2165 C2161 1.400 . S
C2165 C2164 1.385 . S
C2166 C2164 1.478 . S
C2166 C2168 1.381 . S
C2166 C2172 1.383 . S
C2167 C2163 1.495 . S
C2167 H2173 0.959 . S
C2167 H2174 0.961 . S
C2167 H2175 0.960 . S
C2168 C2166 1.381 . S
C2168 C2169 1.394 . S
C2168 H2176 0.930 . S
C2169 C2168 1.394 . S
C2169 C2170 1.383 . S
C2169 H2177 0.929 . S
C2170 C2169 1.383 . S
C2170 C2171 1.377 . S
C2171 H2155 0.930 . S
C2171 C2170 1.377 . S
C2171 C2172 1.379 . S
C2172 H2156 0.931 . S
C2172 C2166 1.383 . S
C2172 C2171 1.379 . S
H2173 C2167 0.959 . S
H2174 C2167 0.961 . S
H2175 C2167 0.960 . S
H2176 C2168 0.930 . S
H2177 C2169 0.929 . S
H2178 C2186 0.929 . S
H2179 C2188 0.930 . S
H2180 C2190 0.930 . S
H2181 C2193 0.929 . S
H2182 C2196 0.930 . S
H2183 C2198 0.960 . S
H2184 C2198 0.960 . S
H2185 C2198 0.960 . S
C2186 H2178 0.929 . S
C2186 C2187 1.377 . S
C2186 C2188 1.384 . S
C2187 C2186 1.377 . S
C2187 C2193 1.390 . S
C2188 H2179 0.930 . S
C2188 C2186 1.384 . S
C2188 C2189 1.372 . S
C2189 C2188 1.372 . S
C2189 C2190 1.400 . S
C2189 C2194 1.490 . S
C2190 H2180 0.930 . S
C2190 C2189 1.400 . S
C2190 C2193 1.386 . S
H2191 C2207 0.930 . S
H2192 C2208 0.931 . S
C2193 H2181 0.929 . S
C2193 C2187 1.390 . S
C2193 C2190 1.386 . S
C2194 C2189 1.490 . S
C2194 C2196 1.395 . S
C2194 C2197 1.403 . S
H2195 C2201 0.930 . S
C2196 H2182 0.930 . S
C2196 C2194 1.395 . S
C2196 C2199 1.403 . S
C2197 C2194 1.403 . S
C2197 C2198 1.524 . S
C2197 C2201 1.400 . S
C2198 H2183 0.960 . S
C2198 H2184 0.960 . S
C2198 H2185 0.960 . S
C2198 C2197 1.524 . S
C2199 C2196 1.403 . S
C2199 C2200 1.392 . S
C2199 C2203 1.495 . S
C2200 C2199 1.392 . S
C2200 C2201 1.385 . S
C2200 C2202 1.478 . S
C2201 H2195 0.930 . S
C2201 C2197 1.400 . S
C2201 C2200 1.385 . S
C2202 C2200 1.478 . S
C2202 C2204 1.381 . S
C2202 C2208 1.383 . S
C2203 C2199 1.495 . S
C2203 H2209 0.959 . S
C2203 H2210 0.961 . S
C2203 H2211 0.960 . S
C2204 C2202 1.381 . S
C2204 C2205 1.394 . S
C2204 H2212 0.930 . S
C2205 C2204 1.394 . S
C2205 C2206 1.383 . S
C2205 H2213 0.929 . S
C2206 C2205 1.383 . S
C2206 C2207 1.377 . S
C2207 H2191 0.930 . S
C2207 C2206 1.377 . S
C2207 C2208 1.379 . S
C2208 H2192 0.931 . S
C2208 C2202 1.383 . S
C2208 C2207 1.379 . S
H2209 C2203 0.959 . S
H2210 C2203 0.961 . S
H2211 C2203 0.960 . S
H2212 C2204 0.930 . S
H2213 C2205 0.929 . S
H2214 C2222 0.929 . S
H2215 C2224 0.930 . S
H2216 C2226 0.930 . S
H2217 C2229 0.929 . S
H2218 C2232 0.930 . S
H2219 C2234 0.960 . S
H2220 C2234 0.960 . S
H2221 C2234 0.960 . S
C2222 H2214 0.929 . S
C2222 C2223 1.377 . S
C2222 C2224 1.384 . S
C2223 C2222 1.377 . S
C2223 C2229 1.390 . S
C2224 H2215 0.930 . S
C2224 C2222 1.384 . S
C2224 C2225 1.372 . S
C2225 C2224 1.372 . S
C2225 C2226 1.400 . S
C2225 C2230 1.490 . S
C2226 H2216 0.930 . S
C2226 C2225 1.400 . S
C2226 C2229 1.386 . S
H2227 C2243 0.930 . S
H2228 C2244 0.931 . S
C2229 H2217 0.929 . S
C2229 C2223 1.390 . S
C2229 C2226 1.386 . S
C2230 C2225 1.490 . S
C2230 C2232 1.395 . S
C2230 C2233 1.403 . S
H2231 C2237 0.930 . S
C2232 H2218 0.930 . S
C2232 C2230 1.395 . S
C2232 C2235 1.403 . S
C2233 C2230 1.403 . S
C2233 C2234 1.524 . S
C2233 C2237 1.400 . S
C2234 H2219 0.960 . S
C2234 H2220 0.960 . S
C2234 H2221 0.960 . S
C2234 C2233 1.524 . S
C2235 C2232 1.403 . S
C2235 C2236 1.392 . S
C2235 C2239 1.495 . S
C2236 C2235 1.392 . S
C2236 C2237 1.385 . S
C2236 C2238 1.478 . S
C2237 H2231 0.930 . S
C2237 C2233 1.400 . S
C2237 C2236 1.385 . S
C2238 C2236 1.478 . S
C2238 C2240 1.381 . S
C2238 C2244 1.383 . S
C2239 C2235 1.495 . S
C2239 H2245 0.959 . S
C2239 H2246 0.961 . S
C2239 H2247 0.960 . S
C2240 C2238 1.381 . S
C2240 C2241 1.394 . S
C2240 H2248 0.930 . S
C2241 C2240 1.394 . S
C2241 C2242 1.383 . S
C2241 H2249 0.929 . S
C2242 C2241 1.383 . S
C2242 C2243 1.377 . S
C2243 H2227 0.930 . S
C2243 C2242 1.377 . S
C2243 C2244 1.379 . S
C2244 H2228 0.931 . S
C2244 C2238 1.383 . S
C2244 C2243 1.379 . S
H2245 C2239 0.959 . S
H2246 C2239 0.961 . S
H2247 C2239 0.960 . S
H2248 C2240 0.930 . S
H2249 C2241 0.929 . S
H2250 C2258 0.929 . S
H2251 C2260 0.930 . S
H2252 C2262 0.930 . S
H2253 C2265 0.929 . S
H2254 C2268 0.930 . S
H2255 C2270 0.960 . S
H2256 C2270 0.960 . S
H2257 C2270 0.960 . S
C2258 H2250 0.929 . S
C2258 C2259 1.377 . S
C2258 C2260 1.384 . S
C2259 C2258 1.377 . S
C2259 C2265 1.390 . S
C2260 H2251 0.930 . S
C2260 C2258 1.384 . S
C2260 C2261 1.372 . S
C2261 C2260 1.372 . S
C2261 C2262 1.400 . S
C2261 C2266 1.490 . S
C2262 H2252 0.930 . S
C2262 C2261 1.400 . S
C2262 C2265 1.386 . S
H2263 C2279 0.930 . S
H2264 C2280 0.931 . S
C2265 H2253 0.929 . S
C2265 C2259 1.390 . S
C2265 C2262 1.386 . S
C2266 C2261 1.490 . S
C2266 C2268 1.395 . S
C2266 C2269 1.403 . S
H2267 C2273 0.930 . S
C2268 H2254 0.930 . S
C2268 C2266 1.395 . S
C2268 C2271 1.403 . S
C2269 C2266 1.403 . S
C2269 C2270 1.524 . S
C2269 C2273 1.400 . S
C2270 H2255 0.960 . S
C2270 H2256 0.960 . S
C2270 H2257 0.960 . S
C2270 C2269 1.524 . S
C2271 C2268 1.403 . S
C2271 C2272 1.392 . S
C2271 C2275 1.495 . S
C2272 C2271 1.392 . S
C2272 C2273 1.385 . S
C2272 C2274 1.478 . S
C2273 H2267 0.930 . S
C2273 C2269 1.400 . S
C2273 C2272 1.385 . S
C2274 C2272 1.478 . S
C2274 C2276 1.381 . S
C2274 C2280 1.383 . S
C2275 C2271 1.495 . S
C2275 H2281 0.959 . S
C2275 H2282 0.961 . S
C2275 H2283 0.960 . S
C2276 C2274 1.381 . S
C2276 C2277 1.394 . S
C2276 H2284 0.930 . S
C2277 C2276 1.394 . S
C2277 C2278 1.383 . S
C2277 H2285 0.929 . S
C2278 C2277 1.383 . S
C2278 C2279 1.377 . S
C2279 H2263 0.930 . S
C2279 C2278 1.377 . S
C2279 C2280 1.379 . S
C2280 H2264 0.931 . S
C2280 C2274 1.383 . S
C2280 C2279 1.379 . S
H2281 C2275 0.959 . S
H2282 C2275 0.961 . S
H2283 C2275 0.960 . S
H2284 C2276 0.930 . S
H2285 C2277 0.929 . S
H2286 C2294 0.929 . S
H2287 C2296 0.930 . S
H2288 C2298 0.930 . S
H2289 C2301 0.929 . S
H2290 C2304 0.930 . S
H2291 C2306 0.960 . S
H2292 C2306 0.960 . S
H2293 C2306 0.960 . S
C2294 H2286 0.929 . S
C2294 C2295 1.377 . S
C2294 C2296 1.384 . S
C2295 C2294 1.377 . S
C2295 C2301 1.390 . S
C2296 H2287 0.930 . S
C2296 C2294 1.384 . S
C2296 C2297 1.372 . S
C2297 C2296 1.372 . S
C2297 C2298 1.400 . S
C2297 C2302 1.490 . S
C2298 H2288 0.930 . S
C2298 C2297 1.400 . S
C2298 C2301 1.386 . S
H2299 C2315 0.930 . S
H2300 C2316 0.931 . S
C2301 H2289 0.929 . S
C2301 C2295 1.390 . S
C2301 C2298 1.386 . S
C2302 C2297 1.490 . S
C2302 C2304 1.395 . S
C2302 C2305 1.403 . S
H2303 C2309 0.930 . S
C2304 H2290 0.930 . S
C2304 C2302 1.395 . S
C2304 C2307 1.403 . S
C2305 C2302 1.403 . S
C2305 C2306 1.524 . S
C2305 C2309 1.400 . S
C2306 H2291 0.960 . S
C2306 H2292 0.960 . S
C2306 H2293 0.960 . S
C2306 C2305 1.524 . S
C2307 C2304 1.403 . S
C2307 C2308 1.392 . S
C2307 C2311 1.495 . S
C2308 C2307 1.392 . S
C2308 C2309 1.385 . S
C2308 C2310 1.478 . S
C2309 H2303 0.930 . S
C2309 C2305 1.400 . S
C2309 C2308 1.385 . S
C2310 C2308 1.478 . S
C2310 C2312 1.381 . S
C2310 C2316 1.383 . S
C2311 C2307 1.495 . S
C2311 H2317 0.959 . S
C2311 H2318 0.961 . S
C2311 H2319 0.960 . S
C2312 C2310 1.381 . S
C2312 C2313 1.394 . S
C2312 H2320 0.930 . S
C2313 C2312 1.394 . S
C2313 C2314 1.383 . S
C2313 H2321 0.929 . S
C2314 C2313 1.383 . S
C2314 C2315 1.377 . S
C2315 H2299 0.930 . S
C2315 C2314 1.377 . S
C2315 C2316 1.379 . S
C2316 H2300 0.931 . S
C2316 C2310 1.383 . S
C2316 C2315 1.379 . S
H2317 C2311 0.959 . S
H2318 C2311 0.961 . S
H2319 C2311 0.960 . S
H2320 C2312 0.930 . S
H2321 C2313 0.929 . S
H2322 C2330 0.929 . S
H2323 C2332 0.930 . S
H2324 C2334 0.930 . S
H2325 C2337 0.929 . S
H2326 C2340 0.930 . S
H2327 C2342 0.960 . S
H2328 C2342 0.960 . S
H2329 C2342 0.960 . S
C2330 H2322 0.929 . S
C2330 C2331 1.377 . S
C2330 C2332 1.384 . S
C2331 C2330 1.377 . S
C2331 C2337 1.390 . S
C2332 H2323 0.930 . S
C2332 C2330 1.384 . S
C2332 C2333 1.372 . S
C2333 C2332 1.372 . S
C2333 C2334 1.400 . S
C2333 C2338 1.490 . S
C2334 H2324 0.930 . S
C2334 C2333 1.400 . S
C2334 C2337 1.386 . S
H2335 C2351 0.930 . S
H2336 C2352 0.931 . S
C2337 H2325 0.929 . S
C2337 C2331 1.390 . S
C2337 C2334 1.386 . S
C2338 C2333 1.490 . S
C2338 C2340 1.395 . S
C2338 C2341 1.403 . S
H2339 C2345 0.930 . S
C2340 H2326 0.930 . S
C2340 C2338 1.395 . S
C2340 C2343 1.403 . S
C2341 C2338 1.403 . S
C2341 C2342 1.524 . S
C2341 C2345 1.400 . S
C2342 H2327 0.960 . S
C2342 H2328 0.960 . S
C2342 H2329 0.960 . S
C2342 C2341 1.524 . S
C2343 C2340 1.403 . S
C2343 C2344 1.392 . S
C2343 C2347 1.495 . S
C2344 C2343 1.392 . S
C2344 C2345 1.385 . S
C2344 C2346 1.478 . S
C2345 H2339 0.930 . S
C2345 C2341 1.400 . S
C2345 C2344 1.385 . S
C2346 C2344 1.478 . S
C2346 C2348 1.381 . S
C2346 C2352 1.383 . S
C2347 C2343 1.495 . S
C2347 H2353 0.959 . S
C2347 H2354 0.961 . S
C2347 H2355 0.960 . S
C2348 C2346 1.381 . S
C2348 C2349 1.394 . S
C2348 H2356 0.930 . S
C2349 C2348 1.394 . S
C2349 C2350 1.383 . S
C2349 H2357 0.929 . S
C2350 C2349 1.383 . S
C2350 C2351 1.377 . S
C2351 H2335 0.930 . S
C2351 C2350 1.377 . S
C2351 C2352 1.379 . S
C2352 H2336 0.931 . S
C2352 C2346 1.383 . S
C2352 C2351 1.379 . S
H2353 C2347 0.959 . S
H2354 C2347 0.961 . S
H2355 C2347 0.960 . S
H2356 C2348 0.930 . S
H2357 C2349 0.929 . S
C423 N170 2.028 . S
C442 C240 2.030 . S
C459 N184 0.977 . S
C478 C260 0.995 . S
C495 N158 1.598 . S
C514 C283 1.587 . S
C531 N145 1.491 . S
C550 C263 1.475 . S
C586 C280 0.880 . S
C567 N119 0.858 . S
C603 N131 1.947 . S
C622 C243 1.952 . S
C658 C250 1.663 . S
C639 N144 1.695 . S
C694 C270 1.366 . S
C675 N118 1.425 . S
C711 N132 1.516 . S
C730 C275 1.528 . S
C747 N171 1.433 . S
C766 C255 1.436 . S
C783 N183 1.271 . S
C802 C290 1.226 . S
C838 C235 1.558 . S
C819 N157 1.577 . S
C874 C300 2.011 . S
C855 N14 2.024 . S
C891 N28 0.978 . S
C910 C320 0.941 . S
C927 N2 1.599 . S
C946 C343 1.598 . S
C963 N223 1.490 . S
C982 C323 1.486 . S
C999 N197 0.861 . S
C1018 C340 0.825 . S
C1035 N209 1.951 . S
C1054 C303 1.971 . S
C1071 N222 1.693 . S
C1090 C310 1.685 . S
C1107 N196 1.423 . S
C1126 C330 1.414 . S
C1162 C335 1.525 . S
C1143 N210 1.516 . S
C1179 N15 1.428 . S
C1198 C315 1.435 . S
C1234 C350 1.275 . S
C1215 N27 1.267 . S
C1251 N1 1.575 . S
C1270 C295 1.569 . S
C1306 C360 2.023 . S
C1287 N92 2.027 . S
C1323 N106 0.976 . S
C1342 C380 0.971 . S
C1378 C403 1.593 . S
C1359 N80 1.599 . S
C1414 C383 1.498 . S
C1395 N67 1.492 . S
C1450 C400 0.880 . S
C1431 N41 0.858 . S
C1467 N53 1.951 . S
C1486 C363 1.970 . S
C1503 N66 1.695 . S
C1522 C370 1.668 . S
C1539 N40 1.421 . S
C1558 C390 1.405 . S
C1594 C395 1.525 . S
C1575 N54 1.516 . S
C1611 N93 1.430 . S
C1630 C375 1.441 . S
C1647 N105 1.267 . S
C1666 C410 1.239 . S
C1683 N79 1.576 . S
C1702 C355 1.576 . S
C1719 N200 0.834 . S
C1738 C253 0.820 . S
C1774 C273 2.002 . S
C1755 N213 2.036 . S
C1791 N226 1.511 . S
C1810 C282 1.497 . S
C1827 N83 1.637 . S
C1846 C262 1.576 1_655 S
C1863 N96 1.921 . S
C1882 C293 1.887 . S
C1918 C242 0.873 . S
C1899 N109 0.894 . S
C1935 N44 0.837 . S
C1954 C313 0.846 . S
C1971 N57 2.041 . S
C1990 C333 1.983 . S
C2007 N70 1.507 . S
C2026 C342 1.490 . S
C2043 N161 1.642 . S
C2062 C322 1.616 . S
C2098 C353 1.877 . S
C2079 N174 1.925 . S
C2115 N187 0.881 . S
C2134 C302 0.869 . S
C2151 N122 0.835 . S
C2170 C373 0.827 . S
C2187 N135 2.035 . S
C2206 C393 2.014 . S
C2242 C402 1.494 . S
C2223 N148 1.511 . S
C2259 N5 1.637 . S
C2278 C382 1.572 . S
C2295 N18 1.922 . S
C2314 C413 1.908 . S
C2331 N31 0.888 . S
C2350 C362 0.920 . S
