# Generated by pormake.
# Topology zzz, (3,6)-cn, num edge types: 1
# Building blocks:
#     Node 0, Type 0, BuildingBlock: BETDIP_clean_linker_0, # of connection points: 3
#     Node 1, Type 0, BuildingBlock: BETDIP_clean_linker_0, # of connection points: 3
#     Node 2, Type 0, BuildingBlock: BETDIP_clean_linker_0, # of connection points: 3
#     Node 3, Type 0, BuildingBlock: BETDIP_clean_linker_0, # of connection points: 3
#     Node 4, Type 0, BuildingBlock: BETDIP_clean_linker_0, # of connection points: 3
#     Node 5, Type 0, BuildingBlock: BETDIP_clean_linker_0, # of connection points: 3
#     Node 6, Type 0, BuildingBlock: BETDIP_clean_linker_0, # of connection points: 3
#     Node 7, Type 0, BuildingBlock: BETDIP_clean_linker_0, # of connection points: 3
#     Node 8, Type 1, BuildingBlock: GEDQOX_clean_sbu_0, # of connection points: 6
#     Node 9, Type 1, BuildingBlock: GEDQOX_clean_sbu_0, # of connection points: 6
#     Node 10, Type 1, BuildingBlock: GEDQOX_clean_sbu_0, # of connection points: 6
#     Node 11, Type 1, BuildingBlock: GEDQOX_clean_sbu_0, # of connection points: 6
#     Edge 12, Type (0, 1), BuildingBlock: AJUNOK_clean_linker_0, # of connection points: 2
#     Edge 13, Type (0, 1), BuildingBlock: AJUNOK_clean_linker_0, # of connection points: 2
#     Edge 14, Type (0, 1), BuildingBlock: AJUNOK_clean_linker_0, # of connection points: 2
#     Edge 15, Type (0, 1), BuildingBlock: AJUNOK_clean_linker_0, # of connection points: 2
#     Edge 16, Type (0, 1), BuildingBlock: AJUNOK_clean_linker_0, # of connection points: 2
#     Edge 17, Type (0, 1), BuildingBlock: AJUNOK_clean_linker_0, # of connection points: 2
#     Edge 18, Type (0, 1), BuildingBlock: AJUNOK_clean_linker_0, # of connection points: 2
#     Edge 19, Type (0, 1), BuildingBlock: AJUNOK_clean_linker_0, # of connection points: 2
#     Edge 20, Type (0, 1), BuildingBlock: AJUNOK_clean_linker_0, # of connection points: 2
#     Edge 21, Type (0, 1), BuildingBlock: AJUNOK_clean_linker_0, # of connection points: 2
#     Edge 22, Type (0, 1), BuildingBlock: AJUNOK_clean_linker_0, # of connection points: 2
#     Edge 23, Type (0, 1), BuildingBlock: AJUNOK_clean_linker_0, # of connection points: 2
#     Edge 24, Type (0, 1), BuildingBlock: AJUNOK_clean_linker_0, # of connection points: 2
#     Edge 25, Type (0, 1), BuildingBlock: AJUNOK_clean_linker_0, # of connection points: 2
#     Edge 26, Type (0, 1), BuildingBlock: AJUNOK_clean_linker_0, # of connection points: 2
#     Edge 27, Type (0, 1), BuildingBlock: AJUNOK_clean_linker_0, # of connection points: 2
#     Edge 28, Type (0, 1), BuildingBlock: AJUNOK_clean_linker_0, # of connection points: 2
#     Edge 29, Type (0, 1), BuildingBlock: AJUNOK_clean_linker_0, # of connection points: 2
#     Edge 30, Type (0, 1), BuildingBlock: AJUNOK_clean_linker_0, # of connection points: 2
#     Edge 31, Type (0, 1), BuildingBlock: AJUNOK_clean_linker_0, # of connection points: 2
#     Edge 32, Type (0, 1), BuildingBlock: AJUNOK_clean_linker_0, # of connection points: 2
#     Edge 33, Type (0, 1), BuildingBlock: AJUNOK_clean_linker_0, # of connection points: 2
#     Edge 34, Type (0, 1), BuildingBlock: AJUNOK_clean_linker_0, # of connection points: 2
#     Edge 35, Type (0, 1), BuildingBlock: AJUNOK_clean_linker_0, # of connection points: 2
# Relax obj value: 0.139
# Max RMSD: 0.227
# Mean RMSD: 0.080
data_MOF--net-zzz--node1-GEDQOX_clean_sbu_0--node2-BETDIP_clean_linker_0--edge1-AJUNOK_clean_linker_0
_symmetry_space_group_name_H-M    P1
_symmetry_Int_Tables_number       1
_symmetry_cell_setting            triclinic
loop_
_symmetry_equiv_pos_as_xyz
'x, y, z'
_cell_length_a     40.224087
_cell_length_b     38.714989
_cell_length_c     13.808257
_cell_angle_alpha  76.780756
_cell_angle_beta   89.187185
_cell_angle_gamma 101.2077
loop_
_atom_site_label
_atom_site_type_symbol
_atom_site_fract_x
_atom_site_fract_y
_atom_site_fract_z
_atom_type_partial_charge
H0 H 0.79869 0.60045 0.29499 0.0
H1 H 0.80493 0.54708 0.05423 0.0
H2 H 0.89435 0.58129 0.202 0.0
H3 H 0.75803 0.57651 0.00725 0.0
C4 C 0.74385 0.57093 0.07856 0.0
C5 C 0.81351 0.59008 0.24624 0.0
C6 C 0.84861 0.59348 0.25534 0.0
C7 C 0.79749 0.5742 0.17244 0.0
C8 C 0.8169 0.56026 0.10967 0.0
C9 C 0.85188 0.56233 0.12203 0.0
C10 C 0.8673 0.57941 0.19346 0.0
N11 N 0.76179 0.57167 0.16637 0.0
H12 H 0.02745 0.76058 0.44519 0.0
H13 H 0.07839 0.81491 0.15621 0.0
H14 H 0.0561 0.87657 0.36055 0.0
H15 H 0.05262 0.76556 0.11237 0.0
C16 C 0.05285 0.74296 0.17524 0.0
C17 C 0.03943 0.78508 0.39139 0.0
C18 C 0.04117 0.81914 0.41406 0.0
C19 C 0.05247 0.78294 0.2973 0.0
C20 C 0.0676 0.81548 0.2278 0.0
C21 C 0.06894 0.84932 0.25049 0.0
C22 C 0.0561 0.8505 0.3437 0.0
N23 N 0.04997 0.7482 0.27425 0.0
H24 H 0.79542 0.99224 0.32179 0.0
H25 H 0.79695 0.06081 0.02551 0.0
H26 H 0.7062 0.03066 0.21711 0.0
H27 H 0.84109 0.03636 0.99682 0.0
C28 C 0.85402 0.03151 0.06554 0.0
C29 C 0.78275 1.00759 0.26335 0.0
C30 C 0.74854 1.00885 0.27897 0.0
C31 C 0.8005 0.02552 0.17138 0.0
C32 C 0.78382 0.04601 0.09608 0.0
C33 C 0.74991 0.04819 0.1136 0.0
C34 C 0.73259 0.02933 0.20433 0.0
N35 N 0.83513 1.02312 0.15874 0.0
H36 H 0.57013 0.82538 0.63115 0.0
H37 H 0.51072 0.83062 0.37206 0.0
H38 H 0.5042 0.72956 0.5845 0.0
H39 H 0.56858 0.86484 0.30998 0.0
C40 C 0.56521 0.88393 0.35435 0.0
C41 C 0.55112 0.81255 0.58868 0.0
C42 C 0.53674 0.77512 0.62151 0.0
C43 C 0.54181 0.83286 0.49784 0.0
C44 C 0.51796 0.81549 0.44193 0.0
C45 C 0.50479 0.77833 0.47205 0.0
C46 C 0.51349 0.75868 0.5629 0.0
N47 N 0.55745 0.87005 0.4591 0.0
H48 H 0.3006 0.53696 0.59258 0.0
H49 H 0.29412 0.57876 0.85583 0.0
H50 H 0.20692 0.56071 0.68524 0.0
H51 H 0.33679 0.54147 0.89941 0.0
C52 C 0.35241 0.55168 0.83009 0.0
C53 C 0.28601 0.54625 0.64442 0.0
C54 C 0.25182 0.54771 0.62903 0.0
C55 C 0.30153 0.55698 0.72677 0.0
C56 C 0.28256 0.56994 0.79295 0.0
C57 C 0.24862 0.5723 0.77542 0.0
C58 C 0.23361 0.56044 0.69535 0.0
N59 N 0.33654 0.55615 0.73779 0.0
H60 H 0.07666 0.36705 0.4435 0.0
H61 H 0.03554 0.31102 0.74197 0.0
H62 H 0.04867 0.25101 0.52451 0.0
H63 H 1.01749 0.36308 0.73854 0.0
C64 C 0.03884 0.38401 0.702 0.0
C65 C 0.06569 0.34231 0.49778 0.0
C66 C 0.06283 0.30854 0.47239 0.0
C67 C 0.05442 0.34383 0.59441 0.0
C68 C 0.04215 0.31091 0.66587 0.0
C69 C 0.03986 0.2774 0.64037 0.0
C70 C 0.04933 0.27687 0.54344 0.0
N71 N 0.05744 0.37822 0.6198 0.0
H72 H 0.3167 0.10258 0.56805 0.0
H73 H 0.31639 0.056 0.88495 0.0
H74 H 0.40824 0.08 0.70112 0.0
H75 H 0.27228 0.08413 0.8923 0.0
C76 C 0.25894 0.08207 0.82545 0.0
C77 C 0.33 0.09308 0.63338 0.0
C78 C 0.36445 0.09159 0.62319 0.0
C79 C 0.3125 0.08159 0.72832 0.0
C80 C 0.32955 0.06688 0.81226 0.0
C81 C 0.3639 0.06544 0.8009 0.0
C82 C 0.38123 0.0797 0.70811 0.0
N83 N 0.27756 0.08347 0.73563 0.0
H84 H 0.5533 0.30617 0.22083 0.0
H85 H 0.54439 0.28738 0.54201 0.0
H86 H 0.52571 0.38601 0.36029 0.0
H87 H 0.5997 0.27174 0.4962 0.0
C88 C 0.58337 0.24956 0.47299 0.0
C89 C 0.5467 0.31434 0.28734 0.0
C90 C 0.53709 0.34823 0.27932 0.0
C91 C 0.54921 0.29196 0.38305 0.0
C92 C 0.54185 0.3037 0.46848 0.0
C93 C 0.53349 0.33742 0.46035 0.0
C94 C 0.53039 0.35892 0.36635 0.0
N95 N 0.56124 0.25893 0.3954 0.0
Nd96 Nd 0.04116 0.04798 0.84702 0.0
Nd97 Nd 0.06988 0.07575 0.04199 0.0
C98 C 1.00274 1.00624 0.74791 0.0
C99 C 1.00572 0.97276 0.71605 0.0
C100 C 0.97695 0.94508 0.72105 0.0
C101 C 0.97955 0.91291 0.69339 0.0
C102 C 1.01107 0.90757 0.66051 0.0
C103 C 0.03988 0.93534 0.65651 0.0
C104 C 0.03729 0.96735 0.68463 0.0
C105 C 0.11155 0.06428 0.83618 0.0
C106 C 0.07198 0.99411 0.03133 0.0
C107 C 0.10108 0.11863 0.15186 0.0
C108 C 0.09723 0.15311 0.1774 0.0
C109 C 0.12412 0.1835 0.15427 0.0
C110 C 0.12131 0.216 0.17967 0.0
C111 C 0.09156 0.21887 0.22959 0.0
C112 C 0.06438 0.18864 0.25045 0.0
C113 C 0.06714 0.15626 0.22466 0.0
C114 C 1.00121 0.04758 0.04752 0.0
C115 C 0.04316 0.13232 0.85059 0.0
O116 O 0.99835 1.00251 0.84433 0.0
O117 O 0.02383 0.03644 0.70364 0.0
O118 O 0.09393 0.05469 0.76502 0.0
O119 O 0.09125 0.06592 0.90417 0.0
O120 O 0.04938 0.998 0.96316 0.0
O121 O 0.08723 1.02147 0.06817 0.0
O122 O 0.11101 0.121 0.05946 0.0
O123 O 0.07791 0.08938 0.18888 0.0
O124 O 0.01874 0.0447 0.1266 0.0
O125 O 0.01978 0.06669 0.97287 0.0
O126 O 0.05831 0.12633 0.93549 0.0
O127 O 0.03213 0.1064 0.80308 0.0
H128 H 0.95238 0.94837 0.74624 0.0
H129 H 0.95683 0.89224 0.69733 0.0
H130 H 0.06442 0.93285 0.62886 0.0
H131 H 0.06 0.98802 0.68105 0.0
H132 H 0.14751 0.18205 0.11695 0.0
H133 H 0.14251 0.23883 0.16053 0.0
H134 H 0.04118 0.18963 0.28957 0.0
H135 H 0.04578 0.13356 0.24297 0.0
Nd136 Nd 0.56171 0.03976 0.86553 0.0
Nd137 Nd 0.5612 0.09771 0.99811 0.0
C138 C 0.56528 0.98562 0.78226 0.0
C139 C 0.59184 0.9823 0.71255 0.0
C140 C 0.5976 0.94827 0.70603 0.0
C141 C 0.62526 0.94584 0.64654 0.0
C142 C 0.64756 0.97747 0.59379 0.0
C143 C 0.64133 1.01135 0.60008 0.0
C144 C 0.61388 1.01372 0.65889 0.0
C145 C 0.57431 0.11147 0.76027 0.0
C146 C 0.63306 0.08199 0.93243 0.0
C147 C 0.54935 0.1502 0.0776 0.0
C148 C 0.52104 0.14483 0.15198 0.0
C149 C 0.51521 0.17163 0.19982 0.0
C150 C 0.48751 0.16404 0.27045 0.0
C151 C 0.46494 0.13 0.29125 0.0
C152 C 0.4703 0.10451 0.23826 0.0
C153 C 0.49881 0.11112 0.17432 0.0
C154 C 0.55824 0.02853 0.1198 0.0
C155 C 0.48839 0.05067 0.94729 0.0
O156 O 0.57526 0.98658 0.87156 0.0
O157 O 0.54721 1.01008 0.74782 0.0
O158 O 0.58725 0.08638 0.73553 0.0
O159 O 0.55366 0.0978 0.83528 0.0
O160 O 0.61603 0.05154 0.91401 0.0
O161 O 0.6177 0.10775 0.94814 0.0
O162 O 0.53986 0.14704 0.98917 0.0
O163 O 0.57296 0.1319 0.10751 0.0
O164 O 0.55831 0.05704 0.15362 0.0
O165 O 0.55919 0.03816 0.02639 0.0
O166 O 0.50485 0.07858 0.97853 0.0
O167 O 0.50435 0.02981 0.90764 0.0
H168 H 0.58112 0.92369 0.74808 0.0
H169 H 0.62953 0.91937 0.64306 0.0
H170 H 0.65767 0.03619 0.55884 0.0
H171 H 0.61019 0.04024 0.66333 0.0
H172 H 0.53227 0.19784 0.18434 0.0
H173 H 0.48423 0.18439 0.31003 0.0
H174 H 0.45271 0.07886 0.2469 0.0
H175 H 0.50325 0.08956 0.14169 0.0
Nd176 Nd 0.52987 0.56673 0.04936 0.0
Nd177 Nd 0.56787 0.56667 0.86709 0.0
C178 C 0.48594 0.57541 0.18127 0.0
C179 C 0.47533 0.60603 0.20972 0.0
C180 C 0.47309 0.60617 0.31074 0.0
C181 C 0.46804 0.63705 0.33933 0.0
C182 C 0.46481 0.66821 0.26743 0.0
C183 C 0.4647 0.66719 0.16644 0.0
C184 C 0.47018 0.63634 0.13759 0.0
C185 C 0.59857 0.57093 0.07063 0.0
C186 C 0.55829 0.64431 0.8822 0.0
C187 C 0.60331 0.54958 0.73159 0.0
C188 C 0.59279 0.51457 0.70699 0.0
C189 C 0.61284 0.50183 0.64514 0.0
C190 C 0.60135 0.46769 0.62595 0.0
C191 C 0.57005 0.44603 0.66991 0.0
C192 C 0.55085 0.45859 0.73449 0.0
C193 C 0.56176 0.49284 0.751 0.0
C194 C 0.4988 0.56077 0.84828 0.0
C195 C 0.54223 0.4893 0.03402 0.0
O196 O 0.47786 0.57023 0.09365 0.0
O197 O 0.5168 0.5714 0.20169 0.0
O198 O 0.57525 0.55138 0.13756 0.0
O199 O 0.58549 0.58849 0.99778 0.0
O200 O 0.53417 0.62542 0.95108 0.0
O201 O 0.58028 0.62797 0.84852 0.0
O202 O 0.6128 0.54727 0.82259 0.0
O203 O 0.58184 0.5711 0.70826 0.0
O204 O 0.52164 0.58089 0.78147 0.0
O205 O 0.51262 0.54374 0.92006 0.0
O206 O 0.56608 0.50873 0.96596 0.0
O207 O 0.52031 0.50506 0.07013 0.0
H208 H 0.47706 0.58306 0.36727 0.0
H209 H 0.46904 0.63737 0.41733 0.0
H210 H 0.46206 0.69081 0.10968 0.0
H211 H 0.47175 0.63679 0.05892 0.0
H212 H 0.63688 0.5183 0.61102 0.0
H213 H 0.61645 0.45861 0.5749 0.0
H214 H 0.52704 0.44226 0.77071 0.0
H215 H 0.54567 0.50251 0.79786 0.0
Nd216 Nd 0.04968 0.58878 0.84952 0.0
Nd217 Nd 0.05021 0.53307 0.05064 0.0
C218 C 0.03336 0.6382 0.70184 0.0
C219 C 1.00341 0.63639 0.6421 0.0
C220 C 0.99396 0.668 0.58846 0.0
C221 C 0.96475 0.66566 0.53417 0.0
C222 C 0.94449 0.63166 0.5338 0.0
C223 C 0.95416 0.60017 0.58813 0.0
C224 C 0.9832 0.60252 0.64204 0.0
C225 C 0.05522 0.52056 0.8306 0.0
C226 C 0.97641 0.543 0.97467 0.0
C227 C 0.06635 0.48092 0.18833 0.0
C228 C 0.09593 0.48702 0.2484 0.0
C229 C 0.10352 0.46036 0.32739 0.0
C230 C 0.13239 0.46827 0.38114 0.0
C231 C 0.15449 0.50263 0.35443 0.0
C232 C 0.14682 0.52848 0.27313 0.0
C233 C 0.11747 0.5212 0.22367 0.0
C234 C 0.05744 0.60229 0.0877 0.0
C235 C 0.12186 0.58078 0.9298 0.0
O236 O 0.0271 0.63712 0.79563 0.0
O237 O 0.05398 0.61706 0.68955 0.0
O238 O 0.07123 0.5507 0.77271 0.0
O239 O 0.03591 0.52688 0.89536 0.0
O240 O 0.99284 0.56927 0.90102 0.0
O241 O 0.9926 0.52234 0.03925 0.0
O242 O 0.07424 0.48531 0.09325 0.0
O243 O 0.04202 0.49756 0.20373 0.0
O244 O 0.05553 0.5729 0.15633 0.0
O245 O 0.0549 0.59357 0.00535 0.0
O246 O 0.105 0.54912 0.98174 0.0
O247 O 0.10553 0.60546 0.88201 0.0
H248 H 1.00917 0.69438 0.58836 0.0
H249 H 0.95807 0.69035 0.49214 0.0
H250 H 0.93977 0.57356 0.58689 0.0
H251 H 0.99 0.57779 0.68353 0.0
H252 H 0.08693 0.4339 0.34855 0.0
H253 H 0.13663 0.44788 0.44505 0.0
H254 H 0.16326 0.5549 0.24797 0.0
H255 H 0.11182 0.54251 0.16465 0.0
C256 C 0.20331 0.07643 0.74348 0.0
C257 C 0.22152 0.07919 0.82853 0.0
C258 C 0.16785 0.07239 0.74681 0.0
C259 C 0.14917 0.07111 0.83501 0.0
H260 H 0.21636 0.07694 0.67389 0.0
H261 H 0.15495 0.06987 0.67965 0.0
S262 S 0.18481 0.07734 0.07815 0.0
N263 N 0.21828 0.08066 0.00337 0.0
N264 N 0.15169 0.07301 0.0094 0.0
C265 C 0.16709 0.07431 0.92019 0.0
C266 C 0.20323 0.07834 0.91695 0.0
C267 C 0.58377 0.21214 0.64598 0.0
C268 C 0.57764 0.21355 0.54491 0.0
C269 C 0.58115 0.17898 0.7164 0.0
C270 C 0.57331 0.14598 0.6877 0.0
H271 H 0.59094 0.23702 0.67082 0.0
H272 H 0.58653 0.17921 0.79294 0.0
S273 S 0.55365 0.13443 0.43359 0.0
N274 N 0.56169 0.17881 0.4211 0.0
N275 N 0.55811 0.1165 0.55216 0.0
C276 C 0.56653 0.1469 0.58728 0.0
C277 C 0.56831 0.18068 0.51615 0.0
C278 C 0.40338 0.53334 0.91306 0.0
C279 C 0.38979 0.55458 0.83273 0.0
C280 C 0.43859 0.53515 0.91713 0.0
C281 C 0.4616 0.55877 0.84182 0.0
H282 H 0.3866 0.5148 0.97268 0.0
H283 H 0.44782 0.51797 0.97992 0.0
S284 S 0.43904 0.62297 0.62098 0.0
N285 N 0.40214 0.60149 0.67928 0.0
N286 N 0.46815 0.60551 0.6875 0.0
C287 C 0.44831 0.5808 0.76228 0.0
C288 C 0.41246 0.57858 0.7576 0.0
C289 C 0.02143 0.42381 0.80543 0.0
C290 C 0.0449 0.41889 0.73524 0.0
C291 C 0.02534 0.45611 0.83869 0.0
C292 C 0.05295 0.48501 0.80309 0.0
H293 H 0.99945 0.40256 0.83418 0.0
H294 H 1.00613 0.45874 0.89082 0.0
S295 S 0.12372 0.48485 0.62734 0.0
N296 N 0.09822 0.44507 0.63718 0.0
N297 N 0.10562 0.50552 0.69922 0.0
C298 C 0.07724 0.48004 0.73543 0.0
C299 C 0.07324 0.44713 0.70155 0.0
C300 C 0.90887 0.02447 0.14688 0.0
C301 C 0.89129 0.03339 0.06013 0.0
C302 C 0.94434 0.02785 0.14191 0.0
C303 C 0.96353 0.04049 0.05019 0.0
H304 H 0.89531 1.01524 0.21938 0.0
H305 H 0.95684 1.02135 0.21075 0.0
S306 S 0.92936 0.06604 0.80116 0.0
N307 N 0.89555 0.05404 0.87975 0.0
N308 N 0.96197 0.06086 0.87034 0.0
C309 C 0.94609 0.04867 0.96285 0.0
C310 C 0.91005 0.04501 0.96789 0.0
C311 C 0.56288 0.92867 0.19445 0.0
C312 C 0.56341 0.92137 0.29915 0.0
C313 C 0.56078 0.9631 0.13731 0.0
C314 C 0.55954 0.99194 0.18212 0.0
H315 H 0.56384 0.90737 0.15602 0.0
H316 H 0.56011 0.96709 0.05743 0.0
S317 S 0.56107 0.98763 0.45382 0.0
N318 N 0.56283 0.94612 0.44556 0.0
N319 N 0.5594 1.01101 0.33845 0.0
C320 C 0.56024 0.98514 0.28699 0.0
C321 C 0.56207 0.94987 0.34542 0.0
C322 C 0.69253 0.58643 0.99245 0.0
C323 C 0.70668 0.57019 0.07957 0.0
C324 C 0.65772 0.5871 0.99078 0.0
C325 C 0.63549 0.57083 0.07563 0.0
H326 H 0.70861 0.5992 0.92519 0.0
H327 H 0.64813 0.60022 0.92204 0.0
S328 S 0.65944 0.52302 0.32146 0.0
N329 N 0.69556 0.53668 0.25251 0.0
N330 N 0.63014 0.5371 0.24876 0.0
C331 C 0.64923 0.55395 0.1629 0.0
C332 C 0.68479 0.55383 0.16505 0.0
C333 C 0.05093 0.67526 0.22902 0.0
C334 C 0.05457 0.70718 0.15309 0.0
C335 C 0.05222 0.64172 0.20679 0.0
C336 C 0.05716 0.6386 0.10785 0.0
H337 H 0.04682 0.67605 0.3061 0.0
H338 H 0.04898 0.61792 0.26793 0.0
S339 S 0.06987 0.71434 0.88244 0.0
N340 N 0.06435 0.73358 0.97496 0.0
N341 N 0.06717 0.67091 0.9342 0.0
C342 C 0.06135 0.67038 0.03166 0.0
C343 C 0.05994 0.70448 0.05407 0.0
C344 C 1.01204 0.21195 0.69067 0.0
C345 C 0.0331 0.2421 0.71467 0.0
C346 C 1.01466 0.17645 0.73683 0.0
C347 C 0.038 0.16975 0.81007 0.0
H348 H 0.99531 0.21596 0.63006 0.0
H349 H 0.99914 0.15425 0.71232 0.0
S350 S 0.09495 0.23933 0.91123 0.0
N351 N 0.07526 0.26288 0.82371 0.0
N352 N 0.07954 0.19641 0.9135 0.0
C353 C 0.05684 0.19964 0.84153 0.0
C354 C 0.0544 0.23576 0.79351 0.0
C355 C 0.39939 1.02163 0.87002 0.0
C356 C 0.38412 0.05032 0.8822 0.0
C357 C 0.43226 1.01965 0.90022 0.0
C358 C 0.45074 0.04608 0.94462 0.0
H359 H 0.38784 1.00367 0.8246 0.0
H360 H 0.44424 0.99932 0.88009 0.0
S361 S 0.41726 0.12016 0.01857 0.0
N362 N 0.38632 0.10058 0.95992 0.0
N363 N 0.44766 0.09701 0.01894 0.0
C364 C 0.43331 0.07135 0.97117 0.0
C365 C 0.39991 0.07323 0.94006 0.0
C366 C 0.56756 0.35906 0.58965 0.0
C367 C 0.53629 0.35474 0.54506 0.0
C368 C 0.57743 0.3873 0.63714 0.0
C369 C 0.55625 0.41183 0.64161 0.0
H370 H 0.58599 0.34306 0.57873 0.0
H371 H 0.60267 0.39144 0.66445 0.0
S372 S 0.46906 0.4072 0.55342 0.0
N373 N 0.48191 0.37284 0.52322 0.0
N374 N 0.50068 0.42688 0.6097 0.0
C375 C 0.52334 0.40516 0.6074 0.0
C376 C 0.51323 0.37616 0.56015 0.0
C377 C 0.20993 0.61261 0.80019 0.0
C378 C 0.22602 0.58384 0.84179 0.0
C379 C 0.1772 0.61349 0.83515 0.0
C380 C 0.15937 0.58545 0.91256 0.0
H381 H 0.22109 0.63226 0.73296 0.0
H382 H 0.16478 0.63446 0.79525 0.0
S383 S 0.19392 0.50841 0.05966 0.0
N384 N 0.22452 0.53045 0.97433 0.0
N385 N 0.1632 0.53145 0.04044 0.0
C386 C 0.17713 0.55908 0.96239 0.0
C387 C 0.21052 0.55855 0.92719 0.0
C388 C 0.09839 0.91441 0.20538 0.0
C389 C 0.07915 0.88443 0.17578 0.0
C390 C 0.09766 0.95001 0.15485 0.0
C391 C 0.07806 0.95697 0.07185 0.0
H392 H 0.11174 0.91028 0.27337 0.0
H393 H 0.11089 0.97202 0.1849 0.0
S394 S 0.03052 0.88788 0.94889 0.0
N395 N 0.04486 0.86404 0.04847 0.0
N396 N 0.0447 0.93073 0.95011 0.0
C397 C 0.06236 0.92722 0.03389 0.0
C398 C 0.06276 0.89098 0.08639 0.0
C399 C 0.71638 0.05112 0.96416 0.0
C400 C 0.73034 0.06797 0.03823 0.0
C401 C 0.6865 0.05895 0.92126 0.0
C402 C 0.66955 0.08378 0.95147 0.0
H403 H 0.72645 0.02903 0.94715 0.0
H404 H 0.67509 0.04308 0.87057 0.0
S405 S 0.70045 0.14046 0.12792 0.0
N406 N 0.72864 0.1146 0.12818 0.0
N407 N 0.67257 0.12965 0.04762 0.0
C408 C 0.68582 0.10411 0.01602 0.0
C409 C 0.71623 0.09606 0.05957 0.0
C410 C 0.45865 0.73071 0.43557 0.0
C411 C 0.48756 0.75815 0.40185 0.0
C412 C 0.44869 0.70342 0.38449 0.0
C413 C 0.46745 0.70268 0.29851 0.0
H414 H 0.44539 0.72865 0.50617 0.0
H415 H 0.42795 0.68114 0.41701 0.0
S416 S 0.54211 0.77136 0.17216 0.0
N417 N 0.53223 0.7855 0.27079 0.0
N418 N 0.51365 0.7341 0.17519 0.0
C419 C 0.49411 0.73211 0.25825 0.0
C420 C 0.50418 0.75994 0.31002 0.0
C421 C 0.89021 0.52002 0.11402 0.0
C422 C 0.87429 0.54759 0.06299 0.0
C423 C 0.92199 0.51624 0.07952 0.0
C424 C 0.93912 0.54002 0.99271 0.0
H425 H 0.87973 0.50377 0.18661 0.0
H426 H 0.93434 0.49655 0.12605 0.0
S427 S 0.90422 0.61141 0.82079 0.0
N428 N 0.87502 0.59502 0.91384 0.0
N429 N 0.93432 0.58777 0.84681 0.0
C430 C 0.9213 0.56466 0.93453 0.0
C431 C 0.88895 0.56847 0.97021 0.0
C432 C 0.05254 0.2903 0.31315 0.0
C433 C 0.07629 0.30284 0.37768 0.0
C434 C 0.05882 0.26539 0.25862 0.0
C435 C 0.08911 0.25199 0.26631 0.0
H436 H 0.02739 0.29643 0.31387 0.0
H437 H 0.03874 0.25455 0.21578 0.0
S438 S 0.16149 0.28077 0.41355 0.0
N439 N 0.13286 0.30374 0.43597 0.0
N440 N 0.14478 0.25692 0.33475 0.0
C441 C 0.11453 0.26748 0.32194 0.0
C442 C 0.10813 0.29303 0.37681 0.0
C443 C 0.39108 0.13449 0.46332 0.0
C444 C 0.38401 0.09947 0.5261 0.0
C445 C 0.41696 0.14428 0.38629 0.0
C446 C 0.43698 0.11956 0.37121 0.0
H447 H 0.37773 0.15485 0.47682 0.0
H448 H 0.4217 0.17153 0.33959 0.0
S449 S 0.42807 0.02437 0.51819 0.0
N450 N 0.39719 0.03941 0.56432 0.0
N451 N 0.44818 0.05871 0.43008 0.0
C452 C 0.42961 0.08431 0.4337 0.0
C453 C 0.40241 0.074 0.50787 0.0
C454 C 0.5081 0.39044 0.16366 0.0
C455 C 0.53778 0.37652 0.18509 0.0
C456 C 0.50964 0.42637 0.11029 0.0
C457 C 0.54086 0.44976 0.07411 0.0
H458 H 0.48377 0.37462 0.19744 0.0
H459 H 0.48627 0.43644 0.10179 0.0
S460 S 0.62562 0.42534 0.09844 0.0
N461 N 0.59904 0.38812 0.15803 0.0
N462 N 0.60192 0.45508 0.05413 0.0
C463 C 0.57042 0.43513 0.08623 0.0
C464 C 0.56887 0.39863 0.1422 0.0
C465 C 0.2147 0.56102 0.48988 0.0
C466 C 0.23363 0.53715 0.5442 0.0
C467 C 0.18975 0.5495 0.42888 0.0
C468 C 0.18333 0.51382 0.41542 0.0
H469 H 0.2176 0.58839 0.49999 0.0
H470 H 0.17434 0.56861 0.39594 0.0
S471 S 0.22977 0.44204 0.53012 0.0
N472 N 0.24637 0.47694 0.57621 0.0
N473 N 0.20111 0.45572 0.45401 0.0
C474 C 0.20393 0.49028 0.46372 0.0
C475 C 0.2289 0.50192 0.52892 0.0
C476 C 0.99634 0.83954 0.49743 0.0
C477 C 0.02611 0.82527 0.50607 0.0
C478 C 0.9902 0.86394 0.55374 0.0
C479 C 1.01355 0.87497 0.62136 0.0
H480 H 0.97975 0.83526 0.43827 0.0
H481 H 0.96858 0.87669 0.53731 0.0
S482 S 0.09105 0.83841 0.68896 0.0
N483 N 0.07614 0.81917 0.59894 0.0
N484 N 0.06413 0.86382 0.70771 0.0
C485 C 0.04116 0.8573 0.63954 0.0
C486 C 0.04745 0.83263 0.58162 0.0
C487 C 0.73412 1.00566 0.45658 0.0
C488 C 0.72848 0.99065 0.37349 0.0
C489 C 0.70864 0.99856 0.53302 0.0
C490 C 0.67675 0.97629 0.52852 0.0
H491 H 0.75703 0.02553 0.45812 0.0
H492 H 0.71304 1.01262 0.59252 0.0
S493 S 0.65185 0.92638 0.33304 0.0
N494 N 0.6908 0.94918 0.29656 0.0
N495 N 0.64271 0.93596 0.43969 0.0
C496 C 0.67219 0.95836 0.45056 0.0
C497 C 0.69815 0.96557 0.37301 0.0
C498 C 0.52388 0.72996 0.78513 0.0
C499 C 0.54805 0.75031 0.70821 0.0
C500 C 0.5287 0.69714 0.84664 0.0
C501 C 0.55768 0.68292 0.83276 0.0
H502 H 0.49981 0.738 0.79251 0.0
H503 H 0.50832 0.68159 0.90044 0.0
S504 S 0.63066 0.72851 0.65033 0.0
N505 N 0.60354 0.756 0.62856 0.0
N506 N 0.6129 0.69456 0.7435 0.0
C507 C 0.58334 0.70466 0.76157 0.0
C508 C 0.57845 0.73826 0.69957 0.0
C509 C 0.89636 0.63737 0.2997 0.0
C510 C 0.86695 0.61024 0.33073 0.0
C511 C 0.92015 0.64633 0.36762 0.0
C512 C 0.91541 0.62839 0.46904 0.0
H513 H 0.90219 0.64987 0.22114 0.0
H514 H 0.94357 0.66539 0.33908 0.0
S515 S 0.83983 0.55988 0.59042 0.0
N516 N 0.83237 0.56875 0.47081 0.0
N517 N 0.87677 0.58609 0.5994 0.0
C518 C 0.88458 0.60368 0.50235 0.0
C519 C 0.86036 0.59455 0.43297 0.0
loop_
_geom_bond_atom_site_label_1
_geom_bond_atom_site_label_2
_geom_bond_distance
_geom_bond_site_symmetry_2
_ccdc_geom_bond_type
H0 C5 0.930 . S
H1 C8 0.930 . S
H2 C10 0.930 . S
H3 C4 1.016 . S
C4 H3 1.016 . S
C4 N11 1.286 1_556 S
C5 H0 0.930 . S
C5 C6 1.397 . S
C5 C7 1.361 . S
C6 C5 1.397 . S
C6 C10 1.390 . S
C7 C5 1.361 . S
C7 C8 1.393 1_554 S
C7 N11 1.413 . S
C8 H1 0.930 . S
C8 C7 1.393 1_556 S
C8 C9 1.399 . S
C9 C8 1.399 . S
C9 C10 1.381 1_556 S
C10 H2 0.930 . S
C10 C6 1.390 . S
C10 C9 1.381 1_554 S
N11 C4 1.286 1_554 S
N11 C7 1.413 . S
H12 C17 0.930 . S
H13 C20 0.930 1_556 S
H14 C22 0.930 . S
H15 C16 1.016 1_556 S
C16 H15 1.016 1_554 S
C16 N23 1.287 1_655 S
C17 H12 0.930 . S
C17 C18 1.397 . S
C17 C19 1.361 . S
C18 C17 1.397 . S
C18 C22 1.390 . S
C19 C17 1.361 . S
C19 C20 1.393 . S
C19 N23 1.413 1_655 S
C20 H13 0.930 1_554 S
C20 C19 1.393 . S
C20 C21 1.399 . S
C21 C20 1.399 . S
C21 C22 1.381 . S
C22 H14 0.930 . S
C22 C18 1.390 . S
C22 C21 1.381 . S
N23 C16 1.287 1_455 S
N23 C19 1.413 1_455 S
H24 C29 0.930 . S
H25 C32 0.930 . S
H26 C34 0.930 . S
H27 C28 1.016 1_556 S
C28 H27 1.016 1_554 S
C28 N35 1.286 . S
C29 H24 0.930 . S
C29 C30 1.397 . S
C29 C31 1.361 . S
C30 C29 1.397 . S
C30 C34 1.390 . S
C31 C29 1.361 . S
C31 C32 1.393 1_554 S
C31 N35 1.413 . S
C32 H25 0.930 . S
C32 C31 1.393 1_556 S
C32 C33 1.399 1_556 S
C33 C32 1.399 1_554 S
C33 C34 1.381 . S
C34 H26 0.930 . S
C34 C30 1.390 . S
C34 C33 1.381 . S
N35 C28 1.286 . S
N35 C31 1.413 . S
H36 C41 0.930 . S
H37 C44 0.930 . S
H38 C46 0.930 . S
H39 C40 1.016 . S
C40 H39 1.016 . S
C40 N47 1.286 . S
C41 H36 0.930 . S
C41 C42 1.397 . S
C41 C43 1.361 . S
C42 C41 1.397 . S
C42 C46 1.390 . S
C43 C41 1.361 . S
C43 C44 1.393 . S
C43 N47 1.413 . S
C44 H37 0.930 . S
C44 C43 1.393 . S
C44 C45 1.399 . S
C45 C44 1.399 . S
C45 C46 1.381 . S
C46 H38 0.930 . S
C46 C42 1.390 . S
C46 C45 1.381 . S
N47 C40 1.286 . S
N47 C43 1.413 . S
H48 C53 0.930 . S
H49 C56 0.930 1_554 S
H50 C58 0.930 . S
H51 C52 1.016 1_554 S
C52 H51 1.016 1_556 S
C52 N59 1.286 . S
C53 H48 0.930 . S
C53 C54 1.397 . S
C53 C55 1.361 . S
C54 C53 1.397 . S
C54 C58 1.390 . S
C55 C53 1.361 . S
C55 C56 1.393 . S
C55 N59 1.413 . S
C56 H49 0.930 1_556 S
C56 C55 1.393 . S
C56 C57 1.399 . S
C57 C56 1.399 . S
C57 C58 1.381 . S
C58 H50 0.930 . S
C58 C54 1.390 . S
C58 C57 1.381 . S
N59 C52 1.286 . S
N59 C55 1.413 . S
H60 C65 0.930 . S
H61 C68 0.930 . S
H62 C70 0.930 . S
H63 C64 1.016 . S
C64 H63 1.016 . S
C64 N71 1.286 . S
C65 H60 0.930 . S
C65 C66 1.397 . S
C65 C67 1.361 . S
C66 C65 1.397 . S
C66 C70 1.390 . S
C67 C65 1.361 . S
C67 C68 1.393 . S
C67 N71 1.413 . S
C68 H61 0.930 . S
C68 C67 1.393 . S
C68 C69 1.399 . S
C69 C68 1.399 . S
C69 C70 1.381 . S
C70 H62 0.930 . S
C70 C66 1.390 . S
C70 C69 1.381 . S
N71 C64 1.286 . S
N71 C67 1.413 . S
H72 C77 0.930 . S
H73 C80 0.930 . S
H74 C82 0.930 . S
H75 C76 1.016 . S
C76 H75 1.016 . S
C76 N83 1.286 . S
C77 H72 0.930 . S
C77 C78 1.397 . S
C77 C79 1.361 . S
C78 C77 1.397 . S
C78 C82 1.390 . S
C79 C77 1.361 . S
C79 C80 1.393 . S
C79 N83 1.413 . S
C80 H73 0.930 . S
C80 C79 1.393 . S
C80 C81 1.399 . S
C81 C80 1.399 . S
C81 C82 1.381 . S
C82 H74 0.930 . S
C82 C78 1.390 . S
C82 C81 1.381 . S
N83 C76 1.286 . S
N83 C79 1.413 . S
H84 C89 0.930 . S
H85 C92 0.930 . S
H86 C94 0.930 . S
H87 C88 1.016 . S
C88 H87 1.016 . S
C88 N95 1.286 . S
C89 H84 0.930 . S
C89 C90 1.397 . S
C89 C91 1.361 . S
C90 C89 1.397 . S
C90 C94 1.390 . S
C91 C89 1.361 . S
C91 C92 1.393 . S
C91 N95 1.413 . S
C92 H85 0.930 . S
C92 C91 1.393 . S
C92 C93 1.399 . S
C93 C92 1.399 . S
C93 C94 1.381 . S
C94 H86 0.930 . S
C94 C90 1.390 . S
C94 C93 1.381 . S
N95 C88 1.286 . S
N95 C91 1.413 . S
Nd96 C98 2.836 1_545 S
Nd96 O116 2.500 1_445 S
Nd96 O117 2.492 . S
Nd96 O118 2.487 . S
Nd96 O119 2.682 . S
Nd96 O120 2.410 1_545 S
Nd96 O125 2.414 1_455 S
Nd96 O127 2.424 . S
Nd97 C107 2.836 . S
Nd97 O119 2.414 1_554 S
Nd97 O121 2.424 1_545 S
Nd97 O122 2.500 . S
Nd97 O123 2.492 . S
Nd97 O124 2.487 1_455 S
Nd97 O125 2.682 1_454 S
Nd97 O126 2.410 1_554 S
C98 Nd96 2.836 1_565 S
C98 C99 1.498 . S
C98 O116 1.258 1_455 S
C98 O117 1.239 1_565 S
C99 C98 1.498 . S
C99 C100 1.366 1_455 S
C99 C104 1.407 . S
C100 C99 1.366 1_655 S
C100 C101 1.392 . S
C100 H128 0.930 . S
C101 C100 1.392 . S
C101 C102 1.398 . S
C101 H129 0.929 . S
C102 C101 1.398 . S
C102 C103 1.352 1_655 S
C103 C102 1.352 1_455 S
C103 C104 1.384 . S
C103 H130 0.930 . S
C104 C99 1.407 . S
C104 C103 1.384 . S
C104 H131 0.929 . S
C105 O118 1.241 . S
C105 O119 1.273 . S
C106 O120 1.251 . S
C106 O121 1.268 1_556 S
C107 Nd97 2.836 . S
C107 C108 1.498 . S
C107 O122 1.258 . S
C107 O123 1.239 . S
C108 C107 1.498 . S
C108 C109 1.366 . S
C108 C113 1.407 . S
C109 C108 1.366 . S
C109 C110 1.392 . S
C109 H132 0.930 . S
C110 C109 1.392 . S
C110 C111 1.398 . S
C110 H133 0.929 . S
C111 C110 1.398 . S
C111 C112 1.352 . S
C112 C111 1.352 . S
C112 C113 1.384 . S
C112 H134 0.930 . S
C113 C108 1.407 . S
C113 C112 1.384 . S
C113 H135 0.929 . S
C114 O124 1.241 1_556 S
C114 O125 1.273 . S
C115 O126 1.251 . S
C115 O127 1.268 . S
O116 Nd96 2.500 1_665 S
O116 C98 1.258 1_655 S
O117 Nd96 2.492 . S
O117 C98 1.239 1_545 S
O118 Nd96 2.487 . S
O118 C105 1.241 . S
O119 Nd96 2.682 . S
O119 Nd97 2.414 1_556 S
O119 C105 1.273 . S
O120 Nd96 2.410 1_565 S
O120 C106 1.251 . S
O121 Nd97 2.424 1_565 S
O121 C106 1.268 1_554 S
O122 Nd97 2.500 . S
O122 C107 1.258 . S
O123 Nd97 2.492 . S
O123 C107 1.239 . S
O124 Nd97 2.487 1_655 S
O124 C114 1.241 1_554 S
O125 Nd96 2.414 1_655 S
O125 Nd97 2.682 1_656 S
O125 C114 1.273 . S
O126 Nd97 2.410 1_556 S
O126 C115 1.251 . S
O127 Nd96 2.424 . S
O127 C115 1.268 . S
H128 C100 0.930 . S
H129 C101 0.929 . S
H130 C103 0.930 . S
H131 C104 0.929 . S
H132 C109 0.930 . S
H133 C110 0.929 . S
H134 C112 0.930 . S
H135 C113 0.929 . S
Nd136 C138 2.836 1_545 S
Nd136 O156 2.500 1_545 S
Nd136 O157 2.492 . S
Nd136 O158 2.487 . S
Nd136 O159 2.682 . S
Nd136 O160 2.410 . S
Nd136 O165 2.415 . S
Nd136 O167 2.424 . S
Nd137 C147 2.836 . S
Nd137 O159 2.414 1_554 S
Nd137 O161 2.424 . S
Nd137 O162 2.500 . S
Nd137 O163 2.492 . S
Nd137 O164 2.487 1_545 S
Nd137 O165 2.686 1_554 S
Nd137 O166 2.410 . S
C138 Nd136 2.836 1_565 S
C138 C139 1.498 . S
C138 O156 1.258 . S
C138 O157 1.239 1_565 S
C139 C138 1.498 . S
C139 C140 1.366 . S
C139 C144 1.407 1_565 S
C140 C139 1.366 . S
C140 C141 1.392 . S
C140 H168 0.930 . S
C141 C140 1.392 . S
C141 C142 1.398 . S
C141 H169 0.929 . S
C142 C141 1.398 . S
C142 C143 1.352 . S
C143 C142 1.352 . S
C143 C144 1.384 1_565 S
C143 H170 0.927 1_565 S
C144 C139 1.407 1_545 S
C144 C143 1.384 1_545 S
C144 H171 0.929 . S
C145 O158 1.241 . S
C145 O159 1.273 . S
C146 O160 1.251 . S
C146 O161 1.268 1_556 S
C147 Nd137 2.836 . S
C147 C148 1.498 . S
C147 O162 1.258 . S
C147 O163 1.239 . S
C148 C147 1.498 . S
C148 C149 1.366 . S
C148 C153 1.407 . S
C149 C148 1.366 . S
C149 C150 1.392 . S
C149 H172 0.930 . S
C150 C149 1.392 . S
C150 C151 1.398 . S
C150 H173 0.929 . S
C151 C150 1.398 . S
C151 C152 1.352 . S
C152 C151 1.352 . S
C152 C153 1.384 . S
C152 H174 0.930 . S
C153 C148 1.407 . S
C153 C152 1.384 . S
C153 H175 0.929 . S
C154 O164 1.241 . S
C154 O165 1.271 1_564 S
C155 O166 1.251 1_556 S
C155 O167 1.268 . S
O156 Nd136 2.500 1_565 S
O156 C138 1.258 . S
O157 Nd136 2.492 . S
O157 C138 1.239 1_545 S
O158 Nd136 2.487 . S
O158 C145 1.241 . S
O159 Nd136 2.682 . S
O159 Nd137 2.414 1_556 S
O159 C145 1.273 . S
O160 Nd136 2.410 . S
O160 C146 1.251 . S
O161 Nd137 2.424 . S
O161 C146 1.268 1_554 S
O162 Nd137 2.500 . S
O162 C147 1.258 . S
O163 Nd137 2.492 . S
O163 C147 1.239 . S
O164 Nd137 2.487 1_565 S
O164 C154 1.241 . S
O165 Nd136 2.415 . S
O165 Nd137 2.686 1_556 S
O165 C154 1.271 1_546 S
O166 Nd137 2.410 . S
O166 C155 1.251 1_554 S
O167 Nd136 2.424 . S
O167 C155 1.268 . S
H168 C140 0.930 . S
H169 C141 0.929 . S
H170 C143 0.927 1_545 S
H171 C144 0.929 . S
H172 C149 0.930 . S
H173 C150 0.929 . S
H174 C152 0.930 . S
H175 C153 0.929 . S
Nd176 C178 2.836 . S
Nd176 O196 2.500 . S
Nd176 O197 2.492 . S
Nd176 O198 2.487 . S
Nd176 O199 2.682 1_554 S
Nd176 O200 2.410 1_554 S
Nd176 O205 2.414 1_554 S
Nd176 O207 2.424 . S
Nd177 C187 2.836 . S
Nd177 O199 2.414 . S
Nd177 O201 2.424 . S
Nd177 O202 2.500 . S
Nd177 O203 2.492 . S
Nd177 O204 2.487 . S
Nd177 O205 2.682 . S
Nd177 O206 2.410 . S
C178 Nd176 2.836 . S
C178 C179 1.498 . S
C178 O196 1.258 . S
C178 O197 1.239 . S
C179 C178 1.498 . S
C179 C180 1.366 . S
C179 C184 1.407 . S
C180 C179 1.366 . S
C180 C181 1.392 . S
C180 H208 0.930 . S
C181 C180 1.392 . S
C181 C182 1.398 . S
C181 H209 0.929 . S
C182 C181 1.398 . S
C182 C183 1.352 . S
C183 C182 1.352 . S
C183 C184 1.384 . S
C183 H210 0.930 . S
C184 C179 1.407 . S
C184 C183 1.384 . S
C184 H211 0.929 . S
C185 O198 1.241 1_556 S
C185 O199 1.273 . S
C186 O200 1.251 . S
C186 O201 1.268 . S
C187 Nd177 2.836 . S
C187 C188 1.498 . S
C187 O202 1.258 . S
C187 O203 1.239 . S
C188 C187 1.498 . S
C188 C189 1.366 . S
C188 C193 1.407 . S
C189 C188 1.366 . S
C189 C190 1.392 . S
C189 H212 0.930 . S
C190 C189 1.392 . S
C190 C191 1.398 . S
C190 H213 0.929 . S
C191 C190 1.398 . S
C191 C192 1.352 . S
C192 C191 1.352 . S
C192 C193 1.384 . S
C192 H214 0.930 . S
C193 C188 1.407 . S
C193 C192 1.384 . S
C193 H215 0.929 . S
C194 O204 1.241 . S
C194 O205 1.273 . S
C195 O206 1.251 1_554 S
C195 O207 1.268 . S
O196 Nd176 2.500 . S
O196 C178 1.258 . S
O197 Nd176 2.492 . S
O197 C178 1.239 . S
O198 Nd176 2.487 . S
O198 C185 1.241 1_554 S
O199 Nd176 2.682 1_556 S
O199 Nd177 2.414 . S
O199 C185 1.273 . S
O200 Nd176 2.410 1_556 S
O200 C186 1.251 . S
O201 Nd177 2.424 . S
O201 C186 1.268 . S
O202 Nd177 2.500 . S
O202 C187 1.258 . S
O203 Nd177 2.492 . S
O203 C187 1.239 . S
O204 Nd177 2.487 . S
O204 C194 1.241 . S
O205 Nd176 2.414 1_556 S
O205 Nd177 2.682 . S
O205 C194 1.273 . S
O206 Nd177 2.410 . S
O206 C195 1.251 1_556 S
O207 Nd176 2.424 . S
O207 C195 1.268 . S
H208 C180 0.930 . S
H209 C181 0.929 . S
H210 C183 0.930 . S
H211 C184 0.929 . S
H212 C189 0.930 . S
H213 C190 0.929 . S
H214 C192 0.930 . S
H215 C193 0.929 . S
Nd216 C218 2.836 1_455 S
Nd216 O236 2.500 1_455 S
Nd216 O237 2.492 1_455 S
Nd216 O238 2.487 . S
Nd216 O239 2.682 . S
Nd216 O240 2.410 1_455 S
Nd216 O245 2.414 . S
Nd216 O247 2.424 . S
Nd217 C227 2.836 . S
Nd217 O239 2.414 1_554 S
Nd217 O241 2.424 1_455 S
Nd217 O242 2.500 . S
Nd217 O243 2.492 . S
Nd217 O244 2.487 . S
Nd217 O245 2.682 1_554 S
Nd217 O246 2.410 . S
C218 Nd216 2.836 1_655 S
C218 C219 1.498 . S
C218 O236 1.258 . S
C218 O237 1.239 . S
C219 C218 1.498 . S
C219 C220 1.366 . S
C219 C224 1.407 . S
C220 C219 1.366 . S
C220 C221 1.392 . S
C220 H248 0.930 . S
C221 C220 1.392 . S
C221 C222 1.398 . S
C221 H249 0.929 . S
C222 C221 1.398 . S
C222 C223 1.352 . S
C223 C222 1.352 . S
C223 C224 1.384 . S
C223 H250 0.930 . S
C224 C219 1.407 . S
C224 C223 1.384 . S
C224 H251 0.929 . S
C225 O238 1.241 . S
C225 O239 1.273 . S
C226 O240 1.251 . S
C226 O241 1.268 1_556 S
C227 Nd217 2.836 . S
C227 C228 1.498 . S
C227 O242 1.258 . S
C227 O243 1.239 . S
C228 C227 1.498 . S
C228 C229 1.366 . S
C228 C233 1.407 . S
C229 C228 1.366 . S
C229 C230 1.392 . S
C229 H252 0.930 . S
C230 C229 1.392 . S
C230 C231 1.398 . S
C230 H253 0.929 . S
C231 C230 1.398 . S
C231 C232 1.352 . S
C232 C231 1.352 . S
C232 C233 1.384 . S
C232 H254 0.930 . S
C233 C228 1.407 . S
C233 C232 1.384 . S
C233 H255 0.929 . S
C234 O244 1.241 1_556 S
C234 O245 1.273 . S
C235 O246 1.251 1_556 S
C235 O247 1.268 . S
O236 Nd216 2.500 1_655 S
O236 C218 1.258 . S
O237 Nd216 2.492 1_655 S
O237 C218 1.239 . S
O238 Nd216 2.487 . S
O238 C225 1.241 . S
O239 Nd216 2.682 . S
O239 Nd217 2.414 1_556 S
O239 C225 1.273 . S
O240 Nd216 2.410 1_655 S
O240 C226 1.251 . S
O241 Nd217 2.424 1_655 S
O241 C226 1.268 1_554 S
O242 Nd217 2.500 . S
O242 C227 1.258 . S
O243 Nd217 2.492 . S
O243 C227 1.239 . S
O244 Nd217 2.487 . S
O244 C234 1.241 1_554 S
O245 Nd216 2.414 . S
O245 Nd217 2.682 1_556 S
O245 C234 1.273 . S
O246 Nd217 2.410 . S
O246 C235 1.251 1_554 S
O247 Nd216 2.424 . S
O247 C235 1.268 . S
H248 C220 0.930 . S
H249 C221 0.929 . S
H250 C223 0.930 . S
H251 C224 0.929 . S
H252 C229 0.930 . S
H253 C230 0.929 . S
H254 C232 0.930 . S
H255 C233 0.929 . S
C256 C257 1.369 . S
C256 C258 1.419 . S
C256 H260 0.930 . S
C257 C256 1.369 . S
C257 C266 1.429 . S
C258 C256 1.419 . S
C258 C259 1.363 . S
C258 H261 0.929 . S
C259 C258 1.363 . S
C259 C265 1.428 . S
H260 C256 0.930 . S
H261 C258 0.929 . S
S262 N263 1.613 1_554 S
S262 N264 1.610 . S
N263 S262 1.613 1_556 S
N263 C266 1.350 . S
N264 S262 1.610 . S
N264 C265 1.351 1_554 S
C265 C259 1.428 . S
C265 N264 1.351 1_556 S
C265 C266 1.434 . S
C266 C257 1.429 . S
C266 N263 1.350 . S
C266 C265 1.434 . S
C267 C268 1.369 . S
C267 C269 1.419 . S
C267 H271 0.930 . S
C268 C267 1.369 . S
C268 C277 1.429 . S
C269 C267 1.419 . S
C269 C270 1.363 . S
C269 H272 0.929 . S
C270 C269 1.363 . S
C270 C276 1.428 . S
H271 C267 0.930 . S
H272 C269 0.929 . S
S273 N274 1.613 . S
S273 N275 1.610 . S
N274 S273 1.613 . S
N274 C277 1.350 . S
N275 S273 1.610 . S
N275 C276 1.351 . S
C276 C270 1.428 . S
C276 N275 1.351 . S
C276 C277 1.434 . S
C277 C268 1.429 . S
C277 N274 1.350 . S
C277 C276 1.434 . S
C278 C279 1.369 1_554 S
C278 C280 1.419 . S
C278 H282 0.930 . S
C279 C278 1.369 1_556 S
C279 C288 1.429 . S
C280 C278 1.419 . S
C280 C281 1.363 1_554 S
C280 H283 0.929 . S
C281 C280 1.363 1_556 S
C281 C287 1.428 . S
H282 C278 0.930 . S
H283 C280 0.929 . S
S284 N285 1.613 . S
S284 N286 1.610 . S
N285 S284 1.613 . S
N285 C288 1.350 . S
N286 S284 1.610 . S
N286 C287 1.351 . S
C287 C281 1.428 . S
C287 N286 1.351 . S
C287 C288 1.434 . S
C288 C279 1.429 . S
C288 N285 1.350 . S
C288 C287 1.434 . S
C289 C290 1.369 . S
C289 C291 1.419 . S
C289 H293 0.930 . S
C290 C289 1.369 . S
C290 C299 1.429 . S
C291 C289 1.419 . S
C291 C292 1.363 . S
C291 H294 0.929 . S
C292 C291 1.363 . S
C292 C298 1.428 . S
H293 C289 0.930 . S
H294 C291 0.929 . S
S295 N296 1.613 . S
S295 N297 1.610 . S
N296 S295 1.613 . S
N296 C299 1.350 . S
N297 S295 1.610 . S
N297 C298 1.351 . S
C298 C292 1.428 . S
C298 N297 1.351 . S
C298 C299 1.434 . S
C299 C290 1.429 . S
C299 N296 1.350 . S
C299 C298 1.434 . S
C300 C301 1.369 1_554 S
C300 C302 1.419 1_565 S
C300 H304 0.930 . S
C301 C300 1.369 1_556 S
C301 C310 1.429 . S
C302 C300 1.419 1_545 S
C302 C303 1.363 1_554 S
C302 H305 0.929 . S
C303 C302 1.363 1_556 S
C303 C309 1.428 . S
H304 C300 0.930 . S
H305 C302 0.929 . S
S306 N307 1.613 . S
S306 N308 1.610 1_565 S
N307 S306 1.613 . S
N307 C310 1.350 . S
N308 S306 1.610 1_545 S
N308 C309 1.351 . S
C309 C303 1.428 . S
C309 N308 1.351 . S
C309 C310 1.434 1_545 S
C310 C301 1.429 . S
C310 N307 1.350 . S
C310 C309 1.434 1_565 S
C311 C312 1.369 . S
C311 C313 1.419 . S
C311 H315 0.930 . S
C312 C311 1.369 . S
C312 C321 1.429 . S
C313 C311 1.419 . S
C313 C314 1.363 . S
C313 H316 0.929 . S
C314 C313 1.363 . S
C314 C320 1.428 . S
H315 C311 0.930 . S
H316 C313 0.929 . S
S317 N318 1.613 . S
S317 N319 1.610 . S
N318 S317 1.613 . S
N318 C321 1.350 . S
N319 S317 1.610 . S
N319 C320 1.351 . S
C320 C314 1.428 . S
C320 N319 1.351 . S
C320 C321 1.434 . S
C321 C312 1.429 . S
C321 N318 1.350 . S
C321 C320 1.434 . S
C322 C323 1.369 . S
C322 C324 1.419 . S
C322 H326 0.930 . S
C323 C322 1.369 . S
C323 C332 1.429 1_556 S
C324 C322 1.419 . S
C324 C325 1.363 . S
C324 H327 0.929 . S
C325 C324 1.363 . S
C325 C331 1.428 1_556 S
H326 C322 0.930 . S
H327 C324 0.929 . S
S328 N329 1.613 . S
S328 N330 1.610 . S
N329 S328 1.613 . S
N329 C332 1.350 . S
N330 S328 1.610 . S
N330 C331 1.351 . S
C331 C325 1.428 1_554 S
C331 N330 1.351 . S
C331 C332 1.434 . S
C332 C323 1.429 1_554 S
C332 N329 1.350 . S
C332 C331 1.434 . S
C333 C334 1.369 . S
C333 C335 1.419 . S
C333 H337 0.930 . S
C334 C333 1.369 . S
C334 C343 1.429 1_654 S
C335 C333 1.419 . S
C335 C336 1.363 1_654 S
C335 H338 0.929 . S
C336 C335 1.363 1_456 S
C336 C342 1.428 . S
H337 C333 0.930 . S
H338 C335 0.929 . S
S339 N340 1.613 . S
S339 N341 1.610 . S
N340 S339 1.613 . S
N340 C343 1.350 . S
N341 S339 1.610 . S
N341 C342 1.351 . S
C342 C336 1.428 . S
C342 N341 1.351 . S
C342 C343 1.434 . S
C343 C334 1.429 1_456 S
C343 N340 1.350 . S
C343 C342 1.434 . S
C344 C345 1.369 . S
C344 C346 1.419 . S
C344 H348 0.930 . S
C345 C344 1.369 . S
C345 C354 1.429 . S
C346 C344 1.419 . S
C346 C347 1.363 . S
C346 H349 0.929 . S
C347 C346 1.363 . S
C347 C353 1.428 . S
H348 C344 0.930 . S
H349 C346 0.929 . S
S350 N351 1.613 . S
S350 N352 1.610 . S
N351 S350 1.613 . S
N351 C354 1.350 . S
N352 S350 1.610 . S
N352 C353 1.351 . S
C353 C347 1.428 . S
C353 N352 1.351 . S
C353 C354 1.434 . S
C354 C345 1.429 . S
C354 N351 1.350 . S
C354 C353 1.434 . S
C355 C356 1.369 . S
C355 C357 1.419 . S
C355 H359 0.930 . S
C356 C355 1.369 . S
C356 C365 1.429 1_556 S
C357 C355 1.419 . S
C357 C358 1.363 . S
C357 H360 0.929 . S
C358 C357 1.363 . S
C358 C364 1.428 1_556 S
H359 C355 0.930 . S
H360 C357 0.929 . S
S361 N362 1.613 . S
S361 N363 1.610 . S
N362 S361 1.613 . S
N362 C365 1.350 . S
N363 S361 1.610 . S
N363 C364 1.351 . S
C364 C358 1.428 1_554 S
C364 N363 1.351 . S
C364 C365 1.434 . S
C365 C356 1.429 1_554 S
C365 N362 1.350 . S
C365 C364 1.434 . S
C366 C367 1.369 . S
C366 C368 1.419 . S
C366 H370 0.930 . S
C367 C366 1.369 . S
C367 C376 1.429 . S
C368 C366 1.419 . S
C368 C369 1.363 . S
C368 H371 0.929 . S
C369 C368 1.363 . S
C369 C375 1.428 . S
H370 C366 0.930 . S
H371 C368 0.929 . S
S372 N373 1.613 . S
S372 N374 1.610 . S
N373 S372 1.613 . S
N373 C376 1.350 . S
N374 S372 1.610 . S
N374 C375 1.351 . S
C375 C369 1.428 . S
C375 N374 1.351 . S
C375 C376 1.434 . S
C376 C367 1.429 . S
C376 N373 1.350 . S
C376 C375 1.434 . S
C377 C378 1.369 . S
C377 C379 1.419 . S
C377 H381 0.930 . S
C378 C377 1.369 . S
C378 C387 1.429 1_556 S
C379 C377 1.419 . S
C379 C380 1.363 . S
C379 H382 0.929 . S
C380 C379 1.363 . S
C380 C386 1.428 . S
H381 C377 0.930 . S
H382 C379 0.929 . S
S383 N384 1.613 . S
S383 N385 1.610 . S
N384 S383 1.613 . S
N384 C387 1.350 . S
N385 S383 1.610 . S
N385 C386 1.351 1_554 S
C386 C380 1.428 . S
C386 N385 1.351 1_556 S
C386 C387 1.434 1_556 S
C387 C378 1.429 1_554 S
C387 N384 1.350 . S
C387 C386 1.434 1_554 S
C388 C389 1.369 1_456 S
C388 C390 1.419 . S
C388 H392 0.930 . S
C389 C388 1.369 1_654 S
C389 C398 1.429 . S
C390 C388 1.419 . S
C390 C391 1.363 1_556 S
C390 H393 0.929 . S
C391 C390 1.363 1_554 S
C391 C397 1.428 1_455 S
H392 C388 0.930 . S
H393 C390 0.929 . S
S394 N395 1.613 . S
S394 N396 1.610 . S
N395 S394 1.613 . S
N395 C398 1.350 . S
N396 S394 1.610 . S
N396 C397 1.351 . S
C397 C391 1.428 1_655 S
C397 N396 1.351 . S
C397 C398 1.434 . S
C398 C389 1.429 . S
C398 N395 1.350 . S
C398 C397 1.434 . S
C399 C400 1.369 . S
C399 C401 1.419 1_565 S
C399 H403 0.930 . S
C400 C399 1.369 . S
C400 C409 1.429 1_566 S
C401 C399 1.419 1_545 S
C401 C402 1.363 . S
C401 H404 0.929 . S
C402 C401 1.363 . S
C402 C408 1.428 1_556 S
H403 C399 0.930 . S
H404 C401 0.929 . S
S405 N406 1.609 1_545 S
S405 N407 1.610 . S
N406 S405 1.609 1_565 S
N406 C409 1.350 1_565 S
N407 S405 1.610 . S
N407 C408 1.351 . S
C408 C402 1.428 1_554 S
C408 N407 1.351 . S
C408 C409 1.434 . S
C409 C400 1.429 1_544 S
C409 N406 1.350 1_545 S
C409 C408 1.434 . S
C410 C411 1.369 . S
C410 C412 1.419 . S
C410 H414 0.930 . S
C411 C410 1.369 . S
C411 C420 1.429 . S
C412 C410 1.419 . S
C412 C413 1.363 . S
C412 H415 0.929 . S
C413 C412 1.363 . S
C413 C419 1.428 . S
H414 C410 0.930 . S
H415 C412 0.929 . S
S416 N417 1.613 . S
S416 N418 1.610 . S
N417 S416 1.613 . S
N417 C420 1.350 . S
N418 S416 1.610 . S
N418 C419 1.351 . S
C419 C413 1.428 . S
C419 N418 1.351 . S
C419 C420 1.434 . S
C420 C411 1.429 . S
C420 N417 1.350 . S
C420 C419 1.434 . S
C421 C422 1.369 . S
C421 C423 1.419 . S
C421 H425 0.930 . S
C422 C421 1.369 . S
C422 C431 1.429 . S
C423 C421 1.419 . S
C423 C424 1.363 . S
C423 H426 0.929 . S
C424 C423 1.363 . S
C424 C430 1.428 . S
H425 C421 0.930 . S
H426 C423 0.929 . S
S427 N428 1.613 . S
S427 N429 1.610 . S
N428 S427 1.613 . S
N428 C431 1.350 . S
N429 S427 1.610 . S
N429 C430 1.351 . S
C430 C424 1.428 . S
C430 N429 1.351 . S
C430 C431 1.434 . S
C431 C422 1.429 . S
C431 N428 1.350 . S
C431 C430 1.434 . S
C432 C433 1.369 . S
C432 C434 1.419 . S
C432 H436 0.930 . S
C433 C432 1.369 . S
C433 C442 1.429 . S
C434 C432 1.419 . S
C434 C435 1.363 . S
C434 H437 0.929 . S
C435 C434 1.363 . S
C435 C441 1.428 . S
H436 C432 0.930 . S
H437 C434 0.929 . S
S438 N439 1.613 . S
S438 N440 1.610 . S
N439 S438 1.613 . S
N439 C442 1.350 . S
N440 S438 1.610 . S
N440 C441 1.351 . S
C441 C435 1.428 . S
C441 N440 1.351 . S
C441 C442 1.434 . S
C442 C433 1.429 . S
C442 N439 1.350 . S
C442 C441 1.434 . S
C443 C444 1.369 . S
C443 C445 1.419 . S
C443 H447 0.930 . S
C444 C443 1.369 . S
C444 C453 1.429 . S
C445 C443 1.419 . S
C445 C446 1.363 . S
C445 H448 0.929 . S
C446 C445 1.363 . S
C446 C452 1.428 . S
H447 C443 0.930 . S
H448 C445 0.929 . S
S449 N450 1.613 . S
S449 N451 1.610 . S
N450 S449 1.613 . S
N450 C453 1.350 . S
N451 S449 1.610 . S
N451 C452 1.351 . S
C452 C446 1.428 . S
C452 N451 1.351 . S
C452 C453 1.434 . S
C453 C444 1.429 . S
C453 N450 1.350 . S
C453 C452 1.434 . S
C454 C455 1.369 . S
C454 C456 1.419 . S
C454 H458 0.930 . S
C455 C454 1.369 . S
C455 C464 1.429 . S
C456 C454 1.419 . S
C456 C457 1.363 . S
C456 H459 0.929 1_554 S
C457 C456 1.363 . S
C457 C463 1.428 . S
H458 C454 0.930 . S
H459 C456 0.929 1_556 S
S460 N461 1.613 . S
S460 N462 1.610 . S
N461 S460 1.613 . S
N461 C464 1.350 . S
N462 S460 1.610 . S
N462 C463 1.351 . S
C463 C457 1.428 . S
C463 N462 1.351 . S
C463 C464 1.434 . S
C464 C455 1.429 . S
C464 N461 1.350 . S
C464 C463 1.434 . S
C465 C466 1.369 . S
C465 C467 1.419 . S
C465 H469 0.930 . S
C466 C465 1.369 . S
C466 C475 1.429 . S
C467 C465 1.419 . S
C467 C468 1.363 . S
C467 H470 0.929 . S
C468 C467 1.363 . S
C468 C474 1.428 . S
H469 C465 0.930 . S
H470 C467 0.929 . S
S471 N472 1.613 . S
S471 N473 1.610 . S
N472 S471 1.613 . S
N472 C475 1.350 . S
N473 S471 1.610 . S
N473 C474 1.351 . S
C474 C468 1.428 . S
C474 N473 1.351 . S
C474 C475 1.434 . S
C475 C466 1.429 . S
C475 N472 1.350 . S
C475 C474 1.434 . S
C476 C477 1.369 . S
C476 C478 1.419 . S
C476 H480 0.930 . S
C477 C476 1.369 . S
C477 C486 1.429 1_655 S
C478 C476 1.419 . S
C478 C479 1.363 . S
C478 H481 0.929 . S
C479 C478 1.363 . S
C479 C485 1.428 1_655 S
H480 C476 0.930 . S
H481 C478 0.929 . S
S482 N483 1.613 . S
S482 N484 1.610 . S
N483 S482 1.613 . S
N483 C486 1.350 . S
N484 S482 1.610 . S
N484 C485 1.351 . S
C485 C479 1.428 1_455 S
C485 N484 1.351 . S
C485 C486 1.434 . S
C486 C477 1.429 1_455 S
C486 N483 1.350 . S
C486 C485 1.434 . S
C487 C488 1.369 . S
C487 C489 1.419 . S
C487 H491 0.930 1_565 S
C488 C487 1.369 . S
C488 C497 1.429 . S
C489 C487 1.419 . S
C489 C490 1.363 . S
C489 H492 0.929 1_565 S
C490 C489 1.363 . S
C490 C496 1.428 . S
H491 C487 0.930 1_545 S
H492 C489 0.929 1_545 S
S493 N494 1.613 . S
S493 N495 1.610 . S
N494 S493 1.613 . S
N494 C497 1.350 . S
N495 S493 1.610 . S
N495 C496 1.351 . S
C496 C490 1.428 . S
C496 N495 1.351 . S
C496 C497 1.434 . S
C497 C488 1.429 . S
C497 N494 1.350 . S
C497 C496 1.434 . S
C498 C499 1.369 . S
C498 C500 1.419 . S
C498 H502 0.930 . S
C499 C498 1.369 . S
C499 C508 1.429 . S
C500 C498 1.419 . S
C500 C501 1.363 . S
C500 H503 0.929 . S
C501 C500 1.363 . S
C501 C507 1.428 . S
H502 C498 0.930 . S
H503 C500 0.929 . S
S504 N505 1.613 . S
S504 N506 1.610 . S
N505 S504 1.613 . S
N505 C508 1.350 . S
N506 S504 1.610 . S
N506 C507 1.351 . S
C507 C501 1.428 . S
C507 N506 1.351 . S
C507 C508 1.434 . S
C508 C499 1.429 . S
C508 N505 1.350 . S
C508 C507 1.434 . S
C509 C510 1.369 . S
C509 C511 1.419 . S
C509 H513 0.930 . S
C510 C509 1.369 . S
C510 C519 1.429 . S
C511 C509 1.419 . S
C511 C512 1.363 . S
C511 H514 0.929 . S
C512 C511 1.363 . S
C512 C518 1.428 . S
H513 C509 0.930 . S
H514 C511 0.929 . S
S515 N516 1.613 . S
S515 N517 1.610 . S
N516 S515 1.613 . S
N516 C519 1.350 . S
N517 S515 1.610 . S
N517 C518 1.351 . S
C518 C512 1.428 . S
C518 N517 1.351 . S
C518 C519 1.434 . S
C519 C510 1.429 . S
C519 N516 1.350 . S
C519 C518 1.434 . S
C257 C76 1.657 . S
C259 C105 1.661 . S
C270 C145 1.396 . S
C268 C88 1.417 . S
C281 C194 1.425 . S
C279 C52 1.454 . S
C292 C225 1.786 . S
C290 C64 1.857 . S
C303 C114 1.661 . S
C301 C28 1.675 1_556 S
C312 C40 1.415 . S
C314 C154 1.405 . S
C323 C4 1.457 . S
C325 C185 1.427 . S
C334 C16 1.869 . S
C336 C234 1.789 . S
C347 C115 1.239 . S
C345 C69 1.077 . S
C358 C155 1.699 . S
C356 C81 1.499 . S
C369 C191 0.934 . S
C367 C93 0.954 . S
C378 C57 1.263 . S
C380 C235 1.446 . S
C389 C21 1.076 . S
C391 C106 1.238 1_554 S
C402 C146 1.701 . S
C400 C33 1.463 1_556 S
C413 C182 0.934 . S
C411 C45 0.952 . S
C422 C9 1.256 . S
C424 C226 1.446 . S
C433 C66 1.632 . S
C435 C111 1.661 . S
C444 C78 1.524 . S
C446 C151 1.480 . S
C457 C195 2.034 . S
C455 C90 1.839 . S
C468 C231 1.462 . S
C466 C54 1.486 . S
C477 C18 1.627 . S
C479 C102 1.660 . S
C490 C142 1.485 . S
C488 C30 1.532 . S
C501 C186 2.033 . S
C499 C42 1.837 . S
C510 C6 1.503 . S
C512 C222 1.458 . S
