# Generated by pormake.
# Topology anh, (6,3)-cn, num edge types: 1
# Building blocks:
#     Node 0, Type 0, BuildingBlock: BETDAH_clean_sbu_0, # of connection points: 6
#     Node 1, Type 0, BuildingBlock: BETDAH_clean_sbu_0, # of connection points: 6
#     Node 2, Type 0, BuildingBlock: BETDAH_clean_sbu_0, # of connection points: 6
#     Node 3, Type 1, BuildingBlock: VETTIZ_charged_linker_0, # of connection points: 3
#     Node 4, Type 1, BuildingBlock: VETTIZ_charged_linker_0, # of connection points: 3
#     Node 5, Type 1, BuildingBlock: VETTIZ_charged_linker_0, # of connection points: 3
#     Node 6, Type 1, BuildingBlock: VETTIZ_charged_linker_0, # of connection points: 3
#     Node 7, Type 1, BuildingBlock: VETTIZ_charged_linker_0, # of connection points: 3
#     Node 8, Type 1, BuildingBlock: VETTIZ_charged_linker_0, # of connection points: 3
#     Edge 9, Type (0, 1), BuildingBlock: TEMPAE_clean_linker_10, # of connection points: 2
#     Edge 10, Type (0, 1), BuildingBlock: TEMPAE_clean_linker_10, # of connection points: 2
#     Edge 11, Type (0, 1), BuildingBlock: TEMPAE_clean_linker_10, # of connection points: 2
#     Edge 12, Type (0, 1), BuildingBlock: TEMPAE_clean_linker_10, # of connection points: 2
#     Edge 13, Type (0, 1), BuildingBlock: TEMPAE_clean_linker_10, # of connection points: 2
#     Edge 14, Type (0, 1), BuildingBlock: TEMPAE_clean_linker_10, # of connection points: 2
#     Edge 15, Type (0, 1), BuildingBlock: TEMPAE_clean_linker_10, # of connection points: 2
#     Edge 16, Type (0, 1), BuildingBlock: TEMPAE_clean_linker_10, # of connection points: 2
#     Edge 17, Type (0, 1), BuildingBlock: TEMPAE_clean_linker_10, # of connection points: 2
#     Edge 18, Type (0, 1), BuildingBlock: TEMPAE_clean_linker_10, # of connection points: 2
#     Edge 19, Type (0, 1), BuildingBlock: TEMPAE_clean_linker_10, # of connection points: 2
#     Edge 20, Type (0, 1), BuildingBlock: TEMPAE_clean_linker_10, # of connection points: 2
#     Edge 21, Type (0, 1), BuildingBlock: TEMPAE_clean_linker_10, # of connection points: 2
#     Edge 22, Type (0, 1), BuildingBlock: TEMPAE_clean_linker_10, # of connection points: 2
#     Edge 23, Type (0, 1), BuildingBlock: TEMPAE_clean_linker_10, # of connection points: 2
#     Edge 24, Type (0, 1), BuildingBlock: TEMPAE_clean_linker_10, # of connection points: 2
#     Edge 25, Type (0, 1), BuildingBlock: TEMPAE_clean_linker_10, # of connection points: 2
#     Edge 26, Type (0, 1), BuildingBlock: TEMPAE_clean_linker_10, # of connection points: 2
# Relax obj value: 0.185
# Max RMSD: 0.212
# Mean RMSD: 0.159
data_MOF--net-anh--node1-BETDAH_clean_sbu_0--node2-VETTIZ_charged_linker_0--edge1-TEMPAE_clean_linker_10
_symmetry_space_group_name_H-M    P1
_symmetry_Int_Tables_number       1
_symmetry_cell_setting            triclinic
loop_
_symmetry_equiv_pos_as_xyz
'x, y, z'
_cell_length_a     37.138598
_cell_length_b     43.848345
_cell_length_c     67.396967
_cell_angle_alpha  92.878299
_cell_angle_beta   88.981678
_cell_angle_gamma 128.7872
loop_
_atom_site_label
_atom_site_type_symbol
_atom_site_fract_x
_atom_site_fract_y
_atom_site_fract_z
_atom_type_partial_charge
Ho0 Ho 0.10704 0.51342 0.14044 0.0
Ho1 Ho 1.05248 0.53743 0.15829 0.0
C2 C 0.15781 0.60688 0.15159 0.0
C3 C 0.16405 0.50984 0.12052 0.0
C4 C 0.21236 0.52828 0.12522 0.0
C5 C 0.24379 0.53864 0.11004 0.0
C6 C 0.28918 0.55444 0.11472 0.0
C7 C 0.30353 0.55961 0.13468 0.0
C8 C 0.27231 0.55094 0.14982 0.0
C9 C 0.22731 0.53577 0.14513 0.0
C10 C 0.103 0.51347 0.18042 0.0
C11 C 1.00235 0.44489 0.14773 0.0
C12 C 0.99291 0.53694 0.17878 0.0
C13 C 0.9433 0.50432 0.18014 0.0
C14 C 0.91735 0.50256 0.19606 0.0
C15 C 0.87009 0.47083 0.19698 0.0
C16 C 0.84872 0.44022 0.18221 0.0
C17 C 0.87534 0.44168 0.16668 0.0
C18 C 0.92195 0.47359 0.16554 0.0
C19 C 0.05865 0.53828 0.11828 0.0
O20 O 0.15749 0.5804 0.14086 0.0
O21 O 0.12185 0.59644 0.16235 0.0
O22 O 0.13381 0.48291 0.13251 0.0
O23 O 0.15586 0.53388 0.11652 0.0
O24 O 0.10448 0.48906 0.16962 0.0
O25 O 0.1078 0.53835 0.16971 0.0
O26 O 1.00548 0.4712 0.15982 0.0
O27 O 1.03587 0.45583 0.1352 0.0
O28 O 1.00656 0.55185 0.16131 0.0
O29 O 1.01976 0.53074 0.18643 0.0
O30 O 0.05892 0.56369 0.12914 0.0
O31 O 1.0521 0.51261 0.12896 0.0
H32 H 0.23303 0.53385 0.0946 0.0
H33 H 0.31266 0.56164 0.1027 0.0
H34 H 0.28179 0.55407 0.16532 0.0
H35 H 0.20374 0.52873 0.15711 0.0
H36 H 0.93341 0.52589 0.20754 0.0
H37 H 0.85006 0.47049 0.20898 0.0
H38 H 0.8596 0.41907 0.15482 0.0
H39 H 0.94112 0.47456 0.15297 0.0
Ho40 Ho 0.60342 0.01915 0.48394 0.0
Ho41 Ho 0.54364 0.0408 0.47189 0.0
C42 C 0.49208 0.95033 0.47595 0.0
C43 C 0.63732 0.99015 0.50081 0.0
C44 C 0.62581 0.9514 0.5021 0.0
C45 C 0.6283 0.93963 0.52064 0.0
C46 C 0.61903 0.90366 0.52227 0.0
C47 C 0.60729 0.87876 0.50535 0.0
C48 C 0.60425 0.89038 0.48679 0.0
C49 C 0.61318 0.92629 0.48519 0.0
C50 C 0.59771 0.02419 0.4447 0.0
C51 C 0.65563 0.10929 0.47854 0.0
C52 C 0.51051 0.07136 0.45615 0.0
C53 C 0.51899 0.10874 0.46015 0.0
C54 C 0.51011 0.12477 0.44538 0.0
C55 C 0.51757 0.16005 0.4493 0.0
C56 C 0.53371 0.17965 0.46813 0.0
C57 C 0.54322 0.16371 0.48277 0.0
C58 C 0.53617 0.12872 0.47879 0.0
C59 C 0.55171 0.03827 0.51142 0.0
O60 O 0.53004 0.96175 0.48542 0.0
O61 O 0.4914 0.97554 0.46628 0.0
O62 O 0.6507 0.00611 0.48358 0.0
O63 O 0.60928 0.99473 0.50969 0.0
O64 O 0.63465 0.03428 0.45354 0.0
O65 O 0.56482 0.00931 0.45659 0.0
O66 O 0.61705 0.0976 0.46957 0.0
O67 O 0.65703 0.08461 0.48835 0.0
O68 O 0.49019 0.04661 0.4703 0.0
O69 O 0.545 0.07396 0.44864 0.0
O70 O 0.51495 0.02902 0.50285 0.0
O71 O 0.5832 0.05149 0.49896 0.0
H72 H 0.63795 0.95852 0.53387 0.0
H73 H 0.62219 0.89578 0.53675 0.0
H74 H 0.59487 0.87165 0.47353 0.0
H75 H 0.61056 0.9345 0.47071 0.0
H76 H 0.49712 0.10988 0.43086 0.0
H77 H 0.50983 0.17159 0.43777 0.0
H78 H 0.55639 0.17845 0.4973 0.0
H79 H 0.54388 0.11712 0.49031 0.0
Ho80 Ho 0.62005 0.56734 0.83083 0.0
Ho81 Ho 0.55406 0.48044 0.8362 0.0
C82 C 0.50728 0.52258 0.83558 0.0
C83 C 0.66075 0.63692 0.81862 0.0
C84 C 0.64956 0.66349 0.81579 0.0
C85 C 0.6509 0.67537 0.79665 0.0
C86 C 0.64261 0.70185 0.79367 0.0
C87 C 0.63312 0.71733 0.8098 0.0
C88 C 0.63136 0.70517 0.82896 0.0
C89 C 0.63936 0.67845 0.83193 0.0
C90 C 0.60833 0.5458 0.86845 0.0
C91 C 0.66764 0.5258 0.83241 0.0
C92 C 0.51526 0.41118 0.84825 0.0
C93 C 0.52435 0.38295 0.84545 0.0
C94 C 0.51875 0.36089 0.86132 0.0
C95 C 0.52681 0.33373 0.85881 0.0
C96 C 0.54047 0.32793 0.8403 0.0
C97 C 0.5466 0.35058 0.82451 0.0
C98 C 0.53895 0.37794 0.82709 0.0
C99 C 0.56664 0.50119 0.79828 0.0
O100 O 0.54833 0.55303 0.82898 0.0
O101 O 0.50239 0.49188 0.84189 0.0
O102 O 0.66399 0.62996 0.83689 0.0
O103 O 0.6399 0.6056 0.80664 0.0
O104 O 0.64791 0.5749 0.86167 0.0
O105 O 0.57711 0.53116 0.85539 0.0
O106 O 0.62522 0.49363 0.83656 0.0
O107 O 0.67419 0.55822 0.82801 0.0
O108 O 0.50127 0.41772 0.83251 0.0
O109 O 0.54603 0.4433 0.85887 0.0
O110 O 0.5273 0.47179 0.80505 0.0
O111 O 0.5976 0.51641 0.81154 0.0
H112 H 0.65901 0.66456 0.78398 0.0
H113 H 0.64483 0.711 0.77876 0.0
H114 H 0.62373 0.71628 0.84166 0.0
H115 H 0.63797 0.66987 0.84689 0.0
H116 H 0.50803 0.36464 0.87568 0.0
H117 H 0.5225 0.31739 0.87141 0.0
H118 H 0.55638 0.34666 0.80996 0.0
H119 H 0.54401 0.39489 0.81464 0.0
C120 C 0.69294 0.13418 0.16949 0.0
C121 C 0.73041 0.17001 0.17905 0.0
C122 C 0.73184 0.17365 0.19992 0.0
C123 C 0.66102 0.10711 0.20173 0.0
C124 C 0.65867 0.10284 0.18121 0.0
C125 C 0.61684 0.06171 0.17424 0.0
H126 H 0.42755 0.87922 0.2018 0.0
C127 C 0.62116 0.07005 0.20989 0.0
C128 C 0.5945 0.04282 0.19395 0.0
H129 H 0.4717 0.91313 0.14172 0.0
H130 H 0.53503 0.97986 0.15409 0.0
H131 H 0.52615 0.92119 0.22045 0.0
H132 H 0.43843 0.9529 0.2158 0.0
H133 H 0.46718 0.97381 0.23881 0.0
H134 H 0.43005 0.92124 0.23439 0.0
H135 H 0.4743 0.89931 0.23437 0.0
H136 H 0.52922 0.94284 0.24362 0.0
C137 C 0.63406 0.04164 0.163 0.0
C138 C 0.5852 0.06469 0.16147 0.0
C139 C 0.60593 0.06065 0.28506 0.0
C140 C 0.57193 0.03089 0.29723 0.0
C141 C 0.53249 0.9959 0.28835 0.0
C142 C 0.52744 0.99016 0.26766 0.0
C143 C 0.56209 0.0198 0.25561 0.0
C144 C 0.60001 0.0546 0.26434 0.0
C145 C 0.63218 0.08335 0.24916 0.0
C146 C 0.60781 0.05964 0.22986 0.0
C147 C 0.56728 0.0224 0.23379 0.0
C148 C 0.67952 0.09247 0.25184 0.0
C149 C 0.6336 0.11949 0.25185 0.0
C150 C 0.45103 0.90072 0.1912 0.0
C151 C 0.44504 0.8905 0.17081 0.0
C152 C 0.4757 0.92007 0.15757 0.0
C153 C 0.51257 0.95869 0.16478 0.0
C154 C 0.51867 0.96792 0.18544 0.0
C155 C 0.48743 0.93885 0.19808 0.0
C156 C 0.49742 0.95255 0.21947 0.0
C157 C 0.54049 0.99453 0.21795 0.0
C158 C 0.55352 1.00415 0.19803 0.0
C159 C 0.50703 0.92772 0.23022 0.0
C160 C 0.45621 0.94984 0.22772 0.0
H161 H 0.7014 0.14792 0.22701 0.0
H162 H 0.69096 0.13049 0.15344 0.0
H163 H 0.5796 0.08447 0.16909 0.0
H164 H 0.5507 0.03614 0.15885 0.0
H165 H 0.60097 0.07667 0.14686 0.0
H166 H 0.66236 0.04591 0.17158 0.0
H167 H 0.64767 0.0542 0.14826 0.0
H168 H 0.60684 0.00974 0.16078 0.0
H169 H 0.63634 0.08805 0.29152 0.0
H170 H 0.50603 0.9725 0.29747 0.0
H171 H 0.49699 0.96254 0.2619 0.0
H172 H 0.67476 0.06583 0.25581 0.0
H173 H 0.70049 0.1153 0.26391 0.0
H174 H 0.69988 0.10175 0.23813 0.0
H175 H 0.60116 0.11151 0.25841 0.0
H176 H 0.63618 0.13209 0.23758 0.0
H177 H 0.66262 0.14267 0.26185 0.0
H178 H 0.75977 0.20087 0.20762 0.0
C179 C 0.69763 0.14274 0.21121 0.0
C180 C 0.5884 0.62214 0.53024 0.0
C181 C 0.59232 0.65211 0.54149 0.0
C182 C 0.59399 0.65271 0.56237 0.0
C183 C 0.59053 0.59571 0.56067 0.0
C184 C 0.588 0.59443 0.54017 0.0
C185 C 0.58604 0.56135 0.53083 0.0
H186 H 0.59544 0.41333 0.54351 0.0
C187 C 0.59182 0.56443 0.56649 0.0
C188 C 0.58972 0.54427 0.5491 0.0
H189 H 0.57277 0.44597 0.48851 0.0
H190 H 0.57762 0.4981 0.50621 0.0
H191 H 0.67326 0.49861 0.56167 0.0
H192 H 0.52583 0.41961 0.56875 0.0
H193 H 0.55159 0.43953 0.59242 0.0
H194 H 0.56355 0.41106 0.57821 0.0
H195 H 0.64574 0.45809 0.57751 0.0
H196 H 0.66332 0.50526 0.58648 0.0
C197 C 0.62815 0.579 0.51721 0.0
C198 C 0.5388 0.53198 0.51994 0.0
C199 C 0.59934 0.54615 0.63974 0.0
C200 C 0.60521 0.52224 0.64997 0.0
C201 C 0.61167 0.49794 0.63875 0.0
C202 C 0.61045 0.49634 0.61793 0.0
C203 C 0.60328 0.51962 0.60803 0.0
C204 C 0.59919 0.54477 0.61894 0.0
C205 C 0.59563 0.56968 0.60593 0.0
C206 C 0.59599 0.55392 0.58539 0.0
C207 C 0.59983 0.52428 0.58673 0.0
C208 C 0.63893 0.61312 0.61001 0.0
C209 C 0.54899 0.56118 0.61004 0.0
C210 C 0.59217 0.43205 0.53522 0.0
C211 C 0.58426 0.42588 0.51459 0.0
C212 C 0.57893 0.45022 0.50443 0.0
C213 C 0.58176 0.48042 0.51473 0.0
C214 C 0.58944 0.48602 0.53544 0.0
C215 C 0.5942 0.46177 0.54529 0.0
C216 C 0.59983 0.47032 0.56736 0.0
C217 C 0.59769 0.50374 0.56924 0.0
C218 C 0.59206 0.51323 0.55051 0.0
C219 C 0.6478 0.48352 0.57376 0.0
C220 C 0.55836 0.43331 0.57738 0.0
H221 H 0.59436 0.62694 0.58789 0.0
H222 H 0.58697 0.62097 0.51416 0.0
H223 H 0.51114 0.53002 0.52808 0.0
H224 H 0.52708 0.50176 0.51905 0.0
H225 H 0.53989 0.54112 0.50472 0.0
H226 H 0.65997 0.60531 0.52471 0.0
H227 H 0.623 0.5881 0.50315 0.0
H228 H 0.63561 0.5587 0.51353 0.0
H229 H 0.59421 0.56523 0.64763 0.0
H230 H 0.61785 0.48011 0.64602 0.0
H231 H 0.61506 0.47694 0.61034 0.0
H232 H 0.66807 0.61567 0.61654 0.0
H233 H 0.63128 0.62863 0.62054 0.0
H234 H 0.65308 0.62939 0.59623 0.0
H235 H 0.52086 0.52923 0.61138 0.0
H236 H 0.53768 0.56968 0.59795 0.0
H237 H 0.55081 0.57639 0.62414 0.0
H238 H 0.59615 0.67506 0.57132 0.0
C239 C 0.59297 0.62471 0.57198 0.0
C240 C 0.19801 0.52701 0.84409 0.0
C241 C 0.23042 0.52619 0.85523 0.0
C242 C 0.22347 0.52197 0.8758 0.0
C243 C 0.15978 0.52448 0.87474 0.0
C244 C 0.16244 0.52599 0.85431 0.0
C245 C 0.12319 0.52597 0.84643 0.0
H246 H 0.9562 0.54776 0.87686 0.0
C247 C 0.12353 0.52704 0.88196 0.0
C248 C 0.10049 0.5278 0.86562 0.0
H249 H 0.96147 0.51253 0.81671 0.0
H250 H 1.02836 0.51593 0.82633 0.0
H251 H 0.95273 0.48533 0.8935 0.0
H252 H 0.06151 0.60755 0.88714 0.0
H253 H 0.07134 0.59841 0.91067 0.0
H254 H 1.01749 0.5889 0.90544 0.0
H255 H 0.96079 0.52181 0.91061 0.0
H256 H 0.98697 0.49914 0.91469 0.0
C257 C 0.0885 0.48767 0.83408 0.0
C258 C 0.14337 0.56185 0.83413 0.0
C259 C 0.10871 0.53594 0.95718 0.0
C260 C 0.08206 0.54211 0.96909 0.0
C261 C 1.05508 0.54988 0.95982 0.0
C262 C 1.0532 0.55005 0.93915 0.0
C263 C 0.07818 0.54196 0.92731 0.0
C264 C 0.10615 0.53602 0.93639 0.0
C265 C 0.13173 0.5297 0.92145 0.0
C266 C 0.11317 0.53142 0.90183 0.0
C267 C 0.08143 0.53801 0.90544 0.0
C268 C 0.11696 0.48829 0.92417 0.0
C269 C 0.18421 0.56417 0.92468 0.0
C270 C 0.97 0.53974 0.86538 0.0
C271 C 0.9509 0.52869 0.84606 0.0
C272 C 0.97393 0.52083 0.83195 0.0
C273 C 1.01269 0.5225 0.83751 0.0
C274 C 1.02903 0.5316 0.85751 0.0
C275 C 1.00638 0.53954 0.87074 0.0
C276 C 1.02152 0.54421 0.89166 0.0
C277 C 1.05712 0.53805 0.88949 0.0
C278 C 0.06436 0.53184 0.86941 0.0
C279 C 0.97858 0.51131 0.90338 0.0
C280 C 1.04386 0.58679 0.89931 0.0
H281 H 0.1878 0.51833 0.90104 0.0
H282 H 0.20088 0.52921 0.82813 0.0
H283 H 0.16892 0.58928 0.84318 0.0
H284 H 0.11562 0.56256 0.82907 0.0
H285 H 0.161 0.56113 0.82084 0.0
H286 H 0.07476 0.46195 0.84308 0.0
H287 H 0.10538 0.48582 0.82082 0.0
H288 H 0.05891 0.48564 0.82896 0.0
H289 H 0.13018 0.53024 0.96383 0.0
H290 H 1.0352 0.55581 0.96863 0.0
H291 H 1.03164 0.55597 0.9333 0.0
H292 H 0.08031 0.46756 0.92879 0.0
H293 H 0.13849 0.48911 0.93575 0.0
H294 H 0.11818 0.47454 0.91023 0.0
H295 H 0.19054 0.59042 0.93213 0.0
H296 H 0.20299 0.57491 0.91056 0.0
H297 H 0.20083 0.5559 0.9341 0.0
H298 H 0.24533 0.51961 0.88489 0.0
C299 C 0.1893 0.52116 0.88536 0.0
C300 C 0.96981 0.41759 0.45633 0.0
C301 C 0.93556 0.3808 0.44649 0.0
C302 C 0.93314 0.37842 0.42561 0.0
C303 C 0.99892 0.44714 0.42435 0.0
C304 C 1.00151 0.45049 0.44488 0.0
C305 C 1.04168 0.49204 0.45217 0.0
H306 H 0.22741 0.67707 0.42579 0.0
C307 C 1.03661 0.48543 0.41648 0.0
C308 C 0.06231 0.51246 0.43262 0.0
H309 H 0.18748 0.63983 0.48576 0.0
H310 H 0.12112 0.57458 0.47295 0.0
H311 H 0.21472 0.60434 0.40921 0.0
H312 H 0.12809 0.63763 0.40938 0.0
H313 H 0.11889 0.61417 0.386 0.0
H314 H 0.1761 0.65792 0.3931 0.0
H315 H 0.22323 0.63909 0.3927 0.0
H316 H 0.1864 0.58732 0.38602 0.0
C317 C 0.07575 0.49078 0.46409 0.0
C318 C 1.02229 0.50938 0.46439 0.0
C319 C 1.0558 0.49621 0.34145 0.0
C320 C 0.08853 0.52735 0.32955 0.0
C321 C 0.12269 0.56449 0.33874 0.0
C322 C 0.12496 0.57043 0.3594 0.0
C323 C 0.09283 0.53888 0.37117 0.0
C324 C 0.05874 0.50266 0.36217 0.0
C325 C 1.02779 0.47268 0.37712 0.0
C326 C 1.04931 0.49689 0.39658 0.0
C327 C 0.08729 0.53544 0.39293 0.0
C328 C 1.03231 0.4398 0.37481 0.0
C329 C 0.97824 0.45884 0.37372 0.0
C330 C 0.20487 0.65496 0.43631 0.0
C331 C 0.21345 0.6636 0.45678 0.0
C332 C 0.18196 0.63396 0.46984 0.0
C333 C 0.14362 0.59608 0.46239 0.0
C334 C 0.13654 0.58785 0.44167 0.0
C335 C 0.16709 0.6176 0.4292 0.0
C336 C 0.1558 0.60522 0.40771 0.0
C337 C 0.11345 0.56292 0.40896 0.0
C338 C 0.10152 0.55208 0.42882 0.0
C339 C 0.19705 0.60934 0.39824 0.0
C340 C 0.14439 0.63003 0.39839 0.0
H341 H 0.96014 0.40665 0.39877 0.0
H342 H 0.97241 0.42039 0.4724 0.0
H343 H 0.99295 0.50419 0.45627 0.0
H344 H 1.04818 0.54135 0.46716 0.0
H345 H 1.00952 0.49553 0.47892 0.0
H346 H 0.08323 0.47284 0.45573 0.0
H347 H 0.06103 0.47756 0.47861 0.0
H348 H 0.10927 0.52006 0.46686 0.0
H349 H 1.02921 0.46726 0.33484 0.0
H350 H 0.14775 0.58913 0.3299 0.0
H351 H 0.15207 0.59939 0.36535 0.0
H352 H 0.06783 0.45184 0.37035 0.0
H353 H 1.00794 0.41715 0.36325 0.0
H354 H 1.02694 0.42551 0.38881 0.0
H355 H 0.97906 0.48262 0.36796 0.0
H356 H 0.95848 0.45105 0.38759 0.0
H357 H 0.9585 0.43353 0.36275 0.0
H358 H 0.90677 0.35088 0.41767 0.0
C359 C 0.96425 0.41107 0.41459 0.0
C360 C 0.60316 0.94646 0.78027 0.0
C361 C 0.6108 0.92288 0.76918 0.0
C362 C 0.61294 0.92444 0.74833 0.0
C363 C 0.60022 0.97229 0.74977 0.0
C364 C 0.59832 0.97116 0.77025 0.0
C365 C 0.59129 0.99919 0.77948 0.0
H366 H 0.56265 0.13567 0.76543 0.0
C367 C 0.5936 1.00042 0.74379 0.0
C368 C 0.58844 0.01655 0.76112 0.0
H369 H 0.56859 0.09547 0.82161 0.0
H370 H 0.57881 0.05151 0.80427 0.0
H371 H 0.6442 0.14093 0.74473 0.0
H372 H 0.49654 0.05357 0.74438 0.0
H373 H 0.51337 0.04967 0.72054 0.0
H374 H 0.52496 0.09485 0.72905 0.0
H375 H 0.60573 0.14609 0.73264 0.0
H376 H 0.62663 0.12287 0.72001 0.0
C377 C 0.63412 0.03037 0.79266 0.0
C378 C 0.54534 0.97527 0.79083 0.0
C379 C 0.59036 0.02081 0.6703 0.0
C380 C 0.58241 0.04343 0.6601 0.0
C381 C 0.5742 0.06658 0.67126 0.0
C382 C 0.57442 0.06759 0.69203 0.0
C383 C 0.58244 0.04491 0.70197 0.0
C384 C 0.58986 0.02179 0.69113 0.0
C385 C 0.59606 0.99858 0.70428 0.0
C386 C 0.59136 0.01181 0.72478 0.0
C387 C 0.58377 0.03912 0.72327 0.0
C388 C 0.64524 0.01153 0.70105 0.0
C389 C 0.55628 0.95445 0.6994 0.0
C390 C 0.56557 0.11716 0.77411 0.0
C391 C 0.56435 0.11893 0.79495 0.0
C392 C 0.56959 0.09488 0.80554 0.0
C393 C 0.57535 0.06927 0.79544 0.0
C394 C 0.57607 0.06777 0.77452 0.0
C395 C 0.57114 0.09157 0.76432 0.0
C396 C 0.57213 0.08637 0.74223 0.0
C397 C 0.57916 0.05589 0.74067 0.0
C398 C 0.58148 0.04485 0.75956 0.0
C399 C 0.61407 0.12604 0.73431 0.0
C400 C 0.52457 0.07057 0.73344 0.0
H401 H 0.60961 0.94846 0.72273 0.0
H402 H 0.60166 0.94608 0.79632 0.0
H403 H 0.51807 0.94806 0.78203 0.0
H404 H 0.53154 0.99119 0.79356 0.0
H405 H 0.54951 0.96659 0.80529 0.0
H406 H 0.66632 0.03921 0.78538 0.0
H407 H 0.63219 0.01878 0.80727 0.0
H408 H 0.63879 0.05771 0.79517 0.0
H409 H 0.59705 1.00281 0.66231 0.0
H410 H 0.56679 0.08356 0.66393 0.0
H411 H 0.56804 0.0859 0.69952 0.0
H412 H 0.67026 0.04328 0.6982 0.0
H413 H 0.64578 0.99514 0.68809 0.0
H414 H 0.65948 0.00817 0.71425 0.0
H415 H 0.52395 0.94935 0.69527 0.0
H416 H 0.54674 0.93611 0.71222 0.0
H417 H 0.56512 0.94314 0.68674 0.0
H418 H 0.61811 0.90622 0.73944 0.0
C419 C 0.6077 0.94887 0.73861 0.0
C420 C 0.5619 0.35575 0.12667 0.0
C421 C 0.57348 0.33509 0.11558 0.0
C422 C 0.56905 0.33221 0.09469 0.0
C423 C 0.54954 0.37567 0.09631 0.0
C424 C 0.55064 0.37609 0.11681 0.0
C425 C 0.54441 0.40405 0.12652 0.0
H426 H 0.52387 0.54492 0.11719 0.0
C427 C 0.5429 0.40407 0.09079 0.0
C428 C 0.53961 0.42056 0.10849 0.0
H429 H 0.52592 0.49779 0.17155 0.0
H430 H 0.53366 0.45375 0.15254 0.0
H431 H 0.60432 0.54476 0.0928 0.0
H432 H 0.45641 0.47036 0.09609 0.0
H433 H 0.46725 0.45962 0.07235 0.0
H434 H 0.48687 0.50847 0.07881 0.0
H435 H 0.56904 0.55752 0.08567 0.0
H436 H 0.58025 0.53189 0.06856 0.0
C437 C 0.58863 0.43576 0.13902 0.0
C438 C 0.49942 0.38011 0.13861 0.0
C439 C 0.55595 0.44006 0.01871 0.0
C440 C 0.55083 0.46551 0.00965 0.0
C441 C 0.53527 0.4828 0.02123 0.0
C442 C 0.52862 0.47761 0.04159 0.0
C443 C 0.53704 0.45451 0.05063 0.0
C444 C 0.54823 0.43462 0.03918 0.0
C445 C 0.55136 0.40845 0.05143 0.0
C446 C 0.54232 0.4176 0.07216 0.0
C447 C 0.53536 0.44549 0.07152 0.0
C448 C 0.60085 0.42162 0.04969 0.0
C449 C 0.51279 0.36536 0.04422 0.0
C450 C 0.52782 0.52624 0.12511 0.0
C451 C 0.52578 0.52565 0.14592 0.0
C452 C 0.52832 0.49923 0.15553 0.0
C453 C 0.53234 0.47351 0.14444 0.0
C454 C 0.53334 0.47401 0.12354 0.0
C455 C 0.53114 0.50019 0.1143 0.0
C456 C 0.52971 0.49538 0.09207 0.0
C457 C 0.53259 0.46243 0.08935 0.0
C458 C 0.53484 0.45012 0.10777 0.0
C459 C 0.57287 0.53434 0.08419 0.0
C460 C 0.4829 0.48306 0.0843 0.0
H461 H 0.5559 0.35029 0.06905 0.0
H462 H 0.56597 0.35936 0.1427 0.0
H463 H 0.47241 0.35144 0.13076 0.0
H464 H 0.48372 0.39468 0.14055 0.0
H465 H 0.50562 0.37405 0.15343 0.0
H466 H 0.61994 0.44268 0.13173 0.0
H467 H 0.58698 0.42569 0.15405 0.0
H468 H 0.59532 0.46408 0.14059 0.0
H469 H 0.56692 0.42559 0.01028 0.0
H470 H 0.52862 0.50087 0.0146 0.0
H471 H 0.51788 0.49237 0.04953 0.0
H472 H 0.62684 0.45412 0.05117 0.0
H473 H 0.6056 0.41192 0.03503 0.0
H474 H 0.60979 0.41067 0.06143 0.0
H475 H 0.4821 0.36137 0.03849 0.0
H476 H 0.49939 0.34485 0.05635 0.0
H477 H 0.52499 0.35598 0.03205 0.0
H478 H 0.57775 0.31639 0.08584 0.0
C479 C 0.55686 0.35223 0.08499 0.0
C480 C 0.36413 0.55231 0.12822 0.0
C481 C 0.34859 0.56936 0.13974 0.0
C482 C 0.40234 0.55568 0.13423 0.0
C483 C 0.42547 0.57628 0.15243 0.0
C484 C 0.41184 0.59559 0.16359 0.0
C485 C 0.37352 0.59195 0.15708 0.0
C486 C 0.4162 0.53516 0.12156 0.0
C487 C 0.43569 0.6182 0.18292 0.0
C488 C 0.47182 0.52662 0.16752 0.0
C489 C 0.5124 0.54747 0.15651 0.0
C490 C 0.44578 0.53969 0.16948 0.0
C491 C 0.46087 0.57394 0.16003 0.0
C492 C 0.5061 0.59883 0.15253 0.0
C493 C 0.53163 0.58526 0.15089 0.0
C494 C 0.39871 0.51343 0.17864 0.0
C495 C 0.5244 0.63657 0.14324 0.0
H496 H 0.3449 0.53436 0.11498 0.0
H497 H 0.36229 0.60587 0.16592 0.0
H498 H 0.45348 0.55593 0.11811 0.0
H499 H 0.41037 0.51114 0.12977 0.0
H500 H 0.39631 0.52243 0.10731 0.0
H501 H 0.43287 0.6418 0.18582 0.0
H502 H 0.4187 0.59799 0.19527 0.0
H503 H 0.47273 0.63139 0.18311 0.0
H504 H 0.45722 0.49772 0.17226 0.0
H505 H 0.56387 0.60199 0.14291 0.0
H506 H 0.37212 0.49572 0.16668 0.0
H507 H 0.39077 0.53099 0.18697 0.0
H508 H 0.3962 0.49306 0.18885 0.0
H509 H 0.51125 0.63003 0.12768 0.0
H510 H 0.56276 0.65684 0.14297 0.0
H511 H 0.51258 0.65145 0.15134 0.0
C512 C 0.7011 0.17375 0.46232 0.0
C513 C 0.69799 0.15096 0.47721 0.0
C514 C 0.74143 0.21246 0.46002 0.0
C515 C 0.7797 0.22944 0.47316 0.0
C516 C 0.77625 0.20704 0.48866 0.0
C517 C 0.73571 0.168 0.49037 0.0
C518 C 0.74358 0.23474 0.44305 0.0
C519 C 0.81573 0.2241 0.50322 0.0
C520 C 0.8953 0.30981 0.45069 0.0
C521 C 0.90171 0.34395 0.45704 0.0
C522 C 0.8571 0.2727 0.45665 0.0
C523 C 0.82427 0.26931 0.46949 0.0
C524 C 0.83231 0.30394 0.47714 0.0
C525 C 0.87091 0.34089 0.47079 0.0
C526 C 0.85029 0.2369 0.44804 0.0
C527 C 0.79871 0.30183 0.49111 0.0
H528 H 0.67235 0.16094 0.45199 0.0
H529 H 0.7336 0.15083 0.50204 0.0
H530 H 0.75244 0.26292 0.44875 0.0
H531 H 0.7712 0.24175 0.43273 0.0
H532 H 0.71042 0.21793 0.43453 0.0
H533 H 0.80617 0.20442 0.51551 0.0
H534 H 0.8456 0.2294 0.49541 0.0
H535 H 0.82723 0.25279 0.50966 0.0
H536 H 0.91914 0.312 0.44015 0.0
H537 H 0.8754 0.36705 0.47565 0.0
H538 H 0.81963 0.21984 0.43791 0.0
H539 H 0.84362 0.21756 0.46001 0.0
H540 H 0.8807 0.2446 0.43957 0.0
H541 H 0.76645 0.28999 0.48283 0.0
H542 H 0.81296 0.33105 0.49794 0.0
H543 H 0.78934 0.28166 0.50308 0.0
C544 C 0.64867 0.78091 0.81915 0.0
C545 C 0.62654 0.74695 0.80662 0.0
C546 C 0.64561 0.81048 0.81537 0.0
C547 C 0.61965 0.80595 0.79871 0.0
C548 C 0.59586 0.77108 0.78644 0.0
C549 C 0.59969 0.7421 0.79052 0.0
C550 C 0.67163 0.84723 0.82876 0.0
C551 C 0.56751 0.7649 0.76862 0.0
C552 C 0.58426 0.87006 0.79281 0.0
C553 C 0.61618 0.89616 0.77886 0.0
C554 C 0.58578 0.84125 0.79997 0.0
C555 C 0.62017 0.83871 0.79309 0.0
C556 C 0.65377 0.86627 0.77975 0.0
C557 C 0.65132 0.89455 0.77281 0.0
C558 C 0.5494 0.81247 0.8142 0.0
C559 C 0.69133 0.86495 0.77219 0.0
H560 H 0.66979 0.78502 0.83153 0.0
H561 H 0.58191 0.71568 0.78096 0.0
H562 H 0.69993 0.87245 0.82039 0.0
H563 H 0.64842 0.85381 0.83375 0.0
H564 H 0.68683 0.84482 0.84205 0.0
H565 H 0.54862 0.73513 0.76139 0.0
H566 H 0.54212 0.76934 0.77306 0.0
H567 H 0.59043 0.78679 0.75752 0.0
H568 H 0.5569 0.87105 0.79744 0.0
H569 H 0.67647 0.91505 0.76225 0.0
H570 H 0.56574 0.81073 0.82724 0.0
H571 H 0.52665 0.78282 0.80673 0.0
H572 H 0.52768 0.82048 0.81951 0.0
H573 H 0.71024 0.86516 0.78482 0.0
H574 H 0.71652 0.89 0.76291 0.0
H575 H 0.67567 0.83735 0.76314 0.0
C576 C 0.77077 0.4219 0.18038 0.0
C577 C 0.79794 0.40999 0.18078 0.0
C578 C 0.72572 0.39668 0.17251 0.0
C579 C 0.70738 0.35845 0.16522 0.0
C580 C 0.73232 0.34455 0.16827 0.0
C581 C 0.77782 0.37078 0.17574 0.0
C582 C 0.70013 0.41269 0.16979 0.0
C583 C 0.71281 0.30327 0.16191 0.0
C584 C 0.58882 0.31117 0.14474 0.0
C585 C 0.60041 0.32569 0.12561 0.0
C586 C 0.62229 0.31665 0.15738 0.0
C587 C 0.66817 0.33771 0.15074 0.0
C588 C 0.67806 0.34714 0.13053 0.0
C589 C 0.64382 0.34069 0.11816 0.0
C590 C 0.60959 0.3039 0.17843 0.0
C591 C 0.72643 0.36918 0.12265 0.0
H592 H 0.78627 0.45218 0.18429 0.0
H593 H 0.79868 0.36141 0.17634 0.0
H594 H 0.69783 0.41598 0.15374 0.0
H595 H 0.66441 0.39218 0.17529 0.0
H596 H 0.71753 0.44169 0.17771 0.0
H597 H 0.73014 0.294 0.16996 0.0
H598 H 0.67511 0.28235 0.16451 0.0
H599 H 0.71821 0.30161 0.14578 0.0
H600 H 0.55486 0.29868 0.15041 0.0
H601 H 0.65301 0.35183 0.10338 0.0
H602 H 0.61383 0.32747 0.18787 0.0
H603 H 0.63192 0.29793 0.18471 0.0
H604 H 0.57289 0.27722 0.17917 0.0
H605 H 0.74872 0.39961 0.12924 0.0
H606 H 0.7272 0.37051 0.10622 0.0
H607 H 0.74165 0.35527 0.12687 0.0
C608 C 0.44812 0.88183 0.4877 0.0
C609 C 0.45029 0.90806 0.47554 0.0
C610 C 0.40944 0.84171 0.48713 0.0
C611 C 0.37198 0.82706 0.47391 0.0
C612 C 0.37366 0.85349 0.46183 0.0
C613 C 0.41252 0.89354 0.46286 0.0
C614 C 0.4091 0.81483 0.50042 0.0
C615 C 0.3349 0.83925 0.44733 0.0
C616 C 0.29746 0.72091 0.45378 0.0
C617 C 0.25557 0.70361 0.46369 0.0
C618 C 0.33573 0.76055 0.45738 0.0
C619 C 0.33272 0.78383 0.47152 0.0
C620 C 0.29148 0.76607 0.48246 0.0
C621 C 0.25336 0.7262 0.4784 0.0
C622 C 0.37875 0.7779 0.44535 0.0
C623 C 0.28699 0.78958 0.49789 0.0
H624 H 0.47683 0.8926 0.49768 0.0
H625 H 0.41364 0.91337 0.45339 0.0
H626 H 0.37682 0.79774 0.50906 0.0
H627 H 0.40987 0.79353 0.49124 0.0
H628 H 0.4391 0.83111 0.51095 0.0
H629 H 0.3404 0.86363 0.4396 0.0
H630 H 0.33187 0.81846 0.436 0.0
H631 H 0.30155 0.8232 0.45517 0.0
H632 H 0.29987 0.70357 0.44263 0.0
H633 H 0.22122 0.71323 0.48609 0.0
H634 H 0.40939 0.79235 0.45534 0.0
H635 H 0.38466 0.80068 0.43595 0.0
H636 H 0.37635 0.75551 0.43556 0.0
H637 H 0.31702 0.80583 0.50836 0.0
H638 H 0.25477 0.77084 0.50649 0.0
H639 H 0.28686 0.81158 0.49052 0.0
C640 C 0.51715 0.26132 0.84598 0.0
C641 C 0.5469 0.29763 0.83717 0.0
C642 C 0.52048 0.23142 0.84183 0.0
C643 C 0.55379 0.23761 0.82826 0.0
C644 C 0.58501 0.27461 0.8199 0.0
C645 C 0.58147 0.3042 0.82459 0.0
C646 C 0.48705 0.19264 0.85133 0.0
C647 C 0.6209 0.28242 0.80527 0.0
C648 C 0.58426 0.1692 0.82216 0.0
C649 C 0.55801 0.14622 0.80517 0.0
C650 C 0.58199 0.19813 0.83039 0.0
C651 C 0.55323 0.20447 0.82127 0.0
C652 C 0.52533 0.18029 0.80462 0.0
C653 C 0.52769 0.15128 0.79695 0.0
C654 C 0.61155 0.22278 0.84841 0.0
C655 C 0.49424 0.18603 0.79437 0.0
H656 H 0.49004 0.25563 0.85559 0.0
H657 H 0.60544 0.3324 0.81809 0.0
H658 H 0.46204 0.17 0.83994 0.0
H659 H 0.50568 0.18291 0.85749 0.0
H660 H 0.46742 0.19414 0.86343 0.0
H661 H 0.64433 0.3134 0.80101 0.0
H662 H 0.642 0.27526 0.81163 0.0
H663 H 0.60349 0.26327 0.79163 0.0
H664 H 0.60787 0.16563 0.8286 0.0
H665 H 0.50635 0.13301 0.78413 0.0
H666 H 0.5905 0.22384 0.85988 0.0
H667 H 0.63911 0.25329 0.84419 0.0
H668 H 0.62803 0.21145 0.85502 0.0
H669 H 0.47001 0.18405 0.80514 0.0
H670 H 0.4738 0.16405 0.78192 0.0
H671 H 0.51537 0.2157 0.78842 0.0
C672 C 0.62097 0.8314 0.49396 0.0
C673 C 0.59987 0.84151 0.50714 0.0
C674 C 0.61821 0.79843 0.49678 0.0
C675 C 0.59361 0.77495 0.51311 0.0
C676 C 0.57034 0.78394 0.52586 0.0
C677 C 0.57387 0.81714 0.52276 0.0
C678 C 0.6436 0.78994 0.48289 0.0
C679 C 0.54336 0.75949 0.54334 0.0
C680 C 0.56231 0.67462 0.51801 0.0
C681 C 0.59561 0.68354 0.53196 0.0
C682 C 0.56203 0.70426 0.5111 0.0
C683 C 0.59608 0.7436 0.51822 0.0
C684 C 0.63115 0.75285 0.5315 0.0
C685 C 0.63038 0.72273 0.53822 0.0
C686 C 0.52411 0.69325 0.49694 0.0
C687 C 0.66844 0.7944 0.53929 0.0
H688 H 0.64136 0.85024 0.48193 0.0
H689 H 0.55686 0.82445 0.53279 0.0
H690 H 0.67353 0.79605 0.49089 0.0
H691 H 0.62082 0.75855 0.47783 0.0
H692 H 0.65651 0.80804 0.46966 0.0
H693 H 0.52389 0.76824 0.55074 0.0
H694 H 0.51864 0.72804 0.53849 0.0
H695 H 0.56739 0.76266 0.55443 0.0
H696 H 0.5353 0.64431 0.51321 0.0
H697 H 0.65651 0.72971 0.54882 0.0
H698 H 0.53884 0.71254 0.48419 0.0
H699 H 0.50078 0.69746 0.50468 0.0
H700 H 0.50328 0.66228 0.4912 0.0
H701 H 0.68576 0.81417 0.52679 0.0
H702 H 0.69501 0.79702 0.54838 0.0
H703 H 0.65276 0.80479 0.54861 0.0
C704 C 0.70265 0.4901 0.83033 0.0
C705 C 0.70876 0.5253 0.8326 0.0
C706 C 0.7406 0.48932 0.83062 0.0
C707 C 0.78688 0.52444 0.83394 0.0
C708 C 0.79314 0.56002 0.83634 0.0
C709 C 0.75474 0.56008 0.83534 0.0
C710 C 0.73092 0.45049 0.82737 0.0
C711 C 0.84066 0.59832 0.84057 0.0
C712 C 0.8763 0.51701 0.85738 0.0
C713 C 0.9072 0.52509 0.84189 0.0
C714 C 0.8384 0.51719 0.85501 0.0
C715 C 0.82791 0.52376 0.83631 0.0
C716 C 0.8572 0.52996 0.82024 0.0
C717 C 0.89617 0.53093 0.8232 0.0
C718 C 0.80982 0.51093 0.87291 0.0
C719 C 0.84751 0.53585 0.79977 0.0
H720 H 0.66789 0.46281 0.82807 0.0
H721 H 0.76077 0.58764 0.83727 0.0
H722 H 0.75368 0.45252 0.81568 0.0
H723 H 0.73866 0.44279 0.8412 0.0
H724 H 0.69435 0.42644 0.82293 0.0
H725 H 0.84046 0.62357 0.84202 0.0
H726 H 0.85483 0.59695 0.85456 0.0
H727 H 0.8644 0.60359 0.82851 0.0
H728 H 0.88141 0.51032 0.87179 0.0
H729 H 0.91842 0.53696 0.81082 0.0
H730 H 0.7737 0.4839 0.87042 0.0
H731 H 0.80893 0.5357 0.87519 0.0
H732 H 0.82347 0.50836 0.88671 0.0
H733 H 0.81085 0.512 0.79544 0.0
H734 H 0.87003 0.53657 0.78841 0.0
H735 H 0.85307 0.56383 0.7998 0.0
C736 C 0.20334 0.67706 0.16464 0.0
C737 C 0.20022 0.64895 0.15203 0.0
C738 C 0.24367 0.71652 0.16573 0.0
C739 C 0.28209 0.72859 0.15386 0.0
C740 C 0.27881 0.70058 0.14076 0.0
C741 C 0.23813 0.66122 0.14005 0.0
C742 C 0.24556 0.74517 0.18002 0.0
C743 C 0.31869 0.71201 0.12779 0.0
C744 C 0.37515 0.83939 0.14908 0.0
C745 C 0.40676 0.84886 0.16413 0.0
C746 C 0.33516 0.80023 0.14504 0.0
C747 C 0.32659 0.76979 0.15629 0.0
C748 C 0.35966 0.7791 0.1708 0.0
C749 C 0.39915 0.81827 0.17447 0.0
C750 C 0.30114 0.79166 0.12931 0.0
C751 C 0.35244 0.74786 0.1831 0.0
H752 H 0.17445 0.66815 0.17397 0.0
H753 H 0.23626 0.63998 0.13016 0.0
H754 H 0.27275 0.75636 0.19153 0.0
H755 H 0.25494 0.77072 0.17204 0.0
H756 H 0.21216 0.73172 0.18753 0.0
H757 H 0.30967 0.68755 0.11741 0.0
H758 H 0.33005 0.73733 0.11901 0.0
H759 H 0.34852 0.72129 0.13722 0.0
H760 H 0.38055 0.86276 0.14108 0.0
H761 H 0.42372 0.82518 0.18593 0.0
H762 H 0.26862 0.78216 0.13642 0.0
H763 H 0.29238 0.76729 0.11897 0.0
H764 H 0.31468 0.81765 0.12061 0.0
H765 H 0.32147 0.73504 0.1924 0.0
H766 H 0.38255 0.7595 0.19301 0.0
H767 H 0.34605 0.72376 0.1733 0.0
C768 C 0.56337 0.24691 0.45959 0.0
C769 C 0.54014 0.21633 0.47272 0.0
C770 C 0.57134 0.28234 0.46433 0.0
C771 C 0.55527 0.28708 0.48252 0.0
C772 C 0.53077 0.25588 0.49558 0.0
C773 C 0.5237 0.22101 0.49056 0.0
C774 C 0.59795 0.31502 0.45012 0.0
C775 C 0.51261 0.25953 0.51503 0.0
C776 C 0.61194 0.38702 0.50805 0.0
C777 C 0.5799 0.39304 0.50413 0.0
C778 C 0.60543 0.35353 0.50031 0.0
C779 C 0.56565 0.32512 0.48849 0.0
C780 C 0.53416 0.33183 0.48378 0.0
C781 C 0.54179 0.36585 0.49159 0.0
C782 C 0.64017 0.3478 0.50549 0.0
C783 C 0.49122 0.30216 0.47134 0.0
H784 H 0.57641 0.24352 0.44585 0.0
H785 H 0.50513 0.19724 0.50062 0.0
H786 H 0.57791 0.32493 0.44633 0.0
H787 H 0.63079 0.34053 0.45731 0.0
H788 H 0.60613 0.30605 0.43616 0.0
H789 H 0.49242 0.23194 0.52307 0.0
H790 H 0.54184 0.28321 0.52475 0.0
H791 H 0.49026 0.26766 0.51236 0.0
H792 H 0.64172 0.40822 0.51756 0.0
H793 H 0.51676 0.37024 0.48865 0.0
H794 H 0.65131 0.34073 0.49185 0.0
H795 H 0.62395 0.32269 0.5152 0.0
H796 H 0.67121 0.37414 0.51332 0.0
H797 H 0.50014 0.2939 0.45739 0.0
H798 H 0.47247 0.31329 0.46752 0.0
H799 H 0.46759 0.27513 0.4796 0.0
C800 C 0.46603 0.55023 0.82573 0.0
C801 C 0.46632 0.52339 0.83635 0.0
C802 C 0.42816 0.55118 0.82634 0.0
C803 C 0.38884 0.52531 0.83825 0.0
C804 C 0.38906 0.49824 0.84903 0.0
C805 C 0.42687 0.4973 0.84779 0.0
C806 C 0.4304 0.58019 0.81413 0.0
C807 C 0.34946 0.47052 0.86238 0.0
C808 C 0.31522 0.55538 0.85818 0.0
C809 C 0.27273 0.53037 0.84745 0.0
C810 C 0.35251 0.55435 0.85515 0.0
C811 C 0.34931 0.5282 0.84052 0.0
C812 C 0.3076 0.50431 0.82876 0.0
C813 C 0.2701 0.50536 0.83243 0.0
C814 C 0.39487 0.58031 0.86844 0.0
C815 C 0.30192 0.47653 0.8126 0.0
H816 H 0.49553 0.57059 0.81669 0.0
H817 H 0.42582 0.47637 0.85622 0.0
H818 H 0.39869 0.56489 0.80473 0.0
H819 H 0.4319 0.6019 0.82408 0.0
H820 H 0.46101 0.59615 0.80441 0.0
H821 H 0.354 0.45099 0.86974 0.0
H822 H 0.3462 0.48746 0.87401 0.0
H823 H 0.31658 0.45215 0.85367 0.0
H824 H 0.31867 0.57505 0.86984 0.0
H825 H 0.23798 0.48531 0.82407 0.0
H826 H 0.42623 0.59891 0.85938 0.0
H827 H 0.3991 0.56194 0.8772 0.0
H828 H 0.39293 0.59963 0.8789 0.0
H829 H 0.33276 0.49195 0.80303 0.0
H830 H 0.27071 0.4635 0.80316 0.0
H831 H 0.29894 0.4525 0.81934 0.0
C832 C 0.95171 0.37403 0.13468 0.0
C833 C 0.96066 0.40281 0.14881 0.0
C834 C 0.91291 0.33418 0.13623 0.0
C835 C 0.88259 0.32262 0.15244 0.0
C836 C 0.8911 0.3517 0.16651 0.0
C837 C 0.92968 0.39119 0.16448 0.0
C838 C 0.90492 0.30433 0.12077 0.0
C839 C 0.86057 0.34102 0.18427 0.0
C840 C 0.76122 0.22403 0.1554 0.0
C841 C 0.7691 0.20443 0.1682 0.0
C842 C 0.79818 0.26169 0.14911 0.0
C843 C 0.84401 0.28011 0.15576 0.0
C844 C 0.8522 0.25917 0.16762 0.0
C845 C 0.81482 0.22175 0.17363 0.0
C846 C 0.78794 0.2828 0.13634 0.0
C847 C 0.90016 0.27737 0.17521 0.0
H848 H 0.97513 0.38259 0.12244 0.0
H849 H 0.9361 0.41292 0.17558 0.0
H850 H 0.90956 0.28451 0.12763 0.0
H851 H 0.86892 0.28596 0.11488 0.0
H852 H 0.92903 0.31822 0.10818 0.0
H853 H 0.86794 0.36721 0.1923 0.0
H854 H 0.82358 0.32077 0.17971 0.0
H855 H 0.8662 0.32559 0.19475 0.0
H856 H 0.72598 0.21104 0.15133 0.0
H857 H 0.82109 0.20675 0.18355 0.0
H858 H 0.80981 0.29304 0.12297 0.0
H859 H 0.79662 0.30916 0.1447 0.0
H860 H 0.75107 0.26394 0.13153 0.0
H861 H 0.92498 0.28956 0.16284 0.0
H862 H 0.90143 0.256 0.18263 0.0
H863 H 0.91188 0.30199 0.18604 0.0
C864 C 0.07289 0.56946 0.08602 0.0
C865 C 0.0656 0.53941 0.09661 0.0
C866 C 0.07853 0.57038 0.06535 0.0
C867 C 0.07683 0.5405 0.05506 0.0
C868 C 0.07053 0.51057 0.06579 0.0
C869 C 0.06496 0.51037 0.08646 0.0
C870 C 0.08523 0.60282 0.05445 0.0
C871 C 0.06858 0.47824 0.05539 0.0
C872 C 1.03889 0.51981 0.00089 0.0
C873 C 0.08114 0.53986 0.99104 0.0
C874 C 1.03705 0.51924 0.02166 0.0
C875 C 0.0785 0.53919 0.03296 0.0
C876 C 0.12123 0.55863 0.02313 0.0
C877 C 0.12205 0.55866 0.00225 0.0
C878 C 0.99073 0.49788 0.03154 0.0
C879 C 0.16613 0.58017 0.03469 0.0
H880 H 0.07369 0.59208 0.09387 0.0
H881 H 0.05963 0.48722 0.09465 0.0
H882 H 0.11676 0.61774 0.04534 0.0
H883 H 1.05553 0.59031 0.04413 0.0
H884 H 0.08831 0.62499 0.06473 0.0
H885 H 0.06645 0.4586 0.06601 0.0
H886 H 1.03797 0.4604 0.04526 0.0
H887 H 0.09959 0.49084 0.04616 0.0
H888 H 1.00707 0.5046 0.99228 0.0
H889 H 0.1548 0.57435 0.99472 0.0
H890 H 0.98993 0.51888 0.04101 0.0
H891 H 0.98525 0.47579 0.04136 0.0
H892 H 0.96162 0.48283 0.02059 0.0
H893 H 0.17216 0.60478 0.04384 0.0
H894 H 0.19612 0.59209 0.02483 0.0
H895 H 0.16433 0.56036 0.04502 0.0
C896 C 0.61212 0.06335 0.41595 0.0
C897 C 0.59392 0.02716 0.42344 0.0
C898 C 0.6091 0.06671 0.39555 0.0
C899 C 0.58847 0.03322 0.38244 0.0
C900 C 0.57033 0.99662 0.39009 0.0
C901 C 0.5728 0.99397 0.41061 0.0
C902 C 0.62782 0.10598 0.38804 0.0
C903 C 0.54885 0.96041 0.37658 0.0
C904 C 0.5422 0.02693 0.33135 0.0
C905 C 0.57799 0.03527 0.31911 0.0
C906 C 0.54594 0.02772 0.35209 0.0
C907 C 0.58603 0.03626 0.3607 0.0
C908 C 0.62273 0.0456 0.34841 0.0
C909 C 0.61842 0.04533 0.32774 0.0
C910 C 0.5065 0.01844 0.36473 0.0
C911 C 0.66572 0.05427 0.35701 0.0
H912 H 0.62835 0.08889 0.42609 0.0
H913 H 0.55898 0.9661 0.41661 0.0
H914 H 0.65595 0.11581 0.37742 0.0
H915 H 0.60022 0.10337 0.3799 0.0
H916 H 0.64149 0.12881 0.40028 0.0
H917 H 0.53721 0.93444 0.38486 0.0
H918 H 0.51872 0.95361 0.36842 0.0
H919 H 0.57416 0.96568 0.36533 0.0
H920 H 0.51108 0.01945 0.32466 0.0
H921 H 0.6459 0.05142 0.31824 0.0
H922 H 0.51953 0.04165 0.37666 0.0
H923 H 0.49026 0.99052 0.37204 0.0
H924 H 0.47954 0.01567 0.35588 0.0
H925 H 0.68156 0.07836 0.36863 0.0
H926 H 0.69189 0.06261 0.34551 0.0
H927 H 0.65646 0.02804 0.36422 0.0
C928 C 0.61873 0.52414 0.76924 0.0
C929 C 0.57556 0.50904 0.77705 0.0
C930 C 0.62623 0.52835 0.74872 0.0
C931 C 0.59011 0.51843 0.73591 0.0
C932 C 0.54713 0.5049 0.74393 0.0
C933 C 0.54013 0.49972 0.76441 0.0
C934 C 0.67205 0.54178 0.74069 0.0
C935 C 0.50828 0.49523 0.73085 0.0
C936 C 0.61926 0.55592 0.68375 0.0
C937 C 0.60356 0.52198 0.67215 0.0
C938 C 0.61508 0.55525 0.7045 0.0
C939 C 0.59627 0.52019 0.71402 0.0
C940 C 0.5819 0.48624 0.70256 0.0
C941 C 0.58495 0.48735 0.6818 0.0
C942 C 0.62983 0.59183 0.7162 0.0
C943 C 0.56262 0.44848 0.7122 0.0
H944 H 0.64606 0.53114 0.77907 0.0
H945 H 0.50688 0.48836 0.77055 0.0
H946 H 0.66667 0.5181 0.73086 0.0
H947 H 0.68746 0.56752 0.73155 0.0
H948 H 0.69708 0.54967 0.7527 0.0
H949 H 0.47863 0.48846 0.73962 0.0
H950 H 0.52082 0.52014 0.72146 0.0
H951 H 0.49581 0.46954 0.72072 0.0
H952 H 0.63473 0.58315 0.67665 0.0
H953 H 0.57175 0.46066 0.67315 0.0
H954 H 0.65678 0.60078 0.72739 0.0
H955 H 0.59998 0.58581 0.72442 0.0
H956 H 0.64359 0.61669 0.70655 0.0
H957 H 0.58667 0.4539 0.72404 0.0
H958 H 0.55661 0.42571 0.70136 0.0
H959 H 0.52937 0.43685 0.71932 0.0
C960 C 0.59861 0.04804 0.54077 0.0
C961 C 0.55754 0.03808 0.53298 0.0
C962 C 0.60437 0.04776 0.56126 0.0
C963 C 0.5687 0.0384 0.57427 0.0
C964 C 0.52726 0.02854 0.56645 0.0
C965 C 0.52201 0.02812 0.54585 0.0
C966 C 0.64866 0.05767 0.569 0.0
C967 C 0.48877 0.01909 0.57986 0.0
C968 C 0.56235 0.00749 0.62671 0.0
C969 C 0.58166 0.04253 0.63797 0.0
C970 C 0.55932 0.006 0.60589 0.0
C971 C 0.57513 0.04014 0.59612 0.0
C972 C 0.59539 0.07571 0.60733 0.0
C973 C 0.5989 0.07657 0.62806 0.0
C974 C 0.53824 0.96768 0.59438 0.0
C975 C 0.61228 0.11268 0.59746 0.0
H976 H 0.62628 0.05607 0.53083 0.0
H977 H 0.49028 0.02052 0.53985 0.0
H978 H 0.66754 0.08493 0.57864 0.0
H979 H 0.64085 0.034 0.57826 0.0
H980 H 0.67172 0.06183 0.55682 0.0
H981 H 0.45875 0.01199 0.5714 0.0
H982 H 0.47678 0.99383 0.58882 0.0
H983 H 0.50171 0.0444 0.59039 0.0
H984 H 0.54844 0.9809 0.63416 0.0
H985 H 0.61491 0.10402 0.63653 0.0
H986 H 0.56167 0.97191 0.5824 0.0
H987 H 0.50535 0.95705 0.58718 0.0
H988 H 0.53109 0.94467 0.60402 0.0
H989 H 0.63847 0.12008 0.58621 0.0
H990 H 0.62775 0.13808 0.60829 0.0
H991 H 0.58309 0.10799 0.58956 0.0
C992 C 0.63732 0.5374 0.89905 0.0
C993 C 0.60083 0.53071 0.88834 0.0
C994 C 0.63049 0.52347 0.91816 0.0
C995 C 0.58654 0.50364 0.9269 0.0
C996 C 0.54941 0.49627 0.91593 0.0
C997 C 0.55688 0.50939 0.89663 0.0
C998 C 0.67049 0.53074 0.92915 0.0
C999 C 0.50238 0.47616 0.92491 0.0
C1000 C 0.55353 0.44724 0.97382 0.0
C1001 C 0.56258 0.47531 0.98845 0.0
C1002 C 0.56284 0.4564 0.95373 0.0
C1003 C 0.58043 0.49414 0.94815 0.0
C1004 C 0.59051 0.52275 0.96286 0.0
C1005 C 0.58235 0.51324 0.9828 0.0
C1006 C 0.55302 0.42555 0.93846 0.0
C1007 C 0.6087 0.5632 0.95751 0.0
H1008 H 0.67114 0.55335 0.89243 0.0
H1009 H 0.52867 0.50416 0.88825 0.0
H1010 H 0.6818 0.55243 0.94172 0.0
H1011 H 0.6597 0.50331 0.93549 0.0
H1012 H 0.70049 0.54205 0.91939 0.0
H1013 H 0.47674 0.47121 0.9141 0.0
H1014 H 0.48922 0.44752 0.93049 0.0
H1015 H 0.50514 0.49433 0.93781 0.0
H1016 H 0.53822 0.41786 0.97795 0.0
H1017 H 0.59114 0.53565 0.99399 0.0
H1018 H 0.58352 0.43763 0.92894 0.0
H1019 H 0.52389 0.41648 0.92861 0.0
H1020 H 0.54401 0.39916 0.94541 0.0
H1021 H 0.64196 0.57809 0.94972 0.0
H1022 H 0.61416 0.58188 0.97076 0.0
H1023 H 0.58401 0.56086 0.9472 0.0
C1024 C 0.09009 0.4826 0.2126 0.0
C1025 C 0.09821 0.51315 0.20217 0.0
C1026 C 0.08586 0.48213 0.23334 0.0
C1027 C 0.08994 0.51302 0.2438 0.0
C1028 C 0.09748 0.54365 0.23325 0.0
C1029 C 0.10162 0.54337 0.21253 0.0
C1030 C 0.07779 0.44898 0.24409 0.0
C1031 C 0.10201 0.57709 0.24387 0.0
C1032 C 1.04665 0.50094 0.29661 0.0
C1033 C 0.08801 0.52147 0.30766 0.0
C1034 C 1.04654 0.49731 0.27577 0.0
C1035 C 0.08875 0.51449 0.26586 0.0
C1036 C 0.13039 0.53434 0.277 0.0
C1037 C 0.12949 0.53757 0.29775 0.0
C1038 C 1.00148 0.47596 0.26435 0.0
C1039 C 0.17606 0.55281 0.26698 0.0
H1040 H 0.08724 0.4591 0.20456 0.0
H1041 H 0.10795 0.56705 0.20446 0.0
H1042 H 0.10741 0.4606 0.25427 0.0
H1043 H 1.04652 0.43484 0.25332 0.0
H1044 H 0.07342 0.42635 0.23369 0.0
H1045 H 0.10576 0.59766 0.2334 0.0
H1046 H 0.07127 0.56559 0.25311 0.0
H1047 H 0.13262 0.59366 0.25403 0.0
H1048 H 1.01456 0.48865 0.30422 0.0
H1049 H 0.16143 0.55286 0.30627 0.0
H1050 H 0.99601 0.45247 0.25433 0.0
H1051 H 1.00274 0.49657 0.25488 0.0
H1052 H 0.97142 0.46269 0.27431 0.0
H1053 H 0.17417 0.53056 0.25734 0.0
H1054 H 0.20507 0.56609 0.27783 0.0
H1055 H 0.18387 0.57595 0.25729 0.0
loop_
_geom_bond_atom_site_label_1
_geom_bond_atom_site_label_2
_geom_bond_distance
_geom_bond_site_symmetry_2
_ccdc_geom_bond_type
Ho0 C3 2.811 . S
Ho0 O20 2.322 . S
Ho0 O22 2.378 . S
Ho0 O23 2.524 . S
Ho0 O24 2.381 . S
Ho0 O25 2.669 . S
Ho0 O27 2.346 1_455 S
Ho0 O31 2.305 . S
Ho1 C12 2.811 . S
Ho1 O21 2.346 1_655 S
Ho1 O25 2.305 1_655 S
Ho1 O26 2.322 . S
Ho1 O28 2.378 . S
Ho1 O29 2.524 . S
Ho1 O30 2.381 1_655 S
Ho1 O31 2.669 1_655 S
C2 O20 1.259 . S
C2 O21 1.268 . S
C3 Ho0 2.811 . S
C3 C4 1.488 . S
C3 O22 1.215 . S
C3 O23 1.289 . S
C4 C3 1.488 . S
C4 C5 1.348 . S
C4 C9 1.413 . S
C5 C4 1.348 . S
C5 C6 1.442 . S
C5 H32 0.930 . S
C6 C5 1.442 . S
C6 C7 1.381 . S
C6 H33 0.931 . S
C7 C6 1.381 . S
C7 C8 1.321 . S
C8 C7 1.321 . S
C8 C9 1.403 . S
C8 H34 0.934 . S
C9 C4 1.413 . S
C9 C8 1.403 . S
C9 H35 0.930 . S
C10 O24 1.275 . S
C10 O25 1.256 . S
C11 O26 1.259 . S
C11 O27 1.268 . S
C12 Ho1 2.811 . S
C12 C13 1.488 . S
C12 O28 1.215 . S
C12 O29 1.289 . S
C13 C12 1.488 . S
C13 C14 1.348 . S
C13 C18 1.413 . S
C14 C13 1.348 . S
C14 C15 1.442 . S
C14 H36 0.930 . S
C15 C14 1.442 . S
C15 C16 1.381 . S
C15 H37 0.931 . S
C16 C15 1.381 . S
C16 C17 1.321 . S
C17 C16 1.321 . S
C17 C18 1.403 . S
C17 H38 0.934 . S
C18 C13 1.413 . S
C18 C17 1.403 . S
C18 H39 0.930 . S
C19 O30 1.275 . S
C19 O31 1.256 . S
O20 Ho0 2.322 . S
O20 C2 1.259 . S
O21 Ho1 2.346 1_455 S
O21 C2 1.268 . S
O22 Ho0 2.378 . S
O22 C3 1.215 . S
O23 Ho0 2.524 . S
O23 C3 1.289 . S
O24 Ho0 2.381 . S
O24 C10 1.275 . S
O25 Ho0 2.669 . S
O25 Ho1 2.305 1_455 S
O25 C10 1.256 . S
O26 Ho1 2.322 . S
O26 C11 1.259 . S
O27 Ho0 2.346 1_655 S
O27 C11 1.268 . S
O28 Ho1 2.378 . S
O28 C12 1.215 . S
O29 Ho1 2.524 . S
O29 C12 1.289 . S
O30 Ho1 2.381 1_455 S
O30 C19 1.275 . S
O31 Ho0 2.305 . S
O31 Ho1 2.669 1_455 S
O31 C19 1.256 . S
H32 C5 0.930 . S
H33 C6 0.931 . S
H34 C8 0.934 . S
H35 C9 0.930 . S
H36 C14 0.930 . S
H37 C15 0.931 . S
H38 C17 0.934 . S
H39 C18 0.930 . S
Ho40 C43 2.811 . S
Ho40 O60 2.322 . S
Ho40 O62 2.378 . S
Ho40 O63 2.524 . S
Ho40 O64 2.381 . S
Ho40 O65 2.669 1_565 S
Ho40 O67 2.346 1_565 S
Ho40 O71 2.305 1_565 S
Ho41 C52 2.811 . S
Ho41 O61 2.346 1_545 S
Ho41 O65 2.305 . S
Ho41 O66 2.322 . S
Ho41 O68 2.378 . S
Ho41 O69 2.524 . S
Ho41 O70 2.381 . S
Ho41 O71 2.669 . S
C42 O60 1.259 . S
C42 O61 1.268 . S
C43 Ho40 2.811 . S
C43 C44 1.488 . S
C43 O62 1.215 . S
C43 O63 1.289 . S
C44 C43 1.488 . S
C44 C45 1.348 . S
C44 C49 1.413 . S
C45 C44 1.348 . S
C45 C46 1.442 . S
C45 H72 0.930 . S
C46 C45 1.442 . S
C46 C47 1.381 . S
C46 H73 0.931 . S
C47 C46 1.381 . S
C47 C48 1.321 . S
C48 C47 1.321 . S
C48 C49 1.403 . S
C48 H74 0.934 . S
C49 C44 1.413 . S
C49 C48 1.403 . S
C49 H75 0.930 . S
C50 O64 1.275 1_545 S
C50 O65 1.256 . S
C51 O66 1.259 . S
C51 O67 1.268 . S
C52 Ho41 2.811 . S
C52 C53 1.488 . S
C52 O68 1.215 . S
C52 O69 1.289 . S
C53 C52 1.488 . S
C53 C54 1.348 . S
C53 C58 1.413 . S
C54 C53 1.348 . S
C54 C55 1.442 . S
C54 H76 0.930 . S
C55 C54 1.442 . S
C55 C56 1.381 . S
C55 H77 0.931 . S
C56 C55 1.381 . S
C56 C57 1.321 . S
C57 C56 1.321 . S
C57 C58 1.403 . S
C57 H78 0.934 . S
C58 C53 1.413 . S
C58 C57 1.403 . S
C58 H79 0.930 . S
C59 O70 1.275 . S
C59 O71 1.256 . S
O60 Ho40 2.322 . S
O60 C42 1.259 . S
O61 Ho41 2.346 1_565 S
O61 C42 1.268 . S
O62 Ho40 2.378 . S
O62 C43 1.215 . S
O63 Ho40 2.524 . S
O63 C43 1.289 . S
O64 Ho40 2.381 . S
O64 C50 1.275 1_565 S
O65 Ho40 2.669 1_545 S
O65 Ho41 2.305 . S
O65 C50 1.256 . S
O66 Ho41 2.322 . S
O66 C51 1.259 . S
O67 Ho40 2.346 1_545 S
O67 C51 1.268 . S
O68 Ho41 2.378 . S
O68 C52 1.215 . S
O69 Ho41 2.524 . S
O69 C52 1.289 . S
O70 Ho41 2.381 . S
O70 C59 1.275 . S
O71 Ho40 2.305 1_545 S
O71 Ho41 2.669 . S
O71 C59 1.256 . S
H72 C45 0.930 . S
H73 C46 0.931 . S
H74 C48 0.934 . S
H75 C49 0.930 . S
H76 C54 0.930 . S
H77 C55 0.931 . S
H78 C57 0.934 . S
H79 C58 0.930 . S
Ho80 C83 2.811 . S
Ho80 O100 2.322 . S
Ho80 O102 2.378 . S
Ho80 O103 2.524 . S
Ho80 O104 2.381 . S
Ho80 O105 2.669 . S
Ho80 O107 2.346 . S
Ho80 O111 2.305 . S
Ho81 C92 2.811 . S
Ho81 O101 2.346 . S
Ho81 O105 2.305 . S
Ho81 O106 2.322 . S
Ho81 O108 2.378 . S
Ho81 O109 2.524 . S
Ho81 O110 2.381 . S
Ho81 O111 2.669 . S
C82 O100 1.259 . S
C82 O101 1.268 . S
C83 Ho80 2.811 . S
C83 C84 1.488 . S
C83 O102 1.215 . S
C83 O103 1.289 . S
C84 C83 1.488 . S
C84 C85 1.348 . S
C84 C89 1.413 . S
C85 C84 1.348 . S
C85 C86 1.442 . S
C85 H112 0.930 . S
C86 C85 1.442 . S
C86 C87 1.381 . S
C86 H113 0.931 . S
C87 C86 1.381 . S
C87 C88 1.321 . S
C88 C87 1.321 . S
C88 C89 1.403 . S
C88 H114 0.934 . S
C89 C84 1.413 . S
C89 C88 1.403 . S
C89 H115 0.930 . S
C90 O104 1.275 . S
C90 O105 1.256 . S
C91 O106 1.259 . S
C91 O107 1.268 . S
C92 Ho81 2.811 . S
C92 C93 1.488 . S
C92 O108 1.215 . S
C92 O109 1.289 . S
C93 C92 1.488 . S
C93 C94 1.348 . S
C93 C98 1.413 . S
C94 C93 1.348 . S
C94 C95 1.442 . S
C94 H116 0.930 . S
C95 C94 1.442 . S
C95 C96 1.381 . S
C95 H117 0.931 . S
C96 C95 1.381 . S
C96 C97 1.321 . S
C97 C96 1.321 . S
C97 C98 1.403 . S
C97 H118 0.934 . S
C98 C93 1.413 . S
C98 C97 1.403 . S
C98 H119 0.930 . S
C99 O110 1.275 . S
C99 O111 1.256 . S
O100 Ho80 2.322 . S
O100 C82 1.259 . S
O101 Ho81 2.346 . S
O101 C82 1.268 . S
O102 Ho80 2.378 . S
O102 C83 1.215 . S
O103 Ho80 2.524 . S
O103 C83 1.289 . S
O104 Ho80 2.381 . S
O104 C90 1.275 . S
O105 Ho80 2.669 . S
O105 Ho81 2.305 . S
O105 C90 1.256 . S
O106 Ho81 2.322 . S
O106 C91 1.259 . S
O107 Ho80 2.346 . S
O107 C91 1.268 . S
O108 Ho81 2.378 . S
O108 C92 1.215 . S
O109 Ho81 2.524 . S
O109 C92 1.289 . S
O110 Ho81 2.381 . S
O110 C99 1.275 . S
O111 Ho80 2.305 . S
O111 Ho81 2.669 . S
O111 C99 1.256 . S
H112 C85 0.930 . S
H113 C86 0.931 . S
H114 C88 0.934 . S
H115 C89 0.930 . S
H116 C94 0.930 . S
H117 C95 0.931 . S
H118 C97 0.934 . S
H119 C98 0.930 . S
C120 C121 1.391 . S
C120 C124 1.391 . S
C120 H162 0.948 . S
C121 C120 1.391 . S
C121 C122 1.391 . S
C122 C121 1.391 . S
C122 H178 0.947 . S
C122 C179 1.392 . S
C123 C124 1.391 . S
C123 C127 1.397 . S
C123 C179 1.419 . S
C124 C120 1.391 . S
C124 C123 1.391 . S
C124 C125 1.399 . S
C125 C124 1.399 . S
C125 C128 1.396 . S
C125 C137 1.453 . S
C125 C138 1.684 . S
H126 C150 0.948 . S
C127 C123 1.397 . S
C127 C128 1.394 . S
C127 C146 1.723 . S
C128 C125 1.396 . S
C128 C127 1.394 . S
C128 C158 1.723 1_545 S
H129 C152 0.947 . S
H130 C153 0.948 . S
H131 C159 0.982 . S
H132 C160 0.979 . S
H133 C160 0.980 . S
H134 C160 0.983 . S
H135 C159 0.979 . S
H136 C159 0.977 . S
C137 C125 1.453 . S
C137 H166 0.982 . S
C137 H167 0.979 . S
C137 H168 0.961 1_545 S
C138 C125 1.684 . S
C138 H163 0.979 . S
C138 H164 0.980 . S
C138 H165 0.983 . S
C139 C140 1.391 . S
C139 C144 1.391 . S
C139 H169 0.948 . S
C140 C139 1.391 . S
C140 C141 1.391 1_545 S
C141 C140 1.391 1_565 S
C141 C142 1.392 . S
C141 H170 0.947 . S
C142 C141 1.392 . S
C142 C143 1.419 1_565 S
C142 H171 0.948 . S
C143 C142 1.419 1_545 S
C143 C144 1.391 . S
C143 C147 1.397 . S
C144 C139 1.391 . S
C144 C143 1.391 . S
C144 C145 1.399 . S
C145 C144 1.399 . S
C145 C146 1.396 . S
C145 C148 1.453 . S
C145 C149 1.684 . S
C146 C127 1.723 . S
C146 C145 1.396 . S
C146 C147 1.394 . S
C147 C143 1.397 . S
C147 C146 1.394 . S
C147 C157 1.723 1_545 S
C148 C145 1.453 . S
C148 H172 0.982 . S
C148 H173 0.979 . S
C148 H174 0.977 . S
C149 C145 1.684 . S
C149 H175 0.979 . S
C149 H176 0.980 . S
C149 H177 0.983 . S
C150 H126 0.948 . S
C150 C151 1.391 . S
C150 C155 1.391 . S
C151 C150 1.391 . S
C151 C152 1.391 . S
C152 H129 0.947 . S
C152 C151 1.391 . S
C152 C153 1.392 . S
C153 H130 0.948 . S
C153 C152 1.392 . S
C153 C154 1.419 . S
C154 C153 1.419 . S
C154 C155 1.391 . S
C154 C158 1.397 . S
C155 C150 1.391 . S
C155 C154 1.391 . S
C155 C156 1.399 . S
C156 C155 1.399 . S
C156 C157 1.396 . S
C156 C159 1.453 . S
C156 C160 1.684 . S
C157 C147 1.723 1_565 S
C157 C156 1.396 . S
C157 C158 1.394 . S
C158 C128 1.723 1_565 S
C158 C154 1.397 . S
C158 C157 1.394 . S
C159 H131 0.982 . S
C159 H135 0.979 . S
C159 H136 0.977 . S
C159 C156 1.453 . S
C160 H132 0.979 . S
C160 H133 0.980 . S
C160 H134 0.983 . S
C160 C156 1.684 . S
H161 C179 0.948 . S
H162 C120 0.948 . S
H163 C138 0.979 . S
H164 C138 0.980 . S
H165 C138 0.983 . S
H166 C137 0.982 . S
H167 C137 0.979 . S
H168 C137 0.961 1_565 S
H169 C139 0.948 . S
H170 C141 0.947 . S
H171 C142 0.948 . S
H172 C148 0.982 . S
H173 C148 0.979 . S
H174 C148 0.977 . S
H175 C149 0.979 . S
H176 C149 0.980 . S
H177 C149 0.983 . S
H178 C122 0.947 . S
C179 C122 1.392 . S
C179 C123 1.419 . S
C179 H161 0.948 . S
C180 C181 1.391 . S
C180 C184 1.391 . S
C180 H222 0.948 . S
C181 C180 1.391 . S
C181 C182 1.391 . S
C182 C181 1.391 . S
C182 H238 0.947 . S
C182 C239 1.392 . S
C183 C184 1.391 . S
C183 C187 1.397 . S
C183 C239 1.419 . S
C184 C180 1.391 . S
C184 C183 1.391 . S
C184 C185 1.399 . S
C185 C184 1.399 . S
C185 C188 1.396 . S
C185 C197 1.453 . S
C185 C198 1.684 . S
H186 C210 0.948 . S
C187 C183 1.397 . S
C187 C188 1.394 . S
C187 C206 1.723 . S
C188 C185 1.396 . S
C188 C187 1.394 . S
C188 C218 1.723 . S
H189 C212 0.947 . S
H190 C213 0.948 . S
H191 C219 0.982 . S
H192 C220 0.979 . S
H193 C220 0.980 . S
H194 C220 0.983 . S
H195 C219 0.979 . S
H196 C219 0.977 . S
C197 C185 1.453 . S
C197 H226 0.982 . S
C197 H227 0.979 . S
C197 H228 0.977 . S
C198 C185 1.684 . S
C198 H223 0.979 . S
C198 H224 0.980 . S
C198 H225 0.983 . S
C199 C200 1.391 . S
C199 C204 1.391 . S
C199 H229 0.948 . S
C200 C199 1.391 . S
C200 C201 1.391 . S
C201 C200 1.391 . S
C201 C202 1.392 . S
C201 H230 0.947 . S
C202 C201 1.392 . S
C202 C203 1.419 . S
C202 H231 0.948 . S
C203 C202 1.419 . S
C203 C204 1.391 . S
C203 C207 1.397 . S
C204 C199 1.391 . S
C204 C203 1.391 . S
C204 C205 1.399 . S
C205 C204 1.399 . S
C205 C206 1.396 . S
C205 C208 1.453 . S
C205 C209 1.684 . S
C206 C187 1.723 . S
C206 C205 1.396 . S
C206 C207 1.394 . S
C207 C203 1.397 . S
C207 C206 1.394 . S
C207 C217 1.723 . S
C208 C205 1.453 . S
C208 H232 0.982 . S
C208 H233 0.979 . S
C208 H234 0.977 . S
C209 C205 1.684 . S
C209 H235 0.979 . S
C209 H236 0.980 . S
C209 H237 0.983 . S
C210 H186 0.948 . S
C210 C211 1.391 . S
C210 C215 1.391 . S
C211 C210 1.391 . S
C211 C212 1.391 . S
C212 H189 0.947 . S
C212 C211 1.391 . S
C212 C213 1.392 . S
C213 H190 0.948 . S
C213 C212 1.392 . S
C213 C214 1.419 . S
C214 C213 1.419 . S
C214 C215 1.391 . S
C214 C218 1.397 . S
C215 C210 1.391 . S
C215 C214 1.391 . S
C215 C216 1.399 . S
C216 C215 1.399 . S
C216 C217 1.396 . S
C216 C219 1.453 . S
C216 C220 1.684 . S
C217 C207 1.723 . S
C217 C216 1.396 . S
C217 C218 1.394 . S
C218 C188 1.723 . S
C218 C214 1.397 . S
C218 C217 1.394 . S
C219 H191 0.982 . S
C219 H195 0.979 . S
C219 H196 0.977 . S
C219 C216 1.453 . S
C220 H192 0.979 . S
C220 H193 0.980 . S
C220 H194 0.983 . S
C220 C216 1.684 . S
H221 C239 0.948 . S
H222 C180 0.948 . S
H223 C198 0.979 . S
H224 C198 0.980 . S
H225 C198 0.983 . S
H226 C197 0.982 . S
H227 C197 0.979 . S
H228 C197 0.977 . S
H229 C199 0.948 . S
H230 C201 0.947 . S
H231 C202 0.948 . S
H232 C208 0.982 . S
H233 C208 0.979 . S
H234 C208 0.977 . S
H235 C209 0.979 . S
H236 C209 0.980 . S
H237 C209 0.983 . S
H238 C182 0.947 . S
C239 C182 1.392 . S
C239 C183 1.419 . S
C239 H221 0.948 . S
C240 C241 1.391 . S
C240 C244 1.391 . S
C240 H282 0.948 . S
C241 C240 1.391 . S
C241 C242 1.391 . S
C242 C241 1.391 . S
C242 H298 0.947 . S
C242 C299 1.392 . S
C243 C244 1.391 . S
C243 C247 1.397 . S
C243 C299 1.419 . S
C244 C240 1.391 . S
C244 C243 1.391 . S
C244 C245 1.399 . S
C245 C244 1.399 . S
C245 C248 1.396 . S
C245 C257 1.453 . S
C245 C258 1.684 . S
H246 C270 0.948 . S
C247 C243 1.397 . S
C247 C248 1.394 . S
C247 C266 1.723 . S
C248 C245 1.396 . S
C248 C247 1.394 . S
C248 C278 1.723 . S
H249 C272 0.947 . S
H250 C273 0.935 1_455 S
H251 C279 0.982 . S
H252 C280 0.979 1_455 S
H253 C280 0.980 . S
H254 C280 0.983 . S
H255 C279 0.979 . S
H256 C279 0.977 . S
C257 C245 1.453 . S
C257 H286 0.982 . S
C257 H287 0.979 . S
C257 H288 0.977 . S
C258 C245 1.684 . S
C258 H283 0.979 . S
C258 H284 0.980 . S
C258 H285 0.983 . S
C259 C260 1.391 . S
C259 C264 1.391 . S
C259 H289 0.948 . S
C260 C259 1.391 . S
C260 C261 1.391 . S
C261 C260 1.391 . S
C261 C262 1.392 . S
C261 H290 0.947 1_455 S
C262 C261 1.392 . S
C262 C263 1.419 . S
C262 H291 0.948 1_455 S
C263 C262 1.419 . S
C263 C264 1.391 . S
C263 C267 1.397 . S
C264 C259 1.391 . S
C264 C263 1.391 . S
C264 C265 1.399 . S
C265 C264 1.399 . S
C265 C266 1.396 . S
C265 C268 1.453 . S
C265 C269 1.684 . S
C266 C247 1.723 . S
C266 C265 1.396 . S
C266 C267 1.394 . S
C267 C263 1.397 . S
C267 C266 1.394 . S
C267 C277 1.723 . S
C268 C265 1.453 . S
C268 H292 0.982 . S
C268 H293 0.979 . S
C268 H294 0.977 . S
C269 C265 1.684 . S
C269 H295 0.979 . S
C269 H296 0.980 . S
C269 H297 0.983 . S
C270 H246 0.948 . S
C270 C271 1.391 . S
C270 C275 1.391 . S
C271 C270 1.391 . S
C271 C272 1.391 . S
C272 H249 0.947 . S
C272 C271 1.391 . S
C272 C273 1.406 . S
C273 H250 0.935 1_655 S
C273 C272 1.406 . S
C273 C274 1.417 . S
C274 C273 1.417 . S
C274 C275 1.391 . S
C274 C278 1.397 1_655 S
C275 C270 1.391 . S
C275 C274 1.391 . S
C275 C276 1.399 . S
C276 C275 1.399 . S
C276 C277 1.396 1_655 S
C276 C279 1.453 . S
C276 C280 1.684 . S
C277 C267 1.723 . S
C277 C276 1.396 1_455 S
C277 C278 1.394 . S
C278 C248 1.723 . S
C278 C274 1.397 1_455 S
C278 C277 1.394 . S
C279 H251 0.982 . S
C279 H255 0.979 . S
C279 H256 0.977 . S
C279 C276 1.453 . S
C280 H252 0.979 1_655 S
C280 H253 0.980 . S
C280 H254 0.983 . S
C280 C276 1.684 . S
H281 C299 0.948 . S
H282 C240 0.948 . S
H283 C258 0.979 . S
H284 C258 0.980 . S
H285 C258 0.983 . S
H286 C257 0.982 . S
H287 C257 0.979 . S
H288 C257 0.977 . S
H289 C259 0.948 . S
H290 C261 0.947 1_655 S
H291 C262 0.948 1_655 S
H292 C268 0.982 . S
H293 C268 0.979 . S
H294 C268 0.977 . S
H295 C269 0.979 . S
H296 C269 0.980 . S
H297 C269 0.983 . S
H298 C242 0.947 . S
C299 C242 1.392 . S
C299 C243 1.419 . S
C299 H281 0.948 . S
C300 C301 1.391 . S
C300 C304 1.391 . S
C300 H342 0.948 . S
C301 C300 1.391 . S
C301 C302 1.391 . S
C302 C301 1.391 . S
C302 H358 0.947 . S
C302 C359 1.392 . S
C303 C304 1.391 . S
C303 C307 1.397 . S
C303 C359 1.419 . S
C304 C300 1.391 . S
C304 C303 1.391 . S
C304 C305 1.399 . S
C305 C304 1.399 . S
C305 C308 1.396 . S
C305 C317 1.453 . S
C305 C318 1.684 . S
H306 C330 0.948 . S
C307 C303 1.397 . S
C307 C308 1.394 . S
C307 C326 1.723 . S
C308 C305 1.396 . S
C308 C307 1.394 . S
C308 C338 1.723 1_655 S
H309 C332 0.947 . S
H310 C333 0.948 . S
H311 C339 0.982 . S
H312 C340 0.979 . S
H313 C340 0.980 . S
H314 C340 0.983 . S
H315 C339 0.979 . S
H316 C339 0.977 . S
C317 C305 1.453 . S
C317 H346 0.982 1_655 S
C317 H347 0.979 . S
C317 H348 0.977 1_655 S
C318 C305 1.684 . S
C318 H343 0.979 . S
C318 H344 0.980 . S
C318 H345 0.983 . S
C319 C320 1.391 1_655 S
C319 C324 1.391 . S
C319 H349 0.948 . S
C320 C319 1.391 1_455 S
C320 C321 1.391 . S
C321 C320 1.391 . S
C321 C322 1.392 . S
C321 H350 0.947 . S
C322 C321 1.392 . S
C322 C323 1.419 . S
C322 H351 0.948 . S
C323 C322 1.419 . S
C323 C324 1.391 1_455 S
C323 C327 1.397 . S
C324 C319 1.391 . S
C324 C323 1.391 1_655 S
C324 C325 1.399 . S
C325 C324 1.399 . S
C325 C326 1.396 . S
C325 C328 1.453 . S
C325 C329 1.684 . S
C326 C307 1.723 . S
C326 C325 1.396 . S
C326 C327 1.394 1_655 S
C327 C323 1.397 . S
C327 C326 1.394 1_455 S
C327 C337 1.723 . S
C328 C325 1.453 . S
C328 H352 0.982 . S
C328 H353 0.979 . S
C328 H354 0.977 . S
C329 C325 1.684 . S
C329 H355 0.979 . S
C329 H356 0.980 . S
C329 H357 0.983 . S
C330 H306 0.948 . S
C330 C331 1.391 . S
C330 C335 1.391 . S
C331 C330 1.391 . S
C331 C332 1.391 . S
C332 H309 0.947 . S
C332 C331 1.391 . S
C332 C333 1.392 . S
C333 H310 0.948 . S
C333 C332 1.392 . S
C333 C334 1.419 . S
C334 C333 1.419 . S
C334 C335 1.391 . S
C334 C338 1.397 . S
C335 C330 1.391 . S
C335 C334 1.391 . S
C335 C336 1.399 . S
C336 C335 1.399 . S
C336 C337 1.396 . S
C336 C339 1.453 . S
C336 C340 1.684 . S
C337 C327 1.723 . S
C337 C336 1.396 . S
C337 C338 1.394 . S
C338 C308 1.723 1_455 S
C338 C334 1.397 . S
C338 C337 1.394 . S
C339 H311 0.982 . S
C339 H315 0.979 . S
C339 H316 0.977 . S
C339 C336 1.453 . S
C340 H312 0.979 . S
C340 H313 0.980 . S
C340 H314 0.983 . S
C340 C336 1.684 . S
H341 C359 0.948 . S
H342 C300 0.948 . S
H343 C318 0.979 . S
H344 C318 0.980 . S
H345 C318 0.983 . S
H346 C317 0.982 1_455 S
H347 C317 0.979 . S
H348 C317 0.977 1_455 S
H349 C319 0.948 . S
H350 C321 0.947 . S
H351 C322 0.948 . S
H352 C328 0.982 . S
H353 C328 0.979 . S
H354 C328 0.977 . S
H355 C329 0.979 . S
H356 C329 0.980 . S
H357 C329 0.983 . S
H358 C302 0.947 . S
C359 C302 1.392 . S
C359 C303 1.419 . S
C359 H341 0.948 . S
C360 C361 1.391 . S
C360 C364 1.391 . S
C360 H402 0.948 . S
C361 C360 1.391 . S
C361 C362 1.391 . S
C362 C361 1.391 . S
C362 H418 0.947 . S
C362 C419 1.392 . S
C363 C364 1.391 . S
C363 C367 1.397 . S
C363 C419 1.419 . S
C364 C360 1.391 . S
C364 C363 1.391 . S
C364 C365 1.399 . S
C365 C364 1.399 . S
C365 C368 1.396 . S
C365 C377 1.453 1_565 S
C365 C378 1.684 . S
H366 C390 0.948 . S
C367 C363 1.397 . S
C367 C368 1.394 . S
C367 C386 1.723 . S
C368 C365 1.396 . S
C368 C367 1.394 . S
C368 C398 1.723 1_565 S
H369 C392 0.947 . S
H370 C393 0.948 . S
H371 C399 0.982 . S
H372 C400 0.979 . S
H373 C400 0.980 . S
H374 C400 0.983 . S
H375 C399 0.979 . S
H376 C399 0.977 . S
C377 C365 1.453 1_545 S
C377 H406 0.982 . S
C377 H407 0.979 1_545 S
C377 H408 0.977 . S
C378 C365 1.684 . S
C378 H403 0.979 . S
C378 H404 0.980 . S
C378 H405 0.983 . S
C379 C380 1.391 . S
C379 C384 1.391 . S
C379 H409 0.948 . S
C380 C379 1.391 . S
C380 C381 1.391 1_565 S
C381 C380 1.391 1_545 S
C381 C382 1.392 . S
C381 H410 0.947 . S
C382 C381 1.392 . S
C382 C383 1.419 . S
C382 H411 0.948 . S
C383 C382 1.419 . S
C383 C384 1.391 1_545 S
C383 C387 1.397 . S
C384 C379 1.391 . S
C384 C383 1.391 1_565 S
C384 C385 1.399 . S
C385 C384 1.399 . S
C385 C386 1.396 . S
C385 C388 1.453 . S
C385 C389 1.684 . S
C386 C367 1.723 . S
C386 C385 1.396 . S
C386 C387 1.394 1_565 S
C387 C383 1.397 . S
C387 C386 1.394 1_545 S
C387 C397 1.723 . S
C388 C385 1.453 . S
C388 H412 0.982 . S
C388 H413 0.979 . S
C388 H414 0.977 . S
C389 C385 1.684 . S
C389 H415 0.979 . S
C389 H416 0.980 . S
C389 H417 0.983 . S
C390 H366 0.948 . S
C390 C391 1.391 . S
C390 C395 1.391 . S
C391 C390 1.391 . S
C391 C392 1.391 . S
C392 H369 0.947 . S
C392 C391 1.391 . S
C392 C393 1.392 . S
C393 H370 0.948 . S
C393 C392 1.392 . S
C393 C394 1.419 . S
C394 C393 1.419 . S
C394 C395 1.391 . S
C394 C398 1.397 . S
C395 C390 1.391 . S
C395 C394 1.391 . S
C395 C396 1.399 . S
C396 C395 1.399 . S
C396 C397 1.396 . S
C396 C399 1.453 . S
C396 C400 1.684 . S
C397 C387 1.723 . S
C397 C396 1.396 . S
C397 C398 1.394 . S
C398 C368 1.723 1_545 S
C398 C394 1.397 . S
C398 C397 1.394 . S
C399 H371 0.982 . S
C399 H375 0.979 . S
C399 H376 0.977 . S
C399 C396 1.453 . S
C400 H372 0.979 . S
C400 H373 0.980 . S
C400 H374 0.983 . S
C400 C396 1.684 . S
H401 C419 0.948 . S
H402 C360 0.948 . S
H403 C378 0.979 . S
H404 C378 0.980 . S
H405 C378 0.983 . S
H406 C377 0.982 . S
H407 C377 0.979 1_565 S
H408 C377 0.977 . S
H409 C379 0.948 . S
H410 C381 0.947 . S
H411 C382 0.948 . S
H412 C388 0.982 . S
H413 C388 0.979 . S
H414 C388 0.977 . S
H415 C389 0.979 . S
H416 C389 0.980 . S
H417 C389 0.983 . S
H418 C362 0.947 . S
C419 C362 1.392 . S
C419 C363 1.419 . S
C419 H401 0.948 . S
C420 C421 1.391 . S
C420 C424 1.391 . S
C420 H462 0.948 . S
C421 C420 1.391 . S
C421 C422 1.391 . S
C422 C421 1.391 . S
C422 H478 0.947 . S
C422 C479 1.392 . S
C423 C424 1.391 . S
C423 C427 1.397 . S
C423 C479 1.419 . S
C424 C420 1.391 . S
C424 C423 1.391 . S
C424 C425 1.399 . S
C425 C424 1.399 . S
C425 C428 1.396 . S
C425 C437 1.453 . S
C425 C438 1.684 . S
H426 C450 0.948 . S
C427 C423 1.397 . S
C427 C428 1.394 . S
C427 C446 1.723 . S
C428 C425 1.396 . S
C428 C427 1.394 . S
C428 C458 1.723 . S
H429 C452 0.947 . S
H430 C453 0.948 . S
H431 C459 0.982 . S
H432 C460 0.979 . S
H433 C460 0.980 . S
H434 C460 0.983 . S
H435 C459 0.979 . S
H436 C459 0.977 . S
C437 C425 1.453 . S
C437 H466 0.982 . S
C437 H467 0.979 . S
C437 H468 0.977 . S
C438 C425 1.684 . S
C438 H463 0.979 . S
C438 H464 0.980 . S
C438 H465 0.983 . S
C439 C440 1.391 . S
C439 C444 1.391 . S
C439 H469 0.948 . S
C440 C439 1.391 . S
C440 C441 1.391 . S
C441 C440 1.391 . S
C441 C442 1.392 . S
C441 H470 0.947 . S
C442 C441 1.392 . S
C442 C443 1.419 . S
C442 H471 0.948 . S
C443 C442 1.419 . S
C443 C444 1.391 . S
C443 C447 1.397 . S
C444 C439 1.391 . S
C444 C443 1.391 . S
C444 C445 1.399 . S
C445 C444 1.399 . S
C445 C446 1.396 . S
C445 C448 1.453 . S
C445 C449 1.684 . S
C446 C427 1.723 . S
C446 C445 1.396 . S
C446 C447 1.394 . S
C447 C443 1.397 . S
C447 C446 1.394 . S
C447 C457 1.723 . S
C448 C445 1.453 . S
C448 H472 0.982 . S
C448 H473 0.979 . S
C448 H474 0.977 . S
C449 C445 1.684 . S
C449 H475 0.979 . S
C449 H476 0.980 . S
C449 H477 0.983 . S
C450 H426 0.948 . S
C450 C451 1.391 . S
C450 C455 1.391 . S
C451 C450 1.391 . S
C451 C452 1.391 . S
C452 H429 0.947 . S
C452 C451 1.391 . S
C452 C453 1.392 . S
C453 H430 0.948 . S
C453 C452 1.392 . S
C453 C454 1.419 . S
C454 C453 1.419 . S
C454 C455 1.391 . S
C454 C458 1.397 . S
C455 C450 1.391 . S
C455 C454 1.391 . S
C455 C456 1.399 . S
C456 C455 1.399 . S
C456 C457 1.396 . S
C456 C459 1.453 . S
C456 C460 1.684 . S
C457 C447 1.723 . S
C457 C456 1.396 . S
C457 C458 1.394 . S
C458 C428 1.723 . S
C458 C454 1.397 . S
C458 C457 1.394 . S
C459 H431 0.982 . S
C459 H435 0.979 . S
C459 H436 0.977 . S
C459 C456 1.453 . S
C460 H432 0.979 . S
C460 H433 0.980 . S
C460 H434 0.983 . S
C460 C456 1.684 . S
H461 C479 0.948 . S
H462 C420 0.948 . S
H463 C438 0.979 . S
H464 C438 0.980 . S
H465 C438 0.983 . S
H466 C437 0.982 . S
H467 C437 0.979 . S
H468 C437 0.977 . S
H469 C439 0.948 . S
H470 C441 0.947 . S
H471 C442 0.948 . S
H472 C448 0.982 . S
H473 C448 0.979 . S
H474 C448 0.977 . S
H475 C449 0.979 . S
H476 C449 0.980 . S
H477 C449 0.983 . S
H478 C422 0.947 . S
C479 C422 1.392 . S
C479 C423 1.419 . S
C479 H461 0.948 . S
C480 C481 1.391 . S
C480 C482 1.394 . S
C480 H496 0.931 . S
C481 C480 1.391 . S
C481 C485 1.376 . S
C482 C480 1.394 . S
C482 C483 1.369 . S
C482 C486 1.531 . S
C483 C482 1.369 . S
C483 C484 1.410 . S
C483 C491 1.503 . S
C484 C483 1.410 . S
C484 C485 1.392 . S
C484 C487 1.511 . S
C485 C481 1.376 . S
C485 C484 1.392 . S
C485 H497 0.929 . S
C486 C482 1.531 . S
C486 H498 0.960 . S
C486 H499 0.962 . S
C486 H500 0.960 . S
C487 C484 1.511 . S
C487 H501 0.961 . S
C487 H502 0.961 . S
C487 H503 0.961 . S
C488 C489 1.370 . S
C488 C490 1.363 . S
C488 H504 0.931 . S
C489 C488 1.370 . S
C489 C493 1.408 . S
C490 C488 1.363 . S
C490 C491 1.370 . S
C490 C494 1.524 . S
C491 C483 1.503 . S
C491 C490 1.370 . S
C491 C492 1.403 . S
C492 C491 1.403 . S
C492 C493 1.404 . S
C492 C495 1.539 . S
C493 C489 1.408 . S
C493 C492 1.404 . S
C493 H505 0.930 . S
C494 C490 1.524 . S
C494 H506 0.956 . S
C494 H507 0.961 . S
C494 H508 0.961 . S
C495 C492 1.539 . S
C495 H509 0.958 . S
C495 H510 0.961 . S
C495 H511 0.960 . S
H496 C480 0.931 . S
H497 C485 0.929 . S
H498 C486 0.960 . S
H499 C486 0.962 . S
H500 C486 0.960 . S
H501 C487 0.961 . S
H502 C487 0.961 . S
H503 C487 0.961 . S
H504 C488 0.931 . S
H505 C493 0.930 . S
H506 C494 0.956 . S
H507 C494 0.961 . S
H508 C494 0.961 . S
H509 C495 0.958 . S
H510 C495 0.961 . S
H511 C495 0.960 . S
C512 C513 1.391 . S
C512 C514 1.394 . S
C512 H528 0.931 . S
C513 C512 1.391 . S
C513 C517 1.376 . S
C514 C512 1.394 . S
C514 C515 1.369 . S
C514 C518 1.531 . S
C515 C514 1.369 . S
C515 C516 1.410 . S
C515 C523 1.503 . S
C516 C515 1.410 . S
C516 C517 1.392 . S
C516 C519 1.511 . S
C517 C513 1.376 . S
C517 C516 1.392 . S
C517 H529 0.929 . S
C518 C514 1.531 . S
C518 H530 0.960 . S
C518 H531 0.962 . S
C518 H532 0.960 . S
C519 C516 1.511 . S
C519 H533 0.961 . S
C519 H534 0.961 . S
C519 H535 0.961 . S
C520 C521 1.370 . S
C520 C522 1.363 . S
C520 H536 0.931 . S
C521 C520 1.370 . S
C521 C525 1.408 . S
C522 C520 1.363 . S
C522 C523 1.370 . S
C522 C526 1.524 . S
C523 C515 1.503 . S
C523 C522 1.370 . S
C523 C524 1.403 . S
C524 C523 1.403 . S
C524 C525 1.404 . S
C524 C527 1.539 . S
C525 C521 1.408 . S
C525 C524 1.404 . S
C525 H537 0.930 . S
C526 C522 1.524 . S
C526 H538 0.956 . S
C526 H539 0.961 . S
C526 H540 0.961 . S
C527 C524 1.539 . S
C527 H541 0.958 . S
C527 H542 0.961 . S
C527 H543 0.960 . S
H528 C512 0.931 . S
H529 C517 0.929 . S
H530 C518 0.960 . S
H531 C518 0.962 . S
H532 C518 0.960 . S
H533 C519 0.961 . S
H534 C519 0.961 . S
H535 C519 0.961 . S
H536 C520 0.931 . S
H537 C525 0.930 . S
H538 C526 0.956 . S
H539 C526 0.961 . S
H540 C526 0.961 . S
H541 C527 0.958 . S
H542 C527 0.961 . S
H543 C527 0.960 . S
C544 C545 1.391 . S
C544 C546 1.394 . S
C544 H560 0.931 . S
C545 C544 1.391 . S
C545 C549 1.376 . S
C546 C544 1.394 . S
C546 C547 1.369 . S
C546 C550 1.531 . S
C547 C546 1.369 . S
C547 C548 1.410 . S
C547 C555 1.503 . S
C548 C547 1.410 . S
C548 C549 1.392 . S
C548 C551 1.511 . S
C549 C545 1.376 . S
C549 C548 1.392 . S
C549 H561 0.929 . S
C550 C546 1.531 . S
C550 H562 0.960 . S
C550 H563 0.962 . S
C550 H564 0.960 . S
C551 C548 1.511 . S
C551 H565 0.961 . S
C551 H566 0.961 . S
C551 H567 0.961 . S
C552 C553 1.370 . S
C552 C554 1.363 . S
C552 H568 0.931 . S
C553 C552 1.370 . S
C553 C557 1.408 . S
C554 C552 1.363 . S
C554 C555 1.370 . S
C554 C558 1.524 . S
C555 C547 1.503 . S
C555 C554 1.370 . S
C555 C556 1.403 . S
C556 C555 1.403 . S
C556 C557 1.404 . S
C556 C559 1.539 . S
C557 C553 1.408 . S
C557 C556 1.404 . S
C557 H569 0.930 . S
C558 C554 1.524 . S
C558 H570 0.956 . S
C558 H571 0.961 . S
C558 H572 0.961 . S
C559 C556 1.539 . S
C559 H573 0.958 . S
C559 H574 0.961 . S
C559 H575 0.960 . S
H560 C544 0.931 . S
H561 C549 0.929 . S
H562 C550 0.960 . S
H563 C550 0.962 . S
H564 C550 0.960 . S
H565 C551 0.961 . S
H566 C551 0.961 . S
H567 C551 0.961 . S
H568 C552 0.931 . S
H569 C557 0.930 . S
H570 C558 0.956 . S
H571 C558 0.961 . S
H572 C558 0.961 . S
H573 C559 0.958 . S
H574 C559 0.961 . S
H575 C559 0.960 . S
C576 C577 1.391 . S
C576 C578 1.394 . S
C576 H592 0.931 . S
C577 C576 1.391 . S
C577 C581 1.376 . S
C578 C576 1.394 . S
C578 C579 1.369 . S
C578 C582 1.531 . S
C579 C578 1.369 . S
C579 C580 1.410 . S
C579 C587 1.503 . S
C580 C579 1.410 . S
C580 C581 1.392 . S
C580 C583 1.511 . S
C581 C577 1.376 . S
C581 C580 1.392 . S
C581 H593 0.929 . S
C582 C578 1.531 . S
C582 H594 0.960 . S
C582 H595 0.962 . S
C582 H596 0.960 . S
C583 C580 1.511 . S
C583 H597 0.961 . S
C583 H598 0.961 . S
C583 H599 0.961 . S
C584 C585 1.370 . S
C584 C586 1.363 . S
C584 H600 0.931 . S
C585 C584 1.370 . S
C585 C589 1.408 . S
C586 C584 1.363 . S
C586 C587 1.370 . S
C586 C590 1.524 . S
C587 C579 1.503 . S
C587 C586 1.370 . S
C587 C588 1.403 . S
C588 C587 1.403 . S
C588 C589 1.404 . S
C588 C591 1.539 . S
C589 C585 1.408 . S
C589 C588 1.404 . S
C589 H601 0.930 . S
C590 C586 1.524 . S
C590 H602 0.956 . S
C590 H603 0.961 . S
C590 H604 0.961 . S
C591 C588 1.539 . S
C591 H605 0.958 . S
C591 H606 0.961 . S
C591 H607 0.960 . S
H592 C576 0.931 . S
H593 C581 0.929 . S
H594 C582 0.960 . S
H595 C582 0.962 . S
H596 C582 0.960 . S
H597 C583 0.961 . S
H598 C583 0.961 . S
H599 C583 0.961 . S
H600 C584 0.931 . S
H601 C589 0.930 . S
H602 C590 0.956 . S
H603 C590 0.961 . S
H604 C590 0.961 . S
H605 C591 0.958 . S
H606 C591 0.961 . S
H607 C591 0.960 . S
C608 C609 1.391 . S
C608 C610 1.394 . S
C608 H624 0.931 . S
C609 C608 1.391 . S
C609 C613 1.376 . S
C610 C608 1.394 . S
C610 C611 1.369 . S
C610 C614 1.531 . S
C611 C610 1.369 . S
C611 C612 1.410 . S
C611 C619 1.503 . S
C612 C611 1.410 . S
C612 C613 1.392 . S
C612 C615 1.511 . S
C613 C609 1.376 . S
C613 C612 1.392 . S
C613 H625 0.929 . S
C614 C610 1.531 . S
C614 H626 0.960 . S
C614 H627 0.962 . S
C614 H628 0.960 . S
C615 C612 1.511 . S
C615 H629 0.961 . S
C615 H630 0.961 . S
C615 H631 0.961 . S
C616 C617 1.370 . S
C616 C618 1.363 . S
C616 H632 0.931 . S
C617 C616 1.370 . S
C617 C621 1.408 . S
C618 C616 1.363 . S
C618 C619 1.370 . S
C618 C622 1.524 . S
C619 C611 1.503 . S
C619 C618 1.370 . S
C619 C620 1.403 . S
C620 C619 1.403 . S
C620 C621 1.404 . S
C620 C623 1.539 . S
C621 C617 1.408 . S
C621 C620 1.404 . S
C621 H633 0.930 . S
C622 C618 1.524 . S
C622 H634 0.956 . S
C622 H635 0.961 . S
C622 H636 0.961 . S
C623 C620 1.539 . S
C623 H637 0.958 . S
C623 H638 0.961 . S
C623 H639 0.960 . S
H624 C608 0.931 . S
H625 C613 0.929 . S
H626 C614 0.960 . S
H627 C614 0.962 . S
H628 C614 0.960 . S
H629 C615 0.961 . S
H630 C615 0.961 . S
H631 C615 0.961 . S
H632 C616 0.931 . S
H633 C621 0.930 . S
H634 C622 0.956 . S
H635 C622 0.961 . S
H636 C622 0.961 . S
H637 C623 0.958 . S
H638 C623 0.961 . S
H639 C623 0.960 . S
C640 C641 1.391 . S
C640 C642 1.394 . S
C640 H656 0.931 . S
C641 C640 1.391 . S
C641 C645 1.376 . S
C642 C640 1.394 . S
C642 C643 1.369 . S
C642 C646 1.531 . S
C643 C642 1.369 . S
C643 C644 1.410 . S
C643 C651 1.503 . S
C644 C643 1.410 . S
C644 C645 1.392 . S
C644 C647 1.511 . S
C645 C641 1.376 . S
C645 C644 1.392 . S
C645 H657 0.929 . S
C646 C642 1.531 . S
C646 H658 0.960 . S
C646 H659 0.962 . S
C646 H660 0.960 . S
C647 C644 1.511 . S
C647 H661 0.961 . S
C647 H662 0.961 . S
C647 H663 0.961 . S
C648 C649 1.370 . S
C648 C650 1.363 . S
C648 H664 0.931 . S
C649 C648 1.370 . S
C649 C653 1.408 . S
C650 C648 1.363 . S
C650 C651 1.370 . S
C650 C654 1.524 . S
C651 C643 1.503 . S
C651 C650 1.370 . S
C651 C652 1.403 . S
C652 C651 1.403 . S
C652 C653 1.404 . S
C652 C655 1.539 . S
C653 C649 1.408 . S
C653 C652 1.404 . S
C653 H665 0.930 . S
C654 C650 1.524 . S
C654 H666 0.956 . S
C654 H667 0.961 . S
C654 H668 0.961 . S
C655 C652 1.539 . S
C655 H669 0.958 . S
C655 H670 0.961 . S
C655 H671 0.960 . S
H656 C640 0.931 . S
H657 C645 0.929 . S
H658 C646 0.960 . S
H659 C646 0.962 . S
H660 C646 0.960 . S
H661 C647 0.961 . S
H662 C647 0.961 . S
H663 C647 0.961 . S
H664 C648 0.931 . S
H665 C653 0.930 . S
H666 C654 0.956 . S
H667 C654 0.961 . S
H668 C654 0.961 . S
H669 C655 0.958 . S
H670 C655 0.961 . S
H671 C655 0.960 . S
C672 C673 1.391 . S
C672 C674 1.394 . S
C672 H688 0.931 . S
C673 C672 1.391 . S
C673 C677 1.376 . S
C674 C672 1.394 . S
C674 C675 1.369 . S
C674 C678 1.531 . S
C675 C674 1.369 . S
C675 C676 1.410 . S
C675 C683 1.503 . S
C676 C675 1.410 . S
C676 C677 1.392 . S
C676 C679 1.511 . S
C677 C673 1.376 . S
C677 C676 1.392 . S
C677 H689 0.929 . S
C678 C674 1.531 . S
C678 H690 0.960 . S
C678 H691 0.962 . S
C678 H692 0.960 . S
C679 C676 1.511 . S
C679 H693 0.961 . S
C679 H694 0.961 . S
C679 H695 0.961 . S
C680 C681 1.370 . S
C680 C682 1.363 . S
C680 H696 0.931 . S
C681 C680 1.370 . S
C681 C685 1.408 . S
C682 C680 1.363 . S
C682 C683 1.370 . S
C682 C686 1.524 . S
C683 C675 1.503 . S
C683 C682 1.370 . S
C683 C684 1.403 . S
C684 C683 1.403 . S
C684 C685 1.404 . S
C684 C687 1.539 . S
C685 C681 1.408 . S
C685 C684 1.404 . S
C685 H697 0.930 . S
C686 C682 1.524 . S
C686 H698 0.956 . S
C686 H699 0.961 . S
C686 H700 0.961 . S
C687 C684 1.539 . S
C687 H701 0.958 . S
C687 H702 0.961 . S
C687 H703 0.960 . S
H688 C672 0.931 . S
H689 C677 0.929 . S
H690 C678 0.960 . S
H691 C678 0.962 . S
H692 C678 0.960 . S
H693 C679 0.961 . S
H694 C679 0.961 . S
H695 C679 0.961 . S
H696 C680 0.931 . S
H697 C685 0.930 . S
H698 C686 0.956 . S
H699 C686 0.961 . S
H700 C686 0.961 . S
H701 C687 0.958 . S
H702 C687 0.961 . S
H703 C687 0.960 . S
C704 C705 1.391 . S
C704 C706 1.394 . S
C704 H720 0.931 . S
C705 C704 1.391 . S
C705 C709 1.376 . S
C706 C704 1.394 . S
C706 C707 1.369 . S
C706 C710 1.531 . S
C707 C706 1.369 . S
C707 C708 1.410 . S
C707 C715 1.503 . S
C708 C707 1.410 . S
C708 C709 1.392 . S
C708 C711 1.511 . S
C709 C705 1.376 . S
C709 C708 1.392 . S
C709 H721 0.929 . S
C710 C706 1.531 . S
C710 H722 0.960 . S
C710 H723 0.962 . S
C710 H724 0.960 . S
C711 C708 1.511 . S
C711 H725 0.961 . S
C711 H726 0.961 . S
C711 H727 0.961 . S
C712 C713 1.370 . S
C712 C714 1.363 . S
C712 H728 0.931 . S
C713 C712 1.370 . S
C713 C717 1.408 . S
C714 C712 1.363 . S
C714 C715 1.370 . S
C714 C718 1.524 . S
C715 C707 1.503 . S
C715 C714 1.370 . S
C715 C716 1.403 . S
C716 C715 1.403 . S
C716 C717 1.404 . S
C716 C719 1.539 . S
C717 C713 1.408 . S
C717 C716 1.404 . S
C717 H729 0.930 . S
C718 C714 1.524 . S
C718 H730 0.956 . S
C718 H731 0.961 . S
C718 H732 0.961 . S
C719 C716 1.539 . S
C719 H733 0.958 . S
C719 H734 0.961 . S
C719 H735 0.960 . S
H720 C704 0.931 . S
H721 C709 0.929 . S
H722 C710 0.960 . S
H723 C710 0.962 . S
H724 C710 0.960 . S
H725 C711 0.961 . S
H726 C711 0.961 . S
H727 C711 0.961 . S
H728 C712 0.931 . S
H729 C717 0.930 . S
H730 C718 0.956 . S
H731 C718 0.961 . S
H732 C718 0.961 . S
H733 C719 0.958 . S
H734 C719 0.961 . S
H735 C719 0.960 . S
C736 C737 1.391 . S
C736 C738 1.394 . S
C736 H752 0.931 . S
C737 C736 1.391 . S
C737 C741 1.376 . S
C738 C736 1.394 . S
C738 C739 1.369 . S
C738 C742 1.531 . S
C739 C738 1.369 . S
C739 C740 1.410 . S
C739 C747 1.503 . S
C740 C739 1.410 . S
C740 C741 1.392 . S
C740 C743 1.511 . S
C741 C737 1.376 . S
C741 C740 1.392 . S
C741 H753 0.929 . S
C742 C738 1.531 . S
C742 H754 0.960 . S
C742 H755 0.962 . S
C742 H756 0.960 . S
C743 C740 1.511 . S
C743 H757 0.961 . S
C743 H758 0.961 . S
C743 H759 0.961 . S
C744 C745 1.370 . S
C744 C746 1.363 . S
C744 H760 0.931 . S
C745 C744 1.370 . S
C745 C749 1.408 . S
C746 C744 1.363 . S
C746 C747 1.370 . S
C746 C750 1.524 . S
C747 C739 1.503 . S
C747 C746 1.370 . S
C747 C748 1.403 . S
C748 C747 1.403 . S
C748 C749 1.404 . S
C748 C751 1.539 . S
C749 C745 1.408 . S
C749 C748 1.404 . S
C749 H761 0.930 . S
C750 C746 1.524 . S
C750 H762 0.956 . S
C750 H763 0.961 . S
C750 H764 0.961 . S
C751 C748 1.539 . S
C751 H765 0.958 . S
C751 H766 0.961 . S
C751 H767 0.960 . S
H752 C736 0.931 . S
H753 C741 0.929 . S
H754 C742 0.960 . S
H755 C742 0.962 . S
H756 C742 0.960 . S
H757 C743 0.961 . S
H758 C743 0.961 . S
H759 C743 0.961 . S
H760 C744 0.931 . S
H761 C749 0.930 . S
H762 C750 0.956 . S
H763 C750 0.961 . S
H764 C750 0.961 . S
H765 C751 0.958 . S
H766 C751 0.961 . S
H767 C751 0.960 . S
C768 C769 1.391 . S
C768 C770 1.394 . S
C768 H784 0.931 . S
C769 C768 1.391 . S
C769 C773 1.376 . S
C770 C768 1.394 . S
C770 C771 1.369 . S
C770 C774 1.531 . S
C771 C770 1.369 . S
C771 C772 1.410 . S
C771 C779 1.503 . S
C772 C771 1.410 . S
C772 C773 1.392 . S
C772 C775 1.511 . S
C773 C769 1.376 . S
C773 C772 1.392 . S
C773 H785 0.929 . S
C774 C770 1.531 . S
C774 H786 0.960 . S
C774 H787 0.962 . S
C774 H788 0.960 . S
C775 C772 1.511 . S
C775 H789 0.961 . S
C775 H790 0.961 . S
C775 H791 0.961 . S
C776 C777 1.370 . S
C776 C778 1.363 . S
C776 H792 0.931 . S
C777 C776 1.370 . S
C777 C781 1.408 . S
C778 C776 1.363 . S
C778 C779 1.370 . S
C778 C782 1.524 . S
C779 C771 1.503 . S
C779 C778 1.370 . S
C779 C780 1.403 . S
C780 C779 1.403 . S
C780 C781 1.404 . S
C780 C783 1.539 . S
C781 C777 1.408 . S
C781 C780 1.404 . S
C781 H793 0.930 . S
C782 C778 1.524 . S
C782 H794 0.956 . S
C782 H795 0.961 . S
C782 H796 0.961 . S
C783 C780 1.539 . S
C783 H797 0.958 . S
C783 H798 0.961 . S
C783 H799 0.960 . S
H784 C768 0.931 . S
H785 C773 0.929 . S
H786 C774 0.960 . S
H787 C774 0.962 . S
H788 C774 0.960 . S
H789 C775 0.961 . S
H790 C775 0.961 . S
H791 C775 0.961 . S
H792 C776 0.931 . S
H793 C781 0.930 . S
H794 C782 0.956 . S
H795 C782 0.961 . S
H796 C782 0.961 . S
H797 C783 0.958 . S
H798 C783 0.961 . S
H799 C783 0.960 . S
C800 C801 1.391 . S
C800 C802 1.394 . S
C800 H816 0.931 . S
C801 C800 1.391 . S
C801 C805 1.376 . S
C802 C800 1.394 . S
C802 C803 1.369 . S
C802 C806 1.531 . S
C803 C802 1.369 . S
C803 C804 1.410 . S
C803 C811 1.503 . S
C804 C803 1.410 . S
C804 C805 1.392 . S
C804 C807 1.511 . S
C805 C801 1.376 . S
C805 C804 1.392 . S
C805 H817 0.929 . S
C806 C802 1.531 . S
C806 H818 0.960 . S
C806 H819 0.962 . S
C806 H820 0.960 . S
C807 C804 1.511 . S
C807 H821 0.961 . S
C807 H822 0.961 . S
C807 H823 0.961 . S
C808 C809 1.370 . S
C808 C810 1.363 . S
C808 H824 0.931 . S
C809 C808 1.370 . S
C809 C813 1.408 . S
C810 C808 1.363 . S
C810 C811 1.370 . S
C810 C814 1.524 . S
C811 C803 1.503 . S
C811 C810 1.370 . S
C811 C812 1.403 . S
C812 C811 1.403 . S
C812 C813 1.404 . S
C812 C815 1.539 . S
C813 C809 1.408 . S
C813 C812 1.404 . S
C813 H825 0.930 . S
C814 C810 1.524 . S
C814 H826 0.956 . S
C814 H827 0.961 . S
C814 H828 0.961 . S
C815 C812 1.539 . S
C815 H829 0.958 . S
C815 H830 0.961 . S
C815 H831 0.960 . S
H816 C800 0.931 . S
H817 C805 0.929 . S
H818 C806 0.960 . S
H819 C806 0.962 . S
H820 C806 0.960 . S
H821 C807 0.961 . S
H822 C807 0.961 . S
H823 C807 0.961 . S
H824 C808 0.931 . S
H825 C813 0.930 . S
H826 C814 0.956 . S
H827 C814 0.961 . S
H828 C814 0.961 . S
H829 C815 0.958 . S
H830 C815 0.961 . S
H831 C815 0.960 . S
C832 C833 1.391 . S
C832 C834 1.394 . S
C832 H848 0.931 . S
C833 C832 1.391 . S
C833 C837 1.376 . S
C834 C832 1.394 . S
C834 C835 1.369 . S
C834 C838 1.531 . S
C835 C834 1.369 . S
C835 C836 1.410 . S
C835 C843 1.503 . S
C836 C835 1.410 . S
C836 C837 1.392 . S
C836 C839 1.511 . S
C837 C833 1.376 . S
C837 C836 1.392 . S
C837 H849 0.929 . S
C838 C834 1.531 . S
C838 H850 0.960 . S
C838 H851 0.962 . S
C838 H852 0.960 . S
C839 C836 1.511 . S
C839 H853 0.961 . S
C839 H854 0.961 . S
C839 H855 0.961 . S
C840 C841 1.370 . S
C840 C842 1.363 . S
C840 H856 0.931 . S
C841 C840 1.370 . S
C841 C845 1.408 . S
C842 C840 1.363 . S
C842 C843 1.370 . S
C842 C846 1.524 . S
C843 C835 1.503 . S
C843 C842 1.370 . S
C843 C844 1.403 . S
C844 C843 1.403 . S
C844 C845 1.404 . S
C844 C847 1.539 . S
C845 C841 1.408 . S
C845 C844 1.404 . S
C845 H857 0.930 . S
C846 C842 1.524 . S
C846 H858 0.956 . S
C846 H859 0.961 . S
C846 H860 0.961 . S
C847 C844 1.539 . S
C847 H861 0.958 . S
C847 H862 0.961 . S
C847 H863 0.960 . S
H848 C832 0.931 . S
H849 C837 0.929 . S
H850 C838 0.960 . S
H851 C838 0.962 . S
H852 C838 0.960 . S
H853 C839 0.961 . S
H854 C839 0.961 . S
H855 C839 0.961 . S
H856 C840 0.931 . S
H857 C845 0.930 . S
H858 C846 0.956 . S
H859 C846 0.961 . S
H860 C846 0.961 . S
H861 C847 0.958 . S
H862 C847 0.961 . S
H863 C847 0.960 . S
C864 C865 1.391 . S
C864 C866 1.394 . S
C864 H880 0.931 . S
C865 C864 1.391 . S
C865 C869 1.376 . S
C866 C864 1.394 . S
C866 C867 1.369 . S
C866 C870 1.531 . S
C867 C866 1.369 . S
C867 C868 1.410 . S
C867 C875 1.503 . S
C868 C867 1.410 . S
C868 C869 1.392 . S
C868 C871 1.511 . S
C869 C865 1.376 . S
C869 C868 1.392 . S
C869 H881 0.929 . S
C870 C866 1.531 . S
C870 H882 0.960 . S
C870 H883 0.962 . S
C870 H884 0.960 . S
C871 C868 1.511 . S
C871 H885 0.961 . S
C871 H886 0.961 . S
C871 H887 0.961 . S
C872 C873 1.377 . S
C872 C874 1.363 . S
C872 H888 0.931 1_455 S
C873 C872 1.377 . S
C873 C877 1.414 . S
C874 C872 1.363 . S
C874 C875 1.370 . S
C874 C878 1.524 1_455 S
C875 C867 1.503 . S
C875 C874 1.370 . S
C875 C876 1.403 . S
C876 C875 1.403 . S
C876 C877 1.404 . S
C876 C879 1.539 . S
C877 C873 1.414 . S
C877 C876 1.404 . S
C877 H889 0.930 . S
C878 C874 1.524 1_655 S
C878 H890 0.956 . S
C878 H891 0.961 . S
C878 H892 0.961 . S
C879 C876 1.539 . S
C879 H893 0.958 . S
C879 H894 0.961 . S
C879 H895 0.960 . S
H880 C864 0.931 . S
H881 C869 0.929 . S
H882 C870 0.960 . S
H883 C870 0.962 . S
H884 C870 0.960 . S
H885 C871 0.961 . S
H886 C871 0.961 . S
H887 C871 0.961 . S
H888 C872 0.931 1_655 S
H889 C877 0.930 . S
H890 C878 0.956 . S
H891 C878 0.961 . S
H892 C878 0.961 . S
H893 C879 0.958 . S
H894 C879 0.961 . S
H895 C879 0.960 . S
C896 C897 1.391 . S
C896 C898 1.394 . S
C896 H912 0.931 . S
C897 C896 1.391 . S
C897 C901 1.376 1_545 S
C898 C896 1.394 . S
C898 C899 1.369 . S
C898 C902 1.531 . S
C899 C898 1.369 . S
C899 C900 1.410 1_545 S
C899 C907 1.503 . S
C900 C899 1.410 1_565 S
C900 C901 1.392 . S
C900 C903 1.511 . S
C901 C897 1.376 1_565 S
C901 C900 1.392 . S
C901 H913 0.929 . S
C902 C898 1.531 . S
C902 H914 0.960 . S
C902 H915 0.962 . S
C902 H916 0.960 . S
C903 C900 1.511 . S
C903 H917 0.961 . S
C903 H918 0.961 . S
C903 H919 0.961 . S
C904 C905 1.370 . S
C904 C906 1.363 . S
C904 H920 0.931 1_545 S
C905 C904 1.370 . S
C905 C909 1.408 . S
C906 C904 1.363 . S
C906 C907 1.370 . S
C906 C910 1.524 1_545 S
C907 C899 1.503 . S
C907 C906 1.370 . S
C907 C908 1.403 . S
C908 C907 1.403 . S
C908 C909 1.404 . S
C908 C911 1.539 . S
C909 C905 1.408 . S
C909 C908 1.404 . S
C909 H921 0.930 . S
C910 C906 1.524 1_565 S
C910 H922 0.956 1_565 S
C910 H923 0.961 . S
C910 H924 0.961 . S
C911 C908 1.539 . S
C911 H925 0.958 . S
C911 H926 0.961 . S
C911 H927 0.960 . S
H912 C896 0.931 . S
H913 C901 0.929 . S
H914 C902 0.960 . S
H915 C902 0.962 . S
H916 C902 0.960 . S
H917 C903 0.961 . S
H918 C903 0.961 . S
H919 C903 0.961 . S
H920 C904 0.931 1_565 S
H921 C909 0.930 . S
H922 C910 0.956 1_545 S
H923 C910 0.961 . S
H924 C910 0.961 . S
H925 C911 0.958 . S
H926 C911 0.961 . S
H927 C911 0.960 . S
C928 C929 1.391 . S
C928 C930 1.394 . S
C928 H944 0.931 . S
C929 C928 1.391 . S
C929 C933 1.376 . S
C930 C928 1.394 . S
C930 C931 1.369 . S
C930 C934 1.531 . S
C931 C930 1.369 . S
C931 C932 1.410 . S
C931 C939 1.503 . S
C932 C931 1.410 . S
C932 C933 1.392 . S
C932 C935 1.511 . S
C933 C929 1.376 . S
C933 C932 1.392 . S
C933 H945 0.929 . S
C934 C930 1.531 . S
C934 H946 0.960 . S
C934 H947 0.962 . S
C934 H948 0.960 . S
C935 C932 1.511 . S
C935 H949 0.961 . S
C935 H950 0.961 . S
C935 H951 0.961 . S
C936 C937 1.370 . S
C936 C938 1.363 . S
C936 H952 0.931 . S
C937 C936 1.370 . S
C937 C941 1.408 . S
C938 C936 1.363 . S
C938 C939 1.370 . S
C938 C942 1.524 . S
C939 C931 1.503 . S
C939 C938 1.370 . S
C939 C940 1.403 . S
C940 C939 1.403 . S
C940 C941 1.404 . S
C940 C943 1.539 . S
C941 C937 1.408 . S
C941 C940 1.404 . S
C941 H953 0.930 . S
C942 C938 1.524 . S
C942 H954 0.956 . S
C942 H955 0.961 . S
C942 H956 0.961 . S
C943 C940 1.539 . S
C943 H957 0.958 . S
C943 H958 0.961 . S
C943 H959 0.960 . S
H944 C928 0.931 . S
H945 C933 0.929 . S
H946 C934 0.960 . S
H947 C934 0.962 . S
H948 C934 0.960 . S
H949 C935 0.961 . S
H950 C935 0.961 . S
H951 C935 0.961 . S
H952 C936 0.931 . S
H953 C941 0.930 . S
H954 C942 0.956 . S
H955 C942 0.961 . S
H956 C942 0.961 . S
H957 C943 0.958 . S
H958 C943 0.961 . S
H959 C943 0.960 . S
C960 C961 1.391 . S
C960 C962 1.394 . S
C960 H976 0.931 . S
C961 C960 1.391 . S
C961 C965 1.376 1_545 S
C962 C960 1.394 . S
C962 C963 1.369 . S
C962 C966 1.531 . S
C963 C962 1.369 . S
C963 C964 1.410 1_545 S
C963 C971 1.503 . S
C964 C963 1.410 1_565 S
C964 C965 1.392 . S
C964 C967 1.511 . S
C965 C961 1.376 1_565 S
C965 C964 1.392 . S
C965 H977 0.929 . S
C966 C962 1.531 . S
C966 H978 0.960 . S
C966 H979 0.962 . S
C966 H980 0.960 . S
C967 C964 1.511 . S
C967 H981 0.961 . S
C967 H982 0.961 . S
C967 H983 0.961 . S
C968 C969 1.370 . S
C968 C970 1.363 . S
C968 H984 0.931 . S
C969 C968 1.370 . S
C969 C973 1.408 1_565 S
C970 C968 1.363 . S
C970 C971 1.370 1_565 S
C970 C974 1.524 . S
C971 C963 1.503 . S
C971 C970 1.370 1_545 S
C971 C972 1.403 . S
C972 C971 1.403 . S
C972 C973 1.404 . S
C972 C975 1.539 . S
C973 C969 1.408 1_545 S
C973 C972 1.404 . S
C973 H985 0.930 . S
C974 C970 1.524 . S
C974 H986 0.956 . S
C974 H987 0.961 . S
C974 H988 0.961 . S
C975 C972 1.539 . S
C975 H989 0.958 . S
C975 H990 0.961 . S
C975 H991 0.960 . S
H976 C960 0.931 . S
H977 C965 0.929 . S
H978 C966 0.960 . S
H979 C966 0.962 . S
H980 C966 0.960 . S
H981 C967 0.961 . S
H982 C967 0.961 . S
H983 C967 0.961 . S
H984 C968 0.931 . S
H985 C973 0.930 . S
H986 C974 0.956 . S
H987 C974 0.961 . S
H988 C974 0.961 . S
H989 C975 0.958 . S
H990 C975 0.961 . S
H991 C975 0.960 . S
C992 C993 1.391 . S
C992 C994 1.394 . S
C992 H1008 0.931 . S
C993 C992 1.391 . S
C993 C997 1.376 . S
C994 C992 1.394 . S
C994 C995 1.369 . S
C994 C998 1.531 . S
C995 C994 1.369 . S
C995 C996 1.410 . S
C995 C1003 1.503 . S
C996 C995 1.410 . S
C996 C997 1.392 . S
C996 C999 1.511 . S
C997 C993 1.376 . S
C997 C996 1.392 . S
C997 H1009 0.929 . S
C998 C994 1.531 . S
C998 H1010 0.960 . S
C998 H1011 0.962 . S
C998 H1012 0.960 . S
C999 C996 1.511 . S
C999 H1013 0.961 . S
C999 H1014 0.961 . S
C999 H1015 0.961 . S
C1000 C1001 1.370 . S
C1000 C1002 1.363 . S
C1000 H1016 0.931 . S
C1001 C1000 1.370 . S
C1001 C1005 1.408 . S
C1002 C1000 1.363 . S
C1002 C1003 1.370 . S
C1002 C1006 1.524 . S
C1003 C995 1.503 . S
C1003 C1002 1.370 . S
C1003 C1004 1.403 . S
C1004 C1003 1.403 . S
C1004 C1005 1.404 . S
C1004 C1007 1.539 . S
C1005 C1001 1.408 . S
C1005 C1004 1.404 . S
C1005 H1017 0.930 . S
C1006 C1002 1.524 . S
C1006 H1018 0.956 . S
C1006 H1019 0.961 . S
C1006 H1020 0.961 . S
C1007 C1004 1.539 . S
C1007 H1021 0.958 . S
C1007 H1022 0.961 . S
C1007 H1023 0.960 . S
H1008 C992 0.931 . S
H1009 C997 0.929 . S
H1010 C998 0.960 . S
H1011 C998 0.962 . S
H1012 C998 0.960 . S
H1013 C999 0.961 . S
H1014 C999 0.961 . S
H1015 C999 0.961 . S
H1016 C1000 0.931 . S
H1017 C1005 0.930 . S
H1018 C1006 0.956 . S
H1019 C1006 0.961 . S
H1020 C1006 0.961 . S
H1021 C1007 0.958 . S
H1022 C1007 0.961 . S
H1023 C1007 0.960 . S
C1024 C1025 1.391 1_655 S
C1024 C1026 1.394 . S
C1024 H1040 0.931 . S
C1025 C1024 1.391 1_455 S
C1025 C1029 1.376 . S
C1026 C1024 1.394 . S
C1026 C1027 1.369 1_655 S
C1026 C1030 1.531 . S
C1027 C1026 1.369 1_455 S
C1027 C1028 1.410 . S
C1027 C1035 1.503 . S
C1028 C1027 1.410 . S
C1028 C1029 1.392 . S
C1028 C1031 1.511 . S
C1029 C1025 1.376 . S
C1029 C1028 1.392 . S
C1029 H1041 0.929 . S
C1030 C1026 1.531 . S
C1030 H1042 0.960 . S
C1030 H1043 0.962 . S
C1030 H1044 0.960 . S
C1031 C1028 1.511 . S
C1031 H1045 0.961 . S
C1031 H1046 0.961 . S
C1031 H1047 0.961 . S
C1032 C1033 1.365 1_655 S
C1032 C1034 1.363 . S
C1032 H1048 0.931 . S
C1033 C1032 1.365 1_455 S
C1033 C1037 1.415 . S
C1034 C1032 1.363 . S
C1034 C1035 1.370 1_655 S
C1034 C1038 1.524 . S
C1035 C1027 1.503 . S
C1035 C1034 1.370 1_455 S
C1035 C1036 1.403 . S
C1036 C1035 1.403 . S
C1036 C1037 1.404 . S
C1036 C1039 1.539 . S
C1037 C1033 1.415 . S
C1037 C1036 1.404 . S
C1037 H1049 0.930 . S
C1038 C1034 1.524 . S
C1038 H1050 0.956 . S
C1038 H1051 0.961 1_655 S
C1038 H1052 0.961 . S
C1039 C1036 1.539 . S
C1039 H1053 0.958 . S
C1039 H1054 0.961 . S
C1039 H1055 0.960 . S
H1040 C1024 0.931 . S
H1041 C1029 0.929 . S
H1042 C1030 0.960 . S
H1043 C1030 0.962 . S
H1044 C1030 0.960 . S
H1045 C1031 0.961 . S
H1046 C1031 0.961 . S
H1047 C1031 0.961 . S
H1048 C1032 0.931 . S
H1049 C1037 0.930 . S
H1050 C1038 0.956 . S
H1051 C1038 0.961 1_455 S
H1052 C1038 0.961 . S
H1053 C1039 0.958 . S
H1054 C1039 0.961 . S
H1055 C1039 0.960 . S
C481 C7 0.690 . S
C489 C451 0.561 . S
C513 C51 1.931 . S
C521 C301 1.783 . S
C545 C87 1.211 . S
C553 C361 1.198 . S
C577 C16 0.339 . S
C585 C421 0.411 . S
C617 C331 2.048 . S
C609 C42 2.041 . S
C649 C391 1.333 . S
C641 C96 1.294 . S
C673 C47 1.187 . S
C681 C181 1.167 . S
C705 C91 3.104 . S
C713 C271 3.111 . S
C737 C2 2.071 . S
C745 C151 2.089 . S
C777 C211 1.316 . S
C769 C56 1.319 . S
C809 C241 2.872 . S
C801 C82 3.011 . S
C833 C11 1.922 . S
C841 C121 1.776 . S
C873 C260 1.740 1_554 S
C865 C19 1.718 . S
C897 C50 1.314 . S
C905 C140 1.359 . S
C929 C99 1.435 . S
C937 C200 1.474 . S
C969 C380 1.453 . S
C961 C59 1.428 . S
C1001 C440 1.084 1_556 S
C993 C90 1.058 . S
C1025 C10 1.302 . S
C1033 C320 1.345 . S
