# Generated by pormake.
# Topology zzz, (3,6)-cn, num edge types: 1
# Building blocks:
#     Node 0, Type 0, BuildingBlock: PAMTOO_clean_linker_0, # of connection points: 3
#     Node 1, Type 0, BuildingBlock: PAMTOO_clean_linker_0, # of connection points: 3
#     Node 2, Type 0, BuildingBlock: PAMTOO_clean_linker_0, # of connection points: 3
#     Node 3, Type 0, BuildingBlock: PAMTOO_clean_linker_0, # of connection points: 3
#     Node 4, Type 0, BuildingBlock: PAMTOO_clean_linker_0, # of connection points: 3
#     Node 5, Type 0, BuildingBlock: PAMTOO_clean_linker_0, # of connection points: 3
#     Node 6, Type 0, BuildingBlock: PAMTOO_clean_linker_0, # of connection points: 3
#     Node 7, Type 0, BuildingBlock: PAMTOO_clean_linker_0, # of connection points: 3
#     Node 8, Type 1, BuildingBlock: PAMTUU_clean_sbu_0, # of connection points: 6
#     Node 9, Type 1, BuildingBlock: PAMTUU_clean_sbu_0, # of connection points: 6
#     Node 10, Type 1, BuildingBlock: PAMTUU_clean_sbu_0, # of connection points: 6
#     Node 11, Type 1, BuildingBlock: PAMTUU_clean_sbu_0, # of connection points: 6
#     Edge 12, Type (0, 1), BuildingBlock: EZIPEK_clean_linker_0, # of connection points: 2
#     Edge 13, Type (0, 1), BuildingBlock: EZIPEK_clean_linker_0, # of connection points: 2
#     Edge 14, Type (0, 1), BuildingBlock: EZIPEK_clean_linker_0, # of connection points: 2
#     Edge 15, Type (0, 1), BuildingBlock: EZIPEK_clean_linker_0, # of connection points: 2
#     Edge 16, Type (0, 1), BuildingBlock: EZIPEK_clean_linker_0, # of connection points: 2
#     Edge 17, Type (0, 1), BuildingBlock: EZIPEK_clean_linker_0, # of connection points: 2
#     Edge 18, Type (0, 1), BuildingBlock: EZIPEK_clean_linker_0, # of connection points: 2
#     Edge 19, Type (0, 1), BuildingBlock: EZIPEK_clean_linker_0, # of connection points: 2
#     Edge 20, Type (0, 1), BuildingBlock: EZIPEK_clean_linker_0, # of connection points: 2
#     Edge 21, Type (0, 1), BuildingBlock: EZIPEK_clean_linker_0, # of connection points: 2
#     Edge 22, Type (0, 1), BuildingBlock: EZIPEK_clean_linker_0, # of connection points: 2
#     Edge 23, Type (0, 1), BuildingBlock: EZIPEK_clean_linker_0, # of connection points: 2
#     Edge 24, Type (0, 1), BuildingBlock: EZIPEK_clean_linker_0, # of connection points: 2
#     Edge 25, Type (0, 1), BuildingBlock: EZIPEK_clean_linker_0, # of connection points: 2
#     Edge 26, Type (0, 1), BuildingBlock: EZIPEK_clean_linker_0, # of connection points: 2
#     Edge 27, Type (0, 1), BuildingBlock: EZIPEK_clean_linker_0, # of connection points: 2
#     Edge 28, Type (0, 1), BuildingBlock: EZIPEK_clean_linker_0, # of connection points: 2
#     Edge 29, Type (0, 1), BuildingBlock: EZIPEK_clean_linker_0, # of connection points: 2
#     Edge 30, Type (0, 1), BuildingBlock: EZIPEK_clean_linker_0, # of connection points: 2
#     Edge 31, Type (0, 1), BuildingBlock: EZIPEK_clean_linker_0, # of connection points: 2
#     Edge 32, Type (0, 1), BuildingBlock: EZIPEK_clean_linker_0, # of connection points: 2
#     Edge 33, Type (0, 1), BuildingBlock: EZIPEK_clean_linker_0, # of connection points: 2
#     Edge 34, Type (0, 1), BuildingBlock: EZIPEK_clean_linker_0, # of connection points: 2
#     Edge 35, Type (0, 1), BuildingBlock: EZIPEK_clean_linker_0, # of connection points: 2
# Relax obj value: 0.277
# Max RMSD: 0.252
# Mean RMSD: 0.114
data_MOF--net-zzz--node1-PAMTUU_clean_sbu_0--node2-PAMTOO_clean_linker_0--edge1-EZIPEK_clean_linker_0
_symmetry_space_group_name_H-M    P1
_symmetry_Int_Tables_number       1
_symmetry_cell_setting            triclinic
loop_
_symmetry_equiv_pos_as_xyz
'x, y, z'
_cell_length_a     35.53735
_cell_length_b     40.277732
_cell_length_c     11.921159
_cell_angle_alpha  103.06869
_cell_angle_beta   89.925908
_cell_angle_gamma 89.924573
loop_
_atom_site_label
_atom_site_type_symbol
_atom_site_fract_x
_atom_site_fract_y
_atom_site_fract_z
_atom_type_partial_charge
H0 H 0.88317 0.57885 0.56963 0.0
H1 H 0.77167 0.58384 0.43816 0.0
H2 H 0.80664 0.4955 0.55654 0.0
H3 H 0.7612 0.48878 0.29082 0.0
C4 C 0.74601 0.51309 0.32455 0.0
O5 O 0.75163 0.52283 0.44407 0.0
H6 H 0.7603 0.53148 0.28167 0.0
C7 C 0.85528 0.56821 0.55122 0.0
C8 C 0.84788 0.53662 0.57781 0.0
C9 C 0.8289 0.58442 0.49304 0.0
C10 C 0.79249 0.57081 0.47755 0.0
C11 C 0.78466 0.53785 0.49041 0.0
C12 C 0.81246 0.52068 0.54306 0.0
H13 H 0.07906 0.83341 0.49292 0.0
H14 H 0.08896 0.73668 0.25868 0.0
H15 H 1.0237 0.74616 0.57052 0.0
H16 H 0.07503 0.67168 0.43551 0.0
C17 C 0.06691 0.67728 0.35189 0.0
O18 O 1.04236 0.70463 0.37095 0.0
H19 H 0.09385 0.68388 0.31455 0.0
C20 C 0.07246 0.80639 0.47062 0.0
C21 C 0.05046 0.79225 0.54507 0.0
C22 C 0.08651 0.78637 0.36862 0.0
C23 C 0.07767 0.75185 0.33812 0.0
C24 C 0.05416 0.73724 0.40877 0.0
C25 C 1.04134 0.75731 0.51468 0.0
H26 H 0.71973 0.05118 0.52373 0.0
H27 H 0.81802 0.03439 0.31061 0.0
H28 H 0.79332 0.96652 0.53354 0.0
H29 H 0.88854 0.96866 0.44485 0.0
C30 C 0.87764 0.98726 0.39686 0.0
O31 O 0.84015 0.97936 0.36821 0.0
H32 H 0.87967 0.0115 0.46215 0.0
C33 C 0.74491 0.03636 0.49565 0.0
C34 C 0.75284 0.0077 0.54034 0.0
C35 C 0.76879 0.04656 0.41605 0.0
C36 C 0.80074 0.02733 0.3762 0.0
C37 C 0.81001 0.99848 0.41706 0.0
C38 C 0.78629 0.9888 0.50123 0.0
H39 H 0.55413 0.67744 0.25173 0.0
H40 H 0.52021 0.74389 0.035 0.0
H41 H 0.58213 0.78389 0.34825 0.0
H42 H 0.57232 0.79118 1.00517 0.0
C43 C 0.57299 0.81004 0.0892 0.0
O44 O 0.54875 0.79987 0.16666 0.0
H45 H 0.60251 0.8089 0.11846 0.0
C46 C 0.55226 0.70296 0.23607 0.0
C47 C 0.5694 0.72986 0.3128 0.0
C48 C 0.53522 0.70746 0.13552 0.0
C49 C 0.53322 0.74031 0.11351 0.0
C50 C 0.55017 0.76821 0.1899 0.0
C51 C 0.56856 0.76282 0.28988 0.0
H52 H 0.24079 0.41525 0.17495 0.0
H53 H 0.35126 0.4229 0.32735 0.0
H54 H 0.30695 0.50522 0.19154 0.0
H55 H 0.34634 0.50548 0.46606 0.0
C56 C 0.37163 0.50459 0.4106 0.0
O57 O 0.36579 0.48335 0.3017 0.0
H58 H 0.3733 0.53125 0.40012 0.0
C59 C 0.26682 0.42892 0.19906 0.0
C60 C 0.27013 0.4611 0.17377 0.0
C61 C 0.29453 0.41557 0.26157 0.0
C62 C 0.3286 0.43348 0.28582 0.0
C63 C 0.33298 0.46623 0.26628 0.0
C64 C 0.30366 0.48012 0.20875 0.0
H65 H 0.99858 0.15104 0.26097 0.0
H66 H 0.99248 0.24964 0.48601 0.0
H67 H 0.06192 0.23392 0.18076 0.0
H68 H 0.09109 0.27858 0.46171 0.0
C69 C 0.06203 0.28878 0.47426 0.0
O70 O 1.04177 0.27841 0.37309 0.0
H71 H 0.05043 0.27704 0.54295 0.0
C72 C 1.00679 0.17769 0.28111 0.0
C73 C 1.03066 0.18999 0.2063 0.0
C74 C 0.99323 0.19917 0.38129 0.0
C75 C 1.00296 0.2335 0.40705 0.0
C76 C 1.02918 0.24593 0.33829 0.0
C77 C 1.04276 0.2242 0.23634 0.0
H78 H 0.35982 0.07132 0.27368 0.0
H79 H 0.25575 0.06322 0.45112 0.0
H80 H 0.28666 0.98615 0.15345 0.0
H81 H 0.19942 0.04645 0.33056 0.0
C82 C 0.19883 0.01869 0.32848 0.0
O83 O 0.23544 0.0059 0.32546 0.0
H84 H 0.18586 0.00598 0.24531 0.0
C85 C 0.3333 0.0588 0.28122 0.0
C86 C 0.32659 0.02796 0.20217 0.0
C87 C 0.30886 0.07154 0.37458 0.0
C88 C 0.27512 0.05408 0.38103 0.0
C89 C 0.26647 0.0236 0.30285 0.0
C90 C 0.29229 0.01039 0.21189 0.0
H91 H 0.54311 0.32932 0.5443 0.0
H92 H 0.58328 0.26117 0.74746 0.0
H93 H 0.51264 0.22341 0.45122 0.0
H94 H 0.49807 0.18681 0.63631 0.0
C95 C 0.52447 0.19249 0.68694 0.0
O96 O 0.55048 0.20643 0.62368 0.0
H97 H 0.51565 0.21153 0.76516 0.0
C98 C 0.54443 0.30384 0.56043 0.0
C99 C 0.52545 0.27743 0.48712 0.0
C100 C 0.56543 0.29838 0.65302 0.0
C101 C 0.56705 0.26556 0.6753 0.0
C102 C 0.54749 0.23836 0.60398 0.0
C103 C 0.52689 0.2443 0.50844 0.0
Tb104 Tb 1.00599 0.99268 0.7652 0.0
Tb105 Tb 0.07452 0.98821 0.93957 0.0
C106 C 0.98982 0.98671 0.02712 0.0
C107 C 0.94256 0.02965 0.5932 0.0
C108 C 0.93665 0.09569 0.55561 0.0
C109 C 0.91298 0.08572 0.63584 0.0
C110 C 0.91578 0.05276 0.65414 0.0
C111 C 0.9639 0.03905 0.50618 0.0
C112 C 0.9611 0.0719 0.48819 0.0
C113 C 0.95257 0.99887 0.63422 0.0
O114 O 1.0172 0.04587 0.84008 0.0
O115 O 0.0669 0.04287 0.9606 0.0
O116 O 0.09737 0.98142 0.76423 0.0
O117 O 0.05508 0.01272 0.6909 0.0
O118 O 0.10496 1.00117 0.0936 0.0
O119 O 0.12859 0.96753 0.94432 0.0
O120 O 1.04808 0.93846 0.90512 0.0
O121 O 1.02525 0.93993 0.7273 0.0
O122 O 0.97775 0.98573 0.92208 0.0
O123 O 1.02588 0.98875 0.05376 0.0
C124 C 1.0418 0.06049 0.91724 0.0
O125 O 0.98428 0.98387 0.59688 0.0
O126 O 0.94879 1.0021 0.74482 0.0
C127 C 0.08891 0.99954 0.6892 0.0
C128 C 0.1384 0.95274 0.11912 0.0
C129 C 0.14295 0.89189 0.19419 0.0
C130 C 0.17277 0.90152 0.13139 0.0
C131 C 0.17065 0.93212 0.09496 0.0
C132 C 0.10973 0.9438 0.18759 0.0
C133 C 0.1123 0.9139 0.22641 0.0
C134 C 0.13145 0.97916 0.05484 0.0
C135 C 1.03594 0.92282 0.80337 0.0
H136 H 0.89416 0.10394 0.68881 0.0
H137 H 0.89873 0.04609 0.72114 0.0
H138 H 0.98442 0.02182 0.45671 0.0
H139 H 0.97946 0.07935 0.42548 0.0
H140 H 0.19639 0.88451 0.10499 0.0
H141 H 0.1928 0.93842 0.04081 0.0
H142 H 0.08404 0.95851 0.20401 0.0
H143 H 0.08889 0.90657 0.27396 0.0
Tb144 Tb 0.53171 0.98583 0.77815 0.0
Tb145 Tb 0.55912 0.02389 0.02843 0.0
C146 C 0.55201 0.94188 0.95968 0.0
C147 C 0.46696 0.99506 0.57604 0.0
C148 C 0.41329 0.04516 0.56305 0.0
C149 C 0.41101 0.01259 0.48889 0.0
C150 C 0.43791 0.98745 0.49509 0.0
C151 C 0.46842 0.02771 0.64925 0.0
C152 C 0.44209 0.05252 0.64314 0.0
C153 C 0.49458 0.96981 0.59657 0.0
O154 O 0.48353 0.01108 0.88081 0.0
O155 O 0.50213 0.00741 0.05715 0.0
O156 O 0.54354 0.06438 0.93722 0.0
O157 O 0.55578 0.03385 0.7588 0.0
O158 O 0.59434 0.02894 0.172 0.0
O159 O 0.54933 0.06487 0.16974 0.0
O160 O 0.61124 0.01607 0.92126 0.0
O161 O 0.59222 0.97795 0.75595 0.0
O162 O 0.54433 0.94203 0.85159 0.0
O163 O 0.55666 0.9703 0.03892 0.0
C164 C 0.47478 0.009 0.98576 0.0
O165 O 0.52941 0.97992 0.59805 0.0
O166 O 0.48718 0.95746 0.68629 0.0
C167 C 0.55061 0.06344 0.82782 0.0
C168 C 0.6036 0.08442 0.28001 0.0
C169 C 0.66936 0.12234 0.34054 0.0
C170 C 0.6566 0.09974 0.40717 0.0
C171 C 0.6241 0.08071 0.37629 0.0
C172 C 0.6123 0.11116 0.22692 0.0
C173 C 0.64512 0.1302 0.2572 0.0
C174 C 0.57793 0.05692 0.22688 0.0
C175 C 0.61886 0.99628 0.81816 0.0
H176 H 0.38808 0.00667 0.42822 0.0
H177 H 0.43566 0.9623 0.43913 0.0
H178 H 0.4899 0.03426 0.71296 0.0
H179 H 0.44397 0.07732 0.70177 0.0
H180 H 0.67408 0.09338 0.47363 0.0
H181 H 0.61712 0.06078 0.42055 0.0
H182 H 0.59535 0.11557 0.15687 0.0
H183 H 0.65316 0.14864 0.20824 0.0
Tb184 Tb 0.52608 0.48979 0.96512 0.0
Tb185 Tb 0.58676 0.51252 0.7862 0.0
C186 C 0.50094 0.49722 0.718 0.0
C187 C 0.4856 0.4325 0.1422 0.0
C188 C 0.48984 0.3718 0.22637 0.0
C189 C 0.46776 0.37299 0.12972 0.0
C190 C 0.46561 0.40297 0.08828 0.0
C191 C 0.50712 0.43134 0.24052 0.0
C192 C 0.50929 0.40133 0.28173 0.0
C193 C 0.48389 0.46405 0.09541 0.0
O194 O 0.5446 0.4455 0.83717 0.0
O195 O 0.60362 0.46088 0.79361 0.0
O196 O 0.61403 0.52291 0.95675 0.0
O197 O 0.58191 0.48526 0.03897 0.0
O198 O 0.60464 0.51431 0.61825 0.0
O199 O 0.63408 0.54195 0.76718 0.0
O200 O 0.54813 0.55449 0.84136 0.0
O201 O 0.52865 0.54568 0.01592 0.0
O202 O 0.49184 0.5036 0.82852 0.0
O203 O 0.53646 0.49212 0.68519 0.0
C204 C 0.57937 0.43733 0.80571 0.0
O205 O 0.50853 0.48796 0.13292 0.0
O206 O 0.47912 0.45969 0.98474 0.0
C207 C 0.61129 0.50484 0.03587 0.0
C208 C 0.62608 0.57083 0.61652 0.0
C209 C 0.61733 0.63404 0.55155 0.0
C210 C 0.59894 0.6046 0.49041 0.0
C211 C 0.60331 0.57332 0.52219 0.0
C212 C 0.64508 0.60031 0.67597 0.0
C213 C 0.64046 0.63161 0.64463 0.0
C214 C 0.62893 0.53843 0.6572 0.0
C215 C 0.53514 0.56605 0.94553 0.0
H216 H 0.45235 0.35062 0.08595 0.0
H217 H 0.44846 0.40292 0.01322 0.0
H218 H 0.52256 0.45355 0.28538 0.0
H219 H 0.52628 0.40113 0.35695 0.0
H220 H 0.58085 0.60593 0.41846 0.0
H221 H 0.58839 0.55126 0.4739 0.0
H222 H 0.66306 0.59935 0.74846 0.0
H223 H 0.6548 0.65397 0.69326 0.0
Tb224 Tb 0.07838 0.50637 0.78362 0.0
Tb225 Tb 1.0337 0.47405 0.9696 0.0
C226 C 1.04865 0.55136 0.01514 0.0
C227 C 0.15641 0.5035 0.60164 0.0
C228 C 0.20702 0.44929 0.52186 0.0
C229 C 0.1909 0.46731 0.44508 0.0
C230 C 0.16474 0.49341 0.48408 0.0
C231 C 0.17556 0.48778 0.67891 0.0
C232 C 0.19823 0.45944 0.63891 0.0
C233 C 0.12212 0.5233 0.64164 0.0
O234 O 0.11948 0.4788 0.86491 0.0
O235 O 0.09159 0.48182 0.03845 0.0
O236 O 0.05962 0.43022 0.85677 0.0
O237 O 0.06285 0.45433 0.70033 0.0
O238 O 1.02181 0.47406 0.14253 0.0
O239 O 0.99087 0.44168 1.00496 0.0
O240 O 0.99357 0.47879 0.8327 0.0
O241 O 1.0199 0.52195 0.76304 0.0
O242 O 0.07642 0.54617 0.94089 0.0
O243 O 1.02291 0.52826 0.01448 0.0
C244 C 0.12232 0.4797 0.97523 0.0
O245 O 0.09089 0.50682 0.61118 0.0
O246 O 0.12157 0.53857 0.7504 0.0
C247 C 0.0629 0.4275 0.74546 0.0
C248 C 0.9568 0.4795 0.14939 0.0
C249 C 0.91044 0.53721 0.22131 0.0
C250 C 0.926 0.52047 0.30225 0.0
C251 C 0.94951 0.49215 0.26672 0.0
C252 C 0.93905 0.49497 0.0686 0.0
C253 C 0.91733 0.52421 0.10427 0.0
C254 C 0.99023 0.45817 0.11266 0.0
C255 C 0.99049 0.50319 0.77594 0.0
H256 H 0.19693 0.4598 0.3538 0.0
H257 H 0.14998 0.50466 0.42232 0.0
H258 H 0.17149 0.49613 0.77051 0.0
H259 H 0.20856 0.44534 0.69981 0.0
H260 H 0.92143 0.53042 0.39351 0.0
H261 H 0.96371 0.48148 0.3309 0.0
H262 H 0.94394 0.48598 0.97754 0.0
H263 H 0.90653 0.53704 0.04046 0.0
C264 C 0.18425 0.00959 0.53992 0.0
C265 C 0.17234 0.01382 0.42879 0.0
C266 C 0.10654 0.00603 0.48729 0.0
C267 C 0.11782 1.00439 0.59998 0.0
N268 N 0.16745 0.01667 0.74147 0.0
N269 N 0.1195 0.03192 0.32829 0.0
C270 C 0.15672 0.00928 0.62843 0.0
C271 C 0.1327 0.01688 0.41226 0.0
N272 N 0.22138 0.00655 0.56494 0.0
N273 N 0.07114 0.99636 0.44908 0.0
H274 H 0.13691 0.04243 0.27503 0.0
H275 H 0.0911 0.03767 0.32113 0.0
H276 H 0.05252 0.98438 0.49466 0.0
H277 H 0.06197 0.9964 0.36616 0.0
H278 H 0.23022 0.99792 0.63673 0.0
H279 H 0.24359 0.01137 0.51495 0.0
H280 H 0.19466 0.0241 0.76835 0.0
H281 H 0.1484 0.01992 0.80958 0.0
C282 C 0.55475 0.15897 0.82546 0.0
C283 C 0.53934 0.15935 0.71555 0.0
C284 C 0.5415 0.0964 0.66458 0.0
C285 C 0.55211 0.09583 0.7807 0.0
N286 N 0.58609 0.12635 0.94596 0.0
N287 N 0.53215 0.12908 0.51833 0.0
C288 C 0.56352 0.12716 0.85414 0.0
C289 C 0.53695 0.12823 0.63163 0.0
N290 N 0.56153 0.18899 0.90269 0.0
N291 N 0.53548 0.06696 0.58389 0.0
H292 H 0.52934 0.15161 0.49004 0.0
H293 H 0.53469 0.10785 0.45028 0.0
H294 H 0.5477 0.04372 0.58553 0.0
H295 H 0.51901 0.06582 0.5109 0.0
H296 H 0.56676 0.19055 0.98969 0.0
H297 H 0.56151 0.21255 0.88025 0.0
H298 H 0.59864 0.14783 0.99723 0.0
H299 H 0.59645 0.10357 0.96116 0.0
C300 C 0.44266 0.51223 0.4577 0.0
C301 C 0.40785 0.49631 0.47326 0.0
C302 C 0.43809 0.4743 0.62991 0.0
C303 C 0.47019 0.49521 0.62799 0.0
N304 N 0.50091 0.5373 0.54395 0.0
N305 N 0.37568 0.4576 0.57051 0.0
C306 C 0.47217 0.51465 0.54168 0.0
C307 C 0.4066 0.4761 0.55735 0.0
N308 N 0.44789 0.52456 0.36112 0.0
N309 N 0.43734 0.45202 0.70095 0.0
H310 H 0.3515 0.45639 0.52057 0.0
H311 H 0.3515 0.45639 0.52057 0.0
H312 H 0.46044 0.4478 0.74978 0.0
H313 H 0.41424 0.43644 0.70612 0.0
H314 H 0.47369 0.53348 0.3387 0.0
H315 H 0.4276 0.52218 0.29665 0.0
H316 H 0.50172 0.55484 0.4918 0.0
H317 H 0.52224 0.54099 0.60534 0.0
C318 C 0.09331 0.34727 0.52693 0.0
C319 C 0.0601 0.32735 0.52093 0.0
C320 C 1.02785 0.37473 0.6523 0.0
C321 C 0.062 0.39334 0.66664 0.0
N322 N 0.12747 0.39829 0.62123 0.0
N323 N 0.9926 0.32681 0.54445 0.0
C324 C 0.09476 0.38 0.60397 0.0
C325 C 1.02639 0.34247 0.57382 0.0
N326 N 0.12267 0.3354 0.45472 0.0
N327 N 0.99687 0.38759 0.71589 0.0
H328 H 0.98983 0.30451 0.48168 0.0
H329 H 0.96664 0.33782 0.57095 0.0
H330 H 0.99579 0.41206 0.7682 0.0
H331 H 0.97286 0.37343 0.72283 0.0
H332 H 0.14824 0.34779 0.45477 0.0
H333 H 0.12028 0.31417 0.38637 0.0
H334 H 0.15366 0.38867 0.5911 0.0
H335 H 0.12891 0.42294 0.6722 0.0
C336 C 0.92087 0.95595 0.23243 0.0
C337 C 0.90325 0.98698 0.29041 0.0
C338 C 0.93966 0.01699 0.16492 0.0
C339 C 0.96072 0.98688 0.11977 0.0
N340 N 0.97366 0.92817 0.11828 0.0
N341 N 0.89654 0.04787 0.30928 0.0
C342 C 0.95195 0.95654 0.15598 0.0
C343 C 0.91253 0.01765 0.25487 0.0
N344 N 0.90695 0.92559 0.24696 0.0
N345 N 0.94562 0.04517 0.12126 0.0
H346 H 0.87592 0.05018 0.37227 0.0
H347 H 0.90534 0.07144 0.29747 0.0
H348 H 0.96716 0.04659 0.06314 0.0
H349 H 0.92808 0.06643 0.13664 0.0
H350 H 0.91603 0.90201 0.19928 0.0
H351 H 0.88335 0.92385 0.29739 0.0
H352 H 0.97178 0.90645 0.15158 0.0
H353 H 0.99569 0.92729 0.0598 0.0
C354 C 0.53371 0.84979 0.99227 0.0
C355 C 0.563 0.84561 0.06949 0.0
C356 C 0.58576 0.90326 0.06879 0.0
C357 C 0.55566 0.90835 0.99567 0.0
N358 N 0.49563 0.88859 0.91103 0.0
N359 N 0.60698 0.87393 0.21351 0.0
C360 C 0.52812 0.88217 0.9637 0.0
C361 C 0.58584 0.87413 0.11809 0.0
N362 N 0.51128 0.82273 0.94502 0.0
N363 N 0.61565 0.92513 0.08646 0.0
H364 H 0.60566 0.85422 0.25702 0.0
H365 H 0.62178 0.89521 0.25777 0.0
H366 H 0.61838 0.94536 0.04578 0.0
H367 H 0.63981 0.92073 0.13045 0.0
H368 H 0.49326 0.82255 0.87605 0.0
H369 H 0.51179 0.79978 0.97148 0.0
H370 H 0.47275 0.87204 0.89771 0.0
H371 H 0.48979 0.91181 0.89025 0.0
C372 C 0.68917 0.47879 0.22685 0.0
C373 C 0.70426 0.5109 0.2827 0.0
C374 C 0.65214 0.5386 0.19831 0.0
C375 C 0.64216 0.50675 0.12508 0.0
N376 N 0.6539 0.44627 0.06482 0.0
N377 N 0.69563 0.57147 0.33731 0.0
C378 C 0.66104 0.47671 0.13939 0.0
C379 C 0.68411 0.5408 0.2735 0.0
N380 N 0.70123 0.45022 0.25956 0.0
N381 N 0.63007 0.56653 0.19944 0.0
H382 H 0.71305 0.57309 0.40818 0.0
H383 H 0.68757 0.59479 0.32132 0.0
H384 H 0.60601 0.56563 0.14885 0.0
H385 H 0.63371 0.59006 0.25605 0.0
H386 H 0.68923 0.42627 0.22968 0.0
H387 H 0.71998 0.45141 0.3277 0.0
H388 H 0.66952 0.42425 0.06298 0.0
H389 H 0.63481 0.44368 0.99724 0.0
C390 C 1.04813 0.64637 0.14707 0.0
C391 C 0.05066 0.64653 0.26659 0.0
C392 C 1.04716 0.58432 0.22128 0.0
C393 C 1.04633 0.58403 0.10188 0.0
N394 N 1.03494 0.61435 0.95286 0.0
N395 N 1.0355 0.61693 0.41514 0.0
C396 C 1.04342 0.61497 0.06522 0.0
C397 C 1.04454 0.61587 0.30302 0.0
N398 N 0.05091 0.67609 0.11115 0.0
N399 N 0.05278 0.5548 0.25713 0.0
H400 H 1.03031 0.63981 0.47456 0.0
H401 H 1.02804 0.59539 0.44468 0.0
H402 H 0.0565 0.5313 0.20032 0.0
H403 H 0.05754 0.55416 0.34283 0.0
H404 H 0.05589 0.67724 0.02601 0.0
H405 H 1.04804 0.69977 0.16684 0.0
H406 H 1.0284 0.63602 0.92291 0.0
H407 H 1.03105 0.59177 0.89095 0.0
C408 C 0.99026 0.17386 0.55335 0.0
C409 C 0.9712 0.18408 0.46221 0.0
C410 C 0.91903 0.1456 0.47463 0.0
C411 C 0.94097 0.13184 0.55191 0.0
N412 N 0.98887 0.13977 0.69721 0.0
N413 N 0.91421 0.18788 0.35784 0.0
C414 C 0.97354 0.14879 0.60334 0.0
C415 C 0.93405 0.17293 0.43135 0.0
N416 N 1.02558 0.18586 0.5847 0.0
N417 N 0.88487 0.13146 0.44014 0.0
H418 H 0.92512 0.20817 0.32695 0.0
H419 H 0.88661 0.18182 0.33258 0.0
H420 H 0.8731 0.11253 0.4762 0.0
H421 H 0.86817 0.1382 0.37726 0.0
H422 H 1.04289 0.17618 0.64007 0.0
H423 H 1.03847 0.20483 0.55165 0.0
H424 H 1.01101 0.15271 0.74504 0.0
H425 H 0.97693 0.12095 0.73333 0.0
C426 C 0.35729 0.11265 0.46472 0.0
C427 C 0.32236 0.09759 0.47795 0.0
C428 C 0.3491 0.06897 0.61547 0.0
C429 C 0.38429 0.07107 0.56115 0.0
N430 N 0.42492 0.10279 0.46002 0.0
N431 N 0.28596 0.09302 0.64305 0.0
C432 C 0.38987 0.09646 0.4969 0.0
C433 C 0.31851 0.08694 0.58186 0.0
N434 N 0.35877 0.1381 0.40691 0.0
N435 N 0.34471 0.04904 0.69299 0.0
H436 H 0.2641 0.10668 0.61573 0.0
H437 H 0.28228 0.08688 0.72273 0.0
H438 H 0.3673 0.03643 0.72096 0.0
H439 H 0.31854 0.04453 0.72625 0.0
H440 H 0.38346 0.15074 0.3948 0.0
H441 H 0.33405 0.14737 0.37752 0.0
H442 H 0.42995 0.1191 0.40524 0.0
H443 H 0.44896 0.09105 0.48317 0.0
C444 C 0.56451 0.34713 0.82378 0.0
C445 C 0.58367 0.32896 0.72516 0.0
C446 C 0.61082 0.3822 0.69432 0.0
C447 C 0.58974 0.40057 0.79007 0.0
N448 N 0.56148 0.39863 0.97278 0.0
N449 N 0.63481 0.32689 0.59253 0.0
C450 C 0.5719 0.38226 0.86419 0.0
C451 C 0.61084 0.34587 0.67116 0.0
N452 N 0.53659 0.33185 0.87239 0.0
N453 N 0.62802 0.3987 0.62009 0.0
H454 H 0.63422 0.30027 0.5739 0.0
H455 H 0.65713 0.33731 0.55536 0.0
H456 H 0.6288 0.42505 0.63212 0.0
H457 H 0.63971 0.38602 0.54194 0.0
H458 H 0.51716 0.34577 0.92996 0.0
H459 H 0.53131 0.30574 0.84911 0.0
H460 H 0.55012 0.38605 0.03202 0.0
H461 H 0.56808 0.42403 1.00729 0.0
C462 C 0.24793 0.37523 0.30625 0.0
C463 C 0.28483 0.38772 0.32301 0.0
C464 C 0.26969 0.41738 0.51595 0.0
C465 C 0.23178 0.41937 0.47645 0.0
N466 N 0.18252 0.39042 0.35045 0.0
N467 N 0.32861 0.38486 0.47027 0.0
C468 C 0.21969 0.39411 0.37841 0.0
C469 C 0.29486 0.39582 0.43942 0.0
N470 N 0.24025 0.34938 0.2143 0.0
N471 N 0.28245 0.43742 0.61662 0.0
H472 H 0.33782 0.3889 0.55531 0.0
H473 H 0.33782 0.3889 0.55531 0.0
H474 H 0.26708 0.45706 0.66766 0.0
H475 H 0.30966 0.43589 0.64696 0.0
H476 H 0.21368 0.33849 0.19782 0.0
H477 H 0.26187 0.33801 0.15926 0.0
H478 H 0.17276 0.37471 0.27441 0.0
H479 H 0.16155 0.40358 0.404 0.0
C480 C 0.14408 0.81826 0.34079 0.0
C481 C 0.10983 0.80303 0.29476 0.0
C482 C 0.1115 0.83587 0.14667 0.0
C483 C 0.13956 0.85682 0.21082 0.0
N484 N 0.18481 0.86766 0.36466 0.0
N485 N 0.06056 0.79658 0.15178 0.0
C486 C 0.15731 0.84744 0.30506 0.0
C487 C 0.09396 0.8108 0.19473 0.0
N488 N 0.1629 0.8053 0.42117 0.0
N489 N 0.10079 0.84112 0.04213 0.0
H490 H 1.04673 0.7779 0.18375 0.0
H491 H 1.04527 0.80472 0.08849 0.0
H492 H 0.11345 0.85963 1.00616 0.0
H493 H 0.08226 0.82526 0.98719 0.0
H494 H 0.18933 0.81373 0.45287 0.0
H495 H 0.1533 0.78384 0.44798 0.0
H496 H 0.19578 0.86442 0.44241 0.0
H497 H 0.19551 0.88879 0.33835 0.0
C498 C 0.75619 0.10925 0.46012 0.0
C499 C 0.75942 0.07797 0.37651 0.0
C500 C 0.72747 0.10467 0.2398 0.0
C501 C 0.71069 0.12736 0.33379 0.0
N502 N 0.7193 0.16136 0.52305 0.0
N503 N 0.75055 0.04714 0.17813 0.0
C504 C 0.73015 0.13407 0.43939 0.0
C505 C 0.74703 0.07627 0.26205 0.0
N506 N 0.77642 0.11402 0.55963 0.0
N507 N 0.72178 0.10878 0.1309 0.0
H508 H 0.76351 0.02515 0.19124 0.0
H509 H 0.73823 0.04422 0.09717 0.0
H510 H 0.70757 0.13004 0.11589 0.0
H511 H 0.73468 0.0934 0.05901 0.0
H512 H 0.77631 0.13665 0.62246 0.0
H513 H 0.79559 0.09579 0.57438 0.0
H514 H 0.72926 0.16644 0.60725 0.0
H515 H 0.69922 0.17852 0.5057 0.0
C516 C 0.49563 0.65524 0.07417 0.0
C517 C 0.52582 0.67561 0.05006 0.0
C518 C 0.56124 0.62466 0.96235 0.0
C519 C 0.53101 0.60374 0.98364 0.0
N520 N 0.46571 0.59957 0.03453 0.0
N521 N 0.58045 0.67992 0.9355 0.0
C522 C 0.49688 0.61914 0.03157 0.0
C523 C 0.55582 0.66023 0.97971 0.0
N524 N 0.46676 0.67047 0.14244 0.0
N525 N 0.59627 0.61112 0.9358 0.0
H526 H 0.57709 0.70623 0.94812 0.0
H527 H 0.6014 0.66968 0.87643 0.0
H528 H 0.60271 0.58584 0.93455 0.0
H529 H 0.61993 0.62592 0.93028 0.0
H530 H 0.44608 0.65698 0.17526 0.0
H531 H 0.46469 0.69695 0.16951 0.0
H532 H 0.43925 0.60976 0.0595 0.0
H533 H 0.46565 0.57322 1.00274 0.0
C534 C 0.82895 0.59799 0.3054 0.0
C535 C 0.8416 0.60838 0.41961 0.0
C536 C 0.90492 0.59581 0.34875 0.0
C537 C 0.88882 0.56924 0.26218 0.0
N538 N 0.83302 0.54929 0.14618 0.0
N539 N 0.89171 0.64217 0.51697 0.0
C540 C 0.85023 0.5722 0.23249 0.0
C541 C 0.87993 0.61715 0.42731 0.0
N542 N 0.79568 0.60963 0.2733 0.0
N543 N 0.94302 0.59902 0.35805 0.0
H544 H 0.87221 0.65568 0.57577 0.0
H545 H 0.9196 0.64984 0.53059 0.0
H546 H 0.96104 0.58397 0.29802 0.0
H547 H 0.9564 0.61687 0.42222 0.0
H548 H 0.78579 0.60291 0.18885 0.0
H549 H 0.78003 0.62776 0.33147 0.0
H550 H 0.80416 0.55011 0.1312 0.0
H551 H 0.84659 0.52833 0.09528 0.0
C552 C 1.00898 0.15341 0.024 0.0
C553 C 1.03979 0.16589 0.09541 0.0
C554 C 0.07559 0.1156 0.9999 0.0
C555 C 1.04138 0.09858 0.95944 0.0
N556 N 0.97283 0.10346 0.94445 0.0
N557 N 0.10421 0.15939 0.1484 0.0
C558 C 1.00731 0.11815 0.97139 0.0
C559 C 0.07397 0.14747 0.08103 0.0
N560 N 0.98014 0.17495 0.0141 0.0
N561 N 0.1094 0.10174 0.95942 0.0
H562 H 0.10407 0.1831 0.20606 0.0
H563 H 0.12847 0.14496 0.15041 0.0
H564 H 0.11137 0.07988 0.89314 0.0
H565 H 0.13492 0.11426 0.98109 0.0
H566 H 0.95805 0.16799 0.95607 0.0
H567 H 0.98092 0.20076 0.05525 0.0
H568 H 0.94773 0.1169 0.96476 0.0
H569 H 0.96799 0.0777 0.91267 0.0
C570 C 0.38404 0.98973 0.14037 0.0
C571 C 0.35872 0.01499 0.11899 0.0
C572 C 0.40839 0.03522 1.00429 0.0
C573 C 0.43396 0.01002 0.02579 0.0
N574 N 0.44203 0.95772 0.08968 0.0
N575 N 0.34351 0.05497 1.00443 0.0
C576 C 0.42045 0.98558 0.0863 0.0
C577 C 0.36992 0.0352 0.0412 0.0
N578 N 0.37405 0.97059 0.21665 0.0
N579 N 0.42127 0.06084 0.95628 0.0
H580 H 0.31538 0.05511 0.03 0.0
H581 H 0.34849 0.06839 0.94084 0.0
H582 H 0.44933 0.06326 0.93417 0.0
H583 H 0.40501 0.08173 0.94868 0.0
H584 H 0.39271 0.95491 0.24792 0.0
H585 H 0.34748 0.97188 0.25436 0.0
H586 H 0.43243 0.93711 0.12086 0.0
H587 H 0.46848 0.95359 0.05139 0.0
C588 C 0.52968 0.28983 0.29297 0.0
C589 C 0.50657 0.287 0.38706 0.0
C590 C 0.4666 0.33388 0.35492 0.0
C591 C 0.49267 0.3398 0.27089 0.0
N592 N 0.54483 0.32005 0.14404 0.0
N593 N 0.44804 0.2984 0.48698 0.0
C594 C 0.52262 0.31631 0.23379 0.0
C595 C 0.47295 0.30624 0.40963 0.0
N596 N 0.55999 0.26854 0.26697 0.0
N597 N 0.43699 0.35576 0.38618 0.0
H598 H 0.45292 0.27815 0.5265 0.0
H599 H 0.42183 0.30984 0.50564 0.0
H600 H 0.43124 0.37571 0.34618 0.0
H601 H 0.41865 0.35504 0.45362 0.0
H602 H 0.58072 0.27048 0.20721 0.0
H603 H 0.56433 0.24836 0.30716 0.0
H604 H 0.56546 0.30286 0.10577 0.0
H605 H 0.54159 0.34028 0.10438 0.0
C606 C 0.21085 0.49805 0.17189 0.0
C607 C 0.23646 0.47275 0.11291 0.0
C608 C 0.18657 0.45108 0.97053 0.0
C609 C 0.16124 0.47706 0.02598 0.0
N610 N 0.15314 0.53031 0.16508 0.0
N611 N 0.25143 0.43231 0.93724 0.0
C612 C 0.17456 0.50207 0.12256 0.0
C613 C 0.2251 0.45183 1.00563 0.0
N614 N 0.22053 0.51752 0.27712 0.0
N615 N 0.17333 0.42416 0.8891 0.0
H616 H 0.27979 0.43269 0.96027 0.0
H617 H 0.2459 0.41883 0.85348 0.0
H618 H 0.14492 0.42121 0.86756 0.0
H619 H 0.18962 0.40292 0.8528 0.0
H620 H 0.20195 0.53395 0.33023 0.0
H621 H 0.24665 0.51571 0.31489 0.0
H622 H 0.1626 0.55108 0.2273 0.0
H623 H 0.12707 0.53446 0.13071 0.0
C624 C 0.06857 0.83016 0.72767 0.0
C625 C 1.03887 0.81599 0.65388 0.0
C626 C 1.00211 0.86802 0.72347 0.0
C627 C 1.03548 0.88495 0.77059 0.0
N628 N 0.102 0.88188 0.81177 0.0
N629 N 0.97554 0.81953 0.58783 0.0
C630 C 0.06897 0.86583 0.77462 0.0
C631 C 1.00459 0.83404 0.65632 0.0
N632 N 0.0978 0.80968 0.74335 0.0
N633 N 0.96832 0.88455 0.74262 0.0
H634 H 0.97645 0.79425 0.54153 0.0
H635 H 0.95144 0.83278 0.57403 0.0
H636 H 0.96583 0.90923 0.79338 0.0
H637 H 0.94264 0.87275 0.71786 0.0
H638 H 0.11991 0.81781 0.80015 0.0
H639 H 0.0977 0.78356 0.70631 0.0
H640 H 0.12793 0.86949 0.80368 0.0
H641 H 0.10429 0.90808 0.84218 0.0
C642 C 0.71589 0.02658 0.72571 0.0
C643 C 0.72515 0.99997 0.62916 0.0
C644 C 0.67222 0.96717 0.68541 0.0
C645 C 0.65788 0.99681 0.76347 0.0
N646 N 0.66513 0.05797 0.83532 0.0
N647 N 0.70811 0.9452 0.51081 0.0
C648 C 0.67974 0.02733 0.77916 0.0
C649 C 0.70242 0.97013 0.60784 0.0
N650 N 0.74139 0.05187 0.7645 0.0
N651 N 0.65783 0.93588 0.68711 0.0
H652 H 0.72947 0.9463 0.45185 0.0
H653 H 0.6897 0.92479 0.48471 0.0
H654 H 0.63785 0.93234 0.7475 0.0
H655 H 0.66913 0.91326 0.63855 0.0
H656 H 0.73745 0.07051 0.83997 0.0
H657 H 0.76811 0.05181 0.72789 0.0
H658 H 0.67896 0.08103 0.83963 0.0
H659 H 0.63748 0.06126 0.86364 0.0
C660 C 0.62571 0.705 0.38789 0.0
C661 C 0.58963 0.72026 0.4106 0.0
C662 C 0.57769 0.68611 0.55337 0.0
C663 C 0.61117 0.6674 0.51874 0.0
N664 N 0.67225 0.66497 0.4297 0.0
N665 N 0.53481 0.73022 0.53351 0.0
C666 C 0.63708 0.67902 0.44517 0.0
C667 C 0.56744 0.71303 0.50097 0.0
N668 N 0.64759 0.71369 0.30471 0.0
N669 N 0.55486 0.67774 0.63493 0.0
H670 H 0.52555 0.75041 0.49891 0.0
H671 H 0.52555 0.75041 0.49891 0.0
H672 H 0.56146 0.6584 0.67697 0.0
H673 H 0.52977 0.69068 0.66148 0.0
H674 H 0.67224 0.70113 0.27238 0.0
H675 H 0.64022 0.73355 0.26591 0.0
H676 H 0.69357 0.67352 0.38352 0.0
H677 H 0.68111 0.64606 0.47069 0.0
C678 C 0.90194 0.49391 0.58035 0.0
C679 C 0.87951 0.52194 0.63856 0.0
C680 C 0.92989 0.53758 0.78478 0.0
C681 C 0.9523 0.50955 0.72763 0.0
N682 N 0.9566 0.45726 0.58254 0.0
N683 N 0.86792 0.56384 0.81351 0.0
C684 C 0.93714 0.48638 0.62952 0.0
C685 C 0.89232 0.54159 0.74638 0.0
N686 N 0.89057 0.47544 0.47532 0.0
N687 N 0.94473 0.56101 0.87488 0.0
H688 H 0.84015 0.56673 0.78876 0.0
H689 H 0.87377 0.57656 0.89786 0.0
H690 H 0.97132 0.55844 0.90853 0.0
H691 H 0.9317 0.58409 0.91156 0.0
H692 H 0.9069 0.45677 0.42258 0.0
H693 H 0.86536 0.48008 0.43713 0.0
H694 H 0.94569 0.4374 0.51968 0.0
H695 H 0.9831 0.45193 0.6117 0.0
loop_
_geom_bond_atom_site_label_1
_geom_bond_atom_site_label_2
_geom_bond_distance
_geom_bond_site_symmetry_2
_ccdc_geom_bond_type
H0 C7 0.929 . S
H1 C10 0.930 . S
H2 C12 0.929 . S
H3 C4 0.969 . S
C4 H3 0.969 . S
C4 O5 1.550 . S
C4 H6 0.973 . S
O5 C4 1.550 . S
O5 C11 1.412 . S
H6 C4 0.973 . S
C7 H0 0.929 . S
C7 C8 1.400 . S
C7 C9 1.364 . S
C8 C7 1.400 . S
C8 C12 1.377 . S
C9 C7 1.364 . S
C9 C10 1.374 . S
C10 H1 0.930 . S
C10 C9 1.374 . S
C10 C11 1.383 . S
C11 O5 1.412 . S
C11 C10 1.383 . S
C11 C12 1.394 . S
C12 H2 0.929 . S
C12 C8 1.377 . S
C12 C11 1.394 . S
H13 C20 0.928 1_655 S
H14 C23 0.931 . S
H15 C25 0.928 1_655 S
H16 C17 0.969 . S
C17 H16 0.969 . S
C17 O18 1.550 1_455 S
C17 H19 0.973 1_455 S
O18 C17 1.550 1_655 S
O18 C24 1.404 1_655 S
H19 C17 0.973 1_655 S
C20 H13 0.928 1_455 S
C20 C21 1.400 . S
C20 C22 1.364 . S
C21 C20 1.400 . S
C21 C25 1.377 . S
C22 C20 1.364 . S
C22 C23 1.374 1_455 S
C23 H14 0.931 . S
C23 C22 1.374 1_655 S
C23 C24 1.383 1_655 S
C24 O18 1.404 1_455 S
C24 C23 1.383 1_455 S
C24 C25 1.394 . S
C25 H15 0.928 1_455 S
C25 C21 1.377 . S
C25 C24 1.394 . S
H26 C33 0.928 1_565 S
H27 C36 0.929 . S
H28 C38 0.924 1_565 S
H29 C30 0.969 . S
C30 H29 0.969 . S
C30 O31 1.550 1_545 S
C30 H32 0.973 1_545 S
O31 C30 1.550 1_565 S
O31 C37 1.404 1_565 S
H32 C30 0.973 1_565 S
C33 H26 0.928 1_545 S
C33 C34 1.403 . S
C33 C35 1.363 . S
C34 C33 1.403 . S
C34 C38 1.377 . S
C35 C33 1.363 . S
C35 C36 1.375 1_545 S
C36 H27 0.929 . S
C36 C35 1.375 1_565 S
C36 C37 1.391 1_565 S
C37 O31 1.404 1_545 S
C37 C36 1.391 1_545 S
C37 C38 1.387 . S
C38 H28 0.924 1_545 S
C38 C34 1.377 . S
C38 C37 1.387 . S
H39 C46 0.929 . S
H40 C49 0.930 . S
H41 C51 0.929 . S
H42 C43 0.969 . S
C43 H42 0.969 . S
C43 O44 1.550 1_556 S
C43 H45 0.973 . S
O44 C43 1.550 1_554 S
O44 C50 1.412 . S
H45 C43 0.973 . S
C46 H39 0.929 . S
C46 C47 1.400 . S
C46 C48 1.364 1_554 S
C47 C46 1.400 . S
C47 C51 1.377 . S
C48 C46 1.364 1_556 S
C48 C49 1.374 . S
C49 H40 0.930 . S
C49 C48 1.374 . S
C49 C50 1.383 1_556 S
C50 O44 1.412 . S
C50 C49 1.383 1_554 S
C50 C51 1.394 . S
C51 H41 0.929 . S
C51 C47 1.377 . S
C51 C50 1.394 . S
H52 C59 0.929 . S
H53 C62 0.930 . S
H54 C64 0.929 . S
H55 C56 0.969 . S
C56 H55 0.969 . S
C56 O57 1.550 . S
C56 H58 0.973 . S
O57 C56 1.550 . S
O57 C63 1.412 . S
H58 C56 0.973 . S
C59 H52 0.929 . S
C59 C60 1.400 . S
C59 C61 1.364 . S
C60 C59 1.400 . S
C60 C64 1.377 . S
C61 C59 1.364 . S
C61 C62 1.374 . S
C62 H53 0.930 . S
C62 C61 1.374 . S
C62 C63 1.383 . S
C63 O57 1.412 . S
C63 C62 1.383 . S
C63 C64 1.394 . S
C64 H54 0.929 . S
C64 C60 1.377 . S
C64 C63 1.394 . S
H65 C72 0.928 1_655 S
H66 C75 0.930 . S
H67 C77 0.929 1_655 S
H68 C69 0.969 . S
C69 H68 0.969 . S
C69 O70 1.550 1_455 S
C69 H71 0.973 1_455 S
O70 C69 1.550 1_655 S
O70 C76 1.412 1_655 S
H71 C69 0.973 1_655 S
C72 H65 0.928 1_455 S
C72 C73 1.399 . S
C72 C74 1.364 . S
C73 C72 1.399 . S
C73 C77 1.377 . S
C74 C72 1.364 . S
C74 C75 1.374 1_455 S
C75 H66 0.930 . S
C75 C74 1.374 1_655 S
C75 C76 1.383 1_655 S
C76 O70 1.412 1_455 S
C76 C75 1.383 1_455 S
C76 C77 1.395 . S
C77 H67 0.929 1_455 S
C77 C73 1.377 . S
C77 C76 1.395 . S
H78 C85 0.929 1_565 S
H79 C88 0.930 . S
H80 C90 0.933 1_565 S
H81 C82 0.969 . S
C82 H81 0.969 . S
C82 O83 1.550 1_545 S
C82 H84 0.973 1_545 S
O83 C82 1.550 1_565 S
O83 C89 1.412 1_565 S
H84 C82 0.973 1_565 S
C85 H78 0.929 1_545 S
C85 C86 1.396 . S
C85 C87 1.365 . S
C86 C85 1.396 . S
C86 C90 1.376 . S
C87 C85 1.365 . S
C87 C88 1.374 1_545 S
C88 H79 0.930 . S
C88 C87 1.374 1_565 S
C88 C89 1.383 1_565 S
C89 O83 1.412 1_545 S
C89 C88 1.383 1_545 S
C89 C90 1.392 . S
C90 H80 0.933 1_545 S
C90 C86 1.376 . S
C90 C89 1.392 . S
H91 C98 0.929 . S
H92 C101 0.930 . S
H93 C103 0.929 . S
H94 C95 0.969 . S
C95 H94 0.969 . S
C95 O96 1.550 . S
C95 H97 0.973 . S
O96 C95 1.550 . S
O96 C102 1.412 . S
H97 C95 0.973 . S
C98 H91 0.929 . S
C98 C99 1.400 . S
C98 C100 1.364 . S
C99 C98 1.400 . S
C99 C103 1.377 . S
C100 C98 1.364 . S
C100 C101 1.374 . S
C101 H92 0.930 . S
C101 C100 1.374 . S
C101 C102 1.383 . S
C102 O96 1.412 . S
C102 C101 1.383 . S
C102 C103 1.394 . S
C103 H93 0.929 . S
C103 C99 1.377 . S
C103 C102 1.394 . S
Tb104 C113 2.764 . S
Tb104 O114 2.325 . S
Tb104 O117 2.303 1_655 S
Tb104 O121 2.322 1_545 S
Tb104 O122 2.349 . S
Tb104 O125 2.415 . S
Tb104 O126 2.399 . S
Tb105 O115 2.322 1_566 S
Tb105 O116 2.349 . S
Tb105 O118 2.415 1_556 S
Tb105 O119 2.399 1_556 S
Tb105 O120 2.325 . S
Tb105 O123 2.303 1_455 S
Tb105 C134 2.764 1_556 S
C106 O122 1.261 . S
C106 O123 1.257 1_545 S
C107 C110 1.358 . S
C107 C111 1.332 . S
C107 C113 1.504 . S
C108 C109 1.373 . S
C108 C112 1.308 . S
C109 C108 1.373 . S
C109 C110 1.429 . S
C109 H136 0.932 . S
C110 C107 1.358 . S
C110 C109 1.429 . S
C110 H137 0.930 . S
C111 C107 1.332 . S
C111 C112 1.394 . S
C111 H138 0.932 1_655 S
C112 C108 1.308 . S
C112 C111 1.394 . S
C112 H139 0.929 . S
C113 Tb104 2.764 . S
C113 C107 1.504 . S
C113 O125 1.239 . S
C113 O126 1.263 . S
O114 Tb104 2.325 . S
O114 C124 1.236 1_655 S
O115 Tb105 2.322 1_544 S
O115 C124 1.257 1_554 S
O116 Tb105 2.349 . S
O116 C127 1.261 . S
O117 Tb104 2.303 1_455 S
O117 C127 1.257 1_545 S
O118 Tb105 2.415 1_554 S
O118 C134 1.239 . S
O119 Tb105 2.399 1_554 S
O119 C134 1.263 . S
O120 Tb105 2.325 . S
O120 C135 1.236 1_455 S
O121 Tb104 2.322 1_565 S
O121 C135 1.257 . S
O122 Tb104 2.349 . S
O122 C106 1.261 . S
O123 Tb105 2.303 1_655 S
O123 C106 1.257 1_565 S
C124 O114 1.236 1_455 S
C124 O115 1.257 1_556 S
O125 Tb104 2.415 . S
O125 C113 1.239 . S
O126 Tb104 2.399 . S
O126 C113 1.263 . S
C127 O116 1.261 . S
C127 O117 1.257 1_565 S
C128 C131 1.358 . S
C128 C132 1.332 . S
C128 C134 1.504 . S
C129 C130 1.373 . S
C129 C133 1.308 . S
C130 C129 1.373 . S
C130 C131 1.429 . S
C130 H140 0.932 . S
C131 C128 1.358 . S
C131 C130 1.429 . S
C131 H141 0.930 . S
C132 C128 1.332 . S
C132 C133 1.394 . S
C132 H142 0.932 1_455 S
C133 C129 1.308 . S
C133 C132 1.394 . S
C133 H143 0.929 . S
C134 Tb105 2.764 1_554 S
C134 O118 1.239 . S
C134 O119 1.263 . S
C134 C128 1.504 . S
C135 O120 1.236 1_655 S
C135 O121 1.257 . S
H136 C109 0.932 . S
H137 C110 0.930 . S
H138 C111 0.932 1_455 S
H139 C112 0.929 . S
H140 C130 0.932 . S
H141 C131 0.930 . S
H142 C132 0.932 1_655 S
H143 C133 0.929 . S
Tb144 C153 2.764 . S
Tb144 O154 2.325 . S
Tb144 O157 2.303 1_565 S
Tb144 O161 2.322 . S
Tb144 O162 2.349 . S
Tb144 O165 2.415 1_565 S
Tb144 O166 2.399 . S
Tb145 O155 2.322 . S
Tb145 O156 2.349 1_554 S
Tb145 O158 2.415 1_545 S
Tb145 O159 2.399 . S
Tb145 O160 2.325 1_554 S
Tb145 O163 2.303 1_544 S
Tb145 C174 2.764 . S
C146 O162 1.261 . S
C146 O163 1.257 . S
C147 C150 1.358 . S
C147 C151 1.332 1_565 S
C147 C153 1.504 . S
C148 C149 1.373 . S
C148 C152 1.308 1_565 S
C149 C148 1.373 . S
C149 C150 1.429 . S
C149 H176 0.932 . S
C150 C147 1.358 . S
C150 C149 1.429 . S
C150 H177 0.930 . S
C151 C147 1.332 1_545 S
C151 C152 1.394 . S
C151 H178 0.932 . S
C152 C148 1.308 1_545 S
C152 C151 1.394 . S
C152 H179 0.929 . S
C153 Tb144 2.764 . S
C153 C147 1.504 . S
C153 O165 1.239 1_565 S
C153 O166 1.263 . S
O154 Tb144 2.325 . S
O154 C164 1.236 1_565 S
O155 Tb145 2.322 . S
O155 C164 1.257 1_554 S
O156 Tb145 2.349 1_556 S
O156 C167 1.261 . S
O157 Tb144 2.303 1_545 S
O157 C167 1.257 . S
O158 Tb145 2.415 1_565 S
O158 C174 1.239 1_565 S
O159 Tb145 2.399 . S
O159 C174 1.263 . S
O160 Tb145 2.325 1_556 S
O160 C175 1.236 1_545 S
O161 Tb144 2.322 . S
O161 C175 1.257 . S
O162 Tb144 2.349 . S
O162 C146 1.261 . S
O163 Tb145 2.303 1_566 S
O163 C146 1.257 . S
C164 O154 1.236 1_545 S
C164 O155 1.257 1_556 S
O165 Tb144 2.415 1_545 S
O165 C153 1.239 1_545 S
O166 Tb144 2.399 . S
O166 C153 1.263 . S
C167 O156 1.261 . S
C167 O157 1.257 . S
C168 C171 1.358 . S
C168 C172 1.332 1_545 S
C168 C174 1.504 . S
C169 C170 1.373 . S
C169 C173 1.308 1_545 S
C170 C169 1.373 . S
C170 C171 1.429 . S
C170 H180 0.932 . S
C171 C168 1.358 . S
C171 C170 1.429 . S
C171 H181 0.930 . S
C172 C168 1.332 1_565 S
C172 C173 1.394 . S
C172 H182 0.932 . S
C173 C169 1.308 1_565 S
C173 C172 1.394 . S
C173 H183 0.929 . S
C174 Tb145 2.764 . S
C174 O158 1.239 1_545 S
C174 O159 1.263 . S
C174 C168 1.504 . S
C175 O160 1.236 1_565 S
C175 O161 1.257 . S
H176 C149 0.932 . S
H177 C150 0.930 . S
H178 C151 0.932 . S
H179 C152 0.929 . S
H180 C170 0.932 . S
H181 C171 0.930 . S
H182 C172 0.932 . S
H183 C173 0.929 . S
Tb184 C193 2.764 . S
Tb184 O194 2.325 1_554 S
Tb184 O197 2.303 1_554 S
Tb184 O201 2.322 1_554 S
Tb184 O202 2.349 1_554 S
Tb184 O205 2.415 . S
Tb184 O206 2.399 . S
Tb185 O195 2.322 . S
Tb185 O196 2.349 . S
Tb185 O198 2.415 . S
Tb185 O199 2.399 . S
Tb185 O200 2.325 . S
Tb185 O203 2.303 . S
Tb185 C214 2.764 . S
C186 O202 1.261 . S
C186 O203 1.257 . S
C187 C190 1.358 . S
C187 C191 1.332 . S
C187 C193 1.504 . S
C188 C189 1.373 . S
C188 C192 1.308 . S
C189 C188 1.373 . S
C189 C190 1.429 . S
C189 H216 0.932 . S
C190 C187 1.358 . S
C190 C189 1.429 . S
C190 H217 0.930 . S
C191 C187 1.332 . S
C191 C192 1.394 . S
C191 H218 0.932 . S
C192 C188 1.308 . S
C192 C191 1.394 . S
C192 H219 0.929 . S
C193 Tb184 2.764 . S
C193 C187 1.504 . S
C193 O205 1.239 . S
C193 O206 1.263 . S
O194 Tb184 2.325 1_556 S
O194 C204 1.236 . S
O195 Tb185 2.322 . S
O195 C204 1.257 . S
O196 Tb185 2.349 . S
O196 C207 1.261 . S
O197 Tb184 2.303 1_556 S
O197 C207 1.257 . S
O198 Tb185 2.415 . S
O198 C214 1.239 . S
O199 Tb185 2.399 . S
O199 C214 1.263 . S
O200 Tb185 2.325 . S
O200 C215 1.236 . S
O201 Tb184 2.322 1_556 S
O201 C215 1.257 . S
O202 Tb184 2.349 1_556 S
O202 C186 1.261 . S
O203 Tb185 2.303 . S
O203 C186 1.257 . S
C204 O194 1.236 . S
C204 O195 1.257 . S
O205 Tb184 2.415 . S
O205 C193 1.239 . S
O206 Tb184 2.399 . S
O206 C193 1.263 . S
C207 O196 1.261 . S
C207 O197 1.257 . S
C208 C211 1.358 . S
C208 C212 1.332 . S
C208 C214 1.504 . S
C209 C210 1.373 . S
C209 C213 1.308 . S
C210 C209 1.373 . S
C210 C211 1.429 . S
C210 H220 0.932 . S
C211 C208 1.358 . S
C211 C210 1.429 . S
C211 H221 0.930 . S
C212 C208 1.332 . S
C212 C213 1.394 . S
C212 H222 0.932 . S
C213 C209 1.308 . S
C213 C212 1.394 . S
C213 H223 0.929 . S
C214 Tb185 2.764 . S
C214 O198 1.239 . S
C214 O199 1.263 . S
C214 C208 1.504 . S
C215 O200 1.236 . S
C215 O201 1.257 . S
H216 C189 0.932 . S
H217 C190 0.930 . S
H218 C191 0.932 . S
H219 C192 0.929 . S
H220 C210 0.932 . S
H221 C211 0.930 . S
H222 C212 0.932 . S
H223 C213 0.929 . S
Tb224 C233 2.764 . S
Tb224 O234 2.325 . S
Tb224 O237 2.303 . S
Tb224 O241 2.322 1_455 S
Tb224 O242 2.349 . S
Tb224 O245 2.415 . S
Tb224 O246 2.399 . S
Tb225 O235 2.322 1_655 S
Tb225 O236 2.349 . S
Tb225 O238 2.415 1_556 S
Tb225 O239 2.399 1_556 S
Tb225 O240 2.325 . S
Tb225 O243 2.303 . S
Tb225 C254 2.764 1_556 S
C226 O242 1.261 . S
C226 O243 1.257 1_455 S
C227 C230 1.358 . S
C227 C231 1.332 . S
C227 C233 1.504 . S
C228 C229 1.373 . S
C228 C232 1.308 . S
C229 C228 1.373 . S
C229 C230 1.429 . S
C229 H256 0.932 . S
C230 C227 1.358 . S
C230 C229 1.429 . S
C230 H257 0.930 . S
C231 C227 1.332 . S
C231 C232 1.394 . S
C231 H258 0.932 . S
C232 C228 1.308 . S
C232 C231 1.394 . S
C232 H259 0.929 . S
C233 Tb224 2.764 . S
C233 C227 1.504 . S
C233 O245 1.239 . S
C233 O246 1.263 . S
O234 Tb224 2.325 . S
O234 C244 1.236 . S
O235 Tb225 2.322 1_455 S
O235 C244 1.257 . S
O236 Tb225 2.349 . S
O236 C247 1.261 . S
O237 Tb224 2.303 . S
O237 C247 1.257 1_455 S
O238 Tb225 2.415 1_554 S
O238 C254 1.239 . S
O239 Tb225 2.399 1_554 S
O239 C254 1.263 . S
O240 Tb225 2.325 . S
O240 C255 1.236 . S
O241 Tb224 2.322 1_655 S
O241 C255 1.257 . S
O242 Tb224 2.349 . S
O242 C226 1.261 . S
O243 Tb225 2.303 . S
O243 C226 1.257 1_655 S
C244 O234 1.236 . S
C244 O235 1.257 . S
O245 Tb224 2.415 . S
O245 C233 1.239 . S
O246 Tb224 2.399 . S
O246 C233 1.263 . S
C247 O236 1.261 . S
C247 O237 1.257 1_655 S
C248 C251 1.358 . S
C248 C252 1.332 . S
C248 C254 1.504 . S
C249 C250 1.373 . S
C249 C253 1.308 . S
C250 C249 1.373 . S
C250 C251 1.429 . S
C250 H260 0.932 . S
C251 C248 1.358 . S
C251 C250 1.429 . S
C251 H261 0.930 . S
C252 C248 1.332 . S
C252 C253 1.394 . S
C252 H262 0.932 . S
C253 C249 1.308 . S
C253 C252 1.394 . S
C253 H263 0.929 . S
C254 Tb225 2.764 1_554 S
C254 O238 1.239 . S
C254 O239 1.263 . S
C254 C248 1.504 . S
C255 O240 1.236 . S
C255 O241 1.257 . S
H256 C229 0.932 . S
H257 C230 0.930 . S
H258 C231 0.932 . S
H259 C232 0.929 . S
H260 C250 0.932 . S
H261 C251 0.930 . S
H262 C252 0.932 . S
H263 C253 0.929 . S
C264 C265 1.355 1_565 S
C264 C270 1.379 . S
C264 N272 1.356 . S
C265 C264 1.355 1_545 S
C265 C271 1.365 . S
C266 C267 1.363 . S
C266 C271 1.379 . S
C266 N273 1.356 . S
C267 C266 1.363 . S
C267 C270 1.363 1_545 S
N268 C270 1.356 . S
N268 H280 0.984 . S
N268 H281 0.985 . S
N269 C271 1.356 . S
N269 H274 0.984 . S
N269 H275 0.985 . S
C270 C264 1.379 . S
C270 C267 1.363 1_565 S
C270 N268 1.356 . S
C271 C265 1.365 . S
C271 C266 1.379 . S
C271 N269 1.356 . S
N272 C264 1.356 . S
N272 H278 0.984 . S
N272 H279 0.984 . S
N273 C266 1.356 . S
N273 H276 0.984 . S
N273 H277 0.985 . S
H274 N269 0.984 . S
H275 N269 0.985 . S
H276 N273 0.984 . S
H277 N273 0.985 . S
H278 N272 0.984 . S
H279 N272 0.984 . S
H280 N268 0.984 . S
H281 N268 0.985 . S
C282 C283 1.363 . S
C282 C288 1.379 . S
C282 N290 1.356 . S
C283 C282 1.363 . S
C283 C289 1.363 . S
C284 C285 1.363 . S
C284 C289 1.379 . S
C284 N291 1.356 . S
C285 C284 1.363 . S
C285 C288 1.363 . S
N286 C288 1.356 . S
N286 H298 0.984 1_556 S
N286 H299 0.985 . S
N287 C289 1.356 . S
N287 H292 0.984 . S
N287 H293 0.985 . S
C288 C282 1.379 . S
C288 C285 1.363 . S
C288 N286 1.356 . S
C289 C283 1.363 . S
C289 C284 1.379 . S
C289 N287 1.356 . S
N290 C282 1.356 . S
N290 H296 0.984 1_556 S
N290 H297 0.984 . S
N291 C284 1.356 . S
N291 H294 0.984 . S
N291 H295 0.985 . S
H292 N287 0.984 . S
H293 N287 0.985 . S
H294 N291 0.984 . S
H295 N291 0.985 . S
H296 N290 0.984 1_554 S
H297 N290 0.984 . S
H298 N286 0.984 1_554 S
H299 N286 0.985 . S
C300 C301 1.363 . S
C300 C306 1.379 . S
C300 N308 1.356 . S
C301 C300 1.363 . S
C301 C307 1.363 . S
C302 C303 1.363 . S
C302 C307 1.379 . S
C302 N309 1.356 . S
C303 C302 1.363 . S
C303 C306 1.363 . S
N304 C306 1.356 . S
N304 H316 0.984 . S
N304 H317 0.985 . S
N305 C307 1.356 . S
N305 H310 0.984 . S
N305 H311 0.985 . S
C306 C300 1.379 . S
C306 C303 1.363 . S
C306 N304 1.356 . S
C307 C301 1.363 . S
C307 C302 1.379 . S
C307 N305 1.356 . S
N308 C300 1.356 . S
N308 H314 0.984 . S
N308 H315 0.984 . S
N309 C302 1.356 . S
N309 H312 0.984 . S
N309 H313 0.985 . S
H310 N305 0.984 . S
H311 N305 0.985 . S
H312 N309 0.984 . S
H313 N309 0.985 . S
H314 N308 0.984 . S
H315 N308 0.984 . S
H316 N304 0.984 . S
H317 N304 0.985 . S
C318 C319 1.367 . S
C318 C324 1.379 . S
C318 N326 1.356 . S
C319 C318 1.367 . S
C319 C325 1.359 1_455 S
C320 C321 1.344 1_655 S
C320 C325 1.379 . S
C320 N327 1.356 . S
C321 C320 1.344 1_455 S
C321 C324 1.382 . S
N322 C324 1.356 . S
N322 H334 0.984 . S
N322 H335 0.985 . S
N323 C325 1.356 . S
N323 H328 0.984 . S
N323 H329 0.985 . S
C324 C318 1.379 . S
C324 C321 1.382 . S
C324 N322 1.356 . S
C325 C319 1.359 1_655 S
C325 C320 1.379 . S
C325 N323 1.356 . S
N326 C318 1.356 . S
N326 H332 0.984 . S
N326 H333 0.984 . S
N327 C320 1.356 . S
N327 H330 0.984 . S
N327 H331 0.985 . S
H328 N323 0.984 . S
H329 N323 0.985 . S
H330 N327 0.984 . S
H331 N327 0.985 . S
H332 N326 0.984 . S
H333 N326 0.984 . S
H334 N322 0.984 . S
H335 N322 0.985 . S
C336 C337 1.374 . S
C336 C342 1.379 . S
C336 N344 1.356 . S
C337 C336 1.374 . S
C337 C343 1.348 1_565 S
C338 C339 1.363 1_545 S
C338 C343 1.379 . S
C338 N345 1.356 . S
C339 C338 1.363 1_565 S
C339 C342 1.363 . S
N340 C342 1.356 . S
N340 H352 0.984 . S
N340 H353 0.985 . S
N341 C343 1.356 . S
N341 H346 0.984 . S
N341 H347 0.985 . S
C342 C336 1.379 . S
C342 C339 1.363 . S
C342 N340 1.356 . S
C343 C337 1.348 1_545 S
C343 C338 1.379 . S
C343 N341 1.356 . S
N344 C336 1.356 . S
N344 H350 0.984 . S
N344 H351 0.984 . S
N345 C338 1.356 . S
N345 H348 0.984 . S
N345 H349 0.985 . S
H346 N341 0.984 . S
H347 N341 0.985 . S
H348 N345 0.984 . S
H349 N345 0.985 . S
H350 N344 0.984 . S
H351 N344 0.984 . S
H352 N340 0.984 . S
H353 N340 0.985 . S
C354 C355 1.363 . S
C354 C360 1.379 . S
C354 N362 1.356 . S
C355 C354 1.363 . S
C355 C361 1.363 . S
C356 C357 1.363 . S
C356 C361 1.379 . S
C356 N363 1.356 . S
C357 C356 1.363 . S
C357 C360 1.363 . S
N358 C360 1.356 . S
N358 H370 0.984 . S
N358 H371 0.985 . S
N359 C361 1.356 . S
N359 H364 0.984 . S
N359 H365 0.985 . S
C360 C354 1.379 . S
C360 C357 1.363 . S
C360 N358 1.356 . S
C361 C355 1.363 . S
C361 C356 1.379 . S
C361 N359 1.356 . S
N362 C354 1.356 . S
N362 H368 0.984 . S
N362 H369 0.984 . S
N363 C356 1.356 . S
N363 H366 0.984 . S
N363 H367 0.985 . S
H364 N359 0.984 . S
H365 N359 0.985 . S
H366 N363 0.984 . S
H367 N363 0.985 . S
H368 N362 0.984 . S
H369 N362 0.984 . S
H370 N358 0.984 . S
H371 N358 0.985 . S
C372 C373 1.363 . S
C372 C378 1.379 . S
C372 N380 1.356 . S
C373 C372 1.363 . S
C373 C379 1.363 . S
C374 C375 1.363 . S
C374 C379 1.379 . S
C374 N381 1.356 . S
C375 C374 1.363 . S
C375 C378 1.363 . S
N376 C378 1.356 . S
N376 H388 0.984 . S
N376 H389 0.985 . S
N377 C379 1.356 . S
N377 H382 0.984 . S
N377 H383 0.985 . S
C378 C372 1.379 . S
C378 C375 1.363 . S
C378 N376 1.356 . S
C379 C373 1.363 . S
C379 C374 1.379 . S
C379 N377 1.356 . S
N380 C372 1.356 . S
N380 H386 0.984 . S
N380 H387 0.984 . S
N381 C374 1.356 . S
N381 H384 0.984 . S
N381 H385 0.985 . S
H382 N377 0.984 . S
H383 N377 0.985 . S
H384 N381 0.984 . S
H385 N381 0.985 . S
H386 N380 0.984 . S
H387 N380 0.984 . S
H388 N376 0.984 . S
H389 N376 0.985 . S
C390 C391 1.365 . S
C390 C396 1.379 . S
C390 N398 1.356 . S
C391 C390 1.365 . S
C391 C397 1.361 1_655 S
C392 C393 1.356 1_455 S
C392 C397 1.379 . S
C392 N399 1.356 . S
C393 C392 1.356 1_655 S
C393 C396 1.370 . S
N394 C396 1.356 . S
N394 H406 0.984 1_554 S
N394 H407 0.985 1_554 S
N395 C397 1.356 . S
N395 H400 0.984 . S
N395 H401 0.985 . S
C396 C390 1.379 . S
C396 C393 1.370 . S
C396 N394 1.356 . S
C397 C391 1.361 1_455 S
C397 C392 1.379 . S
C397 N395 1.356 . S
N398 C390 1.356 . S
N398 H404 0.984 . S
N398 H405 0.984 . S
N399 C392 1.356 . S
N399 H402 0.984 . S
N399 H403 0.985 . S
H400 N395 0.984 . S
H401 N395 0.985 . S
H402 N399 0.984 . S
H403 N399 0.985 . S
H404 N398 0.984 . S
H405 N398 0.984 . S
H406 N394 0.984 1_556 S
H407 N394 0.985 1_556 S
C408 C409 1.363 . S
C408 C414 1.379 . S
C408 N416 1.356 1_655 S
C409 C408 1.363 . S
C409 C415 1.363 . S
C410 C411 1.363 . S
C410 C415 1.379 . S
C410 N417 1.356 . S
C411 C410 1.363 . S
C411 C414 1.363 . S
N412 C414 1.356 . S
N412 H424 0.984 . S
N412 H425 0.985 . S
N413 C415 1.356 . S
N413 H418 0.984 . S
N413 H419 0.985 . S
C414 C408 1.379 . S
C414 C411 1.363 . S
C414 N412 1.356 . S
C415 C409 1.363 . S
C415 C410 1.379 . S
C415 N413 1.356 . S
N416 C408 1.356 1_455 S
N416 H422 0.984 . S
N416 H423 0.984 . S
N417 C410 1.356 . S
N417 H420 0.984 . S
N417 H421 0.985 . S
H418 N413 0.984 . S
H419 N413 0.985 . S
H420 N417 0.984 . S
H421 N417 0.985 . S
H422 N416 0.984 . S
H423 N416 0.984 . S
H424 N412 0.984 . S
H425 N412 0.985 . S
C426 C427 1.363 . S
C426 C432 1.379 . S
C426 N434 1.356 . S
C427 C426 1.363 . S
C427 C433 1.363 1_545 S
C428 C429 1.363 . S
C428 C433 1.379 . S
C428 N435 1.356 . S
C429 C428 1.363 . S
C429 C432 1.363 1_565 S
N430 C432 1.356 . S
N430 H442 0.984 . S
N430 H443 0.985 1_545 S
N431 C433 1.356 . S
N431 H436 0.984 . S
N431 H437 0.985 . S
C432 C426 1.379 . S
C432 C429 1.363 1_545 S
C432 N430 1.356 . S
C433 C427 1.363 1_565 S
C433 C428 1.379 . S
C433 N431 1.356 . S
N434 C426 1.356 . S
N434 H440 0.984 . S
N434 H441 0.984 . S
N435 C428 1.356 . S
N435 H438 0.984 . S
N435 H439 0.985 . S
H436 N431 0.984 . S
H437 N431 0.985 . S
H438 N435 0.984 . S
H439 N435 0.985 . S
H440 N434 0.984 . S
H441 N434 0.984 . S
H442 N430 0.984 . S
H443 N430 0.985 1_565 S
C444 C445 1.363 . S
C444 C450 1.379 . S
C444 N452 1.356 1_556 S
C445 C444 1.363 . S
C445 C451 1.363 . S
C446 C447 1.363 . S
C446 C451 1.379 . S
C446 N453 1.356 . S
C447 C446 1.363 . S
C447 C450 1.363 . S
N448 C450 1.356 . S
N448 H460 0.984 1_556 S
N448 H461 0.985 . S
N449 C451 1.356 . S
N449 H454 0.984 . S
N449 H455 0.985 . S
C450 C444 1.379 . S
C450 C447 1.363 . S
C450 N448 1.356 . S
C451 C445 1.363 . S
C451 C446 1.379 . S
C451 N449 1.356 . S
N452 C444 1.356 1_554 S
N452 H458 0.984 . S
N452 H459 0.984 . S
N453 C446 1.356 . S
N453 H456 0.984 . S
N453 H457 0.985 . S
H454 N449 0.984 . S
H455 N449 0.985 . S
H456 N453 0.984 . S
H457 N453 0.985 . S
H458 N452 0.984 . S
H459 N452 0.984 . S
H460 N448 0.984 1_554 S
H461 N448 0.985 . S
C462 C463 1.363 . S
C462 C468 1.379 . S
C462 N470 1.356 . S
C463 C462 1.363 . S
C463 C469 1.363 . S
C464 C465 1.363 . S
C464 C469 1.379 . S
C464 N471 1.356 . S
C465 C464 1.363 . S
C465 C468 1.363 . S
N466 C468 1.356 . S
N466 H478 0.984 . S
N466 H479 0.985 . S
N467 C469 1.356 . S
N467 H472 0.984 . S
N467 H473 0.985 . S
C468 C462 1.379 . S
C468 C465 1.363 . S
C468 N466 1.356 . S
C469 C463 1.363 . S
C469 C464 1.379 . S
C469 N467 1.356 . S
N470 C462 1.356 . S
N470 H476 0.984 . S
N470 H477 0.984 . S
N471 C464 1.356 . S
N471 H474 0.984 . S
N471 H475 0.985 . S
H472 N467 0.984 . S
H473 N467 0.985 . S
H474 N471 0.984 . S
H475 N471 0.985 . S
H476 N470 0.984 . S
H477 N470 0.984 . S
H478 N466 0.984 . S
H479 N466 0.985 . S
C480 C481 1.363 . S
C480 C486 1.379 . S
C480 N488 1.356 . S
C481 C480 1.363 . S
C481 C487 1.363 1_455 S
C482 C483 1.363 . S
C482 C487 1.379 1_455 S
C482 N489 1.356 . S
C483 C482 1.363 . S
C483 C486 1.363 . S
N484 C486 1.356 . S
N484 H496 0.984 . S
N484 H497 0.985 . S
N485 C487 1.356 . S
N485 H490 0.984 . S
N485 H491 0.985 . S
C486 C480 1.379 . S
C486 C483 1.363 . S
C486 N484 1.356 . S
C487 C481 1.363 1_655 S
C487 C482 1.379 1_655 S
C487 N485 1.356 . S
N488 C480 1.356 . S
N488 H494 0.984 . S
N488 H495 0.984 . S
N489 C482 1.356 . S
N489 H492 0.984 . S
N489 H493 0.985 1_455 S
H490 N485 0.984 . S
H491 N485 0.985 . S
H492 N489 0.984 . S
H493 N489 0.985 1_655 S
H494 N488 0.984 . S
H495 N488 0.984 . S
H496 N484 0.984 . S
H497 N484 0.985 . S
C498 C499 1.363 1_545 S
C498 C504 1.379 . S
C498 N506 1.356 . S
C499 C498 1.363 1_565 S
C499 C505 1.363 . S
C500 C501 1.361 . S
C500 C505 1.380 1_545 S
C500 N507 1.356 1_545 S
C501 C500 1.361 . S
C501 C504 1.363 . S
N502 C504 1.356 . S
N502 H514 0.984 . S
N502 H515 0.985 . S
N503 C505 1.356 . S
N503 H508 0.984 . S
N503 H509 0.985 . S
C504 C498 1.379 . S
C504 C501 1.363 . S
C504 N502 1.356 . S
C505 C499 1.363 . S
C505 C500 1.380 1_565 S
C505 N503 1.356 . S
N506 C498 1.356 . S
N506 H512 0.984 . S
N506 H513 0.984 . S
N507 C500 1.356 1_565 S
N507 H510 0.984 1_565 S
N507 H511 0.985 . S
H508 N503 0.984 . S
H509 N503 0.985 . S
H510 N507 0.984 1_545 S
H511 N507 0.985 . S
H512 N506 0.984 . S
H513 N506 0.984 . S
H514 N502 0.984 . S
H515 N502 0.985 . S
C516 C517 1.363 . S
C516 C522 1.379 . S
C516 N524 1.356 . S
C517 C516 1.363 . S
C517 C523 1.363 . S
C518 C519 1.363 . S
C518 C523 1.379 . S
C518 N525 1.356 1_556 S
C519 C518 1.363 . S
C519 C522 1.363 . S
N520 C522 1.356 . S
N520 H532 0.984 . S
N520 H533 0.985 . S
N521 C523 1.356 1_554 S
N521 H526 0.984 1_554 S
N521 H527 0.985 . S
C522 C516 1.379 . S
C522 C519 1.363 . S
C522 N520 1.356 . S
C523 C517 1.363 . S
C523 C518 1.379 . S
C523 N521 1.356 1_556 S
N524 C516 1.356 . S
N524 H530 0.984 . S
N524 H531 0.984 . S
N525 C518 1.356 1_554 S
N525 H528 0.984 . S
N525 H529 0.985 . S
H526 N521 0.984 1_556 S
H527 N521 0.985 . S
H528 N525 0.984 . S
H529 N525 0.985 . S
H530 N524 0.984 . S
H531 N524 0.984 . S
H532 N520 0.984 . S
H533 N520 0.985 . S
C534 C535 1.363 . S
C534 C540 1.379 . S
C534 N542 1.356 . S
C535 C534 1.363 . S
C535 C541 1.363 . S
C536 C537 1.363 . S
C536 C541 1.379 . S
C536 N543 1.356 . S
C537 C536 1.363 . S
C537 C540 1.363 . S
N538 C540 1.356 . S
N538 H550 0.984 . S
N538 H551 0.985 . S
N539 C541 1.356 . S
N539 H544 0.984 . S
N539 H545 0.985 . S
C540 C534 1.379 . S
C540 C537 1.363 . S
C540 N538 1.356 . S
C541 C535 1.363 . S
C541 C536 1.379 . S
C541 N539 1.356 . S
N542 C534 1.356 . S
N542 H548 0.984 . S
N542 H549 0.984 . S
N543 C536 1.356 . S
N543 H546 0.984 . S
N543 H547 0.985 . S
H544 N539 0.984 . S
H545 N539 0.985 . S
H546 N543 0.984 . S
H547 N543 0.985 . S
H548 N542 0.984 . S
H549 N542 0.984 . S
H550 N538 0.984 . S
H551 N538 0.985 . S
C552 C553 1.363 1_655 S
C552 C558 1.379 1_554 S
C552 N560 1.356 . S
C553 C552 1.363 1_455 S
C553 C559 1.363 . S
C554 C555 1.363 . S
C554 C559 1.379 . S
C554 N561 1.356 . S
C555 C554 1.363 . S
C555 C558 1.363 1_454 S
N556 C558 1.356 . S
N556 H568 0.984 . S
N556 H569 0.985 . S
N557 C559 1.356 . S
N557 H562 0.984 . S
N557 H563 0.985 . S
C558 C552 1.379 1_556 S
C558 C555 1.363 1_656 S
C558 N556 1.356 . S
C559 C553 1.363 . S
C559 C554 1.379 . S
C559 N557 1.356 . S
N560 C552 1.356 . S
N560 H566 0.984 1_554 S
N560 H567 0.984 . S
N561 C554 1.356 . S
N561 H564 0.984 . S
N561 H565 0.985 . S
H562 N557 0.984 . S
H563 N557 0.985 . S
H564 N561 0.984 . S
H565 N561 0.985 . S
H566 N560 0.984 1_556 S
H567 N560 0.984 . S
H568 N556 0.984 . S
H569 N556 0.985 . S
C570 C571 1.363 1_566 S
C570 C576 1.379 . S
C570 N578 1.356 . S
C571 C570 1.363 1_544 S
C571 C577 1.363 . S
C572 C573 1.363 1_554 S
C572 C577 1.379 . S
C572 N579 1.356 . S
C573 C572 1.363 1_556 S
C573 C576 1.363 1_545 S
N574 C576 1.356 . S
N574 H586 0.984 . S
N574 H587 0.985 . S
N575 C577 1.356 . S
N575 H580 0.984 . S
N575 H581 0.985 . S
C576 C570 1.379 . S
C576 C573 1.363 1_565 S
C576 N574 1.356 . S
C577 C571 1.363 . S
C577 C572 1.379 . S
C577 N575 1.356 . S
N578 C570 1.356 . S
N578 H584 0.984 . S
N578 H585 0.984 . S
N579 C572 1.356 . S
N579 H582 0.984 . S
N579 H583 0.985 . S
H580 N575 0.984 . S
H581 N575 0.985 . S
H582 N579 0.984 . S
H583 N579 0.985 . S
H584 N578 0.984 . S
H585 N578 0.984 . S
H586 N574 0.984 . S
H587 N574 0.985 . S
C588 C589 1.363 . S
C588 C594 1.379 . S
C588 N596 1.356 . S
C589 C588 1.363 . S
C589 C595 1.363 . S
C590 C591 1.363 . S
C590 C595 1.379 . S
C590 N597 1.356 . S
C591 C590 1.363 . S
C591 C594 1.363 . S
N592 C594 1.356 . S
N592 H604 0.984 . S
N592 H605 0.985 . S
N593 C595 1.356 . S
N593 H598 0.984 . S
N593 H599 0.985 . S
C594 C588 1.379 . S
C594 C591 1.363 . S
C594 N592 1.356 . S
C595 C589 1.363 . S
C595 C590 1.379 . S
C595 N593 1.356 . S
N596 C588 1.356 . S
N596 H602 0.984 . S
N596 H603 0.984 . S
N597 C590 1.356 . S
N597 H600 0.984 . S
N597 H601 0.985 . S
H598 N593 0.984 . S
H599 N593 0.985 . S
H600 N597 0.984 . S
H601 N597 0.985 . S
H602 N596 0.984 . S
H603 N596 0.984 . S
H604 N592 0.984 . S
H605 N592 0.985 . S
C606 C607 1.363 1_554 S
C606 C612 1.379 . S
C606 N614 1.356 . S
C607 C606 1.363 1_556 S
C607 C613 1.363 . S
C608 C609 1.363 . S
C608 C613 1.379 . S
C608 N615 1.356 . S
C609 C608 1.363 . S
C609 C612 1.363 1_556 S
N610 C612 1.356 . S
N610 H622 0.984 . S
N610 H623 0.985 . S
N611 C613 1.356 . S
N611 H616 0.984 . S
N611 H617 0.985 . S
C612 C606 1.379 . S
C612 C609 1.363 1_554 S
C612 N610 1.356 . S
C613 C607 1.363 . S
C613 C608 1.379 . S
C613 N611 1.356 . S
N614 C606 1.356 . S
N614 H620 0.984 . S
N614 H621 0.984 . S
N615 C608 1.356 . S
N615 H618 0.984 . S
N615 H619 0.985 . S
H616 N611 0.984 . S
H617 N611 0.985 . S
H618 N615 0.984 . S
H619 N615 0.985 . S
H620 N614 0.984 . S
H621 N614 0.984 . S
H622 N610 0.984 . S
H623 N610 0.985 . S
C624 C625 1.363 1_455 S
C624 C630 1.379 . S
C624 N632 1.356 . S
C625 C624 1.363 1_655 S
C625 C631 1.363 . S
C626 C627 1.363 . S
C626 C631 1.379 . S
C626 N633 1.356 . S
C627 C626 1.363 . S
C627 C630 1.363 1_655 S
N628 C630 1.356 . S
N628 H640 0.984 . S
N628 H641 0.985 . S
N629 C631 1.356 . S
N629 H634 0.984 . S
N629 H635 0.985 . S
C630 C624 1.379 . S
C630 C627 1.363 1_455 S
C630 N628 1.356 . S
C631 C625 1.363 . S
C631 C626 1.379 . S
C631 N629 1.356 . S
N632 C624 1.356 . S
N632 H638 0.984 . S
N632 H639 0.984 . S
N633 C626 1.356 . S
N633 H636 0.984 . S
N633 H637 0.985 . S
H634 N629 0.984 . S
H635 N629 0.985 . S
H636 N633 0.984 . S
H637 N633 0.985 . S
H638 N632 0.984 . S
H639 N632 0.984 . S
H640 N628 0.984 . S
H641 N628 0.985 . S
C642 C643 1.363 1_545 S
C642 C648 1.379 . S
C642 N650 1.356 . S
C643 C642 1.363 1_565 S
C643 C649 1.363 . S
C644 C645 1.363 . S
C644 C649 1.379 . S
C644 N651 1.356 . S
C645 C644 1.363 . S
C645 C648 1.363 1_565 S
N646 C648 1.356 . S
N646 H658 0.984 . S
N646 H659 0.985 . S
N647 C649 1.356 . S
N647 H652 0.984 . S
N647 H653 0.985 . S
C648 C642 1.379 . S
C648 C645 1.363 1_545 S
C648 N646 1.356 . S
C649 C643 1.363 . S
C649 C644 1.379 . S
C649 N647 1.356 . S
N650 C642 1.356 . S
N650 H656 0.984 . S
N650 H657 0.984 . S
N651 C644 1.356 . S
N651 H654 0.984 . S
N651 H655 0.985 . S
H652 N647 0.984 . S
H653 N647 0.985 . S
H654 N651 0.984 . S
H655 N651 0.985 . S
H656 N650 0.984 . S
H657 N650 0.984 . S
H658 N646 0.984 . S
H659 N646 0.985 . S
C660 C661 1.363 . S
C660 C666 1.379 . S
C660 N668 1.356 . S
C661 C660 1.363 . S
C661 C667 1.363 . S
C662 C663 1.363 . S
C662 C667 1.379 . S
C662 N669 1.356 . S
C663 C662 1.363 . S
C663 C666 1.363 . S
N664 C666 1.356 . S
N664 H676 0.984 . S
N664 H677 0.985 . S
N665 C667 1.356 . S
N665 H670 0.984 . S
N665 H671 0.985 . S
C666 C660 1.379 . S
C666 C663 1.363 . S
C666 N664 1.356 . S
C667 C661 1.363 . S
C667 C662 1.379 . S
C667 N665 1.356 . S
N668 C660 1.356 . S
N668 H674 0.984 . S
N668 H675 0.984 . S
N669 C662 1.356 . S
N669 H672 0.984 . S
N669 H673 0.985 . S
H670 N665 0.984 . S
H671 N665 0.985 . S
H672 N669 0.984 . S
H673 N669 0.985 . S
H674 N668 0.984 . S
H675 N668 0.984 . S
H676 N664 0.984 . S
H677 N664 0.985 . S
C678 C679 1.363 . S
C678 C684 1.379 . S
C678 N686 1.356 . S
C679 C678 1.363 . S
C679 C685 1.363 . S
C680 C681 1.363 . S
C680 C685 1.379 . S
C680 N687 1.356 . S
C681 C680 1.363 . S
C681 C684 1.363 . S
N682 C684 1.356 . S
N682 H694 0.984 1_556 S
N682 H695 0.985 . S
N683 C685 1.356 . S
N683 H688 0.984 . S
N683 H689 0.985 . S
C684 C678 1.379 . S
C684 C681 1.363 . S
C684 N682 1.356 . S
C685 C679 1.363 . S
C685 C680 1.379 . S
C685 N683 1.356 . S
N686 C678 1.356 . S
N686 H692 0.984 . S
N686 H693 0.984 . S
N687 C680 1.356 . S
N687 H690 0.984 . S
N687 H691 0.985 . S
H688 N683 0.984 . S
H689 N683 0.985 . S
H690 N687 0.984 . S
H691 N687 0.985 . S
H692 N686 0.984 . S
H693 N686 0.984 . S
H694 N682 0.984 1_554 S
H695 N682 0.985 . S
C265 C82 1.824 . S
C267 C127 2.262 1_545 S
C285 C167 1.813 . S
C283 C95 1.781 . S
C303 C186 2.275 . S
C301 C56 1.888 . S
C321 C247 1.560 1_455 S
C319 C69 1.255 . S
C339 C106 2.264 1_564 S
C337 C30 1.827 1_565 S
C355 C43 1.725 . S
C357 C146 1.816 . S
C373 C4 1.803 . S
C375 C207 2.274 1_554 S
C391 C17 1.253 1_655 S
C393 C226 1.559 1_654 S
C411 C108 1.154 . S
C409 C74 1.215 1_655 S
C429 C148 0.594 . S
C427 C87 0.584 . S
C447 C204 1.368 . S
C445 C100 1.190 . S
C463 C61 0.712 . S
C465 C228 0.712 . S
C481 C22 1.215 . S
C483 C129 1.158 . S
C501 C169 0.594 . S
C499 C35 0.589 1_565 S
C519 C215 1.368 . S
C517 C48 1.185 . S
C535 C9 0.714 . S
C537 C249 0.717 . S
C553 C73 1.637 . S
C555 C124 1.847 1_554 S
C571 C86 2.321 . S
C573 C164 2.581 . S
C591 C188 1.636 . S
C589 C99 1.669 . S
C609 C244 2.572 . S
C607 C60 2.314 1_556 S
C625 C21 1.638 1_655 S
C627 C135 1.855 . S
C645 C175 2.580 . S
C643 C34 2.316 1_565 S
C663 C209 1.636 . S
C661 C47 1.677 . S
C679 C8 2.313 . S
C681 C255 2.574 . S
