# Generated by pormake.
# Topology anh, (6,3)-cn, num edge types: 1
# Building blocks:
#     Node 0, Type 0, BuildingBlock: CUKXOW_clean_sbu_0, # of connection points: 6
#     Node 1, Type 0, BuildingBlock: CUKXOW_clean_sbu_0, # of connection points: 6
#     Node 2, Type 0, BuildingBlock: CUKXOW_clean_sbu_0, # of connection points: 6
#     Node 3, Type 1, BuildingBlock: MIDCAF_clean_linker_0, # of connection points: 3
#     Node 4, Type 1, BuildingBlock: MIDCAF_clean_linker_0, # of connection points: 3
#     Node 5, Type 1, BuildingBlock: MIDCAF_clean_linker_0, # of connection points: 3
#     Node 6, Type 1, BuildingBlock: MIDCAF_clean_linker_0, # of connection points: 3
#     Node 7, Type 1, BuildingBlock: MIDCAF_clean_linker_0, # of connection points: 3
#     Node 8, Type 1, BuildingBlock: MIDCAF_clean_linker_0, # of connection points: 3
#     Edge 9, Type (0, 1), BuildingBlock: XUDNAN_clean_linker_2, # of connection points: 2
#     Edge 10, Type (0, 1), BuildingBlock: XUDNAN_clean_linker_2, # of connection points: 2
#     Edge 11, Type (0, 1), BuildingBlock: XUDNAN_clean_linker_2, # of connection points: 2
#     Edge 12, Type (0, 1), BuildingBlock: XUDNAN_clean_linker_2, # of connection points: 2
#     Edge 13, Type (0, 1), BuildingBlock: XUDNAN_clean_linker_2, # of connection points: 2
#     Edge 14, Type (0, 1), BuildingBlock: XUDNAN_clean_linker_2, # of connection points: 2
#     Edge 15, Type (0, 1), BuildingBlock: XUDNAN_clean_linker_2, # of connection points: 2
#     Edge 16, Type (0, 1), BuildingBlock: XUDNAN_clean_linker_2, # of connection points: 2
#     Edge 17, Type (0, 1), BuildingBlock: XUDNAN_clean_linker_2, # of connection points: 2
#     Edge 18, Type (0, 1), BuildingBlock: XUDNAN_clean_linker_2, # of connection points: 2
#     Edge 19, Type (0, 1), BuildingBlock: XUDNAN_clean_linker_2, # of connection points: 2
#     Edge 20, Type (0, 1), BuildingBlock: XUDNAN_clean_linker_2, # of connection points: 2
#     Edge 21, Type (0, 1), BuildingBlock: XUDNAN_clean_linker_2, # of connection points: 2
#     Edge 22, Type (0, 1), BuildingBlock: XUDNAN_clean_linker_2, # of connection points: 2
#     Edge 23, Type (0, 1), BuildingBlock: XUDNAN_clean_linker_2, # of connection points: 2
#     Edge 24, Type (0, 1), BuildingBlock: XUDNAN_clean_linker_2, # of connection points: 2
#     Edge 25, Type (0, 1), BuildingBlock: XUDNAN_clean_linker_2, # of connection points: 2
#     Edge 26, Type (0, 1), BuildingBlock: XUDNAN_clean_linker_2, # of connection points: 2
# Relax obj value: 0.134
# Max RMSD: 0.194
# Mean RMSD: 0.139
data_MOF--net-anh--node1-CUKXOW_clean_sbu_0--node2-MIDCAF_clean_linker_0--edge1-XUDNAN_clean_linker_2
_symmetry_space_group_name_H-M    P1
_symmetry_Int_Tables_number       1
_symmetry_cell_setting            triclinic
loop_
_symmetry_equiv_pos_as_xyz
'x, y, z'
_cell_length_a     34.987239
_cell_length_b     34.015759
_cell_length_c     64.871415
_cell_angle_alpha  95.548023
_cell_angle_beta   90.078586
_cell_angle_gamma 115.38374
loop_
_atom_site_label
_atom_site_type_symbol
_atom_site_fract_x
_atom_site_fract_y
_atom_site_fract_z
_atom_type_partial_charge
Tb0 Tb 0.0707 0.53301 0.15002 0.0
C1 C 0.04475 0.50847 0.19572 0.0
Tb2 Tb 0.01812 0.43902 0.1565 0.0
O3 O 0.02032 0.53177 0.1296 0.0
O4 O 1.00474 0.49421 0.15444 0.0
O5 O 0.06605 0.53951 0.18368 0.0
C6 C 0.95186 0.36382 0.16179 0.0
O7 O 0.02309 0.46678 0.18844 0.0
C8 C 0.10021 0.46031 0.15344 0.0
C9 C 0.04895 0.46174 0.11237 0.0
O10 O 0.99043 0.37505 0.16869 0.0
O11 O 0.95077 0.39479 0.15198 0.0
O12 O 0.07025 0.42155 0.14782 0.0
O13 O 0.08335 0.48367 0.16194 0.0
O14 O 0.01759 0.43579 0.123 0.0
O15 O 0.07786 0.50023 0.12072 0.0
C16 C 0.12955 0.61573 0.15095 0.0
O17 O 0.13623 0.58115 0.14675 0.0
O18 O 0.0898 0.60365 0.15446 0.0
C19 C 0.98945 0.50335 0.13888 0.0
Tb20 Tb 0.4942 0.0234 0.50262 0.0
C21 C 0.53799 0.07042 0.46475 0.0
Tb22 Tb 0.58852 0.08561 0.50804 0.0
O23 O 0.478 0.07814 0.49898 0.0
O24 O 0.53122 0.08727 0.51707 0.0
O25 O 0.50615 0.03517 0.47049 0.0
C26 C 0.66392 0.15423 0.50977 0.0
O27 O 0.57017 0.09712 0.47767 0.0
C28 C 0.57069 1.00214 0.50212 0.0
C29 C 0.54479 0.03862 0.54594 0.0
O30 O 0.65358 0.11751 0.49822 0.0
O31 O 0.63194 0.1522 0.52043 0.0
O32 O 0.60423 0.03116 0.51259 0.0
O33 O 0.55153 0.02132 0.49405 0.0
O34 O 0.57674 0.07365 0.54011 0.0
O35 O 0.51194 0.01262 0.53326 0.0
C36 C 0.42156 0.95159 0.50137 0.0
O37 O 0.42813 0.98936 0.511 0.0
O38 O 0.45531 0.95475 0.49207 0.0
C39 C 0.51179 0.10673 0.50952 0.0
Tb40 Tb 0.54042 0.57734 0.8324 0.0
C41 C 0.57541 0.58767 0.87921 0.0
Tb42 Tb 0.63554 0.5936 0.8419 0.0
O43 O 0.52695 0.50998 0.81908 0.0
O44 O 0.57391 0.54319 0.84216 0.0
O45 O 0.54638 0.58935 0.86634 0.0
C46 C 0.69122 0.56006 0.83865 0.0
O47 O 0.61043 0.58463 0.87282 0.0
C48 C 0.62825 0.66728 0.84065 0.0
C49 C 0.60021 0.58877 0.79552 0.0
O50 O 0.69071 0.58692 0.85439 0.0
O51 O 0.66152 0.55364 0.82503 0.0
O52 O 0.66467 0.66643 0.84442 0.0
O53 O 0.60109 0.62827 0.83737 0.0
O54 O 0.6287 0.58553 0.80797 0.0
O55 O 0.56554 0.59153 0.80212 0.0
C56 C 0.46761 0.58294 0.82792 0.0
O57 O 0.47146 0.54842 0.83249 0.0
O58 O 0.50474 0.61458 0.82626 0.0
C59 C 0.55749 0.50869 0.83004 0.0
C60 C 0.3767 0.91626 0.20659 0.0
C61 C 0.37746 0.8934 0.18752 0.0
C62 C 0.41622 0.90479 0.1779 0.0
C63 C 0.45346 0.93904 0.18711 0.0
H64 H 0.59689 0.02696 0.18337 0.0
H65 H 0.66496 0.07065 0.16851 0.0
H66 H 0.67586 0.18488 0.20809 0.0
H67 H 0.6089 0.14151 0.22306 0.0
H68 H 0.59364 0.10004 0.27261 0.0
H69 H 0.5965 0.11623 0.30999 0.0
H70 H 0.46437 0.0262 0.31138 0.0
H71 H 0.4617 0.00892 0.27391 0.0
H72 H 0.41172 0.96653 0.23064 0.0
H73 H 0.34737 0.90787 0.21447 0.0
H74 H 0.41759 0.88763 0.16316 0.0
H75 H 0.4829 0.94735 0.17936 0.0
N76 N 0.52596 0.02022 0.2058 0.0
N77 N 0.56013 0.06487 0.23638 0.0
N78 N 0.49209 0.00864 0.23744 0.0
C79 C 0.56027 0.05436 0.21567 0.0
C80 C 0.5264 0.04202 0.24743 0.0
C81 C 0.49145 0.99749 0.21669 0.0
C82 C 0.59783 0.08083 0.20443 0.0
C83 C 0.61359 0.06156 0.18857 0.0
C84 C 0.65252 0.08643 0.18018 0.0
C85 C 0.6756 0.13112 0.18717 0.0
C86 C 0.65862 0.15065 0.20227 0.0
C87 C 0.6204 0.12573 0.21092 0.0
C88 C 0.52745 0.05306 0.27018 0.0
C89 C 0.56506 0.08375 0.28081 0.0
C90 C 0.56666 0.09329 0.3023 0.0
C91 C 0.53063 0.07264 0.31373 0.0
C92 C 0.49286 0.0423 0.30309 0.0
C93 C 0.49129 0.03256 0.28157 0.0
C94 C 0.45259 0.96172 0.20631 0.0
C95 C 0.41374 0.94975 0.21591 0.0
C96 C 0.51014 0.41531 0.52321 0.0
C97 C 0.54932 0.41286 0.52269 0.0
C98 C 0.58672 0.4521 0.52556 0.0
C99 C 0.58505 0.4921 0.53095 0.0
H100 H 0.52803 0.61052 0.50921 0.0
H101 H 0.52191 0.67323 0.49652 0.0
H102 H 0.50868 0.71985 0.55917 0.0
H103 H 0.51506 0.65807 0.57183 0.0
H104 H 0.5121 0.58707 0.61135 0.0
H105 H 0.52784 0.58848 0.64809 0.0
H106 H 0.64043 0.57104 0.63264 0.0
H107 H 0.62201 0.56568 0.59602 0.0
H108 H 0.47803 0.45613 0.53054 0.0
H109 H 0.48072 0.38579 0.5212 0.0
H110 H 0.61744 0.4516 0.52486 0.0
H111 H 0.61435 0.52119 0.53482 0.0
N112 N 0.53304 0.56078 0.53748 0.0
N113 N 0.54189 0.59916 0.57068 0.0
N114 N 0.55582 0.5376 0.56616 0.0
C115 C 0.53185 0.59492 0.55004 0.0
C116 C 0.55405 0.5708 0.57875 0.0
C117 C 0.54485 0.53194 0.54567 0.0
C118 C 0.52263 0.62935 0.54159 0.0
C119 C 0.52322 0.63381 0.52023 0.0
C120 C 0.51965 0.66976 0.51295 0.0
C121 C 0.51547 0.70198 0.52687 0.0
C122 C 0.51284 0.69626 0.54806 0.0
C123 C 0.51635 0.66054 0.5553 0.0
C124 C 0.56567 0.5759 0.60099 0.0
C125 C 0.54019 0.58364 0.61597 0.0
C126 C 0.54954 0.58477 0.63707 0.0
C127 C 0.58539 0.5795 0.64363 0.0
C128 C 0.6118 0.57374 0.62841 0.0
C129 C 0.6016 0.57115 0.60736 0.0
C130 C 0.546 0.49399 0.53315 0.0
C131 C 0.50852 0.4556 0.52845 0.0
C132 C 0.87892 0.39997 0.87059 0.0
C133 C 0.8736 0.41206 0.85111 0.0
C134 C 0.90562 0.41998 0.83688 0.0
C135 C 0.94388 0.41973 0.84274 0.0
H136 H 0.07918 0.44992 0.82685 0.0
H137 H 0.14456 0.48928 0.80906 0.0
H138 H 0.20325 0.56824 0.86648 0.0
H139 H 0.13885 0.52828 0.88435 0.0
H140 H 0.11231 0.46612 0.9237 0.0
H141 H 0.1205 0.45844 0.96025 0.0
H142 H 0.98934 0.36464 0.95932 0.0
H143 H 0.98103 0.37183 0.92287 0.0
H144 H 0.92092 0.39227 0.89198 0.0
H145 H 0.8544 0.3932 0.88172 0.0
H146 H 0.90235 0.42952 0.82176 0.0
H147 H 0.96892 0.42858 0.83185 0.0
N148 N 0.02788 0.44412 0.85981 0.0
N149 N 0.0734 0.45068 0.88785 0.0
N150 N 1.00004 0.41269 0.89018 0.0
C151 C 0.06766 0.45899 0.86832 0.0
C152 C 0.03972 0.42703 0.89878 0.0
C153 C 0.99381 0.4211 0.87074 0.0
C154 C 0.10446 0.48576 0.85697 0.0
C155 C 0.10587 0.47624 0.83551 0.0
C156 C 0.14296 0.49878 0.82535 0.0
C157 C 0.17845 0.53193 0.83643 0.0
C158 C 0.17597 0.54326 0.85759 0.0
C159 C 0.13942 0.52005 0.86783 0.0
C160 C 0.0459 0.41979 0.92038 0.0
C161 C 0.08534 0.44342 0.9312 0.0
C162 C 0.09005 0.43923 0.95214 0.0
C163 C 0.05557 0.411 0.96258 0.0
C164 C 1.01661 0.38627 0.9516 0.0
C165 C 1.01178 0.39069 0.93074 0.0
C166 C 0.95067 0.41139 0.8629 0.0
C167 C 0.91703 0.39936 0.8764 0.0
C168 C 0.20089 0.64556 0.45893 0.0
C169 C 0.1965 0.65699 0.47989 0.0
C170 C 0.16124 0.629 0.49001 0.0
C171 C 0.13007 0.59132 0.4791 0.0
H172 H 0.02119 0.47901 0.48471 0.0
H173 H 0.9611 0.42726 0.50157 0.0
H174 H 0.90022 0.36454 0.4417 0.0
H175 H 0.96047 0.41574 0.42472 0.0
H176 H 0.99706 0.46635 0.38439 0.0
H177 H 0.99366 0.47473 0.34753 0.0
H178 H 0.12329 0.57321 0.35278 0.0
H179 H 0.1267 0.56551 0.38941 0.0
H180 H 0.17372 0.60124 0.43174 0.0
H181 H 0.22734 0.66667 0.45056 0.0
H182 H 0.15724 0.63682 0.50621 0.0
H183 H 0.10253 0.57117 0.48712 0.0
N184 N 0.06543 0.51509 0.45462 0.0
N185 N 0.03094 0.48349 0.42204 0.0
N186 N 0.09694 0.54427 0.42446 0.0
C187 C 0.03179 0.48385 0.44304 0.0
C188 C 0.06356 0.51366 0.41265 0.0
C189 C 0.09822 0.54528 0.44539 0.0
C190 C 0.99573 0.45166 0.45331 0.0
C191 C 0.99514 0.45411 0.47508 0.0
C192 C 0.9606 0.42461 0.48479 0.0
C193 C 0.92597 0.39191 0.47296 0.0
C194 C 0.9267 0.38909 0.45123 0.0
C195 C 0.96118 0.41865 0.4415 0.0
C196 C 0.062 0.51552 0.38995 0.0
C197 C 0.02492 0.48957 0.37765 0.0
C198 C 0.02297 0.49431 0.35653 0.0
C199 C 0.05802 0.52508 0.34734 0.0
C200 C 0.09542 0.54997 0.35951 0.0
C201 C 0.0974 0.54528 0.38053 0.0
C202 C 0.13351 0.58125 0.45784 0.0
C203 C 0.16983 0.60816 0.44805 0.0
C204 C 0.58806 0.22008 0.79308 0.0
C205 C 0.59016 0.23346 0.81435 0.0
C206 C 0.59431 0.20634 0.82851 0.0
C207 C 0.5958 0.16655 0.82142 0.0
H208 H 0.57849 0.02395 0.8339 0.0
H209 H 0.58161 0.96281 0.85004 0.0
H210 H 0.649 0.939 0.79815 0.0
H211 H 0.64664 0.99972 0.78256 0.0
H212 H 0.58807 0.99062 0.73855 0.0
H213 H 0.57799 0.97352 0.70094 0.0
H214 H 0.57014 0.09555 0.6959 0.0
H215 H 0.5807 0.11306 0.73323 0.0
H216 H 0.58782 0.17233 0.76946 0.0
H217 H 0.58601 0.2404 0.78167 0.0
H218 H 0.59591 0.2156 0.84504 0.0
H219 H 0.59878 0.14631 0.83264 0.0
N220 N 0.60167 0.08426 0.80381 0.0
N221 N 0.5988 0.03772 0.77386 0.0
N222 N 0.58948 0.10067 0.77075 0.0
C223 C 0.60405 0.0473 0.79479 0.0
C224 C 0.59132 0.06406 0.76175 0.0
C225 C 0.59466 0.11142 0.79159 0.0
C226 C 0.61201 0.01646 0.8069 0.0
C227 C 0.5949 0.00627 0.82631 0.0
C228 C 0.59634 0.97098 0.83541 0.0
C229 C 0.61535 0.94565 0.82536 0.0
C230 C 0.63455 0.95781 0.80655 0.0
C231 C 0.63287 0.99259 0.79748 0.0
C232 C 0.58531 0.05329 0.73896 0.0
C233 C 0.58432 0.01388 0.72942 0.0
C234 C 0.57834 1.00393 0.7079 0.0
C235 C 0.57351 0.03329 0.6955 0.0
C236 C 0.57446 0.07258 0.70502 0.0
C237 C 0.58025 0.08246 0.72648 0.0
C238 C 0.59326 0.1532 0.80005 0.0
C239 C 0.58946 0.18075 0.78607 0.0
C240 C 0.66072 0.44237 0.11465 0.0
C241 C 0.69307 0.47168 0.12893 0.0
C242 C 0.68398 0.50157 0.1423 0.0
C243 C 0.64487 0.50426 0.14019 0.0
H244 H 0.43474 0.44639 0.1004 0.0
H245 H 0.36806 0.44544 0.11122 0.0
H246 H 0.42758 0.5137 0.17057 0.0
H247 H 0.49535 0.51532 0.15926 0.0
H248 H 0.51678 0.55938 0.0748 0.0
H249 H 0.51741 0.57901 0.03977 0.0
H250 H 0.59384 0.51079 0.02174 0.0
H251 H 0.59498 0.4932 0.05729 0.0
H252 H 0.59927 0.4239 0.10039 0.0
H253 H 0.66626 0.41872 0.10419 0.0
H254 H 0.70817 0.52493 0.15334 0.0
H255 H 0.64019 0.52991 0.14949 0.0
N256 N 0.54381 0.48174 0.12832 0.0
N257 N 0.51727 0.50388 0.10046 0.0
N258 N 0.58278 0.50136 0.09823 0.0
C259 C 0.51226 0.48963 0.11953 0.0
C260 C 0.55222 0.5101 0.08979 0.0
C261 C 0.57942 0.48775 0.11747 0.0
C262 C 0.4706 0.48069 0.12897 0.0
C263 C 0.4335 0.46033 0.11599 0.0
C264 C 0.39492 0.4597 0.12226 0.0
C265 C 0.39179 0.47974 0.14179 0.0
C266 C 0.42853 0.4984 0.15527 0.0
C267 C 0.46741 0.49876 0.14897 0.0
C268 C 0.55554 0.52444 0.06876 0.0
C269 C 0.534 0.54886 0.06339 0.0
C270 C 0.53412 0.55983 0.0432 0.0
C271 C 0.55502 0.54587 0.02768 0.0
C272 C 0.57768 0.5225 0.03324 0.0
C273 C 0.57821 0.51221 0.05362 0.0
C274 C 0.61388 0.47678 0.12484 0.0
C275 C 0.622 0.44502 0.1126 0.0
H276 H 0.13977 0.41037 0.13687 0.0
H277 H 0.16603 0.5357 0.17123 0.0
H278 H 0.24259 0.55372 0.17277 0.0
H279 H 0.21778 0.38925 0.16428 0.0
H280 H 0.23183 0.36439 0.14155 0.0
H281 H 0.17933 0.3616 0.14305 0.0
H282 H 0.1882 0.39684 0.10869 0.0
H283 H 0.24065 0.39957 0.10703 0.0
H284 H 0.23286 0.4485 0.10635 0.0
H285 H 0.31747 0.55755 0.17077 0.0
H286 H 0.38289 0.54859 0.16408 0.0
H287 H 0.30797 0.42007 0.13139 0.0
C288 C 0.16163 0.44165 0.14471 0.0
C289 C 0.14666 0.47166 0.15392 0.0
C290 C 0.17652 0.51223 0.16397 0.0
C291 C 0.22018 0.52267 0.16499 0.0
C292 C 0.23386 0.49225 0.15588 0.0
C293 C 0.20539 0.4526 0.14584 0.0
C294 C 0.22826 0.42577 0.13716 0.0
C295 C 0.21341 0.3827 0.14711 0.0
C296 C 0.22213 0.41718 0.1134 0.0
C297 C 0.27402 0.45639 0.14383 0.0
C298 C 0.2766 0.49451 0.15469 0.0
C299 C 0.31561 0.52769 0.16233 0.0
C300 C 0.35279 0.52208 0.15859 0.0
C301 C 0.3513 0.48355 0.14722 0.0
C302 C 0.31088 0.45022 0.13996 0.0
H303 H 0.72903 0.16456 0.48463 0.0
H304 H 0.68878 0.23217 0.53378 0.0
H305 H 0.75442 0.29974 0.53139 0.0
H306 H 0.84304 0.21962 0.49878 0.0
H307 H 0.85744 0.22153 0.4721 0.0
H308 H 0.80936 0.17767 0.47914 0.0
H309 H 0.76638 0.19662 0.45242 0.0
H310 H 0.81421 0.24065 0.44539 0.0
H311 H 0.77032 0.25145 0.45396 0.0
H312 H 0.82197 0.36084 0.52197 0.0
H313 H 0.88603 0.41139 0.50597 0.0
H314 H 0.88159 0.30347 0.46288 0.0
C315 C 0.73445 0.1934 0.49512 0.0
C316 C 0.70425 0.19333 0.50949 0.0
C317 C 0.71187 0.23171 0.52276 0.0
C318 C 0.74899 0.27012 0.52153 0.0
C319 C 0.77796 0.26936 0.50695 0.0
C320 C 0.77116 0.23197 0.49402 0.0
C321 C 0.80594 0.24043 0.47887 0.0
C322 C 0.8304 0.2132 0.48245 0.0
C323 C 0.78814 0.23178 0.45633 0.0
C324 C 0.83296 0.28863 0.48502 0.0
C325 C 0.81656 0.30464 0.50138 0.0
C326 C 0.83537 0.3486 0.50931 0.0
C327 C 0.8718 0.37699 0.50017 0.0
C328 C 0.88879 0.3613 0.48322 0.0
C329 C 0.86917 0.31645 0.47573 0.0
H330 H 0.68218 0.74986 0.83226 0.0
H331 H 0.55628 0.67348 0.85254 0.0
H332 H 0.54078 0.73806 0.85339 0.0
H333 H 0.70011 0.85294 0.8632 0.0
H334 H 0.72799 0.88611 0.84321 0.0
H335 H 0.72979 0.83447 0.84525 0.0
H336 H 0.7019 0.80892 0.80699 0.0
H337 H 0.70018 0.86049 0.80482 0.0
H338 H 0.65317 0.81008 0.79878 0.0
H339 H 0.5382 0.81045 0.85054 0.0
H340 H 0.54718 0.88329 0.84248 0.0
H341 H 0.67573 0.91355 0.82498 0.0
C342 C 0.65152 0.74699 0.83704 0.0
C343 C 0.61997 0.70654 0.8419 0.0
C344 C 0.58023 0.70382 0.84806 0.0
C345 C 0.57144 0.74051 0.84889 0.0
C346 C 0.60294 0.77986 0.84367 0.0
C347 C 0.6422 0.78334 0.83786 0.0
C348 C 0.66977 0.82881 0.83205 0.0
C349 C 0.70925 0.85194 0.84681 0.0
C350 C 0.68195 0.82694 0.80931 0.0
C351 C 0.63969 0.85012 0.83518 0.0
C352 C 0.60147 0.82152 0.84211 0.0
C353 C 0.56817 0.83329 0.84532 0.0
C354 C 0.57371 0.87497 0.84086 0.0
C355 C 0.6122 0.90446 0.83314 0.0
C356 C 0.64581 0.89188 0.83075 0.0
H357 H 0.92258 0.48698 0.16577 0.0
H358 H 0.95392 0.49815 0.10129 0.0
H359 H 0.88186 0.48871 0.09219 0.0
H360 H 0.80994 0.40652 0.15602 0.0
H361 H 0.7914 0.43132 0.17709 0.0
H362 H 0.84428 0.43492 0.17859 0.0
H363 H 0.87475 0.51933 0.185 0.0
H364 H 0.82204 0.51607 0.18337 0.0
H365 H 0.86166 0.54879 0.16666 0.0
H366 H 0.80809 0.48094 0.08972 0.0
H367 H 0.73657 0.47653 0.09399 0.0
H368 H 0.75022 0.47393 0.16028 0.0
C369 C 0.91385 0.48652 0.1497 0.0
C370 C 0.94397 0.49281 0.13415 0.0
C371 C 0.93153 0.49313 0.11342 0.0
C372 C 0.89056 0.4878 0.10809 0.0
C373 C 0.86192 0.48258 0.12368 0.0
C374 C 0.87279 0.48192 0.14409 0.0
C375 C 0.83606 0.47807 0.1578 0.0
C376 C 0.81943 0.43516 0.16798 0.0
C377 C 0.84944 0.51794 0.17418 0.0
C378 C 0.80336 0.47742 0.14193 0.0
C379 C 0.81908 0.47946 0.12233 0.0
C380 C 0.7954 0.47914 0.10499 0.0
C381 C 0.75458 0.4765 0.10758 0.0
C382 C 0.73723 0.47457 0.12742 0.0
C383 C 0.76238 0.47542 0.1449 0.0
H384 H 0.4121 0.87036 0.48697 0.0
H385 H 0.34665 0.94003 0.51866 0.0
H386 H 0.2837 0.8696 0.52072 0.0
H387 H 0.32604 0.79389 0.4559 0.0
H388 H 0.34021 0.74915 0.45748 0.0
H389 H 0.38069 0.80451 0.46027 0.0
H390 H 0.40558 0.7925 0.49578 0.0
H391 H 0.36496 0.73702 0.49316 0.0
H392 H 0.36809 0.77378 0.51573 0.0
H393 H 0.22643 0.79245 0.51651 0.0
H394 H 0.1781 0.71559 0.50487 0.0
H395 H 0.28271 0.69651 0.47736 0.0
C396 C 0.38457 0.87075 0.49445 0.0
C397 C 0.38384 0.91034 0.50258 0.0
C398 C 0.34751 0.9098 0.5123 0.0
C399 C 0.31187 0.87004 0.51366 0.0
C400 C 0.31358 0.83139 0.50547 0.0
C401 C 0.34907 0.8315 0.49609 0.0
C402 C 0.34224 0.78598 0.48747 0.0
C403 C 0.34759 0.78325 0.46389 0.0
C404 C 0.37198 0.77147 0.49871 0.0
C405 C 0.29667 0.76032 0.49271 0.0
C406 C 0.28087 0.78692 0.50338 0.0
C407 C 0.2386 0.77112 0.50849 0.0
C408 C 0.21144 0.72732 0.50193 0.0
C409 C 0.22669 0.70005 0.49027 0.0
C410 C 0.27016 0.71657 0.48625 0.0
H411 H 0.52458 0.43009 0.80509 0.0
H412 H 0.6129 0.50145 0.85717 0.0
H413 H 0.63069 0.43913 0.85918 0.0
H414 H 0.48493 0.32468 0.82455 0.0
H415 H 0.48004 0.29479 0.79943 0.0
H416 H 0.47524 0.34566 0.80161 0.0
H417 H 0.53513 0.37658 0.77599 0.0
H418 H 0.54 0.32575 0.77367 0.0
H419 H 0.58567 0.3765 0.78136 0.0
H420 H 0.63854 0.36827 0.8557 0.0
H421 H 0.6369 0.29529 0.84632 0.0
H422 H 0.54091 0.26869 0.79772 0.0
C423 C 0.54769 0.43254 0.81687 0.0
C424 C 0.56779 0.47086 0.83078 0.0
C425 C 0.59759 0.47268 0.84612 0.0
C426 C 0.60775 0.43732 0.84748 0.0
C427 C 0.58734 0.39992 0.83358 0.0
C428 C 0.55789 0.39724 0.81858 0.0
C429 C 0.54027 0.35309 0.80569 0.0
C430 C 0.49227 0.32809 0.80797 0.0
C431 C 0.55091 0.35831 0.78282 0.0
C432 C 0.56434 0.33146 0.81578 0.0
C433 C 0.59138 0.35898 0.83182 0.0
C434 C 0.61729 0.34632 0.84322 0.0
C435 C 0.6159 0.30463 0.83789 0.0
C436 C 0.58884 0.27605 0.82128 0.0
C437 C 0.56237 0.28977 0.81035 0.0
H438 H 0.59065 0.95986 0.53076 0.0
H439 H 0.5159 0.93677 0.47378 0.0
H440 H 0.49074 0.85665 0.47431 0.0
H441 H 0.62464 0.87626 0.51941 0.0
H442 H 0.62114 0.86185 0.54559 0.0
H443 H 0.63128 0.9167 0.54095 0.0
H444 H 0.56615 0.91087 0.56173 0.0
H445 H 0.55578 0.85595 0.56647 0.0
H446 H 0.51506 0.86641 0.55446 0.0
H447 H 0.47732 0.77853 0.48045 0.0
H448 H 0.47473 0.71024 0.49221 0.0
H449 H 0.55834 0.78605 0.54521 0.0
C450 C 0.56899 0.93791 0.51839 0.0
C451 C 0.55503 0.9543 0.50226 0.0
C452 C 0.52651 0.92468 0.48641 0.0
C453 C 0.51224 0.87921 0.48656 0.0
C454 C 0.52678 0.86404 0.50271 0.0
C455 C 0.55433 0.89264 0.51839 0.0
C456 C 0.56555 0.8684 0.53394 0.0
C457 C 0.61349 0.88159 0.53502 0.0
C458 C 0.54968 0.87585 0.55542 0.0
C459 C 0.54095 0.82165 0.52433 0.0
C460 C 0.51859 0.81963 0.50637 0.0
C461 C 0.49457 0.77981 0.49456 0.0
C462 C 0.49347 0.74121 0.50128 0.0
C463 C 0.5161 0.74264 0.5197 0.0
C464 C 0.54002 0.7836 0.53128 0.0
H465 H 0.74453 0.55496 0.86848 0.0
H466 H 0.69195 0.50585 0.80559 0.0
H467 H 0.72761 0.45712 0.80308 0.0
H468 H 0.84587 0.55614 0.85983 0.0
H469 H 0.85067 0.53867 0.88468 0.0
H470 H 0.81972 0.56867 0.88169 0.0
H471 H 0.75499 0.50611 0.89567 0.0
H472 H 0.78561 0.47555 0.89836 0.0
H473 H 0.73636 0.4511 0.88309 0.0
H474 H 0.77102 0.41625 0.80658 0.0
H475 H 0.82275 0.38815 0.81564 0.0
H476 H 0.84618 0.46237 0.87629 0.0
C477 C 0.74091 0.53417 0.85418 0.0
C478 C 0.71591 0.53434 0.83719 0.0
C479 C 0.71133 0.50639 0.81876 0.0
C480 C 0.73115 0.47835 0.81721 0.0
C481 C 0.75528 0.47851 0.83426 0.0
C482 C 0.76044 0.50574 0.85237 0.0
C483 C 0.78913 0.5002 0.86814 0.0
C484 C 0.82869 0.54349 0.87391 0.0
C485 C 0.76507 0.48216 0.88746 0.0
C486 C 0.80008 0.46656 0.85584 0.0
C487 C 0.77984 0.45414 0.83642 0.0
C488 C 0.78678 0.42529 0.82182 0.0
C489 C 0.81613 0.40955 0.82706 0.0
C490 C 0.83792 0.42271 0.84671 0.0
C491 C 0.82908 0.45086 0.86137 0.0
H492 H 0.21602 0.64537 0.15203 0.0
H493 H 0.11631 0.68908 0.1551 0.0
H494 H 0.17001 0.76585 0.16113 0.0
H495 H 0.28053 0.71991 0.19273 0.0
H496 H 0.3302 0.72921 0.18128 0.0
H497 H 0.28441 0.6781 0.17472 0.0
H498 H 0.29251 0.68945 0.13577 0.0
H499 H 0.33841 0.74071 0.14222 0.0
H500 H 0.29432 0.739 0.12714 0.0
H501 H 0.23324 0.83667 0.1698 0.0
H502 H 0.30234 0.89744 0.18139 0.0
H503 H 0.36206 0.80892 0.1731 0.0
C504 C 0.20565 0.67125 0.15355 0.0
C505 C 0.1621 0.66149 0.15294 0.0
C506 C 0.14956 0.69598 0.15542 0.0
C507 C 0.17982 0.73966 0.15878 0.0
C508 C 0.22251 0.74828 0.15961 0.0
C509 C 0.23554 0.71513 0.15705 0.0
C510 C 0.28329 0.73325 0.16021 0.0
C511 C 0.29529 0.71397 0.17831 0.0
C512 C 0.30331 0.72512 0.14014 0.0
C513 C 0.29489 0.78158 0.16547 0.0
C514 C 0.25932 0.78948 0.16478 0.0
C515 C 0.26139 0.83101 0.17016 0.0
C516 C 0.3007 0.86526 0.17679 0.0
C517 C 0.33746 0.85786 0.17803 0.0
C518 C 0.33458 0.81561 0.1719 0.0
H519 H 0.47824 0.15544 0.49109 0.0
H520 H 0.57132 0.1649 0.53788 0.0
H521 H 0.59323 0.24435 0.54471 0.0
H522 H 0.53962 0.26023 0.4716 0.0
H523 H 0.49469 0.27217 0.46818 0.0
H524 H 0.4875 0.21618 0.4661 0.0
H525 H 0.43207 0.1994 0.49435 0.0
H526 H 0.43901 0.25528 0.4965 0.0
H527 H 0.44626 0.23203 0.51917 0.0
H528 H 0.60428 0.3219 0.54707 0.0
H529 H 0.60201 0.39291 0.54613 0.0
H530 H 0.50045 0.33477 0.49844 0.0
C531 C 0.50332 0.17438 0.50271 0.0
C532 C 0.52383 0.15422 0.51365 0.0
C533 C 0.55612 0.17988 0.5289 0.0
C534 C 0.56856 0.225 0.53299 0.0
C535 C 0.54807 0.24401 0.52184 0.0
C536 C 0.51594 0.2196 0.50712 0.0
C537 C 0.49827 0.2482 0.49792 0.0
C538 C 0.50546 0.24925 0.47456 0.0
C539 C 0.45111 0.2328 0.50225 0.0
C540 C 0.52525 0.29233 0.50993 0.0
C541 C 0.55398 0.28904 0.52349 0.0
C542 C 0.58214 0.32498 0.53641 0.0
C543 C 0.5808 0.36536 0.53561 0.0
C544 C 0.55146 0.36983 0.522 0.0
C545 C 0.52331 0.33258 0.50898 0.0
H546 H 0.39058 0.51455 0.82009 0.0
H547 H 0.45413 0.65628 0.82816 0.0
H548 H 0.3849 0.65925 0.82468 0.0
H549 H 0.30519 0.50573 0.78225 0.0
H550 H 0.26652 0.4587 0.7931 0.0
H551 H 0.32134 0.46819 0.79322 0.0
H552 H 0.32209 0.46589 0.83307 0.0
H553 H 0.26741 0.456 0.833 0.0
H554 H 0.30612 0.5018 0.84931 0.0
H555 H 0.30889 0.64604 0.82682 0.0
H556 H 0.23254 0.61765 0.83364 0.0
H557 H 0.21915 0.48495 0.82115 0.0
C558 C 0.38987 0.54617 0.82073 0.0
C559 C 0.42724 0.58518 0.82447 0.0
C560 C 0.42553 0.62607 0.82526 0.0
C561 C 0.38648 0.62802 0.82318 0.0
C562 C 0.34989 0.58879 0.81978 0.0
C563 C 0.35139 0.54863 0.81827 0.0
C564 C 0.30757 0.51125 0.81625 0.0
C565 C 0.2997 0.48439 0.79493 0.0
C566 C 0.3004 0.48207 0.83397 0.0
C567 C 0.28105 0.53656 0.81815 0.0
C568 C 0.30593 0.58128 0.81989 0.0
C569 C 0.28891 0.61118 0.82475 0.0
C570 C 0.24566 0.5949 0.82858 0.0
C571 C 0.22019 0.54928 0.82732 0.0
C572 C 0.2378 0.51994 0.82132 0.0
H573 H 0.86897 0.34872 0.15933 0.0
H574 H 0.95129 0.28693 0.17111 0.0
H575 H 0.88847 0.21785 0.17567 0.0
H576 H 0.797 0.30026 0.19811 0.0
H577 H 0.75097 0.29504 0.18344 0.0
H578 H 0.80216 0.33786 0.17937 0.0
H579 H 0.79297 0.3105 0.14022 0.0
H580 H 0.74187 0.26722 0.14418 0.0
H581 H 0.78209 0.25435 0.13211 0.0
H582 H 0.81642 0.1559 0.17928 0.0
H583 H 0.74176 0.10865 0.18586 0.0
H584 H 0.70718 0.21261 0.17367 0.0
C585 C 0.87367 0.32044 0.16265 0.0
C586 C 0.91475 0.32272 0.16466 0.0
C587 C 0.91993 0.28557 0.16946 0.0
C588 C 0.88448 0.24624 0.17195 0.0
C589 C 0.84425 0.24497 0.16984 0.0
C590 C 0.83874 0.28131 0.16559 0.0
C591 C 0.79249 0.27253 0.16572 0.0
C592 C 0.78525 0.30323 0.18267 0.0
C593 C 0.77642 0.27637 0.14428 0.0
C594 C 0.77278 0.22559 0.17083 0.0
C595 C 0.80305 0.21002 0.17279 0.0
C596 C 0.79244 0.16771 0.17774 0.0
C597 C 0.74996 0.141 0.1813 0.0
C598 C 0.71879 0.15696 0.18019 0.0
C599 C 0.7304 0.19958 0.17457 0.0
H600 H 0.08696 0.51045 0.08061 0.0
H601 H 0.01743 0.37705 0.09555 0.0
H602 H 0.01944 0.34935 0.05927 0.0
H603 H 0.03266 0.4948 0.03303 0.0
H604 H 0.07785 0.53036 0.01992 0.0
H605 H 0.07596 0.53968 0.04759 0.0
H606 H 0.14767 0.53555 0.05233 0.0
H607 H 0.14969 0.52603 0.02462 0.0
H608 H 0.15342 0.48791 0.04107 0.0
H609 H 0.02341 0.33602 0.02132 0.0
H610 H 0.02613 0.33826 0.9834 0.0
H611 H 0.09139 0.48005 0.99263 0.0
C612 C 0.07291 0.47543 0.07627 0.0
C613 C 0.05216 0.44586 0.09083 0.0
C614 C 0.03333 0.40027 0.08458 0.0
C615 C 0.0346 0.38417 0.06406 0.0
C616 C 0.05475 0.41411 0.04998 0.0
C617 C 0.07346 0.45877 0.05574 0.0
C618 C 0.08952 0.48388 0.03713 0.0
C619 C 0.06768 0.51393 0.03425 0.0
C620 C 0.13796 0.50987 0.0389 0.0
C621 C 0.07588 0.44634 0.02001 0.0
C622 C 0.0565 0.40638 0.02782 0.0
C623 C 0.03892 0.36705 0.01498 0.0
C624 C 0.04042 0.36864 0.99351 0.0
C625 C 0.05909 0.40927 0.98515 0.0
C626 C 0.07776 0.44849 -0.00138 0.0
H627 H 0.49691 0.01354 0.43053 0.0
H628 H 0.5806 0.14965 0.45002 0.0
H629 H 0.58414 0.16592 0.41362 0.0
H630 H 0.55038 1.00487 0.38536 0.0
H631 H 0.50308 0.96915 0.36997 0.0
H632 H 0.5041 0.96895 0.39769 0.0
H633 H 0.43827 0.98534 0.39945 0.0
H634 H 0.43705 0.98561 0.37169 0.0
H635 H 0.43949 0.03237 0.38829 0.0
H636 H 0.5807 0.1669 0.3751 0.0
H637 H 0.57278 0.15205 0.33698 0.0
H638 H 0.49408 0.01457 0.34248 0.0
C639 C 0.51542 0.0469 0.42716 0.0
C640 C 0.53828 0.0804 0.44309 0.0
C641 C 0.56287 0.12347 0.43804 0.0
C642 C 0.56493 0.13308 0.41743 0.0
C643 C 0.54241 0.09921 0.40206 0.0
C644 C 0.51825 0.05695 0.40664 0.0
C645 C 0.49928 0.02603 0.38711 0.0
C646 C 0.51517 0.99015 0.38491 0.0
C647 C 0.45063 0.00618 0.38661 0.0
C648 C 0.51689 0.05744 0.37082 0.0
C649 C 0.54133 0.09955 0.37979 0.0
C650 C 0.56163 0.13405 0.3679 0.0
C651 C 0.55718 0.12521 0.34625 0.0
C652 C 0.53294 0.0821 0.33668 0.0
C653 C 0.51228 0.04798 0.34925 0.0
H654 H 0.57192 0.62458 0.76632 0.0
H655 H 0.64177 0.54748 0.77396 0.0
H656 H 0.64742 0.53856 0.73602 0.0
H657 H 0.51256 0.56491 0.72057 0.0
H658 H 0.51593 0.61202 0.70872 0.0
H659 H 0.5186 0.61384 0.73653 0.0
H660 H 0.59046 0.68268 0.73845 0.0
H661 H 0.58785 0.6813 0.71063 0.0
H662 H 0.63335 0.68104 0.72357 0.0
H663 H 0.63898 0.53171 0.69736 0.0
H664 H 0.62384 0.53343 0.66063 0.0
H665 H 0.56646 0.6221 0.67804 0.0
C666 C 0.5887 0.60615 0.75999 0.0
C667 C 0.60634 0.58661 0.77302 0.0
C668 C 0.62828 0.56295 0.76424 0.0
C669 C 0.63151 0.55756 0.74272 0.0
C670 C 0.61332 0.57675 0.73026 0.0
C671 C 0.59302 0.60123 0.73857 0.0
C672 C 0.57648 0.61859 0.7217 0.0
C673 C 0.52802 0.60129 0.7219 0.0
C674 C 0.59835 0.66889 0.72371 0.0
C675 C 0.58975 0.5991 0.70261 0.0
C676 C 0.6107 0.5749 0.70791 0.0
C677 C 0.62359 0.5515 0.69299 0.0
C678 C 0.6151 0.55309 0.67206 0.0
C679 C 0.59455 0.5786 0.66607 0.0
C680 C 0.58198 0.60202 0.68177 0.0
H681 H 0.59339 0.0924 0.57928 0.0
H682 H 0.49841 0.96009 0.56087 0.0
H683 H 0.49887 0.94245 0.59689 0.0
H684 H 0.65228 0.06448 0.61725 0.0
H685 H 0.66233 0.11271 0.63477 0.0
H686 H 0.65661 0.11379 0.60725 0.0
H687 H 0.59682 0.13888 0.61321 0.0
H688 H 0.60231 0.13784 0.6407 0.0
H689 H 0.55152 0.10656 0.62723 0.0
H690 H 0.5072 0.94058 0.63536 0.0
H691 H 0.52134 0.95539 0.67337 0.0
H692 H 0.61087 0.08872 0.66619 0.0
C693 C 0.57302 0.05957 0.58276 0.0
C694 C 0.5458 0.02766 0.56732 0.0
C695 C 0.51928 0.98518 0.57253 0.0
C696 C 0.5195 0.97476 0.5929 0.0
C697 C 0.54639 0.00719 0.60783 0.0
C698 C 0.57264 0.04872 0.603 0.0
C699 C 0.59699 0.07831 0.62203 0.0
C700 C 0.64489 0.09318 0.62021 0.0
C701 C 0.58624 0.11771 0.62602 0.0
C702 C 0.57977 0.04719 0.6384 0.0
C703 C 0.55097 0.00619 0.62991 0.0
C704 C 0.52998 0.97245 0.64216 0.0
C705 C 0.53833 0.98109 0.6637 0.0
C706 C 0.56714 0.02319 0.67269 0.0
C707 C 0.58843 0.05632 0.65977 0.0
H708 H 0.62683 0.58717 0.91137 0.0
H709 H 0.50321 0.58246 0.89764 0.0
H710 H 0.48579 0.57332 0.93413 0.0
H711 H 0.59328 0.50647 0.94641 0.0
H712 H 0.63931 0.53368 0.96388 0.0
H713 H 0.64334 0.54209 0.93684 0.0
H714 H 0.67291 0.62587 0.94655 0.0
H715 H 0.66926 0.61776 0.97365 0.0
H716 H 0.64335 0.64752 0.96296 0.0
H717 H 0.47949 0.55936 0.97128 0.0
H718 H 0.4861 0.54573 0.00732 0.0
H719 H 0.61523 0.56341 -0.00215 0.0
C720 C 0.59624 0.58466 0.91604 0.0
C721 C 0.56641 0.58551 0.90152 0.0
C722 C 0.52672 0.58203 0.90837 0.0
C723 C 0.51644 0.57675 0.92911 0.0
C724 C 0.54626 0.57537 0.94289 0.0
C725 C 0.58551 0.57966 0.93674 0.0
C726 C 0.61151 0.57646 0.95469 0.0
C727 C 0.62249 0.53734 0.95018 0.0
C728 C 0.65163 0.61947 0.95976 0.0
C729 C 0.58043 0.56902 0.97179 0.0
C730 C 0.54302 0.56848 0.9646 0.0
C731 C 0.50891 0.56049 0.97721 0.0
C732 C 0.51317 0.55311 -0.00222 0.0
C733 C 0.55146 0.55415 0.00573 0.0
C734 C 0.58547 0.56223 0.9924 0.0
H735 H 1.01492 0.45308 0.22591 0.0
H736 H 0.07961 0.59085 0.2168 0.0
H737 H 0.08606 0.61021 0.25472 0.0
H738 H 0.95696 0.46571 0.27095 0.0
H739 H 0.96333 0.42357 0.28335 0.0
H740 H 0.96096 0.42078 0.25547 0.0
H741 H 0.03299 0.41618 0.2544 0.0
H742 H 0.03564 0.41902 0.28224 0.0
H743 H 0.07832 0.45813 0.26908 0.0
H744 H 0.08876 0.61431 0.29351 0.0
H745 H 0.08831 0.60294 0.33052 0.0
H746 H 0.02322 0.46241 0.31415 0.0
C747 C 0.02994 0.4874 0.23182 0.0
C748 C 0.04663 0.52047 0.21835 0.0
C749 C 0.06652 0.56492 0.22679 0.0
C750 C 0.07025 0.57626 0.24831 0.0
C751 C 0.05388 0.54278 0.26112 0.0
C752 C 0.03408 0.49927 0.2532 0.0
C753 C 0.02112 0.46947 0.27032 0.0
C754 C 0.97271 0.44335 0.27 0.0
C755 C 0.04336 0.43891 0.26892 0.0
C756 C 0.03734 0.50301 0.28914 0.0
C757 C 0.05582 0.54511 0.28349 0.0
C758 C 0.07424 0.58152 0.29813 0.0
C759 C 0.07408 0.5747 0.31908 0.0
C760 C 0.05586 0.53178 0.3252 0.0
C761 C 0.03687 0.49559 0.30998 0.0
loop_
_geom_bond_atom_site_label_1
_geom_bond_atom_site_label_2
_geom_bond_distance
_geom_bond_site_symmetry_2
_ccdc_geom_bond_type
Tb0 O3 2.453 1_455 S
Tb0 O4 2.596 1_455 S
Tb0 O5 2.374 . S
Tb0 O13 2.343 . S
Tb0 O15 2.353 . S
Tb0 O17 2.427 . S
Tb0 O18 2.513 . S
C1 O5 1.251 . S
C1 O7 1.263 . S
Tb2 O4 2.343 1_455 S
Tb2 O7 2.353 . S
Tb2 O10 2.427 1_455 S
Tb2 O11 2.513 1_455 S
Tb2 O12 2.453 . S
Tb2 O13 2.596 . S
Tb2 O14 2.374 . S
O3 Tb0 2.453 1_655 S
O3 C19 1.245 . S
O4 Tb0 2.596 1_655 S
O4 Tb2 2.343 1_655 S
O4 C19 1.259 . S
O5 Tb0 2.374 . S
O5 C1 1.251 . S
C6 O10 1.275 . S
C6 O11 1.246 . S
O7 C1 1.263 . S
O7 Tb2 2.353 . S
C8 O12 1.245 . S
C8 O13 1.259 . S
C9 O14 1.250 . S
C9 O15 1.263 . S
O10 Tb2 2.427 1_655 S
O10 C6 1.275 . S
O11 Tb2 2.513 1_655 S
O11 C6 1.246 . S
O12 Tb2 2.453 . S
O12 C8 1.245 . S
O13 Tb0 2.343 . S
O13 Tb2 2.596 . S
O13 C8 1.259 . S
O14 Tb2 2.374 . S
O14 C9 1.250 . S
O15 Tb0 2.353 . S
O15 C9 1.263 . S
C16 O17 1.275 . S
C16 O18 1.246 . S
O17 Tb0 2.427 . S
O17 C16 1.275 . S
O18 Tb0 2.513 . S
O18 C16 1.246 . S
C19 O3 1.245 . S
C19 O4 1.259 . S
Tb20 O23 2.453 . S
Tb20 O24 2.596 . S
Tb20 O25 2.374 . S
Tb20 O33 2.343 1_545 S
Tb20 O35 2.353 . S
Tb20 O37 2.427 1_545 S
Tb20 O38 2.513 1_545 S
C21 O25 1.251 . S
C21 O27 1.263 . S
Tb22 O24 2.343 . S
Tb22 O27 2.353 . S
Tb22 O30 2.427 . S
Tb22 O31 2.513 . S
Tb22 O32 2.453 1_545 S
Tb22 O33 2.596 1_545 S
Tb22 O34 2.374 . S
O23 Tb20 2.453 . S
O23 C39 1.245 . S
O24 Tb20 2.596 . S
O24 Tb22 2.343 . S
O24 C39 1.259 . S
O25 Tb20 2.374 . S
O25 C21 1.251 . S
C26 O30 1.275 . S
C26 O31 1.246 . S
O27 C21 1.263 . S
O27 Tb22 2.353 . S
C28 O32 1.245 . S
C28 O33 1.259 . S
C29 O34 1.250 . S
C29 O35 1.263 . S
O30 Tb22 2.427 . S
O30 C26 1.275 . S
O31 Tb22 2.513 . S
O31 C26 1.246 . S
O32 Tb22 2.453 1_565 S
O32 C28 1.245 . S
O33 Tb20 2.343 1_565 S
O33 Tb22 2.596 1_565 S
O33 C28 1.259 . S
O34 Tb22 2.374 . S
O34 C29 1.250 . S
O35 Tb20 2.353 . S
O35 C29 1.263 . S
C36 O37 1.275 . S
C36 O38 1.246 . S
O37 Tb20 2.427 1_565 S
O37 C36 1.275 . S
O38 Tb20 2.513 1_565 S
O38 C36 1.246 . S
C39 O23 1.245 . S
C39 O24 1.259 . S
Tb40 O43 2.453 . S
Tb40 O44 2.596 . S
Tb40 O45 2.374 . S
Tb40 O53 2.343 . S
Tb40 O55 2.353 . S
Tb40 O57 2.427 . S
Tb40 O58 2.513 . S
C41 O45 1.251 . S
C41 O47 1.263 . S
Tb42 O44 2.343 . S
Tb42 O47 2.353 . S
Tb42 O50 2.427 . S
Tb42 O51 2.513 . S
Tb42 O52 2.453 . S
Tb42 O53 2.596 . S
Tb42 O54 2.374 . S
O43 Tb40 2.453 . S
O43 C59 1.245 . S
O44 Tb40 2.596 . S
O44 Tb42 2.343 . S
O44 C59 1.259 . S
O45 Tb40 2.374 . S
O45 C41 1.251 . S
C46 O50 1.275 . S
C46 O51 1.246 . S
O47 C41 1.263 . S
O47 Tb42 2.353 . S
C48 O52 1.245 . S
C48 O53 1.259 . S
C49 O54 1.250 . S
C49 O55 1.263 . S
O50 Tb42 2.427 . S
O50 C46 1.275 . S
O51 Tb42 2.513 . S
O51 C46 1.246 . S
O52 Tb42 2.453 . S
O52 C48 1.245 . S
O53 Tb40 2.343 . S
O53 Tb42 2.596 . S
O53 C48 1.259 . S
O54 Tb42 2.374 . S
O54 C49 1.250 . S
O55 Tb40 2.353 . S
O55 C49 1.263 . S
C56 O57 1.275 . S
C56 O58 1.246 . S
O57 Tb40 2.427 . S
O57 C56 1.275 . S
O58 Tb40 2.513 . S
O58 C56 1.246 . S
C59 O43 1.245 . S
C59 O44 1.259 . S
C60 C61 1.384 . S
C60 H73 0.947 . S
C60 C95 1.382 . S
C61 C60 1.384 . S
C61 C62 1.378 . S
C62 C61 1.378 . S
C62 C63 1.378 . S
C62 H74 0.952 . S
C63 C62 1.378 . S
C63 H75 0.950 . S
C63 C94 1.383 . S
H64 C83 0.947 . S
H65 C84 0.946 . S
H66 C86 0.953 . S
H67 C87 0.945 . S
H68 C89 0.952 . S
H69 C90 0.949 . S
H70 C92 0.950 1_565 S
H71 C93 0.948 1_565 S
H72 C95 0.951 . S
H73 C60 0.947 . S
H74 C62 0.952 . S
H75 C63 0.950 . S
N76 C79 1.382 . S
N76 C81 1.350 1_545 S
N77 C79 1.371 . S
N77 C80 1.372 . S
N78 C80 1.361 . S
N78 C81 1.376 1_545 S
C79 N76 1.382 . S
C79 N77 1.371 . S
C79 C82 1.480 . S
C80 N77 1.372 . S
C80 N78 1.361 . S
C80 C88 1.457 . S
C81 N76 1.350 1_565 S
C81 N78 1.376 1_565 S
C81 C94 1.489 . S
C82 C79 1.480 . S
C82 C83 1.383 . S
C82 C87 1.385 . S
C83 H64 0.947 . S
C83 C82 1.383 . S
C83 C84 1.388 . S
C84 H65 0.946 . S
C84 C83 1.388 . S
C84 C85 1.384 . S
C85 C84 1.384 . S
C85 C86 1.377 . S
C86 H66 0.953 . S
C86 C85 1.377 . S
C86 C87 1.369 . S
C87 H67 0.945 . S
C87 C82 1.385 . S
C87 C86 1.369 . S
C88 C80 1.457 . S
C88 C89 1.372 . S
C88 C93 1.364 . S
C89 H68 0.952 . S
C89 C88 1.372 . S
C89 C90 1.389 . S
C90 H69 0.949 . S
C90 C89 1.389 . S
C90 C91 1.387 . S
C91 C90 1.387 . S
C91 C92 1.372 . S
C92 H70 0.950 1_545 S
C92 C91 1.372 . S
C92 C93 1.379 . S
C93 H71 0.948 1_545 S
C93 C88 1.364 . S
C93 C92 1.379 . S
C94 C63 1.383 . S
C94 C81 1.489 . S
C94 C95 1.398 . S
C95 C60 1.382 . S
C95 H72 0.951 . S
C95 C94 1.398 . S
C96 C97 1.384 . S
C96 H109 0.947 . S
C96 C131 1.382 . S
C97 C96 1.384 . S
C97 C98 1.378 . S
C98 C97 1.378 . S
C98 C99 1.378 . S
C98 H110 0.952 . S
C99 C98 1.378 . S
C99 H111 0.950 . S
C99 C130 1.383 . S
H100 C119 0.947 . S
H101 C120 0.946 . S
H102 C122 0.953 . S
H103 C123 0.945 . S
H104 C125 0.952 . S
H105 C126 0.949 . S
H106 C128 0.950 . S
H107 C129 0.948 . S
H108 C131 0.951 . S
H109 C96 0.947 . S
H110 C98 0.952 . S
H111 C99 0.950 . S
N112 C115 1.382 . S
N112 C117 1.363 . S
N113 C115 1.371 . S
N113 C116 1.372 . S
N114 C116 1.361 . S
N114 C117 1.377 . S
C115 N112 1.382 . S
C115 N113 1.371 . S
C115 C118 1.480 . S
C116 N113 1.372 . S
C116 N114 1.361 . S
C116 C124 1.457 . S
C117 N112 1.363 . S
C117 N114 1.377 . S
C117 C130 1.479 . S
C118 C115 1.480 . S
C118 C119 1.383 . S
C118 C123 1.385 . S
C119 H100 0.947 . S
C119 C118 1.383 . S
C119 C120 1.388 . S
C120 H101 0.946 . S
C120 C119 1.388 . S
C120 C121 1.384 . S
C121 C120 1.384 . S
C121 C122 1.377 . S
C122 H102 0.953 . S
C122 C121 1.377 . S
C122 C123 1.369 . S
C123 H103 0.945 . S
C123 C118 1.385 . S
C123 C122 1.369 . S
C124 C116 1.457 . S
C124 C125 1.372 . S
C124 C129 1.364 . S
C125 H104 0.952 . S
C125 C124 1.372 . S
C125 C126 1.389 . S
C126 H105 0.949 . S
C126 C125 1.389 . S
C126 C127 1.387 . S
C127 C126 1.387 . S
C127 C128 1.372 . S
C128 H106 0.950 . S
C128 C127 1.372 . S
C128 C129 1.379 . S
C129 H107 0.948 . S
C129 C124 1.364 . S
C129 C128 1.379 . S
C130 C99 1.383 . S
C130 C117 1.479 . S
C130 C131 1.398 . S
C131 C96 1.382 . S
C131 H108 0.951 . S
C131 C130 1.398 . S
C132 C133 1.384 . S
C132 H145 0.947 . S
C132 C167 1.382 . S
C133 C132 1.384 . S
C133 C134 1.378 . S
C134 C133 1.378 . S
C134 C135 1.378 1_655 S
C134 H146 0.952 . S
C135 C134 1.378 1_455 S
C135 H147 0.950 . S
C135 C166 1.383 . S
H136 C155 0.947 . S
H137 C156 0.946 . S
H138 C158 0.953 . S
H139 C159 0.945 . S
H140 C161 0.952 . S
H141 C162 0.949 . S
H142 C164 0.950 . S
H143 C165 0.948 . S
H144 C167 0.951 . S
H145 C132 0.947 . S
H146 C134 0.952 . S
H147 C135 0.950 . S
N148 C151 1.382 . S
N148 C153 1.363 . S
N149 C151 1.371 . S
N149 C152 1.372 . S
N150 C152 1.361 . S
N150 C153 1.377 . S
C151 N148 1.382 . S
C151 N149 1.371 . S
C151 C154 1.480 . S
C152 N149 1.372 . S
C152 N150 1.361 . S
C152 C160 1.457 . S
C153 N148 1.363 . S
C153 N150 1.377 . S
C153 C166 1.479 . S
C154 C151 1.480 . S
C154 C155 1.383 . S
C154 C159 1.385 . S
C155 H136 0.947 . S
C155 C154 1.383 . S
C155 C156 1.388 . S
C156 H137 0.946 . S
C156 C155 1.388 . S
C156 C157 1.384 . S
C157 C156 1.384 . S
C157 C158 1.377 . S
C158 H138 0.953 . S
C158 C157 1.377 . S
C158 C159 1.369 . S
C159 H139 0.945 . S
C159 C154 1.385 . S
C159 C158 1.369 . S
C160 C152 1.457 . S
C160 C161 1.372 . S
C160 C165 1.364 . S
C161 H140 0.952 . S
C161 C160 1.372 . S
C161 C162 1.389 . S
C162 H141 0.949 . S
C162 C161 1.389 . S
C162 C163 1.387 . S
C163 C162 1.387 . S
C163 C164 1.372 . S
C164 H142 0.950 . S
C164 C163 1.372 . S
C164 C165 1.379 . S
C165 H143 0.948 . S
C165 C160 1.364 . S
C165 C164 1.379 . S
C166 C135 1.383 . S
C166 C153 1.479 . S
C166 C167 1.398 1_455 S
C167 C132 1.382 . S
C167 H144 0.951 . S
C167 C166 1.398 1_655 S
C168 C169 1.384 . S
C168 H181 0.947 . S
C168 C203 1.382 . S
C169 C168 1.384 . S
C169 C170 1.378 . S
C170 C169 1.378 . S
C170 C171 1.378 . S
C170 H182 0.952 . S
C171 C170 1.378 . S
C171 H183 0.950 . S
C171 C202 1.383 . S
H172 C191 0.947 . S
H173 C192 0.946 . S
H174 C194 0.953 . S
H175 C195 0.945 . S
H176 C197 0.952 . S
H177 C198 0.949 . S
H178 C200 0.950 . S
H179 C201 0.948 . S
H180 C203 0.951 . S
H181 C168 0.947 . S
H182 C170 0.952 . S
H183 C171 0.950 . S
N184 C187 1.382 1_455 S
N184 C189 1.363 . S
N185 C187 1.371 . S
N185 C188 1.372 1_655 S
N186 C188 1.361 . S
N186 C189 1.377 . S
C187 N184 1.382 1_655 S
C187 N185 1.371 . S
C187 C190 1.480 . S
C188 N185 1.372 1_455 S
C188 N186 1.361 . S
C188 C196 1.457 . S
C189 N184 1.363 . S
C189 N186 1.377 . S
C189 C202 1.479 . S
C190 C187 1.480 . S
C190 C191 1.383 . S
C190 C195 1.385 . S
C191 H172 0.947 . S
C191 C190 1.383 . S
C191 C192 1.388 . S
C192 H173 0.946 . S
C192 C191 1.388 . S
C192 C193 1.384 . S
C193 C192 1.384 . S
C193 C194 1.377 . S
C194 H174 0.953 . S
C194 C193 1.377 . S
C194 C195 1.369 . S
C195 H175 0.945 . S
C195 C190 1.385 . S
C195 C194 1.369 . S
C196 C188 1.457 . S
C196 C197 1.372 1_455 S
C196 C201 1.364 . S
C197 H176 0.952 . S
C197 C196 1.372 1_655 S
C197 C198 1.389 . S
C198 H177 0.949 . S
C198 C197 1.389 . S
C198 C199 1.387 1_655 S
C199 C198 1.387 1_455 S
C199 C200 1.372 . S
C200 H178 0.950 . S
C200 C199 1.372 . S
C200 C201 1.379 . S
C201 H179 0.948 . S
C201 C196 1.364 . S
C201 C200 1.379 . S
C202 C171 1.383 . S
C202 C189 1.479 . S
C202 C203 1.398 . S
C203 C168 1.382 . S
C203 H180 0.951 . S
C203 C202 1.398 . S
C204 C205 1.384 . S
C204 H217 0.947 . S
C204 C239 1.382 . S
C205 C204 1.384 . S
C205 C206 1.378 . S
C206 C205 1.378 . S
C206 C207 1.378 . S
C206 H218 0.952 . S
C207 C206 1.378 . S
C207 H219 0.950 . S
C207 C238 1.383 . S
H208 C227 0.947 . S
H209 C228 0.946 . S
H210 C230 0.953 . S
H211 C231 0.945 . S
H212 C233 0.952 . S
H213 C234 0.949 . S
H214 C236 0.950 . S
H215 C237 0.948 . S
H216 C239 0.951 . S
H217 C204 0.947 . S
H218 C206 0.952 . S
H219 C207 0.950 . S
N220 C223 1.382 1_545 S
N220 C225 1.363 . S
N221 C223 1.371 . S
N221 C224 1.372 1_565 S
N222 C224 1.361 . S
N222 C225 1.377 . S
C223 N220 1.382 1_565 S
C223 N221 1.371 . S
C223 C226 1.480 . S
C224 N221 1.372 1_545 S
C224 N222 1.361 . S
C224 C232 1.457 . S
C225 N220 1.363 . S
C225 N222 1.377 . S
C225 C238 1.479 . S
C226 C223 1.480 . S
C226 C227 1.383 . S
C226 C231 1.385 . S
C227 H208 0.947 . S
C227 C226 1.383 . S
C227 C228 1.388 . S
C228 H209 0.946 . S
C228 C227 1.388 . S
C228 C229 1.384 . S
C229 C228 1.384 . S
C229 C230 1.377 . S
C230 H210 0.953 . S
C230 C229 1.377 . S
C230 C231 1.369 . S
C231 H211 0.945 . S
C231 C226 1.385 . S
C231 C230 1.369 . S
C232 C224 1.457 . S
C232 C233 1.372 1_545 S
C232 C237 1.364 . S
C233 H212 0.952 . S
C233 C232 1.372 1_565 S
C233 C234 1.389 . S
C234 H213 0.949 . S
C234 C233 1.389 . S
C234 C235 1.387 1_565 S
C235 C234 1.387 1_545 S
C235 C236 1.372 . S
C236 H214 0.950 . S
C236 C235 1.372 . S
C236 C237 1.379 . S
C237 H215 0.948 . S
C237 C232 1.364 . S
C237 C236 1.379 . S
C238 C207 1.383 . S
C238 C225 1.479 . S
C238 C239 1.398 . S
C239 C204 1.382 . S
C239 H216 0.951 . S
C239 C238 1.398 . S
C240 C241 1.384 . S
C240 H253 0.947 . S
C240 C275 1.382 . S
C241 C240 1.384 . S
C241 C242 1.378 . S
C242 C241 1.378 . S
C242 C243 1.378 . S
C242 H254 0.952 . S
C243 C242 1.378 . S
C243 H255 0.950 . S
C243 C274 1.383 . S
H244 C263 0.947 . S
H245 C264 0.946 . S
H246 C266 0.953 . S
H247 C267 0.945 . S
H248 C269 0.952 . S
H249 C270 0.949 . S
H250 C272 0.950 . S
H251 C273 0.948 . S
H252 C275 0.951 . S
H253 C240 0.947 . S
H254 C242 0.952 . S
H255 C243 0.950 . S
N256 C259 1.382 . S
N256 C261 1.363 . S
N257 C259 1.371 . S
N257 C260 1.372 . S
N258 C260 1.361 . S
N258 C261 1.377 . S
C259 N256 1.382 . S
C259 N257 1.371 . S
C259 C262 1.480 . S
C260 N257 1.372 . S
C260 N258 1.361 . S
C260 C268 1.457 . S
C261 N256 1.363 . S
C261 N258 1.377 . S
C261 C274 1.479 . S
C262 C259 1.480 . S
C262 C263 1.383 . S
C262 C267 1.385 . S
C263 H244 0.947 . S
C263 C262 1.383 . S
C263 C264 1.388 . S
C264 H245 0.946 . S
C264 C263 1.388 . S
C264 C265 1.384 . S
C265 C264 1.384 . S
C265 C266 1.377 . S
C266 H246 0.953 . S
C266 C265 1.377 . S
C266 C267 1.369 . S
C267 H247 0.945 . S
C267 C262 1.385 . S
C267 C266 1.369 . S
C268 C260 1.457 . S
C268 C269 1.372 . S
C268 C273 1.364 . S
C269 H248 0.952 . S
C269 C268 1.372 . S
C269 C270 1.389 . S
C270 H249 0.949 . S
C270 C269 1.389 . S
C270 C271 1.387 . S
C271 C270 1.387 . S
C271 C272 1.372 . S
C272 H250 0.950 . S
C272 C271 1.372 . S
C272 C273 1.379 . S
C273 H251 0.948 . S
C273 C268 1.364 . S
C273 C272 1.379 . S
C274 C243 1.383 . S
C274 C261 1.479 . S
C274 C275 1.398 . S
C275 C240 1.382 . S
C275 H252 0.951 . S
C275 C274 1.398 . S
H276 C288 0.930 . S
H277 C290 0.930 . S
H278 C291 0.930 . S
H279 C295 0.959 . S
H280 C295 0.959 . S
H281 C295 0.961 . S
H282 C296 0.960 . S
H283 C296 0.961 . S
H284 C296 0.959 . S
H285 C299 0.929 . S
H286 C300 0.931 . S
H287 C302 0.930 . S
C288 H276 0.930 . S
C288 C289 1.399 . S
C288 C293 1.399 . S
C289 C288 1.399 . S
C289 C290 1.376 . S
C290 H277 0.930 . S
C290 C289 1.376 . S
C290 C291 1.388 . S
C291 H278 0.930 . S
C291 C290 1.388 . S
C291 C292 1.390 . S
C292 C291 1.390 . S
C292 C293 1.394 . S
C292 C298 1.465 . S
C293 C288 1.399 . S
C293 C292 1.394 . S
C293 C294 1.516 . S
C294 C293 1.516 . S
C294 C295 1.502 . S
C294 C296 1.561 . S
C294 C297 1.526 . S
C295 H279 0.959 . S
C295 H280 0.959 . S
C295 H281 0.961 . S
C295 C294 1.502 . S
C296 H282 0.960 . S
C296 H283 0.961 . S
C296 H284 0.959 . S
C296 C294 1.561 . S
C297 C294 1.526 . S
C297 C298 1.396 . S
C297 C302 1.390 . S
C298 C292 1.465 . S
C298 C297 1.396 . S
C298 C299 1.399 . S
C299 H285 0.929 . S
C299 C298 1.399 . S
C299 C300 1.385 . S
C300 H286 0.931 . S
C300 C299 1.385 . S
C300 C301 1.389 . S
C301 C300 1.389 . S
C301 C302 1.387 . S
C302 H287 0.930 . S
C302 C297 1.390 . S
C302 C301 1.387 . S
H303 C315 0.930 . S
H304 C317 0.930 . S
H305 C318 0.930 . S
H306 C322 0.959 . S
H307 C322 0.959 . S
H308 C322 0.961 . S
H309 C323 0.960 . S
H310 C323 0.961 . S
H311 C323 0.959 . S
H312 C326 0.929 . S
H313 C327 0.931 . S
H314 C329 0.930 . S
C315 H303 0.930 . S
C315 C316 1.399 . S
C315 C320 1.399 . S
C316 C315 1.399 . S
C316 C317 1.376 . S
C317 H304 0.930 . S
C317 C316 1.376 . S
C317 C318 1.388 . S
C318 H305 0.930 . S
C318 C317 1.388 . S
C318 C319 1.390 . S
C319 C318 1.390 . S
C319 C320 1.394 . S
C319 C325 1.465 . S
C320 C315 1.399 . S
C320 C319 1.394 . S
C320 C321 1.516 . S
C321 C320 1.516 . S
C321 C322 1.502 . S
C321 C323 1.561 . S
C321 C324 1.526 . S
C322 H306 0.959 . S
C322 H307 0.959 . S
C322 H308 0.961 . S
C322 C321 1.502 . S
C323 H309 0.960 . S
C323 H310 0.961 . S
C323 H311 0.959 . S
C323 C321 1.561 . S
C324 C321 1.526 . S
C324 C325 1.396 . S
C324 C329 1.390 . S
C325 C319 1.465 . S
C325 C324 1.396 . S
C325 C326 1.399 . S
C326 H312 0.929 . S
C326 C325 1.399 . S
C326 C327 1.385 . S
C327 H313 0.931 . S
C327 C326 1.385 . S
C327 C328 1.389 . S
C328 C327 1.389 . S
C328 C329 1.387 . S
C329 H314 0.930 . S
C329 C324 1.390 . S
C329 C328 1.387 . S
H330 C342 0.930 . S
H331 C344 0.930 . S
H332 C345 0.930 . S
H333 C349 0.959 . S
H334 C349 0.959 . S
H335 C349 0.961 . S
H336 C350 0.960 . S
H337 C350 0.961 . S
H338 C350 0.959 . S
H339 C353 0.929 . S
H340 C354 0.931 . S
H341 C356 0.930 . S
C342 H330 0.930 . S
C342 C343 1.399 . S
C342 C347 1.399 . S
C343 C342 1.399 . S
C343 C344 1.376 . S
C344 H331 0.930 . S
C344 C343 1.376 . S
C344 C345 1.388 . S
C345 H332 0.930 . S
C345 C344 1.388 . S
C345 C346 1.390 . S
C346 C345 1.390 . S
C346 C347 1.394 . S
C346 C352 1.465 . S
C347 C342 1.399 . S
C347 C346 1.394 . S
C347 C348 1.516 . S
C348 C347 1.516 . S
C348 C349 1.502 . S
C348 C350 1.561 . S
C348 C351 1.526 . S
C349 H333 0.959 . S
C349 H334 0.959 . S
C349 H335 0.961 . S
C349 C348 1.502 . S
C350 H336 0.960 . S
C350 H337 0.961 . S
C350 H338 0.959 . S
C350 C348 1.561 . S
C351 C348 1.526 . S
C351 C352 1.396 . S
C351 C356 1.390 . S
C352 C346 1.465 . S
C352 C351 1.396 . S
C352 C353 1.399 . S
C353 H339 0.929 . S
C353 C352 1.399 . S
C353 C354 1.385 . S
C354 H340 0.931 . S
C354 C353 1.385 . S
C354 C355 1.389 . S
C355 C354 1.389 . S
C355 C356 1.387 . S
C356 H341 0.930 . S
C356 C351 1.390 . S
C356 C355 1.387 . S
H357 C369 0.930 . S
H358 C371 0.930 . S
H359 C372 0.930 . S
H360 C376 0.959 . S
H361 C376 0.959 . S
H362 C376 0.961 . S
H363 C377 0.960 . S
H364 C377 0.961 . S
H365 C377 0.959 . S
H366 C380 0.929 . S
H367 C381 0.931 . S
H368 C383 0.930 . S
C369 H357 0.930 . S
C369 C370 1.399 . S
C369 C374 1.399 . S
C370 C369 1.399 . S
C370 C371 1.376 . S
C371 H358 0.930 . S
C371 C370 1.376 . S
C371 C372 1.388 . S
C372 H359 0.930 . S
C372 C371 1.388 . S
C372 C373 1.390 . S
C373 C372 1.390 . S
C373 C374 1.394 . S
C373 C379 1.465 . S
C374 C369 1.399 . S
C374 C373 1.394 . S
C374 C375 1.516 . S
C375 C374 1.516 . S
C375 C376 1.502 . S
C375 C377 1.561 . S
C375 C378 1.526 . S
C376 H360 0.959 . S
C376 H361 0.959 . S
C376 H362 0.961 . S
C376 C375 1.502 . S
C377 H363 0.960 . S
C377 H364 0.961 . S
C377 H365 0.959 . S
C377 C375 1.561 . S
C378 C375 1.526 . S
C378 C379 1.396 . S
C378 C383 1.390 . S
C379 C373 1.465 . S
C379 C378 1.396 . S
C379 C380 1.399 . S
C380 H366 0.929 . S
C380 C379 1.399 . S
C380 C381 1.385 . S
C381 H367 0.931 . S
C381 C380 1.385 . S
C381 C382 1.389 . S
C382 C381 1.389 . S
C382 C383 1.387 . S
C383 H368 0.930 . S
C383 C378 1.390 . S
C383 C382 1.387 . S
H384 C396 0.930 . S
H385 C398 0.930 . S
H386 C399 0.930 . S
H387 C403 0.959 . S
H388 C403 0.959 . S
H389 C403 0.961 . S
H390 C404 0.960 . S
H391 C404 0.961 . S
H392 C404 0.959 . S
H393 C407 0.929 . S
H394 C408 0.931 . S
H395 C410 0.930 . S
C396 H384 0.930 . S
C396 C397 1.399 . S
C396 C401 1.399 . S
C397 C396 1.399 . S
C397 C398 1.376 . S
C398 H385 0.930 . S
C398 C397 1.376 . S
C398 C399 1.388 . S
C399 H386 0.930 . S
C399 C398 1.388 . S
C399 C400 1.390 . S
C400 C399 1.390 . S
C400 C401 1.394 . S
C400 C406 1.465 . S
C401 C396 1.399 . S
C401 C400 1.394 . S
C401 C402 1.516 . S
C402 C401 1.516 . S
C402 C403 1.502 . S
C402 C404 1.561 . S
C402 C405 1.526 . S
C403 H387 0.959 . S
C403 H388 0.959 . S
C403 H389 0.961 . S
C403 C402 1.502 . S
C404 H390 0.960 . S
C404 H391 0.961 . S
C404 H392 0.959 . S
C404 C402 1.561 . S
C405 C402 1.526 . S
C405 C406 1.396 . S
C405 C410 1.390 . S
C406 C400 1.465 . S
C406 C405 1.396 . S
C406 C407 1.399 . S
C407 H393 0.929 . S
C407 C406 1.399 . S
C407 C408 1.385 . S
C408 H394 0.931 . S
C408 C407 1.385 . S
C408 C409 1.389 . S
C409 C408 1.389 . S
C409 C410 1.387 . S
C410 H395 0.930 . S
C410 C405 1.390 . S
C410 C409 1.387 . S
H411 C423 0.930 . S
H412 C425 0.930 . S
H413 C426 0.930 . S
H414 C430 0.959 . S
H415 C430 0.959 . S
H416 C430 0.961 . S
H417 C431 0.960 . S
H418 C431 0.961 . S
H419 C431 0.959 . S
H420 C434 0.929 . S
H421 C435 0.931 . S
H422 C437 0.930 . S
C423 H411 0.930 . S
C423 C424 1.399 . S
C423 C428 1.399 . S
C424 C423 1.399 . S
C424 C425 1.376 . S
C425 H412 0.930 . S
C425 C424 1.376 . S
C425 C426 1.388 . S
C426 H413 0.930 . S
C426 C425 1.388 . S
C426 C427 1.390 . S
C427 C426 1.390 . S
C427 C428 1.394 . S
C427 C433 1.465 . S
C428 C423 1.399 . S
C428 C427 1.394 . S
C428 C429 1.516 . S
C429 C428 1.516 . S
C429 C430 1.502 . S
C429 C431 1.561 . S
C429 C432 1.526 . S
C430 H414 0.959 . S
C430 H415 0.959 . S
C430 H416 0.961 . S
C430 C429 1.502 . S
C431 H417 0.960 . S
C431 H418 0.961 . S
C431 H419 0.959 . S
C431 C429 1.561 . S
C432 C429 1.526 . S
C432 C433 1.396 . S
C432 C437 1.390 . S
C433 C427 1.465 . S
C433 C432 1.396 . S
C433 C434 1.399 . S
C434 H420 0.929 . S
C434 C433 1.399 . S
C434 C435 1.385 . S
C435 H421 0.931 . S
C435 C434 1.385 . S
C435 C436 1.389 . S
C436 C435 1.389 . S
C436 C437 1.387 . S
C437 H422 0.930 . S
C437 C432 1.390 . S
C437 C436 1.387 . S
H438 C450 0.930 . S
H439 C452 0.930 . S
H440 C453 0.930 . S
H441 C457 0.959 . S
H442 C457 0.959 . S
H443 C457 0.961 . S
H444 C458 0.960 . S
H445 C458 0.961 . S
H446 C458 0.959 . S
H447 C461 0.929 . S
H448 C462 0.931 . S
H449 C464 0.930 . S
C450 H438 0.930 . S
C450 C451 1.399 . S
C450 C455 1.399 . S
C451 C450 1.399 . S
C451 C452 1.376 . S
C452 H439 0.930 . S
C452 C451 1.376 . S
C452 C453 1.388 . S
C453 H440 0.930 . S
C453 C452 1.388 . S
C453 C454 1.390 . S
C454 C453 1.390 . S
C454 C455 1.394 . S
C454 C460 1.465 . S
C455 C450 1.399 . S
C455 C454 1.394 . S
C455 C456 1.516 . S
C456 C455 1.516 . S
C456 C457 1.502 . S
C456 C458 1.561 . S
C456 C459 1.526 . S
C457 H441 0.959 . S
C457 H442 0.959 . S
C457 H443 0.961 . S
C457 C456 1.502 . S
C458 H444 0.960 . S
C458 H445 0.961 . S
C458 H446 0.959 . S
C458 C456 1.561 . S
C459 C456 1.526 . S
C459 C460 1.396 . S
C459 C464 1.390 . S
C460 C454 1.465 . S
C460 C459 1.396 . S
C460 C461 1.399 . S
C461 H447 0.929 . S
C461 C460 1.399 . S
C461 C462 1.385 . S
C462 H448 0.931 . S
C462 C461 1.385 . S
C462 C463 1.389 . S
C463 C462 1.389 . S
C463 C464 1.387 . S
C464 H449 0.930 . S
C464 C459 1.390 . S
C464 C463 1.387 . S
H465 C477 0.930 . S
H466 C479 0.930 . S
H467 C480 0.930 . S
H468 C484 0.959 . S
H469 C484 0.959 . S
H470 C484 0.961 . S
H471 C485 0.960 . S
H472 C485 0.961 . S
H473 C485 0.959 . S
H474 C488 0.929 . S
H475 C489 0.931 . S
H476 C491 0.930 . S
C477 H465 0.930 . S
C477 C478 1.399 . S
C477 C482 1.399 . S
C478 C477 1.399 . S
C478 C479 1.376 . S
C479 H466 0.930 . S
C479 C478 1.376 . S
C479 C480 1.388 . S
C480 H467 0.930 . S
C480 C479 1.388 . S
C480 C481 1.390 . S
C481 C480 1.390 . S
C481 C482 1.394 . S
C481 C487 1.465 . S
C482 C477 1.399 . S
C482 C481 1.394 . S
C482 C483 1.516 . S
C483 C482 1.516 . S
C483 C484 1.502 . S
C483 C485 1.561 . S
C483 C486 1.526 . S
C484 H468 0.959 . S
C484 H469 0.959 . S
C484 H470 0.961 . S
C484 C483 1.502 . S
C485 H471 0.960 . S
C485 H472 0.961 . S
C485 H473 0.959 . S
C485 C483 1.561 . S
C486 C483 1.526 . S
C486 C487 1.396 . S
C486 C491 1.390 . S
C487 C481 1.465 . S
C487 C486 1.396 . S
C487 C488 1.399 . S
C488 H474 0.929 . S
C488 C487 1.399 . S
C488 C489 1.385 . S
C489 H475 0.931 . S
C489 C488 1.385 . S
C489 C490 1.389 . S
C490 C489 1.389 . S
C490 C491 1.387 . S
C491 H476 0.930 . S
C491 C486 1.390 . S
C491 C490 1.387 . S
H492 C504 0.930 . S
H493 C506 0.930 . S
H494 C507 0.930 . S
H495 C511 0.959 . S
H496 C511 0.959 . S
H497 C511 0.961 . S
H498 C512 0.960 . S
H499 C512 0.961 . S
H500 C512 0.959 . S
H501 C515 0.929 . S
H502 C516 0.931 . S
H503 C518 0.930 . S
C504 H492 0.930 . S
C504 C505 1.399 . S
C504 C509 1.399 . S
C505 C504 1.399 . S
C505 C506 1.376 . S
C506 H493 0.930 . S
C506 C505 1.376 . S
C506 C507 1.388 . S
C507 H494 0.930 . S
C507 C506 1.388 . S
C507 C508 1.390 . S
C508 C507 1.390 . S
C508 C509 1.394 . S
C508 C514 1.465 . S
C509 C504 1.399 . S
C509 C508 1.394 . S
C509 C510 1.516 . S
C510 C509 1.516 . S
C510 C511 1.502 . S
C510 C512 1.561 . S
C510 C513 1.526 . S
C511 H495 0.959 . S
C511 H496 0.959 . S
C511 H497 0.961 . S
C511 C510 1.502 . S
C512 H498 0.960 . S
C512 H499 0.961 . S
C512 H500 0.959 . S
C512 C510 1.561 . S
C513 C510 1.526 . S
C513 C514 1.396 . S
C513 C518 1.390 . S
C514 C508 1.465 . S
C514 C513 1.396 . S
C514 C515 1.399 . S
C515 H501 0.929 . S
C515 C514 1.399 . S
C515 C516 1.385 . S
C516 H502 0.931 . S
C516 C515 1.385 . S
C516 C517 1.389 . S
C517 C516 1.389 . S
C517 C518 1.387 . S
C518 H503 0.930 . S
C518 C513 1.390 . S
C518 C517 1.387 . S
H519 C531 0.930 . S
H520 C533 0.930 . S
H521 C534 0.930 . S
H522 C538 0.959 . S
H523 C538 0.959 . S
H524 C538 0.961 . S
H525 C539 0.960 . S
H526 C539 0.961 . S
H527 C539 0.959 . S
H528 C542 0.929 . S
H529 C543 0.931 . S
H530 C545 0.930 . S
C531 H519 0.930 . S
C531 C532 1.399 . S
C531 C536 1.399 . S
C532 C531 1.399 . S
C532 C533 1.376 . S
C533 H520 0.930 . S
C533 C532 1.376 . S
C533 C534 1.388 . S
C534 H521 0.930 . S
C534 C533 1.388 . S
C534 C535 1.390 . S
C535 C534 1.390 . S
C535 C536 1.394 . S
C535 C541 1.465 . S
C536 C531 1.399 . S
C536 C535 1.394 . S
C536 C537 1.516 . S
C537 C536 1.516 . S
C537 C538 1.502 . S
C537 C539 1.561 . S
C537 C540 1.526 . S
C538 H522 0.959 . S
C538 H523 0.959 . S
C538 H524 0.961 . S
C538 C537 1.502 . S
C539 H525 0.960 . S
C539 H526 0.961 . S
C539 H527 0.959 . S
C539 C537 1.561 . S
C540 C537 1.526 . S
C540 C541 1.396 . S
C540 C545 1.390 . S
C541 C535 1.465 . S
C541 C540 1.396 . S
C541 C542 1.399 . S
C542 H528 0.929 . S
C542 C541 1.399 . S
C542 C543 1.385 . S
C543 H529 0.931 . S
C543 C542 1.385 . S
C543 C544 1.389 . S
C544 C543 1.389 . S
C544 C545 1.387 . S
C545 H530 0.930 . S
C545 C540 1.390 . S
C545 C544 1.387 . S
H546 C558 0.930 . S
H547 C560 0.930 . S
H548 C561 0.930 . S
H549 C565 0.959 . S
H550 C565 0.959 . S
H551 C565 0.961 . S
H552 C566 0.960 . S
H553 C566 0.961 . S
H554 C566 0.959 . S
H555 C569 0.929 . S
H556 C570 0.931 . S
H557 C572 0.930 . S
C558 H546 0.930 . S
C558 C559 1.399 . S
C558 C563 1.399 . S
C559 C558 1.399 . S
C559 C560 1.376 . S
C560 H547 0.930 . S
C560 C559 1.376 . S
C560 C561 1.388 . S
C561 H548 0.930 . S
C561 C560 1.388 . S
C561 C562 1.390 . S
C562 C561 1.390 . S
C562 C563 1.394 . S
C562 C568 1.465 . S
C563 C558 1.399 . S
C563 C562 1.394 . S
C563 C564 1.516 . S
C564 C563 1.516 . S
C564 C565 1.502 . S
C564 C566 1.561 . S
C564 C567 1.526 . S
C565 H549 0.959 . S
C565 H550 0.959 . S
C565 H551 0.961 . S
C565 C564 1.502 . S
C566 H552 0.960 . S
C566 H553 0.961 . S
C566 H554 0.959 . S
C566 C564 1.561 . S
C567 C564 1.526 . S
C567 C568 1.396 . S
C567 C572 1.390 . S
C568 C562 1.465 . S
C568 C567 1.396 . S
C568 C569 1.399 . S
C569 H555 0.929 . S
C569 C568 1.399 . S
C569 C570 1.385 . S
C570 H556 0.931 . S
C570 C569 1.385 . S
C570 C571 1.389 . S
C571 C570 1.389 . S
C571 C572 1.387 . S
C572 H557 0.930 . S
C572 C567 1.390 . S
C572 C571 1.387 . S
H573 C585 0.930 . S
H574 C587 0.930 . S
H575 C588 0.930 . S
H576 C592 0.959 . S
H577 C592 0.959 . S
H578 C592 0.961 . S
H579 C593 0.960 . S
H580 C593 0.961 . S
H581 C593 0.959 . S
H582 C596 0.929 . S
H583 C597 0.931 . S
H584 C599 0.930 . S
C585 H573 0.930 . S
C585 C586 1.399 . S
C585 C590 1.399 . S
C586 C585 1.399 . S
C586 C587 1.376 . S
C587 H574 0.930 . S
C587 C586 1.376 . S
C587 C588 1.388 . S
C588 H575 0.930 . S
C588 C587 1.388 . S
C588 C589 1.390 . S
C589 C588 1.390 . S
C589 C590 1.394 . S
C589 C595 1.465 . S
C590 C585 1.399 . S
C590 C589 1.394 . S
C590 C591 1.516 . S
C591 C590 1.516 . S
C591 C592 1.502 . S
C591 C593 1.561 . S
C591 C594 1.526 . S
C592 H576 0.959 . S
C592 H577 0.959 . S
C592 H578 0.961 . S
C592 C591 1.502 . S
C593 H579 0.960 . S
C593 H580 0.961 . S
C593 H581 0.959 . S
C593 C591 1.561 . S
C594 C591 1.526 . S
C594 C595 1.396 . S
C594 C599 1.390 . S
C595 C589 1.465 . S
C595 C594 1.396 . S
C595 C596 1.399 . S
C596 H582 0.929 . S
C596 C595 1.399 . S
C596 C597 1.385 . S
C597 H583 0.931 . S
C597 C596 1.385 . S
C597 C598 1.389 . S
C598 C597 1.389 . S
C598 C599 1.387 . S
C599 H584 0.930 . S
C599 C594 1.390 . S
C599 C598 1.387 . S
H600 C612 0.930 . S
H601 C614 0.930 . S
H602 C615 0.930 . S
H603 C619 0.959 . S
H604 C619 0.959 . S
H605 C619 0.961 . S
H606 C620 0.960 . S
H607 C620 0.961 . S
H608 C620 0.959 . S
H609 C623 0.929 . S
H610 C624 0.931 . S
H611 C626 0.930 . S
C612 H600 0.930 . S
C612 C613 1.399 . S
C612 C617 1.399 . S
C613 C612 1.399 . S
C613 C614 1.376 . S
C614 H601 0.930 . S
C614 C613 1.376 . S
C614 C615 1.388 . S
C615 H602 0.930 . S
C615 C614 1.388 . S
C615 C616 1.390 . S
C616 C615 1.390 . S
C616 C617 1.394 . S
C616 C622 1.465 . S
C617 C612 1.399 . S
C617 C616 1.394 . S
C617 C618 1.516 . S
C618 C617 1.516 . S
C618 C619 1.502 . S
C618 C620 1.561 . S
C618 C621 1.526 . S
C619 H603 0.959 . S
C619 H604 0.959 . S
C619 H605 0.961 . S
C619 C618 1.502 . S
C620 H606 0.960 . S
C620 H607 0.961 . S
C620 H608 0.959 . S
C620 C618 1.561 . S
C621 C618 1.526 . S
C621 C622 1.396 . S
C621 C626 1.390 . S
C622 C616 1.465 . S
C622 C621 1.396 . S
C622 C623 1.399 . S
C623 H609 0.929 . S
C623 C622 1.399 . S
C623 C624 1.385 1_554 S
C624 H610 0.931 . S
C624 C623 1.385 1_556 S
C624 C625 1.389 . S
C625 C624 1.389 . S
C625 C626 1.387 1_556 S
C626 H611 0.930 . S
C626 C621 1.390 . S
C626 C625 1.387 1_554 S
H627 C639 0.930 1_565 S
H628 C641 0.930 . S
H629 C642 0.930 . S
H630 C646 0.959 . S
H631 C646 0.959 . S
H632 C646 0.961 . S
H633 C647 0.960 . S
H634 C647 0.961 . S
H635 C647 0.959 . S
H636 C650 0.929 . S
H637 C651 0.931 . S
H638 C653 0.930 1_565 S
C639 H627 0.930 1_545 S
C639 C640 1.399 . S
C639 C644 1.399 . S
C640 C639 1.399 . S
C640 C641 1.376 . S
C641 H628 0.930 . S
C641 C640 1.376 . S
C641 C642 1.388 . S
C642 H629 0.930 . S
C642 C641 1.388 . S
C642 C643 1.390 . S
C643 C642 1.390 . S
C643 C644 1.394 . S
C643 C649 1.465 . S
C644 C639 1.399 . S
C644 C643 1.394 . S
C644 C645 1.516 1_545 S
C645 C644 1.516 1_565 S
C645 C646 1.502 . S
C645 C647 1.561 . S
C645 C648 1.526 1_565 S
C646 H630 0.959 . S
C646 H631 0.959 . S
C646 H632 0.961 . S
C646 C645 1.502 . S
C647 H633 0.960 . S
C647 H634 0.961 . S
C647 H635 0.959 . S
C647 C645 1.561 . S
C648 C645 1.526 1_545 S
C648 C649 1.396 . S
C648 C653 1.390 . S
C649 C643 1.465 . S
C649 C648 1.396 . S
C649 C650 1.399 . S
C650 H636 0.929 . S
C650 C649 1.399 . S
C650 C651 1.385 . S
C651 H637 0.931 . S
C651 C650 1.385 . S
C651 C652 1.389 . S
C652 C651 1.389 . S
C652 C653 1.387 . S
C653 H638 0.930 1_545 S
C653 C648 1.390 . S
C653 C652 1.387 . S
H654 C666 0.930 . S
H655 C668 0.930 . S
H656 C669 0.930 . S
H657 C673 0.959 . S
H658 C673 0.959 . S
H659 C673 0.961 . S
H660 C674 0.960 . S
H661 C674 0.961 . S
H662 C674 0.959 . S
H663 C677 0.929 . S
H664 C678 0.931 . S
H665 C680 0.930 . S
C666 H654 0.930 . S
C666 C667 1.399 . S
C666 C671 1.399 . S
C667 C666 1.399 . S
C667 C668 1.376 . S
C668 H655 0.930 . S
C668 C667 1.376 . S
C668 C669 1.388 . S
C669 H656 0.930 . S
C669 C668 1.388 . S
C669 C670 1.390 . S
C670 C669 1.390 . S
C670 C671 1.394 . S
C670 C676 1.465 . S
C671 C666 1.399 . S
C671 C670 1.394 . S
C671 C672 1.516 . S
C672 C671 1.516 . S
C672 C673 1.502 . S
C672 C674 1.561 . S
C672 C675 1.526 . S
C673 H657 0.959 . S
C673 H658 0.959 . S
C673 H659 0.961 . S
C673 C672 1.502 . S
C674 H660 0.960 . S
C674 H661 0.961 . S
C674 H662 0.959 . S
C674 C672 1.561 . S
C675 C672 1.526 . S
C675 C676 1.396 . S
C675 C680 1.390 . S
C676 C670 1.465 . S
C676 C675 1.396 . S
C676 C677 1.399 . S
C677 H663 0.929 . S
C677 C676 1.399 . S
C677 C678 1.385 . S
C678 H664 0.931 . S
C678 C677 1.385 . S
C678 C679 1.389 . S
C679 C678 1.389 . S
C679 C680 1.387 . S
C680 H665 0.930 . S
C680 C675 1.390 . S
C680 C679 1.387 . S
H681 C693 0.930 . S
H682 C695 0.930 . S
H683 C696 0.930 . S
H684 C700 0.959 . S
H685 C700 0.959 . S
H686 C700 0.961 . S
H687 C701 0.960 . S
H688 C701 0.961 . S
H689 C701 0.959 . S
H690 C704 0.929 . S
H691 C705 0.931 . S
H692 C707 0.930 . S
C693 H681 0.930 . S
C693 C694 1.399 . S
C693 C698 1.399 . S
C694 C693 1.399 . S
C694 C695 1.376 1_545 S
C695 H682 0.930 . S
C695 C694 1.376 1_565 S
C695 C696 1.388 . S
C696 H683 0.930 . S
C696 C695 1.388 . S
C696 C697 1.390 1_565 S
C697 C696 1.390 1_545 S
C697 C698 1.394 . S
C697 C703 1.465 1_545 S
C698 C693 1.399 . S
C698 C697 1.394 . S
C698 C699 1.516 . S
C699 C698 1.516 . S
C699 C700 1.502 . S
C699 C701 1.561 . S
C699 C702 1.526 . S
C700 H684 0.959 . S
C700 H685 0.959 . S
C700 H686 0.961 . S
C700 C699 1.502 . S
C701 H687 0.960 . S
C701 H688 0.961 . S
C701 H689 0.959 . S
C701 C699 1.561 . S
C702 C699 1.526 . S
C702 C703 1.396 1_545 S
C702 C707 1.390 . S
C703 C697 1.465 1_565 S
C703 C702 1.396 1_565 S
C703 C704 1.399 . S
C704 H690 0.929 . S
C704 C703 1.399 . S
C704 C705 1.385 . S
C705 H691 0.931 . S
C705 C704 1.385 . S
C705 C706 1.389 1_565 S
C706 C705 1.389 1_545 S
C706 C707 1.387 . S
C707 H692 0.930 . S
C707 C702 1.390 . S
C707 C706 1.387 . S
H708 C720 0.930 . S
H709 C722 0.930 . S
H710 C723 0.930 . S
H711 C727 0.959 . S
H712 C727 0.959 . S
H713 C727 0.961 . S
H714 C728 0.960 . S
H715 C728 0.961 . S
H716 C728 0.959 . S
H717 C731 0.929 . S
H718 C732 0.931 . S
H719 C734 0.958 . S
C720 H708 0.930 . S
C720 C721 1.399 . S
C720 C725 1.399 . S
C721 C720 1.399 . S
C721 C722 1.376 . S
C722 H709 0.930 . S
C722 C721 1.376 . S
C722 C723 1.388 . S
C723 H710 0.930 . S
C723 C722 1.388 . S
C723 C724 1.390 . S
C724 C723 1.390 . S
C724 C725 1.394 . S
C724 C730 1.465 . S
C725 C720 1.399 . S
C725 C724 1.394 . S
C725 C726 1.516 . S
C726 C725 1.516 . S
C726 C727 1.502 . S
C726 C728 1.561 . S
C726 C729 1.526 . S
C727 H711 0.959 . S
C727 H712 0.959 . S
C727 H713 0.961 . S
C727 C726 1.502 . S
C728 H714 0.960 . S
C728 H715 0.961 . S
C728 H716 0.959 . S
C728 C726 1.561 . S
C729 C726 1.526 . S
C729 C730 1.396 . S
C729 C734 1.390 . S
C730 C724 1.465 . S
C730 C729 1.396 . S
C730 C731 1.399 . S
C731 H717 0.929 . S
C731 C730 1.399 . S
C731 C732 1.385 . S
C732 H718 0.931 . S
C732 C731 1.385 . S
C732 C733 1.394 . S
C733 C732 1.394 . S
C733 C734 1.391 . S
C734 H719 0.958 . S
C734 C729 1.390 . S
C734 C733 1.391 . S
H735 C747 0.930 . S
H736 C749 0.930 . S
H737 C750 0.930 . S
H738 C754 0.959 . S
H739 C754 0.959 . S
H740 C754 0.961 . S
H741 C755 0.960 . S
H742 C755 0.961 . S
H743 C755 0.959 1_455 S
H744 C758 0.929 . S
H745 C759 0.931 . S
H746 C761 0.930 . S
C747 H735 0.930 . S
C747 C748 1.399 1_655 S
C747 C752 1.399 . S
C748 C747 1.399 1_455 S
C748 C749 1.376 . S
C749 H736 0.930 . S
C749 C748 1.376 . S
C749 C750 1.388 . S
C750 H737 0.930 . S
C750 C749 1.388 . S
C750 C751 1.390 . S
C751 C750 1.390 . S
C751 C752 1.383 1_455 S
C751 C757 1.465 . S
C752 C747 1.399 . S
C752 C751 1.383 1_655 S
C752 C753 1.526 . S
C753 C752 1.526 . S
C753 C754 1.502 . S
C753 C755 1.561 . S
C753 C756 1.526 . S
C754 H738 0.959 . S
C754 H739 0.959 . S
C754 H740 0.961 . S
C754 C753 1.502 . S
C755 H741 0.960 . S
C755 H742 0.961 . S
C755 H743 0.959 1_655 S
C755 C753 1.561 . S
C756 C753 1.526 . S
C756 C757 1.396 1_655 S
C756 C761 1.390 . S
C757 C751 1.465 . S
C757 C756 1.396 1_455 S
C757 C758 1.399 . S
C758 H744 0.929 . S
C758 C757 1.399 . S
C758 C759 1.385 . S
C759 H745 0.931 . S
C759 C758 1.385 . S
C759 C760 1.389 . S
C760 C759 1.389 . S
C760 C761 1.387 1_455 S
C761 H746 0.930 . S
C761 C756 1.390 . S
C761 C760 1.387 1_655 S
C289 C8 2.009 . S
C301 C265 2.018 . S
C316 C26 1.332 . S
C328 C193 1.289 . S
C343 C48 1.536 . S
C355 C229 1.533 . S
C370 C19 1.791 . S
C382 C241 1.848 . S
C409 C169 1.510 . S
C397 C36 1.479 . S
C436 C205 1.787 . S
C424 C59 1.754 . S
C451 C28 1.535 . S
C463 C121 1.574 . S
C478 C46 1.271 . S
C490 C133 1.218 . S
C505 C16 1.560 . S
C517 C61 1.572 . S
C544 C97 1.709 . S
C532 C39 1.706 . S
C571 C157 1.003 . S
C559 C56 1.033 . S
C586 C6 1.367 . S
C598 C85 1.306 . S
C625 C163 1.411 . S
C613 C9 1.427 . S
C640 C21 1.515 . S
C652 C91 1.515 . S
C667 C49 1.449 . S
C679 C127 1.465 . S
C706 C235 1.476 . S
C694 C29 1.466 . S
C733 C271 1.573 1_556 S
C721 C41 1.557 . S
C748 C1 1.473 . S
C760 C199 1.488 . S
