# Generated by pormake.
# Topology ctn, (3,4)-cn, num edge types: 1
# Building blocks:
#     Node 0, Type 0, BuildingBlock: BETDIP_clean_linker_0, # of connection points: 3
#     Node 1, Type 0, BuildingBlock: BETDIP_clean_linker_0, # of connection points: 3
#     Node 2, Type 0, BuildingBlock: BETDIP_clean_linker_0, # of connection points: 3
#     Node 3, Type 0, BuildingBlock: BETDIP_clean_linker_0, # of connection points: 3
#     Node 4, Type 0, BuildingBlock: BETDIP_clean_linker_0, # of connection points: 3
#     Node 5, Type 0, BuildingBlock: BETDIP_clean_linker_0, # of connection points: 3
#     Node 6, Type 0, BuildingBlock: BETDIP_clean_linker_0, # of connection points: 3
#     Node 7, Type 0, BuildingBlock: BETDIP_clean_linker_0, # of connection points: 3
#     Node 8, Type 0, BuildingBlock: BETDIP_clean_linker_0, # of connection points: 3
#     Node 9, Type 0, BuildingBlock: BETDIP_clean_linker_0, # of connection points: 3
#     Node 10, Type 0, BuildingBlock: BETDIP_clean_linker_0, # of connection points: 3
#     Node 11, Type 0, BuildingBlock: BETDIP_clean_linker_0, # of connection points: 3
#     Node 12, Type 0, BuildingBlock: BETDIP_clean_linker_0, # of connection points: 3
#     Node 13, Type 0, BuildingBlock: BETDIP_clean_linker_0, # of connection points: 3
#     Node 14, Type 0, BuildingBlock: BETDIP_clean_linker_0, # of connection points: 3
#     Node 15, Type 0, BuildingBlock: BETDIP_clean_linker_0, # of connection points: 3
#     Node 16, Type 1, BuildingBlock: UXUYUI_clean_sbu_0, # of connection points: 4
#     Node 17, Type 1, BuildingBlock: UXUYUI_clean_sbu_0, # of connection points: 4
#     Node 18, Type 1, BuildingBlock: UXUYUI_clean_sbu_0, # of connection points: 4
#     Node 19, Type 1, BuildingBlock: UXUYUI_clean_sbu_0, # of connection points: 4
#     Node 20, Type 1, BuildingBlock: UXUYUI_clean_sbu_0, # of connection points: 4
#     Node 21, Type 1, BuildingBlock: UXUYUI_clean_sbu_0, # of connection points: 4
#     Node 22, Type 1, BuildingBlock: UXUYUI_clean_sbu_0, # of connection points: 4
#     Node 23, Type 1, BuildingBlock: UXUYUI_clean_sbu_0, # of connection points: 4
#     Node 24, Type 1, BuildingBlock: UXUYUI_clean_sbu_0, # of connection points: 4
#     Node 25, Type 1, BuildingBlock: UXUYUI_clean_sbu_0, # of connection points: 4
#     Node 26, Type 1, BuildingBlock: UXUYUI_clean_sbu_0, # of connection points: 4
#     Node 27, Type 1, BuildingBlock: UXUYUI_clean_sbu_0, # of connection points: 4
#     Edge 28, Type (0, 1), BuildingBlock: EZIPEK_clean_linker_0, # of connection points: 2
#     Edge 29, Type (0, 1), BuildingBlock: EZIPEK_clean_linker_0, # of connection points: 2
#     Edge 30, Type (0, 1), BuildingBlock: EZIPEK_clean_linker_0, # of connection points: 2
#     Edge 31, Type (0, 1), BuildingBlock: EZIPEK_clean_linker_0, # of connection points: 2
#     Edge 32, Type (0, 1), BuildingBlock: EZIPEK_clean_linker_0, # of connection points: 2
#     Edge 33, Type (0, 1), BuildingBlock: EZIPEK_clean_linker_0, # of connection points: 2
#     Edge 34, Type (0, 1), BuildingBlock: EZIPEK_clean_linker_0, # of connection points: 2
#     Edge 35, Type (0, 1), BuildingBlock: EZIPEK_clean_linker_0, # of connection points: 2
#     Edge 36, Type (0, 1), BuildingBlock: EZIPEK_clean_linker_0, # of connection points: 2
#     Edge 37, Type (0, 1), BuildingBlock: EZIPEK_clean_linker_0, # of connection points: 2
#     Edge 38, Type (0, 1), BuildingBlock: EZIPEK_clean_linker_0, # of connection points: 2
#     Edge 39, Type (0, 1), BuildingBlock: EZIPEK_clean_linker_0, # of connection points: 2
#     Edge 40, Type (0, 1), BuildingBlock: EZIPEK_clean_linker_0, # of connection points: 2
#     Edge 41, Type (0, 1), BuildingBlock: EZIPEK_clean_linker_0, # of connection points: 2
#     Edge 42, Type (0, 1), BuildingBlock: EZIPEK_clean_linker_0, # of connection points: 2
#     Edge 43, Type (0, 1), BuildingBlock: EZIPEK_clean_linker_0, # of connection points: 2
#     Edge 44, Type (0, 1), BuildingBlock: EZIPEK_clean_linker_0, # of connection points: 2
#     Edge 45, Type (0, 1), BuildingBlock: EZIPEK_clean_linker_0, # of connection points: 2
#     Edge 46, Type (0, 1), BuildingBlock: EZIPEK_clean_linker_0, # of connection points: 2
#     Edge 47, Type (0, 1), BuildingBlock: EZIPEK_clean_linker_0, # of connection points: 2
#     Edge 48, Type (0, 1), BuildingBlock: EZIPEK_clean_linker_0, # of connection points: 2
#     Edge 49, Type (0, 1), BuildingBlock: EZIPEK_clean_linker_0, # of connection points: 2
#     Edge 50, Type (0, 1), BuildingBlock: EZIPEK_clean_linker_0, # of connection points: 2
#     Edge 51, Type (0, 1), BuildingBlock: EZIPEK_clean_linker_0, # of connection points: 2
#     Edge 52, Type (0, 1), BuildingBlock: EZIPEK_clean_linker_0, # of connection points: 2
#     Edge 53, Type (0, 1), BuildingBlock: EZIPEK_clean_linker_0, # of connection points: 2
#     Edge 54, Type (0, 1), BuildingBlock: EZIPEK_clean_linker_0, # of connection points: 2
#     Edge 55, Type (0, 1), BuildingBlock: EZIPEK_clean_linker_0, # of connection points: 2
#     Edge 56, Type (0, 1), BuildingBlock: EZIPEK_clean_linker_0, # of connection points: 2
#     Edge 57, Type (0, 1), BuildingBlock: EZIPEK_clean_linker_0, # of connection points: 2
#     Edge 58, Type (0, 1), BuildingBlock: EZIPEK_clean_linker_0, # of connection points: 2
#     Edge 59, Type (0, 1), BuildingBlock: EZIPEK_clean_linker_0, # of connection points: 2
#     Edge 60, Type (0, 1), BuildingBlock: EZIPEK_clean_linker_0, # of connection points: 2
#     Edge 61, Type (0, 1), BuildingBlock: EZIPEK_clean_linker_0, # of connection points: 2
#     Edge 62, Type (0, 1), BuildingBlock: EZIPEK_clean_linker_0, # of connection points: 2
#     Edge 63, Type (0, 1), BuildingBlock: EZIPEK_clean_linker_0, # of connection points: 2
#     Edge 64, Type (0, 1), BuildingBlock: EZIPEK_clean_linker_0, # of connection points: 2
#     Edge 65, Type (0, 1), BuildingBlock: EZIPEK_clean_linker_0, # of connection points: 2
#     Edge 66, Type (0, 1), BuildingBlock: EZIPEK_clean_linker_0, # of connection points: 2
#     Edge 67, Type (0, 1), BuildingBlock: EZIPEK_clean_linker_0, # of connection points: 2
#     Edge 68, Type (0, 1), BuildingBlock: EZIPEK_clean_linker_0, # of connection points: 2
#     Edge 69, Type (0, 1), BuildingBlock: EZIPEK_clean_linker_0, # of connection points: 2
#     Edge 70, Type (0, 1), BuildingBlock: EZIPEK_clean_linker_0, # of connection points: 2
#     Edge 71, Type (0, 1), BuildingBlock: EZIPEK_clean_linker_0, # of connection points: 2
#     Edge 72, Type (0, 1), BuildingBlock: EZIPEK_clean_linker_0, # of connection points: 2
#     Edge 73, Type (0, 1), BuildingBlock: EZIPEK_clean_linker_0, # of connection points: 2
#     Edge 74, Type (0, 1), BuildingBlock: EZIPEK_clean_linker_0, # of connection points: 2
#     Edge 75, Type (0, 1), BuildingBlock: EZIPEK_clean_linker_0, # of connection points: 2
# Relax obj value: 0.071
# Max RMSD: 0.193
# Mean RMSD: 0.116
data_MOF--net-ctn--node1-UXUYUI_clean_sbu_0--node2-BETDIP_clean_linker_0--edge1-EZIPEK_clean_linker_0
_symmetry_space_group_name_H-M    P1
_symmetry_Int_Tables_number       1
_symmetry_cell_setting            triclinic
loop_
_symmetry_equiv_pos_as_xyz
'x, y, z'
_cell_length_a     50.638885
_cell_length_b     50.931826
_cell_length_c     55.870458
_cell_angle_alpha  93.544304
_cell_angle_beta   93.824774
_cell_angle_gamma 92.928954
loop_
_atom_site_label
_atom_site_type_symbol
_atom_site_fract_x
_atom_site_fract_y
_atom_site_fract_z
_atom_type_partial_charge
H0 H 0.03421 0.06918 0.06971 0.0
H1 H 0.09486 0.04041 0.02611 0.0
H2 H 0.07556 1.00087 0.08897 0.0
H3 H 0.09724 0.08255 0.01524 0.0
C4 C 0.0767 0.08775 0.01401 0.0
C5 C 0.04908 0.05513 0.06622 0.0
C6 C 0.05324 0.03496 0.08194 0.0
C7 C 0.06422 0.05767 0.04627 0.0
C8 C 0.08344 0.03927 0.04174 0.0
C9 C 0.08757 0.01862 0.05695 0.0
C10 C 0.07241 0.01662 0.07709 0.0
N11 N 0.05907 0.07839 0.03083 0.0
H12 H 0.27393 0.69346 0.19952 0.0
H13 H 0.34175 0.74393 0.22299 0.0
H14 H 0.31558 0.68243 0.26675 0.0
H15 H 0.32178 0.77292 0.19982 0.0
C16 C 0.31286 0.76055 0.18459 0.0
C17 C 0.2896 0.69977 0.21314 0.0
C18 C 0.29277 0.68609 0.23399 0.0
C19 C 0.30668 0.72136 0.20959 0.0
C20 C 0.32698 0.72942 0.22741 0.0
C21 C 0.32887 0.71799 0.24997 0.0
C22 C 0.31277 0.69466 0.25179 0.0
N23 N 0.30294 0.73446 0.18789 0.0
H24 H 0.95226 0.49736 0.01647 0.0
H25 H 0.01264 0.4663 0.06289 0.0
H26 H 0.97278 0.53455 0.08709 0.0
H27 H 0.02739 0.45159 0.02736 0.0
C28 C 0.00953 0.44583 0.01604 0.0
C29 C 0.96407 0.4983 0.03345 0.0
C30 C 0.9603 0.51826 0.05121 0.0
C31 C 0.98319 0.47976 0.0372 0.0
C32 C 0.99835 0.48091 0.05934 0.0
C33 C 0.9947 0.50055 0.07744 0.0
C34 C 0.97564 0.51928 0.07327 0.0
N35 N 0.98613 0.4598 0.01869 0.0
H36 H 0.72082 0.7707 0.19028 0.0
H37 H 0.74524 0.83895 0.23782 0.0
H38 H 0.78575 0.82294 0.17403 0.0
H39 H 0.71582 0.82518 0.2611 0.0
C40 C 0.70334 0.80876 0.25282 0.0
C41 C 0.73371 0.78818 0.19489 0.0
C42 C 0.75363 0.79502 0.17966 0.0
C43 C 0.73031 0.80365 0.21607 0.0
C44 C 0.74724 0.8264 0.22183 0.0
C45 C 0.76723 0.83334 0.20671 0.0
C46 C 0.77032 0.81761 0.18568 0.0
N47 N 0.70968 0.79567 0.23079 0.0
H48 H 0.02992 0.96135 0.44357 0.0
H49 H 0.09823 0.98759 0.49087 0.0
H50 H 0.08177 0.02562 0.42547 0.0
H51 H 0.09378 0.94752 0.50446 0.0
C52 C 0.07311 0.94063 0.50189 0.0
C53 C 0.04744 0.97437 0.4478 0.0
C54 C 0.05397 0.99379 0.43205 0.0
C55 C 0.06345 0.97144 0.46887 0.0
C56 C 0.08599 0.98876 0.4744 0.0
C57 C 0.09268 0.00824 0.45873 0.0
C58 C 0.07668 0.01059 0.43755 0.0
N59 N 0.05595 0.95129 0.48415 0.0
H60 H 0.22806 0.7524 0.81807 0.0
H61 H 0.25626 0.69332 0.76909 0.0
H62 H 0.29421 0.7076 0.84022 0.0
H63 H 0.23391 0.71457 0.74094 0.0
C64 C 0.21804 0.72442 0.74926 0.0
C65 C 0.24183 0.73736 0.81415 0.0
C66 C 0.2614 0.73179 0.83182 0.0
C67 C 0.23989 0.72399 0.7914 0.0
C68 C 0.25773 0.70437 0.78633 0.0
C69 C 0.27738 0.69838 0.80387 0.0
C70 C 0.27912 0.71212 0.82664 0.0
N71 N 0.2193 0.73048 0.77452 0.0
H72 H 1.00501 0.58344 0.4763 0.0
H73 H 0.95613 0.51592 0.44858 0.0
H74 H 0.93865 0.55592 0.51421 0.0
H75 H 0.99532 0.50598 0.43155 0.0
C76 C 1.0017 0.52503 0.42559 0.0
C77 C 0.98936 0.56899 0.47915 0.0
C78 C 0.97603 0.56994 0.50071 0.0
C79 C 0.98301 0.54928 0.46068 0.0
C80 C 0.96148 0.53123 0.46263 0.0
C81 C 0.94589 0.53367 0.48233 0.0
C82 C 0.95251 0.55359 0.50054 0.0
N83 N 0.9986 0.5483 0.44035 0.0
H84 H 0.797 0.82964 0.77038 0.0
H85 H 0.82895 0.77107 0.81482 0.0
H86 H 0.76164 0.81271 0.83606 0.0
H87 H 0.86394 0.77423 0.79301 0.0
C88 C 0.85929 0.78423 0.77681 0.0
C89 C 0.79641 0.81855 0.78631 0.0
C90 C 0.77701 0.82339 0.80261 0.0
C91 C 0.81559 0.80021 0.79057 0.0
C92 C 0.81479 0.78579 0.81132 0.0
C93 C 0.79521 0.79006 0.8277 0.0
C94 C 0.77649 0.80905 0.82334 0.0
N95 N 0.83515 0.79714 0.77351 0.0
H96 H 0.29559 0.33075 0.26985 0.0
H97 H 0.32759 0.27161 0.31361 0.0
H98 H 0.26049 0.31317 0.33549 0.0
H99 H 0.36264 0.27533 0.29198 0.0
C100 C 0.35787 0.28527 0.27577 0.0
C101 C 0.29505 0.31948 0.28567 0.0
C102 C 0.27574 0.32418 0.30209 0.0
C103 C 0.31421 0.30106 0.2897 0.0
C104 C 0.31346 0.28641 0.3103 0.0
C105 C 0.29398 0.29055 0.32679 0.0
C106 C 0.27527 0.30961 0.32268 0.0
N107 N 0.33369 0.29813 0.27256 0.0
H108 H 0.4504 0.994 0.51617 0.0
H109 H 0.51338 0.96465 0.56064 0.0
H110 H 0.47524 0.0341 0.58482 0.0
H111 H 0.52775 0.9545 0.52184 0.0
C112 C 0.50943 0.94599 0.51267 0.0
C113 C 0.46315 0.99565 0.53263 0.0
C114 C 0.46059 0.01655 0.54987 0.0
C115 C 0.48263 0.9774 0.53598 0.0
C116 C 0.49893 0.97924 0.55745 0.0
C117 C 0.49611 0.99936 0.57533 0.0
C118 C 0.47721 0.01828 0.57128 0.0
N119 N 0.485 0.95706 0.51772 0.0
H120 H 0.21678 0.27316 0.68816 0.0
H121 H 0.24218 0.34109 0.73545 0.0
H122 H 0.28641 0.32057 0.67471 0.0
H123 H 0.22109 0.31937 0.76272 0.0
C124 C 0.20507 0.30711 0.75329 0.0
C125 C 0.23063 0.28984 0.69314 0.0
C126 C 0.25193 0.29498 0.67884 0.0
C127 C 0.22741 0.30566 0.71412 0.0
C128 C 0.24499 0.32782 0.72006 0.0
C129 C 0.2663 0.33331 0.7059 0.0
C130 C 0.26991 0.31653 0.68558 0.0
N131 N 0.20619 0.29884 0.72856 0.0
H132 H 0.77386 0.19272 0.69837 0.0
H133 H 0.8459 0.23941 0.7197 0.0
H134 H 0.81962 0.17792 0.76332 0.0
H135 H 0.82628 0.26967 0.69759 0.0
C136 C 0.81535 0.2583 0.68273 0.0
C137 C 0.79092 0.19748 0.71094 0.0
C138 C 0.79471 0.18285 0.73125 0.0
C139 C 0.80878 0.21841 0.70684 0.0
C140 C 0.83126 0.22407 0.72297 0.0
C141 C 0.83523 0.20959 0.74344 0.0
C142 C 0.81669 0.18917 0.7476 0.0
N143 N 0.80373 0.2329 0.68615 0.0
H144 H 0.53437 0.56911 0.57062 0.0
H145 H 0.59396 0.53793 0.52701 0.0
H146 H 0.57242 0.49876 0.58932 0.0
H147 H 0.59484 0.57614 0.51134 0.0
C148 C 0.57625 0.58532 0.51366 0.0
C149 C 0.54861 0.55444 0.56701 0.0
C150 C 0.5517 0.53388 0.58246 0.0
C151 C 0.56381 0.55641 0.54703 0.0
C152 C 0.58232 0.53726 0.54249 0.0
C153 C 0.58559 0.51642 0.55764 0.0
C154 C 0.57006 0.51474 0.57756 0.0
N155 N 0.55942 0.57741 0.53169 0.0
H156 H 0.53215 0.46193 0.94355 0.0
H157 H 0.60157 0.48594 0.99021 0.0
H158 H 0.58523 0.52523 0.92544 0.0
H159 H 0.5968 0.44467 1.00203 0.0
C160 C 0.5758 0.43893 1.00044 0.0
C161 C 0.55 0.47451 0.94767 0.0
C162 C 0.55684 0.49388 0.93196 0.0
C163 C 0.56621 0.47093 0.96847 0.0
C164 C 0.58921 0.48763 0.97389 0.0
C165 C 0.59606 0.50729 0.95843 0.0
C166 C 0.57993 0.51016 0.93743 0.0
N167 N 0.55844 0.4508 0.98366 0.0
H168 H 0.72529 0.24989 0.3184 0.0
H169 H 0.75386 0.1908 0.26974 0.0
H170 H 0.79519 0.20969 0.33899 0.0
H171 H 0.73115 0.21224 0.24156 0.0
C172 C 0.71486 0.22121 0.25002 0.0
C173 C 0.73968 0.2355 0.3143 0.0
C174 C 0.76041 0.23149 0.33139 0.0
C175 C 0.73736 0.22146 0.29188 0.0
C176 C 0.7558 0.20249 0.28667 0.0
C177 C 0.77683 0.19815 0.30353 0.0
C178 C 0.77909 0.21286 0.32589 0.0
N179 N 0.71596 0.22676 0.27534 0.0
H180 H 0.49967 0.08912 0.96778 0.0
H181 H 0.45457 0.01655 0.94594 0.0
H182 H 0.43556 0.06284 0.0088 0.0
H183 H 0.49393 0.00656 0.92973 0.0
C184 C 0.4999 0.02499 0.92232 0.0
C185 C 0.48381 0.07474 0.97052 0.0
C186 C 0.46821 0.07853 0.99016 0.0
C187 C 0.47943 0.0523 0.95464 0.0
C188 C 0.45872 0.03372 0.95828 0.0
C189 C 0.44279 0.03752 0.97776 0.0
C190 C 0.44766 0.05995 0.99365 0.0
N191 N 0.4958 0.04937 0.93499 0.0
Li192 Li 0.28836 0.89879 1.00417 0.0
Li193 Li 0.27224 0.86386 0.03028 0.0
Li194 Li 0.26271 0.86083 0.98637 0.0
Li195 Li 0.24046 0.89493 0.01211 0.0
C196 C 0.31037 0.84133 0.99438 0.0
N197 N 0.33456 0.79971 0.97241 0.0
C198 C 0.31242 0.81767 1.00561 0.0
C199 C 0.32086 0.84388 0.97206 0.0
C200 C 0.32464 0.79684 0.99418 0.0
C201 C 0.33297 0.82261 0.96124 0.0
C202 C 0.28003 0.917 0.05573 0.0
C203 C 0.27142 0.94007 0.09317 0.0
N204 N 0.29786 0.94594 0.09768 0.0
C205 C 0.30712 0.92333 0.0607 0.0
C206 C 0.26201 0.92551 0.07204 0.0
C207 C 0.31573 0.93794 0.08202 0.0
C208 C 0.31284 0.95047 1.00432 0.0
N209 N 0.31682 0.92436 1.00044 0.0
C210 C 0.36114 0.93426 0.99002 0.0
C211 C 0.34047 0.91602 0.99366 0.0
C212 C 0.35744 0.96128 0.99359 0.0
C213 C 0.33302 0.9694 1.00095 0.0
H214 H 0.2939 0.95656 0.00987 0.0
H215 H 0.34327 0.8952 0.991 0.0
C216 C 0.26776 0.81968 0.05896 0.0
N217 N 0.27971 0.84418 0.05823 0.0
C218 C 0.27238 0.8049 0.07897 0.0
C219 C 0.30196 0.84047 0.09698 0.0
C220 C 0.2968 0.85456 0.07663 0.0
C221 C 0.28959 0.8154 0.09827 0.0
H222 H 0.25472 0.81151 0.04394 0.0
H223 H 0.30656 0.8737 0.07554 0.0
C224 C 0.26432 0.91825 0.96667 0.0
N225 N 0.28135 0.95913 0.94014 0.0
C226 C 0.25237 0.94237 0.96833 0.0
C227 C 0.28465 0.91481 0.95122 0.0
C228 C 0.26131 0.96282 0.95483 0.0
C229 C 0.29307 0.93574 0.93806 0.0
C230 C 0.21808 0.84669 0.02628 0.0
C231 C 0.19999 0.82592 0.01813 0.0
C232 C 0.21668 0.85877 0.04928 0.0
C233 C 0.18064 0.81763 0.03314 0.0
C234 C 0.19705 0.84991 0.06375 0.0
N235 N 0.17959 0.8297 0.05545 0.0
C236 C 0.25963 0.80957 0.96218 0.0
C237 C 0.25737 0.8445 0.93614 0.0
C238 C 0.26021 0.79114 0.94257 0.0
N239 N 0.25881 0.83576 0.95869 0.0
C240 C 0.25757 0.82672 0.91602 0.0
C241 C 0.25939 0.79972 0.91915 0.0
H242 H 0.26066 0.80307 0.98027 0.0
H243 H 0.25656 0.86533 0.93374 0.0
C244 C 0.21561 0.94157 0.02489 0.0
N245 N 0.21023 0.91547 0.01875 0.0
C246 C 0.19534 0.95787 0.03102 0.0
C247 C 0.16424 0.92013 0.02503 0.0
C248 C 0.18504 0.90464 0.01847 0.0
C249 C 0.16928 0.94716 0.03136 0.0
H250 H 0.23579 0.94972 0.02519 0.0
H251 H 0.18105 0.88392 0.01342 0.0
O252 O 0.29824 0.86187 1.00522 0.0
O253 O 0.27114 0.90307 0.03477 0.0
O254 O 0.2563 0.89821 0.98023 0.0
O255 O 0.23728 0.85483 0.01188 0.0
H256 H 0.3046 0.81535 0.02292 0.0
H257 H 0.31948 0.86198 0.96306 0.0
H258 H 0.32623 0.77839 1.00263 0.0
H259 H 0.34109 0.82431 0.94394 0.0
H260 H 0.25769 0.94675 0.10597 0.0
H261 H 0.32137 0.91676 0.04838 0.0
H262 H 0.24096 0.92097 0.06845 0.0
H263 H 0.33664 0.94289 0.08614 0.0
H264 H 0.37982 0.92741 0.98444 0.0
H265 H 0.32963 0.99013 1.00393 0.0
H266 H 0.26264 0.78552 0.07941 0.0
H267 H 0.31547 0.84902 0.11157 0.0
H268 H 0.23638 0.94531 0.9799 0.0
H269 H 0.29412 0.89631 0.94968 0.0
H270 H 0.25233 0.98163 0.95605 0.0
H271 H 0.309 0.93343 0.92625 0.0
H272 H 0.20093 0.8163 1.0004 0.0
H273 H 0.23067 0.8747 0.05591 0.0
H274 H 0.16649 0.80158 0.02708 0.0
H275 H 0.19574 0.85907 0.08159 0.0
H276 H 0.26159 0.77045 0.94563 0.0
H277 H 0.25681 0.83399 0.89818 0.0
H278 H 0.20001 0.97861 0.03578 0.0
H279 H 0.14438 0.91117 0.0251 0.0
Li280 Li 0.12256 0.50955 0.28001 0.0
Li281 Li 0.15344 0.48029 0.26443 0.0
Li282 Li 0.15768 0.52796 0.25812 0.0
Li283 Li 0.11996 0.50046 0.23583 0.0
C284 C 0.16338 0.51837 0.31223 0.0
N285 N 0.16664 0.53506 0.36042 0.0
C286 C 0.15469 0.50149 0.32927 0.0
C287 C 0.17379 0.54372 0.31974 0.0
C288 C 0.15646 0.51031 0.35353 0.0
C289 C 0.17528 0.55178 0.34418 0.0
C290 C 0.11119 0.44884 0.26039 0.0
C291 C 0.10609 0.40702 0.23743 0.0
N292 N 0.10888 0.39445 0.25817 0.0
C293 C 0.11383 0.43554 0.28149 0.0
C294 C 0.1072 0.43453 0.23817 0.0
C295 C 0.11268 0.40802 0.27998 0.0
C296 C 0.07983 0.49717 0.30847 0.0
N297 N 0.09977 0.51563 0.30625 0.0
C298 C 0.08778 0.5402 0.34151 0.0
C299 C 0.10365 0.53714 0.3221 0.0
C300 C 0.06747 0.52119 0.34438 0.0
C301 C 0.0633 0.49961 0.32748 0.0
H302 H 0.0769 0.48036 0.29561 0.0
H303 H 0.11939 0.55172 0.32003 0.0
C304 C 0.18545 0.44825 0.29286 0.0
N305 N 0.17368 0.44963 0.27038 0.0
C306 C 0.20089 0.42719 0.2984 0.0
C307 C 0.19237 0.4092 0.25745 0.0
C308 C 0.17682 0.43059 0.25273 0.0
C309 C 0.20469 0.40745 0.28055 0.0
H310 H 0.18327 0.46374 0.30648 0.0
H311 H 0.16755 0.43219 0.23491 0.0
C312 C 0.10643 0.55494 0.26483 0.0
N313 N 0.07902 0.59391 0.28726 0.0
C314 C 0.07875 0.55301 0.26387 0.0
C315 C 0.12018 0.57673 0.2772 0.0
C316 C 0.06525 0.57287 0.27536 0.0
C317 C 0.10596 0.59624 0.28838 0.0
C318 C 0.18127 0.50415 0.22277 0.0
C319 C 0.17993 0.52107 0.20401 0.0
C320 C 0.20583 0.49572 0.23119 0.0
C321 C 0.20326 0.52933 0.194 0.0
C322 C 0.22869 0.50437 0.22066 0.0
N323 N 0.22695 0.52086 0.20245 0.0
C324 C 0.20799 0.55628 0.2642 0.0
C325 C 0.1753 0.57658 0.24042 0.0
C326 C 0.22667 0.57676 0.26105 0.0
N327 N 0.18282 0.55667 0.25409 0.0
C328 C 0.19331 0.59747 0.23688 0.0
C329 C 0.21928 0.59768 0.24733 0.0
H330 H 0.21354 0.54002 0.27469 0.0
H331 H 0.15529 0.57618 0.23228 0.0
C332 C 0.07036 0.49872 0.20878 0.0
N333 N 0.09685 0.49698 0.20672 0.0
C334 C 0.05294 0.4991 0.18827 0.0
C335 C 0.09015 0.49465 0.16372 0.0
C336 C 0.10691 0.49458 0.18474 0.0
C337 C 0.06285 0.49732 0.16539 0.0
H338 H 0.06277 0.5002 0.2264 0.0
H339 H 0.12798 0.49299 0.18349 0.0
O340 O 0.16184 0.51013 0.28837 0.0
O341 O 0.11319 0.47575 0.26144 0.0
O342 O 0.12003 0.53548 0.254 0.0
O343 O 0.15879 0.49661 0.23341 0.0
H344 H 0.14617 0.48196 0.32377 0.0
H345 H 0.18041 0.55715 0.30685 0.0
H346 H 0.1496 0.49754 0.36686 0.0
H347 H 0.18321 0.57137 0.35023 0.0
H348 H 0.10313 0.39566 0.22037 0.0
H349 H 0.11705 0.44638 0.29881 0.0
H350 H 0.10526 0.44456 0.22168 0.0
H351 H 0.1149 0.39745 0.29614 0.0
H352 H 0.09147 0.55708 0.35428 0.0
H353 H 0.04775 0.4846 0.32925 0.0
H354 H 0.21027 0.42657 0.31635 0.0
H355 H 0.19504 0.39438 0.2432 0.0
H356 H 0.06778 0.53621 0.25461 0.0
H357 H 0.14159 0.57838 0.27857 0.0
H358 H 0.04383 0.57153 0.27488 0.0
H359 H 0.11635 0.61314 0.2981 0.0
H360 H 0.16115 0.52818 0.19758 0.0
H361 H 0.20726 0.48288 0.24589 0.0
H362 H 0.20256 0.54259 0.1796 0.0
H363 H 0.24784 0.49807 0.22705 0.0
H364 H 0.24661 0.57637 0.26928 0.0
H365 H 0.18709 0.61333 0.22613 0.0
H366 H 0.03197 0.50101 0.19021 0.0
H367 H 0.09844 0.49308 0.14634 0.0
Li368 Li 0.76163 0.64071 0.99524 0.0
Li369 Li 0.78216 0.67739 0.02276 0.0
Li370 Li 0.78875 0.67601 0.97924 0.0
Li371 Li 0.80949 0.6447 1.00472 0.0
C372 C 0.73137 0.68514 1.00423 0.0
N373 N 0.68392 0.69739 0.02274 0.0
C374 C 0.72104 0.67031 0.02203 0.0
C375 C 0.71757 0.70619 0.99585 0.0
C376 C 0.69703 0.67681 0.03115 0.0
C377 C 0.69361 0.71207 1.00543 0.0
C378 C 0.79389 0.629 0.0465 0.0
C379 C 0.82617 0.63414 0.08046 0.0
N380 N 0.82162 0.60832 0.08459 0.0
C381 C 0.78955 0.60252 0.05108 0.0
C382 C 0.81238 0.64495 0.06128 0.0
C383 C 0.80376 0.59244 0.07043 0.0
C384 C 0.73365 0.59076 0.99392 0.0
N385 N 0.73133 0.61616 0.98821 0.0
C386 C 0.68645 0.60624 0.97261 0.0
C387 C 0.70839 0.62405 0.97745 0.0
C388 C 0.68821 0.58008 0.97875 0.0
C389 C 0.71217 0.5723 0.98943 0.0
H390 H 0.75225 0.5848 1.00187 0.0
H391 H 0.70709 0.64416 0.97256 0.0
C392 C 0.78482 0.72554 0.05243 0.0
N393 N 0.77668 0.69957 0.0511 0.0
C394 C 0.78107 0.7417 0.07302 0.0
C395 C 0.76057 0.70417 0.09043 0.0
C396 C 0.76465 0.68877 0.06954 0.0
C397 C 0.76888 0.73094 0.09231 0.0
H398 H 0.79429 0.73366 0.03753 0.0
H399 H 0.75828 0.66811 0.06808 0.0
C400 C 0.77886 0.62926 0.95025 0.0
N401 N 0.75578 0.61351 0.9051 0.0
C402 C 0.78884 0.60845 0.93679 0.0
C403 C 0.75711 0.64204 0.94077 0.0
C404 C 0.7769 0.60078 0.91399 0.0
C405 C 0.74574 0.6338 0.91791 0.0
C406 C 0.83947 0.69108 0.99803 0.0
C407 C 0.84922 0.67562 0.97939 0.0
C408 C 0.85389 0.71398 0.00736 0.0
C409 C 0.87327 0.68338 0.97038 0.0
C410 C 0.87787 0.72107 0.99786 0.0
N411 N 0.88698 0.70576 0.97972 0.0
C412 C 0.78101 0.72147 0.95261 0.0
C413 C 0.80435 0.6888 0.93221 0.0
C414 C 0.78164 0.73721 0.9329 0.0
N415 N 0.79208 0.69765 0.9519 0.0
C416 C 0.80533 0.70386 0.91207 0.0
C417 C 0.79374 0.72831 0.91225 0.0
H418 H 0.77144 0.72815 0.96843 0.0
H419 H 0.81309 0.66987 0.93196 0.0
C420 C 0.83748 0.59771 1.00418 0.0
N421 N 0.83961 0.62371 0.0117 0.0
C422 C 0.85753 0.58102 0.01069 0.0
C423 C 0.88177 0.61813 0.03244 0.0
C424 C 0.86127 0.63413 0.0255 0.0
C425 C 0.87992 0.5912 0.02511 0.0
H426 H 0.8199 0.58982 0.99356 0.0
H427 H 0.86234 0.65473 0.03166 0.0
O428 O 0.755 0.67936 0.99518 0.0
O429 O 0.78088 0.63906 0.02714 0.0
O430 O 0.79032 0.63682 0.97265 0.0
O431 O 0.81591 0.68404 0.00713 0.0
H432 H 0.73138 0.65391 0.02871 0.0
H433 H 0.72529 0.71786 0.98207 0.0
H434 H 0.68881 0.6655 0.04492 0.0
H435 H 0.68272 0.72831 0.99911 0.0
H436 H 0.84062 0.64624 0.09196 0.0
H437 H 0.77545 0.58982 0.0398 0.0
H438 H 0.81645 0.66535 0.05772 0.0
H439 H 0.80064 0.57196 0.07414 0.0
H440 H 0.66827 0.61279 0.96417 0.0
H441 H 0.7142 0.55218 0.99421 0.0
H442 H 0.7877 0.76232 0.07396 0.0
H443 H 0.7511 0.69531 0.10501 0.0
H444 H 0.80563 0.59833 0.94391 0.0
H445 H 0.74911 0.6582 0.95089 0.0
H446 H 0.78442 0.5847 0.90336 0.0
H447 H 0.72894 0.64355 0.91035 0.0
H448 H 0.83841 0.65781 0.97196 0.0
H449 H 0.84658 0.72615 0.02179 0.0
H450 H 0.88104 0.67161 0.95595 0.0
H451 H 0.88923 0.73876 1.0049 0.0
H452 H 0.77254 0.756 0.93363 0.0
H453 H 0.81487 0.69643 0.89644 0.0
H454 H 0.85545 0.56031 1.00481 0.0
H455 H 0.89872 0.62656 0.04368 0.0
Li456 Li 0.90375 0.04756 0.25661 0.0
Li457 Li 0.93462 0.01942 0.27467 0.0
Li458 Li 0.93626 0.02751 0.23129 0.0
Li459 Li 0.89767 0.99966 0.24729 0.0
C460 C 0.95462 0.07725 0.2592 0.0
N461 N 0.97772 0.12746 0.25817 0.0
C462 C 0.96619 0.09041 0.28032 0.0
C463 C 0.95512 0.08948 0.23751 0.0
C464 C 0.97767 0.11583 0.27944 0.0
C465 C 0.9668 0.11491 0.23738 0.0
C466 C 0.89034 0.03016 0.30061 0.0
C467 C 0.8631 0.0318 0.3344 0.0
N468 N 0.87853 0.05272 0.34459 0.0
C469 C 0.90592 0.05167 0.31142 0.0
C470 C 0.86875 0.02012 0.31216 0.0
C471 C 0.89964 0.06279 0.33365 0.0
C472 C 0.85607 0.072 0.2647 0.0
N473 N 0.88249 0.07778 0.26342 0.0
C474 C 0.87662 0.12314 0.27514 0.0
C475 C 0.89289 0.10288 0.26845 0.0
C476 C 0.84932 0.11765 0.27641 0.0
C477 C 0.83904 0.09172 0.27088 0.0
H478 H 0.84826 0.05186 0.26129 0.0
H479 H 0.91383 0.10728 0.26778 0.0
C480 C 0.98197 0.02391 0.30551 0.0
N481 N 0.95651 0.01365 0.30325 0.0
C482 C 0.99824 0.02045 0.3262 0.0
C483 C 0.96189 0.9958 0.34184 0.0
C484 C 0.94635 0.99963 0.32082 0.0
C485 C 0.98811 0.00637 0.34467 0.0
H486 H 0.98961 0.03482 0.29122 0.0
H487 H 0.92614 0.99146 0.31852 0.0
C488 C 0.8769 0.0419 0.21402 0.0
N489 N 0.83633 0.07023 0.19497 0.0
C490 C 0.85076 0.03141 0.2126 0.0
C491 C 0.88246 0.06664 0.20544 0.0
C492 C 0.83051 0.04606 0.20297 0.0
C493 C 0.86166 0.08071 0.19598 0.0
C494 C 0.95046 0.97458 0.25824 0.0
C495 C 0.97808 0.97563 0.25814 0.0
C496 C 0.93758 0.9557 0.27114 0.0
C497 C 0.99241 0.95781 0.2711 0.0
C498 C 0.95261 0.9382 0.28383 0.0
N499 N 0.97948 0.93963 0.28357 0.0
C500 C 0.98514 0.03008 0.20817 0.0
C501 C 0.94657 0.03137 0.18192 0.0
C502 C 1.00126 0.03073 0.18875 0.0
N503 N 0.9583 0.03015 0.20444 0.0
C504 C 0.96196 0.03234 0.16202 0.0
C505 C 0.98967 0.03181 0.1653 0.0
H506 H 0.99403 0.02936 0.22624 0.0
H507 H 0.92521 0.03141 0.17939 0.0
C508 C 0.84935 0.96897 0.24977 0.0
N509 N 0.87329 0.96972 0.24004 0.0
C510 C 0.8315 0.94711 0.24473 0.0
C511 C 0.8633 0.92716 0.21988 0.0
C512 C 0.8805 0.94943 0.22531 0.0
C513 C 0.8385 0.92591 0.22965 0.0
H514 H 0.84409 0.9854 0.26135 0.0
H515 H 0.89967 0.95053 0.21787 0.0
O516 O 0.94346 0.05229 0.25974 0.0
O517 O 0.89582 0.01925 0.27861 0.0
O518 O 0.89689 0.02807 0.2239 0.0
O519 O 0.93614 0.99257 0.24657 0.0
H520 H 0.96626 0.08112 0.29723 0.0
H521 H 0.94668 0.07947 0.22095 0.0
H522 H 0.98657 0.1263 0.29566 0.0
H523 H 0.96726 0.12465 0.22073 0.0
H524 H 0.84643 0.02424 0.34355 0.0
H525 H 0.9226 0.05977 0.30268 0.0
H526 H 0.85645 1.00352 0.30402 0.0
H527 H 0.91152 0.07947 0.34219 0.0
H528 H 0.88527 0.14291 0.27942 0.0
H529 H 0.8181 0.08671 0.27178 0.0
H530 H 0.01843 0.0288 0.32787 0.0
H531 H 0.95357 0.98477 0.35578 0.0
H532 H 0.8461 0.01225 0.21904 0.0
H533 H 0.90255 0.07501 0.20625 0.0
H534 H 0.81017 0.03825 0.20191 0.0
H535 H 0.86565 0.09998 0.18947 0.0
H536 H 0.98837 0.99025 0.24843 0.0
H537 H 0.91623 0.95486 0.27168 0.0
H538 H 0.01381 0.9585 0.27132 0.0
H539 H 0.94291 0.92359 0.29401 0.0
H540 H 0.02257 0.03038 0.19195 0.0
H541 H 0.95235 0.03325 0.1442 0.0
H542 H 0.81247 0.94669 0.25252 0.0
H543 H 0.86924 0.91108 0.20819 0.0
Li544 Li 0.27852 0.17513 0.5219 0.0
Li545 Li 0.25893 0.1413 0.49499 0.0
Li546 Li 0.30746 0.14215 0.50581 0.0
Li547 Li 0.28515 0.1765 0.47799 0.0
C548 C 0.27698 0.13601 0.55059 0.0
N549 N 0.2755 0.13619 0.59996 0.0
C550 C 0.25294 0.13837 0.56126 0.0
C551 C 0.30022 0.13342 0.56502 0.0
C552 C 0.25263 0.13855 0.58625 0.0
C553 C 0.29906 0.13359 0.58994 0.0
C554 C 0.22569 0.17896 0.48836 0.0
C555 C 0.18956 0.18371 0.45882 0.0
N556 N 0.17202 0.17673 0.47503 0.0
C557 C 0.20728 0.17199 0.50476 0.0
C558 C 0.21677 0.18494 0.46521 0.0
C559 C 0.18024 0.17089 0.49766 0.0
C560 C 0.25166 0.21093 0.55218 0.0
N561 N 0.27414 0.19753 0.55078 0.0
C562 C 0.29004 0.21533 0.59016 0.0
C563 C 0.29318 0.19946 0.56931 0.0
C564 C 0.26684 0.229 0.59219 0.0
C565 C 0.24746 0.22661 0.5729 0.0
H566 H 0.23692 0.20949 0.53722 0.0
H567 H 0.31084 0.1886 0.568 0.0
C568 C 0.22343 0.09833 0.50405 0.0
N569 N 0.2284 0.11656 0.48785 0.0
C570 C 0.20167 0.08015 0.49996 0.0
C571 C 0.19052 0.09959 0.46251 0.0
C572 C 0.21256 0.11726 0.46723 0.0
C573 C 0.1849 0.08083 0.47903 0.0
H574 H 0.2364 0.09784 0.52016 0.0
H575 H 0.21696 0.13154 0.45438 0.0
C576 C 0.32339 0.2043 0.51822 0.0
N577 N 0.34347 0.25021 0.54337 0.0
C578 C 0.31151 0.22806 0.51469 0.0
C579 C 0.34554 0.2039 0.53449 0.0
C580 C 0.32192 0.25104 0.52761 0.0
C581 C 0.3554 0.22732 0.54703 0.0
C582 C 0.27738 0.11857 0.45597 0.0
C583 C 0.27723 0.09204 0.46104 0.0
C584 C 0.26567 0.12563 0.43409 0.0
C585 C 0.26512 0.07299 0.4442 0.0
C586 C 0.25386 0.10598 0.41768 0.0
N587 N 0.25379 0.08029 0.42305 0.0
C588 C 0.33191 0.09512 0.5165 0.0
C589 C 0.36286 0.13116 0.51415 0.0
C590 C 0.35232 0.07872 0.52262 0.0
N591 N 0.33742 0.12082 0.51235 0.0
C592 C 0.38387 0.11559 0.52082 0.0
C593 C 0.37871 0.08896 0.52509 0.0
H594 H 0.31154 0.08744 0.51547 0.0
H595 H 0.36686 0.15156 0.51066 0.0
C596 C 0.27717 0.22156 0.45069 0.0
N597 N 0.28931 0.1983 0.45094 0.0
C598 C 0.27837 0.23709 0.43091 0.0
C599 C 0.30484 0.20478 0.41194 0.0
C600 C 0.30326 0.1899 0.43217 0.0
C601 C 0.29214 0.2286 0.41115 0.0
H602 H 0.26601 0.22782 0.46567 0.0
H603 H 0.31276 0.17138 0.4327 0.0
O604 O 0.27778 0.13638 0.52619 0.0
O605 O 0.25228 0.1799 0.49493 0.0
O606 O 0.31307 0.18153 0.50607 0.0
O607 O 0.28856 0.13758 0.47247 0.0
H608 H 0.23475 0.14019 0.55036 0.0
H609 H 0.31903 0.13172 0.55713 0.0
H610 H 0.2342 0.14058 0.59475 0.0
H611 H 0.31692 0.1318 0.60134 0.0
H612 H 0.1824 0.18814 0.44093 0.0
H613 H 0.21379 0.16722 0.52271 0.0
H614 H 0.23066 0.19002 0.45215 0.0
H615 H 0.16581 0.16533 0.51012 0.0
H616 H 0.30543 0.21674 0.60467 0.0
H617 H 0.22935 0.23695 0.57382 0.0
H618 H 0.19787 0.0658 0.513 0.0
H619 H 0.17801 0.10049 0.44612 0.0
H620 H 0.29415 0.22864 0.50244 0.0
H621 H 0.35474 0.18565 0.53777 0.0
H622 H 0.31279 0.26953 0.52518 0.0
H623 H 0.37244 0.22728 0.55978 0.0
H624 H 0.28601 0.08626 0.47793 0.0
H625 H 0.26528 0.14609 0.42999 0.0
H626 H 0.26465 0.0524 0.44798 0.0
H627 H 0.24459 0.11118 0.40074 0.0
H628 H 0.34754 0.05832 0.52581 0.0
H629 H 0.40397 0.1242 0.52255 0.0
H630 H 0.2683 0.25535 0.43085 0.0
H631 H 0.31565 0.19768 0.39698 0.0
Li632 Li 0.43598 0.51808 0.77515 0.0
Li633 Li 0.4004 0.54542 0.75683 0.0
Li634 Li 0.4005 0.49794 0.74704 0.0
Li635 Li 0.4339 0.52662 0.731 0.0
C636 C 0.37715 0.50205 0.78774 0.0
N637 N 0.3359 0.47133 0.80322 0.0
C638 C 0.3516 0.51125 0.78731 0.0
C639 C 0.38179 0.47737 0.79631 0.0
C640 C 0.331 0.4954 0.79519 0.0
C641 C 0.36065 0.46208 0.80395 0.0
C642 C 0.44686 0.57702 0.75188 0.0
C643 C 0.4391 0.61168 0.72519 0.0
N644 N 0.46041 0.62597 0.73623 0.0
C645 C 0.46868 0.59201 0.76296 0.0
C646 C 0.43192 0.58688 0.73284 0.0
C647 C 0.47522 0.61673 0.75478 0.0
C648 C 0.48542 0.51467 0.80227 0.0
N649 N 0.45865 0.51416 0.80349 0.0
C650 C 0.46312 0.50718 0.84553 0.0
C651 C 0.44734 0.51059 0.82455 0.0
C652 C 0.49077 0.50762 0.8448 0.0
C653 C 0.50198 0.51147 0.82287 0.0
H654 H 0.49389 0.51749 0.78528 0.0
H655 H 0.42603 0.51032 0.82506 0.0
C656 C 0.35473 0.57624 0.75241 0.0
N657 N 0.37906 0.57487 0.76406 0.0
C658 C 0.33839 0.59661 0.75867 0.0
C659 C 0.37255 0.61406 0.78852 0.0
C660 C 0.38819 0.59331 0.78176 0.0
C661 C 0.34725 0.61572 0.77703 0.0
H662 H 0.34781 0.56121 0.73857 0.0
H663 H 0.4075 0.59168 0.79088 0.0
C664 C 0.44995 0.46962 0.74697 0.0
N665 N 0.47196 0.42107 0.74702 0.0
C666 C 0.459 0.4582 0.72585 0.0
C667 C 0.45227 0.45641 0.76815 0.0
C668 C 0.47 0.43362 0.72623 0.0
C669 C 0.46342 0.43187 0.7678 0.0
C670 C 0.38697 0.51632 0.70177 0.0
C671 C 0.39817 0.49365 0.69255 0.0
C672 C 0.36818 0.52862 0.68754 0.0
C673 C 0.39041 0.48366 0.66915 0.0
C674 C 0.36095 0.51804 0.66421 0.0
N675 N 0.37212 0.49597 0.65558 0.0
C676 C 0.35033 0.47129 0.73573 0.0
C677 C 0.38519 0.44207 0.73773 0.0
C678 C 0.33162 0.45016 0.73065 0.0
N679 N 0.37657 0.46697 0.73944 0.0
C680 C 0.36723 0.42042 0.73228 0.0
C681 C 0.34007 0.42434 0.72881 0.0
H682 H 0.34391 0.49123 0.73687 0.0
H683 H 0.40594 0.43878 0.74051 0.0
C684 C 0.48066 0.52188 0.70617 0.0
N685 N 0.45591 0.53114 0.70425 0.0
C686 C 0.4969 0.52251 0.68685 0.0
C687 C 0.46226 0.54287 0.664 0.0
C688 C 0.44667 0.54187 0.68378 0.0
C689 C 0.4876 0.53286 0.66537 0.0
H690 H 0.48761 0.51351 0.72261 0.0
H691 H 0.42703 0.54929 0.68263 0.0
O692 O 0.39742 0.51696 0.77946 0.0
O693 O 0.44025 0.55278 0.75968 0.0
O694 O 0.43932 0.49378 0.74696 0.0
O695 O 0.39425 0.5265 0.72462 0.0
H696 H 0.34767 0.53031 0.78077 0.0
H697 H 0.40142 0.46995 0.79675 0.0
H698 H 0.3111 0.5022 0.79483 0.0
H699 H 0.3639 0.44283 0.81039 0.0
H700 H 0.42772 0.61957 0.71048 0.0
H701 H 0.48044 0.5846 0.77772 0.0
H702 H 0.41496 0.57556 0.72405 0.0
H703 H 0.49206 0.62857 0.76318 0.0
H704 H 0.45388 0.50427 0.86217 0.0
H705 H 0.52326 0.51191 0.82175 0.0
H706 H 0.31894 0.59732 0.7495 0.0
H707 H 0.37993 0.62848 0.80278 0.0
H708 H 0.45749 0.46816 0.7093 0.0
H709 H 0.44544 0.46489 0.78467 0.0
H710 H 0.477 0.42453 0.71 0.0
H711 H 0.46527 0.42141 0.78405 0.0
H712 H 0.41264 0.48385 0.70333 0.0
H713 H 0.35935 0.54621 0.69443 0.0
H714 H 0.39893 0.46613 0.66179 0.0
H715 H 0.34645 0.52737 0.65297 0.0
H716 H 0.3108 0.4539 0.72802 0.0
H717 H 0.37442 0.40076 0.73091 0.0
H718 H 0.51638 0.51468 0.68852 0.0
H719 H 0.45454 0.55109 0.64771 0.0
Li720 Li 0.78693 0.3982 0.50378 0.0
Li721 Li 0.77119 0.36322 0.52997 0.0
Li722 Li 0.76132 0.36023 0.48608 0.0
Li723 Li 0.73914 0.39413 0.51204 0.0
C724 C 0.80914 0.34079 0.49397 0.0
N725 N 0.83353 0.29918 0.47221 0.0
C726 C 0.81183 0.31743 0.50556 0.0
C727 C 0.81909 0.34305 0.47138 0.0
C728 C 0.82415 0.2966 0.49424 0.0
C729 C 0.83131 0.32179 0.46067 0.0
C730 C 0.77904 0.41606 0.5556 0.0
C731 C 0.77075 0.43846 0.59345 0.0
N732 N 0.7972 0.44438 0.59778 0.0
C733 C 0.80613 0.42246 0.56039 0.0
C734 C 0.76117 0.4242 0.57221 0.0
C735 C 0.81492 0.43675 0.58183 0.0
C736 C 0.81208 0.44979 0.50429 0.0
N737 N 0.81546 0.42364 0.49987 0.0
C738 C 0.85977 0.43287 0.48914 0.0
C739 C 0.83877 0.41496 0.49257 0.0
C740 C 0.8568 0.45993 0.4935 0.0
C741 C 0.83266 0.46842 0.5012 0.0
H742 H 0.7934 0.45615 0.51024 0.0
H743 H 0.84111 0.39411 0.48949 0.0
C744 C 0.76687 0.31929 0.55906 0.0
N745 N 0.77916 0.34355 0.55785 0.0
C746 C 0.77199 0.30454 0.57899 0.0
C747 C 0.80287 0.33959 0.59591 0.0
C748 C 0.79714 0.35367 0.57566 0.0
C749 C 0.79013 0.31478 0.59771 0.0
H750 H 0.75319 0.31125 0.54445 0.0
H751 H 0.80723 0.37257 0.57414 0.0
C752 C 0.76276 0.41782 0.4667 0.0
N753 N 0.78001 0.45908 0.44073 0.0
C754 C 0.75123 0.44211 0.46897 0.0
C755 C 0.78279 0.4144 0.45092 0.0
C756 C 0.76027 0.46275 0.45575 0.0
C757 C 0.79134 0.43553 0.43805 0.0
C758 C 0.717 0.34585 0.52619 0.0
C759 C 0.69876 0.32523 0.51796 0.0
C760 C 0.71573 0.35781 0.54925 0.0
C761 C 0.67941 0.31696 0.53298 0.0
C762 C 0.69609 0.34897 0.56371 0.0
N763 N 0.67849 0.3289 0.55534 0.0
C764 C 0.7589 0.30912 0.46172 0.0
C765 C 0.75524 0.34411 0.43586 0.0
C766 C 0.75965 0.29087 0.44202 0.0
N767 N 0.75735 0.33527 0.45836 0.0
C768 C 0.75551 0.32649 0.41564 0.0
C769 C 0.75817 0.29956 0.41863 0.0
H770 H 0.76043 0.30254 0.47978 0.0
H771 H 0.75385 0.36491 0.43358 0.0
C772 C 0.71381 0.44031 0.52553 0.0
N773 N 0.70872 0.41429 0.51888 0.0
C774 C 0.69332 0.45625 0.53183 0.0
C775 C 0.66259 0.41828 0.52497 0.0
C776 C 0.68361 0.40318 0.51825 0.0
C777 C 0.66733 0.44522 0.53181 0.0
H778 H 0.73393 0.44869 0.52609 0.0
H779 H 0.67985 0.38253 0.51279 0.0
O780 O 0.79694 0.36133 0.50473 0.0
O781 O 0.76997 0.40245 0.53452 0.0
O782 O 0.7547 0.3976 0.48004 0.0
O783 O 0.73615 0.35403 0.51175 0.0
H784 H 0.80443 0.31533 0.52307 0.0
H785 H 0.81716 0.3609 0.46208 0.0
H786 H 0.82624 0.27837 0.50297 0.0
H787 H 0.839 0.32325 0.44317 0.0
H788 H 0.75715 0.44485 0.60647 0.0
H789 H 0.82027 0.41618 0.54783 0.0
H790 H 0.74011 0.41964 0.56874 0.0
H791 H 0.83584 0.44174 0.58581 0.0
H792 H 0.87825 0.42573 0.48334 0.0
H793 H 0.82984 0.48919 0.50485 0.0
H794 H 0.76198 0.28534 0.5798 0.0
H795 H 0.81713 0.34792 0.61 0.0
H796 H 0.7355 0.44505 0.48085 0.0
H797 H 0.79195 0.39576 0.44892 0.0
H798 H 0.75161 0.4817 0.45745 0.0
H799 H 0.80704 0.43323 0.426 0.0
H800 H 0.69959 0.31572 0.50017 0.0
H801 H 0.72983 0.37363 0.55593 0.0
H802 H 0.66515 0.30103 0.52685 0.0
H803 H 0.69488 0.35803 0.5816 0.0
H804 H 0.76167 0.27022 0.44497 0.0
H805 H 0.7542 0.33383 0.39784 0.0
H806 H 0.69775 0.47693 0.537 0.0
H807 H 0.6428 0.40909 0.52475 0.0
Li808 Li 0.65427 0.97872 0.763 0.0
Li809 Li 0.62298 0.00766 0.77834 0.0
Li810 Li 0.62089 0.99881 0.73414 0.0
Li811 Li 0.65821 0.02647 0.75682 0.0
C812 C 0.61219 0.94698 0.75847 0.0
N813 N 0.61017 0.89259 0.75615 0.0
C814 C 0.61479 0.93364 0.77955 0.0
C815 C 0.60839 0.93271 0.73623 0.0
C816 C 0.6138 0.90612 0.77799 0.0
C817 C 0.60742 0.9052 0.73543 0.0
C818 C 0.66343 0.01676 0.81091 0.0
C819 C 0.67472 0.05018 0.84298 0.0
N820 N 0.66607 0.03334 0.85911 0.0
C821 C 0.65472 0.99975 0.82784 0.0
C822 C 0.67355 0.04217 0.81853 0.0
C823 C 0.65617 0.00852 0.85211 0.0
C824 C 0.68646 0.94713 0.79172 0.0
N825 N 0.67472 0.94821 0.76919 0.0
C826 C 0.6936 0.90772 0.75672 0.0
C827 C 0.67798 0.929 0.75173 0.0
C828 C 0.70587 0.90627 0.77988 0.0
C829 C 0.70197 0.9262 0.79752 0.0
H830 H 0.6842 0.96276 0.80519 0.0
H831 H 0.66874 0.93035 0.73386 0.0
C832 C 0.57999 0.99477 0.80633 0.0
N833 N 0.59985 0.01338 0.80435 0.0
C834 C 0.56311 0.99708 0.82508 0.0
C835 C 0.58711 0.03786 0.83937 0.0
C836 C 0.60335 0.0349 0.82023 0.0
C837 C 0.56683 0.01871 0.84195 0.0
H838 H 0.57737 0.97796 0.79344 0.0
H839 H 0.61903 0.0496 0.81835 0.0
C840 C 0.68235 1.00284 0.72161 0.0
N841 N 0.72814 0.01959 0.7015 0.0
C842 C 0.68108 0.01962 0.70274 0.0
C843 C 0.7069 0.99459 0.73027 0.0
C844 C 0.70446 0.02789 0.69282 0.0
C845 C 0.72982 1.00326 0.71983 0.0
C846 C 0.60685 0.05312 0.76331 0.0
C847 C 0.57916 0.05109 0.76234 0.0
C848 C 0.62051 0.07491 0.77573 0.0
C849 C 0.56559 0.07087 0.77389 0.0
C850 C 0.60623 0.09434 0.78695 0.0
N851 N 0.5793 0.09192 0.78583 0.0
C852 C 0.57163 0.99758 0.70661 0.0
C853 C 0.60836 0.99283 0.6829 0.0
C854 C 0.55444 0.99813 0.68597 0.0
N855 N 0.59811 0.99545 0.70478 0.0
C856 C 0.59183 0.99304 0.66175 0.0
C857 C 0.56456 0.99611 0.66319 0.0
H858 H 0.56387 0.99922 0.72415 0.0
H859 H 0.62942 0.99095 0.68183 0.0
C860 C 0.70828 0.05516 0.76333 0.0
N861 N 0.6832 0.05536 0.75299 0.0
C862 C 0.72694 0.07565 0.76015 0.0
C863 C 0.6937 0.09603 0.73556 0.0
C864 C 0.67572 0.07513 0.73914 0.0
C865 C 0.7196 0.09638 0.74617 0.0
H866 H 0.71382 0.039 0.77396 0.0
H867 H 0.65577 0.07457 0.73081 0.0
O868 O 0.61402 0.97389 0.75959 0.0
O869 O 0.6622 0.00856 0.78704 0.0
O870 O 0.6598 0.99522 0.7321 0.0
O871 O 0.62051 0.03372 0.75244 0.0
H872 H 0.61787 0.94444 0.7969 0.0
H873 H 0.60646 0.94278 0.71975 0.0
H874 H 0.616 0.89551 0.79413 0.0
H875 H 0.60461 0.89388 0.71834 0.0
H876 H 0.68242 0.06982 0.8491 0.0
H877 H 0.64644 0.98015 0.82226 0.0
H878 H 0.68018 0.05569 0.80572 0.0
H879 H 0.64929 0.99565 0.86536 0.0
H880 H 0.69635 0.89275 0.74262 0.0
H881 H 0.71131 0.92582 0.8155 0.0
H882 H 0.54757 0.98199 0.82663 0.0
H883 H 0.59043 0.05479 0.85212 0.0
H884 H 0.66229 0.02657 0.69613 0.0
H885 H 0.70827 0.98186 0.74505 0.0
H886 H 0.7038 0.04102 0.67833 0.0
H887 H 0.74896 0.9971 0.72639 0.0
H888 H 0.56824 0.03427 0.75308 0.0
H889 H 0.64192 0.07663 0.77712 0.0
H890 H 0.54418 0.06945 0.77342 0.0
H891 H 0.61657 0.11124 0.79671 0.0
H892 H 0.53349 1.00033 0.68774 0.0
H893 H 0.60027 0.99124 0.64445 0.0
H894 H 0.74685 0.07534 0.76846 0.0
H895 H 0.68755 0.11171 0.72456 0.0
Li896 Li 0.05075 0.26159 0.8632 0.0
Li897 Li 0.0232 0.27997 0.89712 0.0
Li898 Li 0.03366 0.2338 0.89369 0.0
Li899 Li 1.00288 0.2498 0.86439 0.0
C900 C 0.07514 0.2582 0.91773 0.0
N901 N 0.10618 0.24205 0.95605 0.0
C902 C 0.06971 0.26583 0.94128 0.0
C903 C 0.09652 0.24261 0.91365 0.0
C904 C 0.08561 0.25741 0.96042 0.0
C905 C 0.11191 0.23456 0.93327 0.0
C906 C 1.00125 0.29732 0.849 0.0
C907 C 0.95928 0.31765 0.8464 0.0
N908 N 0.96094 0.31889 0.82229 0.0
C909 C 1.00262 0.29885 0.82423 0.0
C910 C 0.97949 0.30685 0.86023 0.0
C911 C 0.98201 0.30981 0.81103 0.0
C912 C 0.07386 0.26386 0.81844 0.0
N913 N 0.07843 0.26962 0.84252 0.0
C914 C 0.12238 0.28671 0.83701 0.0
C915 C 0.10211 0.28081 0.852 0.0
C916 C 0.11816 0.28099 0.81211 0.0
C917 C 0.09358 0.26943 0.80279 0.0
H918 H 0.05486 0.25489 0.8114 0.0
H919 H 0.10523 0.28514 0.87121 0.0
C920 C 1.00295 0.30835 0.93669 0.0
N921 N 0.01901 0.31023 0.91823 0.0
C922 C 1.00015 0.33022 0.95255 0.0
C923 C 0.03047 0.35554 0.93012 0.0
C924 C 0.0326 0.33322 0.91463 0.0
C925 C 0.01415 0.3541 0.94938 0.0
H926 H 0.99253 0.28979 0.93922 0.0
H927 H 0.04527 0.33411 0.89982 0.0
C928 C 0.04308 0.20507 0.8485 0.0
N929 N 0.06554 0.1614 0.8283 0.0
C930 C 0.02694 0.18384 0.83791 0.0
C931 C 0.07064 0.20422 0.84857 0.0
C932 C 0.03868 0.16189 0.82788 0.0
C933 C 0.08161 0.18194 0.83832 0.0
C934 C 0.98034 0.22914 0.90351 0.0
C935 C 0.98068 0.20443 0.8912 0.0
C936 C 0.96111 0.23367 0.91987 0.0
C937 C 0.96178 0.18465 0.89547 0.0
C938 C 0.94251 0.21338 0.92363 0.0
N939 N 0.94323 0.18949 0.91146 0.0
C940 C 0.03343 0.20877 0.93724 0.0
C941 C 0.0533 0.18317 0.90725 0.0
C942 C 0.03825 0.18993 0.95395 0.0
N943 N 0.04109 0.20526 0.9144 0.0
C944 C 0.05839 0.16374 0.92336 0.0
C945 C 0.05091 0.16714 0.94702 0.0
H946 H 0.02375 0.22643 0.94258 0.0
H947 H 0.05931 0.18054 0.88918 0.0
C948 C 0.97524 0.23587 0.81956 0.0
N949 N 0.97164 0.24225 0.84307 0.0
C950 C 0.95342 0.23087 0.80291 0.0
C951 C 0.92452 0.23857 0.83505 0.0
C952 C 0.9469 0.24391 0.851 0.0
C953 C 0.92768 0.23203 0.81067 0.0
H954 H 0.99513 0.23495 0.8137 0.0
H955 H 0.9445 0.24954 0.86966 0.0
O956 O 0.05932 0.26562 0.89881 0.0
O957 O 0.02069 0.2858 0.86213 0.0
O958 O 0.03185 0.22689 0.85796 0.0
O959 O 0.9987 0.24886 0.89969 0.0
H960 H 0.0532 0.27784 0.94475 0.0
H961 H 0.10106 0.23663 0.89555 0.0
H962 H 0.08152 0.263 0.97874 0.0
H963 H 0.1284 0.22231 0.9304 0.0
H964 H 0.94223 0.32496 0.85481 0.0
H965 H 0.01928 0.29141 0.81528 0.0
H966 H 0.97804 0.30556 0.87937 0.0
H967 H 0.98271 0.31103 0.79182 0.0
H968 H 0.14116 0.29564 0.84472 0.0
H969 H 0.08974 0.2648 0.78366 0.0
H970 H 0.98746 0.32848 0.9673 0.0
H971 H 0.04157 0.37369 0.92725 0.0
H972 H 1.00557 0.18435 0.83737 0.0
H973 H 0.08343 0.22049 0.85656 0.0
H974 H 0.02643 0.14528 0.8197 0.0
H975 H 0.1029 0.18098 0.83834 0.0
H976 H 0.99541 0.20049 0.87856 0.0
H977 H 0.96047 0.25268 0.92952 0.0
H978 H 0.96186 0.16543 0.88607 0.0
H979 H 0.9275 0.21663 0.93623 0.0
H980 H 0.0323 0.19314 0.97211 0.0
H981 H 0.06828 0.14635 0.91751 0.0
H982 H 0.95655 0.22602 0.7842 0.0
H983 H 0.90492 0.23974 0.84159 0.0
Li984 Li 0.5503 0.75688 0.36225 0.0
Li985 Li 0.52421 0.77917 0.39454 0.0
Li986 Li 0.53259 0.73001 0.39233 0.0
Li987 Li 0.5028 0.74769 0.36321 0.0
C988 C 0.5844 0.77074 0.39928 0.0
N989 N 0.63625 0.79077 0.40007 0.0
C990 C 0.59054 0.79756 0.40496 0.0
C991 C 0.6047 0.75406 0.3943 0.0
C992 C 0.61686 0.80732 0.40523 0.0
C993 C 0.63076 0.76457 0.39468 0.0
C994 C 0.50918 0.79174 0.34004 0.0
C995 C 0.47744 0.81993 0.32246 0.0
N996 N 0.48141 0.80889 0.30028 0.0
C997 C 0.51309 0.78077 0.31709 0.0
C998 C 0.49133 0.81156 0.3428 0.0
C999 C 0.4988 0.78967 0.2972 0.0
C1000 C 0.58714 0.74465 0.32661 0.0
N1001 N 0.57865 0.76401 0.34167 0.0
C1002 C 0.60959 0.79552 0.3273 0.0
C1003 C 0.58922 0.78917 0.34203 0.0
C1004 C 0.61885 0.77588 0.31181 0.0
C1005 C 0.60739 0.75018 0.31145 0.0
H1006 H 0.57805 0.72496 0.32616 0.0
H1007 H 0.58174 0.80435 0.35373 0.0
C1008 C 0.51387 0.8066 0.43814 0.0
N1009 N 0.5208 0.80993 0.41537 0.0
C1010 C 0.51107 0.82846 0.45401 0.0
C1011 C 0.52336 0.8568 0.42295 0.0
C1012 C 0.52545 0.83439 0.40752 0.0
C1013 C 0.51603 0.85392 0.44649 0.0
H1014 H 0.51042 0.78692 0.44395 0.0
H1015 H 0.53109 0.83646 0.38937 0.0
C1016 C 0.53463 0.69602 0.35677 0.0
N1017 N 0.54348 0.64306 0.35891 0.0
C1018 C 0.5134 0.6772 0.35352 0.0
C1019 C 0.56038 0.68785 0.36091 0.0
C1020 C 0.51828 0.65053 0.35468 0.0
C1021 C 0.56444 0.66101 0.36202 0.0
C1022 C 0.47302 0.74326 0.40047 0.0
C1023 C 0.46095 0.7188 0.39217 0.0
C1024 C 0.45766 0.76271 0.41029 0.0
C1025 C 0.43369 0.71424 0.39369 0.0
C1026 C 0.43046 0.75736 0.41157 0.0
N1027 N 0.41914 0.73345 0.40328 0.0
C1028 C 0.56265 0.70392 0.42759 0.0
C1029 C 0.52164 0.6813 0.41474 0.0
C1030 C 0.56832 0.68482 0.44386 0.0
N1031 N 0.53964 0.70188 0.41337 0.0
C1032 C 0.52657 0.6617 0.43069 0.0
C1033 C 0.55011 0.66346 0.44552 0.0
H1034 H 0.5765 0.72059 0.42655 0.0
H1035 H 0.50338 0.68007 0.40356 0.0
C1036 C 0.46771 0.72455 0.32391 0.0
N1037 N 0.47017 0.74291 0.34282 0.0
C1038 C 0.44411 0.72128 0.30921 0.0
C1039 C 0.42635 0.75644 0.33317 0.0
C1040 C 0.45021 0.75904 0.34734 0.0
C1041 C 0.42312 0.73728 0.31396 0.0
H1042 H 0.48414 0.71261 0.32008 0.0
H1043 H 0.45287 0.7741 0.36191 0.0
O1044 O 0.55863 0.76095 0.3983 0.0
O1045 O 0.52231 0.78266 0.35976 0.0
O1046 O 0.53024 0.7223 0.35626 0.0
O1047 O 0.49964 0.74825 0.39882 0.0
H1048 H 0.57516 0.81077 0.40894 0.0
H1049 H 0.60039 0.73324 0.39003 0.0
H1050 H 0.62186 0.82806 0.40946 0.0
H1051 H 0.64662 0.75191 0.39066 0.0
H1052 H 0.46342 0.83513 0.32431 0.0
H1053 H 0.52674 0.76529 0.31471 0.0
H1054 H 0.48799 0.82012 0.36049 0.0
H1055 H 0.50146 0.78123 0.27934 0.0
H1056 H 0.61793 0.81558 0.32786 0.0
H1057 H 0.61401 0.73464 0.29955 0.0
H1058 H 0.50543 0.82555 0.47206 0.0
H1059 H 0.52744 0.87617 0.41662 0.0
H1060 H 0.49331 0.68305 0.35047 0.0
H1061 H 0.57704 0.70208 0.36347 0.0
H1062 H 0.50201 0.63579 0.35234 0.0
H1063 H 0.58425 0.65446 0.36539 0.0
H1064 H 0.47234 0.70374 0.38407 0.0
H1065 H 0.46652 0.78186 0.41657 0.0
H1066 H 0.42408 0.69548 0.38709 0.0
H1067 H 0.41834 0.77227 0.41903 0.0
H1068 H 0.58666 0.68675 0.45513 0.0
H1069 H 0.5121 0.64544 0.43159 0.0
H1070 H 0.44225 0.70652 0.2943 0.0
H1071 H 0.41058 0.76928 0.3371 0.0
Li1072 Li 0.02504 0.7887 0.6132 0.0
Li1073 Li 0.99936 0.77139 0.64653 0.0
Li1074 Li 0.04685 0.76245 0.64322 0.0
Li1075 Li 0.01221 0.74178 0.61402 0.0
C1076 C 0.0506 0.81666 0.65357 0.0
N1077 N 0.09014 0.85606 0.66296 0.0
C1078 C 0.04859 0.83607 0.67204 0.0
C1079 C 0.07272 0.81723 0.63989 0.0
C1080 C 0.06879 0.85584 0.67651 0.0
C1081 C 0.09249 0.83733 0.6449 0.0
C1082 C 0.97059 0.76634 0.59228 0.0
C1083 C 0.92943 0.74553 0.57449 0.0
N1084 N 0.9348 0.75496 0.55299 0.0
C1085 C 0.97555 0.77606 0.57005 0.0
C1086 C 0.94719 0.7512 0.59459 0.0
C1087 C 0.95726 0.77002 0.55039 0.0
C1088 C 0.04831 0.8147 0.57589 0.0
N1089 N 0.03103 0.81778 0.59333 0.0
C1090 C 0.02366 0.86171 0.58235 0.0
C1091 C 0.01869 0.84071 0.59681 0.0
C1092 C 0.0415 0.85898 0.56427 0.0
C1093 C 0.05383 0.83512 0.56107 0.0
H1094 H 0.05792 0.7964 0.57356 0.0
H1095 H 1.00511 0.8427 0.61087 0.0
C1096 C 0.9804 0.77359 0.69289 0.0
N1097 N 0.97322 0.77707 0.66944 0.0
C1098 C 0.96178 0.7753 0.71024 0.0
C1099 C 0.92873 0.78463 0.67913 0.0
C1100 C 0.94799 0.78263 0.66232 0.0
C1101 C 0.93559 0.78073 0.70336 0.0
H1102 H 1.00053 0.76894 0.69801 0.0
H1103 H 0.94273 0.7851 0.64354 0.0
C1104 C 0.0631 0.73808 0.60072 0.0
N1105 N 0.09353 0.69692 0.58689 0.0
C1106 C 0.06618 0.71687 0.61526 0.0
C1107 C 0.07538 0.73816 0.57904 0.0
C1108 C 0.08168 0.69632 0.60799 0.0
C1109 C 0.09071 0.71722 0.57239 0.0
C1110 C 1.00336 0.71963 0.66106 0.0
C1111 C 0.0165 0.70587 0.67871 0.0
C1112 C 0.97616 0.71462 0.65574 0.0
C1113 C 1.00212 0.68742 0.6909 0.0
C1114 C 0.96244 0.69611 0.66838 0.0
N1115 N 0.9756 0.683 0.68555 0.0
C1116 C 0.07729 0.75422 0.686 0.0
C1117 C 0.10304 0.75836 0.65238 0.0
C1118 C 0.09985 0.74951 0.7006 0.0
N1119 N 0.07919 0.75809 0.66229 0.0
C1120 C 0.12608 0.7536 0.66629 0.0
C1121 C 0.1245 0.74887 0.69062 0.0
H1122 H 0.05815 0.75451 0.6935 0.0
H1123 H 0.10417 0.76194 0.6336 0.0
C1124 C 0.99737 0.71031 0.57017 0.0
N1125 N 1.00313 0.70956 0.59428 0.0
C1126 C 0.99282 0.68696 0.55557 0.0
C1127 C 1.00143 0.6624 0.5906 0.0
C1128 C 1.00531 0.68615 0.60456 0.0
C1129 C 0.99509 0.66266 0.56581 0.0
H1130 H 0.99709 0.72897 0.56208 0.0
H1131 H 0.01103 0.6858 0.62348 0.0
O1132 O 0.03093 0.79723 0.64897 0.0
O1133 O 0.98821 0.77218 0.61178 0.0
O1134 O 0.04739 0.75813 0.60713 0.0
O1135 O 0.01712 0.73791 0.64909 0.0
H1136 H 0.03157 0.83586 0.6828 0.0
H1137 H 0.07463 0.80235 0.62554 0.0
H1138 H 0.06751 0.87101 0.69075 0.0
H1139 H 0.1097 0.83804 0.63444 0.0
H1140 H 0.91133 0.73371 0.57601 0.0
H1141 H 0.99345 0.78786 0.56785 0.0
H1142 H 0.94267 0.74395 0.6117 0.0
H1143 H 0.96096 0.77725 0.53305 0.0
H1144 H 0.01385 0.87992 0.58529 0.0
H1145 H 0.06772 0.8324 0.54731 0.0
H1146 H 0.96765 0.77215 0.7288 0.0
H1147 H 0.90864 0.7888 0.67329 0.0
H1148 H 0.05671 0.71615 0.63198 0.0
H1149 H 0.07298 0.75411 0.56732 0.0
H1150 H 0.08422 0.67986 0.61911 0.0
H1151 H 0.10031 0.71708 0.55566 0.0
H1152 H 0.03762 0.70925 0.68286 0.0
H1153 H 0.96578 0.72504 0.64211 0.0
H1154 H 0.01204 0.67661 0.70459 0.0
H1155 H 0.94134 0.69218 0.66454 0.0
H1156 H 0.09808 0.74606 0.71938 0.0
H1157 H 0.1449 0.75339 0.65816 0.0
H1158 H 0.98836 0.68782 0.53642 0.0
H1159 H 1.00372 0.64396 0.599 0.0
Li1160 Li 0.5245 0.28865 0.1125 0.0
Li1161 Li 0.49755 0.27125 0.14549 0.0
Li1162 Li 0.54539 0.26159 0.1427 0.0
Li1163 Li 0.51168 0.24241 0.11293 0.0
C1164 C 0.54964 0.31558 0.15431 0.0
N1165 N 0.5898 0.35382 0.16632 0.0
C1166 C 0.54814 0.3332 0.17428 0.0
C1167 C 0.57158 0.31735 0.14045 0.0
C1168 C 0.56865 0.35241 0.18006 0.0
C1169 C 0.59167 0.33684 0.14681 0.0
C1170 C 0.4705 0.26199 0.09207 0.0
C1171 C 0.43245 0.23364 0.07761 0.0
N1172 N 0.43725 0.23877 0.05464 0.0
C1173 C 0.47496 0.26713 0.06835 0.0
C1174 C 0.44899 0.24527 0.0968 0.0
C1175 C 0.45794 0.25515 0.04966 0.0
C1176 C 0.54401 0.31235 0.07245 0.0
N1177 N 0.53078 0.31742 0.09248 0.0
C1178 C 0.52844 0.36276 0.08373 0.0
C1179 C 0.52285 0.34201 0.0983 0.0
C1180 C 0.54249 0.35809 0.06317 0.0
C1181 C 0.55019 0.3325 0.05753 0.0
H1182 H 0.54987 0.29261 0.06812 0.0
H1183 H 0.51239 0.34553 0.11435 0.0
C1184 C 0.47844 0.27353 0.1916 0.0
N1185 N 0.4714 0.27743 0.16821 0.0
C1186 C 0.45984 0.27548 0.20895 0.0
C1187 C 0.42714 0.28591 0.17796 0.0
C1188 C 0.44637 0.28368 0.16114 0.0
C1189 C 0.43384 0.28157 0.20212 0.0
H1190 H 0.4984 0.26833 0.19666 0.0
H1191 H 0.44123 0.28644 0.1424 0.0
C1192 C 0.56458 0.23983 0.10126 0.0
N1193 N 0.59987 0.20217 0.08973 0.0
C1194 C 0.56301 0.21533 0.11121 0.0
C1195 C 0.58415 0.24518 0.08547 0.0
C1196 C 0.581 0.19655 0.10514 0.0
C1197 C 0.60181 0.22589 0.07987 0.0
C1198 C 0.50451 0.2159 0.15766 0.0
C1199 C 0.52131 0.1972 0.16641 0.0
C1200 C 0.47719 0.21249 0.15973 0.0
C1201 C 0.51046 0.17524 0.17682 0.0
C1202 C 0.46712 0.19029 0.1703 0.0
N1203 N 0.48383 0.17227 0.17854 0.0
C1204 C 0.57415 0.24891 0.18503 0.0
C1205 C 0.60131 0.25852 0.15337 0.0
C1206 C 0.59637 0.24361 0.19983 0.0
N1207 N 0.57697 0.25596 0.1622 0.0
C1208 C 0.62403 0.25323 0.16749 0.0
C1209 C 0.62159 0.24557 0.19095 0.0
H1210 H 0.55459 0.24718 0.19165 0.0
H1211 H 0.60314 0.26455 0.13532 0.0
C1212 C 0.50997 0.21281 0.06848 0.0
N1213 N 0.5019 0.21177 0.09119 0.0
C1214 C 0.5043 0.19156 0.05156 0.0
C1215 C 0.48194 0.16843 0.08154 0.0
C1216 C 0.48797 0.19017 0.09787 0.0
C1217 C 0.49025 0.16904 0.05815 0.0
H1218 H 0.52087 0.23022 0.0635 0.0
H1219 H 0.48147 0.18966 0.11578 0.0
O1220 O 0.52976 0.29662 0.14849 0.0
O1221 O 0.4875 0.27279 0.11052 0.0
O1222 O 0.54724 0.25864 0.10699 0.0
O1223 O 0.5149 0.23784 0.14795 0.0
H1224 H 0.5313 0.33202 0.18521 0.0
H1225 H 0.57314 0.30383 0.12497 0.0
H1226 H 0.56776 0.36619 0.19547 0.0
H1227 H 0.60875 0.33845 0.13624 0.0
H1228 H 0.41585 0.22049 0.08097 0.0
H1229 H 0.49159 0.27996 0.0644 0.0
H1230 H 0.44529 0.24108 0.11505 0.0
H1231 H 0.46126 0.25879 0.0312 0.0
H1232 H 0.52219 0.38229 0.08856 0.0
H1233 H 0.56099 0.32821 0.04178 0.0
H1234 H 0.46557 0.27196 0.22746 0.0
H1235 H 0.40718 0.29058 0.17216 0.0
H1236 H 0.54803 0.21078 0.12338 0.0
H1237 H 0.58581 0.2641 0.07774 0.0
H1238 H 0.57995 0.1775 0.11268 0.0
H1239 H 0.61707 0.22979 0.0677 0.0
H1240 H 0.54253 0.19963 0.16522 0.0
H1241 H 0.46385 0.22665 0.15303 0.0
H1242 H 0.52324 0.16059 0.1836 0.0
H1243 H 0.44602 0.18738 0.17193 0.0
H1244 H 0.59392 0.23781 0.21792 0.0
H1245 H 0.64329 0.25505 0.16022 0.0
H1246 H 0.51095 0.19258 0.0336 0.0
H1247 H 0.47099 0.15129 0.08709 0.0
C1248 C 0.24185 0.74347 0.87108 0.0
C1249 C 0.26281 0.74694 0.85571 0.0
C1250 C 0.28379 0.78158 0.88438 0.0
C1251 C 0.261 0.78065 0.8979 0.0
N1252 N 0.21662 0.7629 0.90234 0.0
N1253 N 0.30225 0.77161 0.84614 0.0
C1254 C 0.23961 0.76205 0.89087 0.0
C1255 C 0.28351 0.76652 0.862 0.0
N1256 N 0.22434 0.72209 0.86697 0.0
N1257 N 0.30597 0.79639 0.89322 0.0
H1258 H 0.30283 0.76106 0.82961 0.0
H1259 H 0.31597 0.78766 0.84852 0.0
H1260 H 0.30699 0.8075 0.9096 0.0
H1261 H 0.32409 0.79573 0.88546 0.0
H1262 H 0.21023 0.717 0.87886 0.0
H1263 H 0.2256 0.70797 0.8528 0.0
H1264 H 0.19935 0.7518 0.89632 0.0
H1265 H 0.21403 0.77637 0.9167 0.0
C1266 C 0.04285 0.51158 0.40654 0.0
C1267 C 0.01931 0.52557 0.40531 0.0
C1268 C 0.02901 0.53923 0.36523 0.0
C1269 C 0.05121 0.52328 0.3656 0.0
N1270 N 0.07855 0.49268 0.38552 0.0
N1271 N 0.98808 0.55033 0.38281 0.0
C1272 C 0.05793 0.509 0.38598 0.0
C1273 C 0.01198 0.53898 0.38455 0.0
N1274 N 0.05138 0.50171 0.42776 0.0
N1275 N 0.02432 0.55474 0.34644 0.0
H1276 H 0.97513 0.55057 0.39656 0.0
H1277 H 0.98011 0.55784 0.36717 0.0
H1278 H 0.03565 0.55458 0.33151 0.0
H1279 H 0.01039 0.56907 0.34629 0.0
H1280 H 0.06976 0.49379 0.43075 0.0
H1281 H 0.04101 0.50343 0.44325 0.0
H1282 H 0.08248 0.47924 0.39843 0.0
H1283 H 0.09099 0.49135 0.3714 0.0
C1284 C 0.77616 0.75249 0.84986 0.0
C1285 C 0.79445 0.77456 0.8496 0.0
C1286 C 0.81336 0.76534 0.88979 0.0
C1287 C 0.79392 0.74438 0.8907 0.0
N1288 N 0.75444 0.72016 0.87328 0.0
N1289 N 0.82787 0.80451 0.87046 0.0
C1290 C 0.77464 0.73857 0.87118 0.0
C1291 C 0.81235 0.78168 0.86991 0.0
N1292 N 0.7608 0.74433 0.82943 0.0
N1293 N 0.83326 0.76917 0.90764 0.0
H1294 H 0.82786 0.81677 0.85618 0.0
H1295 H 0.83922 0.81241 0.88567 0.0
H1296 H 0.83437 0.75793 0.92263 0.0
H1297 H 0.84972 0.78209 0.90682 0.0
H1298 H 0.74927 0.72673 0.82746 0.0
H1299 H 0.76105 0.75424 0.81364 0.0
H1300 H 0.73809 0.71703 0.86093 0.0
H1301 H 0.75294 0.70926 0.88839 0.0
C1302 C 0.01777 0.01624 0.4095 0.0
C1303 C 0.03683 0.99674 0.40971 0.0
C1304 C 0.02251 0.98221 0.36786 0.0
C1305 C 1.00486 1.00297 0.36712 0.0
N1306 N 0.9878 0.04187 0.38587 0.0
N1307 N 0.06002 0.96335 0.38858 0.0
C1308 C 1.00306 0.02058 0.38759 0.0
C1309 C 0.03992 0.98028 0.38873 0.0
N1310 N 0.01328 0.03014 0.43044 0.0
N1311 N 0.02214 0.96398 0.3488 0.0
H1312 H 0.07283 0.96108 0.40363 0.0
H1313 H 0.06529 0.95293 0.37316 0.0
H1314 H 0.01006 0.96508 0.33306 0.0
H1315 H 0.0323 0.94673 0.34915 0.0
H1316 H 0.99771 0.04253 0.43218 0.0
H1317 H 0.02399 0.02783 0.44672 0.0
H1318 H 0.98791 0.0571 0.39919 0.0
H1319 H 0.97633 0.04538 0.37031 0.0
C1320 C 0.26061 0.25087 0.65826 0.0
C1321 C 0.25539 0.27788 0.65662 0.0
C1322 C 0.26077 0.27343 0.6132 0.0
C1323 C 0.26289 0.24584 0.61442 0.0
N1324 N 0.25923 0.20752 0.63762 0.0
N1325 N 0.24467 0.3133 0.63151 0.0
C1326 C 0.26121 0.23431 0.63683 0.0
C1327 C 0.2538 0.28873 0.63377 0.0
N1328 N 0.26602 0.2412 0.68022 0.0
N1329 N 0.26637 0.28526 0.5927 0.0
H1330 H 0.23846 0.32477 0.64596 0.0
H1331 H 0.24065 0.32112 0.61494 0.0
H1332 H 0.27229 0.27492 0.57745 0.0
H1333 H 0.26775 0.30564 0.59167 0.0
H1334 H 0.27263 0.22238 0.68232 0.0
H1335 H 0.26646 0.25279 0.69631 0.0
H1336 H 0.25526 0.19811 0.65313 0.0
H1337 H 0.25891 0.19468 0.62231 0.0
C1338 C 0.54301 0.55013 0.62462 0.0
C1339 C 0.5358 0.53281 0.60405 0.0
C1340 C 0.49851 0.51384 0.6246 0.0
C1341 C 0.50427 0.53283 0.64423 0.0
N1342 N 0.52969 0.57141 0.66167 0.0
N1343 N 0.50483 0.50049 0.58297 0.0
C1344 C 0.52594 0.55161 0.64391 0.0
C1345 C 0.51305 0.51525 0.60365 0.0
N1346 N 0.56658 0.56467 0.62599 0.0
N1347 N 0.47965 0.49398 0.62628 0.0
H1348 H 0.51516 0.50068 0.56743 0.0
H1349 H 0.48679 0.48959 0.58057 0.0
H1350 H 0.46848 0.49241 0.6412 0.0
H1351 H 0.4765 0.47789 0.61381 0.0
H1352 H 0.5744 0.5755 0.64148 0.0
H1353 H 0.57951 0.56418 0.61221 0.0
H1354 H 0.54324 0.5874 0.66113 0.0
H1355 H 0.51774 0.57304 0.67613 0.0
C1356 C 0.79243 0.29438 0.66237 0.0
C1357 C 0.80791 0.27195 0.66066 0.0
C1358 C 0.81253 0.27808 0.61782 0.0
C1359 C 0.7958 0.29959 0.61924 0.0
N1360 N 0.76616 0.32561 0.6415 0.0
N1361 N 0.83021 0.24029 0.63651 0.0
C1362 C 0.78475 0.30704 0.64117 0.0
C1363 C 0.81706 0.26305 0.63825 0.0
N1364 N 0.78516 0.3037 0.68433 0.0
N1365 N 0.82502 0.27278 0.59723 0.0
H1366 H 0.83536 0.22962 0.6513 0.0
H1367 H 0.83464 0.23102 0.62025 0.0
H1368 H 0.8221 0.28326 0.5819 0.0
H1369 H 0.83976 0.25937 0.5958 0.0
H1370 H 0.77677 0.32175 0.68729 0.0
H1371 H 0.7889 0.2941 0.70006 0.0
H1372 H 0.75514 0.32993 0.65617 0.0
H1373 H 0.76008 0.33531 0.62634 0.0
C1374 C 0.50843 0.97939 0.61442 0.0
C1375 C 0.51265 0.99975 0.59859 0.0
C1376 C 0.54878 0.01949 0.62664 0.0
C1377 C 0.5466 0.99742 0.64093 0.0
N1378 N 0.52708 0.95413 0.64615 0.0
N1379 N 0.53943 0.03714 0.58781 0.0
C1380 C 0.52711 0.97676 0.63422 0.0
C1381 C 0.53351 0.01931 0.60423 0.0
N1382 N 0.48612 0.96295 0.61089 0.0
N1383 N 0.56478 0.04103 0.63485 0.0
H1384 H 0.52874 0.03768 0.57125 0.0
H1385 H 0.55624 0.04996 0.58974 0.0
H1386 H 0.57604 0.04206 0.65124 0.0
H1387 H 0.56506 0.05876 0.6265 0.0
H1388 H 0.48055 0.9495 0.62318 0.0
H1389 H 0.4718 0.9645 0.59681 0.0
H1390 H 0.51523 0.9373 0.64045 0.0
H1391 H 0.54065 0.95125 0.66051 0.0
C1392 C 0.87836 0.19643 0.76327 0.0
C1393 C 0.85911 0.21554 0.76046 0.0
C1394 C 0.88655 0.24656 0.7883 0.0
C1395 C 0.90409 0.22639 0.79328 0.0
N1396 N 0.91364 0.18044 0.78892 0.0
N1397 N 0.84241 0.25709 0.7739 0.0
C1398 C 0.89915 0.20082 0.78171 0.0
C1399 C 0.86251 0.24017 0.77399 0.0
N1400 N 0.87737 0.17449 0.74778 0.0
N1401 N 0.89325 0.27203 0.79651 0.0
H1402 H 0.82428 0.25293 0.76408 0.0
H1403 H 0.84277 0.27406 0.78536 0.0
H1404 H 0.91095 0.27764 0.80659 0.0
H1405 H 0.88251 0.2879 0.79136 0.0
H1406 H 0.89241 0.16129 0.74746 0.0
H1407 H 0.86284 0.17082 0.73368 0.0
H1408 H 0.90906 0.16089 0.78282 0.0
H1409 H 0.92863 0.18265 0.80274 0.0
C1410 C 0.52769 0.90216 0.50178 0.0
C1411 C 0.51057 0.92233 0.49564 0.0
C1412 C 0.49479 0.8961 0.45863 0.0
C1413 C 0.51409 0.8775 0.46344 0.0
N1414 N 0.55288 0.86607 0.48724 0.0
N1415 N 0.48307 0.9413 0.46487 0.0
C1416 C 0.5317 0.88144 0.48436 0.0
C1417 C 0.49545 0.92009 0.47317 0.0
N1418 N 0.53942 0.90213 0.52454 0.0
N1419 N 0.47539 0.89064 0.44056 0.0
H1420 H 0.48468 0.95985 0.47397 0.0
H1421 H 0.47388 0.9413 0.44761 0.0
H1422 H 0.47392 0.87309 0.42977 0.0
H1423 H 0.45931 0.90236 0.43789 0.0
H1424 H 0.54984 0.88643 0.53062 0.0
H1425 H 0.53652 0.91645 0.53813 0.0
H1426 H 0.56786 0.86988 0.50091 0.0
H1427 H 0.55696 0.85112 0.47463 0.0
C1428 C 0.16653 0.32028 0.77655 0.0
C1429 C 0.18163 0.29994 0.76685 0.0
C1430 C 0.15535 0.26708 0.78712 0.0
C1431 C 0.13949 0.2873 0.79584 0.0
N1432 N 0.12681 0.33223 0.79578 0.0
N1433 N 0.1892 0.25368 0.76079 0.0
C1434 C 0.14421 0.31367 0.78968 0.0
C1435 C 0.17551 0.27321 0.77134 0.0
N1436 N 0.17373 0.34604 0.77345 0.0
N1437 N 0.1519 0.24225 0.79486 0.0
H1438 H 0.20549 0.25735 0.7508 0.0
H1439 H 0.18365 0.23372 0.76081 0.0
H1440 H 0.13721 0.23698 0.80617 0.0
H1441 H 0.16461 0.22723 0.79153 0.0
H1442 H 0.16577 0.36192 0.78252 0.0
H1443 H 0.18889 0.3517 0.76277 0.0
H1444 H 0.12732 0.35111 0.78964 0.0
H1445 H 0.11037 0.32814 0.8055 0.0
C1446 C 0.56897 0.59864 0.47126 0.0
C1447 C 0.56813 0.60505 0.49632 0.0
C1448 C 0.55217 0.64847 0.4877 0.0
C1449 C 0.55568 0.64305 0.46292 0.0
N1450 N 0.57078 0.61444 0.43127 0.0
N1451 N 0.56376 0.63792 0.52864 0.0
C1452 C 0.56499 0.6185 0.45473 0.0
C1453 C 0.56085 0.63042 0.50465 0.0
N1454 N 0.5726 0.57327 0.46318 0.0
N1455 N 0.54013 0.67072 0.495 0.0
H1456 H 0.571 0.62574 0.54158 0.0
H1457 H 0.56148 0.65709 0.5355 0.0
H1458 H 0.53378 0.68453 0.48316 0.0
H1459 H 0.53436 0.67433 0.5124 0.0
H1460 H 0.57058 0.56672 0.44509 0.0
H1461 H 0.57525 0.55806 0.47464 0.0
H1462 H 0.58051 0.59821 0.42483 0.0
H1463 H 0.56777 0.62835 0.41855 0.0
C1464 C 0.885 0.75888 0.74694 0.0
C1465 C 0.87845 0.78356 0.7576 0.0
C1466 C 0.90996 0.80643 0.73311 0.0
C1467 C 0.91534 0.78186 0.72156 0.0
N1468 N 0.90587 0.73507 0.71488 0.0
N1469 N 0.88345 0.83107 0.76035 0.0
C1470 C 0.90228 0.75817 0.7278 0.0
C1471 C 0.89045 0.80743 0.7504 0.0
N1472 N 0.87484 0.73606 0.7553 0.0
N1473 N 0.92435 0.82869 0.72817 0.0
H1474 H 0.87148 0.83272 0.77477 0.0
H1475 H 0.88861 0.84918 0.75381 0.0
H1476 H 0.93832 0.82879 0.71527 0.0
H1477 H 0.92379 0.84682 0.73773 0.0
H1478 H 0.88121 0.71749 0.75048 0.0
H1479 H 0.86097 0.73566 0.76828 0.0
H1480 H 0.89484 0.71756 0.71656 0.0
H1481 H 0.9187 0.73372 0.70105 0.0
C1482 C 0.04826 0.89736 0.50832 0.0
C1483 C 0.0632 0.92045 0.51796 0.0
C1484 C 0.06448 0.90294 0.55807 0.0
C1485 C 0.04769 0.881 0.54875 0.0
N1486 N 0.01911 0.86004 0.51612 0.0
N1487 N 0.08108 0.94755 0.55284 0.0
C1488 C 0.03813 0.87912 0.52421 0.0
C1489 C 0.07003 0.9239 0.5431 0.0
N1490 N 0.04524 0.89181 0.48401 0.0
N1491 N 0.07597 0.90333 0.58094 0.0
H1492 H 0.08509 0.96355 0.5426 0.0
H1493 H 0.08393 0.95217 0.57128 0.0
H1494 H 0.07233 0.88847 0.59253 0.0
H1495 H 0.09078 0.91725 0.58777 0.0
H1496 H 0.03688 0.87397 0.47614 0.0
H1497 H 0.05361 0.90371 0.47169 0.0
H1498 H 0.00937 0.85939 0.49906 0.0
H1499 H 0.01128 0.84633 0.52724 0.0
C1500 C 0.17918 0.71037 0.72013 0.0
C1501 C 0.1944 0.73094 0.73386 0.0
C1502 C 0.16473 0.76355 0.71794 0.0
C1503 C 0.14861 0.74276 0.70553 0.0
N1504 N 0.13843 0.69638 0.69629 0.0
N1505 N 0.20209 0.77706 0.74636 0.0
C1506 C 0.15533 0.71616 0.70698 0.0
C1507 C 0.18721 0.75753 0.73298 0.0
N1508 N 0.18766 0.68527 0.71956 0.0
N1509 N 0.1589 0.7891 0.7147 0.0
H1510 H 0.2202 0.77399 0.75546 0.0
H1511 H 0.1963 0.79625 0.74915 0.0
H1512 H 0.14223 0.79416 0.70437 0.0
H1513 H 0.17115 0.80541 0.72101 0.0
H1514 H 0.17942 0.66996 0.70777 0.0
H1515 H 0.20413 0.67986 0.72996 0.0
H1516 H 0.14034 0.6765 0.69888 0.0
H1517 H 0.12123 0.69986 0.68589 0.0
C1518 C 0.00957 0.60475 0.52264 0.0
C1519 C 0.9852 0.58949 0.52194 0.0
C1520 C 0.97053 0.61915 0.55389 0.0
C1521 C 0.99195 0.63737 0.55074 0.0
N1522 N 0.03364 0.64662 0.53336 0.0
N1523 N 0.9588 0.57283 0.55258 0.0
C1524 C 0.01208 0.6299 0.5355 0.0
C1525 C 0.96978 0.59375 0.54197 0.0
N1526 N 0.03146 0.59337 0.51465 0.0
N1527 N 0.95068 0.62594 0.56803 0.0
H1528 H 0.96316 0.55353 0.54752 0.0
H1529 H 0.94925 0.57486 0.56851 0.0
H1530 H 0.95013 0.64453 0.57689 0.0
H1531 H 0.93372 0.61367 0.56913 0.0
H1532 H 0.05044 0.60247 0.51665 0.0
H1533 H 0.03106 0.57337 0.50919 0.0
H1534 H 0.04715 0.64346 0.52035 0.0
H1535 H 0.0373 0.66433 0.54373 0.0
C1536 C 0.78028 0.88097 0.20177 0.0
C1537 C 0.78519 0.85725 0.21296 0.0
C1538 C 0.82352 0.8793 0.23672 0.0
C1539 C 0.8199 0.90235 0.22409 0.0
N1540 N 0.79716 0.92439 0.1925 0.0
N1541 N 0.81321 0.83243 0.23865 0.0
C1542 C 0.79887 0.903 0.20604 0.0
C1543 C 0.80729 0.85604 0.22981 0.0
N1544 N 0.75747 0.88261 0.18752 0.0
N1545 N 0.84203 0.8799 0.25574 0.0
H1546 H 0.80158 0.81508 0.23429 0.0
H1547 H 0.83066 0.82952 0.24884 0.0
H1548 H 0.85451 0.89645 0.26111 0.0
H1549 H 0.84372 0.86479 0.26739 0.0
H1550 H 0.75121 0.90011 0.18095 0.0
H1551 H 0.74362 0.86678 0.18371 0.0
H1552 H 0.78418 0.92495 0.17731 0.0
H1553 H 0.81013 0.94104 0.19536 0.0
C1554 C 0.81246 0.18154 0.27782 0.0
C1555 C 0.79646 0.17814 0.29747 0.0
C1556 C 0.81827 0.13722 0.30545 0.0
C1557 C 0.83154 0.13885 0.28392 0.0
N1558 N 0.83731 0.16042 0.2472 0.0
N1559 N 0.78078 0.15001 0.32738 0.0
C1560 C 0.82759 0.16047 0.26944 0.0
C1561 C 0.79848 0.15524 0.31064 0.0
N1562 N 0.81385 0.20521 0.26758 0.0
N1563 N 0.82514 0.119 0.32138 0.0
H1564 H 0.7656 0.1623 0.33136 0.0
H1565 H 0.77959 0.13225 0.33566 0.0
H1566 H 0.83996 0.10588 0.31855 0.0
H1567 H 0.81804 0.11868 0.33845 0.0
H1568 H 0.82719 0.20966 0.2548 0.0
H1569 H 0.80363 0.22134 0.2736 0.0
H1570 H 0.83265 0.17431 0.23488 0.0
H1571 H 0.84793 0.14511 0.2401 0.0
C1572 C 0.39735 0.01617 0.96629 0.0
C1573 C 0.42094 0.01786 0.98167 0.0
C1574 C 0.40173 0.98443 0.00625 0.0
C1575 C 0.37919 0.981 0.98961 0.0
N1576 N 0.35729 0.99039 0.95167 0.0
N1577 N 0.44755 1.00069 0.01391 0.0
C1578 C 0.37747 0.996 0.96902 0.0
C1579 C 0.42368 1.00116 1.00101 0.0
N1580 N 0.39357 0.03439 0.9496 0.0
N1581 N 0.4018 0.97235 0.02743 0.0
H1582 H 0.46411 0.0126 0.01059 0.0
H1583 H 0.45165 0.98693 0.0265 0.0
H1584 H 0.38606 0.96001 0.03194 0.0
H1585 H 0.41637 0.97631 0.04142 0.0
H1586 H 0.37563 0.03597 0.93968 0.0
H1587 H 0.40764 0.04946 0.94707 0.0
H1588 H 0.35655 0.99862 0.93505 0.0
H1589 H 0.34235 0.97579 0.95301 0.0
C1590 C 0.22968 0.33894 0.29104 0.0
C1591 C 0.25689 0.34538 0.29786 0.0
C1592 C 0.25025 0.39178 0.29071 0.0
C1593 C 0.22262 0.3858 0.28598 0.0
N1594 N 0.18525 0.35445 0.28571 0.0
N1595 N 0.29183 0.3787 0.30909 0.0
C1596 C 0.21209 0.35956 0.28729 0.0
C1597 C 0.26679 0.37206 0.29914 0.0
N1598 N 0.22081 0.31312 0.28728 0.0
N1599 N 0.2609 0.41607 0.28629 0.0
H1600 H 0.30439 0.36489 0.31584 0.0
H1601 H 0.29917 0.39811 0.3128 0.0
H1602 H 0.24958 0.43092 0.27968 0.0
H1603 H 0.28123 0.42065 0.28695 0.0
H1604 H 0.20193 0.30717 0.27973 0.0
H1605 H 0.23302 0.29752 0.28988 0.0
H1606 H 0.17631 0.33632 0.28911 0.0
H1607 H 0.17178 0.36899 0.283 0.0
C1608 C 0.11377 0.05145 0.47678 0.0
C1609 C 0.11649 0.02654 0.46457 0.0
C1610 C 0.16387 0.03759 0.46107 0.0
C1611 C 0.16142 0.06192 0.47436 0.0
N1612 N 0.13529 0.0911 0.49737 0.0
N1613 N 0.1442 0.99426 0.44746 0.0
C1614 C 0.13669 0.06858 0.48294 0.0
C1615 C 0.14161 0.01914 0.45741 0.0
N1616 N 0.08911 0.05893 0.48197 0.0
N1617 N 0.18735 0.03247 0.45143 0.0
H1618 H 0.1282 0.98056 0.44376 0.0
H1619 H 0.16233 0.98647 0.44428 0.0
H1620 H 0.20429 0.04511 0.45439 0.0
H1621 H 0.18977 0.0166 0.43929 0.0
H1622 H 0.08516 0.07788 0.48829 0.0
H1623 H 0.07204 0.04655 0.47858 0.0
H1624 H 0.11871 0.09577 0.50648 0.0
H1625 H 0.15143 0.10452 0.5016 0.0
C1626 C 0.77774 0.13566 0.72296 0.0
C1627 C 0.77564 0.1606 0.73531 0.0
C1628 C 0.73835 0.14272 0.75637 0.0
C1629 C 0.73907 0.11845 0.74256 0.0
N1630 N 0.75685 0.09261 0.71043 0.0
N1631 N 0.75214 0.18921 0.76138 0.0
C1632 C 0.75809 0.11512 0.72522 0.0
C1633 C 0.75544 0.1645 0.75139 0.0
N1634 N 0.79896 0.13144 0.70958 0.0
N1635 N 0.72182 0.1447 0.77471 0.0
H1636 H 0.76455 0.20552 0.75847 0.0
H1637 H 0.73602 0.19402 0.77109 0.0
H1638 H 0.70881 0.12928 0.77869 0.0
H1639 H 0.72238 0.16082 0.78716 0.0
H1640 H 0.80328 0.11297 0.7023 0.0
H1641 H 0.81355 0.1461 0.70726 0.0
H1642 H 0.76818 0.09012 0.69566 0.0
H1643 H 0.74297 0.07701 0.71178 0.0
C1644 C 0.44275 0.05184 0.52442 0.0
C1645 C 0.44073 0.03675 0.54486 0.0
C1646 C 0.40094 0.05981 0.55464 0.0
C1647 C 0.40072 0.07174 0.53228 0.0
N1648 N 0.41923 0.07487 0.49373 0.0
N1649 N 0.41493 0.02328 0.57726 0.0
C1650 C 0.42109 0.06668 0.51659 0.0
C1651 C 0.41905 0.03995 0.55947 0.0
N1652 N 0.46566 0.05257 0.51281 0.0
N1653 N 0.3844 0.06797 0.57162 0.0
H1654 H 0.42725 0.00806 0.58104 0.0
H1655 H 0.39789 0.02298 0.58674 0.0
H1656 H 0.37144 0.083 0.56908 0.0
H1657 H 0.38552 0.06178 0.58907 0.0
H1658 H 0.46914 0.06522 0.49926 0.0
H1659 H 0.48225 0.04265 0.51844 0.0
H1660 H 0.43213 0.06931 0.4808 0.0
H1661 H 0.40329 0.08496 0.4869 0.0
C1662 C 0.62804 0.49391 0.56811 0.0
C1663 C 0.60536 0.49634 0.55215 0.0
C1664 C 0.62379 0.46614 0.52235 0.0
C1665 C 0.64532 0.46196 0.53908 0.0
N1666 N 0.66417 0.46704 0.58005 0.0
N1667 N 0.57871 0.47954 0.51658 0.0
C1668 C 0.64629 0.47439 0.56265 0.0
C1669 C 0.60233 0.4808 0.53003 0.0
N1670 N 0.63293 0.51103 0.58791 0.0
N1671 N 0.62435 0.45729 0.49881 0.0
H1672 H 0.56234 0.48946 0.52191 0.0
H1673 H 0.57453 0.46657 0.50148 0.0
H1674 H 0.64002 0.44723 0.49219 0.0
H1675 H 0.61052 0.46221 0.4854 0.0
H1676 H 0.6506 0.51193 0.59868 0.0
H1677 H 0.62049 0.52601 0.59234 0.0
H1678 H 0.66403 0.47357 0.59808 0.0
H1679 H 0.67737 0.45234 0.57694 0.0
C1680 C 0.74168 0.24258 0.37112 0.0
C1681 C 0.76188 0.24692 0.35513 0.0
C1682 C 0.78214 0.28255 0.38313 0.0
C1683 C 0.75989 0.28066 0.39728 0.0
N1684 N 0.71646 0.26113 0.40278 0.0
N1685 N 0.79962 0.27337 0.34432 0.0
C1686 C 0.73915 0.26117 0.39083 0.0
C1687 C 0.78177 0.26745 0.36076 0.0
N1688 N 0.72519 0.22038 0.3677 0.0
N1689 N 0.80394 0.29827 0.39136 0.0
H1690 H 0.80006 0.26285 0.32775 0.0
H1691 H 0.8126 0.29001 0.34628 0.0
H1692 H 0.80506 0.30939 0.40775 0.0
H1693 H 0.82178 0.29837 0.38309 0.0
H1694 H 0.7118 0.21477 0.38005 0.0
H1695 H 0.72673 0.20619 0.35364 0.0
H1696 H 0.69956 0.24924 0.39719 0.0
H1697 H 0.71359 0.27464 0.41704 0.0
C1698 C 0.51006 0.03649 0.88056 0.0
C1699 C 0.51741 0.02418 0.90195 0.0
C1700 C 0.55648 0.00732 0.88358 0.0
C1701 C 0.54996 0.02091 0.86273 0.0
N1702 N 0.52285 0.05125 0.84224 0.0
N1703 N 0.54956 1.00154 0.92554 0.0
C1704 C 0.52745 0.03641 0.86153 0.0
C1705 C 0.54111 0.01048 0.9039 0.0
N1706 N 0.48583 0.04707 0.87795 0.0
N1707 N 0.57722 0.99112 0.88382 0.0
H1708 H 0.539 1.00369 0.94089 0.0
H1709 H 0.56804 0.99398 0.92897 0.0
H1710 H 0.58978 0.98931 0.86982 0.0
H1711 H 0.58106 0.97817 0.89717 0.0
H1712 H 0.47798 0.05373 0.86188 0.0
H1713 H 0.47244 0.04726 0.89135 0.0
H1714 H 0.50867 0.06532 0.84151 0.0
H1715 H 0.53447 0.05083 0.82751 0.0
C1716 C 0.27522 0.25256 0.34855 0.0
C1717 C 0.2933 0.27483 0.34854 0.0
C1718 C 0.31198 0.26557 0.38878 0.0
C1719 C 0.2927 0.24442 0.38947 0.0
N1720 N 0.2537 0.21974 0.37159 0.0
N1721 N 0.32643 0.3049 0.36966 0.0
C1722 C 0.27368 0.23847 0.36976 0.0
C1723 C 0.31103 0.28197 0.36896 0.0
N1724 N 0.26007 0.24442 0.328 0.0
N1725 N 0.33161 0.26957 0.40687 0.0
H1726 H 0.32647 0.3172 0.3554 0.0
H1727 H 0.33764 0.31283 0.38493 0.0
H1728 H 0.33259 0.25834 0.42187 0.0
H1729 H 0.34798 0.28266 0.40627 0.0
H1730 H 0.24871 0.22671 0.32585 0.0
H1731 H 0.26031 0.25447 0.31229 0.0
H1732 H 0.23747 0.21649 0.35913 0.0
H1733 H 0.25229 0.20859 0.38654 0.0
C1734 C 0.53898 0.47807 0.89002 0.0
C1735 C 0.53975 0.49725 0.90966 0.0
C1736 C 0.51071 0.52445 0.88578 0.0
C1737 C 0.50791 0.50413 0.86705 0.0
N1738 N 0.51571 0.45967 0.85293 0.0
N1739 N 0.52285 0.53656 0.92788 0.0
C1740 C 0.52104 0.48038 0.8696 0.0
C1741 C 0.52463 0.51987 0.90799 0.0
N1742 N 0.55604 0.45812 0.89051 0.0
N1743 N 0.50083 0.54845 0.88205 0.0
H1744 H 0.53263 0.53381 0.9445 0.0
H1745 H 0.50989 0.55177 0.92851 0.0
H1746 H 0.49067 0.55263 0.86599 0.0
H1747 H 0.50471 0.56492 0.89401 0.0
H1748 H 0.55845 0.44523 0.87571 0.0
H1749 H 0.56953 0.45581 0.90507 0.0
H1750 H 0.52241 0.44092 0.85515 0.0
H1751 H 0.50267 0.46055 0.83777 0.0
C1752 C 0.77767 0.76026 0.15718 0.0
C1753 C 0.75726 0.77836 0.15732 0.0
C1754 C 0.74334 0.76414 0.11531 0.0
C1755 C 0.76501 0.74754 0.11463 0.0
N1756 N 0.80506 0.73235 0.13358 0.0
N1757 N 0.72296 0.80046 0.13588 0.0
C1758 C 0.78281 0.7463 0.13523 0.0
C1759 C 0.7407 0.7811 0.13619 0.0
N1760 N 0.79167 0.7559 0.17822 0.0
N1761 N 0.72486 0.76311 0.09623 0.0
H1762 H 0.72019 0.81296 0.1509 0.0
H1763 H 0.71241 0.80549 0.12035 0.0
H1764 H 0.72635 0.75125 0.08052 0.0
H1765 H 0.70705 0.77243 0.09658 0.0
H1766 H 0.80477 0.74092 0.17993 0.0
H1767 H 0.7887 0.76599 0.19456 0.0
H1768 H 0.82034 0.73298 0.14706 0.0
H1769 H 0.80933 0.72164 0.11791 0.0
C1770 C 0.01849 0.01241 0.1054 0.0
C1771 C 0.03763 0.03348 0.10373 0.0
C1772 C 0.02387 0.05447 0.14142 0.0
C1773 C 0.00645 0.03226 0.1442 0.0
N1774 N 0.99123 0.98768 0.1312 0.0
N1775 N 0.06237 0.07178 0.12274 0.0
C1776 C 1.00493 0.01052 0.12685 0.0
C1777 C 0.04143 0.05371 0.12252 0.0
N1778 N 0.01248 0.99472 0.08616 0.0
N1779 N 0.02294 0.07673 0.15624 0.0
H1780 H 0.07592 0.07163 0.10947 0.0
H1781 H 0.06778 0.08529 0.13721 0.0
H1782 H 0.01011 0.07826 0.17005 0.0
H1783 H 0.03308 0.09447 0.15345 0.0
H1784 H 0.9967 0.98068 0.08536 0.0
H1785 H 0.02175 0.99553 0.07009 0.0
H1786 H 0.99172 0.97028 0.12045 0.0
H1787 H 0.98137 0.98537 0.1468 0.0
C1788 C 0.31669 0.76511 0.14028 0.0
C1789 C 0.30565 0.7734 0.16202 0.0
C1790 C 0.28161 0.80699 0.1411 0.0
C1791 C 0.29453 0.80031 0.11998 0.0
N1792 N 0.32641 0.77515 0.09972 0.0
N1793 N 0.27926 0.80337 0.18402 0.0
C1794 C 0.3125 0.77979 0.11958 0.0
C1795 C 0.28862 0.79472 0.16268 0.0
N1796 N 0.33134 0.74328 0.13948 0.0
N1797 N 0.26198 0.82447 0.14028 0.0
H1798 H 0.28236 0.79386 0.19988 0.0
H1799 H 0.26961 0.82081 0.1864 0.0
H1800 H 0.25641 0.83392 0.12483 0.0
H1801 H 0.24972 0.8281 0.1542 0.0
H1802 H 0.33734 0.73434 0.12364 0.0
H1803 H 0.33622 0.73298 0.15457 0.0
H1804 H 0.34198 0.76262 0.09911 0.0
H1805 H 0.32367 0.7853 0.08417 0.0
C1806 C 0.00701 0.48026 0.11638 0.0
C1807 C 0.01093 0.50096 0.10086 0.0
C1808 C 0.0465 0.52104 0.12931 0.0
C1809 C 0.04472 0.49869 0.14327 0.0
N1810 N 0.02593 0.45499 0.14801 0.0
N1811 N 0.03707 0.53908 0.09069 0.0
C1812 C 0.02563 0.47775 0.13627 0.0
C1813 C 0.03136 0.52088 0.10685 0.0
N1814 N 0.98509 0.46336 0.11246 0.0
N1815 N 0.06203 0.54278 0.13785 0.0
H1816 H 0.02652 0.53966 0.07407 0.0
H1817 H 0.05365 0.5522 0.09288 0.0
H1818 H 0.0732 0.54377 0.15429 0.0
H1819 H 0.06197 0.56065 0.12974 0.0
H1820 H 0.97969 0.44956 0.1245 0.0
H1821 H 0.97087 0.46479 0.09827 0.0
H1822 H 0.01443 0.438 0.1421 0.0
H1823 H 0.03942 0.45224 0.16246 0.0
C1824 C 0.35163 0.71655 0.29262 0.0
C1825 C 0.34925 0.72845 0.2703 0.0
C1826 C 0.39278 0.75131 0.28019 0.0
C1827 C 0.39761 0.73432 0.29899 0.0
N1828 N 0.38098 0.70114 0.32407 0.0
N1829 N 0.35843 0.77216 0.25768 0.0
C1830 C 0.37681 0.71708 0.30557 0.0
C1831 C 0.36725 0.7503 0.26787 0.0
N1832 N 0.32934 0.70906 0.30344 0.0
N1833 N 0.41247 0.76835 0.27395 0.0
H1834 H 0.33832 0.77397 0.25299 0.0
H1835 H 0.37007 0.78961 0.25736 0.0
H1836 H 0.43135 0.77003 0.2828 0.0
H1837 H 0.41044 0.77929 0.25882 0.0
H1838 H 0.32971 0.70249 0.32075 0.0
H1839 H 0.3105 0.7132 0.29637 0.0
H1840 H 0.36714 0.68639 0.32788 0.0
H1841 H 0.39891 0.70146 0.33447 0.0
C1842 C 0.02077 0.39894 0.00707 0.0
C1843 C 0.00978 0.42219 0.99893 0.0
C1844 C 0.99876 0.39958 0.95913 0.0
C1845 C 0.01227 0.37741 0.96656 0.0
N1846 N 0.0403 0.35776 0.99635 0.0
N1847 N 0.99363 0.44642 0.96561 0.0
C1848 C 0.02444 0.37757 0.99021 0.0
C1849 C 1.00007 0.42301 0.97454 0.0
N1850 N 0.02681 0.39683 0.03107 0.0
N1851 N 0.9842 0.39809 0.93755 0.0
H1852 H 0.99566 0.46429 0.97586 0.0
H1853 H 0.98902 0.44858 0.94742 0.0
H1854 H 0.98276 0.38127 0.92579 0.0
H1855 H 0.97166 0.41261 0.93233 0.0
H1856 H 0.03218 0.37934 0.0383 0.0
H1857 H 0.024 0.41178 0.04412 0.0
H1858 H 0.05205 0.35832 0.01242 0.0
H1859 H 0.04362 0.34181 0.98451 0.0
C1860 C 0.65482 0.79748 0.25754 0.0
C1861 C 0.68166 0.79809 0.26696 0.0
C1862 C 0.6673 0.78102 0.30459 0.0
C1863 C 0.64046 0.7824 0.2959 0.0
N1864 N 0.60807 0.79339 0.26514 0.0
N1865 N 0.7138 0.79196 0.29971 0.0
C1866 C 0.63406 0.79081 0.27255 0.0
C1867 C 0.68797 0.79026 0.29057 0.0
N1868 N 0.64916 0.80359 0.23432 0.0
N1869 N 0.67297 0.77032 0.32609 0.0
H1870 H 0.72968 0.7967 0.28951 0.0
H1871 H 0.7196 0.78988 0.31767 0.0
H1872 H 0.65836 0.76398 0.33708 0.0
H1873 H 0.69193 0.76598 0.33242 0.0
H1874 H 0.6305 0.80053 0.22532 0.0
H1875 H 0.66346 0.81063 0.22339 0.0
H1876 H 0.60186 0.80224 0.24961 0.0
H1877 H 0.59238 0.78794 0.27532 0.0
C1878 C 0.08508 0.13239 0.99823 0.0
C1879 C 0.06904 0.10861 0.99766 0.0
C1880 C 0.03942 0.12462 0.96571 0.0
C1881 C 0.05692 0.14714 0.9647 0.0
N1882 N 0.09814 0.17114 0.97774 0.0
N1883 N 0.03337 0.08009 0.97825 0.0
C1884 C 0.08025 0.15065 0.98035 0.0
C1885 C 0.04672 0.10423 0.98081 0.0
N1886 N 0.10427 0.13803 0.01649 0.0
N1887 N 0.01563 0.12291 0.95247 0.0
H1888 H 0.0384 0.06446 0.98853 0.0
H1889 H 0.01881 0.07475 0.96452 0.0
H1890 H 0.0099 0.13716 0.94082 0.0
H1891 H 1.00072 0.10851 0.95442 0.0
H1892 H 0.11473 0.15621 0.01941 0.0
H1893 H 0.10812 0.12541 0.03016 0.0
H1894 H 0.11693 0.17308 0.98665 0.0
H1895 H 0.09503 0.18525 0.96523 0.0
C1896 C 0.38325 0.25987 0.24573 0.0
C1897 C 0.37688 0.28457 0.25646 0.0
C1898 C 0.40837 0.30736 0.23193 0.0
C1899 C 0.41358 0.28278 0.2203 0.0
N1900 N 0.40375 0.23605 0.21345 0.0
N1901 N 0.382 0.33207 0.25923 0.0
C1902 C 0.40041 0.25913 0.22649 0.0
C1903 C 0.38892 0.30841 0.24926 0.0
N1904 N 0.37306 0.23707 0.25409 0.0
N1905 N 0.42289 0.32956 0.22705 0.0
H1906 H 0.37003 0.33375 0.27365 0.0
H1907 H 0.38722 0.35016 0.25269 0.0
H1908 H 0.43685 0.32962 0.21414 0.0
H1909 H 0.42246 0.34766 0.23668 0.0
H1910 H 0.37934 0.21848 0.2492 0.0
H1911 H 0.35929 0.2367 0.26715 0.0
H1912 H 0.39261 0.2186 0.21512 0.0
H1913 H 0.41643 0.23469 0.19951 0.0
C1914 C 0.57465 0.42118 0.04143 0.0
C1915 C 0.56578 0.41896 0.01667 0.0
C1916 C 0.53811 0.37949 0.02368 0.0
C1917 C 0.54956 0.37986 0.0476 0.0
N1918 N 0.58228 0.39876 0.07806 0.0
N1919 N 0.54354 0.39229 0.98325 0.0
C1920 C 0.56878 0.40013 0.0562 0.0
C1921 C 0.54856 0.3972 0.00749 0.0
N1922 N 0.58802 0.44379 0.05108 0.0
N1923 N 0.51694 0.36246 0.01648 0.0
H1924 H 0.5521 0.40363 0.97062 0.0
H1925 H 0.53328 0.37524 0.9756 0.0
H1926 H 0.50861 0.34936 0.02788 0.0
H1927 H 0.5061 0.36316 1.00004 0.0
H1928 H 0.59252 0.44761 0.06947 0.0
H1929 H 0.59233 0.45987 0.04105 0.0
H1930 H 0.59855 0.41136 0.08406 0.0
H1931 H 0.57884 0.38358 0.08935 0.0
C1932 C 0.67669 0.20727 0.2201 0.0
C1933 C 0.69118 0.2277 0.23464 0.0
C1934 C 0.6608 0.26014 0.21954 0.0
C1935 C 0.64549 0.23943 0.20614 0.0
N1936 N 0.63686 0.19321 0.1949 0.0
N1937 N 0.69773 0.27354 0.24849 0.0
C1938 C 0.65294 0.21297 0.20672 0.0
C1939 C 0.68335 0.25413 0.23451 0.0
N1940 N 0.6858 0.18241 0.21894 0.0
N1941 N 0.65408 0.28562 0.21738 0.0
H1942 H 0.71596 0.27064 0.25745 0.0
H1943 H 0.69153 0.29249 0.2518 0.0
H1944 H 0.63721 0.29063 0.20729 0.0
H1945 H 0.66565 0.30207 0.2245 0.0
H1946 H 0.67815 0.16732 0.20664 0.0
H1947 H 0.7022 0.17704 0.22945 0.0
H1948 H 0.63925 0.17326 0.19673 0.0
H1949 H 0.6199 0.19669 0.18418 0.0
C1950 C 0.45859 0.12429 1.00555 0.0
C1951 C 0.47384 0.1018 0.00753 0.0
C1952 C 0.50109 0.12422 0.04148 0.0
C1953 C 0.48459 0.1459 0.04066 0.0
N1954 N 0.44563 0.16555 0.02426 0.0
N1955 N 0.507 0.07848 0.02922 0.0
C1956 C 0.46276 0.14566 0.02331 0.0
C1957 C 0.4944 0.10125 0.02602 0.0
N1958 N 0.44059 0.12545 0.98633 0.0
N1959 N 0.52358 0.12592 0.0566 0.0
H1960 H 0.50292 0.06137 0.01806 0.0
H1961 H 0.52004 0.07582 0.04398 0.0
H1962 H 0.52894 0.14226 0.06844 0.0
H1963 H 0.53802 0.11209 0.05618 0.0
H1964 H 0.43091 0.14235 0.98234 0.0
H1965 H 0.43671 0.10999 0.97322 0.0
H1966 H 0.42775 0.16519 0.01388 0.0
H1967 H 0.44831 0.18171 0.03677 0.0
C1968 C 0.30128 0.35879 0.73379 0.0
C1969 C 0.28475 0.35698 0.71212 0.0
C1970 C 0.30605 0.39825 0.70049 0.0
C1971 C 0.32061 0.40139 0.7232 0.0
N1972 N 0.32774 0.38736 0.76349 0.0
N1973 N 0.26726 0.37813 0.67743 0.0
C1974 C 0.31696 0.38243 0.74047 0.0
C1975 C 0.28594 0.37764 0.6962 0.0
N1976 N 0.30283 0.3376 0.74757 0.0
N1977 N 0.31208 0.41428 0.68266 0.0
H1978 H 0.25171 0.36388 0.67413 0.0
H1979 H 0.26562 0.39405 0.66668 0.0
H1980 H 0.32702 0.42927 0.68487 0.0
H1981 H 0.304 0.41109 0.66502 0.0
H1982 H 0.31661 0.33689 0.76219 0.0
H1983 H 0.29212 0.31974 0.74309 0.0
H1984 H 0.32348 0.37549 0.77743 0.0
H1985 H 0.33886 0.40468 0.76923 0.0
C1986 C 0.29128 0.65157 0.80543 0.0
C1987 C 0.29611 0.67749 0.79812 0.0
C1988 C 0.33371 0.6627 0.77607 0.0
C1989 C 0.32984 0.63715 0.78454 0.0
N1990 N 0.30783 0.60815 0.81032 0.0
N1991 N 0.32418 0.70899 0.77983 0.0
C1992 C 0.30943 0.63185 0.80011 0.0
C1993 C 0.31802 0.68341 0.7844 0.0
N1994 N 0.26886 0.64559 0.81679 0.0
N1995 N 0.35185 0.66693 0.75946 0.0
H1996 H 0.31301 0.72458 0.78546 0.0
H1997 H 0.34146 0.71511 0.77219 0.0
H1998 H 0.36393 0.65237 0.75322 0.0
H1999 H 0.35361 0.68418 0.75049 0.0
H2000 H 0.26251 0.62648 0.82012 0.0
H2001 H 0.25542 0.65959 0.82143 0.0
H2002 H 0.29537 0.60404 0.82385 0.0
H2003 H 0.32051 0.59313 0.80661 0.0
C2004 C 0.89953 0.51511 0.46944 0.0
C2005 C 0.92304 0.51455 0.4847 0.0
C2006 C 0.90185 0.48045 0.50731 0.0
C2007 C 0.87934 0.47918 0.49064 0.0
N2008 N 0.85827 0.49219 0.45356 0.0
N2009 N 0.94847 0.49329 0.51528 0.0
C2010 C 0.87858 0.49567 0.47105 0.0
C2011 C 0.92473 0.49625 0.50284 0.0
N2012 N 0.89685 0.53473 0.45398 0.0
N2013 N 0.90107 0.46723 0.52784 0.0
H2014 H 0.96581 0.50421 0.51234 0.0
H2015 H 0.95157 0.47834 0.52688 0.0
H2016 H 0.88458 0.45564 0.53189 0.0
H2017 H 0.91575 0.46969 0.54189 0.0
H2018 H 0.87914 0.53787 0.44427 0.0
H2019 H 0.91172 0.54933 0.45235 0.0
H2020 H 0.85808 0.50162 0.43754 0.0
H2021 H 0.84259 0.4782 0.45412 0.0
C2022 C 0.76798 0.8712 0.79914 0.0
C2023 C 0.75813 0.84451 0.7981 0.0
C2024 C 0.71333 0.8585 0.78715 0.0
C2025 C 0.72383 0.88471 0.78561 0.0
N2026 N 0.76208 0.915 0.78579 0.0
N2027 N 0.72213 0.81211 0.78768 0.0
C2028 C 0.75143 0.89078 0.79042 0.0
C2029 C 0.73095 0.83796 0.79121 0.0
N2030 N 0.79296 0.87798 0.80914 0.0
N2031 N 0.6865 0.85334 0.78551 0.0
H2032 H 0.73436 0.79657 0.79052 0.0
H2033 H 0.70329 0.80605 0.7801 0.0
H2034 H 0.67301 0.86781 0.78257 0.0
H2035 H 0.67757 0.83526 0.78906 0.0
H2036 H 0.80025 0.89743 0.81268 0.0
H2037 H 0.80552 0.86429 0.8161 0.0
H2038 H 0.7824 0.91962 0.7865 0.0
H2039 H 0.75076 0.92975 0.77897 0.0
C2040 C 0.61972 0.54612 0.98239 0.0
C2041 C 0.62008 0.52531 0.9643 0.0
C2042 C 0.66449 0.54132 0.9547 0.0
C2043 C 0.66493 0.56088 0.97399 0.0
N2044 N 0.64506 0.57913 0.0089 0.0
N2045 N 0.64428 0.50023 0.93596 0.0
C2046 C 0.64311 0.56248 0.98863 0.0
C2047 C 0.64293 0.52208 0.95124 0.0
N2048 N 0.59671 0.55086 0.993 0.0
N2049 N 0.68422 0.54171 0.93915 0.0
H2050 H 0.62885 0.48578 0.93294 0.0
H2051 H 0.66143 0.49526 0.92787 0.0
H2052 H 0.70035 0.55544 0.94111 0.0
H2053 H 0.68357 0.52987 0.92323 0.0
H2054 H 0.59434 0.56748 1.00429 0.0
H2055 H 0.5792 0.53927 0.989 0.0
H2056 H 0.63103 0.57915 0.02171 0.0
H2057 H 0.66183 0.59145 0.01403 0.0
C2058 C 0.25384 0.66631 0.25366 0.0
C2059 C 0.2743 0.66317 0.23769 0.0
C2060 C 0.25777 0.61747 0.22698 0.0
C2061 C 0.23855 0.62007 0.24423 0.0
N2062 N 0.22084 0.64528 0.2768 0.0
N2063 N 0.29853 0.63495 0.21192 0.0
C2064 C 0.23733 0.64403 0.25839 0.0
C2065 C 0.27705 0.63849 0.22511 0.0
N2066 N 0.24959 0.69079 0.26367 0.0
N2067 N 0.2571 0.5952 0.21193 0.0
H2068 H 0.31294 0.64993 0.21006 0.0
H2069 H 0.30327 0.61671 0.20442 0.0
H2070 H 0.24352 0.57928 0.21302 0.0
H2071 H 0.2686 0.59322 0.19723 0.0
H2072 H 0.2332 0.69492 0.27326 0.0
H2073 H 0.26131 0.70758 0.26077 0.0
H2074 H 0.22116 0.66116 0.28949 0.0
H2075 H 0.20823 0.62948 0.28064 0.0
C2076 C 0.94618 0.55819 0.03027 0.0
C2077 C 0.94042 0.53831 0.04619 0.0
C2078 C 0.89646 0.55564 0.05089 0.0
C2079 C 0.90112 0.57351 0.03288 0.0
N2080 N 0.92912 0.58977 1.00319 0.0
N2081 N 0.90909 0.51597 0.06966 0.0
C2082 C 0.9257 0.57432 0.02203 0.0
C2083 C 0.91531 0.53652 0.05606 0.0
N2084 N 0.97145 0.56203 0.02346 0.0
N2085 N 0.87431 0.55739 0.06348 0.0
H2086 H 0.92244 0.50182 0.07411 0.0
H2087 H 0.89013 0.51178 0.07506 0.0
H2088 H 0.86009 0.57108 0.06017 0.0
H2089 H 0.8711 0.54689 0.07853 0.0
H2090 H 0.97765 0.57791 0.01395 0.0
H2091 H 0.98692 0.55063 0.02916 0.0
H2092 H 0.94536 0.589 0.99273 0.0
H2093 H 0.91468 0.60193 0.99671 0.0
C2094 C 0.10448 0.98304 0.02936 0.0
C2095 C 0.10765 0.99892 0.05129 0.0
C2096 C 0.14872 0.97722 0.06184 0.0
C2097 C 0.1475 0.96428 0.03846 0.0
N2098 N 0.12626 0.95897 0.99831 0.0
N2099 N 0.13553 0.01432 0.08664 0.0
C2100 C 0.12588 0.96824 0.02176 0.0
C2101 C 0.1305 0.99684 0.06712 0.0
N2102 N 0.08074 0.9815 0.01605 0.0
N2103 N 0.16675 0.97022 0.07927 0.0
H2104 H 0.12311 0.02938 0.09089 0.0
H2105 H 0.15329 0.01544 0.0973 0.0
H2106 H 0.17992 0.95545 0.07633 0.0
H2107 H 0.1668 0.97713 0.09722 0.0
H2108 H 0.07649 0.96826 1.00116 0.0
H2109 H 0.06438 0.99146 0.02133 0.0
H2110 H 0.11235 0.96369 0.98489 0.0
H2111 H 0.14188 0.94877 0.99176 0.0
loop_
_geom_bond_atom_site_label_1
_geom_bond_atom_site_label_2
_geom_bond_distance
_geom_bond_site_symmetry_2
_ccdc_geom_bond_type
H0 C5 0.930 . S
H1 C8 0.930 . S
H2 C10 0.930 . S
H3 C4 1.016 . S
C4 H3 1.016 . S
C4 N11 1.286 1_556 S
C5 H0 0.930 . S
C5 C6 1.397 . S
C5 C7 1.361 . S
C6 C5 1.397 . S
C6 C10 1.390 . S
C7 C5 1.361 . S
C7 C8 1.393 . S
C7 N11 1.413 . S
C8 H1 0.930 . S
C8 C7 1.393 . S
C8 C9 1.399 . S
C9 C8 1.399 . S
C9 C10 1.381 . S
C10 H2 0.930 . S
C10 C6 1.390 . S
C10 C9 1.381 . S
N11 C4 1.286 1_554 S
N11 C7 1.413 . S
H12 C17 0.930 . S
H13 C20 0.930 . S
H14 C22 0.930 . S
H15 C16 1.016 . S
C16 H15 1.016 . S
C16 N23 1.286 . S
C17 H12 0.930 . S
C17 C18 1.397 . S
C17 C19 1.361 . S
C18 C17 1.397 . S
C18 C22 1.390 . S
C19 C17 1.361 . S
C19 C20 1.393 . S
C19 N23 1.413 . S
C20 H13 0.930 . S
C20 C19 1.393 . S
C20 C21 1.399 . S
C21 C20 1.399 . S
C21 C22 1.381 . S
C22 H14 0.930 . S
C22 C18 1.390 . S
C22 C21 1.381 . S
N23 C16 1.286 . S
N23 C19 1.413 . S
H24 C29 0.930 . S
H25 C32 0.930 1_455 S
H26 C34 0.930 . S
H27 C28 1.016 1_454 S
C28 H27 1.016 1_656 S
C28 N35 1.286 1_556 S
C29 H24 0.930 . S
C29 C30 1.397 . S
C29 C31 1.361 . S
C30 C29 1.397 . S
C30 C34 1.390 . S
C31 C29 1.361 . S
C31 C32 1.393 . S
C31 N35 1.413 . S
C32 H25 0.930 1_655 S
C32 C31 1.393 . S
C32 C33 1.399 . S
C33 C32 1.399 . S
C33 C34 1.381 . S
C34 H26 0.930 . S
C34 C30 1.390 . S
C34 C33 1.381 . S
N35 C28 1.286 1_554 S
N35 C31 1.413 . S
H36 C41 0.930 . S
H37 C44 0.930 . S
H38 C46 0.930 . S
H39 C40 1.016 . S
C40 H39 1.016 . S
C40 N47 1.286 . S
C41 H36 0.930 . S
C41 C42 1.397 . S
C41 C43 1.361 . S
C42 C41 1.397 . S
C42 C46 1.390 . S
C43 C41 1.361 . S
C43 C44 1.393 . S
C43 N47 1.413 . S
C44 H37 0.930 . S
C44 C43 1.393 . S
C44 C45 1.399 . S
C45 C44 1.399 . S
C45 C46 1.381 . S
C46 H38 0.930 . S
C46 C42 1.390 . S
C46 C45 1.381 . S
N47 C40 1.286 . S
N47 C43 1.413 . S
H48 C53 0.930 . S
H49 C56 0.930 . S
H50 C58 0.930 . S
H51 C52 1.016 . S
C52 H51 1.016 . S
C52 N59 1.286 . S
C53 H48 0.930 . S
C53 C54 1.397 . S
C53 C55 1.361 . S
C54 C53 1.397 . S
C54 C58 1.390 1_565 S
C55 C53 1.361 . S
C55 C56 1.393 . S
C55 N59 1.413 . S
C56 H49 0.930 . S
C56 C55 1.393 . S
C56 C57 1.399 1_565 S
C57 C56 1.399 1_545 S
C57 C58 1.381 . S
C58 H50 0.930 . S
C58 C54 1.390 1_545 S
C58 C57 1.381 . S
N59 C52 1.286 . S
N59 C55 1.413 . S
H60 C65 0.930 . S
H61 C68 0.930 . S
H62 C70 0.930 . S
H63 C64 1.016 . S
C64 H63 1.016 . S
C64 N71 1.286 . S
C65 H60 0.930 . S
C65 C66 1.397 . S
C65 C67 1.361 . S
C66 C65 1.397 . S
C66 C70 1.390 . S
C67 C65 1.361 . S
C67 C68 1.393 . S
C67 N71 1.413 . S
C68 H61 0.930 . S
C68 C67 1.393 . S
C68 C69 1.399 . S
C69 C68 1.399 . S
C69 C70 1.381 . S
C70 H62 0.930 . S
C70 C66 1.390 . S
C70 C69 1.381 . S
N71 C64 1.286 . S
N71 C67 1.413 . S
H72 C77 0.940 . S
H73 C80 0.930 . S
H74 C82 0.930 . S
H75 C76 1.016 . S
C76 H75 1.016 . S
C76 N83 1.286 . S
C77 H72 0.940 . S
C77 C78 1.388 1_455 S
C77 C79 1.360 1_455 S
C78 C77 1.388 1_655 S
C78 C82 1.390 . S
C79 C77 1.360 1_655 S
C79 C80 1.393 . S
C79 N83 1.413 1_655 S
C80 H73 0.930 . S
C80 C79 1.393 . S
C80 C81 1.399 . S
C81 C80 1.399 . S
C81 C82 1.381 . S
C82 H74 0.930 . S
C82 C78 1.390 . S
C82 C81 1.381 . S
N83 C76 1.286 . S
N83 C79 1.413 1_455 S
H84 C89 0.930 . S
H85 C92 0.930 . S
H86 C94 0.930 . S
H87 C88 1.016 . S
C88 H87 1.016 . S
C88 N95 1.286 . S
C89 H84 0.930 . S
C89 C90 1.397 . S
C89 C91 1.361 . S
C90 C89 1.397 . S
C90 C94 1.390 . S
C91 C89 1.361 . S
C91 C92 1.393 . S
C91 N95 1.413 . S
C92 H85 0.930 . S
C92 C91 1.393 . S
C92 C93 1.399 . S
C93 C92 1.399 . S
C93 C94 1.381 . S
C94 H86 0.930 . S
C94 C90 1.390 . S
C94 C93 1.381 . S
N95 C88 1.286 . S
N95 C91 1.413 . S
H96 C101 0.930 . S
H97 C104 0.930 . S
H98 C106 0.930 . S
H99 C100 1.016 . S
C100 H99 1.016 . S
C100 N107 1.286 . S
C101 H96 0.930 . S
C101 C102 1.397 . S
C101 C103 1.361 . S
C102 C101 1.397 . S
C102 C106 1.390 . S
C103 C101 1.361 . S
C103 C104 1.393 . S
C103 N107 1.413 . S
C104 H97 0.930 . S
C104 C103 1.393 . S
C104 C105 1.399 . S
C105 C104 1.399 . S
C105 C106 1.381 . S
C106 H98 0.930 . S
C106 C102 1.390 . S
C106 C105 1.381 . S
N107 C100 1.286 . S
N107 C103 1.413 . S
H108 C113 0.930 . S
H109 C116 0.930 . S
H110 C118 0.930 . S
H111 C112 1.016 . S
C112 H111 1.016 . S
C112 N119 1.286 . S
C113 H108 0.930 . S
C113 C114 1.397 1_565 S
C113 C115 1.361 . S
C114 C113 1.397 1_545 S
C114 C118 1.390 . S
C115 C113 1.361 . S
C115 C116 1.393 . S
C115 N119 1.413 . S
C116 H109 0.930 . S
C116 C115 1.393 . S
C116 C117 1.399 . S
C117 C116 1.399 . S
C117 C118 1.381 1_565 S
C118 H110 0.930 . S
C118 C114 1.390 . S
C118 C117 1.381 1_545 S
N119 C112 1.286 . S
N119 C115 1.413 . S
H120 C125 0.930 . S
H121 C128 0.930 . S
H122 C130 0.930 . S
H123 C124 1.016 . S
C124 H123 1.016 . S
C124 N131 1.286 . S
C125 H120 0.930 . S
C125 C126 1.397 . S
C125 C127 1.361 . S
C126 C125 1.397 . S
C126 C130 1.390 . S
C127 C125 1.361 . S
C127 C128 1.393 . S
C127 N131 1.413 . S
C128 H121 0.930 . S
C128 C127 1.393 . S
C128 C129 1.399 . S
C129 C128 1.399 . S
C129 C130 1.381 . S
C130 H122 0.930 . S
C130 C126 1.390 . S
C130 C129 1.381 . S
N131 C124 1.286 . S
N131 C127 1.413 . S
H132 C137 0.930 . S
H133 C140 0.930 . S
H134 C142 0.930 . S
H135 C136 1.016 . S
C136 H135 1.016 . S
C136 N143 1.286 . S
C137 H132 0.930 . S
C137 C138 1.397 . S
C137 C139 1.361 . S
C138 C137 1.397 . S
C138 C142 1.390 . S
C139 C137 1.361 . S
C139 C140 1.393 . S
C139 N143 1.413 . S
C140 H133 0.930 . S
C140 C139 1.393 . S
C140 C141 1.399 . S
C141 C140 1.399 . S
C141 C142 1.381 . S
C142 H134 0.930 . S
C142 C138 1.390 . S
C142 C141 1.381 . S
N143 C136 1.286 . S
N143 C139 1.413 . S
H144 C149 0.930 . S
H145 C152 0.930 . S
H146 C154 0.930 . S
H147 C148 1.016 . S
C148 H147 1.016 . S
C148 N155 1.286 . S
C149 H144 0.930 . S
C149 C150 1.397 . S
C149 C151 1.361 . S
C150 C149 1.397 . S
C150 C154 1.390 . S
C151 C149 1.361 . S
C151 C152 1.393 . S
C151 N155 1.413 . S
C152 H145 0.930 . S
C152 C151 1.393 . S
C152 C153 1.399 . S
C153 C152 1.399 . S
C153 C154 1.381 . S
C154 H146 0.930 . S
C154 C150 1.390 . S
C154 C153 1.381 . S
N155 C148 1.286 . S
N155 C151 1.413 . S
H156 C161 0.930 . S
H157 C164 0.930 1_554 S
H158 C166 0.930 . S
H159 C160 1.016 . S
C160 H159 1.016 . S
C160 N167 1.286 1_554 S
C161 H156 0.930 . S
C161 C162 1.397 . S
C161 C163 1.361 . S
C162 C161 1.397 . S
C162 C166 1.390 . S
C163 C161 1.361 . S
C163 C164 1.393 . S
C163 N167 1.413 . S
C164 H157 0.930 1_556 S
C164 C163 1.393 . S
C164 C165 1.399 . S
C165 C164 1.399 . S
C165 C166 1.381 . S
C166 H158 0.930 . S
C166 C162 1.390 . S
C166 C165 1.381 . S
N167 C160 1.286 1_556 S
N167 C163 1.413 . S
H168 C173 0.930 . S
H169 C176 0.930 . S
H170 C178 0.930 . S
H171 C172 1.016 . S
C172 H171 1.016 . S
C172 N179 1.286 . S
C173 H168 0.930 . S
C173 C174 1.397 . S
C173 C175 1.361 . S
C174 C173 1.397 . S
C174 C178 1.390 . S
C175 C173 1.361 . S
C175 C176 1.393 . S
C175 N179 1.413 . S
C176 H169 0.930 . S
C176 C175 1.393 . S
C176 C177 1.399 . S
C177 C176 1.399 . S
C177 C178 1.381 . S
C178 H170 0.930 . S
C178 C174 1.390 . S
C178 C177 1.381 . S
N179 C172 1.286 . S
N179 C175 1.413 . S
H180 C185 0.930 . S
H181 C188 0.930 . S
H182 C190 0.930 1_554 S
H183 C184 1.016 1_565 S
C184 H183 1.016 1_545 S
C184 N191 1.286 . S
C185 H180 0.930 . S
C185 C186 1.397 . S
C185 C187 1.361 . S
C186 C185 1.397 . S
C186 C190 1.390 . S
C187 C185 1.361 . S
C187 C188 1.393 . S
C187 N191 1.413 . S
C188 H181 0.930 . S
C188 C187 1.393 . S
C188 C189 1.399 . S
C189 C188 1.399 . S
C189 C190 1.381 . S
C190 H182 0.930 1_556 S
C190 C186 1.390 . S
C190 C189 1.381 . S
N191 C184 1.286 . S
N191 C187 1.413 . S
Li192 N209 1.990 . S
Li192 O252 1.956 . S
Li192 O253 1.970 . S
Li192 O254 1.961 1_554 S
Li193 N217 1.990 . S
Li193 O252 1.970 . S
Li193 O253 1.956 . S
Li193 O255 1.961 . S
Li194 N239 1.990 . S
Li194 O252 1.961 1_556 S
Li194 O254 1.956 . S
Li194 O255 1.970 1_556 S
Li195 N245 1.990 . S
Li195 O253 1.961 . S
Li195 O254 1.970 1_554 S
Li195 O255 1.956 . S
C196 C198 1.348 . S
C196 C199 1.356 1_554 S
C196 O252 1.325 . S
N197 C200 1.281 1_556 S
N197 C201 1.307 . S
C198 C196 1.348 . S
C198 C200 1.353 . S
C198 H256 0.929 . S
C199 C196 1.356 1_556 S
C199 C201 1.358 . S
C199 H257 0.930 . S
C200 N197 1.281 1_554 S
C200 C198 1.353 . S
C200 H258 0.930 . S
C201 N197 1.307 . S
C201 C199 1.358 . S
C201 H259 0.930 . S
C202 C205 1.348 . S
C202 C206 1.356 . S
C202 O253 1.325 . S
C203 N204 1.279 . S
C203 C206 1.358 . S
C203 H260 0.930 . S
N204 C203 1.279 . S
N204 C207 1.314 . S
C205 C202 1.348 . S
C205 C207 1.353 . S
C205 H261 0.929 . S
C206 C202 1.356 . S
C206 C203 1.358 . S
C206 H262 0.930 . S
C207 N204 1.314 . S
C207 C205 1.353 . S
C207 H263 0.930 . S
C208 N209 1.316 . S
C208 C213 1.352 1_554 S
C208 H214 0.929 1_554 S
N209 Li192 1.990 . S
N209 C208 1.316 . S
N209 C211 1.279 . S
C210 C211 1.358 . S
C210 C212 1.356 . S
C210 H264 0.930 . S
C211 N209 1.279 . S
C211 C210 1.358 . S
C211 H215 0.930 . S
C212 C210 1.356 . S
C212 C213 1.348 1_554 S
C213 C208 1.352 1_556 S
C213 C212 1.348 1_556 S
C213 H265 0.929 . S
H214 C208 0.929 1_556 S
H215 C211 0.930 . S
C216 N217 1.314 . S
C216 C218 1.353 . S
C216 H222 0.930 . S
N217 Li193 1.990 . S
N217 C216 1.314 . S
N217 C220 1.279 . S
C218 C216 1.353 . S
C218 C221 1.348 . S
C218 H266 0.929 . S
C219 C220 1.358 . S
C219 C221 1.356 . S
C219 H267 0.930 . S
C220 N217 1.279 . S
C220 C219 1.358 . S
C220 H223 0.930 . S
C221 C218 1.348 . S
C221 C219 1.356 . S
H222 C216 0.930 . S
H223 C220 0.930 . S
C224 C226 1.348 . S
C224 C227 1.356 . S
C224 O254 1.325 . S
N225 C228 1.314 . S
N225 C229 1.279 . S
C226 C224 1.348 . S
C226 C228 1.353 . S
C226 H268 0.929 . S
C227 C224 1.356 . S
C227 C229 1.358 . S
C227 H269 0.930 . S
C228 N225 1.314 . S
C228 C226 1.353 . S
C228 H270 0.930 . S
C229 N225 1.279 . S
C229 C227 1.358 . S
C229 H271 0.930 . S
C230 C231 1.348 1_554 S
C230 C232 1.356 . S
C230 O255 1.325 . S
C231 C230 1.348 1_556 S
C231 C233 1.353 . S
C231 H272 0.929 . S
C232 C230 1.356 . S
C232 C234 1.358 . S
C232 H273 0.930 . S
C233 C231 1.353 . S
C233 N235 1.314 1_556 S
C233 H274 0.930 . S
C234 C232 1.358 . S
C234 N235 1.279 . S
C234 H275 0.930 . S
N235 C233 1.314 1_554 S
N235 C234 1.279 . S
C236 C238 1.353 . S
C236 N239 1.314 . S
C236 H242 0.930 . S
C237 N239 1.279 . S
C237 C240 1.358 . S
C237 H243 0.930 . S
C238 C236 1.353 . S
C238 C241 1.348 . S
C238 H276 0.929 . S
N239 Li194 1.990 . S
N239 C236 1.314 . S
N239 C237 1.279 . S
C240 C237 1.358 . S
C240 C241 1.356 . S
C240 H277 0.930 . S
C241 C238 1.348 . S
C241 C240 1.356 . S
H242 C236 0.930 . S
H243 C237 0.930 . S
C244 N245 1.314 . S
C244 C246 1.353 . S
C244 H250 0.930 . S
N245 Li195 1.990 . S
N245 C244 1.314 . S
N245 C248 1.279 . S
C246 C244 1.353 . S
C246 C249 1.348 . S
C246 H278 0.929 . S
C247 C248 1.358 . S
C247 C249 1.356 . S
C247 H279 0.930 . S
C248 N245 1.279 . S
C248 C247 1.358 . S
C248 H251 0.930 . S
C249 C246 1.348 . S
C249 C247 1.356 . S
H250 C244 0.930 . S
H251 C248 0.930 . S
O252 Li192 1.956 . S
O252 Li193 1.970 . S
O252 Li194 1.961 1_554 S
O252 C196 1.325 . S
O253 Li192 1.970 . S
O253 Li193 1.956 . S
O253 Li195 1.961 . S
O253 C202 1.325 . S
O254 Li192 1.961 1_556 S
O254 Li194 1.956 . S
O254 Li195 1.970 1_556 S
O254 C224 1.325 . S
O255 Li193 1.961 . S
O255 Li194 1.970 1_554 S
O255 Li195 1.956 . S
O255 C230 1.325 . S
H256 C198 0.929 . S
H257 C199 0.930 . S
H258 C200 0.930 . S
H259 C201 0.930 . S
H260 C203 0.930 . S
H261 C205 0.929 . S
H262 C206 0.930 . S
H263 C207 0.930 . S
H264 C210 0.930 . S
H265 C213 0.929 . S
H266 C218 0.929 . S
H267 C219 0.930 . S
H268 C226 0.929 . S
H269 C227 0.930 . S
H270 C228 0.930 . S
H271 C229 0.930 . S
H272 C231 0.929 . S
H273 C232 0.930 . S
H274 C233 0.930 . S
H275 C234 0.930 . S
H276 C238 0.929 . S
H277 C240 0.930 . S
H278 C246 0.929 . S
H279 C247 0.930 . S
Li280 N297 1.990 . S
Li280 O340 1.956 . S
Li280 O341 1.970 . S
Li280 O342 1.961 . S
Li281 N305 1.990 . S
Li281 O340 1.970 . S
Li281 O341 1.956 . S
Li281 O343 1.961 . S
Li282 N327 1.990 . S
Li282 O340 1.961 . S
Li282 O342 1.956 . S
Li282 O343 1.970 . S
Li283 N333 1.990 . S
Li283 O341 1.961 . S
Li283 O342 1.970 . S
Li283 O343 1.956 . S
C284 C286 1.348 . S
C284 C287 1.356 . S
C284 O340 1.325 . S
N285 C288 1.314 . S
N285 C289 1.279 . S
C286 C284 1.348 . S
C286 C288 1.353 . S
C286 H344 0.929 . S
C287 C284 1.356 . S
C287 C289 1.358 . S
C287 H345 0.930 . S
C288 N285 1.314 . S
C288 C286 1.353 . S
C288 H346 0.930 . S
C289 N285 1.279 . S
C289 C287 1.358 . S
C289 H347 0.930 . S
C290 C293 1.348 . S
C290 C294 1.356 . S
C290 O341 1.325 . S
C291 N292 1.279 . S
C291 C294 1.358 . S
C291 H348 0.930 . S
N292 C291 1.279 . S
N292 C295 1.314 . S
C293 C290 1.348 . S
C293 C295 1.353 . S
C293 H349 0.929 . S
C294 C290 1.356 . S
C294 C291 1.358 . S
C294 H350 0.930 . S
C295 N292 1.314 . S
C295 C293 1.353 . S
C295 H351 0.930 . S
C296 N297 1.314 . S
C296 C301 1.353 . S
C296 H302 0.930 . S
N297 Li280 1.990 . S
N297 C296 1.314 . S
N297 C299 1.279 . S
C298 C299 1.358 . S
C298 C300 1.356 . S
C298 H352 0.930 . S
C299 N297 1.279 . S
C299 C298 1.358 . S
C299 H303 0.930 . S
C300 C298 1.356 . S
C300 C301 1.348 . S
C301 C296 1.353 . S
C301 C300 1.348 . S
C301 H353 0.929 . S
H302 C296 0.930 . S
H303 C299 0.930 . S
C304 N305 1.314 . S
C304 C306 1.353 . S
C304 H310 0.930 . S
N305 Li281 1.990 . S
N305 C304 1.314 . S
N305 C308 1.279 . S
C306 C304 1.353 . S
C306 C309 1.348 . S
C306 H354 0.929 . S
C307 C308 1.358 . S
C307 C309 1.356 . S
C307 H355 0.930 . S
C308 N305 1.279 . S
C308 C307 1.358 . S
C308 H311 0.930 . S
C309 C306 1.348 . S
C309 C307 1.356 . S
H310 C304 0.930 . S
H311 C308 0.930 . S
C312 C314 1.348 . S
C312 C315 1.356 . S
C312 O342 1.325 . S
N313 C316 1.314 . S
N313 C317 1.279 . S
C314 C312 1.348 . S
C314 C316 1.353 . S
C314 H356 0.929 . S
C315 C312 1.356 . S
C315 C317 1.358 . S
C315 H357 0.930 . S
C316 N313 1.314 . S
C316 C314 1.353 . S
C316 H358 0.930 . S
C317 N313 1.279 . S
C317 C315 1.358 . S
C317 H359 0.930 . S
C318 C319 1.348 . S
C318 C320 1.356 . S
C318 O343 1.325 . S
C319 C318 1.348 . S
C319 C321 1.353 . S
C319 H360 0.929 . S
C320 C318 1.356 . S
C320 C322 1.358 . S
C320 H361 0.930 . S
C321 C319 1.353 . S
C321 N323 1.314 . S
C321 H362 0.930 . S
C322 C320 1.358 . S
C322 N323 1.279 . S
C322 H363 0.930 . S
N323 C321 1.314 . S
N323 C322 1.279 . S
C324 C326 1.353 . S
C324 N327 1.314 . S
C324 H330 0.930 . S
C325 N327 1.279 . S
C325 C328 1.358 . S
C325 H331 0.930 . S
C326 C324 1.353 . S
C326 C329 1.348 . S
C326 H364 0.929 . S
N327 Li282 1.990 . S
N327 C324 1.314 . S
N327 C325 1.279 . S
C328 C325 1.358 . S
C328 C329 1.356 . S
C328 H365 0.930 . S
C329 C326 1.348 . S
C329 C328 1.356 . S
H330 C324 0.930 . S
H331 C325 0.930 . S
C332 N333 1.314 . S
C332 C334 1.353 . S
C332 H338 0.930 . S
N333 Li283 1.990 . S
N333 C332 1.314 . S
N333 C336 1.279 . S
C334 C332 1.353 . S
C334 C337 1.348 . S
C334 H366 0.929 . S
C335 C336 1.358 . S
C335 C337 1.356 . S
C335 H367 0.930 . S
C336 N333 1.279 . S
C336 C335 1.358 . S
C336 H339 0.930 . S
C337 C334 1.348 . S
C337 C335 1.356 . S
H338 C332 0.930 . S
H339 C336 0.930 . S
O340 Li280 1.956 . S
O340 Li281 1.970 . S
O340 Li282 1.961 . S
O340 C284 1.325 . S
O341 Li280 1.970 . S
O341 Li281 1.956 . S
O341 Li283 1.961 . S
O341 C290 1.325 . S
O342 Li280 1.961 . S
O342 Li282 1.956 . S
O342 Li283 1.970 . S
O342 C312 1.325 . S
O343 Li281 1.961 . S
O343 Li282 1.970 . S
O343 Li283 1.956 . S
O343 C318 1.325 . S
H344 C286 0.929 . S
H345 C287 0.930 . S
H346 C288 0.930 . S
H347 C289 0.930 . S
H348 C291 0.930 . S
H349 C293 0.929 . S
H350 C294 0.930 . S
H351 C295 0.930 . S
H352 C298 0.930 . S
H353 C301 0.929 . S
H354 C306 0.929 . S
H355 C307 0.930 . S
H356 C314 0.929 . S
H357 C315 0.930 . S
H358 C316 0.930 . S
H359 C317 0.930 . S
H360 C319 0.929 . S
H361 C320 0.930 . S
H362 C321 0.930 . S
H363 C322 0.930 . S
H364 C326 0.929 . S
H365 C328 0.930 . S
H366 C334 0.929 . S
H367 C335 0.930 . S
Li368 N385 1.990 . S
Li368 O428 1.956 . S
Li368 O429 1.970 1_556 S
Li368 O430 1.961 . S
Li369 N393 1.990 . S
Li369 O428 1.970 1_554 S
Li369 O429 1.956 . S
Li369 O431 1.961 . S
Li370 N415 1.990 . S
Li370 O428 1.961 . S
Li370 O430 1.956 . S
Li370 O431 1.970 1_556 S
Li371 N421 1.990 . S
Li371 O429 1.961 . S
Li371 O430 1.970 1_554 S
Li371 O431 1.956 . S
C372 C374 1.348 1_556 S
C372 C375 1.356 . S
C372 O428 1.325 . S
N373 C376 1.314 1_556 S
N373 C377 1.279 . S
C374 C372 1.348 1_554 S
C374 C376 1.353 . S
C374 H432 0.929 . S
C375 C372 1.356 . S
C375 C377 1.358 . S
C375 H433 0.930 . S
C376 N373 1.314 1_554 S
C376 C374 1.353 . S
C376 H434 0.930 . S
C377 N373 1.279 . S
C377 C375 1.358 . S
C377 H435 0.930 . S
C378 C381 1.348 . S
C378 C382 1.356 . S
C378 O429 1.325 . S
C379 N380 1.279 . S
C379 C382 1.358 . S
C379 H436 0.930 . S
N380 C379 1.279 . S
N380 C383 1.314 . S
C381 C378 1.348 . S
C381 C383 1.353 . S
C381 H437 0.929 . S
C382 C378 1.356 . S
C382 C379 1.358 . S
C382 H438 0.930 . S
C383 N380 1.314 . S
C383 C381 1.353 . S
C383 H439 0.930 . S
C384 N385 1.314 . S
C384 C389 1.353 . S
C384 H390 0.930 . S
N385 Li368 1.990 . S
N385 C384 1.314 . S
N385 C387 1.279 . S
C386 C387 1.358 . S
C386 C388 1.356 . S
C386 H440 0.930 . S
C387 N385 1.279 . S
C387 C386 1.358 . S
C387 H391 0.930 . S
C388 C386 1.356 . S
C388 C389 1.348 . S
C389 C384 1.353 . S
C389 C388 1.348 . S
C389 H441 0.929 . S
H390 C384 0.930 . S
H391 C387 0.930 . S
C392 N393 1.314 . S
C392 C394 1.353 . S
C392 H398 0.930 . S
N393 Li369 1.990 . S
N393 C392 1.314 . S
N393 C396 1.279 . S
C394 C392 1.353 . S
C394 C397 1.348 . S
C394 H442 0.929 . S
C395 C396 1.358 . S
C395 C397 1.356 . S
C395 H443 0.930 . S
C396 N393 1.279 . S
C396 C395 1.358 . S
C396 H399 0.930 . S
C397 C394 1.348 . S
C397 C395 1.356 . S
H398 C392 0.930 . S
H399 C396 0.930 . S
C400 C402 1.348 . S
C400 C403 1.356 . S
C400 O430 1.325 . S
N401 C404 1.314 . S
N401 C405 1.279 . S
C402 C400 1.348 . S
C402 C404 1.353 . S
C402 H444 0.929 . S
C403 C400 1.356 . S
C403 C405 1.358 . S
C403 H445 0.930 . S
C404 N401 1.314 . S
C404 C402 1.353 . S
C404 H446 0.930 . S
C405 N401 1.279 . S
C405 C403 1.358 . S
C405 H447 0.930 . S
C406 C407 1.348 1_554 S
C406 C408 1.356 . S
C406 O431 1.325 . S
C407 C406 1.348 1_556 S
C407 C409 1.353 . S
C407 H448 0.929 . S
C408 C406 1.356 . S
C408 C410 1.358 . S
C408 H449 0.930 . S
C409 C407 1.353 . S
C409 N411 1.314 1_556 S
C409 H450 0.930 . S
C410 C408 1.358 . S
C410 N411 1.279 . S
C410 H451 0.930 . S
N411 C409 1.314 1_554 S
N411 C410 1.279 . S
C412 C414 1.353 . S
C412 N415 1.314 . S
C412 H418 0.930 . S
C413 N415 1.279 . S
C413 C416 1.358 . S
C413 H419 0.930 . S
C414 C412 1.353 . S
C414 C417 1.348 . S
C414 H452 0.929 . S
N415 Li370 1.990 . S
N415 C412 1.314 . S
N415 C413 1.279 . S
C416 C413 1.358 . S
C416 C417 1.356 . S
C416 H453 0.930 . S
C417 C414 1.348 . S
C417 C416 1.356 . S
H418 C412 0.930 . S
H419 C413 0.930 . S
C420 N421 1.314 . S
C420 C422 1.353 . S
C420 H426 0.930 . S
N421 Li371 1.990 . S
N421 C420 1.314 . S
N421 C424 1.279 . S
C422 C420 1.353 . S
C422 C425 1.348 . S
C422 H454 0.929 . S
C423 C424 1.358 . S
C423 C425 1.356 . S
C423 H455 0.930 . S
C424 N421 1.279 . S
C424 C423 1.358 . S
C424 H427 0.930 . S
C425 C422 1.348 . S
C425 C423 1.356 . S
H426 C420 0.930 . S
H427 C424 0.930 . S
O428 Li368 1.956 . S
O428 Li369 1.970 1_556 S
O428 Li370 1.961 . S
O428 C372 1.325 . S
O429 Li368 1.970 1_554 S
O429 Li369 1.956 . S
O429 Li371 1.961 . S
O429 C378 1.325 . S
O430 Li368 1.961 . S
O430 Li370 1.956 . S
O430 Li371 1.970 1_556 S
O430 C400 1.325 . S
O431 Li369 1.961 . S
O431 Li370 1.970 1_554 S
O431 Li371 1.956 . S
O431 C406 1.325 . S
H432 C374 0.929 . S
H433 C375 0.930 . S
H434 C376 0.930 . S
H435 C377 0.930 . S
H436 C379 0.930 . S
H437 C381 0.929 . S
H438 C382 0.930 . S
H439 C383 0.930 . S
H440 C386 0.930 . S
H441 C389 0.929 . S
H442 C394 0.929 . S
H443 C395 0.930 . S
H444 C402 0.929 . S
H445 C403 0.930 . S
H446 C404 0.930 . S
H447 C405 0.930 . S
H448 C407 0.929 . S
H449 C408 0.930 . S
H450 C409 0.930 . S
H451 C410 0.930 . S
H452 C414 0.929 . S
H453 C416 0.930 . S
H454 C422 0.929 . S
H455 C423 0.930 . S
Li456 N473 1.990 . S
Li456 O516 1.956 . S
Li456 O517 1.970 . S
Li456 O518 1.961 . S
Li457 N481 1.990 . S
Li457 O516 1.970 . S
Li457 O517 1.956 . S
Li457 O519 1.961 1_545 S
Li458 N503 1.990 . S
Li458 O516 1.961 . S
Li458 O518 1.956 . S
Li458 O519 1.970 1_545 S
Li459 N509 1.990 . S
Li459 O517 1.961 1_565 S
Li459 O518 1.970 1_565 S
Li459 O519 1.956 . S
C460 C462 1.348 . S
C460 C463 1.356 . S
C460 O516 1.325 . S
N461 C464 1.314 . S
N461 C465 1.279 . S
C462 C460 1.348 . S
C462 C464 1.353 . S
C462 H520 0.929 . S
C463 C460 1.356 . S
C463 C465 1.358 . S
C463 H521 0.930 . S
C464 N461 1.314 . S
C464 C462 1.353 . S
C464 H522 0.927 . S
C465 N461 1.279 . S
C465 C463 1.358 . S
C465 H523 0.930 . S
C466 C469 1.348 . S
C466 C470 1.356 1_545 S
C466 O517 1.325 . S
C467 N468 1.279 1_565 S
C467 C470 1.358 . S
C467 H524 0.930 . S
N468 C467 1.279 1_545 S
N468 C471 1.314 . S
C469 C466 1.348 . S
C469 C471 1.353 . S
C469 H525 0.929 . S
C470 C466 1.356 1_565 S
C470 C467 1.358 . S
C470 H526 0.930 . S
C471 N468 1.314 . S
C471 C469 1.353 . S
C471 H527 0.930 . S
C472 N473 1.314 . S
C472 C477 1.353 . S
C472 H478 0.930 . S
N473 Li456 1.990 . S
N473 C472 1.314 . S
N473 C475 1.279 . S
C474 C475 1.358 . S
C474 C476 1.356 . S
C474 H528 0.930 . S
C475 N473 1.279 . S
C475 C474 1.358 . S
C475 H479 0.930 . S
C476 C474 1.356 . S
C476 C477 1.348 . S
C477 C472 1.353 . S
C477 C476 1.348 . S
C477 H529 0.929 . S
H478 C472 0.930 . S
H479 C475 0.930 . S
C480 N481 1.314 . S
C480 C482 1.353 1_655 S
C480 H486 0.930 . S
N481 Li457 1.990 . S
N481 C480 1.314 . S
N481 C484 1.279 . S
C482 C480 1.353 1_455 S
C482 C485 1.348 . S
C482 H530 0.939 . S
C483 C484 1.358 . S
C483 C485 1.356 1_655 S
C483 H531 0.930 . S
C484 N481 1.279 . S
C484 C483 1.358 . S
C484 H487 0.930 . S
C485 C482 1.348 . S
C485 C483 1.356 1_455 S
H486 C480 0.930 . S
H487 C484 0.930 . S
C488 C490 1.348 . S
C488 C491 1.356 . S
C488 O518 1.325 . S
N489 C492 1.314 . S
N489 C493 1.279 . S
C490 C488 1.348 . S
C490 C492 1.353 . S
C490 H532 0.929 1_545 S
C491 C488 1.356 . S
C491 C493 1.358 . S
C491 H533 0.930 . S
C492 N489 1.314 . S
C492 C490 1.353 . S
C492 H534 0.930 1_545 S
C493 N489 1.279 . S
C493 C491 1.358 . S
C493 H535 0.930 . S
C494 C495 1.348 . S
C494 C496 1.356 . S
C494 O519 1.325 . S
C495 C494 1.348 . S
C495 C497 1.353 . S
C495 H536 0.929 . S
C496 C494 1.356 . S
C496 C498 1.358 . S
C496 H537 0.930 . S
C497 C495 1.353 . S
C497 N499 1.314 . S
C497 H538 0.930 . S
C498 C496 1.358 . S
C498 N499 1.279 . S
C498 H539 0.930 . S
N499 C497 1.314 . S
N499 C498 1.279 . S
C500 C502 1.353 1_655 S
C500 N503 1.314 . S
C500 H506 0.930 . S
C501 N503 1.279 . S
C501 C504 1.358 . S
C501 H507 0.930 . S
C502 C500 1.353 1_455 S
C502 C505 1.348 1_455 S
C502 H540 0.929 . S
N503 Li458 1.990 . S
N503 C500 1.314 . S
N503 C501 1.279 . S
C504 C501 1.358 . S
C504 C505 1.356 . S
C504 H541 0.930 . S
C505 C502 1.348 1_655 S
C505 C504 1.356 . S
H506 C500 0.930 . S
H507 C501 0.930 . S
C508 N509 1.314 . S
C508 C510 1.353 . S
C508 H514 0.930 . S
N509 Li459 1.990 . S
N509 C508 1.314 . S
N509 C512 1.279 . S
C510 C508 1.353 . S
C510 C513 1.348 . S
C510 H542 0.929 . S
C511 C512 1.358 . S
C511 C513 1.356 . S
C511 H543 0.930 . S
C512 N509 1.279 . S
C512 C511 1.358 . S
C512 H515 0.930 . S
C513 C510 1.348 . S
C513 C511 1.356 . S
H514 C508 0.930 . S
H515 C512 0.930 . S
O516 Li456 1.956 . S
O516 Li457 1.970 . S
O516 Li458 1.961 . S
O516 C460 1.325 . S
O517 Li456 1.970 . S
O517 Li457 1.956 . S
O517 Li459 1.961 1_545 S
O517 C466 1.325 . S
O518 Li456 1.961 . S
O518 Li458 1.956 . S
O518 Li459 1.970 1_545 S
O518 C488 1.325 . S
O519 Li457 1.961 1_565 S
O519 Li458 1.970 1_565 S
O519 Li459 1.956 . S
O519 C494 1.325 . S
H520 C462 0.929 . S
H521 C463 0.930 . S
H522 C464 0.927 . S
H523 C465 0.930 . S
H524 C467 0.930 . S
H525 C469 0.929 . S
H526 C470 0.930 . S
H527 C471 0.930 . S
H528 C474 0.930 . S
H529 C477 0.929 . S
H530 C482 0.939 . S
H531 C483 0.930 . S
H532 C490 0.929 1_565 S
H533 C491 0.930 . S
H534 C492 0.930 1_565 S
H535 C493 0.930 . S
H536 C495 0.929 . S
H537 C496 0.930 . S
H538 C497 0.930 . S
H539 C498 0.930 . S
H540 C502 0.929 . S
H541 C504 0.930 . S
H542 C510 0.929 . S
H543 C511 0.930 . S
Li544 N561 1.990 . S
Li544 O604 1.956 . S
Li544 O605 1.970 . S
Li544 O606 1.961 . S
Li545 N569 1.990 . S
Li545 O604 1.970 . S
Li545 O605 1.956 . S
Li545 O607 1.961 . S
Li546 N591 1.990 . S
Li546 O604 1.961 . S
Li546 O606 1.956 . S
Li546 O607 1.970 . S
Li547 N597 1.990 . S
Li547 O605 1.961 . S
Li547 O606 1.970 . S
Li547 O607 1.956 . S
C548 C550 1.348 . S
C548 C551 1.356 . S
C548 O604 1.325 . S
N549 C552 1.314 . S
N549 C553 1.279 . S
C550 C548 1.348 . S
C550 C552 1.353 . S
C550 H608 0.929 . S
C551 C548 1.356 . S
C551 C553 1.358 . S
C551 H609 0.930 . S
C552 N549 1.314 . S
C552 C550 1.353 . S
C552 H610 0.930 . S
C553 N549 1.279 . S
C553 C551 1.358 . S
C553 H611 0.930 . S
C554 C557 1.348 . S
C554 C558 1.356 . S
C554 O605 1.325 . S
C555 N556 1.279 . S
C555 C558 1.358 . S
C555 H612 0.930 . S
N556 C555 1.279 . S
N556 C559 1.314 . S
C557 C554 1.348 . S
C557 C559 1.353 . S
C557 H613 0.929 . S
C558 C554 1.356 . S
C558 C555 1.358 . S
C558 H614 0.930 . S
C559 N556 1.314 . S
C559 C557 1.353 . S
C559 H615 0.930 . S
C560 N561 1.314 . S
C560 C565 1.353 . S
C560 H566 0.930 . S
N561 Li544 1.990 . S
N561 C560 1.314 . S
N561 C563 1.279 . S
C562 C563 1.358 . S
C562 C564 1.356 . S
C562 H616 0.930 . S
C563 N561 1.279 . S
C563 C562 1.358 . S
C563 H567 0.930 . S
C564 C562 1.356 . S
C564 C565 1.348 . S
C565 C560 1.353 . S
C565 C564 1.348 . S
C565 H617 0.929 . S
H566 C560 0.930 . S
H567 C563 0.930 . S
C568 N569 1.314 . S
C568 C570 1.353 . S
C568 H574 0.930 . S
N569 Li545 1.990 . S
N569 C568 1.314 . S
N569 C572 1.279 . S
C570 C568 1.353 . S
C570 C573 1.348 . S
C570 H618 0.929 . S
C571 C572 1.358 . S
C571 C573 1.356 . S
C571 H619 0.930 . S
C572 N569 1.279 . S
C572 C571 1.358 . S
C572 H575 0.930 . S
C573 C570 1.348 . S
C573 C571 1.356 . S
H574 C568 0.930 . S
H575 C572 0.930 . S
C576 C578 1.348 . S
C576 C579 1.356 . S
C576 O606 1.325 . S
N577 C580 1.314 . S
N577 C581 1.279 . S
C578 C576 1.348 . S
C578 C580 1.353 . S
C578 H620 0.929 . S
C579 C576 1.356 . S
C579 C581 1.358 . S
C579 H621 0.930 . S
C580 N577 1.314 . S
C580 C578 1.353 . S
C580 H622 0.930 . S
C581 N577 1.279 . S
C581 C579 1.358 . S
C581 H623 0.930 . S
C582 C583 1.348 . S
C582 C584 1.356 . S
C582 O607 1.325 . S
C583 C582 1.348 . S
C583 C585 1.353 . S
C583 H624 0.929 . S
C584 C582 1.356 . S
C584 C586 1.358 . S
C584 H625 0.930 . S
C585 C583 1.353 . S
C585 N587 1.314 . S
C585 H626 0.930 . S
C586 C584 1.358 . S
C586 N587 1.279 . S
C586 H627 0.930 . S
N587 C585 1.314 . S
N587 C586 1.279 . S
C588 C590 1.353 . S
C588 N591 1.314 . S
C588 H594 0.930 . S
C589 N591 1.279 . S
C589 C592 1.358 . S
C589 H595 0.930 . S
C590 C588 1.353 . S
C590 C593 1.348 . S
C590 H628 0.929 . S
N591 Li546 1.990 . S
N591 C588 1.314 . S
N591 C589 1.279 . S
C592 C589 1.358 . S
C592 C593 1.356 . S
C592 H629 0.930 . S
C593 C590 1.348 . S
C593 C592 1.356 . S
H594 C588 0.930 . S
H595 C589 0.930 . S
C596 N597 1.314 . S
C596 C598 1.353 . S
C596 H602 0.930 . S
N597 Li547 1.990 . S
N597 C596 1.314 . S
N597 C600 1.279 . S
C598 C596 1.353 . S
C598 C601 1.348 . S
C598 H630 0.929 . S
C599 C600 1.358 . S
C599 C601 1.356 . S
C599 H631 0.930 . S
C600 N597 1.279 . S
C600 C599 1.358 . S
C600 H603 0.930 . S
C601 C598 1.348 . S
C601 C599 1.356 . S
H602 C596 0.930 . S
H603 C600 0.930 . S
O604 Li544 1.956 . S
O604 Li545 1.970 . S
O604 Li546 1.961 . S
O604 C548 1.325 . S
O605 Li544 1.970 . S
O605 Li545 1.956 . S
O605 Li547 1.961 . S
O605 C554 1.325 . S
O606 Li544 1.961 . S
O606 Li546 1.956 . S
O606 Li547 1.970 . S
O606 C576 1.325 . S
O607 Li545 1.961 . S
O607 Li546 1.970 . S
O607 Li547 1.956 . S
O607 C582 1.325 . S
H608 C550 0.929 . S
H609 C551 0.930 . S
H610 C552 0.930 . S
H611 C553 0.930 . S
H612 C555 0.930 . S
H613 C557 0.929 . S
H614 C558 0.930 . S
H615 C559 0.930 . S
H616 C562 0.930 . S
H617 C565 0.929 . S
H618 C570 0.929 . S
H619 C571 0.930 . S
H620 C578 0.929 . S
H621 C579 0.930 . S
H622 C580 0.930 . S
H623 C581 0.930 . S
H624 C583 0.929 . S
H625 C584 0.930 . S
H626 C585 0.930 . S
H627 C586 0.930 . S
H628 C590 0.929 . S
H629 C592 0.930 . S
H630 C598 0.929 . S
H631 C599 0.930 . S
Li632 N649 1.990 . S
Li632 O692 1.956 . S
Li632 O693 1.970 . S
Li632 O694 1.961 . S
Li633 N657 1.990 . S
Li633 O692 1.970 . S
Li633 O693 1.956 . S
Li633 O695 1.961 . S
Li634 N679 1.990 . S
Li634 O692 1.961 . S
Li634 O694 1.956 . S
Li634 O695 1.970 . S
Li635 N685 1.990 . S
Li635 O693 1.961 . S
Li635 O694 1.970 . S
Li635 O695 1.956 . S
C636 C638 1.348 . S
C636 C639 1.356 . S
C636 O692 1.325 . S
N637 C640 1.314 . S
N637 C641 1.279 . S
C638 C636 1.348 . S
C638 C640 1.353 . S
C638 H696 0.929 . S
C639 C636 1.356 . S
C639 C641 1.358 . S
C639 H697 0.930 . S
C640 N637 1.314 . S
C640 C638 1.353 . S
C640 H698 0.930 . S
C641 N637 1.279 . S
C641 C639 1.358 . S
C641 H699 0.930 . S
C642 C645 1.348 . S
C642 C646 1.356 . S
C642 O693 1.325 . S
C643 N644 1.279 . S
C643 C646 1.358 . S
C643 H700 0.930 . S
N644 C643 1.279 . S
N644 C647 1.314 . S
C645 C642 1.348 . S
C645 C647 1.353 . S
C645 H701 0.929 . S
C646 C642 1.356 . S
C646 C643 1.358 . S
C646 H702 0.930 . S
C647 N644 1.314 . S
C647 C645 1.353 . S
C647 H703 0.930 . S
C648 N649 1.314 . S
C648 C653 1.353 . S
C648 H654 0.930 . S
N649 Li632 1.990 . S
N649 C648 1.314 . S
N649 C651 1.279 . S
C650 C651 1.358 . S
C650 C652 1.356 . S
C650 H704 0.930 . S
C651 N649 1.279 . S
C651 C650 1.358 . S
C651 H655 0.930 . S
C652 C650 1.356 . S
C652 C653 1.348 . S
C653 C648 1.353 . S
C653 C652 1.348 . S
C653 H705 0.929 . S
H654 C648 0.930 . S
H655 C651 0.930 . S
C656 N657 1.314 . S
C656 C658 1.353 . S
C656 H662 0.930 . S
N657 Li633 1.990 . S
N657 C656 1.314 . S
N657 C660 1.279 . S
C658 C656 1.353 . S
C658 C661 1.348 . S
C658 H706 0.929 . S
C659 C660 1.358 . S
C659 C661 1.356 . S
C659 H707 0.930 . S
C660 N657 1.279 . S
C660 C659 1.358 . S
C660 H663 0.930 . S
C661 C658 1.348 . S
C661 C659 1.356 . S
H662 C656 0.930 . S
H663 C660 0.930 . S
C664 C666 1.348 . S
C664 C667 1.356 . S
C664 O694 1.325 . S
N665 C668 1.314 . S
N665 C669 1.279 . S
C666 C664 1.348 . S
C666 C668 1.353 . S
C666 H708 0.929 . S
C667 C664 1.356 . S
C667 C669 1.358 . S
C667 H709 0.930 . S
C668 N665 1.314 . S
C668 C666 1.353 . S
C668 H710 0.930 . S
C669 N665 1.279 . S
C669 C667 1.358 . S
C669 H711 0.930 . S
C670 C671 1.348 . S
C670 C672 1.356 . S
C670 O695 1.325 . S
C671 C670 1.348 . S
C671 C673 1.353 . S
C671 H712 0.929 . S
C672 C670 1.356 . S
C672 C674 1.358 . S
C672 H713 0.930 . S
C673 C671 1.353 . S
C673 N675 1.314 . S
C673 H714 0.930 . S
C674 C672 1.358 . S
C674 N675 1.279 . S
C674 H715 0.930 . S
N675 C673 1.314 . S
N675 C674 1.279 . S
C676 C678 1.353 . S
C676 N679 1.314 . S
C676 H682 0.930 . S
C677 N679 1.279 . S
C677 C680 1.358 . S
C677 H683 0.930 . S
C678 C676 1.353 . S
C678 C681 1.348 . S
C678 H716 0.929 . S
N679 Li634 1.990 . S
N679 C676 1.314 . S
N679 C677 1.279 . S
C680 C677 1.358 . S
C680 C681 1.356 . S
C680 H717 0.930 . S
C681 C678 1.348 . S
C681 C680 1.356 . S
H682 C676 0.930 . S
H683 C677 0.930 . S
C684 N685 1.314 . S
C684 C686 1.353 . S
C684 H690 0.930 . S
N685 Li635 1.990 . S
N685 C684 1.314 . S
N685 C688 1.279 . S
C686 C684 1.353 . S
C686 C689 1.348 . S
C686 H718 0.929 . S
C687 C688 1.358 . S
C687 C689 1.356 . S
C687 H719 0.930 . S
C688 N685 1.279 . S
C688 C687 1.358 . S
C688 H691 0.930 . S
C689 C686 1.348 . S
C689 C687 1.356 . S
H690 C684 0.930 . S
H691 C688 0.930 . S
O692 Li632 1.956 . S
O692 Li633 1.970 . S
O692 Li634 1.961 . S
O692 C636 1.325 . S
O693 Li632 1.970 . S
O693 Li633 1.956 . S
O693 Li635 1.961 . S
O693 C642 1.325 . S
O694 Li632 1.961 . S
O694 Li634 1.956 . S
O694 Li635 1.970 . S
O694 C664 1.325 . S
O695 Li633 1.961 . S
O695 Li634 1.970 . S
O695 Li635 1.956 . S
O695 C670 1.325 . S
H696 C638 0.929 . S
H697 C639 0.930 . S
H698 C640 0.930 . S
H699 C641 0.930 . S
H700 C643 0.930 . S
H701 C645 0.929 . S
H702 C646 0.930 . S
H703 C647 0.930 . S
H704 C650 0.930 . S
H705 C653 0.929 . S
H706 C658 0.929 . S
H707 C659 0.930 . S
H708 C666 0.929 . S
H709 C667 0.930 . S
H710 C668 0.930 . S
H711 C669 0.930 . S
H712 C671 0.929 . S
H713 C672 0.930 . S
H714 C673 0.930 . S
H715 C674 0.930 . S
H716 C678 0.929 . S
H717 C680 0.930 . S
H718 C686 0.929 . S
H719 C687 0.930 . S
Li720 N737 1.990 . S
Li720 O780 1.956 . S
Li720 O781 1.970 . S
Li720 O782 1.961 . S
Li721 N745 1.990 . S
Li721 O780 1.970 . S
Li721 O781 1.956 . S
Li721 O783 1.961 . S
Li722 N767 1.990 . S
Li722 O780 1.961 . S
Li722 O782 1.956 . S
Li722 O783 1.970 . S
Li723 N773 1.990 . S
Li723 O781 1.961 . S
Li723 O782 1.970 . S
Li723 O783 1.956 . S
C724 C726 1.348 . S
C724 C727 1.356 . S
C724 O780 1.325 . S
N725 C728 1.314 . S
N725 C729 1.279 . S
C726 C724 1.348 . S
C726 C728 1.353 . S
C726 H784 0.929 . S
C727 C724 1.356 . S
C727 C729 1.358 . S
C727 H785 0.930 . S
C728 N725 1.314 . S
C728 C726 1.353 . S
C728 H786 0.930 . S
C729 N725 1.279 . S
C729 C727 1.358 . S
C729 H787 0.930 . S
C730 C733 1.348 . S
C730 C734 1.356 . S
C730 O781 1.325 . S
C731 N732 1.279 . S
C731 C734 1.358 . S
C731 H788 0.930 . S
N732 C731 1.279 . S
N732 C735 1.314 . S
C733 C730 1.348 . S
C733 C735 1.353 . S
C733 H789 0.929 . S
C734 C730 1.356 . S
C734 C731 1.358 . S
C734 H790 0.930 . S
C735 N732 1.314 . S
C735 C733 1.353 . S
C735 H791 0.930 . S
C736 N737 1.314 . S
C736 C741 1.353 . S
C736 H742 0.930 . S
N737 Li720 1.990 . S
N737 C736 1.314 . S
N737 C739 1.279 . S
C738 C739 1.358 . S
C738 C740 1.356 . S
C738 H792 0.930 . S
C739 N737 1.279 . S
C739 C738 1.358 . S
C739 H743 0.930 . S
C740 C738 1.356 . S
C740 C741 1.348 . S
C741 C736 1.353 . S
C741 C740 1.348 . S
C741 H793 0.929 . S
H742 C736 0.930 . S
H743 C739 0.930 . S
C744 N745 1.314 . S
C744 C746 1.353 . S
C744 H750 0.930 . S
N745 Li721 1.990 . S
N745 C744 1.314 . S
N745 C748 1.279 . S
C746 C744 1.353 . S
C746 C749 1.348 . S
C746 H794 0.929 . S
C747 C748 1.358 . S
C747 C749 1.356 . S
C747 H795 0.930 . S
C748 N745 1.279 . S
C748 C747 1.358 . S
C748 H751 0.930 . S
C749 C746 1.348 . S
C749 C747 1.356 . S
H750 C744 0.930 . S
H751 C748 0.930 . S
C752 C754 1.348 . S
C752 C755 1.356 . S
C752 O782 1.325 . S
N753 C756 1.314 . S
N753 C757 1.279 . S
C754 C752 1.348 . S
C754 C756 1.353 . S
C754 H796 0.929 . S
C755 C752 1.356 . S
C755 C757 1.358 . S
C755 H797 0.930 . S
C756 N753 1.314 . S
C756 C754 1.353 . S
C756 H798 0.930 . S
C757 N753 1.279 . S
C757 C755 1.358 . S
C757 H799 0.930 . S
C758 C759 1.348 . S
C758 C760 1.356 . S
C758 O783 1.325 . S
C759 C758 1.348 . S
C759 C761 1.353 . S
C759 H800 0.929 . S
C760 C758 1.356 . S
C760 C762 1.358 . S
C760 H801 0.930 . S
C761 C759 1.353 . S
C761 N763 1.314 . S
C761 H802 0.930 . S
C762 C760 1.358 . S
C762 N763 1.279 . S
C762 H803 0.930 . S
N763 C761 1.314 . S
N763 C762 1.279 . S
C764 C766 1.353 . S
C764 N767 1.314 . S
C764 H770 0.930 . S
C765 N767 1.279 . S
C765 C768 1.358 . S
C765 H771 0.930 . S
C766 C764 1.353 . S
C766 C769 1.348 . S
C766 H804 0.929 . S
N767 Li722 1.990 . S
N767 C764 1.314 . S
N767 C765 1.279 . S
C768 C765 1.358 . S
C768 C769 1.356 . S
C768 H805 0.930 . S
C769 C766 1.348 . S
C769 C768 1.356 . S
H770 C764 0.930 . S
H771 C765 0.930 . S
C772 N773 1.314 . S
C772 C774 1.353 . S
C772 H778 0.930 . S
N773 Li723 1.990 . S
N773 C772 1.314 . S
N773 C776 1.279 . S
C774 C772 1.353 . S
C774 C777 1.348 . S
C774 H806 0.929 . S
C775 C776 1.358 . S
C775 C777 1.356 . S
C775 H807 0.930 . S
C776 N773 1.279 . S
C776 C775 1.358 . S
C776 H779 0.930 . S
C777 C774 1.348 . S
C777 C775 1.356 . S
H778 C772 0.930 . S
H779 C776 0.930 . S
O780 Li720 1.956 . S
O780 Li721 1.970 . S
O780 Li722 1.961 . S
O780 C724 1.325 . S
O781 Li720 1.970 . S
O781 Li721 1.956 . S
O781 Li723 1.961 . S
O781 C730 1.325 . S
O782 Li720 1.961 . S
O782 Li722 1.956 . S
O782 Li723 1.970 . S
O782 C752 1.325 . S
O783 Li721 1.961 . S
O783 Li722 1.970 . S
O783 Li723 1.956 . S
O783 C758 1.325 . S
H784 C726 0.929 . S
H785 C727 0.930 . S
H786 C728 0.930 . S
H787 C729 0.930 . S
H788 C731 0.930 . S
H789 C733 0.929 . S
H790 C734 0.930 . S
H791 C735 0.930 . S
H792 C738 0.930 . S
H793 C741 0.929 . S
H794 C746 0.929 . S
H795 C747 0.930 . S
H796 C754 0.929 . S
H797 C755 0.930 . S
H798 C756 0.930 . S
H799 C757 0.930 . S
H800 C759 0.929 . S
H801 C760 0.930 . S
H802 C761 0.930 . S
H803 C762 0.930 . S
H804 C766 0.929 . S
H805 C768 0.930 . S
H806 C774 0.929 . S
H807 C775 0.930 . S
Li808 N825 1.990 . S
Li808 O868 1.956 . S
Li808 O869 1.970 1_565 S
Li808 O870 1.961 . S
Li809 N833 1.990 . S
Li809 O868 1.970 1_545 S
Li809 O869 1.956 . S
Li809 O871 1.961 . S
Li810 N855 1.990 . S
Li810 O868 1.961 . S
Li810 O870 1.956 . S
Li810 O871 1.970 1_565 S
Li811 N861 1.990 . S
Li811 O869 1.961 . S
Li811 O870 1.970 1_545 S
Li811 O871 1.956 . S
C812 C814 1.348 . S
C812 C815 1.356 . S
C812 O868 1.325 . S
N813 C816 1.314 . S
N813 C817 1.279 . S
C814 C812 1.348 . S
C814 C816 1.353 . S
C814 H872 0.929 . S
C815 C812 1.356 . S
C815 C817 1.358 . S
C815 H873 0.930 . S
C816 N813 1.314 . S
C816 C814 1.353 . S
C816 H874 0.930 . S
C817 N813 1.279 . S
C817 C815 1.358 . S
C817 H875 0.930 . S
C818 C821 1.348 1_545 S
C818 C822 1.356 . S
C818 O869 1.325 . S
C819 N820 1.279 . S
C819 C822 1.358 . S
C819 H876 0.930 . S
N820 C819 1.279 . S
N820 C823 1.314 1_545 S
C821 C818 1.348 1_565 S
C821 C823 1.353 . S
C821 H877 0.929 . S
C822 C818 1.356 . S
C822 C819 1.358 . S
C822 H878 0.930 . S
C823 N820 1.314 1_565 S
C823 C821 1.353 . S
C823 H879 0.930 . S
C824 N825 1.314 . S
C824 C829 1.353 . S
C824 H830 0.930 . S
N825 Li808 1.990 . S
N825 C824 1.314 . S
N825 C827 1.279 . S
C826 C827 1.358 . S
C826 C828 1.356 . S
C826 H880 0.930 . S
C827 N825 1.279 . S
C827 C826 1.358 . S
C827 H831 0.930 . S
C828 C826 1.356 . S
C828 C829 1.348 . S
C829 C824 1.353 . S
C829 C828 1.348 . S
C829 H881 0.929 . S
H830 C824 0.930 . S
H831 C827 0.930 . S
C832 N833 1.314 . S
C832 C834 1.353 . S
C832 H838 0.930 . S
N833 Li809 1.990 . S
N833 C832 1.314 . S
N833 C836 1.279 . S
C834 C832 1.353 . S
C834 C837 1.348 . S
C834 H882 0.929 . S
C835 C836 1.358 . S
C835 C837 1.356 . S
C835 H883 0.930 . S
C836 N833 1.279 . S
C836 C835 1.358 . S
C836 H839 0.930 . S
C837 C834 1.348 . S
C837 C835 1.356 . S
H838 C832 0.930 . S
H839 C836 0.930 . S
C840 C842 1.348 1_565 S
C840 C843 1.356 . S
C840 O870 1.325 . S
N841 C844 1.314 1_565 S
N841 C845 1.279 . S
C842 C840 1.348 1_545 S
C842 C844 1.353 . S
C842 H884 0.929 . S
C843 C840 1.356 . S
C843 C845 1.358 . S
C843 H885 0.930 . S
C844 N841 1.314 1_545 S
C844 C842 1.353 . S
C844 H886 0.930 . S
C845 N841 1.279 . S
C845 C843 1.358 . S
C845 H887 0.930 . S
C846 C847 1.348 . S
C846 C848 1.356 . S
C846 O871 1.325 . S
C847 C846 1.348 . S
C847 C849 1.353 . S
C847 H888 0.929 . S
C848 C846 1.356 . S
C848 C850 1.358 . S
C848 H889 0.930 . S
C849 C847 1.353 . S
C849 N851 1.314 . S
C849 H890 0.930 . S
C850 C848 1.358 . S
C850 N851 1.279 . S
C850 H891 0.930 . S
N851 C849 1.314 . S
N851 C850 1.279 . S
C852 C854 1.353 . S
C852 N855 1.314 . S
C852 H858 0.930 . S
C853 N855 1.279 . S
C853 C856 1.358 . S
C853 H859 0.930 . S
C854 C852 1.353 . S
C854 C857 1.348 . S
C854 H892 0.929 . S
N855 Li810 1.990 . S
N855 C852 1.314 . S
N855 C853 1.279 . S
C856 C853 1.358 . S
C856 C857 1.356 . S
C856 H893 0.930 . S
C857 C854 1.348 . S
C857 C856 1.356 . S
H858 C852 0.930 . S
H859 C853 0.930 . S
C860 N861 1.314 . S
C860 C862 1.353 . S
C860 H866 0.930 . S
N861 Li811 1.990 . S
N861 C860 1.314 . S
N861 C864 1.279 . S
C862 C860 1.353 . S
C862 C865 1.348 . S
C862 H894 0.929 . S
C863 C864 1.358 . S
C863 C865 1.356 . S
C863 H895 0.930 . S
C864 N861 1.279 . S
C864 C863 1.358 . S
C864 H867 0.930 . S
C865 C862 1.348 . S
C865 C863 1.356 . S
H866 C860 0.930 . S
H867 C864 0.930 . S
O868 Li808 1.956 . S
O868 Li809 1.970 1_565 S
O868 Li810 1.961 . S
O868 C812 1.325 . S
O869 Li808 1.970 1_545 S
O869 Li809 1.956 . S
O869 Li811 1.961 . S
O869 C818 1.325 . S
O870 Li808 1.961 . S
O870 Li810 1.956 . S
O870 Li811 1.970 1_565 S
O870 C840 1.325 . S
O871 Li809 1.961 . S
O871 Li810 1.970 1_545 S
O871 Li811 1.956 . S
O871 C846 1.325 . S
H872 C814 0.929 . S
H873 C815 0.930 . S
H874 C816 0.930 . S
H875 C817 0.930 . S
H876 C819 0.930 . S
H877 C821 0.929 . S
H878 C822 0.930 . S
H879 C823 0.930 . S
H880 C826 0.930 . S
H881 C829 0.929 . S
H882 C834 0.929 . S
H883 C835 0.930 . S
H884 C842 0.929 . S
H885 C843 0.930 . S
H886 C844 0.930 . S
H887 C845 0.930 . S
H888 C847 0.929 . S
H889 C848 0.930 . S
H890 C849 0.930 . S
H891 C850 0.930 . S
H892 C854 0.929 . S
H893 C856 0.930 . S
H894 C862 0.929 . S
H895 C863 0.930 . S
Li896 N913 1.990 . S
Li896 O956 1.956 . S
Li896 O957 1.970 . S
Li896 O958 1.961 . S
Li897 N921 1.990 1_455 S
Li897 O956 1.970 . S
Li897 O957 1.956 . S
Li897 O959 1.961 1_455 S
Li898 N943 1.990 . S
Li898 O956 1.961 . S
Li898 O958 1.956 . S
Li898 O959 1.970 1_455 S
Li899 N949 1.990 . S
Li899 O957 1.961 1_655 S
Li899 O958 1.970 1_655 S
Li899 O959 1.956 . S
C900 C902 1.348 . S
C900 C903 1.356 . S
C900 O956 1.325 . S
N901 C904 1.314 . S
N901 C905 1.279 . S
C902 C900 1.348 . S
C902 C904 1.353 . S
C902 H960 0.929 . S
C903 C900 1.356 . S
C903 C905 1.358 . S
C903 H961 0.930 . S
C904 N901 1.314 . S
C904 C902 1.353 . S
C904 H962 0.930 . S
C905 N901 1.279 . S
C905 C903 1.358 . S
C905 H963 0.930 . S
C906 C909 1.324 1_655 S
C906 C910 1.384 . S
C906 O957 1.320 1_655 S
C907 N908 1.279 . S
C907 C910 1.358 . S
C907 H964 0.930 . S
N908 C907 1.279 . S
N908 C911 1.314 1_655 S
C909 C906 1.324 1_455 S
C909 C911 1.353 . S
C909 H965 0.929 . S
C910 C906 1.384 . S
C910 C907 1.358 . S
C910 H966 0.930 . S
C911 N908 1.314 1_455 S
C911 C909 1.353 . S
C911 H967 0.930 . S
C912 N913 1.314 . S
C912 C917 1.353 . S
C912 H918 0.930 . S
N913 Li896 1.990 . S
N913 C912 1.314 . S
N913 C915 1.279 . S
C914 C915 1.358 . S
C914 C916 1.356 . S
C914 H968 0.930 . S
C915 N913 1.279 . S
C915 C914 1.358 . S
C915 H919 0.930 . S
C916 C914 1.356 . S
C916 C917 1.348 . S
C917 C912 1.353 . S
C917 C916 1.348 . S
C917 H969 0.929 . S
H918 C912 0.930 . S
H919 C915 0.930 . S
C920 N921 1.314 . S
C920 C922 1.353 . S
C920 H926 0.930 . S
N921 Li897 1.990 1_655 S
N921 C920 1.314 . S
N921 C924 1.278 1_655 S
C922 C920 1.353 . S
C922 C925 1.348 . S
C922 H970 0.929 . S
C923 C924 1.354 1_655 S
C923 C925 1.356 . S
C923 H971 0.929 1_655 S
C924 N921 1.278 1_455 S
C924 C923 1.354 1_455 S
C924 H927 0.939 . S
C925 C922 1.348 . S
C925 C923 1.356 . S
H926 C920 0.930 . S
H927 C924 0.939 . S
C928 C930 1.348 1_455 S
C928 C931 1.356 . S
C928 O958 1.325 . S
N929 C932 1.314 1_455 S
N929 C933 1.279 . S
C930 C928 1.348 1_655 S
C930 C932 1.353 . S
C930 H972 0.929 . S
C931 C928 1.356 . S
C931 C933 1.358 . S
C931 H973 0.930 . S
C932 N929 1.314 1_655 S
C932 C930 1.353 . S
C932 H974 0.930 . S
C933 N929 1.279 . S
C933 C931 1.358 . S
C933 H975 0.930 . S
C934 C935 1.348 . S
C934 C936 1.356 . S
C934 O959 1.325 . S
C935 C934 1.348 . S
C935 C937 1.353 . S
C935 H976 0.929 . S
C936 C934 1.356 . S
C936 C938 1.358 . S
C936 H977 0.930 . S
C937 C935 1.353 . S
C937 N939 1.314 . S
C937 H978 0.930 . S
C938 C936 1.358 . S
C938 N939 1.279 . S
C938 H979 0.930 . S
N939 C937 1.314 . S
N939 C938 1.279 . S
C940 C942 1.353 . S
C940 N943 1.314 . S
C940 H946 0.930 . S
C941 N943 1.279 . S
C941 C944 1.358 . S
C941 H947 0.930 . S
C942 C940 1.353 . S
C942 C945 1.348 . S
C942 H980 0.929 . S
N943 Li898 1.990 . S
N943 C940 1.314 . S
N943 C941 1.279 . S
C944 C941 1.358 . S
C944 C945 1.356 . S
C944 H981 0.930 . S
C945 C942 1.348 . S
C945 C944 1.356 . S
H946 C940 0.930 . S
H947 C941 0.930 . S
C948 N949 1.314 . S
C948 C950 1.353 . S
C948 H954 0.930 . S
N949 Li899 1.990 . S
N949 C948 1.314 . S
N949 C952 1.279 . S
C950 C948 1.353 . S
C950 C953 1.348 . S
C950 H982 0.929 . S
C951 C952 1.358 . S
C951 C953 1.356 . S
C951 H983 0.930 . S
C952 N949 1.279 . S
C952 C951 1.358 . S
C952 H955 0.930 . S
C953 C950 1.348 . S
C953 C951 1.356 . S
H954 C948 0.930 . S
H955 C952 0.930 . S
O956 Li896 1.956 . S
O956 Li897 1.970 . S
O956 Li898 1.961 . S
O956 C900 1.325 . S
O957 Li896 1.970 . S
O957 Li897 1.956 . S
O957 Li899 1.961 1_455 S
O957 C906 1.320 1_455 S
O958 Li896 1.961 . S
O958 Li898 1.956 . S
O958 Li899 1.970 1_455 S
O958 C928 1.325 . S
O959 Li897 1.961 1_655 S
O959 Li898 1.970 1_655 S
O959 Li899 1.956 . S
O959 C934 1.325 . S
H960 C902 0.929 . S
H961 C903 0.930 . S
H962 C904 0.930 . S
H963 C905 0.930 . S
H964 C907 0.930 . S
H965 C909 0.929 . S
H966 C910 0.930 . S
H967 C911 0.930 . S
H968 C914 0.930 . S
H969 C917 0.929 . S
H970 C922 0.929 . S
H971 C923 0.929 1_455 S
H972 C930 0.929 . S
H973 C931 0.930 . S
H974 C932 0.930 . S
H975 C933 0.930 . S
H976 C935 0.929 . S
H977 C936 0.930 . S
H978 C937 0.930 . S
H979 C938 0.930 . S
H980 C942 0.929 . S
H981 C944 0.930 . S
H982 C950 0.929 . S
H983 C951 0.930 . S
Li984 N1001 1.990 . S
Li984 O1044 1.956 . S
Li984 O1045 1.970 . S
Li984 O1046 1.961 . S
Li985 N1009 1.990 . S
Li985 O1044 1.970 . S
Li985 O1045 1.956 . S
Li985 O1047 1.961 . S
Li986 N1031 1.990 . S
Li986 O1044 1.961 . S
Li986 O1046 1.956 . S
Li986 O1047 1.970 . S
Li987 N1037 1.990 . S
Li987 O1045 1.961 . S
Li987 O1046 1.970 . S
Li987 O1047 1.956 . S
C988 C990 1.348 . S
C988 C991 1.356 . S
C988 O1044 1.325 . S
N989 C992 1.314 . S
N989 C993 1.279 . S
C990 C988 1.348 . S
C990 C992 1.353 . S
C990 H1048 0.929 . S
C991 C988 1.356 . S
C991 C993 1.358 . S
C991 H1049 0.930 . S
C992 N989 1.314 . S
C992 C990 1.353 . S
C992 H1050 0.930 . S
C993 N989 1.279 . S
C993 C991 1.358 . S
C993 H1051 0.930 . S
C994 C997 1.348 . S
C994 C998 1.356 . S
C994 O1045 1.325 . S
C995 N996 1.279 . S
C995 C998 1.358 . S
C995 H1052 0.930 . S
N996 C995 1.279 . S
N996 C999 1.314 . S
C997 C994 1.348 . S
C997 C999 1.353 . S
C997 H1053 0.929 . S
C998 C994 1.356 . S
C998 C995 1.358 . S
C998 H1054 0.930 . S
C999 N996 1.314 . S
C999 C997 1.353 . S
C999 H1055 0.930 . S
C1000 N1001 1.314 . S
C1000 C1005 1.353 . S
C1000 H1006 0.930 . S
N1001 Li984 1.990 . S
N1001 C1000 1.314 . S
N1001 C1003 1.279 . S
C1002 C1003 1.358 . S
C1002 C1004 1.356 . S
C1002 H1056 0.930 . S
C1003 N1001 1.279 . S
C1003 C1002 1.358 . S
C1003 H1007 0.930 . S
C1004 C1002 1.356 . S
C1004 C1005 1.348 . S
C1005 C1000 1.353 . S
C1005 C1004 1.348 . S
C1005 H1057 0.929 . S
H1006 C1000 0.930 . S
H1007 C1003 0.930 . S
C1008 N1009 1.314 . S
C1008 C1010 1.353 . S
C1008 H1014 0.930 . S
N1009 Li985 1.990 . S
N1009 C1008 1.314 . S
N1009 C1012 1.279 . S
C1010 C1008 1.353 . S
C1010 C1013 1.348 . S
C1010 H1058 0.929 . S
C1011 C1012 1.358 . S
C1011 C1013 1.356 . S
C1011 H1059 0.930 . S
C1012 N1009 1.279 . S
C1012 C1011 1.358 . S
C1012 H1015 0.930 . S
C1013 C1010 1.348 . S
C1013 C1011 1.356 . S
H1014 C1008 0.930 . S
H1015 C1012 0.930 . S
C1016 C1018 1.348 . S
C1016 C1019 1.356 . S
C1016 O1046 1.325 . S
N1017 C1020 1.314 . S
N1017 C1021 1.279 . S
C1018 C1016 1.348 . S
C1018 C1020 1.353 . S
C1018 H1060 0.929 . S
C1019 C1016 1.356 . S
C1019 C1021 1.358 . S
C1019 H1061 0.930 . S
C1020 N1017 1.314 . S
C1020 C1018 1.353 . S
C1020 H1062 0.930 . S
C1021 N1017 1.279 . S
C1021 C1019 1.358 . S
C1021 H1063 0.930 . S
C1022 C1023 1.348 . S
C1022 C1024 1.356 . S
C1022 O1047 1.325 . S
C1023 C1022 1.348 . S
C1023 C1025 1.353 . S
C1023 H1064 0.929 . S
C1024 C1022 1.356 . S
C1024 C1026 1.358 . S
C1024 H1065 0.930 . S
C1025 C1023 1.353 . S
C1025 N1027 1.314 . S
C1025 H1066 0.930 . S
C1026 C1024 1.358 . S
C1026 N1027 1.279 . S
C1026 H1067 0.930 . S
N1027 C1025 1.314 . S
N1027 C1026 1.279 . S
C1028 C1030 1.353 . S
C1028 N1031 1.314 . S
C1028 H1034 0.930 . S
C1029 N1031 1.279 . S
C1029 C1032 1.358 . S
C1029 H1035 0.930 . S
C1030 C1028 1.353 . S
C1030 C1033 1.348 . S
C1030 H1068 0.929 . S
N1031 Li986 1.990 . S
N1031 C1028 1.314 . S
N1031 C1029 1.279 . S
C1032 C1029 1.358 . S
C1032 C1033 1.356 . S
C1032 H1069 0.930 . S
C1033 C1030 1.348 . S
C1033 C1032 1.356 . S
H1034 C1028 0.930 . S
H1035 C1029 0.930 . S
C1036 N1037 1.314 . S
C1036 C1038 1.353 . S
C1036 H1042 0.930 . S
N1037 Li987 1.990 . S
N1037 C1036 1.314 . S
N1037 C1040 1.279 . S
C1038 C1036 1.353 . S
C1038 C1041 1.348 . S
C1038 H1070 0.929 . S
C1039 C1040 1.358 . S
C1039 C1041 1.356 . S
C1039 H1071 0.930 . S
C1040 N1037 1.279 . S
C1040 C1039 1.358 . S
C1040 H1043 0.930 . S
C1041 C1038 1.348 . S
C1041 C1039 1.356 . S
H1042 C1036 0.930 . S
H1043 C1040 0.930 . S
O1044 Li984 1.956 . S
O1044 Li985 1.970 . S
O1044 Li986 1.961 . S
O1044 C988 1.325 . S
O1045 Li984 1.970 . S
O1045 Li985 1.956 . S
O1045 Li987 1.961 . S
O1045 C994 1.325 . S
O1046 Li984 1.961 . S
O1046 Li986 1.956 . S
O1046 Li987 1.970 . S
O1046 C1016 1.325 . S
O1047 Li985 1.961 . S
O1047 Li986 1.970 . S
O1047 Li987 1.956 . S
O1047 C1022 1.325 . S
H1048 C990 0.929 . S
H1049 C991 0.930 . S
H1050 C992 0.930 . S
H1051 C993 0.930 . S
H1052 C995 0.930 . S
H1053 C997 0.929 . S
H1054 C998 0.930 . S
H1055 C999 0.930 . S
H1056 C1002 0.930 . S
H1057 C1005 0.929 . S
H1058 C1010 0.929 . S
H1059 C1011 0.930 . S
H1060 C1018 0.929 . S
H1061 C1019 0.930 . S
H1062 C1020 0.930 . S
H1063 C1021 0.930 . S
H1064 C1023 0.929 . S
H1065 C1024 0.930 . S
H1066 C1025 0.930 . S
H1067 C1026 0.930 . S
H1068 C1030 0.929 . S
H1069 C1032 0.930 . S
H1070 C1038 0.929 . S
H1071 C1039 0.930 . S
Li1072 N1089 1.990 . S
Li1072 O1132 1.956 . S
Li1072 O1133 1.970 1_455 S
Li1072 O1134 1.961 . S
Li1073 N1097 1.990 . S
Li1073 O1132 1.970 1_655 S
Li1073 O1133 1.956 . S
Li1073 O1135 1.961 1_655 S
Li1074 N1119 1.990 . S
Li1074 O1132 1.961 . S
Li1074 O1134 1.956 . S
Li1074 O1135 1.970 . S
Li1075 N1125 1.990 1_455 S
Li1075 O1133 1.961 1_455 S
Li1075 O1134 1.970 . S
Li1075 O1135 1.956 . S
C1076 C1078 1.348 . S
C1076 C1079 1.356 . S
C1076 O1132 1.325 . S
N1077 C1080 1.314 . S
N1077 C1081 1.279 . S
C1078 C1076 1.348 . S
C1078 C1080 1.353 . S
C1078 H1136 0.929 1_455 S
C1079 C1076 1.356 . S
C1079 C1081 1.358 . S
C1079 H1137 0.930 . S
C1080 N1077 1.314 . S
C1080 C1078 1.353 . S
C1080 H1138 0.930 1_455 S
C1081 N1077 1.279 . S
C1081 C1079 1.358 . S
C1081 H1139 0.930 . S
C1082 C1085 1.348 . S
C1082 C1086 1.356 . S
C1082 O1133 1.325 . S
C1083 N1084 1.279 . S
C1083 C1086 1.358 . S
C1083 H1140 0.930 . S
N1084 C1083 1.279 . S
N1084 C1087 1.314 . S
C1085 C1082 1.348 . S
C1085 C1087 1.353 . S
C1085 H1141 0.929 . S
C1086 C1082 1.356 . S
C1086 C1083 1.358 . S
C1086 H1142 0.930 . S
C1087 N1084 1.314 . S
C1087 C1085 1.353 . S
C1087 H1143 0.930 . S
C1088 N1089 1.314 . S
C1088 C1093 1.353 . S
C1088 H1094 0.930 . S
N1089 Li1072 1.990 . S
N1089 C1088 1.314 . S
N1089 C1091 1.279 . S
C1090 C1091 1.358 . S
C1090 C1092 1.356 . S
C1090 H1144 0.930 . S
C1091 N1089 1.279 . S
C1091 C1090 1.358 . S
C1091 H1095 0.930 . S
C1092 C1090 1.356 . S
C1092 C1093 1.348 . S
C1093 C1088 1.353 . S
C1093 C1092 1.348 . S
C1093 H1145 0.929 . S
H1094 C1088 0.930 . S
H1095 C1091 0.930 . S
C1096 N1097 1.314 . S
C1096 C1098 1.353 . S
C1096 H1102 0.930 . S
N1097 Li1073 1.990 . S
N1097 C1096 1.314 . S
N1097 C1100 1.279 . S
C1098 C1096 1.353 . S
C1098 C1101 1.348 . S
C1098 H1146 0.929 . S
C1099 C1100 1.358 . S
C1099 C1101 1.356 . S
C1099 H1147 0.930 . S
C1100 N1097 1.279 . S
C1100 C1099 1.358 . S
C1100 H1103 0.930 . S
C1101 C1098 1.348 . S
C1101 C1099 1.356 . S
H1102 C1096 0.930 . S
H1103 C1100 0.930 . S
C1104 C1106 1.348 . S
C1104 C1107 1.356 . S
C1104 O1134 1.325 . S
N1105 C1108 1.314 . S
N1105 C1109 1.279 . S
C1106 C1104 1.348 . S
C1106 C1108 1.353 . S
C1106 H1148 0.929 . S
C1107 C1104 1.356 . S
C1107 C1109 1.358 . S
C1107 H1149 0.930 . S
C1108 N1105 1.314 . S
C1108 C1106 1.353 . S
C1108 H1150 0.930 . S
C1109 N1105 1.279 . S
C1109 C1107 1.358 . S
C1109 H1151 0.930 . S
C1110 C1111 1.348 . S
C1110 C1112 1.356 1_455 S
C1110 O1135 1.325 . S
C1111 C1110 1.348 . S
C1111 C1113 1.353 . S
C1111 H1152 0.929 . S
C1112 C1110 1.356 1_655 S
C1112 C1114 1.358 . S
C1112 H1153 0.930 . S
C1113 C1111 1.353 . S
C1113 N1115 1.314 1_455 S
C1113 H1154 0.930 . S
C1114 C1112 1.358 . S
C1114 N1115 1.279 . S
C1114 H1155 0.930 . S
N1115 C1113 1.314 1_655 S
N1115 C1114 1.279 . S
C1116 C1118 1.353 . S
C1116 N1119 1.314 . S
C1116 H1122 0.930 . S
C1117 N1119 1.279 . S
C1117 C1120 1.358 . S
C1117 H1123 0.930 . S
C1118 C1116 1.353 . S
C1118 C1121 1.348 . S
C1118 H1156 0.929 . S
N1119 Li1074 1.990 . S
N1119 C1116 1.314 . S
N1119 C1117 1.279 . S
C1120 C1117 1.358 . S
C1120 C1121 1.356 . S
C1120 H1157 0.930 . S
C1121 C1118 1.348 . S
C1121 C1120 1.356 . S
H1122 C1116 0.930 . S
H1123 C1117 0.930 . S
C1124 N1125 1.314 . S
C1124 C1126 1.353 . S
C1124 H1130 0.930 . S
N1125 Li1075 1.990 1_655 S
N1125 C1124 1.314 . S
N1125 C1128 1.275 1_655 S
C1126 C1124 1.353 . S
C1126 C1129 1.348 . S
C1126 H1158 0.929 . S
C1127 C1128 1.358 1_655 S
C1127 C1129 1.356 . S
C1127 H1159 0.930 . S
C1128 N1125 1.275 1_455 S
C1128 C1127 1.358 1_455 S
C1128 H1131 0.938 . S
C1129 C1126 1.348 . S
C1129 C1127 1.356 . S
H1130 C1124 0.930 . S
H1131 C1128 0.938 . S
O1132 Li1072 1.956 . S
O1132 Li1073 1.970 1_455 S
O1132 Li1074 1.961 . S
O1132 C1076 1.325 . S
O1133 Li1072 1.970 1_655 S
O1133 Li1073 1.956 . S
O1133 Li1075 1.961 1_655 S
O1133 C1082 1.325 . S
O1134 Li1072 1.961 . S
O1134 Li1074 1.956 . S
O1134 Li1075 1.970 . S
O1134 C1104 1.325 . S
O1135 Li1073 1.961 1_455 S
O1135 Li1074 1.970 . S
O1135 Li1075 1.956 . S
O1135 C1110 1.325 . S
H1136 C1078 0.929 1_655 S
H1137 C1079 0.930 . S
H1138 C1080 0.930 1_655 S
H1139 C1081 0.930 . S
H1140 C1083 0.930 . S
H1141 C1085 0.929 . S
H1142 C1086 0.930 . S
H1143 C1087 0.930 . S
H1144 C1090 0.930 . S
H1145 C1093 0.929 . S
H1146 C1098 0.929 . S
H1147 C1099 0.930 . S
H1148 C1106 0.929 . S
H1149 C1107 0.930 . S
H1150 C1108 0.930 . S
H1151 C1109 0.930 . S
H1152 C1111 0.929 . S
H1153 C1112 0.930 . S
H1154 C1113 0.930 . S
H1155 C1114 0.930 . S
H1156 C1118 0.929 . S
H1157 C1120 0.930 . S
H1158 C1126 0.929 . S
H1159 C1127 0.930 . S
Li1160 N1177 1.990 . S
Li1160 O1220 1.956 . S
Li1160 O1221 1.970 . S
Li1160 O1222 1.961 . S
Li1161 N1185 1.990 . S
Li1161 O1220 1.970 . S
Li1161 O1221 1.956 . S
Li1161 O1223 1.961 . S
Li1162 N1207 1.990 . S
Li1162 O1220 1.961 . S
Li1162 O1222 1.956 . S
Li1162 O1223 1.970 . S
Li1163 N1213 1.990 . S
Li1163 O1221 1.961 . S
Li1163 O1222 1.970 . S
Li1163 O1223 1.956 . S
C1164 C1166 1.348 . S
C1164 C1167 1.356 . S
C1164 O1220 1.325 . S
N1165 C1168 1.314 . S
N1165 C1169 1.279 . S
C1166 C1164 1.348 . S
C1166 C1168 1.353 . S
C1166 H1224 0.929 . S
C1167 C1164 1.356 . S
C1167 C1169 1.358 . S
C1167 H1225 0.930 . S
C1168 N1165 1.314 . S
C1168 C1166 1.353 . S
C1168 H1226 0.930 . S
C1169 N1165 1.279 . S
C1169 C1167 1.358 . S
C1169 H1227 0.930 . S
C1170 C1173 1.348 . S
C1170 C1174 1.356 . S
C1170 O1221 1.325 . S
C1171 N1172 1.279 . S
C1171 C1174 1.358 . S
C1171 H1228 0.930 . S
N1172 C1171 1.279 . S
N1172 C1175 1.314 . S
C1173 C1170 1.348 . S
C1173 C1175 1.353 . S
C1173 H1229 0.929 . S
C1174 C1170 1.356 . S
C1174 C1171 1.358 . S
C1174 H1230 0.930 . S
C1175 N1172 1.314 . S
C1175 C1173 1.353 . S
C1175 H1231 0.930 . S
C1176 N1177 1.314 . S
C1176 C1181 1.353 . S
C1176 H1182 0.930 . S
N1177 Li1160 1.990 . S
N1177 C1176 1.314 . S
N1177 C1179 1.279 . S
C1178 C1179 1.358 . S
C1178 C1180 1.356 . S
C1178 H1232 0.930 . S
C1179 N1177 1.279 . S
C1179 C1178 1.358 . S
C1179 H1183 0.930 . S
C1180 C1178 1.356 . S
C1180 C1181 1.348 . S
C1181 C1176 1.353 . S
C1181 C1180 1.348 . S
C1181 H1233 0.929 . S
H1182 C1176 0.930 . S
H1183 C1179 0.930 . S
C1184 N1185 1.314 . S
C1184 C1186 1.353 . S
C1184 H1190 0.930 . S
N1185 Li1161 1.990 . S
N1185 C1184 1.314 . S
N1185 C1188 1.279 . S
C1186 C1184 1.353 . S
C1186 C1189 1.348 . S
C1186 H1234 0.929 . S
C1187 C1188 1.358 . S
C1187 C1189 1.356 . S
C1187 H1235 0.930 . S
C1188 N1185 1.279 . S
C1188 C1187 1.358 . S
C1188 H1191 0.930 . S
C1189 C1186 1.348 . S
C1189 C1187 1.356 . S
H1190 C1184 0.930 . S
H1191 C1188 0.930 . S
C1192 C1194 1.348 . S
C1192 C1195 1.356 . S
C1192 O1222 1.325 . S
N1193 C1196 1.314 . S
N1193 C1197 1.279 . S
C1194 C1192 1.348 . S
C1194 C1196 1.353 . S
C1194 H1236 0.929 . S
C1195 C1192 1.356 . S
C1195 C1197 1.358 . S
C1195 H1237 0.930 . S
C1196 N1193 1.314 . S
C1196 C1194 1.353 . S
C1196 H1238 0.930 . S
C1197 N1193 1.279 . S
C1197 C1195 1.358 . S
C1197 H1239 0.930 . S
C1198 C1199 1.348 . S
C1198 C1200 1.356 . S
C1198 O1223 1.325 . S
C1199 C1198 1.348 . S
C1199 C1201 1.353 . S
C1199 H1240 0.929 . S
C1200 C1198 1.356 . S
C1200 C1202 1.358 . S
C1200 H1241 0.930 . S
C1201 C1199 1.353 . S
C1201 N1203 1.314 . S
C1201 H1242 0.930 . S
C1202 C1200 1.358 . S
C1202 N1203 1.279 . S
C1202 H1243 0.930 . S
N1203 C1201 1.314 . S
N1203 C1202 1.279 . S
C1204 C1206 1.353 . S
C1204 N1207 1.314 . S
C1204 H1210 0.930 . S
C1205 N1207 1.279 . S
C1205 C1208 1.358 . S
C1205 H1211 0.930 . S
C1206 C1204 1.353 . S
C1206 C1209 1.348 . S
C1206 H1244 0.929 . S
N1207 Li1162 1.990 . S
N1207 C1204 1.314 . S
N1207 C1205 1.279 . S
C1208 C1205 1.358 . S
C1208 C1209 1.356 . S
C1208 H1245 0.930 . S
C1209 C1206 1.348 . S
C1209 C1208 1.356 . S
H1210 C1204 0.930 . S
H1211 C1205 0.930 . S
C1212 N1213 1.314 . S
C1212 C1214 1.353 . S
C1212 H1218 0.930 . S
N1213 Li1163 1.990 . S
N1213 C1212 1.314 . S
N1213 C1216 1.279 . S
C1214 C1212 1.353 . S
C1214 C1217 1.348 . S
C1214 H1246 0.929 . S
C1215 C1216 1.358 . S
C1215 C1217 1.356 . S
C1215 H1247 0.930 . S
C1216 N1213 1.279 . S
C1216 C1215 1.358 . S
C1216 H1219 0.930 . S
C1217 C1214 1.348 . S
C1217 C1215 1.356 . S
H1218 C1212 0.930 . S
H1219 C1216 0.930 . S
O1220 Li1160 1.956 . S
O1220 Li1161 1.970 . S
O1220 Li1162 1.961 . S
O1220 C1164 1.325 . S
O1221 Li1160 1.970 . S
O1221 Li1161 1.956 . S
O1221 Li1163 1.961 . S
O1221 C1170 1.325 . S
O1222 Li1160 1.961 . S
O1222 Li1162 1.956 . S
O1222 Li1163 1.970 . S
O1222 C1192 1.325 . S
O1223 Li1161 1.961 . S
O1223 Li1162 1.970 . S
O1223 Li1163 1.956 . S
O1223 C1198 1.325 . S
H1224 C1166 0.929 . S
H1225 C1167 0.930 . S
H1226 C1168 0.930 . S
H1227 C1169 0.930 . S
H1228 C1171 0.930 . S
H1229 C1173 0.929 . S
H1230 C1174 0.930 . S
H1231 C1175 0.930 . S
H1232 C1178 0.930 . S
H1233 C1181 0.929 . S
H1234 C1186 0.929 . S
H1235 C1187 0.930 . S
H1236 C1194 0.929 . S
H1237 C1195 0.930 . S
H1238 C1196 0.930 . S
H1239 C1197 0.930 . S
H1240 C1199 0.929 . S
H1241 C1200 0.930 . S
H1242 C1201 0.930 . S
H1243 C1202 0.930 . S
H1244 C1206 0.929 . S
H1245 C1208 0.930 . S
H1246 C1214 0.929 . S
H1247 C1215 0.930 . S
C1248 C1249 1.363 . S
C1248 C1254 1.379 . S
C1248 N1256 1.356 . S
C1249 C1248 1.363 . S
C1249 C1255 1.363 . S
C1250 C1251 1.363 . S
C1250 C1255 1.379 . S
C1250 N1257 1.356 . S
C1251 C1250 1.363 . S
C1251 C1254 1.363 . S
N1252 C1254 1.356 . S
N1252 H1264 0.984 . S
N1252 H1265 0.985 . S
N1253 C1255 1.356 . S
N1253 H1258 0.984 . S
N1253 H1259 0.985 . S
C1254 C1248 1.379 . S
C1254 C1251 1.363 . S
C1254 N1252 1.356 . S
C1255 C1249 1.363 . S
C1255 C1250 1.379 . S
C1255 N1253 1.356 . S
N1256 C1248 1.356 . S
N1256 H1262 0.984 . S
N1256 H1263 0.984 . S
N1257 C1250 1.356 . S
N1257 H1260 0.984 . S
N1257 H1261 0.985 . S
H1258 N1253 0.984 . S
H1259 N1253 0.985 . S
H1260 N1257 0.984 . S
H1261 N1257 0.985 . S
H1262 N1256 0.984 . S
H1263 N1256 0.984 . S
H1264 N1252 0.984 . S
H1265 N1252 0.985 . S
C1266 C1267 1.363 . S
C1266 C1272 1.379 . S
C1266 N1274 1.356 . S
C1267 C1266 1.363 . S
C1267 C1273 1.363 . S
C1268 C1269 1.363 . S
C1268 C1273 1.379 . S
C1268 N1275 1.356 . S
C1269 C1268 1.363 . S
C1269 C1272 1.363 . S
N1270 C1272 1.356 . S
N1270 H1282 0.984 . S
N1270 H1283 0.985 . S
N1271 C1273 1.356 . S
N1271 H1276 0.984 . S
N1271 H1277 0.985 1_455 S
C1272 C1266 1.379 . S
C1272 C1269 1.363 . S
C1272 N1270 1.356 . S
C1273 C1267 1.363 . S
C1273 C1268 1.379 . S
C1273 N1271 1.356 . S
N1274 C1266 1.356 . S
N1274 H1280 0.984 . S
N1274 H1281 0.984 . S
N1275 C1268 1.356 . S
N1275 H1278 0.984 . S
N1275 H1279 0.985 . S
H1276 N1271 0.984 . S
H1277 N1271 0.985 1_655 S
H1278 N1275 0.984 . S
H1279 N1275 0.985 . S
H1280 N1274 0.984 . S
H1281 N1274 0.984 . S
H1282 N1270 0.984 . S
H1283 N1270 0.985 . S
C1284 C1285 1.363 . S
C1284 C1290 1.379 . S
C1284 N1292 1.356 . S
C1285 C1284 1.363 . S
C1285 C1291 1.363 . S
C1286 C1287 1.363 . S
C1286 C1291 1.379 . S
C1286 N1293 1.356 . S
C1287 C1286 1.363 . S
C1287 C1290 1.363 . S
N1288 C1290 1.356 . S
N1288 H1300 0.984 . S
N1288 H1301 0.985 . S
N1289 C1291 1.356 . S
N1289 H1294 0.984 . S
N1289 H1295 0.985 . S
C1290 C1284 1.379 . S
C1290 C1287 1.363 . S
C1290 N1288 1.356 . S
C1291 C1285 1.363 . S
C1291 C1286 1.379 . S
C1291 N1289 1.356 . S
N1292 C1284 1.356 . S
N1292 H1298 0.984 . S
N1292 H1299 0.984 . S
N1293 C1286 1.356 . S
N1293 H1296 0.984 . S
N1293 H1297 0.985 . S
H1294 N1289 0.984 . S
H1295 N1289 0.985 . S
H1296 N1293 0.984 . S
H1297 N1293 0.985 . S
H1298 N1292 0.984 . S
H1299 N1292 0.984 . S
H1300 N1288 0.984 . S
H1301 N1288 0.985 . S
C1302 C1303 1.363 1_545 S
C1302 C1308 1.379 . S
C1302 N1310 1.356 . S
C1303 C1302 1.363 1_565 S
C1303 C1309 1.363 . S
C1304 C1305 1.363 1_565 S
C1304 C1309 1.379 . S
C1304 N1311 1.356 . S
C1305 C1304 1.363 1_545 S
C1305 C1308 1.363 . S
N1306 C1308 1.356 1_655 S
N1306 H1318 0.984 . S
N1306 H1319 0.985 . S
N1307 C1309 1.356 . S
N1307 H1312 0.984 . S
N1307 H1313 0.985 . S
C1308 C1302 1.379 . S
C1308 C1305 1.363 . S
C1308 N1306 1.356 1_455 S
C1309 C1303 1.363 . S
C1309 C1304 1.379 . S
C1309 N1307 1.356 . S
N1310 C1302 1.356 . S
N1310 H1316 0.957 1_455 S
N1310 H1317 0.984 . S
N1311 C1304 1.356 . S
N1311 H1314 0.984 . S
N1311 H1315 0.985 . S
H1312 N1307 0.984 . S
H1313 N1307 0.985 . S
H1314 N1311 0.984 . S
H1315 N1311 0.985 . S
H1316 N1310 0.957 1_655 S
H1317 N1310 0.984 . S
H1318 N1306 0.984 . S
H1319 N1306 0.985 . S
C1320 C1321 1.363 . S
C1320 C1326 1.379 . S
C1320 N1328 1.356 . S
C1321 C1320 1.363 . S
C1321 C1327 1.363 . S
C1322 C1323 1.363 . S
C1322 C1327 1.379 . S
C1322 N1329 1.356 . S
C1323 C1322 1.363 . S
C1323 C1326 1.363 . S
N1324 C1326 1.356 . S
N1324 H1336 0.984 . S
N1324 H1337 0.985 . S
N1325 C1327 1.356 . S
N1325 H1330 0.984 . S
N1325 H1331 0.985 . S
C1326 C1320 1.379 . S
C1326 C1323 1.363 . S
C1326 N1324 1.356 . S
C1327 C1321 1.363 . S
C1327 C1322 1.379 . S
C1327 N1325 1.356 . S
N1328 C1320 1.356 . S
N1328 H1334 0.984 . S
N1328 H1335 0.984 . S
N1329 C1322 1.356 . S
N1329 H1332 0.984 . S
N1329 H1333 0.985 . S
H1330 N1325 0.984 . S
H1331 N1325 0.985 . S
H1332 N1329 0.984 . S
H1333 N1329 0.985 . S
H1334 N1328 0.984 . S
H1335 N1328 0.984 . S
H1336 N1324 0.984 . S
H1337 N1324 0.985 . S
C1338 C1339 1.363 . S
C1338 C1344 1.379 . S
C1338 N1346 1.356 . S
C1339 C1338 1.363 . S
C1339 C1345 1.363 . S
C1340 C1341 1.363 . S
C1340 C1345 1.379 . S
C1340 N1347 1.356 . S
C1341 C1340 1.363 . S
C1341 C1344 1.363 . S
N1342 C1344 1.356 . S
N1342 H1354 0.984 . S
N1342 H1355 0.985 . S
N1343 C1345 1.356 . S
N1343 H1348 0.984 . S
N1343 H1349 0.985 . S
C1344 C1338 1.379 . S
C1344 C1341 1.363 . S
C1344 N1342 1.356 . S
C1345 C1339 1.363 . S
C1345 C1340 1.379 . S
C1345 N1343 1.356 . S
N1346 C1338 1.356 . S
N1346 H1352 0.984 . S
N1346 H1353 0.984 . S
N1347 C1340 1.356 . S
N1347 H1350 0.984 . S
N1347 H1351 0.985 . S
H1348 N1343 0.984 . S
H1349 N1343 0.985 . S
H1350 N1347 0.984 . S
H1351 N1347 0.985 . S
H1352 N1346 0.984 . S
H1353 N1346 0.984 . S
H1354 N1342 0.984 . S
H1355 N1342 0.985 . S
C1356 C1357 1.363 . S
C1356 C1362 1.379 . S
C1356 N1364 1.356 . S
C1357 C1356 1.363 . S
C1357 C1363 1.363 . S
C1358 C1359 1.363 . S
C1358 C1363 1.379 . S
C1358 N1365 1.356 . S
C1359 C1358 1.363 . S
C1359 C1362 1.363 . S
N1360 C1362 1.356 . S
N1360 H1372 0.984 . S
N1360 H1373 0.985 . S
N1361 C1363 1.356 . S
N1361 H1366 0.984 . S
N1361 H1367 0.985 . S
C1362 C1356 1.379 . S
C1362 C1359 1.363 . S
C1362 N1360 1.356 . S
C1363 C1357 1.363 . S
C1363 C1358 1.379 . S
C1363 N1361 1.356 . S
N1364 C1356 1.356 . S
N1364 H1370 0.984 . S
N1364 H1371 0.984 . S
N1365 C1358 1.356 . S
N1365 H1368 0.984 . S
N1365 H1369 0.985 . S
H1366 N1361 0.984 . S
H1367 N1361 0.985 . S
H1368 N1365 0.984 . S
H1369 N1365 0.985 . S
H1370 N1364 0.984 . S
H1371 N1364 0.984 . S
H1372 N1360 0.984 . S
H1373 N1360 0.985 . S
C1374 C1375 1.363 . S
C1374 C1380 1.379 . S
C1374 N1382 1.356 . S
C1375 C1374 1.363 . S
C1375 C1381 1.363 1_565 S
C1376 C1377 1.363 1_545 S
C1376 C1381 1.379 . S
C1376 N1383 1.356 . S
C1377 C1376 1.363 1_565 S
C1377 C1380 1.363 . S
N1378 C1380 1.356 . S
N1378 H1390 0.984 . S
N1378 H1391 0.985 . S
N1379 C1381 1.356 . S
N1379 H1384 0.984 . S
N1379 H1385 0.985 . S
C1380 C1374 1.379 . S
C1380 C1377 1.363 . S
C1380 N1378 1.356 . S
C1381 C1375 1.363 1_545 S
C1381 C1376 1.379 . S
C1381 N1379 1.356 . S
N1382 C1374 1.356 . S
N1382 H1388 0.984 . S
N1382 H1389 0.984 . S
N1383 C1376 1.356 . S
N1383 H1386 0.984 . S
N1383 H1387 0.985 . S
H1384 N1379 0.984 . S
H1385 N1379 0.985 . S
H1386 N1383 0.984 . S
H1387 N1383 0.985 . S
H1388 N1382 0.984 . S
H1389 N1382 0.984 . S
H1390 N1378 0.984 . S
H1391 N1378 0.985 . S
C1392 C1393 1.363 . S
C1392 C1398 1.379 . S
C1392 N1400 1.356 . S
C1393 C1392 1.363 . S
C1393 C1399 1.363 . S
C1394 C1395 1.363 . S
C1394 C1399 1.379 . S
C1394 N1401 1.356 . S
C1395 C1394 1.363 . S
C1395 C1398 1.363 . S
N1396 C1398 1.356 . S
N1396 H1408 0.984 . S
N1396 H1409 0.985 . S
N1397 C1399 1.356 . S
N1397 H1402 0.984 . S
N1397 H1403 0.985 . S
C1398 C1392 1.379 . S
C1398 C1395 1.363 . S
C1398 N1396 1.356 . S
C1399 C1393 1.363 . S
C1399 C1394 1.379 . S
C1399 N1397 1.356 . S
N1400 C1392 1.356 . S
N1400 H1406 0.984 . S
N1400 H1407 0.984 . S
N1401 C1394 1.356 . S
N1401 H1404 0.984 . S
N1401 H1405 0.985 . S
H1402 N1397 0.984 . S
H1403 N1397 0.985 . S
H1404 N1401 0.984 . S
H1405 N1401 0.985 . S
H1406 N1400 0.984 . S
H1407 N1400 0.984 . S
H1408 N1396 0.984 . S
H1409 N1396 0.985 . S
C1410 C1411 1.363 . S
C1410 C1416 1.379 . S
C1410 N1418 1.356 . S
C1411 C1410 1.363 . S
C1411 C1417 1.363 . S
C1412 C1413 1.363 . S
C1412 C1417 1.379 . S
C1412 N1419 1.356 . S
C1413 C1412 1.363 . S
C1413 C1416 1.363 . S
N1414 C1416 1.356 . S
N1414 H1426 0.984 . S
N1414 H1427 0.985 . S
N1415 C1417 1.356 . S
N1415 H1420 0.984 . S
N1415 H1421 0.985 . S
C1416 C1410 1.379 . S
C1416 C1413 1.363 . S
C1416 N1414 1.356 . S
C1417 C1411 1.363 . S
C1417 C1412 1.379 . S
C1417 N1415 1.356 . S
N1418 C1410 1.356 . S
N1418 H1424 0.984 . S
N1418 H1425 0.984 . S
N1419 C1412 1.356 . S
N1419 H1422 0.984 . S
N1419 H1423 0.985 . S
H1420 N1415 0.984 . S
H1421 N1415 0.985 . S
H1422 N1419 0.984 . S
H1423 N1419 0.985 . S
H1424 N1418 0.984 . S
H1425 N1418 0.984 . S
H1426 N1414 0.984 . S
H1427 N1414 0.985 . S
C1428 C1429 1.363 . S
C1428 C1434 1.379 . S
C1428 N1436 1.356 . S
C1429 C1428 1.363 . S
C1429 C1435 1.363 . S
C1430 C1431 1.363 . S
C1430 C1435 1.379 . S
C1430 N1437 1.356 . S
C1431 C1430 1.363 . S
C1431 C1434 1.363 . S
N1432 C1434 1.356 . S
N1432 H1444 0.984 . S
N1432 H1445 0.985 . S
N1433 C1435 1.356 . S
N1433 H1438 0.984 . S
N1433 H1439 0.985 . S
C1434 C1428 1.379 . S
C1434 C1431 1.363 . S
C1434 N1432 1.356 . S
C1435 C1429 1.363 . S
C1435 C1430 1.379 . S
C1435 N1433 1.356 . S
N1436 C1428 1.356 . S
N1436 H1442 0.984 . S
N1436 H1443 0.984 . S
N1437 C1430 1.356 . S
N1437 H1440 0.984 . S
N1437 H1441 0.985 . S
H1438 N1433 0.984 . S
H1439 N1433 0.985 . S
H1440 N1437 0.984 . S
H1441 N1437 0.985 . S
H1442 N1436 0.984 . S
H1443 N1436 0.984 . S
H1444 N1432 0.984 . S
H1445 N1432 0.985 . S
C1446 C1447 1.363 . S
C1446 C1452 1.379 . S
C1446 N1454 1.356 . S
C1447 C1446 1.363 . S
C1447 C1453 1.363 . S
C1448 C1449 1.363 . S
C1448 C1453 1.379 . S
C1448 N1455 1.356 . S
C1449 C1448 1.363 . S
C1449 C1452 1.363 . S
N1450 C1452 1.356 . S
N1450 H1462 0.984 . S
N1450 H1463 0.985 . S
N1451 C1453 1.356 . S
N1451 H1456 0.984 . S
N1451 H1457 0.985 . S
C1452 C1446 1.379 . S
C1452 C1449 1.363 . S
C1452 N1450 1.356 . S
C1453 C1447 1.363 . S
C1453 C1448 1.379 . S
C1453 N1451 1.356 . S
N1454 C1446 1.356 . S
N1454 H1460 0.984 . S
N1454 H1461 0.984 . S
N1455 C1448 1.356 . S
N1455 H1458 0.984 . S
N1455 H1459 0.985 . S
H1456 N1451 0.984 . S
H1457 N1451 0.985 . S
H1458 N1455 0.984 . S
H1459 N1455 0.985 . S
H1460 N1454 0.984 . S
H1461 N1454 0.984 . S
H1462 N1450 0.984 . S
H1463 N1450 0.985 . S
C1464 C1465 1.363 . S
C1464 C1470 1.379 . S
C1464 N1472 1.356 . S
C1465 C1464 1.363 . S
C1465 C1471 1.363 . S
C1466 C1467 1.363 . S
C1466 C1471 1.379 . S
C1466 N1473 1.356 . S
C1467 C1466 1.363 . S
C1467 C1470 1.363 . S
N1468 C1470 1.356 . S
N1468 H1480 0.984 . S
N1468 H1481 0.985 . S
N1469 C1471 1.356 . S
N1469 H1474 0.984 . S
N1469 H1475 0.985 . S
C1470 C1464 1.379 . S
C1470 C1467 1.363 . S
C1470 N1468 1.356 . S
C1471 C1465 1.363 . S
C1471 C1466 1.379 . S
C1471 N1469 1.356 . S
N1472 C1464 1.356 . S
N1472 H1478 0.984 . S
N1472 H1479 0.984 . S
N1473 C1466 1.356 . S
N1473 H1476 0.984 . S
N1473 H1477 0.985 . S
H1474 N1469 0.984 . S
H1475 N1469 0.985 . S
H1476 N1473 0.984 . S
H1477 N1473 0.985 . S
H1478 N1472 0.984 . S
H1479 N1472 0.984 . S
H1480 N1468 0.984 . S
H1481 N1468 0.985 . S
C1482 C1483 1.363 . S
C1482 C1488 1.379 . S
C1482 N1490 1.356 . S
C1483 C1482 1.363 . S
C1483 C1489 1.363 . S
C1484 C1485 1.363 . S
C1484 C1489 1.379 . S
C1484 N1491 1.356 . S
C1485 C1484 1.363 . S
C1485 C1488 1.363 . S
N1486 C1488 1.356 . S
N1486 H1498 0.984 1_455 S
N1486 H1499 0.985 . S
N1487 C1489 1.356 . S
N1487 H1492 0.984 . S
N1487 H1493 0.985 . S
C1488 C1482 1.379 . S
C1488 C1485 1.363 . S
C1488 N1486 1.356 . S
C1489 C1483 1.363 . S
C1489 C1484 1.379 . S
C1489 N1487 1.356 . S
N1490 C1482 1.356 . S
N1490 H1496 0.984 . S
N1490 H1497 0.984 . S
N1491 C1484 1.356 . S
N1491 H1494 0.984 . S
N1491 H1495 0.985 . S
H1492 N1487 0.984 . S
H1493 N1487 0.985 . S
H1494 N1491 0.984 . S
H1495 N1491 0.985 . S
H1496 N1490 0.984 . S
H1497 N1490 0.984 . S
H1498 N1486 0.984 1_655 S
H1499 N1486 0.985 . S
C1500 C1501 1.363 . S
C1500 C1506 1.379 . S
C1500 N1508 1.356 . S
C1501 C1500 1.363 . S
C1501 C1507 1.363 . S
C1502 C1503 1.363 . S
C1502 C1507 1.379 . S
C1502 N1509 1.356 . S
C1503 C1502 1.363 . S
C1503 C1506 1.363 . S
N1504 C1506 1.356 . S
N1504 H1516 0.984 . S
N1504 H1517 0.985 . S
N1505 C1507 1.356 . S
N1505 H1510 0.984 . S
N1505 H1511 0.985 . S
C1506 C1500 1.379 . S
C1506 C1503 1.363 . S
C1506 N1504 1.356 . S
C1507 C1501 1.363 . S
C1507 C1502 1.379 . S
C1507 N1505 1.356 . S
N1508 C1500 1.356 . S
N1508 H1514 0.984 . S
N1508 H1515 0.984 . S
N1509 C1502 1.356 . S
N1509 H1512 0.984 . S
N1509 H1513 0.985 . S
H1510 N1505 0.984 . S
H1511 N1505 0.985 . S
H1512 N1509 0.984 . S
H1513 N1509 0.985 . S
H1514 N1508 0.984 . S
H1515 N1508 0.984 . S
H1516 N1504 0.984 . S
H1517 N1504 0.985 . S
C1518 C1519 1.363 1_455 S
C1518 C1524 1.379 . S
C1518 N1526 1.356 . S
C1519 C1518 1.363 1_655 S
C1519 C1525 1.363 . S
C1520 C1521 1.363 . S
C1520 C1525 1.379 . S
C1520 N1527 1.356 . S
C1521 C1520 1.363 . S
C1521 C1524 1.363 1_655 S
N1522 C1524 1.356 . S
N1522 H1534 0.984 . S
N1522 H1535 0.985 . S
N1523 C1525 1.356 . S
N1523 H1528 0.984 . S
N1523 H1529 0.985 . S
C1524 C1518 1.379 . S
C1524 C1521 1.363 1_455 S
C1524 N1522 1.356 . S
C1525 C1519 1.363 . S
C1525 C1520 1.379 . S
C1525 N1523 1.356 . S
N1526 C1518 1.356 . S
N1526 H1532 0.984 . S
N1526 H1533 0.984 . S
N1527 C1520 1.356 . S
N1527 H1530 0.984 . S
N1527 H1531 0.985 . S
H1528 N1523 0.984 . S
H1529 N1523 0.985 . S
H1530 N1527 0.984 . S
H1531 N1527 0.985 . S
H1532 N1526 0.984 . S
H1533 N1526 0.984 . S
H1534 N1522 0.984 . S
H1535 N1522 0.985 . S
C1536 C1537 1.363 . S
C1536 C1542 1.379 . S
C1536 N1544 1.356 . S
C1537 C1536 1.363 . S
C1537 C1543 1.363 . S
C1538 C1539 1.363 . S
C1538 C1543 1.379 . S
C1538 N1545 1.356 . S
C1539 C1538 1.363 . S
C1539 C1542 1.363 . S
N1540 C1542 1.356 . S
N1540 H1552 0.984 . S
N1540 H1553 0.985 . S
N1541 C1543 1.356 . S
N1541 H1546 0.984 . S
N1541 H1547 0.985 . S
C1542 C1536 1.379 . S
C1542 C1539 1.363 . S
C1542 N1540 1.356 . S
C1543 C1537 1.363 . S
C1543 C1538 1.379 . S
C1543 N1541 1.356 . S
N1544 C1536 1.356 . S
N1544 H1550 0.984 . S
N1544 H1551 0.984 . S
N1545 C1538 1.356 . S
N1545 H1548 0.984 . S
N1545 H1549 0.985 . S
H1546 N1541 0.984 . S
H1547 N1541 0.985 . S
H1548 N1545 0.984 . S
H1549 N1545 0.985 . S
H1550 N1544 0.984 . S
H1551 N1544 0.984 . S
H1552 N1540 0.984 . S
H1553 N1540 0.985 . S
C1554 C1555 1.363 . S
C1554 C1560 1.379 . S
C1554 N1562 1.356 . S
C1555 C1554 1.363 . S
C1555 C1561 1.363 . S
C1556 C1557 1.363 . S
C1556 C1561 1.379 . S
C1556 N1563 1.356 . S
C1557 C1556 1.363 . S
C1557 C1560 1.363 . S
N1558 C1560 1.356 . S
N1558 H1570 0.984 . S
N1558 H1571 0.985 . S
N1559 C1561 1.356 . S
N1559 H1564 0.984 . S
N1559 H1565 0.985 . S
C1560 C1554 1.379 . S
C1560 C1557 1.363 . S
C1560 N1558 1.356 . S
C1561 C1555 1.363 . S
C1561 C1556 1.379 . S
C1561 N1559 1.356 . S
N1562 C1554 1.356 . S
N1562 H1568 0.984 . S
N1562 H1569 0.984 . S
N1563 C1556 1.356 . S
N1563 H1566 0.984 . S
N1563 H1567 0.985 . S
H1564 N1559 0.984 . S
H1565 N1559 0.985 . S
H1566 N1563 0.984 . S
H1567 N1563 0.985 . S
H1568 N1562 0.984 . S
H1569 N1562 0.984 . S
H1570 N1558 0.984 . S
H1571 N1558 0.985 . S
C1572 C1573 1.365 . S
C1572 C1578 1.384 . S
C1572 N1580 1.349 1_565 S
C1573 C1572 1.365 . S
C1573 C1579 1.346 1_556 S
C1574 C1575 1.347 1_554 S
C1574 C1579 1.388 . S
C1574 N1581 1.356 . S
C1575 C1574 1.347 1_556 S
C1575 C1578 1.403 . S
N1576 C1578 1.356 . S
N1576 H1588 0.984 . S
N1576 H1589 0.985 . S
N1577 C1579 1.359 . S
N1577 H1582 0.984 1_554 S
N1577 H1583 0.985 . S
C1578 C1572 1.384 . S
C1578 C1575 1.403 . S
C1578 N1576 1.356 . S
C1579 C1573 1.346 1_554 S
C1579 C1574 1.388 . S
C1579 N1577 1.359 . S
N1580 C1572 1.349 1_545 S
N1580 H1586 0.984 . S
N1580 H1587 0.984 . S
N1581 C1574 1.356 . S
N1581 H1584 0.984 . S
N1581 H1585 0.985 . S
H1582 N1577 0.984 1_556 S
H1583 N1577 0.985 . S
H1584 N1581 0.984 . S
H1585 N1581 0.985 . S
H1586 N1580 0.984 . S
H1587 N1580 0.984 . S
H1588 N1576 0.984 . S
H1589 N1576 0.985 . S
C1590 C1591 1.363 . S
C1590 C1596 1.379 . S
C1590 N1598 1.356 . S
C1591 C1590 1.363 . S
C1591 C1597 1.363 . S
C1592 C1593 1.363 . S
C1592 C1597 1.379 . S
C1592 N1599 1.356 . S
C1593 C1592 1.363 . S
C1593 C1596 1.363 . S
N1594 C1596 1.356 . S
N1594 H1606 0.984 . S
N1594 H1607 0.985 . S
N1595 C1597 1.356 . S
N1595 H1600 0.984 . S
N1595 H1601 0.985 . S
C1596 C1590 1.379 . S
C1596 C1593 1.363 . S
C1596 N1594 1.356 . S
C1597 C1591 1.363 . S
C1597 C1592 1.379 . S
C1597 N1595 1.356 . S
N1598 C1590 1.356 . S
N1598 H1604 0.984 . S
N1598 H1605 0.984 . S
N1599 C1592 1.356 . S
N1599 H1602 0.984 . S
N1599 H1603 0.985 . S
H1600 N1595 0.984 . S
H1601 N1595 0.985 . S
H1602 N1599 0.984 . S
H1603 N1599 0.985 . S
H1604 N1598 0.984 . S
H1605 N1598 0.984 . S
H1606 N1594 0.984 . S
H1607 N1594 0.985 . S
C1608 C1609 1.363 . S
C1608 C1614 1.379 . S
C1608 N1616 1.356 . S
C1609 C1608 1.363 . S
C1609 C1615 1.363 . S
C1610 C1611 1.363 . S
C1610 C1615 1.379 . S
C1610 N1617 1.356 . S
C1611 C1610 1.363 . S
C1611 C1614 1.363 . S
N1612 C1614 1.356 . S
N1612 H1624 0.984 . S
N1612 H1625 0.985 . S
N1613 C1615 1.356 . S
N1613 H1618 0.984 1_545 S
N1613 H1619 0.985 . S
C1614 C1608 1.379 . S
C1614 C1611 1.363 . S
C1614 N1612 1.356 . S
C1615 C1609 1.363 . S
C1615 C1610 1.379 . S
C1615 N1613 1.356 . S
N1616 C1608 1.356 . S
N1616 H1622 0.984 . S
N1616 H1623 0.984 . S
N1617 C1610 1.356 . S
N1617 H1620 0.984 . S
N1617 H1621 0.985 . S
H1618 N1613 0.984 1_565 S
H1619 N1613 0.985 . S
H1620 N1617 0.984 . S
H1621 N1617 0.985 . S
H1622 N1616 0.984 . S
H1623 N1616 0.984 . S
H1624 N1612 0.984 . S
H1625 N1612 0.985 . S
C1626 C1627 1.363 . S
C1626 C1632 1.379 . S
C1626 N1634 1.356 . S
C1627 C1626 1.363 . S
C1627 C1633 1.363 . S
C1628 C1629 1.363 . S
C1628 C1633 1.379 . S
C1628 N1635 1.356 . S
C1629 C1628 1.363 . S
C1629 C1632 1.363 . S
N1630 C1632 1.356 . S
N1630 H1642 0.984 . S
N1630 H1643 0.985 . S
N1631 C1633 1.356 . S
N1631 H1636 0.984 . S
N1631 H1637 0.985 . S
C1632 C1626 1.379 . S
C1632 C1629 1.363 . S
C1632 N1630 1.356 . S
C1633 C1627 1.363 . S
C1633 C1628 1.379 . S
C1633 N1631 1.356 . S
N1634 C1626 1.356 . S
N1634 H1640 0.984 . S
N1634 H1641 0.984 . S
N1635 C1628 1.356 . S
N1635 H1638 0.984 . S
N1635 H1639 0.985 . S
H1636 N1631 0.984 . S
H1637 N1631 0.985 . S
H1638 N1635 0.984 . S
H1639 N1635 0.985 . S
H1640 N1634 0.984 . S
H1641 N1634 0.984 . S
H1642 N1630 0.984 . S
H1643 N1630 0.985 . S
C1644 C1645 1.363 . S
C1644 C1650 1.379 . S
C1644 N1652 1.356 . S
C1645 C1644 1.363 . S
C1645 C1651 1.363 . S
C1646 C1647 1.363 . S
C1646 C1651 1.379 . S
C1646 N1653 1.356 . S
C1647 C1646 1.363 . S
C1647 C1650 1.363 . S
N1648 C1650 1.356 . S
N1648 H1660 0.984 . S
N1648 H1661 0.985 . S
N1649 C1651 1.356 . S
N1649 H1654 0.984 . S
N1649 H1655 0.985 . S
C1650 C1644 1.379 . S
C1650 C1647 1.363 . S
C1650 N1648 1.356 . S
C1651 C1645 1.363 . S
C1651 C1646 1.379 . S
C1651 N1649 1.356 . S
N1652 C1644 1.356 . S
N1652 H1658 0.984 . S
N1652 H1659 0.984 . S
N1653 C1646 1.356 . S
N1653 H1656 0.984 . S
N1653 H1657 0.985 . S
H1654 N1649 0.984 . S
H1655 N1649 0.985 . S
H1656 N1653 0.984 . S
H1657 N1653 0.985 . S
H1658 N1652 0.984 . S
H1659 N1652 0.984 . S
H1660 N1648 0.984 . S
H1661 N1648 0.985 . S
C1662 C1663 1.363 . S
C1662 C1668 1.379 . S
C1662 N1670 1.356 . S
C1663 C1662 1.363 . S
C1663 C1669 1.363 . S
C1664 C1665 1.363 . S
C1664 C1669 1.379 . S
C1664 N1671 1.356 . S
C1665 C1664 1.363 . S
C1665 C1668 1.363 . S
N1666 C1668 1.356 . S
N1666 H1678 0.984 . S
N1666 H1679 0.985 . S
N1667 C1669 1.356 . S
N1667 H1672 0.984 . S
N1667 H1673 0.985 . S
C1668 C1662 1.379 . S
C1668 C1665 1.363 . S
C1668 N1666 1.356 . S
C1669 C1663 1.363 . S
C1669 C1664 1.379 . S
C1669 N1667 1.356 . S
N1670 C1662 1.356 . S
N1670 H1676 0.984 . S
N1670 H1677 0.984 . S
N1671 C1664 1.356 . S
N1671 H1674 0.984 . S
N1671 H1675 0.985 . S
H1672 N1667 0.984 . S
H1673 N1667 0.985 . S
H1674 N1671 0.984 . S
H1675 N1671 0.985 . S
H1676 N1670 0.984 . S
H1677 N1670 0.984 . S
H1678 N1666 0.984 . S
H1679 N1666 0.985 . S
C1680 C1681 1.363 . S
C1680 C1686 1.379 . S
C1680 N1688 1.356 . S
C1681 C1680 1.363 . S
C1681 C1687 1.363 . S
C1682 C1683 1.363 . S
C1682 C1687 1.379 . S
C1682 N1689 1.356 . S
C1683 C1682 1.363 . S
C1683 C1686 1.363 . S
N1684 C1686 1.356 . S
N1684 H1696 0.984 . S
N1684 H1697 0.985 . S
N1685 C1687 1.356 . S
N1685 H1690 0.984 . S
N1685 H1691 0.985 . S
C1686 C1680 1.379 . S
C1686 C1683 1.363 . S
C1686 N1684 1.356 . S
C1687 C1681 1.363 . S
C1687 C1682 1.379 . S
C1687 N1685 1.356 . S
N1688 C1680 1.356 . S
N1688 H1694 0.984 . S
N1688 H1695 0.984 . S
N1689 C1682 1.356 . S
N1689 H1692 0.984 . S
N1689 H1693 0.985 . S
H1690 N1685 0.984 . S
H1691 N1685 0.985 . S
H1692 N1689 0.984 . S
H1693 N1689 0.985 . S
H1694 N1688 0.984 . S
H1695 N1688 0.984 . S
H1696 N1684 0.984 . S
H1697 N1684 0.985 . S
C1698 C1699 1.363 . S
C1698 C1704 1.379 . S
C1698 N1706 1.356 . S
C1699 C1698 1.363 . S
C1699 C1705 1.363 1_545 S
C1700 C1701 1.363 1_565 S
C1700 C1705 1.379 . S
C1700 N1707 1.356 . S
C1701 C1700 1.363 1_545 S
C1701 C1704 1.363 . S
N1702 C1704 1.356 . S
N1702 H1714 0.984 . S
N1702 H1715 0.985 . S
N1703 C1705 1.356 . S
N1703 H1708 0.984 . S
N1703 H1709 0.985 . S
C1704 C1698 1.379 . S
C1704 C1701 1.363 . S
C1704 N1702 1.356 . S
C1705 C1699 1.363 1_565 S
C1705 C1700 1.379 . S
C1705 N1703 1.356 . S
N1706 C1698 1.356 . S
N1706 H1712 0.984 . S
N1706 H1713 0.984 . S
N1707 C1700 1.356 . S
N1707 H1710 0.984 . S
N1707 H1711 0.985 . S
H1708 N1703 0.984 . S
H1709 N1703 0.985 . S
H1710 N1707 0.984 . S
H1711 N1707 0.985 . S
H1712 N1706 0.984 . S
H1713 N1706 0.984 . S
H1714 N1702 0.984 . S
H1715 N1702 0.985 . S
C1716 C1717 1.363 . S
C1716 C1722 1.379 . S
C1716 N1724 1.356 . S
C1717 C1716 1.363 . S
C1717 C1723 1.363 . S
C1718 C1719 1.363 . S
C1718 C1723 1.379 . S
C1718 N1725 1.356 . S
C1719 C1718 1.363 . S
C1719 C1722 1.363 . S
N1720 C1722 1.356 . S
N1720 H1732 0.984 . S
N1720 H1733 0.985 . S
N1721 C1723 1.356 . S
N1721 H1726 0.984 . S
N1721 H1727 0.985 . S
C1722 C1716 1.379 . S
C1722 C1719 1.363 . S
C1722 N1720 1.356 . S
C1723 C1717 1.363 . S
C1723 C1718 1.379 . S
C1723 N1721 1.356 . S
N1724 C1716 1.356 . S
N1724 H1730 0.984 . S
N1724 H1731 0.984 . S
N1725 C1718 1.356 . S
N1725 H1728 0.984 . S
N1725 H1729 0.985 . S
H1726 N1721 0.984 . S
H1727 N1721 0.985 . S
H1728 N1725 0.984 . S
H1729 N1725 0.985 . S
H1730 N1724 0.984 . S
H1731 N1724 0.984 . S
H1732 N1720 0.984 . S
H1733 N1720 0.985 . S
C1734 C1735 1.363 . S
C1734 C1740 1.379 . S
C1734 N1742 1.356 . S
C1735 C1734 1.363 . S
C1735 C1741 1.363 . S
C1736 C1737 1.363 . S
C1736 C1741 1.379 . S
C1736 N1743 1.356 . S
C1737 C1736 1.363 . S
C1737 C1740 1.363 . S
N1738 C1740 1.356 . S
N1738 H1750 0.984 . S
N1738 H1751 0.985 . S
N1739 C1741 1.356 . S
N1739 H1744 0.984 . S
N1739 H1745 0.985 . S
C1740 C1734 1.379 . S
C1740 C1737 1.363 . S
C1740 N1738 1.356 . S
C1741 C1735 1.363 . S
C1741 C1736 1.379 . S
C1741 N1739 1.356 . S
N1742 C1734 1.356 . S
N1742 H1748 0.984 . S
N1742 H1749 0.984 . S
N1743 C1736 1.356 . S
N1743 H1746 0.984 . S
N1743 H1747 0.985 . S
H1744 N1739 0.984 . S
H1745 N1739 0.985 . S
H1746 N1743 0.984 . S
H1747 N1743 0.985 . S
H1748 N1742 0.984 . S
H1749 N1742 0.984 . S
H1750 N1738 0.984 . S
H1751 N1738 0.985 . S
C1752 C1753 1.363 . S
C1752 C1758 1.379 . S
C1752 N1760 1.356 . S
C1753 C1752 1.363 . S
C1753 C1759 1.363 . S
C1754 C1755 1.363 . S
C1754 C1759 1.379 . S
C1754 N1761 1.356 . S
C1755 C1754 1.363 . S
C1755 C1758 1.363 . S
N1756 C1758 1.356 . S
N1756 H1768 0.984 . S
N1756 H1769 0.985 . S
N1757 C1759 1.356 . S
N1757 H1762 0.984 . S
N1757 H1763 0.985 . S
C1758 C1752 1.379 . S
C1758 C1755 1.363 . S
C1758 N1756 1.356 . S
C1759 C1753 1.363 . S
C1759 C1754 1.379 . S
C1759 N1757 1.356 . S
N1760 C1752 1.356 . S
N1760 H1766 0.984 . S
N1760 H1767 0.984 . S
N1761 C1754 1.356 . S
N1761 H1764 0.984 . S
N1761 H1765 0.985 . S
H1762 N1757 0.984 . S
H1763 N1757 0.985 . S
H1764 N1761 0.984 . S
H1765 N1761 0.985 . S
H1766 N1760 0.984 . S
H1767 N1760 0.984 . S
H1768 N1756 0.984 . S
H1769 N1756 0.985 . S
C1770 C1771 1.363 . S
C1770 C1776 1.391 . S
C1770 N1778 1.356 1_545 S
C1771 C1770 1.363 . S
C1771 C1777 1.363 . S
C1772 C1773 1.363 . S
C1772 C1777 1.379 . S
C1772 N1779 1.356 . S
C1773 C1772 1.363 . S
C1773 C1776 1.371 . S
N1774 C1776 1.337 1_665 S
N1774 H1786 0.984 . S
N1774 H1787 0.985 1_565 S
N1775 C1777 1.356 . S
N1775 H1780 0.984 . S
N1775 H1781 0.985 . S
C1776 C1770 1.391 . S
C1776 C1773 1.371 . S
C1776 N1774 1.337 1_445 S
C1777 C1771 1.363 . S
C1777 C1772 1.379 . S
C1777 N1775 1.356 . S
N1778 C1770 1.356 1_565 S
N1778 H1784 0.984 1_455 S
N1778 H1785 0.984 . S
N1779 C1772 1.356 . S
N1779 H1782 0.984 . S
N1779 H1783 0.985 . S
H1780 N1775 0.984 . S
H1781 N1775 0.985 . S
H1782 N1779 0.984 . S
H1783 N1779 0.985 . S
H1784 N1778 0.984 1_655 S
H1785 N1778 0.984 . S
H1786 N1774 0.984 . S
H1787 N1774 0.985 1_545 S
C1788 C1789 1.363 . S
C1788 C1794 1.379 . S
C1788 N1796 1.356 . S
C1789 C1788 1.363 . S
C1789 C1795 1.363 . S
C1790 C1791 1.363 . S
C1790 C1795 1.379 . S
C1790 N1797 1.356 . S
C1791 C1790 1.363 . S
C1791 C1794 1.363 . S
N1792 C1794 1.356 . S
N1792 H1804 0.984 . S
N1792 H1805 0.985 . S
N1793 C1795 1.356 . S
N1793 H1798 0.984 . S
N1793 H1799 0.985 . S
C1794 C1788 1.379 . S
C1794 C1791 1.363 . S
C1794 N1792 1.356 . S
C1795 C1789 1.363 . S
C1795 C1790 1.379 . S
C1795 N1793 1.356 . S
N1796 C1788 1.356 . S
N1796 H1802 0.984 . S
N1796 H1803 0.984 . S
N1797 C1790 1.356 . S
N1797 H1800 0.984 . S
N1797 H1801 0.985 . S
H1798 N1793 0.984 . S
H1799 N1793 0.985 . S
H1800 N1797 0.984 . S
H1801 N1797 0.985 . S
H1802 N1796 0.984 . S
H1803 N1796 0.984 . S
H1804 N1792 0.984 . S
H1805 N1792 0.985 . S
C1806 C1807 1.363 . S
C1806 C1812 1.379 . S
C1806 N1814 1.356 1_455 S
C1807 C1806 1.363 . S
C1807 C1813 1.363 . S
C1808 C1809 1.363 . S
C1808 C1813 1.379 . S
C1808 N1815 1.356 . S
C1809 C1808 1.363 . S
C1809 C1812 1.363 . S
N1810 C1812 1.356 . S
N1810 H1822 0.974 1_455 S
N1810 H1823 0.985 . S
N1811 C1813 1.356 . S
N1811 H1816 0.984 . S
N1811 H1817 0.985 . S
C1812 C1806 1.379 . S
C1812 C1809 1.363 . S
C1812 N1810 1.356 . S
C1813 C1807 1.363 . S
C1813 C1808 1.379 . S
C1813 N1811 1.356 . S
N1814 C1806 1.356 1_655 S
N1814 H1820 0.984 . S
N1814 H1821 0.984 . S
N1815 C1808 1.356 . S
N1815 H1818 0.984 . S
N1815 H1819 0.985 . S
H1816 N1811 0.984 . S
H1817 N1811 0.985 . S
H1818 N1815 0.984 . S
H1819 N1815 0.985 . S
H1820 N1814 0.984 . S
H1821 N1814 0.984 . S
H1822 N1810 0.974 1_655 S
H1823 N1810 0.985 . S
C1824 C1825 1.363 . S
C1824 C1830 1.379 . S
C1824 N1832 1.356 . S
C1825 C1824 1.363 . S
C1825 C1831 1.363 . S
C1826 C1827 1.363 . S
C1826 C1831 1.379 . S
C1826 N1833 1.356 . S
C1827 C1826 1.363 . S
C1827 C1830 1.363 . S
N1828 C1830 1.356 . S
N1828 H1840 0.984 . S
N1828 H1841 0.985 . S
N1829 C1831 1.356 . S
N1829 H1834 0.984 . S
N1829 H1835 0.985 . S
C1830 C1824 1.379 . S
C1830 C1827 1.363 . S
C1830 N1828 1.356 . S
C1831 C1825 1.363 . S
C1831 C1826 1.379 . S
C1831 N1829 1.356 . S
N1832 C1824 1.356 . S
N1832 H1838 0.984 . S
N1832 H1839 0.984 . S
N1833 C1826 1.356 . S
N1833 H1836 0.984 . S
N1833 H1837 0.985 . S
H1834 N1829 0.984 . S
H1835 N1829 0.985 . S
H1836 N1833 0.984 . S
H1837 N1833 0.985 . S
H1838 N1832 0.984 . S
H1839 N1832 0.984 . S
H1840 N1828 0.984 . S
H1841 N1828 0.985 . S
C1842 C1843 1.363 1_455 S
C1842 C1848 1.379 . S
C1842 N1850 1.356 1_556 S
C1843 C1842 1.363 1_655 S
C1843 C1849 1.363 . S
C1844 C1845 1.363 . S
C1844 C1849 1.379 . S
C1844 N1851 1.356 . S
C1845 C1844 1.363 . S
C1845 C1848 1.363 1_655 S
N1846 C1848 1.356 . S
N1846 H1858 0.984 . S
N1846 H1859 0.985 . S
N1847 C1849 1.356 . S
N1847 H1852 0.984 . S
N1847 H1853 0.985 . S
C1848 C1842 1.379 . S
C1848 C1845 1.363 1_455 S
C1848 N1846 1.356 . S
C1849 C1843 1.363 . S
C1849 C1844 1.379 . S
C1849 N1847 1.356 . S
N1850 C1842 1.356 1_554 S
N1850 H1856 0.984 . S
N1850 H1857 0.984 . S
N1851 C1844 1.356 . S
N1851 H1854 0.984 . S
N1851 H1855 0.985 . S
H1852 N1847 0.984 . S
H1853 N1847 0.985 . S
H1854 N1851 0.984 . S
H1855 N1851 0.985 . S
H1856 N1850 0.984 . S
H1857 N1850 0.984 . S
H1858 N1846 0.984 . S
H1859 N1846 0.985 . S
C1860 C1861 1.363 . S
C1860 C1866 1.379 . S
C1860 N1868 1.356 . S
C1861 C1860 1.363 . S
C1861 C1867 1.363 . S
C1862 C1863 1.363 . S
C1862 C1867 1.379 . S
C1862 N1869 1.356 . S
C1863 C1862 1.363 . S
C1863 C1866 1.363 . S
N1864 C1866 1.356 . S
N1864 H1876 0.984 . S
N1864 H1877 0.985 . S
N1865 C1867 1.356 . S
N1865 H1870 0.984 . S
N1865 H1871 0.985 . S
C1866 C1860 1.379 . S
C1866 C1863 1.363 . S
C1866 N1864 1.356 . S
C1867 C1861 1.363 . S
C1867 C1862 1.379 . S
C1867 N1865 1.356 . S
N1868 C1860 1.356 . S
N1868 H1874 0.984 . S
N1868 H1875 0.984 . S
N1869 C1862 1.356 . S
N1869 H1872 0.984 . S
N1869 H1873 0.985 . S
H1870 N1865 0.984 . S
H1871 N1865 0.985 . S
H1872 N1869 0.984 . S
H1873 N1869 0.985 . S
H1874 N1868 0.984 . S
H1875 N1868 0.984 . S
H1876 N1864 0.984 . S
H1877 N1864 0.985 . S
C1878 C1879 1.363 . S
C1878 C1884 1.379 . S
C1878 N1886 1.356 1_556 S
C1879 C1878 1.363 . S
C1879 C1885 1.363 . S
C1880 C1881 1.363 . S
C1880 C1885 1.379 . S
C1880 N1887 1.356 . S
C1881 C1880 1.363 . S
C1881 C1884 1.363 . S
N1882 C1884 1.356 . S
N1882 H1894 0.984 . S
N1882 H1895 0.985 . S
N1883 C1885 1.356 . S
N1883 H1888 0.984 . S
N1883 H1889 0.985 . S
C1884 C1878 1.379 . S
C1884 C1881 1.363 . S
C1884 N1882 1.356 . S
C1885 C1879 1.363 . S
C1885 C1880 1.379 . S
C1885 N1883 1.356 . S
N1886 C1878 1.356 1_554 S
N1886 H1892 0.984 . S
N1886 H1893 0.984 . S
N1887 C1880 1.356 . S
N1887 H1890 0.984 . S
N1887 H1891 0.985 1_455 S
H1888 N1883 0.984 . S
H1889 N1883 0.985 . S
H1890 N1887 0.984 . S
H1891 N1887 0.985 1_655 S
H1892 N1886 0.984 . S
H1893 N1886 0.984 . S
H1894 N1882 0.984 . S
H1895 N1882 0.985 . S
C1896 C1897 1.363 . S
C1896 C1902 1.379 . S
C1896 N1904 1.356 . S
C1897 C1896 1.363 . S
C1897 C1903 1.363 . S
C1898 C1899 1.363 . S
C1898 C1903 1.379 . S
C1898 N1905 1.356 . S
C1899 C1898 1.363 . S
C1899 C1902 1.363 . S
N1900 C1902 1.356 . S
N1900 H1912 0.984 . S
N1900 H1913 0.985 . S
N1901 C1903 1.356 . S
N1901 H1906 0.984 . S
N1901 H1907 0.985 . S
C1902 C1896 1.379 . S
C1902 C1899 1.363 . S
C1902 N1900 1.356 . S
C1903 C1897 1.363 . S
C1903 C1898 1.379 . S
C1903 N1901 1.356 . S
N1904 C1896 1.356 . S
N1904 H1910 0.984 . S
N1904 H1911 0.984 . S
N1905 C1898 1.356 . S
N1905 H1908 0.984 . S
N1905 H1909 0.985 . S
H1906 N1901 0.984 . S
H1907 N1901 0.985 . S
H1908 N1905 0.984 . S
H1909 N1905 0.985 . S
H1910 N1904 0.984 . S
H1911 N1904 0.984 . S
H1912 N1900 0.984 . S
H1913 N1900 0.985 . S
C1914 C1915 1.363 . S
C1914 C1920 1.379 . S
C1914 N1922 1.356 . S
C1915 C1914 1.363 . S
C1915 C1921 1.363 . S
C1916 C1917 1.363 . S
C1916 C1921 1.379 . S
C1916 N1923 1.356 . S
C1917 C1916 1.363 . S
C1917 C1920 1.363 . S
N1918 C1920 1.356 . S
N1918 H1930 0.984 . S
N1918 H1931 0.985 . S
N1919 C1921 1.356 1_556 S
N1919 H1924 0.984 . S
N1919 H1925 0.985 . S
C1920 C1914 1.379 . S
C1920 C1917 1.363 . S
C1920 N1918 1.356 . S
C1921 C1915 1.363 . S
C1921 C1916 1.379 . S
C1921 N1919 1.356 1_554 S
N1922 C1914 1.356 . S
N1922 H1928 0.984 . S
N1922 H1929 0.984 . S
N1923 C1916 1.356 . S
N1923 H1926 0.984 . S
N1923 H1927 0.985 . S
H1924 N1919 0.984 . S
H1925 N1919 0.985 . S
H1926 N1923 0.984 . S
H1927 N1923 0.985 . S
H1928 N1922 0.984 . S
H1929 N1922 0.984 . S
H1930 N1918 0.984 . S
H1931 N1918 0.985 . S
C1932 C1933 1.363 . S
C1932 C1938 1.379 . S
C1932 N1940 1.356 . S
C1933 C1932 1.363 . S
C1933 C1939 1.363 . S
C1934 C1935 1.363 . S
C1934 C1939 1.379 . S
C1934 N1941 1.356 . S
C1935 C1934 1.363 . S
C1935 C1938 1.363 . S
N1936 C1938 1.356 . S
N1936 H1948 0.984 . S
N1936 H1949 0.985 . S
N1937 C1939 1.356 . S
N1937 H1942 0.984 . S
N1937 H1943 0.985 . S
C1938 C1932 1.379 . S
C1938 C1935 1.363 . S
C1938 N1936 1.356 . S
C1939 C1933 1.363 . S
C1939 C1934 1.379 . S
C1939 N1937 1.356 . S
N1940 C1932 1.356 . S
N1940 H1946 0.984 . S
N1940 H1947 0.984 . S
N1941 C1934 1.356 . S
N1941 H1944 0.984 . S
N1941 H1945 0.985 . S
H1942 N1937 0.984 . S
H1943 N1937 0.985 . S
H1944 N1941 0.984 . S
H1945 N1941 0.985 . S
H1946 N1940 0.984 . S
H1947 N1940 0.984 . S
H1948 N1936 0.984 . S
H1949 N1936 0.985 . S
C1950 C1951 1.363 . S
C1950 C1956 1.379 . S
C1950 N1958 1.356 . S
C1951 C1950 1.363 . S
C1951 C1957 1.363 . S
C1952 C1953 1.363 . S
C1952 C1957 1.379 . S
C1952 N1959 1.356 . S
C1953 C1952 1.363 . S
C1953 C1956 1.363 . S
N1954 C1956 1.356 . S
N1954 H1966 0.984 . S
N1954 H1967 0.985 . S
N1955 C1957 1.356 1_556 S
N1955 H1960 0.984 . S
N1955 H1961 0.985 . S
C1956 C1950 1.379 . S
C1956 C1953 1.363 . S
C1956 N1954 1.356 . S
C1957 C1951 1.363 . S
C1957 C1952 1.379 . S
C1957 N1955 1.356 1_554 S
N1958 C1950 1.356 . S
N1958 H1964 0.984 . S
N1958 H1965 0.984 . S
N1959 C1952 1.356 . S
N1959 H1962 0.984 . S
N1959 H1963 0.985 . S
H1960 N1955 0.984 . S
H1961 N1955 0.985 . S
H1962 N1959 0.984 . S
H1963 N1959 0.985 . S
H1964 N1958 0.984 . S
H1965 N1958 0.984 . S
H1966 N1954 0.984 . S
H1967 N1954 0.985 . S
C1968 C1969 1.363 . S
C1968 C1974 1.379 . S
C1968 N1976 1.356 . S
C1969 C1968 1.363 . S
C1969 C1975 1.363 . S
C1970 C1971 1.363 . S
C1970 C1975 1.379 . S
C1970 N1977 1.356 . S
C1971 C1970 1.363 . S
C1971 C1974 1.363 . S
N1972 C1974 1.356 . S
N1972 H1984 0.984 . S
N1972 H1985 0.985 . S
N1973 C1975 1.356 . S
N1973 H1978 0.984 . S
N1973 H1979 0.985 . S
C1974 C1968 1.379 . S
C1974 C1971 1.363 . S
C1974 N1972 1.356 . S
C1975 C1969 1.363 . S
C1975 C1970 1.379 . S
C1975 N1973 1.356 . S
N1976 C1968 1.356 . S
N1976 H1982 0.984 . S
N1976 H1983 0.984 . S
N1977 C1970 1.356 . S
N1977 H1980 0.984 . S
N1977 H1981 0.985 . S
H1978 N1973 0.984 . S
H1979 N1973 0.985 . S
H1980 N1977 0.984 . S
H1981 N1977 0.985 . S
H1982 N1976 0.984 . S
H1983 N1976 0.984 . S
H1984 N1972 0.984 . S
H1985 N1972 0.985 . S
C1986 C1987 1.363 . S
C1986 C1992 1.379 . S
C1986 N1994 1.356 . S
C1987 C1986 1.363 . S
C1987 C1993 1.363 . S
C1988 C1989 1.363 . S
C1988 C1993 1.379 . S
C1988 N1995 1.356 . S
C1989 C1988 1.363 . S
C1989 C1992 1.363 . S
N1990 C1992 1.356 . S
N1990 H2002 0.984 . S
N1990 H2003 0.985 . S
N1991 C1993 1.356 . S
N1991 H1996 0.984 . S
N1991 H1997 0.985 . S
C1992 C1986 1.379 . S
C1992 C1989 1.363 . S
C1992 N1990 1.356 . S
C1993 C1987 1.363 . S
C1993 C1988 1.379 . S
C1993 N1991 1.356 . S
N1994 C1986 1.356 . S
N1994 H2000 0.984 . S
N1994 H2001 0.984 . S
N1995 C1988 1.356 . S
N1995 H1998 0.984 . S
N1995 H1999 0.985 . S
H1996 N1991 0.984 . S
H1997 N1991 0.985 . S
H1998 N1995 0.984 . S
H1999 N1995 0.985 . S
H2000 N1994 0.984 . S
H2001 N1994 0.984 . S
H2002 N1990 0.984 . S
H2003 N1990 0.985 . S
C2004 C2005 1.363 . S
C2004 C2010 1.379 . S
C2004 N2012 1.356 . S
C2005 C2004 1.363 . S
C2005 C2011 1.363 . S
C2006 C2007 1.363 . S
C2006 C2011 1.379 . S
C2006 N2013 1.356 . S
C2007 C2006 1.363 . S
C2007 C2010 1.363 . S
N2008 C2010 1.356 . S
N2008 H2020 0.984 . S
N2008 H2021 0.985 . S
N2009 C2011 1.356 . S
N2009 H2014 0.984 . S
N2009 H2015 0.985 . S
C2010 C2004 1.379 . S
C2010 C2007 1.363 . S
C2010 N2008 1.356 . S
C2011 C2005 1.363 . S
C2011 C2006 1.379 . S
C2011 N2009 1.356 . S
N2012 C2004 1.356 . S
N2012 H2018 0.984 . S
N2012 H2019 0.984 . S
N2013 C2006 1.356 . S
N2013 H2016 0.984 . S
N2013 H2017 0.985 . S
H2014 N2009 0.984 . S
H2015 N2009 0.985 . S
H2016 N2013 0.984 . S
H2017 N2013 0.985 . S
H2018 N2012 0.984 . S
H2019 N2012 0.984 . S
H2020 N2008 0.984 . S
H2021 N2008 0.985 . S
C2022 C2023 1.363 . S
C2022 C2028 1.379 . S
C2022 N2030 1.356 . S
C2023 C2022 1.363 . S
C2023 C2029 1.363 . S
C2024 C2025 1.363 . S
C2024 C2029 1.379 . S
C2024 N2031 1.356 . S
C2025 C2024 1.363 . S
C2025 C2028 1.363 . S
N2026 C2028 1.356 . S
N2026 H2038 0.984 . S
N2026 H2039 0.985 . S
N2027 C2029 1.356 . S
N2027 H2032 0.984 . S
N2027 H2033 0.985 . S
C2028 C2022 1.379 . S
C2028 C2025 1.363 . S
C2028 N2026 1.356 . S
C2029 C2023 1.363 . S
C2029 C2024 1.379 . S
C2029 N2027 1.356 . S
N2030 C2022 1.356 . S
N2030 H2036 0.984 . S
N2030 H2037 0.984 . S
N2031 C2024 1.356 . S
N2031 H2034 0.984 . S
N2031 H2035 0.985 . S
H2032 N2027 0.984 . S
H2033 N2027 0.985 . S
H2034 N2031 0.984 . S
H2035 N2031 0.985 . S
H2036 N2030 0.984 . S
H2037 N2030 0.984 . S
H2038 N2026 0.984 . S
H2039 N2026 0.985 . S
C2040 C2041 1.363 . S
C2040 C2046 1.379 . S
C2040 N2048 1.356 1_556 S
C2041 C2040 1.363 . S
C2041 C2047 1.363 . S
C2042 C2043 1.363 . S
C2042 C2047 1.379 . S
C2042 N2049 1.356 . S
C2043 C2042 1.363 . S
C2043 C2046 1.363 . S
N2044 C2046 1.356 1_554 S
N2044 H2056 0.984 . S
N2044 H2057 0.985 . S
N2045 C2047 1.356 . S
N2045 H2050 0.984 . S
N2045 H2051 0.985 . S
C2046 C2040 1.379 . S
C2046 C2043 1.363 . S
C2046 N2044 1.356 1_556 S
C2047 C2041 1.363 . S
C2047 C2042 1.379 . S
C2047 N2045 1.356 . S
N2048 C2040 1.356 1_554 S
N2048 H2054 0.984 . S
N2048 H2055 0.984 . S
N2049 C2042 1.356 . S
N2049 H2052 0.984 . S
N2049 H2053 0.985 . S
H2050 N2045 0.984 . S
H2051 N2045 0.985 . S
H2052 N2049 0.984 . S
H2053 N2049 0.985 . S
H2054 N2048 0.984 . S
H2055 N2048 0.984 . S
H2056 N2044 0.984 . S
H2057 N2044 0.985 . S
C2058 C2059 1.363 . S
C2058 C2064 1.379 . S
C2058 N2066 1.356 . S
C2059 C2058 1.363 . S
C2059 C2065 1.363 . S
C2060 C2061 1.363 . S
C2060 C2065 1.379 . S
C2060 N2067 1.356 . S
C2061 C2060 1.363 . S
C2061 C2064 1.363 . S
N2062 C2064 1.356 . S
N2062 H2074 0.984 . S
N2062 H2075 0.985 . S
N2063 C2065 1.356 . S
N2063 H2068 0.984 . S
N2063 H2069 0.985 . S
C2064 C2058 1.379 . S
C2064 C2061 1.363 . S
C2064 N2062 1.356 . S
C2065 C2059 1.363 . S
C2065 C2060 1.379 . S
C2065 N2063 1.356 . S
N2066 C2058 1.356 . S
N2066 H2072 0.984 . S
N2066 H2073 0.984 . S
N2067 C2060 1.356 . S
N2067 H2070 0.984 . S
N2067 H2071 0.985 . S
H2068 N2063 0.984 . S
H2069 N2063 0.985 . S
H2070 N2067 0.984 . S
H2071 N2067 0.985 . S
H2072 N2066 0.984 . S
H2073 N2066 0.984 . S
H2074 N2062 0.984 . S
H2075 N2062 0.985 . S
C2076 C2077 1.363 . S
C2076 C2082 1.379 . S
C2076 N2084 1.356 . S
C2077 C2076 1.363 . S
C2077 C2083 1.363 . S
C2078 C2079 1.363 . S
C2078 C2083 1.379 . S
C2078 N2085 1.356 . S
C2079 C2078 1.363 . S
C2079 C2082 1.363 . S
N2080 C2082 1.356 . S
N2080 H2092 0.984 . S
N2080 H2093 0.985 . S
N2081 C2083 1.356 . S
N2081 H2086 0.984 . S
N2081 H2087 0.985 . S
C2082 C2076 1.379 . S
C2082 C2079 1.363 . S
C2082 N2080 1.356 . S
C2083 C2077 1.363 . S
C2083 C2078 1.379 . S
C2083 N2081 1.356 . S
N2084 C2076 1.356 . S
N2084 H2090 0.984 . S
N2084 H2091 0.984 . S
N2085 C2078 1.356 . S
N2085 H2088 0.984 . S
N2085 H2089 0.985 . S
H2086 N2081 0.984 . S
H2087 N2081 0.985 . S
H2088 N2085 0.984 . S
H2089 N2085 0.985 . S
H2090 N2084 0.984 . S
H2091 N2084 0.984 . S
H2092 N2080 0.984 . S
H2093 N2080 0.985 . S
C2094 C2095 1.363 . S
C2094 C2100 1.379 . S
C2094 N2102 1.356 . S
C2095 C2094 1.363 . S
C2095 C2101 1.363 1_565 S
C2096 C2097 1.363 . S
C2096 C2101 1.379 1_565 S
C2096 N2103 1.356 . S
C2097 C2096 1.363 . S
C2097 C2100 1.363 . S
N2098 C2100 1.356 1_556 S
N2098 H2110 0.984 . S
N2098 H2111 0.984 1_556 S
N2099 C2101 1.356 . S
N2099 H2104 0.984 . S
N2099 H2105 0.985 . S
C2100 C2094 1.379 . S
C2100 C2097 1.363 . S
C2100 N2098 1.356 1_554 S
C2101 C2095 1.363 1_545 S
C2101 C2096 1.379 1_545 S
C2101 N2099 1.356 . S
N2102 C2094 1.356 . S
N2102 H2108 0.984 1_554 S
N2102 H2109 0.984 . S
N2103 C2096 1.356 . S
N2103 H2106 0.984 . S
N2103 H2107 0.985 1_565 S
H2104 N2099 0.984 . S
H2105 N2099 0.985 . S
H2106 N2103 0.984 . S
H2107 N2103 0.985 1_545 S
H2108 N2102 0.984 1_556 S
H2109 N2102 0.984 . S
H2110 N2098 0.984 . S
H2111 N2098 0.984 1_554 S
C1251 C241 1.768 . S
C1249 C66 1.762 . S
C1269 C300 1.194 . S
C1267 C76 1.194 . S
C1285 C93 1.867 . S
C1287 C417 1.855 . S
C1305 C485 1.529 . S
C1303 C54 1.549 . S
C1323 C564 1.549 . S
C1321 C126 1.561 . S
C1341 C689 1.842 . S
C1339 C150 1.856 . S
C1357 C136 1.195 . S
C1359 C749 1.203 . S
C1377 C857 1.801 . S
C1375 C117 1.806 . S
C1393 C141 1.332 . S
C1395 C953 1.338 . S
C1413 C1013 1.352 . S
C1411 C112 1.347 . S
C1429 C124 1.549 . S
C1431 C916 1.548 . S
C1449 C1033 1.318 . S
C1447 C148 1.315 . S
C1465 C88 1.330 . S
C1467 C1101 1.327 . S
C1483 C52 1.603 . S
C1485 C1092 1.603 . S
C1501 C64 1.274 . S
C1503 C1121 1.276 . S
C1519 C78 1.242 . S
C1521 C1129 1.249 . S
C1537 C45 1.716 . S
C1539 C513 1.726 . S
C1555 C177 1.883 . S
C1557 C476 1.877 . S
C1575 C212 1.400 1_556 S
C1573 C189 1.410 1_565 S
C1593 C309 1.625 . S
C1591 C102 1.622 . S
C1609 C57 1.733 . S
C1611 C573 1.745 . S
C1629 C865 1.469 . S
C1627 C138 1.470 . S
C1647 C593 1.812 . S
C1645 C114 1.827 . S
C1665 C777 1.724 . S
C1663 C153 1.726 . S
C1683 C769 1.768 . S
C1681 C174 1.762 . S
C1699 C184 1.194 . S
C1701 C837 1.194 . S
C1717 C105 1.867 . S
C1719 C601 1.855 . S
C1737 C652 1.529 . S
C1735 C162 1.549 . S
C1753 C42 1.561 . S
C1755 C397 1.549 . S
C1773 C505 1.842 1_455 S
C1771 C6 1.856 . S
C1791 C221 1.203 . S
C1789 C16 1.195 . S
C1809 C337 1.800 . S
C1807 C33 1.806 1_455 S
C1825 C21 1.332 . S
C1827 C1041 1.338 . S
C1843 C28 1.347 . S
C1845 C925 1.352 . S
C1861 C40 1.549 . S
C1863 C1004 1.548 . S
C1879 C4 1.315 . S
C1881 C945 1.318 . S
C1899 C1189 1.327 . S
C1897 C100 1.330 . S
C1917 C1180 1.603 . S
C1915 C160 1.603 . S
C1935 C1209 1.276 . S
C1933 C172 1.274 . S
C1951 C186 1.241 1_554 S
C1953 C1217 1.249 . S
C1969 C129 1.716 . S
C1971 C681 1.726 . S
C1989 C661 1.877 . S
C1987 C69 1.883 . S
C2007 C740 1.413 . S
C2005 C81 1.410 . S
C2025 C828 1.625 . S
C2023 C90 1.622 . S
C2041 C165 1.733 . S
C2043 C388 1.745 . S
C2061 C329 1.469 . S
C2059 C18 1.470 . S
C2077 C30 1.827 . S
C2079 C425 1.812 . S
C2097 C249 1.724 . S
C2095 C9 1.726 1_565 S
