# Generated by pormake.
# Topology apo, (3,6)-cn, num edge types: 1
# Building blocks:
#     Node 0, Type 0, BuildingBlock: VETTIZ_charged_linker_0, # of connection points: 3
#     Node 1, Type 0, BuildingBlock: VETTIZ_charged_linker_0, # of connection points: 3
#     Node 2, Type 0, BuildingBlock: VETTIZ_charged_linker_0, # of connection points: 3
#     Node 3, Type 0, BuildingBlock: VETTIZ_charged_linker_0, # of connection points: 3
#     Node 4, Type 0, BuildingBlock: VETTIZ_charged_linker_0, # of connection points: 3
#     Node 5, Type 0, BuildingBlock: VETTIZ_charged_linker_0, # of connection points: 3
#     Node 6, Type 0, BuildingBlock: VETTIZ_charged_linker_0, # of connection points: 3
#     Node 7, Type 0, BuildingBlock: VETTIZ_charged_linker_0, # of connection points: 3
#     Node 8, Type 1, BuildingBlock: KUMJIN_clean_sbu_1, # of connection points: 6
#     Node 9, Type 1, BuildingBlock: KUMJIN_clean_sbu_1, # of connection points: 6
#     Node 10, Type 1, BuildingBlock: KUMJIN_clean_sbu_1, # of connection points: 6
#     Node 11, Type 1, BuildingBlock: KUMJIN_clean_sbu_1, # of connection points: 6
#     Edge 12, Type (0, 1), BuildingBlock: XIVTED_clean_linker_0, # of connection points: 2
#     Edge 13, Type (0, 1), BuildingBlock: XIVTED_clean_linker_0, # of connection points: 2
#     Edge 14, Type (0, 1), BuildingBlock: XIVTED_clean_linker_0, # of connection points: 2
#     Edge 15, Type (0, 1), BuildingBlock: XIVTED_clean_linker_0, # of connection points: 2
#     Edge 16, Type (0, 1), BuildingBlock: XIVTED_clean_linker_0, # of connection points: 2
#     Edge 17, Type (0, 1), BuildingBlock: XIVTED_clean_linker_0, # of connection points: 2
#     Edge 18, Type (0, 1), BuildingBlock: XIVTED_clean_linker_0, # of connection points: 2
#     Edge 19, Type (0, 1), BuildingBlock: XIVTED_clean_linker_0, # of connection points: 2
#     Edge 20, Type (0, 1), BuildingBlock: XIVTED_clean_linker_0, # of connection points: 2
#     Edge 21, Type (0, 1), BuildingBlock: XIVTED_clean_linker_0, # of connection points: 2
#     Edge 22, Type (0, 1), BuildingBlock: XIVTED_clean_linker_0, # of connection points: 2
#     Edge 23, Type (0, 1), BuildingBlock: XIVTED_clean_linker_0, # of connection points: 2
#     Edge 24, Type (0, 1), BuildingBlock: XIVTED_clean_linker_0, # of connection points: 2
#     Edge 25, Type (0, 1), BuildingBlock: XIVTED_clean_linker_0, # of connection points: 2
#     Edge 26, Type (0, 1), BuildingBlock: XIVTED_clean_linker_0, # of connection points: 2
#     Edge 27, Type (0, 1), BuildingBlock: XIVTED_clean_linker_0, # of connection points: 2
#     Edge 28, Type (0, 1), BuildingBlock: XIVTED_clean_linker_0, # of connection points: 2
#     Edge 29, Type (0, 1), BuildingBlock: XIVTED_clean_linker_0, # of connection points: 2
#     Edge 30, Type (0, 1), BuildingBlock: XIVTED_clean_linker_0, # of connection points: 2
#     Edge 31, Type (0, 1), BuildingBlock: XIVTED_clean_linker_0, # of connection points: 2
#     Edge 32, Type (0, 1), BuildingBlock: XIVTED_clean_linker_0, # of connection points: 2
#     Edge 33, Type (0, 1), BuildingBlock: XIVTED_clean_linker_0, # of connection points: 2
#     Edge 34, Type (0, 1), BuildingBlock: XIVTED_clean_linker_0, # of connection points: 2
#     Edge 35, Type (0, 1), BuildingBlock: XIVTED_clean_linker_0, # of connection points: 2
# Relax obj value: 0.010
# Max RMSD: 0.095
# Mean RMSD: 0.076
data_MOF--net-apo--node1-KUMJIN_clean_sbu_1--node2-VETTIZ_charged_linker_0--edge1-XIVTED_clean_linker_0
_symmetry_space_group_name_H-M    P1
_symmetry_Int_Tables_number       1
_symmetry_cell_setting            triclinic
loop_
_symmetry_equiv_pos_as_xyz
'x, y, z'
_cell_length_a     28.945842
_cell_length_b     52.424361
_cell_length_c     64.538151
_cell_angle_alpha  89.992359
_cell_angle_beta   90.015054
_cell_angle_gamma 90.340643
loop_
_atom_site_label
_atom_site_type_symbol
_atom_site_fract_x
_atom_site_fract_y
_atom_site_fract_z
_atom_type_partial_charge
C0 C 0.29282 0.36176 0.4801 0.0
C1 C 0.31931 0.37938 0.49169 0.0
C2 C 0.33507 0.40187 0.48191 0.0
C3 C 0.29873 0.38919 0.44984 0.0
C4 C 0.28296 0.36708 0.45919 0.0
C5 C 0.25666 0.35036 0.44416 0.0
H6 H 0.18041 0.33124 0.34562 0.0
C7 C 0.28434 0.38887 0.42796 0.0
C8 C 0.25967 0.36614 0.42437 0.0
H9 H 0.16676 0.28 0.39786 0.0
H10 H 0.20432 0.31101 0.41998 0.0
H11 H 0.15633 0.38257 0.36969 0.0
H12 H 0.28438 0.34582 0.35466 0.0
H13 H 0.29332 0.37863 0.35096 0.0
H14 H 0.25033 0.3622 0.33567 0.0
H15 H 0.1801 0.38295 0.34402 0.0
H16 H 0.19542 0.4069 0.36294 0.0
C17 C 0.2063 0.34779 0.45191 0.0
C18 C 0.28242 0.32467 0.44219 0.0
C19 C 0.33291 0.46194 0.38082 0.0
C20 C 0.32521 0.4668 0.35975 0.0
C21 C 0.29811 0.4498 0.34802 0.0
C22 C 0.2794 0.4278 0.35709 0.0
C23 C 0.28775 0.42285 0.37817 0.0
C24 C 0.31359 0.43996 0.38973 0.0
C25 C 0.31847 0.43167 0.4119 0.0
C26 C 0.29198 0.40655 0.41164 0.0
C27 C 0.27422 0.40149 0.39187 0.0
C28 C 0.29449 0.45187 0.42571 0.0
C29 C 0.37066 0.42788 0.41645 0.0
C30 C 0.18577 0.32645 0.36176 0.0
C31 C 0.1707 0.30289 0.36983 0.0
C32 C 0.17755 0.298 0.39115 0.0
C33 C 0.19982 0.31595 0.40397 0.0
C34 C 0.21583 0.33904 0.39543 0.0
C35 C 0.20837 0.34396 0.37466 0.0
C36 C 0.22841 0.36913 0.36798 0.0
C37 C 0.24929 0.37857 0.38811 0.0
C38 C 0.24192 0.36094 0.40422 0.0
C39 C 0.1883 0.38637 0.3606 0.0
C40 C 0.26588 0.36392 0.35135 0.0
H41 H 0.338 0.42435 0.4549 0.0
H42 H 0.28001 0.34432 0.48709 0.0
H43 H 0.32046 0.32761 0.44317 0.0
H44 H 0.27673 0.31526 0.42711 0.0
H45 H 0.27225 0.31135 0.4548 0.0
H46 H 0.1933 0.36651 0.45747 0.0
H47 H 0.20389 0.33407 0.46498 0.0
H48 H 0.18209 0.34177 0.43961 0.0
H49 H 0.35377 0.47485 0.39008 0.0
H50 H 0.29218 0.45336 0.33169 0.0
H51 H 0.2596 0.41537 0.34727 0.0
H52 H 0.26342 0.45974 0.41787 0.0
H53 H 0.31811 0.46811 0.42912 0.0
H54 H 0.28129 0.44394 0.44043 0.0
H55 H 0.38946 0.42155 0.40234 0.0
H56 H 0.37727 0.41271 0.42794 0.0
H57 H 0.3871 0.4459 0.42182 0.0
H58 H 0.35648 0.41553 0.49012 0.0
C59 C 0.3247 0.40691 0.46124 0.0
C60 C 0.3206 0.17019 0.86145 0.0
C61 C 0.33534 0.19377 0.86955 0.0
C62 C 0.32847 0.19862 0.89087 0.0
C63 C 0.29072 0.15742 0.89508 0.0
C64 C 0.29828 0.15257 0.87432 0.0
C65 C 0.27843 0.1274 0.86757 0.0
H66 H 0.15308 0.02156 0.88888 0.0
C67 C 0.26494 0.13539 0.90381 0.0
C68 C 0.25785 0.11777 0.88769 0.0
H69 H 0.21218 0.04522 0.83042 0.0
H70 H 0.24713 0.08178 0.84674 0.0
H71 H 0.2446 0.03618 0.9171 0.0
H72 H 0.1187 0.07496 0.90197 0.0
H73 H 0.13062 0.0824 0.92789 0.0
H74 H 0.12071 0.0496 0.92061 0.0
H75 H 0.18998 0.02768 0.92836 0.0
H76 H 0.22676 0.05184 0.93973 0.0
C77 C 0.31866 0.11033 0.86006 0.0
C78 C 0.24074 0.13268 0.85102 0.0
C79 C 0.21301 0.13485 0.9794 0.0
C80 C 0.18719 0.11706 0.99106 0.0
C81 C 0.17259 0.09419 0.98152 0.0
C82 C 0.18328 0.08901 0.96089 0.0
C83 C 0.20847 0.10695 0.94937 0.0
C84 C 0.22335 0.12934 0.9586 0.0
C85 C 0.24956 0.14608 0.94359 0.0
C86 C 0.24719 0.13011 0.92392 0.0
C87 C 0.22305 0.10719 0.92752 0.0
C88 C 0.29975 0.14899 0.95152 0.0
C89 C 0.22335 0.17161 0.94139 0.0
C90 C 0.17414 0.03449 0.87975 0.0
C91 C 0.17966 0.03071 0.85833 0.0
C92 C 0.207 0.04799 0.84689 0.0
C93 C 0.22724 0.06923 0.85641 0.0
C94 C 0.21983 0.07349 0.87761 0.0
C95 C 0.19428 0.05611 0.88902 0.0
C96 C 0.18945 0.06421 0.91129 0.0
C97 C 0.21578 0.08944 0.91119 0.0
C98 C 0.23338 0.0947 0.89144 0.0
C99 C 0.21354 0.04396 0.92499 0.0
C100 C 0.13729 0.06786 0.9159 0.0
H101 H 0.30179 0.18548 0.91967 0.0
H102 H 0.32597 0.16548 0.84529 0.0
H103 H 0.22283 0.15101 0.85417 0.0
H104 H 0.21277 0.11827 0.85095 0.0
H105 H 0.25596 0.13397 0.83526 0.0
H106 H 0.35065 0.11415 0.86913 0.0
H107 H 0.32671 0.1139 0.84348 0.0
H108 H 0.31173 0.08976 0.8623 0.0
H109 H 0.22497 0.15254 0.98628 0.0
H110 H 0.1519 0.08035 0.9899 0.0
H111 H 0.17082 0.07132 0.95467 0.0
H112 H 0.31281 0.13046 0.95747 0.0
H113 H 0.30179 0.16305 0.96437 0.0
H114 H 0.32419 0.15473 0.93924 0.0
H115 H 0.18535 0.16849 0.94229 0.0
H116 H 0.22903 0.18091 0.92625 0.0
H117 H 0.23314 0.18512 0.95392 0.0
H118 H 0.33908 0.21665 0.89758 0.0
C119 C 0.30641 0.18057 0.90366 0.0
C120 C 0.79534 0.13585 0.52251 0.0
C121 C 0.82094 0.11779 0.51108 0.0
C122 C 0.83615 0.0955 0.52104 0.0
C123 C 0.802 0.10951 0.55324 0.0
C124 C 0.78617 0.13127 0.54357 0.0
C125 C 0.76038 0.14837 0.55844 0.0
H126 H 0.68905 0.16949 0.65764 0.0
C127 C 0.78859 0.11062 0.5752 0.0
C128 C 0.76406 0.13328 0.57855 0.0
H129 H 0.66676 0.21799 0.6044 0.0
H130 H 0.7068 0.18777 0.58256 0.0
H131 H 0.66362 0.11721 0.63438 0.0
H132 H 0.79142 0.15586 0.64797 0.0
H133 H 0.80143 0.12322 0.65185 0.0
H134 H 0.75869 0.13921 0.66738 0.0
H135 H 0.68833 0.11779 0.65988 0.0
H136 H 0.70333 0.09351 0.64127 0.0
C137 C 0.7098 0.15045 0.55097 0.0
C138 C 0.78616 0.17424 0.55971 0.0
C139 C 0.83804 0.03887 0.62262 0.0
C140 C 0.83098 0.03404 0.64373 0.0
C141 C 0.8054 0.05149 0.65568 0.0
C142 C 0.78736 0.07359 0.64668 0.0
C143 C 0.79476 0.07821 0.62549 0.0
C144 C 0.8195 0.0609 0.61386 0.0
C145 C 0.8233 0.06859 0.59157 0.0
C146 C 0.79716 0.09358 0.59175 0.0
C147 C 0.78064 0.09913 0.6116 0.0
C148 C 0.79834 0.04795 0.57835 0.0
C149 C 0.87533 0.07246 0.58648 0.0
C150 C 0.69196 0.17353 0.64123 0.0
C151 C 0.67448 0.19621 0.63281 0.0
C152 C 0.68026 0.2008 0.61138 0.0
C153 C 0.70338 0.18318 0.59869 0.0
C154 C 0.72103 0.1607 0.60748 0.0
C155 C 0.71479 0.15621 0.62842 0.0
C156 C 0.73556 0.13151 0.63533 0.0
C157 C 0.7557 0.12188 0.61518 0.0
C158 C 0.74725 0.13895 0.5988 0.0
C159 C 0.69599 0.11401 0.6433 0.0
C160 C 0.77359 0.13752 0.65159 0.0
H161 H 0.84015 0.07409 0.54855 0.0
H162 H 0.78294 0.15313 0.51525 0.0
H163 H 0.82419 0.17131 0.5599 0.0
H164 H 0.77844 0.18489 0.57402 0.0
H165 H 0.77784 0.18644 0.54615 0.0
H166 H 0.69672 0.13158 0.54559 0.0
H167 H 0.70693 0.16405 0.53783 0.0
H168 H 0.68592 0.15636 0.56337 0.0
H169 H 0.85706 0.02561 0.61303 0.0
H170 H 0.79988 0.04817 0.67206 0.0
H171 H 0.76849 0.08623 0.65659 0.0
H172 H 0.76866 0.03944 0.58692 0.0
H173 H 0.8221 0.03218 0.57424 0.0
H174 H 0.78279 0.05569 0.56404 0.0
H175 H 0.89484 0.07926 0.6003 0.0
H176 H 0.88154 0.08731 0.57464 0.0
H177 H 0.89138 0.05435 0.58133 0.0
H178 H 0.85659 0.08154 0.51281 0.0
C179 C 0.82686 0.09129 0.54195 0.0
C180 C 0.81301 0.32264 0.14132 0.0
C181 C 0.83185 0.30033 0.13286 0.0
C182 C 0.82703 0.29607 0.11131 0.0
C183 C 0.78462 0.33569 0.10748 0.0
C184 C 0.79012 0.33992 0.12849 0.0
C185 C 0.76889 0.36443 0.13549 0.0
H186 H 0.65503 0.47278 0.11361 0.0
C187 C 0.75827 0.35748 0.09882 0.0
C188 C 0.74937 0.37431 0.1153 0.0
H189 H 0.70376 0.44578 0.1731 0.0
H190 H 0.73358 0.40808 0.15713 0.0
H191 H 0.741 0.457 0.08724 0.0
H192 H 0.61281 0.41895 0.10039 0.0
H193 H 0.62555 0.41159 0.07454 0.0
H194 H 0.61737 0.44445 0.08197 0.0
H195 H 0.68792 0.46534 0.07468 0.0
H196 H 0.72563 0.44119 0.06429 0.0
C197 C 0.80816 0.38187 0.14387 0.0
C198 C 0.7303 0.35808 0.15142 0.0
C199 C 0.70994 0.36108 0.02251 0.0
C200 C 0.6854 0.37955 0.01107 0.0
C201 C 0.67106 0.40201 0.02103 0.0
C202 C 0.68027 0.40605 0.04198 0.0
C203 C 0.70428 0.3875 0.05328 0.0
C204 C 0.71929 0.36555 0.04361 0.0
C205 C 0.74526 0.34841 0.0584 0.0
C206 C 0.7418 0.36344 0.07855 0.0
C207 C 0.71774 0.38631 0.07525 0.0
C208 C 0.79577 0.34639 0.05082 0.0
C209 C 0.71967 0.3225 0.05968 0.0
C210 C 0.67193 0.45871 0.12322 0.0
C211 C 0.6776 0.46259 0.14464 0.0
C212 C 0.69997 0.44371 0.15649 0.0
C213 C 0.71697 0.42161 0.1472 0.0
C214 C 0.71136 0.41809 0.1258 0.0
C215 C 0.68882 0.43633 0.11422 0.0
C216 C 0.68473 0.42885 0.09183 0.0
C217 C 0.70939 0.40332 0.09188 0.0
C218 C 0.7249 0.39723 0.11178 0.0
C219 C 0.71077 0.44911 0.07867 0.0
C220 C 0.63255 0.42593 0.0867 0.0
H221 H 0.80075 0.3092 0.08241 0.0
H222 H 0.81498 0.3265 0.15778 0.0
H223 H 0.71466 0.339 0.14837 0.0
H224 H 0.7009 0.37142 0.1506 0.0
H225 H 0.74405 0.35789 0.16749 0.0
H226 H 0.84045 0.37929 0.13476 0.0
H227 H 0.81616 0.37738 0.16029 0.0
H228 H 0.8004 0.4024 0.14251 0.0
H229 H 0.72172 0.3437 0.0152 0.0
H230 H 0.65162 0.41632 0.01269 0.0
H231 H 0.66791 0.42347 0.04856 0.0
H232 H 0.80853 0.36518 0.04512 0.0
H233 H 0.79869 0.3325 0.0379 0.0
H234 H 0.8199 0.34091 0.06326 0.0
H235 H 0.6817 0.32543 0.06066 0.0
H236 H 0.72895 0.31143 0.07359 0.0
H237 H 0.7267 0.31072 0.04574 0.0
H238 H 0.84164 0.27924 0.1042 0.0
C239 C 0.80348 0.31357 0.09862 0.0
C240 C 0.69529 0.54756 0.64376 0.0
C241 C 0.67058 0.52642 0.6361 0.0
C242 C 0.66222 0.52463 0.61462 0.0
C243 C 0.70055 0.56537 0.60905 0.0
C244 C 0.71012 0.56661 0.63001 0.0
C245 C 0.73684 0.59026 0.63568 0.0
H246 H 0.83185 0.70353 0.60827 0.0
C247 C 0.71885 0.58892 0.59926 0.0
C248 C 0.74014 0.60353 0.61482 0.0
H249 H 0.83009 0.66698 0.66835 0.0
H250 H 0.78805 0.63144 0.65433 0.0
H251 H 0.85283 0.65078 0.58135 0.0
H252 H 0.7278 0.6906 0.59695 0.0
H253 H 0.72061 0.67861 0.57179 0.0
H254 H 0.76574 0.70172 0.57687 0.0
H255 H 0.83895 0.68178 0.57136 0.0
H256 H 0.81823 0.65314 0.55896 0.0
C257 C 0.78497 0.58191 0.64368 0.0
C258 C 0.70785 0.60573 0.65147 0.0
C259 C 0.68851 0.60633 0.52289 0.0
C260 C 0.69599 0.62784 0.51013 0.0
C261 C 0.72068 0.64879 0.5185 0.0
C262 C 0.73675 0.64854 0.539 0.0
C263 C 0.72742 0.62736 0.55164 0.0
C264 C 0.70379 0.60667 0.54353 0.0
C265 C 0.69471 0.58642 0.5596 0.0
C266 C 0.71674 0.59841 0.57864 0.0
C267 C 0.73615 0.62236 0.57386 0.0
C268 C 0.71989 0.56176 0.55297 0.0
C269 C 0.64168 0.58339 0.56201 0.0
C270 C 0.82237 0.68779 0.6183 0.0
C271 C 0.83483 0.68792 0.63941 0.0
C272 C 0.82177 0.66712 0.65198 0.0
C273 C 0.79716 0.64647 0.64381 0.0
C274 C 0.78537 0.64636 0.62273 0.0
C275 C 0.79796 0.66671 0.61028 0.0
C276 C 0.78189 0.66303 0.58823 0.0
C277 C 0.7582 0.63704 0.5896 0.0
C278 C 0.76031 0.62753 0.60989 0.0
C279 C 0.82501 0.66227 0.57407 0.0
C280 C 0.74745 0.68462 0.58297 0.0
H281 H 0.66893 0.5417 0.58495 0.0
H282 H 0.70293 0.54926 0.66014 0.0
H283 H 0.67021 0.60326 0.64853 0.0
H284 H 0.71384 0.62652 0.65037 0.0
H285 H 0.71472 0.59942 0.6676 0.0
H286 H 0.79715 0.56461 0.63537 0.0
H287 H 0.78388 0.57729 0.66047 0.0
H288 H 0.81224 0.59634 0.64087 0.0
H289 H 0.67059 0.58959 0.51716 0.0
H290 H 0.72658 0.6659 0.5095 0.0
H291 H 0.75501 0.66514 0.54433 0.0
H292 H 0.75346 0.56635 0.5454 0.0
H293 H 0.69882 0.55059 0.54176 0.0
H294 H 0.72891 0.54943 0.56623 0.0
H295 H 0.62423 0.60216 0.56058 0.0
H296 H 0.63126 0.57613 0.57737 0.0
H297 H 0.62723 0.57062 0.54987 0.0
H298 H 0.64318 0.50853 0.60837 0.0
C299 C 0.67696 0.54399 0.60108 0.0
C300 C 0.68061 0.82704 0.13893 0.0
C301 C 0.66502 0.80386 0.13048 0.0
C302 C 0.67116 0.79939 0.1091 0.0
C303 C 0.70926 0.84054 0.10524 0.0
C304 C 0.70271 0.8449 0.12616 0.0
C305 C 0.7234 0.86977 0.13315 0.0
H306 H 0.84834 0.97599 0.11209 0.0
C307 C 0.73528 0.8626 0.09665 0.0
C308 C 0.74358 0.87972 0.11303 0.0
H309 H 0.78988 0.95192 0.17063 0.0
H310 H 0.75675 0.91486 0.15444 0.0
H311 H 0.88448 0.92302 0.09907 0.0
H312 H 0.75767 0.9608 0.08405 0.0
H313 H 0.77762 0.94635 0.06118 0.0
H314 H 0.81277 0.97027 0.07377 0.0
H315 H 0.88161 0.94691 0.07925 0.0
H316 H 0.8713 0.91359 0.07372 0.0
C317 C 0.76148 0.86391 0.14937 0.0
C318 C 0.6838 0.88693 0.14118 0.0
C319 C 0.78585 0.86414 0.0208 0.0
C320 C 0.81433 0.88111 0.00945 0.0
C321 C 0.83078 0.90334 0.01951 0.0
C322 C 0.81929 0.90866 0.04005 0.0
C323 C 0.79203 0.89133 0.05121 0.0
C324 C 0.77558 0.86951 0.04166 0.0
C325 C 0.74916 0.85271 0.05657 0.0
C326 C 0.75258 0.86819 0.0765 0.0
C327 C 0.77771 0.89083 0.07313 0.0
C328 C 0.77474 0.82693 0.05826 0.0
C329 C 0.69871 0.85039 0.04888 0.0
C330 C 0.82847 0.96268 0.12138 0.0
C331 C 0.82155 0.96702 0.14267 0.0
C332 C 0.79518 0.94928 0.15416 0.0
C333 C 0.77609 0.92763 0.14473 0.0
C334 C 0.78337 0.92346 0.12351 0.0
C335 C 0.8089 0.94089 0.11215 0.0
C336 C 0.8132 0.93306 0.0898 0.0
C337 C 0.78619 0.90806 0.08971 0.0
C338 C 0.76896 0.90256 0.1095 0.0
C339 C 0.86521 0.92906 0.085 0.0
C340 C 0.78946 0.95366 0.07633 0.0
H341 H 0.69633 0.81324 0.08026 0.0
H342 H 0.67703 0.83092 0.15534 0.0
H343 H 0.65162 0.88375 0.13208 0.0
H344 H 0.69133 0.9075 0.13946 0.0
H345 H 0.67578 0.88276 0.15767 0.0
H346 H 0.77888 0.84554 0.14586 0.0
H347 H 0.74672 0.86239 0.16521 0.0
H348 H 0.78972 0.87816 0.14946 0.0
H349 H 0.77216 0.84694 0.01379 0.0
H350 H 0.85391 0.91654 0.0118 0.0
H351 H 0.83314 0.92587 0.04657 0.0
H352 H 0.81282 0.82984 0.05754 0.0
H353 H 0.76487 0.81395 0.04537 0.0
H354 H 0.7687 0.81711 0.07313 0.0
H355 H 0.68605 0.86913 0.04321 0.0
H356 H 0.67446 0.84465 0.06125 0.0
H357 H 0.69593 0.83655 0.0359 0.0
H358 H 0.65905 0.78174 0.1022 0.0
C359 C 0.69282 0.81769 0.09641 0.0
C360 C 0.19446 0.94818 0.35888 0.0
C361 C 0.16828 0.96842 0.36648 0.0
C362 C 0.15664 0.96948 0.38758 0.0
C363 C 0.19654 0.92959 0.39325 0.0
C364 C 0.20838 0.92908 0.37253 0.0
C365 C 0.23697 0.90636 0.36698 0.0
H366 H 0.3196 0.79064 0.39117 0.0
C367 C 0.21541 0.90639 0.40295 0.0
C368 C 0.23915 0.89276 0.38772 0.0
H369 H 0.33433 0.83392 0.33436 0.0
H370 H 0.297 0.86941 0.34986 0.0
H371 H 0.34811 0.84362 0.42139 0.0
H372 H 0.21839 0.80797 0.40412 0.0
H373 H 0.21807 0.81549 0.43074 0.0
H374 H 0.25875 0.79253 0.42108 0.0
H375 H 0.33267 0.81198 0.4297 0.0
H376 H 0.3124 0.83972 0.44332 0.0
C377 C 0.28524 0.91606 0.3598 0.0
C378 C 0.20993 0.89068 0.35053 0.0
C379 C 0.18303 0.88984 0.47866 0.0
C380 C 0.19166 0.86925 0.49183 0.0
C381 C 0.21549 0.84785 0.48421 0.0
C382 C 0.23083 0.84711 0.46355 0.0
C383 C 0.22146 0.86782 0.45038 0.0
C384 C 0.19768 0.88863 0.45807 0.0
C385 C 0.18849 0.90839 0.44186 0.0
C386 C 0.21184 0.89651 0.42329 0.0
C387 C 0.23125 0.8727 0.42819 0.0
C388 C 0.21247 0.9336 0.44856 0.0
C389 C 0.13538 0.9103 0.43892 0.0
C390 C 0.31511 0.80792 0.38223 0.0
C391 C 0.32815 0.809 0.36115 0.0
C392 C 0.32278 0.83208 0.35026 0.0
C393 C 0.30134 0.8529 0.35937 0.0
C394 C 0.28555 0.85107 0.3798 0.0
C395 C 0.29413 0.8294 0.39131 0.0
C396 C 0.27711 0.83224 0.41336 0.0
C397 C 0.25503 0.85862 0.41261 0.0
C398 C 0.25982 0.86913 0.39272 0.0
C399 C 0.31957 0.83174 0.42786 0.0
C400 C 0.24134 0.81091 0.41775 0.0
H401 H 0.16047 0.95174 0.417 0.0
H402 H 0.20385 0.94726 0.34264 0.0
H403 H 0.17255 0.88974 0.35451 0.0
H404 H 0.22103 0.87065 0.34944 0.0
H405 H 0.21304 0.89956 0.33496 0.0
H406 H 0.29261 0.93579 0.36531 0.0
H407 H 0.28796 0.91627 0.34264 0.0
H408 H 0.31375 0.90451 0.36628 0.0
H409 H 0.16407 0.90628 0.48414 0.0
H410 H 0.22213 0.83174 0.49427 0.0
H411 H 0.24881 0.83037 0.45854 0.0
H412 H 0.24564 0.92971 0.45666 0.0
H413 H 0.1903 0.94461 0.45934 0.0
H414 H 0.22211 0.94587 0.43532 0.0
H415 H 0.1182 0.89154 0.44159 0.0
H416 H 0.12532 0.91559 0.42299 0.0
H417 H 0.12012 0.92414 0.44996 0.0
H418 H 0.13628 0.98515 0.39351 0.0
C419 C 0.1706 0.95008 0.40107 0.0
C420 C 0.18664 0.67135 0.86256 0.0
C421 C 0.17188 0.69471 0.87071 0.0
C422 C 0.17772 0.69942 0.89211 0.0
C423 C 0.21534 0.65845 0.89631 0.0
C424 C 0.20841 0.6538 0.87545 0.0
C425 C 0.22829 0.62893 0.86853 0.0
H426 H 0.34999 0.52313 0.88951 0.0
C427 C 0.24087 0.63647 0.90498 0.0
C428 C 0.24829 0.61922 0.88865 0.0
H429 H 0.29035 0.54657 0.83116 0.0
H430 H 0.25895 0.58403 0.84727 0.0
H431 H 0.38637 0.57858 0.90332 0.0
H432 H 0.26319 0.53552 0.91622 0.0
H433 H 0.27466 0.55272 0.93894 0.0
H434 H 0.31624 0.52977 0.92972 0.0
H435 H 0.38518 0.55117 0.91997 0.0
H436 H 0.37448 0.58277 0.92977 0.0
C437 C 0.26643 0.6347 0.85223 0.0
C438 C 0.18816 0.61174 0.86062 0.0
C439 C 0.29236 0.63418 0.98076 0.0
C440 C 0.3163 0.61561 0.9923 0.0
C441 C 0.3292 0.59269 0.98266 0.0
C442 C 0.31939 0.58834 0.96181 0.0
C443 C 0.29607 0.60701 0.95036 0.0
C444 C 0.2821 0.62932 0.95983 0.0
C445 C 0.25637 0.64645 0.94499 0.0
C446 C 0.25827 0.63086 0.92511 0.0
C447 C 0.28198 0.60792 0.92848 0.0
C448 C 0.28328 0.67192 0.94304 0.0
C449 C 0.20628 0.64944 0.95292 0.0
C450 C 0.33042 0.5365 0.88024 0.0
C451 C 0.32255 0.53204 0.85909 0.0
C452 C 0.29638 0.54957 0.84755 0.0
C453 C 0.27836 0.57136 0.85693 0.0
C454 C 0.28655 0.57566 0.87809 0.0
C455 C 0.31191 0.55831 0.88941 0.0
C456 C 0.31609 0.56575 0.91179 0.0
C457 C 0.28976 0.59072 0.91192 0.0
C458 C 0.27279 0.59637 0.89217 0.0
C459 C 0.36813 0.56966 0.91669 0.0
C460 C 0.29169 0.5449 0.925 0.0
H461 H 0.20332 0.68611 0.92104 0.0
H462 H 0.18186 0.6668 0.84632 0.0
H463 H 0.15552 0.61576 0.8691 0.0
H464 H 0.19437 0.59121 0.86328 0.0
H465 H 0.18147 0.61494 0.84388 0.0
H466 H 0.28425 0.6531 0.85563 0.0
H467 H 0.25163 0.6361 0.83639 0.0
H468 H 0.2944 0.62046 0.85217 0.0
H469 H 0.28176 0.65191 0.98788 0.0
H470 H 0.34801 0.57828 0.9912 0.0
H471 H 0.33093 0.57065 0.95539 0.0
H472 H 0.32115 0.66845 0.94261 0.0
H473 H 0.27607 0.6846 0.95643 0.0
H474 H 0.27549 0.68228 0.92859 0.0
H475 H 0.19278 0.63097 0.95896 0.0
H476 H 0.18196 0.65508 0.9406 0.0
H477 H 0.2046 0.66361 0.96569 0.0
H478 H 0.16675 0.71733 0.8988 0.0
C479 C 0.19929 0.68137 0.90496 0.0
Eu480 Eu 0.05517 0.13702 0.23056 0.0
C481 C 0.8437 0.12091 0.25924 0.0
N482 N 0.87117 0.14204 0.25831 0.0
C483 C 0.80952 0.16588 0.24299 0.0
C484 C 0.79818 0.12137 0.25141 0.0
C485 C 0.85433 0.16456 0.25097 0.0
C486 C 0.78143 0.14415 0.24306 0.0
C487 C 0.83333 0.07645 0.26897 0.0
C488 C 0.86119 0.09862 0.26795 0.0
C489 C 0.78822 0.07686 0.261 0.0
C490 C 0.7707 0.09924 0.25226 0.0
Eu491 Eu 0.94552 0.13798 0.27286 0.0
N492 N 0.90524 0.09859 0.27537 0.0
C493 C 0.85146 0.0545 0.27815 0.0
C494 C 0.92207 0.07758 0.28529 0.0
C495 C 0.89586 0.05517 0.28651 0.0
H496 H 0.87487 0.18177 0.25159 0.0
H497 H 0.90966 0.03854 0.29423 0.0
H498 H 0.13521 0.09305 0.24553 0.0
H499 H 0.08448 0.23591 0.20779 0.0
H500 H 0.95501 0.07805 0.29296 0.0
H501 H 0.83114 0.03713 0.27923 0.0
H502 H 0.0416 0.19499 0.21023 0.0
H503 H 0.79649 0.18373 0.237 0.0
H504 H 0.76646 0.05999 0.26164 0.0
H505 H 0.73571 0.09927 0.24629 0.0
H506 H 0.21395 0.09268 0.25982 0.0
H507 H 0.74665 0.14527 0.23692 0.0
H508 H 0.16332 0.23949 0.22243 0.0
N509 N 0.13316 0.13353 0.24203 0.0
C510 C 0.15833 0.1555 0.24219 0.0
C511 C 0.19856 0.11054 0.25514 0.0
C512 C 0.2042 0.15598 0.24964 0.0
C513 C 0.15352 0.11094 0.2473 0.0
C514 C 0.22378 0.13322 0.25664 0.0
N515 N 0.09517 0.1761 0.22648 0.0
C516 C 0.07592 0.19651 0.21668 0.0
C517 C 0.16484 0.20021 0.23282 0.0
C518 C 0.13903 0.17733 0.23388 0.0
C519 C 0.14466 0.22156 0.22352 0.0
C520 C 0.10015 0.21962 0.21524 0.0
H521 H 0.2588 0.13282 0.26256 0.0
H522 H 0.26458 0.1797 0.25515 0.0
H523 H 0.23007 0.21846 0.24042 0.0
O524 O 0.05152 0.14262 0.19663 0.0
O525 O 0.05124 0.17044 0.25316 0.0
O526 O 0.01843 0.15037 0.28094 0.0
O527 O 0.08446 0.10942 0.20957 0.0
O528 O 0.98496 0.15317 0.22306 0.0
O529 O 0.95675 0.17295 0.25225 0.0
O530 O 0.92531 0.1304 0.30502 0.0
O531 O 0.93364 0.11852 0.24186 0.0
O532 O 0.00626 0.10367 0.23571 0.0
O533 O 0.91535 0.16843 0.29169 0.0
O534 O 0.00342 0.11116 0.28159 0.0
O535 O 0.06154 0.10816 0.2563 0.0
C536 C 0.04045 0.1699 0.27295 0.0
C537 C 0.10817 0.12106 0.17582 0.0
C538 C 0.12422 0.12245 0.13879 0.0
C539 C 0.16726 0.11112 0.14239 0.0
C540 C 0.152 0.11023 0.17912 0.0
C541 C 0.18114 0.1052 0.16246 0.0
C542 C 0.09455 0.12741 0.1555 0.0
C543 C 0.96477 0.17253 0.23212 0.0
C544 C 0.07401 0.12172 0.19277 0.0
C545 C 0.22948 0.17894 0.24933 0.0
C546 C 0.20987 0.201 0.2409 0.0
C547 C 0.962 0.10374 0.23154 0.0
C548 C 0.89027 0.16219 0.32741 0.0
C549 C 0.88048 0.15865 0.36487 0.0
C550 C 0.84864 0.17874 0.36415 0.0
C551 C 0.85848 0.18228 0.32715 0.0
C552 C 0.90086 0.15004 0.34637 0.0
C553 C 0.8376 0.19036 0.34542 0.0
C554 C 0.04179 0.1016 0.27387 0.0
C555 C 0.91022 0.15345 0.30769 0.0
H556 H 0.18994 0.10659 0.12956 0.0
H557 H 0.16322 0.10477 0.1945 0.0
H558 H 0.21422 0.09623 0.16505 0.0
H559 H 0.0605 0.13517 0.15263 0.0
H560 H 0.83193 0.18534 0.37818 0.0
H561 H 0.84915 0.19149 0.31273 0.0
H562 H 0.92512 0.13438 0.34679 0.0
H563 H 0.8127 0.20567 0.34507 0.0
Eu564 Eu 0.45345 0.36022 0.73124 0.0
C565 C 0.66601 0.37476 0.7585 0.0
N566 N 0.63868 0.35354 0.75824 0.0
C567 C 0.70122 0.32867 0.74495 0.0
C568 C 0.71234 0.37363 0.75177 0.0
C569 C 0.6557 0.33059 0.75197 0.0
C570 C 0.72968 0.35026 0.74486 0.0
C571 C 0.6749 0.4202 0.765 0.0
C572 C 0.64743 0.39786 0.76512 0.0
C573 C 0.72125 0.41895 0.75872 0.0
C574 C 0.73989 0.39576 0.7521 0.0
Eu575 Eu 0.56411 0.35853 0.77212 0.0
N576 N 0.60221 0.39866 0.77096 0.0
C577 C 0.65485 0.44328 0.77096 0.0
C578 C 0.58233 0.42128 0.77634 0.0
C579 C 0.60829 0.44383 0.77647 0.0
H580 H 0.63466 0.31356 0.75274 0.0
H581 H 0.59232 0.46166 0.78082 0.0
H582 H 0.37301 0.40513 0.73965 0.0
H583 H 0.42392 0.2609 0.70901 0.0
H584 H 0.54649 0.42233 0.78042 0.0
H585 H 0.67483 0.46082 0.7711 0.0
H586 H 0.46708 0.30172 0.71118 0.0
H587 H 0.71452 0.31046 0.73987 0.0
H588 H 0.74288 0.43589 0.75871 0.0
H589 H 0.77562 0.39518 0.74714 0.0
H590 H 0.29105 0.40745 0.75043 0.0
H591 H 0.76505 0.34865 0.73953 0.0
H592 H 0.34414 0.25803 0.7227 0.0
N593 N 0.37384 0.36464 0.73892 0.0
C594 C 0.34834 0.34286 0.73963 0.0
C595 C 0.30684 0.38911 0.74763 0.0
C596 C 0.30142 0.34319 0.7455 0.0
C597 C 0.35324 0.38772 0.74163 0.0
C598 C 0.28109 0.36668 0.75006 0.0
N599 N 0.41294 0.32126 0.7265 0.0
C600 C 0.43243 0.30052 0.71724 0.0
C601 C 0.34232 0.29769 0.73206 0.0
C602 C 0.36839 0.32047 0.73299 0.0
C603 C 0.36297 0.27592 0.72368 0.0
C604 C 0.408 0.27746 0.71594 0.0
H605 H 0.24517 0.36779 0.75469 0.0
H606 H 0.24013 0.32007 0.75068 0.0
H607 H 0.27604 0.28014 0.7389 0.0
O608 O 0.45785 0.35431 0.69749 0.0
O609 O 0.45694 0.32623 0.75328 0.0
O610 O 0.49297 0.34439 0.78131 0.0
O611 O 0.43234 0.38977 0.7097 0.0
O612 O 0.52281 0.34302 0.72327 0.0
O613 O 0.55217 0.32329 0.75222 0.0
O614 O 0.58615 0.36784 0.80382 0.0
O615 O 0.5743 0.37722 0.74081 0.0
O616 O 0.50192 0.39295 0.73872 0.0
O617 O 0.59549 0.32918 0.79153 0.0
O618 O 0.5048 0.38354 0.78241 0.0
O619 O 0.44169 0.38565 0.75948 0.0
C620 C 0.46871 0.3259 0.77297 0.0
C621 C 0.40403 0.3774 0.67679 0.0
C622 C 0.3829 0.37415 0.64031 0.0
C623 C 0.33961 0.38464 0.64487 0.0
C624 C 0.36016 0.3876 0.68104 0.0
C625 C 0.32833 0.39126 0.66512 0.0
C626 C 0.41528 0.37061 0.65627 0.0
C627 C 0.54285 0.32355 0.73225 0.0
C628 C 0.43963 0.37629 0.69314 0.0
C629 C 0.276 0.32027 0.74586 0.0
C630 C 0.29641 0.29755 0.73912 0.0
C631 C 0.54472 0.39283 0.73234 0.0
C632 C 0.62153 0.33669 0.82689 0.0
C633 C 0.62918 0.33954 0.86448 0.0
C634 C 0.6602 0.31906 0.86398 0.0
C635 C 0.65269 0.31628 0.82682 0.0
C636 C 0.61025 0.34867 0.84582 0.0
C637 C 0.67206 0.30766 0.84526 0.0
C638 C 0.46359 0.39193 0.77683 0.0
C639 C 0.60057 0.34473 0.80716 0.0
H640 H 0.31478 0.38807 0.63263 0.0
H641 H 0.35071 0.39334 0.69656 0.0
H642 H 0.29504 0.39961 0.66845 0.0
H643 H 0.44928 0.36326 0.65266 0.0
H644 H 0.67561 0.312 0.87815 0.0
H645 H 0.6622 0.30701 0.81246 0.0
H646 H 0.5862 0.36444 0.84611 0.0
H647 H 0.69623 0.29199 0.84508 0.0
Eu648 Eu 0.06204 0.85719 0.73142 0.0
C649 C 0.84571 0.84014 0.75883 0.0
N650 N 0.86924 0.86255 0.76023 0.0
C651 C 0.80036 0.88574 0.75213 0.0
C652 C 0.79839 0.83972 0.75352 0.0
C653 C 0.84693 0.8852 0.75779 0.0
C654 C 0.77606 0.86287 0.74975 0.0
C655 C 0.84416 0.79422 0.76337 0.0
C656 C 0.86851 0.81762 0.76352 0.0
C657 C 0.79732 0.79368 0.75768 0.0
C658 C 0.77458 0.81635 0.75266 0.0
Eu659 Eu 0.94811 0.85991 0.76932 0.0
N660 N 0.91403 0.81867 0.76885 0.0
C661 C 0.86727 0.7721 0.76945 0.0
C662 C 0.93603 0.79729 0.77557 0.0
C663 C 0.91325 0.77371 0.77581 0.0
H664 H 0.86501 0.90297 0.76052 0.0
H665 H 0.93102 0.75684 0.78117 0.0
H666 H 0.13785 0.814 0.74852 0.0
H667 H 0.08154 0.96067 0.72233 0.0
H668 H 0.97063 0.79829 0.78133 0.0
H669 H 0.84964 0.75381 0.76978 0.0
H670 H 0.03928 0.92001 0.72322 0.0
H671 H 0.78311 0.9038 0.74989 0.0
H672 H 0.77818 0.77586 0.75741 0.0
H673 H 0.73828 0.81566 0.74857 0.0
H674 H 0.2193 0.81235 0.75986 0.0
H675 H 0.73981 0.86333 0.74557 0.0
H676 H 0.16458 0.96204 0.73124 0.0
N677 N 0.1387 0.85392 0.74334 0.0
C678 C 0.1641 0.87579 0.7432 0.0
C679 C 0.20417 0.83034 0.75531 0.0
C680 C 0.21106 0.87568 0.74907 0.0
C681 C 0.15788 0.83135 0.7492 0.0
C682 C 0.23093 0.85259 0.75521 0.0
N683 N 0.09714 0.89814 0.73257 0.0
C684 C 0.0752 0.92012 0.72717 0.0
C685 C 0.1685 0.92148 0.73727 0.0
C686 C 0.14292 0.89848 0.73747 0.0
C687 C 0.14608 0.94402 0.73167 0.0
C688 C 0.09921 0.94332 0.72666 0.0
H689 H 0.26687 0.85172 0.75985 0.0
H690 H 0.27282 0.89874 0.753 0.0
H691 H 0.23566 0.93879 0.74256 0.0
O692 O 0.06203 0.86287 0.69744 0.0
O693 O 0.071 0.87742 0.76229 0.0
O694 O 0.99806 0.89289 0.76573 0.0
O695 O 0.10636 0.83418 0.7118 0.0
O696 O 0.99925 0.87802 0.7188 0.0
O697 O 0.95063 0.89172 0.74552 0.0
O698 O 0.94361 0.85211 0.80334 0.0
O699 O 0.93779 0.84008 0.73823 0.0
O700 O 0.01066 0.82479 0.73406 0.0
O701 O 0.91193 0.88571 0.78941 0.0
O702 O 0.01432 0.84157 0.78108 0.0
O703 O 0.05125 0.8235 0.75292 0.0
C704 C 0.04111 0.89204 0.77176 0.0
C705 C 0.11143 0.83741 0.6744 0.0
C706 C 0.12081 0.84326 0.6371 0.0
C707 C 0.14673 0.82075 0.63628 0.0
C708 C 0.1378 0.81502 0.67312 0.0
C709 C 0.15525 0.8068 0.65418 0.0
C710 C 0.10309 0.85171 0.65622 0.0
C711 C 0.96462 0.8917 0.72598 0.0
C712 C 0.09298 0.84519 0.69479 0.0
C713 C 0.23665 0.89851 0.74868 0.0
C714 C 0.21547 0.92132 0.74273 0.0
C715 C 0.96761 0.8261 0.72804 0.0
C716 C 0.89721 0.88067 0.82578 0.0
C717 C 0.88671 0.8779 0.86323 0.0
C718 C 0.85243 0.89666 0.86201 0.0
C719 C 0.86262 0.89942 0.82508 0.0
C720 C 0.9093 0.86978 0.84506 0.0
C721 C 0.84052 0.90733 0.84307 0.0
C722 C 0.04292 0.82485 0.77299 0.0
C723 C 0.9181 0.87227 0.80604 0.0
H724 H 0.16074 0.81407 0.62169 0.0
H725 H 0.14482 0.80369 0.68678 0.0
H726 H 0.17544 0.78952 0.65338 0.0
H727 H 0.08307 0.86909 0.65689 0.0
H728 H 0.83482 0.9031 0.87586 0.0
H729 H 0.85214 0.90791 0.81053 0.0
H730 H 0.93573 0.85526 0.84593 0.0
H731 H 0.81393 0.92173 0.84232 0.0
Eu732 Eu 0.44695 0.63988 0.23127 0.0
C733 C 0.65909 0.65617 0.25723 0.0
N734 N 0.63461 0.63399 0.25685 0.0
C735 C 0.70043 0.61167 0.24373 0.0
C736 C 0.70559 0.6569 0.25069 0.0
C737 C 0.65453 0.61186 0.25043 0.0
C738 C 0.72608 0.6343 0.24382 0.0
C739 C 0.66251 0.70143 0.26506 0.0
C740 C 0.63764 0.67823 0.26426 0.0
C741 C 0.7088 0.70221 0.25855 0.0
C742 C 0.73025 0.68002 0.25137 0.0
Eu743 Eu 0.55845 0.63587 0.26956 0.0
N744 N 0.59264 0.67697 0.27042 0.0
C745 C 0.64034 0.72314 0.27267 0.0
C746 C 0.57159 0.69785 0.27862 0.0
C747 C 0.5948 0.72128 0.27961 0.0
H748 H 0.63548 0.59421 0.25117 0.0
H749 H 0.57776 0.7378 0.28604 0.0
H750 H 0.37218 0.68253 0.2502 0.0
H751 H 0.42331 0.53812 0.21515 0.0
H752 H 0.53749 0.69652 0.28498 0.0
H753 H 0.65833 0.74128 0.27362 0.0
H754 H 0.46546 0.57886 0.21628 0.0
H755 H 0.71614 0.59401 0.23876 0.0
H756 H 0.72842 0.71986 0.25912 0.0
H757 H 0.76604 0.68092 0.24649 0.0
H758 H 0.29182 0.68366 0.26296 0.0
H759 H 0.76176 0.63407 0.23875 0.0
H760 H 0.34253 0.53577 0.22747 0.0
N761 N 0.37106 0.64276 0.2442 0.0
C762 C 0.34556 0.62091 0.24381 0.0
C763 C 0.30659 0.66586 0.25775 0.0
C764 C 0.29918 0.62077 0.25052 0.0
C765 C 0.3523 0.66512 0.25083 0.0
C766 C 0.2799 0.64358 0.25762 0.0
N767 N 0.411 0.59921 0.23061 0.0
C768 C 0.43119 0.57802 0.2225 0.0
C769 C 0.34008 0.5757 0.23597 0.0
C770 C 0.36594 0.59858 0.23672 0.0
C771 C 0.3613 0.55368 0.22839 0.0
C772 C 0.40695 0.5549 0.22151 0.0
H773 H 0.24438 0.64425 0.26288 0.0
H774 H 0.23778 0.59754 0.25487 0.0
H775 H 0.27347 0.55814 0.24205 0.0
O776 O 0.44667 0.63519 0.19713 0.0
O777 O 0.43726 0.61853 0.26168 0.0
O778 O 0.50952 0.60234 0.26713 0.0
O779 O 0.4013 0.66273 0.21226 0.0
O780 O 0.51177 0.62036 0.21929 0.0
O781 O 0.54824 0.60256 0.24773 0.0
O782 O 0.55942 0.6402 0.30381 0.0
O783 O 0.56792 0.65665 0.23873 0.0
O784 O 0.49592 0.67344 0.23382 0.0
O785 O 0.60382 0.61258 0.28825 0.0
O786 O 0.4931 0.65447 0.28174 0.0
O787 O 0.45784 0.67294 0.25336 0.0
C788 C 0.46531 0.60294 0.27134 0.0
C789 C 0.39494 0.6605 0.17489 0.0
C790 C 0.38624 0.65675 0.13736 0.0
C791 C 0.35602 0.67758 0.1376 0.0
C792 C 0.36431 0.68124 0.17462 0.0
C793 C 0.34505 0.68965 0.15611 0.0
C794 C 0.40565 0.64802 0.15609 0.0
C795 C 0.53979 0.60356 0.22768 0.0
C796 C 0.41461 0.65238 0.19498 0.0
C797 C 0.27349 0.59798 0.24986 0.0
C798 C 0.29385 0.57553 0.24257 0.0
C799 C 0.54001 0.67263 0.22937 0.0
C800 C 0.61083 0.6139 0.32558 0.0
C801 C 0.61852 0.61552 0.36328 0.0
C802 C 0.6497 0.59516 0.36236 0.0
C803 C 0.64241 0.5936 0.32522 0.0
C804 C 0.59906 0.62509 0.34481 0.0
C805 C 0.66162 0.58436 0.34347 0.0
C806 C 0.46467 0.67113 0.2735 0.0
C807 C 0.59085 0.62261 0.30569 0.0
H808 H 0.34035 0.68433 0.12338 0.0
H809 H 0.35512 0.69108 0.18877 0.0
H810 H 0.32143 0.70557 0.15611 0.0
H811 H 0.42877 0.63183 0.15599 0.0
H812 H 0.66534 0.58778 0.37638 0.0
H813 H 0.65234 0.58468 0.31077 0.0
H814 H 0.57511 0.64088 0.34544 0.0
H815 H 0.68594 0.56877 0.34297 0.0
H816 H 0.20552 0.0153 0.35985 0.0
H817 H 0.01317 0.05265 0.27635 0.0
H818 H 0.09547 0.96503 0.34049 0.0
H819 H 0.12028 0.10432 0.29657 0.0
H820 H 0.04662 0.01908 0.29784 0.0
H821 H 0.17847 0.04737 0.33499 0.0
C822 C 0.17546 0.01124 0.35038 0.0
C823 C 0.15208 0.98795 0.35215 0.0
C824 C 0.06292 0.03772 0.29763 0.0
C825 C 0.12119 0.02397 0.32392 0.0
C826 C 0.04364 0.05682 0.28552 0.0
C827 C 0.06348 0.08116 0.28543 0.0
C828 C 0.10232 0.04317 0.30959 0.0
C829 C 0.10385 0.0857 0.29673 0.0
C830 C 0.16017 0.02936 0.33619 0.0
C831 C 0.11388 0.98304 0.33951 0.0
N832 N 0.12189 0.06685 0.30858 0.0
N833 N 0.09939 0.00101 0.32593 0.0
H834 H 0.27762 0.49898 0.83349 0.0
H835 H 0.50215 0.41606 0.81045 0.0
H836 H 0.41026 0.51342 0.86181 0.0
H837 H 0.3737 0.40844 0.77707 0.0
H838 H 0.46707 0.44853 0.83211 0.0
H839 H 0.31042 0.46255 0.81526 0.0
C840 C 0.3137 0.49442 0.83582 0.0
C841 C 0.34147 0.50923 0.84897 0.0
C842 C 0.44661 0.43978 0.81996 0.0
C843 C 0.37918 0.46769 0.82829 0.0
C844 C 0.46664 0.42126 0.80746 0.0
C845 C 0.44139 0.41012 0.79115 0.0
C846 C 0.40073 0.44694 0.81638 0.0
C847 C 0.39509 0.41712 0.78871 0.0
C848 C 0.33237 0.47362 0.8255 0.0
C849 C 0.38775 0.50233 0.85183 0.0
N850 N 0.37631 0.43517 0.80108 0.0
N851 N 0.40532 0.4821 0.84143 0.0
H852 H 0.62334 0.53375 0.67224 0.0
H853 H 0.60995 0.38639 0.70261 0.0
H854 H 0.67609 0.4744 0.63266 0.0
H855 H 0.51801 0.44249 0.72831 0.0
H856 H 0.6405 0.41876 0.67875 0.0
H857 H 0.59135 0.50106 0.69537 0.0
C858 C 0.6284 0.51382 0.6685 0.0
C859 C 0.65228 0.50674 0.6505 0.0
C860 C 0.61359 0.42399 0.68957 0.0
C861 C 0.61581 0.46929 0.67685 0.0
C862 C 0.59626 0.40558 0.70318 0.0
C863 C 0.56146 0.41189 0.71733 0.0
C864 C 0.59677 0.44903 0.69051 0.0
C865 C 0.54459 0.43689 0.71745 0.0
C866 C 0.60985 0.4952 0.68161 0.0
C867 C 0.65752 0.48065 0.64628 0.0
N868 N 0.56277 0.45467 0.70437 0.0
N869 N 0.63963 0.46286 0.65942 0.0
H870 H 0.77954 0.99806 0.17069 0.0
H871 H 0.0079 0.07541 0.20208 0.0
H872 H 0.90895 0.98772 0.13871 0.0
H873 H 0.8716 0.0903 0.226 0.0
H874 H 0.974 0.04415 0.17801 0.0
H875 H 0.81411 0.03256 0.19061 0.0
C876 C 0.81531 0.00312 0.16783 0.0
C877 C 0.84154 0.98974 0.15321 0.0
C878 C 0.95167 0.05425 0.18863 0.0
C879 C 0.88163 0.02955 0.17601 0.0
C880 C 0.97098 0.07203 0.20241 0.0
C881 C 0.94266 0.08521 0.21645 0.0
C882 C 0.90385 0.04943 0.18913 0.0
C883 C 0.895 0.08039 0.21587 0.0
C884 C 0.83506 0.02294 0.17916 0.0
C885 C 0.8875 0.99754 0.14985 0.0
N886 N 0.87728 0.0628 0.20265 0.0
N887 N 0.90631 0.0168 0.16134 0.0
H888 H 0.91813 0.01473 0.63961 0.0
H889 H 0.87907 0.91282 0.7283 0.0
H890 H 0.78698 0.00061 0.66935 0.0
H891 H 0.00058 0.91206 0.68994 0.0
H892 H 0.84526 0.94467 0.70633 0.0
H893 H 0.94983 0.97719 0.65712 0.0
C894 C 0.89594 0.00354 0.64966 0.0
C895 C 0.85008 0.01085 0.6533 0.0
C896 C 0.87933 0.93759 0.7026 0.0
C897 C 0.88591 0.96818 0.67326 0.0
C898 C 0.89887 0.91939 0.7154 0.0
C899 C 0.94311 0.91003 0.71151 0.0
C900 C 0.90455 0.94701 0.68573 0.0
C901 C 0.9665 0.91897 0.69381 0.0
C902 C 0.91401 0.98218 0.65961 0.0
C903 C 0.82278 0.99589 0.6665 0.0
N904 N 0.9472 0.93731 0.68171 0.0
N905 N 0.84121 0.97534 0.67608 0.0
H906 H 0.71716 0.48984 0.17622 0.0
H907 H 0.53163 0.59867 0.18545 0.0
H908 H 0.59717 0.48857 0.13634 0.0
H909 H 0.59049 0.56191 0.23918 0.0
H910 H 0.56558 0.56543 0.16355 0.0
H911 H 0.68303 0.52493 0.19561 0.0
C912 C 0.68365 0.49688 0.17153 0.0
C913 C 0.65954 0.4858 0.1549 0.0
C914 C 0.57135 0.56501 0.18013 0.0
C915 C 0.62122 0.52641 0.17668 0.0
C916 C 0.5522 0.58392 0.19264 0.0
C917 C 0.55962 0.58365 0.21417 0.0
C918 C 0.5989 0.5462 0.18921 0.0
C919 C 0.58558 0.56368 0.22264 0.0
C920 C 0.66441 0.51695 0.18255 0.0
C921 C 0.61703 0.49648 0.14904 0.0
N922 N 0.60485 0.54596 0.2101 0.0
N923 N 0.59905 0.51623 0.15999 0.0
H924 H 0.28548 0.51197 0.34955 0.0
H925 H 0.50821 0.56096 0.28726 0.0
H926 H 0.41374 0.47094 0.34657 0.0
H927 H 0.3783 0.60105 0.288 0.0
H928 H 0.47565 0.52925 0.31079 0.0
H929 H 0.3207 0.54675 0.32938 0.0
C930 C 0.32122 0.51052 0.34473 0.0
C931 C 0.347 0.48883 0.34957 0.0
C932 C 0.45428 0.54503 0.30589 0.0
C933 C 0.38714 0.52791 0.32634 0.0
C934 C 0.47284 0.56315 0.29241 0.0
C935 C 0.44584 0.58364 0.28557 0.0
C936 C 0.40842 0.54742 0.31267 0.0
C937 C 0.40022 0.58545 0.29275 0.0
C938 C 0.34126 0.53022 0.33321 0.0
C939 C 0.39305 0.48755 0.34311 0.0
N940 N 0.38293 0.56755 0.30591 0.0
N941 N 0.41164 0.50677 0.33167 0.0
H942 H 0.12572 0.03505 0.82423 0.0
H943 H 0.10217 0.88583 0.80341 0.0
H944 H 0.17742 0.97941 0.86749 0.0
H945 H 0.02009 0.94246 0.7723 0.0
H946 H 0.13249 0.91916 0.82665 0.0
H947 H 0.0891 0.0009 0.80442 0.0
C948 C 0.12924 0.01555 0.82954 0.0
C949 C 0.15494 0.00995 0.84736 0.0
C950 C 0.10774 0.92425 0.81479 0.0
C951 C 0.11319 0.97067 0.82473 0.0
C952 C 0.09069 0.90533 0.80152 0.0
C953 C 0.05873 0.91159 0.78605 0.0
C954 C 0.09349 0.94962 0.81211 0.0
C955 C 0.04443 0.93693 0.78421 0.0
C956 C 0.10817 0.99607 0.8183 0.0
C957 C 0.15789 0.98444 0.85379 0.0
N958 N 0.06229 0.95508 0.79694 0.0
N959 N 0.13765 0.96562 0.84233 0.0
H960 H 0.15838 0.16202 0.00927 0.0
H961 H 0.08552 0.08871 0.11226 0.0
H962 H 0.18653 0.08297 0.02293 0.0
H963 H 0.13655 0.16588 0.11622 0.0
H964 H 0.0933 0.09055 0.07452 0.0
H965 H 0.12879 0.16723 0.04487 0.0
C966 C 0.15862 0.14585 0.01971 0.0
C967 C 0.17418 0.12187 0.01297 0.0
C968 C 0.10149 0.10735 0.08362 0.0
C969 C 0.13889 0.12752 0.053 0.0
C970 C 0.09645 0.10641 0.10505 0.0
C971 C 0.11077 0.12712 0.11716 0.0
C972 C 0.12121 0.12908 0.07438 0.0
C973 C 0.1253 0.14957 0.10721 0.0
C974 C 0.14128 0.1488 0.03985 0.0
C975 C 0.17357 0.10158 0.02716 0.0
N976 N 0.13106 0.14986 0.08628 0.0
N977 N 0.15578 0.10481 0.04636 0.0
H978 H 0.34264 0.33397 0.5109 0.0
H979 H 0.42355 0.4065 0.6132 0.0
H980 H 0.32438 0.41433 0.52301 0.0
H981 H 0.36314 0.33145 0.61777 0.0
H982 H 0.41482 0.40465 0.57547 0.0
H983 H 0.37076 0.32864 0.5467 0.0
C984 C 0.3443 0.35043 0.52101 0.0
C985 C 0.33188 0.37475 0.51374 0.0
C986 C 0.40468 0.38829 0.5847 0.0
C987 C 0.36565 0.36887 0.55408 0.0
C988 C 0.41022 0.38922 0.60613 0.0
C989 C 0.39384 0.36913 0.61841 0.0
C990 C 0.3825 0.36717 0.57562 0.0
C991 C 0.37612 0.34726 0.60864 0.0
C992 C 0.36082 0.34738 0.54129 0.0
C993 C 0.33496 0.39537 0.52757 0.0
N994 N 0.37019 0.34695 0.58771 0.0
N995 N 0.35195 0.392 0.54692 0.0
H996 H 0.69241 0.41366 0.97908 0.0
H997 H 0.58422 0.31687 0.89643 0.0
H998 H 0.64873 0.33674 0.99299 0.0
H999 H 0.65235 0.38693 0.8791 0.0
H1000 H 0.59077 0.32899 0.93289 0.0
H1001 H 0.66553 0.40803 0.9434 0.0
C1002 C 0.67717 0.39557 0.9746 0.0
C1003 C 0.67293 0.37557 0.989 0.0
C1004 C 0.60356 0.34198 0.92115 0.0
C1005 C 0.64164 0.36913 0.94827 0.0
C1006 C 0.59926 0.33521 0.90035 0.0
C1007 C 0.61833 0.3508 0.88488 0.0
C1008 C 0.62756 0.36438 0.92648 0.0
C1009 C 0.63745 0.37438 0.89066 0.0
C1010 C 0.66172 0.39241 0.95426 0.0
C1011 C 0.65321 0.35251 0.98234 0.0
N1012 N 0.64242 0.38028 0.91109 0.0
N1013 N 0.63824 0.34994 0.96248 0.0
H1014 H 0.85155 0.16231 0.49366 0.0
H1015 H 0.86236 0.10996 0.37846 0.0
H1016 H 0.82215 0.0836 0.4788 0.0
H1017 H 0.91949 0.18216 0.39786 0.0
H1018 H 0.85482 0.09743 0.41504 0.0
H1019 H 0.87895 0.16886 0.45834 0.0
C1020 C 0.85052 0.14645 0.48292 0.0
C1021 C 0.83441 0.12242 0.4892 0.0
C1022 C 0.86997 0.11578 0.41127 0.0
C1023 C 0.86671 0.1296 0.44873 0.0
C1024 C 0.87475 0.12278 0.39042 0.0
C1025 C 0.89078 0.14728 0.3853 0.0
C1026 C 0.88081 0.13362 0.42686 0.0
C1027 C 0.90634 0.16324 0.40128 0.0
C1028 C 0.86684 0.15007 0.46281 0.0
C1029 C 0.83462 0.10242 0.47465 0.0
N1030 N 0.90011 0.15636 0.42134 0.0
N1031 N 0.85029 0.10648 0.45505 0.0
H1032 H 0.82624 0.83432 0.98972 0.0
H1033 H 0.94235 0.89993 0.89165 0.0
H1034 H 0.83465 0.91559 0.97852 0.0
H1035 H 0.85147 0.83562 0.88241 0.0
H1036 H 0.93059 0.89627 0.92908 0.0
H1037 H 0.8556 0.82703 0.9545 0.0
C1038 C 0.83412 0.85065 0.98007 0.0
C1039 C 0.82872 0.87572 0.9876 0.0
C1040 C 0.91456 0.88237 0.9189 0.0
C1041 C 0.86462 0.86723 0.94781 0.0
C1042 C 0.92187 0.88419 0.89762 0.0
C1043 C 0.89771 0.8681 0.88405 0.0
C1044 C 0.88295 0.86431 0.92659 0.0
C1045 C 0.87075 0.84831 0.89249 0.0
C1046 C 0.85144 0.84636 0.96008 0.0
C1047 C 0.83992 0.89593 0.97411 0.0
N1048 N 0.86323 0.84723 0.91332 0.0
N1049 N 0.8578 0.89122 0.95511 0.0
H1050 H 0.61739 0.60437 0.4944 0.0
H1051 H 0.65552 0.65868 0.37988 0.0
H1052 H 0.73022 0.65392 0.47607 0.0
H1053 H 0.56517 0.5955 0.39393 0.0
H1054 H 0.6676 0.66546 0.41709 0.0
H1055 H 0.5869 0.60683 0.45928 0.0
C1056 C 0.63603 0.61575 0.48314 0.0
C1057 C 0.67682 0.62894 0.48855 0.0
C1058 C 0.64415 0.65052 0.41207 0.0
C1059 C 0.6404 0.63266 0.44825 0.0
C1060 C 0.6366 0.64698 0.39086 0.0
C1061 C 0.60944 0.62649 0.38394 0.0
C1062 C 0.62457 0.6333 0.42634 0.0
C1063 C 0.5863 0.61155 0.39874 0.0
C1064 C 0.61802 0.61741 0.46308 0.0
C1065 C 0.69827 0.64379 0.47307 0.0
N1066 N 0.59504 0.61493 0.41927 0.0
N1067 N 0.67983 0.64523 0.45373 0.0
H1068 H 0.30261 0.58381 0.02522 0.0
H1069 H 0.43334 0.67626 0.10467 0.0
H1070 H 0.36183 0.65668 0.00874 0.0
H1071 H 0.35462 0.61048 0.12394 0.0
H1072 H 0.42196 0.66388 0.06848 0.0
H1073 H 0.33151 0.5893 0.06062 0.0
C1074 C 0.32162 0.60101 0.02913 0.0
C1075 C 0.32967 0.61992 0.01415 0.0
C1076 C 0.40796 0.65181 0.08059 0.0
C1077 C 0.36359 0.6261 0.05442 0.0
C1078 C 0.41509 0.65866 0.10123 0.0
C1079 C 0.39471 0.64438 0.11719 0.0
C1080 C 0.37979 0.63069 0.07593 0.0
C1081 C 0.37096 0.6219 0.11201 0.0
C1082 C 0.33829 0.60407 0.04927 0.0
C1083 C 0.35437 0.64184 0.01994 0.0
N1084 N 0.36339 0.61595 0.09176 0.0
N1085 N 0.37058 0.64431 0.03962 0.0
H1086 H 0.12078 0.84138 0.50757 0.0
H1087 H 0.16727 0.8854 0.62354 0.0
H1088 H 0.22057 0.89918 0.52394 0.0
H1089 H 0.06235 0.83113 0.60577 0.0
H1090 H 0.17697 0.89728 0.58701 0.0
H1091 H 0.09045 0.84255 0.54298 0.0
C1092 C 0.13637 0.85419 0.51877 0.0
C1093 C 0.17367 0.86979 0.51317 0.0
C1094 C 0.15087 0.88329 0.59112 0.0
C1095 C 0.13943 0.8714 0.5536 0.0
C1096 C 0.14493 0.8768 0.61198 0.0
C1097 C 0.11404 0.85727 0.61752 0.0
C1098 C 0.12616 0.86983 0.57582 0.0
C1099 C 0.08646 0.84631 0.60203 0.0
C1100 C 0.1189 0.85507 0.5389 0.0
C1101 C 0.19213 0.88661 0.52792 0.0
N1102 N 0.09375 0.85239 0.58183 0.0
N1103 N 0.17523 0.88674 0.5476 0.0
H1104 H 0.09998 0.26874 0.37821 0.0
H1105 H 0.09543 0.21106 0.26331 0.0
H1106 H 0.19308 0.29217 0.32941 0.0
H1107 H 0.02327 0.1761 0.31452 0.0
H1108 H 0.12605 0.24338 0.2868 0.0
H1109 H 0.06668 0.23681 0.35478 0.0
C1110 C 0.1136 0.26718 0.36265 0.0
C1111 C 0.14944 0.28337 0.35586 0.0
C1112 C 0.10358 0.22862 0.29294 0.0
C1113 C 0.11081 0.24705 0.32881 0.0
C1114 C 0.08619 0.21005 0.27949 0.0
C1115 C 0.05754 0.19042 0.28693 0.0
C1116 C 0.09173 0.2279 0.31404 0.0
C1117 C 0.04582 0.19062 0.30809 0.0
C1118 C 0.09434 0.24902 0.34923 0.0
C1119 C 0.16498 0.28059 0.33533 0.0
N1120 N 0.06297 0.20903 0.32089 0.0
N1121 N 0.14558 0.26288 0.3226 0.0
H1122 H 0.4065 0.22753 0.87784 0.0
H1123 H 0.40935 0.28652 0.76332 0.0
H1124 H 0.31199 0.20486 0.82933 0.0
H1125 H 0.487 0.31853 0.81421 0.0
H1126 H 0.37739 0.25445 0.78675 0.0
H1127 H 0.43996 0.25934 0.85438 0.0
C1128 C 0.3926 0.22926 0.86233 0.0
C1129 C 0.35638 0.21333 0.85561 0.0
C1130 C 0.40136 0.26853 0.79281 0.0
C1131 C 0.39508 0.2495 0.82854 0.0
C1132 C 0.41953 0.28693 0.7794 0.0
C1133 C 0.45025 0.30561 0.78678 0.0
C1134 C 0.41445 0.26853 0.81378 0.0
C1135 C 0.46296 0.30473 0.80781 0.0
C1136 C 0.41193 0.24735 0.84889 0.0
C1137 C 0.34039 0.21629 0.83517 0.0
N1138 N 0.44501 0.28654 0.82055 0.0
N1139 N 0.35985 0.23394 0.82241 0.0
H1140 H 0.68216 0.24839 0.63157 0.0
H1141 H 0.54504 0.27173 0.73765 0.0
H1142 H 0.61634 0.18749 0.66586 0.0
H1143 H 0.58669 0.33175 0.69587 0.0
H1144 H 0.57494 0.24011 0.7129 0.0
H1145 H 0.65004 0.27906 0.65596 0.0
C1146 C 0.6605 0.24145 0.64406 0.0
C1147 C 0.65216 0.21525 0.64664 0.0
C1148 C 0.57774 0.26022 0.70923 0.0
C1149 C 0.616 0.25034 0.675 0.0
C1150 C 0.5611 0.27817 0.72341 0.0
C1151 C 0.56368 0.30423 0.71871 0.0
C1152 C 0.5977 0.26856 0.69051 0.0
C1153 C 0.58393 0.31176 0.69995 0.0
C1154 C 0.64245 0.25899 0.65811 0.0
C1155 C 0.62442 0.20745 0.66343 0.0
N1156 N 0.60033 0.29404 0.68659 0.0
N1157 N 0.60754 0.22489 0.67702 0.0
H1158 H 0.83018 0.24796 0.13012 0.0
H1159 H 0.95209 0.22369 0.23965 0.0
H1160 H 0.88535 0.30927 0.16758 0.0
H1161 H 0.93086 0.16536 0.19344 0.0
H1162 H 0.92181 0.2555 0.2151 0.0
H1163 H 0.86271 0.21735 0.15442 0.0
C1164 C 0.84953 0.25507 0.14328 0.0
C1165 C 0.85462 0.28138 0.14674 0.0
C1166 C 0.92373 0.2357 0.21041 0.0
C1167 C 0.89106 0.24622 0.17508 0.0
C1168 C 0.94061 0.2176 0.22445 0.0
C1169 C 0.94391 0.19195 0.21852 0.0
C1170 C 0.90945 0.22789 0.19053 0.0
C1171 C 0.92917 0.18499 0.19859 0.0
C1172 C 0.8678 0.23753 0.1573 0.0
C1173 C 0.87952 0.28925 0.16442 0.0
N1174 N 0.91245 0.2028 0.18538 0.0
N1175 N 0.8965 0.27178 0.17798 0.0
H1176 H 0.90948 0.68528 0.66496 0.0
H1177 H 0.89753 0.83126 0.69995 0.0
H1178 H 0.81901 0.73946 0.63561 0.0
H1179 H 0.99867 0.77777 0.72219 0.0
H1180 H 0.8697 0.79894 0.67522 0.0
H1181 H 0.94478 0.71984 0.68471 0.0
C1182 C 0.89733 0.70457 0.66256 0.0
C1183 C 0.86081 0.70947 0.64886 0.0
C1184 C 0.89801 0.79432 0.68549 0.0
C1185 C 0.90099 0.74931 0.67157 0.0
C1186 C 0.91365 0.81267 0.69965 0.0
C1187 C 0.95023 0.80706 0.71311 0.0
C1188 C 0.91862 0.77009 0.68515 0.0
C1189 C 0.97051 0.78289 0.71198 0.0
C1190 C 0.91754 0.72433 0.67383 0.0
C1191 C 0.84699 0.73487 0.64607 0.0
N1192 N 0.95416 0.76526 0.6984 0.0
N1193 N 0.8667 0.75385 0.65756 0.0
H1194 H 0.59909 0.81053 0.16035 0.0
H1195 H 0.61747 0.66887 0.20533 0.0
H1196 H 0.68352 0.75267 0.13205 0.0
H1197 H 0.506 0.71983 0.22047 0.0
H1198 H 0.64672 0.70039 0.18036 0.0
H1199 H 0.56857 0.77853 0.18441 0.0
C1200 C 0.61109 0.79105 0.15918 0.0
C1201 C 0.64388 0.78423 0.14418 0.0
C1202 C 0.6159 0.70466 0.18918 0.0
C1203 C 0.60939 0.74754 0.17178 0.0
C1204 C 0.59939 0.68677 0.20349 0.0
C1205 C 0.55926 0.69177 0.21491 0.0
C1206 C 0.59259 0.7279 0.1866 0.0
C1207 C 0.53689 0.71515 0.21185 0.0
C1208 C 0.59357 0.77279 0.17287 0.0
C1209 C 0.65798 0.75868 0.14325 0.0
N1210 N 0.55401 0.7324 0.19809 0.0
N1211 N 0.64093 0.74129 0.15697 0.0
H1212 H 0.30508 0.79457 0.32202 0.0
H1213 H 0.46237 0.67116 0.31599 0.0
H1214 H 0.38909 0.77156 0.374 0.0
H1215 H 0.42159 0.71553 0.26271 0.0
H1216 H 0.42853 0.70364 0.33859 0.0
H1217 H 0.33865 0.76083 0.30136 0.0
C1218 C 0.3308 0.78245 0.32912 0.0
C1219 C 0.34517 0.78638 0.34967 0.0
C1220 C 0.42689 0.7061 0.32195 0.0
C1221 C 0.38303 0.74707 0.32603 0.0
C1222 C 0.44604 0.6876 0.30902 0.0
C1223 C 0.4439 0.69035 0.28737 0.0
C1224 C 0.40507 0.72728 0.31313 0.0
C1225 C 0.42287 0.71218 0.27924 0.0
C1226 C 0.34984 0.76311 0.31727 0.0
C1227 C 0.37723 0.76932 0.35819 0.0
N1228 N 0.40401 0.72969 0.29212 0.0
N1229 N 0.39534 0.75038 0.34627 0.0
H1230 H 0.09883 0.72691 0.8778 0.0
H1231 H 0.09286 0.78208 0.76281 0.0
H1232 H 0.19976 0.70683 0.83138 0.0
H1233 H 0.03496 0.82219 0.8151 0.0
H1234 H 0.12436 0.75038 0.78661 0.0
H1235 H 0.06653 0.75828 0.85375 0.0
C1236 C 0.11438 0.72918 0.86264 0.0
C1237 C 0.15201 0.71416 0.85662 0.0
C1238 C 0.10497 0.76624 0.79282 0.0
C1239 C 0.11484 0.74963 0.82901 0.0
C1240 C 0.08738 0.78451 0.77927 0.0
C1241 C 0.06242 0.80532 0.78698 0.0
C1242 C 0.09648 0.76846 0.81416 0.0
C1243 C 0.05459 0.80672 0.80844 0.0
C1244 C 0.0958 0.74697 0.84891 0.0
C1245 C 0.17023 0.71764 0.8366 0.0
N1246 N 0.07144 0.7885 0.82126 0.0
N1247 N 0.15139 0.73494 0.8235 0.0
loop_
_geom_bond_atom_site_label_1
_geom_bond_atom_site_label_2
_geom_bond_distance
_geom_bond_site_symmetry_2
_ccdc_geom_bond_type
C0 C1 1.391 . S
C0 C4 1.391 . S
C0 H42 0.948 . S
C1 C0 1.391 . S
C1 C2 1.391 . S
C2 C1 1.391 . S
C2 H58 0.947 . S
C2 C59 1.392 . S
C3 C4 1.391 . S
C3 C7 1.397 . S
C3 C59 1.419 . S
C4 C0 1.391 . S
C4 C3 1.391 . S
C4 C5 1.399 . S
C5 C4 1.399 . S
C5 C8 1.396 . S
C5 C17 1.453 . S
C5 C18 1.684 . S
H6 C30 0.948 . S
C7 C3 1.397 . S
C7 C8 1.394 . S
C7 C26 1.723 . S
C8 C5 1.396 . S
C8 C7 1.394 . S
C8 C38 1.723 . S
H9 C32 0.947 . S
H10 C33 0.948 . S
H11 C39 0.982 . S
H12 C40 0.979 . S
H13 C40 0.980 . S
H14 C40 0.983 . S
H15 C39 0.979 . S
H16 C39 0.977 . S
C17 C5 1.453 . S
C17 H46 0.982 . S
C17 H47 0.979 . S
C17 H48 0.977 . S
C18 C5 1.684 . S
C18 H43 0.979 . S
C18 H44 0.980 . S
C18 H45 0.983 . S
C19 C20 1.391 . S
C19 C24 1.391 . S
C19 H49 0.948 . S
C20 C19 1.391 . S
C20 C21 1.391 . S
C21 C20 1.391 . S
C21 C22 1.392 . S
C21 H50 0.947 . S
C22 C21 1.392 . S
C22 C23 1.419 . S
C22 H51 0.948 . S
C23 C22 1.419 . S
C23 C24 1.391 . S
C23 C27 1.397 . S
C24 C19 1.391 . S
C24 C23 1.391 . S
C24 C25 1.399 . S
C25 C24 1.399 . S
C25 C26 1.396 . S
C25 C28 1.453 . S
C25 C29 1.684 . S
C26 C7 1.723 . S
C26 C25 1.396 . S
C26 C27 1.394 . S
C27 C23 1.397 . S
C27 C26 1.394 . S
C27 C37 1.723 . S
C28 C25 1.453 . S
C28 H52 0.982 . S
C28 H53 0.979 . S
C28 H54 0.977 . S
C29 C25 1.684 . S
C29 H55 0.979 . S
C29 H56 0.980 . S
C29 H57 0.983 . S
C30 H6 0.948 . S
C30 C31 1.391 . S
C30 C35 1.391 . S
C31 C30 1.391 . S
C31 C32 1.391 . S
C32 H9 0.947 . S
C32 C31 1.391 . S
C32 C33 1.392 . S
C33 H10 0.948 . S
C33 C32 1.392 . S
C33 C34 1.419 . S
C34 C33 1.419 . S
C34 C35 1.391 . S
C34 C38 1.397 . S
C35 C30 1.391 . S
C35 C34 1.391 . S
C35 C36 1.399 . S
C36 C35 1.399 . S
C36 C37 1.396 . S
C36 C39 1.453 . S
C36 C40 1.684 . S
C37 C27 1.723 . S
C37 C36 1.396 . S
C37 C38 1.394 . S
C38 C8 1.723 . S
C38 C34 1.397 . S
C38 C37 1.394 . S
C39 H11 0.982 . S
C39 H15 0.979 . S
C39 H16 0.977 . S
C39 C36 1.453 . S
C40 H12 0.979 . S
C40 H13 0.980 . S
C40 H14 0.983 . S
C40 C36 1.684 . S
H41 C59 0.948 . S
H42 C0 0.948 . S
H43 C18 0.979 . S
H44 C18 0.980 . S
H45 C18 0.983 . S
H46 C17 0.982 . S
H47 C17 0.979 . S
H48 C17 0.977 . S
H49 C19 0.948 . S
H50 C21 0.947 . S
H51 C22 0.948 . S
H52 C28 0.982 . S
H53 C28 0.979 . S
H54 C28 0.977 . S
H55 C29 0.979 . S
H56 C29 0.980 . S
H57 C29 0.983 . S
H58 C2 0.947 . S
C59 C2 1.392 . S
C59 C3 1.419 . S
C59 H41 0.948 . S
C60 C61 1.391 . S
C60 C64 1.391 . S
C60 H102 0.948 . S
C61 C60 1.391 . S
C61 C62 1.391 . S
C62 C61 1.391 . S
C62 H118 0.947 . S
C62 C119 1.392 . S
C63 C64 1.391 . S
C63 C67 1.397 . S
C63 C119 1.419 . S
C64 C60 1.391 . S
C64 C63 1.391 . S
C64 C65 1.399 . S
C65 C64 1.399 . S
C65 C68 1.396 . S
C65 C77 1.453 . S
C65 C78 1.684 . S
H66 C90 0.948 . S
C67 C63 1.397 . S
C67 C68 1.394 . S
C67 C86 1.723 . S
C68 C65 1.396 . S
C68 C67 1.394 . S
C68 C98 1.723 . S
H69 C92 0.947 . S
H70 C93 0.948 . S
H71 C99 0.982 . S
H72 C100 0.979 . S
H73 C100 0.980 . S
H74 C100 0.983 . S
H75 C99 0.979 . S
H76 C99 0.977 . S
C77 C65 1.453 . S
C77 H106 0.982 . S
C77 H107 0.979 . S
C77 H108 0.977 . S
C78 C65 1.684 . S
C78 H103 0.979 . S
C78 H104 0.980 . S
C78 H105 0.983 . S
C79 C80 1.391 . S
C79 C84 1.391 . S
C79 H109 0.948 . S
C80 C79 1.391 . S
C80 C81 1.391 . S
C81 C80 1.391 . S
C81 C82 1.392 . S
C81 H110 0.947 . S
C82 C81 1.392 . S
C82 C83 1.419 . S
C82 H111 0.948 . S
C83 C82 1.419 . S
C83 C84 1.391 . S
C83 C87 1.397 . S
C84 C79 1.391 . S
C84 C83 1.391 . S
C84 C85 1.399 . S
C85 C84 1.399 . S
C85 C86 1.396 . S
C85 C88 1.453 . S
C85 C89 1.684 . S
C86 C67 1.723 . S
C86 C85 1.396 . S
C86 C87 1.394 . S
C87 C83 1.397 . S
C87 C86 1.394 . S
C87 C97 1.723 . S
C88 C85 1.453 . S
C88 H112 0.982 . S
C88 H113 0.979 . S
C88 H114 0.977 . S
C89 C85 1.684 . S
C89 H115 0.979 . S
C89 H116 0.980 . S
C89 H117 0.983 . S
C90 H66 0.948 . S
C90 C91 1.391 . S
C90 C95 1.391 . S
C91 C90 1.391 . S
C91 C92 1.391 . S
C92 H69 0.947 . S
C92 C91 1.391 . S
C92 C93 1.392 . S
C93 H70 0.948 . S
C93 C92 1.392 . S
C93 C94 1.419 . S
C94 C93 1.419 . S
C94 C95 1.391 . S
C94 C98 1.397 . S
C95 C90 1.391 . S
C95 C94 1.391 . S
C95 C96 1.399 . S
C96 C95 1.399 . S
C96 C97 1.396 . S
C96 C99 1.453 . S
C96 C100 1.684 . S
C97 C87 1.723 . S
C97 C96 1.396 . S
C97 C98 1.394 . S
C98 C68 1.723 . S
C98 C94 1.397 . S
C98 C97 1.394 . S
C99 H71 0.982 . S
C99 H75 0.979 . S
C99 H76 0.977 . S
C99 C96 1.453 . S
C100 H72 0.979 . S
C100 H73 0.980 . S
C100 H74 0.983 . S
C100 C96 1.684 . S
H101 C119 0.948 . S
H102 C60 0.948 . S
H103 C78 0.979 . S
H104 C78 0.980 . S
H105 C78 0.983 . S
H106 C77 0.982 . S
H107 C77 0.979 . S
H108 C77 0.977 . S
H109 C79 0.948 . S
H110 C81 0.947 . S
H111 C82 0.948 . S
H112 C88 0.982 . S
H113 C88 0.979 . S
H114 C88 0.977 . S
H115 C89 0.979 . S
H116 C89 0.980 . S
H117 C89 0.983 . S
H118 C62 0.947 . S
C119 C62 1.392 . S
C119 C63 1.419 . S
C119 H101 0.948 . S
C120 C121 1.391 . S
C120 C124 1.391 . S
C120 H162 0.948 . S
C121 C120 1.391 . S
C121 C122 1.391 . S
C122 C121 1.391 . S
C122 H178 0.947 . S
C122 C179 1.392 . S
C123 C124 1.391 . S
C123 C127 1.397 . S
C123 C179 1.419 . S
C124 C120 1.391 . S
C124 C123 1.391 . S
C124 C125 1.399 . S
C125 C124 1.399 . S
C125 C128 1.396 . S
C125 C137 1.453 . S
C125 C138 1.684 . S
H126 C150 0.948 . S
C127 C123 1.397 . S
C127 C128 1.394 . S
C127 C146 1.723 . S
C128 C125 1.396 . S
C128 C127 1.394 . S
C128 C158 1.723 . S
H129 C152 0.947 . S
H130 C153 0.948 . S
H131 C159 0.982 . S
H132 C160 0.979 . S
H133 C160 0.980 . S
H134 C160 0.983 . S
H135 C159 0.979 . S
H136 C159 0.977 . S
C137 C125 1.453 . S
C137 H166 0.982 . S
C137 H167 0.979 . S
C137 H168 0.977 . S
C138 C125 1.684 . S
C138 H163 0.979 . S
C138 H164 0.980 . S
C138 H165 0.983 . S
C139 C140 1.391 . S
C139 C144 1.391 . S
C139 H169 0.948 . S
C140 C139 1.391 . S
C140 C141 1.391 . S
C141 C140 1.391 . S
C141 C142 1.392 . S
C141 H170 0.947 . S
C142 C141 1.392 . S
C142 C143 1.419 . S
C142 H171 0.948 . S
C143 C142 1.419 . S
C143 C144 1.391 . S
C143 C147 1.397 . S
C144 C139 1.391 . S
C144 C143 1.391 . S
C144 C145 1.399 . S
C145 C144 1.399 . S
C145 C146 1.396 . S
C145 C148 1.453 . S
C145 C149 1.684 . S
C146 C127 1.723 . S
C146 C145 1.396 . S
C146 C147 1.394 . S
C147 C143 1.397 . S
C147 C146 1.394 . S
C147 C157 1.723 . S
C148 C145 1.453 . S
C148 H172 0.982 . S
C148 H173 0.979 . S
C148 H174 0.977 . S
C149 C145 1.684 . S
C149 H175 0.979 . S
C149 H176 0.980 . S
C149 H177 0.983 . S
C150 H126 0.948 . S
C150 C151 1.391 . S
C150 C155 1.391 . S
C151 C150 1.391 . S
C151 C152 1.391 . S
C152 H129 0.947 . S
C152 C151 1.391 . S
C152 C153 1.392 . S
C153 H130 0.948 . S
C153 C152 1.392 . S
C153 C154 1.419 . S
C154 C153 1.419 . S
C154 C155 1.391 . S
C154 C158 1.397 . S
C155 C150 1.391 . S
C155 C154 1.391 . S
C155 C156 1.399 . S
C156 C155 1.399 . S
C156 C157 1.396 . S
C156 C159 1.453 . S
C156 C160 1.684 . S
C157 C147 1.723 . S
C157 C156 1.396 . S
C157 C158 1.394 . S
C158 C128 1.723 . S
C158 C154 1.397 . S
C158 C157 1.394 . S
C159 H131 0.982 . S
C159 H135 0.979 . S
C159 H136 0.977 . S
C159 C156 1.453 . S
C160 H132 0.979 . S
C160 H133 0.980 . S
C160 H134 0.983 . S
C160 C156 1.684 . S
H161 C179 0.948 . S
H162 C120 0.948 . S
H163 C138 0.979 . S
H164 C138 0.980 . S
H165 C138 0.983 . S
H166 C137 0.982 . S
H167 C137 0.979 . S
H168 C137 0.977 . S
H169 C139 0.948 . S
H170 C141 0.947 . S
H171 C142 0.948 . S
H172 C148 0.982 . S
H173 C148 0.979 . S
H174 C148 0.977 . S
H175 C149 0.979 . S
H176 C149 0.980 . S
H177 C149 0.983 . S
H178 C122 0.947 . S
C179 C122 1.392 . S
C179 C123 1.419 . S
C179 H161 0.948 . S
C180 C181 1.391 . S
C180 C184 1.391 . S
C180 H222 0.948 . S
C181 C180 1.391 . S
C181 C182 1.391 . S
C182 C181 1.391 . S
C182 H238 0.947 . S
C182 C239 1.392 . S
C183 C184 1.391 . S
C183 C187 1.397 . S
C183 C239 1.419 . S
C184 C180 1.391 . S
C184 C183 1.391 . S
C184 C185 1.399 . S
C185 C184 1.399 . S
C185 C188 1.396 . S
C185 C197 1.453 . S
C185 C198 1.684 . S
H186 C210 0.948 . S
C187 C183 1.397 . S
C187 C188 1.394 . S
C187 C206 1.723 . S
C188 C185 1.396 . S
C188 C187 1.394 . S
C188 C218 1.723 . S
H189 C212 0.947 . S
H190 C213 0.948 . S
H191 C219 0.982 . S
H192 C220 0.979 . S
H193 C220 0.980 . S
H194 C220 0.983 . S
H195 C219 0.979 . S
H196 C219 0.977 . S
C197 C185 1.453 . S
C197 H226 0.982 . S
C197 H227 0.979 . S
C197 H228 0.977 . S
C198 C185 1.684 . S
C198 H223 0.979 . S
C198 H224 0.980 . S
C198 H225 0.983 . S
C199 C200 1.391 . S
C199 C204 1.391 . S
C199 H229 0.948 . S
C200 C199 1.391 . S
C200 C201 1.391 . S
C201 C200 1.391 . S
C201 C202 1.392 . S
C201 H230 0.947 . S
C202 C201 1.392 . S
C202 C203 1.419 . S
C202 H231 0.948 . S
C203 C202 1.419 . S
C203 C204 1.391 . S
C203 C207 1.397 . S
C204 C199 1.391 . S
C204 C203 1.391 . S
C204 C205 1.399 . S
C205 C204 1.399 . S
C205 C206 1.396 . S
C205 C208 1.453 . S
C205 C209 1.684 . S
C206 C187 1.723 . S
C206 C205 1.396 . S
C206 C207 1.394 . S
C207 C203 1.397 . S
C207 C206 1.394 . S
C207 C217 1.723 . S
C208 C205 1.453 . S
C208 H232 0.982 . S
C208 H233 0.979 . S
C208 H234 0.977 . S
C209 C205 1.684 . S
C209 H235 0.979 . S
C209 H236 0.980 . S
C209 H237 0.983 . S
C210 H186 0.948 . S
C210 C211 1.391 . S
C210 C215 1.391 . S
C211 C210 1.391 . S
C211 C212 1.391 . S
C212 H189 0.947 . S
C212 C211 1.391 . S
C212 C213 1.392 . S
C213 H190 0.948 . S
C213 C212 1.392 . S
C213 C214 1.419 . S
C214 C213 1.419 . S
C214 C215 1.391 . S
C214 C218 1.397 . S
C215 C210 1.391 . S
C215 C214 1.391 . S
C215 C216 1.399 . S
C216 C215 1.399 . S
C216 C217 1.396 . S
C216 C219 1.453 . S
C216 C220 1.684 . S
C217 C207 1.723 . S
C217 C216 1.396 . S
C217 C218 1.394 . S
C218 C188 1.723 . S
C218 C214 1.397 . S
C218 C217 1.394 . S
C219 H191 0.982 . S
C219 H195 0.979 . S
C219 H196 0.977 . S
C219 C216 1.453 . S
C220 H192 0.979 . S
C220 H193 0.980 . S
C220 H194 0.983 . S
C220 C216 1.684 . S
H221 C239 0.948 . S
H222 C180 0.948 . S
H223 C198 0.979 . S
H224 C198 0.980 . S
H225 C198 0.983 . S
H226 C197 0.982 . S
H227 C197 0.979 . S
H228 C197 0.977 . S
H229 C199 0.948 . S
H230 C201 0.947 . S
H231 C202 0.948 . S
H232 C208 0.982 . S
H233 C208 0.979 . S
H234 C208 0.977 . S
H235 C209 0.979 . S
H236 C209 0.980 . S
H237 C209 0.983 . S
H238 C182 0.947 . S
C239 C182 1.392 . S
C239 C183 1.419 . S
C239 H221 0.948 . S
C240 C241 1.391 . S
C240 C244 1.391 . S
C240 H282 0.948 . S
C241 C240 1.391 . S
C241 C242 1.391 . S
C242 C241 1.391 . S
C242 H298 0.947 . S
C242 C299 1.392 . S
C243 C244 1.391 . S
C243 C247 1.397 . S
C243 C299 1.419 . S
C244 C240 1.391 . S
C244 C243 1.391 . S
C244 C245 1.399 . S
C245 C244 1.399 . S
C245 C248 1.396 . S
C245 C257 1.453 . S
C245 C258 1.684 . S
H246 C270 0.948 . S
C247 C243 1.397 . S
C247 C248 1.394 . S
C247 C266 1.723 . S
C248 C245 1.396 . S
C248 C247 1.394 . S
C248 C278 1.723 . S
H249 C272 0.947 . S
H250 C273 0.948 . S
H251 C279 0.982 . S
H252 C280 0.979 . S
H253 C280 0.980 . S
H254 C280 0.983 . S
H255 C279 0.979 . S
H256 C279 0.977 . S
C257 C245 1.453 . S
C257 H286 0.982 . S
C257 H287 0.979 . S
C257 H288 0.977 . S
C258 C245 1.684 . S
C258 H283 0.979 . S
C258 H284 0.980 . S
C258 H285 0.983 . S
C259 C260 1.391 . S
C259 C264 1.391 . S
C259 H289 0.948 . S
C260 C259 1.391 . S
C260 C261 1.391 . S
C261 C260 1.391 . S
C261 C262 1.392 . S
C261 H290 0.947 . S
C262 C261 1.392 . S
C262 C263 1.419 . S
C262 H291 0.948 . S
C263 C262 1.419 . S
C263 C264 1.391 . S
C263 C267 1.397 . S
C264 C259 1.391 . S
C264 C263 1.391 . S
C264 C265 1.399 . S
C265 C264 1.399 . S
C265 C266 1.396 . S
C265 C268 1.453 . S
C265 C269 1.684 . S
C266 C247 1.723 . S
C266 C265 1.396 . S
C266 C267 1.394 . S
C267 C263 1.397 . S
C267 C266 1.394 . S
C267 C277 1.723 . S
C268 C265 1.453 . S
C268 H292 0.982 . S
C268 H293 0.979 . S
C268 H294 0.977 . S
C269 C265 1.684 . S
C269 H295 0.979 . S
C269 H296 0.980 . S
C269 H297 0.983 . S
C270 H246 0.948 . S
C270 C271 1.391 . S
C270 C275 1.391 . S
C271 C270 1.391 . S
C271 C272 1.391 . S
C272 H249 0.947 . S
C272 C271 1.391 . S
C272 C273 1.392 . S
C273 H250 0.948 . S
C273 C272 1.392 . S
C273 C274 1.419 . S
C274 C273 1.419 . S
C274 C275 1.391 . S
C274 C278 1.397 . S
C275 C270 1.391 . S
C275 C274 1.391 . S
C275 C276 1.399 . S
C276 C275 1.399 . S
C276 C277 1.396 . S
C276 C279 1.453 . S
C276 C280 1.684 . S
C277 C267 1.723 . S
C277 C276 1.396 . S
C277 C278 1.394 . S
C278 C248 1.723 . S
C278 C274 1.397 . S
C278 C277 1.394 . S
C279 H251 0.982 . S
C279 H255 0.979 . S
C279 H256 0.977 . S
C279 C276 1.453 . S
C280 H252 0.979 . S
C280 H253 0.980 . S
C280 H254 0.983 . S
C280 C276 1.684 . S
H281 C299 0.948 . S
H282 C240 0.948 . S
H283 C258 0.979 . S
H284 C258 0.980 . S
H285 C258 0.983 . S
H286 C257 0.982 . S
H287 C257 0.979 . S
H288 C257 0.977 . S
H289 C259 0.948 . S
H290 C261 0.947 . S
H291 C262 0.948 . S
H292 C268 0.982 . S
H293 C268 0.979 . S
H294 C268 0.977 . S
H295 C269 0.979 . S
H296 C269 0.980 . S
H297 C269 0.983 . S
H298 C242 0.947 . S
C299 C242 1.392 . S
C299 C243 1.419 . S
C299 H281 0.948 . S
C300 C301 1.391 . S
C300 C304 1.391 . S
C300 H342 0.948 . S
C301 C300 1.391 . S
C301 C302 1.391 . S
C302 C301 1.391 . S
C302 H358 0.947 . S
C302 C359 1.392 . S
C303 C304 1.391 . S
C303 C307 1.397 . S
C303 C359 1.419 . S
C304 C300 1.391 . S
C304 C303 1.391 . S
C304 C305 1.399 . S
C305 C304 1.399 . S
C305 C308 1.396 . S
C305 C317 1.453 . S
C305 C318 1.684 . S
H306 C330 0.948 . S
C307 C303 1.397 . S
C307 C308 1.394 . S
C307 C326 1.723 . S
C308 C305 1.396 . S
C308 C307 1.394 . S
C308 C338 1.723 . S
H309 C332 0.947 . S
H310 C333 0.948 . S
H311 C339 0.982 . S
H312 C340 0.979 . S
H313 C340 0.980 . S
H314 C340 0.983 . S
H315 C339 0.979 . S
H316 C339 0.977 . S
C317 C305 1.453 . S
C317 H346 0.982 . S
C317 H347 0.979 . S
C317 H348 0.977 . S
C318 C305 1.684 . S
C318 H343 0.979 . S
C318 H344 0.980 . S
C318 H345 0.983 . S
C319 C320 1.391 . S
C319 C324 1.391 . S
C319 H349 0.948 . S
C320 C319 1.391 . S
C320 C321 1.391 . S
C321 C320 1.391 . S
C321 C322 1.392 . S
C321 H350 0.947 . S
C322 C321 1.392 . S
C322 C323 1.419 . S
C322 H351 0.948 . S
C323 C322 1.419 . S
C323 C324 1.391 . S
C323 C327 1.397 . S
C324 C319 1.391 . S
C324 C323 1.391 . S
C324 C325 1.399 . S
C325 C324 1.399 . S
C325 C326 1.396 . S
C325 C328 1.453 . S
C325 C329 1.684 . S
C326 C307 1.723 . S
C326 C325 1.396 . S
C326 C327 1.394 . S
C327 C323 1.397 . S
C327 C326 1.394 . S
C327 C337 1.723 . S
C328 C325 1.453 . S
C328 H352 0.982 . S
C328 H353 0.979 . S
C328 H354 0.977 . S
C329 C325 1.684 . S
C329 H355 0.979 . S
C329 H356 0.980 . S
C329 H357 0.983 . S
C330 H306 0.948 . S
C330 C331 1.391 . S
C330 C335 1.391 . S
C331 C330 1.391 . S
C331 C332 1.391 . S
C332 H309 0.947 . S
C332 C331 1.391 . S
C332 C333 1.392 . S
C333 H310 0.948 . S
C333 C332 1.392 . S
C333 C334 1.419 . S
C334 C333 1.419 . S
C334 C335 1.391 . S
C334 C338 1.397 . S
C335 C330 1.391 . S
C335 C334 1.391 . S
C335 C336 1.399 . S
C336 C335 1.399 . S
C336 C337 1.396 . S
C336 C339 1.453 . S
C336 C340 1.684 . S
C337 C327 1.723 . S
C337 C336 1.396 . S
C337 C338 1.394 . S
C338 C308 1.723 . S
C338 C334 1.397 . S
C338 C337 1.394 . S
C339 H311 0.982 . S
C339 H315 0.979 . S
C339 H316 0.977 . S
C339 C336 1.453 . S
C340 H312 0.979 . S
C340 H313 0.980 . S
C340 H314 0.983 . S
C340 C336 1.684 . S
H341 C359 0.948 . S
H342 C300 0.948 . S
H343 C318 0.979 . S
H344 C318 0.980 . S
H345 C318 0.983 . S
H346 C317 0.982 . S
H347 C317 0.979 . S
H348 C317 0.977 . S
H349 C319 0.948 . S
H350 C321 0.947 . S
H351 C322 0.948 . S
H352 C328 0.982 . S
H353 C328 0.979 . S
H354 C328 0.977 . S
H355 C329 0.979 . S
H356 C329 0.980 . S
H357 C329 0.983 . S
H358 C302 0.947 . S
C359 C302 1.392 . S
C359 C303 1.419 . S
C359 H341 0.948 . S
C360 C361 1.391 . S
C360 C364 1.391 . S
C360 H402 0.948 . S
C361 C360 1.391 . S
C361 C362 1.391 . S
C362 C361 1.391 . S
C362 H418 0.947 . S
C362 C419 1.392 . S
C363 C364 1.391 . S
C363 C367 1.397 . S
C363 C419 1.419 . S
C364 C360 1.391 . S
C364 C363 1.391 . S
C364 C365 1.399 . S
C365 C364 1.399 . S
C365 C368 1.396 . S
C365 C377 1.453 . S
C365 C378 1.684 . S
H366 C390 0.948 . S
C367 C363 1.397 . S
C367 C368 1.394 . S
C367 C386 1.723 . S
C368 C365 1.396 . S
C368 C367 1.394 . S
C368 C398 1.723 . S
H369 C392 0.947 . S
H370 C393 0.948 . S
H371 C399 0.982 . S
H372 C400 0.979 . S
H373 C400 0.980 . S
H374 C400 0.983 . S
H375 C399 0.979 . S
H376 C399 0.977 . S
C377 C365 1.453 . S
C377 H406 0.982 . S
C377 H407 0.979 . S
C377 H408 0.977 . S
C378 C365 1.684 . S
C378 H403 0.979 . S
C378 H404 0.980 . S
C378 H405 0.983 . S
C379 C380 1.391 . S
C379 C384 1.391 . S
C379 H409 0.948 . S
C380 C379 1.391 . S
C380 C381 1.391 . S
C381 C380 1.391 . S
C381 C382 1.392 . S
C381 H410 0.947 . S
C382 C381 1.392 . S
C382 C383 1.419 . S
C382 H411 0.948 . S
C383 C382 1.419 . S
C383 C384 1.391 . S
C383 C387 1.397 . S
C384 C379 1.391 . S
C384 C383 1.391 . S
C384 C385 1.399 . S
C385 C384 1.399 . S
C385 C386 1.396 . S
C385 C388 1.453 . S
C385 C389 1.684 . S
C386 C367 1.723 . S
C386 C385 1.396 . S
C386 C387 1.394 . S
C387 C383 1.397 . S
C387 C386 1.394 . S
C387 C397 1.723 . S
C388 C385 1.453 . S
C388 H412 0.982 . S
C388 H413 0.979 . S
C388 H414 0.977 . S
C389 C385 1.684 . S
C389 H415 0.979 . S
C389 H416 0.980 . S
C389 H417 0.983 . S
C390 H366 0.948 . S
C390 C391 1.391 . S
C390 C395 1.391 . S
C391 C390 1.391 . S
C391 C392 1.391 . S
C392 H369 0.947 . S
C392 C391 1.391 . S
C392 C393 1.392 . S
C393 H370 0.948 . S
C393 C392 1.392 . S
C393 C394 1.419 . S
C394 C393 1.419 . S
C394 C395 1.391 . S
C394 C398 1.397 . S
C395 C390 1.391 . S
C395 C394 1.391 . S
C395 C396 1.399 . S
C396 C395 1.399 . S
C396 C397 1.396 . S
C396 C399 1.453 . S
C396 C400 1.684 . S
C397 C387 1.723 . S
C397 C396 1.396 . S
C397 C398 1.394 . S
C398 C368 1.723 . S
C398 C394 1.397 . S
C398 C397 1.394 . S
C399 H371 0.982 . S
C399 H375 0.979 . S
C399 H376 0.977 . S
C399 C396 1.453 . S
C400 H372 0.979 . S
C400 H373 0.980 . S
C400 H374 0.983 . S
C400 C396 1.684 . S
H401 C419 0.948 . S
H402 C360 0.948 . S
H403 C378 0.979 . S
H404 C378 0.980 . S
H405 C378 0.983 . S
H406 C377 0.982 . S
H407 C377 0.979 . S
H408 C377 0.977 . S
H409 C379 0.948 . S
H410 C381 0.947 . S
H411 C382 0.948 . S
H412 C388 0.982 . S
H413 C388 0.979 . S
H414 C388 0.977 . S
H415 C389 0.979 . S
H416 C389 0.980 . S
H417 C389 0.983 . S
H418 C362 0.947 . S
C419 C362 1.392 . S
C419 C363 1.419 . S
C419 H401 0.948 . S
C420 C421 1.391 . S
C420 C424 1.391 . S
C420 H462 0.948 . S
C421 C420 1.391 . S
C421 C422 1.391 . S
C422 C421 1.391 . S
C422 H478 0.947 . S
C422 C479 1.392 . S
C423 C424 1.391 . S
C423 C427 1.397 . S
C423 C479 1.419 . S
C424 C420 1.391 . S
C424 C423 1.391 . S
C424 C425 1.399 . S
C425 C424 1.399 . S
C425 C428 1.396 . S
C425 C437 1.453 . S
C425 C438 1.684 . S
H426 C450 0.948 . S
C427 C423 1.397 . S
C427 C428 1.394 . S
C427 C446 1.723 . S
C428 C425 1.396 . S
C428 C427 1.394 . S
C428 C458 1.723 . S
H429 C452 0.947 . S
H430 C453 0.948 . S
H431 C459 0.982 . S
H432 C460 0.979 . S
H433 C460 0.980 . S
H434 C460 0.983 . S
H435 C459 0.979 . S
H436 C459 0.977 . S
C437 C425 1.453 . S
C437 H466 0.982 . S
C437 H467 0.979 . S
C437 H468 0.977 . S
C438 C425 1.684 . S
C438 H463 0.979 . S
C438 H464 0.980 . S
C438 H465 0.983 . S
C439 C440 1.391 . S
C439 C444 1.391 . S
C439 H469 0.948 . S
C440 C439 1.391 . S
C440 C441 1.391 . S
C441 C440 1.391 . S
C441 C442 1.392 . S
C441 H470 0.947 . S
C442 C441 1.392 . S
C442 C443 1.419 . S
C442 H471 0.948 . S
C443 C442 1.419 . S
C443 C444 1.391 . S
C443 C447 1.397 . S
C444 C439 1.391 . S
C444 C443 1.391 . S
C444 C445 1.399 . S
C445 C444 1.399 . S
C445 C446 1.396 . S
C445 C448 1.453 . S
C445 C449 1.684 . S
C446 C427 1.723 . S
C446 C445 1.396 . S
C446 C447 1.394 . S
C447 C443 1.397 . S
C447 C446 1.394 . S
C447 C457 1.723 . S
C448 C445 1.453 . S
C448 H472 0.982 . S
C448 H473 0.979 . S
C448 H474 0.977 . S
C449 C445 1.684 . S
C449 H475 0.979 . S
C449 H476 0.980 . S
C449 H477 0.983 . S
C450 H426 0.948 . S
C450 C451 1.391 . S
C450 C455 1.391 . S
C451 C450 1.391 . S
C451 C452 1.391 . S
C452 H429 0.947 . S
C452 C451 1.391 . S
C452 C453 1.392 . S
C453 H430 0.948 . S
C453 C452 1.392 . S
C453 C454 1.419 . S
C454 C453 1.419 . S
C454 C455 1.391 . S
C454 C458 1.397 . S
C455 C450 1.391 . S
C455 C454 1.391 . S
C455 C456 1.399 . S
C456 C455 1.399 . S
C456 C457 1.396 . S
C456 C459 1.453 . S
C456 C460 1.684 . S
C457 C447 1.723 . S
C457 C456 1.396 . S
C457 C458 1.394 . S
C458 C428 1.723 . S
C458 C454 1.397 . S
C458 C457 1.394 . S
C459 H431 0.982 . S
C459 H435 0.979 . S
C459 H436 0.977 . S
C459 C456 1.453 . S
C460 H432 0.979 . S
C460 H433 0.980 . S
C460 H434 0.983 . S
C460 C456 1.684 . S
H461 C479 0.948 . S
H462 C420 0.948 . S
H463 C438 0.979 . S
H464 C438 0.980 . S
H465 C438 0.983 . S
H466 C437 0.982 . S
H467 C437 0.979 . S
H468 C437 0.977 . S
H469 C439 0.948 . S
H470 C441 0.947 . S
H471 C442 0.948 . S
H472 C448 0.982 . S
H473 C448 0.979 . S
H474 C448 0.977 . S
H475 C449 0.979 . S
H476 C449 0.980 . S
H477 C449 0.983 . S
H478 C422 0.947 . S
C479 C422 1.392 . S
C479 C423 1.419 . S
C479 H461 0.948 . S
Eu480 N509 2.600 . S
Eu480 N515 2.562 . S
Eu480 O524 2.462 . S
Eu480 O525 2.373 . S
Eu480 O527 2.432 . S
Eu480 O528 2.291 . S
Eu480 O532 2.335 . S
Eu480 O535 2.372 . S
Eu480 C544 2.787 . S
C481 N482 1.365 . S
C481 C484 1.405 . S
C481 C488 1.448 . S
N482 C481 1.365 . S
N482 C485 1.319 . S
N482 Eu491 2.600 . S
C483 C485 1.397 . S
C483 C486 1.367 . S
C483 H503 0.931 . S
C484 C481 1.405 . S
C484 C486 1.403 . S
C484 C490 1.439 . S
C485 N482 1.319 . S
C485 C483 1.397 . S
C485 H496 0.930 . S
C486 C483 1.367 . S
C486 C484 1.403 . S
C486 H507 0.929 . S
C487 C488 1.430 . S
C487 C489 1.387 . S
C487 C493 1.404 . S
C488 C481 1.448 . S
C488 C487 1.430 . S
C488 N492 1.351 . S
C489 C487 1.387 . S
C489 C490 1.374 . S
C489 H504 0.931 . S
C490 C484 1.439 . S
C490 C489 1.374 . S
C490 H505 0.931 . S
Eu491 N482 2.600 . S
Eu491 N492 2.562 . S
Eu491 O526 2.327 1_655 S
Eu491 O529 2.372 . S
Eu491 O530 2.462 . S
Eu491 O531 2.373 . S
Eu491 O533 2.432 . S
Eu491 O534 2.291 1_655 S
Eu491 C555 2.787 . S
N492 C488 1.351 . S
N492 Eu491 2.562 . S
N492 C494 1.325 . S
C493 C487 1.404 . S
C493 C495 1.366 . S
C493 H501 0.930 . S
C494 N492 1.325 . S
C494 C495 1.416 . S
C494 H500 0.929 . S
C495 C493 1.366 . S
C495 C494 1.416 . S
C495 H497 0.930 . S
H496 C485 0.930 . S
H497 C495 0.930 . S
H498 C513 0.930 . S
H499 C520 0.930 . S
H500 C494 0.929 . S
H501 C493 0.930 . S
H502 C516 0.929 . S
H503 C483 0.931 . S
H504 C489 0.931 . S
H505 C490 0.931 . S
H506 C511 0.931 . S
H507 C486 0.929 . S
H508 C519 0.930 . S
N509 Eu480 2.600 . S
N509 C510 1.365 . S
N509 C513 1.319 . S
C510 N509 1.365 . S
C510 C512 1.405 . S
C510 C518 1.448 . S
C511 H506 0.931 . S
C511 C513 1.397 . S
C511 C514 1.367 . S
C512 C510 1.405 . S
C512 C514 1.403 . S
C512 C545 1.439 . S
C513 H498 0.930 . S
C513 N509 1.319 . S
C513 C511 1.397 . S
C514 C511 1.367 . S
C514 C512 1.403 . S
C514 H521 0.929 . S
N515 Eu480 2.562 . S
N515 C516 1.325 . S
N515 C518 1.351 . S
C516 H502 0.929 . S
C516 N515 1.325 . S
C516 C520 1.416 . S
C517 C518 1.430 . S
C517 C519 1.404 . S
C517 C546 1.387 . S
C518 C510 1.448 . S
C518 N515 1.351 . S
C518 C517 1.430 . S
C519 H508 0.930 . S
C519 C517 1.404 . S
C519 C520 1.366 . S
C520 H499 0.930 . S
C520 C516 1.416 . S
C520 C519 1.366 . S
H521 C514 0.929 . S
H522 C545 0.931 . S
H523 C546 0.931 . S
O524 Eu480 2.462 . S
O524 C544 1.252 . S
O525 Eu480 2.373 . S
O525 C536 1.249 . S
O526 Eu491 2.327 1_455 S
O526 C536 1.274 . S
O527 Eu480 2.432 . S
O527 C544 1.268 . S
O528 Eu480 2.291 . S
O528 C543 1.255 1_455 S
O529 Eu491 2.372 . S
O529 C543 1.257 . S
O530 Eu491 2.462 . S
O530 C555 1.252 . S
O531 Eu491 2.373 . S
O531 C547 1.249 . S
O532 Eu480 2.335 . S
O532 C547 1.264 1_455 S
O533 Eu491 2.432 . S
O533 C555 1.268 . S
O534 Eu491 2.291 1_455 S
O534 C554 1.255 . S
O535 Eu480 2.372 . S
O535 C554 1.257 . S
C536 O525 1.249 . S
C536 O526 1.274 . S
C537 C540 1.382 . S
C537 C542 1.390 . S
C537 C544 1.506 . S
C538 C539 1.398 . S
C538 C542 1.392 . S
C539 C538 1.398 . S
C539 C541 1.372 . S
C539 H556 0.931 . S
C540 C537 1.382 . S
C540 C541 1.390 . S
C540 H557 0.931 . S
C541 C539 1.372 . S
C541 C540 1.390 . S
C541 H558 0.929 . S
C542 C537 1.390 . S
C542 C538 1.392 . S
C542 H559 0.930 . S
C543 O528 1.255 1_655 S
C543 O529 1.257 . S
C544 Eu480 2.787 . S
C544 O524 1.252 . S
C544 O527 1.268 . S
C544 C537 1.506 . S
C545 C512 1.439 . S
C545 H522 0.931 . S
C545 C546 1.374 . S
C546 C517 1.387 . S
C546 H523 0.931 . S
C546 C545 1.374 . S
C547 O531 1.249 . S
C547 O532 1.264 1_655 S
C548 C551 1.382 . S
C548 C552 1.390 . S
C548 C555 1.506 . S
C549 C550 1.398 . S
C549 C552 1.392 . S
C550 C549 1.398 . S
C550 C553 1.372 . S
C550 H560 0.931 . S
C551 C548 1.382 . S
C551 C553 1.390 . S
C551 H561 0.931 . S
C552 C548 1.390 . S
C552 C549 1.392 . S
C552 H562 0.930 . S
C553 C550 1.372 . S
C553 C551 1.390 . S
C553 H563 0.929 . S
C554 O534 1.255 . S
C554 O535 1.257 . S
C555 Eu491 2.787 . S
C555 O530 1.252 . S
C555 O533 1.268 . S
C555 C548 1.506 . S
H556 C539 0.931 . S
H557 C540 0.931 . S
H558 C541 0.929 . S
H559 C542 0.930 . S
H560 C550 0.931 . S
H561 C551 0.931 . S
H562 C552 0.930 . S
H563 C553 0.929 . S
Eu564 N593 2.600 . S
Eu564 N599 2.562 . S
Eu564 O608 2.462 . S
Eu564 O609 2.373 . S
Eu564 O611 2.432 . S
Eu564 O612 2.291 . S
Eu564 O616 2.335 . S
Eu564 O619 2.372 . S
Eu564 C628 2.787 . S
C565 N566 1.365 . S
C565 C568 1.405 . S
C565 C572 1.448 . S
N566 C565 1.365 . S
N566 C569 1.319 . S
N566 Eu575 2.600 . S
C567 C569 1.397 . S
C567 C570 1.367 . S
C567 H587 0.931 . S
C568 C565 1.405 . S
C568 C570 1.403 . S
C568 C574 1.439 . S
C569 N566 1.319 . S
C569 C567 1.397 . S
C569 H580 0.930 . S
C570 C567 1.367 . S
C570 C568 1.403 . S
C570 H591 0.929 . S
C571 C572 1.430 . S
C571 C573 1.387 . S
C571 C577 1.404 . S
C572 C565 1.448 . S
C572 C571 1.430 . S
C572 N576 1.351 . S
C573 C571 1.387 . S
C573 C574 1.374 . S
C573 H588 0.931 . S
C574 C568 1.439 . S
C574 C573 1.374 . S
C574 H589 0.931 . S
Eu575 N566 2.600 . S
Eu575 N576 2.562 . S
Eu575 O610 2.335 . S
Eu575 O613 2.372 . S
Eu575 O614 2.462 . S
Eu575 O615 2.373 . S
Eu575 O617 2.432 . S
Eu575 O618 2.291 . S
Eu575 C639 2.787 . S
N576 C572 1.351 . S
N576 Eu575 2.562 . S
N576 C578 1.325 . S
C577 C571 1.404 . S
C577 C579 1.366 . S
C577 H585 0.930 . S
C578 N576 1.325 . S
C578 C579 1.416 . S
C578 H584 0.929 . S
C579 C577 1.366 . S
C579 C578 1.416 . S
C579 H581 0.930 . S
H580 C569 0.930 . S
H581 C579 0.930 . S
H582 C597 0.930 . S
H583 C604 0.930 . S
H584 C578 0.929 . S
H585 C577 0.930 . S
H586 C600 0.929 . S
H587 C567 0.931 . S
H588 C573 0.931 . S
H589 C574 0.931 . S
H590 C595 0.931 . S
H591 C570 0.929 . S
H592 C603 0.930 . S
N593 Eu564 2.600 . S
N593 C594 1.365 . S
N593 C597 1.319 . S
C594 N593 1.365 . S
C594 C596 1.405 . S
C594 C602 1.448 . S
C595 H590 0.931 . S
C595 C597 1.397 . S
C595 C598 1.367 . S
C596 C594 1.405 . S
C596 C598 1.403 . S
C596 C629 1.439 . S
C597 H582 0.930 . S
C597 N593 1.319 . S
C597 C595 1.397 . S
C598 C595 1.367 . S
C598 C596 1.403 . S
C598 H605 0.929 . S
N599 Eu564 2.562 . S
N599 C600 1.325 . S
N599 C602 1.351 . S
C600 H586 0.929 . S
C600 N599 1.325 . S
C600 C604 1.416 . S
C601 C602 1.430 . S
C601 C603 1.404 . S
C601 C630 1.387 . S
C602 C594 1.448 . S
C602 N599 1.351 . S
C602 C601 1.430 . S
C603 H592 0.930 . S
C603 C601 1.404 . S
C603 C604 1.366 . S
C604 H583 0.930 . S
C604 C600 1.416 . S
C604 C603 1.366 . S
H605 C598 0.929 . S
H606 C629 0.931 . S
H607 C630 0.931 . S
O608 Eu564 2.462 . S
O608 C628 1.252 . S
O609 Eu564 2.373 . S
O609 C620 1.249 . S
O610 Eu575 2.335 . S
O610 C620 1.264 . S
O611 Eu564 2.432 . S
O611 C628 1.268 . S
O612 Eu564 2.291 . S
O612 C627 1.255 . S
O613 Eu575 2.372 . S
O613 C627 1.257 . S
O614 Eu575 2.462 . S
O614 C639 1.252 . S
O615 Eu575 2.373 . S
O615 C631 1.249 . S
O616 Eu564 2.335 . S
O616 C631 1.264 . S
O617 Eu575 2.432 . S
O617 C639 1.268 . S
O618 Eu575 2.291 . S
O618 C638 1.255 . S
O619 Eu564 2.372 . S
O619 C638 1.257 . S
C620 O609 1.249 . S
C620 O610 1.264 . S
C621 C624 1.382 . S
C621 C626 1.390 . S
C621 C628 1.506 . S
C622 C623 1.398 . S
C622 C626 1.392 . S
C623 C622 1.398 . S
C623 C625 1.372 . S
C623 H640 0.931 . S
C624 C621 1.382 . S
C624 C625 1.390 . S
C624 H641 0.931 . S
C625 C623 1.372 . S
C625 C624 1.390 . S
C625 H642 0.929 . S
C626 C621 1.390 . S
C626 C622 1.392 . S
C626 H643 0.930 . S
C627 O612 1.255 . S
C627 O613 1.257 . S
C628 Eu564 2.787 . S
C628 O608 1.252 . S
C628 O611 1.268 . S
C628 C621 1.506 . S
C629 C596 1.439 . S
C629 H606 0.931 . S
C629 C630 1.374 . S
C630 C601 1.387 . S
C630 H607 0.931 . S
C630 C629 1.374 . S
C631 O615 1.249 . S
C631 O616 1.264 . S
C632 C635 1.382 . S
C632 C636 1.390 . S
C632 C639 1.506 . S
C633 C634 1.398 . S
C633 C636 1.392 . S
C634 C633 1.398 . S
C634 C637 1.372 . S
C634 H644 0.931 . S
C635 C632 1.382 . S
C635 C637 1.390 . S
C635 H645 0.931 . S
C636 C632 1.390 . S
C636 C633 1.392 . S
C636 H646 0.930 . S
C637 C634 1.372 . S
C637 C635 1.390 . S
C637 H647 0.929 . S
C638 O618 1.255 . S
C638 O619 1.257 . S
C639 Eu575 2.787 . S
C639 O614 1.252 . S
C639 O617 1.268 . S
C639 C632 1.506 . S
H640 C623 0.931 . S
H641 C624 0.931 . S
H642 C625 0.929 . S
H643 C626 0.930 . S
H644 C634 0.931 . S
H645 C635 0.931 . S
H646 C636 0.930 . S
H647 C637 0.929 . S
Eu648 N677 2.600 . S
Eu648 N683 2.562 . S
Eu648 O692 2.462 . S
Eu648 O693 2.373 . S
Eu648 O695 2.432 . S
Eu648 O696 2.291 . S
Eu648 O700 2.335 . S
Eu648 O703 2.372 . S
Eu648 C712 2.787 . S
C649 N650 1.365 . S
C649 C652 1.405 . S
C649 C656 1.448 . S
N650 C649 1.365 . S
N650 C653 1.319 . S
N650 Eu659 2.600 . S
C651 C653 1.397 . S
C651 C654 1.367 . S
C651 H671 0.931 . S
C652 C649 1.405 . S
C652 C654 1.403 . S
C652 C658 1.439 . S
C653 N650 1.319 . S
C653 C651 1.397 . S
C653 H664 0.930 . S
C654 C651 1.367 . S
C654 C652 1.403 . S
C654 H675 0.929 . S
C655 C656 1.430 . S
C655 C657 1.387 . S
C655 C661 1.404 . S
C656 C649 1.448 . S
C656 C655 1.430 . S
C656 N660 1.351 . S
C657 C655 1.387 . S
C657 C658 1.374 . S
C657 H672 0.931 . S
C658 C652 1.439 . S
C658 C657 1.374 . S
C658 H673 0.931 . S
Eu659 N650 2.600 . S
Eu659 N660 2.562 . S
Eu659 O694 2.335 1_655 S
Eu659 O697 2.372 . S
Eu659 O698 2.462 . S
Eu659 O699 2.373 . S
Eu659 O701 2.432 . S
Eu659 O702 2.291 1_655 S
Eu659 C723 2.787 . S
N660 C656 1.351 . S
N660 Eu659 2.562 . S
N660 C662 1.325 . S
C661 C655 1.404 . S
C661 C663 1.366 . S
C661 H669 0.930 . S
C662 N660 1.325 . S
C662 C663 1.416 . S
C662 H668 0.929 . S
C663 C661 1.366 . S
C663 C662 1.416 . S
C663 H665 0.930 . S
H664 C653 0.930 . S
H665 C663 0.930 . S
H666 C681 0.930 . S
H667 C688 0.930 . S
H668 C662 0.929 . S
H669 C661 0.930 . S
H670 C684 0.929 . S
H671 C651 0.931 . S
H672 C657 0.931 . S
H673 C658 0.931 . S
H674 C679 0.931 . S
H675 C654 0.929 . S
H676 C687 0.930 . S
N677 Eu648 2.600 . S
N677 C678 1.365 . S
N677 C681 1.319 . S
C678 N677 1.365 . S
C678 C680 1.405 . S
C678 C686 1.448 . S
C679 H674 0.931 . S
C679 C681 1.397 . S
C679 C682 1.367 . S
C680 C678 1.405 . S
C680 C682 1.403 . S
C680 C713 1.439 . S
C681 H666 0.930 . S
C681 N677 1.319 . S
C681 C679 1.397 . S
C682 C679 1.367 . S
C682 C680 1.403 . S
C682 H689 0.929 . S
N683 Eu648 2.562 . S
N683 C684 1.325 . S
N683 C686 1.351 . S
C684 H670 0.929 . S
C684 N683 1.325 . S
C684 C688 1.416 . S
C685 C686 1.430 . S
C685 C687 1.404 . S
C685 C714 1.387 . S
C686 C678 1.448 . S
C686 N683 1.351 . S
C686 C685 1.430 . S
C687 H676 0.930 . S
C687 C685 1.404 . S
C687 C688 1.366 . S
C688 H667 0.930 . S
C688 C684 1.416 . S
C688 C687 1.366 . S
H689 C682 0.929 . S
H690 C713 0.931 . S
H691 C714 0.931 . S
O692 Eu648 2.462 . S
O692 C712 1.252 . S
O693 Eu648 2.373 . S
O693 C704 1.249 . S
O694 Eu659 2.335 1_455 S
O694 C704 1.264 . S
O695 Eu648 2.432 . S
O695 C712 1.268 . S
O696 Eu648 2.291 . S
O696 C711 1.255 1_455 S
O697 Eu659 2.372 . S
O697 C711 1.257 . S
O698 Eu659 2.462 . S
O698 C723 1.252 . S
O699 Eu659 2.373 . S
O699 C715 1.249 . S
O700 Eu648 2.335 . S
O700 C715 1.264 1_455 S
O701 Eu659 2.432 . S
O701 C723 1.268 . S
O702 Eu659 2.291 1_455 S
O702 C722 1.255 . S
O703 Eu648 2.372 . S
O703 C722 1.257 . S
C704 O693 1.249 . S
C704 O694 1.264 . S
C705 C708 1.382 . S
C705 C710 1.390 . S
C705 C712 1.506 . S
C706 C707 1.398 . S
C706 C710 1.392 . S
C707 C706 1.398 . S
C707 C709 1.372 . S
C707 H724 0.931 . S
C708 C705 1.382 . S
C708 C709 1.390 . S
C708 H725 0.931 . S
C709 C707 1.372 . S
C709 C708 1.390 . S
C709 H726 0.929 . S
C710 C705 1.390 . S
C710 C706 1.392 . S
C710 H727 0.930 . S
C711 O696 1.255 1_655 S
C711 O697 1.257 . S
C712 Eu648 2.787 . S
C712 O692 1.252 . S
C712 O695 1.268 . S
C712 C705 1.506 . S
C713 C680 1.439 . S
C713 H690 0.931 . S
C713 C714 1.374 . S
C714 C685 1.387 . S
C714 H691 0.931 . S
C714 C713 1.374 . S
C715 O699 1.249 . S
C715 O700 1.264 1_655 S
C716 C719 1.382 . S
C716 C720 1.390 . S
C716 C723 1.506 . S
C717 C718 1.398 . S
C717 C720 1.392 . S
C718 C717 1.398 . S
C718 C721 1.372 . S
C718 H728 0.931 . S
C719 C716 1.382 . S
C719 C721 1.390 . S
C719 H729 0.931 . S
C720 C716 1.390 . S
C720 C717 1.392 . S
C720 H730 0.930 . S
C721 C718 1.372 . S
C721 C719 1.390 . S
C721 H731 0.929 . S
C722 O702 1.255 . S
C722 O703 1.257 . S
C723 Eu659 2.787 . S
C723 O698 1.252 . S
C723 O701 1.268 . S
C723 C716 1.506 . S
H724 C707 0.931 . S
H725 C708 0.931 . S
H726 C709 0.929 . S
H727 C710 0.930 . S
H728 C718 0.931 . S
H729 C719 0.931 . S
H730 C720 0.930 . S
H731 C721 0.929 . S
Eu732 N761 2.600 . S
Eu732 N767 2.562 . S
Eu732 O776 2.462 . S
Eu732 O777 2.373 . S
Eu732 O779 2.432 . S
Eu732 O780 2.291 . S
Eu732 O784 2.335 . S
Eu732 O787 2.372 . S
Eu732 C796 2.787 . S
C733 N734 1.365 . S
C733 C736 1.405 . S
C733 C740 1.448 . S
N734 C733 1.365 . S
N734 C737 1.319 . S
N734 Eu743 2.600 . S
C735 C737 1.397 . S
C735 C738 1.367 . S
C735 H755 0.931 . S
C736 C733 1.405 . S
C736 C738 1.403 . S
C736 C742 1.439 . S
C737 N734 1.319 . S
C737 C735 1.397 . S
C737 H748 0.930 . S
C738 C735 1.367 . S
C738 C736 1.403 . S
C738 H759 0.929 . S
C739 C740 1.430 . S
C739 C741 1.387 . S
C739 C745 1.404 . S
C740 C733 1.448 . S
C740 C739 1.430 . S
C740 N744 1.351 . S
C741 C739 1.387 . S
C741 C742 1.374 . S
C741 H756 0.931 . S
C742 C736 1.439 . S
C742 C741 1.374 . S
C742 H757 0.931 . S
Eu743 N734 2.600 . S
Eu743 N744 2.562 . S
Eu743 O778 2.335 . S
Eu743 O781 2.372 . S
Eu743 O782 2.462 . S
Eu743 O783 2.373 . S
Eu743 O785 2.432 . S
Eu743 O786 2.291 . S
Eu743 C807 2.787 . S
N744 C740 1.351 . S
N744 Eu743 2.562 . S
N744 C746 1.325 . S
C745 C739 1.404 . S
C745 C747 1.366 . S
C745 H753 0.930 . S
C746 N744 1.325 . S
C746 C747 1.416 . S
C746 H752 0.929 . S
C747 C745 1.366 . S
C747 C746 1.416 . S
C747 H749 0.930 . S
H748 C737 0.930 . S
H749 C747 0.930 . S
H750 C765 0.930 . S
H751 C772 0.930 . S
H752 C746 0.929 . S
H753 C745 0.930 . S
H754 C768 0.929 . S
H755 C735 0.931 . S
H756 C741 0.931 . S
H757 C742 0.931 . S
H758 C763 0.931 . S
H759 C738 0.929 . S
H760 C771 0.930 . S
N761 Eu732 2.600 . S
N761 C762 1.365 . S
N761 C765 1.319 . S
C762 N761 1.365 . S
C762 C764 1.405 . S
C762 C770 1.448 . S
C763 H758 0.931 . S
C763 C765 1.397 . S
C763 C766 1.367 . S
C764 C762 1.405 . S
C764 C766 1.403 . S
C764 C797 1.439 . S
C765 H750 0.930 . S
C765 N761 1.319 . S
C765 C763 1.397 . S
C766 C763 1.367 . S
C766 C764 1.403 . S
C766 H773 0.929 . S
N767 Eu732 2.562 . S
N767 C768 1.325 . S
N767 C770 1.351 . S
C768 H754 0.929 . S
C768 N767 1.325 . S
C768 C772 1.416 . S
C769 C770 1.430 . S
C769 C771 1.404 . S
C769 C798 1.387 . S
C770 C762 1.448 . S
C770 N767 1.351 . S
C770 C769 1.430 . S
C771 H760 0.930 . S
C771 C769 1.404 . S
C771 C772 1.366 . S
C772 H751 0.930 . S
C772 C768 1.416 . S
C772 C771 1.366 . S
H773 C766 0.929 . S
H774 C797 0.931 . S
H775 C798 0.931 . S
O776 Eu732 2.462 . S
O776 C796 1.252 . S
O777 Eu732 2.373 . S
O777 C788 1.249 . S
O778 Eu743 2.335 . S
O778 C788 1.264 . S
O779 Eu732 2.432 . S
O779 C796 1.268 . S
O780 Eu732 2.291 . S
O780 C795 1.255 . S
O781 Eu743 2.372 . S
O781 C795 1.257 . S
O782 Eu743 2.462 . S
O782 C807 1.252 . S
O783 Eu743 2.373 . S
O783 C799 1.249 . S
O784 Eu732 2.335 . S
O784 C799 1.264 . S
O785 Eu743 2.432 . S
O785 C807 1.268 . S
O786 Eu743 2.291 . S
O786 C806 1.255 . S
O787 Eu732 2.372 . S
O787 C806 1.257 . S
C788 O777 1.249 . S
C788 O778 1.264 . S
C789 C792 1.382 . S
C789 C794 1.390 . S
C789 C796 1.506 . S
C790 C791 1.398 . S
C790 C794 1.392 . S
C791 C790 1.398 . S
C791 C793 1.372 . S
C791 H808 0.931 . S
C792 C789 1.382 . S
C792 C793 1.390 . S
C792 H809 0.931 . S
C793 C791 1.372 . S
C793 C792 1.390 . S
C793 H810 0.929 . S
C794 C789 1.390 . S
C794 C790 1.392 . S
C794 H811 0.930 . S
C795 O780 1.255 . S
C795 O781 1.257 . S
C796 Eu732 2.787 . S
C796 O776 1.252 . S
C796 O779 1.268 . S
C796 C789 1.506 . S
C797 C764 1.439 . S
C797 H774 0.931 . S
C797 C798 1.374 . S
C798 C769 1.387 . S
C798 H775 0.931 . S
C798 C797 1.374 . S
C799 O783 1.249 . S
C799 O784 1.264 . S
C800 C803 1.382 . S
C800 C804 1.390 . S
C800 C807 1.506 . S
C801 C802 1.398 . S
C801 C804 1.392 . S
C802 C801 1.398 . S
C802 C805 1.372 . S
C802 H812 0.931 . S
C803 C800 1.382 . S
C803 C805 1.390 . S
C803 H813 0.931 . S
C804 C800 1.390 . S
C804 C801 1.392 . S
C804 H814 0.930 . S
C805 C802 1.372 . S
C805 C803 1.390 . S
C805 H815 0.929 . S
C806 O786 1.255 . S
C806 O787 1.257 . S
C807 Eu743 2.787 . S
C807 O782 1.252 . S
C807 O785 1.268 . S
C807 C800 1.506 . S
H808 C791 0.931 . S
H809 C792 0.931 . S
H810 C793 0.929 . S
H811 C794 0.930 . S
H812 C802 0.931 . S
H813 C803 0.931 . S
H814 C804 0.930 . S
H815 C805 0.929 . S
H816 C822 0.930 . S
H817 C826 0.930 . S
H818 C831 0.929 . S
H819 C829 0.929 . S
H820 C824 0.929 . S
H821 C830 0.929 . S
C822 H816 0.930 . S
C822 C823 1.367 1_545 S
C822 C830 1.378 . S
C823 C822 1.367 1_565 S
C823 C831 1.433 . S
C824 H820 0.929 . S
C824 C826 1.378 . S
C824 C828 1.350 . S
C825 C828 1.463 . S
C825 C830 1.350 . S
C825 N833 1.427 . S
C826 H817 0.930 . S
C826 C824 1.378 . S
C826 C827 1.367 . S
C827 C826 1.367 . S
C827 C829 1.433 . S
C828 C824 1.350 . S
C828 C825 1.463 . S
C828 N832 1.427 . S
C829 H819 0.929 . S
C829 C827 1.433 . S
C829 N832 1.384 . S
C830 H821 0.929 . S
C830 C822 1.378 . S
C830 C825 1.350 . S
C831 H818 0.929 . S
C831 C823 1.433 . S
C831 N833 1.384 1_565 S
N832 C828 1.427 . S
N832 C829 1.384 . S
N833 C825 1.427 . S
N833 C831 1.384 1_545 S
H834 C840 0.930 . S
H835 C844 0.930 . S
H836 C849 0.929 . S
H837 C847 0.929 . S
H838 C842 0.929 . S
H839 C848 0.929 . S
C840 H834 0.930 . S
C840 C841 1.367 . S
C840 C848 1.378 . S
C841 C840 1.367 . S
C841 C849 1.433 . S
C842 H838 0.929 . S
C842 C844 1.378 . S
C842 C846 1.350 . S
C843 C846 1.463 . S
C843 C848 1.350 . S
C843 N851 1.427 . S
C844 H835 0.930 . S
C844 C842 1.378 . S
C844 C845 1.367 . S
C845 C844 1.367 . S
C845 C847 1.433 . S
C846 C842 1.350 . S
C846 C843 1.463 . S
C846 N850 1.427 . S
C847 H837 0.929 . S
C847 C845 1.433 . S
C847 N850 1.384 . S
C848 H839 0.929 . S
C848 C840 1.378 . S
C848 C843 1.350 . S
C849 H836 0.929 . S
C849 C841 1.433 . S
C849 N851 1.384 . S
N850 C846 1.427 . S
N850 C847 1.384 . S
N851 C843 1.427 . S
N851 C849 1.384 . S
H852 C858 0.930 . S
H853 C862 0.930 . S
H854 C867 0.929 . S
H855 C865 0.929 . S
H856 C860 0.929 . S
H857 C866 0.929 . S
C858 H852 0.930 . S
C858 C859 1.367 . S
C858 C866 1.378 . S
C859 C858 1.367 . S
C859 C867 1.433 . S
C860 H856 0.929 . S
C860 C862 1.378 . S
C860 C864 1.350 . S
C861 C864 1.463 . S
C861 C866 1.350 . S
C861 N869 1.427 . S
C862 H853 0.930 . S
C862 C860 1.378 . S
C862 C863 1.367 . S
C863 C862 1.367 . S
C863 C865 1.433 . S
C864 C860 1.350 . S
C864 C861 1.463 . S
C864 N868 1.427 . S
C865 H855 0.929 . S
C865 C863 1.433 . S
C865 N868 1.384 . S
C866 H857 0.929 . S
C866 C858 1.378 . S
C866 C861 1.350 . S
C867 H854 0.929 . S
C867 C859 1.433 . S
C867 N869 1.384 . S
N868 C864 1.427 . S
N868 C865 1.384 . S
N869 C861 1.427 . S
N869 C867 1.384 . S
H870 C876 0.918 1_565 S
H871 C880 0.930 . S
H872 C885 0.929 1_565 S
H873 C883 0.929 . S
H874 C878 0.929 . S
H875 C884 0.929 . S
C876 H870 0.918 1_545 S
C876 C877 1.355 1_545 S
C876 C884 1.404 . S
C877 C876 1.355 1_565 S
C877 C885 1.433 1_565 S
C878 H874 0.929 . S
C878 C880 1.378 . S
C878 C882 1.350 . S
C879 C882 1.463 . S
C879 C884 1.350 . S
C879 N887 1.427 . S
C880 H871 0.930 . S
C880 C878 1.378 . S
C880 C881 1.367 . S
C881 C880 1.367 . S
C881 C883 1.433 . S
C882 C878 1.350 . S
C882 C879 1.463 . S
C882 N886 1.427 . S
C883 H873 0.929 . S
C883 C881 1.433 . S
C883 N886 1.384 . S
C884 H875 0.929 . S
C884 C876 1.404 . S
C884 C879 1.350 . S
C885 H872 0.929 1_545 S
C885 C877 1.433 1_545 S
C885 N887 1.384 . S
N886 C882 1.427 . S
N886 C883 1.384 . S
N887 C879 1.427 . S
N887 C885 1.384 . S
H888 C894 0.930 . S
H889 C898 0.930 . S
H890 C903 0.935 . S
H891 C901 0.929 1_455 S
H892 C896 0.929 . S
H893 C902 0.929 . S
C894 H888 0.930 . S
C894 C895 1.367 . S
C894 C902 1.378 1_545 S
C895 C894 1.367 . S
C895 C903 1.433 1_545 S
C896 H892 0.929 . S
C896 C898 1.378 . S
C896 C900 1.350 . S
C897 C900 1.463 . S
C897 C902 1.350 . S
C897 N905 1.427 . S
C898 H889 0.930 . S
C898 C896 1.378 . S
C898 C899 1.367 . S
C899 C898 1.367 . S
C899 C901 1.433 . S
C900 C896 1.350 . S
C900 C897 1.463 . S
C900 N904 1.427 . S
C901 H891 0.929 1_655 S
C901 C899 1.433 . S
C901 N904 1.384 . S
C902 H893 0.929 . S
C902 C894 1.378 1_565 S
C902 C897 1.350 . S
C903 H890 0.935 . S
C903 C895 1.433 1_565 S
C903 N905 1.384 . S
N904 C900 1.427 . S
N904 C901 1.384 . S
N905 C897 1.427 . S
N905 C903 1.384 . S
H906 C912 0.930 . S
H907 C916 0.930 . S
H908 C921 0.929 . S
H909 C919 0.929 . S
H910 C914 0.929 . S
H911 C920 0.929 . S
C912 H906 0.930 . S
C912 C913 1.367 . S
C912 C920 1.378 . S
C913 C912 1.367 . S
C913 C921 1.433 . S
C914 H910 0.929 . S
C914 C916 1.378 . S
C914 C918 1.350 . S
C915 C918 1.463 . S
C915 C920 1.350 . S
C915 N923 1.427 . S
C916 H907 0.930 . S
C916 C914 1.378 . S
C916 C917 1.367 . S
C917 C916 1.367 . S
C917 C919 1.433 . S
C918 C914 1.350 . S
C918 C915 1.463 . S
C918 N922 1.427 . S
C919 H909 0.929 . S
C919 C917 1.433 . S
C919 N922 1.384 . S
C920 H911 0.929 . S
C920 C912 1.378 . S
C920 C915 1.350 . S
C921 H908 0.929 . S
C921 C913 1.433 . S
C921 N923 1.384 . S
N922 C918 1.427 . S
N922 C919 1.384 . S
N923 C915 1.427 . S
N923 C921 1.384 . S
H924 C930 0.930 . S
H925 C934 0.930 . S
H926 C939 0.929 . S
H927 C937 0.929 . S
H928 C932 0.929 . S
H929 C938 0.929 . S
C930 H924 0.930 . S
C930 C931 1.367 . S
C930 C938 1.378 . S
C931 C930 1.367 . S
C931 C939 1.433 . S
C932 H928 0.929 . S
C932 C934 1.378 . S
C932 C936 1.350 . S
C933 C936 1.463 . S
C933 C938 1.350 . S
C933 N941 1.427 . S
C934 H925 0.930 . S
C934 C932 1.378 . S
C934 C935 1.367 . S
C935 C934 1.367 . S
C935 C937 1.433 . S
C936 C932 1.350 . S
C936 C933 1.463 . S
C936 N940 1.427 . S
C937 H927 0.929 . S
C937 C935 1.433 . S
C937 N940 1.384 . S
C938 H929 0.929 . S
C938 C930 1.378 . S
C938 C933 1.350 . S
C939 H926 0.929 . S
C939 C931 1.433 . S
C939 N941 1.384 . S
N940 C936 1.427 . S
N940 C937 1.384 . S
N941 C933 1.427 . S
N941 C939 1.384 . S
H942 C948 0.930 . S
H943 C952 0.930 . S
H944 C957 0.929 . S
H945 C955 0.929 . S
H946 C950 0.929 . S
H947 C956 0.929 1_545 S
C948 H942 0.930 . S
C948 C949 1.367 . S
C948 C956 1.378 1_545 S
C949 C948 1.367 . S
C949 C957 1.433 1_545 S
C950 H946 0.929 . S
C950 C952 1.378 . S
C950 C954 1.350 . S
C951 C954 1.463 . S
C951 C956 1.350 . S
C951 N959 1.427 . S
C952 H943 0.930 . S
C952 C950 1.378 . S
C952 C953 1.367 . S
C953 C952 1.367 . S
C953 C955 1.433 . S
C954 C950 1.350 . S
C954 C951 1.463 . S
C954 N958 1.427 . S
C955 H945 0.929 . S
C955 C953 1.433 . S
C955 N958 1.384 . S
C956 H947 0.929 1_565 S
C956 C948 1.378 1_565 S
C956 C951 1.350 . S
C957 H944 0.929 . S
C957 C949 1.433 1_565 S
C957 N959 1.384 . S
N958 C954 1.427 . S
N958 C955 1.384 . S
N959 C951 1.427 . S
N959 C957 1.384 . S
H960 C966 0.930 . S
H961 C970 0.930 . S
H962 C975 0.929 . S
H963 C973 0.929 . S
H964 C968 0.929 . S
H965 C974 0.929 . S
C966 H960 0.930 . S
C966 C967 1.367 . S
C966 C974 1.378 . S
C967 C966 1.367 . S
C967 C975 1.433 . S
C968 H964 0.929 . S
C968 C970 1.378 . S
C968 C972 1.350 . S
C969 C972 1.463 . S
C969 C974 1.350 . S
C969 N977 1.427 . S
C970 H961 0.930 . S
C970 C968 1.378 . S
C970 C971 1.367 . S
C971 C970 1.367 . S
C971 C973 1.433 . S
C972 C968 1.350 . S
C972 C969 1.463 . S
C972 N976 1.427 . S
C973 H963 0.929 . S
C973 C971 1.433 . S
C973 N976 1.384 . S
C974 H965 0.929 . S
C974 C966 1.378 . S
C974 C969 1.350 . S
C975 H962 0.929 . S
C975 C967 1.433 . S
C975 N977 1.384 . S
N976 C972 1.427 . S
N976 C973 1.384 . S
N977 C969 1.427 . S
N977 C975 1.384 . S
H978 C984 0.930 . S
H979 C988 0.930 . S
H980 C993 0.929 . S
H981 C991 0.929 . S
H982 C986 0.929 . S
H983 C992 0.929 . S
C984 H978 0.930 . S
C984 C985 1.367 . S
C984 C992 1.378 . S
C985 C984 1.367 . S
C985 C993 1.433 . S
C986 H982 0.929 . S
C986 C988 1.378 . S
C986 C990 1.350 . S
C987 C990 1.463 . S
C987 C992 1.350 . S
C987 N995 1.427 . S
C988 H979 0.930 . S
C988 C986 1.378 . S
C988 C989 1.367 . S
C989 C988 1.367 . S
C989 C991 1.433 . S
C990 C986 1.350 . S
C990 C987 1.463 . S
C990 N994 1.427 . S
C991 H981 0.929 . S
C991 C989 1.433 . S
C991 N994 1.384 . S
C992 H983 0.929 . S
C992 C984 1.378 . S
C992 C987 1.350 . S
C993 H980 0.929 . S
C993 C985 1.433 . S
C993 N995 1.384 . S
N994 C990 1.427 . S
N994 C991 1.384 . S
N995 C987 1.427 . S
N995 C993 1.384 . S
H996 C1002 0.930 . S
H997 C1006 0.930 . S
H998 C1011 0.929 . S
H999 C1009 0.929 . S
H1000 C1004 0.929 . S
H1001 C1010 0.929 . S
C1002 H996 0.930 . S
C1002 C1003 1.367 . S
C1002 C1010 1.378 . S
C1003 C1002 1.367 . S
C1003 C1011 1.433 . S
C1004 H1000 0.929 . S
C1004 C1006 1.378 . S
C1004 C1008 1.350 . S
C1005 C1008 1.463 . S
C1005 C1010 1.350 . S
C1005 N1013 1.427 . S
C1006 H997 0.930 . S
C1006 C1004 1.378 . S
C1006 C1007 1.367 . S
C1007 C1006 1.367 . S
C1007 C1009 1.433 . S
C1008 C1004 1.350 . S
C1008 C1005 1.463 . S
C1008 N1012 1.427 . S
C1009 H999 0.929 . S
C1009 C1007 1.433 . S
C1009 N1012 1.384 . S
C1010 H1001 0.929 . S
C1010 C1002 1.378 . S
C1010 C1005 1.350 . S
C1011 H998 0.929 . S
C1011 C1003 1.433 . S
C1011 N1013 1.384 . S
N1012 C1008 1.427 . S
N1012 C1009 1.384 . S
N1013 C1005 1.427 . S
N1013 C1011 1.384 . S
H1014 C1020 0.930 . S
H1015 C1024 0.930 . S
H1016 C1029 0.929 . S
H1017 C1027 0.929 . S
H1018 C1022 0.929 . S
H1019 C1028 0.929 . S
C1020 H1014 0.930 . S
C1020 C1021 1.367 . S
C1020 C1028 1.378 . S
C1021 C1020 1.367 . S
C1021 C1029 1.433 . S
C1022 H1018 0.929 . S
C1022 C1024 1.378 . S
C1022 C1026 1.350 . S
C1023 C1026 1.463 . S
C1023 C1028 1.350 . S
C1023 N1031 1.427 . S
C1024 H1015 0.930 . S
C1024 C1022 1.378 . S
C1024 C1025 1.367 . S
C1025 C1024 1.367 . S
C1025 C1027 1.433 . S
C1026 C1022 1.350 . S
C1026 C1023 1.463 . S
C1026 N1030 1.427 . S
C1027 H1017 0.929 . S
C1027 C1025 1.433 . S
C1027 N1030 1.384 . S
C1028 H1019 0.929 . S
C1028 C1020 1.378 . S
C1028 C1023 1.350 . S
C1029 H1016 0.929 . S
C1029 C1021 1.433 . S
C1029 N1031 1.384 . S
N1030 C1026 1.427 . S
N1030 C1027 1.384 . S
N1031 C1023 1.427 . S
N1031 C1029 1.384 . S
H1032 C1038 0.930 . S
H1033 C1042 0.930 . S
H1034 C1047 0.929 . S
H1035 C1045 0.929 . S
H1036 C1040 0.929 . S
H1037 C1046 0.929 . S
C1038 H1032 0.930 . S
C1038 C1039 1.367 . S
C1038 C1046 1.378 . S
C1039 C1038 1.367 . S
C1039 C1047 1.433 . S
C1040 H1036 0.929 . S
C1040 C1042 1.378 . S
C1040 C1044 1.350 . S
C1041 C1044 1.463 . S
C1041 C1046 1.350 . S
C1041 N1049 1.427 . S
C1042 H1033 0.930 . S
C1042 C1040 1.378 . S
C1042 C1043 1.367 . S
C1043 C1042 1.367 . S
C1043 C1045 1.433 . S
C1044 C1040 1.350 . S
C1044 C1041 1.463 . S
C1044 N1048 1.427 . S
C1045 H1035 0.929 . S
C1045 C1043 1.433 . S
C1045 N1048 1.384 . S
C1046 H1037 0.929 . S
C1046 C1038 1.378 . S
C1046 C1041 1.350 . S
C1047 H1034 0.929 . S
C1047 C1039 1.433 . S
C1047 N1049 1.384 . S
N1048 C1044 1.427 . S
N1048 C1045 1.384 . S
N1049 C1041 1.427 . S
N1049 C1047 1.384 . S
H1050 C1056 0.930 . S
H1051 C1060 0.930 . S
H1052 C1065 0.929 . S
H1053 C1063 0.929 . S
H1054 C1058 0.929 . S
H1055 C1064 0.929 . S
C1056 H1050 0.930 . S
C1056 C1057 1.367 . S
C1056 C1064 1.378 . S
C1057 C1056 1.367 . S
C1057 C1065 1.433 . S
C1058 H1054 0.929 . S
C1058 C1060 1.378 . S
C1058 C1062 1.350 . S
C1059 C1062 1.463 . S
C1059 C1064 1.350 . S
C1059 N1067 1.427 . S
C1060 H1051 0.930 . S
C1060 C1058 1.378 . S
C1060 C1061 1.367 . S
C1061 C1060 1.367 . S
C1061 C1063 1.433 . S
C1062 C1058 1.350 . S
C1062 C1059 1.463 . S
C1062 N1066 1.427 . S
C1063 H1053 0.929 . S
C1063 C1061 1.433 . S
C1063 N1066 1.384 . S
C1064 H1055 0.929 . S
C1064 C1056 1.378 . S
C1064 C1059 1.350 . S
C1065 H1052 0.929 . S
C1065 C1057 1.433 . S
C1065 N1067 1.384 . S
N1066 C1062 1.427 . S
N1066 C1063 1.384 . S
N1067 C1059 1.427 . S
N1067 C1065 1.384 . S
H1068 C1074 0.930 . S
H1069 C1078 0.930 . S
H1070 C1083 0.929 . S
H1071 C1081 0.929 . S
H1072 C1076 0.929 . S
H1073 C1082 0.929 . S
C1074 H1068 0.930 . S
C1074 C1075 1.367 . S
C1074 C1082 1.378 . S
C1075 C1074 1.367 . S
C1075 C1083 1.433 . S
C1076 H1072 0.929 . S
C1076 C1078 1.378 . S
C1076 C1080 1.350 . S
C1077 C1080 1.463 . S
C1077 C1082 1.350 . S
C1077 N1085 1.427 . S
C1078 H1069 0.930 . S
C1078 C1076 1.378 . S
C1078 C1079 1.367 . S
C1079 C1078 1.367 . S
C1079 C1081 1.433 . S
C1080 C1076 1.350 . S
C1080 C1077 1.463 . S
C1080 N1084 1.427 . S
C1081 H1071 0.929 . S
C1081 C1079 1.433 . S
C1081 N1084 1.384 . S
C1082 H1073 0.929 . S
C1082 C1074 1.378 . S
C1082 C1077 1.350 . S
C1083 H1070 0.929 . S
C1083 C1075 1.433 . S
C1083 N1085 1.384 . S
N1084 C1080 1.427 . S
N1084 C1081 1.384 . S
N1085 C1077 1.427 . S
N1085 C1083 1.384 . S
H1086 C1092 0.930 . S
H1087 C1096 0.930 . S
H1088 C1101 0.929 . S
H1089 C1099 0.929 . S
H1090 C1094 0.929 . S
H1091 C1100 0.929 . S
C1092 H1086 0.930 . S
C1092 C1093 1.367 . S
C1092 C1100 1.378 . S
C1093 C1092 1.367 . S
C1093 C1101 1.433 . S
C1094 H1090 0.929 . S
C1094 C1096 1.378 . S
C1094 C1098 1.350 . S
C1095 C1098 1.463 . S
C1095 C1100 1.350 . S
C1095 N1103 1.427 . S
C1096 H1087 0.930 . S
C1096 C1094 1.378 . S
C1096 C1097 1.367 . S
C1097 C1096 1.367 . S
C1097 C1099 1.433 . S
C1098 C1094 1.350 . S
C1098 C1095 1.463 . S
C1098 N1102 1.427 . S
C1099 H1089 0.929 . S
C1099 C1097 1.433 . S
C1099 N1102 1.384 . S
C1100 H1091 0.929 . S
C1100 C1092 1.378 . S
C1100 C1095 1.350 . S
C1101 H1088 0.929 . S
C1101 C1093 1.433 . S
C1101 N1103 1.384 . S
N1102 C1098 1.427 . S
N1102 C1099 1.384 . S
N1103 C1095 1.427 . S
N1103 C1101 1.384 . S
H1104 C1110 0.930 . S
H1105 C1114 0.930 . S
H1106 C1119 0.929 . S
H1107 C1117 0.929 . S
H1108 C1112 0.929 . S
H1109 C1118 0.929 . S
C1110 H1104 0.930 . S
C1110 C1111 1.367 . S
C1110 C1118 1.378 . S
C1111 C1110 1.367 . S
C1111 C1119 1.433 . S
C1112 H1108 0.929 . S
C1112 C1114 1.378 . S
C1112 C1116 1.350 . S
C1113 C1116 1.463 . S
C1113 C1118 1.350 . S
C1113 N1121 1.427 . S
C1114 H1105 0.930 . S
C1114 C1112 1.378 . S
C1114 C1115 1.367 . S
C1115 C1114 1.367 . S
C1115 C1117 1.433 . S
C1116 C1112 1.350 . S
C1116 C1113 1.463 . S
C1116 N1120 1.427 . S
C1117 H1107 0.929 . S
C1117 C1115 1.433 . S
C1117 N1120 1.384 . S
C1118 H1109 0.929 . S
C1118 C1110 1.378 . S
C1118 C1113 1.350 . S
C1119 H1106 0.929 . S
C1119 C1111 1.433 . S
C1119 N1121 1.384 . S
N1120 C1116 1.427 . S
N1120 C1117 1.384 . S
N1121 C1113 1.427 . S
N1121 C1119 1.384 . S
H1122 C1128 0.930 . S
H1123 C1132 0.930 . S
H1124 C1137 0.929 . S
H1125 C1135 0.929 . S
H1126 C1130 0.929 . S
H1127 C1136 0.929 . S
C1128 H1122 0.930 . S
C1128 C1129 1.367 . S
C1128 C1136 1.378 . S
C1129 C1128 1.367 . S
C1129 C1137 1.433 . S
C1130 H1126 0.929 . S
C1130 C1132 1.378 . S
C1130 C1134 1.350 . S
C1131 C1134 1.463 . S
C1131 C1136 1.350 . S
C1131 N1139 1.427 . S
C1132 H1123 0.930 . S
C1132 C1130 1.378 . S
C1132 C1133 1.367 . S
C1133 C1132 1.367 . S
C1133 C1135 1.433 . S
C1134 C1130 1.350 . S
C1134 C1131 1.463 . S
C1134 N1138 1.427 . S
C1135 H1125 0.929 . S
C1135 C1133 1.433 . S
C1135 N1138 1.384 . S
C1136 H1127 0.929 . S
C1136 C1128 1.378 . S
C1136 C1131 1.350 . S
C1137 H1124 0.929 . S
C1137 C1129 1.433 . S
C1137 N1139 1.384 . S
N1138 C1134 1.427 . S
N1138 C1135 1.384 . S
N1139 C1131 1.427 . S
N1139 C1137 1.384 . S
H1140 C1146 0.930 . S
H1141 C1150 0.930 . S
H1142 C1155 0.929 . S
H1143 C1153 0.929 . S
H1144 C1148 0.929 . S
H1145 C1154 0.929 . S
C1146 H1140 0.930 . S
C1146 C1147 1.367 . S
C1146 C1154 1.378 . S
C1147 C1146 1.367 . S
C1147 C1155 1.433 . S
C1148 H1144 0.929 . S
C1148 C1150 1.378 . S
C1148 C1152 1.350 . S
C1149 C1152 1.463 . S
C1149 C1154 1.350 . S
C1149 N1157 1.427 . S
C1150 H1141 0.930 . S
C1150 C1148 1.378 . S
C1150 C1151 1.367 . S
C1151 C1150 1.367 . S
C1151 C1153 1.433 . S
C1152 C1148 1.350 . S
C1152 C1149 1.463 . S
C1152 N1156 1.427 . S
C1153 H1143 0.929 . S
C1153 C1151 1.433 . S
C1153 N1156 1.384 . S
C1154 H1145 0.929 . S
C1154 C1146 1.378 . S
C1154 C1149 1.350 . S
C1155 H1142 0.929 . S
C1155 C1147 1.433 . S
C1155 N1157 1.384 . S
N1156 C1152 1.427 . S
N1156 C1153 1.384 . S
N1157 C1149 1.427 . S
N1157 C1155 1.384 . S
H1158 C1164 0.930 . S
H1159 C1168 0.930 . S
H1160 C1173 0.929 . S
H1161 C1171 0.929 . S
H1162 C1166 0.929 . S
H1163 C1172 0.929 . S
C1164 H1158 0.930 . S
C1164 C1165 1.367 . S
C1164 C1172 1.378 . S
C1165 C1164 1.367 . S
C1165 C1173 1.433 . S
C1166 H1162 0.929 . S
C1166 C1168 1.378 . S
C1166 C1170 1.350 . S
C1167 C1170 1.463 . S
C1167 C1172 1.350 . S
C1167 N1175 1.427 . S
C1168 H1159 0.930 . S
C1168 C1166 1.378 . S
C1168 C1169 1.367 . S
C1169 C1168 1.367 . S
C1169 C1171 1.433 . S
C1170 C1166 1.350 . S
C1170 C1167 1.463 . S
C1170 N1174 1.427 . S
C1171 H1161 0.929 . S
C1171 C1169 1.433 . S
C1171 N1174 1.384 . S
C1172 H1163 0.929 . S
C1172 C1164 1.378 . S
C1172 C1167 1.350 . S
C1173 H1160 0.929 . S
C1173 C1165 1.433 . S
C1173 N1175 1.384 . S
N1174 C1170 1.427 . S
N1174 C1171 1.384 . S
N1175 C1167 1.427 . S
N1175 C1173 1.384 . S
H1176 C1182 0.930 . S
H1177 C1186 0.930 . S
H1178 C1191 0.929 . S
H1179 C1189 0.929 . S
H1180 C1184 0.929 . S
H1181 C1190 0.929 . S
C1182 H1176 0.930 . S
C1182 C1183 1.367 . S
C1182 C1190 1.378 . S
C1183 C1182 1.367 . S
C1183 C1191 1.433 . S
C1184 H1180 0.929 . S
C1184 C1186 1.378 . S
C1184 C1188 1.350 . S
C1185 C1188 1.463 . S
C1185 C1190 1.350 . S
C1185 N1193 1.427 . S
C1186 H1177 0.930 . S
C1186 C1184 1.378 . S
C1186 C1187 1.367 . S
C1187 C1186 1.367 . S
C1187 C1189 1.433 . S
C1188 C1184 1.350 . S
C1188 C1185 1.463 . S
C1188 N1192 1.427 . S
C1189 H1179 0.929 . S
C1189 C1187 1.433 . S
C1189 N1192 1.384 . S
C1190 H1181 0.929 . S
C1190 C1182 1.378 . S
C1190 C1185 1.350 . S
C1191 H1178 0.929 . S
C1191 C1183 1.433 . S
C1191 N1193 1.384 . S
N1192 C1188 1.427 . S
N1192 C1189 1.384 . S
N1193 C1185 1.427 . S
N1193 C1191 1.384 . S
H1194 C1200 0.930 . S
H1195 C1204 0.930 . S
H1196 C1209 0.929 . S
H1197 C1207 0.929 . S
H1198 C1202 0.929 . S
H1199 C1208 0.929 . S
C1200 H1194 0.930 . S
C1200 C1201 1.367 . S
C1200 C1208 1.378 . S
C1201 C1200 1.367 . S
C1201 C1209 1.433 . S
C1202 H1198 0.929 . S
C1202 C1204 1.378 . S
C1202 C1206 1.350 . S
C1203 C1206 1.463 . S
C1203 C1208 1.350 . S
C1203 N1211 1.427 . S
C1204 H1195 0.930 . S
C1204 C1202 1.378 . S
C1204 C1205 1.367 . S
C1205 C1204 1.367 . S
C1205 C1207 1.433 . S
C1206 C1202 1.350 . S
C1206 C1203 1.463 . S
C1206 N1210 1.427 . S
C1207 H1197 0.929 . S
C1207 C1205 1.433 . S
C1207 N1210 1.384 . S
C1208 H1199 0.929 . S
C1208 C1200 1.378 . S
C1208 C1203 1.350 . S
C1209 H1196 0.929 . S
C1209 C1201 1.433 . S
C1209 N1211 1.384 . S
N1210 C1206 1.427 . S
N1210 C1207 1.384 . S
N1211 C1203 1.427 . S
N1211 C1209 1.384 . S
H1212 C1218 0.930 . S
H1213 C1222 0.930 . S
H1214 C1227 0.929 . S
H1215 C1225 0.929 . S
H1216 C1220 0.929 . S
H1217 C1226 0.929 . S
C1218 H1212 0.930 . S
C1218 C1219 1.367 . S
C1218 C1226 1.378 . S
C1219 C1218 1.367 . S
C1219 C1227 1.433 . S
C1220 H1216 0.929 . S
C1220 C1222 1.378 . S
C1220 C1224 1.350 . S
C1221 C1224 1.463 . S
C1221 C1226 1.350 . S
C1221 N1229 1.427 . S
C1222 H1213 0.930 . S
C1222 C1220 1.378 . S
C1222 C1223 1.367 . S
C1223 C1222 1.367 . S
C1223 C1225 1.433 . S
C1224 C1220 1.350 . S
C1224 C1221 1.463 . S
C1224 N1228 1.427 . S
C1225 H1215 0.929 . S
C1225 C1223 1.433 . S
C1225 N1228 1.384 . S
C1226 H1217 0.929 . S
C1226 C1218 1.378 . S
C1226 C1221 1.350 . S
C1227 H1214 0.929 . S
C1227 C1219 1.433 . S
C1227 N1229 1.384 . S
N1228 C1224 1.427 . S
N1228 C1225 1.384 . S
N1229 C1221 1.427 . S
N1229 C1227 1.384 . S
H1230 C1236 0.930 . S
H1231 C1240 0.930 . S
H1232 C1245 0.929 . S
H1233 C1243 0.929 . S
H1234 C1238 0.929 . S
H1235 C1244 0.929 . S
C1236 H1230 0.930 . S
C1236 C1237 1.367 . S
C1236 C1244 1.378 . S
C1237 C1236 1.367 . S
C1237 C1245 1.433 . S
C1238 H1234 0.929 . S
C1238 C1240 1.378 . S
C1238 C1242 1.350 . S
C1239 C1242 1.463 . S
C1239 C1244 1.350 . S
C1239 N1247 1.427 . S
C1240 H1231 0.930 . S
C1240 C1238 1.378 . S
C1240 C1241 1.367 . S
C1241 C1240 1.367 . S
C1241 C1243 1.433 . S
C1242 C1238 1.350 . S
C1242 C1239 1.463 . S
C1242 N1246 1.427 . S
C1243 H1233 0.929 . S
C1243 C1241 1.433 . S
C1243 N1246 1.384 . S
C1244 H1235 0.929 . S
C1244 C1236 1.378 . S
C1244 C1239 1.350 . S
C1245 H1232 0.929 . S
C1245 C1237 1.433 . S
C1245 N1247 1.384 . S
N1246 C1242 1.427 . S
N1246 C1243 1.384 . S
N1247 C1239 1.427 . S
N1247 C1245 1.384 . S
C823 C361 1.447 . S
C827 C554 1.454 . S
C845 C638 1.457 . S
C841 C451 1.449 . S
C863 C631 1.461 . S
C859 C241 1.434 . S
C877 C331 1.441 . S
C881 C547 1.463 . S
C899 C711 1.454 . S
C895 C140 1.434 . S
C917 C795 1.459 . S
C913 C211 1.432 . S
C931 C20 1.429 . S
C935 C788 1.465 . S
C949 C91 1.417 . S
C953 C704 1.461 . S
C971 C538 1.328 . S
C967 C80 1.477 1_554 S
C989 C622 1.330 . S
C985 C1 1.478 . S
C1007 C633 1.400 . S
C1003 C200 1.496 1_556 S
C1025 C549 1.409 . S
C1021 C121 1.498 . S
C1043 C717 1.335 . S
C1039 C320 1.505 1_556 S
C1057 C260 1.492 . S
C1061 C801 1.342 . S
C1079 C790 1.402 . S
C1075 C440 1.514 1_554 S
C1093 C380 1.503 . S
C1097 C706 1.400 . S
C1115 C536 1.582 . S
C1111 C31 1.557 . S
C1133 C620 1.582 . S
C1129 C61 1.557 . S
C1147 C151 1.546 . S
C1151 C627 1.558 . S
C1169 C543 1.558 . S
C1165 C181 1.547 . S
C1187 C715 1.578 . S
C1183 C271 1.515 . S
C1201 C301 1.583 . S
C1205 C799 1.578 . S
C1219 C391 1.504 . S
C1223 C806 1.565 . S
C1237 C421 1.570 . S
C1241 C722 1.558 . S
