# Generated by pormake.
# Topology pyr, (3,6)-cn, num edge types: 1
# Building blocks:
#     Node 0, Type 0, BuildingBlock: VETTIZ_charged_linker_0, # of connection points: 3
#     Node 1, Type 0, BuildingBlock: VETTIZ_charged_linker_0, # of connection points: 3
#     Node 2, Type 0, BuildingBlock: VETTIZ_charged_linker_0, # of connection points: 3
#     Node 3, Type 0, BuildingBlock: VETTIZ_charged_linker_0, # of connection points: 3
#     Node 4, Type 0, BuildingBlock: VETTIZ_charged_linker_0, # of connection points: 3
#     Node 5, Type 0, BuildingBlock: VETTIZ_charged_linker_0, # of connection points: 3
#     Node 6, Type 0, BuildingBlock: VETTIZ_charged_linker_0, # of connection points: 3
#     Node 7, Type 0, BuildingBlock: VETTIZ_charged_linker_0, # of connection points: 3
#     Node 8, Type 1, BuildingBlock: VOLQOD_clean_sbu_1, # of connection points: 6
#     Node 9, Type 1, BuildingBlock: VOLQOD_clean_sbu_1, # of connection points: 6
#     Node 10, Type 1, BuildingBlock: VOLQOD_clean_sbu_1, # of connection points: 6
#     Node 11, Type 1, BuildingBlock: VOLQOD_clean_sbu_1, # of connection points: 6
#     Edge 12, Type (0, 1), BuildingBlock: ZUJKAS_clean_linker_0, # of connection points: 2
#     Edge 13, Type (0, 1), BuildingBlock: ZUJKAS_clean_linker_0, # of connection points: 2
#     Edge 14, Type (0, 1), BuildingBlock: ZUJKAS_clean_linker_0, # of connection points: 2
#     Edge 15, Type (0, 1), BuildingBlock: ZUJKAS_clean_linker_0, # of connection points: 2
#     Edge 16, Type (0, 1), BuildingBlock: ZUJKAS_clean_linker_0, # of connection points: 2
#     Edge 17, Type (0, 1), BuildingBlock: ZUJKAS_clean_linker_0, # of connection points: 2
#     Edge 18, Type (0, 1), BuildingBlock: ZUJKAS_clean_linker_0, # of connection points: 2
#     Edge 19, Type (0, 1), BuildingBlock: ZUJKAS_clean_linker_0, # of connection points: 2
#     Edge 20, Type (0, 1), BuildingBlock: ZUJKAS_clean_linker_0, # of connection points: 2
#     Edge 21, Type (0, 1), BuildingBlock: ZUJKAS_clean_linker_0, # of connection points: 2
#     Edge 22, Type (0, 1), BuildingBlock: ZUJKAS_clean_linker_0, # of connection points: 2
#     Edge 23, Type (0, 1), BuildingBlock: ZUJKAS_clean_linker_0, # of connection points: 2
#     Edge 24, Type (0, 1), BuildingBlock: ZUJKAS_clean_linker_0, # of connection points: 2
#     Edge 25, Type (0, 1), BuildingBlock: ZUJKAS_clean_linker_0, # of connection points: 2
#     Edge 26, Type (0, 1), BuildingBlock: ZUJKAS_clean_linker_0, # of connection points: 2
#     Edge 27, Type (0, 1), BuildingBlock: ZUJKAS_clean_linker_0, # of connection points: 2
#     Edge 28, Type (0, 1), BuildingBlock: ZUJKAS_clean_linker_0, # of connection points: 2
#     Edge 29, Type (0, 1), BuildingBlock: ZUJKAS_clean_linker_0, # of connection points: 2
#     Edge 30, Type (0, 1), BuildingBlock: ZUJKAS_clean_linker_0, # of connection points: 2
#     Edge 31, Type (0, 1), BuildingBlock: ZUJKAS_clean_linker_0, # of connection points: 2
#     Edge 32, Type (0, 1), BuildingBlock: ZUJKAS_clean_linker_0, # of connection points: 2
#     Edge 33, Type (0, 1), BuildingBlock: ZUJKAS_clean_linker_0, # of connection points: 2
#     Edge 34, Type (0, 1), BuildingBlock: ZUJKAS_clean_linker_0, # of connection points: 2
#     Edge 35, Type (0, 1), BuildingBlock: ZUJKAS_clean_linker_0, # of connection points: 2
# Relax obj value: 0.035
# Max RMSD: 0.119
# Mean RMSD: 0.042
data_MOF--net-pry--node1-VOLQOD_clean_sbu_1--node2-VETTIZ_charged_linker_0--edge1-ZUJKAS_clean_linker_0
_symmetry_space_group_name_H-M    P1
_symmetry_Int_Tables_number       1
_symmetry_cell_setting            triclinic
loop_
_symmetry_equiv_pos_as_xyz
'x, y, z'
_cell_length_a     55.972264
_cell_length_b     55.957249
_cell_length_c     56.229138
_cell_angle_alpha  90.075413
_cell_angle_beta   90.022739
_cell_angle_gamma 90.104731
loop_
_atom_site_label
_atom_site_type_symbol
_atom_site_fract_x
_atom_site_fract_y
_atom_site_fract_z
_atom_type_partial_charge
C0 C 0.11396 0.10824 0.21702 0.0
C1 C 0.09448 0.11791 0.22952 0.0
C2 C 0.08303 0.13838 0.22041 0.0
C3 C 0.11023 0.139 0.18685 0.0
C4 C 0.12149 0.11902 0.19587 0.0
C5 C 0.1421 0.11111 0.18066 0.0
H6 H 0.21184 0.1282 0.08394 0.0
C7 C 0.12238 0.14564 0.16446 0.0
C8 C 0.14101 0.12931 0.16072 0.0
H9 H 0.2192 0.07493 0.13911 0.0
H10 H 0.18372 0.08964 0.15836 0.0
H11 H 0.19749 0.17199 0.11924 0.0
H12 H 0.15568 0.12272 0.07754 0.0
H13 H 0.14019 0.14996 0.07737 0.0
H14 H 0.16968 0.14836 0.06439 0.0
H15 H 0.19735 0.17161 0.0873 0.0
H16 H 0.17541 0.18815 0.10381 0.0
C17 C 0.16533 0.1135 0.19555 0.0
C18 C 0.13677 0.08547 0.17162 0.0
C19 C 0.09457 0.21816 0.1178 0.0
C20 C 0.10139 0.22774 0.09576 0.0
C21 C 0.11933 0.21632 0.0824 0.0
C22 C 0.13079 0.1959 0.09118 0.0
C23 C 0.12408 0.1867 0.11346 0.0
C24 C 0.10591 0.19751 0.12614 0.0
C25 C 0.10012 0.18435 0.14872 0.0
C26 C 0.11824 0.16422 0.1478 0.0
C27 C 0.13245 0.1659 0.12728 0.0
C28 C 0.10474 0.20142 0.16993 0.0
C29 C 0.07409 0.17497 0.14694 0.0
C30 C 0.20563 0.11956 0.10003 0.0
C31 C 0.21843 0.10048 0.1101 0.0
C32 C 0.20987 0.08989 0.13119 0.0
C33 C 0.1892 0.09842 0.14231 0.0
C34 C 0.17691 0.11785 0.13236 0.0
C35 C 0.18506 0.128 0.11148 0.0
C36 C 0.16982 0.14871 0.1037 0.0
C37 C 0.15148 0.14955 0.1236 0.0
C38 C 0.15573 0.1314 0.14027 0.0
C39 C 0.18572 0.1714 0.1033 0.0
C40 C 0.1583 0.14235 0.07942 0.0
H41 H 0.0813 0.16445 0.19314 0.0
H42 H 0.12342 0.09278 0.22374 0.0
H43 H 0.11749 0.08339 0.16724 0.0
H44 H 0.1463 0.08104 0.15501 0.0
H45 H 0.14127 0.07195 0.18535 0.0
H46 H 0.16398 0.1284 0.20861 0.0
H47 H 0.16901 0.09689 0.20569 0.0
H48 H 0.18111 0.11802 0.18464 0.0
H49 H 0.08052 0.22642 0.12818 0.0
H50 H 0.12477 0.2235 0.06535 0.0
H51 H 0.14451 0.18815 0.08034 0.0
H52 H 0.12128 0.21208 0.16697 0.0
H53 H 0.08971 0.21414 0.17224 0.0
H54 H 0.10772 0.19193 0.18686 0.0
H55 H 0.06917 0.1709 0.12818 0.0
H56 H 0.07138 0.15792 0.15647 0.0
H57 H 0.06117 0.18839 0.15372 0.0
H58 H 0.06787 0.14607 0.22959 0.0
C59 C 0.09077 0.14894 0.19915 0.0
C60 C 0.30955 0.89278 0.60528 0.0
C61 C 0.2977 0.91274 0.6148 0.0
C62 C 0.30778 0.92471 0.63447 0.0
C63 C 0.34037 0.89626 0.63547 0.0
C64 C 0.33079 0.88493 0.61581 0.0
C65 C 0.34554 0.86391 0.60798 0.0
H66 H 0.43775 0.7888 0.62819 0.0
C67 C 0.36206 0.88309 0.64262 0.0
C68 C 0.36529 0.86422 0.62649 0.0
H69 H 0.38765 0.78831 0.56951 0.0
H70 H 0.36879 0.82362 0.58492 0.0
H71 H 0.44763 0.84546 0.62587 0.0
H72 H 0.40011 0.80332 0.66919 0.0
H73 H 0.4141 0.82459 0.6876 0.0
H74 H 0.43201 0.80258 0.67251 0.0
H75 H 0.45828 0.8277 0.65021 0.0
H76 H 0.44792 0.85793 0.65454 0.0
C77 C 0.35517 0.86903 0.58262 0.0
C78 C 0.32978 0.84119 0.60991 0.0
C79 C 0.40666 0.90775 0.71733 0.0
C80 C 0.42674 0.8985 0.72916 0.0
C81 C 0.43868 0.87865 0.7193 0.0
C82 C 0.43052 0.86799 0.6982 0.0
C83 C 0.41019 0.87724 0.6868 0.0
C84 C 0.39875 0.89691 0.69632 0.0
C85 C 0.37747 0.9044 0.68186 0.0
C86 C 0.37798 0.88597 0.66207 0.0
C87 C 0.3971 0.87003 0.66509 0.0
C88 C 0.38205 0.93001 0.6724 0.0
C89 C 0.35494 0.90186 0.69768 0.0
C90 C 0.42286 0.7964 0.61852 0.0
C91 C 0.41403 0.78543 0.59773 0.0
C92 C 0.39451 0.79597 0.58585 0.0
C93 C 0.38364 0.81663 0.59474 0.0
C94 C 0.39234 0.82705 0.61575 0.0
C95 C 0.41185 0.81717 0.6271 0.0
C96 C 0.41901 0.83118 0.64886 0.0
C97 C 0.40042 0.85093 0.64875 0.0
C98 C 0.38473 0.84823 0.62944 0.0
C99 C 0.44459 0.84103 0.64492 0.0
C100 C 0.41638 0.81466 0.67079 0.0
H101 H 0.33563 0.9263 0.65995 0.0
H102 H 0.30245 0.88345 0.58993 0.0
H103 H 0.3189 0.84163 0.62647 0.0
H104 H 0.34022 0.82454 0.61102 0.0
H105 H 0.31728 0.83983 0.59462 0.0
H106 H 0.35722 0.88856 0.57946 0.0
H107 H 0.3429 0.86193 0.56878 0.0
H108 H 0.37326 0.86165 0.57972 0.0
H109 H 0.39728 0.92319 0.72422 0.0
H110 H 0.45407 0.87105 0.72817 0.0
H111 H 0.44023 0.8528 0.69172 0.0
H112 H 0.40139 0.93299 0.66885 0.0
H113 H 0.37623 0.9437 0.68548 0.0
H114 H 0.3732 0.93343 0.65517 0.0
H115 H 0.35626 0.8858 0.70926 0.0
H116 H 0.33837 0.8992 0.68738 0.0
H117 H 0.35274 0.91767 0.70944 0.0
H118 H 0.2989 0.94004 0.64222 0.0
C119 C 0.32903 0.91659 0.64484 0.0
C120 C 0.60579 0.31453 0.92589 0.0
C121 C 0.58627 0.3019 0.91628 0.0
C122 C 0.57442 0.31126 0.89623 0.0
C123 C 0.60202 0.34463 0.89505 0.0
C124 C 0.61333 0.33576 0.91501 0.0
C125 C 0.63424 0.351 0.92243 0.0
H126 H 0.70594 0.44622 0.90122 0.0
C127 C 0.61473 0.36652 0.88759 0.0
C128 C 0.63355 0.37046 0.90363 0.0
H129 H 0.71213 0.39355 0.95716 0.0
H130 H 0.67613 0.37431 0.94354 0.0
H131 H 0.64881 0.45306 0.90445 0.0
H132 H 0.69343 0.40857 0.86055 0.0
H133 H 0.6709 0.42031 0.84228 0.0
H134 H 0.69158 0.44035 0.85671 0.0
H135 H 0.66629 0.46492 0.88043 0.0
H136 H 0.63655 0.4533 0.87567 0.0
C137 C 0.62908 0.361 0.94761 0.0
C138 C 0.65718 0.33563 0.92065 0.0
C139 C 0.58975 0.40882 0.81178 0.0
C140 C 0.59861 0.42898 0.79974 0.0
C141 C 0.61735 0.44227 0.8101 0.0
C142 C 0.62757 0.43518 0.83173 0.0
C143 C 0.61901 0.41453 0.84316 0.0
C144 C 0.60015 0.40197 0.83334 0.0
C145 C 0.59323 0.38063 0.84801 0.0
C146 C 0.61133 0.38218 0.86805 0.0
C147 C 0.62648 0.40197 0.86505 0.0
C148 C 0.56732 0.38436 0.85704 0.0
C149 C 0.59681 0.35794 0.83256 0.0
C150 C 0.69964 0.43049 0.9105 0.0
C151 C 0.71204 0.42145 0.93032 0.0
C152 C 0.70285 0.40114 0.94206 0.0
C153 C 0.68201 0.38982 0.93398 0.0
C154 C 0.6702 0.39874 0.91381 0.0
C155 C 0.67897 0.41885 0.90254 0.0
C156 C 0.66441 0.4255 0.88106 0.0
C157 C 0.6455 0.40604 0.88128 0.0
C158 C 0.64899 0.3904 0.90049 0.0
C159 C 0.6535 0.45056 0.88537 0.0
C160 C 0.68079 0.42381 0.8589 0.0
H161 H 0.57244 0.33859 0.87033 0.0
H162 H 0.61542 0.30772 0.94114 0.0
H163 H 0.65603 0.32289 0.90547 0.0
H164 H 0.67339 0.3463 0.91707 0.0
H165 H 0.65996 0.32499 0.93708 0.0
H166 H 0.60983 0.36548 0.94961 0.0
H167 H 0.63365 0.34771 0.96154 0.0
H168 H 0.63867 0.37786 0.95134 0.0
H169 H 0.5751 0.39846 0.8045 0.0
H170 H 0.62458 0.45779 0.80112 0.0
H171 H 0.64199 0.44583 0.83852 0.0
H172 H 0.56345 0.40365 0.85988 0.0
H173 H 0.55406 0.37742 0.84403 0.0
H174 H 0.56408 0.37599 0.87454 0.0
H175 H 0.61306 0.35968 0.82128 0.0
H176 H 0.59978 0.34163 0.84314 0.0
H177 H 0.58133 0.35499 0.82054 0.0
H178 H 0.55912 0.30209 0.88871 0.0
C179 C 0.58213 0.33254 0.88563 0.0
C180 C 0.9241 0.69565 0.41336 0.0
C181 C 0.91339 0.70713 0.43289 0.0
C182 C 0.89322 0.69657 0.44363 0.0
C183 C 0.89426 0.66414 0.41501 0.0
C184 C 0.91425 0.67432 0.40473 0.0
C185 C 0.92286 0.66044 0.38349 0.0
H186 H 0.90562 0.57018 0.30525 0.0
C187 C 0.88806 0.64249 0.40124 0.0
C188 C 0.90481 0.64018 0.3828 0.0
H189 H 0.96088 0.62429 0.30453 0.0
H190 H 0.94637 0.64007 0.34172 0.0
H191 H 0.90954 0.55805 0.36039 0.0
H192 H 0.86314 0.60517 0.32152 0.0
H193 H 0.84559 0.58901 0.34187 0.0
H194 H 0.86181 0.57319 0.3192 0.0
H195 H 0.88414 0.54705 0.34426 0.0
H196 H 0.88173 0.55698 0.37476 0.0
C197 C 0.94842 0.65131 0.38883 0.0
C198 C 0.92096 0.67683 0.36136 0.0
C199 C 0.81377 0.59468 0.42241 0.0
C200 C 0.80322 0.57403 0.41262 0.0
C201 C 0.81482 0.56239 0.39358 0.0
C202 C 0.8361 0.57147 0.38408 0.0
C203 C 0.84601 0.59247 0.39364 0.0
C204 C 0.8351 0.60346 0.41276 0.0
C205 C 0.84851 0.62531 0.42094 0.0
C206 C 0.8691 0.62573 0.40338 0.0
C207 C 0.86738 0.6066 0.38729 0.0
C208 C 0.85718 0.62094 0.44675 0.0
C209 C 0.83188 0.64723 0.41798 0.0
C210 C 0.91455 0.58547 0.31308 0.0
C211 C 0.93431 0.5961 0.30183 0.0
C212 C 0.94573 0.61566 0.3129 0.0
C213 C 0.93714 0.62494 0.33441 0.0
C214 C 0.91684 0.61465 0.34499 0.0
C215 C 0.90615 0.595 0.33453 0.0
C216 C 0.88481 0.58635 0.34831 0.0
C217 C 0.88416 0.60437 0.3685 0.0
C218 C 0.90287 0.62097 0.36638 0.0
C219 C 0.89008 0.56072 0.35733 0.0
C220 C 0.86258 0.58832 0.33199 0.0
H221 H 0.86821 0.66809 0.44373 0.0
H222 H 0.93941 0.70346 0.4045 0.0
H223 H 0.90503 0.68865 0.3626 0.0
H224 H 0.91844 0.66684 0.34461 0.0
H225 H 0.93696 0.68848 0.35967 0.0
H226 H 0.95034 0.6465 0.40794 0.0
H227 H 0.96201 0.66521 0.38477 0.0
H228 H 0.95287 0.63478 0.37904 0.0
H229 H 0.80534 0.60421 0.43692 0.0
H230 H 0.80743 0.54618 0.386 0.0
H231 H 0.84389 0.56189 0.3695 0.0
H232 H 0.8617 0.6018 0.44957 0.0
H233 H 0.84316 0.6258 0.45985 0.0
H234 H 0.87379 0.63074 0.45104 0.0
H235 H 0.82093 0.64555 0.40154 0.0
H236 H 0.84172 0.6642 0.41589 0.0
H237 H 0.81942 0.64887 0.43326 0.0
H238 H 0.88481 0.70492 0.45886 0.0
C239 C 0.88366 0.67513 0.43486 0.0
C240 C 0.93131 0.84321 0.94902 0.0
C241 C 0.94984 0.83106 0.93723 0.0
C242 C 0.9607 0.84188 0.91733 0.0
C243 C 0.93298 0.87502 0.91978 0.0
C244 C 0.92315 0.86501 0.93998 0.0
C245 C 0.90251 0.87934 0.94941 0.0
H246 H 0.82097 0.96623 0.93176 0.0
C247 C 0.91884 0.89643 0.91365 0.0
C248 C 0.90103 0.89913 0.93102 0.0
H249 H 0.82711 0.91838 0.99184 0.0
H250 H 0.8635 0.90216 0.97559 0.0
H251 H 0.83383 0.93 0.89285 0.0
H252 H 0.87879 0.97995 0.93023 0.0
H253 H 0.88685 0.98082 0.90001 0.0
H254 H 0.85693 0.98899 0.90868 0.0
H255 H 0.83389 0.96131 0.88603 0.0
H256 H 0.85448 0.94088 0.87207 0.0
C257 C 0.88 0.86315 0.94915 0.0
C258 C 0.90936 0.88908 0.97433 0.0
C259 C 0.93463 0.9395 0.83576 0.0
C260 C 0.92206 0.9573 0.82345 0.0
C261 C 0.90212 0.96812 0.83424 0.0
C262 C 0.89458 0.96105 0.85693 0.0
C263 C 0.90684 0.94265 0.86876 0.0
C264 C 0.92658 0.93228 0.8582 0.0
C265 C 0.93636 0.91189 0.8726 0.0
C266 C 0.91947 0.91196 0.89371 0.0
C267 C 0.90228 0.93005 0.89139 0.0
C268 C 0.93412 0.88872 0.85753 0.0
C269 C 0.96222 0.91827 0.88008 0.0
C270 C 0.83034 0.95256 0.94167 0.0
C271 C 0.82094 0.94342 0.96302 0.0
C272 C 0.83367 0.92542 0.97513 0.0
C273 C 0.85486 0.91607 0.96571 0.0
C274 C 0.86342 0.92467 0.94385 0.0
C275 C 0.85154 0.94303 0.93251 0.0
C276 C 0.86344 0.95012 0.9096 0.0
C277 C 0.88432 0.93286 0.90899 0.0
C278 C 0.884 0.91778 0.92892 0.0
C279 C 0.84559 0.94557 0.88896 0.0
C280 C 0.87188 0.97639 0.912 0.0
H281 H 0.96106 0.87084 0.89309 0.0
H282 H 0.9229 0.83561 0.96462 0.0
H283 H 0.929 0.89176 0.97592 0.0
H284 H 0.90162 0.9069 0.97792 0.0
H285 H 0.90384 0.87653 0.9886 0.0
H286 H 0.8793 0.85239 0.9325 0.0
H287 H 0.88014 0.85053 0.96438 0.0
H288 H 0.86311 0.87321 0.94951 0.0
H289 H 0.94972 0.93059 0.8276 0.0
H290 H 0.89224 0.98188 0.82496 0.0
H291 H 0.87915 0.9698 0.86412 0.0
H292 H 0.91852 0.88959 0.84529 0.0
H293 H 0.9503 0.88581 0.84648 0.0
H294 H 0.93079 0.87263 0.86838 0.0
H295 H 0.96361 0.9375 0.88498 0.0
H296 H 0.9682 0.90843 0.89602 0.0
H297 H 0.97498 0.9149 0.86533 0.0
H298 H 0.97494 0.8329 0.90785 0.0
C299 C 0.95244 0.86382 0.90862 0.0
C300 C 0.6821 0.07671 0.45372 0.0
C301 C 0.69521 0.05777 0.44374 0.0
C302 C 0.68499 0.04445 0.425 0.0
C303 C 0.65033 0.07036 0.42501 0.0
C304 C 0.65986 0.08271 0.44408 0.0
C305 C 0.64447 0.10338 0.45158 0.0
H306 H 0.55249 0.17724 0.42748 0.0
C307 C 0.62794 0.0824 0.41796 0.0
C308 C 0.62432 0.10165 0.43359 0.0
H309 H 0.6032 0.18175 0.48538 0.0
H310 H 0.6205 0.14415 0.47351 0.0
H311 H 0.5415 0.12017 0.43387 0.0
H312 H 0.58869 0.16044 0.38869 0.0
H313 H 0.57571 0.13795 0.37113 0.0
H314 H 0.55686 0.1601 0.38477 0.0
H315 H 0.53087 0.13629 0.40843 0.0
H316 H 0.54142 0.10588 0.40604 0.0
C317 C 0.63561 0.0987 0.47726 0.0
C318 C 0.6593 0.12662 0.44857 0.0
C319 C 0.58501 0.0568 0.34244 0.0
C320 C 0.56529 0.06618 0.33005 0.0
C321 C 0.5523 0.08512 0.34035 0.0
C322 C 0.5593 0.09509 0.36213 0.0
C323 C 0.57967 0.08625 0.37372 0.0
C324 C 0.59189 0.06711 0.3641 0.0
C325 C 0.61332 0.0603 0.37874 0.0
C326 C 0.61204 0.07865 0.39862 0.0
C327 C 0.5924 0.0939 0.39545 0.0
C328 C 0.60953 0.03455 0.38809 0.0
C329 C 0.63588 0.0636 0.36307 0.0
C330 C 0.56704 0.16993 0.43786 0.0
C331 C 0.57667 0.18264 0.45723 0.0
C332 C 0.59576 0.17254 0.47011 0.0
C333 C 0.60576 0.15068 0.46321 0.0
C334 C 0.59675 0.13882 0.44307 0.0
C335 C 0.57732 0.14816 0.43113 0.0
C336 C 0.57016 0.13309 0.41012 0.0
C337 C 0.58875 0.11339 0.41122 0.0
C338 C 0.60442 0.11701 0.43039 0.0
C339 C 0.54461 0.1234 0.41459 0.0
C340 C 0.57277 0.14856 0.3874 0.0
H341 H 0.65603 0.04007 0.40108 0.0
H342 H 0.68923 0.08704 0.46841 0.0
H343 H 0.67048 0.12574 0.43222 0.0
H344 H 0.64825 0.14273 0.44629 0.0
H345 H 0.67148 0.12941 0.46393 0.0
H346 H 0.63325 0.07924 0.48059 0.0
H347 H 0.64854 0.10561 0.4906 0.0
H348 H 0.61783 0.10654 0.48074 0.0
H349 H 0.5952 0.04203 0.33524 0.0
H350 H 0.53719 0.09289 0.33116 0.0
H351 H 0.54893 0.10976 0.36876 0.0
H352 H 0.59035 0.03117 0.39208 0.0
H353 H 0.6153 0.0211 0.37474 0.0
H354 H 0.61892 0.0312 0.40505 0.0
H355 H 0.63403 0.07949 0.35134 0.0
H356 H 0.65225 0.06703 0.37345 0.0
H357 H 0.63883 0.04779 0.35148 0.0
H358 H 0.69472 0.02985 0.41689 0.0
C359 C 0.6626 0.05057 0.41567 0.0
C360 C 0.44026 0.58291 0.1843 0.0
C361 C 0.42986 0.56275 0.1951 0.0
C362 C 0.41066 0.55117 0.18359 0.0
C363 C 0.4115 0.58067 0.15205 0.0
C364 C 0.43081 0.59153 0.16293 0.0
C365 C 0.43908 0.61341 0.14977 0.0
H366 H 0.42106 0.69358 0.06176 0.0
C367 C 0.40518 0.59489 0.13085 0.0
C368 C 0.42139 0.61402 0.12932 0.0
H369 H 0.47569 0.69449 0.1162 0.0
H370 H 0.46192 0.6564 0.13075 0.0
H371 H 0.37935 0.67675 0.09571 0.0
H372 H 0.42562 0.63752 0.04875 0.0
H373 H 0.39713 0.62451 0.04637 0.0
H374 H 0.40134 0.65537 0.03793 0.0
H375 H 0.3767 0.67808 0.06393 0.0
H376 H 0.36165 0.65541 0.08106 0.0
C377 C 0.43626 0.63523 0.16656 0.0
C378 C 0.46494 0.60901 0.141 0.0
C379 C 0.33071 0.57413 0.08334 0.0
C380 C 0.31941 0.58502 0.06381 0.0
C381 C 0.33057 0.60473 0.05279 0.0
C382 C 0.35216 0.61389 0.06153 0.0
C383 C 0.36273 0.60339 0.08163 0.0
C384 C 0.35224 0.58358 0.09192 0.0
C385 C 0.366 0.5748 0.11316 0.0
C386 C 0.38628 0.59283 0.1141 0.0
C387 C 0.38415 0.60962 0.0957 0.0
C388 C 0.34949 0.57656 0.13523 0.0
C389 C 0.37511 0.54925 0.10767 0.0
C390 C 0.43003 0.68562 0.07686 0.0
C391 C 0.44941 0.69721 0.08791 0.0
C392 C 0.46086 0.68592 0.10721 0.0
C393 C 0.45269 0.66386 0.11579 0.0
C394 C 0.43273 0.65298 0.10511 0.0
C395 C 0.42199 0.66369 0.08575 0.0
C396 C 0.40085 0.64972 0.0768 0.0
C397 C 0.40054 0.62895 0.09412 0.0
C398 C 0.41916 0.63102 0.11073 0.0
C399 C 0.37838 0.6657 0.07927 0.0
C400 C 0.40626 0.6414 0.05106 0.0
H401 H 0.38662 0.55059 0.15448 0.0
H402 H 0.45527 0.59201 0.19246 0.0
H403 H 0.46755 0.58995 0.13599 0.0
H404 H 0.46932 0.61918 0.12475 0.0
H405 H 0.47817 0.61341 0.15508 0.0
H406 H 0.42001 0.63336 0.17781 0.0
H407 H 0.45187 0.63698 0.17866 0.0
H408 H 0.43375 0.65223 0.15699 0.0
H409 H 0.32283 0.55874 0.092 0.0
H410 H 0.32219 0.6136 0.03786 0.0
H411 H 0.35951 0.62915 0.0526 0.0
H412 H 0.33832 0.59297 0.1344 0.0
H413 H 0.33724 0.56096 0.13625 0.0
H414 H 0.35938 0.57807 0.15213 0.0
H415 H 0.37941 0.54721 0.08845 0.0
H416 H 0.39194 0.54498 0.117 0.0
H417 H 0.36143 0.53559 0.1122 0.0
H418 H 0.40218 0.53574 0.19158 0.0
C419 C 0.40149 0.55997 0.16212 0.0
C420 C 0.07188 0.32694 0.5927 0.0
C421 C 0.08152 0.31391 0.57357 0.0
C422 C 0.10004 0.32426 0.56001 0.0
C423 C 0.10032 0.35898 0.58578 0.0
C424 C 0.08146 0.34936 0.59841 0.0
C425 C 0.07387 0.36514 0.61872 0.0
H426 H 0.09489 0.462 0.68762 0.0
C427 C 0.10717 0.38175 0.59725 0.0
C428 C 0.09154 0.38562 0.61638 0.0
H429 H 0.03946 0.40862 0.69556 0.0
H430 H 0.05198 0.3897 0.65915 0.0
H431 H 0.08929 0.46888 0.63068 0.0
H432 H 0.13548 0.42546 0.67386 0.0
H433 H 0.15298 0.43734 0.65085 0.0
H434 H 0.13879 0.45728 0.67164 0.0
H435 H 0.11406 0.48121 0.64686 0.0
H436 H 0.1176 0.46931 0.61719 0.0
C437 C 0.04785 0.37333 0.61411 0.0
C438 C 0.07742 0.35103 0.64216 0.0
C439 C 0.18261 0.42472 0.57084 0.0
C440 C 0.1947 0.445 0.5795 0.0
C441 C 0.18402 0.4587 0.59767 0.0
C442 C 0.16215 0.45181 0.60767 0.0
C443 C 0.15086 0.43087 0.59959 0.0
C444 C 0.16084 0.418 0.58112 0.0
C445 C 0.14637 0.3962 0.5749 0.0
C446 C 0.12631 0.39788 0.59299 0.0
C447 C 0.12915 0.41811 0.60751 0.0
C448 C 0.13708 0.39899 0.54908 0.0
C449 C 0.16227 0.37392 0.579 0.0
C450 C 0.08544 0.44622 0.68154 0.0
C451 C 0.06623 0.43675 0.69463 0.0
C452 C 0.05417 0.41645 0.68577 0.0
C453 C 0.06161 0.40533 0.6647 0.0
C454 C 0.08147 0.41445 0.65238 0.0
C455 C 0.09276 0.4348 0.66062 0.0
C456 C 0.11375 0.44177 0.64543 0.0
C457 C 0.11325 0.42216 0.62676 0.0
C458 C 0.09442 0.40612 0.63103 0.0
C459 C 0.10866 0.46665 0.63452 0.0
C460 C 0.13652 0.44062 0.66111 0.0
H461 H 0.12372 0.35342 0.55517 0.0
H462 H 0.05774 0.31953 0.60359 0.0
H463 H 0.09401 0.34011 0.64138 0.0
H464 H 0.07975 0.36263 0.65786 0.0
H465 H 0.06222 0.33868 0.64543 0.0
H466 H 0.04435 0.37536 0.59473 0.0
H467 H 0.03479 0.36016 0.62114 0.0
H468 H 0.04398 0.39111 0.62176 0.0
H469 H 0.19039 0.41371 0.55702 0.0
H470 H 0.19275 0.47464 0.60436 0.0
H471 H 0.15514 0.4628 0.62166 0.0
H472 H 0.13431 0.41813 0.5445 0.0
H473 H 0.14995 0.39149 0.53603 0.0
H474 H 0.11939 0.39057 0.54638 0.0
H475 H 0.17309 0.37602 0.59548 0.0
H476 H 0.15199 0.35733 0.58162 0.0
H477 H 0.17484 0.37126 0.56394 0.0
H478 H 0.10744 0.31489 0.54485 0.0
C479 C 0.10942 0.3467 0.56597 0.0
O480 O 0.99738 0.06005 0.53654 0.0
Zn481 Zn 0.98418 0.02656 0.53477 0.0
O482 O 0.00507 0.00539 0.51648 0.0
Zn483 Zn 0.98896 0.99546 0.48722 0.0
Zn484 Zn 0.03437 0.02258 0.50858 0.0
Zn485 Zn 0.01275 0.97708 0.53535 0.0
O486 O 0.98696 0.9596 0.48486 0.0
O487 O 0.00121 0.94692 0.51944 0.0
O488 O 0.95122 0.02792 0.52033 0.0
O489 O 0.95504 0.00716 0.48688 0.0
O490 O 0.00574 0.00828 0.4581 0.0
O491 O 0.03798 0.02582 0.47317 0.0
O492 O 0.06343 0.00594 0.52162 0.0
O493 O 0.98072 0.01479 0.56838 0.0
O494 O 0.04834 0.97403 0.53965 0.0
O495 O 0.99805 0.97908 0.56805 0.0
C496 C 0.01768 0.06884 0.53121 0.0
C497 C 0.99184 0.94271 0.49922 0.0
C498 C 0.0252 0.0198 0.45539 0.0
C499 C 0.94241 0.01946 0.50119 0.0
C500 C 0.06617 0.98675 0.53346 0.0
C501 C 0.98652 0.99546 0.57881 0.0
O502 O 0.03375 0.05614 0.52137 0.0
O503 O 0.50514 0.05831 0.99368 0.0
Zn504 Zn 0.49133 0.02522 0.99776 0.0
O505 O 0.51095 0.00619 0.01951 0.0
Zn506 Zn 0.52552 0.97975 0.00214 0.0
Zn507 Zn 0.53608 0.02626 0.03327 0.0
Zn508 Zn 0.49091 0.99331 0.04491 0.0
O509 O 0.51663 0.94804 0.0165 0.0
O510 O 0.49051 0.95731 0.04469 0.0
O511 O 0.48907 0.00955 0.96537 0.0
O512 O 0.51391 0.97882 0.9684 0.0
O513 O 0.56138 0.98228 0.00196 0.0
O514 O 0.56874 0.01357 0.02513 0.0
O515 O 0.53353 0.02781 0.06903 0.0
O516 O 0.45786 0.02904 0.01056 0.0
O517 O 0.50315 0.00354 0.07696 0.0
O518 O 0.4572 0.0055 0.0423 0.0
C519 C 0.52198 0.06958 0.00408 0.0
C520 C 0.50214 0.94182 0.03281 0.0
C521 C 0.57603 0.99636 0.01222 0.0
C522 C 0.49932 0.99134 0.95634 0.0
C523 C 0.51981 0.01743 0.08387 0.0
C524 C 0.44681 0.01989 0.02814 0.0
O525 O 0.5347 0.05962 0.02001 0.0
O526 O 0.52896 0.50091 0.55173 0.0
Zn527 Zn 0.5251 0.51369 0.51852 0.0
O528 O 0.50358 0.49345 0.49977 0.0
Zn529 Zn 0.52118 0.47949 0.47308 0.0
Zn530 Zn 0.49074 0.46802 0.51997 0.0
Zn531 Zn 0.47722 0.51271 0.48756 0.0
O532 O 0.50655 0.48886 0.44167 0.0
O533 O 0.47714 0.51341 0.45176 0.0
O534 O 0.55783 0.51532 0.50381 0.0
O535 O 0.55528 0.49113 0.47258 0.0
O536 O 0.52161 0.44351 0.47517 0.0
O537 O 0.49987 0.43568 0.50727 0.0
O538 O 0.4548 0.46935 0.5218 0.0
O539 O 0.51232 0.54723 0.52142 0.0
O540 O 0.44547 0.49965 0.49816 0.0
O541 O 0.47911 0.54645 0.49984 0.0
C542 C 0.51919 0.48385 0.56314 0.0
C543 C 0.48949 0.50275 0.43597 0.0
C544 C 0.51226 0.42865 0.48961 0.0
C545 C 0.56724 0.50533 0.48574 0.0
C546 C 0.43929 0.4827 0.51194 0.0
C547 C 0.49386 0.55756 0.51312 0.0
O548 O 0.50389 0.47018 0.55328 0.0
O549 O 0.9896 0.51396 0.05348 0.0
Zn550 Zn 0.99077 0.50025 0.02028 0.0
O551 O 0.01057 0.52014 0.99939 0.0
Zn552 Zn 0.99101 0.53258 0.97329 0.0
Zn553 Zn 0.02406 0.54678 0.01751 0.0
Zn554 Zn 0.0367 0.50099 0.98647 0.0
O555 O 0.00367 0.52168 0.94153 0.0
O556 O 0.03431 0.49835 0.95085 0.0
O557 O 0.95699 0.498 0.00809 0.0
O558 O 0.95709 0.52053 0.97561 0.0
O559 O 0.99034 0.56869 0.97346 0.0
O560 O 0.01358 0.57829 0.00401 0.0
O561 O 0.06004 0.54639 0.01714 0.0
O562 O 0.00385 0.46671 0.02273 0.0
O563 O 0.06876 0.51522 0.99436 0.0
O564 O 0.03644 0.46787 0.00022 0.0
C565 C -0.00047 0.53196 0.06328 0.0
C566 C 0.02063 0.50782 0.93542 0.0
C567 C 0.00026 0.58433 0.98669 0.0
C568 C 0.94623 0.50695 0.99024 0.0
C569 C 0.0753 0.53299 0.00695 0.0
C570 C 0.02233 0.45669 0.01406 0.0
O571 O 0.01324 0.54579 0.05157 0.0
H572 H 0.08162 0.14035 0.27081 0.0
H573 H 0.06939 0.12185 0.30832 0.0
H574 H 0.07659 0.05199 0.27666 0.0
H575 H 0.08886 0.07034 0.23911 0.0
H576 H 0.03129 0.09174 0.31837 0.0
H577 H 0.11792 0.04704 0.33636 0.0
H578 H 0.1146 0.06997 0.31407 0.0
H579 H 0.10506 0.03989 0.30797 0.0
C580 C 0.08043 0.12106 0.27179 0.0
C581 C 0.08635 0.10679 0.25206 0.0
C582 C 0.07353 0.11052 0.29324 0.0
C583 C 0.07247 0.08556 0.29536 0.0
C584 C 0.07784 0.07128 0.27556 0.0
H585 H 0.00305 0.01037 0.41283 0.0
H586 H 0.01429 0.02515 0.37344 0.0
C587 C 0.08483 0.08179 0.25413 0.0
C588 C 0.06565 0.07452 0.31831 0.0
H589 H 0.0859 0.03778 0.36233 0.0
C590 C 0.0432 0.07992 0.32799 0.0
C591 C 0.08136 0.05933 0.33092 0.0
C592 C 0.10617 0.05385 0.32196 0.0
C593 C 0.03597 0.07047 0.34996 0.0
C594 C 0.05147 0.05487 0.36232 0.0
C595 C 0.07396 0.04953 0.35267 0.0
C596 C 0.04518 0.04484 0.38587 0.0
C597 C 0.01209 0.0778 0.36004 0.0
C598 C 0.05931 0.05032 0.40575 0.0
C599 C 0.05309 0.04176 0.42822 0.0
C600 C 0.03261 0.02747 0.43126 0.0
C601 C 0.01884 0.02145 0.41117 0.0
C602 C 0.02514 0.03 0.38866 0.0
H603 H 0.00503 0.09411 0.35126 0.0
H604 H 0.99901 0.06315 0.3572 0.0
H605 H 0.0134 0.08122 0.37945 0.0
H606 H 0.07492 0.06166 0.40395 0.0
H607 H 0.06415 0.04671 0.44325 0.0
H608 H 0.39908 0.91312 0.76641 0.0
H609 H 0.4122 0.93099 0.80392 0.0
H610 H 0.48562 0.92535 0.78142 0.0
H611 H 0.47261 0.90795 0.74353 0.0
H612 H 0.44278 0.91026 0.83782 0.0
H613 H 0.47922 0.99576 0.80297 0.0
H614 H 0.45943 0.97687 0.78585 0.0
H615 H 0.49046 0.96927 0.78877 0.0
C616 C 0.41801 0.91597 0.76929 0.0
C617 C 0.43481 0.90925 0.75194 0.0
C618 C 0.42547 0.92606 0.79077 0.0
C619 C 0.44983 0.92977 0.79527 0.0
C620 C 0.4667 0.92299 0.77809 0.0
H621 H 0.51662 0.95269 0.9321 0.0
H622 H 0.50489 0.93856 0.89271 0.0
C623 C 0.45925 0.91282 0.75659 0.0
C624 C 0.45755 0.93991 0.81836 0.0
H625 H 0.48615 0.98747 0.84382 0.0
C626 C 0.45223 0.92715 0.83915 0.0
C627 C 0.46962 0.96208 0.82 0.0
C628 C 0.47488 0.97696 0.79826 0.0
C629 C 0.45899 0.9358 0.86158 0.0
C630 C 0.47164 0.95764 0.86319 0.0
C631 C 0.47662 0.97063 0.84244 0.0
C632 C 0.47979 0.96719 0.88635 0.0
C633 C 0.45233 0.92164 0.88343 0.0
C634 C 0.47007 0.98839 0.89547 0.0
C635 C 0.47675 0.99659 0.91803 0.0
C636 C 0.49338 0.98377 0.93176 0.0
C637 C 0.50365 0.96295 0.92212 0.0
C638 C 0.49693 0.95477 0.89964 0.0
H639 H 0.43807 0.90833 0.87963 0.0
H640 H 0.46827 0.91187 0.88994 0.0
H641 H 0.44613 0.93366 0.8979 0.0
H642 H 0.45689 0.99825 0.88537 0.0
H643 H 0.46856 0.01273 0.92485 0.0
H644 H 0.58757 0.47361 0.78299 0.0
H645 H 0.57288 0.48411 0.74326 0.0
H646 H 0.57322 0.40966 0.72338 0.0
H647 H 0.58828 0.39906 0.76279 0.0
H648 H 0.59617 0.44143 0.69045 0.0
H649 H 0.50484 0.47128 0.71558 0.0
H650 H 0.52906 0.48435 0.73217 0.0
H651 H 0.52306 0.45294 0.73478 0.0
C652 C 0.58452 0.4595 0.77013 0.0
C653 C 0.58898 0.4355 0.77604 0.0
C654 C 0.57595 0.4655 0.74755 0.0
C655 C 0.57173 0.44761 0.73055 0.0
C656 C 0.57622 0.42369 0.73636 0.0
H657 H 0.5002 0.45129 0.59423 0.0
H658 H 0.51294 0.44322 0.63507 0.0
C659 C 0.58467 0.41766 0.75891 0.0
C660 C 0.56347 0.45381 0.70635 0.0
H661 H 0.51623 0.47651 0.67535 0.0
C662 C 0.57872 0.44913 0.68712 0.0
C663 C 0.54061 0.46363 0.70215 0.0
C664 C 0.52329 0.46822 0.72219 0.0
C665 C 0.57176 0.4542 0.6637 0.0
C666 C 0.54905 0.46438 0.65952 0.0
C667 C 0.5337 0.46887 0.67872 0.0
C668 C 0.54081 0.47004 0.6352 0.0
C669 C 0.58856 0.44828 0.64356 0.0
C670 C 0.55206 0.48805 0.62198 0.0
C671 C 0.54483 0.49276 0.59867 0.0
C672 C 0.5262 0.47951 0.58817 0.0
C673 C 0.51467 0.46176 0.6017 0.0
C674 C 0.52187 0.45715 0.62505 0.0
H675 H 0.60318 0.4362 0.64933 0.0
H676 H 0.57874 0.43968 0.62866 0.0
H677 H 0.59671 0.46502 0.63677 0.0
H678 H 0.56654 0.49836 0.62965 0.0
H679 H 0.55405 0.5066 0.58882 0.0
H680 H 0.98014 0.58953 0.28593 0.0
H681 H 0.99288 0.57782 0.24585 0.0
H682 H 0.91921 0.57161 0.22424 0.0
H683 H 0.90633 0.58378 0.26397 0.0
H684 H 0.98115 0.53524 0.21886 0.0
H685 H 0.94966 0.61884 0.17594 0.0
H686 H 0.95381 0.61624 0.20769 0.0
H687 H 0.92769 0.60378 0.1938 0.0
C688 C 0.96668 0.58574 0.2726 0.0
C689 C 0.94223 0.58766 0.27808 0.0
C690 C 0.97397 0.57893 0.2498 0.0
C691 C 0.95697 0.57415 0.23209 0.0
C692 C 0.93259 0.57552 0.23763 0.0
H693 H 0.97156 0.50657 0.09434 0.0
H694 H 0.96262 0.51629 0.1358 0.0
C695 C 0.92528 0.58224 0.2604 0.0
C696 C 0.96464 0.56807 0.20767 0.0
H697 H 0.96219 0.58762 0.15028 0.0
C698 C 0.97712 0.54669 0.20384 0.0
C699 C 0.95957 0.58324 0.18824 0.0
C700 C 0.94713 0.60692 0.19154 0.0
C701 C 0.98421 0.5398 0.18089 0.0
C702 C 0.97844 0.5546 0.16136 0.0
C703 C 0.96642 0.57623 0.16529 0.0
C704 C 0.98468 0.54807 0.13662 0.0
C705 C 0.99802 0.51689 0.17774 0.0
C706 C -0.00024 0.56293 0.12328 0.0
C707 C 0.00483 0.55752 0.09957 0.0
C708 C 0.99474 0.53721 0.08867 0.0
C709 C 0.97969 0.5223 0.10217 0.0
C710 C 0.97467 0.52773 0.12592 0.0
H711 H 0.00607 0.51076 0.19473 0.0
H712 H 0.98574 0.50269 0.17132 0.0
H713 H 0.01245 0.51912 0.16437 0.0
H714 H 0.00754 0.57879 0.13122 0.0
H715 H 0.01646 0.56942 0.08974 0.0
H716 H 0.22793 0.0925 0.06292 0.0
H717 H 0.26562 0.07882 0.04529 0.0
H718 H 0.29751 0.07581 0.11503 0.0
H719 H 0.26016 0.08979 0.13272 0.0
H720 H 0.32522 0.10017 0.07861 0.0
H721 H 0.29393 0.00963 0.05147 0.0
H722 H 0.27582 0.03462 0.04256 0.0
H723 H 0.2785 0.02734 0.07351 0.0
C724 C 0.24301 0.089 0.07446 0.0
C725 C 0.24105 0.09206 0.09921 0.0
C726 C 0.26443 0.08103 0.06439 0.0
C727 C 0.28419 0.07609 0.07892 0.0
C728 C 0.28237 0.0794 0.10356 0.0
H729 H 0.41666 0.00195 0.06203 0.0
H730 H 0.37652 0.01582 0.07202 0.0
C731 C 0.26099 0.08722 0.11364 0.0
C732 C 0.30701 0.0678 0.06858 0.0
H733 H 0.33377 0.0198 0.04222 0.0
C734 C 0.3271 0.08269 0.07047 0.0
C735 C 0.30932 0.0449 0.05819 0.0
C736 C 0.28834 0.02803 0.05637 0.0
C737 C 0.34959 0.07519 0.06242 0.0
C738 C 0.35193 0.05226 0.05208 0.0
C739 C 0.3318 0.03743 0.05001 0.0
C740 C 0.37547 0.04291 0.04465 0.0
C741 C 0.37085 0.0915 0.06572 0.0
C742 C 0.38791 0.05325 0.02561 0.0
C743 C 0.41087 0.04535 0.01979 0.0
C744 C 0.42178 0.02699 0.03298 0.0
C745 C 0.40888 0.0162 0.05158 0.0
C746 C 0.38591 0.02405 0.05729 0.0
H747 H 0.36679 0.10674 0.07772 0.0
H748 H 0.38624 0.08146 0.07312 0.0
H749 H 0.37629 0.0988 0.0482 0.0
H750 H 0.37999 0.06766 0.01548 0.0
H751 H 0.42024 0.05401 0.00531 0.0
H752 H 0.28332 0.95838 0.60491 0.0
H753 H 0.24427 0.97126 0.5898 0.0
H754 H 0.22084 0.89789 0.58705 0.0
H755 H 0.2597 0.88485 0.60224 0.0
H756 H 0.21843 0.94913 0.54346 0.0
H757 H 0.17244 0.94118 0.631 0.0
H758 H 0.20413 0.94697 0.62872 0.0
H759 H 0.19266 0.9178 0.62206 0.0
C760 C 0.26983 0.94502 0.6011 0.0
C761 C 0.27452 0.92062 0.60478 0.0
C762 C 0.24764 0.95238 0.59238 0.0
C763 C 0.22981 0.93549 0.58744 0.0
C764 C 0.23448 0.91113 0.59081 0.0
H765 H 0.07967 0.94414 0.55303 0.0
H766 H 0.11978 0.93182 0.56487 0.0
C767 C 0.25668 0.90374 0.59936 0.0
C768 C 0.20606 0.94328 0.57919 0.0
H769 H 0.14879 0.9516 0.59799 0.0
C770 C 0.20316 0.94978 0.55531 0.0
C771 C 0.18632 0.94388 0.59477 0.0
C772 C 0.18885 0.93721 0.62063 0.0
C773 C 0.18073 0.95659 0.54644 0.0
C774 C 0.16093 0.95744 0.5621 0.0
C775 C 0.16397 0.95096 0.58603 0.0
C776 C 0.13683 0.96482 0.55408 0.0
C777 C 0.17833 0.96216 0.5203 0.0
C778 C 0.13307 0.98753 0.54422 0.0
C779 C 0.11017 0.99457 0.53725 0.0
C780 C 0.09054 0.97915 0.54035 0.0
C781 C 0.09437 0.95647 0.5504 0.0
C782 C 0.11729 0.94939 0.55719 0.0
H783 H 0.19311 0.95417 0.50978 0.0
H784 H 0.16107 0.95549 0.51313 0.0
H785 H 0.17899 0.98181 0.51776 0.0
H786 H 0.14778 -5e-05 0.54222 0.0
H787 H 0.10783 0.01224 0.52976 0.0
H788 H 0.74783 0.43961 0.90241 0.0
H789 H 0.78598 0.45663 0.91519 0.0
H790 H 0.76689 0.44468 0.98846 0.0
H791 H 0.72825 0.42831 0.97596 0.0
H792 H 0.79334 0.49732 0.95297 0.0
H793 H 0.83357 0.40851 0.97291 0.0
H794 H 0.80913 0.41185 0.95218 0.0
H795 H 0.80381 0.41463 0.98349 0.0
C796 C 0.75148 0.44097 0.92127 0.0
C797 C 0.73491 0.43255 0.93816 0.0
C798 C 0.77336 0.45058 0.92851 0.0
C799 C 0.77919 0.45175 0.95271 0.0
C800 C 0.76269 0.44373 0.96967 0.0
H801 H 0.91545 0.48383 0.02029 0.0
H802 H 0.87403 0.47229 0.01256 0.0
C803 C 0.74071 0.43426 0.96247 0.0
C804 C 0.80285 0.4608 0.9601 0.0
H805 H 0.85767 0.44237 0.97906 0.0
C806 C 0.80744 0.48539 0.95878 0.0
C807 C 0.82101 0.44511 0.96776 0.0
C808 C 0.81686 0.41851 0.96914 0.0
C809 C 0.82988 0.49479 0.96497 0.0
C810 C 0.84833 0.47902 0.97202 0.0
C811 C 0.84354 0.45443 0.97364 0.0
C812 C 0.87294 0.48747 0.97719 0.0
C813 C 0.83345 0.52151 0.96422 0.0
C814 C 0.88613 0.49981 0.95987 0.0
C815 C 0.90975 0.50661 0.9643 0.0
C816 C 0.9208 0.50085 0.98602 0.0
C817 C 0.90752 0.48853 0.00336 0.0
C818 C 0.88383 0.48192 0.99898 0.0
H819 H 0.81622 0.53117 0.96599 0.0
H820 H 0.84565 0.52761 0.97859 0.0
H821 H 0.84142 0.52652 0.94686 0.0
H822 H 0.87834 0.50371 0.94268 0.0
H823 H 0.91951 0.51588 0.95046 0.0
H824 H 0.76593 0.55559 0.38689 0.0
H825 H 0.72714 0.54205 0.40164 0.0
H826 H 0.74835 0.55942 0.47329 0.0
H827 H 0.78758 0.57234 0.45888 0.0
H828 H 0.7182 0.5054 0.4418 0.0
H829 H 0.68365 0.59751 0.45701 0.0
H830 H 0.70766 0.5914 0.43641 0.0
H831 H 0.71311 0.59043 0.46781 0.0
C832 C 0.76257 0.55617 0.40584 0.0
C833 C 0.77992 0.56509 0.42169 0.0
C834 C 0.74034 0.54855 0.41419 0.0
C835 C 0.73494 0.54992 0.43847 0.0
C836 C 0.7522 0.55846 0.45444 0.0
H837 H 0.60024 0.52923 0.51275 0.0
H838 H 0.64164 0.53853 0.50244 0.0
C839 C 0.77453 0.56595 0.44614 0.0
C840 C 0.71103 0.5428 0.44698 0.0
H841 H 0.65805 0.56556 0.46645 0.0
C842 C 0.70501 0.51848 0.44727 0.0
C843 C 0.69406 0.55998 0.45419 0.0
C844 C 0.69973 0.58635 0.4538 0.0
C845 C 0.68231 0.51082 0.4547 0.0
C846 C 0.66506 0.52805 0.46136 0.0
C847 C 0.67127 0.55238 0.46132 0.0
C848 C 0.64029 0.52136 0.46795 0.0
C849 C 0.67721 0.48435 0.4557 0.0
C850 C 0.62573 0.50874 0.45193 0.0
C851 C 0.60212 0.50323 0.45783 0.0
C852 C 0.59247 0.51057 0.47975 0.0
C853 C 0.60708 0.52332 0.49572 0.0
C854 C 0.63075 0.52865 0.48986 0.0
H855 H 0.69393 0.47381 0.45733 0.0
H856 H 0.66535 0.47988 0.47089 0.0
H857 H 0.66818 0.47878 0.43902 0.0
H858 H 0.6325 0.50351 0.43465 0.0
H859 H 0.59131 0.49358 0.44503 0.0
H860 H 0.09942 0.27082 0.11788 0.0
H861 H 0.08249 0.30801 0.10254 0.0
H862 H 0.06032 0.27124 0.03864 0.0
H863 H 0.07853 0.23433 0.05351 0.0
H864 H 0.07878 0.31117 0.02696 0.0
H865 H 0.01575 0.33036 0.09984 0.0
H866 H 0.04545 0.32772 0.11135 0.0
H867 H 0.03125 0.30223 0.09762 0.0
C868 C 0.09074 0.27073 0.10065 0.0
C869 C 0.09013 0.24983 0.08687 0.0
C870 C 0.08087 0.2919 0.09197 0.0
C871 C 0.06954 0.29237 0.06967 0.0
C872 C 0.06882 0.27134 0.05596 0.0
H873 H 0.9915 0.42188 0.02916 0.0
H874 H 0.00128 0.38076 0.04041 0.0
C875 C 0.07919 0.25029 0.06442 0.0
C876 C 0.05975 0.31508 0.06007 0.0
H877 H 0.02614 0.36374 0.07478 0.0
C878 C 0.06698 0.32248 0.03731 0.0
C879 C 0.0439 0.3297 0.07324 0.0
C880 C 0.03344 0.32193 0.09673 0.0
C881 C 0.05958 0.34441 0.02778 0.0
C882 C 0.0454 0.35991 0.0418 0.0
C883 C 0.03737 0.35211 0.06415 0.0
C884 C 0.03926 0.38451 0.03398 0.0
C885 C 0.06688 0.35048 0.00266 0.0
C886 C 0.05732 0.4004 0.02681 0.0
C887 C 0.0517 0.42367 0.01988 0.0
C888 C 0.02798 0.4318 0.0207 0.0
C889 C 0.00994 0.41609 0.02835 0.0
C890 C 0.01552 0.39261 0.03478 0.0
H891 H 0.06954 0.33406 0.99186 0.0
H892 H 0.05332 0.36181 0.9937 0.0
H893 H 0.08414 0.36027 0.00302 0.0
H894 H 0.07587 0.39496 0.02688 0.0
H895 H 0.06604 0.43549 0.01445 0.0
H896 H 0.57423 0.26114 0.89241 0.0
H897 H 0.56208 0.2227 0.90916 0.0
H898 H 0.56981 0.2513 0.97999 0.0
H899 H 0.58156 0.29006 0.96335 0.0
H900 H 0.58947 0.19395 0.94108 0.0
H901 H 0.5018 0.22092 0.97907 0.0
H902 H 0.51712 0.23838 0.95677 0.0
H903 H 0.52694 0.23928 0.98715 0.0
C904 C 0.57303 0.25937 0.91155 0.0
C905 C 0.5787 0.27868 0.92657 0.0
C906 C 0.56623 0.23736 0.92107 0.0
C907 C 0.56481 0.23428 0.94577 0.0
C908 C 0.57049 0.25345 0.96086 0.0
H909 H 0.55855 0.09806 0.01984 0.0
H910 H 0.5687 0.1384 0.00659 0.0
C911 C 0.5774 0.27549 0.95134 0.0
C912 C 0.5581 0.2107 0.95561 0.0
H913 H 0.5148 0.18149 0.98702 0.0
C914 C 0.57318 0.19121 0.95117 0.0
C915 C 0.53673 0.20723 0.96855 0.0
C916 C 0.51955 0.22747 0.97307 0.0
C917 C 0.5675 0.16826 0.95946 0.0
C918 C 0.5463 0.16483 0.97269 0.0
C919 C 0.53113 0.18429 0.97701 0.0
C920 C 0.53938 0.14098 0.98167 0.0
C921 C 0.58397 0.14776 0.9536 0.0
C922 C 0.51917 0.12937 0.97245 0.0
C923 C 0.51328 0.1063 0.97996 0.0
C924 C 0.52744 0.0945 0.99697 0.0
C925 C 0.54731 0.10654 0.00664 0.0
C926 C 0.5532 0.12956 0.99905 0.0
H927 H 0.59679 0.15242 0.93924 0.0
H928 H 0.59438 0.14293 0.96969 0.0
H929 H 0.57359 0.13178 0.94802 0.0
H930 H 0.50825 0.13798 0.95907 0.0
H931 H 0.49781 0.09763 0.97222 0.0
H932 H 0.88769 0.74672 0.44505 0.0
H933 H 0.90297 0.78585 0.45718 0.0
H934 H 0.97517 0.75952 0.45212 0.0
H935 H 0.96 0.72032 0.43981 0.0
H936 H 0.93067 0.7993 0.49525 0.0
H937 H 0.97705 0.81875 0.41015 0.0
H938 H 0.95602 0.79448 0.41331 0.0
H939 H 0.98611 0.79135 0.42404 0.0
C940 C 0.90682 0.74919 0.44674 0.0
C941 C 0.92266 0.73048 0.44138 0.0
C942 C 0.91552 0.77158 0.45357 0.0
C943 C 0.9402 0.77569 0.45516 0.0
C944 C 0.95607 0.75688 0.45045 0.0
H945 H 0.00248 0.90162 0.52347 0.0
H946 H 0.99106 0.86072 0.51309 0.0
C947 C 0.94738 0.7345 0.44347 0.0
C948 C 0.94921 0.79973 0.46172 0.0
H949 H 0.98282 0.84645 0.4415 0.0
C950 C 0.94211 0.80962 0.48354 0.0
C951 C 0.96387 0.81324 0.44623 0.0
C952 C 0.97106 0.80406 0.42202 0.0
C953 C 0.94927 0.83269 0.49033 0.0
C954 C 0.96436 0.84599 0.47508 0.0
C955 C 0.97144 0.83611 0.45325 0.0
C956 C 0.97218 0.8706 0.481 0.0
C957 C 0.94006 0.84284 0.51345 0.0
C958 C 0.96607 0.88962 0.46596 0.0
C959 C 0.97278 0.91298 0.47168 0.0
C960 C 0.98576 0.91779 0.49258 0.0
C961 C 0.99231 0.8986 0.50735 0.0
C962 C 0.98569 0.87521 0.50153 0.0
H963 H 0.92411 0.83296 0.51995 0.0
H964 H 0.9542 0.84143 0.52721 0.0
H965 H 0.9353 0.86199 0.51147 0.0
H966 H 0.95574 0.88642 0.44996 0.0
H967 H 0.96745 0.9273 0.45988 0.0
H968 H 0.46146 0.77268 0.59672 0.0
H969 H 0.47872 0.73541 0.58158 0.0
H970 H 0.40845 0.71037 0.56238 0.0
H971 H 0.39091 0.74702 0.57815 0.0
H972 H 0.46251 0.68474 0.59652 0.0
H973 H 0.4532 0.70625 0.50041 0.0
H974 H 0.45483 0.72906 0.52315 0.0
H975 H 0.42777 0.71233 0.51903 0.0
C976 C 0.44963 0.75916 0.5895 0.0
C977 C 0.42478 0.76294 0.58854 0.0
C978 C 0.45956 0.73798 0.58073 0.0
C979 C 0.44483 0.72039 0.57065 0.0
C980 C 0.42009 0.72397 0.5698 0.0
H981 H 0.453 0.58296 0.505 0.0
H982 H 0.4434 0.62312 0.51894 0.0
C983 C 0.41014 0.74499 0.57871 0.0
C984 C 0.45509 0.69794 0.5614 0.0
H985 H 0.46366 0.66645 0.51015 0.0
C986 C 0.46308 0.68075 0.57765 0.0
C987 C 0.45559 0.69292 0.53679 0.0
C988 C 0.44756 0.71112 0.51872 0.0
C989 C 0.47074 0.65815 0.56994 0.0
C990 C 0.47097 0.65296 0.54527 0.0
C991 C 0.46351 0.67047 0.52902 0.0
C992 C 0.47756 0.62905 0.53603 0.0
C993 C 0.47747 0.63973 0.58833 0.0
C994 C 0.50017 0.61924 0.54055 0.0
C995 C 0.50567 0.59615 0.53277 0.0
C996 C 0.48876 0.58259 0.52003 0.0
C997 C 0.46645 0.59286 0.51478 0.0
C998 C 0.46092 0.61583 0.52274 0.0
H999 H 0.47068 0.64451 0.60628 0.0
H1000 H 0.47038 0.62183 0.58346 0.0
H1001 H 0.49722 0.63851 0.58942 0.0
H1002 H 0.5135 0.62936 0.55026 0.0
H1003 H 0.5231 0.58888 0.53691 0.0
H1004 H 0.89357 0.95564 0.78445 0.0
H1005 H 0.90504 0.96248 0.74302 0.0
H1006 H 0.97664 0.98024 0.76562 0.0
H1007 H 0.96543 0.97211 0.80699 0.0
H1008 H 0.91965 0.9993 0.71966 0.0
H1009 H 0.99161 0.93165 0.71649 0.0
H1010 H 0.97153 0.9342 0.7414 0.0
H1011 H 0.99701 0.95378 0.73893 0.0
C1012 C 0.91173 0.96106 0.7805 0.0
C1013 C 0.92869 0.96326 0.79875 0.0
C1014 C 0.91829 0.96493 0.75686 0.0
C1015 C 0.94186 0.97137 0.75109 0.0
C1016 C 0.95858 0.97451 0.7695 0.0
H1017 H 0.97867 0.02998 0.61214 0.0
H1018 H 0.96827 0.02448 0.65396 0.0
C1019 C 0.95215 0.9701 0.79312 0.0
C1020 C 0.94872 0.9749 0.72581 0.0
H1021 H 0.98912 0.95812 0.68352 0.0
C1022 C 0.93478 0.99019 0.71173 0.0
C1023 C 0.9682 0.96268 0.71531 0.0
C1024 C 0.98277 0.94447 0.72875 0.0
C1025 C 0.93977 0.99369 0.68753 0.0
C1026 C 0.95994 0.98238 0.67732 0.0
C1027 C 0.97382 0.96701 0.69138 0.0
C1028 C 0.96674 0.98584 0.65202 0.0
C1029 C 0.92287 0.00887 0.67309 0.0
C1030 C 0.97044 0.96595 0.6372 0.0
C1031 C 0.9771 0.96904 0.61345 0.0
C1032 C 0.97986 0.9921 0.60399 0.0
C1033 C 0.9763 0.01199 0.61885 0.0
C1034 C 0.97017 0.00887 0.64273 0.0
H1035 H 0.9048 0.00946 0.68125 0.0
H1036 H 0.92976 0.02746 0.67242 0.0
H1037 H 0.92111 0.00207 0.65462 0.0
H1038 H 0.96802 0.94798 0.64396 0.0
H1039 H 0.97972 0.95339 0.6024 0.0
H1040 H 0.52078 0.05904 0.31071 0.0
H1041 H 0.51118 0.0481 0.26961 0.0
H1042 H 0.58627 0.04258 0.25355 0.0
H1043 H 0.5961 0.054 0.29431 0.0
H1044 H 0.52692 0.0743 0.22861 0.0
H1045 H 0.55689 0.97974 0.22694 0.0
H1046 H 0.55059 0.99557 0.25425 0.0
H1047 H 0.57829 0.00053 0.23888 0.0
C1048 C 0.53526 0.05545 0.29845 0.0
C1049 C 0.55922 0.0574 0.30583 0.0
C1050 C 0.52973 0.04909 0.27504 0.0
C1051 C 0.54802 0.04431 0.25869 0.0
C1052 C 0.5719 0.04575 0.26606 0.0
H1053 H 0.55014 0.0492 0.10553 0.0
H1054 H 0.55585 0.05554 0.14821 0.0
C1055 C 0.57746 0.05222 0.2894 0.0
C1056 C 0.54226 0.03938 0.23349 0.0
H1057 H 0.54838 0.99773 0.18952 0.0
C1058 C 0.53143 0.0575 0.22008 0.0
C1059 C 0.54806 0.0174 0.22252 0.0
C1060 C 0.55892 0.99707 0.23639 0.0
C1061 C 0.52681 0.05445 0.19574 0.0
C1062 C 0.53337 0.03278 0.1846 0.0
C1063 C 0.54359 0.0144 0.19814 0.0
C1064 C 0.52988 0.02895 0.15883 0.0
C1065 C 0.51493 0.07436 0.18212 0.0
C1066 C 0.51363 0.01166 0.15077 0.0
C1067 C 0.51027 0.00801 0.12641 0.0
C1068 C 0.52331 0.02144 0.10968 0.0
C1069 C 0.53978 0.03859 0.1179 0.0
C1070 C 0.543 0.04232 0.14227 0.0
H1071 H 0.50639 0.08758 0.19416 0.0
H1072 H 0.52855 0.08385 0.17132 0.0
H1073 H 0.50118 0.06714 0.1698 0.0
H1074 H 0.50343 0.00112 0.16334 0.0
H1075 H 0.49753 0.99458 0.12073 0.0
H1076 H 0.43617 0.51674 0.21078 0.0
H1077 H 0.4478 0.50372 0.25074 0.0
H1078 H 0.45386 0.57726 0.27296 0.0
H1079 H 0.44204 0.59042 0.23329 0.0
H1080 H 0.49247 0.54786 0.28741 0.0
H1081 H 0.40397 0.50845 0.30978 0.0
H1082 H 0.41751 0.49778 0.28281 0.0
H1083 H 0.40822 0.52841 0.28493 0.0
C1084 C 0.43988 0.53013 0.22421 0.0
C1085 C 0.43812 0.55462 0.21886 0.0
C1086 C 0.44653 0.52266 0.247 0.0
C1087 C 0.45141 0.53955 0.26482 0.0
C1088 C 0.45018 0.56396 0.25941 0.0
H1089 H 0.45412 0.53059 0.41706 0.0
H1090 H 0.44582 0.53809 0.37509 0.0
C1091 C 0.44354 0.57144 0.23669 0.0
C1092 C 0.45747 0.53197 0.28929 0.0
H1093 H 0.43437 0.505 0.33864 0.0
C1094 C 0.47986 0.53836 0.2986 0.0
C1095 C 0.44083 0.51981 0.30385 0.0
C1096 C 0.4162 0.51333 0.29499 0.0
C1097 C 0.48601 0.53305 0.32221 0.0
C1098 C 0.46941 0.52079 0.33673 0.0
C1099 C 0.44709 0.51425 0.32736 0.0
C1100 C 0.4744 0.51565 0.36206 0.0
C1101 C 0.5099 0.54125 0.33165 0.0
C1102 C 0.49304 0.50029 0.36859 0.0
C1103 C 0.49789 0.49596 0.3926 0.0
C1104 C 0.48409 0.50686 0.41049 0.0
C1105 C 0.46517 0.52195 0.40379 0.0
C1106 C 0.46035 0.52624 0.37981 0.0
H1107 H 0.51839 0.55472 0.31985 0.0
H1108 H 0.50799 0.54906 0.34971 0.0
H1109 H 0.52207 0.52567 0.33294 0.0
H1110 H 0.50384 0.49164 0.35512 0.0
H1111 H 0.51251 0.48414 0.3971 0.0
H1112 H 0.09644 0.45293 0.72931 0.0
H1113 H 0.08609 0.46754 0.7689 0.0
H1114 H 0.01128 0.4579 0.75326 0.0
H1115 H 0.02142 0.4436 0.71331 0.0
H1116 H 0.05526 0.50654 0.78326 0.0
H1117 H 0.02401 0.41734 0.81419 0.0
H1118 H 0.04196 0.4211 0.78778 0.0
H1119 H 0.01075 0.42839 0.78723 0.0
C1120 C 0.07775 0.45431 0.73407 0.0
C1121 C 0.05975 0.44704 0.71813 0.0
C1122 C 0.07189 0.46255 0.75676 0.0
C1123 C 0.04797 0.46353 0.76403 0.0
C1124 C 0.02988 0.45692 0.74804 0.0
H1125 H 0.99724 0.52689 0.89703 0.0
H1126 H 0.00304 0.5171 0.85499 0.0
C1127 C 0.03571 0.44871 0.72528 0.0
C1128 C 0.04218 0.47076 0.78866 0.0
H1129 H 0.02148 0.44918 0.84154 0.0
C1130 C 0.04772 0.4941 0.796 0.0
C1131 C 0.03261 0.45433 0.8052 0.0
C1132 C 0.02711 0.42881 0.79838 0.0
C1133 C 0.044 0.50144 0.81959 0.0
C1134 C 0.03439 0.48501 0.83611 0.0
C1135 C 0.02873 0.46173 0.82873 0.0
C1136 C 0.03102 0.4913 0.86143 0.0
C1137 C 0.05099 0.52645 0.82688 0.0
C1138 C 0.04467 0.47981 0.8789 0.0
C1139 C 0.04144 0.48533 0.90291 0.0
C1140 C 0.02432 0.50233 0.9099 0.0
C1141 C 0.01061 0.51376 0.89228 0.0
C1142 C 0.01394 0.50827 0.86824 0.0
H1143 H 0.06211 0.53542 0.81316 0.0
H1144 H 0.03461 0.53725 0.82963 0.0
H1145 H 0.06103 0.52619 0.84392 0.0
H1146 H 0.05789 0.46659 0.87394 0.0
H1147 H 0.05226 0.47613 0.91597 0.0
H1148 H 0.80292 0.98903 0.96336 0.0
H1149 H 0.76263 0.00159 0.9748 0.0
H1150 H 0.74524 0.92898 0.99379 0.0
H1151 H 0.7852 0.9162 0.98209 0.0
H1152 H 0.72018 0.98441 0.95437 0.0
H1153 H 0.72203 0.96771 0.05153 0.0
H1154 H 0.74886 0.97001 0.03383 0.0
H1155 H 0.73187 0.94271 0.03406 0.0
C1156 C 0.79055 0.97575 0.97006 0.0
C1157 C 0.79731 0.95161 0.97185 0.0
C1158 C 0.76761 0.98298 0.97671 0.0
C1159 C 0.75111 0.96626 0.98544 0.0
C1160 C 0.7579 0.94226 0.98762 0.0
H1161 H 0.59819 0.96369 0.98351 0.0
H1162 H 0.64105 0.95831 0.97745 0.0
C1163 C 0.78078 0.935 0.98094 0.0
C1164 C 0.72621 0.97344 0.99058 0.0
H1165 H 0.68346 0.97292 0.03386 0.0
C1166 C 0.71221 0.98216 0.97181 0.0
C1167 C 0.71596 0.9707 0.01339 0.0
C1168 C 0.7305 0.96249 0.03444 0.0
C1169 C 0.68792 0.98735 0.97504 0.0
C1170 C 0.67738 0.98344 0.99754 0.0
C1171 C 0.69158 0.97563 0.01656 0.0
C1172 C 0.65147 0.9867 0.00147 0.0
C1173 C 0.67369 0.99685 0.95431 0.0
C1174 C 0.6432 0.00411 0.0174 0.0
C1175 C 0.61869 0.00725 0.02096 0.0
C1176 C 0.60203 0.99284 0.00879 0.0
C1177 C 0.61048 0.97516 0.99311 0.0
C1178 C 0.63497 0.97212 0.98952 0.0
H1179 H 0.68545 0.00456 0.94037 0.0
H1180 H 0.66334 0.982 0.94619 0.0
H1181 H 0.66088 0.01076 0.96024 0.0
H1182 H 0.65572 0.01543 0.02688 0.0
H1183 H 0.61283 0.02097 0.03322 0.0
H1184 H 0.72981 0.09054 0.45432 0.0
H1185 H 0.77132 0.08306 0.46528 0.0
H1186 H 0.75886 0.00711 0.46115 0.0
H1187 H 0.71693 0.0144 0.45084 0.0
H1188 H 0.78587 0.02196 0.50153 0.0
H1189 H 0.82163 0.05933 0.41731 0.0
H1190 H 0.80198 0.0791 0.43311 0.0
H1191 H 0.79055 0.05157 0.42112 0.0
C1192 C 0.73575 0.07222 0.45611 0.0
C1193 C 0.72006 0.05304 0.45167 0.0
C1194 C 0.75955 0.068 0.46211 0.0
C1195 C 0.7682 0.04456 0.46362 0.0
C1196 C 0.75251 0.02534 0.45988 0.0
H1197 H 0.91726 0.00306 0.46275 0.0
H1198 H 0.87482 0.00842 0.45432 0.0
C1199 C 0.72864 0.02954 0.45386 0.0
C1200 C 0.79374 0.04021 0.46877 0.0
H1201 H 0.84991 0.05058 0.44754 0.0
C1202 C 0.79991 0.02812 0.48972 0.0
C1203 C 0.81193 0.04801 0.45313 0.0
C1204 C 0.80626 0.06003 0.42979 0.0
C1205 C 0.82391 0.02405 0.49572 0.0
C1206 C 0.84211 0.03261 0.48048 0.0
C1207 C 0.8359 0.04427 0.4593 0.0
C1208 C 0.86777 0.02932 0.48593 0.0
C1209 C 0.82957 0.01034 0.51811 0.0
C1210 C 0.87792 0.03961 0.50634 0.0
C1211 C 0.90221 0.03659 0.51126 0.0
C1212 C 0.91681 0.02333 0.49573 0.0
C1213 C 0.90658 0.01335 0.47512 0.0
C1214 C 0.88231 0.01637 0.47025 0.0
H1215 H 0.81391 -8e-05 0.52447 0.0
H1216 H 0.84473 0.99791 0.51521 0.0
H1217 H 0.83471 0.02311 0.53234 0.0
H1218 H 0.86708 0.05011 0.5184 0.0
H1219 H 0.90951 0.04461 0.52723 0.0
H1220 H 0.2815 0.57183 0.09142 0.0
H1221 H 0.24143 0.56052 0.07844 0.0
H1222 H 0.26268 0.56895 0.00522 0.0
H1223 H 0.30303 0.58011 0.01806 0.0
H1224 H 0.22032 0.59247 0.01657 0.0
H1225 H 0.21795 0.49849 0.0475 0.0
H1226 H 0.22682 0.51925 0.07023 0.0
H1227 H 0.24544 0.51516 0.04449 0.0
C1228 C 0.27784 0.5708 0.07253 0.0
C1229 C 0.29551 0.57676 0.05576 0.0
C1230 C 0.2549 0.56435 0.06515 0.0
C1231 C 0.2492 0.56359 0.04088 0.0
C1232 C 0.26679 0.56935 0.02405 0.0
H1233 H 0.11306 0.50794 0.98859 0.0
H1234 H 0.15565 0.51559 0.99469 0.0
C1235 C 0.28977 0.57581 0.03142 0.0
C1236 C 0.22449 0.55809 0.03322 0.0
H1237 H 0.18037 0.51616 0.0376 0.0
C1238 C 0.21164 0.5757 0.02094 0.0
C1239 C 0.21332 0.53609 0.0387 0.0
C1240 C 0.22665 0.51605 0.05075 0.0
C1241 C 0.1876 0.57222 0.01473 0.0
C1242 C 0.17608 0.5507 0.02131 0.0
C1243 C 0.18918 0.53275 0.03282 0.0
C1244 C 0.15031 0.54667 0.01694 0.0
C1245 C 0.17474 0.59159 0.00119 0.0
C1246 C 0.13322 0.56154 0.02759 0.0
C1247 C 0.10886 0.55726 0.02415 0.0
C1248 C 0.10113 0.53791 0.01011 0.0
C1249 C 0.11836 0.52304 0.99947 0.0
C1250 C 0.14271 0.52735 0.00293 0.0
H1251 H 0.18747 0.60358 0.99182 0.0
H1252 H 0.1622 0.58384 0.98794 0.0
H1253 H 0.16427 0.60261 0.01385 0.0
H1254 H 0.13871 0.57627 0.03887 0.0
H1255 H 0.09612 0.569 0.03271 0.0
H1256 H 0.21103 0.44432 0.53351 0.0
H1257 H 0.25192 0.45162 0.5197 0.0
H1258 H 0.27407 0.46608 0.59178 0.0
H1259 H 0.23339 0.45879 0.60571 0.0
H1260 H 0.29187 0.49886 0.55909 0.0
H1261 H 0.30776 0.40534 0.52973 0.0
H1262 H 0.28202 0.41939 0.51679 0.0
H1263 H 0.28274 0.41364 0.54821 0.0
C1264 C 0.22464 0.44902 0.5464 0.0
C1265 C 0.21899 0.45093 0.57071 0.0
C1266 C 0.24797 0.45314 0.5385 0.0
C1267 C 0.26606 0.45903 0.55478 0.0
C1268 C 0.26036 0.46153 0.57894 0.0
H1269 H 0.41923 0.45007 0.54226 0.0
H1270 H 0.37691 0.44484 0.55162 0.0
C1271 C 0.23707 0.45748 0.58684 0.0
C1272 C 0.29105 0.4624 0.54684 0.0
H1273 H 0.3385 0.43332 0.52205 0.0
C1274 C 0.30207 0.48458 0.55092 0.0
C1275 C 0.30435 0.44361 0.53648 0.0
C1276 C 0.29375 0.41907 0.5327 0.0
C1277 C 0.32609 0.48848 0.54491 0.0
C1278 C 0.33927 0.46981 0.53419 0.0
C1279 C 0.32826 0.44764 0.5301 0.0
C1280 C 0.36478 0.47268 0.52786 0.0
C1281 C 0.33732 0.51233 0.55072 0.0
C1282 C 0.37192 0.4898 0.51109 0.0
C1283 C 0.3961 0.49291 0.50576 0.0
C1284 C 0.41359 0.47882 0.51697 0.0
C1285 C 0.40628 0.46128 0.53335 0.0
C1286 C 0.38209 0.45824 0.5387 0.0
H1287 H 0.32663 0.52248 0.56396 0.0
H1288 H 0.35569 0.51 0.55779 0.0
H1289 H 0.33846 0.52321 0.53428 0.0
H1290 H 0.35878 0.50079 0.50217 0.0
H1291 H 0.40106 0.50645 0.49292 0.0
H1292 H 0.99475 0.81159 0.9403 0.0
H1293 H 0.00511 0.77013 0.94976 0.0
H1294 H 0.93052 0.75357 0.95976 0.0
H1295 H 0.92001 0.79477 0.95025 0.0
H1296 H 0.95994 0.73492 0.99522 0.0
H1297 H 0.99375 0.71325 0.90481 0.0
H1298 H 0.00762 0.73864 0.91875 0.0
H1299 H 0.9765 0.73975 0.91101 0.0
C1300 C 0.98057 0.79909 0.94448 0.0
C1301 C 0.95656 0.80647 0.9445 0.0
C1302 C 0.98651 0.77543 0.94984 0.0
C1303 C 0.96854 0.75874 0.95512 0.0
C1304 C 0.94465 0.76619 0.95572 0.0
H1305 H 0.97193 0.60442 0.95235 0.0
H1306 H 0.96478 0.64694 0.94528 0.0
C1307 C 0.9387 0.78979 0.95041 0.0
C1308 C 0.97442 0.7334 0.9598 0.0
H1309 H 0.99747 0.68317 0.93408 0.0
C1310 C 0.96821 0.72359 0.98191 0.0
C1311 C 0.9849 0.71865 0.94223 0.0
C1312 C 0.99092 0.72797 0.91778 0.0
C1313 C 0.97226 0.69939 0.98697 0.0
C1314 C 0.98314 0.68474 0.96956 0.0
C1315 C 0.98929 0.69453 0.94743 0.0
C1316 C 0.98779 0.65906 0.97379 0.0
C1317 C 0.9643 0.68957 0.01067 0.0
C1318 C 0.00334 0.65184 0.99195 0.0
C1319 C 0.00743 0.62759 0.99609 0.0
C1320 C 0.99614 0.61006 0.98202 0.0
C1321 C 0.98086 0.61741 0.96357 0.0
C1322 C 0.97677 0.64169 0.95947 0.0
H1323 H 0.95114 0.70148 0.01951 0.0
H1324 H 0.95618 0.67157 0.00857 0.0
H1325 H 0.98003 0.68791 0.02256 0.0
H1326 H 0.01239 0.66499 0.0029 0.0
H1327 H 0.01944 0.62261 0.01035 0.0
H1328 H 0.42068 0.73446 0.07513 0.0
H1329 H 0.43265 0.77478 0.06368 0.0
H1330 H 0.50673 0.75572 0.07242 0.0
H1331 H 0.49494 0.71505 0.08358 0.0
H1332 H 0.49328 0.79867 0.09548 0.0
H1333 H 0.464 0.79722 0.00121 0.0
H1334 H 0.4414 0.78775 0.02184 0.0
H1335 H 0.46814 0.77032 0.01845 0.0
C1336 C 0.43955 0.73865 0.07418 0.0
C1337 C 0.45687 0.72146 0.08012 0.0
C1338 C 0.44635 0.76173 0.06766 0.0
C1339 C 0.47057 0.7681 0.0669 0.0
C1340 C 0.48794 0.75107 0.07282 0.0
H1341 H 0.52219 0.90361 0.00983 0.0
H1342 H 0.5163 0.86117 0.01832 0.0
C1343 C 0.48116 0.72791 0.07929 0.0
C1344 C 0.47758 0.79288 0.06097 0.0
H1345 H 0.47295 0.83548 0.01784 0.0
C1346 C 0.48905 0.80668 0.07843 0.0
C1347 C 0.47225 0.80316 0.03863 0.0
C1348 C 0.46097 0.78881 0.01885 0.0
C1349 C 0.49461 0.8308 0.07443 0.0
C1350 C 0.48827 0.84138 0.0525 0.0
C1351 C 0.47756 0.82735 0.03473 0.0
C1352 C 0.49219 0.86709 0.04778 0.0
C1353 C 0.50724 0.84477 0.09368 0.0
C1354 C 0.48037 0.88443 0.0614 0.0
C1355 C 0.48364 0.90871 0.0566 0.0
C1356 C 0.49875 0.91608 0.038 0.0
C1357 C 0.51049 0.89859 0.02433 0.0
C1358 C 0.50715 0.87432 0.02912 0.0
H1359 H 0.51634 0.83279 0.10655 0.0
H1360 H 0.52066 0.85716 0.08596 0.0
H1361 H 0.49395 0.85555 0.10362 0.0
H1362 H 0.46839 0.87917 0.0756 0.0
H1363 H 0.47425 0.92166 0.06744 0.0
H1364 H 0.03567 0.29636 0.57477 0.0
H1365 H 0.02277 0.25489 0.56897 0.0
H1366 H 0.09555 0.23431 0.55453 0.0
H1367 H 0.10872 0.27534 0.56122 0.0
H1368 H 0.0272 0.22499 0.52961 0.0
H1369 H 0.07607 0.18813 0.60704 0.0
H1370 H 0.07143 0.21978 0.60296 0.0
H1371 H 0.09493 0.20466 0.58716 0.0
C1372 C 0.04895 0.28296 0.57056 0.0
C1373 C 0.07325 0.28916 0.56858 0.0
C1374 C 0.04153 0.25933 0.56711 0.0
C1375 C 0.05828 0.24149 0.56176 0.0
C1376 C 0.08241 0.24773 0.55914 0.0
H1377 H 0.06007 0.09263 0.52602 0.0
H1378 H 0.06825 0.13479 0.53388 0.0
C1379 C 0.08985 0.27128 0.56264 0.0
C1380 C 0.05062 0.21633 0.55873 0.0
H1381 H 0.06081 0.1598 0.57909 0.0
C1382 C 0.03433 0.21074 0.54057 0.0
C1383 C 0.05988 0.19783 0.57317 0.0
C1384 C 0.07636 0.20288 0.59383 0.0
C1385 C 0.02774 0.18697 0.53587 0.0
C1386 C 0.03757 0.16846 0.54986 0.0
C1387 C 0.05344 0.17409 0.56833 0.0
C1388 C 0.03225 0.14303 0.54511 0.0
C1389 C 0.01093 0.18171 0.51554 0.0
C1390 C 0.00932 0.13371 0.54909 0.0
C1391 C 0.00457 0.10957 0.54471 0.0
C1392 C 0.02268 0.09435 0.53625 0.0
C1393 C 0.04567 0.10381 0.53245 0.0
C1394 C 0.05041 0.1279 0.53694 0.0
H1395 H 0.0082 0.19753 0.50395 0.0
H1396 H 0.01786 0.16675 0.50453 0.0
H1397 H 0.99332 0.17619 0.52276 0.0
H1398 H 0.99517 0.1451 0.5557 0.0
H1399 H 0.98668 0.10287 0.54787 0.0
H1400 H 0.53037 0.19864 0.45854 0.0
H1401 H 0.51665 0.23968 0.46519 0.0
H1402 H 0.58956 0.2627 0.47503 0.0
H1403 H 0.6034 0.22188 0.46838 0.0
H1404 H 0.55838 0.28147 0.50864 0.0
H1405 H 0.52409 0.29389 0.41669 0.0
H1406 H 0.51195 0.26864 0.43231 0.0
H1407 H 0.54316 0.26925 0.42487 0.0
C1408 C 0.54346 0.21247 0.4621 0.0
C1409 C 0.56798 0.20703 0.4629 0.0
C1410 C 0.5356 0.23588 0.46585 0.0
C1411 C 0.55213 0.25425 0.47024 0.0
C1412 C 0.57653 0.24876 0.47164 0.0
H1413 H 0.54031 0.40688 0.45609 0.0
H1414 H 0.54868 0.36423 0.45195 0.0
C1415 C 0.58439 0.2254 0.46797 0.0
C1416 C 0.54423 0.27932 0.4731 0.0
H1417 H 0.51806 0.32573 0.44366 0.0
C1418 C 0.54946 0.29115 0.4945 0.0
C1419 C 0.5329 0.29192 0.45446 0.0
C1420 C 0.52785 0.28041 0.43069 0.0
C1421 C 0.54374 0.31533 0.49775 0.0
C1422 C 0.53211 0.32785 0.47924 0.0
C1423 C 0.52681 0.316 0.45787 0.0
C1424 C 0.52618 0.35353 0.48136 0.0
C1425 C 0.55087 0.32745 0.52069 0.0
C1426 C 0.51039 0.36157 0.49899 0.0
C1427 C 0.50563 0.38595 0.50149 0.0
C1428 C 0.51644 0.40273 0.48625 0.0
C1429 C 0.53173 0.39449 0.46817 0.0
C1430 C 0.53652 0.37012 0.46575 0.0
H1431 H 0.56457 0.31706 0.53053 0.0
H1432 H 0.558 0.34565 0.51727 0.0
H1433 H 0.53493 0.32917 0.53229 0.0
H1434 H 0.50184 0.349 0.5109 0.0
H1435 H 0.49361 0.39162 0.51548 0.0
loop_
_geom_bond_atom_site_label_1
_geom_bond_atom_site_label_2
_geom_bond_distance
_geom_bond_site_symmetry_2
_ccdc_geom_bond_type
C0 C1 1.391 . S
C0 C4 1.391 . S
C0 H42 0.948 . S
C1 C0 1.391 . S
C1 C2 1.391 . S
C2 C1 1.391 . S
C2 H58 0.947 . S
C2 C59 1.392 . S
C3 C4 1.391 . S
C3 C7 1.397 . S
C3 C59 1.419 . S
C4 C0 1.391 . S
C4 C3 1.391 . S
C4 C5 1.399 . S
C5 C4 1.399 . S
C5 C8 1.396 . S
C5 C17 1.453 . S
C5 C18 1.684 . S
H6 C30 0.948 . S
C7 C3 1.397 . S
C7 C8 1.394 . S
C7 C26 1.723 . S
C8 C5 1.396 . S
C8 C7 1.394 . S
C8 C38 1.723 . S
H9 C32 0.947 . S
H10 C33 0.948 . S
H11 C39 0.982 . S
H12 C40 0.979 . S
H13 C40 0.980 . S
H14 C40 0.983 . S
H15 C39 0.979 . S
H16 C39 0.977 . S
C17 C5 1.453 . S
C17 H46 0.982 . S
C17 H47 0.979 . S
C17 H48 0.977 . S
C18 C5 1.684 . S
C18 H43 0.979 . S
C18 H44 0.980 . S
C18 H45 0.983 . S
C19 C20 1.391 . S
C19 C24 1.391 . S
C19 H49 0.948 . S
C20 C19 1.391 . S
C20 C21 1.391 . S
C21 C20 1.391 . S
C21 C22 1.392 . S
C21 H50 0.947 . S
C22 C21 1.392 . S
C22 C23 1.419 . S
C22 H51 0.948 . S
C23 C22 1.419 . S
C23 C24 1.391 . S
C23 C27 1.397 . S
C24 C19 1.391 . S
C24 C23 1.391 . S
C24 C25 1.399 . S
C25 C24 1.399 . S
C25 C26 1.396 . S
C25 C28 1.453 . S
C25 C29 1.684 . S
C26 C7 1.723 . S
C26 C25 1.396 . S
C26 C27 1.394 . S
C27 C23 1.397 . S
C27 C26 1.394 . S
C27 C37 1.723 . S
C28 C25 1.453 . S
C28 H52 0.982 . S
C28 H53 0.979 . S
C28 H54 0.977 . S
C29 C25 1.684 . S
C29 H55 0.979 . S
C29 H56 0.980 . S
C29 H57 0.983 . S
C30 H6 0.948 . S
C30 C31 1.391 . S
C30 C35 1.391 . S
C31 C30 1.391 . S
C31 C32 1.391 . S
C32 H9 0.947 . S
C32 C31 1.391 . S
C32 C33 1.392 . S
C33 H10 0.948 . S
C33 C32 1.392 . S
C33 C34 1.419 . S
C34 C33 1.419 . S
C34 C35 1.391 . S
C34 C38 1.397 . S
C35 C30 1.391 . S
C35 C34 1.391 . S
C35 C36 1.399 . S
C36 C35 1.399 . S
C36 C37 1.396 . S
C36 C39 1.453 . S
C36 C40 1.684 . S
C37 C27 1.723 . S
C37 C36 1.396 . S
C37 C38 1.394 . S
C38 C8 1.723 . S
C38 C34 1.397 . S
C38 C37 1.394 . S
C39 H11 0.982 . S
C39 H15 0.979 . S
C39 H16 0.977 . S
C39 C36 1.453 . S
C40 H12 0.979 . S
C40 H13 0.980 . S
C40 H14 0.983 . S
C40 C36 1.684 . S
H41 C59 0.948 . S
H42 C0 0.948 . S
H43 C18 0.979 . S
H44 C18 0.980 . S
H45 C18 0.983 . S
H46 C17 0.982 . S
H47 C17 0.979 . S
H48 C17 0.977 . S
H49 C19 0.948 . S
H50 C21 0.947 . S
H51 C22 0.948 . S
H52 C28 0.982 . S
H53 C28 0.979 . S
H54 C28 0.977 . S
H55 C29 0.979 . S
H56 C29 0.980 . S
H57 C29 0.983 . S
H58 C2 0.947 . S
C59 C2 1.392 . S
C59 C3 1.419 . S
C59 H41 0.948 . S
C60 C61 1.391 . S
C60 C64 1.391 . S
C60 H102 0.948 . S
C61 C60 1.391 . S
C61 C62 1.391 . S
C62 C61 1.391 . S
C62 H118 0.947 . S
C62 C119 1.392 . S
C63 C64 1.391 . S
C63 C67 1.397 . S
C63 C119 1.419 . S
C64 C60 1.391 . S
C64 C63 1.391 . S
C64 C65 1.399 . S
C65 C64 1.399 . S
C65 C68 1.396 . S
C65 C77 1.453 . S
C65 C78 1.684 . S
H66 C90 0.948 . S
C67 C63 1.397 . S
C67 C68 1.394 . S
C67 C86 1.723 . S
C68 C65 1.396 . S
C68 C67 1.394 . S
C68 C98 1.723 . S
H69 C92 0.947 . S
H70 C93 0.948 . S
H71 C99 0.982 . S
H72 C100 0.979 . S
H73 C100 0.980 . S
H74 C100 0.983 . S
H75 C99 0.979 . S
H76 C99 0.977 . S
C77 C65 1.453 . S
C77 H106 0.982 . S
C77 H107 0.979 . S
C77 H108 0.977 . S
C78 C65 1.684 . S
C78 H103 0.979 . S
C78 H104 0.980 . S
C78 H105 0.983 . S
C79 C80 1.391 . S
C79 C84 1.391 . S
C79 H109 0.948 . S
C80 C79 1.391 . S
C80 C81 1.391 . S
C81 C80 1.391 . S
C81 C82 1.392 . S
C81 H110 0.947 . S
C82 C81 1.392 . S
C82 C83 1.419 . S
C82 H111 0.948 . S
C83 C82 1.419 . S
C83 C84 1.391 . S
C83 C87 1.397 . S
C84 C79 1.391 . S
C84 C83 1.391 . S
C84 C85 1.399 . S
C85 C84 1.399 . S
C85 C86 1.396 . S
C85 C88 1.453 . S
C85 C89 1.684 . S
C86 C67 1.723 . S
C86 C85 1.396 . S
C86 C87 1.394 . S
C87 C83 1.397 . S
C87 C86 1.394 . S
C87 C97 1.723 . S
C88 C85 1.453 . S
C88 H112 0.982 . S
C88 H113 0.979 . S
C88 H114 0.977 . S
C89 C85 1.684 . S
C89 H115 0.979 . S
C89 H116 0.980 . S
C89 H117 0.983 . S
C90 H66 0.948 . S
C90 C91 1.391 . S
C90 C95 1.391 . S
C91 C90 1.391 . S
C91 C92 1.391 . S
C92 H69 0.947 . S
C92 C91 1.391 . S
C92 C93 1.392 . S
C93 H70 0.948 . S
C93 C92 1.392 . S
C93 C94 1.419 . S
C94 C93 1.419 . S
C94 C95 1.391 . S
C94 C98 1.397 . S
C95 C90 1.391 . S
C95 C94 1.391 . S
C95 C96 1.399 . S
C96 C95 1.399 . S
C96 C97 1.396 . S
C96 C99 1.453 . S
C96 C100 1.684 . S
C97 C87 1.723 . S
C97 C96 1.396 . S
C97 C98 1.394 . S
C98 C68 1.723 . S
C98 C94 1.397 . S
C98 C97 1.394 . S
C99 H71 0.982 . S
C99 H75 0.979 . S
C99 H76 0.977 . S
C99 C96 1.453 . S
C100 H72 0.979 . S
C100 H73 0.980 . S
C100 H74 0.983 . S
C100 C96 1.684 . S
H101 C119 0.948 . S
H102 C60 0.948 . S
H103 C78 0.979 . S
H104 C78 0.980 . S
H105 C78 0.983 . S
H106 C77 0.982 . S
H107 C77 0.979 . S
H108 C77 0.977 . S
H109 C79 0.948 . S
H110 C81 0.947 . S
H111 C82 0.948 . S
H112 C88 0.982 . S
H113 C88 0.979 . S
H114 C88 0.977 . S
H115 C89 0.979 . S
H116 C89 0.980 . S
H117 C89 0.983 . S
H118 C62 0.947 . S
C119 C62 1.392 . S
C119 C63 1.419 . S
C119 H101 0.948 . S
C120 C121 1.391 . S
C120 C124 1.391 . S
C120 H162 0.948 . S
C121 C120 1.391 . S
C121 C122 1.391 . S
C122 C121 1.391 . S
C122 H178 0.947 . S
C122 C179 1.392 . S
C123 C124 1.391 . S
C123 C127 1.397 . S
C123 C179 1.419 . S
C124 C120 1.391 . S
C124 C123 1.391 . S
C124 C125 1.399 . S
C125 C124 1.399 . S
C125 C128 1.396 . S
C125 C137 1.453 . S
C125 C138 1.684 . S
H126 C150 0.948 . S
C127 C123 1.397 . S
C127 C128 1.394 . S
C127 C146 1.723 . S
C128 C125 1.396 . S
C128 C127 1.394 . S
C128 C158 1.723 . S
H129 C152 0.947 . S
H130 C153 0.948 . S
H131 C159 0.982 . S
H132 C160 0.979 . S
H133 C160 0.980 . S
H134 C160 0.983 . S
H135 C159 0.979 . S
H136 C159 0.977 . S
C137 C125 1.453 . S
C137 H166 0.982 . S
C137 H167 0.979 . S
C137 H168 0.977 . S
C138 C125 1.684 . S
C138 H163 0.979 . S
C138 H164 0.980 . S
C138 H165 0.983 . S
C139 C140 1.391 . S
C139 C144 1.391 . S
C139 H169 0.948 . S
C140 C139 1.391 . S
C140 C141 1.391 . S
C141 C140 1.391 . S
C141 C142 1.392 . S
C141 H170 0.947 . S
C142 C141 1.392 . S
C142 C143 1.419 . S
C142 H171 0.948 . S
C143 C142 1.419 . S
C143 C144 1.391 . S
C143 C147 1.397 . S
C144 C139 1.391 . S
C144 C143 1.391 . S
C144 C145 1.399 . S
C145 C144 1.399 . S
C145 C146 1.396 . S
C145 C148 1.453 . S
C145 C149 1.684 . S
C146 C127 1.723 . S
C146 C145 1.396 . S
C146 C147 1.394 . S
C147 C143 1.397 . S
C147 C146 1.394 . S
C147 C157 1.723 . S
C148 C145 1.453 . S
C148 H172 0.982 . S
C148 H173 0.979 . S
C148 H174 0.977 . S
C149 C145 1.684 . S
C149 H175 0.979 . S
C149 H176 0.980 . S
C149 H177 0.983 . S
C150 H126 0.948 . S
C150 C151 1.391 . S
C150 C155 1.391 . S
C151 C150 1.391 . S
C151 C152 1.391 . S
C152 H129 0.947 . S
C152 C151 1.391 . S
C152 C153 1.392 . S
C153 H130 0.948 . S
C153 C152 1.392 . S
C153 C154 1.419 . S
C154 C153 1.419 . S
C154 C155 1.391 . S
C154 C158 1.397 . S
C155 C150 1.391 . S
C155 C154 1.391 . S
C155 C156 1.399 . S
C156 C155 1.399 . S
C156 C157 1.396 . S
C156 C159 1.453 . S
C156 C160 1.684 . S
C157 C147 1.723 . S
C157 C156 1.396 . S
C157 C158 1.394 . S
C158 C128 1.723 . S
C158 C154 1.397 . S
C158 C157 1.394 . S
C159 H131 0.982 . S
C159 H135 0.979 . S
C159 H136 0.977 . S
C159 C156 1.453 . S
C160 H132 0.979 . S
C160 H133 0.980 . S
C160 H134 0.983 . S
C160 C156 1.684 . S
H161 C179 0.948 . S
H162 C120 0.948 . S
H163 C138 0.979 . S
H164 C138 0.980 . S
H165 C138 0.983 . S
H166 C137 0.982 . S
H167 C137 0.979 . S
H168 C137 0.977 . S
H169 C139 0.948 . S
H170 C141 0.947 . S
H171 C142 0.948 . S
H172 C148 0.982 . S
H173 C148 0.979 . S
H174 C148 0.977 . S
H175 C149 0.979 . S
H176 C149 0.980 . S
H177 C149 0.983 . S
H178 C122 0.947 . S
C179 C122 1.392 . S
C179 C123 1.419 . S
C179 H161 0.948 . S
C180 C181 1.391 . S
C180 C184 1.391 . S
C180 H222 0.948 . S
C181 C180 1.391 . S
C181 C182 1.391 . S
C182 C181 1.391 . S
C182 H238 0.947 . S
C182 C239 1.392 . S
C183 C184 1.391 . S
C183 C187 1.397 . S
C183 C239 1.419 . S
C184 C180 1.391 . S
C184 C183 1.391 . S
C184 C185 1.399 . S
C185 C184 1.399 . S
C185 C188 1.396 . S
C185 C197 1.453 . S
C185 C198 1.684 . S
H186 C210 0.948 . S
C187 C183 1.397 . S
C187 C188 1.394 . S
C187 C206 1.723 . S
C188 C185 1.396 . S
C188 C187 1.394 . S
C188 C218 1.723 . S
H189 C212 0.947 . S
H190 C213 0.948 . S
H191 C219 0.982 . S
H192 C220 0.979 . S
H193 C220 0.980 . S
H194 C220 0.983 . S
H195 C219 0.979 . S
H196 C219 0.977 . S
C197 C185 1.453 . S
C197 H226 0.982 . S
C197 H227 0.979 . S
C197 H228 0.977 . S
C198 C185 1.684 . S
C198 H223 0.979 . S
C198 H224 0.980 . S
C198 H225 0.983 . S
C199 C200 1.391 . S
C199 C204 1.391 . S
C199 H229 0.948 . S
C200 C199 1.391 . S
C200 C201 1.391 . S
C201 C200 1.391 . S
C201 C202 1.392 . S
C201 H230 0.947 . S
C202 C201 1.392 . S
C202 C203 1.419 . S
C202 H231 0.948 . S
C203 C202 1.419 . S
C203 C204 1.391 . S
C203 C207 1.397 . S
C204 C199 1.391 . S
C204 C203 1.391 . S
C204 C205 1.399 . S
C205 C204 1.399 . S
C205 C206 1.396 . S
C205 C208 1.453 . S
C205 C209 1.684 . S
C206 C187 1.723 . S
C206 C205 1.396 . S
C206 C207 1.394 . S
C207 C203 1.397 . S
C207 C206 1.394 . S
C207 C217 1.723 . S
C208 C205 1.453 . S
C208 H232 0.982 . S
C208 H233 0.979 . S
C208 H234 0.977 . S
C209 C205 1.684 . S
C209 H235 0.979 . S
C209 H236 0.980 . S
C209 H237 0.983 . S
C210 H186 0.948 . S
C210 C211 1.391 . S
C210 C215 1.391 . S
C211 C210 1.391 . S
C211 C212 1.391 . S
C212 H189 0.947 . S
C212 C211 1.391 . S
C212 C213 1.392 . S
C213 H190 0.948 . S
C213 C212 1.392 . S
C213 C214 1.419 . S
C214 C213 1.419 . S
C214 C215 1.391 . S
C214 C218 1.397 . S
C215 C210 1.391 . S
C215 C214 1.391 . S
C215 C216 1.399 . S
C216 C215 1.399 . S
C216 C217 1.396 . S
C216 C219 1.453 . S
C216 C220 1.684 . S
C217 C207 1.723 . S
C217 C216 1.396 . S
C217 C218 1.394 . S
C218 C188 1.723 . S
C218 C214 1.397 . S
C218 C217 1.394 . S
C219 H191 0.982 . S
C219 H195 0.979 . S
C219 H196 0.977 . S
C219 C216 1.453 . S
C220 H192 0.979 . S
C220 H193 0.980 . S
C220 H194 0.983 . S
C220 C216 1.684 . S
H221 C239 0.948 . S
H222 C180 0.948 . S
H223 C198 0.979 . S
H224 C198 0.980 . S
H225 C198 0.983 . S
H226 C197 0.982 . S
H227 C197 0.979 . S
H228 C197 0.977 . S
H229 C199 0.948 . S
H230 C201 0.947 . S
H231 C202 0.948 . S
H232 C208 0.982 . S
H233 C208 0.979 . S
H234 C208 0.977 . S
H235 C209 0.979 . S
H236 C209 0.980 . S
H237 C209 0.983 . S
H238 C182 0.947 . S
C239 C182 1.392 . S
C239 C183 1.419 . S
C239 H221 0.948 . S
C240 C241 1.391 . S
C240 C244 1.391 . S
C240 H282 0.948 . S
C241 C240 1.391 . S
C241 C242 1.391 . S
C242 C241 1.391 . S
C242 H298 0.947 . S
C242 C299 1.392 . S
C243 C244 1.391 . S
C243 C247 1.397 . S
C243 C299 1.419 . S
C244 C240 1.391 . S
C244 C243 1.391 . S
C244 C245 1.399 . S
C245 C244 1.399 . S
C245 C248 1.396 . S
C245 C257 1.453 . S
C245 C258 1.684 . S
H246 C270 0.948 . S
C247 C243 1.397 . S
C247 C248 1.394 . S
C247 C266 1.723 . S
C248 C245 1.396 . S
C248 C247 1.394 . S
C248 C278 1.723 . S
H249 C272 0.947 . S
H250 C273 0.948 . S
H251 C279 0.982 . S
H252 C280 0.979 1_545 S
H253 C280 0.980 . S
H254 C280 0.983 1_545 S
H255 C279 0.979 . S
H256 C279 0.977 . S
C257 C245 1.453 . S
C257 H286 0.982 . S
C257 H287 0.979 . S
C257 H288 0.977 . S
C258 C245 1.684 . S
C258 H283 0.979 . S
C258 H284 0.980 . S
C258 H285 0.983 . S
C259 C260 1.391 . S
C259 C264 1.391 . S
C259 H289 0.948 . S
C260 C259 1.391 . S
C260 C261 1.391 . S
C261 C260 1.391 . S
C261 C262 1.392 . S
C261 H290 0.947 . S
C262 C261 1.392 . S
C262 C263 1.419 . S
C262 H291 0.948 . S
C263 C262 1.419 . S
C263 C264 1.391 . S
C263 C267 1.397 . S
C264 C259 1.391 . S
C264 C263 1.391 . S
C264 C265 1.399 . S
C265 C264 1.399 . S
C265 C266 1.396 . S
C265 C268 1.453 . S
C265 C269 1.684 . S
C266 C247 1.723 . S
C266 C265 1.396 . S
C266 C267 1.394 . S
C267 C263 1.397 . S
C267 C266 1.394 . S
C267 C277 1.723 . S
C268 C265 1.453 . S
C268 H292 0.982 . S
C268 H293 0.979 . S
C268 H294 0.977 . S
C269 C265 1.684 . S
C269 H295 0.979 . S
C269 H296 0.980 . S
C269 H297 0.983 . S
C270 H246 0.948 . S
C270 C271 1.391 . S
C270 C275 1.391 . S
C271 C270 1.391 . S
C271 C272 1.391 . S
C272 H249 0.947 . S
C272 C271 1.391 . S
C272 C273 1.392 . S
C273 H250 0.948 . S
C273 C272 1.392 . S
C273 C274 1.419 . S
C274 C273 1.419 . S
C274 C275 1.391 . S
C274 C278 1.397 . S
C275 C270 1.391 . S
C275 C274 1.391 . S
C275 C276 1.399 . S
C276 C275 1.399 . S
C276 C277 1.396 . S
C276 C279 1.453 . S
C276 C280 1.684 . S
C277 C267 1.723 . S
C277 C276 1.396 . S
C277 C278 1.394 . S
C278 C248 1.723 . S
C278 C274 1.397 . S
C278 C277 1.394 . S
C279 H251 0.982 . S
C279 H255 0.979 . S
C279 H256 0.977 . S
C279 C276 1.453 . S
C280 H252 0.979 1_565 S
C280 H253 0.980 . S
C280 H254 0.983 1_565 S
C280 C276 1.684 . S
H281 C299 0.948 . S
H282 C240 0.948 . S
H283 C258 0.979 . S
H284 C258 0.980 . S
H285 C258 0.983 . S
H286 C257 0.982 . S
H287 C257 0.979 . S
H288 C257 0.977 . S
H289 C259 0.948 . S
H290 C261 0.947 . S
H291 C262 0.948 . S
H292 C268 0.982 . S
H293 C268 0.979 . S
H294 C268 0.977 . S
H295 C269 0.979 . S
H296 C269 0.980 . S
H297 C269 0.983 . S
H298 C242 0.947 . S
C299 C242 1.392 . S
C299 C243 1.419 . S
C299 H281 0.948 . S
C300 C301 1.391 . S
C300 C304 1.391 . S
C300 H342 0.948 . S
C301 C300 1.391 . S
C301 C302 1.391 . S
C302 C301 1.391 . S
C302 H358 0.947 . S
C302 C359 1.392 . S
C303 C304 1.391 . S
C303 C307 1.397 . S
C303 C359 1.419 . S
C304 C300 1.391 . S
C304 C303 1.391 . S
C304 C305 1.399 . S
C305 C304 1.399 . S
C305 C308 1.396 . S
C305 C317 1.453 . S
C305 C318 1.684 . S
H306 C330 0.948 . S
C307 C303 1.397 . S
C307 C308 1.394 . S
C307 C326 1.723 . S
C308 C305 1.396 . S
C308 C307 1.394 . S
C308 C338 1.723 . S
H309 C332 0.947 . S
H310 C333 0.948 . S
H311 C339 0.982 . S
H312 C340 0.979 . S
H313 C340 0.980 . S
H314 C340 0.983 . S
H315 C339 0.979 . S
H316 C339 0.977 . S
C317 C305 1.453 . S
C317 H346 0.982 . S
C317 H347 0.979 . S
C317 H348 0.977 . S
C318 C305 1.684 . S
C318 H343 0.979 . S
C318 H344 0.980 . S
C318 H345 0.983 . S
C319 C320 1.391 . S
C319 C324 1.391 . S
C319 H349 0.948 . S
C320 C319 1.391 . S
C320 C321 1.391 . S
C321 C320 1.391 . S
C321 C322 1.392 . S
C321 H350 0.947 . S
C322 C321 1.392 . S
C322 C323 1.419 . S
C322 H351 0.948 . S
C323 C322 1.419 . S
C323 C324 1.391 . S
C323 C327 1.397 . S
C324 C319 1.391 . S
C324 C323 1.391 . S
C324 C325 1.399 . S
C325 C324 1.399 . S
C325 C326 1.396 . S
C325 C328 1.453 . S
C325 C329 1.684 . S
C326 C307 1.723 . S
C326 C325 1.396 . S
C326 C327 1.394 . S
C327 C323 1.397 . S
C327 C326 1.394 . S
C327 C337 1.723 . S
C328 C325 1.453 . S
C328 H352 0.982 . S
C328 H353 0.979 . S
C328 H354 0.977 . S
C329 C325 1.684 . S
C329 H355 0.979 . S
C329 H356 0.980 . S
C329 H357 0.983 . S
C330 H306 0.948 . S
C330 C331 1.391 . S
C330 C335 1.391 . S
C331 C330 1.391 . S
C331 C332 1.391 . S
C332 H309 0.947 . S
C332 C331 1.391 . S
C332 C333 1.392 . S
C333 H310 0.948 . S
C333 C332 1.392 . S
C333 C334 1.419 . S
C334 C333 1.419 . S
C334 C335 1.391 . S
C334 C338 1.397 . S
C335 C330 1.391 . S
C335 C334 1.391 . S
C335 C336 1.399 . S
C336 C335 1.399 . S
C336 C337 1.396 . S
C336 C339 1.453 . S
C336 C340 1.684 . S
C337 C327 1.723 . S
C337 C336 1.396 . S
C337 C338 1.394 . S
C338 C308 1.723 . S
C338 C334 1.397 . S
C338 C337 1.394 . S
C339 H311 0.982 . S
C339 H315 0.979 . S
C339 H316 0.977 . S
C339 C336 1.453 . S
C340 H312 0.979 . S
C340 H313 0.980 . S
C340 H314 0.983 . S
C340 C336 1.684 . S
H341 C359 0.948 . S
H342 C300 0.948 . S
H343 C318 0.979 . S
H344 C318 0.980 . S
H345 C318 0.983 . S
H346 C317 0.982 . S
H347 C317 0.979 . S
H348 C317 0.977 . S
H349 C319 0.948 . S
H350 C321 0.947 . S
H351 C322 0.948 . S
H352 C328 0.982 . S
H353 C328 0.979 . S
H354 C328 0.977 . S
H355 C329 0.979 . S
H356 C329 0.980 . S
H357 C329 0.983 . S
H358 C302 0.947 . S
C359 C302 1.392 . S
C359 C303 1.419 . S
C359 H341 0.948 . S
C360 C361 1.391 . S
C360 C364 1.391 . S
C360 H402 0.948 . S
C361 C360 1.391 . S
C361 C362 1.391 . S
C362 C361 1.391 . S
C362 H418 0.947 . S
C362 C419 1.392 . S
C363 C364 1.391 . S
C363 C367 1.397 . S
C363 C419 1.419 . S
C364 C360 1.391 . S
C364 C363 1.391 . S
C364 C365 1.399 . S
C365 C364 1.399 . S
C365 C368 1.396 . S
C365 C377 1.453 . S
C365 C378 1.684 . S
H366 C390 0.948 . S
C367 C363 1.397 . S
C367 C368 1.394 . S
C367 C386 1.723 . S
C368 C365 1.396 . S
C368 C367 1.394 . S
C368 C398 1.723 . S
H369 C392 0.947 . S
H370 C393 0.948 . S
H371 C399 0.982 . S
H372 C400 0.979 . S
H373 C400 0.980 . S
H374 C400 0.983 . S
H375 C399 0.979 . S
H376 C399 0.977 . S
C377 C365 1.453 . S
C377 H406 0.982 . S
C377 H407 0.979 . S
C377 H408 0.977 . S
C378 C365 1.684 . S
C378 H403 0.979 . S
C378 H404 0.980 . S
C378 H405 0.983 . S
C379 C380 1.391 . S
C379 C384 1.391 . S
C379 H409 0.948 . S
C380 C379 1.391 . S
C380 C381 1.391 . S
C381 C380 1.391 . S
C381 C382 1.392 . S
C381 H410 0.947 . S
C382 C381 1.392 . S
C382 C383 1.419 . S
C382 H411 0.948 . S
C383 C382 1.419 . S
C383 C384 1.391 . S
C383 C387 1.397 . S
C384 C379 1.391 . S
C384 C383 1.391 . S
C384 C385 1.399 . S
C385 C384 1.399 . S
C385 C386 1.396 . S
C385 C388 1.453 . S
C385 C389 1.684 . S
C386 C367 1.723 . S
C386 C385 1.396 . S
C386 C387 1.394 . S
C387 C383 1.397 . S
C387 C386 1.394 . S
C387 C397 1.723 . S
C388 C385 1.453 . S
C388 H412 0.982 . S
C388 H413 0.979 . S
C388 H414 0.977 . S
C389 C385 1.684 . S
C389 H415 0.979 . S
C389 H416 0.980 . S
C389 H417 0.983 . S
C390 H366 0.948 . S
C390 C391 1.391 . S
C390 C395 1.391 . S
C391 C390 1.391 . S
C391 C392 1.391 . S
C392 H369 0.947 . S
C392 C391 1.391 . S
C392 C393 1.392 . S
C393 H370 0.948 . S
C393 C392 1.392 . S
C393 C394 1.419 . S
C394 C393 1.419 . S
C394 C395 1.391 . S
C394 C398 1.397 . S
C395 C390 1.391 . S
C395 C394 1.391 . S
C395 C396 1.399 . S
C396 C395 1.399 . S
C396 C397 1.396 . S
C396 C399 1.453 . S
C396 C400 1.684 . S
C397 C387 1.723 . S
C397 C396 1.396 . S
C397 C398 1.394 . S
C398 C368 1.723 . S
C398 C394 1.397 . S
C398 C397 1.394 . S
C399 H371 0.982 . S
C399 H375 0.979 . S
C399 H376 0.977 . S
C399 C396 1.453 . S
C400 H372 0.979 . S
C400 H373 0.980 . S
C400 H374 0.983 . S
C400 C396 1.684 . S
H401 C419 0.948 . S
H402 C360 0.948 . S
H403 C378 0.979 . S
H404 C378 0.980 . S
H405 C378 0.983 . S
H406 C377 0.982 . S
H407 C377 0.979 . S
H408 C377 0.977 . S
H409 C379 0.948 . S
H410 C381 0.947 . S
H411 C382 0.948 . S
H412 C388 0.982 . S
H413 C388 0.979 . S
H414 C388 0.977 . S
H415 C389 0.979 . S
H416 C389 0.980 . S
H417 C389 0.983 . S
H418 C362 0.947 . S
C419 C362 1.392 . S
C419 C363 1.419 . S
C419 H401 0.948 . S
C420 C421 1.391 . S
C420 C424 1.391 . S
C420 H462 0.948 . S
C421 C420 1.391 . S
C421 C422 1.391 . S
C422 C421 1.391 . S
C422 H478 0.947 . S
C422 C479 1.392 . S
C423 C424 1.391 . S
C423 C427 1.397 . S
C423 C479 1.419 . S
C424 C420 1.391 . S
C424 C423 1.391 . S
C424 C425 1.399 . S
C425 C424 1.399 . S
C425 C428 1.396 . S
C425 C437 1.453 . S
C425 C438 1.684 . S
H426 C450 0.948 . S
C427 C423 1.397 . S
C427 C428 1.394 . S
C427 C446 1.723 . S
C428 C425 1.396 . S
C428 C427 1.394 . S
C428 C458 1.723 . S
H429 C452 0.947 . S
H430 C453 0.948 . S
H431 C459 0.982 . S
H432 C460 0.979 . S
H433 C460 0.980 . S
H434 C460 0.983 . S
H435 C459 0.979 . S
H436 C459 0.977 . S
C437 C425 1.453 . S
C437 H466 0.982 . S
C437 H467 0.979 . S
C437 H468 0.977 . S
C438 C425 1.684 . S
C438 H463 0.979 . S
C438 H464 0.980 . S
C438 H465 0.983 . S
C439 C440 1.391 . S
C439 C444 1.391 . S
C439 H469 0.948 . S
C440 C439 1.391 . S
C440 C441 1.391 . S
C441 C440 1.391 . S
C441 C442 1.392 . S
C441 H470 0.947 . S
C442 C441 1.392 . S
C442 C443 1.419 . S
C442 H471 0.948 . S
C443 C442 1.419 . S
C443 C444 1.391 . S
C443 C447 1.397 . S
C444 C439 1.391 . S
C444 C443 1.391 . S
C444 C445 1.399 . S
C445 C444 1.399 . S
C445 C446 1.396 . S
C445 C448 1.453 . S
C445 C449 1.684 . S
C446 C427 1.723 . S
C446 C445 1.396 . S
C446 C447 1.394 . S
C447 C443 1.397 . S
C447 C446 1.394 . S
C447 C457 1.723 . S
C448 C445 1.453 . S
C448 H472 0.982 . S
C448 H473 0.979 . S
C448 H474 0.977 . S
C449 C445 1.684 . S
C449 H475 0.979 . S
C449 H476 0.980 . S
C449 H477 0.983 . S
C450 H426 0.948 . S
C450 C451 1.391 . S
C450 C455 1.391 . S
C451 C450 1.391 . S
C451 C452 1.391 . S
C452 H429 0.947 . S
C452 C451 1.391 . S
C452 C453 1.392 . S
C453 H430 0.948 . S
C453 C452 1.392 . S
C453 C454 1.419 . S
C454 C453 1.419 . S
C454 C455 1.391 . S
C454 C458 1.397 . S
C455 C450 1.391 . S
C455 C454 1.391 . S
C455 C456 1.399 . S
C456 C455 1.399 . S
C456 C457 1.396 . S
C456 C459 1.453 . S
C456 C460 1.684 . S
C457 C447 1.723 . S
C457 C456 1.396 . S
C457 C458 1.394 . S
C458 C428 1.723 . S
C458 C454 1.397 . S
C458 C457 1.394 . S
C459 H431 0.982 . S
C459 H435 0.979 . S
C459 H436 0.977 . S
C459 C456 1.453 . S
C460 H432 0.979 . S
C460 H433 0.980 . S
C460 H434 0.983 . S
C460 C456 1.684 . S
H461 C479 0.948 . S
H462 C420 0.948 . S
H463 C438 0.979 . S
H464 C438 0.980 . S
H465 C438 0.983 . S
H466 C437 0.982 . S
H467 C437 0.979 . S
H468 C437 0.977 . S
H469 C439 0.948 . S
H470 C441 0.947 . S
H471 C442 0.948 . S
H472 C448 0.982 . S
H473 C448 0.979 . S
H474 C448 0.977 . S
H475 C449 0.979 . S
H476 C449 0.980 . S
H477 C449 0.983 . S
H478 C422 0.947 . S
C479 C422 1.392 . S
C479 C423 1.419 . S
C479 H461 0.948 . S
O480 Zn481 1.969 . S
O480 C496 1.190 1_655 S
Zn481 O480 1.969 . S
Zn481 O482 1.949 1_655 S
Zn481 O488 1.919 . S
Zn481 O493 1.924 . S
O482 Zn481 1.949 1_455 S
O482 Zn483 1.923 1_445 S
O482 Zn484 1.950 . S
O482 Zn485 1.945 1_545 S
Zn483 O482 1.923 1_665 S
Zn483 O486 1.933 . S
Zn483 O489 1.941 1_565 S
Zn483 O490 1.965 1_665 S
Zn484 O482 1.950 . S
Zn484 O491 1.938 . S
Zn484 O492 1.902 1_545 S
Zn484 O502 1.953 . S
Zn485 O482 1.945 1_565 S
Zn485 O487 1.932 1_455 S
Zn485 O494 1.977 . S
Zn485 O495 1.910 1_455 S
O486 Zn483 1.933 . S
O486 C497 1.226 . S
O487 Zn485 1.932 1_655 S
O487 C497 1.307 . S
O488 Zn481 1.919 . S
O488 C499 1.253 . S
O489 Zn483 1.941 1_545 S
O489 C499 1.283 . S
O490 Zn483 1.965 1_445 S
O490 C498 1.303 . S
O491 Zn484 1.938 . S
O491 C498 1.247 . S
O492 Zn484 1.902 1_565 S
O492 C500 1.309 . S
O493 Zn481 1.924 . S
O493 C501 1.294 1_545 S
O494 Zn485 1.977 . S
O494 C500 1.272 . S
O495 Zn485 1.910 1_655 S
O495 C501 1.249 . S
C496 O480 1.190 1_455 S
C496 O502 1.298 . S
C497 O486 1.226 . S
C497 O487 1.307 . S
C498 O490 1.303 . S
C498 O491 1.247 . S
C499 O488 1.253 . S
C499 O489 1.283 . S
C500 O492 1.309 . S
C500 O494 1.272 . S
C501 O493 1.294 1_565 S
C501 O495 1.249 . S
O502 Zn484 1.953 . S
O502 C496 1.298 . S
O503 Zn504 1.953 . S
O503 C519 1.225 . S
Zn504 O503 1.953 . S
Zn504 O505 1.949 1_556 S
Zn504 O511 1.919 . S
Zn504 O516 1.924 1_556 S
O505 Zn504 1.949 1_554 S
O505 Zn506 1.923 1_545 S
O505 Zn507 1.950 . S
O505 Zn508 1.945 1_545 S
Zn506 O505 1.923 1_565 S
Zn506 O509 1.933 . S
Zn506 O512 1.941 1_554 S
Zn506 O513 1.965 . S
Zn507 O505 1.950 . S
Zn507 O514 1.938 . S
Zn507 O515 1.906 . S
Zn507 O525 1.953 . S
Zn508 O505 1.945 1_565 S
Zn508 O510 1.932 . S
Zn508 O517 1.977 1_565 S
Zn508 O518 1.910 1_565 S
O509 Zn506 1.933 . S
O509 C520 1.226 . S
O510 Zn508 1.932 . S
O510 C520 1.307 . S
O511 Zn504 1.919 . S
O511 C522 1.253 1_545 S
O512 Zn506 1.941 1_556 S
O512 C522 1.283 . S
O513 Zn506 1.965 . S
O513 C521 1.303 . S
O514 Zn507 1.938 . S
O514 C521 1.247 1_545 S
O515 Zn507 1.906 . S
O515 C523 1.304 . S
O516 Zn504 1.924 1_554 S
O516 C524 1.311 . S
O517 Zn508 1.977 1_545 S
O517 C523 1.272 . S
O518 Zn508 1.910 1_545 S
O518 C524 1.231 . S
C519 O503 1.225 . S
C519 O525 1.298 1_556 S
C520 O509 1.226 . S
C520 O510 1.307 . S
C521 O513 1.303 . S
C521 O514 1.247 1_565 S
C522 O511 1.253 1_565 S
C522 O512 1.283 . S
C523 O515 1.304 . S
C523 O517 1.272 . S
C524 O516 1.311 . S
C524 O518 1.231 . S
O525 Zn507 1.953 . S
O525 C519 1.298 1_554 S
O526 Zn527 1.953 . S
O526 C542 1.225 . S
Zn527 O526 1.953 . S
Zn527 O528 1.949 . S
Zn527 O534 1.919 . S
Zn527 O539 1.924 . S
O528 Zn527 1.949 . S
O528 Zn529 1.923 . S
O528 Zn530 1.950 . S
O528 Zn531 1.945 . S
Zn529 O528 1.923 . S
Zn529 O532 1.933 . S
Zn529 O535 1.941 . S
Zn529 O536 1.965 . S
Zn530 O528 1.950 . S
Zn530 O537 1.938 . S
Zn530 O538 1.906 . S
Zn530 O548 1.953 . S
Zn531 O528 1.945 . S
Zn531 O533 1.932 . S
Zn531 O540 1.977 . S
Zn531 O541 1.910 . S
O532 Zn529 1.933 . S
O532 C543 1.226 . S
O533 Zn531 1.932 . S
O533 C543 1.307 . S
O534 Zn527 1.919 . S
O534 C545 1.253 . S
O535 Zn529 1.941 . S
O535 C545 1.283 . S
O536 Zn529 1.965 . S
O536 C544 1.303 . S
O537 Zn530 1.938 . S
O537 C544 1.247 . S
O538 Zn530 1.906 . S
O538 C546 1.304 . S
O539 Zn527 1.924 . S
O539 C547 1.311 . S
O540 Zn531 1.977 . S
O540 C546 1.272 . S
O541 Zn531 1.910 . S
O541 C547 1.231 . S
C542 O526 1.225 . S
C542 O548 1.298 . S
C543 O532 1.226 . S
C543 O533 1.307 . S
C544 O536 1.303 . S
C544 O537 1.247 . S
C545 O534 1.253 . S
C545 O535 1.283 . S
C546 O538 1.304 . S
C546 O540 1.272 . S
C547 O539 1.311 . S
C547 O541 1.231 . S
O548 Zn530 1.953 . S
O548 C542 1.298 . S
O549 Zn550 1.953 . S
O549 C565 1.225 . S
Zn550 O549 1.953 . S
Zn550 O551 1.949 1_655 S
Zn550 O557 1.919 . S
Zn550 O562 1.924 . S
O551 Zn550 1.949 1_455 S
O551 Zn552 1.923 1_454 S
O551 Zn553 1.950 . S
O551 Zn554 1.945 1_554 S
Zn552 O551 1.923 1_656 S
Zn552 O555 1.933 1_655 S
Zn552 O558 1.941 . S
Zn552 O559 1.965 . S
Zn553 O551 1.950 . S
Zn553 O560 1.938 . S
Zn553 O561 1.906 . S
Zn553 O571 1.953 . S
Zn554 O551 1.945 1_556 S
Zn554 O556 1.932 . S
Zn554 O563 1.977 1_556 S
Zn554 O564 1.910 1_556 S
O555 Zn552 1.933 1_455 S
O555 C566 1.226 . S
O556 Zn554 1.932 . S
O556 C566 1.307 . S
O557 Zn550 1.919 . S
O557 C568 1.253 1_554 S
O558 Zn552 1.941 . S
O558 C568 1.283 . S
O559 Zn552 1.965 . S
O559 C567 1.303 . S
O560 Zn553 1.938 . S
O560 C567 1.247 1_454 S
O561 Zn553 1.906 . S
O561 C569 1.304 . S
O562 Zn550 1.924 . S
O562 C570 1.311 1_655 S
O563 Zn554 1.977 1_554 S
O563 C569 1.272 . S
O564 Zn554 1.910 1_554 S
O564 C570 1.231 . S
C565 O549 1.225 . S
C565 O571 1.298 1_655 S
C566 O555 1.226 . S
C566 O556 1.307 . S
C567 O559 1.303 . S
C567 O560 1.247 1_656 S
C568 O557 1.253 1_556 S
C568 O558 1.283 . S
C569 O561 1.304 . S
C569 O563 1.272 . S
C570 O562 1.311 1_455 S
C570 O564 1.231 . S
O571 Zn553 1.953 . S
O571 C565 1.298 1_455 S
H572 C580 0.929 . S
H573 C582 0.930 . S
H574 C584 0.930 . S
H575 C587 0.929 . S
H576 C590 0.930 . S
H577 C592 0.960 . S
H578 C592 0.960 . S
H579 C592 0.960 . S
C580 H572 0.929 . S
C580 C581 1.377 . S
C580 C582 1.384 . S
C581 C580 1.377 . S
C581 C587 1.390 . S
C582 H573 0.930 . S
C582 C580 1.384 . S
C582 C583 1.372 . S
C583 C582 1.372 . S
C583 C584 1.400 . S
C583 C588 1.490 . S
C584 H574 0.930 . S
C584 C583 1.400 . S
C584 C587 1.386 . S
H585 C601 0.930 . S
H586 C602 0.931 . S
C587 H575 0.929 . S
C587 C581 1.390 . S
C587 C584 1.386 . S
C588 C583 1.490 . S
C588 C590 1.395 . S
C588 C591 1.403 . S
H589 C595 0.930 . S
C590 H576 0.930 . S
C590 C588 1.395 . S
C590 C593 1.403 . S
C591 C588 1.403 . S
C591 C592 1.524 . S
C591 C595 1.400 . S
C592 H577 0.960 . S
C592 H578 0.960 . S
C592 H579 0.960 . S
C592 C591 1.524 . S
C593 C590 1.403 . S
C593 C594 1.392 . S
C593 C597 1.495 . S
C594 C593 1.392 . S
C594 C595 1.385 . S
C594 C596 1.478 . S
C595 H589 0.930 . S
C595 C591 1.400 . S
C595 C594 1.385 . S
C596 C594 1.478 . S
C596 C598 1.381 . S
C596 C602 1.383 . S
C597 C593 1.495 . S
C597 H603 0.937 1_455 S
C597 H604 0.961 . S
C597 H605 0.960 . S
C598 C596 1.381 . S
C598 C599 1.394 . S
C598 H606 0.930 . S
C599 C598 1.394 . S
C599 C600 1.383 . S
C599 H607 0.929 . S
C600 C599 1.383 . S
C600 C601 1.377 . S
C601 H585 0.930 . S
C601 C600 1.377 . S
C601 C602 1.379 . S
C602 H586 0.931 . S
C602 C596 1.383 . S
C602 C601 1.379 . S
H603 C597 0.937 1_655 S
H604 C597 0.961 . S
H605 C597 0.960 . S
H606 C598 0.930 . S
H607 C599 0.929 . S
H608 C616 0.929 . S
H609 C618 0.930 . S
H610 C620 0.930 . S
H611 C623 0.929 . S
H612 C626 0.930 . S
H613 C628 0.960 . S
H614 C628 0.960 . S
H615 C628 0.960 . S
C616 H608 0.929 . S
C616 C617 1.377 . S
C616 C618 1.384 . S
C617 C616 1.377 . S
C617 C623 1.390 . S
C618 H609 0.930 . S
C618 C616 1.384 . S
C618 C619 1.372 . S
C619 C618 1.372 . S
C619 C620 1.400 . S
C619 C624 1.490 . S
C620 H610 0.930 . S
C620 C619 1.400 . S
C620 C623 1.386 . S
H621 C637 0.930 . S
H622 C638 0.931 . S
C623 H611 0.929 . S
C623 C617 1.390 . S
C623 C620 1.386 . S
C624 C619 1.490 . S
C624 C626 1.395 . S
C624 C627 1.403 . S
H625 C631 0.930 . S
C626 H612 0.930 . S
C626 C624 1.395 . S
C626 C629 1.403 . S
C627 C624 1.403 . S
C627 C628 1.524 . S
C627 C631 1.400 . S
C628 H613 0.960 . S
C628 H614 0.960 . S
C628 H615 0.960 . S
C628 C627 1.524 . S
C629 C626 1.403 . S
C629 C630 1.392 . S
C629 C633 1.495 . S
C630 C629 1.392 . S
C630 C631 1.385 . S
C630 C632 1.478 . S
C631 H625 0.930 . S
C631 C627 1.400 . S
C631 C630 1.385 . S
C632 C630 1.478 . S
C632 C634 1.381 . S
C632 C638 1.383 . S
C633 C629 1.495 . S
C633 H639 0.959 . S
C633 H640 0.961 . S
C633 H641 0.960 . S
C634 C632 1.381 . S
C634 C635 1.394 . S
C634 H642 0.930 . S
C635 C634 1.394 . S
C635 C636 1.383 . S
C635 H643 0.929 . S
C636 C635 1.383 . S
C636 C637 1.377 . S
C637 H621 0.930 . S
C637 C636 1.377 . S
C637 C638 1.379 . S
C638 H622 0.931 . S
C638 C632 1.383 . S
C638 C637 1.379 . S
H639 C633 0.959 . S
H640 C633 0.961 . S
H641 C633 0.960 . S
H642 C634 0.930 . S
H643 C635 0.929 . S
H644 C652 0.929 . S
H645 C654 0.930 . S
H646 C656 0.930 . S
H647 C659 0.929 . S
H648 C662 0.930 . S
H649 C664 0.960 . S
H650 C664 0.960 . S
H651 C664 0.960 . S
C652 H644 0.929 . S
C652 C653 1.377 . S
C652 C654 1.384 . S
C653 C652 1.377 . S
C653 C659 1.390 . S
C654 H645 0.930 . S
C654 C652 1.384 . S
C654 C655 1.372 . S
C655 C654 1.372 . S
C655 C656 1.400 . S
C655 C660 1.490 . S
C656 H646 0.930 . S
C656 C655 1.400 . S
C656 C659 1.386 . S
H657 C673 0.930 . S
H658 C674 0.931 . S
C659 H647 0.929 . S
C659 C653 1.390 . S
C659 C656 1.386 . S
C660 C655 1.490 . S
C660 C662 1.395 . S
C660 C663 1.403 . S
H661 C667 0.930 . S
C662 H648 0.930 . S
C662 C660 1.395 . S
C662 C665 1.403 . S
C663 C660 1.403 . S
C663 C664 1.524 . S
C663 C667 1.400 . S
C664 H649 0.960 . S
C664 H650 0.960 . S
C664 H651 0.960 . S
C664 C663 1.524 . S
C665 C662 1.403 . S
C665 C666 1.392 . S
C665 C669 1.495 . S
C666 C665 1.392 . S
C666 C667 1.385 . S
C666 C668 1.478 . S
C667 H661 0.930 . S
C667 C663 1.400 . S
C667 C666 1.385 . S
C668 C666 1.478 . S
C668 C670 1.381 . S
C668 C674 1.383 . S
C669 C665 1.495 . S
C669 H675 0.959 . S
C669 H676 0.961 . S
C669 H677 0.960 . S
C670 C668 1.381 . S
C670 C671 1.394 . S
C670 H678 0.930 . S
C671 C670 1.394 . S
C671 C672 1.383 . S
C671 H679 0.929 . S
C672 C671 1.383 . S
C672 C673 1.377 . S
C673 H657 0.930 . S
C673 C672 1.377 . S
C673 C674 1.379 . S
C674 H658 0.931 . S
C674 C668 1.383 . S
C674 C673 1.379 . S
H675 C669 0.959 . S
H676 C669 0.961 . S
H677 C669 0.960 . S
H678 C670 0.930 . S
H679 C671 0.929 . S
H680 C688 0.929 . S
H681 C690 0.930 . S
H682 C692 0.930 . S
H683 C695 0.929 . S
H684 C698 0.930 . S
H685 C700 0.960 . S
H686 C700 0.960 . S
H687 C700 0.960 . S
C688 H680 0.929 . S
C688 C689 1.377 . S
C688 C690 1.384 . S
C689 C688 1.377 . S
C689 C695 1.390 . S
C690 H681 0.930 . S
C690 C688 1.384 . S
C690 C691 1.372 . S
C691 C690 1.372 . S
C691 C692 1.400 . S
C691 C696 1.490 . S
C692 H682 0.930 . S
C692 C691 1.400 . S
C692 C695 1.386 . S
H693 C709 0.930 . S
H694 C710 0.931 . S
C695 H683 0.929 . S
C695 C689 1.390 . S
C695 C692 1.386 . S
C696 C691 1.490 . S
C696 C698 1.395 . S
C696 C699 1.403 . S
H697 C703 0.930 . S
C698 H684 0.930 . S
C698 C696 1.395 . S
C698 C701 1.403 . S
C699 C696 1.403 . S
C699 C700 1.524 . S
C699 C703 1.400 . S
C700 H685 0.960 . S
C700 H686 0.960 . S
C700 H687 0.960 . S
C700 C699 1.524 . S
C701 C698 1.403 . S
C701 C702 1.392 . S
C701 C705 1.495 . S
C702 C701 1.392 . S
C702 C703 1.385 . S
C702 C704 1.478 . S
C703 H697 0.930 . S
C703 C699 1.400 . S
C703 C702 1.385 . S
C704 C702 1.478 . S
C704 C706 1.381 . S
C704 C710 1.383 . S
C705 C701 1.495 . S
C705 H711 0.959 . S
C705 H712 0.961 . S
C705 H713 0.960 . S
C706 C704 1.381 . S
C706 C707 1.393 1_655 S
C706 H714 0.930 1_655 S
C707 C706 1.393 1_455 S
C707 C708 1.381 1_455 S
C707 H715 0.933 . S
C708 C707 1.381 1_655 S
C708 C709 1.377 . S
C709 H693 0.930 . S
C709 C708 1.377 . S
C709 C710 1.379 . S
C710 H694 0.931 . S
C710 C704 1.383 . S
C710 C709 1.379 . S
H711 C705 0.959 . S
H712 C705 0.961 . S
H713 C705 0.960 . S
H714 C706 0.930 1_455 S
H715 C707 0.933 . S
H716 C724 0.929 . S
H717 C726 0.930 . S
H718 C728 0.930 . S
H719 C731 0.929 . S
H720 C734 0.930 . S
H721 C736 0.960 . S
H722 C736 0.960 . S
H723 C736 0.960 . S
C724 H716 0.929 . S
C724 C725 1.377 . S
C724 C726 1.384 . S
C725 C724 1.377 . S
C725 C731 1.390 . S
C726 H717 0.930 . S
C726 C724 1.384 . S
C726 C727 1.372 . S
C727 C726 1.372 . S
C727 C728 1.400 . S
C727 C732 1.490 . S
C728 H718 0.930 . S
C728 C727 1.400 . S
C728 C731 1.386 . S
H729 C745 0.930 . S
H730 C746 0.931 . S
C731 H719 0.929 . S
C731 C725 1.390 . S
C731 C728 1.386 . S
C732 C727 1.490 . S
C732 C734 1.395 . S
C732 C735 1.403 . S
H733 C739 0.930 . S
C734 H720 0.930 . S
C734 C732 1.395 . S
C734 C737 1.403 . S
C735 C732 1.403 . S
C735 C736 1.524 . S
C735 C739 1.400 . S
C736 H721 0.960 . S
C736 H722 0.960 . S
C736 H723 0.960 . S
C736 C735 1.524 . S
C737 C734 1.403 . S
C737 C738 1.392 . S
C737 C741 1.495 . S
C738 C737 1.392 . S
C738 C739 1.385 . S
C738 C740 1.478 . S
C739 H733 0.930 . S
C739 C735 1.400 . S
C739 C738 1.385 . S
C740 C738 1.478 . S
C740 C742 1.381 . S
C740 C746 1.383 . S
C741 C737 1.495 . S
C741 H747 0.959 . S
C741 H748 0.961 . S
C741 H749 0.960 . S
C742 C740 1.381 . S
C742 C743 1.394 . S
C742 H750 0.930 . S
C743 C742 1.394 . S
C743 C744 1.383 . S
C743 H751 0.929 . S
C744 C743 1.383 . S
C744 C745 1.377 . S
C745 H729 0.930 . S
C745 C744 1.377 . S
C745 C746 1.379 . S
C746 H730 0.931 . S
C746 C740 1.383 . S
C746 C745 1.379 . S
H747 C741 0.959 . S
H748 C741 0.961 . S
H749 C741 0.960 . S
H750 C742 0.930 . S
H751 C743 0.929 . S
H752 C760 0.929 . S
H753 C762 0.930 . S
H754 C764 0.930 . S
H755 C767 0.929 . S
H756 C770 0.930 . S
H757 C772 0.960 . S
H758 C772 0.960 . S
H759 C772 0.960 . S
C760 H752 0.929 . S
C760 C761 1.377 . S
C760 C762 1.384 . S
C761 C760 1.377 . S
C761 C767 1.390 . S
C762 H753 0.930 . S
C762 C760 1.384 . S
C762 C763 1.372 . S
C763 C762 1.372 . S
C763 C764 1.400 . S
C763 C768 1.490 . S
C764 H754 0.930 . S
C764 C763 1.400 . S
C764 C767 1.386 . S
H765 C781 0.930 . S
H766 C782 0.931 . S
C767 H755 0.929 . S
C767 C761 1.390 . S
C767 C764 1.386 . S
C768 C763 1.490 . S
C768 C770 1.395 . S
C768 C771 1.403 . S
H769 C775 0.930 . S
C770 H756 0.930 . S
C770 C768 1.395 . S
C770 C773 1.403 . S
C771 C768 1.403 . S
C771 C772 1.524 . S
C771 C775 1.400 . S
C772 H757 0.960 . S
C772 H758 0.960 . S
C772 H759 0.960 . S
C772 C771 1.524 . S
C773 C770 1.403 . S
C773 C774 1.392 . S
C773 C777 1.495 . S
C774 C773 1.392 . S
C774 C775 1.385 . S
C774 C776 1.478 . S
C775 H769 0.930 . S
C775 C771 1.400 . S
C775 C774 1.385 . S
C776 C774 1.478 . S
C776 C778 1.381 . S
C776 C782 1.383 . S
C777 C773 1.495 . S
C777 H783 0.959 . S
C777 H784 0.961 . S
C777 H785 0.960 . S
C778 C776 1.381 . S
C778 C779 1.394 . S
C778 H786 0.930 . S
C779 C778 1.394 . S
C779 C780 1.383 . S
C779 H787 0.929 . S
C780 C779 1.383 . S
C780 C781 1.377 . S
C781 H765 0.930 . S
C781 C780 1.377 . S
C781 C782 1.379 . S
C782 H766 0.931 . S
C782 C776 1.383 . S
C782 C781 1.379 . S
H783 C777 0.959 . S
H784 C777 0.961 . S
H785 C777 0.960 . S
H786 C778 0.930 . S
H787 C779 0.929 . S
H788 C796 0.929 . S
H789 C798 0.930 . S
H790 C800 0.930 . S
H791 C803 0.929 . S
H792 C806 0.930 . S
H793 C808 0.960 . S
H794 C808 0.960 . S
H795 C808 0.960 . S
C796 H788 0.929 . S
C796 C797 1.377 . S
C796 C798 1.384 . S
C797 C796 1.377 . S
C797 C803 1.390 . S
C798 H789 0.930 . S
C798 C796 1.384 . S
C798 C799 1.372 . S
C799 C798 1.372 . S
C799 C800 1.400 . S
C799 C804 1.490 . S
C800 H790 0.930 . S
C800 C799 1.400 . S
C800 C803 1.386 . S
H801 C817 0.930 1_554 S
H802 C818 0.931 . S
C803 H791 0.929 . S
C803 C797 1.390 . S
C803 C800 1.386 . S
C804 C799 1.490 . S
C804 C806 1.395 . S
C804 C807 1.403 . S
H805 C811 0.930 . S
C806 H792 0.930 . S
C806 C804 1.395 . S
C806 C809 1.403 . S
C807 C804 1.403 . S
C807 C808 1.524 . S
C807 C811 1.400 . S
C808 H793 0.960 . S
C808 H794 0.960 . S
C808 H795 0.960 . S
C808 C807 1.524 . S
C809 C806 1.403 . S
C809 C810 1.392 . S
C809 C813 1.495 . S
C810 C809 1.392 . S
C810 C811 1.385 . S
C810 C812 1.478 . S
C811 H805 0.930 . S
C811 C807 1.400 . S
C811 C810 1.385 . S
C812 C810 1.478 . S
C812 C814 1.381 . S
C812 C818 1.383 . S
C813 C809 1.495 . S
C813 H819 0.959 . S
C813 H820 0.961 . S
C813 H821 0.960 . S
C814 C812 1.381 . S
C814 C815 1.394 . S
C814 H822 0.930 . S
C815 C814 1.394 . S
C815 C816 1.383 . S
C815 H823 0.929 . S
C816 C815 1.383 . S
C816 C817 1.377 . S
C817 H801 0.930 1_556 S
C817 C816 1.377 . S
C817 C818 1.379 . S
C818 H802 0.931 . S
C818 C812 1.383 . S
C818 C817 1.379 . S
H819 C813 0.959 . S
H820 C813 0.961 . S
H821 C813 0.960 . S
H822 C814 0.930 . S
H823 C815 0.929 . S
H824 C832 0.929 . S
H825 C834 0.930 . S
H826 C836 0.930 . S
H827 C839 0.929 . S
H828 C842 0.930 . S
H829 C844 0.960 . S
H830 C844 0.960 . S
H831 C844 0.960 . S
C832 H824 0.929 . S
C832 C833 1.377 . S
C832 C834 1.384 . S
C833 C832 1.377 . S
C833 C839 1.390 . S
C834 H825 0.930 . S
C834 C832 1.384 . S
C834 C835 1.372 . S
C835 C834 1.372 . S
C835 C836 1.400 . S
C835 C840 1.490 . S
C836 H826 0.930 . S
C836 C835 1.400 . S
C836 C839 1.386 . S
H837 C853 0.930 . S
H838 C854 0.931 . S
C839 H827 0.929 . S
C839 C833 1.390 . S
C839 C836 1.386 . S
C840 C835 1.490 . S
C840 C842 1.395 . S
C840 C843 1.403 . S
H841 C847 0.930 . S
C842 H828 0.930 . S
C842 C840 1.395 . S
C842 C845 1.403 . S
C843 C840 1.403 . S
C843 C844 1.524 . S
C843 C847 1.400 . S
C844 H829 0.960 . S
C844 H830 0.960 . S
C844 H831 0.960 . S
C844 C843 1.524 . S
C845 C842 1.403 . S
C845 C846 1.392 . S
C845 C849 1.495 . S
C846 C845 1.392 . S
C846 C847 1.385 . S
C846 C848 1.478 . S
C847 H841 0.930 . S
C847 C843 1.400 . S
C847 C846 1.385 . S
C848 C846 1.478 . S
C848 C850 1.381 . S
C848 C854 1.383 . S
C849 C845 1.495 . S
C849 H855 0.959 . S
C849 H856 0.961 . S
C849 H857 0.960 . S
C850 C848 1.381 . S
C850 C851 1.394 . S
C850 H858 0.930 . S
C851 C850 1.394 . S
C851 C852 1.383 . S
C851 H859 0.929 . S
C852 C851 1.383 . S
C852 C853 1.377 . S
C853 H837 0.930 . S
C853 C852 1.377 . S
C853 C854 1.379 . S
C854 H838 0.931 . S
C854 C848 1.383 . S
C854 C853 1.379 . S
H855 C849 0.959 . S
H856 C849 0.961 . S
H857 C849 0.960 . S
H858 C850 0.930 . S
H859 C851 0.929 . S
H860 C868 0.929 . S
H861 C870 0.930 . S
H862 C872 0.930 . S
H863 C875 0.929 . S
H864 C878 0.930 . S
H865 C880 0.960 . S
H866 C880 0.960 . S
H867 C880 0.960 . S
C868 H860 0.929 . S
C868 C869 1.377 . S
C868 C870 1.384 . S
C869 C868 1.377 . S
C869 C875 1.390 . S
C870 H861 0.930 . S
C870 C868 1.384 . S
C870 C871 1.372 . S
C871 C870 1.372 . S
C871 C872 1.400 . S
C871 C876 1.490 . S
C872 H862 0.930 . S
C872 C871 1.400 . S
C872 C875 1.386 . S
H873 C889 0.930 . S
H874 C890 0.931 . S
C875 H863 0.929 . S
C875 C869 1.390 . S
C875 C872 1.386 . S
C876 C871 1.490 . S
C876 C878 1.395 . S
C876 C879 1.403 . S
H877 C883 0.930 . S
C878 H864 0.930 . S
C878 C876 1.395 . S
C878 C881 1.403 . S
C879 C876 1.403 . S
C879 C880 1.524 . S
C879 C883 1.400 . S
C880 H865 0.960 . S
C880 H866 0.960 . S
C880 H867 0.960 . S
C880 C879 1.524 . S
C881 C878 1.403 . S
C881 C882 1.392 . S
C881 C885 1.495 . S
C882 C881 1.392 . S
C882 C883 1.385 . S
C882 C884 1.478 . S
C883 H877 0.930 . S
C883 C879 1.400 . S
C883 C882 1.385 . S
C884 C882 1.478 . S
C884 C886 1.381 . S
C884 C890 1.383 . S
C885 C881 1.495 . S
C885 H891 0.959 . S
C885 H892 0.961 . S
C885 H893 0.960 . S
C886 C884 1.381 . S
C886 C887 1.394 . S
C886 H894 0.930 . S
C887 C886 1.394 . S
C887 C888 1.383 . S
C887 H895 0.929 . S
C888 C887 1.383 . S
C888 C889 1.377 . S
C889 H873 0.930 . S
C889 C888 1.377 . S
C889 C890 1.379 . S
C890 H874 0.931 . S
C890 C884 1.383 . S
C890 C889 1.379 . S
H891 C885 0.959 . S
H892 C885 0.961 . S
H893 C885 0.960 . S
H894 C886 0.930 . S
H895 C887 0.929 . S
H896 C904 0.929 . S
H897 C906 0.930 . S
H898 C908 0.930 . S
H899 C911 0.929 . S
H900 C914 0.930 . S
H901 C916 0.960 . S
H902 C916 0.960 . S
H903 C916 0.960 . S
C904 H896 0.929 . S
C904 C905 1.377 . S
C904 C906 1.384 . S
C905 C904 1.377 . S
C905 C911 1.390 . S
C906 H897 0.930 . S
C906 C904 1.384 . S
C906 C907 1.372 . S
C907 C906 1.372 . S
C907 C908 1.400 . S
C907 C912 1.490 . S
C908 H898 0.930 . S
C908 C907 1.400 . S
C908 C911 1.386 . S
H909 C925 0.930 . S
H910 C926 0.931 1_554 S
C911 H899 0.929 . S
C911 C905 1.390 . S
C911 C908 1.386 . S
C912 C907 1.490 . S
C912 C914 1.395 . S
C912 C915 1.403 . S
H913 C919 0.930 . S
C914 H900 0.930 . S
C914 C912 1.395 . S
C914 C917 1.403 . S
C915 C912 1.403 . S
C915 C916 1.524 . S
C915 C919 1.400 . S
C916 H901 0.960 . S
C916 H902 0.960 . S
C916 H903 0.960 . S
C916 C915 1.524 . S
C917 C914 1.403 . S
C917 C918 1.392 . S
C917 C921 1.495 . S
C918 C917 1.392 . S
C918 C919 1.385 . S
C918 C920 1.478 . S
C919 H913 0.930 . S
C919 C915 1.400 . S
C919 C918 1.385 . S
C920 C918 1.478 . S
C920 C922 1.381 . S
C920 C926 1.383 . S
C921 C917 1.495 . S
C921 H927 0.959 . S
C921 H928 0.961 . S
C921 H929 0.960 . S
C922 C920 1.381 . S
C922 C923 1.394 . S
C922 H930 0.930 . S
C923 C922 1.394 . S
C923 C924 1.383 . S
C923 H931 0.929 . S
C924 C923 1.383 . S
C924 C925 1.377 1_556 S
C925 H909 0.930 . S
C925 C924 1.377 1_554 S
C925 C926 1.379 1_554 S
C926 H910 0.931 1_556 S
C926 C920 1.383 . S
C926 C925 1.379 1_556 S
H927 C921 0.959 . S
H928 C921 0.961 . S
H929 C921 0.960 . S
H930 C922 0.930 . S
H931 C923 0.929 . S
H932 C940 0.929 . S
H933 C942 0.930 . S
H934 C944 0.930 . S
H935 C947 0.929 . S
H936 C950 0.930 . S
H937 C952 0.960 1_455 S
H938 C952 0.960 . S
H939 C952 0.960 . S
C940 H932 0.929 . S
C940 C941 1.377 . S
C940 C942 1.384 . S
C941 C940 1.377 . S
C941 C947 1.390 . S
C942 H933 0.930 . S
C942 C940 1.384 . S
C942 C943 1.372 . S
C943 C942 1.372 . S
C943 C944 1.400 . S
C943 C948 1.490 . S
C944 H934 0.930 . S
C944 C943 1.400 . S
C944 C947 1.386 . S
H945 C961 0.930 1_455 S
H946 C962 0.931 . S
C947 H935 0.929 . S
C947 C941 1.390 . S
C947 C944 1.386 . S
C948 C943 1.490 . S
C948 C950 1.395 . S
C948 C951 1.403 . S
H949 C955 0.930 . S
C950 H936 0.930 . S
C950 C948 1.395 . S
C950 C953 1.403 . S
C951 C948 1.403 . S
C951 C952 1.524 . S
C951 C955 1.400 . S
C952 H937 0.960 1_655 S
C952 H938 0.960 . S
C952 H939 0.960 . S
C952 C951 1.524 . S
C953 C950 1.403 . S
C953 C954 1.392 . S
C953 C957 1.495 . S
C954 C953 1.392 . S
C954 C955 1.385 . S
C954 C956 1.478 . S
C955 H949 0.930 . S
C955 C951 1.400 . S
C955 C954 1.385 . S
C956 C954 1.478 . S
C956 C958 1.381 . S
C956 C962 1.383 . S
C957 C953 1.495 . S
C957 H963 0.959 . S
C957 H964 0.961 . S
C957 H965 0.960 . S
C958 C956 1.381 . S
C958 C959 1.394 . S
C958 H966 0.930 . S
C959 C958 1.394 . S
C959 C960 1.383 . S
C959 H967 0.929 . S
C960 C959 1.383 . S
C960 C961 1.377 . S
C961 H945 0.930 1_655 S
C961 C960 1.377 . S
C961 C962 1.379 . S
C962 H946 0.931 . S
C962 C956 1.383 . S
C962 C961 1.379 . S
H963 C957 0.959 . S
H964 C957 0.961 . S
H965 C957 0.960 . S
H966 C958 0.930 . S
H967 C959 0.929 . S
H968 C976 0.929 . S
H969 C978 0.930 . S
H970 C980 0.930 . S
H971 C983 0.929 . S
H972 C986 0.930 . S
H973 C988 0.960 . S
H974 C988 0.960 . S
H975 C988 0.960 . S
C976 H968 0.929 . S
C976 C977 1.377 . S
C976 C978 1.384 . S
C977 C976 1.377 . S
C977 C983 1.390 . S
C978 H969 0.930 . S
C978 C976 1.384 . S
C978 C979 1.372 . S
C979 C978 1.372 . S
C979 C980 1.400 . S
C979 C984 1.490 . S
C980 H970 0.930 . S
C980 C979 1.400 . S
C980 C983 1.386 . S
H981 C997 0.930 . S
H982 C998 0.931 . S
C983 H971 0.929 . S
C983 C977 1.390 . S
C983 C980 1.386 . S
C984 C979 1.490 . S
C984 C986 1.395 . S
C984 C987 1.403 . S
H985 C991 0.930 . S
C986 H972 0.930 . S
C986 C984 1.395 . S
C986 C989 1.403 . S
C987 C984 1.403 . S
C987 C988 1.524 . S
C987 C991 1.400 . S
C988 H973 0.960 . S
C988 H974 0.960 . S
C988 H975 0.960 . S
C988 C987 1.524 . S
C989 C986 1.403 . S
C989 C990 1.392 . S
C989 C993 1.495 . S
C990 C989 1.392 . S
C990 C991 1.385 . S
C990 C992 1.478 . S
C991 H985 0.930 . S
C991 C987 1.400 . S
C991 C990 1.385 . S
C992 C990 1.478 . S
C992 C994 1.381 . S
C992 C998 1.383 . S
C993 C989 1.495 . S
C993 H999 0.959 . S
C993 H1000 0.961 . S
C993 H1001 0.960 . S
C994 C992 1.381 . S
C994 C995 1.394 . S
C994 H1002 0.930 . S
C995 C994 1.394 . S
C995 C996 1.383 . S
C995 H1003 0.929 . S
C996 C995 1.383 . S
C996 C997 1.377 . S
C997 H981 0.930 . S
C997 C996 1.377 . S
C997 C998 1.379 . S
C998 H982 0.931 . S
C998 C992 1.383 . S
C998 C997 1.379 . S
H999 C993 0.959 . S
H1000 C993 0.961 . S
H1001 C993 0.960 . S
H1002 C994 0.930 . S
H1003 C995 0.929 . S
H1004 C1012 0.929 . S
H1005 C1014 0.930 . S
H1006 C1016 0.930 . S
H1007 C1019 0.929 . S
H1008 C1022 0.933 . S
H1009 C1024 0.960 . S
H1010 C1024 0.960 1_655 S
H1011 C1024 0.960 . S
C1012 H1004 0.929 . S
C1012 C1013 1.377 . S
C1012 C1014 1.384 . S
C1013 C1012 1.377 . S
C1013 C1019 1.390 . S
C1014 H1005 0.930 . S
C1014 C1012 1.384 . S
C1014 C1015 1.372 . S
C1015 C1014 1.372 . S
C1015 C1016 1.400 . S
C1015 C1020 1.490 . S
C1016 H1006 0.930 . S
C1016 C1015 1.400 . S
C1016 C1019 1.386 . S
H1017 C1033 0.930 1_455 S
H1018 C1034 0.931 . S
C1019 H1007 0.929 . S
C1019 C1013 1.390 . S
C1019 C1016 1.386 . S
C1020 C1015 1.490 . S
C1020 C1022 1.395 . S
C1020 C1023 1.403 . S
H1021 C1027 0.930 . S
C1022 H1008 0.933 . S
C1022 C1020 1.395 . S
C1022 C1025 1.412 . S
C1023 C1020 1.403 . S
C1023 C1024 1.524 1_655 S
C1023 C1027 1.400 . S
C1024 H1009 0.960 . S
C1024 H1010 0.960 1_455 S
C1024 H1011 0.960 . S
C1024 C1023 1.524 1_455 S
C1025 C1022 1.412 . S
C1025 C1026 1.407 . S
C1025 C1029 1.474 1_565 S
C1026 C1025 1.407 . S
C1026 C1027 1.385 . S
C1026 C1028 1.478 . S
C1027 H1021 0.930 . S
C1027 C1023 1.400 . S
C1027 C1026 1.385 . S
C1028 C1026 1.478 . S
C1028 C1030 1.381 . S
C1028 C1034 1.383 1_565 S
C1029 C1025 1.474 1_545 S
C1029 H1035 0.959 . S
C1029 H1036 0.961 . S
C1029 H1037 0.960 . S
C1030 C1028 1.381 . S
C1030 C1031 1.394 . S
C1030 H1038 0.930 . S
C1031 C1030 1.394 . S
C1031 C1032 1.379 1_565 S
C1031 H1039 0.929 . S
C1032 C1031 1.379 1_545 S
C1032 C1033 1.380 . S
C1033 H1017 0.930 1_655 S
C1033 C1032 1.380 . S
C1033 C1034 1.379 . S
C1034 H1018 0.931 . S
C1034 C1028 1.383 1_545 S
C1034 C1033 1.379 . S
H1035 C1029 0.959 . S
H1036 C1029 0.961 . S
H1037 C1029 0.960 . S
H1038 C1030 0.930 . S
H1039 C1031 0.929 . S
H1040 C1048 0.929 . S
H1041 C1050 0.930 . S
H1042 C1052 0.930 . S
H1043 C1055 0.929 . S
H1044 C1058 0.930 . S
H1045 C1060 0.960 1_565 S
H1046 C1060 0.960 1_565 S
H1047 C1060 0.960 . S
C1048 H1040 0.929 . S
C1048 C1049 1.377 . S
C1048 C1050 1.384 . S
C1049 C1048 1.377 . S
C1049 C1055 1.390 . S
C1050 H1041 0.930 . S
C1050 C1048 1.384 . S
C1050 C1051 1.372 . S
C1051 C1050 1.372 . S
C1051 C1052 1.400 . S
C1051 C1056 1.490 . S
C1052 H1042 0.930 . S
C1052 C1051 1.400 . S
C1052 C1055 1.386 . S
H1053 C1069 0.930 . S
H1054 C1070 0.931 . S
C1055 H1043 0.929 . S
C1055 C1049 1.390 . S
C1055 C1052 1.386 . S
C1056 C1051 1.490 . S
C1056 C1058 1.395 . S
C1056 C1059 1.403 . S
H1057 C1063 0.930 . S
C1058 H1044 0.930 . S
C1058 C1056 1.395 . S
C1058 C1061 1.403 . S
C1059 C1056 1.403 . S
C1059 C1060 1.524 . S
C1059 C1063 1.400 . S
C1060 H1045 0.960 1_545 S
C1060 H1046 0.960 1_545 S
C1060 H1047 0.960 . S
C1060 C1059 1.524 . S
C1061 C1058 1.403 . S
C1061 C1062 1.392 . S
C1061 C1065 1.495 . S
C1062 C1061 1.392 . S
C1062 C1063 1.385 . S
C1062 C1064 1.478 . S
C1063 H1057 0.930 . S
C1063 C1059 1.400 . S
C1063 C1062 1.385 . S
C1064 C1062 1.478 . S
C1064 C1066 1.381 . S
C1064 C1070 1.383 . S
C1065 C1061 1.495 . S
C1065 H1071 0.959 . S
C1065 H1072 0.961 . S
C1065 H1073 0.960 . S
C1066 C1064 1.381 . S
C1066 C1067 1.394 . S
C1066 H1074 0.930 . S
C1067 C1066 1.394 . S
C1067 C1068 1.383 . S
C1067 H1075 0.929 1_545 S
C1068 C1067 1.383 . S
C1068 C1069 1.377 . S
C1069 H1053 0.930 . S
C1069 C1068 1.377 . S
C1069 C1070 1.379 . S
C1070 H1054 0.931 . S
C1070 C1064 1.383 . S
C1070 C1069 1.379 . S
H1071 C1065 0.959 . S
H1072 C1065 0.961 . S
H1073 C1065 0.960 . S
H1074 C1066 0.930 . S
H1075 C1067 0.929 1_565 S
H1076 C1084 0.929 . S
H1077 C1086 0.930 . S
H1078 C1088 0.930 . S
H1079 C1091 0.929 . S
H1080 C1094 0.930 . S
H1081 C1096 0.960 . S
H1082 C1096 0.960 . S
H1083 C1096 0.960 . S
C1084 H1076 0.929 . S
C1084 C1085 1.377 . S
C1084 C1086 1.384 . S
C1085 C1084 1.377 . S
C1085 C1091 1.390 . S
C1086 H1077 0.930 . S
C1086 C1084 1.384 . S
C1086 C1087 1.372 . S
C1087 C1086 1.372 . S
C1087 C1088 1.400 . S
C1087 C1092 1.490 . S
C1088 H1078 0.930 . S
C1088 C1087 1.400 . S
C1088 C1091 1.386 . S
H1089 C1105 0.930 . S
H1090 C1106 0.931 . S
C1091 H1079 0.929 . S
C1091 C1085 1.390 . S
C1091 C1088 1.386 . S
C1092 C1087 1.490 . S
C1092 C1094 1.395 . S
C1092 C1095 1.403 . S
H1093 C1099 0.930 . S
C1094 H1080 0.930 . S
C1094 C1092 1.395 . S
C1094 C1097 1.403 . S
C1095 C1092 1.403 . S
C1095 C1096 1.524 . S
C1095 C1099 1.400 . S
C1096 H1081 0.960 . S
C1096 H1082 0.960 . S
C1096 H1083 0.960 . S
C1096 C1095 1.524 . S
C1097 C1094 1.403 . S
C1097 C1098 1.392 . S
C1097 C1101 1.495 . S
C1098 C1097 1.392 . S
C1098 C1099 1.385 . S
C1098 C1100 1.478 . S
C1099 H1093 0.930 . S
C1099 C1095 1.400 . S
C1099 C1098 1.385 . S
C1100 C1098 1.478 . S
C1100 C1102 1.381 . S
C1100 C1106 1.383 . S
C1101 C1097 1.495 . S
C1101 H1107 0.959 . S
C1101 H1108 0.961 . S
C1101 H1109 0.960 . S
C1102 C1100 1.381 . S
C1102 C1103 1.394 . S
C1102 H1110 0.930 . S
C1103 C1102 1.394 . S
C1103 C1104 1.383 . S
C1103 H1111 0.929 . S
C1104 C1103 1.383 . S
C1104 C1105 1.377 . S
C1105 H1089 0.930 . S
C1105 C1104 1.377 . S
C1105 C1106 1.379 . S
C1106 H1090 0.931 . S
C1106 C1100 1.383 . S
C1106 C1105 1.379 . S
H1107 C1101 0.959 . S
H1108 C1101 0.961 . S
H1109 C1101 0.960 . S
H1110 C1102 0.930 . S
H1111 C1103 0.929 . S
H1112 C1120 0.929 . S
H1113 C1122 0.930 . S
H1114 C1124 0.930 . S
H1115 C1127 0.929 . S
H1116 C1130 0.930 . S
H1117 C1132 0.960 . S
H1118 C1132 0.960 . S
H1119 C1132 0.960 . S
C1120 H1112 0.929 . S
C1120 C1121 1.377 . S
C1120 C1122 1.384 . S
C1121 C1120 1.377 . S
C1121 C1127 1.390 . S
C1122 H1113 0.930 . S
C1122 C1120 1.384 . S
C1122 C1123 1.372 . S
C1123 C1122 1.372 . S
C1123 C1124 1.400 . S
C1123 C1128 1.490 . S
C1124 H1114 0.930 . S
C1124 C1123 1.400 . S
C1124 C1127 1.386 . S
H1125 C1141 0.930 . S
H1126 C1142 0.931 . S
C1127 H1115 0.929 . S
C1127 C1121 1.390 . S
C1127 C1124 1.386 . S
C1128 C1123 1.490 . S
C1128 C1130 1.395 . S
C1128 C1131 1.403 . S
H1129 C1135 0.930 . S
C1130 H1116 0.930 . S
C1130 C1128 1.395 . S
C1130 C1133 1.403 . S
C1131 C1128 1.403 . S
C1131 C1132 1.524 . S
C1131 C1135 1.400 . S
C1132 H1117 0.960 . S
C1132 H1118 0.960 . S
C1132 H1119 0.960 . S
C1132 C1131 1.524 . S
C1133 C1130 1.403 . S
C1133 C1134 1.392 . S
C1133 C1137 1.495 . S
C1134 C1133 1.392 . S
C1134 C1135 1.385 . S
C1134 C1136 1.478 . S
C1135 H1129 0.930 . S
C1135 C1131 1.400 . S
C1135 C1134 1.385 . S
C1136 C1134 1.478 . S
C1136 C1138 1.381 . S
C1136 C1142 1.383 . S
C1137 C1133 1.495 . S
C1137 H1143 0.959 . S
C1137 H1144 0.961 . S
C1137 H1145 0.960 . S
C1138 C1136 1.381 . S
C1138 C1139 1.394 . S
C1138 H1146 0.930 . S
C1139 C1138 1.394 . S
C1139 C1140 1.383 . S
C1139 H1147 0.929 . S
C1140 C1139 1.383 . S
C1140 C1141 1.377 . S
C1141 H1125 0.930 . S
C1141 C1140 1.377 . S
C1141 C1142 1.379 . S
C1142 H1126 0.931 . S
C1142 C1136 1.383 . S
C1142 C1141 1.379 . S
H1143 C1137 0.959 . S
H1144 C1137 0.961 . S
H1145 C1137 0.960 . S
H1146 C1138 0.930 . S
H1147 C1139 0.929 . S
H1148 C1156 0.929 1_545 S
H1149 C1158 0.930 1_545 S
H1150 C1160 0.930 . S
H1151 C1163 0.929 . S
H1152 C1166 0.930 . S
H1153 C1168 0.960 . S
H1154 C1168 0.960 . S
H1155 C1168 0.960 . S
C1156 H1148 0.929 1_565 S
C1156 C1157 1.377 . S
C1156 C1158 1.384 . S
C1157 C1156 1.377 . S
C1157 C1163 1.390 . S
C1158 H1149 0.930 1_565 S
C1158 C1156 1.384 . S
C1158 C1159 1.372 . S
C1159 C1158 1.372 . S
C1159 C1160 1.400 . S
C1159 C1164 1.490 . S
C1160 H1150 0.930 . S
C1160 C1159 1.400 . S
C1160 C1163 1.386 . S
H1161 C1177 0.930 . S
H1162 C1178 0.931 . S
C1163 H1151 0.929 . S
C1163 C1157 1.390 . S
C1163 C1160 1.386 . S
C1164 C1159 1.490 . S
C1164 C1166 1.395 . S
C1164 C1167 1.403 . S
H1165 C1171 0.930 1_554 S
C1166 H1152 0.930 . S
C1166 C1164 1.395 . S
C1166 C1169 1.403 . S
C1167 C1164 1.403 . S
C1167 C1168 1.524 1_556 S
C1167 C1171 1.400 . S
C1168 H1153 0.960 . S
C1168 H1154 0.960 . S
C1168 H1155 0.960 . S
C1168 C1167 1.524 1_554 S
C1169 C1166 1.403 . S
C1169 C1170 1.392 . S
C1169 C1173 1.495 1_565 S
C1170 C1169 1.392 . S
C1170 C1171 1.385 . S
C1170 C1172 1.478 . S
C1171 H1165 0.930 1_556 S
C1171 C1167 1.400 . S
C1171 C1170 1.385 . S
C1172 C1170 1.478 . S
C1172 C1174 1.381 1_565 S
C1172 C1178 1.383 . S
C1173 C1169 1.495 1_545 S
C1173 H1179 0.959 . S
C1173 H1180 0.961 1_545 S
C1173 H1181 0.960 . S
C1174 C1172 1.381 1_545 S
C1174 C1175 1.394 . S
C1174 H1182 0.930 . S
C1175 C1174 1.394 . S
C1175 C1176 1.383 1_545 S
C1175 H1183 0.929 . S
C1176 C1175 1.383 1_565 S
C1176 C1177 1.377 . S
C1177 H1161 0.930 . S
C1177 C1176 1.377 . S
C1177 C1178 1.379 . S
C1178 H1162 0.931 . S
C1178 C1172 1.383 . S
C1178 C1177 1.379 . S
H1179 C1173 0.959 . S
H1180 C1173 0.961 1_565 S
H1181 C1173 0.960 . S
H1182 C1174 0.930 . S
H1183 C1175 0.929 . S
H1184 C1192 0.929 . S
H1185 C1194 0.930 . S
H1186 C1196 0.930 . S
H1187 C1199 0.929 . S
H1188 C1202 0.930 . S
H1189 C1204 0.960 . S
H1190 C1204 0.960 . S
H1191 C1204 0.960 . S
C1192 H1184 0.929 . S
C1192 C1193 1.377 . S
C1192 C1194 1.384 . S
C1193 C1192 1.377 . S
C1193 C1199 1.390 . S
C1194 H1185 0.930 . S
C1194 C1192 1.384 . S
C1194 C1195 1.372 . S
C1195 C1194 1.372 . S
C1195 C1196 1.400 . S
C1195 C1200 1.490 . S
C1196 H1186 0.930 . S
C1196 C1195 1.400 . S
C1196 C1199 1.386 . S
H1197 C1213 0.917 1_565 S
H1198 C1214 0.931 1_565 S
C1199 H1187 0.929 . S
C1199 C1193 1.390 . S
C1199 C1196 1.386 . S
C1200 C1195 1.490 . S
C1200 C1202 1.395 . S
C1200 C1203 1.403 . S
H1201 C1207 0.930 . S
C1202 H1188 0.930 . S
C1202 C1200 1.395 . S
C1202 C1205 1.403 . S
C1203 C1200 1.403 . S
C1203 C1204 1.524 . S
C1203 C1207 1.400 . S
C1204 H1189 0.960 . S
C1204 H1190 0.960 . S
C1204 H1191 0.960 . S
C1204 C1203 1.524 . S
C1205 C1202 1.403 . S
C1205 C1206 1.392 . S
C1205 C1209 1.495 . S
C1206 C1205 1.392 . S
C1206 C1207 1.385 . S
C1206 C1208 1.478 . S
C1207 H1201 0.930 . S
C1207 C1203 1.400 . S
C1207 C1206 1.385 . S
C1208 C1206 1.478 . S
C1208 C1210 1.381 . S
C1208 C1214 1.383 . S
C1209 C1205 1.495 . S
C1209 H1215 0.959 . S
C1209 H1216 0.961 . S
C1209 H1217 0.960 . S
C1210 C1208 1.381 . S
C1210 C1211 1.394 . S
C1210 H1218 0.930 . S
C1211 C1210 1.394 . S
C1211 C1212 1.383 . S
C1211 H1219 0.929 . S
C1212 C1211 1.383 . S
C1212 C1213 1.387 . S
C1213 H1197 0.917 1_545 S
C1213 C1212 1.387 . S
C1213 C1214 1.381 . S
C1214 H1198 0.931 1_545 S
C1214 C1208 1.383 . S
C1214 C1213 1.381 . S
H1215 C1209 0.959 . S
H1216 C1209 0.961 . S
H1217 C1209 0.960 . S
H1218 C1210 0.930 . S
H1219 C1211 0.929 . S
H1220 C1228 0.929 . S
H1221 C1230 0.930 . S
H1222 C1232 0.930 . S
H1223 C1235 0.929 . S
H1224 C1238 0.930 . S
H1225 C1240 0.960 . S
H1226 C1240 0.960 . S
H1227 C1240 0.960 . S
C1228 H1220 0.929 . S
C1228 C1229 1.377 . S
C1228 C1230 1.384 . S
C1229 C1228 1.377 . S
C1229 C1235 1.390 . S
C1230 H1221 0.930 . S
C1230 C1228 1.384 . S
C1230 C1231 1.372 . S
C1231 C1230 1.372 . S
C1231 C1232 1.400 . S
C1231 C1236 1.490 . S
C1232 H1222 0.930 . S
C1232 C1231 1.400 . S
C1232 C1235 1.386 . S
H1233 C1249 0.930 . S
H1234 C1250 0.931 1_556 S
C1235 H1223 0.929 . S
C1235 C1229 1.390 . S
C1235 C1232 1.386 . S
C1236 C1231 1.490 . S
C1236 C1238 1.395 . S
C1236 C1239 1.403 . S
H1237 C1243 0.930 . S
C1238 H1224 0.930 . S
C1238 C1236 1.395 . S
C1238 C1241 1.403 . S
C1239 C1236 1.403 . S
C1239 C1240 1.524 . S
C1239 C1243 1.400 . S
C1240 H1225 0.960 . S
C1240 H1226 0.960 . S
C1240 H1227 0.960 . S
C1240 C1239 1.524 . S
C1241 C1238 1.403 . S
C1241 C1242 1.392 . S
C1241 C1245 1.495 . S
C1242 C1241 1.392 . S
C1242 C1243 1.385 . S
C1242 C1244 1.478 . S
C1243 H1237 0.930 . S
C1243 C1239 1.400 . S
C1243 C1242 1.385 . S
C1244 C1242 1.478 . S
C1244 C1246 1.381 . S
C1244 C1250 1.383 . S
C1245 C1241 1.495 . S
C1245 H1251 0.959 . S
C1245 H1252 0.961 . S
C1245 H1253 0.960 . S
C1246 C1244 1.381 . S
C1246 C1247 1.394 . S
C1246 H1254 0.930 . S
C1247 C1246 1.394 . S
C1247 C1248 1.383 . S
C1247 H1255 0.929 . S
C1248 C1247 1.383 . S
C1248 C1249 1.377 1_554 S
C1249 H1233 0.930 . S
C1249 C1248 1.377 1_556 S
C1249 C1250 1.379 1_556 S
C1250 H1234 0.931 1_554 S
C1250 C1244 1.383 . S
C1250 C1249 1.379 1_554 S
H1251 C1245 0.959 . S
H1252 C1245 0.961 . S
H1253 C1245 0.960 . S
H1254 C1246 0.930 . S
H1255 C1247 0.929 . S
H1256 C1264 0.929 . S
H1257 C1266 0.930 . S
H1258 C1268 0.930 . S
H1259 C1271 0.929 . S
H1260 C1274 0.930 . S
H1261 C1276 0.960 . S
H1262 C1276 0.960 . S
H1263 C1276 0.960 . S
C1264 H1256 0.929 . S
C1264 C1265 1.377 . S
C1264 C1266 1.384 . S
C1265 C1264 1.377 . S
C1265 C1271 1.390 . S
C1266 H1257 0.930 . S
C1266 C1264 1.384 . S
C1266 C1267 1.372 . S
C1267 C1266 1.372 . S
C1267 C1268 1.400 . S
C1267 C1272 1.490 . S
C1268 H1258 0.930 . S
C1268 C1267 1.400 . S
C1268 C1271 1.386 . S
H1269 C1285 0.930 . S
H1270 C1286 0.931 . S
C1271 H1259 0.929 . S
C1271 C1265 1.390 . S
C1271 C1268 1.386 . S
C1272 C1267 1.490 . S
C1272 C1274 1.395 . S
C1272 C1275 1.403 . S
H1273 C1279 0.930 . S
C1274 H1260 0.930 . S
C1274 C1272 1.395 . S
C1274 C1277 1.403 . S
C1275 C1272 1.403 . S
C1275 C1276 1.524 . S
C1275 C1279 1.400 . S
C1276 H1261 0.960 . S
C1276 H1262 0.960 . S
C1276 H1263 0.960 . S
C1276 C1275 1.524 . S
C1277 C1274 1.403 . S
C1277 C1278 1.392 . S
C1277 C1281 1.495 . S
C1278 C1277 1.392 . S
C1278 C1279 1.385 . S
C1278 C1280 1.478 . S
C1279 H1273 0.930 . S
C1279 C1275 1.400 . S
C1279 C1278 1.385 . S
C1280 C1278 1.478 . S
C1280 C1282 1.381 . S
C1280 C1286 1.383 . S
C1281 C1277 1.495 . S
C1281 H1287 0.959 . S
C1281 H1288 0.961 . S
C1281 H1289 0.960 . S
C1282 C1280 1.381 . S
C1282 C1283 1.394 . S
C1282 H1290 0.930 . S
C1283 C1282 1.394 . S
C1283 C1284 1.383 . S
C1283 H1291 0.929 . S
C1284 C1283 1.383 . S
C1284 C1285 1.377 . S
C1285 H1269 0.930 . S
C1285 C1284 1.377 . S
C1285 C1286 1.379 . S
C1286 H1270 0.931 . S
C1286 C1280 1.383 . S
C1286 C1285 1.379 . S
H1287 C1281 0.959 . S
H1288 C1281 0.961 . S
H1289 C1281 0.960 . S
H1290 C1282 0.930 . S
H1291 C1283 0.929 . S
H1292 C1300 0.929 . S
H1293 C1302 0.930 . S
H1294 C1304 0.930 . S
H1295 C1307 0.929 . S
H1296 C1310 0.930 . S
H1297 C1312 0.960 . S
H1298 C1312 0.960 . S
H1299 C1312 0.960 . S
C1300 H1292 0.929 . S
C1300 C1301 1.377 . S
C1300 C1302 1.384 . S
C1301 C1300 1.377 . S
C1301 C1307 1.390 . S
C1302 H1293 0.930 . S
C1302 C1300 1.384 . S
C1302 C1303 1.372 . S
C1303 C1302 1.372 . S
C1303 C1304 1.400 . S
C1303 C1308 1.490 . S
C1304 H1294 0.930 . S
C1304 C1303 1.400 . S
C1304 C1307 1.386 . S
H1305 C1321 0.930 1_554 S
H1306 C1322 0.945 . S
C1307 H1295 0.929 . S
C1307 C1301 1.390 . S
C1307 C1304 1.386 . S
C1308 C1303 1.490 . S
C1308 C1310 1.395 . S
C1308 C1311 1.403 . S
H1309 C1315 0.930 . S
C1310 H1296 0.930 . S
C1310 C1308 1.395 . S
C1310 C1313 1.403 . S
C1311 C1308 1.403 . S
C1311 C1312 1.524 . S
C1311 C1315 1.400 . S
C1312 H1297 0.960 . S
C1312 H1298 0.960 . S
C1312 H1299 0.960 . S
C1312 C1311 1.524 . S
C1313 C1310 1.403 . S
C1313 C1314 1.392 . S
C1313 C1317 1.495 1_656 S
C1314 C1313 1.392 . S
C1314 C1315 1.385 . S
C1314 C1316 1.478 . S
C1315 H1309 0.930 . S
C1315 C1311 1.400 . S
C1315 C1314 1.385 . S
C1316 C1314 1.478 . S
C1316 C1318 1.391 . S
C1316 C1322 1.383 . S
C1317 C1313 1.495 1_454 S
C1317 H1323 0.959 . S
C1317 H1324 0.961 1_455 S
C1317 H1325 0.960 . S
C1318 C1316 1.391 . S
C1318 C1319 1.393 1_655 S
C1318 H1326 0.921 1_655 S
C1319 C1318 1.393 1_455 S
C1319 C1320 1.383 1_455 S
C1319 H1327 0.929 . S
C1320 C1319 1.383 1_655 S
C1320 C1321 1.377 . S
C1321 H1305 0.930 1_556 S
C1321 C1320 1.377 . S
C1321 C1322 1.379 . S
C1322 H1306 0.945 . S
C1322 C1316 1.383 . S
C1322 C1321 1.379 . S
H1323 C1317 0.959 . S
H1324 C1317 0.961 1_655 S
H1325 C1317 0.960 . S
H1326 C1318 0.921 1_455 S
H1327 C1319 0.929 . S
H1328 C1336 0.929 . S
H1329 C1338 0.930 . S
H1330 C1340 0.930 . S
H1331 C1343 0.929 . S
H1332 C1346 0.930 . S
H1333 C1348 0.960 . S
H1334 C1348 0.960 . S
H1335 C1348 0.960 . S
C1336 H1328 0.929 . S
C1336 C1337 1.377 . S
C1336 C1338 1.384 . S
C1337 C1336 1.377 . S
C1337 C1343 1.390 . S
C1338 H1329 0.930 . S
C1338 C1336 1.384 . S
C1338 C1339 1.372 . S
C1339 C1338 1.372 . S
C1339 C1340 1.400 . S
C1339 C1344 1.490 . S
C1340 H1330 0.930 . S
C1340 C1339 1.400 . S
C1340 C1343 1.386 . S
H1341 C1357 0.930 . S
H1342 C1358 0.931 . S
C1343 H1331 0.929 . S
C1343 C1337 1.390 . S
C1343 C1340 1.386 . S
C1344 C1339 1.490 . S
C1344 C1346 1.395 . S
C1344 C1347 1.403 . S
H1345 C1351 0.930 . S
C1346 H1332 0.930 . S
C1346 C1344 1.395 . S
C1346 C1349 1.403 . S
C1347 C1344 1.403 . S
C1347 C1348 1.524 . S
C1347 C1351 1.400 . S
C1348 H1333 0.960 . S
C1348 H1334 0.960 . S
C1348 H1335 0.960 . S
C1348 C1347 1.524 . S
C1349 C1346 1.403 . S
C1349 C1350 1.392 . S
C1349 C1353 1.495 . S
C1350 C1349 1.392 . S
C1350 C1351 1.385 . S
C1350 C1352 1.478 . S
C1351 H1345 0.930 . S
C1351 C1347 1.400 . S
C1351 C1350 1.385 . S
C1352 C1350 1.478 . S
C1352 C1354 1.381 . S
C1352 C1358 1.383 . S
C1353 C1349 1.495 . S
C1353 H1359 0.959 . S
C1353 H1360 0.961 . S
C1353 H1361 0.960 . S
C1354 C1352 1.381 . S
C1354 C1355 1.394 . S
C1354 H1362 0.930 . S
C1355 C1354 1.394 . S
C1355 C1356 1.383 . S
C1355 H1363 0.929 . S
C1356 C1355 1.383 . S
C1356 C1357 1.377 . S
C1357 H1341 0.930 . S
C1357 C1356 1.377 . S
C1357 C1358 1.379 . S
C1358 H1342 0.931 . S
C1358 C1352 1.383 . S
C1358 C1357 1.379 . S
H1359 C1353 0.959 . S
H1360 C1353 0.961 . S
H1361 C1353 0.960 . S
H1362 C1354 0.930 . S
H1363 C1355 0.929 . S
H1364 C1372 0.929 . S
H1365 C1374 0.930 . S
H1366 C1376 0.930 . S
H1367 C1379 0.929 . S
H1368 C1382 0.930 . S
H1369 C1384 0.960 . S
H1370 C1384 0.960 . S
H1371 C1384 0.960 . S
C1372 H1364 0.929 . S
C1372 C1373 1.377 . S
C1372 C1374 1.384 . S
C1373 C1372 1.377 . S
C1373 C1379 1.390 . S
C1374 H1365 0.930 . S
C1374 C1372 1.384 . S
C1374 C1375 1.372 . S
C1375 C1374 1.372 . S
C1375 C1376 1.400 . S
C1375 C1380 1.490 . S
C1376 H1366 0.930 . S
C1376 C1375 1.400 . S
C1376 C1379 1.386 . S
H1377 C1393 0.930 . S
H1378 C1394 0.931 . S
C1379 H1367 0.929 . S
C1379 C1373 1.390 . S
C1379 C1376 1.386 . S
C1380 C1375 1.490 . S
C1380 C1382 1.395 . S
C1380 C1383 1.403 . S
H1381 C1387 0.930 . S
C1382 H1368 0.930 . S
C1382 C1380 1.395 . S
C1382 C1385 1.403 . S
C1383 C1380 1.403 . S
C1383 C1384 1.524 . S
C1383 C1387 1.400 . S
C1384 H1369 0.960 . S
C1384 H1370 0.960 . S
C1384 H1371 0.960 . S
C1384 C1383 1.524 . S
C1385 C1382 1.403 . S
C1385 C1386 1.392 . S
C1385 C1389 1.495 . S
C1386 C1385 1.392 . S
C1386 C1387 1.385 . S
C1386 C1388 1.478 . S
C1387 H1381 0.930 . S
C1387 C1383 1.400 . S
C1387 C1386 1.385 . S
C1388 C1386 1.478 . S
C1388 C1390 1.381 . S
C1388 C1394 1.383 . S
C1389 C1385 1.495 . S
C1389 H1395 0.959 . S
C1389 H1396 0.961 . S
C1389 H1397 0.960 . S
C1390 C1388 1.381 . S
C1390 C1391 1.394 . S
C1390 H1398 0.895 1_455 S
C1391 C1390 1.394 . S
C1391 C1392 1.383 . S
C1391 H1399 0.929 1_455 S
C1392 C1391 1.383 . S
C1392 C1393 1.377 . S
C1393 H1377 0.930 . S
C1393 C1392 1.377 . S
C1393 C1394 1.379 . S
C1394 H1378 0.931 . S
C1394 C1388 1.383 . S
C1394 C1393 1.379 . S
H1395 C1389 0.959 . S
H1396 C1389 0.961 . S
H1397 C1389 0.960 . S
H1398 C1390 0.895 1_655 S
H1399 C1391 0.929 1_655 S
H1400 C1408 0.929 . S
H1401 C1410 0.930 . S
H1402 C1412 0.930 . S
H1403 C1415 0.929 . S
H1404 C1418 0.930 . S
H1405 C1420 0.960 . S
H1406 C1420 0.960 . S
H1407 C1420 0.960 . S
C1408 H1400 0.929 . S
C1408 C1409 1.377 . S
C1408 C1410 1.384 . S
C1409 C1408 1.377 . S
C1409 C1415 1.390 . S
C1410 H1401 0.930 . S
C1410 C1408 1.384 . S
C1410 C1411 1.372 . S
C1411 C1410 1.372 . S
C1411 C1412 1.400 . S
C1411 C1416 1.490 . S
C1412 H1402 0.930 . S
C1412 C1411 1.400 . S
C1412 C1415 1.386 . S
H1413 C1429 0.930 . S
H1414 C1430 0.931 . S
C1415 H1403 0.929 . S
C1415 C1409 1.390 . S
C1415 C1412 1.386 . S
C1416 C1411 1.490 . S
C1416 C1418 1.395 . S
C1416 C1419 1.403 . S
H1417 C1423 0.930 . S
C1418 H1404 0.930 . S
C1418 C1416 1.395 . S
C1418 C1421 1.403 . S
C1419 C1416 1.403 . S
C1419 C1420 1.524 . S
C1419 C1423 1.400 . S
C1420 H1405 0.960 . S
C1420 H1406 0.960 . S
C1420 H1407 0.960 . S
C1420 C1419 1.524 . S
C1421 C1418 1.403 . S
C1421 C1422 1.392 . S
C1421 C1425 1.495 . S
C1422 C1421 1.392 . S
C1422 C1423 1.385 . S
C1422 C1424 1.478 . S
C1423 H1417 0.930 . S
C1423 C1419 1.400 . S
C1423 C1422 1.385 . S
C1424 C1422 1.478 . S
C1424 C1426 1.381 . S
C1424 C1430 1.383 . S
C1425 C1421 1.495 . S
C1425 H1431 0.959 . S
C1425 H1432 0.961 . S
C1425 H1433 0.960 . S
C1426 C1424 1.381 . S
C1426 C1427 1.394 . S
C1426 H1434 0.930 . S
C1427 C1426 1.394 . S
C1427 C1428 1.383 . S
C1427 H1435 0.929 . S
C1428 C1427 1.383 . S
C1428 C1429 1.377 . S
C1429 H1413 0.930 . S
C1429 C1428 1.377 . S
C1429 C1430 1.379 . S
C1430 H1414 0.931 . S
C1430 C1424 1.383 . S
C1430 C1429 1.379 . S
H1431 C1425 0.959 . S
H1432 C1425 0.961 . S
H1433 C1425 0.960 . S
H1434 C1426 0.930 . S
H1435 C1427 0.929 . S
C581 C1 1.599 . S
C600 C498 1.586 . S
C617 C80 1.576 . S
C636 C522 1.590 . S
C672 C542 1.406 . S
C653 C140 1.359 . S
C689 C211 1.369 . S
C708 C565 1.418 . S
C744 C524 1.707 . S
C725 C31 1.718 . S
C780 C500 1.678 . S
C761 C61 1.681 . S
C816 C568 1.571 . S
C797 C151 1.574 . S
C852 C545 1.579 . S
C833 C200 1.559 . S
C869 C20 1.340 . S
C888 C570 1.303 . S
C924 C519 1.669 . S
C905 C121 1.610 . S
C941 C181 1.607 . S
C960 C497 1.662 . S
C977 C91 1.304 . S
C996 C547 1.315 . S
C1032 C501 1.682 1_545 S
C1013 C260 1.679 . S
C1049 C320 1.579 . S
C1068 C523 1.617 . S
C1085 C361 1.827 . S
C1104 C543 1.844 . S
C1121 C451 1.770 . S
C1140 C566 1.852 . S
C1157 C271 1.579 . S
C1176 C521 1.578 1_556 S
C1212 C499 1.576 . S
C1193 C301 1.505 . S
C1248 C569 1.478 . S
C1229 C380 1.501 . S
C1284 C546 1.525 . S
C1265 C440 1.504 . S
C1301 C241 1.966 . S
C1320 C567 1.930 . S
C1356 C520 1.587 . S
C1337 C391 1.564 . S
C1392 C496 1.577 . S
C1373 C421 1.522 . S
C1409 C331 1.881 . S
C1428 C544 1.920 . S
