# Generated by pormake.
# Topology anh, (6,3)-cn, num edge types: 1
# Building blocks:
#     Node 0, Type 0, BuildingBlock: GEDQOX_clean_sbu_0, # of connection points: 6
#     Node 1, Type 0, BuildingBlock: GEDQOX_clean_sbu_0, # of connection points: 6
#     Node 2, Type 0, BuildingBlock: GEDQOX_clean_sbu_0, # of connection points: 6
#     Node 3, Type 1, BuildingBlock: BETDAH_clean_linker_0, # of connection points: 3
#     Node 4, Type 1, BuildingBlock: BETDAH_clean_linker_0, # of connection points: 3
#     Node 5, Type 1, BuildingBlock: BETDAH_clean_linker_0, # of connection points: 3
#     Node 6, Type 1, BuildingBlock: BETDAH_clean_linker_0, # of connection points: 3
#     Node 7, Type 1, BuildingBlock: BETDAH_clean_linker_0, # of connection points: 3
#     Node 8, Type 1, BuildingBlock: BETDAH_clean_linker_0, # of connection points: 3
#     Edge 9, Type (0, 1), BuildingBlock: AJUNOK_clean_linker_0, # of connection points: 2
#     Edge 10, Type (0, 1), BuildingBlock: AJUNOK_clean_linker_0, # of connection points: 2
#     Edge 11, Type (0, 1), BuildingBlock: AJUNOK_clean_linker_0, # of connection points: 2
#     Edge 12, Type (0, 1), BuildingBlock: AJUNOK_clean_linker_0, # of connection points: 2
#     Edge 13, Type (0, 1), BuildingBlock: AJUNOK_clean_linker_0, # of connection points: 2
#     Edge 14, Type (0, 1), BuildingBlock: AJUNOK_clean_linker_0, # of connection points: 2
#     Edge 15, Type (0, 1), BuildingBlock: AJUNOK_clean_linker_0, # of connection points: 2
#     Edge 16, Type (0, 1), BuildingBlock: AJUNOK_clean_linker_0, # of connection points: 2
#     Edge 17, Type (0, 1), BuildingBlock: AJUNOK_clean_linker_0, # of connection points: 2
#     Edge 18, Type (0, 1), BuildingBlock: AJUNOK_clean_linker_0, # of connection points: 2
#     Edge 19, Type (0, 1), BuildingBlock: AJUNOK_clean_linker_0, # of connection points: 2
#     Edge 20, Type (0, 1), BuildingBlock: AJUNOK_clean_linker_0, # of connection points: 2
#     Edge 21, Type (0, 1), BuildingBlock: AJUNOK_clean_linker_0, # of connection points: 2
#     Edge 22, Type (0, 1), BuildingBlock: AJUNOK_clean_linker_0, # of connection points: 2
#     Edge 23, Type (0, 1), BuildingBlock: AJUNOK_clean_linker_0, # of connection points: 2
#     Edge 24, Type (0, 1), BuildingBlock: AJUNOK_clean_linker_0, # of connection points: 2
#     Edge 25, Type (0, 1), BuildingBlock: AJUNOK_clean_linker_0, # of connection points: 2
#     Edge 26, Type (0, 1), BuildingBlock: AJUNOK_clean_linker_0, # of connection points: 2
# Relax obj value: 0.205
# Max RMSD: 0.211
# Mean RMSD: 0.118
data_MOF--net-anh--node1-GEDQOX_clean_sbu_0--node2-BETDAH_clean_linker_0--edge1-AJUNOK_clean_linker_0
_symmetry_space_group_name_H-M    P1
_symmetry_Int_Tables_number       1
_symmetry_cell_setting            triclinic
loop_
_symmetry_equiv_pos_as_xyz
'x, y, z'
_cell_length_a     22.150843
_cell_length_b     21.944994
_cell_length_c     36.244132
_cell_angle_alpha  92.768335
_cell_angle_beta   93.992617
_cell_angle_gamma 94.792641
loop_
_atom_site_label
_atom_site_type_symbol
_atom_site_fract_x
_atom_site_fract_y
_atom_site_fract_z
_atom_type_partial_charge
Nd0 Nd 1.12915 0.64886 0.14411 0.0
Nd1 Nd 1.11859 0.50921 0.14137 0.0
C2 C 0.16289 0.76624 0.13853 0.0
C3 C 0.22028 0.80442 0.14957 0.0
C4 C 0.26507 0.81338 0.1242 0.0
C5 C 0.32187 0.84353 0.13565 0.0
C6 C 0.33499 0.86542 0.17264 0.0
C7 C 0.28934 0.85906 0.19755 0.0
C8 C 0.23257 0.82896 0.18614 0.0
C9 C 1.11371 0.59829 0.21107 0.0
C10 C 0.25529 0.57464 0.14227 0.0
C11 C 1.09593 0.3922 0.15444 0.0
C12 C 1.04732 0.34733 0.16409 0.0
C13 C 0.99438 0.36549 0.17904 0.0
C14 C 0.94919 0.32131 0.1882 0.0
C15 C 0.95642 0.25853 0.18244 0.0
C16 C 1.0097 0.24091 0.1676 0.0
C17 C 1.05469 0.2849 0.15858 0.0
C18 C 0.13986 0.56166 0.07595 0.0
C19 C 0.99347 0.58314 0.12917 0.0
O20 O 0.16501 0.72493 0.11156 0.0
O21 O 1.13145 0.74563 0.16526 0.0
O22 O 1.08777 0.64577 0.20021 0.0
O23 O 0.14808 0.58016 0.18724 0.0
O24 O 0.22904 0.6263 0.13862 0.0
O25 O 0.22309 0.52298 0.14828 0.0
O26 O 1.11637 0.43436 0.1801 0.0
O27 O 1.09102 0.4131 0.12123 0.0
O28 O 0.16318 0.51186 0.0857 0.0
O29 O 1.10348 0.57785 0.09891 0.0
O30 O 1.01736 0.53364 0.14159 0.0
O31 O 1.02893 0.6325 0.12275 0.0
H32 H 0.25682 0.79574 0.09569 0.0
H33 H 0.35579 0.84914 0.11566 0.0
H34 H 0.29819 0.87565 0.22621 0.0
H35 H 0.19898 0.82344 0.20633 0.0
H36 H 0.98792 0.41363 0.18341 0.0
H37 H 0.90816 0.33617 0.19901 0.0
H38 H 1.01656 0.19291 0.16299 0.0
H39 H 1.09537 0.27011 0.14721 0.0
Nd40 Nd 0.59135 1.0131 0.51696 0.0
Nd41 Nd 0.72605 0.02631 0.51133 0.0
C42 C 0.47841 0.98079 0.53181 0.0
C43 C 0.43272 0.93036 0.5179 0.0
C44 C 0.42313 0.87822 0.53851 0.0
C45 C 0.38444 0.82792 0.52397 0.0
C46 C 0.35417 0.82902 0.48868 0.0
C47 C 0.36207 0.88191 0.46862 0.0
C48 C 0.40076 0.93214 0.4831 0.0
C49 C 0.62417 0.02724 0.44606 0.0
C50 C 0.66581 0.88833 0.51076 0.0
C51 C 0.83897 0.05341 0.49389 0.0
C52 C 0.87912 0.1053 0.48334 0.0
C53 C 0.85591 0.15759 0.46894 0.0
C54 C 0.89556 0.20662 0.45957 0.0
C55 C 0.95879 0.20387 0.46459 0.0
C56 C 0.98154 0.15114 0.47876 0.0
C57 C 0.94202 0.10231 0.488 0.0
C58 C 0.69023 1.01281 0.58209 0.0
C59 C 0.65282 0.14921 0.52055 0.0
O60 O 0.52581 0.96509 0.55156 0.0
O61 O 0.4927 0.02261 0.50862 0.0
O62 O 0.57838 0.05104 0.45961 0.0
O63 O 0.64912 0.99406 0.4691 0.0
O64 O 0.616 0.91315 0.51934 0.0
O65 O 0.71439 0.92238 0.50259 0.0
O66 O 0.79454 0.03272 0.46974 0.0
O67 O 0.8229 0.05541 0.52791 0.0
O68 O 0.73591 0.98708 0.56944 0.0
O69 O 0.6676 0.04598 0.55838 0.0
O70 O 0.69779 0.12482 0.50465 0.0
O71 O 0.61037 0.11397 0.53482 0.0
H72 H 0.44694 0.87556 0.56545 0.0
H73 H 0.37987 0.78739 0.53981 0.0
H74 H 0.33885 0.88408 0.44146 0.0
H75 H 0.40661 0.97172 0.46656 0.0
H76 H 0.80732 0.16065 0.46524 0.0
H77 H 0.87688 0.24712 0.44925 0.0
H78 H 1.03005 0.14778 0.48277 0.0
H79 H 0.96064 0.06222 0.49901 0.0
Nd80 Nd 0.56706 0.50487 0.80329 0.0
Nd81 Nd 0.69896 0.5048 0.82816 0.0
C82 C 0.46081 0.51432 0.76849 0.0
C83 C 0.43183 0.57225 0.76522 0.0
C84 C 0.46528 0.62432 0.75332 0.0
C85 C 0.44901 0.68293 0.76234 0.0
C86 C 0.39873 0.69028 0.78287 0.0
C87 C 0.36095 0.63849 0.79063 0.0
C88 C 0.37752 0.57971 0.78194 0.0
C89 C 0.59314 0.52887 0.8787 0.0
C90 C 0.64638 0.63482 0.81852 0.0
C91 C 0.8108 0.49236 0.85453 0.0
C92 C 0.87031 0.52246 0.84831 0.0
C93 C 0.92118 0.51043 0.87088 0.0
C94 C 0.97756 0.54124 0.86633 0.0
C95 C 0.9838 0.58453 0.83912 0.0
C96 C 0.93305 0.59469 0.81555 0.0
C97 C 0.87654 0.56389 0.82019 0.0
C98 C 0.67689 0.52322 0.75399 0.0
C99 C 0.61674 0.37218 0.8162 0.0
O100 O 0.51034 0.51079 0.75111 0.0
O101 O 0.46622 0.49462 0.80207 0.0
O102 O 0.55452 0.55719 0.85887 0.0
O103 O 0.6153 0.48881 0.85895 0.0
O104 O 0.60468 0.60367 0.79574 0.0
O105 O 0.68344 0.60593 0.8403 0.0
O106 O 0.7839 0.45942 0.82612 0.0
O107 O 0.77416 0.52614 0.87164 0.0
O108 O 0.72098 0.55232 0.77468 0.0
O109 O 0.6479 0.485 0.77234 0.0
O110 O 0.66806 0.40257 0.82972 0.0
O111 O 0.57045 0.40063 0.80276 0.0
H112 H 0.50727 0.62038 0.74012 0.0
H113 H 0.47853 0.72241 0.7561 0.0
H114 H 0.32203 0.64338 0.80673 0.0
H115 H 0.35108 0.5405 0.79142 0.0
H116 H 0.917 0.47841 0.89259 0.0
H117 H 1.01577 0.53324 0.88528 0.0
H118 H 0.93678 0.62758 0.7943 0.0
H119 H 0.83753 0.57332 0.80238 0.0
H120 H 0.54253 0.97855 0.28725 0.0
H121 H 0.7298 0.04246 0.27793 0.0
H122 H 0.61796 0.97051 0.18125 0.0
C123 C 0.58049 0.98757 0.27035 0.0
C124 C 0.57321 0.97209 0.23225 0.0
C125 C 0.63687 1.01217 0.28714 0.0
C126 C 0.68614 0.02347 0.2652 0.0
C127 C 0.67895 1.0086 0.22683 0.0
C128 C 0.62297 0.98205 0.21079 0.0
N129 N 0.72765 1.01685 0.20372 0.0
C130 C 0.7712 0.06654 0.20706 0.0
H131 H 0.65768 0.39852 0.60364 0.0
H132 H 0.67223 0.58713 0.57565 0.0
H133 H 0.67106 0.44288 0.49034 0.0
C134 C 0.66091 0.43264 0.58303 0.0
C135 C 0.66239 0.41343 0.54578 0.0
C136 C 0.66445 0.49499 0.59414 0.0
C137 C 0.67021 0.53889 0.56728 0.0
C138 C 0.67294 0.52012 0.52966 0.0
C139 C 0.66953 0.45737 0.51926 0.0
N140 N 0.67868 0.56263 0.50149 0.0
C141 C 0.67652 0.62555 0.507 0.0
H142 H 0.1605 0.6497 0.9345 0.0
H143 H 0.28797 0.79156 0.9868 0.0
H144 H 0.2287 0.79583 0.87093 0.0
C145 C 0.19058 0.69094 0.93251 0.0
C146 C 0.19246 0.71893 0.89887 0.0
C147 C 0.22353 0.71732 0.9643 0.0
C148 C 0.26145 0.77148 0.9623 0.0
C149 C 0.26569 0.79886 0.92812 0.0
C150 C 0.22916 0.77333 0.89677 0.0
N151 N 0.30856 0.84988 0.92489 0.0
C152 C 0.33931 0.85353 0.89284 0.0
H153 H 0.19312 0.65298 0.36928 0.0
H154 H 0.13508 0.46096 0.37083 0.0
H155 H 0.23566 0.55401 0.46586 0.0
C156 C 0.18987 0.61096 0.38387 0.0
C157 C 0.21649 0.6105 0.42007 0.0
C158 C 0.1606 0.55728 0.36591 0.0
C159 C 0.15685 0.50273 0.38473 0.0
C160 C 0.18329 0.50205 0.42113 0.0
C161 C 0.2137 0.55555 0.43827 0.0
N162 N 0.18332 0.44772 0.44063 0.0
C163 C 0.13506 0.40282 0.43872 0.0
H164 H 0.63265 0.1308 0.72966 0.0
H165 H 0.6504 0.94291 0.75426 0.0
H166 H 0.62327 0.07622 0.84142 0.0
C167 C 0.63239 0.09513 0.74935 0.0
C168 C 0.62608 0.11068 0.78674 0.0
C169 C 0.64051 0.03476 0.73723 0.0
C170 C 0.64359 0.98942 0.76337 0.0
C171 C 0.63741 1.0045 0.80114 0.0
C172 C 0.62849 0.06497 0.81243 0.0
N173 N 0.64022 0.96078 0.82879 0.0
C174 C 0.64593 0.89856 0.8224 0.0
H175 H 0.74542 0.56393 0.03173 0.0
H176 H 0.55721 0.55859 0.05574 0.0
H177 H 0.69822 0.57601 0.14471 0.0
C178 C 0.71118 0.565 0.05169 0.0
C179 C 0.72971 0.57078 0.08967 0.0
C180 C 0.64927 0.56059 0.03904 0.0
C181 C 0.60491 0.56257 0.06516 0.0
C182 C 0.62228 0.56816 0.10343 0.0
C183 C 0.6847 0.57157 0.11532 0.0
N184 N 0.57896 0.57035 0.1309 0.0
C185 C 0.5156 0.56966 0.1251 0.0
C186 C 0.35449 0.52502 0.14909 0.0
C187 C 0.32213 0.57415 0.13721 0.0
C188 C 0.41701 0.52322 0.14419 0.0
C189 C 0.44972 0.56992 0.1267 0.0
H190 H 0.33159 0.48788 0.16278 0.0
H191 H 0.44009 0.48524 0.15462 0.0
S192 S 0.38703 0.70653 0.08793 0.0
N193 N 0.32851 0.66972 0.10549 0.0
N194 N 0.44519 0.66544 0.09621 0.0
C195 C 0.41816 0.61857 0.11398 0.0
C196 C 0.35467 0.62091 0.11924 0.0
C197 C 1.04762 0.2784 0.48443 0.0
C198 C 1.00166 0.25665 0.45707 0.0
C199 C 1.09045 0.32651 0.47801 0.0
C200 C 1.08895 0.3544 0.44403 0.0
H201 H 1.05047 0.25805 0.51108 0.0
H202 H 1.12526 0.34174 0.49977 0.0
S203 S 0.97882 0.31507 0.36317 0.0
N204 N 0.95753 0.26697 0.3945 0.0
N205 N 1.03852 0.358 0.38267 0.0
C206 C 1.04331 0.33392 0.41647 0.0
C207 C 0.99937 0.28488 0.42298 0.0
C208 C 0.61836 0.73225 0.7911 0.0
C209 C 0.65034 0.7029 0.81922 0.0
C210 C 0.61818 0.79623 0.79177 0.0
C211 C 0.65023 0.83313 0.82045 0.0
H212 H 0.59272 0.70565 0.76843 0.0
H213 H 0.59204 0.8168 0.77002 0.0
S214 S 0.7417 0.78087 0.90041 0.0
N215 N 0.71553 0.71704 0.87646 0.0
N216 N 0.71514 0.83728 0.87737 0.0
C217 C 0.68313 0.80511 0.84837 0.0
C218 C 0.68334 0.73995 0.84781 0.0
C219 C 0.88529 0.53687 0.13392 0.0
C220 C 0.92587 0.58232 0.12048 0.0
C221 C 0.82188 0.5345 0.12505 0.0
C222 C 0.79631 0.57682 0.10185 0.0
H223 H 0.9026 0.50256 0.15135 0.0
H224 H 0.7928 0.49821 0.13561 0.0
S225 S 0.88112 0.70579 0.05999 0.0
N226 N 0.93425 0.67178 0.08329 0.0
N227 N 0.81627 0.66652 0.06658 0.0
C228 C 0.83607 0.62281 0.08865 0.0
C229 C 0.90032 0.62577 0.09796 0.0
C230 C 0.32713 0.75239 0.43566 0.0
C231 C 0.31724 0.77399 0.47174 0.0
C232 C 0.29405 0.69978 0.41913 0.0
C233 C 0.24989 0.66673 0.43806 0.0
H234 H 0.36149 0.77577 0.4203 0.0
H235 H 0.30386 0.68426 0.39152 0.0
S236 S 0.20354 0.70659 0.53198 0.0
N237 N 0.25807 0.76006 0.52519 0.0
N238 N 0.19584 0.66088 0.49407 0.0
C239 C 0.23893 0.68822 0.47395 0.0
C240 C 0.27262 0.74189 0.4908 0.0
C241 C 0.57291 0.27102 0.78661 0.0
C242 C 0.61371 0.30414 0.8133 0.0
C243 C 0.57573 0.20799 0.77918 0.0
C244 C 0.61891 0.17544 0.79846 0.0
H245 H 0.54036 0.29434 0.77004 0.0
H246 H 0.54483 0.18479 0.75749 0.0
S247 S 0.73243 0.23922 0.87338 0.0
N248 N 0.69578 0.29836 0.86102 0.0
N249 N 0.70106 0.18019 0.84679 0.0
C250 C 0.65786 0.20722 0.82651 0.0
C251 C 0.65529 0.27146 0.83396 0.0
C252 C 0.72137 0.79384 0.50332 0.0
C253 C 0.66735 0.82058 0.51055 0.0
C254 C 0.72431 0.73018 0.50287 0.0
C255 C 0.67349 0.69105 0.50968 0.0
H256 H 0.76184 0.82214 0.49782 0.0
H257 H 0.76651 0.71145 0.49681 0.0
S258 S 0.5214 0.73584 0.53007 0.0
N259 N 0.56155 0.80131 0.52482 0.0
N260 N 0.56796 0.68187 0.52386 0.0
C261 C 0.61945 0.71643 0.51714 0.0
C262 C 0.61615 0.7812 0.51761 0.0
C263 C 1.09683 0.59705 0.84264 0.0
C264 C 1.04137 0.6239 0.83942 0.0
C265 C 0.15012 0.63141 0.85684 0.0
C266 C 0.14927 0.69346 0.86819 0.0
H267 H 1.09778 0.54805 0.83773 0.0
H268 H 0.19036 0.60777 0.86303 0.0
S269 S 1.01911 0.78795 0.8576 0.0
N270 N 0.99127 0.71837 0.84249 0.0
N271 N 1.09189 0.78283 0.8691 0.0
C272 C 1.09642 0.72264 0.86005 0.0
C273 C 1.04206 0.68772 0.84568 0.0
C274 C 0.40328 0.94891 0.20729 0.0
C275 C 0.39655 0.89332 0.18579 0.0
C276 C 0.46066 0.97442 0.22175 0.0
C277 C 0.51345 0.94535 0.21521 0.0
H278 H 0.36383 0.97279 0.21306 0.0
H279 H 0.46377 1.01722 0.23826 0.0
S280 S 0.5202 0.79732 0.16243 0.0
N281 N 0.44735 0.80888 0.15981 0.0
N282 N 0.55528 0.85717 0.18676 0.0
C283 C 0.50746 0.88992 0.19364 0.0
C284 C 0.449 0.86383 0.179 0.0
C285 C 0.6996 0.25545 0.51187 0.0
C286 C 0.65176 0.21688 0.52415 0.0
C287 C 0.70156 0.31943 0.51733 0.0
C288 C 0.65589 0.34697 0.53538 0.0
H289 H 0.73669 0.23621 0.49873 0.0
H290 H 0.74018 0.34733 0.50868 0.0
S291 S 0.51774 0.26808 0.5695 0.0
N292 N 0.55515 0.21223 0.55279 0.0
N293 N 0.55934 0.33202 0.5629 0.0
C294 C 0.60664 0.3094 0.54635 0.0
C295 C 0.60442 0.24448 0.5408 0.0
C296 C 0.33948 0.77791 0.79994 0.0
C297 C 0.3934 0.74869 0.8037 0.0
C298 C 0.32603 0.82138 0.82709 0.0
C299 C 0.36511 0.8348 0.85919 0.0
H300 H 0.30568 0.76373 0.77744 0.0
H301 H 0.28209 0.83967 0.82468 0.0
S302 S 0.51572 0.77758 0.87921 0.0
N303 N 0.48991 0.74273 0.83911 0.0
N304 N 0.46296 0.82231 0.89095 0.0
C305 C 0.42173 0.81081 0.86134 0.0
C306 C 0.4362 0.76782 0.83335 0.0
C307 C 0.88824 0.16474 0.16231 0.0
C308 C 0.90772 0.21091 0.18989 0.0
C309 C 0.84366 0.11803 0.16846 0.0
C310 C 0.81712 0.11564 0.20241 0.0
H311 H 0.90741 0.16489 0.13561 0.0
H312 H 0.82989 0.08347 0.14643 0.0
S313 S 0.8522 0.22401 0.284 0.0
N314 N 0.89717 0.25055 0.2528 0.0
N315 N 0.81281 0.16234 0.26411 0.0
C316 C 0.83563 0.16116 0.23029 0.0
C317 C 0.88107 0.20905 0.22404 0.0
C318 C 1.13408 0.65388 0.03924 0.0
C319 C 0.16594 0.60386 0.04959 0.0
C320 C 0.15705 0.69525 0.01448 0.0
C321 C 0.21261 0.68799 -0.00089 0.0
H322 H 1.09025 0.66034 0.04968 0.0
H323 H 1.12937 0.73097 0.00546 0.0
S324 S 0.31557 0.56715 0.01858 0.0
N325 N 0.25782 0.55143 0.04407 0.0
N326 N 0.30019 0.62899 -0.0033 0.0
C327 C 0.24611 0.63971 0.01016 0.0
C328 C 0.22284 0.59748 0.03551 0.0
C329 C 0.59982 0.0636 0.38324 0.0
C330 C 0.63514 0.02825 0.40624 0.0
C331 C 0.60342 0.06088 0.34481 0.0
C332 C 0.64304 0.02335 0.3279 0.0
H333 H 0.56742 0.09209 0.39481 0.0
H334 H 0.57337 0.0867 0.32801 0.0
S335 S 0.74854 0.92511 0.37558 0.0
N336 N 0.71352 0.95696 0.40936 0.0
N337 N 0.72065 0.95249 0.33691 0.0
C338 C 0.68099 0.99022 0.35058 0.0
C339 C 0.67695 0.99252 0.38983 0.0
C340 C 0.623 0.48679 0.69337 0.0
C341 C 0.67004 0.52431 0.71316 0.0
C342 C 0.61923 0.4811 0.65466 0.0
C343 C 0.66272 0.51213 0.63418 0.0
H344 H 0.59003 0.45977 0.70786 0.0
H345 H 0.58328 0.45006 0.64067 0.0
S346 S 0.79209 0.61998 0.67264 0.0
N347 N 0.75834 0.59695 0.70938 0.0
N348 N 0.7522 0.58466 0.63645 0.0
C349 C 0.70816 0.55237 0.65347 0.0
C350 C 0.71166 0.55866 0.69303 0.0
C351 C 0.71082 0.98762 0.64844 0.0
C352 C 0.67339 1.01232 0.62099 0.0
C353 C 0.69834 0.99206 0.68597 0.0
C354 C 0.64782 1.02106 0.69725 0.0
H355 H 0.75122 0.96667 0.6411 0.0
H356 H 0.72989 0.97514 0.70642 0.0
S357 S 0.53112 0.0855 0.63569 0.0
N358 N 0.58081 0.06198 0.6075 0.0
N359 N 0.55661 0.06866 0.67752 0.0
C360 C 0.60816 0.04253 0.66977 0.0
C361 C 0.62113 0.03862 0.63179 0.0
C362 C 0.64582 0.50131 0.93819 0.0
C363 C 0.60555 0.53778 0.91958 0.0
C364 C 0.6588 0.50852 0.9767 0.0
C365 C 0.63202 0.55249 -0.00164 0.0
H366 H 0.66774 0.46681 0.9229 0.0
H367 H 0.69009 0.47921 0.98967 0.0
S368 S 0.52452 0.66084 0.96307 0.0
N369 N 0.53943 0.62022 0.92573 0.0
N370 N 0.56409 0.63394 -0.00194 0.0
C371 C 0.59151 0.58922 0.98013 0.0
C372 C 0.57833 0.58197 0.9408 0.0
C373 C 0.15606 0.53663 0.26158 0.0
C374 C 1.11696 0.58056 0.25003 0.0
C375 C 0.16662 0.52578 0.29925 0.0
C376 C 0.13862 0.55872 0.32652 0.0
H377 H 0.1808 0.51243 0.2416 0.0
H378 H 0.19957 0.49413 0.30723 0.0
S379 S 1.02639 0.67244 0.31072 0.0
N380 N 1.04516 0.65221 0.26885 0.0
N381 N 1.06606 0.63233 0.33952 0.0
C382 C 1.09667 0.5998 0.31523 0.0
C383 C 1.0855 0.61054 0.27698 0.0
loop_
_geom_bond_atom_site_label_1
_geom_bond_atom_site_label_2
_geom_bond_distance
_geom_bond_site_symmetry_2
_ccdc_geom_bond_type
Nd0 C2 2.836 . S
Nd0 O20 2.500 . S
Nd0 O21 2.492 . S
Nd0 O22 2.487 . S
Nd0 O23 2.682 . S
Nd0 O24 2.410 . S
Nd0 O29 2.414 . S
Nd0 O31 2.424 1_455 S
Nd1 C11 2.836 . S
Nd1 O23 2.414 1_655 S
Nd1 O25 2.424 1_655 S
Nd1 O26 2.500 . S
Nd1 O27 2.492 . S
Nd1 O28 2.487 . S
Nd1 O29 2.682 1_655 S
Nd1 O30 2.410 . S
C2 Nd0 2.836 . S
C2 C3 1.498 . S
C2 O20 1.258 . S
C2 O21 1.239 . S
C3 C2 1.498 . S
C3 C4 1.366 . S
C3 C8 1.407 . S
C4 C3 1.366 . S
C4 C5 1.392 . S
C4 H32 0.930 . S
C5 C4 1.392 . S
C5 C6 1.398 . S
C5 H33 0.929 . S
C6 C5 1.398 . S
C6 C7 1.352 . S
C7 C6 1.352 . S
C7 C8 1.384 . S
C7 H34 0.930 . S
C8 C3 1.407 . S
C8 C7 1.384 . S
C8 H35 0.929 . S
C9 O22 1.241 . S
C9 O23 1.273 . S
C10 O24 1.251 . S
C10 O25 1.268 . S
C11 Nd1 2.836 . S
C11 C12 1.498 . S
C11 O26 1.258 . S
C11 O27 1.239 . S
C12 C11 1.498 . S
C12 C13 1.366 . S
C12 C17 1.407 . S
C13 C12 1.366 . S
C13 C14 1.392 . S
C13 H36 0.930 . S
C14 C13 1.392 . S
C14 C15 1.398 . S
C14 H37 0.929 . S
C15 C14 1.398 . S
C15 C16 1.352 . S
C16 C15 1.352 . S
C16 C17 1.384 . S
C16 H38 0.930 . S
C17 C12 1.407 . S
C17 C16 1.384 . S
C17 H39 0.929 . S
C18 O28 1.241 1_455 S
C18 O29 1.273 . S
C19 O30 1.251 . S
C19 O31 1.268 . S
O20 Nd0 2.500 . S
O20 C2 1.258 . S
O21 Nd0 2.492 . S
O21 C2 1.239 . S
O22 Nd0 2.487 . S
O22 C9 1.241 . S
O23 Nd0 2.682 . S
O23 Nd1 2.414 1_455 S
O23 C9 1.273 . S
O24 Nd0 2.410 . S
O24 C10 1.251 . S
O25 Nd1 2.424 1_455 S
O25 C10 1.268 . S
O26 Nd1 2.500 . S
O26 C11 1.258 . S
O27 Nd1 2.492 . S
O27 C11 1.239 . S
O28 Nd1 2.487 . S
O28 C18 1.241 1_655 S
O29 Nd0 2.414 . S
O29 Nd1 2.682 1_455 S
O29 C18 1.273 . S
O30 Nd1 2.410 . S
O30 C19 1.251 . S
O31 Nd0 2.424 1_655 S
O31 C19 1.268 . S
H32 C4 0.930 . S
H33 C5 0.929 . S
H34 C7 0.930 . S
H35 C8 0.929 . S
H36 C13 0.930 . S
H37 C14 0.929 . S
H38 C16 0.930 . S
H39 C17 0.929 . S
Nd40 C42 2.836 1_545 S
Nd40 O60 2.500 1_545 S
Nd40 O61 2.492 1_545 S
Nd40 O62 2.487 . S
Nd40 O63 2.682 . S
Nd40 O64 2.410 1_545 S
Nd40 O69 2.414 . S
Nd40 O71 2.424 . S
Nd41 C51 2.836 . S
Nd41 O63 2.414 . S
Nd41 O65 2.424 1_545 S
Nd41 O66 2.500 . S
Nd41 O67 2.492 . S
Nd41 O68 2.487 . S
Nd41 O69 2.682 . S
Nd41 O70 2.410 . S
C42 Nd40 2.836 1_565 S
C42 C43 1.498 . S
C42 O60 1.258 . S
C42 O61 1.239 . S
C43 C42 1.498 . S
C43 C44 1.366 . S
C43 C48 1.407 . S
C44 C43 1.366 . S
C44 C45 1.392 . S
C44 H72 0.930 . S
C45 C44 1.392 . S
C45 C46 1.398 . S
C45 H73 0.929 . S
C46 C45 1.398 . S
C46 C47 1.352 . S
C47 C46 1.352 . S
C47 C48 1.384 . S
C47 H74 0.930 . S
C48 C43 1.407 . S
C48 C47 1.384 . S
C48 H75 0.929 . S
C49 O62 1.241 . S
C49 O63 1.273 . S
C50 O64 1.251 . S
C50 O65 1.268 . S
C51 Nd41 2.836 . S
C51 C52 1.498 . S
C51 O66 1.258 . S
C51 O67 1.239 . S
C52 C51 1.498 . S
C52 C53 1.366 . S
C52 C57 1.407 . S
C53 C52 1.366 . S
C53 C54 1.392 . S
C53 H76 0.930 . S
C54 C53 1.392 . S
C54 C55 1.398 . S
C54 H77 0.929 . S
C55 C54 1.398 . S
C55 C56 1.352 . S
C56 C55 1.352 . S
C56 C57 1.384 . S
C56 H78 0.930 . S
C57 C52 1.407 . S
C57 C56 1.384 . S
C57 H79 0.929 . S
C58 O68 1.241 . S
C58 O69 1.273 . S
C59 O70 1.251 . S
C59 O71 1.268 . S
O60 Nd40 2.500 1_565 S
O60 C42 1.258 . S
O61 Nd40 2.492 1_565 S
O61 C42 1.239 . S
O62 Nd40 2.487 . S
O62 C49 1.241 . S
O63 Nd40 2.682 . S
O63 Nd41 2.414 . S
O63 C49 1.273 . S
O64 Nd40 2.410 1_565 S
O64 C50 1.251 . S
O65 Nd41 2.424 1_565 S
O65 C50 1.268 . S
O66 Nd41 2.500 . S
O66 C51 1.258 . S
O67 Nd41 2.492 . S
O67 C51 1.239 . S
O68 Nd41 2.487 . S
O68 C58 1.241 . S
O69 Nd40 2.414 . S
O69 Nd41 2.682 . S
O69 C58 1.273 . S
O70 Nd41 2.410 . S
O70 C59 1.251 . S
O71 Nd40 2.424 . S
O71 C59 1.268 . S
H72 C44 0.930 . S
H73 C45 0.929 . S
H74 C47 0.930 . S
H75 C48 0.929 . S
H76 C53 0.930 . S
H77 C54 0.929 . S
H78 C56 0.930 . S
H79 C57 0.929 . S
Nd80 C82 2.836 . S
Nd80 O100 2.500 . S
Nd80 O101 2.492 . S
Nd80 O102 2.487 . S
Nd80 O103 2.682 . S
Nd80 O104 2.410 . S
Nd80 O109 2.414 . S
Nd80 O111 2.424 . S
Nd81 C91 2.836 . S
Nd81 O103 2.414 . S
Nd81 O105 2.424 . S
Nd81 O106 2.500 . S
Nd81 O107 2.492 . S
Nd81 O108 2.487 . S
Nd81 O109 2.682 . S
Nd81 O110 2.410 . S
C82 Nd80 2.836 . S
C82 C83 1.498 . S
C82 O100 1.258 . S
C82 O101 1.239 . S
C83 C82 1.498 . S
C83 C84 1.366 . S
C83 C88 1.407 . S
C84 C83 1.366 . S
C84 C85 1.392 . S
C84 H112 0.930 . S
C85 C84 1.392 . S
C85 C86 1.398 . S
C85 H113 0.929 . S
C86 C85 1.398 . S
C86 C87 1.352 . S
C87 C86 1.352 . S
C87 C88 1.384 . S
C87 H114 0.930 . S
C88 C83 1.407 . S
C88 C87 1.384 . S
C88 H115 0.929 . S
C89 O102 1.241 . S
C89 O103 1.273 . S
C90 O104 1.251 . S
C90 O105 1.268 . S
C91 Nd81 2.836 . S
C91 C92 1.498 . S
C91 O106 1.258 . S
C91 O107 1.239 . S
C92 C91 1.498 . S
C92 C93 1.366 . S
C92 C97 1.407 . S
C93 C92 1.366 . S
C93 C94 1.392 . S
C93 H116 0.930 . S
C94 C93 1.392 . S
C94 C95 1.398 . S
C94 H117 0.929 . S
C95 C94 1.398 . S
C95 C96 1.352 . S
C96 C95 1.352 . S
C96 C97 1.384 . S
C96 H118 0.930 . S
C97 C92 1.407 . S
C97 C96 1.384 . S
C97 H119 0.929 . S
C98 O108 1.241 . S
C98 O109 1.273 . S
C99 O110 1.251 . S
C99 O111 1.268 . S
O100 Nd80 2.500 . S
O100 C82 1.258 . S
O101 Nd80 2.492 . S
O101 C82 1.239 . S
O102 Nd80 2.487 . S
O102 C89 1.241 . S
O103 Nd80 2.682 . S
O103 Nd81 2.414 . S
O103 C89 1.273 . S
O104 Nd80 2.410 . S
O104 C90 1.251 . S
O105 Nd81 2.424 . S
O105 C90 1.268 . S
O106 Nd81 2.500 . S
O106 C91 1.258 . S
O107 Nd81 2.492 . S
O107 C91 1.239 . S
O108 Nd81 2.487 . S
O108 C98 1.241 . S
O109 Nd80 2.414 . S
O109 Nd81 2.682 . S
O109 C98 1.273 . S
O110 Nd81 2.410 . S
O110 C99 1.251 . S
O111 Nd80 2.424 . S
O111 C99 1.268 . S
H112 C84 0.930 . S
H113 C85 0.929 . S
H114 C87 0.930 . S
H115 C88 0.929 . S
H116 C93 0.930 . S
H117 C94 0.929 . S
H118 C96 0.930 . S
H119 C97 0.929 . S
H120 C123 0.929 1_565 S
H121 C126 0.929 . S
H122 C128 0.930 . S
C123 H120 0.929 1_545 S
C123 C124 1.398 1_545 S
C123 C125 1.396 . S
C124 C123 1.398 1_565 S
C124 C128 1.407 1_565 S
C125 C123 1.396 . S
C125 C126 1.394 . S
C126 H121 0.929 . S
C126 C125 1.394 . S
C126 C127 1.382 . S
C127 C126 1.382 . S
C127 C128 1.392 . S
C127 N129 1.420 . S
C128 H122 0.930 . S
C128 C124 1.407 1_545 S
C128 C127 1.392 . S
N129 C127 1.420 . S
N129 C130 1.244 . S
C130 N129 1.244 . S
H131 C134 0.929 . S
H132 C137 0.929 . S
H133 C139 0.930 . S
C134 H131 0.929 . S
C134 C135 1.398 . S
C134 C136 1.396 . S
C135 C134 1.398 . S
C135 C139 1.407 . S
C136 C134 1.396 . S
C136 C137 1.394 . S
C137 H132 0.929 . S
C137 C136 1.394 . S
C137 C138 1.382 . S
C138 C137 1.382 . S
C138 C139 1.392 . S
C138 N140 1.420 . S
C139 H133 0.930 . S
C139 C135 1.407 . S
C139 C138 1.392 . S
N140 C138 1.420 . S
N140 C141 1.244 . S
C141 N140 1.244 . S
H142 C145 0.929 . S
H143 C148 0.929 . S
H144 C150 0.930 . S
C145 H142 0.929 . S
C145 C146 1.398 . S
C145 C147 1.396 1_655 S
C146 C145 1.398 . S
C146 C150 1.407 1_655 S
C147 C145 1.396 1_455 S
C147 C148 1.394 . S
C148 H143 0.929 . S
C148 C147 1.394 . S
C148 C149 1.382 . S
C149 C148 1.382 . S
C149 C150 1.392 . S
C149 N151 1.420 . S
C150 H144 0.930 . S
C150 C146 1.407 1_455 S
C150 C149 1.392 . S
N151 C149 1.420 . S
N151 C152 1.244 . S
C152 N151 1.244 . S
H153 C156 0.929 . S
H154 C159 0.929 . S
H155 C161 0.930 . S
C156 H153 0.929 . S
C156 C157 1.398 . S
C156 C158 1.396 . S
C157 C156 1.398 . S
C157 C161 1.407 . S
C158 C156 1.396 . S
C158 C159 1.394 1_455 S
C159 H154 0.929 . S
C159 C158 1.394 1_655 S
C159 C160 1.382 . S
C160 C159 1.382 . S
C160 C161 1.392 1_655 S
C160 N162 1.420 . S
C161 H155 0.930 . S
C161 C157 1.407 . S
C161 C160 1.392 1_455 S
N162 C160 1.420 . S
N162 C163 1.244 . S
C163 N162 1.244 . S
H164 C167 0.929 . S
H165 C170 0.929 . S
H166 C172 0.930 . S
C167 H164 0.929 . S
C167 C168 1.398 . S
C167 C169 1.396 . S
C168 C167 1.398 . S
C168 C172 1.407 . S
C169 C167 1.396 . S
C169 C170 1.394 1_545 S
C170 H165 0.929 . S
C170 C169 1.394 1_565 S
C170 C171 1.382 1_565 S
C171 C170 1.382 1_545 S
C171 C172 1.407 . S
C171 N173 1.406 1_545 S
C172 H166 0.930 . S
C172 C168 1.407 . S
C172 C171 1.407 . S
N173 C171 1.406 1_565 S
N173 C174 1.244 . S
C174 N173 1.244 . S
H175 C178 0.929 . S
H176 C181 0.929 . S
H177 C183 0.930 . S
C178 H175 0.929 . S
C178 C179 1.398 . S
C178 C180 1.396 . S
C179 C178 1.398 . S
C179 C183 1.407 . S
C180 C178 1.396 . S
C180 C181 1.394 . S
C181 H176 0.929 . S
C181 C180 1.394 . S
C181 C182 1.382 . S
C182 C181 1.382 . S
C182 C183 1.392 . S
C182 N184 1.420 . S
C183 H177 0.930 . S
C183 C179 1.407 . S
C183 C182 1.392 . S
N184 C182 1.420 . S
N184 C185 1.244 . S
C185 N184 1.244 . S
C186 C187 1.369 . S
C186 C188 1.419 . S
C186 H190 0.930 . S
C187 C186 1.369 . S
C187 C196 1.429 . S
C188 C186 1.419 . S
C188 C189 1.363 . S
C188 H191 0.929 . S
C189 C188 1.363 . S
C189 C195 1.428 . S
H190 C186 0.930 . S
H191 C188 0.929 . S
S192 N193 1.613 . S
S192 N194 1.610 . S
N193 S192 1.613 . S
N193 C196 1.350 . S
N194 S192 1.610 . S
N194 C195 1.351 . S
C195 C189 1.428 . S
C195 N194 1.351 . S
C195 C196 1.434 . S
C196 C187 1.429 . S
C196 N193 1.350 . S
C196 C195 1.434 . S
C197 C198 1.369 . S
C197 C199 1.419 . S
C197 H201 0.930 . S
C198 C197 1.369 . S
C198 C207 1.429 . S
C199 C197 1.419 . S
C199 C200 1.363 . S
C199 H202 0.929 . S
C200 C199 1.363 . S
C200 C206 1.428 . S
H201 C197 0.930 . S
H202 C199 0.929 . S
S203 N204 1.613 . S
S203 N205 1.610 . S
N204 S203 1.613 . S
N204 C207 1.350 . S
N205 S203 1.610 . S
N205 C206 1.351 . S
C206 C200 1.428 . S
C206 N205 1.351 . S
C206 C207 1.434 . S
C207 C198 1.429 . S
C207 N204 1.350 . S
C207 C206 1.434 . S
C208 C209 1.369 . S
C208 C210 1.419 . S
C208 H212 0.930 . S
C209 C208 1.369 . S
C209 C218 1.429 . S
C210 C208 1.419 . S
C210 C211 1.363 . S
C210 H213 0.929 . S
C211 C210 1.363 . S
C211 C217 1.428 . S
H212 C208 0.930 . S
H213 C210 0.929 . S
S214 N215 1.613 . S
S214 N216 1.610 . S
N215 S214 1.613 . S
N215 C218 1.350 . S
N216 S214 1.610 . S
N216 C217 1.351 . S
C217 C211 1.428 . S
C217 N216 1.351 . S
C217 C218 1.434 . S
C218 C209 1.429 . S
C218 N215 1.350 . S
C218 C217 1.434 . S
C219 C220 1.369 . S
C219 C221 1.419 . S
C219 H223 0.930 . S
C220 C219 1.369 . S
C220 C229 1.429 . S
C221 C219 1.419 . S
C221 C222 1.363 . S
C221 H224 0.929 . S
C222 C221 1.363 . S
C222 C228 1.428 . S
H223 C219 0.930 . S
H224 C221 0.929 . S
S225 N226 1.613 . S
S225 N227 1.610 . S
N226 S225 1.613 . S
N226 C229 1.350 . S
N227 S225 1.610 . S
N227 C228 1.351 . S
C228 C222 1.428 . S
C228 N227 1.351 . S
C228 C229 1.434 . S
C229 C220 1.429 . S
C229 N226 1.350 . S
C229 C228 1.434 . S
C230 C231 1.369 . S
C230 C232 1.419 . S
C230 H234 0.930 . S
C231 C230 1.369 . S
C231 C240 1.429 . S
C232 C230 1.419 . S
C232 C233 1.363 . S
C232 H235 0.929 . S
C233 C232 1.363 . S
C233 C239 1.428 . S
H234 C230 0.930 . S
H235 C232 0.929 . S
S236 N237 1.613 . S
S236 N238 1.610 . S
N237 S236 1.613 . S
N237 C240 1.350 . S
N238 S236 1.610 . S
N238 C239 1.351 . S
C239 C233 1.428 . S
C239 N238 1.351 . S
C239 C240 1.434 . S
C240 C231 1.429 . S
C240 N237 1.350 . S
C240 C239 1.434 . S
C241 C242 1.369 . S
C241 C243 1.419 . S
C241 H245 0.930 . S
C242 C241 1.369 . S
C242 C251 1.429 . S
C243 C241 1.419 . S
C243 C244 1.363 . S
C243 H246 0.929 . S
C244 C243 1.363 . S
C244 C250 1.428 . S
H245 C241 0.930 . S
H246 C243 0.929 . S
S247 N248 1.613 . S
S247 N249 1.610 . S
N248 S247 1.613 . S
N248 C251 1.350 . S
N249 S247 1.610 . S
N249 C250 1.351 . S
C250 C244 1.428 . S
C250 N249 1.351 . S
C250 C251 1.434 . S
C251 C242 1.429 . S
C251 N248 1.350 . S
C251 C250 1.434 . S
C252 C253 1.369 . S
C252 C254 1.419 . S
C252 H256 0.930 . S
C253 C252 1.369 . S
C253 C262 1.429 . S
C254 C252 1.419 . S
C254 C255 1.363 . S
C254 H257 0.929 . S
C255 C254 1.363 . S
C255 C261 1.428 . S
H256 C252 0.930 . S
H257 C254 0.929 . S
S258 N259 1.613 . S
S258 N260 1.610 . S
N259 S258 1.613 . S
N259 C262 1.350 . S
N260 S258 1.610 . S
N260 C261 1.351 . S
C261 C255 1.428 . S
C261 N260 1.351 . S
C261 C262 1.434 . S
C262 C253 1.429 . S
C262 N259 1.350 . S
C262 C261 1.434 . S
C263 C264 1.369 . S
C263 C265 1.419 . S
C263 H267 0.930 . S
C264 C263 1.369 . S
C264 C273 1.429 . S
C265 C263 1.419 . S
C265 C266 1.363 . S
C265 H268 0.929 . S
C266 C265 1.363 . S
C266 C272 1.428 . S
H267 C263 0.930 . S
H268 C265 0.929 . S
S269 N270 1.613 . S
S269 N271 1.610 . S
N270 S269 1.613 . S
N270 C273 1.350 . S
N271 S269 1.610 . S
N271 C272 1.351 . S
C272 C266 1.428 . S
C272 N271 1.351 . S
C272 C273 1.434 . S
C273 C264 1.429 . S
C273 N270 1.350 . S
C273 C272 1.434 . S
C274 C275 1.369 . S
C274 C276 1.419 . S
C274 H278 0.930 . S
C275 C274 1.369 . S
C275 C284 1.429 . S
C276 C274 1.419 . S
C276 C277 1.363 . S
C276 H279 0.929 1_565 S
C277 C276 1.363 . S
C277 C283 1.428 . S
H278 C274 0.930 . S
H279 C276 0.929 1_545 S
S280 N281 1.613 . S
S280 N282 1.610 . S
N281 S280 1.613 . S
N281 C284 1.350 . S
N282 S280 1.610 . S
N282 C283 1.351 . S
C283 C277 1.428 . S
C283 N282 1.351 . S
C283 C284 1.434 . S
C284 C275 1.429 . S
C284 N281 1.350 . S
C284 C283 1.434 . S
C285 C286 1.369 . S
C285 C287 1.419 . S
C285 H289 0.930 . S
C286 C285 1.369 . S
C286 C295 1.429 . S
C287 C285 1.419 . S
C287 C288 1.363 . S
C287 H290 0.929 . S
C288 C287 1.363 . S
C288 C294 1.428 . S
H289 C285 0.930 . S
H290 C287 0.929 . S
S291 N292 1.613 . S
S291 N293 1.610 . S
N292 S291 1.613 . S
N292 C295 1.350 . S
N293 S291 1.610 . S
N293 C294 1.351 . S
C294 C288 1.428 . S
C294 N293 1.351 . S
C294 C295 1.434 . S
C295 C286 1.429 . S
C295 N292 1.350 . S
C295 C294 1.434 . S
C296 C297 1.369 . S
C296 C298 1.419 . S
C296 H300 0.930 . S
C297 C296 1.369 . S
C297 C306 1.429 . S
C298 C296 1.419 . S
C298 C299 1.363 . S
C298 H301 0.929 . S
C299 C298 1.363 . S
C299 C305 1.428 . S
H300 C296 0.930 . S
H301 C298 0.929 . S
S302 N303 1.613 . S
S302 N304 1.610 . S
N303 S302 1.613 . S
N303 C306 1.350 . S
N304 S302 1.610 . S
N304 C305 1.351 . S
C305 C299 1.428 . S
C305 N304 1.351 . S
C305 C306 1.434 . S
C306 C297 1.429 . S
C306 N303 1.350 . S
C306 C305 1.434 . S
C307 C308 1.369 . S
C307 C309 1.419 . S
C307 H311 0.930 . S
C308 C307 1.369 . S
C308 C317 1.429 . S
C309 C307 1.419 . S
C309 C310 1.363 . S
C309 H312 0.929 . S
C310 C309 1.363 . S
C310 C316 1.428 . S
H311 C307 0.930 . S
H312 C309 0.929 . S
S313 N314 1.613 . S
S313 N315 1.610 . S
N314 S313 1.613 . S
N314 C317 1.350 . S
N315 S313 1.610 . S
N315 C316 1.351 . S
C316 C310 1.428 . S
C316 N315 1.351 . S
C316 C317 1.434 . S
C317 C308 1.429 . S
C317 N314 1.350 . S
C317 C316 1.434 . S
C318 C319 1.369 . S
C318 C320 1.434 . S
C318 H322 0.930 . S
C319 C318 1.369 . S
C319 C328 1.429 . S
C320 C318 1.434 . S
C320 C321 1.355 1_554 S
C320 H323 0.922 1_554 S
C321 C320 1.355 1_556 S
C321 C327 1.428 . S
H322 C318 0.930 . S
H323 C320 0.922 1_556 S
S324 N325 1.613 . S
S324 N326 1.610 1_554 S
N325 S324 1.613 . S
N325 C328 1.350 1_655 S
N326 S324 1.610 1_556 S
N326 C327 1.351 1_655 S
C327 C321 1.428 . S
C327 N326 1.351 1_455 S
C327 C328 1.434 1_556 S
C328 C319 1.429 . S
C328 N325 1.350 1_455 S
C328 C327 1.434 1_554 S
C329 C330 1.369 . S
C329 C331 1.419 . S
C329 H333 0.930 . S
C330 C329 1.369 . S
C330 C339 1.429 1_545 S
C331 C329 1.419 . S
C331 C332 1.363 . S
C331 H334 0.929 . S
C332 C331 1.363 . S
C332 C338 1.428 1_545 S
H333 C329 0.930 . S
H334 C331 0.929 . S
S335 N336 1.613 . S
S335 N337 1.610 . S
N336 S335 1.613 . S
N336 C339 1.350 . S
N337 S335 1.610 . S
N337 C338 1.351 . S
C338 C332 1.428 1_565 S
C338 N337 1.351 . S
C338 C339 1.434 . S
C339 C330 1.429 1_565 S
C339 N336 1.350 . S
C339 C338 1.434 . S
C340 C341 1.369 . S
C340 C342 1.419 . S
C340 H344 0.930 . S
C341 C340 1.369 . S
C341 C350 1.429 . S
C342 C340 1.419 . S
C342 C343 1.363 . S
C342 H345 0.929 . S
C343 C342 1.363 . S
C343 C349 1.428 . S
H344 C340 0.930 . S
H345 C342 0.929 . S
S346 N347 1.613 . S
S346 N348 1.610 . S
N347 S346 1.613 . S
N347 C350 1.350 . S
N348 S346 1.610 . S
N348 C349 1.351 . S
C349 C343 1.428 . S
C349 N348 1.351 . S
C349 C350 1.434 . S
C350 C341 1.429 . S
C350 N347 1.350 . S
C350 C349 1.434 . S
C351 C352 1.369 . S
C351 C353 1.419 . S
C351 H355 0.930 1_545 S
C352 C351 1.369 . S
C352 C361 1.429 . S
C353 C351 1.419 . S
C353 C354 1.365 . S
C353 H356 0.926 1_545 S
C354 C353 1.365 . S
C354 C360 1.428 . S
H355 C351 0.930 1_565 S
H356 C353 0.926 1_565 S
S357 N358 1.613 . S
S357 N359 1.610 . S
N358 S357 1.613 . S
N358 C361 1.350 . S
N359 S357 1.610 . S
N359 C360 1.351 . S
C360 C354 1.428 . S
C360 N359 1.351 . S
C360 C361 1.434 . S
C361 C352 1.429 . S
C361 N358 1.350 . S
C361 C360 1.434 . S
C362 C363 1.369 . S
C362 C364 1.419 1_556 S
C362 H366 0.930 . S
C363 C362 1.369 . S
C363 C372 1.429 . S
C364 C362 1.419 1_554 S
C364 C365 1.363 . S
C364 H367 0.929 . S
C365 C364 1.363 . S
C365 C371 1.428 1_554 S
H366 C362 0.930 . S
H367 C364 0.929 . S
S368 N369 1.613 . S
S368 N370 1.610 1_556 S
N369 S368 1.613 . S
N369 C372 1.350 . S
N370 S368 1.610 1_554 S
N370 C371 1.351 1_554 S
C371 C365 1.428 1_556 S
C371 N370 1.351 1_556 S
C371 C372 1.434 . S
C372 C363 1.429 . S
C372 N369 1.350 . S
C372 C371 1.434 . S
C373 C374 1.369 1_655 S
C373 C375 1.419 . S
C373 H377 0.930 . S
C374 C373 1.369 1_455 S
C374 C383 1.429 . S
C375 C373 1.419 . S
C375 C376 1.363 1_655 S
C375 H378 0.929 . S
C376 C375 1.363 1_455 S
C376 C382 1.428 . S
H377 C373 0.930 . S
H378 C375 0.929 . S
S379 N380 1.613 . S
S379 N381 1.610 . S
N380 S379 1.613 . S
N380 C383 1.350 . S
N381 S379 1.610 . S
N381 C382 1.351 . S
C382 C376 1.428 . S
C382 N381 1.351 . S
C382 C383 1.434 . S
C383 C374 1.429 . S
C383 N380 1.350 . S
C383 C382 1.434 . S
C187 C10 3.178 . S
C189 C185 3.095 . S
C198 C55 1.346 . S
C200 C163 1.387 . S
C209 C90 1.972 . S
C211 C174 1.938 . S
C220 C19 3.013 . S
C222 C179 2.993 . S
C233 C157 1.264 . S
C231 C46 1.233 . S
C244 C168 1.942 . S
C242 C99 1.953 . S
C253 C50 1.969 . S
C255 C141 1.907 . S
C264 C95 0.849 . S
C266 C146 0.906 . S
C275 C6 1.248 . S
C277 C124 1.271 . S
C288 C135 1.880 . S
C286 C59 1.922 . S
C299 C152 0.813 . S
C297 C86 0.784 . S
C308 C15 1.393 . S
C310 C130 1.438 . S
C321 C147 1.140 . S
C319 C18 1.105 . S
C330 C49 1.504 . S
C332 C125 1.511 . S
C341 C98 1.409 . S
C343 C136 1.430 . S
C354 C169 1.447 . S
C352 C58 1.387 . S
C365 C180 1.790 . S
C363 C89 1.697 . S
C374 C9 1.509 . S
C376 C158 1.526 . S
