# Generated by pormake.
# Topology csq, (4,8)-cn, num edge types: 1
# Building blocks:
#     Node 0, Type 0, BuildingBlock: GIZVER_clean_linker_0, # of connection points: 4
#     Node 1, Type 0, BuildingBlock: GIZVER_clean_linker_0, # of connection points: 4
#     Node 2, Type 0, BuildingBlock: GIZVER_clean_linker_0, # of connection points: 4
#     Node 3, Type 0, BuildingBlock: GIZVER_clean_linker_0, # of connection points: 4
#     Node 4, Type 0, BuildingBlock: GIZVER_clean_linker_0, # of connection points: 4
#     Node 5, Type 0, BuildingBlock: GIZVER_clean_linker_0, # of connection points: 4
#     Node 6, Type 1, BuildingBlock: TAGTUT_clean_sbu_1, # of connection points: 8
#     Node 7, Type 1, BuildingBlock: TAGTUT_clean_sbu_1, # of connection points: 8
#     Node 8, Type 1, BuildingBlock: TAGTUT_clean_sbu_1, # of connection points: 8
#     Edge 9, Type (0, 1), BuildingBlock: MIFKUJ_clean_linker_0, # of connection points: 2
#     Edge 10, Type (0, 1), BuildingBlock: MIFKUJ_clean_linker_0, # of connection points: 2
#     Edge 11, Type (0, 1), BuildingBlock: MIFKUJ_clean_linker_0, # of connection points: 2
#     Edge 12, Type (0, 1), BuildingBlock: MIFKUJ_clean_linker_0, # of connection points: 2
#     Edge 13, Type (0, 1), BuildingBlock: MIFKUJ_clean_linker_0, # of connection points: 2
#     Edge 14, Type (0, 1), BuildingBlock: MIFKUJ_clean_linker_0, # of connection points: 2
#     Edge 15, Type (0, 1), BuildingBlock: MIFKUJ_clean_linker_0, # of connection points: 2
#     Edge 16, Type (0, 1), BuildingBlock: MIFKUJ_clean_linker_0, # of connection points: 2
#     Edge 17, Type (0, 1), BuildingBlock: MIFKUJ_clean_linker_0, # of connection points: 2
#     Edge 18, Type (0, 1), BuildingBlock: MIFKUJ_clean_linker_0, # of connection points: 2
#     Edge 19, Type (0, 1), BuildingBlock: MIFKUJ_clean_linker_0, # of connection points: 2
#     Edge 20, Type (0, 1), BuildingBlock: MIFKUJ_clean_linker_0, # of connection points: 2
#     Edge 21, Type (0, 1), BuildingBlock: MIFKUJ_clean_linker_0, # of connection points: 2
#     Edge 22, Type (0, 1), BuildingBlock: MIFKUJ_clean_linker_0, # of connection points: 2
#     Edge 23, Type (0, 1), BuildingBlock: MIFKUJ_clean_linker_0, # of connection points: 2
#     Edge 24, Type (0, 1), BuildingBlock: MIFKUJ_clean_linker_0, # of connection points: 2
#     Edge 25, Type (0, 1), BuildingBlock: MIFKUJ_clean_linker_0, # of connection points: 2
#     Edge 26, Type (0, 1), BuildingBlock: MIFKUJ_clean_linker_0, # of connection points: 2
#     Edge 27, Type (0, 1), BuildingBlock: MIFKUJ_clean_linker_0, # of connection points: 2
#     Edge 28, Type (0, 1), BuildingBlock: MIFKUJ_clean_linker_0, # of connection points: 2
#     Edge 29, Type (0, 1), BuildingBlock: MIFKUJ_clean_linker_0, # of connection points: 2
#     Edge 30, Type (0, 1), BuildingBlock: MIFKUJ_clean_linker_0, # of connection points: 2
#     Edge 31, Type (0, 1), BuildingBlock: MIFKUJ_clean_linker_0, # of connection points: 2
#     Edge 32, Type (0, 1), BuildingBlock: MIFKUJ_clean_linker_0, # of connection points: 2
# Relax obj value: 0.045
# Max RMSD: 0.136
# Mean RMSD: 0.097
data_MOF--net-csq--node1-TAGTUT_clean_sbu_1--node2-GIZVER_clean_linker_0--edge1-MIFKUJ_clean_linker_0
_symmetry_space_group_name_H-M    P1
_symmetry_Int_Tables_number       1
_symmetry_cell_setting            triclinic
loop_
_symmetry_equiv_pos_as_xyz
'x, y, z'
_cell_length_a     69.811759
_cell_length_b     69.052179
_cell_length_c     23.227244
_cell_angle_alpha  93.066732
_cell_angle_beta   92.183489
_cell_angle_gamma 119.91214
loop_
_atom_site_label
_atom_site_type_symbol
_atom_site_fract_x
_atom_site_fract_y
_atom_site_fract_z
_atom_type_partial_charge
H0 H 0.23891 0.50704 0.05692 0.0
H1 H 0.24383 0.51385 0.24314 0.0
H2 H 0.17993 0.47978 0.14952 0.0
H3 H 0.27272 0.5363 0.11242 0.0
H4 H 0.27532 0.53788 0.18924 0.0
H5 H 0.28822 0.51794 0.05775 0.0
H6 H 0.32197 0.48988 0.14924 0.0
H7 H 0.27969 0.508 0.23877 0.0
C8 C 0.23102 0.50301 0.09731 0.0
C9 C 0.20781 0.49224 0.0968 0.0
C10 C 0.24421 0.51062 0.15001 0.0
C11 C 0.23386 0.50699 0.20247 0.0
C12 C 0.21064 0.49558 0.20238 0.0
C13 C 0.19783 0.48784 0.14954 0.0
C14 C 0.269 0.5259 0.1499 0.0
C15 C 0.28155 0.51329 0.14779 0.0
C16 C 0.29109 0.51151 0.09671 0.0
C17 C 0.30591 0.50331 0.09728 0.0
C18 C 0.31014 0.49573 0.14843 0.0
C19 C 0.30068 0.49718 0.19953 0.0
C20 C 0.28634 0.50596 0.19895 0.0
H21 H 0.80339 0.25354 0.04675 0.0
H22 H 0.79128 0.27196 0.21588 0.0
H23 H 0.82503 0.32222 0.09739 0.0
H24 H 0.79338 0.22774 0.11996 0.0
H25 H 0.79284 0.23676 0.19282 0.0
H26 H 0.75941 0.21602 0.04884 0.0
H27 H 0.69841 0.17919 0.12951 0.0
H28 H 0.75842 0.22424 0.23372 0.0
C29 C 0.80364 0.266 0.07773 0.0
C30 C 0.81411 0.28847 0.06528 0.0
C31 C 0.79483 0.25982 0.13156 0.0
C32 C 0.7969 0.27651 0.17321 0.0
C33 C 0.80767 0.29919 0.16123 0.0
C34 C 0.8155 0.30476 0.10631 0.0
C35 C 0.78658 0.23619 0.14762 0.0
C36 C 0.76161 0.22221 0.14183 0.0
C37 C 0.75028 0.21249 0.08731 0.0
C38 C 0.72744 0.19708 0.08295 0.0
C39 C 0.71587 0.19178 0.13305 0.0
C40 C 0.72684 0.20152 0.18771 0.0
C41 C 0.74971 0.21693 0.19165 0.0
H42 H 0.55546 0.79798 0.9799 0.0
H43 H 0.53609 0.79172 0.15506 0.0
H44 H 0.51392 0.82342 0.03653 0.0
H45 H 0.57338 0.78677 0.05048 0.0
H46 H 0.56893 0.78884 0.12521 0.0
H47 H 0.5433 0.7526 0.98527 0.0
H48 H 0.5162 0.69188 0.07064 0.0
H49 H 0.54867 0.75541 0.17135 0.0
C50 C 0.54576 0.79977 0.01292 0.0
C51 C 0.53382 0.81068 0.00156 0.0
C52 C 0.54605 0.79219 0.06785 0.0
C53 C 0.53479 0.79626 0.11172 0.0
C54 C 0.52296 0.80736 0.10049 0.0
C55 C 0.52198 0.81375 0.04477 0.0
C56 C 0.56027 0.78204 0.08143 0.0
C57 C 0.54656 0.75681 0.07874 0.0
C58 C 0.53933 0.74416 0.0248 0.0
C59 C 0.52794 0.72065 0.0219 0.0
C60 C 0.52374 0.70995 0.07329 0.0
C61 C 0.53151 0.72218 0.12742 0.0
C62 C 0.5425 0.74571 0.12987 0.0
H63 H 0.75522 0.52301 0.97472 0.0
H64 H 0.75551 0.53574 0.1585 0.0
H65 H 0.69377 0.49959 0.05408 0.0
H66 H 0.78753 0.55527 0.03277 0.0
H67 H 0.78917 0.55632 0.1096 0.0
H68 H 0.80171 0.53517 0.9777 0.0
H69 H 0.83321 0.50538 0.07216 0.0
H70 H 0.79345 0.52735 0.15939 0.0
C71 C 0.74633 0.52063 0.01341 0.0
C72 C 0.72314 0.50962 0.0086 0.0
C73 C 0.75817 0.52977 0.06742 0.0
C74 C 0.74645 0.52776 0.11718 0.0
C75 C 0.72311 0.51707 0.11271 0.0
C76 C 0.7117 0.50754 0.05834 0.0
C77 C 0.78308 0.5446 0.06978 0.0
C78 C 0.79504 0.53138 0.06798 0.0
C79 C 0.80434 0.5288 0.01707 0.0
C80 C 0.81851 0.51974 0.01834 0.0
C81 C 0.82241 0.51245 0.07054 0.0
C82 C 0.8138 0.51544 0.12168 0.0
C83 C 0.79958 0.5243 0.11974 0.0
H84 H 0.28193 0.76409 0.01239 0.0
H85 H 0.28925 0.77522 0.19798 0.0
H86 H 0.32034 0.83108 0.09359 0.0
H87 H 0.27467 0.73339 0.07586 0.0
H88 H 0.27609 0.73812 0.15252 0.0
H89 H 0.24139 0.72401 0.01642 0.0
H90 H 0.18191 0.70479 0.10215 0.0
H91 H 0.24471 0.73746 0.20126 0.0
C92 C 0.28799 0.77552 0.05117 0.0
C93 C 0.3012 0.79869 0.04663 0.0
C94 C 0.28318 0.76702 0.10585 0.0
C95 C 0.29204 0.78188 0.15596 0.0
C96 C 0.3058 0.805 0.15205 0.0
C97 C 0.30967 0.81327 0.09715 0.0
C98 C 0.27071 0.74206 0.1112 0.0
C99 C 0.246 0.73288 0.10869 0.0
C100 C 0.23335 0.72401 0.05544 0.0
C101 C 0.21022 0.71402 0.05297 0.0
C102 C 0.19987 0.71359 0.10366 0.0
C103 C 0.21203 0.72178 0.1573 0.0
C104 C 0.23521 0.73158 0.15976 0.0
H105 H 0.52567 0.27695 0.06793 0.0
H106 H 0.51217 0.27719 0.24754 0.0
H107 H 0.48585 0.30428 0.12566 0.0
H108 H 0.54576 0.26787 0.13887 0.0
H109 H 0.54482 0.27433 0.21399 0.0
H110 H 0.51268 0.23167 0.08886 0.0
H111 H 0.48744 0.17657 0.19602 0.0
H112 H 0.52743 0.24376 0.27372 0.0
C113 C 0.51725 0.28018 0.10215 0.0
C114 C 0.50442 0.29013 0.09004 0.0
C115 C 0.51971 0.27503 0.159 0.0
C116 C 0.50965 0.28043 0.20355 0.0
C117 C 0.49727 0.2909 0.1919 0.0
C118 C 0.49437 0.29513 0.13483 0.0
C119 C 0.53433 0.26537 0.17345 0.0
C120 C 0.52053 0.24064 0.18074 0.0
C121 C 0.51037 0.2255 0.13147 0.0
C122 C 0.49827 0.20238 0.13686 0.0
C123 C 0.4958 0.1945 0.19191 0.0
C124 C 0.50642 0.20918 0.24121 0.0
C125 C 0.51877 0.23235 0.23574 0.0
C126 C 0.98522 0.4379 0.73346 0.0
C127 C 0.05196 0.48022 0.68043 0.0
C128 C 0.03241 0.54596 0.69237 0.0
Mg129 Mg 0.00566 0.45445 0.61676 0.0
O130 O 0.99979 0.47724 0.64172 0.0
Mg131 Mg 0.01335 0.49376 0.71932 0.0
Mg132 Mg 0.00954 0.50338 0.5951 0.0
O133 O 0.01934 0.52969 0.54857 0.0
Mg134 Mg 0.01199 0.55153 0.57232 0.0
Mg135 Mg 0.00679 0.51343 0.47036 0.0
C136 C 0.9852 0.4603 0.49749 0.0
C137 C 0.04718 0.50542 0.5116 0.0
O138 O 0.99402 0.45838 0.75495 0.0
O139 O 0.98741 0.43273 0.68124 0.0
O140 O 0.04409 0.48995 0.71194 0.0
O141 O 0.04047 0.46639 0.63729 0.0
O142 O 0.99029 0.44832 0.52829 0.0
O143 O 0.99001 0.48021 0.51589 0.0
C144 C 0.97321 0.50282 0.68194 0.0
O145 O 0.97935 0.50534 0.62996 0.0
O146 O 0.98334 0.49823 0.72132 0.0
O147 O 0.02605 0.54907 0.43601 0.0
O148 O 0.03035 0.57416 0.50869 0.0
O149 O 0.97496 0.51532 0.47602 0.0
C150 C 0.03392 0.56944 0.45743 0.0
O151 O 0.97664 0.53693 0.55303 0.0
O152 O 0.02637 0.55725 0.6616 0.0
C153 C 0.96586 0.52325 0.50907 0.0
O154 O 0.02955 0.52679 0.67346 0.0
O155 O 0.03948 0.50131 0.56162 0.0
O156 O 0.03801 0.51065 0.47122 0.0
C157 C 0.48446 0.01913 0.82174 0.0
C158 C 0.45032 0.95876 0.70808 0.0
C159 C 0.53102 0.97395 0.65901 0.0
Mg160 Mg 0.47157 0.00866 0.68963 0.0
O161 O 0.5001 0.01206 0.69388 0.0
Mg162 Mg 0.50589 0.99259 0.74461 0.0
Mg163 Mg 0.50995 0.00497 0.62112 0.0
O164 O 0.51946 0.99784 0.54754 0.0
Mg165 Mg 0.54795 0.00169 0.54783 0.0
Mg166 Mg 0.5123 0.01584 0.49488 0.0
C167 C 0.49 0.03705 0.58037 0.0
C168 C 0.46593 0.97522 0.53343 0.0
O169 O 0.4965 0.00986 0.81894 0.0
O170 O 0.47376 0.02053 0.77764 0.0
O171 O 0.46922 0.9634 0.73149 0.0
O172 O 0.44751 0.97344 0.68398 0.0
O173 O 0.47576 0.03029 0.61897 0.0
O174 O 0.50437 0.03068 0.57683 0.0
C175 C 0.55314 0.03404 0.712 0.0
O176 O 0.54517 0.03151 0.65953 0.0
O177 O 0.54164 0.02153 0.75073 0.0
O178 O 0.51963 0.99655 0.42053 0.0
O179 O 0.54369 0.98751 0.46112 0.0
O180 O 0.54861 0.04508 0.50154 0.0
C181 C 0.53146 0.98702 0.41784 0.0
O182 O 0.5713 0.03704 0.55151 0.0
O183 O 0.54464 0.98107 0.61908 0.0
C184 C 0.56779 0.05081 0.52492 0.0
O185 O 0.51589 0.97929 0.6642 0.0
O186 O 0.47472 0.97832 0.58499 0.0
O187 O 0.47675 0.98722 0.49328 0.0
C188 C 0.54644 0.56168 0.45487 0.0
C189 C 0.57118 0.51817 0.50707 0.0
C190 C 0.48502 0.45783 0.52928 0.0
Mg191 Mg 0.557 0.54837 0.57269 0.0
O192 O 0.52678 0.52705 0.5573 0.0
Mg193 Mg 0.5179 0.50732 0.48382 0.0
Mg194 Mg 0.51255 0.50396 0.61288 0.0
O195 O 0.4988 0.481 0.66912 0.0
Mg196 Mg 0.46865 0.45904 0.65677 0.0
Mg197 Mg 0.50854 0.50101 0.74269 0.0
C198 C 0.539 0.55081 0.69661 0.0
C199 C 0.5527 0.50473 0.69071 0.0
O200 O 0.53258 0.54089 0.43919 0.0
O201 O 0.55752 0.56816 0.50419 0.0
O202 O 0.55174 0.50835 0.48104 0.0
O203 O 0.57665 0.53324 0.54878 0.0
O204 O 0.55431 0.55943 0.66112 0.0
O205 O 0.52183 0.53126 0.68545 0.0
C206 C 0.47378 0.50512 0.53329 0.0
O207 O 0.47977 0.50313 0.58461 0.0
O208 O 0.4854 0.50693 0.49044 0.0
O209 O 0.4954 0.46744 0.78731 0.0
O210 O 0.46974 0.4395 0.72492 0.0
O211 O 0.47474 0.49916 0.74774 0.0
C212 C 0.48174 0.44647 0.77293 0.0
O213 O 0.44907 0.47414 0.68185 0.0
O214 O 0.47033 0.44909 0.56636 0.0
C215 C 0.45514 0.48947 0.72311 0.0
O216 O 0.50292 0.47681 0.54059 0.0
O217 O 0.54523 0.50472 0.63945 0.0
O218 O 0.54183 0.50346 0.73479 0.0
H219 H 0.21512 0.53091 0.27046 0.0
H220 H 0.19029 0.53026 0.34245 0.0
H221 H 0.15542 0.45784 0.32583 0.0
H222 H 0.17956 0.45868 0.2509 0.0
H223 H 0.12681 0.4688 0.31911 0.0
H224 H 0.18739 0.49263 0.45668 0.0
H225 H 0.22567 0.51457 0.50082 0.0
H226 H 0.22111 0.57439 0.50747 0.0
H227 H 0.1829 0.55288 0.4626 0.0
H228 H 0.05663 0.47252 0.53513 0.0
H229 H 0.08781 0.46876 0.50239 0.0
H230 H 0.11374 0.53191 0.42659 0.0
H231 H 0.08238 0.53542 0.4578 0.0
H232 H 0.14652 0.52104 0.49483 0.0
H233 H 0.08698 0.49438 0.33793 0.0
H234 H 0.04798 0.47014 0.30057 0.0
H235 H 0.05101 0.41179 0.34172 0.0
H236 H 0.08997 0.43577 0.38016 0.0
C237 C 0.20259 0.51489 0.28363 0.0
C238 C 0.19936 0.49485 0.25567 0.0
C239 C 0.18837 0.51448 0.32503 0.0
C240 C 0.17095 0.49398 0.34049 0.0
C241 C 0.16861 0.47391 0.31483 0.0
C242 C 0.18252 0.47434 0.2724 0.0
C243 C 0.15377 0.49358 0.37782 0.0
C244 C 0.1313 0.47987 0.3583 0.0
C245 C 0.15925 0.50804 0.42906 0.0
C246 C 0.18229 0.52114 0.45587 0.0
C247 C 0.1946 0.5105 0.46713 0.0
C248 C 0.21628 0.52285 0.49237 0.0
C249 C 0.22583 0.54587 0.50685 0.0
C250 C 0.2137 0.55656 0.49621 0.0
C251 C 0.192 0.54429 0.47095 0.0
C252 C 0.06929 0.48582 0.5128 0.0
C253 C 0.06721 0.5043 0.49917 0.0
C254 C 0.08702 0.48363 0.49395 0.0
C255 C 0.10309 0.50012 0.46232 0.0
C256 C 0.1016 0.51911 0.45133 0.0
C257 C 0.08365 0.52103 0.46888 0.0
C258 C 0.12013 0.49665 0.4351 0.0
C259 C 0.14237 0.50967 0.45636 0.0
C260 C 0.1145 0.48121 0.38634 0.0
C261 C 0.09124 0.46685 0.36252 0.0
C262 C 0.07925 0.47639 0.33948 0.0
C263 C 0.05718 0.46271 0.31802 0.0
C264 C 0.047 0.43944 0.31895 0.0
C265 C 0.0589 0.42981 0.34114 0.0
C266 C 0.08097 0.44344 0.36275 0.0
H267 H 0.02991 0.42887 0.30232 0.0
H268 H 0.24262 0.5554 0.5264 0.0
H269 H 0.68571 0.19472 0.2083 0.0
H270 H 0.66346 0.17608 0.28796 0.0
H271 H 0.71808 0.17162 0.36577 0.0
H272 H 0.74025 0.1898 0.28544 0.0
H273 H 0.68101 0.13168 0.35315 0.0
H274 H 0.70055 0.20468 0.43241 0.0
H275 H 0.70584 0.24275 0.43264 0.0
H276 H 0.63613 0.2151 0.39126 0.0
H277 H 0.63044 0.17684 0.38994 0.0
H278 H 0.61156 0.06892 0.56292 0.0
H279 H 0.64321 0.10175 0.5288 0.0
H280 H 0.59868 0.11541 0.42832 0.0
H281 H 0.56703 0.08303 0.46296 0.0
H282 H 0.63563 0.15402 0.46808 0.0
H283 H 0.61768 0.08269 0.36937 0.0
H284 H 0.61138 0.04415 0.36438 0.0
H285 H 0.67764 0.0688 0.43788 0.0
H286 H 0.68422 0.10748 0.44402 0.0
C287 C 0.69308 0.19007 0.24285 0.0
C288 C 0.71469 0.19365 0.24046 0.0
C289 C 0.68042 0.1796 0.28864 0.0
C290 C 0.68915 0.17257 0.33308 0.0
C291 C 0.71106 0.17699 0.33209 0.0
C292 C 0.72376 0.18753 0.28635 0.0
C293 C 0.67456 0.1584 0.37656 0.0
C294 C 0.67154 0.13682 0.37945 0.0
C295 C 0.66179 0.16488 0.4098 0.0
C296 C 0.66509 0.18787 0.41074 0.0
C297 C 0.68636 0.20671 0.42294 0.0
C298 C 0.68943 0.22833 0.42334 0.0
C299 C 0.67134 0.23134 0.41189 0.0
C300 C 0.65013 0.21274 0.40013 0.0
C301 C 0.64697 0.19108 0.39964 0.0
C302 C 0.60848 0.07919 0.53462 0.0
C303 C 0.58674 0.073 0.51459 0.0
C304 C 0.62661 0.09795 0.51511 0.0
C305 C 0.6233 0.1107 0.47493 0.0
C306 C 0.60164 0.10574 0.45902 0.0
C307 C 0.58353 0.08709 0.47871 0.0
C308 C 0.64196 0.12731 0.44387 0.0
C309 C 0.64559 0.1492 0.44294 0.0
C310 C 0.65522 0.12111 0.41188 0.0
C311 C 0.65135 0.09791 0.40782 0.0
C312 C 0.63085 0.07986 0.38483 0.0
C313 C 0.62723 0.058 0.38175 0.0
C314 C 0.64407 0.05402 0.40097 0.0
C315 C 0.66459 0.0719 0.42314 0.0
C316 C 0.66828 0.0938 0.42643 0.0
H317 H 0.64125 0.03708 0.39855 0.0
H318 H 0.67375 0.2481 0.41221 0.0
H319 H 0.56435 0.73477 0.21407 0.0
H320 H 0.56722 0.71081 0.28314 0.0
H321 H 0.50175 0.65736 0.22251 0.0
H322 H 0.49806 0.68182 0.15691 0.0
H323 H 0.50729 0.65205 0.32576 0.0
H324 H 0.55342 0.66131 0.16548 0.0
H325 H 0.58192 0.68391 0.09964 0.0
H326 H 0.62954 0.71722 0.24521 0.0
H327 H 0.60108 0.69502 0.31145 0.0
H328 H 0.51763 0.55682 0.36433 0.0
H329 H 0.51583 0.58683 0.31752 0.0
H330 H 0.57515 0.63613 0.41865 0.0
H331 H 0.57726 0.60634 0.46528 0.0
H332 H 0.57438 0.6455 0.30473 0.0
H333 H 0.52591 0.62592 0.46129 0.0
H334 H 0.49537 0.59916 0.51576 0.0
H335 H 0.44996 0.58038 0.36595 0.0
H336 H 0.48025 0.60691 0.31036 0.0
C337 C 0.55021 0.71822 0.21694 0.0
C338 C 0.53114 0.71006 0.17889 0.0
C339 C 0.55206 0.70433 0.25573 0.0
C340 C 0.53516 0.68185 0.25609 0.0
C341 C 0.51527 0.67445 0.22235 0.0
C342 C 0.51321 0.68845 0.18452 0.0
C343 C 0.53869 0.66552 0.28765 0.0
C344 C 0.52193 0.6506 0.32085 0.0
C345 C 0.55787 0.66362 0.28217 0.0
C346 C 0.57507 0.67694 0.24304 0.0
C347 C 0.5699 0.67373 0.18309 0.0
C348 C 0.58603 0.68637 0.14585 0.0
C349 C 0.6075 0.7021 0.16828 0.0
C350 C 0.61288 0.7051 0.22793 0.0
C351 C 0.59675 0.6925 0.2653 0.0
C352 C 0.53057 0.574 0.37575 0.0
C353 C 0.54752 0.57918 0.41881 0.0
C354 C 0.52937 0.59114 0.34942 0.0
C355 C 0.54509 0.61368 0.36566 0.0
C356 C 0.56275 0.61883 0.40598 0.0
C357 C 0.56393 0.60176 0.43248 0.0
C358 C 0.54285 0.63193 0.34163 0.0
C359 C 0.55989 0.64719 0.31014 0.0
C360 C 0.52372 0.63377 0.34769 0.0
C361 C 0.50538 0.6183 0.38158 0.0
C362 C 0.50943 0.61603 0.43991 0.0
C363 C 0.49217 0.6009 0.47099 0.0
C364 C 0.47077 0.58802 0.44431 0.0
C365 C 0.46655 0.59035 0.38656 0.0
C366 C 0.48374 0.60547 0.35528 0.0
H367 H 0.45746 0.57627 0.46841 0.0
H368 H 0.62 0.71188 0.13943 0.0
H369 H 0.79104 0.49481 0.21532 0.0
H370 H 0.80707 0.49221 0.30916 0.0
H371 H 0.87248 0.52804 0.24788 0.0
H372 H 0.85684 0.53084 0.15555 0.0
H373 H 0.83441 0.47322 0.33434 0.0
H374 H 0.90645 0.56633 0.34991 0.0
H375 H 0.91163 0.60312 0.32813 0.0
H376 H 0.84242 0.57899 0.34409 0.0
H377 H 0.83686 0.54216 0.3669 0.0
H378 H 0.93805 0.49308 0.4219 0.0
H379 H 0.90185 0.48611 0.38742 0.0
H380 H 0.9034 0.53035 0.5284 0.0
H381 H 0.94037 0.53805 0.56245 0.0
H382 H 0.89578 0.54322 0.43548 0.0
H383 H 0.86064 0.47257 0.50745 0.0
H384 H 0.85196 0.43483 0.53163 0.0
H385 H 0.84409 0.41323 0.35136 0.0
H386 H 0.85305 0.45085 0.32581 0.0
C387 C 0.80882 0.50207 0.22216 0.0
C388 C 0.82267 0.5128 0.17796 0.0
C389 C 0.81791 0.50054 0.27552 0.0
C390 C 0.84095 0.51014 0.28551 0.0
C391 C 0.85467 0.52073 0.24127 0.0
C392 C 0.84567 0.52209 0.18826 0.0
C393 C 0.85133 0.50922 0.34133 0.0
C394 C 0.84765 0.48842 0.35732 0.0
C395 C 0.86787 0.5291 0.37268 0.0
C396 C 0.87124 0.55143 0.36009 0.0
C397 C 0.89236 0.56891 0.34932 0.0
C398 C 0.89536 0.58977 0.33664 0.0
C399 C 0.87736 0.59339 0.33469 0.0
C400 C 0.85634 0.57616 0.34552 0.0
C401 C 0.85325 0.55528 0.35827 0.0
C402 C 0.93066 0.50115 0.44628 0.0
C403 C 0.94241 0.5166 0.49416 0.0
C404 C 0.90964 0.49681 0.42695 0.0
C405 C 0.89968 0.50758 0.45533 0.0
C406 C 0.91072 0.52183 0.50565 0.0
C407 C 0.93191 0.52631 0.52493 0.0
C408 C 0.88015 0.50715 0.42591 0.0
C409 C 0.88211 0.52782 0.41451 0.0
C410 C 0.86182 0.48707 0.39964 0.0
C411 C 0.85741 0.4646 0.41469 0.0
C412 C 0.85719 0.45984 0.47289 0.0
C413 C 0.85209 0.43842 0.48686 0.0
C414 C 0.84719 0.42159 0.44311 0.0
C415 C 0.84767 0.42622 0.38523 0.0
C416 C 0.85272 0.44759 0.37096 0.0
H417 H 0.84326 0.40504 0.4541 0.0
H418 H 0.87972 0.60954 0.32481 0.0
H419 H 0.29078 0.8061 0.25959 0.0
H420 H 0.31234 0.8305 0.34629 0.0
H421 H 0.37019 0.86244 0.24907 0.0
H422 H 0.34921 0.83779 0.16375 0.0
H423 H 0.3809 0.85375 0.35082 0.0
H424 H 0.33775 0.88634 0.27799 0.0
H425 H 0.30304 0.88594 0.25082 0.0
H426 H 0.28256 0.87149 0.42285 0.0
H427 H 0.31706 0.87153 0.45076 0.0
H428 H 0.43698 0.97302 0.44871 0.0
H429 H 0.40279 0.93988 0.40926 0.0
H430 H 0.40937 0.90175 0.54198 0.0
H431 H 0.44378 0.93517 0.58227 0.0
H432 H 0.36165 0.90741 0.44468 0.0
H433 H 0.40179 0.85357 0.46431 0.0
H434 H 0.43876 0.85741 0.48056 0.0
H435 H 0.46819 0.91933 0.3995 0.0
H436 H 0.43139 0.91563 0.38199 0.0
C437 C 0.30813 0.81828 0.25693 0.0
C438 C 0.3182 0.82018 0.20454 0.0
C439 C 0.32038 0.83225 0.30638 0.0
C440 C 0.34287 0.84833 0.30413 0.0
C441 C 0.35289 0.85011 0.25196 0.0
C442 C 0.34075 0.8362 0.20287 0.0
C443 C 0.35626 0.8638 0.35515 0.0
C444 C 0.37645 0.86517 0.3721 0.0
C445 C 0.35052 0.87873 0.38309 0.0
C446 C 0.32981 0.87865 0.36623 0.0
C447 C 0.32575 0.88289 0.30985 0.0
C448 C 0.30614 0.88277 0.29434 0.0
C449 C 0.29057 0.87861 0.33502 0.0
C450 C 0.29461 0.87464 0.39134 0.0
C451 C 0.31418 0.87472 0.40703 0.0
C452 C 0.43088 0.95773 0.47042 0.0
C453 C 0.4432 0.95654 0.51791 0.0
C454 C 0.41122 0.93886 0.44814 0.0
C455 C 0.40369 0.91834 0.47237 0.0
C456 C 0.41499 0.91746 0.52264 0.0
C457 C 0.43461 0.93653 0.54555 0.0
C458 C 0.38644 0.89767 0.4388 0.0
C459 C 0.36559 0.89532 0.42515 0.0
C460 C 0.39176 0.88214 0.4127 0.0
C461 C 0.41392 0.88446 0.42266 0.0
C462 C 0.41617 0.86797 0.44994 0.0
C463 C 0.43708 0.87011 0.45928 0.0
C464 C 0.45582 0.88864 0.44119 0.0
C465 C 0.45368 0.90502 0.41357 0.0
C466 C 0.43281 0.90291 0.40399 0.0
H467 H 0.47199 0.89027 0.44845 0.0
H468 H 0.2754 0.87854 0.32295 0.0
H469 H 0.45877 0.29219 0.19532 0.0
H470 H 0.4538 0.31955 0.25421 0.0
H471 H 0.51499 0.3398 0.35446 0.0
H472 H 0.52086 0.31349 0.29371 0.0
H473 H 0.47103 0.33646 0.41154 0.0
H474 H 0.52989 0.37244 0.28154 0.0
H475 H 0.54651 0.37601 0.18814 0.0
H476 H 0.49184 0.37815 0.10395 0.0
H477 H 0.47472 0.37423 0.19697 0.0
H478 H 0.51789 0.4616 0.46238 0.0
H479 H 0.51652 0.43134 0.39976 0.0
H480 H 0.44631 0.39091 0.41724 0.0
H481 H 0.44756 0.42095 0.48053 0.0
H482 H 0.49513 0.4039 0.30239 0.0
H483 H 0.43631 0.33951 0.45348 0.0
H484 H 0.42507 0.3388 0.55319 0.0
H485 H 0.48776 0.39741 0.6061 0.0
H486 H 0.4995 0.39825 0.50702 0.0
C487 C 0.47093 0.3021 0.23075 0.0
C488 C 0.49048 0.30107 0.23893 0.0
C489 C 0.468 0.31762 0.26439 0.0
C490 C 0.48423 0.33181 0.30772 0.0
C491 C 0.50237 0.32894 0.32086 0.0
C492 C 0.50559 0.31376 0.28636 0.0
C493 C 0.48389 0.35161 0.33297 0.0
C494 C 0.47611 0.35116 0.38774 0.0
C495 C 0.49105 0.37087 0.30212 0.0
C496 C 0.50088 0.37268 0.2459 0.0
C497 C 0.52125 0.37332 0.24294 0.0
C498 C 0.53081 0.3755 0.19017 0.0
C499 C 0.52024 0.37728 0.14016 0.0
C500 C 0.50001 0.37676 0.14273 0.0
C501 C 0.49036 0.37454 0.19547 0.0
C502 C 0.502 0.44661 0.45124 0.0
C503 C 0.48293 0.44341 0.4775 0.0
C504 C 0.50126 0.4293 0.41552 0.0
C505 C 0.48145 0.4087 0.4055 0.0
C506 C 0.46186 0.40654 0.4257 0.0
C507 C 0.4626 0.42375 0.46167 0.0
C508 C 0.48187 0.38875 0.3809 0.0
C509 C 0.4897 0.38913 0.32611 0.0
C510 C 0.47538 0.3697 0.41265 0.0
C511 C 0.46866 0.36907 0.47268 0.0
C512 C 0.44772 0.35218 0.48647 0.0
C513 C 0.44127 0.35176 0.54287 0.0
C514 C 0.45566 0.3681 0.5859 0.0
C515 C 0.4766 0.38482 0.5727 0.0
C516 C 0.48315 0.38528 0.51642 0.0
H517 H 0.45062 0.36776 0.6295 0.0
H518 H 0.52787 0.37924 0.09963 0.0
H519 H 0.50287 0.80205 0.91445 0.0
H520 H 0.50438 0.82888 0.84735 0.0
H521 H 0.57189 0.87547 0.91233 0.0
H522 H 0.57063 0.84813 0.9769 0.0
H523 H 0.50703 0.86575 0.88012 0.0
H524 H 0.59849 0.91577 0.82183 0.0
H525 H 0.62895 0.909 0.79857 0.0
H526 H 0.58182 0.84067 0.73984 0.0
H527 H 0.55108 0.8471 0.76203 0.0
H528 H 0.52369 0.968 0.77446 0.0
H529 H 0.5263 0.9401 0.83063 0.0
H530 H 0.54077 0.91323 0.67679 0.0
H531 H 0.53955 0.94165 0.62235 0.0
H532 H 0.56573 0.91379 0.75548 0.0
H533 H 0.48692 0.88605 0.74079 0.0
H534 H 0.45247 0.8868 0.75192 0.0
H535 H 0.46877 0.90289 0.935 0.0
H536 H 0.5034 0.90195 0.92471 0.0
C537 C 0.51832 0.81758 0.91205 0.0
C538 C 0.53675 0.82298 0.94978 0.0
C539 C 0.51911 0.83304 0.87444 0.0
C540 C 0.53821 0.85431 0.87489 0.0
C541 C 0.5571 0.8591 0.91022 0.0
C542 C 0.55643 0.84344 0.94697 0.0
C543 C 0.53744 0.8722 0.8438 0.0
C544 C 0.51984 0.87615 0.85256 0.0
C545 C 0.55412 0.8859 0.80802 0.0
C546 C 0.5725 0.88188 0.7942 0.0
C547 C 0.59463 0.89932 0.80379 0.0
C548 C 0.61194 0.89554 0.79082 0.0
C549 C 0.60733 0.87439 0.76793 0.0
C550 C 0.58538 0.85701 0.7578 0.0
C551 C 0.568 0.86071 0.77066 0.0
C552 C 0.52743 0.9561 0.75302 0.0
C553 C 0.53158 0.95707 0.69429 0.0
C554 C 0.52882 0.94007 0.78493 0.0
C555 C 0.53362 0.92434 0.758 0.0
C556 C 0.53735 0.92525 0.69905 0.0
C557 C 0.53657 0.9415 0.66782 0.0
C558 C 0.5349 0.90686 0.7902 0.0
C559 C 0.55285 0.90328 0.7827 0.0
C560 C 0.51814 0.89294 0.8255 0.0
C561 C 0.49782 0.89425 0.83183 0.0
C562 C 0.48324 0.88996 0.78331 0.0
C563 C 0.46364 0.89036 0.78956 0.0
C564 C 0.45845 0.89511 0.84416 0.0
C565 C 0.47284 0.89931 0.8927 0.0
C566 C 0.49243 0.89877 0.88671 0.0
H567 H 0.44327 0.89543 0.84899 0.0
H568 H 0.62076 0.8715 0.75793 0.0
H569 H 0.68868 0.46886 0.96655 0.0
H570 H 0.6627 0.46153 0.88331 0.0
H571 H 0.70263 0.5302 0.84249 0.0
H572 H 0.72903 0.53708 0.92367 0.0
H573 H 0.63926 0.47938 0.8853 0.0
H574 H 0.68943 0.53958 0.711 0.0
H575 H 0.72364 0.55048 0.66195 0.0
H576 H 0.72017 0.4885 0.69775 0.0
H577 H 0.68575 0.47704 0.74626 0.0
H578 H 0.58277 0.52748 0.78043 0.0
H579 H 0.61493 0.52434 0.80959 0.0
H580 H 0.60324 0.48108 0.65543 0.0
H581 H 0.57114 0.48488 0.62474 0.0
H582 H 0.64916 0.50912 0.69222 0.0
H583 H 0.58197 0.45662 0.77175 0.0
H584 H 0.54752 0.44496 0.81995 0.0
H585 H 0.58488 0.48803 0.97127 0.0
H586 H 0.61958 0.50026 0.92348 0.0
C587 C 0.69229 0.48205 0.9382 0.0
C588 C 0.71074 0.50351 0.95134 0.0
C589 C 0.67746 0.4779 0.89074 0.0
C590 C 0.68058 0.49531 0.85647 0.0
C591 C 0.69997 0.51631 0.86719 0.0
C592 C 0.71504 0.52031 0.91392 0.0
C593 C 0.66182 0.49299 0.81827 0.0
C594 C 0.64145 0.48551 0.84262 0.0
C595 C 0.66441 0.50081 0.76226 0.0
C596 C 0.68502 0.5075 0.73258 0.0
C597 C 0.69586 0.52819 0.7081 0.0
C598 C 0.71532 0.53449 0.68046 0.0
C599 C 0.7241 0.52021 0.67683 0.0
C600 C 0.7134 0.49958 0.70074 0.0
C601 C 0.69392 0.49319 0.72841 0.0
C602 C 0.58733 0.5177 0.75206 0.0
C603 C 0.5743 0.50607 0.70096 0.0
C604 C 0.60569 0.51592 0.76874 0.0
C605 C 0.61107 0.50198 0.73547 0.0
C606 C 0.59922 0.49177 0.6819 0.0
C607 C 0.58092 0.49391 0.6645 0.0
C608 C 0.62735 0.49639 0.76077 0.0
C609 C 0.64706 0.50244 0.73418 0.0
C610 C 0.62421 0.487 0.81466 0.0
C611 C 0.60337 0.4794 0.84389 0.0
C612 C 0.58283 0.46368 0.81519 0.0
C613 C 0.56324 0.45698 0.8425 0.0
C614 C 0.56399 0.46578 0.89871 0.0
C615 C 0.58433 0.48124 0.92776 0.0
C616 C 0.60396 0.48804 0.90059 0.0
H617 H 0.54885 0.46067 0.91989 0.0
H618 H 0.73917 0.52513 0.65544 0.0
H619 H 0.21218 0.68049 0.99183 0.0
H620 H 0.18196 0.65016 0.92935 0.0
H621 H 0.14526 0.68518 0.93784 0.0
H622 H 0.17541 0.71546 0.00076 0.0
H623 H 0.12202 0.64394 0.97367 0.0
H624 H 0.1638 0.67629 0.81096 0.0
H625 H 0.19644 0.69152 0.75338 0.0
H626 H 0.19529 0.62871 0.74917 0.0
H627 H 0.1628 0.61318 0.80741 0.0
H628 H 0.03438 0.58067 0.75883 0.0
H629 H 0.065 0.60681 0.82722 0.0
H630 H 0.09409 0.56452 0.81344 0.0
H631 H 0.06346 0.53825 0.74453 0.0
H632 H 0.12191 0.6069 0.78475 0.0
H633 H 0.07759 0.57367 0.94079 0.0
H634 H 0.04431 0.55867 0.99584 0.0
H635 H 0.04977 0.6235 0.01172 0.0
H636 H 0.08287 0.63883 0.95581 0.0
C637 C 0.1981 0.68216 0.97822 0.0
C638 C 0.19605 0.70024 0.0011 0.0
C639 C 0.18076 0.66474 0.94289 0.0
C640 C 0.16126 0.66531 0.92955 0.0
C641 C 0.16008 0.68433 0.94813 0.0
C642 C 0.17736 0.70169 0.98355 0.0
C643 C 0.14125 0.64515 0.90207 0.0
C644 C 0.12188 0.636 0.93195 0.0
C645 C 0.1414 0.63431 0.84887 0.0
C646 C 0.16101 0.64365 0.81413 0.0
C647 C 0.17063 0.66579 0.79825 0.0
C648 C 0.18908 0.67446 0.76538 0.0
C649 C 0.19797 0.66111 0.74778 0.0
C650 C 0.18841 0.63904 0.76292 0.0
C651 C 0.16997 0.63029 0.79582 0.0
C652 C 0.0469 0.57654 0.7718 0.0
C653 C 0.04667 0.55757 0.74578 0.0
C654 C 0.06439 0.59149 0.81102 0.0
C655 C 0.0819 0.58769 0.825 0.0
C656 C 0.08075 0.56777 0.80295 0.0
C657 C 0.06314 0.55269 0.76397 0.0
C658 C 0.10255 0.60592 0.85583 0.0
C659 C 0.12208 0.61471 0.82671 0.0
C660 C 0.10252 0.61649 0.90962 0.0
C661 C 0.08263 0.60736 0.94354 0.0
C662 C 0.07159 0.5847 0.9555 0.0
C663 C 0.05275 0.57614 0.98691 0.0
C664 C 0.04485 0.59009 0.00692 0.0
C665 C 0.05586 0.61268 0.99592 0.0
C666 C 0.07468 0.62133 0.96444 0.0
H667 H 0.03028 0.58343 0.03126 0.0
H668 H 0.21224 0.66785 0.7223 0.0
H669 H 0.45861 0.16419 0.10894 0.0
H670 H 0.45396 0.13104 0.05224 0.0
H671 H 0.52025 0.16977 0.99805 0.0
H672 H 0.52491 0.20291 0.05433 0.0
H673 H 0.49306 0.13644 0.91604 0.0
H674 H 0.51323 0.14543 0.11891 0.0
H675 H 0.50937 0.15147 0.22244 0.0
H676 H 0.447 0.08992 0.2111 0.0
H677 H 0.45024 0.08374 0.10713 0.0
H678 H 0.5213 0.05284 0.87928 0.0
H679 H 0.52239 0.08367 0.93962 0.0
H680 H 0.4512 0.04639 0.94095 0.0
H681 H 0.45001 0.01595 0.8787 0.0
H682 H 0.48092 0.07849 0.05093 0.0
H683 H 0.4627 0.07172 0.84153 0.0
H684 H 0.47038 0.06696 0.74063 0.0
H685 H 0.53401 0.12691 0.76836 0.0
H686 H 0.52687 0.13172 0.86989 0.0
C687 C 0.47177 0.16582 0.08277 0.0
C688 C 0.49221 0.18594 0.08652 0.0
C689 C 0.46919 0.14688 0.05086 0.0
C690 C 0.48704 0.14788 0.02266 0.0
C691 C 0.50637 0.16865 0.02008 0.0
C692 C 0.50895 0.18763 0.05188 0.0
C693 C 0.48683 0.12706 0.00324 0.0
C694 C 0.49047 0.12383 0.94554 0.0
C695 C 0.48371 0.11075 0.04218 0.0
C696 C 0.48184 0.11426 0.10497 0.0
C697 C 0.4986 0.13327 0.13834 0.0
C698 C 0.49654 0.13671 0.19713 0.0
C699 C 0.47792 0.12113 0.22327 0.0
C700 C 0.46138 0.10201 0.19073 0.0
C701 C 0.46331 0.09854 0.13185 0.0
C702 C 0.50603 0.05079 0.89503 0.0
C703 C 0.48558 0.03216 0.8748 0.0
C704 C 0.50666 0.06842 0.92902 0.0
C705 C 0.48685 0.06726 0.94387 0.0
C706 C 0.46662 0.04745 0.92985 0.0
C707 C 0.46595 0.03009 0.89458 0.0
C708 C 0.48682 0.08785 0.96375 0.0
C709 C 0.4833 0.09107 0.02151 0.0
C710 C 0.49047 0.10438 0.92523 0.0
C711 C 0.49445 0.10179 0.86369 0.0
C712 C 0.47845 0.0837 0.82638 0.0
C713 C 0.48267 0.08104 0.76899 0.0
C714 C 0.50272 0.09656 0.74815 0.0
C715 C 0.5185 0.11486 0.78457 0.0
C716 C 0.51437 0.11756 0.84204 0.0
H717 H 0.50597 0.09445 0.70373 0.0
H718 H 0.47631 0.12384 0.26872 0.0
H719 H 0.29146 0.48725 0.98359 0.0
H720 H 0.31427 0.48792 0.90443 0.0
H721 H 0.37315 0.52398 0.02074 0.0
H722 H 0.35058 0.52364 0.09878 0.0
H723 H 0.38032 0.54047 0.91624 0.0
H724 H 0.34856 0.46779 0.99236 0.0
H725 H 0.3179 0.43165 0.01766 0.0
H726 H 0.29201 0.41476 0.84014 0.0
H727 H 0.32239 0.45099 0.81393 0.0
H728 H 0.46141 0.51734 0.8186 0.0
H729 H 0.43386 0.52248 0.86673 0.0
H730 H 0.38408 0.47938 0.73172 0.0
H731 H 0.41166 0.47355 0.68376 0.0
H732 H 0.36827 0.46772 0.82945 0.0
H733 H 0.40842 0.53902 0.75429 0.0
H734 H 0.44077 0.57492 0.73499 0.0
H735 H 0.45294 0.59565 0.91652 0.0
H736 H 0.42124 0.5595 0.93714 0.0
C737 C 0.30929 0.49553 0.99176 0.0
C738 C 0.31926 0.50507 0.04744 0.0
C739 C 0.32229 0.49584 0.94673 0.0
C740 C 0.34544 0.50583 0.95676 0.0
C741 C 0.35538 0.51617 0.01182 0.0
C742 C 0.34245 0.51577 0.05657 0.0
C743 C 0.35946 0.50464 0.91151 0.0
C744 C 0.3778 0.52461 0.89719 0.0
C745 C 0.3558 0.48395 0.88565 0.0
C746 C 0.33755 0.4622 0.90133 0.0
C747 C 0.33621 0.45645 0.95882 0.0
C748 C 0.31891 0.43594 0.97331 0.0
C749 C 0.30297 0.42095 0.93057 0.0
C750 C 0.30433 0.42642 0.87322 0.0
C751 C 0.32159 0.44693 0.85852 0.0
C752 C 0.44471 0.50919 0.79836 0.0
C753 C 0.4388 0.49492 0.74724 0.0
C754 C 0.42891 0.51231 0.82592 0.0
C755 C 0.40686 0.50172 0.80249 0.0
C756 C 0.40101 0.48795 0.75049 0.0
C757 C 0.41682 0.48463 0.72303 0.0
C758 C 0.38973 0.50362 0.83498 0.0
C759 C 0.37072 0.48373 0.84708 0.0
C760 C 0.39307 0.52447 0.85949 0.0
C761 C 0.41236 0.54634 0.84719 0.0
C762 C 0.41808 0.55109 0.79014 0.0
C763 C 0.43641 0.5715 0.779 0.0
C764 C 0.44904 0.58751 0.82456 0.0
C765 C 0.44331 0.58315 0.88131 0.0
C766 C 0.42515 0.56267 0.89272 0.0
H767 H 0.4632 0.60333 0.8159 0.0
H768 H 0.28959 0.40507 0.94186 0.0
H769 H 0.80906 0.30976 0.97571 0.0
H770 H 0.837 0.33081 0.90841 0.0
H771 H 0.87946 0.30838 0.98303 0.0
H772 H 0.851 0.2864 0.04748 0.0
H773 H 0.8741 0.3647 0.93531 0.0
H774 H 0.91875 0.31329 0.89803 0.0
H775 H 0.9092 0.27378 0.88199 0.0
H776 H 0.84354 0.25553 0.81615 0.0
H777 H 0.85278 0.29496 0.83104 0.0
H778 H 0.98003 0.43936 0.85009 0.0
H779 H 0.95088 0.41026 0.90195 0.0
H780 H 0.9256 0.36662 0.74428 0.0
H781 H 0.95505 0.39501 0.69314 0.0
H782 H 0.92093 0.34245 0.82709 0.0
H783 H 0.90451 0.40072 0.79438 0.0
H784 H 0.91138 0.43947 0.79966 0.0
H785 H 0.91418 0.44182 0.985 0.0
H786 H 0.90804 0.40333 0.98093 0.0
C787 C 0.82398 0.3086 0.97563 0.0
C788 C 0.82781 0.29618 0.01563 0.0
C789 C 0.84004 0.32081 0.93779 0.0
C790 C 0.86038 0.32117 0.94031 0.0
C791 C 0.86375 0.30796 0.97889 0.0
C792 C 0.84748 0.29536 0.01573 0.0
C793 C 0.87889 0.33719 0.90754 0.0
C794 C 0.88422 0.35973 0.91139 0.0
C795 C 0.89208 0.33082 0.87577 0.0
C796 C 0.88642 0.30707 0.86616 0.0
C797 C 0.90231 0.30087 0.87989 0.0
C798 C 0.89694 0.27848 0.87105 0.0
C799 C 0.87576 0.26215 0.84823 0.0
C800 C 0.85992 0.26818 0.83403 0.0
C801 C 0.8652 0.29054 0.84274 0.0
C802 C 0.96848 0.42342 0.82679 0.0
C803 C 0.96977 0.41961 0.76737 0.0
C804 C 0.95174 0.40685 0.85636 0.0
C805 C 0.9357 0.38643 0.82669 0.0
C806 C 0.9377 0.38222 0.76815 0.0
C807 C 0.9546 0.39856 0.7389 0.0
C808 C 0.91613 0.36988 0.8553 0.0
C809 C 0.9107 0.34731 0.85089 0.0
C810 C 0.90236 0.37606 0.88486 0.0
C811 C 0.90601 0.3992 0.88736 0.0
C812 C 0.90676 0.40956 0.83628 0.0
C813 C 0.9105 0.43147 0.83903 0.0
C814 C 0.91316 0.44308 0.89258 0.0
C815 C 0.91213 0.43281 0.94353 0.0
C816 C 0.90856 0.41097 0.94104 0.0
H817 H 0.91601 0.46002 0.89458 0.0
H818 H 0.87164 0.24483 0.84144 0.0
H819 H 0.86235 0.53288 0.02179 0.0
H820 H 0.88397 0.53186 0.94376 0.0
H821 H 0.82706 0.50803 0.82206 0.0
H822 H 0.80471 0.50813 0.90177 0.0
H823 H 0.84857 0.48534 0.79991 0.0
H824 H 0.87038 0.56183 0.82117 0.0
H825 H 0.8818 0.59881 0.87096 0.0
H826 H 0.94169 0.60308 0.94128 0.0
H827 H 0.9305 0.56597 0.89266 0.0
H828 H 0.93735 0.49867 0.61491 0.0
H829 H 0.907 0.50397 0.64876 0.0
H830 H 0.93762 0.51997 0.82262 0.0
H831 H 0.96749 0.5149 0.78966 0.0
H832 H 0.92421 0.55001 0.78861 0.0
H833 H 0.89558 0.46813 0.77671 0.0
H834 H 0.8834 0.43217 0.71969 0.0
H835 H 0.83501 0.44031 0.62104 0.0
H836 H 0.84726 0.47655 0.67635 0.0
C837 C 0.85423 0.52721 0.97862 0.0
C838 C 0.83163 0.52028 0.96836 0.0
C839 C 0.86677 0.52693 0.93366 0.0
C840 C 0.85733 0.52018 0.87658 0.0
C841 C 0.83479 0.5134 0.86566 0.0
C842 C 0.82207 0.51361 0.91114 0.0
C843 C 0.87134 0.51986 0.8298 0.0
C844 C 0.8649 0.49967 0.79642 0.0
C845 C 0.89258 0.5386 0.82409 0.0
C846 C 0.89955 0.56105 0.85328 0.0
C847 C 0.88594 0.57059 0.84749 0.0
C848 C 0.89238 0.59159 0.87551 0.0
C849 C 0.91246 0.60328 0.90928 0.0
C850 C 0.92615 0.59401 0.91505 0.0
C851 C 0.91979 0.57301 0.88716 0.0
C852 C 0.93762 0.50354 0.66015 0.0
C853 C 0.95485 0.50636 0.69951 0.0
C854 C 0.92025 0.50643 0.6795 0.0
C855 C 0.92005 0.51239 0.73836 0.0
C856 C 0.93742 0.51548 0.77708 0.0
C857 C 0.95447 0.51242 0.75808 0.0
C858 C 0.90192 0.51519 0.76181 0.0
C859 C 0.90762 0.53592 0.79084 0.0
C860 C 0.87996 0.49712 0.76247 0.0
C861 C 0.87251 0.47517 0.73014 0.0
C862 C 0.88248 0.46234 0.74249 0.0
C863 C 0.87558 0.44191 0.7105 0.0
C864 C 0.85854 0.43402 0.66662 0.0
C865 C 0.84829 0.44649 0.65481 0.0
C866 C 0.85522 0.46698 0.6864 0.0
H867 H 0.85325 0.41823 0.64185 0.0
H868 H 0.91741 0.61953 0.93095 0.0
H869 H 0.32405 0.78778 0.97199 0.0
H870 H 0.34461 0.8093 0.89276 0.0
H871 H 0.31692 0.85246 0.91667 0.0
H872 H 0.29676 0.8313 0.9969 0.0
H873 H 0.32374 0.84171 0.79286 0.0
H874 H 0.36016 0.86896 0.9863 0.0
H875 H 0.37465 0.86532 0.08104 0.0
H876 H 0.41763 0.84675 0.99734 0.0
H877 H 0.40292 0.84968 0.9019 0.0
H878 H 0.40729 0.94868 0.71292 0.0
H879 H 0.37709 0.9153 0.74937 0.0
H880 H 0.41842 0.88545 0.75785 0.0
H881 H 0.44923 0.91939 0.72409 0.0
H882 H 0.40358 0.88633 0.85866 0.0
H883 H 0.3716 0.8634 0.66595 0.0
H884 H 0.35844 0.86773 0.57013 0.0
H885 H 0.30886 0.87784 0.64741 0.0
H886 H 0.32204 0.87408 0.74394 0.0
C887 C 0.32176 0.80136 0.95894 0.0
C888 C 0.30884 0.80791 0.9904 0.0
C889 C 0.33353 0.81366 0.91382 0.0
C890 C 0.33231 0.83249 0.89899 0.0
C891 C 0.31795 0.8379 0.92717 0.0
C892 C 0.30652 0.82587 0.97302 0.0
C893 C 0.34852 0.8485 0.86123 0.0
C894 C 0.34121 0.85156 0.80706 0.0
C895 C 0.37135 0.86099 0.87946 0.0
C896 C 0.3801 0.8591 0.93688 0.0
C897 C 0.37242 0.86374 0.98801 0.0
C898 C 0.38072 0.86187 0.04187 0.0
C899 C 0.39697 0.8557 0.04521 0.0
C900 C 0.40496 0.85142 0.99468 0.0
C901 C 0.39661 0.85314 0.94069 0.0
C902 C 0.40983 0.9348 0.72122 0.0
C903 C 0.43075 0.93676 0.71649 0.0
C904 C 0.39249 0.91566 0.74199 0.0
C905 C 0.39563 0.89795 0.75711 0.0
C906 C 0.4159 0.89915 0.74755 0.0
C907 C 0.43338 0.91843 0.728 0.0
C908 C 0.37903 0.87963 0.78955 0.0
C909 C 0.38623 0.87625 0.84339 0.0
C910 C 0.35625 0.8668 0.77053 0.0
C911 C 0.34794 0.86863 0.71238 0.0
C912 C 0.35799 0.86671 0.66264 0.0
C913 C 0.35052 0.86905 0.60815 0.0
C914 C 0.33285 0.87309 0.60271 0.0
C915 C 0.32257 0.87473 0.65172 0.0
C916 C 0.33003 0.87248 0.70635 0.0
H917 H 0.3271 0.87492 0.56053 0.0
H918 H 0.40343 0.85433 0.08695 0.0
H919 H 0.46848 0.27803 0.01586 0.0
H920 H 0.46523 0.30221 0.9474 0.0
H921 H 0.53554 0.34834 0.97479 0.0
H922 H 0.53882 0.32401 0.04272 0.0
H923 H 0.50847 0.36552 0.00927 0.0
H924 H 0.51468 0.32507 0.84317 0.0
H925 H 0.50478 0.29147 0.77835 0.0
H926 H 0.43877 0.28003 0.7474 0.0
H927 H 0.44816 0.31339 0.81274 0.0
H928 H 0.51502 0.45198 0.84925 0.0
H929 H 0.51874 0.42278 0.89388 0.0
H930 H 0.4531 0.37326 0.82303 0.0
H931 H 0.44985 0.40229 0.77502 0.0
H932 H 0.47741 0.35654 0.80801 0.0
H933 H 0.46851 0.39344 0.97678 0.0
H934 H 0.47553 0.4247 0.04728 0.0
H935 H 0.5429 0.44032 0.07988 0.0
H936 H 0.53636 0.40933 0.00912 0.0
C937 C 0.48339 0.2927 0.00467 0.0
C938 C 0.50393 0.2991 0.03399 0.0
C939 C 0.48151 0.30657 0.96585 0.0
C940 C 0.50013 0.32712 0.95627 0.0
C941 C 0.521 0.33249 0.98144 0.0
C942 C 0.52291 0.31849 0.01975 0.0
C943 C 0.49719 0.34461 0.92954 0.0
C944 C 0.50213 0.36384 0.96492 0.0
C945 C 0.48775 0.3417 0.87264 0.0
C946 C 0.48208 0.32163 0.83332 0.0
C947 C 0.49799 0.31528 0.823 0.0
C948 C 0.49248 0.29629 0.78605 0.0
C949 C 0.47114 0.28359 0.75889 0.0
C950 C 0.45528 0.28987 0.76851 0.0
C951 C 0.4607 0.30883 0.80545 0.0
C952 C 0.50118 0.43496 0.84408 0.0
C953 C 0.48211 0.4295 0.80874 0.0
C954 C 0.50332 0.41823 0.86984 0.0
C955 C 0.48614 0.39576 0.8627 0.0
C956 C 0.46668 0.39041 0.82919 0.0
C957 C 0.46474 0.40707 0.80216 0.0
C958 C 0.48902 0.37784 0.88783 0.0
C959 C 0.48391 0.35842 0.85239 0.0
C960 C 0.49791 0.38029 0.94538 0.0
C961 C 0.50198 0.39919 0.98726 0.0
C962 C 0.48487 0.40367 0.99863 0.0
C963 C 0.48875 0.42131 0.03872 0.0
C964 C 0.50965 0.43452 0.06794 0.0
C965 C 0.52672 0.43011 0.05716 0.0
C966 C 0.52294 0.4125 0.0171 0.0
H967 H 0.51261 0.44814 0.09902 0.0
H968 H 0.46691 0.2689 0.73029 0.0
H969 H 0.20871 0.47365 0.98935 0.0
H970 H 0.18525 0.46826 0.90117 0.0
H971 H 0.15324 0.49858 0.99454 0.0
H972 H 0.17622 0.50376 0.08162 0.0
H973 H 0.12329 0.46188 0.93452 0.0
H974 H 0.19378 0.52668 0.89959 0.0
H975 H 0.23382 0.54647 0.88588 0.0
H976 H 0.22269 0.49976 0.74123 0.0
H977 H 0.1826 0.4795 0.75461 0.0
H978 H 0.08271 0.51204 0.75999 0.0
H979 H 0.11338 0.5111 0.81053 0.0
H980 H 0.1016 0.45417 0.6972 0.0
H981 H 0.07045 0.45475 0.64611 0.0
H982 H 0.15299 0.49636 0.7526 0.0
H983 H 0.08023 0.43257 0.78948 0.0
H984 H 0.04052 0.41719 0.80358 0.0
H985 H 0.05708 0.46598 0.94725 0.0
H986 H 0.09689 0.48187 0.93329 0.0
C987 C 0.19663 0.47911 0.99075 0.0
C988 C 0.19403 0.48875 0.04263 0.0
C989 C 0.18328 0.47607 0.94045 0.0
C990 C 0.1674 0.48294 0.94126 0.0
C991 C 0.16513 0.49285 0.99291 0.0
C992 C 0.17825 0.49573 0.04283 0.0
C993 C 0.15281 0.47998 0.88921 0.0
C994 C 0.12987 0.46921 0.8946 0.0
C995 C 0.16121 0.48923 0.83657 0.0
C996 C 0.18527 0.50141 0.82858 0.0
C997 C 0.19991 0.52052 0.86519 0.0
C998 C 0.2226 0.53184 0.85742 0.0
C999 C 0.2308 0.52433 0.81285 0.0
C1000 C 0.21632 0.50552 0.77583 0.0
C1001 C 0.19362 0.49411 0.78348 0.0
C1002 C 0.08693 0.49965 0.74456 0.0
C1003 C 0.07378 0.48313 0.69981 0.0
C1004 C 0.10459 0.49925 0.77335 0.0
C1005 C 0.10957 0.48246 0.75782 0.0
C1006 C 0.09799 0.46729 0.70957 0.0
C1007 C 0.08016 0.46763 0.6806 0.0
C1008 C 0.12381 0.47863 0.79891 0.0
C1009 C 0.14652 0.48827 0.79175 0.0
C1010 C 0.11533 0.46851 0.8503 0.0
C1011 C 0.09148 0.45847 0.86009 0.0
C1012 C 0.07537 0.44008 0.82387 0.0
C1013 C 0.05286 0.43127 0.83184 0.0
C1014 C 0.04627 0.44063 0.87621 0.0
C1015 C 0.0622 0.45875 0.91287 0.0
C1016 C 0.08474 0.46765 0.905 0.0
H1017 H 0.02884 0.43382 0.88223 0.0
H1018 H 0.24837 0.53312 0.80689 0.0
H1019 H 0.71461 0.15395 0.05116 0.0
H1020 H 0.69051 0.13072 0.96652 0.0
H1021 H 0.68877 0.18798 0.90683 0.0
H1022 H 0.71311 0.21133 0.99207 0.0
H1023 H 0.64736 0.15174 0.9113 0.0
H1024 H 0.71401 0.16536 0.82989 0.0
H1025 H 0.75065 0.16837 0.82688 0.0
H1026 H 0.7215 0.09822 0.85028 0.0
H1027 H 0.68472 0.09484 0.85432 0.0
H1028 H 0.5753 0.07597 0.67308 0.0
H1029 H 0.61032 0.10802 0.71618 0.0
H1030 H 0.61714 0.0653 0.83402 0.0
H1031 H 0.58195 0.03356 0.7928 0.0
H1032 H 0.65885 0.09949 0.78159 0.0
H1033 H 0.59772 0.08969 0.89467 0.0
H1034 H 0.56053 0.08459 0.90554 0.0
H1035 H 0.57933 0.14576 0.82631 0.0
H1036 H 0.61674 0.15117 0.81483 0.0
C1037 C 0.70949 0.16163 0.01914 0.0
C1038 C 0.71575 0.18436 0.0275 0.0
C1039 C 0.69579 0.14841 0.97076 0.0
C1040 C 0.68799 0.15764 0.92992 0.0
C1041 C 0.69472 0.18056 0.93755 0.0
C1042 C 0.70864 0.19388 0.98591 0.0
C1043 C 0.67113 0.14268 0.88295 0.0
C1044 C 0.65016 0.14085 0.88168 0.0
C1045 C 0.6745 0.12799 0.84527 0.0
C1046 C 0.69659 0.12988 0.84268 0.0
C1047 C 0.71542 0.1506 0.8348 0.0
C1048 C 0.73622 0.15237 0.83285 0.0
C1049 C 0.73841 0.1335 0.83845 0.0
C1050 C 0.71978 0.11282 0.84592 0.0
C1051 C 0.69894 0.11096 0.84795 0.0
C1052 C 0.58453 0.07337 0.70739 0.0
C1053 C 0.57585 0.05238 0.73006 0.0
C1054 C 0.60448 0.09165 0.73191 0.0
C1055 C 0.61625 0.08896 0.77824 0.0
C1056 C 0.60835 0.06766 0.79812 0.0
C1057 C 0.5882 0.0496 0.77475 0.0
C1058 C 0.63532 0.10858 0.81082 0.0
C1059 C 0.65648 0.11106 0.80974 0.0
C1060 C 0.63218 0.12377 0.84681 0.0
C1061 C 0.60985 0.12068 0.85329 0.0
C1062 C 0.59384 0.10195 0.87913 0.0
C1063 C 0.57277 0.09902 0.8855 0.0
C1064 C 0.56755 0.11479 0.8664 0.0
C1065 C 0.58342 0.13355 0.84097 0.0
C1066 C 0.60457 0.13658 0.8346 0.0
H1067 H 0.55126 0.11249 0.87165 0.0
H1068 H 0.75452 0.13491 0.83693 0.0
H1069 H 0.48983 0.68278 0.98016 0.0
H1070 H 0.48809 0.6529 0.91464 0.0
H1071 H 0.5558 0.69662 0.87687 0.0
H1072 H 0.55764 0.72647 0.94249 0.0
H1073 H 0.52962 0.66436 0.78392 0.0
H1074 H 0.54558 0.66978 0.99016 0.0
H1075 H 0.53697 0.67143 0.09125 0.0
H1076 H 0.48072 0.60493 0.06318 0.0
H1077 H 0.48833 0.60334 0.96075 0.0
H1078 H 0.57187 0.59333 0.73316 0.0
H1079 H 0.56707 0.6219 0.78599 0.0
H1080 H 0.50039 0.57207 0.81729 0.0
H1081 H 0.50495 0.54329 0.76434 0.0
H1082 H 0.5226 0.60549 0.90969 0.0
H1083 H 0.50641 0.599 0.70606 0.0
H1084 H 0.51414 0.59653 0.60422 0.0
H1085 H 0.57024 0.66326 0.62774 0.0
H1086 H 0.56332 0.66582 0.73051 0.0
C1087 C 0.50399 0.68632 0.9558 0.0
C1088 C 0.52399 0.70678 0.96705 0.0
C1089 C 0.503 0.66923 0.91859 0.0
C1090 C 0.52202 0.67241 0.8923 0.0
C1091 C 0.541 0.69382 0.89714 0.0
C1092 C 0.542 0.71093 0.93445 0.0
C1093 C 0.52355 0.65285 0.8692 0.0
C1094 C 0.52817 0.65154 0.8114 0.0
C1095 C 0.52132 0.63593 0.90509 0.0
C1096 C 0.51717 0.63668 0.96721 0.0
C1097 C 0.53116 0.65563 0.00516 0.0
C1098 C 0.52651 0.65651 0.06287 0.0
C1099 C 0.50835 0.63826 0.08378 0.0
C1100 C 0.49473 0.6191 0.04688 0.0
C1101 C 0.49911 0.61827 0.98885 0.0
C1102 C 0.55638 0.58824 0.75264 0.0
C1103 C 0.53863 0.56605 0.74337 0.0
C1104 C 0.55365 0.60465 0.78258 0.0
C1105 C 0.53318 0.59915 0.80395 0.0
C1106 C 0.51624 0.57665 0.80046 0.0
C1107 C 0.51893 0.56019 0.77033 0.0
C1108 C 0.52887 0.61715 0.82472 0.0
C1109 C 0.52379 0.61818 0.88207 0.0
C1110 C 0.53057 0.63371 0.78842 0.0
C1111 C 0.53447 0.63251 0.72622 0.0
C1112 C 0.52051 0.61309 0.6897 0.0
C1113 C 0.52474 0.61167 0.63175 0.0
C1114 C 0.54265 0.62974 0.60942 0.0
C1115 C 0.55637 0.64927 0.64509 0.0
C1116 C 0.55234 0.65069 0.70326 0.0
H1117 H 0.54588 0.62861 0.56452 0.0
H1118 H 0.50487 0.63891 0.12858 0.0
H1119 H 0.47196 0.18332 0.30424 0.0
H1120 H 0.47113 0.1569 0.37187 0.0
H1121 H 0.54134 0.18374 0.3615 0.0
H1122 H 0.54223 0.21044 0.29455 0.0
H1123 H 0.51493 0.13727 0.32938 0.0
H1124 H 0.52466 0.19005 0.48593 0.0
H1125 H 0.51656 0.21612 0.54198 0.0
H1126 H 0.45114 0.16217 0.56464 0.0
H1127 H 0.45873 0.13581 0.50796 0.0
H1128 H 0.52445 0.06483 0.51877 0.0
H1129 H 0.5283 0.09622 0.46718 0.0
H1130 H 0.46216 0.08003 0.50549 0.0
H1131 H 0.4585 0.04892 0.55891 0.0
H1132 H 0.48817 0.12272 0.52584 0.0
H1133 H 0.4759 0.07049 0.3653 0.0
H1134 H 0.48184 0.04355 0.30574 0.0
H1135 H 0.54875 0.09492 0.28561 0.0
H1136 H 0.54328 0.12211 0.34559 0.0
C1137 C 0.48736 0.18427 0.31871 0.0
C1138 C 0.50723 0.19914 0.29519 0.0
C1139 C 0.48687 0.16908 0.35691 0.0
C1140 C 0.50617 0.16834 0.37156 0.0
C1141 C 0.52629 0.18411 0.35086 0.0
C1142 C 0.52685 0.19954 0.3133 0.0
C1143 C 0.50475 0.14946 0.40249 0.0
C1144 C 0.50944 0.13426 0.37275 0.0
C1145 C 0.49684 0.14518 0.45816 0.0
C1146 C 0.4922 0.16099 0.4922 0.0
C1147 C 0.50847 0.18378 0.50237 0.0
C1148 C 0.50399 0.1986 0.53438 0.0
C1149 C 0.48333 0.19082 0.55674 0.0
C1150 C 0.46713 0.16818 0.54724 0.0
C1151 C 0.47152 0.15329 0.51522 0.0
C1152 C 0.51054 0.06762 0.51529 0.0
C1153 C 0.4911 0.0542 0.54265 0.0
C1154 C 0.51277 0.08566 0.48572 0.0
C1155 C 0.49544 0.09046 0.4818 0.0
C1156 C 0.4758 0.07675 0.50794 0.0
C1157 C 0.47367 0.05886 0.53819 0.0
C1158 C 0.49815 0.11028 0.45254 0.0
C1159 C 0.49369 0.12568 0.48251 0.0
C1160 C 0.50589 0.11456 0.39652 0.0
C1161 C 0.50925 0.09826 0.36045 0.0
C1162 C 0.49194 0.07599 0.34854 0.0
C1163 C 0.49521 0.06069 0.31461 0.0
C1164 C 0.51568 0.06751 0.29204 0.0
C1165 C 0.53291 0.08966 0.30319 0.0
C1166 C 0.52973 0.10503 0.33708 0.0
H1167 H 0.51818 0.05563 0.2658 0.0
H1168 H 0.4799 0.20232 0.58152 0.0
H1169 H 0.31772 0.52462 0.29922 0.0
H1170 H 0.34105 0.52208 0.37645 0.0
H1171 H 0.32602 0.45734 0.29964 0.0
H1172 H 0.30293 0.45995 0.22196 0.0
H1173 H 0.34181 0.49354 0.45969 0.0
H1174 H 0.37352 0.4599 0.2797 0.0
H1175 H 0.37368 0.45819 0.17319 0.0
H1176 H 0.374 0.52054 0.17319 0.0
H1177 H 0.37379 0.52254 0.27943 0.0
H1178 H 0.43252 0.47808 0.57146 0.0
H1179 H 0.39744 0.47444 0.53264 0.0
H1180 H 0.43397 0.52991 0.42933 0.0
H1181 H 0.46859 0.53305 0.46644 0.0
H1182 H 0.40474 0.49512 0.36334 0.0
H1183 H 0.40459 0.53295 0.54395 0.0
H1184 H 0.4045 0.53901 0.64937 0.0
H1185 H 0.34467 0.47544 0.65025 0.0
H1186 H 0.3445 0.46894 0.54466 0.0
C1187 C 0.31865 0.50944 0.30018 0.0
C1188 C 0.30877 0.4926 0.25426 0.0
C1189 C 0.33198 0.508 0.34437 0.0
C1190 C 0.33556 0.4897 0.34321 0.0
C1191 C 0.32365 0.47172 0.301 0.0
C1192 C 0.31049 0.47322 0.25664 0.0
C1193 C 0.35465 0.49142 0.37827 0.0
C1194 C 0.35552 0.49367 0.4389 0.0
C1195 C 0.37271 0.49204 0.35105 0.0
C1196 C 0.37345 0.49125 0.2873 0.0
C1197 C 0.37369 0.47325 0.25686 0.0
C1198 C 0.37371 0.4722 0.19655 0.0
C1199 C 0.37369 0.48917 0.16635 0.0
C1200 C 0.3738 0.5073 0.19647 0.0
C1201 C 0.37371 0.50839 0.2567 0.0
C1202 C 0.43296 0.4898 0.54164 0.0
C1203 C 0.45315 0.50566 0.52134 0.0
C1204 C 0.41295 0.48772 0.51943 0.0
C1205 C 0.41303 0.50173 0.47744 0.0
C1206 C 0.43342 0.51869 0.46096 0.0
C1207 C 0.45321 0.52052 0.48231 0.0
C1208 C 0.39225 0.4975 0.44541 0.0
C1209 C 0.391 0.49466 0.38478 0.0
C1210 C 0.37417 0.49681 0.47291 0.0
C1211 C 0.37465 0.50037 0.53652 0.0
C1212 C 0.39155 0.52015 0.56671 0.0
C1213 C 0.39149 0.52369 0.6265 0.0
C1214 C 0.37456 0.50761 0.65653 0.0
C1215 C 0.35774 0.48789 0.62689 0.0
C1216 C 0.3577 0.48428 0.56708 0.0
H1217 H 0.37439 0.51041 0.70274 0.0
H1218 H 0.37366 0.48831 0.11967 0.0
H1219 H 0.80879 0.33938 0.15658 0.0
H1220 H 0.83494 0.37396 0.21475 0.0
H1221 H 0.85061 0.3359 0.32919 0.0
H1222 H 0.82527 0.30143 0.27022 0.0
H1223 H 0.85459 0.37941 0.38148 0.0
H1224 H 0.878 0.34673 0.22216 0.0
H1225 H 0.87326 0.33187 0.12038 0.0
H1226 H 0.8813 0.39352 0.06375 0.0
H1227 H 0.8858 0.40861 0.16535 0.0
H1228 H 0.96416 0.41591 0.46018 0.0
H1229 H 0.93046 0.39565 0.39654 0.0
H1230 H 0.9356 0.458 0.35448 0.0
H1231 H 0.96933 0.47868 0.41958 0.0
H1232 H 0.91888 0.41091 0.26011 0.0
H1233 H 0.90427 0.44727 0.42074 0.0
H1234 H 0.90914 0.46182 0.52269 0.0
H1235 H 0.88313 0.39522 0.57593 0.0
H1236 H 0.87881 0.38036 0.47428 0.0
C1237 C 0.81717 0.33827 0.19542 0.0
C1238 C 0.81541 0.31771 0.20782 0.0
C1239 C 0.83203 0.35805 0.22872 0.0
C1240 C 0.84494 0.35746 0.27555 0.0
C1241 C 0.84075 0.33666 0.29313 0.0
C1242 C 0.82615 0.31689 0.25935 0.0
C1243 C 0.86586 0.37789 0.29725 0.0
C1244 C 0.86855 0.38656 0.35483 0.0
C1245 C 0.88397 0.38745 0.26203 0.0
C1246 C 0.88205 0.37871 0.20116 0.0
C1247 C 0.87868 0.35707 0.18795 0.0
C1248 C 0.87606 0.34862 0.13036 0.0
C1249 C 0.87697 0.36175 0.08566 0.0
C1250 C 0.8806 0.38338 0.09845 0.0
C1251 C 0.8832 0.3919 0.156 0.0
C1252 C 0.95859 0.4255 0.43644 0.0
C1253 C 0.96921 0.44898 0.4463 0.0
C1254 C 0.93925 0.41382 0.4001 0.0
C1255 C 0.93038 0.42536 0.37208 0.0
C1256 C 0.94213 0.44885 0.37653 0.0
C1257 C 0.96139 0.46062 0.41375 0.0
C1258 C 0.90764 0.41238 0.34437 0.0
C1259 C 0.90468 0.40462 0.28601 0.0
C1260 C 0.88923 0.40403 0.3786 0.0
C1261 C 0.89161 0.41276 0.43988 0.0
C1262 C 0.90005 0.43579 0.45424 0.0
C1263 C 0.90266 0.44409 0.51196 0.0
C1264 C 0.89659 0.42947 0.55578 0.0
C1265 C 0.88789 0.40652 0.54192 0.0
C1266 C 0.88538 0.39816 0.48424 0.0
H1267 H 0.89854 0.43591 0.60042 0.0
H1268 H 0.87489 0.35517 0.04116 0.0
H1269 H 0.54739 0.83256 0.19741 0.0
H1270 H 0.54085 0.85887 0.255 0.0
H1271 H 0.47605 0.83128 0.16598 0.0
H1272 H 0.48291 0.80519 0.10692 0.0
H1273 H 0.49757 0.87363 0.15697 0.0
H1274 H 0.48343 0.83037 0.31682 0.0
H1275 H 0.48832 0.80762 0.38788 0.0
H1276 H 0.55131 0.86394 0.45055 0.0
H1277 H 0.547 0.88696 0.37931 0.0
H1278 H 0.49356 0.96085 0.34783 0.0
H1279 H 0.48506 0.92632 0.28996 0.0
H1280 H 0.55289 0.9423 0.32047 0.0
H1281 H 0.56148 0.97667 0.37777 0.0
H1282 H 0.52027 0.90138 0.36327 0.0
H1283 H 0.53445 0.94228 0.19048 0.0
H1284 H 0.52766 0.96361 0.11863 0.0
H1285 H 0.46081 0.90938 0.08254 0.0
H1286 H 0.46709 0.88789 0.15499 0.0
C1287 C 0.53134 0.83136 0.19201 0.0
C1288 C 0.51567 0.81688 0.14769 0.0
C1289 C 0.5276 0.84651 0.22491 0.0
C1290 C 0.50795 0.84717 0.21483 0.0
C1291 C 0.49139 0.8312 0.17433 0.0
C1292 C 0.49522 0.81618 0.14099 0.0
C1293 C 0.50634 0.8665 0.24017 0.0
C1294 C 0.50197 0.87936 0.20246 0.0
C1295 C 0.51217 0.87414 0.29938 0.0
C1296 C 0.51491 0.86038 0.34243 0.0
C1297 C 0.49841 0.83787 0.34546 0.0
C1298 C 0.50107 0.82493 0.38584 0.0
C1299 C 0.52012 0.83432 0.42366 0.0
C1300 C 0.53655 0.85669 0.42124 0.0
C1301 C 0.53399 0.86971 0.38092 0.0
C1302 C 0.50687 0.9575 0.33991 0.0
C1303 C 0.52815 0.97133 0.36768 0.0
C1304 C 0.50194 0.93767 0.3073 0.0
C1305 C 0.51828 0.93164 0.30196 0.0
C1306 C 0.54001 0.94658 0.32474 0.0
C1307 C 0.54492 0.96628 0.35713 0.0
C1308 C 0.51256 0.90879 0.27952 0.0
C1309 C 0.5154 0.89528 0.31807 0.0
C1310 C 0.50499 0.90043 0.22141 0.0
C1311 C 0.50114 0.91362 0.17886 0.0
C1312 C 0.51821 0.93504 0.16788 0.0
C1313 C 0.51447 0.94713 0.12688 0.0
C1314 C 0.49379 0.9379 0.09622 0.0
C1315 C 0.4768 0.91655 0.10646 0.0
C1316 C 0.48044 0.90441 0.14751 0.0
H1317 H 0.49096 0.94726 0.06438 0.0
H1318 H 0.52215 0.82427 0.45489 0.0
H1319 H 0.72624 0.5071 0.22513 0.0
H1320 H 0.70349 0.5067 0.30411 0.0
H1321 H 0.66882 0.52844 0.19077 0.0
H1322 H 0.69147 0.5291 0.11277 0.0
H1323 H 0.6781 0.55065 0.29466 0.0
H1324 H 0.64619 0.47358 0.21825 0.0
H1325 H 0.64647 0.43864 0.19206 0.0
H1326 H 0.66442 0.43583 0.36903 0.0
H1327 H 0.66452 0.47094 0.39612 0.0
H1328 H 0.56572 0.48681 0.42052 0.0
H1329 H 0.59451 0.48571 0.36637 0.0
H1330 H 0.64484 0.53977 0.48162 0.0
H1331 H 0.61613 0.54116 0.53591 0.0
H1332 H 0.63021 0.48015 0.3845 0.0
H1333 H 0.68494 0.57622 0.39828 0.0
H1334 H 0.68161 0.60994 0.41627 0.0
H1335 H 0.61332 0.57282 0.35099 0.0
H1336 H 0.61635 0.539 0.33187 0.0
C1337 C 0.71388 0.51195 0.2174 0.0
C1338 C 0.71047 0.51784 0.16244 0.0
C1339 C 0.7008 0.51161 0.26241 0.0
C1340 C 0.68424 0.51734 0.25336 0.0
C1341 C 0.6814 0.5239 0.19902 0.0
C1342 C 0.69427 0.52409 0.15421 0.0
C1343 C 0.66939 0.51617 0.2994 0.0
C1344 C 0.66786 0.53529 0.3148 0.0
C1345 C 0.65569 0.49609 0.32528 0.0
C1346 C 0.65563 0.47501 0.30907 0.0
C1347 C 0.65038 0.46561 0.25148 0.0
C1348 C 0.65043 0.44576 0.23649 0.0
C1349 C 0.65553 0.43506 0.27882 0.0
C1350 C 0.66053 0.44416 0.33627 0.0
C1351 C 0.66052 0.46403 0.35147 0.0
C1352 C 0.5829 0.4982 0.43523 0.0
C1353 C 0.58852 0.51431 0.48225 0.0
C1354 C 0.59939 0.49749 0.40417 0.0
C1355 C 0.62189 0.51292 0.41915 0.0
C1356 C 0.6276 0.52791 0.46863 0.0
C1357 C 0.61112 0.5286 0.49986 0.0
C1358 C 0.63903 0.51465 0.3798 0.0
C1359 C 0.64087 0.49564 0.36543 0.0
C1360 C 0.65274 0.53473 0.35393 0.0
C1361 C 0.65082 0.55504 0.36437 0.0
C1362 C 0.66924 0.57529 0.38763 0.0
C1363 C 0.6674 0.59441 0.39802 0.0
C1364 C 0.64724 0.5935 0.38499 0.0
C1365 C 0.6289 0.57349 0.36127 0.0
C1366 C 0.63067 0.55434 0.3507 0.0
H1367 H 0.64584 0.60831 0.39314 0.0
H1368 H 0.65556 0.41969 0.26714 0.0
H1369 H 0.1804 0.7319 0.1854 0.0
H1370 H 0.15068 0.71127 0.24841 0.0
H1371 H 0.18402 0.67665 0.30651 0.0
H1372 H 0.21381 0.69734 0.24343 0.0
H1373 H 0.12536 0.66634 0.22588 0.0
H1374 H 0.1642 0.65601 0.43821 0.0
H1375 H 0.19716 0.67803 0.50633 0.0
H1376 H 0.20176 0.73911 0.4565 0.0
H1377 H 0.16865 0.71748 0.38873 0.0
H1378 H 0.05206 0.56685 0.35642 0.0
H1379 H 0.08283 0.59744 0.31288 0.0
H1380 H 0.08358 0.64501 0.44237 0.0
H1381 H 0.05303 0.61456 0.48666 0.0
H1382 H 0.12447 0.65174 0.43271 0.0
H1383 H 0.06443 0.64144 0.3003 0.0
H1384 H 0.03165 0.62011 0.23122 0.0
H1385 H 0.06933 0.60201 0.12135 0.0
H1386 H 0.10223 0.62305 0.18992 0.0
C1387 C 0.18185 0.72062 0.21359 0.0
C1388 C 0.19936 0.71619 0.20957 0.0
C1389 C 0.16477 0.70868 0.24913 0.0
C1390 C 0.16497 0.69222 0.28162 0.0
C1391 C 0.18356 0.68937 0.28208 0.0
C1392 C 0.20069 0.70133 0.24639 0.0
C1393 C 0.14453 0.67599 0.30789 0.0
C1394 C 0.12515 0.66326 0.27124 0.0
C1395 C 0.14424 0.6719 0.36693 0.0
C1396 C 0.16405 0.6851 0.40798 0.0
C1397 C 0.17219 0.67414 0.44196 0.0
C1398 C 0.19091 0.68655 0.48049 0.0
C1399 C 0.20158 0.70995 0.48561 0.0
C1400 C 0.19352 0.72099 0.45233 0.0
C1401 C 0.1748 0.70865 0.41377 0.0
C1402 C 0.05845 0.58384 0.37507 0.0
C1403 C 0.05001 0.58816 0.4252 0.0
C1404 C 0.0761 0.60135 0.3501 0.0
C1405 C 0.08555 0.62357 0.37434 0.0
C1406 C 0.07665 0.62801 0.42308 0.0
C1407 C 0.05906 0.61054 0.44814 0.0
C1408 C 0.10534 0.64204 0.35058 0.0
C1409 C 0.12464 0.655 0.38751 0.0
C1410 C 0.10559 0.64638 0.2917 0.0
C1411 C 0.08575 0.63369 0.25049 0.0
C1412 C 0.06567 0.63279 0.26158 0.0
C1413 C 0.04707 0.62078 0.22243 0.0
C1414 C 0.04838 0.6097 0.1719 0.0
C1415 C 0.06831 0.61062 0.16039 0.0
C1416 C 0.08695 0.62261 0.19936 0.0
H1417 H 0.03397 0.60042 0.14166 0.0
H1418 H 0.21607 0.71953 0.51545 0.0
loop_
_geom_bond_atom_site_label_1
_geom_bond_atom_site_label_2
_geom_bond_distance
_geom_bond_site_symmetry_2
_ccdc_geom_bond_type
H0 C8 0.930 . S
H1 C11 0.930 . S
H2 C13 0.930 . S
H3 C14 0.970 . S
H4 C14 0.970 . S
H5 C16 0.930 . S
H6 C18 0.930 . S
H7 C20 0.930 . S
C8 H0 0.930 . S
C8 C9 1.382 . S
C8 C10 1.426 . S
C9 C8 1.382 . S
C9 C13 1.389 . S
C10 C8 1.426 . S
C10 C11 1.375 . S
C10 C14 1.532 . S
C11 H1 0.930 . S
C11 C10 1.375 . S
C11 C12 1.416 . S
C12 C11 1.416 . S
C12 C13 1.371 . S
C13 H2 0.930 . S
C13 C9 1.389 . S
C13 C12 1.371 . S
C14 H3 0.970 . S
C14 H4 0.970 . S
C14 C10 1.532 . S
C14 C15 1.499 . S
C15 C14 1.499 . S
C15 C16 1.370 . S
C15 C20 1.415 . S
C16 H5 0.930 . S
C16 C15 1.370 . S
C16 C17 1.407 . S
C17 C16 1.407 . S
C17 C18 1.365 . S
C18 H6 0.930 . S
C18 C17 1.365 . S
C18 C19 1.393 . S
C19 C18 1.393 . S
C19 C20 1.387 . S
C20 H7 0.930 . S
C20 C15 1.415 . S
C20 C19 1.387 . S
H21 C29 0.930 . S
H22 C32 0.930 . S
H23 C34 0.930 . S
H24 C35 0.970 . S
H25 C35 0.970 . S
H26 C37 0.930 . S
H27 C39 0.930 . S
H28 C41 0.930 . S
C29 H21 0.930 . S
C29 C30 1.382 . S
C29 C31 1.426 . S
C30 C29 1.382 . S
C30 C34 1.389 . S
C31 C29 1.426 . S
C31 C32 1.375 . S
C31 C35 1.532 . S
C32 H22 0.930 . S
C32 C31 1.375 . S
C32 C33 1.416 . S
C33 C32 1.416 . S
C33 C34 1.371 . S
C34 H23 0.930 . S
C34 C30 1.389 . S
C34 C33 1.371 . S
C35 H24 0.970 . S
C35 H25 0.970 . S
C35 C31 1.532 . S
C35 C36 1.499 . S
C36 C35 1.499 . S
C36 C37 1.370 . S
C36 C41 1.415 . S
C37 H26 0.930 . S
C37 C36 1.370 . S
C37 C38 1.407 . S
C38 C37 1.407 . S
C38 C39 1.365 . S
C39 H27 0.930 . S
C39 C38 1.365 . S
C39 C40 1.393 . S
C40 C39 1.393 . S
C40 C41 1.387 . S
C41 H28 0.930 . S
C41 C36 1.415 . S
C41 C40 1.387 . S
H42 C50 0.930 . S
H43 C53 0.930 . S
H44 C55 0.930 . S
H45 C56 0.970 1_556 S
H46 C56 0.970 . S
H47 C58 0.930 . S
H48 C60 0.930 . S
H49 C62 0.930 . S
C50 H42 0.930 . S
C50 C51 1.382 . S
C50 C52 1.426 1_556 S
C51 C50 1.382 . S
C51 C55 1.389 1_556 S
C52 C50 1.426 1_554 S
C52 C53 1.375 . S
C52 C56 1.532 . S
C53 H43 0.930 . S
C53 C52 1.375 . S
C53 C54 1.416 . S
C54 C53 1.416 . S
C54 C55 1.371 . S
C55 H44 0.930 . S
C55 C51 1.389 1_554 S
C55 C54 1.371 . S
C56 H45 0.970 1_554 S
C56 H46 0.970 . S
C56 C52 1.532 . S
C56 C57 1.499 . S
C57 C56 1.499 . S
C57 C58 1.370 1_554 S
C57 C62 1.415 . S
C58 H47 0.930 . S
C58 C57 1.370 1_556 S
C58 C59 1.407 . S
C59 C58 1.407 . S
C59 C60 1.365 1_556 S
C60 H48 0.930 . S
C60 C59 1.365 1_554 S
C60 C61 1.393 . S
C61 C60 1.393 . S
C61 C62 1.387 . S
C62 H49 0.930 . S
C62 C57 1.415 . S
C62 C61 1.387 . S
H63 C71 0.930 1_556 S
H64 C74 0.930 . S
H65 C76 0.930 . S
H66 C77 0.970 . S
H67 C77 0.970 . S
H68 C79 0.930 1_556 S
H69 C81 0.930 . S
H70 C83 0.930 . S
C71 H63 0.930 1_554 S
C71 C72 1.382 . S
C71 C73 1.426 . S
C72 C71 1.382 . S
C72 C76 1.389 . S
C73 C71 1.426 . S
C73 C74 1.375 . S
C73 C77 1.532 . S
C74 H64 0.930 . S
C74 C73 1.375 . S
C74 C75 1.416 . S
C75 C74 1.416 . S
C75 C76 1.371 . S
C76 H65 0.930 . S
C76 C72 1.389 . S
C76 C75 1.371 . S
C77 H66 0.970 . S
C77 H67 0.970 . S
C77 C73 1.532 . S
C77 C78 1.499 . S
C78 C77 1.499 . S
C78 C79 1.370 . S
C78 C83 1.415 . S
C79 H68 0.930 1_554 S
C79 C78 1.370 . S
C79 C80 1.407 . S
C80 C79 1.407 . S
C80 C81 1.365 . S
C81 H69 0.930 . S
C81 C80 1.365 . S
C81 C82 1.393 . S
C82 C81 1.393 . S
C82 C83 1.387 . S
C83 H70 0.930 . S
C83 C78 1.415 . S
C83 C82 1.387 . S
H84 C92 0.930 . S
H85 C95 0.930 . S
H86 C97 0.930 . S
H87 C98 0.970 . S
H88 C98 0.970 . S
H89 C100 0.930 . S
H90 C102 0.930 . S
H91 C104 0.930 . S
C92 H84 0.930 . S
C92 C93 1.382 . S
C92 C94 1.426 . S
C93 C92 1.382 . S
C93 C97 1.389 . S
C94 C92 1.426 . S
C94 C95 1.375 . S
C94 C98 1.532 . S
C95 H85 0.930 . S
C95 C94 1.375 . S
C95 C96 1.416 . S
C96 C95 1.416 . S
C96 C97 1.371 . S
C97 H86 0.930 . S
C97 C93 1.389 . S
C97 C96 1.371 . S
C98 H87 0.970 . S
C98 H88 0.970 . S
C98 C94 1.532 . S
C98 C99 1.499 . S
C99 C98 1.499 . S
C99 C100 1.370 . S
C99 C104 1.415 . S
C100 H89 0.930 . S
C100 C99 1.370 . S
C100 C101 1.407 . S
C101 C100 1.407 . S
C101 C102 1.365 . S
C102 H90 0.930 . S
C102 C101 1.365 . S
C102 C103 1.393 . S
C103 C102 1.393 . S
C103 C104 1.387 . S
C104 H91 0.930 . S
C104 C99 1.415 . S
C104 C103 1.387 . S
H105 C113 0.930 . S
H106 C116 0.930 . S
H107 C118 0.930 . S
H108 C119 0.970 . S
H109 C119 0.970 . S
H110 C121 0.930 . S
H111 C123 0.930 . S
H112 C125 0.930 . S
C113 H105 0.930 . S
C113 C114 1.382 . S
C113 C115 1.426 . S
C114 C113 1.382 . S
C114 C118 1.389 . S
C115 C113 1.426 . S
C115 C116 1.375 . S
C115 C119 1.532 . S
C116 H106 0.930 . S
C116 C115 1.375 . S
C116 C117 1.416 . S
C117 C116 1.416 . S
C117 C118 1.371 . S
C118 H107 0.930 . S
C118 C114 1.389 . S
C118 C117 1.371 . S
C119 H108 0.970 . S
C119 H109 0.970 . S
C119 C115 1.532 . S
C119 C120 1.499 . S
C120 C119 1.499 . S
C120 C121 1.370 . S
C120 C125 1.415 . S
C121 H110 0.930 . S
C121 C120 1.370 . S
C121 C122 1.407 . S
C122 C121 1.407 . S
C122 C123 1.365 . S
C123 H111 0.930 . S
C123 C122 1.365 . S
C123 C124 1.393 . S
C124 C123 1.393 . S
C124 C125 1.387 . S
C125 H112 0.930 . S
C125 C120 1.415 . S
C125 C124 1.387 . S
C126 O138 1.241 . S
C126 O139 1.280 . S
C127 O140 1.277 . S
C127 O141 1.245 . S
C128 O152 1.247 . S
C128 O154 1.289 . S
Mg129 O130 1.937 1_655 S
Mg129 O139 1.984 . S
Mg129 O141 1.988 1_655 S
Mg129 O142 2.061 . S
O130 Mg129 1.937 1_455 S
O130 Mg131 1.985 . S
O130 Mg132 1.915 . S
Mg131 O130 1.985 . S
Mg131 O138 2.042 1_455 S
Mg131 O140 2.041 . S
Mg131 O146 2.038 1_455 S
Mg131 O154 2.238 . S
Mg132 O130 1.915 . S
Mg132 O133 1.917 . S
Mg132 O143 2.106 1_455 S
Mg132 O145 2.079 1_455 S
Mg132 O154 2.106 . S
Mg132 O155 2.079 . S
O133 Mg132 1.917 . S
O133 Mg134 1.926 . S
O133 Mg135 1.986 . S
Mg134 O133 1.926 . S
Mg134 O148 1.984 . S
Mg134 O151 1.988 1_455 S
Mg134 O152 2.061 . S
Mg135 O133 1.986 . S
Mg135 O143 2.238 1_455 S
Mg135 O147 2.042 . S
Mg135 O149 2.041 1_455 S
Mg135 O156 2.038 . S
C136 O142 1.247 . S
C136 O143 1.289 . S
C137 O155 1.245 . S
C137 O156 1.274 . S
O138 C126 1.241 . S
O138 Mg131 2.042 1_655 S
O139 C126 1.280 . S
O139 Mg129 1.984 . S
O140 C127 1.277 . S
O140 Mg131 2.041 . S
O141 C127 1.245 . S
O141 Mg129 1.988 1_455 S
O142 Mg129 2.061 . S
O142 C136 1.247 . S
O143 Mg132 2.106 1_655 S
O143 Mg135 2.238 1_655 S
O143 C136 1.289 . S
C144 O145 1.245 . S
C144 O146 1.274 . S
O145 Mg132 2.079 1_655 S
O145 C144 1.245 . S
O146 Mg131 2.038 1_655 S
O146 C144 1.274 . S
O147 Mg135 2.042 . S
O147 C150 1.241 . S
O148 Mg134 1.984 . S
O148 C150 1.280 . S
O149 Mg135 2.041 1_655 S
O149 C153 1.277 . S
C150 O147 1.241 . S
C150 O148 1.280 . S
O151 Mg134 1.988 1_655 S
O151 C153 1.245 . S
O152 C128 1.247 . S
O152 Mg134 2.061 . S
C153 O149 1.277 . S
C153 O151 1.245 . S
O154 C128 1.289 . S
O154 Mg131 2.238 . S
O154 Mg132 2.106 . S
O155 Mg132 2.079 . S
O155 C137 1.245 . S
O156 Mg135 2.038 . S
O156 C137 1.274 . S
C157 O169 1.241 . S
C157 O170 1.280 . S
C158 O171 1.277 . S
C158 O172 1.245 . S
C159 O183 1.247 . S
C159 O185 1.289 . S
Mg160 O161 1.926 . S
Mg160 O170 1.984 . S
Mg160 O172 1.988 1_545 S
Mg160 O173 2.061 . S
O161 Mg160 1.926 . S
O161 Mg162 1.986 . S
O161 Mg163 1.917 . S
Mg162 O161 1.986 . S
Mg162 O169 2.042 . S
Mg162 O171 2.041 1_545 S
Mg162 O177 2.038 . S
Mg162 O185 2.238 1_545 S
Mg163 O161 1.917 . S
Mg163 O164 1.917 1_545 S
Mg163 O174 2.106 . S
Mg163 O176 2.079 . S
Mg163 O185 2.106 1_545 S
Mg163 O186 2.079 1_545 S
O164 Mg163 1.917 1_565 S
O164 Mg165 1.926 . S
O164 Mg166 1.986 1_565 S
Mg165 O164 1.926 . S
Mg165 O179 1.984 . S
Mg165 O182 1.988 1_565 S
Mg165 O183 2.061 . S
Mg166 O164 1.986 1_545 S
Mg166 O174 2.238 . S
Mg166 O178 2.042 1_545 S
Mg166 O180 2.041 . S
Mg166 O187 2.038 1_545 S
C167 O173 1.247 . S
C167 O174 1.289 . S
C168 O186 1.245 . S
C168 O187 1.274 . S
O169 C157 1.241 . S
O169 Mg162 2.042 . S
O170 C157 1.280 . S
O170 Mg160 1.984 . S
O171 C158 1.277 . S
O171 Mg162 2.041 1_565 S
O172 C158 1.245 . S
O172 Mg160 1.988 1_565 S
O173 Mg160 2.061 . S
O173 C167 1.247 . S
O174 Mg163 2.106 . S
O174 Mg166 2.238 . S
O174 C167 1.289 . S
C175 O176 1.245 . S
C175 O177 1.274 . S
O176 Mg163 2.079 . S
O176 C175 1.245 . S
O177 Mg162 2.038 . S
O177 C175 1.274 . S
O178 Mg166 2.042 1_565 S
O178 C181 1.241 . S
O179 Mg165 1.984 . S
O179 C181 1.280 . S
O180 Mg166 2.041 . S
O180 C184 1.277 . S
C181 O178 1.241 . S
C181 O179 1.280 . S
O182 Mg165 1.988 1_545 S
O182 C184 1.245 . S
O183 C159 1.247 . S
O183 Mg165 2.061 . S
C184 O180 1.277 . S
C184 O182 1.245 . S
O185 C159 1.289 . S
O185 Mg162 2.238 1_565 S
O185 Mg163 2.106 1_565 S
O186 Mg163 2.079 1_565 S
O186 C168 1.245 . S
O187 Mg166 2.038 1_565 S
O187 C168 1.274 . S
C188 O200 1.241 . S
C188 O201 1.280 . S
C189 O202 1.277 . S
C189 O203 1.245 . S
C190 O214 1.247 . S
C190 O216 1.289 . S
Mg191 O192 1.926 . S
Mg191 O201 1.984 . S
Mg191 O203 1.988 . S
Mg191 O204 2.061 . S
O192 Mg191 1.926 . S
O192 Mg193 1.986 . S
O192 Mg194 1.917 . S
Mg193 O192 1.986 . S
Mg193 O200 2.042 . S
Mg193 O202 2.041 . S
Mg193 O208 2.038 . S
Mg193 O216 2.238 . S
Mg194 O192 1.917 . S
Mg194 O195 1.917 . S
Mg194 O205 2.106 . S
Mg194 O207 2.079 . S
Mg194 O216 2.106 . S
Mg194 O217 2.079 . S
O195 Mg194 1.917 . S
O195 Mg196 1.926 . S
O195 Mg197 1.986 . S
Mg196 O195 1.926 . S
Mg196 O210 1.984 . S
Mg196 O213 1.988 . S
Mg196 O214 2.061 . S
Mg197 O195 1.986 . S
Mg197 O205 2.238 . S
Mg197 O209 2.042 . S
Mg197 O211 2.041 . S
Mg197 O218 2.038 . S
C198 O204 1.247 . S
C198 O205 1.289 . S
C199 O217 1.245 . S
C199 O218 1.274 . S
O200 C188 1.241 . S
O200 Mg193 2.042 . S
O201 C188 1.280 . S
O201 Mg191 1.984 . S
O202 C189 1.277 . S
O202 Mg193 2.041 . S
O203 C189 1.245 . S
O203 Mg191 1.988 . S
O204 Mg191 2.061 . S
O204 C198 1.247 . S
O205 Mg194 2.106 . S
O205 Mg197 2.238 . S
O205 C198 1.289 . S
C206 O207 1.245 . S
C206 O208 1.274 . S
O207 Mg194 2.079 . S
O207 C206 1.245 . S
O208 Mg193 2.038 . S
O208 C206 1.274 . S
O209 Mg197 2.042 . S
O209 C212 1.241 . S
O210 Mg196 1.984 . S
O210 C212 1.280 . S
O211 Mg197 2.041 . S
O211 C215 1.277 . S
C212 O209 1.241 . S
C212 O210 1.280 . S
O213 Mg196 1.988 . S
O213 C215 1.245 . S
O214 C190 1.247 . S
O214 Mg196 2.061 . S
C215 O211 1.277 . S
C215 O213 1.245 . S
O216 C190 1.289 . S
O216 Mg193 2.238 . S
O216 Mg194 2.106 . S
O217 Mg194 2.079 . S
O217 C199 1.245 . S
O218 Mg197 2.038 . S
O218 C199 1.274 . S
H219 C237 0.951 . S
H220 C239 0.951 . S
H221 C241 0.950 . S
H222 C242 0.950 . S
H223 C244 0.950 . S
H224 C247 0.950 . S
H225 C248 0.950 . S
H226 C250 0.950 . S
H227 C251 0.950 . S
H228 C252 0.951 . S
H229 C254 0.951 . S
H230 C256 0.950 . S
H231 C257 0.950 . S
H232 C259 0.950 . S
H233 C262 0.950 . S
H234 C263 0.950 . S
H235 C265 0.950 . S
H236 C266 0.950 . S
C237 H219 0.951 . S
C237 C238 1.366 . S
C237 C239 1.388 . S
C238 C237 1.366 . S
C238 C242 1.385 . S
C239 H220 0.951 . S
C239 C237 1.388 . S
C239 C240 1.366 . S
C240 C239 1.366 . S
C240 C241 1.414 . S
C240 C243 1.499 . S
C241 H221 0.950 . S
C241 C240 1.414 . S
C241 C242 1.374 . S
C242 H222 0.950 . S
C242 C238 1.385 . S
C242 C241 1.374 . S
C243 C240 1.499 . S
C243 C244 1.373 . S
C243 C245 1.389 . S
C244 H223 0.950 . S
C244 C243 1.373 . S
C244 C260 1.377 . S
C245 C243 1.389 . S
C245 C246 1.524 . S
C245 C259 1.377 . S
C246 C245 1.524 . S
C246 C247 1.397 . S
C246 C251 1.363 . S
C247 H224 0.950 . S
C247 C246 1.397 . S
C247 C248 1.334 . S
C248 H225 0.950 . S
C248 C247 1.334 . S
C248 C249 1.287 . S
C249 C248 1.287 . S
C249 C250 1.524 . S
C249 H268 0.913 . S
C250 H226 0.950 . S
C250 C249 1.524 . S
C250 C251 1.415 . S
C251 H227 0.950 . S
C251 C246 1.363 . S
C251 C250 1.415 . S
C252 H228 0.951 . S
C252 C253 1.366 . S
C252 C254 1.388 . S
C253 C252 1.366 . S
C253 C257 1.385 . S
C254 H229 0.951 . S
C254 C252 1.388 . S
C254 C255 1.366 . S
C255 C254 1.366 . S
C255 C256 1.414 . S
C255 C258 1.499 . S
C256 H230 0.950 . S
C256 C255 1.414 . S
C256 C257 1.374 . S
C257 H231 0.950 . S
C257 C253 1.385 . S
C257 C256 1.374 . S
C258 C255 1.499 . S
C258 C259 1.373 . S
C258 C260 1.389 . S
C259 H232 0.950 . S
C259 C245 1.377 . S
C259 C258 1.373 . S
C260 C244 1.377 . S
C260 C258 1.389 . S
C260 C261 1.524 . S
C261 C260 1.524 . S
C261 C262 1.397 . S
C261 C266 1.363 . S
C262 H233 0.950 . S
C262 C261 1.397 . S
C262 C263 1.334 . S
C263 H234 0.950 . S
C263 C262 1.334 . S
C263 C264 1.287 . S
C264 C263 1.287 . S
C264 C265 1.524 . S
C264 H267 0.999 . S
C265 H235 0.950 . S
C265 C264 1.524 . S
C265 C266 1.415 . S
C266 H236 0.950 . S
C266 C261 1.363 . S
C266 C265 1.415 . S
H267 C264 0.999 . S
H268 C249 0.913 . S
H269 C287 0.951 . S
H270 C289 0.951 . S
H271 C291 0.950 . S
H272 C292 0.950 . S
H273 C294 0.950 . S
H274 C297 0.950 . S
H275 C298 0.950 . S
H276 C300 0.950 . S
H277 C301 0.950 . S
H278 C302 0.951 . S
H279 C304 0.951 . S
H280 C306 0.950 . S
H281 C307 0.950 . S
H282 C309 0.950 . S
H283 C312 0.950 . S
H284 C313 0.950 . S
H285 C315 0.950 . S
H286 C316 0.950 . S
C287 H269 0.951 . S
C287 C288 1.366 . S
C287 C289 1.388 . S
C288 C287 1.366 . S
C288 C292 1.385 . S
C289 H270 0.951 . S
C289 C287 1.388 . S
C289 C290 1.366 . S
C290 C289 1.366 . S
C290 C291 1.414 . S
C290 C293 1.499 . S
C291 H271 0.950 . S
C291 C290 1.414 . S
C291 C292 1.374 . S
C292 H272 0.950 . S
C292 C288 1.385 . S
C292 C291 1.374 . S
C293 C290 1.499 . S
C293 C294 1.373 . S
C293 C295 1.389 . S
C294 H273 0.950 . S
C294 C293 1.373 . S
C294 C310 1.377 . S
C295 C293 1.389 . S
C295 C296 1.524 . S
C295 C309 1.377 . S
C296 C295 1.524 . S
C296 C297 1.397 . S
C296 C301 1.363 . S
C297 H274 0.950 . S
C297 C296 1.397 . S
C297 C298 1.334 . S
C298 H275 0.950 . S
C298 C297 1.334 . S
C298 C299 1.287 . S
C299 C298 1.287 . S
C299 C300 1.524 . S
C299 H318 0.913 . S
C300 H276 0.950 . S
C300 C299 1.524 . S
C300 C301 1.415 . S
C301 H277 0.950 . S
C301 C296 1.363 . S
C301 C300 1.415 . S
C302 H278 0.951 . S
C302 C303 1.366 . S
C302 C304 1.388 . S
C303 C302 1.366 . S
C303 C307 1.385 . S
C304 H279 0.951 . S
C304 C302 1.388 . S
C304 C305 1.366 . S
C305 C304 1.366 . S
C305 C306 1.414 . S
C305 C308 1.499 . S
C306 H280 0.950 . S
C306 C305 1.414 . S
C306 C307 1.374 . S
C307 H281 0.950 . S
C307 C303 1.385 . S
C307 C306 1.374 . S
C308 C305 1.499 . S
C308 C309 1.373 . S
C308 C310 1.389 . S
C309 H282 0.950 . S
C309 C295 1.377 . S
C309 C308 1.373 . S
C310 C294 1.377 . S
C310 C308 1.389 . S
C310 C311 1.524 . S
C311 C310 1.524 . S
C311 C312 1.397 . S
C311 C316 1.363 . S
C312 H283 0.950 . S
C312 C311 1.397 . S
C312 C313 1.334 . S
C313 H284 0.950 . S
C313 C312 1.334 . S
C313 C314 1.287 . S
C314 C313 1.287 . S
C314 C315 1.524 . S
C314 H317 0.999 . S
C315 H285 0.950 . S
C315 C314 1.524 . S
C315 C316 1.415 . S
C316 H286 0.950 . S
C316 C311 1.363 . S
C316 C315 1.415 . S
H317 C314 0.999 . S
H318 C299 0.913 . S
H319 C337 0.951 . S
H320 C339 0.951 . S
H321 C341 0.950 . S
H322 C342 0.950 . S
H323 C344 0.950 . S
H324 C347 0.950 . S
H325 C348 0.950 . S
H326 C350 0.950 . S
H327 C351 0.950 . S
H328 C352 0.951 . S
H329 C354 0.951 . S
H330 C356 0.950 . S
H331 C357 0.950 . S
H332 C359 0.950 . S
H333 C362 0.950 . S
H334 C363 0.950 . S
H335 C365 0.950 . S
H336 C366 0.950 . S
C337 H319 0.951 . S
C337 C338 1.366 . S
C337 C339 1.388 . S
C338 C337 1.366 . S
C338 C342 1.385 . S
C339 H320 0.951 . S
C339 C337 1.388 . S
C339 C340 1.366 . S
C340 C339 1.366 . S
C340 C341 1.414 . S
C340 C343 1.499 . S
C341 H321 0.950 . S
C341 C340 1.414 . S
C341 C342 1.374 . S
C342 H322 0.950 . S
C342 C338 1.385 . S
C342 C341 1.374 . S
C343 C340 1.499 . S
C343 C344 1.373 . S
C343 C345 1.389 . S
C344 H323 0.950 . S
C344 C343 1.373 . S
C344 C360 1.377 . S
C345 C343 1.389 . S
C345 C346 1.524 . S
C345 C359 1.377 . S
C346 C345 1.524 . S
C346 C347 1.397 . S
C346 C351 1.363 . S
C347 H324 0.950 . S
C347 C346 1.397 . S
C347 C348 1.334 . S
C348 H325 0.950 . S
C348 C347 1.334 . S
C348 C349 1.287 . S
C349 C348 1.287 . S
C349 C350 1.524 . S
C349 H368 0.913 . S
C350 H326 0.950 . S
C350 C349 1.524 . S
C350 C351 1.415 . S
C351 H327 0.950 . S
C351 C346 1.363 . S
C351 C350 1.415 . S
C352 H328 0.951 . S
C352 C353 1.366 . S
C352 C354 1.388 . S
C353 C352 1.366 . S
C353 C357 1.385 . S
C354 H329 0.951 . S
C354 C352 1.388 . S
C354 C355 1.366 . S
C355 C354 1.366 . S
C355 C356 1.414 . S
C355 C358 1.499 . S
C356 H330 0.950 . S
C356 C355 1.414 . S
C356 C357 1.374 . S
C357 H331 0.950 . S
C357 C353 1.385 . S
C357 C356 1.374 . S
C358 C355 1.499 . S
C358 C359 1.373 . S
C358 C360 1.389 . S
C359 H332 0.950 . S
C359 C345 1.377 . S
C359 C358 1.373 . S
C360 C344 1.377 . S
C360 C358 1.389 . S
C360 C361 1.524 . S
C361 C360 1.524 . S
C361 C362 1.397 . S
C361 C366 1.363 . S
C362 H333 0.950 . S
C362 C361 1.397 . S
C362 C363 1.334 . S
C363 H334 0.950 . S
C363 C362 1.334 . S
C363 C364 1.287 . S
C364 C363 1.287 . S
C364 C365 1.524 . S
C364 H367 0.999 . S
C365 H335 0.950 . S
C365 C364 1.524 . S
C365 C366 1.415 . S
C366 H336 0.950 . S
C366 C361 1.363 . S
C366 C365 1.415 . S
H367 C364 0.999 . S
H368 C349 0.913 . S
H369 C387 0.951 . S
H370 C389 0.951 . S
H371 C391 0.950 . S
H372 C392 0.950 . S
H373 C394 0.950 . S
H374 C397 0.950 . S
H375 C398 0.950 . S
H376 C400 0.950 . S
H377 C401 0.950 . S
H378 C402 0.951 . S
H379 C404 0.951 . S
H380 C406 0.950 . S
H381 C407 0.950 . S
H382 C409 0.950 . S
H383 C412 0.950 . S
H384 C413 0.950 . S
H385 C415 0.950 . S
H386 C416 0.950 . S
C387 H369 0.951 . S
C387 C388 1.366 . S
C387 C389 1.388 . S
C388 C387 1.366 . S
C388 C392 1.385 . S
C389 H370 0.951 . S
C389 C387 1.388 . S
C389 C390 1.366 . S
C390 C389 1.366 . S
C390 C391 1.414 . S
C390 C393 1.499 . S
C391 H371 0.950 . S
C391 C390 1.414 . S
C391 C392 1.374 . S
C392 H372 0.950 . S
C392 C388 1.385 . S
C392 C391 1.374 . S
C393 C390 1.499 . S
C393 C394 1.373 . S
C393 C395 1.389 . S
C394 H373 0.950 . S
C394 C393 1.373 . S
C394 C410 1.377 . S
C395 C393 1.389 . S
C395 C396 1.524 . S
C395 C409 1.377 . S
C396 C395 1.524 . S
C396 C397 1.397 . S
C396 C401 1.363 . S
C397 H374 0.950 . S
C397 C396 1.397 . S
C397 C398 1.334 . S
C398 H375 0.950 . S
C398 C397 1.334 . S
C398 C399 1.287 . S
C399 C398 1.287 . S
C399 C400 1.524 . S
C399 H418 0.913 . S
C400 H376 0.950 . S
C400 C399 1.524 . S
C400 C401 1.415 . S
C401 H377 0.950 . S
C401 C396 1.363 . S
C401 C400 1.415 . S
C402 H378 0.951 . S
C402 C403 1.366 . S
C402 C404 1.388 . S
C403 C402 1.366 . S
C403 C407 1.385 . S
C404 H379 0.951 . S
C404 C402 1.388 . S
C404 C405 1.366 . S
C405 C404 1.366 . S
C405 C406 1.414 . S
C405 C408 1.499 . S
C406 H380 0.950 . S
C406 C405 1.414 . S
C406 C407 1.374 . S
C407 H381 0.950 . S
C407 C403 1.385 . S
C407 C406 1.374 . S
C408 C405 1.499 . S
C408 C409 1.373 . S
C408 C410 1.389 . S
C409 H382 0.950 . S
C409 C395 1.377 . S
C409 C408 1.373 . S
C410 C394 1.377 . S
C410 C408 1.389 . S
C410 C411 1.524 . S
C411 C410 1.524 . S
C411 C412 1.397 . S
C411 C416 1.363 . S
C412 H383 0.950 . S
C412 C411 1.397 . S
C412 C413 1.334 . S
C413 H384 0.950 . S
C413 C412 1.334 . S
C413 C414 1.287 . S
C414 C413 1.287 . S
C414 C415 1.524 . S
C414 H417 0.999 . S
C415 H385 0.950 . S
C415 C414 1.524 . S
C415 C416 1.415 . S
C416 H386 0.950 . S
C416 C411 1.363 . S
C416 C415 1.415 . S
H417 C414 0.999 . S
H418 C399 0.913 . S
H419 C437 0.951 . S
H420 C439 0.951 . S
H421 C441 0.950 . S
H422 C442 0.950 . S
H423 C444 0.950 . S
H424 C447 0.950 . S
H425 C448 0.950 . S
H426 C450 0.950 . S
H427 C451 0.950 . S
H428 C452 0.951 . S
H429 C454 0.951 . S
H430 C456 0.950 . S
H431 C457 0.950 . S
H432 C459 0.950 . S
H433 C462 0.950 . S
H434 C463 0.950 . S
H435 C465 0.950 . S
H436 C466 0.950 . S
C437 H419 0.951 . S
C437 C438 1.366 . S
C437 C439 1.388 . S
C438 C437 1.366 . S
C438 C442 1.385 . S
C439 H420 0.951 . S
C439 C437 1.388 . S
C439 C440 1.366 . S
C440 C439 1.366 . S
C440 C441 1.414 . S
C440 C443 1.499 . S
C441 H421 0.950 . S
C441 C440 1.414 . S
C441 C442 1.374 . S
C442 H422 0.950 . S
C442 C438 1.385 . S
C442 C441 1.374 . S
C443 C440 1.499 . S
C443 C444 1.373 . S
C443 C445 1.389 . S
C444 H423 0.950 . S
C444 C443 1.373 . S
C444 C460 1.377 . S
C445 C443 1.389 . S
C445 C446 1.524 . S
C445 C459 1.377 . S
C446 C445 1.524 . S
C446 C447 1.397 . S
C446 C451 1.363 . S
C447 H424 0.950 . S
C447 C446 1.397 . S
C447 C448 1.334 . S
C448 H425 0.950 . S
C448 C447 1.334 . S
C448 C449 1.287 . S
C449 C448 1.287 . S
C449 C450 1.524 . S
C449 H468 0.913 . S
C450 H426 0.950 . S
C450 C449 1.524 . S
C450 C451 1.415 . S
C451 H427 0.950 . S
C451 C446 1.363 . S
C451 C450 1.415 . S
C452 H428 0.951 . S
C452 C453 1.366 . S
C452 C454 1.388 . S
C453 C452 1.366 . S
C453 C457 1.385 . S
C454 H429 0.951 . S
C454 C452 1.388 . S
C454 C455 1.366 . S
C455 C454 1.366 . S
C455 C456 1.414 . S
C455 C458 1.499 . S
C456 H430 0.950 . S
C456 C455 1.414 . S
C456 C457 1.374 . S
C457 H431 0.950 . S
C457 C453 1.385 . S
C457 C456 1.374 . S
C458 C455 1.499 . S
C458 C459 1.373 . S
C458 C460 1.389 . S
C459 H432 0.950 . S
C459 C445 1.377 . S
C459 C458 1.373 . S
C460 C444 1.377 . S
C460 C458 1.389 . S
C460 C461 1.524 . S
C461 C460 1.524 . S
C461 C462 1.397 . S
C461 C466 1.363 . S
C462 H433 0.950 . S
C462 C461 1.397 . S
C462 C463 1.334 . S
C463 H434 0.950 . S
C463 C462 1.334 . S
C463 C464 1.287 . S
C464 C463 1.287 . S
C464 C465 1.524 . S
C464 H467 0.999 . S
C465 H435 0.950 . S
C465 C464 1.524 . S
C465 C466 1.415 . S
C466 H436 0.950 . S
C466 C461 1.363 . S
C466 C465 1.415 . S
H467 C464 0.999 . S
H468 C449 0.913 . S
H469 C487 0.951 . S
H470 C489 0.951 . S
H471 C491 0.950 . S
H472 C492 0.950 . S
H473 C494 0.950 . S
H474 C497 0.950 . S
H475 C498 0.950 . S
H476 C500 0.950 . S
H477 C501 0.950 . S
H478 C502 0.951 . S
H479 C504 0.951 . S
H480 C506 0.950 . S
H481 C507 0.950 . S
H482 C509 0.950 . S
H483 C512 0.950 . S
H484 C513 0.950 . S
H485 C515 0.950 . S
H486 C516 0.950 . S
C487 H469 0.951 . S
C487 C488 1.366 . S
C487 C489 1.388 . S
C488 C487 1.366 . S
C488 C492 1.385 . S
C489 H470 0.951 . S
C489 C487 1.388 . S
C489 C490 1.366 . S
C490 C489 1.366 . S
C490 C491 1.414 . S
C490 C493 1.499 . S
C491 H471 0.950 . S
C491 C490 1.414 . S
C491 C492 1.374 . S
C492 H472 0.950 . S
C492 C488 1.385 . S
C492 C491 1.374 . S
C493 C490 1.499 . S
C493 C494 1.373 . S
C493 C495 1.389 . S
C494 H473 0.950 . S
C494 C493 1.373 . S
C494 C510 1.377 . S
C495 C493 1.389 . S
C495 C496 1.524 . S
C495 C509 1.377 . S
C496 C495 1.524 . S
C496 C497 1.397 . S
C496 C501 1.363 . S
C497 H474 0.950 . S
C497 C496 1.397 . S
C497 C498 1.334 . S
C498 H475 0.950 . S
C498 C497 1.334 . S
C498 C499 1.287 . S
C499 C498 1.287 . S
C499 C500 1.524 . S
C499 H518 0.913 . S
C500 H476 0.950 . S
C500 C499 1.524 . S
C500 C501 1.415 . S
C501 H477 0.950 . S
C501 C496 1.363 . S
C501 C500 1.415 . S
C502 H478 0.951 . S
C502 C503 1.366 . S
C502 C504 1.388 . S
C503 C502 1.366 . S
C503 C507 1.385 . S
C504 H479 0.951 . S
C504 C502 1.388 . S
C504 C505 1.366 . S
C505 C504 1.366 . S
C505 C506 1.414 . S
C505 C508 1.499 . S
C506 H480 0.950 . S
C506 C505 1.414 . S
C506 C507 1.374 . S
C507 H481 0.950 . S
C507 C503 1.385 . S
C507 C506 1.374 . S
C508 C505 1.499 . S
C508 C509 1.373 . S
C508 C510 1.389 . S
C509 H482 0.950 . S
C509 C495 1.377 . S
C509 C508 1.373 . S
C510 C494 1.377 . S
C510 C508 1.389 . S
C510 C511 1.524 . S
C511 C510 1.524 . S
C511 C512 1.397 . S
C511 C516 1.363 . S
C512 H483 0.950 . S
C512 C511 1.397 . S
C512 C513 1.334 . S
C513 H484 0.950 . S
C513 C512 1.334 . S
C513 C514 1.287 . S
C514 C513 1.287 . S
C514 C515 1.524 . S
C514 H517 0.999 . S
C515 H485 0.950 . S
C515 C514 1.524 . S
C515 C516 1.415 . S
C516 H486 0.950 . S
C516 C511 1.363 . S
C516 C515 1.415 . S
H517 C514 0.999 . S
H518 C499 0.913 . S
H519 C537 0.951 . S
H520 C539 0.951 . S
H521 C541 0.950 . S
H522 C542 0.950 . S
H523 C544 0.950 . S
H524 C547 0.950 . S
H525 C548 0.950 . S
H526 C550 0.950 . S
H527 C551 0.950 . S
H528 C552 0.951 . S
H529 C554 0.951 . S
H530 C556 0.950 . S
H531 C557 0.950 . S
H532 C559 0.950 . S
H533 C562 0.950 . S
H534 C563 0.950 . S
H535 C565 0.950 . S
H536 C566 0.950 . S
C537 H519 0.951 . S
C537 C538 1.366 . S
C537 C539 1.388 . S
C538 C537 1.366 . S
C538 C542 1.385 . S
C539 H520 0.951 . S
C539 C537 1.388 . S
C539 C540 1.366 . S
C540 C539 1.366 . S
C540 C541 1.414 . S
C540 C543 1.499 . S
C541 H521 0.950 . S
C541 C540 1.414 . S
C541 C542 1.374 . S
C542 H522 0.950 . S
C542 C538 1.385 . S
C542 C541 1.374 . S
C543 C540 1.499 . S
C543 C544 1.373 . S
C543 C545 1.389 . S
C544 H523 0.950 . S
C544 C543 1.373 . S
C544 C560 1.377 . S
C545 C543 1.389 . S
C545 C546 1.524 . S
C545 C559 1.377 . S
C546 C545 1.524 . S
C546 C547 1.397 . S
C546 C551 1.363 . S
C547 H524 0.950 . S
C547 C546 1.397 . S
C547 C548 1.334 . S
C548 H525 0.950 . S
C548 C547 1.334 . S
C548 C549 1.287 . S
C549 C548 1.287 . S
C549 C550 1.524 . S
C549 H568 0.913 . S
C550 H526 0.950 . S
C550 C549 1.524 . S
C550 C551 1.415 . S
C551 H527 0.950 . S
C551 C546 1.363 . S
C551 C550 1.415 . S
C552 H528 0.951 . S
C552 C553 1.366 . S
C552 C554 1.388 . S
C553 C552 1.366 . S
C553 C557 1.385 . S
C554 H529 0.951 . S
C554 C552 1.388 . S
C554 C555 1.366 . S
C555 C554 1.366 . S
C555 C556 1.414 . S
C555 C558 1.499 . S
C556 H530 0.950 . S
C556 C555 1.414 . S
C556 C557 1.374 . S
C557 H531 0.950 . S
C557 C553 1.385 . S
C557 C556 1.374 . S
C558 C555 1.499 . S
C558 C559 1.373 . S
C558 C560 1.389 . S
C559 H532 0.950 . S
C559 C545 1.377 . S
C559 C558 1.373 . S
C560 C544 1.377 . S
C560 C558 1.389 . S
C560 C561 1.524 . S
C561 C560 1.524 . S
C561 C562 1.397 . S
C561 C566 1.363 . S
C562 H533 0.950 . S
C562 C561 1.397 . S
C562 C563 1.334 . S
C563 H534 0.950 . S
C563 C562 1.334 . S
C563 C564 1.287 . S
C564 C563 1.287 . S
C564 C565 1.524 . S
C564 H567 0.999 . S
C565 H535 0.950 . S
C565 C564 1.524 . S
C565 C566 1.415 . S
C566 H536 0.950 . S
C566 C561 1.363 . S
C566 C565 1.415 . S
H567 C564 0.999 . S
H568 C549 0.913 . S
H569 C587 0.951 . S
H570 C589 0.951 . S
H571 C591 0.950 . S
H572 C592 0.950 1_554 S
H573 C594 0.950 . S
H574 C597 0.950 . S
H575 C598 0.950 . S
H576 C600 0.950 . S
H577 C601 0.950 . S
H578 C602 0.951 . S
H579 C604 0.951 . S
H580 C606 0.950 . S
H581 C607 0.950 . S
H582 C609 0.950 . S
H583 C612 0.950 . S
H584 C613 0.950 . S
H585 C615 0.950 1_554 S
H586 C616 0.950 . S
C587 H569 0.951 . S
C587 C588 1.366 . S
C587 C589 1.388 . S
C588 C587 1.366 . S
C588 C592 1.385 . S
C589 H570 0.951 . S
C589 C587 1.388 . S
C589 C590 1.366 . S
C590 C589 1.366 . S
C590 C591 1.414 . S
C590 C593 1.499 . S
C591 H571 0.950 . S
C591 C590 1.414 . S
C591 C592 1.374 . S
C592 H572 0.950 1_556 S
C592 C588 1.385 . S
C592 C591 1.374 . S
C593 C590 1.499 . S
C593 C594 1.373 . S
C593 C595 1.389 . S
C594 H573 0.950 . S
C594 C593 1.373 . S
C594 C610 1.377 . S
C595 C593 1.389 . S
C595 C596 1.524 . S
C595 C609 1.377 . S
C596 C595 1.524 . S
C596 C597 1.397 . S
C596 C601 1.363 . S
C597 H574 0.950 . S
C597 C596 1.397 . S
C597 C598 1.334 . S
C598 H575 0.950 . S
C598 C597 1.334 . S
C598 C599 1.287 . S
C599 C598 1.287 . S
C599 C600 1.524 . S
C599 H618 0.913 . S
C600 H576 0.950 . S
C600 C599 1.524 . S
C600 C601 1.415 . S
C601 H577 0.950 . S
C601 C596 1.363 . S
C601 C600 1.415 . S
C602 H578 0.951 . S
C602 C603 1.366 . S
C602 C604 1.388 . S
C603 C602 1.366 . S
C603 C607 1.385 . S
C604 H579 0.951 . S
C604 C602 1.388 . S
C604 C605 1.366 . S
C605 C604 1.366 . S
C605 C606 1.414 . S
C605 C608 1.499 . S
C606 H580 0.950 . S
C606 C605 1.414 . S
C606 C607 1.374 . S
C607 H581 0.950 . S
C607 C603 1.385 . S
C607 C606 1.374 . S
C608 C605 1.499 . S
C608 C609 1.373 . S
C608 C610 1.389 . S
C609 H582 0.950 . S
C609 C595 1.377 . S
C609 C608 1.373 . S
C610 C594 1.377 . S
C610 C608 1.389 . S
C610 C611 1.524 . S
C611 C610 1.524 . S
C611 C612 1.397 . S
C611 C616 1.363 . S
C612 H583 0.950 . S
C612 C611 1.397 . S
C612 C613 1.334 . S
C613 H584 0.950 . S
C613 C612 1.334 . S
C613 C614 1.287 . S
C614 C613 1.287 . S
C614 C615 1.524 . S
C614 H617 0.999 . S
C615 H585 0.950 1_556 S
C615 C614 1.524 . S
C615 C616 1.415 . S
C616 H586 0.950 . S
C616 C611 1.363 . S
C616 C615 1.415 . S
H617 C614 0.999 . S
H618 C599 0.913 . S
H619 C637 0.951 1_554 S
H620 C639 0.951 . S
H621 C641 0.950 . S
H622 C642 0.950 . S
H623 C644 0.950 . S
H624 C647 0.950 . S
H625 C648 0.950 . S
H626 C650 0.950 . S
H627 C651 0.950 . S
H628 C652 0.951 . S
H629 C654 0.951 . S
H630 C656 0.950 . S
H631 C657 0.950 . S
H632 C659 0.950 . S
H633 C662 0.950 . S
H634 C663 0.950 . S
H635 C665 0.950 . S
H636 C666 0.950 . S
C637 H619 0.951 1_556 S
C637 C638 1.366 . S
C637 C639 1.388 . S
C638 C637 1.366 . S
C638 C642 1.385 . S
C639 H620 0.951 . S
C639 C637 1.388 . S
C639 C640 1.366 . S
C640 C639 1.366 . S
C640 C641 1.414 . S
C640 C643 1.499 . S
C641 H621 0.950 . S
C641 C640 1.414 . S
C641 C642 1.374 . S
C642 H622 0.950 . S
C642 C638 1.385 . S
C642 C641 1.374 . S
C643 C640 1.499 . S
C643 C644 1.373 . S
C643 C645 1.389 . S
C644 H623 0.950 . S
C644 C643 1.373 . S
C644 C660 1.377 . S
C645 C643 1.389 . S
C645 C646 1.524 . S
C645 C659 1.377 . S
C646 C645 1.524 . S
C646 C647 1.397 . S
C646 C651 1.363 . S
C647 H624 0.950 . S
C647 C646 1.397 . S
C647 C648 1.334 . S
C648 H625 0.950 . S
C648 C647 1.334 . S
C648 C649 1.287 . S
C649 C648 1.287 . S
C649 C650 1.524 . S
C649 H668 0.913 . S
C650 H626 0.950 . S
C650 C649 1.524 . S
C650 C651 1.415 . S
C651 H627 0.950 . S
C651 C646 1.363 . S
C651 C650 1.415 . S
C652 H628 0.951 . S
C652 C653 1.366 . S
C652 C654 1.388 . S
C653 C652 1.366 . S
C653 C657 1.385 . S
C654 H629 0.951 . S
C654 C652 1.388 . S
C654 C655 1.366 . S
C655 C654 1.366 . S
C655 C656 1.414 . S
C655 C658 1.499 . S
C656 H630 0.950 . S
C656 C655 1.414 . S
C656 C657 1.374 . S
C657 H631 0.950 . S
C657 C653 1.385 . S
C657 C656 1.374 . S
C658 C655 1.499 . S
C658 C659 1.373 . S
C658 C660 1.389 . S
C659 H632 0.950 . S
C659 C645 1.377 . S
C659 C658 1.373 . S
C660 C644 1.377 . S
C660 C658 1.389 . S
C660 C661 1.524 . S
C661 C660 1.524 . S
C661 C662 1.397 . S
C661 C666 1.363 . S
C662 H633 0.950 . S
C662 C661 1.397 . S
C662 C663 1.334 . S
C663 H634 0.950 . S
C663 C662 1.334 . S
C663 C664 1.287 . S
C664 C663 1.287 . S
C664 C665 1.524 . S
C664 H667 0.999 . S
C665 H635 0.950 . S
C665 C664 1.524 . S
C665 C666 1.415 . S
C666 H636 0.950 . S
C666 C661 1.363 . S
C666 C665 1.415 . S
H667 C664 0.999 . S
H668 C649 0.913 . S
H669 C687 0.951 . S
H670 C689 0.939 1_556 S
H671 C691 0.950 . S
H672 C692 0.950 . S
H673 C694 0.950 . S
H674 C697 0.950 . S
H675 C698 0.950 . S
H676 C700 0.950 . S
H677 C701 0.950 . S
H678 C702 0.951 . S
H679 C704 0.951 . S
H680 C706 0.950 . S
H681 C707 0.950 . S
H682 C709 0.950 . S
H683 C712 0.950 . S
H684 C713 0.950 . S
H685 C715 0.950 . S
H686 C716 0.950 . S
C687 H669 0.951 . S
C687 C688 1.366 . S
C687 C689 1.388 . S
C688 C687 1.366 . S
C688 C692 1.385 . S
C689 H670 0.939 1_554 S
C689 C687 1.388 . S
C689 C690 1.366 . S
C690 C689 1.366 . S
C690 C691 1.414 . S
C690 C693 1.499 1_554 S
C691 H671 0.950 . S
C691 C690 1.414 . S
C691 C692 1.374 . S
C692 H672 0.950 . S
C692 C688 1.385 . S
C692 C691 1.374 . S
C693 C690 1.499 1_556 S
C693 C694 1.373 . S
C693 C695 1.389 . S
C694 H673 0.950 . S
C694 C693 1.373 . S
C694 C710 1.377 . S
C695 C693 1.389 . S
C695 C696 1.524 1_556 S
C695 C709 1.377 . S
C696 C695 1.524 1_554 S
C696 C697 1.397 . S
C696 C701 1.363 1_554 S
C697 H674 0.950 . S
C697 C696 1.397 . S
C697 C698 1.334 . S
C698 H675 0.950 . S
C698 C697 1.334 . S
C698 C699 1.287 . S
C699 C698 1.287 . S
C699 C700 1.524 . S
C699 H718 0.913 . S
C700 H676 0.950 . S
C700 C699 1.524 . S
C700 C701 1.415 1_554 S
C701 H677 0.950 . S
C701 C696 1.363 1_556 S
C701 C700 1.415 1_556 S
C702 H678 0.951 . S
C702 C703 1.366 . S
C702 C704 1.388 . S
C703 C702 1.366 . S
C703 C707 1.385 . S
C704 H679 0.951 . S
C704 C702 1.388 . S
C704 C705 1.366 . S
C705 C704 1.366 . S
C705 C706 1.414 . S
C705 C708 1.499 . S
C706 H680 0.950 . S
C706 C705 1.414 . S
C706 C707 1.374 . S
C707 H681 0.950 . S
C707 C703 1.385 . S
C707 C706 1.374 . S
C708 C705 1.499 . S
C708 C709 1.373 . S
C708 C710 1.389 . S
C709 H682 0.950 . S
C709 C695 1.377 . S
C709 C708 1.373 . S
C710 C694 1.377 . S
C710 C708 1.389 . S
C710 C711 1.524 . S
C711 C710 1.524 . S
C711 C712 1.397 . S
C711 C716 1.363 . S
C712 H683 0.950 . S
C712 C711 1.397 . S
C712 C713 1.334 . S
C713 H684 0.950 . S
C713 C712 1.334 . S
C713 C714 1.287 . S
C714 C713 1.287 . S
C714 C715 1.524 . S
C714 H717 0.999 . S
C715 H685 0.950 . S
C715 C714 1.524 . S
C715 C716 1.415 . S
C716 H686 0.950 . S
C716 C711 1.363 . S
C716 C715 1.415 . S
H717 C714 0.999 . S
H718 C699 0.913 . S
H719 C737 0.951 1_556 S
H720 C739 0.951 . S
H721 C741 0.950 . S
H722 C742 0.950 . S
H723 C744 0.950 . S
H724 C747 0.950 . S
H725 C748 0.950 . S
H726 C750 0.950 . S
H727 C751 0.950 . S
H728 C752 0.951 . S
H729 C754 0.951 . S
H730 C756 0.950 . S
H731 C757 0.950 . S
H732 C759 0.950 . S
H733 C762 0.950 . S
H734 C763 0.950 . S
H735 C765 0.950 . S
H736 C766 0.950 . S
C737 H719 0.951 1_554 S
C737 C738 1.366 . S
C737 C739 1.388 1_554 S
C738 C737 1.366 . S
C738 C742 1.385 . S
C739 H720 0.951 . S
C739 C737 1.388 1_556 S
C739 C740 1.366 . S
C740 C739 1.366 . S
C740 C741 1.414 1_556 S
C740 C743 1.499 . S
C741 H721 0.950 . S
C741 C740 1.414 1_554 S
C741 C742 1.374 . S
C742 H722 0.950 . S
C742 C738 1.385 . S
C742 C741 1.374 . S
C743 C740 1.499 . S
C743 C744 1.373 . S
C743 C745 1.389 . S
C744 H723 0.950 . S
C744 C743 1.373 . S
C744 C760 1.377 . S
C745 C743 1.389 . S
C745 C746 1.524 . S
C745 C759 1.377 . S
C746 C745 1.524 . S
C746 C747 1.397 1_556 S
C746 C751 1.363 . S
C747 H724 0.950 . S
C747 C746 1.397 1_554 S
C747 C748 1.334 . S
C748 H725 0.950 . S
C748 C747 1.334 . S
C748 C749 1.287 . S
C749 C748 1.287 . S
C749 C750 1.524 1_554 S
C749 H768 0.913 . S
C750 H726 0.950 . S
C750 C749 1.524 1_556 S
C750 C751 1.415 . S
C751 H727 0.950 . S
C751 C746 1.363 . S
C751 C750 1.415 . S
C752 H728 0.951 . S
C752 C753 1.366 . S
C752 C754 1.388 . S
C753 C752 1.366 . S
C753 C757 1.385 . S
C754 H729 0.951 . S
C754 C752 1.388 . S
C754 C755 1.366 . S
C755 C754 1.366 . S
C755 C756 1.414 . S
C755 C758 1.499 . S
C756 H730 0.950 . S
C756 C755 1.414 . S
C756 C757 1.374 . S
C757 H731 0.950 . S
C757 C753 1.385 . S
C757 C756 1.374 . S
C758 C755 1.499 . S
C758 C759 1.373 . S
C758 C760 1.389 . S
C759 H732 0.950 . S
C759 C745 1.377 . S
C759 C758 1.373 . S
C760 C744 1.377 . S
C760 C758 1.389 . S
C760 C761 1.524 . S
C761 C760 1.524 . S
C761 C762 1.397 . S
C761 C766 1.363 . S
C762 H733 0.950 . S
C762 C761 1.397 . S
C762 C763 1.334 . S
C763 H734 0.950 . S
C763 C762 1.334 . S
C763 C764 1.287 . S
C764 C763 1.287 . S
C764 C765 1.524 . S
C764 H767 0.999 . S
C765 H735 0.950 . S
C765 C764 1.524 . S
C765 C766 1.415 . S
C766 H736 0.950 . S
C766 C761 1.363 . S
C766 C765 1.415 . S
H767 C764 0.999 . S
H768 C749 0.913 . S
H769 C787 0.951 . S
H770 C789 0.951 . S
H771 C791 0.950 . S
H772 C792 0.950 . S
H773 C794 0.950 . S
H774 C797 0.950 . S
H775 C798 0.950 . S
H776 C800 0.950 . S
H777 C801 0.950 . S
H778 C802 0.951 . S
H779 C804 0.951 . S
H780 C806 0.950 . S
H781 C807 0.950 . S
H782 C809 0.950 . S
H783 C812 0.950 . S
H784 C813 0.950 . S
H785 C815 0.950 . S
H786 C816 0.950 . S
C787 H769 0.951 . S
C787 C788 1.366 1_556 S
C787 C789 1.388 . S
C788 C787 1.366 1_554 S
C788 C792 1.385 . S
C789 H770 0.951 . S
C789 C787 1.388 . S
C789 C790 1.366 . S
C790 C789 1.366 . S
C790 C791 1.414 1_556 S
C790 C793 1.499 . S
C791 H771 0.950 . S
C791 C790 1.414 1_554 S
C791 C792 1.374 . S
C792 H772 0.950 . S
C792 C788 1.385 . S
C792 C791 1.374 . S
C793 C790 1.499 . S
C793 C794 1.373 . S
C793 C795 1.389 . S
C794 H773 0.950 . S
C794 C793 1.373 . S
C794 C810 1.377 . S
C795 C793 1.389 . S
C795 C796 1.524 . S
C795 C809 1.377 . S
C796 C795 1.524 . S
C796 C797 1.397 . S
C796 C801 1.363 . S
C797 H774 0.950 . S
C797 C796 1.397 . S
C797 C798 1.334 . S
C798 H775 0.950 . S
C798 C797 1.334 . S
C798 C799 1.287 . S
C799 C798 1.287 . S
C799 C800 1.524 . S
C799 H818 0.913 . S
C800 H776 0.950 . S
C800 C799 1.524 . S
C800 C801 1.415 . S
C801 H777 0.950 . S
C801 C796 1.363 . S
C801 C800 1.415 . S
C802 H778 0.951 . S
C802 C803 1.366 . S
C802 C804 1.388 . S
C803 C802 1.366 . S
C803 C807 1.385 . S
C804 H779 0.951 . S
C804 C802 1.388 . S
C804 C805 1.366 . S
C805 C804 1.366 . S
C805 C806 1.414 . S
C805 C808 1.499 . S
C806 H780 0.950 . S
C806 C805 1.414 . S
C806 C807 1.374 . S
C807 H781 0.950 . S
C807 C803 1.385 . S
C807 C806 1.374 . S
C808 C805 1.499 . S
C808 C809 1.373 . S
C808 C810 1.389 . S
C809 H782 0.950 . S
C809 C795 1.377 . S
C809 C808 1.373 . S
C810 C794 1.377 . S
C810 C808 1.389 . S
C810 C811 1.524 . S
C811 C810 1.524 . S
C811 C812 1.397 . S
C811 C816 1.363 1_556 S
C812 H783 0.950 . S
C812 C811 1.397 . S
C812 C813 1.334 . S
C813 H784 0.950 . S
C813 C812 1.334 . S
C813 C814 1.287 . S
C814 C813 1.287 . S
C814 C815 1.524 1_556 S
C814 H817 0.999 . S
C815 H785 0.950 . S
C815 C814 1.524 1_554 S
C815 C816 1.415 . S
C816 H786 0.950 . S
C816 C811 1.363 1_554 S
C816 C815 1.415 . S
H817 C814 0.999 . S
H818 C799 0.913 . S
H819 C837 0.951 1_554 S
H820 C839 0.951 . S
H821 C841 0.950 . S
H822 C842 0.950 . S
H823 C844 0.950 . S
H824 C847 0.950 . S
H825 C848 0.950 . S
H826 C850 0.950 . S
H827 C851 0.950 . S
H828 C852 0.951 . S
H829 C854 0.951 . S
H830 C856 0.950 . S
H831 C857 0.950 . S
H832 C859 0.950 . S
H833 C862 0.950 . S
H834 C863 0.950 . S
H835 C865 0.950 . S
H836 C866 0.950 . S
C837 H819 0.951 1_556 S
C837 C838 1.366 . S
C837 C839 1.388 . S
C838 C837 1.366 . S
C838 C842 1.385 . S
C839 H820 0.951 . S
C839 C837 1.388 . S
C839 C840 1.366 . S
C840 C839 1.366 . S
C840 C841 1.414 . S
C840 C843 1.499 . S
C841 H821 0.950 . S
C841 C840 1.414 . S
C841 C842 1.374 . S
C842 H822 0.950 . S
C842 C838 1.385 . S
C842 C841 1.374 . S
C843 C840 1.499 . S
C843 C844 1.373 . S
C843 C845 1.389 . S
C844 H823 0.950 . S
C844 C843 1.373 . S
C844 C860 1.377 . S
C845 C843 1.389 . S
C845 C846 1.524 . S
C845 C859 1.377 . S
C846 C845 1.524 . S
C846 C847 1.397 . S
C846 C851 1.363 . S
C847 H824 0.950 . S
C847 C846 1.397 . S
C847 C848 1.334 . S
C848 H825 0.950 . S
C848 C847 1.334 . S
C848 C849 1.287 . S
C849 C848 1.287 . S
C849 C850 1.524 . S
C849 H868 0.913 . S
C850 H826 0.950 . S
C850 C849 1.524 . S
C850 C851 1.415 . S
C851 H827 0.950 . S
C851 C846 1.363 . S
C851 C850 1.415 . S
C852 H828 0.951 . S
C852 C853 1.366 . S
C852 C854 1.388 . S
C853 C852 1.366 . S
C853 C857 1.385 . S
C854 H829 0.951 . S
C854 C852 1.388 . S
C854 C855 1.366 . S
C855 C854 1.366 . S
C855 C856 1.414 . S
C855 C858 1.499 . S
C856 H830 0.950 . S
C856 C855 1.414 . S
C856 C857 1.374 . S
C857 H831 0.950 . S
C857 C853 1.385 . S
C857 C856 1.374 . S
C858 C855 1.499 . S
C858 C859 1.373 . S
C858 C860 1.389 . S
C859 H832 0.950 . S
C859 C845 1.377 . S
C859 C858 1.373 . S
C860 C844 1.377 . S
C860 C858 1.389 . S
C860 C861 1.524 . S
C861 C860 1.524 . S
C861 C862 1.397 . S
C861 C866 1.363 . S
C862 H833 0.950 . S
C862 C861 1.397 . S
C862 C863 1.334 . S
C863 H834 0.950 . S
C863 C862 1.334 . S
C863 C864 1.287 . S
C864 C863 1.287 . S
C864 C865 1.524 . S
C864 H867 0.999 . S
C865 H835 0.950 . S
C865 C864 1.524 . S
C865 C866 1.415 . S
C866 H836 0.950 . S
C866 C861 1.363 . S
C866 C865 1.415 . S
H867 C864 0.999 . S
H868 C849 0.913 . S
H869 C887 0.951 1_554 S
H870 C889 0.951 . S
H871 C891 0.950 . S
H872 C892 0.950 . S
H873 C894 0.950 . S
H874 C897 0.950 . S
H875 C898 0.950 . S
H876 C900 0.950 . S
H877 C901 0.964 . S
H878 C902 0.951 . S
H879 C904 0.951 . S
H880 C906 0.950 . S
H881 C907 0.950 . S
H882 C909 0.950 . S
H883 C912 0.950 . S
H884 C913 0.950 . S
H885 C915 0.950 . S
H886 C916 0.950 . S
C887 H869 0.951 1_556 S
C887 C888 1.366 . S
C887 C889 1.388 . S
C888 C887 1.366 . S
C888 C892 1.385 . S
C889 H870 0.951 . S
C889 C887 1.388 . S
C889 C890 1.366 . S
C890 C889 1.366 . S
C890 C891 1.414 . S
C890 C893 1.499 . S
C891 H871 0.950 . S
C891 C890 1.414 . S
C891 C892 1.374 . S
C892 H872 0.950 . S
C892 C888 1.385 . S
C892 C891 1.374 . S
C893 C890 1.499 . S
C893 C894 1.373 . S
C893 C895 1.389 . S
C894 H873 0.950 . S
C894 C893 1.373 . S
C894 C910 1.377 . S
C895 C893 1.389 . S
C895 C896 1.524 . S
C895 C909 1.377 . S
C896 C895 1.524 . S
C896 C897 1.397 1_556 S
C896 C901 1.367 . S
C897 H874 0.950 . S
C897 C896 1.397 1_554 S
C897 C898 1.334 . S
C898 H875 0.950 . S
C898 C897 1.334 . S
C898 C899 1.287 . S
C899 C898 1.287 . S
C899 C900 1.524 . S
C899 H918 0.913 . S
C900 H876 0.950 . S
C900 C899 1.524 . S
C900 C901 1.398 1_554 S
C901 H877 0.964 . S
C901 C896 1.367 . S
C901 C900 1.398 1_556 S
C902 H878 0.951 . S
C902 C903 1.366 . S
C902 C904 1.388 . S
C903 C902 1.366 . S
C903 C907 1.385 . S
C904 H879 0.951 . S
C904 C902 1.388 . S
C904 C905 1.366 . S
C905 C904 1.366 . S
C905 C906 1.414 . S
C905 C908 1.499 . S
C906 H880 0.950 . S
C906 C905 1.414 . S
C906 C907 1.374 . S
C907 H881 0.950 . S
C907 C903 1.385 . S
C907 C906 1.374 . S
C908 C905 1.499 . S
C908 C909 1.373 . S
C908 C910 1.389 . S
C909 H882 0.950 . S
C909 C895 1.377 . S
C909 C908 1.373 . S
C910 C894 1.377 . S
C910 C908 1.389 . S
C910 C911 1.524 . S
C911 C910 1.524 . S
C911 C912 1.397 . S
C911 C916 1.363 . S
C912 H883 0.950 . S
C912 C911 1.397 . S
C912 C913 1.334 . S
C913 H884 0.950 . S
C913 C912 1.334 . S
C913 C914 1.287 . S
C914 C913 1.287 . S
C914 C915 1.524 . S
C914 H917 0.999 . S
C915 H885 0.950 . S
C915 C914 1.524 . S
C915 C916 1.415 . S
C916 H886 0.950 . S
C916 C911 1.363 . S
C916 C915 1.415 . S
H917 C914 0.999 . S
H918 C899 0.913 . S
H919 C937 0.951 . S
H920 C939 0.951 . S
H921 C941 0.950 . S
H922 C942 0.950 . S
H923 C944 0.950 . S
H924 C947 0.950 . S
H925 C948 0.950 . S
H926 C950 0.950 . S
H927 C951 0.950 . S
H928 C952 0.951 . S
H929 C954 0.951 . S
H930 C956 0.950 . S
H931 C957 0.950 . S
H932 C959 0.950 . S
H933 C962 0.950 1_556 S
H934 C963 0.950 . S
H935 C965 0.950 . S
H936 C966 0.950 . S
C937 H919 0.951 . S
C937 C938 1.366 . S
C937 C939 1.388 . S
C938 C937 1.366 . S
C938 C942 1.385 . S
C939 H920 0.951 . S
C939 C937 1.388 . S
C939 C940 1.366 . S
C940 C939 1.366 . S
C940 C941 1.414 . S
C940 C943 1.499 1_554 S
C941 H921 0.950 . S
C941 C940 1.414 . S
C941 C942 1.374 . S
C942 H922 0.950 . S
C942 C938 1.385 . S
C942 C941 1.374 . S
C943 C940 1.499 1_556 S
C943 C944 1.373 1_556 S
C943 C945 1.389 . S
C944 H923 0.950 . S
C944 C943 1.373 1_554 S
C944 C960 1.377 1_554 S
C945 C943 1.389 . S
C945 C946 1.524 . S
C945 C959 1.377 . S
C946 C945 1.524 . S
C946 C947 1.397 . S
C946 C951 1.363 . S
C947 H924 0.950 . S
C947 C946 1.397 . S
C947 C948 1.334 . S
C948 H925 0.950 . S
C948 C947 1.334 . S
C948 C949 1.287 . S
C949 C948 1.287 . S
C949 C950 1.524 . S
C949 H968 0.913 . S
C950 H926 0.950 . S
C950 C949 1.524 . S
C950 C951 1.415 . S
C951 H927 0.950 . S
C951 C946 1.363 . S
C951 C950 1.415 . S
C952 H928 0.951 . S
C952 C953 1.366 . S
C952 C954 1.388 . S
C953 C952 1.366 . S
C953 C957 1.385 . S
C954 H929 0.951 . S
C954 C952 1.388 . S
C954 C955 1.366 . S
C955 C954 1.366 . S
C955 C956 1.414 . S
C955 C958 1.499 . S
C956 H930 0.950 . S
C956 C955 1.414 . S
C956 C957 1.374 . S
C957 H931 0.950 . S
C957 C953 1.385 . S
C957 C956 1.374 . S
C958 C955 1.499 . S
C958 C959 1.373 . S
C958 C960 1.389 . S
C959 H932 0.950 . S
C959 C945 1.377 . S
C959 C958 1.373 . S
C960 C944 1.377 1_556 S
C960 C958 1.389 . S
C960 C961 1.524 1_556 S
C961 C960 1.524 1_554 S
C961 C962 1.397 . S
C961 C966 1.363 . S
C962 H933 0.950 1_554 S
C962 C961 1.397 . S
C962 C963 1.334 . S
C963 H934 0.950 . S
C963 C962 1.334 . S
C963 C964 1.287 . S
C964 C963 1.287 . S
C964 C965 1.524 . S
C964 H967 0.999 . S
C965 H935 0.950 . S
C965 C964 1.524 . S
C965 C966 1.415 . S
C966 H936 0.950 . S
C966 C961 1.363 . S
C966 C965 1.415 . S
H967 C964 0.999 . S
H968 C949 0.913 . S
H969 C987 0.951 1_556 S
H970 C989 0.951 . S
H971 C991 0.950 . S
H972 C992 0.950 . S
H973 C994 0.950 1_554 S
H974 C997 0.950 . S
H975 C998 0.950 . S
H976 C1000 0.950 . S
H977 C1001 0.950 . S
H978 C1002 0.951 . S
H979 C1004 0.951 . S
H980 C1006 0.950 . S
H981 C1007 0.950 . S
H982 C1009 0.950 . S
H983 C1012 0.950 . S
H984 C1013 0.950 . S
H985 C1015 0.950 . S
H986 C1016 0.950 . S
C987 H969 0.951 1_554 S
C987 C988 1.366 . S
C987 C989 1.388 1_554 S
C988 C987 1.366 . S
C988 C992 1.385 . S
C989 H970 0.951 . S
C989 C987 1.388 1_556 S
C989 C990 1.366 . S
C990 C989 1.366 . S
C990 C991 1.414 1_556 S
C990 C993 1.499 . S
C991 H971 0.950 . S
C991 C990 1.414 1_554 S
C991 C992 1.374 . S
C992 H972 0.950 . S
C992 C988 1.385 . S
C992 C991 1.374 . S
C993 C990 1.499 . S
C993 C994 1.373 . S
C993 C995 1.389 . S
C994 H973 0.950 1_556 S
C994 C993 1.373 . S
C994 C1010 1.377 . S
C995 C993 1.389 . S
C995 C996 1.524 . S
C995 C1009 1.377 . S
C996 C995 1.524 . S
C996 C997 1.397 . S
C996 C1001 1.363 . S
C997 H974 0.950 . S
C997 C996 1.397 . S
C997 C998 1.334 . S
C998 H975 0.950 . S
C998 C997 1.334 . S
C998 C999 1.287 . S
C999 C998 1.287 . S
C999 C1000 1.524 . S
C999 H1018 0.913 . S
C1000 H976 0.950 . S
C1000 C999 1.524 . S
C1000 C1001 1.415 . S
C1001 H977 0.950 . S
C1001 C996 1.363 . S
C1001 C1000 1.415 . S
C1002 H978 0.951 . S
C1002 C1003 1.366 . S
C1002 C1004 1.388 . S
C1003 C1002 1.366 . S
C1003 C1007 1.385 . S
C1004 H979 0.951 . S
C1004 C1002 1.388 . S
C1004 C1005 1.366 . S
C1005 C1004 1.366 . S
C1005 C1006 1.414 . S
C1005 C1008 1.499 . S
C1006 H980 0.950 . S
C1006 C1005 1.414 . S
C1006 C1007 1.374 . S
C1007 H981 0.950 . S
C1007 C1003 1.385 . S
C1007 C1006 1.374 . S
C1008 C1005 1.499 . S
C1008 C1009 1.373 . S
C1008 C1010 1.389 . S
C1009 H982 0.950 . S
C1009 C995 1.377 . S
C1009 C1008 1.373 . S
C1010 C994 1.377 . S
C1010 C1008 1.389 . S
C1010 C1011 1.524 . S
C1011 C1010 1.524 . S
C1011 C1012 1.397 . S
C1011 C1016 1.363 1_556 S
C1012 H983 0.950 . S
C1012 C1011 1.397 . S
C1012 C1013 1.334 . S
C1013 H984 0.950 . S
C1013 C1012 1.334 . S
C1013 C1014 1.287 1_556 S
C1014 C1013 1.287 1_554 S
C1014 C1015 1.524 . S
C1014 H1017 0.999 . S
C1015 H985 0.950 . S
C1015 C1014 1.524 . S
C1015 C1016 1.415 . S
C1016 H986 0.950 . S
C1016 C1011 1.363 1_554 S
C1016 C1015 1.415 . S
H1017 C1014 0.999 . S
H1018 C999 0.913 . S
H1019 C1037 0.951 . S
H1020 C1039 0.951 . S
H1021 C1041 0.950 . S
H1022 C1042 0.950 1_554 S
H1023 C1044 0.950 . S
H1024 C1047 0.950 . S
H1025 C1048 0.950 . S
H1026 C1050 0.950 . S
H1027 C1051 0.950 . S
H1028 C1052 0.951 . S
H1029 C1054 0.951 . S
H1030 C1056 0.950 . S
H1031 C1057 0.950 . S
H1032 C1059 0.950 . S
H1033 C1062 0.950 . S
H1034 C1063 0.950 . S
H1035 C1065 0.950 . S
H1036 C1066 0.950 . S
C1037 H1019 0.951 . S
C1037 C1038 1.366 . S
C1037 C1039 1.388 1_554 S
C1038 C1037 1.366 . S
C1038 C1042 1.385 1_554 S
C1039 H1020 0.951 . S
C1039 C1037 1.388 1_556 S
C1039 C1040 1.366 . S
C1040 C1039 1.366 . S
C1040 C1041 1.414 . S
C1040 C1043 1.499 . S
C1041 H1021 0.950 . S
C1041 C1040 1.414 . S
C1041 C1042 1.374 . S
C1042 H1022 0.950 1_556 S
C1042 C1038 1.385 1_556 S
C1042 C1041 1.374 . S
C1043 C1040 1.499 . S
C1043 C1044 1.373 . S
C1043 C1045 1.389 . S
C1044 H1023 0.950 . S
C1044 C1043 1.373 . S
C1044 C1060 1.377 . S
C1045 C1043 1.389 . S
C1045 C1046 1.524 . S
C1045 C1059 1.377 . S
C1046 C1045 1.524 . S
C1046 C1047 1.397 . S
C1046 C1051 1.363 . S
C1047 H1024 0.950 . S
C1047 C1046 1.397 . S
C1047 C1048 1.334 . S
C1048 H1025 0.950 . S
C1048 C1047 1.334 . S
C1048 C1049 1.287 . S
C1049 C1048 1.287 . S
C1049 C1050 1.524 . S
C1049 H1068 0.913 . S
C1050 H1026 0.950 . S
C1050 C1049 1.524 . S
C1050 C1051 1.415 . S
C1051 H1027 0.950 . S
C1051 C1046 1.363 . S
C1051 C1050 1.415 . S
C1052 H1028 0.951 . S
C1052 C1053 1.366 . S
C1052 C1054 1.388 . S
C1053 C1052 1.366 . S
C1053 C1057 1.385 . S
C1054 H1029 0.951 . S
C1054 C1052 1.388 . S
C1054 C1055 1.366 . S
C1055 C1054 1.366 . S
C1055 C1056 1.414 . S
C1055 C1058 1.499 . S
C1056 H1030 0.950 . S
C1056 C1055 1.414 . S
C1056 C1057 1.374 . S
C1057 H1031 0.950 . S
C1057 C1053 1.385 . S
C1057 C1056 1.374 . S
C1058 C1055 1.499 . S
C1058 C1059 1.373 . S
C1058 C1060 1.389 . S
C1059 H1032 0.950 . S
C1059 C1045 1.377 . S
C1059 C1058 1.373 . S
C1060 C1044 1.377 . S
C1060 C1058 1.389 . S
C1060 C1061 1.524 . S
C1061 C1060 1.524 . S
C1061 C1062 1.397 . S
C1061 C1066 1.363 . S
C1062 H1033 0.950 . S
C1062 C1061 1.397 . S
C1062 C1063 1.334 . S
C1063 H1034 0.950 . S
C1063 C1062 1.334 . S
C1063 C1064 1.287 . S
C1064 C1063 1.287 . S
C1064 C1065 1.524 . S
C1064 H1067 0.999 . S
C1065 H1035 0.950 . S
C1065 C1064 1.524 . S
C1065 C1066 1.415 . S
C1066 H1036 0.950 . S
C1066 C1061 1.363 . S
C1066 C1065 1.415 . S
H1067 C1064 0.999 . S
H1068 C1049 0.913 . S
H1069 C1087 0.951 . S
H1070 C1089 0.951 . S
H1071 C1091 0.950 . S
H1072 C1092 0.950 . S
H1073 C1094 0.950 . S
H1074 C1097 0.950 . S
H1075 C1098 0.950 . S
H1076 C1100 0.950 . S
H1077 C1101 0.950 . S
H1078 C1102 0.951 . S
H1079 C1104 0.951 . S
H1080 C1106 0.950 . S
H1081 C1107 0.950 . S
H1082 C1109 0.950 . S
H1083 C1112 0.950 . S
H1084 C1113 0.950 . S
H1085 C1115 0.950 . S
H1086 C1116 0.950 . S
C1087 H1069 0.951 . S
C1087 C1088 1.366 . S
C1087 C1089 1.388 . S
C1088 C1087 1.366 . S
C1088 C1092 1.385 . S
C1089 H1070 0.951 . S
C1089 C1087 1.388 . S
C1089 C1090 1.366 . S
C1090 C1089 1.366 . S
C1090 C1091 1.414 . S
C1090 C1093 1.499 . S
C1091 H1071 0.950 . S
C1091 C1090 1.414 . S
C1091 C1092 1.374 . S
C1092 H1072 0.950 . S
C1092 C1088 1.385 . S
C1092 C1091 1.374 . S
C1093 C1090 1.499 . S
C1093 C1094 1.373 . S
C1093 C1095 1.389 . S
C1094 H1073 0.950 . S
C1094 C1093 1.373 . S
C1094 C1110 1.377 . S
C1095 C1093 1.389 . S
C1095 C1096 1.524 . S
C1095 C1109 1.377 . S
C1096 C1095 1.524 . S
C1096 C1097 1.397 . S
C1096 C1101 1.363 . S
C1097 H1074 0.950 . S
C1097 C1096 1.397 . S
C1097 C1098 1.334 . S
C1098 H1075 0.950 . S
C1098 C1097 1.334 . S
C1098 C1099 1.287 . S
C1099 C1098 1.287 . S
C1099 C1100 1.524 . S
C1099 H1118 0.913 . S
C1100 H1076 0.950 . S
C1100 C1099 1.524 . S
C1100 C1101 1.415 . S
C1101 H1077 0.950 . S
C1101 C1096 1.363 . S
C1101 C1100 1.415 . S
C1102 H1078 0.951 . S
C1102 C1103 1.366 . S
C1102 C1104 1.388 . S
C1103 C1102 1.366 . S
C1103 C1107 1.385 . S
C1104 H1079 0.951 . S
C1104 C1102 1.388 . S
C1104 C1105 1.366 . S
C1105 C1104 1.366 . S
C1105 C1106 1.414 . S
C1105 C1108 1.499 . S
C1106 H1080 0.950 . S
C1106 C1105 1.414 . S
C1106 C1107 1.374 . S
C1107 H1081 0.950 . S
C1107 C1103 1.385 . S
C1107 C1106 1.374 . S
C1108 C1105 1.499 . S
C1108 C1109 1.373 . S
C1108 C1110 1.389 . S
C1109 H1082 0.950 . S
C1109 C1095 1.377 . S
C1109 C1108 1.373 . S
C1110 C1094 1.377 . S
C1110 C1108 1.389 . S
C1110 C1111 1.524 . S
C1111 C1110 1.524 . S
C1111 C1112 1.397 . S
C1111 C1116 1.363 . S
C1112 H1083 0.950 . S
C1112 C1111 1.397 . S
C1112 C1113 1.334 . S
C1113 H1084 0.950 . S
C1113 C1112 1.334 . S
C1113 C1114 1.287 . S
C1114 C1113 1.287 . S
C1114 C1115 1.524 . S
C1114 H1117 0.999 . S
C1115 H1085 0.950 . S
C1115 C1114 1.524 . S
C1115 C1116 1.415 . S
C1116 H1086 0.950 . S
C1116 C1111 1.363 . S
C1116 C1115 1.415 . S
H1117 C1114 0.999 . S
H1118 C1099 0.913 . S
H1119 C1137 0.951 . S
H1120 C1139 0.951 . S
H1121 C1141 0.950 . S
H1122 C1142 0.950 . S
H1123 C1144 0.950 . S
H1124 C1147 0.950 . S
H1125 C1148 0.950 . S
H1126 C1150 0.950 . S
H1127 C1151 0.950 . S
H1128 C1152 0.951 . S
H1129 C1154 0.951 . S
H1130 C1156 0.950 . S
H1131 C1157 0.950 . S
H1132 C1159 0.950 . S
H1133 C1162 0.950 . S
H1134 C1163 0.950 . S
H1135 C1165 0.950 . S
H1136 C1166 0.950 . S
C1137 H1119 0.951 . S
C1137 C1138 1.366 . S
C1137 C1139 1.388 . S
C1138 C1137 1.366 . S
C1138 C1142 1.385 . S
C1139 H1120 0.951 . S
C1139 C1137 1.388 . S
C1139 C1140 1.366 . S
C1140 C1139 1.366 . S
C1140 C1141 1.414 . S
C1140 C1143 1.499 . S
C1141 H1121 0.950 . S
C1141 C1140 1.414 . S
C1141 C1142 1.374 . S
C1142 H1122 0.950 . S
C1142 C1138 1.385 . S
C1142 C1141 1.374 . S
C1143 C1140 1.499 . S
C1143 C1144 1.373 . S
C1143 C1145 1.389 . S
C1144 H1123 0.950 . S
C1144 C1143 1.373 . S
C1144 C1160 1.377 . S
C1145 C1143 1.389 . S
C1145 C1146 1.524 . S
C1145 C1159 1.377 . S
C1146 C1145 1.524 . S
C1146 C1147 1.397 . S
C1146 C1151 1.363 . S
C1147 H1124 0.950 . S
C1147 C1146 1.397 . S
C1147 C1148 1.334 . S
C1148 H1125 0.950 . S
C1148 C1147 1.334 . S
C1148 C1149 1.287 . S
C1149 C1148 1.287 . S
C1149 C1150 1.524 . S
C1149 H1168 0.913 . S
C1150 H1126 0.950 . S
C1150 C1149 1.524 . S
C1150 C1151 1.415 . S
C1151 H1127 0.950 . S
C1151 C1146 1.363 . S
C1151 C1150 1.415 . S
C1152 H1128 0.951 . S
C1152 C1153 1.366 . S
C1152 C1154 1.388 . S
C1153 C1152 1.366 . S
C1153 C1157 1.385 . S
C1154 H1129 0.951 . S
C1154 C1152 1.388 . S
C1154 C1155 1.366 . S
C1155 C1154 1.366 . S
C1155 C1156 1.414 . S
C1155 C1158 1.499 . S
C1156 H1130 0.950 . S
C1156 C1155 1.414 . S
C1156 C1157 1.374 . S
C1157 H1131 0.950 . S
C1157 C1153 1.385 . S
C1157 C1156 1.374 . S
C1158 C1155 1.499 . S
C1158 C1159 1.373 . S
C1158 C1160 1.389 . S
C1159 H1132 0.950 . S
C1159 C1145 1.377 . S
C1159 C1158 1.373 . S
C1160 C1144 1.377 . S
C1160 C1158 1.389 . S
C1160 C1161 1.524 . S
C1161 C1160 1.524 . S
C1161 C1162 1.397 . S
C1161 C1166 1.363 . S
C1162 H1133 0.950 . S
C1162 C1161 1.397 . S
C1162 C1163 1.334 . S
C1163 H1134 0.950 . S
C1163 C1162 1.334 . S
C1163 C1164 1.287 . S
C1164 C1163 1.287 . S
C1164 C1165 1.524 . S
C1164 H1167 0.999 . S
C1165 H1135 0.950 . S
C1165 C1164 1.524 . S
C1165 C1166 1.415 . S
C1166 H1136 0.950 . S
C1166 C1161 1.363 . S
C1166 C1165 1.415 . S
H1167 C1164 0.999 . S
H1168 C1149 0.913 . S
H1169 C1187 0.951 . S
H1170 C1189 0.951 . S
H1171 C1191 0.950 . S
H1172 C1192 0.950 . S
H1173 C1194 0.950 . S
H1174 C1197 0.950 . S
H1175 C1198 0.950 . S
H1176 C1200 0.950 . S
H1177 C1201 0.950 . S
H1178 C1202 0.951 . S
H1179 C1204 0.951 . S
H1180 C1206 0.950 . S
H1181 C1207 0.950 . S
H1182 C1209 0.950 . S
H1183 C1212 0.950 . S
H1184 C1213 0.950 . S
H1185 C1215 0.950 . S
H1186 C1216 0.950 . S
C1187 H1169 0.951 . S
C1187 C1188 1.366 . S
C1187 C1189 1.388 . S
C1188 C1187 1.366 . S
C1188 C1192 1.385 . S
C1189 H1170 0.951 . S
C1189 C1187 1.388 . S
C1189 C1190 1.366 . S
C1190 C1189 1.366 . S
C1190 C1191 1.414 . S
C1190 C1193 1.499 . S
C1191 H1171 0.950 . S
C1191 C1190 1.414 . S
C1191 C1192 1.374 . S
C1192 H1172 0.950 . S
C1192 C1188 1.385 . S
C1192 C1191 1.374 . S
C1193 C1190 1.499 . S
C1193 C1194 1.373 . S
C1193 C1195 1.389 . S
C1194 H1173 0.950 . S
C1194 C1193 1.373 . S
C1194 C1210 1.377 . S
C1195 C1193 1.389 . S
C1195 C1196 1.524 . S
C1195 C1209 1.377 . S
C1196 C1195 1.524 . S
C1196 C1197 1.397 . S
C1196 C1201 1.363 . S
C1197 H1174 0.950 . S
C1197 C1196 1.397 . S
C1197 C1198 1.334 . S
C1198 H1175 0.950 . S
C1198 C1197 1.334 . S
C1198 C1199 1.287 . S
C1199 C1198 1.287 . S
C1199 C1200 1.524 . S
C1199 H1218 0.913 . S
C1200 H1176 0.950 . S
C1200 C1199 1.524 . S
C1200 C1201 1.415 . S
C1201 H1177 0.950 . S
C1201 C1196 1.363 . S
C1201 C1200 1.415 . S
C1202 H1178 0.951 . S
C1202 C1203 1.366 . S
C1202 C1204 1.388 . S
C1203 C1202 1.366 . S
C1203 C1207 1.385 . S
C1204 H1179 0.951 . S
C1204 C1202 1.388 . S
C1204 C1205 1.366 . S
C1205 C1204 1.366 . S
C1205 C1206 1.414 . S
C1205 C1208 1.499 . S
C1206 H1180 0.950 . S
C1206 C1205 1.414 . S
C1206 C1207 1.374 . S
C1207 H1181 0.950 . S
C1207 C1203 1.385 . S
C1207 C1206 1.374 . S
C1208 C1205 1.499 . S
C1208 C1209 1.373 . S
C1208 C1210 1.389 . S
C1209 H1182 0.950 . S
C1209 C1195 1.377 . S
C1209 C1208 1.373 . S
C1210 C1194 1.377 . S
C1210 C1208 1.389 . S
C1210 C1211 1.524 . S
C1211 C1210 1.524 . S
C1211 C1212 1.397 . S
C1211 C1216 1.363 . S
C1212 H1183 0.950 . S
C1212 C1211 1.397 . S
C1212 C1213 1.334 . S
C1213 H1184 0.950 . S
C1213 C1212 1.334 . S
C1213 C1214 1.287 . S
C1214 C1213 1.287 . S
C1214 C1215 1.524 . S
C1214 H1217 0.999 . S
C1215 H1185 0.950 . S
C1215 C1214 1.524 . S
C1215 C1216 1.415 . S
C1216 H1186 0.950 . S
C1216 C1211 1.363 . S
C1216 C1215 1.415 . S
H1217 C1214 0.999 . S
H1218 C1199 0.913 . S
H1219 C1237 0.951 . S
H1220 C1239 0.951 . S
H1221 C1241 0.950 . S
H1222 C1242 0.950 . S
H1223 C1244 0.950 . S
H1224 C1247 0.950 . S
H1225 C1248 0.950 . S
H1226 C1250 0.950 . S
H1227 C1251 0.950 . S
H1228 C1252 0.951 . S
H1229 C1254 0.951 . S
H1230 C1256 0.950 . S
H1231 C1257 0.950 . S
H1232 C1259 0.950 . S
H1233 C1262 0.950 . S
H1234 C1263 0.950 . S
H1235 C1265 0.950 . S
H1236 C1266 0.950 . S
C1237 H1219 0.951 . S
C1237 C1238 1.366 . S
C1237 C1239 1.388 . S
C1238 C1237 1.366 . S
C1238 C1242 1.385 . S
C1239 H1220 0.951 . S
C1239 C1237 1.388 . S
C1239 C1240 1.366 . S
C1240 C1239 1.366 . S
C1240 C1241 1.414 . S
C1240 C1243 1.499 . S
C1241 H1221 0.950 . S
C1241 C1240 1.414 . S
C1241 C1242 1.374 . S
C1242 H1222 0.950 . S
C1242 C1238 1.385 . S
C1242 C1241 1.374 . S
C1243 C1240 1.499 . S
C1243 C1244 1.373 . S
C1243 C1245 1.389 . S
C1244 H1223 0.950 . S
C1244 C1243 1.373 . S
C1244 C1260 1.377 . S
C1245 C1243 1.389 . S
C1245 C1246 1.524 . S
C1245 C1259 1.377 . S
C1246 C1245 1.524 . S
C1246 C1247 1.397 . S
C1246 C1251 1.363 . S
C1247 H1224 0.950 . S
C1247 C1246 1.397 . S
C1247 C1248 1.334 . S
C1248 H1225 0.950 . S
C1248 C1247 1.334 . S
C1248 C1249 1.287 . S
C1249 C1248 1.287 . S
C1249 C1250 1.524 . S
C1249 H1268 0.913 . S
C1250 H1226 0.950 . S
C1250 C1249 1.524 . S
C1250 C1251 1.415 . S
C1251 H1227 0.950 . S
C1251 C1246 1.363 . S
C1251 C1250 1.415 . S
C1252 H1228 0.951 . S
C1252 C1253 1.366 . S
C1252 C1254 1.388 . S
C1253 C1252 1.366 . S
C1253 C1257 1.385 . S
C1254 H1229 0.951 . S
C1254 C1252 1.388 . S
C1254 C1255 1.366 . S
C1255 C1254 1.366 . S
C1255 C1256 1.414 . S
C1255 C1258 1.499 . S
C1256 H1230 0.950 . S
C1256 C1255 1.414 . S
C1256 C1257 1.374 . S
C1257 H1231 0.950 . S
C1257 C1253 1.385 . S
C1257 C1256 1.374 . S
C1258 C1255 1.499 . S
C1258 C1259 1.373 . S
C1258 C1260 1.389 . S
C1259 H1232 0.950 . S
C1259 C1245 1.377 . S
C1259 C1258 1.373 . S
C1260 C1244 1.377 . S
C1260 C1258 1.389 . S
C1260 C1261 1.524 . S
C1261 C1260 1.524 . S
C1261 C1262 1.397 . S
C1261 C1266 1.363 . S
C1262 H1233 0.950 . S
C1262 C1261 1.397 . S
C1262 C1263 1.334 . S
C1263 H1234 0.950 . S
C1263 C1262 1.334 . S
C1263 C1264 1.287 . S
C1264 C1263 1.287 . S
C1264 C1265 1.524 . S
C1264 H1267 0.999 . S
C1265 H1235 0.950 . S
C1265 C1264 1.524 . S
C1265 C1266 1.415 . S
C1266 H1236 0.950 . S
C1266 C1261 1.363 . S
C1266 C1265 1.415 . S
H1267 C1264 0.999 . S
H1268 C1249 0.913 . S
H1269 C1287 0.951 . S
H1270 C1289 0.951 . S
H1271 C1291 0.950 . S
H1272 C1292 0.950 . S
H1273 C1294 0.950 . S
H1274 C1297 0.950 . S
H1275 C1298 0.950 . S
H1276 C1300 0.950 . S
H1277 C1301 0.950 . S
H1278 C1302 0.951 . S
H1279 C1304 0.951 . S
H1280 C1306 0.950 . S
H1281 C1307 0.950 . S
H1282 C1309 0.950 . S
H1283 C1312 0.950 . S
H1284 C1313 0.950 . S
H1285 C1315 0.950 . S
H1286 C1316 0.950 . S
C1287 H1269 0.951 . S
C1287 C1288 1.366 . S
C1287 C1289 1.388 . S
C1288 C1287 1.366 . S
C1288 C1292 1.385 . S
C1289 H1270 0.951 . S
C1289 C1287 1.388 . S
C1289 C1290 1.366 . S
C1290 C1289 1.366 . S
C1290 C1291 1.414 . S
C1290 C1293 1.499 . S
C1291 H1271 0.950 . S
C1291 C1290 1.414 . S
C1291 C1292 1.374 . S
C1292 H1272 0.950 . S
C1292 C1288 1.385 . S
C1292 C1291 1.374 . S
C1293 C1290 1.499 . S
C1293 C1294 1.373 . S
C1293 C1295 1.389 . S
C1294 H1273 0.950 . S
C1294 C1293 1.373 . S
C1294 C1310 1.377 . S
C1295 C1293 1.389 . S
C1295 C1296 1.524 . S
C1295 C1309 1.377 . S
C1296 C1295 1.524 . S
C1296 C1297 1.397 . S
C1296 C1301 1.363 . S
C1297 H1274 0.950 . S
C1297 C1296 1.397 . S
C1297 C1298 1.334 . S
C1298 H1275 0.950 . S
C1298 C1297 1.334 . S
C1298 C1299 1.287 . S
C1299 C1298 1.287 . S
C1299 C1300 1.524 . S
C1299 H1318 0.913 . S
C1300 H1276 0.950 . S
C1300 C1299 1.524 . S
C1300 C1301 1.415 . S
C1301 H1277 0.950 . S
C1301 C1296 1.363 . S
C1301 C1300 1.415 . S
C1302 H1278 0.951 . S
C1302 C1303 1.366 . S
C1302 C1304 1.388 . S
C1303 C1302 1.366 . S
C1303 C1307 1.385 . S
C1304 H1279 0.951 . S
C1304 C1302 1.388 . S
C1304 C1305 1.366 . S
C1305 C1304 1.366 . S
C1305 C1306 1.414 . S
C1305 C1308 1.499 . S
C1306 H1280 0.950 . S
C1306 C1305 1.414 . S
C1306 C1307 1.374 . S
C1307 H1281 0.950 . S
C1307 C1303 1.385 . S
C1307 C1306 1.374 . S
C1308 C1305 1.499 . S
C1308 C1309 1.373 . S
C1308 C1310 1.389 . S
C1309 H1282 0.950 . S
C1309 C1295 1.377 . S
C1309 C1308 1.373 . S
C1310 C1294 1.377 . S
C1310 C1308 1.389 . S
C1310 C1311 1.524 . S
C1311 C1310 1.524 . S
C1311 C1312 1.397 . S
C1311 C1316 1.363 . S
C1312 H1283 0.950 . S
C1312 C1311 1.397 . S
C1312 C1313 1.334 . S
C1313 H1284 0.950 . S
C1313 C1312 1.334 . S
C1313 C1314 1.287 . S
C1314 C1313 1.287 . S
C1314 C1315 1.524 . S
C1314 H1317 0.999 . S
C1315 H1285 0.950 . S
C1315 C1314 1.524 . S
C1315 C1316 1.415 . S
C1316 H1286 0.950 . S
C1316 C1311 1.363 . S
C1316 C1315 1.415 . S
H1317 C1314 0.999 . S
H1318 C1299 0.913 . S
H1319 C1337 0.951 . S
H1320 C1339 0.951 . S
H1321 C1341 0.950 . S
H1322 C1342 0.950 . S
H1323 C1344 0.950 . S
H1324 C1347 0.950 . S
H1325 C1348 0.950 . S
H1326 C1350 0.950 . S
H1327 C1351 0.950 . S
H1328 C1352 0.951 . S
H1329 C1354 0.951 . S
H1330 C1356 0.950 . S
H1331 C1357 0.950 . S
H1332 C1359 0.950 . S
H1333 C1362 0.950 . S
H1334 C1363 0.950 . S
H1335 C1365 0.950 . S
H1336 C1366 0.950 . S
C1337 H1319 0.951 . S
C1337 C1338 1.366 . S
C1337 C1339 1.388 . S
C1338 C1337 1.366 . S
C1338 C1342 1.385 . S
C1339 H1320 0.951 . S
C1339 C1337 1.388 . S
C1339 C1340 1.366 . S
C1340 C1339 1.366 . S
C1340 C1341 1.414 . S
C1340 C1343 1.499 . S
C1341 H1321 0.950 . S
C1341 C1340 1.414 . S
C1341 C1342 1.374 . S
C1342 H1322 0.950 . S
C1342 C1338 1.385 . S
C1342 C1341 1.374 . S
C1343 C1340 1.499 . S
C1343 C1344 1.373 . S
C1343 C1345 1.389 . S
C1344 H1323 0.950 . S
C1344 C1343 1.373 . S
C1344 C1360 1.377 . S
C1345 C1343 1.389 . S
C1345 C1346 1.524 . S
C1345 C1359 1.377 . S
C1346 C1345 1.524 . S
C1346 C1347 1.397 . S
C1346 C1351 1.363 . S
C1347 H1324 0.950 . S
C1347 C1346 1.397 . S
C1347 C1348 1.334 . S
C1348 H1325 0.950 . S
C1348 C1347 1.334 . S
C1348 C1349 1.287 . S
C1349 C1348 1.287 . S
C1349 C1350 1.524 . S
C1349 H1368 0.913 . S
C1350 H1326 0.950 . S
C1350 C1349 1.524 . S
C1350 C1351 1.415 . S
C1351 H1327 0.950 . S
C1351 C1346 1.363 . S
C1351 C1350 1.415 . S
C1352 H1328 0.951 . S
C1352 C1353 1.366 . S
C1352 C1354 1.388 . S
C1353 C1352 1.366 . S
C1353 C1357 1.385 . S
C1354 H1329 0.951 . S
C1354 C1352 1.388 . S
C1354 C1355 1.366 . S
C1355 C1354 1.366 . S
C1355 C1356 1.414 . S
C1355 C1358 1.499 . S
C1356 H1330 0.950 . S
C1356 C1355 1.414 . S
C1356 C1357 1.374 . S
C1357 H1331 0.950 . S
C1357 C1353 1.385 . S
C1357 C1356 1.374 . S
C1358 C1355 1.499 . S
C1358 C1359 1.373 . S
C1358 C1360 1.389 . S
C1359 H1332 0.950 . S
C1359 C1345 1.377 . S
C1359 C1358 1.373 . S
C1360 C1344 1.377 . S
C1360 C1358 1.389 . S
C1360 C1361 1.524 . S
C1361 C1360 1.524 . S
C1361 C1362 1.397 . S
C1361 C1366 1.363 . S
C1362 H1333 0.950 . S
C1362 C1361 1.397 . S
C1362 C1363 1.334 . S
C1363 H1334 0.950 . S
C1363 C1362 1.334 . S
C1363 C1364 1.287 . S
C1364 C1363 1.287 . S
C1364 C1365 1.524 . S
C1364 H1367 0.999 . S
C1365 H1335 0.950 . S
C1365 C1364 1.524 . S
C1365 C1366 1.415 . S
C1366 H1336 0.950 . S
C1366 C1361 1.363 . S
C1366 C1365 1.415 . S
H1367 C1364 0.999 . S
H1368 C1349 0.913 . S
H1369 C1387 0.951 . S
H1370 C1389 0.951 . S
H1371 C1391 0.950 . S
H1372 C1392 0.950 . S
H1373 C1394 0.950 . S
H1374 C1397 0.950 . S
H1375 C1398 0.950 . S
H1376 C1400 0.950 . S
H1377 C1401 0.950 . S
H1378 C1402 0.951 . S
H1379 C1404 0.951 . S
H1380 C1406 0.950 . S
H1381 C1407 0.950 . S
H1382 C1409 0.950 . S
H1383 C1412 0.950 . S
H1384 C1413 0.950 . S
H1385 C1415 0.950 . S
H1386 C1416 0.950 . S
C1387 H1369 0.951 . S
C1387 C1388 1.366 . S
C1387 C1389 1.388 . S
C1388 C1387 1.366 . S
C1388 C1392 1.385 . S
C1389 H1370 0.951 . S
C1389 C1387 1.388 . S
C1389 C1390 1.366 . S
C1390 C1389 1.366 . S
C1390 C1391 1.414 . S
C1390 C1393 1.499 . S
C1391 H1371 0.950 . S
C1391 C1390 1.414 . S
C1391 C1392 1.374 . S
C1392 H1372 0.950 . S
C1392 C1388 1.385 . S
C1392 C1391 1.374 . S
C1393 C1390 1.499 . S
C1393 C1394 1.373 . S
C1393 C1395 1.389 . S
C1394 H1373 0.950 . S
C1394 C1393 1.373 . S
C1394 C1410 1.377 . S
C1395 C1393 1.389 . S
C1395 C1396 1.524 . S
C1395 C1409 1.377 . S
C1396 C1395 1.524 . S
C1396 C1397 1.397 . S
C1396 C1401 1.363 . S
C1397 H1374 0.950 . S
C1397 C1396 1.397 . S
C1397 C1398 1.334 . S
C1398 H1375 0.950 . S
C1398 C1397 1.334 . S
C1398 C1399 1.287 . S
C1399 C1398 1.287 . S
C1399 C1400 1.524 . S
C1399 H1418 0.913 . S
C1400 H1376 0.950 . S
C1400 C1399 1.524 . S
C1400 C1401 1.415 . S
C1401 H1377 0.950 . S
C1401 C1396 1.363 . S
C1401 C1400 1.415 . S
C1402 H1378 0.951 . S
C1402 C1403 1.366 . S
C1402 C1404 1.388 . S
C1403 C1402 1.366 . S
C1403 C1407 1.385 . S
C1404 H1379 0.951 . S
C1404 C1402 1.388 . S
C1404 C1405 1.366 . S
C1405 C1404 1.366 . S
C1405 C1406 1.414 . S
C1405 C1408 1.499 . S
C1406 H1380 0.950 . S
C1406 C1405 1.414 . S
C1406 C1407 1.374 . S
C1407 H1381 0.950 . S
C1407 C1403 1.385 . S
C1407 C1406 1.374 . S
C1408 C1405 1.499 . S
C1408 C1409 1.373 . S
C1408 C1410 1.389 . S
C1409 H1382 0.950 . S
C1409 C1395 1.377 . S
C1409 C1408 1.373 . S
C1410 C1394 1.377 . S
C1410 C1408 1.389 . S
C1410 C1411 1.524 . S
C1411 C1410 1.524 . S
C1411 C1412 1.397 . S
C1411 C1416 1.363 . S
C1412 H1383 0.950 . S
C1412 C1411 1.397 . S
C1412 C1413 1.334 . S
C1413 H1384 0.950 . S
C1413 C1412 1.334 . S
C1413 C1414 1.287 . S
C1414 C1413 1.287 . S
C1414 C1415 1.524 . S
C1414 H1417 0.999 . S
C1415 H1385 0.950 . S
C1415 C1414 1.524 . S
C1415 C1416 1.415 . S
C1416 H1386 0.950 . S
C1416 C1411 1.363 . S
C1416 C1415 1.415 . S
H1417 C1414 0.999 . S
H1418 C1399 0.913 . S
C238 C12 1.760 . S
C253 C137 1.865 . S
C288 C40 1.653 . S
C303 C184 1.678 . S
C353 C188 1.900 . S
C338 C61 1.921 . S
C403 C153 1.568 . S
C388 C82 1.569 . S
C438 C96 1.687 . S
C453 C168 1.761 . S
C503 C190 1.025 . S
C488 C117 0.971 . S
C553 C159 1.476 . S
C538 C51 1.464 . S
C588 C72 1.402 1_556 S
C603 C199 1.409 . S
C653 C128 1.345 . S
C638 C101 1.292 1_556 S
C688 C122 1.459 . S
C703 C157 1.507 . S
C738 C17 1.942 . S
C753 C215 2.008 . S
C803 C126 1.595 . S
C788 C30 1.583 . S
C853 C144 1.849 . S
C838 C80 1.836 1_556 S
C903 C158 1.677 . S
C888 C93 1.603 1_556 S
C953 C212 1.898 . S
C938 C114 1.861 . S
C1003 C127 1.566 . S
C988 C9 1.519 . S
C1053 C175 1.744 . S
C1038 C38 1.761 . S
C1088 C59 0.996 . S
C1103 C198 1.015 . S
C1153 C167 1.447 . S
C1138 C124 1.402 . S
C1203 C206 1.371 . S
C1188 C19 1.327 . S
C1253 C136 1.317 . S
C1238 C33 1.320 . S
C1303 C181 1.489 . S
C1288 C54 1.476 . S
C1338 C75 1.965 . S
C1353 C189 1.988 . S
C1388 C103 1.521 . S
C1403 C150 1.566 . S
