# Generated by pormake.
# Topology pts, (4,4)-cn, num edge types: 1
# Building blocks:
#     Node 0, Type 0, BuildingBlock: GIZVER_clean_linker_0, # of connection points: 4
#     Node 1, Type 0, BuildingBlock: GIZVER_clean_linker_0, # of connection points: 4
#     Node 2, Type 1, BuildingBlock: UXUYUI_clean_sbu_0, # of connection points: 4
#     Node 3, Type 1, BuildingBlock: UXUYUI_clean_sbu_0, # of connection points: 4
#     Edge 4, Type (0, 1), BuildingBlock: ZUJKAS_clean_linker_0, # of connection points: 2
#     Edge 5, Type (0, 1), BuildingBlock: ZUJKAS_clean_linker_0, # of connection points: 2
#     Edge 6, Type (0, 1), BuildingBlock: ZUJKAS_clean_linker_0, # of connection points: 2
#     Edge 7, Type (0, 1), BuildingBlock: ZUJKAS_clean_linker_0, # of connection points: 2
#     Edge 8, Type (0, 1), BuildingBlock: ZUJKAS_clean_linker_0, # of connection points: 2
#     Edge 9, Type (0, 1), BuildingBlock: ZUJKAS_clean_linker_0, # of connection points: 2
#     Edge 10, Type (0, 1), BuildingBlock: ZUJKAS_clean_linker_0, # of connection points: 2
#     Edge 11, Type (0, 1), BuildingBlock: ZUJKAS_clean_linker_0, # of connection points: 2
# Relax obj value: 0.010
# Max RMSD: 0.058
# Mean RMSD: 0.057
data_MOF--net-pts--node1-UXUYUI_clean_sbu_0--node2-GIZVER_clean_linker_0--edge1-ZUJKAS_clean_linker_0
_symmetry_space_group_name_H-M    P1
_symmetry_Int_Tables_number       1
_symmetry_cell_setting            triclinic
loop_
_symmetry_equiv_pos_as_xyz
'x, y, z'
_cell_length_a     39.696233
_cell_length_b     39.685719
_cell_length_c     51.158629
_cell_angle_alpha  90.272261
_cell_angle_beta   89.809173
_cell_angle_gamma 89.913652
loop_
_atom_site_label
_atom_site_type_symbol
_atom_site_fract_x
_atom_site_fract_y
_atom_site_fract_z
_atom_type_partial_charge
H0 H 0.56082 0.06053 0.03786 0.0
H1 H 0.56297 0.06302 0.95367 0.0
H2 H 0.64144 0.01237 0.99563 0.0
H3 H 0.52812 0.1027 0.0134 0.0
H4 H 0.52822 0.10293 0.97856 0.0
H5 H 0.48606 0.07146 0.03718 0.0
H6 H 0.40597 0.02553 0.99362 0.0
H7 H 0.49444 0.06022 0.95345 0.0
C8 C 0.57219 0.05279 0.01949 0.0
C9 C 0.60232 0.03417 0.01957 0.0
C10 C 0.55752 0.06283 0.99574 0.0
C11 C 0.57337 0.05419 0.97197 0.0
C12 C 0.60342 0.03548 0.97184 0.0
C13 C 0.61724 0.02511 0.99566 0.0
C14 C 0.52738 0.08604 -0.00415 0.0
C15 C 0.49469 0.06665 0.9955 0.0
C16 C 0.47627 0.06198 0.01881 0.0
C17 C 0.44401 0.0476 0.01807 0.0
C18 C 0.43118 0.03606 0.99421 0.0
C19 C 0.44913 0.04034 0.97087 0.0
C20 C 0.48094 0.05574 0.97155 0.0
H21 H 0.06695 0.56805 0.45681 0.0
H22 H 0.05775 0.55939 0.54054 0.0
H23 H 0.02327 0.6487 0.50168 0.0
H24 H 0.09934 0.52607 0.48001 0.0
H25 H 0.09965 0.52548 0.51482 0.0
H26 H 0.05921 0.49189 0.4553 0.0
H27 H 0.01072 0.41182 0.49712 0.0
H28 H 0.05821 0.49228 0.53953 0.0
C29 C 0.05791 0.57784 0.47537 0.0
C30 C 0.04397 0.61031 0.4766 0.0
C31 C 0.06281 0.55916 0.49841 0.0
C32 C 0.05284 0.57304 0.52264 0.0
C33 C 0.03797 0.60514 0.52389 0.0
C34 C 0.03329 0.62326 0.50074 0.0
C35 C 0.08271 0.52673 0.49756 0.0
C36 C 0.06007 0.49622 0.49743 0.0
C37 C 0.05095 0.48093 0.4736 0.0
C38 C 0.03272 0.45062 0.47338 0.0
C39 C 0.023 0.43622 0.49721 0.0
C40 C 0.03213 0.45085 0.52116 0.0
C41 C 0.05037 0.48115 0.52115 0.0
Li42 Li 0.02398 0.05776 0.26366 0.0
Li43 Li 0.02202 0.99558 0.26308 0.0
Li44 Li 0.05473 0.02771 0.22901 0.0
Li45 Li 0.99238 0.02567 0.22878 0.0
C46 C 0.08389 0.03871 0.28518 0.0
N47 N 0.12812 0.06617 0.32099 0.0
C48 C 0.08579 0.02564 0.31045 0.0
C49 C 0.10482 0.06541 0.27801 0.0
C50 C 0.10823 0.03995 0.3283 0.0
C51 C 0.12691 0.07904 0.29642 0.0
C52 C 0.96423 0.01411 0.28622 0.0
C53 C 0.9243 0.97215 0.3003 0.0
N54 N 0.92486 0.98555 0.32481 0.0
C55 C 0.9642 0.02765 0.31148 0.0
C56 C 0.94393 0.98632 0.28049 0.0
C57 C 0.94418 0.01279 0.33075 0.0
C58 C 0.01459 0.12701 0.27111 0.0
N59 N 0.02361 0.09845 0.2839 0.0
C60 C 0.03234 0.12976 0.32336 0.0
C61 C 0.03197 0.0992 0.30965 0.0
C62 C 0.02377 0.1598 0.31049 0.0
C63 C 0.01464 0.15806 0.28401 0.0
H64 H 1.00744 0.12573 0.25078 0.0
H65 H 0.03819 0.07612 0.31963 0.0
C66 C 0.02727 0.92574 0.26939 0.0
N67 N 0.02202 0.95482 0.28296 0.0
C68 C 0.02742 0.89479 0.28219 0.0
C69 C 0.01742 0.92416 0.32296 0.0
C70 C 0.01739 0.95461 0.30931 0.0
C71 C 0.02241 0.89368 0.30935 0.0
H72 H 0.0317 0.92653 0.24857 0.0
H73 H 0.01377 0.97804 0.31978 0.0
C74 C 0.03438 0.08725 0.20676 0.0
N75 N 0.05917 0.13078 0.16937 0.0
C76 C 0.02043 0.08765 0.18172 0.0
C77 C 0.06062 0.10933 0.21289 0.0
C78 C 0.03338 0.10977 0.16306 0.0
C79 C 0.07291 0.13104 0.19369 0.0
C80 C 0.01288 0.96843 0.20461 0.0
C81 C 0.02845 0.96919 0.18008 0.0
C82 C 0.98494 0.94766 0.2086 0.0
C83 C 0.01548 0.94946 0.1598 0.0
C84 C 0.97269 0.92836 0.18781 0.0
N85 N 0.98807 0.92967 0.16403 0.0
C86 C 0.12376 0.01654 0.2225 0.0
C87 C 0.09813 0.03796 0.18428 0.0
C88 C 0.15533 0.01676 0.21043 0.0
N89 N 0.09604 0.02755 0.20953 0.0
C90 C 0.12925 0.03861 0.17143 0.0
C91 C 0.15847 0.02818 0.1846 0.0
H92 H 0.12139 1.00761 0.24234 0.0
H93 H 0.07573 0.04577 0.17407 0.0
C94 C 0.92294 0.03348 0.22196 0.0
N95 N 0.95172 0.02589 0.20868 0.0
C96 C 0.89188 0.03315 0.20927 0.0
C97 C 0.92054 0.01779 0.16921 0.0
C98 C 0.95112 0.01865 0.18267 0.0
C99 C 0.89036 0.02495 0.18258 0.0
H100 H 0.92404 0.03967 0.24252 0.0
H101 H 0.97431 0.01351 0.17231 0.0
O102 O 0.0619 0.02515 0.26749 0.0
O103 O 0.98384 0.02816 0.26715 0.0
O104 O 0.02203 0.06572 0.22526 0.0
O105 O 0.02519 0.98763 0.22469 0.0
H106 H 0.07001 1.0048 0.31627 0.0
H107 H 0.10412 0.0754 0.25841 0.0
H108 H 0.10983 0.03022 0.34798 0.0
H109 H 0.14315 0.09982 0.29115 0.0
H110 H 0.90862 0.95052 0.29618 0.0
H111 H 0.97958 0.04928 0.3162 0.0
H112 H 0.94338 0.97579 0.26098 0.0
H113 H 0.94404 0.02289 0.35043 0.0
H114 H 0.03887 0.12978 0.3439 0.0
H115 H 1.00808 0.18052 0.27322 0.0
H116 H 0.03207 0.87203 0.27099 0.0
H117 H 0.01333 0.92448 0.3439 0.0
H118 H 0.99993 0.07098 0.1767 0.0
H119 H 0.07128 0.10983 0.23229 0.0
H120 H 0.02295 0.11021 0.14356 0.0
H121 H 0.0933 0.14815 0.19814 0.0
H122 H 0.05022 0.98491 0.17671 0.0
H123 H 0.97281 0.94652 0.22751 0.0
H124 H 0.02718 0.94991 0.14067 0.0
H125 H 0.95097 0.91232 0.19057 0.0
H126 H 0.17701 1.00779 0.22117 0.0
H127 H 0.13044 0.04772 0.15153 0.0
H128 H 0.86923 0.03868 0.22036 0.0
H129 H 0.92056 0.01194 0.14851 0.0
Li130 Li 0.99689 0.03009 0.76332 0.0
Li131 Li 0.05908 0.02821 0.76412 0.0
Li132 Li 0.02702 0.06019 0.72971 0.0
Li133 Li 0.02897 0.99785 0.729 0.0
C134 C 0.01474 0.08529 0.78853 0.0
N135 N 0.98495 0.11904 0.82992 0.0
C136 C 0.02838 0.08282 0.81359 0.0
C137 C 0.98615 0.10516 0.78445 0.0
C138 C 0.01291 0.10004 0.83428 0.0
C139 C 0.97138 0.12193 0.80565 0.0
C140 C 0.03934 0.96442 0.78191 0.0
C141 C 0.07721 0.91729 0.78668 0.0
N142 N 0.065 0.91204 0.8112 0.0
C143 C 0.02692 0.95836 0.80705 0.0
C144 C 0.06448 0.94356 0.77154 0.0
C145 C 0.04031 0.93183 0.82158 0.0
C146 C 0.92682 0.02836 0.76998 0.0
N147 N 0.95623 0.02945 0.78349 0.0
C148 C 0.92618 0.02926 0.8241 0.0
C149 C 0.95648 0.02964 0.81007 0.0
C150 C 0.89538 0.0283 0.81061 0.0
C151 C 0.89602 0.02785 0.78317 0.0
H152 H 0.92721 0.02775 0.74889 0.0
H153 H 0.98017 0.03001 0.8204 0.0
C154 C 0.12674 0.04335 0.77272 0.0
N155 N 0.09966 0.02837 0.78407 0.0
C156 C 0.15804 0.04307 0.78504 0.0
C157 C 0.13284 0.01303 0.8211 0.0
C158 C 0.10198 0.01386 0.80802 0.0
C159 C 0.16151 0.02749 0.80948 0.0
H160 H 0.12413 0.05513 0.75382 0.0
H161 H 0.07995 1.00294 0.81702 0.0
C162 C 0.97206 0.0403 0.70402 0.0
N163 N 0.93809 0.06601 0.66149 0.0
C164 C 0.9747 0.02446 0.67964 0.0
C165 C 0.95193 0.06903 0.70684 0.0
C166 C 0.95735 0.03788 0.65836 0.0
C167 C 0.93504 0.0817 0.68508 0.0
C168 C 0.09188 0.01926 0.70931 0.0
C169 C 0.09473 0.03238 0.6841 0.0
C170 C 0.11507 0.99517 0.71781 0.0
C171 C 0.1204 0.02072 0.66762 0.0
C172 C 0.14038 0.98415 0.70076 0.0
N173 N 0.14247 0.99702 0.67621 0.0
C174 C 0.0314 0.13013 0.72352 0.0
C175 C 0.02397 0.10112 0.68338 0.0
C176 C 0.03101 0.16112 0.71075 0.0
N177 N 0.02754 0.10096 0.70982 0.0
C178 C 0.02313 0.1316 0.66982 0.0
C179 C 0.02656 0.16214 0.68357 0.0
H180 H 0.03465 0.12939 0.74447 0.0
H181 H 0.02155 0.07765 0.6728 0.0
C182 C 0.01094 0.93107 0.72037 0.0
N183 N 0.02848 0.95677 0.70934 0.0
C184 C 1.01036 0.89932 0.70855 0.0
C185 C 0.04509 0.9212 0.6737 0.0
C186 C 0.04493 0.9526 0.68619 0.0
C187 C 0.0279 0.89395 0.68502 0.0
H188 H 0.99777 0.93515 0.73866 0.0
H189 H 0.05792 0.9735 0.67735 0.0
O190 O 0.02931 0.06836 0.76809 0.0
O191 O 0.02658 0.99039 0.76748 0.0
O192 O 0.98892 0.02757 0.72505 0.0
O193 O 0.06688 0.03043 0.72569 0.0
H194 H 0.05054 0.0676 0.81705 0.0
H195 H 0.97535 0.10737 0.76514 0.0
H196 H 0.02309 0.09825 0.85381 0.0
H197 H 0.94912 0.13722 0.80282 0.0
H198 H 0.09673 0.901 0.77891 0.0
H199 H 1.00728 0.97408 0.8153 0.0
H200 H 0.07387 0.9474 0.75195 0.0
H201 H 0.03107 0.92698 0.84112 0.0
H202 H 0.92689 0.02916 0.84526 0.0
H203 H 0.87293 0.02743 0.77195 0.0
H204 H 0.17943 0.05435 0.77525 0.0
H205 H 0.13415 1.0014 0.84017 0.0
H206 H 0.99008 1.00216 0.67714 0.0
H207 H 0.94961 0.08155 0.72559 0.0
H208 H 0.95925 0.02598 0.63934 0.0
H209 H 0.91955 0.10404 0.68693 0.0
H210 H 0.07721 0.05122 0.67726 0.0
H211 H 0.11376 0.98529 0.73743 0.0
H212 H 0.12277 0.03051 0.64801 0.0
H213 H 0.15843 0.96546 0.70707 0.0
H214 H 0.03357 0.18406 0.72212 0.0
H215 H 0.02015 0.13126 0.64878 0.0
H216 H 0.99693 0.87902 0.71805 0.0
H217 H 0.05835 0.91836 0.65528 0.0
H218 H 0.45416 0.02024 0.06675 0.0
H219 H 0.41255 0.01682 0.10261 0.0
H220 H 0.34152 0.07305 0.05634 0.0
H221 H 0.38266 0.07663 0.02094 0.0
H222 H 0.34495 0.09321 0.11002 0.0
H223 H 0.32771 0.95493 0.09613 0.0
H224 H 0.36979 0.97017 0.10169 0.0
H225 H 0.34844 0.98073 0.07199 0.0
C226 C 0.4298 0.03221 0.06455 0.0
C227 C 0.42135 0.04835 0.04109 0.0
C228 C 0.40606 0.03009 0.08488 0.0
C229 C 0.37384 0.04435 0.08193 0.0
C230 C 0.36616 0.06181 0.05897 0.0
H231 H 0.17412 0.01139 0.13399 0.0
H232 H 0.229 0.01484 0.11234 0.0
C233 C 0.38962 0.06372 0.03875 0.0
C234 C 0.34703 0.04003 0.10183 0.0
H235 H 0.2904 0.98251 0.12476 0.0
C236 C 0.33335 0.06895 0.11369 0.0
C237 C 0.33175 1.00838 0.10619 0.0
C238 C 0.3449 0.97669 0.09329 0.0
C239 C 0.30403 0.06727 0.12905 0.0
C240 C 0.28827 0.03572 0.13289 0.0
C241 C 0.30264 1.00662 0.1218 0.0
C242 C 0.25544 0.0328 0.14659 0.0
C243 C 0.28915 0.09949 0.13987 0.0
C244 C 0.25219 0.04144 0.17309 0.0
C245 C 0.22076 0.03981 0.18546 0.0
C246 C 0.19202 0.02932 0.17158 0.0
C247 C 0.19557 0.0201 0.14514 0.0
C248 C 0.22698 0.02176 0.1328 0.0
H249 H 0.30067 0.12219 0.1309 0.0
H250 H 0.26153 0.1003 0.13657 0.0
H251 H 0.29358 0.10066 0.16125 0.0
H252 H 0.27392 0.04962 0.18417 0.0
H253 H 0.2189 0.04733 0.20579 0.0
H254 H 0.07793 0.43733 0.55947 0.0
H255 H 0.07363 0.3932 0.59264 0.0
H256 H 0.97094 0.37426 0.5699 0.0
H257 H 0.97483 0.41864 0.53693 0.0
H258 H 0.01641 0.3752 0.63553 0.0
H259 H 0.03607 0.28831 0.55091 0.0
H260 H 0.04914 0.33187 0.55012 0.0
H261 H 1.00534 0.32144 0.54758 0.0
C262 C 0.05401 0.42474 0.56224 0.0
C263 C 0.02679 0.43122 0.54545 0.0
C264 C 0.05167 0.39942 0.5811 0.0
C265 C 0.0221 0.38036 0.58343 0.0
C266 C 0.99399 0.38869 0.56826 0.0
H267 H 0.98261 0.18157 0.64547 0.0
H268 H 0.98049 0.23563 0.62272 0.0
C269 C 0.99628 0.41398 0.54946 0.0
C270 C 0.02208 0.34901 0.59889 0.0
H271 H 0.02792 0.26365 0.59207 0.0
C272 C 0.01892 0.35075 0.62615 0.0
C273 C 0.02534 0.31731 0.58644 0.0
C274 C 0.02936 0.31432 0.55716 0.0
C275 C 0.01843 0.32132 0.64136 0.0
C276 C 0.02197 0.28952 0.6289 0.0
C277 C 0.02516 0.28798 0.60159 0.0
C278 C 0.02254 0.2574 0.64364 0.0
C279 C 0.01335 0.32452 0.6705 0.0
C280 C 0.04711 0.25152 0.66277 0.0
C281 C 0.04833 0.22066 0.67582 0.0
C282 C 0.02529 0.19492 0.66973 0.0
C283 C 1.0009 0.20078 0.65041 0.0
C284 C 0.99954 0.23171 0.63751 0.0
H285 H 1.00144 0.34896 0.67585 0.0
H286 H 0.9974 0.30377 0.6781 0.0
H287 H 0.03818 0.32326 0.68033 0.0
H288 H 0.06574 0.27056 0.66729 0.0
H289 H 0.06773 0.21671 0.69033 0.0
H290 H 0.61632 0.07954 0.05833 0.0
H291 H 0.66027 0.07426 0.0916 0.0
H292 H 0.67724 0.97112 0.06826 0.0
H293 H 0.63315 0.97607 0.03512 0.0
H294 H 0.67699 0.02162 0.13433 0.0
H295 H 0.76503 0.02882 0.04957 0.0
H296 H 0.72162 0.04218 0.04755 0.0
H297 H 0.73183 0.99812 0.04749 0.0
C298 C 0.62846 0.05535 0.06098 0.0
C299 C 0.62155 0.0283 0.04397 0.0
C300 C 0.65369 0.05243 0.07989 0.0
C301 C 0.67224 0.02247 0.08203 0.0
C302 C 0.66334 0.99453 0.06669 0.0
H303 H 0.86835 0.97763 0.14759 0.0
H304 H 0.81424 0.9759 0.12485 0.0
C305 C 0.63817 0.9974 0.04782 0.0
C306 C 0.70354 0.02177 0.09762 0.0
H307 H 0.78911 0.02161 0.09108 0.0
C308 C 0.70155 0.02158 0.12498 0.0
C309 C 0.73544 0.02181 0.08524 0.0
C310 C 0.73887 0.02298 0.05585 0.0
C311 C 0.73085 0.02086 0.14037 0.0
C312 C 0.76282 0.02111 0.12796 0.0
C313 C 0.76463 0.02131 0.10056 0.0
C314 C 0.79486 0.02148 0.14283 0.0
C315 C 0.72729 0.01914 0.16969 0.0
C316 C 0.80211 0.04786 0.16029 0.0
C317 C 0.83301 0.0489 0.1733 0.0
C318 C 0.85745 0.0238 0.16885 0.0
C319 C 0.8502 0.99752 0.15123 0.0
C320 C 0.81922 0.99639 0.13836 0.0
H321 H 0.70218 1.00938 0.17558 0.0
H322 H 0.74704 1.0028 0.17833 0.0
H323 H 0.73001 0.04483 0.17805 0.0
H324 H 0.78413 0.06803 0.16349 0.0
H325 H 0.83806 0.06976 0.18644 0.0
H326 H 0.98137 0.6389 0.53921 0.0
H327 H 0.97799 0.68187 0.57364 0.0
H328 H 0.07808 0.65581 0.59898 0.0
H329 H 0.08173 0.61285 0.56445 0.0
H330 H 0.01357 0.67906 0.63978 0.0
H331 H 0.05761 0.76099 0.55825 0.0
H332 H 0.02625 0.72926 0.5517 0.0
H333 H 0.06838 0.71681 0.5596 0.0
C334 C 1.00214 0.64149 0.55275 0.0
C335 C 0.03189 0.62275 0.54908 0.0
C336 C 1.00016 0.66598 0.57238 0.0
C337 C 0.02786 0.67201 0.58864 0.0
C338 C 0.0564 0.65127 0.58665 0.0
H339 H 0.08148 0.86171 0.66221 0.0
H340 H 0.08216 0.80637 0.64097 0.0
C341 C 0.05838 0.62666 0.56701 0.0
C342 C 0.02916 0.70336 0.60427 0.0
H343 H 0.04544 0.78734 0.59832 0.0
C344 C 0.0206 0.70278 0.63086 0.0
C345 C 0.03862 0.73405 0.59246 0.0
C346 C 0.04839 0.73564 0.56395 0.0
C347 C 0.02098 0.73248 0.64599 0.0
C348 C 0.02971 0.76338 0.634 0.0
C349 C 0.03871 0.76367 0.60746 0.0
C350 C 0.0295 0.79593 0.64837 0.0
C351 C 0.01248 0.73047 0.67469 0.0
C352 C 0.9996 0.80856 0.6594 0.0
C353 C 0.9991 0.84026 0.67145 0.0
C354 C 0.02844 0.86008 0.67249 0.0
C355 C 0.05836 0.84729 0.66145 0.0
C356 C 0.05885 0.81557 0.64948 0.0
H357 H 0.01545 0.70443 0.68224 0.0
H358 H 0.02866 0.74766 0.68634 0.0
H359 H 0.98585 0.73814 0.67768 0.0
H360 H 0.97645 0.79425 0.65815 0.0
H361 H 0.97554 0.84959 0.67942 0.0
H362 H 0.43609 0.08385 0.93122 0.0
H363 H 0.39238 0.07696 0.89785 0.0
H364 H 0.37759 0.97405 0.92197 0.0
H365 H 0.42079 0.98107 0.95563 0.0
H366 H 0.37568 0.03106 0.85585 0.0
H367 H 0.2884 0.02213 0.94073 0.0
H368 H 0.33167 0.03519 0.94408 0.0
H369 H 0.32156 0.9913 0.94031 0.0
C370 C 0.42443 0.0594 0.92867 0.0
C371 C 0.43156 0.03303 0.94603 0.0
C372 C 0.39934 0.05554 0.90974 0.0
C373 C 0.38124 0.02525 0.90792 0.0
C374 C 0.39085 0.99782 0.92342 0.0
H375 H 0.18916 0.97496 0.83662 0.0
H376 H 0.24369 0.97319 0.85871 0.0
C377 C 0.41566 1.00174 0.94247 0.0
C378 C 0.3498 0.02374 0.89241 0.0
H379 H 0.26451 0.01608 0.89891 0.0
C380 C 0.35136 0.0277 0.8652 0.0
C381 C 0.31808 0.01968 0.90475 0.0
C382 C 0.31462 0.01714 0.93408 0.0
C383 C 0.32197 0.02718 0.84991 0.0
C384 C 0.2903 0.02308 0.86229 0.0
C385 C 0.28884 0.01901 0.88947 0.0
C386 C 0.25815 0.0237 0.84764 0.0
C387 C 0.32505 0.03059 0.82065 0.0
C388 C 0.24802 0.05285 0.83437 0.0
C389 C 0.21674 0.05407 0.82194 0.0
C390 C 0.19486 0.02619 0.82265 0.0
C391 C 0.20515 0.99702 0.83597 0.0
C392 C 0.23643 0.99585 0.84842 0.0
H393 H 0.35096 0.02472 0.8137 0.0
H394 H 0.30702 0.01368 0.81049 0.0
H395 H 0.31912 0.05692 0.81507 0.0
H396 H 0.26401 0.07494 0.83412 0.0
H397 H 0.2094 0.07712 0.81224 0.0
H398 H 0.97552 0.41925 0.45656 0.0
H399 H 0.97217 0.37436 0.42366 0.0
H400 H 0.07625 0.39075 0.40316 0.0
H401 H 0.07985 0.43562 0.43609 0.0
H402 H 0.02994 0.37316 0.3593 0.0
H403 H 0.02499 0.28643 0.44434 0.0
H404 H 0.99379 0.31931 0.44415 0.0
H405 H 0.03754 0.32997 0.44737 0.0
C406 C 0.99741 0.4139 0.44452 0.0
C407 C 0.02804 0.43068 0.44905 0.0
C408 C 0.99548 0.38824 0.42581 0.0
C409 C 0.02414 0.3789 0.41139 0.0
C410 C 0.0539 0.39759 0.41418 0.0
H411 H 0.06997 0.18226 0.34622 0.0
H412 H 0.07052 0.2363 0.3694 0.0
C413 C 0.05585 0.42334 0.43289 0.0
C414 C 0.02422 0.3473 0.39591 0.0
H415 H 0.02016 0.26182 0.40247 0.0
C416 C 0.02773 0.34879 0.36865 0.0
C417 C 0.02194 0.31558 0.4083 0.0
C418 C 0.01963 0.31249 0.43766 0.0
C419 C 0.02847 0.31924 0.35337 0.0
C420 C 0.02537 0.28756 0.36575 0.0
C421 C 0.02233 0.28615 0.39303 0.0
C422 C 0.02549 0.2554 0.35089 0.0
C423 C 0.03315 0.32207 0.32419 0.0
C424 C 0.99975 0.24808 0.33304 0.0
C425 C 0.99919 0.2171 0.31992 0.0
C426 C 0.02431 0.19275 0.32449 0.0
C427 C 0.05001 0.20021 0.34247 0.0
C428 C 0.05051 0.23118 0.35559 0.0
H429 H 0.04313 0.34715 0.31854 0.0
H430 H 0.05059 0.30228 0.31679 0.0
H431 H 1.00846 0.31856 0.31445 0.0
H432 H 0.97975 0.2661 0.32959 0.0
H433 H 0.9787 0.21198 0.30657 0.0
H434 H 0.62158 0.08323 0.9364 0.0
H435 H 0.6664 0.07857 0.90366 0.0
H436 H 0.677 0.97277 0.92083 0.0
H437 H 0.63248 0.97748 0.95387 0.0
H438 H 0.73537 1.00664 0.92678 0.0
H439 H 0.67944 0.03902 0.83105 0.0
H440 H 0.67032 0.06959 0.85607 0.0
H441 H 0.65414 0.02746 0.85901 0.0
C442 C 0.63256 0.05872 0.93245 0.0
C443 C 0.62361 0.03071 0.94767 0.0
C444 C 0.65822 0.05607 0.91373 0.0
C445 C 0.67501 0.02529 0.90971 0.0
C446 C 0.6644 0.99677 0.92361 0.0
H447 H 0.8396 0.99045 0.79938 0.0
H448 H 0.78588 0.98924 0.82293 0.0
C449 C 0.63893 0.99945 0.94241 0.0
C450 C 0.70639 0.02385 0.89388 0.0
H451 H 0.7397 0.04111 0.83378 0.0
C452 C 0.73622 0.01386 0.90636 0.0
C453 C 0.70749 0.03314 0.86723 0.0
C454 C 0.67608 0.0426 0.85246 0.0
C455 C 0.7672 0.01355 0.89313 0.0
C456 C 0.76855 0.02417 0.86681 0.0
C457 C 0.73864 0.03338 0.85407 0.0
C458 C 0.80083 0.02571 0.85221 0.0
C459 C 0.79817 1.0016 0.90742 0.0
C460 C 0.8269 0.04694 0.86068 0.0
C461 C 0.85763 0.04772 0.84726 0.0
C462 C 0.86276 0.02748 0.82496 0.0
C463 C 0.83637 1.0066 0.81633 0.0
C464 C 0.80569 1.0058 0.82979 0.0
H465 H 0.79153 0.98609 0.9247 0.0
H466 H 0.81478 0.98652 0.89433 0.0
H467 H 0.81262 0.02378 0.91441 0.0
H468 H 0.82343 0.06302 0.87764 0.0
H469 H 0.8772 0.06452 0.85414 0.0
H470 H 0.01523 0.60086 0.42827 0.0
H471 H 0.01212 0.6424 0.39258 0.0
H472 H 0.0704 0.71232 0.43869 0.0
H473 H 0.07364 0.67128 0.47391 0.0
H474 H 0.98361 0.70848 0.39786 0.0
H475 H 0.11715 0.71489 0.36711 0.0
H476 H 0.10024 0.67983 0.38532 0.0
H477 H 0.11218 0.71806 0.40191 0.0
C478 C 0.02781 0.62491 0.43043 0.0
C479 C 0.04454 0.63304 0.45376 0.0
C480 C 0.02595 0.64857 0.41017 0.0
C481 C 0.0414 0.68025 0.41291 0.0
C482 C 0.05885 0.68784 0.43596 0.0
H483 H 0.05265 0.87956 0.35601 0.0
H484 H 0.05531 0.82532 0.37843 0.0
C485 C 0.06046 0.66449 0.45613 0.0
C486 C 0.03745 0.70681 0.3929 0.0
H487 H 0.08299 0.76357 0.3575 0.0
C488 C 1.00519 0.72011 0.3885 0.0
C489 C 0.0657 0.72194 0.38083 0.0
C490 C 0.10073 0.70773 0.38381 0.0
C491 C 1.00069 0.74948 0.37367 0.0
C492 C 0.02918 0.7656 0.36277 0.0
C493 C 0.06123 0.75132 0.3661 0.0
C494 C 0.02662 0.79837 0.34918 0.0
C495 C 0.96578 0.76411 0.37096 0.0
C496 C 1.0096 0.80113 0.32531 0.0
C497 C 1.00788 0.83215 0.31251 0.0
C498 C 0.02323 0.86095 0.32335 0.0
C499 C 0.04016 0.85803 0.34733 0.0
C500 C 0.04193 0.82701 0.36005 0.0
H501 H 0.94738 0.75189 0.38428 0.0
H502 H 0.96602 0.79161 0.3751 0.0
H503 H 0.95698 0.76048 0.35058 0.0
H504 H 0.99794 0.77923 0.31646 0.0
H505 H 0.99444 0.83361 0.29416 0.0
loop_
_geom_bond_atom_site_label_1
_geom_bond_atom_site_label_2
_geom_bond_distance
_geom_bond_site_symmetry_2
_ccdc_geom_bond_type
H0 C8 0.930 . S
H1 C11 0.930 . S
H2 C13 0.930 . S
H3 C14 1.001 . S
H4 C14 0.941 1_556 S
H5 C16 0.930 . S
H6 C18 0.930 1_565 S
H7 C20 0.930 . S
C8 H0 0.930 . S
C8 C9 1.382 . S
C8 C10 1.457 . S
C9 C8 1.382 . S
C9 C13 1.389 . S
C10 C8 1.457 . S
C10 C11 1.345 1_554 S
C10 C14 1.532 . S
C11 H1 0.930 . S
C11 C10 1.345 1_556 S
C11 C12 1.416 . S
C12 C11 1.416 . S
C12 C13 1.371 1_556 S
C13 H2 0.930 . S
C13 C9 1.389 . S
C13 C12 1.371 1_554 S
C14 H3 1.001 . S
C14 H4 0.941 1_554 S
C14 C10 1.532 . S
C14 C15 1.499 . S
C15 C14 1.499 . S
C15 C16 1.383 . S
C15 C20 1.403 1_554 S
C16 H5 0.930 . S
C16 C15 1.383 . S
C16 C17 1.407 . S
C17 C16 1.407 . S
C17 C18 1.375 . S
C18 H6 0.930 1_545 S
C18 C17 1.375 . S
C18 C19 1.382 1_554 S
C19 C18 1.382 1_556 S
C19 C20 1.387 . S
C20 H7 0.930 . S
C20 C15 1.403 1_556 S
C20 C19 1.387 . S
H21 C29 0.930 . S
H22 C32 0.930 . S
H23 C34 0.930 . S
H24 C35 0.970 . S
H25 C35 0.970 . S
H26 C37 0.930 . S
H27 C39 0.930 1_655 S
H28 C41 0.930 . S
C29 H21 0.930 . S
C29 C30 1.382 . S
C29 C31 1.426 . S
C30 C29 1.382 . S
C30 C34 1.389 . S
C31 C29 1.426 . S
C31 C32 1.375 . S
C31 C35 1.532 . S
C32 H22 0.930 . S
C32 C31 1.375 . S
C32 C33 1.416 . S
C33 C32 1.416 . S
C33 C34 1.371 . S
C34 H23 0.930 . S
C34 C30 1.389 . S
C34 C33 1.371 . S
C35 H24 0.970 . S
C35 H25 0.970 . S
C35 C31 1.532 . S
C35 C36 1.499 . S
C36 C35 1.499 . S
C36 C37 1.370 . S
C36 C41 1.415 . S
C37 H26 0.930 . S
C37 C36 1.370 . S
C37 C38 1.407 . S
C38 C37 1.407 . S
C38 C39 1.365 . S
C39 H27 0.930 1_455 S
C39 C38 1.365 . S
C39 C40 1.393 . S
C40 C39 1.393 . S
C40 C41 1.387 . S
C41 H28 0.930 . S
C41 C36 1.415 . S
C41 C40 1.387 . S
Li42 N59 1.990 . S
Li42 O102 1.956 . S
Li42 O103 1.970 1_455 S
Li42 O104 1.961 . S
Li43 N67 1.990 . S
Li43 O102 1.970 1_565 S
Li43 O103 1.956 1_465 S
Li43 O105 1.961 . S
Li44 N89 1.990 . S
Li44 O102 1.961 . S
Li44 O104 1.956 . S
Li44 O105 1.970 1_545 S
Li45 N95 1.990 . S
Li45 O103 1.961 . S
Li45 O104 1.970 1_655 S
Li45 O105 1.956 1_645 S
C46 C48 1.342 1_545 S
C46 C49 1.356 . S
C46 O102 1.325 . S
N47 C50 1.314 . S
N47 C51 1.279 . S
C48 C46 1.342 1_565 S
C48 C50 1.352 1_565 S
C48 H106 0.936 . S
C49 C46 1.356 . S
C49 C51 1.358 . S
C49 H107 0.930 . S
C50 N47 1.314 . S
C50 C48 1.352 1_545 S
C50 H108 0.930 1_545 S
C51 N47 1.279 . S
C51 C49 1.358 . S
C51 H109 0.930 . S
C52 C55 1.348 . S
C52 C56 1.356 1_545 S
C52 O103 1.325 . S
C53 N54 1.279 1_565 S
C53 C56 1.358 . S
C53 H110 0.930 . S
N54 C53 1.279 1_545 S
N54 C57 1.314 . S
C55 C52 1.348 . S
C55 C57 1.353 . S
C55 H111 0.929 . S
C56 C52 1.356 1_565 S
C56 C53 1.358 . S
C56 H112 0.930 . S
C57 N54 1.314 . S
C57 C55 1.353 . S
C57 H113 0.930 . S
C58 N59 1.314 . S
C58 C63 1.352 1_455 S
C58 H64 0.930 1_455 S
N59 Li42 1.990 . S
N59 C58 1.314 . S
N59 C61 1.279 . S
C60 C61 1.358 . S
C60 C62 1.356 . S
C60 H114 0.930 . S
C61 N59 1.279 . S
C61 C60 1.358 . S
C61 H65 0.930 . S
C62 C60 1.356 . S
C62 C63 1.335 1_455 S
C63 C58 1.352 1_655 S
C63 C62 1.335 1_655 S
C63 H115 0.944 . S
H64 C58 0.930 1_655 S
H65 C61 0.930 . S
C66 N67 1.314 . S
C66 C68 1.353 . S
C66 H72 0.930 . S
N67 Li43 1.990 . S
N67 C66 1.314 . S
N67 C70 1.279 1_455 S
C68 C66 1.353 . S
C68 C71 1.348 . S
C68 H116 0.929 . S
C69 C70 1.358 . S
C69 C71 1.356 1_655 S
C69 H117 0.930 . S
C70 N67 1.279 1_655 S
C70 C69 1.358 . S
C70 H73 0.930 . S
C71 C68 1.348 . S
C71 C69 1.356 1_455 S
H72 C66 0.930 . S
H73 C70 0.930 . S
C74 C76 1.342 1_455 S
C74 C77 1.356 . S
C74 O104 1.325 . S
N75 C78 1.314 . S
N75 C79 1.279 . S
C76 C74 1.342 1_655 S
C76 C78 1.352 1_655 S
C76 H118 0.936 . S
C77 C74 1.356 . S
C77 C79 1.358 . S
C77 H119 0.930 . S
C78 N75 1.314 . S
C78 C76 1.352 1_455 S
C78 H120 0.930 1_455 S
C79 N75 1.279 . S
C79 C77 1.358 . S
C79 H121 0.930 . S
C80 C81 1.348 . S
C80 C82 1.356 1_455 S
C80 O105 1.325 . S
C81 C80 1.348 . S
C81 C83 1.353 . S
C81 H122 0.929 . S
C82 C80 1.356 1_655 S
C82 C84 1.358 . S
C82 H123 0.930 . S
C83 C81 1.353 . S
C83 N85 1.314 . S
C83 H124 0.930 . S
C84 C82 1.358 . S
C84 N85 1.279 1_655 S
C84 H125 0.930 . S
N85 C83 1.314 . S
N85 C84 1.279 1_455 S
C86 C88 1.352 1_545 S
C86 N89 1.314 . S
C86 H92 0.930 1_545 S
C87 N89 1.279 . S
C87 C90 1.358 . S
C87 H93 0.930 . S
C88 C86 1.352 1_565 S
C88 C91 1.335 1_565 S
C88 H126 0.943 . S
N89 Li44 1.990 . S
N89 C86 1.314 . S
N89 C87 1.279 . S
C90 C87 1.358 . S
C90 C91 1.356 . S
C90 H127 0.930 . S
C91 C88 1.335 1_545 S
C91 C90 1.356 . S
H92 C86 0.930 1_565 S
H93 C87 0.930 . S
C94 N95 1.314 . S
C94 C96 1.353 . S
C94 H100 0.930 . S
N95 Li45 1.990 . S
N95 C94 1.314 . S
N95 C98 1.279 1_545 S
C96 C94 1.353 . S
C96 C99 1.348 . S
C96 H128 0.929 . S
C97 C98 1.358 . S
C97 C99 1.356 1_565 S
C97 H129 0.930 . S
C98 N95 1.279 1_565 S
C98 C97 1.358 . S
C98 H101 0.930 . S
C99 C96 1.348 . S
C99 C97 1.356 1_545 S
H100 C94 0.930 . S
H101 C98 0.930 . S
O102 Li42 1.956 . S
O102 Li43 1.970 1_545 S
O102 Li44 1.961 . S
O102 C46 1.325 . S
O103 Li42 1.970 1_655 S
O103 Li43 1.956 1_645 S
O103 Li45 1.961 . S
O103 C52 1.325 . S
O104 Li42 1.961 . S
O104 Li44 1.956 . S
O104 Li45 1.970 1_455 S
O104 C74 1.325 . S
O105 Li43 1.961 . S
O105 Li44 1.970 1_565 S
O105 Li45 1.956 1_465 S
O105 C80 1.325 . S
H106 C48 0.936 . S
H107 C49 0.930 . S
H108 C50 0.930 1_565 S
H109 C51 0.930 . S
H110 C53 0.930 . S
H111 C55 0.929 . S
H112 C56 0.930 . S
H113 C57 0.930 . S
H114 C60 0.930 . S
H115 C63 0.944 . S
H116 C68 0.929 . S
H117 C69 0.930 . S
H118 C76 0.936 . S
H119 C77 0.930 . S
H120 C78 0.930 1_655 S
H121 C79 0.930 . S
H122 C81 0.929 . S
H123 C82 0.930 . S
H124 C83 0.930 . S
H125 C84 0.930 . S
H126 C88 0.943 . S
H127 C90 0.930 . S
H128 C96 0.929 . S
H129 C97 0.930 . S
Li130 N147 1.990 . S
Li130 O190 1.956 1_655 S
Li130 O191 1.970 1_645 S
Li130 O192 1.961 . S
Li131 N155 1.990 . S
Li131 O190 1.970 . S
Li131 O191 1.956 1_545 S
Li131 O193 1.961 . S
Li132 N177 1.990 . S
Li132 O190 1.961 . S
Li132 O192 1.956 1_455 S
Li132 O193 1.970 . S
Li133 N183 1.990 . S
Li133 O191 1.961 . S
Li133 O192 1.970 1_465 S
Li133 O193 1.956 1_565 S
C134 C136 1.348 . S
C134 C137 1.356 1_455 S
C134 O190 1.325 . S
N135 C138 1.314 . S
N135 C139 1.279 1_455 S
C136 C134 1.348 . S
C136 C138 1.353 . S
C136 H194 0.929 . S
C137 C134 1.356 1_655 S
C137 C139 1.358 . S
C137 H195 0.930 . S
C138 N135 1.314 . S
C138 C136 1.353 . S
C138 H196 0.930 . S
C139 N135 1.279 1_655 S
C139 C137 1.358 . S
C139 H197 0.930 . S
C140 C143 1.348 1_455 S
C140 C144 1.356 . S
C140 O191 1.325 . S
C141 N142 1.279 . S
C141 C144 1.358 . S
C141 H198 0.930 . S
N142 C141 1.279 . S
N142 C145 1.322 . S
C143 C140 1.348 1_655 S
C143 C145 1.352 1_655 S
C143 H199 0.929 . S
C144 C140 1.356 . S
C144 C141 1.358 . S
C144 H200 0.930 . S
C145 N142 1.322 . S
C145 C143 1.352 1_455 S
C145 H201 0.922 1_455 S
C146 N147 1.330 . S
C146 C151 1.351 1_545 S
C146 H152 0.914 1_545 S
N147 Li130 1.990 . S
N147 C146 1.330 . S
N147 C149 1.279 . S
C148 C149 1.358 . S
C148 C150 1.356 . S
C148 H202 0.930 . S
C149 N147 1.279 . S
C149 C148 1.358 . S
C149 H153 0.930 . S
C150 C148 1.356 . S
C150 C151 1.348 1_545 S
C151 C146 1.351 1_565 S
C151 C150 1.348 1_565 S
C151 H203 0.929 . S
H152 C146 0.914 1_565 S
H153 C149 0.930 . S
C154 N155 1.314 . S
C154 C156 1.353 . S
C154 H160 0.930 . S
N155 Li131 1.990 . S
N155 C154 1.314 . S
N155 C158 1.279 1_545 S
C156 C154 1.353 . S
C156 C159 1.348 . S
C156 H204 0.929 . S
C157 C158 1.358 . S
C157 C159 1.356 1_565 S
C157 H205 0.930 . S
C158 N155 1.279 1_565 S
C158 C157 1.358 . S
C158 H161 0.930 . S
C159 C156 1.348 . S
C159 C157 1.356 1_545 S
H160 C154 0.930 . S
H161 C158 0.930 . S
C162 C164 1.348 1_545 S
C162 C165 1.356 . S
C162 O192 1.325 . S
N163 C166 1.322 . S
N163 C167 1.279 . S
C164 C162 1.348 1_565 S
C164 C166 1.352 1_565 S
C164 H206 0.929 . S
C165 C162 1.356 . S
C165 C167 1.358 . S
C165 H207 0.930 . S
C166 N163 1.322 . S
C166 C164 1.352 1_545 S
C166 H208 0.922 1_545 S
C167 N163 1.279 . S
C167 C165 1.358 . S
C167 H209 0.930 . S
C168 C169 1.348 . S
C168 C170 1.356 1_545 S
C168 O193 1.325 . S
C169 C168 1.348 . S
C169 C171 1.353 . S
C169 H210 0.929 . S
C170 C168 1.356 1_565 S
C170 C172 1.358 . S
C170 H211 0.930 . S
C171 C169 1.353 . S
C171 N173 1.314 . S
C171 H212 0.930 . S
C172 C170 1.358 . S
C172 N173 1.279 1_565 S
C172 H213 0.930 . S
N173 C171 1.314 . S
N173 C172 1.279 1_545 S
C174 C176 1.353 . S
C174 N177 1.314 . S
C174 H180 0.930 . S
C175 N177 1.279 1_655 S
C175 C178 1.358 . S
C175 H181 0.930 . S
C176 C174 1.353 . S
C176 C179 1.348 . S
C176 H214 0.929 . S
N177 Li132 1.990 . S
N177 C174 1.314 . S
N177 C175 1.279 1_455 S
C178 C175 1.358 . S
C178 C179 1.356 1_655 S
C178 H215 0.930 . S
C179 C176 1.348 . S
C179 C178 1.356 1_455 S
H180 C174 0.930 . S
H181 C175 0.930 . S
C182 N183 1.330 . S
C182 C184 1.351 1_455 S
C182 H188 0.914 1_455 S
N183 Li133 1.990 . S
N183 C182 1.330 . S
N183 C186 1.279 . S
C184 C182 1.351 1_655 S
C184 C187 1.348 1_655 S
C184 H216 0.929 . S
C185 C186 1.358 . S
C185 C187 1.356 . S
C185 H217 0.930 . S
C186 N183 1.279 . S
C186 C185 1.358 . S
C186 H189 0.930 . S
C187 C184 1.348 1_455 S
C187 C185 1.356 . S
H188 C182 0.914 1_655 S
H189 C186 0.930 . S
O190 Li130 1.956 1_455 S
O190 Li131 1.970 . S
O190 Li132 1.961 . S
O190 C134 1.325 . S
O191 Li130 1.970 1_465 S
O191 Li131 1.956 1_565 S
O191 Li133 1.961 . S
O191 C140 1.325 . S
O192 Li130 1.961 . S
O192 Li132 1.956 1_655 S
O192 Li133 1.970 1_645 S
O192 C162 1.325 . S
O193 Li131 1.961 . S
O193 Li132 1.970 . S
O193 Li133 1.956 1_545 S
O193 C168 1.325 . S
H194 C136 0.929 . S
H195 C137 0.930 . S
H196 C138 0.930 . S
H197 C139 0.930 . S
H198 C141 0.930 . S
H199 C143 0.929 . S
H200 C144 0.930 . S
H201 C145 0.922 1_655 S
H202 C148 0.930 . S
H203 C151 0.929 . S
H204 C156 0.929 . S
H205 C157 0.930 . S
H206 C164 0.929 . S
H207 C165 0.930 . S
H208 C166 0.922 1_565 S
H209 C167 0.930 . S
H210 C169 0.929 . S
H211 C170 0.930 . S
H212 C171 0.930 . S
H213 C172 0.930 . S
H214 C176 0.929 . S
H215 C178 0.930 . S
H216 C184 0.929 . S
H217 C185 0.930 . S
H218 C226 0.929 . S
H219 C228 0.930 . S
H220 C230 0.930 . S
H221 C233 0.929 . S
H222 C236 0.930 . S
H223 C238 0.960 . S
H224 C238 0.960 . S
H225 C238 0.960 . S
C226 H218 0.929 . S
C226 C227 1.377 . S
C226 C228 1.384 . S
C227 C226 1.377 . S
C227 C233 1.390 . S
C228 H219 0.930 . S
C228 C226 1.384 . S
C228 C229 1.372 . S
C229 C228 1.372 . S
C229 C230 1.400 . S
C229 C234 1.490 . S
C230 H220 0.930 . S
C230 C229 1.400 . S
C230 C233 1.386 . S
H231 C247 0.930 . S
H232 C248 0.931 . S
C233 H221 0.929 . S
C233 C227 1.390 . S
C233 C230 1.386 . S
C234 C229 1.490 . S
C234 C236 1.395 . S
C234 C237 1.403 1_545 S
H235 C241 0.930 . S
C236 H222 0.930 . S
C236 C234 1.395 . S
C236 C239 1.403 . S
C237 C234 1.403 1_565 S
C237 C238 1.524 . S
C237 C241 1.400 . S
C238 H223 0.960 . S
C238 H224 0.960 . S
C238 H225 0.960 . S
C238 C237 1.524 . S
C239 C236 1.403 . S
C239 C240 1.392 . S
C239 C243 1.495 . S
C240 C239 1.392 . S
C240 C241 1.385 1_545 S
C240 C242 1.478 . S
C241 H235 0.930 . S
C241 C237 1.400 . S
C241 C240 1.385 1_565 S
C242 C240 1.478 . S
C242 C244 1.381 . S
C242 C248 1.383 . S
C243 C239 1.495 . S
C243 H249 0.959 . S
C243 H250 0.961 . S
C243 H251 0.960 . S
C244 C242 1.381 . S
C244 C245 1.394 . S
C244 H252 0.930 . S
C245 C244 1.394 . S
C245 C246 1.383 . S
C245 H253 0.929 . S
C246 C245 1.383 . S
C246 C247 1.377 . S
C247 H231 0.930 . S
C247 C246 1.377 . S
C247 C248 1.379 . S
C248 H232 0.931 . S
C248 C242 1.383 . S
C248 C247 1.379 . S
H249 C243 0.959 . S
H250 C243 0.961 . S
H251 C243 0.960 . S
H252 C244 0.930 . S
H253 C245 0.929 . S
H254 C262 0.929 . S
H255 C264 0.930 . S
H256 C266 0.930 . S
H257 C269 0.929 . S
H258 C272 0.930 . S
H259 C274 0.960 . S
H260 C274 0.960 . S
H261 C274 0.960 1_655 S
C262 H254 0.929 . S
C262 C263 1.377 . S
C262 C264 1.384 . S
C263 C262 1.377 . S
C263 C269 1.390 1_455 S
C264 H255 0.930 . S
C264 C262 1.384 . S
C264 C265 1.372 . S
C265 C264 1.372 . S
C265 C266 1.400 1_455 S
C265 C270 1.490 . S
C266 H256 0.930 . S
C266 C265 1.400 1_655 S
C266 C269 1.386 . S
H267 C283 0.930 . S
H268 C284 0.931 . S
C269 H257 0.929 . S
C269 C263 1.390 1_655 S
C269 C266 1.386 . S
C270 C265 1.490 . S
C270 C272 1.395 . S
C270 C273 1.403 . S
H271 C277 0.930 . S
C272 H258 0.930 . S
C272 C270 1.395 . S
C272 C275 1.403 . S
C273 C270 1.403 . S
C273 C274 1.524 . S
C273 C277 1.400 . S
C274 H259 0.960 . S
C274 H260 0.960 . S
C274 H261 0.960 1_455 S
C274 C273 1.524 . S
C275 C272 1.403 . S
C275 C276 1.392 . S
C275 C279 1.495 . S
C276 C275 1.392 . S
C276 C277 1.385 . S
C276 C278 1.478 . S
C277 H271 0.930 . S
C277 C273 1.400 . S
C277 C276 1.385 . S
C278 C276 1.478 . S
C278 C280 1.381 . S
C278 C284 1.383 1_455 S
C279 C275 1.495 . S
C279 H285 0.959 . S
C279 H286 0.961 . S
C279 H287 0.960 . S
C280 C278 1.381 . S
C280 C281 1.394 . S
C280 H288 0.930 . S
C281 C280 1.394 . S
C281 C282 1.383 . S
C281 H289 0.929 . S
C282 C281 1.383 . S
C282 C283 1.377 1_455 S
C283 H267 0.930 . S
C283 C282 1.377 1_655 S
C283 C284 1.379 . S
C284 H268 0.931 . S
C284 C278 1.383 1_655 S
C284 C283 1.379 . S
H285 C279 0.959 . S
H286 C279 0.961 . S
H287 C279 0.960 . S
H288 C280 0.930 . S
H289 C281 0.929 . S
H290 C298 0.929 . S
H291 C300 0.930 . S
H292 C302 0.930 1_565 S
H293 C305 0.938 . S
H294 C308 0.930 . S
H295 C310 0.960 . S
H296 C310 0.960 . S
H297 C310 0.960 . S
C298 H290 0.929 . S
C298 C299 1.377 . S
C298 C300 1.384 . S
C299 C298 1.377 . S
C299 C305 1.382 1_545 S
C300 H291 0.930 . S
C300 C298 1.384 . S
C300 C301 1.372 . S
C301 C300 1.372 . S
C301 C302 1.400 . S
C301 C306 1.490 . S
C302 H292 0.930 1_545 S
C302 C301 1.400 . S
C302 C305 1.385 1_545 S
H303 C319 0.930 . S
H304 C320 0.931 . S
C305 H293 0.938 . S
C305 C299 1.382 1_565 S
C305 C302 1.385 1_565 S
C306 C301 1.490 . S
C306 C308 1.395 . S
C306 C309 1.403 . S
H307 C313 0.930 . S
C308 H294 0.930 . S
C308 C306 1.395 . S
C308 C311 1.403 . S
C309 C306 1.403 . S
C309 C310 1.524 . S
C309 C313 1.400 . S
C310 H295 0.960 . S
C310 H296 0.960 . S
C310 H297 0.960 . S
C310 C309 1.524 . S
C311 C308 1.403 . S
C311 C312 1.392 . S
C311 C315 1.495 1_545 S
C312 C311 1.392 . S
C312 C313 1.385 . S
C312 C314 1.478 . S
C313 H307 0.930 . S
C313 C309 1.400 . S
C313 C312 1.385 . S
C314 C312 1.478 . S
C314 C316 1.381 . S
C314 C320 1.383 1_545 S
C315 C311 1.495 1_565 S
C315 H321 0.959 . S
C315 H322 0.961 . S
C315 H323 0.960 1_565 S
C316 C314 1.381 . S
C316 C317 1.394 . S
C316 H324 0.930 . S
C317 C316 1.394 . S
C317 C318 1.383 . S
C317 H325 0.929 . S
C318 C317 1.383 . S
C318 C319 1.377 1_545 S
C319 H303 0.930 . S
C319 C318 1.377 1_565 S
C319 C320 1.379 . S
C320 H304 0.931 . S
C320 C314 1.383 1_565 S
C320 C319 1.379 . S
H321 C315 0.959 . S
H322 C315 0.961 . S
H323 C315 0.960 1_545 S
H324 C316 0.930 . S
H325 C317 0.929 . S
H326 C334 0.929 . S
H327 C336 0.930 . S
H328 C338 0.930 . S
H329 C341 0.929 . S
H330 C344 0.930 . S
H331 C346 0.960 . S
H332 C346 0.960 . S
H333 C346 0.960 . S
C334 H326 0.929 . S
C334 C335 1.377 1_655 S
C334 C336 1.384 . S
C335 C334 1.377 1_455 S
C335 C341 1.390 . S
C336 H327 0.930 . S
C336 C334 1.384 . S
C336 C337 1.372 1_655 S
C337 C336 1.372 1_455 S
C337 C338 1.400 . S
C337 C342 1.490 . S
C338 H328 0.930 . S
C338 C337 1.400 . S
C338 C341 1.386 . S
H339 C355 0.930 . S
H340 C356 0.931 . S
C341 H329 0.929 . S
C341 C335 1.390 . S
C341 C338 1.386 . S
C342 C337 1.490 . S
C342 C344 1.395 1_455 S
C342 C345 1.403 . S
H343 C349 0.930 . S
C344 H330 0.930 . S
C344 C342 1.395 1_655 S
C344 C347 1.403 . S
C345 C342 1.403 . S
C345 C346 1.524 . S
C345 C349 1.400 . S
C346 H331 0.960 . S
C346 H332 0.960 . S
C346 H333 0.960 . S
C346 C345 1.524 . S
C347 C344 1.403 . S
C347 C348 1.392 1_655 S
C347 C351 1.495 . S
C348 C347 1.392 1_455 S
C348 C349 1.385 . S
C348 C350 1.478 . S
C349 H343 0.930 . S
C349 C345 1.400 . S
C349 C348 1.385 . S
C350 C348 1.478 . S
C350 C352 1.381 1_455 S
C350 C356 1.383 . S
C351 C347 1.495 . S
C351 H357 0.959 . S
C351 H358 0.946 1_655 S
C351 H359 0.960 . S
C352 C350 1.381 1_655 S
C352 C353 1.394 . S
C352 H360 0.930 . S
C353 C352 1.394 . S
C353 C354 1.383 1_655 S
C353 H361 0.929 . S
C354 C353 1.383 1_455 S
C354 C355 1.377 . S
C355 H339 0.930 . S
C355 C354 1.377 . S
C355 C356 1.379 . S
C356 H340 0.931 . S
C356 C350 1.383 . S
C356 C355 1.379 . S
H357 C351 0.959 . S
H358 C351 0.946 1_455 S
H359 C351 0.960 . S
H360 C352 0.930 . S
H361 C353 0.929 . S
H362 C370 0.929 . S
H363 C372 0.930 . S
H364 C374 0.930 . S
H365 C377 0.929 . S
H366 C380 0.930 . S
H367 C382 0.960 1_565 S
H368 C382 0.960 . S
H369 C382 0.960 1_565 S
C370 H362 0.929 . S
C370 C371 1.377 . S
C370 C372 1.384 . S
C371 C370 1.377 . S
C371 C377 1.390 1_545 S
C372 H363 0.930 . S
C372 C370 1.384 . S
C372 C373 1.372 . S
C373 C372 1.372 . S
C373 C374 1.400 1_545 S
C373 C378 1.490 . S
C374 H364 0.930 . S
C374 C373 1.400 1_565 S
C374 C377 1.386 . S
H375 C391 0.930 . S
H376 C392 0.931 . S
C377 H365 0.929 . S
C377 C371 1.390 1_565 S
C377 C374 1.386 . S
C378 C373 1.490 . S
C378 C380 1.395 . S
C378 C381 1.403 . S
H379 C385 0.930 . S
C380 H366 0.930 . S
C380 C378 1.395 . S
C380 C383 1.403 . S
C381 C378 1.403 . S
C381 C382 1.524 . S
C381 C385 1.400 . S
C382 H367 0.960 1_545 S
C382 H368 0.960 . S
C382 H369 0.960 1_545 S
C382 C381 1.524 . S
C383 C380 1.403 . S
C383 C384 1.392 . S
C383 C387 1.495 . S
C384 C383 1.392 . S
C384 C385 1.385 . S
C384 C386 1.478 . S
C385 H379 0.930 . S
C385 C381 1.400 . S
C385 C384 1.385 . S
C386 C384 1.478 . S
C386 C388 1.381 . S
C386 C392 1.383 1_545 S
C387 C383 1.495 . S
C387 H393 0.959 . S
C387 H394 0.961 . S
C387 H395 0.960 . S
C388 C386 1.381 . S
C388 C389 1.394 . S
C388 H396 0.930 . S
C389 C388 1.394 . S
C389 C390 1.383 . S
C389 H397 0.929 . S
C390 C389 1.383 . S
C390 C391 1.377 1_545 S
C391 H375 0.930 . S
C391 C390 1.377 1_565 S
C391 C392 1.379 . S
C392 H376 0.931 . S
C392 C386 1.383 1_565 S
C392 C391 1.379 . S
H393 C387 0.959 . S
H394 C387 0.961 . S
H395 C387 0.960 . S
H396 C388 0.930 . S
H397 C389 0.929 . S
H398 C406 0.929 . S
H399 C408 0.930 . S
H400 C410 0.930 . S
H401 C413 0.929 . S
H402 C416 0.930 . S
H403 C418 0.960 . S
H404 C418 0.960 . S
H405 C418 0.960 1_455 S
C406 H398 0.929 . S
C406 C407 1.377 1_655 S
C406 C408 1.384 . S
C407 C406 1.377 1_455 S
C407 C413 1.390 . S
C408 H399 0.930 . S
C408 C406 1.384 . S
C408 C409 1.372 1_655 S
C409 C408 1.372 1_455 S
C409 C410 1.400 . S
C409 C414 1.490 . S
C410 H400 0.930 . S
C410 C409 1.400 . S
C410 C413 1.386 . S
H411 C427 0.930 . S
H412 C428 0.931 . S
C413 H401 0.929 . S
C413 C407 1.390 . S
C413 C410 1.386 . S
C414 C409 1.490 . S
C414 C416 1.395 . S
C414 C417 1.403 . S
H415 C421 0.930 . S
C416 H402 0.930 . S
C416 C414 1.395 . S
C416 C419 1.403 . S
C417 C414 1.403 . S
C417 C418 1.524 1_455 S
C417 C421 1.400 . S
C418 H403 0.960 . S
C418 H404 0.960 . S
C418 H405 0.960 1_655 S
C418 C417 1.524 1_655 S
C419 C416 1.403 . S
C419 C420 1.392 . S
C419 C423 1.495 . S
C420 C419 1.392 . S
C420 C421 1.385 . S
C420 C422 1.478 . S
C421 H415 0.930 . S
C421 C417 1.400 . S
C421 C420 1.385 . S
C422 C420 1.478 . S
C422 C424 1.381 1_455 S
C422 C428 1.383 . S
C423 C419 1.495 . S
C423 H429 0.959 . S
C423 H430 0.961 . S
C423 H431 0.960 . S
C424 C422 1.381 1_655 S
C424 C425 1.394 . S
C424 H432 0.930 . S
C425 C424 1.394 . S
C425 C426 1.383 1_655 S
C425 H433 0.929 . S
C426 C425 1.383 1_455 S
C426 C427 1.377 . S
C427 H411 0.930 . S
C427 C426 1.377 . S
C427 C428 1.379 . S
C428 H412 0.931 . S
C428 C422 1.383 . S
C428 C427 1.379 . S
H429 C423 0.959 . S
H430 C423 0.961 . S
H431 C423 0.960 . S
H432 C424 0.930 . S
H433 C425 0.929 . S
H434 C442 0.929 . S
H435 C444 0.930 . S
H436 C446 0.930 . S
H437 C449 0.929 . S
H438 C452 0.930 . S
H439 C454 0.960 . S
H440 C454 0.960 . S
H441 C454 0.960 . S
C442 H434 0.929 . S
C442 C443 1.377 . S
C442 C444 1.384 . S
C443 C442 1.377 . S
C443 C449 1.390 1_545 S
C444 H435 0.930 . S
C444 C442 1.384 . S
C444 C445 1.372 . S
C445 C444 1.372 . S
C445 C446 1.400 1_545 S
C445 C450 1.490 . S
C446 H436 0.930 . S
C446 C445 1.400 1_565 S
C446 C449 1.386 . S
H447 C463 0.930 . S
H448 C464 0.931 . S
C449 H437 0.929 . S
C449 C443 1.390 1_565 S
C449 C446 1.386 . S
C450 C445 1.490 . S
C450 C452 1.395 . S
C450 C453 1.403 . S
H451 C457 0.930 . S
C452 H438 0.930 . S
C452 C450 1.395 . S
C452 C455 1.403 . S
C453 C450 1.403 . S
C453 C454 1.524 . S
C453 C457 1.400 . S
C454 H439 0.960 . S
C454 H440 0.960 . S
C454 H441 0.960 . S
C454 C453 1.524 . S
C455 C452 1.403 . S
C455 C456 1.392 . S
C455 C459 1.495 . S
C456 C455 1.392 . S
C456 C457 1.385 . S
C456 C458 1.478 . S
C457 H451 0.930 . S
C457 C453 1.400 . S
C457 C456 1.385 . S
C458 C456 1.478 . S
C458 C460 1.381 . S
C458 C464 1.383 1_545 S
C459 C455 1.495 . S
C459 H465 0.956 1_545 S
C459 H466 0.961 1_545 S
C459 H467 0.960 . S
C460 C458 1.381 . S
C460 C461 1.394 . S
C460 H468 0.930 . S
C461 C460 1.394 . S
C461 C462 1.383 . S
C461 H469 0.929 . S
C462 C461 1.383 . S
C462 C463 1.377 1_545 S
C463 H447 0.930 . S
C463 C462 1.377 1_565 S
C463 C464 1.379 . S
C464 H448 0.931 . S
C464 C458 1.383 1_565 S
C464 C463 1.379 . S
H465 C459 0.956 1_565 S
H466 C459 0.961 1_565 S
H467 C459 0.960 . S
H468 C460 0.930 . S
H469 C461 0.929 . S
H470 C478 0.929 . S
H471 C480 0.930 . S
H472 C482 0.930 . S
H473 C485 0.929 . S
H474 C488 0.930 . S
H475 C490 0.960 . S
H476 C490 0.960 . S
H477 C490 0.960 . S
C478 H470 0.929 . S
C478 C479 1.377 . S
C478 C480 1.384 . S
C479 C478 1.377 . S
C479 C485 1.390 . S
C480 H471 0.930 . S
C480 C478 1.384 . S
C480 C481 1.372 . S
C481 C480 1.372 . S
C481 C482 1.400 . S
C481 C486 1.490 . S
C482 H472 0.930 . S
C482 C481 1.400 . S
C482 C485 1.386 . S
H483 C499 0.930 . S
H484 C500 0.931 . S
C485 H473 0.929 . S
C485 C479 1.390 . S
C485 C482 1.386 . S
C486 C481 1.490 . S
C486 C488 1.395 1_455 S
C486 C489 1.403 . S
H487 C493 0.930 . S
C488 H474 0.930 . S
C488 C486 1.395 1_655 S
C488 C491 1.403 . S
C489 C486 1.403 . S
C489 C490 1.524 . S
C489 C493 1.400 . S
C490 H475 0.960 . S
C490 H476 0.960 . S
C490 H477 0.960 . S
C490 C489 1.524 . S
C491 C488 1.403 . S
C491 C492 1.392 1_655 S
C491 C495 1.495 . S
C492 C491 1.392 1_455 S
C492 C493 1.385 . S
C492 C494 1.478 . S
C493 H487 0.930 . S
C493 C489 1.400 . S
C493 C492 1.385 . S
C494 C492 1.478 . S
C494 C496 1.381 . S
C494 C500 1.383 . S
C495 C491 1.495 . S
C495 H501 0.959 . S
C495 H502 0.961 . S
C495 H503 0.960 . S
C496 C494 1.381 . S
C496 C497 1.394 . S
C496 H504 0.930 . S
C497 C496 1.394 . S
C497 C498 1.383 . S
C497 H505 0.929 . S
C498 C497 1.383 . S
C498 C499 1.377 . S
C499 H483 0.930 . S
C499 C498 1.377 . S
C499 C500 1.379 . S
C500 H484 0.931 . S
C500 C494 1.383 . S
C500 C499 1.379 . S
H501 C495 0.959 . S
H502 C495 0.961 . S
H503 C495 0.960 . S
H504 C496 0.930 . S
H505 C497 0.929 . S
C246 C91 1.565 . S
C227 C17 1.482 . S
C282 C179 1.552 . S
C263 C40 1.485 . S
C318 C99 1.566 . S
C299 C9 1.488 . S
C354 C187 1.557 . S
C335 C33 1.459 . S
C390 C159 1.552 . S
C371 C19 1.485 . S
C426 C62 1.563 . S
C407 C38 1.477 . S
C462 C150 1.564 . S
C443 C12 1.457 . S
C479 C30 1.495 . S
C498 C71 1.568 . S
