# Generated by pormake.
# Topology nom, (4,4)-cn, num edge types: 1
# Building blocks:
#     Node 0, Type 0, BuildingBlock: NAWXER_clean_linker_0, # of connection points: 4
#     Node 1, Type 0, BuildingBlock: NAWXER_clean_linker_0, # of connection points: 4
#     Node 2, Type 0, BuildingBlock: NAWXER_clean_linker_0, # of connection points: 4
#     Node 3, Type 0, BuildingBlock: NAWXER_clean_linker_0, # of connection points: 4
#     Node 4, Type 0, BuildingBlock: NAWXER_clean_linker_0, # of connection points: 4
#     Node 5, Type 0, BuildingBlock: NAWXER_clean_linker_0, # of connection points: 4
#     Node 6, Type 1, BuildingBlock: CEKHIL_clean_sbu_0, # of connection points: 4
#     Node 7, Type 1, BuildingBlock: CEKHIL_clean_sbu_0, # of connection points: 4
#     Node 8, Type 1, BuildingBlock: CEKHIL_clean_sbu_0, # of connection points: 4
#     Node 9, Type 1, BuildingBlock: CEKHIL_clean_sbu_0, # of connection points: 4
#     Node 10, Type 1, BuildingBlock: CEKHIL_clean_sbu_0, # of connection points: 4
#     Node 11, Type 1, BuildingBlock: CEKHIL_clean_sbu_0, # of connection points: 4
#     Edge 12, Type (0, 1), BuildingBlock: MIFKUJ_clean_linker_0, # of connection points: 2
#     Edge 13, Type (0, 1), BuildingBlock: MIFKUJ_clean_linker_0, # of connection points: 2
#     Edge 14, Type (0, 1), BuildingBlock: MIFKUJ_clean_linker_0, # of connection points: 2
#     Edge 15, Type (0, 1), BuildingBlock: MIFKUJ_clean_linker_0, # of connection points: 2
#     Edge 16, Type (0, 1), BuildingBlock: MIFKUJ_clean_linker_0, # of connection points: 2
#     Edge 17, Type (0, 1), BuildingBlock: MIFKUJ_clean_linker_0, # of connection points: 2
#     Edge 18, Type (0, 1), BuildingBlock: MIFKUJ_clean_linker_0, # of connection points: 2
#     Edge 19, Type (0, 1), BuildingBlock: MIFKUJ_clean_linker_0, # of connection points: 2
#     Edge 20, Type (0, 1), BuildingBlock: MIFKUJ_clean_linker_0, # of connection points: 2
#     Edge 21, Type (0, 1), BuildingBlock: MIFKUJ_clean_linker_0, # of connection points: 2
#     Edge 22, Type (0, 1), BuildingBlock: MIFKUJ_clean_linker_0, # of connection points: 2
#     Edge 23, Type (0, 1), BuildingBlock: MIFKUJ_clean_linker_0, # of connection points: 2
#     Edge 24, Type (0, 1), BuildingBlock: MIFKUJ_clean_linker_0, # of connection points: 2
#     Edge 25, Type (0, 1), BuildingBlock: MIFKUJ_clean_linker_0, # of connection points: 2
#     Edge 26, Type (0, 1), BuildingBlock: MIFKUJ_clean_linker_0, # of connection points: 2
#     Edge 27, Type (0, 1), BuildingBlock: MIFKUJ_clean_linker_0, # of connection points: 2
#     Edge 28, Type (0, 1), BuildingBlock: MIFKUJ_clean_linker_0, # of connection points: 2
#     Edge 29, Type (0, 1), BuildingBlock: MIFKUJ_clean_linker_0, # of connection points: 2
#     Edge 30, Type (0, 1), BuildingBlock: MIFKUJ_clean_linker_0, # of connection points: 2
#     Edge 31, Type (0, 1), BuildingBlock: MIFKUJ_clean_linker_0, # of connection points: 2
#     Edge 32, Type (0, 1), BuildingBlock: MIFKUJ_clean_linker_0, # of connection points: 2
#     Edge 33, Type (0, 1), BuildingBlock: MIFKUJ_clean_linker_0, # of connection points: 2
#     Edge 34, Type (0, 1), BuildingBlock: MIFKUJ_clean_linker_0, # of connection points: 2
#     Edge 35, Type (0, 1), BuildingBlock: MIFKUJ_clean_linker_0, # of connection points: 2
# Relax obj value: 0.006
# Max RMSD: 0.109
# Mean RMSD: 0.075
data_MOF--net-nom--node1-CEKHIL_clean_sbu_0--node2-NAWXER_clean_linker_0--edge1-MIFKUJ_clean_linker_0
_symmetry_space_group_name_H-M    P1
_symmetry_Int_Tables_number       1
_symmetry_cell_setting            triclinic
loop_
_symmetry_equiv_pos_as_xyz
'x, y, z'
_cell_length_a     65.887769
_cell_length_b     65.169983
_cell_length_c     72.153203
_cell_angle_alpha  90.006356
_cell_angle_beta   89.997089
_cell_angle_gamma 121.07566
loop_
_atom_site_label
_atom_site_type_symbol
_atom_site_fract_x
_atom_site_fract_y
_atom_site_fract_z
_atom_type_partial_charge
C0 C 0.92417 0.51401 0.33937 0.0
C1 C 0.91299 0.49789 0.35406 0.0
C2 C 0.94747 0.52137 0.3345 0.0
C3 C 0.95979 0.51212 0.3438 0.0
C4 C 0.92557 0.48933 0.36384 0.0
C5 C 0.94876 0.49636 0.35873 0.0
C6 C 0.98452 0.51975 0.33864 0.0
C7 C 0.9401 0.48288 0.28863 0.0
C8 C 0.94641 0.49663 0.27235 0.0
C9 C 0.95505 0.49101 0.30408 0.0
C10 C 0.97622 0.51347 0.30378 0.0
C11 C 0.96788 0.5187 0.27181 0.0
C12 C 0.9826 0.52707 0.28739 0.0
C13 C 0.99241 0.52236 0.32004 0.0
C14 C 0.09671 0.55724 0.32707 0.0
C15 C 0.10604 0.57754 0.31553 0.0
C16 C 0.0727 0.5448 0.33196 0.0
C17 C 0.05766 0.55257 0.3255 0.0
C18 C 0.09076 0.58499 0.30894 0.0
C19 C 0.06683 0.57254 0.31377 0.0
C20 C 0.03233 0.54017 0.33069 0.0
C21 C 0.07523 0.57183 0.38257 0.0
C22 C 0.07121 0.55448 0.39602 0.0
C23 C 0.0599 0.56602 0.36747 0.0
C24 C 0.04043 0.54265 0.36536 0.0
C25 C 0.05136 0.53124 0.39406 0.0
C26 C 0.03607 0.52544 0.37893 0.0
C27 C 0.0243 0.53601 0.34924 0.0
H28 H 0.91501 0.52124 0.33186 0.0
H29 H 0.95585 0.53437 0.32348 0.0
H30 H 0.91732 0.47689 0.37523 0.0
H31 H 0.958 0.48929 0.36633 0.0
H32 H 0.92385 0.46557 0.28925 0.0
H33 H 0.9501 0.47959 0.31618 0.0
H34 H 0.97315 0.5296 0.25939 0.0
H35 H 0.99895 0.54427 0.28666 0.0
H36 H 0.10788 0.55079 0.33215 0.0
H37 H 0.06588 0.52912 0.34073 0.0
H38 H 0.09736 0.60073 0.30026 0.0
H39 H 0.05553 0.57882 0.30862 0.0
H40 H 0.0904 0.58986 0.38356 0.0
H41 H 0.06331 0.5798 0.35743 0.0
H42 H 0.04748 0.51757 0.40433 0.0
H43 H 0.02097 0.50738 0.3777 0.0
N44 N 1.00073 0.52614 0.35249 0.0
N45 N 0.01606 0.53299 0.31686 0.0
C46 C 0.42426 0.91473 0.49516 0.0
C47 C 0.43181 0.90587 0.50962 0.0
C48 C 0.43739 0.93894 0.49037 0.0
C49 C 0.45885 0.95458 0.49948 0.0
C50 C 0.45282 0.92154 0.51912 0.0
C51 C 0.46628 0.94567 0.51404 0.0
C52 C 0.47274 0.98046 0.49475 0.0
C53 C 0.47057 0.94114 0.44343 0.0
C54 C 0.45764 0.94302 0.4287 0.0
C55 C 0.47691 0.95636 0.45875 0.0
C56 C 0.47017 0.97356 0.45983 0.0
C57 C 0.4516 0.96082 0.42954 0.0
C58 C 0.45791 0.976 0.44491 0.0
C59 C 0.47612 0.98921 0.47635 0.0
C60 C 0.53891 0.09547 0.48337 0.0
C61 C 0.52493 0.10372 0.47547 0.0
C62 C 0.52896 0.07117 0.48753 0.0
C63 C 0.50503 0.0548 0.48358 0.0
C64 C 0.50099 0.08728 0.47155 0.0
C65 C 0.49119 0.06295 0.47537 0.0
C66 C 0.49425 0.02914 0.48791 0.0
C67 C 0.50384 0.06851 0.54162 0.0
C68 C 0.5197 0.06693 0.55374 0.0
C69 C 0.49481 0.05345 0.52616 0.0
C70 C 0.50153 0.03659 0.52251 0.0
C71 C 0.52603 0.04973 0.55021 0.0
C72 C 0.5169 0.03462 0.53482 0.0
C73 C 0.49235 0.02059 0.50617 0.0
H74 H 0.40782 0.90304 0.48792 0.0
H75 H 0.43052 0.94544 0.47974 0.0
H76 H 0.45887 0.91505 0.5304 0.0
H77 H 0.48252 0.95739 0.52149 0.0
H78 H 0.47542 0.9276 0.4433 0.0
H79 H 0.48694 0.95453 0.46985 0.0
H80 H 0.44206 0.96308 0.41828 0.0
H81 H 0.45282 0.98937 0.4453 0.0
H82 H 0.55742 0.10785 0.4865 0.0
H83 H 0.53994 0.06512 0.49376 0.0
H84 H 0.48995 0.09323 0.46529 0.0
H85 H 0.4727 0.05053 0.47218 0.0
H86 H 0.49866 0.0816 0.54396 0.0
H87 H 0.48251 0.05492 0.51711 0.0
H88 H 0.53789 0.04779 0.55945 0.0
H89 H 0.52211 0.02155 0.5324 0.0
N90 N 0.48149 0.99656 0.50891 0.0
N91 N 0.48627 0.0132 0.47367 0.0
C92 C 0.52668 0.45444 0.61271 0.0
C93 C 0.51236 0.44347 0.59707 0.0
C94 C 0.51771 0.4601 0.62815 0.0
C95 C 0.49407 0.45458 0.62845 0.0
C96 C 0.48882 0.43834 0.59728 0.0
C97 C 0.47982 0.44393 0.61278 0.0
C98 C 0.48457 0.46106 0.64462 0.0
C99 C 0.49793 0.40468 0.66624 0.0
C100 C 0.51692 0.41317 0.67876 0.0
C101 C 0.48905 0.41919 0.66099 0.0
C102 C 0.49896 0.44245 0.66819 0.0
C103 C 0.52682 0.43646 0.68597 0.0
C104 C 0.51772 0.45088 0.68089 0.0
C105 C 0.48892 0.45744 0.66315 0.0
C106 C 0.43377 0.48986 0.7086 0.0
C107 C 0.45164 0.50612 0.72068 0.0
C108 C 0.43942 0.48029 0.69346 0.0
C109 C 0.46306 0.48698 0.69007 0.0
C110 C 0.47514 0.51213 0.71753 0.0
C111 C 0.48076 0.50257 0.70244 0.0
C112 C 0.46972 0.47783 0.67384 0.0
C113 C 0.43943 0.52165 0.65309 0.0
C114 C 0.42055 0.50938 0.6405 0.0
C115 C 0.45406 0.51268 0.65762 0.0
C116 C 0.44967 0.49085 0.65015 0.0
C117 C 0.41703 0.48816 0.63234 0.0
C118 C 0.43136 0.479 0.63716 0.0
C119 C 0.46406 0.48017 0.65533 0.0
H120 H 0.54484 0.45854 0.61309 0.0
H121 H 0.52939 0.46906 0.63977 0.0
H122 H 0.47742 0.43031 0.58536 0.0
H123 H 0.46166 0.43984 0.61253 0.0
H124 H 0.49003 0.38685 0.6604 0.0
H125 H 0.47423 0.41211 0.65147 0.0
H126 H 0.54132 0.44335 0.69579 0.0
H127 H 0.52544 0.46867 0.68676 0.0
H128 H 0.4155 0.48488 0.71065 0.0
H129 H 0.4254 0.46788 0.68429 0.0
H130 H 0.48924 0.52419 0.72679 0.0
H131 H 0.49905 0.5077 0.70023 0.0
H132 H 0.44275 0.53799 0.65973 0.0
H133 H 0.46865 0.52276 0.6671 0.0
H134 H 0.40321 0.47855 0.62217 0.0
H135 H 0.42788 0.46238 0.63088 0.0
N136 N 0.47189 0.47184 0.64146 0.0
N137 N 0.4818 0.46642 0.67702 0.0
C138 C 0.92135 0.42353 0.82855 0.0
C139 C 0.91206 0.43265 0.81558 0.0
C140 C 0.94529 0.43658 0.83335 0.0
C141 C 0.96049 0.45913 0.8254 0.0
C142 C 0.92737 0.4552 0.80755 0.0
C143 C 0.9514 0.46823 0.81233 0.0
C144 C 0.98608 0.47245 0.82994 0.0
C145 C 0.94775 0.47278 0.88076 0.0
C146 C 0.94927 0.46005 0.89589 0.0
C147 C 0.96264 0.47818 0.86543 0.0
C148 C 0.97917 0.47068 0.86476 0.0
C149 C 0.96636 0.45323 0.89543 0.0
C150 C 0.9812 0.45858 0.88006 0.0
C151 C 0.99463 0.47581 0.84832 0.0
C152 C 0.10134 0.52687 0.83716 0.0
C153 C 0.10643 0.51399 0.85014 0.0
C154 C 0.07791 0.52002 0.83313 0.0
C155 C 0.05898 0.49961 0.84146 0.0
C156 C 0.08738 0.49424 0.8591 0.0
C157 C 0.06399 0.48711 0.85475 0.0
C158 C 0.03391 0.49118 0.83685 0.0
C159 C 0.06856 0.49224 0.78216 0.0
C160 C 0.07082 0.51074 0.77059 0.0
C161 C 0.0538 0.48508 0.79776 0.0
C162 C 0.04095 0.4962 0.80202 0.0
C163 C 0.05775 0.52168 0.77498 0.0
C164 C 0.04278 0.51428 0.79039 0.0
C165 C 0.02547 0.48916 0.81851 0.0
H166 H 0.91025 0.406 0.83466 0.0
H167 H 0.95203 0.42881 0.84302 0.0
H168 H 0.92078 0.46282 0.79761 0.0
H169 H 0.96287 0.48549 0.8059 0.0
H170 H 0.93477 0.47823 0.88058 0.0
H171 H 0.96117 0.4882 0.85407 0.0
H172 H 0.96834 0.44381 0.907 0.0
H173 H 0.99404 0.45291 0.88001 0.0
H174 H 0.1154 0.5421 0.82986 0.0
H175 H 0.0747 0.53072 0.82345 0.0
H176 H 0.09046 0.48426 0.86957 0.0
H177 H 0.04974 0.47158 0.86167 0.0
H178 H 0.07796 0.48308 0.7791 0.0
H179 H 0.05236 0.47085 0.80646 0.0
H180 H 0.05931 0.53628 0.76671 0.0
H181 H 0.03301 0.52308 0.79348 0.0
N182 N 0.00188 0.47973 0.81576 0.0
N183 N 0.01813 0.48458 0.85105 0.0
C184 C 0.50519 0.9164 0.98677 0.0
C185 C 0.48518 0.90503 0.97524 0.0
C186 C 0.51501 0.9404 0.99165 0.0
C187 C 0.50501 0.95354 0.9851 0.0
C188 C 0.47504 0.91811 0.96879 0.0
C189 C 0.48506 0.94229 0.97352 0.0
C190 C 0.5163 0.97929 0.98958 0.0
C191 C 0.48061 0.9404 0.04173 0.0
C192 C 0.49639 0.94063 0.05502 0.0
C193 C 0.48904 0.95572 0.02644 0.0
C194 C 0.5134 0.97185 0.02416 0.0
C195 C 0.52085 0.95699 0.0527 0.0
C196 C 0.52922 0.97262 0.03753 0.0
C197 C 0.52221 0.98795 0.00788 0.0
C198 C 0.56969 0.09561 0.99749 0.0
C199 C 0.58873 0.10291 0.0099 0.0
C200 C 0.55442 0.07133 0.99344 0.0
C201 C 0.55832 0.05388 0.00121 0.0
C202 C 0.59179 0.08521 0.01832 0.0
C203 C 0.57684 0.06104 0.01398 0.0
C204 C 0.54319 0.02809 0.99652 0.0
C205 C 0.57477 0.06713 0.94293 0.0
C206 C 0.55767 0.06532 0.93025 0.0
C207 C 0.56805 0.05205 0.95838 0.0
C208 C 0.54405 0.03511 0.96164 0.0
C209 C 0.53373 0.04784 0.93331 0.0
C210 C 0.52702 0.03283 0.9488 0.0
C211 C 0.53653 0.01939 0.97817 0.0
H212 H 0.51329 0.90671 0.99201 0.0
H213 H 0.53072 0.94884 1.00027 0.0
H214 H 0.45974 0.90981 0.95973 0.0
H215 H 0.47725 0.95219 0.96818 0.0
H216 H 0.46165 0.92864 0.04321 0.0
H217 H 0.47647 0.95515 0.01646 0.0
H218 H 0.53361 0.95755 0.06245 0.0
H219 H 0.5481 0.98497 0.03601 0.0
H220 H 0.56671 0.10861 0.99067 0.0
H221 H 0.53971 0.06629 0.98412 0.0
H222 H 0.6057 0.08993 0.0284 0.0
H223 H 0.57997 0.04792 0.02046 0.0
H224 H 0.59334 0.08045 0.94108 0.0
H225 H 0.58158 0.05376 0.96786 0.0
H226 H 0.52015 0.04562 0.92366 0.0
H227 H 0.50844 0.01963 0.9509 0.0
N228 N 0.52337 0.9953 0.97543 0.0
N229 N 0.53568 0.01197 0.01067 0.0
C230 C 0.52173 0.60395 0.16433 0.0
C231 C 0.5034 0.59609 0.17742 0.0
C232 C 0.53011 0.58905 0.15897 0.0
C233 C 0.52044 0.56609 0.1667 0.0
C234 C 0.49362 0.57304 0.18505 0.0
C235 C 0.50229 0.55828 0.17991 0.0
C236 C 0.5303 0.5509 0.1619 0.0
C237 C 0.48958 0.55071 0.11215 0.0
C238 C 0.50256 0.55914 0.0956 0.0
C239 C 0.49948 0.54636 0.1277 0.0
C240 C 0.52281 0.55093 0.12719 0.0
C241 C 0.5257 0.56325 0.09497 0.0
C242 C 0.5357 0.55918 0.1106 0.0
C243 C 0.53333 0.54572 0.14343 0.0
C244 C 0.57948 0.48625 0.15382 0.0
C245 C 0.5976 0.49737 0.14047 0.0
C246 C 0.56504 0.49553 0.15803 0.0
C247 C 0.56883 0.51656 0.14939 0.0
C248 C 0.60045 0.51769 0.13117 0.0
C249 C 0.58628 0.52716 0.13561 0.0
C250 C 0.55484 0.52774 0.1544 0.0
C251 C 0.59088 0.52498 0.2068 0.0
C252 C 0.57461 0.51037 0.22051 0.0
C253 C 0.58333 0.53232 0.19139 0.0
C254 C 0.5593 0.52491 0.18929 0.0
C255 C 0.55068 0.50355 0.21855 0.0
C256 C 0.54316 0.51086 0.20315 0.0
C257 C 0.55072 0.53189 0.1729 0.0
H258 H 0.5295 0.62161 0.15821 0.0
H259 H 0.54444 0.59561 0.14901 0.0
H260 H 0.4796 0.56665 0.19528 0.0
H261 H 0.49478 0.54073 0.18619 0.0
H262 H 0.47155 0.54693 0.11294 0.0
H263 H 0.48865 0.53897 0.13998 0.0
H264 H 0.53617 0.56986 0.08243 0.0
H265 H 0.5536 0.56259 0.10972 0.0
H266 H 0.5767 0.47062 0.16133 0.0
H267 H 0.55112 0.4864 0.16821 0.0
H268 H 0.61367 0.52636 0.12041 0.0
H269 H 0.58927 0.54312 0.12847 0.0
H270 H 0.6095 0.53089 0.20804 0.0
H271 H 0.59621 0.54368 0.18108 0.0
H272 H 0.53761 0.49209 0.22871 0.0
H273 H 0.52457 0.50509 0.20187 0.0
N274 N 0.5387 0.54338 0.1759 0.0
N275 N 0.54585 0.53472 0.14043 0.0
Co276 Co 0.63067 0.38486 0.40711 0.0
O277 O 0.65477 0.38643 0.3911 0.0
O278 O 0.66019 0.41471 0.41101 0.0
C279 C 0.617 0.34724 0.41721 0.0
O280 O 0.61063 0.38922 0.4265 0.0
Co281 Co 0.57755 0.34862 0.40015 0.0
O282 O 0.57337 0.35773 0.42545 0.0
C283 C 0.60298 0.39116 0.37611 0.0
C284 C 0.66907 0.4071 0.39858 0.0
C285 C 0.58954 0.37678 0.4332 0.0
O286 O 0.62103 0.39974 0.38701 0.0
O287 O 0.5846 0.37029 0.37825 0.0
O288 O 0.63558 0.36521 0.42476 0.0
O289 O 0.60852 0.35229 0.40293 0.0
Co290 Co 0.25697 0.62671 0.58322 0.0
O291 O 0.28083 0.62808 0.59939 0.0
O292 O 0.25736 0.59725 0.58142 0.0
C293 C 0.28014 0.66355 0.57109 0.0
O294 O 0.2314 0.61936 0.56388 0.0
Co295 Co 0.23882 0.6617 0.58775 0.0
O296 O 0.22591 0.6506 0.56253 0.0
C297 C 0.22173 0.62075 0.61335 0.0
C298 C 0.27468 0.60691 0.59332 0.0
C299 C 0.22276 0.63098 0.55603 0.0
O300 O 0.23288 0.61284 0.60393 0.0
O301 O 0.22282 0.64053 0.60971 0.0
O302 O 0.28102 0.64541 0.56465 0.0
O303 O 0.26682 0.65927 0.58547 0.0
Co304 Co 0.63588 0.25291 0.74236 0.0
O305 O 0.63693 0.2765 0.72576 0.0
O306 O 0.60642 0.25273 0.74372 0.0
C307 C 0.67217 0.27709 0.75459 0.0
O308 O 0.62893 0.22754 0.76204 0.0
Co309 Co 0.67146 0.23557 0.73842 0.0
O310 O 0.65936 0.22121 0.76317 0.0
C311 C 0.6322 0.21908 0.71167 0.0
C312 C 0.61587 0.27006 0.73167 0.0
C313 C 0.64005 0.21828 0.76969 0.0
O314 O 0.62275 0.22814 0.7219 0.0
O315 O 0.65255 0.22188 0.71509 0.0
O316 O 0.65401 0.27783 0.76069 0.0
O317 O 0.66818 0.26334 0.74046 0.0
Co318 Co 0.3874 0.6257 0.90699 0.0
O319 O 0.36533 0.62584 0.88965 0.0
O320 O 0.35762 0.59542 0.90799 0.0
C321 C 0.39945 0.66223 0.91889 0.0
O322 O 0.40527 0.61953 0.92729 0.0
Co323 Co 0.44111 0.66294 0.90397 0.0
O324 O 0.4422 0.65155 0.92922 0.0
C325 C 0.41878 0.6228 0.87741 0.0
C326 C 0.3502 0.60442 0.89548 0.0
C327 C 0.4255 0.63164 0.93548 0.0
O328 O 0.39968 0.61298 0.88717 0.0
O329 O 0.43662 0.6436 0.88099 0.0
O330 O 0.38004 0.64356 0.92473 0.0
O331 O 0.40976 0.65855 0.90515 0.0
Co332 Co 0.76312 0.38236 0.08356 0.0
O333 O 0.73965 0.38051 0.10048 0.0
O334 O 0.76241 0.41166 0.08255 0.0
C335 C 0.73994 0.34569 0.07113 0.0
O336 O 0.78815 0.39029 0.06358 0.0
Co337 Co 0.78195 0.34766 0.08656 0.0
O338 O 0.7944 0.3596 0.06139 0.0
C339 C 0.7991 0.38791 0.11287 0.0
C340 C 0.74544 0.40172 0.09472 0.0
C341 C 0.79704 0.37917 0.05529 0.0
O342 O 0.78784 0.39603 0.10384 0.0
O343 O 0.79795 0.36821 0.1088 0.0
O344 O 0.73841 0.36374 0.06538 0.0
O345 O 0.7538 0.3499 0.08513 0.0
Co346 Co 0.38243 0.75331 0.24269 0.0
O347 O 0.38266 0.73043 0.22605 0.0
O348 O 0.41259 0.75485 0.24421 0.0
C349 C 0.34628 0.72797 0.25467 0.0
O350 O 0.38806 0.77825 0.26236 0.0
Co351 Co 0.34512 0.76837 0.23834 0.0
O352 O 0.35648 0.78277 0.26324 0.0
C353 C 0.38463 0.7861 0.21181 0.0
C354 C 0.40389 0.73767 0.23201 0.0
C355 C 0.37605 0.78657 0.26992 0.0
O356 O 0.3949 0.77822 0.22235 0.0
O357 O 0.36372 0.78204 0.21486 0.0
O358 O 0.36482 0.72812 0.26099 0.0
O359 O 0.3499 0.74155 0.2405 0.0
H360 H 0.12532 0.59714 0.28183 0.0
H361 H 0.16707 0.62115 0.2736 0.0
H362 H 0.1865 0.61177 0.32869 0.0
H363 H 0.14456 0.58864 0.33736 0.0
H364 H 0.21366 0.65674 0.31836 0.0
H365 H 0.19137 0.58165 0.29115 0.0
H366 H 0.16727 0.54505 0.27266 0.0
H367 H 0.18129 0.58756 0.22357 0.0
H368 H 0.20521 0.62446 0.2418 0.0
H369 H 0.33447 0.70342 0.28749 0.0
H370 H 0.29449 0.6766 0.29979 0.0
H371 H 0.26441 0.69061 0.25184 0.0
H372 H 0.30418 0.71764 0.23963 0.0
H373 H 0.24441 0.64085 0.26075 0.0
H374 H 0.26496 0.71618 0.28979 0.0
H375 H 0.29002 0.75187 0.30892 0.0
H376 H 0.28037 0.70694 0.35568 0.0
H377 H 0.25555 0.67093 0.33671 0.0
C378 C 0.13843 0.6003 0.29228 0.0
C379 C 0.13154 0.591 0.31029 0.0
C380 C 0.16234 0.6138 0.28747 0.0
C381 C 0.17997 0.618 0.30043 0.0
C382 C 0.17321 0.60867 0.31842 0.0
C383 C 0.14922 0.59525 0.3233 0.0
C384 C 0.20539 0.63273 0.29522 0.0
C385 C 0.22048 0.65298 0.30595 0.0
C386 C 0.2143 0.628 0.27894 0.0
C387 C 0.19994 0.60585 0.26788 0.0
C388 C 0.18917 0.58321 0.27643 0.0
C389 C 0.17556 0.56241 0.26599 0.0
C390 C 0.17271 0.56398 0.24696 0.0
C391 C 0.1835 0.58637 0.23832 0.0
C392 C 0.19711 0.60724 0.24869 0.0
C393 C 0.31932 0.70086 0.27964 0.0
C394 C 0.32241 0.71258 0.2626 0.0
C395 C 0.29655 0.68559 0.28669 0.0
C396 C 0.27657 0.68165 0.27669 0.0
C397 C 0.27964 0.6934 0.25972 0.0
C398 C 0.30236 0.7089 0.25281 0.0
C399 C 0.25235 0.66497 0.28366 0.0
C400 C 0.23756 0.64437 0.27326 0.0
C401 C 0.24385 0.66921 0.30034 0.0
C402 C 0.25865 0.69085 0.31177 0.0
C403 C 0.26837 0.71389 0.3041 0.0
C404 C 0.2825 0.73419 0.31492 0.0
C405 C 0.28685 0.73168 0.33349 0.0
C406 C 0.27702 0.70886 0.34128 0.0
C407 C 0.26293 0.6885 0.3305 0.0
H408 H 0.29778 0.74741 0.34185 0.0
H409 H 0.16217 0.54786 0.2389 0.0
H410 H 0.50905 0.133 0.4863 0.0
H411 H 0.52519 0.175 0.47782 0.0
H412 H 0.57956 0.17367 0.44534 0.0
H413 H 0.56406 0.132 0.45459 0.0
H414 H 0.59823 0.21411 0.46139 0.0
H415 H 0.5276 0.16829 0.42575 0.0
H416 H 0.48521 0.13914 0.42037 0.0
H417 H 0.46637 0.18179 0.4532 0.0
H418 H 0.50867 0.21105 0.45898 0.0
H419 H 0.58647 0.30582 0.39922 0.0
H420 H 0.57133 0.26484 0.4099 0.0
H421 H 0.60796 0.29195 0.46194 0.0
H422 H 0.62406 0.33299 0.45092 0.0
H423 H 0.54401 0.23843 0.4355 0.0
H424 H 0.62475 0.25537 0.47982 0.0
H425 H 0.66809 0.28293 0.48068 0.0
H426 H 0.66851 0.29538 0.4222 0.0
H427 H 0.62523 0.26767 0.42096 0.0
C428 C 0.52453 0.1418 0.47743 0.0
C429 C 0.53529 0.12935 0.47099 0.0
C430 C 0.53367 0.16573 0.47252 0.0
C431 C 0.55332 0.17742 0.46061 0.0
C432 C 0.56439 0.16509 0.45452 0.0
C433 C 0.55553 0.1413 0.45977 0.0
C434 C 0.56208 0.20232 0.45421 0.0
C435 C 0.58635 0.21941 0.45575 0.0
C436 C 0.54673 0.20923 0.44646 0.0
C437 C 0.52129 0.19174 0.44294 0.0
C438 C 0.51441 0.17137 0.43192 0.0
C439 C 0.49041 0.15484 0.42879 0.0
C440 C 0.47311 0.15858 0.43648 0.0
C441 C 0.47979 0.1789 0.44728 0.0
C442 C 0.50377 0.19547 0.45048 0.0
C443 C 0.59127 0.30301 0.41295 0.0
C444 C 0.60661 0.32254 0.42418 0.0
C445 C 0.58256 0.27958 0.41906 0.0
C446 C 0.58879 0.27523 0.43662 0.0
C447 C 0.60338 0.29479 0.44815 0.0
C448 C 0.61247 0.31824 0.44189 0.0
C449 C 0.58016 0.25024 0.44272 0.0
C450 C 0.55589 0.23315 0.44118 0.0
C451 C 0.59566 0.24312 0.44979 0.0
C452 C 0.62172 0.25965 0.45036 0.0
C453 C 0.63411 0.26394 0.46715 0.0
C454 C 0.65866 0.27959 0.4677 0.0
C455 C 0.67103 0.29097 0.45152 0.0
C456 C 0.65889 0.28664 0.43474 0.0
C457 C 0.63435 0.27098 0.43411 0.0
H458 H 0.69003 0.30309 0.45198 0.0
H459 H 0.45453 0.14575 0.43404 0.0
H460 H 0.43168 0.55624 0.63751 0.0
H461 H 0.40497 0.5708 0.63061 0.0
H462 H 0.34661 0.49813 0.62529 0.0
H463 H 0.37274 0.48324 0.63318 0.0
H464 H 0.35256 0.53153 0.59511 0.0
H465 H 0.34663 0.52329 0.66172 0.0
H466 H 0.36284 0.53006 0.69342 0.0
H467 H 0.39525 0.60605 0.68619 0.0
H468 H 0.37953 0.59974 0.65432 0.0
H469 H 0.26229 0.56013 0.58811 0.0
H470 H 0.28513 0.54159 0.59697 0.0
H471 H 0.33995 0.60908 0.61953 0.0
H472 H 0.31682 0.62728 0.61147 0.0
H473 H 0.33444 0.57604 0.6415 0.0
H474 H 0.34397 0.5867 0.57567 0.0
H475 H 0.33113 0.58262 0.54309 0.0
H476 H 0.29613 0.50604 0.54738 0.0
H477 H 0.30851 0.50967 0.58009 0.0
C478 C 0.41312 0.54326 0.63518 0.0
C479 C 0.40448 0.51849 0.63595 0.0
C480 C 0.39792 0.55166 0.63108 0.0
C481 C 0.37387 0.53551 0.62745 0.0
C482 C 0.36518 0.51085 0.62795 0.0
C483 C 0.38024 0.50241 0.63235 0.0
C484 C 0.35776 0.5444 0.62318 0.0
C485 C 0.34826 0.54097 0.60528 0.0
C486 C 0.35279 0.55724 0.63636 0.0
C487 C 0.3621 0.56105 0.65557 0.0
C488 C 0.35739 0.54146 0.66683 0.0
C489 C 0.36645 0.54521 0.68484 0.0
C490 C 0.38012 0.56847 0.6918 0.0
C491 C 0.38469 0.58804 0.68077 0.0
C492 C 0.37569 0.58438 0.66274 0.0
C493 C 0.27916 0.57092 0.59506 0.0
C494 C 0.28778 0.59516 0.59906 0.0
C495 C 0.29228 0.56037 0.60001 0.0
C496 C 0.3145 0.57402 0.60867 0.0
C497 C 0.32288 0.59812 0.6129 0.0
C498 C 0.30964 0.60854 0.60823 0.0
C499 C 0.32923 0.56344 0.61325 0.0
C500 C 0.33854 0.56652 0.63126 0.0
C501 C 0.33443 0.55069 0.60003 0.0
C502 C 0.32693 0.54845 0.58038 0.0
C503 C 0.33337 0.56899 0.56971 0.0
C504 C 0.32621 0.56675 0.55121 0.0
C505 C 0.31276 0.54408 0.54319 0.0
C506 C 0.3065 0.52359 0.55363 0.0
C507 C 0.3136 0.52572 0.57214 0.0
H508 H 0.30724 0.54239 0.52886 0.0
H509 H 0.38712 0.57134 0.70575 0.0
H510 H 0.87357 0.40516 0.83779 0.0
H511 H 0.83233 0.37902 0.82827 0.0
H512 H 0.8517 0.40151 0.77155 0.0
H513 H 0.89307 0.42731 0.78085 0.0
H514 H 0.81011 0.39918 0.78168 0.0
H515 H 0.84466 0.34972 0.78478 0.0
H516 H 0.86613 0.33249 0.79983 0.0
H517 H 0.81257 0.30112 0.84199 0.0
H518 H 0.79095 0.31848 0.82733 0.0
H519 H 0.71184 0.27569 0.74636 0.0
H520 H 0.7521 0.30235 0.75786 0.0
H521 H 0.72699 0.33893 0.79212 0.0
H522 H 0.68662 0.3123 0.78069 0.0
H523 H 0.77158 0.31173 0.79292 0.0
H524 H 0.76995 0.3993 0.79033 0.0
H525 H 0.74939 0.41637 0.77357 0.0
H526 H 0.73868 0.37084 0.72697 0.0
H527 H 0.75946 0.35377 0.74335 0.0
C528 C 0.8691 0.4045 0.82327 0.0
C529 C 0.8867 0.41821 0.81006 0.0
C530 C 0.8455 0.38963 0.81788 0.0
C531 C 0.83903 0.38818 0.79919 0.0
C532 C 0.85634 0.40243 0.78606 0.0
C533 C 0.87997 0.41723 0.79142 0.0
C534 C 0.81437 0.37114 0.79321 0.0
C535 C 0.80164 0.38008 0.78421 0.0
C536 C 0.80345 0.34619 0.79631 0.0
C537 C 0.81632 0.33559 0.80506 0.0
C538 C 0.83756 0.3393 0.79734 0.0
C539 C 0.84974 0.32949 0.80578 0.0
C540 C 0.84075 0.31577 0.82188 0.0
C541 C 0.81953 0.31178 0.82953 0.0
C542 C 0.8073 0.32159 0.82116 0.0
C543 C 0.71486 0.28929 0.75644 0.0
C544 C 0.69612 0.292 0.76255 0.0
C545 C 0.73785 0.30445 0.76304 0.0
C546 C 0.74254 0.32273 0.77569 0.0
C547 C 0.72376 0.32507 0.78221 0.0
C548 C 0.70072 0.3098 0.77571 0.0
C549 C 0.76723 0.3398 0.78159 0.0
C550 C 0.77997 0.33086 0.79055 0.0
C551 C 0.77825 0.36471 0.77826 0.0
C552 C 0.76602 0.37508 0.76817 0.0
C553 C 0.76327 0.393 0.77649 0.0
C554 C 0.75157 0.40267 0.76705 0.0
C555 C 0.74266 0.39463 0.74924 0.0
C556 C 0.74551 0.37698 0.7408 0.0
C557 C 0.75721 0.36728 0.75016 0.0
H558 H 0.73359 0.40212 0.74197 0.0
H559 H 0.85021 0.30819 0.8284 0.0
H560 H 0.43891 0.86831 0.97574 0.0
H561 H 0.42329 0.82636 0.96691 0.0
H562 H 0.49395 0.84313 0.95312 0.0
H563 H 0.50961 0.88494 0.96192 0.0
H564 H 0.45956 0.81572 0.92602 0.0
H565 H 0.47113 0.8161 0.9923 0.0
H566 H 0.46539 0.82378 0.02478 0.0
H567 H 0.39023 0.7763 0.01918 0.0
H568 H 0.39551 0.7686 0.98657 0.0
H569 H 0.44374 0.70148 0.91536 0.0
H570 H 0.45761 0.74218 0.92611 0.0
H571 H 0.38865 0.71849 0.94953 0.0
H572 H 0.37509 0.67749 0.93955 0.0
H573 H 0.42039 0.7495 0.97164 0.0
H574 H 0.40708 0.74821 0.90645 0.0
H575 H 0.41077 0.74074 0.87347 0.0
H576 H 0.48591 0.78995 0.87597 0.0
H577 H 0.48271 0.79748 0.90905 0.0
C578 C 0.45104 0.86301 0.97074 0.0
C579 C 0.47546 0.8798 0.96958 0.0
C580 C 0.44215 0.83909 0.96581 0.0
C581 C 0.45752 0.83168 0.95949 0.0
C582 C 0.48183 0.84851 0.95801 0.0
C583 C 0.49075 0.87231 0.96313 0.0
C584 C 0.4484 0.8064 0.95435 0.0
C585 C 0.45121 0.80123 0.93601 0.0
C586 C 0.43685 0.78751 0.96729 0.0
C587 C 0.4337 0.79198 0.98694 0.0
C588 C 0.45336 0.80745 0.99795 0.0
C589 C 0.4502 0.81178 0.01639 0.0
C590 C 0.42745 0.80059 0.02402 0.0
C591 C 0.40784 0.78499 0.01324 0.0
C592 C 0.41091 0.78062 0.99478 0.0
C593 C 0.43162 0.70494 0.92293 0.0
C594 C 0.4083 0.6864 0.9265 0.0
C595 C 0.4395 0.72823 0.92897 0.0
C596 C 0.424 0.73357 0.93822 0.0
C597 C 0.40092 0.71487 0.94234 0.0
C598 C 0.39317 0.69146 0.93661 0.0
C599 C 0.43174 0.75871 0.94325 0.0
C600 C 0.42864 0.76389 0.96157 0.0
C601 C 0.44269 0.77762 0.93019 0.0
C602 C 0.44468 0.77324 0.91027 0.0
C603 C 0.42441 0.75732 0.9 0.0
C604 C 0.42641 0.75309 0.88129 0.0
C605 C 0.44857 0.76482 0.87265 0.0
C606 C 0.46877 0.78085 0.88269 0.0
C607 C 0.46687 0.78513 0.90142 0.0
H608 H 0.45009 0.76151 0.85816 0.0
H609 H 0.42504 0.80397 0.0383 0.0
H610 H 0.64505 0.52315 0.13196 0.0
H611 H 0.67108 0.50794 0.12468 0.0
H612 H 0.61333 0.43563 0.13336 0.0
H613 H 0.58673 0.45048 0.1398 0.0
H614 H 0.65774 0.44813 0.15152 0.0
H615 H 0.62703 0.45165 0.09154 0.0
H616 H 0.61844 0.4716 0.06633 0.0
H617 H 0.69268 0.52341 0.06077 0.0
H618 H 0.70168 0.50395 0.08616 0.0
H619 H 0.70368 0.38088 0.11351 0.0
H620 H 0.68034 0.39864 0.12215 0.0
H621 H 0.73403 0.46637 0.09914 0.0
H622 H 0.75708 0.44827 0.08972 0.0
H623 H 0.69311 0.45829 0.08901 0.0
H624 H 0.72514 0.45545 0.14747 0.0
H625 H 0.73519 0.43751 0.1733 0.0
H626 H 0.66128 0.38751 0.18295 0.0
H627 H 0.65078 0.40494 0.157 0.0
C628 C 0.63767 0.50397 0.13204 0.0
C629 C 0.61362 0.48808 0.13637 0.0
C630 C 0.65269 0.49535 0.12802 0.0
C631 C 0.64409 0.47069 0.12844 0.0
C632 C 0.6203 0.45476 0.13305 0.0
C633 C 0.60515 0.46333 0.13682 0.0
C634 C 0.65993 0.46154 0.12391 0.0
C635 C 0.6653 0.45006 0.13782 0.0
C636 C 0.67038 0.46487 0.1062 0.0
C637 C 0.665 0.4765 0.09088 0.0
C638 C 0.6415 0.46743 0.08506 0.0
C639 C 0.63656 0.47862 0.07071 0.0
C640 C 0.65499 0.4988 0.06199 0.0
C641 C 0.67842 0.50779 0.06756 0.0
C642 C 0.68345 0.49668 0.08192 0.0
C643 C 0.71065 0.39963 0.11042 0.0
C644 C 0.73228 0.41321 0.10099 0.0
C645 C 0.69731 0.40982 0.11547 0.0
C646 C 0.70555 0.434 0.11161 0.0
C647 C 0.72729 0.44769 0.10232 0.0
C648 C 0.7405 0.43737 0.097 0.0
C649 C 0.69096 0.44461 0.11661 0.0
C650 C 0.68577 0.4564 0.10279 0.0
C651 C 0.68096 0.44188 0.13451 0.0
C652 C 0.68719 0.43138 0.15018 0.0
C653 C 0.71103 0.44052 0.15501 0.0
C654 C 0.71681 0.43046 0.16969 0.0
C655 C 0.69889 0.41135 0.17973 0.0
C656 C 0.67514 0.4023 0.17515 0.0
C657 C 0.66927 0.41228 0.16047 0.0
H658 H 0.7034 0.40358 0.19109 0.0
H659 H 0.65113 0.50743 0.05088 0.0
H660 H 0.41718 0.86644 0.48798 0.0
H661 H 0.39206 0.82436 0.49707 0.0
H662 H 0.38746 0.84645 0.55259 0.0
H663 H 0.41365 0.8884 0.54371 0.0
H664 H 0.39198 0.81014 0.55497 0.0
H665 H 0.34148 0.8273 0.51799 0.0
H666 H 0.33045 0.84109 0.49001 0.0
H667 H 0.33203 0.78659 0.45771 0.0
H668 H 0.3433 0.77262 0.48548 0.0
H669 H 0.2884 0.7056 0.58599 0.0
H670 H 0.31438 0.74606 0.57388 0.0
H671 H 0.32976 0.71682 0.52599 0.0
H672 H 0.30402 0.6762 0.53815 0.0
H673 H 0.32026 0.75515 0.51846 0.0
H674 H 0.3691 0.73733 0.5567 0.0
H675 H 0.37933 0.72386 0.58525 0.0
H676 H 0.37953 0.78043 0.61593 0.0
H677 H 0.36893 0.79402 0.58759 0.0
C678 C 0.41083 0.86218 0.50213 0.0
C679 C 0.41722 0.8805 0.51518 0.0
C680 C 0.39636 0.83819 0.50729 0.0
C681 C 0.38739 0.83217 0.52543 0.0
C682 C 0.39409 0.85057 0.53851 0.0
C683 C 0.40902 0.87451 0.53346 0.0
C684 C 0.37106 0.80678 0.5309 0.0
C685 C 0.37616 0.79828 0.54707 0.0
C686 C 0.35065 0.79098 0.5204 0.0
C687 C 0.34343 0.79906 0.50377 0.0
C688 C 0.33957 0.81832 0.5049 0.0
C689 C 0.33327 0.82616 0.48909 0.0
C690 C 0.3306 0.81476 0.47209 0.0
C691 C 0.33412 0.79542 0.47089 0.0
C692 C 0.34043 0.78751 0.48666 0.0
C693 C 0.29716 0.70776 0.57281 0.0
C694 C 0.29433 0.68778 0.56307 0.0
C695 C 0.312 0.73086 0.56594 0.0
C696 C 0.32406 0.73436 0.54913 0.0
C697 C 0.32058 0.71442 0.539 0.0
C698 C 0.30597 0.69129 0.54599 0.0
C699 C 0.34108 0.75892 0.5426 0.0
C700 C 0.33612 0.76715 0.52626 0.0
C701 C 0.36147 0.77458 0.55303 0.0
C702 C 0.36799 0.76654 0.57006 0.0
C703 C 0.37112 0.74677 0.56957 0.0
C704 C 0.37702 0.73914 0.5857 0.0
C705 C 0.38002 0.75124 0.6024 0.0
C706 C 0.37717 0.77105 0.60299 0.0
C707 C 0.37124 0.77874 0.58689 0.0
H708 H 0.38459 0.74531 0.61488 0.0
H709 H 0.32577 0.82088 0.45985 0.0
H710 H 0.49167 0.36648 0.68997 0.0
H711 H 0.50701 0.34068 0.69878 0.0
H712 H 0.57835 0.39892 0.68882 0.0
H713 H 0.56311 0.42484 0.68003 0.0
H714 H 0.56764 0.35471 0.67265 0.0
H715 H 0.56097 0.3859 0.73147 0.0
H716 H 0.54004 0.3943 0.75586 0.0
H717 H 0.49018 0.31897 0.76199 0.0
H718 H 0.51064 0.31014 0.73742 0.0
H719 H 0.63596 0.31292 0.71397 0.0
H720 H 0.61738 0.33538 0.70488 0.0
H721 H 0.55028 0.27882 0.726 0.0
H722 H 0.56919 0.2566 0.73592 0.0
H723 H 0.55621 0.31997 0.73569 0.0
H724 H 0.56405 0.28805 0.67849 0.0
H725 H 0.58479 0.27927 0.65421 0.0
H726 H 0.63083 0.35447 0.64399 0.0
H727 H 0.61084 0.3638 0.66859 0.0
C728 C 0.51062 0.37374 0.68962 0.0
C729 C 0.52622 0.39766 0.68433 0.0
C730 C 0.51935 0.35904 0.69474 0.0
C731 C 0.54381 0.36794 0.6945 0.0
C732 C 0.55942 0.39174 0.68909 0.0
C733 C 0.55072 0.40655 0.6842 0.0
C734 C 0.55313 0.35237 0.6998 0.0
C735 C 0.56539 0.34728 0.68647 0.0
C736 C 0.54945 0.3421 0.71766 0.0
C737 C 0.53717 0.34738 0.73246 0.0
C738 C 0.54541 0.37114 0.73789 0.0
C739 C 0.53366 0.37598 0.75178 0.0
C740 C 0.51375 0.35719 0.76043 0.0
C741 C 0.50558 0.33351 0.75525 0.0
C742 C 0.51726 0.32858 0.74136 0.0
C743 C 0.6172 0.30515 0.71659 0.0
C744 C 0.60398 0.2829 0.72554 0.0
C745 C 0.60655 0.31799 0.7113 0.0
C746 C 0.58228 0.30862 0.71438 0.0
C747 C 0.56901 0.28638 0.72338 0.0
C748 C 0.57979 0.27367 0.72899 0.0
C749 C 0.57106 0.3224 0.70857 0.0
C750 C 0.55836 0.32717 0.72179 0.0
C751 C 0.57417 0.33221 0.69052 0.0
C752 C 0.58603 0.32663 0.67551 0.0
C753 C 0.5787 0.30274 0.67116 0.0
C754 C 0.59031 0.29765 0.65733 0.0
C755 C 0.60908 0.31628 0.64755 0.0
C756 C 0.61628 0.34005 0.65158 0.0
C757 C 0.60483 0.34526 0.66548 0.0
H758 H 0.61803 0.31228 0.63683 0.0
H759 H 0.50468 0.36097 0.77118 0.0
H760 H 0.14603 0.55935 0.851 0.0
H761 H 0.18693 0.5706 0.85707 0.0
H762 H 0.16463 0.49654 0.86603 0.0
H763 H 0.1238 0.48475 0.85881 0.0
H764 H 0.1968 0.53366 0.89484 0.0
H765 H 0.18959 0.5133 0.83009 0.0
H766 H 0.17823 0.51482 0.79779 0.0
H767 H 0.22658 0.5909 0.79662 0.0
H768 H 0.238 0.58988 0.82907 0.0
H769 H 0.31475 0.55824 0.90282 0.0
H770 H 0.27302 0.53892 0.89364 0.0
H771 H 0.28781 0.6033 0.86491 0.0
H772 H 0.32944 0.62226 0.87343 0.0
H773 H 0.25796 0.56676 0.84542 0.0
H774 H 0.26344 0.58883 0.90974 0.0
H775 H 0.27357 0.58946 0.94272 0.0
H776 H 0.22797 0.513 0.94553 0.0
H777 H 0.2178 0.5119 0.91247 0.0
C778 C 0.14973 0.54531 0.85392 0.0
C779 C 0.13141 0.52107 0.85432 0.0
C780 C 0.17314 0.55185 0.85756 0.0
C781 C 0.17869 0.53437 0.86199 0.0
C782 C 0.16059 0.51026 0.86273 0.0
C783 C 0.13722 0.50362 0.85872 0.0
C784 C 0.20352 0.54145 0.86576 0.0
C785 C 0.21017 0.54049 0.88403 0.0
C786 C 0.22088 0.55085 0.85166 0.0
C787 C 0.21448 0.55154 0.83206 0.0
C788 C 0.19767 0.53038 0.823 0.0
C789 C 0.19125 0.53115 0.80466 0.0
C790 C 0.20163 0.55295 0.79519 0.0
C791 C 0.21854 0.57403 0.804 0.0
C792 C 0.22502 0.57337 0.82236 0.0
C793 C 0.30911 0.56814 0.89439 0.0
C794 C 0.32535 0.59181 0.88895 0.0
C795 C 0.28524 0.55714 0.88922 0.0
C796 C 0.27715 0.56979 0.87884 0.0
C797 C 0.29356 0.59314 0.87292 0.0
C798 C 0.31739 0.604 0.87787 0.0
C799 C 0.25154 0.55927 0.87467 0.0
C800 C 0.24467 0.55965 0.85628 0.0
C801 C 0.234 0.54963 0.88874 0.0
C802 C 0.24009 0.55025 0.90859 0.0
C803 C 0.25572 0.57214 0.91736 0.0
C804 C 0.26144 0.57258 0.93607 0.0
C805 C 0.25148 0.55127 0.9462 0.0
C806 C 0.23572 0.52948 0.93765 0.0
C807 C 0.22996 0.52894 0.91894 0.0
H808 H 0.25593 0.55166 0.96069 0.0
H809 H 0.19658 0.55345 0.78101 0.0
H810 H 0.57876 0.13903 0.01245 0.0
H811 H 0.60603 0.18113 0.02015 0.0
H812 H 0.66312 0.16748 0.02573 0.0
H813 H 0.63652 0.12574 0.01695 0.0
H814 H 0.65349 0.19152 0.05746 0.0
H815 H 0.66782 0.19599 0.99143 0.0
H816 H 0.65612 0.1902 0.95853 0.0
H817 H 0.62579 0.23433 0.96527 0.0
H818 H 0.63701 0.2401 0.99832 0.0
H819 H 0.74777 0.30864 0.0741 0.0
H820 H 0.72356 0.26822 0.0615 0.0
H821 H 0.67604 0.28787 0.03727 0.0
H822 H 0.70092 0.32867 0.04909 0.0
H823 H 0.6805 0.26023 0.01445 0.0
H824 H 0.6638 0.25561 0.07931 0.0
H825 H 0.67282 0.26123 0.11275 0.0
H826 H 0.70341 0.21698 0.10935 0.0
H827 H 0.69484 0.21135 0.07583 0.0
C828 C 0.5972 0.14498 0.0149 0.0
C829 C 0.6053 0.12877 0.01415 0.0
C830 C 0.61271 0.16905 0.01942 0.0
C831 C 0.6365 0.17728 0.02351 0.0
C832 C 0.64475 0.16135 0.02269 0.0
C833 C 0.62941 0.13742 0.01783 0.0
C834 C 0.65258 0.20231 0.02946 0.0
C835 C 0.65971 0.20658 0.04804 0.0
C836 C 0.65991 0.22183 0.01724 0.0
C837 C 0.65301 0.21824 0.99741 0.0
C838 C 0.65841 0.20423 0.98596 0.0
C839 C 0.65192 0.20101 0.96726 0.0
C840 C 0.64016 0.21184 0.95981 0.0
C841 C 0.63487 0.22593 0.97106 0.0
C842 C 0.64131 0.22919 0.98977 0.0
C843 C 0.73225 0.30436 0.06597 0.0
C844 C 0.72609 0.3217 0.06269 0.0
C845 C 0.71833 0.28122 0.05886 0.0
C846 C 0.69761 0.27477 0.04879 0.0
C847 C 0.69186 0.29233 0.04504 0.0
C848 C 0.70606 0.31563 0.05184 0.0
C849 C 0.68165 0.24963 0.04257 0.0
C850 C 0.6744 0.24526 0.02394 0.0
C851 C 0.67378 0.22997 0.05486 0.0
C852 C 0.67889 0.23326 0.07503 0.0
C853 C 0.6726 0.24722 0.08567 0.0
C854 C 0.67761 0.25038 0.10464 0.0
C855 C 0.68873 0.23952 0.11316 0.0
C856 C 0.69482 0.22541 0.10273 0.0
C857 C 0.68988 0.22221 0.08375 0.0
H858 H 0.6926 0.24199 0.12784 0.0
H859 H 0.63521 0.2094 0.94532 0.0
H860 H 0.52955 0.64239 0.1893 0.0
H861 H 0.51508 0.66879 0.19874 0.0
H862 H 0.4433 0.61219 0.1877 0.0
H863 H 0.45765 0.5856 0.17854 0.0
H864 H 0.45804 0.65921 0.17154 0.0
H865 H 0.45778 0.62196 0.22977 0.0
H866 H 0.47618 0.61088 0.2545 0.0
H867 H 0.52708 0.6852 0.26434 0.0
H868 H 0.50917 0.6967 0.23946 0.0
H869 H 0.38646 0.69738 0.21113 0.0
H870 H 0.40638 0.67643 0.20166 0.0
H871 H 0.47051 0.73019 0.22861 0.0
H872 H 0.45019 0.75097 0.23877 0.0
H873 H 0.46373 0.68803 0.23609 0.0
H874 H 0.4657 0.72676 0.17982 0.0
H875 H 0.45084 0.74024 0.1541 0.0
H876 H 0.40098 0.66716 0.1395 0.0
H877 H 0.41563 0.6532 0.16514 0.0
C878 C 0.5107 0.63563 0.1889 0.0
C879 C 0.49468 0.612 0.18321 0.0
C880 C 0.50247 0.65066 0.19435 0.0
C881 C 0.47815 0.64238 0.19394 0.0
C882 C 0.46214 0.61886 0.18812 0.0
C883 C 0.47032 0.60369 0.18298 0.0
C884 C 0.46935 0.65833 0.19934 0.0
C885 C 0.45903 0.66534 0.18568 0.0
C886 C 0.47161 0.66708 0.21762 0.0
C887 C 0.48231 0.66017 0.23261 0.0
C888 C 0.47304 0.63593 0.23708 0.0
C889 C 0.48335 0.62957 0.25116 0.0
C890 C 0.50283 0.64732 0.26095 0.0
C891 C 0.51201 0.67147 0.25672 0.0
C892 C 0.50178 0.67791 0.24265 0.0
C893 C 0.40486 0.70492 0.21495 0.0
C894 C 0.41679 0.72592 0.22564 0.0
C895 C 0.41631 0.69295 0.20941 0.0
C896 C 0.44013 0.70193 0.21408 0.0
C897 C 0.45216 0.72296 0.22475 0.0
C898 C 0.44057 0.73486 0.23051 0.0
C899 C 0.45192 0.68867 0.20833 0.0
C900 C 0.46286 0.68215 0.22189 0.0
C901 C 0.45067 0.68071 0.18985 0.0
C902 C 0.44163 0.68895 0.17449 0.0
C903 C 0.45145 0.71356 0.17121 0.0
C904 C 0.44309 0.72129 0.15662 0.0
C905 C 0.42487 0.70459 0.14523 0.0
C906 C 0.41507 0.68009 0.14835 0.0
C907 C 0.42346 0.67225 0.16287 0.0
H908 H 0.4184 0.71063 0.13396 0.0
H909 H 0.51079 0.64236 0.27184 0.0
H910 H 0.89557 0.49796 0.38835 0.0
H911 H 0.85477 0.48563 0.39655 0.0
H912 H 0.83383 0.46725 0.33939 0.0
H913 H 0.87481 0.48049 0.33109 0.0
H914 H 0.81301 0.48821 0.35215 0.0
H915 H 0.82211 0.42427 0.37429 0.0
H916 H 0.8404 0.40536 0.39171 0.0
H917 H 0.82827 0.43111 0.44283 0.0
H918 H 0.81018 0.45045 0.42568 0.0
H919 H 0.68948 0.40321 0.36708 0.0
H920 H 0.73184 0.42255 0.36018 0.0
H921 H 0.74846 0.45956 0.41259 0.0
H922 H 0.70597 0.44071 0.41941 0.0
H923 H 0.77149 0.4312 0.40367 0.0
H924 H 0.75896 0.49263 0.37916 0.0
H925 H 0.73853 0.5078 0.35998 0.0
H926 H 0.75484 0.48181 0.31091 0.0
H927 H 0.77506 0.46615 0.32984 0.0
C928 C 0.88219 0.49121 0.37759 0.0
C929 C 0.88825 0.49008 0.35912 0.0
C930 C 0.85887 0.4841 0.38227 0.0
C931 C 0.84106 0.47514 0.36865 0.0
C932 C 0.8472 0.47413 0.35016 0.0
C933 C 0.87059 0.48164 0.34543 0.0
C934 C 0.81605 0.46687 0.37358 0.0
C935 C 0.80393 0.47557 0.36331 0.0
C936 C 0.80416 0.45062 0.38832 0.0
C937 C 0.81504 0.43903 0.39868 0.0
C938 C 0.82352 0.42606 0.38924 0.0
C939 C 0.83382 0.41524 0.39906 0.0
C940 C 0.83556 0.4171 0.41836 0.0
C941 C 0.82695 0.42973 0.42788 0.0
C942 C 0.81666 0.44061 0.41811 0.0
C943 C 0.70215 0.41571 0.37703 0.0
C944 C 0.69448 0.42049 0.39378 0.0
C945 C 0.7263 0.42674 0.37306 0.0
C946 C 0.74318 0.44243 0.38589 0.0
C947 C 0.73562 0.44751 0.40253 0.0
C948 C 0.71141 0.43684 0.40635 0.0
C949 C 0.76869 0.45251 0.3822 0.0
C950 C 0.78079 0.44403 0.39265 0.0
C951 C 0.78036 0.46849 0.36737 0.0
C952 C 0.76834 0.47802 0.35595 0.0
C953 C 0.758 0.48996 0.3643 0.0
C954 C 0.7465 0.49868 0.35347 0.0
C955 C 0.74533 0.49572 0.33424 0.0
C956 C 0.75573 0.48407 0.3258 0.0
C957 C 0.76724 0.47529 0.33658 0.0
H958 H 0.73642 0.50248 0.32588 0.0
H959 H 0.84353 0.4087 0.42594 0.0
H960 H 0.09201 0.59566 0.41664 0.0
H961 H 0.11932 0.60609 0.44264 0.0
H962 H 0.11458 0.53776 0.43808 0.0
H963 H 0.08737 0.52724 0.41184 0.0
H964 H 0.11168 0.54874 0.47399 0.0
H965 H 0.16332 0.5872 0.42285 0.0
H966 H 0.17825 0.6124 0.39485 0.0
H967 H 0.19025 0.67365 0.42627 0.0
H968 H 0.17505 0.64874 0.45442 0.0
H969 H 0.20811 0.58789 0.53861 0.0
H970 H 0.18389 0.5724 0.5105 0.0
H971 H 0.18042 0.63657 0.50681 0.0
H972 H 0.20459 0.65222 0.53458 0.0
H973 H 0.18976 0.62449 0.4735 0.0
H974 H 0.13423 0.58458 0.52378 0.0
H975 H 0.11911 0.55913 0.55166 0.0
H976 H 0.11489 0.50024 0.5215 0.0
H977 H 0.13029 0.52546 0.49349 0.0
C978 C 0.09695 0.58293 0.421 0.0
C979 C 0.08759 0.56067 0.41205 0.0
C980 C 0.11253 0.5889 0.43591 0.0
C981 C 0.11923 0.57283 0.44216 0.0
C982 C 0.10966 0.55044 0.43348 0.0
C983 C 0.09405 0.54444 0.41853 0.0
C984 C 0.13613 0.57951 0.45783 0.0
C985 C 0.12894 0.56507 0.47376 0.0
C986 C 0.15856 0.60093 0.4576 0.0
C987 C 0.16787 0.61604 0.44073 0.0
C988 C 0.16898 0.60601 0.42377 0.0
C989 C 0.17752 0.62024 0.40787 0.0
C990 C 0.18515 0.6446 0.40877 0.0
C991 C 0.18431 0.65477 0.42559 0.0
C992 C 0.17576 0.64061 0.44153 0.0
C993 C 0.20221 0.59871 0.5318 0.0
C994 C 0.20826 0.62127 0.53895 0.0
C995 C 0.18832 0.5898 0.51576 0.0
C996 C 0.18022 0.60328 0.50662 0.0
C997 C 0.18649 0.62587 0.5136 0.0
C998 C 0.20026 0.63474 0.52958 0.0
C999 C 0.16506 0.59405 0.48983 0.0
C1000 C 0.17262 0.608 0.47364 0.0
C1001 C 0.14302 0.57216 0.48982 0.0
C1002 C 0.13367 0.55698 0.50662 0.0
C1003 C 0.13026 0.56626 0.52314 0.0
C1004 C 0.1216 0.55187 0.53896 0.0
C1005 C 0.11611 0.52811 0.53837 0.0
C1006 C 0.11919 0.51866 0.52194 0.0
C1007 C 0.12787 0.53299 0.5061 0.0
H1008 H 0.10942 0.51699 0.55063 0.0
H1009 H 0.19175 0.65559 0.39645 0.0
H1010 H 0.56559 0.09091 0.5657 0.0
H1011 H 0.582 0.11653 0.59296 0.0
H1012 H 0.51306 0.10533 0.6059 0.0
H1013 H 0.49654 0.07977 0.57844 0.0
H1014 H 0.54646 0.1511 0.6112 0.0
H1015 H 0.53509 0.0757 0.62984 0.0
H1016 H 0.53813 0.03963 0.62755 0.0
H1017 H 0.61402 0.08332 0.62968 0.0
H1018 H 0.61146 0.1197 0.63171 0.0
H1019 H 0.58529 0.20068 0.70271 0.0
H1020 H 0.56355 0.17482 0.6764 0.0
H1021 H 0.62755 0.17887 0.65723 0.0
H1022 H 0.64914 0.20405 0.68357 0.0
H1023 H 0.59244 0.13434 0.65676 0.0
H1024 H 0.60269 0.21035 0.63667 0.0
H1025 H 0.59813 0.24555 0.63887 0.0
H1026 H 0.52245 0.19941 0.64034 0.0
H1027 H 0.52657 0.16394 0.63843 0.0
C1028 C 0.55389 0.09379 0.5744 0.0
C1029 C 0.52972 0.08313 0.57001 0.0
C1030 C 0.56328 0.10845 0.58998 0.0
C1031 C 0.54868 0.11252 0.60169 0.0
C1032 C 0.52465 0.10239 0.59711 0.0
C1033 C 0.51525 0.08782 0.58141 0.0
C1034 C 0.55859 0.12723 0.61873 0.0
C1035 C 0.55623 0.14725 0.62132 0.0
C1036 C 0.57145 0.12231 0.63189 0.0
C1037 C 0.57308 0.10045 0.63078 0.0
C1038 C 0.55244 0.07764 0.62969 0.0
C1039 C 0.55407 0.05713 0.62846 0.0
C1040 C 0.57626 0.05919 0.62843 0.0
C1041 C 0.59685 0.08175 0.62969 0.0
C1042 C 0.59532 0.10232 0.6309 0.0
C1043 C 0.59475 0.19616 0.69283 0.0
C1044 C 0.61896 0.20438 0.69533 0.0
C1045 C 0.58231 0.18144 0.67774 0.0
C1046 C 0.59393 0.17498 0.66474 0.0
C1047 C 0.61814 0.18349 0.6671 0.0
C1048 C 0.6305 0.19795 0.6822 0.0
C1049 C 0.58098 0.15869 0.64897 0.0
C1050 C 0.58262 0.13819 0.64669 0.0
C1051 C 0.56732 0.16311 0.63622 0.0
C1052 C 0.56495 0.18449 0.6376 0.0
C1053 C 0.58509 0.20771 0.63765 0.0
C1054 C 0.58258 0.22771 0.6388 0.0
C1055 C 0.56001 0.2247 0.63977 0.0
C1056 C 0.53992 0.20171 0.63961 0.0
C1057 C 0.54233 0.18166 0.63849 0.0
H1058 H 0.55805 0.24017 0.64056 0.0
H1059 H 0.57749 0.04329 0.62748 0.0
H1060 H 0.47629 0.55273 0.73212 0.0
H1061 H 0.46843 0.57038 0.75897 0.0
H1062 H 0.40634 0.50209 0.77179 0.0
H1063 H 0.41416 0.48422 0.74487 0.0
H1064 H 0.39819 0.53895 0.77601 0.0
H1065 H 0.45662 0.5209 0.79594 0.0
H1066 H 0.49412 0.52114 0.7941 0.0
H1067 H 0.53351 0.59798 0.79698 0.0
H1068 H 0.49623 0.59822 0.79857 0.0
H1069 H 0.38772 0.57611 0.8672 0.0
H1070 H 0.39116 0.55437 0.84092 0.0
H1071 H 0.45661 0.61768 0.82476 0.0
H1072 H 0.45365 0.63933 0.85112 0.0
H1073 H 0.46129 0.58009 0.82333 0.0
H1074 H 0.40314 0.59846 0.80177 0.0
H1075 H 0.3658 0.59856 0.80332 0.0
H1076 H 0.32605 0.52163 0.80342 0.0
H1077 H 0.36319 0.52108 0.80211 0.0
C1078 C 0.46102 0.54141 0.7407 0.0
C1079 C 0.44601 0.51699 0.73649 0.0
C1080 C 0.45652 0.55154 0.75602 0.0
C1081 C 0.43702 0.53746 0.76757 0.0
C1082 C 0.42153 0.51326 0.76309 0.0
C1083 C 0.426 0.50309 0.7477 0.0
C1084 C 0.43321 0.54803 0.78448 0.0
C1085 C 0.41183 0.54764 0.78652 0.0
C1086 C 0.45115 0.55967 0.79804 0.0
C1087 C 0.47361 0.55958 0.79723 0.0
C1088 C 0.47327 0.53786 0.79605 0.0
C1089 C 0.49449 0.53791 0.79507 0.0
C1090 C 0.51618 0.55956 0.79538 0.0
C1091 C 0.51669 0.58122 0.79673 0.0
C1092 C 0.49553 0.58127 0.79769 0.0
C1093 C 0.40283 0.58543 0.85804 0.0
C1094 C 0.42042 0.6095 0.86133 0.0
C1095 C 0.40471 0.57299 0.84296 0.0
C1096 C 0.42404 0.58445 0.83074 0.0
C1097 C 0.44156 0.60844 0.834 0.0
C1098 C 0.4398 0.62081 0.8491 0.0
C1099 C 0.42644 0.57149 0.81473 0.0
C1100 C 0.44757 0.57133 0.81289 0.0
C1101 C 0.40829 0.55942 0.80137 0.0
C1102 C 0.38595 0.55973 0.80204 0.0
C1103 C 0.38644 0.58157 0.80226 0.0
C1104 C 0.36532 0.5817 0.80307 0.0
C1105 C 0.34357 0.56012 0.80352 0.0
C1106 C 0.34291 0.53834 0.8031 0.0
C1107 C 0.36399 0.5381 0.80231 0.0
H1108 H 0.32723 0.56026 0.80416 0.0
H1109 H 0.53258 0.55957 0.79462 0.0
H1110 H 0.93389 0.48738 0.91281 0.0
H1111 H 0.90618 0.4761 0.93873 0.0
H1112 H 0.90033 0.40712 0.94155 0.0
H1113 H 0.92722 0.41788 0.91522 0.0
H1114 H 0.85779 0.40236 0.94422 0.0
H1115 H 0.9347 0.45299 0.97237 0.0
H1116 H 0.97342 0.49024 0.9762 0.0
H1117 H 0.93848 0.52935 0.98682 0.0
H1118 H 0.89954 0.49236 0.98282 0.0
H1119 H 0.81595 0.35922 0.03322 0.0
H1120 H 0.83965 0.37574 0.00537 0.0
H1121 H 0.83437 0.43878 0.01022 0.0
H1122 H 0.8106 0.4224 0.03849 0.0
H1123 H 0.87975 0.44987 0.00232 0.0
H1124 H 0.80271 0.39821 0.97757 0.0
H1125 H 0.76406 0.36081 0.97417 0.0
H1126 H 0.79899 0.32362 0.95715 0.0
H1127 H 0.83789 0.36072 0.96072 0.0
C1128 C 0.92655 0.46973 0.91884 0.0
C1129 C 0.93286 0.45356 0.91195 0.0
C1130 C 0.91088 0.4634 0.93378 0.0
C1131 C 0.90134 0.44085 0.94222 0.0
C1132 C 0.90749 0.42464 0.93529 0.0
C1133 C 0.92308 0.43092 0.92035 0.0
C1134 C 0.88484 0.4339 0.95821 0.0
C1135 C 0.86268 0.41266 0.95697 0.0
C1136 C 0.89084 0.44777 0.97462 0.0
C1137 C 0.91423 0.46997 0.97709 0.0
C1138 C 0.93529 0.46957 0.97538 0.0
C1139 C 0.95727 0.49063 0.97761 0.0
C1140 C 0.95841 0.51216 0.9817 0.0
C1141 C 0.93757 0.51266 0.98362 0.0
C1142 C 0.91554 0.49166 0.98139 0.0
C1143 C 0.81971 0.3766 0.02845 0.0
C1144 C 0.81126 0.38945 0.03816 0.0
C1145 C 0.83321 0.38597 0.01241 0.0
C1146 C 0.83852 0.40834 0.00556 0.0
C1147 C 0.83037 0.42141 0.01523 0.0
C1148 C 0.81674 0.41199 0.03135 0.0
C1149 C 0.85301 0.41799 0.98848 0.0
C1150 C 0.87474 0.43974 0.98948 0.0
C1151 C 0.84662 0.4046 0.97182 0.0
C1152 C 0.82324 0.38224 0.96953 0.0
C1153 C 0.80217 0.38202 0.97323 0.0
C1154 C 0.78021 0.36088 0.97125 0.0
C1155 C 0.77907 0.33985 0.96548 0.0
C1156 C 0.7999 0.33993 0.96163 0.0
C1157 C 0.82191 0.36102 0.9636 0.0
H1158 H 0.76205 0.32349 0.96396 0.0
H1159 H 0.97544 0.52844 0.98342 0.0
H1160 H 0.45812 0.89454 0.05636 0.0
H1161 H 0.44136 0.86872 0.08346 0.0
H1162 H 0.49758 0.92214 0.11747 0.0
H1163 H 0.5138 0.94889 0.09073 0.0
H1164 H 0.48085 0.86505 0.11889 0.0
H1165 H 0.45777 0.92548 0.12586 0.0
H1166 H 0.44067 0.94859 0.11349 0.0
H1167 H 0.37585 0.8832 0.10084 0.0
H1168 H 0.39275 0.85972 0.11288 0.0
H1169 H 0.43259 0.81516 0.2073 0.0
H1170 H 0.45351 0.84146 0.18104 0.0
H1171 H 0.38676 0.81598 0.15302 0.0
H1172 H 0.36582 0.79077 0.17962 0.0
H1173 H 0.41057 0.86034 0.14848 0.0
H1174 H 0.42873 0.7991 0.14081 0.0
H1175 H 0.44259 0.77201 0.14996 0.0
H1176 H 0.5124 0.83236 0.15975 0.0
H1177 H 0.49878 0.8599 0.15093 0.0
C1178 C 0.46687 0.90105 0.06959 0.0
C1179 C 0.48723 0.92406 0.07128 0.0
C1180 C 0.45738 0.88609 0.08502 0.0
C1181 C 0.46828 0.89359 0.10238 0.0
C1182 C 0.48905 0.91605 0.1041 0.0
C1183 C 0.49833 0.93125 0.08874 0.0
C1184 C 0.45708 0.87843 0.11888 0.0
C1185 C 0.46572 0.86422 0.12563 0.0
C1186 C 0.43683 0.87676 0.12708 0.0
C1187 C 0.42661 0.89088 0.12007 0.0
C1188 C 0.43996 0.91605 0.12027 0.0
C1189 C 0.43029 0.92921 0.11336 0.0
C1190 C 0.40722 0.91737 0.10633 0.0
C1191 C 0.39374 0.89235 0.10626 0.0
C1192 C 0.40334 0.87911 0.11314 0.0
C1193 C 0.42244 0.81512 0.19548 0.0
C1194 C 0.39757 0.80095 0.19553 0.0
C1195 C 0.43441 0.83007 0.18041 0.0
C1196 C 0.4218 0.8306 0.16486 0.0
C1197 C 0.39696 0.8161 0.16484 0.0
C1198 C 0.38498 0.8016 0.18004 0.0
C1199 C 0.43426 0.84667 0.14881 0.0
C1200 C 0.42581 0.86111 0.14201 0.0
C1201 C 0.45429 0.84798 0.14025 0.0
C1202 C 0.46267 0.83156 0.14541 0.0
C1203 C 0.447 0.80661 0.14505 0.0
C1204 C 0.45483 0.79116 0.15016 0.0
C1205 C 0.47837 0.80043 0.15549 0.0
C1206 C 0.49416 0.8252 0.15565 0.0
C1207 C 0.48639 0.84074 0.15059 0.0
H1208 H 0.4844 0.78843 0.15945 0.0
H1209 H 0.39976 0.92759 0.10099 0.0
H1210 H 0.56062 0.50666 0.25673 0.0
H1211 H 0.57096 0.4898 0.2827 0.0
H1212 H 0.61684 0.47845 0.24705 0.0
H1213 H 0.60584 0.49445 0.22078 0.0
H1214 H 0.59028 0.43988 0.26667 0.0
H1215 H 0.63965 0.52263 0.28042 0.0
H1216 H 0.64993 0.56434 0.28543 0.0
H1217 H 0.60194 0.54206 0.33154 0.0
H1218 H 0.59111 0.50014 0.32665 0.0
H1219 H 0.63973 0.43484 0.36432 0.0
H1220 H 0.64027 0.4581 0.33744 0.0
H1221 H 0.56769 0.40435 0.3254 0.0
H1222 H 0.56703 0.38092 0.3519 0.0
H1223 H 0.61514 0.47853 0.32844 0.0
H1224 H 0.55898 0.39754 0.27957 0.0
H1225 H 0.55208 0.35708 0.27394 0.0
H1226 H 0.62051 0.37859 0.29657 0.0
H1227 H 0.62796 0.41925 0.30209 0.0
C1228 C 0.57289 0.50055 0.25438 0.0
C1229 C 0.58232 0.50182 0.23664 0.0
C1230 C 0.57901 0.49117 0.26932 0.0
C1231 C 0.59488 0.48307 0.2669 0.0
C1232 C 0.60463 0.48466 0.24927 0.0
C1233 C 0.59846 0.49399 0.2343 0.0
C1234 C 0.60017 0.47171 0.28254 0.0
C1235 C 0.59585 0.44841 0.28013 0.0
C1236 C 0.60794 0.48299 0.30003 0.0
C1237 C 0.61445 0.5082 0.30308 0.0
C1238 C 0.63116 0.52659 0.29155 0.0
C1239 C 0.63711 0.55028 0.29438 0.0
C1240 C 0.62656 0.55584 0.30877 0.0
C1241 C 0.61009 0.53772 0.32039 0.0
C1242 C 0.60406 0.514 0.31761 0.0
C1243 C 0.62386 0.42798 0.35597 0.0
C1244 C 0.60338 0.40589 0.36025 0.0
C1245 C 0.62421 0.44132 0.34062 0.0
C1246 C 0.60414 0.4328 0.32925 0.0
C1247 C 0.58355 0.41106 0.33375 0.0
C1248 C 0.58319 0.39771 0.34899 0.0
C1249 C 0.60448 0.44647 0.31267 0.0
C1250 C 0.60982 0.47014 0.3149 0.0
C1251 C 0.59813 0.43574 0.2949 0.0
C1252 C 0.59394 0.4114 0.29137 0.0
C1253 C 0.5726 0.39367 0.28325 0.0
C1254 C 0.56858 0.37069 0.2801 0.0
C1255 C 0.58582 0.36525 0.28494 0.0
C1256 C 0.60714 0.3828 0.29288 0.0
C1257 C 0.61126 0.40581 0.29605 0.0
H1258 H 0.58266 0.34745 0.2825 0.0
H1259 H 0.63119 0.57419 0.31094 0.0
H1260 H 0.41519 0.92158 0.4103 0.0
H1261 H 0.40285 0.89393 0.38414 0.0
H1262 H 0.47031 0.89803 0.38501 0.0
H1263 H 0.48317 0.92649 0.41076 0.0
H1264 H 0.45787 0.9004 0.35039 0.0
H1265 H 0.42036 0.84899 0.40217 0.0
H1266 H 0.39611 0.83464 0.43056 0.0
H1267 H 0.33529 0.82373 0.40017 0.0
H1268 H 0.35926 0.83836 0.37164 0.0
H1269 H 0.41848 0.80193 0.28769 0.0
H1270 H 0.43351 0.82694 0.31549 0.0
H1271 H 0.36973 0.82997 0.31844 0.0
H1272 H 0.35446 0.80486 0.29091 0.0
H1273 H 0.38214 0.82225 0.35219 0.0
H1274 H 0.42107 0.87662 0.30099 0.0
H1275 H 0.44572 0.89103 0.2728 0.0
H1276 H 0.50439 0.89577 0.30264 0.0
H1277 H 0.47997 0.88108 0.33096 0.0
C1278 C 0.42753 0.91683 0.40482 0.0
C1279 C 0.45018 0.92626 0.41267 0.0
C1280 C 0.42033 0.90077 0.38999 0.0
C1281 C 0.43551 0.89359 0.38278 0.0
C1282 C 0.45824 0.90319 0.39041 0.0
C1283 C 0.46549 0.91931 0.40523 0.0
C1284 C 0.42773 0.87635 0.3671 0.0
C1285 C 0.44151 0.88313 0.35091 0.0
C1286 C 0.40622 0.85394 0.36767 0.0
C1287 C 0.39168 0.84497 0.38479 0.0
C1288 C 0.40186 0.8437 0.40156 0.0
C1289 C 0.38815 0.83549 0.41768 0.0
C1290 C 0.36419 0.82833 0.41718 0.0
C1291 C 0.35386 0.8293 0.40054 0.0
C1292 C 0.3675 0.83753 0.38439 0.0
C1293 C 0.40762 0.80787 0.29426 0.0
C1294 C 0.3853 0.80146 0.28694 0.0
C1295 C 0.41628 0.82223 0.31013 0.0
C1296 C 0.40284 0.83052 0.31895 0.0
C1297 C 0.38042 0.8238 0.31187 0.0
C1298 C 0.37177 0.8095 0.29604 0.0
C1299 C 0.4121 0.84648 0.33541 0.0
C1300 C 0.3986 0.83943 0.35176 0.0
C1301 C 0.43392 0.86859 0.33502 0.0
C1302 C 0.44862 0.8775 0.31803 0.0
C1303 C 0.43917 0.88056 0.3015 0.0
C1304 C 0.45311 0.88881 0.2855 0.0
C1305 C 0.47658 0.89424 0.28591 0.0
C1306 C 0.48619 0.89151 0.30233 0.0
C1307 C 0.47231 0.88324 0.31836 0.0
H1308 H 0.48735 0.90063 0.27352 0.0
H1309 H 0.35361 0.82198 0.42967 0.0
H1310 H 0.55657 0.4701 0.58151 0.0
H1311 H 0.57231 0.46001 0.55464 0.0
H1312 H 0.50551 0.39382 0.548 0.0
H1313 H 0.48997 0.40329 0.57533 0.0
H1314 H 0.54139 0.38648 0.54395 0.0
H1315 H 0.52177 0.44343 0.5203 0.0
H1316 H 0.5234 0.48208 0.51934 0.0
H1317 H 0.59865 0.51899 0.51077 0.0
H1318 H 0.59751 0.48057 0.51193 0.0
H1319 H 0.54743 0.35459 0.45198 0.0
H1320 H 0.53745 0.36751 0.48043 0.0
H1321 H 0.60779 0.42999 0.48245 0.0
H1322 H 0.61799 0.41731 0.45373 0.0
H1323 H 0.57394 0.44103 0.48982 0.0
H1324 H 0.59325 0.38394 0.51129 0.0
H1325 H 0.59171 0.34534 0.51198 0.0
H1326 H 0.51742 0.30878 0.52469 0.0
H1327 H 0.51843 0.34714 0.52381 0.0
C1328 C 0.54529 0.45327 0.57446 0.0
C1329 C 0.52196 0.43753 0.58058 0.0
C1330 C 0.55425 0.44765 0.55897 0.0
C1331 C 0.54 0.42629 0.54915 0.0
C1332 C 0.51681 0.41045 0.55532 0.0
C1333 C 0.50787 0.416 0.57084 0.0
C1334 C 0.54919 0.4203 0.53248 0.0
C1335 C 0.54827 0.3983 0.53204 0.0
C1336 C 0.5589 0.43606 0.51716 0.0
C1337 C 0.55959 0.45915 0.5164 0.0
C1338 C 0.53869 0.45981 0.51836 0.0
C1339 C 0.53952 0.48167 0.51775 0.0
C1340 C 0.56112 0.50299 0.51505 0.0
C1341 C 0.58193 0.50247 0.51289 0.0
C1342 C 0.5812 0.48066 0.51351 0.0
C1343 C 0.56087 0.3711 0.45841 0.0
C1344 C 0.58358 0.38487 0.45052 0.0
C1345 C 0.55513 0.3784 0.47476 0.0
C1346 C 0.57196 0.39955 0.48371 0.0
C1347 C 0.59455 0.41355 0.47581 0.0
C1348 C 0.60036 0.40623 0.45941 0.0
C1349 C 0.56569 0.40702 0.50118 0.0
C1350 C 0.56721 0.42929 0.50179 0.0
C1351 C 0.55655 0.39153 0.51668 0.0
C1352 C 0.55589 0.36842 0.51733 0.0
C1353 C 0.57654 0.36765 0.5141 0.0
C1354 C 0.57577 0.34582 0.51454 0.0
C1355 C 0.55447 0.32462 0.51834 0.0
C1356 C 0.5339 0.32522 0.52174 0.0
C1357 C 0.53457 0.34701 0.52129 0.0
H1358 H 0.5539 0.30772 0.51868 0.0
H1359 H 0.56173 0.51989 0.51458 0.0
H1360 H 0.11382 0.51358 0.76644 0.0
H1361 H 0.13997 0.5276 0.73951 0.0
H1362 H 0.09094 0.54164 0.71079 0.0
H1363 H 0.0639 0.52587 0.73695 0.0
H1364 H 0.10688 0.52446 0.68748 0.0
H1365 H 0.14355 0.58563 0.73422 0.0
H1366 H 0.16123 0.60288 0.76462 0.0
H1367 H 0.21528 0.58584 0.75548 0.0
H1368 H 0.19754 0.56788 0.72524 0.0
H1369 H 0.18311 0.62027 0.62736 0.0
H1370 H 0.15851 0.59716 0.65365 0.0
H1371 H 0.20185 0.56604 0.66163 0.0
H1372 H 0.22636 0.58874 0.63491 0.0
H1373 H 0.19119 0.58832 0.69502 0.0
H1374 H 0.15455 0.53015 0.64615 0.0
H1375 H 0.13715 0.51651 0.61507 0.0
H1376 H 0.08322 0.53262 0.62791 0.0
H1377 H 0.10053 0.54672 0.65898 0.0
C1378 C 0.10834 0.5192 0.75428 0.0
C1379 C 0.08673 0.51874 0.75404 0.0
C1380 C 0.12353 0.52756 0.73894 0.0
C1381 C 0.11773 0.53618 0.72318 0.0
C1382 C 0.09596 0.53524 0.72277 0.0
C1383 C 0.0806 0.5265 0.73792 0.0
C1384 C 0.13427 0.54649 0.70715 0.0
C1385 C 0.12527 0.5385 0.68921 0.0
C1386 C 0.15849 0.56453 0.70928 0.0
C1387 C 0.16899 0.57507 0.72757 0.0
C1388 C 0.15903 0.58529 0.73879 0.0
C1389 C 0.16907 0.5952 0.756 0.0
C1390 C 0.18928 0.59531 0.76203 0.0
C1391 C 0.19953 0.5856 0.75084 0.0
C1392 C 0.18946 0.5755 0.73369 0.0
C1393 C 0.18742 0.60848 0.63466 0.0
C1394 C 0.20669 0.60634 0.62908 0.0
C1395 C 0.1733 0.59526 0.64964 0.0
C1396 C 0.1784 0.57993 0.65951 0.0
C1397 C 0.19769 0.5778 0.65412 0.0
C1398 C 0.21157 0.59068 0.63885 0.0
C1399 C 0.16356 0.56651 0.67563 0.0
C1400 C 0.17288 0.57399 0.69347 0.0
C1401 C 0.13956 0.54837 0.67345 0.0
C1402 C 0.12897 0.53968 0.65484 0.0
C1403 C 0.1391 0.53098 0.64229 0.0
C1404 C 0.12923 0.52313 0.62469 0.0
C1405 C 0.10912 0.52375 0.6195 0.0
C1406 C 0.09881 0.53217 0.63194 0.0
C1407 C 0.10862 0.54007 0.64956 0.0
H1408 H 0.10151 0.51767 0.60587 0.0
H1409 H 0.19704 0.60302 0.77535 0.0
H1410 H 0.59644 0.08044 0.90785 0.0
H1411 H 0.60856 0.10784 0.88152 0.0
H1412 H 0.54709 0.11417 0.88902 0.0
H1413 H 0.53496 0.08699 0.91559 0.0
H1414 H 0.55429 0.10858 0.85255 0.0
H1415 H 0.5997 0.15821 0.90291 0.0
H1416 H 0.62614 0.16995 0.93 0.0
H1417 H 0.68172 0.17474 0.89574 0.0
H1418 H 0.65537 0.16236 0.86849 0.0
H1419 H 0.5993 0.20712 0.78865 0.0
H1420 H 0.58355 0.1826 0.81666 0.0
H1421 H 0.64245 0.17117 0.817 0.0
H1422 H 0.65844 0.19574 0.78933 0.0
H1423 H 0.63442 0.18168 0.85101 0.0
H1424 H 0.58719 0.12809 0.80144 0.0
H1425 H 0.56021 0.11553 0.77458 0.0
H1426 H 0.50792 0.11894 0.80777 0.0
H1427 H 0.53474 0.13182 0.83477 0.0
C1428 C 0.58559 0.08782 0.90404 0.0
C1429 C 0.56479 0.0816 0.91394 0.0
C1430 C 0.59251 0.10343 0.88894 0.0
C1431 C 0.57886 0.11326 0.88343 0.0
C1432 C 0.55787 0.10678 0.89303 0.0
C1433 C 0.55094 0.09118 0.90818 0.0
C1434 C 0.58668 0.13039 0.8677 0.0
C1435 C 0.57166 0.12478 0.85233 0.0
C1436 C 0.60943 0.15141 0.86735 0.0
C1437 C 0.62547 0.15915 0.88367 0.0
C1438 C 0.6175 0.16158 0.90116 0.0
C1439 C 0.63249 0.16838 0.91655 0.0
C1440 C 0.65562 0.17312 0.9146 0.0
C1441 C 0.6638 0.17106 0.89724 0.0
C1442 C 0.64883 0.16413 0.88181 0.0
C1443 C 0.60891 0.19938 0.79467 0.0
C1444 C 0.63013 0.2034 0.78664 0.0
C1445 C 0.59983 0.18531 0.81067 0.0
C1446 C 0.61174 0.17489 0.81887 0.0
C1447 C 0.63298 0.17905 0.81096 0.0
C1448 C 0.64205 0.19307 0.79505 0.0
C1449 C 0.60226 0.15958 0.83566 0.0
C1450 C 0.61697 0.16559 0.85129 0.0
C1451 C 0.57921 0.13899 0.83625 0.0
C1452 C 0.56307 0.13118 0.82005 0.0
C1453 C 0.57001 0.12634 0.80296 0.0
C1454 C 0.55474 0.11913 0.78773 0.0
C1455 C 0.53239 0.11651 0.78945 0.0
C1456 C 0.52525 0.12102 0.80644 0.0
C1457 C 0.54047 0.12826 0.82171 0.0
H1458 H 0.52059 0.11093 0.77764 0.0
H1459 H 0.66721 0.17841 0.92653 0.0
H1460 H 0.47814 0.58257 0.09385 0.0
H1461 H 0.46175 0.59074 0.06634 0.0
H1462 H 0.48613 0.55313 0.03245 0.0
H1463 H 0.50305 0.54547 0.05988 0.0
H1464 H 0.49654 0.59199 0.01609 0.0
H1465 H 0.42591 0.52935 0.04329 0.0
H1466 H 0.39647 0.50775 0.06791 0.0
H1467 H 0.3837 0.56585 0.07239 0.0
H1468 H 0.41331 0.58795 0.04797 0.0
H1469 H 0.39978 0.58592 0.94966 0.0
H1470 H 0.40986 0.56973 0.97646 0.0
H1471 H 0.47156 0.63931 0.98669 0.0
H1472 H 0.46199 0.65543 0.95991 0.0
H1473 H 0.41538 0.57872 0.01284 0.0
H1474 H 0.51719 0.6344 1.0003 0.0
H1475 H 0.54501 0.65164 0.97404 0.0
H1476 H 0.49247 0.59913 0.93744 0.0
H1477 H 0.46446 0.58136 0.96351 0.0
C1478 C 0.4798 0.57587 0.08054 0.0
C1479 C 0.49192 0.56343 0.079 0.0
C1480 C 0.47033 0.58046 0.06482 0.0
C1481 C 0.4724 0.57231 0.04729 0.0
C1482 C 0.48432 0.55966 0.04579 0.0
C1483 C 0.49403 0.55533 0.06146 0.0
C1484 C 0.46325 0.57802 0.0304 0.0
C1485 C 0.47875 0.58897 0.01541 0.0
C1486 C 0.43985 0.57363 0.02922 0.0
C1487 C 0.42199 0.56039 0.0439 0.0
C1488 C 0.41696 0.5376 0.04962 0.0
C1489 C 0.40021 0.52525 0.06352 0.0
C1490 C 0.38826 0.53544 0.07173 0.0
C1491 C 0.39299 0.55798 0.06603 0.0
C1492 C 0.40973 0.57042 0.05214 0.0
C1493 C 0.41542 0.59778 0.95768 0.0
C1494 C 0.43023 0.6219 0.95245 0.0
C1495 C 0.42114 0.58851 0.97301 0.0
C1496 C 0.44172 0.60319 0.98338 0.0
C1497 C 0.4559 0.62748 0.97866 0.0
C1498 C 0.45034 0.63669 0.96332 0.0
C1499 C 0.44892 0.59324 0.99887 0.0
C1500 C 0.43309 0.58155 0.01356 0.0
C1501 C 0.4718 0.5963 0.99958 0.0
C1502 C 0.48866 0.60668 0.98385 0.0
C1503 C 0.51161 0.62646 0.98666 0.0
C1504 C 0.52741 0.63634 0.97181 0.0
C1505 C 0.52049 0.62653 0.95408 0.0
C1506 C 0.49778 0.60676 0.95117 0.0
C1507 C 0.48193 0.5968 0.96598 0.0
H1508 H 0.53274 0.63422 0.94259 0.0
H1509 H 0.3753 0.52585 0.08249 0.0
H1510 H 0.89922 0.48075 0.27051 0.0
H1511 H 0.87333 0.4653 0.24332 0.0
H1512 H 0.93252 0.476 0.21007 0.0
H1513 H 0.95858 0.49249 0.23706 0.0
H1514 H 0.90802 0.48771 0.19041 0.0
H1515 H 0.88825 0.41928 0.22806 0.0
H1516 H 0.87603 0.39462 0.25642 0.0
H1517 H 0.81009 0.39309 0.25671 0.0
H1518 H 0.82206 0.41801 0.22846 0.0
H1519 H 0.83684 0.38687 0.12719 0.0
H1520 H 0.86091 0.40866 0.15412 0.0
H1521 H 0.81912 0.44151 0.16197 0.0
H1522 H 0.79522 0.42024 0.13463 0.0
H1523 H 0.83289 0.40915 0.19412 0.0
H1524 H 0.85718 0.48112 0.15514 0.0
H1525 H 0.87122 0.50249 0.12534 0.0
H1526 H 0.93092 0.4928 0.12653 0.0
H1527 H 0.91697 0.47103 0.15622 0.0
C1528 C 0.90663 0.47982 0.25735 0.0
C1529 C 0.93083 0.48768 0.25585 0.0
C1530 C 0.89184 0.4709 0.24184 0.0
C1531 C 0.90082 0.46902 0.22465 0.0
C1532 C 0.92512 0.47725 0.22312 0.0
C1533 C 0.94 0.48662 0.23855 0.0
C1534 C 0.88493 0.4582 0.20832 0.0
C1535 C 0.89162 0.47053 0.19133 0.0
C1536 C 0.86342 0.43575 0.20932 0.0
C1537 C 0.85616 0.42073 0.22628 0.0
C1538 C 0.87122 0.41383 0.23425 0.0
C1539 C 0.86433 0.39978 0.25029 0.0
C1540 C 0.84233 0.39235 0.25839 0.0
C1541 C 0.82714 0.39889 0.25044 0.0
C1542 C 0.83396 0.41296 0.23441 0.0
C1543 C 0.83282 0.39883 0.13455 0.0
C1544 C 0.81412 0.40184 0.12878 0.0
C1545 C 0.84662 0.41128 0.14989 0.0
C1546 C 0.84183 0.42673 0.15988 0.0
C1547 C 0.82319 0.42981 0.15426 0.0
C1548 C 0.8096 0.41768 0.13866 0.0
C1549 C 0.85595 0.43886 0.17658 0.0
C1550 C 0.84907 0.42657 0.1935 0.0
C1551 C 0.87745 0.46105 0.17546 0.0
C1552 C 0.88588 0.47421 0.15772 0.0
C1553 C 0.87314 0.48331 0.14892 0.0
C1554 C 0.88111 0.49555 0.13209 0.0
C1555 C 0.9019 0.49893 0.12401 0.0
C1556 C 0.91479 0.49013 0.13278 0.0
C1557 C 0.90687 0.47785 0.14961 0.0
H1558 H 0.90806 0.50841 0.11098 0.0
H1559 H 0.83702 0.38148 0.27081 0.0
loop_
_geom_bond_atom_site_label_1
_geom_bond_atom_site_label_2
_geom_bond_distance
_geom_bond_site_symmetry_2
_ccdc_geom_bond_type
C0 C1 1.384 . S
C0 C2 1.384 . S
C0 H28 0.931 . S
C1 C0 1.384 . S
C1 C4 1.382 . S
C2 C0 1.384 . S
C2 C3 1.381 . S
C2 H29 0.930 . S
C3 C2 1.381 . S
C3 C5 1.381 . S
C3 C6 1.487 . S
C4 C1 1.382 . S
C4 C5 1.387 . S
C4 H30 0.930 . S
C5 C3 1.381 . S
C5 C4 1.387 . S
C5 H31 0.931 . S
C6 C3 1.487 . S
C6 C13 1.399 . S
C6 N44 1.343 1_655 S
C7 C8 1.384 . S
C7 C9 1.384 . S
C7 H32 0.931 . S
C8 C7 1.384 . S
C8 C11 1.382 . S
C9 C7 1.384 . S
C9 C10 1.381 . S
C9 H33 0.930 . S
C10 C9 1.381 . S
C10 C12 1.381 . S
C10 C13 1.487 . S
C11 C8 1.382 . S
C11 C12 1.387 . S
C11 H34 0.930 . S
C12 C10 1.381 . S
C12 C11 1.387 . S
C12 H35 0.931 . S
C13 C6 1.399 . S
C13 C10 1.487 . S
C13 N45 1.343 1_655 S
C14 C15 1.384 . S
C14 C16 1.384 . S
C14 H36 0.931 . S
C15 C14 1.384 . S
C15 C18 1.382 . S
C16 C14 1.384 . S
C16 C17 1.381 . S
C16 H37 0.930 . S
C17 C16 1.381 . S
C17 C19 1.381 . S
C17 C20 1.487 . S
C18 C15 1.382 . S
C18 C19 1.387 . S
C18 H38 0.930 . S
C19 C17 1.381 . S
C19 C18 1.387 . S
C19 H39 0.931 . S
C20 C17 1.487 . S
C20 C27 1.399 . S
C20 N45 1.343 . S
C21 C22 1.384 . S
C21 C23 1.384 . S
C21 H40 0.931 . S
C22 C21 1.384 . S
C22 C25 1.382 . S
C23 C21 1.384 . S
C23 C24 1.381 . S
C23 H41 0.930 . S
C24 C23 1.381 . S
C24 C26 1.381 . S
C24 C27 1.487 . S
C25 C22 1.382 . S
C25 C26 1.387 . S
C25 H42 0.930 . S
C26 C24 1.381 . S
C26 C25 1.387 . S
C26 H43 0.931 . S
C27 C20 1.399 . S
C27 C24 1.487 . S
C27 N44 1.343 . S
H28 C0 0.931 . S
H29 C2 0.930 . S
H30 C4 0.930 . S
H31 C5 0.931 . S
H32 C7 0.931 . S
H33 C9 0.930 . S
H34 C11 0.930 . S
H35 C12 0.931 . S
H36 C14 0.931 . S
H37 C16 0.930 . S
H38 C18 0.930 . S
H39 C19 0.931 . S
H40 C21 0.931 . S
H41 C23 0.930 . S
H42 C25 0.930 . S
H43 C26 0.931 . S
N44 C6 1.343 1_455 S
N44 C27 1.343 . S
N45 C13 1.343 1_455 S
N45 C20 1.343 . S
C46 C47 1.384 . S
C46 C48 1.384 . S
C46 H74 0.931 . S
C47 C46 1.384 . S
C47 C50 1.382 . S
C48 C46 1.384 . S
C48 C49 1.381 . S
C48 H75 0.930 . S
C49 C48 1.381 . S
C49 C51 1.381 . S
C49 C52 1.487 . S
C50 C47 1.382 . S
C50 C51 1.387 . S
C50 H76 0.930 . S
C51 C49 1.381 . S
C51 C50 1.387 . S
C51 H77 0.931 . S
C52 C49 1.487 . S
C52 C59 1.399 . S
C52 N90 1.343 . S
C53 C54 1.384 . S
C53 C55 1.384 . S
C53 H78 0.931 . S
C54 C53 1.384 . S
C54 C57 1.382 . S
C55 C53 1.384 . S
C55 C56 1.381 . S
C55 H79 0.930 . S
C56 C55 1.381 . S
C56 C58 1.381 . S
C56 C59 1.487 . S
C57 C54 1.382 . S
C57 C58 1.387 . S
C57 H80 0.930 . S
C58 C56 1.381 . S
C58 C57 1.387 . S
C58 H81 0.931 . S
C59 C52 1.399 . S
C59 C56 1.487 . S
C59 N91 1.343 1_565 S
C60 C61 1.384 . S
C60 C62 1.384 . S
C60 H82 0.931 . S
C61 C60 1.384 . S
C61 C64 1.382 . S
C62 C60 1.384 . S
C62 C63 1.381 . S
C62 H83 0.930 . S
C63 C62 1.381 . S
C63 C65 1.381 . S
C63 C66 1.487 . S
C64 C61 1.382 . S
C64 C65 1.387 . S
C64 H84 0.930 . S
C65 C63 1.381 . S
C65 C64 1.387 . S
C65 H85 0.931 . S
C66 C63 1.487 . S
C66 C73 1.399 . S
C66 N91 1.343 . S
C67 C68 1.384 . S
C67 C69 1.384 . S
C67 H86 0.931 . S
C68 C67 1.384 . S
C68 C71 1.382 . S
C69 C67 1.384 . S
C69 C70 1.381 . S
C69 H87 0.930 . S
C70 C69 1.381 . S
C70 C72 1.381 . S
C70 C73 1.487 . S
C71 C68 1.382 . S
C71 C72 1.387 . S
C71 H88 0.930 . S
C72 C70 1.381 . S
C72 C71 1.387 . S
C72 H89 0.931 . S
C73 C66 1.399 . S
C73 C70 1.487 . S
C73 N90 1.343 1_545 S
H74 C46 0.931 . S
H75 C48 0.930 . S
H76 C50 0.930 . S
H77 C51 0.931 . S
H78 C53 0.931 . S
H79 C55 0.930 . S
H80 C57 0.930 . S
H81 C58 0.931 . S
H82 C60 0.931 . S
H83 C62 0.930 . S
H84 C64 0.930 . S
H85 C65 0.931 . S
H86 C67 0.931 . S
H87 C69 0.930 . S
H88 C71 0.930 . S
H89 C72 0.931 . S
N90 C52 1.343 . S
N90 C73 1.343 1_565 S
N91 C59 1.343 1_545 S
N91 C66 1.343 . S
C92 C93 1.384 . S
C92 C94 1.384 . S
C92 H120 0.931 . S
C93 C92 1.384 . S
C93 C96 1.382 . S
C94 C92 1.384 . S
C94 C95 1.381 . S
C94 H121 0.930 . S
C95 C94 1.381 . S
C95 C97 1.381 . S
C95 C98 1.487 . S
C96 C93 1.382 . S
C96 C97 1.387 . S
C96 H122 0.930 . S
C97 C95 1.381 . S
C97 C96 1.387 . S
C97 H123 0.931 . S
C98 C95 1.487 . S
C98 C105 1.399 . S
C98 N136 1.343 . S
C99 C100 1.384 . S
C99 C101 1.384 . S
C99 H124 0.931 . S
C100 C99 1.384 . S
C100 C103 1.382 . S
C101 C99 1.384 . S
C101 C102 1.381 . S
C101 H125 0.930 . S
C102 C101 1.381 . S
C102 C104 1.381 . S
C102 C105 1.487 . S
C103 C100 1.382 . S
C103 C104 1.387 . S
C103 H126 0.930 . S
C104 C102 1.381 . S
C104 C103 1.387 . S
C104 H127 0.931 . S
C105 C98 1.399 . S
C105 C102 1.487 . S
C105 N137 1.343 . S
C106 C107 1.384 . S
C106 C108 1.384 . S
C106 H128 0.931 . S
C107 C106 1.384 . S
C107 C110 1.382 . S
C108 C106 1.384 . S
C108 C109 1.381 . S
C108 H129 0.930 . S
C109 C108 1.381 . S
C109 C111 1.381 . S
C109 C112 1.487 . S
C110 C107 1.382 . S
C110 C111 1.387 . S
C110 H130 0.930 . S
C111 C109 1.381 . S
C111 C110 1.387 . S
C111 H131 0.931 . S
C112 C109 1.487 . S
C112 C119 1.399 . S
C112 N137 1.343 . S
C113 C114 1.384 . S
C113 C115 1.384 . S
C113 H132 0.931 . S
C114 C113 1.384 . S
C114 C117 1.382 . S
C115 C113 1.384 . S
C115 C116 1.381 . S
C115 H133 0.930 . S
C116 C115 1.381 . S
C116 C118 1.381 . S
C116 C119 1.487 . S
C117 C114 1.382 . S
C117 C118 1.387 . S
C117 H134 0.930 . S
C118 C116 1.381 . S
C118 C117 1.387 . S
C118 H135 0.931 . S
C119 C112 1.399 . S
C119 C116 1.487 . S
C119 N136 1.343 . S
H120 C92 0.931 . S
H121 C94 0.930 . S
H122 C96 0.930 . S
H123 C97 0.931 . S
H124 C99 0.931 . S
H125 C101 0.930 . S
H126 C103 0.930 . S
H127 C104 0.931 . S
H128 C106 0.931 . S
H129 C108 0.930 . S
H130 C110 0.930 . S
H131 C111 0.931 . S
H132 C113 0.931 . S
H133 C115 0.930 . S
H134 C117 0.930 . S
H135 C118 0.931 . S
N136 C98 1.343 . S
N136 C119 1.343 . S
N137 C105 1.343 . S
N137 C112 1.343 . S
C138 C139 1.384 . S
C138 C140 1.384 . S
C138 H166 0.931 . S
C139 C138 1.384 . S
C139 C142 1.382 . S
C140 C138 1.384 . S
C140 C141 1.381 . S
C140 H167 0.930 . S
C141 C140 1.381 . S
C141 C143 1.381 . S
C141 C144 1.487 . S
C142 C139 1.382 . S
C142 C143 1.387 . S
C142 H168 0.930 . S
C143 C141 1.381 . S
C143 C142 1.387 . S
C143 H169 0.931 . S
C144 C141 1.487 . S
C144 C151 1.399 . S
C144 N182 1.342 . S
C145 C146 1.384 . S
C145 C147 1.384 . S
C145 H170 0.931 . S
C146 C145 1.384 . S
C146 C149 1.382 . S
C147 C145 1.384 . S
C147 C148 1.381 . S
C147 H171 0.930 . S
C148 C147 1.381 . S
C148 C150 1.381 . S
C148 C151 1.487 . S
C149 C146 1.382 . S
C149 C150 1.387 . S
C149 H172 0.930 . S
C150 C148 1.381 . S
C150 C149 1.387 . S
C150 H173 0.931 . S
C151 C144 1.399 . S
C151 C148 1.487 . S
C151 N183 1.343 1_655 S
C152 C153 1.384 . S
C152 C154 1.384 . S
C152 H174 0.931 . S
C153 C152 1.384 . S
C153 C156 1.382 . S
C154 C152 1.384 . S
C154 C155 1.381 . S
C154 H175 0.930 . S
C155 C154 1.381 . S
C155 C157 1.381 . S
C155 C158 1.487 . S
C156 C153 1.382 . S
C156 C157 1.387 . S
C156 H176 0.930 . S
C157 C155 1.381 . S
C157 C156 1.387 . S
C157 H177 0.931 . S
C158 C155 1.487 . S
C158 C165 1.399 . S
C158 N183 1.343 . S
C159 C160 1.384 . S
C159 C161 1.384 . S
C159 H178 0.931 . S
C160 C159 1.384 . S
C160 C163 1.382 . S
C161 C159 1.384 . S
C161 C162 1.381 . S
C161 H179 0.930 . S
C162 C161 1.381 . S
C162 C164 1.381 . S
C162 C165 1.487 . S
C163 C160 1.382 . S
C163 C164 1.387 . S
C163 H180 0.930 . S
C164 C162 1.381 . S
C164 C163 1.387 . S
C164 H181 0.931 . S
C165 C158 1.399 . S
C165 C162 1.487 . S
C165 N182 1.345 1_455 S
H166 C138 0.931 . S
H167 C140 0.930 . S
H168 C142 0.930 . S
H169 C143 0.931 . S
H170 C145 0.931 . S
H171 C147 0.930 . S
H172 C149 0.930 . S
H173 C150 0.931 . S
H174 C152 0.931 . S
H175 C154 0.930 . S
H176 C156 0.930 . S
H177 C157 0.931 . S
H178 C159 0.931 . S
H179 C161 0.930 . S
H180 C163 0.930 . S
H181 C164 0.931 . S
N182 C144 1.342 . S
N182 C165 1.345 1_655 S
N183 C151 1.343 1_455 S
N183 C158 1.343 . S
C184 C185 1.384 . S
C184 C186 1.384 . S
C184 H212 0.931 . S
C185 C184 1.384 . S
C185 C188 1.382 . S
C186 C184 1.384 . S
C186 C187 1.381 . S
C186 H213 0.930 1_556 S
C187 C186 1.381 . S
C187 C189 1.381 . S
C187 C190 1.487 . S
C188 C185 1.382 . S
C188 C189 1.387 . S
C188 H214 0.930 . S
C189 C187 1.381 . S
C189 C188 1.387 . S
C189 H215 0.931 . S
C190 C187 1.487 . S
C190 C197 1.399 1_556 S
C190 N228 1.343 . S
C191 C192 1.384 . S
C191 C193 1.384 . S
C191 H216 0.931 . S
C192 C191 1.384 . S
C192 C195 1.382 . S
C193 C191 1.384 . S
C193 C194 1.381 . S
C193 H217 0.930 . S
C194 C193 1.381 . S
C194 C196 1.381 . S
C194 C197 1.487 . S
C195 C192 1.382 . S
C195 C196 1.387 . S
C195 H218 0.930 . S
C196 C194 1.381 . S
C196 C195 1.387 . S
C196 H219 0.931 . S
C197 C190 1.399 1_554 S
C197 C194 1.487 . S
C197 N229 1.343 1_565 S
C198 C199 1.384 . S
C198 C200 1.384 1_554 S
C198 H220 0.929 1_554 S
C199 C198 1.384 . S
C199 C202 1.382 . S
C200 C198 1.384 1_556 S
C200 C201 1.381 1_556 S
C200 H221 0.930 . S
C201 C200 1.381 1_554 S
C201 C203 1.381 . S
C201 C204 1.487 1_554 S
C202 C199 1.382 . S
C202 C203 1.387 . S
C202 H222 0.930 . S
C203 C201 1.381 . S
C203 C202 1.387 . S
C203 H223 0.931 . S
C204 C201 1.487 1_556 S
C204 C211 1.399 . S
C204 N229 1.343 1_556 S
C205 C206 1.384 . S
C205 C207 1.384 . S
C205 H224 0.931 . S
C206 C205 1.384 . S
C206 C209 1.382 . S
C207 C205 1.384 . S
C207 C208 1.381 . S
C207 H225 0.930 . S
C208 C207 1.381 . S
C208 C210 1.381 . S
C208 C211 1.487 . S
C209 C206 1.382 . S
C209 C210 1.387 . S
C209 H226 0.930 . S
C210 C208 1.381 . S
C210 C209 1.387 . S
C210 H227 0.931 . S
C211 C204 1.399 . S
C211 C208 1.487 . S
C211 N228 1.343 1_545 S
H212 C184 0.931 . S
H213 C186 0.930 1_554 S
H214 C188 0.930 . S
H215 C189 0.931 . S
H216 C191 0.931 . S
H217 C193 0.930 . S
H218 C195 0.930 . S
H219 C196 0.931 . S
H220 C198 0.929 1_556 S
H221 C200 0.930 . S
H222 C202 0.930 . S
H223 C203 0.931 . S
H224 C205 0.931 . S
H225 C207 0.930 . S
H226 C209 0.930 . S
H227 C210 0.931 . S
N228 C190 1.343 . S
N228 C211 1.343 1_565 S
N229 C197 1.343 1_545 S
N229 C204 1.343 1_554 S
C230 C231 1.384 . S
C230 C232 1.384 . S
C230 H258 0.931 . S
C231 C230 1.384 . S
C231 C234 1.382 . S
C232 C230 1.384 . S
C232 C233 1.381 . S
C232 H259 0.930 . S
C233 C232 1.381 . S
C233 C235 1.381 . S
C233 C236 1.487 . S
C234 C231 1.382 . S
C234 C235 1.387 . S
C234 H260 0.930 . S
C235 C233 1.381 . S
C235 C234 1.387 . S
C235 H261 0.931 . S
C236 C233 1.487 . S
C236 C243 1.399 . S
C236 N274 1.343 . S
C237 C238 1.384 . S
C237 C239 1.384 . S
C237 H262 0.931 . S
C238 C237 1.384 . S
C238 C241 1.382 . S
C239 C237 1.384 . S
C239 C240 1.381 . S
C239 H263 0.930 . S
C240 C239 1.381 . S
C240 C242 1.381 . S
C240 C243 1.487 . S
C241 C238 1.382 . S
C241 C242 1.387 . S
C241 H264 0.930 . S
C242 C240 1.381 . S
C242 C241 1.387 . S
C242 H265 0.931 . S
C243 C236 1.399 . S
C243 C240 1.487 . S
C243 N275 1.343 . S
C244 C245 1.384 . S
C244 C246 1.384 . S
C244 H266 0.931 . S
C245 C244 1.384 . S
C245 C248 1.382 . S
C246 C244 1.384 . S
C246 C247 1.381 . S
C246 H267 0.930 . S
C247 C246 1.381 . S
C247 C249 1.381 . S
C247 C250 1.487 . S
C248 C245 1.382 . S
C248 C249 1.387 . S
C248 H268 0.930 . S
C249 C247 1.381 . S
C249 C248 1.387 . S
C249 H269 0.931 . S
C250 C247 1.487 . S
C250 C257 1.399 . S
C250 N275 1.343 . S
C251 C252 1.384 . S
C251 C253 1.384 . S
C251 H270 0.931 . S
C252 C251 1.384 . S
C252 C255 1.382 . S
C253 C251 1.384 . S
C253 C254 1.381 . S
C253 H271 0.930 . S
C254 C253 1.381 . S
C254 C256 1.381 . S
C254 C257 1.487 . S
C255 C252 1.382 . S
C255 C256 1.387 . S
C255 H272 0.930 . S
C256 C254 1.381 . S
C256 C255 1.387 . S
C256 H273 0.931 . S
C257 C250 1.399 . S
C257 C254 1.487 . S
C257 N274 1.343 . S
H258 C230 0.931 . S
H259 C232 0.930 . S
H260 C234 0.930 . S
H261 C235 0.931 . S
H262 C237 0.931 . S
H263 C239 0.930 . S
H264 C241 0.930 . S
H265 C242 0.931 . S
H266 C244 0.931 . S
H267 C246 0.930 . S
H268 C248 0.930 . S
H269 C249 0.931 . S
H270 C251 0.931 . S
H271 C253 0.930 . S
H272 C255 0.930 . S
H273 C256 0.931 . S
N274 C236 1.343 . S
N274 C257 1.343 . S
N275 C243 1.343 . S
N275 C250 1.343 . S
Co276 O277 2.216 . S
Co276 O278 2.091 . S
Co276 O280 2.004 . S
Co276 O286 2.021 . S
Co276 O288 2.137 . S
Co276 O289 2.244 . S
O277 Co276 2.216 . S
O277 C284 1.247 . S
O278 Co276 2.091 . S
O278 C284 1.261 . S
C279 O288 1.247 . S
C279 O289 1.272 . S
O280 Co276 2.004 . S
O280 C285 1.259 . S
Co281 O282 2.061 . S
Co281 O287 2.052 . S
Co281 O289 2.135 . S
O282 Co281 2.061 . S
O282 C285 1.235 . S
C283 O286 1.238 . S
C283 O287 1.241 . S
C284 O277 1.247 . S
C284 O278 1.261 . S
C285 O280 1.259 . S
C285 O282 1.235 . S
O286 Co276 2.021 . S
O286 C283 1.238 . S
O287 Co281 2.052 . S
O287 C283 1.241 . S
O288 Co276 2.137 . S
O288 C279 1.247 . S
O289 Co276 2.244 . S
O289 C279 1.272 . S
O289 Co281 2.135 . S
Co290 O291 2.216 . S
Co290 O292 2.091 . S
Co290 O294 2.004 . S
Co290 O300 2.021 . S
Co290 O302 2.137 . S
Co290 O303 2.244 . S
O291 Co290 2.216 . S
O291 C298 1.247 . S
O292 Co290 2.091 . S
O292 C298 1.261 . S
C293 O302 1.247 . S
C293 O303 1.272 . S
O294 Co290 2.004 . S
O294 C299 1.259 . S
Co295 O296 2.061 . S
Co295 O301 2.052 . S
Co295 O303 2.135 . S
O296 Co295 2.061 . S
O296 C299 1.235 . S
C297 O300 1.238 . S
C297 O301 1.241 . S
C298 O291 1.247 . S
C298 O292 1.261 . S
C299 O294 1.259 . S
C299 O296 1.235 . S
O300 Co290 2.021 . S
O300 C297 1.238 . S
O301 Co295 2.052 . S
O301 C297 1.241 . S
O302 Co290 2.137 . S
O302 C293 1.247 . S
O303 Co290 2.244 . S
O303 C293 1.272 . S
O303 Co295 2.135 . S
Co304 O305 2.216 . S
Co304 O306 2.091 . S
Co304 O308 2.004 . S
Co304 O314 2.021 . S
Co304 O316 2.137 . S
Co304 O317 2.244 . S
O305 Co304 2.216 . S
O305 C312 1.247 . S
O306 Co304 2.091 . S
O306 C312 1.261 . S
C307 O316 1.247 . S
C307 O317 1.272 . S
O308 Co304 2.004 . S
O308 C313 1.259 . S
Co309 O310 2.061 . S
Co309 O315 2.052 . S
Co309 O317 2.135 . S
O310 Co309 2.061 . S
O310 C313 1.235 . S
C311 O314 1.238 . S
C311 O315 1.241 . S
C312 O305 1.247 . S
C312 O306 1.261 . S
C313 O308 1.259 . S
C313 O310 1.235 . S
O314 Co304 2.021 . S
O314 C311 1.238 . S
O315 Co309 2.052 . S
O315 C311 1.241 . S
O316 Co304 2.137 . S
O316 C307 1.247 . S
O317 Co304 2.244 . S
O317 C307 1.272 . S
O317 Co309 2.135 . S
Co318 O319 2.216 . S
Co318 O320 2.091 . S
Co318 O322 2.004 . S
Co318 O328 2.021 . S
Co318 O330 2.137 . S
Co318 O331 2.244 . S
O319 Co318 2.216 . S
O319 C326 1.247 . S
O320 Co318 2.091 . S
O320 C326 1.261 . S
C321 O330 1.247 . S
C321 O331 1.272 . S
O322 Co318 2.004 . S
O322 C327 1.259 . S
Co323 O324 2.061 . S
Co323 O329 2.052 . S
Co323 O331 2.135 . S
O324 Co323 2.061 . S
O324 C327 1.235 . S
C325 O328 1.238 . S
C325 O329 1.241 . S
C326 O319 1.247 . S
C326 O320 1.261 . S
C327 O322 1.259 . S
C327 O324 1.235 . S
O328 Co318 2.021 . S
O328 C325 1.238 . S
O329 Co323 2.052 . S
O329 C325 1.241 . S
O330 Co318 2.137 . S
O330 C321 1.247 . S
O331 Co318 2.244 . S
O331 C321 1.272 . S
O331 Co323 2.135 . S
Co332 O333 2.216 . S
Co332 O334 2.091 . S
Co332 O336 2.004 . S
Co332 O342 2.021 . S
Co332 O344 2.137 . S
Co332 O345 2.244 . S
O333 Co332 2.216 . S
O333 C340 1.247 . S
O334 Co332 2.091 . S
O334 C340 1.261 . S
C335 O344 1.247 . S
C335 O345 1.272 . S
O336 Co332 2.004 . S
O336 C341 1.259 . S
Co337 O338 2.061 . S
Co337 O343 2.052 . S
Co337 O345 2.135 . S
O338 Co337 2.061 . S
O338 C341 1.235 . S
C339 O342 1.238 . S
C339 O343 1.241 . S
C340 O333 1.247 . S
C340 O334 1.261 . S
C341 O336 1.259 . S
C341 O338 1.235 . S
O342 Co332 2.021 . S
O342 C339 1.238 . S
O343 Co337 2.052 . S
O343 C339 1.241 . S
O344 Co332 2.137 . S
O344 C335 1.247 . S
O345 Co332 2.244 . S
O345 C335 1.272 . S
O345 Co337 2.135 . S
Co346 O347 2.216 . S
Co346 O348 2.091 . S
Co346 O350 2.004 . S
Co346 O356 2.021 . S
Co346 O358 2.137 . S
Co346 O359 2.244 . S
O347 Co346 2.216 . S
O347 C354 1.247 . S
O348 Co346 2.091 . S
O348 C354 1.261 . S
C349 O358 1.247 . S
C349 O359 1.272 . S
O350 Co346 2.004 . S
O350 C355 1.259 . S
Co351 O352 2.061 . S
Co351 O357 2.052 . S
Co351 O359 2.135 . S
O352 Co351 2.061 . S
O352 C355 1.235 . S
C353 O356 1.238 . S
C353 O357 1.241 . S
C354 O347 1.247 . S
C354 O348 1.261 . S
C355 O350 1.259 . S
C355 O352 1.235 . S
O356 Co346 2.021 . S
O356 C353 1.238 . S
O357 Co351 2.052 . S
O357 C353 1.241 . S
O358 Co346 2.137 . S
O358 C349 1.247 . S
O359 Co346 2.244 . S
O359 C349 1.272 . S
O359 Co351 2.135 . S
H360 C378 0.951 . S
H361 C380 0.951 . S
H362 C382 0.950 . S
H363 C383 0.950 . S
H364 C385 0.950 . S
H365 C388 0.950 . S
H366 C389 0.950 . S
H367 C391 0.950 . S
H368 C392 0.950 . S
H369 C393 0.951 . S
H370 C395 0.951 . S
H371 C397 0.950 . S
H372 C398 0.950 . S
H373 C400 0.950 . S
H374 C403 0.950 . S
H375 C404 0.950 . S
H376 C406 0.950 . S
H377 C407 0.950 . S
C378 H360 0.951 . S
C378 C379 1.366 . S
C378 C380 1.388 . S
C379 C378 1.366 . S
C379 C383 1.385 . S
C380 H361 0.951 . S
C380 C378 1.388 . S
C380 C381 1.366 . S
C381 C380 1.366 . S
C381 C382 1.414 . S
C381 C384 1.499 . S
C382 H362 0.950 . S
C382 C381 1.414 . S
C382 C383 1.374 . S
C383 H363 0.950 . S
C383 C379 1.385 . S
C383 C382 1.374 . S
C384 C381 1.499 . S
C384 C385 1.373 . S
C384 C386 1.389 . S
C385 H364 0.950 . S
C385 C384 1.373 . S
C385 C401 1.377 . S
C386 C384 1.389 . S
C386 C387 1.524 . S
C386 C400 1.377 . S
C387 C386 1.524 . S
C387 C388 1.397 . S
C387 C392 1.363 . S
C388 H365 0.950 . S
C388 C387 1.397 . S
C388 C389 1.334 . S
C389 H366 0.950 . S
C389 C388 1.334 . S
C389 C390 1.287 . S
C390 C389 1.287 . S
C390 C391 1.524 . S
C390 H409 0.913 . S
C391 H367 0.950 . S
C391 C390 1.524 . S
C391 C392 1.415 . S
C392 H368 0.950 . S
C392 C387 1.363 . S
C392 C391 1.415 . S
C393 H369 0.951 . S
C393 C394 1.366 . S
C393 C395 1.388 . S
C394 C393 1.366 . S
C394 C398 1.385 . S
C395 H370 0.951 . S
C395 C393 1.388 . S
C395 C396 1.366 . S
C396 C395 1.366 . S
C396 C397 1.414 . S
C396 C399 1.499 . S
C397 H371 0.950 . S
C397 C396 1.414 . S
C397 C398 1.374 . S
C398 H372 0.950 . S
C398 C394 1.385 . S
C398 C397 1.374 . S
C399 C396 1.499 . S
C399 C400 1.373 . S
C399 C401 1.389 . S
C400 H373 0.950 . S
C400 C386 1.377 . S
C400 C399 1.373 . S
C401 C385 1.377 . S
C401 C399 1.389 . S
C401 C402 1.524 . S
C402 C401 1.524 . S
C402 C403 1.397 . S
C402 C407 1.363 . S
C403 H374 0.950 . S
C403 C402 1.397 . S
C403 C404 1.334 . S
C404 H375 0.950 . S
C404 C403 1.334 . S
C404 C405 1.287 . S
C405 C404 1.287 . S
C405 C406 1.524 . S
C405 H408 0.999 . S
C406 H376 0.950 . S
C406 C405 1.524 . S
C406 C407 1.415 . S
C407 H377 0.950 . S
C407 C402 1.363 . S
C407 C406 1.415 . S
H408 C405 0.999 . S
H409 C390 0.913 . S
H410 C428 0.951 . S
H411 C430 0.951 . S
H412 C432 0.950 . S
H413 C433 0.950 . S
H414 C435 0.950 . S
H415 C438 0.950 . S
H416 C439 0.950 . S
H417 C441 0.950 . S
H418 C442 0.950 . S
H419 C443 0.951 . S
H420 C445 0.951 . S
H421 C447 0.950 . S
H422 C448 0.950 . S
H423 C450 0.950 . S
H424 C453 0.950 . S
H425 C454 0.950 . S
H426 C456 0.950 . S
H427 C457 0.950 . S
C428 H410 0.951 . S
C428 C429 1.366 . S
C428 C430 1.388 . S
C429 C428 1.366 . S
C429 C433 1.385 . S
C430 H411 0.951 . S
C430 C428 1.388 . S
C430 C431 1.366 . S
C431 C430 1.366 . S
C431 C432 1.414 . S
C431 C434 1.499 . S
C432 H412 0.950 . S
C432 C431 1.414 . S
C432 C433 1.374 . S
C433 H413 0.950 . S
C433 C429 1.385 . S
C433 C432 1.374 . S
C434 C431 1.499 . S
C434 C435 1.373 . S
C434 C436 1.389 . S
C435 H414 0.950 . S
C435 C434 1.373 . S
C435 C451 1.377 . S
C436 C434 1.389 . S
C436 C437 1.524 . S
C436 C450 1.377 . S
C437 C436 1.524 . S
C437 C438 1.397 . S
C437 C442 1.363 . S
C438 H415 0.950 . S
C438 C437 1.397 . S
C438 C439 1.334 . S
C439 H416 0.950 . S
C439 C438 1.334 . S
C439 C440 1.287 . S
C440 C439 1.287 . S
C440 C441 1.524 . S
C440 H459 0.913 . S
C441 H417 0.950 . S
C441 C440 1.524 . S
C441 C442 1.415 . S
C442 H418 0.950 . S
C442 C437 1.363 . S
C442 C441 1.415 . S
C443 H419 0.951 . S
C443 C444 1.366 . S
C443 C445 1.388 . S
C444 C443 1.366 . S
C444 C448 1.385 . S
C445 H420 0.951 . S
C445 C443 1.388 . S
C445 C446 1.366 . S
C446 C445 1.366 . S
C446 C447 1.414 . S
C446 C449 1.499 . S
C447 H421 0.950 . S
C447 C446 1.414 . S
C447 C448 1.374 . S
C448 H422 0.950 . S
C448 C444 1.385 . S
C448 C447 1.374 . S
C449 C446 1.499 . S
C449 C450 1.373 . S
C449 C451 1.389 . S
C450 H423 0.950 . S
C450 C436 1.377 . S
C450 C449 1.373 . S
C451 C435 1.377 . S
C451 C449 1.389 . S
C451 C452 1.524 . S
C452 C451 1.524 . S
C452 C453 1.397 . S
C452 C457 1.363 . S
C453 H424 0.950 . S
C453 C452 1.397 . S
C453 C454 1.334 . S
C454 H425 0.950 . S
C454 C453 1.334 . S
C454 C455 1.287 . S
C455 C454 1.287 . S
C455 C456 1.524 . S
C455 H458 0.999 . S
C456 H426 0.950 . S
C456 C455 1.524 . S
C456 C457 1.415 . S
C457 H427 0.950 . S
C457 C452 1.363 . S
C457 C456 1.415 . S
H458 C455 0.999 . S
H459 C440 0.913 . S
H460 C478 0.951 . S
H461 C480 0.951 . S
H462 C482 0.950 . S
H463 C483 0.950 . S
H464 C485 0.950 . S
H465 C488 0.950 . S
H466 C489 0.950 . S
H467 C491 0.950 . S
H468 C492 0.950 . S
H469 C493 0.951 . S
H470 C495 0.951 . S
H471 C497 0.950 . S
H472 C498 0.950 . S
H473 C500 0.950 . S
H474 C503 0.950 . S
H475 C504 0.950 . S
H476 C506 0.950 . S
H477 C507 0.950 . S
C478 H460 0.951 . S
C478 C479 1.366 . S
C478 C480 1.388 . S
C479 C478 1.366 . S
C479 C483 1.385 . S
C480 H461 0.951 . S
C480 C478 1.388 . S
C480 C481 1.366 . S
C481 C480 1.366 . S
C481 C482 1.414 . S
C481 C484 1.499 . S
C482 H462 0.950 . S
C482 C481 1.414 . S
C482 C483 1.374 . S
C483 H463 0.950 . S
C483 C479 1.385 . S
C483 C482 1.374 . S
C484 C481 1.499 . S
C484 C485 1.373 . S
C484 C486 1.389 . S
C485 H464 0.950 . S
C485 C484 1.373 . S
C485 C501 1.377 . S
C486 C484 1.389 . S
C486 C487 1.524 . S
C486 C500 1.377 . S
C487 C486 1.524 . S
C487 C488 1.397 . S
C487 C492 1.363 . S
C488 H465 0.950 . S
C488 C487 1.397 . S
C488 C489 1.334 . S
C489 H466 0.950 . S
C489 C488 1.334 . S
C489 C490 1.287 . S
C490 C489 1.287 . S
C490 C491 1.524 . S
C490 H509 0.913 . S
C491 H467 0.950 . S
C491 C490 1.524 . S
C491 C492 1.415 . S
C492 H468 0.950 . S
C492 C487 1.363 . S
C492 C491 1.415 . S
C493 H469 0.951 . S
C493 C494 1.366 . S
C493 C495 1.388 . S
C494 C493 1.366 . S
C494 C498 1.385 . S
C495 H470 0.951 . S
C495 C493 1.388 . S
C495 C496 1.366 . S
C496 C495 1.366 . S
C496 C497 1.414 . S
C496 C499 1.499 . S
C497 H471 0.950 . S
C497 C496 1.414 . S
C497 C498 1.374 . S
C498 H472 0.950 . S
C498 C494 1.385 . S
C498 C497 1.374 . S
C499 C496 1.499 . S
C499 C500 1.373 . S
C499 C501 1.389 . S
C500 H473 0.950 . S
C500 C486 1.377 . S
C500 C499 1.373 . S
C501 C485 1.377 . S
C501 C499 1.389 . S
C501 C502 1.524 . S
C502 C501 1.524 . S
C502 C503 1.397 . S
C502 C507 1.363 . S
C503 H474 0.950 . S
C503 C502 1.397 . S
C503 C504 1.334 . S
C504 H475 0.950 . S
C504 C503 1.334 . S
C504 C505 1.287 . S
C505 C504 1.287 . S
C505 C506 1.524 . S
C505 H508 0.999 . S
C506 H476 0.950 . S
C506 C505 1.524 . S
C506 C507 1.415 . S
C507 H477 0.950 . S
C507 C502 1.363 . S
C507 C506 1.415 . S
H508 C505 0.999 . S
H509 C490 0.913 . S
H510 C528 0.951 . S
H511 C530 0.951 . S
H512 C532 0.950 . S
H513 C533 0.950 . S
H514 C535 0.950 . S
H515 C538 0.950 . S
H516 C539 0.950 . S
H517 C541 0.950 . S
H518 C542 0.950 . S
H519 C543 0.951 . S
H520 C545 0.951 . S
H521 C547 0.950 . S
H522 C548 0.950 . S
H523 C550 0.950 . S
H524 C553 0.950 . S
H525 C554 0.950 . S
H526 C556 0.950 . S
H527 C557 0.950 . S
C528 H510 0.951 . S
C528 C529 1.366 . S
C528 C530 1.388 . S
C529 C528 1.366 . S
C529 C533 1.385 . S
C530 H511 0.951 . S
C530 C528 1.388 . S
C530 C531 1.366 . S
C531 C530 1.366 . S
C531 C532 1.414 . S
C531 C534 1.499 . S
C532 H512 0.950 . S
C532 C531 1.414 . S
C532 C533 1.374 . S
C533 H513 0.950 . S
C533 C529 1.385 . S
C533 C532 1.374 . S
C534 C531 1.499 . S
C534 C535 1.373 . S
C534 C536 1.389 . S
C535 H514 0.950 . S
C535 C534 1.373 . S
C535 C551 1.377 . S
C536 C534 1.389 . S
C536 C537 1.524 . S
C536 C550 1.377 . S
C537 C536 1.524 . S
C537 C538 1.397 . S
C537 C542 1.363 . S
C538 H515 0.950 . S
C538 C537 1.397 . S
C538 C539 1.334 . S
C539 H516 0.950 . S
C539 C538 1.334 . S
C539 C540 1.287 . S
C540 C539 1.287 . S
C540 C541 1.524 . S
C540 H559 0.913 . S
C541 H517 0.950 . S
C541 C540 1.524 . S
C541 C542 1.415 . S
C542 H518 0.950 . S
C542 C537 1.363 . S
C542 C541 1.415 . S
C543 H519 0.951 . S
C543 C544 1.366 . S
C543 C545 1.388 . S
C544 C543 1.366 . S
C544 C548 1.385 . S
C545 H520 0.951 . S
C545 C543 1.388 . S
C545 C546 1.366 . S
C546 C545 1.366 . S
C546 C547 1.414 . S
C546 C549 1.499 . S
C547 H521 0.950 . S
C547 C546 1.414 . S
C547 C548 1.374 . S
C548 H522 0.950 . S
C548 C544 1.385 . S
C548 C547 1.374 . S
C549 C546 1.499 . S
C549 C550 1.373 . S
C549 C551 1.389 . S
C550 H523 0.950 . S
C550 C536 1.377 . S
C550 C549 1.373 . S
C551 C535 1.377 . S
C551 C549 1.389 . S
C551 C552 1.524 . S
C552 C551 1.524 . S
C552 C553 1.397 . S
C552 C557 1.363 . S
C553 H524 0.950 . S
C553 C552 1.397 . S
C553 C554 1.334 . S
C554 H525 0.950 . S
C554 C553 1.334 . S
C554 C555 1.287 . S
C555 C554 1.287 . S
C555 C556 1.524 . S
C555 H558 0.999 . S
C556 H526 0.950 . S
C556 C555 1.524 . S
C556 C557 1.415 . S
C557 H527 0.950 . S
C557 C552 1.363 . S
C557 C556 1.415 . S
H558 C555 0.999 . S
H559 C540 0.913 . S
H560 C578 0.951 . S
H561 C580 0.951 . S
H562 C582 0.950 . S
H563 C583 0.950 . S
H564 C585 0.950 . S
H565 C588 0.950 . S
H566 C589 0.950 . S
H567 C591 0.950 . S
H568 C592 0.950 . S
H569 C593 0.951 . S
H570 C595 0.951 . S
H571 C597 0.950 . S
H572 C598 0.950 . S
H573 C600 0.950 . S
H574 C603 0.950 . S
H575 C604 0.950 . S
H576 C606 0.950 . S
H577 C607 0.950 . S
C578 H560 0.951 . S
C578 C579 1.366 . S
C578 C580 1.388 . S
C579 C578 1.366 . S
C579 C583 1.385 . S
C580 H561 0.951 . S
C580 C578 1.388 . S
C580 C581 1.366 . S
C581 C580 1.366 . S
C581 C582 1.414 . S
C581 C584 1.499 . S
C582 H562 0.950 . S
C582 C581 1.414 . S
C582 C583 1.374 . S
C583 H563 0.950 . S
C583 C579 1.385 . S
C583 C582 1.374 . S
C584 C581 1.499 . S
C584 C585 1.373 . S
C584 C586 1.389 . S
C585 H564 0.950 . S
C585 C584 1.373 . S
C585 C601 1.377 . S
C586 C584 1.389 . S
C586 C587 1.524 . S
C586 C600 1.377 . S
C587 C586 1.524 . S
C587 C588 1.397 . S
C587 C592 1.363 . S
C588 H565 0.950 . S
C588 C587 1.397 . S
C588 C589 1.334 . S
C589 H566 0.950 . S
C589 C588 1.334 . S
C589 C590 1.287 . S
C590 C589 1.287 . S
C590 C591 1.524 . S
C590 H609 0.913 . S
C591 H567 0.950 . S
C591 C590 1.524 . S
C591 C592 1.415 . S
C592 H568 0.950 . S
C592 C587 1.363 . S
C592 C591 1.415 . S
C593 H569 0.951 . S
C593 C594 1.366 . S
C593 C595 1.388 . S
C594 C593 1.366 . S
C594 C598 1.385 . S
C595 H570 0.951 . S
C595 C593 1.388 . S
C595 C596 1.366 . S
C596 C595 1.366 . S
C596 C597 1.414 . S
C596 C599 1.499 . S
C597 H571 0.950 . S
C597 C596 1.414 . S
C597 C598 1.374 . S
C598 H572 0.950 . S
C598 C594 1.385 . S
C598 C597 1.374 . S
C599 C596 1.499 . S
C599 C600 1.373 . S
C599 C601 1.389 . S
C600 H573 0.950 . S
C600 C586 1.377 . S
C600 C599 1.373 . S
C601 C585 1.377 . S
C601 C599 1.389 . S
C601 C602 1.524 . S
C602 C601 1.524 . S
C602 C603 1.397 . S
C602 C607 1.363 . S
C603 H574 0.950 . S
C603 C602 1.397 . S
C603 C604 1.334 . S
C604 H575 0.950 . S
C604 C603 1.334 . S
C604 C605 1.287 . S
C605 C604 1.287 . S
C605 C606 1.524 . S
C605 H608 0.999 . S
C606 H576 0.950 . S
C606 C605 1.524 . S
C606 C607 1.415 . S
C607 H577 0.950 . S
C607 C602 1.363 . S
C607 C606 1.415 . S
H608 C605 0.999 . S
H609 C590 0.913 . S
H610 C628 0.951 . S
H611 C630 0.951 . S
H612 C632 0.950 . S
H613 C633 0.950 . S
H614 C635 0.950 . S
H615 C638 0.950 . S
H616 C639 0.950 . S
H617 C641 0.950 . S
H618 C642 0.950 . S
H619 C643 0.951 . S
H620 C645 0.951 . S
H621 C647 0.950 . S
H622 C648 0.950 . S
H623 C650 0.950 . S
H624 C653 0.950 . S
H625 C654 0.950 . S
H626 C656 0.950 . S
H627 C657 0.950 . S
C628 H610 0.951 . S
C628 C629 1.366 . S
C628 C630 1.388 . S
C629 C628 1.366 . S
C629 C633 1.385 . S
C630 H611 0.951 . S
C630 C628 1.388 . S
C630 C631 1.366 . S
C631 C630 1.366 . S
C631 C632 1.414 . S
C631 C634 1.499 . S
C632 H612 0.950 . S
C632 C631 1.414 . S
C632 C633 1.374 . S
C633 H613 0.950 . S
C633 C629 1.385 . S
C633 C632 1.374 . S
C634 C631 1.499 . S
C634 C635 1.373 . S
C634 C636 1.389 . S
C635 H614 0.950 . S
C635 C634 1.373 . S
C635 C651 1.377 . S
C636 C634 1.389 . S
C636 C637 1.524 . S
C636 C650 1.377 . S
C637 C636 1.524 . S
C637 C638 1.397 . S
C637 C642 1.363 . S
C638 H615 0.950 . S
C638 C637 1.397 . S
C638 C639 1.334 . S
C639 H616 0.950 . S
C639 C638 1.334 . S
C639 C640 1.287 . S
C640 C639 1.287 . S
C640 C641 1.524 . S
C640 H659 0.913 . S
C641 H617 0.950 . S
C641 C640 1.524 . S
C641 C642 1.415 . S
C642 H618 0.950 . S
C642 C637 1.363 . S
C642 C641 1.415 . S
C643 H619 0.951 . S
C643 C644 1.366 . S
C643 C645 1.388 . S
C644 C643 1.366 . S
C644 C648 1.385 . S
C645 H620 0.951 . S
C645 C643 1.388 . S
C645 C646 1.366 . S
C646 C645 1.366 . S
C646 C647 1.414 . S
C646 C649 1.499 . S
C647 H621 0.950 . S
C647 C646 1.414 . S
C647 C648 1.374 . S
C648 H622 0.950 . S
C648 C644 1.385 . S
C648 C647 1.374 . S
C649 C646 1.499 . S
C649 C650 1.373 . S
C649 C651 1.389 . S
C650 H623 0.950 . S
C650 C636 1.377 . S
C650 C649 1.373 . S
C651 C635 1.377 . S
C651 C649 1.389 . S
C651 C652 1.524 . S
C652 C651 1.524 . S
C652 C653 1.397 . S
C652 C657 1.363 . S
C653 H624 0.950 . S
C653 C652 1.397 . S
C653 C654 1.334 . S
C654 H625 0.950 . S
C654 C653 1.334 . S
C654 C655 1.287 . S
C655 C654 1.287 . S
C655 C656 1.524 . S
C655 H658 0.999 . S
C656 H626 0.950 . S
C656 C655 1.524 . S
C656 C657 1.415 . S
C657 H627 0.950 . S
C657 C652 1.363 . S
C657 C656 1.415 . S
H658 C655 0.999 . S
H659 C640 0.913 . S
H660 C678 0.951 . S
H661 C680 0.951 . S
H662 C682 0.950 . S
H663 C683 0.950 . S
H664 C685 0.950 . S
H665 C688 0.950 . S
H666 C689 0.950 . S
H667 C691 0.950 . S
H668 C692 0.950 . S
H669 C693 0.951 . S
H670 C695 0.951 . S
H671 C697 0.950 . S
H672 C698 0.950 . S
H673 C700 0.950 . S
H674 C703 0.950 . S
H675 C704 0.950 . S
H676 C706 0.950 . S
H677 C707 0.950 . S
C678 H660 0.951 . S
C678 C679 1.366 . S
C678 C680 1.388 . S
C679 C678 1.366 . S
C679 C683 1.385 . S
C680 H661 0.951 . S
C680 C678 1.388 . S
C680 C681 1.366 . S
C681 C680 1.366 . S
C681 C682 1.414 . S
C681 C684 1.499 . S
C682 H662 0.950 . S
C682 C681 1.414 . S
C682 C683 1.374 . S
C683 H663 0.950 . S
C683 C679 1.385 . S
C683 C682 1.374 . S
C684 C681 1.499 . S
C684 C685 1.373 . S
C684 C686 1.389 . S
C685 H664 0.950 . S
C685 C684 1.373 . S
C685 C701 1.377 . S
C686 C684 1.389 . S
C686 C687 1.524 . S
C686 C700 1.377 . S
C687 C686 1.524 . S
C687 C688 1.397 . S
C687 C692 1.363 . S
C688 H665 0.950 . S
C688 C687 1.397 . S
C688 C689 1.334 . S
C689 H666 0.950 . S
C689 C688 1.334 . S
C689 C690 1.287 . S
C690 C689 1.287 . S
C690 C691 1.524 . S
C690 H709 0.913 . S
C691 H667 0.950 . S
C691 C690 1.524 . S
C691 C692 1.415 . S
C692 H668 0.950 . S
C692 C687 1.363 . S
C692 C691 1.415 . S
C693 H669 0.951 . S
C693 C694 1.366 . S
C693 C695 1.388 . S
C694 C693 1.366 . S
C694 C698 1.385 . S
C695 H670 0.951 . S
C695 C693 1.388 . S
C695 C696 1.366 . S
C696 C695 1.366 . S
C696 C697 1.414 . S
C696 C699 1.499 . S
C697 H671 0.950 . S
C697 C696 1.414 . S
C697 C698 1.374 . S
C698 H672 0.950 . S
C698 C694 1.385 . S
C698 C697 1.374 . S
C699 C696 1.499 . S
C699 C700 1.373 . S
C699 C701 1.389 . S
C700 H673 0.950 . S
C700 C686 1.377 . S
C700 C699 1.373 . S
C701 C685 1.377 . S
C701 C699 1.389 . S
C701 C702 1.524 . S
C702 C701 1.524 . S
C702 C703 1.397 . S
C702 C707 1.363 . S
C703 H674 0.950 . S
C703 C702 1.397 . S
C703 C704 1.334 . S
C704 H675 0.950 . S
C704 C703 1.334 . S
C704 C705 1.287 . S
C705 C704 1.287 . S
C705 C706 1.524 . S
C705 H708 0.999 . S
C706 H676 0.950 . S
C706 C705 1.524 . S
C706 C707 1.415 . S
C707 H677 0.950 . S
C707 C702 1.363 . S
C707 C706 1.415 . S
H708 C705 0.999 . S
H709 C690 0.913 . S
H710 C728 0.951 . S
H711 C730 0.951 . S
H712 C732 0.950 . S
H713 C733 0.950 . S
H714 C735 0.950 . S
H715 C738 0.950 . S
H716 C739 0.950 . S
H717 C741 0.950 . S
H718 C742 0.950 . S
H719 C743 0.951 . S
H720 C745 0.951 . S
H721 C747 0.950 . S
H722 C748 0.950 . S
H723 C750 0.950 . S
H724 C753 0.950 . S
H725 C754 0.950 . S
H726 C756 0.950 . S
H727 C757 0.950 . S
C728 H710 0.951 . S
C728 C729 1.366 . S
C728 C730 1.388 . S
C729 C728 1.366 . S
C729 C733 1.385 . S
C730 H711 0.951 . S
C730 C728 1.388 . S
C730 C731 1.366 . S
C731 C730 1.366 . S
C731 C732 1.414 . S
C731 C734 1.499 . S
C732 H712 0.950 . S
C732 C731 1.414 . S
C732 C733 1.374 . S
C733 H713 0.950 . S
C733 C729 1.385 . S
C733 C732 1.374 . S
C734 C731 1.499 . S
C734 C735 1.373 . S
C734 C736 1.389 . S
C735 H714 0.950 . S
C735 C734 1.373 . S
C735 C751 1.377 . S
C736 C734 1.389 . S
C736 C737 1.524 . S
C736 C750 1.377 . S
C737 C736 1.524 . S
C737 C738 1.397 . S
C737 C742 1.363 . S
C738 H715 0.950 . S
C738 C737 1.397 . S
C738 C739 1.334 . S
C739 H716 0.950 . S
C739 C738 1.334 . S
C739 C740 1.287 . S
C740 C739 1.287 . S
C740 C741 1.524 . S
C740 H759 0.913 . S
C741 H717 0.950 . S
C741 C740 1.524 . S
C741 C742 1.415 . S
C742 H718 0.950 . S
C742 C737 1.363 . S
C742 C741 1.415 . S
C743 H719 0.951 . S
C743 C744 1.366 . S
C743 C745 1.388 . S
C744 C743 1.366 . S
C744 C748 1.385 . S
C745 H720 0.951 . S
C745 C743 1.388 . S
C745 C746 1.366 . S
C746 C745 1.366 . S
C746 C747 1.414 . S
C746 C749 1.499 . S
C747 H721 0.950 . S
C747 C746 1.414 . S
C747 C748 1.374 . S
C748 H722 0.950 . S
C748 C744 1.385 . S
C748 C747 1.374 . S
C749 C746 1.499 . S
C749 C750 1.373 . S
C749 C751 1.389 . S
C750 H723 0.950 . S
C750 C736 1.377 . S
C750 C749 1.373 . S
C751 C735 1.377 . S
C751 C749 1.389 . S
C751 C752 1.524 . S
C752 C751 1.524 . S
C752 C753 1.397 . S
C752 C757 1.363 . S
C753 H724 0.950 . S
C753 C752 1.397 . S
C753 C754 1.334 . S
C754 H725 0.950 . S
C754 C753 1.334 . S
C754 C755 1.287 . S
C755 C754 1.287 . S
C755 C756 1.524 . S
C755 H758 0.999 . S
C756 H726 0.950 . S
C756 C755 1.524 . S
C756 C757 1.415 . S
C757 H727 0.950 . S
C757 C752 1.363 . S
C757 C756 1.415 . S
H758 C755 0.999 . S
H759 C740 0.913 . S
H760 C778 0.951 . S
H761 C780 0.951 . S
H762 C782 0.950 . S
H763 C783 0.950 . S
H764 C785 0.950 . S
H765 C788 0.950 . S
H766 C789 0.950 . S
H767 C791 0.950 . S
H768 C792 0.950 . S
H769 C793 0.951 . S
H770 C795 0.951 . S
H771 C797 0.950 . S
H772 C798 0.950 . S
H773 C800 0.950 . S
H774 C803 0.950 . S
H775 C804 0.950 . S
H776 C806 0.950 . S
H777 C807 0.950 . S
C778 H760 0.951 . S
C778 C779 1.366 . S
C778 C780 1.388 . S
C779 C778 1.366 . S
C779 C783 1.385 . S
C780 H761 0.951 . S
C780 C778 1.388 . S
C780 C781 1.366 . S
C781 C780 1.366 . S
C781 C782 1.414 . S
C781 C784 1.499 . S
C782 H762 0.950 . S
C782 C781 1.414 . S
C782 C783 1.374 . S
C783 H763 0.950 . S
C783 C779 1.385 . S
C783 C782 1.374 . S
C784 C781 1.499 . S
C784 C785 1.373 . S
C784 C786 1.389 . S
C785 H764 0.950 . S
C785 C784 1.373 . S
C785 C801 1.377 . S
C786 C784 1.389 . S
C786 C787 1.524 . S
C786 C800 1.377 . S
C787 C786 1.524 . S
C787 C788 1.397 . S
C787 C792 1.363 . S
C788 H765 0.950 . S
C788 C787 1.397 . S
C788 C789 1.334 . S
C789 H766 0.950 . S
C789 C788 1.334 . S
C789 C790 1.287 . S
C790 C789 1.287 . S
C790 C791 1.524 . S
C790 H809 0.913 . S
C791 H767 0.950 . S
C791 C790 1.524 . S
C791 C792 1.415 . S
C792 H768 0.950 . S
C792 C787 1.363 . S
C792 C791 1.415 . S
C793 H769 0.951 . S
C793 C794 1.366 . S
C793 C795 1.388 . S
C794 C793 1.366 . S
C794 C798 1.385 . S
C795 H770 0.951 . S
C795 C793 1.388 . S
C795 C796 1.366 . S
C796 C795 1.366 . S
C796 C797 1.414 . S
C796 C799 1.499 . S
C797 H771 0.950 . S
C797 C796 1.414 . S
C797 C798 1.374 . S
C798 H772 0.950 . S
C798 C794 1.385 . S
C798 C797 1.374 . S
C799 C796 1.499 . S
C799 C800 1.373 . S
C799 C801 1.389 . S
C800 H773 0.950 . S
C800 C786 1.377 . S
C800 C799 1.373 . S
C801 C785 1.377 . S
C801 C799 1.389 . S
C801 C802 1.524 . S
C802 C801 1.524 . S
C802 C803 1.397 . S
C802 C807 1.363 . S
C803 H774 0.950 . S
C803 C802 1.397 . S
C803 C804 1.334 . S
C804 H775 0.950 . S
C804 C803 1.334 . S
C804 C805 1.287 . S
C805 C804 1.287 . S
C805 C806 1.524 . S
C805 H808 0.999 . S
C806 H776 0.950 . S
C806 C805 1.524 . S
C806 C807 1.415 . S
C807 H777 0.950 . S
C807 C802 1.363 . S
C807 C806 1.415 . S
H808 C805 0.999 . S
H809 C790 0.913 . S
H810 C828 0.951 . S
H811 C830 0.951 . S
H812 C832 0.950 . S
H813 C833 0.950 . S
H814 C835 0.950 . S
H815 C838 0.950 . S
H816 C839 0.950 . S
H817 C841 0.950 . S
H818 C842 0.950 . S
H819 C843 0.951 . S
H820 C845 0.951 . S
H821 C847 0.950 . S
H822 C848 0.950 . S
H823 C850 0.950 . S
H824 C853 0.950 . S
H825 C854 0.950 . S
H826 C856 0.950 . S
H827 C857 0.950 . S
C828 H810 0.951 . S
C828 C829 1.366 . S
C828 C830 1.388 . S
C829 C828 1.366 . S
C829 C833 1.385 . S
C830 H811 0.951 . S
C830 C828 1.388 . S
C830 C831 1.366 . S
C831 C830 1.366 . S
C831 C832 1.414 . S
C831 C834 1.499 . S
C832 H812 0.950 . S
C832 C831 1.414 . S
C832 C833 1.374 . S
C833 H813 0.950 . S
C833 C829 1.385 . S
C833 C832 1.374 . S
C834 C831 1.499 . S
C834 C835 1.373 . S
C834 C836 1.389 . S
C835 H814 0.950 . S
C835 C834 1.373 . S
C835 C851 1.377 . S
C836 C834 1.389 . S
C836 C837 1.524 . S
C836 C850 1.377 . S
C837 C836 1.524 . S
C837 C838 1.397 1_554 S
C837 C842 1.363 . S
C838 H815 0.950 . S
C838 C837 1.397 1_556 S
C838 C839 1.334 . S
C839 H816 0.950 . S
C839 C838 1.334 . S
C839 C840 1.287 . S
C840 C839 1.287 . S
C840 C841 1.524 . S
C840 H859 0.913 . S
C841 H817 0.950 . S
C841 C840 1.524 . S
C841 C842 1.415 1_556 S
C842 H818 0.950 . S
C842 C837 1.363 . S
C842 C841 1.415 1_554 S
C843 H819 0.951 . S
C843 C844 1.366 . S
C843 C845 1.388 . S
C844 C843 1.366 . S
C844 C848 1.385 . S
C845 H820 0.951 . S
C845 C843 1.388 . S
C845 C846 1.366 . S
C846 C845 1.366 . S
C846 C847 1.414 . S
C846 C849 1.499 . S
C847 H821 0.950 . S
C847 C846 1.414 . S
C847 C848 1.374 . S
C848 H822 0.950 . S
C848 C844 1.385 . S
C848 C847 1.374 . S
C849 C846 1.499 . S
C849 C850 1.373 . S
C849 C851 1.389 . S
C850 H823 0.950 . S
C850 C836 1.377 . S
C850 C849 1.373 . S
C851 C835 1.377 . S
C851 C849 1.389 . S
C851 C852 1.524 . S
C852 C851 1.524 . S
C852 C853 1.397 . S
C852 C857 1.363 . S
C853 H824 0.950 . S
C853 C852 1.397 . S
C853 C854 1.334 . S
C854 H825 0.950 . S
C854 C853 1.334 . S
C854 C855 1.287 . S
C855 C854 1.287 . S
C855 C856 1.524 . S
C855 H858 0.999 . S
C856 H826 0.950 . S
C856 C855 1.524 . S
C856 C857 1.415 . S
C857 H827 0.950 . S
C857 C852 1.363 . S
C857 C856 1.415 . S
H858 C855 0.999 . S
H859 C840 0.913 . S
H860 C878 0.951 . S
H861 C880 0.951 . S
H862 C882 0.950 . S
H863 C883 0.950 . S
H864 C885 0.950 . S
H865 C888 0.950 . S
H866 C889 0.950 . S
H867 C891 0.950 . S
H868 C892 0.950 . S
H869 C893 0.951 . S
H870 C895 0.951 . S
H871 C897 0.950 . S
H872 C898 0.950 . S
H873 C900 0.950 . S
H874 C903 0.950 . S
H875 C904 0.950 . S
H876 C906 0.950 . S
H877 C907 0.950 . S
C878 H860 0.951 . S
C878 C879 1.366 . S
C878 C880 1.388 . S
C879 C878 1.366 . S
C879 C883 1.385 . S
C880 H861 0.951 . S
C880 C878 1.388 . S
C880 C881 1.366 . S
C881 C880 1.366 . S
C881 C882 1.414 . S
C881 C884 1.499 . S
C882 H862 0.950 . S
C882 C881 1.414 . S
C882 C883 1.374 . S
C883 H863 0.950 . S
C883 C879 1.385 . S
C883 C882 1.374 . S
C884 C881 1.499 . S
C884 C885 1.373 . S
C884 C886 1.389 . S
C885 H864 0.950 . S
C885 C884 1.373 . S
C885 C901 1.377 . S
C886 C884 1.389 . S
C886 C887 1.524 . S
C886 C900 1.377 . S
C887 C886 1.524 . S
C887 C888 1.397 . S
C887 C892 1.363 . S
C888 H865 0.950 . S
C888 C887 1.397 . S
C888 C889 1.334 . S
C889 H866 0.950 . S
C889 C888 1.334 . S
C889 C890 1.287 . S
C890 C889 1.287 . S
C890 C891 1.524 . S
C890 H909 0.913 . S
C891 H867 0.950 . S
C891 C890 1.524 . S
C891 C892 1.415 . S
C892 H868 0.950 . S
C892 C887 1.363 . S
C892 C891 1.415 . S
C893 H869 0.951 . S
C893 C894 1.366 . S
C893 C895 1.388 . S
C894 C893 1.366 . S
C894 C898 1.385 . S
C895 H870 0.951 . S
C895 C893 1.388 . S
C895 C896 1.366 . S
C896 C895 1.366 . S
C896 C897 1.414 . S
C896 C899 1.499 . S
C897 H871 0.950 . S
C897 C896 1.414 . S
C897 C898 1.374 . S
C898 H872 0.950 . S
C898 C894 1.385 . S
C898 C897 1.374 . S
C899 C896 1.499 . S
C899 C900 1.373 . S
C899 C901 1.389 . S
C900 H873 0.950 . S
C900 C886 1.377 . S
C900 C899 1.373 . S
C901 C885 1.377 . S
C901 C899 1.389 . S
C901 C902 1.524 . S
C902 C901 1.524 . S
C902 C903 1.397 . S
C902 C907 1.363 . S
C903 H874 0.950 . S
C903 C902 1.397 . S
C903 C904 1.334 . S
C904 H875 0.950 . S
C904 C903 1.334 . S
C904 C905 1.287 . S
C905 C904 1.287 . S
C905 C906 1.524 . S
C905 H908 0.999 . S
C906 H876 0.950 . S
C906 C905 1.524 . S
C906 C907 1.415 . S
C907 H877 0.950 . S
C907 C902 1.363 . S
C907 C906 1.415 . S
H908 C905 0.999 . S
H909 C890 0.913 . S
H910 C928 0.951 . S
H911 C930 0.951 . S
H912 C932 0.950 . S
H913 C933 0.950 . S
H914 C935 0.950 . S
H915 C938 0.950 . S
H916 C939 0.950 . S
H917 C941 0.950 . S
H918 C942 0.950 . S
H919 C943 0.951 . S
H920 C945 0.951 . S
H921 C947 0.950 . S
H922 C948 0.950 . S
H923 C950 0.950 . S
H924 C953 0.950 . S
H925 C954 0.950 . S
H926 C956 0.950 . S
H927 C957 0.950 . S
C928 H910 0.951 . S
C928 C929 1.366 . S
C928 C930 1.388 . S
C929 C928 1.366 . S
C929 C933 1.385 . S
C930 H911 0.951 . S
C930 C928 1.388 . S
C930 C931 1.366 . S
C931 C930 1.366 . S
C931 C932 1.414 . S
C931 C934 1.499 . S
C932 H912 0.950 . S
C932 C931 1.414 . S
C932 C933 1.374 . S
C933 H913 0.950 . S
C933 C929 1.385 . S
C933 C932 1.374 . S
C934 C931 1.499 . S
C934 C935 1.373 . S
C934 C936 1.389 . S
C935 H914 0.950 . S
C935 C934 1.373 . S
C935 C951 1.377 . S
C936 C934 1.389 . S
C936 C937 1.524 . S
C936 C950 1.377 . S
C937 C936 1.524 . S
C937 C938 1.397 . S
C937 C942 1.363 . S
C938 H915 0.950 . S
C938 C937 1.397 . S
C938 C939 1.334 . S
C939 H916 0.950 . S
C939 C938 1.334 . S
C939 C940 1.287 . S
C940 C939 1.287 . S
C940 C941 1.524 . S
C940 H959 0.913 . S
C941 H917 0.950 . S
C941 C940 1.524 . S
C941 C942 1.415 . S
C942 H918 0.950 . S
C942 C937 1.363 . S
C942 C941 1.415 . S
C943 H919 0.951 . S
C943 C944 1.366 . S
C943 C945 1.388 . S
C944 C943 1.366 . S
C944 C948 1.385 . S
C945 H920 0.951 . S
C945 C943 1.388 . S
C945 C946 1.366 . S
C946 C945 1.366 . S
C946 C947 1.414 . S
C946 C949 1.499 . S
C947 H921 0.950 . S
C947 C946 1.414 . S
C947 C948 1.374 . S
C948 H922 0.950 . S
C948 C944 1.385 . S
C948 C947 1.374 . S
C949 C946 1.499 . S
C949 C950 1.373 . S
C949 C951 1.389 . S
C950 H923 0.950 . S
C950 C936 1.377 . S
C950 C949 1.373 . S
C951 C935 1.377 . S
C951 C949 1.389 . S
C951 C952 1.524 . S
C952 C951 1.524 . S
C952 C953 1.397 . S
C952 C957 1.363 . S
C953 H924 0.950 . S
C953 C952 1.397 . S
C953 C954 1.334 . S
C954 H925 0.950 . S
C954 C953 1.334 . S
C954 C955 1.287 . S
C955 C954 1.287 . S
C955 C956 1.524 . S
C955 H958 0.999 . S
C956 H926 0.950 . S
C956 C955 1.524 . S
C956 C957 1.415 . S
C957 H927 0.950 . S
C957 C952 1.363 . S
C957 C956 1.415 . S
H958 C955 0.999 . S
H959 C940 0.913 . S
H960 C978 0.951 . S
H961 C980 0.951 . S
H962 C982 0.950 . S
H963 C983 0.950 . S
H964 C985 0.950 . S
H965 C988 0.950 . S
H966 C989 0.950 . S
H967 C991 0.950 . S
H968 C992 0.950 . S
H969 C993 0.951 . S
H970 C995 0.951 . S
H971 C997 0.950 . S
H972 C998 0.950 . S
H973 C1000 0.950 . S
H974 C1003 0.950 . S
H975 C1004 0.950 . S
H976 C1006 0.950 . S
H977 C1007 0.950 . S
C978 H960 0.951 . S
C978 C979 1.366 . S
C978 C980 1.388 . S
C979 C978 1.366 . S
C979 C983 1.385 . S
C980 H961 0.951 . S
C980 C978 1.388 . S
C980 C981 1.366 . S
C981 C980 1.366 . S
C981 C982 1.414 . S
C981 C984 1.499 . S
C982 H962 0.950 . S
C982 C981 1.414 . S
C982 C983 1.374 . S
C983 H963 0.950 . S
C983 C979 1.385 . S
C983 C982 1.374 . S
C984 C981 1.499 . S
C984 C985 1.373 . S
C984 C986 1.389 . S
C985 H964 0.950 . S
C985 C984 1.373 . S
C985 C1001 1.377 . S
C986 C984 1.389 . S
C986 C987 1.524 . S
C986 C1000 1.377 . S
C987 C986 1.524 . S
C987 C988 1.397 . S
C987 C992 1.363 . S
C988 H965 0.950 . S
C988 C987 1.397 . S
C988 C989 1.334 . S
C989 H966 0.950 . S
C989 C988 1.334 . S
C989 C990 1.287 . S
C990 C989 1.287 . S
C990 C991 1.524 . S
C990 H1009 0.913 . S
C991 H967 0.950 . S
C991 C990 1.524 . S
C991 C992 1.415 . S
C992 H968 0.950 . S
C992 C987 1.363 . S
C992 C991 1.415 . S
C993 H969 0.951 . S
C993 C994 1.366 . S
C993 C995 1.388 . S
C994 C993 1.366 . S
C994 C998 1.385 . S
C995 H970 0.951 . S
C995 C993 1.388 . S
C995 C996 1.366 . S
C996 C995 1.366 . S
C996 C997 1.414 . S
C996 C999 1.499 . S
C997 H971 0.950 . S
C997 C996 1.414 . S
C997 C998 1.374 . S
C998 H972 0.950 . S
C998 C994 1.385 . S
C998 C997 1.374 . S
C999 C996 1.499 . S
C999 C1000 1.373 . S
C999 C1001 1.389 . S
C1000 H973 0.950 . S
C1000 C986 1.377 . S
C1000 C999 1.373 . S
C1001 C985 1.377 . S
C1001 C999 1.389 . S
C1001 C1002 1.524 . S
C1002 C1001 1.524 . S
C1002 C1003 1.397 . S
C1002 C1007 1.363 . S
C1003 H974 0.950 . S
C1003 C1002 1.397 . S
C1003 C1004 1.334 . S
C1004 H975 0.950 . S
C1004 C1003 1.334 . S
C1004 C1005 1.287 . S
C1005 C1004 1.287 . S
C1005 C1006 1.524 . S
C1005 H1008 0.999 . S
C1006 H976 0.950 . S
C1006 C1005 1.524 . S
C1006 C1007 1.415 . S
C1007 H977 0.950 . S
C1007 C1002 1.363 . S
C1007 C1006 1.415 . S
H1008 C1005 0.999 . S
H1009 C990 0.913 . S
H1010 C1028 0.951 . S
H1011 C1030 0.951 . S
H1012 C1032 0.950 . S
H1013 C1033 0.950 . S
H1014 C1035 0.950 . S
H1015 C1038 0.950 . S
H1016 C1039 0.950 . S
H1017 C1041 0.950 . S
H1018 C1042 0.950 . S
H1019 C1043 0.951 . S
H1020 C1045 0.951 . S
H1021 C1047 0.950 . S
H1022 C1048 0.950 . S
H1023 C1050 0.950 . S
H1024 C1053 0.950 . S
H1025 C1054 0.950 . S
H1026 C1056 0.950 . S
H1027 C1057 0.950 . S
C1028 H1010 0.951 . S
C1028 C1029 1.366 . S
C1028 C1030 1.388 . S
C1029 C1028 1.366 . S
C1029 C1033 1.385 . S
C1030 H1011 0.951 . S
C1030 C1028 1.388 . S
C1030 C1031 1.366 . S
C1031 C1030 1.366 . S
C1031 C1032 1.414 . S
C1031 C1034 1.499 . S
C1032 H1012 0.950 . S
C1032 C1031 1.414 . S
C1032 C1033 1.374 . S
C1033 H1013 0.950 . S
C1033 C1029 1.385 . S
C1033 C1032 1.374 . S
C1034 C1031 1.499 . S
C1034 C1035 1.373 . S
C1034 C1036 1.389 . S
C1035 H1014 0.950 . S
C1035 C1034 1.373 . S
C1035 C1051 1.377 . S
C1036 C1034 1.389 . S
C1036 C1037 1.524 . S
C1036 C1050 1.377 . S
C1037 C1036 1.524 . S
C1037 C1038 1.397 . S
C1037 C1042 1.363 . S
C1038 H1015 0.950 . S
C1038 C1037 1.397 . S
C1038 C1039 1.334 . S
C1039 H1016 0.950 . S
C1039 C1038 1.334 . S
C1039 C1040 1.287 . S
C1040 C1039 1.287 . S
C1040 C1041 1.524 . S
C1040 H1059 0.913 . S
C1041 H1017 0.950 . S
C1041 C1040 1.524 . S
C1041 C1042 1.415 . S
C1042 H1018 0.950 . S
C1042 C1037 1.363 . S
C1042 C1041 1.415 . S
C1043 H1019 0.951 . S
C1043 C1044 1.366 . S
C1043 C1045 1.388 . S
C1044 C1043 1.366 . S
C1044 C1048 1.385 . S
C1045 H1020 0.951 . S
C1045 C1043 1.388 . S
C1045 C1046 1.366 . S
C1046 C1045 1.366 . S
C1046 C1047 1.414 . S
C1046 C1049 1.499 . S
C1047 H1021 0.950 . S
C1047 C1046 1.414 . S
C1047 C1048 1.374 . S
C1048 H1022 0.950 . S
C1048 C1044 1.385 . S
C1048 C1047 1.374 . S
C1049 C1046 1.499 . S
C1049 C1050 1.373 . S
C1049 C1051 1.389 . S
C1050 H1023 0.950 . S
C1050 C1036 1.377 . S
C1050 C1049 1.373 . S
C1051 C1035 1.377 . S
C1051 C1049 1.389 . S
C1051 C1052 1.524 . S
C1052 C1051 1.524 . S
C1052 C1053 1.397 . S
C1052 C1057 1.363 . S
C1053 H1024 0.950 . S
C1053 C1052 1.397 . S
C1053 C1054 1.334 . S
C1054 H1025 0.950 . S
C1054 C1053 1.334 . S
C1054 C1055 1.287 . S
C1055 C1054 1.287 . S
C1055 C1056 1.524 . S
C1055 H1058 0.999 . S
C1056 H1026 0.950 . S
C1056 C1055 1.524 . S
C1056 C1057 1.415 . S
C1057 H1027 0.950 . S
C1057 C1052 1.363 . S
C1057 C1056 1.415 . S
H1058 C1055 0.999 . S
H1059 C1040 0.913 . S
H1060 C1078 0.951 . S
H1061 C1080 0.951 . S
H1062 C1082 0.950 . S
H1063 C1083 0.950 . S
H1064 C1085 0.950 . S
H1065 C1088 0.950 . S
H1066 C1089 0.950 . S
H1067 C1091 0.950 . S
H1068 C1092 0.950 . S
H1069 C1093 0.951 . S
H1070 C1095 0.951 . S
H1071 C1097 0.950 . S
H1072 C1098 0.950 . S
H1073 C1100 0.950 . S
H1074 C1103 0.950 . S
H1075 C1104 0.950 . S
H1076 C1106 0.950 . S
H1077 C1107 0.950 . S
C1078 H1060 0.951 . S
C1078 C1079 1.366 . S
C1078 C1080 1.388 . S
C1079 C1078 1.366 . S
C1079 C1083 1.385 . S
C1080 H1061 0.951 . S
C1080 C1078 1.388 . S
C1080 C1081 1.366 . S
C1081 C1080 1.366 . S
C1081 C1082 1.414 . S
C1081 C1084 1.499 . S
C1082 H1062 0.950 . S
C1082 C1081 1.414 . S
C1082 C1083 1.374 . S
C1083 H1063 0.950 . S
C1083 C1079 1.385 . S
C1083 C1082 1.374 . S
C1084 C1081 1.499 . S
C1084 C1085 1.373 . S
C1084 C1086 1.389 . S
C1085 H1064 0.950 . S
C1085 C1084 1.373 . S
C1085 C1101 1.377 . S
C1086 C1084 1.389 . S
C1086 C1087 1.524 . S
C1086 C1100 1.377 . S
C1087 C1086 1.524 . S
C1087 C1088 1.397 . S
C1087 C1092 1.363 . S
C1088 H1065 0.950 . S
C1088 C1087 1.397 . S
C1088 C1089 1.334 . S
C1089 H1066 0.950 . S
C1089 C1088 1.334 . S
C1089 C1090 1.287 . S
C1090 C1089 1.287 . S
C1090 C1091 1.524 . S
C1090 H1109 0.913 . S
C1091 H1067 0.950 . S
C1091 C1090 1.524 . S
C1091 C1092 1.415 . S
C1092 H1068 0.950 . S
C1092 C1087 1.363 . S
C1092 C1091 1.415 . S
C1093 H1069 0.951 . S
C1093 C1094 1.366 . S
C1093 C1095 1.388 . S
C1094 C1093 1.366 . S
C1094 C1098 1.385 . S
C1095 H1070 0.951 . S
C1095 C1093 1.388 . S
C1095 C1096 1.366 . S
C1096 C1095 1.366 . S
C1096 C1097 1.414 . S
C1096 C1099 1.499 . S
C1097 H1071 0.950 . S
C1097 C1096 1.414 . S
C1097 C1098 1.374 . S
C1098 H1072 0.950 . S
C1098 C1094 1.385 . S
C1098 C1097 1.374 . S
C1099 C1096 1.499 . S
C1099 C1100 1.373 . S
C1099 C1101 1.389 . S
C1100 H1073 0.950 . S
C1100 C1086 1.377 . S
C1100 C1099 1.373 . S
C1101 C1085 1.377 . S
C1101 C1099 1.389 . S
C1101 C1102 1.524 . S
C1102 C1101 1.524 . S
C1102 C1103 1.397 . S
C1102 C1107 1.363 . S
C1103 H1074 0.950 . S
C1103 C1102 1.397 . S
C1103 C1104 1.334 . S
C1104 H1075 0.950 . S
C1104 C1103 1.334 . S
C1104 C1105 1.287 . S
C1105 C1104 1.287 . S
C1105 C1106 1.524 . S
C1105 H1108 0.999 . S
C1106 H1076 0.950 . S
C1106 C1105 1.524 . S
C1106 C1107 1.415 . S
C1107 H1077 0.950 . S
C1107 C1102 1.363 . S
C1107 C1106 1.415 . S
H1108 C1105 0.999 . S
H1109 C1090 0.913 . S
H1110 C1128 0.951 . S
H1111 C1130 0.951 . S
H1112 C1132 0.950 . S
H1113 C1133 0.950 . S
H1114 C1135 0.950 . S
H1115 C1138 0.950 . S
H1116 C1139 0.950 . S
H1117 C1141 0.950 . S
H1118 C1142 0.950 . S
H1119 C1143 0.951 . S
H1120 C1145 0.951 . S
H1121 C1147 0.950 1_556 S
H1122 C1148 0.950 . S
H1123 C1150 0.950 . S
H1124 C1153 0.950 . S
H1125 C1154 0.950 . S
H1126 C1156 0.950 . S
H1127 C1157 0.950 . S
C1128 H1110 0.951 . S
C1128 C1129 1.366 . S
C1128 C1130 1.388 . S
C1129 C1128 1.366 . S
C1129 C1133 1.385 . S
C1130 H1111 0.951 . S
C1130 C1128 1.388 . S
C1130 C1131 1.366 . S
C1131 C1130 1.366 . S
C1131 C1132 1.414 . S
C1131 C1134 1.499 . S
C1132 H1112 0.950 . S
C1132 C1131 1.414 . S
C1132 C1133 1.374 . S
C1133 H1113 0.950 . S
C1133 C1129 1.385 . S
C1133 C1132 1.374 . S
C1134 C1131 1.499 . S
C1134 C1135 1.373 . S
C1134 C1136 1.389 . S
C1135 H1114 0.950 . S
C1135 C1134 1.373 . S
C1135 C1151 1.377 . S
C1136 C1134 1.389 . S
C1136 C1137 1.524 . S
C1136 C1150 1.377 . S
C1137 C1136 1.524 . S
C1137 C1138 1.397 . S
C1137 C1142 1.363 . S
C1138 H1115 0.950 . S
C1138 C1137 1.397 . S
C1138 C1139 1.334 . S
C1139 H1116 0.950 . S
C1139 C1138 1.334 . S
C1139 C1140 1.287 . S
C1140 C1139 1.287 . S
C1140 C1141 1.524 . S
C1140 H1159 0.913 . S
C1141 H1117 0.950 . S
C1141 C1140 1.524 . S
C1141 C1142 1.415 . S
C1142 H1118 0.950 . S
C1142 C1137 1.363 . S
C1142 C1141 1.415 . S
C1143 H1119 0.951 . S
C1143 C1144 1.366 . S
C1143 C1145 1.388 . S
C1144 C1143 1.366 . S
C1144 C1148 1.385 . S
C1145 H1120 0.951 . S
C1145 C1143 1.388 . S
C1145 C1146 1.366 1_554 S
C1146 C1145 1.366 1_556 S
C1146 C1147 1.414 1_556 S
C1146 C1149 1.499 . S
C1147 H1121 0.950 1_554 S
C1147 C1146 1.414 1_554 S
C1147 C1148 1.374 . S
C1148 H1122 0.950 . S
C1148 C1144 1.385 . S
C1148 C1147 1.374 . S
C1149 C1146 1.499 . S
C1149 C1150 1.373 . S
C1149 C1151 1.389 . S
C1150 H1123 0.950 . S
C1150 C1136 1.377 . S
C1150 C1149 1.373 . S
C1151 C1135 1.377 . S
C1151 C1149 1.389 . S
C1151 C1152 1.524 . S
C1152 C1151 1.524 . S
C1152 C1153 1.397 . S
C1152 C1157 1.363 . S
C1153 H1124 0.950 . S
C1153 C1152 1.397 . S
C1153 C1154 1.334 . S
C1154 H1125 0.950 . S
C1154 C1153 1.334 . S
C1154 C1155 1.287 . S
C1155 C1154 1.287 . S
C1155 C1156 1.524 . S
C1155 H1158 0.999 . S
C1156 H1126 0.950 . S
C1156 C1155 1.524 . S
C1156 C1157 1.415 . S
C1157 H1127 0.950 . S
C1157 C1152 1.363 . S
C1157 C1156 1.415 . S
H1158 C1155 0.999 . S
H1159 C1140 0.913 . S
H1160 C1178 0.951 . S
H1161 C1180 0.951 . S
H1162 C1182 0.950 . S
H1163 C1183 0.950 . S
H1164 C1185 0.950 . S
H1165 C1188 0.950 . S
H1166 C1189 0.950 . S
H1167 C1191 0.950 . S
H1168 C1192 0.950 . S
H1169 C1193 0.951 . S
H1170 C1195 0.951 . S
H1171 C1197 0.950 . S
H1172 C1198 0.950 . S
H1173 C1200 0.950 . S
H1174 C1203 0.950 . S
H1175 C1204 0.950 . S
H1176 C1206 0.950 . S
H1177 C1207 0.950 . S
C1178 H1160 0.951 . S
C1178 C1179 1.366 . S
C1178 C1180 1.388 . S
C1179 C1178 1.366 . S
C1179 C1183 1.385 . S
C1180 H1161 0.951 . S
C1180 C1178 1.388 . S
C1180 C1181 1.366 . S
C1181 C1180 1.366 . S
C1181 C1182 1.414 . S
C1181 C1184 1.499 . S
C1182 H1162 0.950 . S
C1182 C1181 1.414 . S
C1182 C1183 1.374 . S
C1183 H1163 0.950 . S
C1183 C1179 1.385 . S
C1183 C1182 1.374 . S
C1184 C1181 1.499 . S
C1184 C1185 1.373 . S
C1184 C1186 1.389 . S
C1185 H1164 0.950 . S
C1185 C1184 1.373 . S
C1185 C1201 1.377 . S
C1186 C1184 1.389 . S
C1186 C1187 1.524 . S
C1186 C1200 1.377 . S
C1187 C1186 1.524 . S
C1187 C1188 1.397 . S
C1187 C1192 1.363 . S
C1188 H1165 0.950 . S
C1188 C1187 1.397 . S
C1188 C1189 1.334 . S
C1189 H1166 0.950 . S
C1189 C1188 1.334 . S
C1189 C1190 1.287 . S
C1190 C1189 1.287 . S
C1190 C1191 1.524 . S
C1190 H1209 0.913 . S
C1191 H1167 0.950 . S
C1191 C1190 1.524 . S
C1191 C1192 1.415 . S
C1192 H1168 0.950 . S
C1192 C1187 1.363 . S
C1192 C1191 1.415 . S
C1193 H1169 0.951 . S
C1193 C1194 1.366 . S
C1193 C1195 1.388 . S
C1194 C1193 1.366 . S
C1194 C1198 1.385 . S
C1195 H1170 0.951 . S
C1195 C1193 1.388 . S
C1195 C1196 1.366 . S
C1196 C1195 1.366 . S
C1196 C1197 1.414 . S
C1196 C1199 1.499 . S
C1197 H1171 0.950 . S
C1197 C1196 1.414 . S
C1197 C1198 1.374 . S
C1198 H1172 0.950 . S
C1198 C1194 1.385 . S
C1198 C1197 1.374 . S
C1199 C1196 1.499 . S
C1199 C1200 1.373 . S
C1199 C1201 1.389 . S
C1200 H1173 0.950 . S
C1200 C1186 1.377 . S
C1200 C1199 1.373 . S
C1201 C1185 1.377 . S
C1201 C1199 1.389 . S
C1201 C1202 1.524 . S
C1202 C1201 1.524 . S
C1202 C1203 1.397 . S
C1202 C1207 1.363 . S
C1203 H1174 0.950 . S
C1203 C1202 1.397 . S
C1203 C1204 1.334 . S
C1204 H1175 0.950 . S
C1204 C1203 1.334 . S
C1204 C1205 1.287 . S
C1205 C1204 1.287 . S
C1205 C1206 1.524 . S
C1205 H1208 0.999 . S
C1206 H1176 0.950 . S
C1206 C1205 1.524 . S
C1206 C1207 1.415 . S
C1207 H1177 0.950 . S
C1207 C1202 1.363 . S
C1207 C1206 1.415 . S
H1208 C1205 0.999 . S
H1209 C1190 0.913 . S
H1210 C1228 0.951 . S
H1211 C1230 0.951 . S
H1212 C1232 0.950 . S
H1213 C1233 0.950 . S
H1214 C1235 0.950 . S
H1215 C1238 0.950 . S
H1216 C1239 0.950 . S
H1217 C1241 0.950 . S
H1218 C1242 0.950 . S
H1219 C1243 0.951 . S
H1220 C1245 0.951 . S
H1221 C1247 0.950 . S
H1222 C1248 0.950 . S
H1223 C1250 0.950 . S
H1224 C1253 0.950 . S
H1225 C1254 0.950 . S
H1226 C1256 0.950 . S
H1227 C1257 0.950 . S
C1228 H1210 0.951 . S
C1228 C1229 1.366 . S
C1228 C1230 1.388 . S
C1229 C1228 1.366 . S
C1229 C1233 1.385 . S
C1230 H1211 0.951 . S
C1230 C1228 1.388 . S
C1230 C1231 1.366 . S
C1231 C1230 1.366 . S
C1231 C1232 1.414 . S
C1231 C1234 1.499 . S
C1232 H1212 0.950 . S
C1232 C1231 1.414 . S
C1232 C1233 1.374 . S
C1233 H1213 0.950 . S
C1233 C1229 1.385 . S
C1233 C1232 1.374 . S
C1234 C1231 1.499 . S
C1234 C1235 1.373 . S
C1234 C1236 1.389 . S
C1235 H1214 0.950 . S
C1235 C1234 1.373 . S
C1235 C1251 1.377 . S
C1236 C1234 1.389 . S
C1236 C1237 1.524 . S
C1236 C1250 1.377 . S
C1237 C1236 1.524 . S
C1237 C1238 1.397 . S
C1237 C1242 1.363 . S
C1238 H1215 0.950 . S
C1238 C1237 1.397 . S
C1238 C1239 1.334 . S
C1239 H1216 0.950 . S
C1239 C1238 1.334 . S
C1239 C1240 1.287 . S
C1240 C1239 1.287 . S
C1240 C1241 1.524 . S
C1240 H1259 0.913 . S
C1241 H1217 0.950 . S
C1241 C1240 1.524 . S
C1241 C1242 1.415 . S
C1242 H1218 0.950 . S
C1242 C1237 1.363 . S
C1242 C1241 1.415 . S
C1243 H1219 0.951 . S
C1243 C1244 1.366 . S
C1243 C1245 1.388 . S
C1244 C1243 1.366 . S
C1244 C1248 1.385 . S
C1245 H1220 0.951 . S
C1245 C1243 1.388 . S
C1245 C1246 1.366 . S
C1246 C1245 1.366 . S
C1246 C1247 1.414 . S
C1246 C1249 1.499 . S
C1247 H1221 0.950 . S
C1247 C1246 1.414 . S
C1247 C1248 1.374 . S
C1248 H1222 0.950 . S
C1248 C1244 1.385 . S
C1248 C1247 1.374 . S
C1249 C1246 1.499 . S
C1249 C1250 1.373 . S
C1249 C1251 1.389 . S
C1250 H1223 0.950 . S
C1250 C1236 1.377 . S
C1250 C1249 1.373 . S
C1251 C1235 1.377 . S
C1251 C1249 1.389 . S
C1251 C1252 1.524 . S
C1252 C1251 1.524 . S
C1252 C1253 1.397 . S
C1252 C1257 1.363 . S
C1253 H1224 0.950 . S
C1253 C1252 1.397 . S
C1253 C1254 1.334 . S
C1254 H1225 0.950 . S
C1254 C1253 1.334 . S
C1254 C1255 1.287 . S
C1255 C1254 1.287 . S
C1255 C1256 1.524 . S
C1255 H1258 0.999 . S
C1256 H1226 0.950 . S
C1256 C1255 1.524 . S
C1256 C1257 1.415 . S
C1257 H1227 0.950 . S
C1257 C1252 1.363 . S
C1257 C1256 1.415 . S
H1258 C1255 0.999 . S
H1259 C1240 0.913 . S
H1260 C1278 0.951 . S
H1261 C1280 0.951 . S
H1262 C1282 0.950 . S
H1263 C1283 0.950 . S
H1264 C1285 0.950 . S
H1265 C1288 0.950 . S
H1266 C1289 0.950 . S
H1267 C1291 0.950 . S
H1268 C1292 0.950 . S
H1269 C1293 0.951 . S
H1270 C1295 0.951 . S
H1271 C1297 0.950 . S
H1272 C1298 0.950 . S
H1273 C1300 0.950 . S
H1274 C1303 0.950 . S
H1275 C1304 0.950 . S
H1276 C1306 0.950 . S
H1277 C1307 0.950 . S
C1278 H1260 0.951 . S
C1278 C1279 1.366 . S
C1278 C1280 1.388 . S
C1279 C1278 1.366 . S
C1279 C1283 1.385 . S
C1280 H1261 0.951 . S
C1280 C1278 1.388 . S
C1280 C1281 1.366 . S
C1281 C1280 1.366 . S
C1281 C1282 1.414 . S
C1281 C1284 1.499 . S
C1282 H1262 0.950 . S
C1282 C1281 1.414 . S
C1282 C1283 1.374 . S
C1283 H1263 0.950 . S
C1283 C1279 1.385 . S
C1283 C1282 1.374 . S
C1284 C1281 1.499 . S
C1284 C1285 1.373 . S
C1284 C1286 1.389 . S
C1285 H1264 0.950 . S
C1285 C1284 1.373 . S
C1285 C1301 1.377 . S
C1286 C1284 1.389 . S
C1286 C1287 1.524 . S
C1286 C1300 1.377 . S
C1287 C1286 1.524 . S
C1287 C1288 1.397 . S
C1287 C1292 1.363 . S
C1288 H1265 0.950 . S
C1288 C1287 1.397 . S
C1288 C1289 1.334 . S
C1289 H1266 0.950 . S
C1289 C1288 1.334 . S
C1289 C1290 1.287 . S
C1290 C1289 1.287 . S
C1290 C1291 1.524 . S
C1290 H1309 0.913 . S
C1291 H1267 0.950 . S
C1291 C1290 1.524 . S
C1291 C1292 1.415 . S
C1292 H1268 0.950 . S
C1292 C1287 1.363 . S
C1292 C1291 1.415 . S
C1293 H1269 0.951 . S
C1293 C1294 1.366 . S
C1293 C1295 1.388 . S
C1294 C1293 1.366 . S
C1294 C1298 1.385 . S
C1295 H1270 0.951 . S
C1295 C1293 1.388 . S
C1295 C1296 1.366 . S
C1296 C1295 1.366 . S
C1296 C1297 1.414 . S
C1296 C1299 1.499 . S
C1297 H1271 0.950 . S
C1297 C1296 1.414 . S
C1297 C1298 1.374 . S
C1298 H1272 0.950 . S
C1298 C1294 1.385 . S
C1298 C1297 1.374 . S
C1299 C1296 1.499 . S
C1299 C1300 1.373 . S
C1299 C1301 1.389 . S
C1300 H1273 0.950 . S
C1300 C1286 1.377 . S
C1300 C1299 1.373 . S
C1301 C1285 1.377 . S
C1301 C1299 1.389 . S
C1301 C1302 1.524 . S
C1302 C1301 1.524 . S
C1302 C1303 1.397 . S
C1302 C1307 1.363 . S
C1303 H1274 0.950 . S
C1303 C1302 1.397 . S
C1303 C1304 1.334 . S
C1304 H1275 0.950 . S
C1304 C1303 1.334 . S
C1304 C1305 1.287 . S
C1305 C1304 1.287 . S
C1305 C1306 1.524 . S
C1305 H1308 0.999 . S
C1306 H1276 0.950 . S
C1306 C1305 1.524 . S
C1306 C1307 1.415 . S
C1307 H1277 0.950 . S
C1307 C1302 1.363 . S
C1307 C1306 1.415 . S
H1308 C1305 0.999 . S
H1309 C1290 0.913 . S
H1310 C1328 0.951 . S
H1311 C1330 0.951 . S
H1312 C1332 0.950 . S
H1313 C1333 0.950 . S
H1314 C1335 0.950 . S
H1315 C1338 0.950 . S
H1316 C1339 0.950 . S
H1317 C1341 0.950 . S
H1318 C1342 0.950 . S
H1319 C1343 0.951 . S
H1320 C1345 0.951 . S
H1321 C1347 0.950 . S
H1322 C1348 0.950 . S
H1323 C1350 0.950 . S
H1324 C1353 0.950 . S
H1325 C1354 0.950 . S
H1326 C1356 0.950 . S
H1327 C1357 0.950 . S
C1328 H1310 0.951 . S
C1328 C1329 1.366 . S
C1328 C1330 1.388 . S
C1329 C1328 1.366 . S
C1329 C1333 1.385 . S
C1330 H1311 0.951 . S
C1330 C1328 1.388 . S
C1330 C1331 1.366 . S
C1331 C1330 1.366 . S
C1331 C1332 1.414 . S
C1331 C1334 1.499 . S
C1332 H1312 0.950 . S
C1332 C1331 1.414 . S
C1332 C1333 1.374 . S
C1333 H1313 0.950 . S
C1333 C1329 1.385 . S
C1333 C1332 1.374 . S
C1334 C1331 1.499 . S
C1334 C1335 1.373 . S
C1334 C1336 1.389 . S
C1335 H1314 0.950 . S
C1335 C1334 1.373 . S
C1335 C1351 1.377 . S
C1336 C1334 1.389 . S
C1336 C1337 1.524 . S
C1336 C1350 1.377 . S
C1337 C1336 1.524 . S
C1337 C1338 1.397 . S
C1337 C1342 1.363 . S
C1338 H1315 0.950 . S
C1338 C1337 1.397 . S
C1338 C1339 1.334 . S
C1339 H1316 0.950 . S
C1339 C1338 1.334 . S
C1339 C1340 1.287 . S
C1340 C1339 1.287 . S
C1340 C1341 1.524 . S
C1340 H1359 0.913 . S
C1341 H1317 0.950 . S
C1341 C1340 1.524 . S
C1341 C1342 1.415 . S
C1342 H1318 0.950 . S
C1342 C1337 1.363 . S
C1342 C1341 1.415 . S
C1343 H1319 0.951 . S
C1343 C1344 1.366 . S
C1343 C1345 1.388 . S
C1344 C1343 1.366 . S
C1344 C1348 1.385 . S
C1345 H1320 0.951 . S
C1345 C1343 1.388 . S
C1345 C1346 1.366 . S
C1346 C1345 1.366 . S
C1346 C1347 1.414 . S
C1346 C1349 1.499 . S
C1347 H1321 0.950 . S
C1347 C1346 1.414 . S
C1347 C1348 1.374 . S
C1348 H1322 0.950 . S
C1348 C1344 1.385 . S
C1348 C1347 1.374 . S
C1349 C1346 1.499 . S
C1349 C1350 1.373 . S
C1349 C1351 1.389 . S
C1350 H1323 0.950 . S
C1350 C1336 1.377 . S
C1350 C1349 1.373 . S
C1351 C1335 1.377 . S
C1351 C1349 1.389 . S
C1351 C1352 1.524 . S
C1352 C1351 1.524 . S
C1352 C1353 1.397 . S
C1352 C1357 1.363 . S
C1353 H1324 0.950 . S
C1353 C1352 1.397 . S
C1353 C1354 1.334 . S
C1354 H1325 0.950 . S
C1354 C1353 1.334 . S
C1354 C1355 1.287 . S
C1355 C1354 1.287 . S
C1355 C1356 1.524 . S
C1355 H1358 0.999 . S
C1356 H1326 0.950 . S
C1356 C1355 1.524 . S
C1356 C1357 1.415 . S
C1357 H1327 0.950 . S
C1357 C1352 1.363 . S
C1357 C1356 1.415 . S
H1358 C1355 0.999 . S
H1359 C1340 0.913 . S
H1360 C1378 0.951 . S
H1361 C1380 0.951 . S
H1362 C1382 0.950 . S
H1363 C1383 0.950 . S
H1364 C1385 0.950 . S
H1365 C1388 0.950 . S
H1366 C1389 0.950 . S
H1367 C1391 0.950 . S
H1368 C1392 0.950 . S
H1369 C1393 0.951 . S
H1370 C1395 0.951 . S
H1371 C1397 0.950 . S
H1372 C1398 0.950 . S
H1373 C1400 0.950 . S
H1374 C1403 0.950 . S
H1375 C1404 0.950 . S
H1376 C1406 0.950 . S
H1377 C1407 0.950 . S
C1378 H1360 0.951 . S
C1378 C1379 1.366 . S
C1378 C1380 1.388 . S
C1379 C1378 1.366 . S
C1379 C1383 1.385 . S
C1380 H1361 0.951 . S
C1380 C1378 1.388 . S
C1380 C1381 1.366 . S
C1381 C1380 1.366 . S
C1381 C1382 1.414 . S
C1381 C1384 1.499 . S
C1382 H1362 0.950 . S
C1382 C1381 1.414 . S
C1382 C1383 1.374 . S
C1383 H1363 0.950 . S
C1383 C1379 1.385 . S
C1383 C1382 1.374 . S
C1384 C1381 1.499 . S
C1384 C1385 1.373 . S
C1384 C1386 1.389 . S
C1385 H1364 0.950 . S
C1385 C1384 1.373 . S
C1385 C1401 1.377 . S
C1386 C1384 1.389 . S
C1386 C1387 1.524 . S
C1386 C1400 1.377 . S
C1387 C1386 1.524 . S
C1387 C1388 1.397 . S
C1387 C1392 1.363 . S
C1388 H1365 0.950 . S
C1388 C1387 1.397 . S
C1388 C1389 1.334 . S
C1389 H1366 0.950 . S
C1389 C1388 1.334 . S
C1389 C1390 1.287 . S
C1390 C1389 1.287 . S
C1390 C1391 1.524 . S
C1390 H1409 0.913 . S
C1391 H1367 0.950 . S
C1391 C1390 1.524 . S
C1391 C1392 1.415 . S
C1392 H1368 0.950 . S
C1392 C1387 1.363 . S
C1392 C1391 1.415 . S
C1393 H1369 0.951 . S
C1393 C1394 1.366 . S
C1393 C1395 1.388 . S
C1394 C1393 1.366 . S
C1394 C1398 1.385 . S
C1395 H1370 0.951 . S
C1395 C1393 1.388 . S
C1395 C1396 1.366 . S
C1396 C1395 1.366 . S
C1396 C1397 1.414 . S
C1396 C1399 1.499 . S
C1397 H1371 0.950 . S
C1397 C1396 1.414 . S
C1397 C1398 1.374 . S
C1398 H1372 0.950 . S
C1398 C1394 1.385 . S
C1398 C1397 1.374 . S
C1399 C1396 1.499 . S
C1399 C1400 1.373 . S
C1399 C1401 1.389 . S
C1400 H1373 0.950 . S
C1400 C1386 1.377 . S
C1400 C1399 1.373 . S
C1401 C1385 1.377 . S
C1401 C1399 1.389 . S
C1401 C1402 1.524 . S
C1402 C1401 1.524 . S
C1402 C1403 1.397 . S
C1402 C1407 1.363 . S
C1403 H1374 0.950 . S
C1403 C1402 1.397 . S
C1403 C1404 1.334 . S
C1404 H1375 0.950 . S
C1404 C1403 1.334 . S
C1404 C1405 1.287 . S
C1405 C1404 1.287 . S
C1405 C1406 1.524 . S
C1405 H1408 0.999 . S
C1406 H1376 0.950 . S
C1406 C1405 1.524 . S
C1406 C1407 1.415 . S
C1407 H1377 0.950 . S
C1407 C1402 1.363 . S
C1407 C1406 1.415 . S
H1408 C1405 0.999 . S
H1409 C1390 0.913 . S
H1410 C1428 0.951 . S
H1411 C1430 0.951 . S
H1412 C1432 0.950 . S
H1413 C1433 0.950 . S
H1414 C1435 0.950 . S
H1415 C1438 0.950 . S
H1416 C1439 0.950 . S
H1417 C1441 0.950 . S
H1418 C1442 0.950 . S
H1419 C1443 0.951 . S
H1420 C1445 0.951 . S
H1421 C1447 0.950 . S
H1422 C1448 0.950 . S
H1423 C1450 0.950 . S
H1424 C1453 0.950 . S
H1425 C1454 0.950 . S
H1426 C1456 0.950 . S
H1427 C1457 0.950 . S
C1428 H1410 0.951 . S
C1428 C1429 1.366 . S
C1428 C1430 1.388 . S
C1429 C1428 1.366 . S
C1429 C1433 1.385 . S
C1430 H1411 0.951 . S
C1430 C1428 1.388 . S
C1430 C1431 1.366 . S
C1431 C1430 1.366 . S
C1431 C1432 1.414 . S
C1431 C1434 1.499 . S
C1432 H1412 0.950 . S
C1432 C1431 1.414 . S
C1432 C1433 1.374 . S
C1433 H1413 0.950 . S
C1433 C1429 1.385 . S
C1433 C1432 1.374 . S
C1434 C1431 1.499 . S
C1434 C1435 1.373 . S
C1434 C1436 1.389 . S
C1435 H1414 0.950 . S
C1435 C1434 1.373 . S
C1435 C1451 1.377 . S
C1436 C1434 1.389 . S
C1436 C1437 1.524 . S
C1436 C1450 1.377 . S
C1437 C1436 1.524 . S
C1437 C1438 1.397 . S
C1437 C1442 1.363 . S
C1438 H1415 0.950 . S
C1438 C1437 1.397 . S
C1438 C1439 1.334 . S
C1439 H1416 0.950 . S
C1439 C1438 1.334 . S
C1439 C1440 1.287 . S
C1440 C1439 1.287 . S
C1440 C1441 1.524 . S
C1440 H1459 0.913 . S
C1441 H1417 0.950 . S
C1441 C1440 1.524 . S
C1441 C1442 1.415 . S
C1442 H1418 0.950 . S
C1442 C1437 1.363 . S
C1442 C1441 1.415 . S
C1443 H1419 0.951 . S
C1443 C1444 1.366 . S
C1443 C1445 1.388 . S
C1444 C1443 1.366 . S
C1444 C1448 1.385 . S
C1445 H1420 0.951 . S
C1445 C1443 1.388 . S
C1445 C1446 1.366 . S
C1446 C1445 1.366 . S
C1446 C1447 1.414 . S
C1446 C1449 1.499 . S
C1447 H1421 0.950 . S
C1447 C1446 1.414 . S
C1447 C1448 1.374 . S
C1448 H1422 0.950 . S
C1448 C1444 1.385 . S
C1448 C1447 1.374 . S
C1449 C1446 1.499 . S
C1449 C1450 1.373 . S
C1449 C1451 1.389 . S
C1450 H1423 0.950 . S
C1450 C1436 1.377 . S
C1450 C1449 1.373 . S
C1451 C1435 1.377 . S
C1451 C1449 1.389 . S
C1451 C1452 1.524 . S
C1452 C1451 1.524 . S
C1452 C1453 1.397 . S
C1452 C1457 1.363 . S
C1453 H1424 0.950 . S
C1453 C1452 1.397 . S
C1453 C1454 1.334 . S
C1454 H1425 0.950 . S
C1454 C1453 1.334 . S
C1454 C1455 1.287 . S
C1455 C1454 1.287 . S
C1455 C1456 1.524 . S
C1455 H1458 0.999 . S
C1456 H1426 0.950 . S
C1456 C1455 1.524 . S
C1456 C1457 1.415 . S
C1457 H1427 0.950 . S
C1457 C1452 1.363 . S
C1457 C1456 1.415 . S
H1458 C1455 0.999 . S
H1459 C1440 0.913 . S
H1460 C1478 0.951 . S
H1461 C1480 0.951 . S
H1462 C1482 0.950 . S
H1463 C1483 0.950 . S
H1464 C1485 0.950 . S
H1465 C1488 0.950 . S
H1466 C1489 0.950 . S
H1467 C1491 0.950 . S
H1468 C1492 0.950 . S
H1469 C1493 0.951 . S
H1470 C1495 0.951 . S
H1471 C1497 0.932 1_554 S
H1472 C1498 0.950 . S
H1473 C1500 0.950 . S
H1474 C1503 0.950 . S
H1475 C1504 0.950 . S
H1476 C1506 0.950 . S
H1477 C1507 0.950 . S
C1478 H1460 0.951 . S
C1478 C1479 1.366 . S
C1478 C1480 1.388 . S
C1479 C1478 1.366 . S
C1479 C1483 1.385 . S
C1480 H1461 0.951 . S
C1480 C1478 1.388 . S
C1480 C1481 1.366 . S
C1481 C1480 1.366 . S
C1481 C1482 1.414 . S
C1481 C1484 1.499 . S
C1482 H1462 0.950 . S
C1482 C1481 1.414 . S
C1482 C1483 1.374 . S
C1483 H1463 0.950 . S
C1483 C1479 1.385 . S
C1483 C1482 1.374 . S
C1484 C1481 1.499 . S
C1484 C1485 1.373 . S
C1484 C1486 1.389 . S
C1485 H1464 0.950 . S
C1485 C1484 1.373 . S
C1485 C1501 1.377 . S
C1486 C1484 1.389 . S
C1486 C1487 1.524 . S
C1486 C1500 1.377 . S
C1487 C1486 1.524 . S
C1487 C1488 1.397 . S
C1487 C1492 1.363 . S
C1488 H1465 0.950 . S
C1488 C1487 1.397 . S
C1488 C1489 1.334 . S
C1489 H1466 0.950 . S
C1489 C1488 1.334 . S
C1489 C1490 1.287 . S
C1490 C1489 1.287 . S
C1490 C1491 1.524 . S
C1490 H1509 0.913 . S
C1491 H1467 0.950 . S
C1491 C1490 1.524 . S
C1491 C1492 1.415 . S
C1492 H1468 0.950 . S
C1492 C1487 1.363 . S
C1492 C1491 1.415 . S
C1493 H1469 0.951 . S
C1493 C1494 1.366 . S
C1493 C1495 1.388 . S
C1494 C1493 1.366 . S
C1494 C1498 1.385 . S
C1495 H1470 0.951 . S
C1495 C1493 1.388 . S
C1495 C1496 1.366 . S
C1496 C1495 1.366 . S
C1496 C1497 1.414 . S
C1496 C1499 1.499 1_556 S
C1497 H1471 0.932 1_556 S
C1497 C1496 1.414 . S
C1497 C1498 1.374 . S
C1498 H1472 0.950 . S
C1498 C1494 1.385 . S
C1498 C1497 1.374 . S
C1499 C1496 1.499 1_554 S
C1499 C1500 1.373 . S
C1499 C1501 1.389 . S
C1500 H1473 0.950 . S
C1500 C1486 1.377 . S
C1500 C1499 1.373 . S
C1501 C1485 1.377 . S
C1501 C1499 1.389 . S
C1501 C1502 1.524 1_554 S
C1502 C1501 1.524 1_556 S
C1502 C1503 1.397 . S
C1502 C1507 1.363 . S
C1503 H1474 0.950 . S
C1503 C1502 1.397 . S
C1503 C1504 1.334 . S
C1504 H1475 0.950 . S
C1504 C1503 1.334 . S
C1504 C1505 1.287 . S
C1505 C1504 1.287 . S
C1505 C1506 1.524 . S
C1505 H1508 0.999 . S
C1506 H1476 0.950 . S
C1506 C1505 1.524 . S
C1506 C1507 1.415 . S
C1507 H1477 0.950 . S
C1507 C1502 1.363 . S
C1507 C1506 1.415 . S
H1508 C1505 0.999 . S
H1509 C1490 0.913 . S
H1510 C1528 0.951 . S
H1511 C1530 0.951 . S
H1512 C1532 0.950 . S
H1513 C1533 0.950 . S
H1514 C1535 0.950 . S
H1515 C1538 0.950 . S
H1516 C1539 0.950 . S
H1517 C1541 0.950 . S
H1518 C1542 0.950 . S
H1519 C1543 0.951 . S
H1520 C1545 0.951 . S
H1521 C1547 0.950 . S
H1522 C1548 0.950 . S
H1523 C1550 0.950 . S
H1524 C1553 0.950 . S
H1525 C1554 0.950 . S
H1526 C1556 0.950 . S
H1527 C1557 0.950 . S
C1528 H1510 0.951 . S
C1528 C1529 1.366 . S
C1528 C1530 1.388 . S
C1529 C1528 1.366 . S
C1529 C1533 1.385 . S
C1530 H1511 0.951 . S
C1530 C1528 1.388 . S
C1530 C1531 1.366 . S
C1531 C1530 1.366 . S
C1531 C1532 1.414 . S
C1531 C1534 1.499 . S
C1532 H1512 0.950 . S
C1532 C1531 1.414 . S
C1532 C1533 1.374 . S
C1533 H1513 0.950 . S
C1533 C1529 1.385 . S
C1533 C1532 1.374 . S
C1534 C1531 1.499 . S
C1534 C1535 1.373 . S
C1534 C1536 1.389 . S
C1535 H1514 0.950 . S
C1535 C1534 1.373 . S
C1535 C1551 1.377 . S
C1536 C1534 1.389 . S
C1536 C1537 1.524 . S
C1536 C1550 1.377 . S
C1537 C1536 1.524 . S
C1537 C1538 1.397 . S
C1537 C1542 1.363 . S
C1538 H1515 0.950 . S
C1538 C1537 1.397 . S
C1538 C1539 1.334 . S
C1539 H1516 0.950 . S
C1539 C1538 1.334 . S
C1539 C1540 1.287 . S
C1540 C1539 1.287 . S
C1540 C1541 1.524 . S
C1540 H1559 0.913 . S
C1541 H1517 0.950 . S
C1541 C1540 1.524 . S
C1541 C1542 1.415 . S
C1542 H1518 0.950 . S
C1542 C1537 1.363 . S
C1542 C1541 1.415 . S
C1543 H1519 0.951 . S
C1543 C1544 1.366 . S
C1543 C1545 1.388 . S
C1544 C1543 1.366 . S
C1544 C1548 1.385 . S
C1545 H1520 0.951 . S
C1545 C1543 1.388 . S
C1545 C1546 1.366 . S
C1546 C1545 1.366 . S
C1546 C1547 1.414 . S
C1546 C1549 1.499 . S
C1547 H1521 0.950 . S
C1547 C1546 1.414 . S
C1547 C1548 1.374 . S
C1548 H1522 0.950 . S
C1548 C1544 1.385 . S
C1548 C1547 1.374 . S
C1549 C1546 1.499 . S
C1549 C1550 1.373 . S
C1549 C1551 1.389 . S
C1550 H1523 0.950 . S
C1550 C1536 1.377 . S
C1550 C1549 1.373 . S
C1551 C1535 1.377 . S
C1551 C1549 1.389 . S
C1551 C1552 1.524 . S
C1552 C1551 1.524 . S
C1552 C1553 1.397 . S
C1552 C1557 1.363 . S
C1553 H1524 0.950 . S
C1553 C1552 1.397 . S
C1553 C1554 1.334 . S
C1554 H1525 0.950 . S
C1554 C1553 1.334 . S
C1554 C1555 1.287 . S
C1555 C1554 1.287 . S
C1555 C1556 1.524 . S
C1555 H1558 0.999 . S
C1556 H1526 0.950 . S
C1556 C1555 1.524 . S
C1556 C1557 1.415 . S
C1557 H1527 0.950 . S
C1557 C1552 1.363 . S
C1557 C1556 1.415 . S
H1558 C1555 0.999 . S
H1559 C1540 0.913 . S
C394 C349 1.604 . S
C379 C15 1.587 . S
C429 C61 1.591 . S
C444 C279 1.604 . S
C479 C114 1.609 . S
C494 C298 1.627 . S
C529 C139 1.597 . S
C544 C307 1.604 . S
C594 C321 1.603 . S
C579 C185 1.599 . S
C629 C245 1.610 . S
C644 C340 1.628 . S
C679 C47 1.573 . S
C694 C293 1.577 . S
C729 C100 1.591 . S
C744 C312 1.599 . S
C779 C153 1.585 . S
C794 C326 1.600 . S
C844 C335 1.577 . S
C829 C199 1.563 . S
C894 C354 1.601 . S
C879 C231 1.593 . S
C944 C284 1.600 . S
C929 C1 1.594 . S
C979 C22 1.486 . S
C994 C299 1.476 . S
C1029 C68 1.475 . S
C1044 C311 1.456 . S
C1094 C325 1.466 . S
C1079 C107 1.490 . S
C1129 C146 1.486 . S
C1144 C341 1.475 . S
C1194 C353 1.457 . S
C1179 C192 1.478 . S
C1244 C283 1.467 . S
C1229 C252 1.490 . S
C1294 C355 1.483 . S
C1279 C54 1.494 . S
C1329 C93 1.507 . S
C1344 C285 1.497 . S
C1394 C297 1.472 . S
C1379 C160 1.494 . S
C1429 C206 1.493 . S
C1444 C313 1.484 . S
C1479 C238 1.507 . S
C1494 C327 1.498 . S
C1529 C8 1.494 . S
C1544 C339 1.471 . S
