# Generated by pormake.
# Topology zzz, (3,6)-cn, num edge types: 1
# Building blocks:
#     Node 0, Type 0, BuildingBlock: CUQRIR_clean_linker_1, # of connection points: 3
#     Node 1, Type 0, BuildingBlock: CUQRIR_clean_linker_1, # of connection points: 3
#     Node 2, Type 0, BuildingBlock: CUQRIR_clean_linker_1, # of connection points: 3
#     Node 3, Type 0, BuildingBlock: CUQRIR_clean_linker_1, # of connection points: 3
#     Node 4, Type 0, BuildingBlock: CUQRIR_clean_linker_1, # of connection points: 3
#     Node 5, Type 0, BuildingBlock: CUQRIR_clean_linker_1, # of connection points: 3
#     Node 6, Type 0, BuildingBlock: CUQRIR_clean_linker_1, # of connection points: 3
#     Node 7, Type 0, BuildingBlock: CUQRIR_clean_linker_1, # of connection points: 3
#     Node 8, Type 1, BuildingBlock: MIFKUJ_clean_sbu_0, # of connection points: 6
#     Node 9, Type 1, BuildingBlock: MIFKUJ_clean_sbu_0, # of connection points: 6
#     Node 10, Type 1, BuildingBlock: MIFKUJ_clean_sbu_0, # of connection points: 6
#     Node 11, Type 1, BuildingBlock: MIFKUJ_clean_sbu_0, # of connection points: 6
#     Edge 12, Type (0, 1), BuildingBlock: EZIPEK_clean_linker_0, # of connection points: 2
#     Edge 13, Type (0, 1), BuildingBlock: EZIPEK_clean_linker_0, # of connection points: 2
#     Edge 14, Type (0, 1), BuildingBlock: EZIPEK_clean_linker_0, # of connection points: 2
#     Edge 15, Type (0, 1), BuildingBlock: EZIPEK_clean_linker_0, # of connection points: 2
#     Edge 16, Type (0, 1), BuildingBlock: EZIPEK_clean_linker_0, # of connection points: 2
#     Edge 17, Type (0, 1), BuildingBlock: EZIPEK_clean_linker_0, # of connection points: 2
#     Edge 18, Type (0, 1), BuildingBlock: EZIPEK_clean_linker_0, # of connection points: 2
#     Edge 19, Type (0, 1), BuildingBlock: EZIPEK_clean_linker_0, # of connection points: 2
#     Edge 20, Type (0, 1), BuildingBlock: EZIPEK_clean_linker_0, # of connection points: 2
#     Edge 21, Type (0, 1), BuildingBlock: EZIPEK_clean_linker_0, # of connection points: 2
#     Edge 22, Type (0, 1), BuildingBlock: EZIPEK_clean_linker_0, # of connection points: 2
#     Edge 23, Type (0, 1), BuildingBlock: EZIPEK_clean_linker_0, # of connection points: 2
#     Edge 24, Type (0, 1), BuildingBlock: EZIPEK_clean_linker_0, # of connection points: 2
#     Edge 25, Type (0, 1), BuildingBlock: EZIPEK_clean_linker_0, # of connection points: 2
#     Edge 26, Type (0, 1), BuildingBlock: EZIPEK_clean_linker_0, # of connection points: 2
#     Edge 27, Type (0, 1), BuildingBlock: EZIPEK_clean_linker_0, # of connection points: 2
#     Edge 28, Type (0, 1), BuildingBlock: EZIPEK_clean_linker_0, # of connection points: 2
#     Edge 29, Type (0, 1), BuildingBlock: EZIPEK_clean_linker_0, # of connection points: 2
#     Edge 30, Type (0, 1), BuildingBlock: EZIPEK_clean_linker_0, # of connection points: 2
#     Edge 31, Type (0, 1), BuildingBlock: EZIPEK_clean_linker_0, # of connection points: 2
#     Edge 32, Type (0, 1), BuildingBlock: EZIPEK_clean_linker_0, # of connection points: 2
#     Edge 33, Type (0, 1), BuildingBlock: EZIPEK_clean_linker_0, # of connection points: 2
#     Edge 34, Type (0, 1), BuildingBlock: EZIPEK_clean_linker_0, # of connection points: 2
#     Edge 35, Type (0, 1), BuildingBlock: EZIPEK_clean_linker_0, # of connection points: 2
# Relax obj value: 0.138
# Max RMSD: 0.129
# Mean RMSD: 0.094
data_MOF--net-zzz--node1-MIFKUJ_clean_sbu_0--node2-CUQRIR_clean_linker_1--edge1-EZIPEK_clean_linker_0
_symmetry_space_group_name_H-M    P1
_symmetry_Int_Tables_number       1
_symmetry_cell_setting            triclinic
loop_
_symmetry_equiv_pos_as_xyz
'x, y, z'
_cell_length_a     34.100268
_cell_length_b     33.9375
_cell_length_c     10.395194
_cell_angle_alpha  90.296961
_cell_angle_beta   90.309326
_cell_angle_gamma 90.053155
loop_
_atom_site_label
_atom_site_type_symbol
_atom_site_fract_x
_atom_site_fract_y
_atom_site_fract_z
_atom_type_partial_charge
C0 C 0.70169 0.53264 0.1541 0.0
N1 N 0.74088 0.52565 0.15062 0.0
N2 N 0.68485 0.52216 0.04013 0.0
C3 C 0.67998 0.5483 0.26839 0.0
C4 C 0.71487 0.50827 0.96895 0.0
N5 N 0.74861 0.51023 0.03601 0.0
C6 C 0.71104 0.49302 0.8331 0.0
H7 H 0.67311 0.52346 0.33352 0.0
H8 H 0.65203 0.56233 0.23845 0.0
H9 H 0.69847 0.5697 0.32246 0.0
H10 H 0.69476 0.51463 0.77351 0.0
H11 H 0.69381 0.46527 0.83341 0.0
H12 H 0.73994 0.48711 0.78869 0.0
C13 C 0.97401 0.69753 0.14326 0.0
N14 N 0.97985 0.73702 0.15239 0.0
N15 N 0.97161 0.68625 0.01754 0.0
C16 C 0.9736 0.66995 0.25554 0.0
C17 C 0.97575 0.7202 0.95158 0.0
N18 N 0.98132 0.75069 0.0331 0.0
C19 C 0.9774 0.72287 0.80703 0.0
H20 H 0.00356 0.66815 0.29731 0.0
H21 H 0.96381 0.64003 0.22598 0.0
H22 H 0.95399 0.68164 0.33148 0.0
H23 H 0.94942 0.712 0.76509 0.0
H24 H 0.0012 0.70359 0.77058 0.0
H25 H 0.98232 0.75343 0.77357 0.0
C26 C 0.79954 0.96443 0.11738 0.0
N27 N 0.76029 0.97068 0.11757 0.0
N28 N 0.81412 0.97079 -0.00205 0.0
C29 C 0.82369 0.95472 0.23394 0.0
C30 C 0.78257 0.98089 0.92649 0.0
N31 N 0.75015 0.98132 -0.00076 0.0
C32 C 0.78393 0.99226 0.78672 0.0
H33 H 0.83061 0.98231 0.28706 0.0
H34 H 0.85161 0.94037 0.20574 0.0
H35 H 0.807 0.93528 0.29945 0.0
H36 H 0.8051 0.97352 0.73384 0.0
H37 H 0.79398 0.02328 0.77966 0.0
H38 H 0.7547 0.98963 0.74018 0.0
C39 C 0.51512 0.79738 0.14053 0.0
N40 N 0.50795 0.75819 0.14271 0.0
N41 N 0.50185 0.81289 0.02885 0.0
C42 C 0.53715 0.82003 0.24225 0.0
C43 C 0.48588 0.782 0.96452 0.0
N44 N 0.48938 0.74884 0.03411 0.0
C45 C 0.47082 0.78358 0.82833 0.0
H46 H 0.52218 0.84837 0.2624 0.0
H47 H 0.56687 0.8271 0.20597 0.0
H48 H 0.53994 0.80289 0.33242 0.0
H49 H 0.49542 0.77744 0.76175 0.0
H50 H 0.45892 0.81323 0.80627 0.0
H51 H 0.44778 0.76105 0.81136 0.0
C52 C 0.29106 0.48014 0.00363 0.0
N53 N 0.25183 0.48671 0.99716 0.0
N54 N 0.30436 0.48605 0.12578 0.0
C55 C 0.31631 0.46843 0.8922 0.0
C56 C 0.27199 0.4959 0.19282 0.0
N57 N 0.24038 0.49629 0.11493 0.0
C58 C 0.27142 0.50546 0.33434 0.0
H59 H 0.33763 0.4456 0.92296 0.0
H60 H 0.33325 0.4944 0.85951 0.0
H61 H 0.29827 0.4572 0.81074 0.0
H62 H 0.29768 0.52301 0.36165 0.0
H63 H 0.27229 0.47755 0.38941 0.0
H64 H 0.24457 0.52189 0.36138 0.0
C65 C 0.02514 0.29729 0.9955 0.0
N66 N 0.02057 0.25755 0.99544 0.0
N67 N 0.02091 0.31203 0.11679 0.0
C68 C 0.03186 0.32147 0.87744 0.0
C69 C 0.01348 0.28005 0.18932 0.0
N70 N 0.01284 0.24739 0.1157 0.0
C71 C 0.00471 0.28125 0.33114 0.0
H72 H 0.05864 0.31082 0.82807 0.0
H73 H 0.0351 0.35321 0.90149 0.0
H74 H 0.00686 0.31734 0.80989 0.0
H75 H 0.98206 0.30392 0.35087 0.0
H76 H 0.03165 0.28992 0.38455 0.0
H77 H 0.99449 0.25236 0.36737 0.0
C78 C 0.20159 0.03059 0.0445 0.0
N79 N 0.24042 0.02232 0.05448 0.0
N80 N 0.18378 0.02514 0.15985 0.0
C81 C 0.18115 0.04197 0.92212 0.0
C82 C 0.21298 0.01338 0.23903 0.0
N83 N 0.24699 0.01122 0.17486 0.0
C84 C 0.20795 0.00356 0.37915 0.0
H85 H 0.19498 0.06882 0.88218 0.0
H86 H 0.14946 0.04741 0.93811 0.0
H87 H 0.18479 0.01808 0.84989 0.0
H88 H 0.18159 0.98481 0.39205 0.0
H89 H 0.20333 0.03125 0.43422 0.0
H90 H 0.23393 0.98829 0.41952 0.0
C91 C 0.46599 0.20446 0.01457 0.0
N92 N 0.4695 0.24428 0.01789 0.0
N93 N 0.46951 0.18959 0.13503 0.0
C94 C 0.46186 0.17988 0.89464 0.0
C95 C 0.47459 0.22161 0.21117 0.0
N96 N 0.47473 0.25457 0.14017 0.0
C97 C 0.48323 0.2204 0.35336 0.0
H98 H 0.43698 0.1591 0.90457 0.0
H99 H 0.48873 0.1619 0.88181 0.0
H100 H 0.45712 0.19843 0.80841 0.0
H101 H 0.51548 0.22056 0.36823 0.0
H102 H 0.47096 0.19334 0.39726 0.0
H103 H 0.47104 0.24665 0.40283 0.0
Zn104 Zn 0.9833 0.05662 0.51218 0.0
Zn105 Zn 0.01515 0.94152 0.60694 0.0
C106 C -0.00251 0.1337 0.62344 0.0
O107 O 0.9721 0.14232 0.53264 0.0
C108 C 0.01707 0.8637 0.49411 0.0
O109 O 0.04753 0.86153 0.57149 0.0
O110 O 0.9612 0.08591 0.36358 0.0
O111 O 0.0154 0.01027 0.4483 0.0
O112 O 0.05961 0.97063 0.52348 0.0
C113 C 0.98084 0.08886 0.26119 0.0
O114 O 0.00564 0.06078 0.2307 0.0
O115 O 0.00969 0.09816 0.63289 0.0
C116 C 0.00404 0.89733 0.81609 0.0
O117 O 0.9703 0.89951 0.7556 0.0
O118 O 0.03254 0.91694 0.77224 0.0
O119 O 0.96971 0.97856 0.64682 0.0
O120 O 0.93892 0.03453 0.61354 0.0
O121 O -0.00212 0.8959 0.48821 0.0
C122 C 0.05141 0.00188 0.46251 0.0
C123 C 0.94135 0.00175 0.67155 0.0
Zn124 Zn 0.44275 0.00108 0.58864 0.0
Zn125 Zn 0.55796 -0.00203 0.5382 0.0
C126 C 0.38581 0.00558 0.8026 0.0
O127 O 0.41031 0.98313 0.86634 0.0
C128 C 0.6167 0.99395 0.35002 0.0
O129 O 0.60325 0.02942 0.32556 0.0
O130 O 0.41864 0.97665 0.43103 0.0
O131 O 0.46973 0.05035 0.52141 0.0
O132 O 0.52548 0.03263 0.42687 0.0
C133 C 0.38421 0.9633 0.44463 0.0
O134 O 0.37326 0.95096 0.55825 0.0
O135 O 0.395 0.01814 0.69187 0.0
C136 C 0.61403 -0.0 0.71567 0.0
O137 O 0.61315 0.96489 0.66197 0.0
O138 O 0.59116 0.02648 0.67196 0.0
O139 O 0.53347 0.95868 0.64958 0.0
O140 O 0.47021 0.96019 0.69365 0.0
O141 O 0.59768 0.97187 0.42515 0.0
C142 C 0.49468 0.05341 0.43112 0.0
C143 C 0.50403 0.94536 0.70778 0.0
Zn144 Zn 0.5033 0.44401 0.56075 0.0
Zn145 Zn 0.4892 0.56284 0.58391 0.0
C146 C 0.49884 0.3791 0.72052 0.0
O147 O 0.53677 0.38513 0.71315 0.0
C148 C 0.52882 0.63012 0.48878 0.0
O149 O 0.53605 0.63574 0.61164 0.0
O150 O 0.52886 0.41031 0.42806 0.0
O151 O 0.46155 0.47475 0.47546 0.0
O152 O 0.44503 0.53726 0.48646 0.0
C153 C 0.51461 0.4092 0.31521 0.0
O154 O 0.49471 0.43952 0.27219 0.0
O155 O 0.47588 0.40337 0.66675 0.0
C156 C 0.46396 0.59572 0.82909 0.0
O157 O 0.4703 0.56072 0.8783 0.0
O158 O 0.46672 0.60075 0.70896 0.0
O159 O 0.5332 0.53485 0.6783 0.0
O160 O 0.54392 0.47111 0.66912 0.0
O161 O 0.51294 0.59813 0.45199 0.0
C162 C 0.43948 0.50283 0.44277 0.0
C163 C 0.55361 0.50503 0.70945 0.0
Zn164 Zn 0.0508 0.52114 0.51864 0.0
Zn165 Zn 0.93916 0.49065 0.60134 0.0
C166 C 0.12983 0.50925 0.62479 0.0
O167 O 0.13995 0.52594 0.51651 0.0
C168 C 0.88851 0.52839 0.39794 0.0
O169 O 0.91575 0.52169 0.31218 0.0
O170 O 0.08009 0.54442 0.37112 0.0
O171 O 0.02067 0.47402 0.44988 0.0
O172 O 0.96094 0.44989 0.4774 0.0
C173 C 0.08233 0.52633 0.26442 0.0
O174 O 0.05396 0.50229 0.22955 0.0
O175 O 0.09352 0.5036 0.64871 0.0
C176 C 0.90259 0.47966 0.84513 0.0
O177 O 0.93067 0.50292 0.88734 0.0
O178 O 0.90551 0.46421 0.73396 0.0
O179 O 0.98078 0.52142 0.69807 0.0
O180 O 0.01799 0.56373 0.59922 0.0
O181 O 0.8959 0.52295 0.51634 0.0
C182 C 0.99466 0.44812 0.42554 0.0
C183 C 0.98986 0.55689 0.67525 0.0
C184 C 0.11846 0.99471 0.17507 0.0
C185 C 0.14327 0.02751 0.1971 0.0
C186 C 0.1047 0.04681 0.38426 0.0
C187 C 0.07964 0.01414 0.36273 0.0
N188 N 0.05679 0.96223 0.22077 0.0
N189 N 0.15382 0.09054 0.29454 0.0
C190 C 0.08432 0.99011 0.25134 0.0
C191 C 0.13351 0.05592 0.29105 0.0
N192 N 0.12942 0.96628 0.0892 0.0
N193 N 0.10268 0.06753 0.49699 0.0
H194 H 0.17543 0.09684 0.22675 0.0
H195 H 0.14694 0.11379 0.35615 0.0
H196 H 0.08163 0.06175 0.56689 0.0
H197 H 0.12312 0.08892 0.52368 0.0
H198 H 0.1154 0.93911 0.08045 0.0
H199 H 0.15416 0.96901 0.03153 0.0
H200 H 0.05697 0.94623 0.13498 0.0
H201 H 0.03188 0.95734 0.27627 0.0
C202 C 0.44754 0.12273 0.19233 0.0
C203 C 0.47814 0.14997 0.17347 0.0
C204 C 0.52106 0.11281 0.31594 0.0
C205 C 0.4904 0.08515 0.33505 0.0
N206 N 0.43228 0.05529 0.24386 0.0
N207 N 0.54721 0.16306 0.17561 0.0
C208 C 0.45585 0.0874 0.25868 0.0
C209 C 0.51622 0.14182 0.22003 0.0
N210 N 0.41038 0.13129 0.15248 0.0
N211 N 0.55338 0.11336 0.39422 0.0
H212 H 0.5437 0.18406 0.10358 0.0
H213 H 0.57624 0.15675 0.19965 0.0
H214 H 0.55715 0.09431 0.47158 0.0
H215 H 0.57463 0.13541 0.39028 0.0
H216 H 0.38634 0.11359 0.17443 0.0
H217 H 0.40351 0.15746 0.10526 0.0
H218 H 0.40848 0.05464 0.18042 0.0
H219 H 0.43978 0.0281 0.28266 0.0
C220 C 0.36868 0.51768 0.16352 0.0
C221 C 0.34351 0.48488 0.17817 0.0
C222 C 0.38116 0.46332 0.36552 0.0
C223 C 0.40746 0.49538 0.34836 0.0
N224 N 0.43272 0.54563 0.20655 0.0
N225 N 0.33157 0.42124 0.26795 0.0
C226 C 0.40332 0.52026 0.23943 0.0
C227 C 0.35223 0.45567 0.27001 0.0
N228 N 0.3583 0.54755 0.08292 0.0
N229 N 0.38154 0.44221 0.47713 0.0
H230 H 0.30983 0.41573 0.19899 0.0
H231 H 0.33863 0.39721 0.32557 0.0
H232 H 0.40047 0.44834 0.5537 0.0
H233 H 0.36052 0.42101 0.49889 0.0
H234 H 0.3732 0.57433 0.07971 0.0
H235 H 0.33299 0.54663 0.02648 0.0
H236 H 0.43234 0.56204 0.12209 0.0
H237 H 0.45932 0.54721 0.25629 0.0
C238 C 0.98344 0.37316 0.15272 0.0
C239 C 0.01893 0.35198 0.16381 0.0
C240 C 0.03845 0.39304 0.34721 0.0
C241 C 0.00379 0.41586 0.33238 0.0
N242 N 0.94914 0.43388 0.1962 0.0
N243 N 0.08432 0.34788 0.24668 0.0
C244 C 0.97805 0.40788 0.22733 0.0
C245 C 0.04803 0.3646 0.25177 0.0
N246 N 0.95384 0.35877 0.07716 0.0
N247 N 0.06046 0.39598 0.45707 0.0
H248 H 0.09126 0.32651 0.17776 0.0
H249 H 0.108 0.35788 0.30167 0.0
H250 H 0.05333 0.41478 0.53305 0.0
H251 H 0.08378 0.37719 0.47763 0.0
H252 H 0.92545 0.37005 0.07943 0.0
H253 H 0.95693 0.33371 0.01976 0.0
H254 H 0.93219 0.43133 0.11303 0.0
H255 H 0.94522 0.46021 0.24563 0.0
C256 C 0.87105 0.01228 0.95497 0.0
C257 C 0.85382 0.97449 0.95448 0.0
C258 C 0.89457 0.95387 0.77473 0.0
C259 C 0.91222 0.99187 0.77261 0.0
N260 N 0.91844 0.0575 0.86448 0.0
N261 N 0.85637 0.90654 0.89572 0.0
C262 C 0.90109 0.02111 0.86503 0.0
C263 C 0.8687 0.94425 0.87599 0.0
N264 N 0.85844 0.03934 0.04318 0.0
N265 N 0.89878 0.92864 0.67283 0.0
H266 H 0.83668 0.89967 0.96892 0.0
H267 H 0.86866 0.88226 0.84928 0.0
H268 H 0.91472 0.93568 0.5908 0.0
H269 H 0.88352 0.90214 0.66436 0.0
H270 H 0.86995 0.06745 0.05515 0.0
H271 H 0.83694 0.03277 0.11048 0.0
H272 H 0.90766 0.08209 0.91256 0.0
H273 H 0.94445 0.06349 0.81633 0.0
C274 C 0.53786 0.85118 0.8705 0.0
C275 C 0.51114 0.8503 0.97345 0.0
C276 C 0.49258 0.91776 0.92696 0.0
C277 C 0.51017 0.91407 0.80398 0.0
N278 N 0.54898 0.87483 0.65564 0.0
N279 N 0.46162 0.8823 0.1001 0.0
C280 C 0.53351 0.88048 0.77534 0.0
C281 C 0.4884 0.8837 0.00332 0.0
N282 N 0.56624 0.82304 0.8623 0.0
N283 N 0.48161 0.9538 0.97286 0.0
H284 H 0.45794 0.85735 0.15704 0.0
H285 H 0.44159 0.90491 0.11728 0.0
H286 H 0.48716 0.97977 0.92274 0.0
H287 H 0.47126 0.95809 0.06612 0.0
H288 H 0.58858 0.82378 0.79435 0.0
H289 H 0.5696 0.80158 0.933 0.0
H290 H 0.56318 0.84894 0.62856 0.0
H291 H 0.54437 0.89392 0.57899 0.0
C292 C 0.63304 0.55468 0.9185 0.0
C293 C 0.64477 0.52296 0.99645 0.0
C294 C 0.60171 0.47834 0.87799 0.0
C295 C 0.58838 0.51013 0.79918 0.0
N296 N 0.6027 0.57538 0.71902 0.0
N297 N 0.63368 0.45852 0.07686 0.0
C298 C 0.60657 0.5479 0.81398 0.0
C299 C 0.62563 0.4865 0.98686 0.0
N300 N 0.64899 0.59089 0.94247 0.0
N301 N 0.5972 0.44017 0.8387 0.0
H302 H 0.65235 0.46427 0.15474 0.0
H303 H 0.61934 0.43152 0.08073 0.0
H304 H 0.59242 0.43282 0.74277 0.0
H305 H 0.60674 0.41599 0.89146 0.0
H306 H 0.64018 0.61667 0.897 0.0
H307 H 0.66905 0.59542 0.01734 0.0
H308 H 0.61627 0.60283 0.72043 0.0
H309 H 0.59012 0.56893 0.6298 0.0
C310 C 0.00838 0.6263 0.95533 0.0
C311 C 0.97266 0.64756 0.95947 0.0
C312 C 0.94825 0.60973 0.77507 0.0
C313 C 0.98272 0.58654 0.77713 0.0
N314 N 0.04155 0.5666 0.88976 0.0
N315 N 0.90526 0.65289 0.89604 0.0
C316 C 0.01134 0.59261 0.87473 0.0
C317 C 0.94127 0.63646 0.8778 0.0
N318 N 0.04061 0.64014 0.01915 0.0
N319 N 0.92371 0.60847 0.67098 0.0
H320 H 0.90009 0.67292 0.9707 0.0
H321 H 0.88034 0.64387 0.84531 0.0
H322 H 0.92875 0.59011 0.59202 0.0
H323 H 0.90025 0.62779 0.65909 0.0
H324 H 0.0687 0.62938 0.0019 0.0
H325 H 0.03991 0.66472 0.07914 0.0
H326 H 0.06106 0.56799 0.96715 0.0
H327 H 0.045 0.5417 0.83173 0.0
C328 C 0.03541 0.18406 0.19907 0.0
C329 C 0.0044 0.20822 0.1576 0.0
C330 C 0.95803 0.15392 0.17757 0.0
C331 C 0.98908 0.12944 0.21977 0.0
N332 N 0.05277 0.1271 0.32304 0.0
N333 N 0.93448 0.21889 0.13841 0.0
C334 C 0.0268 0.1459 0.24424 0.0
C335 C 0.96536 0.19419 0.15649 0.0
N336 N 0.07296 0.19799 0.19799 0.0
N337 N 0.92107 0.1392 0.16107 0.0
H338 H 0.93738 0.24936 0.12865 0.0
H339 H 0.93738 0.24936 0.12865 0.0
H340 H 0.91427 0.10958 0.17515 0.0
H341 H 0.89769 0.15669 0.13022 0.0
H342 H 0.09732 0.18008 0.2138 0.0
H343 H 0.07971 0.227 0.17371 0.0
H344 H 0.07889 0.13987 0.35485 0.0
H345 H 0.04561 0.10138 0.3715 0.0
C346 C 0.3095 0.02851 0.27727 0.0
C347 C 0.28413 -0.00061 0.22756 0.0
C348 C 0.32965 0.94746 0.29266 0.0
C349 C 0.35322 0.97628 0.35461 0.0
N350 N 0.36339 0.04447 0.41868 0.0
N351 N 0.26601 0.93147 0.20097 0.0
C352 C 0.343 0.017 0.34862 0.0
C353 C 0.29324 0.95888 0.2377 0.0
N354 N 0.30073 0.06734 0.25904 0.0
N355 N 0.3423 0.90931 0.28614 0.0
H356 H 0.23885 0.93923 0.16219 0.0
H357 H 0.26896 0.90141 0.21782 0.0
H358 H 0.36901 0.90028 0.32566 0.0
H359 H 0.32818 0.8875 0.23239 0.0
H360 H 0.32045 0.09022 0.27638 0.0
H361 H 0.27412 0.07654 0.21972 0.0
H362 H 0.35384 0.07326 0.43337 0.0
H363 H 0.38935 0.03853 0.46714 0.0
C364 C 0.45669 0.31596 0.2506 0.0
C365 C 0.48501 0.29331 0.18527 0.0
C366 C 0.53208 0.34764 0.19641 0.0
C367 C 0.50421 0.3699 0.26587 0.0
N368 N 0.44294 0.3731 0.38196 0.0
N369 N 0.55148 0.28318 0.11823 0.0
C370 C 0.4672 0.35355 0.29903 0.0
C371 C 0.52327 0.30797 0.16391 0.0
N372 N 0.41964 0.30138 0.26523 0.0
N373 N 0.56674 0.36457 0.16132 0.0
H374 H 0.54581 0.25362 0.09825 0.0
H375 H 0.58096 0.29072 0.11057 0.0
H376 H 0.5744 0.39316 0.18867 0.0
H377 H 0.58667 0.35141 0.09897 0.0
H378 H 0.39607 0.31812 0.2976 0.0
H379 H 0.41186 0.27288 0.23694 0.0
H380 H 0.41788 0.36072 0.4218 0.0
H381 H 0.44937 0.40081 0.41965 0.0
C382 C 0.1782 0.4732 0.20431 0.0
C383 C 0.2007 0.50401 0.15215 0.0
C384 C 0.14486 0.54888 0.16353 0.0
C385 C 0.12239 0.51825 0.21893 0.0
N386 N 0.12143 0.45537 0.32798 0.0
N387 N 0.20982 0.57266 0.1088 0.0
C388 C 0.13991 0.48129 0.2483 0.0
C389 C 0.18522 0.54234 0.13874 0.0
N390 N 0.19386 0.43629 0.21341 0.0
N391 N 0.12761 0.58412 0.13566 0.0
H392 H 0.23984 0.56847 0.09575 0.0
H393 H 0.20139 0.60212 0.10763 0.0
H394 H 0.09865 0.59041 0.15986 0.0
H395 H 0.14114 0.60615 0.08247 0.0
H396 H 0.1774 0.41139 0.23571 0.0
H397 H 0.22299 0.43019 0.19073 0.0
H398 H 0.13473 0.43017 0.36457 0.0
H399 H 0.09445 0.46121 0.37014 0.0
C400 C 0.02934 0.79878 0.95032 0.0
C401 C 0.99149 0.79039 -0.00094 0.0
C402 C 0.97451 0.85988 0.99074 0.0
C403 C 0.00834 0.86689 0.91658 0.0
N404 N 0.07259 0.84591 0.84825 0.0
N405 N 0.92644 0.81143 0.05319 0.0
C406 C 0.03768 0.83741 0.90551 0.0
C407 C 0.96385 0.82068 0.01851 0.0
N408 N 0.05688 0.76959 0.94635 0.0
N409 N 0.95201 0.89096 0.0294 0.0
H410 H 0.91725 0.78236 0.06502 0.0
H411 H 0.90386 0.83203 0.05784 0.0
H412 H 0.95992 0.92 0.00892 0.0
H413 H 0.92824 0.88812 0.09125 0.0
H414 H 0.08615 0.77402 0.9229 0.0
H415 H 0.05083 0.74069 0.97325 0.0
H416 H 0.0927 0.82477 0.81847 0.0
H417 H 0.08202 0.87465 0.83269 0.0
C418 C 0.68335 0.96041 0.94281 0.0
C419 C 0.71118 0.99077 0.95598 0.0
C420 C 0.6674 0.03599 0.84175 0.0
C421 C 0.63982 0.00478 0.82986 0.0
N422 N 0.61458 0.94512 0.92311 0.0
N423 N 0.72653 0.05982 0.94921 0.0
C424 C 0.64527 0.97007 0.90234 0.0
C425 C 0.70188 0.02964 0.91704 0.0
N426 N 0.69425 0.922 0.95571 0.0
N427 N 0.6621 0.07027 0.7761 0.0
H428 H 0.75225 0.05521 0.00186 0.0
H429 H 0.71993 0.08933 0.93267 0.0
H430 H 0.63641 0.07666 0.72594 0.0
H431 H 0.68365 0.0919 0.76895 0.0
H432 H 0.67524 0.89858 0.93662 0.0
H433 H 0.72332 0.91384 0.97228 0.0
H434 H 0.6171 0.91986 0.97926 0.0
H435 H 0.58609 0.95228 0.89425 0.0
C436 C 0.51429 0.68553 0.95327 0.0
C437 C 0.48231 0.70927 0.9893 0.0
C438 C 0.4366 0.65609 0.93422 0.0
C439 C 0.46915 0.63135 0.90833 0.0
N440 N 0.53903 0.61982 0.91895 0.0
N441 N 0.4147 0.71898 0.02582 0.0
C442 C 0.50803 0.64514 0.92754 0.0
C443 C 0.44368 0.69473 0.98354 0.0
N444 N 0.55013 0.70237 0.93449 0.0
N445 N 0.39955 0.64295 0.90743 0.0
H446 H 0.38525 0.71109 0.03252 0.0
H447 H 0.38525 0.71109 0.03252 0.0
H448 H 0.39393 0.61416 0.87657 0.0
H449 H 0.37469 0.66067 0.91013 0.0
H450 H 0.57396 0.68732 0.8958 0.0
H451 H 0.55463 0.7326 0.94426 0.0
H452 H 0.56755 0.62778 0.94433 0.0
H453 H 0.53576 0.58991 0.89861 0.0
C454 C 0.80351 0.46406 0.00444 0.0
C455 C 0.78703 0.5019 0.98737 0.0
C456 C 0.84419 0.52332 0.86683 0.0
C457 C 0.86256 0.48661 0.89377 0.0
N458 N 0.86034 0.42134 0.98246 0.0
N459 N 0.78991 0.56779 0.90593 0.0
C460 C 0.84233 0.45665 0.96098 0.0
C461 C 0.80692 0.53157 0.91936 0.0
N462 N 0.78115 0.43512 0.05805 0.0
N463 N 0.86154 0.5494 0.7852 0.0
H464 H 0.76134 0.57373 0.93547 0.0
H465 H 0.80456 0.59257 0.8724 0.0
H466 H 0.8891 0.5447 0.74594 0.0
H467 H 0.84768 0.57421 0.74818 0.0
H468 H 0.78984 0.4059 0.06692 0.0
H469 H 0.75238 0.44008 0.08764 0.0
H470 H 0.84917 0.39939 0.04132 0.0
H471 H 0.8876 0.41437 0.94347 0.0
C472 C 0.97938 0.22037 0.84572 0.0
C473 C 0.01715 0.23059 0.88748 0.0
C474 C 0.04438 0.1775 0.75273 0.0
C475 C 0.00562 0.1644 0.72379 0.0
N476 N 0.9367 0.16752 0.77543 0.0
N477 N 0.08631 0.21843 0.88963 0.0
C478 C 0.97312 0.18435 0.77898 0.0
C479 C 0.04999 0.20895 0.84353 0.0
N480 N 0.94991 0.24607 0.87181 0.0
N481 N 0.0755 0.16106 0.69032 0.0
H482 H 0.09091 0.2428 0.9495 0.0
H483 H 0.11118 0.20139 0.87324 0.0
H484 H 0.07229 0.13824 0.62364 0.0
H485 H 0.10405 0.17176 0.69802 0.0
H486 H 0.92114 0.24266 0.83902 0.0
H487 H 0.92114 0.24266 0.83902 0.0
H488 H 0.91299 0.17857 0.8271 0.0
H489 H 0.93138 0.13994 0.7341 0.0
C490 C 0.2816 0.98365 0.9105 0.0
C491 C 0.27 0.02093 0.95587 0.0
C492 C 0.33114 0.04997 0.8763 0.0
C493 C 0.3453 0.01132 0.85021 0.0
N494 N 0.33434 0.94074 0.84457 0.0
N495 N 0.27933 0.09066 0.96856 0.0
C496 C 0.3205 0.97796 0.86681 0.0
C497 C 0.29328 0.05461 0.93237 0.0
N498 N 0.25476 0.9538 0.90897 0.0
N499 N 0.35448 0.08186 0.85185 0.0
H500 H 0.25117 0.0942 0.00562 0.0
H501 H 0.29514 0.1168 0.96423 0.0
H502 H 0.38327 0.07939 0.81958 0.0
H503 H 0.34552 0.111 0.86054 0.0
H504 H 0.25971 0.9263 0.86735 0.0
H505 H 0.22595 0.95812 0.93939 0.0
H506 H 0.31953 0.91535 0.8723 0.0
H507 H 0.36164 0.93486 0.80451 0.0
C508 C 0.44223 0.30295 0.91463 0.0
C509 C 0.47006 0.27214 0.91347 0.0
C510 C 0.50558 0.30652 0.74517 0.0
C511 C 0.48436 0.34141 0.77367 0.0
N512 N 0.43256 0.37315 0.89491 0.0
N513 N 0.5311 0.24611 0.83259 0.0
C514 C 0.45206 0.33974 0.85913 0.0
C515 C 0.50228 0.2739 0.82851 0.0
N516 N 0.40687 0.29694 0.97162 0.0
N517 N 0.5283 0.30431 0.63754 0.0
H518 H 0.53051 0.22227 0.89505 0.0
H519 H 0.55718 0.24876 0.78148 0.0
H520 H 0.52933 0.3269 0.56982 0.0
H521 H 0.54198 0.27835 0.60807 0.0
H522 H 0.38415 0.31745 0.96881 0.0
H523 H 0.39935 0.26955 0.00968 0.0
H524 H 0.41152 0.37349 0.9673 0.0
H525 H 0.43963 0.40107 0.86107 0.0
C526 C 0.22075 0.52632 0.82843 0.0
C527 C 0.2264 0.48917 0.88572 0.0
C528 C 0.16938 0.46325 0.76637 0.0
C529 C 0.16102 0.50196 0.72235 0.0
N530 N 0.17445 0.57175 0.73416 0.0
N531 N 0.20706 0.42195 0.9128 0.0
C532 C 0.18569 0.53387 0.75901 0.0
C533 C 0.20095 0.45745 0.85522 0.0
N534 N 0.24907 0.55449 0.84111 0.0
N535 N 0.14816 0.43205 0.71993 0.0
H536 H 0.23192 0.41655 0.96897 0.0
H537 H 0.18723 0.39864 0.90849 0.0
H538 H 0.12491 0.43533 0.65527 0.0
H539 H 0.15503 0.40276 0.73884 0.0
H540 H 0.24849 0.58107 0.79149 0.0
H541 H 0.27493 0.5496 0.89237 0.0
H542 H 0.18926 0.59629 0.77046 0.0
H543 H 0.14794 0.57873 0.68921 0.0
C544 C 0.02847 0.77348 0.27958 0.0
C545 C 0.98939 0.76079 0.26426 0.0
C546 C 0.96839 0.81184 0.41746 0.0
C547 C 0.00659 0.82883 0.41304 0.0
N548 N 0.07128 0.82891 0.31873 0.0
N549 N 0.92149 0.76663 0.31863 0.0
C550 C 0.03634 0.81027 0.33926 0.0
C551 C 0.95915 0.77939 0.33455 0.0
N552 N 0.05804 0.75018 0.23547 0.0
N553 N 0.94148 0.82575 0.50324 0.0
H554 H 0.91462 0.74189 0.26281 0.0
H555 H 0.8972 0.78156 0.35448 0.0
H556 H 0.94729 0.84901 0.5663 0.0
H557 H 0.91454 0.81225 0.51938 0.0
H558 H 0.08761 0.75628 0.25188 0.0
H559 H 0.05244 0.72263 0.19452 0.0
H560 H 0.09227 0.81829 0.25486 0.0
H561 H 0.0775 0.85706 0.35401 0.0
C562 C 0.72417 0.00841 0.27963 0.0
C563 C 0.7336 0.97167 0.22426 0.0
C564 C 0.6687 0.9462 0.27371 0.0
C565 C 0.65795 0.98415 0.3199 0.0
N566 N 0.68091 0.04432 0.42146 0.0
N567 N 0.72254 0.90217 0.22139 0.0
C568 C 0.68745 0.01317 0.34055 0.0
C569 C 0.70851 0.93922 0.24177 0.0
N570 N 0.74963 0.03914 0.26827 0.0
N571 N 0.64091 0.918 0.25039 0.0
H572 H 0.75164 0.8974 0.1947 0.0
H573 H 0.70645 0.87681 0.24113 0.0
H574 H 0.61105 0.92253 0.26509 0.0
H575 H 0.64716 0.89128 0.20522 0.0
H576 H 0.74247 0.06805 0.29278 0.0
H577 H 0.77741 0.03554 0.22858 0.0
H578 H 0.70261 0.0646 0.44676 0.0
H579 H 0.65537 0.04712 0.47552 0.0
C580 C 0.55343 0.71503 0.26463 0.0
C581 C 0.51534 0.73074 0.24503 0.0
C582 C 0.4871 0.68134 0.38662 0.0
C583 C 0.52494 0.66483 0.40519 0.0
N584 N 0.59497 0.66845 0.37956 0.0
N585 N 0.44701 0.73272 0.30362 0.0
C586 C 0.55851 0.68258 0.34985 0.0
C587 C 0.48286 0.71529 0.31123 0.0
N588 N 0.58424 0.73032 0.198 0.0
N589 N 0.45469 0.66504 0.44217 0.0
H590 H 0.44162 0.75877 0.25353 0.0
H591 H 0.44162 0.75877 0.25353 0.0
H592 H 0.45563 0.64032 0.50094 0.0
H593 H 0.42651 0.67631 0.42822 0.0
H594 H 0.61214 0.718 0.19619 0.0
H595 H 0.5814 0.75495 0.13927 0.0
H596 H 0.62101 0.68188 0.35197 0.0
H597 H 0.59928 0.644 0.43842 0.0
C598 C 0.7822 0.49999 0.32485 0.0
C599 C 0.77062 0.5321 0.24799 0.0
C600 C 0.8338 0.56483 0.286 0.0
C601 C 0.84683 0.53134 0.35557 0.0
N602 N 0.83277 0.46796 0.45171 0.0
N603 N 0.77906 0.59899 0.18448 0.0
C604 C 0.82052 0.49948 0.38038 0.0
C605 C 0.7945 0.56593 0.2389 0.0
N606 N 0.75691 0.46899 0.33707 0.0
N607 N 0.8594 0.59485 0.26139 0.0
H608 H 0.75006 0.59988 0.15183 0.0
H609 H 0.79342 0.62602 0.18102 0.0
H610 H 0.8878 0.59573 0.29914 0.0
H611 H 0.8533 0.61798 0.19906 0.0
H612 H 0.76366 0.44239 0.38095 0.0
H613 H 0.72842 0.4699 0.30007 0.0
H614 H 0.81435 0.44588 0.48491 0.0
H615 H 0.86174 0.46354 0.48024 0.0
loop_
_geom_bond_atom_site_label_1
_geom_bond_atom_site_label_2
_geom_bond_distance
_geom_bond_site_symmetry_2
_ccdc_geom_bond_type
C0 N1 1.317 . S
C0 N2 1.348 1_554 S
C0 C3 1.485 . S
N1 C0 1.317 . S
N1 N5 1.370 1_554 S
N2 C0 1.348 1_556 S
N2 C4 1.346 . S
C3 C0 1.485 . S
C3 H7 0.960 . S
C3 H8 0.961 . S
C3 H9 0.960 . S
C4 N2 1.346 . S
C4 N5 1.307 . S
C4 C6 1.486 . S
N5 N1 1.370 1_556 S
N5 C4 1.307 . S
C6 C4 1.486 . S
C6 H10 0.960 . S
C6 H11 0.960 . S
C6 H12 0.959 . S
H7 C3 0.960 . S
H8 C3 0.961 . S
H9 C3 0.960 . S
H10 C6 0.960 . S
H11 C6 0.960 . S
H12 C6 0.959 . S
C13 N14 1.317 . S
C13 N15 1.348 1_554 S
C13 C16 1.485 . S
N14 C13 1.317 . S
N14 N18 1.370 1_554 S
N15 C13 1.348 1_556 S
N15 C17 1.346 . S
C16 C13 1.485 . S
C16 H20 0.960 1_655 S
C16 H21 0.961 . S
C16 H22 0.960 . S
C17 N15 1.346 . S
C17 N18 1.307 . S
C17 C19 1.486 . S
N18 N14 1.370 1_556 S
N18 C17 1.307 . S
C19 C17 1.486 . S
C19 H23 0.960 . S
C19 H24 0.960 1_655 S
C19 H25 0.959 . S
H20 C16 0.960 1_455 S
H21 C16 0.961 . S
H22 C16 0.960 . S
H23 C19 0.960 . S
H24 C19 0.960 1_455 S
H25 C19 0.959 . S
C26 N27 1.317 . S
C26 N28 1.348 1_554 S
C26 C29 1.485 . S
N27 C26 1.317 . S
N27 N31 1.370 1_554 S
N28 C26 1.348 1_556 S
N28 C30 1.346 . S
C29 C26 1.485 . S
C29 H33 0.960 1_565 S
C29 H34 0.961 . S
C29 H35 0.960 . S
C30 N28 1.346 . S
C30 N31 1.307 . S
C30 C32 1.486 . S
N31 N27 1.370 1_556 S
N31 C30 1.307 . S
C32 C30 1.486 . S
C32 H36 0.960 . S
C32 H37 0.960 1_565 S
C32 H38 0.959 . S
H33 C29 0.960 1_545 S
H34 C29 0.961 . S
H35 C29 0.960 . S
H36 C32 0.960 . S
H37 C32 0.960 1_545 S
H38 C32 0.959 . S
C39 N40 1.317 . S
C39 N41 1.348 1_554 S
C39 C42 1.485 . S
N40 C39 1.317 . S
N40 N44 1.370 1_554 S
N41 C39 1.348 1_556 S
N41 C43 1.346 . S
C42 C39 1.485 . S
C42 H46 0.960 . S
C42 H47 0.961 . S
C42 H48 0.960 . S
C43 N41 1.346 . S
C43 N44 1.307 . S
C43 C45 1.486 . S
N44 N40 1.370 1_556 S
N44 C43 1.307 . S
C45 C43 1.486 . S
C45 H49 0.960 . S
C45 H50 0.960 . S
C45 H51 0.959 . S
H46 C42 0.960 . S
H47 C42 0.961 . S
H48 C42 0.960 . S
H49 C45 0.960 . S
H50 C45 0.960 . S
H51 C45 0.959 . S
C52 N53 1.317 . S
C52 N54 1.348 . S
C52 C55 1.485 1_554 S
N53 C52 1.317 . S
N53 N57 1.370 . S
N54 C52 1.348 . S
N54 C56 1.346 . S
C55 C52 1.485 1_556 S
C55 H59 0.960 . S
C55 H60 0.961 . S
C55 H61 0.960 . S
C56 N54 1.346 . S
C56 N57 1.307 . S
C56 C58 1.486 . S
N57 N53 1.370 . S
N57 C56 1.307 . S
C58 C56 1.486 . S
C58 H62 0.960 . S
C58 H63 0.960 . S
C58 H64 0.959 . S
H59 C55 0.960 . S
H60 C55 0.961 . S
H61 C55 0.960 . S
H62 C58 0.960 . S
H63 C58 0.960 . S
H64 C58 0.959 . S
C65 N66 1.317 . S
C65 N67 1.348 . S
C65 C68 1.485 1_554 S
N66 C65 1.317 . S
N66 N70 1.370 . S
N67 C65 1.348 . S
N67 C69 1.346 . S
C68 C65 1.485 1_556 S
C68 H72 0.960 . S
C68 H73 0.961 . S
C68 H74 0.960 . S
C69 N67 1.346 . S
C69 N70 1.307 . S
C69 C71 1.486 . S
N70 N66 1.370 . S
N70 C69 1.307 . S
C71 C69 1.486 . S
C71 H75 0.960 1_455 S
C71 H76 0.960 . S
C71 H77 0.959 . S
H72 C68 0.960 . S
H73 C68 0.961 . S
H74 C68 0.960 . S
H75 C71 0.960 1_655 S
H76 C71 0.960 . S
H77 C71 0.959 . S
C78 N79 1.317 . S
C78 N80 1.348 . S
C78 C81 1.485 1_554 S
N79 C78 1.317 . S
N79 N83 1.370 . S
N80 C78 1.348 . S
N80 C82 1.346 . S
C81 C78 1.485 1_556 S
C81 H85 0.960 . S
C81 H86 0.961 . S
C81 H87 0.960 . S
C82 N80 1.346 . S
C82 N83 1.307 . S
C82 C84 1.486 . S
N83 N79 1.370 . S
N83 C82 1.307 . S
C84 C82 1.486 . S
C84 H88 0.961 . S
C84 H89 0.960 . S
C84 H90 0.959 . S
H85 C81 0.960 . S
H86 C81 0.961 . S
H87 C81 0.960 . S
H88 C84 0.961 . S
H89 C84 0.960 . S
H90 C84 0.959 . S
C91 N92 1.317 . S
C91 N93 1.348 . S
C91 C94 1.485 1_554 S
N92 C91 1.317 . S
N92 N96 1.370 . S
N93 C91 1.348 . S
N93 C95 1.346 . S
C94 C91 1.485 1_556 S
C94 H98 0.960 . S
C94 H99 0.961 . S
C94 H100 0.960 . S
C95 N93 1.346 . S
C95 N96 1.307 . S
C95 C97 1.486 . S
N96 N92 1.370 . S
N96 C95 1.307 . S
C97 C95 1.486 . S
C97 H101 0.960 . S
C97 H102 0.960 . S
C97 H103 0.959 . S
H98 C94 0.960 . S
H99 C94 0.961 . S
H100 C94 0.960 . S
H101 C97 0.960 . S
H102 C97 0.960 . S
H103 C97 0.959 . S
Zn104 O110 1.964 1_455 S
Zn104 O111 1.970 . S
Zn104 O115 2.030 . S
Zn104 O120 1.960 1_455 S
Zn105 O112 1.969 . S
Zn105 O118 1.969 . S
Zn105 O119 1.965 1_455 S
Zn105 O121 2.024 1_455 S
C106 O107 1.229 1_455 S
C106 O115 1.058 . S
O107 C106 1.229 1_655 S
C108 O109 1.229 1_655 S
C108 O121 1.058 . S
O109 C108 1.229 1_455 S
O110 Zn104 1.964 1_655 S
O110 C113 1.280 . S
O111 Zn104 1.970 . S
O111 C122 1.260 . S
O112 Zn105 1.969 . S
O112 C122 1.258 1_565 S
C113 O110 1.280 . S
C113 O114 1.209 1_655 S
O114 C113 1.209 1_455 S
O115 Zn104 2.030 . S
O115 C106 1.058 . S
C116 O117 1.228 1_455 S
C116 O118 1.267 . S
O117 C116 1.228 1_655 S
O118 Zn105 1.969 . S
O118 C116 1.267 . S
O119 Zn105 1.965 1_655 S
O119 C123 1.260 1_565 S
O120 Zn104 1.960 1_655 S
O120 C123 1.258 . S
O121 Zn105 2.024 1_655 S
O121 C108 1.058 . S
C122 O111 1.260 . S
C122 O112 1.258 1_545 S
C123 O119 1.260 1_545 S
C123 O120 1.258 . S
Zn124 O130 1.969 1_545 S
Zn124 O131 1.965 . S
Zn124 O135 2.024 . S
Zn124 O140 1.969 1_545 S
Zn125 O132 1.969 . S
Zn125 O138 1.969 . S
Zn125 O139 1.965 1_545 S
Zn125 O141 2.024 1_545 S
C126 O127 1.229 1_545 S
C126 O135 1.058 . S
O127 C126 1.229 1_565 S
C128 O129 1.229 1_565 S
C128 O141 1.058 . S
O129 C128 1.229 1_545 S
O130 Zn124 1.969 1_565 S
O130 C133 1.254 1_565 S
O131 Zn124 1.965 . S
O131 C142 1.260 . S
O132 Zn125 1.969 . S
O132 C142 1.258 . S
C133 O130 1.254 1_545 S
C133 O134 1.248 . S
O134 C133 1.248 . S
O135 Zn124 2.024 . S
O135 C126 1.058 . S
C136 O137 1.228 1_545 S
C136 O138 1.267 . S
O137 C136 1.228 1_565 S
O138 Zn125 1.969 . S
O138 C136 1.267 . S
O139 Zn125 1.965 1_565 S
O139 C143 1.260 . S
O140 Zn124 1.969 1_565 S
O140 C143 1.258 . S
O141 Zn125 2.024 1_565 S
O141 C128 1.058 . S
C142 O131 1.260 . S
C142 O132 1.258 . S
C143 O139 1.260 . S
C143 O140 1.258 . S
Zn144 O150 1.969 . S
Zn144 O151 1.965 . S
Zn144 O155 2.024 . S
Zn144 O160 1.969 . S
Zn145 O152 1.969 . S
Zn145 O158 1.969 . S
Zn145 O159 1.965 . S
Zn145 O161 2.024 . S
C146 O147 1.229 . S
C146 O155 1.058 . S
O147 C146 1.229 . S
C148 O149 1.229 . S
C148 O161 1.058 . S
O149 C148 1.229 . S
O150 Zn144 1.969 . S
O150 C153 1.267 . S
O151 Zn144 1.965 . S
O151 C162 1.260 . S
O152 Zn145 1.969 . S
O152 C162 1.258 . S
C153 O150 1.267 . S
C153 O154 1.228 . S
O154 C153 1.228 . S
O155 Zn144 2.024 . S
O155 C146 1.058 . S
C156 O157 1.228 . S
C156 O158 1.267 . S
O157 C156 1.228 . S
O158 Zn145 1.969 . S
O158 C156 1.267 . S
O159 Zn145 1.965 . S
O159 C163 1.260 . S
O160 Zn144 1.969 . S
O160 C163 1.258 . S
O161 Zn145 2.024 . S
O161 C148 1.058 . S
C162 O151 1.260 . S
C162 O152 1.258 . S
C163 O159 1.260 . S
C163 O160 1.258 . S
Zn164 O170 1.969 . S
Zn164 O171 1.965 . S
Zn164 O175 2.024 . S
Zn164 O180 1.969 . S
Zn165 O172 1.969 . S
Zn165 O178 1.969 . S
Zn165 O179 1.965 . S
Zn165 O181 2.024 . S
C166 O167 1.229 . S
C166 O175 1.058 . S
O167 C166 1.229 . S
C168 O169 1.229 . S
C168 O181 1.058 . S
O169 C168 1.229 . S
O170 Zn164 1.969 . S
O170 C173 1.267 . S
O171 Zn164 1.965 . S
O171 C182 1.258 1_455 S
O172 Zn165 1.969 . S
O172 C182 1.261 . S
C173 O170 1.267 . S
C173 O174 1.228 . S
O174 C173 1.228 . S
O175 Zn164 2.024 . S
O175 C166 1.058 . S
C176 O177 1.228 . S
C176 O178 1.267 . S
O177 C176 1.228 . S
O178 Zn165 1.969 . S
O178 C176 1.267 . S
O179 Zn165 1.965 . S
O179 C183 1.260 1_655 S
O180 Zn164 1.969 . S
O180 C183 1.258 . S
O181 Zn165 2.024 . S
O181 C168 1.058 . S
C182 O171 1.258 1_655 S
C182 O172 1.261 . S
C183 O179 1.260 1_455 S
C183 O180 1.258 . S
C184 C185 1.363 1_565 S
C184 C190 1.379 . S
C184 N192 1.356 . S
C185 C184 1.363 1_545 S
C185 C191 1.363 . S
C186 C187 1.363 . S
C186 C191 1.379 . S
C186 N193 1.356 . S
C187 C186 1.363 . S
C187 C190 1.363 1_545 S
N188 C190 1.356 . S
N188 H200 0.984 . S
N188 H201 0.985 . S
N189 C191 1.356 . S
N189 H194 0.984 . S
N189 H195 0.985 . S
C190 C184 1.379 . S
C190 C187 1.363 1_565 S
C190 N188 1.356 . S
C191 C185 1.363 . S
C191 C186 1.379 . S
C191 N189 1.356 . S
N192 C184 1.356 . S
N192 H198 0.984 . S
N192 H199 0.984 . S
N193 C186 1.356 . S
N193 H196 0.984 . S
N193 H197 0.985 . S
H194 N189 0.984 . S
H195 N189 0.985 . S
H196 N193 0.984 . S
H197 N193 0.985 . S
H198 N192 0.984 . S
H199 N192 0.984 . S
H200 N188 0.984 . S
H201 N188 0.985 . S
C202 C203 1.363 . S
C202 C208 1.379 . S
C202 N210 1.356 . S
C203 C202 1.363 . S
C203 C209 1.363 . S
C204 C205 1.363 . S
C204 C209 1.379 . S
C204 N211 1.356 . S
C205 C204 1.363 . S
C205 C208 1.363 . S
N206 C208 1.356 . S
N206 H218 0.984 . S
N206 H219 0.985 . S
N207 C209 1.356 . S
N207 H212 0.984 . S
N207 H213 0.985 . S
C208 C202 1.379 . S
C208 C205 1.363 . S
C208 N206 1.356 . S
C209 C203 1.363 . S
C209 C204 1.379 . S
C209 N207 1.356 . S
N210 C202 1.356 . S
N210 H216 0.984 . S
N210 H217 0.984 . S
N211 C204 1.356 . S
N211 H214 0.984 . S
N211 H215 0.985 . S
H212 N207 0.984 . S
H213 N207 0.985 . S
H214 N211 0.984 . S
H215 N211 0.985 . S
H216 N210 0.984 . S
H217 N210 0.984 . S
H218 N206 0.984 . S
H219 N206 0.985 . S
C220 C221 1.363 . S
C220 C226 1.379 . S
C220 N228 1.356 . S
C221 C220 1.363 . S
C221 C227 1.363 . S
C222 C223 1.363 . S
C222 C227 1.379 . S
C222 N229 1.356 . S
C223 C222 1.363 . S
C223 C226 1.363 . S
N224 C226 1.356 . S
N224 H236 0.984 . S
N224 H237 0.985 . S
N225 C227 1.356 . S
N225 H230 0.984 . S
N225 H231 0.985 . S
C226 C220 1.379 . S
C226 C223 1.363 . S
C226 N224 1.356 . S
C227 C221 1.363 . S
C227 C222 1.379 . S
C227 N225 1.356 . S
N228 C220 1.356 . S
N228 H234 0.984 . S
N228 H235 0.984 . S
N229 C222 1.356 . S
N229 H232 0.984 . S
N229 H233 0.985 . S
H230 N225 0.984 . S
H231 N225 0.985 . S
H232 N229 0.984 . S
H233 N229 0.985 . S
H234 N228 0.984 . S
H235 N228 0.984 . S
H236 N224 0.984 . S
H237 N224 0.985 . S
C238 C239 1.363 1_655 S
C238 C244 1.379 . S
C238 N246 1.356 . S
C239 C238 1.363 1_455 S
C239 C245 1.363 . S
C240 C241 1.363 . S
C240 C245 1.379 . S
C240 N247 1.356 . S
C241 C240 1.363 . S
C241 C244 1.363 1_455 S
N242 C244 1.356 . S
N242 H254 0.984 . S
N242 H255 0.985 . S
N243 C245 1.356 . S
N243 H248 0.984 . S
N243 H249 0.985 . S
C244 C238 1.379 . S
C244 C241 1.363 1_655 S
C244 N242 1.356 . S
C245 C239 1.363 . S
C245 C240 1.379 . S
C245 N243 1.356 . S
N246 C238 1.356 . S
N246 H252 0.984 . S
N246 H253 0.984 . S
N247 C240 1.356 . S
N247 H250 0.984 . S
N247 H251 0.985 . S
H248 N243 0.984 . S
H249 N243 0.985 . S
H250 N247 0.984 . S
H251 N247 0.985 . S
H252 N246 0.984 . S
H253 N246 0.984 . S
H254 N242 0.984 . S
H255 N242 0.985 . S
C256 C257 1.363 1_545 S
C256 C262 1.379 . S
C256 N264 1.356 . S
C257 C256 1.363 1_565 S
C257 C263 1.363 . S
C258 C259 1.363 . S
C258 C263 1.379 . S
C258 N265 1.356 . S
C259 C258 1.363 . S
C259 C262 1.363 1_565 S
N260 C262 1.356 . S
N260 H272 0.984 . S
N260 H273 0.985 . S
N261 C263 1.356 . S
N261 H266 0.984 1_556 S
N261 H267 0.985 . S
C262 C256 1.379 . S
C262 C259 1.363 1_545 S
C262 N260 1.356 . S
C263 C257 1.363 . S
C263 C258 1.379 . S
C263 N261 1.356 . S
N264 C256 1.356 . S
N264 H270 0.984 . S
N264 H271 0.984 . S
N265 C258 1.356 . S
N265 H268 0.984 . S
N265 H269 0.985 . S
H266 N261 0.984 1_554 S
H267 N261 0.985 . S
H268 N265 0.984 . S
H269 N265 0.985 . S
H270 N264 0.984 . S
H271 N264 0.984 . S
H272 N260 0.984 . S
H273 N260 0.985 . S
C274 C275 1.363 . S
C274 C280 1.379 . S
C274 N282 1.356 . S
C275 C274 1.363 . S
C275 C281 1.363 . S
C276 C277 1.363 . S
C276 C281 1.379 . S
C276 N283 1.356 . S
C277 C276 1.363 . S
C277 C280 1.363 . S
N278 C280 1.356 . S
N278 H290 0.984 . S
N278 H291 0.985 . S
N279 C281 1.356 1_554 S
N279 H284 0.984 . S
N279 H285 0.985 . S
C280 C274 1.379 . S
C280 C277 1.363 . S
C280 N278 1.356 . S
C281 C275 1.363 . S
C281 C276 1.379 . S
C281 N279 1.356 1_556 S
N282 C274 1.356 . S
N282 H288 0.984 . S
N282 H289 0.984 . S
N283 C276 1.356 . S
N283 H286 0.984 . S
N283 H287 0.985 . S
H284 N279 0.984 . S
H285 N279 0.985 . S
H286 N283 0.984 . S
H287 N283 0.985 . S
H288 N282 0.984 . S
H289 N282 0.984 . S
H290 N278 0.984 . S
H291 N278 0.985 . S
C292 C293 1.363 . S
C292 C298 1.379 . S
C292 N300 1.356 . S
C293 C292 1.363 . S
C293 C299 1.363 . S
C294 C295 1.363 . S
C294 C299 1.379 . S
C294 N301 1.356 . S
C295 C294 1.363 . S
C295 C298 1.363 . S
N296 C298 1.356 . S
N296 H308 0.984 . S
N296 H309 0.985 . S
N297 C299 1.356 . S
N297 H302 0.984 . S
N297 H303 0.985 . S
C298 C292 1.379 . S
C298 C295 1.363 . S
C298 N296 1.356 . S
C299 C293 1.363 . S
C299 C294 1.379 . S
C299 N297 1.356 . S
N300 C292 1.356 . S
N300 H306 0.984 1_556 S
N300 H307 0.984 1_556 S
N301 C294 1.356 . S
N301 H304 0.984 . S
N301 H305 0.985 . S
H302 N297 0.984 . S
H303 N297 0.985 . S
H304 N301 0.984 . S
H305 N301 0.985 . S
H306 N300 0.984 1_554 S
H307 N300 0.984 1_554 S
H308 N296 0.984 . S
H309 N296 0.985 . S
C310 C311 1.362 . S
C310 C316 1.379 1_655 S
C310 N318 1.357 1_656 S
C311 C310 1.362 . S
C311 C317 1.363 . S
C312 C313 1.363 . S
C312 C317 1.379 . S
C312 N319 1.356 . S
C313 C312 1.363 . S
C313 C316 1.363 1_655 S
N314 C316 1.356 . S
N314 H326 0.984 . S
N314 H327 0.985 . S
N315 C317 1.356 . S
N315 H320 0.984 . S
N315 H321 0.985 . S
C316 C310 1.379 1_455 S
C316 C313 1.363 1_455 S
C316 N314 1.356 . S
C317 C311 1.363 . S
C317 C312 1.379 . S
C317 N315 1.356 . S
N318 C310 1.357 1_454 S
N318 H324 0.984 . S
N318 H325 0.984 . S
N319 C312 1.356 . S
N319 H322 0.984 . S
N319 H323 0.985 . S
H320 N315 0.984 . S
H321 N315 0.985 . S
H322 N319 0.984 . S
H323 N319 0.985 . S
H324 N318 0.984 . S
H325 N318 0.984 . S
H326 N314 0.984 . S
H327 N314 0.985 . S
C328 C329 1.363 . S
C328 C334 1.379 . S
C328 N336 1.356 . S
C329 C328 1.363 . S
C329 C335 1.363 1_455 S
C330 C331 1.363 . S
C330 C335 1.379 . S
C330 N337 1.356 . S
C331 C330 1.363 . S
C331 C334 1.363 1_655 S
N332 C334 1.356 . S
N332 H344 0.984 . S
N332 H345 0.985 . S
N333 C335 1.356 . S
N333 H338 0.984 1_655 S
N333 H339 0.985 1_554 S
C334 C328 1.379 . S
C334 C331 1.363 1_455 S
C334 N332 1.356 . S
C335 C329 1.363 1_655 S
C335 C330 1.379 . S
C335 N333 1.356 . S
N336 C328 1.356 . S
N336 H342 0.984 . S
N336 H343 0.984 . S
N337 C330 1.356 . S
N337 H340 0.984 . S
N337 H341 0.985 . S
H338 N333 0.984 1_455 S
H339 N333 0.985 1_556 S
H340 N337 0.984 . S
H341 N337 0.985 . S
H342 N336 0.984 . S
H343 N336 0.984 . S
H344 N332 0.984 . S
H345 N332 0.985 . S
C346 C347 1.363 . S
C346 C352 1.379 . S
C346 N354 1.356 . S
C347 C346 1.363 . S
C347 C353 1.363 1_545 S
C348 C349 1.363 . S
C348 C353 1.379 . S
C348 N355 1.356 . S
C349 C348 1.363 . S
C349 C352 1.363 1_565 S
N350 C352 1.356 . S
N350 H362 0.984 . S
N350 H363 0.985 . S
N351 C353 1.356 . S
N351 H356 0.984 . S
N351 H357 0.985 . S
C352 C346 1.379 . S
C352 C349 1.363 1_545 S
C352 N350 1.356 . S
C353 C347 1.363 1_565 S
C353 C348 1.379 . S
C353 N351 1.356 . S
N354 C346 1.356 . S
N354 H360 0.984 . S
N354 H361 0.984 . S
N355 C348 1.356 . S
N355 H358 0.984 . S
N355 H359 0.985 . S
H356 N351 0.984 . S
H357 N351 0.985 . S
H358 N355 0.984 . S
H359 N355 0.985 . S
H360 N354 0.984 . S
H361 N354 0.984 . S
H362 N350 0.984 . S
H363 N350 0.985 . S
C364 C365 1.363 . S
C364 C370 1.379 . S
C364 N372 1.356 . S
C365 C364 1.363 . S
C365 C371 1.363 . S
C366 C367 1.363 . S
C366 C371 1.379 . S
C366 N373 1.356 . S
C367 C366 1.363 . S
C367 C370 1.363 . S
N368 C370 1.356 . S
N368 H380 0.984 . S
N368 H381 0.985 . S
N369 C371 1.356 . S
N369 H374 0.984 . S
N369 H375 0.985 . S
C370 C364 1.379 . S
C370 C367 1.363 . S
C370 N368 1.356 . S
C371 C365 1.363 . S
C371 C366 1.379 . S
C371 N369 1.356 . S
N372 C364 1.356 . S
N372 H378 0.984 . S
N372 H379 0.984 . S
N373 C366 1.356 . S
N373 H376 0.984 . S
N373 H377 0.985 . S
H374 N369 0.984 . S
H375 N369 0.985 . S
H376 N373 0.984 . S
H377 N373 0.985 . S
H378 N372 0.984 . S
H379 N372 0.984 . S
H380 N368 0.984 . S
H381 N368 0.985 . S
C382 C383 1.363 . S
C382 C388 1.379 . S
C382 N390 1.356 . S
C383 C382 1.363 . S
C383 C389 1.363 . S
C384 C385 1.363 . S
C384 C389 1.379 . S
C384 N391 1.356 . S
C385 C384 1.363 . S
C385 C388 1.363 . S
N386 C388 1.356 . S
N386 H398 0.984 . S
N386 H399 0.985 . S
N387 C389 1.356 . S
N387 H392 0.984 . S
N387 H393 0.985 . S
C388 C382 1.379 . S
C388 C385 1.363 . S
C388 N386 1.356 . S
C389 C383 1.363 . S
C389 C384 1.379 . S
C389 N387 1.356 . S
N390 C382 1.356 . S
N390 H396 0.984 . S
N390 H397 0.984 . S
N391 C384 1.356 . S
N391 H394 0.984 . S
N391 H395 0.985 . S
H392 N387 0.984 . S
H393 N387 0.985 . S
H394 N391 0.984 . S
H395 N391 0.985 . S
H396 N390 0.984 . S
H397 N390 0.984 . S
H398 N386 0.984 . S
H399 N386 0.985 . S
C400 C401 1.363 1_455 S
C400 C406 1.379 . S
C400 N408 1.356 . S
C401 C400 1.363 1_655 S
C401 C407 1.363 . S
C402 C403 1.363 1_655 S
C402 C407 1.379 . S
C402 N409 1.356 . S
C403 C402 1.363 1_455 S
C403 C406 1.363 . S
N404 C406 1.356 . S
N404 H416 0.984 . S
N404 H417 0.985 . S
N405 C407 1.356 1_554 S
N405 H410 0.984 . S
N405 H411 0.985 . S
C406 C400 1.379 . S
C406 C403 1.363 . S
C406 N404 1.356 . S
C407 C401 1.363 . S
C407 C402 1.379 . S
C407 N405 1.356 1_556 S
N408 C400 1.356 . S
N408 H414 0.984 . S
N408 H415 0.984 . S
N409 C402 1.356 . S
N409 H412 0.984 . S
N409 H413 0.985 1_556 S
H410 N405 0.984 . S
H411 N405 0.985 . S
H412 N409 0.984 . S
H413 N409 0.985 1_554 S
H414 N408 0.984 . S
H415 N408 0.984 . S
H416 N404 0.984 . S
H417 N404 0.985 . S
C418 C419 1.363 . S
C418 C424 1.379 . S
C418 N426 1.356 . S
C419 C418 1.363 . S
C419 C425 1.363 1_565 S
C420 C421 1.363 . S
C420 C425 1.379 . S
C420 N427 1.356 . S
C421 C420 1.363 . S
C421 C424 1.363 1_545 S
N422 C424 1.356 . S
N422 H434 0.984 . S
N422 H435 0.985 . S
N423 C425 1.356 . S
N423 H428 0.984 1_556 S
N423 H429 0.985 1_556 S
C424 C418 1.379 . S
C424 C421 1.363 1_565 S
C424 N422 1.356 . S
C425 C419 1.363 1_545 S
C425 C420 1.379 . S
C425 N423 1.356 . S
N426 C418 1.356 . S
N426 H432 0.984 . S
N426 H433 0.984 . S
N427 C420 1.356 . S
N427 H430 0.984 . S
N427 H431 0.985 . S
H428 N423 0.984 1_554 S
H429 N423 0.985 1_554 S
H430 N427 0.984 . S
H431 N427 0.985 . S
H432 N426 0.984 . S
H433 N426 0.984 . S
H434 N422 0.984 . S
H435 N422 0.985 . S
C436 C437 1.363 . S
C436 C442 1.379 . S
C436 N444 1.356 . S
C437 C436 1.363 . S
C437 C443 1.363 . S
C438 C439 1.363 . S
C438 C443 1.379 . S
C438 N445 1.356 . S
C439 C438 1.363 . S
C439 C442 1.363 . S
N440 C442 1.356 . S
N440 H452 0.984 . S
N440 H453 0.985 . S
N441 C443 1.356 1_554 S
N441 H446 0.984 . S
N441 H447 0.985 . S
C442 C436 1.379 . S
C442 C439 1.363 . S
C442 N440 1.356 . S
C443 C437 1.363 . S
C443 C438 1.379 . S
C443 N441 1.356 1_556 S
N444 C436 1.356 . S
N444 H450 0.984 . S
N444 H451 0.984 . S
N445 C438 1.356 . S
N445 H448 0.984 . S
N445 H449 0.985 1_556 S
H446 N441 0.984 . S
H447 N441 0.985 . S
H448 N445 0.984 . S
H449 N445 0.985 1_554 S
H450 N444 0.984 . S
H451 N444 0.984 . S
H452 N440 0.984 . S
H453 N440 0.985 . S
C454 C455 1.363 1_554 S
C454 C460 1.379 1_554 S
C454 N462 1.356 . S
C455 C454 1.363 1_556 S
C455 C461 1.363 . S
C456 C457 1.363 . S
C456 C461 1.379 . S
C456 N463 1.356 . S
C457 C456 1.363 . S
C457 C460 1.363 . S
N458 C460 1.356 1_554 S
N458 H470 0.984 . S
N458 H471 0.985 1_554 S
N459 C461 1.356 . S
N459 H464 0.984 . S
N459 H465 0.985 . S
C460 C454 1.379 1_556 S
C460 C457 1.363 . S
C460 N458 1.356 1_556 S
C461 C455 1.363 . S
C461 C456 1.379 . S
C461 N459 1.356 . S
N462 C454 1.356 . S
N462 H468 0.984 . S
N462 H469 0.984 . S
N463 C456 1.356 . S
N463 H466 0.984 . S
N463 H467 0.985 . S
H464 N459 0.984 . S
H465 N459 0.985 . S
H466 N463 0.984 . S
H467 N463 0.985 . S
H468 N462 0.984 . S
H469 N462 0.984 . S
H470 N458 0.984 . S
H471 N458 0.985 1_556 S
C472 C473 1.363 1_655 S
C472 C478 1.379 . S
C472 N480 1.356 1_556 S
C473 C472 1.363 1_455 S
C473 C479 1.363 . S
C474 C475 1.363 . S
C474 C479 1.379 . S
C474 N481 1.356 . S
C475 C474 1.363 . S
C475 C478 1.363 1_455 S
N476 C478 1.356 . S
N476 H488 0.984 1_556 S
N476 H489 0.985 . S
N477 C479 1.356 . S
N477 H482 0.984 . S
N477 H483 0.985 . S
C478 C472 1.379 . S
C478 C475 1.363 1_655 S
C478 N476 1.356 . S
C479 C473 1.363 . S
C479 C474 1.379 . S
C479 N477 1.356 . S
N480 C472 1.356 1_554 S
N480 H486 0.984 . S
N480 H487 0.984 . S
N481 C474 1.356 . S
N481 H484 0.984 . S
N481 H485 0.985 . S
H482 N477 0.984 . S
H483 N477 0.985 . S
H484 N481 0.984 . S
H485 N481 0.985 . S
H486 N480 0.984 . S
H487 N480 0.984 . S
H488 N476 0.984 1_554 S
H489 N476 0.985 . S
C490 C491 1.363 1_565 S
C490 C496 1.379 . S
C490 N498 1.356 1_556 S
C491 C490 1.363 1_545 S
C491 C497 1.363 . S
C492 C493 1.363 . S
C492 C497 1.379 . S
C492 N499 1.356 . S
C493 C492 1.363 . S
C493 C496 1.363 1_545 S
N494 C496 1.356 . S
N494 H506 0.984 . S
N494 H507 0.985 . S
N495 C497 1.356 . S
N495 H500 0.984 . S
N495 H501 0.985 . S
C496 C490 1.379 . S
C496 C493 1.363 1_565 S
C496 N494 1.356 . S
C497 C491 1.363 . S
C497 C492 1.379 . S
C497 N495 1.356 . S
N498 C490 1.356 1_554 S
N498 H504 0.984 . S
N498 H505 0.984 . S
N499 C492 1.356 . S
N499 H502 0.984 . S
N499 H503 0.985 . S
H500 N495 0.984 . S
H501 N495 0.985 . S
H502 N499 0.984 . S
H503 N499 0.985 . S
H504 N498 0.984 . S
H505 N498 0.984 . S
H506 N494 0.984 . S
H507 N494 0.985 . S
C508 C509 1.363 1_554 S
C508 C514 1.379 1_554 S
C508 N516 1.356 . S
C509 C508 1.363 1_556 S
C509 C515 1.363 . S
C510 C511 1.363 . S
C510 C515 1.379 . S
C510 N517 1.356 . S
C511 C510 1.363 . S
C511 C514 1.363 . S
N512 C514 1.356 . S
N512 H524 0.984 1_556 S
N512 H525 0.985 . S
N513 C515 1.356 . S
N513 H518 0.984 . S
N513 H519 0.985 . S
C514 C508 1.379 1_556 S
C514 C511 1.363 . S
C514 N512 1.356 . S
C515 C509 1.363 . S
C515 C510 1.379 . S
C515 N513 1.356 . S
N516 C508 1.356 . S
N516 H522 0.984 . S
N516 H523 0.984 . S
N517 C510 1.356 . S
N517 H520 0.984 . S
N517 H521 0.985 . S
H518 N513 0.984 . S
H519 N513 0.985 . S
H520 N517 0.984 . S
H521 N517 0.985 . S
H522 N516 0.984 . S
H523 N516 0.984 . S
H524 N512 0.984 1_554 S
H525 N512 0.985 . S
C526 C527 1.363 . S
C526 C532 1.379 . S
C526 N534 1.356 . S
C527 C526 1.363 . S
C527 C533 1.363 . S
C528 C529 1.363 . S
C528 C533 1.379 . S
C528 N535 1.356 . S
C529 C528 1.363 . S
C529 C532 1.363 . S
N530 C532 1.356 . S
N530 H542 0.984 . S
N530 H543 0.985 . S
N531 C533 1.356 1_554 S
N531 H536 0.984 . S
N531 H537 0.985 . S
C532 C526 1.379 . S
C532 C529 1.363 . S
C532 N530 1.356 . S
C533 C527 1.363 . S
C533 C528 1.379 . S
C533 N531 1.356 1_556 S
N534 C526 1.356 . S
N534 H540 0.984 . S
N534 H541 0.984 . S
N535 C528 1.356 . S
N535 H538 0.984 . S
N535 H539 0.985 . S
H536 N531 0.984 . S
H537 N531 0.985 . S
H538 N535 0.984 . S
H539 N535 0.985 . S
H540 N534 0.984 . S
H541 N534 0.984 . S
H542 N530 0.984 . S
H543 N530 0.985 . S
C544 C545 1.367 . S
C544 C550 1.379 . S
C544 N552 1.353 1_655 S
C545 C544 1.367 . S
C545 C551 1.363 . S
C546 C547 1.363 . S
C546 C551 1.379 . S
C546 N553 1.356 . S
C547 C546 1.363 . S
C547 C550 1.363 . S
N548 C550 1.356 1_455 S
N548 H560 0.984 . S
N548 H561 0.985 . S
N549 C551 1.356 . S
N549 H554 0.984 . S
N549 H555 0.985 . S
C550 C544 1.379 . S
C550 C547 1.363 . S
C550 N548 1.356 1_655 S
C551 C545 1.363 . S
C551 C546 1.379 . S
C551 N549 1.356 . S
N552 C544 1.353 1_455 S
N552 H558 0.984 1_554 S
N552 H559 0.984 . S
N553 C546 1.356 . S
N553 H556 0.984 . S
N553 H557 0.985 . S
H554 N549 0.984 . S
H555 N549 0.985 . S
H556 N553 0.984 . S
H557 N553 0.985 . S
H558 N552 0.984 1_556 S
H559 N552 0.984 . S
H560 N548 0.984 . S
H561 N548 0.985 . S
C562 C563 1.363 1_545 S
C562 C568 1.379 . S
C562 N570 1.356 . S
C563 C562 1.363 1_565 S
C563 C569 1.363 . S
C564 C565 1.363 . S
C564 C569 1.379 . S
C564 N571 1.356 . S
C565 C564 1.363 . S
C565 C568 1.363 1_565 S
N566 C568 1.356 . S
N566 H578 0.984 . S
N566 H579 0.985 . S
N567 C569 1.356 . S
N567 H572 0.984 . S
N567 H573 0.985 1_554 S
C568 C562 1.379 . S
C568 C565 1.363 1_545 S
C568 N566 1.356 . S
C569 C563 1.363 . S
C569 C564 1.379 . S
C569 N567 1.356 . S
N570 C562 1.356 . S
N570 H576 0.984 . S
N570 H577 0.984 . S
N571 C564 1.356 . S
N571 H574 0.984 . S
N571 H575 0.985 . S
H572 N567 0.984 . S
H573 N567 0.985 1_556 S
H574 N571 0.984 . S
H575 N571 0.985 . S
H576 N570 0.984 . S
H577 N570 0.984 . S
H578 N566 0.984 . S
H579 N566 0.985 . S
C580 C581 1.363 . S
C580 C586 1.379 . S
C580 N588 1.356 . S
C581 C580 1.363 . S
C581 C587 1.363 . S
C582 C583 1.363 . S
C582 C587 1.379 . S
C582 N589 1.356 . S
C583 C582 1.363 . S
C583 C586 1.363 . S
N584 C586 1.356 . S
N584 H596 0.984 . S
N584 H597 0.985 . S
N585 C587 1.356 . S
N585 H590 0.984 1_554 S
N585 H591 0.985 1_554 S
C586 C580 1.379 . S
C586 C583 1.363 . S
C586 N584 1.356 . S
C587 C581 1.363 . S
C587 C582 1.379 . S
C587 N585 1.356 . S
N588 C580 1.356 . S
N588 H594 0.984 . S
N588 H595 0.984 . S
N589 C582 1.356 . S
N589 H592 0.984 . S
N589 H593 0.985 . S
H590 N585 0.984 1_556 S
H591 N585 0.985 1_556 S
H592 N589 0.984 . S
H593 N589 0.985 . S
H594 N588 0.984 . S
H595 N588 0.984 . S
H596 N584 0.984 . S
H597 N584 0.985 . S
C598 C599 1.363 . S
C598 C604 1.379 . S
C598 N606 1.356 . S
C599 C598 1.363 . S
C599 C605 1.363 . S
C600 C601 1.363 . S
C600 C605 1.379 . S
C600 N607 1.356 . S
C601 C600 1.363 . S
C601 C604 1.363 . S
N602 C604 1.356 . S
N602 H614 0.984 . S
N602 H615 0.985 . S
N603 C605 1.356 . S
N603 H608 0.984 . S
N603 H609 0.985 . S
C604 C598 1.379 . S
C604 C601 1.363 . S
C604 N602 1.356 . S
C605 C599 1.363 . S
C605 C600 1.379 . S
C605 N603 1.356 . S
N606 C598 1.356 . S
N606 H612 0.984 . S
N606 H613 0.984 . S
N607 C600 1.356 . S
N607 H610 0.984 . S
N607 H611 0.985 . S
H608 N603 0.984 . S
H609 N603 0.985 . S
H610 N607 0.984 . S
H611 N607 0.985 . S
H612 N606 0.984 . S
H613 N606 0.984 . S
H614 N602 0.984 . S
H615 N602 0.985 . S
C185 N80 1.563 . S
C187 C122 1.552 . S
C205 C142 1.552 . S
C203 N93 1.563 . S
C223 C162 1.552 . S
C221 N54 1.563 . S
C241 C182 1.551 1_455 S
C239 N67 1.563 . S
C259 C123 1.552 1_565 S
C257 N28 1.568 . S
C275 N41 1.568 . S
C277 C143 1.552 . S
C293 N2 1.568 . S
C295 C163 1.552 . S
C311 N15 1.568 . S
C313 C183 1.552 1_655 S
C331 C113 0.991 . S
C329 N70 1.047 . S
C349 C133 0.985 1_565 S
C347 N83 1.047 . S
C367 C153 0.988 . S
C365 N96 1.047 . S
C383 N57 1.047 . S
C385 C173 0.988 . S
C401 N18 1.050 . S
C403 C116 0.988 . S
C421 C136 0.988 . S
C419 N31 1.050 . S
C439 C156 0.988 . S
C437 N44 1.049 . S
C455 N5 1.049 . S
C457 C176 0.988 . S
C473 N66 1.584 1_556 S
C475 C106 1.443 . S
C491 N79 1.584 1_556 S
C493 C126 1.443 . S
C511 C146 1.443 . S
C509 N92 1.584 1_556 S
C529 C166 1.443 . S
C527 N53 1.584 1_556 S
C545 N14 1.581 . S
C547 C108 1.443 . S
C565 C128 1.443 . S
C563 N27 1.581 . S
C583 C148 1.443 . S
C581 N40 1.581 . S
C599 N1 1.581 . S
C601 C168 1.443 . S
