# Generated by pormake.
# Topology eea, (3,6)-cn, num edge types: 1
# Building blocks:
#     Node 0, Type 0, BuildingBlock: PAMTOO_clean_linker_0, # of connection points: 3
#     Node 1, Type 0, BuildingBlock: PAMTOO_clean_linker_0, # of connection points: 3
#     Node 2, Type 0, BuildingBlock: PAMTOO_clean_linker_0, # of connection points: 3
#     Node 3, Type 0, BuildingBlock: PAMTOO_clean_linker_0, # of connection points: 3
#     Node 4, Type 0, BuildingBlock: PAMTOO_clean_linker_0, # of connection points: 3
#     Node 5, Type 0, BuildingBlock: PAMTOO_clean_linker_0, # of connection points: 3
#     Node 6, Type 0, BuildingBlock: PAMTOO_clean_linker_0, # of connection points: 3
#     Node 7, Type 0, BuildingBlock: PAMTOO_clean_linker_0, # of connection points: 3
#     Node 8, Type 0, BuildingBlock: PAMTOO_clean_linker_0, # of connection points: 3
#     Node 9, Type 0, BuildingBlock: PAMTOO_clean_linker_0, # of connection points: 3
#     Node 10, Type 0, BuildingBlock: PAMTOO_clean_linker_0, # of connection points: 3
#     Node 11, Type 0, BuildingBlock: PAMTOO_clean_linker_0, # of connection points: 3
#     Node 12, Type 0, BuildingBlock: PAMTOO_clean_linker_0, # of connection points: 3
#     Node 13, Type 0, BuildingBlock: PAMTOO_clean_linker_0, # of connection points: 3
#     Node 14, Type 0, BuildingBlock: PAMTOO_clean_linker_0, # of connection points: 3
#     Node 15, Type 0, BuildingBlock: PAMTOO_clean_linker_0, # of connection points: 3
#     Node 16, Type 0, BuildingBlock: PAMTOO_clean_linker_0, # of connection points: 3
#     Node 17, Type 0, BuildingBlock: PAMTOO_clean_linker_0, # of connection points: 3
#     Node 18, Type 1, BuildingBlock: KUMBOL_clean_sbu_0, # of connection points: 6
#     Node 19, Type 1, BuildingBlock: KUMBOL_clean_sbu_0, # of connection points: 6
#     Node 20, Type 1, BuildingBlock: KUMBOL_clean_sbu_0, # of connection points: 6
#     Node 21, Type 1, BuildingBlock: KUMBOL_clean_sbu_0, # of connection points: 6
#     Node 22, Type 1, BuildingBlock: KUMBOL_clean_sbu_0, # of connection points: 6
#     Node 23, Type 1, BuildingBlock: KUMBOL_clean_sbu_0, # of connection points: 6
#     Node 24, Type 1, BuildingBlock: KUMBOL_clean_sbu_0, # of connection points: 6
#     Node 25, Type 1, BuildingBlock: KUMBOL_clean_sbu_0, # of connection points: 6
#     Node 26, Type 1, BuildingBlock: KUMBOL_clean_sbu_0, # of connection points: 6
#     Edge 27, Type (0, 1), BuildingBlock: AJUNOK_clean_linker_0, # of connection points: 2
#     Edge 28, Type (0, 1), BuildingBlock: AJUNOK_clean_linker_0, # of connection points: 2
#     Edge 29, Type (0, 1), BuildingBlock: AJUNOK_clean_linker_0, # of connection points: 2
#     Edge 30, Type (0, 1), BuildingBlock: AJUNOK_clean_linker_0, # of connection points: 2
#     Edge 31, Type (0, 1), BuildingBlock: AJUNOK_clean_linker_0, # of connection points: 2
#     Edge 32, Type (0, 1), BuildingBlock: AJUNOK_clean_linker_0, # of connection points: 2
#     Edge 33, Type (0, 1), BuildingBlock: AJUNOK_clean_linker_0, # of connection points: 2
#     Edge 34, Type (0, 1), BuildingBlock: AJUNOK_clean_linker_0, # of connection points: 2
#     Edge 35, Type (0, 1), BuildingBlock: AJUNOK_clean_linker_0, # of connection points: 2
#     Edge 36, Type (0, 1), BuildingBlock: AJUNOK_clean_linker_0, # of connection points: 2
#     Edge 37, Type (0, 1), BuildingBlock: AJUNOK_clean_linker_0, # of connection points: 2
#     Edge 38, Type (0, 1), BuildingBlock: AJUNOK_clean_linker_0, # of connection points: 2
#     Edge 39, Type (0, 1), BuildingBlock: AJUNOK_clean_linker_0, # of connection points: 2
#     Edge 40, Type (0, 1), BuildingBlock: AJUNOK_clean_linker_0, # of connection points: 2
#     Edge 41, Type (0, 1), BuildingBlock: AJUNOK_clean_linker_0, # of connection points: 2
#     Edge 42, Type (0, 1), BuildingBlock: AJUNOK_clean_linker_0, # of connection points: 2
#     Edge 43, Type (0, 1), BuildingBlock: AJUNOK_clean_linker_0, # of connection points: 2
#     Edge 44, Type (0, 1), BuildingBlock: AJUNOK_clean_linker_0, # of connection points: 2
#     Edge 45, Type (0, 1), BuildingBlock: AJUNOK_clean_linker_0, # of connection points: 2
#     Edge 46, Type (0, 1), BuildingBlock: AJUNOK_clean_linker_0, # of connection points: 2
#     Edge 47, Type (0, 1), BuildingBlock: AJUNOK_clean_linker_0, # of connection points: 2
#     Edge 48, Type (0, 1), BuildingBlock: AJUNOK_clean_linker_0, # of connection points: 2
#     Edge 49, Type (0, 1), BuildingBlock: AJUNOK_clean_linker_0, # of connection points: 2
#     Edge 50, Type (0, 1), BuildingBlock: AJUNOK_clean_linker_0, # of connection points: 2
#     Edge 51, Type (0, 1), BuildingBlock: AJUNOK_clean_linker_0, # of connection points: 2
#     Edge 52, Type (0, 1), BuildingBlock: AJUNOK_clean_linker_0, # of connection points: 2
#     Edge 53, Type (0, 1), BuildingBlock: AJUNOK_clean_linker_0, # of connection points: 2
#     Edge 54, Type (0, 1), BuildingBlock: AJUNOK_clean_linker_0, # of connection points: 2
#     Edge 55, Type (0, 1), BuildingBlock: AJUNOK_clean_linker_0, # of connection points: 2
#     Edge 56, Type (0, 1), BuildingBlock: AJUNOK_clean_linker_0, # of connection points: 2
#     Edge 57, Type (0, 1), BuildingBlock: AJUNOK_clean_linker_0, # of connection points: 2
#     Edge 58, Type (0, 1), BuildingBlock: AJUNOK_clean_linker_0, # of connection points: 2
#     Edge 59, Type (0, 1), BuildingBlock: AJUNOK_clean_linker_0, # of connection points: 2
#     Edge 60, Type (0, 1), BuildingBlock: AJUNOK_clean_linker_0, # of connection points: 2
#     Edge 61, Type (0, 1), BuildingBlock: AJUNOK_clean_linker_0, # of connection points: 2
#     Edge 62, Type (0, 1), BuildingBlock: AJUNOK_clean_linker_0, # of connection points: 2
#     Edge 63, Type (0, 1), BuildingBlock: AJUNOK_clean_linker_0, # of connection points: 2
#     Edge 64, Type (0, 1), BuildingBlock: AJUNOK_clean_linker_0, # of connection points: 2
#     Edge 65, Type (0, 1), BuildingBlock: AJUNOK_clean_linker_0, # of connection points: 2
#     Edge 66, Type (0, 1), BuildingBlock: AJUNOK_clean_linker_0, # of connection points: 2
#     Edge 67, Type (0, 1), BuildingBlock: AJUNOK_clean_linker_0, # of connection points: 2
#     Edge 68, Type (0, 1), BuildingBlock: AJUNOK_clean_linker_0, # of connection points: 2
#     Edge 69, Type (0, 1), BuildingBlock: AJUNOK_clean_linker_0, # of connection points: 2
#     Edge 70, Type (0, 1), BuildingBlock: AJUNOK_clean_linker_0, # of connection points: 2
#     Edge 71, Type (0, 1), BuildingBlock: AJUNOK_clean_linker_0, # of connection points: 2
#     Edge 72, Type (0, 1), BuildingBlock: AJUNOK_clean_linker_0, # of connection points: 2
#     Edge 73, Type (0, 1), BuildingBlock: AJUNOK_clean_linker_0, # of connection points: 2
#     Edge 74, Type (0, 1), BuildingBlock: AJUNOK_clean_linker_0, # of connection points: 2
#     Edge 75, Type (0, 1), BuildingBlock: AJUNOK_clean_linker_0, # of connection points: 2
#     Edge 76, Type (0, 1), BuildingBlock: AJUNOK_clean_linker_0, # of connection points: 2
#     Edge 77, Type (0, 1), BuildingBlock: AJUNOK_clean_linker_0, # of connection points: 2
#     Edge 78, Type (0, 1), BuildingBlock: AJUNOK_clean_linker_0, # of connection points: 2
#     Edge 79, Type (0, 1), BuildingBlock: AJUNOK_clean_linker_0, # of connection points: 2
#     Edge 80, Type (0, 1), BuildingBlock: AJUNOK_clean_linker_0, # of connection points: 2
# Relax obj value: 0.024
# Max RMSD: 0.185
# Mean RMSD: 0.130
data_MOF--net-eea--node1-KUMBOL_clean_sbu_0--node2-PAMTOO_clean_linker_0--edge1-AJUNOK_clean_linker_0
_symmetry_space_group_name_H-M    P1
_symmetry_Int_Tables_number       1
_symmetry_cell_setting            triclinic
loop_
_symmetry_equiv_pos_as_xyz
'x, y, z'
_cell_length_a     38.94833
_cell_length_b     40.547548
_cell_length_c     51.737124
_cell_angle_alpha  89.646273
_cell_angle_beta   89.684094
_cell_angle_gamma 119.84699
loop_
_atom_site_label
_atom_site_type_symbol
_atom_site_fract_x
_atom_site_fract_y
_atom_site_fract_z
_atom_type_partial_charge
H0 H 0.28014 0.0664 0.43206 0.0
H1 H 0.28909 0.17641 0.4295 0.0
H2 H 0.2424 0.10256 0.36466 0.0
H3 H 0.28507 0.18613 0.35191 0.0
C4 C 0.27905 0.1964 0.37031 0.0
O5 O 0.25317 0.16559 0.3853 0.0
H6 H 0.30771 0.21305 0.38048 0.0
C7 C 0.27693 0.08787 0.42153 0.0
C8 C 0.26057 0.07982 0.39661 0.0
C9 C 0.28917 0.1232 0.43316 0.0
C10 C 0.28104 0.14938 0.42067 0.0
C11 C 0.26318 0.14126 0.39635 0.0
C12 C 0.25425 0.10724 0.384 0.0
H13 H 0.97348 0.20995 0.4356 0.0
H14 H 0.87595 0.0947 0.43579 0.0
H15 H 0.95867 0.13551 0.37231 0.0
H16 H 0.87455 0.07722 0.35514 0.0
C17 C 0.86271 0.06852 0.37514 0.0
O18 O 0.89383 0.07685 0.39156 0.0
H19 H 0.84802 0.08518 0.38029 0.0
C20 C 0.9571 0.18242 0.42651 0.0
C21 C 0.97013 0.17635 0.40248 0.0
C22 C 0.92356 0.15291 0.43906 0.0
C23 C 0.90255 0.11747 0.4269 0.0
C24 C 0.91492 0.11123 0.40289 0.0
C25 C 0.949 0.14052 0.39081 0.0
H26 H 0.82492 0.76366 0.43849 0.0
H27 H 0.94144 0.77711 0.43361 0.0
H28 H 0.89858 0.81754 0.37139 0.0
H29 H 0.96306 0.7961 0.35214 0.0
C30 C 0.96914 0.79088 0.37225 0.0
O31 O 0.96013 0.81229 0.38896 0.0
H32 H 0.94954 0.76 0.37645 0.0
C33 C 0.85256 0.7736 0.42797 0.0
C34 C 0.85739 0.79066 0.4034 0.0
C35 C 0.88248 0.76847 0.43901 0.0
C36 C 0.91813 0.7809 0.42531 0.0
C37 C 0.92433 0.79881 0.40105 0.0
C38 C 0.89393 0.80388 0.39015 0.0
H39 H 0.07085 0.25074 0.6039 0.0
H40 H 0.16737 0.2276 0.60552 0.0
H41 H 0.08339 0.18987 0.66845 0.0
H42 H 0.16392 0.19695 0.68752 0.0
C43 C 0.17694 0.20993 0.66841 0.0
O44 O 0.14825 0.1917 0.64971 0.0
H45 H 0.18512 0.24035 0.6698 0.0
C46 C 0.0865 0.23834 0.61345 0.0
C47 C 0.07278 0.22036 0.63777 0.0
C48 C 0.12041 0.24107 0.60147 0.0
C49 C 0.14115 0.22576 0.61433 0.0
C50 C 0.12805 0.20729 0.63834 0.0
C51 C 0.09349 0.20414 0.6499 0.0
H52 H 0.75823 0.81025 0.6078 0.0
H53 H 0.77724 0.92447 0.60989 0.0
H54 H 0.82498 0.88553 0.66931 0.0
H55 H 0.79653 0.93893 0.69038 0.0
C56 C 0.79305 0.94866 0.67094 0.0
O57 O 0.81531 0.94185 0.65316 0.0
H58 H 0.76103 0.93237 0.666 0.0
C59 C 0.77127 0.83804 0.61658 0.0
C60 C 0.79359 0.84481 0.63922 0.0
C61 C 0.76549 0.86665 0.60544 0.0
C62 C 0.7809 0.90175 0.61804 0.0
C63 C 0.80132 0.90807 0.64126 0.0
C64 C 0.80797 0.87982 0.65175 0.0
H65 H 0.20562 0.95892 0.60074 0.0
H66 H 0.09437 0.85395 0.60428 0.0
H67 H 0.12596 0.93518 0.66524 0.0
H68 H 0.07123 0.85742 0.68665 0.0
C69 C 0.06669 0.84308 0.66773 0.0
O70 O 0.07118 0.86845 0.64817 0.0
H71 H 0.08962 0.83442 0.66582 0.0
C72 C 0.17772 0.94044 0.61049 0.0
C73 C 0.16934 0.95153 0.63432 0.0
C74 C 0.15119 0.90524 0.59951 0.0
C75 C 0.11549 0.88094 0.61261 0.0
C76 C 0.10641 0.89164 0.63628 0.0
C77 C 0.13332 0.92693 0.64708 0.0
H78 H 0.93431 0.3858 0.77151 0.0
H79 H 0.93955 0.49426 0.77402 0.0
H80 H 0.88707 0.42149 0.70912 0.0
H81 H 0.92531 0.50224 0.69557 0.0
C82 C 0.92447 0.51394 0.7148 0.0
O83 O 0.9004 0.48456 0.73142 0.0
H84 H 0.95519 0.52931 0.72238 0.0
C85 C 0.92894 0.40704 0.76257 0.0
C86 C 0.91029 0.39954 0.7384 0.0
C87 C 0.94101 0.44158 0.77527 0.0
C88 C 0.93107 0.46758 0.76451 0.0
C89 C 0.91086 0.4598 0.74104 0.0
C90 C 0.90113 0.42622 0.72778 0.0
H91 H 0.64313 0.54423 0.77049 0.0
H92 H 0.54209 0.43127 0.77107 0.0
H93 H 0.62089 0.4708 0.70534 0.0
H94 H 0.53193 0.42213 0.69319 0.0
C95 C 0.52242 0.40653 0.71198 0.0
O96 O 0.55577 0.41316 0.72553 0.0
H97 H 0.50562 0.41767 0.72281 0.0
C98 C 0.62513 0.51718 0.76111 0.0
C99 C 0.63616 0.51127 0.73635 0.0
C100 C 0.59103 0.4888 0.77377 0.0
C101 C 0.56874 0.45342 0.7618 0.0
C102 C 0.57924 0.44689 0.73718 0.0
C103 C 0.61314 0.47575 0.72451 0.0
H104 H 0.49034 0.10329 0.76905 0.0
H105 H 0.60617 0.11421 0.76721 0.0
H106 H 0.56982 0.16068 0.70514 0.0
H107 H 0.636 0.1459 0.68595 0.0
C108 C 0.63793 0.13444 0.70512 0.0
O109 O 0.62919 0.15327 0.72415 0.0
H110 H 0.61522 0.1037 0.70515 0.0
C111 C 0.51864 0.11298 0.75947 0.0
C112 C 0.52586 0.13193 0.73544 0.0
C113 C 0.54721 0.10654 0.77142 0.0
C114 C 0.58401 0.11963 0.75884 0.0
C115 C 0.59255 0.13946 0.73515 0.0
C116 C 0.56345 0.14581 0.72355 0.0
H117 H 0.74339 0.58358 0.93989 0.0
H118 H 0.84019 0.56087 0.94169 0.0
H119 H 0.75642 0.5236 1.0048 0.0
H120 H 0.83881 0.53317 0.02368 0.0
C121 C 0.85134 0.54455 1.00417 0.0
O122 O 0.82171 0.52563 0.98608 0.0
H123 H 0.8604 0.57526 1.00447 0.0
C124 C 0.7591 0.57128 0.94948 0.0
C125 C 0.7454 0.55347 0.97385 0.0
C126 C 0.79305 0.57407 0.93753 0.0
C127 C 0.81397 0.55903 0.9505 0.0
C128 C 0.80114 0.5409 0.97465 0.0
C129 C 0.76643 0.53765 0.98618 0.0
H130 H 0.43472 0.14805 0.93528 0.0
H131 H 0.44476 0.25863 0.93662 0.0
H132 H 0.47461 0.21711 1.00375 0.0
H133 H 0.43603 0.26469 0.01468 0.0
C134 C 0.44433 0.28065 0.996 0.0
O135 O 0.47177 0.27439 0.98333 0.0
H136 H 0.41701 0.27022 0.9843 0.0
C137 C 0.44254 0.17413 0.94534 0.0
C138 C 0.45786 0.17953 0.97063 0.0
C139 C 0.43657 0.202 0.9331 0.0
C140 C 0.44783 0.23623 0.94594 0.0
C141 C 0.46168 0.24145 0.97121 0.0
C142 C 0.46554 0.21287 0.98376 0.0
H143 H 0.8824 0.28685 0.93825 0.0
H144 H 0.77017 0.18318 0.9408 0.0
H145 H 0.80586 0.25942 1.00509 0.0
H146 H 0.74922 0.17539 0.02226 0.0
C147 C 0.742 0.16496 1.00211 0.0
O148 O 0.74868 0.19507 0.98597 0.0
H149 H 0.76184 0.15369 0.99649 0.0
C150 C 0.85522 0.26778 0.94852 0.0
C151 C 0.84833 0.27738 0.97341 0.0
C152 C 0.82774 0.23362 0.93677 0.0
C153 C 0.79208 0.20926 0.94978 0.0
C154 C 0.78408 0.21847 0.97431 0.0
C155 C 0.81216 0.25255 0.98609 0.0
H156 H 0.59938 0.72286 0.10877 0.0
H157 H 0.59892 0.82887 0.10686 0.0
H158 H 0.54337 0.74816 0.04623 0.0
H159 H 0.5806 0.82992 0.02794 0.0
C160 C 0.58192 0.84274 0.04711 0.0
O161 O 0.55836 0.81438 0.06457 0.0
H162 H 0.6133 0.85736 0.05352 0.0
C163 C 0.59095 0.74183 0.09956 0.0
C164 C 0.57011 0.73108 0.07618 0.0
C165 C 0.60127 0.77682 0.11111 0.0
C166 C 0.59056 0.80133 0.09879 0.0
C167 C 0.56968 0.79097 0.07554 0.0
C168 C 0.55966 0.75601 0.06416 0.0
H169 H 0.30237 0.87761 0.10225 0.0
H170 H 0.21022 0.76032 0.10014 0.0
H171 H 0.29119 0.80852 0.03619 0.0
H172 H 0.20024 0.74861 0.02094 0.0
C173 C 0.19249 0.73754 0.04109 0.0
O174 O 0.22703 0.74718 0.05439 0.0
H175 H 0.17661 0.75109 0.05013 0.0
C176 C 0.28747 0.85061 0.09238 0.0
C177 C 0.30168 0.84697 0.06797 0.0
C178 C 0.25384 0.81988 0.10396 0.0
C179 C 0.23535 0.78477 0.0913 0.0
C180 C 0.24789 0.78085 0.06673 0.0
C181 C 0.28137 0.81178 0.05515 0.0
H182 H 0.1548 0.41987 0.10616 0.0
H183 H 0.26999 0.42931 0.10385 0.0
H184 H 0.2365 0.48183 0.04425 0.0
H185 H 0.30122 0.46786 0.02429 0.0
C186 C 0.30565 0.45713 0.04307 0.0
O187 O 0.2952 0.47342 0.06295 0.0
H188 H 0.28565 0.42572 0.04327 0.0
C189 C 0.18295 0.42922 0.09652 0.0
C190 C 0.19114 0.45039 0.07333 0.0
C191 C 0.21055 0.42054 0.10764 0.0
C192 C 0.24809 0.4353 0.09571 0.0
C193 C 0.25783 0.45781 0.07313 0.0
C194 C 0.22919 0.46513 0.06192 0.0
H195 H 0.41448 0.92962 0.27271 0.0
H196 H 0.51217 0.9083 0.27652 0.0
H197 H 0.42807 0.87209 0.33903 0.0
H198 H 0.51547 0.89291 0.35794 0.0
C199 C 0.52619 0.89778 0.33758 0.0
O200 O 0.4944 0.87585 0.32159 0.0
H201 H 0.53829 0.92857 0.33318 0.0
C202 C 0.43057 0.91823 0.28292 0.0
C203 C 0.41607 0.89976 0.30705 0.0
C204 C 0.46562 0.92226 0.27182 0.0
C205 C 0.48598 0.90686 0.28502 0.0
C206 C 0.47313 0.88953 0.30932 0.0
C207 C 0.438 0.88572 0.32028 0.0
H208 H 0.095 0.47991 0.27281 0.0
H209 H 0.11362 0.59388 0.27319 0.0
H210 H 0.15199 0.55379 0.33735 0.0
H211 H 0.11723 0.60468 0.35278 0.0
C212 C 0.1203 0.6175 0.33325 0.0
O213 O 0.14575 0.61083 0.31837 0.0
H214 H 0.0903 0.60386 0.32448 0.0
C215 C 0.10579 0.507 0.2823 0.0
C216 C 0.12449 0.51318 0.3065 0.0
C217 C 0.10067 0.53553 0.27034 0.0
C218 C 0.11598 0.57099 0.28235 0.0
C219 C 0.13366 0.57721 0.30656 0.0
C220 C 0.13817 0.54854 0.31856 0.0
H221 H 0.54966 0.62269 0.27326 0.0
H222 H 0.43747 0.51932 0.27207 0.0
H223 H 0.46977 0.5895 0.33899 0.0
H224 H 0.41149 0.50922 0.35272 0.0
C225 C 0.4033 0.49922 0.33256 0.0
O226 O 0.41274 0.53011 0.31659 0.0
H227 H 0.42064 0.48544 0.32663 0.0
C228 C 0.52203 0.60323 0.28288 0.0
C229 C 0.51362 0.61154 0.3078 0.0
C230 C 0.4953 0.56972 0.27012 0.0
C231 C 0.45881 0.54478 0.28195 0.0
C232 C 0.44938 0.55273 0.3064 0.0
C233 C 0.47712 0.58526 0.31958 0.0
Gd234 Gd 0.52697 0.02975 0.05431 0.0
Gd235 Gd 0.50019 0.99158 0.98812 0.0
C236 C 0.38365 0.8826 0.97295 0.0
C237 C 0.40623 0.83887 0.96026 0.0
C238 C 0.45383 0.90431 0.97085 0.0
C239 C 0.42335 0.91148 0.97599 0.0
C240 C 0.4457 0.86822 0.96226 0.0
C241 C 0.37524 0.84602 0.96567 0.0
C242 C 0.35367 0.89165 0.97654 0.0
C243 C 0.36375 0.92907 0.98195 0.0
N244 N 0.43258 0.94728 0.98258 0.0
C245 C 0.40359 0.95679 0.98451 0.0
H246 H 0.41085 0.9855 0.98884 0.0
C247 C 0.52265 0.92891 0.96513 0.0
N248 N 0.49159 0.93334 0.97293 0.0
C249 C 0.5161 0.89358 0.95662 0.0
C250 C 0.47747 0.86299 0.9554 0.0
H251 H 0.55259 0.95241 0.96607 0.0
H252 H 0.34492 0.82336 0.96348 0.0
H253 H 0.61473 0.03303 0.05686 0.0
H254 H 0.3228 0.87024 0.97452 0.0
H255 H 0.34085 0.93657 0.98427 0.0
H256 H 0.39936 0.8108 0.954 0.0
H257 H 0.47568 0.07004 0.07605 0.0
H258 H 0.7043 0.14683 0.07357 0.0
H259 H 0.68474 0.08006 0.06414 0.0
H260 H 0.62997 0.2095 0.09069 0.0
H261 H 0.54083 0.88998 0.95101 0.0
H262 H 0.47247 0.83568 0.94874 0.0
H263 H 0.68363 0.19526 0.08286 0.0
H264 H 0.48826 0.13243 0.09188 0.0
N265 N 0.5946 0.0728 0.06123 0.0
C266 C 0.67344 0.12628 0.07034 0.0
C267 C 0.6625 0.0886 0.0651 0.0
C268 C 0.64422 0.13662 0.07232 0.0
C269 C 0.6045 0.10878 0.06782 0.0
C270 C 0.62268 0.06198 0.06094 0.0
N271 N 0.53657 0.08842 0.06942 0.0
C272 C 0.57447 0.11688 0.07205 0.0
C273 C 0.51278 0.12851 0.08624 0.0
C274 C 0.55162 0.15863 0.08789 0.0
C275 C 0.50576 0.09323 0.07728 0.0
C276 C 0.5831 0.1529 0.08113 0.0
H277 H 0.55699 0.18588 0.09496 0.0
O278 O 0.49232 0.01027 0.08995 0.0
O279 O 0.48149 0.98458 0.02949 0.0
O280 O 0.47901 0.03343 0.99743 0.0
O281 O 0.51952 0.07244 0.03017 0.0
O282 O 0.461 0.00682 0.05718 0.0
O283 O 0.5461 0.00769 0.08631 0.0
O284 O 0.53468 0.01309 0.9526 0.0
O285 O 0.54599 0.03653 0.01302 0.0
O286 O 0.54718 0.98677 0.04496 0.0
O287 O 0.5059 0.94827 1.01224 0.0
O288 O 0.56628 0.01451 0.98483 0.0
O289 O 0.47841 0.011 0.95602 0.0
C290 C 0.45029 0.98166 0.03934 0.0
C291 C 0.62271 0.18146 0.08412 0.0
C292 C 0.65325 0.17335 0.07967 0.0
C293 C 0.51736 1.00306 0.10169 0.0
C294 C 0.52846 0.01844 0.12807 0.0
C295 C 0.55271 0.05767 0.13148 0.0
C296 C 0.51414 0.9943 0.15003 0.0
C297 C 0.52416 0.00954 0.17518 0.0
C298 C 0.56189 0.07294 0.15617 0.0
C299 C 0.54751 0.04921 0.17785 0.0
C300 C 0.49473 0.06542 1.01081 0.0
C301 C 0.57703 0.03918 1.00299 0.0
C302 C 0.50825 0.01825 0.94082 0.0
C303 C 0.49895 1.00374 0.91411 0.0
C304 C 0.47892 0.96448 0.90984 0.0
C305 C 0.51128 0.029 0.89268 0.0
C306 C 0.50401 0.01492 0.86711 0.0
C307 C 0.47181 0.95039 0.88478 0.0
C308 C 0.48436 0.97526 0.86362 0.0
C309 C 0.53064 0.95475 0.03148 0.0
H310 H 0.56433 0.07659 0.11507 0.0
H311 H 0.49566 0.96389 0.14755 0.0
H312 H 0.58013 0.10337 0.15852 0.0
H313 H 0.55451 0.06202 0.19679 0.0
H314 H 0.46896 0.94465 0.92586 0.0
H315 H 0.52602 0.05935 0.89597 0.0
H316 H 0.45661 0.91999 0.88174 0.0
H317 H 0.47882 0.96334 0.8444 0.0
Gd318 Gd 1.00406 0.4931 0.05347 0.0
Gd319 Gd 0.04755 0.50413 0.98873 0.0
C320 C 0.16607 0.5087 0.97616 0.0
C321 C 0.20731 0.57261 0.9589 0.0
C322 C 0.13855 0.55022 0.9705 0.0
C323 C 0.13412 0.51568 0.97833 0.0
C324 C 0.17478 0.5786 0.95982 0.0
C325 C 0.20302 0.53777 0.96719 0.0
C326 C 0.15941 0.4722 0.98188 0.0
C327 C 0.12119 0.4433 0.98813 0.0
N328 N 0.09766 0.48784 0.98599 0.0
C329 C 0.09035 0.45152 0.98956 0.0
H330 H 0.06096 0.42901 0.99441 0.0
C331 C 0.10792 0.5866 0.96088 0.0
N332 N 0.10641 0.55491 0.97147 0.0
C333 C 0.14325 0.61562 0.9502 0.0
C334 C 0.17691 0.61171 0.94978 0.0
H335 H 0.08198 0.58974 0.96099 0.0
H336 H 0.22802 0.53309 0.96566 0.0
H337 H 1.0008 0.57456 0.05347 0.0
H338 H 0.1832 0.46572 0.98058 0.0
H339 H 0.11542 0.41469 0.99186 0.0
H340 H 0.23559 0.59432 0.95116 0.0
H341 H 0.959 0.40241 0.07384 0.0
H342 H 0.88181 0.54782 0.06892 0.0
H343 H 0.95179 0.59523 0.05963 0.0
H344 H 0.8137 0.41322 0.08398 0.0
H345 H 0.14446 0.64092 0.94222 0.0
H346 H 0.20419 0.63417 0.94139 0.0
H347 H 0.83025 0.47968 0.07723 0.0
H348 H 0.89184 0.35177 0.08661 0.0
N349 N 0.95923 0.51571 0.05875 0.0
C350 C 0.90328 0.53851 0.06627 0.0
C351 C 0.94275 0.56536 0.06109 0.0
C352 C 0.89211 0.50004 0.06842 0.0
C353 C 0.92121 0.48942 0.06472 0.0
C354 C 0.97053 0.55344 0.05758 0.0
N355 N 0.94138 0.44358 0.0668 0.0
C356 C 0.91187 0.45207 0.06854 0.0
C357 C 0.89702 0.3798 0.08145 0.0
C358 C 0.86587 0.38753 0.08201 0.0
C359 C 0.93499 0.40852 0.07429 0.0
C360 C 0.87323 0.42424 0.07609 0.0
H361 H 0.83656 0.36533 0.08782 0.0
O362 O 0.02019 0.47786 0.0899 0.0
O363 O 0.0547 0.49587 0.03082 0.0
O364 O 1.00481 0.44194 0.99951 0.0
O365 O 0.96057 0.44439 0.02859 0.0
O366 O 0.02807 0.45293 0.05807 0.0
O367 O 0.02281 0.53219 0.08584 0.0
O368 O 0.0254 0.51036 0.95165 0.0
O369 O 0.99866 0.50251 1.01202 0.0
O370 O 0.04933 0.55592 0.04409 0.0
O371 O 0.08983 0.5567 1.01031 0.0
O372 O 1.01903 0.5408 0.98198 0.0
O373 O 0.03186 0.46121 0.95911 0.0
C374 C 0.0569 0.46879 0.04166 0.0
C375 C 0.84366 0.43427 0.07846 0.0
C376 C 0.8531 0.47213 0.07467 0.0
C377 C 0.02601 0.50858 0.10155 0.0
C378 C 1.00714 0.50263 0.12723 0.0
C379 C 0.96602 0.48673 0.12947 0.0
C380 C 0.03001 0.51129 0.14975 0.0
C381 C 1.01174 0.50386 0.17437 0.0
C382 C 0.94768 0.47853 0.15369 0.0
C383 C 0.97025 0.48664 0.176 0.0
C384 C 0.9696 0.42613 1.01111 0.0
C385 C 0.99335 0.52716 1.00051 0.0
C386 C 0.0238 0.48006 0.94199 0.0
C387 C 0.04192 0.48493 0.91618 0.0
C388 C 0.08304 0.50146 0.91339 0.0
C389 C 1.01819 0.47447 0.89402 0.0
C390 C 0.03558 0.48113 0.86916 0.0
C391 C 0.10054 0.50909 0.88892 0.0
C392 C 0.07711 0.49952 0.86693 0.0
C393 C 0.08217 0.57344 0.02958 0.0
H394 H 0.948 0.48028 0.11256 0.0
H395 H 0.06188 0.52396 0.14811 0.0
H396 H 0.91582 0.46565 0.15516 0.0
H397 H 0.95515 0.47923 0.19456 0.0
H398 H 0.10167 0.50876 0.93004 0.0
H399 H 0.98631 0.46101 0.89617 0.0
H400 H 0.13242 0.52266 0.88699 0.0
H401 H 0.0916 0.50671 0.84818 0.0
Gd402 Gd 0.52007 0.52461 0.98943 0.0
Gd403 Gd 0.54766 0.51194 0.05535 0.0
C404 C 0.67217 0.52864 0.06427 0.0
C405 C 0.65814 0.46541 0.07726 0.0
C406 C 0.60432 0.47832 0.06987 0.0
C407 C 0.63116 0.51542 0.06326 0.0
C408 C 0.61749 0.45325 0.07798 0.0
C409 C 0.68548 0.50309 0.07037 0.0
C410 C 0.69851 0.56741 0.06024 0.0
C411 C 0.6837 0.59211 0.05656 0.0
N412 N 0.61716 0.53934 0.05792 0.0
C413 C 0.64275 0.57761 0.05573 0.0
H414 H 0.63199 0.59715 0.05254 0.0
C415 C 0.53875 0.43451 0.08262 0.0
N416 N 0.56549 0.46792 0.0709 0.0
C417 C 0.55015 0.40839 0.09065 0.0
C418 C 0.5896 0.41747 0.08781 0.0
H419 H 0.50827 0.42759 0.08494 0.0
H420 H 0.71685 0.51256 0.07084 0.0
H421 H 0.43174 0.44341 0.98887 0.0
H422 H 0.73023 0.5787 0.0608 0.0
H423 H 0.70379 0.62231 0.05407 0.0
H424 H 0.66883 0.44641 0.08303 0.0
H425 H 0.57053 0.61353 0.96628 0.0
H426 H 0.34191 0.47143 0.97236 0.0
H427 H 0.36169 0.42357 0.98246 0.0
H428 H 0.41555 0.60492 0.95338 0.0
H429 H 0.52856 0.38137 0.0991 0.0
H430 H 0.59848 0.39737 0.09427 0.0
H431 H 0.36226 0.53937 0.96203 0.0
H432 H 0.55729 0.66392 0.95079 0.0
N433 N 0.45207 0.50245 0.98325 0.0
C434 C 0.37288 0.48042 0.97515 0.0
C435 C 0.38394 0.45332 0.98079 0.0
C436 C 0.40207 0.51861 0.97231 0.0
C437 C 0.44196 0.52881 0.97627 0.0
C438 C 0.42389 0.46481 0.98445 0.0
N439 N 0.50987 0.57359 0.97362 0.0
C440 C 0.47183 0.56558 0.9713 0.0
C441 C 0.53298 0.63646 0.95664 0.0
C442 C 0.49406 0.62936 0.95555 0.0
C443 C 0.54038 0.60788 0.96534 0.0
C444 C 0.46283 0.59334 0.96244 0.0
H445 H 0.48838 0.65147 0.94867 0.0
O446 O 0.55357 0.53908 0.95325 0.0
O447 O 0.56561 0.52089 0.01366 0.0
O448 O 0.56256 0.57299 0.04763 0.0
O449 O 0.52568 0.57403 1.01249 0.0
O450 O 0.58614 0.56438 0.9868 0.0
O451 O 0.50052 0.48442 0.95791 0.0
O452 O 0.51647 0.49639 0.09231 0.0
O453 O 0.50149 0.51323 0.03085 0.0
O454 O 0.49907 0.46228 0.99814 0.0
O455 O 0.53238 0.45787 0.03444 0.0
O456 O 0.48148 0.47257 0.05986 0.0
O457 O 0.56671 0.55274 0.08653 0.0
C458 C 0.59685 0.54786 1.00367 0.0
C459 C 0.42309 0.58389 0.95989 0.0
C460 C 0.39275 0.54656 0.96481 0.0
C461 C 0.52848 0.50754 0.94208 0.0
C462 C 0.51617 0.51118 0.91582 0.0
C463 C 0.48454 0.51796 0.91225 0.0
C464 C 0.53621 0.50798 0.89408 0.0
C465 C 0.52489 0.51193 0.86891 0.0
C466 C 0.47302 0.52158 0.88741 0.0
C467 C 0.49293 0.51852 0.86587 0.0
C468 C 0.54691 0.58935 0.03339 0.0
C469 C 0.47043 0.48694 0.04161 0.0
C470 C 0.54034 0.52886 0.10288 0.0
C471 C 0.55441 0.52719 0.12887 0.0
C472 C 0.58365 0.51707 0.1324 0.0
C473 C 0.53808 0.53547 0.15046 0.0
C474 C 0.55071 0.53343 0.17557 0.0
C475 C 0.59611 0.51477 0.15725 0.0
C476 C 0.57969 0.52275 0.17873 0.0
C477 C 0.50986 0.44314 0.01388 0.0
H478 H 0.46855 0.5202 0.92861 0.0
H479 H 0.56072 0.50279 0.89673 0.0
H480 H 0.44842 0.52659 0.88484 0.0
H481 H 0.48296 0.5208 0.84678 0.0
H482 H 0.5968 0.51095 0.11602 0.0
H483 H 0.51526 0.54304 0.14774 0.0
H484 H 0.61862 0.50685 0.15987 0.0
H485 H 0.59002 0.52106 0.19783 0.0
Gd486 Gd 0.19035 0.35733 0.38524 0.0
Gd487 Gd 0.16553 0.32833 0.31769 0.0
C488 C 0.04418 0.29612 0.28491 0.0
C489 C 1.00464 0.22986 0.29813 0.0
C490 C 0.07473 0.26573 0.30836 0.0
C491 C 0.07739 0.29781 0.29699 0.0
C492 C 0.03846 0.23112 0.3086 0.0
C493 C 1.00752 0.26229 0.28622 0.0
C494 C 0.0492 0.32797 0.27101 0.0
C495 C 0.08692 0.35986 0.26859 0.0
N496 N 0.11317 0.32999 0.29615 0.0
C497 C 0.1189 0.3601 0.28092 0.0
H498 H 0.14805 0.38492 0.27919 0.0
C499 C 0.10765 0.23592 0.327 0.0
N500 N 0.10804 0.26792 0.31811 0.0
C501 C 0.07243 0.20093 0.32758 0.0
C502 C 0.03752 0.19863 0.31875 0.0
H503 H 0.13411 0.23715 0.33427 0.0
H504 H 0.98152 0.26059 0.27742 0.0
H505 H 0.27944 0.3635 0.38419 0.0
H506 H 0.02444 0.3278 0.26143 0.0
H507 H 0.09134 0.38428 0.25734 0.0
H508 H 0.97641 0.20367 0.29845 0.0
H509 H 0.13811 0.39469 0.41045 0.0
H510 H 0.36736 0.47754 0.40186 0.0
H511 H 0.34925 0.41163 0.39074 0.0
H512 H 0.29079 0.53694 0.42234 0.0
H513 H 0.07217 0.17585 0.33512 0.0
H514 H 1.01024 0.17154 0.31937 0.0
H515 H 0.34531 0.52447 0.41291 0.0
H516 H 0.14954 0.45667 0.42654 0.0
N517 N 0.25783 0.40168 0.3911 0.0
C518 C 0.33655 0.45646 0.39906 0.0
C519 C 0.32644 0.41928 0.39286 0.0
C520 C 0.30667 0.46572 0.40229 0.0
C521 C 0.26704 0.43721 0.39837 0.0
C522 C 0.2867 0.39203 0.3891 0.0
N523 N 0.19885 0.4151 0.40158 0.0
C524 C 0.23653 0.44423 0.40365 0.0
C525 C 0.17425 0.45365 0.41996 0.0
C526 C 0.21271 0.48464 0.42062 0.0
C527 C 0.16789 0.41864 0.41091 0.0
C528 C 0.24454 0.47994 0.413 0.0
H529 H 0.21762 0.51164 0.42788 0.0
O530 O 0.15434 0.33303 0.42011 0.0
O531 O 0.14728 0.31183 0.35894 0.0
O532 O 0.13929 0.36474 0.32995 0.0
O533 O 0.17994 0.40072 0.36367 0.0
O534 O 0.12463 0.33337 0.38623 0.0
O535 O 0.21188 0.33826 0.41757 0.0
O536 O 0.17781 0.29461 0.29073 0.0
O537 O 0.21416 0.36186 0.34541 0.0
O538 O 0.21144 0.31567 0.37603 0.0
O539 O 0.19488 0.29637 0.33331 0.0
O540 O 0.21373 0.3893 0.31165 0.0
O541 O 0.19305 0.35182 0.28012 0.0
C542 C 0.11551 0.3083 0.36851 0.0
C543 C 0.284 0.50917 0.41547 0.0
C544 C 0.31503 0.50206 0.41013 0.0
C545 C 0.1812 0.32914 0.43229 0.0
C546 C 0.18925 0.34312 0.45914 0.0
C547 C 0.21325 0.38208 0.46379 0.0
C548 C 0.1731 0.31761 0.48033 0.0
C549 C 0.18092 0.33114 0.50599 0.0
C550 C 0.22087 0.39562 0.489 0.0
C551 C 0.20488 0.37048 0.50992 0.0
C552 C 0.15437 0.39489 0.34502 0.0
C553 C 0.23271 0.39258 0.33263 0.0
C554 C 0.19048 0.32027 0.27236 0.0
C555 C 0.17617 0.3075 0.24563 0.0
C556 C 0.15709 0.26852 0.23995 0.0
C557 C 0.18413 0.33394 0.22516 0.0
C558 C 0.17306 0.32135 0.19946 0.0
C559 C 0.14673 0.25607 0.21468 0.0
C560 C 0.15503 0.28211 0.19461 0.0
C561 C 0.21025 0.29519 0.35583 0.0
H562 H 0.22627 0.40206 0.44794 0.0
H563 H 0.15512 0.28741 0.47681 0.0
H564 H 0.23932 0.42579 0.49235 0.0
H565 H 0.2111 0.3819 0.52929 0.0
H566 H 0.15087 0.2475 0.25497 0.0
H567 H 0.19897 0.36409 0.22919 0.0
H568 H 0.13271 0.22601 0.21055 0.0
H569 H 0.1478 0.27138 0.17512 0.0
Gd570 Gd 0.66577 0.82811 0.39041 0.0
Gd571 Gd 0.70923 0.83896 0.32545 0.0
C572 C 0.82417 0.83645 0.31321 0.0
C573 C 0.87009 0.90174 0.30025 0.0
C574 C 0.80115 0.8818 0.30945 0.0
C575 C 0.79372 0.84556 0.31536 0.0
C576 C 0.83913 0.91005 0.3011 0.0
C577 C 0.86263 0.865 0.30634 0.0
C578 C 0.81473 0.79868 0.31712 0.0
C579 C 0.77546 0.77087 0.32192 0.0
N580 N 0.75608 0.81858 0.3215 0.0
C581 C 0.74626 0.78129 0.32368 0.0
H582 H 0.71612 0.75951 0.3276 0.0
C583 C 0.77494 0.92228 0.30098 0.0
N584 N 0.77043 0.88864 0.31016 0.0
C585 C 0.8121 0.95127 0.29263 0.0
C586 C 0.84449 0.94534 0.29304 0.0
H587 H 0.7501 0.92715 0.30078 0.0
H588 H 0.88651 0.85866 0.30488 0.0
H589 H 0.65836 0.90695 0.38944 0.0
H590 H 0.83728 0.79053 0.31575 0.0
H591 H 0.76767 0.74143 0.32444 0.0
H592 H 0.89961 0.92318 0.29417 0.0
H593 H 0.6259 0.73937 0.41387 0.0
H594 H 0.53843 0.87634 0.4061 0.0
H595 H 0.6075 0.9254 0.3959 0.0
H596 H 0.4772 0.74352 0.42653 0.0
H597 H 0.81576 0.9782 0.28595 0.0
H598 H 0.87321 0.9678 0.28648 0.0
H599 H 0.48969 0.80809 0.41681 0.0
H600 H 0.56131 0.68842 0.43026 0.0
N601 N 0.61862 0.84793 0.39532 0.0
C602 C 0.5607 0.86807 0.40329 0.0
C603 C 0.59966 0.89585 0.39763 0.0
C604 C 0.55129 0.83016 0.40623 0.0
C605 C 0.5814 0.82094 0.40233 0.0
C606 C 0.62847 0.88527 0.394 0.0
N607 N 0.60507 0.77794 0.40599 0.0
C608 C 0.57442 0.78476 0.40795 0.0
C609 C 0.56454 0.71533 0.42395 0.0
C610 C 0.53227 0.72139 0.42509 0.0
C611 C 0.60108 0.74425 0.41466 0.0
C612 C 0.53708 0.75661 0.41739 0.0
H613 H 0.50405 0.69901 0.43243 0.0
O614 O 0.68416 0.81681 0.42742 0.0
O615 O 0.71495 0.82971 0.36715 0.0
O616 O 0.6654 0.77687 0.33569 0.0
O617 O 0.62253 0.77772 0.36688 0.0
O618 O 0.69157 0.78927 0.39596 0.0
O619 O 0.68525 0.87011 0.4209 0.0
O620 O 0.68987 0.84977 0.2887 0.0
O621 O 0.66032 0.8381 0.34868 0.0
O622 O 0.71055 0.89047 0.38037 0.0
O623 O 0.75269 0.88854 0.34904 0.0
O624 O 0.68449 0.87872 0.3198 0.0
O625 O 0.69067 0.79729 0.29472 0.0
C626 C 0.71843 0.80363 0.37817 0.0
C627 C 0.50625 0.76493 0.41966 0.0
C628 C 0.51334 0.80167 0.41409 0.0
C629 C 0.68942 0.84824 0.43767 0.0
C630 C 0.6712 0.84434 0.46335 0.0
C631 C 0.63125 0.8341 0.46586 0.0
C632 C 0.69365 0.84963 0.48566 0.0
C633 C 0.67606 0.84365 0.51042 0.0
C634 C 0.61366 0.82837 0.49024 0.0
C635 C 0.63576 0.83287 0.51239 0.0
C636 C 0.63103 0.76037 0.3484 0.0
C637 C 0.6576 0.86465 0.33758 0.0
C638 C 0.68521 0.81869 0.27824 0.0
C639 C 0.70287 0.82323 0.25234 0.0
C640 C 0.74392 0.83964 0.24917 0.0
C641 C 0.67861 0.81263 0.23046 0.0
C642 C 0.69534 0.81943 0.20539 0.0
C643 C 0.76073 0.84624 0.2245 0.0
C644 C 0.73673 0.83649 0.20273 0.0
C645 C 0.74474 0.9065 0.36733 0.0
H646 H 0.61362 0.83048 0.44907 0.0
H647 H 0.72482 0.85868 0.48365 0.0
H648 H 0.5827 0.8202 0.49196 0.0
H649 H 0.62122 0.82767 0.53109 0.0
H650 H 0.76301 0.84756 0.2657 0.0
H651 H 0.6468 0.79892 0.23306 0.0
H652 H 0.7925 0.85923 0.22222 0.0
H653 H 0.75064 0.84254 0.18379 0.0
Gd654 Gd 0.18458 0.85908 0.31968 0.0
Gd655 Gd 0.21286 0.85069 0.38603 0.0
C656 C 0.32912 0.8531 0.40335 0.0
C657 C 0.30602 0.79038 0.42212 0.0
C658 C 0.25883 0.80935 0.40805 0.0
C659 C 0.2895 0.84419 0.40004 0.0
C660 C 0.26672 0.7825 0.42 0.0
C661 C 0.33719 0.82558 0.41368 0.0
C662 C 0.3594 0.8899 0.39724 0.0
C663 C 0.34972 0.91724 0.38943 0.0
N664 N 0.28058 0.87043 0.39088 0.0
C665 C 0.30995 0.90715 0.38686 0.0
H666 H 0.30305 0.92864 0.3808 0.0
C667 C 0.19026 0.77068 0.41631 0.0
N668 N 0.22128 0.80274 0.40574 0.0
C669 C 0.19657 0.74323 0.42841 0.0
C670 C 0.23495 0.74903 0.43012 0.0
H671 H 0.1605 0.766 0.41513 0.0
H672 H 0.36742 0.83174 0.4161 0.0
H673 H 0.0964 0.77854 0.31971 0.0
H674 H 0.39022 0.89784 0.39938 0.0
H675 H 0.37287 0.9461 0.38536 0.0
H676 H 0.31266 0.76987 0.43088 0.0
H677 H 0.23553 0.94724 0.29504 0.0
H678 H 1.0068 0.80644 0.30188 0.0
H679 H 0.02628 0.75862 0.31287 0.0
H680 H 0.08108 0.93928 0.28099 0.0
H681 H 0.17184 0.71765 0.43641 0.0
H682 H 0.23978 0.72776 0.43953 0.0
H683 H 0.02749 0.87421 0.29063 0.0
H684 H 0.22267 0.99708 0.27795 0.0
N685 N 0.11676 0.83733 0.31338 0.0
C686 C 0.03772 0.81539 0.30487 0.0
C687 C 0.04862 0.78831 0.31099 0.0
C688 C 0.06703 0.85351 0.30176 0.0
C689 C 0.10684 0.86367 0.306 0.0
C690 C 0.08852 0.79977 0.31487 0.0
N691 N 0.17484 0.90798 0.30299 0.0
C692 C 0.13687 0.90023 0.30065 0.0
C693 C 0.19828 0.97004 0.28439 0.0
C694 C 0.15945 0.96316 0.28307 0.0
C695 C 0.20545 0.94176 0.29405 0.0
C696 C 0.1281 0.92769 0.29083 0.0
H697 H 0.15395 0.98503 0.27544 0.0
O698 O 0.21839 0.87109 0.28385 0.0
O699 O 0.23087 0.85744 0.34431 0.0
O700 O 0.23494 0.91207 0.37376 0.0
O701 O 0.1922 0.91015 0.34189 0.0
O702 O 0.25049 0.89878 0.31583 0.0
O703 O 0.16367 0.81798 0.28845 0.0
O704 O 0.18051 0.84319 0.42204 0.0
O705 O 0.16622 0.85069 0.36108 0.0
O706 O 0.16424 0.79715 0.33096 0.0
O707 O 0.2027 0.79781 0.36572 0.0
O708 O 0.14667 0.81144 0.39085 0.0
O709 O 0.23616 0.89474 0.41523 0.0
C710 C 0.2618 0.88389 0.33351 0.0
C711 C 0.08844 0.91841 0.28813 0.0
C712 C 0.05793 0.88136 0.29361 0.0
C713 C 0.19234 0.84007 0.27265 0.0
C714 C 0.18104 0.84502 0.24632 0.0
C715 C 0.15428 0.85825 0.2429 0.0
C716 C 0.198 0.8379 0.22441 0.0
C717 C 0.18816 0.84411 0.19929 0.0
C718 C 0.14535 0.86548 0.21823 0.0
C719 C 0.1624 0.85885 0.19659 0.0
C720 C 0.21835 0.92821 0.36023 0.0
C721 C 0.13532 0.8246 0.3721 0.0
C722 C 0.20789 0.87481 0.43186 0.0
C723 C 0.2199 0.87206 0.45842 0.0
C724 C 0.25063 0.86415 0.4627 0.0
C725 C 0.19986 0.87632 0.47976 0.0
C726 C 0.21015 0.87217 0.50519 0.0
C727 C 0.26099 0.86013 0.4878 0.0
C728 C 0.24095 0.86409 0.50892 0.0
C729 C 0.17848 0.78038 0.34632 0.0
H730 H 0.14044 0.86325 0.25927 0.0
H731 H 0.21835 0.82721 0.22691 0.0
H732 H 0.12516 0.87634 0.21588 0.0
H733 H 0.15541 0.86532 0.17766 0.0
H734 H 0.26672 0.86122 0.44668 0.0
H735 H 0.17612 0.88248 0.4766 0.0
H736 H 0.28481 0.85412 0.49089 0.0
H737 H 0.25004 0.86152 0.52823 0.0
Gd738 Gd 0.85838 0.69278 0.72175 0.0
Gd739 Gd 0.83427 0.655 0.65517 0.0
C740 C 0.72069 0.54428 0.63843 0.0
C741 C 0.74594 0.50255 0.62591 0.0
C742 C 0.79137 0.56817 0.6374 0.0
C743 C 0.75981 0.57393 0.64221 0.0
C744 C 0.78487 0.53269 0.62861 0.0
C745 C 0.71389 0.50831 0.63086 0.0
C746 C 0.6897 0.55205 0.64151 0.0
C747 C 0.69829 0.58903 0.64707 0.0
N748 N 0.76749 0.60921 0.64902 0.0
C749 C 0.73765 0.61759 0.65032 0.0
H750 H 0.74396 0.64606 0.65467 0.0
C751 C 0.8607 0.59485 0.63296 0.0
N752 N 0.82857 0.59792 0.64011 0.0
C753 C 0.85578 0.56016 0.62431 0.0
C754 C 0.81771 0.52884 0.62231 0.0
H755 H 0.8902 0.61896 0.63454 0.0
H756 H 0.68403 0.48508 0.62809 0.0
H757 H 0.94838 0.70043 0.7231 0.0
H758 H 0.65921 0.53003 0.63889 0.0
H759 H 0.67462 0.59556 0.64893 0.0
H760 H 0.74031 0.47493 0.61947 0.0
H761 H 0.8043 0.72879 0.74576 0.0
H762 H 0.03431 0.81552 0.73984 0.0
H763 H 1.01771 0.74968 0.72976 0.0
H764 H 0.955 0.87263 0.75869 0.0
H765 H 0.88133 0.55761 0.61919 0.0
H766 H 0.81397 0.50203 0.61554 0.0
H767 H 1.01064 0.8615 0.75009 0.0
H768 H 0.81398 0.79023 0.76142 0.0
N769 N 0.92552 0.73788 0.72867 0.0
C770 C 1.00371 0.79393 0.73698 0.0
C771 C 0.99444 0.75679 0.73136 0.0
C772 C 0.97321 0.80241 0.73973 0.0
C773 C 0.9339 0.77327 0.73568 0.0
C774 C 0.95495 0.72887 0.72758 0.0
N775 N 0.86553 0.7499 0.7382 0.0
C776 C 0.90281 0.77954 0.74051 0.0
C777 C 0.83925 0.78771 0.75545 0.0
C778 C 0.87737 0.81914 0.7565 0.0
C779 C 0.83388 0.75293 0.74662 0.0
C780 C 0.90984 0.81511 0.7495 0.0
H781 H 0.88149 0.846 0.76349 0.0
O782 O 0.82335 0.67068 0.75712 0.0
O783 O 0.81431 0.64747 0.69627 0.0
O784 O 0.81301 0.69713 0.66298 0.0
O785 O 0.84782 0.73423 0.6985 0.0
O786 O 0.79239 0.66892 0.72365 0.0
O787 O 0.878 0.6699 0.75291 0.0
O788 O 0.86784 0.67458 0.61912 0.0
O789 O 0.87773 0.70064 0.6805 0.0
O790 O 0.88179 0.65251 0.71189 0.0
O791 O 0.84076 0.61264 0.67973 0.0
O792 O 0.90092 0.68147 0.65234 0.0
O793 O 0.81231 0.67421 0.62332 0.0
C794 C 0.7827 0.64425 0.70557 0.0
C795 C 0.94896 0.84495 0.75212 0.0
C796 C 0.98062 0.8386 0.74723 0.0
C797 C 0.84874 0.6635 0.76837 0.0
C798 C 0.85913 0.67699 0.7952 0.0
C799 C 0.88436 0.71574 0.79989 0.0
C800 C 0.84354 0.65131 0.81633 0.0
C801 C 0.85297 0.66446 0.84202 0.0
C802 C 0.89376 0.72891 0.82511 0.0
C803 C 0.8782 0.70362 0.84599 0.0
C804 C 0.82634 0.72803 0.67739 0.0
C805 C 0.90977 0.70579 0.67057 0.0
C806 C 0.84151 0.68044 0.60778 0.0
C807 C 0.83093 0.66629 0.58116 0.0
C808 C 0.80429 0.62776 0.57676 0.0
C809 C 0.84745 0.6915 0.55992 0.0
C810 C 0.83715 0.67826 0.53436 0.0
C811 C 0.79423 0.61441 0.55159 0.0
C812 C 0.81044 0.63937 0.53056 0.0
C813 C 0.86603 0.62026 0.69876 0.0
H814 H 0.8968 0.73584 0.78404 0.0
H815 H 0.8246 0.62126 0.8127 0.0
H816 H 0.91313 0.75893 0.82851 0.0
H817 H 0.88567 0.71484 0.86537 0.0
H818 H 0.79114 0.60801 0.59274 0.0
H819 H 0.86842 0.72121 0.56333 0.0
H820 H 0.77355 0.58462 0.54837 0.0
H821 H 0.80154 0.62829 0.51126 0.0
Gd822 Gd 0.33342 0.16352 0.71715 0.0
Gd823 Gd 0.37587 0.17636 0.65126 0.0
C824 C 0.4748 0.1467 0.64735 0.0
C825 C 0.5326 0.2082 0.63818 0.0
C826 C 0.4674 0.20217 0.64185 0.0
C827 C 0.45082 0.16376 0.64705 0.0
C828 C 0.50822 0.22449 0.63622 0.0
C829 C 0.5159 0.16935 0.64378 0.0
C830 C 0.45663 0.10725 0.6505 0.0
C831 C 0.41548 0.08572 0.65245 0.0
N832 N 0.41099 0.1427 0.65042 0.0
C833 C 0.39298 0.10392 0.65225 0.0
H834 H 0.36133 0.08667 0.65417 0.0
C835 C 0.45646 0.25194 0.6286 0.0
N836 N 0.44297 0.21688 0.63979 0.0
C837 C 0.49674 0.2754 0.62308 0.0
C838 C 0.52295 0.26193 0.62754 0.0
H839 H 0.43606 0.2621 0.62469 0.0
H840 H 0.53484 0.15686 0.64442 0.0
H841 H 0.33318 0.24686 0.71512 0.0
H842 H 0.47399 0.09309 0.65085 0.0
H843 H 0.40106 0.0551 0.65443 0.0
H844 H 0.56413 0.22505 0.6344 0.0
H845 H 0.28908 0.07758 0.74469 0.0
H846 H 0.21586 0.22445 0.73115 0.0
H847 H 0.28603 0.26973 0.7207 0.0
H848 H 0.14549 0.09162 0.75213 0.0
H849 H 0.50748 0.3037 0.61523 0.0
H850 H 0.55411 0.27999 0.62301 0.0
H851 H 0.16322 0.1576 0.74187 0.0
H852 H 0.22258 0.02977 0.76096 0.0
N853 N 0.29035 0.1885 0.72172 0.0
C854 C 0.2365 0.2141 0.72874 0.0
C855 C 0.27609 0.23974 0.72293 0.0
C856 C 0.22426 0.17554 0.73208 0.0
C857 C 0.25232 0.16351 0.72863 0.0
C858 C 0.30283 0.22649 0.71975 0.0
N859 N 0.27107 0.117 0.73311 0.0
C860 C 0.2422 0.12638 0.73416 0.0
C861 C 0.22753 0.05663 0.75316 0.0
C862 C 0.19659 0.06464 0.75242 0.0
C863 C 0.26505 0.08366 0.74393 0.0
C864 C 0.20398 0.1003 0.74358 0.0
H865 H 0.16765 0.04383 0.75984 0.0
O866 O 0.35236 0.14883 0.75273 0.0
O867 O 0.38358 0.16785 0.69318 0.0
O868 O 0.32275 0.11675 0.65629 0.0
O869 O 0.29001 0.11055 0.69573 0.0
O870 O 0.35809 0.12383 0.71993 0.0
O871 O 0.35233 0.20197 0.74977 0.0
O872 O 0.36943 0.19785 0.61415 0.0
O873 O 0.32711 0.1734 0.67553 0.0
O874 O 0.37968 0.22587 0.70991 0.0
O875 O 0.41467 0.23123 0.67175 0.0
O876 O 0.34845 0.214 0.64653 0.0
O877 O 0.35599 0.13943 0.61777 0.0
C878 C 0.38662 0.14091 0.7034 0.0
C879 C 0.17518 0.11141 0.74531 0.0
C880 C 0.18531 0.149 0.73956 0.0
C881 C 0.35747 0.17894 0.76483 0.0
C882 C 0.33981 0.17228 0.79088 0.0
C883 C 0.29913 0.15834 0.79419 0.0
C884 C 0.36365 0.17896 0.81269 0.0
C885 C 0.34672 0.17085 0.83771 0.0
C886 C 0.28209 0.14984 0.8188 0.0
C887 C 0.30558 0.15577 0.84043 0.0
C888 C 0.29335 0.09738 0.67302 0.0
C889 C 0.32214 0.19875 0.66467 0.0
C890 C 0.35948 0.16627 0.60211 0.0
C891 C 0.37959 0.16998 0.57718 0.0
C892 C 0.42068 0.18503 0.57592 0.0
C893 C 0.35761 0.15932 0.55425 0.0
C894 C 0.37669 0.16439 0.53011 0.0
C895 C 0.4399 0.19108 0.55212 0.0
C896 C 0.41822 0.18138 0.52934 0.0
C897 C 0.40914 0.24546 0.69326 0.0
H898 H 0.28052 0.15406 0.77783 0.0
H899 H 0.39531 0.19105 0.81012 0.0
H900 H 0.25056 0.13869 0.82113 0.0
H901 H 0.29154 0.14871 0.85934 0.0
H902 H 0.43806 0.19244 0.59319 0.0
H903 H 0.32571 0.14687 0.55526 0.0
H904 H 0.47175 0.20352 0.55131 0.0
H905 H 0.43408 0.18733 0.5111 0.0
Gd906 Gd 0.84654 0.18727 0.65403 0.0
Gd907 Gd 0.8761 0.17842 0.72006 0.0
C908 C 0.99319 0.18139 0.73432 0.0
C909 C 0.97106 0.11694 0.74945 0.0
C910 C 0.92309 0.13642 0.73852 0.0
C911 C 0.95339 0.17224 0.73175 0.0
C912 C 0.93153 0.1086 0.74801 0.0
C913 C 1.00185 0.15327 0.74256 0.0
C914 C 0.02304 0.21886 0.72942 0.0
C915 C 1.01278 0.2464 0.72331 0.0
N916 N 0.94393 0.19889 0.72439 0.0
C917 C 0.97284 0.23598 0.72128 0.0
H918 H 0.96538 0.25755 0.71646 0.0
C919 C 0.85453 0.09581 0.74598 0.0
N920 N 0.88529 0.12939 0.73696 0.0
C921 C 0.86138 0.06721 0.7554 0.0
C922 C 0.90003 0.0735 0.75623 0.0
H923 H 0.82458 0.09076 0.74527 0.0
H924 H 0.03224 0.15964 0.74439 0.0
H925 H 0.75901 0.10555 0.65485 0.0
H926 H 0.05399 0.22702 0.73106 0.0
H927 H 0.0356 0.27565 0.72005 0.0
H928 H 0.97816 0.0958 0.7564 0.0
H929 H 0.89605 0.27693 0.63196 0.0
H930 H 0.66793 0.13111 0.63648 0.0
H931 H 0.68865 0.08442 0.64823 0.0
H932 H 0.73973 0.2645 0.61666 0.0
H933 H 0.83687 0.04035 0.76201 0.0
H934 H 0.90527 0.05133 0.76359 0.0
H935 H 0.68722 0.19854 0.62518 0.0
H936 H 0.88171 0.32656 0.61642 0.0
N937 N 0.77847 0.16402 0.64756 0.0
C938 C 0.69901 0.14061 0.63933 0.0
C939 C 0.7106 0.11418 0.6459 0.0
C940 C 0.72777 0.17887 0.63595 0.0
C941 C 0.76781 0.18977 0.64004 0.0
C942 C 0.75068 0.12636 0.64968 0.0
N943 N 0.83545 0.23558 0.63797 0.0
C944 C 0.79724 0.22675 0.63514 0.0
C945 C 0.85767 0.29865 0.62172 0.0
C946 C 0.81847 0.29056 0.61989 0.0
C947 C 0.86568 0.27048 0.63044 0.0
C948 C 0.78764 0.25406 0.6262 0.0
H949 H 0.81232 0.31238 0.61302 0.0
O950 O 0.87983 0.20118 0.61789 0.0
O951 O 0.89332 0.18644 0.67837 0.0
O952 O 0.89654 0.23967 0.7083 0.0
O953 O 0.85166 0.23629 0.67749 0.0
O954 O 0.91251 0.22771 0.65007 0.0
O955 O 0.82772 0.1458 0.62319 0.0
O956 O 0.84572 0.16831 0.75714 0.0
O957 O 0.82934 0.17835 0.69551 0.0
O958 O 0.8266 0.12545 0.66519 0.0
O959 O 0.86928 0.12839 0.69769 0.0
O960 O 0.80963 0.13975 0.72545 0.0
O961 O 0.89894 0.22203 0.74955 0.0
C962 C 0.92411 0.21303 0.66774 0.0
C963 C 0.74773 0.24383 0.62326 0.0
C964 C 0.71784 0.20628 0.6281 0.0
C965 C 0.85542 0.16899 0.60717 0.0
C966 C 0.84324 0.17152 0.58064 0.0
C967 C 0.81114 0.17734 0.57632 0.0
C968 C 0.8645 0.16896 0.55936 0.0
C969 C 0.8536 0.172 0.53386 0.0
C970 C 0.80039 0.18066 0.55117 0.0
C971 C 0.82142 0.17806 0.53008 0.0
C972 C 0.87798 0.25468 0.69567 0.0
C973 C 0.79835 0.15295 0.70665 0.0
C974 C 0.87219 0.20069 0.76669 0.0
C975 C 0.88646 0.19892 0.79273 0.0
C976 C 0.91724 0.19077 0.79579 0.0
C977 C 0.86857 0.20438 0.8148 0.0
C978 C 0.88103 0.20108 0.83976 0.0
C979 C 0.92985 0.18777 0.82042 0.0
C980 C 0.9119 0.19283 0.84227 0.0
C981 C 0.84365 0.11006 0.67921 0.0
H982 H 0.79439 0.17933 0.59233 0.0
H983 H 0.8897 0.16504 0.5627 0.0
H984 H 0.77556 0.18514 0.548 0.0
H985 H 0.81213 0.18023 0.51075 0.0
H986 H 0.93157 0.18676 0.77918 0.0
H987 H 0.84473 0.21065 0.81259 0.0
H988 H 0.95368 0.18155 0.82258 0.0
H989 H 0.92249 0.19077 0.8612 0.0
C990 C 0.37074 0.87744 0.04846 0.0
C991 C 0.33755 0.88033 0.05625 0.0
C992 C 0.40684 0.90999 0.0413 0.0
C993 C 0.41085 0.94651 0.04141 0.0
H994 H 0.36947 0.85015 0.04923 0.0
H995 H 0.4322 0.90675 0.03693 0.0
S996 S 0.33134 0.96872 0.05613 0.0
N997 N 0.31005 0.92225 0.06053 0.0
N998 N 0.37751 0.98297 0.04738 0.0
C999 C 0.37723 0.94932 0.0476 0.0
C1000 C 0.3407 0.9164 0.05483 0.0
C1001 C 0.12005 0.42486 0.06019 0.0
C1002 C 0.15895 0.45594 0.06158 0.0
C1003 C 0.08804 0.4295 0.05261 0.0
C1004 C 0.09315 0.46534 0.04571 0.0
H1005 H 0.11403 0.39663 0.06565 0.0
H1006 H 0.05867 0.40471 0.05266 0.0
S1007 S 0.18877 0.55606 0.04606 0.0
N1008 N 0.20066 0.52396 0.0551 0.0
N1009 N 0.14056 0.5327 0.04091 0.0
C1010 C 0.13199 0.4966 0.04629 0.0
C1011 C 0.16478 0.49185 0.05407 0.0
C1012 C 0.57049 0.69208 0.03857 0.0
C1013 C 0.56011 0.69394 0.06445 0.0
C1014 C 0.56536 0.65791 0.02821 0.0
C1015 C 0.54985 0.62466 0.04344 0.0
H1016 H 0.58403 0.7175 0.02657 0.0
H1017 H 0.57497 0.6579 1.00855 0.0
S1018 S 0.51259 0.61299 0.11087 0.0
N1019 N 0.52957 0.65837 0.10402 0.0
N1020 N 0.52031 0.59459 0.0846 0.0
C1021 C 0.53765 0.62573 0.06885 0.0
C1022 C 0.54264 0.66025 0.07934 0.0
C1023 C 0.86897 0.33906 0.99693 0.0
C1024 C 0.87917 0.31352 0.98559 0.0
C1025 C 0.89823 0.3749 1.0059 0.0
C1026 C 0.9389 0.38679 1.00372 0.0
H1027 H 0.83825 0.33189 0.99805 0.0
H1028 H 0.88892 0.39392 0.01379 0.0
S1029 S 0.98097 0.32822 0.97948 0.0
N1030 N 0.93275 0.30101 0.9758 0.0
N1031 N 0.98732 0.36822 0.99194 0.0
C1032 C 0.94929 0.36077 0.99361 0.0
C1033 C 0.9196 0.32425 0.98476 0.0
C1034 C 0.67567 0.51798 0.99344 0.0
C1035 C 0.70939 0.55248 0.98577 0.0
C1036 C 0.63962 0.51644 1.00049 0.0
C1037 C 0.63599 0.54942 1.00033 0.0
H1038 H 0.67655 0.49172 0.9928 0.0
H1039 H 0.61407 0.4891 1.00512 0.0
S1040 S 0.71657 0.64733 0.98515 0.0
N1041 N 0.73739 0.6208 0.9812 0.0
N1042 N 0.67021 0.61775 0.99372 0.0
C1043 C 0.66994 0.5841 0.9938 0.0
C1044 C 0.70644 0.58571 0.98689 0.0
C1045 C 0.44163 0.11159 0.97809 0.0
C1046 C 0.46621 0.15068 0.98295 0.0
C1047 C 0.45064 0.08435 0.98764 0.0
C1048 C 0.48413 0.09469 1.00305 0.0
H1049 H 0.41519 0.10174 0.96663 0.0
H1050 H 0.43115 0.05487 0.98272 0.0
S1051 S 0.55665 0.19276 0.02333 0.0
N1052 N 0.52555 0.19805 1.0047 0.0
N1053 N 0.54031 0.14662 0.02432 0.0
C1054 C 0.5078 0.13335 1.00923 0.0
C1055 C 0.4994 0.16132 0.99881 0.0
C1056 C 0.68961 0.09495 1.00001 0.0
C1057 C 0.69896 0.13322 1.00139 0.0
C1058 C 0.65012 0.065 1.00083 0.0
C1059 C 0.61828 0.0719 1.0038 0.0
H1060 H 0.71304 0.08802 0.99838 0.0
H1061 H 0.64446 0.03606 0.99951 0.0
S1062 S 0.62679 0.167 1.00632 0.0
N1063 N 0.67305 0.17632 1.00492 0.0
N1064 N 0.59888 0.1202 1.00592 0.0
C1065 C 0.62714 0.11001 1.00469 0.0
C1066 C 0.66741 0.14053 1.00381 0.0
C1067 C 0.88465 0.50362 1.00389 0.0
C1068 C 0.88741 0.53935 0.99987 0.0
C1069 C 0.91871 0.49952 1.0041 0.0
C1070 C 0.95703 0.53109 1.00066 0.0
H1071 H 0.85602 0.47884 1.00777 0.0
H1072 H 0.915 0.47153 1.00736 0.0
S1073 S 0.98062 0.63021 0.98738 0.0
N1074 N 0.93196 0.60641 0.99072 0.0
N1075 N 0.99526 0.59865 0.9912 0.0
C1076 C 0.95996 0.56649 0.99539 0.0
C1077 C 0.92547 0.57068 0.99512 0.0
C1078 C 0.46764 0.33725 0.02535 0.0
C1079 C 0.46156 0.32268 1.0002 0.0
C1080 C 0.48339 0.37623 0.02953 0.0
C1081 C 0.49402 0.40219 1.00879 0.0
H1082 H 0.4598 0.31835 0.04195 0.0
H1083 H 0.48614 0.38579 0.04918 0.0
S1084 S 0.48442 0.37823 0.93912 0.0
N1085 N 0.46723 0.33689 0.95421 0.0
N1086 N 0.49764 0.41036 0.96205 0.0
C1087 C 0.4881 0.38791 0.98351 0.0
C1088 C 0.47182 0.34815 0.97924 0.0
C1089 C 0.12585 0.67759 0.04921 0.0
C1090 C 0.16543 0.69466 0.04038 0.0
C1091 C 0.09948 0.63832 0.04639 0.0
C1092 C 0.11141 0.61452 0.03432 0.0
H1093 H 0.11492 0.69486 0.05792 0.0
H1094 H 0.06924 0.62685 0.05305 0.0
S1095 S 0.21317 0.6452 1.00995 0.0
N1096 N 0.21585 0.68466 0.02057 0.0
N1097 N 0.16693 0.61137 0.0151 0.0
C1098 C 0.15135 0.63134 0.02609 0.0
C1099 C 0.17811 0.67117 0.02915 0.0
C1100 C 0.35787 0.43703 0.04711 0.0
C1101 C 0.34884 0.46652 0.04454 0.0
C1102 C 0.39715 0.44422 0.04584 0.0
C1103 C 0.42931 0.48109 0.04141 0.0
H1104 H 0.33427 0.40793 0.04975 0.0
H1105 H 0.40236 0.42046 0.04791 0.0
S1106 S 0.42245 0.56896 0.03614 0.0
N1107 N 0.37589 0.53455 0.03902 0.0
N1108 N 0.44957 0.54804 0.03713 0.0
C1109 C 0.42095 0.51108 0.03977 0.0
C1110 C 0.38084 0.50377 0.04111 0.0
C1111 C 0.59224 0.90949 0.05051 0.0
C1112 C 0.56741 0.87093 0.04445 0.0
C1113 C 0.57977 0.93628 0.04693 0.0
C1114 C 0.54208 0.92555 0.03704 0.0
H1115 H 0.62177 0.91916 0.05771 0.0
H1116 H 0.60025 0.96576 0.05131 0.0
S1117 S 0.4646 0.82735 0.02052 0.0
N1118 N 0.50277 0.82298 0.02951 0.0
N1119 N 0.47896 0.87296 0.02316 0.0
C1120 C 0.51657 0.88682 0.03166 0.0
C1121 C 0.52932 0.85964 0.03527 0.0
C1122 C 0.04276 0.20875 0.39222 0.0
C1123 C 1.00621 0.2076 0.38997 0.0
C1124 C 0.07813 0.24058 0.38354 0.0
C1125 C 0.07797 0.27196 0.37184 0.0
H1126 H 0.04421 0.18563 0.40178 0.0
H1127 H 0.10594 0.24134 0.38695 0.0
S1128 S 0.98983 0.28194 0.36027 0.0
N1129 N 0.97182 0.2398 0.37441 0.0
N1130 N 0.03818 0.29944 0.35803 0.0
C1131 C 0.04149 0.27057 0.36886 0.0
C1132 C 1.00559 0.23833 0.37779 0.0
C1133 C 0.82695 0.82877 0.38524 0.0
C1134 C 0.82329 0.79344 0.39227 0.0
C1135 C 0.79329 0.83208 0.37929 0.0
C1136 C 0.7548 0.80011 0.37998 0.0
H1137 H 0.85571 0.85429 0.38561 0.0
H1138 H 0.79728 0.86001 0.37523 0.0
S1139 S 0.72968 0.70071 0.3938 0.0
N1140 N 0.77824 0.7255 0.39686 0.0
N1141 N 0.71567 0.73183 0.3862 0.0
C1142 C 0.75116 0.76459 0.38576 0.0
C1143 C 0.78515 0.7612 0.39161 0.0
C1144 C 0.27552 0.02717 0.38853 0.0
C1145 C 0.25073 0.04278 0.38437 0.0
C1146 C 0.26524 0.99071 0.38003 0.0
C1147 C 0.2301 0.9683 0.36637 0.0
H1148 H 0.30302 0.043 0.3989 0.0
H1149 H 0.28498 0.97993 0.38452 0.0
S1150 S 0.15691 0.99725 0.34756 0.0
N1151 N 0.19021 0.03343 0.3643 0.0
N1152 N 0.17225 0.96595 0.34692 0.0
C1153 C 0.20625 0.98441 0.36053 0.0
C1154 C 0.21624 0.02134 0.36979 0.0
C1155 C 0.58401 0.66307 0.31657 0.0
C1156 C 0.54298 0.64788 0.32078 0.0
C1157 C 0.61205 0.69882 0.32604 0.0
C1158 C 0.6007 0.72088 0.34085 0.0
H1159 H 0.59487 0.64745 0.30557 0.0
H1160 H 0.64296 0.70929 0.32147 0.0
S1161 S 0.49762 0.69285 0.36024 0.0
N1162 N 0.49285 0.65773 0.34194 0.0
N1163 N 0.54561 0.72307 0.36139 0.0
C1164 C 0.56008 0.7051 0.34667 0.0
C1165 C 0.53131 0.66916 0.33632 0.0
C1166 C 0.37121 0.92662 0.31687 0.0
C1167 C 0.37798 0.89556 0.31777 0.0
C1168 C 0.3341 0.92252 0.32328 0.0
C1169 C 0.30186 0.88727 0.33116 0.0
H1170 H 0.39459 0.9543 0.31049 0.0
H1171 H 0.33034 0.94716 0.32145 0.0
S1172 S 0.30372 0.79693 0.33695 0.0
N1173 N 0.34915 0.82829 0.32764 0.0
N1174 N 0.27945 0.82057 0.33948 0.0
C1175 C 0.30841 0.85615 0.33291 0.0
C1176 C 0.34641 0.86035 0.3264 0.0
C1177 C 0.16746 0.49192 0.32897 0.0
C1178 C 0.13025 0.48299 0.31894 0.0
C1179 C 0.17451 0.46345 0.3388 0.0
C1180 C 0.14472 0.425 0.33873 0.0
H1181 H 0.19177 0.52096 0.32835 0.0
H1182 H 0.20399 0.47142 0.34535 0.0
S1183 S 0.04043 0.38731 0.31916 0.0
N1184 N 0.0619 0.43338 0.31293 0.0
N1185 N 0.07546 0.37999 0.33086 0.0
C1186 C 0.10688 0.41593 0.33015 0.0
C1187 C 0.09958 0.44486 0.32037 0.0
C1188 C 0.33174 0.4839 0.33547 0.0
C1189 C 0.35917 0.47119 0.33183 0.0
C1190 C 0.29072 0.45829 0.33592 0.0
C1191 C 0.27578 0.41898 0.33363 0.0
H1192 H 0.34213 0.51389 0.33804 0.0
H1193 H 0.27059 0.46921 0.33848 0.0
S1194 S 0.33429 0.3708 0.32347 0.0
N1195 N 0.36786 0.41632 0.32559 0.0
N1196 N 0.29094 0.3685 0.3266 0.0
C1197 C 0.30262 0.40588 0.3297 0.0
C1198 C 0.34428 0.43186 0.329 0.0
C1199 C 0.59902 0.91691 0.33321 0.0
C1200 C 0.55912 0.88782 0.3352 0.0
C1201 C 0.63028 0.90885 0.33388 0.0
C1202 C 0.62321 0.87148 0.33737 0.0
H1203 H 0.60624 0.94632 0.33153 0.0
H1204 H 0.6604 0.93229 0.33238 0.0
S1205 S 0.52416 0.78489 0.34056 0.0
N1206 N 0.51436 0.81999 0.33897 0.0
N1207 N 0.57291 0.80474 0.33995 0.0
C1208 C 0.58348 0.84201 0.33841 0.0
C1209 C 0.5516 0.85024 0.33757 0.0
C1210 C 0.11644 0.67734 0.32502 0.0
C1211 C 0.13645 0.65975 0.33578 0.0
C1212 C 0.13059 0.71641 0.32814 0.0
C1213 C 0.16522 0.73939 0.34224 0.0
H1214 H 0.0894 0.66072 0.31434 0.0
H1215 H 0.11378 0.72842 0.31979 0.0
S1216 S 0.23021 0.70695 0.37203 0.0
N1217 N 0.19356 0.66813 0.35953 0.0
N1218 N 0.22042 0.74133 0.36552 0.0
C1219 C 0.18595 0.72204 0.35247 0.0
C1220 C 0.17154 0.68234 0.34919 0.0
C1221 C 0.84134 1.00106 0.36233 0.0
C1222 C 0.83304 0.02631 0.37576 0.0
C1223 C 0.81317 0.96228 0.36069 0.0
C1224 C 0.7752 0.94704 0.37211 0.0
H1225 H 0.86959 0.01156 0.35254 0.0
H1226 H 0.82124 0.94427 0.35 0.0
S1227 S 0.74096 1.00069 0.41259 0.0
N1228 N 0.78601 0.03294 0.40313 0.0
N1229 N 0.73274 0.96028 0.39971 0.0
C1230 C 0.76744 0.97175 0.38689 0.0
C1231 C 0.79638 0.01128 0.38875 0.0
C1232 C 0.02253 0.77226 0.37656 0.0
C1233 C 1.01257 0.8011 0.37381 0.0
C1234 C 0.06218 0.78043 0.3757 0.0
C1235 C 0.09378 0.81765 0.37135 0.0
H1236 H 0.99942 0.74295 0.37914 0.0
H1237 H 0.06815 0.75718 0.37803 0.0
S1238 S 0.08395 0.90373 0.36526 0.0
N1239 N 0.03784 0.86862 0.36786 0.0
N1240 N 0.11229 0.8841 0.36666 0.0
C1241 C 0.08438 0.84691 0.36928 0.0
C1242 C 0.04389 0.83856 0.37025 0.0
C1243 C 0.25562 0.24032 0.38669 0.0
C1244 C 0.26159 0.22189 0.36568 0.0
C1245 C 0.23919 0.26395 0.38327 0.0
C1246 C 0.22793 0.27012 0.35865 0.0
H1247 H 0.26367 0.2363 0.40599 0.0
H1248 H 0.23511 0.27725 0.4002 0.0
S1249 S 0.23849 0.22894 0.2971 0.0
N1250 N 0.25557 0.21159 0.31934 0.0
N1251 N 0.22497 0.25608 0.3127 0.0
C1252 C 0.23403 0.25192 0.33739 0.0
C1253 C 0.25076 0.22781 0.34095 0.0
C1254 C 0.70433 0.5403 0.71586 0.0
C1255 C 0.67103 0.54331 0.72306 0.0
C1256 C 0.74015 0.5727 0.70814 0.0
C1257 C 0.74357 0.60897 0.70721 0.0
H1258 H 0.70344 0.51327 0.71774 0.0
H1259 H 0.76582 0.56968 0.70441 0.0
S1260 S 0.66329 0.63077 0.72006 0.0
N1261 N 0.64258 0.5846 0.72561 0.0
N1262 N 0.70951 0.64507 0.71139 0.0
C1263 C 0.70967 0.61165 0.71259 0.0
C1264 C 0.67348 0.57893 0.72035 0.0
C1265 C 0.45491 0.10271 0.72166 0.0
C1266 C 0.49274 0.1353 0.72321 0.0
C1267 C 0.42151 0.10501 0.71421 0.0
C1268 C 0.42418 0.1399 0.70748 0.0
H1269 H 0.45082 0.07512 0.72706 0.0
H1270 H 0.393 0.07914 0.71415 0.0
S1271 S 0.51599 0.23407 0.70862 0.0
N1272 N 0.5308 0.20386 0.71725 0.0
N1273 N 0.46793 0.20819 0.70348 0.0
C1274 C 0.46189 0.17278 0.70847 0.0
C1275 C 0.49615 0.17043 0.71605 0.0
C1276 C 0.93104 0.35295 0.72462 0.0
C1277 C 0.90228 0.36437 0.7244 0.0
C1278 C 0.92331 0.31808 0.71443 0.0
C1279 C 0.88675 0.29332 0.7031 0.0
H1280 H 0.95966 0.37079 0.73329 0.0
H1281 H 0.94608 0.31024 0.71586 0.0
S1282 S 0.80234 0.3107 0.6955 0.0
N1283 N 0.83617 0.3486 0.71072 0.0
N1284 N 0.82231 0.28364 0.69056 0.0
C1285 C 0.85848 0.30521 0.70127 0.0
C1286 C 0.86609 0.34059 0.71212 0.0
C1287 C 0.2154 0.02198 0.63001 0.0
C1288 C 0.19886 0.98882 0.64551 0.0
C1289 C 0.24568 0.05687 0.63922 0.0
C1290 C 0.26062 0.06013 0.66434 0.0
H1291 H 0.20504 0.02088 0.61047 0.0
H1292 H 0.25749 0.08157 0.62654 0.0
S1293 S 0.23004 0.98139 0.71187 0.0
N1294 N 0.20105 0.96125 0.68685 0.0
N1295 N 0.25832 0.0267 0.70393 0.0
C1296 C 0.24453 0.02727 0.68001 0.0
C1297 C 0.21355 0.99169 0.67067 0.0
C1298 C 1.00376 0.18465 0.65807 0.0
C1299 C 0.03693 0.21922 0.64991 0.0
C1300 C 0.96771 0.18275 0.66542 0.0
C1301 C 0.96356 0.21539 0.665 0.0
H1302 H 1.005 0.15857 0.6575 0.0
H1303 H 0.94247 0.15533 0.67021 0.0
S1304 S 0.04295 0.31356 0.64933 0.0
N1305 N 0.0642 0.28745 0.64516 0.0
N1306 N 0.99685 0.28366 0.6583 0.0
C1307 C 0.99711 0.25026 0.65835 0.0
C1308 C 0.03363 0.25226 0.6511 0.0
C1309 C 0.7962 0.80402 0.67523 0.0
C1310 C 0.80291 0.81567 0.6491 0.0
C1311 C 0.80408 0.77579 0.6845 0.0
C1312 C 0.81895 0.75838 0.66795 0.0
H1313 H 0.78407 0.81628 0.68846 0.0
H1314 H 0.79753 0.7669 0.70452 0.0
S1315 S 0.84622 0.78202 0.59878 0.0
N1316 N 0.82836 0.80972 0.60742 0.0
N1317 N 0.84324 0.75706 0.62487 0.0
C1318 C 0.82687 0.7706 0.64204 0.0
C1319 C 0.81886 0.79916 0.63261 0.0
C1320 C 0.0209 0.7717 0.66521 0.0
C1321 C 0.02556 0.80829 0.66754 0.0
C1322 C 0.98331 0.73894 0.66651 0.0
C1323 C 0.94888 0.74131 0.67067 0.0
H1324 H 0.04656 0.7683 0.66256 0.0
H1325 H 0.98121 0.7114 0.66459 0.0
S1326 S 0.94454 0.83044 0.6756 0.0
N1327 N 0.99229 0.84501 0.67289 0.0
N1328 N 0.92168 0.78354 0.67466 0.0
C1329 C 0.95296 0.77773 0.67224 0.0
C1330 C 0.99128 0.81114 0.67095 0.0
C1331 C 0.21247 0.17123 0.66815 0.0
C1332 C 0.2137 0.2062 0.66379 0.0
C1333 C 0.24735 0.16861 0.66819 0.0
C1334 C 0.28492 0.20099 0.66419 0.0
H1335 H 0.18446 0.14598 0.67256 0.0
H1336 H 0.24494 0.14124 0.67197 0.0
S1337 S 0.3042 0.29833 0.64912 0.0
N1338 N 0.2557 0.27318 0.65314 0.0
N1339 N 0.3207 0.26826 0.65338 0.0
C1340 C 0.28624 0.23552 0.65827 0.0
C1341 C 0.25088 0.23818 0.65816 0.0
C1342 C 0.78144 1.00452 0.66537 0.0
C1343 C 0.8071 0.99067 0.67171 0.0
C1344 C 0.79381 0.0434 0.66704 0.0
C1345 C 0.83221 0.06975 0.6752 0.0
H1346 H 0.75139 0.98509 0.65945 0.0
H1347 H 0.77275 0.05265 0.66265 0.0
S1348 S 0.9118 0.04817 0.69145 0.0
N1349 N 0.87315 0.00638 0.68491 0.0
N1350 N 0.89677 0.07944 0.68766 0.0
C1351 C 0.85851 0.05631 0.68075 0.0
C1352 C 0.84586 0.0168 0.67911 0.0
C1353 C 0.48323 0.35055 0.68263 0.0
C1354 C 0.49494 0.36436 0.70778 0.0
C1355 C 0.45535 0.31227 0.67827 0.0
C1356 C 0.43796 0.28602 0.69881 0.0
H1357 H 0.49517 0.36964 0.66613 0.0
H1358 H 0.44663 0.30352 0.6586 0.0
S1359 S 0.45838 0.30783 0.76847 0.0
N1360 N 0.48667 0.34897 0.75364 0.0
N1361 N 0.43475 0.27679 0.74543 0.0
C1362 C 0.44933 0.29946 0.72412 0.0
C1363 C 0.47773 0.33859 0.72858 0.0
C1364 C 0.71342 0.17519 0.70229 0.0
C1365 C 0.67954 0.13975 0.70786 0.0
C1366 C 0.75176 0.17949 0.70167 0.0
C1367 C 0.75778 0.14845 0.70628 0.0
H1368 H 0.71015 0.19959 0.69776 0.0
H1369 H 0.77678 0.20722 0.69739 0.0
S1370 S 0.67965 0.05019 0.72314 0.0
N1371 N 0.65527 0.07349 0.71926 0.0
N1372 N 0.72676 0.08161 0.71793 0.0
C1373 C 0.72438 0.11329 0.71272 0.0
C1374 C 0.68548 0.1089 0.71343 0.0
C1375 C 0.93161 0.57944 0.71782 0.0
C1376 C 0.90831 0.54071 0.71169 0.0
C1377 C 0.91736 0.60483 0.71421 0.0
C1378 C 0.87937 0.59247 0.70422 0.0
H1379 H 0.96125 0.5903 0.72518 0.0
H1380 H 0.93668 0.63451 0.71869 0.0
S1381 S 0.80561 0.49317 0.68721 0.0
N1382 N 0.84494 0.49086 0.69631 0.0
N1383 N 0.81771 0.53821 0.69002 0.0
C1384 C 0.85543 0.55357 0.69867 0.0
C1385 C 0.87002 0.52782 0.70226 0.0
C1386 C 0.45587 0.93701 0.22574 0.0
C1387 C 0.48136 0.94318 0.24669 0.0
C1388 C 0.47002 0.95739 0.2023 0.0
C1389 C 0.51022 0.98488 0.19889 0.0
H1390 H 0.42464 0.91635 0.22749 0.0
H1391 H 0.44911 0.95241 0.18703 0.0
S1392 S 0.58971 0.01078 0.24711 0.0
N1393 N 0.54907 0.97873 0.26211 0.0
N1394 N 0.57573 0.01546 0.21792 0.0
C1395 C 0.5362 0.99045 0.21937 0.0
C1396 C 0.5218 0.97005 0.24324 0.0
C1397 C 0.08574 0.51036 0.22492 0.0
C1398 C 0.07826 0.52814 0.24578 0.0
C1399 C 0.06479 0.50331 0.20167 0.0
C1400 C 0.03548 0.51363 0.19846 0.0
H1401 H 0.10808 0.502 0.22652 0.0
H1402 H 0.07107 0.48902 0.1863 0.0
S1403 S 1.00493 0.56134 0.24701 0.0
N1404 N 0.03896 0.55538 0.26172 0.0
N1405 N 1.00117 0.54383 0.21779 0.0
C1406 C 0.02815 0.5319 0.21904 0.0
C1407 C 0.04912 0.53872 0.24272 0.0
C1408 C 0.5056 0.52513 0.24228 0.0
C1409 C 0.50642 0.56001 0.24495 0.0
C1410 C 0.51932 0.51652 0.21961 0.0
C1411 C 0.53388 0.54225 0.19861 0.0
H1412 H 0.49542 0.50482 0.25817 0.0
H1413 H 0.51887 0.48963 0.21859 0.0
S1414 S 0.5402 0.63654 0.19529 0.0
N1415 N 0.52139 0.61977 0.22429 0.0
N1416 N 0.54714 0.60357 0.18163 0.0
C1417 C 0.53371 0.57673 0.20071 0.0
C1418 C 0.52007 0.58565 0.2239 0.0
C1419 C 0.95663 0.46756 0.82042 0.0
C1420 C 0.96489 0.45077 0.7993 0.0
C1421 C 0.97915 0.47677 0.84306 0.0
C1422 C 1.01075 0.46946 0.84552 0.0
H1423 H 0.93249 0.47355 0.8195 0.0
H1424 H 0.97216 0.49034 0.85858 0.0
S1425 S 0.04413 0.42519 0.7961 0.0
N1426 N 1.00755 0.42788 0.78224 0.0
N1427 N 0.04791 0.44276 0.82529 0.0
C1428 C 1.01883 0.45203 0.82474 0.0
C1429 C 0.99641 0.44327 0.80156 0.0
C1430 C 0.56514 0.47029 0.81939 0.0
C1431 C 0.5773 0.49668 0.79875 0.0
C1432 C 0.5497 0.47611 0.84246 0.0
C1433 C 0.54543 0.50834 0.84563 0.0
H1434 H 0.5672 0.44473 0.8176 0.0
H1435 H 0.5398 0.4546 0.85756 0.0
S1436 S 0.57419 0.58674 0.79798 0.0
N1437 N 0.58469 0.55672 0.78336 0.0
N1438 N 0.55648 0.5679 0.82675 0.0
C1439 C 0.55846 0.53541 0.82545 0.0
C1440 C 0.5742 0.52956 0.80203 0.0
C1441 C 0.49978 0.05208 0.79993 0.0
C1442 C 0.53731 0.08464 0.79648 0.0
C1443 C 0.48921 0.03072 0.82297 0.0
C1444 C 0.51571 0.0405 0.84374 0.0
H1445 H 0.47835 0.04252 0.7845 0.0
H1446 H 0.45986 0.00604 0.82442 0.0
S1447 S 0.61743 0.12375 0.84516 0.0
N1448 N 0.60065 0.12657 0.81646 0.0
N1449 N 0.58135 0.08543 0.85934 0.0
C1450 C 0.55325 0.07323 0.84076 0.0
C1451 C 0.56396 0.09532 0.81726 0.0
C1452 C 0.1756 0.28858 0.57288 0.0
C1453 C 0.13524 0.26145 0.57608 0.0
C1454 C 0.19009 0.30992 0.54992 0.0
C1455 C 0.16497 0.30511 0.52902 0.0
H1456 H 0.19608 0.29419 0.58854 0.0
H1457 H 0.22131 0.33082 0.54867 0.0
S1458 S 0.05725 0.23602 0.52676 0.0
N1459 N 0.07071 0.22931 0.55565 0.0
N1460 N 0.09781 0.27006 0.51279 0.0
C1461 C 0.12476 0.27727 0.53162 0.0
C1462 C 0.10994 0.25545 0.55506 0.0
C1463 C 0.71617 0.87354 0.57829 0.0
C1464 C 0.7431 0.86011 0.58092 0.0
C1465 C 0.695 0.86832 0.55545 0.0
C1466 C 0.69943 0.84906 0.53429 0.0
H1467 H 0.71109 0.88802 0.59411 0.0
H1468 H 0.67513 0.87973 0.55435 0.0
S1469 S 0.76541 0.80755 0.53121 0.0
N1470 N 0.77356 0.82728 0.55998 0.0
N1471 N 0.73173 0.81528 0.51774 0.0
C1472 C 0.72588 0.83507 0.53669 0.0
C1473 C 0.74804 0.84098 0.55982 0.0
C1474 C 0.17537 0.91989 0.55348 0.0
C1475 C 0.16168 0.89416 0.57454 0.0
C1476 C 0.18919 0.91177 0.5306 0.0
C1477 C 0.19029 0.8778 0.52803 0.0
H1478 H 0.17611 0.94688 0.55489 0.0
H1479 H 0.20062 0.93292 0.51523 0.0
S1480 S 0.15559 0.79993 0.57676 0.0
N1481 N 0.14847 0.83253 0.59081 0.0
N1482 N 0.17422 0.81721 0.54782 0.0
C1483 C 0.17536 0.85124 0.54856 0.0
C1484 C 0.16106 0.85939 0.57177 0.0
C1485 C 0.65626 0.78122 0.13851 0.0
C1486 C 0.62428 0.78784 0.13557 0.0
C1487 C 0.67853 0.79108 0.16118 0.0
C1488 C 0.67015 0.80842 0.18188 0.0
H1489 H 0.66453 0.7686 0.12302 0.0
H1490 H 0.70251 0.78491 0.16248 0.0
S1491 S 0.5894 0.83193 0.18414 0.0
N1492 N 0.58454 0.81181 0.15574 0.0
N1493 N 0.62785 0.83238 0.19778 0.0
C1494 C 0.63829 0.81533 0.17924 0.0
C1495 C 0.61517 0.80474 0.15623 0.0
C1496 C 0.26111 0.84376 0.14975 0.0
C1497 C 0.2367 0.82473 0.1286 0.0
C1498 C 0.24522 0.84894 0.17288 0.0
C1499 C 0.20436 0.83548 0.17569 0.0
H1500 H 0.29273 0.85473 0.14842 0.0
H1501 H 0.2652 0.86443 0.18843 0.0
S1502 S 0.1275 0.78302 0.12645 0.0
N1503 N 0.16945 0.7926 0.11213 0.0
N1504 N 0.13966 0.80071 0.15577 0.0
C1505 C 0.1796 0.81571 0.1549 0.0
C1506 C 0.19572 0.81077 0.13136 0.0
C1507 C 0.2276 0.40452 0.15159 0.0
C1508 C 0.19995 0.39587 0.13157 0.0
C1509 C 0.21838 0.3813 0.1739 0.0
C1510 C 0.18106 0.3484 0.17724 0.0
H1511 H 0.25674 0.42945 0.15003 0.0
H1512 H 0.2411 0.38862 0.18828 0.0
S1513 S 0.09726 0.31368 0.13139 0.0
N1514 N 0.13336 0.35157 0.11694 0.0
N1515 N 0.11537 0.30992 0.1593 0.0
C1516 C 0.15274 0.34017 0.15781 0.0
C1517 C 0.1623 0.3633 0.13495 0.0
C1518 C 0.84816 0.6211 0.9086 0.0
C1519 C 0.80774 0.59433 0.91205 0.0
C1520 C 0.8625 0.64251 0.88565 0.0
C1521 C 0.83714 0.63825 0.86501 0.0
H1522 H 0.86886 0.62644 0.92407 0.0
H1523 H 0.8938 0.66308 0.88422 0.0
S1524 S 0.72909 0.57012 0.86338 0.0
N1525 N 0.74288 0.5629 0.89201 0.0
N1526 N 0.7696 0.60403 0.84929 0.0
C1527 C 0.79682 0.61074 0.86784 0.0
C1528 C 0.7822 0.58874 0.89123 0.0
C1529 C 0.38569 0.20416 0.90516 0.0
C1530 C 0.41568 0.19467 0.90795 0.0
C1531 C 0.36431 0.1969 0.88229 0.0
C1532 C 0.37151 0.17937 0.86122 0.0
H1533 H 0.37811 0.21682 0.92097 0.0
H1534 H 0.34178 0.2051 0.88118 0.0
S1535 S 0.44737 0.14946 0.85822 0.0
N1536 N 0.45263 0.16812 0.88721 0.0
N1537 N 0.41094 0.15269 0.84453 0.0
C1538 C 0.40161 0.16991 0.86356 0.0
C1539 C 0.42386 0.17778 0.88687 0.0
C1540 C 0.85076 0.24954 0.89048 0.0
C1541 C 0.83723 0.2232 0.9112 0.0
C1542 C 0.8631 0.24149 0.86693 0.0
C1543 C 0.86289 0.20703 0.86337 0.0
H1544 H 0.85238 0.27684 0.89265 0.0
H1545 H 0.87433 0.26297 0.85177 0.0
S1546 S 0.82854 0.12784 0.91099 0.0
N1547 N 0.82308 0.16069 0.92615 0.0
N1548 N 0.84618 0.14561 0.88197 0.0
C1549 C 0.84833 0.18003 0.88362 0.0
C1550 C 0.83548 0.18807 0.90748 0.0
C1551 C 0.30235 0.15122 0.47782 0.0
C1552 C 0.31118 0.13282 0.45803 0.0
C1553 C 0.32319 0.16085 0.50119 0.0
C1554 C 0.35362 0.15239 0.50571 0.0
H1555 H 0.27906 0.15814 0.47531 0.0
H1556 H 0.31584 0.17563 0.51562 0.0
S1557 S 0.38779 0.10374 0.4604 0.0
N1558 N 0.3531 0.10715 0.44447 0.0
N1559 N 0.39021 0.1229 0.48885 0.0
C1560 C 0.36222 0.13337 0.48627 0.0
C1561 C 0.34153 0.12416 0.46237 0.0
C1562 C 0.90351 0.19047 0.46761 0.0
C1563 C 0.90938 0.15919 0.46439 0.0
C1564 C 0.88651 0.19492 0.49039 0.0
C1565 C 0.87502 0.16848 0.51098 0.0
H1566 H 0.91085 0.21098 0.45206 0.0
H1567 H 0.88178 0.21902 0.49175 0.0
S1568 S 0.88664 0.08306 0.51294 0.0
N1569 N 0.9046 0.10259 0.48435 0.0
N1570 N 0.87217 0.11065 0.52694 0.0
C1571 C 0.88205 0.13783 0.50837 0.0
C1572 C 0.89925 0.13323 0.48513 0.0
C1573 C 0.87762 0.71506 0.46649 0.0
C1574 C 0.87538 0.74852 0.46444 0.0
C1575 C 0.86658 0.69333 0.48945 0.0
C1576 C 0.85319 0.70434 0.51138 0.0
H1577 H 0.88657 0.70483 0.44992 0.0
H1578 H 0.86785 0.66724 0.48986 0.0
S1579 S 0.84594 0.79191 0.51665 0.0
N1580 N 0.86175 0.79329 0.48676 0.0
N1581 N 0.84078 0.75249 0.52984 0.0
C1582 C 0.85263 0.73876 0.5099 0.0
C1583 C 0.86365 0.76074 0.48645 0.0
loop_
_geom_bond_atom_site_label_1
_geom_bond_atom_site_label_2
_geom_bond_distance
_geom_bond_site_symmetry_2
_ccdc_geom_bond_type
H0 C7 0.929 . S
H1 C10 0.930 . S
H2 C12 0.929 . S
H3 C4 0.969 . S
C4 H3 0.969 . S
C4 O5 1.550 . S
C4 H6 0.973 . S
O5 C4 1.550 . S
O5 C11 1.412 . S
H6 C4 0.973 . S
C7 H0 0.929 . S
C7 C8 1.400 . S
C7 C9 1.364 . S
C8 C7 1.400 . S
C8 C12 1.377 . S
C9 C7 1.364 . S
C9 C10 1.374 . S
C10 H1 0.930 . S
C10 C9 1.374 . S
C10 C11 1.383 . S
C11 O5 1.412 . S
C11 C10 1.383 . S
C11 C12 1.394 . S
C12 H2 0.929 . S
C12 C8 1.377 . S
C12 C11 1.394 . S
H13 C20 0.929 . S
H14 C23 0.930 . S
H15 C25 0.929 . S
H16 C17 0.969 . S
C17 H16 0.969 . S
C17 O18 1.550 . S
C17 H19 0.973 . S
O18 C17 1.550 . S
O18 C24 1.412 . S
H19 C17 0.973 . S
C20 H13 0.929 . S
C20 C21 1.400 . S
C20 C22 1.364 . S
C21 C20 1.400 . S
C21 C25 1.377 . S
C22 C20 1.364 . S
C22 C23 1.374 . S
C23 H14 0.930 . S
C23 C22 1.374 . S
C23 C24 1.383 . S
C24 O18 1.412 . S
C24 C23 1.383 . S
C24 C25 1.394 . S
C25 H15 0.929 . S
C25 C21 1.377 . S
C25 C24 1.394 . S
H26 C33 0.929 . S
H27 C36 0.930 . S
H28 C38 0.929 . S
H29 C30 0.969 . S
C30 H29 0.969 . S
C30 O31 1.550 . S
C30 H32 0.973 . S
O31 C30 1.550 . S
O31 C37 1.412 . S
H32 C30 0.973 . S
C33 H26 0.929 . S
C33 C34 1.400 . S
C33 C35 1.364 . S
C34 C33 1.400 . S
C34 C38 1.377 . S
C35 C33 1.364 . S
C35 C36 1.374 . S
C36 H27 0.930 . S
C36 C35 1.374 . S
C36 C37 1.383 . S
C37 O31 1.412 . S
C37 C36 1.383 . S
C37 C38 1.394 . S
C38 H28 0.929 . S
C38 C34 1.377 . S
C38 C37 1.394 . S
H39 C46 0.929 . S
H40 C49 0.930 . S
H41 C51 0.929 . S
H42 C43 0.969 . S
C43 H42 0.969 . S
C43 O44 1.550 . S
C43 H45 0.973 . S
O44 C43 1.550 . S
O44 C50 1.412 . S
H45 C43 0.973 . S
C46 H39 0.929 . S
C46 C47 1.400 . S
C46 C48 1.364 . S
C47 C46 1.400 . S
C47 C51 1.377 . S
C48 C46 1.364 . S
C48 C49 1.374 . S
C49 H40 0.930 . S
C49 C48 1.374 . S
C49 C50 1.383 . S
C50 O44 1.412 . S
C50 C49 1.383 . S
C50 C51 1.394 . S
C51 H41 0.929 . S
C51 C47 1.377 . S
C51 C50 1.394 . S
H52 C59 0.929 . S
H53 C62 0.930 . S
H54 C64 0.929 . S
H55 C56 0.969 . S
C56 H55 0.969 . S
C56 O57 1.550 . S
C56 H58 0.973 . S
O57 C56 1.550 . S
O57 C63 1.412 . S
H58 C56 0.973 . S
C59 H52 0.929 . S
C59 C60 1.400 . S
C59 C61 1.364 . S
C60 C59 1.400 . S
C60 C64 1.377 . S
C61 C59 1.364 . S
C61 C62 1.374 . S
C62 H53 0.930 . S
C62 C61 1.374 . S
C62 C63 1.383 . S
C63 O57 1.412 . S
C63 C62 1.383 . S
C63 C64 1.394 . S
C64 H54 0.929 . S
C64 C60 1.377 . S
C64 C63 1.394 . S
H65 C72 0.929 . S
H66 C75 0.930 . S
H67 C77 0.929 . S
H68 C69 0.969 . S
C69 H68 0.969 . S
C69 O70 1.550 . S
C69 H71 0.973 . S
O70 C69 1.550 . S
O70 C76 1.412 . S
H71 C69 0.973 . S
C72 H65 0.929 . S
C72 C73 1.400 . S
C72 C74 1.364 . S
C73 C72 1.400 . S
C73 C77 1.377 . S
C74 C72 1.364 . S
C74 C75 1.374 . S
C75 H66 0.930 . S
C75 C74 1.374 . S
C75 C76 1.383 . S
C76 O70 1.412 . S
C76 C75 1.383 . S
C76 C77 1.394 . S
C77 H67 0.929 . S
C77 C73 1.377 . S
C77 C76 1.394 . S
H78 C85 0.929 . S
H79 C88 0.930 . S
H80 C90 0.929 . S
H81 C82 0.969 . S
C82 H81 0.969 . S
C82 O83 1.550 . S
C82 H84 0.973 . S
O83 C82 1.550 . S
O83 C89 1.412 . S
H84 C82 0.973 . S
C85 H78 0.929 . S
C85 C86 1.400 . S
C85 C87 1.364 . S
C86 C85 1.400 . S
C86 C90 1.377 . S
C87 C85 1.364 . S
C87 C88 1.374 . S
C88 H79 0.930 . S
C88 C87 1.374 . S
C88 C89 1.383 . S
C89 O83 1.412 . S
C89 C88 1.383 . S
C89 C90 1.394 . S
C90 H80 0.929 . S
C90 C86 1.377 . S
C90 C89 1.394 . S
H91 C98 0.929 . S
H92 C101 0.930 . S
H93 C103 0.929 . S
H94 C95 0.969 . S
C95 H94 0.969 . S
C95 O96 1.550 . S
C95 H97 0.973 . S
O96 C95 1.550 . S
O96 C102 1.412 . S
H97 C95 0.973 . S
C98 H91 0.929 . S
C98 C99 1.400 . S
C98 C100 1.364 . S
C99 C98 1.400 . S
C99 C103 1.377 . S
C100 C98 1.364 . S
C100 C101 1.374 . S
C101 H92 0.930 . S
C101 C100 1.374 . S
C101 C102 1.383 . S
C102 O96 1.412 . S
C102 C101 1.383 . S
C102 C103 1.394 . S
C103 H93 0.929 . S
C103 C99 1.377 . S
C103 C102 1.394 . S
H104 C111 0.929 . S
H105 C114 0.930 . S
H106 C116 0.929 . S
H107 C108 0.969 . S
C108 H107 0.969 . S
C108 O109 1.550 . S
C108 H110 0.973 . S
O109 C108 1.550 . S
O109 C115 1.412 . S
H110 C108 0.973 . S
C111 H104 0.929 . S
C111 C112 1.400 . S
C111 C113 1.364 . S
C112 C111 1.400 . S
C112 C116 1.377 . S
C113 C111 1.364 . S
C113 C114 1.374 . S
C114 H105 0.930 . S
C114 C113 1.374 . S
C114 C115 1.383 . S
C115 O109 1.412 . S
C115 C114 1.383 . S
C115 C116 1.394 . S
C116 H106 0.929 . S
C116 C112 1.377 . S
C116 C115 1.394 . S
H117 C124 0.929 . S
H118 C127 0.930 . S
H119 C129 0.929 . S
H120 C121 0.969 . S
C121 H120 0.969 . S
C121 O122 1.550 . S
C121 H123 0.973 . S
O122 C121 1.550 . S
O122 C128 1.412 . S
H123 C121 0.973 . S
C124 H117 0.929 . S
C124 C125 1.400 . S
C124 C126 1.364 . S
C125 C124 1.400 . S
C125 C129 1.377 . S
C126 C124 1.364 . S
C126 C127 1.374 . S
C127 H118 0.930 . S
C127 C126 1.374 . S
C127 C128 1.383 . S
C128 O122 1.412 . S
C128 C127 1.383 . S
C128 C129 1.394 . S
C129 H119 0.929 . S
C129 C125 1.377 . S
C129 C128 1.394 . S
H130 C137 0.929 . S
H131 C140 0.930 . S
H132 C142 0.929 . S
H133 C134 0.969 . S
C134 H133 0.969 . S
C134 O135 1.550 . S
C134 H136 0.973 . S
O135 C134 1.550 . S
O135 C141 1.412 . S
H136 C134 0.973 . S
C137 H130 0.929 . S
C137 C138 1.400 . S
C137 C139 1.364 . S
C138 C137 1.400 . S
C138 C142 1.377 . S
C139 C137 1.364 . S
C139 C140 1.374 . S
C140 H131 0.930 . S
C140 C139 1.374 . S
C140 C141 1.383 . S
C141 O135 1.412 . S
C141 C140 1.383 . S
C141 C142 1.394 . S
C142 H132 0.929 . S
C142 C138 1.377 . S
C142 C141 1.394 . S
H143 C150 0.929 . S
H144 C153 0.930 . S
H145 C155 0.929 . S
H146 C147 0.969 . S
C147 H146 0.969 . S
C147 O148 1.550 . S
C147 H149 0.973 . S
O148 C147 1.550 . S
O148 C154 1.412 . S
H149 C147 0.973 . S
C150 H143 0.929 . S
C150 C151 1.400 . S
C150 C152 1.364 . S
C151 C150 1.400 . S
C151 C155 1.377 . S
C152 C150 1.364 . S
C152 C153 1.374 . S
C153 H144 0.930 . S
C153 C152 1.374 . S
C153 C154 1.383 . S
C154 O148 1.412 . S
C154 C153 1.383 . S
C154 C155 1.394 . S
C155 H145 0.929 . S
C155 C151 1.377 . S
C155 C154 1.394 . S
H156 C163 0.929 . S
H157 C166 0.930 . S
H158 C168 0.929 . S
H159 C160 0.969 . S
C160 H159 0.969 . S
C160 O161 1.550 . S
C160 H162 0.973 . S
O161 C160 1.550 . S
O161 C167 1.412 . S
H162 C160 0.973 . S
C163 H156 0.929 . S
C163 C164 1.400 . S
C163 C165 1.364 . S
C164 C163 1.400 . S
C164 C168 1.377 . S
C165 C163 1.364 . S
C165 C166 1.374 . S
C166 H157 0.930 . S
C166 C165 1.374 . S
C166 C167 1.383 . S
C167 O161 1.412 . S
C167 C166 1.383 . S
C167 C168 1.394 . S
C168 H158 0.929 . S
C168 C164 1.377 . S
C168 C167 1.394 . S
H169 C176 0.929 . S
H170 C179 0.930 . S
H171 C181 0.929 . S
H172 C173 0.969 . S
C173 H172 0.969 . S
C173 O174 1.550 . S
C173 H175 0.973 . S
O174 C173 1.550 . S
O174 C180 1.412 . S
H175 C173 0.973 . S
C176 H169 0.929 . S
C176 C177 1.400 . S
C176 C178 1.364 . S
C177 C176 1.400 . S
C177 C181 1.377 . S
C178 C176 1.364 . S
C178 C179 1.374 . S
C179 H170 0.930 . S
C179 C178 1.374 . S
C179 C180 1.383 . S
C180 O174 1.412 . S
C180 C179 1.383 . S
C180 C181 1.394 . S
C181 H171 0.929 . S
C181 C177 1.377 . S
C181 C180 1.394 . S
H182 C189 0.929 . S
H183 C192 0.930 . S
H184 C194 0.929 . S
H185 C186 0.969 . S
C186 H185 0.969 . S
C186 O187 1.550 . S
C186 H188 0.973 . S
O187 C186 1.550 . S
O187 C193 1.412 . S
H188 C186 0.973 . S
C189 H182 0.929 . S
C189 C190 1.400 . S
C189 C191 1.364 . S
C190 C189 1.400 . S
C190 C194 1.377 . S
C191 C189 1.364 . S
C191 C192 1.374 . S
C192 H183 0.930 . S
C192 C191 1.374 . S
C192 C193 1.383 . S
C193 O187 1.412 . S
C193 C192 1.383 . S
C193 C194 1.394 . S
C194 H184 0.929 . S
C194 C190 1.377 . S
C194 C193 1.394 . S
H195 C202 0.929 . S
H196 C205 0.930 . S
H197 C207 0.929 . S
H198 C199 0.969 . S
C199 H198 0.969 . S
C199 O200 1.550 . S
C199 H201 0.973 . S
O200 C199 1.550 . S
O200 C206 1.412 . S
H201 C199 0.973 . S
C202 H195 0.929 . S
C202 C203 1.400 . S
C202 C204 1.364 . S
C203 C202 1.400 . S
C203 C207 1.377 . S
C204 C202 1.364 . S
C204 C205 1.374 . S
C205 H196 0.930 . S
C205 C204 1.374 . S
C205 C206 1.383 . S
C206 O200 1.412 . S
C206 C205 1.383 . S
C206 C207 1.394 . S
C207 H197 0.929 . S
C207 C203 1.377 . S
C207 C206 1.394 . S
H208 C215 0.929 . S
H209 C218 0.930 . S
H210 C220 0.929 . S
H211 C212 0.969 . S
C212 H211 0.969 . S
C212 O213 1.550 . S
C212 H214 0.973 . S
O213 C212 1.550 . S
O213 C219 1.412 . S
H214 C212 0.973 . S
C215 H208 0.929 . S
C215 C216 1.400 . S
C215 C217 1.364 . S
C216 C215 1.400 . S
C216 C220 1.377 . S
C217 C215 1.364 . S
C217 C218 1.374 . S
C218 H209 0.930 . S
C218 C217 1.374 . S
C218 C219 1.383 . S
C219 O213 1.412 . S
C219 C218 1.383 . S
C219 C220 1.394 . S
C220 H210 0.929 . S
C220 C216 1.377 . S
C220 C219 1.394 . S
H221 C228 0.929 . S
H222 C231 0.930 . S
H223 C233 0.929 . S
H224 C225 0.969 . S
C225 H224 0.969 . S
C225 O226 1.550 . S
C225 H227 0.973 . S
O226 C225 1.550 . S
O226 C232 1.412 . S
H227 C225 0.973 . S
C228 H221 0.929 . S
C228 C229 1.400 . S
C228 C230 1.364 . S
C229 C228 1.400 . S
C229 C233 1.377 . S
C230 C228 1.364 . S
C230 C231 1.374 . S
C231 H222 0.930 . S
C231 C230 1.374 . S
C231 C232 1.383 . S
C232 O226 1.412 . S
C232 C231 1.383 . S
C232 C233 1.394 . S
C233 H223 0.929 . S
C233 C229 1.377 . S
C233 C232 1.394 . S
Gd234 N265 2.661 . S
Gd234 N271 2.601 . S
Gd234 O278 2.545 . S
Gd234 O279 2.606 1_545 S
Gd234 O281 2.429 . S
Gd234 O282 2.545 1_545 S
Gd234 O283 2.412 1_545 S
Gd234 O285 2.362 . S
Gd234 O286 2.324 1_545 S
Gd234 C293 2.828 . S
Gd235 N244 2.661 . S
Gd235 N248 2.601 . S
Gd235 O279 2.362 1_556 S
Gd235 O280 2.324 1_565 S
Gd235 O284 2.545 . S
Gd235 O285 2.606 1_566 S
Gd235 O287 2.429 . S
Gd235 O288 2.545 1_565 S
Gd235 O289 2.412 1_565 S
Gd235 C302 2.828 . S
C236 C239 1.417 . S
C236 C241 1.431 . S
C236 C242 1.412 . S
C237 C240 1.437 . S
C237 C241 1.317 . S
C237 H256 0.929 . S
C238 C239 1.426 . S
C238 C240 1.413 . S
C238 N248 1.359 . S
C239 C236 1.417 . S
C239 C238 1.426 . S
C239 N244 1.350 . S
C240 C237 1.437 . S
C240 C238 1.413 . S
C240 C250 1.391 . S
C241 C236 1.431 . S
C241 C237 1.317 . S
C241 H252 0.930 . S
C242 C236 1.412 . S
C242 C243 1.355 . S
C242 H254 0.930 . S
C243 C242 1.355 . S
C243 C245 1.402 . S
C243 H255 0.930 . S
N244 Gd235 2.661 . S
N244 C239 1.350 . S
N244 C245 1.307 . S
C245 C243 1.402 . S
C245 N244 1.307 . S
C245 H246 0.930 . S
H246 C245 0.930 . S
C247 N248 1.334 . S
C247 C249 1.394 . S
C247 H251 0.930 . S
N248 Gd235 2.601 . S
N248 C238 1.359 . S
N248 C247 1.334 . S
C249 C247 1.394 . S
C249 C250 1.359 . S
C249 H261 0.930 . S
C250 C240 1.391 . S
C250 C249 1.359 . S
C250 H262 0.929 . S
H251 C247 0.930 . S
H252 C241 0.930 . S
H253 C270 0.930 . S
H254 C242 0.930 . S
H255 C243 0.930 . S
H256 C237 0.929 . S
H257 C275 0.930 . S
H258 C266 0.930 . S
H259 C267 0.930 . S
H260 C291 0.929 . S
H261 C249 0.930 . S
H262 C250 0.929 . S
H263 C292 0.930 . S
H264 C273 0.930 . S
N265 Gd234 2.661 . S
N265 C269 1.350 . S
N265 C270 1.307 . S
C266 H258 0.930 . S
C266 C267 1.355 . S
C266 C268 1.412 . S
C267 H259 0.930 . S
C267 C266 1.355 . S
C267 C270 1.402 . S
C268 C266 1.412 . S
C268 C269 1.417 . S
C268 C292 1.431 . S
C269 N265 1.350 . S
C269 C268 1.417 . S
C269 C272 1.426 . S
C270 H253 0.930 . S
C270 N265 1.307 . S
C270 C267 1.402 . S
N271 Gd234 2.601 . S
N271 C272 1.359 . S
N271 C275 1.334 . S
C272 C269 1.426 . S
C272 N271 1.359 . S
C272 C276 1.413 . S
C273 H264 0.930 . S
C273 C274 1.359 . S
C273 C275 1.394 . S
C274 C273 1.359 . S
C274 C276 1.391 . S
C274 H277 0.929 . S
C275 H257 0.930 . S
C275 N271 1.334 . S
C275 C273 1.394 . S
C276 C272 1.413 . S
C276 C274 1.391 . S
C276 C291 1.437 . S
H277 C274 0.929 . S
O278 Gd234 2.545 . S
O278 C293 1.258 . S
O279 Gd234 2.606 1_565 S
O279 Gd235 2.362 1_554 S
O279 C290 1.284 . S
O280 Gd235 2.324 1_545 S
O280 C300 1.254 . S
O281 Gd234 2.429 . S
O281 C300 1.268 1_554 S
O282 Gd234 2.545 1_565 S
O282 C290 1.250 . S
O283 Gd234 2.412 1_565 S
O283 C293 1.252 1_565 S
O284 Gd235 2.545 . S
O284 C302 1.258 . S
O285 Gd234 2.362 . S
O285 Gd235 2.606 1_544 S
O285 C301 1.284 1_554 S
O286 Gd234 2.324 1_565 S
O286 C309 1.254 . S
O287 Gd235 2.429 . S
O287 C309 1.268 1_556 S
O288 Gd235 2.545 1_545 S
O288 C301 1.250 . S
O289 Gd235 2.412 1_545 S
O289 C302 1.252 1_545 S
C290 O279 1.284 . S
C290 O282 1.250 . S
C291 H260 0.929 . S
C291 C276 1.437 . S
C291 C292 1.317 . S
C292 H263 0.930 . S
C292 C268 1.431 . S
C292 C291 1.317 . S
C293 Gd234 2.828 . S
C293 O278 1.258 . S
C293 O283 1.252 1_545 S
C293 C294 1.500 . S
C294 C293 1.500 . S
C294 C295 1.413 . S
C294 C296 1.358 1_545 S
C295 C294 1.413 . S
C295 C298 1.398 . S
C295 H310 0.930 . S
C296 C294 1.358 1_565 S
C296 C297 1.391 . S
C296 H311 0.930 . S
C297 C296 1.391 . S
C297 C299 1.387 . S
C298 C295 1.398 . S
C298 C299 1.380 1_545 S
C298 H312 0.930 . S
C299 C297 1.387 . S
C299 C298 1.380 1_565 S
C299 H313 0.930 . S
C300 O280 1.254 . S
C300 O281 1.268 1_556 S
C301 O285 1.284 1_556 S
C301 O288 1.250 . S
C302 Gd235 2.828 . S
C302 O284 1.258 . S
C302 O289 1.252 1_565 S
C302 C303 1.497 1_565 S
C303 C302 1.497 1_545 S
C303 C304 1.395 1_545 S
C303 C305 1.380 . S
C304 C303 1.395 1_565 S
C304 C307 1.398 . S
C304 H314 0.930 . S
C305 C303 1.380 . S
C305 C306 1.391 . S
C305 H315 0.930 . S
C306 C305 1.391 . S
C306 C308 1.387 . S
C307 C304 1.398 . S
C307 C308 1.380 1_565 S
C307 H316 0.930 . S
C308 C306 1.387 . S
C308 C307 1.380 1_545 S
C308 H317 0.930 . S
C309 O286 1.254 . S
C309 O287 1.268 1_554 S
H310 C295 0.930 . S
H311 C296 0.930 . S
H312 C298 0.930 . S
H313 C299 0.930 . S
H314 C304 0.930 . S
H315 C305 0.930 . S
H316 C307 0.930 . S
H317 C308 0.930 . S
Gd318 N349 2.661 . S
Gd318 N355 2.601 . S
Gd318 O362 2.545 . S
Gd318 O363 2.606 1_655 S
Gd318 O365 2.429 . S
Gd318 O366 2.545 1_655 S
Gd318 O367 2.412 1_655 S
Gd318 O369 2.362 . S
Gd318 O370 2.324 1_655 S
Gd318 C377 2.828 . S
Gd319 N328 2.661 . S
Gd319 N332 2.601 . S
Gd319 O363 2.362 1_556 S
Gd319 O364 2.324 1_455 S
Gd319 O368 2.545 . S
Gd319 O369 2.606 1_456 S
Gd319 O371 2.429 . S
Gd319 O372 2.545 1_455 S
Gd319 O373 2.412 1_455 S
Gd319 C386 2.828 . S
C320 C323 1.417 . S
C320 C325 1.431 . S
C320 C326 1.412 . S
C321 C324 1.437 . S
C321 C325 1.317 . S
C321 H340 0.929 . S
C322 C323 1.426 . S
C322 C324 1.413 . S
C322 N332 1.359 . S
C323 C320 1.417 . S
C323 C322 1.426 . S
C323 N328 1.350 . S
C324 C321 1.437 . S
C324 C322 1.413 . S
C324 C334 1.391 . S
C325 C320 1.431 . S
C325 C321 1.317 . S
C325 H336 0.930 . S
C326 C320 1.412 . S
C326 C327 1.355 . S
C326 H338 0.930 . S
C327 C326 1.355 . S
C327 C329 1.402 . S
C327 H339 0.930 . S
N328 Gd319 2.661 . S
N328 C323 1.350 . S
N328 C329 1.307 . S
C329 C327 1.402 . S
C329 N328 1.307 . S
C329 H330 0.930 . S
H330 C329 0.930 . S
C331 N332 1.334 . S
C331 C333 1.394 . S
C331 H335 0.930 . S
N332 Gd319 2.601 . S
N332 C322 1.359 . S
N332 C331 1.334 . S
C333 C331 1.394 . S
C333 C334 1.359 . S
C333 H345 0.930 . S
C334 C324 1.391 . S
C334 C333 1.359 . S
C334 H346 0.929 . S
H335 C331 0.930 . S
H336 C325 0.930 . S
H337 C354 0.930 . S
H338 C326 0.930 . S
H339 C327 0.930 . S
H340 C321 0.929 . S
H341 C359 0.930 . S
H342 C350 0.930 . S
H343 C351 0.930 . S
H344 C375 0.929 . S
H345 C333 0.930 . S
H346 C334 0.929 . S
H347 C376 0.930 . S
H348 C357 0.930 . S
N349 Gd318 2.661 . S
N349 C353 1.350 . S
N349 C354 1.307 . S
C350 H342 0.930 . S
C350 C351 1.355 . S
C350 C352 1.412 . S
C351 H343 0.930 . S
C351 C350 1.355 . S
C351 C354 1.402 . S
C352 C350 1.412 . S
C352 C353 1.417 . S
C352 C376 1.431 . S
C353 N349 1.350 . S
C353 C352 1.417 . S
C353 C356 1.426 . S
C354 H337 0.930 . S
C354 N349 1.307 . S
C354 C351 1.402 . S
N355 Gd318 2.601 . S
N355 C356 1.359 . S
N355 C359 1.334 . S
C356 C353 1.426 . S
C356 N355 1.359 . S
C356 C360 1.413 . S
C357 H348 0.930 . S
C357 C358 1.359 . S
C357 C359 1.394 . S
C358 C357 1.359 . S
C358 C360 1.391 . S
C358 H361 0.929 . S
C359 H341 0.930 . S
C359 N355 1.334 . S
C359 C357 1.394 . S
C360 C356 1.413 . S
C360 C358 1.391 . S
C360 C375 1.437 . S
H361 C358 0.929 . S
O362 Gd318 2.545 . S
O362 C377 1.258 . S
O363 Gd318 2.606 1_455 S
O363 Gd319 2.362 1_554 S
O363 C374 1.284 . S
O364 Gd319 2.324 1_655 S
O364 C384 1.254 . S
O365 Gd318 2.429 . S
O365 C384 1.268 1_554 S
O366 Gd318 2.545 1_455 S
O366 C374 1.250 . S
O367 Gd318 2.412 1_455 S
O367 C377 1.252 1_455 S
O368 Gd319 2.545 . S
O368 C386 1.258 . S
O369 Gd318 2.362 . S
O369 Gd319 2.606 1_654 S
O369 C385 1.284 1_554 S
O370 Gd318 2.324 1_455 S
O370 C393 1.254 . S
O371 Gd319 2.429 . S
O371 C393 1.268 1_556 S
O372 Gd319 2.545 1_655 S
O372 C385 1.250 . S
O373 Gd319 2.412 1_655 S
O373 C386 1.252 1_655 S
C374 O363 1.284 . S
C374 O366 1.250 . S
C375 H344 0.929 . S
C375 C360 1.437 . S
C375 C376 1.317 . S
C376 H347 0.930 . S
C376 C352 1.431 . S
C376 C375 1.317 . S
C377 Gd318 2.828 . S
C377 O362 1.258 . S
C377 O367 1.252 1_655 S
C377 C378 1.497 1_655 S
C378 C377 1.497 1_455 S
C378 C379 1.395 1_455 S
C378 C380 1.380 . S
C379 C378 1.395 1_655 S
C379 C382 1.398 . S
C379 H394 0.930 . S
C380 C378 1.380 . S
C380 C381 1.391 . S
C380 H395 0.930 . S
C381 C380 1.391 . S
C381 C383 1.387 . S
C382 C379 1.398 . S
C382 C383 1.380 1_655 S
C382 H396 0.930 . S
C383 C381 1.387 . S
C383 C382 1.380 1_455 S
C383 H397 0.930 . S
C384 O364 1.254 . S
C384 O365 1.268 1_556 S
C385 O369 1.284 1_556 S
C385 O372 1.250 . S
C386 Gd319 2.828 . S
C386 O368 1.258 . S
C386 O373 1.252 1_455 S
C386 C387 1.497 . S
C387 C386 1.497 . S
C387 C388 1.395 . S
C387 C389 1.380 1_455 S
C388 C387 1.395 . S
C388 C391 1.398 . S
C388 H398 0.930 . S
C389 C387 1.380 1_655 S
C389 C390 1.391 . S
C389 H399 0.930 . S
C390 C389 1.391 . S
C390 C392 1.387 . S
C391 C388 1.398 . S
C391 C392 1.380 1_455 S
C391 H400 0.930 . S
C392 C390 1.387 . S
C392 C391 1.380 1_655 S
C392 H401 0.930 . S
C393 O370 1.254 . S
C393 O371 1.268 1_554 S
H394 C379 0.930 . S
H395 C380 0.930 . S
H396 C382 0.930 . S
H397 C383 0.930 . S
H398 C388 0.930 . S
H399 C389 0.930 . S
H400 C391 0.930 . S
H401 C392 0.930 . S
Gd402 N433 2.661 . S
Gd402 N439 2.601 . S
Gd402 O446 2.545 . S
Gd402 O447 2.606 1_556 S
Gd402 O449 2.429 . S
Gd402 O450 2.545 . S
Gd402 O451 2.412 . S
Gd402 O453 2.362 1_556 S
Gd402 O454 2.324 . S
Gd402 C461 2.828 . S
Gd403 N412 2.661 . S
Gd403 N416 2.601 . S
Gd403 O447 2.362 . S
Gd403 O448 2.324 . S
Gd403 O452 2.545 . S
Gd403 O453 2.606 . S
Gd403 O455 2.429 . S
Gd403 O456 2.545 . S
Gd403 O457 2.412 . S
Gd403 C470 2.828 . S
C404 C407 1.417 . S
C404 C409 1.431 . S
C404 C410 1.412 . S
C405 C408 1.437 . S
C405 C409 1.317 . S
C405 H424 0.929 . S
C406 C407 1.426 . S
C406 C408 1.413 . S
C406 N416 1.359 . S
C407 C404 1.417 . S
C407 C406 1.426 . S
C407 N412 1.350 . S
C408 C405 1.437 . S
C408 C406 1.413 . S
C408 C418 1.391 . S
C409 C404 1.431 . S
C409 C405 1.317 . S
C409 H420 0.930 . S
C410 C404 1.412 . S
C410 C411 1.355 . S
C410 H422 0.930 . S
C411 C410 1.355 . S
C411 C413 1.402 . S
C411 H423 0.930 . S
N412 Gd403 2.661 . S
N412 C407 1.350 . S
N412 C413 1.307 . S
C413 C411 1.402 . S
C413 N412 1.307 . S
C413 H414 0.930 . S
H414 C413 0.930 . S
C415 N416 1.334 . S
C415 C417 1.394 . S
C415 H419 0.930 . S
N416 Gd403 2.601 . S
N416 C406 1.359 . S
N416 C415 1.334 . S
C417 C415 1.394 . S
C417 C418 1.359 . S
C417 H429 0.930 . S
C418 C408 1.391 . S
C418 C417 1.359 . S
C418 H430 0.929 . S
H419 C415 0.930 . S
H420 C409 0.930 . S
H421 C438 0.930 . S
H422 C410 0.930 . S
H423 C411 0.930 . S
H424 C405 0.929 . S
H425 C443 0.930 . S
H426 C434 0.930 . S
H427 C435 0.930 . S
H428 C459 0.929 . S
H429 C417 0.930 . S
H430 C418 0.929 . S
H431 C460 0.930 . S
H432 C441 0.930 . S
N433 Gd402 2.661 . S
N433 C437 1.350 . S
N433 C438 1.307 . S
C434 H426 0.930 . S
C434 C435 1.355 . S
C434 C436 1.412 . S
C435 H427 0.930 . S
C435 C434 1.355 . S
C435 C438 1.402 . S
C436 C434 1.412 . S
C436 C437 1.417 . S
C436 C460 1.431 . S
C437 N433 1.350 . S
C437 C436 1.417 . S
C437 C440 1.426 . S
C438 H421 0.930 . S
C438 N433 1.307 . S
C438 C435 1.402 . S
N439 Gd402 2.601 . S
N439 C440 1.359 . S
N439 C443 1.334 . S
C440 C437 1.426 . S
C440 N439 1.359 . S
C440 C444 1.413 . S
C441 H432 0.930 . S
C441 C442 1.359 . S
C441 C443 1.394 . S
C442 C441 1.359 . S
C442 C444 1.391 . S
C442 H445 0.929 . S
C443 H425 0.930 . S
C443 N439 1.334 . S
C443 C441 1.394 . S
C444 C440 1.413 . S
C444 C442 1.391 . S
C444 C459 1.437 . S
H445 C442 0.929 . S
O446 Gd402 2.545 . S
O446 C461 1.258 . S
O447 Gd402 2.606 1_554 S
O447 Gd403 2.362 . S
O447 C458 1.284 1_554 S
O448 Gd403 2.324 . S
O448 C468 1.254 . S
O449 Gd402 2.429 . S
O449 C468 1.268 1_556 S
O450 Gd402 2.545 . S
O450 C458 1.250 . S
O451 Gd402 2.412 . S
O451 C461 1.252 . S
O452 Gd403 2.545 . S
O452 C470 1.258 . S
O453 Gd402 2.362 1_554 S
O453 Gd403 2.606 . S
O453 C469 1.284 . S
O454 Gd402 2.324 . S
O454 C477 1.254 . S
O455 Gd403 2.429 . S
O455 C477 1.268 1_554 S
O456 Gd403 2.545 . S
O456 C469 1.250 . S
O457 Gd403 2.412 . S
O457 C470 1.252 . S
C458 O447 1.284 1_556 S
C458 O450 1.250 . S
C459 H428 0.929 . S
C459 C444 1.437 . S
C459 C460 1.317 . S
C460 H431 0.930 . S
C460 C436 1.431 . S
C460 C459 1.317 . S
C461 Gd402 2.828 . S
C461 O446 1.258 . S
C461 O451 1.252 . S
C461 C462 1.497 . S
C462 C461 1.497 . S
C462 C463 1.395 . S
C462 C464 1.380 . S
C463 C462 1.395 . S
C463 C466 1.398 . S
C463 H478 0.930 . S
C464 C462 1.380 . S
C464 C465 1.391 . S
C464 H479 0.930 . S
C465 C464 1.391 . S
C465 C467 1.387 . S
C466 C463 1.398 . S
C466 C467 1.380 . S
C466 H480 0.930 . S
C467 C465 1.387 . S
C467 C466 1.380 . S
C467 H481 0.930 . S
C468 O448 1.254 . S
C468 O449 1.268 1_554 S
C469 O453 1.284 . S
C469 O456 1.250 . S
C470 Gd403 2.828 . S
C470 O452 1.258 . S
C470 O457 1.252 . S
C470 C471 1.497 . S
C471 C470 1.497 . S
C471 C472 1.395 . S
C471 C473 1.380 . S
C472 C471 1.395 . S
C472 C475 1.398 . S
C472 H482 0.930 . S
C473 C471 1.380 . S
C473 C474 1.391 . S
C473 H483 0.930 . S
C474 C473 1.391 . S
C474 C476 1.387 . S
C475 C472 1.398 . S
C475 C476 1.380 . S
C475 H484 0.930 . S
C476 C474 1.387 . S
C476 C475 1.380 . S
C476 H485 0.930 . S
C477 O454 1.254 . S
C477 O455 1.268 1_556 S
H478 C463 0.930 . S
H479 C464 0.930 . S
H480 C466 0.930 . S
H481 C467 0.930 . S
H482 C472 0.930 . S
H483 C473 0.930 . S
H484 C475 0.930 . S
H485 C476 0.930 . S
Gd486 N517 2.661 . S
Gd486 N523 2.601 . S
Gd486 O530 2.545 . S
Gd486 O531 2.606 . S
Gd486 O533 2.429 . S
Gd486 O534 2.545 . S
Gd486 O535 2.412 . S
Gd486 O537 2.362 . S
Gd486 O538 2.324 . S
Gd486 C545 2.828 . S
Gd487 N496 2.661 . S
Gd487 N500 2.601 . S
Gd487 O531 2.362 . S
Gd487 O532 2.324 . S
Gd487 O536 2.545 . S
Gd487 O537 2.606 . S
Gd487 O539 2.429 . S
Gd487 O540 2.545 . S
Gd487 O541 2.412 . S
Gd487 C554 2.828 . S
C488 C491 1.417 1_655 S
C488 C493 1.431 . S
C488 C494 1.412 . S
C489 C492 1.437 1_655 S
C489 C493 1.317 . S
C489 H508 0.929 . S
C490 C491 1.426 . S
C490 C492 1.413 . S
C490 N500 1.359 . S
C491 C488 1.417 1_455 S
C491 C490 1.426 . S
C491 N496 1.350 . S
C492 C489 1.437 1_455 S
C492 C490 1.413 . S
C492 C502 1.391 . S
C493 C488 1.431 . S
C493 C489 1.317 . S
C493 H504 0.930 . S
C494 C488 1.412 . S
C494 C495 1.355 . S
C494 H506 0.930 . S
C495 C494 1.355 . S
C495 C497 1.402 1_655 S
C495 H507 0.930 . S
N496 Gd487 2.661 . S
N496 C491 1.350 . S
N496 C497 1.307 . S
C497 C495 1.402 1_455 S
C497 N496 1.307 . S
C497 H498 0.930 . S
H498 C497 0.930 . S
C499 N500 1.334 . S
C499 C501 1.394 . S
C499 H503 0.930 . S
N500 Gd487 2.601 . S
N500 C490 1.359 . S
N500 C499 1.334 . S
C501 C499 1.394 . S
C501 C502 1.359 . S
C501 H513 0.930 . S
C502 C492 1.391 . S
C502 C501 1.359 . S
C502 H514 0.929 . S
H503 C499 0.930 . S
H504 C493 0.930 . S
H505 C522 0.930 . S
H506 C494 0.930 . S
H507 C495 0.930 . S
H508 C489 0.929 . S
H509 C527 0.930 . S
H510 C518 0.930 . S
H511 C519 0.930 . S
H512 C543 0.929 . S
H513 C501 0.930 . S
H514 C502 0.929 . S
H515 C544 0.930 . S
H516 C525 0.930 . S
N517 Gd486 2.661 . S
N517 C521 1.350 . S
N517 C522 1.307 . S
C518 H510 0.930 . S
C518 C519 1.355 . S
C518 C520 1.412 . S
C519 H511 0.930 . S
C519 C518 1.355 . S
C519 C522 1.402 . S
C520 C518 1.412 . S
C520 C521 1.417 . S
C520 C544 1.431 . S
C521 N517 1.350 . S
C521 C520 1.417 . S
C521 C524 1.426 . S
C522 H505 0.930 . S
C522 N517 1.307 . S
C522 C519 1.402 . S
N523 Gd486 2.601 . S
N523 C524 1.359 . S
N523 C527 1.334 . S
C524 C521 1.426 . S
C524 N523 1.359 . S
C524 C528 1.413 . S
C525 H516 0.930 . S
C525 C526 1.359 . S
C525 C527 1.394 . S
C526 C525 1.359 . S
C526 C528 1.391 . S
C526 H529 0.929 . S
C527 H509 0.930 . S
C527 N523 1.334 . S
C527 C525 1.394 . S
C528 C524 1.413 . S
C528 C526 1.391 . S
C528 C543 1.437 . S
H529 C526 0.929 . S
O530 Gd486 2.545 . S
O530 C545 1.258 . S
O531 Gd486 2.606 . S
O531 Gd487 2.362 . S
O531 C542 1.284 . S
O532 Gd487 2.324 . S
O532 C552 1.254 . S
O533 Gd486 2.429 . S
O533 C552 1.268 . S
O534 Gd486 2.545 . S
O534 C542 1.250 . S
O535 Gd486 2.412 . S
O535 C545 1.252 . S
O536 Gd487 2.545 . S
O536 C554 1.258 . S
O537 Gd486 2.362 . S
O537 Gd487 2.606 . S
O537 C553 1.284 . S
O538 Gd486 2.324 . S
O538 C561 1.254 . S
O539 Gd487 2.429 . S
O539 C561 1.268 . S
O540 Gd487 2.545 . S
O540 C553 1.250 . S
O541 Gd487 2.412 . S
O541 C554 1.252 . S
C542 O531 1.284 . S
C542 O534 1.250 . S
C543 H512 0.929 . S
C543 C528 1.437 . S
C543 C544 1.317 . S
C544 H515 0.930 . S
C544 C520 1.431 . S
C544 C543 1.317 . S
C545 Gd486 2.828 . S
C545 O530 1.258 . S
C545 O535 1.252 . S
C545 C546 1.497 . S
C546 C545 1.497 . S
C546 C547 1.395 . S
C546 C548 1.380 . S
C547 C546 1.395 . S
C547 C550 1.398 . S
C547 H562 0.930 . S
C548 C546 1.380 . S
C548 C549 1.391 . S
C548 H563 0.930 . S
C549 C548 1.391 . S
C549 C551 1.387 . S
C550 C547 1.398 . S
C550 C551 1.380 . S
C550 H564 0.930 . S
C551 C549 1.387 . S
C551 C550 1.380 . S
C551 H565 0.930 . S
C552 O532 1.254 . S
C552 O533 1.268 . S
C553 O537 1.284 . S
C553 O540 1.250 . S
C554 Gd487 2.828 . S
C554 O536 1.258 . S
C554 O541 1.252 . S
C554 C555 1.497 . S
C555 C554 1.497 . S
C555 C556 1.395 . S
C555 C557 1.380 . S
C556 C555 1.395 . S
C556 C559 1.398 . S
C556 H566 0.930 . S
C557 C555 1.380 . S
C557 C558 1.391 . S
C557 H567 0.930 . S
C558 C557 1.391 . S
C558 C560 1.387 . S
C559 C556 1.398 . S
C559 C560 1.380 . S
C559 H568 0.930 . S
C560 C558 1.387 . S
C560 C559 1.380 . S
C560 H569 0.930 . S
C561 O538 1.254 . S
C561 O539 1.268 . S
H562 C547 0.930 . S
H563 C548 0.930 . S
H564 C550 0.930 . S
H565 C551 0.930 . S
H566 C556 0.930 . S
H567 C557 0.930 . S
H568 C559 0.930 . S
H569 C560 0.930 . S
Gd570 N601 2.661 . S
Gd570 N607 2.601 . S
Gd570 O614 2.545 . S
Gd570 O615 2.606 . S
Gd570 O617 2.429 . S
Gd570 O618 2.545 . S
Gd570 O619 2.412 . S
Gd570 O621 2.362 . S
Gd570 O622 2.324 . S
Gd570 C629 2.828 . S
Gd571 N580 2.661 . S
Gd571 N584 2.601 . S
Gd571 O615 2.362 . S
Gd571 O616 2.324 . S
Gd571 O620 2.545 . S
Gd571 O621 2.606 . S
Gd571 O623 2.429 . S
Gd571 O624 2.545 . S
Gd571 O625 2.412 . S
Gd571 C638 2.828 . S
C572 C575 1.417 . S
C572 C577 1.431 . S
C572 C578 1.412 . S
C573 C576 1.437 . S
C573 C577 1.317 . S
C573 H592 0.929 . S
C574 C575 1.426 . S
C574 C576 1.413 . S
C574 N584 1.359 . S
C575 C572 1.417 . S
C575 C574 1.426 . S
C575 N580 1.350 . S
C576 C573 1.437 . S
C576 C574 1.413 . S
C576 C586 1.391 . S
C577 C572 1.431 . S
C577 C573 1.317 . S
C577 H588 0.930 . S
C578 C572 1.412 . S
C578 C579 1.355 . S
C578 H590 0.930 . S
C579 C578 1.355 . S
C579 C581 1.402 . S
C579 H591 0.930 . S
N580 Gd571 2.661 . S
N580 C575 1.350 . S
N580 C581 1.307 . S
C581 C579 1.402 . S
C581 N580 1.307 . S
C581 H582 0.930 . S
H582 C581 0.930 . S
C583 N584 1.334 . S
C583 C585 1.394 . S
C583 H587 0.930 . S
N584 Gd571 2.601 . S
N584 C574 1.359 . S
N584 C583 1.334 . S
C585 C583 1.394 . S
C585 C586 1.359 . S
C585 H597 0.930 . S
C586 C576 1.391 . S
C586 C585 1.359 . S
C586 H598 0.929 . S
H587 C583 0.930 . S
H588 C577 0.930 . S
H589 C606 0.930 . S
H590 C578 0.930 . S
H591 C579 0.930 . S
H592 C573 0.929 . S
H593 C611 0.930 . S
H594 C602 0.930 . S
H595 C603 0.930 . S
H596 C627 0.929 . S
H597 C585 0.930 . S
H598 C586 0.929 . S
H599 C628 0.930 . S
H600 C609 0.930 . S
N601 Gd570 2.661 . S
N601 C605 1.350 . S
N601 C606 1.307 . S
C602 H594 0.930 . S
C602 C603 1.355 . S
C602 C604 1.412 . S
C603 H595 0.930 . S
C603 C602 1.355 . S
C603 C606 1.402 . S
C604 C602 1.412 . S
C604 C605 1.417 . S
C604 C628 1.431 . S
C605 N601 1.350 . S
C605 C604 1.417 . S
C605 C608 1.426 . S
C606 H589 0.930 . S
C606 N601 1.307 . S
C606 C603 1.402 . S
N607 Gd570 2.601 . S
N607 C608 1.359 . S
N607 C611 1.334 . S
C608 C605 1.426 . S
C608 N607 1.359 . S
C608 C612 1.413 . S
C609 H600 0.930 . S
C609 C610 1.359 . S
C609 C611 1.394 . S
C610 C609 1.359 . S
C610 C612 1.391 . S
C610 H613 0.929 . S
C611 H593 0.930 . S
C611 N607 1.334 . S
C611 C609 1.394 . S
C612 C608 1.413 . S
C612 C610 1.391 . S
C612 C627 1.437 . S
H613 C610 0.929 . S
O614 Gd570 2.545 . S
O614 C629 1.258 . S
O615 Gd570 2.606 . S
O615 Gd571 2.362 . S
O615 C626 1.284 . S
O616 Gd571 2.324 . S
O616 C636 1.254 . S
O617 Gd570 2.429 . S
O617 C636 1.268 . S
O618 Gd570 2.545 . S
O618 C626 1.250 . S
O619 Gd570 2.412 . S
O619 C629 1.252 . S
O620 Gd571 2.545 . S
O620 C638 1.258 . S
O621 Gd570 2.362 . S
O621 Gd571 2.606 . S
O621 C637 1.284 . S
O622 Gd570 2.324 . S
O622 C645 1.254 . S
O623 Gd571 2.429 . S
O623 C645 1.268 . S
O624 Gd571 2.545 . S
O624 C637 1.250 . S
O625 Gd571 2.412 . S
O625 C638 1.252 . S
C626 O615 1.284 . S
C626 O618 1.250 . S
C627 H596 0.929 . S
C627 C612 1.437 . S
C627 C628 1.317 . S
C628 H599 0.930 . S
C628 C604 1.431 . S
C628 C627 1.317 . S
C629 Gd570 2.828 . S
C629 O614 1.258 . S
C629 O619 1.252 . S
C629 C630 1.497 . S
C630 C629 1.497 . S
C630 C631 1.395 . S
C630 C632 1.380 . S
C631 C630 1.395 . S
C631 C634 1.398 . S
C631 H646 0.930 . S
C632 C630 1.380 . S
C632 C633 1.391 . S
C632 H647 0.930 . S
C633 C632 1.391 . S
C633 C635 1.387 . S
C634 C631 1.398 . S
C634 C635 1.380 . S
C634 H648 0.930 . S
C635 C633 1.387 . S
C635 C634 1.380 . S
C635 H649 0.930 . S
C636 O616 1.254 . S
C636 O617 1.268 . S
C637 O621 1.284 . S
C637 O624 1.250 . S
C638 Gd571 2.828 . S
C638 O620 1.258 . S
C638 O625 1.252 . S
C638 C639 1.497 . S
C639 C638 1.497 . S
C639 C640 1.395 . S
C639 C641 1.380 . S
C640 C639 1.395 . S
C640 C643 1.398 . S
C640 H650 0.930 . S
C641 C639 1.380 . S
C641 C642 1.391 . S
C641 H651 0.930 . S
C642 C641 1.391 . S
C642 C644 1.387 . S
C643 C640 1.398 . S
C643 C644 1.380 . S
C643 H652 0.930 . S
C644 C642 1.387 . S
C644 C643 1.380 . S
C644 H653 0.930 . S
C645 O622 1.254 . S
C645 O623 1.268 . S
H646 C631 0.930 . S
H647 C632 0.930 . S
H648 C634 0.930 . S
H649 C635 0.930 . S
H650 C640 0.930 . S
H651 C641 0.930 . S
H652 C643 0.930 . S
H653 C644 0.930 . S
Gd654 N685 2.661 . S
Gd654 N691 2.601 . S
Gd654 O698 2.545 . S
Gd654 O699 2.606 . S
Gd654 O701 2.429 . S
Gd654 O702 2.545 . S
Gd654 O703 2.412 . S
Gd654 O705 2.362 . S
Gd654 O706 2.324 . S
Gd654 C713 2.828 . S
Gd655 N664 2.661 . S
Gd655 N668 2.601 . S
Gd655 O699 2.362 . S
Gd655 O700 2.324 . S
Gd655 O704 2.545 . S
Gd655 O705 2.606 . S
Gd655 O707 2.429 . S
Gd655 O708 2.545 . S
Gd655 O709 2.412 . S
Gd655 C722 2.828 . S
C656 C659 1.417 . S
C656 C661 1.431 . S
C656 C662 1.412 . S
C657 C660 1.437 . S
C657 C661 1.317 . S
C657 H676 0.929 . S
C658 C659 1.426 . S
C658 C660 1.413 . S
C658 N668 1.359 . S
C659 C656 1.417 . S
C659 C658 1.426 . S
C659 N664 1.350 . S
C660 C657 1.437 . S
C660 C658 1.413 . S
C660 C670 1.391 . S
C661 C656 1.431 . S
C661 C657 1.317 . S
C661 H672 0.930 . S
C662 C656 1.412 . S
C662 C663 1.355 . S
C662 H674 0.930 . S
C663 C662 1.355 . S
C663 C665 1.402 . S
C663 H675 0.930 . S
N664 Gd655 2.661 . S
N664 C659 1.350 . S
N664 C665 1.307 . S
C665 C663 1.402 . S
C665 N664 1.307 . S
C665 H666 0.930 . S
H666 C665 0.930 . S
C667 N668 1.334 . S
C667 C669 1.394 . S
C667 H671 0.930 . S
N668 Gd655 2.601 . S
N668 C658 1.359 . S
N668 C667 1.334 . S
C669 C667 1.394 . S
C669 C670 1.359 . S
C669 H681 0.930 . S
C670 C660 1.391 . S
C670 C669 1.359 . S
C670 H682 0.929 . S
H671 C667 0.930 . S
H672 C661 0.930 . S
H673 C690 0.930 . S
H674 C662 0.930 . S
H675 C663 0.930 . S
H676 C657 0.929 . S
H677 C695 0.930 . S
H678 C686 0.930 . S
H679 C687 0.930 . S
H680 C711 0.929 . S
H681 C669 0.930 . S
H682 C670 0.929 . S
H683 C712 0.930 . S
H684 C693 0.930 . S
N685 Gd654 2.661 . S
N685 C689 1.350 . S
N685 C690 1.307 . S
C686 H678 0.930 . S
C686 C687 1.355 . S
C686 C688 1.412 . S
C687 H679 0.930 . S
C687 C686 1.355 . S
C687 C690 1.402 . S
C688 C686 1.412 . S
C688 C689 1.417 . S
C688 C712 1.431 . S
C689 N685 1.350 . S
C689 C688 1.417 . S
C689 C692 1.426 . S
C690 H673 0.930 . S
C690 N685 1.307 . S
C690 C687 1.402 . S
N691 Gd654 2.601 . S
N691 C692 1.359 . S
N691 C695 1.334 . S
C692 C689 1.426 . S
C692 N691 1.359 . S
C692 C696 1.413 . S
C693 H684 0.930 . S
C693 C694 1.359 . S
C693 C695 1.394 . S
C694 C693 1.359 . S
C694 C696 1.391 . S
C694 H697 0.929 . S
C695 H677 0.930 . S
C695 N691 1.334 . S
C695 C693 1.394 . S
C696 C692 1.413 . S
C696 C694 1.391 . S
C696 C711 1.437 . S
H697 C694 0.929 . S
O698 Gd654 2.545 . S
O698 C713 1.258 . S
O699 Gd654 2.606 . S
O699 Gd655 2.362 . S
O699 C710 1.284 . S
O700 Gd655 2.324 . S
O700 C720 1.254 . S
O701 Gd654 2.429 . S
O701 C720 1.268 . S
O702 Gd654 2.545 . S
O702 C710 1.250 . S
O703 Gd654 2.412 . S
O703 C713 1.252 . S
O704 Gd655 2.545 . S
O704 C722 1.258 . S
O705 Gd654 2.362 . S
O705 Gd655 2.606 . S
O705 C721 1.284 . S
O706 Gd654 2.324 . S
O706 C729 1.254 . S
O707 Gd655 2.429 . S
O707 C729 1.268 . S
O708 Gd655 2.545 . S
O708 C721 1.250 . S
O709 Gd655 2.412 . S
O709 C722 1.252 . S
C710 O699 1.284 . S
C710 O702 1.250 . S
C711 H680 0.929 . S
C711 C696 1.437 . S
C711 C712 1.317 . S
C712 H683 0.930 . S
C712 C688 1.431 . S
C712 C711 1.317 . S
C713 Gd654 2.828 . S
C713 O698 1.258 . S
C713 O703 1.252 . S
C713 C714 1.497 . S
C714 C713 1.497 . S
C714 C715 1.395 . S
C714 C716 1.380 . S
C715 C714 1.395 . S
C715 C718 1.398 . S
C715 H730 0.930 . S
C716 C714 1.380 . S
C716 C717 1.391 . S
C716 H731 0.930 . S
C717 C716 1.391 . S
C717 C719 1.387 . S
C718 C715 1.398 . S
C718 C719 1.380 . S
C718 H732 0.930 . S
C719 C717 1.387 . S
C719 C718 1.380 . S
C719 H733 0.930 . S
C720 O700 1.254 . S
C720 O701 1.268 . S
C721 O705 1.284 . S
C721 O708 1.250 . S
C722 Gd655 2.828 . S
C722 O704 1.258 . S
C722 O709 1.252 . S
C722 C723 1.497 . S
C723 C722 1.497 . S
C723 C724 1.395 . S
C723 C725 1.380 . S
C724 C723 1.395 . S
C724 C727 1.398 . S
C724 H734 0.930 . S
C725 C723 1.380 . S
C725 C726 1.391 . S
C725 H735 0.930 . S
C726 C725 1.391 . S
C726 C728 1.387 . S
C727 C724 1.398 . S
C727 C728 1.380 . S
C727 H736 0.930 . S
C728 C726 1.387 . S
C728 C727 1.380 . S
C728 H737 0.930 . S
C729 O706 1.254 . S
C729 O707 1.268 . S
H730 C715 0.930 . S
H731 C716 0.930 . S
H732 C718 0.930 . S
H733 C719 0.930 . S
H734 C724 0.930 . S
H735 C725 0.930 . S
H736 C727 0.930 . S
H737 C728 0.930 . S
Gd738 N769 2.661 . S
Gd738 N775 2.601 . S
Gd738 O782 2.545 . S
Gd738 O783 2.606 . S
Gd738 O785 2.429 . S
Gd738 O786 2.545 . S
Gd738 O787 2.412 . S
Gd738 O789 2.362 . S
Gd738 O790 2.324 . S
Gd738 C797 2.828 . S
Gd739 N748 2.661 . S
Gd739 N752 2.601 . S
Gd739 O783 2.362 . S
Gd739 O784 2.324 . S
Gd739 O788 2.545 . S
Gd739 O789 2.606 . S
Gd739 O791 2.429 . S
Gd739 O792 2.545 . S
Gd739 O793 2.412 . S
Gd739 C806 2.828 . S
C740 C743 1.417 . S
C740 C745 1.431 . S
C740 C746 1.412 . S
C741 C744 1.437 . S
C741 C745 1.317 . S
C741 H760 0.929 . S
C742 C743 1.426 . S
C742 C744 1.413 . S
C742 N752 1.359 . S
C743 C740 1.417 . S
C743 C742 1.426 . S
C743 N748 1.350 . S
C744 C741 1.437 . S
C744 C742 1.413 . S
C744 C754 1.391 . S
C745 C740 1.431 . S
C745 C741 1.317 . S
C745 H756 0.930 . S
C746 C740 1.412 . S
C746 C747 1.355 . S
C746 H758 0.930 . S
C747 C746 1.355 . S
C747 C749 1.402 . S
C747 H759 0.930 . S
N748 Gd739 2.661 . S
N748 C743 1.350 . S
N748 C749 1.307 . S
C749 C747 1.402 . S
C749 N748 1.307 . S
C749 H750 0.930 . S
H750 C749 0.930 . S
C751 N752 1.334 . S
C751 C753 1.394 . S
C751 H755 0.930 . S
N752 Gd739 2.601 . S
N752 C742 1.359 . S
N752 C751 1.334 . S
C753 C751 1.394 . S
C753 C754 1.359 . S
C753 H765 0.930 . S
C754 C744 1.391 . S
C754 C753 1.359 . S
C754 H766 0.929 . S
H755 C751 0.930 . S
H756 C745 0.930 . S
H757 C774 0.930 . S
H758 C746 0.930 . S
H759 C747 0.930 . S
H760 C741 0.929 . S
H761 C779 0.930 . S
H762 C770 0.930 . S
H763 C771 0.930 . S
H764 C795 0.929 . S
H765 C753 0.930 . S
H766 C754 0.929 . S
H767 C796 0.930 . S
H768 C777 0.930 . S
N769 Gd738 2.661 . S
N769 C773 1.350 . S
N769 C774 1.307 . S
C770 H762 0.930 . S
C770 C771 1.355 . S
C770 C772 1.412 . S
C771 H763 0.930 . S
C771 C770 1.355 . S
C771 C774 1.402 . S
C772 C770 1.412 . S
C772 C773 1.417 . S
C772 C796 1.431 . S
C773 N769 1.350 . S
C773 C772 1.417 . S
C773 C776 1.426 . S
C774 H757 0.930 . S
C774 N769 1.307 . S
C774 C771 1.402 . S
N775 Gd738 2.601 . S
N775 C776 1.359 . S
N775 C779 1.334 . S
C776 C773 1.426 . S
C776 N775 1.359 . S
C776 C780 1.413 . S
C777 H768 0.930 . S
C777 C778 1.359 . S
C777 C779 1.394 . S
C778 C777 1.359 . S
C778 C780 1.391 . S
C778 H781 0.929 . S
C779 H761 0.930 . S
C779 N775 1.334 . S
C779 C777 1.394 . S
C780 C776 1.413 . S
C780 C778 1.391 . S
C780 C795 1.437 . S
H781 C778 0.929 . S
O782 Gd738 2.545 . S
O782 C797 1.258 . S
O783 Gd738 2.606 . S
O783 Gd739 2.362 . S
O783 C794 1.284 . S
O784 Gd739 2.324 . S
O784 C804 1.254 . S
O785 Gd738 2.429 . S
O785 C804 1.268 . S
O786 Gd738 2.545 . S
O786 C794 1.250 . S
O787 Gd738 2.412 . S
O787 C797 1.252 . S
O788 Gd739 2.545 . S
O788 C806 1.258 . S
O789 Gd738 2.362 . S
O789 Gd739 2.606 . S
O789 C805 1.284 . S
O790 Gd738 2.324 . S
O790 C813 1.254 . S
O791 Gd739 2.429 . S
O791 C813 1.268 . S
O792 Gd739 2.545 . S
O792 C805 1.250 . S
O793 Gd739 2.412 . S
O793 C806 1.252 . S
C794 O783 1.284 . S
C794 O786 1.250 . S
C795 H764 0.929 . S
C795 C780 1.437 . S
C795 C796 1.317 . S
C796 H767 0.930 . S
C796 C772 1.431 . S
C796 C795 1.317 . S
C797 Gd738 2.828 . S
C797 O782 1.258 . S
C797 O787 1.252 . S
C797 C798 1.497 . S
C798 C797 1.497 . S
C798 C799 1.395 . S
C798 C800 1.380 . S
C799 C798 1.395 . S
C799 C802 1.398 . S
C799 H814 0.930 . S
C800 C798 1.380 . S
C800 C801 1.391 . S
C800 H815 0.930 . S
C801 C800 1.391 . S
C801 C803 1.387 . S
C802 C799 1.398 . S
C802 C803 1.380 . S
C802 H816 0.930 . S
C803 C801 1.387 . S
C803 C802 1.380 . S
C803 H817 0.930 . S
C804 O784 1.254 . S
C804 O785 1.268 . S
C805 O789 1.284 . S
C805 O792 1.250 . S
C806 Gd739 2.828 . S
C806 O788 1.258 . S
C806 O793 1.252 . S
C806 C807 1.497 . S
C807 C806 1.497 . S
C807 C808 1.395 . S
C807 C809 1.380 . S
C808 C807 1.395 . S
C808 C811 1.398 . S
C808 H818 0.930 . S
C809 C807 1.380 . S
C809 C810 1.391 . S
C809 H819 0.930 . S
C810 C809 1.391 . S
C810 C812 1.387 . S
C811 C808 1.398 . S
C811 C812 1.380 . S
C811 H820 0.930 . S
C812 C810 1.387 . S
C812 C811 1.380 . S
C812 H821 0.930 . S
C813 O790 1.254 . S
C813 O791 1.268 . S
H814 C799 0.930 . S
H815 C800 0.930 . S
H816 C802 0.930 . S
H817 C803 0.930 . S
H818 C808 0.930 . S
H819 C809 0.930 . S
H820 C811 0.930 . S
H821 C812 0.930 . S
Gd822 N853 2.661 . S
Gd822 N859 2.601 . S
Gd822 O866 2.545 . S
Gd822 O867 2.606 . S
Gd822 O869 2.429 . S
Gd822 O870 2.545 . S
Gd822 O871 2.412 . S
Gd822 O873 2.362 . S
Gd822 O874 2.324 . S
Gd822 C881 2.828 . S
Gd823 N832 2.661 . S
Gd823 N836 2.601 . S
Gd823 O867 2.362 . S
Gd823 O868 2.324 . S
Gd823 O872 2.545 . S
Gd823 O873 2.606 . S
Gd823 O875 2.429 . S
Gd823 O876 2.545 . S
Gd823 O877 2.412 . S
Gd823 C890 2.828 . S
C824 C827 1.417 . S
C824 C829 1.431 . S
C824 C830 1.412 . S
C825 C828 1.437 . S
C825 C829 1.317 . S
C825 H844 0.929 . S
C826 C827 1.426 . S
C826 C828 1.413 . S
C826 N836 1.359 . S
C827 C824 1.417 . S
C827 C826 1.426 . S
C827 N832 1.350 . S
C828 C825 1.437 . S
C828 C826 1.413 . S
C828 C838 1.391 . S
C829 C824 1.431 . S
C829 C825 1.317 . S
C829 H840 0.930 . S
C830 C824 1.412 . S
C830 C831 1.355 . S
C830 H842 0.930 . S
C831 C830 1.355 . S
C831 C833 1.402 . S
C831 H843 0.930 . S
N832 Gd823 2.661 . S
N832 C827 1.350 . S
N832 C833 1.307 . S
C833 C831 1.402 . S
C833 N832 1.307 . S
C833 H834 0.930 . S
H834 C833 0.930 . S
C835 N836 1.334 . S
C835 C837 1.394 . S
C835 H839 0.930 . S
N836 Gd823 2.601 . S
N836 C826 1.359 . S
N836 C835 1.334 . S
C837 C835 1.394 . S
C837 C838 1.359 . S
C837 H849 0.930 . S
C838 C828 1.391 . S
C838 C837 1.359 . S
C838 H850 0.929 . S
H839 C835 0.930 . S
H840 C829 0.930 . S
H841 C858 0.930 . S
H842 C830 0.930 . S
H843 C831 0.930 . S
H844 C825 0.929 . S
H845 C863 0.930 . S
H846 C854 0.930 . S
H847 C855 0.930 . S
H848 C879 0.929 . S
H849 C837 0.930 . S
H850 C838 0.929 . S
H851 C880 0.930 . S
H852 C861 0.930 . S
N853 Gd822 2.661 . S
N853 C857 1.350 . S
N853 C858 1.307 . S
C854 H846 0.930 . S
C854 C855 1.355 . S
C854 C856 1.412 . S
C855 H847 0.930 . S
C855 C854 1.355 . S
C855 C858 1.402 . S
C856 C854 1.412 . S
C856 C857 1.417 . S
C856 C880 1.431 . S
C857 N853 1.350 . S
C857 C856 1.417 . S
C857 C860 1.426 . S
C858 H841 0.930 . S
C858 N853 1.307 . S
C858 C855 1.402 . S
N859 Gd822 2.601 . S
N859 C860 1.359 . S
N859 C863 1.334 . S
C860 C857 1.426 . S
C860 N859 1.359 . S
C860 C864 1.413 . S
C861 H852 0.930 . S
C861 C862 1.359 . S
C861 C863 1.394 . S
C862 C861 1.359 . S
C862 C864 1.391 . S
C862 H865 0.929 . S
C863 H845 0.930 . S
C863 N859 1.334 . S
C863 C861 1.394 . S
C864 C860 1.413 . S
C864 C862 1.391 . S
C864 C879 1.437 . S
H865 C862 0.929 . S
O866 Gd822 2.545 . S
O866 C881 1.258 . S
O867 Gd822 2.606 . S
O867 Gd823 2.362 . S
O867 C878 1.284 . S
O868 Gd823 2.324 . S
O868 C888 1.254 . S
O869 Gd822 2.429 . S
O869 C888 1.268 . S
O870 Gd822 2.545 . S
O870 C878 1.250 . S
O871 Gd822 2.412 . S
O871 C881 1.252 . S
O872 Gd823 2.545 . S
O872 C890 1.258 . S
O873 Gd822 2.362 . S
O873 Gd823 2.606 . S
O873 C889 1.284 . S
O874 Gd822 2.324 . S
O874 C897 1.254 . S
O875 Gd823 2.429 . S
O875 C897 1.268 . S
O876 Gd823 2.545 . S
O876 C889 1.250 . S
O877 Gd823 2.412 . S
O877 C890 1.252 . S
C878 O867 1.284 . S
C878 O870 1.250 . S
C879 H848 0.929 . S
C879 C864 1.437 . S
C879 C880 1.317 . S
C880 H851 0.930 . S
C880 C856 1.431 . S
C880 C879 1.317 . S
C881 Gd822 2.828 . S
C881 O866 1.258 . S
C881 O871 1.252 . S
C881 C882 1.497 . S
C882 C881 1.497 . S
C882 C883 1.395 . S
C882 C884 1.380 . S
C883 C882 1.395 . S
C883 C886 1.398 . S
C883 H898 0.930 . S
C884 C882 1.380 . S
C884 C885 1.391 . S
C884 H899 0.930 . S
C885 C884 1.391 . S
C885 C887 1.387 . S
C886 C883 1.398 . S
C886 C887 1.380 . S
C886 H900 0.930 . S
C887 C885 1.387 . S
C887 C886 1.380 . S
C887 H901 0.930 . S
C888 O868 1.254 . S
C888 O869 1.268 . S
C889 O873 1.284 . S
C889 O876 1.250 . S
C890 Gd823 2.828 . S
C890 O872 1.258 . S
C890 O877 1.252 . S
C890 C891 1.497 . S
C891 C890 1.497 . S
C891 C892 1.395 . S
C891 C893 1.380 . S
C892 C891 1.395 . S
C892 C895 1.398 . S
C892 H902 0.930 . S
C893 C891 1.380 . S
C893 C894 1.391 . S
C893 H903 0.930 . S
C894 C893 1.391 . S
C894 C896 1.387 . S
C895 C892 1.398 . S
C895 C896 1.380 . S
C895 H904 0.930 . S
C896 C894 1.387 . S
C896 C895 1.380 . S
C896 H905 0.930 . S
C897 O874 1.254 . S
C897 O875 1.268 . S
H898 C883 0.930 . S
H899 C884 0.930 . S
H900 C886 0.930 . S
H901 C887 0.930 . S
H902 C892 0.930 . S
H903 C893 0.930 . S
H904 C895 0.930 . S
H905 C896 0.930 . S
Gd906 N937 2.661 . S
Gd906 N943 2.601 . S
Gd906 O950 2.545 . S
Gd906 O951 2.606 . S
Gd906 O953 2.429 . S
Gd906 O954 2.545 . S
Gd906 O955 2.412 . S
Gd906 O957 2.362 . S
Gd906 O958 2.324 . S
Gd906 C965 2.828 . S
Gd907 N916 2.661 . S
Gd907 N920 2.601 . S
Gd907 O951 2.362 . S
Gd907 O952 2.324 . S
Gd907 O956 2.545 . S
Gd907 O957 2.606 . S
Gd907 O959 2.429 . S
Gd907 O960 2.545 . S
Gd907 O961 2.412 . S
Gd907 C974 2.828 . S
C908 C911 1.417 1_455 S
C908 C913 1.431 . S
C908 C914 1.412 . S
C909 C912 1.437 1_455 S
C909 C913 1.317 . S
C909 H928 0.929 . S
C910 C911 1.426 . S
C910 C912 1.413 . S
C910 N920 1.359 . S
C911 C908 1.417 1_655 S
C911 C910 1.426 . S
C911 N916 1.350 . S
C912 C909 1.437 1_655 S
C912 C910 1.413 . S
C912 C922 1.391 . S
C913 C908 1.431 . S
C913 C909 1.317 . S
C913 H924 0.930 . S
C914 C908 1.412 . S
C914 C915 1.355 . S
C914 H926 0.930 . S
C915 C914 1.355 . S
C915 C917 1.402 1_455 S
C915 H927 0.930 . S
N916 Gd907 2.661 . S
N916 C911 1.350 . S
N916 C917 1.307 . S
C917 C915 1.402 1_655 S
C917 N916 1.307 . S
C917 H918 0.930 . S
H918 C917 0.930 . S
C919 N920 1.334 . S
C919 C921 1.394 . S
C919 H923 0.930 . S
N920 Gd907 2.601 . S
N920 C910 1.359 . S
N920 C919 1.334 . S
C921 C919 1.394 . S
C921 C922 1.359 . S
C921 H933 0.930 . S
C922 C912 1.391 . S
C922 C921 1.359 . S
C922 H934 0.929 . S
H923 C919 0.930 . S
H924 C913 0.930 . S
H925 C942 0.930 . S
H926 C914 0.930 . S
H927 C915 0.930 . S
H928 C909 0.929 . S
H929 C947 0.930 . S
H930 C938 0.930 . S
H931 C939 0.930 . S
H932 C963 0.929 . S
H933 C921 0.930 . S
H934 C922 0.929 . S
H935 C964 0.930 . S
H936 C945 0.930 . S
N937 Gd906 2.661 . S
N937 C941 1.350 . S
N937 C942 1.307 . S
C938 H930 0.930 . S
C938 C939 1.355 . S
C938 C940 1.412 . S
C939 H931 0.930 . S
C939 C938 1.355 . S
C939 C942 1.402 . S
C940 C938 1.412 . S
C940 C941 1.417 . S
C940 C964 1.431 . S
C941 N937 1.350 . S
C941 C940 1.417 . S
C941 C944 1.426 . S
C942 H925 0.930 . S
C942 N937 1.307 . S
C942 C939 1.402 . S
N943 Gd906 2.601 . S
N943 C944 1.359 . S
N943 C947 1.334 . S
C944 C941 1.426 . S
C944 N943 1.359 . S
C944 C948 1.413 . S
C945 H936 0.930 . S
C945 C946 1.359 . S
C945 C947 1.394 . S
C946 C945 1.359 . S
C946 C948 1.391 . S
C946 H949 0.929 . S
C947 H929 0.930 . S
C947 N943 1.334 . S
C947 C945 1.394 . S
C948 C944 1.413 . S
C948 C946 1.391 . S
C948 C963 1.437 . S
H949 C946 0.929 . S
O950 Gd906 2.545 . S
O950 C965 1.258 . S
O951 Gd906 2.606 . S
O951 Gd907 2.362 . S
O951 C962 1.284 . S
O952 Gd907 2.324 . S
O952 C972 1.254 . S
O953 Gd906 2.429 . S
O953 C972 1.268 . S
O954 Gd906 2.545 . S
O954 C962 1.250 . S
O955 Gd906 2.412 . S
O955 C965 1.252 . S
O956 Gd907 2.545 . S
O956 C974 1.258 . S
O957 Gd906 2.362 . S
O957 Gd907 2.606 . S
O957 C973 1.284 . S
O958 Gd906 2.324 . S
O958 C981 1.254 . S
O959 Gd907 2.429 . S
O959 C981 1.268 . S
O960 Gd907 2.545 . S
O960 C973 1.250 . S
O961 Gd907 2.412 . S
O961 C974 1.252 . S
C962 O951 1.284 . S
C962 O954 1.250 . S
C963 H932 0.929 . S
C963 C948 1.437 . S
C963 C964 1.317 . S
C964 H935 0.930 . S
C964 C940 1.431 . S
C964 C963 1.317 . S
C965 Gd906 2.828 . S
C965 O950 1.258 . S
C965 O955 1.252 . S
C965 C966 1.497 . S
C966 C965 1.497 . S
C966 C967 1.395 . S
C966 C968 1.380 . S
C967 C966 1.395 . S
C967 C970 1.398 . S
C967 H982 0.930 . S
C968 C966 1.380 . S
C968 C969 1.391 . S
C968 H983 0.930 . S
C969 C968 1.391 . S
C969 C971 1.387 . S
C970 C967 1.398 . S
C970 C971 1.380 . S
C970 H984 0.930 . S
C971 C969 1.387 . S
C971 C970 1.380 . S
C971 H985 0.930 . S
C972 O952 1.254 . S
C972 O953 1.268 . S
C973 O957 1.284 . S
C973 O960 1.250 . S
C974 Gd907 2.828 . S
C974 O956 1.258 . S
C974 O961 1.252 . S
C974 C975 1.497 . S
C975 C974 1.497 . S
C975 C976 1.395 . S
C975 C977 1.380 . S
C976 C975 1.395 . S
C976 C979 1.398 . S
C976 H986 0.930 . S
C977 C975 1.380 . S
C977 C978 1.391 . S
C977 H987 0.930 . S
C978 C977 1.391 . S
C978 C980 1.387 . S
C979 C976 1.398 . S
C979 C980 1.380 . S
C979 H988 0.930 . S
C980 C978 1.387 . S
C980 C979 1.380 . S
C980 H989 0.930 . S
C981 O958 1.254 . S
C981 O959 1.268 . S
H982 C967 0.930 . S
H983 C968 0.930 . S
H984 C970 0.930 . S
H985 C971 0.930 . S
H986 C976 0.930 . S
H987 C977 0.930 . S
H988 C979 0.930 . S
H989 C980 0.930 . S
C990 C991 1.369 . S
C990 C992 1.419 . S
C990 H994 0.930 . S
C991 C990 1.369 . S
C991 C1000 1.429 . S
C992 C990 1.419 . S
C992 C993 1.363 . S
C992 H995 0.929 . S
C993 C992 1.363 . S
C993 C999 1.428 . S
H994 C990 0.930 . S
H995 C992 0.929 . S
S996 N997 1.613 . S
S996 N998 1.610 . S
N997 S996 1.613 . S
N997 C1000 1.350 . S
N998 S996 1.610 . S
N998 C999 1.351 . S
C999 C993 1.428 . S
C999 N998 1.351 . S
C999 C1000 1.434 . S
C1000 C991 1.429 . S
C1000 N997 1.350 . S
C1000 C999 1.434 . S
C1001 C1002 1.369 . S
C1001 C1003 1.419 . S
C1001 H1005 0.930 . S
C1002 C1001 1.369 . S
C1002 C1011 1.429 . S
C1003 C1001 1.419 . S
C1003 C1004 1.363 . S
C1003 H1006 0.929 1_554 S
C1004 C1003 1.363 . S
C1004 C1010 1.428 . S
H1005 C1001 0.930 . S
H1006 C1003 0.929 1_556 S
S1007 N1008 1.613 . S
S1007 N1009 1.610 . S
N1008 S1007 1.613 . S
N1008 C1011 1.350 . S
N1009 S1007 1.610 . S
N1009 C1010 1.351 . S
C1010 C1004 1.428 . S
C1010 N1009 1.351 . S
C1010 C1011 1.434 . S
C1011 C1002 1.429 . S
C1011 N1008 1.350 . S
C1011 C1010 1.434 . S
C1012 C1013 1.369 . S
C1012 C1014 1.419 . S
C1012 H1016 0.930 . S
C1013 C1012 1.369 . S
C1013 C1022 1.429 . S
C1014 C1012 1.419 . S
C1014 C1015 1.363 . S
C1014 H1017 0.929 1_554 S
C1015 C1014 1.363 . S
C1015 C1021 1.428 . S
H1016 C1012 0.930 . S
H1017 C1014 0.929 1_556 S
S1018 N1019 1.613 . S
S1018 N1020 1.610 . S
N1019 S1018 1.613 . S
N1019 C1022 1.350 . S
N1020 S1018 1.610 . S
N1020 C1021 1.351 . S
C1021 C1015 1.428 . S
C1021 N1020 1.351 . S
C1021 C1022 1.434 . S
C1022 C1013 1.429 . S
C1022 N1019 1.350 . S
C1022 C1021 1.434 . S
C1023 C1024 1.369 . S
C1023 C1025 1.419 . S
C1023 H1027 0.930 . S
C1024 C1023 1.369 . S
C1024 C1033 1.429 . S
C1025 C1023 1.419 . S
C1025 C1026 1.363 . S
C1025 H1028 0.929 . S
C1026 C1025 1.363 . S
C1026 C1032 1.428 . S
H1027 C1023 0.930 . S
H1028 C1025 0.929 . S
S1029 N1030 1.613 . S
S1029 N1031 1.610 . S
N1030 S1029 1.613 . S
N1030 C1033 1.350 . S
N1031 S1029 1.610 . S
N1031 C1032 1.351 . S
C1032 C1026 1.428 . S
C1032 N1031 1.351 . S
C1032 C1033 1.434 . S
C1033 C1024 1.429 . S
C1033 N1030 1.350 . S
C1033 C1032 1.434 . S
C1034 C1035 1.369 . S
C1034 C1036 1.419 . S
C1034 H1038 0.930 . S
C1035 C1034 1.369 . S
C1035 C1044 1.429 . S
C1036 C1034 1.419 . S
C1036 C1037 1.363 . S
C1036 H1039 0.929 . S
C1037 C1036 1.363 . S
C1037 C1043 1.428 . S
H1038 C1034 0.930 . S
H1039 C1036 0.929 . S
S1040 N1041 1.613 . S
S1040 N1042 1.610 . S
N1041 S1040 1.613 . S
N1041 C1044 1.350 . S
N1042 S1040 1.610 . S
N1042 C1043 1.351 . S
C1043 C1037 1.428 . S
C1043 N1042 1.351 . S
C1043 C1044 1.434 . S
C1044 C1035 1.429 . S
C1044 N1041 1.350 . S
C1044 C1043 1.434 . S
C1045 C1046 1.369 . S
C1045 C1047 1.419 . S
C1045 H1049 0.930 . S
C1046 C1045 1.369 . S
C1046 C1055 1.429 . S
C1047 C1045 1.419 . S
C1047 C1048 1.363 . S
C1047 H1050 0.929 . S
C1048 C1047 1.363 . S
C1048 C1054 1.428 1_556 S
H1049 C1045 0.930 . S
H1050 C1047 0.929 . S
S1051 N1052 1.613 . S
S1051 N1053 1.610 . S
N1052 S1051 1.613 . S
N1052 C1055 1.350 1_554 S
N1053 S1051 1.610 . S
N1053 C1054 1.351 . S
C1054 C1048 1.428 1_554 S
C1054 N1053 1.351 . S
C1054 C1055 1.434 1_554 S
C1055 C1046 1.429 . S
C1055 N1052 1.350 1_556 S
C1055 C1054 1.434 1_556 S
C1056 C1057 1.369 . S
C1056 C1058 1.419 . S
C1056 H1060 0.930 . S
C1057 C1056 1.369 . S
C1057 C1066 1.429 . S
C1058 C1056 1.419 . S
C1058 C1059 1.363 . S
C1058 H1061 0.929 . S
C1059 C1058 1.363 . S
C1059 C1065 1.428 . S
H1060 C1056 0.930 . S
H1061 C1058 0.929 . S
S1062 N1063 1.613 . S
S1062 N1064 1.610 . S
N1063 S1062 1.613 . S
N1063 C1066 1.350 . S
N1064 S1062 1.610 . S
N1064 C1065 1.351 . S
C1065 C1059 1.428 . S
C1065 N1064 1.351 . S
C1065 C1066 1.434 . S
C1066 C1057 1.429 . S
C1066 N1063 1.350 . S
C1066 C1065 1.434 . S
C1067 C1068 1.369 . S
C1067 C1069 1.419 1_556 S
C1067 H1071 0.930 1_556 S
C1068 C1067 1.369 . S
C1068 C1077 1.429 . S
C1069 C1067 1.419 1_554 S
C1069 C1070 1.363 1_554 S
C1069 H1072 0.929 . S
C1070 C1069 1.363 1_556 S
C1070 C1076 1.428 . S
H1071 C1067 0.930 1_554 S
H1072 C1069 0.929 . S
S1073 N1074 1.613 . S
S1073 N1075 1.610 . S
N1074 S1073 1.613 . S
N1074 C1077 1.350 . S
N1075 S1073 1.610 . S
N1075 C1076 1.351 . S
C1076 C1070 1.428 . S
C1076 N1075 1.351 . S
C1076 C1077 1.434 . S
C1077 C1068 1.429 . S
C1077 N1074 1.350 . S
C1077 C1076 1.434 . S
C1078 C1079 1.369 1_554 S
C1078 C1080 1.419 . S
C1078 H1082 0.930 . S
C1079 C1078 1.369 1_556 S
C1079 C1088 1.429 . S
C1080 C1078 1.419 . S
C1080 C1081 1.363 1_554 S
C1080 H1083 0.929 . S
C1081 C1080 1.363 1_556 S
C1081 C1087 1.428 . S
H1082 C1078 0.930 . S
H1083 C1080 0.929 . S
S1084 N1085 1.613 . S
S1084 N1086 1.610 . S
N1085 S1084 1.613 . S
N1085 C1088 1.350 . S
N1086 S1084 1.610 . S
N1086 C1087 1.351 . S
C1087 C1081 1.428 . S
C1087 N1086 1.351 . S
C1087 C1088 1.434 . S
C1088 C1079 1.429 . S
C1088 N1085 1.350 . S
C1088 C1087 1.434 . S
C1089 C1090 1.369 . S
C1089 C1091 1.419 . S
C1089 H1093 0.930 . S
C1090 C1089 1.369 . S
C1090 C1099 1.429 . S
C1091 C1089 1.419 . S
C1091 C1092 1.363 . S
C1091 H1094 0.929 . S
C1092 C1091 1.363 . S
C1092 C1098 1.428 . S
H1093 C1089 0.930 . S
H1094 C1091 0.929 . S
S1095 N1096 1.613 . S
S1095 N1097 1.610 . S
N1096 S1095 1.613 . S
N1096 C1099 1.350 . S
N1097 S1095 1.610 . S
N1097 C1098 1.351 . S
C1098 C1092 1.428 . S
C1098 N1097 1.351 . S
C1098 C1099 1.434 . S
C1099 C1090 1.429 . S
C1099 N1096 1.350 . S
C1099 C1098 1.434 . S
C1100 C1101 1.369 . S
C1100 C1102 1.419 . S
C1100 H1104 0.930 . S
C1101 C1100 1.369 . S
C1101 C1110 1.429 . S
C1102 C1100 1.419 . S
C1102 C1103 1.363 . S
C1102 H1105 0.929 . S
C1103 C1102 1.363 . S
C1103 C1109 1.428 . S
H1104 C1100 0.930 . S
H1105 C1102 0.929 . S
S1106 N1107 1.613 . S
S1106 N1108 1.610 . S
N1107 S1106 1.613 . S
N1107 C1110 1.350 . S
N1108 S1106 1.610 . S
N1108 C1109 1.351 . S
C1109 C1103 1.428 . S
C1109 N1108 1.351 . S
C1109 C1110 1.434 . S
C1110 C1101 1.429 . S
C1110 N1107 1.350 . S
C1110 C1109 1.434 . S
C1111 C1112 1.369 . S
C1111 C1113 1.419 . S
C1111 H1115 0.930 . S
C1112 C1111 1.369 . S
C1112 C1121 1.429 . S
C1113 C1111 1.419 . S
C1113 C1114 1.363 . S
C1113 H1116 0.929 . S
C1114 C1113 1.363 . S
C1114 C1120 1.428 . S
H1115 C1111 0.930 . S
H1116 C1113 0.929 . S
S1117 N1118 1.613 1_556 S
S1117 N1119 1.610 1_556 S
N1118 S1117 1.613 1_554 S
N1118 C1121 1.350 . S
N1119 S1117 1.610 1_554 S
N1119 C1120 1.352 . S
C1120 C1114 1.428 . S
C1120 N1119 1.352 . S
C1120 C1121 1.434 . S
C1121 C1112 1.429 . S
C1121 N1118 1.350 . S
C1121 C1120 1.434 . S
C1122 C1123 1.369 1_455 S
C1122 C1124 1.419 . S
C1122 H1126 0.930 . S
C1123 C1122 1.369 1_655 S
C1123 C1132 1.429 . S
C1124 C1122 1.419 . S
C1124 C1125 1.363 . S
C1124 H1127 0.929 . S
C1125 C1124 1.363 . S
C1125 C1131 1.428 1_455 S
H1126 C1122 0.930 . S
H1127 C1124 0.929 . S
S1128 N1129 1.613 . S
S1128 N1130 1.610 . S
N1129 S1128 1.613 . S
N1129 C1132 1.350 . S
N1130 S1128 1.610 . S
N1130 C1131 1.351 . S
C1131 C1125 1.428 1_655 S
C1131 N1130 1.351 . S
C1131 C1132 1.434 . S
C1132 C1123 1.429 . S
C1132 N1129 1.350 . S
C1132 C1131 1.434 . S
C1133 C1134 1.369 . S
C1133 C1135 1.419 . S
C1133 H1137 0.930 . S
C1134 C1133 1.369 . S
C1134 C1143 1.429 . S
C1135 C1133 1.419 . S
C1135 C1136 1.363 . S
C1135 H1138 0.929 . S
C1136 C1135 1.363 . S
C1136 C1142 1.428 . S
H1137 C1133 0.930 . S
H1138 C1135 0.929 . S
S1139 N1140 1.613 . S
S1139 N1141 1.610 . S
N1140 S1139 1.613 . S
N1140 C1143 1.350 . S
N1141 S1139 1.610 . S
N1141 C1142 1.351 . S
C1142 C1136 1.428 . S
C1142 N1141 1.351 . S
C1142 C1143 1.434 . S
C1143 C1134 1.429 . S
C1143 N1140 1.350 . S
C1143 C1142 1.434 . S
C1144 C1145 1.369 . S
C1144 C1146 1.419 . S
C1144 H1148 0.930 . S
C1145 C1144 1.369 . S
C1145 C1154 1.429 . S
C1146 C1144 1.419 . S
C1146 C1147 1.363 1_545 S
C1146 H1149 0.929 . S
C1147 C1146 1.363 1_565 S
C1147 C1153 1.428 . S
H1148 C1144 0.930 . S
H1149 C1146 0.929 . S
S1150 N1151 1.613 1_565 S
S1150 N1152 1.610 . S
N1151 S1150 1.613 1_545 S
N1151 C1154 1.350 . S
N1152 S1150 1.610 . S
N1152 C1153 1.351 . S
C1153 C1147 1.428 . S
C1153 N1152 1.351 . S
C1153 C1154 1.434 1_565 S
C1154 C1145 1.429 . S
C1154 N1151 1.350 . S
C1154 C1153 1.434 1_545 S
C1155 C1156 1.369 . S
C1155 C1157 1.419 . S
C1155 H1159 0.930 . S
C1156 C1155 1.369 . S
C1156 C1165 1.429 . S
C1157 C1155 1.419 . S
C1157 C1158 1.363 . S
C1157 H1160 0.929 . S
C1158 C1157 1.363 . S
C1158 C1164 1.428 . S
H1159 C1155 0.930 . S
H1160 C1157 0.929 . S
S1161 N1162 1.613 . S
S1161 N1163 1.610 . S
N1162 S1161 1.613 . S
N1162 C1165 1.350 . S
N1163 S1161 1.610 . S
N1163 C1164 1.351 . S
C1164 C1158 1.428 . S
C1164 N1163 1.351 . S
C1164 C1165 1.434 . S
C1165 C1156 1.429 . S
C1165 N1162 1.350 . S
C1165 C1164 1.434 . S
C1166 C1167 1.369 . S
C1166 C1168 1.419 . S
C1166 H1170 0.930 . S
C1167 C1166 1.369 . S
C1167 C1176 1.429 . S
C1168 C1166 1.419 . S
C1168 C1169 1.363 . S
C1168 H1171 0.929 . S
C1169 C1168 1.363 . S
C1169 C1175 1.428 . S
H1170 C1166 0.930 . S
H1171 C1168 0.929 . S
S1172 N1173 1.613 . S
S1172 N1174 1.610 . S
N1173 S1172 1.613 . S
N1173 C1176 1.350 . S
N1174 S1172 1.610 . S
N1174 C1175 1.351 . S
C1175 C1169 1.428 . S
C1175 N1174 1.351 . S
C1175 C1176 1.434 . S
C1176 C1167 1.429 . S
C1176 N1173 1.350 . S
C1176 C1175 1.434 . S
C1177 C1178 1.369 . S
C1177 C1179 1.419 . S
C1177 H1181 0.930 . S
C1178 C1177 1.369 . S
C1178 C1187 1.429 . S
C1179 C1177 1.419 . S
C1179 C1180 1.363 . S
C1179 H1182 0.929 . S
C1180 C1179 1.363 . S
C1180 C1186 1.428 . S
H1181 C1177 0.930 . S
H1182 C1179 0.929 . S
S1183 N1184 1.613 . S
S1183 N1185 1.610 . S
N1184 S1183 1.613 . S
N1184 C1187 1.350 . S
N1185 S1183 1.610 . S
N1185 C1186 1.351 . S
C1186 C1180 1.428 . S
C1186 N1185 1.351 . S
C1186 C1187 1.434 . S
C1187 C1178 1.429 . S
C1187 N1184 1.350 . S
C1187 C1186 1.434 . S
C1188 C1189 1.369 . S
C1188 C1190 1.419 . S
C1188 H1192 0.930 . S
C1189 C1188 1.369 . S
C1189 C1198 1.429 . S
C1190 C1188 1.419 . S
C1190 C1191 1.363 . S
C1190 H1193 0.929 . S
C1191 C1190 1.363 . S
C1191 C1197 1.428 . S
H1192 C1188 0.930 . S
H1193 C1190 0.929 . S
S1194 N1195 1.613 . S
S1194 N1196 1.610 . S
N1195 S1194 1.613 . S
N1195 C1198 1.350 . S
N1196 S1194 1.610 . S
N1196 C1197 1.351 . S
C1197 C1191 1.428 . S
C1197 N1196 1.351 . S
C1197 C1198 1.434 . S
C1198 C1189 1.429 . S
C1198 N1195 1.350 . S
C1198 C1197 1.434 . S
C1199 C1200 1.369 . S
C1199 C1201 1.419 . S
C1199 H1203 0.930 . S
C1200 C1199 1.369 . S
C1200 C1209 1.429 . S
C1201 C1199 1.419 . S
C1201 C1202 1.363 . S
C1201 H1204 0.929 . S
C1202 C1201 1.363 . S
C1202 C1208 1.428 . S
H1203 C1199 0.930 . S
H1204 C1201 0.929 . S
S1205 N1206 1.613 . S
S1205 N1207 1.610 . S
N1206 S1205 1.613 . S
N1206 C1209 1.350 . S
N1207 S1205 1.610 . S
N1207 C1208 1.351 . S
C1208 C1202 1.428 . S
C1208 N1207 1.351 . S
C1208 C1209 1.434 . S
C1209 C1200 1.429 . S
C1209 N1206 1.350 . S
C1209 C1208 1.434 . S
C1210 C1211 1.369 . S
C1210 C1212 1.419 . S
C1210 H1214 0.930 . S
C1211 C1210 1.369 . S
C1211 C1220 1.429 . S
C1212 C1210 1.419 . S
C1212 C1213 1.363 . S
C1212 H1215 0.929 . S
C1213 C1212 1.363 . S
C1213 C1219 1.428 . S
H1214 C1210 0.930 . S
H1215 C1212 0.929 . S
S1216 N1217 1.613 . S
S1216 N1218 1.610 . S
N1217 S1216 1.613 . S
N1217 C1220 1.350 . S
N1218 S1216 1.610 . S
N1218 C1219 1.351 . S
C1219 C1213 1.428 . S
C1219 N1218 1.351 . S
C1219 C1220 1.434 . S
C1220 C1211 1.429 . S
C1220 N1217 1.350 . S
C1220 C1219 1.434 . S
C1221 C1222 1.369 . S
C1221 C1223 1.419 . S
C1221 H1225 0.930 . S
C1222 C1221 1.369 . S
C1222 C1231 1.429 . S
C1223 C1221 1.419 . S
C1223 C1224 1.363 . S
C1223 H1226 0.929 . S
C1224 C1223 1.363 . S
C1224 C1230 1.428 . S
H1225 C1221 0.930 . S
H1226 C1223 0.929 . S
S1227 N1228 1.613 . S
S1227 N1229 1.610 . S
N1228 S1227 1.613 . S
N1228 C1231 1.350 . S
N1229 S1227 1.610 . S
N1229 C1230 1.351 . S
C1230 C1224 1.428 . S
C1230 N1229 1.351 . S
C1230 C1231 1.434 . S
C1231 C1222 1.429 . S
C1231 N1228 1.350 . S
C1231 C1230 1.434 . S
C1232 C1233 1.369 . S
C1232 C1234 1.419 . S
C1232 H1236 0.930 . S
C1233 C1232 1.369 . S
C1233 C1242 1.429 . S
C1234 C1232 1.419 . S
C1234 C1235 1.363 . S
C1234 H1237 0.929 . S
C1235 C1234 1.363 . S
C1235 C1241 1.428 . S
H1236 C1232 0.930 . S
H1237 C1234 0.929 . S
S1238 N1239 1.613 . S
S1238 N1240 1.610 . S
N1239 S1238 1.613 . S
N1239 C1242 1.350 . S
N1240 S1238 1.610 . S
N1240 C1241 1.351 . S
C1241 C1235 1.428 . S
C1241 N1240 1.351 . S
C1241 C1242 1.434 . S
C1242 C1233 1.429 . S
C1242 N1239 1.350 . S
C1242 C1241 1.434 . S
C1243 C1244 1.369 . S
C1243 C1245 1.419 . S
C1243 H1247 0.930 . S
C1244 C1243 1.369 . S
C1244 C1253 1.429 . S
C1245 C1243 1.419 . S
C1245 C1246 1.363 . S
C1245 H1248 0.929 . S
C1246 C1245 1.363 . S
C1246 C1252 1.428 . S
H1247 C1243 0.930 . S
H1248 C1245 0.929 . S
S1249 N1250 1.613 . S
S1249 N1251 1.610 . S
N1250 S1249 1.613 . S
N1250 C1253 1.350 . S
N1251 S1249 1.610 . S
N1251 C1252 1.351 . S
C1252 C1246 1.428 . S
C1252 N1251 1.351 . S
C1252 C1253 1.434 . S
C1253 C1244 1.429 . S
C1253 N1250 1.350 . S
C1253 C1252 1.434 . S
C1254 C1255 1.369 . S
C1254 C1256 1.419 . S
C1254 H1258 0.930 . S
C1255 C1254 1.369 . S
C1255 C1264 1.429 . S
C1256 C1254 1.419 . S
C1256 C1257 1.363 . S
C1256 H1259 0.929 . S
C1257 C1256 1.363 . S
C1257 C1263 1.428 . S
H1258 C1254 0.930 . S
H1259 C1256 0.929 . S
S1260 N1261 1.613 . S
S1260 N1262 1.610 . S
N1261 S1260 1.613 . S
N1261 C1264 1.350 . S
N1262 S1260 1.610 . S
N1262 C1263 1.351 . S
C1263 C1257 1.428 . S
C1263 N1262 1.351 . S
C1263 C1264 1.434 . S
C1264 C1255 1.429 . S
C1264 N1261 1.350 . S
C1264 C1263 1.434 . S
C1265 C1266 1.369 . S
C1265 C1267 1.419 . S
C1265 H1269 0.930 . S
C1266 C1265 1.369 . S
C1266 C1275 1.429 . S
C1267 C1265 1.419 . S
C1267 C1268 1.363 . S
C1267 H1270 0.929 . S
C1268 C1267 1.363 . S
C1268 C1274 1.428 . S
H1269 C1265 0.930 . S
H1270 C1267 0.929 . S
S1271 N1272 1.613 . S
S1271 N1273 1.610 . S
N1272 S1271 1.613 . S
N1272 C1275 1.350 . S
N1273 S1271 1.610 . S
N1273 C1274 1.351 . S
C1274 C1268 1.428 . S
C1274 N1273 1.351 . S
C1274 C1275 1.434 . S
C1275 C1266 1.429 . S
C1275 N1272 1.350 . S
C1275 C1274 1.434 . S
C1276 C1277 1.369 . S
C1276 C1278 1.419 . S
C1276 H1280 0.930 . S
C1277 C1276 1.369 . S
C1277 C1286 1.429 . S
C1278 C1276 1.419 . S
C1278 C1279 1.363 . S
C1278 H1281 0.929 . S
C1279 C1278 1.363 . S
C1279 C1285 1.428 . S
H1280 C1276 0.930 . S
H1281 C1278 0.929 . S
S1282 N1283 1.613 . S
S1282 N1284 1.610 . S
N1283 S1282 1.613 . S
N1283 C1286 1.350 . S
N1284 S1282 1.610 . S
N1284 C1285 1.351 . S
C1285 C1279 1.428 . S
C1285 N1284 1.351 . S
C1285 C1286 1.434 . S
C1286 C1277 1.429 . S
C1286 N1283 1.350 . S
C1286 C1285 1.434 . S
C1287 C1288 1.369 1_545 S
C1287 C1289 1.419 . S
C1287 H1291 0.930 . S
C1288 C1287 1.369 1_565 S
C1288 C1297 1.429 . S
C1289 C1287 1.419 . S
C1289 C1290 1.363 . S
C1289 H1292 0.929 . S
C1290 C1289 1.363 . S
C1290 C1296 1.428 1_545 S
H1291 C1287 0.930 . S
H1292 C1289 0.929 . S
S1293 N1294 1.613 . S
S1293 N1295 1.610 . S
N1294 S1293 1.613 . S
N1294 C1297 1.350 . S
N1295 S1293 1.610 . S
N1295 C1296 1.351 . S
C1296 C1290 1.428 1_565 S
C1296 N1295 1.351 . S
C1296 C1297 1.434 . S
C1297 C1288 1.429 . S
C1297 N1294 1.350 . S
C1297 C1296 1.434 . S
C1298 C1299 1.369 1_655 S
C1298 C1300 1.419 . S
C1298 H1302 0.930 . S
C1299 C1298 1.369 1_455 S
C1299 C1308 1.429 . S
C1300 C1298 1.419 . S
C1300 C1301 1.363 . S
C1300 H1303 0.929 . S
C1301 C1300 1.363 . S
C1301 C1307 1.428 1_655 S
H1302 C1298 0.930 . S
H1303 C1300 0.929 . S
S1304 N1305 1.613 . S
S1304 N1306 1.610 . S
N1305 S1304 1.613 . S
N1305 C1308 1.350 . S
N1306 S1304 1.610 . S
N1306 C1307 1.351 . S
C1307 C1301 1.428 1_455 S
C1307 N1306 1.351 . S
C1307 C1308 1.434 . S
C1308 C1299 1.429 . S
C1308 N1305 1.350 . S
C1308 C1307 1.434 . S
C1309 C1310 1.369 . S
C1309 C1311 1.419 . S
C1309 H1313 0.930 . S
C1310 C1309 1.369 . S
C1310 C1319 1.429 . S
C1311 C1309 1.419 . S
C1311 C1312 1.363 . S
C1311 H1314 0.929 . S
C1312 C1311 1.363 . S
C1312 C1318 1.428 . S
H1313 C1309 0.930 . S
H1314 C1311 0.929 . S
S1315 N1316 1.613 . S
S1315 N1317 1.610 . S
N1316 S1315 1.613 . S
N1316 C1319 1.350 . S
N1317 S1315 1.610 . S
N1317 C1318 1.351 . S
C1318 C1312 1.428 . S
C1318 N1317 1.351 . S
C1318 C1319 1.434 . S
C1319 C1310 1.429 . S
C1319 N1316 1.350 . S
C1319 C1318 1.434 . S
C1320 C1321 1.369 . S
C1320 C1322 1.419 . S
C1320 H1324 0.930 . S
C1321 C1320 1.369 . S
C1321 C1330 1.429 . S
C1322 C1320 1.419 . S
C1322 C1323 1.363 . S
C1322 H1325 0.929 . S
C1323 C1322 1.363 . S
C1323 C1329 1.428 . S
H1324 C1320 0.930 . S
H1325 C1322 0.929 . S
S1326 N1327 1.613 . S
S1326 N1328 1.610 . S
N1327 S1326 1.613 . S
N1327 C1330 1.350 . S
N1328 S1326 1.610 . S
N1328 C1329 1.351 . S
C1329 C1323 1.428 . S
C1329 N1328 1.351 . S
C1329 C1330 1.434 . S
C1330 C1321 1.429 . S
C1330 N1327 1.350 . S
C1330 C1329 1.434 . S
C1331 C1332 1.369 . S
C1331 C1333 1.419 . S
C1331 H1335 0.930 . S
C1332 C1331 1.369 . S
C1332 C1341 1.429 . S
C1333 C1331 1.419 . S
C1333 C1334 1.363 . S
C1333 H1336 0.929 . S
C1334 C1333 1.363 . S
C1334 C1340 1.428 . S
H1335 C1331 0.930 . S
H1336 C1333 0.929 . S
S1337 N1338 1.613 . S
S1337 N1339 1.610 . S
N1338 S1337 1.613 . S
N1338 C1341 1.350 . S
N1339 S1337 1.610 . S
N1339 C1340 1.351 . S
C1340 C1334 1.428 . S
C1340 N1339 1.351 . S
C1340 C1341 1.434 . S
C1341 C1332 1.429 . S
C1341 N1338 1.350 . S
C1341 C1340 1.434 . S
C1342 C1343 1.369 . S
C1342 C1344 1.419 . S
C1342 H1346 0.930 . S
C1343 C1342 1.369 . S
C1343 C1352 1.429 . S
C1344 C1342 1.419 . S
C1344 C1345 1.363 . S
C1344 H1347 0.929 . S
C1345 C1344 1.363 . S
C1345 C1351 1.428 . S
H1346 C1342 0.930 . S
H1347 C1344 0.929 . S
S1348 N1349 1.613 . S
S1348 N1350 1.610 . S
N1349 S1348 1.613 . S
N1349 C1352 1.350 . S
N1350 S1348 1.610 . S
N1350 C1351 1.351 . S
C1351 C1345 1.428 . S
C1351 N1350 1.351 . S
C1351 C1352 1.434 . S
C1352 C1343 1.429 . S
C1352 N1349 1.350 . S
C1352 C1351 1.434 . S
C1353 C1354 1.369 . S
C1353 C1355 1.419 . S
C1353 H1357 0.930 . S
C1354 C1353 1.369 . S
C1354 C1363 1.429 . S
C1355 C1353 1.419 . S
C1355 C1356 1.363 . S
C1355 H1358 0.929 . S
C1356 C1355 1.363 . S
C1356 C1362 1.428 . S
H1357 C1353 0.930 . S
H1358 C1355 0.929 . S
S1359 N1360 1.613 . S
S1359 N1361 1.610 . S
N1360 S1359 1.613 . S
N1360 C1363 1.350 . S
N1361 S1359 1.610 . S
N1361 C1362 1.351 . S
C1362 C1356 1.428 . S
C1362 N1361 1.351 . S
C1362 C1363 1.434 . S
C1363 C1354 1.429 . S
C1363 N1360 1.350 . S
C1363 C1362 1.434 . S
C1364 C1365 1.369 . S
C1364 C1366 1.419 . S
C1364 H1368 0.930 . S
C1365 C1364 1.369 . S
C1365 C1374 1.429 . S
C1366 C1364 1.419 . S
C1366 C1367 1.363 . S
C1366 H1369 0.929 . S
C1367 C1366 1.363 . S
C1367 C1373 1.428 . S
H1368 C1364 0.930 . S
H1369 C1366 0.929 . S
S1370 N1371 1.613 . S
S1370 N1372 1.610 . S
N1371 S1370 1.613 . S
N1371 C1374 1.350 . S
N1372 S1370 1.610 . S
N1372 C1373 1.351 . S
C1373 C1367 1.428 . S
C1373 N1372 1.351 . S
C1373 C1374 1.434 . S
C1374 C1365 1.429 . S
C1374 N1371 1.350 . S
C1374 C1373 1.434 . S
C1375 C1376 1.369 . S
C1375 C1377 1.419 . S
C1375 H1379 0.930 . S
C1376 C1375 1.369 . S
C1376 C1385 1.429 . S
C1377 C1375 1.419 . S
C1377 C1378 1.363 . S
C1377 H1380 0.929 . S
C1378 C1377 1.363 . S
C1378 C1384 1.428 . S
H1379 C1375 0.930 . S
H1380 C1377 0.929 . S
S1381 N1382 1.613 . S
S1381 N1383 1.610 . S
N1382 S1381 1.613 . S
N1382 C1385 1.350 . S
N1383 S1381 1.610 . S
N1383 C1384 1.351 . S
C1384 C1378 1.428 . S
C1384 N1383 1.351 . S
C1384 C1385 1.434 . S
C1385 C1376 1.429 . S
C1385 N1382 1.350 . S
C1385 C1384 1.434 . S
C1386 C1387 1.369 . S
C1386 C1388 1.419 . S
C1386 H1390 0.930 . S
C1387 C1386 1.369 . S
C1387 C1396 1.429 . S
C1388 C1386 1.419 . S
C1388 C1389 1.363 . S
C1388 H1391 0.929 . S
C1389 C1388 1.363 . S
C1389 C1395 1.428 . S
H1390 C1386 0.930 . S
H1391 C1388 0.929 . S
S1392 N1393 1.626 . S
S1392 N1394 1.610 . S
N1393 S1392 1.626 . S
N1393 C1396 1.350 . S
N1394 S1392 1.610 . S
N1394 C1395 1.351 . S
C1395 C1389 1.428 . S
C1395 N1394 1.351 . S
C1395 C1396 1.434 . S
C1396 C1387 1.429 . S
C1396 N1393 1.350 . S
C1396 C1395 1.434 . S
C1397 C1398 1.369 . S
C1397 C1399 1.419 . S
C1397 H1401 0.930 . S
C1398 C1397 1.369 . S
C1398 C1407 1.429 . S
C1399 C1397 1.419 . S
C1399 C1400 1.363 . S
C1399 H1402 0.929 . S
C1400 C1399 1.363 . S
C1400 C1406 1.428 . S
H1401 C1397 0.930 . S
H1402 C1399 0.929 . S
S1403 N1404 1.613 . S
S1403 N1405 1.610 . S
N1404 S1403 1.613 . S
N1404 C1407 1.350 . S
N1405 S1403 1.610 . S
N1405 C1406 1.351 . S
C1406 C1400 1.428 . S
C1406 N1405 1.351 . S
C1406 C1407 1.434 . S
C1407 C1398 1.429 . S
C1407 N1404 1.350 . S
C1407 C1406 1.434 . S
C1408 C1409 1.369 . S
C1408 C1410 1.419 . S
C1408 H1412 0.930 . S
C1409 C1408 1.369 . S
C1409 C1418 1.429 . S
C1410 C1408 1.419 . S
C1410 C1411 1.363 . S
C1410 H1413 0.929 . S
C1411 C1410 1.363 . S
C1411 C1417 1.428 . S
H1412 C1408 0.930 . S
H1413 C1410 0.929 . S
S1414 N1415 1.613 . S
S1414 N1416 1.610 . S
N1415 S1414 1.613 . S
N1415 C1418 1.350 . S
N1416 S1414 1.610 . S
N1416 C1417 1.351 . S
C1417 C1411 1.428 . S
C1417 N1416 1.351 . S
C1417 C1418 1.434 . S
C1418 C1409 1.429 . S
C1418 N1415 1.350 . S
C1418 C1417 1.434 . S
C1419 C1420 1.369 . S
C1419 C1421 1.419 . S
C1419 H1423 0.930 . S
C1420 C1419 1.369 . S
C1420 C1429 1.429 . S
C1421 C1419 1.419 . S
C1421 C1422 1.363 . S
C1421 H1424 0.929 . S
C1422 C1421 1.363 . S
C1422 C1428 1.428 . S
H1423 C1419 0.930 . S
H1424 C1421 0.929 . S
S1425 N1426 1.613 . S
S1425 N1427 1.610 . S
N1426 S1425 1.613 . S
N1426 C1429 1.350 . S
N1427 S1425 1.610 . S
N1427 C1428 1.351 . S
C1428 C1422 1.428 . S
C1428 N1427 1.351 . S
C1428 C1429 1.434 . S
C1429 C1420 1.429 . S
C1429 N1426 1.350 . S
C1429 C1428 1.434 . S
C1430 C1431 1.369 . S
C1430 C1432 1.419 . S
C1430 H1434 0.930 . S
C1431 C1430 1.369 . S
C1431 C1440 1.429 . S
C1432 C1430 1.419 . S
C1432 C1433 1.363 . S
C1432 H1435 0.929 . S
C1433 C1432 1.363 . S
C1433 C1439 1.428 . S
H1434 C1430 0.930 . S
H1435 C1432 0.929 . S
S1436 N1437 1.613 . S
S1436 N1438 1.610 . S
N1437 S1436 1.613 . S
N1437 C1440 1.350 . S
N1438 S1436 1.610 . S
N1438 C1439 1.351 . S
C1439 C1433 1.428 . S
C1439 N1438 1.351 . S
C1439 C1440 1.434 . S
C1440 C1431 1.429 . S
C1440 N1437 1.350 . S
C1440 C1439 1.434 . S
C1441 C1442 1.369 . S
C1441 C1443 1.419 . S
C1441 H1445 0.930 . S
C1442 C1441 1.369 . S
C1442 C1451 1.429 . S
C1443 C1441 1.419 . S
C1443 C1444 1.363 . S
C1443 H1446 0.929 . S
C1444 C1443 1.363 . S
C1444 C1450 1.428 . S
H1445 C1441 0.930 . S
H1446 C1443 0.929 . S
S1447 N1448 1.613 . S
S1447 N1449 1.610 . S
N1448 S1447 1.613 . S
N1448 C1451 1.350 . S
N1449 S1447 1.610 . S
N1449 C1450 1.351 . S
C1450 C1444 1.428 . S
C1450 N1449 1.351 . S
C1450 C1451 1.434 . S
C1451 C1442 1.429 . S
C1451 N1448 1.350 . S
C1451 C1450 1.434 . S
C1452 C1453 1.369 . S
C1452 C1454 1.419 . S
C1452 H1456 0.930 . S
C1453 C1452 1.369 . S
C1453 C1462 1.429 . S
C1454 C1452 1.419 . S
C1454 C1455 1.363 . S
C1454 H1457 0.929 . S
C1455 C1454 1.363 . S
C1455 C1461 1.428 . S
H1456 C1452 0.930 . S
H1457 C1454 0.929 . S
S1458 N1459 1.613 . S
S1458 N1460 1.610 . S
N1459 S1458 1.613 . S
N1459 C1462 1.350 . S
N1460 S1458 1.610 . S
N1460 C1461 1.351 . S
C1461 C1455 1.428 . S
C1461 N1460 1.351 . S
C1461 C1462 1.434 . S
C1462 C1453 1.429 . S
C1462 N1459 1.350 . S
C1462 C1461 1.434 . S
C1463 C1464 1.369 . S
C1463 C1465 1.419 . S
C1463 H1467 0.930 . S
C1464 C1463 1.369 . S
C1464 C1473 1.429 . S
C1465 C1463 1.419 . S
C1465 C1466 1.363 . S
C1465 H1468 0.929 . S
C1466 C1465 1.363 . S
C1466 C1472 1.428 . S
H1467 C1463 0.930 . S
H1468 C1465 0.929 . S
S1469 N1470 1.613 . S
S1469 N1471 1.610 . S
N1470 S1469 1.613 . S
N1470 C1473 1.350 . S
N1471 S1469 1.610 . S
N1471 C1472 1.351 . S
C1472 C1466 1.428 . S
C1472 N1471 1.351 . S
C1472 C1473 1.434 . S
C1473 C1464 1.429 . S
C1473 N1470 1.350 . S
C1473 C1472 1.434 . S
C1474 C1475 1.369 . S
C1474 C1476 1.419 . S
C1474 H1478 0.930 . S
C1475 C1474 1.369 . S
C1475 C1484 1.429 . S
C1476 C1474 1.419 . S
C1476 C1477 1.363 . S
C1476 H1479 0.929 . S
C1477 C1476 1.363 . S
C1477 C1483 1.428 . S
H1478 C1474 0.930 . S
H1479 C1476 0.929 . S
S1480 N1481 1.613 . S
S1480 N1482 1.610 . S
N1481 S1480 1.613 . S
N1481 C1484 1.350 . S
N1482 S1480 1.610 . S
N1482 C1483 1.351 . S
C1483 C1477 1.428 . S
C1483 N1482 1.351 . S
C1483 C1484 1.434 . S
C1484 C1475 1.429 . S
C1484 N1481 1.350 . S
C1484 C1483 1.434 . S
C1485 C1486 1.369 . S
C1485 C1487 1.419 . S
C1485 H1489 0.930 . S
C1486 C1485 1.369 . S
C1486 C1495 1.429 . S
C1487 C1485 1.419 . S
C1487 C1488 1.363 . S
C1487 H1490 0.929 . S
C1488 C1487 1.363 . S
C1488 C1494 1.428 . S
H1489 C1485 0.930 . S
H1490 C1487 0.929 . S
S1491 N1492 1.613 . S
S1491 N1493 1.610 . S
N1492 S1491 1.613 . S
N1492 C1495 1.350 . S
N1493 S1491 1.610 . S
N1493 C1494 1.351 . S
C1494 C1488 1.428 . S
C1494 N1493 1.351 . S
C1494 C1495 1.434 . S
C1495 C1486 1.429 . S
C1495 N1492 1.350 . S
C1495 C1494 1.434 . S
C1496 C1497 1.369 . S
C1496 C1498 1.419 . S
C1496 H1500 0.930 . S
C1497 C1496 1.369 . S
C1497 C1506 1.429 . S
C1498 C1496 1.419 . S
C1498 C1499 1.363 . S
C1498 H1501 0.929 . S
C1499 C1498 1.363 . S
C1499 C1505 1.428 . S
H1500 C1496 0.930 . S
H1501 C1498 0.929 . S
S1502 N1503 1.613 . S
S1502 N1504 1.610 . S
N1503 S1502 1.613 . S
N1503 C1506 1.350 . S
N1504 S1502 1.610 . S
N1504 C1505 1.351 . S
C1505 C1499 1.428 . S
C1505 N1504 1.351 . S
C1505 C1506 1.434 . S
C1506 C1497 1.429 . S
C1506 N1503 1.350 . S
C1506 C1505 1.434 . S
C1507 C1508 1.369 . S
C1507 C1509 1.419 . S
C1507 H1511 0.930 . S
C1508 C1507 1.369 . S
C1508 C1517 1.429 . S
C1509 C1507 1.419 . S
C1509 C1510 1.363 . S
C1509 H1512 0.929 . S
C1510 C1509 1.363 . S
C1510 C1516 1.428 . S
H1511 C1507 0.930 . S
H1512 C1509 0.929 . S
S1513 N1514 1.613 . S
S1513 N1515 1.610 . S
N1514 S1513 1.613 . S
N1514 C1517 1.350 . S
N1515 S1513 1.610 . S
N1515 C1516 1.351 . S
C1516 C1510 1.428 . S
C1516 N1515 1.351 . S
C1516 C1517 1.434 . S
C1517 C1508 1.429 . S
C1517 N1514 1.350 . S
C1517 C1516 1.434 . S
C1518 C1519 1.369 . S
C1518 C1520 1.419 . S
C1518 H1522 0.930 . S
C1519 C1518 1.369 . S
C1519 C1528 1.429 . S
C1520 C1518 1.419 . S
C1520 C1521 1.363 . S
C1520 H1523 0.929 . S
C1521 C1520 1.363 . S
C1521 C1527 1.428 . S
H1522 C1518 0.930 . S
H1523 C1520 0.929 . S
S1524 N1525 1.613 . S
S1524 N1526 1.610 . S
N1525 S1524 1.613 . S
N1525 C1528 1.350 . S
N1526 S1524 1.610 . S
N1526 C1527 1.351 . S
C1527 C1521 1.428 . S
C1527 N1526 1.351 . S
C1527 C1528 1.434 . S
C1528 C1519 1.429 . S
C1528 N1525 1.350 . S
C1528 C1527 1.434 . S
C1529 C1530 1.369 . S
C1529 C1531 1.419 . S
C1529 H1533 0.930 . S
C1530 C1529 1.369 . S
C1530 C1539 1.429 . S
C1531 C1529 1.419 . S
C1531 C1532 1.363 . S
C1531 H1534 0.929 . S
C1532 C1531 1.363 . S
C1532 C1538 1.428 . S
H1533 C1529 0.930 . S
H1534 C1531 0.929 . S
S1535 N1536 1.613 . S
S1535 N1537 1.610 . S
N1536 S1535 1.613 . S
N1536 C1539 1.350 . S
N1537 S1535 1.610 . S
N1537 C1538 1.351 . S
C1538 C1532 1.428 . S
C1538 N1537 1.351 . S
C1538 C1539 1.434 . S
C1539 C1530 1.429 . S
C1539 N1536 1.350 . S
C1539 C1538 1.434 . S
C1540 C1541 1.369 . S
C1540 C1542 1.419 . S
C1540 H1544 0.930 . S
C1541 C1540 1.369 . S
C1541 C1550 1.429 . S
C1542 C1540 1.419 . S
C1542 C1543 1.363 . S
C1542 H1545 0.929 . S
C1543 C1542 1.363 . S
C1543 C1549 1.428 . S
H1544 C1540 0.930 . S
H1545 C1542 0.929 . S
S1546 N1547 1.613 . S
S1546 N1548 1.610 . S
N1547 S1546 1.613 . S
N1547 C1550 1.350 . S
N1548 S1546 1.610 . S
N1548 C1549 1.351 . S
C1549 C1543 1.428 . S
C1549 N1548 1.351 . S
C1549 C1550 1.434 . S
C1550 C1541 1.429 . S
C1550 N1547 1.350 . S
C1550 C1549 1.434 . S
C1551 C1552 1.369 . S
C1551 C1553 1.419 . S
C1551 H1555 0.930 . S
C1552 C1551 1.369 . S
C1552 C1561 1.429 . S
C1553 C1551 1.419 . S
C1553 C1554 1.363 . S
C1553 H1556 0.929 . S
C1554 C1553 1.363 . S
C1554 C1560 1.428 . S
H1555 C1551 0.930 . S
H1556 C1553 0.929 . S
S1557 N1558 1.613 . S
S1557 N1559 1.610 . S
N1558 S1557 1.613 . S
N1558 C1561 1.350 . S
N1559 S1557 1.610 . S
N1559 C1560 1.351 . S
C1560 C1554 1.428 . S
C1560 N1559 1.351 . S
C1560 C1561 1.434 . S
C1561 C1552 1.429 . S
C1561 N1558 1.350 . S
C1561 C1560 1.434 . S
C1562 C1563 1.369 . S
C1562 C1564 1.419 . S
C1562 H1566 0.930 . S
C1563 C1562 1.369 . S
C1563 C1572 1.429 . S
C1564 C1562 1.419 . S
C1564 C1565 1.363 . S
C1564 H1567 0.929 . S
C1565 C1564 1.363 . S
C1565 C1571 1.428 . S
H1566 C1562 0.930 . S
H1567 C1564 0.929 . S
S1568 N1569 1.613 . S
S1568 N1570 1.610 . S
N1569 S1568 1.613 . S
N1569 C1572 1.350 . S
N1570 S1568 1.610 . S
N1570 C1571 1.351 . S
C1571 C1565 1.428 . S
C1571 N1570 1.351 . S
C1571 C1572 1.434 . S
C1572 C1563 1.429 . S
C1572 N1569 1.350 . S
C1572 C1571 1.434 . S
C1573 C1574 1.369 . S
C1573 C1575 1.419 . S
C1573 H1577 0.930 . S
C1574 C1573 1.369 . S
C1574 C1583 1.429 . S
C1575 C1573 1.419 . S
C1575 C1576 1.363 . S
C1575 H1578 0.929 . S
C1576 C1575 1.363 . S
C1576 C1582 1.428 . S
H1577 C1573 0.930 . S
H1578 C1575 0.929 . S
S1579 N1580 1.613 . S
S1579 N1581 1.610 . S
N1580 S1579 1.613 . S
N1580 C1583 1.350 . S
N1581 S1579 1.610 . S
N1581 C1582 1.351 . S
C1582 C1576 1.428 . S
C1582 N1581 1.351 . S
C1582 C1583 1.434 . S
C1583 C1574 1.429 . S
C1583 N1580 1.350 . S
C1583 C1582 1.434 . S
C991 C177 1.474 . S
C993 C290 1.415 . S
C1002 C190 1.498 . S
C1004 C374 1.441 . S
C1013 C164 1.470 . S
C1015 C468 1.470 . S
C1024 C151 1.461 . S
C1026 C384 1.461 . S
C1037 C458 1.407 . S
C1035 C125 1.467 . S
C1046 C138 1.441 . S
C1048 C300 1.437 . S
C1059 C301 1.461 . S
C1057 C147 1.470 . S
C1070 C385 1.480 . S
C1068 C121 1.480 . S
C1079 C134 1.481 . S
C1081 C477 1.484 . S
C1090 C173 1.463 . S
C1092 C393 1.462 . S
C1101 C186 1.446 . S
C1103 C469 1.438 . S
C1114 C309 1.442 . S
C1112 C160 1.451 . S
C1125 C542 1.418 . S
C1123 C21 1.475 . S
C1134 C34 1.501 . S
C1136 C626 1.448 . S
C1145 C8 1.471 . S
C1147 C720 1.470 . S
C1156 C229 1.463 . S
C1158 C636 1.462 . S
C1167 C203 1.469 . S
C1169 C710 1.406 . S
C1178 C216 1.440 . S
C1180 C552 1.435 . S
C1189 C225 1.461 . S
C1191 C553 1.454 . S
C1200 C199 1.485 . S
C1202 C637 1.485 . S
C1213 C729 1.479 . S
C1211 C212 1.487 . S
C1222 C17 1.458 1_565 S
C1224 C645 1.464 . S
C1235 C721 1.437 . S
C1233 C30 1.445 1_455 S
C1244 C4 1.442 . S
C1246 C561 1.439 . S
C1257 C794 1.412 . S
C1255 C99 1.473 . S
C1266 C112 1.499 . S
C1268 C878 1.441 . S
C1279 C972 1.470 . S
C1277 C86 1.471 . S
C1290 C888 1.461 . S
C1288 C73 1.462 . S
C1301 C962 1.409 . S
C1299 C47 1.468 . S
C1310 C60 1.438 . S
C1312 C804 1.438 . S
C1321 C69 1.471 1_655 S
C1323 C805 1.462 . S
C1332 C43 1.476 . S
C1334 C889 1.478 . S
C1345 C981 1.479 . S
C1343 C56 1.487 1_545 S
C1354 C95 1.453 . S
C1356 C897 1.460 . S
C1365 C108 1.439 . S
C1367 C973 1.433 . S
C1376 C82 1.451 . S
C1378 C813 1.444 . S
C1387 C204 1.573 . S
C1389 C297 1.464 . S
C1400 C381 1.477 . S
C1398 C217 1.615 . S
C1409 C230 1.569 . S
C1411 C474 1.388 . S
C1420 C87 1.579 . S
C1422 C390 1.378 . S
C1431 C100 1.578 . S
C1433 C465 1.452 . S
C1444 C306 1.378 . S
C1442 C113 1.544 . S
C1453 C48 1.573 . S
C1455 C549 1.473 . S
C1464 C61 1.610 . S
C1466 C633 1.479 . S
C1475 C74 1.573 . S
C1477 C726 1.377 . S
C1486 C165 1.583 . S
C1488 C642 1.380 . S
C1499 C717 1.449 . S
C1497 C178 1.580 . S
C1508 C191 1.540 . S
C1510 C558 1.377 . S
C1519 C126 1.571 . S
C1521 C801 1.470 . S
C1530 C139 1.614 . S
C1532 C885 1.481 . S
C1543 C978 1.377 . S
C1541 C152 1.573 . S
C1552 C9 1.578 . S
C1554 C894 1.380 . S
C1563 C22 1.583 . S
C1565 C969 1.458 . S
C1574 C35 1.543 . S
C1576 C810 1.380 . S
