# Generated by pormake.
# Topology tbo, (3,4)-cn, num edge types: 1
# Building blocks:
#     Node 0, Type 0, BuildingBlock: PAMTOO_clean_linker_0, # of connection points: 3
#     Node 1, Type 0, BuildingBlock: PAMTOO_clean_linker_0, # of connection points: 3
#     Node 2, Type 0, BuildingBlock: PAMTOO_clean_linker_0, # of connection points: 3
#     Node 3, Type 0, BuildingBlock: PAMTOO_clean_linker_0, # of connection points: 3
#     Node 4, Type 0, BuildingBlock: PAMTOO_clean_linker_0, # of connection points: 3
#     Node 5, Type 0, BuildingBlock: PAMTOO_clean_linker_0, # of connection points: 3
#     Node 6, Type 0, BuildingBlock: PAMTOO_clean_linker_0, # of connection points: 3
#     Node 7, Type 0, BuildingBlock: PAMTOO_clean_linker_0, # of connection points: 3
#     Node 8, Type 0, BuildingBlock: PAMTOO_clean_linker_0, # of connection points: 3
#     Node 9, Type 0, BuildingBlock: PAMTOO_clean_linker_0, # of connection points: 3
#     Node 10, Type 0, BuildingBlock: PAMTOO_clean_linker_0, # of connection points: 3
#     Node 11, Type 0, BuildingBlock: PAMTOO_clean_linker_0, # of connection points: 3
#     Node 12, Type 0, BuildingBlock: PAMTOO_clean_linker_0, # of connection points: 3
#     Node 13, Type 0, BuildingBlock: PAMTOO_clean_linker_0, # of connection points: 3
#     Node 14, Type 0, BuildingBlock: PAMTOO_clean_linker_0, # of connection points: 3
#     Node 15, Type 0, BuildingBlock: PAMTOO_clean_linker_0, # of connection points: 3
#     Node 16, Type 0, BuildingBlock: PAMTOO_clean_linker_0, # of connection points: 3
#     Node 17, Type 0, BuildingBlock: PAMTOO_clean_linker_0, # of connection points: 3
#     Node 18, Type 0, BuildingBlock: PAMTOO_clean_linker_0, # of connection points: 3
#     Node 19, Type 0, BuildingBlock: PAMTOO_clean_linker_0, # of connection points: 3
#     Node 20, Type 0, BuildingBlock: PAMTOO_clean_linker_0, # of connection points: 3
#     Node 21, Type 0, BuildingBlock: PAMTOO_clean_linker_0, # of connection points: 3
#     Node 22, Type 0, BuildingBlock: PAMTOO_clean_linker_0, # of connection points: 3
#     Node 23, Type 0, BuildingBlock: PAMTOO_clean_linker_0, # of connection points: 3
#     Node 24, Type 0, BuildingBlock: PAMTOO_clean_linker_0, # of connection points: 3
#     Node 25, Type 0, BuildingBlock: PAMTOO_clean_linker_0, # of connection points: 3
#     Node 26, Type 0, BuildingBlock: PAMTOO_clean_linker_0, # of connection points: 3
#     Node 27, Type 0, BuildingBlock: PAMTOO_clean_linker_0, # of connection points: 3
#     Node 28, Type 0, BuildingBlock: PAMTOO_clean_linker_0, # of connection points: 3
#     Node 29, Type 0, BuildingBlock: PAMTOO_clean_linker_0, # of connection points: 3
#     Node 30, Type 0, BuildingBlock: PAMTOO_clean_linker_0, # of connection points: 3
#     Node 31, Type 0, BuildingBlock: PAMTOO_clean_linker_0, # of connection points: 3
#     Node 32, Type 1, BuildingBlock: ESEHIV_clean_sbu_0, # of connection points: 4
#     Node 33, Type 1, BuildingBlock: ESEHIV_clean_sbu_0, # of connection points: 4
#     Node 34, Type 1, BuildingBlock: ESEHIV_clean_sbu_0, # of connection points: 4
#     Node 35, Type 1, BuildingBlock: ESEHIV_clean_sbu_0, # of connection points: 4
#     Node 36, Type 1, BuildingBlock: ESEHIV_clean_sbu_0, # of connection points: 4
#     Node 37, Type 1, BuildingBlock: ESEHIV_clean_sbu_0, # of connection points: 4
#     Node 38, Type 1, BuildingBlock: ESEHIV_clean_sbu_0, # of connection points: 4
#     Node 39, Type 1, BuildingBlock: ESEHIV_clean_sbu_0, # of connection points: 4
#     Node 40, Type 1, BuildingBlock: ESEHIV_clean_sbu_0, # of connection points: 4
#     Node 41, Type 1, BuildingBlock: ESEHIV_clean_sbu_0, # of connection points: 4
#     Node 42, Type 1, BuildingBlock: ESEHIV_clean_sbu_0, # of connection points: 4
#     Node 43, Type 1, BuildingBlock: ESEHIV_clean_sbu_0, # of connection points: 4
#     Node 44, Type 1, BuildingBlock: ESEHIV_clean_sbu_0, # of connection points: 4
#     Node 45, Type 1, BuildingBlock: ESEHIV_clean_sbu_0, # of connection points: 4
#     Node 46, Type 1, BuildingBlock: ESEHIV_clean_sbu_0, # of connection points: 4
#     Node 47, Type 1, BuildingBlock: ESEHIV_clean_sbu_0, # of connection points: 4
#     Node 48, Type 1, BuildingBlock: ESEHIV_clean_sbu_0, # of connection points: 4
#     Node 49, Type 1, BuildingBlock: ESEHIV_clean_sbu_0, # of connection points: 4
#     Node 50, Type 1, BuildingBlock: ESEHIV_clean_sbu_0, # of connection points: 4
#     Node 51, Type 1, BuildingBlock: ESEHIV_clean_sbu_0, # of connection points: 4
#     Node 52, Type 1, BuildingBlock: ESEHIV_clean_sbu_0, # of connection points: 4
#     Node 53, Type 1, BuildingBlock: ESEHIV_clean_sbu_0, # of connection points: 4
#     Node 54, Type 1, BuildingBlock: ESEHIV_clean_sbu_0, # of connection points: 4
#     Node 55, Type 1, BuildingBlock: ESEHIV_clean_sbu_0, # of connection points: 4
#     Edge 56, Type (0, 1), BuildingBlock: XUDNAN_clean_linker_2, # of connection points: 2
#     Edge 57, Type (0, 1), BuildingBlock: XUDNAN_clean_linker_2, # of connection points: 2
#     Edge 58, Type (0, 1), BuildingBlock: XUDNAN_clean_linker_2, # of connection points: 2
#     Edge 59, Type (0, 1), BuildingBlock: XUDNAN_clean_linker_2, # of connection points: 2
#     Edge 60, Type (0, 1), BuildingBlock: XUDNAN_clean_linker_2, # of connection points: 2
#     Edge 61, Type (0, 1), BuildingBlock: XUDNAN_clean_linker_2, # of connection points: 2
#     Edge 62, Type (0, 1), BuildingBlock: XUDNAN_clean_linker_2, # of connection points: 2
#     Edge 63, Type (0, 1), BuildingBlock: XUDNAN_clean_linker_2, # of connection points: 2
#     Edge 64, Type (0, 1), BuildingBlock: XUDNAN_clean_linker_2, # of connection points: 2
#     Edge 65, Type (0, 1), BuildingBlock: XUDNAN_clean_linker_2, # of connection points: 2
#     Edge 66, Type (0, 1), BuildingBlock: XUDNAN_clean_linker_2, # of connection points: 2
#     Edge 67, Type (0, 1), BuildingBlock: XUDNAN_clean_linker_2, # of connection points: 2
#     Edge 68, Type (0, 1), BuildingBlock: XUDNAN_clean_linker_2, # of connection points: 2
#     Edge 69, Type (0, 1), BuildingBlock: XUDNAN_clean_linker_2, # of connection points: 2
#     Edge 70, Type (0, 1), BuildingBlock: XUDNAN_clean_linker_2, # of connection points: 2
#     Edge 71, Type (0, 1), BuildingBlock: XUDNAN_clean_linker_2, # of connection points: 2
#     Edge 72, Type (0, 1), BuildingBlock: XUDNAN_clean_linker_2, # of connection points: 2
#     Edge 73, Type (0, 1), BuildingBlock: XUDNAN_clean_linker_2, # of connection points: 2
#     Edge 74, Type (0, 1), BuildingBlock: XUDNAN_clean_linker_2, # of connection points: 2
#     Edge 75, Type (0, 1), BuildingBlock: XUDNAN_clean_linker_2, # of connection points: 2
#     Edge 76, Type (0, 1), BuildingBlock: XUDNAN_clean_linker_2, # of connection points: 2
#     Edge 77, Type (0, 1), BuildingBlock: XUDNAN_clean_linker_2, # of connection points: 2
#     Edge 78, Type (0, 1), BuildingBlock: XUDNAN_clean_linker_2, # of connection points: 2
#     Edge 79, Type (0, 1), BuildingBlock: XUDNAN_clean_linker_2, # of connection points: 2
#     Edge 80, Type (0, 1), BuildingBlock: XUDNAN_clean_linker_2, # of connection points: 2
#     Edge 81, Type (0, 1), BuildingBlock: XUDNAN_clean_linker_2, # of connection points: 2
#     Edge 82, Type (0, 1), BuildingBlock: XUDNAN_clean_linker_2, # of connection points: 2
#     Edge 83, Type (0, 1), BuildingBlock: XUDNAN_clean_linker_2, # of connection points: 2
#     Edge 84, Type (0, 1), BuildingBlock: XUDNAN_clean_linker_2, # of connection points: 2
#     Edge 85, Type (0, 1), BuildingBlock: XUDNAN_clean_linker_2, # of connection points: 2
#     Edge 86, Type (0, 1), BuildingBlock: XUDNAN_clean_linker_2, # of connection points: 2
#     Edge 87, Type (0, 1), BuildingBlock: XUDNAN_clean_linker_2, # of connection points: 2
#     Edge 88, Type (0, 1), BuildingBlock: XUDNAN_clean_linker_2, # of connection points: 2
#     Edge 89, Type (0, 1), BuildingBlock: XUDNAN_clean_linker_2, # of connection points: 2
#     Edge 90, Type (0, 1), BuildingBlock: XUDNAN_clean_linker_2, # of connection points: 2
#     Edge 91, Type (0, 1), BuildingBlock: XUDNAN_clean_linker_2, # of connection points: 2
#     Edge 92, Type (0, 1), BuildingBlock: XUDNAN_clean_linker_2, # of connection points: 2
#     Edge 93, Type (0, 1), BuildingBlock: XUDNAN_clean_linker_2, # of connection points: 2
#     Edge 94, Type (0, 1), BuildingBlock: XUDNAN_clean_linker_2, # of connection points: 2
#     Edge 95, Type (0, 1), BuildingBlock: XUDNAN_clean_linker_2, # of connection points: 2
#     Edge 96, Type (0, 1), BuildingBlock: XUDNAN_clean_linker_2, # of connection points: 2
#     Edge 97, Type (0, 1), BuildingBlock: XUDNAN_clean_linker_2, # of connection points: 2
#     Edge 98, Type (0, 1), BuildingBlock: XUDNAN_clean_linker_2, # of connection points: 2
#     Edge 99, Type (0, 1), BuildingBlock: XUDNAN_clean_linker_2, # of connection points: 2
#     Edge 100, Type (0, 1), BuildingBlock: XUDNAN_clean_linker_2, # of connection points: 2
#     Edge 101, Type (0, 1), BuildingBlock: XUDNAN_clean_linker_2, # of connection points: 2
#     Edge 102, Type (0, 1), BuildingBlock: XUDNAN_clean_linker_2, # of connection points: 2
#     Edge 103, Type (0, 1), BuildingBlock: XUDNAN_clean_linker_2, # of connection points: 2
#     Edge 104, Type (0, 1), BuildingBlock: XUDNAN_clean_linker_2, # of connection points: 2
#     Edge 105, Type (0, 1), BuildingBlock: XUDNAN_clean_linker_2, # of connection points: 2
#     Edge 106, Type (0, 1), BuildingBlock: XUDNAN_clean_linker_2, # of connection points: 2
#     Edge 107, Type (0, 1), BuildingBlock: XUDNAN_clean_linker_2, # of connection points: 2
#     Edge 108, Type (0, 1), BuildingBlock: XUDNAN_clean_linker_2, # of connection points: 2
#     Edge 109, Type (0, 1), BuildingBlock: XUDNAN_clean_linker_2, # of connection points: 2
#     Edge 110, Type (0, 1), BuildingBlock: XUDNAN_clean_linker_2, # of connection points: 2
#     Edge 111, Type (0, 1), BuildingBlock: XUDNAN_clean_linker_2, # of connection points: 2
#     Edge 112, Type (0, 1), BuildingBlock: XUDNAN_clean_linker_2, # of connection points: 2
#     Edge 113, Type (0, 1), BuildingBlock: XUDNAN_clean_linker_2, # of connection points: 2
#     Edge 114, Type (0, 1), BuildingBlock: XUDNAN_clean_linker_2, # of connection points: 2
#     Edge 115, Type (0, 1), BuildingBlock: XUDNAN_clean_linker_2, # of connection points: 2
#     Edge 116, Type (0, 1), BuildingBlock: XUDNAN_clean_linker_2, # of connection points: 2
#     Edge 117, Type (0, 1), BuildingBlock: XUDNAN_clean_linker_2, # of connection points: 2
#     Edge 118, Type (0, 1), BuildingBlock: XUDNAN_clean_linker_2, # of connection points: 2
#     Edge 119, Type (0, 1), BuildingBlock: XUDNAN_clean_linker_2, # of connection points: 2
#     Edge 120, Type (0, 1), BuildingBlock: XUDNAN_clean_linker_2, # of connection points: 2
#     Edge 121, Type (0, 1), BuildingBlock: XUDNAN_clean_linker_2, # of connection points: 2
#     Edge 122, Type (0, 1), BuildingBlock: XUDNAN_clean_linker_2, # of connection points: 2
#     Edge 123, Type (0, 1), BuildingBlock: XUDNAN_clean_linker_2, # of connection points: 2
#     Edge 124, Type (0, 1), BuildingBlock: XUDNAN_clean_linker_2, # of connection points: 2
#     Edge 125, Type (0, 1), BuildingBlock: XUDNAN_clean_linker_2, # of connection points: 2
#     Edge 126, Type (0, 1), BuildingBlock: XUDNAN_clean_linker_2, # of connection points: 2
#     Edge 127, Type (0, 1), BuildingBlock: XUDNAN_clean_linker_2, # of connection points: 2
#     Edge 128, Type (0, 1), BuildingBlock: XUDNAN_clean_linker_2, # of connection points: 2
#     Edge 129, Type (0, 1), BuildingBlock: XUDNAN_clean_linker_2, # of connection points: 2
#     Edge 130, Type (0, 1), BuildingBlock: XUDNAN_clean_linker_2, # of connection points: 2
#     Edge 131, Type (0, 1), BuildingBlock: XUDNAN_clean_linker_2, # of connection points: 2
#     Edge 132, Type (0, 1), BuildingBlock: XUDNAN_clean_linker_2, # of connection points: 2
#     Edge 133, Type (0, 1), BuildingBlock: XUDNAN_clean_linker_2, # of connection points: 2
#     Edge 134, Type (0, 1), BuildingBlock: XUDNAN_clean_linker_2, # of connection points: 2
#     Edge 135, Type (0, 1), BuildingBlock: XUDNAN_clean_linker_2, # of connection points: 2
#     Edge 136, Type (0, 1), BuildingBlock: XUDNAN_clean_linker_2, # of connection points: 2
#     Edge 137, Type (0, 1), BuildingBlock: XUDNAN_clean_linker_2, # of connection points: 2
#     Edge 138, Type (0, 1), BuildingBlock: XUDNAN_clean_linker_2, # of connection points: 2
#     Edge 139, Type (0, 1), BuildingBlock: XUDNAN_clean_linker_2, # of connection points: 2
#     Edge 140, Type (0, 1), BuildingBlock: XUDNAN_clean_linker_2, # of connection points: 2
#     Edge 141, Type (0, 1), BuildingBlock: XUDNAN_clean_linker_2, # of connection points: 2
#     Edge 142, Type (0, 1), BuildingBlock: XUDNAN_clean_linker_2, # of connection points: 2
#     Edge 143, Type (0, 1), BuildingBlock: XUDNAN_clean_linker_2, # of connection points: 2
#     Edge 144, Type (0, 1), BuildingBlock: XUDNAN_clean_linker_2, # of connection points: 2
#     Edge 145, Type (0, 1), BuildingBlock: XUDNAN_clean_linker_2, # of connection points: 2
#     Edge 146, Type (0, 1), BuildingBlock: XUDNAN_clean_linker_2, # of connection points: 2
#     Edge 147, Type (0, 1), BuildingBlock: XUDNAN_clean_linker_2, # of connection points: 2
#     Edge 148, Type (0, 1), BuildingBlock: XUDNAN_clean_linker_2, # of connection points: 2
#     Edge 149, Type (0, 1), BuildingBlock: XUDNAN_clean_linker_2, # of connection points: 2
#     Edge 150, Type (0, 1), BuildingBlock: XUDNAN_clean_linker_2, # of connection points: 2
#     Edge 151, Type (0, 1), BuildingBlock: XUDNAN_clean_linker_2, # of connection points: 2
# Relax obj value: 0.022
# Max RMSD: 0.184
# Mean RMSD: 0.112
data_MOF--net-tbo--node1-ESEHIV_clean_sbu_0--node2-PAMTOO_clean_linker_0--edge1-XUDNAN_clean_linker_2
_symmetry_space_group_name_H-M    P1
_symmetry_Int_Tables_number       1
_symmetry_cell_setting            triclinic
loop_
_symmetry_equiv_pos_as_xyz
'x, y, z'
_cell_length_a     71.180623
_cell_length_b     73.999206
_cell_length_c     73.953888
_cell_angle_alpha  90.416285
_cell_angle_beta   93.726164
_cell_angle_gamma 98.292495
loop_
_atom_site_label
_atom_site_type_symbol
_atom_site_fract_x
_atom_site_fract_y
_atom_site_fract_z
_atom_type_partial_charge
H0 H 0.16654 0.22067 0.19224 0.0
H1 H 0.16319 0.17628 0.2299 0.0
H2 H 0.20487 0.18065 0.19025 0.0
H3 H 0.18773 0.1427 0.1976 0.0
C4 C 0.1857 0.14414 0.21231 0.0
O5 O 0.19189 0.16202 0.21796 0.0
H6 H 0.17019 0.14074 0.21409 0.0
C7 C 0.17139 0.20826 0.19714 0.0
C8 C 0.18671 0.20188 0.18911 0.0
C9 C 0.16267 0.19918 0.21186 0.0
C10 C 0.16932 0.18321 0.21835 0.0
C11 C 0.18456 0.17657 0.21059 0.0
C12 C 0.19309 0.18588 0.19602 0.0
H13 H 0.87728 0.19099 0.19516 0.0
H14 H 0.82867 0.19188 0.15745 0.0
H15 H 0.88087 0.22693 0.14961 0.0
H16 H 0.84761 0.24371 0.14897 0.0
C17 C 0.83782 0.23383 0.14007 0.0
O18 O 0.8455 0.21793 0.13775 0.0
H19 H 0.82416 0.23052 0.14666 0.0
C20 C 0.87077 0.19622 0.18299 0.0
C21 C 0.88146 0.20961 0.17299 0.0
C22 C 0.85179 0.18949 0.17738 0.0
C23 C 0.84346 0.19647 0.16169 0.0
C24 C 0.85397 0.21003 0.15184 0.0
C25 C 0.87303 0.21623 0.15722 0.0
H26 H 0.87329 0.8403 0.19831 0.0
H27 H 0.84294 0.88632 0.18998 0.0
H28 H 0.87919 0.88349 0.23841 0.0
H29 H 0.84219 0.89584 0.24422 0.0
C30 C 0.84014 0.90349 0.23152 0.0
O31 O 0.85549 0.90278 0.22101 0.0
H32 H 0.82694 0.89654 0.22409 0.0
C33 C 0.86984 0.85335 0.20272 0.0
C34 C 0.87794 0.86081 0.21951 0.0
C35 C 0.85732 0.86237 0.19167 0.0
C36 C 0.85251 0.87904 0.19811 0.0
C37 C 0.86026 0.88666 0.215 0.0
C38 C 0.87322 0.87763 0.22546 0.0
H39 H 0.13525 0.85309 0.23104 0.0
H40 H 0.15801 0.82088 0.19139 0.0
H41 H 0.18963 0.87202 0.21017 0.0
H42 H 0.20097 0.86571 0.17449 0.0
C43 C 0.19074 0.85292 0.17235 0.0
O44 O 0.18924 0.8439 0.1886 0.0
H45 H 0.17679 0.85694 0.16747 0.0
C46 C 0.14635 0.85136 0.22208 0.0
C47 C 0.16249 0.86476 0.22189 0.0
C48 C 0.14456 0.83546 0.2112 0.0
C49 C 0.15922 0.83293 0.20004 0.0
C50 C 0.17544 0.8461 0.19981 0.0
C51 C 0.17715 0.86183 0.21083 0.0
H52 H 0.17127 0.9118 0.83482 0.0
H53 H 0.15241 0.85996 0.85865 0.0
H54 H 0.20706 0.88875 0.87541 0.0
H55 H 0.20481 0.84857 0.86711 0.0
C56 C 0.19085 0.84408 0.87285 0.0
O57 O 0.18337 0.85903 0.87889 0.0
H58 H 0.18109 0.83674 0.86196 0.0
C59 C 0.17381 0.90112 0.84422 0.0
C60 C 0.19122 0.90242 0.85485 0.0
C61 C 0.15953 0.88603 0.84578 0.0
C62 C 0.16299 0.87193 0.85758 0.0
C63 C 0.18023 0.87286 0.86782 0.0
C64 C 0.19412 0.88812 0.86674 0.0
H65 H 0.1761 0.24612 0.90707 0.0
H66 H 0.1598 0.21236 0.85923 0.0
H67 H 0.20773 0.20284 0.89419 0.0
H68 H 0.21235 0.20189 0.85503 0.0
C69 C 0.1988 0.19291 0.85089 0.0
O70 O 0.18678 0.1916 0.86498 0.0
H71 H 0.192 0.19942 0.83916 0.0
C72 C 0.17842 0.23508 0.89818 0.0
C73 C 0.1935 0.22513 0.90279 0.0
C74 C 0.16596 0.23074 0.88255 0.0
C75 C 0.16925 0.21627 0.87112 0.0
C76 C 0.18431 0.20623 0.8754 0.0
C77 C 0.19626 0.21071 0.89115 0.0
H78 H 0.83081 0.15387 0.90175 0.0
H79 H 0.86696 0.20587 0.90685 0.0
H80 H 0.87539 0.16756 0.86544 0.0
H81 H 0.91003 0.18576 0.87933 0.0
C82 C 0.906 0.19851 0.88502 0.0
O83 O 0.8873 0.19973 0.87969 0.0
H84 H 0.90787 0.19798 0.90006 0.0
C85 C 0.84279 0.16324 0.89748 0.0
C86 C 0.85263 0.15845 0.88274 0.0
C87 C 0.84771 0.18033 0.90628 0.0
C88 C 0.86282 0.19267 0.90021 0.0
C89 C 0.87276 0.18794 0.88553 0.0
C90 C 0.86753 0.171 0.87674 0.0
H91 H 0.80458 0.89889 0.89594 0.0
H92 H 0.84308 0.85909 0.90093 0.0
H93 H 0.84404 0.89461 0.85501 0.0
H94 H 0.84942 0.8553 0.84717 0.0
C95 C 0.85882 0.85339 0.85941 0.0
O96 O 0.86004 0.86843 0.87096 0.0
H97 H 0.85236 0.84106 0.86652 0.0
C98 C 0.81568 0.89222 0.89056 0.0
C99 C 0.82326 0.89847 0.87424 0.0
C100 C 0.82269 0.87817 0.90053 0.0
C101 C 0.83705 0.86954 0.89329 0.0
C102 C 0.84461 0.87527 0.87671 0.0
C103 C 0.83758 0.88967 0.86724 0.0
H104 H 0.15691 0.74723 0.6792 0.0
H105 H 0.16019 0.70885 0.72241 0.0
H106 H 0.1948 0.70681 0.67728 0.0
H107 H 0.18205 0.67132 0.69055 0.0
C108 C 0.1809 0.67422 0.70519 0.0
O109 O 0.18681 0.69268 0.70869 0.0
H110 H 0.1657 0.67068 0.70819 0.0
C111 C 0.16271 0.73566 0.685 0.0
C112 C 0.17647 0.72788 0.67578 0.0
C113 C 0.15656 0.72898 0.70182 0.0
C114 C 0.16433 0.71399 0.70937 0.0
C115 C 0.17823 0.70613 0.70057 0.0
C116 C 0.18418 0.71309 0.68388 0.0
H117 H 0.86652 0.72424 0.70841 0.0
H118 H 0.81555 0.71726 0.67282 0.0
H119 H 0.86138 0.75934 0.66266 0.0
H120 H 0.82149 0.76833 0.66444 0.0
C121 C 0.81479 0.75759 0.65444 0.0
O122 O 0.82686 0.74481 0.65224 0.0
H123 H 0.80136 0.75079 0.65977 0.0
C124 C 0.85862 0.72797 0.69633 0.0
C125 C 0.8665 0.7427 0.68594 0.0
C126 C 0.84028 0.71858 0.6918 0.0
C127 C 0.82971 0.72423 0.67666 0.0
C128 C 0.83731 0.73903 0.66638 0.0
C129 C 0.85567 0.74808 0.6709 0.0
H130 H 0.86131 0.35935 0.70812 0.0
H131 H 0.82658 0.4022 0.70138 0.0
H132 H 0.87036 0.40593 0.74463 0.0
H133 H 0.83537 0.42037 0.755 0.0
C134 C 0.82925 0.42297 0.7412 0.0
O135 O 0.84296 0.42215 0.72886 0.0
H136 H 0.81698 0.412 0.73808 0.0
C137 C 0.85754 0.37227 0.71251 0.0
C138 C 0.86775 0.38155 0.72766 0.0
C139 C 0.84263 0.37948 0.70284 0.0
C140 C 0.83817 0.3965 0.70838 0.0
C141 C 0.84806 0.40602 0.72343 0.0
C142 C 0.86296 0.39862 0.7329 0.0
H143 H 0.14774 0.38245 0.73744 0.0
H144 H 0.16046 0.34518 0.69648 0.0
H145 H 0.19772 0.39545 0.70743 0.0
H146 H 0.20301 0.34322 0.69406 0.0
C147 C 0.20732 0.35777 0.69059 0.0
O148 O 0.19128 0.366 0.68726 0.0
H149 H 0.21628 0.36462 0.70228 0.0
C150 C 0.15691 0.37895 0.72722 0.0
C151 C 0.17337 0.39107 0.72386 0.0
C152 C 0.15208 0.36236 0.71744 0.0
C153 C 0.16402 0.35783 0.70423 0.0
C154 C 0.1803 0.36993 0.70057 0.0
C155 C 0.18491 0.38644 0.71031 0.0
H156 H 0.15415 0.38591 0.33897 0.0
H157 H 0.14267 0.34371 0.37809 0.0
H158 H 0.19064 0.38537 0.3878 0.0
H159 H 0.19608 0.34572 0.39318 0.0
C160 C 0.18264 0.34133 0.39988 0.0
O161 O 0.17194 0.35545 0.40005 0.0
H162 H 0.17458 0.32953 0.39196 0.0
C163 C 0.15766 0.37993 0.35183 0.0
C164 C 0.17381 0.38786 0.36263 0.0
C165 C 0.14618 0.36411 0.35722 0.0
C166 C 0.15096 0.35619 0.37379 0.0
C167 C 0.16704 0.36378 0.38461 0.0
C168 C 0.17833 0.37963 0.37915 0.0
H169 H 0.17419 0.71312 0.38355 0.0
H170 H 0.17857 0.67744 0.33805 0.0
H171 H 0.21655 0.67704 0.38548 0.0
H172 H 0.18757 0.64063 0.35018 0.0
C173 C 0.20272 0.64466 0.3551 0.0
O174 O 0.2077 0.66327 0.35273 0.0
H175 H 0.20398 0.64156 0.36979 0.0
C176 C 0.18061 0.70246 0.37728 0.0
C177 C 0.19575 0.69558 0.38689 0.0
C178 C 0.17408 0.6962 0.35959 0.0
C179 C 0.1833 0.68276 0.3515 0.0
C180 C 0.19867 0.67593 0.36078 0.0
C181 C 0.20488 0.6825 0.37836 0.0
H182 H 0.80154 0.65609 0.38773 0.0
H183 H 0.85107 0.69635 0.38293 0.0
H184 H 0.84535 0.64585 0.35313 0.0
H185 H 0.8833 0.65843 0.36626 0.0
C186 C 0.88355 0.6735 0.36594 0.0
O187 O 0.86616 0.67751 0.35911 0.0
H188 H 0.88656 0.67891 0.38007 0.0
C189 C 0.81531 0.66024 0.38242 0.0
C190 C 0.82224 0.64858 0.37022 0.0
C191 C 0.82555 0.67747 0.38726 0.0
C192 C 0.84289 0.68314 0.37945 0.0
C193 C 0.84984 0.67175 0.36707 0.0
C194 C 0.83959 0.65455 0.36253 0.0
H195 H 0.81092 0.36506 0.40485 0.0
H196 H 0.85102 0.32675 0.4054 0.0
H197 H 0.84601 0.36158 0.35974 0.0
H198 H 0.85364 0.32386 0.35075 0.0
C199 C 0.86256 0.32145 0.36315 0.0
O200 O 0.86484 0.33676 0.37442 0.0
H201 H 0.85515 0.30961 0.37035 0.0
C202 C 0.8216 0.35892 0.39817 0.0
C203 C 0.82697 0.36505 0.38087 0.0
C204 C 0.82998 0.34493 0.40705 0.0
C205 C 0.84413 0.3372 0.39859 0.0
C206 C 0.85006 0.34336 0.38168 0.0
C207 C 0.84144 0.35716 0.37288 0.0
H208 H 0.67323 0.22954 0.68445 0.0
H209 H 0.67191 0.1917 0.72866 0.0
H210 H 0.70978 0.18795 0.68625 0.0
H211 H 0.6945 0.15258 0.69834 0.0
C212 C 0.69136 0.15551 0.71252 0.0
O213 O 0.69813 0.17369 0.71674 0.0
H214 H 0.67567 0.15297 0.71343 0.0
C215 C 0.67826 0.21801 0.69117 0.0
C216 C 0.69232 0.2095 0.68324 0.0
C217 C 0.67082 0.21196 0.70772 0.0
C218 C 0.67724 0.19657 0.71592 0.0
C219 C 0.69126 0.18788 0.70819 0.0
C220 C 0.69892 0.1946 0.69207 0.0
H221 H 0.38856 0.21167 0.73475 0.0
H222 H 0.33295 0.20124 0.70684 0.0
H223 H 0.37717 0.23762 0.68393 0.0
H224 H 0.33733 0.24898 0.68662 0.0
C225 C 0.32917 0.23567 0.68171 0.0
O226 O 0.34133 0.2229 0.68008 0.0
H227 H 0.31869 0.23102 0.69184 0.0
C228 C 0.3789 0.21384 0.72329 0.0
C229 C 0.3853 0.22559 0.70936 0.0
C230 C 0.35999 0.20504 0.72254 0.0
C231 C 0.34756 0.20795 0.70767 0.0
C232 C 0.35373 0.2197 0.69388 0.0
C233 C 0.37259 0.22841 0.69463 0.0
H234 H 0.36451 0.86041 0.69863 0.0
H235 H 0.32456 0.89899 0.6975 0.0
H236 H 0.37001 0.90344 0.7391 0.0
H237 H 0.33293 0.91251 0.7519 0.0
C238 C 0.32671 0.91696 0.73878 0.0
O239 O 0.3402 0.91783 0.72601 0.0
H240 H 0.31431 0.90651 0.73449 0.0
C241 C 0.35966 0.87237 0.7042 0.0
C242 C 0.36952 0.88118 0.71975 0.0
C243 C 0.34334 0.87849 0.69602 0.0
C244 C 0.33685 0.89376 0.70371 0.0
C245 C 0.34631 0.90268 0.71928 0.0
C246 C 0.36257 0.8963 0.7273 0.0
H247 H 0.6375 0.86658 0.71234 0.0
H248 H 0.6307 0.82246 0.67306 0.0
H249 H 0.67574 0.86698 0.66943 0.0
H250 H 0.65841 0.85312 0.63317 0.0
C251 C 0.65159 0.83957 0.63767 0.0
O252 O 0.65914 0.83616 0.65473 0.0
H253 H 0.63601 0.84 0.63782 0.0
C254 C 0.6421 0.86025 0.70048 0.0
C255 C 0.6578 0.86909 0.69175 0.0
C256 C 0.63221 0.84334 0.69401 0.0
C257 C 0.63823 0.83529 0.67856 0.0
C258 C 0.65375 0.84395 0.66973 0.0
C259 C 0.66358 0.86068 0.67634 0.0
H260 H 0.6488 0.88907 0.31179 0.0
H261 H 0.64185 0.84856 0.35345 0.0
H262 H 0.69161 0.88882 0.35559 0.0
H263 H 0.69771 0.85159 0.36469 0.0
C264 C 0.68484 0.84725 0.37226 0.0
O265 O 0.67366 0.86104 0.37193 0.0
H266 H 0.67672 0.83472 0.36564 0.0
C267 C 0.65389 0.88312 0.32418 0.0
C268 C 0.67155 0.89066 0.33262 0.0
C269 C 0.64296 0.86785 0.33141 0.0
C270 C 0.64981 0.86045 0.34762 0.0
C271 C 0.66729 0.86806 0.35626 0.0
C272 C 0.67812 0.88307 0.34876 0.0
H273 H 0.66889 0.23044 0.38755 0.0
H274 H 0.66358 0.19055 0.34387 0.0
H275 H 0.70655 0.19006 0.38732 0.0
H276 H 0.71924 0.18655 0.35008 0.0
C277 C 0.70693 0.17678 0.34426 0.0
O278 O 0.69264 0.17468 0.3563 0.0
H279 H 0.70153 0.18282 0.33156 0.0
C280 C 0.6735 0.21886 0.381 0.0
C281 C 0.68861 0.21113 0.38947 0.0
C282 C 0.6638 0.21144 0.36476 0.0
C283 C 0.67066 0.19666 0.3563 0.0
C284 C 0.68635 0.18919 0.36424 0.0
C285 C 0.69494 0.19623 0.38097 0.0
H286 H 0.29775 0.18293 0.40473 0.0
H287 H 0.35292 0.21644 0.40944 0.0
H288 H 0.34275 0.17071 0.37265 0.0
H289 H 0.37947 0.17438 0.39179 0.0
C290 C 0.38264 0.18949 0.39354 0.0
O291 O 0.36783 0.19752 0.38581 0.0
H292 H 0.38454 0.19276 0.40832 0.0
C293 C 0.31234 0.18599 0.40103 0.0
C294 C 0.31884 0.17501 0.38789 0.0
C295 C 0.32445 0.20118 0.40889 0.0
C296 C 0.34337 0.2047 0.4039 0.0
C297 C 0.34991 0.1936 0.39104 0.0
C298 C 0.33763 0.17897 0.3829 0.0
H299 H 0.29727 0.8832 0.38858 0.0
H300 H 0.33498 0.84266 0.3948 0.0
H301 H 0.34038 0.87977 0.35073 0.0
H302 H 0.34372 0.8404 0.3421 0.0
C303 C 0.35187 0.8374 0.3548 0.0
O304 O 0.35405 0.85245 0.36647 0.0
H305 H 0.34358 0.82563 0.36136 0.0
C306 C 0.30892 0.87687 0.38396 0.0
C307 C 0.31776 0.88345 0.3682 0.0
C308 C 0.31499 0.86225 0.39392 0.0
C309 C 0.33012 0.85402 0.38765 0.0
C310 C 0.33905 0.86017 0.37196 0.0
C311 C 0.33293 0.87488 0.36244 0.0
H312 H 0.65204 0.71826 0.19136 0.0
H313 H 0.6479 0.6753 0.23067 0.0
H314 H 0.69487 0.68257 0.19671 0.0
H315 H 0.67529 0.64415 0.20309 0.0
C316 C 0.67594 0.64549 0.21812 0.0
O317 O 0.68007 0.66378 0.22333 0.0
H318 H 0.66171 0.63994 0.2227 0.0
C319 C 0.65744 0.70664 0.19752 0.0
C320 C 0.67468 0.70171 0.19205 0.0
C321 C 0.64744 0.69724 0.21141 0.0
C322 C 0.65519 0.68269 0.21997 0.0
C323 C 0.67226 0.67738 0.21458 0.0
C324 C 0.6818 0.68687 0.20068 0.0
H325 H 0.34978 0.68277 0.19965 0.0
H326 H 0.30554 0.67367 0.15676 0.0
H327 H 0.35246 0.71625 0.15202 0.0
H328 H 0.31706 0.72767 0.13488 0.0
C329 C 0.30818 0.71427 0.13676 0.0
O330 O 0.31974 0.70076 0.13716 0.0
H331 H 0.30128 0.71485 0.14982 0.0
C332 C 0.34402 0.68624 0.18641 0.0
C333 C 0.35363 0.7007 0.17674 0.0
C334 C 0.32684 0.67624 0.17919 0.0
C335 C 0.31901 0.68097 0.16232 0.0
C336 C 0.3281 0.69559 0.15281 0.0
C337 C 0.34548 0.7052 0.15981 0.0
H338 H 0.33731 0.39364 0.18674 0.0
H339 H 0.37299 0.35209 0.19866 0.0
H340 H 0.37156 0.3952 0.23718 0.0
H341 H 0.41019 0.38606 0.23281 0.0
C342 C 0.40649 0.37149 0.22847 0.0
O343 O 0.38717 0.3661 0.22981 0.0
H344 H 0.41004 0.37049 0.21409 0.0
C345 C 0.34732 0.38773 0.19573 0.0
C346 C 0.35324 0.39631 0.21275 0.0
C347 C 0.35428 0.37167 0.19027 0.0
C348 C 0.36753 0.36448 0.2022 0.0
C349 C 0.3739 0.37303 0.2189 0.0
C350 C 0.36654 0.38871 0.22423 0.0
H351 H 0.64101 0.36558 0.21192 0.0
H352 H 0.64941 0.33888 0.16185 0.0
H353 H 0.68848 0.38572 0.18058 0.0
H354 H 0.69199 0.33927 0.16401 0.0
C355 C 0.69331 0.34994 0.15343 0.0
O356 O 0.67959 0.36129 0.15458 0.0
H357 H 0.70754 0.35833 0.15569 0.0
C358 C 0.64931 0.36457 0.20028 0.0
C359 C 0.66548 0.37754 0.19805 0.0
C360 C 0.64346 0.35049 0.18739 0.0
C361 C 0.65363 0.3497 0.17186 0.0
C362 C 0.66978 0.36241 0.16949 0.0
C363 C 0.67574 0.37621 0.18254 0.0
H364 H 0.67682 0.42357 0.84069 0.0
H365 H 0.67674 0.36987 0.86328 0.0
H366 H 0.71959 0.41357 0.88196 0.0
H367 H 0.73237 0.37992 0.87406 0.0
C368 C 0.72165 0.37049 0.88105 0.0
O369 O 0.70664 0.37924 0.88533 0.0
H370 H 0.71632 0.35873 0.87173 0.0
C371 C 0.68302 0.4143 0.84979 0.0
C372 C 0.69929 0.42086 0.86118 0.0
C373 C 0.67439 0.39594 0.85071 0.0
C374 C 0.68274 0.38414 0.86261 0.0
C375 C 0.69892 0.39059 0.87377 0.0
C376 C 0.70697 0.40888 0.87323 0.0
H377 H 0.67171 0.74609 0.9069 0.0
H378 H 0.65577 0.71109 0.85987 0.0
H379 H 0.70488 0.70395 0.89438 0.0
H380 H 0.70847 0.70456 0.85338 0.0
C381 C 0.69506 0.69515 0.84975 0.0
O382 O 0.68439 0.69244 0.86475 0.0
H383 H 0.68695 0.70185 0.83902 0.0
C384 C 0.67397 0.73473 0.8984 0.0
C385 C 0.68959 0.72548 0.90293 0.0
C386 C 0.66138 0.72969 0.88304 0.0
C387 C 0.66525 0.71549 0.87162 0.0
C388 C 0.68112 0.70647 0.87555 0.0
C389 C 0.69311 0.71143 0.8912 0.0
H390 H 0.31047 0.67794 0.90689 0.0
H391 H 0.36316 0.71421 0.90285 0.0
H392 H 0.35172 0.66563 0.87006 0.0
H393 H 0.39109 0.67397 0.88156 0.0
C394 C 0.39245 0.68905 0.88341 0.0
O395 O 0.37562 0.695 0.87768 0.0
H396 H 0.39587 0.69236 0.89808 0.0
C397 C 0.32426 0.6811 0.90132 0.0
C398 C 0.32951 0.66965 0.8878 0.0
C399 C 0.33628 0.69733 0.90674 0.0
C400 C 0.35382 0.70171 0.89896 0.0
C401 C 0.35928 0.69019 0.88587 0.0
C402 C 0.34723 0.67428 0.88036 0.0
H403 H 0.32147 0.39497 0.89336 0.0
H404 H 0.36148 0.35645 0.89413 0.0
H405 H 0.36503 0.39911 0.855 0.0
H406 H 0.37253 0.36124 0.8416 0.0
C407 C 0.37973 0.35713 0.8544 0.0
O408 O 0.38052 0.37093 0.86737 0.0
H409 H 0.37113 0.34455 0.85924 0.0
C410 C 0.33369 0.39012 0.88802 0.0
C411 C 0.34242 0.39922 0.8733 0.0
C412 C 0.34018 0.37453 0.89564 0.0
C413 C 0.35587 0.3681 0.88827 0.0
C414 C 0.36472 0.37678 0.87354 0.0
C415 C 0.35787 0.39223 0.86605 0.0
Cu416 Cu 0.26814 0.29678 0.04811 0.0
N417 N 0.26916 0.3166 0.03193 0.0
N418 N 0.27772 0.33111 1.00637 0.0
C419 C 0.27891 0.31639 0.01688 0.0
C420 C 0.26691 0.34127 0.01538 0.0
C421 C 0.26157 0.33225 0.03111 0.0
O422 O 0.2662 0.27603 0.03084 0.0
C423 C 0.2879 0.31552 0.07702 0.0
O424 O 0.27256 0.3234 0.07449 0.0
H425 H 0.28674 0.30542 0.01368 0.0
H426 H 0.2526 0.33668 0.04102 0.0
N427 N 0.24737 0.29125 0.06291 0.0
N428 N 0.23231 0.27751 0.08617 0.0
C429 C 0.24798 0.27923 0.07651 0.0
C430 C 0.23056 0.29742 0.06381 0.0
C431 C 0.22122 0.28892 0.0781 0.0
C432 C 0.25158 0.27591 0.01974 0.0
O433 O 0.23978 0.28758 0.02261 0.0
H434 H 0.25993 0.27191 0.07923 0.0
H435 H 0.22557 0.30754 0.05496 0.0
O436 O 0.29011 0.30268 0.06596 0.0
H437 H 0.2627 0.35402 0.01072 0.0
H438 H 0.20757 0.29135 0.08245 0.0
Cu439 Cu 0.75006 0.27431 0.00907 0.0
N440 N 0.72764 0.27599 0.0201 0.0
N441 N 0.70866 0.28464 0.04043 0.0
C442 C 0.72658 0.28613 0.03505 0.0
C443 C 0.69804 0.27311 0.02823 0.0
C444 C 0.70981 0.2678 0.01569 0.0
O445 O 0.77017 0.27908 0.02793 0.0
C446 C 0.75782 0.3084 0.99188 0.0
O447 O 0.76295 0.31494 0.00831 0.0
H448 H 0.73879 0.29457 0.04167 0.0
H449 H 0.7057 0.25853 1.00427 0.0
N450 N 0.75046 0.25088 0.99998 0.0
N451 N 0.76162 0.22784 0.98658 0.0
C452 C 0.76314 0.24613 0.98878 0.0
C453 C 0.74042 0.23511 1.00498 0.0
C454 C 0.74725 0.22085 0.9967 0.0
C455 C 0.78774 0.27897 0.02597 0.0
O456 O 0.79367 0.27759 0.00964 0.0
H457 H 0.77395 0.25588 0.98317 0.0
H458 H 0.72947 0.23403 0.01454 0.0
O459 O 0.75247 0.29138 0.98953 0.0
H460 H 0.68291 0.26857 0.02846 0.0
H461 H 0.7423 0.20648 0.99835 0.0
Cu462 Cu 0.76082 0.79472 0.05099 0.0
N463 N 0.75979 0.81576 0.03689 0.0
N464 N 0.76694 0.83576 0.0147 0.0
C465 C 0.76942 0.8194 0.02181 0.0
C466 C 0.75517 0.84258 0.02576 0.0
C467 C 0.75077 0.83025 0.03935 0.0
O468 O 0.75952 0.77544 0.03219 0.0
C469 C 0.7818 0.8121 0.08039 0.0
O470 O 0.7661 0.81954 0.07978 0.0
H471 H 0.77856 0.81044 0.0165 0.0
H472 H 0.74188 0.83189 0.05039 0.0
N473 N 0.7404 0.78816 0.06611 0.0
N474 N 0.72491 0.77454 0.08918 0.0
C475 C 0.74108 0.77665 0.08019 0.0
C476 C 0.72315 0.7936 0.06617 0.0
C477 C 0.71357 0.78518 0.08028 0.0
C478 C 0.74359 0.77321 0.02276 0.0
O479 O 0.73027 0.78247 0.02762 0.0
H480 H 0.75332 0.76996 0.08373 0.0
H481 H 0.71793 0.80311 0.05674 0.0
O482 O 0.78348 0.80018 0.06813 0.0
H483 H 0.75012 0.85563 0.02422 0.0
H484 H 0.69952 0.78714 0.08393 0.0
Cu485 Cu 0.23362 0.76776 0.01775 0.0
N486 N 0.22761 0.78544 0.03379 0.0
N487 N 0.22173 0.79993 0.05898 0.0
C488 C 0.23115 0.78719 0.05194 0.0
C489 C 0.21235 0.80666 0.04471 0.0
C490 C 0.21592 0.79768 0.0293 0.0
O491 O 0.22709 0.74337 0.02691 0.0
C492 C 0.22728 0.78635 0.98646 0.0
O493 O 0.24069 0.79796 0.99504 0.0
H494 H 0.23931 0.77844 0.0599 0.0
H495 H 0.20962 0.79938 0.01584 0.0
N496 N 0.25973 0.76968 0.0154 0.0
N497 N 0.28556 0.76438 1.0019 0.0
C498 C 0.26781 0.7686 0.99955 0.0
C499 C 0.27287 0.76594 0.02823 0.0
C500 C 0.28885 0.76254 0.01989 0.0
C501 C 0.21856 0.73989 0.04132 0.0
O502 O 0.20771 0.75136 0.04708 0.0
H503 H 0.26014 0.76879 0.98645 0.0
H504 H 0.27029 0.76399 0.04239 0.0
O505 O 0.22146 0.77136 0.99404 0.0
H506 H 0.2031 0.817 0.0454 0.0
H507 H 0.3013 0.75781 0.02634 0.0
Cu508 Cu 0.01011 0.2617 0.28196 0.0
N509 N 0.0262 0.24365 0.28059 0.0
N510 N 0.05151 0.23142 0.27197 0.0
C511 C 0.04353 0.24683 0.27386 0.0
C512 C 0.03853 0.21796 0.2779 0.0
C513 C 0.02296 0.22552 0.28313 0.0
O514 O 0.02682 0.28461 0.28555 0.0
C515 C 0.99886 0.25808 0.24391 0.0
O516 O 0.01669 0.25696 0.24111 0.0
H517 H 0.04967 0.2602 0.26955 0.0
H518 H 0.00996 0.2182 0.2878 0.0
N519 N 0.99297 0.25982 0.3005 0.0
N520 N 0.97042 0.26845 0.31728 0.0
C521 C 0.98285 0.27326 0.30446 0.0
C522 C 0.98674 0.24588 0.31118 0.0
C523 C 0.97284 0.25115 0.32153 0.0
C524 C 0.03392 0.28809 0.30163 0.0
O525 O 0.02883 0.27663 0.31452 0.0
H526 H 0.98424 0.28618 0.29756 0.0
H527 H 0.99167 0.23272 0.31123 0.0
O528 O 0.99417 0.26101 0.25984 0.0
H529 H 0.03995 0.2036 0.27818 0.0
H530 H 0.96514 0.24286 0.3314 0.0
Cu531 Cu 0.76823 0.04439 0.26889 0.0
N532 N 0.77066 0.05841 0.24807 0.0
N533 N 0.78041 0.0826 0.23138 0.0
C534 C 0.78188 0.07461 0.24765 0.0
C535 C 0.76782 0.07079 0.22105 0.0
C536 C 0.76176 0.05588 0.23143 0.0
O537 O 0.76569 0.06185 0.28883 0.0
C538 C 0.78791 0.01757 0.25668 0.0
O539 O 0.77468 0.01845 0.24361 0.0
H540 H 0.79091 0.0804 0.25921 0.0
H541 H 0.75141 0.04419 0.22724 0.0
N542 N 0.74612 0.02747 0.2676 0.0
N543 N 0.72816 1.00116 0.27336 0.0
C544 C 0.74522 0.01156 0.2763 0.0
C545 C 0.7289 0.0273 0.25884 0.0
C546 C 0.71769 0.01102 0.26248 0.0
C547 C 0.75236 0.07161 0.28567 0.0
O548 O 0.74211 0.0689 0.27021 0.0
H549 H 0.75695 0.0078 0.28481 0.0
H550 H 0.72482 0.03814 0.25039 0.0
O551 O 0.78888 0.02888 0.27008 0.0
H552 H 0.76297 0.07295 0.20717 0.0
H553 H 0.70315 1.00666 0.25732 0.0
Cu554 Cu 0.01639 0.76555 0.28784 0.0
N555 N 1.00449 0.78686 0.28784 0.0
N556 N 0.98207 0.80474 0.28074 0.0
C557 C 0.98656 0.78755 0.28094 0.0
C558 C 0.99791 0.81529 0.28797 0.0
C559 C 0.01167 0.80426 0.29233 0.0
O560 O 0.99687 0.74533 0.29283 0.0
C561 C 0.02721 0.77456 0.25211 0.0
O562 O 0.01543 0.78663 0.25257 0.0
H563 H 0.97732 0.77565 0.27536 0.0
H564 H 0.02605 0.80869 0.29787 0.0
N565 N 0.03698 0.76515 0.30523 0.0
N566 N 0.06358 0.75611 0.31811 0.0
C567 C 0.05154 0.7556 0.30309 0.0
C568 C 0.03992 0.77206 0.32223 0.0
C569 C 0.05626 0.76649 0.3302 0.0
C570 C 0.98861 0.747 0.3074 0.0
O571 O 0.99409 0.76163 0.31766 0.0
H572 H 0.05287 0.74787 0.29088 0.0
H573 H 0.03066 0.78025 0.32854 0.0
O574 O 0.02765 0.76304 0.26479 0.0
H575 H 0.99958 0.82997 0.28985 0.0
H576 H 0.06225 0.76984 0.34384 0.0
Cu577 Cu 0.24052 0.0163 0.30634 0.0
N578 N 0.24322 0.03176 0.32674 0.0
N579 N 0.25116 0.05807 0.34226 0.0
C580 C 0.25258 0.04888 0.32672 0.0
C581 C 0.24067 0.04615 0.35266 0.0
C582 C 0.23565 0.02992 0.34297 0.0
O583 O 0.23996 0.03317 0.28561 0.0
C584 C 0.26039 0.9903 0.32284 0.0
O585 O 0.24865 0.99305 0.33522 0.0
H586 H 0.26003 0.05455 0.31529 0.0
H587 H 0.2267 0.01786 0.34726 0.0
N588 N 0.2174 1.00073 0.30497 0.0
N589 N 0.19589 0.977 0.29548 0.0
C590 C 0.21383 0.98558 0.29444 0.0
C591 C 0.20121 1.00181 0.31308 0.0
C592 C 0.18785 0.98719 0.30718 0.0
C593 C 0.2265 0.043 0.28548 0.0
O594 O 0.21434 0.04026 0.29815 0.0
H595 H 0.22411 0.98124 0.28582 0.0
H596 H 0.19916 0.01257 0.32241 0.0
O597 O 0.26013 0.99978 0.3084 0.0
H598 H 0.23632 0.04916 0.36597 0.0
H599 H 0.1734 0.98428 0.31122 0.0
Cu600 Cu 0.01249 0.80265 0.77791 0.0
N601 N 0.02885 0.78459 0.77669 0.0
N602 N 0.053 0.77123 0.76684 0.0
C603 C 0.04402 0.78622 0.76639 0.0
C604 C 0.04296 0.75967 0.77794 0.0
C605 C 0.02817 0.7679 0.78397 0.0
O606 O 0.02943 0.82565 0.78084 0.0
C607 C 0.98766 0.7857 0.7511 0.0
O608 O 0.99071 0.77169 0.76113 0.0
H609 H 0.04805 0.79812 0.75833 0.0
H610 H 0.01751 0.7619 0.79275 0.0
N611 N 0.99512 0.80105 0.79649 0.0
N612 N 0.97144 0.80873 0.81255 0.0
C613 C 0.98343 0.81356 0.79931 0.0
C614 C 0.99036 0.78778 0.8084 0.0
C615 C 0.97583 0.79245 0.81828 0.0
C616 C 0.03678 0.82965 0.79676 0.0
O617 O 0.03133 0.81894 0.81011 0.0
H618 H 0.98343 0.82579 0.79137 0.0
H619 H 0.99675 0.77545 0.80975 0.0
O620 O 0.99666 0.8014 0.75552 0.0
H621 H 0.04607 0.74622 0.78155 0.0
H622 H 0.96912 0.78445 0.82891 0.0
Cu623 Cu 0.27894 0.05901 0.80688 0.0
N624 N 0.30092 0.07618 0.80594 0.0
N625 N 0.31844 0.10229 0.79859 0.0
C626 C 0.30089 0.09256 0.7982 0.0
C627 C 0.33011 0.0916 0.80683 0.0
C628 C 0.31922 0.0755 0.81147 0.0
O629 O 0.2578 0.07367 0.80716 0.0
C630 C 0.29277 0.03095 0.78947 0.0
O631 O 0.30496 0.03471 0.80355 0.0
H632 H 0.28821 0.09708 0.79199 0.0
H633 H 0.32439 0.06413 0.81827 0.0
N634 N 0.27861 0.0456 0.82813 0.0
N635 N 0.27091 0.02105 0.8449 0.0
C636 C 0.26617 0.03039 0.83015 0.0
C637 C 0.29161 0.04611 0.84225 0.0
C638 C 0.28694 0.03083 0.8526 0.0
C639 C 0.25934 0.08507 0.82049 0.0
O640 O 0.27375 0.08507 0.83254 0.0
H641 H 0.25476 0.02548 0.82013 0.0
H642 H 0.30417 0.0562 0.84429 0.0
O643 O 0.27915 0.04052 0.78735 0.0
H644 H 0.34534 0.0952 0.80939 0.0
H645 H 0.29511 0.02682 0.86437 0.0
Cu646 Cu 0.01992 0.30704 0.80505 0.0
N647 N 1.0054 0.3266 0.8013 0.0
N648 N 0.98081 0.34069 0.79099 0.0
C649 C 0.98823 0.3248 0.79197 0.0
C650 C 0.99397 0.35301 0.8001 0.0
C651 C 1.00902 0.34432 0.80647 0.0
O652 O 1.00208 0.28735 0.81421 0.0
C653 C 0.03924 0.31684 0.77531 0.0
O654 O 0.03783 0.33267 0.78282 0.0
H655 H 0.98143 0.312 0.78584 0.0
H656 H 0.02176 0.35058 0.81416 0.0
N657 N 0.04076 0.31058 0.82258 0.0
N658 N 0.06516 0.30314 0.84056 0.0
C659 C 0.0532 0.29851 0.82574 0.0
C660 C 0.04517 0.32338 0.83578 0.0
C661 C 0.0601 0.31881 0.84686 0.0
C662 C 0.99546 0.29238 0.82875 0.0
O663 O 1.00161 0.30893 0.83516 0.0
H664 H 0.05271 0.28599 0.81796 0.0
H665 H 0.03749 0.33474 0.83778 0.0
O666 O 0.03125 0.30236 0.78249 0.0
H667 H 0.99276 0.36726 0.80227 0.0
H668 H 0.06637 0.32618 0.859 0.0
Cu669 Cu 0.75783 0.01984 0.7795 0.0
N670 N 0.78095 0.03688 0.7854 0.0
N671 N 0.80263 0.05679 0.80082 0.0
C672 C 0.78671 0.04461 0.80168 0.0
C673 C 0.80699 0.05673 0.78333 0.0
C674 C 0.79356 0.04433 0.77382 0.0
O675 O 0.74555 0.04087 0.76752 0.0
C676 C 0.76854 0.99775 0.80944 0.0
O677 O 0.7586 0.00872 0.81749 0.0
H678 H 0.77894 0.04197 0.8137 0.0
H679 H 0.79274 0.04127 0.75944 0.0
N680 N 0.73484 1.00265 0.77341 0.0
N681 N 0.71519 0.97996 0.75937 0.0
C682 C 0.73126 0.99198 0.75844 0.0
C683 C 0.72065 0.99733 0.7842 0.0
C684 C 0.70846 0.98326 0.77555 0.0
C685 C 0.74008 0.05273 0.77784 0.0
O686 O 0.7417 0.05032 0.79543 0.0
H687 H 0.74071 0.99244 0.7475 0.0
H688 H 0.71961 1.00288 0.79761 0.0
O689 O 0.77009 0.99933 0.79242 0.0
H690 H 0.81889 0.06519 0.7778 0.0
H691 H 0.6958 0.97586 0.78084 0.0
Cu692 Cu 0.26338 0.78898 0.53977 0.0
N693 N 0.28404 0.79674 0.55677 0.0
N694 N 0.2986 0.81034 0.58231 0.0
C695 C 0.28244 0.80736 0.57134 0.0
C696 C 0.31099 0.80128 0.57411 0.0
C697 C 0.30199 0.7929 0.55844 0.0
O698 O 0.24139 0.7838 0.55496 0.0
C699 C 0.27814 0.81016 0.51187 0.0
O700 O 0.29266 0.80215 0.51767 0.0
H701 H 0.26944 0.81267 0.57383 0.0
H702 H 0.3081 0.78444 0.54915 0.0
N703 N 0.26441 0.7674 0.52647 0.0
N704 N 0.25484 0.74724 0.50368 0.0
C705 C 0.24992 0.76015 0.51475 0.0
C706 C 0.27911 0.75871 0.52274 0.0
C707 C 0.27324 0.74626 0.5087 0.0
C708 C 0.24379 0.77244 0.56763 0.0
O709 O 0.2595 0.76499 0.56838 0.0
H710 H 0.2364 0.76526 0.51352 0.0
H711 H 0.29337 0.76187 0.52893 0.0
O712 O 0.26297 0.80737 0.52051 0.0
H713 H 0.32538 0.80032 0.57926 0.0
H714 H 0.28201 0.7376 0.50234 0.0
Cu715 Cu 0.73302 0.7664 0.50905 0.0
N716 N 0.73749 0.74718 0.49426 0.0
N717 N 0.7514 0.73157 0.47431 0.0
C718 C 0.75154 0.74774 0.48286 0.0
C719 C 0.73681 0.72029 0.48073 0.0
C720 C 0.72826 0.72996 0.49306 0.0
O721 O 0.72696 0.78663 0.49428 0.0
C722 C 0.75855 0.78674 0.53578 0.0
O723 O 0.74909 0.8004 0.53209 0.0
H724 H 0.76201 0.75962 0.48126 0.0
H725 H 0.71629 0.72473 0.50072 0.0
N726 N 0.71181 0.75965 0.52225 0.0
N727 N 0.69165 0.76233 0.54371 0.0
C728 C 0.70967 0.76642 0.53877 0.0
C729 C 0.69459 0.7508 0.51648 0.0
C730 C 0.68213 0.75231 0.52978 0.0
C731 C 0.73707 0.79526 0.48269 0.0
O732 O 0.75447 0.79187 0.48094 0.0
H733 H 0.72091 0.77503 0.54659 0.0
H734 H 0.69102 0.74481 0.5031 0.0
O735 O 0.75458 0.77202 0.52649 0.0
H736 H 0.73251 0.70613 0.47669 0.0
H737 H 0.66698 0.74759 0.52867 0.0
Cu738 Cu 0.76162 0.28962 0.54883 0.0
N739 N 0.74202 0.28954 0.53053 0.0
N740 N 0.72593 0.27821 0.50477 0.0
C741 C 0.73441 0.27437 0.52093 0.0
C742 C 0.72776 0.29666 0.50457 0.0
C743 C 0.73776 0.30357 0.52038 0.0
O744 O 0.7847 0.29188 0.53504 0.0
C745 C 0.76051 0.26348 0.57923 0.0
O746 O 0.77777 0.27085 0.58503 0.0
H747 H 0.73718 0.2609 0.52484 0.0
H748 H 0.74309 0.31778 0.5234 0.0
N749 N 0.76509 0.31076 0.56384 0.0
N750 N 0.7755 0.32785 0.58888 0.0
C751 C 0.76699 0.31135 0.58216 0.0
C752 C 0.77218 0.32766 0.55877 0.0
C753 C 0.77849 0.33819 0.57405 0.0
C754 C 0.7852 0.28538 0.51901 0.0
O755 O 0.77289 0.27111 0.51364 0.0
H756 H 0.76315 0.29957 0.59033 0.0
H757 H 0.77424 0.33157 0.54489 0.0
O758 O 0.75343 0.26832 0.56399 0.0
H759 H 0.72336 0.30472 0.49336 0.0
H760 H 0.78611 0.35193 0.57404 0.0
Cu761 Cu 0.27076 0.30441 0.54081 0.0
N762 N 0.27558 0.32535 0.55549 0.0
N763 N 0.27215 0.34293 0.57942 0.0
C764 C 0.26592 0.32717 0.57024 0.0
C765 C 0.28631 0.35149 0.56989 0.0
C766 C 0.28845 0.34054 0.55512 0.0
O767 O 0.27063 0.2842 0.55742 0.0
C768 C 0.24733 0.31901 0.51642 0.0
O769 O 0.26228 0.33173 0.51806 0.0
H770 H 0.25443 0.31699 0.57404 0.0
H771 H 0.29872 0.34338 0.545 0.0
N772 N 0.28891 0.30226 0.52413 0.0
N773 N 0.30044 0.29029 0.50013 0.0
C774 C 0.28495 0.2913 0.5094 0.0
C775 C 0.30763 0.3086 0.52418 0.0
C776 C 0.31483 0.3011 0.50938 0.0
C777 C 0.2866 0.28402 0.5662 0.0
O778 O 0.30093 0.29642 0.56252 0.0
H779 H 0.27106 0.28353 0.50606 0.0
H780 H 0.3156 0.31749 0.53453 0.0
O781 O 0.24715 0.30498 0.52632 0.0
H782 H 0.29477 0.36451 0.57349 0.0
H783 H 0.3295 0.30322 0.50585 0.0
Cu784 Cu 0.77809 0.57008 0.79016 0.0
N785 N 0.79754 0.58862 0.78469 0.0
N786 N 0.81005 0.61427 0.77147 0.0
C787 C 0.79432 0.60207 0.7733 0.0
C788 C 0.82388 0.60815 0.78209 0.0
C789 C 0.81608 0.59233 0.79035 0.0
O790 O 0.7557 0.58268 0.79254 0.0
C791 C 0.79289 0.54225 0.77432 0.0
O792 O 0.80666 0.54978 0.78585 0.0
H793 H 0.78057 0.60278 0.7664 0.0
H794 H 0.82336 0.58423 0.79985 0.0
N795 N 0.78149 0.55893 0.81238 0.0
N796 N 0.77424 0.5373 0.83269 0.0
C797 C 0.77001 0.54361 0.81613 0.0
C798 C 0.79356 0.56269 0.82714 0.0
C799 C 0.78903 0.54931 0.83981 0.0
C800 C 0.75877 0.59497 0.80511 0.0
O801 O 0.77541 0.59713 0.81426 0.0
H802 H 0.75848 0.5374 0.80683 0.0
H803 H 0.80473 0.57428 0.82862 0.0
O804 O 0.77769 0.54968 0.77264 0.0
H805 H 0.83845 0.61482 0.78406 0.0
H806 H 0.79614 0.54843 0.85309 0.0
Cu807 Cu 0.25733 0.53556 0.79287 0.0
N808 N 0.27786 0.52181 0.79449 0.0
N809 N 0.29518 0.50096 0.80632 0.0
C810 C 0.28227 0.51226 0.80932 0.0
C811 C 0.29906 0.50357 0.7888 0.0
C812 C 0.28835 0.51632 0.78156 0.0
O813 O 0.23481 0.51731 0.78949 0.0
C814 C 0.27348 0.56258 0.81561 0.0
O815 O 0.28522 0.56303 0.80256 0.0
H816 H 0.27523 0.51288 0.8218 0.0
H817 H 0.28764 0.52056 0.76761 0.0
N818 N 0.25657 0.55281 0.77397 0.0
N819 N 0.24754 0.57691 0.75896 0.0
C820 C 0.24578 0.56645 0.77391 0.0
C821 C 0.26559 0.55475 0.7585 0.0
C822 C 0.26 0.56948 0.74922 0.0
C823 C 0.23237 0.5098 0.77379 0.0
O824 O 0.244 0.5159 0.76141 0.0
H825 H 0.23662 0.56852 0.78463 0.0
H826 H 0.27552 0.5461 0.75421 0.0
O827 O 0.25909 0.55014 0.81503 0.0
H828 H 0.30865 0.49653 0.78157 0.0
H829 H 0.265 0.57449 0.73642 0.0
Cu830 Cu 0.27207 0.52423 0.26923 0.0
N831 N 0.25167 0.5062 0.27322 0.0
N832 N 0.23393 0.48481 0.28827 0.0
C833 C 0.24947 0.49759 0.28904 0.0
C834 C 0.22572 0.48564 0.27139 0.0
C835 C 0.23675 0.4989 0.26209 0.0
O836 O 0.29431 0.51189 0.26436 0.0
C837 C 0.2567 0.54876 0.28965 0.0
O838 O 0.24258 0.54155 0.27831 0.0
H839 H 0.2593 0.50048 0.30085 0.0
H840 H 0.23422 0.50272 0.24816 0.0
N841 N 0.26757 0.5373 0.24832 0.0
N842 N 0.26962 0.56182 0.23069 0.0
C843 C 0.27228 0.55551 0.24757 0.0
C844 C 0.26185 0.53171 0.23123 0.0
C845 C 0.26309 0.54688 0.22028 0.0
C846 C 0.29675 0.49583 0.26948 0.0
O847 O 0.2864 0.48802 0.2821 0.0
H848 H 0.27855 0.56385 0.2591 0.0
H849 H 0.25778 0.51762 0.22692 0.0
O850 O 0.27269 0.54273 0.28897 0.0
H851 H 0.21308 0.47685 0.266 0.0
H852 H 0.25983 0.54684 0.20578 0.0
Cu853 Cu 0.75272 0.5053 0.29194 0.0
N854 N 0.77127 0.48941 0.29603 0.0
N855 N 0.78458 0.46629 0.30897 0.0
C856 C 0.76976 0.476 0.30843 0.0
C857 C 0.79591 0.47404 0.29631 0.0
C858 C 0.7877 0.48818 0.28837 0.0
O859 O 0.72919 0.48919 0.28533 0.0
C860 C 0.7694 0.53006 0.31604 0.0
O861 O 0.78286 0.52727 0.30545 0.0
H862 H 0.75796 0.47359 0.31702 0.0
H863 H 0.79338 0.49685 0.27776 0.0
N864 N 0.7561 0.52339 0.27381 0.0
N865 N 0.75132 0.54897 0.25882 0.0
C866 C 0.74496 0.5367 0.27135 0.0
C867 C 0.76997 0.52735 0.26233 0.0
C868 C 0.76707 0.54303 0.25312 0.0
C869 C 0.72769 0.4836 0.26889 0.0
O870 O 0.74099 0.49 0.25815 0.0
H871 H 0.73281 0.53772 0.27917 0.0
H872 H 0.78161 0.51968 0.26095 0.0
O873 O 0.75327 0.52005 0.31376 0.0
H874 H 0.80907 0.46966 0.29275 0.0
H875 H 0.77599 0.54958 0.24305 0.0
Cu876 Cu 0.53138 0.29674 0.78021 0.0
N877 N 0.51505 0.29646 0.79952 0.0
N878 N 0.4919 0.30557 0.81535 0.0
C879 C 0.50462 0.30996 0.80264 0.0
C880 C 0.49451 0.28856 0.82046 0.0
C881 C 0.50871 0.28299 0.8107 0.0
O882 O 0.51356 0.29609 0.75915 0.0
C883 C 0.55903 0.32068 0.79838 0.0
O884 O 0.555 0.30808 0.81052 0.0
H885 H 0.50574 0.32245 0.79501 0.0
H886 H 0.51356 0.26982 0.81132 0.0
N887 N 0.54576 0.27712 0.77848 0.0
N888 N 0.56865 0.26174 0.76889 0.0
C889 C 0.56233 0.27815 0.77027 0.0
C890 C 0.54135 0.25938 0.78252 0.0
C891 C 0.55538 0.24994 0.77674 0.0
C892 C 0.51375 0.28662 0.74475 0.0
O893 O 0.52902 0.27943 0.74145 0.0
H894 H 0.56908 0.29071 0.76467 0.0
H895 H 0.52852 0.25355 0.78864 0.0
O896 O 0.54976 0.31893 0.78299 0.0
H897 H 0.48659 0.28056 0.83039 0.0
H898 H 0.55548 0.23541 0.77801 0.0
Cu899 Cu 0.51068 0.79727 0.80408 0.0
N900 N 0.53074 0.80094 0.82227 0.0
N901 N 0.55536 0.79488 0.84063 0.0
C902 C 0.54321 0.78913 0.82624 0.0
C903 C 0.55039 0.81097 0.84582 0.0
C904 C 0.53535 0.81474 0.83442 0.0
O905 O 0.52259 0.79553 0.7815 0.0
C906 C 0.48799 0.7744 0.82525 0.0
O907 O 0.4929 0.78854 0.83627 0.0
H908 H 0.54293 0.77624 0.81913 0.0
H909 H 0.52814 0.82659 0.83516 0.0
N910 N 0.49503 0.8159 0.80218 0.0
N911 N 0.47341 0.83254 0.79002 0.0
C912 C 0.48491 0.81989 0.78698 0.0
C913 C 0.48965 0.82634 0.81533 0.0
C914 C 0.47642 0.83661 0.8079 0.0
C915 C 0.53112 0.81043 0.77568 0.0
O916 O 0.53044 0.82566 0.78471 0.0
H917 H 0.48552 0.81309 0.77408 0.0
H918 H 0.49452 0.82613 0.82947 0.0
O919 O 0.49448 0.77492 0.8096 0.0
H920 H 0.55708 0.81936 0.85718 0.0
H921 H 0.4695 0.84624 0.81518 0.0
Cu922 Cu 0.49577 0.76826 0.27493 0.0
N923 N 0.47918 0.76868 0.2939 0.0
N924 N 0.45727 0.77906 0.31041 0.0
C925 C 0.46992 0.78289 0.29753 0.0
C926 C 0.45869 0.76163 0.31502 0.0
C927 C 0.47213 0.75528 0.30483 0.0
O928 O 0.47937 0.76483 0.2528 0.0
C929 C 0.52125 0.7957 0.29125 0.0
O930 O 0.51672 0.78558 0.30528 0.0
H931 H 0.47195 0.7956 0.29027 0.0
H932 H 0.47605 0.7417 0.30503 0.0
N933 N 0.51223 0.75026 0.27557 0.0
N934 N 0.53585 0.73563 0.2666 0.0
C935 C 0.52329 0.74725 0.26198 0.0
C936 C 0.51801 0.74022 0.2894 0.0
C937 C 0.53247 0.73117 0.28391 0.0
C938 C 0.47014 0.7489 0.24989 0.0
O939 O 0.47329 0.73585 0.26117 0.0
H940 H 0.52268 0.75422 0.24919 0.0
H941 H 0.51261 0.74002 0.30275 0.0
O942 O 0.5128 0.79117 0.27583 0.0
H943 H 0.45052 0.7539 0.32496 0.0
H944 H 0.54005 0.7222 0.29216 0.0
Cu945 Cu 0.5183 0.26289 0.28417 0.0
N946 N 0.50123 0.24333 0.29147 0.0
N947 N 0.48095 0.22785 0.30954 0.0
C948 C 0.49097 0.24417 0.30598 0.0
C949 C 0.48498 0.21627 0.29664 0.0
C950 C 0.49767 0.22585 0.28555 0.0
O951 O 0.50509 0.28454 0.28402 0.0
C952 C 0.5529 0.25225 0.29747 0.0
O953 O 0.5493 0.24146 0.28312 0.0
H954 H 0.49113 0.25654 0.31391 0.0
H955 H 0.50429 0.22034 0.27441 0.0
N956 N 0.52522 0.26 0.26058 0.0
N957 N 0.54171 0.2666 0.23625 0.0
C958 C 0.54014 0.27035 0.2539 0.0
C959 C 0.51685 0.24929 0.24667 0.0
C960 C 0.52703 0.25337 0.23157 0.0
C961 C 0.49022 0.28346 0.27313 0.0
O962 O 0.48502 0.26826 0.26367 0.0
H963 H 0.54926 0.28092 0.26179 0.0
H964 H 0.50402 0.23959 0.2473 0.0
O965 O 0.54136 0.26352 0.3006 0.0
H966 H 0.47973 0.20179 0.2957 0.0
H967 H 0.52379 0.24721 0.2182 0.0
H968 H 0.17135 0.2202 0.1601 0.0
H969 H 0.22512 0.20821 0.18477 0.0
H970 H 0.24213 0.226 0.16129 0.0
H971 H 0.18377 0.21802 0.11346 0.0
H972 H 0.17153 0.23668 0.10623 0.0
H973 H 0.16334 0.22279 0.12485 0.0
H974 H 0.16614 0.2517 0.14532 0.0
H975 H 0.17437 0.26568 0.12677 0.0
H976 H 0.18849 0.2667 0.14799 0.0
H977 H 0.25365 0.24561 0.13557 0.0
H978 H 0.25891 0.26502 0.10907 0.0
H979 H 0.19795 0.26475 0.10018 0.0
C980 C 0.18671 0.22135 0.16063 0.0
C981 C 0.19679 0.21253 0.17439 0.0
C982 C 0.21691 0.21439 0.17432 0.0
C983 C 0.22677 0.22465 0.16107 0.0
C984 C 0.21643 0.23311 0.1478 0.0
C985 C 0.19685 0.23157 0.14741 0.0
C986 C 0.18926 0.24208 0.13155 0.0
C987 C 0.1762 0.22912 0.11823 0.0
C988 C 0.17896 0.25745 0.13831 0.0
C989 C 0.20766 0.24978 0.12313 0.0
C990 C 0.22312 0.24441 0.13279 0.0
C991 C 0.24162 0.24977 0.12783 0.0
C992 C 0.24445 0.26077 0.11257 0.0
C993 C 0.2289 0.2664 0.10216 0.0
C994 C 0.21022 0.26083 0.10773 0.0
H995 H 0.80617 0.2478 0.12669 0.0
H996 H 0.86299 0.24029 0.11345 0.0
H997 H 0.85783 0.25449 0.08362 0.0
H998 H 0.78352 0.23688 0.08385 0.0
H999 H 0.76758 0.25367 0.08468 0.0
H1000 H 0.77656 0.24439 0.10535 0.0
H1001 H 0.7896 0.27715 0.11728 0.0
H1002 H 0.78074 0.28649 0.09652 0.0
H1003 H 0.80554 0.29195 0.10401 0.0
H1004 H 0.84511 0.26674 0.05418 0.0
H1005 H 0.82584 0.2757 0.02759 0.0
H1006 H 0.77797 0.27628 0.06101 0.0
C1007 C 0.81754 0.24926 0.11753 0.0
C1008 C 0.83482 0.24266 0.12209 0.0
C1009 C 0.84952 0.24501 0.10995 0.0
C1010 C 0.84676 0.25316 0.09309 0.0
C1011 C 0.82938 0.25922 0.08883 0.0
C1012 C 0.81507 0.25748 0.10077 0.0
C1013 C 0.79739 0.26425 0.09264 0.0
C1014 C 0.78026 0.24888 0.09156 0.0
C1015 C 0.79307 0.28095 0.10324 0.0
C1016 C 0.80374 0.26948 0.07403 0.0
C1017 C 0.82228 0.26669 0.07211 0.0
C1018 C 0.83067 0.26927 0.05561 0.0
C1019 C 0.81963 0.27437 0.04058 0.0
C1020 C 0.80043 0.27677 0.04221 0.0
C1021 C 0.79267 0.27479 0.05931 0.0
H1022 H 0.82113 0.86183 0.17484 0.0
H1023 H 0.87569 0.84423 0.16706 0.0
H1024 H 0.8626 0.82908 0.13824 0.0
H1025 H 0.79188 0.82171 0.15657 0.0
H1026 H 0.77426 0.83389 0.14559 0.0
H1027 H 0.78793 0.84342 0.16565 0.0
H1028 H 0.79898 0.87302 0.14841 0.0
H1029 H 0.78524 0.8636 0.12834 0.0
H1030 H 0.81032 0.87152 0.12746 0.0
H1031 H 0.8429 0.8148 0.10999 0.0
H1032 H 0.8189 0.80445 0.08476 0.0
H1033 H 0.77797 0.83239 0.11062 0.0
C1034 C 0.83045 0.855 0.16702 0.0
C1035 C 0.84947 0.85416 0.17354 0.0
C1036 C 0.86097 0.84483 0.16275 0.0
C1037 C 0.85369 0.83623 0.14621 0.0
C1038 C 0.83483 0.83709 0.14036 0.0
C1039 C 0.82343 0.84638 0.15039 0.0
C1040 C 0.80367 0.84535 0.14106 0.0
C1041 C 0.78854 0.83551 0.15293 0.0
C1042 C 0.7993 0.86451 0.13602 0.0
C1043 C 0.80573 0.83403 0.12428 0.0
C1044 C 0.82376 0.82928 0.12409 0.0
C1045 C 0.82876 0.81855 0.10999 0.0
C1046 C 0.81503 0.81268 0.09571 0.0
C1047 C 0.79653 0.81763 0.09553 0.0
C1048 C 0.79198 0.82842 0.11014 0.0
H1049 H 0.17272 0.84054 0.13973 0.0
H1050 H 0.22495 0.8398 0.17303 0.0
H1051 H 0.23795 0.82334 0.14841 0.0
H1052 H 0.17163 0.79566 0.11693 0.0
H1053 H 0.16242 0.80382 0.09572 0.0
H1054 H 0.15663 0.81333 0.11681 0.0
H1055 H 0.16969 0.84578 0.1062 0.0
H1056 H 0.17562 0.83638 0.08519 0.0
H1057 H 0.19374 0.85035 0.09933 0.0
H1058 H 0.24597 0.80908 0.11878 0.0
H1059 H 0.24848 0.79935 0.08694 0.0
H1060 H 0.19095 0.8101 0.07368 0.0
C1061 C 0.18673 0.83655 0.14198 0.0
C1062 C 0.19782 0.84123 0.15828 0.0
C1063 C 0.21622 0.8361 0.16065 0.0
C1064 C 0.22367 0.82678 0.14677 0.0
C1065 C 0.21248 0.82266 0.13066 0.0
C1066 C 0.19435 0.82734 0.12829 0.0
C1067 C 0.18568 0.82264 0.10934 0.0
C1068 C 0.16805 0.80799 0.10973 0.0
C1069 C 0.18092 0.83981 0.09944 0.0
C1070 C 0.20195 0.81513 0.1012 0.0
C1071 C 0.2172 0.81493 0.11371 0.0
C1072 C 0.23403 0.80907 0.10894 0.0
C1073 C 0.23535 0.80354 0.09086 0.0
C1074 C 0.22002 0.8042 0.07779 0.0
C1075 C 0.20305 0.80975 0.08324 0.0
H1076 H 0.218 0.8497 0.90084 0.0
H1077 H 0.16959 0.81112 0.88023 0.0
H1078 H 0.17395 0.79139 0.90669 0.0
H1079 H 0.24671 0.81662 0.91899 0.0
H1080 H 0.25584 0.83062 0.93855 0.0
H1081 H 0.24915 0.84116 0.91769 0.0
H1082 H 0.22632 0.85864 0.93461 0.0
H1083 H 0.23293 0.84814 0.9555 0.0
H1084 H 0.20825 0.84602 0.94744 0.0
H1085 H 0.18364 0.77618 0.93591 0.0
H1086 H 0.19731 0.76723 0.96562 0.0
H1087 H 0.23897 0.81631 0.96672 0.0
C1088 C 0.20847 0.837 0.90188 0.0
C1089 C 0.19368 0.8317 0.88848 0.0
C1090 C 0.18118 0.81521 0.89032 0.0
C1091 C 0.18354 0.80397 0.90527 0.0
C1092 C 0.19838 0.80954 0.91825 0.0
C1093 C 0.2106 0.8257 0.91669 0.0
C1094 C 0.22507 0.8289 0.93268 0.0
C1095 C 0.24539 0.82934 0.92661 0.0
C1096 C 0.22301 0.84646 0.94318 0.0
C1097 C 0.21908 0.81207 0.94354 0.0
C1098 C 0.20372 0.80099 0.93502 0.0
C1099 C 0.19569 0.78474 0.94268 0.0
C1100 C 0.20354 0.77977 0.95954 0.0
C1101 C 0.21917 0.79107 0.9685 0.0
C1102 C 0.227 0.80736 0.96027 0.0
H1103 H 0.2057 0.25887 0.91943 0.0
H1104 H 0.20903 0.20113 0.92593 0.0
H1105 H 0.22768 0.208 0.95509 0.0
H1106 H 0.25249 0.27659 0.94118 0.0
H1107 H 0.24381 0.29539 0.95193 0.0
H1108 H 0.23274 0.28619 0.93057 0.0
H1109 H 0.19995 0.28063 0.94452 0.0
H1110 H 0.21088 0.28997 0.96583 0.0
H1111 H 0.19738 0.26737 0.9648 0.0
H1112 H 0.24466 0.22141 0.9853 0.0
H1113 H 0.25569 0.23969 0.01341 0.0
H1114 H 0.23948 0.28783 0.98725 0.0
C1115 C 0.21031 0.24758 0.92688 0.0
C1116 C 0.20581 0.22941 0.92009 0.0
C1117 C 0.21249 0.21523 0.93044 0.0
C1118 C 0.22308 0.21899 0.94716 0.0
C1119 C 0.22698 0.23703 0.95352 0.0
C1120 C 0.22073 0.25107 0.94364 0.0
C1121 C 0.22552 0.26911 0.95391 0.0
C1122 C 0.23947 0.28261 0.94379 0.0
C1123 C 0.20735 0.27724 0.95748 0.0
C1124 C 0.235 0.263 0.97129 0.0
C1125 C 0.23611 0.24453 0.97081 0.0
C1126 C 0.24393 0.23592 0.98572 0.0
C1127 C 0.25029 0.24638 1.0016 0.0
C1128 C 0.24845 0.26513 1.0025 0.0
C1129 C 0.24106 0.27348 0.98697 0.0
H1130 H 0.83335 0.21235 0.91163 0.0
H1131 H 0.83648 0.15908 0.93481 0.0
H1132 H 0.81513 0.16571 0.95823 0.0
H1133 H 0.83193 0.23696 0.95478 0.0
H1134 H 0.81542 0.25127 0.94537 0.0
H1135 H 0.83192 0.24276 0.93115 0.0
H1136 H 0.80379 0.22868 0.90905 0.0
H1137 H 0.78721 0.23698 0.92328 0.0
H1138 H 0.7847 0.21301 0.91753 0.0
H1139 H 0.79209 0.17735 0.97802 0.0
H1140 H 0.77008 0.19384 0.99381 0.0
H1141 H 0.7817 0.2395 0.9577 0.0
C1142 C 0.82986 0.20225 0.92187 0.0
C1143 C 0.83656 0.18519 0.92141 0.0
C1144 C 0.83137 0.17218 0.93484 0.0
C1145 C 0.81931 0.17584 0.94822 0.0
C1146 C 0.81259 0.1926 0.94804 0.0
C1147 C 0.81778 0.20567 0.93532 0.0
C1148 C 0.80803 0.22233 0.93781 0.0
C1149 C 0.8227 0.23934 0.94256 0.0
C1150 C 0.79517 0.22542 0.92091 0.0
C1151 C 0.79641 0.21649 0.95377 0.0
C1152 C 0.79927 0.19931 0.95947 0.0
C1153 C 0.78979 0.19085 0.97373 0.0
C1154 C 0.77716 0.20027 0.98251 0.0
C1155 C 0.7741 0.21798 0.97702 0.0
C1156 C 0.78388 0.2261 0.96239 0.0
H1157 H 0.81148 0.84466 0.91704 0.0
H1158 H 0.81933 0.90328 0.9267 0.0
H1159 H 0.80653 0.89849 0.95664 0.0
H1160 H 0.76749 0.83457 0.93852 0.0
H1161 H 0.77274 0.81364 0.94866 0.0
H1162 H 0.78326 0.82128 0.92803 0.0
H1163 H 0.81685 0.82016 0.94325 0.0
H1164 H 0.80641 0.81243 0.9639 0.0
H1165 H 0.82402 0.83257 0.96422 0.0
H1166 H 0.7915 0.88801 0.98482 0.0
H1167 H 0.77642 0.87218 0.01048 0.0
H1168 H 0.77824 0.81992 0.98415 0.0
C1169 C 0.81071 0.85644 0.92557 0.0
C1170 C 0.81624 0.8744 0.91928 0.0
C1171 C 0.81489 0.88942 0.93094 0.0
C1172 C 0.80771 0.88685 0.94807 0.0
C1173 C 0.80195 0.86911 0.95368 0.0
C1174 C 0.80348 0.8541 0.94293 0.0
C1175 C 0.7959 0.83655 0.95241 0.0
C1176 C 0.77884 0.82588 0.94124 0.0
C1177 C 0.81174 0.82473 0.95617 0.0
C1178 C 0.78977 0.84413 0.96999 0.0
C1179 C 0.79342 0.86297 0.97033 0.0
C1180 C 0.78864 0.87325 0.98475 0.0
C1181 C 0.77992 0.8641 0.99926 0.0
C1182 C 0.77602 0.84478 0.99946 0.0
C1183 C 0.78116 0.83469 0.98456 0.0
H1184 H 0.1286 0.18155 0.22373 0.0
H1185 H 0.16269 0.23496 0.22144 0.0
H1186 H 0.13836 0.24862 0.23694 0.0
H1187 H 0.08301 0.1971 0.21539 0.0
H1188 H 0.07088 0.18122 0.23063 0.0
H1189 H 0.09112 0.17544 0.21963 0.0
H1190 H 0.10769 0.16985 0.25088 0.0
H1191 H 0.08751 0.17565 0.26197 0.0
H1192 H 0.11097 0.18769 0.26801 0.0
H1193 H 0.11064 0.25661 0.2531 0.0
H1194 H 0.08091 0.25872 0.26752 0.0
H1195 H 0.0636 0.2004 0.2587 0.0
C1196 C 0.13097 0.19611 0.22657 0.0
C1197 C 0.14761 0.20717 0.22123 0.0
C1198 C 0.15002 0.2262 0.2251 0.0
C1199 C 0.1363 0.23409 0.23404 0.0
C1200 C 0.12009 0.22285 0.23904 0.0
C1201 C 0.11727 0.20429 0.23538 0.0
C1202 C 0.09831 0.19544 0.2419 0.0
C1203 C 0.08505 0.18679 0.22593 0.0
C1204 C 0.10131 0.18132 0.25656 0.0
C1205 C 0.09095 0.21193 0.24979 0.0
C1206 C 0.10384 0.22756 0.24806 0.0
C1207 C 0.10038 0.24447 0.25439 0.0
C1208 C 0.08327 0.24553 0.26251 0.0
C1209 C 0.0695 0.22981 0.2642 0.0
C1210 C 0.07364 0.21274 0.2578 0.0
H1211 H 0.83009 0.15728 0.16576 0.0
H1212 H 0.84845 0.19074 0.21384 0.0
H1213 H 0.83079 0.16751 0.23263 0.0
H1214 H 0.78261 0.13928 0.17937 0.0
H1215 H 0.78309 0.11685 0.16991 0.0
H1216 H 0.7962 0.13659 0.16003 0.0
H1217 H 0.82712 0.12196 0.16415 0.0
H1218 H 0.81412 0.1022 0.17403 0.0
H1219 H 0.83469 0.11469 0.18633 0.0
H1220 H 0.81193 0.14062 0.24623 0.0
H1221 H 0.79397 0.11116 0.25414 0.0
H1222 H 0.78867 0.09429 0.19745 0.0
C1223 C 0.83014 0.15978 0.18022 0.0
C1224 C 0.84057 0.17578 0.1884 0.0
C1225 C 0.84062 0.1785 0.20737 0.0
C1226 C 0.83057 0.16545 0.21812 0.0
C1227 C 0.82059 0.14973 0.20968 0.0
C1228 C 0.82033 0.14678 0.19119 0.0
C1229 C 0.80923 0.12828 0.18571 0.0
C1230 C 0.79174 0.13038 0.173 0.0
C1231 C 0.82206 0.11606 0.17705 0.0
C1232 C 0.80345 0.12125 0.20404 0.0
C1233 C 0.81003 0.13393 0.21763 0.0
C1234 C 0.80675 0.13055 0.23571 0.0
C1235 C 0.79664 0.11366 0.24009 0.0
C1236 C 0.79003 0.10023 0.22647 0.0
C1237 C 0.79336 0.10426 0.20817 0.0
H1238 H 0.91491 0.87202 0.23371 0.0
H1239 H 0.86993 0.82568 0.23041 0.0
H1240 H 0.89122 0.80694 0.24691 0.0
H1241 H 0.95253 0.84648 0.22591 0.0
H1242 H 0.96996 0.85977 0.24129 0.0
H1243 H 0.95082 0.87012 0.23054 0.0
H1244 H 0.94097 0.87953 0.26195 0.0
H1245 H 0.96013 0.86924 0.2728 0.0
H1246 H 0.93604 0.86236 0.27885 0.0
H1247 H 0.91759 0.79275 0.26268 0.0
H1248 H 0.94732 0.78384 0.27623 0.0
H1249 H 0.97627 0.83878 0.26867 0.0
C1250 C 0.90949 0.85803 0.23679 0.0
C1251 C 0.89066 0.85034 0.23088 0.0
C1252 C 0.88424 0.83185 0.23481 0.0
C1253 C 0.89624 0.82111 0.24421 0.0
C1254 C 0.91478 0.82894 0.24959 0.0
C1255 C 0.92144 0.84697 0.24604 0.0
C1256 C 0.94234 0.85165 0.25255 0.0
C1257 C 0.95463 0.85734 0.23662 0.0
C1258 C 0.94502 0.86658 0.26743 0.0
C1259 C 0.94638 0.83342 0.26016 0.0
C1260 C 0.93021 0.82059 0.25839 0.0
C1261 C 0.93035 0.8027 0.26411 0.0
C1262 C 0.94743 0.79771 0.27171 0.0
C1263 C 0.96439 0.81047 0.27351 0.0
C1264 C 0.96366 0.82866 0.26773 0.0
H1265 H 0.19409 0.88395 0.24053 0.0
H1266 H 0.13371 0.8846 0.22808 0.0
H1267 H 0.13547 0.91268 0.2466 0.0
H1268 H 0.19632 0.90095 0.28643 0.0
H1269 H 0.21916 0.91481 0.285 0.0
H1270 H 0.21307 0.89433 0.27129 0.0
H1271 H 0.21985 0.91303 0.24233 0.0
H1272 H 0.22602 0.93354 0.25597 0.0
H1273 H 0.2078 0.93248 0.23773 0.0
H1274 H 0.14379 0.94092 0.26631 0.0
H1275 H 0.15849 0.96796 0.28464 0.0
H1276 H 0.21348 0.94935 0.28351 0.0
C1277 C 0.18124 0.89003 0.24157 0.0
C1278 C 0.16372 0.88188 0.23294 0.0
C1279 C 0.14724 0.89028 0.23485 0.0
C1280 C 0.1481 0.90633 0.24526 0.0
C1281 C 0.16556 0.91392 0.25363 0.0
C1282 C 0.18186 0.90612 0.25182 0.0
C1283 C 0.19894 0.91728 0.26185 0.0
C1284 C 0.20736 0.90618 0.27704 0.0
C1285 C 0.21404 0.92451 0.24868 0.0
C1286 C 0.1897 0.93262 0.26948 0.0
C1287 C 0.17042 0.93037 0.2647 0.0
C1288 C 0.15888 0.94282 0.27017 0.0
C1289 C 0.16733 0.95808 0.28067 0.0
C1290 C 0.18714 0.96082 0.28549 0.0
C1291 C 0.19836 0.94778 0.27988 0.0
H1292 H 0.12443 0.87654 0.85822 0.0
H1293 H 0.1529 0.89114 0.80925 0.0
H1294 H 0.12229 0.88298 0.79108 0.0
H1295 H 0.09808 0.83765 0.84151 0.0
H1296 H 0.07715 0.83956 0.85346 0.0
H1297 H 0.10004 0.8503 0.86265 0.0
H1298 H 0.08765 0.88155 0.86361 0.0
H1299 H 0.0646 0.87085 0.85447 0.0
H1300 H 0.07698 0.89014 0.84327 0.0
H1301 H 0.08972 0.86814 0.77809 0.0
H1302 H 0.05892 0.8482 0.77171 0.0
H1303 H 0.05242 0.84324 0.82944 0.0
C1304 C 0.12411 0.87849 0.84371 0.0
C1305 C 0.14097 0.88448 0.83511 0.0
C1306 C 0.14007 0.88679 0.81611 0.0
C1307 C 0.12275 0.88216 0.8057 0.0
C1308 C 0.10649 0.87551 0.81457 0.0
C1309 C 0.10705 0.87391 0.83322 0.0
C1310 C 0.08837 0.86447 0.83944 0.0
C1311 C 0.09108 0.84697 0.84986 0.0
C1312 C 0.07884 0.87754 0.85087 0.0
C1313 C 0.07745 0.86015 0.82136 0.0
C1314 C 0.08791 0.86692 0.80714 0.0
C1315 C 0.08127 0.86313 0.78914 0.0
C1316 C 0.06374 0.8518 0.78563 0.0
C1317 C 0.05325 0.84421 0.80008 0.0
C1318 C 0.06001 0.84895 0.81809 0.0
H1319 H 0.22854 0.17513 0.86343 0.0
H1320 H 0.17925 0.16881 0.8252 0.0
H1321 H 0.18838 0.14 0.8135 0.0
H1322 H 0.26042 0.1597 0.83408 0.0
H1323 H 0.27283 0.14803 0.85135 0.0
H1324 H 0.26162 0.16731 0.8574 0.0
H1325 H 0.24217 0.14764 0.88049 0.0
H1326 H 0.25344 0.12831 0.87459 0.0
H1327 H 0.22785 0.12647 0.87302 0.0
H1328 H 0.20481 0.11251 0.80447 0.0
H1329 H 0.22564 0.08873 0.8005 0.0
H1330 H 0.26362 0.11337 0.84505 0.0
C1331 C 0.21953 0.16752 0.85278 0.0
C1332 C 0.20322 0.17425 0.84516 0.0
C1333 C 0.19181 0.16391 0.8312 0.0
C1334 C 0.19694 0.14756 0.82445 0.0
C1335 C 0.21345 0.14155 0.83189 0.0
C1336 C 0.22445 0.15118 0.8459 0.0
C1337 C 0.24176 0.14217 0.8513 0.0
C1338 C 0.26024 0.15507 0.84835 0.0
C1339 C 0.24127 0.13577 0.87102 0.0
C1340 C 0.23894 0.12609 0.83808 0.0
C1341 C 0.22258 0.12588 0.82693 0.0
C1342 C 0.21755 0.11251 0.81329 0.0
C1343 C 0.22949 0.09905 0.81108 0.0
C1344 C 0.24625 0.09898 0.82249 0.0
C1345 C 0.25085 0.11278 0.83614 0.0
H1346 H 0.92868 0.20094 0.8559 0.0
H1347 H 0.91099 0.23297 0.89934 0.0
H1348 H 0.93136 0.26039 0.889 0.0
H1349 H 0.97743 0.22231 0.85774 0.0
H1350 H 0.97927 0.22173 0.83355 0.0
H1351 H 0.96296 0.20469 0.844 0.0
H1352 H 0.93519 0.21306 0.82281 0.0
H1353 H 0.95142 0.23015 0.8123 0.0
H1354 H 0.93066 0.2364 0.82205 0.0
H1355 H 0.95372 0.28374 0.87474 0.0
H1356 H 0.97715 0.30248 0.85733 0.0
H1357 H 0.98099 0.25573 0.82254 0.0
C1358 C 0.92918 0.21376 0.86319 0.0
C1359 C 0.91854 0.21494 0.87855 0.0
C1360 C 0.91926 0.23189 0.88769 0.0
C1361 C 0.93071 0.24747 0.88189 0.0
C1362 C 0.94122 0.24584 0.86685 0.0
C1363 C 0.94059 0.22948 0.85758 0.0
C1364 C 0.95354 0.23156 0.84196 0.0
C1365 C 0.96923 0.21935 0.84447 0.0
C1366 C 0.94201 0.22756 0.8237 0.0
C1367 C 0.96167 0.25163 0.84403 0.0
C1368 C 0.95425 0.25952 0.85846 0.0
C1369 C 0.95961 0.27776 0.86338 0.0
C1370 C 0.973 0.28827 0.85337 0.0
C1371 C 0.98098 0.2806 0.83854 0.0
C1372 C 0.97512 0.262 0.83375 0.0
H1373 H 0.8118 0.90567 0.8383 0.0
H1374 H 0.82196 0.93029 0.89215 0.0
H1375 H 0.81053 0.95816 0.88081 0.0
H1376 H 0.82557 0.94842 0.81338 0.0
H1377 H 0.80728 0.94284 0.79538 0.0
H1378 H 0.81728 0.92487 0.80723 0.0
H1379 H 0.78356 0.91029 0.81499 0.0
H1380 H 0.77347 0.92823 0.80323 0.0
H1381 H 0.7688 0.92383 0.82658 0.0
H1382 H 0.79619 0.9824 0.86493 0.0
H1383 H 0.78054 1.00272 0.84475 0.0
H1384 H 0.77969 0.96421 0.80003 0.0
C1385 C 0.81186 0.91706 0.84758 0.0
C1386 C 0.81765 0.91565 0.86622 0.0
C1387 C 0.81736 0.93085 0.87793 0.0
C1388 C 0.81097 0.94682 0.8716 0.0
C1389 C 0.80494 0.94765 0.85338 0.0
C1390 C 0.80541 0.93331 0.84142 0.0
C1391 C 0.79747 0.93791 0.82259 0.0
C1392 C 0.81282 0.93855 0.80883 0.0
C1393 C 0.77978 0.92425 0.81649 0.0
C1394 C 0.79227 0.95689 0.82601 0.0
C1395 C 0.79679 0.96211 0.84393 0.0
C1396 C 0.79274 0.97856 0.85082 0.0
C1397 C 0.78374 0.99 0.83922 0.0
C1398 C 0.77888 0.98519 0.82075 0.0
C1399 C 0.78342 0.96842 0.81401 0.0
H1400 H 0.17418 0.12233 0.24099 0.0
H1401 H 0.22132 0.13538 0.20691 0.0
H1402 H 0.23746 0.11117 0.22164 0.0
H1403 H 0.20243 0.11204 0.28178 0.0
H1404 H 0.18461 0.09378 0.28812 0.0
H1405 H 0.17765 0.11273 0.27549 0.0
H1406 H 0.16012 0.09021 0.25086 0.0
H1407 H 0.16719 0.07122 0.26331 0.0
H1408 H 0.173 0.07434 0.24007 0.0
H1409 H 0.24757 0.08364 0.23957 0.0
H1410 H 0.25117 0.05747 0.25979 0.0
H1411 H 0.19717 0.06305 0.28165 0.0
C1412 C 0.18803 0.12026 0.2368 0.0
C1413 C 0.19649 0.13073 0.22275 0.0
C1414 C 0.2146 0.12753 0.21765 0.0
C1415 C 0.22382 0.11376 0.22591 0.0
C1416 C 0.21483 0.1033 0.2394 0.0
C1417 C 0.1974 0.10658 0.24491 0.0
C1418 C 0.1905 0.09335 0.25943 0.0
C1419 C 0.1887 0.10359 0.27726 0.0
C1420 C 0.17159 0.08159 0.25302 0.0
C1421 C 0.20662 0.08197 0.26115 0.0
C1422 C 0.22058 0.08783 0.24954 0.0
C1423 C 0.2367 0.07905 0.24875 0.0
C1424 C 0.23862 0.06412 0.26024 0.0
C1425 C 0.22451 0.05807 0.27238 0.0
C1426 C 0.20832 0.06721 0.27262 0.0
H1427 H 0.18673 0.93851 0.84885 0.0
H1428 H 0.23013 0.90326 0.85833 0.0
H1429 H 0.25492 0.93011 0.85897 0.0
H1430 H 0.2136 0.96793 0.81782 0.0
H1431 H 0.20485 0.98818 0.82537 0.0
H1432 H 0.19039 0.96621 0.82662 0.0
H1433 H 0.18767 0.97172 0.86094 0.0
H1434 H 0.20232 0.99361 0.85984 0.0
H1435 H 0.20902 0.97687 0.87566 0.0
H1436 H 0.27515 0.96093 0.85939 0.0
H1437 H 0.28946 0.9931 0.85557 0.0
H1438 H 0.23336 0.00784 0.84319 0.0
C1439 C 0.20142 0.9363 0.85084 0.0
C1440 C 0.20629 0.91863 0.85389 0.0
C1441 C 0.22582 0.9166 0.85654 0.0
C1442 C 0.24009 0.9318 0.85681 0.0
C1443 C 0.23473 0.94897 0.85409 0.0
C1444 C 0.2159 0.95128 0.8508 0.0
C1445 C 0.21405 0.97113 0.84737 0.0
C1446 C 0.2052 0.9735 0.82815 0.0
C1447 C 0.20259 0.97877 0.86182 0.0
C1448 C 0.23478 0.97959 0.84928 0.0
C1449 C 0.24646 0.96662 0.85343 0.0
C1450 C 0.26616 0.97121 0.85608 0.0
C1451 C 0.27415 0.98949 0.85404 0.0
C1452 C 0.26248 1.00286 0.84914 0.0
C1453 C 0.24255 0.99782 0.8469 0.0
H1454 H 0.1496 0.24139 0.84948 0.0
H1455 H 0.14352 0.24283 0.90754 0.0
H1456 H 0.11758 0.26115 0.90277 0.0
H1457 H 0.13979 0.28666 0.84019 0.0
H1458 H 0.12599 0.28073 0.81913 0.0
H1459 H 0.14424 0.26749 0.82676 0.0
H1460 H 0.11961 0.23806 0.8248 0.0
H1461 H 0.10129 0.25121 0.81709 0.0
H1462 H 0.09824 0.23713 0.83677 0.0
H1463 H 0.09343 0.28075 0.89238 0.0
H1464 H 0.07079 0.29853 0.87657 0.0
H1465 H 0.0899 0.28342 0.82483 0.0
C1466 C 0.1427 0.24538 0.86119 0.0
C1467 C 0.14915 0.24086 0.87899 0.0
C1468 C 0.13952 0.24648 0.89382 0.0
C1469 C 0.12455 0.25681 0.89126 0.0
C1470 C 0.11889 0.26135 0.8737 0.0
C1471 C 0.12743 0.25564 0.85885 0.0
C1472 C 0.11827 0.2624 0.84143 0.0
C1473 C 0.13295 0.27507 0.83128 0.0
C1474 C 0.10879 0.24624 0.8293 0.0
C1475 C 0.10346 0.27292 0.84888 0.0
C1476 C 0.10422 0.27216 0.86757 0.0
C1477 C 0.0926 0.28132 0.87773 0.0
C1478 C 0.07984 0.29149 0.86863 0.0
C1479 C 0.07849 0.29241 0.84947 0.0
C1480 C 0.09044 0.28283 0.83947 0.0
H1481 H 0.84864 0.15136 0.84617 0.0
H1482 H 0.84359 0.12512 0.89828 0.0
H1483 H 0.83222 0.09554 0.88273 0.0
H1484 H 0.80729 0.12715 0.82456 0.0
H1485 H 0.81707 0.12548 0.80283 0.0
H1486 H 0.82621 0.14426 0.81802 0.0
H1487 H 0.86025 0.13594 0.81669 0.0
H1488 H 0.85121 0.11712 0.80145 0.0
H1489 H 0.86459 0.11315 0.82221 0.0
H1490 H 0.81923 0.06945 0.86164 0.0
H1491 H 0.80572 0.04853 0.83636 0.0
H1492 H 0.81986 0.09171 0.79811 0.0
C1493 C 0.84554 0.13932 0.8543 0.0
C1494 C 0.847 0.14051 0.87342 0.0
C1495 C 0.84239 0.12453 0.8836 0.0
C1496 C 0.83606 0.10766 0.8749 0.0
C1497 C 0.83455 0.10701 0.85603 0.0
C1498 C 0.83924 0.12239 0.84585 0.0
C1499 C 0.83542 0.11819 0.82578 0.0
C1500 C 0.82062 0.12944 0.81731 0.0
C1501 C 0.85397 0.12128 0.81596 0.0
C1502 C 0.82752 0.09812 0.82629 0.0
C1503 C 0.82723 0.09191 0.84386 0.0
C1504 C 0.81957 0.07409 0.84781 0.0
C1505 C 0.81185 0.06236 0.83341 0.0
C1506 C 0.81186 0.0685 0.81532 0.0
C1507 C 0.82004 0.08655 0.81176 0.0
H1508 H 0.87431 0.82121 0.85723 0.0
H1509 H 0.8866 0.87902 0.84638 0.0
H1510 H 0.91695 0.87407 0.83378 0.0
H1511 H 0.9231 0.814 0.86998 0.0
H1512 H 0.92027 0.79177 0.85916 0.0
H1513 H 0.90006 0.80009 0.868 0.0
H1514 H 0.88183 0.79502 0.8365 0.0
H1515 H 0.902 0.78677 0.82755 0.0
H1516 H 0.89233 0.80558 0.81694 0.0
H1517 H 0.9457 0.86238 0.8213 0.0
H1518 H 0.97035 0.84536 0.81062 0.0
H1519 H 0.9392 0.79495 0.8293 0.0
C1520 C 0.88356 0.83288 0.8525 0.0
C1521 C 0.87827 0.85063 0.85323 0.0
C1522 C 0.89054 0.86541 0.84637 0.0
C1523 C 0.90777 0.86269 0.83911 0.0
C1524 C 0.91256 0.84504 0.83862 0.0
C1525 C 0.90081 0.83038 0.84519 0.0
C1526 C 0.90899 0.81271 0.84265 0.0
C1527 C 0.91336 0.80414 0.86104 0.0
C1528 C 0.89548 0.79923 0.83017 0.0
C1529 C 0.92716 0.81965 0.8336 0.0
C1530 C 0.92895 0.83833 0.83136 0.0
C1531 C 0.9444 0.84776 0.82303 0.0
C1532 C 0.95833 0.83791 0.81688 0.0
C1533 C 0.95692 0.81871 0.81902 0.0
C1534 C 0.941 0.80959 0.82758 0.0
H1535 H 0.81457 0.9247 0.21604 0.0
H1536 H 0.85947 0.92605 0.25862 0.0
H1537 H 0.85228 0.95599 0.26951 0.0
H1538 H 0.82123 0.97402 0.20711 0.0
H1539 H 0.79604 0.97441 0.20309 0.0
H1540 H 0.80594 0.954 0.19808 0.0
H1541 H 0.78238 0.93555 0.21876 0.0
H1542 H 0.77255 0.95591 0.22394 0.0
H1543 H 0.78178 0.94281 0.24201 0.0
H1544 H 0.83769 0.98525 0.27725 0.0
H1545 H 0.81882 0.01089 0.27957 0.0
H1546 H 0.78412 0.98986 0.23153 0.0
C1547 C 0.82315 0.93148 0.22742 0.0
C1548 C 0.83764 0.92303 0.23646 0.0
C1549 C 0.84839 0.9323 0.25143 0.0
C1550 C 0.84433 0.94929 0.25775 0.0
C1551 C 0.82953 0.95699 0.24888 0.0
C1552 C 0.81928 0.94841 0.23387 0.0
C1553 C 0.80369 0.9591 0.22702 0.0
C1554 C 0.80692 0.96578 0.20768 0.0
C1555 C 0.78394 0.94766 0.228 0.0
C1556 C 0.80655 0.97492 0.24056 0.0
C1557 C 0.82148 0.97358 0.25313 0.0
C1558 C 0.82612 0.98646 0.26731 0.0
C1559 C 0.8153 1.001 0.26857 0.0
C1560 C 0.80002 1.00263 0.2557 0.0
C1561 C 0.79579 0.9893 0.24156 0.0
H1562 H 0.10747 0.84118 0.20959 0.0
H1563 H 0.14312 0.7985 0.21521 0.0
H1564 H 0.11487 0.77616 0.22108 0.0
H1565 H 0.08066 0.82908 0.24504 0.0
H1566 H 0.05852 0.83446 0.23476 0.0
H1567 H 0.08067 0.84597 0.22759 0.0
H1568 H 0.07058 0.83552 0.1944 0.0
H1569 H 0.04831 0.8239 0.20151 0.0
H1570 H 0.06356 0.81157 0.18916 0.0
H1571 H 0.08408 0.76015 0.23193 0.0
H1572 H 0.05361 0.75185 0.24614 0.0
H1573 H 0.03787 0.80477 0.23225 0.0
C1574 C 0.10923 0.82702 0.21161 0.0
C1575 C 0.12742 0.82152 0.21194 0.0
C1576 C 0.12924 0.80293 0.21469 0.0
C1577 C 0.11328 0.79017 0.21804 0.0
C1578 C 0.09558 0.79618 0.21823 0.0
C1579 C 0.09346 0.81415 0.21482 0.0
C1580 C 0.07341 0.81764 0.21757 0.0
C1581 C 0.07332 0.83266 0.23211 0.0
C1582 C 0.06337 0.82243 0.19958 0.0
C1583 C 0.06482 0.79911 0.22403 0.0
C1584 C 0.07771 0.7868 0.22407 0.0
C1585 C 0.07369 0.7695 0.2315 0.0
C1586 C 0.05634 0.7649 0.23955 0.0
C1587 C 0.04323 0.77756 0.24014 0.0
C1588 C 0.04733 0.79459 0.23165 0.0
H1589 H 0.89291 0.22242 0.20707 0.0
H1590 H 0.91365 0.21511 0.15406 0.0
H1591 H 0.94615 0.22858 0.16577 0.0
H1592 H 0.92226 0.26578 0.21793 0.0
H1593 H 0.92573 0.26058 0.24158 0.0
H1594 H 0.90424 0.25081 0.22876 0.0
H1595 H 0.91054 0.21829 0.23774 0.0
H1596 H 0.93195 0.22797 0.25067 0.0
H1597 H 0.93295 0.21112 0.23317 0.0
H1598 H 0.97682 0.24124 0.18424 0.0
H1599 H 1.0026 0.25234 0.20753 0.0
H1600 H 0.96066 0.25228 0.24762 0.0
C1601 C 0.90432 0.22359 0.19795 0.0
C1602 C 0.90091 0.21761 0.17974 0.0
C1603 C 0.91607 0.21965 0.16809 0.0
C1604 C 0.93451 0.22727 0.17461 0.0
C1605 C 0.9374 0.23299 0.19272 0.0
C1606 C 0.92265 0.23134 0.20416 0.0
C1607 C 0.92937 0.23831 0.22305 0.0
C1608 C 0.91983 0.25486 0.22812 0.0
C1609 C 0.92601 0.22301 0.23697 0.0
C1610 C 0.9503 0.24384 0.22061 0.0
C1611 C 0.95475 0.24072 0.20306 0.0
C1612 C 0.97346 0.24393 0.19797 0.0
C1613 C 0.988 0.25024 0.21127 0.0
C1614 C 0.98366 0.25332 0.22936 0.0
C1615 C 0.9645 0.25033 0.23388 0.0
H1616 H 0.21248 0.73091 0.66257 0.0
H1617 H 0.15526 0.74218 0.64814 0.0
H1618 H 0.16603 0.7557 0.61954 0.0
H1619 H 0.23769 0.77106 0.64377 0.0
H1620 H 0.25612 0.75945 0.63558 0.0
H1621 H 0.24398 0.75109 0.65514 0.0
H1622 H 0.23474 0.71929 0.63954 0.0
H1623 H 0.24695 0.72753 0.61999 0.0
H1624 H 0.22227 0.71754 0.61745 0.0
H1625 H 0.1837 0.76874 0.59196 0.0
H1626 H 0.206 0.77793 0.56802 0.0
H1627 H 0.25073 0.75648 0.60009 0.0
C1628 C 0.20207 0.73599 0.65338 0.0
C1629 C 0.18295 0.73551 0.65796 0.0
C1630 C 0.17006 0.74266 0.64538 0.0
C1631 C 0.17603 0.7503 0.62894 0.0
C1632 C 0.19498 0.75066 0.62498 0.0
C1633 C 0.20774 0.74353 0.63683 0.0
C1634 C 0.22723 0.74522 0.6293 0.0
C1635 C 0.24213 0.75743 0.64169 0.0
C1636 C 0.23314 0.72627 0.6264 0.0
C1637 C 0.22346 0.75434 0.61137 0.0
C1638 C 0.20483 0.75756 0.60911 0.0
C1639 C 0.1983 0.76617 0.59361 0.0
C1640 C 0.21106 0.7714 0.58008 0.0
C1641 C 0.23011 0.76785 0.582 0.0
C1642 C 0.23623 0.75928 0.59799 0.0
H1643 H 0.8031 0.74033 0.62173 0.0
H1644 H 0.81479 0.79399 0.64734 0.0
H1645 H 0.80439 0.80787 0.61875 0.0
H1646 H 0.81807 0.75461 0.57644 0.0
H1647 H 0.7994 0.73883 0.5649 0.0
H1648 H 0.80929 0.7334 0.58691 0.0
H1649 H 0.77557 0.72897 0.59898 0.0
H1650 H 0.7656 0.73437 0.57704 0.0
H1651 H 0.76132 0.74721 0.59679 0.0
H1652 H 0.78987 0.81548 0.58816 0.0
H1653 H 0.77266 0.81613 0.55805 0.0
H1654 H 0.77165 0.75758 0.55224 0.0
C1655 C 0.80387 0.75504 0.62114 0.0
C1656 C 0.8101 0.76615 0.63658 0.0
C1657 C 0.81038 0.78529 0.63554 0.0
C1658 C 0.80451 0.79328 0.61937 0.0
C1659 C 0.79844 0.78194 0.60436 0.0
C1660 C 0.79819 0.76323 0.60508 0.0
C1661 C 0.79008 0.75398 0.58738 0.0
C1662 C 0.80511 0.74466 0.57838 0.0
C1663 C 0.77208 0.74034 0.59023 0.0
C1664 C 0.78539 0.77033 0.57673 0.0
C1665 C 0.79037 0.78636 0.5867 0.0
C1666 C 0.78619 0.80305 0.58011 0.0
C1667 C 0.77641 0.8033 0.563 0.0
C1668 C 0.77098 0.78697 0.55268 0.0
C1669 C 0.7759 0.77038 0.55959 0.0
H1670 H 0.82961 0.39185 0.66963 0.0
H1671 H 0.82979 0.34273 0.70133 0.0
H1672 H 0.81165 0.3246 0.67618 0.0
H1673 H 0.7817 0.37971 0.64816 0.0
H1674 H 0.78796 0.38939 0.62669 0.0
H1675 H 0.80055 0.39873 0.64737 0.0
H1676 H 0.83252 0.39373 0.6347 0.0
H1677 H 0.82003 0.3844 0.61399 0.0
H1678 H 0.83554 0.37128 0.62683 0.0
H1679 H 0.79408 0.31153 0.64739 0.0
H1680 H 0.77927 0.30425 0.6169 0.0
H1681 H 0.78954 0.36183 0.60354 0.0
C1682 C 0.82567 0.37731 0.67135 0.0
C1683 C 0.83129 0.36875 0.68752 0.0
C1684 C 0.82598 0.34962 0.68905 0.0
C1685 C 0.81552 0.33919 0.67487 0.0
C1686 C 0.81035 0.34801 0.65912 0.0
C1687 C 0.81523 0.36663 0.65724 0.0
C1688 C 0.80829 0.37258 0.63865 0.0
C1689 C 0.79376 0.38589 0.64032 0.0
C1690 C 0.8251 0.38099 0.62791 0.0
C1691 C 0.79889 0.35438 0.63034 0.0
C1692 C 0.80017 0.34043 0.64245 0.0
C1693 C 0.79291 0.32238 0.63783 0.0
C1694 C 0.78435 0.3184 0.62033 0.0
C1695 C 0.78303 0.33237 0.60741 0.0
C1696 C 0.79029 0.35067 0.61278 0.0
H1697 H 0.21512 0.33011 0.66835 0.0
H1698 H 0.22521 0.38891 0.6759 0.0
H1699 H 0.24389 0.39177 0.6486 0.0
H1700 H 0.26158 0.32548 0.65304 0.0
H1701 H 0.25235 0.30751 0.6369 0.0
H1702 H 0.24017 0.31026 0.65713 0.0
H1703 H 0.2091 0.31268 0.63754 0.0
H1704 H 0.22119 0.30995 0.61728 0.0
H1705 H 0.20928 0.32959 0.6201 0.0
H1706 H 0.26084 0.38797 0.61988 0.0
H1707 H 0.27433 0.37791 0.59216 0.0
H1708 H 0.25372 0.32153 0.60444 0.0
C1709 C 0.22134 0.34356 0.66428 0.0
C1710 C 0.21883 0.35932 0.67415 0.0
C1711 C 0.22709 0.37672 0.66843 0.0
C1712 C 0.23769 0.37845 0.65301 0.0
C1713 C 0.23993 0.36262 0.64354 0.0
C1714 C 0.23202 0.34551 0.649 0.0
C1715 C 0.23631 0.33066 0.6364 0.0
C1716 C 0.24832 0.31772 0.64647 0.0
C1717 C 0.21787 0.32011 0.62729 0.0
C1718 C 0.2477 0.34207 0.62288 0.0
C1719 C 0.24971 0.36045 0.62721 0.0
C1720 C 0.25943 0.37358 0.61643 0.0
C1721 C 0.26714 0.36773 0.60074 0.0
C1722 C 0.26505 0.34892 0.59597 0.0
C1723 C 0.25535 0.33602 0.60742 0.0
H1724 H 0.2087 0.35963 0.42476 0.0
H1725 H 0.16752 0.31055 0.41767 0.0
H1726 H 0.17736 0.30055 0.44832 0.0
H1727 H 0.24507 0.33926 0.44645 0.0
H1728 H 0.25351 0.35816 0.46178 0.0
H1729 H 0.24176 0.36215 0.44022 0.0
H1730 H 0.21728 0.37819 0.45642 0.0
H1731 H 0.22899 0.37423 0.47807 0.0
H1732 H 0.20394 0.36631 0.47374 0.0
H1733 H 0.19413 0.29467 0.47868 0.0
H1734 H 0.21614 0.2936 0.5059 0.0
H1735 H 0.24565 0.34694 0.4929 0.0
C1736 C 0.20159 0.34693 0.42984 0.0
C1737 C 0.18748 0.33579 0.41895 0.0
C1738 C 0.17844 0.31921 0.42588 0.0
C1739 C 0.1839 0.31347 0.44326 0.0
C1740 C 0.19822 0.32459 0.45356 0.0
C1741 C 0.20683 0.34105 0.44713 0.0
C1742 C 0.22258 0.35001 0.46034 0.0
C1743 C 0.24186 0.35253 0.45168 0.0
C1744 C 0.21791 0.36827 0.46757 0.0
C1745 C 0.22187 0.33581 0.47498 0.0
C1746 C 0.20764 0.32131 0.47098 0.0
C1747 C 0.20513 0.30608 0.48208 0.0
C1748 C 0.21768 0.30559 0.49751 0.0
C1749 C 0.23256 0.3202 0.5016 0.0
C1750 C 0.23434 0.33559 0.4903 0.0
H1751 H 0.23212 0.70524 0.4032 0.0
H1752 H 0.17237 0.70025 0.41389 0.0
H1753 H 0.18119 0.71177 0.4451 0.0
H1754 H 0.2491 0.69169 0.44817 0.0
H1755 H 0.27067 0.70785 0.4488 0.0
H1756 H 0.2598 0.69856 0.4274 0.0
H1757 H 0.2585 0.73128 0.41568 0.0
H1758 H 0.26936 0.74066 0.43703 0.0
H1759 H 0.24689 0.74679 0.42844 0.0
H1760 H 0.19619 0.72475 0.47482 0.0
H1761 H 0.21648 0.73854 0.5011 0.0
H1762 H 0.26675 0.73531 0.47173 0.0
C1763 C 0.22091 0.70635 0.41218 0.0
C1764 C 0.2015 0.70188 0.40599 0.0
C1765 C 0.1873 0.70379 0.41817 0.0
C1766 C 0.19217 0.71022 0.43599 0.0
C1767 C 0.21136 0.71471 0.44159 0.0
C1768 C 0.22554 0.71285 0.4301 0.0
C1769 C 0.24506 0.7192 0.43947 0.0
C1770 C 0.25685 0.70338 0.44105 0.0
C1771 C 0.25557 0.73545 0.42957 0.0
C1772 C 0.2396 0.725 0.45795 0.0
C1773 C 0.22007 0.72222 0.45885 0.0
C1774 C 0.21151 0.72694 0.47428 0.0
C1775 C 0.22316 0.73486 0.48914 0.0
C1776 C 0.24323 0.73805 0.48858 0.0
C1777 C 0.2515 0.73284 0.47275 0.0
H1778 H 0.80705 0.66754 0.41785 0.0
H1779 H 0.82579 0.71463 0.38548 0.0
H1780 H 0.81028 0.73405 0.40544 0.0
H1781 H 0.76131 0.67848 0.42369 0.0
H1782 H 0.76018 0.67021 0.44652 0.0
H1783 H 0.77447 0.66045 0.43093 0.0
H1784 H 0.80411 0.66798 0.45343 0.0
H1785 H 0.78988 0.67768 0.46916 0.0
H1786 H 0.81108 0.6911 0.46172 0.0
H1787 H 0.79086 0.74787 0.42777 0.0
H1788 H 0.76925 0.75504 0.45074 0.0
H1789 H 0.76242 0.69861 0.46771 0.0
C1790 C 0.80797 0.68195 0.41495 0.0
C1791 C 0.81767 0.68954 0.40007 0.0
C1792 C 0.81871 0.70853 0.39694 0.0
C1793 C 0.80984 0.71965 0.40814 0.0
C1794 C 0.80002 0.71159 0.42241 0.0
C1795 C 0.7991 0.69318 0.42587 0.0
C1796 C 0.78686 0.68764 0.44146 0.0
C1797 C 0.76969 0.67335 0.43527 0.0
C1798 C 0.79869 0.6807 0.45739 0.0
C1799 C 0.78074 0.70577 0.44606 0.0
C1800 C 0.78862 0.71945 0.43505 0.0
C1801 C 0.78475 0.7373 0.43657 0.0
C1802 C 0.77251 0.74125 0.4497 0.0
C1803 C 0.76418 0.72739 0.46106 0.0
C1804 C 0.76843 0.70945 0.45915 0.0
H1805 H 0.8148 0.31062 0.41807 0.0
H1806 H 0.83333 0.36596 0.43788 0.0
H1807 H 0.8261 0.35633 0.46901 0.0
H1808 H 0.77495 0.30194 0.44671 0.0
H1809 H 0.77745 0.27828 0.44999 0.0
H1810 H 0.78482 0.28944 0.42953 0.0
H1811 H 0.81844 0.28032 0.43564 0.0
H1812 H 0.8112 0.2693 0.45622 0.0
H1813 H 0.83166 0.28681 0.45688 0.0
H1814 H 0.81734 0.34035 0.49829 0.0
H1815 H 0.80424 0.32047 0.52252 0.0
H1816 H 0.78964 0.27572 0.48353 0.0
C1817 C 0.81734 0.32066 0.429 0.0
C1818 C 0.82475 0.33905 0.4256 0.0
C1819 C 0.82766 0.35185 0.44019 0.0
C1820 C 0.82368 0.34646 0.45793 0.0
C1821 C 0.8165 0.32822 0.46089 0.0
C1822 C 0.81303 0.31557 0.44677 0.0
C1823 C 0.80427 0.29706 0.45346 0.0
C1824 C 0.78419 0.29135 0.44439 0.0
C1825 C 0.81717 0.28251 0.45036 0.0
C1826 C 0.80352 0.30121 0.47355 0.0
C1827 C 0.81083 0.31921 0.47759 0.0
C1828 C 0.81156 0.32624 0.49524 0.0
C1829 C 0.80419 0.31476 0.50899 0.0
C1830 C 0.79596 0.29641 0.50511 0.0
C1831 C 0.79594 0.28959 0.4871 0.0
H1832 H 0.12544 0.71375 0.72053 0.0
H1833 H 0.15655 0.76581 0.70583 0.0
H1834 H 0.13379 0.78189 0.72096 0.0
H1835 H 0.07864 0.72667 0.71409 0.0
H1836 H 0.06931 0.71417 0.73316 0.0
H1837 H 0.08826 0.70652 0.72152 0.0
H1838 H 0.10892 0.70763 0.75174 0.0
H1839 H 0.09001 0.71526 0.76348 0.0
H1840 H 0.1134 0.72852 0.76503 0.0
H1841 H 0.1075 0.79263 0.73735 0.0
H1842 H 0.07962 0.79724 0.75388 0.0
H1843 H 0.06472 0.73848 0.75816 0.0
C1844 C 0.12756 0.72853 0.72063 0.0
C1845 C 0.14283 0.73844 0.71175 0.0
C1846 C 0.14488 0.75781 0.71216 0.0
C1847 C 0.13205 0.76712 0.72085 0.0
C1848 C 0.11709 0.75699 0.72923 0.0
C1849 C 0.11475 0.73812 0.72924 0.0
C1850 C 0.0972 0.73062 0.73907 0.0
C1851 C 0.08248 0.7188 0.72619 0.0
C1852 C 0.10272 0.71987 0.75583 0.0
C1853 C 0.09005 0.7482 0.74451 0.0
C1854 C 0.1018 0.76323 0.73869 0.0
C1855 C 0.09817 0.78094 0.74193 0.0
C1856 C 0.08213 0.78342 0.75128 0.0
C1857 C 0.06967 0.7683 0.75737 0.0
C1858 C 0.07389 0.75042 0.75392 0.0
H1859 H 0.85822 0.69144 0.70757 0.0
H1860 H 0.80376 0.71153 0.70244 0.0
H1861 H 0.79036 0.68712 0.72245 0.0
H1862 H 0.83966 0.64353 0.70827 0.0
H1863 H 0.85772 0.63816 0.72477 0.0
H1864 H 0.86294 0.657 0.70974 0.0
H1865 H 0.8731 0.67874 0.73737 0.0
H1866 H 0.86783 0.65998 0.7525 0.0
H1867 H 0.85673 0.68022 0.75474 0.0
H1868 H 0.783 0.66103 0.74341 0.0
H1869 H 0.78178 0.63434 0.76321 0.0
H1870 H 0.84106 0.63111 0.75513 0.0
C1871 C 0.84349 0.69077 0.7107 0.0
C1872 C 0.83204 0.70342 0.70335 0.0
C1873 C 0.81276 0.70187 0.70764 0.0
C1874 C 0.80505 0.68813 0.71912 0.0
C1875 C 0.81679 0.67603 0.72624 0.0
C1876 C 0.83557 0.67716 0.72217 0.0
C1877 C 0.84509 0.66241 0.73163 0.0
C1878 C 0.85174 0.64951 0.71777 0.0
C1879 C 0.86167 0.67085 0.74485 0.0
C1880 C 0.82871 0.65282 0.74169 0.0
C1881 C 0.81254 0.66094 0.73838 0.0
C1882 C 0.79555 0.65451 0.74603 0.0
C1883 C 0.79498 0.63925 0.75719 0.0
C1884 C 0.81128 0.63049 0.76063 0.0
C1885 C 0.82842 0.63756 0.75288 0.0
H1886 H 0.90383 0.3971 0.74191 0.0
H1887 H 0.86545 0.34583 0.73757 0.0
H1888 H 0.88991 0.33026 0.7534 0.0
H1889 H 0.94651 0.3782 0.73453 0.0
H1890 H 0.9615 0.39311 0.75062 0.0
H1891 H 0.94082 0.40062 0.73942 0.0
H1892 H 0.92829 0.40717 0.77053 0.0
H1893 H 0.94896 0.39973 0.78183 0.0
H1894 H 0.92549 0.38928 0.78697 0.0
H1895 H 0.91864 0.31978 0.76905 0.0
H1896 H 0.94952 0.31524 0.7839 0.0
H1897 H 0.97016 0.37295 0.77844 0.0
C1898 C 0.90051 0.38264 0.74447 0.0
C1899 C 0.88263 0.37272 0.73828 0.0
C1900 C 0.87904 0.35375 0.74184 0.0
C1901 C 0.89285 0.34476 0.75094 0.0
C1902 C 0.91036 0.35482 0.75657 0.0
C1903 C 0.91427 0.37335 0.75356 0.0
C1904 C 0.93447 0.38076 0.76081 0.0
C1905 C 0.94653 0.38863 0.74542 0.0
C1906 C 0.93428 0.39508 0.77593 0.0
C1907 C 0.94125 0.3635 0.76828 0.0
C1908 C 0.92705 0.34872 0.76566 0.0
C1909 C 0.92987 0.33127 0.77115 0.0
C1910 C 0.9476 0.32879 0.7795 0.0
C1911 C 0.96254 0.34364 0.78238 0.0
C1912 C 0.95913 0.36127 0.77667 0.0
H1913 H 0.18836 0.42473 0.71164 0.0
H1914 H 0.17046 0.3967 0.76034 0.0
H1915 H 0.1802 0.42525 0.77815 0.0
H1916 H 0.23008 0.44982 0.73193 0.0
H1917 H 0.2285 0.46994 0.71864 0.0
H1918 H 0.21811 0.44787 0.7096 0.0
H1919 H 0.18553 0.45946 0.70434 0.0
H1920 H 0.19583 0.48158 0.71351 0.0
H1921 H 0.17519 0.46922 0.72306 0.0
H1922 H 0.19435 0.45658 0.79108 0.0
H1923 H 0.21289 0.48713 0.79791 0.0
H1924 H 0.22181 0.49393 0.74072 0.0
C1925 C 0.18641 0.42455 0.72604 0.0
C1926 C 0.17855 0.40843 0.73453 0.0
C1927 C 0.17614 0.40892 0.75342 0.0
C1928 C 0.18168 0.42508 0.76368 0.0
C1929 C 0.18956 0.44068 0.75487 0.0
C1930 C 0.19192 0.4405 0.73646 0.0
C1931 C 0.20188 0.45866 0.73039 0.0
C1932 C 0.22076 0.45643 0.72217 0.0
C1933 C 0.18882 0.46777 0.71704 0.0
C1934 C 0.20521 0.46895 0.74832 0.0
C1935 C 0.1978 0.45851 0.76229 0.0
C1936 C 0.20004 0.46495 0.78021 0.0
C1937 C 0.21052 0.48234 0.78396 0.0
C1938 C 0.21876 0.49293 0.76986 0.0
C1939 C 0.21563 0.48622 0.75182 0.0
H1940 H 0.11149 0.34732 0.36727 0.0
H1941 H 0.14352 0.36107 0.31999 0.0
H1942 H 0.11627 0.34658 0.30023 0.0
H1943 H 0.09225 0.30317 0.35176 0.0
H1944 H 0.06969 0.3033 0.36148 0.0
H1945 H 0.0907 0.31697 0.37166 0.0
H1946 H 0.07396 0.34581 0.36871 0.0
H1947 H 0.05292 0.3322 0.35837 0.0
H1948 H 0.06423 0.35179 0.34682 0.0
H1949 H 0.08631 0.32875 0.28565 0.0
H1950 H 0.05728 0.30671 0.27781 0.0
H1951 H 0.04591 0.30324 0.33472 0.0
C1952 C 0.11281 0.34736 0.35277 0.0
C1953 C 0.12962 0.35561 0.34524 0.0
C1954 C 0.13065 0.35533 0.32614 0.0
C1955 C 0.11525 0.34706 0.31476 0.0
C1956 C 0.09894 0.33901 0.32266 0.0
C1957 C 0.0977 0.33897 0.34124 0.0
C1958 C 0.07932 0.32797 0.34644 0.0
C1959 C 0.08323 0.3119 0.35854 0.0
C1960 C 0.06687 0.34018 0.35563 0.0
C1961 C 0.07066 0.32143 0.32791 0.0
C1962 C 0.08198 0.32824 0.31432 0.0
C1963 C 0.07723 0.32346 0.29615 0.0
C1964 C 0.0607 0.311 0.29182 0.0
C1965 C 0.0494 0.30332 0.30567 0.0
C1966 C 0.05427 0.30895 0.32385 0.0
H1967 H 0.19203 0.61707 0.32962 0.0
H1968 H 0.24183 0.64599 0.35944 0.0
H1969 H 0.2618 0.62494 0.3463 0.0
H1970 H 0.20395 0.57269 0.33549 0.0
H1971 H 0.19453 0.56445 0.31326 0.0
H1972 H 0.18473 0.5825 0.32412 0.0
H1973 H 0.19146 0.60325 0.2965 0.0
H1974 H 0.20106 0.58518 0.28547 0.0
H1975 H 0.21519 0.60734 0.28878 0.0
H1976 H 0.27609 0.59883 0.3301 0.0
H1977 H 0.28273 0.57212 0.31215 0.0
H1978 H 0.22296 0.56098 0.29398 0.0
C1979 C 0.2072 0.61922 0.33312 0.0
C1980 C 0.21543 0.63341 0.34533 0.0
C1981 C 0.23529 0.63543 0.34987 0.0
C1982 C 0.24671 0.62345 0.34253 0.0
C1983 C 0.23807 0.60941 0.33069 0.0
C1984 C 0.21873 0.60741 0.32598 0.0
C1985 C 0.21259 0.59107 0.31342 0.0
C1986 C 0.1981 0.57684 0.3221 0.0
C1987 C 0.20461 0.59707 0.29495 0.0
C1988 C 0.2314 0.58405 0.31182 0.0
C1989 C 0.24604 0.5947 0.3218 0.0
C1990 C 0.26465 0.59049 0.32223 0.0
C1991 C 0.26832 0.57522 0.31206 0.0
C1992 C 0.25345 0.56431 0.30159 0.0
C1993 C 0.23479 0.56891 0.30174 0.0
H1994 H 0.90722 0.70615 0.37102 0.0
H1995 H 0.89382 0.65971 0.33408 0.0
H1996 H 0.91912 0.67329 0.31461 0.0
H1997 H 0.91714 0.74032 0.33703 0.0
H1998 H 0.93626 0.75344 0.35074 0.0
H1999 H 0.917 0.74005 0.3614 0.0
H2000 H 0.94115 0.72323 0.37995 0.0
H2001 H 0.96048 0.73654 0.36932 0.0
H2002 H 0.95776 0.71195 0.36824 0.0
H2003 H 0.94652 0.69213 0.29949 0.0
H2004 H 0.97316 0.71465 0.28995 0.0
H2005 H 0.96818 0.74834 0.3372 0.0
C2006 C 0.90968 0.69885 0.35885 0.0
C2007 C 0.89887 0.68178 0.35412 0.0
C2008 C 0.90221 0.67271 0.33797 0.0
C2009 C 0.91649 0.68033 0.32687 0.0
C2010 C 0.92716 0.69709 0.33207 0.0
C2011 C 0.92386 0.70624 0.34767 0.0
C2012 C 0.93728 0.72399 0.35032 0.0
C2013 C 0.92626 0.74042 0.34984 0.0
C2014 C 0.94992 0.72391 0.368 0.0
C2015 C 0.94874 0.72338 0.33386 0.0
C2016 C 0.94272 0.70782 0.32343 0.0
C2017 C 0.95132 0.70438 0.30757 0.0
C2018 C 0.96645 0.71722 0.30225 0.0
C2019 C 0.9728 0.73325 0.31282 0.0
C2020 C 0.96374 0.73624 0.3288 0.0
H2021 H 0.84263 0.39352 0.35942 0.0
H2022 H 0.78914 0.36919 0.37994 0.0
H2023 H 0.77288 0.3924 0.36418 0.0
H2024 H 0.83444 0.4405 0.36262 0.0
H2025 H 0.84545 0.4472 0.34195 0.0
H2026 H 0.85308 0.42879 0.355 0.0
H2027 H 0.84629 0.40735 0.3268 0.0
H2028 H 0.83863 0.42569 0.31367 0.0
H2029 H 0.82299 0.40438 0.31511 0.0
H2030 H 0.76207 0.41812 0.34577 0.0
H2031 H 0.75761 0.44425 0.32642 0.0
H2032 H 0.81795 0.45242 0.31753 0.0
C2033 C 0.82747 0.39296 0.36054 0.0
C2034 C 0.81729 0.3794 0.37115 0.0
C2035 C 0.79746 0.37948 0.37228 0.0
C2036 C 0.78802 0.39259 0.36323 0.0
C2037 C 0.79846 0.4057 0.35297 0.0
C2038 C 0.81776 0.40601 0.35156 0.0
C2039 C 0.82561 0.42164 0.33963 0.0
C2040 C 0.84053 0.43534 0.35045 0.0
C2041 C 0.83387 0.41433 0.3228 0.0
C2042 C 0.8077 0.43 0.33449 0.0
C2043 C 0.79222 0.42057 0.34236 0.0
C2044 C 0.77414 0.42563 0.33962 0.0
C2045 C 0.77177 0.44068 0.32862 0.0
C2046 C 0.78737 0.45074 0.32035 0.0
C2047 C 0.8056 0.44514 0.32342 0.0
H2048 H 0.20096 0.64706 0.69408 0.0
H2049 H 0.18622 0.67383 0.74238 0.0
H2050 H 0.20237 0.65245 0.76145 0.0
H2051 H 0.19337 0.60179 0.71045 0.0
H2052 H 0.21297 0.59435 0.69964 0.0
H2053 H 0.20134 0.61239 0.68989 0.0
H2054 H 0.23362 0.63372 0.6908 0.0
H2055 H 0.24537 0.61569 0.70046 0.0
H2056 H 0.24782 0.63756 0.71194 0.0
H2057 H 0.21882 0.62686 0.77522 0.0
H2058 H 0.23492 0.60016 0.78256 0.0
H2059 H 0.23898 0.58989 0.72523 0.0
C2060 C 0.20144 0.64863 0.70868 0.0
C2061 C 0.19257 0.66236 0.71677 0.0
C2062 C 0.19317 0.66365 0.73592 0.0
C2063 C 0.20225 0.65151 0.74683 0.0
C2064 C 0.21071 0.63804 0.73843 0.0
C2065 C 0.21048 0.63662 0.71977 0.0
C2066 C 0.22014 0.62063 0.7141 0.0
C2067 C 0.20611 0.60645 0.70286 0.0
C2068 C 0.23779 0.6273 0.70371 0.0
C2069 C 0.22571 0.61314 0.73246 0.0
C2070 C 0.22013 0.62338 0.74632 0.0
C2071 C 0.22329 0.61882 0.76443 0.0
C2072 C 0.23236 0.6035 0.76848 0.0
C2073 C 0.23829 0.59276 0.75454 0.0
C2074 C 0.2349 0.59783 0.73627 0.0
H2075 H 0.16318 0.4165 0.34267 0.0
H2076 H 0.2129 0.39558 0.36675 0.0
H2077 H 0.23362 0.42024 0.35253 0.0
H2078 H 0.18147 0.42419 0.30035 0.0
H2079 H 0.17072 0.44443 0.29574 0.0
H2080 H 0.15969 0.42728 0.31034 0.0
H2081 H 0.16052 0.45155 0.33593 0.0
H2082 H 0.17146 0.46884 0.32136 0.0
H2083 H 0.18279 0.46522 0.34328 0.0
H2084 H 0.24898 0.44545 0.33357 0.0
H2085 H 0.2578 0.46871 0.31065 0.0
H2086 H 0.19816 0.47125 0.29672 0.0
C2087 C 0.17842 0.41707 0.34509 0.0
C2088 C 0.18632 0.40399 0.35592 0.0
C2089 C 0.20638 0.40557 0.35887 0.0
C2090 C 0.21831 0.41949 0.35072 0.0
C2091 C 0.21 0.43166 0.33959 0.0
C2092 C 0.1905 0.43058 0.33675 0.0
C2093 C 0.18514 0.44418 0.32283 0.0
C2094 C 0.17358 0.43443 0.30634 0.0
C2095 C 0.17434 0.45829 0.33136 0.0
C2096 C 0.20469 0.45282 0.31794 0.0
C2097 C 0.21883 0.44566 0.32803 0.0
C2098 C 0.23803 0.45126 0.32571 0.0
C2099 C 0.2429 0.46449 0.31272 0.0
C2100 C 0.22864 0.47176 0.302 0.0
C2101 C 0.2093 0.46584 0.3047 0.0
H2102 H 0.1425 0.70805 0.37363 0.0
H2103 H 0.16894 0.70268 0.32292 0.0
H2104 H 0.14332 0.71665 0.30687 0.0
H2105 H 0.09362 0.69944 0.35572 0.0
H2106 H 0.08594 0.71621 0.37027 0.0
H2107 H 0.10582 0.70491 0.37763 0.0
H2108 H 0.12691 0.73629 0.38296 0.0
H2109 H 0.10711 0.74769 0.37559 0.0
H2110 H 0.12918 0.75228 0.36468 0.0
H2111 H 0.11481 0.73199 0.29625 0.0
H2112 H 0.08636 0.74748 0.29217 0.0
H2113 H 0.07922 0.74418 0.34992 0.0
C2114 C 0.1431 0.70987 0.35916 0.0
C2115 C 0.15799 0.70408 0.34966 0.0
C2116 C 0.1577 0.70657 0.33062 0.0
C2117 C 0.14322 0.71468 0.32135 0.0
C2118 C 0.129 0.72039 0.33121 0.0
C2119 C 0.12886 0.71811 0.34971 0.0
C2120 C 0.11222 0.72583 0.35722 0.0
C2121 C 0.09859 0.71069 0.36571 0.0
C2122 C 0.11928 0.74145 0.37092 0.0
C2123 C 0.10304 0.73289 0.34007 0.0
C2124 C 0.11288 0.72952 0.32519 0.0
C2125 C 0.10702 0.73465 0.30784 0.0
C2126 C 0.09074 0.7434 0.30563 0.0
C2127 C 0.0804 0.74712 0.32067 0.0
C2128 C 0.08681 0.74177 0.33813 0.0
H2129 H 0.81744 0.63146 0.33687 0.0
H2130 H 0.80205 0.6244 0.3925 0.0
H2131 H 0.78377 0.5942 0.3842 0.0
H2132 H 0.7734 0.60809 0.31488 0.0
H2133 H 0.78545 0.5978 0.29769 0.0
H2134 H 0.79568 0.61957 0.30768 0.0
H2135 H 0.82692 0.60669 0.31679 0.0
H2136 H 0.81685 0.58498 0.3067 0.0
H2137 H 0.82591 0.58629 0.33008 0.0
H2138 H 0.76807 0.56374 0.36968 0.0
H2139 H 0.75899 0.53542 0.35081 0.0
H2140 H 0.78646 0.56268 0.3058 0.0
C2141 C 0.8103 0.6236 0.34737 0.0
C2142 C 0.81115 0.6304 0.36532 0.0
C2143 C 0.80136 0.61966 0.37855 0.0
C2144 C 0.79096 0.60245 0.37399 0.0
C2145 C 0.7905 0.59615 0.35615 0.0
C2146 C 0.80003 0.60641 0.3431 0.0
C2147 C 0.79844 0.59622 0.3252 0.0
C2148 C 0.78759 0.60601 0.3105 0.0
C2149 C 0.8182 0.59337 0.31936 0.0
C2150 C 0.78694 0.57845 0.33029 0.0
C2151 C 0.78211 0.57867 0.34807 0.0
C2152 C 0.77173 0.56345 0.35572 0.0
C2153 C 0.76658 0.54749 0.34496 0.0
C2154 C 0.7722 0.54697 0.32702 0.0
C2155 C 0.78214 0.56273 0.31959 0.0
H2156 H 0.8743 0.28766 0.35956 0.0
H2157 H 0.89316 0.34537 0.35252 0.0
H2158 H 0.92319 0.33813 0.34102 0.0
H2159 H 0.92071 0.27494 0.37371 0.0
H2160 H 0.91622 0.25341 0.36151 0.0
H2161 H 0.89673 0.26322 0.37002 0.0
H2162 H 0.88008 0.26167 0.33773 0.0
H2163 H 0.89953 0.2519 0.32912 0.0
H2164 H 0.89266 0.2724 0.31934 0.0
H2165 H 0.95086 0.32441 0.32944 0.0
H2166 H 0.97376 0.30556 0.31846 0.0
H2167 H 0.93672 0.25651 0.3324 0.0
C2168 C 0.88492 0.29879 0.3559 0.0
C2169 C 0.88161 0.31715 0.35744 0.0
C2170 C 0.89558 0.33127 0.35192 0.0
C2171 C 0.91265 0.32726 0.3453 0.0
C2172 C 0.91551 0.30902 0.34408 0.0
C2173 C 0.90202 0.29501 0.34922 0.0
C2174 C 0.90829 0.27653 0.34595 0.0
C2175 C 0.91063 0.26643 0.36387 0.0
C2176 C 0.89431 0.26495 0.33222 0.0
C2177 C 0.92739 0.28232 0.33808 0.0
C2178 C 0.93128 0.30112 0.33716 0.0
C2179 C 0.94791 0.30968 0.33011 0.0
C2180 C 0.96083 0.2988 0.32377 0.0
C2181 C 0.95716 0.27944 0.32442 0.0
C2182 C 0.94017 0.2712 0.33183 0.0
H2183 H 0.84381 0.45411 0.76111 0.0
H2184 H 0.79836 0.43314 0.72143 0.0
H2185 H 0.7843 0.46176 0.72423 0.0
H2186 H 0.81581 0.47516 0.78998 0.0
H2187 H 0.83359 0.49462 0.79568 0.0
H2188 H 0.84072 0.47322 0.78934 0.0
H2189 H 0.85993 0.48913 0.76383 0.0
H2190 H 0.85297 0.51063 0.7702 0.0
H2191 H 0.84824 0.50215 0.7472 0.0
H2192 H 0.77367 0.49233 0.73385 0.0
H2193 H 0.76907 0.52195 0.74777 0.0
H2194 H 0.82205 0.52244 0.78041 0.0
C2195 C 0.8311 0.45571 0.75276 0.0
C2196 C 0.82213 0.44138 0.7411 0.0
C2197 C 0.80545 0.44395 0.73046 0.0
C2198 C 0.79734 0.46015 0.73201 0.0
C2199 C 0.8062 0.47381 0.74412 0.0
C2200 C 0.82287 0.47179 0.75413 0.0
C2201 C 0.82935 0.48814 0.7666 0.0
C2202 C 0.82989 0.48244 0.78658 0.0
C2203 C 0.84877 0.4981 0.76165 0.0
C2204 C 0.81365 0.49958 0.76227 0.0
C2205 C 0.80035 0.4912 0.7493 0.0
C2206 C 0.78418 0.49908 0.74386 0.0
C2207 C 0.78163 0.51591 0.75185 0.0
C2208 C 0.79522 0.52473 0.76509 0.0
C2209 C 0.81141 0.51631 0.77018 0.0
H2210 H 0.11674 0.37166 0.71983 0.0
H2211 H 0.14782 0.3255 0.72382 0.0
H2212 H 0.11913 0.30619 0.73398 0.0
H2213 H 0.09461 0.3646 0.7589 0.0
H2214 H 0.07245 0.37173 0.75076 0.0
H2215 H 0.09404 0.38047 0.74055 0.0
H2216 H 0.07872 0.36885 0.70904 0.0
H2217 H 0.05703 0.35995 0.71923 0.0
H2218 H 0.06883 0.34512 0.70584 0.0
H2219 H 0.08866 0.29368 0.74878 0.0
H2220 H 0.06035 0.28977 0.76701 0.0
H2221 H 0.04946 0.34405 0.75233 0.0
C2222 C 0.11736 0.35737 0.72245 0.0
C2223 C 0.13443 0.35004 0.72108 0.0
C2224 C 0.13477 0.33131 0.72463 0.0
C2225 C 0.11855 0.32026 0.73039 0.0
C2226 C 0.10203 0.32809 0.73216 0.0
C2227 C 0.10133 0.34621 0.72806 0.0
C2228 C 0.08277 0.35205 0.73283 0.0
C2229 C 0.08618 0.36814 0.74658 0.0
C2230 C 0.07115 0.35677 0.71571 0.0
C2231 C 0.07349 0.33472 0.74119 0.0
C2232 C 0.08455 0.32087 0.7404 0.0
C2233 C 0.07967 0.30427 0.74907 0.0
C2234 C 0.06351 0.3021 0.75932 0.0
C2235 C 0.05268 0.31657 0.76094 0.0
C2236 C 0.05736 0.33268 0.75113 0.0
H2237 H 0.89807 0.72842 0.69901 0.0
H2238 H 0.87826 0.77977 0.68552 0.0
H2239 H 0.90937 0.79649 0.69692 0.0
H2240 H 0.92055 0.74313 0.74049 0.0
H2241 H 0.94001 0.73017 0.73909 0.0
H2242 H 0.91748 0.72229 0.72716 0.0
H2243 H 0.93412 0.72167 0.69704 0.0
H2244 H 0.95675 0.72963 0.70891 0.0
H2245 H 0.94855 0.74203 0.68979 0.0
H2246 H 0.9414 0.80772 0.71301 0.0
H2247 H 0.97076 0.81234 0.73335 0.0
H2248 H 0.9688 0.7536 0.73693 0.0
C2249 C 0.9003 0.74318 0.69826 0.0
C2250 C 0.88571 0.75275 0.69129 0.0
C2251 C 0.88931 0.77208 0.69049 0.0
C2252 C 0.90693 0.78171 0.69698 0.0
C2253 C 0.92084 0.77183 0.70414 0.0
C2254 C 0.9177 0.75297 0.70477 0.0
C2255 C 0.93417 0.7456 0.71465 0.0
C2256 C 0.92766 0.73467 0.73134 0.0
C2257 C 0.94398 0.73405 0.70183 0.0
C2258 C 0.9468 0.76328 0.72007 0.0
C2259 C 0.93909 0.77827 0.71362 0.0
C2260 C 0.94771 0.79607 0.71791 0.0
C2261 C 0.96439 0.79857 0.72945 0.0
C2262 C 0.97207 0.78334 0.7367 0.0
C2263 C 0.96335 0.76553 0.73153 0.0
H2264 H 0.72958 0.22083 0.67489 0.0
H2265 H 0.6715 0.21306 0.65154 0.0
H2266 H 0.68289 0.22386 0.62204 0.0
H2267 H 0.74411 0.26268 0.65178 0.0
H2268 H 0.76785 0.25799 0.6487 0.0
H2269 H 0.75532 0.24849 0.66762 0.0
H2270 H 0.76031 0.21603 0.65755 0.0
H2271 H 0.77279 0.22543 0.63854 0.0
H2272 H 0.75242 0.20797 0.63488 0.0
H2273 H 0.70054 0.23564 0.59499 0.0
H2274 H 0.72256 0.25022 0.57323 0.0
H2275 H 0.76943 0.2522 0.61415 0.0
C2276 C 0.71932 0.22125 0.66349 0.0
C2277 C 0.69961 0.21594 0.66549 0.0
C2278 C 0.68661 0.21703 0.65034 0.0
C2279 C 0.69298 0.22308 0.6335 0.0
C2280 C 0.71245 0.22825 0.63196 0.0
C2281 C 0.72544 0.22762 0.6466 0.0
C2282 C 0.74546 0.23505 0.64151 0.0
C2283 C 0.75366 0.25206 0.65309 0.0
C2284 C 0.75851 0.22024 0.64322 0.0
C2285 C 0.74169 0.23996 0.62177 0.0
C2286 C 0.72257 0.23569 0.61651 0.0
C2287 C 0.71554 0.23904 0.599 0.0
C2288 C 0.72824 0.24731 0.58666 0.0
C2289 C 0.74786 0.25241 0.5918 0.0
C2290 C 0.75461 0.24841 0.60963 0.0
H2291 H 0.34453 0.25248 0.6523 0.0
H2292 H 0.29138 0.22514 0.67069 0.0
H2293 H 0.27474 0.23176 0.64151 0.0
H2294 H 0.32601 0.2885 0.63101 0.0
H2295 H 0.34129 0.28982 0.61242 0.0
H2296 H 0.34908 0.28114 0.63383 0.0
H2297 H 0.35469 0.25123 0.61788 0.0
H2298 H 0.34687 0.25985 0.59637 0.0
H2299 H 0.33551 0.23821 0.60413 0.0
H2300 H 0.26356 0.24411 0.61124 0.0
H2301 H 0.259 0.26121 0.58294 0.0
H2302 H 0.31979 0.27975 0.58476 0.0
C2303 C 0.32945 0.24766 0.64999 0.0
C2304 C 0.31917 0.23839 0.66362 0.0
C2305 C 0.29944 0.23231 0.66033 0.0
C2306 C 0.28992 0.23595 0.64381 0.0
C2307 C 0.30041 0.24548 0.63072 0.0
C2308 C 0.31979 0.25113 0.63362 0.0
C2309 C 0.32765 0.26209 0.61795 0.0
C2310 C 0.33652 0.28154 0.62418 0.0
C2311 C 0.34203 0.25225 0.60852 0.0
C2312 C 0.30961 0.26221 0.606 0.0
C2313 C 0.29405 0.25242 0.61342 0.0
C2314 C 0.27571 0.2516 0.60518 0.0
C2315 C 0.27324 0.26132 0.58911 0.0
C2316 C 0.28903 0.27177 0.58162 0.0
C2317 C 0.30742 0.27182 0.59005 0.0
H2318 H 0.35858 0.86439 0.66637 0.0
H2319 H 0.30472 0.87039 0.68841 0.0
H2320 H 0.28759 0.8539 0.6617 0.0
H2321 H 0.34366 0.87019 0.61941 0.0
H2322 H 0.35715 0.85345 0.61104 0.0
H2323 H 0.36521 0.86592 0.63178 0.0
H2324 H 0.36561 0.83545 0.64873 0.0
H2325 H 0.35753 0.82289 0.62804 0.0
H2326 H 0.34433 0.8189 0.64797 0.0
H2327 H 0.27623 0.83599 0.63291 0.0
H2328 H 0.27141 0.81879 0.60403 0.0
H2329 H 0.33262 0.82465 0.60016 0.0
C2330 C 0.34317 0.86217 0.66565 0.0
C2331 C 0.33304 0.86878 0.6796 0.0
C2332 C 0.31286 0.86573 0.67789 0.0
C2333 C 0.30299 0.85626 0.66279 0.0
C2334 C 0.31342 0.84989 0.64939 0.0
C2335 C 0.33307 0.85277 0.65063 0.0
C2336 C 0.34085 0.84453 0.6343 0.0
C2337 C 0.3524 0.85941 0.62349 0.0
C2338 C 0.35278 0.82955 0.64011 0.0
C2339 C 0.3225 0.83649 0.62371 0.0
C2340 C 0.30686 0.83974 0.63269 0.0
C2341 C 0.28839 0.83351 0.62571 0.0
C2342 C 0.28581 0.8238 0.60913 0.0
C2343 C 0.30158 0.82037 0.59948 0.0
C2344 C 0.32019 0.82685 0.60706 0.0
H2345 H 0.68139 0.8394 0.61599 0.0
H2346 H 0.62959 0.80637 0.63096 0.0
H2347 H 0.63491 0.78198 0.6095 0.0
H2348 H 0.67612 0.82814 0.56903 0.0
H2349 H 0.70114 0.82779 0.56681 0.0
H2350 H 0.69358 0.84202 0.58394 0.0
H2351 H 0.71298 0.82644 0.6086 0.0
H2352 H 0.72052 0.81209 0.59152 0.0
H2353 H 0.70872 0.80194 0.6106 0.0
H2354 H 0.6453 0.76195 0.58519 0.0
H2355 H 0.66003 0.74782 0.56026 0.0
H2356 H 0.70481 0.79441 0.56152 0.0
C2357 C 0.67122 0.827 0.61472 0.0
C2358 C 0.65492 0.82477 0.62478 0.0
C2359 C 0.64201 0.80832 0.62307 0.0
C2360 C 0.64496 0.79443 0.61101 0.0
C2361 C 0.66103 0.79717 0.60099 0.0
C2362 C 0.67397 0.81303 0.60279 0.0
C2363 C 0.68982 0.81284 0.59015 0.0
C2364 C 0.69017 0.82863 0.57669 0.0
C2365 C 0.70915 0.81335 0.60086 0.0
C2366 C 0.68362 0.79454 0.58075 0.0
C2367 C 0.66705 0.78563 0.58722 0.0
C2368 C 0.65835 0.76876 0.5801 0.0
C2369 C 0.66675 0.76088 0.5659 0.0
C2370 C 0.68366 0.76989 0.55898 0.0
C2371 C 0.69216 0.78689 0.56669 0.0
H2372 H 0.71881 0.83739 0.38547 0.0
H2373 H 0.66333 0.84572 0.40202 0.0
H2374 H 0.67216 0.83644 0.43312 0.0
H2375 H 0.72154 0.79736 0.41007 0.0
H2376 H 0.74675 0.80222 0.41597 0.0
H2377 H 0.73685 0.81143 0.39564 0.0
H2378 H 0.75154 0.8441 0.40651 0.0
H2379 H 0.76145 0.83497 0.42693 0.0
H2380 H 0.74628 0.85237 0.42834 0.0
H2381 H 0.68611 0.82427 0.46166 0.0
H2382 H 0.70344 0.80854 0.48524 0.0
H2383 H 0.7499 0.80776 0.45013 0.0
C2384 C 0.70872 0.83766 0.39578 0.0
C2385 C 0.69063 0.84285 0.39153 0.0
C2386 C 0.67747 0.84232 0.40515 0.0
C2387 C 0.68236 0.83706 0.42282 0.0
C2388 C 0.70039 0.83218 0.42661 0.0
C2389 C 0.71335 0.83237 0.41346 0.0
C2390 C 0.73121 0.82514 0.4207 0.0
C2391 C 0.73425 0.80802 0.40996 0.0
C2392 C 0.74865 0.84004 0.42061 0.0
C2393 C 0.7261 0.82052 0.43986 0.0
C2394 C 0.70835 0.82488 0.44304 0.0
C2395 C 0.7001 0.82097 0.45939 0.0
C2396 C 0.71007 0.81202 0.4727 0.0
C2397 C 0.72808 0.80699 0.46959 0.0
C2398 C 0.73632 0.81168 0.45306 0.0
H2399 H 0.70046 0.2467 0.40119 0.0
H2400 H 0.69379 0.19078 0.41961 0.0
H2401 H 0.70264 0.20186 0.45108 0.0
H2402 H 0.74161 0.26346 0.43302 0.0
H2403 H 0.73397 0.2854 0.43606 0.0
H2404 H 0.72813 0.27297 0.41492 0.0
H2405 H 0.6924 0.27482 0.41804 0.0
H2406 H 0.69809 0.28705 0.43928 0.0
H2407 H 0.68137 0.26625 0.43815 0.0
H2408 H 0.70939 0.21922 0.48093 0.0
H2409 H 0.717 0.24114 0.50643 0.0
H2410 H 0.721 0.28592 0.46852 0.0
C2411 C 0.70112 0.23679 0.41184 0.0
C2412 C 0.69647 0.21783 0.40792 0.0
C2413 C 0.69752 0.20532 0.42222 0.0
C2414 C 0.7024 0.21151 0.44017 0.0
C2415 C 0.70646 0.23028 0.44362 0.0
C2416 C 0.70624 0.24273 0.4298 0.0
C2417 C 0.71121 0.26217 0.43719 0.0
C2418 C 0.72983 0.27155 0.42986 0.0
C2419 C 0.69479 0.27322 0.43291 0.0
C2420 C 0.71375 0.25872 0.45735 0.0
C2421 C 0.71092 0.24024 0.46076 0.0
C2422 C 0.71195 0.23372 0.47837 0.0
C2423 C 0.71636 0.24636 0.49283 0.0
C2424 C 0.71991 0.26544 0.48974 0.0
C2425 C 0.71836 0.27156 0.47163 0.0
H2426 H 0.34279 0.21871 0.43953 0.0
H2427 H 0.28974 0.21325 0.4061 0.0
H2428 H 0.27823 0.23595 0.42555 0.0
H2429 H 0.32281 0.22451 0.48236 0.0
H2430 H 0.34244 0.24111 0.49101 0.0
H2431 H 0.34628 0.22402 0.47474 0.0
H2432 H 0.36074 0.24946 0.4537 0.0
H2433 H 0.3568 0.26664 0.46985 0.0
H2434 H 0.34707 0.26722 0.44677 0.0
H2435 H 0.2726 0.25949 0.44824 0.0
H2436 H 0.27275 0.28154 0.47348 0.0
H2437 H 0.32971 0.27246 0.49175 0.0
C2438 C 0.32876 0.2223 0.43625 0.0
C2439 C 0.31714 0.21408 0.4213 0.0
C2440 C 0.29879 0.21906 0.41765 0.0
C2441 C 0.29218 0.23209 0.42852 0.0
C2442 C 0.3041 0.24008 0.44297 0.0
C2443 C 0.32197 0.23535 0.44691 0.0
C2444 C 0.33195 0.24602 0.46324 0.0
C2445 C 0.33611 0.23315 0.47876 0.0
C2446 C 0.35022 0.25805 0.45807 0.0
C2447 C 0.31688 0.25751 0.46785 0.0
C2448 C 0.30094 0.25385 0.45597 0.0
C2449 C 0.28498 0.26246 0.45764 0.0
C2450 C 0.28519 0.27492 0.47202 0.0
C2451 C 0.30123 0.2787 0.48455 0.0
C2452 C 0.31737 0.27004 0.48224 0.0
H2453 H 0.33153 0.84975 0.42556 0.0
H2454 H 0.27694 0.85954 0.40097 0.0
H2455 H 0.26167 0.84915 0.42884 0.0
H2456 H 0.31368 0.80837 0.44772 0.0
H2457 H 0.33 0.81304 0.46743 0.0
H2458 H 0.33657 0.82201 0.4458 0.0
H2459 H 0.34298 0.8547 0.4598 0.0
H2460 H 0.33628 0.84583 0.48144 0.0
H2461 H 0.32442 0.86348 0.47112 0.0
H2462 H 0.25207 0.83677 0.46006 0.0
H2463 H 0.24939 0.82265 0.49034 0.0
H2464 H 0.31009 0.82048 0.49366 0.0
C2465 C 0.31633 0.84962 0.42587 0.0
C2466 C 0.30559 0.85567 0.41087 0.0
C2467 C 0.28572 0.85539 0.41224 0.0
C2468 C 0.27683 0.84937 0.42806 0.0
C2469 C 0.28788 0.84357 0.44255 0.0
C2470 C 0.30722 0.84359 0.44152 0.0
C2471 C 0.3159 0.83626 0.45873 0.0
C2472 C 0.32454 0.81889 0.45467 0.0
C2473 C 0.33077 0.85095 0.46834 0.0
C2474 C 0.29847 0.832 0.46959 0.0
C2475 C 0.28241 0.83639 0.46015 0.0
C2476 C 0.26462 0.83335 0.46754 0.0
C2477 C 0.26322 0.82539 0.48481 0.0
C2478 C 0.27948 0.82045 0.49453 0.0
C2479 C 0.29731 0.82408 0.48673 0.0
H2480 H 0.63787 0.19876 0.72491 0.0
H2481 H 0.673 0.24906 0.7112 0.0
H2482 H 0.65111 0.26687 0.72553 0.0
H2483 H 0.59269 0.21522 0.71669 0.0
H2484 H 0.58174 0.20318 0.73528 0.0
H2485 H 0.60034 0.19419 0.72427 0.0
H2486 H 0.6196 0.19366 0.75513 0.0
H2487 H 0.60106 0.20267 0.76623 0.0
H2488 H 0.62515 0.21434 0.76867 0.0
H2489 H 0.6256 0.27951 0.74165 0.0
H2490 H 0.59797 0.2861 0.75734 0.0
H2491 H 0.57816 0.22785 0.76017 0.0
C2492 C 0.64102 0.21352 0.72501 0.0
C2493 C 0.65725 0.22243 0.71674 0.0
C2494 C 0.66062 0.24181 0.71712 0.0
C2495 C 0.64829 0.2521 0.72537 0.0
C2496 C 0.63243 0.24294 0.73324 0.0
C2497 C 0.62868 0.22408 0.7331 0.0
C2498 C 0.61034 0.21775 0.74225 0.0
C2499 C 0.59539 0.20694 0.72882 0.0
C2500 C 0.61428 0.20644 0.75907 0.0
C2501 C 0.60443 0.23597 0.74755 0.0
C2502 C 0.61746 0.25029 0.74228 0.0
C2503 C 0.61524 0.26838 0.74573 0.0
C2504 C 0.59928 0.27199 0.75465 0.0
C2505 C 0.58539 0.25764 0.76006 0.0
C2506 C 0.58826 0.23932 0.75642 0.0
H2507 H 0.37518 0.17587 0.7371 0.0
H2508 H 0.32833 0.20695 0.74072 0.0
H2509 H 0.31431 0.18537 0.76318 0.0
H2510 H 0.34781 0.13287 0.73815 0.0
H2511 H 0.36507 0.12213 0.75149 0.0
H2512 H 0.37284 0.14125 0.73757 0.0
H2513 H 0.39076 0.15856 0.7656 0.0
H2514 H 0.38309 0.13943 0.77963 0.0
H2515 H 0.37807 0.16188 0.78539 0.0
H2516 H 0.30375 0.15918 0.78264 0.0
H2517 H 0.29715 0.12968 0.798 0.0
H2518 H 0.35054 0.11505 0.78188 0.0
C2519 C 0.36224 0.17834 0.74301 0.0
C2520 C 0.35285 0.19308 0.73731 0.0
C2521 C 0.33569 0.19569 0.74494 0.0
C2522 C 0.32769 0.18358 0.75775 0.0
C2523 C 0.33704 0.16893 0.7628 0.0
C2524 C 0.35397 0.16625 0.75575 0.0
C2525 C 0.36023 0.14857 0.7624 0.0
C2526 C 0.36155 0.13543 0.74645 0.0
C2527 C 0.37916 0.15234 0.77394 0.0
C2528 C 0.34392 0.14153 0.77389 0.0
C2529 C 0.33083 0.15362 0.77407 0.0
C2530 C 0.314 0.1497 0.78279 0.0
C2531 C 0.31031 0.13288 0.79136 0.0
C2532 C 0.32334 0.12013 0.79114 0.0
C2533 C 0.34052 0.12469 0.78254 0.0
H2534 H 0.38086 0.87638 0.75589 0.0
H2535 H 0.39852 0.87111 0.70126 0.0
H2536 H 0.427 0.85866 0.71336 0.0
H2537 H 0.42865 0.88959 0.77758 0.0
H2538 H 0.42356 0.87679 0.79777 0.0
H2539 H 0.40475 0.88588 0.78493 0.0
H2540 H 0.38525 0.85351 0.78203 0.0
H2541 H 0.404 0.84432 0.79481 0.0
H2542 H 0.39576 0.8351 0.77261 0.0
H2543 H 0.45323 0.8459 0.73115 0.0
H2544 H 0.47557 0.8342 0.75346 0.0
H2545 H 0.44129 0.84739 0.79682 0.0
C2546 C 0.39085 0.87282 0.7465 0.0
C2547 C 0.38729 0.87467 0.72755 0.0
C2548 C 0.40069 0.86962 0.71577 0.0
C2549 C 0.417 0.8626 0.72253 0.0
C2550 C 0.41992 0.86068 0.74118 0.0
C2551 C 0.40727 0.86569 0.75304 0.0
C2552 C 0.41367 0.86181 0.77248 0.0
C2553 C 0.41791 0.87958 0.78386 0.0
C2554 C 0.39878 0.84785 0.78098 0.0
C2555 C 0.43179 0.85378 0.76965 0.0
C2556 C 0.43511 0.85329 0.75148 0.0
C2557 C 0.45077 0.84623 0.74543 0.0
C2558 C 0.46335 0.83947 0.75824 0.0
C2559 C 0.46033 0.83975 0.777 0.0
C2560 C 0.44427 0.84711 0.78267 0.0
H2561 H 0.66543 0.88102 0.72724 0.0
H2562 H 0.6728 0.89831 0.6718 0.0
H2563 H 0.68883 0.92841 0.68314 0.0
H2564 H 0.65394 0.92364 0.74341 0.0
H2565 H 0.66606 0.92217 0.7654 0.0
H2566 H 0.6561 0.90163 0.75296 0.0
H2567 H 0.68903 0.89044 0.75526 0.0
H2568 H 0.69909 0.91093 0.76773 0.0
H2569 H 0.70938 0.90482 0.74732 0.0
H2570 H 0.704 0.95681 0.7006 0.0
H2571 H 0.71635 0.98147 0.72289 0.0
H2572 H 0.69731 0.94611 0.76658 0.0
C2573 C 0.67024 0.89113 0.71741 0.0
C2574 C 0.66786 0.88716 0.69858 0.0
C2575 C 0.67473 0.90081 0.68629 0.0
C2576 C 0.68374 0.91803 0.69259 0.0
C2577 C 0.68566 0.92149 0.71121 0.0
C2578 C 0.67903 0.90844 0.72343 0.0
C2579 C 0.68243 0.91573 0.74273 0.0
C2580 C 0.6635 0.9158 0.75165 0.0
C2581 C 0.69578 0.90483 0.75391 0.0
C2582 C 0.69197 0.93495 0.73946 0.0
C2583 C 0.69384 0.93797 0.72121 0.0
C2584 C 0.70257 0.9546 0.71492 0.0
C2585 C 0.70959 0.96849 0.72765 0.0
C2586 C 0.70768 0.96572 0.74641 0.0
C2587 C 0.69869 0.94872 0.75231 0.0
H2588 H 0.60993 0.85252 0.34624 0.0
H2589 H 0.63472 0.86371 0.29462 0.0
H2590 H 0.60465 0.84979 0.27861 0.0
H2591 H 0.58643 0.80853 0.33356 0.0
H2592 H 0.56597 0.81019 0.34628 0.0
H2593 H 0.58868 0.82296 0.35356 0.0
H2594 H 0.57366 0.85287 0.35269 0.0
H2595 H 0.5509 0.84018 0.34522 0.0
H2596 H 0.56133 0.85898 0.33207 0.0
H2597 H 0.57242 0.83303 0.26812 0.0
H2598 H 0.54171 0.81252 0.26426 0.0
H2599 H 0.53877 0.81108 0.32268 0.0
C2600 C 0.60909 0.85208 0.33158 0.0
C2601 C 0.62471 0.85949 0.32176 0.0
C2602 C 0.62286 0.85862 0.30253 0.0
C2603 C 0.60584 0.85066 0.29327 0.0
C2604 C 0.59076 0.84351 0.30338 0.0
C2605 C 0.59229 0.84402 0.32211 0.0
C2606 C 0.57454 0.83412 0.32981 0.0
C2607 C 0.57919 0.81799 0.34148 0.0
C2608 C 0.56452 0.84733 0.34058 0.0
C2609 C 0.56299 0.82761 0.31248 0.0
C2610 C 0.57242 0.83343 0.29736 0.0
C2611 C 0.56483 0.8285 0.27986 0.0
C2612 C 0.54735 0.81691 0.27779 0.0
C2613 C 0.53786 0.81022 0.29316 0.0
C2614 C 0.54564 0.81602 0.31066 0.0
H2615 H 0.69987 0.15552 0.31294 0.0
H2616 H 0.73032 0.15783 0.36571 0.0
H2617 H 0.74512 0.13079 0.3573 0.0
H2618 H 0.69112 0.10554 0.30803 0.0
H2619 H 0.69435 0.10617 0.28406 0.0
H2620 H 0.68543 0.12474 0.29497 0.0
H2621 H 0.71269 0.14751 0.28281 0.0
H2622 H 0.72179 0.12899 0.27204 0.0
H2623 H 0.73702 0.14404 0.28783 0.0
H2624 H 0.75848 0.10413 0.34154 0.0
H2625 H 0.76707 0.0802 0.32108 0.0
H2626 H 0.72742 0.09596 0.27912 0.0
C2627 C 0.70938 0.15012 0.32285 0.0
C2628 C 0.7139 0.15877 0.34003 0.0
C2629 C 0.72657 0.15136 0.35253 0.0
C2630 C 0.73511 0.13605 0.34781 0.0
C2631 C 0.73076 0.12814 0.33054 0.0
C2632 C 0.71798 0.13488 0.31836 0.0
C2633 C 0.71599 0.12436 0.30051 0.0
C2634 C 0.69551 0.11462 0.29667 0.0
C2635 C 0.72225 0.13698 0.28488 0.0
C2636 C 0.72973 0.11077 0.30438 0.0
C2637 C 0.73819 0.11306 0.32174 0.0
C2638 C 0.75177 0.1022 0.32798 0.0
C2639 C 0.75664 0.08865 0.31625 0.0
C2640 C 0.74794 0.08601 0.29845 0.0
C2641 C 0.73434 0.09737 0.29263 0.0
H2642 H 0.39266 0.17917 0.36031 0.0
H2643 H 0.41174 0.2161 0.40569 0.0
H2644 H 0.43989 0.22899 0.38952 0.0
H2645 H 0.43974 0.17068 0.34828 0.0
H2646 H 0.43343 0.17034 0.32426 0.0
H2647 H 0.41547 0.16329 0.33987 0.0
H2648 H 0.39525 0.18707 0.32652 0.0
H2649 H 0.41314 0.19422 0.3109 0.0
H2650 H 0.40566 0.21074 0.32588 0.0
H2651 H 0.46501 0.23859 0.36804 0.0
H2652 H 0.48557 0.24461 0.34259 0.0
H2653 H 0.44996 0.20173 0.31076 0.0
C2654 C 0.40299 0.18975 0.36689 0.0
C2655 C 0.40038 0.19643 0.38434 0.0
C2656 C 0.41379 0.21062 0.39245 0.0
C2657 C 0.42974 0.21801 0.38337 0.0
C2658 C 0.43195 0.2111 0.36618 0.0
C2659 C 0.41897 0.19729 0.358 0.0
C2660 C 0.42426 0.19288 0.33912 0.0
C2661 C 0.42848 0.17312 0.33781 0.0
C2662 C 0.40865 0.19645 0.32476 0.0
C2663 C 0.44216 0.20649 0.33788 0.0
C2664 C 0.44636 0.21681 0.35366 0.0
C2665 C 0.4619 0.23058 0.35562 0.0
C2666 C 0.47341 0.23399 0.34102 0.0
C2667 C 0.46932 0.22371 0.32463 0.0
C2668 C 0.45356 0.20967 0.32317 0.0
H2669 H 0.30287 0.91341 0.38139 0.0
H2670 H 0.31732 0.88955 0.33121 0.0
H2671 H 0.30665 0.91523 0.31432 0.0
H2672 H 0.25968 0.92754 0.36281 0.0
H2673 H 0.26245 0.94808 0.37655 0.0
H2674 H 0.27253 0.92847 0.3847 0.0
H2675 H 0.30566 0.94828 0.38918 0.0
H2676 H 0.2957 0.96793 0.38089 0.0
H2677 H 0.31555 0.96073 0.37031 0.0
H2678 H 0.29342 0.94405 0.30252 0.0
H2679 H 0.27719 0.97131 0.29734 0.0
H2680 H 0.26994 0.97484 0.35495 0.0
C2681 C 0.30371 0.91335 0.36684 0.0
C2682 C 0.3112 0.89922 0.35784 0.0
C2683 C 0.31214 0.90022 0.3387 0.0
C2684 C 0.30596 0.91478 0.32888 0.0
C2685 C 0.29866 0.92838 0.33823 0.0
C2686 C 0.29739 0.92766 0.35679 0.0
C2687 C 0.28822 0.94346 0.36361 0.0
C2688 C 0.26962 0.93647 0.37243 0.0
C2689 C 0.30211 0.95583 0.37678 0.0
C2690 C 0.28439 0.95314 0.346 0.0
C2691 C 0.29068 0.94441 0.33148 0.0
C2692 C 0.28848 0.95095 0.31386 0.0
C2693 C 0.27933 0.96653 0.31102 0.0
C2694 C 0.27227 0.97531 0.32569 0.0
C2695 C 0.27513 0.96852 0.34339 0.0
H2696 H 0.70596 0.12379 0.70435 0.0
H2697 H 0.69546 0.15743 0.74978 0.0
H2698 H 0.7071 0.13514 0.771 0.0
H2699 H 0.69088 0.08072 0.72428 0.0
H2700 H 0.70874 0.06918 0.71488 0.0
H2701 H 0.70054 0.08813 0.70318 0.0
H2702 H 0.73515 0.10472 0.70337 0.0
H2703 H 0.74348 0.08576 0.71496 0.0
H2704 H 0.74926 0.10849 0.72456 0.0
H2705 H 0.71875 0.10874 0.78726 0.0
H2706 H 0.7302 0.0806 0.79776 0.0
H2707 H 0.73349 0.0633 0.74195 0.0
C2708 C 0.70645 0.1266 0.71878 0.0
C2709 C 0.70022 0.14265 0.72542 0.0
C2710 C 0.70055 0.14552 0.74439 0.0
C2711 C 0.70706 0.13286 0.75653 0.0
C2712 C 0.7131 0.11724 0.74954 0.0
C2713 C 0.71292 0.11406 0.73111 0.0
C2714 C 0.71976 0.09592 0.72721 0.0
C2715 C 0.70404 0.08271 0.71677 0.0
C2716 C 0.738 0.09891 0.71691 0.0
C2717 C 0.72372 0.08932 0.74634 0.0
C2718 C 0.71975 0.10188 0.75896 0.0
C2719 C 0.72197 0.09887 0.77748 0.0
C2720 C 0.72848 0.08272 0.78331 0.0
C2721 C 0.73282 0.06955 0.77075 0.0
C2722 C 0.73036 0.073 0.75195 0.0
H2723 H 0.66011 0.92175 0.3183 0.0
H2724 H 0.70957 0.8941 0.32765 0.0
H2725 H 0.72911 0.91902 0.3124 0.0
H2726 H 0.6708 0.93852 0.27394 0.0
H2727 H 0.66242 0.96005 0.27745 0.0
H2728 H 0.65223 0.94006 0.2891 0.0
H2729 H 0.66049 0.9571 0.31997 0.0
H2730 H 0.67057 0.97717 0.30842 0.0
H2731 H 0.68467 0.96737 0.32583 0.0
H2732 H 0.74308 0.94645 0.29591 0.0
H2733 H 0.75129 0.97585 0.28086 0.0
H2734 H 0.69289 0.98604 0.28239 0.0
C2735 C 0.67504 0.92092 0.31706 0.0
C2736 C 0.68336 0.90601 0.32415 0.0
C2737 C 0.70299 0.90551 0.32249 0.0
C2738 C 0.71414 0.9195 0.31373 0.0
C2739 C 0.70545 0.93389 0.30675 0.0
C2740 C 0.6864 0.9348 0.30841 0.0
C2741 C 0.68069 0.952 0.30005 0.0
C2742 C 0.66565 0.94737 0.28419 0.0
C2743 C 0.6737 0.96413 0.31443 0.0
C2744 C 0.69955 0.96066 0.29344 0.0
C2745 C 0.71359 0.9499 0.29737 0.0
C2746 C 0.73224 0.95504 0.29284 0.0
C2747 C 0.73678 0.9718 0.28438 0.0
C2748 C 0.72276 0.98331 0.28062 0.0
C2749 C 0.70384 0.97747 0.28496 0.0
H2750 H 0.64957 0.21394 0.3288 0.0
H2751 H 0.63699 0.22502 0.3842 0.0
H2752 H 0.60933 0.23886 0.37296 0.0
H2753 H 0.63423 0.25387 0.30827 0.0
H2754 H 0.62319 0.2419 0.28813 0.0
H2755 H 0.64302 0.23379 0.30028 0.0
H2756 H 0.62291 0.20202 0.30335 0.0
H2757 H 0.6031 0.20998 0.29104 0.0
H2758 H 0.60022 0.20039 0.3132 0.0
H2759 H 0.58289 0.25229 0.3558 0.0
H2760 H 0.55753 0.26025 0.33403 0.0
H2761 H 0.58512 0.23805 0.29004 0.0
C2762 C 0.64102 0.21918 0.33863 0.0
C2763 C 0.64616 0.2188 0.35748 0.0
C2764 C 0.63418 0.22576 0.36969 0.0
C2765 C 0.61819 0.23357 0.36344 0.0
C2766 C 0.61384 0.23409 0.34487 0.0
C2767 C 0.62467 0.22676 0.33263 0.0
C2768 C 0.61612 0.22809 0.3134 0.0
C2769 C 0.62997 0.24013 0.30184 0.0
C2770 C 0.61023 0.20898 0.30474 0.0
C2771 C 0.59884 0.23724 0.31682 0.0
C2772 C 0.59796 0.24086 0.33505 0.0
C2773 C 0.58339 0.24944 0.34148 0.0
C2774 C 0.56909 0.25403 0.32901 0.0
C2775 C 0.56927 0.24977 0.31035 0.0
C2776 C 0.58453 0.24146 0.30424 0.0
H2777 H 0.30189 0.14325 0.40237 0.0
H2778 H 0.30758 0.17281 0.3522 0.0
H2779 H 0.28833 0.14673 0.33547 0.0
H2780 H 0.30769 0.10065 0.38393 0.0
H2781 H 0.29089 0.08721 0.39747 0.0
H2782 H 0.30302 0.10895 0.40594 0.0
H2783 H 0.27063 0.11985 0.41046 0.0
H2784 H 0.25838 0.09809 0.40206 0.0
H2785 H 0.25309 0.11887 0.39162 0.0
H2786 H 0.27066 0.11713 0.32397 0.0
H2787 H 0.25615 0.08525 0.31796 0.0
H2788 H 0.26272 0.07386 0.37532 0.0
C2789 C 0.29864 0.14428 0.38794 0.0
C2790 C 0.30591 0.16 0.3785 0.0
C2791 C 0.30194 0.16086 0.35957 0.0
C2792 C 0.29102 0.14617 0.35002 0.0
C2793 C 0.28429 0.1307 0.35961 0.0
C2794 C 0.28793 0.1296 0.37813 0.0
C2795 C 0.28029 0.1108 0.38484 0.0
C2796 C 0.29644 0.10135 0.39356 0.0
C2797 C 0.26467 0.11198 0.39803 0.0
C2798 C 0.27212 0.10145 0.36715 0.0
C2799 C 0.27442 0.11329 0.35283 0.0
C2800 C 0.26872 0.10774 0.33506 0.0
C2801 C 0.26064 0.08954 0.33177 0.0
C2802 C 0.25845 0.07699 0.34615 0.0
C2803 C 0.26403 0.08317 0.3641 0.0
H2804 H 0.36266 0.80306 0.35239 0.0
H2805 H 0.38345 0.86019 0.34434 0.0
H2806 H 0.41307 0.85163 0.33301 0.0
H2807 H 0.40858 0.78898 0.36682 0.0
H2808 H 0.40316 0.76724 0.35507 0.0
H2809 H 0.38427 0.77803 0.3635 0.0
H2810 H 0.36736 0.77628 0.33133 0.0
H2811 H 0.38623 0.76558 0.32278 0.0
H2812 H 0.38006 0.78619 0.31264 0.0
H2813 H 0.44002 0.83642 0.32121 0.0
H2814 H 0.4619 0.81629 0.31046 0.0
H2815 H 0.42333 0.76887 0.32583 0.0
C2816 C 0.37363 0.8138 0.34861 0.0
C2817 C 0.37094 0.83239 0.34975 0.0
C2818 C 0.38539 0.84594 0.34405 0.0
C2819 C 0.40222 0.84117 0.33751 0.0
C2820 C 0.40441 0.82272 0.33658 0.0
C2821 C 0.39051 0.80925 0.34204 0.0
C2822 C 0.39602 0.79039 0.33908 0.0
C2823 C 0.39813 0.78058 0.3572 0.0
C2824 C 0.38156 0.77894 0.32566 0.0
C2825 C 0.41515 0.79529 0.33098 0.0
C2826 C 0.41974 0.81401 0.32966 0.0
C2827 C 0.43652 0.82175 0.32225 0.0
C2828 C 0.44886 0.81015 0.31604 0.0
C2829 C 0.44451 0.79086 0.31719 0.0
C2830 C 0.42735 0.78347 0.32489 0.0
H2831 H 0.3422 0.94534 0.76205 0.0
H2832 H 0.29563 0.92975 0.72181 0.0
H2833 H 0.28235 0.95804 0.72876 0.0
H2834 H 0.3156 0.96285 0.79453 0.0
H2835 H 0.33379 0.98143 0.80194 0.0
H2836 H 0.34035 0.96092 0.79253 0.0
H2837 H 0.35903 0.97994 0.76847 0.0
H2838 H 0.3526 1.00054 0.7779 0.0
H2839 H 0.34714 0.99501 0.75419 0.0
H2840 H 0.27278 0.98753 0.74244 0.0
H2841 H 0.26882 0.01502 0.76058 0.0
H2842 H 0.32199 0.01077 0.79131 0.0
C2843 C 0.3294 0.94808 0.75448 0.0
C2844 C 0.31991 0.93532 0.74143 0.0
C2845 C 0.30313 0.93934 0.73187 0.0
C2846 C 0.29547 0.95537 0.73576 0.0
C2847 C 0.30487 0.96744 0.74914 0.0
C2848 C 0.32161 0.96401 0.75819 0.0
C2849 C 0.32864 0.97867 0.77243 0.0
C2850 C 0.32964 0.97047 0.79148 0.0
C2851 C 0.348 0.98917 0.76797 0.0
C2852 C 0.31308 0.99066 0.77032 0.0
C2853 C 0.2995 0.98413 0.75677 0.0
C2854 C 0.28349 0.99282 0.75296 0.0
C2855 C 0.28132 0.00845 0.76332 0.0
C2856 C 0.29505 0.01521 0.77738 0.0
C2857 C 0.31117 1.00614 0.78066 0.0
H2858 H 0.60445 0.85934 0.70936 0.0
H2859 H 0.62256 0.80664 0.70018 0.0
H2860 H 0.59594 0.79179 0.71712 0.0
H2861 H 0.59445 0.85172 0.75454 0.0
H2862 H 0.57434 0.86404 0.75371 0.0
H2863 H 0.59313 0.87003 0.73877 0.0
H2864 H 0.56856 0.86532 0.71107 0.0
H2865 H 0.54967 0.85922 0.72595 0.0
H2866 H 0.55314 0.84381 0.70788 0.0
H2867 H 0.56875 0.78303 0.73725 0.0
H2868 H 0.54468 0.78147 0.76011 0.0
H2869 H 0.54577 0.84015 0.757 0.0
C2870 C 0.60286 0.84466 0.71084 0.0
C2871 C 0.61563 0.83418 0.70338 0.0
C2872 C 0.6128 0.81497 0.70549 0.0
C2873 C 0.59774 0.8064 0.71514 0.0
C2874 C 0.58562 0.81722 0.72257 0.0
C2875 C 0.58807 0.83594 0.72054 0.0
C2876 C 0.57415 0.84471 0.73105 0.0
C2877 C 0.58465 0.85843 0.74537 0.0
C2878 C 0.56057 0.8538 0.71822 0.0
C2879 C 0.56381 0.82806 0.73973 0.0
C2880 C 0.57035 0.81226 0.73444 0.0
C2881 C 0.5634 0.79529 0.74135 0.0
C2882 C 0.54971 0.79453 0.75428 0.0
C2883 C 0.54339 0.81069 0.76031 0.0
C2884 C 0.5503 0.82755 0.75263 0.0
H2885 H 0.40406 0.24607 0.73768 0.0
H2886 H 0.41104 0.22696 0.68332 0.0
H2887 H 0.44434 0.24263 0.6853 0.0
H2888 H 0.43257 0.2909 0.73375 0.0
H2889 H 0.44229 0.29123 0.75689 0.0
H2890 H 0.41893 0.27901 0.75087 0.0
H2891 H 0.42918 0.24944 0.76442 0.0
H2892 H 0.45248 0.26162 0.77059 0.0
H2893 H 0.44994 0.24121 0.75665 0.0
H2894 H 0.47782 0.25815 0.69453 0.0
H2895 H 0.50814 0.27321 0.70979 0.0
H2896 H 0.47822 0.2839 0.7571 0.0
C2897 C 0.41262 0.24523 0.7262 0.0
C2898 C 0.4051 0.23526 0.71038 0.0
C2899 C 0.41659 0.2346 0.69553 0.0
C2900 C 0.43548 0.24344 0.69654 0.0
C2901 C 0.44251 0.25314 0.71238 0.0
C2902 C 0.43135 0.25423 0.72687 0.0
C2903 C 0.44231 0.26532 0.74242 0.0
C2904 C 0.4335 0.28264 0.74619 0.0
C2905 C 0.44355 0.2537 0.75952 0.0
C2906 C 0.46152 0.26995 0.73461 0.0
C2907 C 0.46141 0.2628 0.71729 0.0
C2908 C 0.47798 0.26412 0.70795 0.0
C2909 C 0.49512 0.2727 0.71669 0.0
C2910 C 0.49548 0.28004 0.73446 0.0
C2911 C 0.47834 0.27891 0.74331 0.0
H2912 H 0.6608 0.71761 0.16076 0.0
H2913 H 0.71353 0.71051 0.19102 0.0
H2914 H 0.73172 0.7278 0.16797 0.0
H2915 H 0.67753 0.71394 0.11606 0.0
H2916 H 0.66471 0.7313 0.10651 0.0
H2917 H 0.65564 0.71805 0.12522 0.0
H2918 H 0.65495 0.74777 0.14369 0.0
H2919 H 0.664 0.76111 0.12503 0.0
H2920 H 0.67636 0.76402 0.14715 0.0
H2921 H 0.74451 0.74613 0.14166 0.0
H2922 H 0.75081 0.76431 0.11437 0.0
H2923 H 0.69005 0.76033 0.10099 0.0
C2924 C 0.67617 0.71976 0.16266 0.0
C2925 C 0.6856 0.71239 0.17782 0.0
C2926 C 0.7058 0.71553 0.17948 0.0
C2927 C 0.71634 0.72551 0.16647 0.0
C2928 C 0.7066 0.73249 0.15176 0.0
C2929 C 0.68696 0.7298 0.14978 0.0
C2930 C 0.68005 0.73892 0.13271 0.0
C2931 C 0.66882 0.7247 0.11933 0.0
C2932 C 0.66813 0.75384 0.13743 0.0
C2933 C 0.69887 0.74716 0.12543 0.0
C2934 C 0.71399 0.74322 0.13663 0.0
C2935 C 0.73276 0.74923 0.13277 0.0
C2936 C 0.7362 0.7595 0.11709 0.0
C2937 C 0.721 0.76381 0.10528 0.0
C2938 C 0.70205 0.75749 0.10968 0.0
H2939 H 0.2753 0.72895 0.13366 0.0
H2940 H 0.30753 0.69398 0.10477 0.0
H2941 H 0.28358 0.69194 0.07888 0.0
H2942 H 0.22666 0.70801 0.11528 0.0
H2943 H 0.21856 0.72996 0.11374 0.0
H2944 H 0.23631 0.72604 0.13122 0.0
H2945 H 0.25906 0.7539 0.12043 0.0
H2946 H 0.24131 0.75796 0.10315 0.0
H2947 H 0.26476 0.75491 0.09703 0.0
H2948 H 0.25885 0.69715 0.05473 0.0
H2949 H 0.23698 0.71109 0.03364 0.0
H2950 H 0.22052 0.74246 0.07823 0.0
C2951 C 0.27694 0.72039 0.12209 0.0
C2952 C 0.2929 0.71115 0.12148 0.0
C2953 C 0.29512 0.70074 0.1058 0.0
C2954 C 0.28155 0.69947 0.09103 0.0
C2955 C 0.26593 0.70875 0.0921 0.0
C2956 C 0.26359 0.71906 0.10723 0.0
C2957 C 0.24693 0.72955 0.10416 0.0
C2958 C 0.23118 0.72299 0.11686 0.0
C2959 C 0.25341 0.75029 0.10631 0.0
C2960 C 0.24072 0.72413 0.08467 0.0
C2961 C 0.25162 0.71185 0.07805 0.0
C2962 C 0.24994 0.70644 0.05986 0.0
C2963 C 0.23743 0.71438 0.04798 0.0
C2964 C 0.22684 0.72766 0.05433 0.0
C2965 C 0.22795 0.73194 0.07305 0.0
H2966 H 0.3187 0.36813 0.17163 0.0
H2967 H 0.37543 0.35399 0.16763 0.0
H2968 H 0.36478 0.33727 0.13899 0.0
H2969 H 0.29268 0.32631 0.15335 0.0
H2970 H 0.27486 0.33717 0.14095 0.0
H2971 H 0.28686 0.34777 0.16136 0.0
H2972 H 0.29734 0.37731 0.14382 0.0
H2973 H 0.28525 0.36684 0.12339 0.0
H2974 H 0.31014 0.37602 0.12371 0.0
H2975 H 0.34732 0.32113 0.11036 0.0
H2976 H 0.32528 0.30934 0.08407 0.0
H2977 H 0.28093 0.33551 0.10633 0.0
C2978 C 0.32902 0.36174 0.1647 0.0
C2979 C 0.34793 0.36233 0.17226 0.0
C2980 C 0.36074 0.35348 0.16257 0.0
C2981 C 0.35486 0.34399 0.14614 0.0
C2982 C 0.33609 0.3435 0.13924 0.0
C2983 C 0.32343 0.35232 0.14817 0.0
C2984 C 0.30414 0.35004 0.13777 0.0
C2985 C 0.28873 0.33971 0.14903 0.0
C2986 C 0.29892 0.36866 0.13182 0.0
C2987 C 0.30791 0.3386 0.12164 0.0
C2988 C 0.32636 0.3348 0.12272 0.0
C2989 C 0.33286 0.32415 0.10937 0.0
C2990 C 0.32024 0.31744 0.09449 0.0
C2991 C 0.30139 0.32155 0.09297 0.0
C2992 C 0.29529 0.3322 0.10689 0.0
H2993 H 0.72154 0.33772 0.13542 0.0
H2994 H 0.6608 0.33964 0.13081 0.0
H2995 H 0.65813 0.323 0.1015 0.0
H2996 H 0.72977 0.34386 0.08819 0.0
H2997 H 0.74691 0.32816 0.08806 0.0
H2998 H 0.74403 0.34042 0.10858 0.0
H2999 H 0.73755 0.3098 0.12547 0.0
H3000 H 0.74041 0.29747 0.10498 0.0
H3001 H 0.71885 0.29232 0.11662 0.0
H3002 H 0.66222 0.30649 0.07237 0.0
H3003 H 0.67264 0.29091 0.046 0.0
H3004 H 0.73049 0.29872 0.07038 0.0
C3005 C 0.70773 0.33479 0.12812 0.0
C3006 C 0.6915 0.34043 0.13514 0.0
C3007 C 0.67353 0.33586 0.1255 0.0
C3008 C 0.67185 0.32635 0.10886 0.0
C3009 C 0.68821 0.32124 0.10219 0.0
C3010 C 0.70579 0.32522 0.11156 0.0
C3011 C 0.72109 0.31791 0.10157 0.0
C3012 C 0.73635 0.33352 0.09629 0.0
C3013 C 0.72999 0.30352 0.11283 0.0
C3014 C 0.70939 0.30933 0.08506 0.0
C3015 C 0.69047 0.31138 0.08566 0.0
C3016 C 0.67699 0.30471 0.0718 0.0
C3017 C 0.68305 0.29578 0.0569 0.0
C3018 C 0.70242 0.29353 0.05596 0.0
C3019 C 0.71564 0.30036 0.07039 0.0
H3020 H 0.72072 0.33542 0.89343 0.0
H3021 H 0.74278 0.39177 0.90749 0.0
H3022 H 0.75641 0.38201 0.93692 0.0
H3023 H 0.70683 0.32217 0.9367 0.0
H3024 H 0.71345 0.29963 0.93526 0.0
H3025 H 0.70672 0.31099 0.91494 0.0
H3026 H 0.7388 0.30698 0.90181 0.0
H3027 H 0.74562 0.29557 0.92212 0.0
H3028 H 0.7608 0.31534 0.91461 0.0
H3029 H 0.7656 0.36611 0.96561 0.0
H3030 H 0.76995 0.34535 0.99114 0.0
H3031 H 0.74237 0.29945 0.95764 0.0
C3032 C 0.72869 0.34563 0.90261 0.0
C3033 C 0.73097 0.3643 0.89824 0.0
C3034 C 0.74116 0.37737 0.91064 0.0
C3035 C 0.74891 0.37196 0.92732 0.0
C3036 C 0.74637 0.35341 0.93129 0.0
C3037 C 0.7366 0.34045 0.91923 0.0
C3038 C 0.73521 0.32149 0.927 0.0
C3039 C 0.71432 0.31309 0.92857 0.0
C3040 C 0.74574 0.30912 0.91571 0.0
C3041 C 0.74539 0.32584 0.94544 0.0
C3042 C 0.75181 0.3443 0.94767 0.0
C3043 C 0.76083 0.3516 0.96395 0.0
C3044 C 0.76321 0.33972 0.97838 0.0
C3045 C 0.75659 0.32078 0.97637 0.0
C3046 C 0.74779 0.31382 0.95958 0.0
H3047 H 0.67794 0.7347 0.93612 0.0
H3048 H 0.72866 0.72719 0.90914 0.0
H3049 H 0.74828 0.73601 0.9376 0.0
H3050 H 0.69829 0.77453 0.96111 0.0
H3051 H 0.68511 0.76861 0.98075 0.0
H3052 H 0.67536 0.76045 0.95864 0.0
H3053 H 0.67186 0.72717 0.97007 0.0
H3054 H 0.68176 0.73524 0.9922 0.0
H3055 H 0.69241 0.71846 0.98019 0.0
H3056 H 0.76262 0.74765 0.9696 0.0
H3057 H 0.76963 0.76146 1.00052 0.0
H3058 H 0.70922 0.76124 1.00538 0.0
C3059 C 0.69319 0.73495 0.93606 0.0
C3060 C 0.70167 0.73027 0.92021 0.0
C3061 C 0.72169 0.73051 0.92106 0.0
C3062 C 0.73299 0.73558 0.93719 0.0
C3063 C 0.72412 0.7403 0.9525 0.0
C3064 C 0.70461 0.73998 0.95197 0.0
C3065 C 0.69841 0.74627 0.96986 0.0
C3066 C 0.68873 0.76349 0.96744 0.0
C3067 C 0.68534 0.73086 0.97859 0.0
C3068 C 0.71744 0.75047 0.98055 0.0
C3069 C 0.73219 0.74685 0.97048 0.0
C3070 C 0.7511 0.75037 0.9776 0.0
C3071 C 0.75498 0.75811 0.99523 0.0
C3072 C 0.74001 0.76238 1.00548 0.0
C3073 C 0.72105 0.75811 0.99801 0.0
H3074 H 0.32354 0.69079 0.94072 0.0
H3075 H 0.33519 0.73347 0.90141 0.0
H3076 H 0.32525 0.75584 0.92245 0.0
H3077 H 0.2822 0.70575 0.95735 0.0
H3078 H 0.28775 0.70018 0.98059 0.0
H3079 H 0.29603 0.68763 0.96251 0.0
H3080 H 0.33065 0.69567 0.97636 0.0
H3081 H 0.32248 0.70839 0.99442 0.0
H3082 H 0.34055 0.71927 0.9805 0.0
H3083 H 0.31201 0.77301 0.94671 0.0
H3084 H 0.29725 0.78409 0.97337 0.0
H3085 H 0.29628 0.7311 0.99789 0.0
C3086 C 0.32396 0.70486 0.93661 0.0
C3087 C 0.33011 0.71048 0.91949 0.0
C3088 C 0.33063 0.72898 0.91454 0.0
C3089 C 0.32501 0.74175 0.92638 0.0
C3090 C 0.31914 0.73585 0.94321 0.0
C3091 C 0.31869 0.71788 0.94841 0.0
C3092 C 0.31174 0.71515 0.96728 0.0
C3093 C 0.29334 0.70136 0.9669 0.0
C3094 C 0.32729 0.70927 0.98042 0.0
C3095 C 0.30806 0.73431 0.97173 0.0
C3096 C 0.31238 0.74602 0.95762 0.0
C3097 C 0.30892 0.76409 0.958 0.0
C3098 C 0.30062 0.77028 0.97311 0.0
C3099 C 0.2962 0.75856 0.9877 0.0
C3100 C 0.30018 0.74043 0.9871 0.0
H3101 H 0.32618 0.38936 0.92589 0.0
H3102 H 0.33189 0.33756 0.90043 0.0
H3103 H 0.31597 0.32123 0.92547 0.0
H3104 H 0.33484 0.37559 0.97192 0.0
H3105 H 0.31771 0.38826 0.98105 0.0
H3106 H 0.32926 0.39603 0.96098 0.0
H3107 H 0.29641 0.3957 0.94368 0.0
H3108 H 0.28475 0.38789 0.9637 0.0
H3109 H 0.27951 0.37502 0.94274 0.0
H3110 H 0.29929 0.31028 0.95314 0.0
H3111 H 0.2842 0.30544 0.98206 0.0
H3112 H 0.28922 0.36408 0.99051 0.0
C3113 C 0.32396 0.37458 0.92548 0.0
C3114 C 0.33044 0.36481 0.91105 0.0
C3115 C 0.32738 0.34544 0.91133 0.0
C3116 C 0.3182 0.33601 0.92547 0.0
C3117 C 0.31206 0.34602 0.93942 0.0
C3118 C 0.31484 0.36488 0.93961 0.0
C3119 C 0.30716 0.37228 0.95649 0.0
C3120 C 0.3232 0.38372 0.96831 0.0
C3121 C 0.291 0.38338 0.95134 0.0
C3122 C 0.29968 0.35464 0.96579 0.0
C3123 C 0.30261 0.33968 0.9556 0.0
C3124 C 0.29706 0.32191 0.96127 0.0
C3125 C 0.28858 0.3193 0.97786 0.0
C3126 C 0.28568 0.33433 0.98885 0.0
C3127 C 0.29114 0.35227 0.98249 0.0
H3128 H 0.63412 0.70016 0.24585 0.0
H3129 H 0.61848 0.7067 0.18882 0.0
H3130 H 0.58848 0.71674 0.19679 0.0
H3131 H 0.5863 0.6831 0.25899 0.0
H3132 H 0.58943 0.69512 0.28051 0.0
H3133 H 0.60966 0.6881 0.27043 0.0
H3134 H 0.62674 0.72147 0.27224 0.0
H3135 H 0.60656 0.72859 0.2823 0.0
H3136 H 0.6151 0.7393 0.262 0.0
H3137 H 0.56014 0.72652 0.2108 0.0
H3138 H 0.53564 0.7353 0.22976 0.0
H3139 H 0.56909 0.72282 0.27805 0.0
C3140 C 0.62431 0.70351 0.23502 0.0
C3141 C 0.62889 0.70267 0.21663 0.0
C3142 C 0.6156 0.70744 0.20298 0.0
C3143 C 0.5984 0.71308 0.20738 0.0
C3144 C 0.59444 0.71394 0.22556 0.0
C3145 C 0.60698 0.70928 0.23919 0.0
C3146 C 0.5993 0.71174 0.25767 0.0
C3147 C 0.59598 0.69343 0.26748 0.0
C3148 C 0.61273 0.72613 0.26923 0.0
C3149 C 0.58054 0.71853 0.25228 0.0
C3150 C 0.57806 0.71966 0.23367 0.0
C3151 C 0.56198 0.72571 0.2254 0.0
C3152 C 0.54812 0.7308 0.23636 0.0
C3153 C 0.55024 0.72992 0.25553 0.0
C3154 C 0.56677 0.72356 0.2635 0.0
H3155 H 0.31469 0.64102 0.16765 0.0
H3156 H 0.31652 0.67768 0.21394 0.0
H3157 H 0.29956 0.65266 0.23131 0.0
H3158 H 0.26817 0.61463 0.17369 0.0
H3159 H 0.27536 0.59326 0.1672 0.0
H3160 H 0.28643 0.61431 0.15795 0.0
H3161 H 0.31964 0.60707 0.16953 0.0
H3162 H 0.30869 0.58596 0.1787 0.0
H3163 H 0.32403 0.6023 0.19318 0.0
H3164 H 0.28296 0.62382 0.24365 0.0
H3165 H 0.27035 0.59229 0.2514 0.0
H3166 H 0.28072 0.57373 0.19762 0.0
C3167 C 0.3113 0.64376 0.18139 0.0
C3168 C 0.31675 0.66123 0.1895 0.0
C3169 C 0.31246 0.66433 0.20757 0.0
C3170 C 0.30275 0.65027 0.21746 0.0
C3171 C 0.29757 0.63318 0.20908 0.0
C3172 C 0.30185 0.6298 0.19153 0.0
C3173 C 0.2958 0.60989 0.18617 0.0
C3174 C 0.28053 0.60791 0.17032 0.0
C3175 C 0.31307 0.60077 0.18163 0.0
C3176 C 0.2876 0.60257 0.20352 0.0
C3177 C 0.28854 0.61631 0.21644 0.0
C3178 C 0.28221 0.61293 0.23367 0.0
C3179 C 0.27517 0.59494 0.23797 0.0
C3180 C 0.27473 0.58045 0.22521 0.0
C3181 C 0.28068 0.58446 0.20762 0.0
H3182 H 0.4125 0.33618 0.22146 0.0
H3183 H 0.42766 0.38048 0.26068 0.0
H3184 H 0.45017 0.36276 0.27712 0.0
H3185 H 0.41559 0.29873 0.25362 0.0
H3186 H 0.42532 0.28492 0.23745 0.0
H3187 H 0.40956 0.30066 0.22972 0.0
H3188 H 0.43513 0.31585 0.20904 0.0
H3189 H 0.45103 0.30028 0.21682 0.0
H3190 H 0.45857 0.32457 0.21885 0.0
H3191 H 0.47322 0.34073 0.2879 0.0
H3192 H 0.49274 0.31576 0.29296 0.0
H3193 H 0.46186 0.28594 0.2469 0.0
C3194 C 0.42031 0.34196 0.23371 0.0
C3195 C 0.41833 0.35969 0.23981 0.0
C3196 C 0.42892 0.3669 0.2558 0.0
C3197 C 0.44179 0.35694 0.26519 0.0
C3198 C 0.44383 0.33968 0.25854 0.0
C3199 C 0.43318 0.33218 0.24327 0.0
C3200 C 0.43835 0.31361 0.23859 0.0
C3201 C 0.42118 0.29859 0.23993 0.0
C3202 C 0.44624 0.31359 0.21971 0.0
C3203 C 0.45373 0.31193 0.25342 0.0
C3204 C 0.45676 0.32707 0.26483 0.0
C3205 C 0.4708 0.32873 0.27913 0.0
C3206 C 0.48188 0.31451 0.28189 0.0
C3207 C 0.47884 0.29879 0.27044 0.0
C3208 C 0.46452 0.29764 0.25606 0.0
H3209 H 0.68079 0.41321 0.19245 0.0
H3210 H 0.6643 0.37537 0.23517 0.0
H3211 H 0.6745 0.39986 0.25801 0.0
H3212 H 0.72321 0.43412 0.2156 0.0
H3213 H 0.72151 0.45653 0.20682 0.0
H3214 H 0.7108 0.43657 0.19392 0.0
H3215 H 0.67832 0.44869 0.19269 0.0
H3216 H 0.68893 0.46861 0.20581 0.0
H3217 H 0.66843 0.45427 0.2135 0.0
H3218 H 0.68854 0.42823 0.27648 0.0
H3219 H 0.7077 0.45688 0.28868 0.0
H3220 H 0.7159 0.47528 0.23383 0.0
C3221 C 0.67929 0.41 0.20659 0.0
C3222 C 0.67155 0.39233 0.21191 0.0
C3223 C 0.66978 0.38887 0.23063 0.0
C3224 C 0.67558 0.4027 0.24375 0.0
C3225 C 0.68318 0.41994 0.238 0.0
C3226 C 0.68515 0.42356 0.21985 0.0
C3227 C 0.69511 0.44274 0.21723 0.0
C3228 C 0.71376 0.44246 0.20785 0.0
C3229 C 0.68191 0.45426 0.20669 0.0
C3230 C 0.69887 0.4492 0.23676 0.0
C3231 C 0.69159 0.43603 0.24857 0.0
C3232 C 0.69414 0.43871 0.26734 0.0
C3233 C 0.70493 0.45505 0.27416 0.0
C3234 C 0.71321 0.46828 0.2622 0.0
C3235 C 0.70965 0.46544 0.24331 0.0
H3236 H 0.64359 0.37342 0.86179 0.0
H3237 H 0.66481 0.40229 0.81475 0.0
H3238 H 0.63602 0.38821 0.79626 0.0
H3239 H 0.62639 0.33207 0.83933 0.0
H3240 H 0.60597 0.32691 0.85258 0.0
H3241 H 0.62709 0.34085 0.8622 0.0
H3242 H 0.60731 0.36656 0.86923 0.0
H3243 H 0.58609 0.35267 0.85962 0.0
H3244 H 0.59304 0.37528 0.85121 0.0
H3245 H 0.60554 0.36852 0.78247 0.0
H3246 H 0.57709 0.34545 0.77502 0.0
H3247 H 0.57715 0.32967 0.83139 0.0
C3248 C 0.64219 0.37689 0.84761 0.0
C3249 C 0.65652 0.3889 0.8397 0.0
C3250 C 0.65395 0.39325 0.82115 0.0
C3251 C 0.63767 0.38526 0.81054 0.0
C3252 C 0.62404 0.37309 0.81873 0.0
C3253 C 0.62617 0.36905 0.8369 0.0
C3254 C 0.6102 0.35488 0.84242 0.0
C3255 C 0.61787 0.33766 0.84954 0.0
C3256 C 0.59846 0.36283 0.85645 0.0
C3257 C 0.5989 0.35117 0.82444 0.0
C3258 C 0.60689 0.36189 0.81091 0.0
C3259 C 0.59911 0.36021 0.79303 0.0
C3260 C 0.58294 0.34709 0.78891 0.0
C3261 C 0.57488 0.33575 0.80261 0.0
C3262 C 0.58291 0.33811 0.82059 0.0
H3263 H 0.72729 0.67923 0.85749 0.0
H3264 H 0.67373 0.67096 0.82519 0.0
H3265 H 0.68309 0.64352 0.81068 0.0
H3266 H 0.75583 0.66758 0.82333 0.0
H3267 H 0.77134 0.65634 0.83825 0.0
H3268 H 0.75963 0.67424 0.84693 0.0
H3269 H 0.74492 0.65244 0.8712 0.0
H3270 H 0.75671 0.63449 0.86266 0.0
H3271 H 0.73128 0.63079 0.86421 0.0
H3272 H 0.70007 0.61774 0.79804 0.0
H3273 H 0.72209 0.59619 0.78987 0.0
H3274 H 0.76396 0.62204 0.83086 0.0
C3275 C 0.71742 0.67146 0.84756 0.0
C3276 C 0.69982 0.67725 0.84239 0.0
C3277 C 0.6873 0.66676 0.82932 0.0
C3278 C 0.69253 0.65118 0.82099 0.0
C3279 C 0.71029 0.64614 0.826 0.0
C3280 C 0.72244 0.65594 0.83914 0.0
C3281 C 0.74096 0.6482 0.84177 0.0
C3282 C 0.75793 0.66244 0.8373 0.0
C3283 C 0.74362 0.64105 0.86111 0.0
C3284 C 0.73753 0.63268 0.82792 0.0
C3285 C 0.71979 0.63156 0.81892 0.0
C3286 C 0.71393 0.61846 0.80516 0.0
C3287 C 0.72653 0.60627 0.80056 0.0
C3288 C 0.74478 0.60727 0.80969 0.0
C3289 C 0.75012 0.6207 0.82357 0.0
H3290 H 0.41549 0.72148 0.89102 0.0
H3291 H 0.40328 0.67791 0.85069 0.0
H3292 H 0.42728 0.69438 0.8315 0.0
H3293 H 0.42095 0.75793 0.8602 0.0
H3294 H 0.43994 0.77151 0.87369 0.0
H3295 H 0.42265 0.75576 0.8845 0.0
H3296 H 0.44967 0.73998 0.89975 0.0
H3297 H 0.46706 0.75573 0.88903 0.0
H3298 H 0.46652 0.73147 0.8859 0.0
H3299 H 0.45187 0.71649 0.8163 0.0
H3300 H 0.47493 0.74228 0.80645 0.0
H3301 H 0.47069 0.77096 0.85712 0.0
C3302 C 0.41816 0.7153 0.87829 0.0
C3303 C 0.40798 0.69828 0.87244 0.0
C3304 C 0.41133 0.69079 0.85549 0.0
C3305 C 0.42485 0.70005 0.84453 0.0
C3306 C 0.43476 0.71681 0.85073 0.0
C3307 C 0.43159 0.72433 0.86724 0.0
C3308 C 0.4436 0.74277 0.87056 0.0
C3309 C 0.43103 0.75788 0.87234 0.0
C3310 C 0.45754 0.74246 0.8873 0.0
C3311 C 0.45393 0.74455 0.8533 0.0
C3312 C 0.44872 0.72947 0.84201 0.0
C3313 C 0.45614 0.72833 0.82509 0.0
C3314 C 0.4692 0.74303 0.8196 0.0
C3315 C 0.47466 0.75861 0.83101 0.0
C3316 C 0.46692 0.75923 0.84808 0.0
H3317 H 0.33759 0.41016 0.83746 0.0
H3318 H 0.33203 0.42733 0.89287 0.0
H3319 H 0.31992 0.45504 0.88173 0.0
H3320 H 0.35288 0.45571 0.82031 0.0
H3321 H 0.33973 0.4513 0.79869 0.0
H3322 H 0.34832 0.43283 0.81091 0.0
H3323 H 0.3141 0.41514 0.80968 0.0
H3324 H 0.30541 0.43357 0.79748 0.0
H3325 H 0.29525 0.42591 0.81828 0.0
H3326 H 0.3079 0.48087 0.86475 0.0
H3327 H 0.29687 0.5029 0.84316 0.0
H3328 H 0.30983 0.46952 0.79838 0.0
C3329 C 0.334 0.41983 0.84726 0.0
C3330 C 0.33569 0.41634 0.86613 0.0
C3331 C 0.33061 0.42938 0.87839 0.0
C3332 C 0.32381 0.44529 0.87219 0.0
C3333 C 0.32211 0.44819 0.85359 0.0
C3334 C 0.32708 0.43586 0.84127 0.0
C3335 C 0.32353 0.44224 0.82197 0.0
C3336 C 0.34223 0.44573 0.81241 0.0
C3337 C 0.30869 0.42839 0.81122 0.0
C3338 C 0.31578 0.46001 0.82539 0.0
C3339 C 0.31513 0.46315 0.84375 0.0
C3340 C 0.30833 0.47852 0.85034 0.0
C3341 C 0.30196 0.49095 0.8379 0.0
C3342 C 0.30231 0.4881 0.81893 0.0
C3343 C 0.30947 0.47235 0.81271 0.0
H3344 H 0.67058 0.61202 0.23518 0.0
H3345 H 0.71497 0.65299 0.21728 0.0
H3346 H 0.73912 0.63328 0.22672 0.0
H3347 H 0.69802 0.5969 0.27473 0.0
H3348 H 0.68776 0.57328 0.27148 0.0
H3349 H 0.67425 0.5911 0.2644 0.0
H3350 H 0.66937 0.57705 0.23197 0.0
H3351 H 0.68295 0.55927 0.23892 0.0
H3352 H 0.68983 0.57342 0.22003 0.0
H3353 H 0.75829 0.60816 0.23665 0.0
H3354 H 0.77099 0.58034 0.24675 0.0
H3355 H 0.7142 0.55534 0.25832 0.0
C3356 C 0.68544 0.61701 0.23362 0.0
C3357 C 0.69093 0.63432 0.22588 0.0
C3358 C 0.71047 0.64004 0.22355 0.0
C3359 C 0.72427 0.62887 0.2288 0.0
C3360 C 0.71836 0.61188 0.23632 0.0
C3361 C 0.6994 0.60601 0.23882 0.0
C3362 C 0.69674 0.58689 0.24663 0.0
C3363 C 0.68872 0.58706 0.26543 0.0
C3364 C 0.68396 0.57336 0.23361 0.0
C3365 C 0.71712 0.58281 0.24798 0.0
C3366 C 0.72936 0.59742 0.24196 0.0
C3367 C 0.74879 0.5967 0.24143 0.0
C3368 C 0.75588 0.58072 0.2471 0.0
C3369 C 0.74369 0.56547 0.25333 0.0
C3370 C 0.72401 0.56672 0.25385 0.0
H3371 H 0.70977 0.44022 0.83111 0.0
H3372 H 0.71093 0.44437 0.8897 0.0
H3373 H 0.73042 0.47481 0.88896 0.0
H3374 H 0.75735 0.46036 0.8271 0.0
H3375 H 0.75254 0.47234 0.80657 0.0
H3376 H 0.73754 0.45149 0.81155 0.0
H3377 H 0.70783 0.46809 0.80876 0.0
H3378 H 0.72272 0.48895 0.80353 0.0
H3379 H 0.70749 0.48851 0.82211 0.0
H3380 H 0.7513 0.50423 0.88183 0.0
H3381 H 0.7702 0.53106 0.86857 0.0
H3382 H 0.75583 0.50699 0.81489 0.0
C3383 C 0.71377 0.44774 0.84373 0.0
C3384 C 0.70881 0.44001 0.86046 0.0
C3385 C 0.71465 0.45007 0.87674 0.0
C3386 C 0.72571 0.46735 0.87646 0.0
C3387 C 0.73082 0.47438 0.85977 0.0
C3388 C 0.72492 0.46495 0.8437 0.0
C3389 C 0.73287 0.47526 0.82764 0.0
C3390 C 0.74585 0.4642 0.81763 0.0
C3391 C 0.71677 0.48052 0.81475 0.0
C3392 C 0.74419 0.49189 0.83719 0.0
C3393 C 0.74288 0.49117 0.85572 0.0
C3394 C 0.75237 0.50498 0.86731 0.0
C3395 C 0.76319 0.52009 0.8597 0.0
C3396 C 0.76438 0.52124 0.8407 0.0
C3397 C 0.75493 0.50676 0.82943 0.0
H3398 H 0.64346 0.73827 0.85003 0.0
H3399 H 0.63921 0.7418 0.90828 0.0
H3400 H 0.61203 0.75856 0.90347 0.0
H3401 H 0.63081 0.78208 0.83912 0.0
H3402 H 0.6166 0.77457 0.81866 0.0
H3403 H 0.63594 0.76271 0.82639 0.0
H3404 H 0.61284 0.7323 0.82633 0.0
H3405 H 0.59343 0.74405 0.81853 0.0
H3406 H 0.59183 0.73087 0.83892 0.0
H3407 H 0.58643 0.77648 0.89284 0.0
H3408 H 0.56226 0.79237 0.87673 0.0
H3409 H 0.58054 0.7757 0.8252 0.0
C3410 C 0.63671 0.74236 0.86179 0.0
C3411 C 0.64399 0.73893 0.87961 0.0
C3412 C 0.63455 0.74467 0.89451 0.0
C3413 C 0.61888 0.7541 0.89193 0.0
C3414 C 0.61238 0.75755 0.87432 0.0
C3415 C 0.62077 0.75166 0.85946 0.0
C3416 C 0.61065 0.75707 0.84197 0.0
C3417 C 0.62431 0.76987 0.83088 0.0
C3418 C 0.60165 0.74006 0.83078 0.0
C3419 C 0.59545 0.76707 0.84938 0.0
C3420 C 0.59687 0.76725 0.86811 0.0
C3421 C 0.58506 0.77628 0.87818 0.0
C3422 C 0.57143 0.78535 0.86892 0.0
C3423 C 0.56944 0.78522 0.84975 0.0
C3424 C 0.58157 0.77581 0.83987 0.0
H3425 H 0.32202 0.65941 0.85237 0.0
H3426 H 0.30741 0.64324 0.90651 0.0
H3427 H 0.28815 0.61481 0.89374 0.0
H3428 H 0.27702 0.63979 0.82808 0.0
H3429 H 0.28903 0.6329 0.80902 0.0
H3430 H 0.29917 0.65283 0.82235 0.0
H3431 H 0.33058 0.63917 0.82799 0.0
H3432 H 0.32056 0.61924 0.81474 0.0
H3433 H 0.32987 0.61682 0.83771 0.0
H3434 H 0.27264 0.58651 0.87448 0.0
H3435 H 0.26378 0.56166 0.85128 0.0
H3436 H 0.29047 0.59698 0.8109 0.0
C3437 C 0.31468 0.64998 0.86159 0.0
C3438 C 0.31633 0.65346 0.88045 0.0
C3439 C 0.30624 0.64088 0.89199 0.0
C3440 C 0.2953 0.6247 0.88485 0.0
C3441 C 0.29452 0.62144 0.86616 0.0
C3442 C 0.30392 0.63387 0.85475 0.0
C3443 C 0.30226 0.62685 0.83543 0.0
C3444 C 0.29121 0.6388 0.82299 0.0
C3445 C 0.32198 0.62543 0.82858 0.0
C3446 C 0.29092 0.60825 0.83772 0.0
C3447 C 0.2862 0.60536 0.8554 0.0
C3448 C 0.27617 0.58874 0.86058 0.0
C3449 C 0.27117 0.57473 0.84737 0.0
C3450 C 0.27659 0.57742 0.8294 0.0
C3451 C 0.28627 0.59449 0.82458 0.0
H3452 H 0.39266 0.32359 0.85239 0.0
H3453 H 0.41093 0.38144 0.84577 0.0
H3454 H 0.44188 0.3747 0.83587 0.0
H3455 H 0.43896 0.31179 0.86899 0.0
H3456 H 0.43539 0.29017 0.85695 0.0
H3457 H 0.41524 0.29971 0.8644 0.0
H3458 H 0.40013 0.29766 0.8315 0.0
H3459 H 0.42026 0.28821 0.82395 0.0
H3460 H 0.41344 0.30848 0.81361 0.0
H3461 H 0.47047 0.36125 0.82517 0.0
H3462 H 0.49429 0.34264 0.81549 0.0
H3463 H 0.45742 0.29337 0.82901 0.0
C3464 C 0.40333 0.33488 0.84921 0.0
C3465 C 0.3995 0.35315 0.85029 0.0
C3466 C 0.41367 0.36743 0.84546 0.0
C3467 C 0.43126 0.36369 0.83973 0.0
C3468 C 0.43454 0.34553 0.83878 0.0
C3469 C 0.42097 0.33136 0.84348 0.0
C3470 C 0.42779 0.31302 0.84075 0.0
C3471 C 0.42944 0.30309 0.85885 0.0
C3472 C 0.41462 0.30115 0.82661 0.0
C3473 C 0.44727 0.31902 0.8337 0.0
C3474 C 0.45089 0.33783 0.83262 0.0
C3475 C 0.46775 0.34652 0.82604 0.0
C3476 C 0.48121 0.33579 0.82045 0.0
C3477 C 0.47792 0.31645 0.82144 0.0
C3478 C 0.46063 0.30807 0.82826 0.0
H3479 H 0.33935 0.40437 0.24549 0.0
H3480 H 0.35072 0.42713 0.19279 0.0
H3481 H 0.33958 0.45576 0.20215 0.0
H3482 H 0.29614 0.42347 0.25001 0.0
H3483 H 0.30032 0.42751 0.27409 0.0
H3484 H 0.30997 0.40924 0.26344 0.0
H3485 H 0.34371 0.42271 0.27666 0.0
H3486 H 0.33417 0.4411 0.28724 0.0
H3487 H 0.35305 0.44607 0.27212 0.0
H3488 H 0.32729 0.48238 0.21765 0.0
H3489 H 0.312 0.50307 0.23652 0.0
H3490 H 0.30745 0.46253 0.2787 0.0
C3491 C 0.33961 0.41543 0.23595 0.0
C3492 C 0.34602 0.41346 0.21838 0.0
C3493 C 0.3458 0.4282 0.20626 0.0
C3494 C 0.33961 0.4446 0.21152 0.0
C3495 C 0.33346 0.44611 0.22895 0.0
C3496 C 0.3332 0.43181 0.2409 0.0
C3497 C 0.32503 0.43656 0.25852 0.0
C3498 C 0.30678 0.42341 0.26169 0.0
C3499 C 0.33988 0.43661 0.27458 0.0
C3500 C 0.32071 0.45574 0.25464 0.0
C3501 C 0.3259 0.46111 0.2376 0.0
C3502 C 0.32318 0.47826 0.23101 0.0
C3503 C 0.31457 0.49002 0.24191 0.0
C3504 C 0.30852 0.48458 0.2592 0.0
C3505 C 0.31194 0.46724 0.26563 0.0
H3506 H 0.63584 0.33272 0.21884 0.0
H3507 H 0.61421 0.33627 0.16297 0.0
H3508 H 0.58666 0.31299 0.16866 0.0
H3509 H 0.62112 0.28388 0.22358 0.0
H3510 H 0.61505 0.28632 0.24667 0.0
H3511 H 0.63356 0.3023 0.23774 0.0
H3512 H 0.61606 0.32918 0.24647 0.0
H3513 H 0.59756 0.31331 0.25547 0.0
H3514 H 0.59163 0.32909 0.2383 0.0
H3515 H 0.56037 0.29067 0.1813 0.0
H3516 H 0.53755 0.27184 0.19986 0.0
H3517 H 0.57726 0.28282 0.247 0.0
C3518 C 0.62531 0.32861 0.20779 0.0
C3519 C 0.62709 0.33632 0.19049 0.0
C3520 C 0.61315 0.33041 0.17631 0.0
C3521 C 0.59748 0.31723 0.17942 0.0
C3522 C 0.59609 0.31001 0.19672 0.0
C3523 C 0.6097 0.31547 0.21064 0.0
C3524 C 0.60467 0.30619 0.22816 0.0
C3525 C 0.61948 0.29395 0.2344 0.0
C3526 C 0.60233 0.32028 0.24296 0.0
C3527 C 0.58585 0.29497 0.22208 0.0
C3528 C 0.58117 0.29718 0.20389 0.0
C3529 C 0.56399 0.28869 0.19552 0.0
C3530 C 0.55117 0.27795 0.20613 0.0
C3531 C 0.55558 0.27592 0.2249 0.0
C3532 C 0.57335 0.28426 0.23276 0.0
H3533 H 0.3828 0.68774 0.19659 0.0
H3534 H 0.36565 0.73771 0.17494 0.0
H3535 H 0.39523 0.75525 0.18887 0.0
H3536 H 0.40078 0.70667 0.23923 0.0
H3537 H 0.42005 0.69332 0.24151 0.0
H3538 H 0.39855 0.68457 0.22821 0.0
H3539 H 0.41822 0.68046 0.20056 0.0
H3540 H 0.4398 0.68928 0.21378 0.0
H3541 H 0.43382 0.69973 0.19263 0.0
H3542 H 0.426 0.76766 0.20691 0.0
H3543 H 0.45437 0.7738 0.22846 0.0
H3544 H 0.45037 0.7158 0.23901 0.0
C3545 C 0.3852 0.70237 0.19473 0.0
C3546 C 0.37183 0.71127 0.18454 0.0
C3547 C 0.37576 0.73045 0.18236 0.0
C3548 C 0.39252 0.74058 0.1903 0.0
C3549 C 0.40524 0.73136 0.20041 0.0
C3550 C 0.40173 0.71268 0.20266 0.0
C3551 C 0.41704 0.70615 0.21506 0.0
C3552 C 0.4086 0.69715 0.232 0.0
C3553 C 0.42786 0.69314 0.20489 0.0
C3554 C 0.42953 0.72411 0.21974 0.0
C3555 C 0.42267 0.7385 0.211 0.0
C3556 C 0.43157 0.75647 0.21373 0.0
C3557 C 0.4477 0.75983 0.22596 0.0
C3558 C 0.45461 0.7453 0.23542 0.0
C3559 C 0.44551 0.72722 0.23197 0.0
loop_
_geom_bond_atom_site_label_1
_geom_bond_atom_site_label_2
_geom_bond_distance
_geom_bond_site_symmetry_2
_ccdc_geom_bond_type
H0 C7 0.929 . S
H1 C10 0.930 . S
H2 C12 0.929 . S
H3 C4 0.969 . S
C4 H3 0.969 . S
C4 O5 1.550 . S
C4 H6 0.973 . S
O5 C4 1.550 . S
O5 C11 1.412 . S
H6 C4 0.973 . S
C7 H0 0.929 . S
C7 C8 1.400 . S
C7 C9 1.364 . S
C8 C7 1.400 . S
C8 C12 1.377 . S
C9 C7 1.364 . S
C9 C10 1.374 . S
C10 H1 0.930 . S
C10 C9 1.374 . S
C10 C11 1.383 . S
C11 O5 1.412 . S
C11 C10 1.383 . S
C11 C12 1.394 . S
C12 H2 0.929 . S
C12 C8 1.377 . S
C12 C11 1.394 . S
H13 C20 0.929 . S
H14 C23 0.930 . S
H15 C25 0.929 . S
H16 C17 0.969 . S
C17 H16 0.969 . S
C17 O18 1.550 . S
C17 H19 0.973 . S
O18 C17 1.550 . S
O18 C24 1.412 . S
H19 C17 0.973 . S
C20 H13 0.929 . S
C20 C21 1.400 . S
C20 C22 1.364 . S
C21 C20 1.400 . S
C21 C25 1.377 . S
C22 C20 1.364 . S
C22 C23 1.374 . S
C23 H14 0.930 . S
C23 C22 1.374 . S
C23 C24 1.383 . S
C24 O18 1.412 . S
C24 C23 1.383 . S
C24 C25 1.394 . S
C25 H15 0.929 . S
C25 C21 1.377 . S
C25 C24 1.394 . S
H26 C33 0.929 . S
H27 C36 0.930 . S
H28 C38 0.929 . S
H29 C30 0.969 . S
C30 H29 0.969 . S
C30 O31 1.550 . S
C30 H32 0.973 . S
O31 C30 1.550 . S
O31 C37 1.412 . S
H32 C30 0.973 . S
C33 H26 0.929 . S
C33 C34 1.400 . S
C33 C35 1.364 . S
C34 C33 1.400 . S
C34 C38 1.377 . S
C35 C33 1.364 . S
C35 C36 1.374 . S
C36 H27 0.930 . S
C36 C35 1.374 . S
C36 C37 1.383 . S
C37 O31 1.412 . S
C37 C36 1.383 . S
C37 C38 1.394 . S
C38 H28 0.929 . S
C38 C34 1.377 . S
C38 C37 1.394 . S
H39 C46 0.929 . S
H40 C49 0.930 . S
H41 C51 0.929 . S
H42 C43 0.969 . S
C43 H42 0.969 . S
C43 O44 1.550 . S
C43 H45 0.973 . S
O44 C43 1.550 . S
O44 C50 1.412 . S
H45 C43 0.973 . S
C46 H39 0.929 . S
C46 C47 1.400 . S
C46 C48 1.364 . S
C47 C46 1.400 . S
C47 C51 1.377 . S
C48 C46 1.364 . S
C48 C49 1.374 . S
C49 H40 0.930 . S
C49 C48 1.374 . S
C49 C50 1.383 . S
C50 O44 1.412 . S
C50 C49 1.383 . S
C50 C51 1.394 . S
C51 H41 0.929 . S
C51 C47 1.377 . S
C51 C50 1.394 . S
H52 C59 0.929 . S
H53 C62 0.930 . S
H54 C64 0.929 . S
H55 C56 0.969 . S
C56 H55 0.969 . S
C56 O57 1.550 . S
C56 H58 0.973 . S
O57 C56 1.550 . S
O57 C63 1.412 . S
H58 C56 0.973 . S
C59 H52 0.929 . S
C59 C60 1.400 . S
C59 C61 1.364 . S
C60 C59 1.400 . S
C60 C64 1.377 . S
C61 C59 1.364 . S
C61 C62 1.374 . S
C62 H53 0.930 . S
C62 C61 1.374 . S
C62 C63 1.383 . S
C63 O57 1.412 . S
C63 C62 1.383 . S
C63 C64 1.394 . S
C64 H54 0.929 . S
C64 C60 1.377 . S
C64 C63 1.394 . S
H65 C72 0.929 . S
H66 C75 0.930 . S
H67 C77 0.929 . S
H68 C69 0.969 . S
C69 H68 0.969 . S
C69 O70 1.550 . S
C69 H71 0.973 . S
O70 C69 1.550 . S
O70 C76 1.412 . S
H71 C69 0.973 . S
C72 H65 0.929 . S
C72 C73 1.400 . S
C72 C74 1.364 . S
C73 C72 1.400 . S
C73 C77 1.377 . S
C74 C72 1.364 . S
C74 C75 1.374 . S
C75 H66 0.930 . S
C75 C74 1.374 . S
C75 C76 1.383 . S
C76 O70 1.412 . S
C76 C75 1.383 . S
C76 C77 1.394 . S
C77 H67 0.929 . S
C77 C73 1.377 . S
C77 C76 1.394 . S
H78 C85 0.929 . S
H79 C88 0.930 . S
H80 C90 0.929 . S
H81 C82 0.969 . S
C82 H81 0.969 . S
C82 O83 1.550 . S
C82 H84 0.973 . S
O83 C82 1.550 . S
O83 C89 1.412 . S
H84 C82 0.973 . S
C85 H78 0.929 . S
C85 C86 1.400 . S
C85 C87 1.364 . S
C86 C85 1.400 . S
C86 C90 1.377 . S
C87 C85 1.364 . S
C87 C88 1.374 . S
C88 H79 0.930 . S
C88 C87 1.374 . S
C88 C89 1.383 . S
C89 O83 1.412 . S
C89 C88 1.383 . S
C89 C90 1.394 . S
C90 H80 0.929 . S
C90 C86 1.377 . S
C90 C89 1.394 . S
H91 C98 0.929 . S
H92 C101 0.930 . S
H93 C103 0.929 . S
H94 C95 0.969 . S
C95 H94 0.969 . S
C95 O96 1.550 . S
C95 H97 0.973 . S
O96 C95 1.550 . S
O96 C102 1.412 . S
H97 C95 0.973 . S
C98 H91 0.929 . S
C98 C99 1.400 . S
C98 C100 1.364 . S
C99 C98 1.400 . S
C99 C103 1.377 . S
C100 C98 1.364 . S
C100 C101 1.374 . S
C101 H92 0.930 . S
C101 C100 1.374 . S
C101 C102 1.383 . S
C102 O96 1.412 . S
C102 C101 1.383 . S
C102 C103 1.394 . S
C103 H93 0.929 . S
C103 C99 1.377 . S
C103 C102 1.394 . S
H104 C111 0.929 . S
H105 C114 0.930 . S
H106 C116 0.929 . S
H107 C108 0.969 . S
C108 H107 0.969 . S
C108 O109 1.550 . S
C108 H110 0.973 . S
O109 C108 1.550 . S
O109 C115 1.412 . S
H110 C108 0.973 . S
C111 H104 0.929 . S
C111 C112 1.400 . S
C111 C113 1.364 . S
C112 C111 1.400 . S
C112 C116 1.377 . S
C113 C111 1.364 . S
C113 C114 1.374 . S
C114 H105 0.930 . S
C114 C113 1.374 . S
C114 C115 1.383 . S
C115 O109 1.412 . S
C115 C114 1.383 . S
C115 C116 1.394 . S
C116 H106 0.929 . S
C116 C112 1.377 . S
C116 C115 1.394 . S
H117 C124 0.929 . S
H118 C127 0.930 . S
H119 C129 0.929 . S
H120 C121 0.969 . S
C121 H120 0.969 . S
C121 O122 1.550 . S
C121 H123 0.973 . S
O122 C121 1.550 . S
O122 C128 1.412 . S
H123 C121 0.973 . S
C124 H117 0.929 . S
C124 C125 1.400 . S
C124 C126 1.364 . S
C125 C124 1.400 . S
C125 C129 1.377 . S
C126 C124 1.364 . S
C126 C127 1.374 . S
C127 H118 0.930 . S
C127 C126 1.374 . S
C127 C128 1.383 . S
C128 O122 1.412 . S
C128 C127 1.383 . S
C128 C129 1.394 . S
C129 H119 0.929 . S
C129 C125 1.377 . S
C129 C128 1.394 . S
H130 C137 0.929 . S
H131 C140 0.930 . S
H132 C142 0.929 . S
H133 C134 0.969 . S
C134 H133 0.969 . S
C134 O135 1.550 . S
C134 H136 0.973 . S
O135 C134 1.550 . S
O135 C141 1.412 . S
H136 C134 0.973 . S
C137 H130 0.929 . S
C137 C138 1.400 . S
C137 C139 1.364 . S
C138 C137 1.400 . S
C138 C142 1.377 . S
C139 C137 1.364 . S
C139 C140 1.374 . S
C140 H131 0.930 . S
C140 C139 1.374 . S
C140 C141 1.383 . S
C141 O135 1.412 . S
C141 C140 1.383 . S
C141 C142 1.394 . S
C142 H132 0.929 . S
C142 C138 1.377 . S
C142 C141 1.394 . S
H143 C150 0.929 . S
H144 C153 0.930 . S
H145 C155 0.929 . S
H146 C147 0.969 . S
C147 H146 0.969 . S
C147 O148 1.550 . S
C147 H149 0.973 . S
O148 C147 1.550 . S
O148 C154 1.412 . S
H149 C147 0.973 . S
C150 H143 0.929 . S
C150 C151 1.400 . S
C150 C152 1.364 . S
C151 C150 1.400 . S
C151 C155 1.377 . S
C152 C150 1.364 . S
C152 C153 1.374 . S
C153 H144 0.930 . S
C153 C152 1.374 . S
C153 C154 1.383 . S
C154 O148 1.412 . S
C154 C153 1.383 . S
C154 C155 1.394 . S
C155 H145 0.929 . S
C155 C151 1.377 . S
C155 C154 1.394 . S
H156 C163 0.929 . S
H157 C166 0.930 . S
H158 C168 0.929 . S
H159 C160 0.969 . S
C160 H159 0.969 . S
C160 O161 1.550 . S
C160 H162 0.973 . S
O161 C160 1.550 . S
O161 C167 1.412 . S
H162 C160 0.973 . S
C163 H156 0.929 . S
C163 C164 1.400 . S
C163 C165 1.364 . S
C164 C163 1.400 . S
C164 C168 1.377 . S
C165 C163 1.364 . S
C165 C166 1.374 . S
C166 H157 0.930 . S
C166 C165 1.374 . S
C166 C167 1.383 . S
C167 O161 1.412 . S
C167 C166 1.383 . S
C167 C168 1.394 . S
C168 H158 0.929 . S
C168 C164 1.377 . S
C168 C167 1.394 . S
H169 C176 0.929 . S
H170 C179 0.930 . S
H171 C181 0.929 . S
H172 C173 0.969 . S
C173 H172 0.969 . S
C173 O174 1.550 . S
C173 H175 0.973 . S
O174 C173 1.550 . S
O174 C180 1.412 . S
H175 C173 0.973 . S
C176 H169 0.929 . S
C176 C177 1.400 . S
C176 C178 1.364 . S
C177 C176 1.400 . S
C177 C181 1.377 . S
C178 C176 1.364 . S
C178 C179 1.374 . S
C179 H170 0.930 . S
C179 C178 1.374 . S
C179 C180 1.383 . S
C180 O174 1.412 . S
C180 C179 1.383 . S
C180 C181 1.394 . S
C181 H171 0.929 . S
C181 C177 1.377 . S
C181 C180 1.394 . S
H182 C189 0.929 . S
H183 C192 0.930 . S
H184 C194 0.929 . S
H185 C186 0.969 . S
C186 H185 0.969 . S
C186 O187 1.550 . S
C186 H188 0.973 . S
O187 C186 1.550 . S
O187 C193 1.412 . S
H188 C186 0.973 . S
C189 H182 0.929 . S
C189 C190 1.400 . S
C189 C191 1.364 . S
C190 C189 1.400 . S
C190 C194 1.377 . S
C191 C189 1.364 . S
C191 C192 1.374 . S
C192 H183 0.930 . S
C192 C191 1.374 . S
C192 C193 1.383 . S
C193 O187 1.412 . S
C193 C192 1.383 . S
C193 C194 1.394 . S
C194 H184 0.929 . S
C194 C190 1.377 . S
C194 C193 1.394 . S
H195 C202 0.929 . S
H196 C205 0.930 . S
H197 C207 0.929 . S
H198 C199 0.969 . S
C199 H198 0.969 . S
C199 O200 1.550 . S
C199 H201 0.973 . S
O200 C199 1.550 . S
O200 C206 1.412 . S
H201 C199 0.973 . S
C202 H195 0.929 . S
C202 C203 1.400 . S
C202 C204 1.364 . S
C203 C202 1.400 . S
C203 C207 1.377 . S
C204 C202 1.364 . S
C204 C205 1.374 . S
C205 H196 0.930 . S
C205 C204 1.374 . S
C205 C206 1.383 . S
C206 O200 1.412 . S
C206 C205 1.383 . S
C206 C207 1.394 . S
C207 H197 0.929 . S
C207 C203 1.377 . S
C207 C206 1.394 . S
H208 C215 0.929 . S
H209 C218 0.930 . S
H210 C220 0.929 . S
H211 C212 0.969 . S
C212 H211 0.969 . S
C212 O213 1.550 . S
C212 H214 0.973 . S
O213 C212 1.550 . S
O213 C219 1.412 . S
H214 C212 0.973 . S
C215 H208 0.929 . S
C215 C216 1.400 . S
C215 C217 1.364 . S
C216 C215 1.400 . S
C216 C220 1.377 . S
C217 C215 1.364 . S
C217 C218 1.374 . S
C218 H209 0.930 . S
C218 C217 1.374 . S
C218 C219 1.383 . S
C219 O213 1.412 . S
C219 C218 1.383 . S
C219 C220 1.394 . S
C220 H210 0.929 . S
C220 C216 1.377 . S
C220 C219 1.394 . S
H221 C228 0.929 . S
H222 C231 0.930 . S
H223 C233 0.929 . S
H224 C225 0.969 . S
C225 H224 0.969 . S
C225 O226 1.550 . S
C225 H227 0.973 . S
O226 C225 1.550 . S
O226 C232 1.412 . S
H227 C225 0.973 . S
C228 H221 0.929 . S
C228 C229 1.400 . S
C228 C230 1.364 . S
C229 C228 1.400 . S
C229 C233 1.377 . S
C230 C228 1.364 . S
C230 C231 1.374 . S
C231 H222 0.930 . S
C231 C230 1.374 . S
C231 C232 1.383 . S
C232 O226 1.412 . S
C232 C231 1.383 . S
C232 C233 1.394 . S
C233 H223 0.929 . S
C233 C229 1.377 . S
C233 C232 1.394 . S
H234 C241 0.929 . S
H235 C244 0.930 . S
H236 C246 0.929 . S
H237 C238 0.969 . S
C238 H237 0.969 . S
C238 O239 1.550 . S
C238 H240 0.973 . S
O239 C238 1.550 . S
O239 C245 1.412 . S
H240 C238 0.973 . S
C241 H234 0.929 . S
C241 C242 1.400 . S
C241 C243 1.364 . S
C242 C241 1.400 . S
C242 C246 1.377 . S
C243 C241 1.364 . S
C243 C244 1.374 . S
C244 H235 0.930 . S
C244 C243 1.374 . S
C244 C245 1.383 . S
C245 O239 1.412 . S
C245 C244 1.383 . S
C245 C246 1.394 . S
C246 H236 0.929 . S
C246 C242 1.377 . S
C246 C245 1.394 . S
H247 C254 0.929 . S
H248 C257 0.930 . S
H249 C259 0.929 . S
H250 C251 0.969 . S
C251 H250 0.969 . S
C251 O252 1.550 . S
C251 H253 0.973 . S
O252 C251 1.550 . S
O252 C258 1.412 . S
H253 C251 0.973 . S
C254 H247 0.929 . S
C254 C255 1.400 . S
C254 C256 1.364 . S
C255 C254 1.400 . S
C255 C259 1.377 . S
C256 C254 1.364 . S
C256 C257 1.374 . S
C257 H248 0.930 . S
C257 C256 1.374 . S
C257 C258 1.383 . S
C258 O252 1.412 . S
C258 C257 1.383 . S
C258 C259 1.394 . S
C259 H249 0.929 . S
C259 C255 1.377 . S
C259 C258 1.394 . S
H260 C267 0.929 . S
H261 C270 0.930 . S
H262 C272 0.929 . S
H263 C264 0.969 . S
C264 H263 0.969 . S
C264 O265 1.550 . S
C264 H266 0.973 . S
O265 C264 1.550 . S
O265 C271 1.412 . S
H266 C264 0.973 . S
C267 H260 0.929 . S
C267 C268 1.400 . S
C267 C269 1.364 . S
C268 C267 1.400 . S
C268 C272 1.377 . S
C269 C267 1.364 . S
C269 C270 1.374 . S
C270 H261 0.930 . S
C270 C269 1.374 . S
C270 C271 1.383 . S
C271 O265 1.412 . S
C271 C270 1.383 . S
C271 C272 1.394 . S
C272 H262 0.929 . S
C272 C268 1.377 . S
C272 C271 1.394 . S
H273 C280 0.929 . S
H274 C283 0.930 . S
H275 C285 0.929 . S
H276 C277 0.969 . S
C277 H276 0.969 . S
C277 O278 1.550 . S
C277 H279 0.973 . S
O278 C277 1.550 . S
O278 C284 1.412 . S
H279 C277 0.973 . S
C280 H273 0.929 . S
C280 C281 1.400 . S
C280 C282 1.364 . S
C281 C280 1.400 . S
C281 C285 1.377 . S
C282 C280 1.364 . S
C282 C283 1.374 . S
C283 H274 0.930 . S
C283 C282 1.374 . S
C283 C284 1.383 . S
C284 O278 1.412 . S
C284 C283 1.383 . S
C284 C285 1.394 . S
C285 H275 0.929 . S
C285 C281 1.377 . S
C285 C284 1.394 . S
H286 C293 0.929 . S
H287 C296 0.930 . S
H288 C298 0.929 . S
H289 C290 0.969 . S
C290 H289 0.969 . S
C290 O291 1.550 . S
C290 H292 0.973 . S
O291 C290 1.550 . S
O291 C297 1.412 . S
H292 C290 0.973 . S
C293 H286 0.929 . S
C293 C294 1.400 . S
C293 C295 1.364 . S
C294 C293 1.400 . S
C294 C298 1.377 . S
C295 C293 1.364 . S
C295 C296 1.374 . S
C296 H287 0.930 . S
C296 C295 1.374 . S
C296 C297 1.383 . S
C297 O291 1.412 . S
C297 C296 1.383 . S
C297 C298 1.394 . S
C298 H288 0.929 . S
C298 C294 1.377 . S
C298 C297 1.394 . S
H299 C306 0.929 . S
H300 C309 0.930 . S
H301 C311 0.929 . S
H302 C303 0.969 . S
C303 H302 0.969 . S
C303 O304 1.550 . S
C303 H305 0.973 . S
O304 C303 1.550 . S
O304 C310 1.412 . S
H305 C303 0.973 . S
C306 H299 0.929 . S
C306 C307 1.400 . S
C306 C308 1.364 . S
C307 C306 1.400 . S
C307 C311 1.377 . S
C308 C306 1.364 . S
C308 C309 1.374 . S
C309 H300 0.930 . S
C309 C308 1.374 . S
C309 C310 1.383 . S
C310 O304 1.412 . S
C310 C309 1.383 . S
C310 C311 1.394 . S
C311 H301 0.929 . S
C311 C307 1.377 . S
C311 C310 1.394 . S
H312 C319 0.929 . S
H313 C322 0.930 . S
H314 C324 0.929 . S
H315 C316 0.969 . S
C316 H315 0.969 . S
C316 O317 1.550 . S
C316 H318 0.973 . S
O317 C316 1.550 . S
O317 C323 1.412 . S
H318 C316 0.973 . S
C319 H312 0.929 . S
C319 C320 1.400 . S
C319 C321 1.364 . S
C320 C319 1.400 . S
C320 C324 1.377 . S
C321 C319 1.364 . S
C321 C322 1.374 . S
C322 H313 0.930 . S
C322 C321 1.374 . S
C322 C323 1.383 . S
C323 O317 1.412 . S
C323 C322 1.383 . S
C323 C324 1.394 . S
C324 H314 0.929 . S
C324 C320 1.377 . S
C324 C323 1.394 . S
H325 C332 0.929 . S
H326 C335 0.930 . S
H327 C337 0.929 . S
H328 C329 0.969 . S
C329 H328 0.969 . S
C329 O330 1.550 . S
C329 H331 0.973 . S
O330 C329 1.550 . S
O330 C336 1.412 . S
H331 C329 0.973 . S
C332 H325 0.929 . S
C332 C333 1.400 . S
C332 C334 1.364 . S
C333 C332 1.400 . S
C333 C337 1.377 . S
C334 C332 1.364 . S
C334 C335 1.374 . S
C335 H326 0.930 . S
C335 C334 1.374 . S
C335 C336 1.383 . S
C336 O330 1.412 . S
C336 C335 1.383 . S
C336 C337 1.394 . S
C337 H327 0.929 . S
C337 C333 1.377 . S
C337 C336 1.394 . S
H338 C345 0.929 . S
H339 C348 0.930 . S
H340 C350 0.929 . S
H341 C342 0.969 . S
C342 H341 0.969 . S
C342 O343 1.550 . S
C342 H344 0.973 . S
O343 C342 1.550 . S
O343 C349 1.412 . S
H344 C342 0.973 . S
C345 H338 0.929 . S
C345 C346 1.400 . S
C345 C347 1.364 . S
C346 C345 1.400 . S
C346 C350 1.377 . S
C347 C345 1.364 . S
C347 C348 1.374 . S
C348 H339 0.930 . S
C348 C347 1.374 . S
C348 C349 1.383 . S
C349 O343 1.412 . S
C349 C348 1.383 . S
C349 C350 1.394 . S
C350 H340 0.929 . S
C350 C346 1.377 . S
C350 C349 1.394 . S
H351 C358 0.929 . S
H352 C361 0.930 . S
H353 C363 0.929 . S
H354 C355 0.969 . S
C355 H354 0.969 . S
C355 O356 1.550 . S
C355 H357 0.973 . S
O356 C355 1.550 . S
O356 C362 1.412 . S
H357 C355 0.973 . S
C358 H351 0.929 . S
C358 C359 1.400 . S
C358 C360 1.364 . S
C359 C358 1.400 . S
C359 C363 1.377 . S
C360 C358 1.364 . S
C360 C361 1.374 . S
C361 H352 0.930 . S
C361 C360 1.374 . S
C361 C362 1.383 . S
C362 O356 1.412 . S
C362 C361 1.383 . S
C362 C363 1.394 . S
C363 H353 0.929 . S
C363 C359 1.377 . S
C363 C362 1.394 . S
H364 C371 0.929 . S
H365 C374 0.930 . S
H366 C376 0.929 . S
H367 C368 0.969 . S
C368 H367 0.969 . S
C368 O369 1.550 . S
C368 H370 0.973 . S
O369 C368 1.550 . S
O369 C375 1.412 . S
H370 C368 0.973 . S
C371 H364 0.929 . S
C371 C372 1.400 . S
C371 C373 1.364 . S
C372 C371 1.400 . S
C372 C376 1.377 . S
C373 C371 1.364 . S
C373 C374 1.374 . S
C374 H365 0.930 . S
C374 C373 1.374 . S
C374 C375 1.383 . S
C375 O369 1.412 . S
C375 C374 1.383 . S
C375 C376 1.394 . S
C376 H366 0.929 . S
C376 C372 1.377 . S
C376 C375 1.394 . S
H377 C384 0.929 . S
H378 C387 0.930 . S
H379 C389 0.929 . S
H380 C381 0.969 . S
C381 H380 0.969 . S
C381 O382 1.550 . S
C381 H383 0.973 . S
O382 C381 1.550 . S
O382 C388 1.412 . S
H383 C381 0.973 . S
C384 H377 0.929 . S
C384 C385 1.400 . S
C384 C386 1.364 . S
C385 C384 1.400 . S
C385 C389 1.377 . S
C386 C384 1.364 . S
C386 C387 1.374 . S
C387 H378 0.930 . S
C387 C386 1.374 . S
C387 C388 1.383 . S
C388 O382 1.412 . S
C388 C387 1.383 . S
C388 C389 1.394 . S
C389 H379 0.929 . S
C389 C385 1.377 . S
C389 C388 1.394 . S
H390 C397 0.929 . S
H391 C400 0.930 . S
H392 C402 0.929 . S
H393 C394 0.969 . S
C394 H393 0.969 . S
C394 O395 1.550 . S
C394 H396 0.973 . S
O395 C394 1.550 . S
O395 C401 1.412 . S
H396 C394 0.973 . S
C397 H390 0.929 . S
C397 C398 1.400 . S
C397 C399 1.364 . S
C398 C397 1.400 . S
C398 C402 1.377 . S
C399 C397 1.364 . S
C399 C400 1.374 . S
C400 H391 0.930 . S
C400 C399 1.374 . S
C400 C401 1.383 . S
C401 O395 1.412 . S
C401 C400 1.383 . S
C401 C402 1.394 . S
C402 H392 0.929 . S
C402 C398 1.377 . S
C402 C401 1.394 . S
H403 C410 0.929 . S
H404 C413 0.930 . S
H405 C415 0.929 . S
H406 C407 0.969 . S
C407 H406 0.969 . S
C407 O408 1.550 . S
C407 H409 0.973 . S
O408 C407 1.550 . S
O408 C414 1.412 . S
H409 C407 0.973 . S
C410 H403 0.929 . S
C410 C411 1.400 . S
C410 C412 1.364 . S
C411 C410 1.400 . S
C411 C415 1.377 . S
C412 C410 1.364 . S
C412 C413 1.374 . S
C413 H404 0.930 . S
C413 C412 1.374 . S
C413 C414 1.383 . S
C414 O408 1.412 . S
C414 C413 1.383 . S
C414 C415 1.394 . S
C415 H405 0.929 . S
C415 C411 1.377 . S
C415 C414 1.394 . S
Cu416 N417 1.999 . S
Cu416 O422 1.974 . S
Cu416 N427 1.985 . S
Cu416 O436 1.959 . S
N417 Cu416 1.999 . S
N417 C419 1.263 . S
N417 C421 1.389 . S
N418 C419 1.358 . S
N418 C420 1.400 . S
C419 N417 1.263 . S
C419 N418 1.358 . S
C419 H425 0.930 . S
C420 N418 1.400 . S
C420 C421 1.351 . S
C420 H437 0.930 . S
C421 N417 1.389 . S
C421 C420 1.351 . S
C421 H426 0.930 . S
O422 Cu416 1.974 . S
O422 C432 1.282 . S
C423 O424 1.261 . S
C423 O436 1.251 . S
O424 C423 1.261 . S
H425 C419 0.930 . S
H426 C421 0.930 . S
N427 Cu416 1.985 . S
N427 C429 1.335 . S
N427 C430 1.390 . S
N428 C429 1.345 . S
N428 C431 1.336 . S
C429 N427 1.335 . S
C429 N428 1.345 . S
C429 H434 0.930 . S
C430 N427 1.390 . S
C430 C431 1.346 . S
C430 H435 0.930 . S
C431 N428 1.336 . S
C431 C430 1.346 . S
C431 H438 0.929 . S
C432 O422 1.282 . S
C432 O433 1.216 . S
O433 C432 1.216 . S
H434 C429 0.930 . S
H435 C430 0.930 . S
O436 Cu416 1.959 . S
O436 C423 1.251 . S
H437 C420 0.930 . S
H438 C431 0.929 . S
Cu439 N440 1.999 . S
Cu439 O445 1.974 . S
Cu439 N450 1.985 . S
Cu439 O459 1.959 1_554 S
N440 Cu439 1.999 . S
N440 C442 1.263 . S
N440 C444 1.389 . S
N441 C442 1.358 . S
N441 C443 1.400 . S
C442 N440 1.263 . S
C442 N441 1.358 . S
C442 H448 0.930 . S
C443 N441 1.400 . S
C443 C444 1.351 . S
C443 H460 0.930 . S
C444 N440 1.389 . S
C444 C443 1.351 . S
C444 H449 0.930 . S
O445 Cu439 1.974 . S
O445 C455 1.282 . S
C446 O447 1.261 1_556 S
C446 O459 1.251 . S
O447 C446 1.261 1_554 S
H448 C442 0.930 . S
H449 C444 0.930 . S
N450 Cu439 1.985 . S
N450 C452 1.335 1_554 S
N450 C453 1.390 . S
N451 C452 1.345 . S
N451 C454 1.336 . S
C452 N450 1.335 1_556 S
C452 N451 1.345 . S
C452 H457 0.930 . S
C453 N450 1.390 . S
C453 C454 1.346 1_554 S
C453 H458 0.930 . S
C454 N451 1.336 . S
C454 C453 1.346 1_556 S
C454 H461 0.929 . S
C455 O445 1.282 . S
C455 O456 1.216 . S
O456 C455 1.216 . S
H457 C452 0.930 . S
H458 C453 0.930 . S
O459 Cu439 1.959 1_556 S
O459 C446 1.251 . S
H460 C443 0.930 . S
H461 C454 0.929 . S
Cu462 N463 1.999 . S
Cu462 O468 1.974 . S
Cu462 N473 1.985 . S
Cu462 O482 1.959 . S
N463 Cu462 1.999 . S
N463 C465 1.278 . S
N463 C467 1.389 . S
N464 C465 1.351 1_556 S
N464 C466 1.400 1_556 S
C465 N463 1.278 . S
C465 N464 1.351 1_554 S
C465 H471 0.923 1_554 S
C466 N464 1.400 1_554 S
C466 C467 1.351 . S
C466 H483 0.930 . S
C467 N463 1.389 . S
C467 C466 1.351 . S
C467 H472 0.930 . S
O468 Cu462 1.974 . S
O468 C478 1.282 . S
C469 O470 1.261 . S
C469 O482 1.251 . S
O470 C469 1.261 . S
H471 C465 0.923 1_556 S
H472 C467 0.930 . S
N473 Cu462 1.985 . S
N473 C475 1.335 . S
N473 C476 1.390 . S
N474 C475 1.345 . S
N474 C477 1.336 . S
C475 N473 1.335 . S
C475 N474 1.345 . S
C475 H480 0.930 . S
C476 N473 1.390 . S
C476 C477 1.346 . S
C476 H481 0.930 . S
C477 N474 1.336 . S
C477 C476 1.346 . S
C477 H484 0.929 . S
C478 O468 1.282 . S
C478 O479 1.216 . S
O479 C478 1.216 . S
H480 C475 0.930 . S
H481 C476 0.930 . S
O482 Cu462 1.959 . S
O482 C469 1.251 . S
H483 C466 0.930 . S
H484 C477 0.929 . S
Cu485 N486 1.999 1_556 S
Cu485 O491 1.974 1_556 S
Cu485 N496 1.985 . S
Cu485 O505 1.959 . S
N486 Cu485 1.999 1_554 S
N486 C488 1.263 . S
N486 C490 1.389 . S
N487 C488 1.358 . S
N487 C489 1.400 . S
C488 N486 1.263 . S
C488 N487 1.358 . S
C488 H494 0.930 . S
C489 N487 1.400 . S
C489 C490 1.351 . S
C489 H506 0.930 . S
C490 N486 1.389 . S
C490 C489 1.351 . S
C490 H495 0.954 . S
O491 Cu485 1.974 1_554 S
O491 C501 1.282 . S
C492 O493 1.261 . S
C492 O505 1.251 . S
O493 C492 1.261 . S
H494 C488 0.930 . S
H495 C490 0.954 . S
N496 Cu485 1.985 . S
N496 C498 1.335 . S
N496 C499 1.390 . S
N497 C498 1.345 . S
N497 C500 1.336 . S
C498 N496 1.335 . S
C498 N497 1.345 . S
C498 H503 0.930 . S
C499 N496 1.390 . S
C499 C500 1.346 . S
C499 H504 0.980 . S
C500 N497 1.336 . S
C500 C499 1.346 . S
C500 H507 0.929 . S
C501 O491 1.282 . S
C501 O502 1.216 . S
O502 C501 1.216 . S
H503 C498 0.930 . S
H504 C499 0.980 . S
O505 Cu485 1.959 . S
O505 C492 1.251 . S
H506 C489 0.930 . S
H507 C500 0.929 . S
Cu508 N509 1.999 . S
Cu508 O514 1.974 . S
Cu508 N519 1.946 1_455 S
Cu508 O528 1.959 1_455 S
N509 Cu508 1.999 . S
N509 C511 1.263 . S
N509 C513 1.389 . S
N510 C511 1.358 . S
N510 C512 1.400 . S
C511 N509 1.263 . S
C511 N510 1.358 . S
C511 H517 0.930 . S
C512 N510 1.400 . S
C512 C513 1.351 . S
C512 H529 0.930 . S
C513 N509 1.389 . S
C513 C512 1.351 . S
C513 H518 0.930 . S
O514 Cu508 1.974 . S
O514 C524 1.282 . S
C515 O516 1.261 . S
C515 O528 1.251 . S
O516 C515 1.261 . S
H517 C511 0.930 . S
H518 C513 0.930 . S
N519 Cu508 1.946 1_655 S
N519 C521 1.393 . S
N519 C522 1.380 1_655 S
N520 C521 1.345 . S
N520 C523 1.336 . S
C521 N519 1.393 . S
C521 N520 1.345 . S
C521 H526 0.930 . S
C522 N519 1.380 1_455 S
C522 C523 1.346 1_455 S
C522 H527 0.930 . S
C523 N520 1.336 . S
C523 C522 1.346 1_655 S
C523 H530 0.929 . S
C524 O514 1.282 . S
C524 O525 1.216 . S
O525 C524 1.216 . S
H526 C521 0.930 . S
H527 C522 0.930 . S
O528 Cu508 1.959 1_655 S
O528 C515 1.251 . S
H529 C512 0.930 . S
H530 C523 0.929 . S
Cu531 N532 1.999 . S
Cu531 O537 1.974 . S
Cu531 N542 1.985 . S
Cu531 O551 1.959 . S
N532 Cu531 1.999 . S
N532 C534 1.263 . S
N532 C536 1.389 . S
N533 C534 1.358 . S
N533 C535 1.400 . S
C534 N532 1.263 . S
C534 N533 1.358 . S
C534 H540 0.930 . S
C535 N533 1.400 . S
C535 C536 1.351 . S
C535 H552 0.930 . S
C536 N532 1.389 . S
C536 C535 1.351 . S
C536 H541 0.930 . S
O537 Cu531 1.974 . S
O537 C547 1.282 . S
C538 O539 1.261 . S
C538 O551 1.251 . S
O539 C538 1.261 . S
H540 C534 0.930 . S
H541 C536 0.930 . S
N542 Cu531 1.985 . S
N542 C544 1.335 1_545 S
N542 C545 1.390 . S
N543 C544 1.345 . S
N543 C546 1.336 . S
C544 N542 1.335 1_565 S
C544 N543 1.345 . S
C544 H549 0.930 . S
C545 N542 1.390 . S
C545 C546 1.346 1_545 S
C545 H550 0.930 . S
C546 N543 1.336 . S
C546 C545 1.346 1_565 S
C546 H553 0.929 . S
C547 O537 1.282 . S
C547 O548 1.216 . S
O548 C547 1.216 . S
H549 C544 0.930 . S
H550 C545 0.930 . S
O551 Cu531 1.959 . S
O551 C538 1.251 . S
H552 C535 0.930 . S
H553 C546 0.929 . S
Cu554 N555 1.989 1_455 S
Cu554 O560 1.962 1_455 S
Cu554 N565 1.995 . S
Cu554 O574 1.971 . S
N555 Cu554 1.989 1_655 S
N555 C557 1.263 . S
N555 C559 1.389 . S
N556 C557 1.358 . S
N556 C558 1.400 . S
C557 N555 1.263 . S
C557 N556 1.358 . S
C557 H563 0.930 . S
C558 N556 1.400 . S
C558 C559 1.351 . S
C558 H575 0.930 . S
C559 N555 1.389 . S
C559 C558 1.351 . S
C559 H564 0.930 . S
O560 Cu554 1.962 1_655 S
O560 C570 1.282 . S
C561 O562 1.261 . S
C561 O574 1.251 . S
O562 C561 1.261 . S
H563 C557 0.930 . S
H564 C559 0.930 . S
N565 Cu554 1.995 . S
N565 C567 1.335 . S
N565 C568 1.390 . S
N566 C567 1.345 . S
N566 C569 1.336 . S
C567 N565 1.335 . S
C567 N566 1.345 . S
C567 H572 0.930 . S
C568 N565 1.390 . S
C568 C569 1.346 . S
C568 H573 0.930 . S
C569 N566 1.336 . S
C569 C568 1.346 . S
C569 H576 0.929 . S
C570 O560 1.282 . S
C570 O571 1.216 . S
O571 C570 1.216 . S
H572 C567 0.930 . S
H573 C568 0.930 . S
O574 Cu554 1.971 . S
O574 C561 1.251 . S
H575 C558 0.930 . S
H576 C569 0.929 . S
Cu577 N578 2.036 . S
Cu577 O583 2.021 . S
Cu577 N588 1.951 1_545 S
Cu577 O597 1.913 1_545 S
N578 Cu577 2.036 . S
N578 C580 1.263 . S
N578 C582 1.389 . S
N579 C580 1.358 . S
N579 C581 1.400 . S
C580 N578 1.263 . S
C580 N579 1.358 . S
C580 H586 0.930 . S
C581 N579 1.400 . S
C581 C582 1.351 . S
C581 H598 0.930 . S
C582 N578 1.389 . S
C582 C581 1.351 . S
C582 H587 0.930 . S
O583 Cu577 2.021 . S
O583 C593 1.282 . S
C584 O585 1.261 . S
C584 O597 1.251 . S
O585 C584 1.261 . S
H586 C580 0.930 . S
H587 C582 0.930 . S
N588 Cu577 1.951 1_565 S
N588 C590 1.335 . S
N588 C591 1.390 . S
N589 C590 1.345 . S
N589 C592 1.336 . S
C590 N588 1.335 . S
C590 N589 1.345 . S
C590 H595 0.930 . S
C591 N588 1.390 . S
C591 C592 1.346 . S
C591 H596 0.930 . S
C592 N589 1.336 . S
C592 C591 1.346 . S
C592 H599 0.929 . S
C593 O583 1.282 . S
C593 O594 1.216 . S
O594 C593 1.216 . S
H595 C590 0.930 . S
H596 C591 0.930 . S
O597 Cu577 1.913 1_565 S
O597 C584 1.251 . S
H598 C581 0.930 . S
H599 C592 0.929 . S
Cu600 N601 1.999 . S
Cu600 O606 1.974 . S
Cu600 N611 2.013 . S
Cu600 O620 1.959 1_455 S
N601 Cu600 1.999 . S
N601 C603 1.263 . S
N601 C605 1.389 . S
N602 C603 1.358 . S
N602 C604 1.400 . S
C603 N601 1.263 . S
C603 N602 1.358 . S
C603 H609 0.930 . S
C604 N602 1.400 . S
C604 C605 1.351 . S
C604 H621 0.930 . S
C605 N601 1.389 . S
C605 C604 1.351 . S
C605 H610 0.930 . S
O606 Cu600 1.974 . S
O606 C616 1.282 . S
C607 O608 1.261 . S
C607 O620 1.251 . S
O608 C607 1.261 . S
H609 C603 0.930 . S
H610 C605 0.930 . S
N611 Cu600 2.013 . S
N611 C613 1.294 1_455 S
N611 C614 1.399 . S
N612 C613 1.345 . S
N612 C615 1.336 . S
C613 N611 1.294 1_655 S
C613 N612 1.345 . S
C613 H618 0.930 . S
C614 N611 1.399 . S
C614 C615 1.346 1_455 S
C614 H619 0.930 . S
C615 N612 1.336 . S
C615 C614 1.346 1_655 S
C615 H622 0.929 . S
C616 O606 1.282 . S
C616 O617 1.216 . S
O617 C616 1.216 . S
H618 C613 0.930 . S
H619 C614 0.930 . S
O620 Cu600 1.959 1_655 S
O620 C607 1.251 . S
H621 C604 0.930 . S
H622 C615 0.929 . S
Cu623 N624 1.999 . S
Cu623 O629 1.974 . S
Cu623 N634 1.985 . S
Cu623 O643 1.959 . S
N624 Cu623 1.999 . S
N624 C626 1.263 . S
N624 C628 1.389 . S
N625 C626 1.358 . S
N625 C627 1.400 . S
C626 N624 1.263 . S
C626 N625 1.358 . S
C626 H632 0.930 . S
C627 N625 1.400 . S
C627 C628 1.351 . S
C627 H644 0.930 . S
C628 N624 1.389 . S
C628 C627 1.351 . S
C628 H633 0.930 . S
O629 Cu623 1.974 . S
O629 C639 1.282 . S
C630 O631 1.261 . S
C630 O643 1.251 . S
O631 C630 1.261 . S
H632 C626 0.930 . S
H633 C628 0.930 . S
N634 Cu623 1.985 . S
N634 C636 1.335 . S
N634 C637 1.390 . S
N635 C636 1.345 . S
N635 C638 1.336 . S
C636 N634 1.335 . S
C636 N635 1.345 . S
C636 H641 0.930 . S
C637 N634 1.390 . S
C637 C638 1.346 . S
C637 H642 0.930 . S
C638 N635 1.336 . S
C638 C637 1.346 . S
C638 H645 0.929 . S
C639 O629 1.282 . S
C639 O640 1.216 . S
O640 C639 1.216 . S
H641 C636 0.930 . S
H642 C637 0.930 . S
O643 Cu623 1.959 . S
O643 C630 1.251 . S
H644 C627 0.930 . S
H645 C638 0.929 . S
Cu646 N647 1.999 . S
Cu646 O652 1.992 . S
Cu646 N657 1.985 . S
Cu646 O666 1.959 . S
N647 Cu646 1.999 . S
N647 C649 1.263 1_455 S
N647 C651 1.389 . S
N648 C649 1.358 . S
N648 C650 1.400 . S
C649 N647 1.263 1_655 S
C649 N648 1.358 . S
C649 H655 0.930 . S
C650 N648 1.400 . S
C650 C651 1.351 1_655 S
C650 H667 0.930 . S
C651 N647 1.389 . S
C651 C650 1.351 1_455 S
C651 H656 0.930 . S
O652 Cu646 1.992 . S
O652 C662 1.273 1_455 S
C653 O654 1.261 . S
C653 O666 1.251 . S
O654 C653 1.261 . S
H655 C649 0.930 . S
H656 C651 0.930 . S
N657 Cu646 1.985 . S
N657 C659 1.335 . S
N657 C660 1.390 . S
N658 C659 1.345 . S
N658 C661 1.336 . S
C659 N657 1.335 . S
C659 N658 1.345 . S
C659 H664 0.930 . S
C660 N657 1.390 . S
C660 C661 1.346 . S
C660 H665 0.930 . S
C661 N658 1.336 . S
C661 C660 1.346 . S
C661 H668 0.929 . S
C662 O652 1.273 1_655 S
C662 O663 1.216 1_655 S
O663 C662 1.216 1_455 S
H664 C659 0.930 . S
H665 C660 0.930 . S
O666 Cu646 1.959 . S
O666 C653 1.251 . S
H667 C650 0.930 . S
H668 C661 0.929 . S
Cu669 N670 1.999 . S
Cu669 O675 1.974 . S
Cu669 N680 1.985 1_545 S
Cu669 O689 1.978 . S
N670 Cu669 1.999 . S
N670 C672 1.263 . S
N670 C674 1.389 . S
N671 C672 1.358 . S
N671 C673 1.400 . S
C672 N670 1.263 . S
C672 N671 1.358 . S
C672 H678 0.930 . S
C673 N671 1.400 . S
C673 C674 1.351 . S
C673 H690 0.930 . S
C674 N670 1.389 . S
C674 C673 1.351 . S
C674 H679 0.930 . S
O675 Cu669 1.974 . S
O675 C685 1.282 . S
C676 O677 1.284 . S
C676 O689 1.243 1_565 S
O677 C676 1.284 . S
H678 C672 0.930 . S
H679 C674 0.930 . S
N680 Cu669 1.985 1_565 S
N680 C682 1.335 . S
N680 C683 1.391 . S
N681 C682 1.345 . S
N681 C684 1.336 . S
C682 N680 1.335 . S
C682 N681 1.345 . S
C682 H687 0.930 . S
C683 N680 1.391 . S
C683 C684 1.351 . S
C683 H688 0.925 1_565 S
C684 N681 1.336 . S
C684 C683 1.351 . S
C684 H691 0.929 . S
C685 O675 1.282 . S
C685 O686 1.216 . S
O686 C685 1.216 . S
H687 C682 0.930 . S
H688 C683 0.925 1_545 S
O689 Cu669 1.978 . S
O689 C676 1.243 1_545 S
H690 C673 0.930 . S
H691 C684 0.929 . S
Cu692 N693 1.999 . S
Cu692 O698 1.974 . S
Cu692 N703 1.985 . S
Cu692 O712 1.959 . S
N693 Cu692 1.999 . S
N693 C695 1.263 . S
N693 C697 1.389 . S
N694 C695 1.358 . S
N694 C696 1.400 . S
C695 N693 1.263 . S
C695 N694 1.358 . S
C695 H701 0.930 . S
C696 N694 1.400 . S
C696 C697 1.351 . S
C696 H713 0.930 . S
C697 N693 1.389 . S
C697 C696 1.351 . S
C697 H702 0.930 . S
O698 Cu692 1.974 . S
O698 C708 1.282 . S
C699 O700 1.261 . S
C699 O712 1.251 . S
O700 C699 1.261 . S
H701 C695 0.930 . S
H702 C697 0.930 . S
N703 Cu692 1.985 . S
N703 C705 1.335 . S
N703 C706 1.390 . S
N704 C705 1.345 . S
N704 C707 1.336 . S
C705 N703 1.335 . S
C705 N704 1.345 . S
C705 H710 0.930 . S
C706 N703 1.390 . S
C706 C707 1.346 . S
C706 H711 0.930 . S
C707 N704 1.336 . S
C707 C706 1.346 . S
C707 H714 0.929 . S
C708 O698 1.282 . S
C708 O709 1.216 . S
O709 C708 1.216 . S
H710 C705 0.930 . S
H711 C706 0.930 . S
O712 Cu692 1.959 . S
O712 C699 1.251 . S
H713 C696 0.930 . S
H714 C707 0.929 . S
Cu715 N716 1.999 . S
Cu715 O721 1.974 . S
Cu715 N726 1.985 . S
Cu715 O735 1.959 . S
N716 Cu715 1.999 . S
N716 C718 1.263 . S
N716 C720 1.389 . S
N717 C718 1.358 . S
N717 C719 1.400 . S
C718 N716 1.263 . S
C718 N717 1.358 . S
C718 H724 0.930 . S
C719 N717 1.400 . S
C719 C720 1.351 . S
C719 H736 0.930 . S
C720 N716 1.389 . S
C720 C719 1.351 . S
C720 H725 0.930 . S
O721 Cu715 1.974 . S
O721 C731 1.282 . S
C722 O723 1.261 . S
C722 O735 1.251 . S
O723 C722 1.261 . S
H724 C718 0.930 . S
H725 C720 0.930 . S
N726 Cu715 1.985 . S
N726 C728 1.335 . S
N726 C729 1.390 . S
N727 C728 1.345 . S
N727 C730 1.336 . S
C728 N726 1.335 . S
C728 N727 1.345 . S
C728 H733 0.930 . S
C729 N726 1.390 . S
C729 C730 1.346 . S
C729 H734 0.930 . S
C730 N727 1.336 . S
C730 C729 1.346 . S
C730 H737 0.929 . S
C731 O721 1.282 . S
C731 O732 1.216 . S
O732 C731 1.216 . S
H733 C728 0.930 . S
H734 C729 0.930 . S
O735 Cu715 1.959 . S
O735 C722 1.251 . S
H736 C719 0.930 . S
H737 C730 0.929 . S
Cu738 N739 1.999 . S
Cu738 O744 1.974 . S
Cu738 N749 1.985 . S
Cu738 O758 1.959 . S
N739 Cu738 1.999 . S
N739 C741 1.263 . S
N739 C743 1.389 . S
N740 C741 1.358 . S
N740 C742 1.400 . S
C741 N739 1.263 . S
C741 N740 1.358 . S
C741 H747 0.930 . S
C742 N740 1.400 . S
C742 C743 1.351 . S
C742 H759 0.930 . S
C743 N739 1.389 . S
C743 C742 1.351 . S
C743 H748 0.930 . S
O744 Cu738 1.974 . S
O744 C754 1.282 . S
C745 O746 1.261 . S
C745 O758 1.251 . S
O746 C745 1.261 . S
H747 C741 0.930 . S
H748 C743 0.930 . S
N749 Cu738 1.985 . S
N749 C751 1.335 . S
N749 C752 1.390 . S
N750 C751 1.345 . S
N750 C753 1.336 . S
C751 N749 1.335 . S
C751 N750 1.345 . S
C751 H756 0.930 . S
C752 N749 1.390 . S
C752 C753 1.346 . S
C752 H757 0.930 . S
C753 N750 1.336 . S
C753 C752 1.346 . S
C753 H760 0.929 . S
C754 O744 1.282 . S
C754 O755 1.216 . S
O755 C754 1.216 . S
H756 C751 0.930 . S
H757 C752 0.930 . S
O758 Cu738 1.959 . S
O758 C745 1.251 . S
H759 C742 0.930 . S
H760 C753 0.929 . S
Cu761 N762 1.999 . S
Cu761 O767 1.974 . S
Cu761 N772 1.985 . S
Cu761 O781 1.959 . S
N762 Cu761 1.999 . S
N762 C764 1.263 . S
N762 C766 1.389 . S
N763 C764 1.358 . S
N763 C765 1.400 . S
C764 N762 1.263 . S
C764 N763 1.358 . S
C764 H770 0.930 . S
C765 N763 1.400 . S
C765 C766 1.351 . S
C765 H782 0.930 . S
C766 N762 1.389 . S
C766 C765 1.351 . S
C766 H771 0.930 . S
O767 Cu761 1.974 . S
O767 C777 1.282 . S
C768 O769 1.261 . S
C768 O781 1.251 . S
O769 C768 1.261 . S
H770 C764 0.930 . S
H771 C766 0.930 . S
N772 Cu761 1.985 . S
N772 C774 1.335 . S
N772 C775 1.390 . S
N773 C774 1.345 . S
N773 C776 1.336 . S
C774 N772 1.335 . S
C774 N773 1.345 . S
C774 H779 0.930 . S
C775 N772 1.390 . S
C775 C776 1.346 . S
C775 H780 0.930 . S
C776 N773 1.336 . S
C776 C775 1.346 . S
C776 H783 0.929 . S
C777 O767 1.282 . S
C777 O778 1.216 . S
O778 C777 1.216 . S
H779 C774 0.930 . S
H780 C775 0.930 . S
O781 Cu761 1.959 . S
O781 C768 1.251 . S
H782 C765 0.930 . S
H783 C776 0.929 . S
Cu784 N785 1.999 . S
Cu784 O790 1.974 . S
Cu784 N795 1.985 . S
Cu784 O804 1.959 . S
N785 Cu784 1.999 . S
N785 C787 1.263 . S
N785 C789 1.389 . S
N786 C787 1.358 . S
N786 C788 1.400 . S
C787 N785 1.263 . S
C787 N786 1.358 . S
C787 H793 0.930 . S
C788 N786 1.400 . S
C788 C789 1.351 . S
C788 H805 0.930 . S
C789 N785 1.389 . S
C789 C788 1.351 . S
C789 H794 0.930 . S
O790 Cu784 1.974 . S
O790 C800 1.282 . S
C791 O792 1.261 . S
C791 O804 1.251 . S
O792 C791 1.261 . S
H793 C787 0.930 . S
H794 C789 0.930 . S
N795 Cu784 1.985 . S
N795 C797 1.335 . S
N795 C798 1.390 . S
N796 C797 1.345 . S
N796 C799 1.336 . S
C797 N795 1.335 . S
C797 N796 1.345 . S
C797 H802 0.930 . S
C798 N795 1.390 . S
C798 C799 1.346 . S
C798 H803 0.930 . S
C799 N796 1.336 . S
C799 C798 1.346 . S
C799 H806 0.929 . S
C800 O790 1.282 . S
C800 O801 1.216 . S
O801 C800 1.216 . S
H802 C797 0.930 . S
H803 C798 0.930 . S
O804 Cu784 1.959 . S
O804 C791 1.251 . S
H805 C788 0.930 . S
H806 C799 0.929 . S
Cu807 N808 1.999 . S
Cu807 O813 1.974 . S
Cu807 N818 1.985 . S
Cu807 O827 1.959 . S
N808 Cu807 1.999 . S
N808 C810 1.263 . S
N808 C812 1.389 . S
N809 C810 1.358 . S
N809 C811 1.400 . S
C810 N808 1.263 . S
C810 N809 1.358 . S
C810 H816 0.930 . S
C811 N809 1.400 . S
C811 C812 1.351 . S
C811 H828 0.930 . S
C812 N808 1.389 . S
C812 C811 1.351 . S
C812 H817 0.930 . S
O813 Cu807 1.974 . S
O813 C823 1.282 . S
C814 O815 1.261 . S
C814 O827 1.251 . S
O815 C814 1.261 . S
H816 C810 0.930 . S
H817 C812 0.930 . S
N818 Cu807 1.985 . S
N818 C820 1.335 . S
N818 C821 1.390 . S
N819 C820 1.345 . S
N819 C822 1.336 . S
C820 N818 1.335 . S
C820 N819 1.345 . S
C820 H825 0.930 . S
C821 N818 1.390 . S
C821 C822 1.346 . S
C821 H826 0.930 . S
C822 N819 1.336 . S
C822 C821 1.346 . S
C822 H829 0.929 . S
C823 O813 1.282 . S
C823 O824 1.216 . S
O824 C823 1.216 . S
H825 C820 0.930 . S
H826 C821 0.930 . S
O827 Cu807 1.959 . S
O827 C814 1.251 . S
H828 C811 0.930 . S
H829 C822 0.929 . S
Cu830 N831 1.999 . S
Cu830 O836 1.974 . S
Cu830 N841 1.985 . S
Cu830 O850 1.959 . S
N831 Cu830 1.999 . S
N831 C833 1.263 . S
N831 C835 1.389 . S
N832 C833 1.358 . S
N832 C834 1.400 . S
C833 N831 1.263 . S
C833 N832 1.358 . S
C833 H839 0.930 . S
C834 N832 1.400 . S
C834 C835 1.351 . S
C834 H851 0.930 . S
C835 N831 1.389 . S
C835 C834 1.351 . S
C835 H840 0.930 . S
O836 Cu830 1.974 . S
O836 C846 1.282 . S
C837 O838 1.261 . S
C837 O850 1.251 . S
O838 C837 1.261 . S
H839 C833 0.930 . S
H840 C835 0.930 . S
N841 Cu830 1.985 . S
N841 C843 1.335 . S
N841 C844 1.390 . S
N842 C843 1.345 . S
N842 C845 1.336 . S
C843 N841 1.335 . S
C843 N842 1.345 . S
C843 H848 0.930 . S
C844 N841 1.390 . S
C844 C845 1.346 . S
C844 H849 0.930 . S
C845 N842 1.336 . S
C845 C844 1.346 . S
C845 H852 0.929 . S
C846 O836 1.282 . S
C846 O847 1.216 . S
O847 C846 1.216 . S
H848 C843 0.930 . S
H849 C844 0.930 . S
O850 Cu830 1.959 . S
O850 C837 1.251 . S
H851 C834 0.930 . S
H852 C845 0.929 . S
Cu853 N854 1.999 . S
Cu853 O859 1.974 . S
Cu853 N864 1.985 . S
Cu853 O873 1.959 . S
N854 Cu853 1.999 . S
N854 C856 1.263 . S
N854 C858 1.389 . S
N855 C856 1.358 . S
N855 C857 1.400 . S
C856 N854 1.263 . S
C856 N855 1.358 . S
C856 H862 0.930 . S
C857 N855 1.400 . S
C857 C858 1.351 . S
C857 H874 0.930 . S
C858 N854 1.389 . S
C858 C857 1.351 . S
C858 H863 0.930 . S
O859 Cu853 1.974 . S
O859 C869 1.282 . S
C860 O861 1.261 . S
C860 O873 1.251 . S
O861 C860 1.261 . S
H862 C856 0.930 . S
H863 C858 0.930 . S
N864 Cu853 1.985 . S
N864 C866 1.335 . S
N864 C867 1.390 . S
N865 C866 1.345 . S
N865 C868 1.336 . S
C866 N864 1.335 . S
C866 N865 1.345 . S
C866 H871 0.930 . S
C867 N864 1.390 . S
C867 C868 1.346 . S
C867 H872 0.930 . S
C868 N865 1.336 . S
C868 C867 1.346 . S
C868 H875 0.929 . S
C869 O859 1.282 . S
C869 O870 1.216 . S
O870 C869 1.216 . S
H871 C866 0.930 . S
H872 C867 0.930 . S
O873 Cu853 1.959 . S
O873 C860 1.251 . S
H874 C857 0.930 . S
H875 C868 0.929 . S
Cu876 N877 1.999 . S
Cu876 O882 1.974 . S
Cu876 N887 1.985 . S
Cu876 O896 1.959 . S
N877 Cu876 1.999 . S
N877 C879 1.263 . S
N877 C881 1.389 . S
N878 C879 1.358 . S
N878 C880 1.400 . S
C879 N877 1.263 . S
C879 N878 1.358 . S
C879 H885 0.930 . S
C880 N878 1.400 . S
C880 C881 1.351 . S
C880 H897 0.930 . S
C881 N877 1.389 . S
C881 C880 1.351 . S
C881 H886 0.930 . S
O882 Cu876 1.974 . S
O882 C892 1.282 . S
C883 O884 1.261 . S
C883 O896 1.251 . S
O884 C883 1.261 . S
H885 C879 0.930 . S
H886 C881 0.930 . S
N887 Cu876 1.985 . S
N887 C889 1.335 . S
N887 C890 1.390 . S
N888 C889 1.345 . S
N888 C891 1.336 . S
C889 N887 1.335 . S
C889 N888 1.345 . S
C889 H894 0.930 . S
C890 N887 1.390 . S
C890 C891 1.346 . S
C890 H895 0.930 . S
C891 N888 1.336 . S
C891 C890 1.346 . S
C891 H898 0.929 . S
C892 O882 1.282 . S
C892 O893 1.216 . S
O893 C892 1.216 . S
H894 C889 0.930 . S
H895 C890 0.930 . S
O896 Cu876 1.959 . S
O896 C883 1.251 . S
H897 C880 0.930 . S
H898 C891 0.929 . S
Cu899 N900 1.999 . S
Cu899 O905 1.974 . S
Cu899 N910 1.985 . S
Cu899 O919 1.959 . S
N900 Cu899 1.999 . S
N900 C902 1.263 . S
N900 C904 1.389 . S
N901 C902 1.358 . S
N901 C903 1.400 . S
C902 N900 1.263 . S
C902 N901 1.358 . S
C902 H908 0.930 . S
C903 N901 1.400 . S
C903 C904 1.351 . S
C903 H920 0.930 . S
C904 N900 1.389 . S
C904 C903 1.351 . S
C904 H909 0.930 . S
O905 Cu899 1.974 . S
O905 C915 1.282 . S
C906 O907 1.261 . S
C906 O919 1.251 . S
O907 C906 1.261 . S
H908 C902 0.930 . S
H909 C904 0.930 . S
N910 Cu899 1.985 . S
N910 C912 1.335 . S
N910 C913 1.390 . S
N911 C912 1.345 . S
N911 C914 1.336 . S
C912 N910 1.335 . S
C912 N911 1.345 . S
C912 H917 0.930 . S
C913 N910 1.390 . S
C913 C914 1.346 . S
C913 H918 0.930 . S
C914 N911 1.336 . S
C914 C913 1.346 . S
C914 H921 0.929 . S
C915 O905 1.282 . S
C915 O916 1.216 . S
O916 C915 1.216 . S
H917 C912 0.930 . S
H918 C913 0.930 . S
O919 Cu899 1.959 . S
O919 C906 1.251 . S
H920 C903 0.930 . S
H921 C914 0.929 . S
Cu922 N923 1.999 . S
Cu922 O928 1.974 . S
Cu922 N933 1.985 . S
Cu922 O942 1.959 . S
N923 Cu922 1.999 . S
N923 C925 1.263 . S
N923 C927 1.389 . S
N924 C925 1.358 . S
N924 C926 1.400 . S
C925 N923 1.263 . S
C925 N924 1.358 . S
C925 H931 0.930 . S
C926 N924 1.400 . S
C926 C927 1.351 . S
C926 H943 0.930 . S
C927 N923 1.389 . S
C927 C926 1.351 . S
C927 H932 0.930 . S
O928 Cu922 1.974 . S
O928 C938 1.282 . S
C929 O930 1.261 . S
C929 O942 1.251 . S
O930 C929 1.261 . S
H931 C925 0.930 . S
H932 C927 0.930 . S
N933 Cu922 1.985 . S
N933 C935 1.335 . S
N933 C936 1.390 . S
N934 C935 1.345 . S
N934 C937 1.336 . S
C935 N933 1.335 . S
C935 N934 1.345 . S
C935 H940 0.930 . S
C936 N933 1.390 . S
C936 C937 1.346 . S
C936 H941 0.930 . S
C937 N934 1.336 . S
C937 C936 1.346 . S
C937 H944 0.929 . S
C938 O928 1.282 . S
C938 O939 1.216 . S
O939 C938 1.216 . S
H940 C935 0.930 . S
H941 C936 0.930 . S
O942 Cu922 1.959 . S
O942 C929 1.251 . S
H943 C926 0.930 . S
H944 C937 0.929 . S
Cu945 N946 1.999 . S
Cu945 O951 1.974 . S
Cu945 N956 1.985 . S
Cu945 O965 1.959 . S
N946 Cu945 1.999 . S
N946 C948 1.263 . S
N946 C950 1.389 . S
N947 C948 1.358 . S
N947 C949 1.400 . S
C948 N946 1.263 . S
C948 N947 1.358 . S
C948 H954 0.930 . S
C949 N947 1.400 . S
C949 C950 1.351 . S
C949 H966 0.930 . S
C950 N946 1.389 . S
C950 C949 1.351 . S
C950 H955 0.930 . S
O951 Cu945 1.974 . S
O951 C961 1.282 . S
C952 O953 1.261 . S
C952 O965 1.251 . S
O953 C952 1.261 . S
H954 C948 0.930 . S
H955 C950 0.930 . S
N956 Cu945 1.985 . S
N956 C958 1.335 . S
N956 C959 1.390 . S
N957 C958 1.345 . S
N957 C960 1.336 . S
C958 N956 1.335 . S
C958 N957 1.345 . S
C958 H963 0.930 . S
C959 N956 1.390 . S
C959 C960 1.346 . S
C959 H964 0.930 . S
C960 N957 1.336 . S
C960 C959 1.346 . S
C960 H967 0.929 . S
C961 O951 1.282 . S
C961 O962 1.216 . S
O962 C961 1.216 . S
H963 C958 0.930 . S
H964 C959 0.930 . S
O965 Cu945 1.959 . S
O965 C952 1.251 . S
H966 C949 0.930 . S
H967 C960 0.929 . S
H968 C980 0.930 . S
H969 C982 0.930 . S
H970 C983 0.930 . S
H971 C987 0.959 . S
H972 C987 0.959 . S
H973 C987 0.961 . S
H974 C988 0.960 . S
H975 C988 0.961 . S
H976 C988 0.959 . S
H977 C991 0.929 . S
H978 C992 0.931 . S
H979 C994 0.930 . S
C980 H968 0.930 . S
C980 C981 1.399 . S
C980 C985 1.399 . S
C981 C980 1.399 . S
C981 C982 1.376 . S
C982 H969 0.930 . S
C982 C981 1.376 . S
C982 C983 1.388 . S
C983 H970 0.930 . S
C983 C982 1.388 . S
C983 C984 1.390 . S
C984 C983 1.390 . S
C984 C985 1.394 . S
C984 C990 1.465 . S
C985 C980 1.399 . S
C985 C984 1.394 . S
C985 C986 1.516 . S
C986 C985 1.516 . S
C986 C987 1.502 . S
C986 C988 1.561 . S
C986 C989 1.526 . S
C987 H971 0.959 . S
C987 H972 0.959 . S
C987 H973 0.961 . S
C987 C986 1.502 . S
C988 H974 0.960 . S
C988 H975 0.961 . S
C988 H976 0.959 . S
C988 C986 1.561 . S
C989 C986 1.526 . S
C989 C990 1.396 . S
C989 C994 1.390 . S
C990 C984 1.465 . S
C990 C989 1.396 . S
C990 C991 1.399 . S
C991 H977 0.929 . S
C991 C990 1.399 . S
C991 C992 1.385 . S
C992 H978 0.931 . S
C992 C991 1.385 . S
C992 C993 1.389 . S
C993 C992 1.389 . S
C993 C994 1.387 . S
C994 H979 0.930 . S
C994 C989 1.390 . S
C994 C993 1.387 . S
H995 C1007 0.930 . S
H996 C1009 0.930 . S
H997 C1010 0.930 . S
H998 C1014 0.959 . S
H999 C1014 0.959 . S
H1000 C1014 0.961 . S
H1001 C1015 0.960 . S
H1002 C1015 0.961 . S
H1003 C1015 0.959 . S
H1004 C1018 0.929 . S
H1005 C1019 0.931 . S
H1006 C1021 0.930 . S
C1007 H995 0.930 . S
C1007 C1008 1.399 . S
C1007 C1012 1.399 . S
C1008 C1007 1.399 . S
C1008 C1009 1.376 . S
C1009 H996 0.930 . S
C1009 C1008 1.376 . S
C1009 C1010 1.388 . S
C1010 H997 0.930 . S
C1010 C1009 1.388 . S
C1010 C1011 1.390 . S
C1011 C1010 1.390 . S
C1011 C1012 1.394 . S
C1011 C1017 1.465 . S
C1012 C1007 1.399 . S
C1012 C1011 1.394 . S
C1012 C1013 1.516 . S
C1013 C1012 1.516 . S
C1013 C1014 1.502 . S
C1013 C1015 1.561 . S
C1013 C1016 1.526 . S
C1014 H998 0.959 . S
C1014 H999 0.959 . S
C1014 H1000 0.961 . S
C1014 C1013 1.502 . S
C1015 H1001 0.960 . S
C1015 H1002 0.961 . S
C1015 H1003 0.959 . S
C1015 C1013 1.561 . S
C1016 C1013 1.526 . S
C1016 C1017 1.396 . S
C1016 C1021 1.390 . S
C1017 C1011 1.465 . S
C1017 C1016 1.396 . S
C1017 C1018 1.399 . S
C1018 H1004 0.929 . S
C1018 C1017 1.399 . S
C1018 C1019 1.385 . S
C1019 H1005 0.931 . S
C1019 C1018 1.385 . S
C1019 C1020 1.389 . S
C1020 C1019 1.389 . S
C1020 C1021 1.387 . S
C1021 H1006 0.930 . S
C1021 C1016 1.390 . S
C1021 C1020 1.387 . S
H1022 C1034 0.930 . S
H1023 C1036 0.930 . S
H1024 C1037 0.930 . S
H1025 C1041 0.959 . S
H1026 C1041 0.959 . S
H1027 C1041 0.961 . S
H1028 C1042 0.960 . S
H1029 C1042 0.961 . S
H1030 C1042 0.959 . S
H1031 C1045 0.929 . S
H1032 C1046 0.931 . S
H1033 C1048 0.930 . S
C1034 H1022 0.930 . S
C1034 C1035 1.399 . S
C1034 C1039 1.399 . S
C1035 C1034 1.399 . S
C1035 C1036 1.376 . S
C1036 H1023 0.930 . S
C1036 C1035 1.376 . S
C1036 C1037 1.388 . S
C1037 H1024 0.930 . S
C1037 C1036 1.388 . S
C1037 C1038 1.390 . S
C1038 C1037 1.390 . S
C1038 C1039 1.394 . S
C1038 C1044 1.465 . S
C1039 C1034 1.399 . S
C1039 C1038 1.394 . S
C1039 C1040 1.516 . S
C1040 C1039 1.516 . S
C1040 C1041 1.502 . S
C1040 C1042 1.561 . S
C1040 C1043 1.526 . S
C1041 H1025 0.959 . S
C1041 H1026 0.959 . S
C1041 H1027 0.961 . S
C1041 C1040 1.502 . S
C1042 H1028 0.960 . S
C1042 H1029 0.961 . S
C1042 H1030 0.959 . S
C1042 C1040 1.561 . S
C1043 C1040 1.526 . S
C1043 C1044 1.396 . S
C1043 C1048 1.390 . S
C1044 C1038 1.465 . S
C1044 C1043 1.396 . S
C1044 C1045 1.399 . S
C1045 H1031 0.929 . S
C1045 C1044 1.399 . S
C1045 C1046 1.385 . S
C1046 H1032 0.931 . S
C1046 C1045 1.385 . S
C1046 C1047 1.389 . S
C1047 C1046 1.389 . S
C1047 C1048 1.387 . S
C1048 H1033 0.930 . S
C1048 C1043 1.390 . S
C1048 C1047 1.387 . S
H1049 C1061 0.930 . S
H1050 C1063 0.930 . S
H1051 C1064 0.930 . S
H1052 C1068 0.959 . S
H1053 C1068 0.959 . S
H1054 C1068 0.961 . S
H1055 C1069 0.960 . S
H1056 C1069 0.961 . S
H1057 C1069 0.959 . S
H1058 C1072 0.929 . S
H1059 C1073 0.931 . S
H1060 C1075 0.930 . S
C1061 H1049 0.930 . S
C1061 C1062 1.399 . S
C1061 C1066 1.399 . S
C1062 C1061 1.399 . S
C1062 C1063 1.376 . S
C1063 H1050 0.930 . S
C1063 C1062 1.376 . S
C1063 C1064 1.388 . S
C1064 H1051 0.930 . S
C1064 C1063 1.388 . S
C1064 C1065 1.390 . S
C1065 C1064 1.390 . S
C1065 C1066 1.394 . S
C1065 C1071 1.465 . S
C1066 C1061 1.399 . S
C1066 C1065 1.394 . S
C1066 C1067 1.516 . S
C1067 C1066 1.516 . S
C1067 C1068 1.502 . S
C1067 C1069 1.561 . S
C1067 C1070 1.526 . S
C1068 H1052 0.959 . S
C1068 H1053 0.959 . S
C1068 H1054 0.961 . S
C1068 C1067 1.502 . S
C1069 H1055 0.960 . S
C1069 H1056 0.961 . S
C1069 H1057 0.959 . S
C1069 C1067 1.561 . S
C1070 C1067 1.526 . S
C1070 C1071 1.396 . S
C1070 C1075 1.390 . S
C1071 C1065 1.465 . S
C1071 C1070 1.396 . S
C1071 C1072 1.399 . S
C1072 H1058 0.929 . S
C1072 C1071 1.399 . S
C1072 C1073 1.385 . S
C1073 H1059 0.931 . S
C1073 C1072 1.385 . S
C1073 C1074 1.389 . S
C1074 C1073 1.389 . S
C1074 C1075 1.387 . S
C1075 H1060 0.930 . S
C1075 C1070 1.390 . S
C1075 C1074 1.387 . S
H1076 C1088 0.930 . S
H1077 C1090 0.930 . S
H1078 C1091 0.930 . S
H1079 C1095 0.959 . S
H1080 C1095 0.959 . S
H1081 C1095 0.961 . S
H1082 C1096 0.960 . S
H1083 C1096 0.961 . S
H1084 C1096 0.959 . S
H1085 C1099 0.929 . S
H1086 C1100 0.931 . S
H1087 C1102 0.930 . S
C1088 H1076 0.930 . S
C1088 C1089 1.399 . S
C1088 C1093 1.399 . S
C1089 C1088 1.399 . S
C1089 C1090 1.376 . S
C1090 H1077 0.930 . S
C1090 C1089 1.376 . S
C1090 C1091 1.388 . S
C1091 H1078 0.930 . S
C1091 C1090 1.388 . S
C1091 C1092 1.390 . S
C1092 C1091 1.390 . S
C1092 C1093 1.394 . S
C1092 C1098 1.465 . S
C1093 C1088 1.399 . S
C1093 C1092 1.394 . S
C1093 C1094 1.516 . S
C1094 C1093 1.516 . S
C1094 C1095 1.502 . S
C1094 C1096 1.561 . S
C1094 C1097 1.526 . S
C1095 H1079 0.959 . S
C1095 H1080 0.959 . S
C1095 H1081 0.961 . S
C1095 C1094 1.502 . S
C1096 H1082 0.960 . S
C1096 H1083 0.961 . S
C1096 H1084 0.959 . S
C1096 C1094 1.561 . S
C1097 C1094 1.526 . S
C1097 C1098 1.396 . S
C1097 C1102 1.390 . S
C1098 C1092 1.465 . S
C1098 C1097 1.396 . S
C1098 C1099 1.399 . S
C1099 H1085 0.929 . S
C1099 C1098 1.399 . S
C1099 C1100 1.385 . S
C1100 H1086 0.931 . S
C1100 C1099 1.385 . S
C1100 C1101 1.389 . S
C1101 C1100 1.389 . S
C1101 C1102 1.387 . S
C1102 H1087 0.930 . S
C1102 C1097 1.390 . S
C1102 C1101 1.387 . S
H1103 C1115 0.930 . S
H1104 C1117 0.930 . S
H1105 C1118 0.930 . S
H1106 C1122 0.959 . S
H1107 C1122 0.959 . S
H1108 C1122 0.961 . S
H1109 C1123 0.960 . S
H1110 C1123 0.961 . S
H1111 C1123 0.959 . S
H1112 C1126 0.929 . S
H1113 C1127 0.931 . S
H1114 C1129 0.930 . S
C1115 H1103 0.930 . S
C1115 C1116 1.399 . S
C1115 C1120 1.399 . S
C1116 C1115 1.399 . S
C1116 C1117 1.376 . S
C1117 H1104 0.930 . S
C1117 C1116 1.376 . S
C1117 C1118 1.388 . S
C1118 H1105 0.930 . S
C1118 C1117 1.388 . S
C1118 C1119 1.390 . S
C1119 C1118 1.390 . S
C1119 C1120 1.394 . S
C1119 C1125 1.465 . S
C1120 C1115 1.399 . S
C1120 C1119 1.394 . S
C1120 C1121 1.516 . S
C1121 C1120 1.516 . S
C1121 C1122 1.502 . S
C1121 C1123 1.561 . S
C1121 C1124 1.526 . S
C1122 H1106 0.959 . S
C1122 H1107 0.959 . S
C1122 H1108 0.961 . S
C1122 C1121 1.502 . S
C1123 H1109 0.960 . S
C1123 H1110 0.961 . S
C1123 H1111 0.959 . S
C1123 C1121 1.561 . S
C1124 C1121 1.526 . S
C1124 C1125 1.396 . S
C1124 C1129 1.390 . S
C1125 C1119 1.465 . S
C1125 C1124 1.396 . S
C1125 C1126 1.399 . S
C1126 H1112 0.929 . S
C1126 C1125 1.399 . S
C1126 C1127 1.385 1_556 S
C1127 H1113 0.931 . S
C1127 C1126 1.385 1_554 S
C1127 C1128 1.389 1_554 S
C1128 C1127 1.389 1_556 S
C1128 C1129 1.387 . S
C1129 H1114 0.930 . S
C1129 C1124 1.390 . S
C1129 C1128 1.387 . S
H1130 C1142 0.930 . S
H1131 C1144 0.930 . S
H1132 C1145 0.930 . S
H1133 C1149 0.959 . S
H1134 C1149 0.959 . S
H1135 C1149 0.961 . S
H1136 C1150 0.960 . S
H1137 C1150 0.961 . S
H1138 C1150 0.959 . S
H1139 C1153 0.929 . S
H1140 C1154 0.931 . S
H1141 C1156 0.930 . S
C1142 H1130 0.930 . S
C1142 C1143 1.399 . S
C1142 C1147 1.399 . S
C1143 C1142 1.399 . S
C1143 C1144 1.376 . S
C1144 H1131 0.930 . S
C1144 C1143 1.376 . S
C1144 C1145 1.388 . S
C1145 H1132 0.930 . S
C1145 C1144 1.388 . S
C1145 C1146 1.390 . S
C1146 C1145 1.390 . S
C1146 C1147 1.394 . S
C1146 C1152 1.465 . S
C1147 C1142 1.399 . S
C1147 C1146 1.394 . S
C1147 C1148 1.516 . S
C1148 C1147 1.516 . S
C1148 C1149 1.502 . S
C1148 C1150 1.561 . S
C1148 C1151 1.526 . S
C1149 H1133 0.959 . S
C1149 H1134 0.959 . S
C1149 H1135 0.961 . S
C1149 C1148 1.502 . S
C1150 H1136 0.960 . S
C1150 H1137 0.961 . S
C1150 H1138 0.959 . S
C1150 C1148 1.561 . S
C1151 C1148 1.526 . S
C1151 C1152 1.396 . S
C1151 C1156 1.390 . S
C1152 C1146 1.465 . S
C1152 C1151 1.396 . S
C1152 C1153 1.399 . S
C1153 H1139 0.929 . S
C1153 C1152 1.399 . S
C1153 C1154 1.385 . S
C1154 H1140 0.931 . S
C1154 C1153 1.385 . S
C1154 C1155 1.389 . S
C1155 C1154 1.389 . S
C1155 C1156 1.387 . S
C1156 H1141 0.930 . S
C1156 C1151 1.390 . S
C1156 C1155 1.387 . S
H1157 C1169 0.930 . S
H1158 C1171 0.930 . S
H1159 C1172 0.930 . S
H1160 C1176 0.959 . S
H1161 C1176 0.959 . S
H1162 C1176 0.961 . S
H1163 C1177 0.960 . S
H1164 C1177 0.961 . S
H1165 C1177 0.959 . S
H1166 C1180 0.929 . S
H1167 C1181 0.931 . S
H1168 C1183 0.930 . S
C1169 H1157 0.930 . S
C1169 C1170 1.399 . S
C1169 C1174 1.399 . S
C1170 C1169 1.399 . S
C1170 C1171 1.376 . S
C1171 H1158 0.930 . S
C1171 C1170 1.376 . S
C1171 C1172 1.388 . S
C1172 H1159 0.930 . S
C1172 C1171 1.388 . S
C1172 C1173 1.390 . S
C1173 C1172 1.390 . S
C1173 C1174 1.394 . S
C1173 C1179 1.465 . S
C1174 C1169 1.399 . S
C1174 C1173 1.394 . S
C1174 C1175 1.516 . S
C1175 C1174 1.516 . S
C1175 C1176 1.502 . S
C1175 C1177 1.561 . S
C1175 C1178 1.526 . S
C1176 H1160 0.959 . S
C1176 H1161 0.959 . S
C1176 H1162 0.961 . S
C1176 C1175 1.502 . S
C1177 H1163 0.960 . S
C1177 H1164 0.961 . S
C1177 H1165 0.959 . S
C1177 C1175 1.561 . S
C1178 C1175 1.526 . S
C1178 C1179 1.396 . S
C1178 C1183 1.390 . S
C1179 C1173 1.465 . S
C1179 C1178 1.396 . S
C1179 C1180 1.399 . S
C1180 H1166 0.929 . S
C1180 C1179 1.399 . S
C1180 C1181 1.385 . S
C1181 H1167 0.931 . S
C1181 C1180 1.385 . S
C1181 C1182 1.389 . S
C1182 C1181 1.389 . S
C1182 C1183 1.387 . S
C1183 H1168 0.930 . S
C1183 C1178 1.390 . S
C1183 C1182 1.387 . S
H1184 C1196 0.930 . S
H1185 C1198 0.930 . S
H1186 C1199 0.930 . S
H1187 C1203 0.959 . S
H1188 C1203 0.959 . S
H1189 C1203 0.961 . S
H1190 C1204 0.960 . S
H1191 C1204 0.961 . S
H1192 C1204 0.959 . S
H1193 C1207 0.929 . S
H1194 C1208 0.931 . S
H1195 C1210 0.930 . S
C1196 H1184 0.930 . S
C1196 C1197 1.399 . S
C1196 C1201 1.399 . S
C1197 C1196 1.399 . S
C1197 C1198 1.376 . S
C1198 H1185 0.930 . S
C1198 C1197 1.376 . S
C1198 C1199 1.388 . S
C1199 H1186 0.930 . S
C1199 C1198 1.388 . S
C1199 C1200 1.390 . S
C1200 C1199 1.390 . S
C1200 C1201 1.394 . S
C1200 C1206 1.465 . S
C1201 C1196 1.399 . S
C1201 C1200 1.394 . S
C1201 C1202 1.516 . S
C1202 C1201 1.516 . S
C1202 C1203 1.502 . S
C1202 C1204 1.561 . S
C1202 C1205 1.526 . S
C1203 H1187 0.959 . S
C1203 H1188 0.959 . S
C1203 H1189 0.961 . S
C1203 C1202 1.502 . S
C1204 H1190 0.960 . S
C1204 H1191 0.961 . S
C1204 H1192 0.959 . S
C1204 C1202 1.561 . S
C1205 C1202 1.526 . S
C1205 C1206 1.396 . S
C1205 C1210 1.390 . S
C1206 C1200 1.465 . S
C1206 C1205 1.396 . S
C1206 C1207 1.399 . S
C1207 H1193 0.929 . S
C1207 C1206 1.399 . S
C1207 C1208 1.385 . S
C1208 H1194 0.931 . S
C1208 C1207 1.385 . S
C1208 C1209 1.389 . S
C1209 C1208 1.389 . S
C1209 C1210 1.387 . S
C1210 H1195 0.930 . S
C1210 C1205 1.390 . S
C1210 C1209 1.387 . S
H1211 C1223 0.930 . S
H1212 C1225 0.930 . S
H1213 C1226 0.930 . S
H1214 C1230 0.959 . S
H1215 C1230 0.959 . S
H1216 C1230 0.961 . S
H1217 C1231 0.960 . S
H1218 C1231 0.961 . S
H1219 C1231 0.959 . S
H1220 C1234 0.929 . S
H1221 C1235 0.931 . S
H1222 C1237 0.930 . S
C1223 H1211 0.930 . S
C1223 C1224 1.399 . S
C1223 C1228 1.399 . S
C1224 C1223 1.399 . S
C1224 C1225 1.376 . S
C1225 H1212 0.930 . S
C1225 C1224 1.376 . S
C1225 C1226 1.388 . S
C1226 H1213 0.930 . S
C1226 C1225 1.388 . S
C1226 C1227 1.390 . S
C1227 C1226 1.390 . S
C1227 C1228 1.394 . S
C1227 C1233 1.465 . S
C1228 C1223 1.399 . S
C1228 C1227 1.394 . S
C1228 C1229 1.516 . S
C1229 C1228 1.516 . S
C1229 C1230 1.502 . S
C1229 C1231 1.561 . S
C1229 C1232 1.526 . S
C1230 H1214 0.959 . S
C1230 H1215 0.959 . S
C1230 H1216 0.961 . S
C1230 C1229 1.502 . S
C1231 H1217 0.960 . S
C1231 H1218 0.961 . S
C1231 H1219 0.959 . S
C1231 C1229 1.561 . S
C1232 C1229 1.526 . S
C1232 C1233 1.396 . S
C1232 C1237 1.390 . S
C1233 C1227 1.465 . S
C1233 C1232 1.396 . S
C1233 C1234 1.399 . S
C1234 H1220 0.929 . S
C1234 C1233 1.399 . S
C1234 C1235 1.385 . S
C1235 H1221 0.931 . S
C1235 C1234 1.385 . S
C1235 C1236 1.389 . S
C1236 C1235 1.389 . S
C1236 C1237 1.387 . S
C1237 H1222 0.930 . S
C1237 C1232 1.390 . S
C1237 C1236 1.387 . S
H1238 C1250 0.930 . S
H1239 C1252 0.930 . S
H1240 C1253 0.930 . S
H1241 C1257 0.959 . S
H1242 C1257 0.959 . S
H1243 C1257 0.961 . S
H1244 C1258 0.960 . S
H1245 C1258 0.961 . S
H1246 C1258 0.959 . S
H1247 C1261 0.929 . S
H1248 C1262 0.931 . S
H1249 C1264 0.930 . S
C1250 H1238 0.930 . S
C1250 C1251 1.399 . S
C1250 C1255 1.399 . S
C1251 C1250 1.399 . S
C1251 C1252 1.376 . S
C1252 H1239 0.930 . S
C1252 C1251 1.376 . S
C1252 C1253 1.388 . S
C1253 H1240 0.930 . S
C1253 C1252 1.388 . S
C1253 C1254 1.390 . S
C1254 C1253 1.390 . S
C1254 C1255 1.394 . S
C1254 C1260 1.465 . S
C1255 C1250 1.399 . S
C1255 C1254 1.394 . S
C1255 C1256 1.516 . S
C1256 C1255 1.516 . S
C1256 C1257 1.502 . S
C1256 C1258 1.561 . S
C1256 C1259 1.526 . S
C1257 H1241 0.959 . S
C1257 H1242 0.959 . S
C1257 H1243 0.961 . S
C1257 C1256 1.502 . S
C1258 H1244 0.960 . S
C1258 H1245 0.961 . S
C1258 H1246 0.959 . S
C1258 C1256 1.561 . S
C1259 C1256 1.526 . S
C1259 C1260 1.396 . S
C1259 C1264 1.390 . S
C1260 C1254 1.465 . S
C1260 C1259 1.396 . S
C1260 C1261 1.399 . S
C1261 H1247 0.929 . S
C1261 C1260 1.399 . S
C1261 C1262 1.385 . S
C1262 H1248 0.931 . S
C1262 C1261 1.385 . S
C1262 C1263 1.389 . S
C1263 C1262 1.389 . S
C1263 C1264 1.387 . S
C1264 H1249 0.930 . S
C1264 C1259 1.390 . S
C1264 C1263 1.387 . S
H1265 C1277 0.930 . S
H1266 C1279 0.930 . S
H1267 C1280 0.930 . S
H1268 C1284 0.959 . S
H1269 C1284 0.959 . S
H1270 C1284 0.961 . S
H1271 C1285 0.960 . S
H1272 C1285 0.961 . S
H1273 C1285 0.959 . S
H1274 C1288 0.929 . S
H1275 C1289 0.931 . S
H1276 C1291 0.930 . S
C1277 H1265 0.930 . S
C1277 C1278 1.399 . S
C1277 C1282 1.399 . S
C1278 C1277 1.399 . S
C1278 C1279 1.376 . S
C1279 H1266 0.930 . S
C1279 C1278 1.376 . S
C1279 C1280 1.388 . S
C1280 H1267 0.930 . S
C1280 C1279 1.388 . S
C1280 C1281 1.390 . S
C1281 C1280 1.390 . S
C1281 C1282 1.394 . S
C1281 C1287 1.465 . S
C1282 C1277 1.399 . S
C1282 C1281 1.394 . S
C1282 C1283 1.516 . S
C1283 C1282 1.516 . S
C1283 C1284 1.502 . S
C1283 C1285 1.561 . S
C1283 C1286 1.526 . S
C1284 H1268 0.959 . S
C1284 H1269 0.959 . S
C1284 H1270 0.961 . S
C1284 C1283 1.502 . S
C1285 H1271 0.960 . S
C1285 H1272 0.961 . S
C1285 H1273 0.959 . S
C1285 C1283 1.561 . S
C1286 C1283 1.526 . S
C1286 C1287 1.396 . S
C1286 C1291 1.390 . S
C1287 C1281 1.465 . S
C1287 C1286 1.396 . S
C1287 C1288 1.399 . S
C1288 H1274 0.929 . S
C1288 C1287 1.399 . S
C1288 C1289 1.385 . S
C1289 H1275 0.931 . S
C1289 C1288 1.385 . S
C1289 C1290 1.389 . S
C1290 C1289 1.389 . S
C1290 C1291 1.387 . S
C1291 H1276 0.930 . S
C1291 C1286 1.390 . S
C1291 C1290 1.387 . S
H1292 C1304 0.930 . S
H1293 C1306 0.930 . S
H1294 C1307 0.930 . S
H1295 C1311 0.959 . S
H1296 C1311 0.959 . S
H1297 C1311 0.961 . S
H1298 C1312 0.960 . S
H1299 C1312 0.961 . S
H1300 C1312 0.959 . S
H1301 C1315 0.929 . S
H1302 C1316 0.931 . S
H1303 C1318 0.930 . S
C1304 H1292 0.930 . S
C1304 C1305 1.399 . S
C1304 C1309 1.399 . S
C1305 C1304 1.399 . S
C1305 C1306 1.376 . S
C1306 H1293 0.930 . S
C1306 C1305 1.376 . S
C1306 C1307 1.388 . S
C1307 H1294 0.930 . S
C1307 C1306 1.388 . S
C1307 C1308 1.390 . S
C1308 C1307 1.390 . S
C1308 C1309 1.394 . S
C1308 C1314 1.465 . S
C1309 C1304 1.399 . S
C1309 C1308 1.394 . S
C1309 C1310 1.516 . S
C1310 C1309 1.516 . S
C1310 C1311 1.502 . S
C1310 C1312 1.561 . S
C1310 C1313 1.526 . S
C1311 H1295 0.959 . S
C1311 H1296 0.959 . S
C1311 H1297 0.961 . S
C1311 C1310 1.502 . S
C1312 H1298 0.960 . S
C1312 H1299 0.961 . S
C1312 H1300 0.959 . S
C1312 C1310 1.561 . S
C1313 C1310 1.526 . S
C1313 C1314 1.396 . S
C1313 C1318 1.390 . S
C1314 C1308 1.465 . S
C1314 C1313 1.396 . S
C1314 C1315 1.399 . S
C1315 H1301 0.929 . S
C1315 C1314 1.399 . S
C1315 C1316 1.385 . S
C1316 H1302 0.931 . S
C1316 C1315 1.385 . S
C1316 C1317 1.389 . S
C1317 C1316 1.389 . S
C1317 C1318 1.387 . S
C1318 H1303 0.930 . S
C1318 C1313 1.390 . S
C1318 C1317 1.387 . S
H1319 C1331 0.930 . S
H1320 C1333 0.930 . S
H1321 C1334 0.930 . S
H1322 C1338 0.959 . S
H1323 C1338 0.959 . S
H1324 C1338 0.961 . S
H1325 C1339 0.960 . S
H1326 C1339 0.961 . S
H1327 C1339 0.959 . S
H1328 C1342 0.929 . S
H1329 C1343 0.931 . S
H1330 C1345 0.930 . S
C1331 H1319 0.930 . S
C1331 C1332 1.399 . S
C1331 C1336 1.399 . S
C1332 C1331 1.399 . S
C1332 C1333 1.376 . S
C1333 H1320 0.930 . S
C1333 C1332 1.376 . S
C1333 C1334 1.388 . S
C1334 H1321 0.930 . S
C1334 C1333 1.388 . S
C1334 C1335 1.390 . S
C1335 C1334 1.390 . S
C1335 C1336 1.394 . S
C1335 C1341 1.465 . S
C1336 C1331 1.399 . S
C1336 C1335 1.394 . S
C1336 C1337 1.516 . S
C1337 C1336 1.516 . S
C1337 C1338 1.502 . S
C1337 C1339 1.561 . S
C1337 C1340 1.526 . S
C1338 H1322 0.959 . S
C1338 H1323 0.959 . S
C1338 H1324 0.961 . S
C1338 C1337 1.502 . S
C1339 H1325 0.960 . S
C1339 H1326 0.961 . S
C1339 H1327 0.959 . S
C1339 C1337 1.561 . S
C1340 C1337 1.526 . S
C1340 C1341 1.396 . S
C1340 C1345 1.390 . S
C1341 C1335 1.465 . S
C1341 C1340 1.396 . S
C1341 C1342 1.399 . S
C1342 H1328 0.929 . S
C1342 C1341 1.399 . S
C1342 C1343 1.385 . S
C1343 H1329 0.931 . S
C1343 C1342 1.385 . S
C1343 C1344 1.389 . S
C1344 C1343 1.389 . S
C1344 C1345 1.387 . S
C1345 H1330 0.930 . S
C1345 C1340 1.390 . S
C1345 C1344 1.387 . S
H1346 C1358 0.930 . S
H1347 C1360 0.930 . S
H1348 C1361 0.930 . S
H1349 C1365 0.959 . S
H1350 C1365 0.959 . S
H1351 C1365 0.961 . S
H1352 C1366 0.960 . S
H1353 C1366 0.961 . S
H1354 C1366 0.959 . S
H1355 C1369 0.929 . S
H1356 C1370 0.931 . S
H1357 C1372 0.930 . S
C1358 H1346 0.930 . S
C1358 C1359 1.399 . S
C1358 C1363 1.399 . S
C1359 C1358 1.399 . S
C1359 C1360 1.376 . S
C1360 H1347 0.930 . S
C1360 C1359 1.376 . S
C1360 C1361 1.388 . S
C1361 H1348 0.930 . S
C1361 C1360 1.388 . S
C1361 C1362 1.390 . S
C1362 C1361 1.390 . S
C1362 C1363 1.394 . S
C1362 C1368 1.465 . S
C1363 C1358 1.399 . S
C1363 C1362 1.394 . S
C1363 C1364 1.516 . S
C1364 C1363 1.516 . S
C1364 C1365 1.502 . S
C1364 C1366 1.561 . S
C1364 C1367 1.526 . S
C1365 H1349 0.959 . S
C1365 H1350 0.959 . S
C1365 H1351 0.961 . S
C1365 C1364 1.502 . S
C1366 H1352 0.960 . S
C1366 H1353 0.961 . S
C1366 H1354 0.959 . S
C1366 C1364 1.561 . S
C1367 C1364 1.526 . S
C1367 C1368 1.396 . S
C1367 C1372 1.390 . S
C1368 C1362 1.465 . S
C1368 C1367 1.396 . S
C1368 C1369 1.399 . S
C1369 H1355 0.929 . S
C1369 C1368 1.399 . S
C1369 C1370 1.385 . S
C1370 H1356 0.931 . S
C1370 C1369 1.385 . S
C1370 C1371 1.389 . S
C1371 C1370 1.389 . S
C1371 C1372 1.387 . S
C1372 H1357 0.930 . S
C1372 C1367 1.390 . S
C1372 C1371 1.387 . S
H1373 C1385 0.930 . S
H1374 C1387 0.930 . S
H1375 C1388 0.930 . S
H1376 C1392 0.959 . S
H1377 C1392 0.959 . S
H1378 C1392 0.961 . S
H1379 C1393 0.960 . S
H1380 C1393 0.961 . S
H1381 C1393 0.959 . S
H1382 C1396 0.929 . S
H1383 C1397 0.931 . S
H1384 C1399 0.930 . S
C1385 H1373 0.930 . S
C1385 C1386 1.399 . S
C1385 C1390 1.399 . S
C1386 C1385 1.399 . S
C1386 C1387 1.376 . S
C1387 H1374 0.930 . S
C1387 C1386 1.376 . S
C1387 C1388 1.388 . S
C1388 H1375 0.930 . S
C1388 C1387 1.388 . S
C1388 C1389 1.390 . S
C1389 C1388 1.390 . S
C1389 C1390 1.394 . S
C1389 C1395 1.465 . S
C1390 C1385 1.399 . S
C1390 C1389 1.394 . S
C1390 C1391 1.516 . S
C1391 C1390 1.516 . S
C1391 C1392 1.502 . S
C1391 C1393 1.561 . S
C1391 C1394 1.526 . S
C1392 H1376 0.959 . S
C1392 H1377 0.959 . S
C1392 H1378 0.961 . S
C1392 C1391 1.502 . S
C1393 H1379 0.960 . S
C1393 H1380 0.961 . S
C1393 H1381 0.959 . S
C1393 C1391 1.561 . S
C1394 C1391 1.526 . S
C1394 C1395 1.396 . S
C1394 C1399 1.390 . S
C1395 C1389 1.465 . S
C1395 C1394 1.396 . S
C1395 C1396 1.399 . S
C1396 H1382 0.929 . S
C1396 C1395 1.399 . S
C1396 C1397 1.385 . S
C1397 H1383 0.931 . S
C1397 C1396 1.385 . S
C1397 C1398 1.389 . S
C1398 C1397 1.389 . S
C1398 C1399 1.387 . S
C1399 H1384 0.930 . S
C1399 C1394 1.390 . S
C1399 C1398 1.387 . S
H1400 C1412 0.930 . S
H1401 C1414 0.930 . S
H1402 C1415 0.930 . S
H1403 C1419 0.959 . S
H1404 C1419 0.959 . S
H1405 C1419 0.961 . S
H1406 C1420 0.960 . S
H1407 C1420 0.961 . S
H1408 C1420 0.959 . S
H1409 C1423 0.929 . S
H1410 C1424 0.931 . S
H1411 C1426 0.930 . S
C1412 H1400 0.930 . S
C1412 C1413 1.399 . S
C1412 C1417 1.399 . S
C1413 C1412 1.399 . S
C1413 C1414 1.376 . S
C1414 H1401 0.930 . S
C1414 C1413 1.376 . S
C1414 C1415 1.388 . S
C1415 H1402 0.930 . S
C1415 C1414 1.388 . S
C1415 C1416 1.390 . S
C1416 C1415 1.390 . S
C1416 C1417 1.394 . S
C1416 C1422 1.465 . S
C1417 C1412 1.399 . S
C1417 C1416 1.394 . S
C1417 C1418 1.516 . S
C1418 C1417 1.516 . S
C1418 C1419 1.502 . S
C1418 C1420 1.561 . S
C1418 C1421 1.526 . S
C1419 H1403 0.959 . S
C1419 H1404 0.959 . S
C1419 H1405 0.961 . S
C1419 C1418 1.502 . S
C1420 H1406 0.960 . S
C1420 H1407 0.961 . S
C1420 H1408 0.959 . S
C1420 C1418 1.561 . S
C1421 C1418 1.526 . S
C1421 C1422 1.396 . S
C1421 C1426 1.390 . S
C1422 C1416 1.465 . S
C1422 C1421 1.396 . S
C1422 C1423 1.399 . S
C1423 H1409 0.929 . S
C1423 C1422 1.399 . S
C1423 C1424 1.385 . S
C1424 H1410 0.931 . S
C1424 C1423 1.385 . S
C1424 C1425 1.389 . S
C1425 C1424 1.389 . S
C1425 C1426 1.387 . S
C1426 H1411 0.930 . S
C1426 C1421 1.390 . S
C1426 C1425 1.387 . S
H1427 C1439 0.930 . S
H1428 C1441 0.930 . S
H1429 C1442 0.930 . S
H1430 C1446 0.959 . S
H1431 C1446 0.959 . S
H1432 C1446 0.961 . S
H1433 C1447 0.960 . S
H1434 C1447 0.961 . S
H1435 C1447 0.959 . S
H1436 C1450 0.929 . S
H1437 C1451 0.931 . S
H1438 C1453 0.930 . S
C1439 H1427 0.930 . S
C1439 C1440 1.399 . S
C1439 C1444 1.399 . S
C1440 C1439 1.399 . S
C1440 C1441 1.376 . S
C1441 H1428 0.930 . S
C1441 C1440 1.376 . S
C1441 C1442 1.388 . S
C1442 H1429 0.930 . S
C1442 C1441 1.388 . S
C1442 C1443 1.390 . S
C1443 C1442 1.390 . S
C1443 C1444 1.394 . S
C1443 C1449 1.465 . S
C1444 C1439 1.399 . S
C1444 C1443 1.394 . S
C1444 C1445 1.516 . S
C1445 C1444 1.516 . S
C1445 C1446 1.502 . S
C1445 C1447 1.561 . S
C1445 C1448 1.526 . S
C1446 H1430 0.959 . S
C1446 H1431 0.959 . S
C1446 H1432 0.961 . S
C1446 C1445 1.502 . S
C1447 H1433 0.960 . S
C1447 H1434 0.961 . S
C1447 H1435 0.959 . S
C1447 C1445 1.561 . S
C1448 C1445 1.526 . S
C1448 C1449 1.396 . S
C1448 C1453 1.390 . S
C1449 C1443 1.465 . S
C1449 C1448 1.396 . S
C1449 C1450 1.399 . S
C1450 H1436 0.929 . S
C1450 C1449 1.399 . S
C1450 C1451 1.385 . S
C1451 H1437 0.931 . S
C1451 C1450 1.385 . S
C1451 C1452 1.389 . S
C1452 C1451 1.389 . S
C1452 C1453 1.387 . S
C1453 H1438 0.930 . S
C1453 C1448 1.390 . S
C1453 C1452 1.387 . S
H1454 C1466 0.930 . S
H1455 C1468 0.930 . S
H1456 C1469 0.930 . S
H1457 C1473 0.959 . S
H1458 C1473 0.959 . S
H1459 C1473 0.961 . S
H1460 C1474 0.960 . S
H1461 C1474 0.961 . S
H1462 C1474 0.959 . S
H1463 C1477 0.929 . S
H1464 C1478 0.931 . S
H1465 C1480 0.930 . S
C1466 H1454 0.930 . S
C1466 C1467 1.399 . S
C1466 C1471 1.399 . S
C1467 C1466 1.399 . S
C1467 C1468 1.376 . S
C1468 H1455 0.930 . S
C1468 C1467 1.376 . S
C1468 C1469 1.388 . S
C1469 H1456 0.930 . S
C1469 C1468 1.388 . S
C1469 C1470 1.390 . S
C1470 C1469 1.390 . S
C1470 C1471 1.394 . S
C1470 C1476 1.465 . S
C1471 C1466 1.399 . S
C1471 C1470 1.394 . S
C1471 C1472 1.516 . S
C1472 C1471 1.516 . S
C1472 C1473 1.502 . S
C1472 C1474 1.561 . S
C1472 C1475 1.526 . S
C1473 H1457 0.959 . S
C1473 H1458 0.959 . S
C1473 H1459 0.961 . S
C1473 C1472 1.502 . S
C1474 H1460 0.960 . S
C1474 H1461 0.961 . S
C1474 H1462 0.959 . S
C1474 C1472 1.561 . S
C1475 C1472 1.526 . S
C1475 C1476 1.396 . S
C1475 C1480 1.390 . S
C1476 C1470 1.465 . S
C1476 C1475 1.396 . S
C1476 C1477 1.399 . S
C1477 H1463 0.929 . S
C1477 C1476 1.399 . S
C1477 C1478 1.385 . S
C1478 H1464 0.931 . S
C1478 C1477 1.385 . S
C1478 C1479 1.389 . S
C1479 C1478 1.389 . S
C1479 C1480 1.387 . S
C1480 H1465 0.930 . S
C1480 C1475 1.390 . S
C1480 C1479 1.387 . S
H1481 C1493 0.930 . S
H1482 C1495 0.930 . S
H1483 C1496 0.930 . S
H1484 C1500 0.959 . S
H1485 C1500 0.959 . S
H1486 C1500 0.961 . S
H1487 C1501 0.960 . S
H1488 C1501 0.961 . S
H1489 C1501 0.959 . S
H1490 C1504 0.929 . S
H1491 C1505 0.931 . S
H1492 C1507 0.930 . S
C1493 H1481 0.930 . S
C1493 C1494 1.399 . S
C1493 C1498 1.399 . S
C1494 C1493 1.399 . S
C1494 C1495 1.376 . S
C1495 H1482 0.930 . S
C1495 C1494 1.376 . S
C1495 C1496 1.388 . S
C1496 H1483 0.930 . S
C1496 C1495 1.388 . S
C1496 C1497 1.390 . S
C1497 C1496 1.390 . S
C1497 C1498 1.394 . S
C1497 C1503 1.465 . S
C1498 C1493 1.399 . S
C1498 C1497 1.394 . S
C1498 C1499 1.516 . S
C1499 C1498 1.516 . S
C1499 C1500 1.502 . S
C1499 C1501 1.561 . S
C1499 C1502 1.526 . S
C1500 H1484 0.959 . S
C1500 H1485 0.959 . S
C1500 H1486 0.961 . S
C1500 C1499 1.502 . S
C1501 H1487 0.960 . S
C1501 H1488 0.961 . S
C1501 H1489 0.959 . S
C1501 C1499 1.561 . S
C1502 C1499 1.526 . S
C1502 C1503 1.396 . S
C1502 C1507 1.390 . S
C1503 C1497 1.465 . S
C1503 C1502 1.396 . S
C1503 C1504 1.399 . S
C1504 H1490 0.929 . S
C1504 C1503 1.399 . S
C1504 C1505 1.385 . S
C1505 H1491 0.931 . S
C1505 C1504 1.385 . S
C1505 C1506 1.389 . S
C1506 C1505 1.389 . S
C1506 C1507 1.387 . S
C1507 H1492 0.930 . S
C1507 C1502 1.390 . S
C1507 C1506 1.387 . S
H1508 C1520 0.930 . S
H1509 C1522 0.930 . S
H1510 C1523 0.930 . S
H1511 C1527 0.959 . S
H1512 C1527 0.959 . S
H1513 C1527 0.961 . S
H1514 C1528 0.960 . S
H1515 C1528 0.961 . S
H1516 C1528 0.959 . S
H1517 C1531 0.929 . S
H1518 C1532 0.931 . S
H1519 C1534 0.930 . S
C1520 H1508 0.930 . S
C1520 C1521 1.399 . S
C1520 C1525 1.399 . S
C1521 C1520 1.399 . S
C1521 C1522 1.376 . S
C1522 H1509 0.930 . S
C1522 C1521 1.376 . S
C1522 C1523 1.388 . S
C1523 H1510 0.930 . S
C1523 C1522 1.388 . S
C1523 C1524 1.390 . S
C1524 C1523 1.390 . S
C1524 C1525 1.394 . S
C1524 C1530 1.465 . S
C1525 C1520 1.399 . S
C1525 C1524 1.394 . S
C1525 C1526 1.516 . S
C1526 C1525 1.516 . S
C1526 C1527 1.502 . S
C1526 C1528 1.561 . S
C1526 C1529 1.526 . S
C1527 H1511 0.959 . S
C1527 H1512 0.959 . S
C1527 H1513 0.961 . S
C1527 C1526 1.502 . S
C1528 H1514 0.960 . S
C1528 H1515 0.961 . S
C1528 H1516 0.959 . S
C1528 C1526 1.561 . S
C1529 C1526 1.526 . S
C1529 C1530 1.396 . S
C1529 C1534 1.390 . S
C1530 C1524 1.465 . S
C1530 C1529 1.396 . S
C1530 C1531 1.399 . S
C1531 H1517 0.929 . S
C1531 C1530 1.399 . S
C1531 C1532 1.385 . S
C1532 H1518 0.931 . S
C1532 C1531 1.385 . S
C1532 C1533 1.389 . S
C1533 C1532 1.389 . S
C1533 C1534 1.387 . S
C1534 H1519 0.930 . S
C1534 C1529 1.390 . S
C1534 C1533 1.387 . S
H1535 C1547 0.930 . S
H1536 C1549 0.930 . S
H1537 C1550 0.930 . S
H1538 C1554 0.959 . S
H1539 C1554 0.959 . S
H1540 C1554 0.961 . S
H1541 C1555 0.960 . S
H1542 C1555 0.961 . S
H1543 C1555 0.959 . S
H1544 C1558 0.944 . S
H1545 C1559 0.931 . S
H1546 C1561 0.930 . S
C1547 H1535 0.930 . S
C1547 C1548 1.399 . S
C1547 C1552 1.399 . S
C1548 C1547 1.399 . S
C1548 C1549 1.376 . S
C1549 H1536 0.930 . S
C1549 C1548 1.376 . S
C1549 C1550 1.388 . S
C1550 H1537 0.930 . S
C1550 C1549 1.388 . S
C1550 C1551 1.390 . S
C1551 C1550 1.390 . S
C1551 C1552 1.394 . S
C1551 C1557 1.465 . S
C1552 C1547 1.399 . S
C1552 C1551 1.394 . S
C1552 C1553 1.516 . S
C1553 C1552 1.516 . S
C1553 C1554 1.502 . S
C1553 C1555 1.561 . S
C1553 C1556 1.526 . S
C1554 H1538 0.959 . S
C1554 H1539 0.959 . S
C1554 H1540 0.961 . S
C1554 C1553 1.502 . S
C1555 H1541 0.960 . S
C1555 H1542 0.961 . S
C1555 H1543 0.959 . S
C1555 C1553 1.561 . S
C1556 C1553 1.526 . S
C1556 C1557 1.396 . S
C1556 C1561 1.390 . S
C1557 C1551 1.465 . S
C1557 C1556 1.396 . S
C1557 C1558 1.399 . S
C1558 H1544 0.944 . S
C1558 C1557 1.399 . S
C1558 C1559 1.385 1_565 S
C1559 H1545 0.931 . S
C1559 C1558 1.385 1_545 S
C1559 C1560 1.389 1_545 S
C1560 C1559 1.389 1_565 S
C1560 C1561 1.387 . S
C1561 H1546 0.930 . S
C1561 C1556 1.390 . S
C1561 C1560 1.387 . S
H1562 C1574 0.930 . S
H1563 C1576 0.930 . S
H1564 C1577 0.930 . S
H1565 C1581 0.959 . S
H1566 C1581 0.959 . S
H1567 C1581 0.961 . S
H1568 C1582 0.960 . S
H1569 C1582 0.961 . S
H1570 C1582 0.959 . S
H1571 C1585 0.929 . S
H1572 C1586 0.931 . S
H1573 C1588 0.930 . S
C1574 H1562 0.930 . S
C1574 C1575 1.399 . S
C1574 C1579 1.399 . S
C1575 C1574 1.399 . S
C1575 C1576 1.376 . S
C1576 H1563 0.930 . S
C1576 C1575 1.376 . S
C1576 C1577 1.388 . S
C1577 H1564 0.930 . S
C1577 C1576 1.388 . S
C1577 C1578 1.390 . S
C1578 C1577 1.390 . S
C1578 C1579 1.394 . S
C1578 C1584 1.465 . S
C1579 C1574 1.399 . S
C1579 C1578 1.394 . S
C1579 C1580 1.516 . S
C1580 C1579 1.516 . S
C1580 C1581 1.502 . S
C1580 C1582 1.561 . S
C1580 C1583 1.526 . S
C1581 H1565 0.959 . S
C1581 H1566 0.959 . S
C1581 H1567 0.961 . S
C1581 C1580 1.502 . S
C1582 H1568 0.960 . S
C1582 H1569 0.961 . S
C1582 H1570 0.959 . S
C1582 C1580 1.561 . S
C1583 C1580 1.526 . S
C1583 C1584 1.396 . S
C1583 C1588 1.390 . S
C1584 C1578 1.465 . S
C1584 C1583 1.396 . S
C1584 C1585 1.399 . S
C1585 H1571 0.929 . S
C1585 C1584 1.399 . S
C1585 C1586 1.385 . S
C1586 H1572 0.931 . S
C1586 C1585 1.385 . S
C1586 C1587 1.389 . S
C1587 C1586 1.389 . S
C1587 C1588 1.387 . S
C1588 H1573 0.930 . S
C1588 C1583 1.390 . S
C1588 C1587 1.387 . S
H1589 C1601 0.930 . S
H1590 C1603 0.930 . S
H1591 C1604 0.930 . S
H1592 C1608 0.959 . S
H1593 C1608 0.959 . S
H1594 C1608 0.961 . S
H1595 C1609 0.960 . S
H1596 C1609 0.961 . S
H1597 C1609 0.959 . S
H1598 C1612 0.929 . S
H1599 C1613 0.931 . S
H1600 C1615 0.930 . S
C1601 H1589 0.930 . S
C1601 C1602 1.399 . S
C1601 C1606 1.399 . S
C1602 C1601 1.399 . S
C1602 C1603 1.376 . S
C1603 H1590 0.930 . S
C1603 C1602 1.376 . S
C1603 C1604 1.388 . S
C1604 H1591 0.930 . S
C1604 C1603 1.388 . S
C1604 C1605 1.390 . S
C1605 C1604 1.390 . S
C1605 C1606 1.394 . S
C1605 C1611 1.465 . S
C1606 C1601 1.399 . S
C1606 C1605 1.394 . S
C1606 C1607 1.516 . S
C1607 C1606 1.516 . S
C1607 C1608 1.502 . S
C1607 C1609 1.561 . S
C1607 C1610 1.526 . S
C1608 H1592 0.959 . S
C1608 H1593 0.959 . S
C1608 H1594 0.961 . S
C1608 C1607 1.502 . S
C1609 H1595 0.960 . S
C1609 H1596 0.961 . S
C1609 H1597 0.959 . S
C1609 C1607 1.561 . S
C1610 C1607 1.526 . S
C1610 C1611 1.396 . S
C1610 C1615 1.390 . S
C1611 C1605 1.465 . S
C1611 C1610 1.396 . S
C1611 C1612 1.399 . S
C1612 H1598 0.929 . S
C1612 C1611 1.399 . S
C1612 C1613 1.385 . S
C1613 H1599 0.931 . S
C1613 C1612 1.385 . S
C1613 C1614 1.389 . S
C1614 C1613 1.389 . S
C1614 C1615 1.387 . S
C1615 H1600 0.930 . S
C1615 C1610 1.390 . S
C1615 C1614 1.387 . S
H1616 C1628 0.930 . S
H1617 C1630 0.930 . S
H1618 C1631 0.930 . S
H1619 C1635 0.959 . S
H1620 C1635 0.959 . S
H1621 C1635 0.961 . S
H1622 C1636 0.960 . S
H1623 C1636 0.961 . S
H1624 C1636 0.959 . S
H1625 C1639 0.929 . S
H1626 C1640 0.931 . S
H1627 C1642 0.930 . S
C1628 H1616 0.930 . S
C1628 C1629 1.399 . S
C1628 C1633 1.399 . S
C1629 C1628 1.399 . S
C1629 C1630 1.376 . S
C1630 H1617 0.930 . S
C1630 C1629 1.376 . S
C1630 C1631 1.388 . S
C1631 H1618 0.930 . S
C1631 C1630 1.388 . S
C1631 C1632 1.390 . S
C1632 C1631 1.390 . S
C1632 C1633 1.394 . S
C1632 C1638 1.465 . S
C1633 C1628 1.399 . S
C1633 C1632 1.394 . S
C1633 C1634 1.516 . S
C1634 C1633 1.516 . S
C1634 C1635 1.502 . S
C1634 C1636 1.561 . S
C1634 C1637 1.526 . S
C1635 H1619 0.959 . S
C1635 H1620 0.959 . S
C1635 H1621 0.961 . S
C1635 C1634 1.502 . S
C1636 H1622 0.960 . S
C1636 H1623 0.961 . S
C1636 H1624 0.959 . S
C1636 C1634 1.561 . S
C1637 C1634 1.526 . S
C1637 C1638 1.396 . S
C1637 C1642 1.390 . S
C1638 C1632 1.465 . S
C1638 C1637 1.396 . S
C1638 C1639 1.399 . S
C1639 H1625 0.929 . S
C1639 C1638 1.399 . S
C1639 C1640 1.385 . S
C1640 H1626 0.931 . S
C1640 C1639 1.385 . S
C1640 C1641 1.389 . S
C1641 C1640 1.389 . S
C1641 C1642 1.387 . S
C1642 H1627 0.930 . S
C1642 C1637 1.390 . S
C1642 C1641 1.387 . S
H1643 C1655 0.930 . S
H1644 C1657 0.930 . S
H1645 C1658 0.930 . S
H1646 C1662 0.959 . S
H1647 C1662 0.959 . S
H1648 C1662 0.961 . S
H1649 C1663 0.960 . S
H1650 C1663 0.961 . S
H1651 C1663 0.959 . S
H1652 C1666 0.929 . S
H1653 C1667 0.931 . S
H1654 C1669 0.930 . S
C1655 H1643 0.930 . S
C1655 C1656 1.399 . S
C1655 C1660 1.399 . S
C1656 C1655 1.399 . S
C1656 C1657 1.376 . S
C1657 H1644 0.930 . S
C1657 C1656 1.376 . S
C1657 C1658 1.388 . S
C1658 H1645 0.930 . S
C1658 C1657 1.388 . S
C1658 C1659 1.390 . S
C1659 C1658 1.390 . S
C1659 C1660 1.394 . S
C1659 C1665 1.465 . S
C1660 C1655 1.399 . S
C1660 C1659 1.394 . S
C1660 C1661 1.516 . S
C1661 C1660 1.516 . S
C1661 C1662 1.502 . S
C1661 C1663 1.561 . S
C1661 C1664 1.526 . S
C1662 H1646 0.959 . S
C1662 H1647 0.959 . S
C1662 H1648 0.961 . S
C1662 C1661 1.502 . S
C1663 H1649 0.960 . S
C1663 H1650 0.961 . S
C1663 H1651 0.959 . S
C1663 C1661 1.561 . S
C1664 C1661 1.526 . S
C1664 C1665 1.396 . S
C1664 C1669 1.390 . S
C1665 C1659 1.465 . S
C1665 C1664 1.396 . S
C1665 C1666 1.399 . S
C1666 H1652 0.929 . S
C1666 C1665 1.399 . S
C1666 C1667 1.385 . S
C1667 H1653 0.931 . S
C1667 C1666 1.385 . S
C1667 C1668 1.389 . S
C1668 C1667 1.389 . S
C1668 C1669 1.387 . S
C1669 H1654 0.930 . S
C1669 C1664 1.390 . S
C1669 C1668 1.387 . S
H1670 C1682 0.930 . S
H1671 C1684 0.930 . S
H1672 C1685 0.930 . S
H1673 C1689 0.959 . S
H1674 C1689 0.959 . S
H1675 C1689 0.961 . S
H1676 C1690 0.960 . S
H1677 C1690 0.961 . S
H1678 C1690 0.959 . S
H1679 C1693 0.929 . S
H1680 C1694 0.931 . S
H1681 C1696 0.930 . S
C1682 H1670 0.930 . S
C1682 C1683 1.399 . S
C1682 C1687 1.399 . S
C1683 C1682 1.399 . S
C1683 C1684 1.376 . S
C1684 H1671 0.930 . S
C1684 C1683 1.376 . S
C1684 C1685 1.388 . S
C1685 H1672 0.930 . S
C1685 C1684 1.388 . S
C1685 C1686 1.390 . S
C1686 C1685 1.390 . S
C1686 C1687 1.394 . S
C1686 C1692 1.465 . S
C1687 C1682 1.399 . S
C1687 C1686 1.394 . S
C1687 C1688 1.516 . S
C1688 C1687 1.516 . S
C1688 C1689 1.502 . S
C1688 C1690 1.561 . S
C1688 C1691 1.526 . S
C1689 H1673 0.959 . S
C1689 H1674 0.959 . S
C1689 H1675 0.961 . S
C1689 C1688 1.502 . S
C1690 H1676 0.960 . S
C1690 H1677 0.961 . S
C1690 H1678 0.959 . S
C1690 C1688 1.561 . S
C1691 C1688 1.526 . S
C1691 C1692 1.396 . S
C1691 C1696 1.390 . S
C1692 C1686 1.465 . S
C1692 C1691 1.396 . S
C1692 C1693 1.399 . S
C1693 H1679 0.929 . S
C1693 C1692 1.399 . S
C1693 C1694 1.385 . S
C1694 H1680 0.931 . S
C1694 C1693 1.385 . S
C1694 C1695 1.389 . S
C1695 C1694 1.389 . S
C1695 C1696 1.387 . S
C1696 H1681 0.930 . S
C1696 C1691 1.390 . S
C1696 C1695 1.387 . S
H1697 C1709 0.930 . S
H1698 C1711 0.930 . S
H1699 C1712 0.930 . S
H1700 C1716 0.959 . S
H1701 C1716 0.959 . S
H1702 C1716 0.961 . S
H1703 C1717 0.960 . S
H1704 C1717 0.961 . S
H1705 C1717 0.959 . S
H1706 C1720 0.929 . S
H1707 C1721 0.931 . S
H1708 C1723 0.930 . S
C1709 H1697 0.930 . S
C1709 C1710 1.399 . S
C1709 C1714 1.399 . S
C1710 C1709 1.399 . S
C1710 C1711 1.376 . S
C1711 H1698 0.930 . S
C1711 C1710 1.376 . S
C1711 C1712 1.388 . S
C1712 H1699 0.930 . S
C1712 C1711 1.388 . S
C1712 C1713 1.390 . S
C1713 C1712 1.390 . S
C1713 C1714 1.394 . S
C1713 C1719 1.465 . S
C1714 C1709 1.399 . S
C1714 C1713 1.394 . S
C1714 C1715 1.516 . S
C1715 C1714 1.516 . S
C1715 C1716 1.502 . S
C1715 C1717 1.561 . S
C1715 C1718 1.526 . S
C1716 H1700 0.959 . S
C1716 H1701 0.959 . S
C1716 H1702 0.961 . S
C1716 C1715 1.502 . S
C1717 H1703 0.960 . S
C1717 H1704 0.961 . S
C1717 H1705 0.959 . S
C1717 C1715 1.561 . S
C1718 C1715 1.526 . S
C1718 C1719 1.396 . S
C1718 C1723 1.390 . S
C1719 C1713 1.465 . S
C1719 C1718 1.396 . S
C1719 C1720 1.399 . S
C1720 H1706 0.929 . S
C1720 C1719 1.399 . S
C1720 C1721 1.385 . S
C1721 H1707 0.931 . S
C1721 C1720 1.385 . S
C1721 C1722 1.389 . S
C1722 C1721 1.389 . S
C1722 C1723 1.387 . S
C1723 H1708 0.930 . S
C1723 C1718 1.390 . S
C1723 C1722 1.387 . S
H1724 C1736 0.930 . S
H1725 C1738 0.930 . S
H1726 C1739 0.930 . S
H1727 C1743 0.959 . S
H1728 C1743 0.959 . S
H1729 C1743 0.961 . S
H1730 C1744 0.960 . S
H1731 C1744 0.961 . S
H1732 C1744 0.959 . S
H1733 C1747 0.929 . S
H1734 C1748 0.931 . S
H1735 C1750 0.930 . S
C1736 H1724 0.930 . S
C1736 C1737 1.399 . S
C1736 C1741 1.399 . S
C1737 C1736 1.399 . S
C1737 C1738 1.376 . S
C1738 H1725 0.930 . S
C1738 C1737 1.376 . S
C1738 C1739 1.388 . S
C1739 H1726 0.930 . S
C1739 C1738 1.388 . S
C1739 C1740 1.390 . S
C1740 C1739 1.390 . S
C1740 C1741 1.394 . S
C1740 C1746 1.465 . S
C1741 C1736 1.399 . S
C1741 C1740 1.394 . S
C1741 C1742 1.516 . S
C1742 C1741 1.516 . S
C1742 C1743 1.502 . S
C1742 C1744 1.561 . S
C1742 C1745 1.526 . S
C1743 H1727 0.959 . S
C1743 H1728 0.959 . S
C1743 H1729 0.961 . S
C1743 C1742 1.502 . S
C1744 H1730 0.960 . S
C1744 H1731 0.961 . S
C1744 H1732 0.959 . S
C1744 C1742 1.561 . S
C1745 C1742 1.526 . S
C1745 C1746 1.396 . S
C1745 C1750 1.390 . S
C1746 C1740 1.465 . S
C1746 C1745 1.396 . S
C1746 C1747 1.399 . S
C1747 H1733 0.929 . S
C1747 C1746 1.399 . S
C1747 C1748 1.385 . S
C1748 H1734 0.931 . S
C1748 C1747 1.385 . S
C1748 C1749 1.389 . S
C1749 C1748 1.389 . S
C1749 C1750 1.387 . S
C1750 H1735 0.930 . S
C1750 C1745 1.390 . S
C1750 C1749 1.387 . S
H1751 C1763 0.930 . S
H1752 C1765 0.930 . S
H1753 C1766 0.930 . S
H1754 C1770 0.959 . S
H1755 C1770 0.959 . S
H1756 C1770 0.961 . S
H1757 C1771 0.960 . S
H1758 C1771 0.961 . S
H1759 C1771 0.959 . S
H1760 C1774 0.929 . S
H1761 C1775 0.931 . S
H1762 C1777 0.930 . S
C1763 H1751 0.930 . S
C1763 C1764 1.399 . S
C1763 C1768 1.399 . S
C1764 C1763 1.399 . S
C1764 C1765 1.376 . S
C1765 H1752 0.930 . S
C1765 C1764 1.376 . S
C1765 C1766 1.388 . S
C1766 H1753 0.930 . S
C1766 C1765 1.388 . S
C1766 C1767 1.390 . S
C1767 C1766 1.390 . S
C1767 C1768 1.394 . S
C1767 C1773 1.465 . S
C1768 C1763 1.399 . S
C1768 C1767 1.394 . S
C1768 C1769 1.516 . S
C1769 C1768 1.516 . S
C1769 C1770 1.502 . S
C1769 C1771 1.561 . S
C1769 C1772 1.526 . S
C1770 H1754 0.959 . S
C1770 H1755 0.959 . S
C1770 H1756 0.961 . S
C1770 C1769 1.502 . S
C1771 H1757 0.960 . S
C1771 H1758 0.961 . S
C1771 H1759 0.959 . S
C1771 C1769 1.561 . S
C1772 C1769 1.526 . S
C1772 C1773 1.396 . S
C1772 C1777 1.390 . S
C1773 C1767 1.465 . S
C1773 C1772 1.396 . S
C1773 C1774 1.399 . S
C1774 H1760 0.929 . S
C1774 C1773 1.399 . S
C1774 C1775 1.385 . S
C1775 H1761 0.931 . S
C1775 C1774 1.385 . S
C1775 C1776 1.389 . S
C1776 C1775 1.389 . S
C1776 C1777 1.387 . S
C1777 H1762 0.930 . S
C1777 C1772 1.390 . S
C1777 C1776 1.387 . S
H1778 C1790 0.930 . S
H1779 C1792 0.930 . S
H1780 C1793 0.930 . S
H1781 C1797 0.959 . S
H1782 C1797 0.959 . S
H1783 C1797 0.961 . S
H1784 C1798 0.960 . S
H1785 C1798 0.961 . S
H1786 C1798 0.959 . S
H1787 C1801 0.929 . S
H1788 C1802 0.931 . S
H1789 C1804 0.930 . S
C1790 H1778 0.930 . S
C1790 C1791 1.399 . S
C1790 C1795 1.399 . S
C1791 C1790 1.399 . S
C1791 C1792 1.376 . S
C1792 H1779 0.930 . S
C1792 C1791 1.376 . S
C1792 C1793 1.388 . S
C1793 H1780 0.930 . S
C1793 C1792 1.388 . S
C1793 C1794 1.390 . S
C1794 C1793 1.390 . S
C1794 C1795 1.394 . S
C1794 C1800 1.465 . S
C1795 C1790 1.399 . S
C1795 C1794 1.394 . S
C1795 C1796 1.516 . S
C1796 C1795 1.516 . S
C1796 C1797 1.502 . S
C1796 C1798 1.561 . S
C1796 C1799 1.526 . S
C1797 H1781 0.959 . S
C1797 H1782 0.959 . S
C1797 H1783 0.961 . S
C1797 C1796 1.502 . S
C1798 H1784 0.960 . S
C1798 H1785 0.961 . S
C1798 H1786 0.959 . S
C1798 C1796 1.561 . S
C1799 C1796 1.526 . S
C1799 C1800 1.396 . S
C1799 C1804 1.390 . S
C1800 C1794 1.465 . S
C1800 C1799 1.396 . S
C1800 C1801 1.399 . S
C1801 H1787 0.929 . S
C1801 C1800 1.399 . S
C1801 C1802 1.385 . S
C1802 H1788 0.931 . S
C1802 C1801 1.385 . S
C1802 C1803 1.389 . S
C1803 C1802 1.389 . S
C1803 C1804 1.387 . S
C1804 H1789 0.930 . S
C1804 C1799 1.390 . S
C1804 C1803 1.387 . S
H1805 C1817 0.930 . S
H1806 C1819 0.930 . S
H1807 C1820 0.930 . S
H1808 C1824 0.959 . S
H1809 C1824 0.959 . S
H1810 C1824 0.961 . S
H1811 C1825 0.960 . S
H1812 C1825 0.961 . S
H1813 C1825 0.959 . S
H1814 C1828 0.929 . S
H1815 C1829 0.931 . S
H1816 C1831 0.930 . S
C1817 H1805 0.930 . S
C1817 C1818 1.399 . S
C1817 C1822 1.399 . S
C1818 C1817 1.399 . S
C1818 C1819 1.376 . S
C1819 H1806 0.930 . S
C1819 C1818 1.376 . S
C1819 C1820 1.388 . S
C1820 H1807 0.930 . S
C1820 C1819 1.388 . S
C1820 C1821 1.390 . S
C1821 C1820 1.390 . S
C1821 C1822 1.394 . S
C1821 C1827 1.465 . S
C1822 C1817 1.399 . S
C1822 C1821 1.394 . S
C1822 C1823 1.516 . S
C1823 C1822 1.516 . S
C1823 C1824 1.502 . S
C1823 C1825 1.561 . S
C1823 C1826 1.526 . S
C1824 H1808 0.959 . S
C1824 H1809 0.959 . S
C1824 H1810 0.961 . S
C1824 C1823 1.502 . S
C1825 H1811 0.960 . S
C1825 H1812 0.961 . S
C1825 H1813 0.959 . S
C1825 C1823 1.561 . S
C1826 C1823 1.526 . S
C1826 C1827 1.396 . S
C1826 C1831 1.390 . S
C1827 C1821 1.465 . S
C1827 C1826 1.396 . S
C1827 C1828 1.399 . S
C1828 H1814 0.929 . S
C1828 C1827 1.399 . S
C1828 C1829 1.385 . S
C1829 H1815 0.931 . S
C1829 C1828 1.385 . S
C1829 C1830 1.389 . S
C1830 C1829 1.389 . S
C1830 C1831 1.387 . S
C1831 H1816 0.930 . S
C1831 C1826 1.390 . S
C1831 C1830 1.387 . S
H1832 C1844 0.930 . S
H1833 C1846 0.930 . S
H1834 C1847 0.930 . S
H1835 C1851 0.959 . S
H1836 C1851 0.959 . S
H1837 C1851 0.961 . S
H1838 C1852 0.960 . S
H1839 C1852 0.961 . S
H1840 C1852 0.959 . S
H1841 C1855 0.929 . S
H1842 C1856 0.931 . S
H1843 C1858 0.930 . S
C1844 H1832 0.930 . S
C1844 C1845 1.399 . S
C1844 C1849 1.399 . S
C1845 C1844 1.399 . S
C1845 C1846 1.376 . S
C1846 H1833 0.930 . S
C1846 C1845 1.376 . S
C1846 C1847 1.388 . S
C1847 H1834 0.930 . S
C1847 C1846 1.388 . S
C1847 C1848 1.390 . S
C1848 C1847 1.390 . S
C1848 C1849 1.394 . S
C1848 C1854 1.465 . S
C1849 C1844 1.399 . S
C1849 C1848 1.394 . S
C1849 C1850 1.516 . S
C1850 C1849 1.516 . S
C1850 C1851 1.502 . S
C1850 C1852 1.561 . S
C1850 C1853 1.526 . S
C1851 H1835 0.959 . S
C1851 H1836 0.959 . S
C1851 H1837 0.961 . S
C1851 C1850 1.502 . S
C1852 H1838 0.960 . S
C1852 H1839 0.961 . S
C1852 H1840 0.959 . S
C1852 C1850 1.561 . S
C1853 C1850 1.526 . S
C1853 C1854 1.396 . S
C1853 C1858 1.390 . S
C1854 C1848 1.465 . S
C1854 C1853 1.396 . S
C1854 C1855 1.399 . S
C1855 H1841 0.929 . S
C1855 C1854 1.399 . S
C1855 C1856 1.385 . S
C1856 H1842 0.931 . S
C1856 C1855 1.385 . S
C1856 C1857 1.389 . S
C1857 C1856 1.389 . S
C1857 C1858 1.387 . S
C1858 H1843 0.930 . S
C1858 C1853 1.390 . S
C1858 C1857 1.387 . S
H1859 C1871 0.930 . S
H1860 C1873 0.930 . S
H1861 C1874 0.930 . S
H1862 C1878 0.959 . S
H1863 C1878 0.959 . S
H1864 C1878 0.961 . S
H1865 C1879 0.960 . S
H1866 C1879 0.961 . S
H1867 C1879 0.959 . S
H1868 C1882 0.929 . S
H1869 C1883 0.931 . S
H1870 C1885 0.930 . S
C1871 H1859 0.930 . S
C1871 C1872 1.399 . S
C1871 C1876 1.399 . S
C1872 C1871 1.399 . S
C1872 C1873 1.376 . S
C1873 H1860 0.930 . S
C1873 C1872 1.376 . S
C1873 C1874 1.388 . S
C1874 H1861 0.930 . S
C1874 C1873 1.388 . S
C1874 C1875 1.390 . S
C1875 C1874 1.390 . S
C1875 C1876 1.394 . S
C1875 C1881 1.465 . S
C1876 C1871 1.399 . S
C1876 C1875 1.394 . S
C1876 C1877 1.516 . S
C1877 C1876 1.516 . S
C1877 C1878 1.502 . S
C1877 C1879 1.561 . S
C1877 C1880 1.526 . S
C1878 H1862 0.959 . S
C1878 H1863 0.959 . S
C1878 H1864 0.961 . S
C1878 C1877 1.502 . S
C1879 H1865 0.960 . S
C1879 H1866 0.961 . S
C1879 H1867 0.959 . S
C1879 C1877 1.561 . S
C1880 C1877 1.526 . S
C1880 C1881 1.396 . S
C1880 C1885 1.390 . S
C1881 C1875 1.465 . S
C1881 C1880 1.396 . S
C1881 C1882 1.399 . S
C1882 H1868 0.929 . S
C1882 C1881 1.399 . S
C1882 C1883 1.385 . S
C1883 H1869 0.931 . S
C1883 C1882 1.385 . S
C1883 C1884 1.389 . S
C1884 C1883 1.389 . S
C1884 C1885 1.387 . S
C1885 H1870 0.930 . S
C1885 C1880 1.390 . S
C1885 C1884 1.387 . S
H1886 C1898 0.930 . S
H1887 C1900 0.930 . S
H1888 C1901 0.930 . S
H1889 C1905 0.959 . S
H1890 C1905 0.959 . S
H1891 C1905 0.961 . S
H1892 C1906 0.960 . S
H1893 C1906 0.961 . S
H1894 C1906 0.959 . S
H1895 C1909 0.929 . S
H1896 C1910 0.931 . S
H1897 C1912 0.930 . S
C1898 H1886 0.930 . S
C1898 C1899 1.399 . S
C1898 C1903 1.399 . S
C1899 C1898 1.399 . S
C1899 C1900 1.376 . S
C1900 H1887 0.930 . S
C1900 C1899 1.376 . S
C1900 C1901 1.388 . S
C1901 H1888 0.930 . S
C1901 C1900 1.388 . S
C1901 C1902 1.390 . S
C1902 C1901 1.390 . S
C1902 C1903 1.394 . S
C1902 C1908 1.465 . S
C1903 C1898 1.399 . S
C1903 C1902 1.394 . S
C1903 C1904 1.516 . S
C1904 C1903 1.516 . S
C1904 C1905 1.502 . S
C1904 C1906 1.561 . S
C1904 C1907 1.526 . S
C1905 H1889 0.959 . S
C1905 H1890 0.959 . S
C1905 H1891 0.961 . S
C1905 C1904 1.502 . S
C1906 H1892 0.960 . S
C1906 H1893 0.961 . S
C1906 H1894 0.959 . S
C1906 C1904 1.561 . S
C1907 C1904 1.526 . S
C1907 C1908 1.396 . S
C1907 C1912 1.390 . S
C1908 C1902 1.465 . S
C1908 C1907 1.396 . S
C1908 C1909 1.399 . S
C1909 H1895 0.929 . S
C1909 C1908 1.399 . S
C1909 C1910 1.385 . S
C1910 H1896 0.931 . S
C1910 C1909 1.385 . S
C1910 C1911 1.389 . S
C1911 C1910 1.389 . S
C1911 C1912 1.387 . S
C1912 H1897 0.930 . S
C1912 C1907 1.390 . S
C1912 C1911 1.387 . S
H1913 C1925 0.930 . S
H1914 C1927 0.930 . S
H1915 C1928 0.930 . S
H1916 C1932 0.959 . S
H1917 C1932 0.959 . S
H1918 C1932 0.961 . S
H1919 C1933 0.960 . S
H1920 C1933 0.961 . S
H1921 C1933 0.959 . S
H1922 C1936 0.929 . S
H1923 C1937 0.931 . S
H1924 C1939 0.930 . S
C1925 H1913 0.930 . S
C1925 C1926 1.399 . S
C1925 C1930 1.399 . S
C1926 C1925 1.399 . S
C1926 C1927 1.376 . S
C1927 H1914 0.930 . S
C1927 C1926 1.376 . S
C1927 C1928 1.388 . S
C1928 H1915 0.930 . S
C1928 C1927 1.388 . S
C1928 C1929 1.390 . S
C1929 C1928 1.390 . S
C1929 C1930 1.394 . S
C1929 C1935 1.465 . S
C1930 C1925 1.399 . S
C1930 C1929 1.394 . S
C1930 C1931 1.516 . S
C1931 C1930 1.516 . S
C1931 C1932 1.502 . S
C1931 C1933 1.561 . S
C1931 C1934 1.526 . S
C1932 H1916 0.959 . S
C1932 H1917 0.959 . S
C1932 H1918 0.961 . S
C1932 C1931 1.502 . S
C1933 H1919 0.960 . S
C1933 H1920 0.961 . S
C1933 H1921 0.959 . S
C1933 C1931 1.561 . S
C1934 C1931 1.526 . S
C1934 C1935 1.396 . S
C1934 C1939 1.390 . S
C1935 C1929 1.465 . S
C1935 C1934 1.396 . S
C1935 C1936 1.399 . S
C1936 H1922 0.929 . S
C1936 C1935 1.399 . S
C1936 C1937 1.385 . S
C1937 H1923 0.931 . S
C1937 C1936 1.385 . S
C1937 C1938 1.389 . S
C1938 C1937 1.389 . S
C1938 C1939 1.387 . S
C1939 H1924 0.930 . S
C1939 C1934 1.390 . S
C1939 C1938 1.387 . S
H1940 C1952 0.930 . S
H1941 C1954 0.930 . S
H1942 C1955 0.930 . S
H1943 C1959 0.959 . S
H1944 C1959 0.959 . S
H1945 C1959 0.961 . S
H1946 C1960 0.960 . S
H1947 C1960 0.961 . S
H1948 C1960 0.959 . S
H1949 C1963 0.929 . S
H1950 C1964 0.931 . S
H1951 C1966 0.930 . S
C1952 H1940 0.930 . S
C1952 C1953 1.399 . S
C1952 C1957 1.399 . S
C1953 C1952 1.399 . S
C1953 C1954 1.376 . S
C1954 H1941 0.930 . S
C1954 C1953 1.376 . S
C1954 C1955 1.388 . S
C1955 H1942 0.930 . S
C1955 C1954 1.388 . S
C1955 C1956 1.390 . S
C1956 C1955 1.390 . S
C1956 C1957 1.394 . S
C1956 C1962 1.465 . S
C1957 C1952 1.399 . S
C1957 C1956 1.394 . S
C1957 C1958 1.516 . S
C1958 C1957 1.516 . S
C1958 C1959 1.502 . S
C1958 C1960 1.561 . S
C1958 C1961 1.526 . S
C1959 H1943 0.959 . S
C1959 H1944 0.959 . S
C1959 H1945 0.961 . S
C1959 C1958 1.502 . S
C1960 H1946 0.960 . S
C1960 H1947 0.961 . S
C1960 H1948 0.959 . S
C1960 C1958 1.561 . S
C1961 C1958 1.526 . S
C1961 C1962 1.396 . S
C1961 C1966 1.390 . S
C1962 C1956 1.465 . S
C1962 C1961 1.396 . S
C1962 C1963 1.399 . S
C1963 H1949 0.929 . S
C1963 C1962 1.399 . S
C1963 C1964 1.385 . S
C1964 H1950 0.931 . S
C1964 C1963 1.385 . S
C1964 C1965 1.389 . S
C1965 C1964 1.389 . S
C1965 C1966 1.387 . S
C1966 H1951 0.930 . S
C1966 C1961 1.390 . S
C1966 C1965 1.387 . S
H1967 C1979 0.930 . S
H1968 C1981 0.930 . S
H1969 C1982 0.930 . S
H1970 C1986 0.959 . S
H1971 C1986 0.959 . S
H1972 C1986 0.961 . S
H1973 C1987 0.960 . S
H1974 C1987 0.961 . S
H1975 C1987 0.959 . S
H1976 C1990 0.929 . S
H1977 C1991 0.931 . S
H1978 C1993 0.930 . S
C1979 H1967 0.930 . S
C1979 C1980 1.399 . S
C1979 C1984 1.399 . S
C1980 C1979 1.399 . S
C1980 C1981 1.376 . S
C1981 H1968 0.930 . S
C1981 C1980 1.376 . S
C1981 C1982 1.388 . S
C1982 H1969 0.930 . S
C1982 C1981 1.388 . S
C1982 C1983 1.390 . S
C1983 C1982 1.390 . S
C1983 C1984 1.394 . S
C1983 C1989 1.465 . S
C1984 C1979 1.399 . S
C1984 C1983 1.394 . S
C1984 C1985 1.516 . S
C1985 C1984 1.516 . S
C1985 C1986 1.502 . S
C1985 C1987 1.561 . S
C1985 C1988 1.526 . S
C1986 H1970 0.959 . S
C1986 H1971 0.959 . S
C1986 H1972 0.961 . S
C1986 C1985 1.502 . S
C1987 H1973 0.960 . S
C1987 H1974 0.961 . S
C1987 H1975 0.959 . S
C1987 C1985 1.561 . S
C1988 C1985 1.526 . S
C1988 C1989 1.396 . S
C1988 C1993 1.390 . S
C1989 C1983 1.465 . S
C1989 C1988 1.396 . S
C1989 C1990 1.399 . S
C1990 H1976 0.929 . S
C1990 C1989 1.399 . S
C1990 C1991 1.385 . S
C1991 H1977 0.931 . S
C1991 C1990 1.385 . S
C1991 C1992 1.389 . S
C1992 C1991 1.389 . S
C1992 C1993 1.387 . S
C1993 H1978 0.930 . S
C1993 C1988 1.390 . S
C1993 C1992 1.387 . S
H1994 C2006 0.930 . S
H1995 C2008 0.930 . S
H1996 C2009 0.930 . S
H1997 C2013 0.959 . S
H1998 C2013 0.959 . S
H1999 C2013 0.961 . S
H2000 C2014 0.960 . S
H2001 C2014 0.961 . S
H2002 C2014 0.959 . S
H2003 C2017 0.929 . S
H2004 C2018 0.931 . S
H2005 C2020 0.930 . S
C2006 H1994 0.930 . S
C2006 C2007 1.399 . S
C2006 C2011 1.399 . S
C2007 C2006 1.399 . S
C2007 C2008 1.376 . S
C2008 H1995 0.930 . S
C2008 C2007 1.376 . S
C2008 C2009 1.388 . S
C2009 H1996 0.930 . S
C2009 C2008 1.388 . S
C2009 C2010 1.390 . S
C2010 C2009 1.390 . S
C2010 C2011 1.394 . S
C2010 C2016 1.465 . S
C2011 C2006 1.399 . S
C2011 C2010 1.394 . S
C2011 C2012 1.516 . S
C2012 C2011 1.516 . S
C2012 C2013 1.502 . S
C2012 C2014 1.561 . S
C2012 C2015 1.526 . S
C2013 H1997 0.959 . S
C2013 H1998 0.959 . S
C2013 H1999 0.961 . S
C2013 C2012 1.502 . S
C2014 H2000 0.960 . S
C2014 H2001 0.961 . S
C2014 H2002 0.959 . S
C2014 C2012 1.561 . S
C2015 C2012 1.526 . S
C2015 C2016 1.396 . S
C2015 C2020 1.390 . S
C2016 C2010 1.465 . S
C2016 C2015 1.396 . S
C2016 C2017 1.399 . S
C2017 H2003 0.929 . S
C2017 C2016 1.399 . S
C2017 C2018 1.385 . S
C2018 H2004 0.931 . S
C2018 C2017 1.385 . S
C2018 C2019 1.389 . S
C2019 C2018 1.389 . S
C2019 C2020 1.387 . S
C2020 H2005 0.930 . S
C2020 C2015 1.390 . S
C2020 C2019 1.387 . S
H2021 C2033 0.930 . S
H2022 C2035 0.930 . S
H2023 C2036 0.930 . S
H2024 C2040 0.959 . S
H2025 C2040 0.959 . S
H2026 C2040 0.961 . S
H2027 C2041 0.960 . S
H2028 C2041 0.961 . S
H2029 C2041 0.959 . S
H2030 C2044 0.929 . S
H2031 C2045 0.931 . S
H2032 C2047 0.930 . S
C2033 H2021 0.930 . S
C2033 C2034 1.399 . S
C2033 C2038 1.399 . S
C2034 C2033 1.399 . S
C2034 C2035 1.376 . S
C2035 H2022 0.930 . S
C2035 C2034 1.376 . S
C2035 C2036 1.388 . S
C2036 H2023 0.930 . S
C2036 C2035 1.388 . S
C2036 C2037 1.390 . S
C2037 C2036 1.390 . S
C2037 C2038 1.394 . S
C2037 C2043 1.465 . S
C2038 C2033 1.399 . S
C2038 C2037 1.394 . S
C2038 C2039 1.516 . S
C2039 C2038 1.516 . S
C2039 C2040 1.502 . S
C2039 C2041 1.561 . S
C2039 C2042 1.526 . S
C2040 H2024 0.959 . S
C2040 H2025 0.959 . S
C2040 H2026 0.961 . S
C2040 C2039 1.502 . S
C2041 H2027 0.960 . S
C2041 H2028 0.961 . S
C2041 H2029 0.959 . S
C2041 C2039 1.561 . S
C2042 C2039 1.526 . S
C2042 C2043 1.396 . S
C2042 C2047 1.390 . S
C2043 C2037 1.465 . S
C2043 C2042 1.396 . S
C2043 C2044 1.399 . S
C2044 H2030 0.929 . S
C2044 C2043 1.399 . S
C2044 C2045 1.385 . S
C2045 H2031 0.931 . S
C2045 C2044 1.385 . S
C2045 C2046 1.389 . S
C2046 C2045 1.389 . S
C2046 C2047 1.387 . S
C2047 H2032 0.930 . S
C2047 C2042 1.390 . S
C2047 C2046 1.387 . S
H2048 C2060 0.930 . S
H2049 C2062 0.930 . S
H2050 C2063 0.930 . S
H2051 C2067 0.959 . S
H2052 C2067 0.959 . S
H2053 C2067 0.961 . S
H2054 C2068 0.960 . S
H2055 C2068 0.961 . S
H2056 C2068 0.959 . S
H2057 C2071 0.929 . S
H2058 C2072 0.931 . S
H2059 C2074 0.930 . S
C2060 H2048 0.930 . S
C2060 C2061 1.399 . S
C2060 C2065 1.399 . S
C2061 C2060 1.399 . S
C2061 C2062 1.376 . S
C2062 H2049 0.930 . S
C2062 C2061 1.376 . S
C2062 C2063 1.388 . S
C2063 H2050 0.930 . S
C2063 C2062 1.388 . S
C2063 C2064 1.390 . S
C2064 C2063 1.390 . S
C2064 C2065 1.394 . S
C2064 C2070 1.465 . S
C2065 C2060 1.399 . S
C2065 C2064 1.394 . S
C2065 C2066 1.516 . S
C2066 C2065 1.516 . S
C2066 C2067 1.502 . S
C2066 C2068 1.561 . S
C2066 C2069 1.526 . S
C2067 H2051 0.959 . S
C2067 H2052 0.959 . S
C2067 H2053 0.961 . S
C2067 C2066 1.502 . S
C2068 H2054 0.960 . S
C2068 H2055 0.961 . S
C2068 H2056 0.959 . S
C2068 C2066 1.561 . S
C2069 C2066 1.526 . S
C2069 C2070 1.396 . S
C2069 C2074 1.390 . S
C2070 C2064 1.465 . S
C2070 C2069 1.396 . S
C2070 C2071 1.399 . S
C2071 H2057 0.929 . S
C2071 C2070 1.399 . S
C2071 C2072 1.385 . S
C2072 H2058 0.931 . S
C2072 C2071 1.385 . S
C2072 C2073 1.389 . S
C2073 C2072 1.389 . S
C2073 C2074 1.387 . S
C2074 H2059 0.930 . S
C2074 C2069 1.390 . S
C2074 C2073 1.387 . S
H2075 C2087 0.930 . S
H2076 C2089 0.930 . S
H2077 C2090 0.930 . S
H2078 C2094 0.959 . S
H2079 C2094 0.959 . S
H2080 C2094 0.961 . S
H2081 C2095 0.960 . S
H2082 C2095 0.961 . S
H2083 C2095 0.959 . S
H2084 C2098 0.929 . S
H2085 C2099 0.931 . S
H2086 C2101 0.930 . S
C2087 H2075 0.930 . S
C2087 C2088 1.399 . S
C2087 C2092 1.399 . S
C2088 C2087 1.399 . S
C2088 C2089 1.376 . S
C2089 H2076 0.930 . S
C2089 C2088 1.376 . S
C2089 C2090 1.388 . S
C2090 H2077 0.930 . S
C2090 C2089 1.388 . S
C2090 C2091 1.390 . S
C2091 C2090 1.390 . S
C2091 C2092 1.394 . S
C2091 C2097 1.465 . S
C2092 C2087 1.399 . S
C2092 C2091 1.394 . S
C2092 C2093 1.516 . S
C2093 C2092 1.516 . S
C2093 C2094 1.502 . S
C2093 C2095 1.561 . S
C2093 C2096 1.526 . S
C2094 H2078 0.959 . S
C2094 H2079 0.959 . S
C2094 H2080 0.961 . S
C2094 C2093 1.502 . S
C2095 H2081 0.960 . S
C2095 H2082 0.961 . S
C2095 H2083 0.959 . S
C2095 C2093 1.561 . S
C2096 C2093 1.526 . S
C2096 C2097 1.396 . S
C2096 C2101 1.390 . S
C2097 C2091 1.465 . S
C2097 C2096 1.396 . S
C2097 C2098 1.399 . S
C2098 H2084 0.929 . S
C2098 C2097 1.399 . S
C2098 C2099 1.385 . S
C2099 H2085 0.931 . S
C2099 C2098 1.385 . S
C2099 C2100 1.389 . S
C2100 C2099 1.389 . S
C2100 C2101 1.387 . S
C2101 H2086 0.930 . S
C2101 C2096 1.390 . S
C2101 C2100 1.387 . S
H2102 C2114 0.930 . S
H2103 C2116 0.930 . S
H2104 C2117 0.930 . S
H2105 C2121 0.959 . S
H2106 C2121 0.959 . S
H2107 C2121 0.961 . S
H2108 C2122 0.960 . S
H2109 C2122 0.961 . S
H2110 C2122 0.959 . S
H2111 C2125 0.929 . S
H2112 C2126 0.931 . S
H2113 C2128 0.930 . S
C2114 H2102 0.930 . S
C2114 C2115 1.399 . S
C2114 C2119 1.399 . S
C2115 C2114 1.399 . S
C2115 C2116 1.376 . S
C2116 H2103 0.930 . S
C2116 C2115 1.376 . S
C2116 C2117 1.388 . S
C2117 H2104 0.930 . S
C2117 C2116 1.388 . S
C2117 C2118 1.390 . S
C2118 C2117 1.390 . S
C2118 C2119 1.394 . S
C2118 C2124 1.465 . S
C2119 C2114 1.399 . S
C2119 C2118 1.394 . S
C2119 C2120 1.516 . S
C2120 C2119 1.516 . S
C2120 C2121 1.502 . S
C2120 C2122 1.561 . S
C2120 C2123 1.526 . S
C2121 H2105 0.959 . S
C2121 H2106 0.959 . S
C2121 H2107 0.961 . S
C2121 C2120 1.502 . S
C2122 H2108 0.960 . S
C2122 H2109 0.961 . S
C2122 H2110 0.959 . S
C2122 C2120 1.561 . S
C2123 C2120 1.526 . S
C2123 C2124 1.396 . S
C2123 C2128 1.390 . S
C2124 C2118 1.465 . S
C2124 C2123 1.396 . S
C2124 C2125 1.399 . S
C2125 H2111 0.929 . S
C2125 C2124 1.399 . S
C2125 C2126 1.385 . S
C2126 H2112 0.931 . S
C2126 C2125 1.385 . S
C2126 C2127 1.389 . S
C2127 C2126 1.389 . S
C2127 C2128 1.387 . S
C2128 H2113 0.930 . S
C2128 C2123 1.390 . S
C2128 C2127 1.387 . S
H2129 C2141 0.930 . S
H2130 C2143 0.930 . S
H2131 C2144 0.930 . S
H2132 C2148 0.959 . S
H2133 C2148 0.959 . S
H2134 C2148 0.961 . S
H2135 C2149 0.960 . S
H2136 C2149 0.961 . S
H2137 C2149 0.959 . S
H2138 C2152 0.929 . S
H2139 C2153 0.931 . S
H2140 C2155 0.930 . S
C2141 H2129 0.930 . S
C2141 C2142 1.399 . S
C2141 C2146 1.399 . S
C2142 C2141 1.399 . S
C2142 C2143 1.376 . S
C2143 H2130 0.930 . S
C2143 C2142 1.376 . S
C2143 C2144 1.388 . S
C2144 H2131 0.930 . S
C2144 C2143 1.388 . S
C2144 C2145 1.390 . S
C2145 C2144 1.390 . S
C2145 C2146 1.394 . S
C2145 C2151 1.465 . S
C2146 C2141 1.399 . S
C2146 C2145 1.394 . S
C2146 C2147 1.516 . S
C2147 C2146 1.516 . S
C2147 C2148 1.502 . S
C2147 C2149 1.561 . S
C2147 C2150 1.526 . S
C2148 H2132 0.959 . S
C2148 H2133 0.959 . S
C2148 H2134 0.961 . S
C2148 C2147 1.502 . S
C2149 H2135 0.960 . S
C2149 H2136 0.961 . S
C2149 H2137 0.959 . S
C2149 C2147 1.561 . S
C2150 C2147 1.526 . S
C2150 C2151 1.396 . S
C2150 C2155 1.390 . S
C2151 C2145 1.465 . S
C2151 C2150 1.396 . S
C2151 C2152 1.399 . S
C2152 H2138 0.929 . S
C2152 C2151 1.399 . S
C2152 C2153 1.385 . S
C2153 H2139 0.931 . S
C2153 C2152 1.385 . S
C2153 C2154 1.389 . S
C2154 C2153 1.389 . S
C2154 C2155 1.387 . S
C2155 H2140 0.930 . S
C2155 C2150 1.390 . S
C2155 C2154 1.387 . S
H2156 C2168 0.930 . S
H2157 C2170 0.930 . S
H2158 C2171 0.930 . S
H2159 C2175 0.959 . S
H2160 C2175 0.959 . S
H2161 C2175 0.961 . S
H2162 C2176 0.960 . S
H2163 C2176 0.961 . S
H2164 C2176 0.959 . S
H2165 C2179 0.929 . S
H2166 C2180 0.931 . S
H2167 C2182 0.930 . S
C2168 H2156 0.930 . S
C2168 C2169 1.399 . S
C2168 C2173 1.399 . S
C2169 C2168 1.399 . S
C2169 C2170 1.376 . S
C2170 H2157 0.930 . S
C2170 C2169 1.376 . S
C2170 C2171 1.388 . S
C2171 H2158 0.930 . S
C2171 C2170 1.388 . S
C2171 C2172 1.390 . S
C2172 C2171 1.390 . S
C2172 C2173 1.394 . S
C2172 C2178 1.465 . S
C2173 C2168 1.399 . S
C2173 C2172 1.394 . S
C2173 C2174 1.516 . S
C2174 C2173 1.516 . S
C2174 C2175 1.502 . S
C2174 C2176 1.561 . S
C2174 C2177 1.526 . S
C2175 H2159 0.959 . S
C2175 H2160 0.959 . S
C2175 H2161 0.961 . S
C2175 C2174 1.502 . S
C2176 H2162 0.960 . S
C2176 H2163 0.961 . S
C2176 H2164 0.959 . S
C2176 C2174 1.561 . S
C2177 C2174 1.526 . S
C2177 C2178 1.396 . S
C2177 C2182 1.390 . S
C2178 C2172 1.465 . S
C2178 C2177 1.396 . S
C2178 C2179 1.399 . S
C2179 H2165 0.929 . S
C2179 C2178 1.399 . S
C2179 C2180 1.385 . S
C2180 H2166 0.931 . S
C2180 C2179 1.385 . S
C2180 C2181 1.389 . S
C2181 C2180 1.389 . S
C2181 C2182 1.387 . S
C2182 H2167 0.930 . S
C2182 C2177 1.390 . S
C2182 C2181 1.387 . S
H2183 C2195 0.930 . S
H2184 C2197 0.930 . S
H2185 C2198 0.930 . S
H2186 C2202 0.959 . S
H2187 C2202 0.959 . S
H2188 C2202 0.961 . S
H2189 C2203 0.960 . S
H2190 C2203 0.961 . S
H2191 C2203 0.959 . S
H2192 C2206 0.929 . S
H2193 C2207 0.931 . S
H2194 C2209 0.930 . S
C2195 H2183 0.930 . S
C2195 C2196 1.399 . S
C2195 C2200 1.399 . S
C2196 C2195 1.399 . S
C2196 C2197 1.376 . S
C2197 H2184 0.930 . S
C2197 C2196 1.376 . S
C2197 C2198 1.388 . S
C2198 H2185 0.930 . S
C2198 C2197 1.388 . S
C2198 C2199 1.390 . S
C2199 C2198 1.390 . S
C2199 C2200 1.394 . S
C2199 C2205 1.465 . S
C2200 C2195 1.399 . S
C2200 C2199 1.394 . S
C2200 C2201 1.516 . S
C2201 C2200 1.516 . S
C2201 C2202 1.502 . S
C2201 C2203 1.561 . S
C2201 C2204 1.526 . S
C2202 H2186 0.959 . S
C2202 H2187 0.959 . S
C2202 H2188 0.961 . S
C2202 C2201 1.502 . S
C2203 H2189 0.960 . S
C2203 H2190 0.961 . S
C2203 H2191 0.959 . S
C2203 C2201 1.561 . S
C2204 C2201 1.526 . S
C2204 C2205 1.396 . S
C2204 C2209 1.390 . S
C2205 C2199 1.465 . S
C2205 C2204 1.396 . S
C2205 C2206 1.399 . S
C2206 H2192 0.929 . S
C2206 C2205 1.399 . S
C2206 C2207 1.385 . S
C2207 H2193 0.931 . S
C2207 C2206 1.385 . S
C2207 C2208 1.389 . S
C2208 C2207 1.389 . S
C2208 C2209 1.387 . S
C2209 H2194 0.930 . S
C2209 C2204 1.390 . S
C2209 C2208 1.387 . S
H2210 C2222 0.930 . S
H2211 C2224 0.930 . S
H2212 C2225 0.930 . S
H2213 C2229 0.959 . S
H2214 C2229 0.959 . S
H2215 C2229 0.961 . S
H2216 C2230 0.960 . S
H2217 C2230 0.961 . S
H2218 C2230 0.959 . S
H2219 C2233 0.929 . S
H2220 C2234 0.931 . S
H2221 C2236 0.930 . S
C2222 H2210 0.930 . S
C2222 C2223 1.399 . S
C2222 C2227 1.399 . S
C2223 C2222 1.399 . S
C2223 C2224 1.376 . S
C2224 H2211 0.930 . S
C2224 C2223 1.376 . S
C2224 C2225 1.388 . S
C2225 H2212 0.930 . S
C2225 C2224 1.388 . S
C2225 C2226 1.390 . S
C2226 C2225 1.390 . S
C2226 C2227 1.394 . S
C2226 C2232 1.465 . S
C2227 C2222 1.399 . S
C2227 C2226 1.394 . S
C2227 C2228 1.516 . S
C2228 C2227 1.516 . S
C2228 C2229 1.502 . S
C2228 C2230 1.561 . S
C2228 C2231 1.526 . S
C2229 H2213 0.959 . S
C2229 H2214 0.959 . S
C2229 H2215 0.961 . S
C2229 C2228 1.502 . S
C2230 H2216 0.960 . S
C2230 H2217 0.961 . S
C2230 H2218 0.959 . S
C2230 C2228 1.561 . S
C2231 C2228 1.526 . S
C2231 C2232 1.396 . S
C2231 C2236 1.390 . S
C2232 C2226 1.465 . S
C2232 C2231 1.396 . S
C2232 C2233 1.399 . S
C2233 H2219 0.929 . S
C2233 C2232 1.399 . S
C2233 C2234 1.385 . S
C2234 H2220 0.931 . S
C2234 C2233 1.385 . S
C2234 C2235 1.389 . S
C2235 C2234 1.389 . S
C2235 C2236 1.387 . S
C2236 H2221 0.930 . S
C2236 C2231 1.390 . S
C2236 C2235 1.387 . S
H2237 C2249 0.930 . S
H2238 C2251 0.930 . S
H2239 C2252 0.930 . S
H2240 C2256 0.959 . S
H2241 C2256 0.959 . S
H2242 C2256 0.961 . S
H2243 C2257 0.960 . S
H2244 C2257 0.961 . S
H2245 C2257 0.959 . S
H2246 C2260 0.929 . S
H2247 C2261 0.931 . S
H2248 C2263 0.930 . S
C2249 H2237 0.930 . S
C2249 C2250 1.399 . S
C2249 C2254 1.399 . S
C2250 C2249 1.399 . S
C2250 C2251 1.376 . S
C2251 H2238 0.930 . S
C2251 C2250 1.376 . S
C2251 C2252 1.388 . S
C2252 H2239 0.930 . S
C2252 C2251 1.388 . S
C2252 C2253 1.390 . S
C2253 C2252 1.390 . S
C2253 C2254 1.394 . S
C2253 C2259 1.465 . S
C2254 C2249 1.399 . S
C2254 C2253 1.394 . S
C2254 C2255 1.516 . S
C2255 C2254 1.516 . S
C2255 C2256 1.502 . S
C2255 C2257 1.561 . S
C2255 C2258 1.526 . S
C2256 H2240 0.959 . S
C2256 H2241 0.959 . S
C2256 H2242 0.961 . S
C2256 C2255 1.502 . S
C2257 H2243 0.960 . S
C2257 H2244 0.961 . S
C2257 H2245 0.959 . S
C2257 C2255 1.561 . S
C2258 C2255 1.526 . S
C2258 C2259 1.396 . S
C2258 C2263 1.390 . S
C2259 C2253 1.465 . S
C2259 C2258 1.396 . S
C2259 C2260 1.399 . S
C2260 H2246 0.929 . S
C2260 C2259 1.399 . S
C2260 C2261 1.385 . S
C2261 H2247 0.931 . S
C2261 C2260 1.385 . S
C2261 C2262 1.389 . S
C2262 C2261 1.389 . S
C2262 C2263 1.387 . S
C2263 H2248 0.930 . S
C2263 C2258 1.390 . S
C2263 C2262 1.387 . S
H2264 C2276 0.930 . S
H2265 C2278 0.930 . S
H2266 C2279 0.930 . S
H2267 C2283 0.959 . S
H2268 C2283 0.959 . S
H2269 C2283 0.961 . S
H2270 C2284 0.960 . S
H2271 C2284 0.961 . S
H2272 C2284 0.959 . S
H2273 C2287 0.929 . S
H2274 C2288 0.931 . S
H2275 C2290 0.930 . S
C2276 H2264 0.930 . S
C2276 C2277 1.399 . S
C2276 C2281 1.399 . S
C2277 C2276 1.399 . S
C2277 C2278 1.376 . S
C2278 H2265 0.930 . S
C2278 C2277 1.376 . S
C2278 C2279 1.388 . S
C2279 H2266 0.930 . S
C2279 C2278 1.388 . S
C2279 C2280 1.390 . S
C2280 C2279 1.390 . S
C2280 C2281 1.394 . S
C2280 C2286 1.465 . S
C2281 C2276 1.399 . S
C2281 C2280 1.394 . S
C2281 C2282 1.516 . S
C2282 C2281 1.516 . S
C2282 C2283 1.502 . S
C2282 C2284 1.561 . S
C2282 C2285 1.526 . S
C2283 H2267 0.959 . S
C2283 H2268 0.959 . S
C2283 H2269 0.961 . S
C2283 C2282 1.502 . S
C2284 H2270 0.960 . S
C2284 H2271 0.961 . S
C2284 H2272 0.959 . S
C2284 C2282 1.561 . S
C2285 C2282 1.526 . S
C2285 C2286 1.396 . S
C2285 C2290 1.390 . S
C2286 C2280 1.465 . S
C2286 C2285 1.396 . S
C2286 C2287 1.399 . S
C2287 H2273 0.929 . S
C2287 C2286 1.399 . S
C2287 C2288 1.385 . S
C2288 H2274 0.931 . S
C2288 C2287 1.385 . S
C2288 C2289 1.389 . S
C2289 C2288 1.389 . S
C2289 C2290 1.387 . S
C2290 H2275 0.930 . S
C2290 C2285 1.390 . S
C2290 C2289 1.387 . S
H2291 C2303 0.930 . S
H2292 C2305 0.930 . S
H2293 C2306 0.930 . S
H2294 C2310 0.959 . S
H2295 C2310 0.959 . S
H2296 C2310 0.961 . S
H2297 C2311 0.960 . S
H2298 C2311 0.961 . S
H2299 C2311 0.959 . S
H2300 C2314 0.929 . S
H2301 C2315 0.931 . S
H2302 C2317 0.930 . S
C2303 H2291 0.930 . S
C2303 C2304 1.399 . S
C2303 C2308 1.399 . S
C2304 C2303 1.399 . S
C2304 C2305 1.376 . S
C2305 H2292 0.930 . S
C2305 C2304 1.376 . S
C2305 C2306 1.388 . S
C2306 H2293 0.930 . S
C2306 C2305 1.388 . S
C2306 C2307 1.390 . S
C2307 C2306 1.390 . S
C2307 C2308 1.394 . S
C2307 C2313 1.465 . S
C2308 C2303 1.399 . S
C2308 C2307 1.394 . S
C2308 C2309 1.516 . S
C2309 C2308 1.516 . S
C2309 C2310 1.502 . S
C2309 C2311 1.561 . S
C2309 C2312 1.526 . S
C2310 H2294 0.959 . S
C2310 H2295 0.959 . S
C2310 H2296 0.961 . S
C2310 C2309 1.502 . S
C2311 H2297 0.960 . S
C2311 H2298 0.961 . S
C2311 H2299 0.959 . S
C2311 C2309 1.561 . S
C2312 C2309 1.526 . S
C2312 C2313 1.396 . S
C2312 C2317 1.390 . S
C2313 C2307 1.465 . S
C2313 C2312 1.396 . S
C2313 C2314 1.399 . S
C2314 H2300 0.929 . S
C2314 C2313 1.399 . S
C2314 C2315 1.385 . S
C2315 H2301 0.931 . S
C2315 C2314 1.385 . S
C2315 C2316 1.389 . S
C2316 C2315 1.389 . S
C2316 C2317 1.387 . S
C2317 H2302 0.930 . S
C2317 C2312 1.390 . S
C2317 C2316 1.387 . S
H2318 C2330 0.930 . S
H2319 C2332 0.930 . S
H2320 C2333 0.930 . S
H2321 C2337 0.959 . S
H2322 C2337 0.959 . S
H2323 C2337 0.961 . S
H2324 C2338 0.960 . S
H2325 C2338 0.961 . S
H2326 C2338 0.959 . S
H2327 C2341 0.929 . S
H2328 C2342 0.931 . S
H2329 C2344 0.930 . S
C2330 H2318 0.930 . S
C2330 C2331 1.399 . S
C2330 C2335 1.399 . S
C2331 C2330 1.399 . S
C2331 C2332 1.376 . S
C2332 H2319 0.930 . S
C2332 C2331 1.376 . S
C2332 C2333 1.388 . S
C2333 H2320 0.930 . S
C2333 C2332 1.388 . S
C2333 C2334 1.390 . S
C2334 C2333 1.390 . S
C2334 C2335 1.394 . S
C2334 C2340 1.465 . S
C2335 C2330 1.399 . S
C2335 C2334 1.394 . S
C2335 C2336 1.516 . S
C2336 C2335 1.516 . S
C2336 C2337 1.502 . S
C2336 C2338 1.561 . S
C2336 C2339 1.526 . S
C2337 H2321 0.959 . S
C2337 H2322 0.959 . S
C2337 H2323 0.961 . S
C2337 C2336 1.502 . S
C2338 H2324 0.960 . S
C2338 H2325 0.961 . S
C2338 H2326 0.959 . S
C2338 C2336 1.561 . S
C2339 C2336 1.526 . S
C2339 C2340 1.396 . S
C2339 C2344 1.390 . S
C2340 C2334 1.465 . S
C2340 C2339 1.396 . S
C2340 C2341 1.399 . S
C2341 H2327 0.929 . S
C2341 C2340 1.399 . S
C2341 C2342 1.385 . S
C2342 H2328 0.931 . S
C2342 C2341 1.385 . S
C2342 C2343 1.389 . S
C2343 C2342 1.389 . S
C2343 C2344 1.387 . S
C2344 H2329 0.930 . S
C2344 C2339 1.390 . S
C2344 C2343 1.387 . S
H2345 C2357 0.930 . S
H2346 C2359 0.930 . S
H2347 C2360 0.930 . S
H2348 C2364 0.959 . S
H2349 C2364 0.959 . S
H2350 C2364 0.961 . S
H2351 C2365 0.960 . S
H2352 C2365 0.961 . S
H2353 C2365 0.959 . S
H2354 C2368 0.929 . S
H2355 C2369 0.931 . S
H2356 C2371 0.930 . S
C2357 H2345 0.930 . S
C2357 C2358 1.399 . S
C2357 C2362 1.399 . S
C2358 C2357 1.399 . S
C2358 C2359 1.376 . S
C2359 H2346 0.930 . S
C2359 C2358 1.376 . S
C2359 C2360 1.388 . S
C2360 H2347 0.930 . S
C2360 C2359 1.388 . S
C2360 C2361 1.390 . S
C2361 C2360 1.390 . S
C2361 C2362 1.394 . S
C2361 C2367 1.465 . S
C2362 C2357 1.399 . S
C2362 C2361 1.394 . S
C2362 C2363 1.516 . S
C2363 C2362 1.516 . S
C2363 C2364 1.502 . S
C2363 C2365 1.561 . S
C2363 C2366 1.526 . S
C2364 H2348 0.959 . S
C2364 H2349 0.959 . S
C2364 H2350 0.961 . S
C2364 C2363 1.502 . S
C2365 H2351 0.960 . S
C2365 H2352 0.961 . S
C2365 H2353 0.959 . S
C2365 C2363 1.561 . S
C2366 C2363 1.526 . S
C2366 C2367 1.396 . S
C2366 C2371 1.390 . S
C2367 C2361 1.465 . S
C2367 C2366 1.396 . S
C2367 C2368 1.399 . S
C2368 H2354 0.929 . S
C2368 C2367 1.399 . S
C2368 C2369 1.385 . S
C2369 H2355 0.931 . S
C2369 C2368 1.385 . S
C2369 C2370 1.389 . S
C2370 C2369 1.389 . S
C2370 C2371 1.387 . S
C2371 H2356 0.930 . S
C2371 C2366 1.390 . S
C2371 C2370 1.387 . S
H2372 C2384 0.930 . S
H2373 C2386 0.930 . S
H2374 C2387 0.930 . S
H2375 C2391 0.959 . S
H2376 C2391 0.959 . S
H2377 C2391 0.961 . S
H2378 C2392 0.960 . S
H2379 C2392 0.961 . S
H2380 C2392 0.959 . S
H2381 C2395 0.929 . S
H2382 C2396 0.931 . S
H2383 C2398 0.930 . S
C2384 H2372 0.930 . S
C2384 C2385 1.399 . S
C2384 C2389 1.399 . S
C2385 C2384 1.399 . S
C2385 C2386 1.376 . S
C2386 H2373 0.930 . S
C2386 C2385 1.376 . S
C2386 C2387 1.388 . S
C2387 H2374 0.930 . S
C2387 C2386 1.388 . S
C2387 C2388 1.390 . S
C2388 C2387 1.390 . S
C2388 C2389 1.394 . S
C2388 C2394 1.465 . S
C2389 C2384 1.399 . S
C2389 C2388 1.394 . S
C2389 C2390 1.516 . S
C2390 C2389 1.516 . S
C2390 C2391 1.502 . S
C2390 C2392 1.561 . S
C2390 C2393 1.526 . S
C2391 H2375 0.959 . S
C2391 H2376 0.959 . S
C2391 H2377 0.961 . S
C2391 C2390 1.502 . S
C2392 H2378 0.960 . S
C2392 H2379 0.961 . S
C2392 H2380 0.959 . S
C2392 C2390 1.561 . S
C2393 C2390 1.526 . S
C2393 C2394 1.396 . S
C2393 C2398 1.390 . S
C2394 C2388 1.465 . S
C2394 C2393 1.396 . S
C2394 C2395 1.399 . S
C2395 H2381 0.929 . S
C2395 C2394 1.399 . S
C2395 C2396 1.385 . S
C2396 H2382 0.931 . S
C2396 C2395 1.385 . S
C2396 C2397 1.389 . S
C2397 C2396 1.389 . S
C2397 C2398 1.387 . S
C2398 H2383 0.930 . S
C2398 C2393 1.390 . S
C2398 C2397 1.387 . S
H2399 C2411 0.930 . S
H2400 C2413 0.930 . S
H2401 C2414 0.930 . S
H2402 C2418 0.959 . S
H2403 C2418 0.959 . S
H2404 C2418 0.961 . S
H2405 C2419 0.960 . S
H2406 C2419 0.961 . S
H2407 C2419 0.959 . S
H2408 C2422 0.929 . S
H2409 C2423 0.931 . S
H2410 C2425 0.930 . S
C2411 H2399 0.930 . S
C2411 C2412 1.399 . S
C2411 C2416 1.399 . S
C2412 C2411 1.399 . S
C2412 C2413 1.376 . S
C2413 H2400 0.930 . S
C2413 C2412 1.376 . S
C2413 C2414 1.388 . S
C2414 H2401 0.930 . S
C2414 C2413 1.388 . S
C2414 C2415 1.390 . S
C2415 C2414 1.390 . S
C2415 C2416 1.394 . S
C2415 C2421 1.465 . S
C2416 C2411 1.399 . S
C2416 C2415 1.394 . S
C2416 C2417 1.516 . S
C2417 C2416 1.516 . S
C2417 C2418 1.502 . S
C2417 C2419 1.561 . S
C2417 C2420 1.526 . S
C2418 H2402 0.959 . S
C2418 H2403 0.959 . S
C2418 H2404 0.961 . S
C2418 C2417 1.502 . S
C2419 H2405 0.960 . S
C2419 H2406 0.961 . S
C2419 H2407 0.959 . S
C2419 C2417 1.561 . S
C2420 C2417 1.526 . S
C2420 C2421 1.396 . S
C2420 C2425 1.390 . S
C2421 C2415 1.465 . S
C2421 C2420 1.396 . S
C2421 C2422 1.399 . S
C2422 H2408 0.929 . S
C2422 C2421 1.399 . S
C2422 C2423 1.385 . S
C2423 H2409 0.931 . S
C2423 C2422 1.385 . S
C2423 C2424 1.389 . S
C2424 C2423 1.389 . S
C2424 C2425 1.387 . S
C2425 H2410 0.930 . S
C2425 C2420 1.390 . S
C2425 C2424 1.387 . S
H2426 C2438 0.930 . S
H2427 C2440 0.930 . S
H2428 C2441 0.930 . S
H2429 C2445 0.959 . S
H2430 C2445 0.959 . S
H2431 C2445 0.961 . S
H2432 C2446 0.960 . S
H2433 C2446 0.961 . S
H2434 C2446 0.959 . S
H2435 C2449 0.929 . S
H2436 C2450 0.931 . S
H2437 C2452 0.930 . S
C2438 H2426 0.930 . S
C2438 C2439 1.399 . S
C2438 C2443 1.399 . S
C2439 C2438 1.399 . S
C2439 C2440 1.376 . S
C2440 H2427 0.930 . S
C2440 C2439 1.376 . S
C2440 C2441 1.388 . S
C2441 H2428 0.930 . S
C2441 C2440 1.388 . S
C2441 C2442 1.390 . S
C2442 C2441 1.390 . S
C2442 C2443 1.394 . S
C2442 C2448 1.465 . S
C2443 C2438 1.399 . S
C2443 C2442 1.394 . S
C2443 C2444 1.516 . S
C2444 C2443 1.516 . S
C2444 C2445 1.502 . S
C2444 C2446 1.561 . S
C2444 C2447 1.526 . S
C2445 H2429 0.959 . S
C2445 H2430 0.959 . S
C2445 H2431 0.961 . S
C2445 C2444 1.502 . S
C2446 H2432 0.960 . S
C2446 H2433 0.961 . S
C2446 H2434 0.959 . S
C2446 C2444 1.561 . S
C2447 C2444 1.526 . S
C2447 C2448 1.396 . S
C2447 C2452 1.390 . S
C2448 C2442 1.465 . S
C2448 C2447 1.396 . S
C2448 C2449 1.399 . S
C2449 H2435 0.929 . S
C2449 C2448 1.399 . S
C2449 C2450 1.385 . S
C2450 H2436 0.931 . S
C2450 C2449 1.385 . S
C2450 C2451 1.389 . S
C2451 C2450 1.389 . S
C2451 C2452 1.387 . S
C2452 H2437 0.930 . S
C2452 C2447 1.390 . S
C2452 C2451 1.387 . S
H2453 C2465 0.930 . S
H2454 C2467 0.930 . S
H2455 C2468 0.930 . S
H2456 C2472 0.959 . S
H2457 C2472 0.959 . S
H2458 C2472 0.961 . S
H2459 C2473 0.960 . S
H2460 C2473 0.961 . S
H2461 C2473 0.959 . S
H2462 C2476 0.929 . S
H2463 C2477 0.931 . S
H2464 C2479 0.930 . S
C2465 H2453 0.930 . S
C2465 C2466 1.399 . S
C2465 C2470 1.399 . S
C2466 C2465 1.399 . S
C2466 C2467 1.376 . S
C2467 H2454 0.930 . S
C2467 C2466 1.376 . S
C2467 C2468 1.388 . S
C2468 H2455 0.930 . S
C2468 C2467 1.388 . S
C2468 C2469 1.390 . S
C2469 C2468 1.390 . S
C2469 C2470 1.394 . S
C2469 C2475 1.465 . S
C2470 C2465 1.399 . S
C2470 C2469 1.394 . S
C2470 C2471 1.516 . S
C2471 C2470 1.516 . S
C2471 C2472 1.502 . S
C2471 C2473 1.561 . S
C2471 C2474 1.526 . S
C2472 H2456 0.959 . S
C2472 H2457 0.959 . S
C2472 H2458 0.961 . S
C2472 C2471 1.502 . S
C2473 H2459 0.960 . S
C2473 H2460 0.961 . S
C2473 H2461 0.959 . S
C2473 C2471 1.561 . S
C2474 C2471 1.526 . S
C2474 C2475 1.396 . S
C2474 C2479 1.390 . S
C2475 C2469 1.465 . S
C2475 C2474 1.396 . S
C2475 C2476 1.399 . S
C2476 H2462 0.929 . S
C2476 C2475 1.399 . S
C2476 C2477 1.385 . S
C2477 H2463 0.931 . S
C2477 C2476 1.385 . S
C2477 C2478 1.389 . S
C2478 C2477 1.389 . S
C2478 C2479 1.387 . S
C2479 H2464 0.930 . S
C2479 C2474 1.390 . S
C2479 C2478 1.387 . S
H2480 C2492 0.930 . S
H2481 C2494 0.930 . S
H2482 C2495 0.930 . S
H2483 C2499 0.959 . S
H2484 C2499 0.959 . S
H2485 C2499 0.961 . S
H2486 C2500 0.960 . S
H2487 C2500 0.961 . S
H2488 C2500 0.959 . S
H2489 C2503 0.929 . S
H2490 C2504 0.931 . S
H2491 C2506 0.930 . S
C2492 H2480 0.930 . S
C2492 C2493 1.399 . S
C2492 C2497 1.399 . S
C2493 C2492 1.399 . S
C2493 C2494 1.376 . S
C2494 H2481 0.930 . S
C2494 C2493 1.376 . S
C2494 C2495 1.388 . S
C2495 H2482 0.930 . S
C2495 C2494 1.388 . S
C2495 C2496 1.390 . S
C2496 C2495 1.390 . S
C2496 C2497 1.394 . S
C2496 C2502 1.465 . S
C2497 C2492 1.399 . S
C2497 C2496 1.394 . S
C2497 C2498 1.516 . S
C2498 C2497 1.516 . S
C2498 C2499 1.502 . S
C2498 C2500 1.561 . S
C2498 C2501 1.526 . S
C2499 H2483 0.959 . S
C2499 H2484 0.959 . S
C2499 H2485 0.961 . S
C2499 C2498 1.502 . S
C2500 H2486 0.960 . S
C2500 H2487 0.961 . S
C2500 H2488 0.959 . S
C2500 C2498 1.561 . S
C2501 C2498 1.526 . S
C2501 C2502 1.396 . S
C2501 C2506 1.390 . S
C2502 C2496 1.465 . S
C2502 C2501 1.396 . S
C2502 C2503 1.399 . S
C2503 H2489 0.929 . S
C2503 C2502 1.399 . S
C2503 C2504 1.385 . S
C2504 H2490 0.931 . S
C2504 C2503 1.385 . S
C2504 C2505 1.389 . S
C2505 C2504 1.389 . S
C2505 C2506 1.387 . S
C2506 H2491 0.930 . S
C2506 C2501 1.390 . S
C2506 C2505 1.387 . S
H2507 C2519 0.930 . S
H2508 C2521 0.930 . S
H2509 C2522 0.930 . S
H2510 C2526 0.959 . S
H2511 C2526 0.959 . S
H2512 C2526 0.961 . S
H2513 C2527 0.960 . S
H2514 C2527 0.961 . S
H2515 C2527 0.959 . S
H2516 C2530 0.929 . S
H2517 C2531 0.931 . S
H2518 C2533 0.930 . S
C2519 H2507 0.930 . S
C2519 C2520 1.399 . S
C2519 C2524 1.399 . S
C2520 C2519 1.399 . S
C2520 C2521 1.376 . S
C2521 H2508 0.930 . S
C2521 C2520 1.376 . S
C2521 C2522 1.388 . S
C2522 H2509 0.930 . S
C2522 C2521 1.388 . S
C2522 C2523 1.390 . S
C2523 C2522 1.390 . S
C2523 C2524 1.394 . S
C2523 C2529 1.465 . S
C2524 C2519 1.399 . S
C2524 C2523 1.394 . S
C2524 C2525 1.516 . S
C2525 C2524 1.516 . S
C2525 C2526 1.502 . S
C2525 C2527 1.561 . S
C2525 C2528 1.526 . S
C2526 H2510 0.959 . S
C2526 H2511 0.959 . S
C2526 H2512 0.961 . S
C2526 C2525 1.502 . S
C2527 H2513 0.960 . S
C2527 H2514 0.961 . S
C2527 H2515 0.959 . S
C2527 C2525 1.561 . S
C2528 C2525 1.526 . S
C2528 C2529 1.396 . S
C2528 C2533 1.390 . S
C2529 C2523 1.465 . S
C2529 C2528 1.396 . S
C2529 C2530 1.399 . S
C2530 H2516 0.929 . S
C2530 C2529 1.399 . S
C2530 C2531 1.385 . S
C2531 H2517 0.931 . S
C2531 C2530 1.385 . S
C2531 C2532 1.389 . S
C2532 C2531 1.389 . S
C2532 C2533 1.387 . S
C2533 H2518 0.930 . S
C2533 C2528 1.390 . S
C2533 C2532 1.387 . S
H2534 C2546 0.930 . S
H2535 C2548 0.930 . S
H2536 C2549 0.930 . S
H2537 C2553 0.959 . S
H2538 C2553 0.959 . S
H2539 C2553 0.961 . S
H2540 C2554 0.960 . S
H2541 C2554 0.961 . S
H2542 C2554 0.959 . S
H2543 C2557 0.929 . S
H2544 C2558 0.931 . S
H2545 C2560 0.930 . S
C2546 H2534 0.930 . S
C2546 C2547 1.399 . S
C2546 C2551 1.399 . S
C2547 C2546 1.399 . S
C2547 C2548 1.376 . S
C2548 H2535 0.930 . S
C2548 C2547 1.376 . S
C2548 C2549 1.388 . S
C2549 H2536 0.930 . S
C2549 C2548 1.388 . S
C2549 C2550 1.390 . S
C2550 C2549 1.390 . S
C2550 C2551 1.394 . S
C2550 C2556 1.465 . S
C2551 C2546 1.399 . S
C2551 C2550 1.394 . S
C2551 C2552 1.516 . S
C2552 C2551 1.516 . S
C2552 C2553 1.502 . S
C2552 C2554 1.561 . S
C2552 C2555 1.526 . S
C2553 H2537 0.959 . S
C2553 H2538 0.959 . S
C2553 H2539 0.961 . S
C2553 C2552 1.502 . S
C2554 H2540 0.960 . S
C2554 H2541 0.961 . S
C2554 H2542 0.959 . S
C2554 C2552 1.561 . S
C2555 C2552 1.526 . S
C2555 C2556 1.396 . S
C2555 C2560 1.390 . S
C2556 C2550 1.465 . S
C2556 C2555 1.396 . S
C2556 C2557 1.399 . S
C2557 H2543 0.929 . S
C2557 C2556 1.399 . S
C2557 C2558 1.385 . S
C2558 H2544 0.931 . S
C2558 C2557 1.385 . S
C2558 C2559 1.389 . S
C2559 C2558 1.389 . S
C2559 C2560 1.387 . S
C2560 H2545 0.930 . S
C2560 C2555 1.390 . S
C2560 C2559 1.387 . S
H2561 C2573 0.930 . S
H2562 C2575 0.930 . S
H2563 C2576 0.930 . S
H2564 C2580 0.959 . S
H2565 C2580 0.959 . S
H2566 C2580 0.961 . S
H2567 C2581 0.960 . S
H2568 C2581 0.961 . S
H2569 C2581 0.959 . S
H2570 C2584 0.929 . S
H2571 C2585 0.931 . S
H2572 C2587 0.930 . S
C2573 H2561 0.930 . S
C2573 C2574 1.399 . S
C2573 C2578 1.399 . S
C2574 C2573 1.399 . S
C2574 C2575 1.376 . S
C2575 H2562 0.930 . S
C2575 C2574 1.376 . S
C2575 C2576 1.388 . S
C2576 H2563 0.930 . S
C2576 C2575 1.388 . S
C2576 C2577 1.390 . S
C2577 C2576 1.390 . S
C2577 C2578 1.394 . S
C2577 C2583 1.465 . S
C2578 C2573 1.399 . S
C2578 C2577 1.394 . S
C2578 C2579 1.516 . S
C2579 C2578 1.516 . S
C2579 C2580 1.502 . S
C2579 C2581 1.561 . S
C2579 C2582 1.526 . S
C2580 H2564 0.959 . S
C2580 H2565 0.959 . S
C2580 H2566 0.961 . S
C2580 C2579 1.502 . S
C2581 H2567 0.960 . S
C2581 H2568 0.961 . S
C2581 H2569 0.959 . S
C2581 C2579 1.561 . S
C2582 C2579 1.526 . S
C2582 C2583 1.396 . S
C2582 C2587 1.390 . S
C2583 C2577 1.465 . S
C2583 C2582 1.396 . S
C2583 C2584 1.399 . S
C2584 H2570 0.929 . S
C2584 C2583 1.399 . S
C2584 C2585 1.385 . S
C2585 H2571 0.931 . S
C2585 C2584 1.385 . S
C2585 C2586 1.389 . S
C2586 C2585 1.389 . S
C2586 C2587 1.387 . S
C2587 H2572 0.930 . S
C2587 C2582 1.390 . S
C2587 C2586 1.387 . S
H2588 C2600 0.930 . S
H2589 C2602 0.930 . S
H2590 C2603 0.930 . S
H2591 C2607 0.959 . S
H2592 C2607 0.959 . S
H2593 C2607 0.961 . S
H2594 C2608 0.960 . S
H2595 C2608 0.961 . S
H2596 C2608 0.959 . S
H2597 C2611 0.929 . S
H2598 C2612 0.931 . S
H2599 C2614 0.930 . S
C2600 H2588 0.930 . S
C2600 C2601 1.399 . S
C2600 C2605 1.399 . S
C2601 C2600 1.399 . S
C2601 C2602 1.376 . S
C2602 H2589 0.930 . S
C2602 C2601 1.376 . S
C2602 C2603 1.388 . S
C2603 H2590 0.930 . S
C2603 C2602 1.388 . S
C2603 C2604 1.390 . S
C2604 C2603 1.390 . S
C2604 C2605 1.394 . S
C2604 C2610 1.465 . S
C2605 C2600 1.399 . S
C2605 C2604 1.394 . S
C2605 C2606 1.516 . S
C2606 C2605 1.516 . S
C2606 C2607 1.502 . S
C2606 C2608 1.561 . S
C2606 C2609 1.526 . S
C2607 H2591 0.959 . S
C2607 H2592 0.959 . S
C2607 H2593 0.961 . S
C2607 C2606 1.502 . S
C2608 H2594 0.960 . S
C2608 H2595 0.961 . S
C2608 H2596 0.959 . S
C2608 C2606 1.561 . S
C2609 C2606 1.526 . S
C2609 C2610 1.396 . S
C2609 C2614 1.390 . S
C2610 C2604 1.465 . S
C2610 C2609 1.396 . S
C2610 C2611 1.399 . S
C2611 H2597 0.929 . S
C2611 C2610 1.399 . S
C2611 C2612 1.385 . S
C2612 H2598 0.931 . S
C2612 C2611 1.385 . S
C2612 C2613 1.389 . S
C2613 C2612 1.389 . S
C2613 C2614 1.387 . S
C2614 H2599 0.930 . S
C2614 C2609 1.390 . S
C2614 C2613 1.387 . S
H2615 C2627 0.930 . S
H2616 C2629 0.930 . S
H2617 C2630 0.930 . S
H2618 C2634 0.959 . S
H2619 C2634 0.959 . S
H2620 C2634 0.961 . S
H2621 C2635 0.960 . S
H2622 C2635 0.961 . S
H2623 C2635 0.959 . S
H2624 C2638 0.929 . S
H2625 C2639 0.931 . S
H2626 C2641 0.930 . S
C2627 H2615 0.930 . S
C2627 C2628 1.399 . S
C2627 C2632 1.399 . S
C2628 C2627 1.399 . S
C2628 C2629 1.376 . S
C2629 H2616 0.930 . S
C2629 C2628 1.376 . S
C2629 C2630 1.388 . S
C2630 H2617 0.930 . S
C2630 C2629 1.388 . S
C2630 C2631 1.390 . S
C2631 C2630 1.390 . S
C2631 C2632 1.394 . S
C2631 C2637 1.465 . S
C2632 C2627 1.399 . S
C2632 C2631 1.394 . S
C2632 C2633 1.516 . S
C2633 C2632 1.516 . S
C2633 C2634 1.502 . S
C2633 C2635 1.561 . S
C2633 C2636 1.526 . S
C2634 H2618 0.959 . S
C2634 H2619 0.959 . S
C2634 H2620 0.961 . S
C2634 C2633 1.502 . S
C2635 H2621 0.960 . S
C2635 H2622 0.961 . S
C2635 H2623 0.959 . S
C2635 C2633 1.561 . S
C2636 C2633 1.526 . S
C2636 C2637 1.396 . S
C2636 C2641 1.390 . S
C2637 C2631 1.465 . S
C2637 C2636 1.396 . S
C2637 C2638 1.399 . S
C2638 H2624 0.929 . S
C2638 C2637 1.399 . S
C2638 C2639 1.385 . S
C2639 H2625 0.931 . S
C2639 C2638 1.385 . S
C2639 C2640 1.389 . S
C2640 C2639 1.389 . S
C2640 C2641 1.387 . S
C2641 H2626 0.930 . S
C2641 C2636 1.390 . S
C2641 C2640 1.387 . S
H2642 C2654 0.930 . S
H2643 C2656 0.930 . S
H2644 C2657 0.930 . S
H2645 C2661 0.959 . S
H2646 C2661 0.959 . S
H2647 C2661 0.961 . S
H2648 C2662 0.960 . S
H2649 C2662 0.961 . S
H2650 C2662 0.959 . S
H2651 C2665 0.929 . S
H2652 C2666 0.931 . S
H2653 C2668 0.930 . S
C2654 H2642 0.930 . S
C2654 C2655 1.399 . S
C2654 C2659 1.399 . S
C2655 C2654 1.399 . S
C2655 C2656 1.376 . S
C2656 H2643 0.930 . S
C2656 C2655 1.376 . S
C2656 C2657 1.388 . S
C2657 H2644 0.930 . S
C2657 C2656 1.388 . S
C2657 C2658 1.390 . S
C2658 C2657 1.390 . S
C2658 C2659 1.394 . S
C2658 C2664 1.465 . S
C2659 C2654 1.399 . S
C2659 C2658 1.394 . S
C2659 C2660 1.516 . S
C2660 C2659 1.516 . S
C2660 C2661 1.502 . S
C2660 C2662 1.561 . S
C2660 C2663 1.526 . S
C2661 H2645 0.959 . S
C2661 H2646 0.959 . S
C2661 H2647 0.961 . S
C2661 C2660 1.502 . S
C2662 H2648 0.960 . S
C2662 H2649 0.961 . S
C2662 H2650 0.959 . S
C2662 C2660 1.561 . S
C2663 C2660 1.526 . S
C2663 C2664 1.396 . S
C2663 C2668 1.390 . S
C2664 C2658 1.465 . S
C2664 C2663 1.396 . S
C2664 C2665 1.399 . S
C2665 H2651 0.929 . S
C2665 C2664 1.399 . S
C2665 C2666 1.385 . S
C2666 H2652 0.931 . S
C2666 C2665 1.385 . S
C2666 C2667 1.389 . S
C2667 C2666 1.389 . S
C2667 C2668 1.387 . S
C2668 H2653 0.930 . S
C2668 C2663 1.390 . S
C2668 C2667 1.387 . S
H2669 C2681 0.930 . S
H2670 C2683 0.930 . S
H2671 C2684 0.930 . S
H2672 C2688 0.959 . S
H2673 C2688 0.959 . S
H2674 C2688 0.961 . S
H2675 C2689 0.960 . S
H2676 C2689 0.961 . S
H2677 C2689 0.959 . S
H2678 C2692 0.929 . S
H2679 C2693 0.931 . S
H2680 C2695 0.930 . S
C2681 H2669 0.930 . S
C2681 C2682 1.399 . S
C2681 C2686 1.399 . S
C2682 C2681 1.399 . S
C2682 C2683 1.376 . S
C2683 H2670 0.930 . S
C2683 C2682 1.376 . S
C2683 C2684 1.388 . S
C2684 H2671 0.930 . S
C2684 C2683 1.388 . S
C2684 C2685 1.390 . S
C2685 C2684 1.390 . S
C2685 C2686 1.394 . S
C2685 C2691 1.465 . S
C2686 C2681 1.399 . S
C2686 C2685 1.394 . S
C2686 C2687 1.516 . S
C2687 C2686 1.516 . S
C2687 C2688 1.502 . S
C2687 C2689 1.561 . S
C2687 C2690 1.526 . S
C2688 H2672 0.959 . S
C2688 H2673 0.959 . S
C2688 H2674 0.961 . S
C2688 C2687 1.502 . S
C2689 H2675 0.960 . S
C2689 H2676 0.961 . S
C2689 H2677 0.959 . S
C2689 C2687 1.561 . S
C2690 C2687 1.526 . S
C2690 C2691 1.396 . S
C2690 C2695 1.390 . S
C2691 C2685 1.465 . S
C2691 C2690 1.396 . S
C2691 C2692 1.399 . S
C2692 H2678 0.929 . S
C2692 C2691 1.399 . S
C2692 C2693 1.385 . S
C2693 H2679 0.931 . S
C2693 C2692 1.385 . S
C2693 C2694 1.389 . S
C2694 C2693 1.389 . S
C2694 C2695 1.387 . S
C2695 H2680 0.930 . S
C2695 C2690 1.390 . S
C2695 C2694 1.387 . S
H2696 C2708 0.930 . S
H2697 C2710 0.930 . S
H2698 C2711 0.930 . S
H2699 C2715 0.959 . S
H2700 C2715 0.959 . S
H2701 C2715 0.961 . S
H2702 C2716 0.960 . S
H2703 C2716 0.961 . S
H2704 C2716 0.959 . S
H2705 C2719 0.929 . S
H2706 C2720 0.931 . S
H2707 C2722 0.930 . S
C2708 H2696 0.930 . S
C2708 C2709 1.399 . S
C2708 C2713 1.399 . S
C2709 C2708 1.399 . S
C2709 C2710 1.376 . S
C2710 H2697 0.930 . S
C2710 C2709 1.376 . S
C2710 C2711 1.388 . S
C2711 H2698 0.930 . S
C2711 C2710 1.388 . S
C2711 C2712 1.390 . S
C2712 C2711 1.390 . S
C2712 C2713 1.394 . S
C2712 C2718 1.465 . S
C2713 C2708 1.399 . S
C2713 C2712 1.394 . S
C2713 C2714 1.516 . S
C2714 C2713 1.516 . S
C2714 C2715 1.502 . S
C2714 C2716 1.561 . S
C2714 C2717 1.526 . S
C2715 H2699 0.959 . S
C2715 H2700 0.959 . S
C2715 H2701 0.961 . S
C2715 C2714 1.502 . S
C2716 H2702 0.960 . S
C2716 H2703 0.961 . S
C2716 H2704 0.959 . S
C2716 C2714 1.561 . S
C2717 C2714 1.526 . S
C2717 C2718 1.396 . S
C2717 C2722 1.390 . S
C2718 C2712 1.465 . S
C2718 C2717 1.396 . S
C2718 C2719 1.399 . S
C2719 H2705 0.929 . S
C2719 C2718 1.399 . S
C2719 C2720 1.385 . S
C2720 H2706 0.931 . S
C2720 C2719 1.385 . S
C2720 C2721 1.389 . S
C2721 C2720 1.389 . S
C2721 C2722 1.387 . S
C2722 H2707 0.930 . S
C2722 C2717 1.390 . S
C2722 C2721 1.387 . S
H2723 C2735 0.930 . S
H2724 C2737 0.930 . S
H2725 C2738 0.930 . S
H2726 C2742 0.959 . S
H2727 C2742 0.959 . S
H2728 C2742 0.961 . S
H2729 C2743 0.960 . S
H2730 C2743 0.961 . S
H2731 C2743 0.959 . S
H2732 C2746 0.929 . S
H2733 C2747 0.931 . S
H2734 C2749 0.930 . S
C2735 H2723 0.930 . S
C2735 C2736 1.399 . S
C2735 C2740 1.399 . S
C2736 C2735 1.399 . S
C2736 C2737 1.376 . S
C2737 H2724 0.930 . S
C2737 C2736 1.376 . S
C2737 C2738 1.388 . S
C2738 H2725 0.930 . S
C2738 C2737 1.388 . S
C2738 C2739 1.390 . S
C2739 C2738 1.390 . S
C2739 C2740 1.394 . S
C2739 C2745 1.465 . S
C2740 C2735 1.399 . S
C2740 C2739 1.394 . S
C2740 C2741 1.516 . S
C2741 C2740 1.516 . S
C2741 C2742 1.502 . S
C2741 C2743 1.561 . S
C2741 C2744 1.526 . S
C2742 H2726 0.959 . S
C2742 H2727 0.959 . S
C2742 H2728 0.961 . S
C2742 C2741 1.502 . S
C2743 H2729 0.960 . S
C2743 H2730 0.961 . S
C2743 H2731 0.959 . S
C2743 C2741 1.561 . S
C2744 C2741 1.526 . S
C2744 C2745 1.396 . S
C2744 C2749 1.390 . S
C2745 C2739 1.465 . S
C2745 C2744 1.396 . S
C2745 C2746 1.399 . S
C2746 H2732 0.929 . S
C2746 C2745 1.399 . S
C2746 C2747 1.385 . S
C2747 H2733 0.931 . S
C2747 C2746 1.385 . S
C2747 C2748 1.389 . S
C2748 C2747 1.389 . S
C2748 C2749 1.387 . S
C2749 H2734 0.930 . S
C2749 C2744 1.390 . S
C2749 C2748 1.387 . S
H2750 C2762 0.930 . S
H2751 C2764 0.930 . S
H2752 C2765 0.930 . S
H2753 C2769 0.959 . S
H2754 C2769 0.959 . S
H2755 C2769 0.961 . S
H2756 C2770 0.960 . S
H2757 C2770 0.961 . S
H2758 C2770 0.959 . S
H2759 C2773 0.929 . S
H2760 C2774 0.931 . S
H2761 C2776 0.930 . S
C2762 H2750 0.930 . S
C2762 C2763 1.399 . S
C2762 C2767 1.399 . S
C2763 C2762 1.399 . S
C2763 C2764 1.376 . S
C2764 H2751 0.930 . S
C2764 C2763 1.376 . S
C2764 C2765 1.388 . S
C2765 H2752 0.930 . S
C2765 C2764 1.388 . S
C2765 C2766 1.390 . S
C2766 C2765 1.390 . S
C2766 C2767 1.394 . S
C2766 C2772 1.465 . S
C2767 C2762 1.399 . S
C2767 C2766 1.394 . S
C2767 C2768 1.516 . S
C2768 C2767 1.516 . S
C2768 C2769 1.502 . S
C2768 C2770 1.561 . S
C2768 C2771 1.526 . S
C2769 H2753 0.959 . S
C2769 H2754 0.959 . S
C2769 H2755 0.961 . S
C2769 C2768 1.502 . S
C2770 H2756 0.960 . S
C2770 H2757 0.961 . S
C2770 H2758 0.959 . S
C2770 C2768 1.561 . S
C2771 C2768 1.526 . S
C2771 C2772 1.396 . S
C2771 C2776 1.390 . S
C2772 C2766 1.465 . S
C2772 C2771 1.396 . S
C2772 C2773 1.399 . S
C2773 H2759 0.929 . S
C2773 C2772 1.399 . S
C2773 C2774 1.385 . S
C2774 H2760 0.931 . S
C2774 C2773 1.385 . S
C2774 C2775 1.389 . S
C2775 C2774 1.389 . S
C2775 C2776 1.387 . S
C2776 H2761 0.930 . S
C2776 C2771 1.390 . S
C2776 C2775 1.387 . S
H2777 C2789 0.930 . S
H2778 C2791 0.930 . S
H2779 C2792 0.930 . S
H2780 C2796 0.959 . S
H2781 C2796 0.959 . S
H2782 C2796 0.961 . S
H2783 C2797 0.960 . S
H2784 C2797 0.961 . S
H2785 C2797 0.959 . S
H2786 C2800 0.929 . S
H2787 C2801 0.931 . S
H2788 C2803 0.930 . S
C2789 H2777 0.930 . S
C2789 C2790 1.399 . S
C2789 C2794 1.399 . S
C2790 C2789 1.399 . S
C2790 C2791 1.376 . S
C2791 H2778 0.930 . S
C2791 C2790 1.376 . S
C2791 C2792 1.388 . S
C2792 H2779 0.930 . S
C2792 C2791 1.388 . S
C2792 C2793 1.390 . S
C2793 C2792 1.390 . S
C2793 C2794 1.394 . S
C2793 C2799 1.465 . S
C2794 C2789 1.399 . S
C2794 C2793 1.394 . S
C2794 C2795 1.516 . S
C2795 C2794 1.516 . S
C2795 C2796 1.502 . S
C2795 C2797 1.561 . S
C2795 C2798 1.526 . S
C2796 H2780 0.959 . S
C2796 H2781 0.959 . S
C2796 H2782 0.961 . S
C2796 C2795 1.502 . S
C2797 H2783 0.960 . S
C2797 H2784 0.961 . S
C2797 H2785 0.959 . S
C2797 C2795 1.561 . S
C2798 C2795 1.526 . S
C2798 C2799 1.396 . S
C2798 C2803 1.390 . S
C2799 C2793 1.465 . S
C2799 C2798 1.396 . S
C2799 C2800 1.399 . S
C2800 H2786 0.929 . S
C2800 C2799 1.399 . S
C2800 C2801 1.385 . S
C2801 H2787 0.931 . S
C2801 C2800 1.385 . S
C2801 C2802 1.389 . S
C2802 C2801 1.389 . S
C2802 C2803 1.387 . S
C2803 H2788 0.930 . S
C2803 C2798 1.390 . S
C2803 C2802 1.387 . S
H2804 C2816 0.930 . S
H2805 C2818 0.930 . S
H2806 C2819 0.930 . S
H2807 C2823 0.959 . S
H2808 C2823 0.959 . S
H2809 C2823 0.961 . S
H2810 C2824 0.960 . S
H2811 C2824 0.961 . S
H2812 C2824 0.959 . S
H2813 C2827 0.929 . S
H2814 C2828 0.931 . S
H2815 C2830 0.930 . S
C2816 H2804 0.930 . S
C2816 C2817 1.399 . S
C2816 C2821 1.399 . S
C2817 C2816 1.399 . S
C2817 C2818 1.376 . S
C2818 H2805 0.930 . S
C2818 C2817 1.376 . S
C2818 C2819 1.388 . S
C2819 H2806 0.930 . S
C2819 C2818 1.388 . S
C2819 C2820 1.390 . S
C2820 C2819 1.390 . S
C2820 C2821 1.394 . S
C2820 C2826 1.465 . S
C2821 C2816 1.399 . S
C2821 C2820 1.394 . S
C2821 C2822 1.516 . S
C2822 C2821 1.516 . S
C2822 C2823 1.502 . S
C2822 C2824 1.561 . S
C2822 C2825 1.526 . S
C2823 H2807 0.959 . S
C2823 H2808 0.959 . S
C2823 H2809 0.961 . S
C2823 C2822 1.502 . S
C2824 H2810 0.960 . S
C2824 H2811 0.961 . S
C2824 H2812 0.959 . S
C2824 C2822 1.561 . S
C2825 C2822 1.526 . S
C2825 C2826 1.396 . S
C2825 C2830 1.390 . S
C2826 C2820 1.465 . S
C2826 C2825 1.396 . S
C2826 C2827 1.399 . S
C2827 H2813 0.929 . S
C2827 C2826 1.399 . S
C2827 C2828 1.385 . S
C2828 H2814 0.931 . S
C2828 C2827 1.385 . S
C2828 C2829 1.389 . S
C2829 C2828 1.389 . S
C2829 C2830 1.387 . S
C2830 H2815 0.930 . S
C2830 C2825 1.390 . S
C2830 C2829 1.387 . S
H2831 C2843 0.930 . S
H2832 C2845 0.930 . S
H2833 C2846 0.930 . S
H2834 C2850 0.959 . S
H2835 C2850 0.959 . S
H2836 C2850 0.961 1_565 S
H2837 C2851 0.960 . S
H2838 C2851 0.961 . S
H2839 C2851 0.959 . S
H2840 C2854 0.929 . S
H2841 C2855 0.928 1_545 S
H2842 C2857 0.930 . S
C2843 H2831 0.930 . S
C2843 C2844 1.399 . S
C2843 C2848 1.399 . S
C2844 C2843 1.399 . S
C2844 C2845 1.376 . S
C2845 H2832 0.930 . S
C2845 C2844 1.376 . S
C2845 C2846 1.388 . S
C2846 H2833 0.930 . S
C2846 C2845 1.388 . S
C2846 C2847 1.390 . S
C2847 C2846 1.390 . S
C2847 C2848 1.394 . S
C2847 C2853 1.465 . S
C2848 C2843 1.399 . S
C2848 C2847 1.394 . S
C2848 C2849 1.516 . S
C2849 C2848 1.516 . S
C2849 C2850 1.502 1_565 S
C2849 C2851 1.561 . S
C2849 C2852 1.526 . S
C2850 H2834 0.959 . S
C2850 H2835 0.959 . S
C2850 H2836 0.961 1_545 S
C2850 C2849 1.502 1_545 S
C2851 H2837 0.960 . S
C2851 H2838 0.961 . S
C2851 H2839 0.959 . S
C2851 C2849 1.561 . S
C2852 C2849 1.526 . S
C2852 C2853 1.396 . S
C2852 C2857 1.390 1_565 S
C2853 C2847 1.465 . S
C2853 C2852 1.396 . S
C2853 C2854 1.399 . S
C2854 H2840 0.929 . S
C2854 C2853 1.399 . S
C2854 C2855 1.404 . S
C2855 H2841 0.928 1_565 S
C2855 C2854 1.404 . S
C2855 C2856 1.374 1_565 S
C2856 C2855 1.374 1_545 S
C2856 C2857 1.387 . S
C2857 H2842 0.930 . S
C2857 C2852 1.390 1_545 S
C2857 C2856 1.387 . S
H2858 C2870 0.930 . S
H2859 C2872 0.930 . S
H2860 C2873 0.930 . S
H2861 C2877 0.959 . S
H2862 C2877 0.959 . S
H2863 C2877 0.961 . S
H2864 C2878 0.960 . S
H2865 C2878 0.961 . S
H2866 C2878 0.959 . S
H2867 C2881 0.929 . S
H2868 C2882 0.931 . S
H2869 C2884 0.930 . S
C2870 H2858 0.930 . S
C2870 C2871 1.399 . S
C2870 C2875 1.399 . S
C2871 C2870 1.399 . S
C2871 C2872 1.376 . S
C2872 H2859 0.930 . S
C2872 C2871 1.376 . S
C2872 C2873 1.388 . S
C2873 H2860 0.930 . S
C2873 C2872 1.388 . S
C2873 C2874 1.390 . S
C2874 C2873 1.390 . S
C2874 C2875 1.394 . S
C2874 C2880 1.465 . S
C2875 C2870 1.399 . S
C2875 C2874 1.394 . S
C2875 C2876 1.516 . S
C2876 C2875 1.516 . S
C2876 C2877 1.502 . S
C2876 C2878 1.561 . S
C2876 C2879 1.526 . S
C2877 H2861 0.959 . S
C2877 H2862 0.959 . S
C2877 H2863 0.961 . S
C2877 C2876 1.502 . S
C2878 H2864 0.960 . S
C2878 H2865 0.961 . S
C2878 H2866 0.959 . S
C2878 C2876 1.561 . S
C2879 C2876 1.526 . S
C2879 C2880 1.396 . S
C2879 C2884 1.390 . S
C2880 C2874 1.465 . S
C2880 C2879 1.396 . S
C2880 C2881 1.399 . S
C2881 H2867 0.929 . S
C2881 C2880 1.399 . S
C2881 C2882 1.385 . S
C2882 H2868 0.931 . S
C2882 C2881 1.385 . S
C2882 C2883 1.389 . S
C2883 C2882 1.389 . S
C2883 C2884 1.387 . S
C2884 H2869 0.930 . S
C2884 C2879 1.390 . S
C2884 C2883 1.387 . S
H2885 C2897 0.930 . S
H2886 C2899 0.930 . S
H2887 C2900 0.930 . S
H2888 C2904 0.959 . S
H2889 C2904 0.959 . S
H2890 C2904 0.961 . S
H2891 C2905 0.960 . S
H2892 C2905 0.961 . S
H2893 C2905 0.959 . S
H2894 C2908 0.929 . S
H2895 C2909 0.931 . S
H2896 C2911 0.930 . S
C2897 H2885 0.930 . S
C2897 C2898 1.399 . S
C2897 C2902 1.399 . S
C2898 C2897 1.399 . S
C2898 C2899 1.376 . S
C2899 H2886 0.930 . S
C2899 C2898 1.376 . S
C2899 C2900 1.388 . S
C2900 H2887 0.930 . S
C2900 C2899 1.388 . S
C2900 C2901 1.390 . S
C2901 C2900 1.390 . S
C2901 C2902 1.394 . S
C2901 C2907 1.465 . S
C2902 C2897 1.399 . S
C2902 C2901 1.394 . S
C2902 C2903 1.516 . S
C2903 C2902 1.516 . S
C2903 C2904 1.502 . S
C2903 C2905 1.561 . S
C2903 C2906 1.526 . S
C2904 H2888 0.959 . S
C2904 H2889 0.959 . S
C2904 H2890 0.961 . S
C2904 C2903 1.502 . S
C2905 H2891 0.960 . S
C2905 H2892 0.961 . S
C2905 H2893 0.959 . S
C2905 C2903 1.561 . S
C2906 C2903 1.526 . S
C2906 C2907 1.396 . S
C2906 C2911 1.390 . S
C2907 C2901 1.465 . S
C2907 C2906 1.396 . S
C2907 C2908 1.399 . S
C2908 H2894 0.929 . S
C2908 C2907 1.399 . S
C2908 C2909 1.385 . S
C2909 H2895 0.931 . S
C2909 C2908 1.385 . S
C2909 C2910 1.389 . S
C2910 C2909 1.389 . S
C2910 C2911 1.387 . S
C2911 H2896 0.930 . S
C2911 C2906 1.390 . S
C2911 C2910 1.387 . S
H2912 C2924 0.930 . S
H2913 C2926 0.930 . S
H2914 C2927 0.930 . S
H2915 C2931 0.959 . S
H2916 C2931 0.959 . S
H2917 C2931 0.961 . S
H2918 C2932 0.960 . S
H2919 C2932 0.961 . S
H2920 C2932 0.959 . S
H2921 C2935 0.929 . S
H2922 C2936 0.931 . S
H2923 C2938 0.930 . S
C2924 H2912 0.930 . S
C2924 C2925 1.399 . S
C2924 C2929 1.399 . S
C2925 C2924 1.399 . S
C2925 C2926 1.376 . S
C2926 H2913 0.930 . S
C2926 C2925 1.376 . S
C2926 C2927 1.388 . S
C2927 H2914 0.930 . S
C2927 C2926 1.388 . S
C2927 C2928 1.390 . S
C2928 C2927 1.390 . S
C2928 C2929 1.394 . S
C2928 C2934 1.465 . S
C2929 C2924 1.399 . S
C2929 C2928 1.394 . S
C2929 C2930 1.516 . S
C2930 C2929 1.516 . S
C2930 C2931 1.502 . S
C2930 C2932 1.561 . S
C2930 C2933 1.526 . S
C2931 H2915 0.959 . S
C2931 H2916 0.959 . S
C2931 H2917 0.961 . S
C2931 C2930 1.502 . S
C2932 H2918 0.960 . S
C2932 H2919 0.961 . S
C2932 H2920 0.959 . S
C2932 C2930 1.561 . S
C2933 C2930 1.526 . S
C2933 C2934 1.396 . S
C2933 C2938 1.390 . S
C2934 C2928 1.465 . S
C2934 C2933 1.396 . S
C2934 C2935 1.399 . S
C2935 H2921 0.929 . S
C2935 C2934 1.399 . S
C2935 C2936 1.385 . S
C2936 H2922 0.931 . S
C2936 C2935 1.385 . S
C2936 C2937 1.389 . S
C2937 C2936 1.389 . S
C2937 C2938 1.387 . S
C2938 H2923 0.930 . S
C2938 C2933 1.390 . S
C2938 C2937 1.387 . S
H2939 C2951 0.930 . S
H2940 C2953 0.930 . S
H2941 C2954 0.930 . S
H2942 C2958 0.959 . S
H2943 C2958 0.959 . S
H2944 C2958 0.961 . S
H2945 C2959 0.960 . S
H2946 C2959 0.961 . S
H2947 C2959 0.959 . S
H2948 C2962 0.929 . S
H2949 C2963 0.931 . S
H2950 C2965 0.930 . S
C2951 H2939 0.930 . S
C2951 C2952 1.399 . S
C2951 C2956 1.399 . S
C2952 C2951 1.399 . S
C2952 C2953 1.376 . S
C2953 H2940 0.930 . S
C2953 C2952 1.376 . S
C2953 C2954 1.388 . S
C2954 H2941 0.930 . S
C2954 C2953 1.388 . S
C2954 C2955 1.390 . S
C2955 C2954 1.390 . S
C2955 C2956 1.394 . S
C2955 C2961 1.465 . S
C2956 C2951 1.399 . S
C2956 C2955 1.394 . S
C2956 C2957 1.516 . S
C2957 C2956 1.516 . S
C2957 C2958 1.502 . S
C2957 C2959 1.561 . S
C2957 C2960 1.526 . S
C2958 H2942 0.959 . S
C2958 H2943 0.959 . S
C2958 H2944 0.961 . S
C2958 C2957 1.502 . S
C2959 H2945 0.960 . S
C2959 H2946 0.961 . S
C2959 H2947 0.959 . S
C2959 C2957 1.561 . S
C2960 C2957 1.526 . S
C2960 C2961 1.396 . S
C2960 C2965 1.390 . S
C2961 C2955 1.465 . S
C2961 C2960 1.396 . S
C2961 C2962 1.399 . S
C2962 H2948 0.929 . S
C2962 C2961 1.399 . S
C2962 C2963 1.385 . S
C2963 H2949 0.931 . S
C2963 C2962 1.385 . S
C2963 C2964 1.389 . S
C2964 C2963 1.389 . S
C2964 C2965 1.387 . S
C2965 H2950 0.930 . S
C2965 C2960 1.390 . S
C2965 C2964 1.387 . S
H2966 C2978 0.930 . S
H2967 C2980 0.930 . S
H2968 C2981 0.930 . S
H2969 C2985 0.959 . S
H2970 C2985 0.959 . S
H2971 C2985 0.961 . S
H2972 C2986 0.960 . S
H2973 C2986 0.961 . S
H2974 C2986 0.959 . S
H2975 C2989 0.929 . S
H2976 C2990 0.931 . S
H2977 C2992 0.930 . S
C2978 H2966 0.930 . S
C2978 C2979 1.399 . S
C2978 C2983 1.399 . S
C2979 C2978 1.399 . S
C2979 C2980 1.376 . S
C2980 H2967 0.930 . S
C2980 C2979 1.376 . S
C2980 C2981 1.388 . S
C2981 H2968 0.930 . S
C2981 C2980 1.388 . S
C2981 C2982 1.390 . S
C2982 C2981 1.390 . S
C2982 C2983 1.394 . S
C2982 C2988 1.465 . S
C2983 C2978 1.399 . S
C2983 C2982 1.394 . S
C2983 C2984 1.516 . S
C2984 C2983 1.516 . S
C2984 C2985 1.502 . S
C2984 C2986 1.561 . S
C2984 C2987 1.526 . S
C2985 H2969 0.959 . S
C2985 H2970 0.959 . S
C2985 H2971 0.961 . S
C2985 C2984 1.502 . S
C2986 H2972 0.960 . S
C2986 H2973 0.961 . S
C2986 H2974 0.959 . S
C2986 C2984 1.561 . S
C2987 C2984 1.526 . S
C2987 C2988 1.396 . S
C2987 C2992 1.390 . S
C2988 C2982 1.465 . S
C2988 C2987 1.396 . S
C2988 C2989 1.399 . S
C2989 H2975 0.929 . S
C2989 C2988 1.399 . S
C2989 C2990 1.385 . S
C2990 H2976 0.931 . S
C2990 C2989 1.385 . S
C2990 C2991 1.389 . S
C2991 C2990 1.389 . S
C2991 C2992 1.387 . S
C2992 H2977 0.930 . S
C2992 C2987 1.390 . S
C2992 C2991 1.387 . S
H2993 C3005 0.930 . S
H2994 C3007 0.930 . S
H2995 C3008 0.930 . S
H2996 C3012 0.959 . S
H2997 C3012 0.959 . S
H2998 C3012 0.961 . S
H2999 C3013 0.960 . S
H3000 C3013 0.961 . S
H3001 C3013 0.959 . S
H3002 C3016 0.929 . S
H3003 C3017 0.931 . S
H3004 C3019 0.930 . S
C3005 H2993 0.930 . S
C3005 C3006 1.399 . S
C3005 C3010 1.399 . S
C3006 C3005 1.399 . S
C3006 C3007 1.376 . S
C3007 H2994 0.930 . S
C3007 C3006 1.376 . S
C3007 C3008 1.388 . S
C3008 H2995 0.930 . S
C3008 C3007 1.388 . S
C3008 C3009 1.390 . S
C3009 C3008 1.390 . S
C3009 C3010 1.394 . S
C3009 C3015 1.465 . S
C3010 C3005 1.399 . S
C3010 C3009 1.394 . S
C3010 C3011 1.516 . S
C3011 C3010 1.516 . S
C3011 C3012 1.502 . S
C3011 C3013 1.561 . S
C3011 C3014 1.526 . S
C3012 H2996 0.959 . S
C3012 H2997 0.959 . S
C3012 H2998 0.961 . S
C3012 C3011 1.502 . S
C3013 H2999 0.960 . S
C3013 H3000 0.961 . S
C3013 H3001 0.959 . S
C3013 C3011 1.561 . S
C3014 C3011 1.526 . S
C3014 C3015 1.396 . S
C3014 C3019 1.390 . S
C3015 C3009 1.465 . S
C3015 C3014 1.396 . S
C3015 C3016 1.399 . S
C3016 H3002 0.929 . S
C3016 C3015 1.399 . S
C3016 C3017 1.385 . S
C3017 H3003 0.931 . S
C3017 C3016 1.385 . S
C3017 C3018 1.389 . S
C3018 C3017 1.389 . S
C3018 C3019 1.387 . S
C3019 H3004 0.930 . S
C3019 C3014 1.390 . S
C3019 C3018 1.387 . S
H3020 C3032 0.930 . S
H3021 C3034 0.930 . S
H3022 C3035 0.930 . S
H3023 C3039 0.959 . S
H3024 C3039 0.959 . S
H3025 C3039 0.961 . S
H3026 C3040 0.960 . S
H3027 C3040 0.961 . S
H3028 C3040 0.959 . S
H3029 C3043 0.929 . S
H3030 C3044 0.911 1_554 S
H3031 C3046 0.930 . S
C3032 H3020 0.930 . S
C3032 C3033 1.399 . S
C3032 C3037 1.399 . S
C3033 C3032 1.399 . S
C3033 C3034 1.376 . S
C3034 H3021 0.930 . S
C3034 C3033 1.376 . S
C3034 C3035 1.388 . S
C3035 H3022 0.930 . S
C3035 C3034 1.388 . S
C3035 C3036 1.390 . S
C3036 C3035 1.390 . S
C3036 C3037 1.394 . S
C3036 C3042 1.465 . S
C3037 C3032 1.399 . S
C3037 C3036 1.394 . S
C3037 C3038 1.516 . S
C3038 C3037 1.516 . S
C3038 C3039 1.502 . S
C3038 C3040 1.561 . S
C3038 C3041 1.526 . S
C3039 H3023 0.959 . S
C3039 H3024 0.959 . S
C3039 H3025 0.961 . S
C3039 C3038 1.502 . S
C3040 H3026 0.960 . S
C3040 H3027 0.961 . S
C3040 H3028 0.959 . S
C3040 C3038 1.561 . S
C3041 C3038 1.526 . S
C3041 C3042 1.396 . S
C3041 C3046 1.390 . S
C3042 C3036 1.465 . S
C3042 C3041 1.396 . S
C3042 C3043 1.399 . S
C3043 H3029 0.929 . S
C3043 C3042 1.399 . S
C3043 C3044 1.385 . S
C3044 H3030 0.911 1_556 S
C3044 C3043 1.385 . S
C3044 C3045 1.389 . S
C3045 C3044 1.389 . S
C3045 C3046 1.387 . S
C3046 H3031 0.930 . S
C3046 C3041 1.390 . S
C3046 C3045 1.387 . S
H3047 C3059 0.930 . S
H3048 C3061 0.930 . S
H3049 C3062 0.930 . S
H3050 C3066 0.959 . S
H3051 C3066 0.959 . S
H3052 C3066 0.961 . S
H3053 C3067 0.960 . S
H3054 C3067 0.961 . S
H3055 C3067 0.959 . S
H3056 C3070 0.929 . S
H3057 C3071 0.931 . S
H3058 C3073 0.930 . S
C3059 H3047 0.930 . S
C3059 C3060 1.399 . S
C3059 C3064 1.399 . S
C3060 C3059 1.399 . S
C3060 C3061 1.376 . S
C3061 H3048 0.930 . S
C3061 C3060 1.376 . S
C3061 C3062 1.388 . S
C3062 H3049 0.930 . S
C3062 C3061 1.388 . S
C3062 C3063 1.390 . S
C3063 C3062 1.390 . S
C3063 C3064 1.394 . S
C3063 C3069 1.465 . S
C3064 C3059 1.399 . S
C3064 C3063 1.394 . S
C3064 C3065 1.516 . S
C3065 C3064 1.516 . S
C3065 C3066 1.502 . S
C3065 C3067 1.561 . S
C3065 C3068 1.526 . S
C3066 H3050 0.959 . S
C3066 H3051 0.959 . S
C3066 H3052 0.961 . S
C3066 C3065 1.502 . S
C3067 H3053 0.960 . S
C3067 H3054 0.961 . S
C3067 H3055 0.959 . S
C3067 C3065 1.561 . S
C3068 C3065 1.526 . S
C3068 C3069 1.396 . S
C3068 C3073 1.390 . S
C3069 C3063 1.465 . S
C3069 C3068 1.396 . S
C3069 C3070 1.399 . S
C3070 H3056 0.929 . S
C3070 C3069 1.399 . S
C3070 C3071 1.385 . S
C3071 H3057 0.931 . S
C3071 C3070 1.385 . S
C3071 C3072 1.389 . S
C3072 C3071 1.389 . S
C3072 C3073 1.387 . S
C3073 H3058 0.930 . S
C3073 C3068 1.390 . S
C3073 C3072 1.387 . S
H3074 C3086 0.930 . S
H3075 C3088 0.930 . S
H3076 C3089 0.930 . S
H3077 C3093 0.959 . S
H3078 C3093 0.959 . S
H3079 C3093 0.961 . S
H3080 C3094 0.960 . S
H3081 C3094 0.961 . S
H3082 C3094 0.959 . S
H3083 C3097 0.929 . S
H3084 C3098 0.931 . S
H3085 C3100 0.930 . S
C3086 H3074 0.930 . S
C3086 C3087 1.399 . S
C3086 C3091 1.399 . S
C3087 C3086 1.399 . S
C3087 C3088 1.376 . S
C3088 H3075 0.930 . S
C3088 C3087 1.376 . S
C3088 C3089 1.388 . S
C3089 H3076 0.930 . S
C3089 C3088 1.388 . S
C3089 C3090 1.390 . S
C3090 C3089 1.390 . S
C3090 C3091 1.394 . S
C3090 C3096 1.465 . S
C3091 C3086 1.399 . S
C3091 C3090 1.394 . S
C3091 C3092 1.516 . S
C3092 C3091 1.516 . S
C3092 C3093 1.502 . S
C3092 C3094 1.561 . S
C3092 C3095 1.526 . S
C3093 H3077 0.959 . S
C3093 H3078 0.959 . S
C3093 H3079 0.961 . S
C3093 C3092 1.502 . S
C3094 H3080 0.960 . S
C3094 H3081 0.961 . S
C3094 H3082 0.959 . S
C3094 C3092 1.561 . S
C3095 C3092 1.526 . S
C3095 C3096 1.396 . S
C3095 C3100 1.390 . S
C3096 C3090 1.465 . S
C3096 C3095 1.396 . S
C3096 C3097 1.399 . S
C3097 H3083 0.929 . S
C3097 C3096 1.399 . S
C3097 C3098 1.385 . S
C3098 H3084 0.931 . S
C3098 C3097 1.385 . S
C3098 C3099 1.389 . S
C3099 C3098 1.389 . S
C3099 C3100 1.387 . S
C3100 H3085 0.930 . S
C3100 C3095 1.390 . S
C3100 C3099 1.387 . S
H3101 C3113 0.930 . S
H3102 C3115 0.930 . S
H3103 C3116 0.930 . S
H3104 C3120 0.959 . S
H3105 C3120 0.959 . S
H3106 C3120 0.961 . S
H3107 C3121 0.960 . S
H3108 C3121 0.961 . S
H3109 C3121 0.959 . S
H3110 C3124 0.929 . S
H3111 C3125 0.931 . S
H3112 C3127 0.930 . S
C3113 H3101 0.930 . S
C3113 C3114 1.399 . S
C3113 C3118 1.399 . S
C3114 C3113 1.399 . S
C3114 C3115 1.376 . S
C3115 H3102 0.930 . S
C3115 C3114 1.376 . S
C3115 C3116 1.388 . S
C3116 H3103 0.930 . S
C3116 C3115 1.388 . S
C3116 C3117 1.390 . S
C3117 C3116 1.390 . S
C3117 C3118 1.394 . S
C3117 C3123 1.465 . S
C3118 C3113 1.399 . S
C3118 C3117 1.394 . S
C3118 C3119 1.516 . S
C3119 C3118 1.516 . S
C3119 C3120 1.502 . S
C3119 C3121 1.561 . S
C3119 C3122 1.526 . S
C3120 H3104 0.959 . S
C3120 H3105 0.959 . S
C3120 H3106 0.961 . S
C3120 C3119 1.502 . S
C3121 H3107 0.960 . S
C3121 H3108 0.961 . S
C3121 H3109 0.959 . S
C3121 C3119 1.561 . S
C3122 C3119 1.526 . S
C3122 C3123 1.396 . S
C3122 C3127 1.390 . S
C3123 C3117 1.465 . S
C3123 C3122 1.396 . S
C3123 C3124 1.399 . S
C3124 H3110 0.929 . S
C3124 C3123 1.399 . S
C3124 C3125 1.385 . S
C3125 H3111 0.931 . S
C3125 C3124 1.385 . S
C3125 C3126 1.389 . S
C3126 C3125 1.389 . S
C3126 C3127 1.387 . S
C3127 H3112 0.930 . S
C3127 C3122 1.390 . S
C3127 C3126 1.387 . S
H3128 C3140 0.930 . S
H3129 C3142 0.930 . S
H3130 C3143 0.930 . S
H3131 C3147 0.959 . S
H3132 C3147 0.959 . S
H3133 C3147 0.961 . S
H3134 C3148 0.960 . S
H3135 C3148 0.961 . S
H3136 C3148 0.959 . S
H3137 C3151 0.929 . S
H3138 C3152 0.931 . S
H3139 C3154 0.930 . S
C3140 H3128 0.930 . S
C3140 C3141 1.399 . S
C3140 C3145 1.399 . S
C3141 C3140 1.399 . S
C3141 C3142 1.376 . S
C3142 H3129 0.930 . S
C3142 C3141 1.376 . S
C3142 C3143 1.388 . S
C3143 H3130 0.930 . S
C3143 C3142 1.388 . S
C3143 C3144 1.390 . S
C3144 C3143 1.390 . S
C3144 C3145 1.394 . S
C3144 C3150 1.465 . S
C3145 C3140 1.399 . S
C3145 C3144 1.394 . S
C3145 C3146 1.516 . S
C3146 C3145 1.516 . S
C3146 C3147 1.502 . S
C3146 C3148 1.561 . S
C3146 C3149 1.526 . S
C3147 H3131 0.959 . S
C3147 H3132 0.959 . S
C3147 H3133 0.961 . S
C3147 C3146 1.502 . S
C3148 H3134 0.960 . S
C3148 H3135 0.961 . S
C3148 H3136 0.959 . S
C3148 C3146 1.561 . S
C3149 C3146 1.526 . S
C3149 C3150 1.396 . S
C3149 C3154 1.390 . S
C3150 C3144 1.465 . S
C3150 C3149 1.396 . S
C3150 C3151 1.399 . S
C3151 H3137 0.929 . S
C3151 C3150 1.399 . S
C3151 C3152 1.385 . S
C3152 H3138 0.931 . S
C3152 C3151 1.385 . S
C3152 C3153 1.389 . S
C3153 C3152 1.389 . S
C3153 C3154 1.387 . S
C3154 H3139 0.930 . S
C3154 C3149 1.390 . S
C3154 C3153 1.387 . S
H3155 C3167 0.930 . S
H3156 C3169 0.930 . S
H3157 C3170 0.930 . S
H3158 C3174 0.959 . S
H3159 C3174 0.959 . S
H3160 C3174 0.961 . S
H3161 C3175 0.960 . S
H3162 C3175 0.961 . S
H3163 C3175 0.959 . S
H3164 C3178 0.929 . S
H3165 C3179 0.931 . S
H3166 C3181 0.930 . S
C3167 H3155 0.930 . S
C3167 C3168 1.399 . S
C3167 C3172 1.399 . S
C3168 C3167 1.399 . S
C3168 C3169 1.376 . S
C3169 H3156 0.930 . S
C3169 C3168 1.376 . S
C3169 C3170 1.388 . S
C3170 H3157 0.930 . S
C3170 C3169 1.388 . S
C3170 C3171 1.390 . S
C3171 C3170 1.390 . S
C3171 C3172 1.394 . S
C3171 C3177 1.465 . S
C3172 C3167 1.399 . S
C3172 C3171 1.394 . S
C3172 C3173 1.516 . S
C3173 C3172 1.516 . S
C3173 C3174 1.502 . S
C3173 C3175 1.561 . S
C3173 C3176 1.526 . S
C3174 H3158 0.959 . S
C3174 H3159 0.959 . S
C3174 H3160 0.961 . S
C3174 C3173 1.502 . S
C3175 H3161 0.960 . S
C3175 H3162 0.961 . S
C3175 H3163 0.959 . S
C3175 C3173 1.561 . S
C3176 C3173 1.526 . S
C3176 C3177 1.396 . S
C3176 C3181 1.390 . S
C3177 C3171 1.465 . S
C3177 C3176 1.396 . S
C3177 C3178 1.399 . S
C3178 H3164 0.929 . S
C3178 C3177 1.399 . S
C3178 C3179 1.385 . S
C3179 H3165 0.931 . S
C3179 C3178 1.385 . S
C3179 C3180 1.389 . S
C3180 C3179 1.389 . S
C3180 C3181 1.387 . S
C3181 H3166 0.930 . S
C3181 C3176 1.390 . S
C3181 C3180 1.387 . S
H3182 C3194 0.930 . S
H3183 C3196 0.930 . S
H3184 C3197 0.930 . S
H3185 C3201 0.959 . S
H3186 C3201 0.959 . S
H3187 C3201 0.961 . S
H3188 C3202 0.960 . S
H3189 C3202 0.961 . S
H3190 C3202 0.959 . S
H3191 C3205 0.929 . S
H3192 C3206 0.931 . S
H3193 C3208 0.930 . S
C3194 H3182 0.930 . S
C3194 C3195 1.399 . S
C3194 C3199 1.399 . S
C3195 C3194 1.399 . S
C3195 C3196 1.376 . S
C3196 H3183 0.930 . S
C3196 C3195 1.376 . S
C3196 C3197 1.388 . S
C3197 H3184 0.930 . S
C3197 C3196 1.388 . S
C3197 C3198 1.390 . S
C3198 C3197 1.390 . S
C3198 C3199 1.394 . S
C3198 C3204 1.465 . S
C3199 C3194 1.399 . S
C3199 C3198 1.394 . S
C3199 C3200 1.516 . S
C3200 C3199 1.516 . S
C3200 C3201 1.502 . S
C3200 C3202 1.561 . S
C3200 C3203 1.526 . S
C3201 H3185 0.959 . S
C3201 H3186 0.959 . S
C3201 H3187 0.961 . S
C3201 C3200 1.502 . S
C3202 H3188 0.960 . S
C3202 H3189 0.961 . S
C3202 H3190 0.959 . S
C3202 C3200 1.561 . S
C3203 C3200 1.526 . S
C3203 C3204 1.396 . S
C3203 C3208 1.390 . S
C3204 C3198 1.465 . S
C3204 C3203 1.396 . S
C3204 C3205 1.399 . S
C3205 H3191 0.929 . S
C3205 C3204 1.399 . S
C3205 C3206 1.385 . S
C3206 H3192 0.931 . S
C3206 C3205 1.385 . S
C3206 C3207 1.389 . S
C3207 C3206 1.389 . S
C3207 C3208 1.387 . S
C3208 H3193 0.930 . S
C3208 C3203 1.390 . S
C3208 C3207 1.387 . S
H3209 C3221 0.930 . S
H3210 C3223 0.930 . S
H3211 C3224 0.930 . S
H3212 C3228 0.959 . S
H3213 C3228 0.959 . S
H3214 C3228 0.961 . S
H3215 C3229 0.960 . S
H3216 C3229 0.961 . S
H3217 C3229 0.959 . S
H3218 C3232 0.929 . S
H3219 C3233 0.931 . S
H3220 C3235 0.930 . S
C3221 H3209 0.930 . S
C3221 C3222 1.399 . S
C3221 C3226 1.399 . S
C3222 C3221 1.399 . S
C3222 C3223 1.376 . S
C3223 H3210 0.930 . S
C3223 C3222 1.376 . S
C3223 C3224 1.388 . S
C3224 H3211 0.930 . S
C3224 C3223 1.388 . S
C3224 C3225 1.390 . S
C3225 C3224 1.390 . S
C3225 C3226 1.394 . S
C3225 C3231 1.465 . S
C3226 C3221 1.399 . S
C3226 C3225 1.394 . S
C3226 C3227 1.516 . S
C3227 C3226 1.516 . S
C3227 C3228 1.502 . S
C3227 C3229 1.561 . S
C3227 C3230 1.526 . S
C3228 H3212 0.959 . S
C3228 H3213 0.959 . S
C3228 H3214 0.961 . S
C3228 C3227 1.502 . S
C3229 H3215 0.960 . S
C3229 H3216 0.961 . S
C3229 H3217 0.959 . S
C3229 C3227 1.561 . S
C3230 C3227 1.526 . S
C3230 C3231 1.396 . S
C3230 C3235 1.390 . S
C3231 C3225 1.465 . S
C3231 C3230 1.396 . S
C3231 C3232 1.399 . S
C3232 H3218 0.929 . S
C3232 C3231 1.399 . S
C3232 C3233 1.385 . S
C3233 H3219 0.931 . S
C3233 C3232 1.385 . S
C3233 C3234 1.389 . S
C3234 C3233 1.389 . S
C3234 C3235 1.387 . S
C3235 H3220 0.930 . S
C3235 C3230 1.390 . S
C3235 C3234 1.387 . S
H3236 C3248 0.930 . S
H3237 C3250 0.930 . S
H3238 C3251 0.930 . S
H3239 C3255 0.959 . S
H3240 C3255 0.959 . S
H3241 C3255 0.961 . S
H3242 C3256 0.960 . S
H3243 C3256 0.961 . S
H3244 C3256 0.959 . S
H3245 C3259 0.929 . S
H3246 C3260 0.931 . S
H3247 C3262 0.930 . S
C3248 H3236 0.930 . S
C3248 C3249 1.399 . S
C3248 C3253 1.399 . S
C3249 C3248 1.399 . S
C3249 C3250 1.376 . S
C3250 H3237 0.930 . S
C3250 C3249 1.376 . S
C3250 C3251 1.388 . S
C3251 H3238 0.930 . S
C3251 C3250 1.388 . S
C3251 C3252 1.390 . S
C3252 C3251 1.390 . S
C3252 C3253 1.394 . S
C3252 C3258 1.465 . S
C3253 C3248 1.399 . S
C3253 C3252 1.394 . S
C3253 C3254 1.516 . S
C3254 C3253 1.516 . S
C3254 C3255 1.502 . S
C3254 C3256 1.561 . S
C3254 C3257 1.526 . S
C3255 H3239 0.959 . S
C3255 H3240 0.959 . S
C3255 H3241 0.961 . S
C3255 C3254 1.502 . S
C3256 H3242 0.960 . S
C3256 H3243 0.961 . S
C3256 H3244 0.959 . S
C3256 C3254 1.561 . S
C3257 C3254 1.526 . S
C3257 C3258 1.396 . S
C3257 C3262 1.390 . S
C3258 C3252 1.465 . S
C3258 C3257 1.396 . S
C3258 C3259 1.399 . S
C3259 H3245 0.929 . S
C3259 C3258 1.399 . S
C3259 C3260 1.385 . S
C3260 H3246 0.931 . S
C3260 C3259 1.385 . S
C3260 C3261 1.389 . S
C3261 C3260 1.389 . S
C3261 C3262 1.387 . S
C3262 H3247 0.930 . S
C3262 C3257 1.390 . S
C3262 C3261 1.387 . S
H3263 C3275 0.930 . S
H3264 C3277 0.930 . S
H3265 C3278 0.930 . S
H3266 C3282 0.959 . S
H3267 C3282 0.959 . S
H3268 C3282 0.961 . S
H3269 C3283 0.960 . S
H3270 C3283 0.961 . S
H3271 C3283 0.959 . S
H3272 C3286 0.929 . S
H3273 C3287 0.931 . S
H3274 C3289 0.930 . S
C3275 H3263 0.930 . S
C3275 C3276 1.399 . S
C3275 C3280 1.399 . S
C3276 C3275 1.399 . S
C3276 C3277 1.376 . S
C3277 H3264 0.930 . S
C3277 C3276 1.376 . S
C3277 C3278 1.388 . S
C3278 H3265 0.930 . S
C3278 C3277 1.388 . S
C3278 C3279 1.390 . S
C3279 C3278 1.390 . S
C3279 C3280 1.394 . S
C3279 C3285 1.465 . S
C3280 C3275 1.399 . S
C3280 C3279 1.394 . S
C3280 C3281 1.516 . S
C3281 C3280 1.516 . S
C3281 C3282 1.502 . S
C3281 C3283 1.561 . S
C3281 C3284 1.526 . S
C3282 H3266 0.959 . S
C3282 H3267 0.959 . S
C3282 H3268 0.961 . S
C3282 C3281 1.502 . S
C3283 H3269 0.960 . S
C3283 H3270 0.961 . S
C3283 H3271 0.959 . S
C3283 C3281 1.561 . S
C3284 C3281 1.526 . S
C3284 C3285 1.396 . S
C3284 C3289 1.390 . S
C3285 C3279 1.465 . S
C3285 C3284 1.396 . S
C3285 C3286 1.399 . S
C3286 H3272 0.929 . S
C3286 C3285 1.399 . S
C3286 C3287 1.385 . S
C3287 H3273 0.931 . S
C3287 C3286 1.385 . S
C3287 C3288 1.389 . S
C3288 C3287 1.389 . S
C3288 C3289 1.387 . S
C3289 H3274 0.930 . S
C3289 C3284 1.390 . S
C3289 C3288 1.387 . S
H3290 C3302 0.930 . S
H3291 C3304 0.930 . S
H3292 C3305 0.930 . S
H3293 C3309 0.959 . S
H3294 C3309 0.959 . S
H3295 C3309 0.961 . S
H3296 C3310 0.960 . S
H3297 C3310 0.961 . S
H3298 C3310 0.959 . S
H3299 C3313 0.929 . S
H3300 C3314 0.931 . S
H3301 C3316 0.930 . S
C3302 H3290 0.930 . S
C3302 C3303 1.399 . S
C3302 C3307 1.399 . S
C3303 C3302 1.399 . S
C3303 C3304 1.376 . S
C3304 H3291 0.930 . S
C3304 C3303 1.376 . S
C3304 C3305 1.388 . S
C3305 H3292 0.930 . S
C3305 C3304 1.388 . S
C3305 C3306 1.390 . S
C3306 C3305 1.390 . S
C3306 C3307 1.394 . S
C3306 C3312 1.465 . S
C3307 C3302 1.399 . S
C3307 C3306 1.394 . S
C3307 C3308 1.516 . S
C3308 C3307 1.516 . S
C3308 C3309 1.502 . S
C3308 C3310 1.561 . S
C3308 C3311 1.526 . S
C3309 H3293 0.959 . S
C3309 H3294 0.959 . S
C3309 H3295 0.961 . S
C3309 C3308 1.502 . S
C3310 H3296 0.960 . S
C3310 H3297 0.961 . S
C3310 H3298 0.959 . S
C3310 C3308 1.561 . S
C3311 C3308 1.526 . S
C3311 C3312 1.396 . S
C3311 C3316 1.390 . S
C3312 C3306 1.465 . S
C3312 C3311 1.396 . S
C3312 C3313 1.399 . S
C3313 H3299 0.929 . S
C3313 C3312 1.399 . S
C3313 C3314 1.385 . S
C3314 H3300 0.931 . S
C3314 C3313 1.385 . S
C3314 C3315 1.389 . S
C3315 C3314 1.389 . S
C3315 C3316 1.387 . S
C3316 H3301 0.930 . S
C3316 C3311 1.390 . S
C3316 C3315 1.387 . S
H3317 C3329 0.930 . S
H3318 C3331 0.930 . S
H3319 C3332 0.930 . S
H3320 C3336 0.959 . S
H3321 C3336 0.959 . S
H3322 C3336 0.961 . S
H3323 C3337 0.960 . S
H3324 C3337 0.961 . S
H3325 C3337 0.959 . S
H3326 C3340 0.929 . S
H3327 C3341 0.931 . S
H3328 C3343 0.930 . S
C3329 H3317 0.930 . S
C3329 C3330 1.399 . S
C3329 C3334 1.399 . S
C3330 C3329 1.399 . S
C3330 C3331 1.376 . S
C3331 H3318 0.930 . S
C3331 C3330 1.376 . S
C3331 C3332 1.388 . S
C3332 H3319 0.930 . S
C3332 C3331 1.388 . S
C3332 C3333 1.390 . S
C3333 C3332 1.390 . S
C3333 C3334 1.394 . S
C3333 C3339 1.465 . S
C3334 C3329 1.399 . S
C3334 C3333 1.394 . S
C3334 C3335 1.516 . S
C3335 C3334 1.516 . S
C3335 C3336 1.502 . S
C3335 C3337 1.561 . S
C3335 C3338 1.526 . S
C3336 H3320 0.959 . S
C3336 H3321 0.959 . S
C3336 H3322 0.961 . S
C3336 C3335 1.502 . S
C3337 H3323 0.960 . S
C3337 H3324 0.961 . S
C3337 H3325 0.959 . S
C3337 C3335 1.561 . S
C3338 C3335 1.526 . S
C3338 C3339 1.396 . S
C3338 C3343 1.390 . S
C3339 C3333 1.465 . S
C3339 C3338 1.396 . S
C3339 C3340 1.399 . S
C3340 H3326 0.929 . S
C3340 C3339 1.399 . S
C3340 C3341 1.385 . S
C3341 H3327 0.931 . S
C3341 C3340 1.385 . S
C3341 C3342 1.389 . S
C3342 C3341 1.389 . S
C3342 C3343 1.387 . S
C3343 H3328 0.930 . S
C3343 C3338 1.390 . S
C3343 C3342 1.387 . S
H3344 C3356 0.930 . S
H3345 C3358 0.930 . S
H3346 C3359 0.930 . S
H3347 C3363 0.959 . S
H3348 C3363 0.959 . S
H3349 C3363 0.961 . S
H3350 C3364 0.960 . S
H3351 C3364 0.961 . S
H3352 C3364 0.959 . S
H3353 C3367 0.929 . S
H3354 C3368 0.931 . S
H3355 C3370 0.930 . S
C3356 H3344 0.930 . S
C3356 C3357 1.399 . S
C3356 C3361 1.399 . S
C3357 C3356 1.399 . S
C3357 C3358 1.376 . S
C3358 H3345 0.930 . S
C3358 C3357 1.376 . S
C3358 C3359 1.388 . S
C3359 H3346 0.930 . S
C3359 C3358 1.388 . S
C3359 C3360 1.390 . S
C3360 C3359 1.390 . S
C3360 C3361 1.394 . S
C3360 C3366 1.465 . S
C3361 C3356 1.399 . S
C3361 C3360 1.394 . S
C3361 C3362 1.516 . S
C3362 C3361 1.516 . S
C3362 C3363 1.502 . S
C3362 C3364 1.561 . S
C3362 C3365 1.526 . S
C3363 H3347 0.959 . S
C3363 H3348 0.959 . S
C3363 H3349 0.961 . S
C3363 C3362 1.502 . S
C3364 H3350 0.960 . S
C3364 H3351 0.961 . S
C3364 H3352 0.959 . S
C3364 C3362 1.561 . S
C3365 C3362 1.526 . S
C3365 C3366 1.396 . S
C3365 C3370 1.390 . S
C3366 C3360 1.465 . S
C3366 C3365 1.396 . S
C3366 C3367 1.399 . S
C3367 H3353 0.929 . S
C3367 C3366 1.399 . S
C3367 C3368 1.385 . S
C3368 H3354 0.931 . S
C3368 C3367 1.385 . S
C3368 C3369 1.389 . S
C3369 C3368 1.389 . S
C3369 C3370 1.387 . S
C3370 H3355 0.930 . S
C3370 C3365 1.390 . S
C3370 C3369 1.387 . S
H3371 C3383 0.930 . S
H3372 C3385 0.930 . S
H3373 C3386 0.930 . S
H3374 C3390 0.959 . S
H3375 C3390 0.959 . S
H3376 C3390 0.961 . S
H3377 C3391 0.960 . S
H3378 C3391 0.961 . S
H3379 C3391 0.959 . S
H3380 C3394 0.929 . S
H3381 C3395 0.931 . S
H3382 C3397 0.930 . S
C3383 H3371 0.930 . S
C3383 C3384 1.399 . S
C3383 C3388 1.399 . S
C3384 C3383 1.399 . S
C3384 C3385 1.376 . S
C3385 H3372 0.930 . S
C3385 C3384 1.376 . S
C3385 C3386 1.388 . S
C3386 H3373 0.930 . S
C3386 C3385 1.388 . S
C3386 C3387 1.390 . S
C3387 C3386 1.390 . S
C3387 C3388 1.394 . S
C3387 C3393 1.465 . S
C3388 C3383 1.399 . S
C3388 C3387 1.394 . S
C3388 C3389 1.516 . S
C3389 C3388 1.516 . S
C3389 C3390 1.502 . S
C3389 C3391 1.561 . S
C3389 C3392 1.526 . S
C3390 H3374 0.959 . S
C3390 H3375 0.959 . S
C3390 H3376 0.961 . S
C3390 C3389 1.502 . S
C3391 H3377 0.960 . S
C3391 H3378 0.961 . S
C3391 H3379 0.959 . S
C3391 C3389 1.561 . S
C3392 C3389 1.526 . S
C3392 C3393 1.396 . S
C3392 C3397 1.390 . S
C3393 C3387 1.465 . S
C3393 C3392 1.396 . S
C3393 C3394 1.399 . S
C3394 H3380 0.929 . S
C3394 C3393 1.399 . S
C3394 C3395 1.385 . S
C3395 H3381 0.931 . S
C3395 C3394 1.385 . S
C3395 C3396 1.389 . S
C3396 C3395 1.389 . S
C3396 C3397 1.387 . S
C3397 H3382 0.930 . S
C3397 C3392 1.390 . S
C3397 C3396 1.387 . S
H3398 C3410 0.930 . S
H3399 C3412 0.930 . S
H3400 C3413 0.930 . S
H3401 C3417 0.959 . S
H3402 C3417 0.959 . S
H3403 C3417 0.961 . S
H3404 C3418 0.960 . S
H3405 C3418 0.961 . S
H3406 C3418 0.959 . S
H3407 C3421 0.929 . S
H3408 C3422 0.931 . S
H3409 C3424 0.930 . S
C3410 H3398 0.930 . S
C3410 C3411 1.399 . S
C3410 C3415 1.399 . S
C3411 C3410 1.399 . S
C3411 C3412 1.376 . S
C3412 H3399 0.930 . S
C3412 C3411 1.376 . S
C3412 C3413 1.388 . S
C3413 H3400 0.930 . S
C3413 C3412 1.388 . S
C3413 C3414 1.390 . S
C3414 C3413 1.390 . S
C3414 C3415 1.394 . S
C3414 C3420 1.465 . S
C3415 C3410 1.399 . S
C3415 C3414 1.394 . S
C3415 C3416 1.516 . S
C3416 C3415 1.516 . S
C3416 C3417 1.502 . S
C3416 C3418 1.561 . S
C3416 C3419 1.526 . S
C3417 H3401 0.959 . S
C3417 H3402 0.959 . S
C3417 H3403 0.961 . S
C3417 C3416 1.502 . S
C3418 H3404 0.960 . S
C3418 H3405 0.961 . S
C3418 H3406 0.959 . S
C3418 C3416 1.561 . S
C3419 C3416 1.526 . S
C3419 C3420 1.396 . S
C3419 C3424 1.390 . S
C3420 C3414 1.465 . S
C3420 C3419 1.396 . S
C3420 C3421 1.399 . S
C3421 H3407 0.929 . S
C3421 C3420 1.399 . S
C3421 C3422 1.385 . S
C3422 H3408 0.931 . S
C3422 C3421 1.385 . S
C3422 C3423 1.389 . S
C3423 C3422 1.389 . S
C3423 C3424 1.387 . S
C3424 H3409 0.930 . S
C3424 C3419 1.390 . S
C3424 C3423 1.387 . S
H3425 C3437 0.930 . S
H3426 C3439 0.930 . S
H3427 C3440 0.930 . S
H3428 C3444 0.959 . S
H3429 C3444 0.959 . S
H3430 C3444 0.961 . S
H3431 C3445 0.960 . S
H3432 C3445 0.961 . S
H3433 C3445 0.959 . S
H3434 C3448 0.929 . S
H3435 C3449 0.931 . S
H3436 C3451 0.930 . S
C3437 H3425 0.930 . S
C3437 C3438 1.399 . S
C3437 C3442 1.399 . S
C3438 C3437 1.399 . S
C3438 C3439 1.376 . S
C3439 H3426 0.930 . S
C3439 C3438 1.376 . S
C3439 C3440 1.388 . S
C3440 H3427 0.930 . S
C3440 C3439 1.388 . S
C3440 C3441 1.390 . S
C3441 C3440 1.390 . S
C3441 C3442 1.394 . S
C3441 C3447 1.465 . S
C3442 C3437 1.399 . S
C3442 C3441 1.394 . S
C3442 C3443 1.516 . S
C3443 C3442 1.516 . S
C3443 C3444 1.502 . S
C3443 C3445 1.561 . S
C3443 C3446 1.526 . S
C3444 H3428 0.959 . S
C3444 H3429 0.959 . S
C3444 H3430 0.961 . S
C3444 C3443 1.502 . S
C3445 H3431 0.960 . S
C3445 H3432 0.961 . S
C3445 H3433 0.959 . S
C3445 C3443 1.561 . S
C3446 C3443 1.526 . S
C3446 C3447 1.396 . S
C3446 C3451 1.390 . S
C3447 C3441 1.465 . S
C3447 C3446 1.396 . S
C3447 C3448 1.399 . S
C3448 H3434 0.929 . S
C3448 C3447 1.399 . S
C3448 C3449 1.385 . S
C3449 H3435 0.931 . S
C3449 C3448 1.385 . S
C3449 C3450 1.389 . S
C3450 C3449 1.389 . S
C3450 C3451 1.387 . S
C3451 H3436 0.930 . S
C3451 C3446 1.390 . S
C3451 C3450 1.387 . S
H3452 C3464 0.930 . S
H3453 C3466 0.930 . S
H3454 C3467 0.930 . S
H3455 C3471 0.959 . S
H3456 C3471 0.959 . S
H3457 C3471 0.961 . S
H3458 C3472 0.960 . S
H3459 C3472 0.961 . S
H3460 C3472 0.959 . S
H3461 C3475 0.929 . S
H3462 C3476 0.931 . S
H3463 C3478 0.930 . S
C3464 H3452 0.930 . S
C3464 C3465 1.399 . S
C3464 C3469 1.399 . S
C3465 C3464 1.399 . S
C3465 C3466 1.376 . S
C3466 H3453 0.930 . S
C3466 C3465 1.376 . S
C3466 C3467 1.388 . S
C3467 H3454 0.930 . S
C3467 C3466 1.388 . S
C3467 C3468 1.390 . S
C3468 C3467 1.390 . S
C3468 C3469 1.394 . S
C3468 C3474 1.465 . S
C3469 C3464 1.399 . S
C3469 C3468 1.394 . S
C3469 C3470 1.516 . S
C3470 C3469 1.516 . S
C3470 C3471 1.502 . S
C3470 C3472 1.561 . S
C3470 C3473 1.526 . S
C3471 H3455 0.959 . S
C3471 H3456 0.959 . S
C3471 H3457 0.961 . S
C3471 C3470 1.502 . S
C3472 H3458 0.960 . S
C3472 H3459 0.961 . S
C3472 H3460 0.959 . S
C3472 C3470 1.561 . S
C3473 C3470 1.526 . S
C3473 C3474 1.396 . S
C3473 C3478 1.390 . S
C3474 C3468 1.465 . S
C3474 C3473 1.396 . S
C3474 C3475 1.399 . S
C3475 H3461 0.929 . S
C3475 C3474 1.399 . S
C3475 C3476 1.385 . S
C3476 H3462 0.931 . S
C3476 C3475 1.385 . S
C3476 C3477 1.389 . S
C3477 C3476 1.389 . S
C3477 C3478 1.387 . S
C3478 H3463 0.930 . S
C3478 C3473 1.390 . S
C3478 C3477 1.387 . S
H3479 C3491 0.930 . S
H3480 C3493 0.930 . S
H3481 C3494 0.930 . S
H3482 C3498 0.959 . S
H3483 C3498 0.959 . S
H3484 C3498 0.961 . S
H3485 C3499 0.960 . S
H3486 C3499 0.961 . S
H3487 C3499 0.959 . S
H3488 C3502 0.929 . S
H3489 C3503 0.931 . S
H3490 C3505 0.930 . S
C3491 H3479 0.930 . S
C3491 C3492 1.399 . S
C3491 C3496 1.399 . S
C3492 C3491 1.399 . S
C3492 C3493 1.376 . S
C3493 H3480 0.930 . S
C3493 C3492 1.376 . S
C3493 C3494 1.388 . S
C3494 H3481 0.930 . S
C3494 C3493 1.388 . S
C3494 C3495 1.390 . S
C3495 C3494 1.390 . S
C3495 C3496 1.394 . S
C3495 C3501 1.465 . S
C3496 C3491 1.399 . S
C3496 C3495 1.394 . S
C3496 C3497 1.516 . S
C3497 C3496 1.516 . S
C3497 C3498 1.502 . S
C3497 C3499 1.561 . S
C3497 C3500 1.526 . S
C3498 H3482 0.959 . S
C3498 H3483 0.959 . S
C3498 H3484 0.961 . S
C3498 C3497 1.502 . S
C3499 H3485 0.960 . S
C3499 H3486 0.961 . S
C3499 H3487 0.959 . S
C3499 C3497 1.561 . S
C3500 C3497 1.526 . S
C3500 C3501 1.396 . S
C3500 C3505 1.390 . S
C3501 C3495 1.465 . S
C3501 C3500 1.396 . S
C3501 C3502 1.399 . S
C3502 H3488 0.929 . S
C3502 C3501 1.399 . S
C3502 C3503 1.385 . S
C3503 H3489 0.931 . S
C3503 C3502 1.385 . S
C3503 C3504 1.389 . S
C3504 C3503 1.389 . S
C3504 C3505 1.387 . S
C3505 H3490 0.930 . S
C3505 C3500 1.390 . S
C3505 C3504 1.387 . S
H3506 C3518 0.930 . S
H3507 C3520 0.930 . S
H3508 C3521 0.930 . S
H3509 C3525 0.959 . S
H3510 C3525 0.959 . S
H3511 C3525 0.961 . S
H3512 C3526 0.960 . S
H3513 C3526 0.961 . S
H3514 C3526 0.959 . S
H3515 C3529 0.929 . S
H3516 C3530 0.931 . S
H3517 C3532 0.930 . S
C3518 H3506 0.930 . S
C3518 C3519 1.399 . S
C3518 C3523 1.399 . S
C3519 C3518 1.399 . S
C3519 C3520 1.376 . S
C3520 H3507 0.930 . S
C3520 C3519 1.376 . S
C3520 C3521 1.388 . S
C3521 H3508 0.930 . S
C3521 C3520 1.388 . S
C3521 C3522 1.390 . S
C3522 C3521 1.390 . S
C3522 C3523 1.394 . S
C3522 C3528 1.465 . S
C3523 C3518 1.399 . S
C3523 C3522 1.394 . S
C3523 C3524 1.516 . S
C3524 C3523 1.516 . S
C3524 C3525 1.502 . S
C3524 C3526 1.561 . S
C3524 C3527 1.526 . S
C3525 H3509 0.959 . S
C3525 H3510 0.959 . S
C3525 H3511 0.961 . S
C3525 C3524 1.502 . S
C3526 H3512 0.960 . S
C3526 H3513 0.961 . S
C3526 H3514 0.959 . S
C3526 C3524 1.561 . S
C3527 C3524 1.526 . S
C3527 C3528 1.396 . S
C3527 C3532 1.390 . S
C3528 C3522 1.465 . S
C3528 C3527 1.396 . S
C3528 C3529 1.399 . S
C3529 H3515 0.929 . S
C3529 C3528 1.399 . S
C3529 C3530 1.385 . S
C3530 H3516 0.931 . S
C3530 C3529 1.385 . S
C3530 C3531 1.389 . S
C3531 C3530 1.389 . S
C3531 C3532 1.387 . S
C3532 H3517 0.930 . S
C3532 C3527 1.390 . S
C3532 C3531 1.387 . S
H3533 C3545 0.930 . S
H3534 C3547 0.930 . S
H3535 C3548 0.930 . S
H3536 C3552 0.959 . S
H3537 C3552 0.959 . S
H3538 C3552 0.961 . S
H3539 C3553 0.960 . S
H3540 C3553 0.961 . S
H3541 C3553 0.959 . S
H3542 C3556 0.929 . S
H3543 C3557 0.931 . S
H3544 C3559 0.930 . S
C3545 H3533 0.930 . S
C3545 C3546 1.399 . S
C3545 C3550 1.399 . S
C3546 C3545 1.399 . S
C3546 C3547 1.376 . S
C3547 H3534 0.930 . S
C3547 C3546 1.376 . S
C3547 C3548 1.388 . S
C3548 H3535 0.930 . S
C3548 C3547 1.388 . S
C3548 C3549 1.390 . S
C3549 C3548 1.390 . S
C3549 C3550 1.394 . S
C3549 C3555 1.465 . S
C3550 C3545 1.399 . S
C3550 C3549 1.394 . S
C3550 C3551 1.516 . S
C3551 C3550 1.516 . S
C3551 C3552 1.502 . S
C3551 C3553 1.561 . S
C3551 C3554 1.526 . S
C3552 H3536 0.959 . S
C3552 H3537 0.959 . S
C3552 H3538 0.961 . S
C3552 C3551 1.502 . S
C3553 H3539 0.960 . S
C3553 H3540 0.961 . S
C3553 H3541 0.959 . S
C3553 C3551 1.561 . S
C3554 C3551 1.526 . S
C3554 C3555 1.396 . S
C3554 C3559 1.390 . S
C3555 C3549 1.465 . S
C3555 C3554 1.396 . S
C3555 C3556 1.399 . S
C3556 H3542 0.929 . S
C3556 C3555 1.399 . S
C3556 C3557 1.385 . S
C3557 H3543 0.931 . S
C3557 C3556 1.385 . S
C3557 C3558 1.389 . S
C3558 C3557 1.389 . S
C3558 C3559 1.387 . S
C3559 H3544 0.930 . S
C3559 C3554 1.390 . S
C3559 C3558 1.387 . S
C993 N428 1.852 . S
C981 C8 1.860 . S
C1020 C455 1.009 . S
C1008 C17 1.069 . S
C1035 C35 1.874 . S
C1047 C469 1.867 . S
C1074 N487 1.421 . S
C1062 C43 1.337 . S
C1089 C56 1.110 . S
C1101 C492 1.232 . S
C1116 C73 1.751 . S
C1128 C432 1.749 1_556 S
C1143 C87 1.431 . S
C1155 N451 1.436 . S
C1182 N464 1.722 . S
C1170 C100 1.735 . S
C1209 N510 1.663 . S
C1197 C9 1.642 . S
C1224 C22 1.403 . S
C1236 N533 1.408 . S
C1251 C34 1.839 . S
C1263 N556 1.821 . S
C1290 N589 1.494 . S
C1278 C47 1.554 . S
C1305 C61 1.381 . S
C1317 C616 1.368 . S
C1344 C639 1.571 . S
C1332 C69 1.559 . S
C1359 C82 1.161 . S
C1371 C662 1.256 . S
C1398 C676 1.870 . S
C1386 C99 1.883 . S
C1413 C4 1.704 . S
C1425 C593 1.828 . S
C1440 C60 1.489 . S
C1452 N635 1.489 1_565 S
C1479 N658 1.650 . S
C1467 C74 1.724 . S
C1494 C86 1.384 . S
C1506 N671 1.367 . S
C1533 N612 1.784 . S
C1521 C95 1.775 . S
C1560 C538 1.445 1_565 S
C1548 C30 1.425 . S
C1575 C48 1.175 . S
C1587 C561 1.234 . S
C1614 C515 1.444 . S
C1602 C21 1.451 . S
C1641 C708 1.806 . S
C1629 C112 1.844 . S
C1656 C121 1.091 . S
C1668 C722 1.133 . S
C1683 C139 1.698 . S
C1695 N750 1.626 . S
C1722 N763 1.453 . S
C1710 C147 1.344 . S
C1737 C160 1.159 . S
C1749 C768 1.186 . S
C1764 C177 1.702 . S
C1776 N704 1.657 . S
C1791 C191 1.520 . S
C1803 N717 1.514 . S
C1818 C204 1.780 . S
C1830 C754 1.776 . S
C1857 N602 1.830 . S
C1845 C113 1.847 . S
C1872 C126 1.470 . S
C1884 N786 1.456 . S
C1911 N648 1.663 . S
C1899 C138 1.680 . S
C1926 C151 1.495 . S
C1938 C823 1.518 . S
C1953 C165 1.243 . S
C1965 C524 1.265 . S
C1992 C837 1.693 . S
C1980 C173 1.596 . S
C2007 C186 1.244 . S
C2019 C570 1.285 . S
C2046 N855 1.800 . S
C2034 C203 1.810 . S
C2061 C108 1.710 . S
C2073 N819 1.669 . S
C2100 N832 1.409 . S
C2088 C164 1.429 . S
C2115 C178 1.829 . S
C2127 N566 1.816 . S
C2154 C860 1.399 . S
C2142 C190 1.408 . S
C2169 C199 1.669 . S
C2181 N520 1.675 . S
C2196 C134 1.267 . S
C2208 C791 1.322 . S
C2223 C152 1.297 . S
C2235 C653 1.262 . S
C2250 C125 1.542 . S
C2262 C607 1.545 . S
C2277 C216 1.927 . S
C2289 C745 1.909 . S
C2316 C777 1.123 . S
C2304 C225 1.034 . S
C2331 C243 1.877 . S
C2343 N694 1.876 . S
C2358 C251 1.348 . S
C2370 N727 1.423 . S
C2385 C264 1.140 . S
C2397 C731 1.236 . S
C2412 C281 1.548 . S
C2424 N740 1.509 . S
C2451 N773 1.423 . S
C2439 C295 1.405 . S
C2466 C308 1.763 . S
C2478 C699 1.787 . S
C2505 N888 1.803 . S
C2493 C217 1.812 . S
C2520 C230 1.401 . S
C2532 N625 1.310 . S
C2559 N911 1.724 . S
C2547 C242 1.755 . S
C2574 C255 1.559 . S
C2586 N681 1.496 . S
C2601 C269 1.341 . S
C2613 C929 1.359 . S
C2628 C277 1.512 . S
C2640 C547 1.572 . S
C2667 N947 1.268 . S
C2655 C290 1.189 . S
C2682 C307 1.906 . S
C2694 C584 1.867 . S
C2721 C685 1.834 . S
C2709 C212 1.767 . S
C2748 N543 1.464 . S
C2736 C268 1.464 . S
C2763 C282 1.758 . S
C2775 C952 1.779 . S
C2790 C294 1.426 . S
C2802 N579 1.341 . S
C2829 N924 1.811 . S
C2817 C303 1.801 . S
C2856 C630 1.493 . S
C2844 C238 1.425 . S
C2883 C915 1.252 . S
C2871 C256 1.209 . S
C2910 C892 1.431 . S
C2898 C229 1.472 . S
C2925 C320 1.762 . S
C2937 N474 1.730 . S
C2952 C329 1.150 . S
C2964 C501 1.118 . S
C2991 C423 1.981 . S
C2979 C347 1.951 . S
C3018 N441 1.434 . S
C3006 C355 1.287 . S
C3045 C446 1.149 . S
C3033 C368 1.179 . S
C3072 C478 1.620 1_556 S
C3060 C385 1.606 . S
C3099 N497 1.455 . S
C3087 C399 1.434 . S
C3114 C412 1.781 . S
C3126 N418 1.753 1_556 S
C3141 C321 1.681 . S
C3153 N934 1.680 . S
C3180 N842 1.406 . S
C3168 C334 1.439 . S
C3207 C961 1.739 . S
C3195 C342 1.728 . S
C3234 C869 1.390 . S
C3222 C359 1.400 . S
C3249 C373 1.382 . S
C3261 C883 1.399 . S
C3288 C800 1.488 . S
C3276 C381 1.467 . S
C3315 C906 1.336 . S
C3303 C394 1.340 . S
C3330 C411 1.821 . S
C3342 N809 1.813 . S
C3369 N865 1.614 . S
C3357 C316 1.613 . S
C3396 N796 1.452 . S
C3384 C372 1.493 . S
C3423 N901 1.762 . S
C3411 C386 1.781 . S
C3438 C398 1.346 . S
C3450 C814 1.377 . S
C3465 C407 1.768 . S
C3477 N878 1.785 . S
C3492 C346 1.699 . S
C3504 C846 1.689 . S
C3519 C360 1.192 . S
C3531 N957 1.135 . S
C3558 C938 1.502 . S
C3546 C333 1.546 . S
