# Generated by pormake.
# Topology wbl, (4,4)-cn, num edge types: 1
# Building blocks:
#     Node 0, Type 0, BuildingBlock: MUDLON_clean_linker_0, # of connection points: 4
#     Node 1, Type 0, BuildingBlock: MUDLON_clean_linker_0, # of connection points: 4
#     Node 2, Type 0, BuildingBlock: MUDLON_clean_linker_0, # of connection points: 4
#     Node 3, Type 0, BuildingBlock: MUDLON_clean_linker_0, # of connection points: 4
#     Node 4, Type 0, BuildingBlock: MUDLON_clean_linker_0, # of connection points: 4
#     Node 5, Type 0, BuildingBlock: MUDLON_clean_linker_0, # of connection points: 4
#     Node 6, Type 0, BuildingBlock: MUDLON_clean_linker_0, # of connection points: 4
#     Node 7, Type 0, BuildingBlock: MUDLON_clean_linker_0, # of connection points: 4
#     Node 8, Type 1, BuildingBlock: NAHDIM_clean_sbu_0, # of connection points: 4
#     Node 9, Type 1, BuildingBlock: NAHDIM_clean_sbu_0, # of connection points: 4
#     Node 10, Type 1, BuildingBlock: NAHDIM_clean_sbu_0, # of connection points: 4
#     Node 11, Type 1, BuildingBlock: NAHDIM_clean_sbu_0, # of connection points: 4
#     Node 12, Type 1, BuildingBlock: NAHDIM_clean_sbu_0, # of connection points: 4
#     Node 13, Type 1, BuildingBlock: NAHDIM_clean_sbu_0, # of connection points: 4
#     Node 14, Type 1, BuildingBlock: NAHDIM_clean_sbu_0, # of connection points: 4
#     Node 15, Type 1, BuildingBlock: NAHDIM_clean_sbu_0, # of connection points: 4
#     Edge 16, Type (0, 1), BuildingBlock: MIFKUJ_clean_linker_0, # of connection points: 2
#     Edge 17, Type (0, 1), BuildingBlock: MIFKUJ_clean_linker_0, # of connection points: 2
#     Edge 18, Type (0, 1), BuildingBlock: MIFKUJ_clean_linker_0, # of connection points: 2
#     Edge 19, Type (0, 1), BuildingBlock: MIFKUJ_clean_linker_0, # of connection points: 2
#     Edge 20, Type (0, 1), BuildingBlock: MIFKUJ_clean_linker_0, # of connection points: 2
#     Edge 21, Type (0, 1), BuildingBlock: MIFKUJ_clean_linker_0, # of connection points: 2
#     Edge 22, Type (0, 1), BuildingBlock: MIFKUJ_clean_linker_0, # of connection points: 2
#     Edge 23, Type (0, 1), BuildingBlock: MIFKUJ_clean_linker_0, # of connection points: 2
#     Edge 24, Type (0, 1), BuildingBlock: MIFKUJ_clean_linker_0, # of connection points: 2
#     Edge 25, Type (0, 1), BuildingBlock: MIFKUJ_clean_linker_0, # of connection points: 2
#     Edge 26, Type (0, 1), BuildingBlock: MIFKUJ_clean_linker_0, # of connection points: 2
#     Edge 27, Type (0, 1), BuildingBlock: MIFKUJ_clean_linker_0, # of connection points: 2
#     Edge 28, Type (0, 1), BuildingBlock: MIFKUJ_clean_linker_0, # of connection points: 2
#     Edge 29, Type (0, 1), BuildingBlock: MIFKUJ_clean_linker_0, # of connection points: 2
#     Edge 30, Type (0, 1), BuildingBlock: MIFKUJ_clean_linker_0, # of connection points: 2
#     Edge 31, Type (0, 1), BuildingBlock: MIFKUJ_clean_linker_0, # of connection points: 2
#     Edge 32, Type (0, 1), BuildingBlock: MIFKUJ_clean_linker_0, # of connection points: 2
#     Edge 33, Type (0, 1), BuildingBlock: MIFKUJ_clean_linker_0, # of connection points: 2
#     Edge 34, Type (0, 1), BuildingBlock: MIFKUJ_clean_linker_0, # of connection points: 2
#     Edge 35, Type (0, 1), BuildingBlock: MIFKUJ_clean_linker_0, # of connection points: 2
#     Edge 36, Type (0, 1), BuildingBlock: MIFKUJ_clean_linker_0, # of connection points: 2
#     Edge 37, Type (0, 1), BuildingBlock: MIFKUJ_clean_linker_0, # of connection points: 2
#     Edge 38, Type (0, 1), BuildingBlock: MIFKUJ_clean_linker_0, # of connection points: 2
#     Edge 39, Type (0, 1), BuildingBlock: MIFKUJ_clean_linker_0, # of connection points: 2
#     Edge 40, Type (0, 1), BuildingBlock: MIFKUJ_clean_linker_0, # of connection points: 2
#     Edge 41, Type (0, 1), BuildingBlock: MIFKUJ_clean_linker_0, # of connection points: 2
#     Edge 42, Type (0, 1), BuildingBlock: MIFKUJ_clean_linker_0, # of connection points: 2
#     Edge 43, Type (0, 1), BuildingBlock: MIFKUJ_clean_linker_0, # of connection points: 2
#     Edge 44, Type (0, 1), BuildingBlock: MIFKUJ_clean_linker_0, # of connection points: 2
#     Edge 45, Type (0, 1), BuildingBlock: MIFKUJ_clean_linker_0, # of connection points: 2
#     Edge 46, Type (0, 1), BuildingBlock: MIFKUJ_clean_linker_0, # of connection points: 2
#     Edge 47, Type (0, 1), BuildingBlock: MIFKUJ_clean_linker_0, # of connection points: 2
# Relax obj value: 0.110
# Max RMSD: 0.118
# Mean RMSD: 0.108
data_MOF--net-wbl--node1-NAHDIM_clean_sbu_0--node2-MUDLON_clean_linker_0--edge1-MIFKUJ_clean_linker_0
_symmetry_space_group_name_H-M    P1
_symmetry_Int_Tables_number       1
_symmetry_cell_setting            triclinic
loop_
_symmetry_equiv_pos_as_xyz
'x, y, z'
_cell_length_a     66.702461
_cell_length_b     64.837017
_cell_length_c     91.039041
_cell_angle_alpha  89.985347
_cell_angle_beta   89.993392
_cell_angle_gamma 89.990828
loop_
_atom_site_label
_atom_site_type_symbol
_atom_site_fract_x
_atom_site_fract_y
_atom_site_fract_z
_atom_type_partial_charge
H0 H 0.11762 0.98183 0.33367 0.0
N1 N 0.08534 0.98122 0.31673 0.0
H2 H 0.1227 0.96386 0.35701 0.0
H3 H 0.05704 0.95898 0.33163 0.0
H4 H 0.06206 0.94054 0.35485 0.0
H5 H 0.06956 0.94394 0.30849 0.0
H6 H 0.0847 0.91972 0.29121 0.0
H7 H 0.11498 0.9889 0.29818 0.0
H8 H 0.13053 0.96468 0.28109 0.0
H9 H 0.08421 0.01995 0.32559 0.0
H10 H 0.04873 0.97359 0.30383 0.0
H11 H 0.05641 0.0442 0.32394 0.0
H12 H 0.02119 0.99806 0.30129 0.0
H13 H 0.97026 0.12047 0.32423 0.0
H14 H 0.95672 0.13168 0.34793 0.0
H15 H 0.94814 0.06798 0.3604 0.0
H16 H 0.96119 0.05701 0.33674 0.0
H17 H 0.93843 0.05847 0.31538 0.0
H18 H 0.90822 0.06316 0.30085 0.0
H19 H 0.93834 0.10952 0.27483 0.0
H20 H 0.96857 0.10501 0.28978 0.0
H21 H 0.01073 0.08987 0.30923 0.0
H22 H 0.03827 0.06512 0.30802 0.0
H23 H 0.99608 0.01527 0.31453 0.0
N24 N 0.97232 0.0823 0.31386 0.0
H25 H 0.96868 0.04002 0.31466 0.0
C26 C 0.08705 0.97173 0.33097 0.0
C27 C 0.1054 0.97301 0.33836 0.0
C28 C 0.10829 0.9626 0.35159 0.0
C29 C 0.09284 0.95061 0.3577 0.0
C30 C 0.07421 0.94977 0.35047 0.0
C31 C 0.07134 0.96022 0.33718 0.0
C32 C 0.09126 0.96826 0.30464 0.0
C33 C 0.0825 0.94881 0.30224 0.0
C34 C 0.09127 0.9349 0.29242 0.0
C35 C 0.10895 0.94016 0.28487 0.0
C36 C 0.1168 0.96016 0.28657 0.0
C37 C 0.108 0.97404 0.29636 0.0
C38 C 0.06872 0.99511 0.31473 0.0
C39 C 0.07049 0.01517 0.32022 0.0
C40 C 0.0546 0.02904 0.31914 0.0
C41 C 0.03652 0.02324 0.31232 0.0
C42 C 0.03478 0.00305 0.30674 0.0
C43 C 0.05065 0.98904 0.30805 0.0
C44 C 0.96684 0.08798 0.32864 0.0
C45 C 0.96577 0.10897 0.33221 0.0
C46 C 0.95807 0.11532 0.34575 0.0
C47 C 0.95123 0.10071 0.35601 0.0
C48 C 0.95301 0.07963 0.35264 0.0
C49 C 0.96068 0.07331 0.3391 0.0
C50 C 0.95579 0.08154 0.3037 0.0
C51 C 0.9388 0.06924 0.30632 0.0
C52 C 0.92147 0.07191 0.29793 0.0
C53 C 0.92079 0.08688 0.28676 0.0
C54 C 0.93828 0.09809 0.28351 0.0
C55 C 0.95559 0.09544 0.29193 0.0
C56 C 0.98775 0.06693 0.31227 0.0
C57 C 0.00749 0.07356 0.31021 0.0
C58 C 0.0232 0.05937 0.30968 0.0
C59 C 0.01952 0.03813 0.31146 0.0
C60 C 0.99955 0.03144 0.31303 0.0
C61 C 0.9838 0.04567 0.31329 0.0
H62 H 0.9904 0.37516 0.57735 0.0
N63 N 0.98618 0.40924 0.56149 0.0
H64 H 0.97548 0.36765 0.60136 0.0
H65 H 0.96629 0.43678 0.5791 0.0
H66 H 0.95121 0.4294 0.60285 0.0
H67 H 0.94722 0.42149 0.55801 0.0
H68 H 0.92214 0.40298 0.54376 0.0
H69 H 0.99373 0.38328 0.53967 0.0
H70 H 0.96899 0.36574 0.52435 0.0
H71 H 0.02526 0.4052 0.55792 0.0
H72 H 0.97776 0.4501 0.55734 0.0
H73 H 0.04993 0.43237 0.55408 0.0
H74 H 0.00237 0.47783 0.55501 0.0
H75 H 0.12336 0.52747 0.56798 0.0
H76 H 0.13035 0.54343 0.5918 0.0
H77 H 0.06671 0.55015 0.5994 0.0
H78 H 0.05992 0.53443 0.57548 0.0
H79 H 0.06345 0.55589 0.55343 0.0
H80 H 0.06988 0.58646 0.53874 0.0
H81 H 0.11945 0.55534 0.51763 0.0
H82 H 0.11332 0.52493 0.53296 0.0
H83 H 0.09078 0.48463 0.56667 0.0
H84 H 0.06569 0.45756 0.56722 0.0
H85 H 0.02591 0.49575 0.54132 0.0
N86 N 0.08788 0.52202 0.55533 0.0
H87 H 0.05049 0.5233 0.54179 0.0
C88 C 0.97962 0.40649 0.57644 0.0
C89 C 0.98221 0.38716 0.58304 0.0
C90 C 0.97354 0.38286 0.59667 0.0
C91 C 0.96205 0.3979 0.60396 0.0
C92 C 0.96016 0.41757 0.5976 0.0
C93 C 0.96881 0.42182 0.58396 0.0
C94 C 0.97226 0.40318 0.55025 0.0
C95 C 0.95212 0.40956 0.55053 0.0
C96 C 0.93776 0.39904 0.54222 0.0
C97 C 0.94342 0.38236 0.53322 0.0
C98 C 0.96397 0.37795 0.53158 0.0
C99 C 0.9782 0.38812 0.54016 0.0
C100 C -0.00012 0.42572 0.55835 0.0
C101 C 0.02025 0.42105 0.55712 0.0
C102 C 0.03432 0.43668 0.5551 0.0
C103 C 0.02833 0.45751 0.55465 0.0
C104 C 0.00766 0.46206 0.55529 0.0
C105 C 0.99353 0.44625 0.5569 0.0
C106 C 0.09123 0.52975 0.56999 0.0
C107 C 0.11097 0.53217 0.57491 0.0
C108 C 0.11489 0.54122 0.58852 0.0
C109 C 0.09907 0.54808 0.59748 0.0
C110 C 0.07922 0.54524 0.59267 0.0
C111 C 0.07531 0.53615 0.57905 0.0
C112 C 0.08812 0.53815 0.54441 0.0
C113 C 0.07544 0.55544 0.54544 0.0
C114 C 0.07906 0.57293 0.53691 0.0
C115 C 0.09537 0.57348 0.52712 0.0
C116 C 0.107 0.55556 0.52526 0.0
C117 C 0.10341 0.5381 0.53388 0.0
C118 C 0.07276 0.50609 0.55427 0.0
C119 C 0.07664 0.48714 0.56109 0.0
C120 C 0.06227 0.47156 0.56125 0.0
C121 C 0.04368 0.47425 0.55419 0.0
C122 C 0.03987 0.49315 0.54708 0.0
C123 C 0.05415 0.50899 0.54723 0.0
H124 H 0.61799 0.4889 0.82889 0.0
N125 N 0.58416 0.48932 0.81357 0.0
H126 H 0.62465 0.47096 0.852 0.0
H127 H 0.55661 0.46827 0.83015 0.0
H128 H 0.56279 0.45109 0.85354 0.0
H129 H 0.57836 0.44785 0.80918 0.0
H130 H 0.59607 0.42682 0.79136 0.0
H131 H 0.60303 0.50289 0.78975 0.0
H132 H 0.61933 0.48211 0.77086 0.0
H133 H 0.58442 0.52963 0.81774 0.0
H134 H 0.54603 0.47924 0.80524 0.0
H135 H 0.55613 0.55345 0.81628 0.0
H136 H 0.51722 0.50286 0.80426 0.0
H137 H 0.46485 0.62515 0.82434 0.0
H138 H 0.45044 0.63401 0.84826 0.0
H139 H 0.44084 0.56926 0.85717 0.0
H140 H 0.45492 0.56065 0.83315 0.0
H141 H 0.44215 0.55572 0.80884 0.0
H142 H 0.41027 0.55725 0.7957 0.0
H143 H 0.42448 0.61914 0.78131 0.0
H144 H 0.45662 0.61698 0.79394 0.0
H145 H 0.49962 0.58469 0.83095 0.0
H146 H 0.5269 0.56015 0.8305 0.0
H147 H 0.50256 0.53263 0.79118 0.0
N148 N 0.46843 0.58788 0.81242 0.0
H149 H 0.47481 0.55688 0.79175 0.0
C150 C 0.58685 0.48014 0.82786 0.0
C151 C 0.60587 0.48084 0.83434 0.0
C152 C 0.60958 0.47065 0.84758 0.0
C153 C 0.59424 0.45958 0.85468 0.0
C154 C 0.57502 0.45924 0.84829 0.0
C155 C 0.57138 0.46931 0.83498 0.0
C156 C 0.59002 0.47697 0.80112 0.0
C157 C 0.58715 0.45548 0.8008 0.0
C158 C 0.59717 0.44341 0.79041 0.0
C159 C 0.60973 0.45264 0.77983 0.0
C160 C 0.61051 0.47434 0.77917 0.0
C161 C 0.60099 0.48631 0.78983 0.0
C162 C 0.56723 0.50279 0.81176 0.0
C163 C 0.56979 0.52378 0.81468 0.0
C164 C 0.55358 0.53729 0.81394 0.0
C165 C 0.53431 0.53001 0.81039 0.0
C166 C 0.53186 0.50897 0.80699 0.0
C167 C 0.54823 0.49544 0.80764 0.0
C168 C 0.46096 0.59235 0.82698 0.0
C169 C 0.45974 0.61293 0.83154 0.0
C170 C 0.4516 0.61791 0.84521 0.0
C171 C 0.4445 0.60233 0.85462 0.0
C172 C 0.44593 0.58164 0.8501 0.0
C173 C 0.45403 0.57668 0.8364 0.0
C174 C 0.45184 0.58627 0.80229 0.0
C175 C 0.43863 0.56935 0.80249 0.0
C176 C 0.42029 0.57036 0.79508 0.0
C177 C 0.41459 0.58844 0.78759 0.0
C178 C 0.42837 0.60484 0.78675 0.0
C179 C 0.44679 0.60368 0.79398 0.0
C180 C 0.48412 0.57224 0.81196 0.0
C181 C 0.4997 0.57311 0.82239 0.0
C182 C 0.51558 0.55919 0.822 0.0
C183 C 0.51688 0.54431 0.81084 0.0
C184 C 0.50174 0.54361 0.80012 0.0
C185 C 0.48569 0.55756 0.80054 0.0
H186 H 0.45381 0.92118 0.07121 0.0
N187 N 0.44445 0.95829 0.05853 0.0
H188 H 0.44517 0.91 0.09596 0.0
H189 H 0.42583 0.98007 0.07922 0.0
H190 H 0.41698 0.96886 0.10417 0.0
H191 H 0.40652 0.95366 0.05056 0.0
H192 H 0.39193 0.92476 0.03712 0.0
H193 H 0.46576 0.92976 0.04184 0.0
H194 H 0.45137 0.90146 0.02817 0.0
H195 H 0.48136 0.94057 0.06344 0.0
H196 H 0.45195 0.99655 0.04974 0.0
H197 H 0.51368 0.95723 0.06142 0.0
H198 H 0.48436 0.01407 0.04876 0.0
H199 H 0.61344 0.03097 0.07118 0.0
H200 H 0.62328 0.0443 0.09518 0.0
H201 H 0.56101 0.05697 0.10508 0.0
H202 H 0.55165 0.04517 0.08071 0.0
H203 H 0.55746 0.06826 0.05909 0.0
H204 H 0.56839 0.09944 0.04658 0.0
H205 H 0.615 0.06469 0.02469 0.0
H206 H 0.6045 0.03369 0.03799 0.0
H207 H 0.56521 0.99835 0.07475 0.0
H208 H 0.53346 0.98032 0.07373 0.0
H209 H 0.51524 0.01845 0.03712 0.0
N210 N 0.57705 0.0312 0.05914 0.0
H211 H 0.54637 0.03733 0.03873 0.0
C212 C 0.44054 0.9516 0.07338 0.0
C213 C 0.4461 0.93186 0.07837 0.0
C214 C 0.44116 0.92547 0.09255 0.0
C215 C 0.43044 0.93858 0.102 0.0
C216 C 0.42513 0.95839 0.09708 0.0
C217 C 0.43022 0.96484 0.0829 0.0
C218 C 0.4372 0.94396 0.04756 0.0
C219 C 0.41641 0.9426 0.04536 0.0
C220 C 0.4081 0.92607 0.03764 0.0
C221 C 0.42048 0.91057 0.0318 0.0
C222 C 0.44139 0.91288 0.03287 0.0
C223 C 0.44969 0.92929 0.04071 0.0
C224 C 0.46408 0.96724 0.05649 0.0
C225 C 0.4818 0.95646 0.0599 0.0
C226 C 0.5004 0.96618 0.05895 0.0
C227 C 0.5018 0.98715 0.05507 0.0
C228 C 0.48404 0.99784 0.05154 0.0
C229 C 0.46545 0.98791 0.05216 0.0
C230 C 0.58187 0.03681 0.07414 0.0
C231 C 0.60196 0.03645 0.07863 0.0
C232 C 0.6075 0.044 0.09242 0.0
C233 C 0.59297 0.05182 0.10218 0.0
C234 C 0.57272 0.05153 0.09782 0.0
C235 C 0.56726 0.04446 0.0839 0.0
C236 C 0.58039 0.04867 0.04959 0.0
C237 C 0.56986 0.0673 0.05146 0.0
C238 C 0.57604 0.08512 0.04415 0.0
C239 C 0.59276 0.08469 0.03471 0.0
C240 C 0.60234 0.06569 0.0321 0.0
C241 C 0.59625 0.04791 0.03954 0.0
C242 C 0.55817 0.02013 0.05747 0.0
C243 C 0.5543 0.00311 0.06662 0.0
C244 C 0.53613 0.99253 0.06586 0.0
C245 C 0.52151 0.99801 0.05543 0.0
C246 C 0.5258 0.0142 0.04562 0.0
C247 C 0.54385 0.0251 0.04658 0.0
H248 H 0.04376 0.5397 0.92457 0.0
N249 N 0.03081 0.56194 0.94835 0.0
H250 H 0.05417 0.55376 0.90093 0.0
H251 H 0.02532 0.60027 0.93867 0.0
H252 H 0.03519 0.61445 0.91479 0.0
H253 H 0.03705 0.58896 0.96985 0.0
H254 H 0.06939 0.59892 0.98049 0.0
H255 H 0.06625 0.54098 0.94503 0.0
H256 H 0.0984 0.55055 0.95571 0.0
H257 H 0.04121 0.52593 0.96353 0.0
H258 H 0.99501 0.55374 0.93668 0.0
H259 H 0.02249 0.49405 0.9641 0.0
H260 H 0.97639 0.52146 0.93712 0.0
H261 H 0.96006 0.39063 0.93752 0.0
H262 H 0.94822 0.37725 0.91389 0.0
H263 H 0.92607 0.43785 0.90263 0.0
H264 H 0.93815 0.45109 0.92603 0.0
H265 H 0.91582 0.44135 0.94692 0.0
H266 H 0.88874 0.43144 0.96325 0.0
H267 H 0.93024 0.39582 0.98939 0.0
H268 H 0.95765 0.40603 0.97286 0.0
H269 H 0.99431 0.43344 0.94721 0.0
H270 H 0.01309 0.46588 0.94792 0.0
H271 H 0.95754 0.49941 0.95312 0.0
N272 N 0.95491 0.42825 0.94835 0.0
H273 H 0.93901 0.4673 0.95195 0.0
C274 C 0.03384 0.56903 0.93345 0.0
C275 C 0.04155 0.55597 0.92246 0.0
C276 C 0.04739 0.56403 0.90889 0.0
C277 C 0.04566 0.58527 0.90601 0.0
C278 C 0.037 0.59808 0.91675 0.0
C279 C 0.03118 0.59001 0.93032 0.0
C280 C 0.04914 0.56429 0.95667 0.0
C281 C 0.05033 0.58018 0.96706 0.0
C282 C 0.06881 0.58583 0.9731 0.0
C283 C 0.08648 0.57568 0.96878 0.0
C284 C 0.0851 0.55893 0.95904 0.0
C285 C 0.06668 0.55336 0.95298 0.0
C286 C 0.02008 0.54245 0.94944 0.0
C287 C 0.02732 0.52533 0.95745 0.0
C288 C 0.0165 0.50687 0.95787 0.0
C289 C 0.99807 0.50506 0.95051 0.0
C290 C 0.9905 0.52229 0.94298 0.0
C291 C 0.00126 0.54074 0.94259 0.0
C292 C 0.95011 0.42179 0.93358 0.0
C293 C 0.953 0.40106 0.9298 0.0
C294 C 0.94607 0.39344 0.91638 0.0
C295 C 0.93607 0.40647 0.90644 0.0
C296 C 0.93389 0.42746 0.90997 0.0
C297 C 0.94079 0.43506 0.92342 0.0
C298 C 0.93894 0.42456 0.95873 0.0
C299 C 0.91933 0.43183 0.95632 0.0
C300 C 0.90379 0.42617 0.96572 0.0
C301 C 0.90739 0.41293 0.97764 0.0
C302 C 0.92704 0.40602 0.98026 0.0
C303 C 0.94268 0.4119 0.97091 0.0
C304 C 0.9653 0.44773 0.94959 0.0
C305 C 0.98625 0.44782 0.94859 0.0
C306 C 0.99694 0.46635 0.94907 0.0
C307 C 0.98681 0.48527 0.95057 0.0
C308 C 0.9658 0.48515 0.95176 0.0
C309 C 0.95514 0.46663 0.95122 0.0
H310 H 0.52033 0.38477 0.1857 0.0
N311 N 0.52369 0.41819 0.20236 0.0
H312 H 0.5353 0.37876 0.16149 0.0
H313 H 0.54497 0.44617 0.18623 0.0
H314 H 0.56011 0.44032 0.16215 0.0
H315 H 0.56354 0.42619 0.2068 0.0
H316 H 0.58547 0.4069 0.2232 0.0
H317 H 0.51207 0.39512 0.2249 0.0
H318 H 0.53367 0.37696 0.24226 0.0
H319 H 0.4843 0.41417 0.20193 0.0
H320 H 0.53139 0.45846 0.20889 0.0
H321 H 0.45915 0.44129 0.20452 0.0
H322 H 0.5064 0.48617 0.21068 0.0
H323 H 0.38322 0.53216 0.19559 0.0
H324 H 0.3727 0.54491 0.17146 0.0
H325 H 0.43472 0.55566 0.16 0.0
H326 H 0.44505 0.54232 0.18391 0.0
H327 H 0.44936 0.55987 0.2065 0.0
H328 H 0.44653 0.59346 0.21844 0.0
H329 H 0.39107 0.57413 0.23874 0.0
H330 H 0.39416 0.54048 0.22684 0.0
H331 H 0.42198 0.49543 0.19017 0.0
H332 H 0.44751 0.46891 0.19015 0.0
H333 H 0.47909 0.50085 0.22476 0.0
N334 N 0.42032 0.5299 0.20623 0.0
H335 H 0.45394 0.52787 0.22446 0.0
C336 C 0.53143 0.41587 0.1877 0.0
C337 C 0.52881 0.39699 0.18049 0.0
C338 C 0.53747 0.39358 0.16675 0.0
C339 C 0.54895 0.40906 0.15994 0.0
C340 C 0.55116 0.42819 0.16704 0.0
C341 C 0.54252 0.43155 0.18082 0.0
C342 C 0.5362 0.41149 0.21431 0.0
C343 C 0.55688 0.41566 0.21462 0.0
C344 C 0.56943 0.40473 0.22416 0.0
C345 C 0.56143 0.38984 0.23379 0.0
C346 C 0.54045 0.3877 0.23463 0.0
C347 C 0.52802 0.39823 0.22485 0.0
C348 C 0.50954 0.43444 0.20497 0.0
C349 C 0.48912 0.42985 0.20399 0.0
C350 C 0.47484 0.44541 0.20534 0.0
C351 C 0.48074 0.46603 0.2075 0.0
C352 C 0.50132 0.47048 0.20904 0.0
C353 C 0.51563 0.45475 0.20787 0.0
C354 C 0.41482 0.53631 0.19156 0.0
C355 C 0.39449 0.5371 0.18778 0.0
C356 C 0.38854 0.54453 0.17406 0.0
C357 C 0.40287 0.55142 0.16384 0.0
C358 C 0.42331 0.55029 0.16755 0.0
C359 C 0.42924 0.54283 0.18127 0.0
C360 C 0.42184 0.54766 0.21574 0.0
C361 C 0.43686 0.56267 0.21379 0.0
C362 C 0.43518 0.5819 0.22059 0.0
C363 C 0.41843 0.58656 0.22936 0.0
C364 C 0.40424 0.571 0.23215 0.0
C365 C 0.40596 0.55176 0.22537 0.0
C366 C 0.43619 0.51449 0.20671 0.0
C367 C 0.43456 0.49705 0.1976 0.0
C368 C 0.44909 0.48164 0.19776 0.0
C369 C 0.46546 0.48274 0.20743 0.0
C370 C 0.46692 0.49977 0.21693 0.0
C371 C 0.45239 0.51538 0.21669 0.0
H372 H 0.37951 0.98098 0.43352 0.0
N373 N 0.41266 0.9785 0.44948 0.0
H374 H 0.37279 0.96469 0.4098 0.0
H375 H 0.43983 0.95719 0.43265 0.0
H376 H 0.4336 0.94162 0.4088 0.0
H377 H 0.42906 0.94097 0.45614 0.0
H378 H 0.41424 0.91523 0.47257 0.0
H379 H 0.38373 0.9848 0.46883 0.0
H380 H 0.36879 0.95929 0.48524 0.0
H381 H 0.40888 0.01901 0.45074 0.0
H382 H 0.45245 0.97026 0.45424 0.0
H383 H 0.4354 0.04467 0.45317 0.0
H384 H 0.47938 0.99565 0.45534 0.0
H385 H 0.5277 0.12 0.43873 0.0
H386 H 0.5428 0.1273 0.4148 0.0
H387 H 0.549 0.06187 0.40691 0.0
H388 H 0.53418 0.05478 0.43098 0.0
H389 H 0.55497 0.0576 0.45303 0.0
H390 H 0.5852 0.06366 0.46733 0.0
H391 H 0.55681 0.11597 0.48817 0.0
H392 H 0.52675 0.11019 0.47327 0.0
H393 H 0.48678 0.08494 0.43884 0.0
H394 H 0.46039 0.05917 0.43925 0.0
H395 H 0.49636 0.02128 0.46816 0.0
N396 N 0.52259 0.08346 0.45136 0.0
H397 H 0.52318 0.04639 0.46688 0.0
C398 C 0.41013 0.9705 0.43484 0.0
C399 C 0.39141 0.9726 0.42805 0.0
C400 C 0.38766 0.96335 0.41447 0.0
C401 C 0.40266 0.95181 0.40737 0.0
C402 C 0.42162 0.95015 0.41404 0.0
C403 C 0.42529 0.95929 0.42768 0.0
C404 C 0.40728 0.96473 0.4612 0.0
C405 C 0.41626 0.94524 0.46276 0.0
C406 C 0.40772 0.93052 0.47211 0.0
C407 C 0.39024 0.93515 0.48011 0.0
C408 C 0.38236 0.95525 0.47938 0.0
C409 C 0.39081 0.96985 0.46998 0.0
C410 C 0.42872 0.99285 0.45195 0.0
C411 C 0.42426 0.01391 0.45193 0.0
C412 C 0.43951 0.02852 0.45314 0.0
C413 C 0.45972 0.02235 0.45408 0.0
C414 C 0.46407 0.00109 0.45467 0.0
C415 C 0.44868 0.98647 0.4538 0.0
C416 C 0.52978 0.08696 0.43661 0.0
C417 C 0.5321 0.10729 0.43172 0.0
C418 C 0.54066 0.11139 0.41804 0.0
C419 C 0.54711 0.09515 0.40895 0.0
C420 C 0.5444 0.07471 0.41373 0.0
C421 C 0.53582 0.07063 0.42744 0.0
C422 C 0.53864 0.08364 0.46199 0.0
C423 C 0.55508 0.07013 0.46086 0.0
C424 C 0.57236 0.07354 0.46917 0.0
C425 C 0.57354 0.09047 0.47879 0.0
C426 C 0.55651 0.10301 0.48067 0.0
C427 C 0.53927 0.09963 0.4723 0.0
C428 C 0.50718 0.0678 0.45261 0.0
C429 C 0.48901 0.07102 0.44521 0.0
C430 C 0.47381 0.0563 0.44562 0.0
C431 C 0.47607 0.03806 0.45383 0.0
C432 C 0.49415 0.03493 0.46151 0.0
C433 C 0.50959 0.04952 0.46084 0.0
H434 H 0.04128 0.91328 0.69098 0.0
N435 N 0.05123 0.95033 0.70337 0.0
H436 H 0.05094 0.90109 0.66666 0.0
H437 H 0.07106 0.97114 0.68285 0.0
H438 H 0.08163 0.95876 0.65867 0.0
H439 H 0.0892 0.94371 0.71031 0.0
H440 H 0.10288 0.91577 0.72499 0.0
H441 H 0.02924 0.92463 0.72182 0.0
H442 H 0.04275 0.89765 0.73727 0.0
H443 H 0.01402 0.93334 0.69864 0.0
H444 H 0.0446 0.98907 0.71139 0.0
H445 H 0.98204 0.95119 0.69966 0.0
H446 H 0.01263 0.00751 0.71171 0.0
H447 H 0.88532 0.02692 0.68698 0.0
H448 H 0.87684 0.04201 0.6632 0.0
H449 H 0.93927 0.05736 0.65639 0.0
H450 H 0.94732 0.04329 0.68048 0.0
H451 H 0.94056 0.06383 0.70284 0.0
H452 H 0.92955 0.0937 0.71689 0.0
H453 H 0.88104 0.0577 0.73519 0.0
H454 H 0.89182 0.02799 0.72053 0.0
H455 H 0.93257 0.99453 0.68449 0.0
H456 H 0.96375 0.97535 0.68617 0.0
H457 H 0.98141 0.01225 0.72351 0.0
N458 N 0.92076 0.02704 0.7004 0.0
H459 H 0.95083 0.03197 0.72147 0.0
C460 C 0.05538 0.94325 0.68867 0.0
C461 C 0.04968 0.92348 0.68387 0.0
C462 C 0.05545 0.91642 0.67001 0.0
C463 C 0.06719 0.92887 0.66072 0.0
C464 C 0.07238 0.94884 0.66543 0.0
C465 C 0.06647 0.95594 0.67925 0.0
C466 C 0.05823 0.93633 0.71465 0.0
C467 C 0.07899 0.9339 0.71637 0.0
C468 C 0.08679 0.91791 0.72489 0.0
C469 C 0.07396 0.90412 0.73225 0.0
C470 C 0.05313 0.90752 0.73143 0.0
C471 C 0.04532 0.92325 0.7226 0.0
C472 C 0.03181 0.95986 0.70509 0.0
C473 C 0.01389 0.94942 0.70174 0.0
C474 C 0.99553 0.95976 0.70218 0.0
C475 C 0.99466 0.9809 0.70565 0.0
C476 C 0.0126 0.99119 0.70922 0.0
C477 C 0.03093 0.98072 0.70899 0.0
C478 C 0.91688 0.0338 0.68551 0.0
C479 C 0.89716 0.03333 0.68024 0.0
C480 C 0.89239 0.0419 0.66659 0.0
C481 C 0.90736 0.051 0.65781 0.0
C482 C 0.92727 0.05086 0.66293 0.0
C483 C 0.93197 0.04257 0.67667 0.0
C484 C 0.91686 0.04368 0.71057 0.0
C485 C 0.92771 0.06229 0.71 0.0
C486 C 0.92147 0.07933 0.71818 0.0
C487 C 0.90429 0.07817 0.72711 0.0
C488 C 0.89414 0.05921 0.72825 0.0
C489 C 0.90036 0.04218 0.72001 0.0
C490 C 0.93937 0.01556 0.70227 0.0
C491 C 0.94324 0.99873 0.69294 0.0
C492 C 0.96105 0.98753 0.69405 0.0
C493 C 0.97531 0.99236 0.70489 0.0
C494 C 0.97108 0.00848 0.71474 0.0
C495 C 0.95336 0.01989 0.71351 0.0
C496 C 0.28002 0.66452 0.995 0.0
O497 O 0.29119 0.66718 0.98327 0.0
O498 O 0.32704 0.65835 0.02803 0.0
Zn499 Zn 0.31729 0.673 0.00978 0.0
O500 O 0.33191 0.66222 0.99188 0.0
C501 C 0.33662 0.71002 0.01943 0.0
O502 O 0.34731 0.69649 0.02677 0.0
O503 O 0.28782 0.6669 0.00762 0.0
C504 C 0.34815 0.67023 0.9873 0.0
O505 O 0.35594 0.68586 0.99447 0.0
C506 C 0.34192 0.64609 0.02808 0.0
O507 O 0.35163 0.64258 0.01579 0.0
O508 O 0.32218 0.70368 0.0115 0.0
C509 C 0.28529 0.84252 0.24229 0.0
O510 O 0.29639 0.85404 0.23365 0.0
O511 O 0.33652 0.84246 0.23482 0.0
Zn512 Zn 0.32397 0.82813 0.25214 0.0
O513 O 0.33269 0.8432 0.27037 0.0
C514 C 0.33839 0.78906 0.24138 0.0
O515 O 0.33673 0.79844 0.22865 0.0
O516 O 0.29379 0.82978 0.25089 0.0
C517 C 0.34657 0.83669 0.27873 0.0
O518 O 0.3556 0.81923 0.27559 0.0
C519 C 0.35543 0.84334 0.23324 0.0
O520 O 0.36703 0.8344 0.24302 0.0
O521 O 0.33323 0.79853 0.253 0.0
C522 C 0.21341 0.83265 0.51957 0.0
O523 O 0.20386 0.83758 0.53168 0.0
O524 O 0.16109 0.83258 0.52699 0.0
Zn525 Zn 0.17368 0.8207 0.50873 0.0
O526 O 0.1624 0.83466 0.49067 0.0
C527 C 0.14987 0.78405 0.50596 0.0
O528 O 0.13544 0.7977 0.50469 0.0
O529 O 0.20367 0.8251 0.50883 0.0
C530 C 0.14494 0.8425 0.49002 0.0
O531 O 0.13317 0.84157 0.50157 0.0
C532 C 0.15931 0.85193 0.52883 0.0
O533 O 0.16606 0.86453 0.51866 0.0
O534 O 0.16777 0.79026 0.5078 0.0
C535 C 0.20978 0.64493 0.76351 0.0
O536 O 0.19593 0.6321 0.76818 0.0
O537 O 0.166 0.65411 0.73606 0.0
Zn538 Zn 0.17482 0.66738 0.75506 0.0
O539 O 0.15949 0.65421 0.77165 0.0
C540 C 0.15082 0.70338 0.75829 0.0
O541 O 0.13735 0.68901 0.76075 0.0
O542 O 0.20443 0.6618 0.75755 0.0
C543 C 0.16064 0.66171 0.78451 0.0
O544 O 0.17233 0.67769 0.78683 0.0
C545 C 0.15407 0.66215 0.7268 0.0
O546 O 0.14677 0.68064 0.72926 0.0
O547 O 0.16871 0.69799 0.75528 0.0
C548 C 0.77806 0.14518 0.50611 0.0
O549 O 0.79135 0.13104 0.50959 0.0
O550 O 0.82429 0.15632 0.52364 0.0
Zn551 Zn 0.81307 0.17067 0.50579 0.0
O552 O 0.82822 0.16102 0.48791 0.0
C553 C 0.81609 0.21129 0.51941 0.0
O554 O 0.81295 0.20128 0.53175 0.0
O555 O 0.7839 0.16355 0.50382 0.0
C556 C 0.84402 0.17043 0.48386 0.0
O557 O 0.85018 0.18648 0.49141 0.0
C558 C 0.84134 0.16064 0.52906 0.0
O559 O 0.85215 0.17534 0.52307 0.0
O560 O 0.81624 0.20143 0.50736 0.0
C561 C 0.787 0.34833 0.74747 0.0
O562 O 0.80183 0.36162 0.74679 0.0
O563 O 0.83484 0.33122 0.73211 0.0
Zn564 Zn 0.82029 0.32157 0.75029 0.0
O565 O 0.83271 0.33477 0.76813 0.0
C566 C 0.84163 0.28441 0.75401 0.0
O567 O 0.85613 0.29799 0.75546 0.0
O568 O 0.79106 0.3293 0.749 0.0
C569 C 0.83062 0.32692 0.78082 0.0
O570 O 0.81966 0.31021 0.78233 0.0
C571 C 0.84537 0.34756 0.73195 0.0
O572 O 0.84659 0.35885 0.74389 0.0
O573 O 0.82389 0.29083 0.75171 0.0
C574 C 0.71016 0.35178 0.01157 0.0
O575 O 0.69741 0.36707 0.01313 0.0
O576 O 0.65993 0.34067 0.02514 0.0
Zn577 Zn 0.67366 0.32992 0.00699 0.0
O578 O 0.66414 0.34545 0.98917 0.0
C579 C 0.67103 0.28826 0.01615 0.0
O580 O 0.67961 0.29645 0.02777 0.0
O581 O 0.70346 0.33381 0.00894 0.0
C582 C 0.64903 0.3399 0.98164 0.0
O583 O 0.63915 0.32321 0.98545 0.0
C584 C 0.65095 0.35794 0.02571 0.0
O585 O 0.65056 0.36977 0.01399 0.0
O586 O 0.66719 0.29974 0.0052 0.0
C587 C 0.71734 0.14307 0.25783 0.0
O588 O 0.70387 0.12869 0.25539 0.0
O589 O 0.67208 0.15314 0.23931 0.0
Zn590 Zn 0.68212 0.16755 0.25761 0.0
O591 O 0.66801 0.15579 0.2754 0.0
C592 C 0.66379 0.20599 0.24855 0.0
O593 O 0.65364 0.1936 0.23992 0.0
O594 O 0.71159 0.16164 0.25934 0.0
C595 C 0.6523 0.16425 0.28052 0.0
O596 O 0.64522 0.18087 0.27411 0.0
C597 C 0.65394 0.14767 0.23755 0.0
O598 O 0.64072 0.15177 0.24784 0.0
O599 O 0.67738 0.1985 0.25677 0.0
H600 H 0.12944 0.94427 0.25887 0.0
H601 H 0.15421 0.92041 0.24877 0.0
H602 H 0.13981 0.87618 0.28257 0.0
H603 H 0.11558 0.9002 0.29303 0.0
H604 H 0.17843 0.88475 0.28253 0.0
H605 H 0.13084 0.86545 0.24621 0.0
H606 H 0.1055 0.87058 0.22685 0.0
H607 H 0.14919 0.90107 0.19986 0.0
H608 H 0.17474 0.89641 0.21915 0.0
H609 H 0.25777 0.82173 0.25903 0.0
H610 H 0.22274 0.83118 0.26324 0.0
H611 H 0.22849 0.88134 0.23239 0.0
H612 H 0.26333 0.87176 0.22788 0.0
H613 H 0.19139 0.86423 0.2309 0.0
H614 H 0.23634 0.88921 0.26876 0.0
H615 H 0.26189 0.88541 0.28816 0.0
H616 H 0.22261 0.84532 0.31228 0.0
H617 H 0.19692 0.84868 0.2929 0.0
C618 C 0.1313 0.92932 0.264 0.0
C619 C 0.12066 0.92425 0.27684 0.0
C620 C 0.14532 0.91559 0.25812 0.0
C621 C 0.14885 0.89648 0.2649 0.0
C622 C 0.1373 0.89083 0.27714 0.0
C623 C 0.12332 0.90455 0.28304 0.0
C624 C 0.16641 0.88383 0.26056 0.0
C625 C 0.18098 0.87978 0.2713 0.0
C626 C 0.17001 0.87784 0.24584 0.0
C627 C 0.15469 0.88069 0.23419 0.0
C628 C 0.13502 0.8734 0.2362 0.0
C629 C 0.12061 0.8762 0.22522 0.0
C630 C 0.12572 0.88618 0.21215 0.0
C631 C 0.14525 0.89335 0.21 0.0
C632 C 0.15971 0.8906 0.22095 0.0
C633 C 0.25148 0.83455 0.25294 0.0
C634 C 0.26344 0.84622 0.2433 0.0
C635 C 0.23146 0.83992 0.25536 0.0
C636 C 0.22313 0.85719 0.24832 0.0
C637 C 0.23463 0.86799 0.23796 0.0
C638 C 0.2546 0.86255 0.23546 0.0
C639 C 0.20333 0.86542 0.25286 0.0
C640 C 0.1885 0.86877 0.24217 0.0
C641 C 0.19945 0.87093 0.26763 0.0
C642 C 0.21483 0.86899 0.27931 0.0
C643 C 0.23322 0.87947 0.27815 0.0
C644 C 0.24772 0.87741 0.28915 0.0
C645 C 0.2439 0.86508 0.30142 0.0
C646 C 0.22556 0.85483 0.30275 0.0
C647 C 0.21103 0.8568 0.29177 0.0
H648 H 0.25514 0.86351 0.30993 0.0
H649 H 0.11454 0.88832 0.20366 0.0
H650 H 0.13351 0.58812 0.5238 0.0
H651 H 0.1437 0.62277 0.51669 0.0
H652 H 0.0819 0.63926 0.50919 0.0
H653 H 0.07156 0.6042 0.51569 0.0
H654 H 0.10695 0.65774 0.48927 0.0
H655 H 0.10303 0.64962 0.54172 0.0
H656 H 0.11049 0.63304 0.56549 0.0
H657 H 0.17327 0.64489 0.55937 0.0
H658 H 0.1662 0.66132 0.53547 0.0
H659 H 0.11337 0.76595 0.50165 0.0
H660 H 0.10538 0.72921 0.50216 0.0
H661 H 0.16763 0.71491 0.50997 0.0
H662 H 0.17576 0.75169 0.50963 0.0
H663 H 0.14327 0.6949 0.52881 0.0
H664 H 0.14643 0.70536 0.47674 0.0
H665 H 0.13823 0.72229 0.45324 0.0
H666 H 0.07614 0.70674 0.4589 0.0
H667 H 0.08392 0.68996 0.48255 0.0
C668 C 0.12208 0.59884 0.52018 0.0
C669 C 0.10166 0.59339 0.52044 0.0
C670 C 0.12794 0.61875 0.51628 0.0
C671 C 0.11352 0.63369 0.51273 0.0
C672 C 0.09326 0.62798 0.51201 0.0
C673 C 0.08737 0.60799 0.51584 0.0
C674 C 0.11943 0.65558 0.51103 0.0
C675 C 0.11474 0.66595 0.49794 0.0
C676 C 0.12985 0.66617 0.52229 0.0
C677 C 0.13411 0.6565 0.53674 0.0
C678 C 0.11844 0.64857 0.5454 0.0
C679 C 0.12259 0.63922 0.5589 0.0
C680 C 0.14235 0.63784 0.56391 0.0
C681 C 0.15798 0.64592 0.55546 0.0
C682 C 0.15391 0.65527 0.54194 0.0
C683 C 0.1254 0.755 0.50339 0.0
C684 C 0.1452 0.76175 0.50564 0.0
C685 C 0.12081 0.73399 0.50359 0.0
C686 C 0.13594 0.71932 0.50596 0.0
C687 C 0.15575 0.72599 0.50808 0.0
C688 C 0.16036 0.74701 0.50787 0.0
C689 C 0.13091 0.69711 0.50701 0.0
C690 C 0.13566 0.68668 0.52005 0.0
C691 C 0.12045 0.68658 0.49575 0.0
C692 C 0.11574 0.69656 0.48149 0.0
C693 C 0.131 0.70569 0.47303 0.0
C694 C 0.12643 0.71523 0.45967 0.0
C695 C 0.10667 0.71563 0.4546 0.0
C696 C 0.09144 0.70643 0.46285 0.0
C697 C 0.09592 0.69689 0.47623 0.0
H698 H 0.10316 0.72303 0.44425 0.0
H699 H 0.14555 0.63055 0.57433 0.0
H700 H 0.40192 0.60915 0.76283 0.0
H701 H 0.36742 0.61786 0.7561 0.0
H702 H 0.34547 0.5824 0.79278 0.0
H703 H 0.37975 0.57431 0.79998 0.0
H704 H 0.32296 0.57729 0.76618 0.0
H705 H 0.35002 0.63128 0.79741 0.0
H706 H 0.3749 0.65786 0.80397 0.0
H707 H 0.36316 0.68966 0.76349 0.0
H708 H 0.33841 0.66306 0.75659 0.0
H709 H 0.22616 0.61442 0.78021 0.0
H710 H 0.26126 0.60417 0.78167 0.0
H711 H 0.27697 0.65175 0.75057 0.0
H712 H 0.24182 0.66259 0.74946 0.0
H713 H 0.30359 0.65085 0.77131 0.0
H714 H 0.27443 0.59951 0.74068 0.0
H715 H 0.25003 0.57296 0.73321 0.0
H716 H 0.26599 0.53614 0.77063 0.0
H717 H 0.29031 0.56261 0.77845 0.0
C718 C 0.38978 0.60314 0.76946 0.0
C719 C 0.39372 0.59115 0.78204 0.0
C720 C 0.37008 0.60804 0.76554 0.0
C721 C 0.35396 0.60089 0.77402 0.0
C722 C 0.35773 0.588 0.78606 0.0
C723 C 0.3774 0.58329 0.7901 0.0
C724 C 0.33325 0.60796 0.77106 0.0
C725 C 0.31864 0.59333 0.76737 0.0
C726 C 0.32783 0.62899 0.77221 0.0
C727 C 0.34255 0.64507 0.77641 0.0
C728 C 0.35287 0.64385 0.78985 0.0
C729 C 0.36692 0.65893 0.79364 0.0
C730 C 0.37065 0.67541 0.78413 0.0
C731 C 0.36028 0.67687 0.77083 0.0
C732 C 0.34624 0.6618 0.76698 0.0
C733 C 0.23707 0.62273 0.77368 0.0
C734 C 0.2312 0.63925 0.76466 0.0
C735 C 0.25714 0.61675 0.77444 0.0
C736 C 0.27174 0.62686 0.76597 0.0
C737 C 0.26597 0.64362 0.75714 0.0
C738 C 0.24589 0.64981 0.75652 0.0
C739 C 0.29303 0.62012 0.76659 0.0
C740 C 0.30782 0.63482 0.76989 0.0
C741 C 0.29864 0.59916 0.7649 0.0
C742 C 0.28409 0.58313 0.76021 0.0
C743 C 0.27264 0.58582 0.74737 0.0
C744 C 0.25884 0.57077 0.74307 0.0
C745 C 0.25643 0.55289 0.75146 0.0
C746 C 0.26787 0.55 0.76415 0.0
C747 C 0.28168 0.56501 0.76851 0.0
H748 H 0.24573 0.54126 0.7481 0.0
H749 H 0.38153 0.68707 0.78708 0.0
H750 H 0.38675 0.90522 0.01474 0.0
H751 H 0.37035 0.87253 0.00851 0.0
H752 H 0.41764 0.83917 0.03043 0.0
H753 H 0.43391 0.8715 0.03678 0.0
H754 H 0.40699 0.82015 0.00542 0.0
H755 H 0.37353 0.85021 0.04771 0.0
H756 H 0.35477 0.87744 0.0607 0.0
H757 H 0.30736 0.87325 0.02893 0.0
H758 H 0.326 0.84616 0.01563 0.0
H759 H 0.36975 0.72698 0.03204 0.0
H760 H 0.38155 0.76244 0.03009 0.0
H761 H 0.3297 0.77827 0.00415 0.0
H762 H 0.3177 0.74257 0.00598 0.0
H763 H 0.33933 0.80759 0.0263 0.0
H764 H 0.37118 0.7727 0.98659 0.0
H765 H 0.39011 0.74462 0.97471 0.0
H766 H 0.44084 0.75734 0.00229 0.0
H767 H 0.4221 0.78528 0.01451 0.0
C768 C 0.39371 0.8909 0.01813 0.0
C769 C 0.41165 0.891 0.02627 0.0
C770 C 0.38434 0.87225 0.01454 0.0
C771 C 0.39269 0.85343 0.01913 0.0
C772 C 0.41099 0.85349 0.0267 0.0
C773 C 0.42034 0.87205 0.03027 0.0
C774 C 0.38201 0.83361 0.01694 0.0
C775 C 0.3922 0.8174 0.00998 0.0
C776 C 0.36249 0.83018 0.02256 0.0
C777 C 0.35126 0.84637 0.03058 0.0
C778 C 0.35918 0.85522 0.04343 0.0
C779 C 0.34856 0.8706 0.05086 0.0
C780 C 0.32992 0.87712 0.04562 0.0
C781 C 0.32183 0.86822 0.03296 0.0
C782 C 0.33241 0.85285 0.02547 0.0
C783 C 0.36074 0.73797 0.02598 0.0
C784 C 0.34283 0.73192 0.0191 0.0
C785 C 0.36757 0.75822 0.02483 0.0
C786 C 0.35663 0.77286 0.0168 0.0
C787 C 0.33839 0.76713 0.01032 0.0
C788 C 0.33158 0.74675 0.01138 0.0
C789 C 0.3646 0.79404 0.01519 0.0
C790 C 0.35391 0.81047 0.02143 0.0
C791 C 0.38372 0.79767 0.00897 0.0
C792 C 0.39517 0.78102 0.00153 0.0
C793 C 0.38633 0.76943 0.99019 0.0
C794 C 0.39703 0.75354 0.98339 0.0
C795 C 0.41666 0.74918 0.98776 0.0
C796 C 0.42564 0.76074 0.99892 0.0
C797 C 0.41498 0.77662 0.00578 0.0
H798 H 0.42492 0.73687 0.98248 0.0
H799 H 0.32171 0.88903 0.05139 0.0
H800 H 0.09839 0.5893 0.99603 0.0
H801 H 0.13095 0.60413 0.00274 0.0
H802 H 0.15179 0.59537 0.95831 0.0
H803 H 0.11951 0.58059 0.95158 0.0
H804 H 0.17985 0.58413 0.97727 0.0
H805 H 0.13586 0.64264 0.97097 0.0
H806 H 0.10585 0.66374 0.97593 0.0
H807 H 0.12326 0.6696 0.02114 0.0
H808 H 0.15326 0.64828 0.01649 0.0
H809 H 0.26088 0.6523 0.96998 0.0
H810 H 0.22755 0.63706 0.96785 0.0
H811 H 0.2186 0.64414 0.01449 0.0
H812 H 0.25206 0.65942 0.01677 0.0
H813 H 0.18474 0.65505 0.99746 0.0
H814 H 0.2305 0.59863 0.00283 0.0
H815 H 0.26073 0.57821 0.99724 0.0
H816 H 0.24 0.56891 0.95308 0.0
H817 H 0.20976 0.58955 0.95834 0.0
C818 C 0.10995 0.59053 0.98772 0.0
C819 C 0.10641 0.58368 0.97329 0.0
C820 C 0.12852 0.59902 0.99156 0.0
C821 C 0.14375 0.601 0.98099 0.0
C822 C 0.14031 0.59389 0.96666 0.0
C823 C 0.12186 0.58535 0.96285 0.0
C824 C 0.16327 0.61071 0.98463 0.0
C825 C 0.18089 0.59969 0.98159 0.0
C826 C 0.16465 0.63082 0.99062 0.0
C827 C 0.14666 0.64367 0.99342 0.0
C828 C 0.1332 0.64829 0.982 0.0
C829 C 0.11621 0.66031 0.98475 0.0
C830 C 0.11261 0.66795 0.99885 0.0
C831 C 0.12604 0.66363 0.01023 0.0
C832 C 0.14304 0.65159 0.00754 0.0
C833 C 0.2518 0.6508 0.97979 0.0
C834 C 0.25919 0.65695 0.99357 0.0
C835 C 0.23278 0.64202 0.97855 0.0
C836 C 0.22076 0.63925 0.99104 0.0
C837 C 0.22771 0.64609 0.00473 0.0
C838 C 0.24684 0.65477 0.00601 0.0
C839 C 0.2012 0.6286 0.98977 0.0
C840 C 0.18364 0.63941 0.99328 0.0
C841 C 0.19983 0.60832 0.98413 0.0
C842 C 0.21794 0.59578 0.98095 0.0
C843 C 0.23246 0.59236 0.99189 0.0
C844 C 0.24958 0.58073 0.98879 0.0
C845 C 0.25231 0.5723 0.9748 0.0
C846 C 0.23788 0.57546 0.9639 0.0
C847 C 0.22073 0.58711 0.96695 0.0
H848 H 0.26558 0.5633 0.97242 0.0
H849 H 0.09945 0.67725 0.00096 0.0
H850 H 0.42302 0.62137 0.21303 0.0
H851 H 0.41234 0.65619 0.21906 0.0
H852 H 0.3932 0.63562 0.26191 0.0
H853 H 0.40382 0.60041 0.25584 0.0
H854 H 0.36472 0.65736 0.24943 0.0
H855 H 0.43397 0.66833 0.2578 0.0
H856 H 0.47029 0.6669 0.25291 0.0
H857 H 0.46235 0.70396 0.21426 0.0
H858 H 0.42592 0.70537 0.21878 0.0
H859 H 0.3402 0.7634 0.26527 0.0
H860 H 0.35597 0.72931 0.26668 0.0
H861 H 0.37283 0.73377 0.22106 0.0
H862 H 0.35706 0.7677 0.2195 0.0
H863 H 0.40417 0.72072 0.23952 0.0
H864 H 0.33412 0.70512 0.23012 0.0
H865 H 0.2979 0.70637 0.23549 0.0
H866 H 0.30824 0.67805 0.27746 0.0
H867 H 0.34458 0.67689 0.2724 0.0
C868 C 0.41707 0.6243 0.2239 0.0
C869 C 0.41438 0.60812 0.23399 0.0
C870 C 0.41094 0.64428 0.22734 0.0
C871 C 0.40217 0.64862 0.24101 0.0
C872 C 0.39996 0.63263 0.2513 0.0
C873 C 0.40602 0.61255 0.24782 0.0
C874 C 0.39388 0.66948 0.24391 0.0
C875 C 0.37351 0.67121 0.24762 0.0
C876 C 0.40523 0.68759 0.24136 0.0
C877 C 0.42717 0.68685 0.23859 0.0
C878 C 0.43994 0.67605 0.2482 0.0
C879 C 0.46056 0.67527 0.2455 0.0
C880 C 0.46862 0.68531 0.23327 0.0
C881 C 0.45608 0.69619 0.22373 0.0
C882 C 0.43545 0.69701 0.22637 0.0
C883 C 0.34721 0.75708 0.25553 0.0
C884 C 0.34733 0.76822 0.24225 0.0
C885 C 0.3562 0.73763 0.25636 0.0
C886 C 0.36554 0.72906 0.24397 0.0
C887 C 0.36575 0.74017 0.23075 0.0
C888 C 0.35662 0.7595 0.22987 0.0
C889 C 0.37502 0.70844 0.24463 0.0
C890 C 0.39558 0.70682 0.24161 0.0
C891 C 0.36391 0.69046 0.24793 0.0
C892 C 0.34208 0.69116 0.25096 0.0
C893 C 0.32869 0.69934 0.24055 0.0
C894 C 0.30814 0.69999 0.24352 0.0
C895 C 0.30078 0.69236 0.25683 0.0
C896 C 0.31397 0.684 0.26717 0.0
C897 C 0.33454 0.68333 0.26425 0.0
H898 H 0.28487 0.69287 0.25911 0.0
H899 H 0.48459 0.68468 0.23121 0.0
H900 H 0.37113 0.9366 0.50678 0.0
H901 H 0.34571 0.91252 0.5158 0.0
H902 H 0.35705 0.87251 0.47888 0.0
H903 H 0.38212 0.89666 0.46966 0.0
H904 H 0.31836 0.88448 0.48047 0.0
H905 H 0.36676 0.85599 0.51331 0.0
H906 H 0.39308 0.85658 0.53232 0.0
H907 H 0.35186 0.88388 0.56289 0.0
H908 H 0.32535 0.88373 0.544 0.0
H909 H 0.23927 0.81831 0.49867 0.0
H910 H 0.27376 0.8294 0.49429 0.0
H911 H 0.27045 0.86984 0.53185 0.0
H912 H 0.23618 0.85825 0.5366 0.0
H913 H 0.30712 0.85402 0.52977 0.0
H914 H 0.26092 0.8874 0.49675 0.0
H915 H 0.23427 0.88887 0.478 0.0
H916 H 0.27137 0.85484 0.44802 0.0
H917 H 0.29814 0.85293 0.46668 0.0
C918 C 0.36851 0.92244 0.50078 0.0
C919 C 0.37851 0.91863 0.48745 0.0
C920 C 0.35409 0.90861 0.50599 0.0
C921 C 0.34947 0.89073 0.49799 0.0
C922 C 0.36042 0.8862 0.48523 0.0
C923 C 0.37486 0.89997 0.48003 0.0
C924 C 0.33139 0.8785 0.50169 0.0
C925 C 0.31611 0.87739 0.49114 0.0
C926 C 0.3282 0.86989 0.51578 0.0
C927 C 0.3441 0.86999 0.52719 0.0
C928 C 0.36335 0.86228 0.52405 0.0
C929 C 0.37829 0.86251 0.53481 0.0
C930 C 0.37415 0.8703 0.54879 0.0
C931 C 0.35504 0.87785 0.55205 0.0
C932 C 0.34004 0.87768 0.54132 0.0
C933 C 0.24598 0.82936 0.50611 0.0
C934 C 0.23492 0.83763 0.51786 0.0
C935 C 0.26569 0.8357 0.50359 0.0
C936 C 0.27455 0.85079 0.51256 0.0
C937 C 0.26391 0.85823 0.52476 0.0
C938 C 0.24428 0.85165 0.52743 0.0
C939 C 0.29415 0.86006 0.50853 0.0
C940 C 0.30958 0.86078 0.51902 0.0
C941 C 0.29747 0.86861 0.49442 0.0
C942 C 0.28143 0.86982 0.48317 0.0
C943 C 0.26333 0.8801 0.4862 0.0
C944 C 0.24821 0.88103 0.47558 0.0
C945 C 0.2511 0.8719 0.46184 0.0
C946 C 0.26913 0.86187 0.45868 0.0
C947 C 0.28429 0.86086 0.46926 0.0
H948 H 0.23938 0.87263 0.45364 0.0
H949 H 0.38575 0.87046 0.55711 0.0
H950 H 0.11002 0.8995 0.74681 0.0
H951 H 0.1255 0.86728 0.75495 0.0
H952 H 0.07207 0.83394 0.74303 0.0
H953 H 0.05692 0.8656 0.73395 0.0
H954 H 0.09257 0.82316 0.77216 0.0
H955 H 0.10355 0.83253 0.71922 0.0
H956 H 0.11557 0.85269 0.69799 0.0
H957 H 0.17462 0.85487 0.71672 0.0
H958 H 0.16283 0.83499 0.73818 0.0
H959 H 0.11302 0.71897 0.76011 0.0
H960 H 0.10279 0.75497 0.75971 0.0
H961 H 0.16474 0.77378 0.75698 0.0
H962 H 0.17511 0.73751 0.7569 0.0
H963 H 0.14417 0.79494 0.7384 0.0
H964 H 0.13632 0.78097 0.78889 0.0
H965 H 0.12594 0.76258 0.81134 0.0
H966 H 0.06408 0.77076 0.79971 0.0
H967 H 0.07406 0.78894 0.77706 0.0
C968 C 0.10151 0.88536 0.74587 0.0
C969 C 0.08223 0.88529 0.73951 0.0
C970 C 0.11033 0.867 0.75069 0.0
C971 C 0.0999 0.84832 0.74954 0.0
C972 C 0.08027 0.84829 0.74409 0.0
C973 C 0.07159 0.86652 0.73898 0.0
C974 C 0.10997 0.8285 0.75266 0.0
C975 C 0.1038 0.81686 0.76481 0.0
C976 C 0.12515 0.82079 0.74333 0.0
C977 C 0.13226 0.83253 0.73037 0.0
C978 C 0.11905 0.83749 0.71887 0.0
C979 C 0.12582 0.84882 0.70679 0.0
C980 C 0.14583 0.85512 0.70603 0.0
C981 C 0.15912 0.85003 0.71733 0.0
C982 C 0.1524 0.83872 0.72946 0.0
C983 C 0.12452 0.73073 0.75952 0.0
C984 C 0.14489 0.72537 0.75853 0.0
C985 C 0.11864 0.75137 0.75941 0.0
C986 C 0.13299 0.76717 0.7586 0.0
C987 C 0.15339 0.76188 0.75769 0.0
C988 C 0.15929 0.74115 0.75764 0.0
C989 C 0.12645 0.78906 0.75779 0.0
C990 C 0.13323 0.8012 0.74602 0.0
C991 C 0.11211 0.79736 0.76767 0.0
C992 C 0.10596 0.78623 0.78121 0.0
C993 C 0.1205 0.7787 0.79104 0.0
C994 C 0.11469 0.76834 0.80382 0.0
C995 C 0.09437 0.76551 0.80695 0.0
C996 C 0.07981 0.77299 0.79728 0.0
C997 C 0.08554 0.78335 0.78448 0.0
H998 H 0.08991 0.7576 0.81689 0.0
H999 H 0.15105 0.86389 0.69666 0.0
H1000 H 0.60411 0.41333 0.76861 0.0
H1001 H 0.62973 0.39074 0.758 0.0
H1002 H 0.67268 0.44031 0.75992 0.0
H1003 H 0.64788 0.46253 0.77118 0.0
H1004 H 0.67484 0.41584 0.73364 0.0
H1005 H 0.67101 0.40881 0.78732 0.0
H1006 H 0.65291 0.40053 0.8102 0.0
H1007 H 0.64023 0.33975 0.79393 0.0
H1008 H 0.65803 0.34782 0.77084 0.0
H1009 H 0.77399 0.38798 0.74495 0.0
H1010 H 0.73963 0.40051 0.74516 0.0
H1011 H 0.71783 0.33805 0.74864 0.0
H1012 H 0.75245 0.32531 0.74874 0.0
H1013 H 0.69944 0.36182 0.76781 0.0
H1014 H 0.71063 0.36585 0.7168 0.0
H1015 H 0.72845 0.37366 0.69374 0.0
H1016 H 0.7264 0.43835 0.70368 0.0
H1017 H 0.70884 0.43094 0.72692 0.0
C1018 C 0.61897 0.4195 0.76673 0.0
C1019 C 0.62382 0.43983 0.77093 0.0
C1020 C 0.63352 0.40659 0.76053 0.0
C1021 C 0.65307 0.41388 0.75823 0.0
C1022 C 0.65761 0.43446 0.76149 0.0
C1023 C 0.64325 0.44722 0.76788 0.0
C1024 C 0.66957 0.39984 0.75397 0.0
C1025 C 0.68023 0.40393 0.74102 0.0
C1026 C 0.67611 0.38387 0.7634 0.0
C1027 C 0.66559 0.379 0.7773 0.0
C1028 C 0.66422 0.39375 0.78858 0.0
C1029 C 0.65404 0.38909 0.80159 0.0
C1030 C 0.64536 0.36965 0.8035 0.0
C1031 C 0.64691 0.35482 0.79242 0.0
C1032 C 0.65703 0.35943 0.77937 0.0
C1033 C 0.76193 0.37684 0.74564 0.0
C1034 C 0.76598 0.35564 0.74685 0.0
C1035 C 0.74223 0.38403 0.74563 0.0
C1036 C 0.72609 0.37021 0.74665 0.0
C1037 C 0.73004 0.34899 0.74774 0.0
C1038 C 0.74983 0.34174 0.74779 0.0
C1039 C 0.70531 0.37832 0.74769 0.0
C1040 C 0.69382 0.37318 0.76009 0.0
C1041 C 0.69792 0.39319 0.73765 0.0
C1042 C 0.70847 0.39781 0.72366 0.0
C1043 C 0.71409 0.38174 0.71413 0.0
C1044 C 0.72413 0.3861 0.70101 0.0
C1045 C 0.72857 0.40649 0.69725 0.0
C1046 C 0.72294 0.42257 0.7066 0.0
C1047 C 0.71291 0.4183 0.71974 0.0
H1048 H 0.73634 0.40983 0.68709 0.0
H1049 H 0.6375 0.36606 0.81358 0.0
H1050 H 0.63237 0.09499 0.03157 0.0
H1051 H 0.64634 0.12865 0.02545 0.0
H1052 H 0.58676 0.15293 0.01939 0.0
H1053 H 0.57254 0.11905 0.02496 0.0
H1054 H 0.643 0.15687 0.0015 0.0
H1055 H 0.5865 0.19875 0.03891 0.0
H1056 H 0.56507 0.19146 0.0604 0.0
H1057 H 0.60578 0.14403 0.07435 0.0
H1058 H 0.62755 0.15121 0.05306 0.0
H1059 H 0.65199 0.2667 0.99434 0.0
H1060 H 0.63987 0.2311 0.99533 0.0
H1061 H 0.66376 0.22478 0.03913 0.0
H1062 H 0.67575 0.26032 0.0383 0.0
H1063 H 0.62597 0.21123 0.03781 0.0
H1064 H 0.68659 0.20174 0.01027 0.0
H1065 H 0.7105 0.20804 0.99011 0.0
H1066 H 0.66617 0.18934 0.95861 0.0
H1067 H 0.6419 0.18319 0.97859 0.0
C1068 C 0.62218 0.10724 0.02847 0.0
C1069 C 0.60126 0.10428 0.02889 0.0
C1070 C 0.63024 0.12652 0.02503 0.0
C1071 C 0.61757 0.14326 0.02213 0.0
C1072 C 0.59676 0.14019 0.02175 0.0
C1073 C 0.58867 0.12085 0.02504 0.0
C1074 C 0.62603 0.16428 0.02091 0.0
C1075 C 0.63921 0.16884 0.00935 0.0
C1076 C 0.62139 0.17967 0.03138 0.0
C1077 C 0.6085 0.17536 0.0443 0.0
C1078 C 0.59088 0.1868 0.04659 0.0
C1079 C 0.57868 0.18268 0.05873 0.0
C1080 C 0.58402 0.16724 0.0687 0.0
C1081 C 0.60161 0.15592 0.06658 0.0
C1082 C 0.61386 0.15999 0.05446 0.0
C1083 C 0.6548 0.25768 0.00414 0.0
C1084 C 0.66479 0.26636 0.01626 0.0
C1085 C 0.64791 0.23732 0.00467 0.0
C1086 C 0.65097 0.22528 0.01729 0.0
C1087 C 0.66119 0.23382 0.0293 0.0
C1088 C 0.66809 0.25413 0.02878 0.0
C1089 C 0.64284 0.20404 0.01827 0.0
C1090 C 0.62967 0.1994 0.02983 0.0
C1091 C 0.6478 0.18852 0.00795 0.0
C1092 C 0.66236 0.19221 0.99592 0.0
C1093 C 0.68188 0.19914 0.99904 0.0
C1094 C 0.69551 0.20265 0.98764 0.0
C1095 C 0.68984 0.19915 0.97308 0.0
C1096 C 0.67054 0.19208 0.96989 0.0
C1097 C 0.65684 0.18856 0.98125 0.0
H1098 H 0.70041 0.20187 0.96427 0.0
H1099 H 0.57455 0.16408 0.0781 0.0
H1100 H 0.90658 0.12547 0.28092 0.0
H1101 H 0.87292 0.13505 0.27304 0.0
H1102 H 0.85678 0.0708 0.2699 0.0
H1103 H 0.89076 0.061 0.27741 0.0
H1104 H 0.8399 0.09494 0.24751 0.0
H1105 H 0.84576 0.09556 0.30018 0.0
H1106 H 0.86109 0.10533 0.32382 0.0
H1107 H 0.85004 0.16926 0.31453 0.0
H1108 H 0.83492 0.15988 0.29071 0.0
H1109 H 0.73425 0.10481 0.25563 0.0
H1110 H 0.76963 0.09573 0.25796 0.0
H1111 H 0.78451 0.15981 0.26455 0.0
H1112 H 0.74908 0.16902 0.26246 0.0
H1113 H 0.80246 0.13602 0.28445 0.0
H1114 H 0.7952 0.13537 0.23212 0.0
H1115 H 0.78005 0.12556 0.20844 0.0
H1116 H 0.79348 0.0619 0.21692 0.0
H1117 H 0.80848 0.07129 0.24077 0.0
C1118 C 0.89611 0.11333 0.27814 0.0
C1119 C 0.90134 0.09244 0.27987 0.0
C1120 C 0.8768 0.11885 0.27377 0.0
C1121 C 0.8623 0.10364 0.27113 0.0
C1122 C 0.86775 0.08277 0.27196 0.0
C1123 C 0.88711 0.07721 0.27635 0.0
C1124 C 0.84112 0.10957 0.26871 0.0
C1125 C 0.8316 0.10374 0.25562 0.0
C1126 C 0.83049 0.12136 0.27922 0.0
C1127 C 0.83939 0.12703 0.2936 0.0
C1128 C 0.84674 0.11171 0.30313 0.0
C1129 C 0.85537 0.11718 0.31657 0.0
C1130 C 0.85658 0.13791 0.32066 0.0
C1131 C 0.84911 0.15321 0.31133 0.0
C1132 C 0.8405 0.14783 0.29787 0.0
C1133 C 0.74504 0.11701 0.25751 0.0
C1134 C 0.73884 0.13765 0.25888 0.0
C1135 C 0.76529 0.11179 0.25875 0.0
C1136 C 0.77974 0.12712 0.26126 0.0
C1137 C 0.7736 0.14775 0.26258 0.0
C1138 C 0.75335 0.15298 0.26137 0.0
C1139 C 0.80114 0.12153 0.26318 0.0
C1140 C 0.81072 0.12734 0.27625 0.0
C1141 C 0.81177 0.10972 0.25265 0.0
C1142 C 0.8028 0.10402 0.2383 0.0
C1143 C 0.79478 0.11926 0.229 0.0
C1144 C 0.78625 0.11378 0.21553 0.0
C1145 C 0.78576 0.09311 0.21119 0.0
C1146 C 0.79385 0.07789 0.2203 0.0
C1147 C 0.80239 0.08329 0.23379 0.0
H1148 H 0.77914 0.0889 0.20076 0.0
H1149 H 0.86327 0.14211 0.33107 0.0
H1150 H 0.9055 0.39098 0.52252 0.0
H1151 H 0.87898 0.36605 0.51679 0.0
H1152 H 0.92001 0.31603 0.52522 0.0
H1153 H 0.94615 0.34045 0.53137 0.0
H1154 H 0.89683 0.30807 0.50154 0.0
H1155 H 0.88926 0.33206 0.55168 0.0
H1156 H 0.88416 0.35836 0.57091 0.0
H1157 H 0.82812 0.37567 0.55123 0.0
H1158 H 0.83303 0.34961 0.53178 0.0
H1159 H 0.82974 0.23361 0.54279 0.0
H1160 H 0.84594 0.26737 0.54202 0.0
H1161 H 0.83253 0.27232 0.49579 0.0
H1162 H 0.81692 0.23821 0.49637 0.0
H1163 H 0.83835 0.3064 0.53524 0.0
H1164 H 0.87306 0.29225 0.47839 0.0
H1165 H 0.88037 0.26327 0.46163 0.0
H1166 H 0.88629 0.22237 0.49848 0.0
H1167 H 0.87933 0.25116 0.51545 0.0
C1168 C 0.90891 0.37468 0.52305 0.0
C1169 C 0.92805 0.36781 0.52742 0.0
C1170 C 0.89376 0.36047 0.51972 0.0
C1171 C 0.89753 0.3392 0.52066 0.0
C1172 C 0.91682 0.33237 0.5243 0.0
C1173 C 0.93185 0.34646 0.52773 0.0
C1174 C 0.88131 0.32379 0.519 0.0
C1175 C 0.88384 0.3079 0.50872 0.0
C1176 C 0.86456 0.3234 0.52854 0.0
C1177 C 0.86164 0.3391 0.54018 0.0
C1178 C 0.87594 0.34161 0.55138 0.0
C1179 C 0.87307 0.35644 0.56233 0.0
C1180 C 0.85586 0.36873 0.56226 0.0
C1181 C 0.84147 0.36618 0.55125 0.0
C1182 C 0.84428 0.35138 0.54026 0.0
C1183 C 0.82989 0.24205 0.53252 0.0
C1184 C 0.8224 0.23312 0.51958 0.0
C1185 C 0.83909 0.2614 0.53211 0.0
C1186 C 0.84079 0.27219 0.51878 0.0
C1187 C 0.83173 0.26408 0.50612 0.0
C1188 C 0.82282 0.2446 0.50648 0.0
C1189 C 0.85402 0.29053 0.5179 0.0
C1190 C 0.85096 0.30693 0.52772 0.0
C1191 C 0.87064 0.29111 0.50821 0.0
C1192 C 0.87543 0.2738 0.49815 0.0
C1193 C 0.87602 0.27709 0.4829 0.0
C1194 C 0.88009 0.2607 0.47337 0.0
C1195 C 0.88371 0.24098 0.47898 0.0
C1196 C 0.88342 0.23763 0.49414 0.0
C1197 C 0.87942 0.25398 0.50372 0.0
H1198 H 0.8868 0.2283 0.47158 0.0
H1199 H 0.85365 0.38018 0.57075 0.0
H1200 H 0.58917 0.1292 0.48158 0.0
H1201 H 0.62306 0.13863 0.4889 0.0
H1202 H 0.63679 0.0747 0.49727 0.0
H1203 H 0.60249 0.06513 0.4905 0.0
H1204 H 0.65455 0.10057 0.51746 0.0
H1205 H 0.64892 0.09541 0.46486 0.0
H1206 H 0.63394 0.10308 0.44069 0.0
H1207 H 0.64714 0.1674 0.44637 0.0
H1208 H 0.66196 0.16015 0.47066 0.0
H1209 H 0.7607 0.10734 0.50995 0.0
H1210 H 0.72526 0.09842 0.50751 0.0
H1211 H 0.71136 0.16179 0.49725 0.0
H1212 H 0.74679 0.1708 0.49946 0.0
H1213 H 0.69349 0.13607 0.47847 0.0
H1214 H 0.69998 0.14124 0.53081 0.0
H1215 H 0.71464 0.13371 0.55508 0.0
H1216 H 0.69998 0.06962 0.55004 0.0
H1217 H 0.68547 0.07673 0.52563 0.0
C1218 C 0.59914 0.11716 0.48539 0.0
C1219 C 0.59312 0.09636 0.48535 0.0
C1220 C 0.61861 0.12258 0.48943 0.0
C1221 C 0.63253 0.10732 0.49333 0.0
C1222 C 0.62629 0.08669 0.49418 0.0
C1223 C 0.60675 0.08124 0.4902 0.0
C1224 C 0.6539 0.11276 0.49547 0.0
C1225 C 0.66317 0.10813 0.5089 0.0
C1226 C 0.66499 0.12292 0.48436 0.0
C1227 C 0.65637 0.12726 0.46964 0.0
C1228 C 0.64852 0.1112 0.46099 0.0
C1229 C 0.64007 0.11547 0.44727 0.0
C1230 C 0.63953 0.13572 0.44203 0.0
C1231 C 0.64754 0.15173 0.45046 0.0
C1232 C 0.65598 0.14755 0.4642 0.0
C1233 C 0.7501 0.1194 0.50722 0.0
C1234 C 0.75657 0.13979 0.50489 0.0
C1235 C 0.72983 0.11429 0.50591 0.0
C1236 C 0.71564 0.12948 0.50235 0.0
C1237 C 0.72206 0.14983 0.50002 0.0
C1238 C 0.74231 0.15496 0.50131 0.0
C1239 C 0.69419 0.12405 0.50053 0.0
C1240 C 0.68491 0.12859 0.48709 0.0
C1241 C 0.68314 0.1138 0.51164 0.0
C1242 C 0.69182 0.10949 0.52633 0.0
C1243 C 0.70003 0.12552 0.53482 0.0
C1244 C 0.70828 0.12133 0.54862 0.0
C1245 C 0.70829 0.10119 0.55409 0.0
C1246 C 0.69999 0.08521 0.54578 0.0
C1247 C 0.69173 0.08931 0.53197 0.0
H1248 H 0.71469 0.09798 0.56477 0.0
H1249 H 0.63292 0.13901 0.43144 0.0
H1250 H 0.92498 0.10975 0.74031 0.0
H1251 H 0.91169 0.14299 0.7483 0.0
H1252 H 0.85173 0.12268 0.73797 0.0
H1253 H 0.86499 0.08981 0.7293 0.0
H1254 H 0.85868 0.15857 0.72591 0.0
H1255 H 0.86743 0.13057 0.77397 0.0
H1256 H 0.88539 0.11348 0.79427 0.0
H1257 H 0.92857 0.16257 0.79506 0.0
H1258 H 0.91103 0.17984 0.77462 0.0
H1259 H 0.81551 0.25212 0.75072 0.0
H1260 H 0.82367 0.21535 0.74969 0.0
H1261 H 0.88611 0.22948 0.75683 0.0
H1262 H 0.87807 0.26616 0.7581 0.0
H1263 H 0.87492 0.19549 0.77212 0.0
H1264 H 0.86841 0.22103 0.72246 0.0
H1265 H 0.85095 0.23811 0.7019 0.0
H1266 H 0.8038 0.19313 0.70415 0.0
H1267 H 0.82087 0.17594 0.72486 0.0
C1268 C 0.90895 0.1123 0.73982 0.0
C1269 C 0.89608 0.09712 0.73408 0.0
C1270 C 0.90133 0.13124 0.74457 0.0
C1271 C 0.88067 0.13531 0.74383 0.0
C1272 C 0.86772 0.11988 0.73867 0.0
C1273 C 0.87532 0.10099 0.73384 0.0
C1274 C 0.87284 0.15623 0.74713 0.0
C1275 C 0.86187 0.16645 0.73616 0.0
C1276 C 0.87741 0.16674 0.76035 0.0
C1277 C 0.88798 0.15642 0.77267 0.0
C1278 C 0.88084 0.13765 0.77839 0.0
C1279 C 0.89093 0.12794 0.78994 0.0
C1280 C 0.90813 0.13691 0.79593 0.0
C1281 C 0.91525 0.15564 0.7904 0.0
C1282 C 0.90522 0.16541 0.77885 0.0
C1283 C 0.83095 0.24739 0.75219 0.0
C1284 C 0.84618 0.26208 0.75434 0.0
C1285 C 0.83559 0.22638 0.75158 0.0
C1286 C 0.85553 0.21971 0.753 0.0
C1287 C 0.87062 0.23429 0.7557 0.0
C1288 C 0.86601 0.25527 0.75634 0.0
C1289 C 0.86092 0.19773 0.75086 0.0
C1290 C 0.87149 0.18741 0.76199 0.0
C1291 C 0.85603 0.18708 0.73779 0.0
C1292 C 0.8458 0.19735 0.72531 0.0
C1293 C 0.85424 0.21488 0.71864 0.0
C1294 C 0.84443 0.22457 0.70695 0.0
C1295 C 0.82624 0.21675 0.70175 0.0
C1296 C 0.81786 0.1992 0.70821 0.0
C1297 C 0.82761 0.18947 0.71991 0.0
H1298 H 0.81867 0.22427 0.6927 0.0
H1299 H 0.91592 0.12937 0.80487 0.0
H1300 H 0.89986 0.37319 0.98591 0.0
H1301 H 0.86889 0.35963 0.99663 0.0
H1302 H 0.84503 0.42135 0.99938 0.0
H1303 H 0.87608 0.43503 0.9889 0.0
H1304 H 0.83387 0.39671 0.02326 0.0
H1305 H 0.83532 0.39351 0.96998 0.0
H1306 H 0.84977 0.38313 0.94616 0.0
H1307 H 0.84519 0.31938 0.9585 0.0
H1308 H 0.83098 0.32942 0.9825 0.0
H1309 H 0.72909 0.38876 0.01516 0.0
H1310 H 0.76497 0.3957 0.01402 0.0
H1311 H 0.7767 0.33079 0.00803 0.0
H1312 H 0.74068 0.32374 0.00887 0.0
H1313 H 0.79618 0.3526 0.98831 0.0
H1314 H 0.78959 0.35567 0.04021 0.0
H1315 H 0.77511 0.36612 0.06399 0.0
H1316 H 0.78915 0.42943 0.05475 0.0
H1317 H 0.80346 0.41941 0.03081 0.0
C1318 C 0.88825 0.38392 0.9892 0.0
C1319 C 0.89028 0.40515 0.98644 0.0
C1320 C 0.87054 0.37614 0.99524 0.0
C1321 C 0.8546 0.38948 0.9986 0.0
C1322 C 0.85715 0.4108 0.99683 0.0
C1323 C 0.87481 0.41858 0.99075 0.0
C1324 C 0.83456 0.3812 0.00237 0.0
C1325 C 0.82556 0.38709 0.01564 0.0
C1326 C 0.82397 0.36826 0.99255 0.0
C1327 C 0.83233 0.36222 0.97809 0.0
C1328 C 0.83754 0.37729 0.96765 0.0
C1329 C 0.84567 0.37147 0.95412 0.0
C1330 C 0.84845 0.35061 0.95084 0.0
C1331 C 0.84306 0.33553 0.96107 0.0
C1332 C 0.83497 0.34127 0.97464 0.0
C1333 C 0.73929 0.3759 0.01375 0.0
C1334 C 0.73201 0.3557 0.01203 0.0
C1335 C 0.75984 0.37989 0.01321 0.0
C1336 C 0.77357 0.36374 0.01111 0.0
C1337 C 0.76638 0.34348 0.00971 0.0
C1338 C 0.74579 0.33948 0.01019 0.0
C1339 C 0.79521 0.36831 0.00917 0.0
C1340 C 0.80454 0.36181 0.99615 0.0
C1341 C 0.80605 0.38066 0.01925 0.0
C1342 C 0.79748 0.38679 0.03365 0.0
C1343 C 0.78946 0.37184 0.04319 0.0
C1344 C 0.7813 0.37769 0.05671 0.0
C1345 C 0.78118 0.39843 0.06086 0.0
C1346 C 0.78925 0.41337 0.05151 0.0
C1347 C 0.79741 0.40761 0.03797 0.0
H1348 H 0.77487 0.40293 0.07134 0.0
H1349 H 0.85474 0.34613 0.94035 0.0
H1350 H 0.55449 0.34883 0.23786 0.0
H1351 H 0.57723 0.32288 0.24709 0.0
H1352 H 0.62223 0.36936 0.25489 0.0
H1353 H 0.59905 0.39598 0.24593 0.0
H1354 H 0.63706 0.33705 0.23931 0.0
H1355 H 0.60328 0.34424 0.28414 0.0
H1356 H 0.57493 0.34881 0.30119 0.0
H1357 H 0.55092 0.29017 0.28818 0.0
H1358 H 0.57894 0.28535 0.27087 0.0
H1359 H 0.68494 0.23827 0.26055 0.0
H1360 H 0.67337 0.27409 0.26366 0.0
H1361 H 0.61697 0.25819 0.24351 0.0
H1362 H 0.62844 0.22285 0.24003 0.0
H1363 H 0.6161 0.28054 0.27271 0.0
H1364 H 0.64594 0.28088 0.22298 0.0
H1365 H 0.67466 0.27698 0.20614 0.0
H1366 H 0.70737 0.32279 0.23034 0.0
H1367 H 0.67889 0.32673 0.24745 0.0
C1368 C 0.56889 0.35385 0.24202 0.0
C1369 C 0.57477 0.37466 0.24125 0.0
C1370 C 0.58199 0.33886 0.24726 0.0
C1371 C 0.60135 0.34418 0.25187 0.0
C1372 C 0.60728 0.36495 0.25145 0.0
C1373 C 0.59404 0.3801 0.24627 0.0
C1374 C 0.61561 0.32746 0.25568 0.0
C1375 C 0.63284 0.32501 0.24699 0.0
C1376 C 0.61021 0.31176 0.26573 0.0
C1377 C 0.59327 0.31444 0.27617 0.0
C1378 C 0.59191 0.33235 0.28484 0.0
C1379 C 0.57589 0.33499 0.29457 0.0
C1380 C 0.56114 0.31979 0.29577 0.0
C1381 C 0.56238 0.30191 0.28725 0.0
C1382 C 0.57837 0.2992 0.2775 0.0
C1383 C 0.67013 0.2425 0.25671 0.0
C1384 C 0.65762 0.22778 0.25 0.0
C1385 C 0.66357 0.26289 0.25853 0.0
C1386 C 0.6443 0.26862 0.2539 0.0
C1387 C 0.63185 0.25396 0.24722 0.0
C1388 C 0.6385 0.23381 0.24515 0.0
C1389 C 0.63668 0.28984 0.25578 0.0
C1390 C 0.62073 0.29302 0.26554 0.0
C1391 C 0.64341 0.30628 0.24688 0.0
C1392 C 0.66045 0.30387 0.2366 0.0
C1393 C 0.65934 0.28994 0.2248 0.0
C1394 C 0.67555 0.28777 0.21518 0.0
C1395 C 0.69286 0.29957 0.2172 0.0
C1396 C 0.69397 0.31361 0.22882 0.0
C1397 C 0.67781 0.31582 0.23847 0.0
H1398 H 0.70539 0.29787 0.20974 0.0
H1399 H 0.54874 0.32186 0.3033 0.0
H1400 H 0.06781 0.94577 0.38138 0.0
H1401 H 0.07432 0.9262 0.40391 0.0
H1402 H 0.13261 0.90908 0.38738 0.0
H1403 H 0.12599 0.92803 0.36472 0.0
H1404 H 0.11404 0.87667 0.39982 0.0
H1405 H 0.12739 0.9476 0.41242 0.0
H1406 H 0.1193 0.98455 0.41489 0.0
H1407 H 0.07056 0.96979 0.44385 0.0
H1408 H 0.0782 0.9327 0.44139 0.0
H1409 H 0.16551 0.84721 0.46425 0.0
H1410 H 0.15423 0.86453 0.44192 0.0
H1411 H 0.09755 0.8783 0.46253 0.0
H1412 H 0.10881 0.8612 0.48503 0.0
H1413 H 0.11243 0.91148 0.44834 0.0
H1414 H 0.10068 0.84049 0.43704 0.0
H1415 H 0.10923 0.80363 0.43472 0.0
H1416 H 0.15514 0.81844 0.40338 0.0
H1417 H 0.14707 0.85543 0.40567 0.0
C1418 C 0.08193 0.93767 0.3825 0.0
C1419 C 0.09646 0.93859 0.37132 0.0
C1420 C 0.08568 0.92663 0.39541 0.0
C1421 C 0.10404 0.91638 0.39738 0.0
C1422 C 0.11837 0.91693 0.38611 0.0
C1423 C 0.11464 0.92794 0.37323 0.0
C1424 C 0.10855 0.90523 0.41121 0.0
C1425 C 0.11386 0.88432 0.41042 0.0
C1426 C 0.1078 0.91509 0.42507 0.0
C1427 C 0.10322 0.93737 0.42658 0.0
C1428 C 0.11484 0.95222 0.41921 0.0
C1429 C 0.11036 0.97319 0.42063 0.0
C1430 C 0.09439 0.97951 0.42948 0.0
C1431 C 0.0829 0.96487 0.43697 0.0
C1432 C 0.0873 0.94388 0.43558 0.0
C1433 C 0.15062 0.85386 0.46405 0.0
C1434 C 0.13803 0.85277 0.47641 0.0
C1435 C 0.14416 0.86368 0.45124 0.0
C1436 C 0.12495 0.87248 0.45051 0.0
C1437 C 0.1124 0.87156 0.46286 0.0
C1438 C 0.11885 0.86173 0.47569 0.0
C1439 C 0.11818 0.88298 0.43692 0.0
C1440 C 0.11243 0.90377 0.43776 0.0
C1441 C 0.11855 0.87301 0.4231 0.0
C1442 C 0.12337 0.85076 0.42162 0.0
C1443 C 0.1127 0.8359 0.42973 0.0
C1444 C 0.11745 0.81498 0.42841 0.0
C1445 C 0.13275 0.8087 0.41893 0.0
C1446 C 0.14331 0.82333 0.41073 0.0
C1447 C 0.13863 0.84427 0.41202 0.0
H1448 H 0.1364 0.7925 0.41792 0.0
H1449 H 0.09094 0.99575 0.43057 0.0
H1450 H 0.08088 0.5827 0.60826 0.0
H1451 H 0.08917 0.60162 0.63067 0.0
H1452 H 0.13564 0.55744 0.64049 0.0
H1453 H 0.12704 0.53807 0.6183 0.0
H1454 H 0.11429 0.56775 0.66486 0.0
H1455 H 0.14754 0.60328 0.62537 0.0
H1456 H 0.14946 0.62082 0.60139 0.0
H1457 H 0.10792 0.66683 0.61639 0.0
H1458 H 0.10558 0.64941 0.64044 0.0
H1459 H 0.16924 0.62552 0.71693 0.0
H1460 H 0.15903 0.60612 0.6952 0.0
H1461 H 0.115 0.65275 0.68504 0.0
H1462 H 0.12547 0.67253 0.70658 0.0
H1463 H 0.13426 0.64127 0.66091 0.0
H1464 H 0.10158 0.60621 0.70068 0.0
H1465 H 0.09954 0.58851 0.72461 0.0
H1466 H 0.13966 0.54152 0.70911 0.0
H1467 H 0.14216 0.55909 0.68514 0.0
C1468 C 0.09265 0.57682 0.61531 0.0
C1469 C 0.10336 0.55892 0.61148 0.0
C1470 C 0.0975 0.58776 0.62803 0.0
C1471 C 0.1132 0.58108 0.63712 0.0
C1472 C 0.12353 0.5629 0.63358 0.0
C1473 C 0.1187 0.55195 0.62085 0.0
C1474 C 0.11916 0.59329 0.65017 0.0
C1475 C 0.11888 0.58375 0.66399 0.0
C1476 C 0.1247 0.6143 0.64904 0.0
C1477 C 0.12624 0.62493 0.63465 0.0
C1478 C 0.13871 0.61706 0.62352 0.0
C1479 C 0.13988 0.62699 0.60992 0.0
C1480 C 0.12876 0.6449 0.60734 0.0
C1481 C 0.1165 0.65295 0.61839 0.0
C1482 C 0.11527 0.64306 0.63202 0.0
C1483 C 0.15739 0.63167 0.71007 0.0
C1484 C 0.1481 0.65053 0.71351 0.0
C1485 C 0.1515 0.6205 0.69769 0.0
C1486 C 0.13603 0.62781 0.68862 0.0
C1487 C 0.12694 0.64679 0.69191 0.0
C1488 C 0.13291 0.65805 0.70424 0.0
C1489 C 0.12944 0.61574 0.67565 0.0
C1490 C 0.12961 0.62529 0.66182 0.0
C1491 C 0.12376 0.59474 0.67678 0.0
C1492 C 0.12219 0.58407 0.69115 0.0
C1493 C 0.11008 0.59218 0.70241 0.0
C1494 C 0.10882 0.58216 0.71597 0.0
C1495 C 0.1195 0.56393 0.71839 0.0
C1496 C 0.13141 0.55565 0.70723 0.0
C1497 C 0.13274 0.56563 0.69364 0.0
H1498 H 0.11851 0.5562 0.7289 0.0
H1499 H 0.12967 0.65256 0.5968 0.0
H1500 H 0.41106 0.58543 0.86723 0.0
H1501 H 0.39514 0.59518 0.89039 0.0
H1502 H 0.44046 0.64165 0.89728 0.0
H1503 H 0.45691 0.63146 0.8744 0.0
H1504 H 0.43242 0.6213 0.92231 0.0
H1505 H 0.39427 0.65443 0.88417 0.0
H1506 H 0.37452 0.65587 0.8613 0.0
H1507 H 0.33066 0.61517 0.88005 0.0
H1508 H 0.3503 0.61325 0.90298 0.0
H1509 H 0.38285 0.6839 0.97469 0.0
H1510 H 0.3993 0.67061 0.95269 0.0
H1511 H 0.3529 0.62475 0.94795 0.0
H1512 H 0.33616 0.63812 0.96988 0.0
H1513 H 0.36116 0.64331 0.92213 0.0
H1514 H 0.39882 0.61136 0.96074 0.0
H1515 H 0.41858 0.61031 0.98361 0.0
H1516 H 0.46336 0.64915 0.96404 0.0
H1517 H 0.44372 0.65068 0.9411 0.0
C1518 C 0.41782 0.59752 0.87378 0.0
C1519 C 0.43521 0.60774 0.86894 0.0
C1520 C 0.40858 0.60321 0.88694 0.0
C1521 C 0.41646 0.61934 0.89544 0.0
C1522 C 0.43408 0.62922 0.89084 0.0
C1523 C 0.44336 0.62351 0.8777 0.0
C1524 C 0.40614 0.62619 0.90901 0.0
C1525 C 0.4169 0.62633 0.92226 0.0
C1526 C 0.38576 0.6323 0.90898 0.0
C1527 C 0.37386 0.63353 0.89523 0.0
C1528 C 0.38049 0.64566 0.88338 0.0
C1529 C 0.3693 0.64658 0.87041 0.0
C1530 C 0.35137 0.63557 0.86921 0.0
C1531 C 0.34456 0.62366 0.88099 0.0
C1532 C 0.35571 0.62266 0.89398 0.0
C1533 C 0.37615 0.67095 0.969 0.0
C1534 C 0.35822 0.66203 0.97406 0.0
C1535 C 0.38563 0.66332 0.95646 0.0
C1536 C 0.37745 0.64653 0.94879 0.0
C1537 C 0.35948 0.63768 0.95374 0.0
C1538 C 0.34997 0.64531 0.96629 0.0
C1539 C 0.38746 0.63852 0.93542 0.0
C1540 C 0.37664 0.63818 0.92221 0.0
C1541 C 0.40779 0.63227 0.93549 0.0
C1542 C 0.4197 0.63128 0.94924 0.0
C1543 C 0.41281 0.61981 0.96134 0.0
C1544 C 0.424 0.6191 0.97432 0.0
C1545 C 0.44219 0.62969 0.97529 0.0
C1546 C 0.44925 0.64097 0.96327 0.0
C1547 C 0.43811 0.64174 0.95028 0.0
H1548 H 0.45083 0.62913 0.98534 0.0
H1549 H 0.34273 0.63631 0.85916 0.0
H1550 H 0.45284 0.91766 0.12226 0.0
H1551 H 0.44153 0.90308 0.14562 0.0
H1552 H 0.38232 0.92775 0.13809 0.0
H1553 H 0.39363 0.94257 0.11481 0.0
H1554 H 0.39252 0.93222 0.16612 0.0
H1555 H 0.39338 0.87704 0.13097 0.0
H1556 H 0.40828 0.85441 0.11214 0.0
H1557 H 0.45229 0.83353 0.14318 0.0
H1558 H 0.43782 0.85628 0.16216 0.0
H1559 H 0.33586 0.86665 0.21277 0.0
H1560 H 0.35028 0.88436 0.19157 0.0
H1561 H 0.40907 0.86231 0.20352 0.0
H1562 H 0.39477 0.84447 0.22479 0.0
H1563 H 0.40051 0.85693 0.17406 0.0
H1564 H 0.39754 0.91136 0.2097 0.0
H1565 H 0.38131 0.93352 0.22822 0.0
H1566 H 0.33959 0.95521 0.19579 0.0
H1567 H 0.35539 0.93294 0.17712 0.0
C1568 C 0.43743 0.92002 0.12562 0.0
C1569 C 0.42408 0.93113 0.11668 0.0
C1570 C 0.43099 0.91168 0.13896 0.0
C1571 C 0.41099 0.91403 0.14348 0.0
C1572 C 0.39781 0.92573 0.13481 0.0
C1573 C 0.4043 0.93422 0.12153 0.0
C1574 C 0.40361 0.90376 0.157 0.0
C1575 C 0.3941 0.91573 0.16779 0.0
C1576 C 0.40598 0.88229 0.1593 0.0
C1577 C 0.41466 0.86853 0.14794 0.0
C1578 C 0.40634 0.86775 0.13375 0.0
C1579 C 0.41468 0.85488 0.12305 0.0
C1580 C 0.43126 0.84259 0.12645 0.0
C1581 C 0.43948 0.84309 0.14056 0.0
C1582 C 0.4312 0.85596 0.15129 0.0
C1583 C 0.35187 0.86558 0.21092 0.0
C1584 C 0.36419 0.85417 0.22047 0.0
C1585 C 0.36009 0.87579 0.19884 0.0
C1586 C 0.38076 0.8748 0.19607 0.0
C1587 C 0.39308 0.86331 0.20551 0.0
C1588 C 0.38489 0.85317 0.21766 0.0
C1589 C 0.38939 0.88538 0.18312 0.0
C1590 C 0.39909 0.87345 0.17243 0.0
C1591 C 0.38701 0.90683 0.18085 0.0
C1592 C 0.37755 0.92034 0.19204 0.0
C1593 C 0.38481 0.92073 0.20655 0.0
C1594 C 0.3757 0.93334 0.21707 0.0
C1595 C 0.3594 0.94573 0.21319 0.0
C1596 C 0.3522 0.94559 0.19878 0.0
C1597 C 0.36125 0.93299 0.18822 0.0
H1598 H 0.35237 0.95548 0.22136 0.0
H1599 H 0.4377 0.83263 0.11816 0.0
H1600 H 0.04392 0.56982 0.87797 0.0
H1601 H 0.06128 0.5829 0.85618 0.0
H1602 H 0.08452 0.63377 0.88152 0.0
H1603 H 0.06742 0.62074 0.90332 0.0
H1604 H 0.07255 0.64613 0.85434 0.0
H1605 H 0.11301 0.59184 0.87524 0.0
H1606 H 0.11957 0.55662 0.88428 0.0
H1607 H 0.10531 0.53195 0.84178 0.0
H1608 H 0.09839 0.56702 0.83254 0.0
H1609 H 0.15659 0.67665 0.81241 0.0
H1610 H 0.13489 0.66352 0.8319 0.0
H1611 H 0.11446 0.61487 0.80327 0.0
H1612 H 0.13623 0.62783 0.78371 0.0
H1613 H 0.12314 0.60074 0.83081 0.0
H1614 H 0.08472 0.65511 0.80939 0.0
H1615 H 0.07836 0.69029 0.80023 0.0
H1616 H 0.08871 0.7148 0.84337 0.0
H1617 H 0.09544 0.67977 0.85276 0.0
C1618 C 0.05267 0.58383 0.87888 0.0
C1619 C 0.05435 0.59419 0.8924 0.0
C1620 C 0.06254 0.5913 0.86642 0.0
C1621 C 0.07437 0.60917 0.86729 0.0
C1622 C 0.07543 0.61997 0.88061 0.0
C1623 C 0.06557 0.61254 0.89305 0.0
C1624 C 0.08644 0.61614 0.85455 0.0
C1625 C 0.08372 0.63628 0.84926 0.0
C1626 C 0.1007 0.6031 0.84773 0.0
C1627 C 0.10497 0.58202 0.85325 0.0
C1628 C 0.11112 0.57889 0.86785 0.0
C1629 C 0.11493 0.55895 0.87301 0.0
C1630 C 0.1128 0.54205 0.86362 0.0
C1631 C 0.10691 0.54505 0.84904 0.0
C1632 C 0.10306 0.56495 0.84384 0.0
C1633 C 0.14754 0.66312 0.81026 0.0
C1634 C 0.14809 0.65332 0.79649 0.0
C1635 C 0.13507 0.6557 0.82139 0.0
C1636 C 0.12289 0.63839 0.81896 0.0
C1637 C 0.1237 0.6283 0.80534 0.0
C1638 C 0.13612 0.63575 0.79418 0.0
C1639 C 0.10938 0.63079 0.83068 0.0
C1640 C 0.11184 0.61054 0.83579 0.0
C1641 C 0.09489 0.64372 0.83732 0.0
C1642 C 0.09075 0.66482 0.83175 0.0
C1643 C 0.0858 0.66802 0.8169 0.0
C1644 C 0.0821 0.68793 0.81167 0.0
C1645 C 0.08316 0.70477 0.82121 0.0
C1646 C 0.08791 0.70173 0.836 0.0
C1647 C 0.09164 0.68185 0.84129 0.0
H1648 H 0.08024 0.72015 0.81713 0.0
H1649 H 0.11575 0.52663 0.86763 0.0
H1650 H 0.37155 0.57759 0.15854 0.0
H1651 H 0.36132 0.59253 0.13509 0.0
H1652 H 0.40974 0.56071 0.11333 0.0
H1653 H 0.41996 0.54547 0.13677 0.0
H1654 H 0.40732 0.60094 0.10493 0.0
H1655 H 0.36247 0.5436 0.1096 0.0
H1656 H 0.33755 0.52151 0.12195 0.0
H1657 H 0.29643 0.57238 0.12411 0.0
H1658 H 0.32123 0.59487 0.11195 0.0
H1659 H 0.37336 0.61962 0.0321 0.0
H1660 H 0.38385 0.60296 0.05492 0.0
H1661 H 0.33564 0.6331 0.0781 0.0
H1662 H 0.32489 0.64965 0.0553 0.0
H1663 H 0.3383 0.59282 0.08542 0.0
H1664 H 0.38326 0.65035 0.08134 0.0
H1665 H 0.40815 0.67267 0.06917 0.0
H1666 H 0.44901 0.62167 0.06603 0.0
H1667 H 0.42423 0.59896 0.07801 0.0
C1668 C 0.37987 0.57352 0.14875 0.0
C1669 C 0.39651 0.56024 0.14952 0.0
C1670 C 0.37404 0.58213 0.13536 0.0
C1671 C 0.38466 0.57756 0.12245 0.0
C1672 C 0.40135 0.56444 0.12318 0.0
C1673 C 0.40719 0.5558 0.13657 0.0
C1674 C 0.37847 0.58675 0.10826 0.0
C1675 C 0.39233 0.59891 0.10054 0.0
C1676 C 0.35877 0.58447 0.10273 0.0
C1677 C 0.34379 0.57097 0.10999 0.0
C1678 C 0.34817 0.55012 0.11282 0.0
C1679 C 0.33406 0.53752 0.11976 0.0
C1680 C 0.31543 0.54555 0.12385 0.0
C1681 C 0.31087 0.56619 0.12096 0.0
C1682 C 0.32494 0.57886 0.11402 0.0
C1683 C 0.36498 0.62272 0.04205 0.0
C1684 C 0.34831 0.636 0.04189 0.0
C1685 C 0.37105 0.61324 0.05509 0.0
C1686 C 0.36064 0.61695 0.06823 0.0
C1687 C 0.34389 0.63004 0.06808 0.0
C1688 C 0.33781 0.63953 0.05504 0.0
C1689 C 0.36712 0.60708 0.08212 0.0
C1690 C 0.35332 0.5948 0.08979 0.0
C1691 C 0.38686 0.60927 0.08761 0.0
C1692 C 0.4018 0.6229 0.08044 0.0
C1693 C 0.39749 0.64385 0.07795 0.0
C1694 C 0.41159 0.65658 0.0711 0.0
C1695 C 0.43013 0.64858 0.06679 0.0
C1696 C 0.43463 0.62784 0.06936 0.0
C1697 C 0.42056 0.61503 0.07618 0.0
H1698 H 0.44103 0.65846 0.0615 0.0
H1699 H 0.30452 0.53576 0.12922 0.0
H1700 H 0.38009 0.96534 0.38407 0.0
H1701 H 0.37115 0.94623 0.36187 0.0
H1702 H 0.4065 0.89455 0.37664 0.0
H1703 H 0.41511 0.91327 0.39904 0.0
H1704 H 0.41221 0.90368 0.34699 0.0
H1705 H 0.35768 0.89261 0.38073 0.0
H1706 H 0.33085 0.90332 0.39773 0.0
H1707 H 0.3017 0.93637 0.36288 0.0
H1708 H 0.32853 0.9261 0.34571 0.0
H1709 H 0.3739 0.82616 0.29984 0.0
H1710 H 0.38403 0.8464 0.32122 0.0
H1711 H 0.34355 0.89504 0.3083 0.0
H1712 H 0.33302 0.87473 0.28706 0.0
H1713 H 0.34069 0.88812 0.33683 0.0
H1714 H 0.39448 0.89909 0.30289 0.0
H1715 H 0.42133 0.88902 0.28571 0.0
H1716 H 0.45191 0.85711 0.32044 0.0
H1717 H 0.42509 0.86675 0.3378 0.0
C1718 C 0.38589 0.94987 0.38265 0.0
C1719 C 0.39825 0.94082 0.3934 0.0
C1720 C 0.38083 0.93902 0.36993 0.0
C1721 C 0.38805 0.91893 0.36769 0.0
C1722 C 0.40083 0.91006 0.37816 0.0
C1723 C 0.4058 0.92085 0.39092 0.0
C1724 C 0.38183 0.90694 0.35463 0.0
C1725 C 0.3966 0.90006 0.34483 0.0
C1726 C 0.36143 0.90267 0.35169 0.0
C1727 C 0.34523 0.90877 0.36197 0.0
C1728 C 0.34564 0.90231 0.37672 0.0
C1729 C 0.33042 0.90827 0.38638 0.0
C1730 C 0.31461 0.92056 0.3814 0.0
C1731 C 0.31397 0.92687 0.36673 0.0
C1732 C 0.32917 0.92098 0.35703 0.0
C1733 C 0.36716 0.84117 0.30154 0.0
C1734 C 0.3527 0.84885 0.29173 0.0
C1735 C 0.37304 0.85276 0.31373 0.0
C1736 C 0.36475 0.87236 0.31625 0.0
C1737 C 0.35017 0.87998 0.30655 0.0
C1738 C 0.3442 0.86835 0.2944 0.0
C1739 C 0.37107 0.88481 0.32912 0.0
C1740 C 0.35631 0.89177 0.33892 0.0
C1741 C 0.39148 0.88925 0.33201 0.0
C1742 C 0.40767 0.88348 0.32161 0.0
C1743 C 0.40685 0.88979 0.30684 0.0
C1744 C 0.42208 0.88418 0.29707 0.0
C1745 C 0.43829 0.87239 0.30197 0.0
C1746 C 0.43933 0.86622 0.31666 0.0
C1747 C 0.42413 0.87177 0.32647 0.0
H1748 H 0.45006 0.86806 0.29439 0.0
H1749 H 0.30284 0.92516 0.3889 0.0
H1750 H 0.07123 0.9493 0.63444 0.0
H1751 H 0.08614 0.93632 0.61175 0.0
H1752 H 0.09491 0.87683 0.632 0.0
H1753 H 0.08102 0.88997 0.65494 0.0
H1754 H 0.12745 0.88777 0.61815 0.0
H1755 H 0.05765 0.88567 0.606 0.0
H1756 H 0.02336 0.89927 0.60309 0.0
H1757 H 0.04469 0.94406 0.57206 0.0
H1758 H 0.07917 0.9309 0.57493 0.0
H1759 H 0.14838 0.8306 0.55344 0.0
H1760 H 0.13206 0.8441 0.57547 0.0
H1761 H 0.13155 0.90505 0.55648 0.0
H1762 H 0.14792 0.89169 0.53437 0.0
H1763 H 0.09489 0.89372 0.56933 0.0
H1764 H 0.16499 0.89479 0.58175 0.0
H1765 H 0.1988 0.87992 0.58455 0.0
H1766 H 0.17592 0.83538 0.61517 0.0
H1767 H 0.14189 0.8498 0.61238 0.0
C1768 C 0.0764 0.93348 0.63409 0.0
C1769 C 0.07489 0.92069 0.64654 0.0
C1770 C 0.08472 0.926 0.62105 0.0
C1771 C 0.09146 0.90552 0.62011 0.0
C1772 C 0.08976 0.89267 0.63245 0.0
C1773 C 0.08159 0.90016 0.64552 0.0
C1774 C 0.10102 0.89769 0.60649 0.0
C1775 C 0.12017 0.88882 0.60751 0.0
C1776 C 0.09175 0.89946 0.59254 0.0
C1777 C 0.07103 0.90743 0.5908 0.0
C1778 C 0.05506 0.89853 0.59865 0.0
C1779 C 0.03558 0.90614 0.59699 0.0
C1780 C 0.03186 0.92256 0.58743 0.0
C1781 C 0.0476 0.93137 0.57948 0.0
C1782 C 0.06711 0.92383 0.58111 0.0
C1783 C 0.14481 0.84688 0.55393 0.0
C1784 C 0.14951 0.8601 0.54218 0.0
C1785 C 0.13553 0.85457 0.56654 0.0
C1786 C 0.13073 0.87558 0.56761 0.0
C1787 C 0.13515 0.88878 0.55584 0.0
C1788 C 0.14459 0.88113 0.54326 0.0
C1789 C 0.12117 0.88376 0.58108 0.0
C1790 C 0.10208 0.8927 0.58 0.0
C1791 C 0.13039 0.88189 0.595 0.0
C1792 C 0.15086 0.87326 0.59674 0.0
C1793 C 0.16713 0.88172 0.58898 0.0
C1794 C 0.18634 0.87339 0.59059 0.0
C1795 C 0.18949 0.85668 0.60001 0.0
C1796 C 0.17345 0.8483 0.60787 0.0
C1797 C 0.1542 0.85656 0.60629 0.0
H1798 H 0.20438 0.85025 0.60124 0.0
H1799 H 0.01676 0.92842 0.58615 0.0
H1800 H 0.57991 0.42155 0.86272 0.0
H1801 H 0.588 0.40179 0.88478 0.0
H1802 H 0.62693 0.45068 0.89948 0.0
H1803 H 0.61846 0.47089 0.87768 0.0
H1804 H 0.64471 0.41177 0.90056 0.0
H1805 H 0.58346 0.44443 0.91594 0.0
H1806 H 0.54782 0.45409 0.91387 0.0
H1807 H 0.53107 0.39015 0.91418 0.0
H1808 H 0.56666 0.38009 0.91604 0.0
H1809 H 0.6638 0.3771 0.97264 0.0
H1810 H 0.65356 0.39733 0.95132 0.0
H1811 H 0.61 0.35078 0.93999 0.0
H1812 H 0.61988 0.33061 0.96154 0.0
H1813 H 0.59427 0.38811 0.93691 0.0
H1814 H 0.65458 0.3549 0.92132 0.0
H1815 H 0.69003 0.34429 0.92279 0.0
H1816 H 0.70838 0.40775 0.92197 0.0
H1817 H 0.67301 0.41876 0.92071 0.0
C1818 C 0.58989 0.42832 0.87076 0.0
C1819 C 0.59851 0.44786 0.8684 0.0
C1820 C 0.59458 0.41693 0.88333 0.0
C1821 C 0.60801 0.42481 0.89376 0.0
C1822 C 0.61658 0.44431 0.89152 0.0
C1823 C 0.61178 0.45579 0.87901 0.0
C1824 C 0.61359 0.41245 0.90682 0.0
C1825 C 0.63374 0.40682 0.90863 0.0
C1826 C 0.59915 0.40549 0.91706 0.0
C1827 C 0.57774 0.41151 0.91597 0.0
C1828 C 0.57219 0.43242 0.91543 0.0
C1829 C 0.55199 0.43797 0.91432 0.0
C1830 C 0.53719 0.42274 0.91385 0.0
C1831 C 0.54255 0.40193 0.91453 0.0
C1832 C 0.56273 0.39629 0.91562 0.0
C1833 C 0.65205 0.37113 0.96561 0.0
C1834 C 0.64273 0.35218 0.96874 0.0
C1835 C 0.64626 0.38269 0.95339 0.0
C1836 C 0.63122 0.37543 0.94393 0.0
C1837 C 0.62168 0.35666 0.94713 0.0
C1838 C 0.62738 0.34513 0.95942 0.0
C1839 C 0.62545 0.38749 0.93072 0.0
C1840 C 0.60526 0.39303 0.92885 0.0
C1841 C 0.63983 0.39421 0.92033 0.0
C1842 C 0.66113 0.38765 0.92107 0.0
C1843 C 0.66617 0.3666 0.92157 0.0
C1844 C 0.68625 0.36051 0.92235 0.0
C1845 C 0.70144 0.37534 0.92251 0.0
C1846 C 0.69659 0.39628 0.92187 0.0
C1847 C 0.67653 0.40246 0.92111 0.0
H1848 H 0.71698 0.37059 0.92311 0.0
H1849 H 0.52156 0.42707 0.913 0.0
H1850 H 0.57571 0.0845 0.1167 0.0
H1851 H 0.58569 0.09969 0.13993 0.0
H1852 H 0.63495 0.05676 0.14301 0.0
H1853 H 0.62392 0.0401 0.12042 0.0
H1854 H 0.62052 0.06119 0.16855 0.0
H1855 H 0.64038 0.10915 0.1316 0.0
H1856 H 0.63625 0.13159 0.10994 0.0
H1857 H 0.5925 0.16771 0.13307 0.0
H1858 H 0.59615 0.1453 0.15481 0.0
H1859 H 0.67717 0.12573 0.21848 0.0
H1860 H 0.66656 0.1089 0.19563 0.0
H1861 H 0.60617 0.13053 0.20249 0.0
H1862 H 0.61649 0.14691 0.22556 0.0
H1863 H 0.62732 0.13725 0.17216 0.0
H1864 H 0.60856 0.08642 0.20918 0.0
H1865 H 0.61577 0.06399 0.23041 0.0
H1866 H 0.66231 0.03367 0.20599 0.0
H1867 H 0.65556 0.05617 0.18467 0.0
C1868 C 0.58841 0.07789 0.12241 0.0
C1869 C 0.59899 0.061 0.11654 0.0
C1870 C 0.59434 0.08691 0.13563 0.0
C1871 C 0.6114 0.07975 0.14308 0.0
C1872 C 0.62183 0.0627 0.13742 0.0
C1873 C 0.61563 0.05334 0.12436 0.0
C1874 C 0.6183 0.09002 0.15679 0.0
C1875 C 0.62223 0.0778 0.16921 0.0
C1876 C 0.62047 0.11174 0.15779 0.0
C1877 C 0.61841 0.12542 0.1448 0.0
C1878 C 0.62979 0.1218 0.13204 0.0
C1879 C 0.62754 0.13452 0.11975 0.0
C1880 C 0.61408 0.15103 0.12011 0.0
C1881 C 0.6029 0.1549 0.13279 0.0
C1882 C 0.60506 0.14221 0.14511 0.0
C1883 C 0.66163 0.12687 0.21512 0.0
C1884 C 0.64763 0.13757 0.22379 0.0
C1885 C 0.65562 0.11726 0.20211 0.0
C1886 C 0.63562 0.11854 0.19746 0.0
C1887 C 0.62167 0.12944 0.20596 0.0
C1888 C 0.62757 0.13867 0.21913 0.0
C1889 C 0.62927 0.1084 0.18371 0.0
C1890 C 0.62556 0.12065 0.17134 0.0
C1891 C 0.62776 0.08673 0.18264 0.0
C1892 C 0.63172 0.07313 0.1954 0.0
C1893 C 0.62047 0.07511 0.20839 0.0
C1894 C 0.62444 0.06236 0.22042 0.0
C1895 C 0.63953 0.04746 0.21957 0.0
C1896 C 0.65064 0.04524 0.20665 0.0
C1897 C 0.64675 0.05798 0.19459 0.0
H1898 H 0.64258 0.03759 0.22889 0.0
H1899 H 0.61234 0.16084 0.11057 0.0
H1900 H 0.96213 0.13221 0.37448 0.0
H1901 H 0.94445 0.14422 0.39643 0.0
H1902 H 0.90026 0.09631 0.3907 0.0
H1903 H 0.91745 0.08467 0.36853 0.0
H1904 H 0.88282 0.13271 0.3962 0.0
H1905 H 0.9362 0.09261 0.41719 0.0
H1906 H 0.97134 0.08221 0.42119 0.0
H1907 H 0.98518 0.14275 0.43739 0.0
H1908 H 0.95016 0.1536 0.43329 0.0
H1909 H 0.83547 0.13793 0.46573 0.0
H1910 H 0.85435 0.12647 0.44422 0.0
H1911 H 0.89702 0.17558 0.45089 0.0
H1912 H 0.87836 0.18702 0.47252 0.0
H1913 H 0.91558 0.1394 0.4449 0.0
H1914 H 0.86214 0.17937 0.42419 0.0
H1915 H 0.82701 0.1898 0.42019 0.0
H1916 H 0.81333 0.12955 0.40339 0.0
H1917 H 0.84833 0.11866 0.40749 0.0
C1918 C 0.94863 0.12427 0.37788 0.0
C1919 C 0.94125 0.10743 0.36979 0.0
C1920 C 0.93863 0.13104 0.39049 0.0
C1921 C 0.92113 0.12104 0.39527 0.0
C1922 C 0.91377 0.10421 0.38723 0.0
C1923 C 0.92373 0.09745 0.37464 0.0
C1924 C 0.91015 0.12839 0.40843 0.0
C1925 C 0.88991 0.13391 0.40689 0.0
C1926 C 0.91956 0.13048 0.42229 0.0
C1927 C 0.94061 0.12398 0.42479 0.0
C1928 C 0.94678 0.10376 0.42149 0.0
C1929 C 0.96666 0.09777 0.42379 0.0
C1930 C 0.9805 0.11183 0.4295 0.0
C1931 C 0.97445 0.13189 0.43295 0.0
C1932 C 0.95458 0.13796 0.43065 0.0
C1933 C 0.84886 0.14632 0.46263 0.0
C1934 C 0.85537 0.16343 0.47081 0.0
C1935 C 0.85959 0.13979 0.4503 0.0
C1936 C 0.87697 0.15031 0.44587 0.0
C1937 C 0.88364 0.16726 0.45411 0.0
C1938 C 0.87291 0.17381 0.46644 0.0
C1939 C 0.88822 0.14357 0.43267 0.0
C1940 C 0.9085 0.13821 0.4342 0.0
C1941 C 0.87887 0.14163 0.41879 0.0
C1942 C 0.85781 0.14814 0.41628 0.0
C1943 C 0.8516 0.16829 0.41976 0.0
C1944 C 0.83172 0.1743 0.41745 0.0
C1945 C 0.81793 0.16033 0.41158 0.0
C1946 C 0.82402 0.14034 0.40796 0.0
C1947 C 0.84388 0.13425 0.41026 0.0
H1948 H 0.80255 0.16501 0.4098 0.0
H1949 H 0.99589 0.10716 0.43128 0.0
H1950 H 0.94103 0.36275 0.60992 0.0
H1951 H 0.92138 0.35484 0.63184 0.0
H1952 H 0.93766 0.41359 0.65057 0.0
H1953 H 0.95785 0.42142 0.62879 0.0
H1954 H 0.93986 0.38222 0.67066 0.0
H1955 H 0.8923 0.40735 0.63525 0.0
H1956 H 0.8756 0.40836 0.6111 0.0
H1957 H 0.85604 0.34577 0.61676 0.0
H1958 H 0.87287 0.34429 0.64087 0.0
H1959 H 0.8673 0.38259 0.72736 0.0
H1960 H 0.88684 0.39174 0.70562 0.0
H1961 H 0.86892 0.33494 0.68472 0.0
H1962 H 0.849 0.32586 0.70631 0.0
H1963 H 0.86743 0.36611 0.66569 0.0
H1964 H 0.91537 0.34019 0.70038 0.0
H1965 H 0.93278 0.33811 0.72422 0.0
H1966 H 0.95216 0.40094 0.71967 0.0
H1967 H 0.93461 0.40348 0.69588 0.0
C1968 C 0.9407 0.37387 0.61879 0.0
C1969 C 0.95101 0.39272 0.61762 0.0
C1970 C 0.92929 0.36941 0.63124 0.0
C1971 C 0.92784 0.38376 0.64273 0.0
C1972 C 0.9385 0.40237 0.64178 0.0
C1973 C 0.94992 0.40686 0.62931 0.0
C1974 C 0.91505 0.37937 0.65566 0.0
C1975 C 0.92396 0.379 0.66961 0.0
C1976 C 0.89442 0.37468 0.65421 0.0
C1977 C 0.88401 0.37565 0.63982 0.0
C1978 C 0.88455 0.39375 0.63131 0.0
C1979 C 0.87504 0.39442 0.61763 0.0
C1980 C 0.86482 0.37712 0.61238 0.0
C1981 C 0.86399 0.35915 0.62083 0.0
C1982 C 0.87349 0.3584 0.63451 0.0
C1983 C 0.86746 0.37206 0.71813 0.0
C1984 C 0.85668 0.35343 0.7186 0.0
C1985 C 0.8787 0.37728 0.70573 0.0
C1986 C 0.87958 0.36388 0.69363 0.0
C1987 C 0.86849 0.34549 0.69394 0.0
C1988 C 0.85715 0.3403 0.70631 0.0
C1989 C 0.89224 0.36891 0.68071 0.0
C1990 C 0.88332 0.36939 0.66675 0.0
C1991 C 0.91289 0.37359 0.68214 0.0
C1992 C 0.9235 0.37209 0.69642 0.0
C1993 C 0.92321 0.35361 0.70452 0.0
C1994 C 0.93313 0.35234 0.71801 0.0
C1995 C 0.94352 0.3694 0.72348 0.0
C1996 C 0.94407 0.38775 0.71543 0.0
C1997 C 0.93416 0.38911 0.70194 0.0
H1998 H 0.9512 0.36838 0.73393 0.0
H1999 H 0.8575 0.37766 0.60177 0.0
H2000 H 0.58027 0.07624 0.39741 0.0
H2001 H 0.59811 0.08506 0.37481 0.0
H2002 H 0.55539 0.13354 0.36621 0.0
H2003 H 0.53707 0.12435 0.38852 0.0
H2004 H 0.5644 0.11282 0.34149 0.0
H2005 H 0.60102 0.14403 0.38141 0.0
H2006 H 0.61922 0.14416 0.40498 0.0
H2007 H 0.66268 0.10201 0.38737 0.0
H2008 H 0.64457 0.10144 0.36373 0.0
H2009 H 0.61758 0.17771 0.29314 0.0
H2010 H 0.6001 0.16307 0.31424 0.0
H2011 H 0.64551 0.11601 0.3181 0.0
H2012 H 0.66328 0.1307 0.297 0.0
H2013 H 0.63605 0.13297 0.34465 0.0
H2014 H 0.60064 0.10387 0.30403 0.0
H2015 H 0.58248 0.1042 0.28044 0.0
H2016 H 0.53677 0.14258 0.29932 0.0
H2017 H 0.55482 0.14274 0.32297 0.0
C2018 C 0.57447 0.08855 0.39058 0.0
C2019 C 0.5573 0.09967 0.3948 0.0
C2020 C 0.58481 0.0937 0.37774 0.0
C2021 C 0.57825 0.11015 0.36894 0.0
C2022 C 0.56077 0.12085 0.37288 0.0
C2023 C 0.55041 0.11569 0.38569 0.0
C2024 C 0.58982 0.11662 0.35582 0.0
C2025 C 0.58002 0.1174 0.3422 0.0
C2026 C 0.61035 0.12208 0.35669 0.0
C2027 C 0.62132 0.12251 0.37086 0.0
C2028 C 0.61437 0.13466 0.3826 0.0
C2029 C 0.62469 0.13484 0.39597 0.0
C2030 C 0.64207 0.12304 0.39769 0.0
C2031 C 0.6492 0.11111 0.38603 0.0
C2032 C 0.63892 0.11086 0.37264 0.0
C2033 C 0.62388 0.16423 0.29845 0.0
C2034 C 0.6418 0.15533 0.29336 0.0
C2035 C 0.6138 0.15583 0.31047 0.0
C2036 C 0.62138 0.1383 0.31762 0.0
C2037 C 0.63939 0.1295 0.3127 0.0
C2038 C 0.64948 0.13789 0.30063 0.0
C2039 C 0.61055 0.12944 0.33036 0.0
C2040 C 0.62049 0.12821 0.34391 0.0
C2041 C 0.59014 0.1236 0.32943 0.0
C2042 C 0.57918 0.12345 0.31524 0.0
C2043 C 0.58679 0.11251 0.30312 0.0
C2044 C 0.5765 0.11259 0.28975 0.0
C2045 C 0.5585 0.12344 0.28837 0.0
C2046 C 0.55073 0.1342 0.30039 0.0
C2047 C 0.56097 0.13419 0.31379 0.0
H2048 H 0.55056 0.12348 0.27801 0.0
H2049 H 0.65004 0.12319 0.40804 0.0
H2050 H 0.87889 0.03947 0.63755 0.0
H2051 H 0.86878 0.05787 0.61542 0.0
H2052 H 0.91429 0.10378 0.62346 0.0
H2053 H 0.92353 0.08632 0.64616 0.0
H2054 H 0.88183 0.12216 0.61602 0.0
H2055 H 0.91848 0.06543 0.59588 0.0
H2056 H 0.92762 0.02896 0.5921 0.0
H2057 H 0.86862 0.01634 0.57553 0.0
H2058 H 0.85903 0.05268 0.5794 0.0
H2059 H 0.87526 0.1683 0.54506 0.0
H2060 H 0.88761 0.14924 0.56643 0.0
H2061 H 0.83706 0.10796 0.56358 0.0
H2062 H 0.82461 0.12687 0.54221 0.0
H2063 H 0.87313 0.08747 0.56788 0.0
H2064 H 0.83704 0.145 0.58878 0.0
H2065 H 0.82914 0.18186 0.5921 0.0
H2066 H 0.88934 0.19326 0.60669 0.0
H2067 H 0.89768 0.1565 0.60325 0.0
C2068 C 0.88667 0.05356 0.63471 0.0
C2069 C 0.90206 0.06135 0.64372 0.0
C2070 C 0.88105 0.06393 0.62189 0.0
C2071 C 0.89096 0.08208 0.61761 0.0
C2072 C 0.90646 0.08977 0.62648 0.0
C2073 C 0.9119 0.07959 0.6394 0.0
C2074 C 0.88468 0.09348 0.6042 0.0
C2075 C 0.88027 0.1146 0.60545 0.0
C2076 C 0.88225 0.08361 0.59043 0.0
C2077 C 0.88798 0.06175 0.58806 0.0
C2078 C 0.90741 0.05485 0.59153 0.0
C2079 C 0.91268 0.0342 0.58936 0.0
C2080 C 0.8987 0.02033 0.58361 0.0
C2081 C 0.87943 0.02709 0.57999 0.0
C2082 C 0.87407 0.04772 0.58216 0.0
C2083 C 0.86677 0.15516 0.54897 0.0
C2084 C 0.84891 0.14915 0.54197 0.0
C2085 C 0.87382 0.14432 0.5612 0.0
C2086 C 0.86317 0.12728 0.56663 0.0
C2087 C 0.8455 0.12107 0.55955 0.0
C2088 C 0.83837 0.13196 0.54738 0.0
C2089 C 0.87032 0.116 0.57978 0.0
C2090 C 0.87485 0.09495 0.57846 0.0
C2091 C 0.87308 0.12596 0.59344 0.0
C2092 C 0.86804 0.14804 0.59562 0.0
C2093 C 0.84864 0.1554 0.59258 0.0
C2094 C 0.84407 0.17627 0.59451 0.0
C2095 C 0.85875 0.1899 0.59957 0.0
C2096 C 0.878 0.18269 0.60275 0.0
C2097 C 0.88265 0.16183 0.60083 0.0
H2098 H 0.85518 0.20606 0.60105 0.0
H2099 H 0.90281 0.00436 0.58194 0.0
H2100 H 0.93602 0.42323 0.87878 0.0
H2101 H 0.91897 0.41003 0.8569 0.0
H2102 H 0.89803 0.35754 0.88166 0.0
H2103 H 0.915 0.37061 0.90352 0.0
H2104 H 0.91068 0.34591 0.8551 0.0
H2105 H 0.86733 0.39849 0.87451 0.0
H2106 H 0.85865 0.43335 0.88328 0.0
H2107 H 0.87376 0.45863 0.8411 0.0
H2108 H 0.88281 0.42393 0.83214 0.0
H2109 H 0.83196 0.31208 0.80891 0.0
H2110 H 0.85074 0.32607 0.82969 0.0
H2111 H 0.87231 0.37575 0.80243 0.0
H2112 H 0.85346 0.36195 0.78158 0.0
H2113 H 0.86027 0.38927 0.82953 0.0
H2114 H 0.90249 0.33603 0.80998 0.0
H2115 H 0.91054 0.30093 0.80139 0.0
H2116 H 0.89691 0.27662 0.84412 0.0
H2117 H 0.88849 0.31156 0.85291 0.0
C2118 C 0.92777 0.40888 0.87955 0.0
C2119 C 0.92684 0.39798 0.89288 0.0
C2120 C 0.91804 0.40136 0.86705 0.0
C2121 C 0.90702 0.38292 0.8677 0.0
C2122 C 0.90647 0.37178 0.8809 0.0
C2123 C 0.91625 0.37923 0.89337 0.0
C2124 C 0.89575 0.37536 0.85472 0.0
C2125 C 0.89951 0.35531 0.84961 0.0
C2126 C 0.88146 0.38779 0.84736 0.0
C2127 C 0.87595 0.40865 0.85271 0.0
C2128 C 0.86896 0.41151 0.86714 0.0
C2129 C 0.86394 0.43123 0.87214 0.0
C2130 C 0.86571 0.4482 0.86277 0.0
C2131 C 0.87243 0.44547 0.84836 0.0
C2132 C 0.87749 0.42578 0.84331 0.0
C2133 C 0.84062 0.32603 0.80733 0.0
C2134 C 0.84128 0.33585 0.79357 0.0
C2135 C 0.85142 0.33395 0.81921 0.0
C2136 C 0.86311 0.3518 0.81754 0.0
C2137 C 0.86342 0.36192 0.80393 0.0
C2138 C 0.85267 0.35398 0.79202 0.0
C2139 C 0.87513 0.3598 0.82999 0.0
C2140 C 0.8715 0.37992 0.835 0.0
C2141 C 0.88949 0.34741 0.83729 0.0
C2142 C 0.89468 0.3264 0.83206 0.0
C2143 C 0.90106 0.32318 0.81751 0.0
C2144 C 0.90572 0.30332 0.81261 0.0
C2145 C 0.90419 0.28655 0.82219 0.0
C2146 C 0.89806 0.28963 0.8367 0.0
C2147 C 0.89336 0.30946 0.84165 0.0
H2148 H 0.9078 0.27118 0.81838 0.0
H2149 H 0.86182 0.46346 0.86666 0.0
H2150 H 0.56953 0.37442 0.15203 0.0
H2151 H 0.58697 0.3677 0.12894 0.0
H2152 H 0.56967 0.42772 0.1129 0.0
H2153 H 0.55176 0.43441 0.13593 0.0
H2154 H 0.56446 0.39732 0.09219 0.0
H2155 H 0.61648 0.4203 0.12448 0.0
H2156 H 0.6365 0.42075 0.14725 0.0
H2157 H 0.65435 0.358 0.13977 0.0
H2158 H 0.6342 0.35707 0.11706 0.0
H2159 H 0.63093 0.39407 0.03094 0.0
H2160 H 0.61389 0.40449 0.05354 0.0
H2161 H 0.63077 0.34697 0.07392 0.0
H2162 H 0.64809 0.33658 0.05149 0.0
H2163 H 0.6366 0.37861 0.09226 0.0
H2164 H 0.58331 0.35479 0.06093 0.0
H2165 H 0.56299 0.35376 0.03832 0.0
H2166 H 0.54732 0.41748 0.04409 0.0
H2167 H 0.56778 0.41897 0.06665 0.0
C2168 C 0.56925 0.38611 0.14354 0.0
C2169 C 0.55925 0.40494 0.14579 0.0
C2170 C 0.57938 0.38233 0.13041 0.0
C2171 C 0.5798 0.39731 0.11929 0.0
C2172 C 0.56959 0.416 0.12138 0.0
C2173 C 0.55949 0.41984 0.13456 0.0
C2174 C 0.59089 0.39333 0.10547 0.0
C2175 C 0.58031 0.39357 0.09216 0.0
C2176 C 0.61147 0.38803 0.1055 0.0
C2177 C 0.62368 0.38856 0.11913 0.0
C2178 C 0.62455 0.40654 0.12775 0.0
C2179 C 0.63594 0.40689 0.14063 0.0
C2180 C 0.64665 0.3894 0.14497 0.0
C2181 C 0.64603 0.37153 0.1364 0.0
C2182 C 0.63464 0.37109 0.12351 0.0
C2183 C 0.63104 0.38365 0.04024 0.0
C2184 C 0.64081 0.36446 0.0394 0.0
C2185 C 0.62123 0.3896 0.05313 0.0
C2186 C 0.62088 0.37641 0.06536 0.0
C2187 C 0.63085 0.35738 0.06461 0.0
C2188 C 0.64069 0.35145 0.05175 0.0
C2189 C 0.61012 0.38234 0.07898 0.0
C2190 C 0.62078 0.38249 0.09227 0.0
C2191 C 0.5896 0.38793 0.07892 0.0
C2192 C 0.57725 0.38705 0.06539 0.0
C2193 C 0.57567 0.36863 0.05731 0.0
C2194 C 0.5641 0.36795 0.04452 0.0
C2195 C 0.55392 0.38556 0.03975 0.0
C2196 C 0.55524 0.40386 0.04779 0.0
C2197 C 0.56681 0.40463 0.06058 0.0
H2198 H 0.54497 0.385 0.02984 0.0
H2199 H 0.65547 0.3897 0.15495 0.0
loop_
_geom_bond_atom_site_label_1
_geom_bond_atom_site_label_2
_geom_bond_distance
_geom_bond_site_symmetry_2
_ccdc_geom_bond_type
H0 C27 0.929 . S
N1 C26 1.433 . S
N1 C32 1.435 . S
N1 C38 1.423 . S
H2 C28 0.930 . S
H3 C31 0.931 . S
H4 C30 0.929 . S
H5 C33 0.930 . S
H6 C34 0.932 . S
H7 C37 0.929 . S
H8 C36 0.931 . S
H9 C39 0.929 . S
H10 C43 0.932 . S
H11 C40 0.931 . S
H12 C42 0.929 . S
H13 C45 0.929 . S
H14 C46 0.930 . S
H15 C48 0.929 . S
H16 C49 0.931 . S
H17 C51 0.930 . S
H18 C52 0.932 . S
H19 C54 0.931 . S
H20 C55 0.929 . S
H21 C57 0.929 . S
H22 C58 0.931 1_455 S
H23 C60 0.929 . S
N24 C44 1.433 . S
N24 C50 1.435 . S
N24 C56 1.423 . S
H25 C61 0.932 . S
C26 N1 1.433 . S
C26 C27 1.363 . S
C26 C31 1.370 . S
C27 H0 0.929 . S
C27 C26 1.363 . S
C27 C28 1.385 . S
C28 H2 0.930 . S
C28 C27 1.385 . S
C28 C29 1.357 . S
C29 C28 1.357 . S
C29 C30 1.406 . S
C30 H4 0.929 . S
C30 C29 1.406 . S
C30 C31 1.391 . S
C31 H3 0.931 . S
C31 C26 1.370 . S
C31 C30 1.391 . S
C32 N1 1.435 . S
C32 C33 1.358 . S
C32 C37 1.371 . S
C33 H5 0.930 . S
C33 C32 1.358 . S
C33 C34 1.405 . S
C34 H6 0.932 . S
C34 C33 1.405 . S
C34 C35 1.383 . S
C35 C34 1.383 . S
C35 C36 1.393 . S
C36 H8 0.931 . S
C36 C35 1.393 . S
C36 C37 1.382 . S
C37 H7 0.929 . S
C37 C32 1.371 . S
C37 C36 1.382 . S
C38 N1 1.423 . S
C38 C39 1.362 . S
C38 C43 1.388 . S
C39 H9 0.929 . S
C39 C38 1.362 . S
C39 C40 1.376 1_565 S
C40 H11 0.931 . S
C40 C39 1.376 1_545 S
C40 C41 1.396 . S
C41 C40 1.396 . S
C41 C42 1.348 1_545 S
C41 C59 1.468 . S
C42 H12 0.929 . S
C42 C41 1.348 1_565 S
C42 C43 1.443 . S
C43 H10 0.932 . S
C43 C38 1.388 . S
C43 C42 1.443 . S
C44 N24 1.433 . S
C44 C45 1.363 . S
C44 C49 1.370 . S
C45 H13 0.929 . S
C45 C44 1.363 . S
C45 C46 1.385 . S
C46 H14 0.930 . S
C46 C45 1.385 . S
C46 C47 1.357 . S
C47 C46 1.357 . S
C47 C48 1.406 . S
C48 H15 0.929 . S
C48 C47 1.406 . S
C48 C49 1.391 . S
C49 H16 0.931 . S
C49 C44 1.370 . S
C49 C48 1.391 . S
C50 N24 1.435 . S
C50 C51 1.358 . S
C50 C55 1.371 . S
C51 H17 0.930 . S
C51 C50 1.358 . S
C51 C52 1.405 . S
C52 H18 0.932 . S
C52 C51 1.405 . S
C52 C53 1.383 . S
C53 C52 1.383 . S
C53 C54 1.393 . S
C54 H19 0.931 . S
C54 C53 1.393 . S
C54 C55 1.382 . S
C55 H20 0.929 . S
C55 C50 1.371 . S
C55 C54 1.382 . S
C56 N24 1.423 . S
C56 C57 1.362 . S
C56 C61 1.388 . S
C57 H21 0.929 . S
C57 C56 1.362 . S
C57 C58 1.376 . S
C58 H22 0.931 1_655 S
C58 C57 1.376 . S
C58 C59 1.396 1_655 S
C59 C41 1.468 . S
C59 C58 1.396 1_455 S
C59 C60 1.352 1_455 S
C60 H23 0.929 . S
C60 C59 1.352 1_655 S
C60 C61 1.443 . S
C61 H25 0.932 . S
C61 C56 1.388 . S
C61 C60 1.443 . S
H62 C89 0.929 . S
N63 C88 1.433 . S
N63 C94 1.435 . S
N63 C100 1.423 . S
H64 C90 0.930 . S
H65 C93 0.931 . S
H66 C92 0.929 . S
H67 C95 0.930 . S
H68 C96 0.932 . S
H69 C99 0.929 . S
H70 C98 0.931 . S
H71 C101 0.929 . S
H72 C105 0.932 . S
H73 C102 0.931 . S
H74 C104 0.929 . S
H75 C107 0.929 . S
H76 C108 0.930 . S
H77 C110 0.929 . S
H78 C111 0.931 . S
H79 C113 0.930 . S
H80 C114 0.932 . S
H81 C116 0.931 . S
H82 C117 0.929 . S
H83 C119 0.929 . S
H84 C120 0.931 . S
H85 C122 0.929 . S
N86 C106 1.433 . S
N86 C112 1.435 . S
N86 C118 1.423 . S
H87 C123 0.932 . S
C88 N63 1.433 . S
C88 C89 1.363 . S
C88 C93 1.370 . S
C89 H62 0.929 . S
C89 C88 1.363 . S
C89 C90 1.385 . S
C90 H64 0.930 . S
C90 C89 1.385 . S
C90 C91 1.357 . S
C91 C90 1.357 . S
C91 C92 1.406 . S
C92 H66 0.929 . S
C92 C91 1.406 . S
C92 C93 1.391 . S
C93 H65 0.931 . S
C93 C88 1.370 . S
C93 C92 1.391 . S
C94 N63 1.435 . S
C94 C95 1.358 . S
C94 C99 1.371 . S
C95 H67 0.930 . S
C95 C94 1.358 . S
C95 C96 1.405 . S
C96 H68 0.932 . S
C96 C95 1.405 . S
C96 C97 1.383 . S
C97 C96 1.383 . S
C97 C98 1.393 . S
C98 H70 0.931 . S
C98 C97 1.393 . S
C98 C99 1.382 . S
C99 H69 0.929 . S
C99 C94 1.371 . S
C99 C98 1.382 . S
C100 N63 1.423 . S
C100 C101 1.362 . S
C100 C105 1.388 . S
C101 H71 0.929 . S
C101 C100 1.362 . S
C101 C102 1.376 1_655 S
C102 H73 0.931 . S
C102 C101 1.376 1_455 S
C102 C103 1.396 . S
C103 C102 1.396 . S
C103 C104 1.348 1_455 S
C103 C121 1.472 . S
C104 H74 0.929 . S
C104 C103 1.348 1_655 S
C104 C105 1.443 . S
C105 H72 0.932 . S
C105 C100 1.388 . S
C105 C104 1.443 . S
C106 N86 1.433 . S
C106 C107 1.363 . S
C106 C111 1.370 . S
C107 H75 0.929 . S
C107 C106 1.363 . S
C107 C108 1.385 . S
C108 H76 0.930 . S
C108 C107 1.385 . S
C108 C109 1.357 . S
C109 C108 1.357 . S
C109 C110 1.406 . S
C110 H77 0.929 . S
C110 C109 1.406 . S
C110 C111 1.391 . S
C111 H78 0.931 . S
C111 C106 1.370 . S
C111 C110 1.391 . S
C112 N86 1.435 . S
C112 C113 1.358 . S
C112 C117 1.371 . S
C113 H79 0.930 . S
C113 C112 1.358 . S
C113 C114 1.405 . S
C114 H80 0.932 . S
C114 C113 1.405 . S
C114 C115 1.383 . S
C115 C114 1.383 . S
C115 C116 1.393 . S
C116 H81 0.931 . S
C116 C115 1.393 . S
C116 C117 1.382 . S
C117 H82 0.929 . S
C117 C112 1.371 . S
C117 C116 1.382 . S
C118 N86 1.423 . S
C118 C119 1.362 . S
C118 C123 1.388 . S
C119 H83 0.929 . S
C119 C118 1.362 . S
C119 C120 1.376 . S
C120 H84 0.931 . S
C120 C119 1.376 . S
C120 C121 1.396 . S
C121 C103 1.472 . S
C121 C120 1.396 . S
C121 C122 1.348 . S
C122 H85 0.929 . S
C122 C121 1.348 . S
C122 C123 1.443 . S
C123 H87 0.932 . S
C123 C118 1.388 . S
C123 C122 1.443 . S
H124 C151 0.929 . S
N125 C150 1.433 . S
N125 C156 1.435 . S
N125 C162 1.423 . S
H126 C152 0.930 . S
H127 C155 0.931 . S
H128 C154 0.929 . S
H129 C157 0.930 . S
H130 C158 0.932 . S
H131 C161 0.929 . S
H132 C160 0.931 . S
H133 C163 0.929 . S
H134 C167 0.932 . S
H135 C164 0.931 . S
H136 C166 0.929 . S
H137 C169 0.929 . S
H138 C170 0.930 . S
H139 C172 0.929 . S
H140 C173 0.931 . S
H141 C175 0.930 . S
H142 C176 0.932 . S
H143 C178 0.931 . S
H144 C179 0.929 . S
H145 C181 0.929 . S
H146 C182 0.931 . S
H147 C184 0.929 . S
N148 C168 1.433 . S
N148 C174 1.435 . S
N148 C180 1.423 . S
H149 C185 0.932 . S
C150 N125 1.433 . S
C150 C151 1.363 . S
C150 C155 1.370 . S
C151 H124 0.929 . S
C151 C150 1.363 . S
C151 C152 1.385 . S
C152 H126 0.930 . S
C152 C151 1.385 . S
C152 C153 1.357 . S
C153 C152 1.357 . S
C153 C154 1.406 . S
C154 H128 0.929 . S
C154 C153 1.406 . S
C154 C155 1.391 . S
C155 H127 0.931 . S
C155 C150 1.370 . S
C155 C154 1.391 . S
C156 N125 1.435 . S
C156 C157 1.358 . S
C156 C161 1.371 . S
C157 H129 0.930 . S
C157 C156 1.358 . S
C157 C158 1.405 . S
C158 H130 0.932 . S
C158 C157 1.405 . S
C158 C159 1.383 . S
C159 C158 1.383 . S
C159 C160 1.393 . S
C160 H132 0.931 . S
C160 C159 1.393 . S
C160 C161 1.382 . S
C161 H131 0.929 . S
C161 C156 1.371 . S
C161 C160 1.382 . S
C162 N125 1.423 . S
C162 C163 1.362 . S
C162 C167 1.388 . S
C163 H133 0.929 . S
C163 C162 1.362 . S
C163 C164 1.376 . S
C164 H135 0.931 . S
C164 C163 1.376 . S
C164 C165 1.396 . S
C165 C164 1.396 . S
C165 C166 1.348 . S
C165 C183 1.472 . S
C166 H136 0.929 . S
C166 C165 1.348 . S
C166 C167 1.443 . S
C167 H134 0.932 . S
C167 C162 1.388 . S
C167 C166 1.443 . S
C168 N148 1.433 . S
C168 C169 1.363 . S
C168 C173 1.370 . S
C169 H137 0.929 . S
C169 C168 1.363 . S
C169 C170 1.385 . S
C170 H138 0.930 . S
C170 C169 1.385 . S
C170 C171 1.357 . S
C171 C170 1.357 . S
C171 C172 1.406 . S
C172 H139 0.929 . S
C172 C171 1.406 . S
C172 C173 1.391 . S
C173 H140 0.931 . S
C173 C168 1.370 . S
C173 C172 1.391 . S
C174 N148 1.435 . S
C174 C175 1.358 . S
C174 C179 1.371 . S
C175 H141 0.930 . S
C175 C174 1.358 . S
C175 C176 1.405 . S
C176 H142 0.932 . S
C176 C175 1.405 . S
C176 C177 1.383 . S
C177 C176 1.383 . S
C177 C178 1.393 . S
C178 H143 0.931 . S
C178 C177 1.393 . S
C178 C179 1.382 . S
C179 H144 0.929 . S
C179 C174 1.371 . S
C179 C178 1.382 . S
C180 N148 1.423 . S
C180 C181 1.362 . S
C180 C185 1.388 . S
C181 H145 0.929 . S
C181 C180 1.362 . S
C181 C182 1.376 . S
C182 H146 0.931 . S
C182 C181 1.376 . S
C182 C183 1.396 . S
C183 C165 1.472 . S
C183 C182 1.396 . S
C183 C184 1.348 . S
C184 H147 0.929 . S
C184 C183 1.348 . S
C184 C185 1.443 . S
C185 H149 0.932 . S
C185 C180 1.388 . S
C185 C184 1.443 . S
H186 C213 0.929 . S
N187 C212 1.433 . S
N187 C218 1.435 . S
N187 C224 1.423 . S
H188 C214 0.930 . S
H189 C217 0.931 . S
H190 C216 0.929 . S
H191 C219 0.930 . S
H192 C220 0.932 . S
H193 C223 0.929 . S
H194 C222 0.931 . S
H195 C225 0.929 . S
H196 C229 0.932 . S
H197 C226 0.931 . S
H198 C228 0.929 . S
H199 C231 0.929 . S
H200 C232 0.930 . S
H201 C234 0.929 . S
H202 C235 0.931 . S
H203 C237 0.930 . S
H204 C238 0.932 . S
H205 C240 0.931 . S
H206 C241 0.929 . S
H207 C243 0.929 . S
H208 C244 0.931 1_565 S
H209 C246 0.929 . S
N210 C230 1.433 . S
N210 C236 1.435 . S
N210 C242 1.423 . S
H211 C247 0.932 . S
C212 N187 1.433 . S
C212 C213 1.363 . S
C212 C217 1.370 . S
C213 H186 0.929 . S
C213 C212 1.363 . S
C213 C214 1.385 . S
C214 H188 0.930 . S
C214 C213 1.385 . S
C214 C215 1.357 . S
C215 C214 1.357 . S
C215 C216 1.406 . S
C216 H190 0.929 . S
C216 C215 1.406 . S
C216 C217 1.391 . S
C217 H189 0.931 . S
C217 C212 1.370 . S
C217 C216 1.391 . S
C218 N187 1.435 . S
C218 C219 1.358 . S
C218 C223 1.371 . S
C219 H191 0.930 . S
C219 C218 1.358 . S
C219 C220 1.405 . S
C220 H192 0.932 . S
C220 C219 1.405 . S
C220 C221 1.383 . S
C221 C220 1.383 . S
C221 C222 1.393 . S
C222 H194 0.931 . S
C222 C221 1.393 . S
C222 C223 1.382 . S
C223 H193 0.929 . S
C223 C218 1.371 . S
C223 C222 1.382 . S
C224 N187 1.423 . S
C224 C225 1.362 . S
C224 C229 1.388 . S
C225 H195 0.929 . S
C225 C224 1.362 . S
C225 C226 1.376 . S
C226 H197 0.931 . S
C226 C225 1.376 . S
C226 C227 1.396 . S
C227 C226 1.396 . S
C227 C228 1.348 . S
C227 C245 1.490 . S
C228 H198 0.929 . S
C228 C227 1.348 . S
C228 C229 1.443 . S
C229 H196 0.932 . S
C229 C224 1.388 . S
C229 C228 1.443 . S
C230 N210 1.433 . S
C230 C231 1.363 . S
C230 C235 1.370 . S
C231 H199 0.929 . S
C231 C230 1.363 . S
C231 C232 1.385 . S
C232 H200 0.930 . S
C232 C231 1.385 . S
C232 C233 1.357 . S
C233 C232 1.357 . S
C233 C234 1.406 . S
C234 H201 0.929 . S
C234 C233 1.406 . S
C234 C235 1.391 . S
C235 H202 0.931 . S
C235 C230 1.370 . S
C235 C234 1.391 . S
C236 N210 1.435 . S
C236 C237 1.358 . S
C236 C241 1.371 . S
C237 H203 0.930 . S
C237 C236 1.358 . S
C237 C238 1.405 . S
C238 H204 0.932 . S
C238 C237 1.405 . S
C238 C239 1.383 . S
C239 C238 1.383 . S
C239 C240 1.393 . S
C240 H205 0.931 . S
C240 C239 1.393 . S
C240 C241 1.382 . S
C241 H206 0.929 . S
C241 C236 1.371 . S
C241 C240 1.382 . S
C242 N210 1.423 . S
C242 C243 1.362 . S
C242 C247 1.388 . S
C243 H207 0.929 . S
C243 C242 1.362 . S
C243 C244 1.376 . S
C244 H208 0.931 1_545 S
C244 C243 1.376 . S
C244 C245 1.394 1_545 S
C245 C227 1.490 . S
C245 C244 1.394 1_565 S
C245 C246 1.330 1_565 S
C246 H209 0.929 . S
C246 C245 1.330 1_545 S
C246 C247 1.443 . S
C247 H211 0.932 . S
C247 C242 1.388 . S
C247 C246 1.443 . S
H248 C275 0.929 . S
N249 C274 1.433 . S
N249 C280 1.435 . S
N249 C286 1.423 . S
H250 C276 0.930 . S
H251 C279 0.931 . S
H252 C278 0.929 . S
H253 C281 0.930 . S
H254 C282 0.932 . S
H255 C285 0.929 . S
H256 C284 0.931 . S
H257 C287 0.929 . S
H258 C291 0.932 . S
H259 C288 0.931 . S
H260 C290 0.929 . S
H261 C293 0.929 . S
H262 C294 0.930 . S
H263 C296 0.929 . S
H264 C297 0.931 . S
H265 C299 0.930 . S
H266 C300 0.932 . S
H267 C302 0.931 . S
H268 C303 0.929 . S
H269 C305 0.929 . S
H270 C306 0.931 1_455 S
H271 C308 0.929 . S
N272 C292 1.433 . S
N272 C298 1.435 . S
N272 C304 1.423 . S
H273 C309 0.932 . S
C274 N249 1.433 . S
C274 C275 1.363 . S
C274 C279 1.370 . S
C275 H248 0.929 . S
C275 C274 1.363 . S
C275 C276 1.385 . S
C276 H250 0.930 . S
C276 C275 1.385 . S
C276 C277 1.357 . S
C277 C276 1.357 . S
C277 C278 1.406 . S
C278 H252 0.929 . S
C278 C277 1.406 . S
C278 C279 1.391 . S
C279 H251 0.931 . S
C279 C274 1.370 . S
C279 C278 1.391 . S
C280 N249 1.435 . S
C280 C281 1.358 . S
C280 C285 1.371 . S
C281 H253 0.930 . S
C281 C280 1.358 . S
C281 C282 1.405 . S
C282 H254 0.932 . S
C282 C281 1.405 . S
C282 C283 1.383 . S
C283 C282 1.383 . S
C283 C284 1.393 . S
C284 H256 0.931 . S
C284 C283 1.393 . S
C284 C285 1.382 . S
C285 H255 0.929 . S
C285 C280 1.371 . S
C285 C284 1.382 . S
C286 N249 1.423 . S
C286 C287 1.362 . S
C286 C291 1.388 . S
C287 H257 0.929 . S
C287 C286 1.362 . S
C287 C288 1.376 . S
C288 H259 0.931 . S
C288 C287 1.376 . S
C288 C289 1.396 . S
C289 C288 1.396 . S
C289 C290 1.348 . S
C289 C307 1.468 . S
C290 H260 0.929 . S
C290 C289 1.348 . S
C290 C291 1.443 . S
C291 H258 0.932 . S
C291 C286 1.388 . S
C291 C290 1.443 . S
C292 N272 1.433 . S
C292 C293 1.363 . S
C292 C297 1.370 . S
C293 H261 0.929 . S
C293 C292 1.363 . S
C293 C294 1.385 . S
C294 H262 0.930 . S
C294 C293 1.385 . S
C294 C295 1.357 . S
C295 C294 1.357 . S
C295 C296 1.406 . S
C296 H263 0.929 . S
C296 C295 1.406 . S
C296 C297 1.391 . S
C297 H264 0.931 . S
C297 C292 1.370 . S
C297 C296 1.391 . S
C298 N272 1.435 . S
C298 C299 1.358 . S
C298 C303 1.371 . S
C299 H265 0.930 . S
C299 C298 1.358 . S
C299 C300 1.405 . S
C300 H266 0.932 . S
C300 C299 1.405 . S
C300 C301 1.383 . S
C301 C300 1.383 . S
C301 C302 1.393 . S
C302 H267 0.931 . S
C302 C301 1.393 . S
C302 C303 1.382 . S
C303 H268 0.929 . S
C303 C298 1.371 . S
C303 C302 1.382 . S
C304 N272 1.423 . S
C304 C305 1.362 . S
C304 C309 1.388 . S
C305 H269 0.929 . S
C305 C304 1.362 . S
C305 C306 1.376 . S
C306 H270 0.931 1_655 S
C306 C305 1.376 . S
C306 C307 1.396 1_655 S
C307 C289 1.468 . S
C307 C306 1.396 1_455 S
C307 C308 1.352 1_455 S
C308 H271 0.929 . S
C308 C307 1.352 1_655 S
C308 C309 1.443 . S
C309 H273 0.932 . S
C309 C304 1.388 . S
C309 C308 1.443 . S
H310 C337 0.929 . S
N311 C336 1.433 . S
N311 C342 1.435 . S
N311 C348 1.423 . S
H312 C338 0.930 . S
H313 C341 0.931 . S
H314 C340 0.929 . S
H315 C343 0.930 . S
H316 C344 0.932 . S
H317 C347 0.929 . S
H318 C346 0.931 . S
H319 C349 0.929 . S
H320 C353 0.932 . S
H321 C350 0.931 . S
H322 C352 0.929 . S
H323 C355 0.929 . S
H324 C356 0.930 . S
H325 C358 0.929 . S
H326 C359 0.931 . S
H327 C361 0.930 . S
H328 C362 0.932 . S
H329 C364 0.931 . S
H330 C365 0.929 . S
H331 C367 0.929 . S
H332 C368 0.931 . S
H333 C370 0.929 . S
N334 C354 1.433 . S
N334 C360 1.435 . S
N334 C366 1.423 . S
H335 C371 0.932 . S
C336 N311 1.433 . S
C336 C337 1.363 . S
C336 C341 1.370 . S
C337 H310 0.929 . S
C337 C336 1.363 . S
C337 C338 1.385 . S
C338 H312 0.930 . S
C338 C337 1.385 . S
C338 C339 1.357 . S
C339 C338 1.357 . S
C339 C340 1.406 . S
C340 H314 0.929 . S
C340 C339 1.406 . S
C340 C341 1.391 . S
C341 H313 0.931 . S
C341 C336 1.370 . S
C341 C340 1.391 . S
C342 N311 1.435 . S
C342 C343 1.358 . S
C342 C347 1.371 . S
C343 H315 0.930 . S
C343 C342 1.358 . S
C343 C344 1.405 . S
C344 H316 0.932 . S
C344 C343 1.405 . S
C344 C345 1.383 . S
C345 C344 1.383 . S
C345 C346 1.393 . S
C346 H318 0.931 . S
C346 C345 1.393 . S
C346 C347 1.382 . S
C347 H317 0.929 . S
C347 C342 1.371 . S
C347 C346 1.382 . S
C348 N311 1.423 . S
C348 C349 1.362 . S
C348 C353 1.388 . S
C349 H319 0.929 . S
C349 C348 1.362 . S
C349 C350 1.376 . S
C350 H321 0.931 . S
C350 C349 1.376 . S
C350 C351 1.396 . S
C351 C350 1.396 . S
C351 C352 1.348 . S
C351 C369 1.472 . S
C352 H322 0.929 . S
C352 C351 1.348 . S
C352 C353 1.443 . S
C353 H320 0.932 . S
C353 C348 1.388 . S
C353 C352 1.443 . S
C354 N334 1.433 . S
C354 C355 1.363 . S
C354 C359 1.370 . S
C355 H323 0.929 . S
C355 C354 1.363 . S
C355 C356 1.385 . S
C356 H324 0.930 . S
C356 C355 1.385 . S
C356 C357 1.357 . S
C357 C356 1.357 . S
C357 C358 1.406 . S
C358 H325 0.929 . S
C358 C357 1.406 . S
C358 C359 1.391 . S
C359 H326 0.931 . S
C359 C354 1.370 . S
C359 C358 1.391 . S
C360 N334 1.435 . S
C360 C361 1.358 . S
C360 C365 1.371 . S
C361 H327 0.930 . S
C361 C360 1.358 . S
C361 C362 1.405 . S
C362 H328 0.932 . S
C362 C361 1.405 . S
C362 C363 1.383 . S
C363 C362 1.383 . S
C363 C364 1.393 . S
C364 H329 0.931 . S
C364 C363 1.393 . S
C364 C365 1.382 . S
C365 H330 0.929 . S
C365 C360 1.371 . S
C365 C364 1.382 . S
C366 N334 1.423 . S
C366 C367 1.362 . S
C366 C371 1.388 . S
C367 H331 0.929 . S
C367 C366 1.362 . S
C367 C368 1.376 . S
C368 H332 0.931 . S
C368 C367 1.376 . S
C368 C369 1.396 . S
C369 C351 1.472 . S
C369 C368 1.396 . S
C369 C370 1.348 . S
C370 H333 0.929 . S
C370 C369 1.348 . S
C370 C371 1.443 . S
C371 H335 0.932 . S
C371 C366 1.388 . S
C371 C370 1.443 . S
H372 C399 0.929 . S
N373 C398 1.433 . S
N373 C404 1.435 . S
N373 C410 1.423 . S
H374 C400 0.930 . S
H375 C403 0.931 . S
H376 C402 0.929 . S
H377 C405 0.930 . S
H378 C406 0.932 . S
H379 C409 0.929 . S
H380 C408 0.931 . S
H381 C411 0.929 . S
H382 C415 0.932 . S
H383 C412 0.931 . S
H384 C414 0.929 . S
H385 C417 0.929 . S
H386 C418 0.930 . S
H387 C420 0.929 . S
H388 C421 0.931 . S
H389 C423 0.930 . S
H390 C424 0.932 . S
H391 C426 0.931 . S
H392 C427 0.929 . S
H393 C429 0.929 . S
H394 C430 0.931 . S
H395 C432 0.929 . S
N396 C416 1.433 . S
N396 C422 1.435 . S
N396 C428 1.423 . S
H397 C433 0.932 . S
C398 N373 1.433 . S
C398 C399 1.363 . S
C398 C403 1.370 . S
C399 H372 0.929 . S
C399 C398 1.363 . S
C399 C400 1.385 . S
C400 H374 0.930 . S
C400 C399 1.385 . S
C400 C401 1.357 . S
C401 C400 1.357 . S
C401 C402 1.406 . S
C402 H376 0.929 . S
C402 C401 1.406 . S
C402 C403 1.391 . S
C403 H375 0.931 . S
C403 C398 1.370 . S
C403 C402 1.391 . S
C404 N373 1.435 . S
C404 C405 1.358 . S
C404 C409 1.371 . S
C405 H377 0.930 . S
C405 C404 1.358 . S
C405 C406 1.405 . S
C406 H378 0.932 . S
C406 C405 1.405 . S
C406 C407 1.383 . S
C407 C406 1.383 . S
C407 C408 1.393 . S
C408 H380 0.931 . S
C408 C407 1.393 . S
C408 C409 1.382 . S
C409 H379 0.929 . S
C409 C404 1.371 . S
C409 C408 1.382 . S
C410 N373 1.423 . S
C410 C411 1.362 . S
C410 C415 1.388 . S
C411 H381 0.929 . S
C411 C410 1.362 . S
C411 C412 1.376 1_565 S
C412 H383 0.931 . S
C412 C411 1.376 1_545 S
C412 C413 1.396 . S
C413 C412 1.396 . S
C413 C414 1.348 1_545 S
C413 C431 1.472 . S
C414 H384 0.929 . S
C414 C413 1.348 1_565 S
C414 C415 1.443 . S
C415 H382 0.932 . S
C415 C410 1.388 . S
C415 C414 1.443 . S
C416 N396 1.433 . S
C416 C417 1.363 . S
C416 C421 1.370 . S
C417 H385 0.929 . S
C417 C416 1.363 . S
C417 C418 1.385 . S
C418 H386 0.930 . S
C418 C417 1.385 . S
C418 C419 1.357 . S
C419 C418 1.357 . S
C419 C420 1.406 . S
C420 H387 0.929 . S
C420 C419 1.406 . S
C420 C421 1.391 . S
C421 H388 0.931 . S
C421 C416 1.370 . S
C421 C420 1.391 . S
C422 N396 1.435 . S
C422 C423 1.358 . S
C422 C427 1.371 . S
C423 H389 0.930 . S
C423 C422 1.358 . S
C423 C424 1.405 . S
C424 H390 0.932 . S
C424 C423 1.405 . S
C424 C425 1.383 . S
C425 C424 1.383 . S
C425 C426 1.393 . S
C426 H391 0.931 . S
C426 C425 1.393 . S
C426 C427 1.382 . S
C427 H392 0.929 . S
C427 C422 1.371 . S
C427 C426 1.382 . S
C428 N396 1.423 . S
C428 C429 1.362 . S
C428 C433 1.388 . S
C429 H393 0.929 . S
C429 C428 1.362 . S
C429 C430 1.376 . S
C430 H394 0.931 . S
C430 C429 1.376 . S
C430 C431 1.396 . S
C431 C413 1.472 . S
C431 C430 1.396 . S
C431 C432 1.348 . S
C432 H395 0.929 . S
C432 C431 1.348 . S
C432 C433 1.443 . S
C433 H397 0.932 . S
C433 C428 1.388 . S
C433 C432 1.443 . S
H434 C461 0.929 . S
N435 C460 1.433 . S
N435 C466 1.435 . S
N435 C472 1.423 . S
H436 C462 0.930 . S
H437 C465 0.931 . S
H438 C464 0.929 . S
H439 C467 0.930 . S
H440 C468 0.932 . S
H441 C471 0.929 . S
H442 C470 0.931 . S
H443 C473 0.929 . S
H444 C477 0.932 . S
H445 C474 0.931 . S
H446 C476 0.929 . S
H447 C479 0.929 . S
H448 C480 0.930 . S
H449 C482 0.929 . S
H450 C483 0.931 . S
H451 C485 0.930 . S
H452 C486 0.932 . S
H453 C488 0.931 . S
H454 C489 0.929 . S
H455 C491 0.929 . S
H456 C492 0.931 1_565 S
H457 C494 0.929 . S
N458 C478 1.433 . S
N458 C484 1.435 . S
N458 C490 1.423 . S
H459 C495 0.932 . S
C460 N435 1.433 . S
C460 C461 1.363 . S
C460 C465 1.370 . S
C461 H434 0.929 . S
C461 C460 1.363 . S
C461 C462 1.385 . S
C462 H436 0.930 . S
C462 C461 1.385 . S
C462 C463 1.357 . S
C463 C462 1.357 . S
C463 C464 1.406 . S
C464 H438 0.929 . S
C464 C463 1.406 . S
C464 C465 1.391 . S
C465 H437 0.931 . S
C465 C460 1.370 . S
C465 C464 1.391 . S
C466 N435 1.435 . S
C466 C467 1.358 . S
C466 C471 1.371 . S
C467 H439 0.930 . S
C467 C466 1.358 . S
C467 C468 1.405 . S
C468 H440 0.932 . S
C468 C467 1.405 . S
C468 C469 1.383 . S
C469 C468 1.383 . S
C469 C470 1.393 . S
C470 H442 0.931 . S
C470 C469 1.393 . S
C470 C471 1.382 . S
C471 H441 0.929 . S
C471 C466 1.371 . S
C471 C470 1.382 . S
C472 N435 1.423 . S
C472 C473 1.362 . S
C472 C477 1.388 . S
C473 H443 0.929 . S
C473 C472 1.362 . S
C473 C474 1.376 1_455 S
C474 H445 0.931 . S
C474 C473 1.376 1_655 S
C474 C475 1.396 . S
C475 C474 1.396 . S
C475 C476 1.348 1_655 S
C475 C493 1.491 . S
C476 H446 0.929 . S
C476 C475 1.348 1_455 S
C476 C477 1.443 . S
C477 H444 0.932 . S
C477 C472 1.388 . S
C477 C476 1.443 . S
C478 N458 1.433 . S
C478 C479 1.363 . S
C478 C483 1.370 . S
C479 H447 0.929 . S
C479 C478 1.363 . S
C479 C480 1.385 . S
C480 H448 0.930 . S
C480 C479 1.385 . S
C480 C481 1.357 . S
C481 C480 1.357 . S
C481 C482 1.406 . S
C482 H449 0.929 . S
C482 C481 1.406 . S
C482 C483 1.391 . S
C483 H450 0.931 . S
C483 C478 1.370 . S
C483 C482 1.391 . S
C484 N458 1.435 . S
C484 C485 1.358 . S
C484 C489 1.371 . S
C485 H451 0.930 . S
C485 C484 1.358 . S
C485 C486 1.405 . S
C486 H452 0.932 . S
C486 C485 1.405 . S
C486 C487 1.383 . S
C487 C486 1.383 . S
C487 C488 1.393 . S
C488 H453 0.931 . S
C488 C487 1.393 . S
C488 C489 1.382 . S
C489 H454 0.929 . S
C489 C484 1.371 . S
C489 C488 1.382 . S
C490 N458 1.423 . S
C490 C491 1.362 . S
C490 C495 1.388 . S
C491 H455 0.929 . S
C491 C490 1.362 . S
C491 C492 1.376 . S
C492 H456 0.931 1_545 S
C492 C491 1.376 . S
C492 C493 1.394 1_545 S
C493 C475 1.491 . S
C493 C492 1.394 1_565 S
C493 C494 1.330 1_565 S
C494 H457 0.929 . S
C494 C493 1.330 1_545 S
C494 C495 1.443 . S
C495 H459 0.932 . S
C495 C490 1.388 . S
C495 C494 1.443 . S
C496 O497 1.160 . S
C496 O503 1.185 . S
O497 C496 1.160 . S
O498 Zn499 1.899 . S
O498 C506 1.284 . S
Zn499 O498 1.899 . S
Zn499 O500 2.032 1_554 S
Zn499 O503 2.086 . S
Zn499 O508 1.977 . S
O500 Zn499 2.032 1_556 S
O500 C504 1.278 . S
C501 O502 1.203 . S
C501 O508 1.267 . S
O502 C501 1.203 . S
O503 C496 1.185 . S
O503 Zn499 2.086 . S
C504 O500 1.278 . S
C504 O505 1.211 . S
O505 C504 1.211 . S
C506 O498 1.284 . S
C506 O507 1.273 . S
O507 C506 1.273 . S
O508 Zn499 1.977 . S
O508 C501 1.267 . S
C509 O510 1.160 . S
C509 O516 1.185 . S
O510 C509 1.160 . S
O511 Zn512 1.899 . S
O511 C519 1.284 . S
Zn512 O511 1.899 . S
Zn512 O513 2.032 . S
Zn512 O516 2.086 . S
Zn512 O521 1.977 . S
O513 Zn512 2.032 . S
O513 C517 1.278 . S
C514 O515 1.203 . S
C514 O521 1.267 . S
O515 C514 1.203 . S
O516 C509 1.185 . S
O516 Zn512 2.086 . S
C517 O513 1.278 . S
C517 O518 1.211 . S
O518 C517 1.211 . S
C519 O511 1.284 . S
C519 O520 1.273 . S
O520 C519 1.273 . S
O521 Zn512 1.977 . S
O521 C514 1.267 . S
C522 O523 1.160 . S
C522 O529 1.185 . S
O523 C522 1.160 . S
O524 Zn525 1.899 . S
O524 C532 1.284 . S
Zn525 O524 1.899 . S
Zn525 O526 2.032 . S
Zn525 O529 2.086 . S
Zn525 O534 1.977 . S
O526 Zn525 2.032 . S
O526 C530 1.278 . S
C527 O528 1.203 . S
C527 O534 1.267 . S
O528 C527 1.203 . S
O529 C522 1.185 . S
O529 Zn525 2.086 . S
C530 O526 1.278 . S
C530 O531 1.211 . S
O531 C530 1.211 . S
C532 O524 1.284 . S
C532 O533 1.273 . S
O533 C532 1.273 . S
O534 Zn525 1.977 . S
O534 C527 1.267 . S
C535 O536 1.160 . S
C535 O542 1.185 . S
O536 C535 1.160 . S
O537 Zn538 1.899 . S
O537 C545 1.284 . S
Zn538 O537 1.899 . S
Zn538 O539 2.032 . S
Zn538 O542 2.086 . S
Zn538 O547 1.977 . S
O539 Zn538 2.032 . S
O539 C543 1.278 . S
C540 O541 1.203 . S
C540 O547 1.267 . S
O541 C540 1.203 . S
O542 C535 1.185 . S
O542 Zn538 2.086 . S
C543 O539 1.278 . S
C543 O544 1.211 . S
O544 C543 1.211 . S
C545 O537 1.284 . S
C545 O546 1.273 . S
O546 C545 1.273 . S
O547 Zn538 1.977 . S
O547 C540 1.267 . S
C548 O549 1.160 . S
C548 O555 1.185 . S
O549 C548 1.160 . S
O550 Zn551 1.899 . S
O550 C558 1.284 . S
Zn551 O550 1.899 . S
Zn551 O552 2.032 . S
Zn551 O555 2.086 . S
Zn551 O560 1.977 . S
O552 Zn551 2.032 . S
O552 C556 1.278 . S
C553 O554 1.203 . S
C553 O560 1.267 . S
O554 C553 1.203 . S
O555 C548 1.185 . S
O555 Zn551 2.086 . S
C556 O552 1.278 . S
C556 O557 1.211 . S
O557 C556 1.211 . S
C558 O550 1.284 . S
C558 O559 1.273 . S
O559 C558 1.273 . S
O560 Zn551 1.977 . S
O560 C553 1.267 . S
C561 O562 1.160 . S
C561 O568 1.185 . S
O562 C561 1.160 . S
O563 Zn564 1.899 . S
O563 C571 1.284 . S
Zn564 O563 1.899 . S
Zn564 O565 2.032 . S
Zn564 O568 2.086 . S
Zn564 O573 1.977 . S
O565 Zn564 2.032 . S
O565 C569 1.278 . S
C566 O567 1.203 . S
C566 O573 1.267 . S
O567 C566 1.203 . S
O568 C561 1.185 . S
O568 Zn564 2.086 . S
C569 O565 1.278 . S
C569 O570 1.211 . S
O570 C569 1.211 . S
C571 O563 1.284 . S
C571 O572 1.273 . S
O572 C571 1.273 . S
O573 Zn564 1.977 . S
O573 C566 1.267 . S
C574 O575 1.160 . S
C574 O581 1.185 . S
O575 C574 1.160 . S
O576 Zn577 1.899 . S
O576 C584 1.284 . S
Zn577 O576 1.899 . S
Zn577 O578 2.032 1_554 S
Zn577 O581 2.086 . S
Zn577 O586 1.977 . S
O578 Zn577 2.032 1_556 S
O578 C582 1.278 . S
C579 O580 1.203 . S
C579 O586 1.267 . S
O580 C579 1.203 . S
O581 C574 1.185 . S
O581 Zn577 2.086 . S
C582 O578 1.278 . S
C582 O583 1.211 . S
O583 C582 1.211 . S
C584 O576 1.284 . S
C584 O585 1.273 . S
O585 C584 1.273 . S
O586 Zn577 1.977 . S
O586 C579 1.267 . S
C587 O588 1.160 . S
C587 O594 1.185 . S
O588 C587 1.160 . S
O589 Zn590 1.899 . S
O589 C597 1.284 . S
Zn590 O589 1.899 . S
Zn590 O591 2.032 . S
Zn590 O594 2.086 . S
Zn590 O599 1.977 . S
O591 Zn590 2.032 . S
O591 C595 1.278 . S
C592 O593 1.203 . S
C592 O599 1.267 . S
O593 C592 1.203 . S
O594 C587 1.185 . S
O594 Zn590 2.086 . S
C595 O591 1.278 . S
C595 O596 1.211 . S
O596 C595 1.211 . S
C597 O589 1.284 . S
C597 O598 1.273 . S
O598 C597 1.273 . S
O599 Zn590 1.977 . S
O599 C592 1.267 . S
H600 C618 0.951 . S
H601 C620 0.951 . S
H602 C622 0.950 . S
H603 C623 0.950 . S
H604 C625 0.950 . S
H605 C628 0.950 . S
H606 C629 0.950 . S
H607 C631 0.950 . S
H608 C632 0.950 . S
H609 C633 0.951 . S
H610 C635 0.951 . S
H611 C637 0.950 . S
H612 C638 0.950 . S
H613 C640 0.950 . S
H614 C643 0.950 . S
H615 C644 0.950 . S
H616 C646 0.950 . S
H617 C647 0.950 . S
C618 H600 0.951 . S
C618 C619 1.366 . S
C618 C620 1.388 . S
C619 C618 1.366 . S
C619 C623 1.385 . S
C620 H601 0.951 . S
C620 C618 1.388 . S
C620 C621 1.366 . S
C621 C620 1.366 . S
C621 C622 1.414 . S
C621 C624 1.499 . S
C622 H602 0.950 . S
C622 C621 1.414 . S
C622 C623 1.374 . S
C623 H603 0.950 . S
C623 C619 1.385 . S
C623 C622 1.374 . S
C624 C621 1.499 . S
C624 C625 1.373 . S
C624 C626 1.389 . S
C625 H604 0.950 . S
C625 C624 1.373 . S
C625 C641 1.377 . S
C626 C624 1.389 . S
C626 C627 1.524 . S
C626 C640 1.377 . S
C627 C626 1.524 . S
C627 C628 1.397 . S
C627 C632 1.363 . S
C628 H605 0.950 . S
C628 C627 1.397 . S
C628 C629 1.334 . S
C629 H606 0.950 . S
C629 C628 1.334 . S
C629 C630 1.287 . S
C630 C629 1.287 . S
C630 C631 1.524 . S
C630 H649 0.913 . S
C631 H607 0.950 . S
C631 C630 1.524 . S
C631 C632 1.415 . S
C632 H608 0.950 . S
C632 C627 1.363 . S
C632 C631 1.415 . S
C633 H609 0.951 . S
C633 C634 1.366 . S
C633 C635 1.388 . S
C634 C633 1.366 . S
C634 C638 1.385 . S
C635 H610 0.951 . S
C635 C633 1.388 . S
C635 C636 1.366 . S
C636 C635 1.366 . S
C636 C637 1.414 . S
C636 C639 1.499 . S
C637 H611 0.950 . S
C637 C636 1.414 . S
C637 C638 1.374 . S
C638 H612 0.950 . S
C638 C634 1.385 . S
C638 C637 1.374 . S
C639 C636 1.499 . S
C639 C640 1.373 . S
C639 C641 1.389 . S
C640 H613 0.950 . S
C640 C626 1.377 . S
C640 C639 1.373 . S
C641 C625 1.377 . S
C641 C639 1.389 . S
C641 C642 1.524 . S
C642 C641 1.524 . S
C642 C643 1.397 . S
C642 C647 1.363 . S
C643 H614 0.950 . S
C643 C642 1.397 . S
C643 C644 1.334 . S
C644 H615 0.950 . S
C644 C643 1.334 . S
C644 C645 1.287 . S
C645 C644 1.287 . S
C645 C646 1.524 . S
C645 H648 0.999 . S
C646 H616 0.950 . S
C646 C645 1.524 . S
C646 C647 1.415 . S
C647 H617 0.950 . S
C647 C642 1.363 . S
C647 C646 1.415 . S
H648 C645 0.999 . S
H649 C630 0.913 . S
H650 C668 0.951 . S
H651 C670 0.951 . S
H652 C672 0.950 . S
H653 C673 0.950 . S
H654 C675 0.950 . S
H655 C678 0.950 . S
H656 C679 0.950 . S
H657 C681 0.950 . S
H658 C682 0.950 . S
H659 C683 0.951 . S
H660 C685 0.951 . S
H661 C687 0.950 . S
H662 C688 0.950 . S
H663 C690 0.950 . S
H664 C693 0.950 . S
H665 C694 0.950 . S
H666 C696 0.950 . S
H667 C697 0.950 . S
C668 H650 0.951 . S
C668 C669 1.366 . S
C668 C670 1.388 . S
C669 C668 1.366 . S
C669 C673 1.385 . S
C670 H651 0.951 . S
C670 C668 1.388 . S
C670 C671 1.366 . S
C671 C670 1.366 . S
C671 C672 1.414 . S
C671 C674 1.499 . S
C672 H652 0.950 . S
C672 C671 1.414 . S
C672 C673 1.374 . S
C673 H653 0.950 . S
C673 C669 1.385 . S
C673 C672 1.374 . S
C674 C671 1.499 . S
C674 C675 1.373 . S
C674 C676 1.389 . S
C675 H654 0.950 . S
C675 C674 1.373 . S
C675 C691 1.377 . S
C676 C674 1.389 . S
C676 C677 1.524 . S
C676 C690 1.377 . S
C677 C676 1.524 . S
C677 C678 1.397 . S
C677 C682 1.363 . S
C678 H655 0.950 . S
C678 C677 1.397 . S
C678 C679 1.334 . S
C679 H656 0.950 . S
C679 C678 1.334 . S
C679 C680 1.287 . S
C680 C679 1.287 . S
C680 C681 1.524 . S
C680 H699 0.913 . S
C681 H657 0.950 . S
C681 C680 1.524 . S
C681 C682 1.415 . S
C682 H658 0.950 . S
C682 C677 1.363 . S
C682 C681 1.415 . S
C683 H659 0.951 . S
C683 C684 1.366 . S
C683 C685 1.388 . S
C684 C683 1.366 . S
C684 C688 1.385 . S
C685 H660 0.951 . S
C685 C683 1.388 . S
C685 C686 1.366 . S
C686 C685 1.366 . S
C686 C687 1.414 . S
C686 C689 1.499 . S
C687 H661 0.950 . S
C687 C686 1.414 . S
C687 C688 1.374 . S
C688 H662 0.950 . S
C688 C684 1.385 . S
C688 C687 1.374 . S
C689 C686 1.499 . S
C689 C690 1.373 . S
C689 C691 1.389 . S
C690 H663 0.950 . S
C690 C676 1.377 . S
C690 C689 1.373 . S
C691 C675 1.377 . S
C691 C689 1.389 . S
C691 C692 1.524 . S
C692 C691 1.524 . S
C692 C693 1.397 . S
C692 C697 1.363 . S
C693 H664 0.950 . S
C693 C692 1.397 . S
C693 C694 1.334 . S
C694 H665 0.950 . S
C694 C693 1.334 . S
C694 C695 1.287 . S
C695 C694 1.287 . S
C695 C696 1.524 . S
C695 H698 0.999 . S
C696 H666 0.950 . S
C696 C695 1.524 . S
C696 C697 1.415 . S
C697 H667 0.950 . S
C697 C692 1.363 . S
C697 C696 1.415 . S
H698 C695 0.999 . S
H699 C680 0.913 . S
H700 C718 0.951 . S
H701 C720 0.951 . S
H702 C722 0.950 . S
H703 C723 0.950 . S
H704 C725 0.950 . S
H705 C728 0.950 . S
H706 C729 0.950 . S
H707 C731 0.950 . S
H708 C732 0.950 . S
H709 C733 0.951 . S
H710 C735 0.951 . S
H711 C737 0.950 . S
H712 C738 0.950 . S
H713 C740 0.950 . S
H714 C743 0.950 . S
H715 C744 0.950 . S
H716 C746 0.950 . S
H717 C747 0.950 . S
C718 H700 0.951 . S
C718 C719 1.366 . S
C718 C720 1.388 . S
C719 C718 1.366 . S
C719 C723 1.385 . S
C720 H701 0.951 . S
C720 C718 1.388 . S
C720 C721 1.366 . S
C721 C720 1.366 . S
C721 C722 1.414 . S
C721 C724 1.499 . S
C722 H702 0.950 . S
C722 C721 1.414 . S
C722 C723 1.374 . S
C723 H703 0.950 . S
C723 C719 1.385 . S
C723 C722 1.374 . S
C724 C721 1.499 . S
C724 C725 1.373 . S
C724 C726 1.389 . S
C725 H704 0.950 . S
C725 C724 1.373 . S
C725 C741 1.377 . S
C726 C724 1.389 . S
C726 C727 1.524 . S
C726 C740 1.377 . S
C727 C726 1.524 . S
C727 C728 1.397 . S
C727 C732 1.363 . S
C728 H705 0.950 . S
C728 C727 1.397 . S
C728 C729 1.334 . S
C729 H706 0.950 . S
C729 C728 1.334 . S
C729 C730 1.287 . S
C730 C729 1.287 . S
C730 C731 1.524 . S
C730 H749 0.913 . S
C731 H707 0.950 . S
C731 C730 1.524 . S
C731 C732 1.415 . S
C732 H708 0.950 . S
C732 C727 1.363 . S
C732 C731 1.415 . S
C733 H709 0.951 . S
C733 C734 1.366 . S
C733 C735 1.388 . S
C734 C733 1.366 . S
C734 C738 1.385 . S
C735 H710 0.951 . S
C735 C733 1.388 . S
C735 C736 1.366 . S
C736 C735 1.366 . S
C736 C737 1.414 . S
C736 C739 1.499 . S
C737 H711 0.950 . S
C737 C736 1.414 . S
C737 C738 1.374 . S
C738 H712 0.950 . S
C738 C734 1.385 . S
C738 C737 1.374 . S
C739 C736 1.499 . S
C739 C740 1.373 . S
C739 C741 1.389 . S
C740 H713 0.950 . S
C740 C726 1.377 . S
C740 C739 1.373 . S
C741 C725 1.377 . S
C741 C739 1.389 . S
C741 C742 1.524 . S
C742 C741 1.524 . S
C742 C743 1.397 . S
C742 C747 1.363 . S
C743 H714 0.950 . S
C743 C742 1.397 . S
C743 C744 1.334 . S
C744 H715 0.950 . S
C744 C743 1.334 . S
C744 C745 1.287 . S
C745 C744 1.287 . S
C745 C746 1.524 . S
C745 H748 0.999 . S
C746 H716 0.950 . S
C746 C745 1.524 . S
C746 C747 1.415 . S
C747 H717 0.950 . S
C747 C742 1.363 . S
C747 C746 1.415 . S
H748 C745 0.999 . S
H749 C730 0.913 . S
H750 C768 0.951 . S
H751 C770 0.951 . S
H752 C772 0.950 . S
H753 C773 0.950 . S
H754 C775 0.950 . S
H755 C778 0.950 . S
H756 C779 0.950 . S
H757 C781 0.950 . S
H758 C782 0.950 . S
H759 C783 0.951 . S
H760 C785 0.951 . S
H761 C787 0.950 1_556 S
H762 C788 0.950 1_556 S
H763 C790 0.950 . S
H764 C793 0.950 1_556 S
H765 C794 0.893 1_556 S
H766 C796 0.950 . S
H767 C797 0.950 . S
C768 H750 0.951 . S
C768 C769 1.366 . S
C768 C770 1.388 . S
C769 C768 1.366 . S
C769 C773 1.385 . S
C770 H751 0.951 . S
C770 C768 1.388 . S
C770 C771 1.366 . S
C771 C770 1.366 . S
C771 C772 1.414 . S
C771 C774 1.499 . S
C772 H752 0.950 . S
C772 C771 1.414 . S
C772 C773 1.374 . S
C773 H753 0.950 . S
C773 C769 1.385 . S
C773 C772 1.374 . S
C774 C771 1.499 . S
C774 C775 1.373 . S
C774 C776 1.389 . S
C775 H754 0.950 . S
C775 C774 1.373 . S
C775 C791 1.377 . S
C776 C774 1.389 . S
C776 C777 1.524 . S
C776 C790 1.377 . S
C777 C776 1.524 . S
C777 C778 1.397 . S
C777 C782 1.363 . S
C778 H755 0.950 . S
C778 C777 1.397 . S
C778 C779 1.334 . S
C779 H756 0.950 . S
C779 C778 1.334 . S
C779 C780 1.287 . S
C780 C779 1.287 . S
C780 C781 1.524 . S
C780 H799 0.913 . S
C781 H757 0.950 . S
C781 C780 1.524 . S
C781 C782 1.415 . S
C782 H758 0.950 . S
C782 C777 1.363 . S
C782 C781 1.415 . S
C783 H759 0.951 . S
C783 C784 1.366 . S
C783 C785 1.388 . S
C784 C783 1.366 . S
C784 C788 1.385 . S
C785 H760 0.951 . S
C785 C783 1.388 . S
C785 C786 1.366 . S
C786 C785 1.366 . S
C786 C787 1.414 . S
C786 C789 1.499 . S
C787 H761 0.950 1_554 S
C787 C786 1.414 . S
C787 C788 1.374 . S
C788 H762 0.950 1_554 S
C788 C784 1.385 . S
C788 C787 1.374 . S
C789 C786 1.499 . S
C789 C790 1.373 . S
C789 C791 1.389 . S
C790 H763 0.950 . S
C790 C776 1.377 . S
C790 C789 1.373 . S
C791 C775 1.377 . S
C791 C789 1.389 . S
C791 C792 1.524 . S
C792 C791 1.524 . S
C792 C793 1.397 . S
C792 C797 1.363 . S
C793 H764 0.950 1_554 S
C793 C792 1.397 . S
C793 C794 1.350 . S
C794 H765 0.893 1_554 S
C794 C793 1.350 . S
C794 C795 1.334 . S
C795 C794 1.334 . S
C795 C796 1.524 . S
C795 H798 0.999 . S
C796 H766 0.950 . S
C796 C795 1.524 . S
C796 C797 1.415 . S
C797 H767 0.950 . S
C797 C792 1.363 . S
C797 C796 1.415 . S
H798 C795 0.999 . S
H799 C780 0.913 . S
H800 C818 0.951 1_554 S
H801 C820 0.951 1_554 S
H802 C822 0.950 . S
H803 C823 0.950 . S
H804 C825 0.950 . S
H805 C828 0.950 . S
H806 C829 0.950 . S
H807 C831 0.950 1_554 S
H808 C832 0.907 1_554 S
H809 C833 0.951 . S
H810 C835 0.951 . S
H811 C837 0.950 . S
H812 C838 0.950 . S
H813 C840 0.950 . S
H814 C843 0.950 . S
H815 C844 0.950 . S
H816 C846 0.950 . S
H817 C847 0.950 . S
C818 H800 0.951 1_556 S
C818 C819 1.366 . S
C818 C820 1.388 . S
C819 C818 1.366 . S
C819 C823 1.385 . S
C820 H801 0.951 1_556 S
C820 C818 1.388 . S
C820 C821 1.366 . S
C821 C820 1.366 . S
C821 C822 1.414 . S
C821 C824 1.499 . S
C822 H802 0.950 . S
C822 C821 1.414 . S
C822 C823 1.374 . S
C823 H803 0.950 . S
C823 C819 1.385 . S
C823 C822 1.374 . S
C824 C821 1.499 . S
C824 C825 1.373 . S
C824 C826 1.389 . S
C825 H804 0.950 . S
C825 C824 1.373 . S
C825 C841 1.377 . S
C826 C824 1.389 . S
C826 C827 1.524 . S
C826 C840 1.377 . S
C827 C826 1.524 . S
C827 C828 1.397 . S
C827 C832 1.397 . S
C828 H805 0.950 . S
C828 C827 1.397 . S
C828 C829 1.334 . S
C829 H806 0.950 . S
C829 C828 1.334 . S
C829 C830 1.287 . S
C830 C829 1.287 . S
C830 C831 1.524 . S
C830 H849 0.913 . S
C831 H807 0.950 1_556 S
C831 C830 1.524 . S
C831 C832 1.425 . S
C832 H808 0.907 1_556 S
C832 C827 1.397 . S
C832 C831 1.425 . S
C833 H809 0.951 . S
C833 C834 1.324 1_556 S
C833 C835 1.388 . S
C834 C833 1.324 1_554 S
C834 C838 1.422 . S
C835 H810 0.951 . S
C835 C833 1.388 . S
C835 C836 1.366 . S
C836 C835 1.366 . S
C836 C837 1.414 1_556 S
C836 C839 1.499 . S
C837 H811 0.950 . S
C837 C836 1.414 1_554 S
C837 C838 1.374 . S
C838 H812 0.950 . S
C838 C834 1.422 . S
C838 C837 1.374 . S
C839 C836 1.499 . S
C839 C840 1.373 . S
C839 C841 1.389 . S
C840 H813 0.950 . S
C840 C826 1.377 . S
C840 C839 1.373 . S
C841 C825 1.377 . S
C841 C839 1.389 . S
C841 C842 1.524 . S
C842 C841 1.524 . S
C842 C843 1.397 1_556 S
C842 C847 1.363 . S
C843 H814 0.950 . S
C843 C842 1.397 1_554 S
C843 C844 1.334 . S
C844 H815 0.950 . S
C844 C843 1.334 . S
C844 C845 1.287 . S
C845 C844 1.287 . S
C845 C846 1.524 1_554 S
C845 H848 0.999 . S
C846 H816 0.950 . S
C846 C845 1.524 1_556 S
C846 C847 1.415 . S
C847 H817 0.950 . S
C847 C842 1.363 . S
C847 C846 1.415 . S
H848 C845 0.999 . S
H849 C830 0.913 . S
H850 C868 0.951 . S
H851 C870 0.951 . S
H852 C872 0.950 . S
H853 C873 0.950 . S
H854 C875 0.950 . S
H855 C878 0.950 . S
H856 C879 0.950 . S
H857 C881 0.950 . S
H858 C882 0.950 . S
H859 C883 0.951 . S
H860 C885 0.951 . S
H861 C887 0.950 . S
H862 C888 0.950 . S
H863 C890 0.950 . S
H864 C893 0.950 . S
H865 C894 0.950 . S
H866 C896 0.950 . S
H867 C897 0.950 . S
C868 H850 0.951 . S
C868 C869 1.366 . S
C868 C870 1.388 . S
C869 C868 1.366 . S
C869 C873 1.385 . S
C870 H851 0.951 . S
C870 C868 1.388 . S
C870 C871 1.366 . S
C871 C870 1.366 . S
C871 C872 1.414 . S
C871 C874 1.499 . S
C872 H852 0.950 . S
C872 C871 1.414 . S
C872 C873 1.374 . S
C873 H853 0.950 . S
C873 C869 1.385 . S
C873 C872 1.374 . S
C874 C871 1.499 . S
C874 C875 1.373 . S
C874 C876 1.389 . S
C875 H854 0.950 . S
C875 C874 1.373 . S
C875 C891 1.377 . S
C876 C874 1.389 . S
C876 C877 1.524 . S
C876 C890 1.377 . S
C877 C876 1.524 . S
C877 C878 1.397 . S
C877 C882 1.363 . S
C878 H855 0.950 . S
C878 C877 1.397 . S
C878 C879 1.334 . S
C879 H856 0.950 . S
C879 C878 1.334 . S
C879 C880 1.287 . S
C880 C879 1.287 . S
C880 C881 1.524 . S
C880 H899 0.913 . S
C881 H857 0.950 . S
C881 C880 1.524 . S
C881 C882 1.415 . S
C882 H858 0.950 . S
C882 C877 1.363 . S
C882 C881 1.415 . S
C883 H859 0.951 . S
C883 C884 1.366 . S
C883 C885 1.388 . S
C884 C883 1.366 . S
C884 C888 1.385 . S
C885 H860 0.951 . S
C885 C883 1.388 . S
C885 C886 1.366 . S
C886 C885 1.366 . S
C886 C887 1.414 . S
C886 C889 1.499 . S
C887 H861 0.950 . S
C887 C886 1.414 . S
C887 C888 1.374 . S
C888 H862 0.950 . S
C888 C884 1.385 . S
C888 C887 1.374 . S
C889 C886 1.499 . S
C889 C890 1.373 . S
C889 C891 1.389 . S
C890 H863 0.950 . S
C890 C876 1.377 . S
C890 C889 1.373 . S
C891 C875 1.377 . S
C891 C889 1.389 . S
C891 C892 1.524 . S
C892 C891 1.524 . S
C892 C893 1.397 . S
C892 C897 1.363 . S
C893 H864 0.950 . S
C893 C892 1.397 . S
C893 C894 1.334 . S
C894 H865 0.950 . S
C894 C893 1.334 . S
C894 C895 1.287 . S
C895 C894 1.287 . S
C895 C896 1.524 . S
C895 H898 0.999 . S
C896 H866 0.950 . S
C896 C895 1.524 . S
C896 C897 1.415 . S
C897 H867 0.950 . S
C897 C892 1.363 . S
C897 C896 1.415 . S
H898 C895 0.999 . S
H899 C880 0.913 . S
H900 C918 0.951 . S
H901 C920 0.951 . S
H902 C922 0.950 . S
H903 C923 0.950 . S
H904 C925 0.950 . S
H905 C928 0.950 . S
H906 C929 0.950 . S
H907 C931 0.950 . S
H908 C932 0.950 . S
H909 C933 0.951 . S
H910 C935 0.951 . S
H911 C937 0.950 . S
H912 C938 0.950 . S
H913 C940 0.950 . S
H914 C943 0.950 . S
H915 C944 0.950 . S
H916 C946 0.950 . S
H917 C947 0.950 . S
C918 H900 0.951 . S
C918 C919 1.366 . S
C918 C920 1.388 . S
C919 C918 1.366 . S
C919 C923 1.385 . S
C920 H901 0.951 . S
C920 C918 1.388 . S
C920 C921 1.366 . S
C921 C920 1.366 . S
C921 C922 1.414 . S
C921 C924 1.499 . S
C922 H902 0.950 . S
C922 C921 1.414 . S
C922 C923 1.374 . S
C923 H903 0.950 . S
C923 C919 1.385 . S
C923 C922 1.374 . S
C924 C921 1.499 . S
C924 C925 1.373 . S
C924 C926 1.389 . S
C925 H904 0.950 . S
C925 C924 1.373 . S
C925 C941 1.377 . S
C926 C924 1.389 . S
C926 C927 1.524 . S
C926 C940 1.377 . S
C927 C926 1.524 . S
C927 C928 1.397 . S
C927 C932 1.363 . S
C928 H905 0.950 . S
C928 C927 1.397 . S
C928 C929 1.334 . S
C929 H906 0.950 . S
C929 C928 1.334 . S
C929 C930 1.287 . S
C930 C929 1.287 . S
C930 C931 1.524 . S
C930 H949 0.913 . S
C931 H907 0.950 . S
C931 C930 1.524 . S
C931 C932 1.415 . S
C932 H908 0.950 . S
C932 C927 1.363 . S
C932 C931 1.415 . S
C933 H909 0.951 . S
C933 C934 1.366 . S
C933 C935 1.388 . S
C934 C933 1.366 . S
C934 C938 1.385 . S
C935 H910 0.951 . S
C935 C933 1.388 . S
C935 C936 1.366 . S
C936 C935 1.366 . S
C936 C937 1.414 . S
C936 C939 1.499 . S
C937 H911 0.950 . S
C937 C936 1.414 . S
C937 C938 1.374 . S
C938 H912 0.950 . S
C938 C934 1.385 . S
C938 C937 1.374 . S
C939 C936 1.499 . S
C939 C940 1.373 . S
C939 C941 1.389 . S
C940 H913 0.950 . S
C940 C926 1.377 . S
C940 C939 1.373 . S
C941 C925 1.377 . S
C941 C939 1.389 . S
C941 C942 1.524 . S
C942 C941 1.524 . S
C942 C943 1.397 . S
C942 C947 1.363 . S
C943 H914 0.950 . S
C943 C942 1.397 . S
C943 C944 1.334 . S
C944 H915 0.950 . S
C944 C943 1.334 . S
C944 C945 1.287 . S
C945 C944 1.287 . S
C945 C946 1.524 . S
C945 H948 0.999 . S
C946 H916 0.950 . S
C946 C945 1.524 . S
C946 C947 1.415 . S
C947 H917 0.950 . S
C947 C942 1.363 . S
C947 C946 1.415 . S
H948 C945 0.999 . S
H949 C930 0.913 . S
H950 C968 0.951 . S
H951 C970 0.951 . S
H952 C972 0.950 . S
H953 C973 0.950 . S
H954 C975 0.950 . S
H955 C978 0.950 . S
H956 C979 0.950 . S
H957 C981 0.950 . S
H958 C982 0.950 . S
H959 C983 0.951 . S
H960 C985 0.951 . S
H961 C987 0.950 . S
H962 C988 0.950 . S
H963 C990 0.950 . S
H964 C993 0.950 . S
H965 C994 0.950 . S
H966 C996 0.950 . S
H967 C997 0.950 . S
C968 H950 0.951 . S
C968 C969 1.366 . S
C968 C970 1.388 . S
C969 C968 1.366 . S
C969 C973 1.385 . S
C970 H951 0.951 . S
C970 C968 1.388 . S
C970 C971 1.366 . S
C971 C970 1.366 . S
C971 C972 1.414 . S
C971 C974 1.499 . S
C972 H952 0.950 . S
C972 C971 1.414 . S
C972 C973 1.374 . S
C973 H953 0.950 . S
C973 C969 1.385 . S
C973 C972 1.374 . S
C974 C971 1.499 . S
C974 C975 1.373 . S
C974 C976 1.389 . S
C975 H954 0.950 . S
C975 C974 1.373 . S
C975 C991 1.377 . S
C976 C974 1.389 . S
C976 C977 1.524 . S
C976 C990 1.377 . S
C977 C976 1.524 . S
C977 C978 1.397 . S
C977 C982 1.363 . S
C978 H955 0.950 . S
C978 C977 1.397 . S
C978 C979 1.334 . S
C979 H956 0.950 . S
C979 C978 1.334 . S
C979 C980 1.287 . S
C980 C979 1.287 . S
C980 C981 1.524 . S
C980 H999 0.913 . S
C981 H957 0.950 . S
C981 C980 1.524 . S
C981 C982 1.415 . S
C982 H958 0.950 . S
C982 C977 1.363 . S
C982 C981 1.415 . S
C983 H959 0.951 . S
C983 C984 1.366 . S
C983 C985 1.388 . S
C984 C983 1.366 . S
C984 C988 1.385 . S
C985 H960 0.951 . S
C985 C983 1.388 . S
C985 C986 1.366 . S
C986 C985 1.366 . S
C986 C987 1.414 . S
C986 C989 1.499 . S
C987 H961 0.950 . S
C987 C986 1.414 . S
C987 C988 1.374 . S
C988 H962 0.950 . S
C988 C984 1.385 . S
C988 C987 1.374 . S
C989 C986 1.499 . S
C989 C990 1.373 . S
C989 C991 1.389 . S
C990 H963 0.950 . S
C990 C976 1.377 . S
C990 C989 1.373 . S
C991 C975 1.377 . S
C991 C989 1.389 . S
C991 C992 1.524 . S
C992 C991 1.524 . S
C992 C993 1.397 . S
C992 C997 1.363 . S
C993 H964 0.950 . S
C993 C992 1.397 . S
C993 C994 1.334 . S
C994 H965 0.950 . S
C994 C993 1.334 . S
C994 C995 1.287 . S
C995 C994 1.287 . S
C995 C996 1.524 . S
C995 H998 0.999 . S
C996 H966 0.950 . S
C996 C995 1.524 . S
C996 C997 1.415 . S
C997 H967 0.950 . S
C997 C992 1.363 . S
C997 C996 1.415 . S
H998 C995 0.999 . S
H999 C980 0.913 . S
H1000 C1018 0.951 . S
H1001 C1020 0.951 . S
H1002 C1022 0.950 . S
H1003 C1023 0.950 . S
H1004 C1025 0.950 . S
H1005 C1028 0.950 . S
H1006 C1029 0.950 . S
H1007 C1031 0.950 . S
H1008 C1032 0.950 . S
H1009 C1033 0.951 . S
H1010 C1035 0.951 . S
H1011 C1037 0.950 . S
H1012 C1038 0.950 . S
H1013 C1040 0.950 . S
H1014 C1043 0.950 . S
H1015 C1044 0.950 . S
H1016 C1046 0.950 . S
H1017 C1047 0.950 . S
C1018 H1000 0.951 . S
C1018 C1019 1.366 . S
C1018 C1020 1.388 . S
C1019 C1018 1.366 . S
C1019 C1023 1.385 . S
C1020 H1001 0.951 . S
C1020 C1018 1.388 . S
C1020 C1021 1.366 . S
C1021 C1020 1.366 . S
C1021 C1022 1.414 . S
C1021 C1024 1.499 . S
C1022 H1002 0.950 . S
C1022 C1021 1.414 . S
C1022 C1023 1.374 . S
C1023 H1003 0.950 . S
C1023 C1019 1.385 . S
C1023 C1022 1.374 . S
C1024 C1021 1.499 . S
C1024 C1025 1.373 . S
C1024 C1026 1.389 . S
C1025 H1004 0.950 . S
C1025 C1024 1.373 . S
C1025 C1041 1.377 . S
C1026 C1024 1.389 . S
C1026 C1027 1.524 . S
C1026 C1040 1.377 . S
C1027 C1026 1.524 . S
C1027 C1028 1.397 . S
C1027 C1032 1.363 . S
C1028 H1005 0.950 . S
C1028 C1027 1.397 . S
C1028 C1029 1.334 . S
C1029 H1006 0.950 . S
C1029 C1028 1.334 . S
C1029 C1030 1.287 . S
C1030 C1029 1.287 . S
C1030 C1031 1.524 . S
C1030 H1049 0.913 . S
C1031 H1007 0.950 . S
C1031 C1030 1.524 . S
C1031 C1032 1.415 . S
C1032 H1008 0.950 . S
C1032 C1027 1.363 . S
C1032 C1031 1.415 . S
C1033 H1009 0.951 . S
C1033 C1034 1.366 . S
C1033 C1035 1.388 . S
C1034 C1033 1.366 . S
C1034 C1038 1.385 . S
C1035 H1010 0.951 . S
C1035 C1033 1.388 . S
C1035 C1036 1.366 . S
C1036 C1035 1.366 . S
C1036 C1037 1.414 . S
C1036 C1039 1.499 . S
C1037 H1011 0.950 . S
C1037 C1036 1.414 . S
C1037 C1038 1.374 . S
C1038 H1012 0.950 . S
C1038 C1034 1.385 . S
C1038 C1037 1.374 . S
C1039 C1036 1.499 . S
C1039 C1040 1.373 . S
C1039 C1041 1.389 . S
C1040 H1013 0.950 . S
C1040 C1026 1.377 . S
C1040 C1039 1.373 . S
C1041 C1025 1.377 . S
C1041 C1039 1.389 . S
C1041 C1042 1.524 . S
C1042 C1041 1.524 . S
C1042 C1043 1.397 . S
C1042 C1047 1.363 . S
C1043 H1014 0.950 . S
C1043 C1042 1.397 . S
C1043 C1044 1.334 . S
C1044 H1015 0.950 . S
C1044 C1043 1.334 . S
C1044 C1045 1.287 . S
C1045 C1044 1.287 . S
C1045 C1046 1.524 . S
C1045 H1048 0.999 . S
C1046 H1016 0.950 . S
C1046 C1045 1.524 . S
C1046 C1047 1.415 . S
C1047 H1017 0.950 . S
C1047 C1042 1.363 . S
C1047 C1046 1.415 . S
H1048 C1045 0.999 . S
H1049 C1030 0.913 . S
H1050 C1068 0.951 . S
H1051 C1070 0.951 . S
H1052 C1072 1.002 . S
H1053 C1073 0.950 . S
H1054 C1075 0.950 . S
H1055 C1078 0.950 . S
H1056 C1079 0.950 . S
H1057 C1081 0.950 . S
H1058 C1082 0.950 . S
H1059 C1083 0.951 1_556 S
H1060 C1085 0.951 1_556 S
H1061 C1087 0.950 . S
H1062 C1088 0.950 . S
H1063 C1090 0.950 . S
H1064 C1093 0.948 1_554 S
H1065 C1094 0.950 . S
H1066 C1096 0.950 . S
H1067 C1097 0.950 . S
C1068 H1050 0.951 . S
C1068 C1069 1.366 . S
C1068 C1070 1.388 . S
C1069 C1068 1.366 . S
C1069 C1073 1.385 . S
C1070 H1051 0.951 . S
C1070 C1068 1.388 . S
C1070 C1071 1.366 . S
C1071 C1070 1.366 . S
C1071 C1072 1.414 . S
C1071 C1074 1.499 . S
C1072 H1052 1.002 . S
C1072 C1071 1.414 . S
C1072 C1073 1.374 . S
C1073 H1053 0.950 . S
C1073 C1069 1.385 . S
C1073 C1072 1.374 . S
C1074 C1071 1.499 . S
C1074 C1075 1.373 . S
C1074 C1076 1.389 . S
C1075 H1054 0.950 . S
C1075 C1074 1.373 . S
C1075 C1091 1.377 . S
C1076 C1074 1.389 . S
C1076 C1077 1.524 . S
C1076 C1090 1.377 . S
C1077 C1076 1.524 . S
C1077 C1078 1.397 . S
C1077 C1082 1.363 . S
C1078 H1055 0.950 . S
C1078 C1077 1.397 . S
C1078 C1079 1.334 . S
C1079 H1056 0.950 . S
C1079 C1078 1.334 . S
C1079 C1080 1.287 . S
C1080 C1079 1.287 . S
C1080 C1081 1.524 . S
C1080 H1099 0.913 . S
C1081 H1057 0.950 . S
C1081 C1080 1.524 . S
C1081 C1082 1.415 . S
C1082 H1058 0.950 . S
C1082 C1077 1.363 . S
C1082 C1081 1.415 . S
C1083 H1059 0.951 1_554 S
C1083 C1084 1.366 . S
C1083 C1085 1.388 . S
C1084 C1083 1.366 . S
C1084 C1088 1.385 . S
C1085 H1060 0.951 1_554 S
C1085 C1083 1.388 . S
C1085 C1086 1.366 . S
C1086 C1085 1.366 . S
C1086 C1087 1.414 . S
C1086 C1089 1.499 . S
C1087 H1061 0.950 . S
C1087 C1086 1.414 . S
C1087 C1088 1.374 . S
C1088 H1062 0.950 . S
C1088 C1084 1.385 . S
C1088 C1087 1.374 . S
C1089 C1086 1.499 . S
C1089 C1090 1.373 . S
C1089 C1091 1.389 . S
C1090 H1063 0.950 . S
C1090 C1076 1.377 . S
C1090 C1089 1.373 . S
C1091 C1075 1.377 . S
C1091 C1089 1.389 . S
C1091 C1092 1.524 1_554 S
C1092 C1091 1.524 1_556 S
C1092 C1093 1.397 . S
C1092 C1097 1.363 . S
C1093 H1064 0.948 1_556 S
C1093 C1092 1.397 . S
C1093 C1094 1.335 . S
C1094 H1065 0.950 . S
C1094 C1093 1.335 . S
C1094 C1095 1.287 . S
C1095 C1094 1.287 . S
C1095 C1096 1.524 . S
C1095 H1098 0.999 . S
C1096 H1066 0.950 . S
C1096 C1095 1.524 . S
C1096 C1097 1.415 . S
C1097 H1067 0.950 . S
C1097 C1092 1.363 . S
C1097 C1096 1.415 . S
H1098 C1095 0.999 . S
H1099 C1080 0.913 . S
H1100 C1118 0.951 . S
H1101 C1120 0.951 . S
H1102 C1122 0.950 . S
H1103 C1123 0.950 . S
H1104 C1125 0.950 . S
H1105 C1128 0.950 . S
H1106 C1129 0.950 . S
H1107 C1131 0.950 . S
H1108 C1132 0.950 . S
H1109 C1133 0.951 . S
H1110 C1135 0.951 . S
H1111 C1137 0.950 . S
H1112 C1138 0.950 . S
H1113 C1140 0.950 . S
H1114 C1143 0.950 . S
H1115 C1144 0.950 . S
H1116 C1146 0.950 . S
H1117 C1147 0.950 . S
C1118 H1100 0.951 . S
C1118 C1119 1.366 . S
C1118 C1120 1.388 . S
C1119 C1118 1.366 . S
C1119 C1123 1.385 . S
C1120 H1101 0.951 . S
C1120 C1118 1.388 . S
C1120 C1121 1.366 . S
C1121 C1120 1.366 . S
C1121 C1122 1.414 . S
C1121 C1124 1.499 . S
C1122 H1102 0.950 . S
C1122 C1121 1.414 . S
C1122 C1123 1.374 . S
C1123 H1103 0.950 . S
C1123 C1119 1.385 . S
C1123 C1122 1.374 . S
C1124 C1121 1.499 . S
C1124 C1125 1.373 . S
C1124 C1126 1.389 . S
C1125 H1104 0.950 . S
C1125 C1124 1.373 . S
C1125 C1141 1.377 . S
C1126 C1124 1.389 . S
C1126 C1127 1.524 . S
C1126 C1140 1.377 . S
C1127 C1126 1.524 . S
C1127 C1128 1.397 . S
C1127 C1132 1.363 . S
C1128 H1105 0.950 . S
C1128 C1127 1.397 . S
C1128 C1129 1.334 . S
C1129 H1106 0.950 . S
C1129 C1128 1.334 . S
C1129 C1130 1.287 . S
C1130 C1129 1.287 . S
C1130 C1131 1.524 . S
C1130 H1149 0.913 . S
C1131 H1107 0.950 . S
C1131 C1130 1.524 . S
C1131 C1132 1.415 . S
C1132 H1108 0.950 . S
C1132 C1127 1.363 . S
C1132 C1131 1.415 . S
C1133 H1109 0.951 . S
C1133 C1134 1.366 . S
C1133 C1135 1.388 . S
C1134 C1133 1.366 . S
C1134 C1138 1.385 . S
C1135 H1110 0.951 . S
C1135 C1133 1.388 . S
C1135 C1136 1.366 . S
C1136 C1135 1.366 . S
C1136 C1137 1.414 . S
C1136 C1139 1.499 . S
C1137 H1111 0.950 . S
C1137 C1136 1.414 . S
C1137 C1138 1.374 . S
C1138 H1112 0.950 . S
C1138 C1134 1.385 . S
C1138 C1137 1.374 . S
C1139 C1136 1.499 . S
C1139 C1140 1.373 . S
C1139 C1141 1.389 . S
C1140 H1113 0.950 . S
C1140 C1126 1.377 . S
C1140 C1139 1.373 . S
C1141 C1125 1.377 . S
C1141 C1139 1.389 . S
C1141 C1142 1.524 . S
C1142 C1141 1.524 . S
C1142 C1143 1.397 . S
C1142 C1147 1.363 . S
C1143 H1114 0.950 . S
C1143 C1142 1.397 . S
C1143 C1144 1.334 . S
C1144 H1115 0.950 . S
C1144 C1143 1.334 . S
C1144 C1145 1.287 . S
C1145 C1144 1.287 . S
C1145 C1146 1.524 . S
C1145 H1148 0.999 . S
C1146 H1116 0.950 . S
C1146 C1145 1.524 . S
C1146 C1147 1.415 . S
C1147 H1117 0.950 . S
C1147 C1142 1.363 . S
C1147 C1146 1.415 . S
H1148 C1145 0.999 . S
H1149 C1130 0.913 . S
H1150 C1168 0.951 . S
H1151 C1170 0.951 . S
H1152 C1172 0.950 . S
H1153 C1173 0.950 . S
H1154 C1175 0.950 . S
H1155 C1178 0.950 . S
H1156 C1179 0.950 . S
H1157 C1181 0.950 . S
H1158 C1182 0.950 . S
H1159 C1183 0.951 . S
H1160 C1185 0.951 . S
H1161 C1187 0.950 . S
H1162 C1188 0.950 . S
H1163 C1190 0.950 . S
H1164 C1193 0.950 . S
H1165 C1194 0.950 . S
H1166 C1196 0.950 . S
H1167 C1197 0.950 . S
C1168 H1150 0.951 . S
C1168 C1169 1.366 . S
C1168 C1170 1.388 . S
C1169 C1168 1.366 . S
C1169 C1173 1.385 . S
C1170 H1151 0.951 . S
C1170 C1168 1.388 . S
C1170 C1171 1.366 . S
C1171 C1170 1.366 . S
C1171 C1172 1.414 . S
C1171 C1174 1.499 . S
C1172 H1152 0.950 . S
C1172 C1171 1.414 . S
C1172 C1173 1.374 . S
C1173 H1153 0.950 . S
C1173 C1169 1.385 . S
C1173 C1172 1.374 . S
C1174 C1171 1.499 . S
C1174 C1175 1.373 . S
C1174 C1176 1.389 . S
C1175 H1154 0.950 . S
C1175 C1174 1.373 . S
C1175 C1191 1.377 . S
C1176 C1174 1.389 . S
C1176 C1177 1.524 . S
C1176 C1190 1.377 . S
C1177 C1176 1.524 . S
C1177 C1178 1.397 . S
C1177 C1182 1.363 . S
C1178 H1155 0.950 . S
C1178 C1177 1.397 . S
C1178 C1179 1.334 . S
C1179 H1156 0.950 . S
C1179 C1178 1.334 . S
C1179 C1180 1.287 . S
C1180 C1179 1.287 . S
C1180 C1181 1.524 . S
C1180 H1199 0.913 . S
C1181 H1157 0.950 . S
C1181 C1180 1.524 . S
C1181 C1182 1.415 . S
C1182 H1158 0.950 . S
C1182 C1177 1.363 . S
C1182 C1181 1.415 . S
C1183 H1159 0.951 . S
C1183 C1184 1.366 . S
C1183 C1185 1.388 . S
C1184 C1183 1.366 . S
C1184 C1188 1.385 . S
C1185 H1160 0.951 . S
C1185 C1183 1.388 . S
C1185 C1186 1.366 . S
C1186 C1185 1.366 . S
C1186 C1187 1.414 . S
C1186 C1189 1.499 . S
C1187 H1161 0.950 . S
C1187 C1186 1.414 . S
C1187 C1188 1.374 . S
C1188 H1162 0.950 . S
C1188 C1184 1.385 . S
C1188 C1187 1.374 . S
C1189 C1186 1.499 . S
C1189 C1190 1.373 . S
C1189 C1191 1.389 . S
C1190 H1163 0.950 . S
C1190 C1176 1.377 . S
C1190 C1189 1.373 . S
C1191 C1175 1.377 . S
C1191 C1189 1.389 . S
C1191 C1192 1.524 . S
C1192 C1191 1.524 . S
C1192 C1193 1.397 . S
C1192 C1197 1.363 . S
C1193 H1164 0.950 . S
C1193 C1192 1.397 . S
C1193 C1194 1.334 . S
C1194 H1165 0.950 . S
C1194 C1193 1.334 . S
C1194 C1195 1.287 . S
C1195 C1194 1.287 . S
C1195 C1196 1.524 . S
C1195 H1198 0.999 . S
C1196 H1166 0.950 . S
C1196 C1195 1.524 . S
C1196 C1197 1.415 . S
C1197 H1167 0.950 . S
C1197 C1192 1.363 . S
C1197 C1196 1.415 . S
H1198 C1195 0.999 . S
H1199 C1180 0.913 . S
H1200 C1218 0.951 . S
H1201 C1220 0.951 . S
H1202 C1222 0.950 . S
H1203 C1223 0.950 . S
H1204 C1225 0.950 . S
H1205 C1228 0.950 . S
H1206 C1229 0.950 . S
H1207 C1231 0.950 . S
H1208 C1232 0.950 . S
H1209 C1233 0.951 . S
H1210 C1235 0.951 . S
H1211 C1237 0.950 . S
H1212 C1238 0.950 . S
H1213 C1240 0.950 . S
H1214 C1243 0.950 . S
H1215 C1244 0.950 . S
H1216 C1246 0.950 . S
H1217 C1247 0.950 . S
C1218 H1200 0.951 . S
C1218 C1219 1.366 . S
C1218 C1220 1.388 . S
C1219 C1218 1.366 . S
C1219 C1223 1.385 . S
C1220 H1201 0.951 . S
C1220 C1218 1.388 . S
C1220 C1221 1.366 . S
C1221 C1220 1.366 . S
C1221 C1222 1.414 . S
C1221 C1224 1.499 . S
C1222 H1202 0.950 . S
C1222 C1221 1.414 . S
C1222 C1223 1.374 . S
C1223 H1203 0.950 . S
C1223 C1219 1.385 . S
C1223 C1222 1.374 . S
C1224 C1221 1.499 . S
C1224 C1225 1.373 . S
C1224 C1226 1.389 . S
C1225 H1204 0.950 . S
C1225 C1224 1.373 . S
C1225 C1241 1.377 . S
C1226 C1224 1.389 . S
C1226 C1227 1.524 . S
C1226 C1240 1.377 . S
C1227 C1226 1.524 . S
C1227 C1228 1.397 . S
C1227 C1232 1.363 . S
C1228 H1205 0.950 . S
C1228 C1227 1.397 . S
C1228 C1229 1.334 . S
C1229 H1206 0.950 . S
C1229 C1228 1.334 . S
C1229 C1230 1.287 . S
C1230 C1229 1.287 . S
C1230 C1231 1.524 . S
C1230 H1249 0.913 . S
C1231 H1207 0.950 . S
C1231 C1230 1.524 . S
C1231 C1232 1.415 . S
C1232 H1208 0.950 . S
C1232 C1227 1.363 . S
C1232 C1231 1.415 . S
C1233 H1209 0.951 . S
C1233 C1234 1.366 . S
C1233 C1235 1.388 . S
C1234 C1233 1.366 . S
C1234 C1238 1.385 . S
C1235 H1210 0.951 . S
C1235 C1233 1.388 . S
C1235 C1236 1.366 . S
C1236 C1235 1.366 . S
C1236 C1237 1.414 . S
C1236 C1239 1.499 . S
C1237 H1211 0.950 . S
C1237 C1236 1.414 . S
C1237 C1238 1.374 . S
C1238 H1212 0.950 . S
C1238 C1234 1.385 . S
C1238 C1237 1.374 . S
C1239 C1236 1.499 . S
C1239 C1240 1.373 . S
C1239 C1241 1.389 . S
C1240 H1213 0.950 . S
C1240 C1226 1.377 . S
C1240 C1239 1.373 . S
C1241 C1225 1.377 . S
C1241 C1239 1.389 . S
C1241 C1242 1.524 . S
C1242 C1241 1.524 . S
C1242 C1243 1.397 . S
C1242 C1247 1.363 . S
C1243 H1214 0.950 . S
C1243 C1242 1.397 . S
C1243 C1244 1.334 . S
C1244 H1215 0.950 . S
C1244 C1243 1.334 . S
C1244 C1245 1.287 . S
C1245 C1244 1.287 . S
C1245 C1246 1.524 . S
C1245 H1248 0.999 . S
C1246 H1216 0.950 . S
C1246 C1245 1.524 . S
C1246 C1247 1.415 . S
C1247 H1217 0.950 . S
C1247 C1242 1.363 . S
C1247 C1246 1.415 . S
H1248 C1245 0.999 . S
H1249 C1230 0.913 . S
H1250 C1268 0.951 . S
H1251 C1270 0.951 . S
H1252 C1272 0.950 . S
H1253 C1273 0.950 . S
H1254 C1275 0.950 . S
H1255 C1278 0.950 . S
H1256 C1279 0.950 . S
H1257 C1281 0.950 . S
H1258 C1282 0.950 . S
H1259 C1283 0.951 . S
H1260 C1285 0.951 . S
H1261 C1287 0.950 . S
H1262 C1288 0.950 . S
H1263 C1290 0.950 . S
H1264 C1293 0.950 . S
H1265 C1294 0.950 . S
H1266 C1296 0.950 . S
H1267 C1297 0.950 . S
C1268 H1250 0.951 . S
C1268 C1269 1.366 . S
C1268 C1270 1.388 . S
C1269 C1268 1.366 . S
C1269 C1273 1.385 . S
C1270 H1251 0.951 . S
C1270 C1268 1.388 . S
C1270 C1271 1.366 . S
C1271 C1270 1.366 . S
C1271 C1272 1.414 . S
C1271 C1274 1.499 . S
C1272 H1252 0.950 . S
C1272 C1271 1.414 . S
C1272 C1273 1.374 . S
C1273 H1253 0.950 . S
C1273 C1269 1.385 . S
C1273 C1272 1.374 . S
C1274 C1271 1.499 . S
C1274 C1275 1.373 . S
C1274 C1276 1.389 . S
C1275 H1254 0.950 . S
C1275 C1274 1.373 . S
C1275 C1291 1.377 . S
C1276 C1274 1.389 . S
C1276 C1277 1.524 . S
C1276 C1290 1.377 . S
C1277 C1276 1.524 . S
C1277 C1278 1.397 . S
C1277 C1282 1.363 . S
C1278 H1255 0.950 . S
C1278 C1277 1.397 . S
C1278 C1279 1.334 . S
C1279 H1256 0.950 . S
C1279 C1278 1.334 . S
C1279 C1280 1.287 . S
C1280 C1279 1.287 . S
C1280 C1281 1.524 . S
C1280 H1299 0.913 . S
C1281 H1257 0.950 . S
C1281 C1280 1.524 . S
C1281 C1282 1.415 . S
C1282 H1258 0.950 . S
C1282 C1277 1.363 . S
C1282 C1281 1.415 . S
C1283 H1259 0.951 . S
C1283 C1284 1.366 . S
C1283 C1285 1.388 . S
C1284 C1283 1.366 . S
C1284 C1288 1.385 . S
C1285 H1260 0.951 . S
C1285 C1283 1.388 . S
C1285 C1286 1.366 . S
C1286 C1285 1.366 . S
C1286 C1287 1.414 . S
C1286 C1289 1.499 . S
C1287 H1261 0.950 . S
C1287 C1286 1.414 . S
C1287 C1288 1.374 . S
C1288 H1262 0.950 . S
C1288 C1284 1.385 . S
C1288 C1287 1.374 . S
C1289 C1286 1.499 . S
C1289 C1290 1.373 . S
C1289 C1291 1.389 . S
C1290 H1263 0.950 . S
C1290 C1276 1.377 . S
C1290 C1289 1.373 . S
C1291 C1275 1.377 . S
C1291 C1289 1.389 . S
C1291 C1292 1.524 . S
C1292 C1291 1.524 . S
C1292 C1293 1.397 . S
C1292 C1297 1.363 . S
C1293 H1264 0.950 . S
C1293 C1292 1.397 . S
C1293 C1294 1.334 . S
C1294 H1265 0.950 . S
C1294 C1293 1.334 . S
C1294 C1295 1.287 . S
C1295 C1294 1.287 . S
C1295 C1296 1.524 . S
C1295 H1298 0.999 . S
C1296 H1266 0.950 . S
C1296 C1295 1.524 . S
C1296 C1297 1.415 . S
C1297 H1267 0.950 . S
C1297 C1292 1.363 . S
C1297 C1296 1.415 . S
H1298 C1295 0.999 . S
H1299 C1280 0.913 . S
H1300 C1318 0.951 . S
H1301 C1320 0.951 . S
H1302 C1322 0.950 . S
H1303 C1323 0.950 . S
H1304 C1325 0.961 . S
H1305 C1328 0.950 . S
H1306 C1329 0.950 . S
H1307 C1331 0.950 . S
H1308 C1332 0.950 . S
H1309 C1333 0.951 . S
H1310 C1335 0.951 . S
H1311 C1337 0.959 . S
H1312 C1338 0.950 . S
H1313 C1340 0.950 . S
H1314 C1343 0.950 . S
H1315 C1344 0.950 . S
H1316 C1346 0.950 . S
H1317 C1347 0.950 . S
C1318 H1300 0.951 . S
C1318 C1319 1.366 . S
C1318 C1320 1.388 . S
C1319 C1318 1.366 . S
C1319 C1323 1.385 . S
C1320 H1301 0.951 . S
C1320 C1318 1.388 . S
C1320 C1321 1.366 . S
C1321 C1320 1.366 . S
C1321 C1322 1.414 . S
C1321 C1324 1.499 . S
C1322 H1302 0.950 . S
C1322 C1321 1.414 . S
C1322 C1323 1.374 . S
C1323 H1303 0.950 . S
C1323 C1319 1.385 . S
C1323 C1322 1.374 . S
C1324 C1321 1.499 . S
C1324 C1325 1.359 1_556 S
C1324 C1326 1.389 . S
C1325 H1304 0.961 . S
C1325 C1324 1.359 1_554 S
C1325 C1341 1.381 . S
C1326 C1324 1.389 . S
C1326 C1327 1.524 . S
C1326 C1340 1.377 . S
C1327 C1326 1.524 . S
C1327 C1328 1.397 . S
C1327 C1332 1.363 . S
C1328 H1305 0.950 . S
C1328 C1327 1.397 . S
C1328 C1329 1.334 . S
C1329 H1306 0.950 . S
C1329 C1328 1.334 . S
C1329 C1330 1.287 . S
C1330 C1329 1.287 . S
C1330 C1331 1.524 . S
C1330 H1349 0.913 . S
C1331 H1307 0.950 . S
C1331 C1330 1.524 . S
C1331 C1332 1.415 . S
C1332 H1308 0.950 . S
C1332 C1327 1.363 . S
C1332 C1331 1.415 . S
C1333 H1309 0.951 . S
C1333 C1334 1.355 1_556 S
C1333 C1335 1.388 . S
C1334 C1333 1.355 1_554 S
C1334 C1338 1.392 . S
C1335 H1310 0.951 . S
C1335 C1333 1.388 . S
C1335 C1336 1.366 . S
C1336 C1335 1.366 . S
C1336 C1337 1.402 1_556 S
C1336 C1339 1.499 . S
C1337 H1311 0.959 . S
C1337 C1336 1.402 1_554 S
C1337 C1338 1.383 . S
C1338 H1312 0.950 . S
C1338 C1334 1.392 . S
C1338 C1337 1.383 . S
C1339 C1336 1.499 . S
C1339 C1340 1.373 . S
C1339 C1341 1.389 1_556 S
C1340 H1313 0.950 . S
C1340 C1326 1.377 . S
C1340 C1339 1.373 . S
C1341 C1325 1.381 . S
C1341 C1339 1.389 1_554 S
C1341 C1342 1.524 . S
C1342 C1341 1.524 . S
C1342 C1343 1.397 . S
C1342 C1347 1.363 . S
C1343 H1314 0.950 . S
C1343 C1342 1.397 . S
C1343 C1344 1.334 . S
C1344 H1315 0.950 . S
C1344 C1343 1.334 . S
C1344 C1345 1.287 . S
C1345 C1344 1.287 . S
C1345 C1346 1.524 . S
C1345 H1348 0.999 . S
C1346 H1316 0.950 . S
C1346 C1345 1.524 . S
C1346 C1347 1.415 . S
C1347 H1317 0.950 . S
C1347 C1342 1.363 . S
C1347 C1346 1.415 . S
H1348 C1345 0.999 . S
H1349 C1330 0.913 . S
H1350 C1368 0.951 . S
H1351 C1370 0.951 . S
H1352 C1372 0.950 . S
H1353 C1373 0.950 . S
H1354 C1375 0.950 . S
H1355 C1378 0.950 . S
H1356 C1379 0.950 . S
H1357 C1381 0.950 . S
H1358 C1382 0.950 . S
H1359 C1383 0.951 . S
H1360 C1385 0.951 . S
H1361 C1387 0.950 . S
H1362 C1388 0.950 . S
H1363 C1390 0.950 . S
H1364 C1393 0.950 . S
H1365 C1394 0.950 . S
H1366 C1396 0.950 . S
H1367 C1397 0.950 . S
C1368 H1350 0.951 . S
C1368 C1369 1.366 . S
C1368 C1370 1.388 . S
C1369 C1368 1.366 . S
C1369 C1373 1.385 . S
C1370 H1351 0.951 . S
C1370 C1368 1.388 . S
C1370 C1371 1.366 . S
C1371 C1370 1.366 . S
C1371 C1372 1.414 . S
C1371 C1374 1.499 . S
C1372 H1352 0.950 . S
C1372 C1371 1.414 . S
C1372 C1373 1.374 . S
C1373 H1353 0.950 . S
C1373 C1369 1.385 . S
C1373 C1372 1.374 . S
C1374 C1371 1.499 . S
C1374 C1375 1.373 . S
C1374 C1376 1.389 . S
C1375 H1354 0.950 . S
C1375 C1374 1.373 . S
C1375 C1391 1.377 . S
C1376 C1374 1.389 . S
C1376 C1377 1.524 . S
C1376 C1390 1.377 . S
C1377 C1376 1.524 . S
C1377 C1378 1.397 . S
C1377 C1382 1.363 . S
C1378 H1355 0.950 . S
C1378 C1377 1.397 . S
C1378 C1379 1.334 . S
C1379 H1356 0.950 . S
C1379 C1378 1.334 . S
C1379 C1380 1.287 . S
C1380 C1379 1.287 . S
C1380 C1381 1.524 . S
C1380 H1399 0.913 . S
C1381 H1357 0.950 . S
C1381 C1380 1.524 . S
C1381 C1382 1.415 . S
C1382 H1358 0.950 . S
C1382 C1377 1.363 . S
C1382 C1381 1.415 . S
C1383 H1359 0.951 . S
C1383 C1384 1.366 . S
C1383 C1385 1.388 . S
C1384 C1383 1.366 . S
C1384 C1388 1.385 . S
C1385 H1360 0.951 . S
C1385 C1383 1.388 . S
C1385 C1386 1.366 . S
C1386 C1385 1.366 . S
C1386 C1387 1.414 . S
C1386 C1389 1.499 . S
C1387 H1361 0.950 . S
C1387 C1386 1.414 . S
C1387 C1388 1.374 . S
C1388 H1362 0.950 . S
C1388 C1384 1.385 . S
C1388 C1387 1.374 . S
C1389 C1386 1.499 . S
C1389 C1390 1.373 . S
C1389 C1391 1.389 . S
C1390 H1363 0.950 . S
C1390 C1376 1.377 . S
C1390 C1389 1.373 . S
C1391 C1375 1.377 . S
C1391 C1389 1.389 . S
C1391 C1392 1.524 . S
C1392 C1391 1.524 . S
C1392 C1393 1.397 . S
C1392 C1397 1.363 . S
C1393 H1364 0.950 . S
C1393 C1392 1.397 . S
C1393 C1394 1.334 . S
C1394 H1365 0.950 . S
C1394 C1393 1.334 . S
C1394 C1395 1.287 . S
C1395 C1394 1.287 . S
C1395 C1396 1.524 . S
C1395 H1398 0.999 . S
C1396 H1366 0.950 . S
C1396 C1395 1.524 . S
C1396 C1397 1.415 . S
C1397 H1367 0.950 . S
C1397 C1392 1.363 . S
C1397 C1396 1.415 . S
H1398 C1395 0.999 . S
H1399 C1380 0.913 . S
H1400 C1418 0.951 . S
H1401 C1420 0.951 . S
H1402 C1422 0.950 . S
H1403 C1423 0.950 . S
H1404 C1425 0.950 . S
H1405 C1428 0.950 . S
H1406 C1429 0.950 . S
H1407 C1431 0.950 . S
H1408 C1432 0.950 . S
H1409 C1433 0.951 . S
H1410 C1435 0.951 . S
H1411 C1437 0.950 . S
H1412 C1438 0.950 . S
H1413 C1440 0.950 . S
H1414 C1443 0.950 . S
H1415 C1444 0.950 . S
H1416 C1446 0.950 . S
H1417 C1447 0.950 . S
C1418 H1400 0.951 . S
C1418 C1419 1.366 . S
C1418 C1420 1.388 . S
C1419 C1418 1.366 . S
C1419 C1423 1.385 . S
C1420 H1401 0.951 . S
C1420 C1418 1.388 . S
C1420 C1421 1.366 . S
C1421 C1420 1.366 . S
C1421 C1422 1.414 . S
C1421 C1424 1.499 . S
C1422 H1402 0.950 . S
C1422 C1421 1.414 . S
C1422 C1423 1.374 . S
C1423 H1403 0.950 . S
C1423 C1419 1.385 . S
C1423 C1422 1.374 . S
C1424 C1421 1.499 . S
C1424 C1425 1.373 . S
C1424 C1426 1.389 . S
C1425 H1404 0.950 . S
C1425 C1424 1.373 . S
C1425 C1441 1.377 . S
C1426 C1424 1.389 . S
C1426 C1427 1.524 . S
C1426 C1440 1.377 . S
C1427 C1426 1.524 . S
C1427 C1428 1.397 . S
C1427 C1432 1.363 . S
C1428 H1405 0.950 . S
C1428 C1427 1.397 . S
C1428 C1429 1.334 . S
C1429 H1406 0.950 . S
C1429 C1428 1.334 . S
C1429 C1430 1.287 . S
C1430 C1429 1.287 . S
C1430 C1431 1.524 . S
C1430 H1449 0.913 . S
C1431 H1407 0.950 . S
C1431 C1430 1.524 . S
C1431 C1432 1.415 . S
C1432 H1408 0.950 . S
C1432 C1427 1.363 . S
C1432 C1431 1.415 . S
C1433 H1409 0.951 . S
C1433 C1434 1.366 . S
C1433 C1435 1.388 . S
C1434 C1433 1.366 . S
C1434 C1438 1.385 . S
C1435 H1410 0.951 . S
C1435 C1433 1.388 . S
C1435 C1436 1.366 . S
C1436 C1435 1.366 . S
C1436 C1437 1.414 . S
C1436 C1439 1.499 . S
C1437 H1411 0.950 . S
C1437 C1436 1.414 . S
C1437 C1438 1.374 . S
C1438 H1412 0.950 . S
C1438 C1434 1.385 . S
C1438 C1437 1.374 . S
C1439 C1436 1.499 . S
C1439 C1440 1.373 . S
C1439 C1441 1.389 . S
C1440 H1413 0.950 . S
C1440 C1426 1.377 . S
C1440 C1439 1.373 . S
C1441 C1425 1.377 . S
C1441 C1439 1.389 . S
C1441 C1442 1.524 . S
C1442 C1441 1.524 . S
C1442 C1443 1.397 . S
C1442 C1447 1.363 . S
C1443 H1414 0.950 . S
C1443 C1442 1.397 . S
C1443 C1444 1.334 . S
C1444 H1415 0.950 . S
C1444 C1443 1.334 . S
C1444 C1445 1.287 . S
C1445 C1444 1.287 . S
C1445 C1446 1.524 . S
C1445 H1448 0.999 . S
C1446 H1416 0.950 . S
C1446 C1445 1.524 . S
C1446 C1447 1.415 . S
C1447 H1417 0.950 . S
C1447 C1442 1.363 . S
C1447 C1446 1.415 . S
H1448 C1445 0.999 . S
H1449 C1430 0.913 . S
H1450 C1468 0.951 . S
H1451 C1470 0.951 . S
H1452 C1472 0.950 . S
H1453 C1473 0.950 . S
H1454 C1475 0.950 . S
H1455 C1478 0.950 . S
H1456 C1479 0.950 . S
H1457 C1481 0.950 . S
H1458 C1482 0.950 . S
H1459 C1483 0.951 . S
H1460 C1485 0.951 . S
H1461 C1487 0.950 . S
H1462 C1488 0.950 . S
H1463 C1490 0.950 . S
H1464 C1493 0.950 . S
H1465 C1494 0.950 . S
H1466 C1496 0.950 . S
H1467 C1497 0.950 . S
C1468 H1450 0.951 . S
C1468 C1469 1.366 . S
C1468 C1470 1.388 . S
C1469 C1468 1.366 . S
C1469 C1473 1.385 . S
C1470 H1451 0.951 . S
C1470 C1468 1.388 . S
C1470 C1471 1.366 . S
C1471 C1470 1.366 . S
C1471 C1472 1.414 . S
C1471 C1474 1.499 . S
C1472 H1452 0.950 . S
C1472 C1471 1.414 . S
C1472 C1473 1.374 . S
C1473 H1453 0.950 . S
C1473 C1469 1.385 . S
C1473 C1472 1.374 . S
C1474 C1471 1.499 . S
C1474 C1475 1.373 . S
C1474 C1476 1.389 . S
C1475 H1454 0.950 . S
C1475 C1474 1.373 . S
C1475 C1491 1.377 . S
C1476 C1474 1.389 . S
C1476 C1477 1.524 . S
C1476 C1490 1.377 . S
C1477 C1476 1.524 . S
C1477 C1478 1.397 . S
C1477 C1482 1.363 . S
C1478 H1455 0.950 . S
C1478 C1477 1.397 . S
C1478 C1479 1.334 . S
C1479 H1456 0.950 . S
C1479 C1478 1.334 . S
C1479 C1480 1.287 . S
C1480 C1479 1.287 . S
C1480 C1481 1.524 . S
C1480 H1499 0.913 . S
C1481 H1457 0.950 . S
C1481 C1480 1.524 . S
C1481 C1482 1.415 . S
C1482 H1458 0.950 . S
C1482 C1477 1.363 . S
C1482 C1481 1.415 . S
C1483 H1459 0.951 . S
C1483 C1484 1.366 . S
C1483 C1485 1.388 . S
C1484 C1483 1.366 . S
C1484 C1488 1.385 . S
C1485 H1460 0.951 . S
C1485 C1483 1.388 . S
C1485 C1486 1.366 . S
C1486 C1485 1.366 . S
C1486 C1487 1.414 . S
C1486 C1489 1.499 . S
C1487 H1461 0.950 . S
C1487 C1486 1.414 . S
C1487 C1488 1.374 . S
C1488 H1462 0.950 . S
C1488 C1484 1.385 . S
C1488 C1487 1.374 . S
C1489 C1486 1.499 . S
C1489 C1490 1.373 . S
C1489 C1491 1.389 . S
C1490 H1463 0.950 . S
C1490 C1476 1.377 . S
C1490 C1489 1.373 . S
C1491 C1475 1.377 . S
C1491 C1489 1.389 . S
C1491 C1492 1.524 . S
C1492 C1491 1.524 . S
C1492 C1493 1.397 . S
C1492 C1497 1.363 . S
C1493 H1464 0.950 . S
C1493 C1492 1.397 . S
C1493 C1494 1.334 . S
C1494 H1465 0.950 . S
C1494 C1493 1.334 . S
C1494 C1495 1.287 . S
C1495 C1494 1.287 . S
C1495 C1496 1.524 . S
C1495 H1498 0.999 . S
C1496 H1466 0.950 . S
C1496 C1495 1.524 . S
C1496 C1497 1.415 . S
C1497 H1467 0.950 . S
C1497 C1492 1.363 . S
C1497 C1496 1.415 . S
H1498 C1495 0.999 . S
H1499 C1480 0.913 . S
H1500 C1518 0.951 . S
H1501 C1520 0.951 . S
H1502 C1522 0.950 . S
H1503 C1523 0.950 . S
H1504 C1525 0.950 . S
H1505 C1528 0.950 . S
H1506 C1529 0.950 . S
H1507 C1531 0.950 . S
H1508 C1532 0.950 . S
H1509 C1533 0.951 . S
H1510 C1535 0.951 . S
H1511 C1537 0.950 . S
H1512 C1538 0.950 . S
H1513 C1540 0.950 . S
H1514 C1543 0.950 . S
H1515 C1544 0.950 . S
H1516 C1546 0.950 . S
H1517 C1547 0.950 . S
C1518 H1500 0.951 . S
C1518 C1519 1.366 . S
C1518 C1520 1.388 . S
C1519 C1518 1.366 . S
C1519 C1523 1.385 . S
C1520 H1501 0.951 . S
C1520 C1518 1.388 . S
C1520 C1521 1.366 . S
C1521 C1520 1.366 . S
C1521 C1522 1.414 . S
C1521 C1524 1.499 . S
C1522 H1502 0.950 . S
C1522 C1521 1.414 . S
C1522 C1523 1.374 . S
C1523 H1503 0.950 . S
C1523 C1519 1.385 . S
C1523 C1522 1.374 . S
C1524 C1521 1.499 . S
C1524 C1525 1.373 . S
C1524 C1526 1.389 . S
C1525 H1504 0.950 . S
C1525 C1524 1.373 . S
C1525 C1541 1.377 . S
C1526 C1524 1.389 . S
C1526 C1527 1.524 . S
C1526 C1540 1.377 . S
C1527 C1526 1.524 . S
C1527 C1528 1.397 . S
C1527 C1532 1.363 . S
C1528 H1505 0.950 . S
C1528 C1527 1.397 . S
C1528 C1529 1.334 . S
C1529 H1506 0.950 . S
C1529 C1528 1.334 . S
C1529 C1530 1.287 . S
C1530 C1529 1.287 . S
C1530 C1531 1.524 . S
C1530 H1549 0.913 . S
C1531 H1507 0.950 . S
C1531 C1530 1.524 . S
C1531 C1532 1.415 . S
C1532 H1508 0.950 . S
C1532 C1527 1.363 . S
C1532 C1531 1.415 . S
C1533 H1509 0.951 . S
C1533 C1534 1.366 . S
C1533 C1535 1.388 . S
C1534 C1533 1.366 . S
C1534 C1538 1.385 . S
C1535 H1510 0.951 . S
C1535 C1533 1.388 . S
C1535 C1536 1.366 . S
C1536 C1535 1.366 . S
C1536 C1537 1.414 . S
C1536 C1539 1.499 . S
C1537 H1511 0.950 . S
C1537 C1536 1.414 . S
C1537 C1538 1.374 . S
C1538 H1512 0.950 . S
C1538 C1534 1.385 . S
C1538 C1537 1.374 . S
C1539 C1536 1.499 . S
C1539 C1540 1.373 . S
C1539 C1541 1.389 . S
C1540 H1513 0.950 . S
C1540 C1526 1.377 . S
C1540 C1539 1.373 . S
C1541 C1525 1.377 . S
C1541 C1539 1.389 . S
C1541 C1542 1.524 . S
C1542 C1541 1.524 . S
C1542 C1543 1.397 . S
C1542 C1547 1.363 . S
C1543 H1514 0.950 . S
C1543 C1542 1.397 . S
C1543 C1544 1.334 . S
C1544 H1515 0.950 . S
C1544 C1543 1.334 . S
C1544 C1545 1.287 . S
C1545 C1544 1.287 . S
C1545 C1546 1.524 . S
C1545 H1548 0.999 . S
C1546 H1516 0.950 . S
C1546 C1545 1.524 . S
C1546 C1547 1.415 . S
C1547 H1517 0.950 . S
C1547 C1542 1.363 . S
C1547 C1546 1.415 . S
H1548 C1545 0.999 . S
H1549 C1530 0.913 . S
H1550 C1568 0.951 . S
H1551 C1570 0.951 . S
H1552 C1572 0.950 . S
H1553 C1573 0.950 . S
H1554 C1575 0.950 . S
H1555 C1578 0.950 . S
H1556 C1579 0.950 . S
H1557 C1581 0.950 . S
H1558 C1582 0.950 . S
H1559 C1583 0.951 . S
H1560 C1585 0.951 . S
H1561 C1587 0.950 . S
H1562 C1588 0.950 . S
H1563 C1590 0.950 . S
H1564 C1593 0.950 . S
H1565 C1594 0.950 . S
H1566 C1596 0.950 . S
H1567 C1597 0.950 . S
C1568 H1550 0.951 . S
C1568 C1569 1.366 . S
C1568 C1570 1.388 . S
C1569 C1568 1.366 . S
C1569 C1573 1.385 . S
C1570 H1551 0.951 . S
C1570 C1568 1.388 . S
C1570 C1571 1.366 . S
C1571 C1570 1.366 . S
C1571 C1572 1.414 . S
C1571 C1574 1.499 . S
C1572 H1552 0.950 . S
C1572 C1571 1.414 . S
C1572 C1573 1.374 . S
C1573 H1553 0.950 . S
C1573 C1569 1.385 . S
C1573 C1572 1.374 . S
C1574 C1571 1.499 . S
C1574 C1575 1.373 . S
C1574 C1576 1.389 . S
C1575 H1554 0.950 . S
C1575 C1574 1.373 . S
C1575 C1591 1.377 . S
C1576 C1574 1.389 . S
C1576 C1577 1.524 . S
C1576 C1590 1.377 . S
C1577 C1576 1.524 . S
C1577 C1578 1.397 . S
C1577 C1582 1.363 . S
C1578 H1555 0.950 . S
C1578 C1577 1.397 . S
C1578 C1579 1.334 . S
C1579 H1556 0.950 . S
C1579 C1578 1.334 . S
C1579 C1580 1.287 . S
C1580 C1579 1.287 . S
C1580 C1581 1.524 . S
C1580 H1599 0.913 . S
C1581 H1557 0.950 . S
C1581 C1580 1.524 . S
C1581 C1582 1.415 . S
C1582 H1558 0.950 . S
C1582 C1577 1.363 . S
C1582 C1581 1.415 . S
C1583 H1559 0.951 . S
C1583 C1584 1.366 . S
C1583 C1585 1.388 . S
C1584 C1583 1.366 . S
C1584 C1588 1.385 . S
C1585 H1560 0.951 . S
C1585 C1583 1.388 . S
C1585 C1586 1.366 . S
C1586 C1585 1.366 . S
C1586 C1587 1.414 . S
C1586 C1589 1.499 . S
C1587 H1561 0.950 . S
C1587 C1586 1.414 . S
C1587 C1588 1.374 . S
C1588 H1562 0.950 . S
C1588 C1584 1.385 . S
C1588 C1587 1.374 . S
C1589 C1586 1.499 . S
C1589 C1590 1.373 . S
C1589 C1591 1.389 . S
C1590 H1563 0.950 . S
C1590 C1576 1.377 . S
C1590 C1589 1.373 . S
C1591 C1575 1.377 . S
C1591 C1589 1.389 . S
C1591 C1592 1.524 . S
C1592 C1591 1.524 . S
C1592 C1593 1.397 . S
C1592 C1597 1.363 . S
C1593 H1564 0.950 . S
C1593 C1592 1.397 . S
C1593 C1594 1.334 . S
C1594 H1565 0.950 . S
C1594 C1593 1.334 . S
C1594 C1595 1.287 . S
C1595 C1594 1.287 . S
C1595 C1596 1.524 . S
C1595 H1598 0.999 . S
C1596 H1566 0.950 . S
C1596 C1595 1.524 . S
C1596 C1597 1.415 . S
C1597 H1567 0.950 . S
C1597 C1592 1.363 . S
C1597 C1596 1.415 . S
H1598 C1595 0.999 . S
H1599 C1580 0.913 . S
H1600 C1618 0.951 . S
H1601 C1620 0.951 . S
H1602 C1622 0.950 . S
H1603 C1623 0.950 . S
H1604 C1625 0.950 . S
H1605 C1628 0.950 . S
H1606 C1629 0.950 . S
H1607 C1631 0.950 . S
H1608 C1632 0.950 . S
H1609 C1633 0.951 . S
H1610 C1635 0.951 . S
H1611 C1637 0.950 . S
H1612 C1638 0.950 . S
H1613 C1640 0.950 . S
H1614 C1643 0.950 . S
H1615 C1644 0.950 . S
H1616 C1646 0.950 . S
H1617 C1647 0.950 . S
C1618 H1600 0.951 . S
C1618 C1619 1.366 . S
C1618 C1620 1.388 . S
C1619 C1618 1.366 . S
C1619 C1623 1.385 . S
C1620 H1601 0.951 . S
C1620 C1618 1.388 . S
C1620 C1621 1.366 . S
C1621 C1620 1.366 . S
C1621 C1622 1.414 . S
C1621 C1624 1.499 . S
C1622 H1602 0.950 . S
C1622 C1621 1.414 . S
C1622 C1623 1.374 . S
C1623 H1603 0.950 . S
C1623 C1619 1.385 . S
C1623 C1622 1.374 . S
C1624 C1621 1.499 . S
C1624 C1625 1.373 . S
C1624 C1626 1.389 . S
C1625 H1604 0.950 . S
C1625 C1624 1.373 . S
C1625 C1641 1.377 . S
C1626 C1624 1.389 . S
C1626 C1627 1.524 . S
C1626 C1640 1.377 . S
C1627 C1626 1.524 . S
C1627 C1628 1.397 . S
C1627 C1632 1.363 . S
C1628 H1605 0.950 . S
C1628 C1627 1.397 . S
C1628 C1629 1.334 . S
C1629 H1606 0.950 . S
C1629 C1628 1.334 . S
C1629 C1630 1.287 . S
C1630 C1629 1.287 . S
C1630 C1631 1.524 . S
C1630 H1649 0.913 . S
C1631 H1607 0.950 . S
C1631 C1630 1.524 . S
C1631 C1632 1.415 . S
C1632 H1608 0.950 . S
C1632 C1627 1.363 . S
C1632 C1631 1.415 . S
C1633 H1609 0.951 . S
C1633 C1634 1.366 . S
C1633 C1635 1.388 . S
C1634 C1633 1.366 . S
C1634 C1638 1.385 . S
C1635 H1610 0.951 . S
C1635 C1633 1.388 . S
C1635 C1636 1.366 . S
C1636 C1635 1.366 . S
C1636 C1637 1.414 . S
C1636 C1639 1.499 . S
C1637 H1611 0.950 . S
C1637 C1636 1.414 . S
C1637 C1638 1.374 . S
C1638 H1612 0.950 . S
C1638 C1634 1.385 . S
C1638 C1637 1.374 . S
C1639 C1636 1.499 . S
C1639 C1640 1.373 . S
C1639 C1641 1.389 . S
C1640 H1613 0.950 . S
C1640 C1626 1.377 . S
C1640 C1639 1.373 . S
C1641 C1625 1.377 . S
C1641 C1639 1.389 . S
C1641 C1642 1.524 . S
C1642 C1641 1.524 . S
C1642 C1643 1.397 . S
C1642 C1647 1.363 . S
C1643 H1614 0.950 . S
C1643 C1642 1.397 . S
C1643 C1644 1.334 . S
C1644 H1615 0.950 . S
C1644 C1643 1.334 . S
C1644 C1645 1.287 . S
C1645 C1644 1.287 . S
C1645 C1646 1.524 . S
C1645 H1648 0.999 . S
C1646 H1616 0.950 . S
C1646 C1645 1.524 . S
C1646 C1647 1.415 . S
C1647 H1617 0.950 . S
C1647 C1642 1.363 . S
C1647 C1646 1.415 . S
H1648 C1645 0.999 . S
H1649 C1630 0.913 . S
H1650 C1668 0.951 . S
H1651 C1670 0.951 . S
H1652 C1672 0.950 . S
H1653 C1673 0.950 . S
H1654 C1675 0.950 . S
H1655 C1678 0.950 . S
H1656 C1679 0.950 . S
H1657 C1681 0.950 . S
H1658 C1682 0.950 . S
H1659 C1683 0.951 . S
H1660 C1685 0.951 . S
H1661 C1687 0.950 . S
H1662 C1688 0.950 . S
H1663 C1690 0.950 . S
H1664 C1693 0.950 . S
H1665 C1694 0.950 . S
H1666 C1696 0.950 . S
H1667 C1697 0.950 . S
C1668 H1650 0.951 . S
C1668 C1669 1.366 . S
C1668 C1670 1.388 . S
C1669 C1668 1.366 . S
C1669 C1673 1.385 . S
C1670 H1651 0.951 . S
C1670 C1668 1.388 . S
C1670 C1671 1.366 . S
C1671 C1670 1.366 . S
C1671 C1672 1.414 . S
C1671 C1674 1.499 . S
C1672 H1652 0.950 . S
C1672 C1671 1.414 . S
C1672 C1673 1.374 . S
C1673 H1653 0.950 . S
C1673 C1669 1.385 . S
C1673 C1672 1.374 . S
C1674 C1671 1.499 . S
C1674 C1675 1.373 . S
C1674 C1676 1.389 . S
C1675 H1654 0.950 . S
C1675 C1674 1.373 . S
C1675 C1691 1.377 . S
C1676 C1674 1.389 . S
C1676 C1677 1.524 . S
C1676 C1690 1.377 . S
C1677 C1676 1.524 . S
C1677 C1678 1.397 . S
C1677 C1682 1.363 . S
C1678 H1655 0.950 . S
C1678 C1677 1.397 . S
C1678 C1679 1.334 . S
C1679 H1656 0.950 . S
C1679 C1678 1.334 . S
C1679 C1680 1.287 . S
C1680 C1679 1.287 . S
C1680 C1681 1.524 . S
C1680 H1699 0.913 . S
C1681 H1657 0.950 . S
C1681 C1680 1.524 . S
C1681 C1682 1.415 . S
C1682 H1658 0.950 . S
C1682 C1677 1.363 . S
C1682 C1681 1.415 . S
C1683 H1659 0.951 . S
C1683 C1684 1.366 . S
C1683 C1685 1.388 . S
C1684 C1683 1.366 . S
C1684 C1688 1.385 . S
C1685 H1660 0.951 . S
C1685 C1683 1.388 . S
C1685 C1686 1.366 . S
C1686 C1685 1.366 . S
C1686 C1687 1.414 . S
C1686 C1689 1.499 . S
C1687 H1661 0.950 . S
C1687 C1686 1.414 . S
C1687 C1688 1.374 . S
C1688 H1662 0.950 . S
C1688 C1684 1.385 . S
C1688 C1687 1.374 . S
C1689 C1686 1.499 . S
C1689 C1690 1.373 . S
C1689 C1691 1.389 . S
C1690 H1663 0.950 . S
C1690 C1676 1.377 . S
C1690 C1689 1.373 . S
C1691 C1675 1.377 . S
C1691 C1689 1.389 . S
C1691 C1692 1.524 . S
C1692 C1691 1.524 . S
C1692 C1693 1.397 . S
C1692 C1697 1.363 . S
C1693 H1664 0.950 . S
C1693 C1692 1.397 . S
C1693 C1694 1.334 . S
C1694 H1665 0.950 . S
C1694 C1693 1.334 . S
C1694 C1695 1.287 . S
C1695 C1694 1.287 . S
C1695 C1696 1.524 . S
C1695 H1698 0.999 . S
C1696 H1666 0.950 . S
C1696 C1695 1.524 . S
C1696 C1697 1.415 . S
C1697 H1667 0.950 . S
C1697 C1692 1.363 . S
C1697 C1696 1.415 . S
H1698 C1695 0.999 . S
H1699 C1680 0.913 . S
H1700 C1718 0.951 . S
H1701 C1720 0.951 . S
H1702 C1722 0.950 . S
H1703 C1723 0.950 . S
H1704 C1725 0.950 . S
H1705 C1728 0.950 . S
H1706 C1729 0.950 . S
H1707 C1731 0.950 . S
H1708 C1732 0.950 . S
H1709 C1733 0.951 . S
H1710 C1735 0.951 . S
H1711 C1737 0.950 . S
H1712 C1738 0.950 . S
H1713 C1740 0.950 . S
H1714 C1743 0.950 . S
H1715 C1744 0.950 . S
H1716 C1746 0.950 . S
H1717 C1747 0.950 . S
C1718 H1700 0.951 . S
C1718 C1719 1.366 . S
C1718 C1720 1.388 . S
C1719 C1718 1.366 . S
C1719 C1723 1.385 . S
C1720 H1701 0.951 . S
C1720 C1718 1.388 . S
C1720 C1721 1.366 . S
C1721 C1720 1.366 . S
C1721 C1722 1.414 . S
C1721 C1724 1.499 . S
C1722 H1702 0.950 . S
C1722 C1721 1.414 . S
C1722 C1723 1.374 . S
C1723 H1703 0.950 . S
C1723 C1719 1.385 . S
C1723 C1722 1.374 . S
C1724 C1721 1.499 . S
C1724 C1725 1.373 . S
C1724 C1726 1.389 . S
C1725 H1704 0.950 . S
C1725 C1724 1.373 . S
C1725 C1741 1.377 . S
C1726 C1724 1.389 . S
C1726 C1727 1.524 . S
C1726 C1740 1.377 . S
C1727 C1726 1.524 . S
C1727 C1728 1.397 . S
C1727 C1732 1.363 . S
C1728 H1705 0.950 . S
C1728 C1727 1.397 . S
C1728 C1729 1.334 . S
C1729 H1706 0.950 . S
C1729 C1728 1.334 . S
C1729 C1730 1.287 . S
C1730 C1729 1.287 . S
C1730 C1731 1.524 . S
C1730 H1749 0.913 . S
C1731 H1707 0.950 . S
C1731 C1730 1.524 . S
C1731 C1732 1.415 . S
C1732 H1708 0.950 . S
C1732 C1727 1.363 . S
C1732 C1731 1.415 . S
C1733 H1709 0.951 . S
C1733 C1734 1.366 . S
C1733 C1735 1.388 . S
C1734 C1733 1.366 . S
C1734 C1738 1.385 . S
C1735 H1710 0.951 . S
C1735 C1733 1.388 . S
C1735 C1736 1.366 . S
C1736 C1735 1.366 . S
C1736 C1737 1.414 . S
C1736 C1739 1.499 . S
C1737 H1711 0.950 . S
C1737 C1736 1.414 . S
C1737 C1738 1.374 . S
C1738 H1712 0.950 . S
C1738 C1734 1.385 . S
C1738 C1737 1.374 . S
C1739 C1736 1.499 . S
C1739 C1740 1.373 . S
C1739 C1741 1.389 . S
C1740 H1713 0.950 . S
C1740 C1726 1.377 . S
C1740 C1739 1.373 . S
C1741 C1725 1.377 . S
C1741 C1739 1.389 . S
C1741 C1742 1.524 . S
C1742 C1741 1.524 . S
C1742 C1743 1.397 . S
C1742 C1747 1.363 . S
C1743 H1714 0.950 . S
C1743 C1742 1.397 . S
C1743 C1744 1.334 . S
C1744 H1715 0.950 . S
C1744 C1743 1.334 . S
C1744 C1745 1.287 . S
C1745 C1744 1.287 . S
C1745 C1746 1.524 . S
C1745 H1748 0.999 . S
C1746 H1716 0.950 . S
C1746 C1745 1.524 . S
C1746 C1747 1.415 . S
C1747 H1717 0.950 . S
C1747 C1742 1.363 . S
C1747 C1746 1.415 . S
H1748 C1745 0.999 . S
H1749 C1730 0.913 . S
H1750 C1768 0.951 . S
H1751 C1770 0.951 . S
H1752 C1772 0.950 . S
H1753 C1773 0.950 . S
H1754 C1775 0.950 . S
H1755 C1778 0.950 . S
H1756 C1779 0.950 . S
H1757 C1781 0.950 . S
H1758 C1782 0.950 . S
H1759 C1783 0.951 . S
H1760 C1785 0.951 . S
H1761 C1787 0.950 . S
H1762 C1788 0.950 . S
H1763 C1790 0.950 . S
H1764 C1793 0.950 . S
H1765 C1794 0.950 . S
H1766 C1796 0.950 . S
H1767 C1797 0.950 . S
C1768 H1750 0.951 . S
C1768 C1769 1.366 . S
C1768 C1770 1.388 . S
C1769 C1768 1.366 . S
C1769 C1773 1.385 . S
C1770 H1751 0.951 . S
C1770 C1768 1.388 . S
C1770 C1771 1.366 . S
C1771 C1770 1.366 . S
C1771 C1772 1.414 . S
C1771 C1774 1.499 . S
C1772 H1752 0.950 . S
C1772 C1771 1.414 . S
C1772 C1773 1.374 . S
C1773 H1753 0.950 . S
C1773 C1769 1.385 . S
C1773 C1772 1.374 . S
C1774 C1771 1.499 . S
C1774 C1775 1.373 . S
C1774 C1776 1.389 . S
C1775 H1754 0.950 . S
C1775 C1774 1.373 . S
C1775 C1791 1.377 . S
C1776 C1774 1.389 . S
C1776 C1777 1.524 . S
C1776 C1790 1.377 . S
C1777 C1776 1.524 . S
C1777 C1778 1.397 . S
C1777 C1782 1.363 . S
C1778 H1755 0.950 . S
C1778 C1777 1.397 . S
C1778 C1779 1.334 . S
C1779 H1756 0.950 . S
C1779 C1778 1.334 . S
C1779 C1780 1.287 . S
C1780 C1779 1.287 . S
C1780 C1781 1.524 . S
C1780 H1799 0.913 . S
C1781 H1757 0.950 . S
C1781 C1780 1.524 . S
C1781 C1782 1.415 . S
C1782 H1758 0.950 . S
C1782 C1777 1.363 . S
C1782 C1781 1.415 . S
C1783 H1759 0.951 . S
C1783 C1784 1.366 . S
C1783 C1785 1.388 . S
C1784 C1783 1.366 . S
C1784 C1788 1.385 . S
C1785 H1760 0.951 . S
C1785 C1783 1.388 . S
C1785 C1786 1.366 . S
C1786 C1785 1.366 . S
C1786 C1787 1.414 . S
C1786 C1789 1.499 . S
C1787 H1761 0.950 . S
C1787 C1786 1.414 . S
C1787 C1788 1.374 . S
C1788 H1762 0.950 . S
C1788 C1784 1.385 . S
C1788 C1787 1.374 . S
C1789 C1786 1.499 . S
C1789 C1790 1.373 . S
C1789 C1791 1.389 . S
C1790 H1763 0.950 . S
C1790 C1776 1.377 . S
C1790 C1789 1.373 . S
C1791 C1775 1.377 . S
C1791 C1789 1.389 . S
C1791 C1792 1.524 . S
C1792 C1791 1.524 . S
C1792 C1793 1.397 . S
C1792 C1797 1.363 . S
C1793 H1764 0.950 . S
C1793 C1792 1.397 . S
C1793 C1794 1.334 . S
C1794 H1765 0.950 . S
C1794 C1793 1.334 . S
C1794 C1795 1.287 . S
C1795 C1794 1.287 . S
C1795 C1796 1.524 . S
C1795 H1798 0.999 . S
C1796 H1766 0.950 . S
C1796 C1795 1.524 . S
C1796 C1797 1.415 . S
C1797 H1767 0.950 . S
C1797 C1792 1.363 . S
C1797 C1796 1.415 . S
H1798 C1795 0.999 . S
H1799 C1780 0.913 . S
H1800 C1818 0.951 . S
H1801 C1820 0.951 . S
H1802 C1822 0.950 . S
H1803 C1823 0.950 . S
H1804 C1825 0.950 . S
H1805 C1828 0.950 . S
H1806 C1829 0.950 . S
H1807 C1831 0.950 . S
H1808 C1832 0.950 . S
H1809 C1833 0.951 . S
H1810 C1835 0.951 . S
H1811 C1837 0.950 . S
H1812 C1838 0.950 . S
H1813 C1840 0.950 . S
H1814 C1843 0.950 . S
H1815 C1844 0.950 . S
H1816 C1846 0.950 . S
H1817 C1847 0.950 . S
C1818 H1800 0.951 . S
C1818 C1819 1.366 . S
C1818 C1820 1.388 . S
C1819 C1818 1.366 . S
C1819 C1823 1.385 . S
C1820 H1801 0.951 . S
C1820 C1818 1.388 . S
C1820 C1821 1.366 . S
C1821 C1820 1.366 . S
C1821 C1822 1.414 . S
C1821 C1824 1.499 . S
C1822 H1802 0.950 . S
C1822 C1821 1.414 . S
C1822 C1823 1.374 . S
C1823 H1803 0.950 . S
C1823 C1819 1.385 . S
C1823 C1822 1.374 . S
C1824 C1821 1.499 . S
C1824 C1825 1.373 . S
C1824 C1826 1.389 . S
C1825 H1804 0.950 . S
C1825 C1824 1.373 . S
C1825 C1841 1.377 . S
C1826 C1824 1.389 . S
C1826 C1827 1.524 . S
C1826 C1840 1.377 . S
C1827 C1826 1.524 . S
C1827 C1828 1.397 . S
C1827 C1832 1.363 . S
C1828 H1805 0.950 . S
C1828 C1827 1.397 . S
C1828 C1829 1.334 . S
C1829 H1806 0.950 . S
C1829 C1828 1.334 . S
C1829 C1830 1.287 . S
C1830 C1829 1.287 . S
C1830 C1831 1.524 . S
C1830 H1849 0.913 . S
C1831 H1807 0.950 . S
C1831 C1830 1.524 . S
C1831 C1832 1.415 . S
C1832 H1808 0.950 . S
C1832 C1827 1.363 . S
C1832 C1831 1.415 . S
C1833 H1809 0.951 . S
C1833 C1834 1.366 . S
C1833 C1835 1.388 . S
C1834 C1833 1.366 . S
C1834 C1838 1.385 . S
C1835 H1810 0.951 . S
C1835 C1833 1.388 . S
C1835 C1836 1.366 . S
C1836 C1835 1.366 . S
C1836 C1837 1.414 . S
C1836 C1839 1.499 . S
C1837 H1811 0.950 . S
C1837 C1836 1.414 . S
C1837 C1838 1.374 . S
C1838 H1812 0.950 . S
C1838 C1834 1.385 . S
C1838 C1837 1.374 . S
C1839 C1836 1.499 . S
C1839 C1840 1.373 . S
C1839 C1841 1.389 . S
C1840 H1813 0.950 . S
C1840 C1826 1.377 . S
C1840 C1839 1.373 . S
C1841 C1825 1.377 . S
C1841 C1839 1.389 . S
C1841 C1842 1.524 . S
C1842 C1841 1.524 . S
C1842 C1843 1.397 . S
C1842 C1847 1.363 . S
C1843 H1814 0.950 . S
C1843 C1842 1.397 . S
C1843 C1844 1.334 . S
C1844 H1815 0.950 . S
C1844 C1843 1.334 . S
C1844 C1845 1.287 . S
C1845 C1844 1.287 . S
C1845 C1846 1.524 . S
C1845 H1848 0.999 . S
C1846 H1816 0.950 . S
C1846 C1845 1.524 . S
C1846 C1847 1.415 . S
C1847 H1817 0.950 . S
C1847 C1842 1.363 . S
C1847 C1846 1.415 . S
H1848 C1845 0.999 . S
H1849 C1830 0.913 . S
H1850 C1868 0.951 . S
H1851 C1870 0.951 . S
H1852 C1872 0.950 . S
H1853 C1873 0.950 . S
H1854 C1875 0.950 . S
H1855 C1878 0.950 . S
H1856 C1879 0.950 . S
H1857 C1881 0.950 . S
H1858 C1882 0.950 . S
H1859 C1883 0.951 . S
H1860 C1885 0.951 . S
H1861 C1887 0.950 . S
H1862 C1888 0.950 . S
H1863 C1890 0.950 . S
H1864 C1893 0.950 . S
H1865 C1894 0.950 . S
H1866 C1896 0.950 . S
H1867 C1897 0.950 . S
C1868 H1850 0.951 . S
C1868 C1869 1.366 . S
C1868 C1870 1.388 . S
C1869 C1868 1.366 . S
C1869 C1873 1.385 . S
C1870 H1851 0.951 . S
C1870 C1868 1.388 . S
C1870 C1871 1.366 . S
C1871 C1870 1.366 . S
C1871 C1872 1.414 . S
C1871 C1874 1.499 . S
C1872 H1852 0.950 . S
C1872 C1871 1.414 . S
C1872 C1873 1.374 . S
C1873 H1853 0.950 . S
C1873 C1869 1.385 . S
C1873 C1872 1.374 . S
C1874 C1871 1.499 . S
C1874 C1875 1.373 . S
C1874 C1876 1.389 . S
C1875 H1854 0.950 . S
C1875 C1874 1.373 . S
C1875 C1891 1.377 . S
C1876 C1874 1.389 . S
C1876 C1877 1.524 . S
C1876 C1890 1.377 . S
C1877 C1876 1.524 . S
C1877 C1878 1.397 . S
C1877 C1882 1.363 . S
C1878 H1855 0.950 . S
C1878 C1877 1.397 . S
C1878 C1879 1.334 . S
C1879 H1856 0.950 . S
C1879 C1878 1.334 . S
C1879 C1880 1.287 . S
C1880 C1879 1.287 . S
C1880 C1881 1.524 . S
C1880 H1899 0.913 . S
C1881 H1857 0.950 . S
C1881 C1880 1.524 . S
C1881 C1882 1.415 . S
C1882 H1858 0.950 . S
C1882 C1877 1.363 . S
C1882 C1881 1.415 . S
C1883 H1859 0.951 . S
C1883 C1884 1.366 . S
C1883 C1885 1.388 . S
C1884 C1883 1.366 . S
C1884 C1888 1.385 . S
C1885 H1860 0.951 . S
C1885 C1883 1.388 . S
C1885 C1886 1.366 . S
C1886 C1885 1.366 . S
C1886 C1887 1.414 . S
C1886 C1889 1.499 . S
C1887 H1861 0.950 . S
C1887 C1886 1.414 . S
C1887 C1888 1.374 . S
C1888 H1862 0.950 . S
C1888 C1884 1.385 . S
C1888 C1887 1.374 . S
C1889 C1886 1.499 . S
C1889 C1890 1.373 . S
C1889 C1891 1.389 . S
C1890 H1863 0.950 . S
C1890 C1876 1.377 . S
C1890 C1889 1.373 . S
C1891 C1875 1.377 . S
C1891 C1889 1.389 . S
C1891 C1892 1.524 . S
C1892 C1891 1.524 . S
C1892 C1893 1.397 . S
C1892 C1897 1.363 . S
C1893 H1864 0.950 . S
C1893 C1892 1.397 . S
C1893 C1894 1.334 . S
C1894 H1865 0.950 . S
C1894 C1893 1.334 . S
C1894 C1895 1.287 . S
C1895 C1894 1.287 . S
C1895 C1896 1.524 . S
C1895 H1898 0.999 . S
C1896 H1866 0.950 . S
C1896 C1895 1.524 . S
C1896 C1897 1.415 . S
C1897 H1867 0.950 . S
C1897 C1892 1.363 . S
C1897 C1896 1.415 . S
H1898 C1895 0.999 . S
H1899 C1880 0.913 . S
H1900 C1918 0.951 . S
H1901 C1920 0.951 . S
H1902 C1922 0.950 . S
H1903 C1923 0.950 . S
H1904 C1925 0.950 . S
H1905 C1928 0.950 . S
H1906 C1929 0.950 . S
H1907 C1931 0.950 . S
H1908 C1932 0.950 . S
H1909 C1933 0.951 . S
H1910 C1935 0.951 . S
H1911 C1937 0.950 . S
H1912 C1938 0.950 . S
H1913 C1940 0.950 . S
H1914 C1943 0.950 . S
H1915 C1944 0.950 . S
H1916 C1946 0.950 . S
H1917 C1947 0.950 . S
C1918 H1900 0.951 . S
C1918 C1919 1.366 . S
C1918 C1920 1.388 . S
C1919 C1918 1.366 . S
C1919 C1923 1.385 . S
C1920 H1901 0.951 . S
C1920 C1918 1.388 . S
C1920 C1921 1.366 . S
C1921 C1920 1.366 . S
C1921 C1922 1.414 . S
C1921 C1924 1.499 . S
C1922 H1902 0.950 . S
C1922 C1921 1.414 . S
C1922 C1923 1.374 . S
C1923 H1903 0.950 . S
C1923 C1919 1.385 . S
C1923 C1922 1.374 . S
C1924 C1921 1.499 . S
C1924 C1925 1.373 . S
C1924 C1926 1.389 . S
C1925 H1904 0.950 . S
C1925 C1924 1.373 . S
C1925 C1941 1.377 . S
C1926 C1924 1.389 . S
C1926 C1927 1.524 . S
C1926 C1940 1.377 . S
C1927 C1926 1.524 . S
C1927 C1928 1.397 . S
C1927 C1932 1.363 . S
C1928 H1905 0.950 . S
C1928 C1927 1.397 . S
C1928 C1929 1.334 . S
C1929 H1906 0.950 . S
C1929 C1928 1.334 . S
C1929 C1930 1.287 . S
C1930 C1929 1.287 . S
C1930 C1931 1.524 . S
C1930 H1949 0.913 . S
C1931 H1907 0.950 . S
C1931 C1930 1.524 . S
C1931 C1932 1.415 . S
C1932 H1908 0.950 . S
C1932 C1927 1.363 . S
C1932 C1931 1.415 . S
C1933 H1909 0.951 . S
C1933 C1934 1.366 . S
C1933 C1935 1.388 . S
C1934 C1933 1.366 . S
C1934 C1938 1.385 . S
C1935 H1910 0.951 . S
C1935 C1933 1.388 . S
C1935 C1936 1.366 . S
C1936 C1935 1.366 . S
C1936 C1937 1.414 . S
C1936 C1939 1.499 . S
C1937 H1911 0.950 . S
C1937 C1936 1.414 . S
C1937 C1938 1.374 . S
C1938 H1912 0.950 . S
C1938 C1934 1.385 . S
C1938 C1937 1.374 . S
C1939 C1936 1.499 . S
C1939 C1940 1.373 . S
C1939 C1941 1.389 . S
C1940 H1913 0.950 . S
C1940 C1926 1.377 . S
C1940 C1939 1.373 . S
C1941 C1925 1.377 . S
C1941 C1939 1.389 . S
C1941 C1942 1.524 . S
C1942 C1941 1.524 . S
C1942 C1943 1.397 . S
C1942 C1947 1.363 . S
C1943 H1914 0.950 . S
C1943 C1942 1.397 . S
C1943 C1944 1.334 . S
C1944 H1915 0.950 . S
C1944 C1943 1.334 . S
C1944 C1945 1.287 . S
C1945 C1944 1.287 . S
C1945 C1946 1.524 . S
C1945 H1948 0.999 . S
C1946 H1916 0.950 . S
C1946 C1945 1.524 . S
C1946 C1947 1.415 . S
C1947 H1917 0.950 . S
C1947 C1942 1.363 . S
C1947 C1946 1.415 . S
H1948 C1945 0.999 . S
H1949 C1930 0.913 . S
H1950 C1968 0.951 . S
H1951 C1970 0.951 . S
H1952 C1972 0.950 . S
H1953 C1973 0.950 . S
H1954 C1975 0.950 . S
H1955 C1978 0.950 . S
H1956 C1979 0.950 . S
H1957 C1981 0.950 . S
H1958 C1982 0.950 . S
H1959 C1983 0.951 . S
H1960 C1985 0.951 . S
H1961 C1987 0.950 . S
H1962 C1988 0.950 . S
H1963 C1990 0.950 . S
H1964 C1993 0.950 . S
H1965 C1994 0.950 . S
H1966 C1996 0.950 . S
H1967 C1997 0.950 . S
C1968 H1950 0.951 . S
C1968 C1969 1.366 . S
C1968 C1970 1.388 . S
C1969 C1968 1.366 . S
C1969 C1973 1.385 . S
C1970 H1951 0.951 . S
C1970 C1968 1.388 . S
C1970 C1971 1.366 . S
C1971 C1970 1.366 . S
C1971 C1972 1.414 . S
C1971 C1974 1.499 . S
C1972 H1952 0.950 . S
C1972 C1971 1.414 . S
C1972 C1973 1.374 . S
C1973 H1953 0.950 . S
C1973 C1969 1.385 . S
C1973 C1972 1.374 . S
C1974 C1971 1.499 . S
C1974 C1975 1.373 . S
C1974 C1976 1.389 . S
C1975 H1954 0.950 . S
C1975 C1974 1.373 . S
C1975 C1991 1.377 . S
C1976 C1974 1.389 . S
C1976 C1977 1.524 . S
C1976 C1990 1.377 . S
C1977 C1976 1.524 . S
C1977 C1978 1.397 . S
C1977 C1982 1.363 . S
C1978 H1955 0.950 . S
C1978 C1977 1.397 . S
C1978 C1979 1.334 . S
C1979 H1956 0.950 . S
C1979 C1978 1.334 . S
C1979 C1980 1.287 . S
C1980 C1979 1.287 . S
C1980 C1981 1.524 . S
C1980 H1999 0.913 . S
C1981 H1957 0.950 . S
C1981 C1980 1.524 . S
C1981 C1982 1.415 . S
C1982 H1958 0.950 . S
C1982 C1977 1.363 . S
C1982 C1981 1.415 . S
C1983 H1959 0.951 . S
C1983 C1984 1.366 . S
C1983 C1985 1.388 . S
C1984 C1983 1.366 . S
C1984 C1988 1.385 . S
C1985 H1960 0.951 . S
C1985 C1983 1.388 . S
C1985 C1986 1.366 . S
C1986 C1985 1.366 . S
C1986 C1987 1.414 . S
C1986 C1989 1.499 . S
C1987 H1961 0.950 . S
C1987 C1986 1.414 . S
C1987 C1988 1.374 . S
C1988 H1962 0.950 . S
C1988 C1984 1.385 . S
C1988 C1987 1.374 . S
C1989 C1986 1.499 . S
C1989 C1990 1.373 . S
C1989 C1991 1.389 . S
C1990 H1963 0.950 . S
C1990 C1976 1.377 . S
C1990 C1989 1.373 . S
C1991 C1975 1.377 . S
C1991 C1989 1.389 . S
C1991 C1992 1.524 . S
C1992 C1991 1.524 . S
C1992 C1993 1.397 . S
C1992 C1997 1.363 . S
C1993 H1964 0.950 . S
C1993 C1992 1.397 . S
C1993 C1994 1.334 . S
C1994 H1965 0.950 . S
C1994 C1993 1.334 . S
C1994 C1995 1.287 . S
C1995 C1994 1.287 . S
C1995 C1996 1.524 . S
C1995 H1998 0.999 . S
C1996 H1966 0.950 . S
C1996 C1995 1.524 . S
C1996 C1997 1.415 . S
C1997 H1967 0.950 . S
C1997 C1992 1.363 . S
C1997 C1996 1.415 . S
H1998 C1995 0.999 . S
H1999 C1980 0.913 . S
H2000 C2018 0.951 . S
H2001 C2020 0.951 . S
H2002 C2022 0.950 . S
H2003 C2023 0.950 . S
H2004 C2025 0.950 . S
H2005 C2028 0.950 . S
H2006 C2029 0.950 . S
H2007 C2031 0.950 . S
H2008 C2032 0.950 . S
H2009 C2033 0.951 . S
H2010 C2035 0.951 . S
H2011 C2037 0.950 . S
H2012 C2038 0.950 . S
H2013 C2040 0.950 . S
H2014 C2043 0.950 . S
H2015 C2044 0.950 . S
H2016 C2046 0.950 . S
H2017 C2047 0.950 . S
C2018 H2000 0.951 . S
C2018 C2019 1.366 . S
C2018 C2020 1.388 . S
C2019 C2018 1.366 . S
C2019 C2023 1.385 . S
C2020 H2001 0.951 . S
C2020 C2018 1.388 . S
C2020 C2021 1.366 . S
C2021 C2020 1.366 . S
C2021 C2022 1.414 . S
C2021 C2024 1.499 . S
C2022 H2002 0.950 . S
C2022 C2021 1.414 . S
C2022 C2023 1.374 . S
C2023 H2003 0.950 . S
C2023 C2019 1.385 . S
C2023 C2022 1.374 . S
C2024 C2021 1.499 . S
C2024 C2025 1.373 . S
C2024 C2026 1.389 . S
C2025 H2004 0.950 . S
C2025 C2024 1.373 . S
C2025 C2041 1.377 . S
C2026 C2024 1.389 . S
C2026 C2027 1.524 . S
C2026 C2040 1.377 . S
C2027 C2026 1.524 . S
C2027 C2028 1.397 . S
C2027 C2032 1.363 . S
C2028 H2005 0.950 . S
C2028 C2027 1.397 . S
C2028 C2029 1.334 . S
C2029 H2006 0.950 . S
C2029 C2028 1.334 . S
C2029 C2030 1.287 . S
C2030 C2029 1.287 . S
C2030 C2031 1.524 . S
C2030 H2049 0.913 . S
C2031 H2007 0.950 . S
C2031 C2030 1.524 . S
C2031 C2032 1.415 . S
C2032 H2008 0.950 . S
C2032 C2027 1.363 . S
C2032 C2031 1.415 . S
C2033 H2009 0.951 . S
C2033 C2034 1.366 . S
C2033 C2035 1.388 . S
C2034 C2033 1.366 . S
C2034 C2038 1.385 . S
C2035 H2010 0.951 . S
C2035 C2033 1.388 . S
C2035 C2036 1.366 . S
C2036 C2035 1.366 . S
C2036 C2037 1.414 . S
C2036 C2039 1.499 . S
C2037 H2011 0.950 . S
C2037 C2036 1.414 . S
C2037 C2038 1.374 . S
C2038 H2012 0.950 . S
C2038 C2034 1.385 . S
C2038 C2037 1.374 . S
C2039 C2036 1.499 . S
C2039 C2040 1.373 . S
C2039 C2041 1.389 . S
C2040 H2013 0.950 . S
C2040 C2026 1.377 . S
C2040 C2039 1.373 . S
C2041 C2025 1.377 . S
C2041 C2039 1.389 . S
C2041 C2042 1.524 . S
C2042 C2041 1.524 . S
C2042 C2043 1.397 . S
C2042 C2047 1.363 . S
C2043 H2014 0.950 . S
C2043 C2042 1.397 . S
C2043 C2044 1.334 . S
C2044 H2015 0.950 . S
C2044 C2043 1.334 . S
C2044 C2045 1.287 . S
C2045 C2044 1.287 . S
C2045 C2046 1.524 . S
C2045 H2048 0.999 . S
C2046 H2016 0.950 . S
C2046 C2045 1.524 . S
C2046 C2047 1.415 . S
C2047 H2017 0.950 . S
C2047 C2042 1.363 . S
C2047 C2046 1.415 . S
H2048 C2045 0.999 . S
H2049 C2030 0.913 . S
H2050 C2068 0.951 . S
H2051 C2070 0.951 . S
H2052 C2072 0.950 . S
H2053 C2073 0.950 . S
H2054 C2075 0.950 . S
H2055 C2078 0.950 . S
H2056 C2079 0.950 . S
H2057 C2081 0.950 . S
H2058 C2082 0.950 . S
H2059 C2083 0.951 . S
H2060 C2085 0.951 . S
H2061 C2087 0.950 . S
H2062 C2088 0.950 . S
H2063 C2090 0.950 . S
H2064 C2093 0.950 . S
H2065 C2094 0.950 . S
H2066 C2096 0.950 . S
H2067 C2097 0.950 . S
C2068 H2050 0.951 . S
C2068 C2069 1.366 . S
C2068 C2070 1.388 . S
C2069 C2068 1.366 . S
C2069 C2073 1.385 . S
C2070 H2051 0.951 . S
C2070 C2068 1.388 . S
C2070 C2071 1.366 . S
C2071 C2070 1.366 . S
C2071 C2072 1.414 . S
C2071 C2074 1.499 . S
C2072 H2052 0.950 . S
C2072 C2071 1.414 . S
C2072 C2073 1.374 . S
C2073 H2053 0.950 . S
C2073 C2069 1.385 . S
C2073 C2072 1.374 . S
C2074 C2071 1.499 . S
C2074 C2075 1.373 . S
C2074 C2076 1.389 . S
C2075 H2054 0.950 . S
C2075 C2074 1.373 . S
C2075 C2091 1.377 . S
C2076 C2074 1.389 . S
C2076 C2077 1.524 . S
C2076 C2090 1.377 . S
C2077 C2076 1.524 . S
C2077 C2078 1.397 . S
C2077 C2082 1.363 . S
C2078 H2055 0.950 . S
C2078 C2077 1.397 . S
C2078 C2079 1.334 . S
C2079 H2056 0.950 . S
C2079 C2078 1.334 . S
C2079 C2080 1.287 . S
C2080 C2079 1.287 . S
C2080 C2081 1.524 . S
C2080 H2099 0.913 . S
C2081 H2057 0.950 . S
C2081 C2080 1.524 . S
C2081 C2082 1.415 . S
C2082 H2058 0.950 . S
C2082 C2077 1.363 . S
C2082 C2081 1.415 . S
C2083 H2059 0.951 . S
C2083 C2084 1.366 . S
C2083 C2085 1.388 . S
C2084 C2083 1.366 . S
C2084 C2088 1.385 . S
C2085 H2060 0.951 . S
C2085 C2083 1.388 . S
C2085 C2086 1.366 . S
C2086 C2085 1.366 . S
C2086 C2087 1.414 . S
C2086 C2089 1.499 . S
C2087 H2061 0.950 . S
C2087 C2086 1.414 . S
C2087 C2088 1.374 . S
C2088 H2062 0.950 . S
C2088 C2084 1.385 . S
C2088 C2087 1.374 . S
C2089 C2086 1.499 . S
C2089 C2090 1.373 . S
C2089 C2091 1.389 . S
C2090 H2063 0.950 . S
C2090 C2076 1.377 . S
C2090 C2089 1.373 . S
C2091 C2075 1.377 . S
C2091 C2089 1.389 . S
C2091 C2092 1.524 . S
C2092 C2091 1.524 . S
C2092 C2093 1.397 . S
C2092 C2097 1.363 . S
C2093 H2064 0.950 . S
C2093 C2092 1.397 . S
C2093 C2094 1.334 . S
C2094 H2065 0.950 . S
C2094 C2093 1.334 . S
C2094 C2095 1.287 . S
C2095 C2094 1.287 . S
C2095 C2096 1.524 . S
C2095 H2098 0.999 . S
C2096 H2066 0.950 . S
C2096 C2095 1.524 . S
C2096 C2097 1.415 . S
C2097 H2067 0.950 . S
C2097 C2092 1.363 . S
C2097 C2096 1.415 . S
H2098 C2095 0.999 . S
H2099 C2080 0.913 . S
H2100 C2118 0.951 . S
H2101 C2120 0.951 . S
H2102 C2122 0.950 . S
H2103 C2123 0.950 . S
H2104 C2125 0.950 . S
H2105 C2128 0.950 . S
H2106 C2129 0.950 . S
H2107 C2131 0.950 . S
H2108 C2132 0.950 . S
H2109 C2133 0.951 . S
H2110 C2135 0.951 . S
H2111 C2137 0.950 . S
H2112 C2138 0.950 . S
H2113 C2140 0.950 . S
H2114 C2143 0.950 . S
H2115 C2144 0.950 . S
H2116 C2146 0.950 . S
H2117 C2147 0.950 . S
C2118 H2100 0.951 . S
C2118 C2119 1.366 . S
C2118 C2120 1.388 . S
C2119 C2118 1.366 . S
C2119 C2123 1.385 . S
C2120 H2101 0.951 . S
C2120 C2118 1.388 . S
C2120 C2121 1.366 . S
C2121 C2120 1.366 . S
C2121 C2122 1.414 . S
C2121 C2124 1.499 . S
C2122 H2102 0.950 . S
C2122 C2121 1.414 . S
C2122 C2123 1.374 . S
C2123 H2103 0.950 . S
C2123 C2119 1.385 . S
C2123 C2122 1.374 . S
C2124 C2121 1.499 . S
C2124 C2125 1.373 . S
C2124 C2126 1.389 . S
C2125 H2104 0.950 . S
C2125 C2124 1.373 . S
C2125 C2141 1.377 . S
C2126 C2124 1.389 . S
C2126 C2127 1.524 . S
C2126 C2140 1.377 . S
C2127 C2126 1.524 . S
C2127 C2128 1.397 . S
C2127 C2132 1.363 . S
C2128 H2105 0.950 . S
C2128 C2127 1.397 . S
C2128 C2129 1.334 . S
C2129 H2106 0.950 . S
C2129 C2128 1.334 . S
C2129 C2130 1.287 . S
C2130 C2129 1.287 . S
C2130 C2131 1.524 . S
C2130 H2149 0.913 . S
C2131 H2107 0.950 . S
C2131 C2130 1.524 . S
C2131 C2132 1.415 . S
C2132 H2108 0.950 . S
C2132 C2127 1.363 . S
C2132 C2131 1.415 . S
C2133 H2109 0.951 . S
C2133 C2134 1.366 . S
C2133 C2135 1.388 . S
C2134 C2133 1.366 . S
C2134 C2138 1.385 . S
C2135 H2110 0.951 . S
C2135 C2133 1.388 . S
C2135 C2136 1.366 . S
C2136 C2135 1.366 . S
C2136 C2137 1.414 . S
C2136 C2139 1.499 . S
C2137 H2111 0.950 . S
C2137 C2136 1.414 . S
C2137 C2138 1.374 . S
C2138 H2112 0.950 . S
C2138 C2134 1.385 . S
C2138 C2137 1.374 . S
C2139 C2136 1.499 . S
C2139 C2140 1.373 . S
C2139 C2141 1.389 . S
C2140 H2113 0.950 . S
C2140 C2126 1.377 . S
C2140 C2139 1.373 . S
C2141 C2125 1.377 . S
C2141 C2139 1.389 . S
C2141 C2142 1.524 . S
C2142 C2141 1.524 . S
C2142 C2143 1.397 . S
C2142 C2147 1.363 . S
C2143 H2114 0.950 . S
C2143 C2142 1.397 . S
C2143 C2144 1.334 . S
C2144 H2115 0.950 . S
C2144 C2143 1.334 . S
C2144 C2145 1.287 . S
C2145 C2144 1.287 . S
C2145 C2146 1.524 . S
C2145 H2148 0.999 . S
C2146 H2116 0.950 . S
C2146 C2145 1.524 . S
C2146 C2147 1.415 . S
C2147 H2117 0.950 . S
C2147 C2142 1.363 . S
C2147 C2146 1.415 . S
H2148 C2145 0.999 . S
H2149 C2130 0.913 . S
H2150 C2168 0.951 . S
H2151 C2170 0.951 . S
H2152 C2172 0.950 . S
H2153 C2173 0.950 . S
H2154 C2175 0.950 . S
H2155 C2178 0.950 . S
H2156 C2179 0.950 . S
H2157 C2181 0.950 . S
H2158 C2182 0.950 . S
H2159 C2183 0.951 . S
H2160 C2185 0.951 . S
H2161 C2187 0.950 . S
H2162 C2188 0.950 . S
H2163 C2190 0.950 . S
H2164 C2193 0.950 . S
H2165 C2194 0.950 . S
H2166 C2196 0.950 . S
H2167 C2197 0.950 . S
C2168 H2150 0.951 . S
C2168 C2169 1.366 . S
C2168 C2170 1.388 . S
C2169 C2168 1.366 . S
C2169 C2173 1.385 . S
C2170 H2151 0.951 . S
C2170 C2168 1.388 . S
C2170 C2171 1.366 . S
C2171 C2170 1.366 . S
C2171 C2172 1.414 . S
C2171 C2174 1.499 . S
C2172 H2152 0.950 . S
C2172 C2171 1.414 . S
C2172 C2173 1.374 . S
C2173 H2153 0.950 . S
C2173 C2169 1.385 . S
C2173 C2172 1.374 . S
C2174 C2171 1.499 . S
C2174 C2175 1.373 . S
C2174 C2176 1.389 . S
C2175 H2154 0.950 . S
C2175 C2174 1.373 . S
C2175 C2191 1.377 . S
C2176 C2174 1.389 . S
C2176 C2177 1.524 . S
C2176 C2190 1.377 . S
C2177 C2176 1.524 . S
C2177 C2178 1.397 . S
C2177 C2182 1.363 . S
C2178 H2155 0.950 . S
C2178 C2177 1.397 . S
C2178 C2179 1.334 . S
C2179 H2156 0.950 . S
C2179 C2178 1.334 . S
C2179 C2180 1.287 . S
C2180 C2179 1.287 . S
C2180 C2181 1.524 . S
C2180 H2199 0.913 . S
C2181 H2157 0.950 . S
C2181 C2180 1.524 . S
C2181 C2182 1.415 . S
C2182 H2158 0.950 . S
C2182 C2177 1.363 . S
C2182 C2181 1.415 . S
C2183 H2159 0.951 . S
C2183 C2184 1.366 . S
C2183 C2185 1.388 . S
C2184 C2183 1.366 . S
C2184 C2188 1.385 . S
C2185 H2160 0.951 . S
C2185 C2183 1.388 . S
C2185 C2186 1.366 . S
C2186 C2185 1.366 . S
C2186 C2187 1.414 . S
C2186 C2189 1.499 . S
C2187 H2161 0.950 . S
C2187 C2186 1.414 . S
C2187 C2188 1.374 . S
C2188 H2162 0.950 . S
C2188 C2184 1.385 . S
C2188 C2187 1.374 . S
C2189 C2186 1.499 . S
C2189 C2190 1.373 . S
C2189 C2191 1.389 . S
C2190 H2163 0.950 . S
C2190 C2176 1.377 . S
C2190 C2189 1.373 . S
C2191 C2175 1.377 . S
C2191 C2189 1.389 . S
C2191 C2192 1.524 . S
C2192 C2191 1.524 . S
C2192 C2193 1.397 . S
C2192 C2197 1.363 . S
C2193 H2164 0.950 . S
C2193 C2192 1.397 . S
C2193 C2194 1.334 . S
C2194 H2165 0.950 . S
C2194 C2193 1.334 . S
C2194 C2195 1.287 . S
C2195 C2194 1.287 . S
C2195 C2196 1.524 . S
C2195 H2198 0.999 . S
C2196 H2166 0.950 . S
C2196 C2195 1.524 . S
C2196 C2197 1.415 . S
C2197 H2167 0.950 . S
C2197 C2192 1.363 . S
C2197 C2196 1.415 . S
H2198 C2195 0.999 . S
H2199 C2180 0.913 . S
C634 C509 1.349 . S
C619 C35 1.287 . S
C684 C527 1.359 . S
C669 C115 1.297 . S
C734 C535 1.349 . S
C719 C177 1.296 . S
C769 C221 1.291 . S
C784 C501 1.365 . S
C819 C283 1.289 . S
C834 C496 1.363 . S
C869 C363 1.299 . S
C884 C514 1.358 . S
C934 C522 1.348 . S
C919 C407 1.291 . S
C984 C540 1.359 . S
C969 C469 1.293 . S
C1019 C159 1.289 . S
C1034 C561 1.349 . S
C1084 C579 1.358 . S
C1069 C239 1.295 . S
C1119 C53 1.297 . S
C1134 C587 1.354 . S
C1184 C553 1.358 . S
C1169 C97 1.296 . S
C1219 C425 1.297 . S
C1234 C548 1.347 . S
C1269 C487 1.299 . S
C1284 C566 1.354 . S
C1334 C574 1.369 . S
C1319 C301 1.302 . S
C1369 C345 1.290 . S
C1384 C592 1.359 . S
C1434 C530 1.636 . S
C1419 C29 1.611 . S
C1484 C545 1.607 . S
C1469 C109 1.584 . S
C1519 C171 1.585 . S
C1534 C504 1.636 . S
C1569 C215 1.613 . S
C1584 C519 1.610 . S
C1619 C277 1.611 . S
C1634 C543 1.634 . S
C1684 C506 1.607 . S
C1669 C357 1.586 . S
C1734 C517 1.636 . S
C1719 C401 1.613 . S
C1784 C532 1.607 . S
C1769 C463 1.612 . S
C1834 C582 1.636 . S
C1819 C153 1.610 . S
C1884 C597 1.607 . S
C1869 C233 1.584 . S
C1919 C47 1.584 . S
C1934 C556 1.634 . S
C1984 C571 1.607 . S
C1969 C91 1.615 . S
C2034 C595 1.636 . S
C2019 C419 1.583 . S
C2069 C481 1.586 . S
C2084 C558 1.607 . S
C2134 C569 1.636 . S
C2119 C295 1.587 . S
C2184 C584 1.607 . S
C2169 C339 1.613 . S
