# Generated by pormake.
# Topology anh, (6,3)-cn, num edge types: 1
# Building blocks:
#     Node 0, Type 0, BuildingBlock: VOLQOD_clean_sbu_1, # of connection points: 6
#     Node 1, Type 0, BuildingBlock: VOLQOD_clean_sbu_1, # of connection points: 6
#     Node 2, Type 0, BuildingBlock: VOLQOD_clean_sbu_1, # of connection points: 6
#     Node 3, Type 1, BuildingBlock: KAKCAD_clean_linker_0, # of connection points: 3
#     Node 4, Type 1, BuildingBlock: KAKCAD_clean_linker_0, # of connection points: 3
#     Node 5, Type 1, BuildingBlock: KAKCAD_clean_linker_0, # of connection points: 3
#     Node 6, Type 1, BuildingBlock: KAKCAD_clean_linker_0, # of connection points: 3
#     Node 7, Type 1, BuildingBlock: KAKCAD_clean_linker_0, # of connection points: 3
#     Node 8, Type 1, BuildingBlock: KAKCAD_clean_linker_0, # of connection points: 3
#     Edge 9, Type (0, 1), BuildingBlock: EZIPEK_clean_linker_0, # of connection points: 2
#     Edge 10, Type (0, 1), BuildingBlock: EZIPEK_clean_linker_0, # of connection points: 2
#     Edge 11, Type (0, 1), BuildingBlock: EZIPEK_clean_linker_0, # of connection points: 2
#     Edge 12, Type (0, 1), BuildingBlock: EZIPEK_clean_linker_0, # of connection points: 2
#     Edge 13, Type (0, 1), BuildingBlock: EZIPEK_clean_linker_0, # of connection points: 2
#     Edge 14, Type (0, 1), BuildingBlock: EZIPEK_clean_linker_0, # of connection points: 2
#     Edge 15, Type (0, 1), BuildingBlock: EZIPEK_clean_linker_0, # of connection points: 2
#     Edge 16, Type (0, 1), BuildingBlock: EZIPEK_clean_linker_0, # of connection points: 2
#     Edge 17, Type (0, 1), BuildingBlock: EZIPEK_clean_linker_0, # of connection points: 2
#     Edge 18, Type (0, 1), BuildingBlock: EZIPEK_clean_linker_0, # of connection points: 2
#     Edge 19, Type (0, 1), BuildingBlock: EZIPEK_clean_linker_0, # of connection points: 2
#     Edge 20, Type (0, 1), BuildingBlock: EZIPEK_clean_linker_0, # of connection points: 2
#     Edge 21, Type (0, 1), BuildingBlock: EZIPEK_clean_linker_0, # of connection points: 2
#     Edge 22, Type (0, 1), BuildingBlock: EZIPEK_clean_linker_0, # of connection points: 2
#     Edge 23, Type (0, 1), BuildingBlock: EZIPEK_clean_linker_0, # of connection points: 2
#     Edge 24, Type (0, 1), BuildingBlock: EZIPEK_clean_linker_0, # of connection points: 2
#     Edge 25, Type (0, 1), BuildingBlock: EZIPEK_clean_linker_0, # of connection points: 2
#     Edge 26, Type (0, 1), BuildingBlock: EZIPEK_clean_linker_0, # of connection points: 2
# Relax obj value: 0.167
# Max RMSD: 0.230
# Mean RMSD: 0.114
data_MOF--net-anh--node1-VOLQOD_clean_sbu_1--node2-KAKCAD_clean_linker_0--edge1-EZIPEK_clean_linker_0
_symmetry_space_group_name_H-M    P1
_symmetry_Int_Tables_number       1
_symmetry_cell_setting            triclinic
loop_
_symmetry_equiv_pos_as_xyz
'x, y, z'
_cell_length_a     27.594802
_cell_length_b     27.60279
_cell_length_c     58.967408
_cell_angle_alpha  90.105737
_cell_angle_beta   89.7277
_cell_angle_gamma 120.0196
loop_
_atom_site_label
_atom_site_type_symbol
_atom_site_fract_x
_atom_site_fract_y
_atom_site_fract_z
_atom_type_partial_charge
O0 O 0.98541 0.54267 0.22033 0.0
Zn1 Zn 0.98183 0.55604 0.18695 0.0
O2 O -0.00462 0.5037 0.16946 0.0
Zn3 Zn 0.93172 0.45897 0.15023 0.0
Zn4 Zn 0.00804 0.45418 0.18903 0.0
Zn5 Zn 0.06084 0.54623 0.15075 0.0
O6 O 0.95511 0.46442 0.1175 0.0
O7 O 0.03964 0.54101 0.11799 0.0
O8 O 0.90828 0.55051 0.17921 0.0
O9 O 0.87788 0.48709 0.1516 0.0
O10 O 0.88864 0.37954 0.16122 0.0
O11 O 0.94501 0.3749 0.18667 0.0
O12 O 0.07807 0.45284 0.18069 0.0
O13 O 0.04152 0.63576 0.18128 0.0
O14 O 0.11238 0.51536 0.15276 0.0
O15 O 0.1037 0.62618 0.16079 0.0
C16 C -0.00057 0.51194 0.23134 0.0
C17 C -0.00213 0.50296 0.10732 0.0
C18 C 0.89921 0.35215 0.17579 0.0
C19 C 0.87271 0.52182 0.16406 0.0
C20 C 0.11457 0.47935 0.16543 0.0
C21 C 0.08977 0.65639 0.17229 0.0
O22 O 0.01096 0.47768 0.22157 0.0
O23 O 0.43304 0.98505 0.44608 0.0
Zn24 Zn 0.42239 -0.0054 0.47927 0.0
O25 O 0.48374 -0.00105 0.49743 0.0
Zn26 Zn 0.52171 0.06988 0.5135 0.0
Zn27 Zn 0.53731 -0.00743 0.47768 0.0
Zn28 Zn 0.45381 0.9386 0.51949 0.0
O29 O 0.52283 0.05981 0.54732 0.0
O30 O 0.4738 0.9673 0.55126 0.0
O31 O 0.4167 0.06415 0.4825 0.0
O32 O 0.48318 0.11323 0.5078 0.0
O33 O 0.60017 0.11732 0.50208 0.0
O34 O 0.61363 0.05984 0.47993 0.0
O35 O 0.54303 0.92464 0.48476 0.0
O36 O 0.3487 0.93054 0.48942 0.0
O37 O 0.48368 0.88707 0.51374 0.0
O38 O 0.37032 0.89315 0.51789 0.0
C39 C 0.47282 0.98497 0.43508 0.0
C40 C 0.50142 0.01612 0.55966 0.0
C41 C 0.63126 0.10731 0.48922 0.0
C42 C 0.44343 0.10691 0.49506 0.0
C43 C 0.5185 0.88671 0.49965 0.0
C44 C 0.3338 0.89498 0.50544 0.0
O45 O 0.51515 0.98827 0.44507 0.0
O46 O 0.4596 0.47575 0.77352 0.0
Zn47 Zn 0.43709 0.45879 0.80634 0.0
O48 O 0.50027 0.5084 0.82549 0.0
Zn49 Zn 0.47838 0.55065 0.84487 0.0
Zn50 Zn 0.56536 0.56042 0.80758 0.0
Zn51 Zn 0.52021 0.46358 0.84405 0.0
O52 O 0.49376 0.54345 0.87768 0.0
O53 O 0.50122 0.46664 0.87674 0.0
O54 O 0.36831 0.46434 0.81278 0.0
O55 O 0.39644 0.52144 0.84256 0.0
O56 O 0.51443 0.6306 0.83463 0.0
O57 O 0.58097 0.63928 0.81106 0.0
O58 O 0.6352 0.56051 0.81697 0.0
O59 O 0.41534 0.37828 0.81093 0.0
O60 O 0.60265 0.49346 0.84314 0.0
O61 O 0.4832 0.38452 0.83286 0.0
C62 C 0.506 0.50764 0.76359 0.0
C63 C 0.49689 0.50417 0.88764 0.0
C64 C 0.55492 0.6601 0.82121 0.0
C65 C 0.35868 0.48939 0.82878 0.0
C66 C 0.64273 0.5313 0.83165 0.0
C67 C 0.44084 0.35605 0.82029 0.0
O68 O 0.5502 0.54077 0.77446 0.0
C69 C 0.5151 0.03568 0.32591 0.0
C70 C 0.47899 0.9851 0.3369 0.0
C71 C 0.51829 0.03828 0.30227 0.0
C72 C 0.48634 -0.01002 0.2891 0.0
C73 C 0.45085 0.93914 0.3003 0.0
C74 C 0.44668 0.93692 0.32393 0.0
C75 C 0.48945 -0.00728 0.26383 0.0
C76 C 0.53966 0.02962 0.2526 0.0
C77 C 0.54223 0.03257 0.22883 0.0
C78 C 0.49462 -0.0019 0.21602 0.0
C79 C 0.44443 0.961 0.22695 0.0
C80 C 0.44193 0.95869 0.25072 0.0
C81 C 0.39406 0.92391 0.21381 0.0
C82 C 0.37052 0.94595 0.19882 0.0
C83 C 0.367 0.86608 0.2176 0.0
C84 C 0.31609 0.83084 0.20723 0.0
C85 C 0.29115 0.85291 0.1931 0.0
C86 C 0.5946 0.07323 0.21756 0.0
C87 C 0.61689 0.13039 0.22185 0.0
C88 C 0.62364 0.05537 0.20337 0.0
C89 C 0.67572 0.09439 0.19428 0.0
C90 C 0.6983 0.15157 0.19891 0.0
C91 C 0.66813 0.1693 0.21245 0.0
C92 C 0.31886 0.91056 0.18864 0.0
H93 H 0.54023 0.07337 0.33568 0.0
H94 H 0.5452 0.07843 0.29438 0.0
H95 H 0.42648 0.90076 0.29088 0.0
H96 H 0.41863 0.89748 0.33214 0.0
H97 H 0.57728 0.05573 0.26222 0.0
H98 H 0.40226 0.93103 0.2589 0.0
H99 H 0.49657 0.00029 0.19765 0.0
H100 H 0.39081 -0.00939 0.19584 0.0
H101 H 0.38466 0.84837 0.22904 0.0
H102 H 0.29499 0.78642 0.2109 0.0
H103 H 0.59489 0.14482 0.23272 0.0
H104 H 0.60694 0.01124 0.2 0.0
H105 H 0.29971 0.92814 0.17795 0.0
H106 H 0.68518 0.21327 0.21629 0.0
H107 H 0.69887 0.08008 0.18409 0.0
C108 C 0.47014 0.51093 0.65434 0.0
C109 C 0.50812 0.49994 0.66575 0.0
C110 C 0.46897 0.51096 0.63071 0.0
C111 C 0.50496 0.49887 0.61816 0.0
C112 C 0.54223 0.48679 0.62954 0.0
C113 C 0.54427 0.48797 0.65322 0.0
C114 C 0.50378 0.49968 0.5932 0.0
C115 C 0.51196 0.54776 0.58189 0.0
C116 C 0.50859 0.54849 0.55816 0.0
C117 C 0.49644 0.50024 0.54582 0.0
C118 C 0.4881 0.4518 0.55698 0.0
C119 C 0.4925 0.45201 0.58071 0.0
C120 C 0.47377 0.40065 0.54391 0.0
C121 C 0.43312 0.382 0.52672 0.0
C122 C 0.50034 0.36983 0.54875 0.0
C123 C 0.48637 0.32113 0.53673 0.0
C124 C 0.44557 0.30244 0.51977 0.0
C125 C 0.5163 0.59917 0.54637 0.0
C126 C 0.49236 0.62956 0.55542 0.0
C127 C 0.5472 0.61737 0.52603 0.0
C128 C 0.55396 0.66511 0.51497 0.0
C129 C 0.53009 0.69517 0.52423 0.0
C130 C 0.49936 0.67725 0.54445 0.0
C131 C 0.41899 0.33302 0.51472 0.0
H132 H 0.44194 0.52018 0.66376 0.0
H133 H 0.43973 0.52008 0.6222 0.0
H134 H 0.57042 0.47756 0.6201 0.0
H135 H 0.57395 0.47959 0.6618 0.0
H136 H 0.52159 0.58484 0.59164 0.0
H137 H 0.48511 0.41448 0.58955 0.0
H138 H 0.49297 0.50016 0.52752 0.0
H139 H 0.41163 0.40474 0.52283 0.0
H140 H 0.5322 0.38359 0.56173 0.0
H141 H 0.5072 0.29777 0.54072 0.0
H142 H 0.46755 0.61607 0.57083 0.0
H143 H 0.56658 0.59508 0.5188 0.0
H144 H 0.38728 0.31878 0.50167 0.0
H145 H 0.48045 0.70007 0.55164 0.0
H146 H 0.5778 0.67871 0.49933 0.0
C147 C 0.05593 0.53774 -0.00199 0.0
C148 C 0.00463 0.51089 0.0096 0.0
C149 C 0.05708 0.54041 0.97434 0.0
C150 C 0.00688 0.5161 0.96195 0.0
C151 C 0.95559 0.48886 0.97375 0.0
C152 C 0.95451 0.48642 -0.00261 0.0
C153 C 0.00781 0.51908 0.93681 0.0
C154 C 0.04654 0.51108 0.92419 0.0
C155 C 0.04656 0.51253 0.90038 0.0
C156 C 0.00729 0.52193 0.88918 0.0
C157 C 0.96833 0.53001 0.90151 0.0
C158 C 0.96918 0.52901 0.9253 0.0
C159 C 0.92549 0.53752 0.88952 0.0
C160 C 0.93948 0.57137 0.87003 0.0
C161 C 0.86972 0.5094 0.89722 0.0
C162 C 0.82877 0.51467 0.8856 0.0
C163 C 0.84281 0.54789 0.86608 0.0
C164 C 0.08744 0.50403 0.88717 0.0
C165 C 0.14389 0.53096 0.89371 0.0
C166 C 0.07054 0.46954 0.86782 0.0
C167 C 0.10943 0.4622 0.85526 0.0
C168 C 0.1656 0.48924 0.86192 0.0
C169 C 0.18267 0.52364 0.88115 0.0
C170 C 0.89831 0.57646 0.85835 0.0
H171 H 0.09494 0.55697 0.0073 0.0
H172 H 0.09721 0.56221 0.96577 0.0
H173 H 0.91623 0.46893 0.96471 0.0
H174 H 0.91462 0.46541 0.00619 0.0
H175 H 0.07569 0.5021 0.93288 0.0
H176 H 0.94006 0.53664 0.93489 0.0
H177 H 0.00682 0.52254 0.87081 0.0
H178 H 0.98222 0.59402 0.86386 0.0
H179 H 0.85748 0.48237 0.91195 0.0
H180 H 0.7859 0.49229 0.89167 0.0
H181 H 0.1582 0.55828 0.90835 0.0
H182 H 0.02718 0.44782 0.86254 0.0
H183 H 0.90957 0.60241 0.84331 0.0
H184 H 0.22607 0.54484 0.88639 0.0
H185 H 0.09583 0.43543 0.84045 0.0
C186 C 0.96197 0.51507 0.34149 0.0
C187 C 0.00901 0.52297 0.32916 0.0
C188 C 0.9618 0.51284 0.36512 0.0
C189 C 0.00911 0.51973 0.37673 0.0
C190 C 0.05692 0.5297 0.36446 0.0
C191 C 0.05667 0.53072 0.34077 0.0
C192 C 0.00746 0.51389 0.40159 0.0
C193 C 0.96596 0.46458 0.41175 0.0
C194 C 0.96392 0.45831 0.43535 0.0
C195 C 0.00285 0.50203 0.4489 0.0
C196 C 0.04351 0.55241 0.43897 0.0
C197 C 0.04636 0.55762 0.41521 0.0
C198 C 0.08059 0.60067 0.4534 0.0
C199 C 0.05857 0.61475 0.47224 0.0
C200 C 0.13751 0.63443 0.44789 0.0
C201 C 0.17149 0.68197 0.46069 0.0
C202 C 0.14903 0.69634 0.47914 0.0
C203 C 0.91947 0.40676 0.4458 0.0
C204 C 0.86333 0.39005 0.44155 0.0
C205 C 0.93269 0.37345 0.4595 0.0
C206 C 0.89002 0.32284 0.46822 0.0
C207 C 0.83389 0.30599 0.46373 0.0
C208 C 0.82083 0.34023 0.45061 0.0
C209 C 0.09263 0.66236 0.48503 0.0
H210 H 0.92493 0.50915 0.33277 0.0
H211 H 0.92463 0.50535 0.37435 0.0
H212 H 0.0937 0.53487 0.37317 0.0
H213 H 0.09324 0.53674 0.33148 0.0
H214 H 0.93565 0.43071 0.40125 0.0
H215 H 0.07717 0.59647 0.40731 0.0
H216 H 0.00055 0.49724 0.46719 0.0
H217 H 0.01466 0.58992 0.47668 0.0
H218 H 0.15564 0.62425 0.43362 0.0
H219 H 0.21514 0.70804 0.45604 0.0
H220 H 0.85246 0.41547 0.43113 0.0
H221 H 0.97592 0.38581 0.46285 0.0
H222 H 0.07489 0.67331 0.49921 0.0
H223 H 0.77765 0.32759 0.44694 0.0
H224 H 0.90064 0.29651 0.47816 0.0
C225 C 0.48429 0.96914 0.66843 0.0
C226 C 0.51105 0.02104 0.65736 0.0
C227 C 0.48276 0.96662 0.6921 0.0
C228 C 0.5078 0.01604 0.70504 0.0
C229 C 0.53514 0.06799 0.69379 0.0
C230 C 0.53677 0.07045 0.67012 0.0
C231 C 0.50439 0.01344 0.73016 0.0
C232 C 0.51277 0.97436 0.74213 0.0
C233 C 0.50965 0.97205 0.76592 0.0
C234 C 0.49714 0.00841 0.77783 0.0
C235 C 0.48821 0.04724 0.76605 0.0
C236 C 0.49223 0.04986 0.7423 0.0
C237 C 0.47464 0.08546 0.77834 0.0
C238 C 0.42793 0.06451 0.79288 0.0
C239 C 0.50665 0.14317 0.77439 0.0
C240 C 0.49139 0.17938 0.7843 0.0
C241 C 0.44356 0.15842 0.79811 0.0
C242 C 0.52006 0.93174 0.77817 0.0
C243 C 0.48912 0.87477 0.77271 0.0
C244 C 0.56291 0.95024 0.79436 0.0
C245 C 0.57631 0.91238 0.8042 0.0
C246 C 0.54608 0.85559 0.79827 0.0
C247 C 0.50179 0.83693 0.78281 0.0
C248 C 0.41208 0.10085 0.80257 0.0
H249 H 0.46403 0.93068 0.65873 0.0
H250 H 0.46087 0.92605 0.70026 0.0
H251 H 0.55538 0.10672 0.70331 0.0
H252 H 0.55754 0.1108 0.66175 0.0
H253 H 0.52313 0.94658 0.73301 0.0
H254 H 0.48443 0.07944 0.73326 0.0
H255 H 0.49445 0.00656 0.79619 0.0
H256 H 0.40254 0.01997 0.79598 0.0
H257 H 0.54293 0.16009 0.76331 0.0
H258 H 0.5159 0.22373 0.78062 0.0
H259 H 0.45579 0.85974 0.76033 0.0
H260 H 0.58743 -0.0058 0.79866 0.0
H261 H 0.37471 0.0841 0.81299 0.0
H262 H 0.4783 0.79323 0.77796 0.0
H263 H 0.61104 0.92745 0.81589 0.0
C264 C 0.51595 0.46652 0.99675 0.0
C265 C 0.49081 0.49268 0.98535 0.0
C266 C 0.51429 0.46361 0.02041 0.0
C267 C 0.48764 0.48709 0.033 0.0
C268 C 0.46258 0.51335 0.02138 0.0
C269 C 0.46404 0.51597 -0.00227 0.0
C270 C 0.48638 0.4847 0.05817 0.0
C271 C 0.53386 0.49383 0.07033 0.0
C272 C 0.53334 0.4927 0.09415 0.0
C273 C 0.4848 0.48282 0.10582 0.0
C274 C 0.43711 0.47405 0.09397 0.0
C275 C 0.43805 0.47441 0.07015 0.0
C276 C 0.3872 0.46689 0.10646 0.0
C277 C 0.3686 0.43441 0.12638 0.0
C278 C 0.35892 0.49431 0.0989 0.0
C279 C 0.3134 0.48976 0.11104 0.0
C280 C 0.29555 0.458 0.13098 0.0
C281 C 0.58361 0.50219 0.10683 0.0
C282 C 0.61498 0.47783 0.0993 0.0
C283 C 0.60044 0.53527 0.12659 0.0
C284 C 0.64754 0.5436 0.13858 0.0
C285 C 0.67856 0.51928 0.13087 0.0
C286 C 0.66215 0.48644 0.11121 0.0
C287 C 0.32309 0.43011 0.1386 0.0
H288 H 0.53658 0.44818 0.98732 0.0
H289 H 0.53335 0.4425 0.02883 0.0
H290 H 0.4425 0.53259 0.03056 0.0
H291 H 0.44462 0.53645 0.98907 0.0
H292 H 0.57188 0.50344 0.06125 0.0
H293 H 0.40082 0.46612 0.06091 0.0
H294 H 0.48432 0.48251 0.12419 0.0
H295 H 0.38914 0.41229 0.13248 0.0
H296 H 0.37273 0.52036 0.08387 0.0
H297 H 0.29248 0.51165 0.10506 0.0
H298 H 0.60266 0.4515 0.08436 0.0
H299 H 0.57758 0.55521 0.13265 0.0
H300 H 0.30946 0.40532 0.15398 0.0
H301 H 0.68575 0.46724 0.10517 0.0
H302 H 0.66 0.56916 0.15374 0.0
C303 C 0.14787 0.42233 0.14502 0.0
C304 C 0.15851 0.46532 0.16081 0.0
C305 C 0.25859 0.49709 0.16024 0.0
C306 C 0.2482 0.4553 0.14386 0.0
N307 N 0.1837 0.37039 0.12453 0.0
N308 N 0.21978 0.53492 0.18745 0.0
C309 C 0.19288 0.41515 0.1376 0.0
C310 C 0.21266 0.49979 0.1698 0.0
N311 N 0.09528 0.39035 0.13633 0.0
N312 N 0.31248 0.53555 0.16583 0.0
H313 H 0.18659 0.53766 0.19464 0.0
H314 H 0.25722 0.55784 0.19618 0.0
H315 H 0.34695 0.5334 0.15978 0.0
H316 H 0.32346 0.571 0.17557 0.0
H317 H 0.08601 0.36312 0.12271 0.0
H318 H 0.06086 0.39307 0.14203 0.0
H319 H 0.14412 0.33679 0.12105 0.0
H320 H 0.21611 0.36454 0.11861 0.0
C321 C 0.70233 0.16656 0.45986 0.0
C322 C 0.6873 0.15386 0.48309 0.0
C323 C 0.77183 0.24007 0.49427 0.0
C324 C 0.78802 0.25068 0.47114 0.0
N325 N 0.77775 0.21559 0.43295 0.0
N326 N 0.71463 0.17075 0.52242 0.0
C327 C 0.75632 0.21085 0.4543 0.0
C328 C 0.72431 0.18819 0.50035 0.0
N329 N 0.664 0.13969 0.44307 0.0
N330 N 0.8 0.28033 0.51026 0.0
H331 H 0.68097 0.1322 0.52735 0.0
H332 H 0.74295 0.19179 0.53542 0.0
H333 H 0.83501 0.31892 0.50648 0.0
H334 H 0.78607 0.27707 0.52694 0.0
H335 H 0.67187 0.15183 0.42611 0.0
H336 H 0.62237 0.10966 0.44611 0.0
H337 H 0.75831 0.18473 0.42062 0.0
H338 H 0.81772 0.24745 0.42839 0.0
C339 C 0.57896 0.74011 0.79363 0.0
C340 C 0.56837 0.71846 0.81624 0.0
C341 C 0.55335 0.79491 0.82848 0.0
C342 C 0.56358 0.81568 0.80601 0.0
N343 N 0.60712 0.8215 0.76992 0.0
N344 N 0.56752 0.73842 0.85609 0.0
C345 C 0.58395 0.79294 0.78959 0.0
C346 C 0.56285 0.75031 0.83401 0.0
N347 N 0.57954 0.70927 0.77557 0.0
N348 N 0.53207 0.81564 0.84423 0.0
H349 H 0.57749 0.70789 0.86059 0.0
H350 H 0.56804 0.76301 0.86962 0.0
H351 H 0.5249 0.84858 0.84082 0.0
H352 H 0.518 0.79753 0.86015 0.0
H353 H 0.57994 0.72135 0.75881 0.0
H354 H 0.57461 0.6696 0.77666 0.0
H355 H 0.62748 0.80934 0.75824 0.0
H356 H 0.61136 0.86057 0.76657 0.0
C357 C 0.77198 0.49128 0.16915 0.0
C358 C 0.82481 0.52999 0.15986 0.0
C359 C 0.78195 0.57175 0.13666 0.0
C360 C 0.72856 0.52755 0.14326 0.0
N361 N 0.67093 0.44537 0.16571 0.0
N362 N 0.88206 0.60724 0.13503 0.0
C363 C 0.723 0.48776 0.15978 0.0
C364 C 0.83052 0.57099 0.14395 0.0
N365 N 0.76905 0.45809 0.18689 0.0
N366 N 0.78592 0.61415 0.12337 0.0
H367 H 0.91879 0.60922 0.14069 0.0
H368 H 0.88842 0.63353 0.12134 0.0
H369 H 0.75092 0.61527 0.11746 0.0
H370 H 0.82348 0.65034 0.11966 0.0
H371 H 0.73244 0.43216 0.19582 0.0
H372 H 0.80456 0.45996 0.19397 0.0
H373 H 0.66386 0.41123 0.17559 0.0
H374 H 0.63416 0.44289 0.15982 0.0
C375 C 0.2341 0.85073 0.49238 0.0
C376 C 0.27402 0.84946 0.50695 0.0
C377 C 0.21683 0.74804 0.51024 0.0
C378 C 0.18479 0.74858 0.49162 0.0
N379 N 0.15715 0.79915 0.46642 0.0
N380 N 0.28334 0.80253 0.53958 0.0
C381 C 0.19076 0.79963 0.48347 0.0
C382 C 0.25923 0.79974 0.5191 0.0
N383 N 0.23671 0.90054 0.48802 0.0
N384 N 0.20861 0.69834 0.51861 0.0
H385 H 0.30925 0.84068 0.54755 0.0
H386 H 0.27177 0.76794 0.54997 0.0
H387 H 0.17648 0.65971 0.51298 0.0
H388 H 0.23523 0.6954 0.53028 0.0
H389 H 0.20682 0.90432 0.47872 0.0
H390 H 0.2656 0.93739 0.49617 0.0
H391 H 0.16377 0.83494 0.45788 0.0
H392 H 0.1237 0.76228 0.4601 0.0
C393 C 0.41325 0.27505 0.793 0.0
C394 C 0.4239 0.29673 0.81556 0.0
C395 C 0.4336 0.21756 0.82827 0.0
C396 C 0.42472 0.19741 0.80573 0.0
N397 N 0.38499 0.1937 0.76916 0.0
N398 N 0.42227 0.27703 0.8555 0.0
C399 C 0.40681 0.22154 0.78904 0.0
C400 C 0.42667 0.26394 0.83352 0.0
N401 N 0.41409 0.30654 0.77497 0.0
N402 N 0.45143 0.1945 0.84434 0.0
H403 H 0.41482 0.30948 0.85973 0.0
H404 H 0.41972 0.25208 0.8692 0.0
H405 H 0.456 0.15982 0.84114 0.0
H406 H 0.46482 0.21187 0.86038 0.0
H407 H 0.41374 0.2945 0.75818 0.0
H408 H 0.4198 0.34655 0.77616 0.0
H409 H 0.36636 0.20682 0.75717 0.0
H410 H 0.38011 0.15431 0.7659 0.0
C411 C 0.57495 0.84667 0.51494 0.0
C412 C 0.53061 0.84073 0.50101 0.0
C413 C 0.49354 0.74003 0.49791 0.0
C414 C 0.53602 0.74545 0.51288 0.0
N415 N 0.62453 0.80309 0.53119 0.0
N416 N 0.45692 0.7867 0.47453 0.0
C417 C 0.57946 0.79875 0.51982 0.0
C418 C 0.493 0.78887 0.49085 0.0
N419 N 0.61083 0.89754 0.52435 0.0
N420 N 0.45239 0.688 0.49139 0.0
H421 H 0.45584 0.82216 0.46914 0.0
H422 H 0.43147 0.75117 0.46501 0.0
H423 H 0.45297 0.65155 0.49552 0.0
H424 H 0.41649 0.68046 0.48274 0.0
H425 H 0.63998 0.90362 0.53678 0.0
H426 H 0.60985 0.93386 0.52036 0.0
H427 H 0.66003 0.84097 0.5351 0.0
H428 H 0.62841 0.76837 0.53516 0.0
C429 C 0.73025 0.58372 0.85404 0.0
C430 C 0.69986 0.54392 0.83693 0.0
C431 C 0.76858 0.51272 0.83631 0.0
C432 C 0.79834 0.55168 0.85379 0.0
N433 N 0.81608 0.63253 0.87574 0.0
N434 N 0.69476 0.47967 0.80816 0.0
C435 C 0.78197 0.59008 0.86144 0.0
C436 C 0.72076 0.51146 0.82682 0.0
N437 N 0.70828 0.61346 0.8639 0.0
N438 N 0.78468 0.47541 0.82957 0.0
H439 H 0.65935 0.47785 0.80101 0.0
H440 H 0.71056 0.45881 0.79866 0.0
H441 H 0.82064 0.47644 0.83563 0.0
H442 H 0.76115 0.44168 0.81888 0.0
H443 H 0.72468 0.63792 0.87836 0.0
H444 H 0.67148 0.61141 0.8583 0.0
H445 H 0.80931 0.6651 0.88032 0.0
H446 H 0.85403 0.6378 0.88162 0.0
C447 C 0.16918 0.74665 0.15813 0.0
C448 C 0.13259 0.7159 0.17627 0.0
C449 C 0.19052 0.79311 0.20194 0.0
C450 C 0.2333 0.81509 0.18535 0.0
N451 N 0.26418 0.81444 0.14715 0.0
N452 N 0.11121 0.71013 0.21672 0.0
C453 C 0.22262 0.79306 0.16311 0.0
C454 C 0.14297 0.73968 0.19847 0.0
N455 N 0.15254 0.73154 0.13622 0.0
N456 N 0.19639 0.82283 0.22129 0.0
H457 H 0.07649 0.6703 0.21589 0.0
H458 H 0.12228 0.72358 0.23339 0.0
H459 H 0.23134 0.86214 0.22418 0.0
H460 H 0.16428 0.81134 0.23312 0.0
H461 H 0.17576 0.75494 0.12229 0.0
H462 H 0.11263 0.69898 0.13214 0.0
H463 H 0.26067 0.79571 0.13142 0.0
H464 H 0.3034 0.8493 0.15016 0.0
C465 C 0.38776 0.14815 0.50984 0.0
C466 C 0.42967 0.15189 0.49487 0.0
C467 C 0.46501 0.25178 0.48937 0.0
C468 C 0.43095 0.24993 0.50776 0.0
N469 N 0.35637 0.19777 0.53445 0.0
N470 N 0.50406 0.20362 0.46815 0.0
C471 C 0.3902 0.19824 0.51733 0.0
C472 C 0.46634 0.20254 0.48356 0.0
N473 N 0.34674 0.09682 0.51717 0.0
N474 N 0.49651 0.30088 0.47791 0.0
H475 H 0.50366 0.16732 0.46283 0.0
H476 H 0.53637 0.24001 0.46104 0.0
H477 H 0.49611 0.33744 0.48207 0.0
H478 H 0.5196 0.3047 0.46335 0.0
H479 H 0.31243 0.09042 0.52686 0.0
H480 H 0.34471 0.05972 0.51191 0.0
H481 H 0.33013 0.16256 0.54403 0.0
H482 H 0.35593 0.2337 0.53964 0.0
C483 C 0.26191 0.4347 0.84419 0.0
C484 C 0.30235 0.48175 0.83186 0.0
C485 C 0.24297 0.52418 0.83345 0.0
C486 C 0.20746 0.48194 0.84896 0.0
N487 N 0.18125 0.39662 0.86933 0.0
N488 N 0.33244 0.57054 0.8138 0.0
C489 C 0.21575 0.43641 0.85408 0.0
C490 C 0.29277 0.52597 0.82591 0.0
N491 N 0.26829 0.38896 0.84667 0.0
N492 N 0.22878 0.56234 0.82604 0.0
H493 H 0.36788 0.57148 0.80698 0.0
H494 H 0.33161 0.6074 0.81121 0.0
H495 H 0.19254 0.56201 0.83143 0.0
H496 H 0.25015 0.5914 0.81327 0.0
H497 H 0.23794 0.35126 0.8537 0.0
H498 H 0.30236 0.38709 0.83996 0.0
H499 H 0.18877 0.36607 0.87593 0.0
H500 H 0.14611 0.39575 0.8764 0.0
C501 C 0.84147 0.2757 0.20432 0.0
C502 C 0.85488 0.29398 0.18135 0.0
C503 C 0.76812 0.2115 0.16888 0.0
C504 C 0.75575 0.19354 0.19172 0.0
N505 N 0.78998 0.19683 0.22946 0.0
N506 N 0.84049 0.26851 0.14172 0.0
C507 C 0.79603 0.22155 0.20879 0.0
C508 C 0.82126 0.25826 0.16357 0.0
N509 N 0.86801 0.31095 0.22207 0.0
N510 N 0.72849 0.18595 0.15248 0.0
H511 H 0.88045 0.30085 0.13746 0.0
H512 H 0.81952 0.24128 0.12838 0.0
H513 H 0.6892 0.15135 0.15572 0.0
H514 H 0.73334 0.20157 0.13604 0.0
H515 H 0.85478 0.30058 0.23884 0.0
H516 H 0.89908 0.35246 0.22032 0.0
H517 H 0.82086 0.21336 0.24189 0.0
H518 H 0.75685 0.15685 0.23314 0.0
C519 C -0.00843 0.54539 0.07093 0.0
C520 C -0.00116 0.50432 0.08235 0.0
C521 C 0.00627 0.46523 0.04604 0.0
C522 C 0.00321 0.50888 0.03468 0.0
N523 N 0.00047 0.59481 0.0358 0.0
N524 N 0.02075 0.43003 0.08154 0.0
C525 C -0.002 0.55024 0.04699 0.0
C526 C 0.00816 0.46541 0.07012 0.0
N527 N 0.97664 0.57842 0.08293 0.0
N528 N 0.00612 0.42303 0.0338 0.0
H529 H 0.02193 0.42862 0.0992 0.0
H530 H 0.03412 0.40502 0.07362 0.0
H531 H 0.00621 0.4223 0.01611 0.0
H532 H 0.00194 0.38678 0.04106 0.0
H533 H 0.9647 0.6049 0.0754 0.0
H534 H 0.97179 0.57619 0.10052 0.0
H535 H 0.00328 0.62957 0.04398 0.0
H536 H 0.00393 0.59914 0.0182 0.0
C537 C 0.46076 0.02065 0.3975 0.0
C538 C 0.471 0.9827 0.40997 0.0
C539 C 0.49095 0.94941 0.37455 0.0
C540 C 0.47475 0.98289 0.36206 0.0
N541 N 0.43084 0.03973 0.3618 0.0
N542 N 0.4822 0.90128 0.40987 0.0
C543 C 0.45547 0.01525 0.37358 0.0
C544 C 0.48208 0.94415 0.39835 0.0
N545 N 0.45925 0.06388 0.40819 0.0
N546 N 0.51689 0.92447 0.3639 0.0
H547 H 0.4735 0.89449 0.42718 0.0
H548 H 0.48484 0.86905 0.40181 0.0
H549 H 0.52576 0.92859 0.34657 0.0
H550 H 0.53454 0.90435 0.37265 0.0
H551 H 0.45748 0.09572 0.39943 0.0
H552 H 0.46591 0.07157 0.42552 0.0
H553 H 0.41123 0.0592 0.36971 0.0
H554 H 0.42483 0.03555 0.3443 0.0
C555 C 0.50015 0.45684 0.7276 0.0
C556 C 0.50852 0.50611 0.73861 0.0
C557 C 0.52647 0.55366 0.70203 0.0
C558 C 0.51047 0.50225 0.69087 0.0
N559 N 0.47247 0.40223 0.69308 0.0
N560 N 0.51861 0.59791 0.73617 0.0
C561 C 0.49472 0.45298 0.70365 0.0
C562 C 0.51882 0.55372 0.72581 0.0
N563 N 0.49926 0.41454 0.73992 0.0
N564 N 0.55029 0.60259 0.69003 0.0
H565 H 0.51039 0.59809 0.75344 0.0
H566 H 0.52063 0.63149 0.7273 0.0
H567 H 0.5579 0.60443 0.67262 0.0
H568 H 0.56757 0.64177 0.6977 0.0
H569 H 0.49867 0.37993 0.73254 0.0
H570 H 0.50484 0.4168 0.75746 0.0
H571 H 0.455 0.36443 0.70187 0.0
H572 H 0.46668 0.39736 0.67559 0.0
C573 C 0.45811 0.01274 0.59733 0.0
C574 C 0.5057 0.02189 0.58456 0.0
C575 C 0.55717 0.03076 0.61953 0.0
C576 C 0.51025 0.0235 0.63228 0.0
N577 N 0.42008 0.01745 0.63392 0.0
N578 N 0.60305 0.04792 0.58278 0.0
C579 C 0.46182 0.01735 0.62133 0.0
C580 C 0.55616 0.03372 0.59546 0.0
N581 N 0.4091 -0.00122 0.58648 0.0
N582 N 0.60174 0.03268 0.63044 0.0
H583 H 0.60324 0.04851 0.56509 0.0
H584 H 0.64267 0.06288 0.58967 0.0
H585 H 0.60427 0.03156 0.64806 0.0
H586 H 0.63455 0.0316 0.62213 0.0
H587 H 0.37105 0.98468 0.59483 0.0
H588 H 0.40556 -0.00172 0.56886 0.0
H589 H 0.38646 0.01923 0.62692 0.0
H590 H 0.42111 0.02016 0.65157 0.0
C591 C 0.54203 0.54145 0.92519 0.0
C592 C 0.49515 0.50176 0.91262 0.0
C593 C 0.44738 0.45363 0.94764 0.0
C594 C 0.49245 0.4957 0.96028 0.0
N595 N 0.57927 0.58352 0.9618 0.0
N596 N 0.40003 0.42514 0.9114 0.0
C597 C 0.53885 0.5408 0.94925 0.0
C598 C 0.44693 0.4591 0.9237 0.0
N599 N 0.59026 0.57834 0.91412 0.0
N600 N 0.40568 0.40789 0.9585 0.0
H601 H 0.39821 0.42786 0.89381 0.0
H602 H 0.36154 0.39729 0.91868 0.0
H603 H 0.4039 0.40313 0.97608 0.0
H604 H 0.37504 0.37275 0.95008 0.0
H605 H 0.6279 0.60412 0.92233 0.0
H606 H 0.59402 0.58024 0.89649 0.0
H607 H 0.61078 0.62062 0.95478 0.0
H608 H 0.57912 0.58371 0.9795 0.0
C609 C 0.96183 0.46967 0.26932 0.0
C610 C 0.0017 0.51552 0.25631 0.0
C611 C 0.04287 0.56881 0.29104 0.0
C612 C 0.00718 0.52054 0.30403 0.0
N613 N 0.94098 0.42124 0.30526 0.0
N614 N 0.08675 0.60495 0.25454 0.0
C615 C 0.96899 0.46977 0.29309 0.0
C616 C 0.04415 0.56416 0.26708 0.0
N617 N 0.91591 0.42707 0.2591 0.0
N618 N 0.07408 0.61939 0.30147 0.0
H619 H 0.08961 0.60221 0.23699 0.0
H620 H 0.1218 0.63877 0.26172 0.0
H621 H 0.07354 0.62466 0.31897 0.0
H622 H 0.09642 0.65689 0.29261 0.0
H623 H 0.8828 0.39505 0.26809 0.0
H624 H 0.90814 0.42713 0.24181 0.0
H625 H 0.91692 0.38219 0.29771 0.0
H626 H 0.94624 0.41912 0.32266 0.0
loop_
_geom_bond_atom_site_label_1
_geom_bond_atom_site_label_2
_geom_bond_distance
_geom_bond_site_symmetry_2
_ccdc_geom_bond_type
O0 Zn1 1.953 . S
O0 C16 1.225 1_655 S
Zn1 O0 1.953 . S
Zn1 O2 1.949 1_655 S
Zn1 O8 1.919 . S
Zn1 O13 1.924 1_655 S
O2 Zn1 1.949 1_455 S
O2 Zn3 1.923 1_455 S
O2 Zn4 1.950 . S
O2 Zn5 1.945 . S
Zn3 O2 1.923 1_655 S
Zn3 O6 1.933 . S
Zn3 O9 1.941 . S
Zn3 O10 1.965 . S
Zn4 O2 1.950 . S
Zn4 O11 1.938 1_455 S
Zn4 O12 1.906 . S
Zn4 O22 1.953 . S
Zn5 O2 1.945 . S
Zn5 O7 1.932 . S
Zn5 O14 1.977 . S
Zn5 O15 1.910 . S
O6 Zn3 1.933 . S
O6 C17 1.226 1_655 S
O7 Zn5 1.932 . S
O7 C17 1.307 . S
O8 Zn1 1.919 . S
O8 C19 1.253 . S
O9 Zn3 1.941 . S
O9 C19 1.283 . S
O10 Zn3 1.965 . S
O10 C18 1.303 . S
O11 Zn4 1.938 1_655 S
O11 C18 1.247 . S
O12 Zn4 1.906 . S
O12 C20 1.304 . S
O13 Zn1 1.924 1_455 S
O13 C21 1.311 . S
O14 Zn5 1.977 . S
O14 C20 1.272 . S
O15 Zn5 1.910 . S
O15 C21 1.231 . S
C16 O0 1.225 1_455 S
C16 O22 1.298 . S
C17 O6 1.226 1_455 S
C17 O7 1.307 . S
C18 O10 1.303 . S
C18 O11 1.247 . S
C19 O8 1.253 . S
C19 O9 1.283 . S
C20 O12 1.304 . S
C20 O14 1.272 . S
C21 O13 1.311 . S
C21 O15 1.231 . S
O22 Zn4 1.953 . S
O22 C16 1.298 . S
O23 Zn24 1.953 . S
O23 C39 1.225 . S
Zn24 O23 1.953 . S
Zn24 O25 1.949 . S
Zn24 O31 1.919 . S
Zn24 O36 1.924 1_545 S
O25 Zn24 1.949 . S
O25 Zn26 1.923 . S
O25 Zn27 1.950 1_545 S
O25 Zn28 1.945 1_545 S
Zn26 O25 1.923 . S
Zn26 O29 1.933 . S
Zn26 O32 1.941 . S
Zn26 O33 1.965 . S
Zn27 O25 1.950 1_565 S
Zn27 O34 1.938 1_565 S
Zn27 O35 1.906 . S
Zn27 O45 1.953 . S
Zn28 O25 1.945 1_565 S
Zn28 O30 1.932 . S
Zn28 O37 1.977 . S
Zn28 O38 1.910 . S
O29 Zn26 1.933 . S
O29 C40 1.226 . S
O30 Zn28 1.932 . S
O30 C40 1.307 1_565 S
O31 Zn24 1.919 . S
O31 C42 1.253 . S
O32 Zn26 1.941 . S
O32 C42 1.283 . S
O33 Zn26 1.965 . S
O33 C41 1.303 . S
O34 Zn27 1.938 1_545 S
O34 C41 1.247 . S
O35 Zn27 1.906 . S
O35 C43 1.304 . S
O36 Zn24 1.924 1_565 S
O36 C44 1.311 . S
O37 Zn28 1.977 . S
O37 C43 1.272 . S
O38 Zn28 1.910 . S
O38 C44 1.231 . S
C39 O23 1.225 . S
C39 O45 1.298 1_545 S
C40 O29 1.226 . S
C40 O30 1.307 1_545 S
C41 O33 1.303 . S
C41 O34 1.247 . S
C42 O31 1.253 . S
C42 O32 1.283 . S
C43 O35 1.304 . S
C43 O37 1.272 . S
C44 O36 1.311 . S
C44 O38 1.231 . S
O45 Zn27 1.953 . S
O45 C39 1.298 1_565 S
O46 Zn47 1.953 . S
O46 C62 1.225 . S
Zn47 O46 1.953 . S
Zn47 O48 1.949 . S
Zn47 O54 1.919 . S
Zn47 O59 1.924 . S
O48 Zn47 1.949 . S
O48 Zn49 1.923 . S
O48 Zn50 1.950 . S
O48 Zn51 1.945 . S
Zn49 O48 1.923 . S
Zn49 O52 1.933 . S
Zn49 O55 1.941 . S
Zn49 O56 1.965 . S
Zn50 O48 1.950 . S
Zn50 O57 1.938 . S
Zn50 O58 1.906 . S
Zn50 O68 1.953 . S
Zn51 O48 1.945 . S
Zn51 O53 1.932 . S
Zn51 O60 1.977 . S
Zn51 O61 1.910 . S
O52 Zn49 1.933 . S
O52 C63 1.226 . S
O53 Zn51 1.932 . S
O53 C63 1.307 . S
O54 Zn47 1.919 . S
O54 C65 1.253 . S
O55 Zn49 1.941 . S
O55 C65 1.283 . S
O56 Zn49 1.965 . S
O56 C64 1.303 . S
O57 Zn50 1.938 . S
O57 C64 1.247 . S
O58 Zn50 1.906 . S
O58 C66 1.304 . S
O59 Zn47 1.924 . S
O59 C67 1.311 . S
O60 Zn51 1.977 . S
O60 C66 1.272 . S
O61 Zn51 1.910 . S
O61 C67 1.231 . S
C62 O46 1.225 . S
C62 O68 1.298 . S
C63 O52 1.226 . S
C63 O53 1.307 . S
C64 O56 1.303 . S
C64 O57 1.247 . S
C65 O54 1.253 . S
C65 O55 1.283 . S
C66 O58 1.304 . S
C66 O60 1.272 . S
C67 O59 1.311 . S
C67 O61 1.231 . S
O68 Zn50 1.953 . S
O68 C62 1.298 . S
C69 C70 1.386 . S
C69 C71 1.397 . S
C69 H93 0.931 . S
C70 C69 1.386 . S
C70 C74 1.397 1_545 S
C71 C69 1.397 . S
C71 C72 1.384 . S
C71 H94 0.930 . S
C72 C71 1.384 . S
C72 C73 1.377 1_545 S
C72 C75 1.481 . S
C73 C72 1.377 1_565 S
C73 C74 1.389 . S
C73 H95 0.929 . S
C74 C70 1.397 1_565 S
C74 C73 1.389 . S
C74 H96 0.931 . S
C75 C72 1.481 . S
C75 C76 1.387 . S
C75 C80 1.390 1_545 S
C76 C75 1.387 . S
C76 C77 1.401 . S
C76 H97 0.930 . S
C77 C76 1.401 . S
C77 C78 1.376 . S
C77 C86 1.511 . S
C78 C77 1.376 . S
C78 C79 1.392 1_545 S
C78 H99 0.931 . S
C79 C78 1.392 1_565 S
C79 C80 1.361 . S
C79 C81 1.500 . S
C80 C75 1.390 1_565 S
C80 C79 1.361 . S
C80 H98 0.931 . S
C81 C79 1.500 . S
C81 C82 1.371 . S
C81 C83 1.365 . S
C82 C81 1.371 . S
C82 C92 1.386 . S
C82 H100 0.931 . S
C83 C81 1.365 . S
C83 C84 1.409 . S
C83 H101 0.929 . S
C84 C83 1.409 . S
C84 C85 1.380 . S
C84 H102 0.930 . S
C85 C84 1.380 . S
C85 C92 1.357 . S
C86 C77 1.511 . S
C86 C87 1.341 . S
C86 C88 1.371 . S
C87 C86 1.341 . S
C87 C91 1.394 . S
C87 H103 0.930 . S
C88 C86 1.371 . S
C88 C89 1.392 . S
C88 H104 0.931 . S
C89 C88 1.392 . S
C89 C90 1.331 . S
C89 H107 0.932 . S
C90 C89 1.331 . S
C90 C91 1.336 . S
C91 C87 1.394 . S
C91 C90 1.336 . S
C91 H106 0.929 . S
C92 C82 1.386 . S
C92 C85 1.357 . S
C92 H105 0.928 . S
H93 C69 0.931 . S
H94 C71 0.930 . S
H95 C73 0.929 . S
H96 C74 0.931 . S
H97 C76 0.930 . S
H98 C80 0.931 . S
H99 C78 0.931 . S
H100 C82 0.931 . S
H101 C83 0.929 . S
H102 C84 0.930 . S
H103 C87 0.930 . S
H104 C88 0.931 . S
H105 C92 0.928 . S
H106 C91 0.929 . S
H107 C89 0.932 . S
C108 C109 1.386 . S
C108 C110 1.397 . S
C108 H132 0.931 . S
C109 C108 1.386 . S
C109 C113 1.397 . S
C110 C108 1.397 . S
C110 C111 1.384 . S
C110 H133 0.930 . S
C111 C110 1.384 . S
C111 C112 1.377 . S
C111 C114 1.481 . S
C112 C111 1.377 . S
C112 C113 1.389 . S
C112 H134 0.929 . S
C113 C109 1.397 . S
C113 C112 1.389 . S
C113 H135 0.931 . S
C114 C111 1.481 . S
C114 C115 1.387 . S
C114 C119 1.390 . S
C115 C114 1.387 . S
C115 C116 1.401 . S
C115 H136 0.930 . S
C116 C115 1.401 . S
C116 C117 1.376 . S
C116 C125 1.511 . S
C117 C116 1.376 . S
C117 C118 1.392 . S
C117 H138 0.931 . S
C118 C117 1.392 . S
C118 C119 1.361 . S
C118 C120 1.500 . S
C119 C114 1.390 . S
C119 C118 1.361 . S
C119 H137 0.931 . S
C120 C118 1.500 . S
C120 C121 1.371 . S
C120 C122 1.365 . S
C121 C120 1.371 . S
C121 C131 1.386 . S
C121 H139 0.931 . S
C122 C120 1.365 . S
C122 C123 1.409 . S
C122 H140 0.929 . S
C123 C122 1.409 . S
C123 C124 1.380 . S
C123 H141 0.930 . S
C124 C123 1.380 . S
C124 C131 1.357 . S
C125 C116 1.511 . S
C125 C126 1.341 . S
C125 C127 1.371 . S
C126 C125 1.341 . S
C126 C130 1.394 . S
C126 H142 0.930 . S
C127 C125 1.371 . S
C127 C128 1.392 . S
C127 H143 0.931 . S
C128 C127 1.392 . S
C128 C129 1.331 . S
C128 H146 0.932 . S
C129 C128 1.331 . S
C129 C130 1.336 . S
C130 C126 1.394 . S
C130 C129 1.336 . S
C130 H145 0.929 . S
C131 C121 1.386 . S
C131 C124 1.357 . S
C131 H144 0.928 . S
H132 C108 0.931 . S
H133 C110 0.930 . S
H134 C112 0.929 . S
H135 C113 0.931 . S
H136 C115 0.930 . S
H137 C119 0.931 . S
H138 C117 0.931 . S
H139 C121 0.931 . S
H140 C122 0.929 . S
H141 C123 0.930 . S
H142 C126 0.930 . S
H143 C127 0.931 . S
H144 C131 0.928 . S
H145 C130 0.929 . S
H146 C128 0.932 . S
C147 C148 1.386 1_556 S
C147 C149 1.397 . S
C147 H171 0.931 1_556 S
C148 C147 1.386 1_554 S
C148 C152 1.397 1_454 S
C149 C147 1.397 . S
C149 C150 1.384 . S
C149 H172 0.930 . S
C150 C149 1.384 . S
C150 C151 1.377 1_455 S
C150 C153 1.481 . S
C151 C150 1.377 1_655 S
C151 C152 1.389 . S
C151 H173 0.929 . S
C152 C148 1.397 1_656 S
C152 C151 1.389 . S
C152 H174 0.931 1_556 S
C153 C150 1.481 . S
C153 C154 1.387 . S
C153 C158 1.390 1_455 S
C154 C153 1.387 . S
C154 C155 1.401 . S
C154 H175 0.930 . S
C155 C154 1.401 . S
C155 C156 1.376 . S
C155 C164 1.511 . S
C156 C155 1.376 . S
C156 C157 1.392 1_455 S
C156 H177 0.931 . S
C157 C156 1.392 1_655 S
C157 C158 1.361 . S
C157 C159 1.500 . S
C158 C153 1.390 1_655 S
C158 C157 1.361 . S
C158 H176 0.931 . S
C159 C157 1.500 . S
C159 C160 1.371 . S
C159 C161 1.365 . S
C160 C159 1.371 . S
C160 C170 1.386 . S
C160 H178 0.931 . S
C161 C159 1.365 . S
C161 C162 1.409 . S
C161 H179 0.929 . S
C162 C161 1.409 . S
C162 C163 1.380 . S
C162 H180 0.930 . S
C163 C162 1.380 . S
C163 C170 1.357 . S
C164 C155 1.511 . S
C164 C165 1.341 . S
C164 C166 1.371 . S
C165 C164 1.341 . S
C165 C169 1.394 . S
C165 H181 0.930 . S
C166 C164 1.371 . S
C166 C167 1.392 . S
C166 H182 0.931 . S
C167 C166 1.392 . S
C167 C168 1.331 . S
C167 H185 0.932 . S
C168 C167 1.331 . S
C168 C169 1.336 . S
C169 C165 1.394 . S
C169 C168 1.336 . S
C169 H184 0.929 . S
C170 C160 1.386 . S
C170 C163 1.357 . S
C170 H183 0.928 . S
H171 C147 0.931 1_554 S
H172 C149 0.930 . S
H173 C151 0.929 . S
H174 C152 0.931 1_554 S
H175 C154 0.930 . S
H176 C158 0.931 . S
H177 C156 0.931 . S
H178 C160 0.931 . S
H179 C161 0.929 . S
H180 C162 0.930 . S
H181 C165 0.930 . S
H182 C166 0.931 . S
H183 C170 0.928 . S
H184 C169 0.929 . S
H185 C167 0.932 . S
C186 C187 1.386 1_655 S
C186 C188 1.397 . S
C186 H210 0.931 . S
C187 C186 1.386 1_455 S
C187 C191 1.397 . S
C188 C186 1.397 . S
C188 C189 1.384 1_655 S
C188 H211 0.930 . S
C189 C188 1.384 1_455 S
C189 C190 1.377 . S
C189 C192 1.481 . S
C190 C189 1.377 . S
C190 C191 1.389 . S
C190 H212 0.929 . S
C191 C187 1.397 . S
C191 C190 1.389 . S
C191 H213 0.931 . S
C192 C189 1.481 . S
C192 C193 1.387 1_455 S
C192 C197 1.390 . S
C193 C192 1.387 1_655 S
C193 C194 1.401 . S
C193 H214 0.930 . S
C194 C193 1.401 . S
C194 C195 1.376 1_655 S
C194 C203 1.511 . S
C195 C194 1.376 1_455 S
C195 C196 1.392 . S
C195 H216 0.931 . S
C196 C195 1.392 . S
C196 C197 1.361 . S
C196 C198 1.500 . S
C197 C192 1.390 . S
C197 C196 1.361 . S
C197 H215 0.931 . S
C198 C196 1.500 . S
C198 C199 1.371 . S
C198 C200 1.365 . S
C199 C198 1.371 . S
C199 C209 1.386 . S
C199 H217 0.931 . S
C200 C198 1.365 . S
C200 C201 1.409 . S
C200 H218 0.929 . S
C201 C200 1.409 . S
C201 C202 1.380 . S
C201 H219 0.930 . S
C202 C201 1.380 . S
C202 C209 1.357 . S
C203 C194 1.511 . S
C203 C204 1.341 . S
C203 C205 1.371 . S
C204 C203 1.341 . S
C204 C208 1.394 . S
C204 H220 0.930 . S
C205 C203 1.371 . S
C205 C206 1.392 . S
C205 H221 0.931 . S
C206 C205 1.392 . S
C206 C207 1.331 . S
C206 H224 0.932 . S
C207 C206 1.331 . S
C207 C208 1.336 . S
C208 C204 1.394 . S
C208 C207 1.336 . S
C208 H223 0.929 . S
C209 C199 1.386 . S
C209 C202 1.357 . S
C209 H222 0.928 . S
H210 C186 0.931 . S
H211 C188 0.930 . S
H212 C190 0.929 . S
H213 C191 0.931 . S
H214 C193 0.930 . S
H215 C197 0.931 . S
H216 C195 0.931 . S
H217 C199 0.931 . S
H218 C200 0.929 . S
H219 C201 0.930 . S
H220 C204 0.930 . S
H221 C205 0.931 . S
H222 C209 0.928 . S
H223 C208 0.929 . S
H224 C206 0.932 . S
C225 C226 1.386 1_565 S
C225 C227 1.397 . S
C225 H249 0.931 . S
C226 C225 1.386 1_545 S
C226 C230 1.397 . S
C227 C225 1.397 . S
C227 C228 1.384 1_565 S
C227 H250 0.930 . S
C228 C227 1.384 1_545 S
C228 C229 1.377 . S
C228 C231 1.481 . S
C229 C228 1.377 . S
C229 C230 1.389 . S
C229 H251 0.929 . S
C230 C226 1.397 . S
C230 C229 1.389 . S
C230 H252 0.931 . S
C231 C228 1.481 . S
C231 C232 1.387 1_545 S
C231 C236 1.390 . S
C232 C231 1.387 1_565 S
C232 C233 1.401 . S
C232 H253 0.930 . S
C233 C232 1.401 . S
C233 C234 1.376 1_565 S
C233 C242 1.511 . S
C234 C233 1.376 1_545 S
C234 C235 1.392 . S
C234 H255 0.931 . S
C235 C234 1.392 . S
C235 C236 1.361 . S
C235 C237 1.500 . S
C236 C231 1.390 . S
C236 C235 1.361 . S
C236 H254 0.931 . S
C237 C235 1.500 . S
C237 C238 1.371 . S
C237 C239 1.365 . S
C238 C237 1.371 . S
C238 C248 1.386 . S
C238 H256 0.931 . S
C239 C237 1.365 . S
C239 C240 1.409 . S
C239 H257 0.929 . S
C240 C239 1.409 . S
C240 C241 1.380 . S
C240 H258 0.930 . S
C241 C240 1.380 . S
C241 C248 1.357 . S
C242 C233 1.511 . S
C242 C243 1.341 . S
C242 C244 1.371 . S
C243 C242 1.341 . S
C243 C247 1.394 . S
C243 H259 0.930 . S
C244 C242 1.371 . S
C244 C245 1.392 . S
C244 H260 0.931 . S
C245 C244 1.392 . S
C245 C246 1.331 . S
C245 H263 0.932 . S
C246 C245 1.331 . S
C246 C247 1.336 . S
C247 C243 1.394 . S
C247 C246 1.336 . S
C247 H262 0.929 . S
C248 C238 1.386 . S
C248 C241 1.357 . S
C248 H261 0.928 . S
H249 C225 0.931 . S
H250 C227 0.930 . S
H251 C229 0.929 . S
H252 C230 0.931 . S
H253 C232 0.930 . S
H254 C236 0.931 . S
H255 C234 0.931 . S
H256 C238 0.931 . S
H257 C239 0.929 . S
H258 C240 0.930 . S
H259 C243 0.930 . S
H260 C244 0.931 . S
H261 C248 0.928 . S
H262 C247 0.929 . S
H263 C245 0.932 . S
C264 C265 1.386 1_554 S
C264 C266 1.397 . S
C264 H288 0.931 1_554 S
C265 C264 1.386 1_556 S
C265 C269 1.397 1_556 S
C266 C264 1.397 . S
C266 C267 1.384 . S
C266 H289 0.930 . S
C267 C266 1.384 . S
C267 C268 1.377 . S
C267 C270 1.481 . S
C268 C267 1.377 . S
C268 C269 1.389 . S
C268 H290 0.929 . S
C269 C265 1.397 1_554 S
C269 C268 1.389 . S
C269 H291 0.931 1_554 S
C270 C267 1.481 . S
C270 C271 1.387 . S
C270 C275 1.390 . S
C271 C270 1.387 . S
C271 C272 1.401 . S
C271 H292 0.930 . S
C272 C271 1.401 . S
C272 C273 1.376 . S
C272 C281 1.511 . S
C273 C272 1.376 . S
C273 C274 1.392 . S
C273 H294 0.931 . S
C274 C273 1.392 . S
C274 C275 1.361 . S
C274 C276 1.500 . S
C275 C270 1.390 . S
C275 C274 1.361 . S
C275 H293 0.931 . S
C276 C274 1.500 . S
C276 C277 1.371 . S
C276 C278 1.365 . S
C277 C276 1.371 . S
C277 C287 1.386 . S
C277 H295 0.931 . S
C278 C276 1.365 . S
C278 C279 1.409 . S
C278 H296 0.929 . S
C279 C278 1.409 . S
C279 C280 1.380 . S
C279 H297 0.930 . S
C280 C279 1.380 . S
C280 C287 1.357 . S
C281 C272 1.511 . S
C281 C282 1.341 . S
C281 C283 1.371 . S
C282 C281 1.341 . S
C282 C286 1.394 . S
C282 H298 0.930 . S
C283 C281 1.371 . S
C283 C284 1.392 . S
C283 H299 0.931 . S
C284 C283 1.392 . S
C284 C285 1.331 . S
C284 H302 0.932 . S
C285 C284 1.331 . S
C285 C286 1.336 . S
C286 C282 1.394 . S
C286 C285 1.336 . S
C286 H301 0.929 . S
C287 C277 1.386 . S
C287 C280 1.357 . S
C287 H300 0.928 . S
H288 C264 0.931 1_556 S
H289 C266 0.930 . S
H290 C268 0.929 . S
H291 C269 0.931 1_556 S
H292 C271 0.930 . S
H293 C275 0.931 . S
H294 C273 0.931 . S
H295 C277 0.931 . S
H296 C278 0.929 . S
H297 C279 0.930 . S
H298 C282 0.930 . S
H299 C283 0.931 . S
H300 C287 0.928 . S
H301 C286 0.929 . S
H302 C284 0.932 . S
C303 C304 1.363 . S
C303 C309 1.379 . S
C303 N311 1.356 . S
C304 C303 1.363 . S
C304 C310 1.363 . S
C305 C306 1.363 . S
C305 C310 1.379 . S
C305 N312 1.356 . S
C306 C305 1.363 . S
C306 C309 1.363 . S
N307 C309 1.356 . S
N307 H319 0.984 . S
N307 H320 0.985 . S
N308 C310 1.356 . S
N308 H313 0.984 . S
N308 H314 0.985 . S
C309 C303 1.379 . S
C309 C306 1.363 . S
C309 N307 1.356 . S
C310 C304 1.363 . S
C310 C305 1.379 . S
C310 N308 1.356 . S
N311 C303 1.356 . S
N311 H317 0.984 . S
N311 H318 0.984 . S
N312 C305 1.356 . S
N312 H315 0.984 . S
N312 H316 0.985 . S
H313 N308 0.984 . S
H314 N308 0.985 . S
H315 N312 0.984 . S
H316 N312 0.985 . S
H317 N311 0.984 . S
H318 N311 0.984 . S
H319 N307 0.984 . S
H320 N307 0.985 . S
C321 C322 1.363 . S
C321 C327 1.379 . S
C321 N329 1.356 . S
C322 C321 1.363 . S
C322 C328 1.363 . S
C323 C324 1.363 . S
C323 C328 1.379 . S
C323 N330 1.356 . S
C324 C323 1.363 . S
C324 C327 1.363 . S
N325 C327 1.356 . S
N325 H337 0.984 . S
N325 H338 0.985 . S
N326 C328 1.356 . S
N326 H331 0.984 . S
N326 H332 0.985 . S
C327 C321 1.379 . S
C327 C324 1.363 . S
C327 N325 1.356 . S
C328 C322 1.363 . S
C328 C323 1.379 . S
C328 N326 1.356 . S
N329 C321 1.356 . S
N329 H335 0.984 . S
N329 H336 0.984 . S
N330 C323 1.356 . S
N330 H333 0.984 . S
N330 H334 0.985 . S
H331 N326 0.984 . S
H332 N326 0.985 . S
H333 N330 0.984 . S
H334 N330 0.985 . S
H335 N329 0.984 . S
H336 N329 0.984 . S
H337 N325 0.984 . S
H338 N325 0.985 . S
C339 C340 1.363 . S
C339 C345 1.379 . S
C339 N347 1.356 . S
C340 C339 1.363 . S
C340 C346 1.363 . S
C341 C342 1.363 . S
C341 C346 1.379 . S
C341 N348 1.356 . S
C342 C341 1.363 . S
C342 C345 1.363 . S
N343 C345 1.356 . S
N343 H355 0.984 . S
N343 H356 0.985 . S
N344 C346 1.356 . S
N344 H349 0.984 . S
N344 H350 0.985 . S
C345 C339 1.379 . S
C345 C342 1.363 . S
C345 N343 1.356 . S
C346 C340 1.363 . S
C346 C341 1.379 . S
C346 N344 1.356 . S
N347 C339 1.356 . S
N347 H353 0.984 . S
N347 H354 0.984 . S
N348 C341 1.356 . S
N348 H351 0.984 . S
N348 H352 0.985 . S
H349 N344 0.984 . S
H350 N344 0.985 . S
H351 N348 0.984 . S
H352 N348 0.985 . S
H353 N347 0.984 . S
H354 N347 0.984 . S
H355 N343 0.984 . S
H356 N343 0.985 . S
C357 C358 1.363 . S
C357 C363 1.379 . S
C357 N365 1.356 . S
C358 C357 1.363 . S
C358 C364 1.363 . S
C359 C360 1.363 . S
C359 C364 1.379 . S
C359 N366 1.356 . S
C360 C359 1.363 . S
C360 C363 1.363 . S
N361 C363 1.356 . S
N361 H373 0.984 . S
N361 H374 0.985 . S
N362 C364 1.356 . S
N362 H367 0.984 . S
N362 H368 0.985 . S
C363 C357 1.379 . S
C363 C360 1.363 . S
C363 N361 1.356 . S
C364 C358 1.363 . S
C364 C359 1.379 . S
C364 N362 1.356 . S
N365 C357 1.356 . S
N365 H371 0.984 . S
N365 H372 0.984 . S
N366 C359 1.356 . S
N366 H369 0.984 . S
N366 H370 0.985 . S
H367 N362 0.984 . S
H368 N362 0.985 . S
H369 N366 0.984 . S
H370 N366 0.985 . S
H371 N365 0.984 . S
H372 N365 0.984 . S
H373 N361 0.984 . S
H374 N361 0.985 . S
C375 C376 1.363 . S
C375 C381 1.379 . S
C375 N383 1.356 . S
C376 C375 1.363 . S
C376 C382 1.363 . S
C377 C378 1.363 . S
C377 C382 1.379 . S
C377 N384 1.356 . S
C378 C377 1.363 . S
C378 C381 1.363 . S
N379 C381 1.356 . S
N379 H391 0.984 . S
N379 H392 0.985 . S
N380 C382 1.356 . S
N380 H385 0.984 . S
N380 H386 0.985 . S
C381 C375 1.379 . S
C381 C378 1.363 . S
C381 N379 1.356 . S
C382 C376 1.363 . S
C382 C377 1.379 . S
C382 N380 1.356 . S
N383 C375 1.356 . S
N383 H389 0.984 . S
N383 H390 0.984 . S
N384 C377 1.356 . S
N384 H387 0.984 . S
N384 H388 0.985 . S
H385 N380 0.984 . S
H386 N380 0.985 . S
H387 N384 0.984 . S
H388 N384 0.985 . S
H389 N383 0.984 . S
H390 N383 0.984 . S
H391 N379 0.984 . S
H392 N379 0.985 . S
C393 C394 1.363 . S
C393 C399 1.379 . S
C393 N401 1.356 . S
C394 C393 1.363 . S
C394 C400 1.363 . S
C395 C396 1.363 . S
C395 C400 1.379 . S
C395 N402 1.356 . S
C396 C395 1.363 . S
C396 C399 1.363 . S
N397 C399 1.356 . S
N397 H409 0.984 . S
N397 H410 0.985 . S
N398 C400 1.356 . S
N398 H403 0.984 . S
N398 H404 0.985 . S
C399 C393 1.379 . S
C399 C396 1.363 . S
C399 N397 1.356 . S
C400 C394 1.363 . S
C400 C395 1.379 . S
C400 N398 1.356 . S
N401 C393 1.356 . S
N401 H407 0.984 . S
N401 H408 0.984 . S
N402 C395 1.356 . S
N402 H405 0.984 . S
N402 H406 0.985 . S
H403 N398 0.984 . S
H404 N398 0.985 . S
H405 N402 0.984 . S
H406 N402 0.985 . S
H407 N401 0.984 . S
H408 N401 0.984 . S
H409 N397 0.984 . S
H410 N397 0.985 . S
C411 C412 1.363 . S
C411 C417 1.379 . S
C411 N419 1.356 . S
C412 C411 1.363 . S
C412 C418 1.363 . S
C413 C414 1.363 . S
C413 C418 1.379 . S
C413 N420 1.356 . S
C414 C413 1.363 . S
C414 C417 1.363 . S
N415 C417 1.356 . S
N415 H427 0.984 . S
N415 H428 0.985 . S
N416 C418 1.356 . S
N416 H421 0.984 . S
N416 H422 0.985 . S
C417 C411 1.379 . S
C417 C414 1.363 . S
C417 N415 1.356 . S
C418 C412 1.363 . S
C418 C413 1.379 . S
C418 N416 1.356 . S
N419 C411 1.356 . S
N419 H425 0.984 . S
N419 H426 0.984 . S
N420 C413 1.356 . S
N420 H423 0.984 . S
N420 H424 0.985 . S
H421 N416 0.984 . S
H422 N416 0.985 . S
H423 N420 0.984 . S
H424 N420 0.985 . S
H425 N419 0.984 . S
H426 N419 0.984 . S
H427 N415 0.984 . S
H428 N415 0.985 . S
C429 C430 1.363 . S
C429 C435 1.379 . S
C429 N437 1.356 . S
C430 C429 1.363 . S
C430 C436 1.363 . S
C431 C432 1.363 . S
C431 C436 1.379 . S
C431 N438 1.356 . S
C432 C431 1.363 . S
C432 C435 1.363 . S
N433 C435 1.356 . S
N433 H445 0.984 . S
N433 H446 0.985 . S
N434 C436 1.356 . S
N434 H439 0.984 . S
N434 H440 0.985 . S
C435 C429 1.379 . S
C435 C432 1.363 . S
C435 N433 1.356 . S
C436 C430 1.363 . S
C436 C431 1.379 . S
C436 N434 1.356 . S
N437 C429 1.356 . S
N437 H443 0.984 . S
N437 H444 0.984 . S
N438 C431 1.356 . S
N438 H441 0.984 . S
N438 H442 0.985 . S
H439 N434 0.984 . S
H440 N434 0.985 . S
H441 N438 0.984 . S
H442 N438 0.985 . S
H443 N437 0.984 . S
H444 N437 0.984 . S
H445 N433 0.984 . S
H446 N433 0.985 . S
C447 C448 1.363 . S
C447 C453 1.379 . S
C447 N455 1.356 . S
C448 C447 1.363 . S
C448 C454 1.363 . S
C449 C450 1.363 . S
C449 C454 1.379 . S
C449 N456 1.356 . S
C450 C449 1.363 . S
C450 C453 1.363 . S
N451 C453 1.356 . S
N451 H463 0.984 . S
N451 H464 0.985 . S
N452 C454 1.356 . S
N452 H457 0.984 . S
N452 H458 0.985 . S
C453 C447 1.379 . S
C453 C450 1.363 . S
C453 N451 1.356 . S
C454 C448 1.363 . S
C454 C449 1.379 . S
C454 N452 1.356 . S
N455 C447 1.356 . S
N455 H461 0.984 . S
N455 H462 0.984 . S
N456 C449 1.356 . S
N456 H459 0.984 . S
N456 H460 0.985 . S
H457 N452 0.984 . S
H458 N452 0.985 . S
H459 N456 0.984 . S
H460 N456 0.985 . S
H461 N455 0.984 . S
H462 N455 0.984 . S
H463 N451 0.984 . S
H464 N451 0.985 . S
C465 C466 1.363 . S
C465 C471 1.379 . S
C465 N473 1.356 . S
C466 C465 1.363 . S
C466 C472 1.363 . S
C467 C468 1.363 . S
C467 C472 1.379 . S
C467 N474 1.356 . S
C468 C467 1.363 . S
C468 C471 1.363 . S
N469 C471 1.356 . S
N469 H481 0.984 . S
N469 H482 0.985 . S
N470 C472 1.356 . S
N470 H475 0.984 . S
N470 H476 0.985 . S
C471 C465 1.379 . S
C471 C468 1.363 . S
C471 N469 1.356 . S
C472 C466 1.363 . S
C472 C467 1.379 . S
C472 N470 1.356 . S
N473 C465 1.356 . S
N473 H479 0.984 . S
N473 H480 0.984 . S
N474 C467 1.356 . S
N474 H477 0.984 . S
N474 H478 0.985 . S
H475 N470 0.984 . S
H476 N470 0.985 . S
H477 N474 0.984 . S
H478 N474 0.985 . S
H479 N473 0.984 . S
H480 N473 0.984 . S
H481 N469 0.984 . S
H482 N469 0.985 . S
C483 C484 1.363 . S
C483 C489 1.379 . S
C483 N491 1.356 . S
C484 C483 1.363 . S
C484 C490 1.363 . S
C485 C486 1.363 . S
C485 C490 1.379 . S
C485 N492 1.356 . S
C486 C485 1.363 . S
C486 C489 1.363 . S
N487 C489 1.356 . S
N487 H499 0.984 . S
N487 H500 0.985 . S
N488 C490 1.356 . S
N488 H493 0.984 . S
N488 H494 0.985 . S
C489 C483 1.379 . S
C489 C486 1.363 . S
C489 N487 1.356 . S
C490 C484 1.363 . S
C490 C485 1.379 . S
C490 N488 1.356 . S
N491 C483 1.356 . S
N491 H497 0.984 . S
N491 H498 0.984 . S
N492 C485 1.356 . S
N492 H495 0.984 . S
N492 H496 0.985 . S
H493 N488 0.984 . S
H494 N488 0.985 . S
H495 N492 0.984 . S
H496 N492 0.985 . S
H497 N491 0.984 . S
H498 N491 0.984 . S
H499 N487 0.984 . S
H500 N487 0.985 . S
C501 C502 1.363 . S
C501 C507 1.379 . S
C501 N509 1.356 . S
C502 C501 1.363 . S
C502 C508 1.363 . S
C503 C504 1.363 . S
C503 C508 1.379 . S
C503 N510 1.356 . S
C504 C503 1.363 . S
C504 C507 1.363 . S
N505 C507 1.356 . S
N505 H517 0.984 . S
N505 H518 0.985 . S
N506 C508 1.356 . S
N506 H511 0.984 . S
N506 H512 0.985 . S
C507 C501 1.379 . S
C507 C504 1.363 . S
C507 N505 1.356 . S
C508 C502 1.363 . S
C508 C503 1.379 . S
C508 N506 1.356 . S
N509 C501 1.356 . S
N509 H515 0.984 . S
N509 H516 0.984 . S
N510 C503 1.356 . S
N510 H513 0.984 . S
N510 H514 0.985 . S
H511 N506 0.984 . S
H512 N506 0.985 . S
H513 N510 0.984 . S
H514 N510 0.985 . S
H515 N509 0.984 . S
H516 N509 0.984 . S
H517 N505 0.984 . S
H518 N505 0.985 . S
C519 C520 1.363 . S
C519 C525 1.379 . S
C519 N527 1.356 . S
C520 C519 1.363 . S
C520 C526 1.363 . S
C521 C522 1.363 . S
C521 C526 1.379 . S
C521 N528 1.356 . S
C522 C521 1.363 . S
C522 C525 1.363 . S
N523 C525 1.356 . S
N523 H535 0.984 . S
N523 H536 0.985 . S
N524 C526 1.356 . S
N524 H529 0.984 . S
N524 H530 0.985 . S
C525 C519 1.379 . S
C525 C522 1.363 . S
C525 N523 1.356 . S
C526 C520 1.363 . S
C526 C521 1.379 . S
C526 N524 1.356 . S
N527 C519 1.356 . S
N527 H533 0.984 . S
N527 H534 0.984 . S
N528 C521 1.356 . S
N528 H531 0.984 . S
N528 H532 0.985 . S
H529 N524 0.984 . S
H530 N524 0.985 . S
H531 N528 0.984 . S
H532 N528 0.985 . S
H533 N527 0.984 . S
H534 N527 0.984 . S
H535 N523 0.984 . S
H536 N523 0.985 . S
C537 C538 1.363 . S
C537 C543 1.379 . S
C537 N545 1.356 . S
C538 C537 1.363 . S
C538 C544 1.363 1_545 S
C539 C540 1.363 1_565 S
C539 C544 1.379 . S
C539 N546 1.356 . S
C540 C539 1.363 1_545 S
C540 C543 1.363 . S
N541 C543 1.356 . S
N541 H553 0.984 . S
N541 H554 0.985 . S
N542 C544 1.356 . S
N542 H547 0.984 . S
N542 H548 0.985 . S
C543 C537 1.379 . S
C543 C540 1.363 . S
C543 N541 1.356 . S
C544 C538 1.363 1_565 S
C544 C539 1.379 . S
C544 N542 1.356 . S
N545 C537 1.356 . S
N545 H551 0.984 . S
N545 H552 0.984 . S
N546 C539 1.356 . S
N546 H549 0.984 . S
N546 H550 0.985 . S
H547 N542 0.984 . S
H548 N542 0.985 . S
H549 N546 0.984 . S
H550 N546 0.985 . S
H551 N545 0.984 . S
H552 N545 0.984 . S
H553 N541 0.984 . S
H554 N541 0.985 . S
C555 C556 1.363 . S
C555 C561 1.379 . S
C555 N563 1.356 . S
C556 C555 1.363 . S
C556 C562 1.363 . S
C557 C558 1.363 . S
C557 C562 1.379 . S
C557 N564 1.356 . S
C558 C557 1.363 . S
C558 C561 1.363 . S
N559 C561 1.356 . S
N559 H571 0.984 . S
N559 H572 0.985 . S
N560 C562 1.356 . S
N560 H565 0.984 . S
N560 H566 0.985 . S
C561 C555 1.379 . S
C561 C558 1.363 . S
C561 N559 1.356 . S
C562 C556 1.363 . S
C562 C557 1.379 . S
C562 N560 1.356 . S
N563 C555 1.356 . S
N563 H569 0.984 . S
N563 H570 0.984 . S
N564 C557 1.356 . S
N564 H567 0.984 . S
N564 H568 0.985 . S
H565 N560 0.984 . S
H566 N560 0.985 . S
H567 N564 0.984 . S
H568 N564 0.985 . S
H569 N563 0.984 . S
H570 N563 0.984 . S
H571 N559 0.984 . S
H572 N559 0.985 . S
C573 C574 1.363 1_565 S
C573 C579 1.379 . S
C573 N581 1.356 . S
C574 C573 1.363 1_545 S
C574 C580 1.363 . S
C575 C576 1.363 . S
C575 C580 1.379 . S
C575 N582 1.356 . S
C576 C575 1.363 . S
C576 C579 1.363 1_545 S
N577 C579 1.356 . S
N577 H589 0.984 . S
N577 H590 0.985 . S
N578 C580 1.356 . S
N578 H583 0.984 . S
N578 H584 0.985 . S
C579 C573 1.379 . S
C579 C576 1.363 1_565 S
C579 N577 1.356 . S
C580 C574 1.363 . S
C580 C575 1.379 . S
C580 N578 1.356 . S
N581 C573 1.356 . S
N581 H587 0.984 . S
N581 H588 0.984 . S
N582 C575 1.356 . S
N582 H585 0.984 . S
N582 H586 0.985 . S
H583 N578 0.984 . S
H584 N578 0.985 . S
H585 N582 0.984 . S
H586 N582 0.985 . S
H587 N581 0.984 . S
H588 N581 0.984 . S
H589 N577 0.984 . S
H590 N577 0.985 . S
C591 C592 1.363 . S
C591 C597 1.379 . S
C591 N599 1.356 . S
C592 C591 1.363 . S
C592 C598 1.363 . S
C593 C594 1.363 . S
C593 C598 1.379 . S
C593 N600 1.356 . S
C594 C593 1.363 . S
C594 C597 1.363 . S
N595 C597 1.356 . S
N595 H607 0.984 . S
N595 H608 0.985 . S
N596 C598 1.356 . S
N596 H601 0.984 . S
N596 H602 0.985 . S
C597 C591 1.379 . S
C597 C594 1.363 . S
C597 N595 1.356 . S
C598 C592 1.363 . S
C598 C593 1.379 . S
C598 N596 1.356 . S
N599 C591 1.356 . S
N599 H605 0.984 . S
N599 H606 0.984 . S
N600 C593 1.356 . S
N600 H603 0.984 . S
N600 H604 0.985 . S
H601 N596 0.984 . S
H602 N596 0.985 . S
H603 N600 0.984 . S
H604 N600 0.985 . S
H605 N599 0.984 . S
H606 N599 0.984 . S
H607 N595 0.984 . S
H608 N595 0.985 . S
C609 C610 1.363 1_655 S
C609 C615 1.379 . S
C609 N617 1.356 . S
C610 C609 1.363 1_455 S
C610 C616 1.363 . S
C611 C612 1.363 . S
C611 C616 1.379 . S
C611 N618 1.356 . S
C612 C611 1.363 . S
C612 C615 1.363 1_455 S
N613 C615 1.356 . S
N613 H625 0.984 . S
N613 H626 0.985 . S
N614 C616 1.356 . S
N614 H619 0.984 . S
N614 H620 0.985 . S
C615 C609 1.379 . S
C615 C612 1.363 1_655 S
C615 N613 1.356 . S
C616 C610 1.363 . S
C616 C611 1.379 . S
C616 N614 1.356 . S
N617 C609 1.356 . S
N617 H623 0.984 . S
N617 H624 0.984 . S
N618 C611 1.356 . S
N618 H621 0.984 . S
N618 H622 0.985 . S
H619 N614 0.984 . S
H620 N614 0.985 . S
H621 N618 0.984 . S
H622 N618 0.985 . S
H623 N617 0.984 . S
H624 N617 0.984 . S
H625 N613 0.984 . S
H626 N613 0.985 . S
C304 C20 1.279 . S
C306 C280 1.322 . S
C322 C41 1.367 . S
C324 C207 1.355 . S
C340 C64 1.401 . S
C342 C246 1.388 . S
C358 C19 1.317 . S
C360 C285 1.388 . S
C378 C202 1.348 . S
C376 C44 1.345 . S
C396 C241 1.329 . S
C394 C67 1.328 . S
C412 C43 1.275 . S
C414 C129 1.326 . S
C430 C66 1.279 . S
C432 C163 1.323 . S
C448 C21 1.342 . S
C450 C85 1.345 . S
C468 C124 1.369 . S
C466 C42 1.307 . S
C486 C168 1.388 . S
C484 C65 1.317 . S
C502 C18 1.372 . S
C504 C90 1.359 . S
C522 C148 1.471 . S
C520 C17 1.471 . S
C538 C39 1.467 . S
C540 C70 1.467 . S
C556 C62 1.484 . S
C558 C109 1.482 . S
C576 C226 1.454 . S
C574 C40 1.453 . S
C594 C265 1.471 . S
C592 C63 1.471 . S
C610 C16 1.466 . S
C612 C187 1.466 . S
