# Generated by pormake.
# Topology pts, (4,4)-cn, num edge types: 1
# Building blocks:
#     Node 0, Type 0, BuildingBlock: NAHDIM_clean_linker_0, # of connection points: 4
#     Node 1, Type 0, BuildingBlock: NAHDIM_clean_linker_0, # of connection points: 4
#     Node 2, Type 1, BuildingBlock: UXUYUI_clean_sbu_0, # of connection points: 4
#     Node 3, Type 1, BuildingBlock: UXUYUI_clean_sbu_0, # of connection points: 4
#     Edge 4, Type (0, 1), BuildingBlock: MIFKUJ_clean_linker_0, # of connection points: 2
#     Edge 5, Type (0, 1), BuildingBlock: MIFKUJ_clean_linker_0, # of connection points: 2
#     Edge 6, Type (0, 1), BuildingBlock: MIFKUJ_clean_linker_0, # of connection points: 2
#     Edge 7, Type (0, 1), BuildingBlock: MIFKUJ_clean_linker_0, # of connection points: 2
#     Edge 8, Type (0, 1), BuildingBlock: MIFKUJ_clean_linker_0, # of connection points: 2
#     Edge 9, Type (0, 1), BuildingBlock: MIFKUJ_clean_linker_0, # of connection points: 2
#     Edge 10, Type (0, 1), BuildingBlock: MIFKUJ_clean_linker_0, # of connection points: 2
#     Edge 11, Type (0, 1), BuildingBlock: MIFKUJ_clean_linker_0, # of connection points: 2
# Relax obj value: 0.021
# Max RMSD: 0.066
# Mean RMSD: 0.065
data_MOF--net-pts--node1-UXUYUI_clean_sbu_0--node2-NAHDIM_clean_linker_0--edge1-MIFKUJ_clean_linker_0
_symmetry_space_group_name_H-M    P1
_symmetry_Int_Tables_number       1
_symmetry_cell_setting            triclinic
loop_
_symmetry_equiv_pos_as_xyz
'x, y, z'
_cell_length_a     45.029592
_cell_length_b     45.019107
_cell_length_c     73.256204
_cell_angle_alpha  90.322853
_cell_angle_beta   89.624567
_cell_angle_gamma 90.010673
loop_
_atom_site_label
_atom_site_type_symbol
_atom_site_fract_x
_atom_site_fract_y
_atom_site_fract_z
_atom_type_partial_charge
C0 C 0.68988 0.95437 0.10632 0.0
C1 C 0.71148 0.97032 0.09338 0.0
C2 C 0.67616 0.99536 0.07312 0.0
C3 C 0.66785 0.96994 0.0631 0.0
C4 C 0.64416 0.9709 0.0508 0.0
C5 C 0.6283 0.9977 0.0485 0.0
C6 C 0.63706 0.02352 0.05814 0.0
C7 C 0.66109 0.02203 0.07022 0.0
C8 C 0.63559 0.94304 0.04053 0.0
C9 C 0.62055 0.05244 0.05603 0.0
C10 C 0.46081 0.90545 0.10292 0.0
C11 C 0.45749 0.93717 0.09587 0.0
C12 C 0.47633 0.94976 0.0659 0.0
C13 C 0.48409 0.97965 0.06832 0.0
C14 C 0.50653 0.99257 0.05761 0.0
C15 C 0.52183 0.97497 0.0445 0.0
C16 C 0.51336 0.94495 0.04174 0.0
C17 C 0.49016 0.93295 0.05225 0.0
C18 C 0.51444 0.02477 0.06067 0.0
C19 C 0.52957 0.92515 0.02828 0.0
C20 C 0.46878 0.01233 0.93009 0.0
C21 C 0.47582 0.03829 0.93988 0.0
C22 C 0.50287 0.04081 0.94916 0.0
C23 C 0.52309 0.01677 0.9488 0.0
C24 C 0.51659 0.9911 0.93833 0.0
C25 C 0.4896 0.9894 0.9289 0.0
C26 C 0.50961 0.06894 0.95964 0.0
C27 C 0.53778 0.96516 0.93755 0.0
C28 C 0.75568 0.07136 0.94929 0.0
C29 C 0.74017 0.05018 0.93602 0.0
C30 C 0.68621 0.05345 0.93741 0.0
C31 C 0.66554 0.07509 0.94257 0.0
C32 C 0.63807 0.06711 0.95028 0.0
C33 C 0.63101 0.0367 0.95245 0.0
C34 C 0.65117 0.01469 0.94623 0.0
C35 C 0.67863 0.02331 0.93878 0.0
C36 C 0.61694 0.09114 0.95655 0.0
C37 C 0.64391 0.98207 0.94776 0.0
C38 C 0.60129 0.99804 0.03702 0.0
C39 C 0.57474 0.98863 0.04505 0.0
C40 C 0.54849 0.987 0.03505 0.0
C41 C 0.54851 0.99535 0.01647 0.0
C42 C 0.52243 0.9945 0.00606 0.0
C43 C 0.52292 0.00178 0.98763 0.0
C44 C 0.54945 0.0106 0.97895 0.0
C45 C 0.55022 0.01786 0.96018 0.0
C46 C 0.57699 0.02632 0.95195 0.0
C47 C 0.60323 0.02791 0.96202 0.0
C48 C 0.60287 0.02098 0.98084 0.0
C49 C 0.62882 0.02257 0.99141 0.0
C50 C 0.62836 0.01516 0.00982 0.0
C51 C 0.60192 0.00605 0.0184 0.0
C52 C 0.57541 0.00464 0.00809 0.0
C53 C 0.5759 0.01215 0.98929 0.0
C54 C 0.40546 0.99704 0.94427 0.0
C55 C 0.41485 0.01746 0.92859 0.0
O56 O 0.69805 0.99509 0.08586 0.0
O57 O 0.71312 0.06231 0.93103 0.0
O58 O 0.44222 0.00862 0.92166 0.0
O59 O 0.45617 0.93647 0.07697 0.0
H60 H 0.71853 0.95481 0.08231 0.0
H61 H 0.67021 0.94615 0.09877 0.0
H62 H 0.68212 0.9697 0.1173 0.0
H63 H 0.70091 0.93492 0.11265 0.0
H64 H 0.6794 0.94914 0.06491 0.0
H65 H 0.66773 0.04158 0.07788 0.0
H66 H 0.6134 0.93545 0.04527 0.0
H67 H 0.65176 0.92472 0.04253 0.0
H68 H 0.63397 0.94775 0.02571 0.0
H69 H 0.63028 0.0706 0.06439 0.0
H70 H 0.59696 0.0494 0.06013 0.0
H71 H 0.62084 0.05921 0.04148 0.0
H72 H 0.4775 0.9497 0.10048 0.0
H73 H 0.46211 0.90545 0.11807 0.0
H74 H 0.48154 0.89544 0.09735 0.0
H75 H 0.44171 0.89149 0.09861 0.0
H76 H 0.47278 0.9927 0.07871 0.0
H77 H 0.48373 0.90992 0.05048 0.0
H78 H 0.51724 0.0363 0.04741 0.0
H79 H 0.53589 0.02615 0.06801 0.0
H80 H 0.4973 0.03661 0.06891 0.0
H81 H 0.52259 0.90155 0.0294 0.0
H82 H 0.55391 0.9265 0.03048 0.0
H83 H 0.52509 0.9327 0.01418 0.0
H84 H 0.41611 0.04056 0.93392 0.0
H85 H 0.4605 0.05676 0.94023 0.0
H86 H 0.48415 0.96966 0.92108 0.0
H87 H 0.50945 0.06419 0.97449 0.0
H88 H 0.49319 0.08678 0.95695 0.0
H89 H 0.53213 0.07716 0.956 0.0
H90 H 0.52919 0.94656 0.92906 0.0
H91 H 0.54189 0.95688 0.95156 0.0
H92 H 0.55944 0.9725 0.93181 0.0
H93 H 0.73699 0.02881 0.94336 0.0
H94 H 0.77748 0.0621 0.95344 0.0
H95 H 0.74176 0.07437 0.96175 0.0
H96 H 0.75924 0.09345 0.94295 0.0
H97 H 0.67143 0.0983 0.94111 0.0
H98 H 0.6941 0.00653 0.934 0.0
H99 H 0.61217 0.0886 0.97136 0.0
H100 H 0.59555 0.08888 0.94922 0.0
H101 H 0.62593 0.11377 0.95415 0.0
H102 H 0.66059 0.96785 0.94069 0.0
H103 H 0.62168 0.97754 0.94189 0.0
H104 H 0.64308 0.97574 0.96238 0.0
H105 H 0.57464 0.98192 0.05926 0.0
H106 H 0.50138 0.98797 0.01204 0.0
H107 H 0.5022 0.00033 0.98027 0.0
H108 H 0.57742 0.03173 0.93754 0.0
H109 H 0.64984 0.02945 0.98555 0.0
H110 H 0.64903 0.0166 0.01725 0.0
H111 H 0.38329 0.00366 0.94966 0.0
H112 H 0.42167 0.9987 0.95559 0.0
H113 H 0.4045 0.97355 0.93955 0.0
C114 C 0.12294 0.43826 0.62363 0.0
C115 C 0.1037 0.42055 0.61031 0.0
C116 C 0.1085 0.43818 0.57915 0.0
C117 C 0.07868 0.44026 0.57394 0.0
C118 C 0.07008 0.45963 0.55999 0.0
C119 C 0.0918 0.47733 0.55119 0.0
C120 C 0.12207 0.47438 0.55598 0.0
C121 C 0.13007 0.45442 0.56976 0.0
C122 C 0.03774 0.46159 0.55489 0.0
C123 C 0.14583 0.4929 0.54692 0.0
C124 C 0.9723 0.67051 0.56647 0.0
C125 C 0.0004 0.66277 0.5772 0.0
C126 C 0.03284 0.63175 0.55784 0.0
C127 C 0.06154 0.62992 0.55057 0.0
C128 C 0.0722 0.60344 0.54275 0.0
C129 C 0.05318 0.57847 0.54159 0.0
C130 C 0.02392 0.58028 0.54867 0.0
C131 C 0.01415 0.60678 0.5569 0.0
C132 C 0.10382 0.60216 0.53581 0.0
C133 C 0.00292 0.5542 0.54756 0.0
C134 C 0.05576 0.61028 0.42343 0.0
C135 C 0.08369 0.60725 0.43153 0.0
C136 C 0.09069 0.58186 0.44164 0.0
C137 C 0.06914 0.55921 0.44379 0.0
C138 C 0.04153 0.56153 0.43478 0.0
C139 C 0.03532 0.58701 0.4245 0.0
C140 C 0.12076 0.57966 0.45051 0.0
C141 C 0.01821 0.53766 0.43661 0.0
C142 C 0.13815 0.32567 0.45455 0.0
C143 C 0.1183 0.34421 0.44212 0.0
C144 C 0.12177 0.39851 0.44222 0.0
C145 C 0.1422 0.42107 0.4459 0.0
C146 C 0.1327 0.44944 0.45139 0.0
C147 C 0.10194 0.4553 0.45309 0.0
C148 C 0.08111 0.43314 0.44824 0.0
C149 C 0.09125 0.405 0.4427 0.0
C150 C 0.15548 0.47281 0.45603 0.0
C151 C 0.04816 0.43896 0.44944 0.0
C152 C 0.08265 0.50025 0.53785 0.0
C153 C 0.07259 0.52746 0.54478 0.0
C154 C 0.06392 0.55034 0.53317 0.0
C155 C 0.06558 0.54623 0.51404 0.0
C156 C 0.05694 0.56873 0.50195 0.0
C157 C 0.05971 0.56488 0.48316 0.0
C158 C 0.07088 0.53822 0.47572 0.0
C159 C 0.07465 0.53445 0.45664 0.0
C160 C 0.08478 0.50729 0.44965 0.0
C161 C 0.09157 0.48372 0.46127 0.0
C162 C 0.08874 0.48737 0.48041 0.0
C163 C 0.09595 0.46431 0.49251 0.0
C164 C 0.0938 0.46838 0.51132 0.0
C165 C 0.08425 0.49561 0.51876 0.0
C166 C 0.07607 0.51886 0.50682 0.0
C167 C 0.07849 0.51478 0.48763 0.0
C168 C 0.02018 0.67019 0.43283 0.0
C169 C 0.04933 0.66364 0.42272 0.0
O170 O 0.11704 0.42068 0.59319 0.0
O171 O 0.13235 0.37091 0.43835 0.0
O172 O 0.04793 0.63563 0.41477 0.0
O173 O 0.02413 0.65802 0.56541 0.0
H174 H 0.08162 0.43166 0.60997 0.0
H175 H 0.12493 0.4616 0.61893 0.0
H176 H 0.14557 0.42855 0.62447 0.0
H177 H 0.11265 0.43841 0.63746 0.0
H178 H 0.06214 0.42676 0.58078 0.0
H179 H 0.1531 0.45224 0.57374 0.0
H180 H 0.02874 0.48336 0.55945 0.0
H181 H 0.02428 0.4437 0.56126 0.0
H182 H 0.03528 0.46025 0.53983 0.0
H183 H 0.16817 0.48882 0.55274 0.0
H184 H 0.14043 0.51686 0.54846 0.0
H185 H 0.1466 0.48779 0.53209 0.0
H186 H 0.99576 0.64233 0.58523 0.0
H187 H 0.95387 0.67628 0.57601 0.0
H188 H 0.9651 0.65129 0.55806 0.0
H189 H 0.97629 0.68946 0.55713 0.0
H190 H 0.0758 0.64927 0.55134 0.0
H191 H 0.99181 0.60779 0.56235 0.0
H192 H 0.10386 0.60074 0.52068 0.0
H193 H 0.11511 0.582 0.54102 0.0
H194 H 0.11682 0.62204 0.53993 0.0
H195 H 0.97981 0.56038 0.55139 0.0
H196 H 0.01054 0.53657 0.55695 0.0
H197 H 0.0029 0.54474 0.53352 0.0
H198 H 0.06749 0.66461 0.43295 0.0
H199 H 0.09992 0.62486 0.43006 0.0
H200 H 0.01399 0.58944 0.41791 0.0
H201 H 0.11822 0.58247 0.4655 0.0
H202 H 0.13638 0.5969 0.44544 0.0
H203 H 0.13061 0.5574 0.44794 0.0
H204 H 0.99775 0.54293 0.42888 0.0
H205 H 0.01226 0.53475 0.45122 0.0
H206 H 0.02726 0.51618 0.43155 0.0
H207 H 0.09736 0.34778 0.44997 0.0
H208 H 0.12764 0.30382 0.45738 0.0
H209 H 0.1413 0.3375 0.46775 0.0
H210 H 0.16035 0.32196 0.44824 0.0
H211 H 0.16572 0.41604 0.44508 0.0
H212 H 0.07527 0.38815 0.43886 0.0
H213 H 0.15445 0.47777 0.47089 0.0
H214 H 0.15048 0.49372 0.44869 0.0
H215 H 0.17842 0.46564 0.45248 0.0
H216 H 0.03481 0.41968 0.44471 0.0
H217 H 0.04244 0.4586 0.44106 0.0
H218 H 0.04188 0.44418 0.46379 0.0
H219 H 0.07152 0.53089 0.55944 0.0
H220 H 0.04822 0.58972 0.50687 0.0
H221 H 0.05299 0.58312 0.47456 0.0
H222 H 0.08757 0.50451 0.43502 0.0
H223 H 0.10356 0.44289 0.48759 0.0
H224 H 0.09983 0.44994 0.51996 0.0
H225 H 0.00106 0.66897 0.42334 0.0
H226 H 0.02089 0.69267 0.43916 0.0
H227 H 0.01672 0.65366 0.44384 0.0
Li228 Li 0.08724 0.04734 0.26121 0.0
Li229 Li 0.08307 0.99281 0.26072 0.0
Li230 Li 0.11179 0.0193 0.23612 0.0
Li231 Li 0.05755 0.02014 0.2373 0.0
C232 C 0.14485 0.02639 0.2715 0.0
N233 N 0.19588 0.04484 0.289 0.0
C234 C 0.15332 0.01321 0.28789 0.0
C235 C 0.16256 0.04868 0.2639 0.0
C236 C 0.17912 0.02293 0.29657 0.0
C237 C 0.18821 0.05776 0.27297 0.0
C238 C 0.03513 0.01212 0.27872 0.0
C239 C 0.00023 0.97738 0.2917 0.0
N240 N 0.00451 0.98983 0.30844 0.0
C241 C 0.03899 0.02474 0.29601 0.0
C242 C 0.0154 0.98843 0.27649 0.0
C243 C 0.02337 0.0131 0.31088 0.0
C244 C 0.07242 0.10593 0.27123 0.0
N245 N 0.08872 0.08193 0.27627 0.0
C246 C 0.10597 0.10759 0.30279 0.0
C247 C 0.10501 0.08219 0.29183 0.0
C248 C 0.08952 0.13275 0.29788 0.0
C249 C 0.0724 0.13171 0.28195 0.0
H250 H 0.05939 0.10497 0.25889 0.0
H251 H 0.11689 0.06259 0.29595 0.0
C252 C 0.07927 0.93122 0.26824 0.0
N253 N 0.08205 0.9586 0.27595 0.0
C254 C 0.07777 0.90597 0.2792 0.0
C255 C 0.08246 0.93754 0.30582 0.0
C256 C 0.084 0.96214 0.29434 0.0
C257 C 0.07922 0.90894 0.29829 0.0
H258 H 0.07831 0.92893 0.25358 0.0
H259 H 0.08652 0.98413 0.30011 0.0
C260 C 0.09568 0.07716 0.22408 0.0
N261 N 0.1168 0.1237 0.20323 0.0
C262 C 0.08569 0.08101 0.20623 0.0
C263 C 0.11592 0.0974 0.23146 0.0
C264 C 0.09678 0.10454 0.19586 0.0
C265 C 0.12646 0.12068 0.22067 0.0
C266 C 0.07086 0.96847 0.22073 0.0
C267 C 0.08372 0.96642 0.20335 0.0
C268 C 0.04421 0.95364 0.22436 0.0
C269 C 0.06942 0.94994 0.18979 0.0
C270 C 0.03057 0.93743 0.21043 0.0
N271 N 0.04334 0.93595 0.19357 0.0
C272 C 0.17103 0.005 0.22717 0.0
C273 C 0.14426 0.02678 0.20293 0.0
C274 C 0.19643 0.00283 0.21624 0.0
N275 N 0.14577 0.01725 0.22049 0.0
C276 C 0.16907 0.02473 0.19144 0.0
C277 C 0.19563 0.01277 0.19812 0.0
H278 H 0.1714 0.99665 0.24096 0.0
H279 H 0.12366 0.03543 0.19772 0.0
C280 C 0.9959 0.02486 0.23098 0.0
N281 N 0.02282 0.02169 0.22269 0.0
C282 C 0.96995 0.02442 0.22064 0.0
C283 C -1e-05 0.01787 0.19343 0.0
C284 C 0.02533 0.01885 0.20426 0.0
C285 C 0.97186 0.02043 0.20165 0.0
H286 H 0.99455 0.02734 0.24565 0.0
H287 H 0.04702 0.01678 0.19799 0.0
O288 O 0.11949 0.01726 0.26292 0.0
O289 O 0.05056 0.02294 0.26404 0.0
O290 O 0.08486 0.05432 0.23445 0.0
O291 O 0.08436 0.98485 0.23411 0.0
H292 H 0.14005 0.99574 0.2939 0.0
H293 H 0.15682 0.05854 0.251 0.0
H294 H 0.18584 0.01303 0.30932 0.0
H295 H 0.2021 0.075 0.26723 0.0
H296 H 0.98505 0.95892 0.2902 0.0
H297 H 0.05407 0.04315 0.29798 0.0
H298 H 0.01194 0.97858 0.26319 0.0
H299 H 0.02629 0.02252 0.32437 0.0
H300 H 0.11892 0.10734 0.3152 0.0
H301 H 0.0594 0.1507 0.27776 0.0
H302 H 0.07582 0.88435 0.27278 0.0
H303 H 0.08335 0.94098 0.32045 0.0
H304 H 0.06971 0.06586 0.20036 0.0
H305 H 0.12319 0.09545 0.24542 0.0
H306 H 0.08943 0.10759 0.18197 0.0
H307 H 0.14221 0.13642 0.2262 0.0
H308 H 0.10445 0.97753 0.20034 0.0
H309 H 0.03405 0.95486 0.23774 0.0
H310 H 0.07905 0.9483 0.17625 0.0
H311 H 0.00982 0.92605 0.21301 0.0
H312 H 0.21629 0.99286 0.22178 0.0
H313 H 0.16752 0.03251 0.17751 0.0
H314 H 0.94862 0.02633 0.22746 0.0
H315 H 0.00236 0.0151 0.1788 0.0
Li316 Li 0.0446 0.02514 0.75589 0.0
Li317 Li 0.09872 0.02083 0.7565 0.0
Li318 Li 0.07367 0.04954 0.73285 0.0
Li319 Li 0.07138 0.99521 0.73308 0.0
C320 C 0.07989 0.08649 0.76027 0.0
N321 N 0.09277 0.1465 0.75977 0.0
C322 C 0.10863 0.0964 0.76406 0.0
C323 C 0.05766 0.10712 0.75632 0.0
C324 C 0.11469 0.12683 0.76374 0.0
C325 C 0.06464 0.13735 0.75608 0.0
C326 C 0.07937 0.97404 0.77416 0.0
C327 C 0.11424 0.93973 0.7873 0.0
N328 N 0.10307 0.946 0.80418 0.0
C329 C 0.06813 0.98006 0.79162 0.0
C330 C 0.1025 0.95361 0.77194 0.0
C331 C 0.08044 0.96567 0.80663 0.0
C332 C 0.99326 0.00151 0.77258 0.0
N333 N 0.00999 0.02649 0.77091 0.0
C334 C 0.97828 0.05265 0.79173 0.0
C335 C 0.00307 0.05179 0.7802 0.0
C336 C 0.9606 0.02714 0.79382 0.0
C337 C 0.96829 0.00135 0.78398 0.0
H338 H 0.99952 0.98161 0.76515 0.0
H339 H 0.01705 0.07115 0.77889 0.0
C340 C 0.15912 0.01091 0.76606 0.0
N341 N 0.13191 0.01923 0.77238 0.0
C342 C 0.18321 0.00949 0.77794 0.0
C343 C 0.15081 0.02552 0.80254 0.0
C344 C 0.12742 0.02671 0.79018 0.0
C345 C 0.17921 0.01683 0.79647 0.0
H346 H 0.16218 0.00553 0.75179 0.0
H347 H 0.10556 0.03349 0.79477 0.0
C348 C 0.0087 0.02119 0.72828 0.0
N349 N 0.94766 0.01488 0.72857 0.0
C350 C 0.99587 0.99349 0.72474 0.0
C351 C 0.99048 0.04571 0.73186 0.0
C352 C 0.96496 0.99076 0.72496 0.0
C353 C 0.95968 0.04205 0.73199 0.0
C354 C 0.12226 0.00824 0.71606 0.0
C355 C 0.12279 0.02168 0.69891 0.0
C356 C 0.13682 0.98115 0.71856 0.0
C357 C 0.13774 0.00765 0.68448 0.0
C358 C 0.15147 0.96781 0.70379 0.0
N359 N 0.15162 0.98123 0.6872 0.0
C360 C 0.10289 0.09855 0.71688 0.0
C361 C 0.05257 0.09284 0.70824 0.0
C362 C 0.10531 0.12449 0.70662 0.0
N363 N 0.07669 0.08361 0.71769 0.0
C364 C 0.054 0.11863 0.69778 0.0
C365 C 0.08056 0.135 0.69701 0.0
H366 H 0.12178 0.09052 0.72444 0.0
H367 H 0.03215 0.0803 0.70891 0.0
C368 C 0.06497 0.93371 0.72629 0.0
N369 N 0.069 0.96053 0.71824 0.0
C370 C 0.06182 0.9081 0.71564 0.0
C371 C 0.06757 0.93818 0.68862 0.0
C372 C 0.06992 0.96324 0.69979 0.0
C373 C 0.06314 0.91005 0.69648 0.0
H374 H 0.06356 0.93229 0.741 0.0
H375 H 0.07237 0.98495 0.69373 0.0
O376 O 0.07365 0.05675 0.76014 0.0
O377 O 0.06813 0.98842 0.75934 0.0
O378 O 0.03892 0.02419 0.72852 0.0
O379 O 0.10758 0.02154 0.73032 0.0
H380 H 0.12616 0.08077 0.76701 0.0
H381 H 0.03539 0.09983 0.75312 0.0
H382 H 0.13686 0.1348 0.76657 0.0
H383 H 0.04773 0.15354 0.75288 0.0
H384 H 0.13228 0.92402 0.7858 0.0
H385 H 0.05037 0.99595 0.7936 0.0
H386 H 0.11147 0.94874 0.75852 0.0
H387 H 0.07208 0.97023 0.82024 0.0
H388 H 0.97351 0.07283 0.79931 0.0
H389 H 0.95517 0.98127 0.78508 0.0
H390 H 0.20479 0.00314 0.77262 0.0
H391 H 0.1466 0.03103 0.81672 0.0
H392 H 0.00959 0.97425 0.722 0.0
H393 H 4e-05 0.06724 0.73482 0.0
H394 H 0.95473 0.96943 0.72231 0.0
H395 H 0.94533 0.06078 0.73489 0.0
H396 H 0.11158 0.04258 0.6967 0.0
H397 H 0.13646 0.97035 0.73171 0.0
H398 H 0.13824 0.01774 0.67112 0.0
H399 H 0.16265 0.94675 0.7055 0.0
H400 H 0.12613 0.13653 0.70658 0.0
H401 H 0.03454 0.12561 0.69034 0.0
H402 H 0.0577 0.88717 0.7224 0.0
H403 H 0.06921 0.94094 0.67398 0.0
H404 H 0.45367 0.97516 0.12503 0.0
H405 H 0.40893 0.99317 0.14067 0.0
H406 H 0.35442 0.94782 0.10113 0.0
H407 H 0.39922 0.92985 0.08536 0.0
H408 H 0.33207 0.004 0.11107 0.0
H409 H 0.36773 0.91501 0.13996 0.0
H410 H 0.40546 0.88363 0.15462 0.0
H411 H 0.41563 0.94852 0.19731 0.0
H412 H 0.37828 0.98054 0.18272 0.0
H413 H 0.19831 0.99196 0.16303 0.0
H414 H 0.24264 0.98423 0.14413 0.0
H415 H 0.29721 0.01948 0.18736 0.0
H416 H 0.25297 0.02674 0.20641 0.0
H417 H 0.32007 0.97015 0.17505 0.0
H418 H 0.28327 0.05863 0.14724 0.0
H419 H 0.24623 0.09082 0.13257 0.0
H420 H 0.23847 0.02856 0.08824 0.0
H421 H 0.27519 0.99578 0.10277 0.0
C422 C 0.43214 0.96956 0.11947 0.0
C423 C 0.42989 0.95136 0.1039 0.0
C424 C 0.40664 0.97974 0.12844 0.0
C425 C 0.37841 0.97161 0.12212 0.0
C426 C 0.37602 0.95442 0.10616 0.0
C427 C 0.40157 0.94418 0.09718 0.0
C428 C 0.35154 0.97914 0.13296 0.0
C429 C 0.32922 0.99641 0.12501 0.0
C430 C 0.34822 0.96968 0.15125 0.0
C431 C 0.37043 0.9503 0.16015 0.0
C432 C 0.37817 0.92269 0.1524 0.0
C433 C 0.39947 0.90478 0.1607 0.0
C434 C 0.41299 0.91411 0.17687 0.0
C435 C 0.40517 0.94134 0.18478 0.0
C436 C 0.38393 0.95938 0.1765 0.0
C437 C 0.21973 0.99844 0.16838 0.0
C438 C 0.22222 0.0099 0.1862 0.0
C439 C 0.24505 0.99408 0.15756 0.0
C440 C 0.27328 0.00154 0.16425 0.0
C441 C 0.2757 0.0135 0.18192 0.0
C442 C 0.25043 0.01759 0.1928 0.0
C443 C 0.30044 0.9953 0.15327 0.0
C444 C 0.32285 0.97804 0.16118 0.0
C445 C 0.30382 0.00491 0.13499 0.0
C446 C 0.28179 0.02461 0.12619 0.0
C447 C 0.2735 0.05169 0.13444 0.0
C448 C 0.25259 0.07006 0.12613 0.0
C449 C 0.23995 0.06171 0.10951 0.0
C450 C 0.24826 0.03499 0.10113 0.0
C451 C 0.26914 0.01652 0.10938 0.0
H452 H 0.22377 0.07597 0.1031 0.0
H453 H 0.42947 0.90021 0.18328 0.0
H454 H 0.14362 0.37422 0.60838 0.0
H455 H 0.13864 0.3245 0.62149 0.0
H456 H 0.05071 0.34669 0.64095 0.0
H457 H 0.05577 0.3965 0.62806 0.0
H458 H 0.08297 0.32175 0.66721 0.0
H459 H 0.06094 0.29969 0.60459 0.0
H460 H 0.06978 0.29924 0.57134 0.0
H461 H 0.14991 0.24921 0.57885 0.0
H462 H 0.14177 0.24973 0.61219 0.0
H463 H 0.03849 0.17867 0.6949 0.0
H464 H 0.04167 0.22559 0.67847 0.0
H465 H 0.1298 0.2028 0.6597 0.0
H466 H 0.12638 0.15523 0.67558 0.0
H467 H 0.09755 0.22765 0.63272 0.0
H468 H 0.12012 0.25032 0.69519 0.0
H469 H 0.11155 0.25068 0.72847 0.0
H470 H 0.0308 0.29982 0.7212 0.0
H471 H 0.03867 0.29937 0.68783 0.0
C472 C 0.12307 0.36826 0.6152 0.0
C473 C 0.09987 0.38902 0.61694 0.0
C474 C 0.12023 0.33989 0.62267 0.0
C475 C 0.09416 0.33177 0.63202 0.0
C476 C 0.07096 0.35245 0.63373 0.0
C477 C 0.0738 0.3808 0.62628 0.0
C478 C 0.09157 0.30224 0.64078 0.0
C479 C 0.08571 0.30117 0.65961 0.0
C480 C 0.09597 0.27541 0.63096 0.0
C481 C 0.10089 0.27501 0.61091 0.0
C482 C 0.08058 0.28881 0.59917 0.0
C483 C 0.08544 0.2885 0.5803 0.0
C484 C 0.11044 0.27427 0.57299 0.0
C485 C 0.13058 0.26025 0.58454 0.0
C486 C 0.12584 0.26053 0.60342 0.0
C487 C 0.0584 0.1834 0.68707 0.0
C488 C 0.08223 0.16321 0.68661 0.0
C489 C 0.06028 0.21038 0.67782 0.0
C490 C 0.08613 0.21787 0.66807 0.0
C491 C 0.1097 0.19751 0.66721 0.0
C492 C 0.10781 0.17047 0.67644 0.0
C493 C 0.08877 0.24722 0.6591 0.0
C494 C 0.09473 0.24826 0.64028 0.0
C495 C 0.08452 0.27407 0.66892 0.0
C496 C 0.07985 0.27456 0.689 0.0
C497 C 0.10042 0.26101 0.70067 0.0
C498 C 0.09571 0.26126 0.71955 0.0
C499 C 0.07061 0.2752 0.72694 0.0
C500 C 0.05022 0.289 0.71546 0.0
C501 C 0.0548 0.28877 0.69656 0.0
H502 H 0.067 0.27537 0.74156 0.0
H503 H 0.11416 0.27405 0.55838 0.0
H504 H 0.76411 0.94054 0.09585 0.0
H505 H 0.80707 0.95253 0.11475 0.0
H506 H 0.76299 0.03175 0.13424 0.0
H507 H 0.71983 0.01985 0.11526 0.0
H508 H 0.82266 0.04135 0.12636 0.0
H509 H 0.76377 0.97401 0.16087 0.0
H510 H 0.73447 0.92875 0.16667 0.0
H511 H 0.81163 0.87492 0.15666 0.0
H512 H 0.84133 0.91987 0.15049 0.0
H513 H 0.9229 0.05641 0.20238 0.0
H514 H 0.87757 0.05121 0.18417 0.0
H515 H 0.91418 0.9733 0.15791 0.0
H516 H 0.95944 0.97841 0.17598 0.0
H517 H 0.85559 0.96602 0.17112 0.0
H518 H 0.91343 0.03488 0.13511 0.0
H519 H 0.94182 0.08092 0.12988 0.0
H520 H 0.86512 0.13299 0.14412 0.0
H521 H 0.83637 0.08721 0.14969 0.0
C522 C 0.76378 0.96075 0.10395 0.0
C523 C 0.73887 0.97952 0.10383 0.0
C524 C 0.78822 0.96748 0.11481 0.0
C525 C 0.78809 0.99292 0.12597 0.0
C526 C 0.76353 0.01208 0.12566 0.0
C527 C 0.73897 0.00529 0.11481 0.0
C528 C 0.81331 0.99876 0.13836 0.0
C529 C 0.8296 0.02512 0.13636 0.0
C530 C 0.82243 0.97745 0.1513 0.0
C531 C 0.80471 0.95032 0.15505 0.0
C532 C 0.77445 0.95252 0.15975 0.0
C533 C 0.75777 0.92692 0.16312 0.0
C534 C 0.77116 0.89897 0.16199 0.0
C535 C 0.80128 0.89658 0.15751 0.0
C536 C 0.81806 0.92212 0.15409 0.0
C537 C 0.9212 0.0382 0.19271 0.0
C538 C 0.94466 0.01786 0.19051 0.0
C539 C 0.89543 0.03535 0.18229 0.0
C540 C 0.89266 0.01194 0.16968 0.0
C541 C 0.91597 0.99153 0.16756 0.0
C542 C 0.94183 0.99458 0.17779 0.0
C543 C 0.86529 0.00828 0.15883 0.0
C544 C 0.84852 0.98233 0.1612 0.0
C545 C 0.85562 0.0301 0.14639 0.0
C546 C 0.87286 0.05763 0.14303 0.0
C547 C 0.9027 0.05615 0.1373 0.0
C548 C 0.91884 0.08219 0.13424 0.0
C549 C 0.90531 0.10987 0.13672 0.0
C550 C 0.87558 0.11154 0.14223 0.0
C551 C 0.85935 0.08555 0.14534 0.0
H552 H 0.91784 0.13001 0.13433 0.0
H553 H 0.75822 0.87918 0.16462 0.0
H554 H 0.0088 0.65951 0.61428 0.0
H555 H 0.02271 0.69928 0.63541 0.0
H556 H 0.02425 0.76157 0.59083 0.0
H557 H 0.01218 0.72152 0.56954 0.0
H558 H 0.06809 0.77303 0.61139 0.0
H559 H 0.96452 0.75591 0.62288 0.0
H560 H 0.91985 0.72661 0.6304 0.0
H561 H 0.95724 0.7037 0.68223 0.0
H562 H 0.00232 0.73256 0.6749 0.0
H563 H 0.03648 0.90624 0.66287 0.0
H564 H 0.03016 0.86231 0.6437 0.0
H565 H 0.0719 0.80834 0.68455 0.0
H566 H 0.08032 0.85245 0.70345 0.0
H567 H 0.00877 0.79132 0.66767 0.0
H568 H 0.11246 0.81253 0.65486 0.0
H569 H 0.15394 0.84553 0.64633 0.0
H570 H 0.11154 0.86486 0.59542 0.0
H571 H 0.06955 0.83232 0.6038 0.0
C572 C 0.01203 0.68172 0.60902 0.0
C573 C 0.00854 0.68755 0.59032 0.0
C574 C 0.01985 0.70447 0.62111 0.0
C575 C 0.02382 0.73364 0.61482 0.0
C576 C 0.02108 0.73933 0.59607 0.0
C577 C 0.01382 0.71649 0.58393 0.0
C578 C 0.03085 0.75828 0.62768 0.0
C579 C 0.05492 0.77705 0.62361 0.0
C580 C 0.01401 0.76347 0.64381 0.0
C581 C 0.98692 0.74612 0.64826 0.0
C582 C 0.96331 0.74444 0.63582 0.0
C583 C 0.9379 0.72794 0.64006 0.0
C584 C 0.93575 0.71323 0.65676 0.0
C585 C 0.95896 0.71506 0.66928 0.0
C586 C 0.98444 0.7315 0.6651 0.0
C587 C 0.045 0.88526 0.66771 0.0
C588 C 0.05911 0.88314 0.68477 0.0
C589 C 0.04106 0.86011 0.65677 0.0
C590 C 0.0506 0.83226 0.66276 0.0
C591 C 0.06434 0.82976 0.67978 0.0
C592 C 0.0689 0.85501 0.6906 0.0
C593 C 0.04571 0.80577 0.65122 0.0
C594 C 0.02201 0.78686 0.65553 0.0
C595 C 0.06245 0.80081 0.63514 0.0
C596 C 0.08772 0.82026 0.63005 0.0
C597 C 0.11183 0.82407 0.64193 0.0
C598 C 0.13547 0.84263 0.63711 0.0
C599 C 0.13533 0.85736 0.62037 0.0
C600 C 0.11159 0.85348 0.6084 0.0
C601 C 0.08788 0.83496 0.61317 0.0
H602 H 0.15366 0.87171 0.61665 0.0
H603 H 0.91606 0.70048 0.66002 0.0
H604 H 0.4077 0.97583 0.9011 0.0
H605 H 0.36864 0.97379 0.87795 0.0
H606 H 0.33012 0.05409 0.90011 0.0
H607 H 0.36897 0.05614 0.92327 0.0
H608 H 0.28858 0.01182 0.89407 0.0
H609 H 0.37014 0.0556 0.86089 0.0
H610 H 0.42132 0.05812 0.84882 0.0
H611 H 0.40768 0.97689 0.81904 0.0
H612 H 0.35652 0.97366 0.83115 0.0
H613 H 0.19235 0.05611 0.82388 0.0
H614 H 0.23301 0.05352 0.84567 0.0
H615 H 0.26435 0.97283 0.82005 0.0
H616 H 0.22338 0.975 0.79828 0.0
H617 H 0.30981 0.0115 0.82751 0.0
H618 H 0.22772 0.96868 0.85948 0.0
H619 H 0.17649 0.96594 0.87142 0.0
H620 H 0.19112 0.04463 0.90353 0.0
H621 H 0.24233 0.0481 0.89155 0.0
C622 C 0.39111 0.99324 0.90084 0.0
C623 C 0.39176 0.01658 0.91369 0.0
C624 C 0.36882 0.99203 0.88765 0.0
C625 C 0.34671 0.014 0.88718 0.0
C626 C 0.34706 0.03701 0.90018 0.0
C627 C 0.36934 0.03827 0.91331 0.0
C628 C 0.32278 0.01285 0.87339 0.0
C629 C 0.29321 0.01208 0.87951 0.0
C630 C 0.32889 0.01227 0.85442 0.0
C631 C 0.35962 0.01421 0.84709 0.0
C632 C 0.37814 0.03814 0.8519 0.0
C633 C 0.40713 0.03972 0.84502 0.0
C634 C 0.41778 0.01763 0.83321 0.0
C635 C 0.39942 0.99395 0.82821 0.0
C636 C 0.37042 0.99224 0.83507 0.0
C637 C 0.20769 0.03764 0.82296 0.0
C638 C 0.20446 0.01563 0.80941 0.0
C639 C 0.23099 0.03625 0.8354 0.0
C640 C 0.25148 0.01279 0.8346 0.0
C641 C 0.24875 0.99111 0.82089 0.0
C642 C 0.22538 0.99245 0.80844 0.0
C643 C 0.27562 0.01096 0.84821 0.0
C644 C 0.30521 0.01109 0.84206 0.0
C645 C 0.26955 0.01087 0.86718 0.0
C646 C 0.23879 0.0088 0.87448 0.0
C647 C 0.21994 0.98554 0.86897 0.0
C648 C 0.19092 0.98383 0.87577 0.0
C649 C 0.18053 0.00514 0.88819 0.0
C650 C 0.19918 0.02816 0.89388 0.0
C651 C 0.22822 0.02999 0.88711 0.0
H652 H 0.15805 0.00377 0.89344 0.0
H653 H 0.44022 0.01891 0.8279 0.0
H654 H 0.15759 0.32802 0.41498 0.0
H655 H 0.14812 0.2975 0.38797 0.0
H656 H 0.05499 0.29386 0.40218 0.0
H657 H 0.06473 0.32329 0.42972 0.0
H658 H 0.07254 0.24141 0.39391 0.0
H659 H 0.08231 0.3346 0.36465 0.0
H660 H 0.10471 0.38297 0.35702 0.0
H661 H 0.18199 0.33889 0.33548 0.0
H662 H 0.16026 0.29023 0.34322 0.0
H663 H 0.04195 0.16447 0.3106 0.0
H664 H 0.04251 0.20611 0.33238 0.0
H665 H 0.1382 0.20284 0.33351 0.0
H666 H 0.13776 0.16116 0.31186 0.0
H667 H 0.11325 0.26201 0.33217 0.0
H668 H 0.10347 0.16922 0.36552 0.0
H669 H 0.07905 0.12159 0.37264 0.0
H670 H 0.99803 0.16759 0.38564 0.0
H671 H 0.02189 0.21548 0.37832 0.0
C672 C 0.13509 0.3208 0.41227 0.0
C673 C 0.11194 0.32776 0.42452 0.0
C674 C 0.12961 0.30362 0.39673 0.0
C675 C 0.10074 0.29362 0.39287 0.0
C676 C 0.07744 0.30129 0.40485 0.0
C677 C 0.083 0.31815 0.42054 0.0
C678 C 0.09538 0.27343 0.3771 0.0
C679 C 0.08089 0.24632 0.38034 0.0
C680 C 0.10654 0.27952 0.35938 0.0
C681 C 0.11972 0.30874 0.35464 0.0
C682 C 0.10418 0.33521 0.35841 0.0
C683 C 0.11674 0.36269 0.35404 0.0
C684 C 0.14478 0.364 0.34581 0.0
C685 C 0.16028 0.33783 0.34188 0.0
C686 C 0.14783 0.31029 0.34622 0.0
C687 C 0.06308 0.17298 0.3153 0.0
C688 C 0.08982 0.15955 0.30968 0.0
C689 C 0.06337 0.19665 0.32774 0.0
C690 C 0.09039 0.20739 0.33457 0.0
C691 C 0.11714 0.19486 0.32835 0.0
C692 C 0.11686 0.17097 0.31612 0.0
C693 C 0.09089 0.23018 0.34919 0.0
C694 C 0.10451 0.2576 0.34572 0.0
C695 C 0.07858 0.22461 0.36663 0.0
C696 C 0.06434 0.19586 0.37117 0.0
C697 C 0.08038 0.16914 0.36975 0.0
C698 C 0.06666 0.14211 0.37384 0.0
C699 C 0.03698 0.14155 0.37953 0.0
C700 C 0.021 0.16805 0.38119 0.0
C701 C 0.03461 0.19514 0.37708 0.0
H702 H 0.0264 0.1206 0.3827 0.0
H703 H 0.15447 0.3853 0.34244 0.0
H704 H 0.74986 0.08751 0.90693 0.0
H705 H 0.78442 0.08068 0.8813 0.0
H706 H 0.80917 0.99484 0.90225 0.0
H707 H 0.77496 0.00182 0.92803 0.0
H708 H 0.85695 0.02658 0.89382 0.0
H709 H 0.76623 0.00122 0.86394 0.0
H710 H 0.71439 0.00816 0.85423 0.0
H711 H 0.7393 0.08689 0.82506 0.0
H712 H 0.79124 0.08066 0.83483 0.0
H713 H 0.94418 0.98347 0.81768 0.0
H714 H 0.90379 0.98473 0.84011 0.0
H715 H 0.87938 0.0724 0.82212 0.0
H716 H 0.91923 0.07097 0.79925 0.0
H717 H 0.83057 0.03772 0.82856 0.0
H718 H 0.92063 0.06416 0.85975 0.0
H719 H 0.97247 0.05722 0.8695 0.0
H720 H 0.94836 0.97605 0.8963 0.0
H721 H 0.89642 0.9823 0.88648 0.0
C722 C 0.76235 0.067 0.90587 0.0
C723 C 0.75942 0.04499 0.91931 0.0
C724 C 0.78203 0.06309 0.89123 0.0
C725 C 0.79913 0.03708 0.88973 0.0
C726 C 0.79611 0.01502 0.90308 0.0
C727 C 0.77648 0.01895 0.91774 0.0
C728 C 0.82135 0.0336 0.87481 0.0
C729 C 0.85106 0.0285 0.87954 0.0
C730 C 0.81381 0.03684 0.85619 0.0
C731 C 0.78259 0.04062 0.85026 0.0
C732 C 0.76062 0.02015 0.85558 0.0
C733 C 0.73122 0.02393 0.85004 0.0
C734 C 0.72354 0.04799 0.83907 0.0
C735 C 0.74527 0.06828 0.83358 0.0
C736 C 0.7747 0.06462 0.8391 0.0
C737 C 0.92992 0.00283 0.81827 0.0
C738 C 0.93502 0.0272 0.80674 0.0
C739 C 0.907 0.00361 0.83121 0.0
C740 C 0.88884 0.02882 0.83294 0.0
C741 C 0.89321 0.05278 0.82105 0.0
C742 C 0.91615 0.05203 0.80811 0.0
C743 C 0.86606 0.03069 0.84761 0.0
C744 C 0.83633 0.03559 0.84285 0.0
C745 C 0.87353 0.02725 0.86622 0.0
C746 C 0.90471 0.02354 0.87222 0.0
C747 C 0.92643 0.04472 0.8676 0.0
C748 C 0.95582 0.04093 0.87316 0.0
C749 C 0.96372 0.01617 0.88347 0.0
C750 C 0.94222 0.99519 0.88829 0.0
C751 C 0.9128 0.99885 0.88274 0.0
H752 H 0.98648 0.01327 0.88776 0.0
H753 H 0.70076 0.05087 0.83479 0.0
H754 H 0.02351 0.66916 0.38887 0.0
H755 H 0.02998 0.70943 0.36681 0.0
H756 H 0.09341 0.75147 0.40251 0.0
H757 H 0.08668 0.71153 0.42466 0.0
H758 H 0.05374 0.79058 0.3907 0.0
H759 H 0.11563 0.71574 0.36331 0.0
H760 H 0.12765 0.66616 0.35085 0.0
H761 H 0.06057 0.67628 0.30995 0.0
H762 H 0.04786 0.72578 0.32234 0.0
H763 H 0.1107 0.89767 0.32938 0.0
H764 H 0.10627 0.85488 0.34958 0.0
H765 H 0.03951 0.81709 0.31447 0.0
H766 H 0.04339 0.86007 0.29433 0.0
H767 H 0.08048 0.7755 0.32549 0.0
H768 H 0.01869 0.85034 0.35304 0.0
H769 H 0.00703 0.90004 0.36544 0.0
H770 H 0.07437 0.88979 0.40615 0.0
H771 H 0.08675 0.84017 0.39381 0.0
C772 C 0.03916 0.68678 0.39184 0.0
C773 C 0.055 0.68697 0.40832 0.0
C774 C 0.04286 0.70975 0.37925 0.0
C775 C 0.06244 0.7333 0.38292 0.0
C776 C 0.07827 0.73348 0.39936 0.0
C777 C 0.07455 0.71058 0.41195 0.0
C778 C 0.06557 0.75842 0.37001 0.0
C779 C 0.06001 0.7873 0.37651 0.0
C780 C 0.07297 0.75408 0.35137 0.0
C781 C 0.08059 0.72434 0.34388 0.0
C782 C 0.10327 0.70729 0.35176 0.0
C783 C 0.11024 0.67922 0.34469 0.0
C784 C 0.09483 0.66804 0.32965 0.0
C785 C 0.07246 0.68495 0.32162 0.0
C786 C 0.06538 0.71302 0.32865 0.0
C787 C 0.09488 0.8804 0.32601 0.0
C788 C 0.07726 0.88244 0.31028 0.0
C789 C 0.09248 0.85589 0.33753 0.0
C790 C 0.07236 0.83295 0.3336 0.0
C791 C 0.05521 0.83454 0.31773 0.0
C792 C 0.05754 0.85909 0.30621 0.0
C793 C 0.06888 0.80758 0.34626 0.0
C794 C 0.07426 0.77871 0.3397 0.0
C795 C 0.06135 0.81189 0.36487 0.0
C796 C 0.05385 0.84166 0.37238 0.0
C797 C 0.03118 0.85878 0.36454 0.0
C798 C 0.02441 0.88692 0.37157 0.0
C799 C 0.04 0.8981 0.38654 0.0
C800 C 0.06234 0.88112 0.39454 0.0
C801 C 0.06923 0.85298 0.38754 0.0
H802 H 0.03472 0.91989 0.39197 0.0
H803 H 0.10026 0.64631 0.32419 0.0
loop_
_geom_bond_atom_site_label_1
_geom_bond_atom_site_label_2
_geom_bond_distance
_geom_bond_site_symmetry_2
_ccdc_geom_bond_type
C0 C1 1.560 . S
C0 H61 0.959 . S
C0 H62 0.959 . S
C0 H63 0.960 . S
C1 C0 1.560 . S
C1 O56 1.426 . S
C1 H60 0.980 . S
C2 C3 1.407 . S
C2 C7 1.418 . S
C2 O56 1.334 . S
C3 C2 1.407 . S
C3 C4 1.360 1_545 S
C3 H64 0.929 1_545 S
C4 C3 1.360 1_565 S
C4 C5 1.401 1_565 S
C4 C8 1.527 . S
C5 C4 1.401 1_545 S
C5 C6 1.405 . S
C5 C38 1.587 . S
C6 C5 1.405 . S
C6 C7 1.332 . S
C6 C9 1.496 . S
C7 C2 1.418 . S
C7 C6 1.332 . S
C7 H65 0.929 . S
C8 C4 1.527 . S
C8 H66 0.959 . S
C8 H67 0.961 . S
C8 H68 0.961 . S
C9 C6 1.496 . S
C9 H69 0.960 . S
C9 H70 0.960 . S
C9 H71 0.961 . S
C10 C11 1.513 1_565 S
C10 H73 0.961 1_565 S
C10 H74 0.960 . S
C10 H75 0.959 . S
C11 C10 1.513 1_545 S
C11 O59 1.456 1_545 S
C11 H72 0.987 . S
C12 C13 1.349 1_565 S
C12 C17 1.367 . S
C12 O59 1.408 . S
C13 C12 1.349 1_545 S
C13 C14 1.407 . S
C13 H76 0.930 . S
C14 C13 1.407 . S
C14 C15 1.449 1_545 S
C14 C18 1.535 . S
C15 C14 1.449 1_565 S
C15 C16 1.384 . S
C15 C40 1.553 . S
C16 C15 1.384 . S
C16 C17 1.364 . S
C16 C19 1.450 . S
C17 C12 1.367 . S
C17 C16 1.364 . S
C17 H77 0.931 . S
C18 C14 1.535 . S
C18 H78 0.959 . S
C18 H79 0.961 . S
C18 H80 0.959 . S
C19 C16 1.450 . S
C19 H81 0.960 . S
C19 H82 0.960 . S
C19 H83 0.960 . S
C20 C21 1.309 1_565 S
C20 C25 1.304 . S
C20 O58 1.435 . S
C21 C20 1.309 1_545 S
C21 C22 1.476 . S
C21 H85 0.930 . S
C22 C21 1.476 . S
C22 C23 1.400 1_545 S
C22 C26 1.567 . S
C23 C22 1.400 1_565 S
C23 C24 1.373 . S
C23 C45 1.435 . S
C24 C23 1.373 . S
C24 C25 1.339 . S
C24 C27 1.530 . S
C25 C20 1.304 . S
C25 C24 1.339 . S
C25 H86 0.930 . S
C26 C22 1.567 . S
C26 H87 0.961 . S
C26 H88 0.960 . S
C26 H89 0.958 . S
C27 C24 1.530 . S
C27 H90 0.961 . S
C27 H91 0.960 . S
C27 H92 0.960 . S
C28 C29 1.530 . S
C28 H94 0.961 . S
C28 H95 0.961 . S
C28 H96 0.959 . S
C29 C28 1.530 . S
C29 O57 1.412 . S
C29 H93 0.980 . S
C30 C31 1.288 . S
C30 C35 1.377 . S
C30 O57 1.393 . S
C31 C30 1.288 . S
C31 C32 1.369 . S
C31 H97 0.932 . S
C32 C31 1.369 . S
C32 C33 1.398 . S
C32 C36 1.527 . S
C33 C32 1.398 . S
C33 C34 1.380 1_545 S
C33 C47 1.497 . S
C34 C33 1.380 1_565 S
C34 C35 1.383 1_565 S
C34 C37 1.603 . S
C35 C30 1.377 . S
C35 C34 1.383 1_545 S
C35 H98 0.929 1_545 S
C36 C32 1.527 . S
C36 H99 0.961 . S
C36 H100 0.959 . S
C36 H101 0.959 . S
C37 C34 1.603 . S
C37 H102 0.960 . S
C37 H103 0.962 . S
C37 H104 0.961 . S
C38 C5 1.587 . S
C38 C39 1.360 1_545 S
C38 C51 1.412 . S
C39 C38 1.360 1_565 S
C39 C40 1.365 . S
C39 H105 0.929 . S
C40 C15 1.553 . S
C40 C39 1.365 . S
C40 C41 1.404 . S
C41 C40 1.404 . S
C41 C42 1.395 . S
C41 C52 1.451 . S
C42 C41 1.395 . S
C42 C43 1.322 1_554 S
C42 H106 0.930 . S
C43 C42 1.322 1_556 S
C43 C44 1.459 . S
C43 H107 0.929 . S
C44 C43 1.459 . S
C44 C45 1.448 . S
C44 C53 1.399 . S
C45 C23 1.435 . S
C45 C44 1.448 . S
C45 C46 1.365 1_565 S
C46 C45 1.365 1_545 S
C46 C47 1.438 . S
C46 H108 0.930 . S
C47 C33 1.497 . S
C47 C46 1.438 . S
C47 C48 1.360 . S
C48 C47 1.360 . S
C48 C49 1.401 . S
C48 C53 1.439 1_545 S
C49 C48 1.401 . S
C49 C50 1.347 1_556 S
C49 H109 0.929 . S
C50 C49 1.347 1_554 S
C50 C51 1.455 . S
C50 H110 0.930 . S
C51 C38 1.412 . S
C51 C50 1.455 . S
C51 C52 1.331 1_545 S
C52 C41 1.451 . S
C52 C51 1.331 1_565 S
C52 C53 1.498 1_554 S
C53 C44 1.399 . S
C53 C48 1.439 1_565 S
C53 C52 1.498 1_556 S
C54 C55 1.582 1_565 S
C54 H111 0.962 1_565 S
C54 H112 0.959 . S
C54 H113 0.958 . S
C55 C54 1.582 1_545 S
C55 O58 1.458 1_545 S
C55 H84 0.980 . S
O56 C1 1.426 . S
O56 C2 1.334 . S
O57 C29 1.412 . S
O57 C30 1.393 . S
O58 C20 1.435 . S
O58 C55 1.458 1_565 S
O59 C11 1.456 1_565 S
O59 C12 1.408 . S
H60 C1 0.980 . S
H61 C0 0.959 . S
H62 C0 0.959 . S
H63 C0 0.960 . S
H64 C3 0.929 1_565 S
H65 C7 0.929 . S
H66 C8 0.959 . S
H67 C8 0.961 . S
H68 C8 0.961 . S
H69 C9 0.960 . S
H70 C9 0.960 . S
H71 C9 0.961 . S
H72 C11 0.987 . S
H73 C10 0.961 1_545 S
H74 C10 0.960 . S
H75 C10 0.959 . S
H76 C13 0.930 . S
H77 C17 0.931 . S
H78 C18 0.959 . S
H79 C18 0.961 . S
H80 C18 0.959 . S
H81 C19 0.960 . S
H82 C19 0.960 . S
H83 C19 0.960 . S
H84 C55 0.980 . S
H85 C21 0.930 . S
H86 C25 0.930 . S
H87 C26 0.961 . S
H88 C26 0.960 . S
H89 C26 0.958 . S
H90 C27 0.961 . S
H91 C27 0.960 . S
H92 C27 0.960 . S
H93 C29 0.980 . S
H94 C28 0.961 . S
H95 C28 0.961 . S
H96 C28 0.959 . S
H97 C31 0.932 . S
H98 C35 0.929 1_565 S
H99 C36 0.961 . S
H100 C36 0.959 . S
H101 C36 0.959 . S
H102 C37 0.960 . S
H103 C37 0.962 . S
H104 C37 0.961 . S
H105 C39 0.929 . S
H106 C42 0.930 . S
H107 C43 0.929 . S
H108 C46 0.930 . S
H109 C49 0.929 . S
H110 C50 0.930 . S
H111 C54 0.962 1_545 S
H112 C54 0.959 . S
H113 C54 0.958 . S
C114 C115 1.560 . S
C114 H175 0.959 . S
C114 H176 0.959 . S
C114 H177 0.960 . S
C115 C114 1.560 . S
C115 O170 1.426 . S
C115 H174 0.980 . S
C116 C117 1.407 . S
C116 C121 1.418 . S
C116 O170 1.334 . S
C117 C116 1.407 . S
C117 C118 1.360 . S
C117 H178 0.929 . S
C118 C117 1.360 . S
C118 C119 1.401 . S
C118 C122 1.527 . S
C119 C118 1.401 . S
C119 C120 1.405 . S
C119 C152 1.587 . S
C120 C119 1.405 . S
C120 C121 1.332 . S
C120 C123 1.496 . S
C121 C116 1.418 . S
C121 C120 1.332 . S
C121 H179 0.929 . S
C122 C118 1.527 . S
C122 H180 0.959 . S
C122 H181 0.961 . S
C122 H182 0.961 . S
C123 C120 1.496 . S
C123 H183 0.960 . S
C123 H184 0.960 . S
C123 H185 0.961 . S
C124 C125 1.517 . S
C124 H187 0.961 . S
C124 H188 0.960 . S
C124 H189 0.959 . S
C125 C124 1.517 . S
C125 O173 1.468 . S
C125 H186 0.980 . S
C126 C127 1.349 . S
C126 C131 1.367 . S
C126 O173 1.408 . S
C127 C126 1.349 . S
C127 C128 1.407 . S
C127 H190 0.930 . S
C128 C127 1.407 . S
C128 C129 1.449 . S
C128 C132 1.535 . S
C129 C128 1.449 . S
C129 C130 1.384 . S
C129 C154 1.553 . S
C130 C129 1.384 . S
C130 C131 1.364 . S
C130 C133 1.450 1_455 S
C131 C126 1.367 . S
C131 C130 1.364 . S
C131 H191 0.921 1_455 S
C132 C128 1.535 . S
C132 H192 0.959 . S
C132 H193 0.961 . S
C132 H194 0.959 . S
C133 C130 1.450 1_655 S
C133 H195 0.960 . S
C133 H196 0.960 . S
C133 H197 0.960 . S
C134 C135 1.309 . S
C134 C139 1.304 . S
C134 O172 1.435 . S
C135 C134 1.309 . S
C135 C136 1.476 . S
C135 H199 0.930 . S
C136 C135 1.476 . S
C136 C137 1.400 . S
C136 C140 1.567 . S
C137 C136 1.400 . S
C137 C138 1.373 . S
C137 C159 1.432 . S
C138 C137 1.373 . S
C138 C139 1.339 . S
C138 C141 1.530 . S
C139 C134 1.304 . S
C139 C138 1.339 . S
C139 H200 0.930 . S
C140 C136 1.567 . S
C140 H201 0.961 . S
C140 H202 0.960 . S
C140 H203 0.958 . S
C141 C138 1.530 . S
C141 H204 0.961 1_455 S
C141 H205 0.960 . S
C141 H206 0.960 . S
C142 C143 1.530 . S
C142 H208 0.961 . S
C142 H209 0.961 . S
C142 H210 0.959 . S
C143 C142 1.530 . S
C143 O171 1.412 . S
C143 H207 0.980 . S
C144 C145 1.288 . S
C144 C149 1.377 . S
C144 O171 1.393 . S
C145 C144 1.288 . S
C145 C146 1.369 . S
C145 H211 0.932 . S
C146 C145 1.369 . S
C146 C147 1.398 . S
C146 C150 1.527 . S
C147 C146 1.398 . S
C147 C148 1.380 . S
C147 C161 1.497 . S
C148 C147 1.380 . S
C148 C149 1.383 . S
C148 C151 1.603 . S
C149 C144 1.377 . S
C149 C148 1.383 . S
C149 H212 0.929 . S
C150 C146 1.527 . S
C150 H213 0.961 . S
C150 H214 0.959 . S
C150 H215 0.959 . S
C151 C148 1.603 . S
C151 H216 0.960 . S
C151 H217 0.962 . S
C151 H218 0.961 . S
C152 C119 1.587 . S
C152 C153 1.360 . S
C152 C165 1.412 . S
C153 C152 1.360 . S
C153 C154 1.365 . S
C153 H219 0.929 . S
C154 C129 1.553 . S
C154 C153 1.365 . S
C154 C155 1.404 . S
C155 C154 1.404 . S
C155 C156 1.395 . S
C155 C166 1.451 . S
C156 C155 1.395 . S
C156 C157 1.322 . S
C156 H220 0.930 . S
C157 C156 1.322 . S
C157 C158 1.459 . S
C157 H221 0.929 . S
C158 C157 1.459 . S
C158 C159 1.445 . S
C158 C167 1.395 . S
C159 C137 1.432 . S
C159 C158 1.445 . S
C159 C160 1.370 . S
C160 C159 1.370 . S
C160 C161 1.438 . S
C160 H222 0.930 . S
C161 C147 1.497 . S
C161 C160 1.438 . S
C161 C162 1.360 . S
C162 C161 1.360 . S
C162 C163 1.401 . S
C162 C167 1.446 . S
C163 C162 1.401 . S
C163 C164 1.347 . S
C163 H223 0.929 . S
C164 C163 1.347 . S
C164 C165 1.455 . S
C164 H224 0.930 . S
C165 C152 1.412 . S
C165 C164 1.455 . S
C165 C166 1.331 . S
C166 C155 1.451 . S
C166 C165 1.331 . S
C166 C167 1.497 . S
C167 C158 1.395 . S
C167 C162 1.446 . S
C167 C166 1.497 . S
C168 C169 1.582 . S
C168 H225 0.962 . S
C168 H226 0.959 . S
C168 H227 0.958 . S
C169 C168 1.582 . S
C169 O172 1.458 . S
C169 H198 0.980 . S
O170 C115 1.426 . S
O170 C116 1.334 . S
O171 C143 1.412 . S
O171 C144 1.393 . S
O172 C134 1.435 . S
O172 C169 1.458 . S
O173 C125 1.468 . S
O173 C126 1.408 . S
H174 C115 0.980 . S
H175 C114 0.959 . S
H176 C114 0.959 . S
H177 C114 0.960 . S
H178 C117 0.929 . S
H179 C121 0.929 . S
H180 C122 0.959 . S
H181 C122 0.961 . S
H182 C122 0.961 . S
H183 C123 0.960 . S
H184 C123 0.960 . S
H185 C123 0.961 . S
H186 C125 0.980 . S
H187 C124 0.961 . S
H188 C124 0.960 . S
H189 C124 0.959 . S
H190 C127 0.930 . S
H191 C131 0.921 1_655 S
H192 C132 0.959 . S
H193 C132 0.961 . S
H194 C132 0.959 . S
H195 C133 0.960 . S
H196 C133 0.960 . S
H197 C133 0.960 . S
H198 C169 0.980 . S
H199 C135 0.930 . S
H200 C139 0.930 . S
H201 C140 0.961 . S
H202 C140 0.960 . S
H203 C140 0.958 . S
H204 C141 0.961 1_655 S
H205 C141 0.960 . S
H206 C141 0.960 . S
H207 C143 0.980 . S
H208 C142 0.961 . S
H209 C142 0.961 . S
H210 C142 0.959 . S
H211 C145 0.932 . S
H212 C149 0.929 . S
H213 C150 0.961 . S
H214 C150 0.959 . S
H215 C150 0.959 . S
H216 C151 0.960 . S
H217 C151 0.962 . S
H218 C151 0.961 . S
H219 C153 0.929 . S
H220 C156 0.930 . S
H221 C157 0.929 . S
H222 C160 0.930 . S
H223 C163 0.929 . S
H224 C164 0.930 . S
H225 C168 0.962 . S
H226 C168 0.959 . S
H227 C168 0.958 . S
Li228 N245 1.990 . S
Li228 O288 1.956 . S
Li228 O289 1.970 . S
Li228 O290 1.961 . S
Li229 N253 1.990 . S
Li229 O288 1.970 1_565 S
Li229 O289 1.956 1_565 S
Li229 O291 1.961 . S
Li230 N275 1.990 . S
Li230 O288 1.961 . S
Li230 O290 1.956 . S
Li230 O291 1.970 1_545 S
Li231 N281 1.990 . S
Li231 O289 1.961 . S
Li231 O290 1.970 . S
Li231 O291 1.956 1_545 S
C232 C234 1.348 . S
C232 C235 1.356 . S
C232 O288 1.325 . S
N233 C236 1.314 . S
N233 C237 1.279 . S
C234 C232 1.348 . S
C234 C236 1.353 . S
C234 H292 0.929 1_545 S
C235 C232 1.356 . S
C235 C237 1.358 . S
C235 H293 0.930 . S
C236 N233 1.314 . S
C236 C234 1.353 . S
C236 H294 0.930 1_545 S
C237 N233 1.279 . S
C237 C235 1.358 . S
C237 H295 0.930 . S
C238 C241 1.348 . S
C238 C242 1.351 1_545 S
C238 O289 1.325 . S
C239 N240 1.274 1_565 S
C239 C242 1.361 1_655 S
C239 H296 0.936 . S
N240 C239 1.274 1_545 S
N240 C243 1.314 . S
C241 C238 1.348 . S
C241 C243 1.353 1_455 S
C241 H297 0.929 . S
C242 C238 1.351 1_565 S
C242 C239 1.361 1_455 S
C242 H298 0.931 . S
C243 N240 1.314 . S
C243 C241 1.353 1_655 S
C243 H299 0.930 . S
C244 N245 1.314 . S
C244 C249 1.353 . S
C244 H250 0.930 . S
N245 Li228 1.990 . S
N245 C244 1.314 . S
N245 C247 1.279 . S
C246 C247 1.358 . S
C246 C248 1.356 . S
C246 H300 0.930 . S
C247 N245 1.279 . S
C247 C246 1.358 . S
C247 H251 0.930 . S
C248 C246 1.356 . S
C248 C249 1.348 . S
C249 C244 1.353 . S
C249 C248 1.348 . S
C249 H301 0.929 . S
H250 C244 0.930 . S
H251 C247 0.930 . S
C252 N253 1.314 . S
C252 C254 1.353 . S
C252 H258 0.930 . S
N253 Li229 1.990 . S
N253 C252 1.314 . S
N253 C256 1.279 . S
C254 C252 1.353 . S
C254 C257 1.348 . S
C254 H302 0.929 . S
C255 C256 1.358 . S
C255 C257 1.356 . S
C255 H303 0.930 . S
C256 N253 1.279 . S
C256 C255 1.358 . S
C256 H259 0.930 . S
C257 C254 1.348 . S
C257 C255 1.356 . S
H258 C252 0.930 . S
H259 C256 0.930 . S
C260 C262 1.348 . S
C260 C263 1.356 . S
C260 O290 1.325 . S
N261 C264 1.314 . S
N261 C265 1.279 . S
C262 C260 1.348 . S
C262 C264 1.353 . S
C262 H304 0.929 . S
C263 C260 1.356 . S
C263 C265 1.358 . S
C263 H305 0.930 . S
C264 N261 1.314 . S
C264 C262 1.353 . S
C264 H306 0.930 . S
C265 N261 1.279 . S
C265 C263 1.358 . S
C265 H307 0.930 . S
C266 C267 1.348 . S
C266 C268 1.356 . S
C266 O291 1.325 . S
C267 C266 1.348 . S
C267 C269 1.353 . S
C267 H308 0.929 . S
C268 C266 1.356 . S
C268 C270 1.358 . S
C268 H309 0.930 . S
C269 C267 1.353 . S
C269 N271 1.314 . S
C269 H310 0.930 . S
C270 C268 1.358 . S
C270 N271 1.279 . S
C270 H311 0.930 . S
N271 C269 1.314 . S
N271 C270 1.279 . S
C272 C274 1.353 . S
C272 N275 1.314 . S
C272 H278 0.930 1_545 S
C273 N275 1.279 . S
C273 C276 1.358 . S
C273 H279 0.930 . S
C274 C272 1.353 . S
C274 C277 1.348 . S
C274 H312 0.929 1_545 S
N275 Li230 1.990 . S
N275 C272 1.314 . S
N275 C273 1.279 . S
C276 C273 1.358 . S
C276 C277 1.356 . S
C276 H313 0.930 . S
C277 C274 1.348 . S
C277 C276 1.356 . S
H278 C272 0.930 1_565 S
H279 C273 0.930 . S
C280 N281 1.314 1_655 S
C280 C282 1.353 . S
C280 H286 0.930 . S
N281 Li231 1.990 . S
N281 C280 1.314 1_455 S
N281 C284 1.261 1_545 S
C282 C280 1.353 . S
C282 C285 1.348 . S
C282 H314 0.929 . S
C283 C284 1.358 1_655 S
C283 C285 1.338 1_565 S
C283 H315 0.948 . S
C284 N281 1.261 1_565 S
C284 C283 1.358 1_455 S
C284 H287 0.952 . S
C285 C282 1.348 . S
C285 C283 1.338 1_545 S
H286 C280 0.930 . S
H287 C284 0.952 . S
O288 Li228 1.956 . S
O288 Li229 1.970 1_545 S
O288 Li230 1.961 . S
O288 C232 1.325 . S
O289 Li228 1.970 . S
O289 Li229 1.956 1_545 S
O289 Li231 1.961 . S
O289 C238 1.325 . S
O290 Li228 1.961 . S
O290 Li230 1.956 . S
O290 Li231 1.970 . S
O290 C260 1.325 . S
O291 Li229 1.961 . S
O291 Li230 1.970 1_565 S
O291 Li231 1.956 1_565 S
O291 C266 1.325 . S
H292 C234 0.929 1_565 S
H293 C235 0.930 . S
H294 C236 0.930 1_565 S
H295 C237 0.930 . S
H296 C239 0.936 . S
H297 C241 0.929 . S
H298 C242 0.931 . S
H299 C243 0.930 . S
H300 C246 0.930 . S
H301 C249 0.929 . S
H302 C254 0.929 . S
H303 C255 0.930 . S
H304 C262 0.929 . S
H305 C263 0.930 . S
H306 C264 0.930 . S
H307 C265 0.930 . S
H308 C267 0.929 . S
H309 C268 0.930 . S
H310 C269 0.930 . S
H311 C270 0.930 . S
H312 C274 0.929 1_565 S
H313 C276 0.930 . S
H314 C282 0.929 . S
H315 C283 0.948 . S
Li316 N333 1.990 . S
Li316 O376 1.956 . S
Li316 O377 1.970 1_545 S
Li316 O378 1.961 . S
Li317 N341 1.990 . S
Li317 O376 1.970 . S
Li317 O377 1.956 1_545 S
Li317 O379 1.961 . S
Li318 N363 1.990 . S
Li318 O376 1.961 . S
Li318 O378 1.956 . S
Li318 O379 1.970 . S
Li319 N369 1.990 . S
Li319 O377 1.961 . S
Li319 O378 1.970 1_565 S
Li319 O379 1.956 1_565 S
C320 C322 1.348 . S
C320 C323 1.356 . S
C320 O376 1.325 . S
N321 C324 1.314 . S
N321 C325 1.279 . S
C322 C320 1.348 . S
C322 C324 1.353 . S
C322 H380 0.929 . S
C323 C320 1.356 . S
C323 C325 1.358 . S
C323 H381 0.930 . S
C324 N321 1.314 . S
C324 C322 1.353 . S
C324 H382 0.930 . S
C325 N321 1.279 . S
C325 C323 1.358 . S
C325 H383 0.930 . S
C326 C329 1.348 . S
C326 C330 1.356 . S
C326 O377 1.325 . S
C327 N328 1.279 . S
C327 C330 1.358 . S
C327 H384 0.930 . S
N328 C327 1.279 . S
N328 C331 1.314 . S
C329 C326 1.348 . S
C329 C331 1.353 . S
C329 H385 0.929 . S
C330 C326 1.356 . S
C330 C327 1.358 . S
C330 H386 0.930 . S
C331 N328 1.314 . S
C331 C329 1.353 . S
C331 H387 0.930 . S
C332 N333 1.314 1_655 S
C332 C337 1.353 1_545 S
C332 H338 0.930 1_545 S
N333 Li316 1.990 . S
N333 C332 1.314 1_455 S
N333 C335 1.279 . S
C334 C335 1.358 1_655 S
C334 C336 1.356 . S
C334 H388 0.930 . S
C335 N333 1.279 . S
C335 C334 1.358 1_455 S
C335 H339 0.930 . S
C336 C334 1.356 . S
C336 C337 1.346 1_545 S
C337 C332 1.353 1_565 S
C337 C336 1.346 1_565 S
C337 H389 0.931 . S
H338 C332 0.930 1_565 S
H339 C335 0.930 . S
C340 N341 1.314 . S
C340 C342 1.353 . S
C340 H346 0.930 . S
N341 Li317 1.990 . S
N341 C340 1.314 . S
N341 C344 1.279 1_545 S
C342 C340 1.353 . S
C342 C345 1.348 . S
C342 H390 0.929 . S
C343 C344 1.358 . S
C343 C345 1.356 1_565 S
C343 H391 0.930 . S
C344 N341 1.279 1_565 S
C344 C343 1.358 . S
C344 H347 0.930 . S
C345 C342 1.348 . S
C345 C343 1.356 1_545 S
H346 C340 0.930 . S
H347 C344 0.930 . S
C348 C350 1.344 1_545 S
C348 C351 1.356 1_455 S
C348 O378 1.325 . S
N349 C352 1.314 . S
N349 C353 1.279 . S
C350 C348 1.344 1_565 S
C350 C352 1.353 1_465 S
C350 H392 0.934 . S
C351 C348 1.356 1_655 S
C351 C353 1.358 . S
C351 H393 0.930 . S
C352 N349 1.314 . S
C352 C350 1.353 1_645 S
C352 H394 0.930 1_545 S
C353 N349 1.279 . S
C353 C351 1.358 . S
C353 H395 0.930 . S
C354 C355 1.348 . S
C354 C356 1.356 1_545 S
C354 O379 1.325 . S
C355 C354 1.348 . S
C355 C357 1.353 . S
C355 H396 0.929 . S
C356 C354 1.356 1_565 S
C356 C358 1.358 . S
C356 H397 0.930 . S
C357 C355 1.353 . S
C357 N359 1.314 . S
C357 H398 0.930 . S
C358 C356 1.358 . S
C358 N359 1.279 1_565 S
C358 H399 0.930 . S
N359 C357 1.314 . S
N359 C358 1.279 1_545 S
C360 C362 1.353 . S
C360 N363 1.314 . S
C360 H366 0.930 . S
C361 N363 1.279 . S
C361 C364 1.358 . S
C361 H367 0.930 . S
C362 C360 1.353 . S
C362 C365 1.348 . S
C362 H400 0.929 . S
N363 Li318 1.990 . S
N363 C360 1.314 . S
N363 C361 1.279 . S
C364 C361 1.358 . S
C364 C365 1.356 . S
C364 H401 0.930 . S
C365 C362 1.348 . S
C365 C364 1.356 . S
H366 C360 0.930 . S
H367 C361 0.930 . S
C368 N369 1.314 . S
C368 C370 1.353 . S
C368 H374 0.930 . S
N369 Li319 1.990 . S
N369 C368 1.314 . S
N369 C372 1.279 . S
C370 C368 1.353 . S
C370 C373 1.348 . S
C370 H402 0.929 . S
C371 C372 1.358 . S
C371 C373 1.356 . S
C371 H403 0.930 . S
C372 N369 1.279 . S
C372 C371 1.358 . S
C372 H375 0.930 . S
C373 C370 1.348 . S
C373 C371 1.356 . S
H374 C368 0.930 . S
H375 C372 0.930 . S
O376 Li316 1.956 . S
O376 Li317 1.970 . S
O376 Li318 1.961 . S
O376 C320 1.325 . S
O377 Li316 1.970 1_565 S
O377 Li317 1.956 1_565 S
O377 Li319 1.961 . S
O377 C326 1.325 . S
O378 Li316 1.961 . S
O378 Li318 1.956 . S
O378 Li319 1.970 1_545 S
O378 C348 1.325 . S
O379 Li317 1.961 . S
O379 Li318 1.970 . S
O379 Li319 1.956 1_545 S
O379 C354 1.325 . S
H380 C322 0.929 . S
H381 C323 0.930 . S
H382 C324 0.930 . S
H383 C325 0.930 . S
H384 C327 0.930 . S
H385 C329 0.929 . S
H386 C330 0.930 . S
H387 C331 0.930 . S
H388 C334 0.930 . S
H389 C337 0.931 . S
H390 C342 0.929 . S
H391 C343 0.930 . S
H392 C350 0.934 . S
H393 C351 0.930 . S
H394 C352 0.930 1_565 S
H395 C353 0.930 . S
H396 C355 0.929 . S
H397 C356 0.930 . S
H398 C357 0.930 . S
H399 C358 0.930 . S
H400 C362 0.929 . S
H401 C364 0.930 . S
H402 C370 0.929 . S
H403 C371 0.930 . S
H404 C422 0.951 . S
H405 C424 0.951 . S
H406 C426 0.950 . S
H407 C427 0.950 . S
H408 C429 0.950 . S
H409 C432 0.950 . S
H410 C433 0.950 . S
H411 C435 0.950 . S
H412 C436 0.950 . S
H413 C437 0.951 . S
H414 C439 0.951 . S
H415 C441 0.950 . S
H416 C442 0.950 . S
H417 C444 0.950 . S
H418 C447 0.950 . S
H419 C448 0.950 . S
H420 C450 0.950 . S
H421 C451 0.950 . S
C422 H404 0.951 . S
C422 C423 1.366 . S
C422 C424 1.388 . S
C423 C422 1.366 . S
C423 C427 1.385 . S
C424 H405 0.951 . S
C424 C422 1.388 . S
C424 C425 1.366 . S
C425 C424 1.366 . S
C425 C426 1.414 . S
C425 C428 1.499 . S
C426 H406 0.950 . S
C426 C425 1.414 . S
C426 C427 1.374 . S
C427 H407 0.950 . S
C427 C423 1.385 . S
C427 C426 1.374 . S
C428 C425 1.499 . S
C428 C429 1.373 . S
C428 C430 1.389 1_545 S
C429 H408 0.950 . S
C429 C428 1.373 . S
C429 C445 1.377 . S
C430 C428 1.389 1_565 S
C430 C431 1.524 . S
C430 C444 1.377 . S
C431 C430 1.524 . S
C431 C432 1.397 . S
C431 C436 1.363 . S
C432 H409 0.950 . S
C432 C431 1.397 . S
C432 C433 1.334 . S
C433 H410 0.950 . S
C433 C432 1.334 . S
C433 C434 1.287 . S
C434 C433 1.287 . S
C434 C435 1.524 . S
C434 H453 0.913 . S
C435 H411 0.950 . S
C435 C434 1.524 . S
C435 C436 1.415 . S
C436 H412 0.950 . S
C436 C431 1.363 . S
C436 C435 1.415 . S
C437 H413 0.951 . S
C437 C438 1.366 . S
C437 C439 1.388 . S
C438 C437 1.366 . S
C438 C442 1.385 . S
C439 H414 0.951 . S
C439 C437 1.388 . S
C439 C440 1.366 . S
C440 C439 1.366 . S
C440 C441 1.414 . S
C440 C443 1.499 . S
C441 H415 0.950 . S
C441 C440 1.414 . S
C441 C442 1.374 . S
C442 H416 0.950 . S
C442 C438 1.385 . S
C442 C441 1.374 . S
C443 C440 1.499 . S
C443 C444 1.373 1_545 S
C443 C445 1.389 . S
C444 H417 0.950 . S
C444 C430 1.377 . S
C444 C443 1.373 1_565 S
C445 C429 1.377 . S
C445 C443 1.389 . S
C445 C446 1.524 . S
C446 C445 1.524 . S
C446 C447 1.397 . S
C446 C451 1.363 . S
C447 H418 0.950 . S
C447 C446 1.397 . S
C447 C448 1.334 . S
C448 H419 0.950 . S
C448 C447 1.334 . S
C448 C449 1.287 . S
C449 C448 1.287 . S
C449 C450 1.524 . S
C449 H452 0.999 . S
C450 H420 0.950 . S
C450 C449 1.524 . S
C450 C451 1.415 . S
C451 H421 0.950 . S
C451 C446 1.363 . S
C451 C450 1.415 . S
H452 C449 0.999 . S
H453 C434 0.913 . S
H454 C472 0.951 . S
H455 C474 0.951 . S
H456 C476 0.950 . S
H457 C477 0.950 . S
H458 C479 0.950 . S
H459 C482 0.950 . S
H460 C483 0.950 . S
H461 C485 0.950 . S
H462 C486 0.950 . S
H463 C487 0.951 . S
H464 C489 0.951 . S
H465 C491 0.950 . S
H466 C492 0.950 . S
H467 C494 0.950 . S
H468 C497 0.950 . S
H469 C498 0.950 . S
H470 C500 0.950 . S
H471 C501 0.950 . S
C472 H454 0.951 . S
C472 C473 1.366 . S
C472 C474 1.388 . S
C473 C472 1.366 . S
C473 C477 1.385 . S
C474 H455 0.951 . S
C474 C472 1.388 . S
C474 C475 1.366 . S
C475 C474 1.366 . S
C475 C476 1.414 . S
C475 C478 1.499 . S
C476 H456 0.950 . S
C476 C475 1.414 . S
C476 C477 1.374 . S
C477 H457 0.950 . S
C477 C473 1.385 . S
C477 C476 1.374 . S
C478 C475 1.499 . S
C478 C479 1.373 . S
C478 C480 1.389 . S
C479 H458 0.950 . S
C479 C478 1.373 . S
C479 C495 1.377 . S
C480 C478 1.389 . S
C480 C481 1.524 . S
C480 C494 1.377 . S
C481 C480 1.524 . S
C481 C482 1.397 . S
C481 C486 1.363 . S
C482 H459 0.950 . S
C482 C481 1.397 . S
C482 C483 1.334 . S
C483 H460 0.950 . S
C483 C482 1.334 . S
C483 C484 1.287 . S
C484 C483 1.287 . S
C484 C485 1.524 . S
C484 H503 0.913 . S
C485 H461 0.950 . S
C485 C484 1.524 . S
C485 C486 1.415 . S
C486 H462 0.950 . S
C486 C481 1.363 . S
C486 C485 1.415 . S
C487 H463 0.951 . S
C487 C488 1.366 . S
C487 C489 1.388 . S
C488 C487 1.366 . S
C488 C492 1.385 . S
C489 H464 0.951 . S
C489 C487 1.388 . S
C489 C490 1.366 . S
C490 C489 1.366 . S
C490 C491 1.414 . S
C490 C493 1.499 . S
C491 H465 0.950 . S
C491 C490 1.414 . S
C491 C492 1.374 . S
C492 H466 0.950 . S
C492 C488 1.385 . S
C492 C491 1.374 . S
C493 C490 1.499 . S
C493 C494 1.373 . S
C493 C495 1.389 . S
C494 H467 0.950 . S
C494 C480 1.377 . S
C494 C493 1.373 . S
C495 C479 1.377 . S
C495 C493 1.389 . S
C495 C496 1.524 . S
C496 C495 1.524 . S
C496 C497 1.397 . S
C496 C501 1.363 . S
C497 H468 0.950 . S
C497 C496 1.397 . S
C497 C498 1.334 . S
C498 H469 0.950 . S
C498 C497 1.334 . S
C498 C499 1.287 . S
C499 C498 1.287 . S
C499 C500 1.524 . S
C499 H502 0.999 . S
C500 H470 0.950 . S
C500 C499 1.524 . S
C500 C501 1.415 . S
C501 H471 0.950 . S
C501 C496 1.363 . S
C501 C500 1.415 . S
H502 C499 0.999 . S
H503 C484 0.913 . S
H504 C522 0.951 . S
H505 C524 0.951 . S
H506 C526 0.950 . S
H507 C527 0.950 . S
H508 C529 0.950 . S
H509 C532 0.950 1_545 S
H510 C533 0.950 . S
H511 C535 0.950 . S
H512 C536 0.950 . S
H513 C537 0.951 . S
H514 C539 0.951 . S
H515 C541 0.950 . S
H516 C542 0.950 . S
H517 C544 0.956 . S
H518 C547 0.950 . S
H519 C548 0.950 . S
H520 C550 0.950 . S
H521 C551 0.950 . S
C522 H504 0.951 . S
C522 C523 1.366 1_565 S
C522 C524 1.388 . S
C523 C522 1.366 1_545 S
C523 C527 1.385 . S
C524 H505 0.951 . S
C524 C522 1.388 . S
C524 C525 1.366 1_565 S
C525 C524 1.366 1_545 S
C525 C526 1.414 . S
C525 C528 1.499 . S
C526 H506 0.950 . S
C526 C525 1.414 . S
C526 C527 1.374 . S
C527 H507 0.950 . S
C527 C523 1.385 . S
C527 C526 1.374 . S
C528 C525 1.499 . S
C528 C529 1.373 . S
C528 C530 1.412 . S
C529 H508 0.950 . S
C529 C528 1.373 . S
C529 C545 1.377 . S
C530 C528 1.412 . S
C530 C531 1.504 1_545 S
C530 C544 1.375 1_545 S
C531 C530 1.504 1_565 S
C531 C532 1.397 . S
C531 C536 1.363 . S
C532 H509 0.950 1_565 S
C532 C531 1.397 . S
C532 C533 1.334 . S
C533 H510 0.950 . S
C533 C532 1.334 . S
C533 C534 1.287 . S
C534 C533 1.287 . S
C534 C535 1.524 . S
C534 H553 0.913 . S
C535 H511 0.950 . S
C535 C534 1.524 . S
C535 C536 1.415 . S
C536 H512 0.950 . S
C536 C531 1.363 . S
C536 C535 1.415 . S
C537 H513 0.951 . S
C537 C538 1.366 . S
C537 C539 1.388 . S
C538 C537 1.366 . S
C538 C542 1.385 1_545 S
C539 H514 0.951 . S
C539 C537 1.388 . S
C539 C540 1.366 . S
C540 C539 1.366 . S
C540 C541 1.414 1_545 S
C540 C543 1.499 . S
C541 H515 0.950 . S
C541 C540 1.414 1_565 S
C541 C542 1.374 . S
C542 H516 0.950 . S
C542 C538 1.385 1_565 S
C542 C541 1.374 . S
C543 C540 1.499 . S
C543 C544 1.368 1_545 S
C543 C545 1.389 . S
C544 H517 0.956 . S
C544 C530 1.375 1_565 S
C544 C543 1.368 1_565 S
C545 C529 1.377 . S
C545 C543 1.389 . S
C545 C546 1.524 . S
C546 C545 1.524 . S
C546 C547 1.397 . S
C546 C551 1.363 . S
C547 H518 0.950 . S
C547 C546 1.397 . S
C547 C548 1.334 . S
C548 H519 0.950 . S
C548 C547 1.334 . S
C548 C549 1.287 . S
C549 C548 1.287 . S
C549 C550 1.524 . S
C549 H552 0.999 . S
C550 H520 0.950 . S
C550 C549 1.524 . S
C550 C551 1.415 . S
C551 H521 0.950 . S
C551 C546 1.363 . S
C551 C550 1.415 . S
H552 C549 0.999 . S
H553 C534 0.913 . S
H554 C572 0.951 . S
H555 C574 0.951 . S
H556 C576 0.950 . S
H557 C577 0.950 . S
H558 C579 0.950 . S
H559 C582 0.950 . S
H560 C583 0.950 . S
H561 C585 0.950 . S
H562 C586 0.950 . S
H563 C587 0.951 . S
H564 C589 0.951 . S
H565 C591 0.950 . S
H566 C592 0.950 . S
H567 C594 0.950 . S
H568 C597 0.950 . S
H569 C598 0.950 . S
H570 C600 0.950 . S
H571 C601 0.950 . S
C572 H554 0.951 . S
C572 C573 1.366 . S
C572 C574 1.388 . S
C573 C572 1.366 . S
C573 C577 1.385 . S
C574 H555 0.951 . S
C574 C572 1.388 . S
C574 C575 1.366 . S
C575 C574 1.366 . S
C575 C576 1.414 . S
C575 C578 1.499 . S
C576 H556 0.950 . S
C576 C575 1.414 . S
C576 C577 1.374 . S
C577 H557 0.950 . S
C577 C573 1.385 . S
C577 C576 1.374 . S
C578 C575 1.499 . S
C578 C579 1.373 . S
C578 C580 1.389 . S
C579 H558 0.950 . S
C579 C578 1.373 . S
C579 C595 1.377 . S
C580 C578 1.389 . S
C580 C581 1.524 . S
C580 C594 1.377 . S
C581 C580 1.524 . S
C581 C582 1.397 . S
C581 C586 1.363 . S
C582 H559 0.950 . S
C582 C581 1.397 . S
C582 C583 1.334 1_455 S
C583 H560 0.950 . S
C583 C582 1.334 1_655 S
C583 C584 1.287 . S
C584 C583 1.287 . S
C584 C585 1.524 . S
C584 H603 0.913 . S
C585 H561 0.950 . S
C585 C584 1.524 . S
C585 C586 1.415 1_655 S
C586 H562 0.950 . S
C586 C581 1.363 . S
C586 C585 1.415 1_455 S
C587 H563 0.951 . S
C587 C588 1.366 . S
C587 C589 1.388 . S
C588 C587 1.366 . S
C588 C592 1.385 . S
C589 H564 0.951 . S
C589 C587 1.388 . S
C589 C590 1.366 . S
C590 C589 1.366 . S
C590 C591 1.414 . S
C590 C593 1.499 . S
C591 H565 0.950 . S
C591 C590 1.414 . S
C591 C592 1.374 . S
C592 H566 0.950 . S
C592 C588 1.385 . S
C592 C591 1.374 . S
C593 C590 1.499 . S
C593 C594 1.373 . S
C593 C595 1.389 . S
C594 H567 0.950 . S
C594 C580 1.377 . S
C594 C593 1.373 . S
C595 C579 1.377 . S
C595 C593 1.389 . S
C595 C596 1.524 . S
C596 C595 1.524 . S
C596 C597 1.397 . S
C596 C601 1.363 . S
C597 H568 0.950 . S
C597 C596 1.397 . S
C597 C598 1.334 . S
C598 H569 0.950 . S
C598 C597 1.334 . S
C598 C599 1.287 . S
C599 C598 1.287 . S
C599 C600 1.524 . S
C599 H602 0.999 . S
C600 H570 0.950 . S
C600 C599 1.524 . S
C600 C601 1.415 . S
C601 H571 0.950 . S
C601 C596 1.363 . S
C601 C600 1.415 . S
H602 C599 0.999 . S
H603 C584 0.913 . S
H604 C622 0.951 1_565 S
H605 C624 0.951 1_565 S
H606 C626 0.950 . S
H607 C627 0.950 . S
H608 C629 0.950 . S
H609 C632 0.950 . S
H610 C633 0.950 . S
H611 C635 0.950 . S
H612 C636 0.950 . S
H613 C637 0.951 . S
H614 C639 0.951 . S
H615 C641 0.950 1_565 S
H616 C642 0.950 1_565 S
H617 C644 0.950 . S
H618 C647 0.950 . S
H619 C648 0.950 . S
H620 C650 0.937 1_545 S
H621 C651 0.950 . S
C622 H604 0.951 1_545 S
C622 C623 1.366 . S
C622 C624 1.388 . S
C623 C622 1.366 . S
C623 C627 1.385 . S
C624 H605 0.951 1_545 S
C624 C622 1.388 . S
C624 C625 1.366 . S
C625 C624 1.366 . S
C625 C626 1.414 . S
C625 C628 1.499 . S
C626 H606 0.950 . S
C626 C625 1.414 . S
C626 C627 1.374 . S
C627 H607 0.950 . S
C627 C623 1.385 . S
C627 C626 1.374 . S
C628 C625 1.499 . S
C628 C629 1.373 . S
C628 C630 1.389 . S
C629 H608 0.950 . S
C629 C628 1.373 . S
C629 C645 1.377 . S
C630 C628 1.389 . S
C630 C631 1.524 . S
C630 C644 1.377 . S
C631 C630 1.524 . S
C631 C632 1.397 . S
C631 C636 1.363 . S
C632 H609 0.950 . S
C632 C631 1.397 . S
C632 C633 1.334 . S
C633 H610 0.950 . S
C633 C632 1.334 . S
C633 C634 1.287 . S
C634 C633 1.287 . S
C634 C635 1.524 . S
C634 H653 0.913 . S
C635 H611 0.950 . S
C635 C634 1.524 . S
C635 C636 1.415 . S
C636 H612 0.950 . S
C636 C631 1.363 . S
C636 C635 1.415 . S
C637 H613 0.951 . S
C637 C638 1.366 . S
C637 C639 1.388 . S
C638 C637 1.366 . S
C638 C642 1.385 . S
C639 H614 0.951 . S
C639 C637 1.388 . S
C639 C640 1.366 . S
C640 C639 1.366 . S
C640 C641 1.414 . S
C640 C643 1.499 . S
C641 H615 0.950 1_545 S
C641 C640 1.414 . S
C641 C642 1.374 . S
C642 H616 0.950 1_545 S
C642 C638 1.385 . S
C642 C641 1.374 . S
C643 C640 1.499 . S
C643 C644 1.373 . S
C643 C645 1.389 . S
C644 H617 0.950 . S
C644 C630 1.377 . S
C644 C643 1.373 . S
C645 C629 1.377 . S
C645 C643 1.389 . S
C645 C646 1.524 1_545 S
C646 C645 1.524 1_565 S
C646 C647 1.397 . S
C646 C651 1.363 1_565 S
C647 H618 0.950 . S
C647 C646 1.397 . S
C647 C648 1.334 . S
C648 H619 0.950 . S
C648 C647 1.334 . S
C648 C649 1.287 . S
C649 C648 1.287 . S
C649 C650 1.551 . S
C649 H652 0.999 . S
C650 H620 0.937 1_565 S
C650 C649 1.551 . S
C650 C651 1.403 1_565 S
C651 H621 0.950 . S
C651 C646 1.363 1_545 S
C651 C650 1.403 1_545 S
H652 C649 0.999 . S
H653 C634 0.913 . S
H654 C672 0.951 . S
H655 C674 0.951 . S
H656 C676 0.950 . S
H657 C677 0.950 . S
H658 C679 0.950 . S
H659 C682 0.950 . S
H660 C683 0.950 . S
H661 C685 0.950 . S
H662 C686 0.950 . S
H663 C687 0.951 . S
H664 C689 0.951 . S
H665 C691 0.950 . S
H666 C692 0.950 . S
H667 C694 0.950 . S
H668 C697 0.950 . S
H669 C698 0.950 . S
H670 C700 0.950 1_655 S
H671 C701 0.950 . S
C672 H654 0.951 . S
C672 C673 1.366 . S
C672 C674 1.388 . S
C673 C672 1.366 . S
C673 C677 1.385 . S
C674 H655 0.951 . S
C674 C672 1.388 . S
C674 C675 1.366 . S
C675 C674 1.366 . S
C675 C676 1.414 . S
C675 C678 1.499 . S
C676 H656 0.950 . S
C676 C675 1.414 . S
C676 C677 1.374 . S
C677 H657 0.950 . S
C677 C673 1.385 . S
C677 C676 1.374 . S
C678 C675 1.499 . S
C678 C679 1.373 . S
C678 C680 1.389 . S
C679 H658 0.950 . S
C679 C678 1.373 . S
C679 C695 1.377 . S
C680 C678 1.389 . S
C680 C681 1.524 . S
C680 C694 1.377 . S
C681 C680 1.524 . S
C681 C682 1.397 . S
C681 C686 1.363 . S
C682 H659 0.950 . S
C682 C681 1.397 . S
C682 C683 1.334 . S
C683 H660 0.950 . S
C683 C682 1.334 . S
C683 C684 1.287 . S
C684 C683 1.287 . S
C684 C685 1.524 . S
C684 H703 0.913 . S
C685 H661 0.950 . S
C685 C684 1.524 . S
C685 C686 1.415 . S
C686 H662 0.950 . S
C686 C681 1.363 . S
C686 C685 1.415 . S
C687 H663 0.951 . S
C687 C688 1.366 . S
C687 C689 1.388 . S
C688 C687 1.366 . S
C688 C692 1.385 . S
C689 H664 0.951 . S
C689 C687 1.388 . S
C689 C690 1.366 . S
C690 C689 1.366 . S
C690 C691 1.414 . S
C690 C693 1.499 . S
C691 H665 0.950 . S
C691 C690 1.414 . S
C691 C692 1.374 . S
C692 H666 0.950 . S
C692 C688 1.385 . S
C692 C691 1.374 . S
C693 C690 1.499 . S
C693 C694 1.373 . S
C693 C695 1.389 . S
C694 H667 0.950 . S
C694 C680 1.377 . S
C694 C693 1.373 . S
C695 C679 1.377 . S
C695 C693 1.389 . S
C695 C696 1.524 . S
C696 C695 1.524 . S
C696 C697 1.397 . S
C696 C701 1.363 . S
C697 H668 0.950 . S
C697 C696 1.397 . S
C697 C698 1.334 . S
C698 H669 0.950 . S
C698 C697 1.334 . S
C698 C699 1.287 . S
C699 C698 1.287 . S
C699 C700 1.524 . S
C699 H702 0.999 . S
C700 H670 0.950 1_455 S
C700 C699 1.524 . S
C700 C701 1.415 . S
C701 H671 0.950 . S
C701 C696 1.363 . S
C701 C700 1.415 . S
H702 C699 0.999 . S
H703 C684 0.913 . S
H704 C722 0.951 . S
H705 C724 0.951 . S
H706 C726 0.950 . S
H707 C727 0.950 . S
H708 C729 0.950 . S
H709 C732 0.950 1_565 S
H710 C733 0.950 . S
H711 C735 0.950 . S
H712 C736 0.950 . S
H713 C737 0.951 . S
H714 C739 0.951 . S
H715 C741 0.950 . S
H716 C742 0.950 . S
H717 C744 0.950 . S
H718 C747 0.950 . S
H719 C748 0.950 . S
H720 C750 0.950 . S
H721 C751 0.950 . S
C722 H704 0.951 . S
C722 C723 1.366 . S
C722 C724 1.388 . S
C723 C722 1.366 . S
C723 C727 1.385 1_545 S
C724 H705 0.951 . S
C724 C722 1.388 . S
C724 C725 1.366 . S
C725 C724 1.366 . S
C725 C726 1.414 1_545 S
C725 C728 1.499 . S
C726 H706 0.950 . S
C726 C725 1.414 1_565 S
C726 C727 1.374 . S
C727 H707 0.950 . S
C727 C723 1.385 1_565 S
C727 C726 1.374 . S
C728 C725 1.499 . S
C728 C729 1.373 1_545 S
C728 C730 1.389 . S
C729 H708 0.950 . S
C729 C728 1.373 1_565 S
C729 C745 1.374 1_565 S
C730 C728 1.389 . S
C730 C731 1.524 . S
C730 C744 1.377 . S
C731 C730 1.524 . S
C731 C732 1.397 . S
C731 C736 1.363 . S
C732 H709 0.950 1_545 S
C732 C731 1.397 . S
C732 C733 1.334 . S
C733 H710 0.950 . S
C733 C732 1.334 . S
C733 C734 1.287 . S
C734 C733 1.287 . S
C734 C735 1.524 . S
C734 H753 0.913 . S
C735 H711 0.950 . S
C735 C734 1.524 . S
C735 C736 1.415 . S
C736 H712 0.950 . S
C736 C731 1.363 . S
C736 C735 1.415 . S
C737 H713 0.951 . S
C737 C738 1.366 1_565 S
C737 C739 1.388 . S
C738 C737 1.366 1_545 S
C738 C742 1.385 . S
C739 H714 0.951 . S
C739 C737 1.388 . S
C739 C740 1.366 1_565 S
C740 C739 1.366 1_545 S
C740 C741 1.414 . S
C740 C743 1.499 . S
C741 H715 0.950 . S
C741 C740 1.414 . S
C741 C742 1.374 . S
C742 H716 0.950 . S
C742 C738 1.385 . S
C742 C741 1.374 . S
C743 C740 1.499 . S
C743 C744 1.373 . S
C743 C745 1.404 . S
C744 H717 0.950 . S
C744 C730 1.377 . S
C744 C743 1.373 . S
C745 C729 1.374 1_545 S
C745 C743 1.404 . S
C745 C746 1.514 1_545 S
C746 C745 1.514 1_565 S
C746 C747 1.397 1_565 S
C746 C751 1.363 . S
C747 H718 0.950 . S
C747 C746 1.397 1_545 S
C747 C748 1.334 . S
C748 H719 0.950 . S
C748 C747 1.334 . S
C748 C749 1.287 1_545 S
C749 C748 1.287 1_565 S
C749 C750 1.524 . S
C749 H752 0.999 . S
C750 H720 0.950 . S
C750 C749 1.524 . S
C750 C751 1.415 . S
C751 H721 0.950 . S
C751 C746 1.363 . S
C751 C750 1.415 . S
H752 C749 0.999 . S
H753 C734 0.913 . S
H754 C772 0.951 . S
H755 C774 0.951 . S
H756 C776 0.950 . S
H757 C777 0.950 . S
H758 C779 0.950 . S
H759 C782 0.950 . S
H760 C783 0.950 . S
H761 C785 0.950 . S
H762 C786 0.950 . S
H763 C787 0.951 . S
H764 C789 0.951 . S
H765 C791 0.950 . S
H766 C792 0.950 . S
H767 C794 0.950 . S
H768 C797 0.950 . S
H769 C798 0.950 . S
H770 C800 0.950 1_655 S
H771 C801 0.950 . S
C772 H754 0.951 . S
C772 C773 1.366 . S
C772 C774 1.388 . S
C773 C772 1.366 . S
C773 C777 1.385 . S
C774 H755 0.951 . S
C774 C772 1.388 . S
C774 C775 1.366 . S
C775 C774 1.366 . S
C775 C776 1.414 . S
C775 C778 1.499 . S
C776 H756 0.950 . S
C776 C775 1.414 . S
C776 C777 1.374 . S
C777 H757 0.950 . S
C777 C773 1.385 . S
C777 C776 1.374 . S
C778 C775 1.499 . S
C778 C779 1.373 . S
C778 C780 1.389 . S
C779 H758 0.950 . S
C779 C778 1.373 . S
C779 C795 1.377 . S
C780 C778 1.389 . S
C780 C781 1.524 . S
C780 C794 1.377 . S
C781 C780 1.524 . S
C781 C782 1.397 . S
C781 C786 1.363 . S
C782 H759 0.950 . S
C782 C781 1.397 . S
C782 C783 1.334 . S
C783 H760 0.950 . S
C783 C782 1.334 . S
C783 C784 1.287 . S
C784 C783 1.287 . S
C784 C785 1.524 . S
C784 H803 0.913 . S
C785 H761 0.950 . S
C785 C784 1.524 . S
C785 C786 1.415 . S
C786 H762 0.950 . S
C786 C781 1.363 . S
C786 C785 1.415 . S
C787 H763 0.951 . S
C787 C788 1.366 . S
C787 C789 1.388 . S
C788 C787 1.366 . S
C788 C792 1.385 . S
C789 H764 0.951 . S
C789 C787 1.388 . S
C789 C790 1.366 . S
C790 C789 1.366 . S
C790 C791 1.414 . S
C790 C793 1.499 . S
C791 H765 0.950 . S
C791 C790 1.414 . S
C791 C792 1.374 . S
C792 H766 0.950 . S
C792 C788 1.385 . S
C792 C791 1.374 . S
C793 C790 1.499 . S
C793 C794 1.373 . S
C793 C795 1.389 . S
C794 H767 0.950 . S
C794 C780 1.377 . S
C794 C793 1.373 . S
C795 C779 1.377 . S
C795 C793 1.389 . S
C795 C796 1.524 . S
C796 C795 1.524 . S
C796 C797 1.397 . S
C796 C801 1.363 . S
C797 H768 0.950 . S
C797 C796 1.397 . S
C797 C798 1.334 1_455 S
C798 H769 0.950 . S
C798 C797 1.334 1_655 S
C798 C799 1.287 . S
C799 C798 1.287 . S
C799 C800 1.524 1_655 S
C799 H802 0.999 . S
C800 H770 0.950 1_455 S
C800 C799 1.524 1_455 S
C800 C801 1.415 . S
C801 H771 0.950 . S
C801 C796 1.363 . S
C801 C800 1.415 . S
H802 C799 0.999 . S
H803 C784 0.913 . S
C438 C277 1.472 . S
C423 C11 0.922 . S
C488 C365 1.284 . S
C473 C115 1.026 . S
C538 C285 1.282 . S
C523 C1 1.025 . S
C588 C373 1.470 . S
C573 C125 0.909 . S
C638 C345 1.576 . S
C623 C55 1.151 . S
C688 C248 1.383 . S
C673 C143 1.107 . S
C738 C336 1.385 . S
C723 C29 1.104 . S
C773 C169 1.147 . S
C788 C257 1.577 . S
