# Generated by pormake.
# Topology nom, (4,4)-cn, num edge types: 1
# Building blocks:
#     Node 0, Type 0, BuildingBlock: AZAVOO_clean_linker_0, # of connection points: 4
#     Node 1, Type 0, BuildingBlock: AZAVOO_clean_linker_0, # of connection points: 4
#     Node 2, Type 0, BuildingBlock: AZAVOO_clean_linker_0, # of connection points: 4
#     Node 3, Type 0, BuildingBlock: AZAVOO_clean_linker_0, # of connection points: 4
#     Node 4, Type 0, BuildingBlock: AZAVOO_clean_linker_0, # of connection points: 4
#     Node 5, Type 0, BuildingBlock: AZAVOO_clean_linker_0, # of connection points: 4
#     Node 6, Type 1, BuildingBlock: QUQFOY_clean_sbu_3, # of connection points: 4
#     Node 7, Type 1, BuildingBlock: QUQFOY_clean_sbu_3, # of connection points: 4
#     Node 8, Type 1, BuildingBlock: QUQFOY_clean_sbu_3, # of connection points: 4
#     Node 9, Type 1, BuildingBlock: QUQFOY_clean_sbu_3, # of connection points: 4
#     Node 10, Type 1, BuildingBlock: QUQFOY_clean_sbu_3, # of connection points: 4
#     Node 11, Type 1, BuildingBlock: QUQFOY_clean_sbu_3, # of connection points: 4
#     Edge 12, Type (0, 1), BuildingBlock: XUDNAN_clean_linker_2, # of connection points: 2
#     Edge 13, Type (0, 1), BuildingBlock: XUDNAN_clean_linker_2, # of connection points: 2
#     Edge 14, Type (0, 1), BuildingBlock: XUDNAN_clean_linker_2, # of connection points: 2
#     Edge 15, Type (0, 1), BuildingBlock: XUDNAN_clean_linker_2, # of connection points: 2
#     Edge 16, Type (0, 1), BuildingBlock: XUDNAN_clean_linker_2, # of connection points: 2
#     Edge 17, Type (0, 1), BuildingBlock: XUDNAN_clean_linker_2, # of connection points: 2
#     Edge 18, Type (0, 1), BuildingBlock: XUDNAN_clean_linker_2, # of connection points: 2
#     Edge 19, Type (0, 1), BuildingBlock: XUDNAN_clean_linker_2, # of connection points: 2
#     Edge 20, Type (0, 1), BuildingBlock: XUDNAN_clean_linker_2, # of connection points: 2
#     Edge 21, Type (0, 1), BuildingBlock: XUDNAN_clean_linker_2, # of connection points: 2
#     Edge 22, Type (0, 1), BuildingBlock: XUDNAN_clean_linker_2, # of connection points: 2
#     Edge 23, Type (0, 1), BuildingBlock: XUDNAN_clean_linker_2, # of connection points: 2
#     Edge 24, Type (0, 1), BuildingBlock: XUDNAN_clean_linker_2, # of connection points: 2
#     Edge 25, Type (0, 1), BuildingBlock: XUDNAN_clean_linker_2, # of connection points: 2
#     Edge 26, Type (0, 1), BuildingBlock: XUDNAN_clean_linker_2, # of connection points: 2
#     Edge 27, Type (0, 1), BuildingBlock: XUDNAN_clean_linker_2, # of connection points: 2
#     Edge 28, Type (0, 1), BuildingBlock: XUDNAN_clean_linker_2, # of connection points: 2
#     Edge 29, Type (0, 1), BuildingBlock: XUDNAN_clean_linker_2, # of connection points: 2
#     Edge 30, Type (0, 1), BuildingBlock: XUDNAN_clean_linker_2, # of connection points: 2
#     Edge 31, Type (0, 1), BuildingBlock: XUDNAN_clean_linker_2, # of connection points: 2
#     Edge 32, Type (0, 1), BuildingBlock: XUDNAN_clean_linker_2, # of connection points: 2
#     Edge 33, Type (0, 1), BuildingBlock: XUDNAN_clean_linker_2, # of connection points: 2
#     Edge 34, Type (0, 1), BuildingBlock: XUDNAN_clean_linker_2, # of connection points: 2
#     Edge 35, Type (0, 1), BuildingBlock: XUDNAN_clean_linker_2, # of connection points: 2
# Relax obj value: 0.143
# Max RMSD: 0.229
# Mean RMSD: 0.148
data_MOF--net-nom--node1-QUQFOY_clean_sbu_3--node2-AZAVOO_clean_linker_0--edge1-XUDNAN_clean_linker_2
_symmetry_space_group_name_H-M    P1
_symmetry_Int_Tables_number       1
_symmetry_cell_setting            triclinic
loop_
_symmetry_equiv_pos_as_xyz
'x, y, z'
_cell_length_a     47.947709
_cell_length_b     50.541253
_cell_length_c     60.304778
_cell_angle_alpha  89.82183
_cell_angle_beta   89.970837
_cell_angle_gamma 121.22296
loop_
_atom_site_label
_atom_site_type_symbol
_atom_site_fract_x
_atom_site_fract_y
_atom_site_fract_z
_atom_type_partial_charge
H0 H 0.084 0.46595 0.16918 0.0
H1 H 0.2089 0.62799 0.39661 0.0
H2 H 0.9937 0.42785 0.27994 0.0
H3 H 0.95435 0.40065 0.2502 0.0
H4 H 0.94293 0.47944 0.24161 0.0
H5 H 0.98247 0.50651 0.27139 0.0
H6 H 0.07205 0.46484 0.26579 0.0
H7 H 0.08024 0.45931 0.22639 0.0
H8 H 0.04965 0.52384 0.20998 0.0
H9 H 0.04201 0.52944 0.24945 0.0
H10 H 0.12586 0.50303 0.29563 0.0
H11 H 0.18216 0.53741 0.28266 0.0
H12 H 0.15978 0.60856 0.26912 0.0
H13 H 0.10385 0.57376 0.28113 0.0
H14 H 0.10709 0.49756 0.34281 0.0
H15 H 0.15209 0.52575 0.36897 0.0
H16 H 0.14619 0.60755 0.35931 0.0
H17 H 0.10122 0.57903 0.33322 0.0
H18 H 0.03935 0.46641 0.36051 0.0
H19 H 0.04954 0.47661 0.39994 0.0
H20 H 0.04336 0.55862 0.39245 0.0
H21 H 0.0347 0.54875 0.35258 0.0
H22 H 0.9653 0.43583 0.33211 0.0
H23 H 0.91232 0.42435 0.34685 0.0
H24 H 0.93723 0.51758 0.33082 0.0
H25 H 0.99001 0.5288 0.31663 0.0
O26 O 0.08081 0.46863 0.18467 0.0
O27 O 0.06433 0.50149 0.1771 0.0
O28 O 0.19149 0.57296 0.39206 0.0
O29 O 0.19139 0.61637 0.38618 0.0
C30 C 0.01878 0.48713 0.29273 0.0
C31 C 0.05082 0.50018 0.28427 0.0
C32 C 0.07776 0.51684 0.29843 0.0
C33 C 0.07276 0.51879 0.3212 0.0
C34 C 0.0408 0.50562 0.32965 0.0
C35 C 0.01386 0.49105 0.31526 0.0
C36 C 0.99073 0.46901 0.27781 0.0
C37 C 0.98201 0.43885 0.27201 0.0
C38 C 0.95958 0.42339 0.25505 0.0
C39 C 0.94576 0.43803 0.24352 0.0
C40 C 0.95346 0.46775 0.2501 0.0
C41 C 0.97572 0.4831 0.2672 0.0
C42 C 0.05624 0.49735 0.2604 0.0
C43 C 0.06725 0.47781 0.25364 0.0
C44 C 0.07184 0.47467 0.23113 0.0
C45 C 0.06549 0.49105 0.21502 0.0
C46 C 0.05468 0.51082 0.22194 0.0
C47 C 0.05021 0.51401 0.24445 0.0
C48 C 0.11092 0.53595 0.28907 0.0
C49 C 0.1332 0.52588 0.28944 0.0
C50 C 0.16532 0.54562 0.28221 0.0
C51 C 0.17553 0.57572 0.27468 0.0
C52 C 0.15273 0.58534 0.27421 0.0
C53 C 0.12075 0.56559 0.28121 0.0
C54 C 0.10108 0.53634 0.33615 0.0
C55 C 0.11575 0.52162 0.34628 0.0
C56 C 0.14134 0.53774 0.36125 0.0
C57 C 0.15272 0.56891 0.36625 0.0
C58 C 0.13807 0.58361 0.35583 0.0
C59 C 0.11245 0.56743 0.3409 0.0
C60 C 0.03631 0.50683 0.35379 0.0
C61 C 0.03899 0.48593 0.36756 0.0
C62 C 0.0448 0.49186 0.39016 0.0
C63 C 0.04773 0.51872 0.39941 0.0
C64 C 0.0419 0.53806 0.38581 0.0
C65 C 0.03645 0.53225 0.36309 0.0
C66 C 0.98129 0.48309 0.32332 0.0
C67 C 0.95911 0.45362 0.33178 0.0
C68 C 0.92893 0.44715 0.34011 0.0
C69 C 0.92064 0.47014 0.34014 0.0
C70 C 0.94303 0.49954 0.33143 0.0
C71 C 0.97305 0.50592 0.32314 0.0
C72 C 0.07014 0.48746 0.19112 0.0
C73 C 0.17969 0.58608 0.38228 0.0
H74 H 0.48943 0.05495 0.33078 0.0
H75 H 0.47936 0.21118 0.55126 0.0
H76 H 0.49426 0.00847 0.45688 0.0
H77 H 0.4944 0.97322 0.42937 0.0
H78 H 0.39473 0.94335 0.41236 0.0
H79 H 0.39525 0.97942 0.43967 0.0
H80 H 0.50618 0.06055 0.42707 0.0
H81 H 0.50881 0.06076 0.38652 0.0
H82 H 0.41062 0.04353 0.38332 0.0
H83 H 0.40831 0.04319 0.42391 0.0
H84 H 0.5234 0.12027 0.45664 0.0
H85 H 0.54305 0.1703 0.43863 0.0
H86 H 0.44355 0.14837 0.43131 0.0
H87 H 0.42417 0.09783 0.44886 0.0
H88 H 0.51625 0.10962 0.51199 0.0
H89 H 0.53094 0.15537 0.53434 0.0
H90 H 0.43927 0.14727 0.51712 0.0
H91 H 0.42473 0.10131 0.49506 0.0
H92 H 0.49685 0.04162 0.52439 0.0
H93 H 0.50526 0.04864 0.56429 0.0
H94 H 0.42199 0.05988 0.56948 0.0
H95 H 0.41247 0.05055 0.52969 0.0
H96 H 0.48275 0.99681 0.50075 0.0
H97 H 0.46391 0.94509 0.51548 0.0
H98 H 0.36403 0.92278 0.50994 0.0
H99 H 0.38341 0.97513 0.49634 0.0
O100 O 0.4881 0.05536 0.34678 0.0
O101 O 0.43793 0.04738 0.34602 0.0
O102 O 0.52086 0.19615 0.55102 0.0
O103 O 0.4742 0.19318 0.54251 0.0
C104 C 0.44745 0.02207 0.46361 0.0
C105 C 0.45481 0.04979 0.45285 0.0
C106 C 0.46116 0.07575 0.46542 0.0
C107 C 0.46036 0.07409 0.4888 0.0
C108 C 0.45235 0.04608 0.49961 0.0
C109 C 0.44543 0.01993 0.48694 0.0
C110 C 0.44472 0.99633 0.45025 0.0
C111 C 0.47219 0.99366 0.44762 0.0
C112 C 0.47219 0.97349 0.43189 0.0
C113 C 0.44465 0.95562 0.41853 0.0
C114 C 0.4165 0.95715 0.42214 0.0
C115 C 0.41658 0.97745 0.43785 0.0
C116 C 0.45708 0.05188 0.42832 0.0
C117 C 0.48537 0.05701 0.41754 0.0
C118 C 0.48676 0.05705 0.3944 0.0
C119 C 0.45988 0.05206 0.38167 0.0
C120 C 0.43173 0.0474 0.39262 0.0
C121 C 0.43037 0.0473 0.41577 0.0
C122 C 0.47247 0.10569 0.45414 0.0
C123 C 0.50591 0.1263 0.45105 0.0
C124 C 0.51704 0.15488 0.44087 0.0
C125 C 0.49487 0.16345 0.43369 0.0
C126 C 0.46123 0.14237 0.43646 0.0
C127 C 0.45012 0.11365 0.4466 0.0
C128 C 0.46944 0.1022 0.50195 0.0
C129 C 0.49939 0.11777 0.5131 0.0
C130 C 0.50771 0.1439 0.52582 0.0
C131 C 0.48626 0.15499 0.52751 0.0
C132 C 0.45635 0.13937 0.51617 0.0
C133 C 0.44801 0.11318 0.50351 0.0
C134 C 0.45384 0.04521 0.52416 0.0
C135 C 0.47963 0.04429 0.53428 0.0
C136 C 0.48475 0.04892 0.55706 0.0
C137 C 0.46461 0.05529 0.57012 0.0
C138 C 0.43779 0.0547 0.56005 0.0
C139 C 0.43237 0.04953 0.53728 0.0
C140 C 0.43444 0.98975 0.49776 0.0
C141 C 0.45688 0.98095 0.50326 0.0
C142 C 0.44599 0.95124 0.51141 0.0
C143 C 0.41239 0.92959 0.5138 0.0
C144 C 0.39006 0.93889 0.5087 0.0
C145 C 0.40104 0.96874 0.5008 0.0
C146 C 0.46119 0.05148 0.35709 0.0
C147 C 0.49493 0.18267 0.54107 0.0
H148 H 0.58123 0.54491 0.79704 0.0
H149 H 0.59072 0.45662 0.53868 0.0
H150 H 0.56017 0.60999 0.68607 0.0
H151 H 0.54604 0.6206 0.72277 0.0
H152 H 0.4628 0.52748 0.72557 0.0
H153 H 0.47684 0.51714 0.68894 0.0
H154 H 0.59559 0.57813 0.70297 0.0
H155 H 0.59839 0.57238 0.7431 0.0
H156 H 0.51342 0.48009 0.73956 0.0
H157 H 0.51076 0.48632 0.6995 0.0
H158 H 0.62365 0.53785 0.66731 0.0
H159 H 0.63981 0.49989 0.67546 0.0
H160 H 0.53879 0.42622 0.67195 0.0
H161 H 0.52306 0.46408 0.66363 0.0
H162 H 0.62369 0.55262 0.62371 0.0
H163 H 0.64288 0.53413 0.59324 0.0
H164 H 0.5433 0.46254 0.57936 0.0
H165 H 0.52452 0.48111 0.60999 0.0
H166 H 0.59662 0.58639 0.60198 0.0
H167 H 0.60029 0.57444 0.56379 0.0
H168 H 0.4956 0.5113 0.56258 0.0
H169 H 0.49318 0.52091 0.60186 0.0
H170 H 0.54894 0.61261 0.62395 0.0
H171 H 0.51232 0.62929 0.61 0.0
H172 H 0.42956 0.54515 0.63572 0.0
H173 H 0.46604 0.52834 0.64877 0.0
O174 O 0.58021 0.54639 0.78109 0.0
O175 O 0.53714 0.49869 0.77829 0.0
O176 O 0.63489 0.49934 0.56016 0.0
O177 O 0.58395 0.46343 0.55148 0.0
C178 C 0.53417 0.55299 0.66763 0.0
C179 C 0.55006 0.5373 0.6744 0.0
C180 C 0.56215 0.52555 0.65846 0.0
C181 C 0.56089 0.53161 0.63583 0.0
C182 C 0.54635 0.54859 0.629 0.0
C183 C 0.53148 0.55794 0.64485 0.0
C184 C 0.51951 0.56282 0.68491 0.0
C185 C 0.53796 0.59245 0.69412 0.0
C186 C 0.52999 0.5984 0.7151 0.0
C187 C 0.50366 0.57466 0.72701 0.0
C188 C 0.48336 0.54604 0.71672 0.0
C189 C 0.49114 0.54022 0.69574 0.0
C190 C 0.5532 0.53253 0.69836 0.0
C191 C 0.57786 0.55657 0.71089 0.0
C192 C 0.57931 0.55326 0.7338 0.0
C193 C 0.55613 0.52576 0.74454 0.0
C194 C 0.53171 0.50153 0.73181 0.0
C195 C 0.53026 0.50492 0.70891 0.0
C196 C 0.57222 0.50358 0.66508 0.0
C197 C 0.60512 0.51353 0.66853 0.0
C198 C 0.61426 0.4919 0.67306 0.0
C199 C 0.5905 0.4602 0.67442 0.0
C200 C 0.55753 0.45054 0.67133 0.0
C201 C 0.54852 0.47205 0.66655 0.0
C202 C 0.57275 0.51823 0.619 0.0
C203 C 0.60615 0.53264 0.6143 0.0
C204 C 0.61699 0.52214 0.5968 0.0
C205 C 0.59457 0.497 0.58374 0.0
C206 C 0.56119 0.48203 0.589 0.0
C207 C 0.5504 0.49251 0.60653 0.0
C208 C 0.5449 0.5537 0.60489 0.0
C209 C 0.57428 0.57089 0.59319 0.0
C210 C 0.57626 0.56386 0.57112 0.0
C211 C 0.54843 0.54046 0.56014 0.0
C212 C 0.51792 0.52802 0.5708 0.0
C213 C 0.51624 0.53413 0.59319 0.0
C214 C 0.51014 0.56944 0.63757 0.0
C215 C 0.5229 0.59794 0.62661 0.0
C216 C 0.50198 0.60744 0.61875 0.0
C217 C 0.46801 0.58847 0.62167 0.0
C218 C 0.45551 0.56009 0.63288 0.0
C219 C 0.47636 0.55064 0.64064 0.0
C220 C 0.55719 0.52265 0.76897 0.0
C221 C 0.60582 0.48671 0.56448 0.0
H222 H 0.02386 0.41686 0.96263 0.0
H223 H 0.23 0.52113 0.74261 0.0
H224 H 0.97821 0.44652 0.83643 0.0
H225 H 0.94183 0.4359 0.86762 0.0
H226 H 0.94218 0.35217 0.88171 0.0
H227 H 0.97639 0.36164 0.84899 0.0
H228 H 0.03262 0.45893 0.87108 0.0
H229 H 0.02851 0.44896 0.91103 0.0
H230 H 0.04316 0.37248 0.89996 0.0
H231 H 0.04662 0.3824 0.85997 0.0
H232 H 0.10541 0.49547 0.84865 0.0
H233 H 0.15577 0.51313 0.86954 0.0
H234 H 0.15298 0.42866 0.85274 0.0
H235 H 0.10214 0.411 0.83224 0.0
H236 H 0.10235 0.51124 0.7952 0.0
H237 H 0.154 0.54231 0.7753 0.0
H238 H 0.16177 0.46121 0.76833 0.0
H239 H 0.10987 0.43037 0.78801 0.0
H240 H 0.02989 0.48651 0.78142 0.0
H241 H 0.04675 0.51667 0.74711 0.0
H242 H 0.07724 0.45613 0.72069 0.0
H243 H 0.05876 0.42528 0.75468 0.0
H244 H 0.97378 0.44984 0.79708 0.0
H245 H 0.91966 0.42493 0.78027 0.0
H246 H 0.92587 0.34429 0.76597 0.0
H247 H 0.97921 0.36888 0.7839 0.0
O248 O 0.02611 0.4207 0.94681 0.0
O249 O 0.03514 0.38246 0.94036 0.0
O250 O 0.20435 0.55038 0.75452 0.0
O251 O 0.20962 0.50944 0.75061 0.0
C252 C 0.01043 0.41725 0.82713 0.0
C253 C 0.03991 0.42614 0.83836 0.0
C254 C 0.06972 0.44149 0.82679 0.0
C255 C 0.07054 0.44965 0.80435 0.0
C256 C 0.04119 0.44124 0.79312 0.0
C257 C 0.01107 0.42409 0.80434 0.0
C258 C 0.97999 0.40488 0.84035 0.0
C259 C 0.96875 0.42483 0.84527 0.0
C260 C 0.94859 0.4191 0.86353 0.0
C261 C 0.94018 0.39383 0.87766 0.0
C262 C 0.94835 0.37194 0.87126 0.0
C263 C 0.96788 0.37729 0.85253 0.0
C264 C 0.03982 0.42132 0.86269 0.0
C265 C 0.03507 0.44012 0.87735 0.0
C266 C 0.0327 0.43435 0.90015 0.0
C267 C 0.03542 0.40987 0.90869 0.0
C268 C 0.04091 0.39149 0.89392 0.0
C269 C 0.04306 0.39718 0.8711 0.0
C270 C 0.10046 0.45213 0.83893 0.0
C271 C 0.11579 0.48089 0.8495 0.0
C272 C 0.14451 0.4909 0.86134 0.0
C273 C 0.15834 0.47229 0.86273 0.0
C274 C 0.14269 0.44333 0.85217 0.0
C275 C 0.11391 0.43333 0.84033 0.0
C276 C 0.10244 0.46861 0.79298 0.0
C277 C 0.1153 0.50028 0.78936 0.0
C278 C 0.14478 0.51794 0.77801 0.0
C279 C 0.16202 0.50422 0.7702 0.0
C280 C 0.14914 0.47249 0.7741 0.0
C281 C 0.11958 0.45484 0.78539 0.0
C282 C 0.04291 0.45359 0.77049 0.0
C283 C 0.0388 0.47894 0.76782 0.0
C284 C 0.04905 0.4965 0.74835 0.0
C285 C 0.06392 0.4892 0.73129 0.0
C286 C 0.06569 0.46234 0.73338 0.0
C287 C 0.05512 0.44461 0.7528 0.0
C288 C 0.98012 0.41095 0.79195 0.0
C289 C 0.96342 0.42683 0.79027 0.0
C290 C 0.93261 0.41263 0.78046 0.0
C291 C 0.9182 0.38243 0.77192 0.0
C292 C 0.93584 0.36724 0.7728 0.0
C293 C 0.96644 0.38133 0.78285 0.0
C294 C 0.03228 0.40344 0.93288 0.0
C295 C 0.19325 0.52284 0.758 0.0
H296 H 0.36928 0.00042 0.83558 0.0
H297 H 0.38152 0.79089 0.00957 0.0
H298 H 0.43379 0.05335 0.95476 0.0
H299 H 0.45854 0.10065 0.93253 0.0
H300 H 0.53656 0.08515 0.91446 0.0
H301 H 0.51359 0.04071 0.93878 0.0
H302 H 0.37893 0.97838 0.9298 0.0
H303 H 0.36556 0.98523 0.89185 0.0
H304 H 0.46235 0.01007 0.87056 0.0
H305 H 0.47521 0.00277 0.90846 0.0
H306 H 0.36369 0.90323 0.95137 0.0
H307 H 0.34999 0.85601 0.93081 0.0
H308 H 0.44591 0.90376 0.90105 0.0
H309 H 0.45981 0.94984 0.92215 0.0
H310 H 0.37693 0.92059 0.00448 0.0
H311 H 0.35484 0.86811 0.01901 0.0
H312 H 0.42895 0.86128 0.98308 0.0
H313 H 0.45114 0.91393 0.96904 0.0
H314 H 0.42216 0.99634 0.02422 0.0
H315 H 0.42472 0.98768 0.06388 0.0
H316 H 0.47893 0.94297 0.04957 0.0
H317 H 0.47767 0.95322 0.01007 0.0
H318 H 0.45741 0.05863 -0.00446 0.0
H319 H 0.49934 0.1034 0.0164 0.0
H320 H 0.5597 0.06304 0.01689 0.0
H321 H 0.51835 0.01905 -0.00433 0.0
O322 O 0.37504 0.99774 0.85045 0.0
O323 O 0.42519 0.01063 0.84041 0.0
O324 O 0.35306 0.81684 0.02311 0.0
O325 O 0.39002 0.81184 0.00435 0.0
C326 C 0.45479 0.01263 0.95857 0.0
C327 C 0.43586 0.98648 0.9451 0.0
C328 C 0.42424 0.95652 0.95364 0.0
C329 C 0.42832 0.95252 0.9764 0.0
C330 C 0.44573 0.97871 0.99018 0.0
C331 C 0.46042 0.00876 0.98097 0.0
C332 C 0.47189 0.04367 0.94819 0.0
C333 C 0.45685 0.06105 0.94652 0.0
C334 C 0.47087 0.08783 0.93343 0.0
C335 C 0.49943 0.0969 0.921 0.0
C336 C 0.51507 0.07991 0.92383 0.0
C337 C 0.50176 0.05403 0.93763 0.0
C338 C 0.42811 0.99037 0.92192 0.0
C339 C 0.39718 0.98527 0.91689 0.0
C340 C 0.38963 0.98923 0.89522 0.0
C341 C 0.41293 0.99832 0.87818 0.0
C342 C 0.44388 0.00318 0.88329 0.0
C343 C 0.45134 -0.00085 0.90496 0.0
C344 C 0.4127 0.93008 0.93815 0.0
C345 C 0.38138 0.90362 0.93998 0.0
C346 C 0.37361 0.87676 0.92828 0.0
C347 C 0.39683 0.87637 0.91423 0.0
C348 C 0.4273 0.90355 0.91137 0.0
C349 C 0.43525 0.93 0.92338 0.0
C350 C 0.41547 0.92096 0.98561 0.0
C351 C 0.38842 0.90776 -0.00013 0.0
C352 C 0.37584 0.87777 0.0081 0.0
C353 C 0.39007 0.86045 0.00214 0.0
C354 C 0.41737 0.87393 0.98797 0.0
C355 C 0.43004 0.90396 0.97989 0.0
C356 C 0.44912 0.97483 0.01426 0.0
C357 C 0.43492 0.98501 0.02972 0.0
C358 C 0.43628 0.9799 0.05233 0.0
C359 C 0.4517 0.9643 0.0599 0.0
C360 C 0.46708 0.95526 0.04437 0.0
C361 C 0.46597 0.96067 0.02176 0.0
C362 C 0.48491 0.03567 -0.00596 0.0
C363 C 0.47978 0.05962 6e-05 0.0
C364 C 0.50362 0.08503 0.012 0.0
C365 C 0.53258 0.08648 0.01837 0.0
C366 C 0.53738 0.06226 0.01251 0.0
C367 C 0.51386 0.03721 0.00034 0.0
C368 C 0.40489 0.00263 0.85519 0.0
C369 C 0.37652 0.82843 0.01055 0.0
H370 H 0.61326 0.58788 -0.00616 0.0
H371 H 0.69304 0.50877 0.23604 0.0
H372 H 0.57605 0.62683 0.1241 0.0
H373 H 0.55927 0.65082 0.09629 0.0
H374 H 0.65648 0.69761 0.0683 0.0
H375 H 0.67366 0.67525 0.09734 0.0
H376 H 0.58941 0.58621 0.08907 0.0
H377 H 0.58956 0.58299 0.04862 0.0
H378 H 0.69396 0.62213 0.04957 0.0
H379 H 0.69352 0.62566 0.09003 0.0
H380 H 0.60691 0.53718 0.10727 0.0
H381 H 0.61949 0.49952 0.09221 0.0
H382 H 0.71802 0.55474 0.11698 0.0
H383 H 0.70547 0.59258 0.13126 0.0
H384 H 0.60529 0.52867 0.15917 0.0
H385 H 0.61234 0.49436 0.18423 0.0
H386 H 0.7049 0.57188 0.20552 0.0
H387 H 0.69773 0.60579 0.18018 0.0
H388 H 0.58791 0.56864 0.18877 0.0
H389 H 0.58877 0.56083 0.22875 0.0
H390 H 0.68317 0.64502 0.23276 0.0
H391 H 0.68171 0.65287 0.19281 0.0
H392 H 0.57704 0.61697 0.17232 0.0
H393 H 0.56254 0.65255 0.18858 0.0
H394 H 0.65535 0.73019 0.16748 0.0
H395 H 0.66987 0.69428 0.15151 0.0
O396 O 0.61376 0.58929 0.00985 0.0
O397 O 0.66734 0.60897 0.01125 0.0
O398 O 0.64235 0.4825 0.214 0.0
O399 O 0.68998 0.52165 0.22561 0.0
C400 C 0.63421 0.63011 0.12694 0.0
C401 C 0.64133 0.60889 0.11699 0.0
C402 C 0.64743 0.58953 0.13042 0.0
C403 C 0.64565 0.59075 0.15369 0.0
C404 C 0.63786 0.61141 0.16358 0.0
C405 C 0.63261 0.63141 0.1503 0.0
C406 C 0.62601 0.64911 0.11266 0.0
C407 C 0.59404 0.64316 0.1125 0.0
C408 C 0.58439 0.65656 0.09635 0.0
C409 C 0.60632 0.67556 0.07971 0.0
C410 C 0.63898 0.6832 0.08087 0.0
C411 C 0.64879 0.67026 0.09735 0.0
C412 C 0.64146 0.60625 0.09246 0.0
C413 C 0.61229 0.59413 0.0805 0.0
C414 C 0.61244 0.59228 0.0574 0.0
C415 C 0.64178 0.60233 0.04585 0.0
C416 C 0.67095 0.61421 0.05795 0.0
C417 C 0.67077 0.61617 0.08105 0.0
C418 C 0.65535 0.56757 0.12026 0.0
C419 C 0.6313 0.54124 0.10913 0.0
C420 C 0.63844 0.51968 0.10074 0.0
C421 C 0.66975 0.52416 0.10339 0.0
C422 C 0.69383 0.55085 0.11434 0.0
C423 C 0.68669 0.57238 0.12264 0.0
C424 C 0.651 0.56966 0.16788 0.0
C425 C 0.62722 0.53809 0.16909 0.0
C426 C 0.63125 0.5186 0.18349 0.0
C427 C 0.65915 0.53042 0.19695 0.0
C428 C 0.68312 0.56203 0.19543 0.0
C429 C 0.6791 0.58146 0.18097 0.0
C430 C 0.63481 0.61123 0.188 0.0
C431 C 0.60824 0.58589 0.19846 0.0
C432 C 0.60895 0.58131 0.22121 0.0
C433 C 0.63629 0.60203 0.23381 0.0
C434 C 0.66169 0.62875 0.22352 0.0
C435 C 0.66092 0.63333 0.20073 0.0
C436 C 0.62452 0.65309 0.16082 0.0
C437 C 0.59436 0.64165 0.17142 0.0
C438 C 0.58603 0.66199 0.18052 0.0
C439 C 0.60779 0.69415 0.17922 0.0
C440 C 0.63825 0.70552 0.1689 0.0
C441 C 0.64649 0.68512 0.1597 0.0
C442 C 0.64187 0.60044 0.02129 0.0
C443 C 0.66321 0.50998 0.21264 0.0
C444 C 0.73148 0.47494 0.3976 0.0
O445 O 0.74029 0.49921 0.40884 0.0
Cd446 Cd 0.70066 0.5128 0.42012 0.0
O447 O 0.70153 0.45685 0.39303 0.0
Cd448 Cd 0.6479 0.45051 0.39983 0.0
C449 C 0.66697 0.51457 0.37051 0.0
O450 O 0.65315 0.47095 0.43785 0.0
O451 O 0.61038 0.46067 0.41855 0.0
O452 O 0.63155 0.39881 0.41105 0.0
C453 C 0.6256 0.46896 0.43678 0.0
O454 O 0.68412 0.529 0.38732 0.0
C455 C 0.60834 0.38478 0.39738 0.0
O456 O 0.65246 0.48515 0.36945 0.0
O457 O 0.60344 0.40148 0.38399 0.0
C458 C 0.28364 0.60433 0.56837 0.0
O459 O 0.261 0.57796 0.56175 0.0
Cd460 Cd 0.20782 0.56733 0.55045 0.0
O461 O 0.27968 0.62738 0.56843 0.0
Cd462 Cd 0.24146 0.64454 0.55869 0.0
C463 C 0.18837 0.5945 0.59755 0.0
O464 O 0.21836 0.60996 0.52796 0.0
O465 O 0.19693 0.63766 0.53423 0.0
O466 O 0.29072 0.68691 0.54318 0.0
C467 C 0.19686 0.6164 0.5231 0.0
O468 O 0.18431 0.57287 0.58461 0.0
C469 C 0.28803 0.70852 0.55148 0.0
O470 O 0.20881 0.62287 0.59293 0.0
O471 O 0.26311 0.70054 0.56361 0.0
C472 C 0.68606 0.24392 0.73827 0.0
O473 O 0.67766 0.21572 0.73991 0.0
Cd474 Cd 0.62072 0.17688 0.73824 0.0
O475 O 0.66461 0.2512 0.73527 0.0
Cd476 Cd 0.60532 0.22714 0.73004 0.0
C477 C 0.58848 0.19642 0.7812 0.0
O478 O 0.59608 0.18474 0.70549 0.0
O479 O 0.55318 0.18347 0.71816 0.0
O480 O 0.62199 0.26845 0.70304 0.0
C481 C 0.56532 0.17254 0.70505 0.0
O482 O 0.59746 0.17836 0.77398 0.0
C483 C 0.60524 0.27888 0.71124 0.0
O484 O 0.58954 0.21733 0.76886 0.0
O485 O 0.5875 0.26453 0.7279 0.0
C486 C 0.38133 0.58411 0.92051 0.0
O487 O 0.39742 0.575 0.93149 0.0
Cd488 Cd 0.4554 0.60701 0.9358 0.0
O489 O 0.39532 0.61144 0.91249 0.0
Cd490 Cd 0.44791 0.66093 0.91002 0.0
C491 C 0.47547 0.62225 0.88001 0.0
O492 O 0.46379 0.65602 0.94647 0.0
O493 O 0.50147 0.69484 0.92817 0.0
O494 O 0.41735 0.68612 0.91718 0.0
C495 C 0.49245 0.67936 0.94609 0.0
O496 O 0.47456 0.60839 0.89794 0.0
C497 C 0.42775 0.70373 0.9003 0.0
O498 O 0.46663 0.64207 0.87965 0.0
O499 O 0.44775 0.7015 0.88775 0.0
C500 C 0.77307 0.40793 0.06162 0.0
O501 O 0.8025 0.42768 0.05652 0.0
Cd502 Cd 0.84474 0.4174 0.04803 0.0
O503 O 0.76294 0.37908 0.06258 0.0
Cd504 Cd 0.78345 0.34335 0.05679 0.0
C505 C 0.84193 0.38091 0.09711 0.0
O506 O 0.81427 0.3729 0.02579 0.0
O507 O 0.81583 0.33149 0.03012 0.0
O508 O 0.72803 0.30573 0.04512 0.0
C509 C 0.82516 0.35626 0.01932 0.0
O510 O 0.85698 0.40433 0.08434 0.0
C511 C 0.72546 0.28391 0.05719 0.0
O512 O 0.81535 0.35698 0.09109 0.0
O513 O 0.74993 0.28985 0.06905 0.0
C514 C 0.37396 0.76816 0.23935 0.0
O515 O 0.36293 0.78567 0.23494 0.0
Cd516 Cd 0.39414 0.84004 0.22807 0.0
O517 O 0.40458 0.77861 0.23971 0.0
Cd518 Cd 0.45702 0.82796 0.23202 0.0
C519 C 0.44184 0.86208 0.27548 0.0
O520 O 0.43266 0.8412 0.20327 0.0
O521 O 0.48344 0.87518 0.20748 0.0
O522 O 0.47239 0.79361 0.21566 0.0
C523 C 0.45696 0.86676 0.19738 0.0
O524 O 0.41965 0.86197 0.26377 0.0
C525 C 0.50046 0.80624 0.22446 0.0
O526 O 0.45808 0.85037 0.26824 0.0
O527 O 0.50857 0.82928 0.23701 0.0
H528 H 0.19791 0.61886 0.24134 0.0
H529 H 0.23123 0.58364 0.29429 0.0
H530 H 0.28796 0.62565 0.28714 0.0
H531 H 0.27119 0.65065 0.20503 0.0
H532 H 0.26858 0.684 0.19803 0.0
H533 H 0.23201 0.64751 0.20402 0.0
H534 H 0.21653 0.67392 0.23438 0.0
H535 H 0.25303 0.71033 0.22861 0.0
H536 H 0.24502 0.69472 0.25637 0.0
H537 H 0.34031 0.67549 0.27719 0.0
H538 H 0.38228 0.7292 0.2666 0.0
H539 H 0.31278 0.73312 0.22284 0.0
C540 C 0.21712 0.61962 0.25126 0.0
C541 C 0.21002 0.59787 0.26837 0.0
C542 C 0.23603 0.59965 0.28081 0.0
C543 C 0.26836 0.62354 0.27692 0.0
C544 C 0.27425 0.64538 0.26054 0.0
C545 C 0.24926 0.64351 0.24788 0.0
C546 C 0.26105 0.6717 0.23326 0.0
C547 C 0.25803 0.66293 0.20862 0.0
C548 C 0.24284 0.68866 0.23849 0.0
C549 C 0.29631 0.69038 0.2403 0.0
C550 C 0.30382 0.67457 0.25559 0.0
C551 C 0.33476 0.68793 0.26506 0.0
C552 C 0.35841 0.71837 0.25898 0.0
C553 C 0.35059 0.73521 0.24404 0.0
C554 C 0.31933 0.72077 0.23439 0.0
H555 H 0.54683 0.21822 0.44776 0.0
H556 H 0.47033 0.17946 0.39818 0.0
H557 H 0.49116 0.23192 0.38271 0.0
H558 H 0.5467 0.28744 0.45729 0.0
H559 H 0.59029 0.31089 0.4607 0.0
H560 H 0.56915 0.27034 0.46753 0.0
H561 H 0.60682 0.26285 0.44072 0.0
H562 H 0.62807 0.3034 0.43379 0.0
H563 H 0.61009 0.27484 0.41217 0.0
H564 H 0.52095 0.28963 0.373 0.0
H565 H 0.55636 0.34674 0.37038 0.0
H566 H 0.6133 0.3457 0.42594 0.0
C567 C 0.53465 0.2206 0.43346 0.0
C568 C 0.50706 0.19469 0.42411 0.0
C569 C 0.49138 0.19902 0.40573 0.0
C570 C 0.50315 0.22869 0.39676 0.0
C571 C 0.53059 0.25371 0.40636 0.0
C572 C 0.54607 0.24985 0.42431 0.0
C573 C 0.57485 0.28026 0.43184 0.0
C574 C 0.56993 0.28766 0.45575 0.0
C575 C 0.60684 0.28033 0.42948 0.0
C576 C 0.57322 0.30197 0.41537 0.0
C577 C 0.54759 0.28639 0.40076 0.0
C578 C 0.54115 0.30202 0.38433 0.0
C579 C 0.56137 0.33441 0.38294 0.0
C580 C 0.58762 0.35065 0.3979 0.0
C581 C 0.59355 0.33402 0.41416 0.0
H582 H 0.4092 0.55201 0.60109 0.0
H583 H 0.47556 0.64615 0.62294 0.0
H584 H 0.43654 0.66101 0.61019 0.0
H585 H 0.37872 0.57118 0.5523 0.0
H586 H 0.33774 0.53884 0.55596 0.0
H587 H 0.37184 0.53623 0.56551 0.0
H588 H 0.34666 0.52226 0.60496 0.0
H589 H 0.31255 0.52489 0.59556 0.0
H590 H 0.33648 0.54776 0.61877 0.0
H591 H 0.38905 0.66483 0.59678 0.0
H592 H 0.33706 0.65772 0.58331 0.0
H593 H 0.30137 0.56063 0.57096 0.0
C594 C 0.41557 0.57577 0.60323 0.0
C595 C 0.44544 0.59793 0.61305 0.0
C596 C 0.453 0.62887 0.61523 0.0
C597 C 0.43093 0.63748 0.60814 0.0
C598 C 0.4015 0.6149 0.59884 0.0
C599 C 0.39385 0.58472 0.5963 0.0
C600 C 0.36024 0.56467 0.5864 0.0
C601 C 0.36227 0.55199 0.56369 0.0
C602 C 0.33765 0.53835 0.60238 0.0
C603 C 0.34991 0.58819 0.58407 0.0
C604 C 0.37412 0.61706 0.59122 0.0
C605 C 0.36998 0.64237 0.59104 0.0
C606 C 0.3403 0.63804 0.58338 0.0
C607 C 0.31505 0.60859 0.57606 0.0
C608 C 0.32014 0.58344 0.57638 0.0
H609 H 0.87076 0.3212 0.77698 0.0
H610 H 0.88877 0.40705 0.74714 0.0
H611 H 0.83155 0.38059 0.73458 0.0
H612 H 0.81727 0.27059 0.73322 0.0
H613 H 0.79148 0.2402 0.75243 0.0
H614 H 0.83404 0.26585 0.75863 0.0
H615 H 0.81842 0.27989 0.79605 0.0
H616 H 0.77584 0.25445 0.78993 0.0
H617 H 0.79122 0.29454 0.7962 0.0
H618 H 0.77168 0.34549 0.72715 0.0
H619 H 0.71404 0.30365 0.7238 0.0
H620 H 0.73624 0.24015 0.75659 0.0
C621 C 0.86299 0.33439 0.76741 0.0
C622 C 0.88438 0.36629 0.76309 0.0
C623 C 0.87279 0.38273 0.75095 0.0
C624 C 0.84039 0.36786 0.74361 0.0
C625 C 0.81998 0.33649 0.74833 0.0
C626 C 0.8309 0.31988 0.75977 0.0
C627 C 0.80396 0.28649 0.76297 0.0
C628 C 0.81218 0.26449 0.7511 0.0
C629 C 0.79695 0.27839 0.78776 0.0
C630 C 0.776 0.28698 0.75178 0.0
C631 C 0.78573 0.31605 0.7435 0.0
C632 C 0.76386 0.32254 0.73334 0.0
C633 C 0.73117 0.29866 0.73159 0.0
C634 C 0.72074 0.26862 0.73981 0.0
C635 C 0.74359 0.26276 0.74989 0.0
H636 H 0.37616 0.82247 0.9365 0.0
H637 H 0.40878 0.8655 0.87188 0.0
H638 H 0.41321 0.82129 0.85939 0.0
H639 H 0.43003 0.79944 0.94177 0.0
H640 H 0.40365 0.76304 0.95553 0.0
H641 H 0.39574 0.79399 0.95788 0.0
H642 H 0.33726 0.75859 0.94279 0.0
H643 H 0.34472 0.7272 0.9407 0.0
H644 H 0.33134 0.739 0.91673 0.0
H645 H 0.42412 0.7782 0.85642 0.0
H646 H 0.43727 0.73745 0.8624 0.0
H647 H 0.39683 0.72208 0.92883 0.0
C648 C 0.38263 0.82179 0.91939 0.0
C649 C 0.39172 0.84709 0.90503 0.0
C650 C 0.40148 0.84613 0.88303 0.0
C651 C 0.40401 0.82113 0.87581 0.0
C652 C 0.39642 0.7972 0.89074 0.0
C653 C 0.38539 0.79706 0.91198 0.0
C654 C 0.38258 0.77058 0.92562 0.0
C655 C 0.4043 0.78249 0.94641 0.0
C656 C 0.34684 0.74747 0.93182 0.0
C657 C 0.3952 0.75675 0.90909 0.0
C658 C 0.40267 0.77216 0.88898 0.0
C659 C 0.41761 0.76544 0.87189 0.0
C660 C 0.42518 0.74242 0.87548 0.0
C661 C 0.41783 0.72648 0.89599 0.0
C662 C 0.4022 0.73349 0.91283 0.0
H663 H 0.7255 0.53469 0.08281 0.0
H664 H 0.63128 0.46093 0.10645 0.0
H665 H 0.64583 0.4224 0.09582 0.0
H666 H 0.73344 0.49274 0.03626 0.0
H667 H 0.77662 0.50972 0.04054 0.0
H668 H 0.75726 0.53097 0.04788 0.0
H669 H 0.77958 0.53752 0.08791 0.0
H670 H 0.79887 0.51622 0.08074 0.0
H671 H 0.77074 0.50369 0.10373 0.0
H672 H 0.67262 0.39236 0.08527 0.0
H673 H 0.70918 0.37332 0.07536 0.0
H674 H 0.78603 0.46734 0.05966 0.0
C675 C 0.70781 0.51042 0.08564 0.0
C676 C 0.67724 0.50081 0.09542 0.0
C677 C 0.65467 0.4688 0.09867 0.0
C678 C 0.66277 0.44676 0.09278 0.0
C679 C 0.69344 0.45714 0.0836 0.0
C680 C 0.71552 0.48822 0.07996 0.0
C681 C 0.7475 0.49359 0.07099 0.0
C682 C 0.75408 0.50758 0.04752 0.0
C683 C 0.77583 0.51395 0.08679 0.0
C684 C 0.74026 0.46072 0.07062 0.0
C685 C 0.70889 0.43996 0.07775 0.0
C686 C 0.69715 0.40838 0.07948 0.0
C687 C 0.71812 0.3978 0.07386 0.0
C688 C 0.7505 0.41882 0.06674 0.0
C689 C 0.76143 0.45062 0.06499 0.0
H690 H 0.35932 0.89019 0.53995 0.0
H691 H 0.43801 0.89448 0.50119 0.0
H692 H 0.41702 0.83964 0.50949 0.0
H693 H 0.354 0.83515 0.58208 0.0
H694 H 0.31012 0.81504 0.58348 0.0
H695 H 0.33318 0.85563 0.57655 0.0
H696 H 0.3 0.8446 0.5403 0.0
H697 H 0.27689 0.80402 0.54708 0.0
H698 H 0.29826 0.81664 0.52098 0.0
H699 H 0.38579 0.78393 0.51933 0.0
H700 H 0.34578 0.7302 0.52994 0.0
H701 H 0.28585 0.76071 0.56151 0.0
C702 C 0.37228 0.87969 0.5333 0.0
C703 C 0.40062 0.89693 0.5201 0.0
C704 C 0.4168 0.88217 0.5118 0.0
C705 C 0.40493 0.8509 0.5163 0.0
C706 C 0.3768 0.83458 0.5291 0.0
C707 C 0.36065 0.84839 0.53752 0.0
C708 C 0.32982 0.82504 0.54971 0.0
C709 C 0.33192 0.83321 0.57442 0.0
C710 C 0.29945 0.82242 0.53886 0.0
C711 C 0.33085 0.79583 0.54637 0.0
C712 C 0.35837 0.80203 0.53462 0.0
C713 C 0.36428 0.7788 0.5287 0.0
C714 C 0.34132 0.74831 0.53477 0.0
C715 C 0.31268 0.74123 0.54659 0.0
C716 C 0.30762 0.76543 0.55266 0.0
H717 H 0.56259 0.41143 0.70334 0.0
H718 H 0.63884 0.45611 0.65369 0.0
H719 H 0.65117 0.41448 0.65777 0.0
H720 H 0.60467 0.38457 0.73853 0.0
H721 H 0.56777 0.34878 0.74537 0.0
H722 H 0.56616 0.38283 0.7391 0.0
H723 H 0.52351 0.3527 0.7084 0.0
H724 H 0.52521 0.31865 0.71443 0.0
H725 H 0.53307 0.33423 0.68666 0.0
H726 H 0.65282 0.36646 0.66576 0.0
H727 H 0.64664 0.31745 0.67906 0.0
H728 H 0.56954 0.30462 0.72379 0.0
C729 C 0.582 0.4125 0.69343 0.0
C730 C 0.59981 0.43689 0.67821 0.0
C731 C 0.6252 0.43774 0.66562 0.0
C732 C 0.6322 0.41414 0.66772 0.0
C733 C 0.61373 0.39009 0.6826 0.0
C734 C 0.58941 0.38929 0.69541 0.0
C735 C 0.57303 0.36082 0.71007 0.0
C736 C 0.57823 0.36979 0.73473 0.0
C737 C 0.53654 0.3404 0.70455 0.0
C738 C 0.59165 0.34547 0.7033 0.0
C739 C 0.61496 0.36267 0.6874 0.0
C740 C 0.63481 0.3529 0.67831 0.0
C741 C 0.63101 0.32497 0.68591 0.0
C742 C 0.60763 0.30727 0.70247 0.0
C743 C 0.58765 0.31767 0.71114 0.0
H744 H 0.2124 0.53032 0.86133 0.0
H745 H 0.17461 0.43953 0.89085 0.0
H746 H 0.22715 0.45857 0.91015 0.0
H747 H 0.29269 0.54685 0.85188 0.0
H748 H 0.3117 0.58738 0.85836 0.0
H749 H 0.27084 0.56664 0.84755 0.0
H750 H 0.25043 0.58321 0.88156 0.0
H751 H 0.29127 0.60401 0.89249 0.0
H752 H 0.25836 0.57479 0.90912 0.0
H753 H 0.28463 0.48765 0.92545 0.0
H754 H 0.34245 0.52401 0.93493 0.0
H755 H 0.34105 0.5955 0.89565 0.0
C756 C 0.21496 0.51453 0.87211 0.0
C757 C 0.18943 0.4835 0.87468 0.0
C758 C 0.19401 0.46336 0.88853 0.0
C759 C 0.22364 0.47401 0.89966 0.0
C760 C 0.24831 0.50481 0.89675 0.0
C761 C 0.24422 0.52474 0.88331 0.0
C762 C 0.27467 0.5565 0.88242 0.0
C763 C 0.28827 0.56481 0.85864 0.0
C764 C 0.26829 0.58107 0.89197 0.0
C765 C 0.2967 0.55132 0.89735 0.0
C766 C 0.28111 0.52144 0.90553 0.0
C767 C 0.29703 0.51116 0.91923 0.0
C768 C 0.32984 0.53198 0.92452 0.0
C769 C 0.34628 0.56263 0.91608 0.0
C770 C 0.32922 0.57232 0.9025 0.0
H771 H 0.55853 0.14758 0.00809 0.0
H772 H 0.56588 0.08631 0.05504 0.0
H773 H 0.61365 0.1312 0.07231 0.0
H774 H 0.64145 0.19526 -0.00134 0.0
H775 H 0.64139 0.2308 -0.00361 0.0
H776 H 0.60525 0.1946 0.98964 0.0
H777 H 0.5719 0.20551 0.01806 0.0
H778 H 0.60794 0.24195 0.02479 0.0
H779 H 0.58555 0.21414 0.0464 0.0
H780 H 0.66354 0.18164 0.08188 0.0
H781 H 0.71189 0.23444 0.0835 0.0
H782 H 0.67209 0.26297 0.03028 0.0
C783 C 0.56965 0.14378 0.02242 0.0
C784 C 0.55852 0.1136 0.03036 0.0
C785 C 0.57417 0.10933 0.04873 0.0
C786 C 0.60117 0.13465 0.05868 0.0
C787 C 0.6121 0.16407 0.0501 0.0
C788 C 0.59673 0.1688 0.03247 0.0
C789 C 0.61487 0.20242 0.02531 0.0
C790 C 0.62642 0.20596 0.00107 0.0
C791 C 0.59381 0.21685 0.02886 0.0
C792 C 0.64331 0.21566 0.04126 0.0
C793 C 0.64106 0.19322 0.05556 0.0
C794 C 0.66536 0.19952 0.07098 0.0
C795 C 0.69277 0.22954 0.07172 0.0
C796 C 0.69569 0.25282 0.05707 0.0
C797 C 0.67041 0.24575 0.04184 0.0
H798 H 0.5494 0.69061 0.1739 0.0
H799 H 0.64455 0.74626 0.20428 0.0
H800 H 0.62786 0.78164 0.21916 0.0
H801 H 0.53927 0.75365 0.15808 0.0
H802 H 0.49611 0.73265 0.16382 0.0
H803 H 0.51585 0.7121 0.1556 0.0
H804 H 0.49423 0.67826 0.19111 0.0
H805 H 0.47442 0.69869 0.19945 0.0
H806 H 0.50288 0.69668 0.21786 0.0
H807 H 0.59982 0.81022 0.23134 0.0
H808 H 0.56339 0.83029 0.23894 0.0
H809 H 0.48715 0.7555 0.20021 0.0
C810 C 0.56666 0.71011 0.18382 0.0
C811 C 0.5982 0.71564 0.18805 0.0
C812 C 0.62032 0.74174 0.20075 0.0
C813 C 0.61101 0.76185 0.20933 0.0
C814 C 0.57961 0.75558 0.20493 0.0
C815 C 0.55786 0.73039 0.19239 0.0
C816 C 0.52564 0.72878 0.18987 0.0
C817 C 0.51884 0.732 0.16539 0.0
C818 C 0.49765 0.69883 0.2002 0.0
C819 C 0.53251 0.75687 0.2031 0.0
C820 C 0.56373 0.77207 0.21169 0.0
C821 C 0.57536 0.79854 0.22465 0.0
C822 C 0.5545 0.80974 0.22889 0.0
C823 C 0.52247 0.79449 0.22014 0.0
C824 C 0.51152 0.76774 0.2071 0.0
H825 H 0.90855 0.50801 0.36572 0.0
H826 H 0.86055 0.41784 0.33427 0.0
H827 H 0.80723 0.40824 0.34735 0.0
H828 H 0.85503 0.48584 0.4139 0.0
H829 H 0.85586 0.5219 0.41442 0.0
H830 H 0.89039 0.52079 0.40384 0.0
H831 H 0.88689 0.54517 0.36687 0.0
H832 H 0.85236 0.54633 0.3773 0.0
H833 H 0.84913 0.52681 0.35161 0.0
H834 H 0.75909 0.40979 0.36184 0.0
H835 H 0.71929 0.42179 0.37716 0.0
H836 H 0.79859 0.51134 0.39897 0.0
C837 C 0.88684 0.48621 0.3616 0.0
C838 C 0.88874 0.46363 0.34898 0.0
C839 C 0.85976 0.43529 0.34416 0.0
C840 C 0.82936 0.4297 0.35143 0.0
C841 C 0.82837 0.45262 0.36357 0.0
C842 C 0.85634 0.48025 0.36871 0.0
C843 C 0.84849 0.50145 0.38139 0.0
C844 C 0.86332 0.50786 0.40478 0.0
C845 C 0.85989 0.53173 0.36852 0.0
C846 C 0.81164 0.48162 0.38227 0.0
C847 C 0.80058 0.45349 0.37198 0.0
C848 C 0.76747 0.43163 0.37007 0.0
C849 C 0.74505 0.43874 0.37881 0.0
C850 C 0.75576 0.46751 0.38934 0.0
C851 C 0.78959 0.48907 0.39119 0.0
H852 H 0.09133 0.5775 0.41376 0.0
H853 H 0.03586 0.48198 0.43629 0.0
H854 H 0.06659 0.49721 0.4714 0.0
H855 H 0.16544 0.59582 0.43438 0.0
H856 H 0.17822 0.63456 0.44312 0.0
H857 H 0.14962 0.61711 0.42074 0.0
H858 H 0.10801 0.62632 0.44129 0.0
H859 H 0.13669 0.64448 0.46363 0.0
H860 H 0.0962 0.61238 0.46931 0.0
H861 H 0.10905 0.52139 0.50115 0.0
H862 H 0.15508 0.55445 0.5262 0.0
H863 H 0.17888 0.63478 0.48611 0.0
C864 C 0.08459 0.55988 0.42636 0.0
C865 C 0.06118 0.52846 0.42213 0.0
C866 C 0.054 0.50612 0.43895 0.0
C867 C 0.07121 0.51456 0.459 0.0
C868 C 0.095 0.54553 0.4622 0.0
C869 C 0.1011 0.56798 0.44659 0.0
C870 C 0.12878 0.59946 0.45372 0.0
C871 C 0.15719 0.61248 0.437 0.0
C872 C 0.11669 0.62199 0.4572 0.0
C873 C 0.13796 0.59104 0.47548 0.0
C874 C 0.11832 0.55976 0.48 0.0
C875 C 0.12406 0.54602 0.4981 0.0
C876 C 0.1503 0.56483 0.51209 0.0
C877 C 0.16999 0.59696 0.50803 0.0
C878 C 0.16364 0.61028 0.48965 0.0
H879 H 0.52578 0.09235 0.5873 0.0
H880 H 0.42337 0.04214 0.60583 0.0
H881 H 0.43835 0.06381 0.64361 0.0
H882 H 0.55683 0.08307 0.64113 0.0
H883 H 0.59282 0.12115 0.63931 0.0
H884 H 0.57398 0.09962 0.6144 0.0
H885 H 0.5693 0.14529 0.59941 0.0
H886 H 0.58786 0.16685 0.62427 0.0
H887 H 0.54848 0.15964 0.61577 0.0
H888 H 0.46432 0.09538 0.67801 0.0
H889 H 0.49936 0.13257 0.70678 0.0
H890 H 0.58475 0.15925 0.6662 0.0
C891 C 0.50645 0.08502 0.59942 0.0
C892 C 0.47335 0.06537 0.59354 0.0
C893 C 0.44888 0.05735 0.60984 0.0
C894 C 0.45717 0.06936 0.63139 0.0
C895 C 0.49004 0.08903 0.63646 0.0
C896 C 0.51429 0.09649 0.62099 0.0
C897 C 0.54766 0.11931 0.63019 0.0
C898 C 0.56908 0.10492 0.63133 0.0
C899 C 0.56428 0.14955 0.6166 0.0
C900 C 0.53837 0.1242 0.65311 0.0
C901 C 0.50503 0.10649 0.65645 0.0
C902 C 0.4905 0.10891 0.67574 0.0
C903 C 0.51056 0.13015 0.69194 0.0
C904 C 0.54475 0.14849 0.68878 0.0
C905 C 0.55876 0.14507 0.66925 0.0
H906 H 0.49914 0.62015 0.74875 0.0
H907 H 0.50159 0.53646 0.75933 0.0
H908 H 0.49854 0.54176 0.79976 0.0
H909 H 0.54641 0.66191 0.7972 0.0
H910 H 0.52197 0.67863 0.80326 0.0
H911 H 0.52606 0.66933 0.77508 0.0
H912 H 0.46318 0.63531 0.77165 0.0
H913 H 0.45891 0.64468 0.79975 0.0
H914 H 0.44053 0.60479 0.79156 0.0
H915 H 0.49495 0.55565 0.83865 0.0
H916 H 0.4862 0.57468 0.87391 0.0
H917 H 0.48366 0.64845 0.83854 0.0
C918 C 0.49908 0.60307 0.75967 0.0
C919 C 0.50049 0.57785 0.75106 0.0
C920 C 0.50021 0.55576 0.7657 0.0
C921 C 0.49872 0.5587 0.78865 0.0
C922 C 0.49727 0.58374 0.79667 0.0
C923 C 0.49707 0.60538 0.78269 0.0
C924 C 0.49363 0.62915 0.79571 0.0
C925 C 0.52382 0.66168 0.79263 0.0
C926 C 0.46219 0.62842 0.78929 0.0
C927 C 0.49166 0.61728 0.81913 0.0
C928 C 0.49429 0.59133 0.81927 0.0
C929 C 0.49287 0.57597 0.83881 0.0
C930 C 0.48798 0.58705 0.85877 0.0
C931 C 0.48419 0.61306 0.85905 0.0
C932 C 0.48651 0.62856 0.83892 0.0
H933 H 0.89359 0.3432 0.90176 0.0
H934 H 0.95914 0.44287 0.90515 0.0
H935 H 0.93888 0.44309 0.94247 0.0
H936 H 0.82677 0.33944 0.93012 0.0
H937 H 0.81555 0.30446 0.94523 0.0
H938 H 0.83569 0.31166 0.91877 0.0
H939 H 0.88093 0.30522 0.9367 0.0
H940 H 0.86097 0.2981 0.96326 0.0
H941 H 0.903 0.32863 0.96024 0.0
H942 H 0.90938 0.43387 0.97771 0.0
H943 H 0.87295 0.41494 0.01027 0.0
H944 H 0.829 0.32075 0.98643 0.0
C945 C 0.90379 0.365 0.91042 0.0
C946 C 0.92739 0.3931 0.90023 0.0
C947 C 0.94022 0.42115 0.91221 0.0
C948 C 0.92921 0.42152 0.93357 0.0
C949 C 0.90572 0.3936 0.943 0.0
C950 C 0.89328 0.36579 0.93199 0.0
C951 C 0.86778 0.33923 0.94603 0.0
C952 C 0.83448 0.32274 0.93434 0.0
C953 C 0.87884 0.31645 0.95191 0.0
C954 C 0.86741 0.35667 0.96636 0.0
C955 C 0.88958 0.38802 0.96415 0.0
C956 C 0.8923 0.40934 0.97986 0.0
C957 C 0.87149 0.3984 -0.00176 0.0
C958 C 0.84862 0.36644 0.0009 0.0
C959 C 0.84688 0.34522 0.98496 0.0
H960 H 0.49888 0.96386 0.08583 0.0
H961 H 0.39883 0.94285 0.08723 0.0
H962 H 0.39247 0.92233 0.12509 0.0
H963 H 0.48358 0.89625 0.11105 0.0
H964 H 0.52067 0.91302 0.127 0.0
H965 H 0.51961 0.93107 0.10153 0.0
H966 H 0.53897 0.98253 0.1223 0.0
H967 H 0.54021 0.96463 0.1479 0.0
H968 H 0.51645 0.98289 0.14613 0.0
H969 H 0.39356 0.89686 0.15961 0.0
H970 H 0.40278 0.86927 0.18971 0.0
H971 H 0.50231 0.90675 0.16717 0.0
C972 C 0.47582 0.95543 0.09426 0.0
C973 C 0.44946 0.95527 0.08358 0.0
C974 C 0.41964 0.94393 0.09517 0.0
C975 C 0.41572 0.93209 0.11669 0.0
C976 C 0.44189 0.93191 0.12651 0.0
C977 C 0.47148 0.94351 0.11581 0.0
C978 C 0.49467 0.93803 0.12939 0.0
C979 C 0.50523 0.91842 0.11647 0.0
C980 C 0.52433 0.96886 0.13687 0.0
C981 C 0.4729 0.92028 0.14888 0.0
C982 C 0.4427 0.91739 0.14694 0.0
C983 C 0.41732 0.89953 0.16162 0.0
C984 C 0.42274 0.88383 0.17859 0.0
C985 C 0.45334 0.88623 0.18083 0.0
C986 C 0.47896 0.9052 0.16608 0.0
H987 H 0.62193 0.54563 0.24972 0.0
H988 H 0.65993 0.64076 0.26975 0.0
H989 H 0.67061 0.62817 0.30726 0.0
H990 H 0.58209 0.50988 0.30267 0.0
H991 H 0.59216 0.48021 0.30058 0.0
H992 H 0.58587 0.49647 0.27581 0.0
H993 H 0.64274 0.51045 0.26154 0.0
H994 H 0.64976 0.49487 0.28634 0.0
H995 H 0.67828 0.53431 0.27824 0.0
H996 H 0.68003 0.60605 0.34157 0.0
H997 H 0.68579 0.57563 0.37119 0.0
H998 H 0.6403 0.49434 0.32903 0.0
C999 C 0.6317 0.56366 0.26215 0.0
C1000 C 0.63988 0.59415 0.2569 0.0
C1001 C 0.6536 0.61729 0.27342 0.0
C1002 C 0.65962 0.61033 0.29476 0.0
C1003 C 0.65167 0.58013 0.29926 0.0
C1004 C 0.63775 0.5571 0.28349 0.0
C1005 C 0.63249 0.52676 0.29235 0.0
C1006 C 0.59598 0.50186 0.29289 0.0
C1007 C 0.652 0.51599 0.27882 0.0
C1008 C 0.64607 0.53642 0.31551 0.0
C1009 C 0.65694 0.56729 0.31914 0.0
C1010 C 0.67136 0.58181 0.33901 0.0
C1011 C 0.67463 0.5643 0.3557 0.0
C1012 C 0.66345 0.53254 0.35246 0.0
C1013 C 0.64891 0.51849 0.33207 0.0
H1014 H 0.42037 0.95066 0.3767 0.0
H1015 H 0.47361 0.92074 0.41752 0.0
H1016 H 0.48018 0.89464 0.38507 0.0
H1017 H 0.37647 0.88033 0.34456 0.0
H1018 H 0.37849 0.90073 0.31946 0.0
H1019 H 0.37808 0.91672 0.34601 0.0
H1020 H 0.43176 0.96743 0.33577 0.0
H1021 H 0.43255 0.95147 0.30928 0.0
H1022 H 0.46699 0.96573 0.32767 0.0
H1023 H 0.48215 0.87307 0.34765 0.0
H1024 H 0.47612 0.85476 0.30898 0.0
H1025 H 0.41999 0.89769 0.29352 0.0
C1026 C 0.43285 0.93811 0.379 0.0
C1027 C 0.44639 0.93767 0.3997 0.0
C1028 C 0.46327 0.92161 0.40178 0.0
C1029 C 0.46706 0.90667 0.38347 0.0
C1030 C 0.45373 0.90793 0.36324 0.0
C1031 C 0.43671 0.923 0.36099 0.0
C1032 C 0.42469 0.92098 0.33753 0.0
C1033 C 0.38721 0.90365 0.33686 0.0
C1034 C 0.43992 0.95332 0.32695 0.0
C1035 C 0.43755 0.90233 0.32689 0.0
C1036 C 0.45445 0.8952 0.34191 0.0
C1037 C 0.46884 0.8784 0.33576 0.0
C1038 C 0.4654 0.86822 0.31375 0.0
C1039 C 0.44749 0.87468 0.29823 0.0
C1040 C 0.43368 0.8922 0.30498 0.0
H1041 H 0.5964 0.56616 0.52738 0.0
H1042 H 0.51006 0.47949 0.54752 0.0
H1043 H 0.52007 0.4527 0.51779 0.0
H1044 H 0.59273 0.55152 0.46827 0.0
H1045 H 0.63621 0.56853 0.46576 0.0
H1046 H 0.61989 0.58207 0.48676 0.0
H1047 H 0.65104 0.57089 0.51693 0.0
H1048 H 0.6672 0.55709 0.49601 0.0
H1049 H 0.64479 0.53261 0.51918 0.0
H1050 H 0.54001 0.43434 0.48678 0.0
H1051 H 0.56942 0.42614 0.45637 0.0
H1052 H 0.64641 0.52257 0.45958 0.0
C1053 C 0.57938 0.54159 0.52565 0.0
C1054 C 0.55207 0.52538 0.53993 0.0
C1055 C 0.5305 0.49313 0.53656 0.0
C1056 C 0.53621 0.47739 0.51982 0.0
C1057 C 0.56391 0.49392 0.50673 0.0
C1058 C 0.58521 0.52526 0.50944 0.0
C1059 C 0.61438 0.53711 0.4941 0.0
C1060 C 0.61587 0.56123 0.47775 0.0
C1061 C 0.64623 0.5502 0.50735 0.0
C1062 C 0.6061 0.50745 0.48238 0.0
C1063 C 0.57667 0.48289 0.48979 0.0
C1064 C 0.56319 0.45331 0.48095 0.0
C1065 C 0.58003 0.44883 0.46382 0.0
C1066 C 0.61025 0.4736 0.45616 0.0
C1067 C 0.62365 0.50319 0.46565 0.0
H1068 H 0.06646 0.47532 0.68751 0.0
H1069 H 0.10013 0.55257 0.7328 0.0
H1070 H 0.13204 0.58873 0.7026 0.0
H1071 H 0.14141 0.503 0.66095 0.0
H1072 H 0.12442 0.48902 0.63384 0.0
H1073 H 0.10091 0.46961 0.6582 0.0
H1074 H 0.05408 0.47683 0.64435 0.0
H1075 H 0.07743 0.49619 0.61985 0.0
H1076 H 0.0626 0.51507 0.63744 0.0
H1077 H 0.16432 0.61622 0.66812 0.0
H1078 H 0.194 0.63228 0.63233 0.0
H1079 H 0.14007 0.53671 0.61038 0.0
C1080 C 0.08022 0.49985 0.69104 0.0
C1081 C 0.08042 0.51104 0.71251 0.0
C1082 C 0.09887 0.5434 0.71639 0.0
C1083 C 0.11729 0.56417 0.69936 0.0
C1084 C 0.11702 0.55228 0.67851 0.0
C1085 C 0.09884 0.52087 0.67429 0.0
C1086 C 0.10438 0.51379 0.65092 0.0
C1087 C 0.11863 0.49262 0.651 0.0
C1088 C 0.07274 0.49964 0.63734 0.0
C1089 C 0.12909 0.54601 0.64284 0.0
C1090 C 0.13587 0.568 0.65885 0.0
C1091 C 0.15896 0.59923 0.65536 0.0
C1092 C 0.17572 0.60814 0.635 0.0
C1093 C 0.16944 0.58582 0.61851 0.0
C1094 C 0.1455 0.55445 0.62255 0.0
H1095 H 0.56183 0.13349 0.90369 0.0
H1096 H 0.46308 0.11559 0.89724 0.0
H1097 H 0.47997 0.14919 0.86458 0.0
H1098 H 0.60757 0.21186 0.87745 0.0
H1099 H 0.63399 0.20232 0.86284 0.0
H1100 H 0.61766 0.18525 0.8896 0.0
H1101 H 0.59373 0.13056 0.87276 0.0
H1102 H 0.60979 0.14736 0.84604 0.0
H1103 H 0.56682 0.11963 0.84923 0.0
H1104 H 0.50474 0.17832 0.82942 0.0
H1105 H 0.53316 0.19509 0.79323 0.0
H1106 H 0.61172 0.18543 0.81912 0.0
C1107 C 0.54356 0.13663 0.89571 0.0
C1108 C 0.51096 0.12153 0.90352 0.0
C1109 C 0.48846 0.12726 0.8924 0.0
C1110 C 0.49778 0.14633 0.87356 0.0
C1111 C 0.52954 0.15924 0.86569 0.0
C1112 C 0.55202 0.15439 0.87634 0.0
C1113 C 0.58248 0.16571 0.86243 0.0
C1114 C 0.61218 0.19291 0.87376 0.0
C1115 C 0.58852 0.13924 0.85731 0.0
C1116 C 0.57294 0.1763 0.84184 0.0
C1117 C 0.54292 0.17362 0.84442 0.0
C1118 C 0.52841 0.18084 0.8273 0.0
C1119 C 0.54467 0.19032 0.80685 0.0
C1120 C 0.57445 0.19141 0.80358 0.0
C1121 C 0.58898 0.18482 0.82136 0.0
H1122 H 0.54871 0.63961 0.05821 0.0
H1123 H 0.6369 0.73046 0.05598 0.0
H1124 H 0.6175 0.74216 0.02136 0.0
H1125 H 0.54205 0.62488 0.00115 0.0
H1126 H 0.49817 0.60546 0.00073 0.0
H1127 H 0.51872 0.60494 0.02554 0.0
H1128 H 0.49026 0.62815 0.04792 0.0
H1129 H 0.46935 0.62847 0.02322 0.0
H1130 H 0.4937 0.66367 0.03863 0.0
H1131 H 0.58868 0.74238 0.98567 0.0
H1132 H 0.55218 0.73194 0.9535 0.0
H1133 H 0.48288 0.64187 0.98124 0.0
C1134 C 0.56371 0.66233 0.05086 0.0
C1135 C 0.59422 0.68423 0.05998 0.0
C1136 C 0.61348 0.71325 0.04926 0.0
C1137 C 0.60262 0.72013 0.02965 0.0
C1138 C 0.57243 0.69781 0.02109 0.0
C1139 C 0.55321 0.66961 0.03153 0.0
C1140 C 0.52204 0.64921 0.01899 0.0
C1141 C 0.52016 0.61937 0.01114 0.0
C1142 C 0.49207 0.64196 0.03303 0.0
C1143 C 0.52663 0.67024 -0.00026 0.0
C1144 C 0.55585 0.69814 0.00107 0.0
C1145 C 0.56562 0.72072 0.98459 0.0
C1146 C 0.54483 0.71458 0.96639 0.0
C1147 C 0.51466 0.68622 0.965 0.0
C1148 C 0.50562 0.66393 0.98194 0.0
H1149 H 0.95067 0.46495 0.20327 0.0
H1150 H 0.89585 0.37779 0.23872 0.0
H1151 H 0.86409 0.35296 0.20473 0.0
H1152 H 0.88412 0.45739 0.1706 0.0
H1153 H 0.90908 0.47509 0.14636 0.0
H1154 H 0.92696 0.48563 0.17356 0.0
H1155 H 0.96959 0.47123 0.16218 0.0
H1156 H 0.95167 0.4604 0.13501 0.0
H1157 H 0.95589 0.43304 0.1517 0.0
H1158 H 0.83805 0.33805 0.16678 0.0
H1159 H 0.8194 0.33424 0.12809 0.0
H1160 H 0.89234 0.43127 0.11774 0.0
C1161 C 0.93166 0.44074 0.20397 0.0
C1162 C 0.92546 0.42331 0.22364 0.0
C1163 C 0.90095 0.3915 0.22377 0.0
C1164 C 0.88282 0.37725 0.20458 0.0
C1165 C 0.88971 0.39511 0.18541 0.0
C1166 C 0.91355 0.42616 0.18499 0.0
C1167 C 0.91647 0.44018 0.16229 0.0
C1168 C 0.90868 0.46609 0.16327 0.0
C1169 C 0.95042 0.45189 0.1522 0.0
C1170 C 0.89034 0.41222 0.15 0.0
C1171 C 0.87518 0.38643 0.16358 0.0
C1172 C 0.84981 0.35807 0.15597 0.0
C1173 C 0.83942 0.35614 0.13396 0.0
C1174 C 0.85445 0.38241 0.11981 0.0
C1175 C 0.88046 0.41067 0.12801 0.0
loop_
_geom_bond_atom_site_label_1
_geom_bond_atom_site_label_2
_geom_bond_distance
_geom_bond_site_symmetry_2
_ccdc_geom_bond_type
H0 O26 0.856 . S
H1 O29 0.854 . S
H2 C37 0.933 1_455 S
H3 C38 0.930 . S
H4 C40 0.930 . S
H5 C41 0.930 . S
H6 C43 0.931 . S
H7 C44 0.930 . S
H8 C46 0.930 . S
H9 C47 0.929 . S
H10 C49 0.930 . S
H11 C50 0.931 . S
H12 C52 0.930 . S
H13 C53 0.929 . S
H14 C55 0.931 . S
H15 C56 0.930 . S
H16 C58 0.930 . S
H17 C59 0.932 . S
H18 C61 0.930 . S
H19 C62 0.929 . S
H20 C64 0.931 . S
H21 C65 0.930 . S
H22 C67 0.929 . S
H23 C68 0.931 . S
H24 C70 0.930 . S
H25 C71 0.925 1_455 S
O26 H0 0.856 . S
O26 C72 1.300 . S
O27 C72 1.209 . S
O28 C73 1.199 . S
O29 H1 0.854 . S
O29 C73 1.297 . S
C30 C31 1.404 . S
C30 C35 1.397 . S
C30 C36 1.492 . S
C31 C30 1.404 . S
C31 C32 1.396 . S
C31 C42 1.492 . S
C32 C31 1.396 . S
C32 C33 1.397 . S
C32 C48 1.509 . S
C33 C32 1.397 . S
C33 C34 1.412 . S
C33 C54 1.485 . S
C34 C33 1.412 . S
C34 C35 1.388 . S
C34 C60 1.490 . S
C35 C30 1.397 . S
C35 C34 1.388 . S
C35 C66 1.519 1_455 S
C36 C30 1.492 . S
C36 C37 1.362 1_455 S
C36 C41 1.390 1_455 S
C37 H2 0.933 1_655 S
C37 C36 1.362 1_655 S
C37 C38 1.371 . S
C38 H3 0.930 . S
C38 C37 1.371 . S
C38 C39 1.383 . S
C39 C38 1.383 . S
C39 C40 1.395 . S
C40 H4 0.930 . S
C40 C39 1.395 . S
C40 C41 1.362 . S
C41 H5 0.930 . S
C41 C36 1.390 1_655 S
C41 C40 1.362 . S
C42 C31 1.492 . S
C42 C43 1.377 . S
C42 C47 1.397 . S
C43 H6 0.931 . S
C43 C42 1.377 . S
C43 C44 1.376 . S
C44 H7 0.930 . S
C44 C43 1.376 . S
C44 C45 1.376 . S
C45 C44 1.376 . S
C45 C46 1.378 . S
C45 C72 1.486 . S
C46 H8 0.930 . S
C46 C45 1.378 . S
C46 C47 1.376 . S
C47 H9 0.929 . S
C47 C42 1.397 . S
C47 C46 1.376 . S
C48 C32 1.509 . S
C48 C49 1.391 . S
C48 C53 1.386 . S
C49 H10 0.930 . S
C49 C48 1.391 . S
C49 C50 1.375 . S
C50 H11 0.931 . S
C50 C49 1.375 . S
C50 C51 1.375 . S
C51 C50 1.375 . S
C51 C52 1.361 . S
C52 H12 0.930 . S
C52 C51 1.361 . S
C52 C53 1.399 . S
C53 H13 0.929 . S
C53 C48 1.386 . S
C53 C52 1.399 . S
C54 C33 1.485 . S
C54 C55 1.394 . S
C54 C59 1.360 . S
C55 H14 0.931 . S
C55 C54 1.394 . S
C55 C56 1.372 . S
C56 H15 0.930 . S
C56 C55 1.372 . S
C56 C57 1.397 . S
C57 C56 1.397 . S
C57 C58 1.390 . S
C57 C73 1.476 . S
C58 H16 0.930 . S
C58 C57 1.390 . S
C58 C59 1.366 . S
C59 H17 0.932 . S
C59 C54 1.360 . S
C59 C58 1.366 . S
C60 C34 1.490 . S
C60 C61 1.380 . S
C60 C65 1.386 . S
C61 H18 0.930 . S
C61 C60 1.380 . S
C61 C62 1.381 . S
C62 H19 0.929 . S
C62 C61 1.381 . S
C62 C63 1.371 . S
C63 C62 1.371 . S
C63 C64 1.380 . S
C64 H20 0.931 . S
C64 C63 1.380 . S
C64 C65 1.387 . S
C65 H21 0.930 . S
C65 C60 1.386 . S
C65 C64 1.387 . S
C66 C35 1.519 1_655 S
C66 C67 1.377 . S
C66 C71 1.361 . S
C67 H22 0.929 . S
C67 C66 1.377 . S
C67 C68 1.386 . S
C68 H23 0.931 . S
C68 C67 1.386 . S
C68 C69 1.363 . S
C69 C68 1.363 . S
C69 C70 1.385 . S
C70 H24 0.930 . S
C70 C69 1.385 . S
C70 C71 1.396 . S
C71 H25 0.925 1_655 S
C71 C66 1.361 . S
C71 C70 1.396 . S
C72 O26 1.300 . S
C72 O27 1.209 . S
C72 C45 1.486 . S
C73 O28 1.199 . S
C73 O29 1.297 . S
C73 C57 1.476 . S
H74 O100 0.856 . S
H75 O103 0.854 . S
H76 C111 0.930 . S
H77 C112 0.930 . S
H78 C114 0.930 . S
H79 C115 0.930 . S
H80 C117 0.931 . S
H81 C118 0.930 . S
H82 C120 0.930 . S
H83 C121 0.929 . S
H84 C123 0.930 . S
H85 C124 0.931 . S
H86 C126 0.930 . S
H87 C127 0.929 . S
H88 C129 0.931 . S
H89 C130 0.930 . S
H90 C132 0.930 . S
H91 C133 0.932 . S
H92 C135 0.930 . S
H93 C136 0.929 . S
H94 C138 0.931 . S
H95 C139 0.930 . S
H96 C141 0.929 . S
H97 C142 0.931 . S
H98 C144 0.930 . S
H99 C145 0.929 1_545 S
O100 H74 0.856 . S
O100 C146 1.300 . S
O101 C146 1.209 . S
O102 C147 1.199 . S
O103 H75 0.854 . S
O103 C147 1.297 . S
C104 C105 1.404 . S
C104 C109 1.397 . S
C104 C110 1.492 . S
C105 C104 1.404 . S
C105 C106 1.396 . S
C105 C116 1.492 . S
C106 C105 1.396 . S
C106 C107 1.397 . S
C106 C122 1.509 . S
C107 C106 1.397 . S
C107 C108 1.412 . S
C107 C128 1.485 . S
C108 C107 1.412 . S
C108 C109 1.388 . S
C108 C134 1.490 . S
C109 C104 1.397 . S
C109 C108 1.388 . S
C109 C140 1.519 . S
C110 C104 1.492 . S
C110 C111 1.363 . S
C110 C115 1.390 1_545 S
C111 H76 0.930 . S
C111 C110 1.363 . S
C111 C112 1.372 1_545 S
C112 H77 0.930 . S
C112 C111 1.372 1_565 S
C112 C113 1.383 . S
C113 C112 1.383 . S
C113 C114 1.395 . S
C114 H78 0.930 . S
C114 C113 1.395 . S
C114 C115 1.362 . S
C115 H79 0.930 . S
C115 C110 1.390 1_565 S
C115 C114 1.362 . S
C116 C105 1.492 . S
C116 C117 1.377 . S
C116 C121 1.397 . S
C117 H80 0.931 . S
C117 C116 1.377 . S
C117 C118 1.376 . S
C118 H81 0.930 . S
C118 C117 1.376 . S
C118 C119 1.376 . S
C119 C118 1.376 . S
C119 C120 1.378 . S
C119 C146 1.486 . S
C120 H82 0.930 . S
C120 C119 1.378 . S
C120 C121 1.376 . S
C121 H83 0.929 . S
C121 C116 1.397 . S
C121 C120 1.376 . S
C122 C106 1.509 . S
C122 C123 1.391 . S
C122 C127 1.386 . S
C123 H84 0.930 . S
C123 C122 1.391 . S
C123 C124 1.375 . S
C124 H85 0.931 . S
C124 C123 1.375 . S
C124 C125 1.375 . S
C125 C124 1.375 . S
C125 C126 1.361 . S
C126 H86 0.930 . S
C126 C125 1.361 . S
C126 C127 1.399 . S
C127 H87 0.929 . S
C127 C122 1.386 . S
C127 C126 1.399 . S
C128 C107 1.485 . S
C128 C129 1.394 . S
C128 C133 1.360 . S
C129 H88 0.931 . S
C129 C128 1.394 . S
C129 C130 1.372 . S
C130 H89 0.930 . S
C130 C129 1.372 . S
C130 C131 1.397 . S
C131 C130 1.397 . S
C131 C132 1.390 . S
C131 C147 1.476 . S
C132 H90 0.930 . S
C132 C131 1.390 . S
C132 C133 1.366 . S
C133 H91 0.932 . S
C133 C128 1.360 . S
C133 C132 1.366 . S
C134 C108 1.490 . S
C134 C135 1.380 . S
C134 C139 1.386 . S
C135 H92 0.930 . S
C135 C134 1.380 . S
C135 C136 1.381 . S
C136 H93 0.929 . S
C136 C135 1.381 . S
C136 C137 1.371 . S
C137 C136 1.371 . S
C137 C138 1.380 . S
C138 H94 0.931 . S
C138 C137 1.380 . S
C138 C139 1.387 . S
C139 H95 0.930 . S
C139 C134 1.386 . S
C139 C138 1.387 . S
C140 C109 1.519 . S
C140 C141 1.377 1_545 S
C140 C145 1.361 1_545 S
C141 H96 0.929 . S
C141 C140 1.377 1_565 S
C141 C142 1.386 . S
C142 H97 0.931 . S
C142 C141 1.386 . S
C142 C143 1.363 . S
C143 C142 1.363 . S
C143 C144 1.385 . S
C144 H98 0.930 . S
C144 C143 1.385 . S
C144 C145 1.396 . S
C145 H99 0.929 1_565 S
C145 C140 1.361 1_565 S
C145 C144 1.396 . S
C146 O100 1.300 . S
C146 O101 1.209 . S
C146 C119 1.486 . S
C147 O102 1.199 . S
C147 O103 1.297 . S
C147 C131 1.476 . S
H148 O174 0.856 . S
H149 O177 0.854 . S
H150 C185 0.930 . S
H151 C186 0.930 . S
H152 C188 0.930 . S
H153 C189 0.930 . S
H154 C191 0.931 . S
H155 C192 0.930 . S
H156 C194 0.930 . S
H157 C195 0.929 . S
H158 C197 0.930 . S
H159 C198 0.931 . S
H160 C200 0.930 . S
H161 C201 0.929 . S
H162 C203 0.931 . S
H163 C204 0.930 . S
H164 C206 0.930 . S
H165 C207 0.932 . S
H166 C209 0.930 . S
H167 C210 0.929 . S
H168 C212 0.931 . S
H169 C213 0.930 . S
H170 C215 0.929 . S
H171 C216 0.931 . S
H172 C218 0.930 . S
H173 C219 0.929 . S
O174 H148 0.856 . S
O174 C220 1.300 . S
O175 C220 1.209 . S
O176 C221 1.199 . S
O177 H149 0.854 . S
O177 C221 1.297 . S
C178 C179 1.404 . S
C178 C183 1.397 . S
C178 C184 1.492 . S
C179 C178 1.404 . S
C179 C180 1.396 . S
C179 C190 1.492 . S
C180 C179 1.396 . S
C180 C181 1.397 . S
C180 C196 1.509 . S
C181 C180 1.397 . S
C181 C182 1.412 . S
C181 C202 1.485 . S
C182 C181 1.412 . S
C182 C183 1.388 . S
C182 C208 1.490 . S
C183 C178 1.397 . S
C183 C182 1.388 . S
C183 C214 1.519 . S
C184 C178 1.492 . S
C184 C185 1.363 . S
C184 C189 1.390 . S
C185 H150 0.930 . S
C185 C184 1.363 . S
C185 C186 1.372 . S
C186 H151 0.930 . S
C186 C185 1.372 . S
C186 C187 1.383 . S
C187 C186 1.383 . S
C187 C188 1.395 . S
C188 H152 0.930 . S
C188 C187 1.395 . S
C188 C189 1.362 . S
C189 H153 0.930 . S
C189 C184 1.390 . S
C189 C188 1.362 . S
C190 C179 1.492 . S
C190 C191 1.377 . S
C190 C195 1.397 . S
C191 H154 0.931 . S
C191 C190 1.377 . S
C191 C192 1.376 . S
C192 H155 0.930 . S
C192 C191 1.376 . S
C192 C193 1.376 . S
C193 C192 1.376 . S
C193 C194 1.378 . S
C193 C220 1.486 . S
C194 H156 0.930 . S
C194 C193 1.378 . S
C194 C195 1.376 . S
C195 H157 0.929 . S
C195 C190 1.397 . S
C195 C194 1.376 . S
C196 C180 1.509 . S
C196 C197 1.391 . S
C196 C201 1.386 . S
C197 H158 0.930 . S
C197 C196 1.391 . S
C197 C198 1.375 . S
C198 H159 0.931 . S
C198 C197 1.375 . S
C198 C199 1.375 . S
C199 C198 1.375 . S
C199 C200 1.361 . S
C200 H160 0.930 . S
C200 C199 1.361 . S
C200 C201 1.399 . S
C201 H161 0.929 . S
C201 C196 1.386 . S
C201 C200 1.399 . S
C202 C181 1.485 . S
C202 C203 1.394 . S
C202 C207 1.360 . S
C203 H162 0.931 . S
C203 C202 1.394 . S
C203 C204 1.372 . S
C204 H163 0.930 . S
C204 C203 1.372 . S
C204 C205 1.397 . S
C205 C204 1.397 . S
C205 C206 1.390 . S
C205 C221 1.476 . S
C206 H164 0.930 . S
C206 C205 1.390 . S
C206 C207 1.366 . S
C207 H165 0.932 . S
C207 C202 1.360 . S
C207 C206 1.366 . S
C208 C182 1.490 . S
C208 C209 1.380 . S
C208 C213 1.386 . S
C209 H166 0.930 . S
C209 C208 1.380 . S
C209 C210 1.381 . S
C210 H167 0.929 . S
C210 C209 1.381 . S
C210 C211 1.371 . S
C211 C210 1.371 . S
C211 C212 1.380 . S
C212 H168 0.931 . S
C212 C211 1.380 . S
C212 C213 1.387 . S
C213 H169 0.930 . S
C213 C208 1.386 . S
C213 C212 1.387 . S
C214 C183 1.519 . S
C214 C215 1.377 . S
C214 C219 1.361 . S
C215 H170 0.929 . S
C215 C214 1.377 . S
C215 C216 1.386 . S
C216 H171 0.931 . S
C216 C215 1.386 . S
C216 C217 1.363 . S
C217 C216 1.363 . S
C217 C218 1.385 . S
C218 H172 0.930 . S
C218 C217 1.385 . S
C218 C219 1.396 . S
C219 H173 0.929 . S
C219 C214 1.361 . S
C219 C218 1.396 . S
C220 O174 1.300 . S
C220 O175 1.209 . S
C220 C193 1.486 . S
C221 O176 1.199 . S
C221 O177 1.297 . S
C221 C205 1.476 . S
H222 O248 0.856 . S
H223 O251 0.854 . S
H224 C259 0.930 1_455 S
H225 C260 0.930 . S
H226 C262 0.930 . S
H227 C263 0.930 . S
H228 C265 0.931 . S
H229 C266 0.930 . S
H230 C268 0.930 . S
H231 C269 0.929 . S
H232 C271 0.930 . S
H233 C272 0.931 . S
H234 C274 0.930 . S
H235 C275 0.929 . S
H236 C277 0.931 . S
H237 C278 0.930 . S
H238 C280 0.930 . S
H239 C281 0.932 . S
H240 C283 0.930 . S
H241 C284 0.929 . S
H242 C286 0.931 . S
H243 C287 0.930 . S
H244 C289 0.929 . S
H245 C290 0.931 . S
H246 C292 0.930 . S
H247 C293 0.929 . S
O248 H222 0.856 . S
O248 C294 1.300 . S
O249 C294 1.209 . S
O250 C295 1.199 . S
O251 H223 0.854 . S
O251 C295 1.297 . S
C252 C253 1.404 . S
C252 C257 1.397 . S
C252 C258 1.492 1_455 S
C253 C252 1.404 . S
C253 C254 1.396 . S
C253 C264 1.492 . S
C254 C253 1.396 . S
C254 C255 1.397 . S
C254 C270 1.509 . S
C255 C254 1.397 . S
C255 C256 1.412 . S
C255 C276 1.485 . S
C256 C255 1.412 . S
C256 C257 1.388 . S
C256 C282 1.490 . S
C257 C252 1.397 . S
C257 C256 1.388 . S
C257 C288 1.519 1_455 S
C258 C252 1.492 1_655 S
C258 C259 1.363 . S
C258 C263 1.390 . S
C259 H224 0.930 1_655 S
C259 C258 1.363 . S
C259 C260 1.372 . S
C260 H225 0.930 . S
C260 C259 1.372 . S
C260 C261 1.383 . S
C261 C260 1.383 . S
C261 C262 1.395 . S
C262 H226 0.930 . S
C262 C261 1.395 . S
C262 C263 1.362 . S
C263 H227 0.930 . S
C263 C258 1.390 . S
C263 C262 1.362 . S
C264 C253 1.492 . S
C264 C265 1.377 . S
C264 C269 1.397 . S
C265 H228 0.931 . S
C265 C264 1.377 . S
C265 C266 1.376 . S
C266 H229 0.930 . S
C266 C265 1.376 . S
C266 C267 1.376 . S
C267 C266 1.376 . S
C267 C268 1.378 . S
C267 C294 1.486 . S
C268 H230 0.930 . S
C268 C267 1.378 . S
C268 C269 1.376 . S
C269 H231 0.929 . S
C269 C264 1.397 . S
C269 C268 1.376 . S
C270 C254 1.509 . S
C270 C271 1.391 . S
C270 C275 1.386 . S
C271 H232 0.930 . S
C271 C270 1.391 . S
C271 C272 1.375 . S
C272 H233 0.931 . S
C272 C271 1.375 . S
C272 C273 1.375 . S
C273 C272 1.375 . S
C273 C274 1.361 . S
C274 H234 0.930 . S
C274 C273 1.361 . S
C274 C275 1.399 . S
C275 H235 0.929 . S
C275 C270 1.386 . S
C275 C274 1.399 . S
C276 C255 1.485 . S
C276 C277 1.394 . S
C276 C281 1.360 . S
C277 H236 0.931 . S
C277 C276 1.394 . S
C277 C278 1.372 . S
C278 H237 0.930 . S
C278 C277 1.372 . S
C278 C279 1.397 . S
C279 C278 1.397 . S
C279 C280 1.390 . S
C279 C295 1.476 . S
C280 H238 0.930 . S
C280 C279 1.390 . S
C280 C281 1.366 . S
C281 H239 0.932 . S
C281 C276 1.360 . S
C281 C280 1.366 . S
C282 C256 1.490 . S
C282 C283 1.380 . S
C282 C287 1.386 . S
C283 H240 0.930 . S
C283 C282 1.380 . S
C283 C284 1.381 . S
C284 H241 0.929 . S
C284 C283 1.381 . S
C284 C285 1.371 . S
C285 C284 1.371 . S
C285 C286 1.380 . S
C286 H242 0.931 . S
C286 C285 1.380 . S
C286 C287 1.387 . S
C287 H243 0.930 . S
C287 C282 1.386 . S
C287 C286 1.387 . S
C288 C257 1.519 1_655 S
C288 C289 1.377 . S
C288 C293 1.361 . S
C289 H244 0.929 . S
C289 C288 1.377 . S
C289 C290 1.386 . S
C290 H245 0.931 . S
C290 C289 1.386 . S
C290 C291 1.363 . S
C291 C290 1.363 . S
C291 C292 1.385 . S
C292 H246 0.930 . S
C292 C291 1.385 . S
C292 C293 1.396 . S
C293 H247 0.929 . S
C293 C288 1.361 . S
C293 C292 1.396 . S
C294 O248 1.300 . S
C294 O249 1.209 . S
C294 C267 1.486 . S
C295 O250 1.199 . S
C295 O251 1.297 . S
C295 C279 1.476 . S
H296 O322 0.856 . S
H297 O325 0.854 . S
H298 C333 0.930 . S
H299 C334 0.930 . S
H300 C336 0.930 . S
H301 C337 0.930 . S
H302 C339 0.931 . S
H303 C340 0.930 . S
H304 C342 0.930 . S
H305 C343 0.929 . S
H306 C345 0.930 . S
H307 C346 0.931 . S
H308 C348 0.930 . S
H309 C349 0.929 . S
H310 C351 0.931 . S
H311 C352 0.930 . S
H312 C354 0.930 . S
H313 C355 0.932 . S
H314 C357 0.930 . S
H315 C358 0.929 1_545 S
H316 C360 0.931 . S
H317 C361 0.930 . S
H318 C363 0.929 1_556 S
H319 C364 0.931 . S
H320 C366 0.930 . S
H321 C367 0.929 . S
O322 H296 0.856 . S
O322 C368 1.300 . S
O323 C368 1.209 . S
O324 C369 1.199 . S
O325 H297 0.854 . S
O325 C369 1.297 . S
C326 C327 1.389 1_545 S
C326 C331 1.398 . S
C326 C332 1.505 . S
C327 C326 1.389 1_565 S
C327 C328 1.396 . S
C327 C338 1.492 . S
C328 C327 1.396 . S
C328 C329 1.397 . S
C328 C344 1.509 . S
C329 C328 1.397 . S
C329 C330 1.412 1_556 S
C329 C350 1.485 1_556 S
C330 C329 1.412 1_554 S
C330 C331 1.388 1_564 S
C330 C356 1.490 . S
C331 C326 1.398 . S
C331 C330 1.388 1_546 S
C331 C362 1.519 1_556 S
C332 C326 1.505 . S
C332 C333 1.363 . S
C332 C337 1.390 . S
C333 H298 0.930 . S
C333 C332 1.363 . S
C333 C334 1.372 . S
C334 H299 0.930 . S
C334 C333 1.372 . S
C334 C335 1.383 . S
C335 C334 1.383 . S
C335 C336 1.395 . S
C336 H300 0.930 . S
C336 C335 1.395 . S
C336 C337 1.362 . S
C337 H301 0.930 . S
C337 C332 1.390 . S
C337 C336 1.362 . S
C338 C327 1.492 . S
C338 C339 1.377 . S
C338 C343 1.397 . S
C339 H302 0.931 . S
C339 C338 1.377 . S
C339 C340 1.376 . S
C340 H303 0.930 . S
C340 C339 1.376 . S
C340 C341 1.376 . S
C341 C340 1.376 . S
C341 C342 1.378 . S
C341 C368 1.486 . S
C342 H304 0.930 . S
C342 C341 1.378 . S
C342 C343 1.376 . S
C343 H305 0.929 . S
C343 C338 1.397 . S
C343 C342 1.376 . S
C344 C328 1.509 . S
C344 C345 1.391 . S
C344 C349 1.386 . S
C345 H306 0.930 . S
C345 C344 1.391 . S
C345 C346 1.375 . S
C346 H307 0.931 . S
C346 C345 1.375 . S
C346 C347 1.375 . S
C347 C346 1.375 . S
C347 C348 1.361 . S
C348 H308 0.930 . S
C348 C347 1.361 . S
C348 C349 1.399 . S
C349 H309 0.929 . S
C349 C344 1.386 . S
C349 C348 1.399 . S
C350 C329 1.485 1_554 S
C350 C351 1.394 . S
C350 C355 1.360 . S
C351 H310 0.931 . S
C351 C350 1.394 . S
C351 C352 1.372 . S
C352 H311 0.930 . S
C352 C351 1.372 . S
C352 C353 1.397 . S
C353 C352 1.397 . S
C353 C354 1.390 . S
C353 C369 1.476 . S
C354 H312 0.930 . S
C354 C353 1.390 . S
C354 C355 1.366 . S
C355 H313 0.932 . S
C355 C350 1.360 . S
C355 C354 1.366 . S
C356 C330 1.490 . S
C356 C357 1.380 . S
C356 C361 1.386 . S
C357 H314 0.930 . S
C357 C356 1.380 . S
C357 C358 1.381 . S
C358 H315 0.929 1_565 S
C358 C357 1.381 . S
C358 C359 1.371 . S
C359 C358 1.371 . S
C359 C360 1.380 . S
C360 H316 0.931 . S
C360 C359 1.380 . S
C360 C361 1.387 . S
C361 H317 0.930 . S
C361 C356 1.386 . S
C361 C360 1.387 . S
C362 C331 1.519 1_554 S
C362 C363 1.377 . S
C362 C367 1.361 . S
C363 H318 0.929 1_554 S
C363 C362 1.377 . S
C363 C364 1.386 . S
C364 H319 0.931 . S
C364 C363 1.386 . S
C364 C365 1.363 . S
C365 C364 1.363 . S
C365 C366 1.385 . S
C366 H320 0.930 . S
C366 C365 1.385 . S
C366 C367 1.396 . S
C367 H321 0.929 . S
C367 C362 1.361 . S
C367 C366 1.396 . S
C368 O322 1.300 . S
C368 O323 1.209 . S
C368 C341 1.486 . S
C369 O324 1.199 . S
C369 O325 1.297 . S
C369 C353 1.476 . S
H370 O396 0.856 1_556 S
H371 O399 0.854 . S
H372 C407 0.930 . S
H373 C408 0.930 . S
H374 C410 0.930 . S
H375 C411 0.930 . S
H376 C413 0.931 . S
H377 C414 0.930 . S
H378 C416 0.930 . S
H379 C417 0.929 . S
H380 C419 0.930 . S
H381 C420 0.931 . S
H382 C422 0.930 . S
H383 C423 0.929 . S
H384 C425 0.931 . S
H385 C426 0.930 . S
H386 C428 0.930 . S
H387 C429 0.932 . S
H388 C431 0.930 . S
H389 C432 0.929 . S
H390 C434 0.931 . S
H391 C435 0.930 . S
H392 C437 0.929 . S
H393 C438 0.931 . S
H394 C440 0.930 . S
H395 C441 0.929 . S
O396 H370 0.856 1_554 S
O396 C442 1.300 . S
O397 C442 1.209 . S
O398 C443 1.199 . S
O399 H371 0.854 . S
O399 C443 1.297 . S
C400 C401 1.404 . S
C400 C405 1.397 . S
C400 C406 1.492 . S
C401 C400 1.404 . S
C401 C402 1.396 . S
C401 C412 1.492 . S
C402 C401 1.396 . S
C402 C403 1.397 . S
C402 C418 1.509 . S
C403 C402 1.397 . S
C403 C404 1.412 . S
C403 C424 1.485 . S
C404 C403 1.412 . S
C404 C405 1.388 . S
C404 C430 1.490 . S
C405 C400 1.397 . S
C405 C404 1.388 . S
C405 C436 1.519 . S
C406 C400 1.492 . S
C406 C407 1.363 . S
C406 C411 1.390 . S
C407 H372 0.930 . S
C407 C406 1.363 . S
C407 C408 1.372 . S
C408 H373 0.930 . S
C408 C407 1.372 . S
C408 C409 1.383 . S
C409 C408 1.383 . S
C409 C410 1.395 . S
C410 H374 0.930 . S
C410 C409 1.395 . S
C410 C411 1.362 . S
C411 H375 0.930 . S
C411 C406 1.390 . S
C411 C410 1.362 . S
C412 C401 1.492 . S
C412 C413 1.377 . S
C412 C417 1.397 . S
C413 H376 0.931 . S
C413 C412 1.377 . S
C413 C414 1.376 . S
C414 H377 0.930 . S
C414 C413 1.376 . S
C414 C415 1.376 . S
C415 C414 1.376 . S
C415 C416 1.378 . S
C415 C442 1.486 . S
C416 H378 0.930 . S
C416 C415 1.378 . S
C416 C417 1.376 . S
C417 H379 0.929 . S
C417 C412 1.397 . S
C417 C416 1.376 . S
C418 C402 1.509 . S
C418 C419 1.391 . S
C418 C423 1.386 . S
C419 H380 0.930 . S
C419 C418 1.391 . S
C419 C420 1.375 . S
C420 H381 0.931 . S
C420 C419 1.375 . S
C420 C421 1.375 . S
C421 C420 1.375 . S
C421 C422 1.361 . S
C422 H382 0.930 . S
C422 C421 1.361 . S
C422 C423 1.399 . S
C423 H383 0.929 . S
C423 C418 1.386 . S
C423 C422 1.399 . S
C424 C403 1.485 . S
C424 C425 1.394 . S
C424 C429 1.360 . S
C425 H384 0.931 . S
C425 C424 1.394 . S
C425 C426 1.372 . S
C426 H385 0.930 . S
C426 C425 1.372 . S
C426 C427 1.397 . S
C427 C426 1.397 . S
C427 C428 1.390 . S
C427 C443 1.476 . S
C428 H386 0.930 . S
C428 C427 1.390 . S
C428 C429 1.366 . S
C429 H387 0.932 . S
C429 C424 1.360 . S
C429 C428 1.366 . S
C430 C404 1.490 . S
C430 C431 1.380 . S
C430 C435 1.386 . S
C431 H388 0.930 . S
C431 C430 1.380 . S
C431 C432 1.381 . S
C432 H389 0.929 . S
C432 C431 1.381 . S
C432 C433 1.371 . S
C433 C432 1.371 . S
C433 C434 1.380 . S
C434 H390 0.931 . S
C434 C433 1.380 . S
C434 C435 1.387 . S
C435 H391 0.930 . S
C435 C430 1.386 . S
C435 C434 1.387 . S
C436 C405 1.519 . S
C436 C437 1.377 . S
C436 C441 1.361 . S
C437 H392 0.929 . S
C437 C436 1.377 . S
C437 C438 1.386 . S
C438 H393 0.931 . S
C438 C437 1.386 . S
C438 C439 1.363 . S
C439 C438 1.363 . S
C439 C440 1.385 . S
C440 H394 0.930 . S
C440 C439 1.385 . S
C440 C441 1.396 . S
C441 H395 0.929 . S
C441 C436 1.361 . S
C441 C440 1.396 . S
C442 O396 1.300 . S
C442 O397 1.209 . S
C442 C415 1.486 . S
C443 O398 1.199 . S
C443 O399 1.297 . S
C443 C427 1.476 . S
C444 O445 1.306 . S
C444 O447 1.160 . S
O445 C444 1.306 . S
O445 Cd446 2.228 . S
Cd446 O445 2.228 . S
Cd446 O450 2.273 . S
Cd446 O454 2.277 . S
O447 C444 1.160 . S
O447 Cd448 2.203 . S
Cd448 O447 2.203 . S
Cd448 O450 2.411 . S
Cd448 O451 2.333 . S
Cd448 O452 2.352 . S
Cd448 O456 2.277 . S
Cd448 O457 2.356 . S
C449 O454 1.209 . S
C449 O456 1.226 . S
O450 Cd446 2.273 . S
O450 Cd448 2.411 . S
O450 C453 1.320 . S
O451 Cd448 2.333 . S
O451 C453 1.214 . S
O452 Cd448 2.352 . S
O452 C455 1.258 . S
C453 O450 1.320 . S
C453 O451 1.214 . S
O454 Cd446 2.277 . S
O454 C449 1.209 . S
C455 O452 1.258 . S
C455 O457 1.282 . S
O456 Cd448 2.277 . S
O456 C449 1.226 . S
O457 Cd448 2.356 . S
O457 C455 1.282 . S
C458 O459 1.306 . S
C458 O461 1.160 . S
O459 C458 1.306 . S
O459 Cd460 2.228 . S
Cd460 O459 2.228 . S
Cd460 O464 2.273 . S
Cd460 O468 2.277 . S
O461 C458 1.160 . S
O461 Cd462 2.203 . S
Cd462 O461 2.203 . S
Cd462 O464 2.411 . S
Cd462 O465 2.333 . S
Cd462 O466 2.352 . S
Cd462 O470 2.277 . S
Cd462 O471 2.356 . S
C463 O468 1.209 . S
C463 O470 1.226 . S
O464 Cd460 2.273 . S
O464 Cd462 2.411 . S
O464 C467 1.320 . S
O465 Cd462 2.333 . S
O465 C467 1.214 . S
O466 Cd462 2.352 . S
O466 C469 1.258 . S
C467 O464 1.320 . S
C467 O465 1.214 . S
O468 Cd460 2.277 . S
O468 C463 1.209 . S
C469 O466 1.258 . S
C469 O471 1.282 . S
O470 Cd462 2.277 . S
O470 C463 1.226 . S
O471 Cd462 2.356 . S
O471 C469 1.282 . S
C472 O473 1.306 . S
C472 O475 1.160 . S
O473 C472 1.306 . S
O473 Cd474 2.228 . S
Cd474 O473 2.228 . S
Cd474 O478 2.273 . S
Cd474 O482 2.277 . S
O475 C472 1.160 . S
O475 Cd476 2.203 . S
Cd476 O475 2.203 . S
Cd476 O478 2.411 . S
Cd476 O479 2.333 . S
Cd476 O480 2.352 . S
Cd476 O484 2.277 . S
Cd476 O485 2.356 . S
C477 O482 1.209 . S
C477 O484 1.226 . S
O478 Cd474 2.273 . S
O478 Cd476 2.411 . S
O478 C481 1.320 . S
O479 Cd476 2.333 . S
O479 C481 1.214 . S
O480 Cd476 2.352 . S
O480 C483 1.258 . S
C481 O478 1.320 . S
C481 O479 1.214 . S
O482 Cd474 2.277 . S
O482 C477 1.209 . S
C483 O480 1.258 . S
C483 O485 1.282 . S
O484 Cd476 2.277 . S
O484 C477 1.226 . S
O485 Cd476 2.356 . S
O485 C483 1.282 . S
C486 O487 1.306 . S
C486 O489 1.160 . S
O487 C486 1.306 . S
O487 Cd488 2.228 . S
Cd488 O487 2.228 . S
Cd488 O492 2.273 . S
Cd488 O496 2.277 . S
O489 C486 1.160 . S
O489 Cd490 2.203 . S
Cd490 O489 2.203 . S
Cd490 O492 2.411 . S
Cd490 O493 2.333 . S
Cd490 O494 2.352 . S
Cd490 O498 2.277 . S
Cd490 O499 2.356 . S
C491 O496 1.209 . S
C491 O498 1.226 . S
O492 Cd488 2.273 . S
O492 Cd490 2.411 . S
O492 C495 1.320 . S
O493 Cd490 2.333 . S
O493 C495 1.214 . S
O494 Cd490 2.352 . S
O494 C497 1.258 . S
C495 O492 1.320 . S
C495 O493 1.214 . S
O496 Cd488 2.277 . S
O496 C491 1.209 . S
C497 O494 1.258 . S
C497 O499 1.282 . S
O498 Cd490 2.277 . S
O498 C491 1.226 . S
O499 Cd490 2.356 . S
O499 C497 1.282 . S
C500 O501 1.306 . S
C500 O503 1.160 . S
O501 C500 1.306 . S
O501 Cd502 2.228 . S
Cd502 O501 2.228 . S
Cd502 O506 2.273 . S
Cd502 O510 2.277 . S
O503 C500 1.160 . S
O503 Cd504 2.203 . S
Cd504 O503 2.203 . S
Cd504 O506 2.411 . S
Cd504 O507 2.333 . S
Cd504 O508 2.352 . S
Cd504 O512 2.277 . S
Cd504 O513 2.356 . S
C505 O510 1.209 . S
C505 O512 1.226 . S
O506 Cd502 2.273 . S
O506 Cd504 2.411 . S
O506 C509 1.320 . S
O507 Cd504 2.333 . S
O507 C509 1.214 . S
O508 Cd504 2.352 . S
O508 C511 1.258 . S
C509 O506 1.320 . S
C509 O507 1.214 . S
O510 Cd502 2.277 . S
O510 C505 1.209 . S
C511 O508 1.258 . S
C511 O513 1.282 . S
O512 Cd504 2.277 . S
O512 C505 1.226 . S
O513 Cd504 2.356 . S
O513 C511 1.282 . S
C514 O515 1.306 . S
C514 O517 1.160 . S
O515 C514 1.306 . S
O515 Cd516 2.228 . S
Cd516 O515 2.228 . S
Cd516 O520 2.273 . S
Cd516 O524 2.277 . S
O517 C514 1.160 . S
O517 Cd518 2.203 . S
Cd518 O517 2.203 . S
Cd518 O520 2.411 . S
Cd518 O521 2.333 . S
Cd518 O522 2.352 . S
Cd518 O526 2.277 . S
Cd518 O527 2.356 . S
C519 O524 1.209 . S
C519 O526 1.226 . S
O520 Cd516 2.273 . S
O520 Cd518 2.411 . S
O520 C523 1.320 . S
O521 Cd518 2.333 . S
O521 C523 1.214 . S
O522 Cd518 2.352 . S
O522 C525 1.258 . S
C523 O520 1.320 . S
C523 O521 1.214 . S
O524 Cd516 2.277 . S
O524 C519 1.209 . S
C525 O522 1.258 . S
C525 O527 1.282 . S
O526 Cd518 2.277 . S
O526 C519 1.226 . S
O527 Cd518 2.356 . S
O527 C525 1.282 . S
H528 C540 0.930 . S
H529 C542 0.930 . S
H530 C543 0.930 . S
H531 C547 0.959 . S
H532 C547 0.959 . S
H533 C547 0.961 . S
H534 C548 0.960 . S
H535 C548 0.961 . S
H536 C548 0.959 . S
H537 C551 0.929 . S
H538 C552 0.931 . S
H539 C554 0.930 . S
C540 H528 0.930 . S
C540 C541 1.399 . S
C540 C545 1.399 . S
C541 C540 1.399 . S
C541 C542 1.376 . S
C542 H529 0.930 . S
C542 C541 1.376 . S
C542 C543 1.388 . S
C543 H530 0.930 . S
C543 C542 1.388 . S
C543 C544 1.390 . S
C544 C543 1.390 . S
C544 C545 1.394 . S
C544 C550 1.465 . S
C545 C540 1.399 . S
C545 C544 1.394 . S
C545 C546 1.516 . S
C546 C545 1.516 . S
C546 C547 1.502 . S
C546 C548 1.561 . S
C546 C549 1.526 . S
C547 H531 0.959 . S
C547 H532 0.959 . S
C547 H533 0.961 . S
C547 C546 1.502 . S
C548 H534 0.960 . S
C548 H535 0.961 . S
C548 H536 0.959 . S
C548 C546 1.561 . S
C549 C546 1.526 . S
C549 C550 1.396 . S
C549 C554 1.390 . S
C550 C544 1.465 . S
C550 C549 1.396 . S
C550 C551 1.399 . S
C551 H537 0.929 . S
C551 C550 1.399 . S
C551 C552 1.385 . S
C552 H538 0.931 . S
C552 C551 1.385 . S
C552 C553 1.389 . S
C553 C552 1.389 . S
C553 C554 1.387 . S
C554 H539 0.930 . S
C554 C549 1.390 . S
C554 C553 1.387 . S
H555 C567 0.930 . S
H556 C569 0.930 . S
H557 C570 0.930 . S
H558 C574 0.959 . S
H559 C574 0.959 . S
H560 C574 0.961 . S
H561 C575 0.960 . S
H562 C575 0.961 . S
H563 C575 0.959 . S
H564 C578 0.929 . S
H565 C579 0.931 . S
H566 C581 0.930 . S
C567 H555 0.930 . S
C567 C568 1.399 . S
C567 C572 1.399 . S
C568 C567 1.399 . S
C568 C569 1.376 . S
C569 H556 0.930 . S
C569 C568 1.376 . S
C569 C570 1.388 . S
C570 H557 0.930 . S
C570 C569 1.388 . S
C570 C571 1.390 . S
C571 C570 1.390 . S
C571 C572 1.394 . S
C571 C577 1.465 . S
C572 C567 1.399 . S
C572 C571 1.394 . S
C572 C573 1.516 . S
C573 C572 1.516 . S
C573 C574 1.502 . S
C573 C575 1.561 . S
C573 C576 1.526 . S
C574 H558 0.959 . S
C574 H559 0.959 . S
C574 H560 0.961 . S
C574 C573 1.502 . S
C575 H561 0.960 . S
C575 H562 0.961 . S
C575 H563 0.959 . S
C575 C573 1.561 . S
C576 C573 1.526 . S
C576 C577 1.396 . S
C576 C581 1.390 . S
C577 C571 1.465 . S
C577 C576 1.396 . S
C577 C578 1.399 . S
C578 H564 0.929 . S
C578 C577 1.399 . S
C578 C579 1.385 . S
C579 H565 0.931 . S
C579 C578 1.385 . S
C579 C580 1.389 . S
C580 C579 1.389 . S
C580 C581 1.387 . S
C581 H566 0.930 . S
C581 C576 1.390 . S
C581 C580 1.387 . S
H582 C594 0.930 . S
H583 C596 0.930 . S
H584 C597 0.930 . S
H585 C601 0.959 . S
H586 C601 0.959 . S
H587 C601 0.961 . S
H588 C602 0.960 . S
H589 C602 0.961 . S
H590 C602 0.959 . S
H591 C605 0.929 . S
H592 C606 0.931 . S
H593 C608 0.930 . S
C594 H582 0.930 . S
C594 C595 1.399 . S
C594 C599 1.399 . S
C595 C594 1.399 . S
C595 C596 1.376 . S
C596 H583 0.930 . S
C596 C595 1.376 . S
C596 C597 1.388 . S
C597 H584 0.930 . S
C597 C596 1.388 . S
C597 C598 1.390 . S
C598 C597 1.390 . S
C598 C599 1.394 . S
C598 C604 1.465 . S
C599 C594 1.399 . S
C599 C598 1.394 . S
C599 C600 1.516 . S
C600 C599 1.516 . S
C600 C601 1.502 . S
C600 C602 1.561 . S
C600 C603 1.526 . S
C601 H585 0.959 . S
C601 H586 0.959 . S
C601 H587 0.961 . S
C601 C600 1.502 . S
C602 H588 0.960 . S
C602 H589 0.961 . S
C602 H590 0.959 . S
C602 C600 1.561 . S
C603 C600 1.526 . S
C603 C604 1.396 . S
C603 C608 1.390 . S
C604 C598 1.465 . S
C604 C603 1.396 . S
C604 C605 1.399 . S
C605 H591 0.929 . S
C605 C604 1.399 . S
C605 C606 1.385 . S
C606 H592 0.931 . S
C606 C605 1.385 . S
C606 C607 1.389 . S
C607 C606 1.389 . S
C607 C608 1.387 . S
C608 H593 0.930 . S
C608 C603 1.390 . S
C608 C607 1.387 . S
H609 C621 0.930 . S
H610 C623 0.930 . S
H611 C624 0.930 . S
H612 C628 0.959 . S
H613 C628 0.959 . S
H614 C628 0.961 . S
H615 C629 0.960 . S
H616 C629 0.961 . S
H617 C629 0.959 . S
H618 C632 0.929 . S
H619 C633 0.931 . S
H620 C635 0.930 . S
C621 H609 0.930 . S
C621 C622 1.399 . S
C621 C626 1.399 . S
C622 C621 1.399 . S
C622 C623 1.376 . S
C623 H610 0.930 . S
C623 C622 1.376 . S
C623 C624 1.388 . S
C624 H611 0.930 . S
C624 C623 1.388 . S
C624 C625 1.390 . S
C625 C624 1.390 . S
C625 C626 1.394 . S
C625 C631 1.465 . S
C626 C621 1.399 . S
C626 C625 1.394 . S
C626 C627 1.516 . S
C627 C626 1.516 . S
C627 C628 1.502 . S
C627 C629 1.561 . S
C627 C630 1.526 . S
C628 H612 0.959 . S
C628 H613 0.959 . S
C628 H614 0.961 . S
C628 C627 1.502 . S
C629 H615 0.960 . S
C629 H616 0.961 . S
C629 H617 0.959 . S
C629 C627 1.561 . S
C630 C627 1.526 . S
C630 C631 1.396 . S
C630 C635 1.390 . S
C631 C625 1.465 . S
C631 C630 1.396 . S
C631 C632 1.399 . S
C632 H618 0.929 . S
C632 C631 1.399 . S
C632 C633 1.385 . S
C633 H619 0.931 . S
C633 C632 1.385 . S
C633 C634 1.389 . S
C634 C633 1.389 . S
C634 C635 1.387 . S
C635 H620 0.930 . S
C635 C630 1.390 . S
C635 C634 1.387 . S
H636 C648 0.930 . S
H637 C650 0.930 . S
H638 C651 0.930 . S
H639 C655 0.959 . S
H640 C655 0.959 . S
H641 C655 0.961 . S
H642 C656 0.960 . S
H643 C656 0.961 . S
H644 C656 0.959 . S
H645 C659 0.929 . S
H646 C660 0.931 . S
H647 C662 0.930 . S
C648 H636 0.930 . S
C648 C649 1.399 . S
C648 C653 1.399 . S
C649 C648 1.399 . S
C649 C650 1.376 . S
C650 H637 0.930 . S
C650 C649 1.376 . S
C650 C651 1.388 . S
C651 H638 0.930 . S
C651 C650 1.388 . S
C651 C652 1.390 . S
C652 C651 1.390 . S
C652 C653 1.394 . S
C652 C658 1.465 . S
C653 C648 1.399 . S
C653 C652 1.394 . S
C653 C654 1.516 . S
C654 C653 1.516 . S
C654 C655 1.502 . S
C654 C656 1.561 . S
C654 C657 1.526 . S
C655 H639 0.959 . S
C655 H640 0.959 . S
C655 H641 0.961 . S
C655 C654 1.502 . S
C656 H642 0.960 . S
C656 H643 0.961 . S
C656 H644 0.959 . S
C656 C654 1.561 . S
C657 C654 1.526 . S
C657 C658 1.396 . S
C657 C662 1.390 . S
C658 C652 1.465 . S
C658 C657 1.396 . S
C658 C659 1.399 . S
C659 H645 0.929 . S
C659 C658 1.399 . S
C659 C660 1.385 . S
C660 H646 0.931 . S
C660 C659 1.385 . S
C660 C661 1.389 . S
C661 C660 1.389 . S
C661 C662 1.387 . S
C662 H647 0.930 . S
C662 C657 1.390 . S
C662 C661 1.387 . S
H663 C675 0.930 . S
H664 C677 0.930 . S
H665 C678 0.930 . S
H666 C682 0.959 . S
H667 C682 0.959 . S
H668 C682 0.961 . S
H669 C683 0.960 . S
H670 C683 0.961 . S
H671 C683 0.959 . S
H672 C686 0.929 . S
H673 C687 0.931 . S
H674 C689 0.930 . S
C675 H663 0.930 . S
C675 C676 1.399 . S
C675 C680 1.399 . S
C676 C675 1.399 . S
C676 C677 1.376 . S
C677 H664 0.930 . S
C677 C676 1.376 . S
C677 C678 1.388 . S
C678 H665 0.930 . S
C678 C677 1.388 . S
C678 C679 1.390 . S
C679 C678 1.390 . S
C679 C680 1.394 . S
C679 C685 1.465 . S
C680 C675 1.399 . S
C680 C679 1.394 . S
C680 C681 1.516 . S
C681 C680 1.516 . S
C681 C682 1.502 . S
C681 C683 1.561 . S
C681 C684 1.526 . S
C682 H666 0.959 . S
C682 H667 0.959 . S
C682 H668 0.961 . S
C682 C681 1.502 . S
C683 H669 0.960 . S
C683 H670 0.961 . S
C683 H671 0.959 . S
C683 C681 1.561 . S
C684 C681 1.526 . S
C684 C685 1.396 . S
C684 C689 1.390 . S
C685 C679 1.465 . S
C685 C684 1.396 . S
C685 C686 1.399 . S
C686 H672 0.929 . S
C686 C685 1.399 . S
C686 C687 1.385 . S
C687 H673 0.931 . S
C687 C686 1.385 . S
C687 C688 1.389 . S
C688 C687 1.389 . S
C688 C689 1.387 . S
C689 H674 0.930 . S
C689 C684 1.390 . S
C689 C688 1.387 . S
H690 C702 0.930 . S
H691 C704 0.930 . S
H692 C705 0.930 . S
H693 C709 0.959 . S
H694 C709 0.959 . S
H695 C709 0.961 . S
H696 C710 0.960 . S
H697 C710 0.961 . S
H698 C710 0.959 . S
H699 C713 0.929 . S
H700 C714 0.931 . S
H701 C716 0.930 . S
C702 H690 0.930 . S
C702 C703 1.399 . S
C702 C707 1.399 . S
C703 C702 1.399 . S
C703 C704 1.376 . S
C704 H691 0.930 . S
C704 C703 1.376 . S
C704 C705 1.388 . S
C705 H692 0.930 . S
C705 C704 1.388 . S
C705 C706 1.390 . S
C706 C705 1.390 . S
C706 C707 1.394 . S
C706 C712 1.465 . S
C707 C702 1.399 . S
C707 C706 1.394 . S
C707 C708 1.516 . S
C708 C707 1.516 . S
C708 C709 1.502 . S
C708 C710 1.561 . S
C708 C711 1.526 . S
C709 H693 0.959 . S
C709 H694 0.959 . S
C709 H695 0.961 . S
C709 C708 1.502 . S
C710 H696 0.960 . S
C710 H697 0.961 . S
C710 H698 0.959 . S
C710 C708 1.561 . S
C711 C708 1.526 . S
C711 C712 1.396 . S
C711 C716 1.390 . S
C712 C706 1.465 . S
C712 C711 1.396 . S
C712 C713 1.399 . S
C713 H699 0.929 . S
C713 C712 1.399 . S
C713 C714 1.385 . S
C714 H700 0.931 . S
C714 C713 1.385 . S
C714 C715 1.389 . S
C715 C714 1.389 . S
C715 C716 1.387 . S
C716 H701 0.930 . S
C716 C711 1.390 . S
C716 C715 1.387 . S
H717 C729 0.930 . S
H718 C731 0.930 . S
H719 C732 0.930 . S
H720 C736 0.959 . S
H721 C736 0.959 . S
H722 C736 0.961 . S
H723 C737 0.960 . S
H724 C737 0.961 . S
H725 C737 0.959 . S
H726 C740 0.929 . S
H727 C741 0.931 . S
H728 C743 0.930 . S
C729 H717 0.930 . S
C729 C730 1.399 . S
C729 C734 1.399 . S
C730 C729 1.399 . S
C730 C731 1.376 . S
C731 H718 0.930 . S
C731 C730 1.376 . S
C731 C732 1.388 . S
C732 H719 0.930 . S
C732 C731 1.388 . S
C732 C733 1.390 . S
C733 C732 1.390 . S
C733 C734 1.394 . S
C733 C739 1.465 . S
C734 C729 1.399 . S
C734 C733 1.394 . S
C734 C735 1.516 . S
C735 C734 1.516 . S
C735 C736 1.502 . S
C735 C737 1.561 . S
C735 C738 1.526 . S
C736 H720 0.959 . S
C736 H721 0.959 . S
C736 H722 0.961 . S
C736 C735 1.502 . S
C737 H723 0.960 . S
C737 H724 0.961 . S
C737 H725 0.959 . S
C737 C735 1.561 . S
C738 C735 1.526 . S
C738 C739 1.396 . S
C738 C743 1.390 . S
C739 C733 1.465 . S
C739 C738 1.396 . S
C739 C740 1.399 . S
C740 H726 0.929 . S
C740 C739 1.399 . S
C740 C741 1.385 . S
C741 H727 0.931 . S
C741 C740 1.385 . S
C741 C742 1.389 . S
C742 C741 1.389 . S
C742 C743 1.387 . S
C743 H728 0.930 . S
C743 C738 1.390 . S
C743 C742 1.387 . S
H744 C756 0.930 . S
H745 C758 0.930 . S
H746 C759 0.930 . S
H747 C763 0.959 . S
H748 C763 0.959 . S
H749 C763 0.961 . S
H750 C764 0.960 . S
H751 C764 0.961 . S
H752 C764 0.959 . S
H753 C767 0.929 . S
H754 C768 0.931 . S
H755 C770 0.930 . S
C756 H744 0.930 . S
C756 C757 1.399 . S
C756 C761 1.399 . S
C757 C756 1.399 . S
C757 C758 1.376 . S
C758 H745 0.930 . S
C758 C757 1.376 . S
C758 C759 1.388 . S
C759 H746 0.930 . S
C759 C758 1.388 . S
C759 C760 1.390 . S
C760 C759 1.390 . S
C760 C761 1.394 . S
C760 C766 1.465 . S
C761 C756 1.399 . S
C761 C760 1.394 . S
C761 C762 1.516 . S
C762 C761 1.516 . S
C762 C763 1.502 . S
C762 C764 1.561 . S
C762 C765 1.526 . S
C763 H747 0.959 . S
C763 H748 0.959 . S
C763 H749 0.961 . S
C763 C762 1.502 . S
C764 H750 0.960 . S
C764 H751 0.961 . S
C764 H752 0.959 . S
C764 C762 1.561 . S
C765 C762 1.526 . S
C765 C766 1.396 . S
C765 C770 1.390 . S
C766 C760 1.465 . S
C766 C765 1.396 . S
C766 C767 1.399 . S
C767 H753 0.929 . S
C767 C766 1.399 . S
C767 C768 1.385 . S
C768 H754 0.931 . S
C768 C767 1.385 . S
C768 C769 1.389 . S
C769 C768 1.389 . S
C769 C770 1.387 . S
C770 H755 0.930 . S
C770 C765 1.390 . S
C770 C769 1.387 . S
H771 C783 0.930 . S
H772 C785 0.930 . S
H773 C786 0.930 . S
H774 C790 0.959 . S
H775 C790 0.959 . S
H776 C790 0.961 . S
H777 C791 0.960 . S
H778 C791 0.961 . S
H779 C791 0.959 . S
H780 C794 0.929 . S
H781 C795 0.931 . S
H782 C797 0.930 . S
C783 H771 0.930 . S
C783 C784 1.399 . S
C783 C788 1.399 . S
C784 C783 1.399 . S
C784 C785 1.376 . S
C785 H772 0.930 . S
C785 C784 1.376 . S
C785 C786 1.388 . S
C786 H773 0.930 . S
C786 C785 1.388 . S
C786 C787 1.390 . S
C787 C786 1.390 . S
C787 C788 1.394 . S
C787 C793 1.465 . S
C788 C783 1.399 . S
C788 C787 1.394 . S
C788 C789 1.516 . S
C789 C788 1.516 . S
C789 C790 1.502 1_554 S
C789 C791 1.561 . S
C789 C792 1.526 . S
C790 H774 0.959 . S
C790 H775 0.959 . S
C790 H776 0.961 . S
C790 C789 1.502 1_556 S
C791 H777 0.960 . S
C791 H778 0.961 . S
C791 H779 0.959 . S
C791 C789 1.561 . S
C792 C789 1.526 . S
C792 C793 1.396 . S
C792 C797 1.390 . S
C793 C787 1.465 . S
C793 C792 1.396 . S
C793 C794 1.399 . S
C794 H780 0.929 . S
C794 C793 1.399 . S
C794 C795 1.385 . S
C795 H781 0.931 . S
C795 C794 1.385 . S
C795 C796 1.389 . S
C796 C795 1.389 . S
C796 C797 1.387 . S
C797 H782 0.930 . S
C797 C792 1.390 . S
C797 C796 1.387 . S
H798 C810 0.930 . S
H799 C812 0.930 . S
H800 C813 0.930 . S
H801 C817 0.959 . S
H802 C817 0.959 . S
H803 C817 0.961 . S
H804 C818 0.960 . S
H805 C818 0.961 . S
H806 C818 0.959 . S
H807 C821 0.929 . S
H808 C822 0.931 . S
H809 C824 0.930 . S
C810 H798 0.930 . S
C810 C811 1.399 . S
C810 C815 1.399 . S
C811 C810 1.399 . S
C811 C812 1.376 . S
C812 H799 0.930 . S
C812 C811 1.376 . S
C812 C813 1.388 . S
C813 H800 0.930 . S
C813 C812 1.388 . S
C813 C814 1.390 . S
C814 C813 1.390 . S
C814 C815 1.394 . S
C814 C820 1.465 . S
C815 C810 1.399 . S
C815 C814 1.394 . S
C815 C816 1.516 . S
C816 C815 1.516 . S
C816 C817 1.502 . S
C816 C818 1.561 . S
C816 C819 1.526 . S
C817 H801 0.959 . S
C817 H802 0.959 . S
C817 H803 0.961 . S
C817 C816 1.502 . S
C818 H804 0.960 . S
C818 H805 0.961 . S
C818 H806 0.959 . S
C818 C816 1.561 . S
C819 C816 1.526 . S
C819 C820 1.396 . S
C819 C824 1.390 . S
C820 C814 1.465 . S
C820 C819 1.396 . S
C820 C821 1.399 . S
C821 H807 0.929 . S
C821 C820 1.399 . S
C821 C822 1.385 . S
C822 H808 0.931 . S
C822 C821 1.385 . S
C822 C823 1.389 . S
C823 C822 1.389 . S
C823 C824 1.387 . S
C824 H809 0.930 . S
C824 C819 1.390 . S
C824 C823 1.387 . S
H825 C837 0.930 . S
H826 C839 0.930 . S
H827 C840 0.930 . S
H828 C844 0.959 . S
H829 C844 0.959 . S
H830 C844 0.961 . S
H831 C845 0.960 . S
H832 C845 0.961 . S
H833 C845 0.959 . S
H834 C848 0.929 . S
H835 C849 0.931 . S
H836 C851 0.930 . S
C837 H825 0.930 . S
C837 C838 1.399 . S
C837 C842 1.399 . S
C838 C837 1.399 . S
C838 C839 1.376 . S
C839 H826 0.930 . S
C839 C838 1.376 . S
C839 C840 1.388 . S
C840 H827 0.930 . S
C840 C839 1.388 . S
C840 C841 1.390 . S
C841 C840 1.390 . S
C841 C842 1.394 . S
C841 C847 1.465 . S
C842 C837 1.399 . S
C842 C841 1.394 . S
C842 C843 1.516 . S
C843 C842 1.516 . S
C843 C844 1.502 . S
C843 C845 1.561 . S
C843 C846 1.526 . S
C844 H828 0.959 . S
C844 H829 0.959 . S
C844 H830 0.961 . S
C844 C843 1.502 . S
C845 H831 0.960 . S
C845 H832 0.961 . S
C845 H833 0.959 . S
C845 C843 1.561 . S
C846 C843 1.526 . S
C846 C847 1.396 . S
C846 C851 1.390 . S
C847 C841 1.465 . S
C847 C846 1.396 . S
C847 C848 1.399 . S
C848 H834 0.929 . S
C848 C847 1.399 . S
C848 C849 1.385 . S
C849 H835 0.931 . S
C849 C848 1.385 . S
C849 C850 1.389 . S
C850 C849 1.389 . S
C850 C851 1.387 . S
C851 H836 0.930 . S
C851 C846 1.390 . S
C851 C850 1.387 . S
H852 C864 0.930 . S
H853 C866 0.930 . S
H854 C867 0.930 . S
H855 C871 0.959 . S
H856 C871 0.959 . S
H857 C871 0.961 . S
H858 C872 0.960 . S
H859 C872 0.961 . S
H860 C872 0.959 . S
H861 C875 0.929 . S
H862 C876 0.931 . S
H863 C878 0.930 . S
C864 H852 0.930 . S
C864 C865 1.399 . S
C864 C869 1.399 . S
C865 C864 1.399 . S
C865 C866 1.376 . S
C866 H853 0.930 . S
C866 C865 1.376 . S
C866 C867 1.388 . S
C867 H854 0.930 . S
C867 C866 1.388 . S
C867 C868 1.390 . S
C868 C867 1.390 . S
C868 C869 1.394 . S
C868 C874 1.465 . S
C869 C864 1.399 . S
C869 C868 1.394 . S
C869 C870 1.516 . S
C870 C869 1.516 . S
C870 C871 1.502 . S
C870 C872 1.561 . S
C870 C873 1.526 . S
C871 H855 0.959 . S
C871 H856 0.959 . S
C871 H857 0.961 . S
C871 C870 1.502 . S
C872 H858 0.960 . S
C872 H859 0.961 . S
C872 H860 0.959 . S
C872 C870 1.561 . S
C873 C870 1.526 . S
C873 C874 1.396 . S
C873 C878 1.390 . S
C874 C868 1.465 . S
C874 C873 1.396 . S
C874 C875 1.399 . S
C875 H861 0.929 . S
C875 C874 1.399 . S
C875 C876 1.385 . S
C876 H862 0.931 . S
C876 C875 1.385 . S
C876 C877 1.389 . S
C877 C876 1.389 . S
C877 C878 1.387 . S
C878 H863 0.930 . S
C878 C873 1.390 . S
C878 C877 1.387 . S
H879 C891 0.930 . S
H880 C893 0.930 . S
H881 C894 0.930 . S
H882 C898 0.959 . S
H883 C898 0.959 . S
H884 C898 0.961 . S
H885 C899 0.960 . S
H886 C899 0.961 . S
H887 C899 0.959 . S
H888 C902 0.929 . S
H889 C903 0.931 . S
H890 C905 0.930 . S
C891 H879 0.930 . S
C891 C892 1.399 . S
C891 C896 1.399 . S
C892 C891 1.399 . S
C892 C893 1.376 . S
C893 H880 0.930 . S
C893 C892 1.376 . S
C893 C894 1.388 . S
C894 H881 0.930 . S
C894 C893 1.388 . S
C894 C895 1.390 . S
C895 C894 1.390 . S
C895 C896 1.394 . S
C895 C901 1.465 . S
C896 C891 1.399 . S
C896 C895 1.394 . S
C896 C897 1.516 . S
C897 C896 1.516 . S
C897 C898 1.502 . S
C897 C899 1.561 . S
C897 C900 1.526 . S
C898 H882 0.959 . S
C898 H883 0.959 . S
C898 H884 0.961 . S
C898 C897 1.502 . S
C899 H885 0.960 . S
C899 H886 0.961 . S
C899 H887 0.959 . S
C899 C897 1.561 . S
C900 C897 1.526 . S
C900 C901 1.396 . S
C900 C905 1.390 . S
C901 C895 1.465 . S
C901 C900 1.396 . S
C901 C902 1.399 . S
C902 H888 0.929 . S
C902 C901 1.399 . S
C902 C903 1.385 . S
C903 H889 0.931 . S
C903 C902 1.385 . S
C903 C904 1.389 . S
C904 C903 1.389 . S
C904 C905 1.387 . S
C905 H890 0.930 . S
C905 C900 1.390 . S
C905 C904 1.387 . S
H906 C918 0.930 . S
H907 C920 0.930 . S
H908 C921 0.930 . S
H909 C925 0.959 . S
H910 C925 0.959 . S
H911 C925 0.961 . S
H912 C926 0.960 . S
H913 C926 0.961 . S
H914 C926 0.959 . S
H915 C929 0.929 . S
H916 C930 0.931 . S
H917 C932 0.930 . S
C918 H906 0.930 . S
C918 C919 1.399 . S
C918 C923 1.399 . S
C919 C918 1.399 . S
C919 C920 1.376 . S
C920 H907 0.930 . S
C920 C919 1.376 . S
C920 C921 1.388 . S
C921 H908 0.930 . S
C921 C920 1.388 . S
C921 C922 1.390 . S
C922 C921 1.390 . S
C922 C923 1.394 . S
C922 C928 1.465 . S
C923 C918 1.399 . S
C923 C922 1.394 . S
C923 C924 1.516 . S
C924 C923 1.516 . S
C924 C925 1.502 . S
C924 C926 1.561 . S
C924 C927 1.526 . S
C925 H909 0.959 . S
C925 H910 0.959 . S
C925 H911 0.961 . S
C925 C924 1.502 . S
C926 H912 0.960 . S
C926 H913 0.961 . S
C926 H914 0.959 . S
C926 C924 1.561 . S
C927 C924 1.526 . S
C927 C928 1.396 . S
C927 C932 1.390 . S
C928 C922 1.465 . S
C928 C927 1.396 . S
C928 C929 1.399 . S
C929 H915 0.929 . S
C929 C928 1.399 . S
C929 C930 1.385 . S
C930 H916 0.931 . S
C930 C929 1.385 . S
C930 C931 1.389 . S
C931 C930 1.389 . S
C931 C932 1.387 . S
C932 H917 0.930 . S
C932 C927 1.390 . S
C932 C931 1.387 . S
H933 C945 0.930 . S
H934 C947 0.930 . S
H935 C948 0.930 . S
H936 C952 0.959 . S
H937 C952 0.959 . S
H938 C952 0.961 . S
H939 C953 0.960 . S
H940 C953 0.961 . S
H941 C953 0.959 . S
H942 C956 0.929 . S
H943 C957 0.931 . S
H944 C959 0.931 . S
C945 H933 0.930 . S
C945 C946 1.399 . S
C945 C950 1.399 . S
C946 C945 1.399 . S
C946 C947 1.376 . S
C947 H934 0.930 . S
C947 C946 1.376 . S
C947 C948 1.388 . S
C948 H935 0.930 . S
C948 C947 1.388 . S
C948 C949 1.390 . S
C949 C948 1.390 . S
C949 C950 1.394 . S
C949 C955 1.465 . S
C950 C945 1.399 . S
C950 C949 1.394 . S
C950 C951 1.516 . S
C951 C950 1.516 . S
C951 C952 1.502 . S
C951 C953 1.561 . S
C951 C954 1.526 . S
C952 H936 0.959 . S
C952 H937 0.959 . S
C952 H938 0.961 . S
C952 C951 1.502 . S
C953 H939 0.960 . S
C953 H940 0.961 . S
C953 H941 0.959 . S
C953 C951 1.561 . S
C954 C951 1.526 . S
C954 C955 1.396 . S
C954 C959 1.390 . S
C955 C949 1.465 . S
C955 C954 1.396 . S
C955 C956 1.399 . S
C956 H942 0.929 . S
C956 C955 1.399 . S
C956 C957 1.385 1_556 S
C957 H943 0.931 . S
C957 C956 1.385 1_554 S
C957 C958 1.389 . S
C958 C957 1.389 . S
C958 C959 1.387 1_554 S
C959 H944 0.931 . S
C959 C954 1.390 . S
C959 C958 1.387 1_556 S
H960 C972 0.930 1_545 S
H961 C974 0.930 . S
H962 C975 0.930 . S
H963 C979 0.959 . S
H964 C979 0.959 . S
H965 C979 0.961 1_545 S
H966 C980 0.960 . S
H967 C980 0.961 . S
H968 C980 0.959 . S
H969 C983 0.929 . S
H970 C984 0.931 . S
H971 C986 0.930 . S
C972 H960 0.930 1_565 S
C972 C973 1.399 . S
C972 C977 1.399 . S
C973 C972 1.399 . S
C973 C974 1.376 . S
C974 H961 0.930 . S
C974 C973 1.376 . S
C974 C975 1.388 . S
C975 H962 0.930 . S
C975 C974 1.388 . S
C975 C976 1.390 . S
C976 C975 1.390 . S
C976 C977 1.394 . S
C976 C982 1.465 . S
C977 C972 1.399 . S
C977 C976 1.394 . S
C977 C978 1.516 . S
C978 C977 1.516 . S
C978 C979 1.502 . S
C978 C980 1.561 . S
C978 C981 1.526 . S
C979 H963 0.959 . S
C979 H964 0.959 . S
C979 H965 0.961 1_565 S
C979 C978 1.502 . S
C980 H966 0.960 . S
C980 H967 0.961 . S
C980 H968 0.959 . S
C980 C978 1.561 . S
C981 C978 1.526 . S
C981 C982 1.396 . S
C981 C986 1.390 . S
C982 C976 1.465 . S
C982 C981 1.396 . S
C982 C983 1.399 . S
C983 H969 0.929 . S
C983 C982 1.399 . S
C983 C984 1.385 . S
C984 H970 0.931 . S
C984 C983 1.385 . S
C984 C985 1.389 . S
C985 C984 1.389 . S
C985 C986 1.387 . S
C986 H971 0.930 . S
C986 C981 1.390 . S
C986 C985 1.387 . S
H987 C999 0.930 . S
H988 C1001 0.930 . S
H989 C1002 0.930 . S
H990 C1006 0.959 . S
H991 C1006 0.959 . S
H992 C1006 0.961 . S
H993 C1007 0.960 . S
H994 C1007 0.961 . S
H995 C1007 0.959 . S
H996 C1010 0.929 . S
H997 C1011 0.931 . S
H998 C1013 0.930 . S
C999 H987 0.930 . S
C999 C1000 1.399 . S
C999 C1004 1.399 . S
C1000 C999 1.399 . S
C1000 C1001 1.376 . S
C1001 H988 0.930 . S
C1001 C1000 1.376 . S
C1001 C1002 1.388 . S
C1002 H989 0.930 . S
C1002 C1001 1.388 . S
C1002 C1003 1.390 . S
C1003 C1002 1.390 . S
C1003 C1004 1.394 . S
C1003 C1009 1.465 . S
C1004 C999 1.399 . S
C1004 C1003 1.394 . S
C1004 C1005 1.516 . S
C1005 C1004 1.516 . S
C1005 C1006 1.502 . S
C1005 C1007 1.561 . S
C1005 C1008 1.526 . S
C1006 H990 0.959 . S
C1006 H991 0.959 . S
C1006 H992 0.961 . S
C1006 C1005 1.502 . S
C1007 H993 0.960 . S
C1007 H994 0.961 . S
C1007 H995 0.959 . S
C1007 C1005 1.561 . S
C1008 C1005 1.526 . S
C1008 C1009 1.396 . S
C1008 C1013 1.390 . S
C1009 C1003 1.465 . S
C1009 C1008 1.396 . S
C1009 C1010 1.399 . S
C1010 H996 0.929 . S
C1010 C1009 1.399 . S
C1010 C1011 1.385 . S
C1011 H997 0.931 . S
C1011 C1010 1.385 . S
C1011 C1012 1.389 . S
C1012 C1011 1.389 . S
C1012 C1013 1.387 . S
C1013 H998 0.930 . S
C1013 C1008 1.390 . S
C1013 C1012 1.387 . S
H1014 C1026 0.930 . S
H1015 C1028 0.930 . S
H1016 C1029 0.930 . S
H1017 C1033 0.959 . S
H1018 C1033 0.959 . S
H1019 C1033 0.961 . S
H1020 C1034 0.960 . S
H1021 C1034 0.961 . S
H1022 C1034 0.959 . S
H1023 C1037 0.929 . S
H1024 C1038 0.931 . S
H1025 C1040 0.930 . S
C1026 H1014 0.930 . S
C1026 C1027 1.399 . S
C1026 C1031 1.399 . S
C1027 C1026 1.399 . S
C1027 C1028 1.376 . S
C1028 H1015 0.930 . S
C1028 C1027 1.376 . S
C1028 C1029 1.388 . S
C1029 H1016 0.930 . S
C1029 C1028 1.388 . S
C1029 C1030 1.390 . S
C1030 C1029 1.390 . S
C1030 C1031 1.394 . S
C1030 C1036 1.465 . S
C1031 C1026 1.399 . S
C1031 C1030 1.394 . S
C1031 C1032 1.516 . S
C1032 C1031 1.516 . S
C1032 C1033 1.502 . S
C1032 C1034 1.561 . S
C1032 C1035 1.526 . S
C1033 H1017 0.959 . S
C1033 H1018 0.959 . S
C1033 H1019 0.961 . S
C1033 C1032 1.502 . S
C1034 H1020 0.960 . S
C1034 H1021 0.961 . S
C1034 H1022 0.959 . S
C1034 C1032 1.561 . S
C1035 C1032 1.526 . S
C1035 C1036 1.396 . S
C1035 C1040 1.390 . S
C1036 C1030 1.465 . S
C1036 C1035 1.396 . S
C1036 C1037 1.399 . S
C1037 H1023 0.929 . S
C1037 C1036 1.399 . S
C1037 C1038 1.385 . S
C1038 H1024 0.931 . S
C1038 C1037 1.385 . S
C1038 C1039 1.389 . S
C1039 C1038 1.389 . S
C1039 C1040 1.387 . S
C1040 H1025 0.930 . S
C1040 C1035 1.390 . S
C1040 C1039 1.387 . S
H1041 C1053 0.930 . S
H1042 C1055 0.930 . S
H1043 C1056 0.930 . S
H1044 C1060 0.959 . S
H1045 C1060 0.959 . S
H1046 C1060 0.961 . S
H1047 C1061 0.960 . S
H1048 C1061 0.961 . S
H1049 C1061 0.959 . S
H1050 C1064 0.929 . S
H1051 C1065 0.931 . S
H1052 C1067 0.930 . S
C1053 H1041 0.930 . S
C1053 C1054 1.399 . S
C1053 C1058 1.399 . S
C1054 C1053 1.399 . S
C1054 C1055 1.376 . S
C1055 H1042 0.930 . S
C1055 C1054 1.376 . S
C1055 C1056 1.388 . S
C1056 H1043 0.930 . S
C1056 C1055 1.388 . S
C1056 C1057 1.390 . S
C1057 C1056 1.390 . S
C1057 C1058 1.394 . S
C1057 C1063 1.465 . S
C1058 C1053 1.399 . S
C1058 C1057 1.394 . S
C1058 C1059 1.516 . S
C1059 C1058 1.516 . S
C1059 C1060 1.502 . S
C1059 C1061 1.561 . S
C1059 C1062 1.526 . S
C1060 H1044 0.959 . S
C1060 H1045 0.959 . S
C1060 H1046 0.961 . S
C1060 C1059 1.502 . S
C1061 H1047 0.960 . S
C1061 H1048 0.961 . S
C1061 H1049 0.959 . S
C1061 C1059 1.561 . S
C1062 C1059 1.526 . S
C1062 C1063 1.396 . S
C1062 C1067 1.390 . S
C1063 C1057 1.465 . S
C1063 C1062 1.396 . S
C1063 C1064 1.399 . S
C1064 H1050 0.929 . S
C1064 C1063 1.399 . S
C1064 C1065 1.385 . S
C1065 H1051 0.931 . S
C1065 C1064 1.385 . S
C1065 C1066 1.389 . S
C1066 C1065 1.389 . S
C1066 C1067 1.387 . S
C1067 H1052 0.930 . S
C1067 C1062 1.390 . S
C1067 C1066 1.387 . S
H1068 C1080 0.930 . S
H1069 C1082 0.930 . S
H1070 C1083 0.930 . S
H1071 C1087 0.959 . S
H1072 C1087 0.959 . S
H1073 C1087 0.961 . S
H1074 C1088 0.960 . S
H1075 C1088 0.961 . S
H1076 C1088 0.959 . S
H1077 C1091 0.929 . S
H1078 C1092 0.931 . S
H1079 C1094 0.930 . S
C1080 H1068 0.930 . S
C1080 C1081 1.399 . S
C1080 C1085 1.399 . S
C1081 C1080 1.399 . S
C1081 C1082 1.376 . S
C1082 H1069 0.930 . S
C1082 C1081 1.376 . S
C1082 C1083 1.388 . S
C1083 H1070 0.930 . S
C1083 C1082 1.388 . S
C1083 C1084 1.390 . S
C1084 C1083 1.390 . S
C1084 C1085 1.394 . S
C1084 C1090 1.465 . S
C1085 C1080 1.399 . S
C1085 C1084 1.394 . S
C1085 C1086 1.516 . S
C1086 C1085 1.516 . S
C1086 C1087 1.502 . S
C1086 C1088 1.561 . S
C1086 C1089 1.526 . S
C1087 H1071 0.959 . S
C1087 H1072 0.959 . S
C1087 H1073 0.961 . S
C1087 C1086 1.502 . S
C1088 H1074 0.960 . S
C1088 H1075 0.961 . S
C1088 H1076 0.959 . S
C1088 C1086 1.561 . S
C1089 C1086 1.526 . S
C1089 C1090 1.396 . S
C1089 C1094 1.390 . S
C1090 C1084 1.465 . S
C1090 C1089 1.396 . S
C1090 C1091 1.399 . S
C1091 H1077 0.929 . S
C1091 C1090 1.399 . S
C1091 C1092 1.385 . S
C1092 H1078 0.931 . S
C1092 C1091 1.385 . S
C1092 C1093 1.389 . S
C1093 C1092 1.389 . S
C1093 C1094 1.387 . S
C1094 H1079 0.930 . S
C1094 C1089 1.390 . S
C1094 C1093 1.387 . S
H1095 C1107 0.930 . S
H1096 C1109 0.930 . S
H1097 C1110 0.930 . S
H1098 C1114 0.959 . S
H1099 C1114 0.959 . S
H1100 C1114 0.961 . S
H1101 C1115 0.960 . S
H1102 C1115 0.961 . S
H1103 C1115 0.959 . S
H1104 C1118 0.929 . S
H1105 C1119 0.931 . S
H1106 C1121 0.930 . S
C1107 H1095 0.930 . S
C1107 C1108 1.399 . S
C1107 C1112 1.399 . S
C1108 C1107 1.399 . S
C1108 C1109 1.376 . S
C1109 H1096 0.930 . S
C1109 C1108 1.376 . S
C1109 C1110 1.388 . S
C1110 H1097 0.930 . S
C1110 C1109 1.388 . S
C1110 C1111 1.390 . S
C1111 C1110 1.390 . S
C1111 C1112 1.394 . S
C1111 C1117 1.465 . S
C1112 C1107 1.399 . S
C1112 C1111 1.394 . S
C1112 C1113 1.516 . S
C1113 C1112 1.516 . S
C1113 C1114 1.502 . S
C1113 C1115 1.561 . S
C1113 C1116 1.526 . S
C1114 H1098 0.959 . S
C1114 H1099 0.959 . S
C1114 H1100 0.961 . S
C1114 C1113 1.502 . S
C1115 H1101 0.960 . S
C1115 H1102 0.961 . S
C1115 H1103 0.959 . S
C1115 C1113 1.561 . S
C1116 C1113 1.526 . S
C1116 C1117 1.396 . S
C1116 C1121 1.390 . S
C1117 C1111 1.465 . S
C1117 C1116 1.396 . S
C1117 C1118 1.399 . S
C1118 H1104 0.929 . S
C1118 C1117 1.399 . S
C1118 C1119 1.385 . S
C1119 H1105 0.931 . S
C1119 C1118 1.385 . S
C1119 C1120 1.389 . S
C1120 C1119 1.389 . S
C1120 C1121 1.387 . S
C1121 H1106 0.930 . S
C1121 C1116 1.390 . S
C1121 C1120 1.387 . S
H1122 C1134 0.930 . S
H1123 C1136 0.930 . S
H1124 C1137 0.930 . S
H1125 C1141 0.959 . S
H1126 C1141 0.959 . S
H1127 C1141 0.961 1_554 S
H1128 C1142 0.960 . S
H1129 C1142 0.961 . S
H1130 C1142 0.959 . S
H1131 C1145 0.929 . S
H1132 C1146 0.931 . S
H1133 C1148 0.930 . S
C1134 H1122 0.930 . S
C1134 C1135 1.399 . S
C1134 C1139 1.399 . S
C1135 C1134 1.399 . S
C1135 C1136 1.376 . S
C1136 H1123 0.930 . S
C1136 C1135 1.376 . S
C1136 C1137 1.388 . S
C1137 H1124 0.930 . S
C1137 C1136 1.388 . S
C1137 C1138 1.390 . S
C1138 C1137 1.390 . S
C1138 C1139 1.394 . S
C1138 C1144 1.465 1_554 S
C1139 C1134 1.399 . S
C1139 C1138 1.394 . S
C1139 C1140 1.516 . S
C1140 C1139 1.516 . S
C1140 C1141 1.502 1_554 S
C1140 C1142 1.561 . S
C1140 C1143 1.526 1_554 S
C1141 H1125 0.959 . S
C1141 H1126 0.959 . S
C1141 H1127 0.961 1_556 S
C1141 C1140 1.502 1_556 S
C1142 H1128 0.960 . S
C1142 H1129 0.961 . S
C1142 H1130 0.959 . S
C1142 C1140 1.561 . S
C1143 C1140 1.526 1_556 S
C1143 C1144 1.396 . S
C1143 C1148 1.390 . S
C1144 C1138 1.465 1_556 S
C1144 C1143 1.396 . S
C1144 C1145 1.399 . S
C1145 H1131 0.929 . S
C1145 C1144 1.399 . S
C1145 C1146 1.385 . S
C1146 H1132 0.931 . S
C1146 C1145 1.385 . S
C1146 C1147 1.389 . S
C1147 C1146 1.389 . S
C1147 C1148 1.387 . S
C1148 H1133 0.930 . S
C1148 C1143 1.390 . S
C1148 C1147 1.387 . S
H1149 C1161 0.930 . S
H1150 C1163 0.930 . S
H1151 C1164 0.930 . S
H1152 C1168 0.959 . S
H1153 C1168 0.959 . S
H1154 C1168 0.961 . S
H1155 C1169 0.960 . S
H1156 C1169 0.961 . S
H1157 C1169 0.959 . S
H1158 C1172 0.929 . S
H1159 C1173 0.931 . S
H1160 C1175 0.930 . S
C1161 H1149 0.930 . S
C1161 C1162 1.399 . S
C1161 C1166 1.399 . S
C1162 C1161 1.399 . S
C1162 C1163 1.376 . S
C1163 H1150 0.930 . S
C1163 C1162 1.376 . S
C1163 C1164 1.388 . S
C1164 H1151 0.930 . S
C1164 C1163 1.388 . S
C1164 C1165 1.390 . S
C1165 C1164 1.390 . S
C1165 C1166 1.394 . S
C1165 C1171 1.465 . S
C1166 C1161 1.399 . S
C1166 C1165 1.394 . S
C1166 C1167 1.516 . S
C1167 C1166 1.516 . S
C1167 C1168 1.502 . S
C1167 C1169 1.561 . S
C1167 C1170 1.526 . S
C1168 H1152 0.959 . S
C1168 H1153 0.959 . S
C1168 H1154 0.961 . S
C1168 C1167 1.502 . S
C1169 H1155 0.960 . S
C1169 H1156 0.961 . S
C1169 H1157 0.959 . S
C1169 C1167 1.561 . S
C1170 C1167 1.526 . S
C1170 C1171 1.396 . S
C1170 C1175 1.390 . S
C1171 C1165 1.465 . S
C1171 C1170 1.396 . S
C1171 C1172 1.399 . S
C1172 H1158 0.929 . S
C1172 C1171 1.399 . S
C1172 C1173 1.385 . S
C1173 H1159 0.931 . S
C1173 C1172 1.385 . S
C1173 C1174 1.389 . S
C1174 C1173 1.389 . S
C1174 C1175 1.387 . S
C1175 H1160 0.930 . S
C1175 C1170 1.390 . S
C1175 C1174 1.387 . S
C553 C514 1.478 . S
C541 C51 1.387 . S
C568 C125 1.425 . S
C580 C455 1.417 . S
C595 C217 2.632 . S
C607 C458 2.691 . S
C622 C291 1.544 . S
C634 C472 1.540 . S
C661 C497 0.996 . S
C649 C347 1.055 . S
C676 C421 0.924 . S
C688 C500 0.930 . S
C703 C143 2.203 . S
C715 C469 2.214 . S
C730 C199 1.528 . S
C742 C483 1.591 . S
C757 C273 0.567 . S
C769 C486 0.543 . S
C796 C511 1.743 . S
C784 C365 1.715 . S
C823 C525 1.780 . S
C811 C439 1.779 . S
C850 C444 2.533 . S
C838 C69 2.483 . S
C865 C63 1.463 . S
C877 C467 1.522 . S
C892 C137 1.616 . S
C904 C481 1.662 . S
C931 C491 1.394 . S
C919 C187 1.329 . S
C946 C261 1.465 . S
C958 C509 1.552 . S
C985 C523 1.620 . S
C973 C359 1.460 . S
C1012 C449 1.217 . S
C1000 C433 1.179 . S
C1039 C519 1.680 . S
C1027 C113 1.698 . S
C1054 C211 1.287 . S
C1066 C453 1.413 . S
C1093 C463 1.669 . S
C1081 C285 1.547 . S
C1108 C335 1.388 . S
C1120 C477 1.524 . S
C1135 C409 1.404 . S
C1147 C495 1.343 . S
C1162 C39 1.618 . S
C1174 C505 1.656 . S
