# Generated by pormake.
# Topology zzz, (3,6)-cn, num edge types: 1
# Building blocks:
#     Node 0, Type 0, BuildingBlock: BELTOD_clean_linker_0, # of connection points: 3
#     Node 1, Type 0, BuildingBlock: BELTOD_clean_linker_0, # of connection points: 3
#     Node 2, Type 0, BuildingBlock: BELTOD_clean_linker_0, # of connection points: 3
#     Node 3, Type 0, BuildingBlock: BELTOD_clean_linker_0, # of connection points: 3
#     Node 4, Type 0, BuildingBlock: BELTOD_clean_linker_0, # of connection points: 3
#     Node 5, Type 0, BuildingBlock: BELTOD_clean_linker_0, # of connection points: 3
#     Node 6, Type 0, BuildingBlock: BELTOD_clean_linker_0, # of connection points: 3
#     Node 7, Type 0, BuildingBlock: BELTOD_clean_linker_0, # of connection points: 3
#     Node 8, Type 1, BuildingBlock: BETGAK_clean_sbu_0, # of connection points: 6
#     Node 9, Type 1, BuildingBlock: BETGAK_clean_sbu_0, # of connection points: 6
#     Node 10, Type 1, BuildingBlock: BETGAK_clean_sbu_0, # of connection points: 6
#     Node 11, Type 1, BuildingBlock: BETGAK_clean_sbu_0, # of connection points: 6
#     Edge 12, Type (0, 1), BuildingBlock: KIFKEQ_clean_linker_1, # of connection points: 2
#     Edge 13, Type (0, 1), BuildingBlock: KIFKEQ_clean_linker_1, # of connection points: 2
#     Edge 14, Type (0, 1), BuildingBlock: KIFKEQ_clean_linker_1, # of connection points: 2
#     Edge 15, Type (0, 1), BuildingBlock: KIFKEQ_clean_linker_1, # of connection points: 2
#     Edge 16, Type (0, 1), BuildingBlock: KIFKEQ_clean_linker_1, # of connection points: 2
#     Edge 17, Type (0, 1), BuildingBlock: KIFKEQ_clean_linker_1, # of connection points: 2
#     Edge 18, Type (0, 1), BuildingBlock: KIFKEQ_clean_linker_1, # of connection points: 2
#     Edge 19, Type (0, 1), BuildingBlock: KIFKEQ_clean_linker_1, # of connection points: 2
#     Edge 20, Type (0, 1), BuildingBlock: KIFKEQ_clean_linker_1, # of connection points: 2
#     Edge 21, Type (0, 1), BuildingBlock: KIFKEQ_clean_linker_1, # of connection points: 2
#     Edge 22, Type (0, 1), BuildingBlock: KIFKEQ_clean_linker_1, # of connection points: 2
#     Edge 23, Type (0, 1), BuildingBlock: KIFKEQ_clean_linker_1, # of connection points: 2
#     Edge 24, Type (0, 1), BuildingBlock: KIFKEQ_clean_linker_1, # of connection points: 2
#     Edge 25, Type (0, 1), BuildingBlock: KIFKEQ_clean_linker_1, # of connection points: 2
#     Edge 26, Type (0, 1), BuildingBlock: KIFKEQ_clean_linker_1, # of connection points: 2
#     Edge 27, Type (0, 1), BuildingBlock: KIFKEQ_clean_linker_1, # of connection points: 2
#     Edge 28, Type (0, 1), BuildingBlock: KIFKEQ_clean_linker_1, # of connection points: 2
#     Edge 29, Type (0, 1), BuildingBlock: KIFKEQ_clean_linker_1, # of connection points: 2
#     Edge 30, Type (0, 1), BuildingBlock: KIFKEQ_clean_linker_1, # of connection points: 2
#     Edge 31, Type (0, 1), BuildingBlock: KIFKEQ_clean_linker_1, # of connection points: 2
#     Edge 32, Type (0, 1), BuildingBlock: KIFKEQ_clean_linker_1, # of connection points: 2
#     Edge 33, Type (0, 1), BuildingBlock: KIFKEQ_clean_linker_1, # of connection points: 2
#     Edge 34, Type (0, 1), BuildingBlock: KIFKEQ_clean_linker_1, # of connection points: 2
#     Edge 35, Type (0, 1), BuildingBlock: KIFKEQ_clean_linker_1, # of connection points: 2
# Relax obj value: 0.438
# Max RMSD: 0.256
# Mean RMSD: 0.244
data_MOF--net-zzz--node1-BETGAK_clean_sbu_0--node2-BELTOD_clean_linker_0--edge1-KIFKEQ_clean_linker_1
_symmetry_space_group_name_H-M    P1
_symmetry_Int_Tables_number       1
_symmetry_cell_setting            triclinic
loop_
_symmetry_equiv_pos_as_xyz
'x, y, z'
_cell_length_a     56.94692
_cell_length_b     56.966228
_cell_length_c     17.387812
_cell_angle_alpha  90.068552
_cell_angle_beta   89.94963
_cell_angle_gamma 89.995404
loop_
_atom_site_label
_atom_site_type_symbol
_atom_site_fract_x
_atom_site_fract_y
_atom_site_fract_z
_atom_type_partial_charge
P0 P 0.72476 0.47708 0.34643 0.0
H1 H 0.73705 0.49309 0.50169 0.0
H2 H 0.77451 0.50593 0.5548 0.0
H3 H 0.80203 0.51425 0.32502 0.0
H4 H 0.76429 0.50155 0.27207 0.0
H5 H 0.6739 0.47166 0.35252 0.0
H6 H 0.64258 0.48167 0.26373 0.0
H7 H 0.69226 0.51894 0.12113 0.0
H8 H 0.72372 0.50925 0.21233 0.0
H9 H 0.76448 0.4477 0.38444 0.0
H10 H 0.71937 0.45788 0.18806 0.0
O11 O 0.71272 0.46333 0.42145 0.0
H12 H 0.79176 0.42556 0.30541 0.0
H13 H 0.74618 0.43488 0.10888 0.0
C14 C 0.74772 0.49625 0.38266 0.0
C15 C 0.75078 0.49849 0.46242 0.0
C16 C 0.77242 0.50555 0.49291 0.0
C17 C 0.79156 0.51057 0.44434 0.0
C18 C 0.78774 0.51053 0.36428 0.0
C19 C 0.76602 0.50345 0.33378 0.0
C20 C 0.70125 0.48986 0.28981 0.0
C21 C 0.6781 0.48252 0.30337 0.0
C22 C 0.66013 0.48801 0.25169 0.0
C23 C 0.66485 0.50078 0.18425 0.0
C24 C 0.68789 0.50917 0.17257 0.0
C25 C 0.70594 0.50373 0.22487 0.0
C26 C 0.74031 0.45514 0.29178 0.0
C27 C 0.7601 0.44457 0.32468 0.0
C28 C 0.77563 0.43168 0.27928 0.0
C29 C 0.77145 0.42877 0.20009 0.0
C30 C 0.75028 0.43735 0.16915 0.0
C31 C 0.73487 0.45053 0.21459 0.0
P32 P 0.03577 0.71791 0.36449 0.0
H33 H 0.04111 0.7385 0.51661 0.0
H34 H 0.03052 0.77638 0.56739 0.0
H35 H 0.98499 0.7879 0.37172 0.0
H36 H 0.99749 0.75021 0.31824 0.0
H37 H 0.02583 0.66818 0.39178 0.0
H38 H 0.01391 0.63676 0.30521 0.0
H39 H 0.99786 0.68792 0.12984 0.0
H40 H 0.00937 0.71947 0.21795 0.0
H41 H 0.05985 0.7633 0.37196 0.0
H42 H 0.05835 0.70384 0.21784 0.0
O43 O 0.05197 0.70361 0.42923 0.0
H44 H 0.08115 0.78581 0.27755 0.0
H45 H 0.0802 0.72649 0.12219 0.0
C46 C 0.01988 0.74113 0.41386 0.0
C47 C 0.02823 0.74875 0.48556 0.0
C48 C 0.02206 0.77078 0.51484 0.0
C49 C 1.00691 0.78589 0.47402 0.0
C50 C 0.99718 0.77736 0.40454 0.0
C51 C 1.00386 0.7554 0.37437 0.0
C52 C 0.01886 0.69627 0.31125 0.0
C53 C 0.01908 0.6728 0.33562 0.0
C54 C 0.01247 0.65473 0.28552 0.0
C55 C 1.00553 0.65966 0.20954 0.0
C56 C 1.00314 0.68337 0.18775 0.0
C57 C 0.00965 0.70152 0.23834 0.0
C58 C 0.05605 0.73235 0.30024 0.0
C59 C 0.06421 0.75492 0.31799 0.0
C60 C 0.0769 0.76775 0.26404 0.0
C61 C 0.08204 0.75813 0.19144 0.0
C62 C 0.076 0.73459 0.17689 0.0
C63 C 0.06331 0.7217 0.23135 0.0
P64 P 0.78977 0.03379 0.35778 0.0
H65 H 0.77265 0.0243 0.51363 0.0
H66 H 0.73399 0.01374 0.56094 0.0
H67 H 0.71245 0.99643 0.32941 0.0
H68 H 0.75116 0.00809 0.28206 0.0
H69 H 0.83948 0.04392 0.34569 0.0
H70 H 0.87006 0.03137 0.25745 0.0
H71 H 0.82226 0.98132 0.1559 0.0
H72 H 0.7914 0.9941 0.24571 0.0
H73 H 0.76397 0.07626 0.39579 0.0
H74 H 0.78396 0.03872 0.19029 0.0
O75 O 0.80224 0.04751 0.43219 0.0
H76 H 0.73687 0.10025 0.32039 0.0
H77 H 0.75677 0.06211 0.11548 0.0
C78 C 0.7651 0.01688 0.39407 0.0
C79 C 0.75994 0.01753 0.47302 0.0
C80 C 0.73758 0.01146 0.50025 0.0
C81 C 0.71967 1.0045 0.4492 0.0
C82 C 0.72548 1.0022 0.37059 0.0
C83 C 0.74788 0.0084 0.34339 0.0
C84 C 0.81314 0.01972 0.3036 0.0
C85 C 0.83565 0.02972 0.30621 0.0
C86 C 0.85324 0.02252 0.2553 0.0
C87 C 0.84875 1.00529 0.19925 0.0
C88 C 0.82632 0.99474 0.19799 0.0
C89 C 0.8087 1.00183 0.2499 0.0
C90 C 0.77614 0.0558 0.29878 0.0
C91 C 0.76318 0.07373 0.3341 0.0
C92 C 0.74757 0.08732 0.29105 0.0
C93 C 0.74453 0.08296 0.21206 0.0
C94 C 0.7589 0.06617 0.17594 0.0
C95 C 0.77447 0.05262 0.21903 0.0
P96 P 0.47243 0.78922 0.34766 0.0
H97 H 0.46481 0.76787 0.49753 0.0
H98 H 0.4757 0.73025 0.54969 0.0
H99 H 0.52474 0.72029 0.36214 0.0
H100 H 0.51208 0.75744 0.30703 0.0
H101 H 0.47365 0.84042 0.35945 0.0
H102 H 0.48749 0.87058 0.27214 0.0
H103 H 0.52241 0.81764 0.1354 0.0
H104 H 0.50747 0.78733 0.22144 0.0
H105 H 0.44266 0.74791 0.36216 0.0
H106 H 0.45881 0.79856 0.18527 0.0
O107 O 0.45505 0.80292 0.4107 0.0
H108 H 0.42249 0.72369 0.26839 0.0
H109 H 0.43846 0.77428 0.09088 0.0
C110 C 0.48778 0.76596 0.3985 0.0
C111 C 0.47845 0.75801 0.46852 0.0
C112 C 0.4848 0.73616 0.49866 0.0
C113 C 0.50109 0.72161 0.4604 0.0
C114 C 0.51168 0.73043 0.39282 0.0
C115 C 0.50483 0.75215 0.36171 0.0
C116 C 0.48962 0.81141 0.29801 0.0
C117 C 0.48484 0.83522 0.31207 0.0
C118 C 0.49286 0.85262 0.26172 0.0
C119 C 0.50589 0.84667 0.19572 0.0
C120 C 0.51208 0.82293 0.18478 0.0
C121 C 0.50397 0.8055 0.23521 0.0
C122 C 0.45343 0.77444 0.28027 0.0
C123 C 0.44173 0.75399 0.30332 0.0
C124 C 0.42984 0.74026 0.24962 0.0
C125 C 0.4292 0.74688 0.1718 0.0
C126 C 0.43911 0.76849 0.15015 0.0
C127 C 0.45096 0.78228 0.20418 0.0
P128 P 0.27902 0.46175 0.10905 0.0
H129 H 0.25879 0.43724 0.97631 0.0
H130 H 0.22397 0.44539 0.89948 0.0
H131 H 0.22019 0.51499 0.99712 0.0
H132 H 0.25537 0.50673 0.07382 0.0
H133 H 0.32445 0.43784 0.11434 0.0
H134 H 0.36084 0.44968 0.1759 0.0
H135 H 0.33617 0.52126 0.18505 0.0
H136 H 0.29957 0.50926 0.12183 0.0
H137 H 0.22988 0.46083 0.15645 0.0
H138 H 0.29631 0.47882 0.26109 0.0
O139 O 0.2799 0.43246 0.10735 0.0
H140 H 0.20934 0.47831 0.26585 0.0
H141 H 0.27567 0.49754 0.36761 0.0
C142 C 0.25984 0.47132 0.03139 0.0
C143 C 0.25103 0.45456 0.97961 0.0
C144 C 0.23081 0.45914 0.93621 0.0
C145 C 0.21882 0.48066 0.94326 0.0
C146 C 0.22888 0.49821 0.99005 0.0
C147 C 0.24918 0.49358 0.03366 0.0
C148 C 0.309 0.47258 0.11384 0.0
C149 C 0.32717 0.45631 0.12591 0.0
C150 C 0.3481 0.46311 0.16174 0.0
C151 C 0.35126 0.48633 0.18717 0.0
C152 C 0.33415 0.50315 0.1672 0.0
C153 C 0.31333 0.49638 0.12976 0.0
C154 C 0.26461 0.46985 0.19768 0.0
C155 C 0.24009 0.46846 0.20268 0.0
C156 C 0.22837 0.4783 0.26532 0.0
C157 C 0.24106 0.48961 0.32377 0.0
C158 C 0.26563 0.48925 0.32218 0.0
C159 C 0.27736 0.47887 0.26039 0.0
P160 P 0.04896 0.27619 0.12589 0.0
H161 H 0.07156 0.2589 0.98526 0.0
H162 H 0.06356 0.22404 0.90782 0.0
H163 H 0.99582 0.21717 0.01716 0.0
H164 H 1.00371 0.25236 0.09302 0.0
H165 H 0.07883 0.31047 0.19801 0.0
H166 H 0.07082 0.34853 0.25155 0.0
H167 H 1.00484 0.35079 0.12881 0.0
H168 H 0.01296 0.31148 0.07659 0.0
H169 H 0.05854 0.23611 0.22479 0.0
H170 H 1.00691 0.29144 0.21192 0.0
O171 O 0.07747 0.26984 0.1346 0.0
H172 H 0.03697 0.21862 0.33142 0.0
H173 H 0.98593 0.27468 0.31993 0.0
C174 C 0.03843 0.25832 0.04609 0.0
C175 C 0.05459 0.25049 0.99062 0.0
C176 C 0.05013 0.23019 0.9471 0.0
C177 C 0.02932 0.21719 0.95763 0.0
C178 C 0.01211 0.22651 0.00742 0.0
C179 C 0.0166 0.24685 0.05095 0.0
C180 C 0.04665 0.30795 0.1324 0.0
C181 C 0.06304 0.31941 0.1795 0.0
C182 C 0.05833 0.34149 0.21075 0.0
C183 C 0.03696 0.35303 0.19589 0.0
C184 C 0.02131 0.3424 0.14312 0.0
C185 C 0.02612 0.32006 0.11167 0.0
C186 C 0.03471 0.26535 0.21109 0.0
C187 C 0.04299 0.2449 0.24626 0.0
C188 C 0.0307 0.23503 0.30766 0.0
C189 C 0.00982 0.24542 0.33461 0.0
C190 C 1.00193 0.26627 0.30046 0.0
C191 C 0.01413 0.276 0.2388 0.0
P192 P 0.22699 0.05401 0.08527 0.0
H193 H 0.24694 0.0689 0.93794 0.0
H194 H 0.2833 0.05836 0.87278 0.0
H195 H 0.29206 0.99963 0.02644 0.0
H196 H 0.25547 0.01046 0.09265 0.0
H197 H 0.17744 0.06617 0.06578 0.0
H198 H 0.14329 0.05494 0.14118 0.0
H199 H 0.18262 0.99787 0.24112 0.0
H200 H 0.21692 0.00909 0.16425 0.0
H201 H 0.27606 0.06483 0.12132 0.0
H202 H 0.21105 0.05749 0.2472 0.0
O203 O 0.21981 0.0802 0.04931 0.0
H204 H 0.29779 0.06406 0.24155 0.0
H205 H 0.23291 0.05614 0.36773 0.0
C206 C 0.24815 0.04043 0.02031 0.0
C207 C 0.25612 0.05327 0.95647 0.0
C208 C 0.27719 0.04738 0.91952 0.0
C209 C 0.29087 0.02838 0.94506 0.0
C210 C 0.28195 0.01434 1.00508 0.0
C211 C 0.26085 0.02039 0.04262 0.0
C212 C 0.19999 0.03862 0.10929 0.0
C213 C 0.1786 0.05063 0.10132 0.0
C214 C 0.15904 0.04438 0.14557 0.0
C215 C 0.16035 0.02594 0.19913 0.0
C216 C 0.18095 0.01222 0.20071 0.0
C217 C 0.20059 0.01848 0.15597 0.0
C218 C 0.24207 0.05955 0.17464 0.0
C219 C 0.26639 0.06323 0.17467 0.0
C220 C 0.2788 0.06312 0.2437 0.0
C221 C 0.26701 0.05954 0.31381 0.0
C222 C 0.24241 0.05844 0.31426 0.0
C223 C 0.22998 0.0589 0.24511 0.0
P224 P 0.47441 0.243 0.16397 0.0
H225 H 0.44465 0.2625 0.04227 0.0
H226 H 0.45211 0.29435 0.9517 0.0
H227 H 0.52642 0.28878 0.99663 0.0
H228 H 0.51891 0.25688 0.0866 0.0
H229 H 0.44122 0.21434 0.24792 0.0
H230 H 0.44342 0.17504 0.2982 0.0
H231 H 0.50528 0.16188 0.16063 0.0
H232 H 0.50286 0.20208 0.10951 0.0
H233 H 0.4743 0.2799 0.28082 0.0
H234 H 0.5227 0.22738 0.19735 0.0
O235 O 0.44871 0.25429 0.19209 0.0
H236 H 0.50495 0.29592 0.36289 0.0
H237 H 0.55347 0.24347 0.27939 0.0
C238 C 0.4811 0.25745 0.07324 0.0
C239 C 0.46267 0.26744 0.03065 0.0
C240 C 0.46696 0.28584 0.9788 0.0
C241 C 0.48983 0.29468 0.96838 0.0
C242 C 0.50851 0.28289 1.00478 0.0
C243 C 0.5042 0.26438 0.05612 0.0
C244 C 0.47183 0.21141 0.17442 0.0
C245 C 0.45482 0.20291 0.22575 0.0
C246 C 0.45612 0.18015 0.255 0.0
C247 C 0.47465 0.16509 0.23434 0.0
C248 C 0.49093 0.17305 0.17884 0.0
C249 C 0.48944 0.19599 0.14886 0.0
C250 C 0.49604 0.2523 0.23315 0.0
C251 C 0.4913 0.27139 0.28146 0.0
C252 C 0.50883 0.28045 0.32886 0.0
C253 C 0.53156 0.27078 0.32793 0.0
C254 C 0.53608 0.25115 0.28149 0.0
C255 C 0.51841 0.2419 0.23477 0.0
La256 La 0.02346 0.99569 0.76866 0.0
La257 La 0.99146 0.0094 0.64751 0.0
C258 C 0.04408 0.97523 0.87841 0.0
C259 C 0.05231 0.95116 0.89252 0.0
C260 C 0.07109 0.94722 0.9429 0.0
C261 C 0.07908 0.92438 0.95656 0.0
C262 C 0.06848 0.90512 0.91947 0.0
C263 C 0.05004 0.9093 0.86756 0.0
C264 C 0.04194 0.93203 0.85479 0.0
C265 C 0.04471 0.00999 0.64136 0.0
C266 C 1.00282 0.95674 0.65254 0.0
C267 C 0.97112 0.03051 0.53957 0.0
C268 C 0.96638 0.05567 0.52952 0.0
C269 C 0.94363 0.06346 0.51175 0.0
C270 C 0.93851 0.08749 0.51104 0.0
C271 C 0.95604 0.10389 0.52943 0.0
C272 C 0.97886 0.09604 0.54544 0.0
C273 C 0.984 0.07221 0.54533 0.0
C274 C 0.97023 0.99475 0.7742 0.0
C275 C 0.01204 0.04861 0.76342 0.0
O276 O 0.05498 0.9865 0.82374 0.0
O277 O 0.02133 0.97821 0.87475 0.0
O278 O 0.05164 0.01484 0.71039 0.0
O279 O 0.0268 0.99706 0.64537 0.0
O280 O 0.01144 0.96159 0.72148 0.0
O281 O 0.99626 0.97376 0.60602 0.0
O282 O 0.95996 0.0207 0.59673 0.0
O283 O 0.99322 0.02419 0.53726 0.0
O284 O 0.96365 0.98965 0.70488 0.0
O285 O 0.98804 0.00793 0.77076 0.0
O286 O 1.00303 0.04377 0.69483 0.0
O287 O 0.0189 0.03149 0.80925 0.0
H288 H 0.07939 0.96179 0.97237 0.0
H289 H 0.0931 0.92177 0.99773 0.0
H290 H 0.04168 0.89496 0.83715 0.0
H291 H 0.0274 0.93449 0.81603 0.0
H292 H 0.92977 0.05094 0.49983 0.0
H293 H 0.92089 0.09326 0.49728 0.0
H294 H 0.99284 0.1084 0.55762 0.0
H295 H 1.00173 0.06679 0.5592 0.0
La296 La 0.51192 0.02058 0.76603 0.0
La297 La 0.49846 0.98817 0.64487 0.0
C298 C 0.53111 0.04126 0.87763 0.0
C299 C 0.55385 0.05261 0.89367 0.0
C300 C 0.55431 0.07632 0.91553 0.0
C301 C 0.57549 0.08717 0.93485 0.0
C302 C 0.59664 0.07444 0.93342 0.0
C303 C 0.59617 0.05082 0.90947 0.0
C304 C 0.57502 0.04004 0.88952 0.0
C305 C 0.49611 0.04142 0.64024 0.0
C306 C 0.55137 1.00068 0.64899 0.0
C307 C 0.4754 0.97002 0.53803 0.0
C308 C 0.45084 0.97591 0.51937 0.0
C309 C 0.43295 0.95935 0.53189 0.0
C310 C 0.4094 0.96639 0.53324 0.0
C311 C 0.40349 0.99011 0.52256 0.0
C312 C 0.42129 1.00633 0.50567 0.0
C313 C 0.44467 0.99935 0.50401 0.0
C314 C 0.5142 0.96712 0.7698 0.0
C315 C 0.45943 0.00889 0.75854 0.0
O316 O 0.51772 0.0518 0.82743 0.0
O317 O 0.53104 0.01843 0.86879 0.0
O318 O 0.49192 0.04852 0.70956 0.0
O319 O 0.50952 0.02387 0.64319 0.0
O320 O 0.54643 0.01173 0.71441 0.0
O321 O 0.53462 0.99107 0.60691 0.0
O322 O 0.47828 0.95981 0.60469 0.0
O323 O 0.49083 0.98672 0.52689 0.0
O324 O 0.51837 0.96021 0.70004 0.0
O325 O 0.5008 0.9848 0.76766 0.0
O326 O 0.46448 1.00198 0.68772 0.0
O327 O 0.47651 0.01394 0.80692 0.0
H328 H 0.53818 0.08638 0.91874 0.0
H329 H 0.57523 0.10546 0.95193 0.0
H330 H 0.61201 0.04031 0.90886 0.0
H331 H 0.57525 0.02174 0.87254 0.0
H332 H 0.43726 0.94125 0.54474 0.0
H333 H 0.39595 0.95351 0.54577 0.0
H334 H 0.41718 0.02461 0.49497 0.0
H335 H 0.45793 0.01267 0.49455 0.0
La336 La 0.49021 0.51179 0.75217 0.0
La337 La 0.52155 0.49872 0.63001 0.0
C338 C 0.46956 0.53093 0.86429 0.0
C339 C 0.45806 0.55365 0.87827 0.0
C340 C 0.43716 0.55436 0.92078 0.0
C341 C 0.42626 0.57581 0.93649 0.0
C342 C 0.43615 0.59694 0.91007 0.0
C343 C 0.45678 0.59606 0.86556 0.0
C344 C 0.4676 0.57462 0.84968 0.0
C345 C 0.46815 0.49882 0.62406 0.0
C346 C 0.50897 0.55125 0.63817 0.0
C347 C 0.54352 0.48017 0.51941 0.0
C348 C 0.55738 0.45861 0.51116 0.0
C349 C 0.57271 0.45589 0.44881 0.0
C350 C 0.58467 0.43468 0.43796 0.0
C351 C 0.58117 0.41578 0.48893 0.0
C352 C 0.56677 0.41923 0.5538 0.0
C353 C 0.55517 0.44048 0.56504 0.0
C354 C 0.54345 0.51171 0.75829 0.0
C355 C 0.50227 0.45909 0.7449 0.0
O356 O 0.45912 0.51717 0.81502 0.0
O357 O 0.49234 0.53125 0.85444 0.0
O358 O 0.46137 0.49393 0.69312 0.0
O359 O 0.48635 0.51134 0.6282 0.0
O360 O 0.50201 0.54629 0.70886 0.0
O361 O 0.5138 0.5341 0.58955 0.0
O362 O 0.5525 0.49601 0.56485 0.0
O363 O 0.52103 0.47731 0.53167 0.0
O364 O 0.55004 0.51701 0.68947 0.0
O365 O 0.52544 0.49897 0.75357 0.0
O366 O 0.51014 0.46399 0.67494 0.0
O367 O 0.49651 0.47627 0.79215 0.0
H368 H 0.42941 0.53832 0.9426 0.0
H369 H 0.41025 0.57586 0.97015 0.0
H370 H 0.46509 0.61201 0.84531 0.0
H371 H 0.48367 0.57454 0.81638 0.0
H372 H 0.57499 0.46993 0.40748 0.0
H373 H 0.59596 0.43283 0.3882 0.0
H374 H 0.56326 0.40513 0.59387 0.0
H375 H 0.54385 0.44238 0.61452 0.0
La376 La 0.99747 0.49189 0.75153 0.0
La377 La 0.01427 0.52352 0.63305 0.0
C378 C 0.98661 0.46928 0.87101 0.0
C379 C 0.96518 0.45715 0.89579 0.0
C380 C 0.96619 0.44038 0.95451 0.0
C381 C 0.9457 0.42908 0.9791 0.0
C382 C 0.92389 0.43447 0.94532 0.0
C383 C 0.92317 0.45097 0.8852 0.0
C384 C 0.94363 0.46212 0.86049 0.0
C385 C 1.00101 0.47212 0.61405 0.0
C386 C 0.95905 0.5143 0.64846 0.0
C387 C 0.02826 0.54512 0.51623 0.0
C388 C 0.05303 0.54836 0.49446 0.0
C389 C 0.06237 0.57103 0.48501 0.0
C390 C 0.08677 0.5744 0.48316 0.0
C391 C 0.10186 0.55512 0.49212 0.0
C392 C 0.09246 0.53245 0.49712 0.0
C393 C 0.06836 0.52908 0.49816 0.0
C394 C 0.01148 0.54298 0.77089 0.0
C395 C 0.0525 0.50091 0.73545 0.0
O396 O 0.99734 0.45999 0.812 0.0
O397 O 0.98506 0.49213 0.86518 0.0
O398 O 0.98442 0.46801 0.66308 0.0
O399 O 0.01549 0.4863 0.64368 0.0
O400 O 0.96309 0.50414 0.71535 0.0
O401 O 0.97658 0.52166 0.60457 0.0
O402 O 0.02224 0.5557 0.57993 0.0
O403 O 0.02036 0.52354 0.51387 0.0
O404 O 0.02816 0.54657 0.722 0.0
O405 O 0.99651 0.5293 0.74135 0.0
O406 O 0.04832 0.50909 0.6658 0.0
O407 O 0.03485 0.49582 0.78213 0.0
H408 H 0.98276 0.43616 0.98173 0.0
H409 H 0.94693 0.41627 0.02488 0.0
H410 H 0.90669 0.4559 0.85874 0.0
H411 H 0.94254 0.4749 0.81463 0.0
H412 H 0.05087 0.58617 0.48299 0.0
H413 H 0.0938 0.59199 0.4781 0.0
H414 H 0.10386 0.51729 0.50223 0.0
H415 H 0.06185 0.5114 0.50616 0.0
H416 H 0.1405 0.98507 0.25561 0.0
H417 H 0.13794 0.06046 0.27973 0.0
H418 H 0.11132 0.98122 0.35897 0.0
H419 H 0.10886 0.05662 0.38157 0.0
H420 H 0.0825 0.03868 0.62544 0.0
H421 H 0.10919 0.04204 0.51607 0.0
H422 H 0.0685 0.99053 0.39194 0.0
H423 H 0.04156 0.9873 0.50192 0.0
C424 C 0.13363 1.0008 0.28247 0.0
C425 C 0.14153 0.02307 0.25875 0.0
C426 C 0.11679 0.99861 0.34134 0.0
C427 C 0.10776 0.01862 0.37884 0.0
C428 C 0.11553 0.04083 0.35452 0.0
C429 C 0.13207 0.04302 0.29534 0.0
C430 C 0.07913 0.02819 0.57462 0.0
C431 C 0.05989 0.01277 0.57233 0.0
C432 C 0.09441 0.03015 0.51176 0.0
C433 C 0.09105 0.01654 0.44504 0.0
C434 C 0.07172 1.00113 0.4426 0.0
C435 C 0.05619 0.99941 0.50532 0.0
H436 H 0.51586 0.1446 0.28338 0.0
H437 H 0.44071 0.13416 0.28385 0.0
H438 H 0.52036 0.11166 0.37211 0.0
H439 H 0.44527 0.10183 0.37439 0.0
H440 H 0.46342 0.07566 0.62337 0.0
H441 H 0.45795 0.10217 0.51451 0.0
H442 H 0.51388 0.06712 0.39219 0.0
H443 H 0.51906 0.04019 0.50125 0.0
C444 C 0.50033 0.13501 0.30075 0.0
C445 C 0.47787 0.14241 0.27692 0.0
C446 C 0.50293 0.11615 0.35203 0.0
C447 C 0.48314 0.10435 0.38129 0.0
C448 C 0.46083 0.11083 0.35407 0.0
C449 C 0.45825 0.12944 0.3022 0.0
C450 C 0.47435 0.07343 0.57287 0.0
C451 C 0.49171 0.05593 0.57095 0.0
C452 C 0.47116 0.08854 0.51032 0.0
C453 C 0.48551 0.08681 0.44463 0.0
C454 C 0.50264 0.069 0.4421 0.0
C455 C 0.50553 0.05353 0.50431 0.0
H456 H 0.39794 0.47346 0.18209 0.0
H457 H 0.34754 0.51077 0.32176 0.0
H458 H 0.42728 0.4775 0.28455 0.0
H459 H 0.37674 0.51474 0.42367 0.0
H460 H 0.42233 0.48528 0.62118 0.0
H461 H 0.39549 0.48459 0.51194 0.0
H462 H 0.45125 0.50819 0.3627 0.0
H463 H 0.47823 0.50927 0.47313 0.0
C464 C 0.39323 0.48283 0.23408 0.0
C465 C 0.37036 0.49185 0.24345 0.0
C466 C 0.41006 0.4852 0.29269 0.0
C467 C 0.40429 0.49625 0.36263 0.0
C468 C 0.3817 0.50593 0.37085 0.0
C469 C 0.36503 0.50389 0.31196 0.0
C470 C 0.42893 0.49032 0.56513 0.0
C471 C 0.45242 0.4974 0.55594 0.0
C472 C 0.41348 0.49006 0.50254 0.0
C473 C 0.42114 0.49653 0.42861 0.0
C474 C 0.44481 0.50309 0.41886 0.0
C475 C 0.46023 0.50374 0.48203 0.0
H476 H 0.06586 0.38823 0.25137 0.0
H477 H 0.9931 0.36682 0.24706 0.0
H478 H 0.05671 0.41774 0.34688 0.0
H479 H 0.98347 0.39799 0.33672 0.0
H480 H 0.97732 0.43282 0.57113 0.0
H481 H 0.98514 0.40674 0.46398 0.0
H482 H 0.0415 0.45236 0.38954 0.0
H483 H 0.0345 0.47751 0.50108 0.0
C484 C 0.04778 0.38994 0.26983 0.0
C485 C 0.03041 0.37445 0.24211 0.0
C486 C 0.04241 0.40733 0.32427 0.0
C487 C 0.01931 0.4103 0.35181 0.0
C488 C 1.00163 0.39596 0.31963 0.0
C489 C 0.0071 0.37823 0.26634 0.0
C490 C 0.99138 0.43731 0.5318 0.0
C491 C 1.00533 0.45726 0.54493 0.0
C492 C 0.99576 0.4224 0.46928 0.0
C493 C 0.01398 0.42717 0.41655 0.0
C494 C 0.02758 0.4476 0.42893 0.0
C495 C 0.02346 0.46227 0.49267 0.0
H496 H 0.8426 0.99875 0.04413 0.0
H497 H 0.89639 0.99998 0.21883 0.0
H498 H 0.8726 0.99416 0.94533 0.0
H499 H 0.92647 0.99513 0.1201 0.0
H500 H 0.97411 0.01623 0.91507 0.0
H501 H 0.94523 0.01653 0.01925 0.0
H502 H 0.90123 0.96914 0.88919 0.0
H503 H 0.92981 0.96946 0.78465 0.0
C504 C 0.8608 0.99755 0.06172 0.0
C505 C 0.86698 0.99982 0.13968 0.0
C506 C 0.8781 0.99493 1.00486 0.0
C507 C 0.90214 0.99439 0.02422 0.0
C508 C 0.90825 0.99594 0.10251 0.0
C509 C 0.89095 0.99863 0.15932 0.0
C510 C 0.95837 1.00571 0.90922 0.0
C511 C 0.95417 0.99296 0.84139 0.0
C512 C 0.94179 1.00578 0.96912 0.0
C513 C 0.92065 0.99301 0.96281 0.0
C514 C 0.91698 0.97959 0.89581 0.0
C515 C 0.93348 0.97961 0.83597 0.0
H516 H 0.51758 0.8934 0.21508 0.0
H517 H 0.50501 0.84134 0.03892 0.0
H518 H 0.52191 0.92347 0.11595 0.0
H519 H 0.50971 0.87119 0.94053 0.0
H520 H 0.5373 0.92538 0.77526 0.0
H521 H 0.53819 0.89705 0.88019 0.0
H522 H 0.49739 0.94438 0.02122 0.0
H523 H 0.49678 0.97294 0.91597 0.0
C524 C 0.51582 0.88829 0.15537 0.0
C525 C 0.51096 0.86479 0.13546 0.0
C526 C 0.5183 0.90557 0.09849 0.0
C527 C 0.51617 0.89982 0.02009 0.0
C528 C 0.51187 0.87626 1.00017 0.0
C529 C 0.50926 0.85904 0.05689 0.0
C530 C 0.52872 0.92986 0.82894 0.0
C531 C 0.51679 0.95132 0.83708 0.0
C532 C 0.52911 0.91354 0.88901 0.0
C533 C 0.51762 0.91824 0.95902 0.0
C534 C 0.50653 0.94019 0.96833 0.0
C535 C 0.5061 0.95654 0.90796 0.0
H536 H 0.65532 0.53971 0.09507 0.0
H537 H 0.63184 0.46883 0.13747 0.0
H538 H 0.62486 0.54419 0.9972 0.0
H539 H 0.60165 0.4732 0.03994 0.0
H540 H 0.53713 0.49271 0.90186 0.0
H541 H 0.56531 0.49175 0.00805 0.0
H542 H 0.61471 0.53125 0.8708 0.0
H543 H 0.58634 0.53267 0.76612 0.0
C544 C 0.64375 0.52505 0.08345 0.0
C545 C 0.64606 0.50396 0.12482 0.0
C546 C 0.62623 0.5276 0.0272 0.0
C547 C 0.61059 0.50909 0.01047 0.0
C548 C 0.61293 0.48805 0.05206 0.0
C549 C 0.63035 0.48553 0.10822 0.0
C550 C 0.55392 0.50139 0.89491 0.0
C551 C 0.55954 0.51266 0.82547 0.0
C552 C 0.57019 0.50071 0.95552 0.0
C553 C 0.5925 0.51127 0.9482 0.0
C554 C 0.59772 0.52313 0.8793 0.0
C555 C 0.58146 0.52383 0.8189 0.0
H556 H 0.03372 0.62111 0.1943 0.0
H557 H 0.97318 0.65432 0.0919 0.0
H558 H 0.03299 0.59101 0.09518 0.0
H559 H 0.97278 0.62412 0.99102 0.0
H560 H 0.97116 0.55263 0.85424 0.0
H561 H 0.96753 0.57957 0.9648 0.0
H562 H 0.04216 0.5926 0.95568 0.0
H563 H 0.04566 0.56617 0.84629 0.0
C564 C 0.01995 0.62181 0.15147 0.0
C565 C 1.00347 0.64025 0.15159 0.0
C566 C 0.01969 0.60461 0.09401 0.0
C567 C 1.00292 0.60519 0.03478 0.0
C568 C 0.98586 0.62308 0.03606 0.0
C569 C 0.98623 0.64051 0.09349 0.0
C570 C 0.98675 0.56112 0.87665 0.0
C571 C 0.0087 0.55731 0.84169 0.0
C572 C 0.98466 0.57665 0.93945 0.0
C573 C 1.00457 0.58823 0.96924 0.0
C574 C 0.02651 0.58384 0.93498 0.0
C575 C 0.0285 0.56872 0.87199 0.0
H576 H 0.96215 0.23996 0.3327 0.0
H577 H 0.02405 0.22239 0.46419 0.0
H578 H 0.93942 0.21167 0.40633 0.0
H579 H 1.00171 0.19332 0.53495 0.0
H580 H 0.96597 0.13653 0.63904 0.0
H581 H 0.97107 0.17853 0.61661 0.0
H582 H 0.94255 0.17002 0.38778 0.0
H583 H 0.93706 0.12841 0.41134 0.0
C584 C 0.97076 0.23062 0.37897 0.0
C585 C 0.99505 0.23293 0.39143 0.0
C586 C 0.95773 0.21428 0.4208 0.0
C587 C 0.96882 0.19985 0.4752 0.0
C588 C 0.99251 0.20412 0.49358 0.0
C589 C 1.00548 0.22055 0.45215 0.0
C590 C 0.95998 0.14396 0.5852 0.0
C591 C 0.95166 0.12934 0.52611 0.0
C592 C 0.96292 0.16793 0.57229 0.0
C593 C 0.95782 0.1775 0.49975 0.0
C594 C 0.94662 0.16331 0.44445 0.0
C595 C 0.94353 0.13938 0.45767 0.0
H596 H 0.25987 0.02216 0.40782 0.0
H597 H 0.30555 0.08168 0.37256 0.0
H598 H 0.28892 1.00453 0.4931 0.0
H599 H 0.3347 0.06397 0.45677 0.0
H600 H 0.38685 0.02878 0.59749 0.0
H601 H 0.34835 0.047 0.58086 0.0
H602 H 0.32635 0.98797 0.44222 0.0
H603 H 0.36475 0.96992 0.45852 0.0
C604 C 0.27569 0.03194 0.42091 0.0
C605 C 0.28072 0.05309 0.38272 0.0
C606 C 0.29237 0.02175 0.46926 0.0
C607 C 0.31421 0.03266 0.48041 0.0
C608 C 0.318 0.05515 0.44951 0.0
C609 C 0.3014 0.06525 0.40081 0.0
C610 C 0.37357 0.01954 0.5647 0.0
C611 C 0.3789 0.99828 0.5274 0.0
C612 C 0.35155 0.02989 0.55567 0.0
C613 C 0.33449 0.01908 0.50943 0.0
C614 C 0.33907 0.99666 0.47875 0.0
C615 C 0.36111 0.98634 0.48769 0.0
H616 H 0.574 0.28285 0.26759 0.0
H617 H 0.53235 0.2879 0.47452 0.0
H618 H 0.59973 0.31389 0.31496 0.0
H619 H 0.55772 0.31913 0.52129 0.0
H620 H 0.59618 0.38061 0.58625 0.0
H621 H 0.5956 0.33867 0.55709 0.0
H622 H 0.58409 0.35453 0.31727 0.0
H623 H 0.58375 0.39589 0.34609 0.0
C624 C 0.57095 0.28987 0.32466 0.0
C625 C 0.55089 0.28344 0.36675 0.0
C626 C 0.58564 0.3077 0.35161 0.0
C627 C 0.58046 0.31927 0.42099 0.0
C628 C 0.56224 0.31058 0.46761 0.0
C629 C 0.54751 0.29285 0.44053 0.0
C630 C 0.59408 0.37513 0.527 0.0
C631 C 0.58916 0.39166 0.46901 0.0
C632 C 0.59396 0.35112 0.51035 0.0
C633 C 0.58935 0.34331 0.43524 0.0
C634 C 0.5878 0.35992 0.37577 0.0
C635 C 0.58759 0.38383 0.39248 0.0
H636 H 0.20872 0.47476 0.42729 0.0
H637 H 0.24418 0.53662 0.34401 0.0
H638 H 0.18061 0.49937 0.49579 0.0
H639 H 0.21569 0.56151 0.41159 0.0
H640 H 0.13083 0.57331 0.3831 0.0
H641 H 0.17232 0.56338 0.36898 0.0
H642 H 0.17184 0.53154 0.59434 0.0
H643 H 0.13035 0.54161 0.60816 0.0
C644 C 0.21093 0.49365 0.42621 0.0
C645 C 0.22838 0.50391 0.3806 0.0
C646 C 0.19498 0.50778 0.46565 0.0
C647 C 0.19599 0.53237 0.45872 0.0
C648 C 0.21462 0.54262 0.41791 0.0
C649 C 0.23087 0.52843 0.37956 0.0
C650 C 0.13997 0.56533 0.43105 0.0
C651 C 0.12753 0.55773 0.4959 0.0
C652 C 0.16371 0.55966 0.4232 0.0
C653 C 0.17508 0.54626 0.48006 0.0
C654 C 0.16337 0.54163 0.54942 0.0
C655 C 0.13971 0.54736 0.55728 0.0
H656 H 0.11444 0.7938 0.19828 0.0
H657 H 0.06684 0.7587 0.04257 0.0
H658 H 0.11598 0.82734 0.11192 0.0
H659 H 0.06945 0.79163 0.95442 0.0
H660 H 0.03961 0.86746 0.93824 0.0
H661 H 0.04973 0.82846 0.9811 0.0
H662 H 0.12299 0.84802 0.99044 0.0
H663 H 0.11279 0.8875 0.94601 0.0
C664 C 0.10499 0.79288 0.14432 0.0
C665 C 0.08989 0.77393 0.12862 0.0
C666 C 0.10607 0.81202 0.09436 0.0
C667 C 0.09224 0.81241 0.02747 0.0
C668 C 0.07981 0.79206 0.00664 0.0
C669 C 0.07855 0.77303 0.0569 0.0
C670 C 0.05798 0.86338 0.94708 0.0
C671 C 0.07537 0.88068 0.93878 0.0
C672 C 0.06383 0.84088 0.9715 0.0
C673 C 0.08722 0.83504 0.98871 0.0
C674 C 0.1048 0.85204 0.97791 0.0
C675 C 0.09893 0.87466 0.95298 0.0
H676 H 0.6999 0.08702 0.26575 0.0
H677 H 0.74227 0.09945 0.06365 0.0
H678 H 0.66466 0.0931 0.19129 0.0
H679 H 0.70662 0.10589 0.98829 0.0
H680 H 0.64142 0.06822 0.87867 0.0
H681 H 0.67782 0.07859 0.94293 0.0
H682 H 0.63857 0.11614 0.1168 0.0
H683 H 0.6021 0.1044 0.05552 0.0
C684 C 0.70175 0.09201 0.20596 0.0
C685 C 0.72391 0.09252 0.17047 0.0
C686 C 0.68142 0.09552 0.16296 0.0
C687 C 0.68274 0.09971 0.08339 0.0
C688 C 0.70499 0.10223 0.04916 0.0
C689 C 0.72539 0.09861 0.09229 0.0
C690 C 0.64055 0.07881 0.93036 0.0
C691 C 0.61878 0.08494 0.96288 0.0
C692 C 0.66148 0.08512 0.96661 0.0
C693 C 0.66114 0.09792 0.03582 0.0
C694 C 0.63945 0.10587 0.06442 0.0
C695 C 0.6185 0.09933 0.02866 0.0
H696 H 0.39081 0.71776 0.17628 0.0
H697 H 0.45055 0.73647 0.03586 0.0
H698 H 0.38477 0.68268 0.09781 0.0
H699 H 0.44457 0.70166 0.95804 0.0
H700 H 0.41909 0.60884 0.05139 0.0
H701 H 0.40951 0.64772 0.09839 0.0
H702 H 0.42193 0.67643 0.87209 0.0
H703 H 0.43146 0.63718 0.82451 0.0
C704 C 0.40227 0.7147 0.12754 0.0
C705 C 0.42141 0.72964 0.11313 0.0
C706 C 0.39882 0.69463 0.08267 0.0
C707 C 0.41445 0.68917 0.02264 0.0
C708 C 0.4321 0.7054 1.00348 0.0
C709 C 0.43554 0.72543 0.04826 0.0
C710 C 0.41904 0.62325 0.01085 0.0
C711 C 0.42634 0.61993 0.93441 0.0
C712 C 0.41346 0.64563 0.03784 0.0
C713 C 0.4151 0.66522 0.98907 0.0
C714 C 0.42082 0.6617 0.91125 0.0
C715 C 0.42636 0.63926 0.88415 0.0
H716 H 0.78313 0.44493 0.05721 0.0
H717 H 0.80387 0.39386 0.22801 0.0
H718 H 0.81935 0.43809 0.98783 0.0
H719 H 0.84074 0.38761 0.15895 0.0
H720 H 0.91236 0.42643 0.09572 0.0
H721 H 0.87398 0.41661 0.14749 0.0
H722 H 0.84629 0.41077 0.91718 0.0
H723 H 0.88498 0.4201 0.8648 0.0
C724 C 0.79497 0.43161 0.07872 0.0
C725 C 0.79065 0.42023 0.1491 0.0
C726 C 0.81586 0.42773 0.03878 0.0
C727 C 0.83301 0.41254 0.06854 0.0
C728 C 0.82794 0.39968 0.13537 0.0
C729 C 0.80688 0.40335 0.17499 0.0
C730 C 0.89836 0.42227 0.05587 0.0
C731 C 0.9017 0.42443 0.97606 0.0
C732 C 0.87632 0.4166 0.08565 0.0
C733 C 0.8571 0.4131 0.03634 0.0
C734 C 0.86076 0.41365 0.95648 0.0
C735 C 0.88287 0.41915 0.92662 0.0
H736 H 0.9895 0.19619 0.89707 0.0
H737 H 0.06294 0.18302 0.94083 0.0
H738 H 0.98506 0.15598 0.8494 0.0
H739 H 0.05864 0.14327 0.89159 0.0
H740 H 0.03739 0.06577 0.88523 0.0
H741 H 0.04114 0.10631 0.92866 0.0
H742 H 0.99547 0.12891 0.74513 0.0
H743 H 0.99132 0.08815 0.70277 0.0
C744 C 1.00474 0.18484 0.8962 0.0
C745 C 0.02661 0.1931 0.92286 0.0
C746 C 1.00223 0.16176 0.86822 0.0
C747 C 0.02145 0.14614 0.86684 0.0
C748 C 0.04333 0.15454 0.89255 0.0
C749 C 0.04587 0.17759 0.91992 0.0
C750 C 0.02809 0.07934 0.85402 0.0
C751 C 0.0142 0.07357 0.78981 0.0
C752 C 0.03039 0.10271 0.87868 0.0
C753 C 0.01874 0.12112 0.84029 0.0
C754 C 1.00461 0.11531 0.77655 0.0
C755 C 1.00243 0.0919 0.75161 0.0
H756 H 0.32478 0.06153 0.92302 0.0
H757 H 0.31224 0.98723 0.89768 0.0
H758 H 0.36484 0.05637 0.87591 0.0
H759 H 0.35256 0.98209 0.84948 0.0
H760 H 0.41972 0.99097 0.6898 0.0
H761 H 0.3788 0.99486 0.73249 0.0
H762 H 0.40166 0.03615 0.92662 0.0
H763 H 0.4424 0.03207 0.88477 0.0
C764 C 0.3305 0.04409 0.90663 0.0
C765 C 0.31518 0.02481 0.91393 0.0
C766 C 0.35356 0.04112 0.88011 0.0
C767 C 0.36198 0.01882 0.85896 0.0
C768 C 0.34659 0.99953 0.86488 0.0
C769 C 0.32356 1.00244 0.89291 0.0
C770 C 0.41601 1.00088 0.74158 0.0
C771 C 0.43444 0.01122 0.78373 0.0
C772 C 0.39256 1.00297 0.7663 0.0
C773 C 0.38691 0.01584 0.833 0.0
C774 C 0.40534 0.02626 0.87473 0.0
C775 C 0.42875 0.02383 0.85083 0.0
H776 H 0.51812 0.331 0.01279 0.0
H777 H 0.47006 0.31061 0.83286 0.0
H778 H 0.52209 0.36972 0.95478 0.0
H779 H 0.47397 0.34967 0.77482 0.0
H780 H 0.50549 0.41794 0.66127 0.0
H781 H 0.50359 0.3775 0.70988 0.0
H782 H 0.49496 0.40397 0.94079 0.0
H783 H 0.49667 0.44404 0.89279 0.0
C784 C 0.50869 0.3346 0.96004 0.0
C785 C 0.49381 0.31753 0.92755 0.0
C786 C 0.51078 0.35695 0.92719 0.0
C787 C 0.49823 0.36293 0.86036 0.0
C788 C 0.48396 0.34565 0.8261 0.0
C789 C 0.48162 0.3233 0.85964 0.0
C790 C 0.50319 0.4151 0.72239 0.0
C791 C 0.50123 0.43434 0.77298 0.0
C792 C 0.502 0.39192 0.75019 0.0
C793 C 0.49924 0.38744 0.82936 0.0
C794 C 0.49738 0.40671 0.87966 0.0
C795 C 0.49822 0.42976 0.85191 0.0
H796 H 0.20037 0.51961 0.86984 0.0
H797 H 0.18285 0.44885 0.93735 0.0
H798 H 0.16069 0.5246 0.81739 0.0
H799 H 0.14359 0.45371 0.8844 0.0
H800 H 0.06763 0.47995 0.86821 0.0
H801 H 0.10771 0.47552 0.91498 0.0
H802 H 0.13389 0.51065 0.71261 0.0
H803 H 0.09358 0.51526 0.66564 0.0
C804 C 0.18813 0.5051 0.8733 0.0
C805 C 0.19498 0.48379 0.90768 0.0
C806 C 0.16541 0.5079 0.84271 0.0
C807 C 0.14879 0.48959 0.8468 0.0
C808 C 0.15574 0.46829 0.88079 0.0
C809 C 0.17844 0.46542 0.91047 0.0
C810 C 0.08187 0.48673 0.83337 0.0
C811 C 0.07722 0.4979 0.76286 0.0
C812 C 0.10495 0.48408 0.86015 0.0
C813 C 0.12416 0.49268 0.81763 0.0
C814 C 0.11955 0.504 0.74725 0.0
C815 C 0.09641 0.50648 0.72004 0.0
H816 H 0.00825 0.80363 0.6228 0.0
H817 H 0.99647 0.82557 0.38798 0.0
H818 H 0.00756 0.84394 0.66386 0.0
H819 H 0.99255 0.86568 0.43069 0.0
H820 H 0.01045 0.93951 0.50819 0.0
H821 H 0.01034 0.89882 0.46621 0.0
H822 H 0.98994 0.87734 0.69568 0.0
H823 H 0.99222 0.91795 0.73796 0.0
C824 C 1.00531 0.81691 0.57947 0.0
C825 C 1.00293 0.81079 0.50122 0.0
C826 C 1.00436 0.84038 0.60369 0.0
C827 C 1.00014 0.85876 0.55116 0.0
C828 C 0.99654 0.85251 0.47346 0.0
C829 C 0.99823 0.82908 0.44884 0.0
C830 C 1.00597 0.92599 0.54944 0.0
C831 C 1.00146 0.93193 0.62641 0.0
C832 C 1.00566 0.90247 0.52529 0.0
C833 C 1.00008 0.88414 0.5769 0.0
C834 C 0.99498 0.89042 0.65383 0.0
C835 C 0.99605 0.91388 0.67837 0.0
H836 H 0.70399 0.98716 0.58872 0.0
H837 H 0.67855 0.01566 0.37415 0.0
H838 H 0.66382 0.98572 0.63743 0.0
H839 H 0.63847 0.01355 0.42232 0.0
H840 H 0.56737 0.98589 0.50819 0.0
H841 H 0.60764 0.98536 0.46028 0.0
H842 H 0.63203 0.01324 0.67686 0.0
H843 H 0.59169 0.01375 0.7251 0.0
C844 C 0.68993 0.99312 0.5517 0.0
C845 C 0.69482 1.00156 0.47714 0.0
C846 C 0.66682 0.99226 0.57981 0.0
C847 C 0.64782 0.99957 0.53402 0.0
C848 C 0.65259 0.00749 0.45898 0.0
C849 C 0.6757 0.00857 0.43112 0.0
C850 C 0.58128 0.99184 0.54589 0.0
C851 C 0.57615 0.99988 0.62067 0.0
C852 C 0.60442 0.99166 0.51813 0.0
C853 C 0.62318 0.99928 0.56451 0.0
C854 C 0.6181 0.00702 0.6397 0.0
C855 C 0.5949 0.00744 0.66726 0.0
H856 H 0.5135 0.68235 0.37524 0.0
H857 H 0.49862 0.70394 0.60878 0.0
H858 H 0.51824 0.64236 0.41816 0.0
H859 H 0.50033 0.6636 0.64984 0.0
H860 H 0.51858 0.59025 0.72391 0.0
H861 H 0.51984 0.63093 0.68195 0.0
H862 H 0.50006 0.60899 0.45238 0.0
H863 H 0.50087 0.56829 0.49391 0.0
C864 C 0.51126 0.67878 0.43588 0.0
C865 C 0.50548 0.69689 0.48791 0.0
C866 C 0.51344 0.65544 0.46051 0.0
C867 C 0.5093 0.64913 0.53777 0.0
C868 C 0.50397 0.66732 0.59004 0.0
C869 C 0.50247 0.69073 0.56584 0.0
C870 C 0.51469 0.59422 0.66435 0.0
C871 C 0.50971 0.57607 0.6122 0.0
C872 C 0.51517 0.61769 0.64007 0.0
C873 C 0.50994 0.62381 0.56324 0.0
C874 C 0.50481 0.6054 0.51141 0.0
C875 C 0.50503 0.58189 0.53531 0.0
H876 H 0.81199 0.48498 0.559 0.0
H877 H 0.82634 0.54186 0.4022 0.0
H878 H 0.85173 0.48743 0.60839 0.0
H879 H 0.86626 0.54481 0.4531 0.0
H880 H 0.94359 0.52579 0.50362 0.0
H881 H 0.90334 0.52624 0.45596 0.0
H882 H 0.87814 0.5088 0.68335 0.0
H883 H 0.91838 0.50746 0.72994 0.0
C884 C 0.8235 0.49839 0.53606 0.0
C885 C 0.81577 0.51336 0.47692 0.0
C886 C 0.84644 0.49984 0.5646 0.0
C887 C 0.86246 0.51643 0.53543 0.0
C888 C 0.85467 0.53157 0.47656 0.0
C889 C 0.83169 0.52997 0.44747 0.0
C890 C 0.92945 0.52219 0.54359 0.0
C891 C 0.93435 0.51646 0.62064 0.0
C892 C 0.90625 0.52257 0.51627 0.0
C893 C 0.88722 0.5174 0.56535 0.0
C894 C 0.89219 0.51236 0.64303 0.0
C895 C 0.91537 0.51176 0.6701 0.0
loop_
_geom_bond_atom_site_label_1
_geom_bond_atom_site_label_2
_geom_bond_distance
_geom_bond_site_symmetry_2
_ccdc_geom_bond_type
P0 O11 1.490 . S
P0 C14 1.812 . S
P0 C20 1.803 . S
P0 C26 1.819 . S
H1 C15 0.941 . S
H2 C16 0.939 . S
H3 C18 0.940 . S
H4 C19 0.940 . S
H5 C21 0.939 . S
H6 C22 0.942 . S
H7 C24 0.940 . S
H8 C25 0.939 . S
H9 C27 0.941 . S
H10 C31 0.939 . S
O11 P0 1.490 . S
H12 C28 0.939 . S
H13 C30 0.940 . S
C14 P0 1.812 . S
C14 C15 1.389 . S
C14 C19 1.391 . S
C15 H1 0.941 . S
C15 C14 1.389 . S
C15 C16 1.397 . S
C16 H2 0.939 . S
C16 C15 1.397 . S
C16 C17 1.378 . S
C17 C16 1.378 . S
C17 C18 1.378 . S
C18 H3 0.940 . S
C18 C17 1.378 . S
C18 C19 1.396 . S
C19 H4 0.940 . S
C19 C14 1.391 . S
C19 C18 1.396 . S
C20 P0 1.803 . S
C20 C21 1.378 . S
C20 C25 1.400 . S
C21 H5 0.939 . S
C21 C20 1.378 . S
C21 C22 1.361 . S
C22 H6 0.942 . S
C22 C21 1.361 . S
C22 C23 1.369 . S
C23 C22 1.369 . S
C23 C24 1.404 . S
C24 H7 0.940 . S
C24 C23 1.404 . S
C24 C25 1.389 . S
C25 H8 0.939 . S
C25 C20 1.400 . S
C25 C24 1.389 . S
C26 P0 1.819 . S
C26 C27 1.391 . S
C26 C31 1.391 . S
C27 H9 0.941 . S
C27 C26 1.391 . S
C27 C28 1.396 . S
C28 H12 0.939 . S
C28 C27 1.396 . S
C28 C29 1.397 . S
C29 C28 1.397 . S
C29 C30 1.385 . S
C30 H13 0.940 . S
C30 C29 1.385 . S
C30 C31 1.388 . S
C31 H10 0.939 . S
C31 C26 1.391 . S
C31 C30 1.388 . S
P32 O43 1.490 . S
P32 C46 1.812 . S
P32 C52 1.803 . S
P32 C58 1.819 . S
H33 C47 0.941 . S
H34 C48 0.939 . S
H35 C50 0.940 . S
H36 C51 0.950 . S
H37 C53 0.939 . S
H38 C54 0.942 . S
H39 C56 0.940 . S
H40 C57 0.959 . S
H41 C59 0.941 . S
H42 C63 0.929 1_655 S
O43 P32 1.490 . S
H44 C60 0.939 . S
H45 C62 0.940 . S
C46 P32 1.812 . S
C46 C47 1.389 . S
C46 C51 1.375 1_455 S
C47 H33 0.941 . S
C47 C46 1.389 . S
C47 C48 1.397 . S
C48 H34 0.939 . S
C48 C47 1.397 . S
C48 C49 1.378 . S
C49 C48 1.378 . S
C49 C50 1.378 1_455 S
C50 H35 0.940 . S
C50 C49 1.378 1_655 S
C50 C51 1.403 . S
C51 H36 0.950 . S
C51 C46 1.375 1_655 S
C51 C50 1.403 . S
C52 P32 1.803 . S
C52 C53 1.378 . S
C52 C57 1.368 1_455 S
C53 H37 0.939 . S
C53 C52 1.378 . S
C53 C54 1.361 . S
C54 H38 0.942 . S
C54 C53 1.361 . S
C54 C55 1.369 . S
C55 C54 1.369 . S
C55 C56 1.404 1_455 S
C56 H39 0.940 . S
C56 C55 1.404 1_655 S
C56 C57 1.402 . S
C57 H40 0.959 . S
C57 C52 1.368 1_655 S
C57 C56 1.402 . S
C58 P32 1.819 . S
C58 C59 1.391 . S
C58 C63 1.391 . S
C59 H41 0.941 . S
C59 C58 1.391 . S
C59 C60 1.396 . S
C60 H44 0.939 . S
C60 C59 1.396 . S
C60 C61 1.397 . S
C61 C60 1.397 . S
C61 C62 1.385 1_455 S
C62 H45 0.940 . S
C62 C61 1.385 1_655 S
C62 C63 1.388 1_655 S
C63 H42 0.929 1_455 S
C63 C58 1.391 . S
C63 C62 1.388 1_455 S
P64 O75 1.490 . S
P64 C78 1.812 . S
P64 C84 1.803 . S
P64 C90 1.819 . S
H65 C79 0.941 . S
H66 C80 0.939 . S
H67 C82 0.940 . S
H68 C83 0.950 . S
H69 C85 0.939 . S
H70 C86 0.942 . S
H71 C88 0.940 . S
H72 C89 0.959 . S
H73 C91 0.941 . S
H74 C95 0.929 1_565 S
O75 P64 1.490 . S
H76 C92 0.939 . S
H77 C94 0.940 . S
C78 P64 1.812 . S
C78 C79 1.389 . S
C78 C83 1.375 1_545 S
C79 H65 0.941 . S
C79 C78 1.389 . S
C79 C80 1.397 . S
C80 H66 0.939 . S
C80 C79 1.397 . S
C80 C81 1.378 . S
C81 C80 1.378 . S
C81 C82 1.378 1_545 S
C82 H67 0.940 . S
C82 C81 1.378 1_565 S
C82 C83 1.403 . S
C83 H68 0.950 . S
C83 C78 1.375 1_565 S
C83 C82 1.403 . S
C84 P64 1.803 . S
C84 C85 1.378 . S
C84 C89 1.368 1_545 S
C85 H69 0.939 . S
C85 C84 1.378 . S
C85 C86 1.361 . S
C86 H70 0.942 . S
C86 C85 1.361 . S
C86 C87 1.369 . S
C87 C86 1.369 . S
C87 C88 1.404 1_545 S
C88 H71 0.940 . S
C88 C87 1.404 1_565 S
C88 C89 1.402 . S
C89 H72 0.959 . S
C89 C84 1.368 1_565 S
C89 C88 1.402 . S
C90 P64 1.819 . S
C90 C91 1.391 . S
C90 C95 1.391 . S
C91 H73 0.941 . S
C91 C90 1.391 . S
C91 C92 1.396 . S
C92 H76 0.939 . S
C92 C91 1.396 . S
C92 C93 1.397 . S
C93 C92 1.397 . S
C93 C94 1.385 1_545 S
C94 H77 0.940 . S
C94 C93 1.385 1_565 S
C94 C95 1.388 1_565 S
C95 H74 0.929 1_545 S
C95 C90 1.391 . S
C95 C94 1.388 1_545 S
P96 O107 1.490 . S
P96 C110 1.812 . S
P96 C116 1.803 . S
P96 C122 1.819 . S
H97 C111 0.941 . S
H98 C112 0.939 . S
H99 C114 0.940 . S
H100 C115 0.940 . S
H101 C117 0.939 . S
H102 C118 0.942 . S
H103 C120 0.940 . S
H104 C121 0.939 . S
H105 C123 0.941 . S
H106 C127 0.939 . S
O107 P96 1.490 . S
H108 C124 0.939 . S
H109 C126 0.940 . S
C110 P96 1.812 . S
C110 C111 1.389 . S
C110 C115 1.391 . S
C111 H97 0.941 . S
C111 C110 1.389 . S
C111 C112 1.397 . S
C112 H98 0.939 . S
C112 C111 1.397 . S
C112 C113 1.378 . S
C113 C112 1.378 . S
C113 C114 1.378 . S
C114 H99 0.940 . S
C114 C113 1.378 . S
C114 C115 1.396 . S
C115 H100 0.940 . S
C115 C110 1.391 . S
C115 C114 1.396 . S
C116 P96 1.803 . S
C116 C117 1.378 . S
C116 C121 1.400 . S
C117 H101 0.939 . S
C117 C116 1.378 . S
C117 C118 1.361 . S
C118 H102 0.942 . S
C118 C117 1.361 . S
C118 C119 1.369 . S
C119 C118 1.369 . S
C119 C120 1.404 . S
C120 H103 0.940 . S
C120 C119 1.404 . S
C120 C121 1.389 . S
C121 H104 0.939 . S
C121 C116 1.400 . S
C121 C120 1.389 . S
C122 P96 1.819 . S
C122 C123 1.391 . S
C122 C127 1.391 . S
C123 H105 0.941 . S
C123 C122 1.391 . S
C123 C124 1.396 . S
C124 H108 0.939 . S
C124 C123 1.396 . S
C124 C125 1.397 . S
C125 C124 1.397 . S
C125 C126 1.385 . S
C126 H109 0.940 . S
C126 C125 1.385 . S
C126 C127 1.388 . S
C127 H106 0.939 . S
C127 C122 1.391 . S
C127 C126 1.388 . S
P128 O139 1.490 . S
P128 C142 1.812 1_554 S
P128 C148 1.803 . S
P128 C154 1.819 . S
H129 C143 0.941 . S
H130 C144 0.939 . S
H131 C146 0.940 . S
H132 C147 0.940 . S
H133 C149 0.939 . S
H134 C150 0.942 . S
H135 C152 0.940 . S
H136 C153 0.939 . S
H137 C155 0.941 . S
H138 C159 0.939 . S
O139 P128 1.490 . S
H140 C156 0.939 . S
H141 C158 0.940 . S
C142 P128 1.812 1_556 S
C142 C143 1.389 . S
C142 C147 1.391 . S
C143 H129 0.941 . S
C143 C142 1.389 . S
C143 C144 1.397 . S
C144 H130 0.939 . S
C144 C143 1.397 . S
C144 C145 1.378 . S
C145 C144 1.378 . S
C145 C146 1.378 . S
C146 H131 0.940 . S
C146 C145 1.378 . S
C146 C147 1.396 . S
C147 H132 0.940 . S
C147 C142 1.391 . S
C147 C146 1.396 . S
C148 P128 1.803 . S
C148 C149 1.378 . S
C148 C153 1.400 . S
C149 H133 0.939 . S
C149 C148 1.378 . S
C149 C150 1.361 . S
C150 H134 0.942 . S
C150 C149 1.361 . S
C150 C151 1.369 . S
C151 C150 1.369 . S
C151 C152 1.404 . S
C152 H135 0.940 . S
C152 C151 1.404 . S
C152 C153 1.389 . S
C153 H136 0.939 . S
C153 C148 1.400 . S
C153 C152 1.389 . S
C154 P128 1.819 . S
C154 C155 1.391 . S
C154 C159 1.391 . S
C155 H137 0.941 . S
C155 C154 1.391 . S
C155 C156 1.396 . S
C156 H140 0.939 . S
C156 C155 1.396 . S
C156 C157 1.397 . S
C157 C156 1.397 . S
C157 C158 1.385 . S
C158 H141 0.940 . S
C158 C157 1.385 . S
C158 C159 1.388 . S
C159 H138 0.939 . S
C159 C154 1.391 . S
C159 C158 1.388 . S
P160 O171 1.490 . S
P160 C174 1.812 1_554 S
P160 C180 1.803 . S
P160 C186 1.819 . S
H161 C175 0.941 . S
H162 C176 0.939 . S
H163 C178 0.940 . S
H164 C179 0.944 . S
H165 C181 0.939 . S
H166 C182 0.942 . S
H167 C184 0.940 . S
H168 C185 0.952 . S
H169 C187 0.941 . S
H170 C191 0.933 1_655 S
O171 P160 1.490 . S
H172 C188 0.939 . S
H173 C190 0.940 . S
C174 P160 1.812 1_556 S
C174 C175 1.389 . S
C174 C179 1.385 1_455 S
C175 H161 0.941 . S
C175 C174 1.389 . S
C175 C176 1.397 . S
C176 H162 0.939 . S
C176 C175 1.397 . S
C176 C177 1.378 . S
C177 C176 1.378 . S
C177 C178 1.378 1_455 S
C178 H163 0.940 . S
C178 C177 1.378 1_655 S
C178 C179 1.399 . S
C179 H164 0.944 . S
C179 C174 1.385 1_655 S
C179 C178 1.399 . S
C180 P160 1.803 . S
C180 C181 1.378 . S
C180 C185 1.379 1_455 S
C181 H165 0.939 . S
C181 C180 1.378 . S
C181 C182 1.361 . S
C182 H166 0.942 . S
C182 C181 1.361 . S
C182 C183 1.369 . S
C183 C182 1.369 . S
C183 C184 1.404 1_455 S
C184 H167 0.940 . S
C184 C183 1.404 1_655 S
C184 C185 1.397 . S
C185 H168 0.952 . S
C185 C180 1.379 1_655 S
C185 C184 1.397 . S
C186 P160 1.819 . S
C186 C187 1.391 . S
C186 C191 1.391 . S
C187 H169 0.941 . S
C187 C186 1.391 . S
C187 C188 1.396 . S
C188 H172 0.939 . S
C188 C187 1.396 . S
C188 C189 1.397 . S
C189 C188 1.397 . S
C189 C190 1.385 1_455 S
C190 H173 0.940 . S
C190 C189 1.385 1_655 S
C190 C191 1.388 1_655 S
C191 H170 0.933 1_455 S
C191 C186 1.391 . S
C191 C190 1.388 1_455 S
P192 O203 1.490 . S
P192 C206 1.812 1_554 S
P192 C212 1.803 . S
P192 C218 1.819 . S
H193 C207 0.941 . S
H194 C208 0.939 . S
H195 C210 0.940 . S
H196 C211 0.944 . S
H197 C213 0.939 . S
H198 C214 0.942 . S
H199 C216 0.940 . S
H200 C217 0.952 . S
H201 C219 0.941 . S
H202 C223 0.933 1_565 S
O203 P192 1.490 . S
H204 C220 0.939 . S
H205 C222 0.940 . S
C206 P192 1.812 1_556 S
C206 C207 1.389 . S
C206 C211 1.385 1_545 S
C207 H193 0.941 . S
C207 C206 1.389 . S
C207 C208 1.397 . S
C208 H194 0.939 . S
C208 C207 1.397 . S
C208 C209 1.378 . S
C209 C208 1.378 . S
C209 C210 1.378 1_545 S
C210 H195 0.940 . S
C210 C209 1.378 1_565 S
C210 C211 1.399 . S
C211 H196 0.944 . S
C211 C206 1.385 1_565 S
C211 C210 1.399 . S
C212 P192 1.803 . S
C212 C213 1.378 . S
C212 C217 1.379 1_545 S
C213 H197 0.939 . S
C213 C212 1.378 . S
C213 C214 1.361 . S
C214 H198 0.942 . S
C214 C213 1.361 . S
C214 C215 1.369 . S
C215 C214 1.369 . S
C215 C216 1.404 1_545 S
C216 H199 0.940 . S
C216 C215 1.404 1_565 S
C216 C217 1.397 . S
C217 H200 0.952 . S
C217 C212 1.379 1_565 S
C217 C216 1.397 . S
C218 P192 1.819 . S
C218 C219 1.391 . S
C218 C223 1.391 . S
C219 H201 0.941 . S
C219 C218 1.391 . S
C219 C220 1.396 . S
C220 H204 0.939 . S
C220 C219 1.396 . S
C220 C221 1.397 . S
C221 C220 1.397 . S
C221 C222 1.385 1_545 S
C222 H205 0.940 . S
C222 C221 1.385 1_565 S
C222 C223 1.388 1_565 S
C223 H202 0.933 1_545 S
C223 C218 1.391 . S
C223 C222 1.388 1_545 S
P224 O235 1.490 . S
P224 C238 1.812 1_554 S
P224 C244 1.803 . S
P224 C250 1.819 . S
H225 C239 0.941 . S
H226 C240 0.939 . S
H227 C242 0.940 . S
H228 C243 0.940 . S
H229 C245 0.939 . S
H230 C246 0.942 . S
H231 C248 0.940 . S
H232 C249 0.939 . S
H233 C251 0.941 . S
H234 C255 0.939 . S
O235 P224 1.490 . S
H236 C252 0.939 . S
H237 C254 0.940 . S
C238 P224 1.812 1_556 S
C238 C239 1.389 . S
C238 C243 1.391 . S
C239 H225 0.941 . S
C239 C238 1.389 . S
C239 C240 1.397 . S
C240 H226 0.939 . S
C240 C239 1.397 . S
C240 C241 1.378 . S
C241 C240 1.378 . S
C241 C242 1.378 . S
C242 H227 0.940 . S
C242 C241 1.378 . S
C242 C243 1.396 . S
C243 H228 0.940 . S
C243 C238 1.391 . S
C243 C242 1.396 . S
C244 P224 1.803 . S
C244 C245 1.378 . S
C244 C249 1.400 . S
C245 H229 0.939 . S
C245 C244 1.378 . S
C245 C246 1.361 . S
C246 H230 0.942 . S
C246 C245 1.361 . S
C246 C247 1.369 . S
C247 C246 1.369 . S
C247 C248 1.404 . S
C248 H231 0.940 . S
C248 C247 1.404 . S
C248 C249 1.389 . S
C249 H232 0.939 . S
C249 C244 1.400 . S
C249 C248 1.389 . S
C250 P224 1.819 . S
C250 C251 1.391 . S
C250 C255 1.391 . S
C251 H233 0.941 . S
C251 C250 1.391 . S
C251 C252 1.396 . S
C252 H236 0.939 . S
C252 C251 1.396 . S
C252 C253 1.397 . S
C253 C252 1.397 . S
C253 C254 1.385 . S
C254 H237 0.940 . S
C254 C253 1.385 . S
C254 C255 1.388 . S
C255 H234 0.939 . S
C255 C250 1.391 . S
C255 C254 1.388 . S
La256 C258 2.928 . S
La256 O276 2.521 . S
La256 O277 2.628 . S
La256 O278 2.554 . S
La256 O279 2.757 1_565 S
La256 O280 2.470 . S
La256 O285 2.482 1_455 S
La256 O287 2.503 1_565 S
La257 C267 2.928 . S
La257 O279 2.482 1_655 S
La257 O281 2.503 1_545 S
La257 O282 2.521 . S
La257 O283 2.628 . S
La257 O284 2.554 . S
La257 O285 2.757 1_545 S
La257 O286 2.470 . S
C258 La256 2.928 . S
C258 C259 1.503 . S
C258 O276 1.261 . S
C258 O277 1.243 . S
C259 C258 1.503 . S
C259 C260 1.394 . S
C259 C264 1.373 . S
C260 C259 1.394 . S
C260 C261 1.380 . S
C260 H288 0.930 . S
C261 C260 1.380 . S
C261 C262 1.376 . S
C261 H289 0.930 . S
C262 C261 1.376 . S
C262 C263 1.370 . S
C263 C262 1.370 . S
C263 C264 1.396 . S
C263 H290 0.941 . S
C264 C259 1.373 . S
C264 C263 1.396 . S
C264 H291 0.929 1_455 S
C265 O278 1.240 . S
C265 O279 1.289 1_565 S
C266 O280 1.258 1_655 S
C266 O281 1.256 . S
C267 La257 2.928 . S
C267 C268 1.503 . S
C267 O282 1.261 . S
C267 O283 1.243 . S
C268 C267 1.503 . S
C268 C269 1.394 . S
C268 C273 1.373 . S
C269 C268 1.394 . S
C269 C270 1.380 . S
C269 H292 0.930 . S
C270 C269 1.380 . S
C270 C271 1.376 . S
C270 H293 0.930 . S
C271 C270 1.376 . S
C271 C272 1.370 . S
C272 C271 1.370 . S
C272 C273 1.396 . S
C272 H294 0.932 . S
C273 C268 1.373 . S
C273 C272 1.396 . S
C273 H295 0.929 1_655 S
C274 O284 1.240 . S
C274 O285 1.289 1_545 S
C275 O286 1.258 1_455 S
C275 O287 1.256 . S
O276 La256 2.521 . S
O276 C258 1.261 . S
O277 La256 2.628 . S
O277 C258 1.243 . S
O278 La256 2.554 . S
O278 C265 1.240 . S
O279 La256 2.757 1_545 S
O279 La257 2.482 1_455 S
O279 C265 1.289 1_545 S
O280 La256 2.470 . S
O280 C266 1.258 1_455 S
O281 La257 2.503 1_565 S
O281 C266 1.256 . S
O282 La257 2.521 . S
O282 C267 1.261 . S
O283 La257 2.628 . S
O283 C267 1.243 . S
O284 La257 2.554 . S
O284 C274 1.240 . S
O285 La256 2.482 1_655 S
O285 La257 2.757 1_565 S
O285 C274 1.289 1_565 S
O286 La257 2.470 . S
O286 C275 1.258 1_655 S
O287 La256 2.503 1_545 S
O287 C275 1.256 . S
H288 C260 0.930 . S
H289 C261 0.930 . S
H290 C263 0.941 . S
H291 C264 0.929 1_655 S
H292 C269 0.930 . S
H293 C270 0.930 . S
H294 C272 0.932 . S
H295 C273 0.929 1_455 S
La296 C298 2.928 . S
La296 O316 2.521 . S
La296 O317 2.628 . S
La296 O318 2.554 . S
La296 O319 2.757 . S
La296 O320 2.470 . S
La296 O325 2.482 1_545 S
La296 O327 2.503 . S
La297 C307 2.928 . S
La297 O319 2.482 1_565 S
La297 O321 2.503 . S
La297 O322 2.521 . S
La297 O323 2.628 . S
La297 O324 2.554 . S
La297 O325 2.757 . S
La297 O326 2.470 . S
C298 La296 2.928 . S
C298 C299 1.503 . S
C298 O316 1.261 . S
C298 O317 1.243 . S
C299 C298 1.503 . S
C299 C300 1.394 . S
C299 C304 1.373 . S
C300 C299 1.394 . S
C300 C301 1.380 . S
C300 H328 0.930 . S
C301 C300 1.380 . S
C301 C302 1.376 . S
C301 H329 0.930 . S
C302 C301 1.376 . S
C302 C303 1.370 . S
C303 C302 1.370 . S
C303 C304 1.396 . S
C303 H330 0.924 1_545 S
C304 C299 1.373 . S
C304 C303 1.396 . S
C304 H331 0.929 1_545 S
C305 O318 1.240 . S
C305 O319 1.289 . S
C306 O320 1.258 1_565 S
C306 O321 1.256 . S
C307 La297 2.928 . S
C307 C308 1.503 . S
C307 O322 1.261 . S
C307 O323 1.243 . S
C308 C307 1.503 . S
C308 C309 1.394 . S
C308 C313 1.373 . S
C309 C308 1.394 . S
C309 C310 1.380 . S
C309 H332 0.930 . S
C310 C309 1.380 . S
C310 C311 1.376 . S
C310 H333 0.930 . S
C311 C310 1.376 . S
C311 C312 1.370 . S
C312 C311 1.370 . S
C312 C313 1.396 . S
C312 H334 0.915 1_565 S
C313 C308 1.373 . S
C313 C312 1.396 . S
C313 H335 0.929 1_565 S
C314 O324 1.240 . S
C314 O325 1.289 . S
C315 O326 1.258 1_545 S
C315 O327 1.256 . S
O316 La296 2.521 . S
O316 C298 1.261 . S
O317 La296 2.628 . S
O317 C298 1.243 . S
O318 La296 2.554 . S
O318 C305 1.240 . S
O319 La296 2.757 . S
O319 La297 2.482 1_545 S
O319 C305 1.289 . S
O320 La296 2.470 . S
O320 C306 1.258 1_545 S
O321 La297 2.503 . S
O321 C306 1.256 . S
O322 La297 2.521 . S
O322 C307 1.261 . S
O323 La297 2.628 . S
O323 C307 1.243 . S
O324 La297 2.554 . S
O324 C314 1.240 . S
O325 La296 2.482 1_565 S
O325 La297 2.757 . S
O325 C314 1.289 . S
O326 La297 2.470 . S
O326 C315 1.258 1_565 S
O327 La296 2.503 . S
O327 C315 1.256 . S
H328 C300 0.930 . S
H329 C301 0.930 . S
H330 C303 0.924 1_565 S
H331 C304 0.929 1_565 S
H332 C309 0.930 . S
H333 C310 0.930 . S
H334 C312 0.915 1_545 S
H335 C313 0.929 1_545 S
La336 C338 2.928 . S
La336 O356 2.521 . S
La336 O357 2.628 . S
La336 O358 2.554 . S
La336 O359 2.757 . S
La336 O360 2.470 . S
La336 O365 2.482 . S
La336 O367 2.503 . S
La337 C347 2.928 . S
La337 O359 2.482 . S
La337 O361 2.503 . S
La337 O362 2.521 . S
La337 O363 2.628 . S
La337 O364 2.554 . S
La337 O365 2.757 . S
La337 O366 2.470 . S
C338 La336 2.928 . S
C338 C339 1.503 . S
C338 O356 1.261 . S
C338 O357 1.243 . S
C339 C338 1.503 . S
C339 C340 1.394 . S
C339 C344 1.373 . S
C340 C339 1.394 . S
C340 C341 1.380 . S
C340 H368 0.930 . S
C341 C340 1.380 . S
C341 C342 1.376 . S
C341 H369 0.930 . S
C342 C341 1.376 . S
C342 C343 1.370 . S
C343 C342 1.370 . S
C343 C344 1.396 . S
C343 H370 0.929 . S
C344 C339 1.373 . S
C344 C343 1.396 . S
C344 H371 0.929 . S
C345 O358 1.240 . S
C345 O359 1.289 . S
C346 O360 1.258 . S
C346 O361 1.256 . S
C347 La337 2.928 . S
C347 C348 1.503 . S
C347 O362 1.261 . S
C347 O363 1.243 . S
C348 C347 1.503 . S
C348 C349 1.394 . S
C348 C353 1.373 . S
C349 C348 1.394 . S
C349 C350 1.380 . S
C349 H372 0.930 . S
C350 C349 1.380 . S
C350 C351 1.376 . S
C350 H373 0.930 . S
C351 C350 1.376 . S
C351 C352 1.370 . S
C352 C351 1.370 . S
C352 C353 1.396 . S
C352 H374 0.929 . S
C353 C348 1.373 . S
C353 C352 1.396 . S
C353 H375 0.929 . S
C354 O364 1.240 . S
C354 O365 1.289 . S
C355 O366 1.258 . S
C355 O367 1.256 . S
O356 La336 2.521 . S
O356 C338 1.261 . S
O357 La336 2.628 . S
O357 C338 1.243 . S
O358 La336 2.554 . S
O358 C345 1.240 . S
O359 La336 2.757 . S
O359 La337 2.482 . S
O359 C345 1.289 . S
O360 La336 2.470 . S
O360 C346 1.258 . S
O361 La337 2.503 . S
O361 C346 1.256 . S
O362 La337 2.521 . S
O362 C347 1.261 . S
O363 La337 2.628 . S
O363 C347 1.243 . S
O364 La337 2.554 . S
O364 C354 1.240 . S
O365 La336 2.482 . S
O365 La337 2.757 . S
O365 C354 1.289 . S
O366 La337 2.470 . S
O366 C355 1.258 . S
O367 La336 2.503 . S
O367 C355 1.256 . S
H368 C340 0.930 . S
H369 C341 0.930 . S
H370 C343 0.929 . S
H371 C344 0.929 . S
H372 C349 0.930 . S
H373 C350 0.930 . S
H374 C352 0.929 . S
H375 C353 0.929 . S
La376 C378 2.928 . S
La376 O396 2.521 . S
La376 O397 2.628 . S
La376 O398 2.554 . S
La376 O399 2.757 1_655 S
La376 O400 2.470 . S
La376 O405 2.482 . S
La376 O407 2.503 1_655 S
La377 C387 2.928 . S
La377 O399 2.482 . S
La377 O401 2.503 1_455 S
La377 O402 2.521 . S
La377 O403 2.628 . S
La377 O404 2.554 . S
La377 O405 2.757 1_455 S
La377 O406 2.470 . S
C378 La376 2.928 . S
C378 C379 1.503 . S
C378 O396 1.261 . S
C378 O397 1.243 . S
C379 C378 1.503 . S
C379 C380 1.394 . S
C379 C384 1.373 . S
C380 C379 1.394 . S
C380 C381 1.380 . S
C380 H408 0.930 . S
C381 C380 1.380 . S
C381 C382 1.376 . S
C381 H409 0.930 . S
C382 C381 1.376 . S
C382 C383 1.370 . S
C383 C382 1.370 . S
C383 C384 1.396 . S
C383 H410 0.929 . S
C384 C379 1.373 . S
C384 C383 1.396 . S
C384 H411 0.929 . S
C385 O398 1.255 . S
C385 O399 1.280 1_655 S
C386 O400 1.258 . S
C386 O401 1.256 . S
C387 La377 2.928 . S
C387 C388 1.503 . S
C387 O402 1.261 . S
C387 O403 1.243 . S
C388 C387 1.503 . S
C388 C389 1.394 . S
C388 C393 1.373 . S
C389 C388 1.394 . S
C389 C390 1.380 . S
C389 H412 0.930 . S
C390 C389 1.380 . S
C390 C391 1.376 . S
C390 H413 0.930 . S
C391 C390 1.376 . S
C391 C392 1.370 . S
C392 C391 1.370 . S
C392 C393 1.396 . S
C392 H414 0.929 . S
C393 C388 1.373 . S
C393 C392 1.396 . S
C393 H415 0.929 . S
C394 O404 1.262 . S
C394 O405 1.277 1_455 S
C395 O406 1.258 . S
C395 O407 1.256 . S
O396 La376 2.521 . S
O396 C378 1.261 . S
O397 La376 2.628 . S
O397 C378 1.243 . S
O398 La376 2.554 . S
O398 C385 1.255 . S
O399 La376 2.757 1_455 S
O399 La377 2.482 . S
O399 C385 1.280 1_455 S
O400 La376 2.470 . S
O400 C386 1.258 . S
O401 La377 2.503 1_655 S
O401 C386 1.256 . S
O402 La377 2.521 . S
O402 C387 1.261 . S
O403 La377 2.628 . S
O403 C387 1.243 . S
O404 La377 2.554 . S
O404 C394 1.262 . S
O405 La376 2.482 . S
O405 La377 2.757 1_655 S
O405 C394 1.277 1_655 S
O406 La377 2.470 . S
O406 C395 1.258 . S
O407 La376 2.503 1_455 S
O407 C395 1.256 . S
H408 C380 0.930 . S
H409 C381 0.930 . S
H410 C383 0.929 . S
H411 C384 0.929 . S
H412 C389 0.930 . S
H413 C390 0.930 . S
H414 C392 0.929 . S
H415 C393 0.929 . S
H416 C424 0.950 . S
H417 C429 0.950 . S
H418 C426 0.950 . S
H419 C428 0.950 . S
H420 C430 0.950 . S
H421 C432 0.950 . S
H422 C434 0.950 . S
H423 C435 0.950 . S
C424 H416 0.950 . S
C424 C425 1.389 1_565 S
C424 C426 1.391 . S
C425 C424 1.389 1_545 S
C425 C429 1.389 . S
C426 H418 0.950 . S
C426 C424 1.391 . S
C426 C427 1.382 1_565 S
C427 C426 1.382 1_545 S
C427 C428 1.416 . S
C427 C433 1.491 . S
C428 H419 0.950 . S
C428 C427 1.416 . S
C428 C429 1.391 . S
C429 H417 0.950 . S
C429 C425 1.389 . S
C429 C428 1.391 . S
C430 H420 0.950 . S
C430 C431 1.386 . S
C430 C432 1.391 . S
C431 C430 1.386 . S
C431 C435 1.393 1_545 S
C432 H421 0.950 . S
C432 C430 1.391 . S
C432 C433 1.400 . S
C433 C427 1.491 . S
C433 C432 1.400 . S
C433 C434 1.398 1_545 S
C434 H422 0.950 . S
C434 C433 1.398 1_565 S
C434 C435 1.391 . S
C435 H423 0.950 . S
C435 C431 1.393 1_565 S
C435 C434 1.391 . S
H436 C444 0.950 . S
H437 C449 0.950 . S
H438 C446 0.950 . S
H439 C448 0.950 . S
H440 C450 0.950 . S
H441 C452 0.950 . S
H442 C454 0.950 . S
H443 C455 0.950 . S
C444 H436 0.950 . S
C444 C445 1.386 . S
C444 C446 1.391 . S
C445 C444 1.386 . S
C445 C449 1.393 . S
C446 H438 0.950 . S
C446 C444 1.391 . S
C446 C447 1.400 . S
C447 C446 1.400 . S
C447 C448 1.398 . S
C447 C453 1.491 . S
C448 H439 0.950 . S
C448 C447 1.398 . S
C448 C449 1.391 . S
C449 H437 0.950 . S
C449 C445 1.393 . S
C449 C448 1.391 . S
C450 H440 0.950 . S
C450 C451 1.386 . S
C450 C452 1.391 . S
C451 C450 1.386 . S
C451 C455 1.393 . S
C452 H441 0.950 . S
C452 C450 1.391 . S
C452 C453 1.400 . S
C453 C447 1.491 . S
C453 C452 1.400 . S
C453 C454 1.398 . S
C454 H442 0.950 . S
C454 C453 1.398 . S
C454 C455 1.391 . S
C455 H443 0.950 . S
C455 C451 1.393 . S
C455 C454 1.391 . S
H456 C464 0.950 . S
H457 C469 0.950 . S
H458 C466 0.950 . S
H459 C468 0.950 . S
H460 C470 0.950 . S
H461 C472 0.950 . S
H462 C474 0.950 . S
H463 C475 0.950 . S
C464 H456 0.950 . S
C464 C465 1.386 . S
C464 C466 1.391 . S
C465 C464 1.386 . S
C465 C469 1.393 . S
C466 H458 0.950 . S
C466 C464 1.391 . S
C466 C467 1.400 . S
C467 C466 1.400 . S
C467 C468 1.398 . S
C467 C473 1.491 . S
C468 H459 0.950 . S
C468 C467 1.398 . S
C468 C469 1.391 . S
C469 H457 0.950 . S
C469 C465 1.393 . S
C469 C468 1.391 . S
C470 H460 0.950 . S
C470 C471 1.386 . S
C470 C472 1.391 . S
C471 C470 1.386 . S
C471 C475 1.393 . S
C472 H461 0.950 . S
C472 C470 1.391 . S
C472 C473 1.400 . S
C473 C467 1.491 . S
C473 C472 1.400 . S
C473 C474 1.398 . S
C474 H462 0.950 . S
C474 C473 1.398 . S
C474 C475 1.391 . S
C475 H463 0.950 . S
C475 C471 1.393 . S
C475 C474 1.391 . S
H476 C484 0.950 . S
H477 C489 0.950 . S
H478 C486 0.950 . S
H479 C488 0.950 . S
H480 C490 0.950 . S
H481 C492 0.950 . S
H482 C494 0.950 . S
H483 C495 0.950 . S
C484 H476 0.950 . S
C484 C485 1.379 1_455 S
C484 C486 1.391 . S
C485 C484 1.379 1_655 S
C485 C489 1.400 . S
C486 H478 0.950 . S
C486 C484 1.391 . S
C486 C487 1.407 . S
C487 C486 1.407 . S
C487 C488 1.391 1_455 S
C487 C493 1.492 . S
C488 H479 0.950 . S
C488 C487 1.391 1_655 S
C488 C489 1.391 . S
C489 H477 0.950 . S
C489 C485 1.400 . S
C489 C488 1.391 . S
C490 H480 0.950 . S
C490 C491 1.386 1_655 S
C490 C492 1.391 . S
C491 C490 1.386 1_455 S
C491 C495 1.393 . S
C492 H481 0.950 . S
C492 C490 1.391 . S
C492 C493 1.400 1_655 S
C493 C487 1.492 . S
C493 C492 1.400 1_455 S
C493 C494 1.398 . S
C494 H482 0.950 . S
C494 C493 1.398 . S
C494 C495 1.391 . S
C495 H483 0.950 . S
C495 C491 1.393 . S
C495 C494 1.391 . S
H496 C504 0.950 . S
H497 C509 0.950 . S
H498 C506 0.950 . S
H499 C508 0.950 . S
H500 C510 0.950 . S
H501 C512 0.950 . S
H502 C514 0.950 . S
H503 C515 0.950 . S
C504 H496 0.950 . S
C504 C505 1.397 . S
C504 C506 1.391 . S
C505 C504 1.397 . S
C505 C509 1.382 1_545 S
C506 H498 0.950 . S
C506 C504 1.391 . S
C506 C507 1.401 1_545 S
C507 C506 1.401 1_565 S
C507 C508 1.398 . S
C507 C513 1.491 . S
C508 H499 0.950 . S
C508 C507 1.398 . S
C508 C509 1.391 . S
C509 H497 0.950 . S
C509 C505 1.382 1_565 S
C509 C508 1.391 . S
C510 H500 0.950 . S
C510 C511 1.386 . S
C510 C512 1.391 1_556 S
C511 C510 1.386 . S
C511 C515 1.393 1_565 S
C512 H501 0.950 . S
C512 C510 1.391 1_554 S
C512 C513 1.400 . S
C513 C507 1.491 . S
C513 C512 1.400 . S
C513 C514 1.398 1_564 S
C514 H502 0.950 . S
C514 C513 1.398 1_546 S
C514 C515 1.391 . S
C515 H503 0.950 . S
C515 C511 1.393 1_545 S
C515 C514 1.391 . S
H516 C524 0.950 . S
H517 C529 0.950 . S
H518 C526 0.950 . S
H519 C528 0.950 . S
H520 C530 0.950 . S
H521 C532 0.950 1_554 S
H522 C534 0.950 1_554 S
H523 C535 0.950 . S
C524 H516 0.950 . S
C524 C525 1.386 . S
C524 C526 1.391 . S
C525 C524 1.386 . S
C525 C529 1.393 . S
C526 H518 0.950 . S
C526 C524 1.391 . S
C526 C527 1.400 . S
C527 C526 1.400 . S
C527 C528 1.398 . S
C527 C533 1.491 . S
C528 H519 0.950 . S
C528 C527 1.398 . S
C528 C529 1.391 . S
C529 H517 0.950 . S
C529 C525 1.393 . S
C529 C528 1.391 . S
C530 H520 0.950 . S
C530 C531 1.386 . S
C530 C532 1.391 . S
C531 C530 1.386 . S
C531 C535 1.393 . S
C532 H521 0.950 1_556 S
C532 C530 1.391 . S
C532 C533 1.400 1_556 S
C533 C527 1.491 . S
C533 C532 1.400 1_554 S
C533 C534 1.398 1_554 S
C534 H522 0.950 1_556 S
C534 C533 1.398 1_556 S
C534 C535 1.391 . S
C535 H523 0.950 . S
C535 C531 1.393 . S
C535 C534 1.391 . S
H536 C544 0.950 . S
H537 C549 0.950 . S
H538 C546 0.950 . S
H539 C548 0.950 . S
H540 C550 0.950 . S
H541 C552 0.950 . S
H542 C554 0.950 . S
H543 C555 0.950 . S
C544 H536 0.950 . S
C544 C545 1.386 . S
C544 C546 1.391 . S
C545 C544 1.386 . S
C545 C549 1.393 . S
C546 H538 0.950 . S
C546 C544 1.391 . S
C546 C547 1.400 . S
C547 C546 1.400 . S
C547 C548 1.398 . S
C547 C553 1.491 . S
C548 H539 0.950 . S
C548 C547 1.398 . S
C548 C549 1.391 . S
C549 H537 0.950 . S
C549 C545 1.393 . S
C549 C548 1.391 . S
C550 H540 0.950 . S
C550 C551 1.386 . S
C550 C552 1.391 . S
C551 C550 1.386 . S
C551 C555 1.393 . S
C552 H541 0.950 . S
C552 C550 1.391 . S
C552 C553 1.400 1_556 S
C553 C547 1.491 . S
C553 C552 1.400 1_554 S
C553 C554 1.398 . S
C554 H542 0.950 . S
C554 C553 1.398 . S
C554 C555 1.391 1_554 S
C555 H543 0.950 . S
C555 C551 1.393 . S
C555 C554 1.391 1_556 S
H556 C564 0.950 . S
H557 C569 0.950 . S
H558 C566 0.950 . S
H559 C568 0.950 . S
H560 C570 0.950 . S
H561 C572 0.950 1_554 S
H562 C574 0.950 . S
H563 C575 0.950 . S
C564 H556 0.950 . S
C564 C565 1.378 1_455 S
C564 C566 1.391 . S
C565 C564 1.378 1_655 S
C565 C569 1.400 . S
C566 H558 0.950 . S
C566 C564 1.391 . S
C566 C567 1.366 1_455 S
C567 C566 1.366 1_655 S
C567 C568 1.432 . S
C567 C573 1.492 . S
C568 H559 0.950 . S
C568 C567 1.432 . S
C568 C569 1.391 . S
C569 H557 0.950 . S
C569 C565 1.400 . S
C569 C568 1.391 . S
C570 H560 0.950 . S
C570 C571 1.386 . S
C570 C572 1.391 . S
C571 C570 1.386 . S
C571 C575 1.393 1_655 S
C572 H561 0.950 1_556 S
C572 C570 1.391 . S
C572 C573 1.400 1_556 S
C573 C567 1.492 . S
C573 C572 1.400 1_554 S
C573 C574 1.398 1_654 S
C574 H562 0.950 . S
C574 C573 1.398 1_456 S
C574 C575 1.391 . S
C575 H563 0.950 . S
C575 C571 1.393 1_455 S
C575 C574 1.391 . S
H576 C584 0.950 . S
H577 C589 0.950 . S
H578 C586 0.950 . S
H579 C588 0.950 . S
H580 C590 0.950 . S
H581 C592 0.950 1_455 S
H582 C594 0.950 . S
H583 C595 0.950 . S
C584 H576 0.950 . S
C584 C585 1.386 1_655 S
C584 C586 1.391 . S
C585 C584 1.386 1_455 S
C585 C589 1.393 . S
C586 H578 0.950 . S
C586 C584 1.391 . S
C586 C587 1.400 . S
C587 C586 1.400 . S
C587 C588 1.398 1_655 S
C587 C593 1.491 . S
C588 H579 0.950 . S
C588 C587 1.398 1_455 S
C588 C589 1.391 . S
C589 H577 0.950 . S
C589 C585 1.393 . S
C589 C588 1.391 . S
C590 H580 0.950 . S
C590 C591 1.386 . S
C590 C592 1.391 . S
C591 C590 1.386 . S
C591 C595 1.393 . S
C592 H581 0.950 1_655 S
C592 C590 1.391 . S
C592 C593 1.400 . S
C593 C587 1.491 . S
C593 C592 1.400 . S
C593 C594 1.398 . S
C594 H582 0.950 . S
C594 C593 1.398 . S
C594 C595 1.391 . S
C595 H583 0.950 . S
C595 C591 1.393 . S
C595 C594 1.391 . S
H596 C604 0.950 . S
H597 C609 0.950 . S
H598 C606 0.950 . S
H599 C608 0.950 . S
H600 C610 0.950 . S
H601 C612 0.950 1_545 S
H602 C614 0.950 . S
H603 C615 0.950 . S
C604 H596 0.950 . S
C604 C605 1.386 1_565 S
C604 C606 1.391 . S
C605 C604 1.386 1_545 S
C605 C609 1.393 . S
C606 H598 0.950 . S
C606 C604 1.391 . S
C606 C607 1.400 . S
C607 C606 1.400 . S
C607 C608 1.398 1_565 S
C607 C613 1.491 . S
C608 H599 0.950 . S
C608 C607 1.398 1_545 S
C608 C609 1.391 . S
C609 H597 0.950 . S
C609 C605 1.393 . S
C609 C608 1.391 . S
C610 H600 0.950 . S
C610 C611 1.386 . S
C610 C612 1.391 . S
C611 C610 1.386 . S
C611 C615 1.393 . S
C612 H601 0.950 1_565 S
C612 C610 1.391 . S
C612 C613 1.400 . S
C613 C607 1.491 . S
C613 C612 1.400 . S
C613 C614 1.398 . S
C614 H602 0.950 . S
C614 C613 1.398 . S
C614 C615 1.391 . S
C615 H603 0.950 . S
C615 C611 1.393 . S
C615 C614 1.391 . S
H616 C624 0.950 . S
H617 C629 0.950 . S
H618 C626 0.950 . S
H619 C628 0.950 . S
H620 C630 0.950 . S
H621 C632 0.950 . S
H622 C634 0.950 . S
H623 C635 0.950 . S
C624 H616 0.950 . S
C624 C625 1.386 . S
C624 C626 1.391 . S
C625 C624 1.386 . S
C625 C629 1.393 . S
C626 H618 0.950 . S
C626 C624 1.391 . S
C626 C627 1.400 . S
C627 C626 1.400 . S
C627 C628 1.398 . S
C627 C633 1.491 . S
C628 H619 0.950 . S
C628 C627 1.398 . S
C628 C629 1.391 . S
C629 H617 0.950 . S
C629 C625 1.393 . S
C629 C628 1.391 . S
C630 H620 0.950 . S
C630 C631 1.386 . S
C630 C632 1.391 . S
C631 C630 1.386 . S
C631 C635 1.393 . S
C632 H621 0.950 . S
C632 C630 1.391 . S
C632 C633 1.400 . S
C633 C627 1.491 . S
C633 C632 1.400 . S
C633 C634 1.398 . S
C634 H622 0.950 . S
C634 C633 1.398 . S
C634 C635 1.391 . S
C635 H623 0.950 . S
C635 C631 1.393 . S
C635 C634 1.391 . S
H636 C644 0.950 . S
H637 C649 0.950 . S
H638 C646 0.950 . S
H639 C648 0.950 . S
H640 C650 0.950 . S
H641 C652 0.950 . S
H642 C654 0.950 . S
H643 C655 0.950 . S
C644 H636 0.950 . S
C644 C645 1.386 . S
C644 C646 1.391 . S
C645 C644 1.386 . S
C645 C649 1.393 . S
C646 H638 0.950 . S
C646 C644 1.391 . S
C646 C647 1.400 . S
C647 C646 1.400 . S
C647 C648 1.398 . S
C647 C653 1.491 . S
C648 H639 0.950 . S
C648 C647 1.398 . S
C648 C649 1.391 . S
C649 H637 0.950 . S
C649 C645 1.393 . S
C649 C648 1.391 . S
C650 H640 0.950 . S
C650 C651 1.386 . S
C650 C652 1.391 . S
C651 C650 1.386 . S
C651 C655 1.393 . S
C652 H641 0.950 . S
C652 C650 1.391 . S
C652 C653 1.400 . S
C653 C647 1.491 . S
C653 C652 1.400 . S
C653 C654 1.398 . S
C654 H642 0.950 . S
C654 C653 1.398 . S
C654 C655 1.391 . S
C655 H643 0.950 . S
C655 C651 1.393 . S
C655 C654 1.391 . S
H656 C664 0.950 . S
H657 C669 0.950 . S
H658 C666 0.950 . S
H659 C668 0.946 1_655 S
H660 C670 0.950 . S
H661 C672 0.950 . S
H662 C674 0.950 . S
H663 C675 0.950 . S
C664 H656 0.950 . S
C664 C665 1.386 1_455 S
C664 C666 1.391 . S
C665 C664 1.386 1_655 S
C665 C669 1.393 . S
C666 H658 0.950 . S
C666 C664 1.391 . S
C666 C667 1.400 . S
C667 C666 1.400 . S
C667 C668 1.398 . S
C667 C673 1.491 . S
C668 H659 0.946 1_455 S
C668 C667 1.398 . S
C668 C669 1.391 1_455 S
C669 H657 0.950 . S
C669 C665 1.393 . S
C669 C668 1.391 1_655 S
C670 H660 0.950 . S
C670 C671 1.386 1_554 S
C670 C672 1.391 . S
C671 C670 1.386 1_556 S
C671 C675 1.393 . S
C672 H661 0.950 . S
C672 C670 1.391 . S
C672 C673 1.400 . S
C673 C667 1.491 . S
C673 C672 1.400 . S
C673 C674 1.398 1_554 S
C674 H662 0.950 . S
C674 C673 1.398 1_556 S
C674 C675 1.391 . S
C675 H663 0.950 . S
C675 C671 1.393 . S
C675 C674 1.391 . S
H676 C684 0.950 1_565 S
H677 C689 0.950 . S
H678 C686 0.950 . S
H679 C688 0.950 . S
H680 C690 0.950 . S
H681 C692 0.950 . S
H682 C694 0.950 . S
H683 C695 0.950 . S
C684 H676 0.950 1_545 S
C684 C685 1.386 1_545 S
C684 C686 1.391 . S
C685 C684 1.386 1_565 S
C685 C689 1.393 1_565 S
C686 H678 0.950 . S
C686 C684 1.391 . S
C686 C687 1.400 . S
C687 C686 1.400 . S
C687 C688 1.398 . S
C687 C693 1.491 . S
C688 H679 0.950 . S
C688 C687 1.398 . S
C688 C689 1.391 . S
C689 H677 0.950 . S
C689 C685 1.393 1_545 S
C689 C688 1.391 . S
C690 H680 0.950 . S
C690 C691 1.386 . S
C690 C692 1.391 . S
C691 C690 1.386 . S
C691 C695 1.393 1_556 S
C692 H681 0.950 . S
C692 C690 1.391 . S
C692 C693 1.400 1_556 S
C693 C687 1.491 . S
C693 C692 1.400 1_554 S
C693 C694 1.398 . S
C694 H682 0.950 . S
C694 C693 1.398 . S
C694 C695 1.391 . S
C695 H683 0.950 . S
C695 C691 1.393 1_554 S
C695 C694 1.391 . S
H696 C704 0.950 . S
H697 C709 0.950 . S
H698 C706 0.950 . S
H699 C708 0.950 . S
H700 C710 0.950 . S
H701 C712 0.950 . S
H702 C714 0.950 . S
H703 C715 0.950 . S
C704 H696 0.950 . S
C704 C705 1.386 . S
C704 C706 1.391 . S
C705 C704 1.386 . S
C705 C709 1.393 . S
C706 H698 0.950 . S
C706 C704 1.391 . S
C706 C707 1.400 . S
C707 C706 1.400 . S
C707 C708 1.398 . S
C707 C713 1.491 . S
C708 H699 0.950 . S
C708 C707 1.398 . S
C708 C709 1.391 . S
C709 H697 0.950 . S
C709 C705 1.393 . S
C709 C708 1.391 . S
C710 H700 0.950 . S
C710 C711 1.386 1_554 S
C710 C712 1.391 . S
C711 C710 1.386 1_556 S
C711 C715 1.393 . S
C712 H701 0.950 . S
C712 C710 1.391 . S
C712 C713 1.400 . S
C713 C707 1.491 . S
C713 C712 1.400 . S
C713 C714 1.398 1_554 S
C714 H702 0.950 . S
C714 C713 1.398 1_556 S
C714 C715 1.391 . S
C715 H703 0.950 . S
C715 C711 1.393 . S
C715 C714 1.391 . S
H716 C724 0.950 . S
H717 C729 0.950 . S
H718 C726 0.950 . S
H719 C728 0.950 . S
H720 C730 0.950 . S
H721 C732 0.950 . S
H722 C734 0.950 . S
H723 C735 0.950 . S
C724 H716 0.950 . S
C724 C725 1.386 . S
C724 C726 1.391 . S
C725 C724 1.386 . S
C725 C729 1.393 . S
C726 H718 0.950 . S
C726 C724 1.391 . S
C726 C727 1.400 . S
C727 C726 1.400 . S
C727 C728 1.398 . S
C727 C733 1.491 . S
C728 H719 0.950 . S
C728 C727 1.398 . S
C728 C729 1.391 . S
C729 H717 0.950 . S
C729 C725 1.393 . S
C729 C728 1.391 . S
C730 H720 0.950 . S
C730 C731 1.386 1_554 S
C730 C732 1.391 . S
C731 C730 1.386 1_556 S
C731 C735 1.393 . S
C732 H721 0.950 . S
C732 C730 1.391 . S
C732 C733 1.400 . S
C733 C727 1.491 . S
C733 C732 1.400 . S
C733 C734 1.398 . S
C734 H722 0.950 . S
C734 C733 1.398 . S
C734 C735 1.391 1_554 S
C735 H723 0.950 . S
C735 C731 1.393 . S
C735 C734 1.391 1_556 S
H736 C744 0.950 . S
H737 C749 0.950 . S
H738 C746 0.950 . S
H739 C748 0.950 . S
H740 C750 0.950 . S
H741 C752 0.950 . S
H742 C754 0.950 . S
H743 C755 0.950 . S
C744 H736 0.950 . S
C744 C745 1.386 1_655 S
C744 C746 1.391 . S
C745 C744 1.386 1_455 S
C745 C749 1.393 . S
C746 H738 0.950 . S
C746 C744 1.391 . S
C746 C747 1.400 1_655 S
C747 C746 1.400 1_455 S
C747 C748 1.398 . S
C747 C753 1.491 . S
C748 H739 0.950 . S
C748 C747 1.398 . S
C748 C749 1.391 . S
C749 H737 0.950 . S
C749 C745 1.393 . S
C749 C748 1.391 . S
C750 H740 0.950 . S
C750 C751 1.386 . S
C750 C752 1.391 . S
C751 C750 1.386 . S
C751 C755 1.393 1_455 S
C752 H741 0.950 . S
C752 C750 1.391 . S
C752 C753 1.400 . S
C753 C747 1.491 . S
C753 C752 1.400 . S
C753 C754 1.398 1_455 S
C754 H742 0.950 . S
C754 C753 1.398 1_655 S
C754 C755 1.391 . S
C755 H743 0.950 . S
C755 C751 1.393 1_655 S
C755 C754 1.391 . S
H756 C764 0.950 . S
H757 C769 0.950 . S
H758 C766 0.950 . S
H759 C768 0.950 . S
H760 C770 0.950 . S
H761 C772 0.950 . S
H762 C774 0.950 . S
H763 C775 0.950 . S
C764 H756 0.950 . S
C764 C765 1.386 . S
C764 C766 1.391 . S
C765 C764 1.386 . S
C765 C769 1.393 1_545 S
C766 H758 0.950 . S
C766 C764 1.391 . S
C766 C767 1.400 . S
C767 C766 1.400 . S
C767 C768 1.398 1_545 S
C767 C773 1.491 . S
C768 H759 0.950 . S
C768 C767 1.398 1_565 S
C768 C769 1.391 . S
C769 H757 0.950 . S
C769 C765 1.393 1_565 S
C769 C768 1.391 . S
C770 H760 0.950 . S
C770 C771 1.386 1_565 S
C770 C772 1.391 . S
C771 C770 1.386 1_545 S
C771 C775 1.393 . S
C772 H761 0.950 . S
C772 C770 1.391 . S
C772 C773 1.400 1_565 S
C773 C767 1.491 . S
C773 C772 1.400 1_545 S
C773 C774 1.398 . S
C774 H762 0.950 . S
C774 C773 1.398 . S
C774 C775 1.391 . S
C775 H763 0.950 . S
C775 C771 1.393 . S
C775 C774 1.391 . S
H776 C784 0.950 . S
H777 C789 0.950 . S
H778 C786 0.950 . S
H779 C788 0.950 . S
H780 C790 0.950 . S
H781 C792 0.950 . S
H782 C794 0.950 . S
H783 C795 0.950 . S
C784 H776 0.950 . S
C784 C785 1.386 . S
C784 C786 1.391 . S
C785 C784 1.386 . S
C785 C789 1.393 . S
C786 H778 0.950 . S
C786 C784 1.391 . S
C786 C787 1.400 . S
C787 C786 1.400 . S
C787 C788 1.398 . S
C787 C793 1.491 . S
C788 H779 0.950 . S
C788 C787 1.398 . S
C788 C789 1.391 . S
C789 H777 0.950 . S
C789 C785 1.393 . S
C789 C788 1.391 . S
C790 H780 0.950 . S
C790 C791 1.386 . S
C790 C792 1.391 . S
C791 C790 1.386 . S
C791 C795 1.393 . S
C792 H781 0.950 . S
C792 C790 1.391 . S
C792 C793 1.400 . S
C793 C787 1.491 . S
C793 C792 1.400 . S
C793 C794 1.398 . S
C794 H782 0.950 . S
C794 C793 1.398 . S
C794 C795 1.391 . S
C795 H783 0.950 . S
C795 C791 1.393 . S
C795 C794 1.391 . S
H796 C804 0.950 . S
H797 C809 0.950 . S
H798 C806 0.950 . S
H799 C808 0.950 . S
H800 C810 0.950 . S
H801 C812 0.950 . S
H802 C814 0.950 . S
H803 C815 0.950 . S
C804 H796 0.950 . S
C804 C805 1.386 . S
C804 C806 1.391 . S
C805 C804 1.386 . S
C805 C809 1.393 . S
C806 H798 0.950 . S
C806 C804 1.391 . S
C806 C807 1.400 . S
C807 C806 1.400 . S
C807 C808 1.398 . S
C807 C813 1.491 . S
C808 H799 0.950 . S
C808 C807 1.398 . S
C808 C809 1.391 . S
C809 H797 0.950 . S
C809 C805 1.393 . S
C809 C808 1.391 . S
C810 H800 0.950 . S
C810 C811 1.386 . S
C810 C812 1.391 . S
C811 C810 1.386 . S
C811 C815 1.393 . S
C812 H801 0.950 . S
C812 C810 1.391 . S
C812 C813 1.400 . S
C813 C807 1.491 . S
C813 C812 1.400 . S
C813 C814 1.398 . S
C814 H802 0.950 . S
C814 C813 1.398 . S
C814 C815 1.391 . S
C815 H803 0.950 . S
C815 C811 1.393 . S
C815 C814 1.391 . S
H816 C824 0.946 1_455 S
H817 C829 0.950 . S
H818 C826 0.950 . S
H819 C828 0.950 . S
H820 C830 0.950 . S
H821 C832 0.950 . S
H822 C834 0.950 . S
H823 C835 0.950 . S
C824 H816 0.946 1_655 S
C824 C825 1.387 . S
C824 C826 1.394 . S
C825 C824 1.387 . S
C825 C829 1.393 . S
C826 H818 0.950 . S
C826 C824 1.394 . S
C826 C827 1.400 . S
C827 C826 1.400 . S
C827 C828 1.398 . S
C827 C833 1.491 . S
C828 H819 0.950 . S
C828 C827 1.398 . S
C828 C829 1.391 . S
C829 H817 0.950 . S
C829 C825 1.393 . S
C829 C828 1.391 . S
C830 H820 0.950 . S
C830 C831 1.386 . S
C830 C832 1.391 . S
C831 C830 1.386 . S
C831 C835 1.393 . S
C832 H821 0.950 . S
C832 C830 1.391 . S
C832 C833 1.400 . S
C833 C827 1.491 . S
C833 C832 1.400 . S
C833 C834 1.398 . S
C834 H822 0.950 . S
C834 C833 1.398 . S
C834 C835 1.391 . S
C835 H823 0.950 . S
C835 C831 1.393 . S
C835 C834 1.391 . S
H836 C844 0.950 . S
H837 C849 0.950 . S
H838 C846 0.950 . S
H839 C848 0.950 . S
H840 C850 0.950 . S
H841 C852 0.950 1_545 S
H842 C854 0.950 . S
H843 C855 0.950 . S
C844 H836 0.950 . S
C844 C845 1.386 . S
C844 C846 1.391 . S
C845 C844 1.386 . S
C845 C849 1.393 1_565 S
C846 H838 0.950 . S
C846 C844 1.391 . S
C846 C847 1.400 . S
C847 C846 1.400 . S
C847 C848 1.398 1_565 S
C847 C853 1.491 . S
C848 H839 0.950 . S
C848 C847 1.398 1_545 S
C848 C849 1.391 . S
C849 H837 0.950 . S
C849 C845 1.393 1_545 S
C849 C848 1.391 . S
C850 H840 0.950 . S
C850 C851 1.386 . S
C850 C852 1.391 . S
C851 C850 1.386 . S
C851 C855 1.393 . S
C852 H841 0.950 1_565 S
C852 C850 1.391 . S
C852 C853 1.400 . S
C853 C847 1.491 . S
C853 C852 1.400 . S
C853 C854 1.398 . S
C854 H842 0.950 . S
C854 C853 1.398 . S
C854 C855 1.391 . S
C855 H843 0.950 . S
C855 C851 1.393 . S
C855 C854 1.391 . S
H856 C864 0.950 . S
H857 C869 0.950 . S
H858 C866 0.950 . S
H859 C868 0.950 . S
H860 C870 0.950 . S
H861 C872 0.950 . S
H862 C874 0.950 . S
H863 C875 0.950 . S
C864 H856 0.950 . S
C864 C865 1.386 . S
C864 C866 1.391 . S
C865 C864 1.386 . S
C865 C869 1.393 . S
C866 H858 0.950 . S
C866 C864 1.391 . S
C866 C867 1.400 . S
C867 C866 1.400 . S
C867 C868 1.398 . S
C867 C873 1.491 . S
C868 H859 0.950 . S
C868 C867 1.398 . S
C868 C869 1.391 . S
C869 H857 0.950 . S
C869 C865 1.393 . S
C869 C868 1.391 . S
C870 H860 0.950 . S
C870 C871 1.386 . S
C870 C872 1.391 . S
C871 C870 1.386 . S
C871 C875 1.393 . S
C872 H861 0.950 . S
C872 C870 1.391 . S
C872 C873 1.400 . S
C873 C867 1.491 . S
C873 C872 1.400 . S
C873 C874 1.398 . S
C874 H862 0.950 . S
C874 C873 1.398 . S
C874 C875 1.391 . S
C875 H863 0.950 . S
C875 C871 1.393 . S
C875 C874 1.391 . S
H876 C884 0.950 . S
H877 C889 0.950 . S
H878 C886 0.950 . S
H879 C888 0.950 . S
H880 C890 0.950 . S
H881 C892 0.950 . S
H882 C894 0.950 . S
H883 C895 0.950 . S
C884 H876 0.950 . S
C884 C885 1.386 . S
C884 C886 1.391 . S
C885 C884 1.386 . S
C885 C889 1.393 . S
C886 H878 0.950 . S
C886 C884 1.391 . S
C886 C887 1.400 . S
C887 C886 1.400 . S
C887 C888 1.398 . S
C887 C893 1.491 . S
C888 H879 0.950 . S
C888 C887 1.398 . S
C888 C889 1.391 . S
C889 H877 0.950 . S
C889 C885 1.393 . S
C889 C888 1.391 . S
C890 H880 0.950 . S
C890 C891 1.386 . S
C890 C892 1.391 . S
C891 C890 1.386 . S
C891 C895 1.393 . S
C892 H881 0.950 . S
C892 C890 1.391 . S
C892 C893 1.400 . S
C893 C887 1.491 . S
C893 C892 1.400 . S
C893 C894 1.398 . S
C894 H882 0.950 . S
C894 C893 1.398 . S
C894 C895 1.391 . S
C895 H883 0.950 . S
C895 C891 1.393 . S
C895 C894 1.391 . S
C425 C215 1.995 . S
C431 C265 2.169 1_545 S
C451 C305 2.180 . S
C445 C247 1.994 . S
C471 C345 2.187 . S
C465 C151 2.024 . S
C491 C385 2.176 1_455 S
C485 C183 2.016 1_655 S
C511 C274 2.175 1_565 S
C505 C87 2.016 . S
C525 C119 2.036 . S
C531 C314 2.184 . S
C545 C23 2.018 . S
C551 C354 2.182 . S
C565 C55 2.023 1_655 S
C571 C394 2.174 1_655 S
C591 C271 0.473 . S
C585 C189 0.355 . S
C611 C311 0.488 . S
C605 C221 0.367 . S
C631 C351 0.496 . S
C625 C253 0.377 . S
C645 C157 0.397 . S
C651 C391 0.421 . S
C665 C61 0.593 1_655 S
C671 C262 0.497 . S
C691 C302 0.422 . S
C685 C93 0.493 1_565 S
C711 C342 0.496 . S
C705 C125 0.582 . S
C725 C29 0.516 . S
C731 C382 0.454 . S
C745 C177 2.511 . S
C751 C275 2.796 . S
C765 C209 2.472 . S
C771 C315 2.785 . S
C791 C355 2.778 . S
C785 C241 2.479 . S
C811 C395 2.795 . S
C805 C145 2.494 . S
C825 C49 2.521 1_655 S
C831 C266 2.814 . S
C851 C306 2.788 . S
C845 C81 2.505 1_565 S
C871 C346 2.769 . S
C865 C113 2.517 . S
C885 C17 2.511 . S
C891 C386 2.801 . S
