# Generated by pormake.
# Topology pyr, (3,6)-cn, num edge types: 1
# Building blocks:
#     Node 0, Type 0, BuildingBlock: BETDIP_clean_linker_0, # of connection points: 3
#     Node 1, Type 0, BuildingBlock: BETDIP_clean_linker_0, # of connection points: 3
#     Node 2, Type 0, BuildingBlock: BETDIP_clean_linker_0, # of connection points: 3
#     Node 3, Type 0, BuildingBlock: BETDIP_clean_linker_0, # of connection points: 3
#     Node 4, Type 0, BuildingBlock: BETDIP_clean_linker_0, # of connection points: 3
#     Node 5, Type 0, BuildingBlock: BETDIP_clean_linker_0, # of connection points: 3
#     Node 6, Type 0, BuildingBlock: BETDIP_clean_linker_0, # of connection points: 3
#     Node 7, Type 0, BuildingBlock: BETDIP_clean_linker_0, # of connection points: 3
#     Node 8, Type 1, BuildingBlock: MIFKUJ_clean_sbu_0, # of connection points: 6
#     Node 9, Type 1, BuildingBlock: MIFKUJ_clean_sbu_0, # of connection points: 6
#     Node 10, Type 1, BuildingBlock: MIFKUJ_clean_sbu_0, # of connection points: 6
#     Node 11, Type 1, BuildingBlock: MIFKUJ_clean_sbu_0, # of connection points: 6
#     Edge 12, Type (0, 1), BuildingBlock: XUDNAN_clean_linker_2, # of connection points: 2
#     Edge 13, Type (0, 1), BuildingBlock: XUDNAN_clean_linker_2, # of connection points: 2
#     Edge 14, Type (0, 1), BuildingBlock: XUDNAN_clean_linker_2, # of connection points: 2
#     Edge 15, Type (0, 1), BuildingBlock: XUDNAN_clean_linker_2, # of connection points: 2
#     Edge 16, Type (0, 1), BuildingBlock: XUDNAN_clean_linker_2, # of connection points: 2
#     Edge 17, Type (0, 1), BuildingBlock: XUDNAN_clean_linker_2, # of connection points: 2
#     Edge 18, Type (0, 1), BuildingBlock: XUDNAN_clean_linker_2, # of connection points: 2
#     Edge 19, Type (0, 1), BuildingBlock: XUDNAN_clean_linker_2, # of connection points: 2
#     Edge 20, Type (0, 1), BuildingBlock: XUDNAN_clean_linker_2, # of connection points: 2
#     Edge 21, Type (0, 1), BuildingBlock: XUDNAN_clean_linker_2, # of connection points: 2
#     Edge 22, Type (0, 1), BuildingBlock: XUDNAN_clean_linker_2, # of connection points: 2
#     Edge 23, Type (0, 1), BuildingBlock: XUDNAN_clean_linker_2, # of connection points: 2
#     Edge 24, Type (0, 1), BuildingBlock: XUDNAN_clean_linker_2, # of connection points: 2
#     Edge 25, Type (0, 1), BuildingBlock: XUDNAN_clean_linker_2, # of connection points: 2
#     Edge 26, Type (0, 1), BuildingBlock: XUDNAN_clean_linker_2, # of connection points: 2
#     Edge 27, Type (0, 1), BuildingBlock: XUDNAN_clean_linker_2, # of connection points: 2
#     Edge 28, Type (0, 1), BuildingBlock: XUDNAN_clean_linker_2, # of connection points: 2
#     Edge 29, Type (0, 1), BuildingBlock: XUDNAN_clean_linker_2, # of connection points: 2
#     Edge 30, Type (0, 1), BuildingBlock: XUDNAN_clean_linker_2, # of connection points: 2
#     Edge 31, Type (0, 1), BuildingBlock: XUDNAN_clean_linker_2, # of connection points: 2
#     Edge 32, Type (0, 1), BuildingBlock: XUDNAN_clean_linker_2, # of connection points: 2
#     Edge 33, Type (0, 1), BuildingBlock: XUDNAN_clean_linker_2, # of connection points: 2
#     Edge 34, Type (0, 1), BuildingBlock: XUDNAN_clean_linker_2, # of connection points: 2
#     Edge 35, Type (0, 1), BuildingBlock: XUDNAN_clean_linker_2, # of connection points: 2
# Relax obj value: 0.058
# Max RMSD: 0.189
# Mean RMSD: 0.128
data_MOF--net-pyr--node1-MIFKUJ_clean_sbu_0--node2-BETDIP_clean_linker_0--edge1-XUDNAN_clean_linker_2
_symmetry_space_group_name_H-M    P1
_symmetry_Int_Tables_number       1
_symmetry_cell_setting            triclinic
loop_
_symmetry_equiv_pos_as_xyz
'x, y, z'
_cell_length_a     38.971531
_cell_length_b     34.190906
_cell_length_c     38.693468
_cell_angle_alpha  89.201393
_cell_angle_beta   83.774467
_cell_angle_gamma 103.86227
loop_
_atom_site_label
_atom_site_type_symbol
_atom_site_fract_x
_atom_site_fract_y
_atom_site_fract_z
_atom_type_partial_charge
H0 H 0.1273 0.16477 0.22616 0.0
H1 H 0.21675 0.16055 0.15269 0.0
H2 H 0.21297 0.12074 0.2598 0.0
H3 H 0.19739 0.21173 0.1254 0.0
C4 C 0.16861 0.20322 0.13106 0.0
C5 C 0.15309 0.15801 0.22063 0.0
C6 C 0.16876 0.14336 0.24729 0.0
C7 C 0.17021 0.16445 0.18676 0.0
C8 C 0.20351 0.15546 0.17898 0.0
C9 C 0.21935 0.13934 0.20517 0.0
C10 C 0.20151 0.13331 0.2393 0.0
N11 N 0.15236 0.17927 0.16137 0.0
H12 H 0.32885 0.91013 0.71425 0.0
H13 H 0.3486 0.84323 0.62401 0.0
H14 H 0.41706 0.85327 0.70436 0.0
H15 H 0.32355 0.88573 0.59843 0.0
C16 C 0.30196 0.88935 0.61735 0.0
C17 C 0.3446 0.89224 0.69993 0.0
C18 C 0.37401 0.88328 0.71389 0.0
C19 C 0.33557 0.87883 0.66721 0.0
C20 C 0.35562 0.85505 0.64877 0.0
C21 C 0.38477 0.84565 0.66223 0.0
C22 C 0.39373 0.85955 0.69476 0.0
N23 N 0.30635 0.88958 0.65346 0.0
H24 H 0.70479 0.40874 0.79763 0.0
H25 H 0.60098 0.32862 0.81806 0.0
H26 H 0.68382 0.31811 0.88035 0.0
H27 H 0.59675 0.34698 0.76186 0.0
C28 C 0.6115 0.37832 0.75892 0.0
C29 C 0.68674 0.38362 0.8126 0.0
C30 C 0.69863 0.36442 0.83959 0.0
C31 C 0.65179 0.37091 0.80453 0.0
C32 C 0.6281 0.33858 0.82404 0.0
C33 C 0.63939 0.31913 0.85152 0.0
C34 C 0.67473 0.33257 0.85921 0.0
N35 N 0.6414 0.39242 0.77738 0.0
H36 H 0.80507 0.62352 0.29706 0.0
H37 H 0.9026 0.71529 0.29369 0.0
H38 H 0.81786 0.71002 0.37661 0.0
H39 H 0.89189 0.7075 0.23105 0.0
C40 C 0.88793 0.67492 0.23179 0.0
C41 C 0.82128 0.64941 0.30833 0.0
C42 C 0.80807 0.66458 0.33898 0.0
C43 C 0.85501 0.66797 0.29165 0.0
C44 C 0.87611 0.70165 0.3062 0.0
C45 C 0.86331 0.71673 0.33747 0.0
C46 C 0.82902 0.69796 0.35343 0.0
N47 N 0.86724 0.65147 0.26066 0.0
H48 H 0.76927 0.83672 0.88395 0.0
H49 H 0.84629 0.8158 0.80312 0.0
H50 H 0.81004 0.92453 0.79911 0.0
H51 H 0.81597 0.75029 0.81757 0.0
C52 C 0.81784 0.75274 0.84533 0.0
C53 C 0.78591 0.84644 0.85962 0.0
C54 C 0.7864 0.88357 0.84302 0.0
C55 C 0.80697 0.82161 0.84507 0.0
C56 C 0.82958 0.83461 0.81418 0.0
C57 C 0.83136 0.87195 0.79762 0.0
C58 C 0.80926 0.89598 0.81199 0.0
N59 N 0.80665 0.78467 0.8627 0.0
H60 H 0.67793 0.12873 0.31895 0.0
H61 H 0.67687 0.2199 0.39429 0.0
H62 H 0.61238 0.21271 0.31063 0.0
H63 H 0.69511 0.17719 0.42779 0.0
C64 C 0.71223 0.16325 0.41063 0.0
C65 C 0.66816 0.15418 0.32838 0.0
C66 C 0.64352 0.16843 0.31065 0.0
C67 C 0.67988 0.17186 0.35893 0.0
C68 C 0.66706 0.20481 0.37168 0.0
C69 C 0.64246 0.21958 0.35445 0.0
C70 C 0.63107 0.20118 0.32405 0.0
N71 N 0.70518 0.15644 0.37556 0.0
H72 H 0.30784 0.59137 0.22075 0.0
H73 H 0.4101 0.67607 0.20285 0.0
H74 H 0.32637 0.68959 0.14442 0.0
H75 H 0.42798 0.6192 0.21603 0.0
C76 C 0.40981 0.60867 0.23944 0.0
C77 C 0.32519 0.6178 0.20697 0.0
C78 C 0.31228 0.63923 0.18194 0.0
C79 C 0.36069 0.6302 0.21415 0.0
C80 C 0.38309 0.66505 0.19675 0.0
C81 C 0.37052 0.68675 0.17204 0.0
C82 C 0.33535 0.67356 0.16465 0.0
N83 N 0.37317 0.60808 0.23954 0.0
H84 H 0.14211 0.25898 0.75735 0.0
H85 H 0.21935 0.37293 0.74013 0.0
H86 H 0.21803 0.2806 0.66575 0.0
H87 H 0.21511 0.362 0.80305 0.0
C88 C 0.18632 0.35713 0.80636 0.0
C89 C 0.1644 0.27867 0.74155 0.0
C90 C 0.17864 0.26534 0.71033 0.0
C91 C 0.17986 0.31694 0.75307 0.0
C92 C 0.20845 0.34266 0.73218 0.0
C93 C 0.22188 0.33006 0.70023 0.0
C94 C 0.20724 0.29107 0.68994 0.0
N95 N 0.16553 0.32964 0.78506 0.0
Zn96 Zn 0.03338 0.99374 0.53037 0.0
Zn97 Zn 0.96374 0.02559 0.50957 0.0
C98 C 0.08193 0.05621 0.55739 0.0
O99 O 0.10204 0.04477 0.53195 0.0
C100 C 0.93811 0.94471 0.48367 0.0
O101 O 0.91765 0.93708 0.51346 0.0
O102 O 0.07094 0.96166 0.53288 0.0
O103 O 0.98735 0.95875 0.55248 0.0
O104 O 0.95668 0.00518 0.55989 0.0
C105 C 0.0809 0.95504 0.56227 0.0
O106 O 0.06463 0.96637 0.59052 0.0
O107 O 0.04868 0.04038 0.56116 0.0
C108 C 0.91143 0.05489 0.47361 0.0
O109 O 0.92545 0.0392 0.4464 0.0
O110 O 0.92366 0.05296 0.50268 0.0
O111 O 0.01048 0.06433 0.49229 0.0
O112 O 0.03718 0.01508 0.48106 0.0
O113 O 0.9591 0.97928 0.47738 0.0
C114 C 0.96456 0.97339 0.57048 0.0
C115 C 0.0334 0.05011 0.47388 0.0
Zn116 Zn 0.52652 0.99462 0.98125 0.0
Zn117 Zn 0.47859 0.03266 0.05764 0.0
C118 C 0.48689 0.95747 0.92718 0.0
O119 O 0.49948 0.92734 0.93727 0.0
C120 C 0.52098 0.08394 0.10457 0.0
O121 O 0.49726 0.10509 0.10202 0.0
O122 O 0.57134 0.98049 0.95999 0.0
O123 O 0.54056 0.05222 0.9961 0.0
O124 O 0.48824 0.06435 0.01157 0.0
C125 C 0.59453 0.00565 0.93997 0.0
O126 O 0.58901 0.04118 0.93302 0.0
O127 O 0.49432 0.99048 0.94278 0.0
C128 C 0.42804 0.04011 0.11601 0.0
O129 O 0.44884 0.02372 0.133 0.0
O130 O 0.4349 0.04606 0.0832 0.0
O131 O 0.46887 0.97197 0.05904 0.0
O132 O 0.50411 0.9512 0.01793 0.0
O133 O 0.51963 0.05278 0.08663 0.0
C134 C 0.51881 0.07427 0.99418 0.0
C135 C 0.48146 0.94427 0.04486 0.0
Zn136 Zn 0.51106 0.49138 0.49635 0.0
Zn137 Zn 0.49365 0.56311 0.53707 0.0
C138 C 0.5864 0.53313 0.48183 0.0
O139 O 0.59256 0.50558 0.50269 0.0
C140 C 0.43784 0.51368 0.58321 0.0
O141 O 0.45752 0.53224 0.60637 0.0
O142 O 0.51923 0.4426 0.47049 0.0
O143 O 0.51135 0.48151 0.54816 0.0
O144 O 0.53263 0.5455 0.5585 0.0
C145 C 0.53476 0.41695 0.48164 0.0
O146 O 0.54299 0.4186 0.51371 0.0
O147 O 0.55458 0.53353 0.47793 0.0
C148 C 0.49653 0.6486 0.54235 0.0
O149 O 0.51399 0.65066 0.51111 0.0
O150 O 0.48632 0.61465 0.55887 0.0
O151 O 0.49884 0.57191 0.48511 0.0
O152 O 0.47068 0.50955 0.47677 0.0
O153 O 0.44825 0.52164 0.55107 0.0
C154 C 0.52895 0.50832 0.56626 0.0
C155 C 0.48003 0.5466 0.46678 0.0
Zn156 Zn 0.97213 0.51612 0.9708 0.0
Zn157 Zn 0.03756 0.47859 0.04241 0.0
C158 C 0.92954 0.47682 0.92292 0.0
O159 O 0.95773 0.49849 0.90369 0.0
C160 C 0.09504 0.504 0.08388 0.0
O161 O 0.08049 0.46861 0.09942 0.0
O162 O 0.96782 0.57138 0.95657 0.0
O163 O 0.97737 0.50949 0.02229 0.0
O164 O 0.99608 0.49402 0.0709 0.0
C165 C 0.93801 0.58017 0.96381 0.0
O166 O 0.91258 0.55494 0.98373 0.0
O167 O 0.92858 0.47774 0.95587 0.0
C168 C 0.06875 0.41214 0.03929 0.0
O169 O 0.0946 0.44072 0.02346 0.0
O170 O 0.03937 0.42047 0.04998 0.0
O171 O 0.03198 0.48978 0.99248 0.0
O172 O 0.01522 0.50346 0.94285 0.0
O173 O 0.08181 0.51512 0.05784 0.0
C174 C 0.97562 0.51045 0.05527 0.0
C175 C 0.0373 0.49135 0.95955 0.0
H176 H 0.15818 0.07878 0.29358 0.0
H177 H 0.13775 0.1973 0.28209 0.0
H178 H 0.10337 0.18796 0.34033 0.0
H179 H 0.07373 0.03041 0.33502 0.0
H180 H 0.08947 0.9988 0.36415 0.0
H181 H 0.11482 0.01601 0.32277 0.0
H182 H 0.17019 0.04711 0.35374 0.0
H183 H 0.14503 0.02978 0.39526 0.0
H184 H 0.16686 0.08241 0.38739 0.0
H185 H 0.06785 0.16388 0.39798 0.0
H186 H 0.0346 0.12705 0.45144 0.0
H187 H 0.07914 0.02481 0.42549 0.0
C188 C 0.14708 0.10306 0.30364 0.0
C189 C 0.15055 0.13872 0.28334 0.0
C190 C 0.13507 0.16955 0.29711 0.0
C191 C 0.11569 0.16464 0.33021 0.0
C192 C 0.1122 0.12882 0.3493 0.0
C193 C 0.12763 0.09865 0.33664 0.0
C194 C 0.1185 0.06235 0.36174 0.0
C195 C 0.0979 0.02468 0.34491 0.0
C196 C 0.15215 0.055 0.37534 0.0
C197 C 0.09503 0.07656 0.39015 0.0
C198 C 0.09187 0.11504 0.38261 0.0
C199 C 0.0704 0.13387 0.40437 0.0
C200 C 0.05155 0.11268 0.43462 0.0
C201 C 0.0543 0.0731 0.44274 0.0
C202 C 0.07661 0.05513 0.42022 0.0
H203 H 0.40086 0.84709 0.76552 0.0
H204 H 0.37418 0.95879 0.7377 0.0
H205 H 0.3968 0.98869 0.79094 0.0
H206 H 0.38035 0.85052 0.85946 0.0
H207 H 0.41732 0.83048 0.86866 0.0
H208 H 0.39631 0.81684 0.82985 0.0
H209 H 0.45719 0.84184 0.79232 0.0
H210 H 0.47836 0.8556 0.83097 0.0
H211 H 0.4828 0.8927 0.79617 0.0
H212 H 0.42593 0.00797 0.84579 0.0
H213 H 0.45874 0.01456 0.89751 0.0
H214 H 0.46761 0.89087 0.88835 0.0
C215 C 0.39963 0.87782 0.77058 0.0
C216 C 0.38547 0.90041 0.7473 0.0
C217 C 0.3842 0.94045 0.7553 0.0
C218 C 0.39723 0.95786 0.78543 0.0
C219 C 0.41148 0.93492 0.80745 0.0
C220 C 0.41265 0.89571 0.80043 0.0
C221 C 0.43062 0.87802 0.82748 0.0
C222 C 0.40459 0.84183 0.84756 0.0
C223 C 0.46423 0.86637 0.81073 0.0
C224 C 0.43989 0.9136 0.85054 0.0
C225 C 0.42844 0.94607 0.83873 0.0
C226 C 0.4348 0.98262 0.85538 0.0
C227 C 0.45349 0.98609 0.88475 0.0
C228 C 0.46575 0.95326 0.89711 0.0
C229 C 0.45854 0.91654 0.87974 0.0
H230 H 0.56615 0.35691 0.70952 0.0
H231 H 0.63748 0.46014 0.74862 0.0
H232 H 0.6236 0.50437 0.70398 0.0
H233 H 0.58856 0.38748 0.61888 0.0
H234 H 0.54391 0.36909 0.60788 0.0
H235 H 0.55863 0.34547 0.64352 0.0
H236 H 0.50572 0.35779 0.68497 0.0
H237 H 0.49081 0.38137 0.64944 0.0
H238 H 0.49944 0.4082 0.68857 0.0
H239 H 0.60201 0.53752 0.65532 0.0
H240 H 0.57516 0.55718 0.60497 0.0
H241 H 0.51887 0.43232 0.5962 0.0
C242 C 0.57869 0.38887 0.70869 0.0
C243 C 0.60287 0.40509 0.73248 0.0
C244 C 0.61896 0.44699 0.73058 0.0
C245 C 0.6112 0.4724 0.70534 0.0
C246 C 0.58742 0.45544 0.68212 0.0
C247 C 0.57146 0.41465 0.68344 0.0
C248 C 0.5474 0.40407 0.65493 0.0
C249 C 0.56042 0.3748 0.62982 0.0
C250 C 0.50854 0.38685 0.67041 0.0
C251 C 0.55235 0.4453 0.63743 0.0
C252 C 0.57541 0.47451 0.65363 0.0
C253 C 0.58394 0.51491 0.64237 0.0
C254 C 0.56851 0.52577 0.61375 0.0
C255 C 0.54494 0.49633 0.59654 0.0
C256 C 0.53688 0.45555 0.60865 0.0
H257 H 0.8982 0.59857 0.22734 0.0
H258 H 0.90147 0.7063 0.16538 0.0
H259 H 0.91768 0.67245 0.11197 0.0
H260 H 0.97443 0.57702 0.18096 0.0
H261 H 0.95759 0.52306 0.18512 0.0
H262 H 0.94289 0.55447 0.21758 0.0
H263 H 0.87737 0.5229 0.20791 0.0
H264 H 0.89195 0.49164 0.1751 0.0
H265 H 0.86405 0.52427 0.1648 0.0
H266 H 0.9351 0.6275 0.06584 0.0
H267 H 0.96003 0.57852 0.03136 0.0
H268 H 0.94781 0.50118 0.12379 0.0
C269 C 0.9019 0.61482 0.20245 0.0
C270 C 0.89817 0.6548 0.20019 0.0
C271 C 0.90409 0.67554 0.16742 0.0
C272 C 0.91302 0.65648 0.13703 0.0
C273 C 0.9163 0.61687 0.14007 0.0
C274 C 0.91142 0.59649 0.17201 0.0
C275 C 0.91959 0.5555 0.16856 0.0
C276 C 0.95046 0.55236 0.18927 0.0
C277 C 0.88625 0.52158 0.17976 0.0
C278 C 0.93033 0.5562 0.12974 0.0
C279 C 0.92751 0.59149 0.11368 0.0
C280 C 0.93702 0.59956 0.07808 0.0
C281 C 0.95071 0.57133 0.05858 0.0
C282 C 0.95505 0.53572 0.07475 0.0
C283 C 0.94425 0.5279 0.11069 0.0
H284 H 0.24494 0.10788 0.14494 0.0
H285 H 0.2732 0.14603 0.24698 0.0
H286 H 0.32846 0.12321 0.23565 0.0
H287 H 0.27937 0.021 0.1414 0.0
H288 H 0.29675 0.02857 0.09606 0.0
H289 H 0.25889 0.04739 0.11208 0.0
H290 H 0.29195 0.11933 0.08835 0.0
H291 H 0.3298 0.10066 0.07194 0.0
H292 H 0.33527 0.14188 0.10101 0.0
H293 H 0.37918 0.093 0.21469 0.0
H294 H 0.42512 0.06407 0.18288 0.0
H295 H 0.36696 0.0514 0.09255 0.0
C296 C 0.2629 0.11214 0.16478 0.0
C297 C 0.25411 0.12827 0.19715 0.0
C298 C 0.27853 0.13273 0.22236 0.0
C299 C 0.31024 0.12014 0.21609 0.0
C300 C 0.31765 0.1038 0.18422 0.0
C301 C 0.29503 0.10043 0.15872 0.0
C302 C 0.30978 0.0827 0.12635 0.0
C303 C 0.2847 0.04253 0.11853 0.0
C304 C 0.31714 0.11295 0.09507 0.0
C305 C 0.34406 0.07626 0.13782 0.0
C306 C 0.34787 0.08825 0.17143 0.0
C307 C 0.37667 0.08386 0.18823 0.0
C308 C 0.40249 0.06718 0.17004 0.0
C309 C 0.39959 0.05563 0.13527 0.0
C310 C 0.36996 0.06029 0.11902 0.0
H311 H 0.24343 0.9101 0.65312 0.0
H312 H 0.28706 0.88239 0.55101 0.0
H313 H 0.23397 0.8927 0.52625 0.0
H314 H 0.15057 0.86292 0.64467 0.0
H315 H 0.13396 0.90153 0.66733 0.0
H316 H 0.1747 0.89032 0.67754 0.0
H317 H 0.2079 0.96528 0.66494 0.0
H318 H 0.16725 0.97668 0.65479 0.0
H319 H 0.20636 0.98911 0.62346 0.0
H320 H 0.17722 0.90785 0.51202 0.0
H321 H 0.12113 0.92874 0.50911 0.0
H322 H 0.11412 0.94721 0.62022 0.0
C323 C 0.24163 0.90593 0.62563 0.0
C324 C 0.26927 0.89527 0.60392 0.0
C325 C 0.26612 0.89049 0.56804 0.0
C326 C 0.23605 0.89619 0.55375 0.0
C327 C 0.2093 0.9068 0.57569 0.0
C328 C 0.21176 0.91177 0.61084 0.0
C329 C 0.1797 0.9247 0.62829 0.0
C330 C 0.15848 0.89297 0.6561 0.0
C331 C 0.19099 0.96641 0.64377 0.0
C332 C 0.15906 0.92639 0.59745 0.0
C333 C 0.17653 0.91577 0.5674 0.0
C334 C 0.16316 0.91604 0.53542 0.0
C335 C 0.13125 0.92792 0.53402 0.0
C336 C 0.11305 0.93944 0.5644 0.0
C337 C 0.12713 0.93823 0.59654 0.0
H338 H 0.72463 0.38109 0.90255 0.0
H339 H 0.75751 0.37684 0.79217 0.0
H340 H 0.82038 0.40025 0.80263 0.0
H341 H 0.7881 0.47108 0.91633 0.0
H342 H 0.79597 0.45548 0.95885 0.0
H343 H 0.75365 0.43541 0.94325 0.0
H344 H 0.76058 0.36278 0.95356 0.0
H345 H 0.80299 0.38267 0.96917 0.0
H346 H 0.79972 0.3488 0.93373 0.0
H347 H 0.87879 0.42712 0.82405 0.0
H348 H 0.92987 0.45825 0.85487 0.0
H349 H 0.86011 0.44581 0.95191 0.0
C350 C 0.74516 0.38453 0.88072 0.0
C351 C 0.7363 0.37714 0.84653 0.0
C352 C 0.76378 0.38264 0.8185 0.0
C353 C 0.79952 0.39565 0.82422 0.0
C354 C 0.80738 0.40304 0.85813 0.0
C355 C 0.78108 0.3978 0.88596 0.0
C356 C 0.79684 0.41015 0.9195 0.0
C357 C 0.78281 0.44511 0.93541 0.0
C358 C 0.7896 0.37393 0.94552 0.0
C359 C 0.83604 0.42368 0.90604 0.0
C360 C 0.84142 0.41892 0.8706 0.0
C361 C 0.87499 0.43073 0.85183 0.0
C362 C 0.90384 0.44847 0.86961 0.0
C363 C 0.89902 0.45437 0.90582 0.0
C364 C 0.86469 0.44121 0.92433 0.0
H365 H 0.78811 0.62585 0.40264 0.0
H366 H 0.74671 0.66435 0.31191 0.0
H367 H 0.68518 0.63856 0.34057 0.0
H368 H 0.72066 0.53284 0.41915 0.0
H369 H 0.71901 0.53498 0.4658 0.0
H370 H 0.75955 0.55805 0.43866 0.0
H371 H 0.76062 0.62606 0.46783 0.0
H372 H 0.71986 0.60328 0.49484 0.0
H373 H 0.72267 0.64759 0.46784 0.0
H374 H 0.62901 0.61038 0.37932 0.0
H375 H 0.58061 0.57377 0.42254 0.0
H376 H 0.65821 0.54965 0.48721 0.0
C377 C 0.76594 0.62867 0.38896 0.0
C378 C 0.77167 0.64697 0.35528 0.0
C379 C 0.74244 0.65015 0.33774 0.0
C380 C 0.7076 0.63588 0.35387 0.0
C381 C 0.70271 0.61821 0.38728 0.0
C382 C 0.731 0.61392 0.40444 0.0
C383 C 0.7183 0.59186 0.43943 0.0
C384 C 0.73007 0.55207 0.44082 0.0
C385 C 0.73113 0.61882 0.46924 0.0
C386 C 0.67843 0.58437 0.43924 0.0
C387 C 0.67012 0.60043 0.40915 0.0
C388 C 0.63514 0.59758 0.40295 0.0
C389 C 0.60784 0.57692 0.42781 0.0
C390 C 0.61565 0.55889 0.45828 0.0
C391 C 0.65146 0.56312 0.46418 0.0
H392 H 0.19202 0.27042 0.08804 0.0
H393 H 0.096 0.1849 0.13332 0.0
H394 H 0.0595 0.22585 0.10901 0.0
H395 H 0.16276 0.3563 0.10722 0.0
H396 H 0.18356 0.38488 0.06781 0.0
H397 H 0.20221 0.34603 0.08419 0.0
H398 H 0.19802 0.31101 0.02527 0.0
H399 H 0.17948 0.34997 0.00861 0.0
H400 H 0.15588 0.29781 0.00781 0.0
H401 H 0.03364 0.28022 0.08667 0.0
H402 H 0.02051 0.34334 0.06618 0.0
H403 H 0.13312 0.39294 0.03455 0.0
C404 C 0.16331 0.25983 0.09193 0.0
C405 C 0.14684 0.22457 0.11245 0.0
C406 C 0.1092 0.21192 0.11769 0.0
C407 C 0.08821 0.23489 0.10389 0.0
C408 C 0.10524 0.27026 0.08469 0.0
C409 C 0.14194 0.28252 0.07839 0.0
C410 C 0.1536 0.3234 0.05944 0.0
C411 C 0.17689 0.35447 0.08096 0.0
C412 C 0.17288 0.32035 0.02312 0.0
C413 C 0.11781 0.33267 0.05705 0.0
C414 C 0.09022 0.30152 0.07148 0.0
C415 C 0.05496 0.30453 0.07469 0.0
C416 C 0.04775 0.34051 0.0631 0.0
C417 C 0.07572 0.3729 0.04853 0.0
C418 C 0.11106 0.36849 0.04502 0.0
H419 H 0.65408 0.24967 0.87586 0.0
H420 H 0.56849 0.3107 0.87428 0.0
H421 H 0.52778 0.25401 0.90934 0.0
H422 H 0.60143 0.14829 0.87132 0.0
H423 H 0.62576 0.12728 0.90074 0.0
H424 H 0.6476 0.17183 0.87421 0.0
H425 H 0.66546 0.20995 0.92949 0.0
H426 H 0.6437 0.16548 0.95611 0.0
H427 H 0.63148 0.2124 0.96437 0.0
H428 H 0.49664 0.19081 0.94571 0.0
H429 H 0.47787 0.12664 0.98065 0.0
H430 H 0.58498 0.10951 0.96066 0.0
C431 C 0.62685 0.25137 0.88303 0.0
C432 C 0.61455 0.28474 0.87218 0.0
C433 C 0.57849 0.28525 0.88176 0.0
C434 C 0.55519 0.25329 0.90186 0.0
C435 C 0.56834 0.22107 0.91229 0.0
C436 C 0.60336 0.21994 0.90323 0.0
C437 C 0.61116 0.18236 0.91838 0.0
C438 C 0.62212 0.15588 0.88943 0.0
C439 C 0.63963 0.19321 0.94359 0.0
C440 C 0.57507 0.16255 0.93751 0.0
C441 C 0.55065 0.18518 0.93357 0.0
C442 C 0.51555 0.17284 0.94894 0.0
C443 C 0.50516 0.13636 0.96878 0.0
C444 C 0.52984 0.11274 0.97318 0.0
C445 C 0.56526 0.12636 0.95739 0.0
H446 H 0.86676 0.73019 0.40691 0.0
H447 H 0.90737 0.78518 0.30411 0.0
H448 H 0.93664 0.84765 0.33102 0.0
H449 H 0.84197 0.81426 0.44039 0.0
H450 H 0.85281 0.80668 0.48371 0.0
H451 H 0.84053 0.76422 0.45683 0.0
H452 H 0.89956 0.74449 0.46443 0.0
H453 H 0.91199 0.78683 0.49155 0.0
H454 H 0.9413 0.78111 0.45361 0.0
H455 H 0.95659 0.90625 0.36911 0.0
H456 H 0.96417 0.95641 0.41473 0.0
H457 H 0.90615 0.86407 0.49187 0.0
C458 C 0.88201 0.75518 0.38991 0.0
C459 C 0.88467 0.75263 0.3533 0.0
C460 C 0.90536 0.78602 0.3322 0.0
C461 C 0.92195 0.82175 0.34726 0.0
C462 C 0.91757 0.8236 0.38341 0.0
C463 C 0.89812 0.79112 0.40443 0.0
C464 C 0.89446 0.80182 0.44224 0.0
C465 C 0.85511 0.79643 0.45661 0.0
C466 C 0.91294 0.77709 0.46425 0.0
C467 C 0.9141 0.84579 0.43919 0.0
C468 C 0.92784 0.85763 0.40517 0.0
C469 C 0.94619 0.89722 0.39586 0.0
C470 C 0.95032 0.92549 0.42196 0.0
C471 C 0.93564 0.91413 0.45684 0.0
C472 C 0.91761 0.87366 0.46546 0.0
H473 H 0.39792 0.77239 0.67803 0.0
H474 H 0.42051 0.86818 0.59824 0.0
H475 H 0.45532 0.83009 0.56068 0.0
H476 H 0.48319 0.74347 0.66308 0.0
H477 H 0.46286 0.69035 0.66998 0.0
H478 H 0.44253 0.72668 0.69195 0.0
H479 H 0.38366 0.69616 0.66632 0.0
H480 H 0.4038 0.6598 0.64428 0.0
H481 H 0.38405 0.69221 0.61987 0.0
H482 H 0.4856 0.78105 0.5311 0.0
H483 H 0.50665 0.72244 0.50957 0.0
H484 H 0.46237 0.65634 0.60732 0.0
C485 C 0.41076 0.78545 0.65286 0.0
C486 C 0.40698 0.82328 0.64098 0.0
C487 C 0.42334 0.83926 0.60768 0.0
C488 C 0.4432 0.81794 0.5863 0.0
C489 C 0.44617 0.7805 0.59851 0.0
C490 C 0.43026 0.7642 0.6309 0.0
C491 C 0.43556 0.72214 0.63662 0.0
C492 C 0.45734 0.72059 0.66723 0.0
C493 C 0.39963 0.69073 0.64208 0.0
C494 C 0.45656 0.71723 0.60225 0.0
C495 C 0.46276 0.7515 0.58088 0.0
C496 C 0.48103 0.75408 0.54762 0.0
C497 C 0.49292 0.72058 0.53564 0.0
C498 C 0.4862 0.68471 0.55669 0.0
C499 C 0.46803 0.68331 0.59059 0.0
H500 H 0.82225 0.91512 0.73955 0.0
H501 H 0.8988 0.86077 0.78348 0.0
H502 H 0.93957 0.87897 0.72961 0.0
H503 H 0.83848 0.88853 0.6518 0.0
H504 H 0.83529 0.93584 0.63291 0.0
H505 H 0.81112 0.91776 0.67468 0.0
H506 H 0.84112 0.98426 0.70199 0.0
H507 H 0.86516 0.00269 0.66023 0.0
H508 H 0.88899 0.00076 0.69738 0.0
H509 H 0.97073 0.89937 0.67045 0.0
H510 H 0.99395 0.92829 0.61148 0.0
H511 H 0.90067 0.97596 0.60743 0.0
C512 C 0.84774 0.90747 0.73813 0.0
C513 C 0.8568 0.88564 0.76571 0.0
C514 C 0.89052 0.87621 0.76244 0.0
C515 C 0.91409 0.88671 0.73201 0.0
C516 C 0.90402 0.90746 0.70523 0.0
C517 C 0.87201 0.91846 0.70813 0.0
C518 C 0.86839 0.94194 0.67572 0.0
C519 C 0.83642 0.91967 0.65772 0.0
C520 C 0.86577 0.98497 0.68436 0.0
C521 C 0.90329 0.94205 0.65414 0.0
C522 C 0.92315 0.9215 0.67158 0.0
C523 C 0.95567 0.91596 0.65665 0.0
C524 C 0.96855 0.93236 0.62309 0.0
C525 C 0.94925 0.95463 0.60505 0.0
C526 C 0.91614 0.95945 0.62081 0.0
H527 H 0.57723 0.15951 0.28818 0.0
H528 H 0.68074 0.13543 0.25836 0.0
H529 H 0.66028 0.10863 0.20324 0.0
H530 H 0.52343 0.07572 0.24861 0.0
H531 H 0.49419 0.10476 0.23441 0.0
H532 H 0.51592 0.11816 0.27283 0.0
H533 H 0.54266 0.19061 0.24654 0.0
H534 H 0.52107 0.17743 0.20803 0.0
H535 H 0.56854 0.1977 0.2044 0.0
H536 H 0.62776 0.08477 0.15026 0.0
H537 H 0.58761 0.06988 0.10396 0.0
H538 H 0.5091 0.11752 0.16668 0.0
C539 C 0.59598 0.14907 0.27013 0.0
C540 C 0.63082 0.14988 0.27801 0.0
C541 C 0.65374 0.13466 0.25356 0.0
C542 C 0.64245 0.11962 0.22193 0.0
C543 C 0.60826 0.12033 0.21482 0.0
C544 C 0.58551 0.13496 0.23823 0.0
C545 C 0.55085 0.13468 0.22386 0.0
C546 C 0.51924 0.10665 0.24626 0.0
C547 C 0.54548 0.17766 0.22051 0.0
C548 C 0.5576 0.11777 0.18856 0.0
C549 C 0.5906 0.10903 0.18391 0.0
C550 C 0.60201 0.09184 0.15359 0.0
C551 C 0.5791 0.08349 0.12745 0.0
C552 C 0.54557 0.09315 0.13156 0.0
C553 C 0.53489 0.11056 0.16251 0.0
H554 H 0.37875 0.56078 0.29845 0.0
H555 H 0.47632 0.64317 0.25256 0.0
H556 H 0.50431 0.63628 0.30581 0.0
H557 H 0.38247 0.59127 0.38706 0.0
H558 H 0.36666 0.54091 0.40617 0.0
H559 H 0.35349 0.55306 0.36491 0.0
H560 H 0.37768 0.49512 0.33705 0.0
H561 H 0.39091 0.48279 0.37824 0.0
H562 H 0.42319 0.49368 0.34017 0.0
H563 H 0.52056 0.62426 0.36436 0.0
H564 H 0.527 0.60178 0.42353 0.0
H565 H 0.42175 0.52104 0.43068 0.0
C566 C 0.40593 0.57738 0.29983 0.0
C567 C 0.42541 0.6029 0.27169 0.0
C568 C 0.46107 0.62363 0.27398 0.0
C569 C 0.47713 0.61997 0.30409 0.0
C570 C 0.45738 0.59473 0.33144 0.0
C571 C 0.4228 0.5732 0.32952 0.0
C572 C 0.40836 0.54683 0.36232 0.0
C573 C 0.37581 0.55874 0.38123 0.0
C574 C 0.39952 0.50194 0.35393 0.0
C575 C 0.44008 0.5574 0.383 0.0
C576 C 0.46781 0.58553 0.36472 0.0
C577 C 0.49928 0.60181 0.37878 0.0
C578 C 0.50266 0.5889 0.41241 0.0
C579 C 0.47509 0.55933 0.43141 0.0
C580 C 0.44344 0.5432 0.41643 0.0
H581 H 0.11749 0.36526 0.81454 0.0
H582 H 0.21751 0.39801 0.8589 0.0
H583 H 0.19044 0.43596 0.90385 0.0
H584 H 0.09565 0.46018 0.82551 0.0
H585 H 0.04857 0.43869 0.83561 0.0
H586 H 0.07534 0.41259 0.80821 0.0
H587 H 0.05383 0.34905 0.84957 0.0
H588 H 0.02684 0.37489 0.87699 0.0
H589 H 0.05915 0.35331 0.89518 0.0
H590 H 0.15195 0.47029 0.944 0.0
H591 H 0.10552 0.49992 0.97482 0.0
H592 H 0.03218 0.44659 0.90222 0.0
C593 C 0.1336 0.38006 0.83392 0.0
C594 C 0.16946 0.37847 0.83364 0.0
C595 C 0.18988 0.3988 0.85898 0.0
C596 C 0.17476 0.42037 0.88452 0.0
C597 C 0.13932 0.42157 0.88402 0.0
C598 C 0.11907 0.4021 0.85926 0.0
C599 C 0.08202 0.40915 0.86361 0.0
C600 C 0.075 0.43149 0.83132 0.0
C601 C 0.0538 0.36922 0.87184 0.0
C602 C 0.08453 0.43561 0.89467 0.0
C603 C 0.11766 0.44222 0.9063 0.0
C604 C 0.12592 0.46529 0.9351 0.0
C605 C 0.09947 0.4818 0.95252 0.0
C606 C 0.06548 0.47521 0.9409 0.0
C607 C 0.05813 0.45222 0.91144 0.0
H608 H 0.71763 0.8593 0.87506 0.0
H609 H 0.80207 0.96637 0.8447 0.0
H610 H 0.76212 0.00904 0.86592 0.0
H611 H 0.64553 0.8973 0.85315 0.0
H612 H 0.61526 0.87342 0.89016 0.0
H613 H 0.65046 0.85105 0.87266 0.0
H614 H 0.67333 0.85197 0.93316 0.0
H615 H 0.63804 0.87411 0.95092 0.0
H616 H 0.68368 0.89874 0.95518 0.0
H617 H 0.7121 0.04019 0.88783 0.0
H618 H 0.65678 0.05747 0.91283 0.0
H619 H 0.60651 0.93024 0.93262 0.0
C620 C 0.72802 0.89168 0.87333 0.0
C621 C 0.76301 0.90934 0.8578 0.0
C622 C 0.77518 0.95198 0.85571 0.0
C623 C 0.75277 0.97654 0.86793 0.0
C624 C 0.71837 0.9581 0.88265 0.0
C625 C 0.70618 0.91666 0.8858 0.0
C626 C 0.66812 0.90444 0.90288 0.0
C627 C 0.64339 0.88012 0.87823 0.0
C628 C 0.66566 0.88093 0.9376 0.0
C629 C 0.66074 0.94552 0.90858 0.0
C630 C 0.68999 0.97607 0.8965 0.0
C631 C 0.68914 0.01654 0.8977 0.0
C632 C 0.65758 0.02605 0.91183 0.0
C633 C 0.6275 0.99521 0.92488 0.0
C634 C 0.62924 0.95447 0.92323 0.0
H635 H 0.76143 0.12445 0.37836 0.0
H636 H 0.72816 0.17107 0.47681 0.0
H637 H 0.77552 0.14905 0.50355 0.0
H638 H 0.78251 0.0363 0.41438 0.0
H639 H 0.82071 0.03863 0.38296 0.0
H640 H 0.78436 0.05828 0.37139 0.0
H641 H 0.82797 0.12742 0.35404 0.0
H642 H 0.86445 0.10798 0.3656 0.0
H643 H 0.85593 0.15274 0.38519 0.0
H644 H 0.82619 0.12175 0.51985 0.0
H645 H 0.87672 0.0909 0.5246 0.0
H646 H 0.8776 0.0619 0.41564 0.0
C647 C 0.76413 0.13 0.40553 0.0
C648 C 0.74107 0.14947 0.4256 0.0
C649 C 0.74553 0.15619 0.46103 0.0
C650 C 0.77235 0.14381 0.47643 0.0
C651 C 0.79464 0.1247 0.45606 0.0
C652 C 0.79087 0.1178 0.42138 0.0
C653 C 0.81841 0.09651 0.40543 0.0
C654 C 0.80041 0.05496 0.3928 0.0
C655 C 0.84316 0.12274 0.37581 0.0
C656 C 0.83812 0.0925 0.43656 0.0
C657 C 0.82396 0.10899 0.46548 0.0
C658 C 0.83753 0.10877 0.49736 0.0
C659 C 0.86628 0.09115 0.4998 0.0
C660 C 0.88128 0.07395 0.47055 0.0
C661 C 0.86688 0.07481 0.43852 0.0
H662 H 0.27388 0.5613 0.17443 0.0
H663 H 0.26735 0.68613 0.16686 0.0
H664 H 0.21105 0.66497 0.14117 0.0
H665 H 0.24066 0.53022 0.09669 0.0
H666 H 0.21456 0.48133 0.11315 0.0
H667 H 0.25347 0.50553 0.13296 0.0
H668 H 0.21581 0.49988 0.19308 0.0
H669 H 0.17686 0.475 0.17355 0.0
H670 H 0.17671 0.51966 0.19771 0.0
H671 H 0.15963 0.63148 0.10981 0.0
H672 H 0.11084 0.5862 0.08324 0.0
H673 H 0.14734 0.48275 0.11598 0.0
C674 C 0.26018 0.58411 0.16828 0.0
C675 C 0.27549 0.62549 0.17215 0.0
C676 C 0.2567 0.65433 0.16336 0.0
C677 C 0.22458 0.64263 0.14889 0.0
C678 C 0.21102 0.60184 0.14408 0.0
C679 C 0.22768 0.57288 0.1543 0.0
C680 C 0.20738 0.53105 0.14607 0.0
C681 C 0.2304 0.51087 0.12071 0.0
C682 C 0.19335 0.50486 0.1796 0.0
C683 C 0.17728 0.54122 0.12891 0.0
C684 C 0.18008 0.58227 0.12774 0.0
C685 C 0.15672 0.5992 0.11114 0.0
C686 C 0.12932 0.57335 0.0959 0.0
C687 C 0.12528 0.53113 0.09789 0.0
C688 C 0.1496 0.51495 0.11457 0.0
H689 H 0.28324 0.38013 0.71821 0.0
H690 H 0.22554 0.34169 0.62986 0.0
H691 H 0.27468 0.38416 0.59041 0.0
H692 H 0.32019 0.48388 0.6865 0.0
H693 H 0.3621 0.48716 0.70333 0.0
H694 H 0.32209 0.45407 0.72473 0.0
H695 H 0.35178 0.39391 0.71863 0.0
H696 H 0.39178 0.42675 0.697 0.0
H697 H 0.36982 0.38234 0.67617 0.0
H698 H 0.33035 0.42898 0.56042 0.0
H699 H 0.38842 0.47583 0.54184 0.0
H700 H 0.40962 0.48638 0.64969 0.0
C701 C 0.28079 0.38107 0.69062 0.0
C702 C 0.25071 0.35742 0.67705 0.0
C703 C 0.24862 0.35909 0.64074 0.0
C704 C 0.27629 0.38324 0.61814 0.0
C705 C 0.30579 0.40568 0.63227 0.0
C706 C 0.30819 0.40506 0.66765 0.0
C707 C 0.343 0.43191 0.67597 0.0
C708 C 0.33644 0.4663 0.69899 0.0
C709 C 0.36542 0.40724 0.69294 0.0
C710 C 0.35975 0.44759 0.63973 0.0
C711 C 0.33786 0.43199 0.61493 0.0
C712 C 0.3477 0.44159 0.57958 0.0
C713 C 0.38076 0.46814 0.5693 0.0
C714 C 0.4035 0.48486 0.59431 0.0
C715 C 0.39278 0.47425 0.62996 0.0
H716 H 0.81127 0.71693 0.91049 0.0
H717 H 0.87977 0.74303 0.81286 0.0
H718 H 0.92223 0.70895 0.83603 0.0
H719 H 0.88096 0.7236 0.96912 0.0
H720 H 0.85568 0.68095 0.99632 0.0
H721 H 0.83302 0.71219 0.97411 0.0
H722 H 0.79771 0.64939 0.94541 0.0
H723 H 0.82005 0.61803 0.9677 0.0
H724 H 0.82158 0.61773 0.92098 0.0
H725 H 0.95593 0.67033 0.86857 0.0
H726 H 0.9748 0.62136 0.90497 0.0
H727 H 0.88211 0.61501 0.97997 0.0
C728 C 0.83557 0.71596 0.89439 0.0
C729 C 0.8428 0.73291 0.86018 0.0
C730 C 0.87413 0.73026 0.83924 0.0
C731 C 0.89843 0.71128 0.85225 0.0
C732 C 0.8906 0.69455 0.88605 0.0
C733 C 0.85968 0.69607 0.90669 0.0
C734 C 0.85576 0.67159 0.94048 0.0
C735 C 0.8564 0.69871 0.97187 0.0
C736 C 0.82177 0.63714 0.94381 0.0
C737 C 0.88896 0.65561 0.9353 0.0
C738 C 0.9091 0.67009 0.90413 0.0
C739 C 0.94048 0.65888 0.89312 0.0
C740 C 0.95106 0.63115 0.91406 0.0
C741 C 0.92991 0.61436 0.94527 0.0
C742 C 0.89886 0.62745 0.95629 0.0
H743 H 0.35742 0.76117 0.16428 0.0
H744 H 0.43637 0.69317 0.13674 0.0
H745 H 0.47371 0.75191 0.10111 0.0
H746 H 0.36444 0.81252 0.08263 0.0
H747 H 0.35941 0.85944 0.10063 0.0
H748 H 0.33953 0.81258 0.12471 0.0
H749 H 0.37298 0.83917 0.17726 0.0
H750 H 0.39276 0.88625 0.15343 0.0
H751 H 0.42068 0.85773 0.17103 0.0
H752 H 0.50007 0.81636 0.06535 0.0
H753 H 0.51676 0.88423 0.03656 0.0
H754 H 0.42172 0.91118 0.08987 0.0
C755 C 0.3827 0.75884 0.15088 0.0
C756 C 0.39413 0.72279 0.15306 0.0
C757 C 0.42739 0.72073 0.13548 0.0
C758 C 0.4486 0.7538 0.11511 0.0
C759 C 0.4363 0.78875 0.11305 0.0
C760 C 0.40438 0.7917 0.13089 0.0
C761 C 0.39736 0.83274 0.12456 0.0
C762 C 0.36316 0.82908 0.10709 0.0
C763 C 0.39587 0.8553 0.1586 0.0
C764 C 0.43009 0.85227 0.09996 0.0
C765 C 0.45208 0.82631 0.09345 0.0
C766 C 0.48325 0.8371 0.07054 0.0
C767 C 0.49239 0.87564 0.05417 0.0
C768 C 0.47063 0.90308 0.06109 0.0
C769 C 0.43907 0.89104 0.08429 0.0
H770 H 0.11305 0.23455 0.68944 0.0
H771 H 0.214 0.20666 0.70111 0.0
H772 H 0.19672 0.14515 0.66809 0.0
H773 H 0.05841 0.12578 0.69119 0.0
H774 H 0.03227 0.13781 0.65872 0.0
H775 H 0.04943 0.17504 0.68908 0.0
H776 H 0.0796 0.22482 0.63747 0.0
H777 H 0.06321 0.18764 0.60697 0.0
H778 H 0.11025 0.21013 0.60484 0.0
H779 H 0.17428 0.09537 0.62555 0.0
H780 H 0.1449 0.05495 0.58002 0.0
H781 H 0.05691 0.11249 0.59616 0.0
C782 C 0.13065 0.21436 0.6863 0.0
C783 C 0.16454 0.22462 0.69814 0.0
C784 C 0.18773 0.19868 0.69256 0.0
C785 C 0.17816 0.16382 0.67383 0.0
C786 C 0.14522 0.15531 0.66108 0.0
C787 C 0.12144 0.17932 0.66753 0.0
C788 C 0.08931 0.16538 0.64787 0.0
C789 C 0.05534 0.15008 0.67324 0.0
C790 C 0.0854 0.199 0.62281 0.0
C791 C 0.09958 0.13107 0.62822 0.0
C792 C 0.13185 0.12572 0.63647 0.0
C793 C 0.14864 0.0986 0.61942 0.0
C794 C 0.13195 0.07614 0.59335 0.0
C795 C 0.09873 0.08073 0.58474 0.0
C796 C 0.08211 0.10815 0.60268 0.0
H797 H 0.6239 0.23633 0.42285 0.0
H798 H 0.62904 0.28164 0.31646 0.0
H799 H 0.60005 0.33465 0.33752 0.0
H800 H 0.54021 0.25424 0.45458 0.0
H801 H 0.55293 0.27097 0.49636 0.0
H802 H 0.57417 0.23609 0.47332 0.0
H803 H 0.63599 0.28453 0.47618 0.0
H804 H 0.61497 0.31933 0.49963 0.0
H805 H 0.64409 0.33602 0.46003 0.0
H806 H 0.56771 0.38053 0.36935 0.0
H807 H 0.54055 0.42179 0.41063 0.0
H808 H 0.55989 0.3506 0.49701 0.0
C809 C 0.61945 0.25773 0.40397 0.0
C810 C 0.62824 0.2541 0.36784 0.0
C811 C 0.6217 0.28282 0.34415 0.0
C812 C 0.6054 0.31329 0.35586 0.0
C813 C 0.59624 0.31528 0.39145 0.0
C814 C 0.60358 0.28881 0.41526 0.0
C815 C 0.59165 0.29837 0.45218 0.0
C816 C 0.56304 0.26279 0.47016 0.0
C817 C 0.62358 0.31028 0.47324 0.0
C818 C 0.57621 0.33411 0.44529 0.0
C819 C 0.57885 0.34303 0.41003 0.0
C820 C 0.56574 0.37407 0.39705 0.0
C821 C 0.55014 0.39719 0.42075 0.0
C822 C 0.54809 0.38952 0.4571 0.0
C823 C 0.56113 0.3573 0.46941 0.0
loop_
_geom_bond_atom_site_label_1
_geom_bond_atom_site_label_2
_geom_bond_distance
_geom_bond_site_symmetry_2
_ccdc_geom_bond_type
H0 C5 0.930 . S
H1 C8 0.930 . S
H2 C10 0.930 . S
H3 C4 1.016 . S
C4 H3 1.016 . S
C4 N11 1.286 . S
C5 H0 0.930 . S
C5 C6 1.397 . S
C5 C7 1.361 . S
C6 C5 1.397 . S
C6 C10 1.390 . S
C7 C5 1.361 . S
C7 C8 1.393 . S
C7 N11 1.413 . S
C8 H1 0.930 . S
C8 C7 1.393 . S
C8 C9 1.399 . S
C9 C8 1.399 . S
C9 C10 1.381 . S
C10 H2 0.930 . S
C10 C6 1.390 . S
C10 C9 1.381 . S
N11 C4 1.286 . S
N11 C7 1.413 . S
H12 C17 0.930 . S
H13 C20 0.930 . S
H14 C22 0.930 . S
H15 C16 1.016 . S
C16 H15 1.016 . S
C16 N23 1.286 . S
C17 H12 0.930 . S
C17 C18 1.397 . S
C17 C19 1.361 . S
C18 C17 1.397 . S
C18 C22 1.390 . S
C19 C17 1.361 . S
C19 C20 1.393 . S
C19 N23 1.413 . S
C20 H13 0.930 . S
C20 C19 1.393 . S
C20 C21 1.399 . S
C21 C20 1.399 . S
C21 C22 1.381 . S
C22 H14 0.930 . S
C22 C18 1.390 . S
C22 C21 1.381 . S
N23 C16 1.286 . S
N23 C19 1.413 . S
H24 C29 0.930 . S
H25 C32 0.930 . S
H26 C34 0.930 . S
H27 C28 1.016 . S
C28 H27 1.016 . S
C28 N35 1.286 . S
C29 H24 0.930 . S
C29 C30 1.397 . S
C29 C31 1.361 . S
C30 C29 1.397 . S
C30 C34 1.390 . S
C31 C29 1.361 . S
C31 C32 1.393 . S
C31 N35 1.413 . S
C32 H25 0.930 . S
C32 C31 1.393 . S
C32 C33 1.399 . S
C33 C32 1.399 . S
C33 C34 1.381 . S
C34 H26 0.930 . S
C34 C30 1.390 . S
C34 C33 1.381 . S
N35 C28 1.286 . S
N35 C31 1.413 . S
H36 C41 0.930 . S
H37 C44 0.930 . S
H38 C46 0.930 . S
H39 C40 1.016 . S
C40 H39 1.016 . S
C40 N47 1.286 . S
C41 H36 0.930 . S
C41 C42 1.397 . S
C41 C43 1.361 . S
C42 C41 1.397 . S
C42 C46 1.390 . S
C43 C41 1.361 . S
C43 C44 1.393 . S
C43 N47 1.413 . S
C44 H37 0.930 . S
C44 C43 1.393 . S
C44 C45 1.399 . S
C45 C44 1.399 . S
C45 C46 1.381 . S
C46 H38 0.930 . S
C46 C42 1.390 . S
C46 C45 1.381 . S
N47 C40 1.286 . S
N47 C43 1.413 . S
H48 C53 0.930 . S
H49 C56 0.930 . S
H50 C58 0.930 . S
H51 C52 1.016 . S
C52 H51 1.016 . S
C52 N59 1.286 . S
C53 H48 0.930 . S
C53 C54 1.397 . S
C53 C55 1.361 . S
C54 C53 1.397 . S
C54 C58 1.390 . S
C55 C53 1.361 . S
C55 C56 1.393 . S
C55 N59 1.413 . S
C56 H49 0.930 . S
C56 C55 1.393 . S
C56 C57 1.399 . S
C57 C56 1.399 . S
C57 C58 1.381 . S
C58 H50 0.930 . S
C58 C54 1.390 . S
C58 C57 1.381 . S
N59 C52 1.286 . S
N59 C55 1.413 . S
H60 C65 0.930 . S
H61 C68 0.930 . S
H62 C70 0.930 . S
H63 C64 1.016 . S
C64 H63 1.016 . S
C64 N71 1.286 . S
C65 H60 0.930 . S
C65 C66 1.397 . S
C65 C67 1.361 . S
C66 C65 1.397 . S
C66 C70 1.390 . S
C67 C65 1.361 . S
C67 C68 1.393 . S
C67 N71 1.413 . S
C68 H61 0.930 . S
C68 C67 1.393 . S
C68 C69 1.399 . S
C69 C68 1.399 . S
C69 C70 1.381 . S
C70 H62 0.930 . S
C70 C66 1.390 . S
C70 C69 1.381 . S
N71 C64 1.286 . S
N71 C67 1.413 . S
H72 C77 0.930 . S
H73 C80 0.930 . S
H74 C82 0.930 . S
H75 C76 1.016 . S
C76 H75 1.016 . S
C76 N83 1.286 . S
C77 H72 0.930 . S
C77 C78 1.397 . S
C77 C79 1.361 . S
C78 C77 1.397 . S
C78 C82 1.390 . S
C79 C77 1.361 . S
C79 C80 1.393 . S
C79 N83 1.413 . S
C80 H73 0.930 . S
C80 C79 1.393 . S
C80 C81 1.399 . S
C81 C80 1.399 . S
C81 C82 1.381 . S
C82 H74 0.930 . S
C82 C78 1.390 . S
C82 C81 1.381 . S
N83 C76 1.286 . S
N83 C79 1.413 . S
H84 C89 0.930 . S
H85 C92 0.930 . S
H86 C94 0.930 . S
H87 C88 1.016 . S
C88 H87 1.016 . S
C88 N95 1.286 . S
C89 H84 0.930 . S
C89 C90 1.397 . S
C89 C91 1.361 . S
C90 C89 1.397 . S
C90 C94 1.390 . S
C91 C89 1.361 . S
C91 C92 1.393 . S
C91 N95 1.413 . S
C92 H85 0.930 . S
C92 C91 1.393 . S
C92 C93 1.399 . S
C93 C92 1.399 . S
C93 C94 1.381 . S
C94 H86 0.930 . S
C94 C90 1.390 . S
C94 C93 1.381 . S
N95 C88 1.286 . S
N95 C91 1.413 . S
Zn96 O102 1.969 1_545 S
Zn96 O103 1.965 1_545 S
Zn96 O107 2.024 . S
Zn96 O112 1.969 . S
Zn97 O104 1.969 . S
Zn97 O110 1.969 1_565 S
Zn97 O111 1.965 1_665 S
Zn97 O113 2.024 . S
C98 O99 1.229 . S
C98 O107 1.058 . S
O99 C98 1.229 . S
C100 O101 1.229 . S
C100 O113 1.058 . S
O101 C100 1.229 . S
O102 Zn96 1.969 1_565 S
O102 C105 1.267 . S
O103 Zn96 1.965 1_565 S
O103 C114 1.260 1_455 S
O104 Zn97 1.969 . S
O104 C114 1.258 . S
C105 O102 1.267 . S
C105 O106 1.228 . S
O106 C105 1.228 . S
O107 Zn96 2.024 . S
O107 C98 1.058 . S
C108 O109 1.228 . S
C108 O110 1.267 . S
O109 C108 1.228 . S
O110 Zn97 1.969 1_545 S
O110 C108 1.267 . S
O111 Zn97 1.965 1_445 S
O111 C115 1.260 . S
O112 Zn96 1.969 . S
O112 C115 1.258 . S
O113 Zn97 2.024 . S
O113 C100 1.058 . S
C114 O103 1.260 1_655 S
C114 O104 1.258 . S
C115 O111 1.260 . S
C115 O112 1.258 . S
Zn116 O122 1.969 . S
Zn116 O123 1.965 1_565 S
Zn116 O127 2.024 . S
Zn116 O132 1.969 1_556 S
Zn117 O124 1.969 . S
Zn117 O130 1.969 . S
Zn117 O131 1.965 1_545 S
Zn117 O133 2.024 . S
C118 O119 1.229 . S
C118 O127 1.058 . S
O119 C118 1.229 . S
C120 O121 1.229 . S
C120 O133 1.058 . S
O121 C120 1.229 . S
O122 Zn116 1.969 . S
O122 C125 1.267 . S
O123 Zn116 1.965 1_545 S
O123 C134 1.260 . S
O124 Zn117 1.969 . S
O124 C134 1.258 1_554 S
C125 O122 1.267 . S
C125 O126 1.228 . S
O126 C125 1.228 . S
O127 Zn116 2.024 . S
O127 C118 1.058 . S
C128 O129 1.228 . S
C128 O130 1.267 . S
O129 C128 1.228 . S
O130 Zn117 1.969 . S
O130 C128 1.267 . S
O131 Zn117 1.965 1_565 S
O131 C135 1.260 . S
O132 Zn116 1.969 1_554 S
O132 C135 1.258 . S
O133 Zn117 2.024 . S
O133 C120 1.058 . S
C134 O123 1.260 . S
C134 O124 1.258 1_556 S
C135 O131 1.260 . S
C135 O132 1.258 . S
Zn136 O142 1.969 . S
Zn136 O143 1.965 . S
Zn136 O147 2.024 . S
Zn136 O152 1.969 . S
Zn137 O144 1.969 . S
Zn137 O150 1.969 . S
Zn137 O151 1.965 . S
Zn137 O153 2.024 . S
C138 O139 1.229 . S
C138 O147 1.058 . S
O139 C138 1.229 . S
C140 O141 1.229 . S
C140 O153 1.058 . S
O141 C140 1.229 . S
O142 Zn136 1.969 . S
O142 C145 1.267 . S
O143 Zn136 1.965 . S
O143 C154 1.260 . S
O144 Zn137 1.969 . S
O144 C154 1.258 . S
C145 O142 1.267 . S
C145 O146 1.228 . S
O146 C145 1.228 . S
O147 Zn136 2.024 . S
O147 C138 1.058 . S
C148 O149 1.228 . S
C148 O150 1.267 . S
O149 C148 1.228 . S
O150 Zn137 1.969 . S
O150 C148 1.267 . S
O151 Zn137 1.965 . S
O151 C155 1.260 . S
O152 Zn136 1.969 . S
O152 C155 1.258 . S
O153 Zn137 2.024 . S
O153 C140 1.058 . S
C154 O143 1.260 . S
C154 O144 1.258 . S
C155 O151 1.260 . S
C155 O152 1.258 . S
Zn156 O162 1.969 . S
Zn156 O163 1.965 1_556 S
Zn156 O167 2.024 . S
Zn156 O172 1.969 1_655 S
Zn157 O164 1.969 . S
Zn157 O170 1.969 . S
Zn157 O171 1.936 1_554 S
Zn157 O173 2.024 . S
C158 O159 1.229 . S
C158 O167 1.058 . S
O159 C158 1.229 . S
C160 O161 1.229 . S
C160 O173 1.058 . S
O161 C160 1.229 . S
O162 Zn156 1.969 . S
O162 C165 1.267 . S
O163 Zn156 1.965 1_554 S
O163 C174 1.260 . S
O164 Zn157 1.969 . S
O164 C174 1.258 1_455 S
C165 O162 1.267 . S
C165 O166 1.228 . S
O166 C165 1.228 . S
O167 Zn156 2.024 . S
O167 C158 1.058 . S
C168 O169 1.228 . S
C168 O170 1.267 . S
O169 C168 1.228 . S
O170 Zn157 1.969 . S
O170 C168 1.267 . S
O171 Zn157 1.936 1_556 S
O171 C175 1.290 . S
O172 Zn156 1.969 1_455 S
O172 C175 1.258 . S
O173 Zn157 2.024 . S
O173 C160 1.058 . S
C174 O163 1.260 . S
C174 O164 1.258 1_655 S
C175 O171 1.290 . S
C175 O172 1.258 . S
H176 C188 0.930 . S
H177 C190 0.930 . S
H178 C191 0.930 . S
H179 C195 0.959 . S
H180 C195 0.959 . S
H181 C195 0.961 . S
H182 C196 0.960 . S
H183 C196 0.961 . S
H184 C196 0.959 . S
H185 C199 0.929 . S
H186 C200 0.931 . S
H187 C202 0.930 . S
C188 H176 0.930 . S
C188 C189 1.399 . S
C188 C193 1.399 . S
C189 C188 1.399 . S
C189 C190 1.376 . S
C190 H177 0.930 . S
C190 C189 1.376 . S
C190 C191 1.388 . S
C191 H178 0.930 . S
C191 C190 1.388 . S
C191 C192 1.390 . S
C192 C191 1.390 . S
C192 C193 1.394 . S
C192 C198 1.465 . S
C193 C188 1.399 . S
C193 C192 1.394 . S
C193 C194 1.516 . S
C194 C193 1.516 . S
C194 C195 1.502 . S
C194 C196 1.561 . S
C194 C197 1.526 . S
C195 H179 0.959 . S
C195 H180 0.959 . S
C195 H181 0.961 . S
C195 C194 1.502 . S
C196 H182 0.960 . S
C196 H183 0.961 . S
C196 H184 0.959 . S
C196 C194 1.561 . S
C197 C194 1.526 . S
C197 C198 1.396 . S
C197 C202 1.390 . S
C198 C192 1.465 . S
C198 C197 1.396 . S
C198 C199 1.399 . S
C199 H185 0.929 . S
C199 C198 1.399 . S
C199 C200 1.385 . S
C200 H186 0.931 . S
C200 C199 1.385 . S
C200 C201 1.389 . S
C201 C200 1.389 . S
C201 C202 1.387 . S
C202 H187 0.930 . S
C202 C197 1.390 . S
C202 C201 1.387 . S
H203 C215 0.930 . S
H204 C217 0.930 . S
H205 C218 0.930 . S
H206 C222 0.959 . S
H207 C222 0.959 . S
H208 C222 0.961 . S
H209 C223 0.960 . S
H210 C223 0.961 . S
H211 C223 0.959 . S
H212 C226 0.929 . S
H213 C227 0.931 1_545 S
H214 C229 0.930 . S
C215 H203 0.930 . S
C215 C216 1.399 . S
C215 C220 1.399 . S
C216 C215 1.399 . S
C216 C217 1.376 . S
C217 H204 0.930 . S
C217 C216 1.376 . S
C217 C218 1.388 . S
C218 H205 0.930 . S
C218 C217 1.388 . S
C218 C219 1.390 . S
C219 C218 1.390 . S
C219 C220 1.394 . S
C219 C225 1.465 . S
C220 C215 1.399 . S
C220 C219 1.394 . S
C220 C221 1.516 . S
C221 C220 1.516 . S
C221 C222 1.502 . S
C221 C223 1.561 . S
C221 C224 1.526 . S
C222 H206 0.959 . S
C222 H207 0.959 . S
C222 H208 0.961 . S
C222 C221 1.502 . S
C223 H209 0.960 . S
C223 H210 0.961 . S
C223 H211 0.959 . S
C223 C221 1.561 . S
C224 C221 1.526 . S
C224 C225 1.396 . S
C224 C229 1.390 . S
C225 C219 1.465 . S
C225 C224 1.396 . S
C225 C226 1.399 . S
C226 H212 0.929 . S
C226 C225 1.399 . S
C226 C227 1.385 . S
C227 H213 0.931 1_565 S
C227 C226 1.385 . S
C227 C228 1.389 . S
C228 C227 1.389 . S
C228 C229 1.387 . S
C229 H214 0.930 . S
C229 C224 1.390 . S
C229 C228 1.387 . S
H230 C242 0.930 . S
H231 C244 0.930 . S
H232 C245 0.930 . S
H233 C249 0.959 . S
H234 C249 0.959 . S
H235 C249 0.961 . S
H236 C250 0.960 . S
H237 C250 0.961 . S
H238 C250 0.959 . S
H239 C253 0.929 . S
H240 C254 0.931 . S
H241 C256 0.930 . S
C242 H230 0.930 . S
C242 C243 1.399 . S
C242 C247 1.399 . S
C243 C242 1.399 . S
C243 C244 1.376 . S
C244 H231 0.930 . S
C244 C243 1.376 . S
C244 C245 1.388 . S
C245 H232 0.930 . S
C245 C244 1.388 . S
C245 C246 1.390 . S
C246 C245 1.390 . S
C246 C247 1.394 . S
C246 C252 1.465 . S
C247 C242 1.399 . S
C247 C246 1.394 . S
C247 C248 1.516 . S
C248 C247 1.516 . S
C248 C249 1.502 . S
C248 C250 1.561 . S
C248 C251 1.526 . S
C249 H233 0.959 . S
C249 H234 0.959 . S
C249 H235 0.961 . S
C249 C248 1.502 . S
C250 H236 0.960 . S
C250 H237 0.961 . S
C250 H238 0.959 . S
C250 C248 1.561 . S
C251 C248 1.526 . S
C251 C252 1.396 . S
C251 C256 1.390 . S
C252 C246 1.465 . S
C252 C251 1.396 . S
C252 C253 1.399 . S
C253 H239 0.929 . S
C253 C252 1.399 . S
C253 C254 1.385 . S
C254 H240 0.931 . S
C254 C253 1.385 . S
C254 C255 1.389 . S
C255 C254 1.389 . S
C255 C256 1.387 . S
C256 H241 0.930 . S
C256 C251 1.390 . S
C256 C255 1.387 . S
H257 C269 0.930 . S
H258 C271 0.930 . S
H259 C272 0.930 . S
H260 C276 0.959 . S
H261 C276 0.959 . S
H262 C276 0.961 . S
H263 C277 0.960 . S
H264 C277 0.961 . S
H265 C277 0.959 . S
H266 C280 0.929 . S
H267 C281 0.931 . S
H268 C283 0.930 . S
C269 H257 0.930 . S
C269 C270 1.399 . S
C269 C274 1.399 . S
C270 C269 1.399 . S
C270 C271 1.376 . S
C271 H258 0.930 . S
C271 C270 1.376 . S
C271 C272 1.388 . S
C272 H259 0.930 . S
C272 C271 1.388 . S
C272 C273 1.390 . S
C273 C272 1.390 . S
C273 C274 1.394 . S
C273 C279 1.465 . S
C274 C269 1.399 . S
C274 C273 1.394 . S
C274 C275 1.516 . S
C275 C274 1.516 . S
C275 C276 1.502 . S
C275 C277 1.561 . S
C275 C278 1.526 . S
C276 H260 0.959 . S
C276 H261 0.959 . S
C276 H262 0.961 . S
C276 C275 1.502 . S
C277 H263 0.960 . S
C277 H264 0.961 . S
C277 H265 0.959 . S
C277 C275 1.561 . S
C278 C275 1.526 . S
C278 C279 1.396 . S
C278 C283 1.390 . S
C279 C273 1.465 . S
C279 C278 1.396 . S
C279 C280 1.399 . S
C280 H266 0.929 . S
C280 C279 1.399 . S
C280 C281 1.385 . S
C281 H267 0.931 . S
C281 C280 1.385 . S
C281 C282 1.389 . S
C282 C281 1.389 . S
C282 C283 1.387 . S
C283 H268 0.930 . S
C283 C278 1.390 . S
C283 C282 1.387 . S
H284 C296 0.930 . S
H285 C298 0.930 . S
H286 C299 0.930 . S
H287 C303 0.959 . S
H288 C303 0.959 . S
H289 C303 0.961 . S
H290 C304 0.960 . S
H291 C304 0.961 . S
H292 C304 0.959 . S
H293 C307 0.929 . S
H294 C308 0.931 . S
H295 C310 0.930 . S
C296 H284 0.930 . S
C296 C297 1.399 . S
C296 C301 1.399 . S
C297 C296 1.399 . S
C297 C298 1.376 . S
C298 H285 0.930 . S
C298 C297 1.376 . S
C298 C299 1.388 . S
C299 H286 0.930 . S
C299 C298 1.388 . S
C299 C300 1.390 . S
C300 C299 1.390 . S
C300 C301 1.394 . S
C300 C306 1.465 . S
C301 C296 1.399 . S
C301 C300 1.394 . S
C301 C302 1.516 . S
C302 C301 1.516 . S
C302 C303 1.502 . S
C302 C304 1.561 . S
C302 C305 1.526 . S
C303 H287 0.959 . S
C303 H288 0.959 . S
C303 H289 0.961 . S
C303 C302 1.502 . S
C304 H290 0.960 . S
C304 H291 0.961 . S
C304 H292 0.959 . S
C304 C302 1.561 . S
C305 C302 1.526 . S
C305 C306 1.396 . S
C305 C310 1.390 . S
C306 C300 1.465 . S
C306 C305 1.396 . S
C306 C307 1.399 . S
C307 H293 0.929 . S
C307 C306 1.399 . S
C307 C308 1.385 . S
C308 H294 0.931 . S
C308 C307 1.385 . S
C308 C309 1.389 . S
C309 C308 1.389 . S
C309 C310 1.387 . S
C310 H295 0.930 . S
C310 C305 1.390 . S
C310 C309 1.387 . S
H311 C323 0.930 . S
H312 C325 0.930 . S
H313 C326 0.930 . S
H314 C330 0.959 . S
H315 C330 0.959 . S
H316 C330 0.961 . S
H317 C331 0.960 . S
H318 C331 0.961 . S
H319 C331 0.959 . S
H320 C334 0.929 . S
H321 C335 0.931 . S
H322 C337 0.930 . S
C323 H311 0.930 . S
C323 C324 1.399 . S
C323 C328 1.399 . S
C324 C323 1.399 . S
C324 C325 1.376 . S
C325 H312 0.930 . S
C325 C324 1.376 . S
C325 C326 1.388 . S
C326 H313 0.930 . S
C326 C325 1.388 . S
C326 C327 1.390 . S
C327 C326 1.390 . S
C327 C328 1.394 . S
C327 C333 1.465 . S
C328 C323 1.399 . S
C328 C327 1.394 . S
C328 C329 1.516 . S
C329 C328 1.516 . S
C329 C330 1.502 . S
C329 C331 1.561 . S
C329 C332 1.526 . S
C330 H314 0.959 . S
C330 H315 0.959 . S
C330 H316 0.961 . S
C330 C329 1.502 . S
C331 H317 0.960 . S
C331 H318 0.961 . S
C331 H319 0.959 . S
C331 C329 1.561 . S
C332 C329 1.526 . S
C332 C333 1.396 . S
C332 C337 1.390 . S
C333 C327 1.465 . S
C333 C332 1.396 . S
C333 C334 1.399 . S
C334 H320 0.929 . S
C334 C333 1.399 . S
C334 C335 1.385 . S
C335 H321 0.931 . S
C335 C334 1.385 . S
C335 C336 1.389 . S
C336 C335 1.389 . S
C336 C337 1.387 . S
C337 H322 0.930 . S
C337 C332 1.390 . S
C337 C336 1.387 . S
H338 C350 0.930 . S
H339 C352 0.930 . S
H340 C353 0.930 . S
H341 C357 0.959 . S
H342 C357 0.959 . S
H343 C357 0.961 . S
H344 C358 0.960 . S
H345 C358 0.961 . S
H346 C358 0.959 . S
H347 C361 0.929 . S
H348 C362 0.931 . S
H349 C364 0.930 . S
C350 H338 0.930 . S
C350 C351 1.399 . S
C350 C355 1.399 . S
C351 C350 1.399 . S
C351 C352 1.376 . S
C352 H339 0.930 . S
C352 C351 1.376 . S
C352 C353 1.388 . S
C353 H340 0.930 . S
C353 C352 1.388 . S
C353 C354 1.390 . S
C354 C353 1.390 . S
C354 C355 1.394 . S
C354 C360 1.465 . S
C355 C350 1.399 . S
C355 C354 1.394 . S
C355 C356 1.516 . S
C356 C355 1.516 . S
C356 C357 1.502 . S
C356 C358 1.561 . S
C356 C359 1.526 . S
C357 H341 0.959 . S
C357 H342 0.959 . S
C357 H343 0.961 . S
C357 C356 1.502 . S
C358 H344 0.960 . S
C358 H345 0.961 . S
C358 H346 0.959 . S
C358 C356 1.561 . S
C359 C356 1.526 . S
C359 C360 1.396 . S
C359 C364 1.390 . S
C360 C354 1.465 . S
C360 C359 1.396 . S
C360 C361 1.399 . S
C361 H347 0.929 . S
C361 C360 1.399 . S
C361 C362 1.385 . S
C362 H348 0.931 . S
C362 C361 1.385 . S
C362 C363 1.389 . S
C363 C362 1.389 . S
C363 C364 1.387 . S
C364 H349 0.930 . S
C364 C359 1.390 . S
C364 C363 1.387 . S
H365 C377 0.930 . S
H366 C379 0.930 . S
H367 C380 0.930 . S
H368 C384 0.959 . S
H369 C384 0.959 . S
H370 C384 0.961 . S
H371 C385 0.960 . S
H372 C385 0.961 . S
H373 C385 0.959 . S
H374 C388 0.929 . S
H375 C389 0.931 . S
H376 C391 0.930 . S
C377 H365 0.930 . S
C377 C378 1.399 . S
C377 C382 1.399 . S
C378 C377 1.399 . S
C378 C379 1.376 . S
C379 H366 0.930 . S
C379 C378 1.376 . S
C379 C380 1.388 . S
C380 H367 0.930 . S
C380 C379 1.388 . S
C380 C381 1.390 . S
C381 C380 1.390 . S
C381 C382 1.394 . S
C381 C387 1.465 . S
C382 C377 1.399 . S
C382 C381 1.394 . S
C382 C383 1.516 . S
C383 C382 1.516 . S
C383 C384 1.502 . S
C383 C385 1.561 . S
C383 C386 1.526 . S
C384 H368 0.959 . S
C384 H369 0.959 . S
C384 H370 0.961 . S
C384 C383 1.502 . S
C385 H371 0.960 . S
C385 H372 0.961 . S
C385 H373 0.959 . S
C385 C383 1.561 . S
C386 C383 1.526 . S
C386 C387 1.396 . S
C386 C391 1.390 . S
C387 C381 1.465 . S
C387 C386 1.396 . S
C387 C388 1.399 . S
C388 H374 0.929 . S
C388 C387 1.399 . S
C388 C389 1.385 . S
C389 H375 0.931 . S
C389 C388 1.385 . S
C389 C390 1.389 . S
C390 C389 1.389 . S
C390 C391 1.387 . S
C391 H376 0.930 . S
C391 C386 1.390 . S
C391 C390 1.387 . S
H392 C404 0.930 . S
H393 C406 0.930 . S
H394 C407 0.930 . S
H395 C411 0.959 . S
H396 C411 0.959 . S
H397 C411 0.961 . S
H398 C412 0.960 . S
H399 C412 0.961 . S
H400 C412 0.959 . S
H401 C415 0.929 . S
H402 C416 0.931 . S
H403 C418 0.930 . S
C404 H392 0.930 . S
C404 C405 1.399 . S
C404 C409 1.399 . S
C405 C404 1.399 . S
C405 C406 1.376 . S
C406 H393 0.930 . S
C406 C405 1.376 . S
C406 C407 1.388 . S
C407 H394 0.930 . S
C407 C406 1.388 . S
C407 C408 1.390 . S
C408 C407 1.390 . S
C408 C409 1.394 . S
C408 C414 1.465 . S
C409 C404 1.399 . S
C409 C408 1.394 . S
C409 C410 1.516 . S
C410 C409 1.516 . S
C410 C411 1.502 . S
C410 C412 1.561 . S
C410 C413 1.526 . S
C411 H395 0.959 . S
C411 H396 0.959 . S
C411 H397 0.961 . S
C411 C410 1.502 . S
C412 H398 0.960 . S
C412 H399 0.961 . S
C412 H400 0.959 . S
C412 C410 1.561 . S
C413 C410 1.526 . S
C413 C414 1.396 . S
C413 C418 1.390 . S
C414 C408 1.465 . S
C414 C413 1.396 . S
C414 C415 1.399 . S
C415 H401 0.929 . S
C415 C414 1.399 . S
C415 C416 1.385 . S
C416 H402 0.931 . S
C416 C415 1.385 . S
C416 C417 1.389 . S
C417 C416 1.389 . S
C417 C418 1.387 . S
C418 H403 0.930 . S
C418 C413 1.390 . S
C418 C417 1.387 . S
H419 C431 0.930 . S
H420 C433 0.930 . S
H421 C434 0.930 . S
H422 C438 0.959 . S
H423 C438 0.959 . S
H424 C438 0.961 . S
H425 C439 0.960 . S
H426 C439 0.961 . S
H427 C439 0.959 . S
H428 C442 0.929 . S
H429 C443 0.931 . S
H430 C445 0.930 . S
C431 H419 0.930 . S
C431 C432 1.399 . S
C431 C436 1.399 . S
C432 C431 1.399 . S
C432 C433 1.376 . S
C433 H420 0.930 . S
C433 C432 1.376 . S
C433 C434 1.388 . S
C434 H421 0.930 . S
C434 C433 1.388 . S
C434 C435 1.390 . S
C435 C434 1.390 . S
C435 C436 1.394 . S
C435 C441 1.465 . S
C436 C431 1.399 . S
C436 C435 1.394 . S
C436 C437 1.516 . S
C437 C436 1.516 . S
C437 C438 1.502 . S
C437 C439 1.561 . S
C437 C440 1.526 . S
C438 H422 0.959 . S
C438 H423 0.959 . S
C438 H424 0.961 . S
C438 C437 1.502 . S
C439 H425 0.960 . S
C439 H426 0.961 . S
C439 H427 0.959 . S
C439 C437 1.561 . S
C440 C437 1.526 . S
C440 C441 1.396 . S
C440 C445 1.390 . S
C441 C435 1.465 . S
C441 C440 1.396 . S
C441 C442 1.399 . S
C442 H428 0.929 . S
C442 C441 1.399 . S
C442 C443 1.385 . S
C443 H429 0.931 . S
C443 C442 1.385 . S
C443 C444 1.389 . S
C444 C443 1.389 . S
C444 C445 1.387 . S
C445 H430 0.930 . S
C445 C440 1.390 . S
C445 C444 1.387 . S
H446 C458 0.930 . S
H447 C460 0.930 . S
H448 C461 0.930 . S
H449 C465 0.959 . S
H450 C465 0.959 . S
H451 C465 0.961 . S
H452 C466 0.960 . S
H453 C466 0.961 . S
H454 C466 0.959 . S
H455 C469 0.929 . S
H456 C470 0.931 . S
H457 C472 0.930 . S
C458 H446 0.930 . S
C458 C459 1.399 . S
C458 C463 1.399 . S
C459 C458 1.399 . S
C459 C460 1.376 . S
C460 H447 0.930 . S
C460 C459 1.376 . S
C460 C461 1.388 . S
C461 H448 0.930 . S
C461 C460 1.388 . S
C461 C462 1.390 . S
C462 C461 1.390 . S
C462 C463 1.394 . S
C462 C468 1.465 . S
C463 C458 1.399 . S
C463 C462 1.394 . S
C463 C464 1.516 . S
C464 C463 1.516 . S
C464 C465 1.502 . S
C464 C466 1.561 . S
C464 C467 1.526 . S
C465 H449 0.959 . S
C465 H450 0.959 . S
C465 H451 0.961 . S
C465 C464 1.502 . S
C466 H452 0.960 . S
C466 H453 0.961 . S
C466 H454 0.959 . S
C466 C464 1.561 . S
C467 C464 1.526 . S
C467 C468 1.396 . S
C467 C472 1.390 . S
C468 C462 1.465 . S
C468 C467 1.396 . S
C468 C469 1.399 . S
C469 H455 0.929 . S
C469 C468 1.399 . S
C469 C470 1.385 . S
C470 H456 0.931 . S
C470 C469 1.385 . S
C470 C471 1.389 . S
C471 C470 1.389 . S
C471 C472 1.387 . S
C472 H457 0.930 . S
C472 C467 1.390 . S
C472 C471 1.387 . S
H473 C485 0.930 . S
H474 C487 0.930 . S
H475 C488 0.930 . S
H476 C492 0.959 . S
H477 C492 0.959 . S
H478 C492 0.961 . S
H479 C493 0.960 . S
H480 C493 0.961 . S
H481 C493 0.959 . S
H482 C496 0.929 . S
H483 C497 0.931 . S
H484 C499 0.930 . S
C485 H473 0.930 . S
C485 C486 1.399 . S
C485 C490 1.399 . S
C486 C485 1.399 . S
C486 C487 1.376 . S
C487 H474 0.930 . S
C487 C486 1.376 . S
C487 C488 1.388 . S
C488 H475 0.930 . S
C488 C487 1.388 . S
C488 C489 1.390 . S
C489 C488 1.390 . S
C489 C490 1.394 . S
C489 C495 1.465 . S
C490 C485 1.399 . S
C490 C489 1.394 . S
C490 C491 1.516 . S
C491 C490 1.516 . S
C491 C492 1.502 . S
C491 C493 1.561 . S
C491 C494 1.526 . S
C492 H476 0.959 . S
C492 H477 0.959 . S
C492 H478 0.961 . S
C492 C491 1.502 . S
C493 H479 0.960 . S
C493 H480 0.961 . S
C493 H481 0.959 . S
C493 C491 1.561 . S
C494 C491 1.526 . S
C494 C495 1.396 . S
C494 C499 1.390 . S
C495 C489 1.465 . S
C495 C494 1.396 . S
C495 C496 1.399 . S
C496 H482 0.929 . S
C496 C495 1.399 . S
C496 C497 1.385 . S
C497 H483 0.931 . S
C497 C496 1.385 . S
C497 C498 1.389 . S
C498 C497 1.389 . S
C498 C499 1.387 . S
C499 H484 0.930 . S
C499 C494 1.390 . S
C499 C498 1.387 . S
H500 C512 0.930 . S
H501 C514 0.930 . S
H502 C515 0.930 . S
H503 C519 0.959 . S
H504 C519 0.959 . S
H505 C519 0.961 . S
H506 C520 0.960 . S
H507 C520 0.961 . S
H508 C520 0.959 . S
H509 C523 0.929 . S
H510 C524 0.931 . S
H511 C526 0.930 . S
C512 H500 0.930 . S
C512 C513 1.399 . S
C512 C517 1.399 . S
C513 C512 1.399 . S
C513 C514 1.376 . S
C514 H501 0.930 . S
C514 C513 1.376 . S
C514 C515 1.388 . S
C515 H502 0.930 . S
C515 C514 1.388 . S
C515 C516 1.390 . S
C516 C515 1.390 . S
C516 C517 1.394 . S
C516 C522 1.465 . S
C517 C512 1.399 . S
C517 C516 1.394 . S
C517 C518 1.516 . S
C518 C517 1.516 . S
C518 C519 1.502 . S
C518 C520 1.561 . S
C518 C521 1.526 . S
C519 H503 0.959 . S
C519 H504 0.959 . S
C519 H505 0.961 . S
C519 C518 1.502 . S
C520 H506 0.960 . S
C520 H507 0.961 . S
C520 H508 0.959 . S
C520 C518 1.561 . S
C521 C518 1.526 . S
C521 C522 1.396 . S
C521 C526 1.390 . S
C522 C516 1.465 . S
C522 C521 1.396 . S
C522 C523 1.399 . S
C523 H509 0.929 . S
C523 C522 1.399 . S
C523 C524 1.385 . S
C524 H510 0.931 . S
C524 C523 1.385 . S
C524 C525 1.389 . S
C525 C524 1.389 . S
C525 C526 1.387 . S
C526 H511 0.930 . S
C526 C521 1.390 . S
C526 C525 1.387 . S
H527 C539 0.930 . S
H528 C541 0.930 . S
H529 C542 0.930 . S
H530 C546 0.959 . S
H531 C546 0.959 . S
H532 C546 0.961 . S
H533 C547 0.960 . S
H534 C547 0.961 . S
H535 C547 0.959 . S
H536 C550 0.929 . S
H537 C551 0.931 . S
H538 C553 0.930 . S
C539 H527 0.930 . S
C539 C540 1.399 . S
C539 C544 1.399 . S
C540 C539 1.399 . S
C540 C541 1.376 . S
C541 H528 0.930 . S
C541 C540 1.376 . S
C541 C542 1.388 . S
C542 H529 0.930 . S
C542 C541 1.388 . S
C542 C543 1.390 . S
C543 C542 1.390 . S
C543 C544 1.394 . S
C543 C549 1.465 . S
C544 C539 1.399 . S
C544 C543 1.394 . S
C544 C545 1.516 . S
C545 C544 1.516 . S
C545 C546 1.502 . S
C545 C547 1.561 . S
C545 C548 1.526 . S
C546 H530 0.959 . S
C546 H531 0.959 . S
C546 H532 0.961 . S
C546 C545 1.502 . S
C547 H533 0.960 . S
C547 H534 0.961 . S
C547 H535 0.959 . S
C547 C545 1.561 . S
C548 C545 1.526 . S
C548 C549 1.396 . S
C548 C553 1.390 . S
C549 C543 1.465 . S
C549 C548 1.396 . S
C549 C550 1.399 . S
C550 H536 0.929 . S
C550 C549 1.399 . S
C550 C551 1.385 . S
C551 H537 0.931 . S
C551 C550 1.385 . S
C551 C552 1.389 . S
C552 C551 1.389 . S
C552 C553 1.387 . S
C553 H538 0.930 . S
C553 C548 1.390 . S
C553 C552 1.387 . S
H554 C566 0.930 . S
H555 C568 0.930 . S
H556 C569 0.930 . S
H557 C573 0.959 . S
H558 C573 0.959 . S
H559 C573 0.961 . S
H560 C574 0.960 . S
H561 C574 0.961 . S
H562 C574 0.959 . S
H563 C577 0.929 . S
H564 C578 0.931 . S
H565 C580 0.930 . S
C566 H554 0.930 . S
C566 C567 1.399 . S
C566 C571 1.399 . S
C567 C566 1.399 . S
C567 C568 1.376 . S
C568 H555 0.930 . S
C568 C567 1.376 . S
C568 C569 1.388 . S
C569 H556 0.930 . S
C569 C568 1.388 . S
C569 C570 1.390 . S
C570 C569 1.390 . S
C570 C571 1.394 . S
C570 C576 1.465 . S
C571 C566 1.399 . S
C571 C570 1.394 . S
C571 C572 1.516 . S
C572 C571 1.516 . S
C572 C573 1.502 . S
C572 C574 1.561 . S
C572 C575 1.526 . S
C573 H557 0.959 . S
C573 H558 0.959 . S
C573 H559 0.961 . S
C573 C572 1.502 . S
C574 H560 0.960 . S
C574 H561 0.961 . S
C574 H562 0.959 . S
C574 C572 1.561 . S
C575 C572 1.526 . S
C575 C576 1.396 . S
C575 C580 1.390 . S
C576 C570 1.465 . S
C576 C575 1.396 . S
C576 C577 1.399 . S
C577 H563 0.929 . S
C577 C576 1.399 . S
C577 C578 1.385 . S
C578 H564 0.931 . S
C578 C577 1.385 . S
C578 C579 1.389 . S
C579 C578 1.389 . S
C579 C580 1.387 . S
C580 H565 0.930 . S
C580 C575 1.390 . S
C580 C579 1.387 . S
H581 C593 0.930 . S
H582 C595 0.930 . S
H583 C596 0.930 . S
H584 C600 0.959 . S
H585 C600 0.959 . S
H586 C600 0.961 . S
H587 C601 0.960 . S
H588 C601 0.961 . S
H589 C601 0.959 . S
H590 C604 0.929 . S
H591 C605 0.931 . S
H592 C607 0.930 . S
C593 H581 0.930 . S
C593 C594 1.399 . S
C593 C598 1.399 . S
C594 C593 1.399 . S
C594 C595 1.376 . S
C595 H582 0.930 . S
C595 C594 1.376 . S
C595 C596 1.388 . S
C596 H583 0.930 . S
C596 C595 1.388 . S
C596 C597 1.390 . S
C597 C596 1.390 . S
C597 C598 1.394 . S
C597 C603 1.465 . S
C598 C593 1.399 . S
C598 C597 1.394 . S
C598 C599 1.516 . S
C599 C598 1.516 . S
C599 C600 1.502 . S
C599 C601 1.561 . S
C599 C602 1.526 . S
C600 H584 0.959 . S
C600 H585 0.959 . S
C600 H586 0.961 . S
C600 C599 1.502 . S
C601 H587 0.960 . S
C601 H588 0.961 . S
C601 H589 0.959 . S
C601 C599 1.561 . S
C602 C599 1.526 . S
C602 C603 1.396 . S
C602 C607 1.390 . S
C603 C597 1.465 . S
C603 C602 1.396 . S
C603 C604 1.399 . S
C604 H590 0.929 . S
C604 C603 1.399 . S
C604 C605 1.385 . S
C605 H591 0.931 . S
C605 C604 1.385 . S
C605 C606 1.389 . S
C606 C605 1.389 . S
C606 C607 1.387 . S
C607 H592 0.930 . S
C607 C602 1.390 . S
C607 C606 1.387 . S
H608 C620 0.930 . S
H609 C622 0.930 . S
H610 C623 0.930 . S
H611 C627 0.959 . S
H612 C627 0.959 . S
H613 C627 0.961 . S
H614 C628 0.960 . S
H615 C628 0.961 . S
H616 C628 0.959 . S
H617 C631 0.929 . S
H618 C632 0.931 . S
H619 C634 0.930 . S
C620 H608 0.930 . S
C620 C621 1.399 . S
C620 C625 1.399 . S
C621 C620 1.399 . S
C621 C622 1.376 . S
C622 H609 0.930 . S
C622 C621 1.376 . S
C622 C623 1.388 . S
C623 H610 0.930 . S
C623 C622 1.388 . S
C623 C624 1.390 . S
C624 C623 1.390 . S
C624 C625 1.394 . S
C624 C630 1.465 . S
C625 C620 1.399 . S
C625 C624 1.394 . S
C625 C626 1.516 . S
C626 C625 1.516 . S
C626 C627 1.502 . S
C626 C628 1.561 . S
C626 C629 1.526 . S
C627 H611 0.959 . S
C627 H612 0.959 . S
C627 H613 0.961 . S
C627 C626 1.502 . S
C628 H614 0.960 . S
C628 H615 0.961 . S
C628 H616 0.959 . S
C628 C626 1.561 . S
C629 C626 1.526 . S
C629 C630 1.396 . S
C629 C634 1.390 . S
C630 C624 1.465 . S
C630 C629 1.396 . S
C630 C631 1.399 . S
C631 H617 0.929 . S
C631 C630 1.399 . S
C631 C632 1.385 . S
C632 H618 0.931 . S
C632 C631 1.385 . S
C632 C633 1.389 . S
C633 C632 1.389 . S
C633 C634 1.387 . S
C634 H619 0.930 . S
C634 C629 1.390 . S
C634 C633 1.387 . S
H635 C647 0.930 . S
H636 C649 0.930 . S
H637 C650 0.930 . S
H638 C654 0.959 . S
H639 C654 0.959 . S
H640 C654 0.961 . S
H641 C655 0.960 . S
H642 C655 0.961 . S
H643 C655 0.959 . S
H644 C658 0.929 . S
H645 C659 0.931 . S
H646 C661 0.930 . S
C647 H635 0.930 . S
C647 C648 1.399 . S
C647 C652 1.399 . S
C648 C647 1.399 . S
C648 C649 1.376 . S
C649 H636 0.930 . S
C649 C648 1.376 . S
C649 C650 1.388 . S
C650 H637 0.930 . S
C650 C649 1.388 . S
C650 C651 1.390 . S
C651 C650 1.390 . S
C651 C652 1.394 . S
C651 C657 1.465 . S
C652 C647 1.399 . S
C652 C651 1.394 . S
C652 C653 1.516 . S
C653 C652 1.516 . S
C653 C654 1.502 . S
C653 C655 1.561 . S
C653 C656 1.526 . S
C654 H638 0.959 . S
C654 H639 0.959 . S
C654 H640 0.961 . S
C654 C653 1.502 . S
C655 H641 0.960 . S
C655 H642 0.961 . S
C655 H643 0.959 . S
C655 C653 1.561 . S
C656 C653 1.526 . S
C656 C657 1.396 . S
C656 C661 1.390 . S
C657 C651 1.465 . S
C657 C656 1.396 . S
C657 C658 1.399 . S
C658 H644 0.929 . S
C658 C657 1.399 . S
C658 C659 1.385 . S
C659 H645 0.931 . S
C659 C658 1.385 . S
C659 C660 1.389 . S
C660 C659 1.389 . S
C660 C661 1.387 . S
C661 H646 0.930 . S
C661 C656 1.390 . S
C661 C660 1.387 . S
H662 C674 0.930 . S
H663 C676 0.930 . S
H664 C677 0.930 . S
H665 C681 0.959 . S
H666 C681 0.959 . S
H667 C681 0.961 . S
H668 C682 0.960 . S
H669 C682 0.961 . S
H670 C682 0.959 . S
H671 C685 0.929 . S
H672 C686 0.931 . S
H673 C688 0.930 . S
C674 H662 0.930 . S
C674 C675 1.399 . S
C674 C679 1.399 . S
C675 C674 1.399 . S
C675 C676 1.376 . S
C676 H663 0.930 . S
C676 C675 1.376 . S
C676 C677 1.388 . S
C677 H664 0.930 . S
C677 C676 1.388 . S
C677 C678 1.390 . S
C678 C677 1.390 . S
C678 C679 1.394 . S
C678 C684 1.465 . S
C679 C674 1.399 . S
C679 C678 1.394 . S
C679 C680 1.516 . S
C680 C679 1.516 . S
C680 C681 1.502 . S
C680 C682 1.561 . S
C680 C683 1.526 . S
C681 H665 0.959 . S
C681 H666 0.959 . S
C681 H667 0.961 . S
C681 C680 1.502 . S
C682 H668 0.960 . S
C682 H669 0.961 . S
C682 H670 0.959 . S
C682 C680 1.561 . S
C683 C680 1.526 . S
C683 C684 1.396 . S
C683 C688 1.390 . S
C684 C678 1.465 . S
C684 C683 1.396 . S
C684 C685 1.399 . S
C685 H671 0.929 . S
C685 C684 1.399 . S
C685 C686 1.385 . S
C686 H672 0.931 . S
C686 C685 1.385 . S
C686 C687 1.389 . S
C687 C686 1.389 . S
C687 C688 1.387 . S
C688 H673 0.930 . S
C688 C683 1.390 . S
C688 C687 1.387 . S
H689 C701 0.930 . S
H690 C703 0.930 . S
H691 C704 0.930 . S
H692 C708 0.959 . S
H693 C708 0.959 . S
H694 C708 0.961 . S
H695 C709 0.960 . S
H696 C709 0.961 . S
H697 C709 0.959 . S
H698 C712 0.929 . S
H699 C713 0.931 . S
H700 C715 0.930 . S
C701 H689 0.930 . S
C701 C702 1.399 . S
C701 C706 1.399 . S
C702 C701 1.399 . S
C702 C703 1.376 . S
C703 H690 0.930 . S
C703 C702 1.376 . S
C703 C704 1.388 . S
C704 H691 0.930 . S
C704 C703 1.388 . S
C704 C705 1.390 . S
C705 C704 1.390 . S
C705 C706 1.394 . S
C705 C711 1.465 . S
C706 C701 1.399 . S
C706 C705 1.394 . S
C706 C707 1.516 . S
C707 C706 1.516 . S
C707 C708 1.502 . S
C707 C709 1.561 . S
C707 C710 1.526 . S
C708 H692 0.959 . S
C708 H693 0.959 . S
C708 H694 0.961 . S
C708 C707 1.502 . S
C709 H695 0.960 . S
C709 H696 0.961 . S
C709 H697 0.959 . S
C709 C707 1.561 . S
C710 C707 1.526 . S
C710 C711 1.396 . S
C710 C715 1.390 . S
C711 C705 1.465 . S
C711 C710 1.396 . S
C711 C712 1.399 . S
C712 H698 0.929 . S
C712 C711 1.399 . S
C712 C713 1.385 . S
C713 H699 0.931 . S
C713 C712 1.385 . S
C713 C714 1.389 . S
C714 C713 1.389 . S
C714 C715 1.387 . S
C715 H700 0.930 . S
C715 C710 1.390 . S
C715 C714 1.387 . S
H716 C728 0.930 . S
H717 C730 0.930 . S
H718 C731 0.930 . S
H719 C735 0.959 . S
H720 C735 0.959 . S
H721 C735 0.961 . S
H722 C736 0.960 . S
H723 C736 0.961 . S
H724 C736 0.959 . S
H725 C739 0.929 . S
H726 C740 0.931 . S
H727 C742 0.930 . S
C728 H716 0.930 . S
C728 C729 1.399 . S
C728 C733 1.399 . S
C729 C728 1.399 . S
C729 C730 1.376 . S
C730 H717 0.930 . S
C730 C729 1.376 . S
C730 C731 1.388 . S
C731 H718 0.930 . S
C731 C730 1.388 . S
C731 C732 1.390 . S
C732 C731 1.390 . S
C732 C733 1.394 . S
C732 C738 1.465 . S
C733 C728 1.399 . S
C733 C732 1.394 . S
C733 C734 1.516 . S
C734 C733 1.516 . S
C734 C735 1.502 . S
C734 C736 1.561 . S
C734 C737 1.526 . S
C735 H719 0.959 . S
C735 H720 0.959 . S
C735 H721 0.961 . S
C735 C734 1.502 . S
C736 H722 0.960 . S
C736 H723 0.961 . S
C736 H724 0.959 . S
C736 C734 1.561 . S
C737 C734 1.526 . S
C737 C738 1.396 . S
C737 C742 1.390 . S
C738 C732 1.465 . S
C738 C737 1.396 . S
C738 C739 1.399 . S
C739 H725 0.929 . S
C739 C738 1.399 . S
C739 C740 1.385 . S
C740 H726 0.931 . S
C740 C739 1.385 . S
C740 C741 1.389 . S
C741 C740 1.389 . S
C741 C742 1.387 . S
C742 H727 0.930 . S
C742 C737 1.390 . S
C742 C741 1.387 . S
H743 C755 0.930 . S
H744 C757 0.930 . S
H745 C758 0.930 . S
H746 C762 0.959 . S
H747 C762 0.959 . S
H748 C762 0.961 . S
H749 C763 0.960 . S
H750 C763 0.961 . S
H751 C763 0.959 . S
H752 C766 0.929 . S
H753 C767 0.931 . S
H754 C769 0.930 . S
C755 H743 0.930 . S
C755 C756 1.399 . S
C755 C760 1.399 . S
C756 C755 1.399 . S
C756 C757 1.376 . S
C757 H744 0.930 . S
C757 C756 1.376 . S
C757 C758 1.388 . S
C758 H745 0.930 . S
C758 C757 1.388 . S
C758 C759 1.390 . S
C759 C758 1.390 . S
C759 C760 1.394 . S
C759 C765 1.465 . S
C760 C755 1.399 . S
C760 C759 1.394 . S
C760 C761 1.516 . S
C761 C760 1.516 . S
C761 C762 1.502 . S
C761 C763 1.561 . S
C761 C764 1.526 . S
C762 H746 0.959 . S
C762 H747 0.959 . S
C762 H748 0.961 . S
C762 C761 1.502 . S
C763 H749 0.960 . S
C763 H750 0.961 . S
C763 H751 0.959 . S
C763 C761 1.561 . S
C764 C761 1.526 . S
C764 C765 1.396 . S
C764 C769 1.390 . S
C765 C759 1.465 . S
C765 C764 1.396 . S
C765 C766 1.399 . S
C766 H752 0.929 . S
C766 C765 1.399 . S
C766 C767 1.385 . S
C767 H753 0.931 . S
C767 C766 1.385 . S
C767 C768 1.389 . S
C768 C767 1.389 . S
C768 C769 1.387 . S
C769 H754 0.930 . S
C769 C764 1.390 . S
C769 C768 1.387 . S
H770 C782 0.930 . S
H771 C784 0.930 . S
H772 C785 0.930 . S
H773 C789 0.959 . S
H774 C789 0.959 . S
H775 C789 0.961 . S
H776 C790 0.960 . S
H777 C790 0.961 . S
H778 C790 0.959 . S
H779 C793 0.929 . S
H780 C794 0.931 . S
H781 C796 0.930 . S
C782 H770 0.930 . S
C782 C783 1.399 . S
C782 C787 1.399 . S
C783 C782 1.399 . S
C783 C784 1.376 . S
C784 H771 0.930 . S
C784 C783 1.376 . S
C784 C785 1.388 . S
C785 H772 0.930 . S
C785 C784 1.388 . S
C785 C786 1.390 . S
C786 C785 1.390 . S
C786 C787 1.394 . S
C786 C792 1.465 . S
C787 C782 1.399 . S
C787 C786 1.394 . S
C787 C788 1.516 . S
C788 C787 1.516 . S
C788 C789 1.502 . S
C788 C790 1.561 . S
C788 C791 1.526 . S
C789 H773 0.959 . S
C789 H774 0.959 . S
C789 H775 0.961 . S
C789 C788 1.502 . S
C790 H776 0.960 . S
C790 H777 0.961 . S
C790 H778 0.959 . S
C790 C788 1.561 . S
C791 C788 1.526 . S
C791 C792 1.396 . S
C791 C796 1.390 . S
C792 C786 1.465 . S
C792 C791 1.396 . S
C792 C793 1.399 . S
C793 H779 0.929 . S
C793 C792 1.399 . S
C793 C794 1.385 . S
C794 H780 0.931 . S
C794 C793 1.385 . S
C794 C795 1.389 . S
C795 C794 1.389 . S
C795 C796 1.387 . S
C796 H781 0.930 . S
C796 C791 1.390 . S
C796 C795 1.387 . S
H797 C809 0.930 . S
H798 C811 0.930 . S
H799 C812 0.930 . S
H800 C816 0.959 . S
H801 C816 0.959 . S
H802 C816 0.961 . S
H803 C817 0.960 . S
H804 C817 0.961 . S
H805 C817 0.959 . S
H806 C820 0.929 . S
H807 C821 0.931 . S
H808 C823 0.930 . S
C809 H797 0.930 . S
C809 C810 1.399 . S
C809 C814 1.399 . S
C810 C809 1.399 . S
C810 C811 1.376 . S
C811 H798 0.930 . S
C811 C810 1.376 . S
C811 C812 1.388 . S
C812 H799 0.930 . S
C812 C811 1.388 . S
C812 C813 1.390 . S
C813 C812 1.390 . S
C813 C814 1.394 . S
C813 C819 1.465 . S
C814 C809 1.399 . S
C814 C813 1.394 . S
C814 C815 1.516 . S
C815 C814 1.516 . S
C815 C816 1.502 . S
C815 C817 1.561 . S
C815 C818 1.526 . S
C816 H800 0.959 . S
C816 H801 0.959 . S
C816 H802 0.961 . S
C816 C815 1.502 . S
C817 H803 0.960 . S
C817 H804 0.961 . S
C817 H805 0.959 . S
C817 C815 1.561 . S
C818 C815 1.526 . S
C818 C819 1.396 . S
C818 C823 1.390 . S
C819 C813 1.465 . S
C819 C818 1.396 . S
C819 C820 1.399 . S
C820 H806 0.929 . S
C820 C819 1.399 . S
C820 C821 1.385 . S
C821 H807 0.931 . S
C821 C820 1.385 . S
C821 C822 1.389 . S
C822 C821 1.389 . S
C822 C823 1.387 . S
C823 H808 0.930 . S
C823 C818 1.390 . S
C823 C822 1.387 . S
C189 C6 1.597 . S
C201 C115 1.545 . S
C216 C18 1.544 . S
C228 C118 1.511 . S
C255 C154 1.787 . S
C243 C28 1.803 . S
C270 C40 1.151 . S
C282 C174 1.121 . S
C309 C128 1.890 . S
C297 C9 1.935 . S
C336 C105 1.467 . S
C324 C16 1.451 . S
C363 C158 1.416 . S
C351 C30 1.604 . S
C390 C138 1.080 . S
C378 C42 1.210 . S
C405 C4 1.375 . S
C417 C168 1.293 . S
C444 C134 1.731 . S
C432 C33 1.748 . S
C459 C45 1.479 . S
C471 C100 1.377 . S
C486 C21 1.547 . S
C498 C148 1.499 . S
C525 C114 1.620 . S
C513 C57 1.588 . S
C540 C66 1.526 . S
C552 C120 1.503 . S
C567 C76 1.813 . S
C579 C155 1.792 . S
C594 C88 1.075 . S
C606 C175 1.087 . S
C621 C54 1.891 . S
C633 C125 1.887 . S
C660 C108 1.522 . S
C648 C64 1.511 . S
C687 C160 1.443 . S
C675 C78 1.510 . S
C714 C140 1.233 . S
C702 C93 1.205 . S
C729 C52 1.358 . S
C741 C165 1.216 . S
C768 C135 1.730 . S
C756 C81 1.750 . S
C795 C98 1.337 . S
C783 C90 1.423 . S
C810 C69 1.562 . S
C822 C145 1.509 . S
