# Generated by pormake.
# Topology tsx, (6,3)-cn, num edge types: 1
# Building blocks:
#     Node 0, Type 0, BuildingBlock: FUNLAD_clean_sbu_0, # of connection points: 6
#     Node 1, Type 0, BuildingBlock: FUNLAD_clean_sbu_0, # of connection points: 6
#     Node 2, Type 1, BuildingBlock: PAMTOO_clean_linker_0, # of connection points: 3
#     Node 3, Type 1, BuildingBlock: PAMTOO_clean_linker_0, # of connection points: 3
#     Node 4, Type 1, BuildingBlock: PAMTOO_clean_linker_0, # of connection points: 3
#     Node 5, Type 1, BuildingBlock: PAMTOO_clean_linker_0, # of connection points: 3
#     Edge 6, Type (0, 1), BuildingBlock: FUNLAD_clean_linker_0, # of connection points: 2
#     Edge 7, Type (0, 1), BuildingBlock: FUNLAD_clean_linker_0, # of connection points: 2
#     Edge 8, Type (0, 1), BuildingBlock: FUNLAD_clean_linker_0, # of connection points: 2
#     Edge 9, Type (0, 1), BuildingBlock: FUNLAD_clean_linker_0, # of connection points: 2
#     Edge 10, Type (0, 1), BuildingBlock: FUNLAD_clean_linker_0, # of connection points: 2
#     Edge 11, Type (0, 1), BuildingBlock: FUNLAD_clean_linker_0, # of connection points: 2
#     Edge 12, Type (0, 1), BuildingBlock: FUNLAD_clean_linker_0, # of connection points: 2
#     Edge 13, Type (0, 1), BuildingBlock: FUNLAD_clean_linker_0, # of connection points: 2
#     Edge 14, Type (0, 1), BuildingBlock: FUNLAD_clean_linker_0, # of connection points: 2
#     Edge 15, Type (0, 1), BuildingBlock: FUNLAD_clean_linker_0, # of connection points: 2
#     Edge 16, Type (0, 1), BuildingBlock: FUNLAD_clean_linker_0, # of connection points: 2
#     Edge 17, Type (0, 1), BuildingBlock: FUNLAD_clean_linker_0, # of connection points: 2
# Relax obj value: 0.124
# Max RMSD: 0.130
# Mean RMSD: 0.118
data_MOF--net-tsx--node1-FUNLAD_clean_sbu_0--node2-PAMTOO_clean_linker_0--edge1-FUNLAD_clean_linker_0
_symmetry_space_group_name_H-M    P1
_symmetry_Int_Tables_number       1
_symmetry_cell_setting            triclinic
loop_
_symmetry_equiv_pos_as_xyz
'x, y, z'
_cell_length_a     22.638935
_cell_length_b     25.191963
_cell_length_c     45.314039
_cell_angle_alpha  82.797422
_cell_angle_beta   91.567314
_cell_angle_gamma 90.110584
loop_
_atom_site_label
_atom_site_type_symbol
_atom_site_fract_x
_atom_site_fract_y
_atom_site_fract_z
_atom_type_partial_charge
C0 C 0.93954 0.9344 0.00301 0.0
N1 N 0.04142 0.00743 0.06444 0.0
C2 C 0.99181 0.01119 0.0803 0.0
C3 C 0.99604 0.01317 0.11086 0.0
C4 C 0.05187 0.01115 0.1252 0.0
C5 C 0.10231 0.0064 0.10838 0.0
C6 C 0.09604 0.00469 0.07781 0.0
Zn7 Zn 0.03319 0.0089 0.01971 0.0
C8 C 0.10916 0.93039 -0.00366 0.0
N9 N 0.01331 0.01471 0.9261 0.0
C10 C 0.9593 0.01233 0.91242 0.0
C11 C 0.06388 0.01453 0.91059 0.0
C12 C 0.06145 0.01055 0.88021 0.0
C13 C 0.00643 0.00672 0.86561 0.0
C14 C 0.95481 0.0084 0.88198 0.0
Zn15 Zn 0.02065 0.01351 0.97095 0.0
O16 O 0.96438 0.9527 0.02507 0.0
C17 C 0.94386 0.09137 -0.00578 0.0
O18 O 0.95491 0.95221 0.97684 0.0
H19 H 0.10635 0.01644 0.92192 0.0
H20 H 0.94885 0.01317 0.06918 0.0
H21 H 0.91972 0.01229 0.92526 0.0
O22 O 0.97149 0.07272 0.01804 0.0
O23 O 0.95462 0.07278 0.97012 0.0
H24 H 0.13485 0.00191 0.0647 0.0
O25 O 0.08687 0.07509 0.96581 0.0
O26 O 0.10205 0.06467 0.01418 0.0
O27 O 0.08616 0.95357 0.97228 0.0
O28 O 0.09458 0.94523 0.02091 0.0
C29 C 0.11497 0.08762 0.98864 0.0
H30 H 0.95603 0.01599 0.12314 0.0
H31 H 0.14616 0.00514 0.11862 0.0
H32 H 0.10226 0.0103 0.8683 0.0
H33 H 0.91153 0.00519 0.87156 0.0
C34 C 0.42093 0.45848 0.50911 0.0
N35 N 0.52334 0.52726 0.57258 0.0
C36 C 0.4732 0.53393 0.58757 0.0
C37 C 0.47643 0.54103 0.61759 0.0
C38 C 0.53179 0.54129 0.63231 0.0
C39 C 0.58267 0.53235 0.61658 0.0
C40 C 0.57741 0.52544 0.58655 0.0
Zn41 Zn 0.51749 0.52759 0.52769 0.0
C42 C 0.59367 0.4478 0.5055 0.0
N43 N 0.5044 0.5349 0.43343 0.0
C44 C 0.45137 0.5355 0.4185 0.0
C45 C 0.55606 0.53232 0.41903 0.0
C46 C 0.55572 0.52891 0.38859 0.0
C47 C 0.50171 0.52815 0.37269 0.0
C48 C 0.449 0.53228 0.38791 0.0
Zn49 Zn 0.50888 0.53369 0.47851 0.0
O50 O 0.44616 0.47403 0.53189 0.0
C51 C 0.43356 0.6141 0.50046 0.0
O52 O 0.43903 0.47597 0.48336 0.0
H53 H 0.59774 0.53198 0.43129 0.0
H54 H 0.43069 0.53528 0.57602 0.0
H55 H 0.41085 0.53741 0.43044 0.0
O56 O 0.45767 0.59326 0.52482 0.0
O57 O 0.44631 0.59614 0.47643 0.0
H58 H 0.61671 0.52039 0.57414 0.0
O59 O 0.57859 0.59177 0.47452 0.0
O60 O 0.58834 0.58104 0.52314 0.0
O61 O 0.57169 0.47114 0.48122 0.0
O62 O 0.57773 0.46237 0.52995 0.0
C63 C 0.60501 0.60305 0.49806 0.0
H64 H 0.43603 0.54681 0.62906 0.0
H65 H 0.62623 0.53259 0.62705 0.0
H66 H 0.59741 0.52672 0.37762 0.0
H67 H 0.40641 0.5315 0.3765 0.0
H68 H 0.11028 0.96678 0.39846 0.0
H69 H 0.011 0.11221 0.39879 0.0
H70 H 0.06181 0.01837 0.48133 0.0
H71 H 0.93927 0.06203 0.48039 0.0
C72 C 0.94342 0.09346 0.46124 0.0
O73 O 0.00252 0.10317 0.45621 0.0
H74 H 0.92141 0.07797 0.44173 0.0
C75 C 0.089 0.99571 0.41051 0.0
C76 C 0.08971 0.98745 0.44167 0.0
C77 C 0.061 0.04058 0.39474 0.0
C78 C 0.03448 0.07813 0.41054 0.0
C79 C 0.0344 0.07002 0.44165 0.0
C80 C 0.06284 0.02511 0.4573 0.0
H81 H 0.10258 0.08667 0.59986 0.0
H82 H 0.98756 0.95556 0.58553 0.0
H83 H 0.02249 0.07756 0.51354 0.0
H84 H 0.88822 0.03014 0.52079 0.0
C85 C 0.90448 0.99039 0.53107 0.0
O86 O 0.96531 0.98827 0.52963 0.0
H87 H 0.89077 0.98471 0.55466 0.0
C88 C 0.07466 0.06611 0.58517 0.0
C89 C 0.0677 0.08715 0.55503 0.0
C90 C 0.045 0.01928 0.59662 0.0
C91 C 0.00989 0.99234 0.57732 0.0
C92 C 0.00124 0.01368 0.54754 0.0
C93 C 0.0298 0.06106 0.53648 0.0
H94 H 0.63302 0.46587 0.90353 0.0
H95 H 0.49568 0.58187 0.90953 0.0
H96 H 0.53267 0.46078 0.98292 0.0
H97 H 0.39315 0.49917 0.97426 0.0
C98 C 0.4075 0.53313 0.95812 0.0
O99 O 0.46647 0.54386 0.96316 0.0
H100 H 0.39948 0.5213 0.93545 0.0
C101 C 0.59978 0.48329 0.91618 0.0
C102 C 0.58856 0.45962 0.9452 0.0
C103 C 0.56564 0.52664 0.90273 0.0
C104 C 0.52199 0.5479 0.91927 0.0
C105 C 0.50993 0.52395 0.948 0.0
C106 C 0.54255 0.47941 0.9608 0.0
H107 H 0.63406 0.56761 0.10327 0.0
H108 H 0.51438 0.43533 0.10039 0.0
H109 H 0.58391 0.51447 0.01941 0.0
H110 H 0.45373 0.48456 0.01671 0.0
C111 C 0.45526 0.44978 0.03429 0.0
O112 O 0.51336 0.43869 0.04281 0.0
H113 H 0.43046 0.46031 0.05364 0.0
C114 C 0.61041 0.53997 0.09073 0.0
C115 C 0.61465 0.54526 0.05959 0.0
C116 C 0.57413 0.50077 0.10575 0.0
C117 C 0.54221 0.46625 0.08927 0.0
C118 C 0.54542 0.47158 0.05827 0.0
C119 C 0.58143 0.51102 0.04341 0.0
C120 C 0.20031 0.13386 0.0102 0.0
C121 C 0.16071 0.12982 0.98616 0.0
C122 C 0.24035 0.17613 0.00944 0.0
C123 C 0.24162 0.21564 0.98461 0.0
C124 C 0.20271 0.2112 0.96035 0.0
C125 C 0.16304 0.16832 0.96094 0.0
C126 C 0.27893 0.26418 0.98492 0.0
C127 C 0.33058 0.264 0.00044 0.0
C128 C 0.36329 0.31337 0.00553 0.0
C129 C 0.42406 0.30995 0.01256 0.0
C130 C 0.45487 0.35408 0.02095 0.0
C131 C 0.4251 0.40246 0.02296 0.0
H132 H 0.28689 0.36616 0.00213 0.0
C133 C 0.36464 0.40622 0.01527 0.0
C134 C 0.33398 0.36227 0.00661 0.0
H135 H 0.34071 0.44296 0.01677 0.0
H136 H 0.19957 0.10488 0.02999 0.0
H137 H 0.26838 0.1789 0.02892 0.0
H138 H 0.20237 0.24141 0.94109 0.0
H139 H 0.1328 0.16643 0.94216 0.0
H140 H 0.26271 0.30113 0.97242 0.0
H141 H 0.34945 0.22611 0.01043 0.0
H142 H 0.44761 0.27266 0.01209 0.0
H143 H 0.50155 0.34965 0.02652 0.0
C144 C 0.16354 0.86781 0.96815 0.0
C145 C 0.14955 0.88458 -0.00445 0.0
C146 C 0.19783 0.82218 0.96714 0.0
C147 C 0.21957 0.79244 -0.00644 0.0
C148 C 0.2061 0.80953 0.02094 0.0
C149 C 0.17167 0.85528 0.02196 0.0
C150 C 0.25313 0.74181 -0.00662 0.0
C151 C 0.28423 0.73083 0.96991 0.0
C152 C 0.31464 0.67912 0.96796 0.0
C153 C 0.3335 0.66874 0.93994 0.0
C154 C 0.36231 0.621 0.93668 0.0
C155 C 0.37252 0.5824 0.96135 0.0
H156 H 0.31394 0.64717 0.01499 0.0
C157 C 0.35474 0.59271 -0.01051 0.0
C158 C 0.32594 0.64056 -0.00717 0.0
H159 H 0.36385 0.56397 0.00894 0.0
H160 H 0.14677 0.88917 0.94738 0.0
H161 H 0.20523 0.80957 0.94559 0.0
H162 H 0.22182 0.78714 0.04163 0.0
H163 H 0.16143 0.86702 0.04344 0.0
H164 H 0.25116 0.71302 0.01321 0.0
H165 H 0.28687 0.76084 0.95059 0.0
H166 H 0.32599 0.69775 0.92044 0.0
H167 H 0.3771 0.61437 0.91489 0.0
C168 C 0.8753 0.86259 0.98511 0.0
C169 C 0.89577 0.89074 0.00828 0.0
C170 C 0.83822 0.81811 -0.00892 0.0
C171 C 0.8207 0.80128 0.02037 0.0
C172 C 0.83989 0.83055 0.04321 0.0
C173 C 0.87681 0.87469 0.03728 0.0
C174 C 0.78595 0.75182 0.02882 0.0
C175 C 0.75471 0.72481 0.0098 0.0
C176 C 0.7217 0.67541 0.02061 0.0
C177 C 0.66724 0.6644 0.00709 0.0
C178 C 0.63307 0.62082 0.01896 0.0
C179 C 0.65316 0.58739 0.04445 0.0
H180 H 0.78636 0.64562 0.05501 0.0
C181 C 0.7094 0.59646 0.05668 0.0
C182 C 0.74337 0.63977 0.04486 0.0
H183 H 0.7268 0.57044 0.07578 0.0
H184 H 0.88937 0.87387 0.96253 0.0
H185 H 0.82526 0.79623 0.9729 0.0
H186 H 0.82717 0.81865 0.06597 0.0
H187 H 0.89146 0.89555 0.05566 0.0
H188 H 0.78504 0.73758 0.05247 0.0
H189 H 0.75005 0.74051 0.98645 0.0
H190 H 0.65002 0.69078 0.98809 0.0
H191 H 0.58997 0.61466 0.00899 0.0
C192 C 0.85763 0.14512 0.97151 0.0
C193 C 0.90044 0.13491 -0.00547 0.0
C194 C 0.81758 0.18726 0.97144 0.0
C195 C 0.82015 0.22041 -0.00578 0.0
C196 C 0.86296 0.21025 0.01718 0.0
C197 C 0.90224 0.16743 0.01758 0.0
C198 C 0.78216 0.26845 -0.00699 0.0
C199 C 0.72644 0.27008 0.98185 0.0
C200 C 0.69176 0.32034 0.97626 0.0
C201 C 0.7194 0.3695 0.96715 0.0
C202 C 0.68565 0.4152 0.95814 0.0
C203 C 0.62375 0.41281 0.95829 0.0
H204 H 0.60755 0.28079 0.98384 0.0
C205 C 0.59603 0.36437 0.96856 0.0
C206 C 0.62982 0.3183 0.97714 0.0
H207 H 0.54826 0.36158 0.96861 0.0
H208 H 0.85525 0.1207 0.95346 0.0
H209 H 0.78603 0.19493 0.95301 0.0
H210 H 0.86619 0.23566 0.03476 0.0
H211 H 0.93499 0.16067 0.03554 0.0
H212 H 0.80088 0.30349 0.00148 0.0
H213 H 0.70574 0.23361 0.97615 0.0
H214 H 0.76695 0.37229 0.96552 0.0
H215 H 0.70788 0.45221 0.95026 0.0
C216 C 0.66272 0.67933 0.47168 0.0
C217 C 0.65391 0.64208 0.49696 0.0
C218 C 0.70609 0.71903 0.47223 0.0
C219 C 0.74154 0.72167 0.49805 0.0
C220 C 0.73445 0.68272 0.52264 0.0
C221 C 0.69091 0.64369 0.52222 0.0
C222 C 0.78516 0.76489 0.50096 0.0
C223 C 0.78006 0.81467 0.48627 0.0
C224 C 0.81653 0.86008 0.49447 0.0
C225 C 0.79266 0.91197 0.48972 0.0
C226 C 0.8223 0.95463 0.50051 0.0
C227 C 0.87679 0.94631 0.5159 0.0
H228 H 0.89362 0.8135 0.51177 0.0
C229 C 0.90192 0.89491 0.51959 0.0
C230 C 0.8726 0.8524 0.50859 0.0
H231 H 0.94373 0.8873 0.53157 0.0
H232 H 0.6351 0.67874 0.45182 0.0
H233 H 0.71145 0.74753 0.45255 0.0
H234 H 0.76146 0.68346 0.5427 0.0
H235 H 0.68576 0.61515 0.54195 0.0
H236 H 0.8184 0.7569 0.51867 0.0
H237 H 0.74353 0.82403 0.47046 0.0
H238 H 0.74975 0.91915 0.47877 0.0
H239 H 0.80177 0.99382 0.49763 0.0
C240 C 0.65683 0.39153 0.47738 0.0
C241 C 0.63839 0.40518 0.50483 0.0
C242 C 0.69976 0.35225 0.47626 0.0
C243 C 0.72575 0.32577 0.5026 0.0
C244 C 0.70661 0.33867 0.53007 0.0
C245 C 0.66362 0.37824 0.53121 0.0
C246 C 0.77034 0.28265 0.50201 0.0
C247 C 0.80642 0.28052 0.47897 0.0
C248 C 0.84578 0.23451 0.4758 0.0
C249 C 0.8625 0.22641 0.44707 0.0
C250 C 0.89551 0.18153 0.44254 0.0
C251 C 0.91268 0.14395 0.46669 0.0
H252 H 0.85604 0.20412 0.52279 0.0
C253 C 0.8993 0.15346 0.49564 0.0
C254 C 0.86592 0.19827 0.50021 0.0
H255 H 0.91358 0.1257 0.51468 0.0
H256 H 0.638 0.41111 0.45661 0.0
H257 H 0.71136 0.34208 0.45465 0.0
H258 H 0.72526 0.31834 0.5507 0.0
H259 H 0.65022 0.38769 0.55272 0.0
H260 H 0.77212 0.25149 0.52085 0.0
H261 H 0.80474 0.3125 0.46052 0.0
H262 H 0.84838 0.25402 0.4279 0.0
H263 H 0.9063 0.17533 0.42007 0.0
C264 C 0.34896 0.39439 0.48938 0.0
C265 C 0.37025 0.42131 0.51288 0.0
C266 C 0.3014 0.35876 0.49356 0.0
C267 C 0.27402 0.34993 0.52128 0.0
C268 C 0.29452 0.3779 0.5444 0.0
C269 C 0.34234 0.41275 0.54038 0.0
C270 C 0.22409 0.31215 0.52728 0.0
C271 C 0.21709 0.26717 0.51426 0.0
C272 C 0.17313 0.22453 0.52371 0.0
C273 C 0.16475 0.18265 0.50622 0.0
C274 C 0.12875 0.13895 0.51576 0.0
C275 C 0.10052 0.13601 0.54316 0.0
H276 H 0.14804 0.25267 0.56532 0.0
C277 C 0.10692 0.17877 0.56009 0.0
C278 C 0.14291 0.22229 0.55065 0.0
H279 H 0.08495 0.17815 0.58107 0.0
H280 H 0.36931 0.40051 0.46786 0.0
H281 H 0.28582 0.33887 0.47501 0.0
H282 H 0.27404 0.37209 0.56591 0.0
H283 H 0.3572 0.43324 0.55886 0.0
H284 H 0.19498 0.32045 0.54471 0.0
H285 H 0.24698 0.25951 0.49693 0.0
H286 H 0.18741 0.18299 0.48545 0.0
H287 H 0.12497 0.10649 0.50224 0.0
C288 C 0.35858 0.67723 0.47411 0.0
C289 C 0.39121 0.65883 0.50017 0.0
C290 C 0.31873 0.71955 0.47374 0.0
C291 C 0.31057 0.74446 0.49947 0.0
C292 C 0.34379 0.72663 0.52538 0.0
C293 C 0.38332 0.68389 0.52585 0.0
C294 C 0.2701 0.7909 0.49916 0.0
C295 C 0.22042 0.79585 0.482 0.0
C296 C 0.18236 0.84447 0.47685 0.0
C297 C 0.13143 0.84223 0.45866 0.0
C298 C 0.09919 0.8884 0.4488 0.0
C299 C 0.11686 0.93795 0.45708 0.0
H300 H 0.23667 0.8977 0.5007 0.0
C301 C 0.16506 0.94008 0.477 0.0
C302 C 0.19788 0.89375 0.48673 0.0
H303 H 0.17947 0.97804 0.48356 0.0
H304 H 0.36388 0.65905 0.45391 0.0
H305 H 0.29541 0.73341 0.45304 0.0
H306 H 0.3389 0.74559 0.54536 0.0
H307 H 0.40809 0.67086 0.54625 0.0
H308 H 0.28191 0.82095 0.51343 0.0
H309 H 0.20776 0.76277 0.46991 0.0
H310 H 0.11802 0.805 0.45082 0.0
H311 H 0.06181 0.88582 0.43359 0.0
C312 C 0.02301 0.05098 0.17058 0.0
C313 C 0.05728 0.01424 0.15752 0.0
C314 C 0.02677 0.05296 0.20119 0.0
C315 C 0.06519 0.0183 0.21934 0.0
C316 C 0.09951 0.98174 0.20625 0.0
C317 C 0.09588 0.97989 0.17561 0.0
C318 C 0.06783 0.01668 0.25211 0.0
C319 C 0.05235 0.05796 0.26648 0.0
C320 C 0.0528 0.05359 0.29935 0.0
C321 C 0.06444 0.09908 0.31354 0.0
C322 C 0.06659 0.09529 0.3446 0.0
C323 C 0.05665 0.04595 0.36189 0.0
H324 H 0.02884 0.96944 0.30651 0.0
C325 C 0.04266 0.00101 0.34761 0.0
C326 C 0.0406 0.00477 0.3167 0.0
H327 H 0.03292 0.96284 0.36036 0.0
H328 H 0.99314 0.07817 0.15711 0.0
H329 H 0.99837 0.08067 0.21052 0.0
H330 H 0.12894 0.95421 0.21979 0.0
H331 H 0.12228 0.95073 0.16619 0.0
H332 H 0.08463 0.98014 0.26485 0.0
H333 H 0.04137 0.09653 0.25406 0.0
H334 H 0.07309 0.1373 0.30058 0.0
H335 H 0.07725 0.13059 0.35507 0.0
C336 C 0.04259 0.96552 0.82196 0.0
C337 C 0.00331 0.0002 0.83357 0.0
C338 C 0.04119 0.96052 0.79162 0.0
C339 C 0.00065 0.99053 0.77222 0.0
C340 C 0.96019 0.02386 0.784 0.0
C341 C 0.96156 0.0288 0.81436 0.0
C342 C 0.9993 0.98849 0.73964 0.0
C343 C 0.04655 0.9754 0.72458 0.0
C344 C 0.04641 0.98037 0.69163 0.0
C345 C 0.0994 0.99277 0.67695 0.0
C346 C 0.09964 0.00338 0.64594 0.0
C347 C 0.04688 0.00127 0.62906 0.0
H348 H 0.95306 0.96354 0.68515 0.0
C349 C 0.99454 0.98561 0.6437 0.0
C350 C 0.99432 0.975 0.67465 0.0
H351 H 0.95311 0.98365 0.63135 0.0
H352 H 0.07425 0.94189 0.83638 0.0
H353 H 0.0716 0.93286 0.78363 0.0
H354 H 0.9282 0.0471 0.76958 0.0
H355 H 0.93084 0.05595 0.82265 0.0
H356 H 0.95936 0.00291 0.72742 0.0
H357 H 0.08842 0.96608 0.73632 0.0
H358 H 0.14031 0.99628 0.68952 0.0
H359 H 0.14087 0.01433 0.63524 0.0
C360 C 0.57551 0.52261 0.68401 0.0
C361 C 0.53643 0.55218 0.66368 0.0
C362 C 0.57881 0.53212 0.71371 0.0
C363 C 0.54338 0.57187 0.72365 0.0
C364 C 0.50474 0.60166 0.70324 0.0
C365 C 0.50143 0.59211 0.67356 0.0
C366 C 0.54158 0.57997 0.75549 0.0
C367 C 0.58545 0.5649 0.77543 0.0
C368 C 0.57948 0.56371 0.80807 0.0
C369 C 0.63067 0.55844 0.82643 0.0
C370 C 0.62655 0.54934 0.85736 0.0
C371 C 0.57101 0.54511 0.87055 0.0
H372 H 0.4832 0.56396 0.80832 0.0
C373 C 0.51986 0.5528 0.85229 0.0
C374 C 0.52393 0.56175 0.82142 0.0
H375 H 0.47638 0.54871 0.86172 0.0
H376 H 0.60235 0.49102 0.67716 0.0
H377 H 0.60762 0.50689 0.72888 0.0
H378 H 0.47661 0.63217 0.71033 0.0
H379 H 0.47147 0.61611 0.65832 0.0
H380 H 0.50206 0.59851 0.7626 0.0
H381 H 0.62718 0.55132 0.76777 0.0
H382 H 0.674 0.55959 0.81678 0.0
H383 H 0.66676 0.54397 0.87091 0.0
C384 C 0.53918 0.48527 0.3299 0.0
C385 C 0.50087 0.5219 0.34056 0.0
C386 C 0.54036 0.48043 0.29959 0.0
C387 C 0.50353 0.51253 0.27916 0.0
C388 C 0.4638 0.54782 0.28992 0.0
C389 C 0.46254 0.5526 0.32031 0.0
C390 C 0.50525 0.50996 0.24662 0.0
C391 C 0.55394 0.49529 0.23318 0.0
C392 C 0.55758 0.49527 0.20051 0.0
C393 C 0.61332 0.50016 0.18762 0.0
C394 C 0.61878 0.50136 0.15693 0.0
C395 C 0.56857 0.4971 0.13848 0.0
H396 H 0.46387 0.48417 0.19131 0.0
C397 C 0.51289 0.4907 0.15143 0.0
C398 C 0.50739 0.4897 0.18214 0.0
H399 H 0.47337 0.48744 0.13775 0.0
H400 H 0.56807 0.45996 0.34507 0.0
H401 H 0.56982 0.45113 0.29239 0.0
H402 H 0.4345 0.5726 0.2747 0.0
H403 H 0.43257 0.58121 0.32786 0.0
H404 H 0.46656 0.5241 0.23326 0.0
H405 H 0.59436 0.48626 0.24629 0.0
H406 H 0.65279 0.50383 0.20129 0.0
H407 H 0.66238 0.50552 0.14765 0.0
loop_
_geom_bond_atom_site_label_1
_geom_bond_atom_site_label_2
_geom_bond_distance
_geom_bond_site_symmetry_2
_ccdc_geom_bond_type
C0 O16 1.251 . S
C0 O18 1.254 1_554 S
N1 C2 1.333 1_445 S
N1 C6 1.307 . S
N1 Zn7 2.020 . S
C2 N1 1.333 1_665 S
C2 C3 1.379 . S
C2 H20 0.952 . S
C3 C2 1.379 . S
C3 C4 1.390 1_665 S
C3 H30 0.949 . S
C4 C3 1.390 1_445 S
C4 C5 1.357 . S
C5 C4 1.357 . S
C5 C6 1.370 . S
C5 H31 0.950 . S
C6 N1 1.307 . S
C6 C5 1.370 . S
C6 H24 0.948 . S
Zn7 N1 2.020 . S
Zn7 O16 2.039 1_445 S
Zn7 O22 2.034 1_455 S
Zn7 O26 2.025 . S
Zn7 O28 2.024 1_545 S
C8 O27 1.246 1_554 S
C8 O28 1.249 . S
N9 C10 1.307 1_455 S
N9 C11 1.333 . S
N9 Zn15 2.020 . S
C10 N9 1.307 1_655 S
C10 C14 1.370 . S
C10 H21 0.948 . S
C11 N9 1.333 . S
C11 C12 1.379 . S
C11 H19 0.952 . S
C12 C11 1.379 . S
C12 C13 1.390 . S
C12 H32 0.949 . S
C13 C12 1.390 . S
C13 C14 1.357 1_455 S
C14 C10 1.370 . S
C14 C13 1.357 1_655 S
C14 H33 0.950 . S
Zn15 N9 2.020 . S
Zn15 O18 2.025 1_445 S
Zn15 O23 2.024 1_455 S
Zn15 O25 2.039 . S
Zn15 O27 2.034 1_545 S
O16 C0 1.251 . S
O16 Zn7 2.039 1_665 S
C17 O22 1.246 . S
C17 O23 1.249 1_554 S
O18 C0 1.254 1_556 S
O18 Zn15 2.025 1_665 S
H19 C11 0.952 . S
H20 C2 0.952 . S
H21 C10 0.948 . S
O22 Zn7 2.034 1_655 S
O22 C17 1.246 . S
O23 Zn15 2.024 1_655 S
O23 C17 1.249 1_556 S
H24 C6 0.948 . S
O25 Zn15 2.039 . S
O25 C29 1.251 1_556 S
O26 Zn7 2.025 . S
O26 C29 1.254 . S
O27 C8 1.246 1_556 S
O27 Zn15 2.034 1_565 S
O28 Zn7 2.024 1_565 S
O28 C8 1.249 . S
C29 O25 1.251 1_554 S
C29 O26 1.254 . S
H30 C3 0.949 . S
H31 C5 0.950 . S
H32 C12 0.949 . S
H33 C14 0.950 . S
C34 O50 1.251 . S
C34 O52 1.254 . S
N35 C36 1.333 . S
N35 C40 1.307 . S
N35 Zn41 2.020 . S
C36 N35 1.333 . S
C36 C37 1.379 . S
C36 H54 0.952 . S
C37 C36 1.379 . S
C37 C38 1.390 . S
C37 H64 0.949 . S
C38 C37 1.390 . S
C38 C39 1.357 . S
C39 C38 1.357 . S
C39 C40 1.370 . S
C39 H65 0.950 . S
C40 N35 1.307 . S
C40 C39 1.370 . S
C40 H58 0.948 . S
Zn41 N35 2.020 . S
Zn41 O50 2.039 . S
Zn41 O56 2.034 . S
Zn41 O60 2.025 . S
Zn41 O62 2.024 . S
C42 O61 1.246 . S
C42 O62 1.249 . S
N43 C44 1.307 . S
N43 C45 1.333 . S
N43 Zn49 2.020 . S
C44 N43 1.307 . S
C44 C48 1.370 . S
C44 H55 0.948 . S
C45 N43 1.333 . S
C45 C46 1.379 . S
C45 H53 0.952 . S
C46 C45 1.379 . S
C46 C47 1.390 . S
C46 H66 0.949 . S
C47 C46 1.390 . S
C47 C48 1.357 . S
C48 C44 1.370 . S
C48 C47 1.357 . S
C48 H67 0.950 . S
Zn49 N43 2.020 . S
Zn49 O52 2.025 . S
Zn49 O57 2.024 . S
Zn49 O59 2.039 . S
Zn49 O61 2.034 . S
O50 C34 1.251 . S
O50 Zn41 2.039 . S
C51 O56 1.246 . S
C51 O57 1.249 . S
O52 C34 1.254 . S
O52 Zn49 2.025 . S
H53 C45 0.952 . S
H54 C36 0.952 . S
H55 C44 0.948 . S
O56 Zn41 2.034 . S
O56 C51 1.246 . S
O57 Zn49 2.024 . S
O57 C51 1.249 . S
H58 C40 0.948 . S
O59 Zn49 2.039 . S
O59 C63 1.251 . S
O60 Zn41 2.025 . S
O60 C63 1.254 . S
O61 C42 1.246 . S
O61 Zn49 2.034 . S
O62 Zn41 2.024 . S
O62 C42 1.249 . S
C63 O59 1.251 . S
C63 O60 1.254 . S
H64 C37 0.949 . S
H65 C39 0.950 . S
H66 C46 0.949 . S
H67 C48 0.950 . S
H68 C75 0.929 . S
H69 C78 0.930 . S
H70 C80 0.929 . S
H71 C72 0.969 . S
C72 H71 0.969 . S
C72 O73 1.550 . S
C72 H74 0.973 . S
O73 C72 1.550 . S
O73 C79 1.412 . S
H74 C72 0.973 . S
C75 H68 0.929 . S
C75 C76 1.400 . S
C75 C77 1.364 . S
C76 C75 1.400 . S
C76 C80 1.377 . S
C77 C75 1.364 . S
C77 C78 1.374 1_465 S
C78 H69 0.930 . S
C78 C77 1.374 1_645 S
C78 C79 1.383 . S
C79 O73 1.412 . S
C79 C78 1.383 . S
C79 C80 1.394 1_645 S
C80 H70 0.929 . S
C80 C76 1.377 . S
C80 C79 1.394 1_465 S
H81 C88 0.929 . S
H82 C91 0.930 1_665 S
H83 C93 0.929 . S
H84 C85 0.969 . S
C85 H84 0.969 . S
C85 O86 1.550 . S
C85 H87 0.973 . S
O86 C85 1.550 . S
O86 C92 1.412 1_665 S
H87 C85 0.973 . S
C88 H81 0.929 . S
C88 C89 1.400 . S
C88 C90 1.364 . S
C89 C88 1.400 . S
C89 C93 1.377 . S
C90 C88 1.364 . S
C90 C91 1.374 . S
C91 H82 0.930 1_445 S
C91 C90 1.374 . S
C91 C92 1.383 . S
C92 O86 1.412 1_445 S
C92 C91 1.383 . S
C92 C93 1.394 . S
C93 H83 0.929 . S
C93 C89 1.377 . S
C93 C92 1.394 . S
H94 C101 0.929 . S
H95 C104 0.930 . S
H96 C106 0.929 1_554 S
H97 C98 0.969 . S
C98 H97 0.969 . S
C98 O99 1.550 . S
C98 H100 0.973 . S
O99 C98 1.550 . S
O99 C105 1.412 . S
H100 C98 0.973 . S
C101 H94 0.929 . S
C101 C102 1.400 . S
C101 C103 1.364 . S
C102 C101 1.400 . S
C102 C106 1.377 . S
C103 C101 1.364 . S
C103 C104 1.374 . S
C104 H95 0.930 . S
C104 C103 1.374 . S
C104 C105 1.383 . S
C105 O99 1.412 . S
C105 C104 1.383 . S
C105 C106 1.394 . S
C106 H96 0.929 1_556 S
C106 C102 1.377 . S
C106 C105 1.394 . S
H107 C114 0.929 . S
H108 C117 0.930 . S
H109 C119 0.929 . S
H110 C111 0.969 . S
C111 H110 0.969 . S
C111 O112 1.550 . S
C111 H113 0.973 . S
O112 C111 1.550 . S
O112 C118 1.412 . S
H113 C111 0.973 . S
C114 H107 0.929 . S
C114 C115 1.400 . S
C114 C116 1.364 . S
C115 C114 1.400 . S
C115 C119 1.377 . S
C116 C114 1.364 . S
C116 C117 1.374 . S
C117 H108 0.930 . S
C117 C116 1.374 . S
C117 C118 1.383 . S
C118 O112 1.412 . S
C118 C117 1.383 . S
C118 C119 1.394 . S
C119 H109 0.929 . S
C119 C115 1.377 . S
C119 C118 1.394 . S
C120 C121 1.386 . S
C120 C122 1.383 . S
C120 H136 0.951 . S
C121 C120 1.386 . S
C121 C125 1.383 1_554 S
C122 C120 1.383 . S
C122 C123 1.402 1_554 S
C122 H137 0.951 . S
C123 C122 1.402 1_556 S
C123 C124 1.375 . S
C123 C126 1.480 . S
C124 C123 1.375 . S
C124 C125 1.367 . S
C124 H138 0.951 . S
C125 C121 1.383 1_556 S
C125 C124 1.367 . S
C125 H139 0.950 . S
C126 C123 1.480 . S
C126 C127 1.297 . S
C126 H140 0.950 . S
C127 C126 1.297 . S
C127 C128 1.475 1_556 S
C127 H141 0.957 . S
C128 C127 1.475 1_554 S
C128 C129 1.375 . S
C128 C134 1.404 1_554 S
C129 C128 1.375 . S
C129 C130 1.369 . S
C129 H142 0.950 . S
C130 C129 1.369 . S
C130 C131 1.392 . S
C130 H143 0.951 . S
C131 C130 1.392 . S
C131 C133 1.384 . S
H132 C134 0.949 . S
C133 C131 1.384 . S
C133 C134 1.385 1_554 S
C133 H135 0.950 . S
C134 C128 1.404 1_556 S
C134 H132 0.949 . S
C134 C133 1.385 1_556 S
H135 C133 0.950 . S
H136 C120 0.951 . S
H137 C122 0.951 . S
H138 C124 0.951 . S
H139 C125 0.950 . S
H140 C126 0.950 . S
H141 C127 0.957 . S
H142 C129 0.950 . S
H143 C130 0.951 . S
C144 C145 1.386 . S
C144 C146 1.383 . S
C144 H160 0.951 1_554 S
C145 C144 1.386 . S
C145 C149 1.383 . S
C146 C144 1.383 . S
C146 C147 1.402 . S
C146 H161 0.951 1_554 S
C147 C146 1.402 . S
C147 C148 1.375 . S
C147 C150 1.481 . S
C148 C147 1.375 . S
C148 C149 1.367 . S
C148 H162 0.951 . S
C149 C145 1.383 . S
C149 C148 1.367 . S
C149 H163 0.950 . S
C150 C147 1.481 . S
C150 C151 1.297 . S
C150 H164 0.950 . S
C151 C150 1.297 . S
C151 C152 1.479 . S
C151 H165 0.950 . S
C152 C151 1.479 . S
C152 C153 1.375 1_554 S
C152 C158 1.404 . S
C153 C152 1.375 1_556 S
C153 C154 1.369 . S
C153 H166 0.950 . S
C154 C153 1.369 . S
C154 C155 1.392 . S
C154 H167 0.951 . S
C155 C154 1.392 . S
C155 C157 1.384 1_556 S
H156 C158 0.949 . S
C157 C155 1.384 1_554 S
C157 C158 1.385 . S
C157 H159 0.950 . S
C158 C152 1.404 . S
C158 H156 0.949 . S
C158 C157 1.385 . S
H159 C157 0.950 . S
H160 C144 0.951 1_556 S
H161 C146 0.951 1_556 S
H162 C148 0.951 . S
H163 C149 0.950 . S
H164 C150 0.950 . S
H165 C151 0.950 . S
H166 C153 0.950 . S
H167 C154 0.951 . S
C168 C169 1.386 1_556 S
C168 C170 1.387 . S
C168 H184 0.951 . S
C169 C168 1.386 1_554 S
C169 C173 1.383 . S
C170 C168 1.387 . S
C170 C171 1.374 1_556 S
C170 H185 0.975 . S
C171 C170 1.374 1_554 S
C171 C172 1.375 . S
C171 C174 1.481 . S
C172 C171 1.375 . S
C172 C173 1.367 . S
C172 H186 0.951 . S
C173 C169 1.383 . S
C173 C172 1.367 . S
C173 H187 0.950 . S
C174 C171 1.481 . S
C174 C175 1.297 . S
C174 H188 0.950 . S
C175 C174 1.297 . S
C175 C176 1.479 . S
C175 H189 0.950 1_554 S
C176 C175 1.479 . S
C176 C177 1.395 . S
C176 C182 1.404 . S
C177 C176 1.395 . S
C177 C178 1.371 . S
C177 H190 0.928 1_554 S
C178 C177 1.371 . S
C178 C179 1.392 . S
C178 H191 0.951 1_554 S
C179 C178 1.392 . S
C179 C181 1.384 . S
H180 C182 0.949 . S
C181 C179 1.384 . S
C181 C182 1.385 . S
C181 H183 0.950 . S
C182 C176 1.404 . S
C182 H180 0.949 . S
C182 C181 1.385 . S
H183 C181 0.950 . S
H184 C168 0.951 . S
H185 C170 0.975 . S
H186 C172 0.951 . S
H187 C173 0.950 . S
H188 C174 0.950 . S
H189 C175 0.950 1_556 S
H190 C177 0.928 1_556 S
H191 C178 0.951 1_556 S
C192 C193 1.386 1_556 S
C192 C194 1.383 . S
C192 H208 0.951 . S
C193 C192 1.386 1_554 S
C193 C197 1.383 . S
C194 C192 1.383 . S
C194 C195 1.402 1_556 S
C194 H209 0.951 . S
C195 C194 1.402 1_554 S
C195 C196 1.375 . S
C195 C198 1.481 . S
C196 C195 1.375 . S
C196 C197 1.367 . S
C196 H210 0.951 . S
C197 C193 1.383 . S
C197 C196 1.367 . S
C197 H211 0.950 . S
C198 C195 1.481 . S
C198 C199 1.297 1_554 S
C198 H212 0.950 . S
C199 C198 1.297 1_556 S
C199 C200 1.479 . S
C199 H213 0.950 . S
C200 C199 1.479 . S
C200 C201 1.375 . S
C200 C206 1.404 1_556 S
C201 C200 1.375 . S
C201 C202 1.369 . S
C201 H214 0.950 . S
C202 C201 1.369 . S
C202 C203 1.392 . S
C202 H215 0.951 . S
C203 C202 1.392 . S
C203 C205 1.384 1_556 S
H204 C206 0.949 . S
C205 C203 1.384 1_554 S
C205 C206 1.385 . S
C205 H207 0.950 . S
C206 C200 1.404 1_554 S
C206 H204 0.949 . S
C206 C205 1.385 . S
H207 C205 0.950 . S
H208 C192 0.951 . S
H209 C194 0.951 . S
H210 C196 0.951 . S
H211 C197 0.950 . S
H212 C198 0.950 . S
H213 C199 0.950 . S
H214 C201 0.950 . S
H215 C202 0.951 . S
C216 C217 1.386 . S
C216 C218 1.383 . S
C216 H232 0.951 . S
C217 C216 1.386 . S
C217 C221 1.383 . S
C218 C216 1.383 . S
C218 C219 1.402 . S
C218 H233 0.951 . S
C219 C218 1.402 . S
C219 C220 1.375 . S
C219 C222 1.481 . S
C220 C219 1.375 . S
C220 C221 1.367 . S
C220 H234 0.951 . S
C221 C217 1.383 . S
C221 C220 1.367 . S
C221 H235 0.950 . S
C222 C219 1.481 . S
C222 C223 1.297 . S
C222 H236 0.950 . S
C223 C222 1.297 . S
C223 C224 1.479 . S
C223 H237 0.950 . S
C224 C223 1.479 . S
C224 C225 1.375 . S
C224 C230 1.404 . S
C225 C224 1.375 . S
C225 C226 1.369 . S
C225 H238 0.950 . S
C226 C225 1.369 . S
C226 C227 1.392 . S
C226 H239 0.951 . S
C227 C226 1.392 . S
C227 C229 1.384 . S
H228 C230 0.949 . S
C229 C227 1.384 . S
C229 C230 1.385 . S
C229 H231 0.950 . S
C230 C224 1.404 . S
C230 H228 0.949 . S
C230 C229 1.385 . S
H231 C229 0.950 . S
H232 C216 0.951 . S
H233 C218 0.951 . S
H234 C220 0.951 . S
H235 C221 0.950 . S
H236 C222 0.950 . S
H237 C223 0.950 . S
H238 C225 0.950 . S
H239 C226 0.951 . S
C240 C241 1.386 . S
C240 C242 1.383 . S
C240 H256 0.951 . S
C241 C240 1.386 . S
C241 C245 1.383 . S
C242 C240 1.383 . S
C242 C243 1.402 . S
C242 H257 0.951 . S
C243 C242 1.402 . S
C243 C244 1.375 . S
C243 C246 1.481 . S
C244 C243 1.375 . S
C244 C245 1.367 . S
C244 H258 0.951 . S
C245 C241 1.383 . S
C245 C244 1.367 . S
C245 H259 0.950 . S
C246 C243 1.481 . S
C246 C247 1.297 . S
C246 H260 0.950 . S
C247 C246 1.297 . S
C247 C248 1.479 . S
C247 H261 0.950 . S
C248 C247 1.479 . S
C248 C249 1.375 . S
C248 C254 1.404 . S
C249 C248 1.375 . S
C249 C250 1.369 . S
C249 H262 0.950 . S
C250 C249 1.369 . S
C250 C251 1.392 . S
C250 H263 0.951 . S
C251 C250 1.392 . S
C251 C253 1.384 . S
H252 C254 0.949 . S
C253 C251 1.384 . S
C253 C254 1.385 . S
C253 H255 0.950 . S
C254 C248 1.404 . S
C254 H252 0.949 . S
C254 C253 1.385 . S
H255 C253 0.950 . S
H256 C240 0.951 . S
H257 C242 0.951 . S
H258 C244 0.951 . S
H259 C245 0.950 . S
H260 C246 0.950 . S
H261 C247 0.950 . S
H262 C249 0.950 . S
H263 C250 0.951 . S
C264 C265 1.386 . S
C264 C266 1.383 . S
C264 H280 0.951 . S
C265 C264 1.386 . S
C265 C269 1.383 . S
C266 C264 1.383 . S
C266 C267 1.402 . S
C266 H281 0.951 . S
C267 C266 1.402 . S
C267 C268 1.375 . S
C267 C270 1.481 . S
C268 C267 1.375 . S
C268 C269 1.367 . S
C268 H282 0.951 . S
C269 C265 1.383 . S
C269 C268 1.367 . S
C269 H283 0.950 . S
C270 C267 1.481 . S
C270 C271 1.297 . S
C270 H284 0.950 . S
C271 C270 1.297 . S
C271 C272 1.479 . S
C271 H285 0.950 . S
C272 C271 1.479 . S
C272 C273 1.375 . S
C272 C278 1.404 . S
C273 C272 1.375 . S
C273 C274 1.369 . S
C273 H286 0.950 . S
C274 C273 1.369 . S
C274 C275 1.392 . S
C274 H287 0.951 . S
C275 C274 1.392 . S
C275 C277 1.384 . S
H276 C278 0.949 . S
C277 C275 1.384 . S
C277 C278 1.385 . S
C277 H279 0.950 . S
C278 C272 1.404 . S
C278 H276 0.949 . S
C278 C277 1.385 . S
H279 C277 0.950 . S
H280 C264 0.951 . S
H281 C266 0.951 . S
H282 C268 0.951 . S
H283 C269 0.950 . S
H284 C270 0.950 . S
H285 C271 0.950 . S
H286 C273 0.950 . S
H287 C274 0.951 . S
C288 C289 1.386 . S
C288 C290 1.383 . S
C288 H304 0.951 . S
C289 C288 1.386 . S
C289 C293 1.383 . S
C290 C288 1.383 . S
C290 C291 1.402 . S
C290 H305 0.951 . S
C291 C290 1.402 . S
C291 C292 1.375 . S
C291 C294 1.481 . S
C292 C291 1.375 . S
C292 C293 1.367 . S
C292 H306 0.951 . S
C293 C289 1.383 . S
C293 C292 1.367 . S
C293 H307 0.950 . S
C294 C291 1.481 . S
C294 C295 1.297 . S
C294 H308 0.950 . S
C295 C294 1.297 . S
C295 C296 1.479 . S
C295 H309 0.950 . S
C296 C295 1.479 . S
C296 C297 1.375 . S
C296 C302 1.404 . S
C297 C296 1.375 . S
C297 C298 1.369 . S
C297 H310 0.950 . S
C298 C297 1.369 . S
C298 C299 1.392 . S
C298 H311 0.951 . S
C299 C298 1.392 . S
C299 C301 1.384 . S
H300 C302 0.949 . S
C301 C299 1.384 . S
C301 C302 1.385 . S
C301 H303 0.950 . S
C302 C296 1.404 . S
C302 H300 0.949 . S
C302 C301 1.385 . S
H303 C301 0.950 . S
H304 C288 0.951 . S
H305 C290 0.951 . S
H306 C292 0.951 . S
H307 C293 0.950 . S
H308 C294 0.950 . S
H309 C295 0.950 . S
H310 C297 0.950 . S
H311 C298 0.951 . S
C312 C313 1.386 1_545 S
C312 C314 1.381 1_455 S
C312 H328 0.951 1_455 S
C313 C312 1.386 1_565 S
C313 C317 1.383 . S
C314 C312 1.381 1_655 S
C314 C315 1.397 1_645 S
C314 H329 0.957 . S
C315 C314 1.397 1_465 S
C315 C316 1.375 . S
C315 C318 1.481 . S
C316 C315 1.375 . S
C316 C317 1.367 . S
C316 H330 0.951 . S
C317 C313 1.383 . S
C317 C316 1.367 . S
C317 H331 0.950 . S
C318 C315 1.481 . S
C318 C319 1.297 1_455 S
C318 H332 0.950 . S
C319 C318 1.297 1_655 S
C319 C320 1.479 . S
C319 H333 0.950 1_565 S
C320 C319 1.479 . S
C320 C321 1.375 1_565 S
C320 C326 1.404 1_655 S
C321 C320 1.375 1_545 S
C321 C322 1.369 . S
C321 H334 0.950 . S
C322 C321 1.369 . S
C322 C323 1.392 1_645 S
C322 H335 0.951 . S
C323 C322 1.392 1_465 S
C323 C325 1.384 . S
H324 C326 0.949 . S
C325 C323 1.384 . S
C325 C326 1.385 . S
C325 H327 0.950 . S
C326 C320 1.404 1_455 S
C326 H324 0.949 . S
C326 C325 1.385 . S
H327 C325 0.950 . S
H328 C312 0.951 1_655 S
H329 C314 0.957 . S
H330 C316 0.951 . S
H331 C317 0.950 . S
H332 C318 0.950 . S
H333 C319 0.950 1_545 S
H334 C321 0.950 . S
H335 C322 0.951 . S
C336 C337 1.386 . S
C336 C338 1.383 . S
C336 H352 0.951 . S
C337 C336 1.386 . S
C337 C341 1.383 1_455 S
C338 C336 1.383 . S
C338 C339 1.402 . S
C338 H353 0.951 . S
C339 C338 1.402 . S
C339 C340 1.375 1_455 S
C339 C342 1.481 . S
C340 C339 1.375 1_655 S
C340 C341 1.367 . S
C340 H354 0.951 . S
C341 C337 1.383 1_655 S
C341 C340 1.367 . S
C341 H355 0.950 . S
C342 C339 1.481 . S
C342 C343 1.297 . S
C342 H356 0.950 1_455 S
C343 C342 1.297 . S
C343 C344 1.479 . S
C343 H357 0.950 . S
C344 C343 1.479 . S
C344 C345 1.375 . S
C344 C350 1.404 1_455 S
C345 C344 1.375 . S
C345 C346 1.369 . S
C345 H358 0.950 . S
C346 C345 1.369 . S
C346 C347 1.392 . S
C346 H359 0.951 . S
C347 C346 1.392 . S
C347 C349 1.384 1_455 S
H348 C350 0.949 . S
C349 C347 1.384 1_655 S
C349 C350 1.385 . S
C349 H351 0.950 . S
C350 C344 1.404 1_655 S
C350 H348 0.949 . S
C350 C349 1.385 . S
H351 C349 0.950 . S
H352 C336 0.951 . S
H353 C338 0.951 . S
H354 C340 0.951 . S
H355 C341 0.950 . S
H356 C342 0.950 1_655 S
H357 C343 0.950 . S
H358 C345 0.950 . S
H359 C346 0.951 . S
C360 C361 1.386 . S
C360 C362 1.383 . S
C360 H376 0.951 . S
C361 C360 1.386 . S
C361 C365 1.383 . S
C362 C360 1.383 . S
C362 C363 1.402 . S
C362 H377 0.951 . S
C363 C362 1.402 . S
C363 C364 1.375 . S
C363 C366 1.481 . S
C364 C363 1.375 . S
C364 C365 1.367 . S
C364 H378 0.951 . S
C365 C361 1.383 . S
C365 C364 1.367 . S
C365 H379 0.950 . S
C366 C363 1.481 . S
C366 C367 1.297 . S
C366 H380 0.950 . S
C367 C366 1.297 . S
C367 C368 1.479 . S
C367 H381 0.950 . S
C368 C367 1.479 . S
C368 C369 1.375 . S
C368 C374 1.404 . S
C369 C368 1.375 . S
C369 C370 1.369 . S
C369 H382 0.950 . S
C370 C369 1.369 . S
C370 C371 1.392 . S
C370 H383 0.951 . S
C371 C370 1.392 . S
C371 C373 1.384 . S
H372 C374 0.949 . S
C373 C371 1.384 . S
C373 C374 1.385 . S
C373 H375 0.950 . S
C374 C368 1.404 . S
C374 H372 0.949 . S
C374 C373 1.385 . S
H375 C373 0.950 . S
H376 C360 0.951 . S
H377 C362 0.951 . S
H378 C364 0.951 . S
H379 C365 0.950 . S
H380 C366 0.950 . S
H381 C367 0.950 . S
H382 C369 0.950 . S
H383 C370 0.951 . S
C384 C385 1.386 . S
C384 C386 1.383 . S
C384 H400 0.951 . S
C385 C384 1.386 . S
C385 C389 1.383 . S
C386 C384 1.383 . S
C386 C387 1.402 . S
C386 H401 0.951 . S
C387 C386 1.402 . S
C387 C388 1.375 . S
C387 C390 1.481 . S
C388 C387 1.375 . S
C388 C389 1.367 . S
C388 H402 0.951 . S
C389 C385 1.383 . S
C389 C388 1.367 . S
C389 H403 0.950 . S
C390 C387 1.481 . S
C390 C391 1.297 . S
C390 H404 0.950 . S
C391 C390 1.297 . S
C391 C392 1.479 . S
C391 H405 0.950 . S
C392 C391 1.479 . S
C392 C393 1.375 . S
C392 C398 1.404 . S
C393 C392 1.375 . S
C393 C394 1.369 . S
C393 H406 0.950 . S
C394 C393 1.369 . S
C394 C395 1.392 . S
C394 H407 0.951 . S
C395 C394 1.392 . S
C395 C397 1.384 . S
H396 C398 0.949 . S
C397 C395 1.384 . S
C397 C398 1.385 . S
C397 H399 0.950 . S
C398 C392 1.404 . S
C398 H396 0.949 . S
C398 C397 1.385 . S
H399 C397 0.950 . S
H400 C384 0.951 . S
H401 C386 0.951 . S
H402 C388 0.951 . S
H403 C389 0.950 . S
H404 C390 0.950 . S
H405 C391 0.950 . S
H406 C393 0.950 . S
H407 C394 0.951 . S
C131 C111 1.329 . S
C121 C29 1.378 . S
C145 C8 1.395 . S
C155 C98 1.347 . S
C169 C0 1.493 . S
C179 C115 1.464 . S
C193 C17 1.477 . S
C203 C102 1.454 . S
C217 C63 1.369 . S
C227 C85 1.161 . S
C241 C42 1.391 . S
C251 C72 1.258 . S
C275 C89 1.431 . S
C265 C34 1.488 . S
C299 C76 1.479 . S
C289 C51 1.485 . S
C313 C4 1.518 1_565 S
C323 C77 1.507 . S
C337 C13 1.509 . S
C347 C90 1.521 . S
C371 C103 1.509 . S
C361 C38 1.505 . S
C385 C47 1.510 . S
C395 C116 1.524 . S
