# Generated by pormake.
# Topology ptr, (4,4)-cn, num edge types: 1
# Building blocks:
#     Node 0, Type 0, BuildingBlock: KUFVIS_clean_sbu_0, # of connection points: 4
#     Node 1, Type 0, BuildingBlock: KUFVIS_clean_sbu_0, # of connection points: 4
#     Node 2, Type 0, BuildingBlock: KUFVIS_clean_sbu_0, # of connection points: 4
#     Node 3, Type 0, BuildingBlock: KUFVIS_clean_sbu_0, # of connection points: 4
#     Node 4, Type 0, BuildingBlock: KUFVIS_clean_sbu_0, # of connection points: 4
#     Node 5, Type 0, BuildingBlock: KUFVIS_clean_sbu_0, # of connection points: 4
#     Node 6, Type 0, BuildingBlock: KUFVIS_clean_sbu_0, # of connection points: 4
#     Node 7, Type 0, BuildingBlock: KUFVIS_clean_sbu_0, # of connection points: 4
#     Node 8, Type 0, BuildingBlock: KUFVIS_clean_sbu_0, # of connection points: 4
#     Node 9, Type 0, BuildingBlock: KUFVIS_clean_sbu_0, # of connection points: 4
#     Node 10, Type 0, BuildingBlock: KUFVIS_clean_sbu_0, # of connection points: 4
#     Node 11, Type 0, BuildingBlock: KUFVIS_clean_sbu_0, # of connection points: 4
#     Node 12, Type 0, BuildingBlock: KUFVIS_clean_sbu_0, # of connection points: 4
#     Node 13, Type 0, BuildingBlock: KUFVIS_clean_sbu_0, # of connection points: 4
#     Node 14, Type 0, BuildingBlock: KUFVIS_clean_sbu_0, # of connection points: 4
#     Node 15, Type 0, BuildingBlock: KUFVIS_clean_sbu_0, # of connection points: 4
#     Node 16, Type 0, BuildingBlock: KUFVIS_clean_sbu_0, # of connection points: 4
#     Node 17, Type 0, BuildingBlock: KUFVIS_clean_sbu_0, # of connection points: 4
#     Node 18, Type 1, BuildingBlock: GIZVER_clean_linker_0, # of connection points: 4
#     Node 19, Type 1, BuildingBlock: GIZVER_clean_linker_0, # of connection points: 4
#     Node 20, Type 1, BuildingBlock: GIZVER_clean_linker_0, # of connection points: 4
#     Node 21, Type 1, BuildingBlock: GIZVER_clean_linker_0, # of connection points: 4
#     Node 22, Type 1, BuildingBlock: GIZVER_clean_linker_0, # of connection points: 4
#     Node 23, Type 1, BuildingBlock: GIZVER_clean_linker_0, # of connection points: 4
#     Node 24, Type 1, BuildingBlock: GIZVER_clean_linker_0, # of connection points: 4
#     Node 25, Type 1, BuildingBlock: GIZVER_clean_linker_0, # of connection points: 4
#     Node 26, Type 1, BuildingBlock: GIZVER_clean_linker_0, # of connection points: 4
#     Node 27, Type 1, BuildingBlock: GIZVER_clean_linker_0, # of connection points: 4
#     Node 28, Type 1, BuildingBlock: GIZVER_clean_linker_0, # of connection points: 4
#     Node 29, Type 1, BuildingBlock: GIZVER_clean_linker_0, # of connection points: 4
#     Node 30, Type 1, BuildingBlock: GIZVER_clean_linker_0, # of connection points: 4
#     Node 31, Type 1, BuildingBlock: GIZVER_clean_linker_0, # of connection points: 4
#     Node 32, Type 1, BuildingBlock: GIZVER_clean_linker_0, # of connection points: 4
#     Node 33, Type 1, BuildingBlock: GIZVER_clean_linker_0, # of connection points: 4
#     Node 34, Type 1, BuildingBlock: GIZVER_clean_linker_0, # of connection points: 4
#     Node 35, Type 1, BuildingBlock: GIZVER_clean_linker_0, # of connection points: 4
#     Edge 36, Type (0, 1), BuildingBlock: XIVTED_clean_linker_0, # of connection points: 2
#     Edge 37, Type (0, 1), BuildingBlock: XIVTED_clean_linker_0, # of connection points: 2
#     Edge 38, Type (0, 1), BuildingBlock: XIVTED_clean_linker_0, # of connection points: 2
#     Edge 39, Type (0, 1), BuildingBlock: XIVTED_clean_linker_0, # of connection points: 2
#     Edge 40, Type (0, 1), BuildingBlock: XIVTED_clean_linker_0, # of connection points: 2
#     Edge 41, Type (0, 1), BuildingBlock: XIVTED_clean_linker_0, # of connection points: 2
#     Edge 42, Type (0, 1), BuildingBlock: XIVTED_clean_linker_0, # of connection points: 2
#     Edge 43, Type (0, 1), BuildingBlock: XIVTED_clean_linker_0, # of connection points: 2
#     Edge 44, Type (0, 1), BuildingBlock: XIVTED_clean_linker_0, # of connection points: 2
#     Edge 45, Type (0, 1), BuildingBlock: XIVTED_clean_linker_0, # of connection points: 2
#     Edge 46, Type (0, 1), BuildingBlock: XIVTED_clean_linker_0, # of connection points: 2
#     Edge 47, Type (0, 1), BuildingBlock: XIVTED_clean_linker_0, # of connection points: 2
#     Edge 48, Type (0, 1), BuildingBlock: XIVTED_clean_linker_0, # of connection points: 2
#     Edge 49, Type (0, 1), BuildingBlock: XIVTED_clean_linker_0, # of connection points: 2
#     Edge 50, Type (0, 1), BuildingBlock: XIVTED_clean_linker_0, # of connection points: 2
#     Edge 51, Type (0, 1), BuildingBlock: XIVTED_clean_linker_0, # of connection points: 2
#     Edge 52, Type (0, 1), BuildingBlock: XIVTED_clean_linker_0, # of connection points: 2
#     Edge 53, Type (0, 1), BuildingBlock: XIVTED_clean_linker_0, # of connection points: 2
#     Edge 54, Type (0, 1), BuildingBlock: XIVTED_clean_linker_0, # of connection points: 2
#     Edge 55, Type (0, 1), BuildingBlock: XIVTED_clean_linker_0, # of connection points: 2
#     Edge 56, Type (0, 1), BuildingBlock: XIVTED_clean_linker_0, # of connection points: 2
#     Edge 57, Type (0, 1), BuildingBlock: XIVTED_clean_linker_0, # of connection points: 2
#     Edge 58, Type (0, 1), BuildingBlock: XIVTED_clean_linker_0, # of connection points: 2
#     Edge 59, Type (0, 1), BuildingBlock: XIVTED_clean_linker_0, # of connection points: 2
#     Edge 60, Type (0, 1), BuildingBlock: XIVTED_clean_linker_0, # of connection points: 2
#     Edge 61, Type (0, 1), BuildingBlock: XIVTED_clean_linker_0, # of connection points: 2
#     Edge 62, Type (0, 1), BuildingBlock: XIVTED_clean_linker_0, # of connection points: 2
#     Edge 63, Type (0, 1), BuildingBlock: XIVTED_clean_linker_0, # of connection points: 2
#     Edge 64, Type (0, 1), BuildingBlock: XIVTED_clean_linker_0, # of connection points: 2
#     Edge 65, Type (0, 1), BuildingBlock: XIVTED_clean_linker_0, # of connection points: 2
#     Edge 66, Type (0, 1), BuildingBlock: XIVTED_clean_linker_0, # of connection points: 2
#     Edge 67, Type (0, 1), BuildingBlock: XIVTED_clean_linker_0, # of connection points: 2
#     Edge 68, Type (0, 1), BuildingBlock: XIVTED_clean_linker_0, # of connection points: 2
#     Edge 69, Type (0, 1), BuildingBlock: XIVTED_clean_linker_0, # of connection points: 2
#     Edge 70, Type (0, 1), BuildingBlock: XIVTED_clean_linker_0, # of connection points: 2
#     Edge 71, Type (0, 1), BuildingBlock: XIVTED_clean_linker_0, # of connection points: 2
#     Edge 72, Type (0, 1), BuildingBlock: XIVTED_clean_linker_0, # of connection points: 2
#     Edge 73, Type (0, 1), BuildingBlock: XIVTED_clean_linker_0, # of connection points: 2
#     Edge 74, Type (0, 1), BuildingBlock: XIVTED_clean_linker_0, # of connection points: 2
#     Edge 75, Type (0, 1), BuildingBlock: XIVTED_clean_linker_0, # of connection points: 2
#     Edge 76, Type (0, 1), BuildingBlock: XIVTED_clean_linker_0, # of connection points: 2
#     Edge 77, Type (0, 1), BuildingBlock: XIVTED_clean_linker_0, # of connection points: 2
#     Edge 78, Type (0, 1), BuildingBlock: XIVTED_clean_linker_0, # of connection points: 2
#     Edge 79, Type (0, 1), BuildingBlock: XIVTED_clean_linker_0, # of connection points: 2
#     Edge 80, Type (0, 1), BuildingBlock: XIVTED_clean_linker_0, # of connection points: 2
#     Edge 81, Type (0, 1), BuildingBlock: XIVTED_clean_linker_0, # of connection points: 2
#     Edge 82, Type (0, 1), BuildingBlock: XIVTED_clean_linker_0, # of connection points: 2
#     Edge 83, Type (0, 1), BuildingBlock: XIVTED_clean_linker_0, # of connection points: 2
#     Edge 84, Type (0, 1), BuildingBlock: XIVTED_clean_linker_0, # of connection points: 2
#     Edge 85, Type (0, 1), BuildingBlock: XIVTED_clean_linker_0, # of connection points: 2
#     Edge 86, Type (0, 1), BuildingBlock: XIVTED_clean_linker_0, # of connection points: 2
#     Edge 87, Type (0, 1), BuildingBlock: XIVTED_clean_linker_0, # of connection points: 2
#     Edge 88, Type (0, 1), BuildingBlock: XIVTED_clean_linker_0, # of connection points: 2
#     Edge 89, Type (0, 1), BuildingBlock: XIVTED_clean_linker_0, # of connection points: 2
#     Edge 90, Type (0, 1), BuildingBlock: XIVTED_clean_linker_0, # of connection points: 2
#     Edge 91, Type (0, 1), BuildingBlock: XIVTED_clean_linker_0, # of connection points: 2
#     Edge 92, Type (0, 1), BuildingBlock: XIVTED_clean_linker_0, # of connection points: 2
#     Edge 93, Type (0, 1), BuildingBlock: XIVTED_clean_linker_0, # of connection points: 2
#     Edge 94, Type (0, 1), BuildingBlock: XIVTED_clean_linker_0, # of connection points: 2
#     Edge 95, Type (0, 1), BuildingBlock: XIVTED_clean_linker_0, # of connection points: 2
#     Edge 96, Type (0, 1), BuildingBlock: XIVTED_clean_linker_0, # of connection points: 2
#     Edge 97, Type (0, 1), BuildingBlock: XIVTED_clean_linker_0, # of connection points: 2
#     Edge 98, Type (0, 1), BuildingBlock: XIVTED_clean_linker_0, # of connection points: 2
#     Edge 99, Type (0, 1), BuildingBlock: XIVTED_clean_linker_0, # of connection points: 2
#     Edge 100, Type (0, 1), BuildingBlock: XIVTED_clean_linker_0, # of connection points: 2
#     Edge 101, Type (0, 1), BuildingBlock: XIVTED_clean_linker_0, # of connection points: 2
#     Edge 102, Type (0, 1), BuildingBlock: XIVTED_clean_linker_0, # of connection points: 2
#     Edge 103, Type (0, 1), BuildingBlock: XIVTED_clean_linker_0, # of connection points: 2
#     Edge 104, Type (0, 1), BuildingBlock: XIVTED_clean_linker_0, # of connection points: 2
#     Edge 105, Type (0, 1), BuildingBlock: XIVTED_clean_linker_0, # of connection points: 2
#     Edge 106, Type (0, 1), BuildingBlock: XIVTED_clean_linker_0, # of connection points: 2
#     Edge 107, Type (0, 1), BuildingBlock: XIVTED_clean_linker_0, # of connection points: 2
# Relax obj value: 0.051
# Max RMSD: 0.133
# Mean RMSD: 0.084
data_MOF--net-ptr--node1-KUFVIS_clean_sbu_0--node2-GIZVER_clean_linker_0--edge1-XIVTED_clean_linker_0
_symmetry_space_group_name_H-M    P1
_symmetry_Int_Tables_number       1
_symmetry_cell_setting            triclinic
loop_
_symmetry_equiv_pos_as_xyz
'x, y, z'
_cell_length_a     79.583126
_cell_length_b     79.229389
_cell_length_c     49.126416
_cell_angle_alpha  89.871856
_cell_angle_beta   91.008147
_cell_angle_gamma 119.48122
loop_
_atom_site_label
_atom_site_type_symbol
_atom_site_fract_x
_atom_site_fract_y
_atom_site_fract_z
_atom_type_partial_charge
Mn0 Mn 0.99509 0.36869 -0.0005 0.0
Mn1 Mn 0.03634 0.4077 0.9789 0.0
C2 C 0.99406 0.38852 0.96558 0.0
C3 C 0.97248 0.33569 -0.00264 0.0
C4 C 0.01632 0.40694 0.03122 0.0
O5 O 0.01618 0.36342 0.01458 0.0
O6 O 0.04236 0.38878 -0.00319 0.0
C7 C 0.04719 0.3884 0.93665 0.0
N8 N 0.04316 0.40257 0.94399 0.0
C9 C 0.04945 0.41588 0.89885 0.0
C10 C 0.05378 0.40149 0.89083 0.0
C11 C 0.05258 0.38765 0.9098 0.0
C12 C 0.0441 0.41585 0.92585 0.0
H13 H 0.04631 0.37775 0.95117 0.0
C14 C 0.03429 0.37287 0.01007 0.0
O15 O 0.9745 0.34601 0.0189 0.0
O16 O 0.98388 0.3444 0.97725 0.0
N17 N 0.03293 0.42728 0.96084 0.0
C18 C 0.02768 0.43981 0.97159 0.0
C19 C 0.02784 0.45441 0.95514 0.0
C20 C 0.03364 0.45615 0.92797 0.0
C21 C 0.0393 0.4433 0.91749 0.0
C22 C 0.0389 0.42907 0.93486 0.0
H23 H 0.02336 0.43866 0.99252 0.0
O24 O 0.97865 0.3773 0.97902 0.0
O25 O 0.00946 0.38749 0.97189 0.0
O26 O 1.00199 0.38994 0.02795 0.0
O27 O 0.03029 0.41468 0.01466 0.0
C28 C 0.04503 0.44387 0.89038 0.0
C29 C 0.05 0.4301 0.88102 0.0
H30 H 0.05793 0.40086 0.87014 0.0
H31 H 0.05582 0.37646 0.90373 0.0
H32 H 0.0235 0.46431 0.9634 0.0
H33 H 0.03361 0.46734 0.91529 0.0
H34 H 0.0454 0.45465 0.87644 0.0
H35 H 0.0541 0.4305 0.86002 0.0
Mn36 Mn 0.63456 0.63216 0.02613 0.0
Mn37 Mn 0.63196 0.59022 0.04746 0.0
C38 C 0.61287 0.61393 0.05923 0.0
C39 C 0.64774 0.66574 0.02713 0.0
C40 C 0.61336 0.59359 0.99504 0.0
O41 O 0.65951 0.63424 0.0121 0.0
O42 O 0.65677 0.6066 0.02899 0.0
C43 C 0.66333 0.60717 0.08919 0.0
N44 N 0.64463 0.59444 0.0822 0.0
C45 C 0.63794 0.58165 0.12762 0.0
C46 C 0.65715 0.59455 0.13528 0.0
C47 C 0.66987 0.60741 0.116 0.0
C48 C 0.63222 0.58215 0.10066 0.0
H49 H 0.67316 0.61705 0.07443 0.0
C50 C 0.66603 0.62257 0.01613 0.0
O51 O 0.63887 0.65554 0.00566 0.0
O52 O 0.64946 0.65651 0.04796 0.0
N53 N 0.60896 0.57261 0.06598 0.0
C54 C 0.59084 0.56124 0.05541 0.0
C55 C 0.57635 0.54757 0.07207 0.0
C56 C 0.5807 0.5455 0.09928 0.0
C57 C 0.59954 0.55706 0.10955 0.0
C58 C 0.6134 0.57037 0.09194 0.0
H59 H 0.58743 0.56261 0.03443 0.0
O60 O 0.61044 0.62651 0.04529 0.0
O61 O 0.62827 0.61274 0.05413 0.0
O62 O 0.61866 0.6115 -0.00226 0.0
O63 O 0.618 0.58424 0.01197 0.0
C64 C 0.60505 0.55606 0.13665 0.0
C65 C 0.62421 0.56843 0.14573 0.0
H66 H 0.66226 0.59476 0.15593 0.0
H67 H 0.6847 0.61745 0.12178 0.0
H68 H 0.56186 0.53865 0.06396 0.0
H69 H 0.56945 0.53505 0.11213 0.0
H70 H 0.59462 0.54597 0.15077 0.0
H71 H 0.62821 0.56769 0.16671 0.0
Mn72 Mn 0.37032 1.00049 0.0111 0.0
Mn73 Mn 0.41158 0.04127 0.02888 0.0
C74 C 0.39061 0.99917 0.04417 0.0
C75 C 0.33716 0.98 0.01607 0.0
C76 C 0.40693 0.01804 0.97739 0.0
O77 O 0.36649 0.02212 0.9949 0.0
O78 O 0.39302 0.04827 0.01187 0.0
C79 C 0.39614 0.05566 0.07192 0.0
N80 N 0.40906 0.05022 0.06384 0.0
C81 C 0.42455 0.0575 0.1081 0.0
C82 C 0.41153 0.06337 0.11682 0.0
C83 C 0.39721 0.06238 0.09868 0.0
C84 C 0.4228 0.05098 0.08118 0.0
H85 H 0.38506 0.05483 0.05808 0.0
C86 C 0.37682 0.04039 -0.00114 0.0
O87 O 0.34578 0.97995 0.9939 0.0
O88 O 0.34766 0.99235 0.0349 0.0
N89 N 0.43096 0.03696 0.0459 0.0
C90 C 0.44174 0.02978 0.03475 0.0
C91 C 0.45635 0.02922 0.05049 0.0
C92 C 0.4599 0.03625 0.07739 0.0
C93 C 0.44884 0.04386 0.08829 0.0
C94 C 0.43454 0.04415 0.07158 0.0
H95 H 0.43916 0.02443 0.01405 0.0
O96 O 0.37787 0.98349 0.03182 0.0
O97 O 0.39072 0.01513 0.03748 0.0
O98 O 0.38983 0.00437 0.98177 0.0
O99 O 0.41588 0.03289 0.99296 0.0
C100 C 0.45115 0.05076 0.11527 0.0
C101 C 0.43897 0.05752 0.12519 0.0
H102 H 0.41226 0.06849 0.13747 0.0
H103 H 0.38702 0.06676 0.10531 0.0
H104 H 0.46485 0.02334 0.04192 0.0
H105 H 0.47106 0.03562 0.08956 0.0
H106 H 0.46202 0.05063 0.12871 0.0
H107 H 0.44068 0.06249 0.14611 0.0
Mn108 Mn 0.00635 0.63722 0.99135 0.0
Mn109 Mn 0.04608 0.63541 0.97213 0.0
C110 C 1.0037 0.61461 0.95942 0.0
C111 C 0.9853 0.64964 0.98729 0.0
C112 C 0.0257 0.6189 0.0252 0.0
O113 O 0.02845 0.66314 0.00493 0.0
O114 O 0.05361 0.66112 0.98832 0.0
C115 C 0.05836 0.66435 0.92796 0.0
N116 N 0.05329 0.64613 0.93657 0.0
C117 C 0.05854 0.63701 0.89217 0.0
C118 C 0.06393 0.65571 0.88286 0.0
C119 C 0.06377 0.66941 0.90082 0.0
C120 C 0.05322 0.63279 0.91941 0.0
H121 H 0.05827 0.67493 0.9417 0.0
C122 C 0.04646 0.67035 0.00051 0.0
O123 O 0.98684 0.64179 0.00972 0.0
O124 O 0.99636 0.65074 0.96744 0.0
N125 N 0.04118 0.61147 0.95577 0.0
C126 C 0.03508 0.59391 0.96775 0.0
C127 C 0.0342 0.57853 0.95246 0.0
C128 C 0.03985 0.58141 0.92515 0.0
C129 C 0.0464 0.59969 0.9134 0.0
C130 C 0.04705 0.6145 0.92968 0.0
H131 H 0.03087 0.59163 0.9888 0.0
O132 O 0.98865 0.61203 0.97263 0.0
O133 O 0.0197 0.6305 0.96475 0.0
O134 O 0.01218 0.62289 0.02128 0.0
O135 O 0.03947 0.62352 0.00863 0.0
C136 C 0.05205 0.60372 0.88606 0.0
C137 C 0.05801 0.62234 0.87542 0.0
H138 H 0.06811 0.65968 0.86194 0.0
H139 H 0.06784 0.68385 0.89375 0.0
H140 H 0.02918 0.56448 0.9617 0.0
H141 H 0.039 0.56947 0.91335 0.0
H142 H 0.05159 0.59252 0.87294 0.0
H143 H 0.06205 0.62518 0.85426 0.0
Mn144 Mn 0.36888 0.37808 0.01081 0.0
Mn145 Mn 0.4087 0.37726 0.03427 0.0
C146 C 0.38847 0.39992 0.04423 0.0
C147 C 0.33573 0.36704 0.01239 0.0
C148 C 0.40667 0.39443 0.97978 0.0
O149 O 0.36445 0.35162 -0.00221 0.0
O150 O 0.39023 0.35178 0.01781 0.0
C151 C 0.39086 0.34872 0.07847 0.0
N152 N 0.40439 0.36666 0.0701 0.0
C153 C 0.41803 0.37551 0.11538 0.0
C154 C 0.40431 0.35709 0.12446 0.0
C155 C 0.39063 0.34367 0.10593 0.0
C156 C 0.41753 0.37973 0.08778 0.0
H157 H 0.38032 0.33837 0.06429 0.0
C158 C 0.37434 0.34338 0.00408 0.0
O159 O 0.34545 0.37486 0.99059 0.0
O160 O 0.34513 0.36526 0.03303 0.0
N161 N 0.42782 0.4009 0.0511 0.0
C162 C 0.43958 0.41829 0.0393 0.0
C163 C 0.4539 0.43343 0.05517 0.0
C164 C 0.45612 0.43048 0.0829 0.0
C165 C 0.44401 0.41238 0.09452 0.0
C166 C 0.43007 0.3978 0.07766 0.0
H167 H 0.43804 0.42062 0.01796 0.0
O168 O 0.37681 0.40346 0.02967 0.0
O169 O 0.38805 0.38363 0.03916 0.0
O170 O 0.38962 0.39184 0.9822 0.0
O171 O 0.41481 0.38889 -0.00244 0.0
C172 C 0.44505 0.40832 0.12224 0.0
C173 C 0.432 0.38993 0.1327 0.0
H174 H 0.40406 0.35315 0.14563 0.0
H175 H 0.37994 0.32946 0.11281 0.0
H176 H 0.4632 0.44735 0.04605 0.0
H177 H 0.46708 0.44223 0.09513 0.0
H178 H 0.45562 0.41934 0.1358 0.0
H179 H 0.43274 0.3871 0.15414 0.0
Mn180 Mn 0.63357 1.0012 0.99427 0.0
Mn181 Mn 0.59323 0.9621 0.96948 0.0
C182 C 0.6143 0.00505 0.96185 0.0
C183 C 0.66668 0.02308 0.99377 0.0
C184 C 0.59532 0.98023 0.02453 0.0
O185 O 0.6377 0.97855 0.0053 0.0
O186 O 0.61096 0.95391 0.98609 0.0
C187 C 0.61133 0.95157 0.92535 0.0
N188 N 0.59791 0.95631 0.93359 0.0
C189 C 0.58523 0.95311 0.8879 0.0
C190 C 0.59883 0.94808 0.87896 0.0
C191 C 0.61198 0.94737 0.89776 0.0
C192 C 0.5853 0.95718 0.91564 0.0
H193 H 0.62147 0.95102 0.93973 0.0
C194 C 0.62705 0.9606 -0.00081 0.0
O195 O 0.65673 0.02022 0.0156 0.0
O196 O 0.65758 0.01275 0.97243 0.0
N197 N 0.57468 0.96763 0.95243 0.0
C198 C 0.56281 0.97324 0.96422 0.0
C199 C 0.54888 0.97482 0.94815 0.0
C200 C 0.54715 0.97041 0.92021 0.0
C201 C 0.55931 0.96437 0.90861 0.0
C202 C 0.57282 0.96294 0.92569 0.0
H203 H 0.56397 0.97652 0.98572 0.0
O204 O 0.62601 0.01953 0.97724 0.0
O205 O 0.61443 0.98886 0.9655 0.0
O206 O 0.61277 0.99378 0.02282 0.0
O207 O 0.58675 0.96724 0.00614 0.0
C208 C 0.55873 0.95999 0.88071 0.0
C209 C 0.57176 0.95448 0.87034 0.0
H210 H 0.5994 0.94486 0.85769 0.0
H211 H 0.62257 0.94358 0.89099 0.0
H212 H 0.53953 0.97945 0.95726 0.0
H213 H 0.53651 0.97181 0.90783 0.0
H214 H 0.54852 0.96109 0.86699 0.0
H215 H 0.57136 0.95142 0.84878 0.0
Mn216 Mn 0.66379 0.70097 0.33234 0.0
Mn217 Mn 0.70488 0.7402 0.31172 0.0
C218 C 0.66254 0.72087 0.29871 0.0
C219 C 0.64118 0.66795 0.3303 0.0
C220 C 0.68489 0.73924 0.36412 0.0
O221 O 0.68499 0.69568 0.34692 0.0
O222 O 0.71105 0.72136 0.32951 0.0
C223 C 0.71579 0.72103 0.26935 0.0
N224 N 0.7117 0.73515 0.27677 0.0
C225 C 0.71791 0.74851 0.23165 0.0
C226 C 0.72231 0.73418 0.22356 0.0
C227 C 0.72117 0.72034 0.24247 0.0
C228 C 0.71257 0.74842 0.25867 0.0
H229 H 0.71496 0.71038 0.28383 0.0
C230 C 0.7031 0.70531 0.34245 0.0
O231 O 0.64338 0.67827 0.35189 0.0
O232 O 0.65242 0.67667 0.31004 0.0
N233 N 0.70136 0.75974 0.29375 0.0
C234 C 0.69611 0.77226 0.30458 0.0
C235 C 0.69625 0.78688 0.28821 0.0
C236 C 0.70204 0.78867 0.26102 0.0
C237 C 0.7077 0.77585 0.25046 0.0
C238 C 0.70733 0.7616 0.26776 0.0
H239 H 0.69181 0.77108 0.32552 0.0
O240 O 0.64721 0.70958 0.31226 0.0
O241 O 0.678 0.71988 0.30474 0.0
O242 O 0.67074 0.72212 0.36094 0.0
O243 O 0.6988 0.74714 0.3475 0.0
C244 C 0.71343 0.77647 0.22333 0.0
C245 C 0.71843 0.76274 0.21389 0.0
H246 H 0.72646 0.7336 0.20285 0.0
H247 H 0.72446 0.70919 0.23635 0.0
H248 H 0.69191 0.79676 0.29654 0.0
H249 H 0.70199 0.79988 0.24841 0.0
H250 H 0.71377 0.78728 0.20945 0.0
H251 H 0.72253 0.76319 0.19288 0.0
Mn252 Mn 0.3022 0.96442 0.35765 0.0
Mn253 Mn 0.30085 0.92429 0.38426 0.0
C254 C 0.27923 0.94603 0.38933 0.0
C255 C 0.31322 0.99767 0.35662 0.0
C256 C 0.28539 0.92524 0.32807 0.0
O257 O 0.32862 0.96807 0.34826 0.0
O258 O 0.32629 0.94115 0.36742 0.0
C259 C 0.33003 0.94388 0.42828 0.0
N260 N 0.31188 0.93028 0.42021 0.0
C261 C 0.30331 0.91936 0.46624 0.0
C262 C 0.32195 0.93318 0.47503 0.0
C263 C 0.33534 0.94553 0.45597 0.0
C264 C 0.29884 0.91843 0.4384 0.0
H265 H 0.34036 0.9534 0.4137 0.0
C266 C 0.33562 0.95705 0.35434 0.0
O267 O 0.30624 0.9869 0.33502 0.0
O268 O 0.3143 0.98925 0.37881 0.0
N269 N 0.2773 0.90655 0.40153 0.0
C270 C 0.25977 0.89437 0.38984 0.0
C271 C 0.24469 0.88113 0.40615 0.0
C272 C 0.24785 0.8804 0.43424 0.0
C273 C 0.2661 0.89288 0.44575 0.0
C274 C 0.2806 0.90568 0.42845 0.0
H275 H 0.25726 0.89483 0.36827 0.0
O276 O 0.27644 0.95735 0.37302 0.0
O277 O 0.29545 0.94596 0.38692 0.0
O278 O 0.28962 0.94295 0.32919 0.0
O279 O 0.28873 0.91651 0.34751 0.0
C280 C 0.27037 0.89333 0.47379 0.0
C281 C 0.28894 0.90663 0.48404 0.0
H282 H 0.3261 0.93451 0.49637 0.0
H283 H 0.34973 0.95629 0.46261 0.0
H284 H 0.23066 0.87155 0.3971 0.0
H285 H 0.23614 0.87031 0.4468 0.0
H286 H 0.25941 0.8837 0.4877 0.0
H287 H 0.29198 0.90701 0.50568 0.0
Mn288 Mn 0.04092 0.33403 0.34997 0.0
Mn289 Mn 0.08299 0.37381 0.36833 0.0
C290 C 0.06139 0.33149 0.38165 0.0
C291 C 0.00779 0.31355 0.3552 0.0
C292 C 0.07736 0.35161 0.31565 0.0
O293 O 0.03716 0.35636 0.33622 0.0
O294 O 0.0648 0.38158 0.35224 0.0
C295 C 0.06833 0.38821 0.41244 0.0
N296 N 0.08085 0.3824 0.40376 0.0
C297 C 0.09663 0.38891 0.44778 0.0
C298 C 0.08398 0.39508 0.45714 0.0
C299 C 0.06973 0.39467 0.43942 0.0
C300 C 0.09454 0.38263 0.42068 0.0
H301 H 0.05735 0.38791 0.39888 0.0
C302 C 0.04824 0.37452 0.34034 0.0
O303 O 0.01617 0.31418 0.3325 0.0
O304 O 0.0185 0.32527 0.37449 0.0
N305 N 0.10209 0.36875 0.38456 0.0
C306 C 0.11256 0.36146 0.37272 0.0
C307 C 0.12714 0.36044 0.38792 0.0
C308 C 0.13099 0.36716 0.41498 0.0
C309 C 0.12024 0.37489 0.42659 0.0
C310 C 0.10594 0.37561 0.41041 0.0
H311 H 0.10976 0.35638 0.35188 0.0
O312 O 0.04845 0.31625 0.36868 0.0
O313 O 0.06171 0.34773 0.37631 0.0
O314 O 0.05998 0.33842 0.31964 0.0
O315 O 0.0869 0.36584 0.33199 0.0
C316 C 0.12288 0.38152 0.45375 0.0
C317 C 0.11103 0.38846 0.46437 0.0
H318 H 0.08498 0.40003 0.47796 0.0
H319 H 0.05986 0.39932 0.44654 0.0
H320 H 0.13539 0.35448 0.37881 0.0
H321 H 0.14213 0.36619 0.42672 0.0
H322 H 0.13377 0.38106 0.46678 0.0
H323 H 0.113 0.39324 0.4854 0.0
Mn324 Mn 0.67144 0.97166 0.32245 0.0
Mn325 Mn 0.71157 0.97076 0.30284 0.0
C326 C 0.6691 0.94912 0.29066 0.0
C327 C 0.64985 0.98344 0.31859 0.0
C328 C 0.69158 0.95402 0.35606 0.0
O329 O 0.69324 0.99785 0.33574 0.0
O330 O 0.71865 0.99637 0.31903 0.0
C331 C 0.72305 0.99961 0.25862 0.0
N332 N 0.71844 0.98151 0.26723 0.0
C333 C 0.72383 0.97262 0.22276 0.0
C334 C 0.72875 0.9912 0.21345 0.0
C335 C 0.72829 0.00472 0.23143 0.0
C336 C 0.71865 0.96833 0.25004 0.0
H337 H 0.72273 0.01005 0.27238 0.0
C338 C 0.71127 0.00537 0.33123 0.0
O339 O 0.65172 0.97579 0.34102 0.0
O340 O 0.66088 0.9847 0.29861 0.0
N341 N 0.70718 0.94699 0.28646 0.0
C342 C 0.70159 0.92954 0.29848 0.0
C343 C 0.7011 0.91435 0.28318 0.0
C344 C 0.70663 0.91732 0.25582 0.0
C345 C 0.71268 0.93551 0.24404 0.0
C346 C 0.71294 0.95013 0.26032 0.0
H347 H 0.69748 0.9272 0.31956 0.0
O348 O 0.65403 0.94629 0.30402 0.0
O349 O 0.68495 0.96524 0.29572 0.0
O350 O 0.67785 0.95773 0.35234 0.0
O351 O 0.70531 0.95886 0.33934 0.0
C352 C 0.71819 0.93961 0.21666 0.0
C353 C 0.72365 0.95812 0.20599 0.0
H354 H 0.7328 0.99521 0.1925 0.0
H355 H 0.73199 0.01907 0.22437 0.0
H356 H 0.69648 0.90038 0.29245 0.0
H357 H 0.70609 0.90553 0.24403 0.0
H358 H 0.71801 0.92856 0.20353 0.0
H359 H 0.7276 0.96102 0.18481 0.0
Mn360 Mn 0.04024 0.71473 0.34496 0.0
Mn361 Mn 0.08065 0.71564 0.36967 0.0
C362 C 0.05872 0.73668 0.37891 0.0
C363 C 0.00686 0.70255 0.34567 0.0
C364 C 0.07877 0.73313 0.31542 0.0
O365 O 0.03709 0.68878 0.33181 0.0
O366 O 0.06336 0.6902 0.35214 0.0
C367 C 0.06277 0.68613 0.4127 0.0
N368 N 0.07595 0.70442 0.40512 0.0
C369 C 0.08842 0.71289 0.45102 0.0
C370 C 0.07504 0.6941 0.45929 0.0
C371 C 0.06212 0.68069 0.44005 0.0
C372 C 0.08835 0.71749 0.4235 0.0
H373 H 0.05281 0.67578 0.39798 0.0
C374 C 0.04767 0.68128 0.33806 0.0
O375 O 0.01674 0.71074 0.32412 0.0
O376 O 0.01624 0.70096 0.36649 0.0
N377 N 0.09875 0.73929 0.38756 0.0
C378 C 0.11035 0.75699 0.37644 0.0
C379 C 0.12399 0.77212 0.39304 0.0
C380 C 0.12573 0.76885 0.42079 0.0
C381 C 0.11384 0.75044 0.43169 0.0
C382 C 0.10058 0.73589 0.41413 0.0
H383 H 0.10919 0.75958 0.35508 0.0
O384 O 0.04688 0.7397 0.36397 0.0
O385 O 0.05912 0.72079 0.37392 0.0
O386 O 0.0613 0.72944 0.31705 0.0
O387 O 0.08709 0.72799 0.33348 0.0
C388 C 0.11443 0.74603 0.45938 0.0
C389 C 0.10165 0.7273 0.46907 0.0
H390 H 0.07449 0.68986 0.48037 0.0
H391 H 0.0517 0.66619 0.4463 0.0
H392 H 0.13314 0.78628 0.38446 0.0
H393 H 0.13616 0.78059 0.43358 0.0
H394 H 0.12445 0.75701 0.47347 0.0
H395 H 0.10204 0.72418 0.49047 0.0
Mn396 Mn 0.29942 0.33422 0.32872 0.0
Mn397 Mn 0.25893 0.29646 0.30173 0.0
C398 C 0.28045 0.33953 0.2975 0.0
C399 C 0.33255 0.356 0.32863 0.0
C400 C 0.26092 0.31223 0.35841 0.0
O401 O 0.30334 0.31115 0.33715 0.0
O402 O 0.27604 0.28725 0.31794 0.0
C403 C 0.27753 0.28703 0.25708 0.0
N404 N 0.26419 0.2918 0.26553 0.0
C405 C 0.2527 0.29072 0.21957 0.0
C406 C 0.26624 0.28568 0.2104 0.0
C407 C 0.27874 0.28388 0.22924 0.0
C408 C 0.25218 0.2937 0.24756 0.0
H409 H 0.2872 0.28566 0.27147 0.0
C410 C 0.29223 0.29337 0.33068 0.0
O411 O 0.32269 0.35238 0.35072 0.0
O412 O 0.32334 0.34653 0.3068 0.0
N413 N 0.24102 0.30302 0.28495 0.0
C414 C 0.2292 0.30857 0.29699 0.0
C415 C 0.21583 0.3111 0.28093 0.0
C416 C 0.21466 0.30777 0.25272 0.0
C417 C 0.22683 0.30186 0.24082 0.0
C418 C 0.23973 0.2994 0.25789 0.0
H419 H 0.23004 0.31118 0.31864 0.0
O420 O 0.29199 0.35329 0.31401 0.0
O421 O 0.28042 0.32317 0.29961 0.0
O422 O 0.27862 0.32539 0.3576 0.0
O423 O 0.25199 0.30056 0.33868 0.0
C424 C 0.22687 0.29862 0.21264 0.0
C425 C 0.23987 0.29316 0.202 0.0
H426 H 0.26725 0.28327 0.18894 0.0
H427 H 0.28929 0.28007 0.22231 0.0
H428 H 0.20651 0.31569 0.29027 0.0
H429 H 0.20449 0.30994 0.24036 0.0
H430 H 0.21716 0.30056 0.19891 0.0
H431 H 0.23995 0.29098 0.18025 0.0
Mn432 Mn 0.32809 0.03825 0.66561 0.0
Mn433 Mn 0.36659 0.07811 0.64036 0.0
C434 C 0.32398 0.05508 0.62996 0.0
C435 C 0.30725 0.00481 0.667 0.0
C436 C 0.34686 0.07865 0.69218 0.0
O437 O 0.35098 0.03587 0.6807 0.0
O438 O 0.37522 0.06239 0.66171 0.0
C439 C 0.37905 0.05777 0.60206 0.0
N440 N 0.37361 0.07132 0.60679 0.0
C441 C 0.37783 0.08089 0.55978 0.0
C442 C 0.38359 0.06712 0.55443 0.0
C443 C 0.38413 0.05547 0.57565 0.0
C444 C 0.37283 0.08245 0.58647 0.0
H445 H 0.3795 0.04879 0.61831 0.0
C446 C 0.36889 0.04708 0.67619 0.0
O447 O 0.30928 0.01594 0.68757 0.0
O448 O 0.31783 0.01297 0.64597 0.0
N449 N 0.36089 0.09495 0.61895 0.0
C450 C 0.3549 0.10747 0.62746 0.0
C451 C 0.35364 0.12023 0.60872 0.0
C452 C 0.35882 0.12021 0.58154 0.0
C453 C 0.36532 0.10749 0.57338 0.0
C454 C 0.3664 0.0952 0.59301 0.0
H455 H 0.35109 0.1077 0.64838 0.0
O456 O 0.30949 0.04379 0.64491 0.0
O457 O 0.34037 0.05589 0.63579 0.0
O458 O 0.33418 0.0607 0.69173 0.0
O459 O 0.35996 0.08657 0.67437 0.0
C460 C 0.37058 0.1064 0.54648 0.0
C461 C 0.3767 0.09301 0.53964 0.0
H462 H 0.38754 0.06532 0.53409 0.0
H463 H 0.38849 0.04476 0.57166 0.0
H464 H 0.34869 0.13006 0.61521 0.0
H465 H 0.35767 0.12996 0.56709 0.0
H466 H 0.36977 0.11564 0.53082 0.0
H467 H 0.38048 0.09214 0.51882 0.0
Mn468 Mn 0.97131 0.29935 0.69187 0.0
Mn469 Mn 0.9687 0.25772 0.71469 0.0
C470 C 0.94857 0.28074 0.72367 0.0
C471 C 0.98369 0.33283 0.69263 0.0
C472 C 0.95221 0.26092 0.66025 0.0
O473 O 0.99702 0.30198 0.68022 0.0
O474 O 0.99418 0.27456 0.6982 0.0
C475 C 0.9982 0.27485 0.75891 0.0
N476 N 0.97987 0.26196 0.7505 0.0
C477 C 0.97131 0.24907 0.79567 0.0
C478 C 0.99012 0.26213 0.80479 0.0
C479 C 1.0036 0.27512 0.78634 0.0
C480 C 0.96675 0.24952 0.76812 0.0
H481 H 0.0086 0.28484 0.74478 0.0
C482 C 1.00369 0.29057 0.6855 0.0
O483 O 0.97586 0.32258 0.67082 0.0
O484 O 0.98492 0.32374 0.71399 0.0
N485 N 0.94501 0.2398 0.73145 0.0
C486 C 0.92736 0.22837 0.7195 0.0
C487 C 0.91221 0.21462 0.73521 0.0
C488 C 0.91542 0.21255 0.76292 0.0
C489 C 0.93378 0.2242 0.77465 0.0
C490 C 0.94835 0.23759 0.75795 0.0
H491 H 0.92484 0.22977 0.69816 0.0
O492 O 0.9463 0.2931 0.70893 0.0
O493 O 0.96432 0.27993 0.71999 0.0
O494 O 0.9569 0.27868 0.66291 0.0
O495 O 0.95634 0.25166 0.678 0.0
C496 C 0.93814 0.22324 0.80233 0.0
C497 C 0.95686 0.23574 0.81288 0.0
H498 H 0.99435 0.26238 0.82593 0.0
H499 H 0.01812 0.28529 0.79325 0.0
H500 H 0.89809 0.20563 0.72598 0.0
H501 H 0.90365 0.20204 0.77502 0.0
H502 H 0.92714 0.2131 0.81577 0.0
H503 H 0.95996 0.23504 0.83427 0.0
Mn504 Mn 0.71028 0.67083 0.6802 0.0
Mn505 Mn 0.75377 0.71052 0.69271 0.0
C506 C 0.73234 0.66912 0.70971 0.0
C507 C 0.67778 0.6507 0.69042 0.0
C508 C 0.74456 0.68578 0.64176 0.0
O509 O 0.70602 0.69287 0.66665 0.0
O510 O 0.73526 0.71815 0.67735 0.0
C511 C 0.74209 0.72795 0.73663 0.0
N512 N 0.75369 0.72108 0.72763 0.0
C513 C 0.77113 0.72875 0.77044 0.0
C514 C 0.75946 0.73604 0.78009 0.0
C515 C 0.74484 0.73559 0.76313 0.0
C516 C 0.76776 0.72139 0.74381 0.0
H517 H 0.73079 0.72758 0.72371 0.0
C518 C 0.7179 0.71107 0.66818 0.0
O519 O 0.68428 0.65048 0.66643 0.0
O520 O 0.68991 0.66334 0.70775 0.0
N521 N 0.77312 0.70547 0.70809 0.0
C522 C 0.78252 0.69703 0.69618 0.0
C523 C 0.79726 0.69588 0.71072 0.0
C524 C 0.80233 0.70357 0.73722 0.0
C525 C 0.79265 0.71243 0.74891 0.0
C526 C 0.77817 0.71328 0.73337 0.0
H527 H 0.77871 0.6911 0.67581 0.0
O528 O 0.71869 0.65354 0.6983 0.0
O529 O 0.73262 0.68526 0.70383 0.0
O530 O 0.72711 0.67369 0.64753 0.0
O531 O 0.75553 0.70034 0.65685 0.0
C532 C 0.79656 0.72011 0.77557 0.0
C533 C 0.78576 0.72821 0.78635 0.0
H534 H 0.76148 0.74186 0.80056 0.0
H535 H 0.73571 0.74109 0.77049 0.0
H536 H 0.80467 0.68902 0.70155 0.0
H537 H 0.81359 0.70248 0.74847 0.0
H538 H 0.80762 0.71958 0.7881 0.0
H539 H 0.7887 0.73379 0.80702 0.0
Mn540 Mn 0.34316 0.30716 0.65367 0.0
Mn541 Mn 0.38242 0.30633 0.62981 0.0
C542 C 0.33952 0.28354 0.62284 0.0
C543 C 0.32076 0.31803 0.65172 0.0
C544 C 0.36614 0.29165 0.68552 0.0
O545 O 0.36505 0.33405 0.66362 0.0
O546 O 0.38999 0.33218 0.64588 0.0
C547 C 0.391 0.33436 0.58506 0.0
N548 N 0.38718 0.31649 0.59371 0.0
C549 C 0.39017 0.307 0.54835 0.0
C550 C 0.39425 0.32534 0.53898 0.0
C551 C 0.3946 0.33905 0.55741 0.0
C552 C 0.38665 0.30314 0.57612 0.0
H553 H 0.39128 0.34494 0.59914 0.0
C554 C 0.38291 0.34146 0.65816 0.0
O555 O 0.32424 0.31154 0.67417 0.0
O556 O 0.33053 0.31852 0.63055 0.0
N557 N 0.37758 0.28244 0.61329 0.0
C558 C 0.37274 0.26519 0.6254 0.0
C559 C 0.3716 0.24984 0.60973 0.0
C560 C 0.37561 0.25243 0.58183 0.0
C561 C 0.38079 0.27038 0.56987 0.0
C562 C 0.38183 0.28519 0.58656 0.0
H563 H 0.3696 0.26309 0.6468 0.0
O564 O 0.32529 0.28084 0.63812 0.0
O565 O 0.35534 0.30006 0.62569 0.0
O566 O 0.35232 0.29539 0.68347 0.0
O567 O 0.37832 0.29509 0.66676 0.0
C568 C 0.38462 0.27405 0.54194 0.0
C569 C 0.38922 0.29232 0.53117 0.0
H570 H 0.39702 0.32901 0.51766 0.0
H571 H 0.39767 0.35321 0.55031 0.0
H572 H 0.36756 0.23602 0.61911 0.0
H573 H 0.37452 0.2405 0.56974 0.0
H574 H 0.3838 0.26284 0.5285 0.0
H575 H 0.39187 0.29488 0.5096 0.0
Mn576 Mn 0.70223 0.04661 0.67583 0.0
Mn577 Mn 0.74283 0.04747 0.69961 0.0
C578 C 0.72111 0.06863 0.70953 0.0
C579 C 0.66888 0.03456 0.67718 0.0
C580 C 0.74042 0.06475 0.64544 0.0
O581 O 0.69887 0.02056 0.66262 0.0
O582 O 0.7253 0.022 0.68243 0.0
C583 C 0.7254 0.01816 0.74299 0.0
N584 N 0.73853 0.03641 0.73515 0.0
C585 C 0.75163 0.045 0.78073 0.0
C586 C 0.73832 0.02627 0.78927 0.0
C587 C 0.7251 0.01281 0.77033 0.0
C588 C 0.7512 0.04951 0.75325 0.0
H589 H 0.71523 0.00778 0.72849 0.0
C590 C 0.70947 0.01305 0.66865 0.0
O591 O 0.67858 0.04266 0.65546 0.0
O592 O 0.67842 0.03299 0.69781 0.0
N593 N 0.76117 0.07118 0.71715 0.0
C594 C 0.77265 0.08883 0.70581 0.0
C595 C 0.78654 0.104 0.72211 0.0
C596 C 0.78865 0.10081 0.74979 0.0
C597 C 0.77687 0.08245 0.76091 0.0
C598 C 0.76334 0.06786 0.74365 0.0
H599 H 0.77122 0.09134 0.68451 0.0
O600 O 0.70917 0.07167 0.69487 0.0
O601 O 0.7214 0.0527 0.7044 0.0
O602 O 0.723 0.06116 0.64749 0.0
O603 O 0.7489 0.05966 0.66329 0.0
C604 C 0.77783 0.07812 0.78854 0.0
C605 C 0.76514 0.05944 0.79848 0.0
H606 H 0.73803 0.02209 0.81034 0.0
H607 H 0.71474 0.99835 0.77678 0.0
H608 H 0.7956 0.11812 0.71336 0.0
H609 H 0.79927 0.11258 0.76235 0.0
H610 H 0.78807 0.08913 0.80241 0.0
H611 H 0.76582 0.05639 0.81985 0.0
Mn612 Mn 0.96917 0.67131 0.66353 0.0
Mn613 Mn 0.92915 0.63235 0.63784 0.0
C614 C 0.95024 0.67531 0.63069 0.0
C615 C 1.00231 0.69316 0.66354 0.0
C616 C 0.93069 0.64996 0.69315 0.0
O617 O 0.97317 0.64859 0.67457 0.0
O618 O 0.94678 0.62403 0.6545 0.0
C619 C 0.94761 0.62227 0.59372 0.0
N620 N 0.93416 0.62697 0.6019 0.0
C621 C 0.92206 0.62455 0.55599 0.0
C622 C 0.93571 0.61956 0.54711 0.0
C623 C 0.94857 0.61847 0.56605 0.0
C624 C 0.9218 0.62819 0.58382 0.0
H625 H 0.95754 0.62144 0.6082 0.0
C626 C 0.96271 0.63069 0.66803 0.0
O627 O 0.99219 0.69026 0.68522 0.0
O628 O 0.99334 0.68291 0.64209 0.0
N629 N 0.91079 0.63813 0.62072 0.0
C630 C 0.89886 0.64367 0.63248 0.0
C631 C 0.88524 0.64566 0.61625 0.0
C632 C 0.88386 0.64173 0.58818 0.0
C633 C 0.89606 0.63573 0.57662 0.0
C634 C 0.90928 0.63389 0.59383 0.0
H635 H 0.89976 0.64661 0.65406 0.0
O636 O 0.96176 0.68972 0.64632 0.0
O637 O 0.95034 0.65912 0.63445 0.0
O638 O 0.94809 0.66369 0.69171 0.0
O639 O 0.92236 0.63708 0.67456 0.0
C640 C 0.89584 0.63181 0.54861 0.0
C641 C 0.90888 0.6263 0.53829 0.0
H642 H 0.93652 0.61666 0.52578 0.0
H643 H 0.9592 0.61472 0.55933 0.0
H644 H 0.87584 0.65024 0.62534 0.0
H645 H 0.87346 0.64345 0.57569 0.0
H646 H 0.88588 0.63326 0.53477 0.0
H647 H 0.90875 0.62359 0.51666 0.0
H648 H 0.15499 0.32617 0.15346 0.0
H649 H 0.13968 0.32883 0.06934 0.0
H650 H 0.11516 0.34611 0.13343 0.0
H651 H 0.15821 0.30578 0.11525 0.0
H652 H 0.15671 0.31178 0.08068 0.0
H653 H 0.18539 0.33145 0.14626 0.0
H654 H 0.23917 0.36152 0.10486 0.0
H655 H 0.18633 0.33128 0.0586 0.0
C656 C 0.14772 0.33021 0.13812 0.0
C657 C 0.13563 0.33737 0.14636 0.0
C658 C 0.14985 0.32766 0.1102 0.0
C659 C 0.13896 0.33161 0.09076 0.0
C660 C 0.12607 0.33781 0.0992 0.0
C661 C 0.12502 0.34121 0.12686 0.0
C662 C 0.16141 0.31812 0.10146 0.0
C663 C 0.18307 0.33174 0.10233 0.0
C664 C 0.19316 0.33694 0.12756 0.0
C665 C 0.21343 0.34741 0.12858 0.0
C666 C 0.2235 0.35364 0.10422 0.0
C667 C 0.21396 0.34747 0.07903 0.0
C668 C 0.19369 0.33668 0.07804 0.0
H669 H 0.68108 0.82429 0.14673 0.0
H670 H 0.68326 0.81835 0.05973 0.0
H671 H 0.65716 0.76785 0.10987 0.0
H672 H 0.70507 0.85133 0.11646 0.0
H673 H 0.70141 0.84964 0.0805 0.0
H674 H 0.68438 0.85787 0.14659 0.0
H675 H 0.65518 0.88536 0.10874 0.0
H676 H 0.67827 0.85752 0.05899 0.0
C677 C 0.67691 0.81522 0.12864 0.0
C678 C 0.66828 0.79501 0.1313 0.0
C679 C 0.68183 0.82382 0.10266 0.0
C680 C 0.67821 0.81192 0.0795 0.0
C681 C 0.66917 0.79172 0.0822 0.0
C682 C 0.66353 0.78346 0.10786 0.0
C683 C 0.69369 0.8456 0.10017 0.0
C684 C 0.68157 0.85536 0.10261 0.0
C685 C 0.67843 0.86095 0.12846 0.0
C686 C 0.66918 0.87205 0.13061 0.0
C687 C 0.66206 0.8765 0.1071 0.0
C688 C 0.66541 0.87152 0.08135 0.0
C689 C 0.67509 0.86084 0.079 0.0
H690 H 0.17804 0.81349 0.15754 0.0
H691 H 0.16686 0.80186 0.07163 0.0
H692 H 0.11997 0.77889 0.1276 0.0
H693 H 0.20194 0.81077 0.122 0.0
H694 H 0.19889 0.81561 0.0875 0.0
H695 H 0.21106 0.83571 0.15778 0.0
H696 H 0.24117 0.89462 0.13054 0.0
H697 H 0.20925 0.84857 0.0729 0.0
C698 C 0.16797 0.80756 0.14052 0.0
C699 C 0.14807 0.79698 0.14548 0.0
C700 C 0.17489 0.80968 0.1138 0.0
C701 C 0.1616 0.80088 0.09209 0.0
C702 C 0.1417 0.78967 0.09685 0.0
C703 C 0.13514 0.78828 0.1235 0.0
C704 C 0.19629 0.81835 0.1088 0.0
C705 C 0.20772 0.83983 0.11499 0.0
C706 C 0.21441 0.84623 0.14174 0.0
C707 C 0.22661 0.86597 0.14746 0.0
C708 C 0.23163 0.87937 0.12623 0.0
C709 C 0.22581 0.87332 0.09922 0.0
C710 C 0.21358 0.85347 0.09373 0.0
H711 H 0.38161 0.21276 0.85184 0.0
H712 H 0.36424 0.20923 0.93512 0.0
H713 H 0.35484 0.24525 0.87844 0.0
H714 H 0.39428 0.2 0.88845 0.0
H715 H 0.38477 0.19637 0.92196 0.0
H716 H 0.36275 0.17956 0.85059 0.0
H717 H 0.33798 0.11964 0.87087 0.0
H718 H 0.37264 0.1633 0.93035 0.0
C719 C 0.37434 0.21624 0.86746 0.0
C720 C 0.36791 0.22951 0.86179 0.0
C721 C 0.37233 0.20817 0.8936 0.0
C722 C 0.36472 0.21441 0.91456 0.0
C723 C 0.35867 0.2281 0.9093 0.0
C724 C 0.35958 0.23481 0.88265 0.0
C725 C 0.38075 0.19506 0.89995 0.0
C726 C 0.36735 0.17392 0.89247 0.0
C727 C 0.3598 0.16861 0.86576 0.0
C728 C 0.34934 0.14905 0.85788 0.0
C729 C 0.3461 0.13472 0.87706 0.0
C730 C 0.35509 0.13954 0.9029 0.0
C731 C 0.36526 0.15924 0.91073 0.0
H732 H 0.8522 0.18067 0.86687 0.0
H733 H 0.85337 0.18654 0.9543 0.0
H734 H 0.8827 0.23694 0.90446 0.0
H735 H 0.84488 0.15313 0.89715 0.0
H736 H 0.84423 0.15545 0.93306 0.0
H737 H 0.81744 0.15115 0.8673 0.0
H738 H 0.76222 0.11917 0.90494 0.0
H739 H 0.81383 0.1428 0.95424 0.0
C740 C 0.8557 0.18975 0.88488 0.0
C741 C 0.86781 0.20986 0.88268 0.0
C742 C 0.84985 0.18116 0.91072 0.0
C743 C 0.8564 0.19304 0.93428 0.0
C744 C 0.86806 0.21321 0.93192 0.0
C745 C 0.87293 0.22145 0.90612 0.0
C746 C 0.8399 0.15933 0.91338 0.0
C747 C 0.81812 0.14982 0.9113 0.0
C748 C 0.80886 0.14635 0.88549 0.0
C749 C 0.78868 0.13488 0.88307 0.0
C750 C 0.77779 0.12825 0.90672 0.0
C751 C 0.78669 0.13067 0.93226 0.0
C752 C 0.80688 0.14161 0.93461 0.0
H753 H 0.83459 0.63088 0.85624 0.0
H754 H 0.84983 0.64217 0.9415 0.0
H755 H 0.89403 0.66205 0.88134 0.0
H756 H 0.81121 0.6119 0.8928 0.0
H757 H 0.81728 0.61876 0.92774 0.0
H758 H 0.81361 0.64214 0.86162 0.0
H759 H 0.77469 0.65879 0.89527 0.0
H760 H 0.79789 0.63065 0.94589 0.0
C761 C 0.84538 0.63777 0.87227 0.0
C762 C 0.86497 0.64779 0.86555 0.0
C763 C 0.83972 0.63631 0.89961 0.0
C764 C 0.85403 0.64405 0.92037 0.0
C765 C 0.87372 0.65336 0.91394 0.0
C766 C 0.87893 0.65555 0.88649 0.0
C767 C 0.81859 0.62461 0.90679 0.0
C768 C 0.80803 0.63612 0.90448 0.0
C769 C 0.80641 0.64359 0.87914 0.0
C770 C 0.79475 0.65218 0.87588 0.0
C771 C 0.78466 0.6533 0.89824 0.0
C772 C 0.78559 0.64557 0.92354 0.0
C773 C 0.79745 0.63709 0.92661 0.0
H774 H 0.82174 0.65592 0.48282 0.0
H775 H 0.80993 0.66087 0.39777 0.0
H776 H 0.77865 0.67102 0.45998 0.0
H777 H 0.82808 0.63776 0.44486 0.0
H778 H 0.82706 0.64397 0.41031 0.0
H779 H 0.85365 0.66416 0.47723 0.0
H780 H 0.90842 0.69536 0.43845 0.0
H781 H 0.85686 0.66441 0.38976 0.0
C782 C 0.81444 0.65958 0.46706 0.0
C783 C 0.8002 0.66418 0.47441 0.0
C784 C 0.81824 0.65847 0.43933 0.0
C785 C 0.80764 0.66224 0.41914 0.0
C786 C 0.79311 0.66644 0.42663 0.0
C787 C 0.78978 0.66764 0.45417 0.0
C788 C 0.831 0.65013 0.43128 0.0
C789 C 0.85244 0.66454 0.43322 0.0
C790 C 0.86188 0.66986 0.45891 0.0
C791 C 0.88212 0.68066 0.46092 0.0
C792 C 0.89278 0.68721 0.43705 0.0
C793 C 0.88389 0.68104 0.41146 0.0
C794 C 0.86368 0.66986 0.40951 0.0
H795 H 0.33761 0.15075 0.47543 0.0
H796 H 0.34371 0.14829 0.38874 0.0
H797 H 0.31293 0.0958 0.43392 0.0
H798 H 0.36367 0.17842 0.44809 0.0
H799 H 0.36115 0.17859 0.41203 0.0
H800 H 0.34538 0.1876 0.47785 0.0
H801 H 0.3162 0.21542 0.44078 0.0
H802 H 0.33676 0.18546 0.3906 0.0
C803 C 0.33385 0.14242 0.45665 0.0
C804 C 0.3244 0.12207 0.45763 0.0
C805 C 0.34021 0.15208 0.43159 0.0
C806 C 0.33736 0.1411 0.40766 0.0
C807 C 0.3274 0.12078 0.40856 0.0
C808 C 0.32006 0.11152 0.43324 0.0
C809 C 0.35281 0.17386 0.43115 0.0
C810 C 0.34125 0.18419 0.43406 0.0
C811 C 0.3391 0.19054 0.45995 0.0
C812 C 0.3304 0.20216 0.46234 0.0
C813 C 0.32274 0.20626 0.43905 0.0
C814 C 0.32511 0.2005 0.41324 0.0
C815 C 0.3343 0.18937 0.41067 0.0
H816 H 0.84173 0.14513 0.48998 0.0
H817 H 0.83245 0.13744 0.40324 0.0
H818 H 0.78444 0.11165 0.45729 0.0
H819 H 0.86687 0.14512 0.45482 0.0
H820 H 0.8642 0.15046 0.42039 0.0
H821 H 0.87177 0.16929 0.49215 0.0
H822 H 0.90544 0.22841 0.46796 0.0
H823 H 0.87756 0.18377 0.40697 0.0
C824 C 0.8321 0.14007 0.47246 0.0
C825 C 0.81212 0.12917 0.47658 0.0
C826 C 0.83961 0.14354 0.44598 0.0
C827 C 0.82676 0.13554 0.42359 0.0
C828 C 0.80678 0.12391 0.42745 0.0
C829 C 0.79966 0.12133 0.45395 0.0
C830 C 0.86119 0.15272 0.44171 0.0
C831 C 0.8723 0.17412 0.4488 0.0
C832 C 0.87669 0.17999 0.4762 0.0
C833 C 0.88811 0.1996 0.48319 0.0
C834 C 0.8956 0.21341 0.4625 0.0
C835 C 0.89214 0.20794 0.43494 0.0
C836 C 0.88016 0.18822 0.42817 0.0
H837 H 0.03874 0.53674 0.18925 0.0
H838 H 0.0353 0.54549 0.27498 0.0
H839 H 0.01611 0.5727 0.21583 0.0
H840 H 0.06062 0.53348 0.22621 0.0
H841 H 0.05317 0.53044 0.26062 0.0
H842 H 0.03612 0.50822 0.19007 0.0
H843 H 0.01416 0.4506 0.21958 0.0
H844 H 0.03608 0.4983 0.27631 0.0
C845 C 0.03388 0.54216 0.20572 0.0
C846 C 0.02577 0.55393 0.19952 0.0
C847 C 0.0367 0.53832 0.2329 0.0
C848 C 0.03213 0.54737 0.25401 0.0
C849 C 0.02468 0.55987 0.24802 0.0
C850 C 0.02101 0.56247 0.22076 0.0
C851 C 0.04766 0.52755 0.2392 0.0
C852 C 0.03609 0.50583 0.23397 0.0
C853 C 0.03195 0.49848 0.20713 0.0
C854 C 0.02339 0.4785 0.20195 0.0
C855 C 0.01938 0.46582 0.22383 0.0
C856 C 0.02418 0.47274 0.25069 0.0
C857 C 0.03207 0.49277 0.25568 0.0
H858 H 0.51824 0.51236 0.20321 0.0
H859 H 0.52112 0.51851 0.29069 0.0
H860 H 0.54955 0.56872 0.24027 0.0
H861 H 0.51208 0.48504 0.23402 0.0
H862 H 0.51082 0.48728 0.26982 0.0
H863 H 0.48497 0.48246 0.20305 0.0
H864 H 0.42923 0.45031 0.23919 0.0
H865 H 0.4801 0.47497 0.2901 0.0
C866 C 0.52205 0.52148 0.22121 0.0
C867 C 0.53411 0.54159 0.21878 0.0
C868 C 0.51668 0.51299 0.24717 0.0
C869 C 0.52374 0.52494 0.27063 0.0
C870 C 0.5354 0.5451 0.26805 0.0
C871 C 0.53974 0.55325 0.24215 0.0
C872 C 0.50678 0.49116 0.24992 0.0
C873 C 0.48501 0.48151 0.24711 0.0
C874 C 0.47613 0.47775 0.221 0.0
C875 C 0.45599 0.46613 0.21804 0.0
C876 C 0.44475 0.45954 0.24138 0.0
C877 C 0.45329 0.46236 0.26726 0.0
C878 C 0.47343 0.47349 0.27018 0.0
H879 H 0.49955 0.9652 0.18622 0.0
H880 H 0.5152 0.97635 0.27137 0.0
H881 H 0.55914 0.99633 0.21082 0.0
H882 H 0.47655 0.94585 0.22273 0.0
H883 H 0.48273 0.95241 0.25769 0.0
H884 H 0.47608 0.97376 0.19168 0.0
H885 H 0.43928 0.992 0.22877 0.0
H886 H 0.46596 0.96657 0.2779 0.0
C887 C 0.51043 0.97205 0.20215 0.0
C888 C 0.53 0.98199 0.19527 0.0
C889 C 0.50492 0.97046 0.22955 0.0
C890 C 0.51931 0.97828 0.25019 0.0
C891 C 0.53897 0.98772 0.24357 0.0
C892 C 0.54405 0.98985 0.21608 0.0
C893 C 0.48388 0.95845 0.23691 0.0
C894 C 0.47316 0.9698 0.23521 0.0
C895 C 0.46993 0.97606 0.20979 0.0
C896 C 0.45804 0.98448 0.20739 0.0
C897 C 0.44947 0.98671 0.23078 0.0
C898 C 0.45218 0.98033 0.25626 0.0
C899 C 0.46419 0.972 0.25841 0.0
H900 H 0.48672 0.99651 0.8162 0.0
H901 H 0.47609 0.00387 0.73173 0.0
H902 H 0.4548 0.02538 0.79473 0.0
H903 H 0.48835 0.97562 0.77788 0.0
H904 H 0.48873 0.98279 0.74341 0.0
H905 H 0.51633 0.99806 0.81043 0.0
H906 H 0.5712 0.02347 0.77158 0.0
H907 H 0.51937 1.00089 0.72278 0.0
C908 C 0.48136 1.00252 0.80076 0.0
C909 C 0.47119 0.01196 0.80872 0.0
C910 C 0.4839 1.00016 0.77294 0.0
C911 C 0.47526 0.00657 0.75315 0.0
C912 C 0.46487 0.01578 0.76108 0.0
C913 C 0.46341 0.01887 0.78872 0.0
C914 C 0.49341 0.9885 0.76449 0.0
C915 C 0.51528 0.9999 0.76648 0.0
C916 C 0.52471 0.00324 0.79214 0.0
C917 C 0.54487 0.01148 0.79402 0.0
C918 C 0.55564 0.01734 0.77024 0.0
C919 C 0.54662 0.0133 0.7446 0.0
C920 C 0.52642 0.00469 0.74265 0.0
H921 H 0.01275 0.49057 0.81162 0.0
H922 H 0.01662 0.48461 0.72499 0.0
H923 H 0.99003 0.43415 0.77513 0.0
H924 H 0.03757 0.51755 0.78114 0.0
H925 H 0.03348 0.51597 0.74529 0.0
H926 H 0.0171 0.52382 0.81225 0.0
H927 H 0.98834 0.55233 0.77619 0.0
H928 H 0.01051 0.52442 0.72482 0.0
C929 C 0.00894 0.4815 0.79357 0.0
C930 C 1.00049 0.46131 0.79635 0.0
C931 C 0.01422 0.49008 0.76763 0.0
C932 C 0.01121 0.47817 0.74465 0.0
C933 C 1.00234 0.45799 0.74744 0.0
C934 C 0.99626 0.44973 0.77301 0.0
C935 C 0.02599 0.51188 0.76513 0.0
C936 C 0.01396 0.5217 0.76827 0.0
C937 C 0.0111 0.52713 0.79439 0.0
C938 C 1.00209 0.53841 0.7972 0.0
C939 C 0.99499 0.54328 0.77405 0.0
C940 C 0.9981 0.5385 0.74803 0.0
C941 C 0.00749 0.52757 0.74503 0.0
H942 H 0.50855 0.47212 0.82497 0.0
H943 H 0.50121 0.47266 0.73801 0.0
H944 H 0.45198 0.44193 0.789 0.0
H945 H 0.53569 0.4795 0.79134 0.0
H946 H 0.53273 0.48439 0.75667 0.0
H947 H 0.52993 0.50244 0.82732 0.0
H948 H 0.56936 0.56138 0.8085 0.0
H949 H 0.55306 0.51755 0.74667 0.0
C950 C 0.49928 0.46888 0.80717 0.0
C951 C 0.4792 0.4578 0.81018 0.0
C952 C 0.50738 0.4752 0.78127 0.0
C953 C 0.49509 0.46889 0.75811 0.0
C954 C 0.47508 0.45661 0.7607 0.0
C955 C 0.46729 0.45181 0.78682 0.0
C956 C 0.52914 0.48612 0.7779 0.0
C957 C 0.53863 0.50753 0.78525 0.0
C958 C 0.53798 0.51313 0.81222 0.0
C959 C 0.54889 0.53249 0.82064 0.0
C960 C 0.5604 0.54648 0.80178 0.0
C961 C 0.5625 0.54123 0.77534 0.0
C962 C 0.55113 0.52179 0.76683 0.0
H963 H 0.70232 0.87 0.51874 0.0
H964 H 0.69864 0.87832 0.60455 0.0
H965 H 0.67863 0.90498 0.54564 0.0
H966 H 0.72455 0.86725 0.55546 0.0
H967 H 0.71728 0.86417 0.58996 0.0
H968 H 0.70052 0.84162 0.51958 0.0
H969 H 0.67927 0.78418 0.54965 0.0
H970 H 0.70063 0.83206 0.60593 0.0
C971 C 0.69729 0.87522 0.53527 0.0
C972 C 0.68884 0.88671 0.52919 0.0
C973 C 0.70026 0.87144 0.56242 0.0
C974 C 0.69539 0.88018 0.58361 0.0
C975 C 0.68756 0.89238 0.57774 0.0
C976 C 0.6838 0.89495 0.5505 0.0
C977 C 0.71165 0.86112 0.5686 0.0
C978 C 0.70044 0.83937 0.56351 0.0
C979 C 0.69644 0.83193 0.53671 0.0
C980 C 0.6882 0.81196 0.5317 0.0
C981 C 0.68427 0.79939 0.55371 0.0
C982 C 0.68898 0.80645 0.58049 0.0
C983 C 0.69662 0.82644 0.58533 0.0
H984 H 0.18694 0.85014 0.53708 0.0
H985 H 0.19052 0.85498 0.62468 0.0
H986 H 0.21725 0.90611 0.5758 0.0
H987 H 0.18117 0.8224 0.56667 0.0
H988 H 0.18039 0.82412 0.60267 0.0
H989 H 0.15361 0.81957 0.53706 0.0
H990 H 0.09837 0.78799 0.57476 0.0
H991 H 0.14996 0.81206 0.62416 0.0
C992 C 0.19083 0.85902 0.55534 0.0
C993 C 0.20256 0.87923 0.55337 0.0
C994 C 0.1858 0.8501 0.5811 0.0
C995 C 0.19287 0.86171 0.60484 0.0
C996 C 0.2041 0.88193 0.60283 0.0
C997 C 0.20802 0.89051 0.57718 0.0
C998 C 0.17606 0.82825 0.5832 0.0
C999 C 0.15427 0.81861 0.58109 0.0
C1000 C 0.14502 0.81492 0.55526 0.0
C1001 C 0.12484 0.80346 0.55286 0.0
C1002 C 0.11393 0.79704 0.57652 0.0
C1003 C 0.12282 0.79972 0.60212 0.0
C1004 C 0.14302 0.81065 0.60447 0.0
H1005 H 0.16945 0.29239 0.5265 0.0
H1006 H 0.18422 0.30979 0.61054 0.0
H1007 H 0.22883 0.32648 0.55172 0.0
H1008 H 0.14581 0.27655 0.56263 0.0
H1009 H 0.15199 0.28411 0.5973 0.0
H1010 H 0.14703 0.30479 0.52955 0.0
H1011 H 0.11003 0.32421 0.56299 0.0
H1012 H 0.13458 0.29823 0.6152 0.0
C1013 C 0.1802 0.30061 0.54209 0.0
C1014 C 0.19988 0.30958 0.53584 0.0
C1015 C 0.17439 0.30109 0.56892 0.0
C1016 C 0.18854 0.31035 0.58961 0.0
C1017 C 0.20825 0.31951 0.58347 0.0
C1018 C 0.21363 0.31963 0.55644 0.0
C1019 C 0.15328 0.28954 0.5761 0.0
C1020 C 0.14292 0.30116 0.57301 0.0
C1021 C 0.14051 0.30736 0.54706 0.0
C1022 C 0.12901 0.31613 0.54345 0.0
C1023 C 0.11995 0.31867 0.56604 0.0
C1024 C 0.12177 0.31227 0.59195 0.0
C1025 C 0.13345 0.30365 0.59538 0.0
H1026 H 0.98859 0.39666 0.06989 0.0
H1027 H 0.04893 0.49253 0.15999 0.0
H1028 H 0.04421 0.44365 0.04687 0.0
H1029 H 0.99223 0.44641 0.18018 0.0
H1030 H 0.04642 0.47636 0.11652 0.0
H1031 H 0.98897 0.41573 0.10891 0.0
C1032 C 1.00092 0.41098 0.07301 0.0
C1033 C 0.01648 0.41845 0.05509 0.0
C1034 C 0.03443 0.46989 0.13031 0.0
C1035 C 0.01693 0.44048 0.0999 0.0
C1036 C 0.03578 0.47922 0.15502 0.0
C1037 C 0.0208 0.47073 0.17379 0.0
C1038 C 0.01802 0.45193 0.12441 0.0
C1039 C 1.00421 0.45332 0.16643 0.0
C1040 C 1.00108 0.42192 0.0953 0.0
C1041 C 0.03195 0.4372 0.06019 0.0
N1042 N 1.00334 0.44441 0.14246 0.0
N1043 N 0.03183 0.44753 0.08219 0.0
H1044 H 0.5735 0.59236 0.05866 0.0
H1045 H 0.57253 0.55935 0.21269 0.0
H1046 H 0.62355 0.61394 0.11174 0.0
H1047 H 0.5198 0.54402 0.16798 0.0
H1048 H 0.59106 0.57782 0.17399 0.0
H1049 H 0.55302 0.57411 0.09702 0.0
C1050 C 0.58009 0.59326 0.07848 0.0
C1051 C 0.6002 0.60387 0.08204 0.0
C1052 C 0.57545 0.57045 0.17242 0.0
C1053 C 0.57713 0.58354 0.1257 0.0
C1054 C 0.56488 0.55981 0.19448 0.0
C1055 C 0.54465 0.55037 0.19353 0.0
C1056 C 0.56582 0.57164 0.14895 0.0
C1057 C 0.5354 0.55117 0.16941 0.0
C1058 C 0.56846 0.5829 0.10027 0.0
C1059 C 0.60814 0.60523 0.10806 0.0
N1060 N 0.5461 0.56176 0.14797 0.0
N1061 N 0.59661 0.595 0.12884 0.0
H1062 H 0.39272 0.01236 0.0956 0.0
H1063 H 0.44948 0.96322 0.15993 0.0
H1064 H 0.41248 0.98146 0.04524 0.0
H1065 H 0.4531 0.0153 0.1934 0.0
H1066 H 0.43437 0.96749 0.11862 0.0
H1067 H 0.41169 0.01021 0.13395 0.0
C1068 C 0.40132 0.00537 0.09263 0.0
C1069 C 0.40188 0.99786 0.06716 0.0
C1070 C 0.43872 0.97808 0.13492 0.0
C1071 C 0.423 0.99478 0.11077 0.0
C1072 C 0.44751 0.97578 0.15842 0.0
C1073 C 0.45235 0.98879 0.18038 0.0
C1074 C 0.43448 0.99328 0.13363 0.0
C1075 C 0.44919 0.00465 0.17728 0.0
C1076 C 0.41205 0.00408 0.11443 0.0
C1077 C 0.41226 0.98793 0.06452 0.0
N1078 N 0.44017 0.00627 0.15456 0.0
N1079 N 0.42257 0.98675 0.0861 0.0
H1080 H 0.3969 0.98605 0.94527 0.0
H1081 H 0.45484 0.98194 0.84461 0.0
H1082 H 0.44091 0.04597 0.95579 0.0
H1083 H 0.47541 0.04326 0.83762 0.0
H1084 H 0.44024 0.98197 0.88809 0.0
H1085 H 0.41468 0.98334 0.90716 0.0
C1086 C 0.41034 0.99863 0.93965 0.0
C1087 C 0.41736 0.01629 0.95379 0.0
C1088 C 0.44795 0.99543 0.87707 0.0
C1089 C 0.43813 0.01313 0.9105 0.0
C1090 C 0.45661 0.99548 0.85254 0.0
C1091 C 0.46619 0.0126 0.83748 0.0
C1092 C 0.4489 0.01264 0.88649 0.0
C1093 C 0.46796 0.02973 0.84855 0.0
C1094 C 0.42066 0.99698 0.9181 0.0
C1095 C 0.43491 0.03206 0.94555 0.0
N1096 N 0.45929 0.0293 0.87232 0.0
N1097 N 0.44458 0.03015 0.92429 0.0
H1098 H 1.00304 0.38346 0.91489 0.0
H1099 H 0.98314 0.46335 0.84383 0.0
H1100 H 0.98095 0.41459 0.96012 0.0
H1101 H 0.01564 0.43847 0.80952 0.0
H1102 H 0.97939 0.44459 0.88581 0.0
H1103 H 1.00315 0.40095 0.87399 0.0
C1104 C 0.99826 0.39409 0.91608 0.0
C1105 C 0.99274 0.39827 0.94087 0.0
C1106 C 0.9873 0.4433 0.86898 0.0
C1107 C 0.99274 0.41838 0.89429 0.0
C1108 C 0.98953 0.45406 0.84522 0.0
C1109 C 0.99937 0.45212 0.82307 0.0
C1110 C 0.99494 0.43062 0.87027 0.0
C1111 C 0.00753 0.44002 0.82586 0.0
C1112 C 0.99827 0.40407 0.89278 0.0
C1113 C 0.98583 0.41149 0.94132 0.0
N1114 N 0.00499 0.42968 0.84882 0.0
N1115 N 0.98632 0.42141 0.91837 0.0
H1116 H 0.59707 0.60724 0.95784 0.0
H1117 H 0.55509 0.51362 0.86292 0.0
H1118 H 0.60019 0.55584 0.97879 0.0
H1119 H 0.54955 0.56399 0.84474 0.0
H1120 H 0.56726 0.52671 0.90839 0.0
H1121 H 0.57644 0.59007 0.91892 0.0
C1122 C 0.59345 0.59233 0.95428 0.0
C1123 C 0.60066 0.58308 0.97148 0.0
C1124 C 0.56305 0.53474 0.89465 0.0
C1125 C 0.57682 0.56324 0.92679 0.0
C1126 C 0.55588 0.52717 0.86876 0.0
C1127 C 0.55148 0.53785 0.84992 0.0
C1128 C 0.56599 0.55319 0.90164 0.0
C1129 C 0.55306 0.55545 0.85853 0.0
C1130 C 0.58153 0.58249 0.93208 0.0
C1131 C 0.59517 0.56364 0.96595 0.0
N1132 N 0.56046 0.56271 0.88362 0.0
N1133 N 0.58371 0.55442 0.94393 0.0
H1134 H 0.01281 0.62642 0.90781 0.0
H1135 H 0.98761 0.52246 0.84736 0.0
H1136 H 0.98856 0.57518 0.95738 0.0
H1137 H 0.01829 0.57688 0.80534 0.0
H1138 H 0.98611 0.5402 0.88774 0.0
H1139 H 0.01147 0.60695 0.86867 0.0
C1140 C 0.00723 0.61098 0.91032 0.0
C1141 C 1.0015 0.6024 0.9358 0.0
C1142 C 0.99318 0.54818 0.86964 0.0
C1143 C 0.99985 0.57992 0.8913 0.0
C1144 C 0.99417 0.53811 0.84681 0.0
C1145 C 1.00287 0.54827 0.82305 0.0
C1146 C 1.00093 0.56841 0.86837 0.0
C1147 C 0.01119 0.5685 0.82318 0.0
C1148 C 0.00641 0.59983 0.88803 0.0
C1149 C 0.9936 0.58227 0.938 0.0
N1150 N 0.00989 0.57785 0.84534 0.0
N1151 N 0.99329 0.57166 0.91603 0.0
H1152 H 0.39593 0.41069 0.93833 0.0
H1153 H 0.49147 0.44322 0.85229 0.0
H1154 H 0.44299 0.40199 0.96563 0.0
H1155 H 0.4466 0.45645 0.82969 0.0
H1156 H 0.47461 0.42899 0.89462 0.0
H1157 H 0.41459 0.4278 0.89868 0.0
C1158 C 0.41017 0.41233 0.93602 0.0
C1159 C 0.41781 0.40475 0.9554 0.0
C1160 C 0.46853 0.43513 0.88048 0.0
C1161 C 0.43936 0.42448 0.90987 0.0
C1162 C 0.47824 0.44341 0.85639 0.0
C1163 C 0.47039 0.45096 0.8373 0.0
C1164 C 0.45082 0.43434 0.88548 0.0
C1165 C 0.45303 0.45053 0.84361 0.0
C1166 C 0.42086 0.42219 0.91336 0.0
C1167 C 0.43643 0.40748 0.95124 0.0
N1168 N 0.44379 0.44226 0.86701 0.0
N1169 N 0.44652 0.41705 0.92892 0.0
H1170 H 0.59026 0.02066 0.95989 0.0
H1171 H 0.56943 0.99735 0.80069 0.0
H1172 H 0.61838 0.99793 0.90955 0.0
H1173 H 0.54249 0.02405 0.84569 0.0
H1174 H 0.58745 0.99801 0.84125 0.0
H1175 H 0.57339 0.02362 0.9191 0.0
C1176 C 0.5929 0.01641 0.94018 0.0
C1177 C 0.605 0.0083 0.93793 0.0
C1178 C 0.57774 0.00388 0.84243 0.0
C1179 C 0.58629 0.01193 0.89161 0.0
C1180 C 0.56743 0.00353 0.81919 0.0
C1181 C 0.55474 0.01104 0.81969 0.0
C1182 C 0.57534 0.01167 0.86671 0.0
C1183 C 0.55225 0.01825 0.84447 0.0
C1184 C 0.58333 0.01809 0.91701 0.0
C1185 C 0.60854 0.00355 0.9121 0.0
N1186 N 0.56255 0.01846 0.86709 0.0
N1187 N 0.59908 0.00525 0.89 0.0
H1188 H 0.55913 0.95207 0.03994 0.0
H1189 H 0.55779 0.01322 0.16858 0.0
H1190 H 0.6059 0.00848 0.06349 0.0
H1191 H 0.51706 0.95238 0.15763 0.0
H1192 H 0.57241 0.01305 0.12541 0.0
H1193 H 0.54092 0.95302 0.07908 0.0
C1194 C 0.5656 0.96463 0.05331 0.0
C1195 C 0.58418 0.98016 0.04847 0.0
C1196 C 0.56016 0.99976 0.13228 0.0
C1197 C 0.56327 0.98141 0.09299 0.0
C1198 C 0.55177 0.99987 0.15686 0.0
C1199 C 0.53633 0.98274 0.16684 0.0
C1200 C 0.5531 0.98238 0.11745 0.0
C1201 C 0.52891 0.96591 0.15065 0.0
C1202 C 0.55516 0.96516 0.0756 0.0
C1203 C 0.59174 0.99608 0.06645 0.0
N1204 N 0.5375 0.96609 0.12684 0.0
N1205 N 0.58126 0.99628 0.08782 0.0
H1206 H 0.99741 0.60369 0.06334 0.0
H1207 H 0.0528 0.56503 0.15959 0.0
H1208 H 0.05213 0.60832 0.04306 0.0
H1209 H 0.99578 0.55607 0.17504 0.0
H1210 H 0.05207 0.57894 0.1154 0.0
H1211 H 0.99617 0.58506 0.10342 0.0
C1212 C 0.00922 0.60085 0.0673 0.0
C1213 C 0.02499 0.60776 0.04982 0.0
C1214 C 0.03963 0.57372 0.12832 0.0
C1215 C 0.02358 0.58625 0.09583 0.0
C1216 C 0.03996 0.56561 0.15344 0.0
C1217 C 0.02436 0.55949 0.17108 0.0
C1218 C 0.02363 0.5758 0.12087 0.0
C1219 C 0.00822 0.56086 0.16221 0.0
C1220 C 0.00844 0.59009 0.09018 0.0
C1221 C 0.03974 0.60341 0.05601 0.0
N1222 N 0.00835 0.56903 0.13786 0.0
N1223 N 0.03872 0.59301 0.07858 0.0
H1224 H 0.41331 0.4391 0.04934 0.0
H1225 H 0.43219 0.42815 0.20708 0.0
H1226 H 0.38353 0.3865 0.09546 0.0
H1227 H 0.45889 0.48406 0.16829 0.0
H1228 H 0.41487 0.41327 0.16514 0.0
H1229 H 0.42996 0.4567 0.09157 0.0
C1230 C 0.41025 0.43136 0.06842 0.0
C1231 C 0.39771 0.41128 0.06904 0.0
C1232 C 0.42437 0.42881 0.16561 0.0
C1233 C 0.41619 0.43109 0.11697 0.0
C1234 C 0.43429 0.43735 0.18966 0.0
C1235 C 0.44667 0.45746 0.19138 0.0
C1236 C 0.42688 0.44032 0.14266 0.0
C1237 C 0.44933 0.46853 0.16784 0.0
C1238 C 0.4197 0.44134 0.09241 0.0
C1239 C 0.39368 0.40188 0.09412 0.0
N1240 N 0.43942 0.4598 0.14435 0.0
N1241 N 0.40303 0.41181 0.117 0.0
H1242 H 0.65694 0.72869 0.40249 0.0
H1243 H 0.7143 0.82605 0.49044 0.0
H1244 H 0.71214 0.77632 0.37939 0.0
H1245 H 0.65757 0.77955 0.50963 0.0
H1246 H 0.71283 0.80948 0.44773 0.0
H1247 H 0.65639 0.74801 0.44052 0.0
C1248 C 0.669 0.74319 0.40541 0.0
C1249 C 0.68469 0.75079 0.38772 0.0
C1250 C 0.7006 0.80303 0.46112 0.0
C1251 C 0.68406 0.77314 0.43139 0.0
C1252 C 0.70135 0.81259 0.48536 0.0
C1253 C 0.68607 0.8041 0.50367 0.0
C1254 C 0.68449 0.78483 0.45523 0.0
C1255 C 0.66976 0.78648 0.49623 0.0
C1256 C 0.66862 0.75428 0.42712 0.0
C1257 C 0.6998 0.76978 0.39255 0.0
N1258 N 0.66948 0.77735 0.47274 0.0
N1259 N 0.69914 0.78027 0.41399 0.0
H1260 H 0.29046 0.95182 0.44203 0.0
H1261 H 0.18709 0.8757 0.5012 0.0
H1262 H 0.23995 0.92216 0.39017 0.0
H1263 H 0.24073 0.90373 0.54722 0.0
H1264 H 0.20474 0.89329 0.46033 0.0
H1265 H 0.27077 0.93642 0.48156 0.0
C1266 C 0.27514 0.94196 0.43909 0.0
C1267 C 0.26686 0.93756 0.41296 0.0
C1268 C 0.21253 0.89562 0.4795 0.0
C1269 C 0.24408 0.91983 0.45799 0.0
C1270 C 0.2025 0.88552 0.50269 0.0
C1271 C 0.21238 0.88859 0.52774 0.0
C1272 C 0.23249 0.90872 0.48158 0.0
C1273 C 0.23239 0.90132 0.52856 0.0
C1274 C 0.26385 0.93319 0.46162 0.0
C1275 C 0.24684 0.9254 0.41013 0.0
N1276 N 0.24168 0.91091 0.50596 0.0
N1277 N 0.2361 0.9166 0.43241 0.0
H1278 H 0.06377 0.34385 0.43352 0.0
H1279 H 0.11978 0.29395 0.4968 0.0
H1280 H 0.08259 0.31293 0.38148 0.0
H1281 H 0.12626 0.34783 0.52777 0.0
H1282 H 0.10439 0.29791 0.4554 0.0
H1283 H 0.083 0.34125 0.47108 0.0
C1284 C 0.07218 0.33671 0.43003 0.0
C1285 C 0.07246 0.32939 0.40429 0.0
C1286 C 0.10949 0.30897 0.47115 0.0
C1287 C 0.09394 0.32589 0.44701 0.0
C1288 C 0.11843 0.30684 0.49464 0.0
C1289 C 0.12404 0.32044 0.51598 0.0
C1290 C 0.10589 0.32459 0.46934 0.0
C1291 C 0.12175 0.33676 0.51212 0.0
C1292 C 0.08307 0.33518 0.45138 0.0
C1293 C 0.08261 0.31927 0.40099 0.0
N1294 N 0.11251 0.33819 0.48952 0.0
N1295 N 0.09314 0.31791 0.42214 0.0
H1296 H 0.11099 0.37955 0.29345 0.0
H1297 H 0.11568 0.30839 0.1822 0.0
H1298 H 0.06723 0.31946 0.28383 0.0
H1299 H 0.14616 0.37056 0.17477 0.0
H1300 H 0.1027 0.31163 0.2257 0.0
H1301 H 0.12825 0.37591 0.25523 0.0
C1302 C 0.10497 0.3656 0.28329 0.0
C1303 C 0.0875 0.34984 0.29173 0.0
C1304 C 0.11254 0.32457 0.21481 0.0
C1305 C 0.10742 0.34553 0.24829 0.0
C1306 C 0.12012 0.32272 0.19027 0.0
C1307 C 0.13211 0.33926 0.17525 0.0
C1308 C 0.11708 0.34309 0.22429 0.0
C1309 C 0.13711 0.35752 0.18605 0.0
C1310 C 0.11487 0.36354 0.26152 0.0
C1311 C 0.08049 0.33208 0.27784 0.0
N1312 N 0.12949 0.35897 0.20989 0.0
N1313 N 0.0905 0.3304 0.25685 0.0
H1314 H 0.67143 0.71627 0.24773 0.0
H1315 H 0.65133 0.79682 0.17929 0.0
H1316 H 0.64925 0.74683 0.29412 0.0
H1317 H 0.68348 0.77207 0.14344 0.0
H1318 H 0.64773 0.77768 0.22082 0.0
H1319 H 0.67141 0.73411 0.20728 0.0
C1320 C 0.66659 0.72685 0.24927 0.0
C1321 C 0.66109 0.73076 0.27426 0.0
C1322 C 0.65554 0.77651 0.20377 0.0
C1323 C 0.66096 0.75128 0.2282 0.0
C1324 C 0.6577 0.78749 0.18027 0.0
C1325 C 0.6674 0.78571 0.15783 0.0
C1326 C 0.66311 0.76376 0.2045 0.0
C1327 C 0.6755 0.77354 0.16005 0.0
C1328 C 0.66653 0.73702 0.22623 0.0
C1329 C 0.65412 0.74392 0.27516 0.0
N1330 N 0.67304 0.76298 0.18277 0.0
N1331 N 0.65455 0.75405 0.25246 0.0
H1332 H 0.25979 0.88631 0.32033 0.0
H1333 H 0.26386 0.89334 0.15955 0.0
H1334 H 0.29143 0.94026 0.2773 0.0
H1335 H 0.2104 0.85354 0.19802 0.0
H1336 H 0.27812 0.90634 0.20407 0.0
H1337 H 0.24513 0.86993 0.27666 0.0
C1338 C 0.2637 0.89466 0.30176 0.0
C1339 C 0.27672 0.91468 0.30238 0.0
C1340 C 0.26327 0.89474 0.20274 0.0
C1341 C 0.26047 0.8961 0.25286 0.0
C1342 C 0.25502 0.88739 0.17733 0.0
C1343 C 0.23566 0.8727 0.1749 0.0
C1344 C 0.25229 0.88715 0.22612 0.0
C1345 C 0.22531 0.86497 0.19891 0.0
C1346 C 0.2553 0.88534 0.277 0.0
C1347 C 0.28132 0.92485 0.27777 0.0
N1348 N 0.23375 0.87236 0.22364 0.0
N1349 N 0.27331 0.91542 0.25402 0.0
H1350 H 0.6777 0.9604 0.23874 0.0
H1351 H 0.65497 0.85651 0.18107 0.0
H1352 H 0.65477 0.90981 0.28956 0.0
H1353 H 0.68441 0.91052 0.13776 0.0
H1354 H 0.65293 0.87441 0.22086 0.0
H1355 H 0.67662 0.94068 0.20008 0.0
C1356 C 0.67246 0.94506 0.24163 0.0
C1357 C 0.66705 0.93675 0.26732 0.0
C1358 C 0.65984 0.88226 0.20259 0.0
C1359 C 0.66572 0.91399 0.22339 0.0
C1360 C 0.66114 0.8721 0.1801 0.0
C1361 C 0.66964 0.88209 0.15615 0.0
C1362 C 0.66708 0.9024 0.2008 0.0
C1363 C 0.67745 0.90226 0.15575 0.0
C1364 C 0.6718 0.93376 0.21962 0.0
C1365 C 0.65957 0.91671 0.27001 0.0
N1366 N 0.67586 0.91169 0.1776 0.0
N1367 N 0.65943 0.90596 0.24832 0.0
H1368 H 0.11606 0.74307 0.30314 0.0
H1369 H 0.11658 0.79766 0.1656 0.0
H1370 H 0.06789 0.74933 0.27401 0.0
H1371 H 0.16191 0.78532 0.18894 0.0
H1372 H 0.10065 0.78405 0.2086 0.0
H1373 H 0.13472 0.76183 0.26435 0.0
C1374 C 0.10936 0.74835 0.28862 0.0
C1375 C 0.09025 0.74441 0.29183 0.0
C1376 C 0.1142 0.78451 0.20449 0.0
C1377 C 0.11172 0.76613 0.24739 0.0
C1378 C 0.12333 0.79235 0.17999 0.0
C1379 C 0.14051 0.79248 0.17357 0.0
C1380 C 0.12226 0.77668 0.22276 0.0
C1381 C 0.14874 0.7856 0.19309 0.0
C1382 C 0.12008 0.75913 0.26649 0.0
C1383 C 0.08248 0.75182 0.27236 0.0
N1384 N 0.13942 0.77778 0.21668 0.0
N1385 N 0.09322 0.76226 0.251 0.0
H1386 H 0.2567 0.35555 0.29547 0.0
H1387 H 0.2429 0.33965 0.13426 0.0
H1388 H 0.28655 0.33473 0.2452 0.0
H1389 H 0.20849 0.35712 0.18093 0.0
H1390 H 0.26107 0.34124 0.17499 0.0
H1391 H 0.24136 0.36021 0.25418 0.0
C1392 C 0.26008 0.35212 0.27568 0.0
C1393 C 0.27219 0.34403 0.2735 0.0
C1394 C 0.24971 0.34495 0.17649 0.0
C1395 C 0.25529 0.34964 0.22668 0.0
C1396 C 0.23936 0.34417 0.15309 0.0
C1397 C 0.22438 0.34868 0.15402 0.0
C1398 C 0.24504 0.35005 0.20141 0.0
C1399 C 0.22001 0.35365 0.17932 0.0
C1400 C 0.25138 0.35476 0.25223 0.0
C1401 C 0.27669 0.34033 0.24764 0.0
N1402 N 0.23031 0.3542 0.20212 0.0
N1403 N 0.2681 0.34298 0.22527 0.0
H1404 H 0.22183 0.29732 0.36476 0.0
H1405 H 0.22893 0.30176 0.52569 0.0
H1406 H 0.27595 0.32285 0.40975 0.0
H1407 H 0.18591 0.31114 0.48434 0.0
H1408 H 0.24263 0.30144 0.482 0.0
H1409 H 0.20509 0.29511 0.40739 0.0
C1410 C 0.23017 0.30241 0.38354 0.0
C1411 C 0.25035 0.31038 0.3837 0.0
C1412 C 0.23018 0.30356 0.48248 0.0
C1413 C 0.23128 0.30748 0.43222 0.0
C1414 C 0.22238 0.30385 0.50741 0.0
C1415 C 0.2066 0.30714 0.5088 0.0
C1416 C 0.22198 0.30613 0.45851 0.0
C1417 C 0.19821 0.30879 0.48423 0.0
C1418 C 0.22062 0.3012 0.40774 0.0
C1419 C 0.26043 0.31674 0.40862 0.0
N1420 N 0.20608 0.30837 0.45996 0.0
N1421 N 0.25078 0.315 0.43187 0.0
H1422 H 0.71827 0.94355 0.37309 0.0
H1423 H 0.65844 0.88789 0.50445 0.0
H1424 H 0.6635 0.93839 0.39446 0.0
H1425 H 0.71635 0.89913 0.48986 0.0
H1426 H 0.65844 0.90263 0.46074 0.0
H1427 H 0.71651 0.92427 0.41295 0.0
C1428 C 0.7059 0.93843 0.38614 0.0
C1429 C 0.69108 0.94278 0.38046 0.0
C1430 C 0.67109 0.90171 0.46694 0.0
C1431 C 0.68891 0.9205 0.42594 0.0
C1432 C 0.67106 0.89325 0.49184 0.0
C1433 C 0.68746 0.89242 0.50085 0.0
C1434 C 0.68766 0.90948 0.45094 0.0
C1435 C 0.70335 0.89937 0.48361 0.0
C1436 C 0.70488 0.92736 0.40885 0.0
C1437 C 0.67535 0.93558 0.39805 0.0
N1438 N 0.70314 0.9078 0.45957 0.0
N1439 N 0.6747 0.92483 0.41997 0.0
H1440 H 0.08236 0.77603 0.38429 0.0
H1441 H 0.10005 0.76556 0.54257 0.0
H1442 H 0.05354 0.72318 0.43009 0.0
H1443 H 0.12792 0.82114 0.50285 0.0
H1444 H 0.08264 0.7506 0.50078 0.0
H1445 H 0.0982 0.79381 0.42674 0.0
C1446 C 0.07933 0.76827 0.40336 0.0
C1447 C 0.06733 0.74809 0.40384 0.0
C1448 C 0.0924 0.7661 0.50102 0.0
C1449 C 0.08487 0.7681 0.45202 0.0
C1450 C 0.10235 0.7747 0.52501 0.0
C1451 C 0.11513 0.79474 0.52641 0.0
C1452 C 0.09528 0.77746 0.4778 0.0
C1453 C 0.11805 0.80567 0.50265 0.0
C1454 C 0.08831 0.77836 0.42747 0.0
C1455 C 0.06329 0.73865 0.42888 0.0
N1456 N 0.10813 0.79688 0.47921 0.0
N1457 N 0.07218 0.74869 0.4519 0.0
H1458 H 0.3722 0.11712 0.70285 0.0
H1459 H 0.31616 0.11976 0.83468 0.0
H1460 H 0.31903 0.06879 0.73066 0.0
H1461 H 0.37374 0.1644 0.81522 0.0
H1462 H 0.3138 0.10422 0.79073 0.0
H1463 H 0.37023 0.13725 0.73887 0.0
C1464 C 0.3601 0.11071 0.71648 0.0
C1465 C 0.34591 0.0911 0.7139 0.0
C1466 C 0.32681 0.11763 0.79584 0.0
C1467 C 0.34346 0.11422 0.75498 0.0
C1468 C 0.3281 0.12657 0.82082 0.0
C1469 C 0.34527 0.14322 0.82877 0.0
C1470 C 0.34283 0.12538 0.77875 0.0
C1471 C 0.36023 0.15157 0.80994 0.0
C1472 C 0.35896 0.12227 0.73697 0.0
C1473 C 0.33047 0.08373 0.73203 0.0
N1474 N 0.3588 0.14237 0.78599 0.0
N1475 N 0.32972 0.09526 0.75184 0.0
H1476 H 0.90919 0.25846 0.72191 0.0
H1477 H 0.90644 0.2292 0.87825 0.0
H1478 H 0.95841 0.2819 0.77676 0.0
H1479 H 0.8542 0.21079 0.83065 0.0
H1480 H 0.92534 0.24724 0.83961 0.0
H1481 H 0.88824 0.24064 0.76014 0.0
C1482 C 0.9155 0.25986 0.74207 0.0
C1483 C 0.93554 0.27089 0.74624 0.0
C1484 C 0.90976 0.23933 0.83741 0.0
C1485 C 0.91192 0.25106 0.78972 0.0
C1486 C 0.89896 0.22895 0.85947 0.0
C1487 C 0.87875 0.21875 0.85769 0.0
C1488 C 0.90038 0.23951 0.81307 0.0
C1489 C 0.86978 0.21858 0.83278 0.0
C1490 C 0.90361 0.24975 0.76379 0.0
C1491 C 0.94309 0.27287 0.77266 0.0
N1492 N 0.88069 0.22894 0.81134 0.0
N1493 N 0.9313 0.26288 0.79334 0.0
H1494 H 0.75248 0.64947 0.71071 0.0
H1495 H 0.79209 0.68432 0.86245 0.0
H1496 H 0.73668 0.68402 0.76037 0.0
H1497 H 0.78794 0.63244 0.82744 0.0
H1498 H 0.77869 0.68952 0.82022 0.0
H1499 H 0.77133 0.64718 0.74946 0.0
C1500 C 0.75315 0.65667 0.72975 0.0
C1501 C 0.74378 0.66759 0.73229 0.0
C1502 C 0.78097 0.67714 0.82168 0.0
C1503 C 0.76489 0.66495 0.77627 0.0
C1504 C 0.78864 0.67419 0.84572 0.0
C1505 C 0.79082 0.65774 0.84864 0.0
C1506 C 0.77559 0.66366 0.80029 0.0
C1507 C 0.78651 0.64531 0.82609 0.0
C1508 C 0.76386 0.65539 0.75172 0.0
C1509 C 0.74444 0.67616 0.75743 0.0
N1510 N 0.77888 0.64841 0.80289 0.0
N1511 N 0.75499 0.67482 0.77843 0.0
H1512 H 0.72719 0.65547 0.60538 0.0
H1513 H 0.82116 0.69016 0.51478 0.0
H1514 H 0.78163 0.70695 0.62327 0.0
H1515 H 0.76632 0.63939 0.49756 0.0
H1516 H 0.80823 0.69479 0.55751 0.0
H1517 H 0.74213 0.64821 0.56766 0.0
C1518 C 0.74225 0.66534 0.60131 0.0
C1519 C 0.75308 0.68194 0.61753 0.0
C1520 C 0.79914 0.68243 0.54463 0.0
C1521 C 0.77042 0.67353 0.57437 0.0
C1522 C 0.8066 0.67968 0.5205 0.0
C1523 C 0.79476 0.66434 0.50291 0.0
C1524 C 0.77971 0.66977 0.55095 0.0
C1525 C 0.77588 0.65133 0.51079 0.0
C1526 C 0.75083 0.6611 0.57983 0.0
C1527 C 0.77262 0.69406 0.61128 0.0
N1528 N 0.76887 0.65444 0.53408 0.0
N1529 N 0.78064 0.68962 0.5902 0.0
H1530 H 0.30768 0.07835 0.62401 0.0
H1531 H 0.33532 0.09518 0.46705 0.0
H1532 H 0.33197 0.04918 0.57899 0.0
H1533 H 0.31015 0.12558 0.5073 0.0
H1534 H 0.33186 0.07691 0.50796 0.0
H1535 H 0.30531 0.09381 0.58158 0.0
C1536 C 0.31235 0.07513 0.60509 0.0
C1537 C 0.3208 0.06324 0.60487 0.0
C1538 C 0.32687 0.0874 0.508 0.0
C1539 C 0.3178 0.0803 0.55669 0.0
C1540 C 0.32878 0.09784 0.4845 0.0
C1541 C 0.32257 0.11163 0.48351 0.0
C1542 C 0.31895 0.09084 0.53118 0.0
C1543 C 0.31496 0.11496 0.50717 0.0
C1544 C 0.31099 0.0839 0.58099 0.0
C1545 C 0.32608 0.05891 0.58 0.0
N1546 N 0.31334 0.10458 0.53016 0.0
N1547 N 0.32469 0.06759 0.55696 0.0
H1548 H 0.93595 0.27393 0.62224 0.0
H1549 H 0.90074 0.18328 0.52211 0.0
H1550 H 0.94241 0.22424 0.64207 0.0
H1551 H 0.88889 0.23034 0.50927 0.0
H1552 H 0.91432 0.19667 0.56721 0.0
H1553 H 0.91764 0.25724 0.58155 0.0
C1554 C 0.93357 0.25949 0.61804 0.0
C1555 C 0.94094 0.25057 0.63556 0.0
C1556 C 0.90854 0.20392 0.55464 0.0
C1557 C 0.91977 0.23125 0.58871 0.0
C1558 C 0.90066 0.19622 0.52899 0.0
C1559 C 0.89383 0.20583 0.51187 0.0
C1560 C 0.90964 0.22137 0.56308 0.0
C1561 C 0.89428 0.22266 0.52167 0.0
C1562 C 0.92298 0.2499 0.59479 0.0
C1563 C 0.93711 0.23173 0.62908 0.0
N1564 N 0.90222 0.22997 0.5465 0.0
N1565 N 0.92689 0.22273 0.60604 0.0
H1566 H 0.34493 0.2934 0.57002 0.0
H1567 H 0.31951 0.18814 0.51451 0.0
H1568 H 0.32539 0.24422 0.62315 0.0
H1569 H 0.34492 0.24076 0.46761 0.0
H1570 H 0.31981 0.20709 0.55459 0.0
H1571 H 0.34153 0.27267 0.53138 0.0
C1572 C 0.33996 0.27815 0.57343 0.0
C1573 C 0.33618 0.27055 0.59969 0.0
C1574 C 0.32527 0.21439 0.53545 0.0
C1575 C 0.33217 0.24662 0.55574 0.0
C1576 C 0.32523 0.20364 0.51275 0.0
C1577 C 0.33189 0.21289 0.48771 0.0
C1578 C 0.33204 0.23441 0.53284 0.0
C1579 C 0.33925 0.23299 0.4864 0.0
C1580 C 0.33796 0.26628 0.55142 0.0
C1581 C 0.32896 0.2506 0.6031 0.0
N1582 N 0.33901 0.24299 0.50851 0.0
N1583 N 0.32749 0.23928 0.58135 0.0
H1584 H 0.72911 0.08072 0.60423 0.0
H1585 H 0.82578 0.11705 0.51982 0.0
H1586 H 0.77747 0.07438 0.6322 0.0
H1587 H 0.77965 0.12816 0.49625 0.0
H1588 H 0.8093 0.10316 0.56244 0.0
H1589 H 0.74793 0.09909 0.56535 0.0
C1590 C 0.74366 0.08314 0.60223 0.0
C1591 C 0.75161 0.07582 0.62153 0.0
C1592 C 0.80288 0.10883 0.54808 0.0
C1593 C 0.77334 0.097 0.57694 0.0
C1594 C 0.81239 0.11695 0.52384 0.0
C1595 C 0.80403 0.12368 0.50433 0.0
C1596 C 0.78483 0.10734 0.55281 0.0
C1597 C 0.78649 0.12289 0.51053 0.0
C1598 C 0.75445 0.09373 0.58004 0.0
C1599 C 0.77064 0.07961 0.61783 0.0
N1600 N 0.7774 0.1147 0.53407 0.0
N1601 N 0.7808 0.08985 0.59594 0.0
H1602 H 0.9565 0.66927 0.57898 0.0
H1603 H 0.87567 0.68977 0.51283 0.0
H1604 H 0.92556 0.69015 0.62677 0.0
H1605 H 0.91191 0.67354 0.46834 0.0
H1606 H 0.89363 0.69102 0.55493 0.0
H1607 H 0.94116 0.67297 0.53783 0.0
C1608 C 0.94639 0.67463 0.58067 0.0
C1609 C 0.94166 0.67875 0.60612 0.0
C1610 C 0.89773 0.68745 0.53581 0.0
C1611 C 0.92399 0.68312 0.55923 0.0
C1612 C 0.88744 0.68664 0.51188 0.0
C1613 C 0.89255 0.68196 0.48693 0.0
C1614 C 0.91304 0.68339 0.53463 0.0
C1615 C 0.90779 0.67781 0.48687 0.0
C1616 C 0.93767 0.67684 0.55721 0.0
C1617 C 0.92909 0.68637 0.60736 0.0
N1618 N 0.91743 0.67864 0.51023 0.0
N1619 N 0.92034 0.68798 0.58418 0.0
H1620 H 0.8947 0.62116 0.70823 0.0
H1621 H 0.89262 0.67958 0.83972 0.0
H1622 H 0.94075 0.67771 0.73276 0.0
H1623 H 0.85244 0.61878 0.82695 0.0
H1624 H 0.90726 0.6804 0.79617 0.0
H1625 H 0.87642 0.6211 0.7479 0.0
C1626 C 0.90099 0.63355 0.7219 0.0
C1627 C 0.9194 0.64941 0.7172 0.0
C1628 C 0.89514 0.6669 0.80273 0.0
C1629 C 0.89841 0.64948 0.76238 0.0
C1630 C 0.88674 0.66644 0.82754 0.0
C1631 C 0.87144 0.64904 0.83709 0.0
C1632 C 0.88824 0.64982 0.78723 0.0
C1633 C 0.86419 0.63251 0.82031 0.0
C1634 C 0.89052 0.6335 0.74451 0.0
C1635 C 0.92672 0.66508 0.73559 0.0
N1636 N 0.87279 0.63325 0.79627 0.0
N1637 N 0.91622 0.66471 0.75729 0.0
H1638 H 0.35577 0.2965 0.73609 0.0
H1639 H 0.36384 0.21335 0.81062 0.0
H1640 H 0.38104 0.26714 0.69334 0.0
H1641 H 0.37894 0.26745 0.85119 0.0
H1642 H 0.36548 0.229 0.76663 0.0
H1643 H 0.35845 0.2817 0.77846 0.0
C1644 C 0.36182 0.28689 0.7356 0.0
C1645 C 0.36814 0.28299 0.71116 0.0
C1646 C 0.36853 0.23735 0.78529 0.0
C1647 C 0.37096 0.26585 0.75942 0.0
C1648 C 0.36765 0.22849 0.81033 0.0
C1649 C 0.37075 0.23893 0.83473 0.0
C1650 C 0.3722 0.25658 0.78485 0.0
C1651 C 0.37568 0.25855 0.83306 0.0
C1652 C 0.36343 0.27855 0.75976 0.0
C1653 C 0.376 0.27051 0.71175 0.0
N1654 N 0.37591 0.26662 0.80863 0.0
N1655 N 0.37698 0.26214 0.73552 0.0
H1656 H 0.74492 0.10798 0.71491 0.0
H1657 H 0.7643 0.09699 0.87238 0.0
H1658 H 0.71632 0.05509 0.76065 0.0
H1659 H 0.79126 0.15284 0.83341 0.0
H1660 H 0.74658 0.08217 0.83073 0.0
H1661 H 0.76123 0.12566 0.75724 0.0
C1662 C 0.74203 0.10019 0.73394 0.0
C1663 C 0.72996 0.08003 0.73441 0.0
C1664 C 0.75621 0.0977 0.8311 0.0
C1665 C 0.74804 0.09992 0.78246 0.0
C1666 C 0.76635 0.10621 0.855 0.0
C1667 C 0.77894 0.12628 0.85659 0.0
C1668 C 0.75873 0.10919 0.80813 0.0
C1669 C 0.78154 0.13734 0.83306 0.0
C1670 C 0.75128 0.11022 0.75799 0.0
C1671 C 0.72612 0.07055 0.75942 0.0
N1672 N 0.77144 0.12863 0.80968 0.0
N1673 N 0.73527 0.08053 0.78236 0.0
H1674 H 0.02495 0.34137 0.04308 0.0
H1675 H 0.13385 0.36091 0.05413 0.0
H1676 H 0.0726 0.38682 -0.00014 0.0
H1677 H 0.08706 0.31873 0.10192 0.0
H1678 H 0.11072 0.36745 0.02885 0.0
H1679 H 0.04669 0.33008 0.06041 0.0
C1680 C 0.03993 0.34895 0.03716 0.0
C1681 C 0.04694 0.36524 0.02025 0.0
C1682 C 0.10548 0.35657 0.04463 0.0
C1683 C 0.07193 0.35231 0.0399 0.0
C1684 C 0.11865 0.35276 0.05883 0.0
C1685 C 0.1123 0.33941 0.08017 0.0
C1686 C 0.0859 0.34692 0.0519 0.0
C1687 C 0.0925 0.32928 0.0857 0.0
C1688 C 0.05235 0.34247 0.04702 0.0
C1689 C 0.06652 0.37436 0.01312 0.0
N1690 N 0.08004 0.33336 0.07186 0.0
N1691 N 0.07831 0.36784 0.02307 0.0
H1692 H 0.67569 0.69335 0.06034 0.0
H1693 H 0.63899 0.76662 0.04972 0.0
H1694 H 0.63429 0.68565 -0.00311 0.0
H1695 H 0.69882 0.78626 0.06885 0.0
H1696 H 0.63629 0.73716 0.02906 0.0
H1697 H 0.68397 0.72743 0.06463 0.0
C1698 C 0.6685 0.69889 0.04715 0.0
C1699 C 0.65425 0.68669 0.02834 0.0
C1700 C 0.65019 0.74825 0.03688 0.0
C1701 C 0.66339 0.72543 0.03338 0.0
C1702 C 0.65177 0.76513 0.04832 0.0
C1703 C 0.66922 0.77892 0.06052 0.0
C1704 C 0.666 0.74497 0.03866 0.0
C1705 C 0.68522 0.77605 0.05917 0.0
C1706 C 0.6733 0.71834 0.04945 0.0
C1707 C 0.64539 0.69461 0.01165 0.0
N1708 N 0.68311 0.75913 0.04915 0.0
N1709 N 0.64981 0.7134 0.01493 0.0
H1710 H 0.31296 0.98209 0.05284 0.0
H1711 H 0.24329 0.86977 0.05371 0.0
H1712 H 0.31516 0.94472 0.99099 0.0
H1713 H 0.23083 0.91004 0.09548 0.0
H1714 H 0.26713 0.89654 0.02654 0.0
H1715 H 0.28117 0.95611 0.06571 0.0
C1716 C 0.3066 0.96848 0.0417 0.0
C1717 C 0.31677 0.96549 0.02099 0.0
C1718 C 0.25883 0.89945 0.04116 0.0
C1719 C 0.28047 0.93548 0.03594 0.0
C1720 C 0.24507 0.88411 0.05651 0.0
C1721 C 0.23529 0.88773 0.07723 0.0
C1722 C 0.26297 0.91852 0.04684 0.0
C1723 C 0.23834 0.90668 0.08009 0.0
C1724 C 0.28841 0.95364 0.04899 0.0
C1725 C 0.30781 0.9476 0.00713 0.0
N1726 N 0.2522 0.92141 0.06556 0.0
N1727 N 0.29032 0.93312 0.0152 0.0
H1728 H 0.3532 0.03415 0.95436 0.0
H1729 H 0.3562 0.13629 0.95922 0.0
H1730 H 0.38556 0.07645 0.0171 0.0
H1731 H 0.35688 0.10772 0.88465 0.0
H1732 H 0.35914 0.11116 0.98498 0.0
H1733 H 0.34543 0.05754 0.93302 0.0
C1734 C 0.35842 0.04823 0.96386 0.0
C1735 C 0.37023 0.05346 0.98732 0.0
C1736 C 0.35835 0.11042 0.96295 0.0
C1737 C 0.36123 0.0801 0.96326 0.0
C1738 C 0.35678 0.12478 0.94821 0.0
C1739 C 0.35593 0.12413 0.91957 0.0
C1740 C 0.35872 0.09516 0.94896 0.0
C1741 C 0.35669 0.10867 0.90659 0.0
C1742 C 0.35405 0.06157 0.95164 0.0
C1743 C 0.37662 0.07194 -0.00122 0.0
N1744 N 0.35791 0.09483 0.92133 0.0
N1745 N 0.37206 0.08463 0.98661 0.0
H1746 H 0.97254 0.30671 0.96752 0.0
H1747 H 0.86279 0.24057 0.95818 0.0
H1748 H 0.93735 0.31832 0.02173 0.0
H1749 H 0.90026 0.21583 0.95486 0.0
H1750 H 0.88864 0.26915 0.98175 0.0
H1751 H 0.94572 0.27358 0.96092 0.0
C1752 C 0.95922 0.3022 0.97821 0.0
C1753 C 0.9571 0.31521 0.99514 0.0
C1754 C 0.89094 0.25714 0.97677 0.0
C1755 C 0.92633 0.27759 0.98731 0.0
C1756 C 0.87614 0.24077 0.96365 0.0
C1757 C 0.87936 0.22576 0.95506 0.0
C1758 C 0.90921 0.2587 0.98028 0.0
C1759 C 0.89715 0.22698 0.96166 0.0
C1760 C 0.94399 0.2833 0.9746 0.0
C1761 C 0.93954 0.30866 0.00858 0.0
N1762 N 0.91162 0.24342 0.97319 0.0
N1763 N 0.92465 0.29039 0.00393 0.0
H1764 H 0.69279 0.65618 0.99122 0.0
H1765 H 0.76257 0.61421 0.95501 0.0
H1766 H 0.68364 0.60033 0.01791 0.0
H1767 H 0.77675 0.67337 0.93973 0.0
H1768 H 0.73498 0.60977 0.98145 0.0
H1769 H 0.72434 0.6634 0.97412 0.0
C1770 C 0.69737 0.64544 0.99352 0.0
C1771 C 0.68538 0.62754 0.00584 0.0
C1772 C 0.74429 0.62382 0.97267 0.0
C1773 C 0.72156 0.63576 0.9864 0.0
C1774 C 0.7602 0.62643 0.95782 0.0
C1775 C 0.77188 0.64412 0.94486 0.0
C1776 C 0.73991 0.63896 0.97439 0.0
C1777 C 0.76791 0.65937 0.94897 0.0
C1778 C 0.71545 0.64962 0.98389 0.0
C1779 C 0.69224 0.61428 0.00843 0.0
N1780 N 0.75211 0.65635 0.96299 0.0
N1781 N 0.70976 0.6186 -0.00135 0.0
H1782 H 0.9842 0.67443 0.94955 0.0
H1783 H 0.87328 0.63165 0.95775 0.0
H1784 H 0.95238 0.63777 0.01628 0.0
H1785 H 0.90948 0.68583 0.91756 0.0
H1786 H 0.90163 0.63511 0.98281 0.0
H1787 H 0.95724 0.68018 0.93953 0.0
C1788 C 0.97163 0.66781 0.96232 0.0
C1789 C 0.97042 0.65547 0.98358 0.0
C1790 C 0.90329 0.6465 0.96902 0.0
C1791 C 0.93939 0.66169 0.97201 0.0
C1792 C 0.88705 0.64461 0.95486 0.0
C1793 C 0.88908 0.65826 0.93506 0.0
C1794 C 0.92164 0.66196 0.96298 0.0
C1795 C 0.90736 0.6747 0.93211 0.0
C1796 C 0.95628 0.67116 0.9567 0.0
C1797 C 0.95386 0.64735 -0.00037 0.0
N1798 N 0.92302 0.67584 0.94535 0.0
N1799 N 0.93879 0.65027 0.99316 0.0
H1800 H 0.34439 0.32047 0.96843 0.0
H1801 H 0.37866 0.24206 0.95736 0.0
H1802 H 0.38872 0.31976 0.01962 0.0
H1803 H 0.33023 0.23826 0.91133 0.0
H1804 H 0.3786 0.26717 0.98586 0.0
H1805 H 0.33577 0.28803 0.95162 0.0
C1806 C 0.3522 0.31348 0.97632 0.0
C1807 C 0.36756 0.3231 0.99509 0.0
C1808 C 0.36772 0.26061 0.96986 0.0
C1809 C 0.35774 0.28594 0.97604 0.0
C1810 C 0.36759 0.24603 0.95378 0.0
C1811 C 0.35468 0.23829 0.93155 0.0
C1812 C 0.355 0.26766 0.9635 0.0
C1813 C 0.34076 0.24418 0.92786 0.0
C1814 C 0.34724 0.29492 0.96677 0.0
C1815 C 0.37703 0.31317 0.00476 0.0
N1816 N 0.34156 0.25882 0.94323 0.0
N1817 N 0.3721 0.29531 0.99494 0.0
H1818 H 0.68442 0.05695 0.02288 0.0
H1819 H 0.78502 0.09727 0.948 0.0
H1820 H 0.69506 0.02475 0.96139 0.0
H1821 H 0.75971 0.13344 0.96282 0.0
H1822 H 0.75731 0.07011 0.96962 0.0
H1823 H 0.71704 0.08443 0.01621 0.0
C1824 C 0.69377 0.05551 0.00841 0.0
C1825 C 0.68704 0.03863 0.9925 0.0
C1826 C 0.75819 0.08419 0.96898 0.0
C1827 C 0.72429 0.0697 0.98533 0.0
C1828 C 0.77409 0.09973 0.95707 0.0
C1829 C 0.77469 0.11762 0.954 0.0
C1830 C 0.74296 0.08667 0.97818 0.0
C1831 C 0.75985 0.11992 0.96522 0.0
C1832 C 0.71229 0.07119 0.0046 0.0
C1833 C 0.69966 0.03757 0.9739 0.0
N1834 N 0.74445 0.10454 0.97667 0.0
N1835 N 0.7177 0.0529 0.97083 0.0
H1836 H 0.60597 0.92103 -0.00319 0.0
H1837 H 0.69081 0.90424 0.05569 0.0
H1838 H 0.6628 0.96775 0.01851 0.0
H1839 H 0.63063 0.86104 0.05708 0.0
H1840 H 0.68233 0.92599 0.03084 0.0
H1841 H 0.61634 0.89775 0.00906 0.0
C1842 C 0.62067 0.92646 0.00411 0.0
C1843 C 0.63347 0.94649 0.00689 0.0
C1844 C 0.67103 0.91155 0.03588 0.0
C1845 C 0.64547 0.91965 0.02069 0.0
C1846 C 0.6759 0.89902 0.04956 0.0
C1847 C 0.66139 0.88076 0.05796 0.0
C1848 C 0.65152 0.9057 0.03061 0.0
C1849 C 0.64222 0.87489 0.05047 0.0
C1850 C 0.62657 0.91309 0.01104 0.0
C1851 C 0.65236 0.95249 0.01634 0.0
N1852 N 0.6378 0.8874 0.03745 0.0
N1853 N 0.65778 0.93913 0.02296 0.0
H1854 H 0.08491 0.69173 0.98978 0.0
H1855 H 0.10381 0.78017 0.08709 0.0
H1856 H 0.0394 0.69494 0.03206 0.0
H1857 H 0.14823 0.76876 0.05825 0.0
H1858 H 0.07999 0.753 0.0593 0.0
H1859 H 0.10791 0.72369 0.00725 0.0
C1860 C 0.07968 0.69914 0.00272 0.0
C1861 C 0.06015 0.69038 0.00984 0.0
C1862 C 0.09501 0.75669 0.05876 0.0
C1863 C 0.08666 0.72728 0.02989 0.0
C1864 C 0.10863 0.7722 0.07458 0.0
C1865 C 0.12806 0.77663 0.0754 0.0
C1866 C 0.10088 0.74563 0.04349 0.0
C1867 C 0.1335 0.76604 0.05829 0.0
C1868 C 0.09289 0.71748 0.01263 0.0
C1869 C 0.05432 0.70099 0.02628 0.0
N1870 N 0.11996 0.75091 0.04334 0.0
N1871 N 0.06756 0.71883 0.03597 0.0
H1872 H 0.30825 0.33799 0.0426 0.0
H1873 H 0.23943 0.37953 0.05092 0.0
H1874 H 0.31654 0.38364 0.98722 0.0
H1875 H 0.21729 0.31799 0.05742 0.0
H1876 H 0.26751 0.38238 0.02683 0.0
H1877 H 0.27501 0.33102 0.04943 0.0
C1878 C 0.30297 0.3464 0.03166 0.0
C1879 C 0.31511 0.36142 0.01437 0.0
C1880 C 0.25615 0.36816 0.03264 0.0
C1881 C 0.27731 0.35381 0.0225 0.0
C1882 C 0.24006 0.36652 0.04608 0.0
C1883 C 0.22594 0.34847 0.05576 0.0
C1884 C 0.25839 0.35174 0.02984 0.0
C1885 C 0.22772 0.33211 0.04984 0.0
C1886 C 0.284 0.34234 0.03542 0.0
C1887 C 0.30757 0.37188 0.00066 0.0
N1888 N 0.24393 0.33419 0.03795 0.0
N1889 N 0.28925 0.36817 0.00546 0.0
H1890 H 0.69336 0.67164 0.37059 0.0
H1891 H 0.8028 0.69397 0.38703 0.0
H1892 H 0.74203 0.72117 0.33521 0.0
H1893 H 0.7542 0.64457 0.42214 0.0
H1894 H 0.78035 0.70189 0.36267 0.0
H1895 H 0.71502 0.65965 0.38569 0.0
C1896 C 0.70856 0.68 0.36598 0.0
C1897 C 0.71583 0.69757 0.35185 0.0
C1898 C 0.77457 0.68911 0.37532 0.0
C1899 C 0.74075 0.68384 0.36891 0.0
C1900 C 0.78739 0.6845 0.38893 0.0
C1901 C 0.78027 0.66866 0.40656 0.0
C1902 C 0.75458 0.67781 0.37958 0.0
C1903 C 0.76019 0.65696 0.40872 0.0
C1904 C 0.72093 0.67311 0.37451 0.0
C1905 C 0.7357 0.70765 0.34627 0.0
N1906 N 0.74806 0.66189 0.39568 0.0
N1907 N 0.74742 0.70071 0.35492 0.0
H1908 H 0.29826 0.01495 0.32368 0.0
H1909 H 0.35891 0.11861 0.39496 0.0
H1910 H 0.3396 0.02714 0.38912 0.0
H1911 H 0.29832 0.09412 0.37578 0.0
H1912 H 0.35813 0.08982 0.37522 0.0
H1913 H 0.30427 0.04843 0.32693 0.0
C1914 C 0.30887 0.02478 0.33836 0.0
C1915 C 0.31835 0.01829 0.35635 0.0
C1916 C 0.34521 0.09113 0.3744 0.0
C1917 C 0.32557 0.0565 0.35957 0.0
C1918 C 0.34571 0.10764 0.38521 0.0
C1919 C 0.32868 0.10873 0.38673 0.0
C1920 C 0.32763 0.07579 0.36472 0.0
C1921 C 0.31177 0.09386 0.37463 0.0
C1922 C 0.31224 0.0438 0.34017 0.0
C1923 C 0.33188 0.03156 0.37506 0.0
N1924 N 0.31159 0.07783 0.36437 0.0
N1925 N 0.3351 0.05007 0.37619 0.0
H1926 H 0.98556 0.27915 0.32815 0.0
H1927 H 0.89829 0.24506 0.43139 0.0
H1928 H 0.98377 0.31451 0.39344 0.0
H1929 H 0.91221 0.20503 0.39191 0.0
H1930 H 0.92388 0.27166 0.40615 0.0
H1931 H 0.95344 0.25315 0.34091 0.0
C1932 C 0.97825 0.28159 0.3448 0.0
C1933 C 0.98739 0.29894 0.35994 0.0
C1934 C 0.92107 0.257 0.40262 0.0
C1935 C 0.95071 0.26942 0.37437 0.0
C1936 C 0.90643 0.2418 0.41692 0.0
C1937 C 0.90335 0.22283 0.41418 0.0
C1938 C 0.93265 0.25324 0.38523 0.0
C1939 C 0.91411 0.21942 0.39474 0.0
C1940 C 0.95999 0.26673 0.35211 0.0
C1941 C 0.97732 0.3013 0.3814 0.0
N1942 N 0.92851 0.23454 0.3813 0.0
N1943 N 0.95956 0.28669 0.38802 0.0
H1944 H 0.01523 0.36744 0.31145 0.0
H1945 H 0.05185 0.47982 0.28985 0.0
H1946 H 0.06685 0.41369 0.34909 0.0
H1947 H 0.99662 0.43475 0.25956 0.0
H1948 H 0.0554 0.45573 0.31636 0.0
H1949 H 0.00647 0.39151 0.29556 0.0
C1950 C 0.02468 0.38258 0.31648 0.0
C1951 C 0.04196 0.3885 0.33131 0.0
C1952 C 0.04234 0.4511 0.30426 0.0
C1953 C 0.03196 0.4161 0.31334 0.0
C1954 C 0.04018 0.46496 0.28934 0.0
C1955 C 0.02403 0.45931 0.27208 0.0
C1956 C 0.02836 0.4314 0.30172 0.0
C1957 C 0.00953 0.4397 0.27212 0.0
C1958 C 0.01963 0.39632 0.3075 0.0
C1959 C 0.05352 0.40836 0.33741 0.0
N1960 N 0.01219 0.4264 0.28626 0.0
N1961 N 0.04839 0.42138 0.32825 0.0
H1962 H 0.64061 0.63898 0.29956 0.0
H1963 H 0.53067 0.5724 0.29546 0.0
H1964 H 0.60657 0.65054 0.35605 0.0
H1965 H 0.56823 0.54795 0.2889 0.0
H1966 H 0.55705 0.60114 0.31799 0.0
H1967 H 0.61371 0.60582 0.29363 0.0
C1968 C 0.62753 0.63446 0.31087 0.0
C1969 C 0.62576 0.64747 0.32826 0.0
C1970 C 0.55928 0.58916 0.31252 0.0
C1971 C 0.5949 0.60979 0.32123 0.0
C1972 C 0.54418 0.5727 0.30001 0.0
C1973 C 0.54725 0.55771 0.29081 0.0
C1974 C 0.57767 0.59084 0.31481 0.0
C1975 C 0.56525 0.55907 0.29621 0.0
C1976 C 0.61226 0.61554 0.30764 0.0
C1977 C 0.60851 0.64089 0.34251 0.0
N1978 N 0.57997 0.5756 0.30716 0.0
N1979 N 0.59356 0.62261 0.33827 0.0
H1980 H 0.35481 0.93652 0.36117 0.0
H1981 H 0.4449 0.00913 0.27262 0.0
H1982 H 0.3617 0.9899 0.32735 0.0
H1983 H 0.43106 0.95047 0.29106 0.0
H1984 H 0.41855 0.00529 0.30153 0.0
H1985 H 0.38629 0.94433 0.34382 0.0
C1986 C 0.36295 0.94996 0.35024 0.0
C1987 C 0.35537 0.96244 0.34542 0.0
C1988 C 0.42149 0.99337 0.29962 0.0
C1989 C 0.39165 0.97149 0.3256 0.0
C1990 C 0.43657 0.99557 0.28323 0.0
C1991 C 0.44001 0.97999 0.27909 0.0
C1992 C 0.40976 0.97547 0.31205 0.0
C1993 C 0.42896 0.96287 0.29365 0.0
C1994 C 0.38098 0.9544 0.34037 0.0
C1995 C 0.3668 0.97972 0.33133 0.0
N1996 N 0.41414 0.96097 0.30918 0.0
N1997 N 0.3843 0.98367 0.32177 0.0
H1998 H 0.6171 0.97124 0.34814 0.0
H1999 H 0.57451 0.02044 0.24691 0.0
H2000 H 0.64797 0.00782 0.28081 0.0
H2001 H 0.539 0.96619 0.28736 0.0
H2002 H 0.60275 0.0235 0.27189 0.0
H2003 H 0.58989 0.97667 0.33752 0.0
C2004 C 0.61832 0.98073 0.33148 0.0
C2005 C 0.63469 0.98891 0.31508 0.0
C2006 C 0.58869 0.01117 0.27574 0.0
C2007 C 0.60383 0.99533 0.30315 0.0
C2008 C 0.57257 0.00943 0.26159 0.0
C2009 C 0.55444 0.99279 0.26455 0.0
C2010 C 0.58665 0.99628 0.2932 0.0
C2011 C 0.55269 0.97919 0.28429 0.0
C2012 C 0.60278 0.98377 0.32543 0.0
C2013 C 0.63551 1.00106 0.29374 0.0
N2014 N 0.56868 0.98105 0.29754 0.0
N2015 N 0.62024 0.00382 0.2883 0.0
H2016 H 0.06538 0.66008 0.35053 0.0
H2017 H 0.99662 0.57015 0.25455 0.0
H2018 H 0.01656 0.65635 0.30539 0.0
H2019 H 0.0512 0.5802 0.28838 0.0
H2020 H 1.00002 0.59812 0.28028 0.0
H2021 H 0.05689 0.62784 0.3345 0.0
C2022 C 0.05282 0.65251 0.33724 0.0
C2023 C 0.04184 0.6612 0.329 0.0
C2024 C 0.01109 0.594 0.28241 0.0
C2025 C 0.03197 0.62389 0.31063 0.0
C2026 C 0.00912 0.57798 0.26785 0.0
C2027 C 0.02379 0.57295 0.26897 0.0
C2028 C 0.0278 0.60504 0.29836 0.0
C2029 C 0.03951 0.58345 0.28687 0.0
C2030 C 0.04796 0.634 0.32816 0.0
C2031 C 0.02557 0.65038 0.31207 0.0
N2032 N 0.04121 0.59913 0.30054 0.0
N2033 N 0.02121 0.63234 0.30329 0.0
H2034 H 0.3504 0.38978 0.35797 0.0
H2035 H 0.45132 0.42911 0.28443 0.0
H2036 H 0.3609 0.35739 0.29665 0.0
H2037 H 0.42606 0.46563 0.29652 0.0
H2038 H 0.42342 0.40233 0.3063 0.0
H2039 H 0.38317 0.41713 0.35141 0.0
C2040 C 0.35976 0.38827 0.3436 0.0
C2041 C 0.35297 0.37139 0.32768 0.0
C2042 C 0.42435 0.41642 0.30502 0.0
C2043 C 0.39034 0.40226 0.32067 0.0
C2044 C 0.44035 0.43174 0.29295 0.0
C2045 C 0.44103 0.4496 0.28905 0.0
C2046 C 0.40909 0.4191 0.31354 0.0
C2047 C 0.42614 0.45213 0.29958 0.0
C2048 C 0.37835 0.40387 0.33984 0.0
C2049 C 0.36557 0.37022 0.30917 0.0
N2050 N 0.41063 0.43696 0.3112 0.0
N2051 N 0.38368 0.38545 0.30618 0.0
H2052 H 0.32785 0.29952 0.34849 0.0
H2053 H 0.28996 0.19068 0.39078 0.0
H2054 H 0.27005 0.25382 0.32896 0.0
H2055 H 0.3505 0.23212 0.38562 0.0
H2056 H 0.28243 0.21275 0.3651 0.0
H2057 H 0.33668 0.27489 0.36085 0.0
C2058 C 0.31702 0.28435 0.34677 0.0
C2059 C 0.29812 0.27879 0.33791 0.0
C2060 C 0.2974 0.21681 0.36882 0.0
C2061 C 0.30816 0.25052 0.35193 0.0
C2062 C 0.30167 0.20409 0.38312 0.0
C2063 C 0.32086 0.20952 0.38981 0.0
C2064 C 0.31243 0.2353 0.36193 0.0
C2065 C 0.33555 0.22732 0.38033 0.0
C2066 C 0.32212 0.27028 0.3536 0.0
C2067 C 0.28478 0.25885 0.3358 0.0
N2068 N 0.33103 0.23978 0.36735 0.0
N2069 N 0.28999 0.24549 0.34302 0.0
H2070 H 0.70339 0.02992 0.36148 0.0
H2071 H 0.81438 0.10474 0.38737 0.0
H2072 H 0.74989 0.02697 0.32172 0.0
H2073 H 0.7689 0.11421 0.41705 0.0
H2074 H 0.79086 0.07855 0.35862 0.0
H2075 H 0.72671 0.0623 0.37864 0.0
C2076 C 0.71843 0.03608 0.3562 0.0
C2077 C 0.72469 0.02549 0.34051 0.0
C2078 C 0.78602 0.08653 0.37107 0.0
C2079 C 0.7514 0.06255 0.35997 0.0
C2080 C 0.79955 0.10172 0.38733 0.0
C2081 C 0.79362 0.11156 0.40508 0.0
C2082 C 0.76634 0.0809 0.37281 0.0
C2083 C 0.77406 0.10669 0.40421 0.0
C2084 C 0.73172 0.05461 0.36591 0.0
C2085 C 0.74436 0.03436 0.33411 0.0
N2086 N 0.76106 0.09146 0.3888 0.0
N2087 N 0.75698 0.05222 0.34406 0.0
H2088 H 0.97943 0.6729 0.37514 0.0
H2089 H 0.90982 0.71355 0.38454 0.0
H2090 H 0.98741 0.71893 0.32071 0.0
H2091 H 0.88808 0.65202 0.38995 0.0
H2092 H 0.93818 0.71687 0.36069 0.0
H2093 H 0.94608 0.66555 0.38204 0.0
C2094 C 0.97405 0.68129 0.36439 0.0
C2095 C 0.98614 0.69653 0.34737 0.0
C2096 C 0.92686 0.70256 0.36625 0.0
C2097 C 0.94822 0.68852 0.35563 0.0
C2098 C 0.91063 0.70066 0.37958 0.0
C2099 C 0.89651 0.68246 0.38881 0.0
C2100 C 0.92925 0.68625 0.36311 0.0
C2101 C 0.89851 0.66625 0.38272 0.0
C2102 C 0.95502 0.67704 0.36821 0.0
C2103 C 0.97848 0.70699 0.33392 0.0
N2104 N 0.91484 0.66858 0.37091 0.0
N2105 N 0.96011 0.70308 0.33879 0.0
H2106 H 0.40751 0.07157 0.68339 0.0
H2107 H 0.43275 0.99016 0.73251 0.0
H2108 H 0.36382 0.01177 0.6939 0.0
H2109 H 0.46974 0.05122 0.74769 0.0
H2110 H 0.40915 0.9973 0.70985 0.0
H2111 H 0.43195 0.06375 0.69954 0.0
C2112 C 0.40301 0.05675 0.68913 0.0
C2113 C 0.38349 0.04231 0.68739 0.0
C2114 C 0.42259 0.00914 0.71771 0.0
C2115 C 0.41166 0.03324 0.70566 0.0
C2116 C 0.43614 0.00511 0.73022 0.0
C2117 C 0.45326 0.02018 0.74154 0.0
C2118 C 0.42632 0.0284 0.71642 0.0
C2119 C 0.4568 0.03926 0.73884 0.0
C2120 C 0.41703 0.05232 0.69834 0.0
C2121 C 0.37864 0.02339 0.69516 0.0
N2122 N 0.44343 0.04283 0.72661 0.0
N2123 N 0.39265 0.01938 0.70387 0.0
H2124 H 0.96981 0.35171 0.66101 0.0
H2125 H 0.03294 0.45371 0.73566 0.0
H2126 H 0.01043 0.36113 0.72646 0.0
H2127 H 0.97304 0.43201 0.71438 0.0
H2128 H 0.03098 0.42434 0.71603 0.0
H2129 H 0.97694 0.38545 0.66584 0.0
C2130 C 0.98049 0.36098 0.67606 0.0
C2131 C 0.98946 0.35362 0.69354 0.0
C2132 C 0.01848 0.42636 0.71479 0.0
C2133 C 0.99791 0.39215 0.69861 0.0
C2134 C 0.01967 0.44321 0.72553 0.0
C2135 C 1.00318 0.4453 0.72624 0.0
C2136 C 1.00075 0.41168 0.70442 0.0
C2137 C 0.98611 0.431 0.71376 0.0
C2138 C 0.98449 0.38015 0.67877 0.0
C2139 C 1.00309 0.36621 0.71275 0.0
N2140 N 0.98526 0.41464 0.70354 0.0
N2141 N 0.00692 0.3849 0.71478 0.0
H2142 H 0.64895 0.6206 0.66028 0.0
H2143 H 0.5994 0.56341 0.79299 0.0
H2144 H 0.66267 0.64605 0.74084 0.0
H2145 H 0.56336 0.55202 0.72112 0.0
H2146 H 0.62572 0.59038 0.77006 0.0
H2147 H 0.61946 0.59294 0.67828 0.0
C2148 C 0.64563 0.62055 0.68158 0.0
C2149 C 0.65841 0.6356 0.69915 0.0
C2150 C 0.61207 0.58204 0.75923 0.0
C2151 C 0.62518 0.604 0.7197 0.0
C2152 C 0.59702 0.56661 0.77228 0.0
C2153 C 0.57895 0.55578 0.75923 0.0
C2154 C 0.60936 0.58666 0.73259 0.0
C2155 C 0.577 0.56017 0.732 0.0
C2156 C 0.62885 0.60478 0.69176 0.0
C2157 C 0.65339 0.63478 0.72653 0.0
N2158 N 0.59207 0.57542 0.71949 0.0
N2159 N 0.63739 0.61914 0.73599 0.0
H2160 H 0.73732 0.75036 0.67558 0.0
H2161 H 0.66151 0.76868 0.59061 0.0
H2162 H 0.68389 0.70402 0.64221 0.0
H2163 H 0.71752 0.81382 0.61817 0.0
H2164 H 0.66657 0.74502 0.61637 0.0
H2165 H 0.72766 0.77364 0.6609 0.0
C2166 C 0.72352 0.74501 0.66512 0.0
C2167 C 0.71155 0.72511 0.65977 0.0
C2168 C 0.67759 0.76015 0.61719 0.0
C2169 C 0.70032 0.752 0.64293 0.0
C2170 C 0.67468 0.77369 0.6026 0.0
C2171 C 0.68924 0.79325 0.60189 0.0
C2172 C 0.69518 0.76622 0.6312 0.0
C2173 C 0.70588 0.79895 0.61811 0.0
C2174 C 0.71797 0.75839 0.65684 0.0
C2175 C 0.69369 0.71919 0.64654 0.0
N2176 N 0.70851 0.78546 0.63173 0.0
N2177 N 0.68869 0.7326 0.63835 0.0
H2178 H 0.27287 0.98771 0.69328 0.0
H2179 H 0.23654 0.88411 0.62419 0.0
H2180 H 0.30726 0.97508 0.63889 0.0
H2181 H 0.19955 0.90924 0.63066 0.0
H2182 H 0.2625 0.91266 0.64746 0.0
H2183 H 0.24614 0.95439 0.68677 0.0
C2184 C 0.27495 0.97779 0.68048 0.0
C2185 C 0.29222 0.98414 0.66642 0.0
C2186 C 0.24847 0.91157 0.64467 0.0
C2187 C 0.26199 0.94612 0.65946 0.0
C2188 C 0.23359 0.89519 0.63182 0.0
C2189 C 0.21587 0.89429 0.62585 0.0
C2190 C 0.24547 0.92699 0.65187 0.0
C2191 C 0.21294 0.90932 0.6353 0.0
C2192 C 0.2597 0.95887 0.67675 0.0
C2193 C 0.29412 0.97078 0.64992 0.0
N2194 N 0.22769 0.92521 0.64765 0.0
N2195 N 0.27917 0.95238 0.64687 0.0
H2196 H 0.02252 0.26981 0.69306 0.0
H2197 H 0.11411 0.34127 0.60607 0.0
H2198 H 0.02998 0.32301 0.65773 0.0
H2199 H 0.09968 0.28276 0.62671 0.0
H2200 H 0.08709 0.33776 0.6332 0.0
H2201 H 0.05401 0.27723 0.67646 0.0
C2202 C 0.03077 0.28311 0.68188 0.0
C2203 C 0.02335 0.29567 0.6765 0.0
C2204 C 0.09003 0.3258 0.63214 0.0
C2205 C 0.05973 0.30428 0.65752 0.0
C2206 C 0.10549 0.32781 0.61677 0.0
C2207 C 0.109 0.31218 0.61378 0.0
C2208 C 0.07802 0.30806 0.64474 0.0
C2209 C 0.09757 0.29521 0.62844 0.0
C2210 C 0.04883 0.28734 0.67245 0.0
C2211 C 0.03496 0.31279 0.66216 0.0
N2212 N 0.08243 0.29351 0.64298 0.0
N2213 N 0.05252 0.31653 0.65302 0.0
H2214 H 0.2893 0.30616 0.68409 0.0
H2215 H 0.24284 0.35329 0.58605 0.0
H2216 H 0.31719 0.34177 0.61458 0.0
H2217 H 0.209 0.29965 0.62868 0.0
H2218 H 0.27179 0.35743 0.61019 0.0
H2219 H 0.2617 0.31149 0.67612 0.0
C2220 C 0.28979 0.31542 0.66751 0.0
C2221 C 0.3054 0.32334 0.64971 0.0
C2222 C 0.25794 0.34504 0.61482 0.0
C2223 C 0.27416 0.3297 0.64086 0.0
C2224 C 0.2414 0.34274 0.60124 0.0
C2225 C 0.22358 0.32588 0.60493 0.0
C2226 C 0.2566 0.33045 0.63237 0.0
C2227 C 0.22247 0.31279 0.62508 0.0
C2228 C 0.27405 0.31842 0.663 0.0
C2229 C 0.30531 0.3352 0.62855 0.0
N2230 N 0.23887 0.31513 0.63766 0.0
N2231 N 0.28989 0.33794 0.62463 0.0
H2232 H 0.72678 0.99161 0.68179 0.0
H2233 H 0.65919 0.90227 0.58419 0.0
H2234 H 0.6786 0.9883 0.63541 0.0
H2235 H 0.71377 0.91264 0.61849 0.0
H2236 H 0.66219 0.92999 0.61019 0.0
H2237 H 0.71844 0.95947 0.66556 0.0
C2238 C 0.71439 0.98416 0.66819 0.0
C2239 C 0.70357 0.99295 0.65964 0.0
C2240 C 0.67333 0.92598 0.61236 0.0
C2241 C 0.69386 0.95573 0.64102 0.0
C2242 C 0.67161 0.91011 0.59763 0.0
C2243 C 0.68641 0.90526 0.59879 0.0
C2244 C 0.68991 0.93702 0.62854 0.0
C2245 C 0.70198 0.91574 0.61692 0.0
C2246 C 0.70961 0.96569 0.65899 0.0
C2247 C 0.68749 0.98225 0.64234 0.0
N2248 N 0.70344 0.93126 0.63076 0.0
N2249 N 0.68321 0.96425 0.63343 0.0
H2250 H 0.01994 0.7272 0.69229 0.0
H2251 H 0.12101 0.76647 0.619 0.0
H2252 H 0.03089 0.69443 0.63209 0.0
H2253 H 0.09586 0.80299 0.63202 0.0
H2254 H 0.09315 0.73961 0.64083 0.0
H2255 H 0.0527 0.75454 0.68582 0.0
C2256 C 0.02939 0.72561 0.67816 0.0
C2257 C 0.02272 0.70861 0.66254 0.0
C2258 C 0.09409 0.75371 0.63977 0.0
C2259 C 0.0601 0.7395 0.65561 0.0
C2260 C 0.11008 0.76908 0.62773 0.0
C2261 C 0.11077 0.78697 0.62408 0.0
C2262 C 0.07886 0.75637 0.64849 0.0
C2263 C 0.09594 0.78947 0.63488 0.0
C2264 C 0.04798 0.7412 0.67446 0.0
C2265 C 0.03545 0.70735 0.64437 0.0
N2266 N 0.08045 0.77425 0.64643 0.0
N2267 N 0.05355 0.72259 0.64141 0.0
H2268 H 0.99827 0.63802 0.68827 0.0
H2269 H 0.96366 0.52809 0.72273 0.0
H2270 H 0.94194 0.5911 0.66497 0.0
H2271 H 0.02354 0.57219 0.72458 0.0
H2272 H 0.95572 0.55037 0.69842 0.0
H2273 H 0.00814 0.6141 0.70044 0.0
C2274 C 0.98797 0.62274 0.68573 0.0
C2275 C 0.96918 0.61662 0.67579 0.0
C2276 C 0.97069 0.55504 0.7034 0.0
C2277 C 0.98043 0.58918 0.68951 0.0
C2278 C 0.97521 0.54219 0.71688 0.0
C2279 C 0.99429 0.54825 0.7251 0.0
C2280 C 0.98531 0.57422 0.69886 0.0
C2281 C 0.00871 0.56692 0.71801 0.0
C2282 C 0.99367 0.60909 0.69245 0.0
C2283 C 0.95655 0.59658 0.67266 0.0
N2284 N 1.00389 0.5794 0.70575 0.0
N2285 N 0.96235 0.58363 0.67969 0.0
H2286 H 0.42146 0.36318 0.64746 0.0
H2287 H 0.43789 0.4485 0.74909 0.0
H2288 H 0.37536 0.36614 0.68841 0.0
H2289 H 0.48347 0.43951 0.71878 0.0
H2290 H 0.41503 0.42311 0.71812 0.0
H2291 H 0.44418 0.3953 0.66516 0.0
C2292 C 0.41604 0.37059 0.66006 0.0
C2293 C 0.39645 0.3617 0.66687 0.0
C2294 C 0.43011 0.42697 0.71787 0.0
C2295 C 0.42256 0.39868 0.68714 0.0
C2296 C 0.44318 0.44151 0.73546 0.0
C2297 C 0.46257 0.44589 0.73692 0.0
C2298 C 0.43649 0.41677 0.7016 0.0
C2299 C 0.46869 0.43663 0.71844 0.0
C2300 C 0.42907 0.389 0.67008 0.0
C2301 C 0.39034 0.37226 0.6829 0.0
N2302 N 0.45563 0.42228 0.70189 0.0
N2303 N 0.40339 0.39011 0.69273 0.0
H2304 H 0.64167 0.00517 0.70726 0.0
H2305 H 0.57175 0.04552 0.71656 0.0
H2306 H 0.64925 0.05081 0.65234 0.0
H2307 H 0.55047 0.98414 0.72308 0.0
H2308 H 0.59999 0.04881 0.69237 0.0
H2309 H 0.60835 0.99781 0.71446 0.0
C2310 C 0.63622 0.01348 0.69648 0.0
C2311 C 0.64818 0.02861 0.67921 0.0
C2312 C 0.58878 0.03452 0.6982 0.0
C2313 C 0.61029 0.02058 0.68779 0.0
C2314 C 0.57259 0.03263 0.71169 0.0
C2315 C 0.55866 0.01448 0.72132 0.0
C2316 C 0.5913 0.01827 0.69534 0.0
C2317 C 0.56074 0.9983 0.71547 0.0
C2318 C 0.6172 0.00922 0.70047 0.0
C2319 C 0.64042 0.03896 0.66573 0.0
N2320 N 0.57702 1.00063 0.70351 0.0
N2321 N 0.62206 0.03504 0.67075 0.0
loop_
_geom_bond_atom_site_label_1
_geom_bond_atom_site_label_2
_geom_bond_distance
_geom_bond_site_symmetry_2
_ccdc_geom_bond_type
Mn0 O5 2.095 1_655 S
Mn0 O15 2.162 . S
Mn0 O16 2.297 1_554 S
Mn0 O24 2.385 1_554 S
Mn0 O25 2.209 1_654 S
Mn0 O26 2.094 . S
Mn1 O6 2.121 . S
Mn1 N8 2.257 1_554 S
Mn1 N17 2.282 1_554 S
Mn1 O25 2.215 1_554 S
Mn1 O27 2.117 . S
C2 O24 1.234 1_455 S
C2 O25 1.283 . S
C3 O15 1.281 1_556 S
C3 O16 1.236 . S
C4 O26 1.224 1_455 S
C4 O27 1.307 . S
O5 Mn0 2.095 1_455 S
O5 C14 1.250 . S
O6 Mn1 2.121 . S
O6 C14 1.258 . S
C7 N8 1.326 . S
C7 C11 1.460 . S
C7 H13 0.929 . S
N8 Mn1 2.257 1_556 S
N8 C7 1.326 . S
N8 C12 1.362 . S
C9 C10 1.258 . S
C9 C12 1.431 . S
C9 C29 1.449 . S
C10 C9 1.258 . S
C10 C11 1.477 . S
C10 H30 0.931 . S
C11 C7 1.460 . S
C11 C10 1.477 . S
C11 H31 0.930 . S
C12 N8 1.362 . S
C12 C9 1.431 . S
C12 C22 1.476 . S
H13 C7 0.929 . S
C14 O5 1.250 . S
C14 O6 1.258 . S
O15 Mn0 2.162 . S
O15 C3 1.281 1_554 S
O16 Mn0 2.297 1_556 S
O16 C3 1.236 . S
N17 Mn1 2.282 1_556 S
N17 C18 1.328 1_556 S
N17 C22 1.318 . S
C18 N17 1.328 1_554 S
C18 C19 1.457 1_554 S
C18 H23 0.929 . S
C19 C18 1.457 1_556 S
C19 C20 1.291 . S
C19 H32 0.931 . S
C20 C19 1.291 . S
C20 C21 1.373 . S
C20 H33 0.929 . S
C21 C20 1.373 . S
C21 C22 1.396 . S
C21 C28 1.403 . S
C22 C12 1.476 . S
C22 N17 1.318 . S
C22 C21 1.396 . S
H23 C18 0.929 . S
O24 Mn0 2.385 1_556 S
O24 C2 1.234 1_655 S
O25 Mn0 2.209 1_456 S
O25 Mn1 2.215 1_556 S
O25 C2 1.283 . S
O26 Mn0 2.094 . S
O26 C4 1.224 1_655 S
O27 Mn1 2.117 . S
O27 C4 1.307 . S
C28 C21 1.403 . S
C28 C29 1.399 . S
C28 H34 0.929 . S
C29 C9 1.449 . S
C29 C28 1.399 . S
C29 H35 0.930 . S
H30 C10 0.931 . S
H31 C11 0.930 . S
H32 C19 0.931 . S
H33 C20 0.929 . S
H34 C28 0.929 . S
H35 C29 0.930 . S
Mn36 O41 2.095 1_554 S
Mn36 O51 2.162 . S
Mn36 O52 2.297 . S
Mn36 O60 2.385 . S
Mn36 O61 2.209 . S
Mn36 O62 2.094 1_554 S
Mn37 O42 2.129 . S
Mn37 N44 2.228 1_556 S
Mn37 N53 2.266 1_556 S
Mn37 O61 2.185 1_556 S
Mn37 O63 2.145 . S
C38 O60 1.234 . S
C38 O61 1.283 . S
C39 O51 1.281 . S
C39 O52 1.236 . S
C40 O62 1.240 . S
C40 O63 1.264 . S
O41 Mn36 2.095 1_556 S
O41 C50 1.250 . S
O42 Mn37 2.129 . S
O42 C50 1.258 . S
C43 N44 1.326 . S
C43 C47 1.460 . S
C43 H49 0.929 . S
N44 Mn37 2.228 1_554 S
N44 C43 1.326 . S
N44 C48 1.362 . S
C45 C46 1.258 . S
C45 C48 1.431 . S
C45 C65 1.449 . S
C46 C45 1.258 . S
C46 C47 1.477 . S
C46 H66 0.931 . S
C47 C43 1.460 . S
C47 C46 1.477 . S
C47 H67 0.930 . S
C48 N44 1.362 . S
C48 C45 1.431 . S
C48 C58 1.476 . S
H49 C43 0.929 . S
C50 O41 1.250 . S
C50 O42 1.258 . S
O51 Mn36 2.162 . S
O51 C39 1.281 . S
O52 Mn36 2.297 . S
O52 C39 1.236 . S
N53 Mn37 2.266 1_554 S
N53 C54 1.328 . S
N53 C58 1.318 . S
C54 N53 1.328 . S
C54 C55 1.457 . S
C54 H59 0.929 1_554 S
C55 C54 1.457 . S
C55 C56 1.291 . S
C55 H68 0.931 . S
C56 C55 1.291 . S
C56 C57 1.373 . S
C56 H69 0.929 . S
C57 C56 1.373 . S
C57 C58 1.396 . S
C57 C64 1.403 . S
C58 C48 1.476 . S
C58 N53 1.318 . S
C58 C57 1.396 . S
H59 C54 0.929 1_556 S
O60 Mn36 2.385 . S
O60 C38 1.234 . S
O61 Mn36 2.209 . S
O61 Mn37 2.185 1_554 S
O61 C38 1.283 . S
O62 Mn36 2.094 1_556 S
O62 C40 1.240 . S
O63 Mn37 2.145 . S
O63 C40 1.264 . S
C64 C57 1.403 . S
C64 C65 1.399 . S
C64 H70 0.929 . S
C65 C45 1.449 . S
C65 C64 1.399 . S
C65 H71 0.930 . S
H66 C46 0.931 . S
H67 C47 0.930 . S
H68 C55 0.931 . S
H69 C56 0.929 . S
H70 C64 0.929 . S
H71 C65 0.930 . S
Mn72 O77 2.095 1_564 S
Mn72 O87 2.162 . S
Mn72 O88 2.297 . S
Mn72 O96 2.385 . S
Mn72 O97 2.209 1_565 S
Mn72 O98 2.094 1_554 S
Mn73 O78 2.121 1_554 S
Mn73 N80 2.257 . S
Mn73 N89 2.282 . S
Mn73 O97 2.215 . S
Mn73 O99 2.117 1_554 S
C74 O96 1.204 1_545 S
C74 O97 1.315 . S
C75 O87 1.281 . S
C75 O88 1.236 . S
C76 O98 1.251 . S
C76 O99 1.240 1_565 S
O77 Mn72 2.095 1_546 S
O77 C86 1.250 . S
O78 Mn73 2.121 1_556 S
O78 C86 1.258 . S
C79 N80 1.326 . S
C79 C83 1.460 . S
C79 H85 0.929 . S
N80 Mn73 2.257 . S
N80 C79 1.326 . S
N80 C84 1.362 . S
C81 C82 1.258 . S
C81 C84 1.431 . S
C81 C101 1.449 . S
C82 C81 1.258 . S
C82 C83 1.477 . S
C82 H102 0.931 . S
C83 C79 1.460 . S
C83 C82 1.477 . S
C83 H103 0.930 . S
C84 N80 1.362 . S
C84 C81 1.431 . S
C84 C94 1.476 . S
H85 C79 0.929 . S
C86 O77 1.250 . S
C86 O78 1.258 . S
O87 Mn72 2.162 . S
O87 C75 1.281 . S
O88 Mn72 2.297 . S
O88 C75 1.236 . S
N89 Mn73 2.282 . S
N89 C90 1.328 . S
N89 C94 1.318 . S
C90 N89 1.328 . S
C90 C91 1.457 . S
C90 H95 0.929 . S
C91 C90 1.457 . S
C91 C92 1.291 . S
C91 H104 0.931 . S
C92 C91 1.291 . S
C92 C93 1.373 . S
C92 H105 0.929 . S
C93 C92 1.373 . S
C93 C94 1.396 . S
C93 C100 1.403 . S
C94 C84 1.476 . S
C94 N89 1.318 . S
C94 C93 1.396 . S
H95 C90 0.929 . S
O96 Mn72 2.385 . S
O96 C74 1.204 1_565 S
O97 Mn72 2.209 1_545 S
O97 Mn73 2.215 . S
O97 C74 1.315 . S
O98 Mn72 2.094 1_556 S
O98 C76 1.251 . S
O99 Mn73 2.117 1_556 S
O99 C76 1.240 1_545 S
C100 C93 1.403 . S
C100 C101 1.399 . S
C100 H106 0.929 . S
C101 C81 1.449 . S
C101 C100 1.399 . S
C101 H107 0.930 . S
H102 C82 0.931 . S
H103 C83 0.930 . S
H104 C91 0.931 . S
H105 C92 0.929 . S
H106 C100 0.929 . S
H107 C101 0.930 . S
Mn108 O113 2.095 1_655 S
Mn108 O123 2.162 . S
Mn108 O124 2.297 1_554 S
Mn108 O132 2.385 1_554 S
Mn108 O133 2.209 1_654 S
Mn108 O134 2.094 . S
Mn109 O114 2.121 . S
Mn109 N116 2.257 1_554 S
Mn109 N125 2.282 1_554 S
Mn109 O133 2.215 1_554 S
Mn109 O135 2.117 . S
C110 O132 1.186 1_455 S
C110 O133 1.304 . S
C111 O123 1.281 1_556 S
C111 O124 1.236 . S
C112 O134 1.223 1_455 S
C112 O135 1.280 . S
O113 Mn108 2.095 1_455 S
O113 C122 1.250 . S
O114 Mn109 2.121 . S
O114 C122 1.258 . S
C115 N116 1.326 . S
C115 C119 1.460 . S
C115 H121 0.929 . S
N116 Mn109 2.257 1_556 S
N116 C115 1.326 . S
N116 C120 1.362 . S
C117 C118 1.258 . S
C117 C120 1.431 . S
C117 C137 1.449 . S
C118 C117 1.258 . S
C118 C119 1.477 . S
C118 H138 0.931 . S
C119 C115 1.460 . S
C119 C118 1.477 . S
C119 H139 0.930 . S
C120 N116 1.362 . S
C120 C117 1.431 . S
C120 C130 1.476 . S
H121 C115 0.929 . S
C122 O113 1.250 . S
C122 O114 1.258 . S
O123 Mn108 2.162 . S
O123 C111 1.281 1_554 S
O124 Mn108 2.297 1_556 S
O124 C111 1.236 . S
N125 Mn109 2.282 1_556 S
N125 C126 1.328 1_556 S
N125 C130 1.318 . S
C126 N125 1.328 1_554 S
C126 C127 1.457 1_554 S
C126 H131 0.929 . S
C127 C126 1.457 1_556 S
C127 C128 1.291 . S
C127 H140 0.931 . S
C128 C127 1.291 . S
C128 C129 1.373 . S
C128 H141 0.929 . S
C129 C128 1.373 . S
C129 C130 1.396 . S
C129 C136 1.403 . S
C130 C120 1.476 . S
C130 N125 1.318 . S
C130 C129 1.396 . S
H131 C126 0.929 . S
O132 Mn108 2.385 1_556 S
O132 C110 1.186 1_655 S
O133 Mn108 2.209 1_456 S
O133 Mn109 2.215 1_556 S
O133 C110 1.304 . S
O134 Mn108 2.094 . S
O134 C112 1.223 1_655 S
O135 Mn109 2.117 . S
O135 C112 1.280 . S
C136 C129 1.403 . S
C136 C137 1.399 . S
C136 H142 0.929 . S
C137 C117 1.449 . S
C137 C136 1.399 . S
C137 H143 0.930 . S
H138 C118 0.931 . S
H139 C119 0.930 . S
H140 C127 0.931 . S
H141 C128 0.929 . S
H142 C136 0.929 . S
H143 C137 0.930 . S
Mn144 O149 2.095 1_554 S
Mn144 O159 2.162 . S
Mn144 O160 2.297 . S
Mn144 O168 2.385 . S
Mn144 O169 2.209 . S
Mn144 O170 2.094 1_554 S
Mn145 O150 2.116 1_554 S
Mn145 N152 2.283 . S
Mn145 N161 2.296 . S
Mn145 O169 2.242 . S
Mn145 O171 2.092 1_554 S
C146 O168 1.234 . S
C146 O169 1.283 . S
C147 O159 1.281 . S
C147 O160 1.236 . S
C148 O170 1.240 . S
C148 O171 1.264 . S
O149 Mn144 2.095 1_556 S
O149 C158 1.250 . S
O150 Mn145 2.116 1_556 S
O150 C158 1.258 . S
C151 N152 1.326 . S
C151 C155 1.460 . S
C151 H157 0.929 . S
N152 Mn145 2.283 . S
N152 C151 1.326 . S
N152 C156 1.362 . S
C153 C154 1.258 . S
C153 C156 1.431 . S
C153 C173 1.449 . S
C154 C153 1.258 . S
C154 C155 1.477 . S
C154 H174 0.931 . S
C155 C151 1.460 . S
C155 C154 1.477 . S
C155 H175 0.930 . S
C156 N152 1.362 . S
C156 C153 1.431 . S
C156 C166 1.476 . S
H157 C151 0.929 . S
C158 O149 1.250 . S
C158 O150 1.258 . S
O159 Mn144 2.162 . S
O159 C147 1.281 . S
O160 Mn144 2.297 . S
O160 C147 1.236 . S
N161 Mn145 2.296 . S
N161 C162 1.328 . S
N161 C166 1.318 . S
C162 N161 1.328 . S
C162 C163 1.457 . S
C162 H167 0.929 1_554 S
C163 C162 1.457 . S
C163 C164 1.291 . S
C163 H176 0.931 . S
C164 C163 1.291 . S
C164 C165 1.373 . S
C164 H177 0.929 . S
C165 C164 1.373 . S
C165 C166 1.396 . S
C165 C172 1.403 . S
C166 C156 1.476 . S
C166 N161 1.318 . S
C166 C165 1.396 . S
H167 C162 0.929 1_556 S
O168 Mn144 2.385 . S
O168 C146 1.234 . S
O169 Mn144 2.209 . S
O169 Mn145 2.242 . S
O169 C146 1.283 . S
O170 Mn144 2.094 1_556 S
O170 C148 1.240 . S
O171 Mn145 2.092 1_556 S
O171 C148 1.264 . S
C172 C165 1.403 . S
C172 C173 1.399 . S
C172 H178 0.929 . S
C173 C153 1.449 . S
C173 C172 1.399 . S
C173 H179 0.930 . S
H174 C154 0.931 . S
H175 C155 0.930 . S
H176 C163 0.931 . S
H177 C164 0.929 . S
H178 C172 0.929 . S
H179 C173 0.930 . S
Mn180 O185 2.095 1_545 S
Mn180 O195 2.162 . S
Mn180 O196 2.297 1_554 S
Mn180 O204 2.385 1_554 S
Mn180 O205 2.209 1_544 S
Mn180 O206 2.094 . S
Mn181 O186 2.121 . S
Mn181 N188 2.257 1_554 S
Mn181 N197 2.282 1_554 S
Mn181 O205 2.215 1_554 S
Mn181 O207 2.117 . S
C182 O204 1.293 . S
C182 O205 1.223 1_545 S
C183 O195 1.281 1_556 S
C183 O196 1.236 . S
C184 O206 1.240 . S
C184 O207 1.264 1_545 S
O185 Mn180 2.095 1_565 S
O185 C194 1.250 . S
O186 Mn181 2.121 . S
O186 C194 1.258 . S
C187 N188 1.326 . S
C187 C191 1.460 . S
C187 H193 0.929 . S
N188 Mn181 2.257 1_556 S
N188 C187 1.326 . S
N188 C192 1.362 . S
C189 C190 1.258 . S
C189 C192 1.431 . S
C189 C209 1.449 . S
C190 C189 1.258 . S
C190 C191 1.477 . S
C190 H210 0.931 . S
C191 C187 1.460 . S
C191 C190 1.477 . S
C191 H211 0.930 . S
C192 N188 1.362 . S
C192 C189 1.431 . S
C192 C202 1.476 . S
H193 C187 0.929 . S
C194 O185 1.250 . S
C194 O186 1.258 . S
O195 Mn180 2.162 . S
O195 C183 1.281 1_554 S
O196 Mn180 2.297 1_556 S
O196 C183 1.236 . S
N197 Mn181 2.282 1_556 S
N197 C198 1.328 1_556 S
N197 C202 1.318 . S
C198 N197 1.328 1_554 S
C198 C199 1.457 1_554 S
C198 H203 0.929 . S
C199 C198 1.457 1_556 S
C199 C200 1.291 . S
C199 H212 0.931 . S
C200 C199 1.291 . S
C200 C201 1.373 . S
C200 H213 0.929 . S
C201 C200 1.373 . S
C201 C202 1.396 . S
C201 C208 1.403 . S
C202 C192 1.476 . S
C202 N197 1.318 . S
C202 C201 1.396 . S
H203 C198 0.929 . S
O204 Mn180 2.385 1_556 S
O204 C182 1.293 . S
O205 Mn180 2.209 1_566 S
O205 Mn181 2.215 1_556 S
O205 C182 1.223 1_565 S
O206 Mn180 2.094 . S
O206 C184 1.240 . S
O207 Mn181 2.117 . S
O207 C184 1.264 1_565 S
C208 C201 1.403 . S
C208 C209 1.399 . S
C208 H214 0.929 . S
C209 C189 1.449 . S
C209 C208 1.399 . S
C209 H215 0.930 . S
H210 C190 0.931 . S
H211 C191 0.930 . S
H212 C199 0.931 . S
H213 C200 0.929 . S
H214 C208 0.929 . S
H215 C209 0.930 . S
Mn216 O221 2.095 . S
Mn216 O231 2.162 . S
Mn216 O232 2.297 . S
Mn216 O240 2.385 . S
Mn216 O241 2.209 . S
Mn216 O242 2.094 . S
Mn217 O222 2.121 . S
Mn217 N224 2.257 . S
Mn217 N233 2.282 . S
Mn217 O241 2.215 . S
Mn217 O243 2.117 . S
C218 O240 1.234 . S
C218 O241 1.283 . S
C219 O231 1.281 . S
C219 O232 1.236 . S
C220 O242 1.240 . S
C220 O243 1.264 . S
O221 Mn216 2.095 . S
O221 C230 1.250 . S
O222 Mn217 2.121 . S
O222 C230 1.258 . S
C223 N224 1.326 . S
C223 C227 1.460 . S
C223 H229 0.929 . S
N224 Mn217 2.257 . S
N224 C223 1.326 . S
N224 C228 1.362 . S
C225 C226 1.258 . S
C225 C228 1.431 . S
C225 C245 1.449 . S
C226 C225 1.258 . S
C226 C227 1.477 . S
C226 H246 0.931 . S
C227 C223 1.460 . S
C227 C226 1.477 . S
C227 H247 0.930 . S
C228 N224 1.362 . S
C228 C225 1.431 . S
C228 C238 1.476 . S
H229 C223 0.929 . S
C230 O221 1.250 . S
C230 O222 1.258 . S
O231 Mn216 2.162 . S
O231 C219 1.281 . S
O232 Mn216 2.297 . S
O232 C219 1.236 . S
N233 Mn217 2.282 . S
N233 C234 1.328 . S
N233 C238 1.318 . S
C234 N233 1.328 . S
C234 C235 1.457 . S
C234 H239 0.929 . S
C235 C234 1.457 . S
C235 C236 1.291 . S
C235 H248 0.931 . S
C236 C235 1.291 . S
C236 C237 1.373 . S
C236 H249 0.929 . S
C237 C236 1.373 . S
C237 C238 1.396 . S
C237 C244 1.403 . S
C238 C228 1.476 . S
C238 N233 1.318 . S
C238 C237 1.396 . S
H239 C234 0.929 . S
O240 Mn216 2.385 . S
O240 C218 1.234 . S
O241 Mn216 2.209 . S
O241 Mn217 2.215 . S
O241 C218 1.283 . S
O242 Mn216 2.094 . S
O242 C220 1.240 . S
O243 Mn217 2.117 . S
O243 C220 1.264 . S
C244 C237 1.403 . S
C244 C245 1.399 . S
C244 H250 0.929 . S
C245 C225 1.449 . S
C245 C244 1.399 . S
C245 H251 0.930 . S
H246 C226 0.931 . S
H247 C227 0.930 . S
H248 C235 0.931 . S
H249 C236 0.929 . S
H250 C244 0.929 . S
H251 C245 0.930 . S
Mn252 O257 2.095 . S
Mn252 O267 2.162 1_565 S
Mn252 O268 2.297 1_565 S
Mn252 O276 2.385 . S
Mn252 O277 2.209 . S
Mn252 O278 2.094 . S
Mn253 O258 2.121 . S
Mn253 N260 2.257 . S
Mn253 N269 2.282 . S
Mn253 O277 2.215 . S
Mn253 O279 2.117 . S
C254 O276 1.234 . S
C254 O277 1.283 . S
C255 O267 1.281 . S
C255 O268 1.236 . S
C256 O278 1.240 . S
C256 O279 1.264 . S
O257 Mn252 2.095 . S
O257 C266 1.250 . S
O258 Mn253 2.121 . S
O258 C266 1.258 . S
C259 N260 1.326 . S
C259 C263 1.460 . S
C259 H265 0.929 . S
N260 Mn253 2.257 . S
N260 C259 1.326 . S
N260 C264 1.362 . S
C261 C262 1.258 . S
C261 C264 1.431 . S
C261 C281 1.449 . S
C262 C261 1.258 . S
C262 C263 1.477 . S
C262 H282 0.931 . S
C263 C259 1.460 . S
C263 C262 1.477 . S
C263 H283 0.930 . S
C264 N260 1.362 . S
C264 C261 1.431 . S
C264 C274 1.476 . S
H265 C259 0.929 . S
C266 O257 1.250 . S
C266 O258 1.258 . S
O267 Mn252 2.162 1_545 S
O267 C255 1.281 . S
O268 Mn252 2.297 1_545 S
O268 C255 1.236 . S
N269 Mn253 2.282 . S
N269 C270 1.328 . S
N269 C274 1.318 . S
C270 N269 1.328 . S
C270 C271 1.457 . S
C270 H275 0.929 . S
C271 C270 1.457 . S
C271 C272 1.291 . S
C271 H284 0.931 . S
C272 C271 1.291 . S
C272 C273 1.373 . S
C272 H285 0.929 . S
C273 C272 1.373 . S
C273 C274 1.396 . S
C273 C280 1.403 . S
C274 C264 1.476 . S
C274 N269 1.318 . S
C274 C273 1.396 . S
H275 C270 0.929 . S
O276 Mn252 2.385 . S
O276 C254 1.234 . S
O277 Mn252 2.209 . S
O277 Mn253 2.215 . S
O277 C254 1.283 . S
O278 Mn252 2.094 . S
O278 C256 1.240 . S
O279 Mn253 2.117 . S
O279 C256 1.264 . S
C280 C273 1.403 . S
C280 C281 1.399 . S
C280 H286 0.929 . S
C281 C261 1.449 . S
C281 C280 1.399 . S
C281 H287 0.930 . S
H282 C262 0.931 . S
H283 C263 0.930 . S
H284 C271 0.931 . S
H285 C272 0.929 . S
H286 C280 0.929 . S
H287 C281 0.930 . S
Mn288 O293 2.095 . S
Mn288 O303 2.162 1_455 S
Mn288 O304 2.297 1_455 S
Mn288 O312 2.385 . S
Mn288 O313 2.209 . S
Mn288 O314 2.094 . S
Mn289 O294 2.121 . S
Mn289 N296 2.257 . S
Mn289 N305 2.282 . S
Mn289 O313 2.215 . S
Mn289 O315 2.117 . S
C290 O312 1.234 . S
C290 O313 1.283 . S
C291 O303 1.281 . S
C291 O304 1.236 . S
C292 O314 1.240 . S
C292 O315 1.264 . S
O293 Mn288 2.095 . S
O293 C302 1.250 . S
O294 Mn289 2.121 . S
O294 C302 1.258 . S
C295 N296 1.326 . S
C295 C299 1.460 . S
C295 H301 0.929 . S
N296 Mn289 2.257 . S
N296 C295 1.326 . S
N296 C300 1.362 . S
C297 C298 1.258 . S
C297 C300 1.431 . S
C297 C317 1.449 . S
C298 C297 1.258 . S
C298 C299 1.477 . S
C298 H318 0.931 . S
C299 C295 1.460 . S
C299 C298 1.477 . S
C299 H319 0.930 . S
C300 N296 1.362 . S
C300 C297 1.431 . S
C300 C310 1.476 . S
H301 C295 0.929 . S
C302 O293 1.250 . S
C302 O294 1.258 . S
O303 Mn288 2.162 1_655 S
O303 C291 1.281 . S
O304 Mn288 2.297 1_655 S
O304 C291 1.236 . S
N305 Mn289 2.282 . S
N305 C306 1.328 . S
N305 C310 1.318 . S
C306 N305 1.328 . S
C306 C307 1.457 . S
C306 H311 0.929 . S
C307 C306 1.457 . S
C307 C308 1.291 . S
C307 H320 0.931 . S
C308 C307 1.291 . S
C308 C309 1.373 . S
C308 H321 0.929 . S
C309 C308 1.373 . S
C309 C310 1.396 . S
C309 C316 1.403 . S
C310 C300 1.476 . S
C310 N305 1.318 . S
C310 C309 1.396 . S
H311 C306 0.929 . S
O312 Mn288 2.385 . S
O312 C290 1.234 . S
O313 Mn288 2.209 . S
O313 Mn289 2.215 . S
O313 C290 1.283 . S
O314 Mn288 2.094 . S
O314 C292 1.240 . S
O315 Mn289 2.117 . S
O315 C292 1.264 . S
C316 C309 1.403 . S
C316 C317 1.399 . S
C316 H322 0.929 . S
C317 C297 1.449 . S
C317 C316 1.399 . S
C317 H323 0.930 . S
H318 C298 0.931 . S
H319 C299 0.930 . S
H320 C307 0.931 . S
H321 C308 0.929 . S
H322 C316 0.929 . S
H323 C317 0.930 . S
Mn324 O329 2.095 1_565 S
Mn324 O339 2.162 . S
Mn324 O340 2.297 . S
Mn324 O348 2.385 . S
Mn324 O349 2.209 . S
Mn324 O350 2.094 . S
Mn325 O330 2.121 1_565 S
Mn325 N332 2.257 . S
Mn325 N341 2.282 . S
Mn325 O349 2.215 . S
Mn325 O351 2.117 . S
C326 O348 1.234 . S
C326 O349 1.283 . S
C327 O339 1.281 . S
C327 O340 1.236 . S
C328 O350 1.240 . S
C328 O351 1.264 . S
O329 Mn324 2.095 1_545 S
O329 C338 1.250 . S
O330 Mn325 2.121 1_545 S
O330 C338 1.258 . S
C331 N332 1.326 1_545 S
C331 C335 1.460 . S
C331 H337 0.929 . S
N332 Mn325 2.257 . S
N332 C331 1.326 1_565 S
N332 C336 1.362 . S
C333 C334 1.258 . S
C333 C336 1.431 . S
C333 C353 1.449 . S
C334 C333 1.258 . S
C334 C335 1.477 1_565 S
C334 H354 0.933 1_565 S
C335 C331 1.460 . S
C335 C334 1.477 1_545 S
C335 H355 0.930 . S
C336 N332 1.362 . S
C336 C333 1.431 . S
C336 C346 1.476 . S
H337 C331 0.929 . S
C338 O329 1.250 . S
C338 O330 1.258 . S
O339 Mn324 2.162 . S
O339 C327 1.281 . S
O340 Mn324 2.297 . S
O340 C327 1.236 . S
N341 Mn325 2.282 . S
N341 C342 1.328 . S
N341 C346 1.318 . S
C342 N341 1.328 . S
C342 C343 1.457 . S
C342 H347 0.929 . S
C343 C342 1.457 . S
C343 C344 1.291 . S
C343 H356 0.931 . S
C344 C343 1.291 . S
C344 C345 1.373 . S
C344 H357 0.929 . S
C345 C344 1.373 . S
C345 C346 1.396 . S
C345 C352 1.403 . S
C346 C336 1.476 . S
C346 N341 1.318 . S
C346 C345 1.396 . S
H347 C342 0.929 . S
O348 Mn324 2.385 . S
O348 C326 1.234 . S
O349 Mn324 2.209 . S
O349 Mn325 2.215 . S
O349 C326 1.283 . S
O350 Mn324 2.094 . S
O350 C328 1.240 . S
O351 Mn325 2.117 . S
O351 C328 1.264 . S
C352 C345 1.403 . S
C352 C353 1.399 . S
C352 H358 0.929 . S
C353 C333 1.449 . S
C353 C352 1.399 . S
C353 H359 0.930 . S
H354 C334 0.933 1_545 S
H355 C335 0.930 . S
H356 C343 0.931 . S
H357 C344 0.929 . S
H358 C352 0.929 . S
H359 C353 0.930 . S
Mn360 O365 2.095 . S
Mn360 O375 2.162 1_455 S
Mn360 O376 2.297 1_455 S
Mn360 O384 2.385 . S
Mn360 O385 2.209 . S
Mn360 O386 2.094 . S
Mn361 O366 2.121 . S
Mn361 N368 2.257 . S
Mn361 N377 2.282 . S
Mn361 O385 2.215 . S
Mn361 O387 2.117 . S
C362 O384 1.234 . S
C362 O385 1.283 . S
C363 O375 1.281 . S
C363 O376 1.236 . S
C364 O386 1.240 . S
C364 O387 1.264 . S
O365 Mn360 2.095 . S
O365 C374 1.250 . S
O366 Mn361 2.121 . S
O366 C374 1.258 . S
C367 N368 1.326 . S
C367 C371 1.460 . S
C367 H373 0.929 . S
N368 Mn361 2.257 . S
N368 C367 1.326 . S
N368 C372 1.362 . S
C369 C370 1.258 . S
C369 C372 1.431 . S
C369 C389 1.449 . S
C370 C369 1.258 . S
C370 C371 1.477 . S
C370 H390 0.931 . S
C371 C367 1.460 . S
C371 C370 1.477 . S
C371 H391 0.930 . S
C372 N368 1.362 . S
C372 C369 1.431 . S
C372 C382 1.476 . S
H373 C367 0.929 . S
C374 O365 1.250 . S
C374 O366 1.258 . S
O375 Mn360 2.162 1_655 S
O375 C363 1.281 . S
O376 Mn360 2.297 1_655 S
O376 C363 1.236 . S
N377 Mn361 2.282 . S
N377 C378 1.328 . S
N377 C382 1.318 . S
C378 N377 1.328 . S
C378 C379 1.457 . S
C378 H383 0.929 . S
C379 C378 1.457 . S
C379 C380 1.291 . S
C379 H392 0.931 . S
C380 C379 1.291 . S
C380 C381 1.373 . S
C380 H393 0.929 . S
C381 C380 1.373 . S
C381 C382 1.396 . S
C381 C388 1.403 . S
C382 C372 1.476 . S
C382 N377 1.318 . S
C382 C381 1.396 . S
H383 C378 0.929 . S
O384 Mn360 2.385 . S
O384 C362 1.234 . S
O385 Mn360 2.209 . S
O385 Mn361 2.215 . S
O385 C362 1.283 . S
O386 Mn360 2.094 . S
O386 C364 1.240 . S
O387 Mn361 2.117 . S
O387 C364 1.264 . S
C388 C381 1.403 . S
C388 C389 1.399 . S
C388 H394 0.929 . S
C389 C369 1.449 . S
C389 C388 1.399 . S
C389 H395 0.930 . S
H390 C370 0.931 . S
H391 C371 0.930 . S
H392 C379 0.931 . S
H393 C380 0.929 . S
H394 C388 0.929 . S
H395 C389 0.930 . S
Mn396 O401 2.095 . S
Mn396 O411 2.162 . S
Mn396 O412 2.297 . S
Mn396 O420 2.385 . S
Mn396 O421 2.209 . S
Mn396 O422 2.094 . S
Mn397 O402 2.121 . S
Mn397 N404 2.257 . S
Mn397 N413 2.282 . S
Mn397 O421 2.215 . S
Mn397 O423 2.117 . S
C398 O420 1.234 . S
C398 O421 1.283 . S
C399 O411 1.281 . S
C399 O412 1.236 . S
C400 O422 1.240 . S
C400 O423 1.264 . S
O401 Mn396 2.095 . S
O401 C410 1.250 . S
O402 Mn397 2.121 . S
O402 C410 1.258 . S
C403 N404 1.326 . S
C403 C407 1.460 . S
C403 H409 0.929 . S
N404 Mn397 2.257 . S
N404 C403 1.326 . S
N404 C408 1.362 . S
C405 C406 1.258 . S
C405 C408 1.431 . S
C405 C425 1.449 . S
C406 C405 1.258 . S
C406 C407 1.477 . S
C406 H426 0.931 . S
C407 C403 1.460 . S
C407 C406 1.477 . S
C407 H427 0.930 . S
C408 N404 1.362 . S
C408 C405 1.431 . S
C408 C418 1.476 . S
H409 C403 0.929 . S
C410 O401 1.250 . S
C410 O402 1.258 . S
O411 Mn396 2.162 . S
O411 C399 1.281 . S
O412 Mn396 2.297 . S
O412 C399 1.236 . S
N413 Mn397 2.282 . S
N413 C414 1.328 . S
N413 C418 1.318 . S
C414 N413 1.328 . S
C414 C415 1.457 . S
C414 H419 0.929 . S
C415 C414 1.457 . S
C415 C416 1.291 . S
C415 H428 0.931 . S
C416 C415 1.291 . S
C416 C417 1.373 . S
C416 H429 0.929 . S
C417 C416 1.373 . S
C417 C418 1.396 . S
C417 C424 1.403 . S
C418 C408 1.476 . S
C418 N413 1.318 . S
C418 C417 1.396 . S
H419 C414 0.929 . S
O420 Mn396 2.385 . S
O420 C398 1.234 . S
O421 Mn396 2.209 . S
O421 Mn397 2.215 . S
O421 C398 1.283 . S
O422 Mn396 2.094 . S
O422 C400 1.240 . S
O423 Mn397 2.117 . S
O423 C400 1.264 . S
C424 C417 1.403 . S
C424 C425 1.399 . S
C424 H430 0.929 . S
C425 C405 1.449 . S
C425 C424 1.399 . S
C425 H431 0.930 . S
H426 C406 0.931 . S
H427 C407 0.930 . S
H428 C415 0.931 . S
H429 C416 0.929 . S
H430 C424 0.929 . S
H431 C425 0.930 . S
Mn432 O437 2.095 . S
Mn432 O447 2.162 1_545 S
Mn432 O448 2.297 1_545 S
Mn432 O456 2.385 . S
Mn432 O457 2.209 . S
Mn432 O458 2.094 . S
Mn433 O438 2.121 . S
Mn433 N440 2.257 . S
Mn433 N449 2.282 . S
Mn433 O457 2.215 . S
Mn433 O459 2.117 . S
C434 O456 1.234 . S
C434 O457 1.283 . S
C435 O447 1.281 . S
C435 O448 1.236 . S
C436 O458 1.240 . S
C436 O459 1.264 . S
O437 Mn432 2.095 . S
O437 C446 1.250 . S
O438 Mn433 2.121 . S
O438 C446 1.258 . S
C439 N440 1.326 . S
C439 C443 1.460 . S
C439 H445 0.929 . S
N440 Mn433 2.257 . S
N440 C439 1.326 . S
N440 C444 1.362 . S
C441 C442 1.258 . S
C441 C444 1.431 . S
C441 C461 1.449 . S
C442 C441 1.258 . S
C442 C443 1.477 . S
C442 H462 0.931 . S
C443 C439 1.460 . S
C443 C442 1.477 . S
C443 H463 0.930 . S
C444 N440 1.362 . S
C444 C441 1.431 . S
C444 C454 1.476 . S
H445 C439 0.929 . S
C446 O437 1.250 . S
C446 O438 1.258 . S
O447 Mn432 2.162 1_565 S
O447 C435 1.281 . S
O448 Mn432 2.297 1_565 S
O448 C435 1.236 . S
N449 Mn433 2.282 . S
N449 C450 1.328 . S
N449 C454 1.318 . S
C450 N449 1.328 . S
C450 C451 1.457 . S
C450 H455 0.929 . S
C451 C450 1.457 . S
C451 C452 1.291 . S
C451 H464 0.931 . S
C452 C451 1.291 . S
C452 C453 1.373 . S
C452 H465 0.929 . S
C453 C452 1.373 . S
C453 C454 1.396 . S
C453 C460 1.403 . S
C454 C444 1.476 . S
C454 N449 1.318 . S
C454 C453 1.396 . S
H455 C450 0.929 . S
O456 Mn432 2.385 . S
O456 C434 1.234 . S
O457 Mn432 2.209 . S
O457 Mn433 2.215 . S
O457 C434 1.283 . S
O458 Mn432 2.094 . S
O458 C436 1.240 . S
O459 Mn433 2.117 . S
O459 C436 1.264 . S
C460 C453 1.403 . S
C460 C461 1.399 . S
C460 H466 0.929 . S
C461 C441 1.449 . S
C461 C460 1.399 . S
C461 H467 0.930 . S
H462 C442 0.931 . S
H463 C443 0.930 . S
H464 C451 0.931 . S
H465 C452 0.929 . S
H466 C460 0.929 . S
H467 C461 0.930 . S
Mn468 O473 2.143 . S
Mn468 O483 2.162 . S
Mn468 O484 2.297 . S
Mn468 O492 2.385 . S
Mn468 O493 2.209 . S
Mn468 O494 2.094 . S
Mn469 O474 2.121 1_655 S
Mn469 N476 2.257 . S
Mn469 N485 2.282 . S
Mn469 O493 2.215 . S
Mn469 O495 2.117 . S
C470 O492 1.234 . S
C470 O493 1.283 . S
C471 O483 1.281 . S
C471 O484 1.236 . S
C472 O494 1.240 . S
C472 O495 1.264 . S
O473 Mn468 2.143 . S
O473 C482 1.198 1_655 S
O474 Mn469 2.121 1_455 S
O474 C482 1.258 . S
C475 N476 1.326 1_455 S
C475 C479 1.460 . S
C475 H481 0.929 . S
N476 Mn469 2.257 . S
N476 C475 1.326 1_655 S
N476 C480 1.362 . S
C477 C478 1.258 . S
C477 C480 1.431 . S
C477 C497 1.449 . S
C478 C477 1.258 . S
C478 C479 1.477 1_655 S
C478 H498 0.925 1_655 S
C479 C475 1.460 . S
C479 C478 1.477 1_455 S
C479 H499 0.930 . S
C480 N476 1.362 . S
C480 C477 1.431 . S
C480 C490 1.476 . S
H481 C475 0.929 . S
C482 O473 1.198 1_455 S
C482 O474 1.258 . S
O483 Mn468 2.162 . S
O483 C471 1.281 . S
O484 Mn468 2.297 . S
O484 C471 1.236 . S
N485 Mn469 2.282 . S
N485 C486 1.328 . S
N485 C490 1.318 . S
C486 N485 1.328 . S
C486 C487 1.457 . S
C486 H491 0.929 . S
C487 C486 1.457 . S
C487 C488 1.291 . S
C487 H500 0.931 . S
C488 C487 1.291 . S
C488 C489 1.373 . S
C488 H501 0.929 . S
C489 C488 1.373 . S
C489 C490 1.396 . S
C489 C496 1.403 . S
C490 C480 1.476 . S
C490 N485 1.318 . S
C490 C489 1.396 . S
H491 C486 0.929 . S
O492 Mn468 2.385 . S
O492 C470 1.234 . S
O493 Mn468 2.209 . S
O493 Mn469 2.215 . S
O493 C470 1.283 . S
O494 Mn468 2.094 . S
O494 C472 1.240 . S
O495 Mn469 2.117 . S
O495 C472 1.264 . S
C496 C489 1.403 . S
C496 C497 1.399 . S
C496 H502 0.929 . S
C497 C477 1.449 . S
C497 C496 1.399 . S
C497 H503 0.930 . S
H498 C478 0.925 1_455 S
H499 C479 0.930 . S
H500 C487 0.931 . S
H501 C488 0.929 . S
H502 C496 0.929 . S
H503 C497 0.930 . S
Mn504 O509 2.095 . S
Mn504 O519 2.162 . S
Mn504 O520 2.297 . S
Mn504 O528 2.385 . S
Mn504 O529 2.209 . S
Mn504 O530 2.094 . S
Mn505 O510 2.121 . S
Mn505 N512 2.257 . S
Mn505 N521 2.282 . S
Mn505 O529 2.215 . S
Mn505 O531 2.117 . S
C506 O528 1.234 . S
C506 O529 1.283 . S
C507 O519 1.281 . S
C507 O520 1.236 . S
C508 O530 1.240 . S
C508 O531 1.264 . S
O509 Mn504 2.095 . S
O509 C518 1.250 . S
O510 Mn505 2.121 . S
O510 C518 1.258 . S
C511 N512 1.326 . S
C511 C515 1.460 . S
C511 H517 0.929 . S
N512 Mn505 2.257 . S
N512 C511 1.326 . S
N512 C516 1.362 . S
C513 C514 1.258 . S
C513 C516 1.431 . S
C513 C533 1.449 . S
C514 C513 1.258 . S
C514 C515 1.477 . S
C514 H534 0.931 . S
C515 C511 1.460 . S
C515 C514 1.477 . S
C515 H535 0.930 . S
C516 N512 1.362 . S
C516 C513 1.431 . S
C516 C526 1.476 . S
H517 C511 0.929 . S
C518 O509 1.250 . S
C518 O510 1.258 . S
O519 Mn504 2.162 . S
O519 C507 1.281 . S
O520 Mn504 2.297 . S
O520 C507 1.236 . S
N521 Mn505 2.282 . S
N521 C522 1.328 . S
N521 C526 1.318 . S
C522 N521 1.328 . S
C522 C523 1.457 . S
C522 H527 0.929 . S
C523 C522 1.457 . S
C523 C524 1.291 . S
C523 H536 0.931 . S
C524 C523 1.291 . S
C524 C525 1.373 . S
C524 H537 0.929 . S
C525 C524 1.373 . S
C525 C526 1.396 . S
C525 C532 1.403 . S
C526 C516 1.476 . S
C526 N521 1.318 . S
C526 C525 1.396 . S
H527 C522 0.929 . S
O528 Mn504 2.385 . S
O528 C506 1.234 . S
O529 Mn504 2.209 . S
O529 Mn505 2.215 . S
O529 C506 1.283 . S
O530 Mn504 2.094 . S
O530 C508 1.240 . S
O531 Mn505 2.117 . S
O531 C508 1.264 . S
C532 C525 1.403 . S
C532 C533 1.399 . S
C532 H538 0.929 . S
C533 C513 1.449 . S
C533 C532 1.399 . S
C533 H539 0.930 . S
H534 C514 0.931 . S
H535 C515 0.930 . S
H536 C523 0.931 . S
H537 C524 0.929 . S
H538 C532 0.929 . S
H539 C533 0.930 . S
Mn540 O545 2.095 . S
Mn540 O555 2.162 . S
Mn540 O556 2.297 . S
Mn540 O564 2.385 . S
Mn540 O565 2.209 . S
Mn540 O566 2.094 . S
Mn541 O546 2.121 . S
Mn541 N548 2.257 . S
Mn541 N557 2.282 . S
Mn541 O565 2.215 . S
Mn541 O567 2.117 . S
C542 O564 1.234 . S
C542 O565 1.283 . S
C543 O555 1.281 . S
C543 O556 1.236 . S
C544 O566 1.240 . S
C544 O567 1.264 . S
O545 Mn540 2.095 . S
O545 C554 1.250 . S
O546 Mn541 2.121 . S
O546 C554 1.258 . S
C547 N548 1.326 . S
C547 C551 1.460 . S
C547 H553 0.929 . S
N548 Mn541 2.257 . S
N548 C547 1.326 . S
N548 C552 1.362 . S
C549 C550 1.258 . S
C549 C552 1.431 . S
C549 C569 1.449 . S
C550 C549 1.258 . S
C550 C551 1.477 . S
C550 H570 0.931 . S
C551 C547 1.460 . S
C551 C550 1.477 . S
C551 H571 0.930 . S
C552 N548 1.362 . S
C552 C549 1.431 . S
C552 C562 1.476 . S
H553 C547 0.929 . S
C554 O545 1.250 . S
C554 O546 1.258 . S
O555 Mn540 2.162 . S
O555 C543 1.281 . S
O556 Mn540 2.297 . S
O556 C543 1.236 . S
N557 Mn541 2.282 . S
N557 C558 1.328 . S
N557 C562 1.318 . S
C558 N557 1.328 . S
C558 C559 1.457 . S
C558 H563 0.929 . S
C559 C558 1.457 . S
C559 C560 1.291 . S
C559 H572 0.931 . S
C560 C559 1.291 . S
C560 C561 1.373 . S
C560 H573 0.929 . S
C561 C560 1.373 . S
C561 C562 1.396 . S
C561 C568 1.403 . S
C562 C552 1.476 . S
C562 N557 1.318 . S
C562 C561 1.396 . S
H563 C558 0.929 . S
O564 Mn540 2.385 . S
O564 C542 1.234 . S
O565 Mn540 2.209 . S
O565 Mn541 2.215 . S
O565 C542 1.283 . S
O566 Mn540 2.094 . S
O566 C544 1.240 . S
O567 Mn541 2.117 . S
O567 C544 1.264 . S
C568 C561 1.403 . S
C568 C569 1.399 . S
C568 H574 0.929 . S
C569 C549 1.449 . S
C569 C568 1.399 . S
C569 H575 0.930 . S
H570 C550 0.931 . S
H571 C551 0.930 . S
H572 C559 0.931 . S
H573 C560 0.929 . S
H574 C568 0.929 . S
H575 C569 0.930 . S
Mn576 O581 2.095 1_545 S
Mn576 O591 2.162 . S
Mn576 O592 2.297 . S
Mn576 O600 2.385 . S
Mn576 O601 2.209 . S
Mn576 O602 2.094 . S
Mn577 O582 2.121 1_545 S
Mn577 N584 2.257 . S
Mn577 N593 2.282 . S
Mn577 O601 2.215 . S
Mn577 O603 2.117 . S
C578 O600 1.234 . S
C578 O601 1.283 . S
C579 O591 1.281 . S
C579 O592 1.236 . S
C580 O602 1.240 . S
C580 O603 1.264 . S
O581 Mn576 2.095 1_565 S
O581 C590 1.250 . S
O582 Mn577 2.121 1_565 S
O582 C590 1.258 . S
C583 N584 1.326 1_565 S
C583 C587 1.460 . S
C583 H589 0.929 . S
N584 Mn577 2.257 . S
N584 C583 1.326 1_545 S
N584 C588 1.362 . S
C585 C586 1.258 . S
C585 C588 1.431 . S
C585 C605 1.449 . S
C586 C585 1.258 . S
C586 C587 1.477 1_545 S
C586 H606 0.919 1_545 S
C587 C583 1.460 . S
C587 C586 1.477 1_565 S
C587 H607 0.930 . S
C588 N584 1.362 . S
C588 C585 1.431 . S
C588 C598 1.476 . S
H589 C583 0.929 . S
C590 O581 1.250 . S
C590 O582 1.258 . S
O591 Mn576 2.162 . S
O591 C579 1.281 . S
O592 Mn576 2.297 . S
O592 C579 1.236 . S
N593 Mn577 2.282 . S
N593 C594 1.328 . S
N593 C598 1.318 . S
C594 N593 1.328 . S
C594 C595 1.457 . S
C594 H599 0.929 . S
C595 C594 1.457 . S
C595 C596 1.291 . S
C595 H608 0.931 . S
C596 C595 1.291 . S
C596 C597 1.373 . S
C596 H609 0.929 . S
C597 C596 1.373 . S
C597 C598 1.396 . S
C597 C604 1.403 . S
C598 C588 1.476 . S
C598 N593 1.318 . S
C598 C597 1.396 . S
H599 C594 0.929 . S
O600 Mn576 2.385 . S
O600 C578 1.234 . S
O601 Mn576 2.209 . S
O601 Mn577 2.215 . S
O601 C578 1.283 . S
O602 Mn576 2.094 . S
O602 C580 1.240 . S
O603 Mn577 2.117 . S
O603 C580 1.264 . S
C604 C597 1.403 . S
C604 C605 1.399 . S
C604 H610 0.929 . S
C605 C585 1.449 . S
C605 C604 1.399 . S
C605 H611 0.930 . S
H606 C586 0.919 1_565 S
H607 C587 0.930 . S
H608 C595 0.931 . S
H609 C596 0.929 . S
H610 C604 0.929 . S
H611 C605 0.930 . S
Mn612 O617 2.095 . S
Mn612 O627 2.162 1_655 S
Mn612 O628 2.297 1_655 S
Mn612 O636 2.385 . S
Mn612 O637 2.209 . S
Mn612 O638 2.094 . S
Mn613 O618 2.121 . S
Mn613 N620 2.257 . S
Mn613 N629 2.282 . S
Mn613 O637 2.215 . S
Mn613 O639 2.117 . S
C614 O636 1.234 . S
C614 O637 1.283 . S
C615 O627 1.281 . S
C615 O628 1.236 . S
C616 O638 1.240 . S
C616 O639 1.264 . S
O617 Mn612 2.095 . S
O617 C626 1.250 . S
O618 Mn613 2.121 . S
O618 C626 1.258 . S
C619 N620 1.326 . S
C619 C623 1.460 . S
C619 H625 0.929 . S
N620 Mn613 2.257 . S
N620 C619 1.326 . S
N620 C624 1.362 . S
C621 C622 1.258 . S
C621 C624 1.431 . S
C621 C641 1.449 . S
C622 C621 1.258 . S
C622 C623 1.477 . S
C622 H642 0.931 . S
C623 C619 1.460 . S
C623 C622 1.477 . S
C623 H643 0.930 . S
C624 N620 1.362 . S
C624 C621 1.431 . S
C624 C634 1.476 . S
H625 C619 0.929 . S
C626 O617 1.250 . S
C626 O618 1.258 . S
O627 Mn612 2.162 1_455 S
O627 C615 1.281 . S
O628 Mn612 2.297 1_455 S
O628 C615 1.236 . S
N629 Mn613 2.282 . S
N629 C630 1.328 . S
N629 C634 1.318 . S
C630 N629 1.328 . S
C630 C631 1.457 . S
C630 H635 0.929 . S
C631 C630 1.457 . S
C631 C632 1.291 . S
C631 H644 0.931 . S
C632 C631 1.291 . S
C632 C633 1.373 . S
C632 H645 0.929 . S
C633 C632 1.373 . S
C633 C634 1.396 . S
C633 C640 1.403 . S
C634 C624 1.476 . S
C634 N629 1.318 . S
C634 C633 1.396 . S
H635 C630 0.929 . S
O636 Mn612 2.385 . S
O636 C614 1.234 . S
O637 Mn612 2.209 . S
O637 Mn613 2.215 . S
O637 C614 1.283 . S
O638 Mn612 2.094 . S
O638 C616 1.240 . S
O639 Mn613 2.117 . S
O639 C616 1.264 . S
C640 C633 1.403 . S
C640 C641 1.399 . S
C640 H646 0.929 . S
C641 C621 1.449 . S
C641 C640 1.399 . S
C641 H647 0.930 . S
H642 C622 0.931 . S
H643 C623 0.930 . S
H644 C631 0.931 . S
H645 C632 0.929 . S
H646 C640 0.929 . S
H647 C641 0.930 . S
H648 C656 0.930 . S
H649 C659 0.930 . S
H650 C661 0.930 . S
H651 C662 0.970 . S
H652 C662 0.970 . S
H653 C664 0.930 . S
H654 C666 0.930 . S
H655 C668 0.930 . S
C656 H648 0.930 . S
C656 C657 1.382 . S
C656 C658 1.426 . S
C657 C656 1.382 . S
C657 C661 1.389 . S
C658 C656 1.426 . S
C658 C659 1.375 . S
C658 C662 1.532 . S
C659 H649 0.930 . S
C659 C658 1.375 . S
C659 C660 1.416 . S
C660 C659 1.416 . S
C660 C661 1.371 . S
C661 H650 0.930 . S
C661 C657 1.389 . S
C661 C660 1.371 . S
C662 H651 0.970 . S
C662 H652 0.970 . S
C662 C658 1.532 . S
C662 C663 1.499 . S
C663 C662 1.499 . S
C663 C664 1.370 . S
C663 C668 1.415 . S
C664 H653 0.930 . S
C664 C663 1.370 . S
C664 C665 1.407 . S
C665 C664 1.407 . S
C665 C666 1.365 . S
C666 H654 0.930 . S
C666 C665 1.365 . S
C666 C667 1.393 . S
C667 C666 1.393 . S
C667 C668 1.387 . S
C668 H655 0.930 . S
C668 C663 1.415 . S
C668 C667 1.387 . S
H669 C677 0.930 . S
H670 C680 0.930 . S
H671 C682 0.930 . S
H672 C683 0.970 . S
H673 C683 0.970 . S
H674 C685 0.930 . S
H675 C687 0.930 . S
H676 C689 0.930 . S
C677 H669 0.930 . S
C677 C678 1.382 . S
C677 C679 1.426 . S
C678 C677 1.382 . S
C678 C682 1.389 . S
C679 C677 1.426 . S
C679 C680 1.375 . S
C679 C683 1.532 . S
C680 H670 0.930 . S
C680 C679 1.375 . S
C680 C681 1.416 . S
C681 C680 1.416 . S
C681 C682 1.371 . S
C682 H671 0.930 . S
C682 C678 1.389 . S
C682 C681 1.371 . S
C683 H672 0.970 . S
C683 H673 0.970 . S
C683 C679 1.532 . S
C683 C684 1.499 . S
C684 C683 1.499 . S
C684 C685 1.370 . S
C684 C689 1.415 . S
C685 H674 0.930 . S
C685 C684 1.370 . S
C685 C686 1.407 . S
C686 C685 1.407 . S
C686 C687 1.365 . S
C687 H675 0.930 . S
C687 C686 1.365 . S
C687 C688 1.393 . S
C688 C687 1.393 . S
C688 C689 1.387 . S
C689 H676 0.930 . S
C689 C684 1.415 . S
C689 C688 1.387 . S
H690 C698 0.930 . S
H691 C701 0.930 . S
H692 C703 0.930 . S
H693 C704 0.970 . S
H694 C704 0.970 . S
H695 C706 0.930 . S
H696 C708 0.930 . S
H697 C710 0.930 . S
C698 H690 0.930 . S
C698 C699 1.382 . S
C698 C700 1.426 . S
C699 C698 1.382 . S
C699 C703 1.389 . S
C700 C698 1.426 . S
C700 C701 1.375 . S
C700 C704 1.532 . S
C701 H691 0.930 . S
C701 C700 1.375 . S
C701 C702 1.416 . S
C702 C701 1.416 . S
C702 C703 1.371 . S
C703 H692 0.930 . S
C703 C699 1.389 . S
C703 C702 1.371 . S
C704 H693 0.970 . S
C704 H694 0.970 . S
C704 C700 1.532 . S
C704 C705 1.499 . S
C705 C704 1.499 . S
C705 C706 1.370 . S
C705 C710 1.415 . S
C706 H695 0.930 . S
C706 C705 1.370 . S
C706 C707 1.407 . S
C707 C706 1.407 . S
C707 C708 1.365 . S
C708 H696 0.930 . S
C708 C707 1.365 . S
C708 C709 1.393 . S
C709 C708 1.393 . S
C709 C710 1.387 . S
C710 H697 0.930 . S
C710 C705 1.415 . S
C710 C709 1.387 . S
H711 C719 0.930 . S
H712 C722 0.930 . S
H713 C724 0.930 . S
H714 C725 0.970 . S
H715 C725 0.970 . S
H716 C727 0.930 . S
H717 C729 0.930 . S
H718 C731 0.930 . S
C719 H711 0.930 . S
C719 C720 1.382 . S
C719 C721 1.426 . S
C720 C719 1.382 . S
C720 C724 1.389 . S
C721 C719 1.426 . S
C721 C722 1.375 . S
C721 C725 1.532 . S
C722 H712 0.930 . S
C722 C721 1.375 . S
C722 C723 1.416 . S
C723 C722 1.416 . S
C723 C724 1.371 . S
C724 H713 0.930 . S
C724 C720 1.389 . S
C724 C723 1.371 . S
C725 H714 0.970 . S
C725 H715 0.970 . S
C725 C721 1.532 . S
C725 C726 1.499 . S
C726 C725 1.499 . S
C726 C727 1.370 . S
C726 C731 1.415 . S
C727 H716 0.930 . S
C727 C726 1.370 . S
C727 C728 1.407 . S
C728 C727 1.407 . S
C728 C729 1.365 . S
C729 H717 0.930 . S
C729 C728 1.365 . S
C729 C730 1.393 . S
C730 C729 1.393 . S
C730 C731 1.387 . S
C731 H718 0.930 . S
C731 C726 1.415 . S
C731 C730 1.387 . S
H732 C740 0.930 . S
H733 C743 0.930 . S
H734 C745 0.930 . S
H735 C746 0.970 . S
H736 C746 0.970 . S
H737 C748 0.930 . S
H738 C750 0.930 . S
H739 C752 0.930 . S
C740 H732 0.930 . S
C740 C741 1.382 . S
C740 C742 1.426 . S
C741 C740 1.382 . S
C741 C745 1.389 . S
C742 C740 1.426 . S
C742 C743 1.375 . S
C742 C746 1.532 . S
C743 H733 0.930 . S
C743 C742 1.375 . S
C743 C744 1.416 . S
C744 C743 1.416 . S
C744 C745 1.371 . S
C745 H734 0.930 . S
C745 C741 1.389 . S
C745 C744 1.371 . S
C746 H735 0.970 . S
C746 H736 0.970 . S
C746 C742 1.532 . S
C746 C747 1.499 . S
C747 C746 1.499 . S
C747 C748 1.370 . S
C747 C752 1.415 . S
C748 H737 0.930 . S
C748 C747 1.370 . S
C748 C749 1.407 . S
C749 C748 1.407 . S
C749 C750 1.365 . S
C750 H738 0.930 . S
C750 C749 1.365 . S
C750 C751 1.393 . S
C751 C750 1.393 . S
C751 C752 1.387 . S
C752 H739 0.930 . S
C752 C747 1.415 . S
C752 C751 1.387 . S
H753 C761 0.930 . S
H754 C764 0.930 . S
H755 C766 0.930 . S
H756 C767 0.970 . S
H757 C767 0.970 . S
H758 C769 0.930 . S
H759 C771 0.930 . S
H760 C773 0.930 . S
C761 H753 0.930 . S
C761 C762 1.382 . S
C761 C763 1.426 . S
C762 C761 1.382 . S
C762 C766 1.389 . S
C763 C761 1.426 . S
C763 C764 1.375 . S
C763 C767 1.532 . S
C764 H754 0.930 . S
C764 C763 1.375 . S
C764 C765 1.416 . S
C765 C764 1.416 . S
C765 C766 1.371 . S
C766 H755 0.930 . S
C766 C762 1.389 . S
C766 C765 1.371 . S
C767 H756 0.970 . S
C767 H757 0.970 . S
C767 C763 1.532 . S
C767 C768 1.499 . S
C768 C767 1.499 . S
C768 C769 1.370 . S
C768 C773 1.415 . S
C769 H758 0.930 . S
C769 C768 1.370 . S
C769 C770 1.407 . S
C770 C769 1.407 . S
C770 C771 1.365 . S
C771 H759 0.930 . S
C771 C770 1.365 . S
C771 C772 1.393 . S
C772 C771 1.393 . S
C772 C773 1.387 . S
C773 H760 0.930 . S
C773 C768 1.415 . S
C773 C772 1.387 . S
H774 C782 0.930 . S
H775 C785 0.930 . S
H776 C787 0.930 . S
H777 C788 0.970 . S
H778 C788 0.970 . S
H779 C790 0.930 . S
H780 C792 0.930 . S
H781 C794 0.930 . S
C782 H774 0.930 . S
C782 C783 1.382 . S
C782 C784 1.426 . S
C783 C782 1.382 . S
C783 C787 1.389 . S
C784 C782 1.426 . S
C784 C785 1.375 . S
C784 C788 1.532 . S
C785 H775 0.930 . S
C785 C784 1.375 . S
C785 C786 1.416 . S
C786 C785 1.416 . S
C786 C787 1.371 . S
C787 H776 0.930 . S
C787 C783 1.389 . S
C787 C786 1.371 . S
C788 H777 0.970 . S
C788 H778 0.970 . S
C788 C784 1.532 . S
C788 C789 1.499 . S
C789 C788 1.499 . S
C789 C790 1.370 . S
C789 C794 1.415 . S
C790 H779 0.930 . S
C790 C789 1.370 . S
C790 C791 1.407 . S
C791 C790 1.407 . S
C791 C792 1.365 . S
C792 H780 0.930 . S
C792 C791 1.365 . S
C792 C793 1.393 . S
C793 C792 1.393 . S
C793 C794 1.387 . S
C794 H781 0.930 . S
C794 C789 1.415 . S
C794 C793 1.387 . S
H795 C803 0.930 . S
H796 C806 0.930 . S
H797 C808 0.930 . S
H798 C809 0.970 . S
H799 C809 0.970 . S
H800 C811 0.930 . S
H801 C813 0.930 . S
H802 C815 0.930 . S
C803 H795 0.930 . S
C803 C804 1.382 . S
C803 C805 1.426 . S
C804 C803 1.382 . S
C804 C808 1.389 . S
C805 C803 1.426 . S
C805 C806 1.375 . S
C805 C809 1.532 . S
C806 H796 0.930 . S
C806 C805 1.375 . S
C806 C807 1.416 . S
C807 C806 1.416 . S
C807 C808 1.371 . S
C808 H797 0.930 . S
C808 C804 1.389 . S
C808 C807 1.371 . S
C809 H798 0.970 . S
C809 H799 0.970 . S
C809 C805 1.532 . S
C809 C810 1.499 . S
C810 C809 1.499 . S
C810 C811 1.370 . S
C810 C815 1.415 . S
C811 H800 0.930 . S
C811 C810 1.370 . S
C811 C812 1.407 . S
C812 C811 1.407 . S
C812 C813 1.365 . S
C813 H801 0.930 . S
C813 C812 1.365 . S
C813 C814 1.393 . S
C814 C813 1.393 . S
C814 C815 1.387 . S
C815 H802 0.930 . S
C815 C810 1.415 . S
C815 C814 1.387 . S
H816 C824 0.930 . S
H817 C827 0.930 . S
H818 C829 0.930 . S
H819 C830 0.970 . S
H820 C830 0.970 . S
H821 C832 0.930 . S
H822 C834 0.930 . S
H823 C836 0.930 . S
C824 H816 0.930 . S
C824 C825 1.382 . S
C824 C826 1.426 . S
C825 C824 1.382 . S
C825 C829 1.389 . S
C826 C824 1.426 . S
C826 C827 1.375 . S
C826 C830 1.532 . S
C827 H817 0.930 . S
C827 C826 1.375 . S
C827 C828 1.416 . S
C828 C827 1.416 . S
C828 C829 1.371 . S
C829 H818 0.930 . S
C829 C825 1.389 . S
C829 C828 1.371 . S
C830 H819 0.970 . S
C830 H820 0.970 . S
C830 C826 1.532 . S
C830 C831 1.499 . S
C831 C830 1.499 . S
C831 C832 1.370 . S
C831 C836 1.415 . S
C832 H821 0.930 . S
C832 C831 1.370 . S
C832 C833 1.407 . S
C833 C832 1.407 . S
C833 C834 1.365 . S
C834 H822 0.930 . S
C834 C833 1.365 . S
C834 C835 1.393 . S
C835 C834 1.393 . S
C835 C836 1.387 . S
C836 H823 0.930 . S
C836 C831 1.415 . S
C836 C835 1.387 . S
H837 C845 0.930 . S
H838 C848 0.930 . S
H839 C850 0.930 . S
H840 C851 0.970 . S
H841 C851 0.970 . S
H842 C853 0.930 . S
H843 C855 0.930 . S
H844 C857 0.930 . S
C845 H837 0.930 . S
C845 C846 1.382 . S
C845 C847 1.426 . S
C846 C845 1.382 . S
C846 C850 1.389 1_455 S
C847 C845 1.426 . S
C847 C848 1.375 . S
C847 C851 1.532 . S
C848 H838 0.930 . S
C848 C847 1.375 . S
C848 C849 1.416 . S
C849 C848 1.416 . S
C849 C850 1.371 1_455 S
C850 H839 0.930 . S
C850 C846 1.389 1_655 S
C850 C849 1.371 1_655 S
C851 H840 0.970 . S
C851 H841 0.970 . S
C851 C847 1.532 . S
C851 C852 1.499 . S
C852 C851 1.499 . S
C852 C853 1.370 . S
C852 C857 1.415 . S
C853 H842 0.930 . S
C853 C852 1.370 . S
C853 C854 1.411 . S
C854 C853 1.411 . S
C854 C855 1.367 1_455 S
C855 H843 0.930 . S
C855 C854 1.367 1_655 S
C855 C856 1.393 1_655 S
C856 C855 1.393 1_455 S
C856 C857 1.387 . S
C857 H844 0.930 . S
C857 C852 1.415 . S
C857 C856 1.387 . S
H858 C866 0.930 . S
H859 C869 0.930 . S
H860 C871 0.930 . S
H861 C872 0.970 . S
H862 C872 0.970 . S
H863 C874 0.930 . S
H864 C876 0.930 . S
H865 C878 0.930 . S
C866 H858 0.930 . S
C866 C867 1.382 . S
C866 C868 1.426 . S
C867 C866 1.382 . S
C867 C871 1.389 . S
C868 C866 1.426 . S
C868 C869 1.375 . S
C868 C872 1.532 . S
C869 H859 0.930 . S
C869 C868 1.375 . S
C869 C870 1.416 . S
C870 C869 1.416 . S
C870 C871 1.371 . S
C871 H860 0.930 . S
C871 C867 1.389 . S
C871 C870 1.371 . S
C872 H861 0.970 . S
C872 H862 0.970 . S
C872 C868 1.532 . S
C872 C873 1.499 . S
C873 C872 1.499 . S
C873 C874 1.370 . S
C873 C878 1.415 . S
C874 H863 0.930 . S
C874 C873 1.370 . S
C874 C875 1.407 . S
C875 C874 1.407 . S
C875 C876 1.365 . S
C876 H864 0.930 . S
C876 C875 1.365 . S
C876 C877 1.393 . S
C877 C876 1.393 . S
C877 C878 1.387 . S
C878 H865 0.930 . S
C878 C873 1.415 . S
C878 C877 1.387 . S
H879 C887 0.930 . S
H880 C890 0.930 . S
H881 C892 0.930 . S
H882 C893 0.970 . S
H883 C893 0.970 . S
H884 C895 0.930 . S
H885 C897 0.930 . S
H886 C899 0.930 . S
C887 H879 0.930 . S
C887 C888 1.382 . S
C887 C889 1.426 . S
C888 C887 1.382 . S
C888 C892 1.389 1_565 S
C889 C887 1.426 . S
C889 C890 1.375 . S
C889 C893 1.532 . S
C890 H880 0.930 . S
C890 C889 1.375 . S
C890 C891 1.416 . S
C891 C890 1.416 . S
C891 C892 1.371 1_565 S
C892 H881 0.930 . S
C892 C888 1.389 1_545 S
C892 C891 1.371 1_545 S
C893 H882 0.970 . S
C893 H883 0.970 . S
C893 C889 1.532 . S
C893 C894 1.499 . S
C894 C893 1.499 . S
C894 C895 1.370 . S
C894 C899 1.415 . S
C895 H884 0.930 . S
C895 C894 1.370 . S
C895 C896 1.448 . S
C896 C895 1.448 . S
C896 C897 1.349 1_565 S
C897 H885 0.930 . S
C897 C896 1.349 1_545 S
C897 C898 1.393 1_545 S
C898 C897 1.393 1_565 S
C898 C899 1.387 . S
C899 H886 0.930 . S
C899 C894 1.415 . S
C899 C898 1.387 . S
H900 C908 0.930 . S
H901 C911 0.930 . S
H902 C913 0.930 . S
H903 C914 0.970 . S
H904 C914 0.970 . S
H905 C916 0.930 . S
H906 C918 0.930 . S
H907 C920 0.930 . S
C908 H900 0.930 . S
C908 C909 1.382 . S
C908 C910 1.426 . S
C909 C908 1.382 . S
C909 C913 1.389 1_565 S
C910 C908 1.426 . S
C910 C911 1.375 . S
C910 C914 1.532 . S
C911 H901 0.930 . S
C911 C910 1.375 . S
C911 C912 1.416 . S
C912 C911 1.416 . S
C912 C913 1.371 1_565 S
C913 H902 0.930 . S
C913 C909 1.389 1_545 S
C913 C912 1.371 1_545 S
C914 H903 0.970 . S
C914 H904 0.970 . S
C914 C910 1.532 . S
C914 C915 1.499 . S
C915 C914 1.499 . S
C915 C916 1.370 . S
C915 C920 1.415 . S
C916 H905 0.930 . S
C916 C915 1.370 . S
C916 C917 1.407 . S
C917 C916 1.407 . S
C917 C918 1.365 1_565 S
C918 H906 0.930 . S
C918 C917 1.365 1_545 S
C918 C919 1.393 1_545 S
C919 C918 1.393 1_565 S
C919 C920 1.387 . S
C920 H907 0.930 . S
C920 C915 1.415 . S
C920 C919 1.387 . S
H921 C929 0.930 . S
H922 C932 0.930 . S
H923 C934 0.930 . S
H924 C935 0.970 . S
H925 C935 0.970 . S
H926 C937 0.930 . S
H927 C939 0.930 . S
H928 C941 0.930 . S
C929 H921 0.930 . S
C929 C930 1.382 . S
C929 C931 1.426 . S
C930 C929 1.382 . S
C930 C934 1.389 1_455 S
C931 C929 1.426 . S
C931 C932 1.375 . S
C931 C935 1.532 . S
C932 H922 0.930 . S
C932 C931 1.375 . S
C932 C933 1.416 . S
C933 C932 1.416 . S
C933 C934 1.371 1_455 S
C934 H923 0.930 . S
C934 C930 1.389 1_655 S
C934 C933 1.371 1_655 S
C935 H924 0.970 . S
C935 H925 0.970 . S
C935 C931 1.532 . S
C935 C936 1.499 . S
C936 C935 1.499 . S
C936 C937 1.370 . S
C936 C941 1.415 . S
C937 H926 0.930 . S
C937 C936 1.370 . S
C937 C938 1.407 . S
C938 C937 1.407 . S
C938 C939 1.365 1_455 S
C939 H927 0.930 . S
C939 C938 1.365 1_655 S
C939 C940 1.393 1_655 S
C940 C939 1.393 1_455 S
C940 C941 1.387 . S
C941 H928 0.930 . S
C941 C936 1.415 . S
C941 C940 1.387 . S
H942 C950 0.930 . S
H943 C953 0.930 . S
H944 C955 0.930 . S
H945 C956 0.970 . S
H946 C956 0.970 . S
H947 C958 0.930 . S
H948 C960 0.930 . S
H949 C962 0.930 . S
C950 H942 0.930 . S
C950 C951 1.382 . S
C950 C952 1.426 . S
C951 C950 1.382 . S
C951 C955 1.389 . S
C952 C950 1.426 . S
C952 C953 1.375 . S
C952 C956 1.532 . S
C953 H943 0.930 . S
C953 C952 1.375 . S
C953 C954 1.416 . S
C954 C953 1.416 . S
C954 C955 1.371 . S
C955 H944 0.930 . S
C955 C951 1.389 . S
C955 C954 1.371 . S
C956 H945 0.970 . S
C956 H946 0.970 . S
C956 C952 1.532 . S
C956 C957 1.499 . S
C957 C956 1.499 . S
C957 C958 1.370 . S
C957 C962 1.415 . S
C958 H947 0.930 . S
C958 C957 1.370 . S
C958 C959 1.407 . S
C959 C958 1.407 . S
C959 C960 1.365 . S
C960 H948 0.930 . S
C960 C959 1.365 . S
C960 C961 1.393 . S
C961 C960 1.393 . S
C961 C962 1.387 . S
C962 H949 0.930 . S
C962 C957 1.415 . S
C962 C961 1.387 . S
H963 C971 0.930 . S
H964 C974 0.930 . S
H965 C976 0.930 . S
H966 C977 0.970 . S
H967 C977 0.970 . S
H968 C979 0.930 . S
H969 C981 0.930 . S
H970 C983 0.930 . S
C971 H963 0.930 . S
C971 C972 1.382 . S
C971 C973 1.426 . S
C972 C971 1.382 . S
C972 C976 1.389 . S
C973 C971 1.426 . S
C973 C974 1.375 . S
C973 C977 1.532 . S
C974 H964 0.930 . S
C974 C973 1.375 . S
C974 C975 1.416 . S
C975 C974 1.416 . S
C975 C976 1.371 . S
C976 H965 0.930 . S
C976 C972 1.389 . S
C976 C975 1.371 . S
C977 H966 0.970 . S
C977 H967 0.970 . S
C977 C973 1.532 . S
C977 C978 1.499 . S
C978 C977 1.499 . S
C978 C979 1.370 . S
C978 C983 1.415 . S
C979 H968 0.930 . S
C979 C978 1.370 . S
C979 C980 1.407 . S
C980 C979 1.407 . S
C980 C981 1.365 . S
C981 H969 0.930 . S
C981 C980 1.365 . S
C981 C982 1.393 . S
C982 C981 1.393 . S
C982 C983 1.387 . S
C983 H970 0.930 . S
C983 C978 1.415 . S
C983 C982 1.387 . S
H984 C992 0.930 . S
H985 C995 0.930 . S
H986 C997 0.930 . S
H987 C998 0.970 . S
H988 C998 0.970 . S
H989 C1000 0.930 . S
H990 C1002 0.930 . S
H991 C1004 0.930 . S
C992 H984 0.930 . S
C992 C993 1.382 . S
C992 C994 1.426 . S
C993 C992 1.382 . S
C993 C997 1.389 . S
C994 C992 1.426 . S
C994 C995 1.375 . S
C994 C998 1.532 . S
C995 H985 0.930 . S
C995 C994 1.375 . S
C995 C996 1.416 . S
C996 C995 1.416 . S
C996 C997 1.371 . S
C997 H986 0.930 . S
C997 C993 1.389 . S
C997 C996 1.371 . S
C998 H987 0.970 . S
C998 H988 0.970 . S
C998 C994 1.532 . S
C998 C999 1.499 . S
C999 C998 1.499 . S
C999 C1000 1.370 . S
C999 C1004 1.415 . S
C1000 H989 0.930 . S
C1000 C999 1.370 . S
C1000 C1001 1.407 . S
C1001 C1000 1.407 . S
C1001 C1002 1.365 . S
C1002 H990 0.930 . S
C1002 C1001 1.365 . S
C1002 C1003 1.393 . S
C1003 C1002 1.393 . S
C1003 C1004 1.387 . S
C1004 H991 0.930 . S
C1004 C999 1.415 . S
C1004 C1003 1.387 . S
H1005 C1013 0.930 . S
H1006 C1016 0.930 . S
H1007 C1018 0.930 . S
H1008 C1019 0.970 . S
H1009 C1019 0.970 . S
H1010 C1021 0.930 . S
H1011 C1023 0.930 . S
H1012 C1025 0.930 . S
C1013 H1005 0.930 . S
C1013 C1014 1.382 . S
C1013 C1015 1.426 . S
C1014 C1013 1.382 . S
C1014 C1018 1.389 . S
C1015 C1013 1.426 . S
C1015 C1016 1.375 . S
C1015 C1019 1.532 . S
C1016 H1006 0.930 . S
C1016 C1015 1.375 . S
C1016 C1017 1.416 . S
C1017 C1016 1.416 . S
C1017 C1018 1.371 . S
C1018 H1007 0.930 . S
C1018 C1014 1.389 . S
C1018 C1017 1.371 . S
C1019 H1008 0.970 . S
C1019 H1009 0.970 . S
C1019 C1015 1.532 . S
C1019 C1020 1.499 . S
C1020 C1019 1.499 . S
C1020 C1021 1.370 . S
C1020 C1025 1.415 . S
C1021 H1010 0.930 . S
C1021 C1020 1.370 . S
C1021 C1022 1.407 . S
C1022 C1021 1.407 . S
C1022 C1023 1.365 . S
C1023 H1011 0.930 . S
C1023 C1022 1.365 . S
C1023 C1024 1.393 . S
C1024 C1023 1.393 . S
C1024 C1025 1.387 . S
C1025 H1012 0.930 . S
C1025 C1020 1.415 . S
C1025 C1024 1.387 . S
H1026 C1032 0.930 . S
H1027 C1036 0.930 . S
H1028 C1041 0.929 . S
H1029 C1039 0.929 . S
H1030 C1034 0.929 . S
H1031 C1040 0.929 . S
C1032 H1026 0.930 . S
C1032 C1033 1.367 . S
C1032 C1040 1.378 . S
C1033 C1032 1.367 . S
C1033 C1041 1.433 1_655 S
C1034 H1030 0.929 . S
C1034 C1036 1.378 . S
C1034 C1038 1.350 1_455 S
C1035 C1038 1.463 . S
C1035 C1040 1.350 . S
C1035 N1043 1.427 1_655 S
C1036 H1027 0.930 . S
C1036 C1034 1.378 . S
C1036 C1037 1.367 1_455 S
C1037 C1036 1.367 1_655 S
C1037 C1039 1.433 . S
C1038 C1034 1.350 1_655 S
C1038 C1035 1.463 . S
C1038 N1042 1.427 . S
C1039 H1029 0.929 . S
C1039 C1037 1.433 . S
C1039 N1042 1.384 . S
C1040 H1031 0.929 . S
C1040 C1032 1.378 . S
C1040 C1035 1.350 . S
C1041 H1028 0.929 . S
C1041 C1033 1.433 1_455 S
C1041 N1043 1.384 . S
N1042 C1038 1.427 . S
N1042 C1039 1.384 . S
N1043 C1035 1.427 1_455 S
N1043 C1041 1.384 . S
H1044 C1050 0.930 . S
H1045 C1054 0.930 . S
H1046 C1059 0.929 . S
H1047 C1057 0.929 . S
H1048 C1052 0.929 . S
H1049 C1058 0.929 . S
C1050 H1044 0.930 . S
C1050 C1051 1.367 . S
C1050 C1058 1.378 . S
C1051 C1050 1.367 . S
C1051 C1059 1.433 . S
C1052 H1048 0.929 . S
C1052 C1054 1.378 . S
C1052 C1056 1.350 . S
C1053 C1056 1.463 . S
C1053 C1058 1.350 . S
C1053 N1061 1.427 . S
C1054 H1045 0.930 . S
C1054 C1052 1.378 . S
C1054 C1055 1.367 . S
C1055 C1054 1.367 . S
C1055 C1057 1.433 . S
C1056 C1052 1.350 . S
C1056 C1053 1.463 . S
C1056 N1060 1.427 . S
C1057 H1047 0.929 . S
C1057 C1055 1.433 . S
C1057 N1060 1.384 . S
C1058 H1049 0.929 . S
C1058 C1050 1.378 . S
C1058 C1053 1.350 . S
C1059 H1046 0.929 . S
C1059 C1051 1.433 . S
C1059 N1061 1.384 . S
N1060 C1056 1.427 . S
N1060 C1057 1.384 . S
N1061 C1053 1.427 . S
N1061 C1059 1.384 . S
H1062 C1068 0.930 . S
H1063 C1072 0.930 . S
H1064 C1077 0.929 . S
H1065 C1075 0.929 . S
H1066 C1070 0.929 . S
H1067 C1076 0.929 . S
C1068 H1062 0.930 . S
C1068 C1069 1.367 . S
C1068 C1076 1.378 . S
C1069 C1068 1.367 . S
C1069 C1077 1.433 1_545 S
C1070 H1066 0.929 . S
C1070 C1072 1.378 . S
C1070 C1074 1.350 1_565 S
C1071 C1074 1.463 . S
C1071 C1076 1.350 . S
C1071 N1079 1.427 1_545 S
C1072 H1063 0.930 . S
C1072 C1070 1.378 . S
C1072 C1073 1.367 1_565 S
C1073 C1072 1.367 1_545 S
C1073 C1075 1.433 . S
C1074 C1070 1.350 1_545 S
C1074 C1071 1.463 . S
C1074 N1078 1.427 . S
C1075 H1065 0.929 . S
C1075 C1073 1.433 . S
C1075 N1078 1.384 . S
C1076 H1067 0.929 . S
C1076 C1068 1.378 . S
C1076 C1071 1.350 . S
C1077 H1064 0.929 . S
C1077 C1069 1.433 1_565 S
C1077 N1079 1.384 . S
N1078 C1074 1.427 . S
N1078 C1075 1.384 . S
N1079 C1071 1.427 1_565 S
N1079 C1077 1.384 . S
H1080 C1086 0.930 . S
H1081 C1090 0.930 . S
H1082 C1095 0.929 . S
H1083 C1093 0.929 . S
H1084 C1088 0.929 . S
H1085 C1094 0.929 . S
C1086 H1080 0.930 . S
C1086 C1087 1.367 . S
C1086 C1094 1.378 . S
C1087 C1086 1.367 . S
C1087 C1095 1.433 1_565 S
C1088 H1084 0.929 . S
C1088 C1090 1.378 . S
C1088 C1092 1.350 1_545 S
C1089 C1092 1.463 . S
C1089 C1094 1.350 . S
C1089 N1097 1.427 1_565 S
C1090 H1081 0.930 . S
C1090 C1088 1.378 . S
C1090 C1091 1.367 1_545 S
C1091 C1090 1.367 1_565 S
C1091 C1093 1.433 . S
C1092 C1088 1.350 1_565 S
C1092 C1089 1.463 . S
C1092 N1096 1.427 . S
C1093 H1083 0.929 . S
C1093 C1091 1.433 . S
C1093 N1096 1.384 . S
C1094 H1085 0.929 . S
C1094 C1086 1.378 . S
C1094 C1089 1.350 . S
C1095 H1082 0.929 . S
C1095 C1087 1.433 1_545 S
C1095 N1097 1.384 . S
N1096 C1092 1.427 . S
N1096 C1093 1.384 . S
N1097 C1089 1.427 1_545 S
N1097 C1095 1.384 . S
H1098 C1104 0.930 . S
H1099 C1108 0.930 . S
H1100 C1113 0.929 . S
H1101 C1111 0.929 . S
H1102 C1106 0.929 . S
H1103 C1112 0.929 . S
C1104 H1098 0.930 . S
C1104 C1105 1.367 . S
C1104 C1112 1.378 . S
C1105 C1104 1.367 . S
C1105 C1113 1.433 1_455 S
C1106 H1102 0.929 . S
C1106 C1108 1.378 . S
C1106 C1110 1.350 1_655 S
C1107 C1110 1.463 . S
C1107 C1112 1.350 . S
C1107 N1115 1.427 1_455 S
C1108 H1099 0.930 . S
C1108 C1106 1.378 . S
C1108 C1109 1.367 1_655 S
C1109 C1108 1.367 1_455 S
C1109 C1111 1.433 . S
C1110 C1106 1.350 1_455 S
C1110 C1107 1.463 . S
C1110 N1114 1.427 . S
C1111 H1101 0.929 . S
C1111 C1109 1.433 . S
C1111 N1114 1.384 . S
C1112 H1103 0.929 . S
C1112 C1104 1.378 . S
C1112 C1107 1.350 . S
C1113 H1100 0.929 . S
C1113 C1105 1.433 1_655 S
C1113 N1115 1.384 . S
N1114 C1110 1.427 . S
N1114 C1111 1.384 . S
N1115 C1107 1.427 1_655 S
N1115 C1113 1.384 . S
H1116 C1122 0.930 . S
H1117 C1126 0.930 . S
H1118 C1131 0.929 . S
H1119 C1129 0.929 . S
H1120 C1124 0.929 . S
H1121 C1130 0.929 . S
C1122 H1116 0.930 . S
C1122 C1123 1.367 . S
C1122 C1130 1.378 . S
C1123 C1122 1.367 . S
C1123 C1131 1.433 . S
C1124 H1120 0.929 . S
C1124 C1126 1.378 . S
C1124 C1128 1.350 . S
C1125 C1128 1.463 . S
C1125 C1130 1.350 . S
C1125 N1133 1.427 . S
C1126 H1117 0.930 . S
C1126 C1124 1.378 . S
C1126 C1127 1.367 . S
C1127 C1126 1.367 . S
C1127 C1129 1.433 . S
C1128 C1124 1.350 . S
C1128 C1125 1.463 . S
C1128 N1132 1.427 . S
C1129 H1119 0.929 . S
C1129 C1127 1.433 . S
C1129 N1132 1.384 . S
C1130 H1121 0.929 . S
C1130 C1122 1.378 . S
C1130 C1125 1.350 . S
C1131 H1118 0.929 . S
C1131 C1123 1.433 . S
C1131 N1133 1.384 . S
N1132 C1128 1.427 . S
N1132 C1129 1.384 . S
N1133 C1125 1.427 . S
N1133 C1131 1.384 . S
H1134 C1140 0.930 . S
H1135 C1144 0.930 . S
H1136 C1149 0.929 . S
H1137 C1147 0.929 . S
H1138 C1142 0.929 . S
H1139 C1148 0.929 . S
C1140 H1134 0.930 . S
C1140 C1141 1.367 . S
C1140 C1148 1.378 . S
C1141 C1140 1.367 . S
C1141 C1149 1.433 1_455 S
C1142 H1138 0.929 . S
C1142 C1144 1.378 . S
C1142 C1146 1.350 1_655 S
C1143 C1146 1.463 . S
C1143 C1148 1.350 . S
C1143 N1151 1.427 1_455 S
C1144 H1135 0.930 . S
C1144 C1142 1.378 . S
C1144 C1145 1.329 1_655 S
C1145 C1144 1.329 1_455 S
C1145 C1147 1.451 . S
C1146 C1142 1.350 1_455 S
C1146 C1143 1.463 . S
C1146 N1150 1.427 . S
C1147 H1137 0.929 . S
C1147 C1145 1.451 . S
C1147 N1150 1.384 . S
C1148 H1139 0.929 . S
C1148 C1140 1.378 . S
C1148 C1143 1.350 . S
C1149 H1136 0.929 . S
C1149 C1141 1.433 1_655 S
C1149 N1151 1.384 . S
N1150 C1146 1.427 . S
N1150 C1147 1.384 . S
N1151 C1143 1.427 1_655 S
N1151 C1149 1.384 . S
H1152 C1158 0.930 . S
H1153 C1162 0.930 . S
H1154 C1167 0.929 . S
H1155 C1165 0.929 . S
H1156 C1160 0.929 . S
H1157 C1166 0.929 . S
C1158 H1152 0.930 . S
C1158 C1159 1.367 . S
C1158 C1166 1.378 . S
C1159 C1158 1.367 . S
C1159 C1167 1.433 . S
C1160 H1156 0.929 . S
C1160 C1162 1.378 . S
C1160 C1164 1.350 . S
C1161 C1164 1.463 . S
C1161 C1166 1.350 . S
C1161 N1169 1.427 . S
C1162 H1153 0.930 . S
C1162 C1160 1.378 . S
C1162 C1163 1.367 . S
C1163 C1162 1.367 . S
C1163 C1165 1.433 . S
C1164 C1160 1.350 . S
C1164 C1161 1.463 . S
C1164 N1168 1.427 . S
C1165 H1155 0.929 . S
C1165 C1163 1.433 . S
C1165 N1168 1.384 . S
C1166 H1157 0.929 . S
C1166 C1158 1.378 . S
C1166 C1161 1.350 . S
C1167 H1154 0.929 . S
C1167 C1159 1.433 . S
C1167 N1169 1.384 . S
N1168 C1164 1.427 . S
N1168 C1165 1.384 . S
N1169 C1161 1.427 . S
N1169 C1167 1.384 . S
H1170 C1176 0.930 . S
H1171 C1180 0.930 . S
H1172 C1185 0.929 . S
H1173 C1183 0.929 . S
H1174 C1178 0.929 . S
H1175 C1184 0.929 . S
C1176 H1170 0.930 . S
C1176 C1177 1.367 1_545 S
C1176 C1184 1.378 . S
C1177 C1176 1.367 1_565 S
C1177 C1185 1.433 . S
C1178 H1174 0.929 . S
C1178 C1180 1.378 . S
C1178 C1182 1.350 . S
C1179 C1182 1.443 . S
C1179 C1184 1.319 1_565 S
C1179 N1187 1.482 . S
C1180 H1171 0.930 . S
C1180 C1178 1.378 . S
C1180 C1181 1.427 . S
C1181 C1180 1.427 . S
C1181 C1183 1.398 1_565 S
C1182 C1178 1.350 . S
C1182 C1179 1.443 . S
C1182 N1186 1.427 1_565 S
C1183 H1173 0.929 . S
C1183 C1181 1.398 1_545 S
C1183 N1186 1.384 . S
C1184 H1175 0.929 . S
C1184 C1176 1.378 . S
C1184 C1179 1.319 1_545 S
C1185 H1172 0.929 . S
C1185 C1177 1.433 . S
C1185 N1187 1.384 . S
N1186 C1182 1.427 1_545 S
N1186 C1183 1.384 . S
N1187 C1179 1.482 . S
N1187 C1185 1.384 . S
H1188 C1194 0.930 . S
H1189 C1198 0.930 . S
H1190 C1203 0.929 . S
H1191 C1201 0.929 . S
H1192 C1196 0.929 . S
H1193 C1202 0.929 . S
C1194 H1188 0.930 . S
C1194 C1195 1.367 1_565 S
C1194 C1202 1.378 . S
C1195 C1194 1.367 1_545 S
C1195 C1203 1.433 . S
C1196 H1192 0.929 . S
C1196 C1198 1.378 . S
C1196 C1200 1.350 . S
C1197 C1200 1.463 . S
C1197 C1202 1.350 1_545 S
C1197 N1205 1.427 . S
C1198 H1189 0.930 . S
C1198 C1196 1.378 . S
C1198 C1199 1.367 . S
C1199 C1198 1.367 . S
C1199 C1201 1.433 1_545 S
C1200 C1196 1.350 . S
C1200 C1197 1.463 . S
C1200 N1204 1.427 1_545 S
C1201 H1191 0.929 . S
C1201 C1199 1.433 1_565 S
C1201 N1204 1.384 . S
C1202 H1193 0.929 . S
C1202 C1194 1.378 . S
C1202 C1197 1.350 1_565 S
C1203 H1190 0.929 . S
C1203 C1195 1.433 . S
C1203 N1205 1.384 . S
N1204 C1200 1.427 1_565 S
N1204 C1201 1.384 . S
N1205 C1197 1.427 . S
N1205 C1203 1.384 . S
H1206 C1212 0.930 . S
H1207 C1216 0.930 . S
H1208 C1221 0.929 . S
H1209 C1219 0.929 . S
H1210 C1214 0.929 . S
H1211 C1220 0.929 . S
C1212 H1206 0.930 . S
C1212 C1213 1.367 1_455 S
C1212 C1220 1.378 . S
C1213 C1212 1.367 1_655 S
C1213 C1221 1.433 . S
C1214 H1210 0.929 . S
C1214 C1216 1.378 . S
C1214 C1218 1.368 . S
C1215 C1218 1.462 . S
C1215 C1220 1.334 1_655 S
C1215 N1223 1.471 . S
C1216 H1207 0.930 . S
C1216 C1214 1.378 . S
C1216 C1217 1.384 . S
C1217 C1216 1.384 . S
C1217 C1219 1.426 1_655 S
C1218 C1214 1.368 . S
C1218 C1215 1.462 . S
C1218 N1222 1.387 1_655 S
C1219 H1209 0.929 . S
C1219 C1217 1.426 1_455 S
C1219 N1222 1.384 . S
C1220 H1211 0.929 . S
C1220 C1212 1.378 . S
C1220 C1215 1.334 1_455 S
C1221 H1208 0.929 . S
C1221 C1213 1.433 . S
C1221 N1223 1.384 . S
N1222 C1218 1.387 1_455 S
N1222 C1219 1.384 . S
N1223 C1215 1.471 . S
N1223 C1221 1.384 . S
H1224 C1230 0.930 . S
H1225 C1234 0.930 . S
H1226 C1239 0.929 . S
H1227 C1237 0.929 . S
H1228 C1232 0.929 . S
H1229 C1238 0.929 . S
C1230 H1224 0.930 . S
C1230 C1231 1.367 . S
C1230 C1238 1.378 . S
C1231 C1230 1.367 . S
C1231 C1239 1.433 . S
C1232 H1228 0.929 . S
C1232 C1234 1.378 . S
C1232 C1236 1.350 . S
C1233 C1236 1.463 . S
C1233 C1238 1.350 . S
C1233 N1241 1.427 . S
C1234 H1225 0.930 . S
C1234 C1232 1.378 . S
C1234 C1235 1.367 . S
C1235 C1234 1.367 . S
C1235 C1237 1.433 . S
C1236 C1232 1.350 . S
C1236 C1233 1.463 . S
C1236 N1240 1.427 . S
C1237 H1227 0.929 . S
C1237 C1235 1.433 . S
C1237 N1240 1.384 . S
C1238 H1229 0.929 . S
C1238 C1230 1.378 . S
C1238 C1233 1.350 . S
C1239 H1226 0.929 . S
C1239 C1231 1.433 . S
C1239 N1241 1.384 . S
N1240 C1236 1.427 . S
N1240 C1237 1.384 . S
N1241 C1233 1.427 . S
N1241 C1239 1.384 . S
H1242 C1248 0.930 . S
H1243 C1252 0.930 . S
H1244 C1257 0.929 . S
H1245 C1255 0.929 . S
H1246 C1250 0.929 . S
H1247 C1256 0.929 . S
C1248 H1242 0.930 . S
C1248 C1249 1.367 . S
C1248 C1256 1.378 . S
C1249 C1248 1.367 . S
C1249 C1257 1.433 . S
C1250 H1246 0.929 . S
C1250 C1252 1.378 . S
C1250 C1254 1.350 . S
C1251 C1254 1.463 . S
C1251 C1256 1.350 . S
C1251 N1259 1.427 . S
C1252 H1243 0.930 . S
C1252 C1250 1.378 . S
C1252 C1253 1.367 . S
C1253 C1252 1.367 . S
C1253 C1255 1.433 . S
C1254 C1250 1.350 . S
C1254 C1251 1.463 . S
C1254 N1258 1.427 . S
C1255 H1245 0.929 . S
C1255 C1253 1.433 . S
C1255 N1258 1.384 . S
C1256 H1247 0.929 . S
C1256 C1248 1.378 . S
C1256 C1251 1.350 . S
C1257 H1244 0.929 . S
C1257 C1249 1.433 . S
C1257 N1259 1.384 . S
N1258 C1254 1.427 . S
N1258 C1255 1.384 . S
N1259 C1251 1.427 . S
N1259 C1257 1.384 . S
H1260 C1266 0.930 . S
H1261 C1270 0.930 . S
H1262 C1275 0.929 . S
H1263 C1273 0.929 . S
H1264 C1268 0.929 . S
H1265 C1274 0.929 . S
C1266 H1260 0.930 . S
C1266 C1267 1.367 . S
C1266 C1274 1.378 . S
C1267 C1266 1.367 . S
C1267 C1275 1.433 . S
C1268 H1264 0.929 . S
C1268 C1270 1.378 . S
C1268 C1272 1.350 . S
C1269 C1272 1.463 . S
C1269 C1274 1.350 . S
C1269 N1277 1.427 . S
C1270 H1261 0.930 . S
C1270 C1268 1.378 . S
C1270 C1271 1.367 . S
C1271 C1270 1.367 . S
C1271 C1273 1.433 . S
C1272 C1268 1.350 . S
C1272 C1269 1.463 . S
C1272 N1276 1.427 . S
C1273 H1263 0.929 . S
C1273 C1271 1.433 . S
C1273 N1276 1.384 . S
C1274 H1265 0.929 . S
C1274 C1266 1.378 . S
C1274 C1269 1.350 . S
C1275 H1262 0.929 . S
C1275 C1267 1.433 . S
C1275 N1277 1.384 . S
N1276 C1272 1.427 . S
N1276 C1273 1.384 . S
N1277 C1269 1.427 . S
N1277 C1275 1.384 . S
H1278 C1284 0.930 . S
H1279 C1288 0.930 . S
H1280 C1293 0.929 . S
H1281 C1291 0.929 . S
H1282 C1286 0.929 . S
H1283 C1292 0.929 . S
C1284 H1278 0.930 . S
C1284 C1285 1.367 . S
C1284 C1292 1.378 . S
C1285 C1284 1.367 . S
C1285 C1293 1.433 . S
C1286 H1282 0.929 . S
C1286 C1288 1.378 . S
C1286 C1290 1.350 . S
C1287 C1290 1.463 . S
C1287 C1292 1.350 . S
C1287 N1295 1.427 . S
C1288 H1279 0.930 . S
C1288 C1286 1.378 . S
C1288 C1289 1.367 . S
C1289 C1288 1.367 . S
C1289 C1291 1.433 . S
C1290 C1286 1.350 . S
C1290 C1287 1.463 . S
C1290 N1294 1.427 . S
C1291 H1281 0.929 . S
C1291 C1289 1.433 . S
C1291 N1294 1.384 . S
C1292 H1283 0.929 . S
C1292 C1284 1.378 . S
C1292 C1287 1.350 . S
C1293 H1280 0.929 . S
C1293 C1285 1.433 . S
C1293 N1295 1.384 . S
N1294 C1290 1.427 . S
N1294 C1291 1.384 . S
N1295 C1287 1.427 . S
N1295 C1293 1.384 . S
H1296 C1302 0.930 . S
H1297 C1306 0.930 . S
H1298 C1311 0.929 . S
H1299 C1309 0.929 . S
H1300 C1304 0.929 . S
H1301 C1310 0.929 . S
C1302 H1296 0.930 . S
C1302 C1303 1.367 . S
C1302 C1310 1.378 . S
C1303 C1302 1.367 . S
C1303 C1311 1.433 . S
C1304 H1300 0.929 . S
C1304 C1306 1.378 . S
C1304 C1308 1.350 . S
C1305 C1308 1.463 . S
C1305 C1310 1.350 . S
C1305 N1313 1.427 . S
C1306 H1297 0.930 . S
C1306 C1304 1.378 . S
C1306 C1307 1.367 . S
C1307 C1306 1.367 . S
C1307 C1309 1.433 . S
C1308 C1304 1.350 . S
C1308 C1305 1.463 . S
C1308 N1312 1.427 . S
C1309 H1299 0.929 . S
C1309 C1307 1.433 . S
C1309 N1312 1.384 . S
C1310 H1301 0.929 . S
C1310 C1302 1.378 . S
C1310 C1305 1.350 . S
C1311 H1298 0.929 . S
C1311 C1303 1.433 . S
C1311 N1313 1.384 . S
N1312 C1308 1.427 . S
N1312 C1309 1.384 . S
N1313 C1305 1.427 . S
N1313 C1311 1.384 . S
H1314 C1320 0.930 . S
H1315 C1324 0.930 . S
H1316 C1329 0.929 . S
H1317 C1327 0.929 . S
H1318 C1322 0.929 . S
H1319 C1328 0.929 . S
C1320 H1314 0.930 . S
C1320 C1321 1.367 . S
C1320 C1328 1.378 . S
C1321 C1320 1.367 . S
C1321 C1329 1.433 . S
C1322 H1318 0.929 . S
C1322 C1324 1.378 . S
C1322 C1326 1.350 . S
C1323 C1326 1.463 . S
C1323 C1328 1.350 . S
C1323 N1331 1.427 . S
C1324 H1315 0.930 . S
C1324 C1322 1.378 . S
C1324 C1325 1.367 . S
C1325 C1324 1.367 . S
C1325 C1327 1.433 . S
C1326 C1322 1.350 . S
C1326 C1323 1.463 . S
C1326 N1330 1.427 . S
C1327 H1317 0.929 . S
C1327 C1325 1.433 . S
C1327 N1330 1.384 . S
C1328 H1319 0.929 . S
C1328 C1320 1.378 . S
C1328 C1323 1.350 . S
C1329 H1316 0.929 . S
C1329 C1321 1.433 . S
C1329 N1331 1.384 . S
N1330 C1326 1.427 . S
N1330 C1327 1.384 . S
N1331 C1323 1.427 . S
N1331 C1329 1.384 . S
H1332 C1338 0.930 . S
H1333 C1342 0.930 . S
H1334 C1347 0.929 . S
H1335 C1345 0.929 . S
H1336 C1340 0.929 . S
H1337 C1346 0.929 . S
C1338 H1332 0.930 . S
C1338 C1339 1.367 . S
C1338 C1346 1.378 . S
C1339 C1338 1.367 . S
C1339 C1347 1.433 . S
C1340 H1336 0.929 . S
C1340 C1342 1.378 . S
C1340 C1344 1.350 . S
C1341 C1344 1.463 . S
C1341 C1346 1.350 . S
C1341 N1349 1.427 . S
C1342 H1333 0.930 . S
C1342 C1340 1.378 . S
C1342 C1343 1.367 . S
C1343 C1342 1.367 . S
C1343 C1345 1.433 . S
C1344 C1340 1.350 . S
C1344 C1341 1.463 . S
C1344 N1348 1.427 . S
C1345 H1335 0.929 . S
C1345 C1343 1.433 . S
C1345 N1348 1.384 . S
C1346 H1337 0.929 . S
C1346 C1338 1.378 . S
C1346 C1341 1.350 . S
C1347 H1334 0.929 . S
C1347 C1339 1.433 . S
C1347 N1349 1.384 . S
N1348 C1344 1.427 . S
N1348 C1345 1.384 . S
N1349 C1341 1.427 . S
N1349 C1347 1.384 . S
H1350 C1356 0.930 . S
H1351 C1360 0.930 . S
H1352 C1365 0.929 . S
H1353 C1363 0.929 . S
H1354 C1358 0.929 . S
H1355 C1364 0.929 . S
C1356 H1350 0.930 . S
C1356 C1357 1.367 . S
C1356 C1364 1.378 . S
C1357 C1356 1.367 . S
C1357 C1365 1.433 . S
C1358 H1354 0.929 . S
C1358 C1360 1.378 . S
C1358 C1362 1.350 . S
C1359 C1362 1.463 . S
C1359 C1364 1.350 . S
C1359 N1367 1.427 . S
C1360 H1351 0.930 . S
C1360 C1358 1.378 . S
C1360 C1361 1.367 . S
C1361 C1360 1.367 . S
C1361 C1363 1.433 . S
C1362 C1358 1.350 . S
C1362 C1359 1.463 . S
C1362 N1366 1.427 . S
C1363 H1353 0.929 . S
C1363 C1361 1.433 . S
C1363 N1366 1.384 . S
C1364 H1355 0.929 . S
C1364 C1356 1.378 . S
C1364 C1359 1.350 . S
C1365 H1352 0.929 . S
C1365 C1357 1.433 . S
C1365 N1367 1.384 . S
N1366 C1362 1.427 . S
N1366 C1363 1.384 . S
N1367 C1359 1.427 . S
N1367 C1365 1.384 . S
H1368 C1374 0.930 . S
H1369 C1378 0.930 . S
H1370 C1383 0.929 . S
H1371 C1381 0.929 . S
H1372 C1376 0.929 . S
H1373 C1382 0.929 . S
C1374 H1368 0.930 . S
C1374 C1375 1.367 . S
C1374 C1382 1.378 . S
C1375 C1374 1.367 . S
C1375 C1383 1.433 . S
C1376 H1372 0.929 . S
C1376 C1378 1.378 . S
C1376 C1380 1.350 . S
C1377 C1380 1.463 . S
C1377 C1382 1.350 . S
C1377 N1385 1.427 . S
C1378 H1369 0.930 . S
C1378 C1376 1.378 . S
C1378 C1379 1.367 . S
C1379 C1378 1.367 . S
C1379 C1381 1.433 . S
C1380 C1376 1.350 . S
C1380 C1377 1.463 . S
C1380 N1384 1.427 . S
C1381 H1371 0.929 . S
C1381 C1379 1.433 . S
C1381 N1384 1.384 . S
C1382 H1373 0.929 . S
C1382 C1374 1.378 . S
C1382 C1377 1.350 . S
C1383 H1370 0.929 . S
C1383 C1375 1.433 . S
C1383 N1385 1.384 . S
N1384 C1380 1.427 . S
N1384 C1381 1.384 . S
N1385 C1377 1.427 . S
N1385 C1383 1.384 . S
H1386 C1392 0.930 . S
H1387 C1396 0.930 . S
H1388 C1401 0.929 . S
H1389 C1399 0.929 . S
H1390 C1394 0.929 . S
H1391 C1400 0.929 . S
C1392 H1386 0.930 . S
C1392 C1393 1.367 . S
C1392 C1400 1.378 . S
C1393 C1392 1.367 . S
C1393 C1401 1.433 . S
C1394 H1390 0.929 . S
C1394 C1396 1.378 . S
C1394 C1398 1.350 . S
C1395 C1398 1.463 . S
C1395 C1400 1.350 . S
C1395 N1403 1.427 . S
C1396 H1387 0.930 . S
C1396 C1394 1.378 . S
C1396 C1397 1.367 . S
C1397 C1396 1.367 . S
C1397 C1399 1.433 . S
C1398 C1394 1.350 . S
C1398 C1395 1.463 . S
C1398 N1402 1.427 . S
C1399 H1389 0.929 . S
C1399 C1397 1.433 . S
C1399 N1402 1.384 . S
C1400 H1391 0.929 . S
C1400 C1392 1.378 . S
C1400 C1395 1.350 . S
C1401 H1388 0.929 . S
C1401 C1393 1.433 . S
C1401 N1403 1.384 . S
N1402 C1398 1.427 . S
N1402 C1399 1.384 . S
N1403 C1395 1.427 . S
N1403 C1401 1.384 . S
H1404 C1410 0.930 . S
H1405 C1414 0.930 . S
H1406 C1419 0.929 . S
H1407 C1417 0.929 . S
H1408 C1412 0.929 . S
H1409 C1418 0.929 . S
C1410 H1404 0.930 . S
C1410 C1411 1.367 . S
C1410 C1418 1.378 . S
C1411 C1410 1.367 . S
C1411 C1419 1.433 . S
C1412 H1408 0.929 . S
C1412 C1414 1.378 . S
C1412 C1416 1.350 . S
C1413 C1416 1.463 . S
C1413 C1418 1.350 . S
C1413 N1421 1.427 . S
C1414 H1405 0.930 . S
C1414 C1412 1.378 . S
C1414 C1415 1.367 . S
C1415 C1414 1.367 . S
C1415 C1417 1.433 . S
C1416 C1412 1.350 . S
C1416 C1413 1.463 . S
C1416 N1420 1.427 . S
C1417 H1407 0.929 . S
C1417 C1415 1.433 . S
C1417 N1420 1.384 . S
C1418 H1409 0.929 . S
C1418 C1410 1.378 . S
C1418 C1413 1.350 . S
C1419 H1406 0.929 . S
C1419 C1411 1.433 . S
C1419 N1421 1.384 . S
N1420 C1416 1.427 . S
N1420 C1417 1.384 . S
N1421 C1413 1.427 . S
N1421 C1419 1.384 . S
H1422 C1428 0.930 . S
H1423 C1432 0.930 . S
H1424 C1437 0.929 . S
H1425 C1435 0.929 . S
H1426 C1430 0.929 . S
H1427 C1436 0.929 . S
C1428 H1422 0.930 . S
C1428 C1429 1.367 . S
C1428 C1436 1.378 . S
C1429 C1428 1.367 . S
C1429 C1437 1.433 . S
C1430 H1426 0.929 . S
C1430 C1432 1.378 . S
C1430 C1434 1.350 . S
C1431 C1434 1.463 . S
C1431 C1436 1.350 . S
C1431 N1439 1.427 . S
C1432 H1423 0.930 . S
C1432 C1430 1.378 . S
C1432 C1433 1.367 . S
C1433 C1432 1.367 . S
C1433 C1435 1.433 . S
C1434 C1430 1.350 . S
C1434 C1431 1.463 . S
C1434 N1438 1.427 . S
C1435 H1425 0.929 . S
C1435 C1433 1.433 . S
C1435 N1438 1.384 . S
C1436 H1427 0.929 . S
C1436 C1428 1.378 . S
C1436 C1431 1.350 . S
C1437 H1424 0.929 . S
C1437 C1429 1.433 . S
C1437 N1439 1.384 . S
N1438 C1434 1.427 . S
N1438 C1435 1.384 . S
N1439 C1431 1.427 . S
N1439 C1437 1.384 . S
H1440 C1446 0.930 . S
H1441 C1450 0.930 . S
H1442 C1455 0.929 . S
H1443 C1453 0.929 . S
H1444 C1448 0.929 . S
H1445 C1454 0.929 . S
C1446 H1440 0.930 . S
C1446 C1447 1.367 . S
C1446 C1454 1.378 . S
C1447 C1446 1.367 . S
C1447 C1455 1.433 . S
C1448 H1444 0.929 . S
C1448 C1450 1.378 . S
C1448 C1452 1.350 . S
C1449 C1452 1.463 . S
C1449 C1454 1.350 . S
C1449 N1457 1.427 . S
C1450 H1441 0.930 . S
C1450 C1448 1.378 . S
C1450 C1451 1.367 . S
C1451 C1450 1.367 . S
C1451 C1453 1.433 . S
C1452 C1448 1.350 . S
C1452 C1449 1.463 . S
C1452 N1456 1.427 . S
C1453 H1443 0.929 . S
C1453 C1451 1.433 . S
C1453 N1456 1.384 . S
C1454 H1445 0.929 . S
C1454 C1446 1.378 . S
C1454 C1449 1.350 . S
C1455 H1442 0.929 . S
C1455 C1447 1.433 . S
C1455 N1457 1.384 . S
N1456 C1452 1.427 . S
N1456 C1453 1.384 . S
N1457 C1449 1.427 . S
N1457 C1455 1.384 . S
H1458 C1464 0.930 . S
H1459 C1468 0.930 . S
H1460 C1473 0.929 . S
H1461 C1471 0.929 . S
H1462 C1466 0.929 . S
H1463 C1472 0.929 . S
C1464 H1458 0.930 . S
C1464 C1465 1.367 . S
C1464 C1472 1.378 . S
C1465 C1464 1.367 . S
C1465 C1473 1.433 . S
C1466 H1462 0.929 . S
C1466 C1468 1.378 . S
C1466 C1470 1.350 . S
C1467 C1470 1.463 . S
C1467 C1472 1.350 . S
C1467 N1475 1.427 . S
C1468 H1459 0.930 . S
C1468 C1466 1.378 . S
C1468 C1469 1.367 . S
C1469 C1468 1.367 . S
C1469 C1471 1.433 . S
C1470 C1466 1.350 . S
C1470 C1467 1.463 . S
C1470 N1474 1.427 . S
C1471 H1461 0.929 . S
C1471 C1469 1.433 . S
C1471 N1474 1.384 . S
C1472 H1463 0.929 . S
C1472 C1464 1.378 . S
C1472 C1467 1.350 . S
C1473 H1460 0.929 . S
C1473 C1465 1.433 . S
C1473 N1475 1.384 . S
N1474 C1470 1.427 . S
N1474 C1471 1.384 . S
N1475 C1467 1.427 . S
N1475 C1473 1.384 . S
H1476 C1482 0.930 . S
H1477 C1486 0.930 . S
H1478 C1491 0.929 . S
H1479 C1489 0.929 . S
H1480 C1484 0.929 . S
H1481 C1490 0.929 . S
C1482 H1476 0.930 . S
C1482 C1483 1.367 . S
C1482 C1490 1.378 . S
C1483 C1482 1.367 . S
C1483 C1491 1.433 . S
C1484 H1480 0.929 . S
C1484 C1486 1.378 . S
C1484 C1488 1.350 . S
C1485 C1488 1.463 . S
C1485 C1490 1.350 . S
C1485 N1493 1.427 . S
C1486 H1477 0.930 . S
C1486 C1484 1.378 . S
C1486 C1487 1.367 . S
C1487 C1486 1.367 . S
C1487 C1489 1.433 . S
C1488 C1484 1.350 . S
C1488 C1485 1.463 . S
C1488 N1492 1.427 . S
C1489 H1479 0.929 . S
C1489 C1487 1.433 . S
C1489 N1492 1.384 . S
C1490 H1481 0.929 . S
C1490 C1482 1.378 . S
C1490 C1485 1.350 . S
C1491 H1478 0.929 . S
C1491 C1483 1.433 . S
C1491 N1493 1.384 . S
N1492 C1488 1.427 . S
N1492 C1489 1.384 . S
N1493 C1485 1.427 . S
N1493 C1491 1.384 . S
H1494 C1500 0.930 . S
H1495 C1504 0.930 . S
H1496 C1509 0.929 . S
H1497 C1507 0.929 . S
H1498 C1502 0.929 . S
H1499 C1508 0.929 . S
C1500 H1494 0.930 . S
C1500 C1501 1.367 . S
C1500 C1508 1.378 . S
C1501 C1500 1.367 . S
C1501 C1509 1.433 . S
C1502 H1498 0.929 . S
C1502 C1504 1.378 . S
C1502 C1506 1.350 . S
C1503 C1506 1.463 . S
C1503 C1508 1.350 . S
C1503 N1511 1.427 . S
C1504 H1495 0.930 . S
C1504 C1502 1.378 . S
C1504 C1505 1.367 . S
C1505 C1504 1.367 . S
C1505 C1507 1.433 . S
C1506 C1502 1.350 . S
C1506 C1503 1.463 . S
C1506 N1510 1.427 . S
C1507 H1497 0.929 . S
C1507 C1505 1.433 . S
C1507 N1510 1.384 . S
C1508 H1499 0.929 . S
C1508 C1500 1.378 . S
C1508 C1503 1.350 . S
C1509 H1496 0.929 . S
C1509 C1501 1.433 . S
C1509 N1511 1.384 . S
N1510 C1506 1.427 . S
N1510 C1507 1.384 . S
N1511 C1503 1.427 . S
N1511 C1509 1.384 . S
H1512 C1518 0.930 . S
H1513 C1522 0.930 . S
H1514 C1527 0.929 . S
H1515 C1525 0.929 . S
H1516 C1520 0.929 . S
H1517 C1526 0.929 . S
C1518 H1512 0.930 . S
C1518 C1519 1.367 . S
C1518 C1526 1.378 . S
C1519 C1518 1.367 . S
C1519 C1527 1.433 . S
C1520 H1516 0.929 . S
C1520 C1522 1.378 . S
C1520 C1524 1.350 . S
C1521 C1524 1.463 . S
C1521 C1526 1.350 . S
C1521 N1529 1.427 . S
C1522 H1513 0.930 . S
C1522 C1520 1.378 . S
C1522 C1523 1.367 . S
C1523 C1522 1.367 . S
C1523 C1525 1.433 . S
C1524 C1520 1.350 . S
C1524 C1521 1.463 . S
C1524 N1528 1.427 . S
C1525 H1515 0.929 . S
C1525 C1523 1.433 . S
C1525 N1528 1.384 . S
C1526 H1517 0.929 . S
C1526 C1518 1.378 . S
C1526 C1521 1.350 . S
C1527 H1514 0.929 . S
C1527 C1519 1.433 . S
C1527 N1529 1.384 . S
N1528 C1524 1.427 . S
N1528 C1525 1.384 . S
N1529 C1521 1.427 . S
N1529 C1527 1.384 . S
H1530 C1536 0.930 . S
H1531 C1540 0.930 . S
H1532 C1545 0.929 . S
H1533 C1543 0.929 . S
H1534 C1538 0.929 . S
H1535 C1544 0.929 . S
C1536 H1530 0.930 . S
C1536 C1537 1.367 . S
C1536 C1544 1.378 . S
C1537 C1536 1.367 . S
C1537 C1545 1.433 . S
C1538 H1534 0.929 . S
C1538 C1540 1.378 . S
C1538 C1542 1.350 . S
C1539 C1542 1.463 . S
C1539 C1544 1.350 . S
C1539 N1547 1.427 . S
C1540 H1531 0.930 . S
C1540 C1538 1.378 . S
C1540 C1541 1.367 . S
C1541 C1540 1.367 . S
C1541 C1543 1.433 . S
C1542 C1538 1.350 . S
C1542 C1539 1.463 . S
C1542 N1546 1.427 . S
C1543 H1533 0.929 . S
C1543 C1541 1.433 . S
C1543 N1546 1.384 . S
C1544 H1535 0.929 . S
C1544 C1536 1.378 . S
C1544 C1539 1.350 . S
C1545 H1532 0.929 . S
C1545 C1537 1.433 . S
C1545 N1547 1.384 . S
N1546 C1542 1.427 . S
N1546 C1543 1.384 . S
N1547 C1539 1.427 . S
N1547 C1545 1.384 . S
H1548 C1554 0.930 . S
H1549 C1558 0.930 . S
H1550 C1563 0.929 . S
H1551 C1561 0.929 . S
H1552 C1556 0.929 . S
H1553 C1562 0.929 . S
C1554 H1548 0.930 . S
C1554 C1555 1.367 . S
C1554 C1562 1.378 . S
C1555 C1554 1.367 . S
C1555 C1563 1.433 . S
C1556 H1552 0.929 . S
C1556 C1558 1.378 . S
C1556 C1560 1.350 . S
C1557 C1560 1.463 . S
C1557 C1562 1.350 . S
C1557 N1565 1.427 . S
C1558 H1549 0.930 . S
C1558 C1556 1.378 . S
C1558 C1559 1.367 . S
C1559 C1558 1.367 . S
C1559 C1561 1.433 . S
C1560 C1556 1.350 . S
C1560 C1557 1.463 . S
C1560 N1564 1.427 . S
C1561 H1551 0.929 . S
C1561 C1559 1.433 . S
C1561 N1564 1.384 . S
C1562 H1553 0.929 . S
C1562 C1554 1.378 . S
C1562 C1557 1.350 . S
C1563 H1550 0.929 . S
C1563 C1555 1.433 . S
C1563 N1565 1.384 . S
N1564 C1560 1.427 . S
N1564 C1561 1.384 . S
N1565 C1557 1.427 . S
N1565 C1563 1.384 . S
H1566 C1572 0.930 . S
H1567 C1576 0.930 . S
H1568 C1581 0.929 . S
H1569 C1579 0.929 . S
H1570 C1574 0.929 . S
H1571 C1580 0.929 . S
C1572 H1566 0.930 . S
C1572 C1573 1.367 . S
C1572 C1580 1.378 . S
C1573 C1572 1.367 . S
C1573 C1581 1.433 . S
C1574 H1570 0.929 . S
C1574 C1576 1.378 . S
C1574 C1578 1.350 . S
C1575 C1578 1.463 . S
C1575 C1580 1.350 . S
C1575 N1583 1.427 . S
C1576 H1567 0.930 . S
C1576 C1574 1.378 . S
C1576 C1577 1.367 . S
C1577 C1576 1.367 . S
C1577 C1579 1.433 . S
C1578 C1574 1.350 . S
C1578 C1575 1.463 . S
C1578 N1582 1.427 . S
C1579 H1569 0.929 . S
C1579 C1577 1.433 . S
C1579 N1582 1.384 . S
C1580 H1571 0.929 . S
C1580 C1572 1.378 . S
C1580 C1575 1.350 . S
C1581 H1568 0.929 . S
C1581 C1573 1.433 . S
C1581 N1583 1.384 . S
N1582 C1578 1.427 . S
N1582 C1579 1.384 . S
N1583 C1575 1.427 . S
N1583 C1581 1.384 . S
H1584 C1590 0.930 . S
H1585 C1594 0.930 . S
H1586 C1599 0.929 . S
H1587 C1597 0.929 . S
H1588 C1592 0.929 . S
H1589 C1598 0.929 . S
C1590 H1584 0.930 . S
C1590 C1591 1.367 . S
C1590 C1598 1.378 . S
C1591 C1590 1.367 . S
C1591 C1599 1.433 . S
C1592 H1588 0.929 . S
C1592 C1594 1.378 . S
C1592 C1596 1.350 . S
C1593 C1596 1.463 . S
C1593 C1598 1.350 . S
C1593 N1601 1.427 . S
C1594 H1585 0.930 . S
C1594 C1592 1.378 . S
C1594 C1595 1.367 . S
C1595 C1594 1.367 . S
C1595 C1597 1.433 . S
C1596 C1592 1.350 . S
C1596 C1593 1.463 . S
C1596 N1600 1.427 . S
C1597 H1587 0.929 . S
C1597 C1595 1.433 . S
C1597 N1600 1.384 . S
C1598 H1589 0.929 . S
C1598 C1590 1.378 . S
C1598 C1593 1.350 . S
C1599 H1586 0.929 . S
C1599 C1591 1.433 . S
C1599 N1601 1.384 . S
N1600 C1596 1.427 . S
N1600 C1597 1.384 . S
N1601 C1593 1.427 . S
N1601 C1599 1.384 . S
H1602 C1608 0.930 . S
H1603 C1612 0.930 . S
H1604 C1617 0.929 . S
H1605 C1615 0.929 . S
H1606 C1610 0.929 . S
H1607 C1616 0.929 . S
C1608 H1602 0.930 . S
C1608 C1609 1.367 . S
C1608 C1616 1.378 . S
C1609 C1608 1.367 . S
C1609 C1617 1.433 . S
C1610 H1606 0.929 . S
C1610 C1612 1.378 . S
C1610 C1614 1.350 . S
C1611 C1614 1.463 . S
C1611 C1616 1.350 . S
C1611 N1619 1.427 . S
C1612 H1603 0.930 . S
C1612 C1610 1.378 . S
C1612 C1613 1.367 . S
C1613 C1612 1.367 . S
C1613 C1615 1.433 . S
C1614 C1610 1.350 . S
C1614 C1611 1.463 . S
C1614 N1618 1.427 . S
C1615 H1605 0.929 . S
C1615 C1613 1.433 . S
C1615 N1618 1.384 . S
C1616 H1607 0.929 . S
C1616 C1608 1.378 . S
C1616 C1611 1.350 . S
C1617 H1604 0.929 . S
C1617 C1609 1.433 . S
C1617 N1619 1.384 . S
N1618 C1614 1.427 . S
N1618 C1615 1.384 . S
N1619 C1611 1.427 . S
N1619 C1617 1.384 . S
H1620 C1626 0.930 . S
H1621 C1630 0.930 . S
H1622 C1635 0.929 . S
H1623 C1633 0.929 . S
H1624 C1628 0.929 . S
H1625 C1634 0.929 . S
C1626 H1620 0.930 . S
C1626 C1627 1.367 . S
C1626 C1634 1.378 . S
C1627 C1626 1.367 . S
C1627 C1635 1.433 . S
C1628 H1624 0.929 . S
C1628 C1630 1.378 . S
C1628 C1632 1.350 . S
C1629 C1632 1.463 . S
C1629 C1634 1.350 . S
C1629 N1637 1.427 . S
C1630 H1621 0.930 . S
C1630 C1628 1.378 . S
C1630 C1631 1.367 . S
C1631 C1630 1.367 . S
C1631 C1633 1.433 . S
C1632 C1628 1.350 . S
C1632 C1629 1.463 . S
C1632 N1636 1.427 . S
C1633 H1623 0.929 . S
C1633 C1631 1.433 . S
C1633 N1636 1.384 . S
C1634 H1625 0.929 . S
C1634 C1626 1.378 . S
C1634 C1629 1.350 . S
C1635 H1622 0.929 . S
C1635 C1627 1.433 . S
C1635 N1637 1.384 . S
N1636 C1632 1.427 . S
N1636 C1633 1.384 . S
N1637 C1629 1.427 . S
N1637 C1635 1.384 . S
H1638 C1644 0.930 . S
H1639 C1648 0.930 . S
H1640 C1653 0.929 . S
H1641 C1651 0.929 . S
H1642 C1646 0.929 . S
H1643 C1652 0.929 . S
C1644 H1638 0.930 . S
C1644 C1645 1.367 . S
C1644 C1652 1.378 . S
C1645 C1644 1.367 . S
C1645 C1653 1.433 . S
C1646 H1642 0.929 . S
C1646 C1648 1.378 . S
C1646 C1650 1.350 . S
C1647 C1650 1.463 . S
C1647 C1652 1.350 . S
C1647 N1655 1.427 . S
C1648 H1639 0.930 . S
C1648 C1646 1.378 . S
C1648 C1649 1.367 . S
C1649 C1648 1.367 . S
C1649 C1651 1.433 . S
C1650 C1646 1.350 . S
C1650 C1647 1.463 . S
C1650 N1654 1.427 . S
C1651 H1641 0.929 . S
C1651 C1649 1.433 . S
C1651 N1654 1.384 . S
C1652 H1643 0.929 . S
C1652 C1644 1.378 . S
C1652 C1647 1.350 . S
C1653 H1640 0.929 . S
C1653 C1645 1.433 . S
C1653 N1655 1.384 . S
N1654 C1650 1.427 . S
N1654 C1651 1.384 . S
N1655 C1647 1.427 . S
N1655 C1653 1.384 . S
H1656 C1662 0.930 . S
H1657 C1666 0.930 . S
H1658 C1671 0.929 . S
H1659 C1669 0.929 . S
H1660 C1664 0.929 . S
H1661 C1670 0.929 . S
C1662 H1656 0.930 . S
C1662 C1663 1.367 . S
C1662 C1670 1.378 . S
C1663 C1662 1.367 . S
C1663 C1671 1.433 . S
C1664 H1660 0.929 . S
C1664 C1666 1.378 . S
C1664 C1668 1.350 . S
C1665 C1668 1.463 . S
C1665 C1670 1.350 . S
C1665 N1673 1.427 . S
C1666 H1657 0.930 . S
C1666 C1664 1.378 . S
C1666 C1667 1.367 . S
C1667 C1666 1.367 . S
C1667 C1669 1.433 . S
C1668 C1664 1.350 . S
C1668 C1665 1.463 . S
C1668 N1672 1.427 . S
C1669 H1659 0.929 . S
C1669 C1667 1.433 . S
C1669 N1672 1.384 . S
C1670 H1661 0.929 . S
C1670 C1662 1.378 . S
C1670 C1665 1.350 . S
C1671 H1658 0.929 . S
C1671 C1663 1.433 . S
C1671 N1673 1.384 . S
N1672 C1668 1.427 . S
N1672 C1669 1.384 . S
N1673 C1665 1.427 . S
N1673 C1671 1.384 . S
H1674 C1680 0.930 . S
H1675 C1684 0.930 . S
H1676 C1689 0.929 . S
H1677 C1687 0.929 . S
H1678 C1682 0.929 . S
H1679 C1688 0.929 . S
C1680 H1674 0.930 . S
C1680 C1681 1.367 . S
C1680 C1688 1.378 . S
C1681 C1680 1.367 . S
C1681 C1689 1.433 . S
C1682 H1678 0.929 . S
C1682 C1684 1.378 . S
C1682 C1686 1.350 . S
C1683 C1686 1.463 . S
C1683 C1688 1.350 . S
C1683 N1691 1.427 . S
C1684 H1675 0.930 . S
C1684 C1682 1.378 . S
C1684 C1685 1.367 . S
C1685 C1684 1.367 . S
C1685 C1687 1.433 . S
C1686 C1682 1.350 . S
C1686 C1683 1.463 . S
C1686 N1690 1.427 . S
C1687 H1677 0.929 . S
C1687 C1685 1.433 . S
C1687 N1690 1.384 . S
C1688 H1679 0.929 . S
C1688 C1680 1.378 . S
C1688 C1683 1.350 . S
C1689 H1676 0.929 . S
C1689 C1681 1.433 . S
C1689 N1691 1.384 . S
N1690 C1686 1.427 . S
N1690 C1687 1.384 . S
N1691 C1683 1.427 . S
N1691 C1689 1.384 . S
H1692 C1698 0.930 . S
H1693 C1702 0.930 . S
H1694 C1707 0.929 . S
H1695 C1705 0.929 . S
H1696 C1700 0.929 . S
H1697 C1706 0.929 . S
C1698 H1692 0.930 . S
C1698 C1699 1.367 . S
C1698 C1706 1.378 . S
C1699 C1698 1.367 . S
C1699 C1707 1.433 . S
C1700 H1696 0.929 . S
C1700 C1702 1.378 . S
C1700 C1704 1.350 . S
C1701 C1704 1.463 . S
C1701 C1706 1.350 . S
C1701 N1709 1.427 . S
C1702 H1693 0.930 . S
C1702 C1700 1.378 . S
C1702 C1703 1.367 . S
C1703 C1702 1.367 . S
C1703 C1705 1.433 . S
C1704 C1700 1.350 . S
C1704 C1701 1.463 . S
C1704 N1708 1.427 . S
C1705 H1695 0.929 . S
C1705 C1703 1.433 . S
C1705 N1708 1.384 . S
C1706 H1697 0.929 . S
C1706 C1698 1.378 . S
C1706 C1701 1.350 . S
C1707 H1694 0.929 . S
C1707 C1699 1.433 . S
C1707 N1709 1.384 . S
N1708 C1704 1.427 . S
N1708 C1705 1.384 . S
N1709 C1701 1.427 . S
N1709 C1707 1.384 . S
H1710 C1716 0.930 . S
H1711 C1720 0.930 . S
H1712 C1725 0.929 . S
H1713 C1723 0.929 . S
H1714 C1718 0.929 . S
H1715 C1724 0.929 . S
C1716 H1710 0.930 . S
C1716 C1717 1.367 . S
C1716 C1724 1.378 . S
C1717 C1716 1.367 . S
C1717 C1725 1.433 . S
C1718 H1714 0.929 . S
C1718 C1720 1.378 . S
C1718 C1722 1.350 . S
C1719 C1722 1.463 . S
C1719 C1724 1.350 . S
C1719 N1727 1.427 . S
C1720 H1711 0.930 . S
C1720 C1718 1.378 . S
C1720 C1721 1.367 . S
C1721 C1720 1.367 . S
C1721 C1723 1.433 . S
C1722 C1718 1.350 . S
C1722 C1719 1.463 . S
C1722 N1726 1.427 . S
C1723 H1713 0.929 . S
C1723 C1721 1.433 . S
C1723 N1726 1.384 . S
C1724 H1715 0.929 . S
C1724 C1716 1.378 . S
C1724 C1719 1.350 . S
C1725 H1712 0.929 . S
C1725 C1717 1.433 . S
C1725 N1727 1.384 . S
N1726 C1722 1.427 . S
N1726 C1723 1.384 . S
N1727 C1719 1.427 . S
N1727 C1725 1.384 . S
H1728 C1734 0.930 . S
H1729 C1738 0.930 . S
H1730 C1743 0.895 1_554 S
H1731 C1741 0.929 . S
H1732 C1736 0.929 . S
H1733 C1742 0.929 . S
C1734 H1728 0.930 . S
C1734 C1735 1.367 . S
C1734 C1742 1.378 . S
C1735 C1734 1.367 . S
C1735 C1743 1.456 . S
C1736 H1732 0.929 . S
C1736 C1738 1.378 . S
C1736 C1740 1.350 . S
C1737 C1740 1.463 . S
C1737 C1742 1.350 . S
C1737 N1745 1.427 . S
C1738 H1729 0.930 . S
C1738 C1736 1.378 . S
C1738 C1739 1.367 . S
C1739 C1738 1.367 . S
C1739 C1741 1.433 . S
C1740 C1736 1.350 . S
C1740 C1737 1.463 . S
C1740 N1744 1.427 . S
C1741 H1731 0.929 . S
C1741 C1739 1.433 . S
C1741 N1744 1.384 . S
C1742 H1733 0.929 . S
C1742 C1734 1.378 . S
C1742 C1737 1.350 . S
C1743 H1730 0.895 1_556 S
C1743 C1735 1.456 . S
C1743 N1745 1.397 . S
N1744 C1740 1.427 . S
N1744 C1741 1.384 . S
N1745 C1737 1.427 . S
N1745 C1743 1.397 . S
H1746 C1752 0.930 . S
H1747 C1756 0.930 . S
H1748 C1761 0.946 . S
H1749 C1759 0.929 . S
H1750 C1754 0.929 . S
H1751 C1760 0.929 . S
C1752 H1746 0.930 . S
C1752 C1753 1.367 . S
C1752 C1760 1.378 . S
C1753 C1752 1.367 . S
C1753 C1761 1.433 . S
C1754 H1750 0.929 . S
C1754 C1756 1.378 . S
C1754 C1758 1.350 . S
C1755 C1758 1.463 . S
C1755 C1760 1.350 . S
C1755 N1763 1.427 . S
C1756 H1747 0.930 . S
C1756 C1754 1.378 . S
C1756 C1757 1.367 . S
C1757 C1756 1.367 . S
C1757 C1759 1.433 . S
C1758 C1754 1.350 . S
C1758 C1755 1.463 . S
C1758 N1762 1.427 . S
C1759 H1749 0.929 . S
C1759 C1757 1.433 . S
C1759 N1762 1.384 . S
C1760 H1751 0.929 . S
C1760 C1752 1.378 . S
C1760 C1755 1.350 . S
C1761 H1748 0.946 . S
C1761 C1753 1.433 . S
C1761 N1763 1.384 . S
N1762 C1758 1.427 . S
N1762 C1759 1.384 . S
N1763 C1755 1.427 . S
N1763 C1761 1.384 . S
H1764 C1770 0.930 . S
H1765 C1774 0.930 . S
H1766 C1779 0.929 . S
H1767 C1777 0.929 . S
H1768 C1772 0.929 . S
H1769 C1778 0.929 . S
C1770 H1764 0.930 . S
C1770 C1771 1.367 . S
C1770 C1778 1.378 . S
C1771 C1770 1.367 . S
C1771 C1779 1.433 . S
C1772 H1768 0.929 . S
C1772 C1774 1.378 . S
C1772 C1776 1.350 . S
C1773 C1776 1.463 . S
C1773 C1778 1.350 . S
C1773 N1781 1.427 . S
C1774 H1765 0.930 . S
C1774 C1772 1.378 . S
C1774 C1775 1.367 . S
C1775 C1774 1.367 . S
C1775 C1777 1.433 . S
C1776 C1772 1.350 . S
C1776 C1773 1.463 . S
C1776 N1780 1.427 . S
C1777 H1767 0.929 . S
C1777 C1775 1.433 . S
C1777 N1780 1.384 . S
C1778 H1769 0.929 . S
C1778 C1770 1.378 . S
C1778 C1773 1.350 . S
C1779 H1766 0.929 . S
C1779 C1771 1.433 . S
C1779 N1781 1.384 . S
N1780 C1776 1.427 . S
N1780 C1777 1.384 . S
N1781 C1773 1.427 . S
N1781 C1779 1.384 . S
H1782 C1788 0.930 . S
H1783 C1792 0.930 . S
H1784 C1797 0.929 . S
H1785 C1795 0.929 . S
H1786 C1790 0.929 . S
H1787 C1796 0.929 . S
C1788 H1782 0.930 . S
C1788 C1789 1.367 . S
C1788 C1796 1.378 . S
C1789 C1788 1.367 . S
C1789 C1797 1.433 . S
C1790 H1786 0.929 . S
C1790 C1792 1.378 . S
C1790 C1794 1.350 . S
C1791 C1794 1.463 . S
C1791 C1796 1.350 . S
C1791 N1799 1.427 . S
C1792 H1783 0.930 . S
C1792 C1790 1.378 . S
C1792 C1793 1.367 . S
C1793 C1792 1.367 . S
C1793 C1795 1.433 . S
C1794 C1790 1.350 . S
C1794 C1791 1.463 . S
C1794 N1798 1.427 . S
C1795 H1785 0.929 . S
C1795 C1793 1.433 . S
C1795 N1798 1.384 . S
C1796 H1787 0.929 . S
C1796 C1788 1.378 . S
C1796 C1791 1.350 . S
C1797 H1784 0.929 . S
C1797 C1789 1.433 . S
C1797 N1799 1.384 . S
N1798 C1794 1.427 . S
N1798 C1795 1.384 . S
N1799 C1791 1.427 . S
N1799 C1797 1.384 . S
H1800 C1806 0.930 . S
H1801 C1810 0.930 . S
H1802 C1815 0.929 . S
H1803 C1813 0.929 . S
H1804 C1808 0.929 . S
H1805 C1814 0.929 . S
C1806 H1800 0.930 . S
C1806 C1807 1.367 . S
C1806 C1814 1.378 . S
C1807 C1806 1.367 . S
C1807 C1815 1.433 . S
C1808 H1804 0.929 . S
C1808 C1810 1.378 . S
C1808 C1812 1.350 . S
C1809 C1812 1.463 . S
C1809 C1814 1.350 . S
C1809 N1817 1.427 . S
C1810 H1801 0.930 . S
C1810 C1808 1.378 . S
C1810 C1811 1.367 . S
C1811 C1810 1.367 . S
C1811 C1813 1.433 . S
C1812 C1808 1.350 . S
C1812 C1809 1.463 . S
C1812 N1816 1.427 . S
C1813 H1803 0.929 . S
C1813 C1811 1.433 . S
C1813 N1816 1.384 . S
C1814 H1805 0.929 . S
C1814 C1806 1.378 . S
C1814 C1809 1.350 . S
C1815 H1802 0.929 . S
C1815 C1807 1.433 . S
C1815 N1817 1.384 . S
N1816 C1812 1.427 . S
N1816 C1813 1.384 . S
N1817 C1809 1.427 . S
N1817 C1815 1.384 . S
H1818 C1824 0.930 1_554 S
H1819 C1828 0.930 . S
H1820 C1833 0.929 . S
H1821 C1831 0.929 . S
H1822 C1826 0.929 . S
H1823 C1832 0.929 . S
C1824 H1818 0.930 1_556 S
C1824 C1825 1.367 . S
C1824 C1832 1.378 . S
C1825 C1824 1.367 . S
C1825 C1833 1.433 . S
C1826 H1822 0.929 . S
C1826 C1828 1.378 . S
C1826 C1830 1.350 . S
C1827 C1830 1.463 . S
C1827 C1832 1.350 . S
C1827 N1835 1.427 . S
C1828 H1819 0.930 . S
C1828 C1826 1.378 . S
C1828 C1829 1.367 . S
C1829 C1828 1.367 . S
C1829 C1831 1.433 . S
C1830 C1826 1.350 . S
C1830 C1827 1.463 . S
C1830 N1834 1.427 . S
C1831 H1821 0.929 . S
C1831 C1829 1.433 . S
C1831 N1834 1.384 . S
C1832 H1823 0.929 . S
C1832 C1824 1.378 . S
C1832 C1827 1.350 . S
C1833 H1820 0.929 . S
C1833 C1825 1.433 . S
C1833 N1835 1.384 . S
N1834 C1830 1.427 . S
N1834 C1831 1.384 . S
N1835 C1827 1.427 . S
N1835 C1833 1.384 . S
H1836 C1842 0.930 . S
H1837 C1846 0.930 . S
H1838 C1851 0.929 . S
H1839 C1849 0.929 . S
H1840 C1844 0.929 . S
H1841 C1850 0.929 . S
C1842 H1836 0.930 . S
C1842 C1843 1.367 . S
C1842 C1850 1.378 . S
C1843 C1842 1.367 . S
C1843 C1851 1.433 . S
C1844 H1840 0.929 . S
C1844 C1846 1.378 . S
C1844 C1848 1.350 . S
C1845 C1848 1.463 . S
C1845 C1850 1.350 . S
C1845 N1853 1.427 . S
C1846 H1837 0.930 . S
C1846 C1844 1.378 . S
C1846 C1847 1.367 . S
C1847 C1846 1.367 . S
C1847 C1849 1.433 . S
C1848 C1844 1.350 . S
C1848 C1845 1.463 . S
C1848 N1852 1.427 . S
C1849 H1839 0.929 . S
C1849 C1847 1.433 . S
C1849 N1852 1.384 . S
C1850 H1841 0.929 . S
C1850 C1842 1.378 . S
C1850 C1845 1.350 . S
C1851 H1838 0.929 . S
C1851 C1843 1.433 . S
C1851 N1853 1.384 . S
N1852 C1848 1.427 . S
N1852 C1849 1.384 . S
N1853 C1845 1.427 . S
N1853 C1851 1.384 . S
H1854 C1860 0.930 . S
H1855 C1864 0.930 . S
H1856 C1869 0.929 . S
H1857 C1867 0.929 . S
H1858 C1862 0.929 . S
H1859 C1868 0.929 . S
C1860 H1854 0.930 . S
C1860 C1861 1.367 . S
C1860 C1868 1.378 . S
C1861 C1860 1.367 . S
C1861 C1869 1.433 . S
C1862 H1858 0.929 . S
C1862 C1864 1.378 . S
C1862 C1866 1.350 . S
C1863 C1866 1.463 . S
C1863 C1868 1.350 . S
C1863 N1871 1.427 . S
C1864 H1855 0.930 . S
C1864 C1862 1.378 . S
C1864 C1865 1.367 . S
C1865 C1864 1.367 . S
C1865 C1867 1.433 . S
C1866 C1862 1.350 . S
C1866 C1863 1.463 . S
C1866 N1870 1.427 . S
C1867 H1857 0.929 . S
C1867 C1865 1.433 . S
C1867 N1870 1.384 . S
C1868 H1859 0.929 . S
C1868 C1860 1.378 . S
C1868 C1863 1.350 . S
C1869 H1856 0.929 . S
C1869 C1861 1.433 . S
C1869 N1871 1.384 . S
N1870 C1866 1.427 . S
N1870 C1867 1.384 . S
N1871 C1863 1.427 . S
N1871 C1869 1.384 . S
H1872 C1878 0.930 . S
H1873 C1882 0.930 . S
H1874 C1887 0.929 . S
H1875 C1885 0.929 . S
H1876 C1880 0.929 . S
H1877 C1886 0.929 . S
C1878 H1872 0.930 . S
C1878 C1879 1.367 . S
C1878 C1886 1.378 . S
C1879 C1878 1.367 . S
C1879 C1887 1.433 . S
C1880 H1876 0.929 . S
C1880 C1882 1.378 . S
C1880 C1884 1.350 . S
C1881 C1884 1.463 . S
C1881 C1886 1.350 . S
C1881 N1889 1.427 . S
C1882 H1873 0.930 . S
C1882 C1880 1.378 . S
C1882 C1883 1.367 . S
C1883 C1882 1.367 . S
C1883 C1885 1.433 . S
C1884 C1880 1.350 . S
C1884 C1881 1.463 . S
C1884 N1888 1.427 . S
C1885 H1875 0.929 . S
C1885 C1883 1.433 . S
C1885 N1888 1.384 . S
C1886 H1877 0.929 . S
C1886 C1878 1.378 . S
C1886 C1881 1.350 . S
C1887 H1874 0.929 . S
C1887 C1879 1.433 . S
C1887 N1889 1.384 . S
N1888 C1884 1.427 . S
N1888 C1885 1.384 . S
N1889 C1881 1.427 . S
N1889 C1887 1.384 . S
H1890 C1896 0.930 . S
H1891 C1900 0.930 . S
H1892 C1905 0.929 . S
H1893 C1903 0.929 . S
H1894 C1898 0.929 . S
H1895 C1904 0.929 . S
C1896 H1890 0.930 . S
C1896 C1897 1.367 . S
C1896 C1904 1.378 . S
C1897 C1896 1.367 . S
C1897 C1905 1.433 . S
C1898 H1894 0.929 . S
C1898 C1900 1.378 . S
C1898 C1902 1.350 . S
C1899 C1902 1.463 . S
C1899 C1904 1.350 . S
C1899 N1907 1.427 . S
C1900 H1891 0.930 . S
C1900 C1898 1.378 . S
C1900 C1901 1.367 . S
C1901 C1900 1.367 . S
C1901 C1903 1.433 . S
C1902 C1898 1.350 . S
C1902 C1899 1.463 . S
C1902 N1906 1.427 . S
C1903 H1893 0.929 . S
C1903 C1901 1.433 . S
C1903 N1906 1.384 . S
C1904 H1895 0.929 . S
C1904 C1896 1.378 . S
C1904 C1899 1.350 . S
C1905 H1892 0.929 . S
C1905 C1897 1.433 . S
C1905 N1907 1.384 . S
N1906 C1902 1.427 . S
N1906 C1903 1.384 . S
N1907 C1899 1.427 . S
N1907 C1905 1.384 . S
H1908 C1914 0.930 . S
H1909 C1918 0.930 . S
H1910 C1923 0.929 . S
H1911 C1921 0.929 . S
H1912 C1916 0.929 . S
H1913 C1922 0.929 . S
C1914 H1908 0.930 . S
C1914 C1915 1.367 . S
C1914 C1922 1.378 . S
C1915 C1914 1.367 . S
C1915 C1923 1.433 . S
C1916 H1912 0.929 . S
C1916 C1918 1.378 . S
C1916 C1920 1.350 . S
C1917 C1920 1.463 . S
C1917 C1922 1.350 . S
C1917 N1925 1.427 . S
C1918 H1909 0.930 . S
C1918 C1916 1.378 . S
C1918 C1919 1.367 . S
C1919 C1918 1.367 . S
C1919 C1921 1.433 . S
C1920 C1916 1.350 . S
C1920 C1917 1.463 . S
C1920 N1924 1.427 . S
C1921 H1911 0.929 . S
C1921 C1919 1.433 . S
C1921 N1924 1.384 . S
C1922 H1913 0.929 . S
C1922 C1914 1.378 . S
C1922 C1917 1.350 . S
C1923 H1910 0.929 . S
C1923 C1915 1.433 . S
C1923 N1925 1.384 . S
N1924 C1920 1.427 . S
N1924 C1921 1.384 . S
N1925 C1917 1.427 . S
N1925 C1923 1.384 . S
H1926 C1932 0.930 . S
H1927 C1936 0.930 . S
H1928 C1941 0.929 . S
H1929 C1939 0.929 . S
H1930 C1934 0.929 . S
H1931 C1940 0.929 . S
C1932 H1926 0.930 . S
C1932 C1933 1.367 . S
C1932 C1940 1.378 . S
C1933 C1932 1.367 . S
C1933 C1941 1.433 . S
C1934 H1930 0.929 . S
C1934 C1936 1.378 . S
C1934 C1938 1.350 . S
C1935 C1938 1.463 . S
C1935 C1940 1.350 . S
C1935 N1943 1.427 . S
C1936 H1927 0.930 . S
C1936 C1934 1.378 . S
C1936 C1937 1.367 . S
C1937 C1936 1.367 . S
C1937 C1939 1.433 . S
C1938 C1934 1.350 . S
C1938 C1935 1.463 . S
C1938 N1942 1.427 . S
C1939 H1929 0.929 . S
C1939 C1937 1.433 . S
C1939 N1942 1.384 . S
C1940 H1931 0.929 . S
C1940 C1932 1.378 . S
C1940 C1935 1.350 . S
C1941 H1928 0.929 . S
C1941 C1933 1.433 . S
C1941 N1943 1.384 . S
N1942 C1938 1.427 . S
N1942 C1939 1.384 . S
N1943 C1935 1.427 . S
N1943 C1941 1.384 . S
H1944 C1950 0.930 . S
H1945 C1954 0.930 . S
H1946 C1959 0.929 . S
H1947 C1957 0.929 . S
H1948 C1952 0.929 . S
H1949 C1958 0.929 . S
C1950 H1944 0.930 . S
C1950 C1951 1.367 1_655 S
C1950 C1958 1.378 . S
C1951 C1950 1.367 1_455 S
C1951 C1959 1.433 . S
C1952 H1948 0.929 . S
C1952 C1954 1.378 . S
C1952 C1956 1.350 . S
C1953 C1956 1.463 . S
C1953 C1958 1.350 1_455 S
C1953 N1961 1.427 . S
C1954 H1945 0.930 . S
C1954 C1952 1.378 . S
C1954 C1955 1.367 . S
C1955 C1954 1.367 . S
C1955 C1957 1.433 1_455 S
C1956 C1952 1.350 . S
C1956 C1953 1.463 . S
C1956 N1960 1.427 1_455 S
C1957 H1947 0.929 . S
C1957 C1955 1.433 1_655 S
C1957 N1960 1.384 . S
C1958 H1949 0.929 . S
C1958 C1950 1.378 . S
C1958 C1953 1.350 1_655 S
C1959 H1946 0.929 . S
C1959 C1951 1.433 . S
C1959 N1961 1.384 . S
N1960 C1956 1.427 1_655 S
N1960 C1957 1.384 . S
N1961 C1953 1.427 . S
N1961 C1959 1.384 . S
H1962 C1968 0.930 . S
H1963 C1972 0.930 . S
H1964 C1977 0.929 . S
H1965 C1975 0.929 . S
H1966 C1970 0.929 . S
H1967 C1976 0.929 . S
C1968 H1962 0.930 . S
C1968 C1969 1.367 . S
C1968 C1976 1.378 . S
C1969 C1968 1.367 . S
C1969 C1977 1.433 . S
C1970 H1966 0.929 . S
C1970 C1972 1.378 . S
C1970 C1974 1.350 . S
C1971 C1974 1.463 . S
C1971 C1976 1.350 . S
C1971 N1979 1.427 . S
C1972 H1963 0.930 . S
C1972 C1970 1.378 . S
C1972 C1973 1.367 . S
C1973 C1972 1.367 . S
C1973 C1975 1.433 . S
C1974 C1970 1.350 . S
C1974 C1971 1.463 . S
C1974 N1978 1.427 . S
C1975 H1965 0.929 . S
C1975 C1973 1.433 . S
C1975 N1978 1.384 . S
C1976 H1967 0.929 . S
C1976 C1968 1.378 . S
C1976 C1971 1.350 . S
C1977 H1964 0.929 . S
C1977 C1969 1.433 . S
C1977 N1979 1.384 . S
N1978 C1974 1.427 . S
N1978 C1975 1.384 . S
N1979 C1971 1.427 . S
N1979 C1977 1.384 . S
H1980 C1986 0.930 . S
H1981 C1990 0.930 . S
H1982 C1995 0.929 . S
H1983 C1993 0.929 . S
H1984 C1988 0.929 . S
H1985 C1994 0.929 . S
C1986 H1980 0.930 . S
C1986 C1987 1.367 . S
C1986 C1994 1.378 . S
C1987 C1986 1.367 . S
C1987 C1995 1.433 1_565 S
C1988 H1984 0.929 . S
C1988 C1990 1.378 . S
C1988 C1992 1.350 1_545 S
C1989 C1992 1.463 . S
C1989 C1994 1.350 . S
C1989 N1997 1.427 1_565 S
C1990 H1981 0.930 . S
C1990 C1988 1.378 . S
C1990 C1991 1.367 1_545 S
C1991 C1990 1.367 1_565 S
C1991 C1993 1.433 . S
C1992 C1988 1.350 1_565 S
C1992 C1989 1.463 . S
C1992 N1996 1.427 . S
C1993 H1983 0.929 . S
C1993 C1991 1.433 . S
C1993 N1996 1.384 . S
C1994 H1985 0.929 . S
C1994 C1986 1.378 . S
C1994 C1989 1.350 . S
C1995 H1982 0.929 . S
C1995 C1987 1.433 1_545 S
C1995 N1997 1.384 . S
N1996 C1992 1.427 . S
N1996 C1993 1.384 . S
N1997 C1989 1.427 1_545 S
N1997 C1995 1.384 . S
H1998 C2004 0.930 . S
H1999 C2008 0.930 . S
H2000 C2013 0.929 1_545 S
H2001 C2011 0.929 . S
H2002 C2006 0.929 . S
H2003 C2012 0.929 . S
C2004 H1998 0.930 . S
C2004 C2005 1.367 . S
C2004 C2012 1.378 . S
C2005 C2004 1.367 . S
C2005 C2013 1.433 . S
C2006 H2002 0.929 . S
C2006 C2008 1.378 . S
C2006 C2010 1.350 1_545 S
C2007 C2010 1.463 . S
C2007 C2012 1.350 . S
C2007 N2015 1.427 . S
C2008 H1999 0.930 . S
C2008 C2006 1.378 . S
C2008 C2009 1.367 1_545 S
C2009 C2008 1.367 1_565 S
C2009 C2011 1.433 . S
C2010 C2006 1.350 1_565 S
C2010 C2007 1.463 . S
C2010 N2014 1.427 . S
C2011 H2001 0.929 . S
C2011 C2009 1.433 . S
C2011 N2014 1.384 . S
C2012 H2003 0.929 . S
C2012 C2004 1.378 . S
C2012 C2007 1.350 . S
C2013 H2000 0.929 1_565 S
C2013 C2005 1.433 . S
C2013 N2015 1.386 . S
N2014 C2010 1.427 . S
N2014 C2011 1.384 . S
N2015 C2007 1.427 . S
N2015 C2013 1.386 . S
H2016 C2022 0.930 . S
H2017 C2026 0.930 . S
H2018 C2031 0.929 1_655 S
H2019 C2029 0.929 . S
H2020 C2024 0.929 . S
H2021 C2030 0.929 . S
C2022 H2016 0.930 . S
C2022 C2023 1.367 . S
C2022 C2030 1.378 . S
C2023 C2022 1.367 . S
C2023 C2031 1.433 . S
C2024 H2020 0.929 . S
C2024 C2026 1.378 . S
C2024 C2028 1.350 1_655 S
C2025 C2028 1.463 . S
C2025 C2030 1.350 . S
C2025 N2033 1.421 1_455 S
C2026 H2017 0.930 . S
C2026 C2024 1.378 . S
C2026 C2027 1.367 1_655 S
C2027 C2026 1.367 1_455 S
C2027 C2029 1.433 . S
C2028 C2024 1.350 1_455 S
C2028 C2025 1.463 . S
C2028 N2032 1.427 . S
C2029 H2019 0.929 . S
C2029 C2027 1.433 . S
C2029 N2032 1.384 . S
C2030 H2021 0.929 . S
C2030 C2022 1.378 . S
C2030 C2025 1.350 . S
C2031 H2018 0.929 1_455 S
C2031 C2023 1.433 . S
C2031 N2033 1.387 1_455 S
N2032 C2028 1.427 . S
N2032 C2029 1.384 . S
N2033 C2025 1.421 1_655 S
N2033 C2031 1.387 1_655 S
H2034 C2040 0.930 . S
H2035 C2044 0.930 . S
H2036 C2049 0.929 . S
H2037 C2047 0.929 . S
H2038 C2042 0.929 . S
H2039 C2048 0.929 . S
C2040 H2034 0.930 . S
C2040 C2041 1.367 . S
C2040 C2048 1.378 . S
C2041 C2040 1.367 . S
C2041 C2049 1.433 . S
C2042 H2038 0.929 . S
C2042 C2044 1.378 . S
C2042 C2046 1.350 . S
C2043 C2046 1.463 . S
C2043 C2048 1.350 . S
C2043 N2051 1.427 . S
C2044 H2035 0.930 . S
C2044 C2042 1.378 . S
C2044 C2045 1.367 . S
C2045 C2044 1.367 . S
C2045 C2047 1.433 . S
C2046 C2042 1.350 . S
C2046 C2043 1.463 . S
C2046 N2050 1.427 . S
C2047 H2037 0.929 . S
C2047 C2045 1.433 . S
C2047 N2050 1.384 . S
C2048 H2039 0.929 . S
C2048 C2040 1.378 . S
C2048 C2043 1.350 . S
C2049 H2036 0.929 . S
C2049 C2041 1.433 . S
C2049 N2051 1.384 . S
N2050 C2046 1.427 . S
N2050 C2047 1.384 . S
N2051 C2043 1.427 . S
N2051 C2049 1.384 . S
H2052 C2058 0.930 . S
H2053 C2062 0.930 . S
H2054 C2067 0.929 . S
H2055 C2065 0.929 . S
H2056 C2060 0.929 . S
H2057 C2066 0.929 . S
C2058 H2052 0.930 . S
C2058 C2059 1.367 . S
C2058 C2066 1.378 . S
C2059 C2058 1.367 . S
C2059 C2067 1.433 . S
C2060 H2056 0.929 . S
C2060 C2062 1.378 . S
C2060 C2064 1.350 . S
C2061 C2064 1.463 . S
C2061 C2066 1.350 . S
C2061 N2069 1.427 . S
C2062 H2053 0.930 . S
C2062 C2060 1.378 . S
C2062 C2063 1.367 . S
C2063 C2062 1.367 . S
C2063 C2065 1.433 . S
C2064 C2060 1.350 . S
C2064 C2061 1.463 . S
C2064 N2068 1.427 . S
C2065 H2055 0.929 . S
C2065 C2063 1.433 . S
C2065 N2068 1.384 . S
C2066 H2057 0.929 . S
C2066 C2058 1.378 . S
C2066 C2061 1.350 . S
C2067 H2054 0.929 . S
C2067 C2059 1.433 . S
C2067 N2069 1.384 . S
N2068 C2064 1.427 . S
N2068 C2065 1.384 . S
N2069 C2061 1.427 . S
N2069 C2067 1.384 . S
H2070 C2076 0.930 . S
H2071 C2080 0.930 . S
H2072 C2085 0.929 . S
H2073 C2083 0.929 . S
H2074 C2078 0.929 . S
H2075 C2084 0.929 . S
C2076 H2070 0.930 . S
C2076 C2077 1.367 . S
C2076 C2084 1.378 . S
C2077 C2076 1.367 . S
C2077 C2085 1.433 . S
C2078 H2074 0.929 . S
C2078 C2080 1.378 . S
C2078 C2082 1.350 . S
C2079 C2082 1.463 . S
C2079 C2084 1.350 . S
C2079 N2087 1.427 . S
C2080 H2071 0.930 . S
C2080 C2078 1.378 . S
C2080 C2081 1.367 . S
C2081 C2080 1.367 . S
C2081 C2083 1.433 . S
C2082 C2078 1.350 . S
C2082 C2079 1.463 . S
C2082 N2086 1.427 . S
C2083 H2073 0.929 . S
C2083 C2081 1.433 . S
C2083 N2086 1.384 . S
C2084 H2075 0.929 . S
C2084 C2076 1.378 . S
C2084 C2079 1.350 . S
C2085 H2072 0.929 . S
C2085 C2077 1.433 . S
C2085 N2087 1.384 . S
N2086 C2082 1.427 . S
N2086 C2083 1.384 . S
N2087 C2079 1.427 . S
N2087 C2085 1.384 . S
H2088 C2094 0.930 . S
H2089 C2098 0.930 . S
H2090 C2103 0.929 . S
H2091 C2101 0.929 . S
H2092 C2096 0.929 . S
H2093 C2102 0.929 . S
C2094 H2088 0.930 . S
C2094 C2095 1.367 . S
C2094 C2102 1.378 . S
C2095 C2094 1.367 . S
C2095 C2103 1.433 . S
C2096 H2092 0.929 . S
C2096 C2098 1.378 . S
C2096 C2100 1.350 . S
C2097 C2100 1.463 . S
C2097 C2102 1.350 . S
C2097 N2105 1.427 . S
C2098 H2089 0.930 . S
C2098 C2096 1.378 . S
C2098 C2099 1.367 . S
C2099 C2098 1.367 . S
C2099 C2101 1.433 . S
C2100 C2096 1.350 . S
C2100 C2097 1.463 . S
C2100 N2104 1.427 . S
C2101 H2091 0.929 . S
C2101 C2099 1.433 . S
C2101 N2104 1.384 . S
C2102 H2093 0.929 . S
C2102 C2094 1.378 . S
C2102 C2097 1.350 . S
C2103 H2090 0.929 . S
C2103 C2095 1.433 . S
C2103 N2105 1.384 . S
N2104 C2100 1.427 . S
N2104 C2101 1.384 . S
N2105 C2097 1.427 . S
N2105 C2103 1.384 . S
H2106 C2112 0.930 . S
H2107 C2116 0.930 . S
H2108 C2121 0.929 . S
H2109 C2119 0.929 . S
H2110 C2114 0.929 . S
H2111 C2120 0.929 . S
C2112 H2106 0.930 . S
C2112 C2113 1.367 . S
C2112 C2120 1.378 . S
C2113 C2112 1.367 . S
C2113 C2121 1.433 1_545 S
C2114 H2110 0.929 . S
C2114 C2116 1.378 . S
C2114 C2118 1.350 1_565 S
C2115 C2118 1.463 . S
C2115 C2120 1.350 . S
C2115 N2123 1.427 1_545 S
C2116 H2107 0.930 . S
C2116 C2114 1.378 . S
C2116 C2117 1.367 1_565 S
C2117 C2116 1.367 1_545 S
C2117 C2119 1.433 . S
C2118 C2114 1.350 1_545 S
C2118 C2115 1.463 . S
C2118 N2122 1.427 . S
C2119 H2109 0.929 . S
C2119 C2117 1.433 . S
C2119 N2122 1.384 . S
C2120 H2111 0.929 . S
C2120 C2112 1.378 . S
C2120 C2115 1.350 . S
C2121 H2108 0.929 . S
C2121 C2113 1.433 1_565 S
C2121 N2123 1.384 . S
N2122 C2118 1.427 . S
N2122 C2119 1.384 . S
N2123 C2115 1.427 1_565 S
N2123 C2121 1.384 . S
H2124 C2130 0.930 . S
H2125 C2134 0.930 . S
H2126 C2139 0.929 . S
H2127 C2137 0.929 . S
H2128 C2132 0.929 . S
H2129 C2138 0.929 . S
C2130 H2124 0.930 . S
C2130 C2131 1.367 . S
C2130 C2138 1.378 . S
C2131 C2130 1.367 . S
C2131 C2139 1.433 . S
C2132 H2128 0.929 . S
C2132 C2134 1.378 . S
C2132 C2136 1.350 . S
C2133 C2136 1.463 . S
C2133 C2138 1.350 . S
C2133 N2141 1.427 . S
C2134 H2125 0.930 . S
C2134 C2132 1.378 . S
C2134 C2135 1.367 . S
C2135 C2134 1.367 . S
C2135 C2137 1.433 . S
C2136 C2132 1.350 . S
C2136 C2133 1.463 . S
C2136 N2140 1.427 . S
C2137 H2127 0.929 . S
C2137 C2135 1.433 . S
C2137 N2140 1.384 . S
C2138 H2129 0.929 . S
C2138 C2130 1.378 . S
C2138 C2133 1.350 . S
C2139 H2126 0.929 . S
C2139 C2131 1.433 . S
C2139 N2141 1.384 . S
N2140 C2136 1.427 . S
N2140 C2137 1.384 . S
N2141 C2133 1.427 . S
N2141 C2139 1.384 . S
H2142 C2148 0.930 . S
H2143 C2152 0.930 . S
H2144 C2157 0.929 . S
H2145 C2155 0.929 . S
H2146 C2150 0.929 . S
H2147 C2156 0.929 . S
C2148 H2142 0.930 . S
C2148 C2149 1.367 . S
C2148 C2156 1.378 . S
C2149 C2148 1.367 . S
C2149 C2157 1.433 . S
C2150 H2146 0.929 . S
C2150 C2152 1.378 . S
C2150 C2154 1.350 . S
C2151 C2154 1.463 . S
C2151 C2156 1.350 . S
C2151 N2159 1.427 . S
C2152 H2143 0.930 . S
C2152 C2150 1.378 . S
C2152 C2153 1.367 . S
C2153 C2152 1.367 . S
C2153 C2155 1.433 . S
C2154 C2150 1.350 . S
C2154 C2151 1.463 . S
C2154 N2158 1.427 . S
C2155 H2145 0.929 . S
C2155 C2153 1.433 . S
C2155 N2158 1.384 . S
C2156 H2147 0.929 . S
C2156 C2148 1.378 . S
C2156 C2151 1.350 . S
C2157 H2144 0.929 . S
C2157 C2149 1.433 . S
C2157 N2159 1.384 . S
N2158 C2154 1.427 . S
N2158 C2155 1.384 . S
N2159 C2151 1.427 . S
N2159 C2157 1.384 . S
H2160 C2166 0.930 . S
H2161 C2170 0.930 . S
H2162 C2175 0.929 . S
H2163 C2173 0.929 . S
H2164 C2168 0.929 . S
H2165 C2174 0.929 . S
C2166 H2160 0.930 . S
C2166 C2167 1.367 . S
C2166 C2174 1.378 . S
C2167 C2166 1.367 . S
C2167 C2175 1.433 . S
C2168 H2164 0.929 . S
C2168 C2170 1.378 . S
C2168 C2172 1.350 . S
C2169 C2172 1.463 . S
C2169 C2174 1.350 . S
C2169 N2177 1.427 . S
C2170 H2161 0.930 . S
C2170 C2168 1.378 . S
C2170 C2171 1.367 . S
C2171 C2170 1.367 . S
C2171 C2173 1.433 . S
C2172 C2168 1.350 . S
C2172 C2169 1.463 . S
C2172 N2176 1.427 . S
C2173 H2163 0.929 . S
C2173 C2171 1.433 . S
C2173 N2176 1.384 . S
C2174 H2165 0.929 . S
C2174 C2166 1.378 . S
C2174 C2169 1.350 . S
C2175 H2162 0.929 . S
C2175 C2167 1.433 . S
C2175 N2177 1.384 . S
N2176 C2172 1.427 . S
N2176 C2173 1.384 . S
N2177 C2169 1.427 . S
N2177 C2175 1.384 . S
H2178 C2184 0.930 . S
H2179 C2188 0.930 . S
H2180 C2193 0.929 . S
H2181 C2191 0.929 . S
H2182 C2186 0.929 . S
H2183 C2192 0.929 . S
C2184 H2178 0.930 . S
C2184 C2185 1.367 . S
C2184 C2192 1.378 . S
C2185 C2184 1.367 . S
C2185 C2193 1.433 . S
C2186 H2182 0.929 . S
C2186 C2188 1.378 . S
C2186 C2190 1.350 . S
C2187 C2190 1.463 . S
C2187 C2192 1.350 . S
C2187 N2195 1.427 . S
C2188 H2179 0.930 . S
C2188 C2186 1.378 . S
C2188 C2189 1.367 . S
C2189 C2188 1.367 . S
C2189 C2191 1.433 . S
C2190 C2186 1.350 . S
C2190 C2187 1.463 . S
C2190 N2194 1.427 . S
C2191 H2181 0.929 . S
C2191 C2189 1.433 . S
C2191 N2194 1.384 . S
C2192 H2183 0.929 . S
C2192 C2184 1.378 . S
C2192 C2187 1.350 . S
C2193 H2180 0.929 . S
C2193 C2185 1.433 . S
C2193 N2195 1.384 . S
N2194 C2190 1.427 . S
N2194 C2191 1.384 . S
N2195 C2187 1.427 . S
N2195 C2193 1.384 . S
H2196 C2202 0.930 . S
H2197 C2206 0.930 . S
H2198 C2211 0.929 . S
H2199 C2209 0.929 . S
H2200 C2204 0.929 . S
H2201 C2210 0.929 . S
C2202 H2196 0.930 . S
C2202 C2203 1.367 . S
C2202 C2210 1.378 . S
C2203 C2202 1.367 . S
C2203 C2211 1.433 . S
C2204 H2200 0.929 . S
C2204 C2206 1.378 . S
C2204 C2208 1.350 . S
C2205 C2208 1.463 . S
C2205 C2210 1.350 . S
C2205 N2213 1.427 . S
C2206 H2197 0.930 . S
C2206 C2204 1.378 . S
C2206 C2207 1.367 . S
C2207 C2206 1.367 . S
C2207 C2209 1.433 . S
C2208 C2204 1.350 . S
C2208 C2205 1.463 . S
C2208 N2212 1.427 . S
C2209 H2199 0.929 . S
C2209 C2207 1.433 . S
C2209 N2212 1.384 . S
C2210 H2201 0.929 . S
C2210 C2202 1.378 . S
C2210 C2205 1.350 . S
C2211 H2198 0.929 . S
C2211 C2203 1.433 . S
C2211 N2213 1.384 . S
N2212 C2208 1.427 . S
N2212 C2209 1.384 . S
N2213 C2205 1.427 . S
N2213 C2211 1.384 . S
H2214 C2220 0.930 . S
H2215 C2224 0.930 . S
H2216 C2229 0.929 . S
H2217 C2227 0.929 . S
H2218 C2222 0.929 . S
H2219 C2228 0.929 . S
C2220 H2214 0.930 . S
C2220 C2221 1.367 . S
C2220 C2228 1.378 . S
C2221 C2220 1.367 . S
C2221 C2229 1.433 . S
C2222 H2218 0.929 . S
C2222 C2224 1.378 . S
C2222 C2226 1.350 . S
C2223 C2226 1.463 . S
C2223 C2228 1.350 . S
C2223 N2231 1.427 . S
C2224 H2215 0.930 . S
C2224 C2222 1.378 . S
C2224 C2225 1.367 . S
C2225 C2224 1.367 . S
C2225 C2227 1.433 . S
C2226 C2222 1.350 . S
C2226 C2223 1.463 . S
C2226 N2230 1.427 . S
C2227 H2217 0.929 . S
C2227 C2225 1.433 . S
C2227 N2230 1.384 . S
C2228 H2219 0.929 . S
C2228 C2220 1.378 . S
C2228 C2223 1.350 . S
C2229 H2216 0.929 . S
C2229 C2221 1.433 . S
C2229 N2231 1.384 . S
N2230 C2226 1.427 . S
N2230 C2227 1.384 . S
N2231 C2223 1.427 . S
N2231 C2229 1.384 . S
H2232 C2238 0.930 . S
H2233 C2242 0.930 . S
H2234 C2247 0.929 . S
H2235 C2245 0.929 . S
H2236 C2240 0.929 . S
H2237 C2246 0.929 . S
C2238 H2232 0.930 . S
C2238 C2239 1.367 . S
C2238 C2246 1.378 . S
C2239 C2238 1.367 . S
C2239 C2247 1.433 . S
C2240 H2236 0.929 . S
C2240 C2242 1.378 . S
C2240 C2244 1.350 . S
C2241 C2244 1.463 . S
C2241 C2246 1.350 . S
C2241 N2249 1.427 . S
C2242 H2233 0.930 . S
C2242 C2240 1.378 . S
C2242 C2243 1.367 . S
C2243 C2242 1.367 . S
C2243 C2245 1.433 . S
C2244 C2240 1.350 . S
C2244 C2241 1.463 . S
C2244 N2248 1.427 . S
C2245 H2235 0.929 . S
C2245 C2243 1.433 . S
C2245 N2248 1.384 . S
C2246 H2237 0.929 . S
C2246 C2238 1.378 . S
C2246 C2241 1.350 . S
C2247 H2234 0.929 . S
C2247 C2239 1.433 . S
C2247 N2249 1.384 . S
N2248 C2244 1.427 . S
N2248 C2245 1.384 . S
N2249 C2241 1.427 . S
N2249 C2247 1.384 . S
H2250 C2256 0.930 . S
H2251 C2260 0.930 . S
H2252 C2265 0.929 . S
H2253 C2263 0.929 . S
H2254 C2258 0.929 . S
H2255 C2264 0.929 . S
C2256 H2250 0.930 . S
C2256 C2257 1.367 . S
C2256 C2264 1.378 . S
C2257 C2256 1.367 . S
C2257 C2265 1.433 . S
C2258 H2254 0.929 . S
C2258 C2260 1.378 . S
C2258 C2262 1.350 . S
C2259 C2262 1.463 . S
C2259 C2264 1.350 . S
C2259 N2267 1.427 . S
C2260 H2251 0.930 . S
C2260 C2258 1.378 . S
C2260 C2261 1.367 . S
C2261 C2260 1.367 . S
C2261 C2263 1.433 . S
C2262 C2258 1.350 . S
C2262 C2259 1.463 . S
C2262 N2266 1.427 . S
C2263 H2253 0.929 . S
C2263 C2261 1.433 . S
C2263 N2266 1.384 . S
C2264 H2255 0.929 . S
C2264 C2256 1.378 . S
C2264 C2259 1.350 . S
C2265 H2252 0.929 . S
C2265 C2257 1.433 . S
C2265 N2267 1.384 . S
N2266 C2262 1.427 . S
N2266 C2263 1.384 . S
N2267 C2259 1.427 . S
N2267 C2265 1.384 . S
H2268 C2274 0.930 1_455 S
H2269 C2278 0.930 . S
H2270 C2283 0.929 . S
H2271 C2281 0.929 . S
H2272 C2276 0.929 . S
H2273 C2282 0.928 1_455 S
C2274 H2268 0.930 1_655 S
C2274 C2275 1.367 . S
C2274 C2282 1.378 . S
C2275 C2274 1.367 . S
C2275 C2283 1.433 . S
C2276 H2272 0.929 . S
C2276 C2278 1.378 . S
C2276 C2280 1.350 . S
C2277 C2280 1.463 . S
C2277 C2282 1.350 . S
C2277 N2285 1.427 . S
C2278 H2269 0.930 . S
C2278 C2276 1.378 . S
C2278 C2279 1.367 . S
C2279 C2278 1.367 . S
C2279 C2281 1.433 1_655 S
C2280 C2276 1.350 . S
C2280 C2277 1.463 . S
C2280 N2284 1.427 1_655 S
C2281 H2271 0.929 . S
C2281 C2279 1.433 1_455 S
C2281 N2284 1.384 . S
C2282 H2273 0.928 1_655 S
C2282 C2274 1.378 . S
C2282 C2277 1.350 . S
C2283 H2270 0.929 . S
C2283 C2275 1.433 . S
C2283 N2285 1.384 . S
N2284 C2280 1.427 1_455 S
N2284 C2281 1.384 . S
N2285 C2277 1.427 . S
N2285 C2283 1.384 . S
H2286 C2292 0.930 . S
H2287 C2296 0.930 . S
H2288 C2301 0.929 . S
H2289 C2299 0.929 . S
H2290 C2294 0.929 . S
H2291 C2300 0.929 . S
C2292 H2286 0.930 . S
C2292 C2293 1.367 . S
C2292 C2300 1.378 . S
C2293 C2292 1.367 . S
C2293 C2301 1.433 . S
C2294 H2290 0.929 . S
C2294 C2296 1.378 . S
C2294 C2298 1.350 . S
C2295 C2298 1.463 . S
C2295 C2300 1.350 . S
C2295 N2303 1.427 . S
C2296 H2287 0.930 . S
C2296 C2294 1.378 . S
C2296 C2297 1.367 . S
C2297 C2296 1.367 . S
C2297 C2299 1.433 . S
C2298 C2294 1.350 . S
C2298 C2295 1.463 . S
C2298 N2302 1.427 . S
C2299 H2289 0.929 . S
C2299 C2297 1.433 . S
C2299 N2302 1.384 . S
C2300 H2291 0.929 . S
C2300 C2292 1.378 . S
C2300 C2295 1.350 . S
C2301 H2288 0.929 . S
C2301 C2293 1.433 . S
C2301 N2303 1.384 . S
N2302 C2298 1.427 . S
N2302 C2299 1.384 . S
N2303 C2295 1.427 . S
N2303 C2301 1.384 . S
H2304 C2310 0.930 . S
H2305 C2314 0.930 . S
H2306 C2319 0.929 . S
H2307 C2317 0.929 . S
H2308 C2312 0.929 . S
H2309 C2318 0.929 . S
C2310 H2304 0.930 . S
C2310 C2311 1.367 1_565 S
C2310 C2318 1.378 . S
C2311 C2310 1.367 1_545 S
C2311 C2319 1.433 . S
C2312 H2308 0.929 . S
C2312 C2314 1.378 . S
C2312 C2316 1.350 . S
C2313 C2316 1.463 . S
C2313 C2318 1.350 1_545 S
C2313 N2321 1.427 . S
C2314 H2305 0.930 . S
C2314 C2312 1.378 . S
C2314 C2315 1.367 . S
C2315 C2314 1.367 . S
C2315 C2317 1.433 1_545 S
C2316 C2312 1.350 . S
C2316 C2313 1.463 . S
C2316 N2320 1.427 1_545 S
C2317 H2307 0.929 . S
C2317 C2315 1.433 1_565 S
C2317 N2320 1.384 . S
C2318 H2309 0.929 . S
C2318 C2310 1.378 . S
C2318 C2313 1.350 1_565 S
C2319 H2306 0.929 . S
C2319 C2311 1.433 . S
C2319 N2321 1.384 . S
N2320 C2316 1.427 1_565 S
N2320 C2317 1.384 . S
N2321 C2313 1.427 . S
N2321 C2319 1.384 . S
C1033 C4 1.491 1_655 S
C1037 C854 1.468 1_655 S
C1051 C38 1.668 . S
C1055 C867 1.649 . S
C1073 C896 1.448 1_545 S
C1069 C74 1.510 . S
C1087 C76 1.498 . S
C1091 C909 1.457 . S
C1105 C2 1.611 . S
C1109 C930 1.594 . S
C1123 C40 1.525 . S
C1127 C959 1.452 . S
C1141 C110 1.614 . S
C1145 C938 1.581 . S
C1163 C951 1.437 . S
C1159 C148 1.493 . S
C1181 C917 1.521 . S
C1177 C182 1.574 1_565 S
C1195 C184 1.529 . S
C1199 C888 1.508 1_545 S
C1217 C846 1.433 1_655 S
C1213 C112 1.480 1_655 S
C1231 C146 1.597 . S
C1235 C875 1.571 . S
C1249 C220 1.581 . S
C1253 C980 1.504 . S
C1267 C254 1.712 . S
C1271 C993 1.692 . S
C1289 C1022 1.518 . S
C1285 C290 1.598 . S
C1303 C292 1.523 . S
C1307 C657 1.502 . S
C1321 C218 1.664 . S
C1325 C678 1.647 . S
C1339 C256 1.526 . S
C1343 C707 1.454 . S
C1357 C326 1.640 . S
C1361 C686 1.616 . S
C1375 C364 1.525 . S
C1379 C699 1.472 . S
C1397 C665 1.598 . S
C1393 C398 1.616 . S
C1415 C1014 1.532 . S
C1411 C400 1.584 . S
C1433 C972 1.452 . S
C1429 C328 1.493 . S
C1451 C1001 1.611 . S
C1447 C362 1.636 . S
C1465 C436 1.552 . S
C1469 C728 1.490 . S
C1483 C470 1.693 . S
C1487 C741 1.678 . S
C1501 C506 1.592 . S
C1505 C770 1.527 . S
C1519 C508 1.560 . S
C1523 C783 1.540 . S
C1541 C804 1.641 . S
C1537 C434 1.661 . S
C1559 C833 1.470 . S
C1555 C472 1.550 . S
C1577 C812 1.653 . S
C1573 C542 1.678 . S
C1595 C825 1.469 . S
C1591 C580 1.530 . S
C1609 C614 1.611 . S
C1613 C791 1.591 . S
C1631 C762 1.506 . S
C1627 C616 1.549 . S
C1645 C544 1.503 . S
C1649 C720 1.453 . S
C1667 C749 1.586 . S
C1663 C578 1.612 . S
C1685 C660 1.440 . S
C1681 C14 1.496 . S
C1699 C39 1.480 . S
C1703 C681 1.387 . S
C1721 C709 1.346 . S
C1717 C75 1.467 . S
C1739 C730 1.301 . S
C1735 C86 1.349 . S
C1757 C744 1.417 . S
C1753 C3 1.507 . S
C1775 C772 1.379 . S
C1771 C50 1.447 . S
C1789 C111 1.525 . S
C1793 C765 1.352 . S
C1807 C158 1.422 . S
C1811 C723 1.277 . S
C1825 C183 1.581 . S
C1829 C751 1.498 . S
C1843 C194 1.484 . S
C1847 C688 1.445 . S
C1865 C702 1.300 . S
C1861 C122 1.412 . S
C1879 C147 1.439 . S
C1883 C667 1.358 . S
C1901 C786 1.414 . S
C1897 C230 1.482 . S
C1915 C255 1.543 . S
C1919 C807 1.427 . S
C1933 C291 1.489 . S
C1937 C835 1.369 . S
C1955 C856 1.280 . S
C1951 C302 1.320 . S
C1969 C219 1.506 . S
C1973 C870 1.412 . S
C1987 C266 1.389 . S
C1991 C898 1.385 . S
C2005 C327 1.417 . S
C2009 C891 1.274 . S
C2023 C374 1.374 . S
C2027 C849 1.286 . S
C2045 C877 1.485 . S
C2041 C399 1.571 . S
C2059 C410 1.489 . S
C2063 C814 1.444 . S
C2077 C338 1.471 . S
C2081 C828 1.334 . S
C2099 C793 1.424 . S
C2095 C363 1.500 . S
C2117 C912 1.345 1_545 S
C2113 C446 1.400 . S
C2131 C471 1.451 . S
C2135 C933 1.328 1_655 S
C2149 C507 1.448 . S
C2153 C961 1.322 . S
C2171 C982 1.291 . S
C2167 C518 1.353 . S
C2189 C996 1.435 . S
C2185 C435 1.552 . S
C2203 C482 1.483 . S
C2207 C1024 1.436 . S
C2221 C543 1.492 . S
C2225 C1017 1.319 . S
C2239 C590 1.463 . S
C2243 C975 1.340 . S
C2261 C1003 1.517 . S
C2257 C615 1.605 . S
C2279 C940 1.372 1_655 S
C2275 C626 1.401 . S
C2297 C954 1.335 . S
C2293 C554 1.436 . S
C2311 C579 1.413 . S
C2315 C919 1.330 1_545 S
