# Generated by pormake.
# Topology pyr, (3,6)-cn, num edge types: 1
# Building blocks:
#     Node 0, Type 0, BuildingBlock: BELTOD_clean_linker_0, # of connection points: 3
#     Node 1, Type 0, BuildingBlock: BELTOD_clean_linker_0, # of connection points: 3
#     Node 2, Type 0, BuildingBlock: BELTOD_clean_linker_0, # of connection points: 3
#     Node 3, Type 0, BuildingBlock: BELTOD_clean_linker_0, # of connection points: 3
#     Node 4, Type 0, BuildingBlock: BELTOD_clean_linker_0, # of connection points: 3
#     Node 5, Type 0, BuildingBlock: BELTOD_clean_linker_0, # of connection points: 3
#     Node 6, Type 0, BuildingBlock: BELTOD_clean_linker_0, # of connection points: 3
#     Node 7, Type 0, BuildingBlock: BELTOD_clean_linker_0, # of connection points: 3
#     Node 8, Type 1, BuildingBlock: BETFAJ_clean_sbu_0, # of connection points: 6
#     Node 9, Type 1, BuildingBlock: BETFAJ_clean_sbu_0, # of connection points: 6
#     Node 10, Type 1, BuildingBlock: BETFAJ_clean_sbu_0, # of connection points: 6
#     Node 11, Type 1, BuildingBlock: BETFAJ_clean_sbu_0, # of connection points: 6
#     Edge 12, Type (0, 1), BuildingBlock: UVAHIK_clean_linker_0, # of connection points: 2
#     Edge 13, Type (0, 1), BuildingBlock: UVAHIK_clean_linker_0, # of connection points: 2
#     Edge 14, Type (0, 1), BuildingBlock: UVAHIK_clean_linker_0, # of connection points: 2
#     Edge 15, Type (0, 1), BuildingBlock: UVAHIK_clean_linker_0, # of connection points: 2
#     Edge 16, Type (0, 1), BuildingBlock: UVAHIK_clean_linker_0, # of connection points: 2
#     Edge 17, Type (0, 1), BuildingBlock: UVAHIK_clean_linker_0, # of connection points: 2
#     Edge 18, Type (0, 1), BuildingBlock: UVAHIK_clean_linker_0, # of connection points: 2
#     Edge 19, Type (0, 1), BuildingBlock: UVAHIK_clean_linker_0, # of connection points: 2
#     Edge 20, Type (0, 1), BuildingBlock: UVAHIK_clean_linker_0, # of connection points: 2
#     Edge 21, Type (0, 1), BuildingBlock: UVAHIK_clean_linker_0, # of connection points: 2
#     Edge 22, Type (0, 1), BuildingBlock: UVAHIK_clean_linker_0, # of connection points: 2
#     Edge 23, Type (0, 1), BuildingBlock: UVAHIK_clean_linker_0, # of connection points: 2
#     Edge 24, Type (0, 1), BuildingBlock: UVAHIK_clean_linker_0, # of connection points: 2
#     Edge 25, Type (0, 1), BuildingBlock: UVAHIK_clean_linker_0, # of connection points: 2
#     Edge 26, Type (0, 1), BuildingBlock: UVAHIK_clean_linker_0, # of connection points: 2
#     Edge 27, Type (0, 1), BuildingBlock: UVAHIK_clean_linker_0, # of connection points: 2
#     Edge 28, Type (0, 1), BuildingBlock: UVAHIK_clean_linker_0, # of connection points: 2
#     Edge 29, Type (0, 1), BuildingBlock: UVAHIK_clean_linker_0, # of connection points: 2
#     Edge 30, Type (0, 1), BuildingBlock: UVAHIK_clean_linker_0, # of connection points: 2
#     Edge 31, Type (0, 1), BuildingBlock: UVAHIK_clean_linker_0, # of connection points: 2
#     Edge 32, Type (0, 1), BuildingBlock: UVAHIK_clean_linker_0, # of connection points: 2
#     Edge 33, Type (0, 1), BuildingBlock: UVAHIK_clean_linker_0, # of connection points: 2
#     Edge 34, Type (0, 1), BuildingBlock: UVAHIK_clean_linker_0, # of connection points: 2
#     Edge 35, Type (0, 1), BuildingBlock: UVAHIK_clean_linker_0, # of connection points: 2
# Relax obj value: 0.077
# Max RMSD: 0.118
# Mean RMSD: 0.055
data_MOF--net-pyr--node1-BETFAJ_clean_sbu_0--node2-BELTOD_clean_linker_0--edge1-UVAHIK_clean_linker_0
_symmetry_space_group_name_H-M    P1
_symmetry_Int_Tables_number       1
_symmetry_cell_setting            triclinic
loop_
_symmetry_equiv_pos_as_xyz
'x, y, z'
_cell_length_a     55.417876
_cell_length_b     57.189944
_cell_length_c     50.659799
_cell_angle_alpha  90.46707
_cell_angle_beta   88.789273
_cell_angle_gamma 100.08843
loop_
_atom_site_label
_atom_site_type_symbol
_atom_site_fract_x
_atom_site_fract_y
_atom_site_fract_z
_atom_type_partial_charge
P0 P 0.32537 0.30562 0.24278 0.0
H1 H 0.37389 0.30277 0.22056 0.0
H2 H 0.39093 0.2705 0.19929 0.0
H3 H 0.32095 0.22401 0.20929 0.0
H4 H 0.30398 0.2564 0.22972 0.0
H5 H 0.31019 0.35155 0.24703 0.0
H6 H 0.2867 0.37266 0.21811 0.0
H7 H 0.28904 0.31924 0.15769 0.0
H8 H 0.31196 0.29794 0.18702 0.0
H9 H 0.32506 0.28978 0.2976 0.0
H10 H 0.27228 0.29276 0.2369 0.0
O11 O 0.34729 0.32295 0.25951 0.0
H12 H 0.29218 0.27024 0.32717 0.0
H13 H 0.23964 0.27304 0.26591 0.0
C14 C 0.33786 0.28185 0.22722 0.0
C15 C 0.36228 0.28559 0.21821 0.0
C16 C 0.37201 0.2671 0.20615 0.0
C17 C 0.35735 0.2446 0.20275 0.0
C18 C 0.3327 0.24114 0.21138 0.0
C19 C 0.32303 0.25963 0.22335 0.0
C20 C 0.31306 0.32337 0.21908 0.0
C21 C 0.30615 0.34473 0.2273 0.0
C22 C 0.29275 0.35679 0.2107 0.0
C23 C 0.2859 0.34761 0.18557 0.0
C24 C 0.29376 0.32664 0.17703 0.0
C25 C 0.3071 0.31456 0.19371 0.0
C26 C 0.30104 0.29322 0.26532 0.0
C27 C 0.30637 0.28652 0.29078 0.0
C28 C 0.28761 0.2752 0.30755 0.0
C29 C 0.26324 0.27025 0.29897 0.0
C30 C 0.25808 0.27707 0.27339 0.0
C31 C 0.27679 0.28836 0.25672 0.0
P32 P 0.35876 0.94178 0.56062 0.0
H33 H 0.40315 0.96132 0.58978 0.0
H34 H 0.41049 0.9682 0.63714 0.0
H35 H 0.33429 0.94015 0.65432 0.0
H36 H 0.32717 0.93315 0.60742 0.0
H37 H 0.39585 0.91845 0.53442 0.0
H38 H 0.40103 0.8769 0.53207 0.0
H39 H 0.33176 0.85628 0.57375 0.0
H40 H 0.32718 0.89784 0.57675 0.0
H41 H 0.33388 0.98037 0.57669 0.0
H42 H 0.3175 0.91667 0.52945 0.0
O43 O 0.3794 0.95946 0.54202 0.0
H44 H 0.29107 0.98532 0.57499 0.0
H45 H 0.2745 0.92136 0.52801 0.0
C46 C 0.36448 0.94742 0.59508 0.0
C47 C 0.38805 0.95685 0.60378 0.0
C48 C 0.39223 0.96062 0.63077 0.0
C49 C 0.37285 0.95502 0.64929 0.0
C50 C 0.34943 0.9451 0.64044 0.0
C51 C 0.34536 0.94111 0.61362 0.0
C52 C 0.36094 0.91114 0.55535 0.0
C53 C 0.38161 0.90493 0.54265 0.0
C54 C 0.3845 0.88115 0.54126 0.0
C55 C 0.3668 0.86326 0.55274 0.0
C56 C 0.34587 0.86962 0.56499 0.0
C57 C 0.34311 0.89336 0.56649 0.0
C58 C 0.32863 0.94769 0.55406 0.0
C59 C 0.3211 0.96756 0.56576 0.0
C60 C 0.29662 0.97027 0.56495 0.0
C61 C 0.27936 0.95335 0.552 0.0
C62 C 0.28738 0.93452 0.53837 0.0
C63 C 0.31192 0.93177 0.53932 0.0
P64 P 0.66153 0.33657 0.84337 0.0
H65 H 0.70957 0.32619 0.85597 0.0
H66 H 0.74361 0.34689 0.88146 0.0
H67 H 0.70177 0.40203 0.90069 0.0
H68 H 0.66777 0.38125 0.87434 0.0
H69 H 0.61409 0.30706 0.83213 0.0
H70 H 0.58957 0.27322 0.85472 0.0
H71 H 0.64141 0.2816 0.91816 0.0
H72 H 0.66494 0.31612 0.89613 0.0
H73 H 0.67845 0.36752 0.79926 0.0
H74 H 0.61223 0.35065 0.84657 0.0
O75 O 0.6743 0.32092 0.82076 0.0
H76 H 0.6583 0.39156 0.77014 0.0
H77 H 0.59179 0.37477 0.81741 0.0
C78 C 0.68626 0.35235 0.86286 0.0
C79 C 0.70771 0.3428 0.86553 0.0
C80 C 0.72714 0.35459 0.88041 0.0
C81 C 0.72556 0.3762 0.89326 0.0
C82 C 0.70382 0.38562 0.8908 0.0
C83 C 0.68431 0.37372 0.87584 0.0
C84 C 0.64103 0.3147 0.86268 0.0
C85 C 0.61972 0.30211 0.85134 0.0
C86 C 0.60593 0.28239 0.86412 0.0
C87 C 0.61347 0.27433 0.88833 0.0
C88 C 0.63465 0.28733 0.89985 0.0
C89 C 0.64825 0.30722 0.88716 0.0
C90 C 0.64677 0.35689 0.82481 0.0
C91 C 0.65959 0.3692 0.80355 0.0
C92 C 0.64804 0.38306 0.78693 0.0
C93 C 0.62328 0.38499 0.79119 0.0
C94 C 0.61072 0.37335 0.81322 0.0
C95 C 0.62242 0.35958 0.82999 0.0
P96 P 0.8093 0.69987 0.34016 0.0
H97 H 0.85496 0.73043 0.32447 0.0
H98 H 0.8806 0.76396 0.34615 0.0
H99 H 0.83637 0.74993 0.41741 0.0
H100 H 0.81132 0.71615 0.39587 0.0
H101 H 0.80444 0.68825 0.28406 0.0
H102 H 0.82472 0.66425 0.25416 0.0
H103 H 0.86628 0.64421 0.31897 0.0
H104 H 0.84651 0.66957 0.34874 0.0
H105 H 0.76779 0.71429 0.36744 0.0
H106 H 0.79727 0.6497 0.35837 0.0
O107 O 0.79565 0.71681 0.32071 0.0
H108 H 0.73339 0.69319 0.39339 0.0
H109 H 0.76287 0.62835 0.38481 0.0
C110 C 0.8313 0.72057 0.35851 0.0
C111 C 0.85119 0.73419 0.34499 0.0
C112 C 0.86565 0.75359 0.35734 0.0
C113 C 0.86043 0.75993 0.38349 0.0
C114 C 0.84111 0.74554 0.39735 0.0
C115 C 0.82666 0.72614 0.38496 0.0
C116 C 0.82404 0.68088 0.31868 0.0
C117 C 0.81796 0.67879 0.29194 0.0
C118 C 0.82948 0.66475 0.27479 0.0
C119 C 0.84716 0.65199 0.28397 0.0
C120 C 0.85304 0.65394 0.31098 0.0
C121 C 0.84162 0.6683 0.32813 0.0
C122 C 0.7851 0.68363 0.36084 0.0
C123 C 0.76695 0.69554 0.37122 0.0
C124 C 0.74732 0.68344 0.38625 0.0
C125 C 0.74529 0.65901 0.39132 0.0
C126 C 0.7637 0.64709 0.3811 0.0
C127 C 0.78349 0.65933 0.36608 0.0
P128 P 0.71515 0.81224 0.8748 0.0
H129 H 0.69043 0.81184 0.92573 0.0
H130 H 0.65169 0.82332 0.93924 0.0
H131 H 0.63209 0.82626 0.8573 0.0
H132 H 0.67127 0.81542 0.84399 0.0
H133 H 0.76339 0.80052 0.87595 0.0
H134 H 0.77885 0.76424 0.8852 0.0
H135 H 0.70467 0.72715 0.8983 0.0
H136 H 0.68926 0.76404 0.88926 0.0
H137 H 0.73312 0.85609 0.84646 0.0
H138 H 0.71034 0.782 0.82748 0.0
O139 O 0.73245 0.83358 0.89212 0.0
H140 H 0.74699 0.86406 0.80106 0.0
H141 H 0.72356 0.78989 0.78147 0.0
C142 C 0.68385 0.81314 0.88393 0.0
C143 C 0.67748 0.81432 0.91072 0.0
C144 C 0.65522 0.8208 0.9184 0.0
C145 C 0.6389 0.82611 0.89932 0.0
C146 C 0.64448 0.8228 0.87246 0.0
C147 C 0.66685 0.81644 0.86482 0.0
C148 C 0.72529 0.78498 0.88233 0.0
C149 C 0.75044 0.78461 0.88091 0.0
C150 C 0.75922 0.76376 0.8859 0.0
C151 C 0.74297 0.74274 0.89227 0.0
C152 C 0.71763 0.74311 0.89358 0.0
C153 C 0.70881 0.76413 0.88845 0.0
C154 C 0.72136 0.81838 0.84039 0.0
C155 C 0.73074 0.84159 0.83235 0.0
C156 C 0.73841 0.84614 0.80623 0.0
C157 C 0.73657 0.82756 0.78757 0.0
C158 C 0.72563 0.80452 0.79542 0.0
C159 C 0.71802 0.79998 0.82167 0.0
P160 P 0.75596 0.24587 0.43618 0.0
H161 H 0.75652 0.2849 0.47394 0.0
H162 H 0.72623 0.29432 0.5062 0.0
H163 H 0.67819 0.22868 0.48671 0.0
H164 H 0.7082 0.21989 0.45384 0.0
H165 H 0.80715 0.24117 0.42787 0.0
H166 H 0.83081 0.2114 0.44192 0.0
H167 H 0.76783 0.17589 0.48665 0.0
H168 H 0.74417 0.20504 0.47172 0.0
H169 H 0.71112 0.25354 0.41058 0.0
H170 H 0.76695 0.21052 0.39756 0.0
O171 O 0.77414 0.27113 0.42732 0.0
H172 H 0.68854 0.23432 0.3731 0.0
H173 H 0.74513 0.192 0.35953 0.0
C174 C 0.7343 0.25203 0.46108 0.0
C175 C 0.73946 0.27256 0.47664 0.0
C176 C 0.72224 0.27775 0.49534 0.0
C177 C 0.6997 0.2623 0.49894 0.0
C178 C 0.69517 0.24115 0.48411 0.0
C179 C 0.71231 0.2361 0.46532 0.0
C180 C 0.77407 0.22565 0.4492 0.0
C181 C 0.79858 0.22715 0.441 0.0
C182 C 0.81207 0.21012 0.44907 0.0
C183 C 0.80122 0.19126 0.46547 0.0
C184 C 0.77667 0.18998 0.47376 0.0
C185 C 0.76317 0.2069 0.4655 0.0
C186 C 0.74026 0.23287 0.40746 0.0
C187 C 0.71853 0.23997 0.39965 0.0
C188 C 0.70577 0.22913 0.37803 0.0
C189 C 0.71483 0.21133 0.3635 0.0
C190 C 0.73725 0.20513 0.37071 0.0
C191 C 0.74985 0.21582 0.39245 0.0
P192 P 0.34971 0.68321 0.19598 0.0
H193 H 0.33184 0.65033 0.15322 0.0
H194 H 0.29109 0.63241 0.13895 0.0
H195 H 0.25886 0.66905 0.20171 0.0
H196 H 0.30015 0.68703 0.21613 0.0
H197 H 0.3938 0.71784 0.20562 0.0
H198 H 0.40584 0.75983 0.19496 0.0
H199 H 0.33248 0.76136 0.16855 0.0
H200 H 0.32088 0.7192 0.17846 0.0
H201 H 0.34805 0.63504 0.21386 0.0
H202 H 0.36488 0.70511 0.24804 0.0
O203 O 0.36951 0.67373 0.17492 0.0
H204 H 0.3606 0.61794 0.25422 0.0
H205 H 0.37813 0.68816 0.28844 0.0
C206 C 0.31913 0.67024 0.18565 0.0
C207 C 0.31612 0.65461 0.16401 0.0
C208 C 0.29271 0.6442 0.15591 0.0
C209 C 0.27166 0.64923 0.16919 0.0
C210 C 0.27469 0.66494 0.19092 0.0
C211 C 0.29824 0.67518 0.19923 0.0
C212 C 0.35629 0.71531 0.19342 0.0
C213 C 0.38013 0.72735 0.19813 0.0
C214 C 0.387 0.75147 0.19198 0.0
C215 C 0.37019 0.76418 0.18077 0.0
C216 C 0.34607 0.75218 0.17679 0.0
C217 C 0.33926 0.728 0.18287 0.0
C218 C 0.35565 0.67135 0.22777 0.0
C219 C 0.35427 0.64676 0.23018 0.0
C220 C 0.36171 0.63701 0.25323 0.0
C221 C 0.37081 0.65166 0.27454 0.0
C222 C 0.37121 0.67631 0.2725 0.0
C223 C 0.36372 0.68607 0.2493 0.0
P224 P 0.16641 0.34515 0.74667 0.0
H225 H 0.17855 0.29855 0.73635 0.0
H226 H 0.15917 0.2641 0.71119 0.0
H227 H 0.1025 0.30243 0.68796 0.0
H228 H 0.12231 0.33719 0.71333 0.0
H229 H 0.2168 0.36635 0.75876 0.0
H230 H 0.25068 0.38791 0.73238 0.0
H231 H 0.20327 0.38527 0.66543 0.0
H232 H 0.16917 0.36357 0.69219 0.0
H233 H 0.11857 0.33163 0.77275 0.0
H234 H 0.16955 0.39629 0.75718 0.0
O235 O 0.17967 0.33365 0.77158 0.0
H236 H 0.09439 0.35339 0.80182 0.0
H237 H 0.14571 0.41812 0.78645 0.0
C238 C 0.15155 0.32025 0.72727 0.0
C239 C 0.16186 0.29956 0.72602 0.0
C240 C 0.15069 0.27979 0.71165 0.0
C241 C 0.12903 0.28031 0.69786 0.0
C242 C 0.11914 0.30141 0.69839 0.0
C243 C 0.13034 0.32124 0.71298 0.0
C244 C 0.19055 0.36293 0.72731 0.0
C245 C 0.2136 0.37037 0.73842 0.0
C246 C 0.23303 0.38266 0.72326 0.0
C247 C 0.22982 0.38801 0.69666 0.0
C248 C 0.20637 0.38142 0.68585 0.0
C249 C 0.18689 0.36894 0.70108 0.0
C250 C 0.14559 0.36237 0.76224 0.0
C251 C 0.12421 0.35064 0.775 0.0
C252 C 0.11057 0.36308 0.79194 0.0
C253 C 0.11815 0.38753 0.79669 0.0
C254 C 0.13912 0.39939 0.78307 0.0
C255 C 0.15279 0.38689 0.7662 0.0
Sm256 Sm 0.00891 0.0344 0.50484 0.0
Sm257 Sm -0.00412 1.01057 0.55767 0.0
C258 C 0.01348 0.05471 0.45787 0.0
C259 C 0.03112 0.07448 0.44681 0.0
C260 C 0.02804 0.08294 0.42148 0.0
C261 C 0.04545 0.10121 0.41067 0.0
C262 C 0.06626 0.11122 0.42505 0.0
C263 C 0.06899 0.1028 0.45064 0.0
C264 C 0.05154 0.08466 0.46144 0.0
C265 C 0.04694 1.01786 0.52759 0.0
C266 C 0.02582 0.0657 0.55652 0.0
C267 C 0.98995 0.99048 0.60462 0.0
C268 C 0.97096 0.97149 0.61528 0.0
C269 C 0.9617 0.95154 0.5998 0.0
C270 C 0.94134 0.93531 0.60858 0.0
C271 C 0.92969 0.93896 0.63277 0.0
C272 C 0.93942 0.95855 0.64855 0.0
C273 C 0.95994 0.97464 0.6399 0.0
C274 C 0.95911 0.02998 0.53525 0.0
C275 C 0.97844 0.97914 0.50658 0.0
O276 O -0.00121 0.06034 0.4765 0.0
O277 O 0.02253 0.03571 0.46336 0.0
O278 O 0.02515 1.00682 0.5272 0.0
O279 O 0.04944 0.03766 0.51473 0.0
O280 O 0.01926 0.0669 0.53173 0.0
O281 O 0.02218 0.04521 0.56928 0.0
O282 O 0.00478 0.98436 0.58638 0.0
O283 O 0.98232 1.01024 0.59921 0.0
O284 O 0.98133 0.03911 0.53613 0.0
O285 O 0.955 1.00979 0.54748 0.0
O286 O 0.98465 0.97809 0.53143 0.0
O287 O 0.9828 0.99942 0.49342 0.0
H288 H 0.01229 0.07531 0.41001 0.0
H289 H 0.04259 0.10751 0.39108 0.0
H290 H 0.08491 0.10982 0.46213 0.0
H291 H 0.05416 0.07831 0.48109 0.0
H292 H 0.96964 0.94889 0.58052 0.0
H293 H 0.93408 0.92047 0.59595 0.0
H294 H 0.93092 0.96162 0.66742 0.0
H295 H 0.96667 0.99001 0.652 0.0
Sm296 Sm 0.50882 0.03472 0.05981 0.0
Sm297 Sm 0.45599 1.01684 1.02875 0.0
C298 C 0.55162 0.05859 0.07438 0.0
C299 C 0.56286 0.06931 0.09863 0.0
C300 C 0.54958 0.08122 0.11662 0.0
C301 C 0.56083 0.09201 0.1391 0.0
C302 C 0.58543 0.09082 0.1441 0.0
C303 C 0.5985 0.07848 0.12632 0.0
C304 C 0.58731 0.06788 0.10371 0.0
C305 C 0.47865 0.99717 0.08531 0.0
C306 C 0.45929 0.05581 0.07781 0.0
C307 C 0.41403 0.99367 1.01125 0.0
C308 C 0.40426 0.9888 0.98447 0.0
C309 C 0.40118 0.96558 0.97425 0.0
C310 C 0.39552 0.9612 0.94773 0.0
C311 C 0.39256 0.97992 0.931 0.0
C312 C 0.39432 1.00293 0.94156 0.0
C313 C 0.40019 1.00736 0.96801 0.0
C314 C 0.48643 0.05401 1.00289 0.0
C315 C 0.50509 0.99409 1.01299 0.0
O316 O 0.53435 0.06867 0.06448 0.0
O317 O 0.5468 0.03532 0.07345 0.0
O318 O 0.4746 1.00816 0.06498 0.0
O319 O 0.49999 1.00699 0.09402 0.0
O320 O 0.48355 0.05853 0.07783 0.0
O321 O 0.44515 0.03946 0.06353 0.0
O322 O 0.43241 0.98311 1.01707 0.0
O323 O 0.41684 1.01574 1.0197 0.0
O324 O 0.4901 0.0434 1.0236 0.0
O325 O 0.46528 0.04405 0.99395 0.0
O326 O 0.48085 0.99136 1.01345 0.0
O327 O 0.5194 1.01127 1.02589 0.0
H328 H 0.53058 0.08234 0.11323 0.0
H329 H 0.55026 0.10117 0.15266 0.0
H330 H 0.61754 0.07746 0.1296 0.0
H331 H 0.59781 0.05874 0.09005 0.0
H332 H 0.40409 0.95095 0.98655 0.0
H333 H 0.39396 0.94324 0.94016 0.0
H334 H 0.39231 1.01773 0.92908 0.0
H335 H 0.40245 0.02548 0.97522 0.0
Sm336 Sm 0.49205 0.5004 0.52254 0.0
Sm337 Sm 0.47993 0.5406 0.56171 0.0
C338 C 0.5125 0.46801 0.49766 0.0
C339 C 0.52312 0.44779 0.50737 0.0
C340 C 0.54629 0.45147 0.51903 0.0
C341 C 0.55539 0.43251 0.5299 0.0
C342 C 0.54156 0.40943 0.5294 0.0
C343 C 0.51848 0.40573 0.51753 0.0
C344 C 0.50943 0.42468 0.50652 0.0
C345 C 0.44655 0.49222 0.54687 0.0
C346 C 0.50987 0.50113 0.58541 0.0
C347 C 0.45404 0.56532 0.59162 0.0
C348 C 0.44501 0.58776 0.5881 0.0
C349 C 0.43596 0.59326 0.56366 0.0
C350 C 0.42815 0.61486 0.56004 0.0
C351 C 0.4294 0.63152 0.58073 0.0
C352 C 0.43833 0.6259 0.60528 0.0
C353 C 0.44607 0.60416 0.60891 0.0
C354 C 0.5229 0.55736 0.53361 0.0
C355 C 0.46726 0.54209 0.49768 0.0
O356 O 0.52442 0.48934 0.50296 0.0
O357 O 0.48874 0.46624 0.50073 0.0
O358 O 0.4664 0.50131 0.55753 0.0
O359 O 0.45038 0.48632 0.5225 0.0
O360 O 0.51045 0.49206 0.56127 0.0
O361 O 0.49839 0.51908 0.59105 0.0
O362 O 0.44412 0.54759 0.57657 0.0
O363 O 0.47785 0.56703 0.59375 0.0
O364 O 0.50942 0.53731 0.53193 0.0
O365 O 0.5137 0.5698 0.55155 0.0
O366 O 0.46157 0.54766 0.52229 0.0
O367 O 0.48162 0.52636 0.4924 0.0
H368 H 0.55738 0.46904 0.51999 0.0
H369 H 0.57347 0.43593 0.53834 0.0
H370 H 0.50728 0.3882 0.51696 0.0
H371 H 0.49151 0.42129 0.4977 0.0
H372 H 0.43499 0.58089 0.54728 0.0
H373 H 0.42102 0.61845 0.54104 0.0
H374 H 0.43979 0.63847 0.62151 0.0
H375 H 0.45314 0.60028 0.62786 0.0
Sm376 Sm 0.99328 0.49272 0.05957 0.0
Sm377 Sm 0.98431 0.54252 0.03658 0.0
C378 C 0.01038 0.45442 0.07383 0.0
C379 C 0.03441 0.44741 0.07666 0.0
C380 C 0.05584 0.46193 0.06715 0.0
C381 C 0.07872 0.45552 0.07108 0.0
C382 C 0.08048 0.43445 0.0845 0.0
C383 C 0.05885 0.4199 0.09371 0.0
C384 C 0.03603 0.42636 0.08984 0.0
C385 C 0.96556 0.51808 0.09067 0.0
C386 C 0.03652 0.54112 0.06434 0.0
C387 C 0.96534 0.58144 0.03181 0.0
C388 C 0.94585 0.5887 1.01614 0.0
C389 C 0.92375 0.57297 1.01201 0.0
C390 C 0.90465 0.58048 0.99879 0.0
C391 C 0.90737 0.60379 0.98924 0.0
C392 C 0.92979 0.61928 0.99261 0.0
C393 C 0.94886 0.6118 1.00606 0.0
C394 C 0.00552 0.51738 0.99797 0.0
C395 C 0.94411 0.49301 1.02553 0.0
O396 O 0.0038 0.45795 0.04971 0.0
O397 O 0.00524 0.47043 0.09063 0.0
O398 O 0.98442 0.52666 0.07721 0.0
O399 O 0.96118 0.49504 0.08877 0.0
O400 O 0.03093 0.51756 0.0639 0.0
O401 O 0.0209 0.55484 0.05712 0.0
O402 O 0.95797 0.56517 0.04969 0.0
O403 O 0.98541 0.57834 1.01906 0.0
O404 O -0.00036 0.51139 1.02136 0.0
O405 O 0.0002 0.53832 0.99403 0.0
O406 O 0.9485 0.51653 1.02717 0.0
O407 O 0.95961 0.47978 0.03425 0.0
H408 H 0.05487 0.47826 0.05687 0.0
H409 H 0.09501 0.467 0.06354 0.0
H410 H 0.05958 0.40376 0.10448 0.0
H411 H 0.01965 0.41505 0.09743 0.0
H412 H 0.92103 0.55498 1.01944 0.0
H413 H 0.88768 0.5681 0.99619 0.0
H414 H 0.93231 0.63741 0.9856 0.0
H415 H 0.96576 0.62418 1.00904 0.0
C416 C 0.24721 0.23734 0.33067 0.0
C417 C 0.24333 0.25705 0.31596 0.0
C418 C 0.22783 0.22359 0.34463 0.0
C419 C 0.16103 0.20697 0.34333 0.0
H420 H 0.16789 0.18097 0.41269 0.0
C421 C 0.09248 0.12843 0.38648 0.0
C422 C 0.08544 0.12984 0.4132 0.0
C423 C 0.11118 0.14537 0.37558 0.0
C424 C 0.16565 0.18826 0.39341 0.0
H425 H 0.21634 0.27854 0.30563 0.0
H426 H 0.1825 0.2544 0.32981 0.0
H427 H 0.20198 0.2087 0.39295 0.0
H428 H 0.0922 0.15058 0.4492 0.0
H429 H 0.12511 0.17995 0.43018 0.0
H430 H 0.12481 0.18645 0.34368 0.0
C431 C 0.20046 0.2494 0.33019 0.0
C432 C 0.18522 0.20396 0.38204 0.0
C433 C 0.21984 0.26319 0.31633 0.0
C434 C 0.09742 0.14873 0.42867 0.0
C435 C 0.11624 0.16558 0.41779 0.0
C436 C 0.14157 0.19116 0.35461 0.0
C437 C 0.20415 0.22921 0.3441 0.0
C438 C 0.18314 0.21339 0.35683 0.0
C439 C 0.12337 0.16402 0.39116 0.0
C440 C 0.14372 0.18153 0.37969 0.0
H441 H 0.265 0.23196 0.33055 0.0
H442 H 0.23118 0.208 0.35497 0.0
H443 H 0.15897 0.21374 0.32376 0.0
H444 H 0.08397 0.1139 0.37411 0.0
H445 H 0.11651 0.14352 0.35507 0.0
C446 C 0.36024 0.97018 0.69291 0.0
C447 C 0.37677 0.95928 0.67785 0.0
C448 C 0.36288 0.97295 0.72013 0.0
C449 C 0.38761 0.94695 0.77689 0.0
H450 H 0.38027 1.00587 0.812 0.0
C451 C 0.40454 0.96261 0.88821 0.0
C452 C 0.38942 0.97587 0.90227 0.0
C453 C 0.40306 0.96032 0.8608 0.0
C454 C 0.38201 0.98917 0.80256 0.0
H455 H 0.40919 0.94299 0.67929 0.0
H456 H 0.4138 0.94777 0.72713 0.0
H457 H 0.3785 1.00315 0.76402 0.0
H458 H 0.36033 0.99646 0.89886 0.0
H459 H 0.35731 0.99203 0.85102 0.0
H460 H 0.39063 0.93276 0.81537 0.0
C461 C 0.39878 0.95412 0.71778 0.0
C462 C 0.38113 0.98768 0.77507 0.0
C463 C 0.39628 0.95157 0.69045 0.0
C464 C 0.37238 0.98633 0.88846 0.0
C465 C 0.37076 0.98389 0.86107 0.0
C466 C 0.38829 0.94837 0.80441 0.0
C467 C 0.38199 0.96469 0.73289 0.0
C468 C 0.38387 0.96655 0.76197 0.0
C469 C 0.38631 0.97111 0.84686 0.0
C470 C 0.38545 0.96949 0.81759 0.0
H471 H 0.34514 0.97644 0.68362 0.0
H472 H 0.34957 0.98101 0.7313 0.0
H473 H 0.38942 0.93032 0.7673 0.0
H474 H 0.41812 0.95467 0.89829 0.0
H475 H 0.41556 0.95065 0.85049 0.0
C476 C 0.62267 0.41965 0.7607 0.0
C477 C 0.61055 0.39827 0.77205 0.0
C478 C 0.61137 0.43126 0.74146 0.0
C479 C 0.56246 0.42017 0.69169 0.0
H480 H 0.57076 0.48888 0.6898 0.0
C481 C 0.53308 0.47016 0.60195 0.0
C482 C 0.52178 0.49001 0.60704 0.0
C483 C 0.54374 0.4593 0.62232 0.0
C484 C 0.56809 0.46966 0.69009 0.0
H485 H 0.57677 0.37258 0.77198 0.0
H486 H 0.55695 0.39297 0.73874 0.0
H487 H 0.58878 0.46958 0.72537 0.0
H488 H 0.51312 0.51397 0.63783 0.0
H489 H 0.53159 0.49499 0.67329 0.0
H490 H 0.54156 0.42022 0.65659 0.0
C491 C 0.57535 0.40065 0.74457 0.0
C492 C 0.57867 0.45858 0.71039 0.0
C493 C 0.58661 0.38909 0.76392 0.0
C494 C 0.52166 0.49879 0.63307 0.0
C495 C 0.5324 0.48794 0.65345 0.0
C496 C 0.55198 0.43125 0.67134 0.0
C497 C 0.58764 0.4218 0.73288 0.0
C498 C 0.57602 0.43367 0.71148 0.0
C499 C 0.5435 0.46797 0.6484 0.0
C500 C 0.55465 0.45617 0.67021 0.0
H501 H 0.64102 0.4274 0.76662 0.0
H502 H 0.62152 0.44739 0.73283 0.0
H503 H 0.56023 0.40098 0.69165 0.0
H504 H 0.53365 0.46287 0.58219 0.0
H505 H 0.55241 0.44419 0.61754 0.0
C506 C 0.88413 0.63493 0.26782 0.0
C507 C 0.85934 0.63699 0.26525 0.0
C508 C 0.89562 0.62165 0.24956 0.0
C509 C 0.88196 0.57617 0.19556 0.0
H510 H 0.95045 0.59721 0.177 0.0
C511 C 0.93442 0.52006 0.12685 0.0
C512 C 0.95303 0.53179 0.11 0.0
C513 C 0.92321 0.5327 0.14592 0.0
C514 C 0.93123 0.59117 0.18162 0.0
H515 H 0.82714 0.62574 0.24154 0.0
H516 H 0.84728 0.60386 0.2093 0.0
H517 H 0.93063 0.61945 0.20942 0.0
H518 H 0.97449 0.56607 0.09997 0.0
H519 H 0.95422 0.58833 0.13227 0.0
H520 H 0.88218 0.5486 0.16688 0.0
C521 C 0.85788 0.61207 0.22567 0.0
C522 C 0.9199 0.60377 0.20069 0.0
C523 C 0.84635 0.62507 0.24405 0.0
C524 C 0.96005 0.55652 0.11251 0.0
C525 C 0.9486 0.56925 0.13134 0.0
C526 C 0.89319 0.56377 0.17627 0.0
C527 C 0.88273 0.61017 0.22803 0.0
C528 C 0.89506 0.59648 0.20798 0.0
C529 C 0.93007 0.55753 0.14849 0.0
C530 C 0.91803 0.57101 0.16899 0.0
H531 H 0.8949 0.64395 0.28366 0.0
H532 H 0.91464 0.62037 0.25244 0.0
H533 H 0.86296 0.56963 0.20079 0.0
H534 H 0.92873 0.50098 0.12559 0.0
H535 H 0.90944 0.52283 0.15896 0.0
C536 C 0.39146 0.2212 0.19656 0.0
C537 C 0.36771 0.22471 0.19049 0.0
C538 C 0.40101 0.20224 0.18543 0.0
C539 C 0.38272 0.14351 0.1542 0.0
H540 H 0.44975 0.15426 0.12736 0.0
C541 C 0.4229 0.07459 0.09021 0.0
C542 C 0.4476 0.07275 0.09374 0.0
C543 C 0.41267 0.09221 0.10343 0.0
C544 C 0.43111 0.15084 0.13512 0.0
H545 H 0.33559 0.21123 0.16752 0.0
H546 H 0.35224 0.17808 0.14824 0.0
H547 H 0.43305 0.187 0.14737 0.0
H548 H 0.48054 0.08728 0.11497 0.0
H549 H 0.46259 0.11756 0.13829 0.0
H550 H 0.38079 0.10731 0.14195 0.0
C551 C 0.36332 0.18983 0.16191 0.0
C552 C 0.42153 0.16964 0.14653 0.0
C553 C 0.35379 0.20883 0.17296 0.0
C554 C 0.46153 0.08832 0.11154 0.0
C555 C 0.45128 0.10582 0.12481 0.0
C556 C 0.39233 0.12465 0.14285 0.0
C557 C 0.38703 0.18631 0.16803 0.0
C558 C 0.39722 0.16621 0.15615 0.0
C559 C 0.42688 0.10828 0.12055 0.0
C560 C 0.41665 0.1281 0.13314 0.0
H561 H 0.40252 0.23285 0.21032 0.0
H562 H 0.41923 0.19982 0.1908 0.0
H563 H 0.364 0.14024 0.16176 0.0
H564 H 0.41166 0.06295 0.07659 0.0
H565 H 0.39388 0.09372 0.09952 0.0
C566 C 0.23831 0.95168 0.53139 0.0
C567 C 0.253 0.95491 0.55381 0.0
C568 C 0.21373 0.95432 0.53315 0.0
C569 C 0.1733 0.98524 0.57333 0.0
H570 H 0.12245 0.94919 0.53053 0.0
C571 C 0.09085 1.02289 0.53865 0.0
C572 C 0.06788 1.0081 0.53734 0.0
C573 C 0.11142 1.01368 0.54575 0.0
C574 C 0.13633 0.95914 0.54297 0.0
H575 H 0.2532 0.96193 0.59594 0.0
H576 H 0.21032 0.96644 0.59906 0.0
H577 H 0.16231 0.93666 0.53296 0.0
H578 H 0.04802 0.97232 0.54329 0.0
H579 H 0.08436 0.956 0.55555 0.0
H580 H 0.14754 1.00795 0.58295 0.0
C581 C 0.21788 0.96242 0.58001 0.0
C582 C 0.15922 0.95215 0.54409 0.0
C583 C 0.24243 0.9599 0.57821 0.0
C584 C 0.06561 0.98404 0.5441 0.0
C585 C 0.08634 0.97472 0.55099 0.0
C586 C 0.15047 0.99221 0.57218 0.0
C587 C 0.20336 0.9601 0.55742 0.0
C588 C 0.17815 0.9655 0.55874 0.0
C589 C 0.10949 0.98945 0.55158 0.0
C590 C 0.132 0.97965 0.55639 0.0
H591 H 0.24603 0.94788 0.51233 0.0
H592 H 0.20313 0.95273 0.51531 0.0
H593 H 0.1875 0.99603 0.58466 0.0
H594 H 0.09305 0.04153 0.53365 0.0
H595 H 0.12904 0.02541 0.54569 0.0
C596 C 0.75347 0.41364 0.90817 0.0
C597 C 0.74667 0.38875 0.90886 0.0
C598 C 0.77412 0.42514 0.92165 0.0
C599 C 0.83259 0.41395 0.94893 0.0
H600 H 0.83246 0.47324 0.98648 0.0
C601 C 0.91413 0.45627 1.01326 0.0
C602 C 0.92095 0.48115 1.01312 0.0
C603 C 0.89254 0.44516 1.00121 0.0
C604 C 0.83296 0.45684 0.97583 0.0
H605 H 0.75588 0.35665 0.92547 0.0
H606 H 0.79178 0.3766 0.94868 0.0
H607 H 0.7955 0.4539 0.96438 0.0
H608 H 0.91021 0.51377 0.99991 0.0
H609 H 0.87295 0.49448 0.97865 0.0
H610 H 0.87005 0.41693 0.96003 0.0
C611 C 0.78143 0.38723 0.93729 0.0
C612 C 0.8117 0.44572 0.96316 0.0
C613 C 0.76079 0.37577 0.92392 0.0
C614 C 0.90554 0.4946 1.00065 0.0
C615 C 0.88401 0.48349 0.98851 0.0
C616 C 0.85386 0.4251 0.96148 0.0
C617 C 0.78856 0.41205 0.93613 0.0
C618 C 0.8112 0.42408 0.94959 0.0
C619 C 0.87719 0.45859 0.98854 0.0
C620 C 0.85438 0.44669 0.97518 0.0
H621 H 0.74326 0.42424 0.89658 0.0
H622 H 0.77915 0.44426 0.92011 0.0
H623 H 0.83306 0.39753 0.93829 0.0
H624 H 0.92543 0.44529 1.02276 0.0
H625 H 0.88778 0.42599 1.00206 0.0
C626 C 0.7143 0.65723 0.42867 0.0
C627 C 0.72374 0.64622 0.40678 0.0
C628 C 0.693 0.64625 0.44199 0.0
C629 C 0.65142 0.58858 0.45287 0.0
H630 H 0.60496 0.6292 0.47317 0.0
C631 C 0.55413 0.55226 0.49796 0.0
C632 C 0.54595 0.56579 0.51848 0.0
C633 C 0.57584 0.56095 0.48368 0.0
C634 C 0.6178 0.61759 0.46794 0.0
H635 H 0.71831 0.61454 0.38227 0.0
H636 H 0.68112 0.59529 0.40565 0.0
H637 H 0.64286 0.64609 0.45018 0.0
H638 H 0.55421 0.59885 0.54032 0.0
H639 H 0.5919 0.61381 0.51588 0.0
H640 H 0.62622 0.56007 0.47083 0.0
C641 C 0.69034 0.61245 0.41256 0.0
C642 C 0.63961 0.62731 0.45472 0.0
C643 C 0.71171 0.62349 0.39916 0.0
C644 C 0.55994 0.58804 0.52453 0.0
C645 C 0.58152 0.59669 0.51036 0.0
C646 C 0.62952 0.57882 0.4662 0.0
C647 C 0.68047 0.62388 0.43388 0.0
C648 C 0.65688 0.61304 0.44725 0.0
C649 C 0.58973 0.5834 0.48959 0.0
C650 C 0.61254 0.59327 0.4742 0.0
H651 H 0.72334 0.67448 0.43551 0.0
H652 H 0.68632 0.65536 0.45871 0.0
H653 H 0.66434 0.57707 0.44755 0.0
H654 H 0.54363 0.53514 0.49273 0.0
H655 H 0.58146 0.5503 0.46768 0.0
C656 C 0.27095 0.3836 0.16836 0.0
C657 C 0.26895 0.35876 0.1694 0.0
C658 C 0.25347 0.39388 0.15528 0.0
C659 C 0.20302 0.38122 0.10737 0.0
H660 H 0.17664 0.43015 0.14608 0.0
C661 C 0.10802 0.40411 0.0872 0.0
C662 C 0.10474 0.42786 0.08956 0.0
C663 C 0.13028 0.39758 0.09367 0.0
C664 C 0.18406 0.41682 0.13474 0.0
H665 H 0.24715 0.32532 0.15709 0.0
H666 H 0.21688 0.34321 0.13421 0.0
H667 H 0.21197 0.41544 0.16294 0.0
H668 H 0.12251 0.46349 0.10004 0.0
H669 H 0.16157 0.45214 0.11094 0.0
H670 H 0.17476 0.38225 0.07946 0.0
C671 C 0.23212 0.35477 0.14319 0.0
C672 C 0.20434 0.40838 0.14442 0.0
C673 C 0.24953 0.3445 0.1563 0.0
C674 C 0.12449 0.44506 0.09783 0.0
C675 C 0.14678 0.43852 0.10434 0.0
C676 C 0.18277 0.38968 0.09767 0.0
C677 C 0.23365 0.37956 0.14289 0.0
C678 C 0.21378 0.39019 0.1311 0.0
C679 C 0.14983 0.41465 0.10265 0.0
C680 C 0.17277 0.40728 0.1115 0.0
H681 H 0.28587 0.3951 0.17793 0.0
H682 H 0.25534 0.41305 0.15508 0.0
H683 H 0.21011 0.36746 0.09643 0.0
H684 H 0.09326 0.39048 0.08056 0.0
H685 H 0.1319 0.37901 0.09239 0.0
C686 C 0.59841 0.24922 0.92842 0.0
C687 C 0.60008 0.25188 0.90076 0.0
C688 C 0.58666 0.22786 0.93987 0.0
C689 C 0.5409 0.17414 0.92648 0.0
H690 H 0.57152 0.14605 0.98346 0.0
C691 C 0.50072 0.08013 0.96439 0.0
C692 C 0.50183 0.0755 0.99145 0.0
C693 C 0.51351 0.10129 0.95355 0.0
C694 C 0.56247 0.15374 0.96782 0.0
H695 H 0.59074 0.23352 0.86366 0.0
H696 H 0.56977 0.19679 0.88363 0.0
H697 H 0.59152 0.18388 0.96471 0.0
H698 H 0.51646 0.08976 1.02854 0.0
H699 H 0.53865 0.12682 1.00995 0.0
H700 H 0.51161 0.14449 0.92981 0.0
C701 C 0.57746 0.21133 0.89645 0.0
C702 C 0.57403 0.17546 0.95702 0.0
C703 C 0.58942 0.23255 0.88499 0.0
C704 C 0.51604 0.09246 1.00749 0.0
C705 C 0.52864 0.11381 0.99675 0.0
C706 C 0.52923 0.15259 0.93744 0.0
C707 C 0.57601 0.20865 0.92403 0.0
C708 C 0.56346 0.18585 0.93609 0.0
C709 C 0.52739 0.11867 0.9696 0.0
C710 C 0.53989 0.14191 0.95816 0.0
H711 H 0.60598 0.26371 0.94133 0.0
H712 H 0.58562 0.2265 0.96119 0.0
H713 H 0.53206 0.18181 0.91065 0.0
H714 H 0.48982 0.06738 0.95155 0.0
H715 H 0.51242 0.10398 0.93251 0.0
C716 C 0.88025 0.80306 0.38068 0.0
C717 C 0.87404 0.78218 0.39568 0.0
C718 C 0.89196 0.82426 0.39223 0.0
C719 C 0.92824 0.84831 0.45035 0.0
H720 H 0.90779 0.90732 0.4314 0.0
C721 C 0.96052 0.93563 0.50774 0.0
C722 C 0.96625 0.95693 0.49339 0.0
C723 C 0.94949 0.91453 0.49551 0.0
C724 C 0.91397 0.89108 0.43669 0.0
H725 H 0.87583 0.76734 0.4347 0.0
H726 H 0.89593 0.80435 0.45493 0.0
H727 H 0.88853 0.87021 0.41084 0.0
H728 H 0.96463 0.97258 0.45478 0.0
H729 H 0.94558 0.9357 0.43336 0.0
H730 H 0.95366 0.86914 0.47621 0.0
C731 C 0.89191 0.80428 0.43411 0.0
C732 C 0.9029 0.86973 0.42489 0.0
C733 C 0.88014 0.78307 0.42255 0.0
C734 C 0.96045 0.95656 0.46648 0.0
C735 C 0.9494 0.93539 0.45421 0.0
C736 C 0.93933 0.86965 0.46213 0.0
C737 C 0.89784 0.82523 0.41915 0.0
C738 C 0.90983 0.84803 0.43159 0.0
C739 C 0.94386 0.91404 0.46854 0.0
C740 C 0.9323 0.89134 0.45556 0.0
H741 H 0.87559 0.80322 0.36004 0.0
H742 H 0.89648 0.83991 0.37999 0.0
H743 H 0.93437 0.83205 0.4557 0.0
H744 H 0.96453 0.93516 0.52854 0.0
H745 H 0.94513 0.89861 0.50735 0.0
C746 C 0.36498 0.8246 0.57622 0.0
C747 C 0.37078 0.83828 0.55328 0.0
C748 C 0.36968 0.80146 0.57734 0.0
C749 C 0.40955 0.76311 0.54835 0.0
H750 H 0.36351 0.71259 0.5818 0.0
C751 C 0.42758 0.66702 0.55263 0.0
C752 C 0.42171 0.65476 0.57649 0.0
C753 C 0.4203 0.68883 0.54848 0.0
C754 C 0.37665 0.72657 0.57263 0.0
H755 H 0.38549 0.83813 0.51327 0.0
H756 H 0.39393 0.79766 0.51534 0.0
H757 H 0.35224 0.75162 0.57641 0.0
H758 H 0.40339 0.65572 0.61464 0.0
H759 H 0.39125 0.69413 0.60771 0.0
H760 H 0.43416 0.73828 0.545 0.0
C761 C 0.38592 0.80501 0.53251 0.0
C762 C 0.37017 0.74888 0.56948 0.0
C763 C 0.38112 0.82816 0.53135 0.0
C764 C 0.40841 0.66483 0.59615 0.0
C765 C 0.40118 0.68669 0.59203 0.0
C766 C 0.41607 0.74083 0.55158 0.0
C767 C 0.3804 0.7915 0.5556 0.0
C768 C 0.38663 0.76743 0.5575 0.0
C769 C 0.40706 0.69894 0.56815 0.0
C770 C 0.39977 0.72236 0.56394 0.0
H771 H 0.35744 0.83199 0.59365 0.0
H772 H 0.36559 0.79162 0.59554 0.0
H773 H 0.42276 0.77716 0.53939 0.0
H774 H 0.43807 0.6599 0.5372 0.0
H775 H 0.42492 0.69769 0.52977 0.0
C776 C 0.74871 0.85369 0.7482 0.0
C777 C 0.74854 0.83201 0.76112 0.0
C778 C 0.76437 0.86015 0.72654 0.0
C779 C 0.82394 0.84869 0.70221 0.0
H780 H 0.81505 0.89522 0.64971 0.0
C781 C 0.90487 0.89828 0.63965 0.0
C782 C 0.90677 0.92308 0.64097 0.0
C783 C 0.88338 0.88345 0.64819 0.0
C784 C 0.81773 0.88211 0.66417 0.0
H785 H 0.76295 0.79907 0.75967 0.0
H786 H 0.78944 0.80991 0.72124 0.0
H787 H 0.77951 0.87433 0.67441 0.0
H788 H 0.8874 0.95184 0.65103 0.0
H789 H 0.84995 0.926 0.66605 0.0
H790 H 0.86221 0.85695 0.69245 0.0
C791 C 0.77807 0.82229 0.72841 0.0
C792 C 0.79742 0.87019 0.67836 0.0
C793 C 0.76259 0.81594 0.75027 0.0
C794 C 0.88654 0.93277 0.65016 0.0
C795 C 0.865 0.91799 0.6584 0.0
C796 C 0.84417 0.86043 0.68785 0.0
C797 C 0.78002 0.84493 0.71709 0.0
C798 C 0.80041 0.85397 0.69825 0.0
C799 C 0.8633 0.8932 0.65782 0.0
C800 C 0.84138 0.87785 0.66937 0.0
H801 H 0.73768 0.86625 0.75569 0.0
H802 H 0.76534 0.87776 0.71844 0.0
H803 H 0.8271 0.83662 0.7176 0.0
H804 H 0.92022 0.89037 0.63262 0.0
H805 H 0.88251 0.86439 0.64751 0.0
C806 C 0.69988 0.17446 0.33723 0.0
C807 C 0.70084 0.19897 0.34121 0.0
C808 C 0.68694 0.16277 0.31622 0.0
C809 C 0.63717 0.16636 0.27092 0.0
H810 H 0.66835 0.12384 0.22713 0.0
C811 C 0.59506 0.12621 0.17388 0.0
C812 C 0.59759 0.10281 0.16753 0.0
C813 C 0.60718 0.13784 0.19545 0.0
C814 C 0.65921 0.13536 0.23938 0.0
H815 H 0.68887 0.23038 0.32612 0.0
H816 H 0.66586 0.20977 0.28968 0.0
H817 H 0.69032 0.14435 0.26414 0.0
H818 H 0.61415 0.07294 0.17912 0.0
H819 H 0.63493 0.093 0.21714 0.0
H820 H 0.6059 0.15715 0.24647 0.0
C821 C 0.67512 0.19968 0.30295 0.0
C822 C 0.67185 0.14717 0.26052 0.0
C823 C 0.68826 0.21145 0.32385 0.0
C824 C 0.61216 0.0911 0.18338 0.0
C825 C 0.62411 0.10264 0.2051 0.0
C826 C 0.62442 0.15439 0.2499 0.0
C827 C 0.67446 0.17525 0.29887 0.0
C828 C 0.66097 0.1628 0.27646 0.0
C829 C 0.62193 0.12622 0.21127 0.0
C830 C 0.6353 0.13876 0.23385 0.0
H831 H 0.70889 0.16419 0.35054 0.0
H832 H 0.68642 0.14385 0.31376 0.0
H833 H 0.62825 0.17811 0.28311 0.0
H834 H 0.58418 0.13575 0.16177 0.0
H835 H 0.6054 0.1561 0.19936 0.0
C836 C 0.39455 0.62297 0.2951 0.0
C837 C 0.38061 0.64119 0.2982 0.0
C838 C 0.40356 0.61277 0.31703 0.0
C839 C 0.41738 0.62261 0.3883 0.0
H840 H 0.41756 0.55485 0.38721 0.0
C841 C 0.44281 0.57159 0.47979 0.0
C842 C 0.45709 0.55381 0.47526 0.0
C843 C 0.43327 0.58255 0.45866 0.0
C844 C 0.41792 0.57384 0.38778 0.0
H845 H 0.36543 0.663 0.32714 0.0
H846 H 0.38105 0.64511 0.36548 0.0
H847 H 0.40129 0.57332 0.34999 0.0
H848 H 0.47256 0.53384 0.44461 0.0
H849 H 0.45608 0.55294 0.40795 0.0
H850 H 0.43398 0.62302 0.42621 0.0
C851 C 0.38524 0.63888 0.34596 0.0
C852 C 0.40857 0.58448 0.36635 0.0
C853 C 0.37624 0.64915 0.32395 0.0
C854 C 0.46159 0.54736 0.44898 0.0
C855 C 0.45199 0.55825 0.42788 0.0
C856 C 0.4267 0.61193 0.4098 0.0
C857 C 0.39892 0.62042 0.34282 0.0
C858 C 0.40831 0.60906 0.36617 0.0
C859 C 0.43764 0.57597 0.43239 0.0
C860 C 0.42725 0.5874 0.40976 0.0
H861 H 0.39881 0.61672 0.27561 0.0
H862 H 0.41448 0.59903 0.31367 0.0
H863 H 0.4178 0.64161 0.38881 0.0
H864 H 0.43894 0.5771 0.49968 0.0
H865 H 0.42212 0.59594 0.46297 0.0
C866 C 0.09725 0.38937 0.84119 0.0
C867 C 0.10519 0.40027 0.81695 0.0
C868 C 0.08607 0.40156 0.86073 0.0
C869 C 0.05372 0.45254 0.87123 0.0
H870 H 0.07171 0.44744 0.94425 0.0
C871 C 0.02322 0.51311 0.95275 0.0
C872 C 0.01688 0.50344 0.97787 0.0
C873 C 0.03372 0.50021 0.93339 0.0
C874 C 0.06618 0.44884 0.92403 0.0
H875 H 0.10713 0.43255 0.79428 0.0
H876 H 0.08775 0.45384 0.82839 0.0
H877 H 0.09016 0.42564 0.90999 0.0
H878 H 0.01665 0.47263 1.00238 0.0
H879 H 0.03464 0.4498 0.96853 0.0
H880 H 0.02964 0.47559 0.88519 0.0
C881 C 0.09008 0.43578 0.83223 0.0
C882 C 0.07682 0.43633 0.90433 0.0
C883 C 0.1014 0.42363 0.81272 0.0
C884 C 0.02137 0.48055 0.98325 0.0
C885 C 0.03183 0.46755 0.96383 0.0
C886 C 0.043 0.46496 0.89093 0.0
C887 C 0.0824 0.42496 0.85658 0.0
C888 C 0.07081 0.43808 0.87763 0.0
C889 C 0.0381 0.47718 0.93855 0.0
C890 C 0.04915 0.46341 0.91763 0.0
H891 H 0.10013 0.37153 0.84533 0.0
H892 H 0.08019 0.39255 0.87909 0.0
H893 H 0.04833 0.45402 0.85097 0.0
H894 H 0.02012 0.53077 0.94801 0.0
H895 H 0.03868 0.50847 0.91443 0.0
C896 C 0.60498 0.83218 0.93111 0.0
C897 C 0.61816 0.83812 0.90737 0.0
C898 C 0.58874 0.8464 0.94101 0.0
C899 C 0.55548 0.89517 0.9247 0.0
H900 H 0.56762 0.91372 0.9977 0.0
C901 C 0.50247 0.95897 0.98252 0.0
C902 C 0.51665 0.97628 0.99835 0.0
C903 C 0.51297 0.94106 0.97033 0.0
C904 C 0.56408 0.90875 0.97728 0.0
H905 H 0.6235 0.86306 0.87477 0.0
H906 H 0.59501 0.88751 0.89184 0.0
H907 H 0.58747 0.88277 0.97811 0.0
H908 H 0.55317 0.98862 1.01318 0.0
H909 H 0.57142 0.95739 0.99187 0.0
H910 H 0.53252 0.92166 0.92379 0.0
C911 C 0.59713 0.87181 0.90274 0.0
C912 C 0.57517 0.8908 0.96617 0.0
C913 C 0.61345 0.85769 0.89291 0.0
C914 C 0.54168 0.97558 1.00118 0.0
C915 C 0.55212 0.95758 0.98914 0.0
C916 C 0.54423 0.91305 0.9359 0.0
C917 C 0.58523 0.86677 0.92731 0.0
C918 C 0.57127 0.88402 0.93966 0.0
C919 C 0.53781 0.93997 0.97387 0.0
C920 C 0.54874 0.92027 0.96219 0.0
H921 H 0.60785 0.81699 0.9425 0.0
H922 H 0.57948 0.84186 0.9598 0.0
H923 H 0.55207 0.89024 0.90425 0.0
H924 H 0.48313 0.959 0.97984 0.0
H925 H 0.50149 0.92767 0.95875 0.0
C926 C 0.84011 0.17922 0.48029 0.0
C927 C 0.81534 0.17287 0.47368 0.0
C928 C 0.85341 0.16196 0.488 0.0
C929 C 0.85384 0.09745 0.48515 0.0
H930 H 0.90258 0.11359 0.53918 0.0
C931 C 0.9152 0.03352 0.52811 0.0
C932 C 0.94023 0.04348 0.5272 0.0
C933 C 0.89762 0.04744 0.52206 0.0
C934 C 0.88896 0.10885 0.52412 0.0
H935 H 0.7852 0.14328 0.46965 0.0
H936 H 0.80824 0.11325 0.48399 0.0
H937 H 0.87599 0.1417 0.52846 0.0
H938 H 0.96664 0.0754 0.51856 0.0
H939 H 0.9361 0.09955 0.50845 0.0
H940 H 0.86707 0.06446 0.48104 0.0
C941 C 0.81745 0.13156 0.48287 0.0
C942 C 0.87386 0.12497 0.51784 0.0
C943 C 0.80417 0.14883 0.47498 0.0
C944 C 0.94746 0.06726 0.51956 0.0
C945 C 0.93001 0.08114 0.5139 0.0
C946 C 0.86884 0.08116 0.49168 0.0
C947 C 0.84222 0.13795 0.48952 0.0
C948 C 0.85656 0.11975 0.49781 0.0
C949 C 0.90497 0.07149 0.51546 0.0
C950 C 0.88691 0.08704 0.51075 0.0
H951 H 0.84921 0.19759 0.47976 0.0
H952 H 0.87259 0.16747 0.49254 0.0
H953 H 0.84079 0.09293 0.46951 0.0
H954 H 0.90924 1.01518 0.53386 0.0
H955 H 0.87835 0.03967 0.52329 0.0
C956 C 0.24193 0.61392 0.15295 0.0
C957 C 0.2468 0.63808 0.16011 0.0
C958 C 0.21909 0.6036 0.14309 0.0
C959 C 0.15431 0.61286 0.13728 0.0
H960 H 0.15276 0.56555 0.08177 0.0
C961 C 0.06633 0.57714 0.07889 0.0
C962 C 0.06096 0.55249 0.07422 0.0
C963 C 0.08891 0.58771 0.08926 0.0
C964 C 0.15282 0.57858 0.09742 0.0
H965 H 0.23129 0.67026 0.16266 0.0
H966 H 0.19155 0.65243 0.14504 0.0
H967 H 0.19185 0.58374 0.10023 0.0
H968 H 0.07552 0.51975 0.07663 0.0
H969 H 0.11485 0.5382 0.09452 0.0
H970 H 0.11521 0.60785 0.13408 0.0
C971 C 0.20523 0.64127 0.14749 0.0
C972 C 0.17529 0.589 0.10812 0.0
C973 C 0.22806 0.65156 0.15758 0.0
C974 C 0.07895 0.53877 0.07989 0.0
C975 C 0.10159 0.54937 0.09007 0.0
C976 C 0.13185 0.60254 0.12642 0.0
C977 C 0.20047 0.61716 0.13987 0.0
C978 C 0.1764 0.60623 0.12832 0.0
C979 C 0.10682 0.57397 0.09506 0.0
C980 C 0.13079 0.5852 0.10641 0.0
H981 H 0.2558 0.60291 0.15507 0.0
H982 H 0.21604 0.58488 0.13811 0.0
H983 H 0.15427 0.62575 0.15304 0.0
H984 H 0.05298 0.58832 0.07482 0.0
H985 H 0.09241 0.60673 0.09256 0.0
C986 C 0.24907 0.41846 0.66305 0.0
C987 C 0.25115 0.3998 0.6803 0.0
C988 C 0.26951 0.42985 0.64843 0.0
C989 C 0.3379 0.43845 0.64666 0.0
H990 H 0.33114 0.45971 0.5752 0.0
C991 C 0.42094 0.49013 0.58851 0.0
C992 C 0.42311 0.48464 0.56159 0.0
C993 C 0.3993 0.48163 0.6028 0.0
C994 C 0.33343 0.45375 0.59507 0.0
H995 H 0.27615 0.37788 0.69481 0.0
H996 H 0.31146 0.39729 0.66914 0.0
H997 H 0.29498 0.44051 0.59995 0.0
H998 H 0.40417 0.46626 0.52841 0.0
H999 H 0.36671 0.45093 0.55334 0.0
H1000 H 0.37639 0.45075 0.64151 0.0
C1001 C 0.29432 0.40374 0.66743 0.0
C1002 C 0.31257 0.44299 0.60943 0.0
C1003 C 0.274 0.39251 0.68213 0.0
C1004 C 0.40302 0.47086 0.54913 0.0
C1005 C 0.38145 0.46219 0.56344 0.0
C1006 C 0.35873 0.44906 0.63228 0.0
C1007 C 0.29249 0.42274 0.65054 0.0
C1008 C 0.31453 0.435 0.63538 0.0
C1009 C 0.37934 0.46723 0.59057 0.0
C1010 C 0.35686 0.45677 0.60621 0.0
H1011 H 0.23177 0.42461 0.66131 0.0
H1012 H 0.26737 0.44456 0.63587 0.0
H1013 H 0.34018 0.43295 0.66672 0.0
H1014 H 0.4361 0.50076 0.59866 0.0
H1015 H 0.39829 0.48631 0.62349 0.0
C1016 C 0.74427 0.70698 0.92035 0.0
C1017 C 0.75293 0.72096 0.89832 0.0
C1018 C 0.75631 0.68874 0.92831 0.0
C1019 C 0.80514 0.65411 0.908 0.0
H1020 H 0.81728 0.65493 0.98313 0.0
C1021 C 0.88995 0.62559 0.95353 0.0
C1022 C 0.88649 0.61224 0.97687 0.0
C1023 C 0.87043 0.63448 0.94267 0.0
C1024 C 0.81376 0.65419 0.96216 0.0
H1025 H 0.77965 0.72549 0.86605 0.0
H1026 H 0.80106 0.69442 0.8803 0.0
H1027 H 0.78781 0.67759 0.96607 0.0
H1028 H 0.85993 0.59752 1.00704 0.0
H1029 H 0.82587 0.61325 0.98815 0.0
H1030 H 0.83219 0.63163 0.90415 0.0
C1031 C 0.78492 0.69724 0.89143 0.0
C1032 C 0.79676 0.6671 0.95235 0.0
C1033 C 0.77282 0.71532 0.88343 0.0
C1034 C 0.86307 0.60761 0.98891 0.0
C1035 C 0.84363 0.61672 0.97822 0.0
C1036 C 0.82235 0.6414 0.91781 0.0
C1037 C 0.77728 0.68417 0.91442 0.0
C1038 C 0.79262 0.66765 0.92508 0.0
C1039 C 0.84717 0.63041 0.95512 0.0
C1040 C 0.82716 0.64171 0.94492 0.0
H1041 H 0.72897 0.71089 0.93223 0.0
H1042 H 0.74965 0.67872 0.94583 0.0
H1043 H 0.80207 0.65375 0.88696 0.0
H1044 H 0.90778 0.62927 0.94377 0.0
H1045 H 0.87373 0.64517 0.92498 0.0
C1046 C 0.39543 0.80522 0.18654 0.0
C1047 C 0.3782 0.78941 0.17208 0.0
C1048 C 0.40393 0.8284 0.1776 0.0
C1049 C 0.40923 0.86539 0.11674 0.0
H1050 H 0.42579 0.91729 0.16649 0.0
C1051 C 0.44317 0.96295 0.08302 0.0
C1052 C 0.46376 0.97508 0.09613 0.0
C1053 C 0.43063 0.94104 0.0925 0.0
C1054 C 0.42137 0.90298 0.15232 0.0
H1055 H 0.35638 0.78603 0.13672 0.0
H1056 H 0.37051 0.82651 0.12169 0.0
H1057 H 0.40782 0.8779 0.1826 0.0
H1058 H 0.48695 0.97412 0.12987 0.0
H1059 H 0.46509 0.93624 0.14651 0.0
H1060 H 0.4228 0.8906 0.08648 0.0
C1061 C 0.37782 0.82088 0.13977 0.0
C1062 C 0.41112 0.8803 0.16157 0.0
C1063 C 0.3694 0.79767 0.14865 0.0
C1064 C 0.47111 0.96523 0.11931 0.0
C1065 C 0.4585 0.94352 0.12893 0.0
C1066 C 0.41933 0.88812 0.10748 0.0
C1067 C 0.39538 0.83655 0.15397 0.0
C1068 C 0.40517 0.86107 0.14397 0.0
C1069 C 0.43826 0.93096 0.11551 0.0
C1070 C 0.42583 0.90716 0.12517 0.0
H1071 H 0.40246 0.79971 0.20482 0.0
H1072 H 0.41764 0.83974 0.189 0.0
H1073 H 0.40528 0.85106 0.10254 0.0
H1074 H 0.43701 0.97016 0.06523 0.0
H1075 H 0.41496 0.93197 0.08182 0.0
C1076 C 0.11535 0.23608 0.69452 0.0
C1077 C 0.11698 0.25872 0.68327 0.0
C1078 C 0.10521 0.21561 0.68058 0.0
C1079 C 0.0662 0.19416 0.62329 0.0
H1080 H 0.09653 0.13837 0.63005 0.0
C1081 C 0.03935 0.11008 0.55795 0.0
C1082 C 0.03703 0.08787 0.57045 0.0
C1083 C 0.04914 0.13104 0.57131 0.0
C1084 C 0.08766 0.1537 0.62812 0.0
H1085 H 0.10885 0.2775 0.64849 0.0
H1086 H 0.09132 0.24174 0.62399 0.0
H1087 H 0.11311 0.1746 0.65383 0.0
H1088 H 0.04347 0.07046 0.60686 0.0
H1089 H 0.06052 0.10696 0.63009 0.0
H1090 H 0.04085 0.17317 0.59738 0.0
C1091 C 0.09763 0.23982 0.6438 0.0
C1092 C 0.09716 0.17453 0.64183 0.0
C1093 C 0.1077 0.26037 0.65785 0.0
C1094 C 0.045 0.08719 0.59656 0.0
C1095 C 0.0549 0.10815 0.60987 0.0
C1096 C 0.05675 0.17331 0.60949 0.0
C1097 C 0.09647 0.21712 0.65489 0.0
C1098 C 0.08649 0.19505 0.63976 0.0
C1099 C 0.05701 0.13039 0.59747 0.0
C1100 C 0.06728 0.15275 0.61182 0.0
H1101 H 0.12185 0.23415 0.71426 0.0
H1102 H 0.10412 0.19856 0.6901 0.0
H1103 H 0.05727 0.20943 0.62143 0.0
H1104 H 0.03345 0.11134 0.53785 0.0
H1105 H 0.05076 0.14778 0.56101 0.0
C1106 C 0.68578 0.28161 0.54002 0.0
C1107 C 0.68015 0.26936 0.51613 0.0
C1108 C 0.66788 0.2915 0.55387 0.0
C1109 C 0.60116 0.2953 0.55512 0.0
H1110 H 0.62522 0.36252 0.56534 0.0
C1111 C 0.5488 0.36749 0.5262 0.0
C1112 C 0.55181 0.38919 0.53998 0.0
C1113 C 0.56087 0.34938 0.53418 0.0
C1114 C 0.61814 0.34371 0.56337 0.0
H1115 H 0.65094 0.25676 0.4889 0.0
H1116 H 0.62001 0.2739 0.5128 0.0
H1117 H 0.65419 0.3355 0.56022 0.0
H1118 H 0.56828 0.40815 0.57425 0.0
H1119 H 0.58994 0.37661 0.58777 0.0
H1120 H 0.56509 0.30399 0.55625 0.0
C1121 C 0.63805 0.27563 0.5212 0.0
C1122 C 0.6348 0.32815 0.56046 0.0
C1123 C 0.65589 0.26581 0.50738 0.0
C1124 C 0.56605 0.39184 0.56284 0.0
C1125 C 0.57829 0.37375 0.57072 0.0
C1126 C 0.58449 0.3109 0.55791 0.0
C1127 C 0.64403 0.28928 0.54409 0.0
C1128 C 0.62653 0.30399 0.55486 0.0
C1129 C 0.57633 0.3526 0.55602 0.0
C1130 C 0.59291 0.33542 0.56067 0.0
H1131 H 0.70421 0.28425 0.54754 0.0
H1132 H 0.67296 0.30168 0.57163 0.0
H1133 H 0.59423 0.27668 0.55142 0.0
H1134 H 0.53822 0.3649 0.50836 0.0
H1135 H 0.55931 0.33346 0.52215 0.0
loop_
_geom_bond_atom_site_label_1
_geom_bond_atom_site_label_2
_geom_bond_distance
_geom_bond_site_symmetry_2
_ccdc_geom_bond_type
P0 O11 1.490 . S
P0 C14 1.812 . S
P0 C20 1.803 . S
P0 C26 1.819 . S
H1 C15 0.941 . S
H2 C16 0.939 . S
H3 C18 0.940 . S
H4 C19 0.940 . S
H5 C21 0.939 . S
H6 C22 0.942 . S
H7 C24 0.940 . S
H8 C25 0.939 . S
H9 C27 0.941 . S
H10 C31 0.939 . S
O11 P0 1.490 . S
H12 C28 0.939 . S
H13 C30 0.940 . S
C14 P0 1.812 . S
C14 C15 1.389 . S
C14 C19 1.391 . S
C15 H1 0.941 . S
C15 C14 1.389 . S
C15 C16 1.397 . S
C16 H2 0.939 . S
C16 C15 1.397 . S
C16 C17 1.378 . S
C17 C16 1.378 . S
C17 C18 1.378 . S
C18 H3 0.940 . S
C18 C17 1.378 . S
C18 C19 1.396 . S
C19 H4 0.940 . S
C19 C14 1.391 . S
C19 C18 1.396 . S
C20 P0 1.803 . S
C20 C21 1.378 . S
C20 C25 1.400 . S
C21 H5 0.939 . S
C21 C20 1.378 . S
C21 C22 1.361 . S
C22 H6 0.942 . S
C22 C21 1.361 . S
C22 C23 1.369 . S
C23 C22 1.369 . S
C23 C24 1.404 . S
C24 H7 0.940 . S
C24 C23 1.404 . S
C24 C25 1.389 . S
C25 H8 0.939 . S
C25 C20 1.400 . S
C25 C24 1.389 . S
C26 P0 1.819 . S
C26 C27 1.391 . S
C26 C31 1.391 . S
C27 H9 0.941 . S
C27 C26 1.391 . S
C27 C28 1.396 . S
C28 H12 0.939 . S
C28 C27 1.396 . S
C28 C29 1.397 . S
C29 C28 1.397 . S
C29 C30 1.385 . S
C30 H13 0.940 . S
C30 C29 1.385 . S
C30 C31 1.388 . S
C31 H10 0.939 . S
C31 C26 1.391 . S
C31 C30 1.388 . S
P32 O43 1.490 . S
P32 C46 1.812 . S
P32 C52 1.803 . S
P32 C58 1.819 . S
H33 C47 0.941 . S
H34 C48 0.939 . S
H35 C50 0.940 . S
H36 C51 0.940 . S
H37 C53 0.939 . S
H38 C54 0.942 . S
H39 C56 0.940 . S
H40 C57 0.939 . S
H41 C59 0.941 . S
H42 C63 0.939 . S
O43 P32 1.490 . S
H44 C60 0.939 . S
H45 C62 0.940 . S
C46 P32 1.812 . S
C46 C47 1.389 . S
C46 C51 1.391 . S
C47 H33 0.941 . S
C47 C46 1.389 . S
C47 C48 1.397 . S
C48 H34 0.939 . S
C48 C47 1.397 . S
C48 C49 1.378 . S
C49 C48 1.378 . S
C49 C50 1.378 . S
C50 H35 0.940 . S
C50 C49 1.378 . S
C50 C51 1.396 . S
C51 H36 0.940 . S
C51 C46 1.391 . S
C51 C50 1.396 . S
C52 P32 1.803 . S
C52 C53 1.378 . S
C52 C57 1.400 . S
C53 H37 0.939 . S
C53 C52 1.378 . S
C53 C54 1.361 . S
C54 H38 0.942 . S
C54 C53 1.361 . S
C54 C55 1.369 . S
C55 C54 1.369 . S
C55 C56 1.404 . S
C56 H39 0.940 . S
C56 C55 1.404 . S
C56 C57 1.389 . S
C57 H40 0.939 . S
C57 C52 1.400 . S
C57 C56 1.389 . S
C58 P32 1.819 . S
C58 C59 1.391 . S
C58 C63 1.391 . S
C59 H41 0.941 . S
C59 C58 1.391 . S
C59 C60 1.396 . S
C60 H44 0.939 . S
C60 C59 1.396 . S
C60 C61 1.397 . S
C61 C60 1.397 . S
C61 C62 1.385 . S
C62 H45 0.940 . S
C62 C61 1.385 . S
C62 C63 1.388 . S
C63 H42 0.939 . S
C63 C58 1.391 . S
C63 C62 1.388 . S
P64 O75 1.490 . S
P64 C78 1.812 . S
P64 C84 1.803 . S
P64 C90 1.819 . S
H65 C79 0.941 . S
H66 C80 0.939 . S
H67 C82 0.940 . S
H68 C83 0.940 . S
H69 C85 0.939 . S
H70 C86 0.942 . S
H71 C88 0.940 . S
H72 C89 0.939 . S
H73 C91 0.941 . S
H74 C95 0.939 . S
O75 P64 1.490 . S
H76 C92 0.939 . S
H77 C94 0.940 . S
C78 P64 1.812 . S
C78 C79 1.389 . S
C78 C83 1.391 . S
C79 H65 0.941 . S
C79 C78 1.389 . S
C79 C80 1.397 . S
C80 H66 0.939 . S
C80 C79 1.397 . S
C80 C81 1.378 . S
C81 C80 1.378 . S
C81 C82 1.378 . S
C82 H67 0.940 . S
C82 C81 1.378 . S
C82 C83 1.396 . S
C83 H68 0.940 . S
C83 C78 1.391 . S
C83 C82 1.396 . S
C84 P64 1.803 . S
C84 C85 1.378 . S
C84 C89 1.400 . S
C85 H69 0.939 . S
C85 C84 1.378 . S
C85 C86 1.361 . S
C86 H70 0.942 . S
C86 C85 1.361 . S
C86 C87 1.369 . S
C87 C86 1.369 . S
C87 C88 1.404 . S
C88 H71 0.940 . S
C88 C87 1.404 . S
C88 C89 1.389 . S
C89 H72 0.939 . S
C89 C84 1.400 . S
C89 C88 1.389 . S
C90 P64 1.819 . S
C90 C91 1.391 . S
C90 C95 1.391 . S
C91 H73 0.941 . S
C91 C90 1.391 . S
C91 C92 1.396 . S
C92 H76 0.939 . S
C92 C91 1.396 . S
C92 C93 1.397 . S
C93 C92 1.397 . S
C93 C94 1.385 . S
C94 H77 0.940 . S
C94 C93 1.385 . S
C94 C95 1.388 . S
C95 H74 0.939 . S
C95 C90 1.391 . S
C95 C94 1.388 . S
P96 O107 1.490 . S
P96 C110 1.812 . S
P96 C116 1.803 . S
P96 C122 1.819 . S
H97 C111 0.941 . S
H98 C112 0.939 . S
H99 C114 0.940 . S
H100 C115 0.940 . S
H101 C117 0.939 . S
H102 C118 0.942 . S
H103 C120 0.940 . S
H104 C121 0.939 . S
H105 C123 0.941 . S
H106 C127 0.939 . S
O107 P96 1.490 . S
H108 C124 0.939 . S
H109 C126 0.940 . S
C110 P96 1.812 . S
C110 C111 1.389 . S
C110 C115 1.391 . S
C111 H97 0.941 . S
C111 C110 1.389 . S
C111 C112 1.397 . S
C112 H98 0.939 . S
C112 C111 1.397 . S
C112 C113 1.378 . S
C113 C112 1.378 . S
C113 C114 1.378 . S
C114 H99 0.940 . S
C114 C113 1.378 . S
C114 C115 1.396 . S
C115 H100 0.940 . S
C115 C110 1.391 . S
C115 C114 1.396 . S
C116 P96 1.803 . S
C116 C117 1.378 . S
C116 C121 1.400 . S
C117 H101 0.939 . S
C117 C116 1.378 . S
C117 C118 1.361 . S
C118 H102 0.942 . S
C118 C117 1.361 . S
C118 C119 1.369 . S
C119 C118 1.369 . S
C119 C120 1.404 . S
C120 H103 0.940 . S
C120 C119 1.404 . S
C120 C121 1.389 . S
C121 H104 0.939 . S
C121 C116 1.400 . S
C121 C120 1.389 . S
C122 P96 1.819 . S
C122 C123 1.391 . S
C122 C127 1.391 . S
C123 H105 0.941 . S
C123 C122 1.391 . S
C123 C124 1.396 . S
C124 H108 0.939 . S
C124 C123 1.396 . S
C124 C125 1.397 . S
C125 C124 1.397 . S
C125 C126 1.385 . S
C126 H109 0.940 . S
C126 C125 1.385 . S
C126 C127 1.388 . S
C127 H106 0.939 . S
C127 C122 1.391 . S
C127 C126 1.388 . S
P128 O139 1.490 . S
P128 C142 1.812 . S
P128 C148 1.803 . S
P128 C154 1.819 . S
H129 C143 0.941 . S
H130 C144 0.939 . S
H131 C146 0.940 . S
H132 C147 0.940 . S
H133 C149 0.939 . S
H134 C150 0.942 . S
H135 C152 0.940 . S
H136 C153 0.939 . S
H137 C155 0.941 . S
H138 C159 0.939 . S
O139 P128 1.490 . S
H140 C156 0.939 . S
H141 C158 0.940 . S
C142 P128 1.812 . S
C142 C143 1.389 . S
C142 C147 1.391 . S
C143 H129 0.941 . S
C143 C142 1.389 . S
C143 C144 1.397 . S
C144 H130 0.939 . S
C144 C143 1.397 . S
C144 C145 1.378 . S
C145 C144 1.378 . S
C145 C146 1.378 . S
C146 H131 0.940 . S
C146 C145 1.378 . S
C146 C147 1.396 . S
C147 H132 0.940 . S
C147 C142 1.391 . S
C147 C146 1.396 . S
C148 P128 1.803 . S
C148 C149 1.378 . S
C148 C153 1.400 . S
C149 H133 0.939 . S
C149 C148 1.378 . S
C149 C150 1.361 . S
C150 H134 0.942 . S
C150 C149 1.361 . S
C150 C151 1.369 . S
C151 C150 1.369 . S
C151 C152 1.404 . S
C152 H135 0.940 . S
C152 C151 1.404 . S
C152 C153 1.389 . S
C153 H136 0.939 . S
C153 C148 1.400 . S
C153 C152 1.389 . S
C154 P128 1.819 . S
C154 C155 1.391 . S
C154 C159 1.391 . S
C155 H137 0.941 . S
C155 C154 1.391 . S
C155 C156 1.396 . S
C156 H140 0.939 . S
C156 C155 1.396 . S
C156 C157 1.397 . S
C157 C156 1.397 . S
C157 C158 1.385 . S
C158 H141 0.940 . S
C158 C157 1.385 . S
C158 C159 1.388 . S
C159 H138 0.939 . S
C159 C154 1.391 . S
C159 C158 1.388 . S
P160 O171 1.490 . S
P160 C174 1.812 . S
P160 C180 1.803 . S
P160 C186 1.819 . S
H161 C175 0.941 . S
H162 C176 0.939 . S
H163 C178 0.940 . S
H164 C179 0.940 . S
H165 C181 0.939 . S
H166 C182 0.942 . S
H167 C184 0.940 . S
H168 C185 0.939 . S
H169 C187 0.941 . S
H170 C191 0.939 . S
O171 P160 1.490 . S
H172 C188 0.939 . S
H173 C190 0.940 . S
C174 P160 1.812 . S
C174 C175 1.389 . S
C174 C179 1.391 . S
C175 H161 0.941 . S
C175 C174 1.389 . S
C175 C176 1.397 . S
C176 H162 0.939 . S
C176 C175 1.397 . S
C176 C177 1.378 . S
C177 C176 1.378 . S
C177 C178 1.378 . S
C178 H163 0.940 . S
C178 C177 1.378 . S
C178 C179 1.396 . S
C179 H164 0.940 . S
C179 C174 1.391 . S
C179 C178 1.396 . S
C180 P160 1.803 . S
C180 C181 1.378 . S
C180 C185 1.400 . S
C181 H165 0.939 . S
C181 C180 1.378 . S
C181 C182 1.361 . S
C182 H166 0.942 . S
C182 C181 1.361 . S
C182 C183 1.369 . S
C183 C182 1.369 . S
C183 C184 1.404 . S
C184 H167 0.940 . S
C184 C183 1.404 . S
C184 C185 1.389 . S
C185 H168 0.939 . S
C185 C180 1.400 . S
C185 C184 1.389 . S
C186 P160 1.819 . S
C186 C187 1.391 . S
C186 C191 1.391 . S
C187 H169 0.941 . S
C187 C186 1.391 . S
C187 C188 1.396 . S
C188 H172 0.939 . S
C188 C187 1.396 . S
C188 C189 1.397 . S
C189 C188 1.397 . S
C189 C190 1.385 . S
C190 H173 0.940 . S
C190 C189 1.385 . S
C190 C191 1.388 . S
C191 H170 0.939 . S
C191 C186 1.391 . S
C191 C190 1.388 . S
P192 O203 1.490 . S
P192 C206 1.812 . S
P192 C212 1.803 . S
P192 C218 1.819 . S
H193 C207 0.941 . S
H194 C208 0.939 . S
H195 C210 0.940 . S
H196 C211 0.940 . S
H197 C213 0.939 . S
H198 C214 0.942 . S
H199 C216 0.940 . S
H200 C217 0.939 . S
H201 C219 0.941 . S
H202 C223 0.939 . S
O203 P192 1.490 . S
H204 C220 0.939 . S
H205 C222 0.940 . S
C206 P192 1.812 . S
C206 C207 1.389 . S
C206 C211 1.391 . S
C207 H193 0.941 . S
C207 C206 1.389 . S
C207 C208 1.397 . S
C208 H194 0.939 . S
C208 C207 1.397 . S
C208 C209 1.378 . S
C209 C208 1.378 . S
C209 C210 1.378 . S
C210 H195 0.940 . S
C210 C209 1.378 . S
C210 C211 1.396 . S
C211 H196 0.940 . S
C211 C206 1.391 . S
C211 C210 1.396 . S
C212 P192 1.803 . S
C212 C213 1.378 . S
C212 C217 1.400 . S
C213 H197 0.939 . S
C213 C212 1.378 . S
C213 C214 1.361 . S
C214 H198 0.942 . S
C214 C213 1.361 . S
C214 C215 1.369 . S
C215 C214 1.369 . S
C215 C216 1.404 . S
C216 H199 0.940 . S
C216 C215 1.404 . S
C216 C217 1.389 . S
C217 H200 0.939 . S
C217 C212 1.400 . S
C217 C216 1.389 . S
C218 P192 1.819 . S
C218 C219 1.391 . S
C218 C223 1.391 . S
C219 H201 0.941 . S
C219 C218 1.391 . S
C219 C220 1.396 . S
C220 H204 0.939 . S
C220 C219 1.396 . S
C220 C221 1.397 . S
C221 C220 1.397 . S
C221 C222 1.385 . S
C222 H205 0.940 . S
C222 C221 1.385 . S
C222 C223 1.388 . S
C223 H202 0.939 . S
C223 C218 1.391 . S
C223 C222 1.388 . S
P224 O235 1.490 . S
P224 C238 1.812 . S
P224 C244 1.803 . S
P224 C250 1.819 . S
H225 C239 0.941 . S
H226 C240 0.939 . S
H227 C242 0.940 . S
H228 C243 0.940 . S
H229 C245 0.939 . S
H230 C246 0.942 . S
H231 C248 0.940 . S
H232 C249 0.939 . S
H233 C251 0.941 . S
H234 C255 0.939 . S
O235 P224 1.490 . S
H236 C252 0.939 . S
H237 C254 0.940 . S
C238 P224 1.812 . S
C238 C239 1.389 . S
C238 C243 1.391 . S
C239 H225 0.941 . S
C239 C238 1.389 . S
C239 C240 1.397 . S
C240 H226 0.939 . S
C240 C239 1.397 . S
C240 C241 1.378 . S
C241 C240 1.378 . S
C241 C242 1.378 . S
C242 H227 0.940 . S
C242 C241 1.378 . S
C242 C243 1.396 . S
C243 H228 0.940 . S
C243 C238 1.391 . S
C243 C242 1.396 . S
C244 P224 1.803 . S
C244 C245 1.378 . S
C244 C249 1.400 . S
C245 H229 0.939 . S
C245 C244 1.378 . S
C245 C246 1.361 . S
C246 H230 0.942 . S
C246 C245 1.361 . S
C246 C247 1.369 . S
C247 C246 1.369 . S
C247 C248 1.404 . S
C248 H231 0.940 . S
C248 C247 1.404 . S
C248 C249 1.389 . S
C249 H232 0.939 . S
C249 C244 1.400 . S
C249 C248 1.389 . S
C250 P224 1.819 . S
C250 C251 1.391 . S
C250 C255 1.391 . S
C251 H233 0.941 . S
C251 C250 1.391 . S
C251 C252 1.396 . S
C252 H236 0.939 . S
C252 C251 1.396 . S
C252 C253 1.397 . S
C253 C252 1.397 . S
C253 C254 1.385 . S
C254 H237 0.940 . S
C254 C253 1.385 . S
C254 C255 1.388 . S
C255 H234 0.939 . S
C255 C250 1.391 . S
C255 C254 1.388 . S
Sm256 C258 2.846 . S
Sm256 O276 2.543 . S
Sm256 O277 2.450 . S
Sm256 O278 2.681 1_545 S
Sm256 O279 2.464 1_545 S
Sm256 O280 2.396 . S
Sm256 O284 2.386 1_455 S
Sm256 O287 2.408 1_445 S
Sm257 C267 2.827 1_545 S
Sm257 O278 2.376 1_645 S
Sm257 O281 2.429 1_655 S
Sm257 O282 2.519 1_545 S
Sm257 O283 2.440 1_545 S
Sm257 O284 2.693 . S
Sm257 O285 2.478 . S
Sm257 O286 2.380 1_545 S
C258 Sm256 2.846 . S
C258 C259 1.506 . S
C258 O276 1.261 . S
C258 O277 1.242 . S
C259 C258 1.506 . S
C259 C260 1.358 . S
C259 C264 1.382 . S
C260 C259 1.358 . S
C260 C261 1.385 . S
C260 H288 0.930 . S
C261 C260 1.385 . S
C261 C262 1.395 . S
C261 H289 0.929 . S
C262 C261 1.395 . S
C262 C263 1.335 . S
C263 C262 1.335 . S
C263 C264 1.398 . S
C263 H290 0.930 . S
C264 C259 1.382 . S
C264 C263 1.398 . S
C264 H291 0.929 . S
C265 O278 1.271 . S
C265 O279 1.251 . S
C266 O280 1.252 . S
C266 O281 1.272 . S
C267 Sm257 2.827 1_565 S
C267 C268 1.506 . S
C267 O282 1.261 . S
C267 O283 1.242 . S
C268 C267 1.506 . S
C268 C269 1.358 . S
C268 C273 1.382 . S
C269 C268 1.358 . S
C269 C270 1.385 . S
C269 H292 0.930 . S
C270 C269 1.385 . S
C270 C271 1.395 . S
C270 H293 0.929 . S
C271 C270 1.395 . S
C271 C272 1.335 . S
C272 C271 1.335 . S
C272 C273 1.398 . S
C272 H294 0.930 . S
C273 C268 1.382 . S
C273 C272 1.398 . S
C273 H295 0.929 . S
C274 O284 1.271 . S
C274 O285 1.251 . S
C275 O286 1.252 . S
C275 O287 1.272 . S
O276 Sm256 2.543 . S
O276 C258 1.261 . S
O277 Sm256 2.450 . S
O277 C258 1.242 . S
O278 Sm256 2.681 1_565 S
O278 Sm257 2.376 1_465 S
O278 C265 1.271 . S
O279 Sm256 2.464 1_565 S
O279 C265 1.251 . S
O280 Sm256 2.396 . S
O280 C266 1.252 . S
O281 Sm257 2.429 1_455 S
O281 C266 1.272 . S
O282 Sm257 2.519 1_565 S
O282 C267 1.261 . S
O283 Sm257 2.440 1_565 S
O283 C267 1.242 . S
O284 Sm256 2.386 1_655 S
O284 Sm257 2.693 . S
O284 C274 1.271 . S
O285 Sm257 2.478 . S
O285 C274 1.251 . S
O286 Sm257 2.380 1_565 S
O286 C275 1.252 . S
O287 Sm256 2.408 1_665 S
O287 C275 1.272 . S
H288 C260 0.930 . S
H289 C261 0.929 . S
H290 C263 0.930 . S
H291 C264 0.929 . S
H292 C269 0.930 . S
H293 C270 0.929 . S
H294 C272 0.930 . S
H295 C273 0.929 . S
Sm296 C298 2.846 . S
Sm296 O316 2.543 . S
Sm296 O317 2.450 . S
Sm296 O318 2.681 1_545 S
Sm296 O319 2.464 1_545 S
Sm296 O320 2.396 . S
Sm296 O324 2.386 . S
Sm296 O327 2.408 1_544 S
Sm297 C307 2.846 1_545 S
Sm297 O318 2.386 1_546 S
Sm297 O321 2.408 1_556 S
Sm297 O322 2.543 1_545 S
Sm297 O323 2.450 . S
Sm297 O324 2.681 1_556 S
Sm297 O325 2.464 . S
Sm297 O326 2.396 1_545 S
C298 Sm296 2.846 . S
C298 C299 1.506 . S
C298 O316 1.261 . S
C298 O317 1.242 . S
C299 C298 1.506 . S
C299 C300 1.358 . S
C299 C304 1.382 . S
C300 C299 1.358 . S
C300 C301 1.385 . S
C300 H328 0.930 . S
C301 C300 1.385 . S
C301 C302 1.395 . S
C301 H329 0.929 . S
C302 C301 1.395 . S
C302 C303 1.335 . S
C303 C302 1.335 . S
C303 C304 1.398 . S
C303 H330 0.930 . S
C304 C299 1.382 . S
C304 C303 1.398 . S
C304 H331 0.929 . S
C305 O318 1.271 . S
C305 O319 1.251 . S
C306 O320 1.252 . S
C306 O321 1.272 . S
C307 Sm297 2.846 1_565 S
C307 C308 1.506 . S
C307 O322 1.261 . S
C307 O323 1.242 1_565 S
C308 C307 1.506 . S
C308 C309 1.358 . S
C308 C313 1.382 . S
C309 C308 1.358 . S
C309 C310 1.385 . S
C309 H332 0.930 . S
C310 C309 1.385 . S
C310 C311 1.395 . S
C310 H333 0.929 . S
C311 C310 1.395 . S
C311 C312 1.335 . S
C312 C311 1.335 . S
C312 C313 1.398 . S
C312 H334 0.930 . S
C313 C308 1.382 . S
C313 C312 1.398 . S
C313 H335 0.929 . S
C314 O324 1.271 1_556 S
C314 O325 1.251 . S
C315 O326 1.252 . S
C315 O327 1.272 . S
O316 Sm296 2.543 . S
O316 C298 1.261 . S
O317 Sm296 2.450 . S
O317 C298 1.242 . S
O318 Sm296 2.681 1_565 S
O318 Sm297 2.386 1_564 S
O318 C305 1.271 . S
O319 Sm296 2.464 1_565 S
O319 C305 1.251 . S
O320 Sm296 2.396 . S
O320 C306 1.252 . S
O321 Sm297 2.408 1_554 S
O321 C306 1.272 . S
O322 Sm297 2.543 1_565 S
O322 C307 1.261 . S
O323 Sm297 2.450 . S
O323 C307 1.242 1_545 S
O324 Sm296 2.386 . S
O324 Sm297 2.681 1_554 S
O324 C314 1.271 1_554 S
O325 Sm297 2.464 . S
O325 C314 1.251 . S
O326 Sm297 2.396 1_565 S
O326 C315 1.252 . S
O327 Sm296 2.408 1_566 S
O327 C315 1.272 . S
H328 C300 0.930 . S
H329 C301 0.929 . S
H330 C303 0.930 . S
H331 C304 0.929 . S
H332 C309 0.930 . S
H333 C310 0.929 . S
H334 C312 0.930 . S
H335 C313 0.929 . S
Sm336 C338 2.846 . S
Sm336 O356 2.543 . S
Sm336 O357 2.450 . S
Sm336 O358 2.681 . S
Sm336 O359 2.464 . S
Sm336 O360 2.396 . S
Sm336 O364 2.386 . S
Sm336 O367 2.408 . S
Sm337 C347 2.846 . S
Sm337 O358 2.386 . S
Sm337 O361 2.408 . S
Sm337 O362 2.543 . S
Sm337 O363 2.450 . S
Sm337 O364 2.681 . S
Sm337 O365 2.464 . S
Sm337 O366 2.396 . S
C338 Sm336 2.846 . S
C338 C339 1.506 . S
C338 O356 1.261 . S
C338 O357 1.242 . S
C339 C338 1.506 . S
C339 C340 1.358 . S
C339 C344 1.382 . S
C340 C339 1.358 . S
C340 C341 1.385 . S
C340 H368 0.930 . S
C341 C340 1.385 . S
C341 C342 1.395 . S
C341 H369 0.929 . S
C342 C341 1.395 . S
C342 C343 1.335 . S
C343 C342 1.335 . S
C343 C344 1.398 . S
C343 H370 0.930 . S
C344 C339 1.382 . S
C344 C343 1.398 . S
C344 H371 0.929 . S
C345 O358 1.271 . S
C345 O359 1.251 . S
C346 O360 1.252 . S
C346 O361 1.272 . S
C347 Sm337 2.846 . S
C347 C348 1.506 . S
C347 O362 1.261 . S
C347 O363 1.242 . S
C348 C347 1.506 . S
C348 C349 1.358 . S
C348 C353 1.382 . S
C349 C348 1.358 . S
C349 C350 1.385 . S
C349 H372 0.930 . S
C350 C349 1.385 . S
C350 C351 1.395 . S
C350 H373 0.929 . S
C351 C350 1.395 . S
C351 C352 1.335 . S
C352 C351 1.335 . S
C352 C353 1.398 . S
C352 H374 0.930 . S
C353 C348 1.382 . S
C353 C352 1.398 . S
C353 H375 0.929 . S
C354 O364 1.271 . S
C354 O365 1.251 . S
C355 O366 1.252 . S
C355 O367 1.272 . S
O356 Sm336 2.543 . S
O356 C338 1.261 . S
O357 Sm336 2.450 . S
O357 C338 1.242 . S
O358 Sm336 2.681 . S
O358 Sm337 2.386 . S
O358 C345 1.271 . S
O359 Sm336 2.464 . S
O359 C345 1.251 . S
O360 Sm336 2.396 . S
O360 C346 1.252 . S
O361 Sm337 2.408 . S
O361 C346 1.272 . S
O362 Sm337 2.543 . S
O362 C347 1.261 . S
O363 Sm337 2.450 . S
O363 C347 1.242 . S
O364 Sm336 2.386 . S
O364 Sm337 2.681 . S
O364 C354 1.271 . S
O365 Sm337 2.464 . S
O365 C354 1.251 . S
O366 Sm337 2.396 . S
O366 C355 1.252 . S
O367 Sm336 2.408 . S
O367 C355 1.272 . S
H368 C340 0.930 . S
H369 C341 0.929 . S
H370 C343 0.930 . S
H371 C344 0.929 . S
H372 C349 0.930 . S
H373 C350 0.929 . S
H374 C352 0.930 . S
H375 C353 0.929 . S
Sm376 C378 2.846 . S
Sm376 O396 2.543 . S
Sm376 O397 2.450 . S
Sm376 O398 2.681 1_455 S
Sm376 O399 2.464 1_455 S
Sm376 O400 2.396 . S
Sm376 O404 2.386 1_554 S
Sm376 O407 2.433 1_455 S
Sm377 C387 2.846 . S
Sm377 O398 2.386 1_556 S
Sm377 O401 2.408 1_656 S
Sm377 O402 2.543 . S
Sm377 O403 2.450 . S
Sm377 O404 2.681 1_655 S
Sm377 O405 2.464 1_655 S
Sm377 O406 2.396 . S
C378 Sm376 2.846 . S
C378 C379 1.506 . S
C378 O396 1.261 . S
C378 O397 1.242 . S
C379 C378 1.506 . S
C379 C380 1.358 . S
C379 C384 1.382 . S
C380 C379 1.358 . S
C380 C381 1.385 . S
C380 H408 0.930 . S
C381 C380 1.385 . S
C381 C382 1.395 . S
C381 H409 0.929 . S
C382 C381 1.395 . S
C382 C383 1.335 . S
C383 C382 1.335 . S
C383 C384 1.398 . S
C383 H410 0.930 . S
C384 C379 1.382 . S
C384 C383 1.398 . S
C384 H411 0.929 . S
C385 O398 1.271 . S
C385 O399 1.251 . S
C386 O400 1.252 . S
C386 O401 1.272 . S
C387 Sm377 2.846 . S
C387 C388 1.506 . S
C387 O402 1.261 . S
C387 O403 1.242 . S
C388 C387 1.506 . S
C388 C389 1.358 . S
C388 C393 1.382 . S
C389 C388 1.358 . S
C389 C390 1.385 . S
C389 H412 0.930 . S
C390 C389 1.385 . S
C390 C391 1.395 . S
C390 H413 0.929 . S
C391 C390 1.395 . S
C391 C392 1.335 . S
C392 C391 1.335 . S
C392 C393 1.398 . S
C392 H414 0.930 . S
C393 C388 1.382 . S
C393 C392 1.398 . S
C393 H415 0.929 . S
C394 O404 1.271 . S
C394 O405 1.251 . S
C395 O406 1.252 . S
C395 O407 1.241 1_556 S
O396 Sm376 2.543 . S
O396 C378 1.261 . S
O397 Sm376 2.450 . S
O397 C378 1.242 . S
O398 Sm376 2.681 1_655 S
O398 Sm377 2.386 1_554 S
O398 C385 1.271 . S
O399 Sm376 2.464 1_655 S
O399 C385 1.251 . S
O400 Sm376 2.396 . S
O400 C386 1.252 . S
O401 Sm377 2.408 1_454 S
O401 C386 1.272 . S
O402 Sm377 2.543 . S
O402 C387 1.261 . S
O403 Sm377 2.450 . S
O403 C387 1.242 . S
O404 Sm376 2.386 1_556 S
O404 Sm377 2.681 1_455 S
O404 C394 1.271 . S
O405 Sm377 2.464 1_455 S
O405 C394 1.251 . S
O406 Sm377 2.396 . S
O406 C395 1.252 . S
O407 Sm376 2.433 1_655 S
O407 C395 1.241 1_554 S
H408 C380 0.930 . S
H409 C381 0.929 . S
H410 C383 0.930 . S
H411 C384 0.929 . S
H412 C389 0.930 . S
H413 C390 0.929 . S
H414 C392 0.930 . S
H415 C393 0.929 . S
C416 C417 1.349 . S
C416 C418 1.327 . S
C416 H441 0.950 . S
C417 C416 1.349 . S
C417 C433 1.349 . S
C418 C416 1.327 . S
C418 C437 1.429 . S
C418 H442 0.950 . S
C419 C436 1.574 . S
C419 C438 1.368 . S
C419 H443 0.949 . S
H420 C424 0.949 . S
C421 C422 1.349 . S
C421 C423 1.327 . S
C421 H444 0.950 . S
C422 C421 1.349 . S
C422 C434 1.349 . S
C423 C421 1.327 . S
C423 C439 1.429 . S
C423 H445 0.950 . S
C424 H420 0.949 . S
C424 C432 1.574 . S
C424 C440 1.368 . S
H425 C433 0.950 . S
H426 C431 0.950 . S
H427 C432 0.949 . S
H428 C434 0.950 . S
H429 C435 0.950 . S
H430 C436 0.949 . S
C431 H426 0.950 . S
C431 C433 1.327 . S
C431 C437 1.429 . S
C432 C424 1.574 . S
C432 H427 0.949 . S
C432 C438 1.368 . S
C433 C417 1.349 . S
C433 H425 0.950 . S
C433 C431 1.327 . S
C434 C422 1.349 . S
C434 H428 0.950 . S
C434 C435 1.327 . S
C435 H429 0.950 . S
C435 C434 1.327 . S
C435 C439 1.429 . S
C436 C419 1.574 . S
C436 H430 0.949 . S
C436 C440 1.368 . S
C437 C418 1.429 . S
C437 C431 1.429 . S
C437 C438 1.523 . S
C438 C419 1.368 . S
C438 C432 1.368 . S
C438 C437 1.523 . S
C439 C423 1.429 . S
C439 C435 1.429 . S
C439 C440 1.523 . S
C440 C424 1.368 . S
C440 C436 1.368 . S
C440 C439 1.523 . S
H441 C416 0.950 . S
H442 C418 0.950 . S
H443 C419 0.949 . S
H444 C421 0.950 . S
H445 C423 0.950 . S
C446 C447 1.349 . S
C446 C448 1.327 . S
C446 H471 0.950 . S
C447 C446 1.349 . S
C447 C463 1.349 . S
C448 C446 1.327 . S
C448 C467 1.429 . S
C448 H472 0.950 . S
C449 C466 1.574 . S
C449 C468 1.368 . S
C449 H473 0.949 . S
H450 C454 0.949 . S
C451 C452 1.349 . S
C451 C453 1.327 . S
C451 H474 0.950 . S
C452 C451 1.349 . S
C452 C464 1.349 . S
C453 C451 1.327 . S
C453 C469 1.429 . S
C453 H475 0.950 . S
C454 H450 0.949 . S
C454 C462 1.574 . S
C454 C470 1.368 . S
H455 C463 0.950 . S
H456 C461 0.950 . S
H457 C462 0.949 . S
H458 C464 0.950 . S
H459 C465 0.950 . S
H460 C466 0.949 . S
C461 H456 0.950 . S
C461 C463 1.327 . S
C461 C467 1.429 . S
C462 C454 1.574 . S
C462 H457 0.949 . S
C462 C468 1.368 . S
C463 C447 1.349 . S
C463 H455 0.950 . S
C463 C461 1.327 . S
C464 C452 1.349 . S
C464 H458 0.950 . S
C464 C465 1.327 . S
C465 H459 0.950 . S
C465 C464 1.327 . S
C465 C469 1.429 . S
C466 C449 1.574 . S
C466 H460 0.949 . S
C466 C470 1.368 . S
C467 C448 1.429 . S
C467 C461 1.429 . S
C467 C468 1.523 . S
C468 C449 1.368 . S
C468 C462 1.368 . S
C468 C467 1.523 . S
C469 C453 1.429 . S
C469 C465 1.429 . S
C469 C470 1.523 . S
C470 C454 1.368 . S
C470 C466 1.368 . S
C470 C469 1.523 . S
H471 C446 0.950 . S
H472 C448 0.950 . S
H473 C449 0.949 . S
H474 C451 0.950 . S
H475 C453 0.950 . S
C476 C477 1.349 . S
C476 C478 1.327 . S
C476 H501 0.950 . S
C477 C476 1.349 . S
C477 C493 1.349 . S
C478 C476 1.327 . S
C478 C497 1.429 . S
C478 H502 0.950 . S
C479 C496 1.574 . S
C479 C498 1.368 . S
C479 H503 0.949 . S
H480 C484 0.949 . S
C481 C482 1.349 . S
C481 C483 1.327 . S
C481 H504 0.950 . S
C482 C481 1.349 . S
C482 C494 1.349 . S
C483 C481 1.327 . S
C483 C499 1.429 . S
C483 H505 0.950 . S
C484 H480 0.949 . S
C484 C492 1.574 . S
C484 C500 1.368 . S
H485 C493 0.950 . S
H486 C491 0.950 . S
H487 C492 0.949 . S
H488 C494 0.950 . S
H489 C495 0.950 . S
H490 C496 0.949 . S
C491 H486 0.950 . S
C491 C493 1.327 . S
C491 C497 1.429 . S
C492 C484 1.574 . S
C492 H487 0.949 . S
C492 C498 1.368 . S
C493 C477 1.349 . S
C493 H485 0.950 . S
C493 C491 1.327 . S
C494 C482 1.349 . S
C494 H488 0.950 . S
C494 C495 1.327 . S
C495 H489 0.950 . S
C495 C494 1.327 . S
C495 C499 1.429 . S
C496 C479 1.574 . S
C496 H490 0.949 . S
C496 C500 1.368 . S
C497 C478 1.429 . S
C497 C491 1.429 . S
C497 C498 1.523 . S
C498 C479 1.368 . S
C498 C492 1.368 . S
C498 C497 1.523 . S
C499 C483 1.429 . S
C499 C495 1.429 . S
C499 C500 1.523 . S
C500 C484 1.368 . S
C500 C496 1.368 . S
C500 C499 1.523 . S
H501 C476 0.950 . S
H502 C478 0.950 . S
H503 C479 0.949 . S
H504 C481 0.950 . S
H505 C483 0.950 . S
C506 C507 1.349 . S
C506 C508 1.327 . S
C506 H531 0.950 . S
C507 C506 1.349 . S
C507 C523 1.349 . S
C508 C506 1.327 . S
C508 C527 1.429 . S
C508 H532 0.950 . S
C509 C526 1.574 . S
C509 C528 1.368 . S
C509 H533 0.949 . S
H510 C514 0.949 . S
C511 C512 1.349 . S
C511 C513 1.327 . S
C511 H534 0.950 . S
C512 C511 1.349 . S
C512 C524 1.349 . S
C513 C511 1.327 . S
C513 C529 1.429 . S
C513 H535 0.950 . S
C514 H510 0.949 . S
C514 C522 1.574 . S
C514 C530 1.368 . S
H515 C523 0.950 . S
H516 C521 0.950 . S
H517 C522 0.949 . S
H518 C524 0.950 . S
H519 C525 0.950 . S
H520 C526 0.949 . S
C521 H516 0.950 . S
C521 C523 1.327 . S
C521 C527 1.429 . S
C522 C514 1.574 . S
C522 H517 0.949 . S
C522 C528 1.368 . S
C523 C507 1.349 . S
C523 H515 0.950 . S
C523 C521 1.327 . S
C524 C512 1.349 . S
C524 H518 0.950 . S
C524 C525 1.327 . S
C525 H519 0.950 . S
C525 C524 1.327 . S
C525 C529 1.429 . S
C526 C509 1.574 . S
C526 H520 0.949 . S
C526 C530 1.368 . S
C527 C508 1.429 . S
C527 C521 1.429 . S
C527 C528 1.523 . S
C528 C509 1.368 . S
C528 C522 1.368 . S
C528 C527 1.523 . S
C529 C513 1.429 . S
C529 C525 1.429 . S
C529 C530 1.523 . S
C530 C514 1.368 . S
C530 C526 1.368 . S
C530 C529 1.523 . S
H531 C506 0.950 . S
H532 C508 0.950 . S
H533 C509 0.949 . S
H534 C511 0.950 . S
H535 C513 0.950 . S
C536 C537 1.349 . S
C536 C538 1.327 . S
C536 H561 0.950 . S
C537 C536 1.349 . S
C537 C553 1.349 . S
C538 C536 1.327 . S
C538 C557 1.429 . S
C538 H562 0.950 . S
C539 C556 1.574 . S
C539 C558 1.368 . S
C539 H563 0.949 . S
H540 C544 0.949 . S
C541 C542 1.349 . S
C541 C543 1.327 . S
C541 H564 0.950 . S
C542 C541 1.349 . S
C542 C554 1.349 . S
C543 C541 1.327 . S
C543 C559 1.429 . S
C543 H565 0.950 . S
C544 H540 0.949 . S
C544 C552 1.574 . S
C544 C560 1.368 . S
H545 C553 0.950 . S
H546 C551 0.950 . S
H547 C552 0.949 . S
H548 C554 0.950 . S
H549 C555 0.950 . S
H550 C556 0.949 . S
C551 H546 0.950 . S
C551 C553 1.327 . S
C551 C557 1.429 . S
C552 C544 1.574 . S
C552 H547 0.949 . S
C552 C558 1.368 . S
C553 C537 1.349 . S
C553 H545 0.950 . S
C553 C551 1.327 . S
C554 C542 1.349 . S
C554 H548 0.950 . S
C554 C555 1.327 . S
C555 H549 0.950 . S
C555 C554 1.327 . S
C555 C559 1.429 . S
C556 C539 1.574 . S
C556 H550 0.949 . S
C556 C560 1.368 . S
C557 C538 1.429 . S
C557 C551 1.429 . S
C557 C558 1.523 . S
C558 C539 1.368 . S
C558 C552 1.368 . S
C558 C557 1.523 . S
C559 C543 1.429 . S
C559 C555 1.429 . S
C559 C560 1.523 . S
C560 C544 1.368 . S
C560 C556 1.368 . S
C560 C559 1.523 . S
H561 C536 0.950 . S
H562 C538 0.950 . S
H563 C539 0.949 . S
H564 C541 0.950 . S
H565 C543 0.950 . S
C566 C567 1.349 . S
C566 C568 1.327 . S
C566 H591 0.950 . S
C567 C566 1.349 . S
C567 C583 1.349 . S
C568 C566 1.327 . S
C568 C587 1.429 . S
C568 H592 0.950 . S
C569 C586 1.574 . S
C569 C588 1.368 . S
C569 H593 0.949 . S
H570 C574 0.949 . S
C571 C572 1.349 . S
C571 C573 1.327 . S
C571 H594 0.950 . S
C572 C571 1.349 . S
C572 C584 1.349 . S
C573 C571 1.327 . S
C573 C589 1.429 . S
C573 H595 0.950 . S
C574 H570 0.949 . S
C574 C582 1.574 . S
C574 C590 1.368 . S
H575 C583 0.950 . S
H576 C581 0.950 . S
H577 C582 0.949 . S
H578 C584 0.950 . S
H579 C585 0.950 . S
H580 C586 0.949 . S
C581 H576 0.950 . S
C581 C583 1.327 . S
C581 C587 1.429 . S
C582 C574 1.574 . S
C582 H577 0.949 . S
C582 C588 1.368 . S
C583 C567 1.349 . S
C583 H575 0.950 . S
C583 C581 1.327 . S
C584 C572 1.349 . S
C584 H578 0.950 . S
C584 C585 1.327 . S
C585 H579 0.950 . S
C585 C584 1.327 . S
C585 C589 1.429 . S
C586 C569 1.574 . S
C586 H580 0.949 . S
C586 C590 1.368 . S
C587 C568 1.429 . S
C587 C581 1.429 . S
C587 C588 1.523 . S
C588 C569 1.368 . S
C588 C582 1.368 . S
C588 C587 1.523 . S
C589 C573 1.429 . S
C589 C585 1.429 . S
C589 C590 1.523 . S
C590 C574 1.368 . S
C590 C586 1.368 . S
C590 C589 1.523 . S
H591 C566 0.950 . S
H592 C568 0.950 . S
H593 C569 0.949 . S
H594 C571 0.950 . S
H595 C573 0.950 . S
C596 C597 1.349 . S
C596 C598 1.327 . S
C596 H621 0.950 . S
C597 C596 1.349 . S
C597 C613 1.349 . S
C598 C596 1.327 . S
C598 C617 1.429 . S
C598 H622 0.950 . S
C599 C616 1.574 . S
C599 C618 1.368 . S
C599 H623 0.949 . S
H600 C604 0.949 . S
C601 C602 1.349 . S
C601 C603 1.327 . S
C601 H624 0.950 . S
C602 C601 1.349 . S
C602 C614 1.349 . S
C603 C601 1.327 . S
C603 C619 1.429 . S
C603 H625 0.950 . S
C604 H600 0.949 . S
C604 C612 1.574 . S
C604 C620 1.368 . S
H605 C613 0.950 . S
H606 C611 0.950 . S
H607 C612 0.949 . S
H608 C614 0.950 . S
H609 C615 0.950 . S
H610 C616 0.949 . S
C611 H606 0.950 . S
C611 C613 1.327 . S
C611 C617 1.429 . S
C612 C604 1.574 . S
C612 H607 0.949 . S
C612 C618 1.368 . S
C613 C597 1.349 . S
C613 H605 0.950 . S
C613 C611 1.327 . S
C614 C602 1.349 . S
C614 H608 0.950 . S
C614 C615 1.327 . S
C615 H609 0.950 . S
C615 C614 1.327 . S
C615 C619 1.429 . S
C616 C599 1.574 . S
C616 H610 0.949 . S
C616 C620 1.368 . S
C617 C598 1.429 . S
C617 C611 1.429 . S
C617 C618 1.523 . S
C618 C599 1.368 . S
C618 C612 1.368 . S
C618 C617 1.523 . S
C619 C603 1.429 . S
C619 C615 1.429 . S
C619 C620 1.523 . S
C620 C604 1.368 . S
C620 C616 1.368 . S
C620 C619 1.523 . S
H621 C596 0.950 . S
H622 C598 0.950 . S
H623 C599 0.949 . S
H624 C601 0.950 . S
H625 C603 0.950 . S
C626 C627 1.349 . S
C626 C628 1.327 . S
C626 H651 0.950 . S
C627 C626 1.349 . S
C627 C643 1.349 . S
C628 C626 1.327 . S
C628 C647 1.429 . S
C628 H652 0.950 . S
C629 C646 1.574 . S
C629 C648 1.368 . S
C629 H653 0.949 . S
H630 C634 0.949 . S
C631 C632 1.349 . S
C631 C633 1.327 . S
C631 H654 0.950 . S
C632 C631 1.349 . S
C632 C644 1.349 . S
C633 C631 1.327 . S
C633 C649 1.429 . S
C633 H655 0.950 . S
C634 H630 0.949 . S
C634 C642 1.574 . S
C634 C650 1.368 . S
H635 C643 0.950 . S
H636 C641 0.950 . S
H637 C642 0.949 . S
H638 C644 0.950 . S
H639 C645 0.950 . S
H640 C646 0.949 . S
C641 H636 0.950 . S
C641 C643 1.327 . S
C641 C647 1.429 . S
C642 C634 1.574 . S
C642 H637 0.949 . S
C642 C648 1.368 . S
C643 C627 1.349 . S
C643 H635 0.950 . S
C643 C641 1.327 . S
C644 C632 1.349 . S
C644 H638 0.950 . S
C644 C645 1.327 . S
C645 H639 0.950 . S
C645 C644 1.327 . S
C645 C649 1.429 . S
C646 C629 1.574 . S
C646 H640 0.949 . S
C646 C650 1.368 . S
C647 C628 1.429 . S
C647 C641 1.429 . S
C647 C648 1.523 . S
C648 C629 1.368 . S
C648 C642 1.368 . S
C648 C647 1.523 . S
C649 C633 1.429 . S
C649 C645 1.429 . S
C649 C650 1.523 . S
C650 C634 1.368 . S
C650 C646 1.368 . S
C650 C649 1.523 . S
H651 C626 0.950 . S
H652 C628 0.950 . S
H653 C629 0.949 . S
H654 C631 0.950 . S
H655 C633 0.950 . S
C656 C657 1.349 . S
C656 C658 1.327 . S
C656 H681 0.950 . S
C657 C656 1.349 . S
C657 C673 1.349 . S
C658 C656 1.327 . S
C658 C677 1.429 . S
C658 H682 0.950 . S
C659 C676 1.574 . S
C659 C678 1.368 . S
C659 H683 0.949 . S
H660 C664 0.949 . S
C661 C662 1.349 . S
C661 C663 1.327 . S
C661 H684 0.950 . S
C662 C661 1.349 . S
C662 C674 1.349 . S
C663 C661 1.327 . S
C663 C679 1.429 . S
C663 H685 0.950 . S
C664 H660 0.949 . S
C664 C672 1.574 . S
C664 C680 1.368 . S
H665 C673 0.950 . S
H666 C671 0.950 . S
H667 C672 0.949 . S
H668 C674 0.950 . S
H669 C675 0.950 . S
H670 C676 0.949 . S
C671 H666 0.950 . S
C671 C673 1.327 . S
C671 C677 1.429 . S
C672 C664 1.574 . S
C672 H667 0.949 . S
C672 C678 1.368 . S
C673 C657 1.349 . S
C673 H665 0.950 . S
C673 C671 1.327 . S
C674 C662 1.349 . S
C674 H668 0.950 . S
C674 C675 1.327 . S
C675 H669 0.950 . S
C675 C674 1.327 . S
C675 C679 1.429 . S
C676 C659 1.574 . S
C676 H670 0.949 . S
C676 C680 1.368 . S
C677 C658 1.429 . S
C677 C671 1.429 . S
C677 C678 1.523 . S
C678 C659 1.368 . S
C678 C672 1.368 . S
C678 C677 1.523 . S
C679 C663 1.429 . S
C679 C675 1.429 . S
C679 C680 1.523 . S
C680 C664 1.368 . S
C680 C676 1.368 . S
C680 C679 1.523 . S
H681 C656 0.950 . S
H682 C658 0.950 . S
H683 C659 0.949 . S
H684 C661 0.950 . S
H685 C663 0.950 . S
C686 C687 1.349 . S
C686 C688 1.327 . S
C686 H711 0.950 . S
C687 C686 1.349 . S
C687 C703 1.349 . S
C688 C686 1.327 . S
C688 C707 1.429 . S
C688 H712 0.950 . S
C689 C706 1.574 . S
C689 C708 1.368 . S
C689 H713 0.949 . S
H690 C694 0.949 . S
C691 C692 1.349 . S
C691 C693 1.327 . S
C691 H714 0.950 . S
C692 C691 1.349 . S
C692 C704 1.349 . S
C693 C691 1.327 . S
C693 C709 1.429 . S
C693 H715 0.950 . S
C694 H690 0.949 . S
C694 C702 1.574 . S
C694 C710 1.368 . S
H695 C703 0.950 . S
H696 C701 0.950 . S
H697 C702 0.949 . S
H698 C704 0.950 . S
H699 C705 0.950 . S
H700 C706 0.949 . S
C701 H696 0.950 . S
C701 C703 1.327 . S
C701 C707 1.429 . S
C702 C694 1.574 . S
C702 H697 0.949 . S
C702 C708 1.368 . S
C703 C687 1.349 . S
C703 H695 0.950 . S
C703 C701 1.327 . S
C704 C692 1.349 . S
C704 H698 0.950 . S
C704 C705 1.327 . S
C705 H699 0.950 . S
C705 C704 1.327 . S
C705 C709 1.429 . S
C706 C689 1.574 . S
C706 H700 0.949 . S
C706 C710 1.368 . S
C707 C688 1.429 . S
C707 C701 1.429 . S
C707 C708 1.523 . S
C708 C689 1.368 . S
C708 C702 1.368 . S
C708 C707 1.523 . S
C709 C693 1.429 . S
C709 C705 1.429 . S
C709 C710 1.523 . S
C710 C694 1.368 . S
C710 C706 1.368 . S
C710 C709 1.523 . S
H711 C686 0.950 . S
H712 C688 0.950 . S
H713 C689 0.949 . S
H714 C691 0.950 . S
H715 C693 0.950 . S
C716 C717 1.349 . S
C716 C718 1.327 . S
C716 H741 0.950 . S
C717 C716 1.349 . S
C717 C733 1.349 . S
C718 C716 1.327 . S
C718 C737 1.429 . S
C718 H742 0.950 . S
C719 C736 1.574 . S
C719 C738 1.368 . S
C719 H743 0.949 . S
H720 C724 0.949 . S
C721 C722 1.349 . S
C721 C723 1.327 . S
C721 H744 0.950 . S
C722 C721 1.349 . S
C722 C734 1.349 . S
C723 C721 1.327 . S
C723 C739 1.429 . S
C723 H745 0.950 . S
C724 H720 0.949 . S
C724 C732 1.574 . S
C724 C740 1.368 . S
H725 C733 0.950 . S
H726 C731 0.950 . S
H727 C732 0.949 . S
H728 C734 0.950 . S
H729 C735 0.950 . S
H730 C736 0.949 . S
C731 H726 0.950 . S
C731 C733 1.327 . S
C731 C737 1.429 . S
C732 C724 1.574 . S
C732 H727 0.949 . S
C732 C738 1.368 . S
C733 C717 1.349 . S
C733 H725 0.950 . S
C733 C731 1.327 . S
C734 C722 1.349 . S
C734 H728 0.950 . S
C734 C735 1.327 . S
C735 H729 0.950 . S
C735 C734 1.327 . S
C735 C739 1.429 . S
C736 C719 1.574 . S
C736 H730 0.949 . S
C736 C740 1.368 . S
C737 C718 1.429 . S
C737 C731 1.429 . S
C737 C738 1.523 . S
C738 C719 1.368 . S
C738 C732 1.368 . S
C738 C737 1.523 . S
C739 C723 1.429 . S
C739 C735 1.429 . S
C739 C740 1.523 . S
C740 C724 1.368 . S
C740 C736 1.368 . S
C740 C739 1.523 . S
H741 C716 0.950 . S
H742 C718 0.950 . S
H743 C719 0.949 . S
H744 C721 0.950 . S
H745 C723 0.950 . S
C746 C747 1.349 . S
C746 C748 1.327 . S
C746 H771 0.950 . S
C747 C746 1.349 . S
C747 C763 1.349 . S
C748 C746 1.327 . S
C748 C767 1.429 . S
C748 H772 0.950 . S
C749 C766 1.574 . S
C749 C768 1.368 . S
C749 H773 0.949 . S
H750 C754 0.949 . S
C751 C752 1.349 . S
C751 C753 1.327 . S
C751 H774 0.950 . S
C752 C751 1.349 . S
C752 C764 1.349 . S
C753 C751 1.327 . S
C753 C769 1.429 . S
C753 H775 0.950 . S
C754 H750 0.949 . S
C754 C762 1.574 . S
C754 C770 1.368 . S
H755 C763 0.950 . S
H756 C761 0.950 . S
H757 C762 0.949 . S
H758 C764 0.950 . S
H759 C765 0.950 . S
H760 C766 0.949 . S
C761 H756 0.950 . S
C761 C763 1.327 . S
C761 C767 1.429 . S
C762 C754 1.574 . S
C762 H757 0.949 . S
C762 C768 1.368 . S
C763 C747 1.349 . S
C763 H755 0.950 . S
C763 C761 1.327 . S
C764 C752 1.349 . S
C764 H758 0.950 . S
C764 C765 1.327 . S
C765 H759 0.950 . S
C765 C764 1.327 . S
C765 C769 1.429 . S
C766 C749 1.574 . S
C766 H760 0.949 . S
C766 C770 1.368 . S
C767 C748 1.429 . S
C767 C761 1.429 . S
C767 C768 1.523 . S
C768 C749 1.368 . S
C768 C762 1.368 . S
C768 C767 1.523 . S
C769 C753 1.429 . S
C769 C765 1.429 . S
C769 C770 1.523 . S
C770 C754 1.368 . S
C770 C766 1.368 . S
C770 C769 1.523 . S
H771 C746 0.950 . S
H772 C748 0.950 . S
H773 C749 0.949 . S
H774 C751 0.950 . S
H775 C753 0.950 . S
C776 C777 1.349 . S
C776 C778 1.327 . S
C776 H801 0.950 . S
C777 C776 1.349 . S
C777 C793 1.349 . S
C778 C776 1.327 . S
C778 C797 1.429 . S
C778 H802 0.950 . S
C779 C796 1.574 . S
C779 C798 1.368 . S
C779 H803 0.949 . S
H780 C784 0.949 . S
C781 C782 1.349 . S
C781 C783 1.327 . S
C781 H804 0.950 . S
C782 C781 1.349 . S
C782 C794 1.349 . S
C783 C781 1.327 . S
C783 C799 1.429 . S
C783 H805 0.950 . S
C784 H780 0.949 . S
C784 C792 1.574 . S
C784 C800 1.368 . S
H785 C793 0.950 . S
H786 C791 0.950 . S
H787 C792 0.949 . S
H788 C794 0.950 . S
H789 C795 0.950 . S
H790 C796 0.949 . S
C791 H786 0.950 . S
C791 C793 1.327 . S
C791 C797 1.429 . S
C792 C784 1.574 . S
C792 H787 0.949 . S
C792 C798 1.368 . S
C793 C777 1.349 . S
C793 H785 0.950 . S
C793 C791 1.327 . S
C794 C782 1.349 . S
C794 H788 0.950 . S
C794 C795 1.327 . S
C795 H789 0.950 . S
C795 C794 1.327 . S
C795 C799 1.429 . S
C796 C779 1.574 . S
C796 H790 0.949 . S
C796 C800 1.368 . S
C797 C778 1.429 . S
C797 C791 1.429 . S
C797 C798 1.523 . S
C798 C779 1.368 . S
C798 C792 1.368 . S
C798 C797 1.523 . S
C799 C783 1.429 . S
C799 C795 1.429 . S
C799 C800 1.523 . S
C800 C784 1.368 . S
C800 C796 1.368 . S
C800 C799 1.523 . S
H801 C776 0.950 . S
H802 C778 0.950 . S
H803 C779 0.949 . S
H804 C781 0.950 . S
H805 C783 0.950 . S
C806 C807 1.349 . S
C806 C808 1.327 . S
C806 H831 0.950 . S
C807 C806 1.349 . S
C807 C823 1.349 . S
C808 C806 1.327 . S
C808 C827 1.429 . S
C808 H832 0.950 . S
C809 C826 1.574 . S
C809 C828 1.368 . S
C809 H833 0.949 . S
H810 C814 0.949 . S
C811 C812 1.349 . S
C811 C813 1.327 . S
C811 H834 0.950 . S
C812 C811 1.349 . S
C812 C824 1.349 . S
C813 C811 1.327 . S
C813 C829 1.429 . S
C813 H835 0.950 . S
C814 H810 0.949 . S
C814 C822 1.574 . S
C814 C830 1.368 . S
H815 C823 0.950 . S
H816 C821 0.950 . S
H817 C822 0.949 . S
H818 C824 0.950 . S
H819 C825 0.950 . S
H820 C826 0.949 . S
C821 H816 0.950 . S
C821 C823 1.327 . S
C821 C827 1.429 . S
C822 C814 1.574 . S
C822 H817 0.949 . S
C822 C828 1.368 . S
C823 C807 1.349 . S
C823 H815 0.950 . S
C823 C821 1.327 . S
C824 C812 1.349 . S
C824 H818 0.950 . S
C824 C825 1.327 . S
C825 H819 0.950 . S
C825 C824 1.327 . S
C825 C829 1.429 . S
C826 C809 1.574 . S
C826 H820 0.949 . S
C826 C830 1.368 . S
C827 C808 1.429 . S
C827 C821 1.429 . S
C827 C828 1.523 . S
C828 C809 1.368 . S
C828 C822 1.368 . S
C828 C827 1.523 . S
C829 C813 1.429 . S
C829 C825 1.429 . S
C829 C830 1.523 . S
C830 C814 1.368 . S
C830 C826 1.368 . S
C830 C829 1.523 . S
H831 C806 0.950 . S
H832 C808 0.950 . S
H833 C809 0.949 . S
H834 C811 0.950 . S
H835 C813 0.950 . S
C836 C837 1.349 . S
C836 C838 1.327 . S
C836 H861 0.950 . S
C837 C836 1.349 . S
C837 C853 1.349 . S
C838 C836 1.327 . S
C838 C857 1.429 . S
C838 H862 0.950 . S
C839 C856 1.574 . S
C839 C858 1.368 . S
C839 H863 0.949 . S
H840 C844 0.949 . S
C841 C842 1.349 . S
C841 C843 1.327 . S
C841 H864 0.950 . S
C842 C841 1.349 . S
C842 C854 1.349 . S
C843 C841 1.327 . S
C843 C859 1.429 . S
C843 H865 0.950 . S
C844 H840 0.949 . S
C844 C852 1.574 . S
C844 C860 1.368 . S
H845 C853 0.950 . S
H846 C851 0.950 . S
H847 C852 0.949 . S
H848 C854 0.950 . S
H849 C855 0.950 . S
H850 C856 0.949 . S
C851 H846 0.950 . S
C851 C853 1.327 . S
C851 C857 1.429 . S
C852 C844 1.574 . S
C852 H847 0.949 . S
C852 C858 1.368 . S
C853 C837 1.349 . S
C853 H845 0.950 . S
C853 C851 1.327 . S
C854 C842 1.349 . S
C854 H848 0.950 . S
C854 C855 1.327 . S
C855 H849 0.950 . S
C855 C854 1.327 . S
C855 C859 1.429 . S
C856 C839 1.574 . S
C856 H850 0.949 . S
C856 C860 1.368 . S
C857 C838 1.429 . S
C857 C851 1.429 . S
C857 C858 1.523 . S
C858 C839 1.368 . S
C858 C852 1.368 . S
C858 C857 1.523 . S
C859 C843 1.429 . S
C859 C855 1.429 . S
C859 C860 1.523 . S
C860 C844 1.368 . S
C860 C856 1.368 . S
C860 C859 1.523 . S
H861 C836 0.950 . S
H862 C838 0.950 . S
H863 C839 0.949 . S
H864 C841 0.950 . S
H865 C843 0.950 . S
C866 C867 1.349 . S
C866 C868 1.327 . S
C866 H891 0.950 . S
C867 C866 1.349 . S
C867 C883 1.349 . S
C868 C866 1.327 . S
C868 C887 1.429 . S
C868 H892 0.950 . S
C869 C886 1.574 . S
C869 C888 1.368 . S
C869 H893 0.949 . S
H870 C874 0.949 . S
C871 C872 1.349 . S
C871 C873 1.327 . S
C871 H894 0.950 . S
C872 C871 1.349 . S
C872 C884 1.349 . S
C873 C871 1.327 . S
C873 C889 1.429 . S
C873 H895 0.950 . S
C874 H870 0.949 . S
C874 C882 1.574 . S
C874 C890 1.368 . S
H875 C883 0.950 . S
H876 C881 0.950 . S
H877 C882 0.949 . S
H878 C884 0.950 . S
H879 C885 0.950 . S
H880 C886 0.949 . S
C881 H876 0.950 . S
C881 C883 1.327 . S
C881 C887 1.429 . S
C882 C874 1.574 . S
C882 H877 0.949 . S
C882 C888 1.368 . S
C883 C867 1.349 . S
C883 H875 0.950 . S
C883 C881 1.327 . S
C884 C872 1.349 . S
C884 H878 0.950 . S
C884 C885 1.327 . S
C885 H879 0.950 . S
C885 C884 1.327 . S
C885 C889 1.429 . S
C886 C869 1.574 . S
C886 H880 0.949 . S
C886 C890 1.368 . S
C887 C868 1.429 . S
C887 C881 1.429 . S
C887 C888 1.523 . S
C888 C869 1.368 . S
C888 C882 1.368 . S
C888 C887 1.523 . S
C889 C873 1.429 . S
C889 C885 1.429 . S
C889 C890 1.523 . S
C890 C874 1.368 . S
C890 C886 1.368 . S
C890 C889 1.523 . S
H891 C866 0.950 . S
H892 C868 0.950 . S
H893 C869 0.949 . S
H894 C871 0.950 . S
H895 C873 0.950 . S
C896 C897 1.349 . S
C896 C898 1.327 . S
C896 H921 0.950 . S
C897 C896 1.349 . S
C897 C913 1.349 . S
C898 C896 1.327 . S
C898 C917 1.429 . S
C898 H922 0.950 . S
C899 C916 1.574 . S
C899 C918 1.368 . S
C899 H923 0.949 . S
H900 C904 0.949 . S
C901 C902 1.349 . S
C901 C903 1.327 . S
C901 H924 0.950 . S
C902 C901 1.349 . S
C902 C914 1.349 . S
C903 C901 1.327 . S
C903 C919 1.429 . S
C903 H925 0.950 . S
C904 H900 0.949 . S
C904 C912 1.574 . S
C904 C920 1.368 . S
H905 C913 0.950 . S
H906 C911 0.950 . S
H907 C912 0.949 . S
H908 C914 0.950 . S
H909 C915 0.950 . S
H910 C916 0.949 . S
C911 H906 0.950 . S
C911 C913 1.327 . S
C911 C917 1.429 . S
C912 C904 1.574 . S
C912 H907 0.949 . S
C912 C918 1.368 . S
C913 C897 1.349 . S
C913 H905 0.950 . S
C913 C911 1.327 . S
C914 C902 1.349 . S
C914 H908 0.950 . S
C914 C915 1.327 . S
C915 H909 0.950 . S
C915 C914 1.327 . S
C915 C919 1.429 . S
C916 C899 1.574 . S
C916 H910 0.949 . S
C916 C920 1.368 . S
C917 C898 1.429 . S
C917 C911 1.429 . S
C917 C918 1.523 . S
C918 C899 1.368 . S
C918 C912 1.368 . S
C918 C917 1.523 . S
C919 C903 1.429 . S
C919 C915 1.429 . S
C919 C920 1.523 . S
C920 C904 1.368 . S
C920 C916 1.368 . S
C920 C919 1.523 . S
H921 C896 0.950 . S
H922 C898 0.950 . S
H923 C899 0.949 . S
H924 C901 0.950 . S
H925 C903 0.950 . S
C926 C927 1.349 . S
C926 C928 1.327 . S
C926 H951 0.950 . S
C927 C926 1.349 . S
C927 C943 1.349 . S
C928 C926 1.327 . S
C928 C947 1.429 . S
C928 H952 0.950 . S
C929 C946 1.574 . S
C929 C948 1.368 . S
C929 H953 0.949 . S
H930 C934 0.949 . S
C931 C932 1.349 . S
C931 C933 1.327 . S
C931 H954 0.950 . S
C932 C931 1.349 . S
C932 C944 1.349 . S
C933 C931 1.327 . S
C933 C949 1.429 . S
C933 H955 0.950 . S
C934 H930 0.949 . S
C934 C942 1.574 . S
C934 C950 1.368 . S
H935 C943 0.950 . S
H936 C941 0.950 . S
H937 C942 0.949 . S
H938 C944 0.950 . S
H939 C945 0.950 . S
H940 C946 0.949 . S
C941 H936 0.950 . S
C941 C943 1.327 . S
C941 C947 1.429 . S
C942 C934 1.574 . S
C942 H937 0.949 . S
C942 C948 1.368 . S
C943 C927 1.349 . S
C943 H935 0.950 . S
C943 C941 1.327 . S
C944 C932 1.349 . S
C944 H938 0.950 . S
C944 C945 1.327 . S
C945 H939 0.950 . S
C945 C944 1.327 . S
C945 C949 1.429 . S
C946 C929 1.574 . S
C946 H940 0.949 . S
C946 C950 1.368 . S
C947 C928 1.429 . S
C947 C941 1.429 . S
C947 C948 1.523 . S
C948 C929 1.368 . S
C948 C942 1.368 . S
C948 C947 1.523 . S
C949 C933 1.429 . S
C949 C945 1.429 . S
C949 C950 1.523 . S
C950 C934 1.368 . S
C950 C946 1.368 . S
C950 C949 1.523 . S
H951 C926 0.950 . S
H952 C928 0.950 . S
H953 C929 0.949 . S
H954 C931 0.950 . S
H955 C933 0.950 . S
C956 C957 1.349 . S
C956 C958 1.327 . S
C956 H981 0.950 . S
C957 C956 1.349 . S
C957 C973 1.349 . S
C958 C956 1.327 . S
C958 C977 1.429 . S
C958 H982 0.950 . S
C959 C976 1.574 . S
C959 C978 1.368 . S
C959 H983 0.949 . S
H960 C964 0.949 . S
C961 C962 1.349 . S
C961 C963 1.327 . S
C961 H984 0.950 . S
C962 C961 1.349 . S
C962 C974 1.349 . S
C963 C961 1.327 . S
C963 C979 1.429 . S
C963 H985 0.950 . S
C964 H960 0.949 . S
C964 C972 1.574 . S
C964 C980 1.368 . S
H965 C973 0.950 . S
H966 C971 0.950 . S
H967 C972 0.949 . S
H968 C974 0.950 . S
H969 C975 0.950 . S
H970 C976 0.949 . S
C971 H966 0.950 . S
C971 C973 1.327 . S
C971 C977 1.429 . S
C972 C964 1.574 . S
C972 H967 0.949 . S
C972 C978 1.368 . S
C973 C957 1.349 . S
C973 H965 0.950 . S
C973 C971 1.327 . S
C974 C962 1.349 . S
C974 H968 0.950 . S
C974 C975 1.327 . S
C975 H969 0.950 . S
C975 C974 1.327 . S
C975 C979 1.429 . S
C976 C959 1.574 . S
C976 H970 0.949 . S
C976 C980 1.368 . S
C977 C958 1.429 . S
C977 C971 1.429 . S
C977 C978 1.523 . S
C978 C959 1.368 . S
C978 C972 1.368 . S
C978 C977 1.523 . S
C979 C963 1.429 . S
C979 C975 1.429 . S
C979 C980 1.523 . S
C980 C964 1.368 . S
C980 C976 1.368 . S
C980 C979 1.523 . S
H981 C956 0.950 . S
H982 C958 0.950 . S
H983 C959 0.949 . S
H984 C961 0.950 . S
H985 C963 0.950 . S
C986 C987 1.349 . S
C986 C988 1.327 . S
C986 H1011 0.950 . S
C987 C986 1.349 . S
C987 C1003 1.349 . S
C988 C986 1.327 . S
C988 C1007 1.429 . S
C988 H1012 0.950 . S
C989 C1006 1.574 . S
C989 C1008 1.368 . S
C989 H1013 0.949 . S
H990 C994 0.949 . S
C991 C992 1.349 . S
C991 C993 1.327 . S
C991 H1014 0.950 . S
C992 C991 1.349 . S
C992 C1004 1.349 . S
C993 C991 1.327 . S
C993 C1009 1.429 . S
C993 H1015 0.950 . S
C994 H990 0.949 . S
C994 C1002 1.574 . S
C994 C1010 1.368 . S
H995 C1003 0.950 . S
H996 C1001 0.950 . S
H997 C1002 0.949 . S
H998 C1004 0.950 . S
H999 C1005 0.950 . S
H1000 C1006 0.949 . S
C1001 H996 0.950 . S
C1001 C1003 1.327 . S
C1001 C1007 1.429 . S
C1002 C994 1.574 . S
C1002 H997 0.949 . S
C1002 C1008 1.368 . S
C1003 C987 1.349 . S
C1003 H995 0.950 . S
C1003 C1001 1.327 . S
C1004 C992 1.349 . S
C1004 H998 0.950 . S
C1004 C1005 1.327 . S
C1005 H999 0.950 . S
C1005 C1004 1.327 . S
C1005 C1009 1.429 . S
C1006 C989 1.574 . S
C1006 H1000 0.949 . S
C1006 C1010 1.368 . S
C1007 C988 1.429 . S
C1007 C1001 1.429 . S
C1007 C1008 1.523 . S
C1008 C989 1.368 . S
C1008 C1002 1.368 . S
C1008 C1007 1.523 . S
C1009 C993 1.429 . S
C1009 C1005 1.429 . S
C1009 C1010 1.523 . S
C1010 C994 1.368 . S
C1010 C1006 1.368 . S
C1010 C1009 1.523 . S
H1011 C986 0.950 . S
H1012 C988 0.950 . S
H1013 C989 0.949 . S
H1014 C991 0.950 . S
H1015 C993 0.950 . S
C1016 C1017 1.349 . S
C1016 C1018 1.327 . S
C1016 H1041 0.950 . S
C1017 C1016 1.349 . S
C1017 C1033 1.349 . S
C1018 C1016 1.327 . S
C1018 C1037 1.429 . S
C1018 H1042 0.950 . S
C1019 C1036 1.574 . S
C1019 C1038 1.368 . S
C1019 H1043 0.949 . S
H1020 C1024 0.949 . S
C1021 C1022 1.349 . S
C1021 C1023 1.327 . S
C1021 H1044 0.950 . S
C1022 C1021 1.349 . S
C1022 C1034 1.349 . S
C1023 C1021 1.327 . S
C1023 C1039 1.429 . S
C1023 H1045 0.950 . S
C1024 H1020 0.949 . S
C1024 C1032 1.574 . S
C1024 C1040 1.368 . S
H1025 C1033 0.950 . S
H1026 C1031 0.950 . S
H1027 C1032 0.949 . S
H1028 C1034 0.950 . S
H1029 C1035 0.950 . S
H1030 C1036 0.949 . S
C1031 H1026 0.950 . S
C1031 C1033 1.327 . S
C1031 C1037 1.429 . S
C1032 C1024 1.574 . S
C1032 H1027 0.949 . S
C1032 C1038 1.368 . S
C1033 C1017 1.349 . S
C1033 H1025 0.950 . S
C1033 C1031 1.327 . S
C1034 C1022 1.349 . S
C1034 H1028 0.950 . S
C1034 C1035 1.327 . S
C1035 H1029 0.950 . S
C1035 C1034 1.327 . S
C1035 C1039 1.429 . S
C1036 C1019 1.574 . S
C1036 H1030 0.949 . S
C1036 C1040 1.368 . S
C1037 C1018 1.429 . S
C1037 C1031 1.429 . S
C1037 C1038 1.523 . S
C1038 C1019 1.368 . S
C1038 C1032 1.368 . S
C1038 C1037 1.523 . S
C1039 C1023 1.429 . S
C1039 C1035 1.429 . S
C1039 C1040 1.523 . S
C1040 C1024 1.368 . S
C1040 C1036 1.368 . S
C1040 C1039 1.523 . S
H1041 C1016 0.950 . S
H1042 C1018 0.950 . S
H1043 C1019 0.949 . S
H1044 C1021 0.950 . S
H1045 C1023 0.950 . S
C1046 C1047 1.349 . S
C1046 C1048 1.327 . S
C1046 H1071 0.950 . S
C1047 C1046 1.349 . S
C1047 C1063 1.349 . S
C1048 C1046 1.327 . S
C1048 C1067 1.429 . S
C1048 H1072 0.950 . S
C1049 C1066 1.574 . S
C1049 C1068 1.368 . S
C1049 H1073 0.949 . S
H1050 C1054 0.949 . S
C1051 C1052 1.349 . S
C1051 C1053 1.327 . S
C1051 H1074 0.950 . S
C1052 C1051 1.349 . S
C1052 C1064 1.349 . S
C1053 C1051 1.327 . S
C1053 C1069 1.429 . S
C1053 H1075 0.950 . S
C1054 H1050 0.949 . S
C1054 C1062 1.574 . S
C1054 C1070 1.368 . S
H1055 C1063 0.950 . S
H1056 C1061 0.950 . S
H1057 C1062 0.949 . S
H1058 C1064 0.950 . S
H1059 C1065 0.950 . S
H1060 C1066 0.949 . S
C1061 H1056 0.950 . S
C1061 C1063 1.327 . S
C1061 C1067 1.429 . S
C1062 C1054 1.574 . S
C1062 H1057 0.949 . S
C1062 C1068 1.368 . S
C1063 C1047 1.349 . S
C1063 H1055 0.950 . S
C1063 C1061 1.327 . S
C1064 C1052 1.349 . S
C1064 H1058 0.950 . S
C1064 C1065 1.327 . S
C1065 H1059 0.950 . S
C1065 C1064 1.327 . S
C1065 C1069 1.429 . S
C1066 C1049 1.574 . S
C1066 H1060 0.949 . S
C1066 C1070 1.368 . S
C1067 C1048 1.429 . S
C1067 C1061 1.429 . S
C1067 C1068 1.523 . S
C1068 C1049 1.368 . S
C1068 C1062 1.368 . S
C1068 C1067 1.523 . S
C1069 C1053 1.429 . S
C1069 C1065 1.429 . S
C1069 C1070 1.523 . S
C1070 C1054 1.368 . S
C1070 C1066 1.368 . S
C1070 C1069 1.523 . S
H1071 C1046 0.950 . S
H1072 C1048 0.950 . S
H1073 C1049 0.949 . S
H1074 C1051 0.950 . S
H1075 C1053 0.950 . S
C1076 C1077 1.349 . S
C1076 C1078 1.327 . S
C1076 H1101 0.950 . S
C1077 C1076 1.349 . S
C1077 C1093 1.349 . S
C1078 C1076 1.327 . S
C1078 C1097 1.429 . S
C1078 H1102 0.950 . S
C1079 C1096 1.574 . S
C1079 C1098 1.368 . S
C1079 H1103 0.949 . S
H1080 C1084 0.949 . S
C1081 C1082 1.349 . S
C1081 C1083 1.327 . S
C1081 H1104 0.950 . S
C1082 C1081 1.349 . S
C1082 C1094 1.349 . S
C1083 C1081 1.327 . S
C1083 C1099 1.429 . S
C1083 H1105 0.950 . S
C1084 H1080 0.949 . S
C1084 C1092 1.574 . S
C1084 C1100 1.368 . S
H1085 C1093 0.950 . S
H1086 C1091 0.950 . S
H1087 C1092 0.949 . S
H1088 C1094 0.950 . S
H1089 C1095 0.950 . S
H1090 C1096 0.949 . S
C1091 H1086 0.950 . S
C1091 C1093 1.327 . S
C1091 C1097 1.429 . S
C1092 C1084 1.574 . S
C1092 H1087 0.949 . S
C1092 C1098 1.368 . S
C1093 C1077 1.349 . S
C1093 H1085 0.950 . S
C1093 C1091 1.327 . S
C1094 C1082 1.349 . S
C1094 H1088 0.950 . S
C1094 C1095 1.327 . S
C1095 H1089 0.950 . S
C1095 C1094 1.327 . S
C1095 C1099 1.429 . S
C1096 C1079 1.574 . S
C1096 H1090 0.949 . S
C1096 C1100 1.368 . S
C1097 C1078 1.429 . S
C1097 C1091 1.429 . S
C1097 C1098 1.523 . S
C1098 C1079 1.368 . S
C1098 C1092 1.368 . S
C1098 C1097 1.523 . S
C1099 C1083 1.429 . S
C1099 C1095 1.429 . S
C1099 C1100 1.523 . S
C1100 C1084 1.368 . S
C1100 C1096 1.368 . S
C1100 C1099 1.523 . S
H1101 C1076 0.950 . S
H1102 C1078 0.950 . S
H1103 C1079 0.949 . S
H1104 C1081 0.950 . S
H1105 C1083 0.950 . S
C1106 C1107 1.349 . S
C1106 C1108 1.327 . S
C1106 H1131 0.950 . S
C1107 C1106 1.349 . S
C1107 C1123 1.349 . S
C1108 C1106 1.327 . S
C1108 C1127 1.429 . S
C1108 H1132 0.950 . S
C1109 C1126 1.574 . S
C1109 C1128 1.368 . S
C1109 H1133 0.949 . S
H1110 C1114 0.949 . S
C1111 C1112 1.349 . S
C1111 C1113 1.327 . S
C1111 H1134 0.950 . S
C1112 C1111 1.349 . S
C1112 C1124 1.349 . S
C1113 C1111 1.327 . S
C1113 C1129 1.429 . S
C1113 H1135 0.950 . S
C1114 H1110 0.949 . S
C1114 C1122 1.574 . S
C1114 C1130 1.368 . S
H1115 C1123 0.950 . S
H1116 C1121 0.950 . S
H1117 C1122 0.949 . S
H1118 C1124 0.950 . S
H1119 C1125 0.950 . S
H1120 C1126 0.949 . S
C1121 H1116 0.950 . S
C1121 C1123 1.327 . S
C1121 C1127 1.429 . S
C1122 C1114 1.574 . S
C1122 H1117 0.949 . S
C1122 C1128 1.368 . S
C1123 C1107 1.349 . S
C1123 H1115 0.950 . S
C1123 C1121 1.327 . S
C1124 C1112 1.349 . S
C1124 H1118 0.950 . S
C1124 C1125 1.327 . S
C1125 H1119 0.950 . S
C1125 C1124 1.327 . S
C1125 C1129 1.429 . S
C1126 C1109 1.574 . S
C1126 H1120 0.949 . S
C1126 C1130 1.368 . S
C1127 C1108 1.429 . S
C1127 C1121 1.429 . S
C1127 C1128 1.523 . S
C1128 C1109 1.368 . S
C1128 C1122 1.368 . S
C1128 C1127 1.523 . S
C1129 C1113 1.429 . S
C1129 C1125 1.429 . S
C1129 C1130 1.523 . S
C1130 C1114 1.368 . S
C1130 C1126 1.368 . S
C1130 C1129 1.523 . S
H1131 C1106 0.950 . S
H1132 C1108 0.950 . S
H1133 C1109 0.949 . S
H1134 C1111 0.950 . S
H1135 C1113 0.950 . S
C417 C29 1.206 . S
C422 C262 1.205 . S
C447 C49 0.877 . S
C452 C311 0.883 . S
C482 C346 2.487 . S
C477 C93 2.485 . S
C507 C119 2.233 . S
C512 C385 2.225 . S
C542 C306 2.330 . S
C537 C17 2.322 . S
C572 C265 0.904 . S
C567 C61 0.926 . S
C602 C395 1.862 . S
C597 C81 1.879 . S
C632 C354 1.584 . S
C627 C125 1.574 . S
C657 C23 1.633 . S
C662 C382 1.635 . S
C692 C314 2.281 . S
C687 C87 2.322 . S
C717 C113 2.328 . S
C722 C275 2.362 . S
C747 C55 0.727 . S
C752 C351 0.723 . S
C782 C271 1.168 . S
C777 C157 1.065 . S
C807 C189 0.934 . S
C812 C302 0.945 . S
C837 C221 2.435 . S
C842 C355 2.441 . S
C867 C253 2.312 . S
C872 C394 2.317 . S
C897 C145 2.227 . S
C902 C315 2.420 . S
C932 C274 0.846 . S
C927 C183 0.853 . S
C962 C386 1.908 . S
C957 C209 1.907 . S
C992 C345 1.530 . S
C987 C247 1.522 . S
C1017 C151 1.522 . S
C1022 C391 1.649 . S
C1052 C305 2.279 . S
C1047 C215 2.314 . S
C1082 C266 2.313 . S
C1077 C241 2.271 . S
C1107 C177 0.720 . S
C1112 C342 0.718 . S
