# Generated by pormake.
# Topology anh, (6,3)-cn, num edge types: 1
# Building blocks:
#     Node 0, Type 0, BuildingBlock: HISSIN_clean_sbu_0, # of connection points: 6
#     Node 1, Type 0, BuildingBlock: HISSIN_clean_sbu_0, # of connection points: 6
#     Node 2, Type 0, BuildingBlock: HISSIN_clean_sbu_0, # of connection points: 6
#     Node 3, Type 1, BuildingBlock: BELTOD_clean_linker_0, # of connection points: 3
#     Node 4, Type 1, BuildingBlock: BELTOD_clean_linker_0, # of connection points: 3
#     Node 5, Type 1, BuildingBlock: BELTOD_clean_linker_0, # of connection points: 3
#     Node 6, Type 1, BuildingBlock: BELTOD_clean_linker_0, # of connection points: 3
#     Node 7, Type 1, BuildingBlock: BELTOD_clean_linker_0, # of connection points: 3
#     Node 8, Type 1, BuildingBlock: BELTOD_clean_linker_0, # of connection points: 3
#     Edge 9, Type (0, 1), BuildingBlock: MIFKUJ_clean_linker_0, # of connection points: 2
#     Edge 10, Type (0, 1), BuildingBlock: MIFKUJ_clean_linker_0, # of connection points: 2
#     Edge 11, Type (0, 1), BuildingBlock: MIFKUJ_clean_linker_0, # of connection points: 2
#     Edge 12, Type (0, 1), BuildingBlock: MIFKUJ_clean_linker_0, # of connection points: 2
#     Edge 13, Type (0, 1), BuildingBlock: MIFKUJ_clean_linker_0, # of connection points: 2
#     Edge 14, Type (0, 1), BuildingBlock: MIFKUJ_clean_linker_0, # of connection points: 2
#     Edge 15, Type (0, 1), BuildingBlock: MIFKUJ_clean_linker_0, # of connection points: 2
#     Edge 16, Type (0, 1), BuildingBlock: MIFKUJ_clean_linker_0, # of connection points: 2
#     Edge 17, Type (0, 1), BuildingBlock: MIFKUJ_clean_linker_0, # of connection points: 2
#     Edge 18, Type (0, 1), BuildingBlock: MIFKUJ_clean_linker_0, # of connection points: 2
#     Edge 19, Type (0, 1), BuildingBlock: MIFKUJ_clean_linker_0, # of connection points: 2
#     Edge 20, Type (0, 1), BuildingBlock: MIFKUJ_clean_linker_0, # of connection points: 2
#     Edge 21, Type (0, 1), BuildingBlock: MIFKUJ_clean_linker_0, # of connection points: 2
#     Edge 22, Type (0, 1), BuildingBlock: MIFKUJ_clean_linker_0, # of connection points: 2
#     Edge 23, Type (0, 1), BuildingBlock: MIFKUJ_clean_linker_0, # of connection points: 2
#     Edge 24, Type (0, 1), BuildingBlock: MIFKUJ_clean_linker_0, # of connection points: 2
#     Edge 25, Type (0, 1), BuildingBlock: MIFKUJ_clean_linker_0, # of connection points: 2
#     Edge 26, Type (0, 1), BuildingBlock: MIFKUJ_clean_linker_0, # of connection points: 2
# Relax obj value: 0.199
# Max RMSD: 0.177
# Mean RMSD: 0.141
data_MOF--net-anh--node1-HISSIN_clean_sbu_0--node2-BELTOD_clean_linker_0--edge1-MIFKUJ_clean_linker_0
_symmetry_space_group_name_H-M    P1
_symmetry_Int_Tables_number       1
_symmetry_cell_setting            triclinic
loop_
_symmetry_equiv_pos_as_xyz
'x, y, z'
_cell_length_a     43.381915
_cell_length_b     43.408039
_cell_length_c     76.59622
_cell_angle_alpha  92.740489
_cell_angle_beta   90.609626
_cell_angle_gamma 119.93606
loop_
_atom_site_label
_atom_site_type_symbol
_atom_site_fract_x
_atom_site_fract_y
_atom_site_fract_z
_atom_type_partial_charge
Eu0 Eu 1.03608 0.52525 0.16905 0.0
Eu1 Eu 0.08108 0.61116 0.17676 0.0
C2 C 1.05482 0.5601 0.20847 0.0
C3 C 0.96099 0.43476 0.15383 0.0
C4 C 0.93664 0.44715 0.1543 0.0
C5 C 0.91517 0.37848 0.14029 0.0
C6 C 0.9014 0.42486 0.14835 0.0
C7 C 0.95034 0.40069 0.14641 0.0
C8 C 0.89017 0.39005 0.14163 0.0
C9 C 0.99711 0.45698 0.16148 0.0
O10 O 0.12374 0.59503 0.17842 0.0
O11 O 0.0932 0.53784 0.16601 0.0
C12 C 0.12323 0.56614 0.17174 0.0
O13 O 1.03654 0.55068 0.14392 0.0
O14 O 0.11906 0.65977 0.19184 0.0
O15 O 0.0937 0.66312 0.16803 0.0
O16 O 0.09128 0.59867 0.14953 0.0
C17 C 1.06566 0.57732 0.13836 0.0
O18 O 0.99318 0.53965 0.17393 0.0
O19 O 1.02479 0.59929 0.1695 0.0
O20 O 1.05805 0.58939 0.20252 0.0
O21 O 1.02061 0.47884 0.15108 0.0
O22 O 0.99931 0.47198 0.17697 0.0
O23 O 1.05345 0.53482 0.19774 0.0
C24 C 0.15436 0.70337 0.17257 0.0
C25 C 0.16497 0.73856 0.16898 0.0
C26 C 0.20845 0.70994 0.16028 0.0
C27 C 0.19743 0.7595 0.16114 0.0
C28 C 0.1761 0.68912 0.16797 0.0
C29 C 0.2196 0.74541 0.15677 0.0
C30 C 0.11952 0.68028 0.17977 0.0
C31 C 0.99417 0.56977 0.17107 0.0
H32 H 0.9446 0.47364 0.15977 0.0
H33 H 0.90709 0.35158 0.1354 0.0
H34 H 0.88266 0.43441 0.1495 0.0
H35 H 0.96892 0.39088 0.14584 0.0
H36 H 0.14811 0.74972 0.17213 0.0
H37 H 0.22506 0.69835 0.15748 0.0
H38 H 0.20511 0.78664 0.15848 0.0
H39 H 0.16809 0.6618 0.17034 0.0
Eu40 Eu 0.57288 1.02036 0.50674 0.0
Eu41 Eu 0.52961 0.06354 0.50426 0.0
C42 C 0.55151 0.04759 0.54156 0.0
C43 C 0.60051 0.94966 0.50033 0.0
C44 C 0.58015 0.91896 0.50947 0.0
C45 C 0.61267 0.91425 0.4789 0.0
C46 C 0.57651 0.88638 0.50352 0.0
C47 C 0.61638 0.94689 0.48488 0.0
C48 C 0.59318 0.88378 0.48832 0.0
C49 C 0.6066 0.98474 0.50722 0.0
O50 O 0.58721 0.10799 0.50776 0.0
O51 O 0.61583 0.07683 0.50106 0.0
C52 C 0.6163 0.10732 0.50376 0.0
O53 O 0.54847 1.00948 0.47969 0.0
O54 O 0.51693 0.10372 0.51416 0.0
O55 O 0.49234 0.07352 0.48967 0.0
O56 O 0.55329 0.06363 0.47812 0.0
C57 C 0.55171 1.03529 0.47039 0.0
O58 O 0.515 0.97658 0.5086 0.0
O59 O 0.48571 1.0057 0.50013 0.0
O60 O 0.52643 0.04909 0.53249 0.0
O61 O 0.6118 1.00797 0.49574 0.0
O62 O 0.58662 0.98507 0.51979 0.0
O63 O 0.57683 0.04475 0.53379 0.0
C64 C 0.51537 0.13558 0.4908 0.0
C65 C 0.53707 0.14064 0.47647 0.0
C66 C 0.53615 0.1989 0.49299 0.0
C67 C 0.55898 0.17469 0.47082 0.0
C68 C 0.51413 0.16475 0.49862 0.0
C69 C 0.55981 0.20435 0.47948 0.0
C70 C 0.50007 0.10196 0.49959 0.0
C71 C 0.48547 0.97623 0.50383 0.0
H72 H 0.56778 0.92019 0.52149 0.0
H73 H 0.62576 0.91304 0.46714 0.0
H74 H 0.56199 0.8636 0.51131 0.0
H75 H 0.63234 0.97012 0.47758 0.0
H76 H 0.53883 0.11863 0.47029 0.0
H77 H 0.53644 0.22125 0.50007 0.0
H78 H 0.57658 0.17801 0.46026 0.0
H79 H 0.49799 0.16147 0.50984 0.0
Eu80 Eu 0.51912 0.51753 0.835 0.0
Eu81 Eu 0.60424 0.56108 0.84399 0.0
C82 C 0.55038 0.53874 0.87467 0.0
C83 C 0.43109 0.4998 0.81791 0.0
C84 C 0.449 0.53505 0.81298 0.0
C85 C 0.37483 0.49528 0.80969 0.0
C86 C 0.42997 0.55092 0.80725 0.0
C87 C 0.39401 0.4796 0.81576 0.0
C88 C 0.39252 0.5316 0.80605 0.0
C89 C 0.45132 0.4858 0.82661 0.0
O90 O 0.58885 0.50287 0.84618 0.0
O91 O 0.53438 0.47468 0.83154 0.0
C92 C 0.56193 0.47396 0.83844 0.0
O93 O 0.54621 0.54203 0.8102 0.0
O94 O 0.6505 0.57118 0.86011 0.0
O95 O 0.65743 0.60137 0.83727 0.0
O96 O 0.59609 0.53939 0.81624 0.0
C97 C 0.57489 0.54208 0.80498 0.0
O98 O 0.5314 0.57498 0.8384 0.0
O99 O 0.59239 0.60497 0.83731 0.0
O100 O 0.57887 0.56535 0.86863 0.0
O101 O 0.47439 0.48268 0.81703 0.0
O102 O 0.46473 0.50083 0.8421 0.0
O103 O 0.52703 0.51264 0.86395 0.0
C104 C 0.69918 0.58248 0.84242 0.0
C105 C 0.7123 0.5907 0.82553 0.0
C106 C 0.73398 0.5533 0.84638 0.0
C107 C 0.73607 0.58042 0.81918 0.0
C108 C 0.71031 0.56368 0.85277 0.0
C109 C 0.74721 0.56172 0.82955 0.0
C110 C 0.67288 0.59205 0.84895 0.0
C111 C 0.56186 0.60477 0.83713 0.0
H112 H 0.47773 0.55087 0.81437 0.0
H113 H 0.34609 0.47933 0.80855 0.0
H114 H 0.44471 0.57896 0.80485 0.0
H115 H 0.37985 0.4522 0.81936 0.0
H116 H 0.70424 0.60509 0.81718 0.0
H117 H 0.74279 0.53965 0.85483 0.0
H118 H 0.74595 0.58733 0.80618 0.0
H119 H 0.70081 0.55706 0.86584 0.0
P120 P 0.66418 1.0025 0.23413 0.0
H121 H 0.65546 0.96015 0.20193 0.0
H122 H 0.60395 0.92548 0.18189 0.0
H123 H 0.53631 0.93515 0.22024 0.0
H124 H 0.58805 0.97178 0.23947 0.0
H125 H 0.70786 1.03649 0.20469 0.0
H126 H 0.70993 0.08107 0.18563 0.0
H127 H 0.63625 0.0944 0.21818 0.0
H128 H 0.63374 0.04923 0.23705 0.0
H129 H 0.623 0.95092 0.25978 0.0
H130 H 0.69176 0.06458 0.25904 0.0
O131 O 0.69842 0.99537 0.23217 0.0
H132 H 0.60999 0.95774 0.29019 0.0
H133 H 0.67985 0.07165 0.28963 0.0
C134 C 0.62547 0.96759 0.22244 0.0
C135 C 0.62932 0.95381 0.2062 0.0
C136 C 0.59983 0.93408 0.19472 0.0
C137 C 0.56599 0.92789 0.19933 0.0
C138 C 0.56207 0.94008 0.21606 0.0
C139 C 0.59161 0.96034 0.22733 0.0
C140 C 0.67177 1.04062 0.22266 0.0
C141 C 0.69282 0.0496 0.20797 0.0
C142 C 0.69349 0.07457 0.19694 0.0
C143 C 0.67301 0.09086 0.20042 0.0
C144 C 0.65238 0.08229 0.2153 0.0
C145 C 0.65133 0.0569 0.22619 0.0
C146 C 0.65709 1.00737 0.25697 0.0
C147 C 0.6353 0.97737 0.26619 0.0
C148 C 0.62816 0.98131 0.28363 0.0
C149 C 0.64343 1.01534 0.29229 0.0
C150 C 0.66684 0.04517 0.28322 0.0
C151 C 0.67378 1.04116 0.26575 0.0
P152 P 0.76846 0.63254 0.58018 0.0
H153 H 0.81474 0.62633 0.55464 0.0
H154 H 0.80597 0.57682 0.53444 0.0
H155 H 0.70976 0.50654 0.56017 0.0
H156 H 0.71814 0.55593 0.57992 0.0
H157 H 0.7864 0.70065 0.56556 0.0
H158 H 0.75335 0.71772 0.546 0.0
H159 H 0.66563 0.60918 0.54281 0.0
H160 H 0.69802 0.59298 0.56303 0.0
H161 H 0.76209 0.58425 0.60732 0.0
H162 H 0.7289 0.66113 0.59885 0.0
O163 O 0.81051 0.66529 0.58362 0.0
H164 H 0.73115 0.5703 0.63492 0.0
H165 H 0.69852 0.6477 0.6265 0.0
C166 C 0.76755 0.59467 0.56905 0.0
C167 C 0.79241 0.59998 0.55628 0.0
C168 C 0.78734 0.57175 0.54471 0.0
C169 C 0.757 0.53798 0.54564 0.0
C170 C 0.73317 0.53241 0.55903 0.0
C171 C 0.73825 0.56056 0.57053 0.0
C172 C 0.74484 0.64548 0.56556 0.0
C173 C 0.76009 0.68059 0.56061 0.0
C174 C 0.74124 0.6902 0.54929 0.0
C175 C 0.70687 0.66475 0.54268 0.0
C176 C 0.69183 0.62956 0.54774 0.0
C177 C 0.71052 0.62015 0.55919 0.0
C178 C 0.74675 0.6228 0.60074 0.0
C179 C 0.7479 0.59788 0.6113 0.0
C180 C 0.73024 0.58993 0.62705 0.0
C181 C 0.71209 0.60762 0.6327 0.0
C182 C 0.71219 0.63359 0.62241 0.0
C183 C 0.7294 0.64112 0.60656 0.0
P184 P 0.16914 0.73742 0.90911 0.0
H185 H 0.21245 0.77304 0.8801 0.0
H186 H 0.25179 0.76039 0.8625 0.0
H187 H 0.24872 0.68887 0.90073 0.0
H188 H 0.20775 0.69995 0.9176 0.0
H189 H 0.11272 0.74511 0.89196 0.0
H190 H 1.0627 0.70511 0.87205 0.0
H191 H 0.09725 0.62734 0.87242 0.0
H192 H 0.14634 0.66696 0.89281 0.0
H193 H 0.21222 0.74882 0.94108 0.0
H194 H 0.10138 0.6884 0.92433 0.0
O195 O 0.17537 0.77863 0.91016 0.0
H196 H 0.19721 0.72381 0.9698 0.0
H197 H 0.08608 0.6644 0.95296 0.0
C198 C 0.20758 0.73791 0.9003 0.0
C199 C 0.22129 0.75561 0.88499 0.0
C200 C 0.24383 0.74833 0.87492 0.0
C201 C 0.25301 0.72319 0.88006 0.0
C202 C 0.24158 0.70783 0.89621 0.0
C203 C 0.2186 0.71468 0.90609 0.0
C204 C 0.13344 0.70918 0.89365 0.0
C205 C 0.10967 0.7196 0.88763 0.0
C206 C 0.08124 0.69676 0.87613 0.0
C207 C 0.07614 0.66309 0.8705 0.0
C208 C 0.10027 0.65294 0.87655 0.0
C209 C 0.12851 0.6757 0.88811 0.0
C210 C 0.15815 0.71964 0.93038 0.0
C211 C 0.1847 0.73011 0.94357 0.0
C212 C 0.17601 0.716 0.96001 0.0
C213 C 0.14043 0.6917 0.96365 0.0
C214 C 0.11383 0.68222 0.9505 0.0
C215 C 0.1226 0.69612 0.93407 0.0
P216 P 1.05979 0.52489 0.45631 0.0
H217 H 0.1028 0.55318 0.48924 0.0
H218 H 0.15376 0.61155 0.49835 0.0
H219 H 0.13523 0.65533 0.45261 0.0
H220 H 0.08449 0.59757 0.44382 0.0
H221 H 1.03965 0.46864 0.48105 0.0
H222 H 0.98284 0.4196 0.48925 0.0
H223 H 0.9277 0.46275 0.46116 0.0
H224 H 0.98483 0.51224 0.45317 0.0
H225 H 0.08797 0.50307 0.42644 0.0
H226 H 1.02111 0.54974 0.43383 0.0
O227 O 0.08448 0.50561 0.45881 0.0
H228 H 0.08407 0.50657 0.39499 0.0
H229 H 1.01638 0.55232 0.40212 0.0
C230 C 0.08905 0.57031 0.46584 0.0
C231 C 0.10893 0.57556 0.48144 0.0
C232 C 0.13865 0.60905 0.4865 0.0
C233 C 0.14941 0.63855 0.47613 0.0
C234 C 0.12805 0.63368 0.46109 0.0
C235 C 0.09852 0.60017 0.45601 0.0
C236 C 1.01727 0.49439 0.46606 0.0
C237 C 1.01554 0.46812 0.47676 0.0
C238 C 0.98269 0.43956 0.48135 0.0
C239 C 0.95018 0.4363 0.47556 0.0
C240 C 0.95193 0.46395 0.46584 0.0
C241 C 0.98496 0.49252 0.46116 0.0
C242 C 1.0542 0.52542 0.43274 0.0
C243 C 0.07198 0.51364 0.4214 0.0
C244 C 0.06995 0.51584 0.40331 0.0
C245 C 1.04991 0.52971 0.39602 0.0
C246 C 1.03164 0.54103 0.40731 0.0
C247 C 1.03402 0.53919 0.42549 0.0
P248 P 0.59223 0.05231 0.78983 0.0
H249 H 0.61285 0.09717 0.82284 0.0
H250 H 0.60499 0.14727 0.83237 0.0
H251 H 0.53095 0.12184 0.78855 0.0
H252 H 0.53747 0.07093 0.77984 0.0
H253 H 0.61653 1.00493 0.77697 0.0
H254 H 0.60706 0.94719 0.78438 0.0
H255 H 0.536 0.94279 0.82448 0.0
H256 H 0.54624 1.00191 0.81693 0.0
H257 H 0.61814 0.10722 0.76461 0.0
H258 H 0.54637 0.99379 0.76359 0.0
O259 O 0.63642 0.07664 0.79263 0.0
H260 H 0.60804 0.10611 0.733 0.0
H261 H 0.53703 0.99244 0.73189 0.0
C262 C 0.57588 0.07984 0.80055 0.0
C263 C 0.59388 0.10154 0.81565 0.0
C264 C 0.5899 0.13094 0.82088 0.0
C265 C 0.56797 0.13989 0.81108 0.0
C266 C 0.54805 0.11642 0.79665 0.0
C267 C 0.55177 0.08684 0.79158 0.0
C268 C 0.58179 1.00792 0.79615 0.0
C269 C 0.5986 0.99158 0.78729 0.0
C270 C 0.59294 0.95813 0.79152 0.0
C271 C 0.57028 0.93948 0.80493 0.0
C272 C 0.55367 0.95609 0.81408 0.0
C273 C 0.5593 0.98991 0.80971 0.0
C274 C 0.58362 0.05054 0.76647 0.0
C275 C 0.60035 0.08204 0.75758 0.0
C276 C 0.59443 0.08142 0.73953 0.0
C277 C 0.57194 0.04915 0.72994 0.0
C278 C 0.55486 1.01763 0.7389 0.0
C279 C 0.56027 1.01839 0.75704 0.0
P280 P 0.53901 0.52789 0.12398 0.0
H281 H 0.5698 0.52207 0.15717 0.0
H282 H 0.62922 0.53295 0.16553 0.0
H283 H 0.66928 0.58539 0.11768 0.0
H284 H 0.61015 0.57469 0.10951 0.0
H285 H 0.4727 0.48633 0.1423 0.0
H286 H 0.42419 0.49587 0.15029 0.0
H287 H 0.48329 0.60367 0.13419 0.0
H288 H 0.53312 0.59434 0.12689 0.0
H289 H 0.52381 0.47528 0.09481 0.0
H290 H 0.554 0.58624 0.10073 0.0
O291 O 0.52235 0.48475 0.12725 0.0
H292 H 0.52333 0.47776 0.06323 0.0
H293 H 0.55224 0.58856 0.06894 0.0
C294 C 0.58495 0.54772 0.13274 0.0
C295 C 0.59157 0.53699 0.14872 0.0
C296 C 0.62566 0.54271 0.15336 0.0
C297 C 0.6544 0.55961 0.1422 0.0
C298 C 0.64818 0.57242 0.12673 0.0
C299 C 0.61401 0.5664 0.12204 0.0
C300 C 0.50703 0.53936 0.13363 0.0
C301 C 0.47591 0.51237 0.14066 0.0
C302 C 0.44752 0.51773 0.14506 0.0
C303 C 0.44881 0.55028 0.14249 0.0
C304 C 0.48082 0.57808 0.13633 0.0
C305 C 0.50953 0.5727 0.132 0.0
C306 C 0.53814 0.53038 0.10036 0.0
C307 C 0.52983 0.50016 0.0894 0.0
C308 C 0.52937 0.50153 0.0712 0.0
C309 C 0.53731 0.53324 0.0634 0.0
C310 C 0.54607 0.56367 0.07442 0.0
C311 C 0.54658 0.56226 0.09269 0.0
H312 H 0.13284 0.51079 0.15968 0.0
H313 H 0.18843 0.51043 0.1556 0.0
H314 H 0.24809 0.62013 0.17524 0.0
H315 H 0.19238 0.62079 0.17922 0.0
H316 H 0.27974 0.61058 0.14741 0.0
H317 H 0.23756 0.54983 0.20002 0.0
H318 H 0.19427 0.50478 0.2188 0.0
H319 H 0.18858 0.42117 0.18417 0.0
H320 H 0.23149 0.46573 0.16505 0.0
H321 H 0.4455 0.6098 0.15517 0.0
H322 H 0.39256 0.61485 0.1607 0.0
H323 H 0.32531 0.5049 0.1428 0.0
H324 H 0.37771 0.49976 0.13704 0.0
H325 H 0.29894 0.51695 0.17117 0.0
H326 H 0.34011 0.57695 0.11834 0.0
H327 H 0.38222 0.62141 0.09897 0.0
H328 H 0.38854 0.70578 0.13317 0.0
H329 H 0.34735 0.66194 0.15305 0.0
C330 C 0.15769 0.53489 0.16326 0.0
C331 C 0.15767 0.56577 0.16992 0.0
C332 C 0.18971 0.53461 0.16096 0.0
C333 C 0.22296 0.56512 0.16528 0.0
C334 C 0.22308 0.5961 0.1718 0.0
C335 C 0.19099 0.59639 0.17416 0.0
C336 C 0.25733 0.56464 0.16282 0.0
C337 C 0.28411 0.59042 0.15288 0.0
C338 C 0.26323 0.53799 0.16953 0.0
C339 C 0.2375 0.51113 0.18102 0.0
C340 C 0.22688 0.52183 0.19634 0.0
C341 C 0.20244 0.49639 0.20706 0.0
C342 C 0.18862 0.46014 0.20266 0.0
C343 C 0.19928 0.44926 0.18755 0.0
C344 C 0.22368 0.4746 0.17678 0.0
C345 C 0.41951 0.58672 0.15222 0.0
C346 C 0.41645 0.55425 0.14574 0.0
C347 C 0.38903 0.58964 0.15544 0.0
C348 C 0.35442 0.5603 0.15217 0.0
C349 C 0.35137 0.528 0.14564 0.0
C350 C 0.3817 0.52507 0.14241 0.0
C351 C 0.32134 0.56274 0.15563 0.0
C352 C 0.29474 0.53727 0.16577 0.0
C353 C 0.31562 0.58964 0.14906 0.0
C354 C 0.341 0.61613 0.13732 0.0
C355 C 0.35088 0.60501 0.12187 0.0
C356 C 0.3746 0.63013 0.1108 0.0
C357 C 0.38827 0.66644 0.11491 0.0
C358 C 0.37821 0.6777 0.1301 0.0
C359 C 0.35471 0.65273 0.14128 0.0
H360 H 0.40652 0.68585 0.10629 0.0
H361 H 0.16971 0.44048 0.21098 0.0
H362 H 0.68305 0.1181 0.49634 0.0
H363 H 0.73772 0.17416 0.49217 0.0
H364 H 0.68211 0.23197 0.50197 0.0
H365 H 0.62709 0.17584 0.5058 0.0
H366 H 0.72448 0.2611 0.47652 0.0
H367 H 0.74314 0.23015 0.53296 0.0
H368 H 0.7461 0.19204 0.55501 0.0
H369 H 0.8275 0.18479 0.52682 0.0
H370 H 0.8247 0.22248 0.50446 0.0
H371 H 0.88568 0.43129 0.48388 0.0
H372 H 0.82922 0.37792 0.48951 0.0
H373 H 0.87781 0.31316 0.48049 0.0
H374 H 0.93426 0.36631 0.47518 0.0
H375 H 0.8379 0.28945 0.50691 0.0
H376 H 0.81487 0.31749 0.44915 0.0
H377 H 0.81165 0.35687 0.42788 0.0
H378 H 0.73925 0.37186 0.4601 0.0
H379 H 0.74233 0.33265 0.48159 0.0
C380 C 0.68233 0.14268 0.49771 0.0
C381 C 0.65033 0.14202 0.50163 0.0
C382 C 0.7139 0.17501 0.49539 0.0
C383 C 0.71478 0.20795 0.49703 0.0
C384 C 0.68269 0.20731 0.50069 0.0
C385 C 0.65107 0.17496 0.503 0.0
C386 C 0.74893 0.24278 0.49483 0.0
C387 C 0.74911 0.26732 0.48337 0.0
C388 C 0.78165 0.25149 0.50352 0.0
C389 C 0.78346 0.22886 0.51695 0.0
C390 C 0.76149 0.22021 0.53139 0.0
C391 C 0.76317 0.19872 0.54396 0.0
C392 C 0.78691 0.18593 0.5423 0.0
C393 C 0.80909 0.19468 0.52808 0.0
C394 C 0.80749 0.21613 0.51546 0.0
C395 C 0.88438 0.4057 0.48298 0.0
C396 C 0.91501 0.40356 0.47907 0.0
C397 C 0.8518 0.37493 0.48616 0.0
C398 C 0.84851 0.34084 0.48521 0.0
C399 C 0.87914 0.33878 0.4814 0.0
C400 C 0.91171 0.36948 0.47839 0.0
C401 C 0.81363 0.30738 0.48832 0.0
C402 C 0.81328 0.28315 0.50002 0.0
C403 C 0.78077 0.29906 0.47994 0.0
C404 C 0.77879 0.32227 0.46695 0.0
C405 C 0.79831 0.32924 0.45169 0.0
C406 C 0.79651 0.35149 0.4396 0.0
C407 C 0.77518 0.36679 0.44263 0.0
C408 C 0.7556 0.35985 0.45774 0.0
C409 C 0.75729 0.33758 0.46984 0.0
H410 H 0.77385 0.38404 0.43327 0.0
H411 H 0.78817 0.1693 0.55204 0.0
H412 H 0.61809 0.67403 0.84024 0.0
H413 H 0.61737 0.72934 0.8364 0.0
H414 H 0.50452 0.66869 0.82398 0.0
H415 H 0.50488 0.61369 0.82874 0.0
H416 H 0.6071 0.75892 0.81169 0.0
H417 H 0.46302 0.71254 0.82972 0.0
H418 H 0.41801 0.67114 0.84928 0.0
H419 H 0.50082 0.68449 0.88531 0.0
H420 H 0.54631 0.72566 0.86591 0.0
H421 H 0.56476 0.88566 0.78209 0.0
H422 H 0.56156 0.82972 0.78859 0.0
H423 H 0.5597 0.85367 0.84367 0.0
H424 H 0.56312 0.9102 0.83723 0.0
H425 H 0.51595 0.78373 0.83644 0.0
H426 H 0.63691 0.86543 0.82418 0.0
H427 H 0.68606 0.90901 0.80722 0.0
H428 H 0.65694 0.8304 0.76461 0.0
H429 H 0.60728 0.78647 0.78123 0.0
C430 C 0.593 0.67241 0.83687 0.0
C431 C 0.56152 0.63901 0.83496 0.0
C432 C 0.5926 0.70428 0.83458 0.0
C433 C 0.56078 0.70398 0.83014 0.0
C434 C 0.5294 0.67048 0.82795 0.0
C435 C 0.52969 0.63868 0.83053 0.0
C436 C 0.56076 0.73843 0.82735 0.0
C437 C 0.58705 0.76409 0.81716 0.0
C438 C 0.53513 0.74627 0.83453 0.0
C439 C 0.50799 0.72208 0.84637 0.0
C440 C 0.47157 0.70679 0.84187 0.0
C441 C 0.446 0.68331 0.85289 0.0
C442 C 0.45654 0.67534 0.86854 0.0
C443 C 0.49269 0.6907 0.87318 0.0
C444 C 0.51838 0.71399 0.86215 0.0
C445 C 0.56389 0.87937 0.79565 0.0
C446 C 0.56486 0.90329 0.80911 0.0
C447 C 0.56198 0.84704 0.79936 0.0
C448 C 0.56114 0.83728 0.81669 0.0
C449 C 0.5605 0.86028 0.83016 0.0
C450 C 0.56237 0.89277 0.82644 0.0
C451 C 0.56202 0.80381 0.82062 0.0
C452 C 0.53591 0.77841 0.83098 0.0
C453 C 0.58827 0.79649 0.8139 0.0
C454 C 0.61818 0.82277 0.80389 0.0
C455 C 0.64084 0.85752 0.81115 0.0
C456 C 0.66881 0.88227 0.8016 0.0
C457 C 0.67457 0.87251 0.78483 0.0
C458 C 0.65241 0.83794 0.77759 0.0
C459 C 0.62437 0.81309 0.78707 0.0
H460 H 0.69624 0.89171 0.77746 0.0
H461 H 0.43668 0.65721 0.87706 0.0
H462 H 0.98349 0.62443 0.16142 0.0
H463 H 0.92712 0.62361 0.15696 0.0
H464 H 0.86971 0.51482 0.1716 0.0
H465 H 0.92587 0.51524 0.17568 0.0
H466 H 0.83545 0.51965 0.14527 0.0
H467 H 0.88181 0.58979 0.19908 0.0
H468 H 0.92608 0.63868 0.219 0.0
H469 H 0.92539 0.71549 0.18594 0.0
H470 H 0.88143 0.66703 0.16568 0.0
H471 H 0.66741 0.5097 0.15643 0.0
H472 H 0.72441 0.51238 0.16175 0.0
H473 H 0.77949 0.61696 0.14183 0.0
H474 H 0.72248 0.61472 0.13673 0.0
H475 H 0.81485 0.6147 0.17077 0.0
H476 H 0.76598 0.54214 0.11742 0.0
H477 H 0.7212 0.49193 0.0983 0.0
H478 H 0.72591 0.41777 0.13182 0.0
H479 H 0.77018 0.46752 0.15136 0.0
C480 C 0.95893 0.60034 0.16381 0.0
C481 C 0.95965 0.56996 0.169 0.0
C482 C 0.92646 0.59993 0.16131 0.0
C483 C 0.89358 0.56928 0.16413 0.0
C484 C 0.89433 0.53892 0.16929 0.0
C485 C 0.92673 0.53925 0.17169 0.0
C486 C 0.85854 0.56851 0.16143 0.0
C487 C 0.83093 0.54025 0.15111 0.0
C488 C 0.85223 0.59558 0.16863 0.0
C489 C 0.87861 0.62478 0.18077 0.0
C490 C 0.8913 0.61711 0.19599 0.0
C491 C 0.9163 0.64474 0.20735 0.0
C492 C 0.92862 0.68017 0.20371 0.0
C493 C 0.91587 0.68803 0.18872 0.0
C494 C 0.89089 0.6605 0.1773 0.0
C495 C 0.69158 0.53354 0.15335 0.0
C496 C 0.68988 0.562 0.14611 0.0
C497 C 0.72436 0.53488 0.15625 0.0
C498 C 0.75669 0.56471 0.15204 0.0
C499 C 0.75519 0.5935 0.14517 0.0
C500 C 0.72235 0.59207 0.14214 0.0
C501 C 0.79184 0.56579 0.15469 0.0
C502 C 0.81943 0.59411 0.16498 0.0
C503 C 0.79801 0.53857 0.14762 0.0
C504 C 0.7711 0.50859 0.13597 0.0
C505 C 0.75718 0.51513 0.12083 0.0
C506 C 0.73191 0.48673 0.1099 0.0
C507 C 0.72059 0.45167 0.11388 0.0
C508 C 0.73457 0.44493 0.12879 0.0
C509 C 0.75975 0.47322 0.1398 0.0
H510 H 0.70108 0.42973 0.10539 0.0
H511 H 0.94797 0.70152 0.21253 0.0
H512 H 0.41911 0.96414 0.49343 0.0
H513 H 0.3632 0.90762 0.48965 0.0
H514 H 0.4163 0.85193 0.50634 0.0
H515 H 0.47266 0.9085 0.50983 0.0
H516 H 0.37293 0.81498 0.47969 0.0
H517 H 0.35799 0.86689 0.53305 0.0
H518 H 0.35706 0.91342 0.55244 0.0
H519 H 0.27539 0.91119 0.51932 0.0
H520 H 0.27616 0.86496 0.4996 0.0
H521 H 0.21367 0.64956 0.48982 0.0
H522 H 0.26951 0.70566 0.49547 0.0
H523 H 0.21981 0.76344 0.47721 0.0
H524 H 0.1635 0.70746 0.472 0.0
H525 H 0.26165 0.79883 0.50527 0.0
H526 H 0.27753 0.74713 0.45176 0.0
H527 H 0.2787 0.70045 0.4326 0.0
H528 H 0.35895 0.70199 0.46653 0.0
H529 H 0.35791 0.74837 0.48603 0.0
C530 C 0.41905 0.93998 0.4964 0.0
C531 C 0.45079 0.94134 0.50206 0.0
C532 C 0.38676 0.90743 0.4943 0.0
C533 C 0.38487 0.87502 0.49792 0.0
C534 C 0.41659 0.87626 0.50346 0.0
C535 C 0.44898 0.90885 0.50554 0.0
C536 C 0.35012 0.84002 0.49568 0.0
C537 C 0.3488 0.81142 0.48555 0.0
C538 C 0.31799 0.83498 0.50291 0.0
C539 C 0.31738 0.8627 0.51476 0.0
C540 C 0.34002 0.87651 0.52983 0.0
C541 C 0.33949 0.9028 0.54089 0.0
C542 C 0.31625 0.91531 0.53709 0.0
C543 C 0.29342 0.9015 0.52224 0.0
C544 C 0.29386 0.87523 0.51112 0.0
C545 C 0.21427 0.67414 0.4872 0.0
C546 C 0.18356 0.67347 0.48037 0.0
C547 C 0.24661 0.70642 0.49026 0.0
C548 C 0.24952 0.73924 0.48656 0.0
C549 C 0.21872 0.73876 0.48014 0.0
C550 C 0.18638 0.70647 0.47702 0.0
C551 C 0.28449 0.77387 0.48926 0.0
C552 C 0.28583 0.80239 0.49946 0.0
C553 C 0.31666 0.77879 0.48215 0.0
C554 C 0.31736 0.75094 0.47045 0.0
C555 C 0.29522 0.73731 0.45521 0.0
C556 C 0.29589 0.71094 0.44428 0.0
C557 C 0.31881 0.69819 0.44837 0.0
C558 C 0.34117 0.71185 0.46339 0.0
C559 C 0.34056 0.73819 0.47438 0.0
H560 H 0.3193 0.67778 0.43989 0.0
H561 H 0.31588 0.93567 0.54567 0.0
H562 H 0.6147 0.46085 0.85013 0.0
H563 H 0.61662 0.4054 0.84685 0.0
H564 H 0.51399 0.35378 0.81968 0.0
H565 H 0.51159 0.40881 0.8232 0.0
H566 H 0.51617 0.3095 0.84144 0.0
H567 H 0.59649 0.38384 0.79833 0.0
H568 H 0.64824 0.43878 0.78904 0.0
H569 H 0.7173 0.42306 0.82345 0.0
H570 H 0.66587 0.36817 0.83308 0.0
H571 H 0.51298 0.15432 0.80543 0.0
H572 H 0.51341 0.21031 0.8104 0.0
H573 H 0.62075 0.25997 0.83212 0.0
H574 H 0.62157 0.20477 0.82597 0.0
H575 H 0.61794 0.30629 0.81442 0.0
H576 H 0.54141 0.23347 0.85758 0.0
H577 H 0.49125 0.1805 0.86936 0.0
H578 H 0.41733 0.19496 0.838 0.0
H579 H 0.46709 0.24777 0.82586 0.0
C580 C 0.59242 0.43771 0.8435 0.0
C581 C 0.56299 0.43971 0.83694 0.0
C582 C 0.59367 0.40587 0.84151 0.0
C583 C 0.56569 0.37503 0.83275 0.0
C584 C 0.53606 0.37688 0.82646 0.0
C585 C 0.53477 0.40863 0.82847 0.0
C586 C 0.56699 0.3409 0.83011 0.0
C587 C 0.53827 0.30883 0.8353 0.0
C588 C 0.59625 0.33966 0.82268 0.0
C589 C 0.62729 0.37206 0.81652 0.0
C590 C 0.6227 0.39216 0.80395 0.0
C591 C 0.65197 0.42328 0.79863 0.0
C592 C 0.68602 0.43444 0.80568 0.0
C593 C 0.6909 0.41438 0.81801 0.0
C594 C 0.66171 0.38323 0.82338 0.0
C595 C 0.53698 0.17705 0.8111 0.0
C596 C 0.56721 0.17416 0.81526 0.0
C597 C 0.53697 0.20931 0.81423 0.0
C598 C 0.56688 0.23989 0.82202 0.0
C599 C 0.5971 0.23715 0.82619 0.0
C600 C 0.59731 0.20501 0.82286 0.0
C601 C 0.56681 0.27458 0.82556 0.0
C602 C 0.59579 0.30682 0.82056 0.0
C603 C 0.53801 0.27611 0.83344 0.0
C604 C 0.50801 0.24437 0.84069 0.0
C605 C 0.51447 0.2252 0.8531 0.0
C606 C 0.48611 0.19523 0.85986 0.0
C607 C 0.45113 0.18432 0.85439 0.0
C608 C 0.44444 0.20341 0.8422 0.0
C609 C 0.47271 0.23338 0.83539 0.0
H610 H 0.42921 0.16111 0.85964 0.0
H611 H 0.70864 0.4586 0.80158 0.0
H612 H 0.53806 0.81492 0.48852 0.0
H613 H 0.54357 0.76152 0.48892 0.0
H614 H 0.65508 0.82417 0.47849 0.0
H615 H 0.64994 0.87747 0.47821 0.0
H616 H 0.62365 0.75204 0.46514 0.0
H617 H 0.63237 0.82232 0.51921 0.0
H618 H 0.6077 0.84933 0.53967 0.0
H619 H 0.51667 0.74633 0.54601 0.0
H620 H 0.54059 0.71884 0.52532 0.0
H621 H 0.73171 0.71159 0.51664 0.0
H622 H 0.69914 0.73343 0.5 0.0
H623 H 0.60254 0.66197 0.52503 0.0
H624 H 0.63538 0.64162 0.54254 0.0
H625 H 0.61153 0.7247 0.52772 0.0
H626 H 0.61304 0.65271 0.47991 0.0
H627 H 0.63762 0.6262 0.45916 0.0
H628 H 0.70779 0.7293 0.44054 0.0
H629 H 0.68403 0.75656 0.46137 0.0
C630 C 0.5635 0.81708 0.48582 0.0
C631 C 0.59375 0.8505 0.48375 0.0
C632 C 0.56652 0.78653 0.4859 0.0
C633 C 0.59987 0.78913 0.48404 0.0
C634 C 0.6291 0.82164 0.47992 0.0
C635 C 0.62611 0.85216 0.47982 0.0
C636 C 0.60636 0.76099 0.49012 0.0
C637 C 0.62086 0.74571 0.47877 0.0
C638 C 0.60189 0.75226 0.50782 0.0
C639 C 0.58804 0.76862 0.52061 0.0
C640 C 0.60703 0.80549 0.52492 0.0
C641 C 0.59318 0.82088 0.53654 0.0
C642 C 0.5606 0.79957 0.5441 0.0
C643 C 0.54187 0.76281 0.54011 0.0
C644 C 0.55554 0.74731 0.52844 0.0
C645 C 0.70353 0.70047 0.51861 0.0
C646 C 0.68631 0.67513 0.53109 0.0
C647 C 0.68474 0.7125 0.50882 0.0
C648 C 0.64822 0.69903 0.51109 0.0
C649 C 0.63064 0.67261 0.52298 0.0
C650 C 0.64948 0.66085 0.53292 0.0
C651 C 0.62977 0.71596 0.50285 0.0
C652 C 0.61325 0.7296 0.5139 0.0
C653 C 0.63234 0.72291 0.48487 0.0
C654 C 0.64683 0.70671 0.47229 0.0
C655 C 0.63389 0.66979 0.47149 0.0
C656 C 0.64766 0.65462 0.45969 0.0
C657 C 0.67428 0.67606 0.44855 0.0
C658 C 0.68716 0.71272 0.44918 0.0
C659 C 0.6735 0.72804 0.46096 0.0
H660 H 0.6849 0.66426 0.43943 0.0
H661 H 0.5499 0.81153 0.55309 0.0
H662 H 0.74975 0.50019 0.83195 0.0
H663 H 0.80276 0.49415 0.82924 0.0
H664 H 0.86134 0.60094 0.81188 0.0
H665 H 0.80871 0.60692 0.81434 0.0
H666 H 0.8882 0.55928 0.79866 0.0
H667 H 0.85221 0.58793 0.8556 0.0
H668 H 0.80883 0.5726 0.87886 0.0
H669 H 0.80928 0.47501 0.88509 0.0
H670 H 0.85234 0.48963 0.86168 0.0
H671 H 1.04698 0.67838 0.84271 0.0
H672 H 0.98991 0.63934 0.82749 0.0
H673 H 0.97737 0.55163 0.85685 0.0
H674 H 1.0337 0.59108 0.8728 0.0
H675 H 0.92316 0.55961 0.86057 0.0
H676 H 0.98013 0.54804 0.81102 0.0
H677 H 1.0241 0.56595 0.788 0.0
H678 H 0.98621 0.63195 0.76758 0.0
H679 H 0.94236 0.61492 0.79062 0.0
C680 C 0.7737 0.52191 0.82705 0.0
C681 C 0.77544 0.55433 0.82375 0.0
C682 C 0.80382 0.51834 0.82538 0.0
C683 C 0.83615 0.54739 0.82072 0.0
C684 C 0.83669 0.57819 0.81549 0.0
C685 C 0.80656 0.58165 0.817 0.0
C686 C 0.87051 0.54949 0.82499 0.0
C687 C 0.89598 0.55898 0.81212 0.0
C688 C 0.88021 0.54799 0.84249 0.0
C689 C 0.85512 0.53966 0.85683 0.0
C690 C 0.84297 0.56319 0.86193 0.0
C691 C 0.81844 0.55462 0.87511 0.0
C692 C 0.80625 0.52282 0.88342 0.0
C693 C 0.81868 0.49959 0.87861 0.0
C694 C 0.84313 0.50799 0.86539 0.0
C695 C 1.03227 0.65069 0.84581 0.0
C696 C 1.04463 0.63803 0.85918 0.0
C697 C 0.99989 0.62816 0.83685 0.0
C698 C 0.9794 0.59236 0.84089 0.0
C699 C 0.99281 0.57907 0.85344 0.0
C700 C 1.02511 0.60169 0.86251 0.0
C701 C 0.94176 0.57125 0.83438 0.0
C702 C 0.91552 0.55832 0.8469 0.0
C703 C 0.93161 0.56976 0.81658 0.0
C704 C 0.95791 0.58017 0.80261 0.0
C705 C 0.98129 0.56654 0.80169 0.0
C706 C 1.00619 0.57653 0.78862 0.0
C707 C 1.00795 0.60007 0.77634 0.0
C708 C 0.98478 0.61366 0.77709 0.0
C709 C 0.95982 0.60377 0.79013 0.0
H710 H 1.02726 0.60778 0.76623 0.0
H711 H 0.78723 0.5162 0.89361 0.0
H712 H 0.26742 0.81505 0.16629 0.0
H713 H 0.33022 0.84755 0.15988 0.0
H714 H 0.31679 0.7591 0.126 0.0
H715 H 0.25334 0.72665 0.13187 0.0
H716 H 0.36379 0.77472 0.15327 0.0
H717 H 0.34957 0.83787 0.10875 0.0
H718 H 0.32678 0.87197 0.09383 0.0
H719 H 0.37778 0.95726 0.13347 0.0
H720 H 0.40044 0.9235 0.14881 0.0
H721 H 0.54853 0.87288 0.17456 0.0
H722 H 0.49617 0.84404 0.15453 0.0
H723 H 0.4612 0.91499 0.17564 0.0
H724 H 0.51448 0.94557 0.1945 0.0
H725 H 0.4435 0.90206 0.14267 0.0
H726 H 0.43178 0.82614 0.19164 0.0
H727 H 0.45057 0.79085 0.20857 0.0
H728 H 0.44572 0.73015 0.1616 0.0
H729 H 0.42758 0.76568 0.14442 0.0
C730 C 0.27736 0.80299 0.1569 0.0
C731 C 0.25546 0.76796 0.14986 0.0
C732 C 0.31337 0.82169 0.15322 0.0
C733 C 0.32816 0.80569 0.14248 0.0
C734 C 0.30586 0.77187 0.13432 0.0
C735 C 0.26971 0.75327 0.13785 0.0
C736 C 0.36727 0.82148 0.14274 0.0
C737 C 0.38142 0.80225 0.15039 0.0
C738 C 0.39014 0.8574 0.13912 0.0
C739 C 0.3767 0.87805 0.12996 0.0
C740 C 0.35577 0.8638 0.11436 0.0
C741 C 0.34289 0.8831 0.10581 0.0
C742 C 0.35083 0.91676 0.1127 0.0
C743 C 0.3717 0.93121 0.12814 0.0
C744 C 0.38464 0.91202 0.13675 0.0
C745 C 0.53005 0.88279 0.17467 0.0
C746 C 0.53528 0.91096 0.1865 0.0
C747 C 0.49999 0.8661 0.16329 0.0
C748 C 0.47431 0.87681 0.16383 0.0
C749 C 0.48049 0.90607 0.17499 0.0
C750 C 0.51071 0.92311 0.18607 0.0
C751 C 0.43929 0.85595 0.15431 0.0
C752 C 0.42604 0.87415 0.14487 0.0
C753 C 0.41694 0.81917 0.1565 0.0
C754 C 0.42844 0.79844 0.16679 0.0
C755 C 0.4349 0.80535 0.18496 0.0
C756 C 0.44547 0.78538 0.19458 0.0
C757 C 0.44936 0.75829 0.18617 0.0
C758 C 0.44273 0.75114 0.1681 0.0
C759 C 0.43229 0.77114 0.15843 0.0
H760 H 0.45749 0.74283 0.19364 0.0
H761 H 0.34082 0.93165 0.10606 0.0
H762 H 0.55426 0.26418 0.47746 0.0
H763 H 0.60307 0.32557 0.47834 0.0
H764 H 0.67866 0.2886 0.47476 0.0
H765 H 0.63007 0.22723 0.47463 0.0
H766 H 0.69468 0.33187 0.5019 0.0
H767 H 0.6741 0.34072 0.44283 0.0
H768 H 0.64053 0.33287 0.41524 0.0
H769 H 0.60011 0.39782 0.43737 0.0
H770 H 0.63299 0.40567 0.46519 0.0
H771 H 0.80089 0.51536 0.53149 0.0
H772 H 0.78379 0.4648 0.51011 0.0
H773 H 0.67631 0.44616 0.50765 0.0
H774 H 0.69333 0.49664 0.52845 0.0
H775 H 0.69688 0.43498 0.47548 0.0
H776 H 0.7047 0.40427 0.53696 0.0
H777 H 0.73944 0.41038 0.56395 0.0
H778 H 0.80881 0.38603 0.5342 0.0
H779 H 0.77469 0.38022 0.50705 0.0
C780 C 0.58124 0.26915 0.47652 0.0
C781 C 0.58829 0.24089 0.47614 0.0
C782 C 0.60916 0.30427 0.47677 0.0
C783 C 0.64464 0.31179 0.47651 0.0
C784 C 0.65157 0.28351 0.4749 0.0
C785 C 0.62366 0.24836 0.47471 0.0
C786 C 0.67387 0.34865 0.48095 0.0
C787 C 0.69599 0.35444 0.4957 0.0
C788 C 0.67592 0.37819 0.47286 0.0
C789 C 0.65604 0.37374 0.45615 0.0
C790 C 0.6579 0.35318 0.44187 0.0
C791 C 0.639 0.34875 0.42617 0.0
C792 C 0.6182 0.36483 0.42456 0.0
C793 C 0.61629 0.38542 0.43863 0.0
C794 C 0.63513 0.38994 0.45436 0.0
C795 C 0.7738 0.50071 0.52613 0.0
C796 C 0.74821 0.50934 0.5319 0.0
C797 C 0.76409 0.47193 0.51395 0.0
C798 C 0.72871 0.45158 0.50741 0.0
C799 C 0.70377 0.4615 0.51249 0.0
C800 C 0.71339 0.49003 0.52459 0.0
C801 C 0.71579 0.41761 0.49688 0.0
C802 C 0.69666 0.41237 0.48106 0.0
C803 C 0.71703 0.38856 0.50371 0.0
C804 C 0.73746 0.39223 0.52002 0.0
C805 C 0.7275 0.40045 0.5362 0.0
C806 C 0.74706 0.40384 0.55151 0.0
C807 C 0.77639 0.39871 0.55079 0.0
C808 C 0.78616 0.39009 0.53475 0.0
C809 C 0.76674 0.38676 0.5194 0.0
H810 H 0.79148 0.40132 0.56266 0.0
H811 H 0.60358 0.36135 0.41239 0.0
H812 H 0.33107 0.51934 0.82134 0.0
H813 H 0.30588 0.55809 0.82268 0.0
H814 H 0.38431 0.62801 0.7878 0.0
H815 H 0.40893 0.58812 0.78558 0.0
H816 H 0.38594 0.66097 0.81983 0.0
H817 H 0.30019 0.59414 0.77499 0.0
H818 H 0.25508 0.54063 0.7578 0.0
H819 H 0.1873 0.50948 0.80164 0.0
H820 H 0.23217 0.56248 0.81921 0.0
H821 H 0.30645 0.76033 0.85734 0.0
H822 H 0.33005 0.73546 0.83531 0.0
H823 H 0.26168 0.6303 0.85296 0.0
H824 H 0.23695 0.65437 0.87415 0.0
H825 H 0.25897 0.62857 0.81848 0.0
H826 H 0.35261 0.68284 0.86493 0.0
H827 H 0.40007 0.73217 0.88345 0.0
H828 H 0.4537 0.78348 0.83763 0.0
H829 H 0.40633 0.73457 0.81884 0.0
C830 C 0.34213 0.54194 0.81325 0.0
C831 C 0.37244 0.5507 0.80352 0.0
C832 C 0.32767 0.56426 0.8141 0.0
C833 C 0.34326 0.59593 0.80535 0.0
C834 C 0.37194 0.60366 0.79465 0.0
C835 C 0.38613 0.58096 0.79355 0.0
C836 C 0.33297 0.62295 0.80992 0.0
C837 C 0.35835 0.65453 0.81908 0.0
C838 C 0.297 0.61436 0.80894 0.0
C839 C 0.26965 0.58241 0.79843 0.0
C840 C 0.27575 0.57581 0.78101 0.0
C841 C 0.2502 0.54555 0.77119 0.0
C842 C 0.21834 0.52168 0.77862 0.0
C843 C 0.21196 0.52804 0.79589 0.0
C844 C 0.23743 0.55825 0.80577 0.0
C845 C 0.29645 0.73191 0.85646 0.0
C846 C 0.27007 0.70943 0.86766 0.0
C847 C 0.31005 0.71778 0.84393 0.0
C848 C 0.2976 0.68102 0.84249 0.0
C849 C 0.27156 0.65873 0.85375 0.0
C850 C 0.25786 0.67268 0.86611 0.0
C851 C 0.31148 0.66493 0.82958 0.0
C852 C 0.28677 0.63568 0.81871 0.0
C853 C 0.34801 0.67538 0.82919 0.0
C854 C 0.37558 0.70545 0.84049 0.0
C855 C 0.37423 0.70493 0.85881 0.0
C856 C 0.4012 0.73273 0.86936 0.0
C857 C 0.42978 0.76105 0.86173 0.0
C858 C 0.43144 0.76164 0.84353 0.0
C859 C 0.40454 0.73391 0.83293 0.0
H860 H 0.45072 0.78245 0.86991 0.0
H861 H 0.1986 0.49826 0.771 0.0
H862 H 0.85773 0.34271 0.1134 0.0
H863 H 0.79802 0.29018 0.11233 0.0
H864 H 0.77814 0.32536 0.16248 0.0
H865 H 0.83671 0.37803 0.16319 0.0
H866 H 0.7867 0.24414 0.13376 0.0
H867 H 0.69577 0.28398 0.17407 0.0
H868 H 0.67786 0.32961 0.17389 0.0
H869 H 0.70393 0.34566 0.11994 0.0
H870 H 0.72142 0.29964 0.11965 0.0
H871 H 0.6853 0.15759 0.20935 0.0
H872 H 0.69957 0.20513 0.18957 0.0
H873 H 0.67646 0.13088 0.14516 0.0
H874 H 0.66305 0.08344 0.16495 0.0
H875 H 0.67472 0.22362 0.16033 0.0
H876 H 0.74617 0.16846 0.11932 0.0
H877 H 0.76659 0.12467 0.1206 0.0
H878 H 0.7833 0.14475 0.17631 0.0
H879 H 0.76352 0.189 0.17529 0.0
C880 C 0.83993 0.33977 0.12382 0.0
C881 C 0.85188 0.36409 0.13848 0.0
C882 C 0.80581 0.30987 0.12318 0.0
C883 C 0.78345 0.30358 0.13734 0.0
C884 C 0.7943 0.32972 0.15118 0.0
C885 C 0.82808 0.35986 0.15167 0.0
C886 C 0.75365 0.26713 0.13985 0.0
C887 C 0.76158 0.23946 0.13887 0.0
C888 C 0.72101 0.26084 0.14683 0.0
C889 C 0.70996 0.28824 0.14685 0.0
C890 C 0.69737 0.29693 0.1621 0.0
C891 C 0.68737 0.32296 0.16209 0.0
C892 C 0.68975 0.34051 0.14692 0.0
C893 C 0.70214 0.33206 0.1317 0.0
C894 C 0.71215 0.30602 0.13162 0.0
C895 C 0.68227 0.15124 0.19536 0.0
C896 C 0.67399 0.11723 0.18862 0.0
C897 C 0.69013 0.17831 0.18407 0.0
C898 C 0.68962 0.17161 0.16592 0.0
C899 C 0.6774 0.13665 0.15913 0.0
C900 C 0.67006 0.10971 0.17042 0.0
C901 C 0.70896 0.20205 0.15482 0.0
C902 C 0.69909 0.22827 0.15433 0.0
C903 C 0.74005 0.20735 0.14651 0.0
C904 C 0.75295 0.1816 0.14723 0.0
C905 C 0.75435 0.16357 0.13181 0.0
C906 C 0.7658 0.1387 0.13249 0.0
C907 C 0.77611 0.13184 0.14853 0.0
C908 C 0.77523 0.15002 0.16391 0.0
C909 C 0.76394 0.17501 0.16328 0.0
H910 H 0.78485 0.11249 0.14904 0.0
H911 H 0.68197 0.36063 0.14695 0.0
H912 H 0.11815 0.6359 0.12412 0.0
H913 H 0.12492 0.64966 0.09351 0.0
H914 H 1.02994 0.54972 0.07931 0.0
H915 H 1.02268 0.53555 0.11024 0.0
H916 H 0.09036 0.56757 0.05736 0.0
H917 H 1.02108 0.61782 0.07919 0.0
H918 H 1.00607 0.65261 0.10025 0.0
H919 H 0.10499 0.747 0.09143 0.0
H920 H 0.12086 0.71265 0.07051 0.0
H921 H 0.09076 0.62363 0.97107 0.0
H922 H 0.07313 0.59983 0.9998 0.0
H923 H 0.15165 0.70109 0.02446 0.0
H924 H 0.16813 0.72565 0.99582 0.0
H925 H 0.09135 0.67693 0.04032 0.0
H926 H 0.1635 0.6271 0.02092 0.0
H927 H 0.18124 0.593 0.0009 0.0
H928 H 0.07976 0.49889 0.00576 0.0
H929 H 1.06124 0.53257 0.02565 0.0
C930 C 0.09865 0.61666 0.11455 0.0
C931 C 0.06975 0.58464 0.11963 0.0
C932 C 0.10257 0.62466 0.09705 0.0
C933 C 0.07777 0.60085 0.08422 0.0
C934 C 1.04928 0.56844 0.08909 0.0
C935 C 1.04512 0.56048 0.10672 0.0
C936 C 0.08184 0.61063 0.06581 0.0
C937 C 0.08986 0.59103 0.05347 0.0
C938 C 0.08192 0.64169 0.06096 0.0
C939 C 0.07225 0.66258 0.07335 0.0
C940 C 1.03974 0.64594 0.08182 0.0
C941 C 1.03106 0.66559 0.09372 0.0
C942 C 1.05458 0.70198 0.09719 0.0
C943 C 0.0868 0.71881 0.08873 0.0
C944 C 0.09563 0.69927 0.07683 0.0
C945 C 0.10409 0.64097 0.9826 0.0
C946 C 0.13086 0.67663 0.98111 0.0
C947 C 0.09424 0.62716 0.99903 0.0
C948 C 0.11129 0.64855 0.0143 0.0
C949 C 0.13814 0.68406 0.01285 0.0
C950 C 0.14781 0.69797 0.99645 0.0
C951 C 0.10076 0.63437 0.03184 0.0
C952 C 0.09144 0.65318 0.04406 0.0
C953 C 0.09974 0.60271 0.03658 0.0
C954 C 0.11083 0.58246 0.02461 0.0
C955 C 0.14486 0.59921 0.0176 0.0
C956 C 0.15508 0.57995 0.0063 0.0
C957 C 0.1316 0.54383 0.00201 0.0
C958 C 0.09789 0.52689 0.00906 0.0
C959 C 0.08752 0.54604 0.02036 0.0
H960 H 0.13957 0.52896 0.99327 0.0
H961 H 1.04782 0.71715 0.10642 0.0
H962 H 0.56114 0.08435 0.44663 0.0
H963 H 0.57592 0.0836 0.41587 0.0
H964 H 0.57088 0.98263 0.42079 0.0
H965 H 0.55619 0.98308 0.45137 0.0
H966 H 0.63237 1.0319 0.40603 0.0
H967 H 0.50562 0.98605 0.39918 0.0
H968 H 0.45023 0.98793 0.40313 0.0
H969 H 0.49363 0.08482 0.37636 0.0
H970 H 0.5495 0.08377 0.37247 0.0
H971 H 0.63485 0.97305 0.31937 0.0
H972 H 0.61855 0.97935 0.34916 0.0
H973 H 0.61683 0.0744 0.33675 0.0
H974 H 0.63148 0.06732 0.30663 0.0
H975 H 0.56128 1.03384 0.35537 0.0
H976 H 0.68642 0.07938 0.36081 0.0
H977 H 0.7429 0.0796 0.35704 0.0
H978 H 0.70476 0.98691 0.38681 0.0
H979 H 0.64783 0.98582 0.39055 0.0
C980 C 0.5628 0.06182 0.4411 0.0
C981 C 0.55756 1.03382 0.45146 0.0
C982 C 0.57121 0.06142 0.42353 0.0
C983 C 0.57449 1.03305 0.41609 0.0
C984 C 0.56859 1.00482 0.42632 0.0
C985 C 0.56005 1.00509 0.44379 0.0
C986 C 0.58539 1.03313 0.39784 0.0
C987 C 0.61666 1.03195 0.39493 0.0
C988 C 0.56551 1.03449 0.38345 0.0
C989 C 0.53188 1.03504 0.3857 0.0
C990 C 0.50347 1.00792 0.39427 0.0
C991 C 0.47196 1.0088 0.39647 0.0
C992 C 0.46845 1.03653 0.39005 0.0
C993 C 0.49641 0.06339 0.38136 0.0
C994 C 0.52799 0.06264 0.37914 0.0
C995 C 0.63071 0.99513 0.32291 0.0
C996 C 0.63459 1.01973 0.3106 0.0
C997 C 0.62176 0.99892 0.34001 0.0
C998 C 0.61698 1.02766 0.34526 0.0
C999 C 0.62057 0.05213 0.333 0.0
C1000 C 0.62932 0.04824 0.31585 0.0
C1001 C 0.60795 1.03185 0.36352 0.0
C1002 C 0.57715 1.03399 0.36645 0.0
C1003 C 0.62845 1.03173 0.37798 0.0
C1004 C 0.66273 1.03235 0.37583 0.0
C1005 C 0.68997 0.05889 0.36644 0.0
C1006 C 0.72209 0.05919 0.36433 0.0
C1007 C 0.72739 1.03324 0.37165 0.0
C1008 C 0.70061 1.00698 0.38113 0.0
C1009 C 0.66842 1.00653 0.38327 0.0
H1010 H 0.75227 1.03352 0.36999 0.0
H1011 H 0.44404 1.03717 0.39176 0.0
H1012 H 0.63935 0.55982 0.79212 0.0
H1013 H 0.65714 0.56889 0.76199 0.0
H1014 H 0.55096 0.54305 0.74559 0.0
H1015 H 0.53318 0.53513 0.7761 0.0
H1016 H 0.63865 0.52737 0.73449 0.0
H1017 H 0.55534 0.58704 0.70886 0.0
H1018 H 0.52783 0.62157 0.72008 0.0
H1019 H 0.60606 0.66726 0.7625 0.0
H1020 H 0.63427 0.63337 0.75141 0.0
H1021 H 0.66536 0.54212 0.64385 0.0
H1022 H 0.63567 0.52833 0.67175 0.0
H1023 H 0.68773 0.64056 0.68714 0.0
H1024 H 0.71648 0.6544 0.65902 0.0
H1025 H 0.62302 0.61016 0.69785 0.0
H1026 H 0.71911 0.58532 0.70105 0.0
H1027 H 0.75412 0.55733 0.69164 0.0
H1028 H 0.6637 0.45369 0.69746 0.0
H1029 H 0.62801 0.48109 0.70668 0.0
C1030 C 0.61966 0.55599 0.78214 0.0
C1031 C 0.5848 0.54673 0.7865 0.0
C1032 C 0.6299 0.56113 0.76487 0.0
C1033 C 0.6055 0.55682 0.75148 0.0
C1034 C 0.57044 0.54707 0.75572 0.0
C1035 C 0.56026 0.54241 0.77314 0.0
C1036 C 0.61733 0.5627 0.7332 0.0
C1037 C 0.63501 0.54532 0.72646 0.0
C1038 C 0.61306 0.58647 0.72275 0.0
C1039 C 0.59662 0.60734 0.72941 0.0
C1040 C 0.56671 0.60454 0.72055 0.0
C1041 C 0.55099 0.62399 0.72689 0.0
C1042 C 0.5651 0.64649 0.74203 0.0
C1043 C 0.59506 0.64972 0.75082 0.0
C1044 C 0.6109 0.63037 0.74452 0.0
C1045 C 0.67036 0.56378 0.65321 0.0
C1046 C 0.69341 0.59929 0.64938 0.0
C1047 C 0.6534 0.55591 0.66913 0.0
C1048 C 0.65987 0.58338 0.68168 0.0
C1049 C 0.68224 0.61891 0.67767 0.0
C1050 C 0.69875 0.6268 0.66164 0.0
C1051 C 0.64474 0.57517 0.69929 0.0
C1052 C 0.6263 0.59193 0.70584 0.0
C1053 C 0.64938 0.55177 0.70985 0.0
C1054 C 0.67079 0.53523 0.70436 0.0
C1055 C 0.70663 0.55656 0.7002 0.0
C1056 C 0.7266 0.5408 0.69492 0.0
C1057 C 0.71111 0.50375 0.69391 0.0
C1058 C 0.67564 0.48238 0.69822 0.0
C1059 C 0.65553 0.49801 0.70348 0.0
H1060 H 0.72662 0.4916 0.68982 0.0
H1061 H 0.55288 0.66149 0.74693 0.0
H1062 H 0.52106 0.07543 0.56391 0.0
H1063 H 0.52183 0.0763 0.59607 0.0
H1064 H 0.58074 1.02049 0.59505 0.0
H1065 H 0.58097 1.02036 0.56313 0.0
H1066 H 0.51754 0.99236 0.6174 0.0
H1067 H 0.62625 0.10066 0.60528 0.0
H1068 H 0.6603 0.15855 0.59213 0.0
H1069 H 0.6003 0.19777 0.62005 0.0
H1070 H 0.56551 0.13986 0.63317 0.0
H1071 H 0.57712 1.00507 0.70497 0.0
H1072 H 0.57097 1.00515 0.67321 0.0
H1073 H 0.54813 0.09102 0.67953 0.0
H1074 H 0.55589 0.09197 0.71132 0.0
H1075 H 0.58886 0.10438 0.6541 0.0
H1076 H 0.48204 1.00001 0.66766 0.0
H1077 H 0.44467 0.94242 0.68056 0.0
H1078 H 0.49488 0.89562 0.64995 0.0
H1079 H 0.53291 0.95308 0.63703 0.0
C1080 C 0.53416 0.06337 0.57056 0.0
C1081 C 0.55109 0.04799 0.56097 0.0
C1082 C 0.53461 0.06392 0.58891 0.0
C1083 C 0.55135 0.04845 0.59793 0.0
C1084 C 0.56766 1.03254 0.58836 0.0
C1085 C 0.5679 1.03267 0.57011 0.0
C1086 C 0.55234 0.04901 0.61736 0.0
C1087 C 0.5333 1.01676 0.62547 0.0
C1088 C 0.57202 0.08099 0.62786 0.0
C1089 C 0.59298 0.1158 0.62002 0.0
C1090 C 0.62007 0.1215 0.60847 0.0
C1091 C 0.63956 0.15434 0.60106 0.0
C1092 C 0.63238 0.18178 0.6052 0.0
C1093 C 0.60577 0.17647 0.61682 0.0
C1094 C 0.58617 0.14365 0.62425 0.0
C1095 C 0.57052 1.02377 0.69956 0.0
C1096 C 0.56681 0.04838 0.71064 0.0
C1097 C 0.56683 1.02373 0.68137 0.0
C1098 C 0.55834 0.04763 0.67381 0.0
C1099 C 0.55463 0.07225 0.68492 0.0
C1100 C 0.55901 0.07275 0.70311 0.0
C1101 C 0.55421 0.04749 0.65437 0.0
C1102 C 0.57271 0.07986 0.64618 0.0
C1103 C 0.53344 1.01561 0.6438 0.0
C1104 C 0.51054 0.98095 0.65149 0.0
C1105 C 0.48528 0.9775 0.66376 0.0
C1106 C 0.46396 0.94487 0.67107 0.0
C1107 C 0.46746 0.9154 0.66611 0.0
C1108 C 0.49223 0.91848 0.65379 0.0
C1109 C 0.51365 0.95107 0.64646 0.0
H1110 H 0.45092 0.89016 0.67178 0.0
H1111 H 0.64751 0.2072 0.59946 0.0
H1112 H 0.59028 0.59149 0.89967 0.0
H1113 H 0.58571 0.58986 0.9313 0.0
H1114 H 0.49658 0.48274 0.92538 0.0
H1115 H 0.50057 0.48437 0.89345 0.0
H1116 H 0.48524 0.52132 0.9505 0.0
H1117 H 0.58049 0.49917 0.93721 0.0
H1118 H 0.63671 0.51095 0.92406 0.0
H1119 H 0.69276 0.61117 0.9539 0.0
H1120 H 0.63676 0.60023 0.96705 0.0
H1121 H 0.49054 0.48167 0.03919 0.0
H1122 H 0.49128 0.4823 0.00736 0.0
H1123 H 0.58259 0.58828 0.01133 0.0
H1124 H 0.583 0.58724 0.04323 0.0
H1125 H 0.59205 0.54885 0.98706 0.0
H1126 H 0.49711 0.57163 1.00014 0.0
H1127 H 0.441 0.56038 0.01323 0.0
H1128 H 0.38458 0.45957 0.9839 0.0
H1129 H 0.44046 0.47001 0.9708 0.0
C1130 C 0.56956 0.56752 0.90501 0.0
C1131 C 0.54594 0.53792 0.89394 0.0
C1132 C 0.5671 0.56661 0.92318 0.0
C1133 C 0.54125 0.53594 0.93082 0.0
C1134 C 0.51689 0.50666 0.91983 0.0
C1135 C 0.51923 0.50761 0.90156 0.0
C1136 C 0.5401 0.53452 0.95027 0.0
C1137 C 0.50845 0.52682 0.95847 0.0
C1138 C 0.57059 0.54249 0.96078 0.0
C1139 C 0.60436 0.54901 0.953 0.0
C1140 C 0.60476 0.52383 0.94088 0.0
C1141 C 0.63659 0.53034 0.93344 0.0
C1142 C 0.66827 0.56182 0.93811 0.0
C1143 C 0.66819 0.58681 0.95028 0.0
C1144 C 0.63642 0.58046 0.95774 0.0
C1145 C 0.51099 0.50507 0.03334 0.0
C1146 C 0.53677 0.53439 0.0439 0.0
C1147 C 0.51111 0.50555 0.01507 0.0
C1148 C 0.53672 0.53551 0.00684 0.0
C1149 C 0.56244 0.56487 0.01732 0.0
C1150 C 0.56243 0.56437 0.03561 0.0
C1151 C 0.53725 0.53588 0.98734 0.0
C1152 C 0.56881 0.54333 0.97911 0.0
C1153 C 0.5067 0.52772 0.97683 0.0
C1154 C 0.47303 0.52146 0.98462 0.0
C1155 C 0.47278 0.54694 0.99658 0.0
C1156 C 0.44101 0.54074 0.00398 0.0
C1157 C 0.40926 0.50924 0.99943 0.0
C1158 C 0.4092 0.48394 0.98743 0.0
C1159 C 0.44091 0.49 0.98 0.0
H1160 H 0.38469 0.50448 0.00518 0.0
H1161 H 0.69288 0.56682 0.93233 0.0
H1162 H 1.0353 0.49928 0.22564 0.0
H1163 H 1.03127 0.49226 0.25719 0.0
H1164 H 0.06759 0.60426 0.26632 0.0
H1165 H 0.07043 0.61115 0.23485 0.0
H1166 H 0.07618 0.516 0.2832 0.0
H1167 H 1.03478 0.62094 0.30275 0.0
H1168 H 1.00038 0.64637 0.29017 0.0
H1169 H 0.94033 0.55152 0.25675 0.0
H1170 H 0.97401 0.52534 0.26929 0.0
H1171 H 0.10574 0.55566 0.3742 0.0
H1172 H 0.10424 0.55947 0.34251 0.0
H1173 H 0.99024 0.51422 0.34238 0.0
H1174 H 0.99184 0.51134 0.37425 0.0
H1175 H 1.01523 0.56378 0.3207 0.0
H1176 H 1.03122 0.46454 0.3291 0.0
H1177 H 1.05896 0.43213 0.34123 0.0
H1178 H 0.15739 0.50264 0.3179 0.0
H1179 H 0.13038 0.53579 0.30582 0.0
C1180 C 1.04232 0.5224 0.23437 0.0
C1181 C 1.05295 0.55573 0.22766 0.0
C1182 C 1.04007 0.51837 0.25244 0.0
C1183 C 1.04858 0.54758 0.26426 0.0
C1184 C 1.05996 0.58104 0.25757 0.0
C1185 C 1.06177 0.585 0.23951 0.0
C1186 C 1.04605 0.5432 0.28355 0.0
C1187 C 1.0628 0.52645 0.29136 0.0
C1188 C 1.02793 0.55602 0.2943 0.0
C1189 C 1.00718 0.57134 0.28685 0.0
C1190 C 1.01413 0.60546 0.29277 0.0
C1191 C 0.99477 0.62001 0.28564 0.0
C1192 C 0.96827 0.60062 0.27263 0.0
C1193 C 0.96095 0.56657 0.26678 0.0
C1194 C 0.98019 0.55187 0.27388 0.0
C1195 C 0.08033 0.54642 0.36741 0.0
C1196 C 1.04886 0.5329 0.37674 0.0
C1197 C 0.07946 0.54851 0.34925 0.0
C1198 C 1.04703 0.53645 0.33988 0.0
C1199 C 1.01563 0.52363 0.34923 0.0
C1200 C 1.01655 0.52198 0.36746 0.0
C1201 C 1.04595 0.53721 0.32038 0.0
C1202 C 1.02855 0.55329 0.31253 0.0
C1203 C 1.06254 0.52281 0.30952 0.0
C1204 C 0.07885 0.50283 0.31668 0.0
C1205 C 1.05885 0.47328 0.32665 0.0
C1206 C 0.07443 0.45476 0.33351 0.0
C1207 C 0.10993 0.46537 0.33037 0.0
C1208 C 0.1299 0.49448 0.32033 0.0
C1209 C 0.11446 0.51312 0.31346 0.0
H1210 H 0.12195 0.451 0.33569 0.0
H1211 H 0.95335 0.61195 0.26711 0.0
loop_
_geom_bond_atom_site_label_1
_geom_bond_atom_site_label_2
_geom_bond_distance
_geom_bond_site_symmetry_2
_ccdc_geom_bond_type
Eu0 C9 2.828 . S
Eu0 O11 2.392 1_655 S
Eu0 O13 2.418 . S
Eu0 O18 2.373 . S
Eu0 O21 2.488 . S
Eu0 O22 2.471 . S
Eu0 O23 2.349 . S
Eu1 O10 2.373 . S
Eu1 O14 2.488 . S
Eu1 O15 2.471 . S
Eu1 O16 2.349 . S
Eu1 O19 2.392 1_455 S
Eu1 O20 2.418 . S
Eu1 C30 2.828 . S
C2 O20 1.244 . S
C2 O23 1.265 1_455 S
C3 C4 1.379 . S
C3 C7 1.373 . S
C3 C9 1.505 . S
C4 C3 1.379 . S
C4 C6 1.369 . S
C4 H32 0.930 . S
C5 C7 1.383 . S
C5 C8 1.382 . S
C5 H33 0.930 . S
C6 C4 1.369 . S
C6 C8 1.392 . S
C6 H34 0.930 . S
C7 C3 1.373 . S
C7 C5 1.383 . S
C7 H35 0.931 . S
C8 C5 1.382 . S
C8 C6 1.392 . S
C9 Eu0 2.828 . S
C9 C3 1.505 . S
C9 O21 1.249 . S
C9 O22 1.244 . S
O10 Eu1 2.373 . S
O10 C12 1.258 . S
O11 Eu0 2.392 1_455 S
O11 C12 1.242 . S
C12 O10 1.258 . S
C12 O11 1.242 . S
O13 Eu0 2.418 . S
O13 C17 1.244 . S
O14 Eu1 2.488 . S
O14 C30 1.249 . S
O15 Eu1 2.471 . S
O15 C30 1.244 . S
O16 Eu1 2.349 . S
O16 C17 1.265 1_455 S
C17 O13 1.244 . S
C17 O16 1.265 1_655 S
O18 Eu0 2.373 . S
O18 C31 1.258 . S
O19 Eu1 2.392 1_655 S
O19 C31 1.242 . S
O20 Eu1 2.418 . S
O20 C2 1.244 . S
O21 Eu0 2.488 . S
O21 C9 1.249 . S
O22 Eu0 2.471 . S
O22 C9 1.244 . S
O23 Eu0 2.349 . S
O23 C2 1.265 1_655 S
C24 C25 1.379 . S
C24 C28 1.373 . S
C24 C30 1.505 . S
C25 C24 1.379 . S
C25 C27 1.369 . S
C25 H36 0.930 . S
C26 C28 1.383 . S
C26 C29 1.382 . S
C26 H37 0.930 . S
C27 C25 1.369 . S
C27 C29 1.392 . S
C27 H38 0.930 . S
C28 C24 1.373 . S
C28 C26 1.383 . S
C28 H39 0.931 . S
C29 C26 1.382 . S
C29 C27 1.392 . S
C30 Eu1 2.828 . S
C30 O14 1.249 . S
C30 O15 1.244 . S
C30 C24 1.505 . S
C31 O18 1.258 . S
C31 O19 1.242 . S
H32 C4 0.930 . S
H33 C5 0.930 . S
H34 C6 0.930 . S
H35 C7 0.931 . S
H36 C25 0.930 . S
H37 C26 0.930 . S
H38 C27 0.930 . S
H39 C28 0.931 . S
Eu40 C49 2.828 . S
Eu40 O51 2.392 1_565 S
Eu40 O53 2.418 . S
Eu40 O58 2.373 . S
Eu40 O61 2.488 . S
Eu40 O62 2.471 . S
Eu40 O63 2.343 1_565 S
Eu41 O50 2.373 . S
Eu41 O54 2.488 . S
Eu41 O55 2.471 . S
Eu41 O56 2.349 . S
Eu41 O59 2.392 1_545 S
Eu41 O60 2.418 . S
Eu41 C70 2.828 . S
C42 O60 1.244 . S
C42 O63 1.270 . S
C43 C44 1.379 . S
C43 C47 1.373 . S
C43 C49 1.505 . S
C44 C43 1.379 . S
C44 C46 1.369 . S
C44 H72 0.930 . S
C45 C47 1.383 . S
C45 C48 1.382 . S
C45 H73 0.930 . S
C46 C44 1.369 . S
C46 C48 1.392 . S
C46 H74 0.930 . S
C47 C43 1.373 . S
C47 C45 1.383 . S
C47 H75 0.931 . S
C48 C45 1.382 . S
C48 C46 1.392 . S
C49 Eu40 2.828 . S
C49 C43 1.505 . S
C49 O61 1.249 . S
C49 O62 1.244 . S
O50 Eu41 2.373 . S
O50 C52 1.258 . S
O51 Eu40 2.392 1_545 S
O51 C52 1.242 . S
C52 O50 1.258 . S
C52 O51 1.242 . S
O53 Eu40 2.418 . S
O53 C57 1.244 1_565 S
O54 Eu41 2.488 . S
O54 C70 1.249 . S
O55 Eu41 2.471 . S
O55 C70 1.244 . S
O56 Eu41 2.349 . S
O56 C57 1.265 . S
C57 O53 1.244 1_545 S
C57 O56 1.265 . S
O58 Eu40 2.373 . S
O58 C71 1.258 . S
O59 Eu41 2.392 1_565 S
O59 C71 1.242 . S
O60 Eu41 2.418 . S
O60 C42 1.244 . S
O61 Eu40 2.488 . S
O61 C49 1.249 . S
O62 Eu40 2.471 . S
O62 C49 1.244 . S
O63 Eu40 2.343 1_545 S
O63 C42 1.270 . S
C64 C65 1.379 . S
C64 C68 1.373 . S
C64 C70 1.505 . S
C65 C64 1.379 . S
C65 C67 1.369 . S
C65 H76 0.930 . S
C66 C68 1.383 . S
C66 C69 1.382 . S
C66 H77 0.930 . S
C67 C65 1.369 . S
C67 C69 1.392 . S
C67 H78 0.930 . S
C68 C64 1.373 . S
C68 C66 1.383 . S
C68 H79 0.931 . S
C69 C66 1.382 . S
C69 C67 1.392 . S
C70 Eu41 2.828 . S
C70 O54 1.249 . S
C70 O55 1.244 . S
C70 C64 1.505 . S
C71 O58 1.258 . S
C71 O59 1.242 . S
H72 C44 0.930 . S
H73 C45 0.930 . S
H74 C46 0.930 . S
H75 C47 0.931 . S
H76 C65 0.930 . S
H77 C66 0.930 . S
H78 C67 0.930 . S
H79 C68 0.931 . S
Eu80 C89 2.828 . S
Eu80 O91 2.392 . S
Eu80 O93 2.418 . S
Eu80 O98 2.373 . S
Eu80 O101 2.488 . S
Eu80 O102 2.471 . S
Eu80 O103 2.349 . S
Eu81 O90 2.373 . S
Eu81 O94 2.488 . S
Eu81 O95 2.471 . S
Eu81 O96 2.349 . S
Eu81 O99 2.392 . S
Eu81 O100 2.418 . S
Eu81 C110 2.828 . S
C82 O100 1.244 . S
C82 O103 1.265 . S
C83 C84 1.379 . S
C83 C87 1.373 . S
C83 C89 1.505 . S
C84 C83 1.379 . S
C84 C86 1.369 . S
C84 H112 0.930 . S
C85 C87 1.383 . S
C85 C88 1.382 . S
C85 H113 0.930 . S
C86 C84 1.369 . S
C86 C88 1.392 . S
C86 H114 0.930 . S
C87 C83 1.373 . S
C87 C85 1.383 . S
C87 H115 0.931 . S
C88 C85 1.382 . S
C88 C86 1.392 . S
C89 Eu80 2.828 . S
C89 C83 1.505 . S
C89 O101 1.249 . S
C89 O102 1.244 . S
O90 Eu81 2.373 . S
O90 C92 1.258 . S
O91 Eu80 2.392 . S
O91 C92 1.242 . S
C92 O90 1.258 . S
C92 O91 1.242 . S
O93 Eu80 2.418 . S
O93 C97 1.244 . S
O94 Eu81 2.488 . S
O94 C110 1.249 . S
O95 Eu81 2.471 . S
O95 C110 1.244 . S
O96 Eu81 2.349 . S
O96 C97 1.265 . S
C97 O93 1.244 . S
C97 O96 1.265 . S
O98 Eu80 2.373 . S
O98 C111 1.258 . S
O99 Eu81 2.392 . S
O99 C111 1.242 . S
O100 Eu81 2.418 . S
O100 C82 1.244 . S
O101 Eu80 2.488 . S
O101 C89 1.249 . S
O102 Eu80 2.471 . S
O102 C89 1.244 . S
O103 Eu80 2.349 . S
O103 C82 1.265 . S
C104 C105 1.379 . S
C104 C108 1.373 . S
C104 C110 1.505 . S
C105 C104 1.379 . S
C105 C107 1.369 . S
C105 H116 0.930 . S
C106 C108 1.383 . S
C106 C109 1.382 . S
C106 H117 0.930 . S
C107 C105 1.369 . S
C107 C109 1.392 . S
C107 H118 0.930 . S
C108 C104 1.373 . S
C108 C106 1.383 . S
C108 H119 0.931 . S
C109 C106 1.382 . S
C109 C107 1.392 . S
C110 Eu81 2.828 . S
C110 O94 1.249 . S
C110 O95 1.244 . S
C110 C104 1.505 . S
C111 O98 1.258 . S
C111 O99 1.242 . S
H112 C84 0.930 . S
H113 C85 0.930 . S
H114 C86 0.930 . S
H115 C87 0.931 . S
H116 C105 0.930 . S
H117 C106 0.930 . S
H118 C107 0.930 . S
H119 C108 0.931 . S
P120 O131 1.490 1_545 S
P120 C134 1.812 1_545 S
P120 C140 1.803 . S
P120 C146 1.819 . S
H121 C135 0.941 . S
H122 C136 0.939 . S
H123 C138 0.940 . S
H124 C139 0.937 1_545 S
H125 C141 0.939 . S
H126 C142 0.942 . S
H127 C144 0.940 . S
H128 C145 0.939 . S
H129 C147 0.941 . S
H130 C151 0.939 . S
O131 P120 1.490 1_565 S
H132 C148 0.939 . S
H133 C150 0.940 . S
C134 P120 1.812 1_565 S
C134 C135 1.389 . S
C134 C139 1.391 . S
C135 H121 0.941 . S
C135 C134 1.389 . S
C135 C136 1.397 . S
C136 H122 0.939 . S
C136 C135 1.397 . S
C136 C137 1.378 . S
C137 C136 1.378 . S
C137 C138 1.378 . S
C138 H123 0.940 . S
C138 C137 1.378 . S
C138 C139 1.396 . S
C139 H124 0.937 1_565 S
C139 C134 1.391 . S
C139 C138 1.396 . S
C140 P120 1.803 . S
C140 C141 1.378 . S
C140 C145 1.400 . S
C141 H125 0.939 . S
C141 C140 1.378 . S
C141 C142 1.361 . S
C142 H126 0.942 . S
C142 C141 1.361 . S
C142 C143 1.369 . S
C143 C142 1.369 . S
C143 C144 1.404 . S
C144 H127 0.940 . S
C144 C143 1.404 . S
C144 C145 1.389 . S
C145 H128 0.939 . S
C145 C140 1.400 . S
C145 C144 1.389 . S
C146 P120 1.819 . S
C146 C147 1.391 1_545 S
C146 C151 1.391 . S
C147 H129 0.941 . S
C147 C146 1.391 1_565 S
C147 C148 1.396 . S
C148 H132 0.939 . S
C148 C147 1.396 . S
C148 C149 1.397 1_565 S
C149 C148 1.397 1_545 S
C149 C150 1.385 . S
C150 H133 0.940 . S
C150 C149 1.385 . S
C150 C151 1.388 . S
C151 H130 0.939 . S
C151 C146 1.391 . S
C151 C150 1.388 . S
P152 O163 1.490 . S
P152 C166 1.812 . S
P152 C172 1.803 . S
P152 C178 1.819 . S
H153 C167 0.941 . S
H154 C168 0.939 . S
H155 C170 0.940 . S
H156 C171 0.940 . S
H157 C173 0.939 . S
H158 C174 0.942 . S
H159 C176 0.940 . S
H160 C177 0.939 . S
H161 C179 0.941 . S
H162 C183 0.939 . S
O163 P152 1.490 . S
H164 C180 0.939 . S
H165 C182 0.940 . S
C166 P152 1.812 . S
C166 C167 1.389 . S
C166 C171 1.391 . S
C167 H153 0.941 . S
C167 C166 1.389 . S
C167 C168 1.397 . S
C168 H154 0.939 . S
C168 C167 1.397 . S
C168 C169 1.378 . S
C169 C168 1.378 . S
C169 C170 1.378 . S
C170 H155 0.940 . S
C170 C169 1.378 . S
C170 C171 1.396 . S
C171 H156 0.940 . S
C171 C166 1.391 . S
C171 C170 1.396 . S
C172 P152 1.803 . S
C172 C173 1.378 . S
C172 C177 1.400 . S
C173 H157 0.939 . S
C173 C172 1.378 . S
C173 C174 1.361 . S
C174 H158 0.942 . S
C174 C173 1.361 . S
C174 C175 1.369 . S
C175 C174 1.369 . S
C175 C176 1.404 . S
C176 H159 0.940 . S
C176 C175 1.404 . S
C176 C177 1.389 . S
C177 H160 0.939 . S
C177 C172 1.400 . S
C177 C176 1.389 . S
C178 P152 1.819 . S
C178 C179 1.391 . S
C178 C183 1.391 . S
C179 H161 0.941 . S
C179 C178 1.391 . S
C179 C180 1.396 . S
C180 H164 0.939 . S
C180 C179 1.396 . S
C180 C181 1.397 . S
C181 C180 1.397 . S
C181 C182 1.385 . S
C182 H165 0.940 . S
C182 C181 1.385 . S
C182 C183 1.388 . S
C183 H162 0.939 . S
C183 C178 1.391 . S
C183 C182 1.388 . S
P184 O195 1.490 . S
P184 C198 1.812 . S
P184 C204 1.803 . S
P184 C210 1.819 . S
H185 C199 0.941 . S
H186 C200 0.939 . S
H187 C202 0.940 . S
H188 C203 0.940 . S
H189 C205 0.939 1_455 S
H190 C206 0.942 . S
H191 C208 0.940 . S
H192 C209 0.939 1_455 S
H193 C211 0.941 . S
H194 C215 0.939 1_655 S
O195 P184 1.490 . S
H196 C212 0.939 . S
H197 C214 0.940 1_655 S
C198 P184 1.812 . S
C198 C199 1.389 . S
C198 C203 1.391 . S
C199 H185 0.941 . S
C199 C198 1.389 . S
C199 C200 1.397 . S
C200 H186 0.939 . S
C200 C199 1.397 . S
C200 C201 1.378 . S
C201 C200 1.378 . S
C201 C202 1.378 . S
C202 H187 0.940 . S
C202 C201 1.378 . S
C202 C203 1.396 . S
C203 H188 0.940 . S
C203 C198 1.391 . S
C203 C202 1.396 . S
C204 P184 1.803 . S
C204 C205 1.378 1_455 S
C204 C209 1.400 1_455 S
C205 H189 0.939 1_655 S
C205 C204 1.378 1_655 S
C205 C206 1.361 . S
C206 H190 0.942 . S
C206 C205 1.361 . S
C206 C207 1.369 . S
C207 C206 1.369 . S
C207 C208 1.404 . S
C208 H191 0.940 . S
C208 C207 1.404 . S
C208 C209 1.389 . S
C209 H192 0.939 1_655 S
C209 C204 1.400 1_655 S
C209 C208 1.389 . S
C210 P184 1.819 . S
C210 C211 1.391 . S
C210 C215 1.391 . S
C211 H193 0.941 . S
C211 C210 1.391 . S
C211 C212 1.396 . S
C212 H196 0.939 . S
C212 C211 1.396 . S
C212 C213 1.397 . S
C213 C212 1.397 . S
C213 C214 1.385 . S
C214 H197 0.940 1_455 S
C214 C213 1.385 . S
C214 C215 1.388 . S
C215 H194 0.939 1_455 S
C215 C210 1.391 . S
C215 C214 1.388 . S
P216 O227 1.490 . S
P216 C230 1.812 . S
P216 C236 1.833 . S
P216 C242 1.819 . S
H217 C231 0.941 . S
H218 C232 0.939 . S
H219 C234 0.940 . S
H220 C235 0.940 . S
H221 C237 0.939 . S
H222 C238 0.942 . S
H223 C240 0.940 . S
H224 C241 0.939 . S
H225 C243 0.941 . S
H226 C247 0.939 . S
O227 P216 1.490 . S
H228 C244 0.939 . S
H229 C246 0.940 . S
C230 P216 1.812 . S
C230 C231 1.389 . S
C230 C235 1.391 . S
C231 H217 0.941 . S
C231 C230 1.389 . S
C231 C232 1.397 . S
C232 H218 0.939 . S
C232 C231 1.397 . S
C232 C233 1.378 . S
C233 C232 1.378 . S
C233 C234 1.378 . S
C234 H219 0.940 . S
C234 C233 1.378 . S
C234 C235 1.396 . S
C235 H220 0.940 . S
C235 C230 1.391 . S
C235 C234 1.396 . S
C236 P216 1.833 . S
C236 C237 1.380 1_455 S
C236 C241 1.367 1_455 S
C237 H221 0.939 . S
C237 C236 1.380 1_655 S
C237 C238 1.361 . S
C238 H222 0.942 . S
C238 C237 1.361 . S
C238 C239 1.369 . S
C239 C238 1.369 . S
C239 C240 1.404 . S
C240 H223 0.940 . S
C240 C239 1.404 . S
C240 C241 1.389 . S
C241 H224 0.939 . S
C241 C236 1.367 1_655 S
C241 C240 1.389 . S
C242 P216 1.819 . S
C242 C243 1.391 . S
C242 C247 1.391 1_455 S
C243 H225 0.941 . S
C243 C242 1.391 . S
C243 C244 1.396 . S
C244 H228 0.939 . S
C244 C243 1.396 . S
C244 C245 1.397 . S
C245 C244 1.397 . S
C245 C246 1.385 1_455 S
C246 H229 0.940 . S
C246 C245 1.385 1_655 S
C246 C247 1.388 . S
C247 H226 0.939 . S
C247 C242 1.391 1_655 S
C247 C246 1.388 . S
P248 O259 1.490 . S
P248 C262 1.812 . S
P248 C268 1.803 1_545 S
P248 C274 1.819 . S
H249 C263 0.941 . S
H250 C264 0.939 . S
H251 C266 0.940 . S
H252 C267 0.940 . S
H253 C269 0.939 . S
H254 C270 0.942 . S
H255 C272 0.940 . S
H256 C273 0.939 . S
H257 C275 0.941 . S
H258 C279 0.939 . S
O259 P248 1.490 . S
H260 C276 0.939 . S
H261 C278 0.940 . S
C262 P248 1.812 . S
C262 C263 1.389 . S
C262 C267 1.391 . S
C263 H249 0.941 . S
C263 C262 1.389 . S
C263 C264 1.397 . S
C264 H250 0.939 . S
C264 C263 1.397 . S
C264 C265 1.378 . S
C265 C264 1.378 . S
C265 C266 1.378 . S
C266 H251 0.940 . S
C266 C265 1.378 . S
C266 C267 1.396 . S
C267 H252 0.940 . S
C267 C262 1.391 . S
C267 C266 1.396 . S
C268 P248 1.803 1_565 S
C268 C269 1.378 . S
C268 C273 1.400 . S
C269 H253 0.939 . S
C269 C268 1.378 . S
C269 C270 1.361 . S
C270 H254 0.942 . S
C270 C269 1.361 . S
C270 C271 1.369 . S
C271 C270 1.369 . S
C271 C272 1.404 . S
C272 H255 0.940 . S
C272 C271 1.404 . S
C272 C273 1.389 . S
C273 H256 0.939 . S
C273 C268 1.400 . S
C273 C272 1.389 . S
C274 P248 1.819 . S
C274 C275 1.391 . S
C274 C279 1.391 1_545 S
C275 H257 0.941 . S
C275 C274 1.391 . S
C275 C276 1.396 . S
C276 H260 0.939 . S
C276 C275 1.396 . S
C276 C277 1.397 . S
C277 C276 1.397 . S
C277 C278 1.385 1_545 S
C278 H261 0.940 . S
C278 C277 1.385 1_565 S
C278 C279 1.388 . S
C279 H258 0.939 . S
C279 C274 1.391 1_565 S
C279 C278 1.388 . S
P280 O291 1.490 . S
P280 C294 1.812 . S
P280 C300 1.803 . S
P280 C306 1.819 . S
H281 C295 0.941 . S
H282 C296 0.939 . S
H283 C298 0.940 . S
H284 C299 0.940 . S
H285 C301 0.939 . S
H286 C302 0.942 . S
H287 C304 0.940 . S
H288 C305 0.939 . S
H289 C307 0.941 . S
H290 C311 0.939 . S
O291 P280 1.490 . S
H292 C308 0.939 . S
H293 C310 0.940 . S
C294 P280 1.812 . S
C294 C295 1.389 . S
C294 C299 1.391 . S
C295 H281 0.941 . S
C295 C294 1.389 . S
C295 C296 1.397 . S
C296 H282 0.939 . S
C296 C295 1.397 . S
C296 C297 1.378 . S
C297 C296 1.378 . S
C297 C298 1.378 . S
C298 H283 0.940 . S
C298 C297 1.378 . S
C298 C299 1.396 . S
C299 H284 0.940 . S
C299 C294 1.391 . S
C299 C298 1.396 . S
C300 P280 1.803 . S
C300 C301 1.378 . S
C300 C305 1.400 . S
C301 H285 0.939 . S
C301 C300 1.378 . S
C301 C302 1.361 . S
C302 H286 0.942 . S
C302 C301 1.361 . S
C302 C303 1.369 . S
C303 C302 1.369 . S
C303 C304 1.404 . S
C304 H287 0.940 . S
C304 C303 1.404 . S
C304 C305 1.389 . S
C305 H288 0.939 . S
C305 C300 1.400 . S
C305 C304 1.389 . S
C306 P280 1.819 . S
C306 C307 1.391 . S
C306 C311 1.391 . S
C307 H289 0.941 . S
C307 C306 1.391 . S
C307 C308 1.396 . S
C308 H292 0.939 . S
C308 C307 1.396 . S
C308 C309 1.397 . S
C309 C308 1.397 . S
C309 C310 1.385 . S
C310 H293 0.940 . S
C310 C309 1.385 . S
C310 C311 1.388 . S
C311 H290 0.939 . S
C311 C306 1.391 . S
C311 C310 1.388 . S
H312 C330 0.951 . S
H313 C332 0.951 . S
H314 C334 0.950 . S
H315 C335 0.950 . S
H316 C337 0.950 . S
H317 C340 0.950 . S
H318 C341 0.950 . S
H319 C343 0.950 . S
H320 C344 0.950 . S
H321 C345 0.951 . S
H322 C347 0.951 . S
H323 C349 0.950 . S
H324 C350 0.950 . S
H325 C352 0.950 . S
H326 C355 0.950 . S
H327 C356 0.950 . S
H328 C358 0.950 . S
H329 C359 0.950 . S
C330 H312 0.951 . S
C330 C331 1.366 . S
C330 C332 1.388 . S
C331 C330 1.366 . S
C331 C335 1.385 . S
C332 H313 0.951 . S
C332 C330 1.388 . S
C332 C333 1.366 . S
C333 C332 1.366 . S
C333 C334 1.414 . S
C333 C336 1.499 . S
C334 H314 0.950 . S
C334 C333 1.414 . S
C334 C335 1.374 . S
C335 H315 0.950 . S
C335 C331 1.385 . S
C335 C334 1.374 . S
C336 C333 1.499 . S
C336 C337 1.373 . S
C336 C338 1.389 . S
C337 H316 0.950 . S
C337 C336 1.373 . S
C337 C353 1.377 . S
C338 C336 1.389 . S
C338 C339 1.524 . S
C338 C352 1.377 . S
C339 C338 1.524 . S
C339 C340 1.397 . S
C339 C344 1.363 . S
C340 H317 0.950 . S
C340 C339 1.397 . S
C340 C341 1.334 . S
C341 H318 0.950 . S
C341 C340 1.334 . S
C341 C342 1.287 . S
C342 C341 1.287 . S
C342 C343 1.524 . S
C342 H361 0.913 . S
C343 H319 0.950 . S
C343 C342 1.524 . S
C343 C344 1.415 . S
C344 H320 0.950 . S
C344 C339 1.363 . S
C344 C343 1.415 . S
C345 H321 0.951 . S
C345 C346 1.366 . S
C345 C347 1.388 . S
C346 C345 1.366 . S
C346 C350 1.385 . S
C347 H322 0.951 . S
C347 C345 1.388 . S
C347 C348 1.366 . S
C348 C347 1.366 . S
C348 C349 1.414 . S
C348 C351 1.499 . S
C349 H323 0.950 . S
C349 C348 1.414 . S
C349 C350 1.374 . S
C350 H324 0.950 . S
C350 C346 1.385 . S
C350 C349 1.374 . S
C351 C348 1.499 . S
C351 C352 1.373 . S
C351 C353 1.389 . S
C352 H325 0.950 . S
C352 C338 1.377 . S
C352 C351 1.373 . S
C353 C337 1.377 . S
C353 C351 1.389 . S
C353 C354 1.524 . S
C354 C353 1.524 . S
C354 C355 1.397 . S
C354 C359 1.363 . S
C355 H326 0.950 . S
C355 C354 1.397 . S
C355 C356 1.334 . S
C356 H327 0.950 . S
C356 C355 1.334 . S
C356 C357 1.287 . S
C357 C356 1.287 . S
C357 C358 1.524 . S
C357 H360 0.999 . S
C358 H328 0.950 . S
C358 C357 1.524 . S
C358 C359 1.415 . S
C359 H329 0.950 . S
C359 C354 1.363 . S
C359 C358 1.415 . S
H360 C357 0.999 . S
H361 C342 0.913 . S
H362 C380 0.951 . S
H363 C382 0.951 . S
H364 C384 0.950 . S
H365 C385 0.950 . S
H366 C387 0.950 . S
H367 C390 0.950 . S
H368 C391 0.950 . S
H369 C393 0.950 . S
H370 C394 0.950 . S
H371 C395 0.951 . S
H372 C397 0.951 . S
H373 C399 0.950 . S
H374 C400 0.950 . S
H375 C402 0.950 . S
H376 C405 0.950 . S
H377 C406 0.950 . S
H378 C408 0.950 . S
H379 C409 0.950 . S
C380 H362 0.951 . S
C380 C381 1.366 . S
C380 C382 1.388 . S
C381 C380 1.366 . S
C381 C385 1.385 . S
C382 H363 0.951 . S
C382 C380 1.388 . S
C382 C383 1.366 . S
C383 C382 1.366 . S
C383 C384 1.414 . S
C383 C386 1.499 . S
C384 H364 0.950 . S
C384 C383 1.414 . S
C384 C385 1.374 . S
C385 H365 0.950 . S
C385 C381 1.385 . S
C385 C384 1.374 . S
C386 C383 1.499 . S
C386 C387 1.373 . S
C386 C388 1.389 . S
C387 H366 0.950 . S
C387 C386 1.373 . S
C387 C403 1.377 . S
C388 C386 1.389 . S
C388 C389 1.524 . S
C388 C402 1.377 . S
C389 C388 1.524 . S
C389 C390 1.397 . S
C389 C394 1.363 . S
C390 H367 0.950 . S
C390 C389 1.397 . S
C390 C391 1.334 . S
C391 H368 0.950 . S
C391 C390 1.334 . S
C391 C392 1.287 . S
C392 C391 1.287 . S
C392 C393 1.524 . S
C392 H411 0.913 . S
C393 H369 0.950 . S
C393 C392 1.524 . S
C393 C394 1.415 . S
C394 H370 0.950 . S
C394 C389 1.363 . S
C394 C393 1.415 . S
C395 H371 0.951 . S
C395 C396 1.366 . S
C395 C397 1.388 . S
C396 C395 1.366 . S
C396 C400 1.385 . S
C397 H372 0.951 . S
C397 C395 1.388 . S
C397 C398 1.366 . S
C398 C397 1.366 . S
C398 C399 1.414 . S
C398 C401 1.499 . S
C399 H373 0.950 . S
C399 C398 1.414 . S
C399 C400 1.374 . S
C400 H374 0.950 . S
C400 C396 1.385 . S
C400 C399 1.374 . S
C401 C398 1.499 . S
C401 C402 1.373 . S
C401 C403 1.389 . S
C402 H375 0.950 . S
C402 C388 1.377 . S
C402 C401 1.373 . S
C403 C387 1.377 . S
C403 C401 1.389 . S
C403 C404 1.524 . S
C404 C403 1.524 . S
C404 C405 1.397 . S
C404 C409 1.363 . S
C405 H376 0.950 . S
C405 C404 1.397 . S
C405 C406 1.334 . S
C406 H377 0.950 . S
C406 C405 1.334 . S
C406 C407 1.287 . S
C407 C406 1.287 . S
C407 C408 1.524 . S
C407 H410 0.999 . S
C408 H378 0.950 . S
C408 C407 1.524 . S
C408 C409 1.415 . S
C409 H379 0.950 . S
C409 C404 1.363 . S
C409 C408 1.415 . S
H410 C407 0.999 . S
H411 C392 0.913 . S
H412 C430 0.951 . S
H413 C432 0.951 . S
H414 C434 0.950 . S
H415 C435 0.950 . S
H416 C437 0.950 . S
H417 C440 0.950 . S
H418 C441 0.950 . S
H419 C443 0.950 . S
H420 C444 0.950 . S
H421 C445 0.951 . S
H422 C447 0.951 . S
H423 C449 0.950 . S
H424 C450 0.950 . S
H425 C452 0.950 . S
H426 C455 0.950 . S
H427 C456 0.950 . S
H428 C458 0.950 . S
H429 C459 0.950 . S
C430 H412 0.951 . S
C430 C431 1.366 . S
C430 C432 1.388 . S
C431 C430 1.366 . S
C431 C435 1.385 . S
C432 H413 0.951 . S
C432 C430 1.388 . S
C432 C433 1.366 . S
C433 C432 1.366 . S
C433 C434 1.414 . S
C433 C436 1.499 . S
C434 H414 0.950 . S
C434 C433 1.414 . S
C434 C435 1.374 . S
C435 H415 0.950 . S
C435 C431 1.385 . S
C435 C434 1.374 . S
C436 C433 1.499 . S
C436 C437 1.373 . S
C436 C438 1.389 . S
C437 H416 0.950 . S
C437 C436 1.373 . S
C437 C453 1.377 . S
C438 C436 1.389 . S
C438 C439 1.524 . S
C438 C452 1.377 . S
C439 C438 1.524 . S
C439 C440 1.397 . S
C439 C444 1.363 . S
C440 H417 0.950 . S
C440 C439 1.397 . S
C440 C441 1.334 . S
C441 H418 0.950 . S
C441 C440 1.334 . S
C441 C442 1.287 . S
C442 C441 1.287 . S
C442 C443 1.524 . S
C442 H461 0.913 . S
C443 H419 0.950 . S
C443 C442 1.524 . S
C443 C444 1.415 . S
C444 H420 0.950 . S
C444 C439 1.363 . S
C444 C443 1.415 . S
C445 H421 0.951 . S
C445 C446 1.366 . S
C445 C447 1.388 . S
C446 C445 1.366 . S
C446 C450 1.385 . S
C447 H422 0.951 . S
C447 C445 1.388 . S
C447 C448 1.366 . S
C448 C447 1.366 . S
C448 C449 1.414 . S
C448 C451 1.499 . S
C449 H423 0.950 . S
C449 C448 1.414 . S
C449 C450 1.374 . S
C450 H424 0.950 . S
C450 C446 1.385 . S
C450 C449 1.374 . S
C451 C448 1.499 . S
C451 C452 1.373 . S
C451 C453 1.389 . S
C452 H425 0.950 . S
C452 C438 1.377 . S
C452 C451 1.373 . S
C453 C437 1.377 . S
C453 C451 1.389 . S
C453 C454 1.524 . S
C454 C453 1.524 . S
C454 C455 1.397 . S
C454 C459 1.363 . S
C455 H426 0.950 . S
C455 C454 1.397 . S
C455 C456 1.334 . S
C456 H427 0.950 . S
C456 C455 1.334 . S
C456 C457 1.287 . S
C457 C456 1.287 . S
C457 C458 1.524 . S
C457 H460 0.999 . S
C458 H428 0.950 . S
C458 C457 1.524 . S
C458 C459 1.415 . S
C459 H429 0.950 . S
C459 C454 1.363 . S
C459 C458 1.415 . S
H460 C457 0.999 . S
H461 C442 0.913 . S
H462 C480 0.951 . S
H463 C482 0.951 . S
H464 C484 0.950 . S
H465 C485 0.950 . S
H466 C487 0.950 . S
H467 C490 0.950 . S
H468 C491 0.950 . S
H469 C493 0.950 . S
H470 C494 0.950 . S
H471 C495 0.951 . S
H472 C497 0.951 . S
H473 C499 0.950 . S
H474 C500 0.950 . S
H475 C502 0.950 . S
H476 C505 0.950 . S
H477 C506 0.950 . S
H478 C508 0.950 . S
H479 C509 0.950 . S
C480 H462 0.951 . S
C480 C481 1.366 . S
C480 C482 1.388 . S
C481 C480 1.366 . S
C481 C485 1.385 . S
C482 H463 0.951 . S
C482 C480 1.388 . S
C482 C483 1.366 . S
C483 C482 1.366 . S
C483 C484 1.414 . S
C483 C486 1.499 . S
C484 H464 0.950 . S
C484 C483 1.414 . S
C484 C485 1.374 . S
C485 H465 0.950 . S
C485 C481 1.385 . S
C485 C484 1.374 . S
C486 C483 1.499 . S
C486 C487 1.373 . S
C486 C488 1.389 . S
C487 H466 0.950 . S
C487 C486 1.373 . S
C487 C503 1.377 . S
C488 C486 1.389 . S
C488 C489 1.524 . S
C488 C502 1.377 . S
C489 C488 1.524 . S
C489 C490 1.397 . S
C489 C494 1.363 . S
C490 H467 0.950 . S
C490 C489 1.397 . S
C490 C491 1.334 . S
C491 H468 0.950 . S
C491 C490 1.334 . S
C491 C492 1.287 . S
C492 C491 1.287 . S
C492 C493 1.524 . S
C492 H511 0.913 . S
C493 H469 0.950 . S
C493 C492 1.524 . S
C493 C494 1.415 . S
C494 H470 0.950 . S
C494 C489 1.363 . S
C494 C493 1.415 . S
C495 H471 0.951 . S
C495 C496 1.366 . S
C495 C497 1.388 . S
C496 C495 1.366 . S
C496 C500 1.385 . S
C497 H472 0.951 . S
C497 C495 1.388 . S
C497 C498 1.366 . S
C498 C497 1.366 . S
C498 C499 1.414 . S
C498 C501 1.499 . S
C499 H473 0.950 . S
C499 C498 1.414 . S
C499 C500 1.374 . S
C500 H474 0.950 . S
C500 C496 1.385 . S
C500 C499 1.374 . S
C501 C498 1.499 . S
C501 C502 1.373 . S
C501 C503 1.389 . S
C502 H475 0.950 . S
C502 C488 1.377 . S
C502 C501 1.373 . S
C503 C487 1.377 . S
C503 C501 1.389 . S
C503 C504 1.524 . S
C504 C503 1.524 . S
C504 C505 1.397 . S
C504 C509 1.363 . S
C505 H476 0.950 . S
C505 C504 1.397 . S
C505 C506 1.334 . S
C506 H477 0.950 . S
C506 C505 1.334 . S
C506 C507 1.287 . S
C507 C506 1.287 . S
C507 C508 1.524 . S
C507 H510 0.999 . S
C508 H478 0.950 . S
C508 C507 1.524 . S
C508 C509 1.415 . S
C509 H479 0.950 . S
C509 C504 1.363 . S
C509 C508 1.415 . S
H510 C507 0.999 . S
H511 C492 0.913 . S
H512 C530 0.951 . S
H513 C532 0.951 . S
H514 C534 0.950 . S
H515 C535 0.950 . S
H516 C537 0.950 . S
H517 C540 0.950 . S
H518 C541 0.950 . S
H519 C543 0.950 . S
H520 C544 0.950 . S
H521 C545 0.951 . S
H522 C547 0.951 . S
H523 C549 0.950 . S
H524 C550 0.950 . S
H525 C552 0.950 . S
H526 C555 0.950 . S
H527 C556 0.950 . S
H528 C558 0.950 . S
H529 C559 0.950 . S
C530 H512 0.951 . S
C530 C531 1.366 . S
C530 C532 1.388 . S
C531 C530 1.366 . S
C531 C535 1.385 . S
C532 H513 0.951 . S
C532 C530 1.388 . S
C532 C533 1.366 . S
C533 C532 1.366 . S
C533 C534 1.414 . S
C533 C536 1.499 . S
C534 H514 0.950 . S
C534 C533 1.414 . S
C534 C535 1.374 . S
C535 H515 0.950 . S
C535 C531 1.385 . S
C535 C534 1.374 . S
C536 C533 1.499 . S
C536 C537 1.373 . S
C536 C538 1.389 . S
C537 H516 0.950 . S
C537 C536 1.373 . S
C537 C553 1.377 . S
C538 C536 1.389 . S
C538 C539 1.524 . S
C538 C552 1.377 . S
C539 C538 1.524 . S
C539 C540 1.397 . S
C539 C544 1.363 . S
C540 H517 0.950 . S
C540 C539 1.397 . S
C540 C541 1.334 . S
C541 H518 0.950 . S
C541 C540 1.334 . S
C541 C542 1.287 . S
C542 C541 1.287 . S
C542 C543 1.524 . S
C542 H561 0.913 . S
C543 H519 0.950 . S
C543 C542 1.524 . S
C543 C544 1.415 . S
C544 H520 0.950 . S
C544 C539 1.363 . S
C544 C543 1.415 . S
C545 H521 0.951 . S
C545 C546 1.366 . S
C545 C547 1.388 . S
C546 C545 1.366 . S
C546 C550 1.385 . S
C547 H522 0.951 . S
C547 C545 1.388 . S
C547 C548 1.366 . S
C548 C547 1.366 . S
C548 C549 1.414 . S
C548 C551 1.499 . S
C549 H523 0.950 . S
C549 C548 1.414 . S
C549 C550 1.374 . S
C550 H524 0.950 . S
C550 C546 1.385 . S
C550 C549 1.374 . S
C551 C548 1.499 . S
C551 C552 1.373 . S
C551 C553 1.389 . S
C552 H525 0.950 . S
C552 C538 1.377 . S
C552 C551 1.373 . S
C553 C537 1.377 . S
C553 C551 1.389 . S
C553 C554 1.524 . S
C554 C553 1.524 . S
C554 C555 1.397 . S
C554 C559 1.363 . S
C555 H526 0.950 . S
C555 C554 1.397 . S
C555 C556 1.334 . S
C556 H527 0.950 . S
C556 C555 1.334 . S
C556 C557 1.287 . S
C557 C556 1.287 . S
C557 C558 1.524 . S
C557 H560 0.999 . S
C558 H528 0.950 . S
C558 C557 1.524 . S
C558 C559 1.415 . S
C559 H529 0.950 . S
C559 C554 1.363 . S
C559 C558 1.415 . S
H560 C557 0.999 . S
H561 C542 0.913 . S
H562 C580 0.951 . S
H563 C582 0.951 . S
H564 C584 0.950 . S
H565 C585 0.950 . S
H566 C587 0.950 . S
H567 C590 0.950 . S
H568 C591 0.950 . S
H569 C593 0.950 . S
H570 C594 0.950 . S
H571 C595 0.951 . S
H572 C597 0.951 . S
H573 C599 0.950 . S
H574 C600 0.950 . S
H575 C602 0.950 . S
H576 C605 0.950 . S
H577 C606 0.950 . S
H578 C608 0.950 . S
H579 C609 0.950 . S
C580 H562 0.951 . S
C580 C581 1.366 . S
C580 C582 1.388 . S
C581 C580 1.366 . S
C581 C585 1.385 . S
C582 H563 0.951 . S
C582 C580 1.388 . S
C582 C583 1.366 . S
C583 C582 1.366 . S
C583 C584 1.414 . S
C583 C586 1.499 . S
C584 H564 0.950 . S
C584 C583 1.414 . S
C584 C585 1.374 . S
C585 H565 0.950 . S
C585 C581 1.385 . S
C585 C584 1.374 . S
C586 C583 1.499 . S
C586 C587 1.373 . S
C586 C588 1.389 . S
C587 H566 0.950 . S
C587 C586 1.373 . S
C587 C603 1.377 . S
C588 C586 1.389 . S
C588 C589 1.524 . S
C588 C602 1.377 . S
C589 C588 1.524 . S
C589 C590 1.397 . S
C589 C594 1.363 . S
C590 H567 0.950 . S
C590 C589 1.397 . S
C590 C591 1.334 . S
C591 H568 0.950 . S
C591 C590 1.334 . S
C591 C592 1.287 . S
C592 C591 1.287 . S
C592 C593 1.524 . S
C592 H611 0.913 . S
C593 H569 0.950 . S
C593 C592 1.524 . S
C593 C594 1.415 . S
C594 H570 0.950 . S
C594 C589 1.363 . S
C594 C593 1.415 . S
C595 H571 0.951 . S
C595 C596 1.366 . S
C595 C597 1.388 . S
C596 C595 1.366 . S
C596 C600 1.385 . S
C597 H572 0.951 . S
C597 C595 1.388 . S
C597 C598 1.366 . S
C598 C597 1.366 . S
C598 C599 1.414 . S
C598 C601 1.499 . S
C599 H573 0.950 . S
C599 C598 1.414 . S
C599 C600 1.374 . S
C600 H574 0.950 . S
C600 C596 1.385 . S
C600 C599 1.374 . S
C601 C598 1.499 . S
C601 C602 1.373 . S
C601 C603 1.389 . S
C602 H575 0.950 . S
C602 C588 1.377 . S
C602 C601 1.373 . S
C603 C587 1.377 . S
C603 C601 1.389 . S
C603 C604 1.524 . S
C604 C603 1.524 . S
C604 C605 1.397 . S
C604 C609 1.363 . S
C605 H576 0.950 . S
C605 C604 1.397 . S
C605 C606 1.334 . S
C606 H577 0.950 . S
C606 C605 1.334 . S
C606 C607 1.287 . S
C607 C606 1.287 . S
C607 C608 1.524 . S
C607 H610 0.999 . S
C608 H578 0.950 . S
C608 C607 1.524 . S
C608 C609 1.415 . S
C609 H579 0.950 . S
C609 C604 1.363 . S
C609 C608 1.415 . S
H610 C607 0.999 . S
H611 C592 0.913 . S
H612 C630 0.951 . S
H613 C632 0.951 . S
H614 C634 0.950 . S
H615 C635 0.950 . S
H616 C637 0.950 . S
H617 C640 0.950 . S
H618 C641 0.950 . S
H619 C643 0.950 . S
H620 C644 0.950 . S
H621 C645 0.951 . S
H622 C647 0.951 . S
H623 C649 0.950 . S
H624 C650 0.950 . S
H625 C652 0.950 . S
H626 C655 0.950 . S
H627 C656 0.950 . S
H628 C658 0.950 . S
H629 C659 0.950 . S
C630 H612 0.951 . S
C630 C631 1.366 . S
C630 C632 1.388 . S
C631 C630 1.366 . S
C631 C635 1.385 . S
C632 H613 0.951 . S
C632 C630 1.388 . S
C632 C633 1.366 . S
C633 C632 1.366 . S
C633 C634 1.414 . S
C633 C636 1.499 . S
C634 H614 0.950 . S
C634 C633 1.414 . S
C634 C635 1.374 . S
C635 H615 0.950 . S
C635 C631 1.385 . S
C635 C634 1.374 . S
C636 C633 1.499 . S
C636 C637 1.373 . S
C636 C638 1.389 . S
C637 H616 0.950 . S
C637 C636 1.373 . S
C637 C653 1.377 . S
C638 C636 1.389 . S
C638 C639 1.524 . S
C638 C652 1.377 . S
C639 C638 1.524 . S
C639 C640 1.397 . S
C639 C644 1.363 . S
C640 H617 0.950 . S
C640 C639 1.397 . S
C640 C641 1.334 . S
C641 H618 0.950 . S
C641 C640 1.334 . S
C641 C642 1.287 . S
C642 C641 1.287 . S
C642 C643 1.524 . S
C642 H661 0.913 . S
C643 H619 0.950 . S
C643 C642 1.524 . S
C643 C644 1.415 . S
C644 H620 0.950 . S
C644 C639 1.363 . S
C644 C643 1.415 . S
C645 H621 0.951 . S
C645 C646 1.366 . S
C645 C647 1.388 . S
C646 C645 1.366 . S
C646 C650 1.385 . S
C647 H622 0.951 . S
C647 C645 1.388 . S
C647 C648 1.366 . S
C648 C647 1.366 . S
C648 C649 1.414 . S
C648 C651 1.499 . S
C649 H623 0.950 . S
C649 C648 1.414 . S
C649 C650 1.374 . S
C650 H624 0.950 . S
C650 C646 1.385 . S
C650 C649 1.374 . S
C651 C648 1.499 . S
C651 C652 1.373 . S
C651 C653 1.389 . S
C652 H625 0.950 . S
C652 C638 1.377 . S
C652 C651 1.373 . S
C653 C637 1.377 . S
C653 C651 1.389 . S
C653 C654 1.524 . S
C654 C653 1.524 . S
C654 C655 1.397 . S
C654 C659 1.363 . S
C655 H626 0.950 . S
C655 C654 1.397 . S
C655 C656 1.334 . S
C656 H627 0.950 . S
C656 C655 1.334 . S
C656 C657 1.287 . S
C657 C656 1.287 . S
C657 C658 1.524 . S
C657 H660 0.999 . S
C658 H628 0.950 . S
C658 C657 1.524 . S
C658 C659 1.415 . S
C659 H629 0.950 . S
C659 C654 1.363 . S
C659 C658 1.415 . S
H660 C657 0.999 . S
H661 C642 0.913 . S
H662 C680 0.951 . S
H663 C682 0.951 . S
H664 C684 0.950 . S
H665 C685 0.950 . S
H666 C687 0.950 . S
H667 C690 0.950 . S
H668 C691 0.950 . S
H669 C693 0.950 . S
H670 C694 0.950 . S
H671 C695 0.951 . S
H672 C697 0.951 . S
H673 C699 0.950 . S
H674 C700 0.950 . S
H675 C702 0.950 . S
H676 C705 0.950 . S
H677 C706 0.950 . S
H678 C708 0.950 . S
H679 C709 0.950 . S
C680 H662 0.951 . S
C680 C681 1.366 . S
C680 C682 1.388 . S
C681 C680 1.366 . S
C681 C685 1.385 . S
C682 H663 0.951 . S
C682 C680 1.388 . S
C682 C683 1.366 . S
C683 C682 1.366 . S
C683 C684 1.414 . S
C683 C686 1.499 . S
C684 H664 0.950 . S
C684 C683 1.414 . S
C684 C685 1.374 . S
C685 H665 0.950 . S
C685 C681 1.385 . S
C685 C684 1.374 . S
C686 C683 1.499 . S
C686 C687 1.373 . S
C686 C688 1.389 . S
C687 H666 0.950 . S
C687 C686 1.373 . S
C687 C703 1.377 . S
C688 C686 1.389 . S
C688 C689 1.524 . S
C688 C702 1.377 . S
C689 C688 1.524 . S
C689 C690 1.397 . S
C689 C694 1.363 . S
C690 H667 0.950 . S
C690 C689 1.397 . S
C690 C691 1.334 . S
C691 H668 0.950 . S
C691 C690 1.334 . S
C691 C692 1.287 . S
C692 C691 1.287 . S
C692 C693 1.524 . S
C692 H711 0.913 . S
C693 H669 0.950 . S
C693 C692 1.524 . S
C693 C694 1.415 . S
C694 H670 0.950 . S
C694 C689 1.363 . S
C694 C693 1.415 . S
C695 H671 0.951 . S
C695 C696 1.366 . S
C695 C697 1.388 . S
C696 C695 1.366 . S
C696 C700 1.385 . S
C697 H672 0.951 . S
C697 C695 1.388 . S
C697 C698 1.366 . S
C698 C697 1.366 . S
C698 C699 1.414 . S
C698 C701 1.499 . S
C699 H673 0.950 . S
C699 C698 1.414 . S
C699 C700 1.374 . S
C700 H674 0.950 . S
C700 C696 1.385 . S
C700 C699 1.374 . S
C701 C698 1.499 . S
C701 C702 1.373 . S
C701 C703 1.389 . S
C702 H675 0.950 . S
C702 C688 1.377 . S
C702 C701 1.373 . S
C703 C687 1.377 . S
C703 C701 1.389 . S
C703 C704 1.524 . S
C704 C703 1.524 . S
C704 C705 1.397 . S
C704 C709 1.363 . S
C705 H676 0.950 . S
C705 C704 1.397 . S
C705 C706 1.334 . S
C706 H677 0.950 . S
C706 C705 1.334 . S
C706 C707 1.287 . S
C707 C706 1.287 . S
C707 C708 1.524 . S
C707 H710 0.999 . S
C708 H678 0.950 . S
C708 C707 1.524 . S
C708 C709 1.415 . S
C709 H679 0.950 . S
C709 C704 1.363 . S
C709 C708 1.415 . S
H710 C707 0.999 . S
H711 C692 0.913 . S
H712 C730 0.951 . S
H713 C732 0.951 . S
H714 C734 0.950 . S
H715 C735 0.950 . S
H716 C737 0.950 . S
H717 C740 0.950 . S
H718 C741 0.950 . S
H719 C743 0.950 . S
H720 C744 0.950 . S
H721 C745 0.951 . S
H722 C747 0.951 . S
H723 C749 0.950 . S
H724 C750 0.950 . S
H725 C752 0.950 . S
H726 C755 0.950 . S
H727 C756 0.950 . S
H728 C758 0.950 . S
H729 C759 0.950 . S
C730 H712 0.951 . S
C730 C731 1.366 . S
C730 C732 1.388 . S
C731 C730 1.366 . S
C731 C735 1.385 . S
C732 H713 0.951 . S
C732 C730 1.388 . S
C732 C733 1.366 . S
C733 C732 1.366 . S
C733 C734 1.414 . S
C733 C736 1.499 . S
C734 H714 0.950 . S
C734 C733 1.414 . S
C734 C735 1.374 . S
C735 H715 0.950 . S
C735 C731 1.385 . S
C735 C734 1.374 . S
C736 C733 1.499 . S
C736 C737 1.373 . S
C736 C738 1.389 . S
C737 H716 0.950 . S
C737 C736 1.373 . S
C737 C753 1.377 . S
C738 C736 1.389 . S
C738 C739 1.524 . S
C738 C752 1.377 . S
C739 C738 1.524 . S
C739 C740 1.397 . S
C739 C744 1.363 . S
C740 H717 0.950 . S
C740 C739 1.397 . S
C740 C741 1.334 . S
C741 H718 0.950 . S
C741 C740 1.334 . S
C741 C742 1.287 . S
C742 C741 1.287 . S
C742 C743 1.524 . S
C742 H761 0.913 . S
C743 H719 0.950 . S
C743 C742 1.524 . S
C743 C744 1.415 . S
C744 H720 0.950 . S
C744 C739 1.363 . S
C744 C743 1.415 . S
C745 H721 0.951 . S
C745 C746 1.366 . S
C745 C747 1.388 . S
C746 C745 1.366 . S
C746 C750 1.385 . S
C747 H722 0.951 . S
C747 C745 1.388 . S
C747 C748 1.366 . S
C748 C747 1.366 . S
C748 C749 1.414 . S
C748 C751 1.499 . S
C749 H723 0.950 . S
C749 C748 1.414 . S
C749 C750 1.374 . S
C750 H724 0.950 . S
C750 C746 1.385 . S
C750 C749 1.374 . S
C751 C748 1.499 . S
C751 C752 1.373 . S
C751 C753 1.389 . S
C752 H725 0.950 . S
C752 C738 1.377 . S
C752 C751 1.373 . S
C753 C737 1.377 . S
C753 C751 1.389 . S
C753 C754 1.524 . S
C754 C753 1.524 . S
C754 C755 1.397 . S
C754 C759 1.363 . S
C755 H726 0.950 . S
C755 C754 1.397 . S
C755 C756 1.334 . S
C756 H727 0.950 . S
C756 C755 1.334 . S
C756 C757 1.287 . S
C757 C756 1.287 . S
C757 C758 1.524 . S
C757 H760 0.999 . S
C758 H728 0.950 . S
C758 C757 1.524 . S
C758 C759 1.415 . S
C759 H729 0.950 . S
C759 C754 1.363 . S
C759 C758 1.415 . S
H760 C757 0.999 . S
H761 C742 0.913 . S
H762 C780 0.951 . S
H763 C782 0.951 . S
H764 C784 0.950 . S
H765 C785 0.950 . S
H766 C787 0.950 . S
H767 C790 0.950 . S
H768 C791 0.950 . S
H769 C793 0.950 . S
H770 C794 0.950 . S
H771 C795 0.951 . S
H772 C797 0.951 . S
H773 C799 0.950 . S
H774 C800 0.950 . S
H775 C802 0.950 . S
H776 C805 0.950 . S
H777 C806 0.950 . S
H778 C808 0.950 . S
H779 C809 0.950 . S
C780 H762 0.951 . S
C780 C781 1.366 . S
C780 C782 1.388 . S
C781 C780 1.366 . S
C781 C785 1.385 . S
C782 H763 0.951 . S
C782 C780 1.388 . S
C782 C783 1.366 . S
C783 C782 1.366 . S
C783 C784 1.414 . S
C783 C786 1.499 . S
C784 H764 0.950 . S
C784 C783 1.414 . S
C784 C785 1.374 . S
C785 H765 0.950 . S
C785 C781 1.385 . S
C785 C784 1.374 . S
C786 C783 1.499 . S
C786 C787 1.373 . S
C786 C788 1.389 . S
C787 H766 0.950 . S
C787 C786 1.373 . S
C787 C803 1.377 . S
C788 C786 1.389 . S
C788 C789 1.524 . S
C788 C802 1.377 . S
C789 C788 1.524 . S
C789 C790 1.397 . S
C789 C794 1.363 . S
C790 H767 0.950 . S
C790 C789 1.397 . S
C790 C791 1.334 . S
C791 H768 0.950 . S
C791 C790 1.334 . S
C791 C792 1.287 . S
C792 C791 1.287 . S
C792 C793 1.524 . S
C792 H811 0.913 . S
C793 H769 0.950 . S
C793 C792 1.524 . S
C793 C794 1.415 . S
C794 H770 0.950 . S
C794 C789 1.363 . S
C794 C793 1.415 . S
C795 H771 0.951 . S
C795 C796 1.366 . S
C795 C797 1.388 . S
C796 C795 1.366 . S
C796 C800 1.385 . S
C797 H772 0.951 . S
C797 C795 1.388 . S
C797 C798 1.366 . S
C798 C797 1.366 . S
C798 C799 1.414 . S
C798 C801 1.499 . S
C799 H773 0.950 . S
C799 C798 1.414 . S
C799 C800 1.374 . S
C800 H774 0.950 . S
C800 C796 1.385 . S
C800 C799 1.374 . S
C801 C798 1.499 . S
C801 C802 1.373 . S
C801 C803 1.389 . S
C802 H775 0.950 . S
C802 C788 1.377 . S
C802 C801 1.373 . S
C803 C787 1.377 . S
C803 C801 1.389 . S
C803 C804 1.524 . S
C804 C803 1.524 . S
C804 C805 1.397 . S
C804 C809 1.363 . S
C805 H776 0.950 . S
C805 C804 1.397 . S
C805 C806 1.334 . S
C806 H777 0.950 . S
C806 C805 1.334 . S
C806 C807 1.287 . S
C807 C806 1.287 . S
C807 C808 1.524 . S
C807 H810 0.999 . S
C808 H778 0.950 . S
C808 C807 1.524 . S
C808 C809 1.415 . S
C809 H779 0.950 . S
C809 C804 1.363 . S
C809 C808 1.415 . S
H810 C807 0.999 . S
H811 C792 0.913 . S
H812 C830 0.951 . S
H813 C832 0.951 . S
H814 C834 0.950 . S
H815 C835 0.950 . S
H816 C837 0.950 . S
H817 C840 0.950 . S
H818 C841 0.950 . S
H819 C843 0.950 . S
H820 C844 0.950 . S
H821 C845 0.951 . S
H822 C847 0.951 . S
H823 C849 0.950 . S
H824 C850 0.950 . S
H825 C852 0.950 . S
H826 C855 0.950 . S
H827 C856 0.950 . S
H828 C858 0.950 . S
H829 C859 0.950 . S
C830 H812 0.951 . S
C830 C831 1.366 . S
C830 C832 1.388 . S
C831 C830 1.366 . S
C831 C835 1.385 . S
C832 H813 0.951 . S
C832 C830 1.388 . S
C832 C833 1.366 . S
C833 C832 1.366 . S
C833 C834 1.414 . S
C833 C836 1.499 . S
C834 H814 0.950 . S
C834 C833 1.414 . S
C834 C835 1.374 . S
C835 H815 0.950 . S
C835 C831 1.385 . S
C835 C834 1.374 . S
C836 C833 1.499 . S
C836 C837 1.373 . S
C836 C838 1.389 . S
C837 H816 0.950 . S
C837 C836 1.373 . S
C837 C853 1.377 . S
C838 C836 1.389 . S
C838 C839 1.524 . S
C838 C852 1.377 . S
C839 C838 1.524 . S
C839 C840 1.397 . S
C839 C844 1.363 . S
C840 H817 0.950 . S
C840 C839 1.397 . S
C840 C841 1.334 . S
C841 H818 0.950 . S
C841 C840 1.334 . S
C841 C842 1.287 . S
C842 C841 1.287 . S
C842 C843 1.524 . S
C842 H861 0.913 . S
C843 H819 0.950 . S
C843 C842 1.524 . S
C843 C844 1.415 . S
C844 H820 0.950 . S
C844 C839 1.363 . S
C844 C843 1.415 . S
C845 H821 0.951 . S
C845 C846 1.366 . S
C845 C847 1.388 . S
C846 C845 1.366 . S
C846 C850 1.385 . S
C847 H822 0.951 . S
C847 C845 1.388 . S
C847 C848 1.366 . S
C848 C847 1.366 . S
C848 C849 1.414 . S
C848 C851 1.499 . S
C849 H823 0.950 . S
C849 C848 1.414 . S
C849 C850 1.374 . S
C850 H824 0.950 . S
C850 C846 1.385 . S
C850 C849 1.374 . S
C851 C848 1.499 . S
C851 C852 1.373 . S
C851 C853 1.389 . S
C852 H825 0.950 . S
C852 C838 1.377 . S
C852 C851 1.373 . S
C853 C837 1.377 . S
C853 C851 1.389 . S
C853 C854 1.524 . S
C854 C853 1.524 . S
C854 C855 1.397 . S
C854 C859 1.363 . S
C855 H826 0.950 . S
C855 C854 1.397 . S
C855 C856 1.334 . S
C856 H827 0.950 . S
C856 C855 1.334 . S
C856 C857 1.287 . S
C857 C856 1.287 . S
C857 C858 1.524 . S
C857 H860 0.999 . S
C858 H828 0.950 . S
C858 C857 1.524 . S
C858 C859 1.415 . S
C859 H829 0.950 . S
C859 C854 1.363 . S
C859 C858 1.415 . S
H860 C857 0.999 . S
H861 C842 0.913 . S
H862 C880 0.951 . S
H863 C882 0.951 . S
H864 C884 0.950 . S
H865 C885 0.950 . S
H866 C887 0.950 . S
H867 C890 0.950 . S
H868 C891 0.950 . S
H869 C893 0.950 . S
H870 C894 0.950 . S
H871 C895 0.951 . S
H872 C897 0.951 . S
H873 C899 0.950 . S
H874 C900 0.950 . S
H875 C902 0.950 . S
H876 C905 0.950 . S
H877 C906 0.950 . S
H878 C908 0.950 . S
H879 C909 0.950 . S
C880 H862 0.951 . S
C880 C881 1.366 . S
C880 C882 1.388 . S
C881 C880 1.366 . S
C881 C885 1.385 . S
C882 H863 0.951 . S
C882 C880 1.388 . S
C882 C883 1.366 . S
C883 C882 1.366 . S
C883 C884 1.414 . S
C883 C886 1.499 . S
C884 H864 0.950 . S
C884 C883 1.414 . S
C884 C885 1.374 . S
C885 H865 0.950 . S
C885 C881 1.385 . S
C885 C884 1.374 . S
C886 C883 1.499 . S
C886 C887 1.373 . S
C886 C888 1.389 . S
C887 H866 0.950 . S
C887 C886 1.373 . S
C887 C903 1.377 . S
C888 C886 1.389 . S
C888 C889 1.524 . S
C888 C902 1.377 . S
C889 C888 1.524 . S
C889 C890 1.397 . S
C889 C894 1.363 . S
C890 H867 0.950 . S
C890 C889 1.397 . S
C890 C891 1.334 . S
C891 H868 0.950 . S
C891 C890 1.334 . S
C891 C892 1.287 . S
C892 C891 1.287 . S
C892 C893 1.524 . S
C892 H911 0.913 . S
C893 H869 0.950 . S
C893 C892 1.524 . S
C893 C894 1.415 . S
C894 H870 0.950 . S
C894 C889 1.363 . S
C894 C893 1.415 . S
C895 H871 0.951 . S
C895 C896 1.366 . S
C895 C897 1.388 . S
C896 C895 1.366 . S
C896 C900 1.385 . S
C897 H872 0.951 . S
C897 C895 1.388 . S
C897 C898 1.366 . S
C898 C897 1.366 . S
C898 C899 1.414 . S
C898 C901 1.499 . S
C899 H873 0.950 . S
C899 C898 1.414 . S
C899 C900 1.374 . S
C900 H874 0.950 . S
C900 C896 1.385 . S
C900 C899 1.374 . S
C901 C898 1.499 . S
C901 C902 1.373 . S
C901 C903 1.389 . S
C902 H875 0.950 . S
C902 C888 1.377 . S
C902 C901 1.373 . S
C903 C887 1.377 . S
C903 C901 1.389 . S
C903 C904 1.524 . S
C904 C903 1.524 . S
C904 C905 1.397 . S
C904 C909 1.363 . S
C905 H876 0.950 . S
C905 C904 1.397 . S
C905 C906 1.334 . S
C906 H877 0.950 . S
C906 C905 1.334 . S
C906 C907 1.287 . S
C907 C906 1.287 . S
C907 C908 1.524 . S
C907 H910 0.999 . S
C908 H878 0.950 . S
C908 C907 1.524 . S
C908 C909 1.415 . S
C909 H879 0.950 . S
C909 C904 1.363 . S
C909 C908 1.415 . S
H910 C907 0.999 . S
H911 C892 0.913 . S
H912 C930 0.951 . S
H913 C932 0.951 . S
H914 C934 0.950 . S
H915 C935 0.950 . S
H916 C937 0.947 . S
H917 C940 0.950 . S
H918 C941 0.950 . S
H919 C943 0.950 . S
H920 C944 0.950 . S
H921 C945 0.951 1_655 S
H922 C947 0.943 1_655 S
H923 C949 0.950 1_554 S
H924 C950 0.950 . S
H925 C952 0.950 . S
H926 C955 0.950 . S
H927 C956 0.950 1_556 S
H928 C958 0.950 . S
H929 C959 0.950 . S
C930 H912 0.951 . S
C930 C931 1.366 . S
C930 C932 1.388 . S
C931 C930 1.366 . S
C931 C935 1.385 1_455 S
C932 H913 0.951 . S
C932 C930 1.388 . S
C932 C933 1.366 . S
C933 C932 1.366 . S
C933 C934 1.414 1_455 S
C933 C936 1.499 . S
C934 H914 0.950 . S
C934 C933 1.414 1_655 S
C934 C935 1.374 . S
C935 H915 0.950 . S
C935 C931 1.385 1_655 S
C935 C934 1.374 . S
C936 C933 1.499 . S
C936 C937 1.373 . S
C936 C938 1.389 . S
C937 H916 0.947 . S
C937 C936 1.373 . S
C937 C953 1.377 . S
C938 C936 1.389 . S
C938 C939 1.524 . S
C938 C952 1.377 . S
C939 C938 1.524 . S
C939 C940 1.397 1_455 S
C939 C944 1.363 . S
C940 H917 0.950 . S
C940 C939 1.397 1_655 S
C940 C941 1.334 . S
C941 H918 0.950 . S
C941 C940 1.334 . S
C941 C942 1.287 1_655 S
C942 C941 1.287 1_455 S
C942 C943 1.524 . S
C942 H961 0.913 . S
C943 H919 0.950 . S
C943 C942 1.524 . S
C943 C944 1.415 . S
C944 H920 0.950 . S
C944 C939 1.363 . S
C944 C943 1.415 . S
C945 H921 0.951 1_455 S
C945 C946 1.366 . S
C945 C947 1.389 . S
C946 C945 1.366 . S
C946 C950 1.385 . S
C947 H922 0.943 1_455 S
C947 C945 1.389 . S
C947 C948 1.372 1_556 S
C948 C947 1.372 1_554 S
C948 C949 1.414 1_554 S
C948 C951 1.499 . S
C949 H923 0.950 1_556 S
C949 C948 1.414 1_556 S
C949 C950 1.374 . S
C950 H924 0.950 . S
C950 C946 1.385 . S
C950 C949 1.374 . S
C951 C948 1.499 . S
C951 C952 1.373 . S
C951 C953 1.389 . S
C952 H925 0.950 . S
C952 C938 1.377 . S
C952 C951 1.373 . S
C953 C937 1.377 . S
C953 C951 1.389 . S
C953 C954 1.524 . S
C954 C953 1.524 . S
C954 C955 1.397 . S
C954 C959 1.363 1_455 S
C955 H926 0.950 . S
C955 C954 1.397 . S
C955 C956 1.334 . S
C956 H927 0.950 1_554 S
C956 C955 1.334 . S
C956 C957 1.287 . S
C957 C956 1.287 . S
C957 C958 1.524 1_455 S
C957 H960 0.999 1_554 S
C958 H928 0.950 . S
C958 C957 1.524 1_655 S
C958 C959 1.415 . S
C959 H929 0.950 . S
C959 C954 1.363 1_655 S
C959 C958 1.415 . S
H960 C957 0.999 1_556 S
H961 C942 0.913 . S
H962 C980 0.951 . S
H963 C982 0.951 . S
H964 C984 0.950 . S
H965 C985 0.950 . S
H966 C987 0.950 . S
H967 C990 0.950 . S
H968 C991 0.950 . S
H969 C993 0.950 . S
H970 C994 0.950 . S
H971 C995 0.964 . S
H972 C997 0.951 . S
H973 C999 0.950 . S
H974 C1000 0.950 . S
H975 C1002 0.950 . S
H976 C1005 0.950 . S
H977 C1006 0.950 . S
H978 C1008 0.950 . S
H979 C1009 0.950 . S
C980 H962 0.951 . S
C980 C981 1.366 . S
C980 C982 1.388 . S
C981 C980 1.366 . S
C981 C985 1.385 1_545 S
C982 H963 0.951 . S
C982 C980 1.388 . S
C982 C983 1.366 . S
C983 C982 1.366 . S
C983 C984 1.414 1_545 S
C983 C986 1.499 . S
C984 H964 0.950 . S
C984 C983 1.414 1_565 S
C984 C985 1.374 . S
C985 H965 0.950 . S
C985 C981 1.385 1_565 S
C985 C984 1.374 . S
C986 C983 1.499 . S
C986 C987 1.373 . S
C986 C988 1.389 . S
C987 H966 0.950 . S
C987 C986 1.373 . S
C987 C1003 1.377 . S
C988 C986 1.389 . S
C988 C989 1.524 . S
C988 C1002 1.377 . S
C989 C988 1.524 . S
C989 C990 1.397 1_545 S
C989 C994 1.363 . S
C990 H967 0.950 . S
C990 C989 1.397 1_565 S
C990 C991 1.334 . S
C991 H968 0.950 . S
C991 C990 1.334 . S
C991 C992 1.287 1_565 S
C992 C991 1.287 1_545 S
C992 C993 1.524 . S
C992 H1011 0.913 . S
C993 H969 0.950 . S
C993 C992 1.524 . S
C993 C994 1.415 . S
C994 H970 0.950 . S
C994 C989 1.363 . S
C994 C993 1.415 . S
C995 H971 0.964 . S
C995 C996 1.350 1_565 S
C995 C997 1.391 . S
C996 C995 1.350 1_545 S
C996 C1000 1.385 . S
C997 H972 0.951 . S
C997 C995 1.391 . S
C997 C998 1.366 1_565 S
C998 C997 1.366 1_545 S
C998 C999 1.414 . S
C998 C1001 1.499 . S
C999 H973 0.950 . S
C999 C998 1.414 . S
C999 C1000 1.374 . S
C1000 H974 0.950 . S
C1000 C996 1.385 . S
C1000 C999 1.374 . S
C1001 C998 1.499 . S
C1001 C1002 1.373 . S
C1001 C1003 1.389 . S
C1002 H975 0.950 . S
C1002 C988 1.377 . S
C1002 C1001 1.373 . S
C1003 C987 1.377 . S
C1003 C1001 1.389 . S
C1003 C1004 1.524 . S
C1004 C1003 1.524 . S
C1004 C1005 1.397 . S
C1004 C1009 1.363 1_545 S
C1005 H976 0.950 . S
C1005 C1004 1.397 . S
C1005 C1006 1.334 . S
C1006 H977 0.950 . S
C1006 C1005 1.334 . S
C1006 C1007 1.287 . S
C1007 C1006 1.287 . S
C1007 C1008 1.524 1_545 S
C1007 H1010 0.999 . S
C1008 H978 0.950 . S
C1008 C1007 1.524 1_565 S
C1008 C1009 1.415 . S
C1009 H979 0.950 . S
C1009 C1004 1.363 1_565 S
C1009 C1008 1.415 . S
H1010 C1007 0.999 . S
H1011 C992 0.913 . S
H1012 C1030 0.951 . S
H1013 C1032 0.951 . S
H1014 C1034 0.950 . S
H1015 C1035 0.950 . S
H1016 C1037 0.950 . S
H1017 C1040 0.950 . S
H1018 C1041 0.950 . S
H1019 C1043 0.950 . S
H1020 C1044 0.950 . S
H1021 C1045 0.951 . S
H1022 C1047 0.951 . S
H1023 C1049 0.950 . S
H1024 C1050 0.950 . S
H1025 C1052 0.950 . S
H1026 C1055 0.950 . S
H1027 C1056 0.950 . S
H1028 C1058 0.950 . S
H1029 C1059 0.950 . S
C1030 H1012 0.951 . S
C1030 C1031 1.366 . S
C1030 C1032 1.388 . S
C1031 C1030 1.366 . S
C1031 C1035 1.385 . S
C1032 H1013 0.951 . S
C1032 C1030 1.388 . S
C1032 C1033 1.366 . S
C1033 C1032 1.366 . S
C1033 C1034 1.414 . S
C1033 C1036 1.499 . S
C1034 H1014 0.950 . S
C1034 C1033 1.414 . S
C1034 C1035 1.374 . S
C1035 H1015 0.950 . S
C1035 C1031 1.385 . S
C1035 C1034 1.374 . S
C1036 C1033 1.499 . S
C1036 C1037 1.373 . S
C1036 C1038 1.389 . S
C1037 H1016 0.950 . S
C1037 C1036 1.373 . S
C1037 C1053 1.377 . S
C1038 C1036 1.389 . S
C1038 C1039 1.524 . S
C1038 C1052 1.377 . S
C1039 C1038 1.524 . S
C1039 C1040 1.397 . S
C1039 C1044 1.363 . S
C1040 H1017 0.950 . S
C1040 C1039 1.397 . S
C1040 C1041 1.334 . S
C1041 H1018 0.950 . S
C1041 C1040 1.334 . S
C1041 C1042 1.287 . S
C1042 C1041 1.287 . S
C1042 C1043 1.524 . S
C1042 H1061 0.913 . S
C1043 H1019 0.950 . S
C1043 C1042 1.524 . S
C1043 C1044 1.415 . S
C1044 H1020 0.950 . S
C1044 C1039 1.363 . S
C1044 C1043 1.415 . S
C1045 H1021 0.951 . S
C1045 C1046 1.366 . S
C1045 C1047 1.388 . S
C1046 C1045 1.366 . S
C1046 C1050 1.385 . S
C1047 H1022 0.951 . S
C1047 C1045 1.388 . S
C1047 C1048 1.366 . S
C1048 C1047 1.366 . S
C1048 C1049 1.414 . S
C1048 C1051 1.499 . S
C1049 H1023 0.950 . S
C1049 C1048 1.414 . S
C1049 C1050 1.374 . S
C1050 H1024 0.950 . S
C1050 C1046 1.385 . S
C1050 C1049 1.374 . S
C1051 C1048 1.499 . S
C1051 C1052 1.373 . S
C1051 C1053 1.389 . S
C1052 H1025 0.950 . S
C1052 C1038 1.377 . S
C1052 C1051 1.373 . S
C1053 C1037 1.377 . S
C1053 C1051 1.389 . S
C1053 C1054 1.524 . S
C1054 C1053 1.524 . S
C1054 C1055 1.397 . S
C1054 C1059 1.363 . S
C1055 H1026 0.950 . S
C1055 C1054 1.397 . S
C1055 C1056 1.334 . S
C1056 H1027 0.950 . S
C1056 C1055 1.334 . S
C1056 C1057 1.287 . S
C1057 C1056 1.287 . S
C1057 C1058 1.524 . S
C1057 H1060 0.999 . S
C1058 H1028 0.950 . S
C1058 C1057 1.524 . S
C1058 C1059 1.415 . S
C1059 H1029 0.950 . S
C1059 C1054 1.363 . S
C1059 C1058 1.415 . S
H1060 C1057 0.999 . S
H1061 C1042 0.913 . S
H1062 C1080 0.951 . S
H1063 C1082 0.951 . S
H1064 C1084 0.950 . S
H1065 C1085 0.950 . S
H1066 C1087 0.950 . S
H1067 C1090 0.950 . S
H1068 C1091 0.950 . S
H1069 C1093 0.950 . S
H1070 C1094 0.950 . S
H1071 C1095 0.940 1_565 S
H1072 C1097 0.972 . S
H1073 C1099 0.950 . S
H1074 C1100 0.950 . S
H1075 C1102 0.950 . S
H1076 C1105 0.950 . S
H1077 C1106 0.950 . S
H1078 C1108 0.950 . S
H1079 C1109 0.950 . S
C1080 H1062 0.951 . S
C1080 C1081 1.366 . S
C1080 C1082 1.388 . S
C1081 C1080 1.366 . S
C1081 C1085 1.385 1_545 S
C1082 H1063 0.951 . S
C1082 C1080 1.388 . S
C1082 C1083 1.366 . S
C1083 C1082 1.366 . S
C1083 C1084 1.414 1_545 S
C1083 C1086 1.499 . S
C1084 H1064 0.950 . S
C1084 C1083 1.414 1_565 S
C1084 C1085 1.374 . S
C1085 H1065 0.950 . S
C1085 C1081 1.385 1_565 S
C1085 C1084 1.374 . S
C1086 C1083 1.499 . S
C1086 C1087 1.373 1_545 S
C1086 C1088 1.389 . S
C1087 H1066 0.950 . S
C1087 C1086 1.373 1_565 S
C1087 C1103 1.377 . S
C1088 C1086 1.389 . S
C1088 C1089 1.524 . S
C1088 C1102 1.377 . S
C1089 C1088 1.524 . S
C1089 C1090 1.397 . S
C1089 C1094 1.363 . S
C1090 H1067 0.950 . S
C1090 C1089 1.397 . S
C1090 C1091 1.334 . S
C1091 H1068 0.950 . S
C1091 C1090 1.334 . S
C1091 C1092 1.287 . S
C1092 C1091 1.287 . S
C1092 C1093 1.524 . S
C1092 H1111 0.913 . S
C1093 H1069 0.950 . S
C1093 C1092 1.524 . S
C1093 C1094 1.415 . S
C1094 H1070 0.950 . S
C1094 C1089 1.363 . S
C1094 C1093 1.415 . S
C1095 H1071 0.940 1_545 S
C1095 C1096 1.376 . S
C1095 C1097 1.390 1_545 S
C1096 C1095 1.376 . S
C1096 C1100 1.385 . S
C1097 H1072 0.972 . S
C1097 C1095 1.390 1_565 S
C1097 C1098 1.344 1_565 S
C1098 C1097 1.344 1_545 S
C1098 C1099 1.414 . S
C1098 C1101 1.499 . S
C1099 H1073 0.950 . S
C1099 C1098 1.414 . S
C1099 C1100 1.374 . S
C1100 H1074 0.950 . S
C1100 C1096 1.385 . S
C1100 C1099 1.374 . S
C1101 C1098 1.499 . S
C1101 C1102 1.373 . S
C1101 C1103 1.389 1_545 S
C1102 H1075 0.950 . S
C1102 C1088 1.377 . S
C1102 C1101 1.373 . S
C1103 C1087 1.377 . S
C1103 C1101 1.389 1_565 S
C1103 C1104 1.524 . S
C1104 C1103 1.524 . S
C1104 C1105 1.397 . S
C1104 C1109 1.363 . S
C1105 H1076 0.950 . S
C1105 C1104 1.397 . S
C1105 C1106 1.334 . S
C1106 H1077 0.950 . S
C1106 C1105 1.334 . S
C1106 C1107 1.287 . S
C1107 C1106 1.287 . S
C1107 C1108 1.524 . S
C1107 H1110 0.999 . S
C1108 H1078 0.950 . S
C1108 C1107 1.524 . S
C1108 C1109 1.415 . S
C1109 H1079 0.950 . S
C1109 C1104 1.363 . S
C1109 C1108 1.415 . S
H1110 C1107 0.999 . S
H1111 C1092 0.913 . S
H1112 C1130 0.951 . S
H1113 C1132 0.951 . S
H1114 C1134 0.950 . S
H1115 C1135 0.950 . S
H1116 C1137 0.950 . S
H1117 C1140 0.950 . S
H1118 C1141 0.950 . S
H1119 C1143 0.950 . S
H1120 C1144 0.950 . S
H1121 C1145 0.951 . S
H1122 C1147 0.951 1_556 S
H1123 C1149 0.962 . S
H1124 C1150 0.950 . S
H1125 C1152 0.950 . S
H1126 C1155 0.950 . S
H1127 C1156 0.950 . S
H1128 C1158 0.950 . S
H1129 C1159 0.950 . S
C1130 H1112 0.951 . S
C1130 C1131 1.366 . S
C1130 C1132 1.388 . S
C1131 C1130 1.366 . S
C1131 C1135 1.385 . S
C1132 H1113 0.951 . S
C1132 C1130 1.388 . S
C1132 C1133 1.366 . S
C1133 C1132 1.366 . S
C1133 C1134 1.414 . S
C1133 C1136 1.499 . S
C1134 H1114 0.950 . S
C1134 C1133 1.414 . S
C1134 C1135 1.374 . S
C1135 H1115 0.950 . S
C1135 C1131 1.385 . S
C1135 C1134 1.374 . S
C1136 C1133 1.499 . S
C1136 C1137 1.373 . S
C1136 C1138 1.389 . S
C1137 H1116 0.950 . S
C1137 C1136 1.373 . S
C1137 C1153 1.377 . S
C1138 C1136 1.389 . S
C1138 C1139 1.524 . S
C1138 C1152 1.377 . S
C1139 C1138 1.524 . S
C1139 C1140 1.397 . S
C1139 C1144 1.363 . S
C1140 H1117 0.950 . S
C1140 C1139 1.397 . S
C1140 C1141 1.334 . S
C1141 H1118 0.950 . S
C1141 C1140 1.334 . S
C1141 C1142 1.287 . S
C1142 C1141 1.287 . S
C1142 C1143 1.524 . S
C1142 H1161 0.913 . S
C1143 H1119 0.950 . S
C1143 C1142 1.524 . S
C1143 C1144 1.415 . S
C1144 H1120 0.950 . S
C1144 C1139 1.363 . S
C1144 C1143 1.415 . S
C1145 H1121 0.951 . S
C1145 C1146 1.366 . S
C1145 C1147 1.388 . S
C1146 C1145 1.366 . S
C1146 C1150 1.385 . S
C1147 H1122 0.951 1_554 S
C1147 C1145 1.388 . S
C1147 C1148 1.366 1_554 S
C1148 C1147 1.366 1_556 S
C1148 C1149 1.414 1_556 S
C1148 C1151 1.499 . S
C1149 H1123 0.962 . S
C1149 C1148 1.414 1_554 S
C1149 C1150 1.374 . S
C1150 H1124 0.950 . S
C1150 C1146 1.385 . S
C1150 C1149 1.374 . S
C1151 C1148 1.499 . S
C1151 C1152 1.373 . S
C1151 C1153 1.389 . S
C1152 H1125 0.950 . S
C1152 C1138 1.377 . S
C1152 C1151 1.373 . S
C1153 C1137 1.377 . S
C1153 C1151 1.389 . S
C1153 C1154 1.524 . S
C1154 C1153 1.524 . S
C1154 C1155 1.397 . S
C1154 C1159 1.363 . S
C1155 H1126 0.950 . S
C1155 C1154 1.397 . S
C1155 C1156 1.334 . S
C1156 H1127 0.950 . S
C1156 C1155 1.334 . S
C1156 C1157 1.287 . S
C1157 C1156 1.287 . S
C1157 C1158 1.524 . S
C1157 H1160 0.999 . S
C1158 H1128 0.950 . S
C1158 C1157 1.524 . S
C1158 C1159 1.415 . S
C1159 H1129 0.950 . S
C1159 C1154 1.363 . S
C1159 C1158 1.415 . S
H1160 C1157 0.999 . S
H1161 C1142 0.913 . S
H1162 C1180 0.951 . S
H1163 C1182 0.951 . S
H1164 C1184 0.950 . S
H1165 C1185 0.950 . S
H1166 C1187 0.950 . S
H1167 C1190 0.950 1_455 S
H1168 C1191 0.950 . S
H1169 C1193 0.950 . S
H1170 C1194 0.950 . S
H1171 C1195 0.951 . S
H1172 C1197 0.951 . S
H1173 C1199 0.950 . S
H1174 C1200 0.950 . S
H1175 C1202 0.950 . S
H1176 C1205 0.921 1_655 S
H1177 C1206 0.950 . S
H1178 C1208 0.950 . S
H1179 C1209 0.950 . S
C1180 H1162 0.951 . S
C1180 C1181 1.367 . S
C1180 C1182 1.388 . S
C1181 C1180 1.367 . S
C1181 C1185 1.384 1_655 S
C1182 H1163 0.951 . S
C1182 C1180 1.388 . S
C1182 C1183 1.366 1_655 S
C1183 C1182 1.366 1_455 S
C1183 C1184 1.414 . S
C1183 C1186 1.499 . S
C1184 H1164 0.950 . S
C1184 C1183 1.414 . S
C1184 C1185 1.374 . S
C1185 H1165 0.950 . S
C1185 C1181 1.384 1_455 S
C1185 C1184 1.374 . S
C1186 C1183 1.499 . S
C1186 C1187 1.373 . S
C1186 C1188 1.389 1_455 S
C1187 H1166 0.950 . S
C1187 C1186 1.373 . S
C1187 C1203 1.377 . S
C1188 C1186 1.389 1_655 S
C1188 C1189 1.524 . S
C1188 C1202 1.377 . S
C1189 C1188 1.524 . S
C1189 C1190 1.397 . S
C1189 C1194 1.363 . S
C1190 H1167 0.950 1_655 S
C1190 C1189 1.397 . S
C1190 C1191 1.334 . S
C1191 H1168 0.950 . S
C1191 C1190 1.334 . S
C1191 C1192 1.287 . S
C1192 C1191 1.287 . S
C1192 C1193 1.524 . S
C1192 H1211 0.913 . S
C1193 H1169 0.950 . S
C1193 C1192 1.524 . S
C1193 C1194 1.415 . S
C1194 H1170 0.950 . S
C1194 C1189 1.363 . S
C1194 C1193 1.415 . S
C1195 H1171 0.951 . S
C1195 C1196 1.366 . S
C1195 C1197 1.388 . S
C1196 C1195 1.366 . S
C1196 C1200 1.385 1_455 S
C1197 H1172 0.951 . S
C1197 C1195 1.388 . S
C1197 C1198 1.366 . S
C1198 C1197 1.366 . S
C1198 C1199 1.414 1_455 S
C1198 C1201 1.499 . S
C1199 H1173 0.950 . S
C1199 C1198 1.414 1_655 S
C1199 C1200 1.374 . S
C1200 H1174 0.950 . S
C1200 C1196 1.385 1_655 S
C1200 C1199 1.374 . S
C1201 C1198 1.499 . S
C1201 C1202 1.373 1_455 S
C1201 C1203 1.389 . S
C1202 H1175 0.950 . S
C1202 C1188 1.377 . S
C1202 C1201 1.373 1_655 S
C1203 C1187 1.377 . S
C1203 C1201 1.389 . S
C1203 C1204 1.524 . S
C1204 C1203 1.524 . S
C1204 C1205 1.397 . S
C1204 C1209 1.363 . S
C1205 H1176 0.921 1_455 S
C1205 C1204 1.397 . S
C1205 C1206 1.334 . S
C1206 H1177 0.950 . S
C1206 C1205 1.334 . S
C1206 C1207 1.287 . S
C1207 C1206 1.287 . S
C1207 C1208 1.524 . S
C1207 H1210 0.999 . S
C1208 H1178 0.950 . S
C1208 C1207 1.524 . S
C1208 C1209 1.415 . S
C1209 H1179 0.950 . S
C1209 C1204 1.363 . S
C1209 C1208 1.415 . S
H1210 C1207 0.999 . S
H1211 C1192 0.913 . S
C331 C12 2.818 . S
C346 C303 2.762 . S
C381 C52 2.846 . S
C396 C239 2.795 . S
C431 C111 2.901 . S
C446 C271 2.847 . S
C481 C31 3.063 . S
C496 C297 3.006 . S
C546 C233 2.975 . S
C531 C71 3.036 . S
C596 C265 2.919 . S
C581 C92 2.974 . S
C631 C48 0.407 . S
C646 C175 0.356 . S
C681 C109 0.423 . S
C696 C207 0.304 . S
C731 C29 0.403 . S
C746 C137 0.384 . S
C796 C169 0.255 . S
C781 C69 0.349 . S
C846 C201 0.289 . S
C831 C88 0.266 . S
C881 C8 0.266 . S
C896 C143 0.347 . S
C946 C213 1.097 . S
C931 C17 1.093 1_455 S
C981 C57 1.089 . S
C996 C149 1.080 . S
C1031 C97 1.099 . S
C1046 C181 1.107 . S
C1096 C277 1.732 . S
C1081 C42 1.709 . S
C1146 C309 1.731 . S
C1131 C82 1.716 . S
C1181 C2 1.723 1_655 S
C1196 C245 1.736 . S
