# Generated by pormake.
# Topology anh, (6,3)-cn, num edge types: 1
# Building blocks:
#     Node 0, Type 0, BuildingBlock: HISSIN_clean_sbu_0, # of connection points: 6
#     Node 1, Type 0, BuildingBlock: HISSIN_clean_sbu_0, # of connection points: 6
#     Node 2, Type 0, BuildingBlock: HISSIN_clean_sbu_0, # of connection points: 6
#     Node 3, Type 1, BuildingBlock: QEWDON_clean_linker_0, # of connection points: 3
#     Node 4, Type 1, BuildingBlock: QEWDON_clean_linker_0, # of connection points: 3
#     Node 5, Type 1, BuildingBlock: QEWDON_clean_linker_0, # of connection points: 3
#     Node 6, Type 1, BuildingBlock: QEWDON_clean_linker_0, # of connection points: 3
#     Node 7, Type 1, BuildingBlock: QEWDON_clean_linker_0, # of connection points: 3
#     Node 8, Type 1, BuildingBlock: QEWDON_clean_linker_0, # of connection points: 3
#     Edge 9, Type (0, 1), BuildingBlock: UVAHIK_clean_linker_0, # of connection points: 2
#     Edge 10, Type (0, 1), BuildingBlock: UVAHIK_clean_linker_0, # of connection points: 2
#     Edge 11, Type (0, 1), BuildingBlock: UVAHIK_clean_linker_0, # of connection points: 2
#     Edge 12, Type (0, 1), BuildingBlock: UVAHIK_clean_linker_0, # of connection points: 2
#     Edge 13, Type (0, 1), BuildingBlock: UVAHIK_clean_linker_0, # of connection points: 2
#     Edge 14, Type (0, 1), BuildingBlock: UVAHIK_clean_linker_0, # of connection points: 2
#     Edge 15, Type (0, 1), BuildingBlock: UVAHIK_clean_linker_0, # of connection points: 2
#     Edge 16, Type (0, 1), BuildingBlock: UVAHIK_clean_linker_0, # of connection points: 2
#     Edge 17, Type (0, 1), BuildingBlock: UVAHIK_clean_linker_0, # of connection points: 2
#     Edge 18, Type (0, 1), BuildingBlock: UVAHIK_clean_linker_0, # of connection points: 2
#     Edge 19, Type (0, 1), BuildingBlock: UVAHIK_clean_linker_0, # of connection points: 2
#     Edge 20, Type (0, 1), BuildingBlock: UVAHIK_clean_linker_0, # of connection points: 2
#     Edge 21, Type (0, 1), BuildingBlock: UVAHIK_clean_linker_0, # of connection points: 2
#     Edge 22, Type (0, 1), BuildingBlock: UVAHIK_clean_linker_0, # of connection points: 2
#     Edge 23, Type (0, 1), BuildingBlock: UVAHIK_clean_linker_0, # of connection points: 2
#     Edge 24, Type (0, 1), BuildingBlock: UVAHIK_clean_linker_0, # of connection points: 2
#     Edge 25, Type (0, 1), BuildingBlock: UVAHIK_clean_linker_0, # of connection points: 2
#     Edge 26, Type (0, 1), BuildingBlock: UVAHIK_clean_linker_0, # of connection points: 2
# Relax obj value: 0.161
# Max RMSD: 0.132
# Mean RMSD: 0.121
data_MOF--net-anh--node1-HISSIN_clean_sbu_0--node2-QEWDON_clean_linker_0--edge1-UVAHIK_clean_linker_0
_symmetry_space_group_name_H-M    P1
_symmetry_Int_Tables_number       1
_symmetry_cell_setting            triclinic
loop_
_symmetry_equiv_pos_as_xyz
'x, y, z'
_cell_length_a     40.874406
_cell_length_b     40.801657
_cell_length_c     64.20268
_cell_angle_alpha  96.389851
_cell_angle_beta   93.294841
_cell_angle_gamma 120.19177
loop_
_atom_site_label
_atom_site_type_symbol
_atom_site_fract_x
_atom_site_fract_y
_atom_site_fract_z
_atom_type_partial_charge
Eu0 Eu 0.09976 0.53644 0.14737 0.0
Eu1 Eu 0.14775 0.62998 0.15652 0.0
C2 C 0.12452 0.58217 0.19462 0.0
C3 C 1.01644 0.44003 0.12749 0.0
C4 C 0.99898 0.45989 0.12095 0.0
C5 C 0.95607 0.38004 0.11783 0.0
C6 C 0.96012 0.44022 0.11357 0.0
C7 C 0.99506 0.39995 0.1255 0.0
C8 C 0.9379 0.4001 0.11234 0.0
C9 C 1.05603 0.46205 0.13782 0.0
O10 O 0.19428 0.61469 0.15876 0.0
O11 O 0.16067 0.55042 0.14457 0.0
C12 C 0.19334 0.58268 0.15131 0.0
O13 O 0.09473 0.55716 0.11682 0.0
O14 O 0.19152 0.68466 0.17522 0.0
O15 O 0.15783 0.68387 0.1476 0.0
O16 O 0.15268 0.61218 0.12327 0.0
C17 C 0.12353 0.58547 0.11002 0.0
O18 O 1.05444 0.55223 0.15298 0.0
O19 O 1.08636 0.61491 0.14768 0.0
O20 O 0.12567 0.61106 0.18685 0.0
O21 O 1.0812 0.48289 0.12609 0.0
O22 O 1.06078 0.48121 0.15652 0.0
O23 O 0.12296 0.55343 0.18218 0.0
C24 C 0.22321 0.73204 0.15344 0.0
C25 C 0.22075 0.74631 0.13482 0.0
C26 C 0.29242 0.76836 0.15561 0.0
C27 C 0.25375 0.7712 0.12664 0.0
C28 C 0.25943 0.7434 0.16377 0.0
C29 C 0.28995 0.78262 0.13699 0.0
C30 C 0.18809 0.70464 0.16159 0.0
C31 C 1.05439 0.5835 0.14968 0.0
H32 H 1.01514 0.4909 0.12233 0.0
H33 H 0.93996 0.3491 0.11677 0.0
H34 H 0.94727 0.45686 0.10992 0.0
H35 H 1.00822 0.38421 0.13041 0.0
H36 H 0.19327 0.73816 0.12649 0.0
H37 H 0.3199 0.77729 0.16423 0.0
H38 H 0.2509 0.78158 0.11224 0.0
H39 H 0.26237 0.73313 0.1782 0.0
Eu40 Eu 0.68107 0.08823 0.48303 0.0
Eu41 Eu 0.64015 0.13847 0.48919 0.0
C42 C 0.6664 0.11255 0.52912 0.0
C43 C 0.68829 1.00576 0.46017 0.0
C44 C 0.65281 0.99317 0.44847 0.0
C45 C 0.68095 0.94344 0.44902 0.0
C46 C 0.63116 0.95576 0.4375 0.0
C47 C 0.70267 0.98103 0.46006 0.0
C48 C 0.64453 0.93018 0.4381 0.0
C49 C 0.70812 1.04354 0.47363 0.0
O50 O 0.70343 0.18399 0.49564 0.0
O51 O 0.72956 0.14908 0.48225 0.0
C52 C 0.73266 0.1823 0.48918 0.0
O53 O 0.64928 0.0831 0.45167 0.0
O54 O 0.63227 0.18223 0.50685 0.0
O55 O 0.59919 0.15242 0.47608 0.0
O56 O 0.66185 0.14404 0.45785 0.0
C57 C 0.65412 0.11382 0.44452 0.0
O58 O 0.6202 1.04387 0.48643 0.0
O59 O 0.58997 0.07679 0.47963 0.0
O60 O 0.6395 0.11655 0.51977 0.0
O61 O 0.71477 0.07225 0.46388 0.0
O62 O 0.69396 1.04504 0.49118 0.0
O63 O 0.6913 0.10915 0.51835 0.0
C64 C 0.62356 0.21845 0.48367 0.0
C65 C 0.65894 0.23668 0.47595 0.0
C66 C 0.61377 0.27008 0.4765 0.0
C67 C 0.6719 0.27168 0.46877 0.0
C68 C 0.60093 0.23514 0.4838 0.0
C69 C 0.64946 0.28876 0.469 0.0
C70 C 0.61026 0.18165 0.49105 0.0
C71 C 0.58867 1.0445 0.48216 0.0
H72 H 0.64119 1.01187 0.44844 0.0
H73 H 0.69173 0.92416 0.44999 0.0
H74 H 0.60335 0.94642 0.42914 0.0
H75 H 0.72991 0.9903 0.4691 0.0
H76 H 0.67655 0.22382 0.47551 0.0
H77 H 0.59614 0.28291 0.4772 0.0
H78 H 0.69937 0.28531 0.46299 0.0
H79 H 0.57351 0.22131 0.48963 0.0
Eu80 Eu 0.59655 0.56289 0.8172 0.0
Eu81 Eu 0.68894 0.61084 0.82103 0.0
C82 C 0.64699 0.59855 0.86273 0.0
C83 C 0.4993 0.54928 0.8161 0.0
C84 C 0.50882 0.57801 0.83351 0.0
C85 C 0.45478 0.56492 0.79992 0.0
C86 C 0.49178 0.60029 0.83399 0.0
C87 C 0.47149 0.5423 0.79956 0.0
C88 C 0.46538 0.59462 0.81694 0.0
C89 C 0.52267 0.53148 0.81324 0.0
O90 O 0.67293 0.54835 0.81324 0.0
O91 O 0.6122 0.51776 0.8225 0.0
C92 C 0.64296 0.5173 0.81761 0.0
O93 O 0.61018 0.54587 0.786 0.0
O94 O 0.74553 0.62594 0.83513 0.0
O95 O 0.74006 0.65276 0.80898 0.0
O96 O 0.66612 0.60187 0.78679 0.0
C97 C 0.6367 0.57047 0.77618 0.0
O98 O 0.61388 0.62277 0.81003 0.0
O99 O 0.6736 0.65682 0.82869 0.0
O100 O 0.67599 0.60022 0.85409 0.0
O101 O 0.54245 0.54094 0.79746 0.0
O102 O 0.54262 0.53217 0.83012 0.0
O103 O 0.61658 0.59282 0.85109 0.0
C104 C 0.78608 0.63448 0.80886 0.0
C105 C 0.81389 0.66029 0.79777 0.0
C106 C 0.80126 0.58597 0.7962 0.0
C107 C 0.83551 0.64913 0.78608 0.0
C108 C 0.7795 0.59703 0.80768 0.0
C109 C 0.8298 0.61196 0.7854 0.0
C110 C 0.76253 0.64596 0.82054 0.0
C111 C 0.64375 0.6559 0.81906 0.0
H112 H 0.53074 0.58456 0.8463 0.0
H113 H 0.43421 0.55979 0.78669 0.0
H114 H 0.50065 0.62321 0.84721 0.0
H115 H 0.46412 0.52061 0.78588 0.0
H116 H 0.81889 0.68908 0.79816 0.0
H117 H 0.79647 0.55739 0.79641 0.0
H118 H 0.85692 0.66972 0.77775 0.0
H119 H 0.75775 0.57628 0.81579 0.0
H120 H 0.58759 0.21161 0.23971 0.0
C121 C 0.5803 0.18874 0.22672 0.0
C122 C 0.57885 0.15483 0.23074 0.0
C123 C 0.57268 0.19338 0.20594 0.0
H124 H 0.56893 0.09958 0.21651 0.0
C125 C 0.56993 0.12573 0.21365 0.0
C126 C 0.56147 0.12959 0.19292 0.0
C127 C 0.56275 0.16336 0.18921 0.0
C128 C 0.57658 0.22998 0.20135 0.0
H129 H 0.55603 0.16628 0.17319 0.0
C130 C 0.59455 0.24558 0.18398 0.0
C131 C 0.59947 0.28045 0.17934 0.0
C132 C 0.56329 0.24985 0.21417 0.0
H133 H 0.54902 0.23839 0.22758 0.0
C134 C 0.5681 0.28467 0.20963 0.0
H135 H 0.60624 0.23128 0.17447 0.0
C136 C 0.58636 0.30013 0.19238 0.0
H137 H 0.59029 0.32734 0.18924 0.0
H138 H 0.55785 0.29984 0.2196 0.0
H139 H 0.50999 0.54529 0.55285 0.0
C140 C 0.52974 0.54381 0.54276 0.0
C141 C 0.56262 0.54505 0.55172 0.0
C142 C 0.52336 0.54273 0.52091 0.0
H143 H 0.61307 0.54358 0.54534 0.0
C144 C 0.58853 0.5442 0.53855 0.0
C145 C 0.58214 0.54239 0.51663 0.0
C146 C 0.54959 0.54191 0.50799 0.0
C147 C 0.49096 0.54527 0.51154 0.0
H148 H 0.54463 0.54096 0.4911 0.0
C149 C 0.49801 0.57265 0.49838 0.0
C150 C 0.46827 0.57625 0.48915 0.0
C151 C 0.45342 0.521 0.51548 0.0
H152 H 0.44729 0.4996 0.5256 0.0
C153 C 0.42343 0.52381 0.50593 0.0
H154 H 0.52705 0.59162 0.49546 0.0
C155 C 0.43071 0.55122 0.49274 0.0
H156 H 0.40727 0.55345 0.48578 0.0
H157 H 0.39448 0.50482 0.50886 0.0
H158 H 0.18826 0.70381 0.90267 0.0
C159 C 0.16712 0.68269 0.8899 0.0
C160 C 0.13879 0.64645 0.89378 0.0
C161 C 0.16916 0.69162 0.86941 0.0
H162 H 0.08997 0.59165 0.87949 0.0
C163 C 0.11246 0.61932 0.87669 0.0
C164 C 0.11419 0.62802 0.85605 0.0
C165 C 0.14299 0.66421 0.85257 0.0
C166 C 0.19943 0.72923 0.8653 0.0
H167 H 0.14429 0.67186 0.83688 0.0
C168 C 0.22624 0.73069 0.85226 0.0
C169 C 0.25596 0.76606 0.84828 0.0
C170 C 0.20198 0.76345 0.87437 0.0
H171 H 0.18144 0.7628 0.8845 0.0
C172 C 0.23095 0.79873 0.87017 0.0
H173 H 0.22476 0.7041 0.84601 0.0
C174 C 0.25794 0.80015 0.85726 0.0
H175 H 0.28044 0.82781 0.85446 0.0
H176 H 0.23272 0.82509 0.8771 0.0
H177 H 0.12093 0.59007 0.43037 0.0
C178 C 0.14922 0.61436 0.43608 0.0
C179 C 0.17213 0.63507 0.4213 0.0
C180 C 0.16169 0.62615 0.45799 0.0
H181 H 0.22523 0.68382 0.41679 0.0
C182 C 0.20817 0.66782 0.42836 0.0
C183 C 0.22236 0.68042 0.44996 0.0
C184 C 0.19889 0.65927 0.46468 0.0
C185 C 0.13506 0.6056 0.47375 0.0
H186 H 0.21004 0.66849 0.4813 0.0
C187 C 0.10524 0.56595 0.46928 0.0
C188 C 1.08062 0.5483 0.48453 0.0
C189 C 0.13849 0.62667 0.49352 0.0
H190 H 0.15921 0.65708 0.49751 0.0
C191 C 0.11452 0.60939 0.50845 0.0
H192 H 0.10155 0.54858 0.45433 0.0
C193 C 1.08609 0.57076 0.50409 0.0
H194 H 1.06772 0.55849 0.51602 0.0
H195 H 0.11776 0.62627 0.52351 0.0
H196 H 0.6409 0.06164 0.75905 0.0
C197 C 0.64455 0.0889 0.76593 0.0
C198 C 0.64717 0.11467 0.75235 0.0
C199 C 0.6445 0.09729 0.78788 0.0
H200 H 0.65112 0.16849 0.74994 0.0
C201 C 0.64994 0.14938 0.7607 0.0
C202 C 0.65104 0.1598 0.78243 0.0
C203 C 0.64846 0.13353 0.79594 0.0
C204 C 0.638 0.06747 0.80203 0.0
H205 H 0.65015 0.14184 0.81273 0.0
C206 C 0.6466 1.03763 0.79712 0.0
C207 C 0.63866 1.00971 0.8106 0.0
C208 C 0.62102 0.0677 0.82052 0.0
H209 H 0.61217 0.0882 0.82469 0.0
C210 C 0.61387 1.04072 0.83383 0.0
H211 H 0.65966 1.03608 0.78315 0.0
C212 C 0.62265 1.01215 0.829 0.0
H213 H 0.61633 0.99136 0.83957 0.0
H214 H 0.60088 1.04166 0.84794 0.0
H215 H 0.61271 0.59797 0.09516 0.0
C216 C 0.63566 0.59419 0.10115 0.0
C217 C 0.65888 0.59018 0.08689 0.0
C218 C 0.64241 0.5943 0.12299 0.0
H219 H 0.70886 0.58589 0.08396 0.0
C220 C 0.68968 0.58671 0.09469 0.0
C221 C 0.69726 0.5857 0.11613 0.0
C222 C 0.67329 0.58935 0.13018 0.0
C223 C 0.61923 0.60244 0.13831 0.0
H224 H 0.67869 0.58786 0.14663 0.0
C225 C 0.58126 0.59487 0.13243 0.0
C226 C 0.56236 0.60627 0.14703 0.0
C227 C 0.63662 0.62072 0.15915 0.0
H228 H 0.66563 0.62866 0.16442 0.0
C229 C 0.61765 0.63063 0.17359 0.0
H230 H 0.56666 0.58096 0.11662 0.0
C231 C 0.58118 0.62366 0.16764 0.0
H232 H 0.56762 0.63226 0.17929 0.0
H233 H 0.63173 0.6446 0.1895 0.0
C234 C 0.26599 0.61803 0.15536 0.0
C235 C 0.23053 0.58343 0.14991 0.0
C236 C 0.30071 0.61911 0.15338 0.0
C237 C 0.34442 0.55674 0.14761 0.0
H238 H 0.42785 0.64641 0.1305 0.0
C239 C 0.49041 0.56642 0.13468 0.0
C240 C 0.52389 0.60228 0.14167 0.0
C241 C 0.45396 0.56274 0.13372 0.0
C242 C 0.40517 0.62119 0.13554 0.0
H243 H 0.20473 0.52262 0.13811 0.0
H244 H 0.26487 0.5245 0.13465 0.0
H245 H 0.36715 0.64289 0.13347 0.0
H246 H 0.54475 0.6625 0.15239 0.0
H247 H 0.48235 0.65636 0.15072 0.0
H248 H 0.38271 0.53523 0.14985 0.0
C249 C 0.26596 0.55093 0.14067 0.0
C250 C 0.37001 0.61919 0.13727 0.0
C251 C 0.23119 0.54988 0.14257 0.0
C252 C 0.51977 0.63442 0.1468 0.0
C253 C 0.48365 0.63084 0.14577 0.0
C254 C 0.37971 0.55879 0.14593 0.0
C255 C 0.30147 0.58563 0.14591 0.0
C256 C 0.33896 0.5871 0.14354 0.0
C257 C 0.44984 0.59486 0.13959 0.0
C258 C 0.41099 0.59126 0.14006 0.0
H259 H 0.26707 0.64459 0.16109 0.0
H260 H 0.3271 0.64639 0.15796 0.0
H261 H 0.32168 0.53162 0.15268 0.0
H262 H 0.49229 0.54094 0.13085 0.0
H263 H 0.42895 0.53453 0.1286 0.0
C264 C 0.80182 0.21846 0.48226 0.0
C265 C 0.76959 0.21906 0.48851 0.0
C266 C 0.83574 0.25264 0.48056 0.0
C267 C 0.87439 0.35646 0.47556 0.0
H268 H 0.97222 0.36643 0.49154 0.0
C269 C 1.01861 0.49208 0.46423 0.0
C270 C 1.04865 0.50691 0.48095 0.0
C271 C 0.98524 0.45582 0.46356 0.0
C272 C 0.94525 0.3644 0.48705 0.0
H273 H 0.74855 0.25712 0.49782 0.0
H274 H 0.80745 0.3164 0.49507 0.0
H275 H 0.91353 0.30741 0.49448 0.0
H276 H 1.06739 0.49417 0.50958 0.0
H277 H 1.01019 0.43154 0.50833 0.0
H278 H 0.90627 0.41388 0.46857 0.0
C279 C 0.80648 0.28938 0.49126 0.0
C280 C 0.91131 0.33011 0.48853 0.0
C281 C 0.77259 0.25518 0.49305 0.0
C282 C 1.04502 0.48368 0.49638 0.0
C283 C 1.01201 0.44751 0.49563 0.0
C284 C 0.90839 0.39073 0.47398 0.0
C285 C 0.83872 0.2888 0.48494 0.0
C286 C 0.87517 0.32551 0.48296 0.0
C287 C 0.98109 0.43314 0.47947 0.0
C288 C 0.94451 0.39551 0.47986 0.0
H289 H 0.80082 0.19141 0.47845 0.0
H290 H 0.85945 0.25055 0.47538 0.0
H291 H 0.84739 0.35419 0.47082 0.0
H292 H 1.02011 0.50928 0.45223 0.0
H293 H 0.96245 0.44579 0.45067 0.0
C294 C 0.61385 0.69279 0.80596 0.0
C295 C 0.64422 0.69283 0.81761 0.0
C296 C 0.6147 0.72733 0.8041 0.0
C297 C 0.66216 0.8311 0.82902 0.0
H298 H 0.62232 0.84318 0.77604 0.0
C299 C 0.67561 0.97728 0.81846 0.0
C300 C 0.64571 0.97697 0.80625 0.0
C301 C 0.67728 0.94361 0.81848 0.0
C302 C 0.63322 0.84041 0.79109 0.0
H303 H 0.69935 0.73023 0.83655 0.0
H304 H 0.70079 0.79005 0.83338 0.0
H305 H 0.62072 0.78339 0.77921 0.0
H306 H 0.59388 0.94052 0.78459 0.0
H307 H 0.59643 0.88185 0.78454 0.0
H308 H 0.67405 0.88764 0.8411 0.0
C309 C 0.67605 0.76323 0.82573 0.0
C310 C 0.63231 0.80581 0.79291 0.0
C311 C 0.67531 0.7287 0.82748 0.0
C312 C 0.61797 0.94211 0.79366 0.0
C313 C 0.61942 0.90827 0.79377 0.0
C314 C 0.66285 0.86557 0.82725 0.0
C315 C 0.64584 0.76327 0.81392 0.0
C316 C 0.64679 0.80045 0.81192 0.0
C317 C 0.64866 0.90809 0.80658 0.0
C318 C 0.64846 0.87107 0.80824 0.0
H319 H 0.58929 0.66596 0.79814 0.0
H320 H 0.59056 0.72574 0.79511 0.0
H321 H 0.67305 0.82823 0.84406 0.0
H322 H 0.69698 1.0034 0.82872 0.0
H323 H 0.7008 0.94544 0.82824 0.0
C324 C 0.98248 0.5502 0.15019 0.0
C325 C 1.01717 0.58316 0.14793 0.0
C326 C 0.94767 0.54974 0.14836 0.0
C327 C 0.90653 0.61485 0.14765 0.0
H328 H 0.81332 0.51974 0.12439 0.0
C329 C 0.75747 0.60482 0.14111 0.0
C330 C 0.73096 0.58162 0.1231 0.0
C331 C 0.7914 0.6041 0.14564 0.0
C332 C 0.83895 0.5468 0.13078 0.0
H333 H 1.0415 0.64156 0.14175 0.0
H334 H 0.9813 0.6406 0.13817 0.0
H335 H 0.87339 0.52099 0.12833 0.0
H336 H 0.71924 0.53795 0.09645 0.0
H337 H 0.77762 0.53712 0.10399 0.0
H338 H 0.87212 0.64091 0.14937 0.0
C339 C 0.98085 0.61513 0.14183 0.0
C340 C 0.87375 0.54739 0.13336 0.0
C341 C 1.01568 0.61562 0.14374 0.0
C342 C 0.7389 0.55664 0.11034 0.0
C343 C 0.77258 0.5559 0.11484 0.0
C344 C 0.87169 0.61429 0.145 0.0
C345 C 0.94603 0.58217 0.14408 0.0
C346 C 0.90839 0.58147 0.14174 0.0
C347 C 0.79991 0.57996 0.1324 0.0
C348 C 0.83716 0.5803 0.13635 0.0
H349 H 0.9821 0.52453 0.15343 0.0
H350 H 0.92204 0.52385 0.15057 0.0
H351 H 0.93205 0.64168 0.15447 0.0
H352 H 0.75271 0.62459 0.15131 0.0
H353 H 0.81108 0.62272 0.15953 0.0
C354 C 0.51598 1.0052 0.47416 0.0
C355 C 0.55086 1.00742 0.48011 0.0
C356 C 0.48088 0.97013 0.47212 0.0
C357 C 0.43993 0.8629 0.46676 0.0
H358 H 0.34717 0.86094 0.47865 0.0
C359 C 0.29141 0.72306 0.4444 0.0
C360 C 0.2614 0.71614 0.45643 0.0
C361 C 0.32649 0.75796 0.44848 0.0
C362 C 0.37276 0.86068 0.47547 0.0
H363 H 0.57534 0.97364 0.4888 0.0
H364 H 0.51497 0.91353 0.48578 0.0
H365 H 0.40742 0.92212 0.48347 0.0
H366 H 0.24615 0.74113 0.48289 0.0
H367 H 0.30775 0.80168 0.49046 0.0
H368 H 0.40573 0.80157 0.45936 0.0
C369 C 0.51439 0.93852 0.48217 0.0
C370 C 0.40753 0.89614 0.47794 0.0
C371 C 0.54935 0.97342 0.48408 0.0
C372 C 0.26841 0.74507 0.4733 0.0
C373 C 0.30376 0.7802 0.47744 0.0
C374 C 0.4053 0.82754 0.4644 0.0
C375 C 0.47937 0.93601 0.47604 0.0
C376 C 0.44185 0.898 0.47356 0.0
C377 C 0.33336 0.78751 0.46492 0.0
C378 C 0.37089 0.82563 0.46853 0.0
H379 H 0.51572 1.03055 0.47088 0.0
H380 H 0.45495 0.96976 0.46709 0.0
H381 H 0.46518 0.86254 0.46288 0.0
H382 H 0.28761 0.70153 0.43145 0.0
H383 H 0.34787 0.76204 0.4382 0.0
C384 C 0.6103 0.44434 0.81283 0.0
C385 C 0.64396 0.48073 0.81642 0.0
C386 C 0.61171 0.41026 0.81084 0.0
C387 C 0.68096 0.37441 0.80349 0.0
H388 H 0.59561 0.27897 0.81401 0.0
C389 C 0.67619 0.23017 0.78034 0.0
C390 C 0.65421 0.19798 0.79015 0.0
C391 C 0.6756 0.2643 0.78502 0.0
C392 C 0.62014 0.30531 0.81126 0.0
H393 H 0.70563 0.50925 0.82151 0.0
H394 H 0.7083 0.45093 0.8193 0.0
H395 H 0.59329 0.33755 0.81981 0.0
H396 H 0.61573 0.17828 0.81374 0.0
H397 H 0.61623 0.23845 0.82284 0.0
H398 H 0.70879 0.34297 0.79616 0.0
C399 C 0.68048 0.44798 0.81697 0.0
C400 C 0.6185 0.33927 0.81424 0.0
C401 C 0.67902 0.4819 0.81847 0.0
C402 C 0.63313 0.20217 0.80578 0.0
C403 C 0.63295 0.23677 0.81075 0.0
C404 C 0.68289 0.34074 0.80092 0.0
C405 C 0.64689 0.41125 0.81281 0.0
C406 C 0.64876 0.37461 0.81022 0.0
C407 C 0.65372 0.26844 0.80018 0.0
C408 C 0.65232 0.3052 0.80441 0.0
H409 H 0.58271 0.44211 0.811 0.0
H410 H 0.58497 0.38315 0.80731 0.0
H411 H 0.70489 0.40021 0.79977 0.0
H412 H 0.69359 0.2289 0.76854 0.0
H413 H 0.6917 0.28703 0.7761 0.0
C414 C 0.58121 0.86994 0.43488 0.0
C415 C 0.6187 0.88878 0.42983 0.0
C416 C 0.55878 0.82998 0.43079 0.0
C417 C 0.5758 0.75063 0.42929 0.0
H418 H 0.46599 0.69328 0.42927 0.0
C419 C 0.45794 0.59994 0.45619 0.0
C420 C 0.47768 0.60721 0.47642 0.0
C421 C 0.47068 0.62874 0.44345 0.0
C422 C 0.49653 0.70855 0.42882 0.0
H423 H 0.66074 0.88101 0.41454 0.0
H424 H 0.62122 0.81093 0.40697 0.0
H425 H 0.49596 0.75449 0.41591 0.0
H426 H 0.52418 0.65075 0.49979 0.0
H427 H 0.54636 0.70048 0.4777 0.0
H428 H 0.57654 0.70561 0.44299 0.0
C429 C 0.6095 0.82702 0.41461 0.0
C430 C 0.51377 0.74372 0.42136 0.0
C431 C 0.63216 0.86709 0.41894 0.0
C432 C 0.50899 0.64407 0.48407 0.0
C433 C 0.52177 0.67247 0.47141 0.0
C434 C 0.55859 0.71558 0.4366 0.0
C435 C 0.57326 0.80791 0.42144 0.0
C436 C 0.55385 0.76621 0.42271 0.0
C437 C 0.5034 0.66487 0.45082 0.0
C438 C 0.51916 0.69542 0.4376 0.0
H439 H 0.57012 0.88584 0.44345 0.0
H440 H 0.53133 0.81651 0.43658 0.0
H441 H 0.60667 0.76694 0.43068 0.0
H442 H 0.43369 0.5717 0.44996 0.0
H443 H 0.45585 0.62247 0.42769 0.0
C444 C 0.89529 0.62819 0.77814 0.0
C445 C 0.85592 0.6014 0.77549 0.0
C446 C 0.921 0.6165 0.77326 0.0
C447 C 0.97322 0.58743 0.76339 0.0
H448 H 0.94902 0.50746 0.7975 0.0
C449 C 0.09207 0.59812 0.81767 0.0
C450 C 1.0837 0.60136 0.8385 0.0
C451 C 1.06271 0.58013 0.80065 0.0
C452 C 0.95618 0.52933 0.78757 0.0
H453 H 0.81243 0.54227 0.76305 0.0
H454 H 0.85765 0.52163 0.75499 0.0
H455 H 0.89799 0.51381 0.78103 0.0
H456 H 1.03773 0.58491 0.85785 0.0
H457 H 0.9871 0.55382 0.82856 0.0
H458 H 1.03176 0.60596 0.77213 0.0
C459 C 0.86853 0.55162 0.76107 0.0
C460 C 0.92682 0.53279 0.77791 0.0
C461 C 0.84269 0.56341 0.76585 0.0
C462 C 1.04534 0.58279 0.84208 0.0
C463 C 1.01611 0.5647 0.82515 0.0
C464 C 1.0026 0.58423 0.77324 0.0
C465 C 0.90804 0.57767 0.76571 0.0
C466 C 0.93544 0.564 0.7673 0.0
C467 C 1.02448 0.56492 0.80419 0.0
C468 C 0.9945 0.55725 0.78695 0.0
H469 H 0.90664 0.65758 0.78566 0.0
H470 H 0.95119 0.63737 0.77734 0.0
H471 H 0.98058 0.61104 0.75474 0.0
H472 H 0.12138 0.61131 0.81443 0.0
H473 H 1.07006 0.58027 0.78471 0.0
C474 C 0.35814 0.80896 0.13054 0.0
C475 C 0.32514 0.81167 0.12947 0.0
C476 C 0.39295 0.83967 0.12702 0.0
C477 C 0.43866 0.93764 0.11172 0.0
H478 H 0.50799 0.96465 0.16286 0.0
C479 C 0.51569 0.08494 0.16138 0.0
C480 C 0.54868 0.09707 0.17545 0.0
C481 C 0.49939 1.05035 0.14741 0.0
C482 C 0.48988 0.95752 0.1481 0.0
H483 H 0.3022 0.84747 0.12225 0.0
H484 H 0.36257 0.90084 0.11632 0.0
H485 H 0.45657 0.89899 0.15221 0.0
H486 H 0.59288 0.0848 0.1844 0.0
H487 H 0.56437 1.02418 0.1599 0.0
H488 H 0.47067 0.99711 0.10857 0.0
C489 C 0.36172 0.87495 0.11957 0.0
C490 C 0.46019 0.91961 0.14195 0.0
C491 C 0.327 0.84432 0.12308 0.0
C492 C 0.56693 0.07564 0.17402 0.0
C493 C 0.5507 1.04106 0.15996 0.0
C494 C 0.46847 0.97565 0.11785 0.0
C495 C 0.39539 0.87364 0.12239 0.0
C496 C 0.43288 0.90978 0.12446 0.0
C497 C 0.5158 1.02718 0.14719 0.0
C498 C 0.4929 0.98638 0.13685 0.0
H499 H 0.35737 0.78375 0.13496 0.0
H500 H 0.41833 0.83761 0.12901 0.0
H501 H 0.41852 0.93068 0.09787 0.0
H502 H 0.50088 0.10075 0.16219 0.0
H503 H 0.47226 1.04042 0.13804 0.0
C504 C 0.63906 0.33435 0.4507 0.0
C505 C 0.66382 0.32696 0.4626 0.0
C506 C 0.65 0.37185 0.44821 0.0
C507 C 0.705 0.46384 0.48131 0.0
H508 H 0.65392 0.4899 0.43922 0.0
C509 C 0.64771 0.55843 0.50885 0.0
C510 C 0.608 0.53818 0.50272 0.0
C511 C 0.67108 0.54915 0.49765 0.0
C512 C 0.66898 0.48353 0.45103 0.0
H513 H 0.72092 0.3524 0.47932 0.0
H514 H 0.74014 0.41811 0.4749 0.0
H515 H 0.66738 0.43875 0.42933 0.0
H516 H 0.56215 0.49466 0.47903 0.0
H517 H 0.60239 0.47821 0.45978 0.0
H518 H 0.70358 0.50585 0.50347 0.0
C519 C 0.71211 0.39492 0.46769 0.0
C520 C 0.67671 0.45427 0.44537 0.0
C521 C 0.70113 0.35729 0.47017 0.0
C522 C 0.59263 0.51095 0.48413 0.0
C523 C 0.6159 0.50168 0.47297 0.0
C524 C 0.69725 0.49299 0.48697 0.0
C525 C 0.68595 0.4028 0.45762 0.0
C526 C 0.69204 0.44216 0.46087 0.0
C527 C 0.6551 0.51937 0.48016 0.0
C528 C 0.67644 0.50099 0.47228 0.0
H529 H 0.61042 0.31135 0.44431 0.0
H530 H 0.62894 0.37673 0.44048 0.0
H531 H 0.71697 0.45545 0.49369 0.0
H532 H 0.66049 0.58026 0.52284 0.0
H533 H 0.70126 0.56369 0.5034 0.0
C534 C 0.43685 0.63033 0.83438 0.0
C535 C 0.45052 0.62094 0.81653 0.0
C536 C 0.42394 0.6561 0.83427 0.0
C537 C 0.38771 0.6986 0.79836 0.0
H538 H 0.39874 0.76123 0.85128 0.0
C539 C 0.32508 0.7928 0.84423 0.0
C540 C 0.28645 0.76667 0.83653 0.0
C541 C 0.35349 0.78691 0.83678 0.0
C542 C 0.39608 0.74491 0.83614 0.0
H543 H 0.46217 0.63153 0.78467 0.0
H544 H 0.44007 0.67714 0.78454 0.0
H545 H 0.4334 0.72765 0.84886 0.0
H546 H 0.2478 0.71734 0.81287 0.0
H547 H 0.29659 0.70574 0.80078 0.0
H548 H 0.35054 0.71615 0.7856 0.0
C549 C 0.43863 0.66405 0.7985 0.0
C550 C 0.41547 0.72494 0.8349 0.0
C551 C 0.4512 0.63791 0.79855 0.0
C552 C 0.27726 0.73729 0.81957 0.0
C553 C 0.30549 0.731 0.8124 0.0
C554 C 0.36871 0.71911 0.7995 0.0
C555 C 0.42489 0.67349 0.81639 0.0
C556 C 0.41004 0.70007 0.81634 0.0
C557 C 0.34372 0.75443 0.82178 0.0
C558 C 0.37119 0.74104 0.81871 0.0
H559 H 0.43573 0.61736 0.84837 0.0
H560 H 0.4126 0.66184 0.84814 0.0
H561 H 0.38303 0.6799 0.78375 0.0
H562 H 0.33322 0.81599 0.85717 0.0
H563 H 0.3828 0.80633 0.84386 0.0
C564 C 0.87243 0.35165 0.11924 0.0
C565 C 0.8956 0.38038 0.10771 0.0
C566 C 0.83337 0.33786 0.11788 0.0
C567 C 0.76864 0.37259 0.11103 0.0
H568 H 0.69378 0.26824 0.11688 0.0
C569 C 0.65435 0.33364 0.16594 0.0
C570 C 0.62135 0.29701 0.1619 0.0
C571 C 0.6808 0.3451 0.15148 0.0
C572 C 0.71381 0.29739 0.11476 0.0
H573 H 0.89501 0.41466 0.08427 0.0
H574 H 0.82672 0.39126 0.08246 0.0
H575 H 0.75397 0.28189 0.10481 0.0
H576 H 0.58761 0.24552 0.13868 0.0
H577 H 0.63345 0.26578 0.11321 0.0
H578 H 0.72915 0.38839 0.122 0.0
C579 C 0.8391 0.37969 0.0926 0.0
C580 C 0.74848 0.3052 0.10803 0.0
C581 C 0.87819 0.39316 0.09375 0.0
C582 C 0.61319 0.27374 0.14223 0.0
C583 C 0.63947 0.28527 0.12773 0.0
C584 C 0.73391 0.36479 0.11783 0.0
C585 C 0.81654 0.35266 0.1051 0.0
C586 C 0.77687 0.34309 0.107 0.0
C587 C 0.67453 0.32014 0.13272 0.0
C588 C 0.7068 0.32735 0.12065 0.0
H589 H 0.88472 0.34148 0.1304 0.0
H590 H 0.81682 0.3174 0.12793 0.0
H591 H 0.79007 0.40213 0.11044 0.0
H592 H 0.66133 0.35201 0.18104 0.0
H593 H 0.70759 0.37205 0.15592 0.0
C594 C 0.10095 0.55617 0.07174 0.0
C595 C 0.12314 0.58857 0.08736 0.0
C596 C 0.10218 0.55963 0.0503 0.0
C597 C 0.16151 0.6272 0.01494 0.0
H598 H 1.07094 0.56679 0.97368 0.0
C599 C 0.14511 0.66593 0.93304 0.0
C600 C 0.13626 0.63726 0.91566 0.0
C601 C 0.14329 0.65758 0.95357 0.0
C602 C 0.09644 0.58357 -0.01492 0.0
H603 H 0.16269 0.65016 0.09293 0.0
H604 H 0.16352 0.65653 0.05589 0.0
H605 H 1.06766 0.55683 0.01055 0.0
H606 H 0.11843 0.57712 0.9065 0.0
H607 H 0.11361 0.56239 0.94246 0.0
H608 H 0.18962 0.65512 -0.01045 0.0
C609 C 0.14643 0.62811 0.05992 0.0
C610 C 0.0947 0.5778 0.00616 0.0
C611 C 0.14573 0.62454 0.08123 0.0
C612 C 0.12484 0.59982 0.9194 0.0
C613 C 0.12226 0.59133 0.93996 0.0
C614 C 0.16298 0.63344 -0.00598 0.0
C615 C 0.12514 0.59568 0.04413 0.0
C616 C 0.12714 0.5999 0.02142 0.0
C617 C 0.13181 0.62026 0.95718 0.0
C618 C 0.13042 0.61194 0.97899 0.0
H619 H 1.08336 0.52807 0.07608 0.0
H620 H 1.08567 0.53395 0.03861 0.0
H621 H 0.18738 0.64399 0.02605 0.0
H622 H 0.15309 0.69482 0.93083 0.0
H623 H 0.15039 0.68023 0.96667 0.0
C624 C 0.62848 0.08078 0.40694 0.0
C625 C 0.64977 0.11475 0.42167 0.0
C626 C 0.62202 0.08255 0.38554 0.0
C627 C 0.65835 0.14515 0.34535 0.0
H628 H 0.55311 0.0917 0.31902 0.0
C629 C 0.61582 0.17983 0.26729 0.0
C630 C 0.58656 0.14938 0.25264 0.0
C631 C 0.62387 0.17404 0.28756 0.0
C632 C 0.58273 0.10632 0.32594 0.0
H633 H 0.68229 0.17704 0.42553 0.0
H634 H 0.67163 0.17999 0.38827 0.0
H635 H 0.56791 0.08252 0.35446 0.0
H636 H 0.54202 0.08917 0.24815 0.0
H637 H 0.55713 0.07872 0.28299 0.0
H638 H 0.67344 0.16873 0.3169 0.0
C639 C 0.65973 0.15209 0.39321 0.0
C640 C 0.59114 0.10103 0.34626 0.0
C641 C 0.66561 0.15036 0.41455 0.0
C642 C 0.56524 0.11316 0.25887 0.0
C643 C 0.57355 0.10727 0.27902 0.0
C644 C 0.65003 0.15009 0.32494 0.0
C645 C 0.63742 0.11828 0.37854 0.0
C646 C 0.62896 0.12082 0.35626 0.0
C647 C 0.60306 0.13758 0.29362 0.0
C648 C 0.61205 0.13117 0.31507 0.0
H649 H 0.6159 1.05298 0.41203 0.0
H650 H 0.60483 1.05608 0.37448 0.0
H651 H 0.68781 0.1605 0.35268 0.0
H652 H 0.63303 0.20802 0.26299 0.0
H653 H 0.64635 0.19827 0.29849 0.0
C654 C 0.59683 0.53519 0.74126 0.0
C655 C 0.63163 0.56449 0.75282 0.0
C656 C 0.59065 0.53177 0.71931 0.0
C657 C 0.62478 0.58952 0.67658 0.0
H658 H 0.5656 0.49058 0.64015 0.0
C659 C 0.60718 0.57331 0.58562 0.0
C660 C 0.57038 0.54753 0.57484 0.0
C661 C 0.61506 0.57499 0.60728 0.0
C662 C 0.58188 0.5184 0.65018 0.0
H663 H 0.68792 0.61208 0.75034 0.0
H664 H 0.67743 0.6056 0.71198 0.0
H665 H 0.58008 0.49329 0.67794 0.0
H666 H 0.51296 0.50336 0.57824 0.0
H667 H 0.52671 0.50643 0.61625 0.0
H668 H 0.62674 0.61458 0.64877 0.0
C669 C 0.65455 0.58584 0.71993 0.0
C670 C 0.59019 0.51997 0.67181 0.0
C671 C 0.66065 0.5894 0.7419 0.0
C672 C 0.5415 0.52366 0.58619 0.0
C673 C 0.54947 0.52515 0.60786 0.0
C674 C 0.61666 0.58793 0.65495 0.0
C675 C 0.61923 0.55743 0.70841 0.0
C676 C 0.61162 0.55556 0.68528 0.0
C677 C 0.58635 0.5508 0.6186 0.0
C678 C 0.595 0.55237 0.64154 0.0
H679 H 0.57382 0.51557 0.74919 0.0
H680 H 0.56298 0.50983 0.71098 0.0
H681 H 0.6407 0.6174 0.68654 0.0
H682 H 0.6299 0.59229 0.5773 0.0
H683 H 0.64381 0.59485 0.6151 0.0
C684 C 0.69291 0.10345 0.56323 0.0
C685 C 0.66756 0.11139 0.55222 0.0
C686 C 0.69285 0.10205 0.58502 0.0
C687 C 0.66364 0.13619 0.6323 0.0
H688 H 0.66554 1.05444 0.65687 0.0
C689 C 0.62295 0.11143 0.71504 0.0
C690 C 0.6467 0.10598 0.72915 0.0
C691 C 0.62636 0.10944 0.6935 0.0
C692 C 0.66537 0.07766 0.65027 0.0
H693 H 0.62214 0.12382 0.55565 0.0
H694 H 0.62204 0.12127 0.59311 0.0
H695 H 0.67184 0.05761 0.61925 0.0
H696 H 0.69119 0.09199 0.73156 0.0
H697 H 0.69722 0.08845 0.69364 0.0
H698 H 0.65692 0.15623 0.66301 0.0
C699 C 0.64231 0.11657 0.58512 0.0
C700 C 0.66907 0.07953 0.62874 0.0
C701 C 0.64225 0.1178 0.5635 0.0
C702 C 0.67244 0.0962 0.72102 0.0
C703 C 0.67592 0.09426 0.69934 0.0
C704 C 0.65993 0.13432 0.65367 0.0
C705 C 0.66768 0.1089 0.59623 0.0
C706 C 0.66747 0.10843 0.61942 0.0
C707 C 0.65369 0.10204 0.68544 0.0
C708 C 0.65995 0.10463 0.66287 0.0
H709 H 0.71268 0.09823 0.55503 0.0
H710 H 0.71286 0.0962 0.59314 0.0
H711 H 0.66323 0.15939 0.62579 0.0
H712 H 0.60239 0.11836 0.7208 0.0
H713 H 0.60803 0.11453 0.68318 0.0
C714 C 0.62342 0.61031 0.89652 0.0
C715 C 0.64803 0.60157 0.88604 0.0
C716 C 0.62383 0.61189 0.91848 0.0
C717 C 0.6819 0.61515 0.9671 0.0
H718 H 0.58754 0.58169 -0.00859 0.0
C719 C 0.65925 0.56766 0.04879 0.0
C720 C 0.65223 0.59064 0.06376 0.0
C721 C 0.65714 0.57067 0.02737 0.0
C722 C 0.61409 0.59137 -0.0152 0.0
H723 H 0.69192 0.58705 0.89038 0.0
H724 H 0.69154 0.58805 0.92819 0.0
H725 H 0.5877 0.58393 0.9535 0.0
H726 H 0.63558 0.63361 0.06739 0.0
H727 H 0.63016 0.63736 0.0296 0.0
H728 H 0.70758 0.62046 -0.00168 0.0
C729 C 0.67286 0.59523 0.9198 0.0
C730 C 0.61436 0.59291 0.96308 0.0
C731 C 0.67294 0.59438 0.89798 0.0
C732 C 0.64091 0.61521 0.05642 0.0
C733 C 0.63802 0.6176 0.03481 0.0
C734 C 0.68138 0.6128 -0.01136 0.0
C735 C 0.6484 0.6041 0.93046 0.0
C736 C 0.64824 0.60444 0.95383 0.0
C737 C 0.64697 0.59596 0.02021 0.0
C738 C 0.64747 0.60062 -0.00236 0.0
H739 H 0.60397 0.61616 0.88778 0.0
H740 H 0.605 0.61947 0.92602 0.0
H741 H 0.70883 0.62527 0.96088 0.0
H742 H 0.66694 0.54757 0.05365 0.0
H743 H 0.66368 0.55332 0.01634 0.0
C744 C 0.12938 0.61468 0.23107 0.0
C745 C 0.12481 0.58243 0.2178 0.0
C746 C 0.12953 0.61548 0.25287 0.0
C747 C 0.14444 0.57094 0.29684 0.0
H748 H 0.09945 0.62286 0.32705 0.0
C749 C 0.14547 0.58584 0.38812 0.0
C750 C 0.15852 0.62344 0.39824 0.0
C751 C 0.13639 0.57629 0.36606 0.0
C752 C 0.11219 0.60831 0.31885 0.0
H753 H 0.11674 0.52557 0.21719 0.0
H754 H 0.11656 0.52678 0.25539 0.0
H755 H 0.09304 0.61423 0.28857 0.0
H756 H 0.17067 0.67998 0.39339 0.0
H757 H 0.15456 0.66335 0.35504 0.0
H758 H 0.16378 0.56535 0.3273 0.0
C759 C 0.12047 0.55168 0.24886 0.0
C760 C 0.10866 0.60347 0.29678 0.0
C761 C 0.12042 0.55092 0.22695 0.0
C762 C 0.1609 0.65084 0.38599 0.0
C763 C 0.15143 0.64122 0.36404 0.0
C764 C 0.14776 0.57559 0.31897 0.0
C765 C 0.12491 0.58398 0.2621 0.0
C766 C 0.1255 0.58554 0.28548 0.0
C767 C 0.13961 0.60401 0.35376 0.0
C768 C 0.13238 0.59508 0.33024 0.0
H769 H 0.1331 0.63964 0.22467 0.0
H770 H 0.13388 0.6412 0.26254 0.0
H771 H 0.15803 0.55727 0.28872 0.0
H772 H 0.14352 0.56423 0.39721 0.0
H773 H 0.12711 0.54731 0.3586 0.0
loop_
_geom_bond_atom_site_label_1
_geom_bond_atom_site_label_2
_geom_bond_distance
_geom_bond_site_symmetry_2
_ccdc_geom_bond_type
Eu0 C9 2.828 . S
Eu0 O11 2.392 1_655 S
Eu0 O13 2.418 . S
Eu0 O18 2.373 . S
Eu0 O21 2.488 . S
Eu0 O22 2.471 . S
Eu0 O23 2.349 1_655 S
Eu1 O10 2.373 . S
Eu1 O14 2.488 . S
Eu1 O15 2.471 . S
Eu1 O16 2.349 . S
Eu1 O19 2.392 1_455 S
Eu1 O20 2.418 . S
Eu1 C30 2.828 . S
C2 O20 1.244 . S
C2 O23 1.265 . S
C3 C4 1.379 . S
C3 C7 1.373 . S
C3 C9 1.505 . S
C4 C3 1.379 . S
C4 C6 1.369 . S
C4 H32 0.930 . S
C5 C7 1.383 . S
C5 C8 1.382 . S
C5 H33 0.930 . S
C6 C4 1.369 . S
C6 C8 1.392 . S
C6 H34 0.930 . S
C7 C3 1.373 . S
C7 C5 1.383 . S
C7 H35 0.931 . S
C8 C5 1.382 . S
C8 C6 1.392 . S
C9 Eu0 2.828 . S
C9 C3 1.505 . S
C9 O21 1.249 . S
C9 O22 1.244 . S
O10 Eu1 2.373 . S
O10 C12 1.258 . S
O11 Eu0 2.392 1_455 S
O11 C12 1.242 . S
C12 O10 1.258 . S
C12 O11 1.242 . S
O13 Eu0 2.418 . S
O13 C17 1.244 1_655 S
O14 Eu1 2.488 . S
O14 C30 1.249 . S
O15 Eu1 2.471 . S
O15 C30 1.244 . S
O16 Eu1 2.349 . S
O16 C17 1.265 . S
C17 O13 1.244 1_455 S
C17 O16 1.265 . S
O18 Eu0 2.373 . S
O18 C31 1.258 . S
O19 Eu1 2.392 1_655 S
O19 C31 1.242 . S
O20 Eu1 2.418 . S
O20 C2 1.244 . S
O21 Eu0 2.488 . S
O21 C9 1.249 . S
O22 Eu0 2.471 . S
O22 C9 1.244 . S
O23 Eu0 2.349 1_455 S
O23 C2 1.265 . S
C24 C25 1.379 . S
C24 C28 1.373 . S
C24 C30 1.505 . S
C25 C24 1.379 . S
C25 C27 1.369 . S
C25 H36 0.930 . S
C26 C28 1.383 . S
C26 C29 1.382 . S
C26 H37 0.930 . S
C27 C25 1.369 . S
C27 C29 1.392 . S
C27 H38 0.930 . S
C28 C24 1.373 . S
C28 C26 1.383 . S
C28 H39 0.931 . S
C29 C26 1.382 . S
C29 C27 1.392 . S
C30 Eu1 2.828 . S
C30 O14 1.249 . S
C30 O15 1.244 . S
C30 C24 1.505 . S
C31 O18 1.258 . S
C31 O19 1.242 . S
H32 C4 0.930 . S
H33 C5 0.930 . S
H34 C6 0.930 . S
H35 C7 0.931 . S
H36 C25 0.930 . S
H37 C26 0.930 . S
H38 C27 0.930 . S
H39 C28 0.931 . S
Eu40 C49 2.828 1_545 S
Eu40 O51 2.392 . S
Eu40 O53 2.418 . S
Eu40 O58 2.373 1_545 S
Eu40 O61 2.488 1_545 S
Eu40 O62 2.471 1_545 S
Eu40 O63 2.349 . S
Eu41 O50 2.373 . S
Eu41 O54 2.488 . S
Eu41 O55 2.471 . S
Eu41 O56 2.349 . S
Eu41 O59 2.392 . S
Eu41 O60 2.418 . S
Eu41 C70 2.828 . S
C42 O60 1.244 . S
C42 O63 1.265 . S
C43 C44 1.379 . S
C43 C47 1.373 . S
C43 C49 1.505 . S
C44 C43 1.379 . S
C44 C46 1.369 . S
C44 H72 0.930 . S
C45 C47 1.383 . S
C45 C48 1.382 . S
C45 H73 0.930 . S
C46 C44 1.369 . S
C46 C48 1.392 . S
C46 H74 0.930 . S
C47 C43 1.373 . S
C47 C45 1.383 . S
C47 H75 0.931 . S
C48 C45 1.382 . S
C48 C46 1.392 . S
C49 Eu40 2.828 1_565 S
C49 C43 1.505 . S
C49 O61 1.249 . S
C49 O62 1.244 . S
O50 Eu41 2.373 . S
O50 C52 1.258 . S
O51 Eu40 2.392 . S
O51 C52 1.242 . S
C52 O50 1.258 . S
C52 O51 1.242 . S
O53 Eu40 2.418 . S
O53 C57 1.244 . S
O54 Eu41 2.488 . S
O54 C70 1.249 . S
O55 Eu41 2.471 . S
O55 C70 1.244 . S
O56 Eu41 2.349 . S
O56 C57 1.265 . S
C57 O53 1.244 . S
C57 O56 1.265 . S
O58 Eu40 2.373 1_565 S
O58 C71 1.258 . S
O59 Eu41 2.392 . S
O59 C71 1.242 1_545 S
O60 Eu41 2.418 . S
O60 C42 1.244 . S
O61 Eu40 2.488 1_565 S
O61 C49 1.249 . S
O62 Eu40 2.471 1_565 S
O62 C49 1.244 . S
O63 Eu40 2.349 . S
O63 C42 1.265 . S
C64 C65 1.379 . S
C64 C68 1.373 . S
C64 C70 1.505 . S
C65 C64 1.379 . S
C65 C67 1.369 . S
C65 H76 0.930 . S
C66 C68 1.383 . S
C66 C69 1.382 . S
C66 H77 0.930 . S
C67 C65 1.369 . S
C67 C69 1.392 . S
C67 H78 0.930 . S
C68 C64 1.373 . S
C68 C66 1.383 . S
C68 H79 0.931 . S
C69 C66 1.382 . S
C69 C67 1.392 . S
C70 Eu41 2.828 . S
C70 O54 1.249 . S
C70 O55 1.244 . S
C70 C64 1.505 . S
C71 O58 1.258 . S
C71 O59 1.242 1_565 S
H72 C44 0.930 . S
H73 C45 0.930 . S
H74 C46 0.930 . S
H75 C47 0.931 . S
H76 C65 0.930 . S
H77 C66 0.930 . S
H78 C67 0.930 . S
H79 C68 0.931 . S
Eu80 C89 2.828 . S
Eu80 O91 2.392 . S
Eu80 O93 2.418 . S
Eu80 O98 2.373 . S
Eu80 O101 2.488 . S
Eu80 O102 2.471 . S
Eu80 O103 2.349 . S
Eu81 O90 2.373 . S
Eu81 O94 2.488 . S
Eu81 O95 2.471 . S
Eu81 O96 2.349 . S
Eu81 O99 2.392 . S
Eu81 O100 2.418 . S
Eu81 C110 2.828 . S
C82 O100 1.244 . S
C82 O103 1.265 . S
C83 C84 1.379 . S
C83 C87 1.373 . S
C83 C89 1.505 . S
C84 C83 1.379 . S
C84 C86 1.369 . S
C84 H112 0.930 . S
C85 C87 1.383 . S
C85 C88 1.382 . S
C85 H113 0.930 . S
C86 C84 1.369 . S
C86 C88 1.392 . S
C86 H114 0.930 . S
C87 C83 1.373 . S
C87 C85 1.383 . S
C87 H115 0.931 . S
C88 C85 1.382 . S
C88 C86 1.392 . S
C89 Eu80 2.828 . S
C89 C83 1.505 . S
C89 O101 1.249 . S
C89 O102 1.244 . S
O90 Eu81 2.373 . S
O90 C92 1.258 . S
O91 Eu80 2.392 . S
O91 C92 1.242 . S
C92 O90 1.258 . S
C92 O91 1.242 . S
O93 Eu80 2.418 . S
O93 C97 1.244 . S
O94 Eu81 2.488 . S
O94 C110 1.249 . S
O95 Eu81 2.471 . S
O95 C110 1.244 . S
O96 Eu81 2.349 . S
O96 C97 1.265 . S
C97 O93 1.244 . S
C97 O96 1.265 . S
O98 Eu80 2.373 . S
O98 C111 1.258 . S
O99 Eu81 2.392 . S
O99 C111 1.242 . S
O100 Eu81 2.418 . S
O100 C82 1.244 . S
O101 Eu80 2.488 . S
O101 C89 1.249 . S
O102 Eu80 2.471 . S
O102 C89 1.244 . S
O103 Eu80 2.349 . S
O103 C82 1.265 . S
C104 C105 1.379 . S
C104 C108 1.373 . S
C104 C110 1.505 . S
C105 C104 1.379 . S
C105 C107 1.369 . S
C105 H116 0.930 . S
C106 C108 1.383 . S
C106 C109 1.382 . S
C106 H117 0.930 . S
C107 C105 1.369 . S
C107 C109 1.392 . S
C107 H118 0.930 . S
C108 C104 1.373 . S
C108 C106 1.383 . S
C108 H119 0.931 . S
C109 C106 1.382 . S
C109 C107 1.392 . S
C110 Eu81 2.828 . S
C110 O94 1.249 . S
C110 O95 1.244 . S
C110 C104 1.505 . S
C111 O98 1.258 . S
C111 O99 1.242 . S
H112 C84 0.930 . S
H113 C85 0.930 . S
H114 C86 0.930 . S
H115 C87 0.931 . S
H116 C105 0.930 . S
H117 C106 0.930 . S
H118 C107 0.930 . S
H119 C108 0.931 . S
H120 C121 0.949 . S
C121 H120 0.949 . S
C121 C122 1.395 . S
C121 C123 1.391 . S
C122 C121 1.395 . S
C122 C125 1.390 . S
C123 C121 1.391 . S
C123 C127 1.387 . S
C123 C128 1.491 . S
H124 C125 0.950 . S
C125 C122 1.390 . S
C125 H124 0.950 . S
C125 C126 1.378 . S
C126 C125 1.378 . S
C126 C127 1.409 . S
C127 C123 1.387 . S
C127 C126 1.409 . S
C127 H129 0.951 . S
C128 C123 1.491 . S
C128 C130 1.382 . S
C128 C132 1.404 . S
H129 C127 0.951 . S
C130 C128 1.382 . S
C130 C131 1.390 . S
C130 H135 0.949 . S
C131 C130 1.390 . S
C131 C136 1.399 . S
C132 C128 1.404 . S
C132 H133 0.950 . S
C132 C134 1.375 . S
H133 C132 0.950 . S
C134 C132 1.375 . S
C134 C136 1.382 . S
C134 H138 0.950 . S
H135 C130 0.949 . S
C136 C131 1.399 . S
C136 C134 1.382 . S
C136 H137 0.952 . S
H137 C136 0.952 . S
H138 C134 0.950 . S
H139 C140 0.949 . S
C140 H139 0.949 . S
C140 C141 1.395 . S
C140 C142 1.391 . S
C141 C140 1.395 . S
C141 C144 1.390 . S
C142 C140 1.391 . S
C142 C146 1.387 . S
C142 C147 1.491 . S
H143 C144 0.950 . S
C144 C141 1.390 . S
C144 H143 0.950 . S
C144 C145 1.378 . S
C145 C144 1.378 . S
C145 C146 1.409 . S
C146 C142 1.387 . S
C146 C145 1.409 . S
C146 H148 0.951 . S
C147 C142 1.491 . S
C147 C149 1.382 . S
C147 C151 1.404 . S
H148 C146 0.951 . S
C149 C147 1.382 . S
C149 C150 1.390 . S
C149 H154 0.949 . S
C150 C149 1.390 . S
C150 C155 1.399 . S
C151 C147 1.404 . S
C151 H152 0.950 . S
C151 C153 1.375 . S
H152 C151 0.950 . S
C153 C151 1.375 . S
C153 C155 1.382 . S
C153 H157 0.950 . S
H154 C149 0.949 . S
C155 C150 1.399 . S
C155 C153 1.382 . S
C155 H156 0.952 . S
H156 C155 0.952 . S
H157 C153 0.950 . S
H158 C159 0.949 . S
C159 H158 0.949 . S
C159 C160 1.395 . S
C159 C161 1.391 . S
C160 C159 1.395 . S
C160 C163 1.390 . S
C161 C159 1.391 . S
C161 C165 1.387 . S
C161 C166 1.491 . S
H162 C163 0.950 . S
C163 C160 1.390 . S
C163 H162 0.950 . S
C163 C164 1.378 . S
C164 C163 1.378 . S
C164 C165 1.409 . S
C165 C161 1.387 . S
C165 C164 1.409 . S
C165 H167 0.951 . S
C166 C161 1.491 . S
C166 C168 1.382 . S
C166 C170 1.404 . S
H167 C165 0.951 . S
C168 C166 1.382 . S
C168 C169 1.390 . S
C168 H173 0.949 . S
C169 C168 1.390 . S
C169 C174 1.399 . S
C170 C166 1.404 . S
C170 H171 0.950 . S
C170 C172 1.375 . S
H171 C170 0.950 . S
C172 C170 1.375 . S
C172 C174 1.382 . S
C172 H176 0.950 . S
H173 C168 0.949 . S
C174 C169 1.399 . S
C174 C172 1.382 . S
C174 H175 0.952 . S
H175 C174 0.952 . S
H176 C172 0.950 . S
H177 C178 0.949 1_655 S
C178 H177 0.949 1_455 S
C178 C179 1.395 . S
C178 C180 1.391 . S
C179 C178 1.395 . S
C179 C182 1.390 . S
C180 C178 1.391 . S
C180 C184 1.387 . S
C180 C185 1.491 1_455 S
H181 C182 0.950 . S
C182 C179 1.390 . S
C182 H181 0.950 . S
C182 C183 1.378 . S
C183 C182 1.378 . S
C183 C184 1.409 . S
C184 C180 1.387 . S
C184 C183 1.409 . S
C184 H186 0.951 . S
C185 C180 1.491 1_655 S
C185 C187 1.382 . S
C185 C189 1.404 . S
H186 C184 0.951 . S
C187 C185 1.382 . S
C187 C188 1.390 . S
C187 H192 0.949 . S
C188 C187 1.390 . S
C188 C193 1.399 . S
C189 C185 1.404 . S
C189 H190 0.950 1_655 S
C189 C191 1.375 . S
H190 C189 0.950 1_455 S
C191 C189 1.375 . S
C191 C193 1.382 . S
C191 H195 0.950 . S
H192 C187 0.949 . S
C193 C188 1.399 . S
C193 C191 1.382 . S
C193 H194 0.952 . S
H194 C193 0.952 . S
H195 C191 0.950 . S
H196 C197 0.949 . S
C197 H196 0.949 . S
C197 C198 1.395 . S
C197 C199 1.391 . S
C198 C197 1.395 . S
C198 C201 1.390 . S
C199 C197 1.391 . S
C199 C203 1.387 . S
C199 C204 1.491 . S
H200 C201 0.950 . S
C201 C198 1.390 . S
C201 H200 0.950 . S
C201 C202 1.378 . S
C202 C201 1.378 . S
C202 C203 1.409 . S
C203 C199 1.387 . S
C203 C202 1.409 . S
C203 H205 0.951 . S
C204 C199 1.491 . S
C204 C206 1.382 1_545 S
C204 C208 1.404 . S
H205 C203 0.951 . S
C206 C204 1.382 1_565 S
C206 C207 1.390 . S
C206 H211 0.949 . S
C207 C206 1.390 . S
C207 C212 1.399 . S
C208 C204 1.404 . S
C208 H209 0.950 . S
C208 C210 1.375 1_545 S
H209 C208 0.950 . S
C210 C208 1.375 1_565 S
C210 C212 1.382 . S
C210 H214 0.950 . S
H211 C206 0.949 . S
C212 C207 1.399 . S
C212 C210 1.382 . S
C212 H213 0.952 . S
H213 C212 0.952 . S
H214 C210 0.950 . S
H215 C216 0.949 . S
C216 H215 0.949 . S
C216 C217 1.395 . S
C216 C218 1.391 . S
C217 C216 1.395 . S
C217 C220 1.390 . S
C218 C216 1.391 . S
C218 C222 1.387 . S
C218 C223 1.491 . S
H219 C220 0.950 . S
C220 C217 1.390 . S
C220 H219 0.950 . S
C220 C221 1.378 . S
C221 C220 1.378 . S
C221 C222 1.409 . S
C222 C218 1.387 . S
C222 C221 1.409 . S
C222 H224 0.951 . S
C223 C218 1.491 . S
C223 C225 1.382 . S
C223 C227 1.404 . S
H224 C222 0.951 . S
C225 C223 1.382 . S
C225 C226 1.390 . S
C225 H230 0.949 . S
C226 C225 1.390 . S
C226 C231 1.399 . S
C227 C223 1.404 . S
C227 H228 0.950 . S
C227 C229 1.375 . S
H228 C227 0.950 . S
C229 C227 1.375 . S
C229 C231 1.382 . S
C229 H233 0.950 . S
H230 C225 0.949 . S
C231 C226 1.399 . S
C231 C229 1.382 . S
C231 H232 0.952 . S
H232 C231 0.952 . S
H233 C229 0.950 . S
C234 C235 1.349 . S
C234 C236 1.327 . S
C234 H259 0.950 . S
C235 C234 1.349 . S
C235 C251 1.349 . S
C236 C234 1.327 . S
C236 C255 1.429 . S
C236 H260 0.950 . S
C237 C254 1.574 . S
C237 C256 1.368 . S
C237 H261 0.949 . S
H238 C242 0.949 . S
C239 C240 1.349 . S
C239 C241 1.327 . S
C239 H262 0.950 . S
C240 C239 1.349 . S
C240 C252 1.349 . S
C241 C239 1.327 . S
C241 C257 1.429 . S
C241 H263 0.950 . S
C242 H238 0.949 . S
C242 C250 1.574 . S
C242 C258 1.368 . S
H243 C251 0.950 . S
H244 C249 0.950 . S
H245 C250 0.949 . S
H246 C252 0.950 . S
H247 C253 0.950 . S
H248 C254 0.949 . S
C249 H244 0.950 . S
C249 C251 1.327 . S
C249 C255 1.429 . S
C250 C242 1.574 . S
C250 H245 0.949 . S
C250 C256 1.368 . S
C251 C235 1.349 . S
C251 H243 0.950 . S
C251 C249 1.327 . S
C252 C240 1.349 . S
C252 H246 0.950 . S
C252 C253 1.327 . S
C253 H247 0.950 . S
C253 C252 1.327 . S
C253 C257 1.429 . S
C254 C237 1.574 . S
C254 H248 0.949 . S
C254 C258 1.368 . S
C255 C236 1.429 . S
C255 C249 1.429 . S
C255 C256 1.523 . S
C256 C237 1.368 . S
C256 C250 1.368 . S
C256 C255 1.523 . S
C257 C241 1.429 . S
C257 C253 1.429 . S
C257 C258 1.523 . S
C258 C242 1.368 . S
C258 C254 1.368 . S
C258 C257 1.523 . S
H259 C234 0.950 . S
H260 C236 0.950 . S
H261 C237 0.949 . S
H262 C239 0.950 . S
H263 C241 0.950 . S
C264 C265 1.349 . S
C264 C266 1.327 . S
C264 H289 0.950 . S
C265 C264 1.349 . S
C265 C281 1.349 . S
C266 C264 1.327 . S
C266 C285 1.429 . S
C266 H290 0.950 . S
C267 C284 1.574 . S
C267 C286 1.368 . S
C267 H291 0.949 . S
H268 C272 0.949 . S
C269 C270 1.349 . S
C269 C271 1.327 . S
C269 H292 0.950 . S
C270 C269 1.349 . S
C270 C282 1.349 . S
C271 C269 1.327 . S
C271 C287 1.429 . S
C271 H293 0.950 . S
C272 H268 0.949 . S
C272 C280 1.574 . S
C272 C288 1.368 . S
H273 C281 0.950 . S
H274 C279 0.950 . S
H275 C280 0.949 . S
H276 C282 0.950 . S
H277 C283 0.950 . S
H278 C284 0.949 . S
C279 H274 0.950 . S
C279 C281 1.327 . S
C279 C285 1.429 . S
C280 C272 1.574 . S
C280 H275 0.949 . S
C280 C286 1.368 . S
C281 C265 1.349 . S
C281 H273 0.950 . S
C281 C279 1.327 . S
C282 C270 1.349 . S
C282 H276 0.950 . S
C282 C283 1.327 . S
C283 H277 0.950 . S
C283 C282 1.327 . S
C283 C287 1.429 . S
C284 C267 1.574 . S
C284 H278 0.949 . S
C284 C288 1.368 . S
C285 C266 1.429 . S
C285 C279 1.429 . S
C285 C286 1.523 . S
C286 C267 1.368 . S
C286 C280 1.368 . S
C286 C285 1.523 . S
C287 C271 1.429 . S
C287 C283 1.429 . S
C287 C288 1.523 . S
C288 C272 1.368 . S
C288 C284 1.368 . S
C288 C287 1.523 . S
H289 C264 0.950 . S
H290 C266 0.950 . S
H291 C267 0.949 . S
H292 C269 0.950 . S
H293 C271 0.950 . S
C294 C295 1.349 . S
C294 C296 1.327 . S
C294 H319 0.950 . S
C295 C294 1.349 . S
C295 C311 1.349 . S
C296 C294 1.327 . S
C296 C315 1.429 . S
C296 H320 0.950 . S
C297 C314 1.574 . S
C297 C316 1.368 . S
C297 H321 0.949 . S
H298 C302 0.949 . S
C299 C300 1.349 . S
C299 C301 1.327 . S
C299 H322 0.950 . S
C300 C299 1.349 . S
C300 C312 1.349 . S
C301 C299 1.327 . S
C301 C317 1.429 . S
C301 H323 0.950 . S
C302 H298 0.949 . S
C302 C310 1.574 . S
C302 C318 1.368 . S
H303 C311 0.950 . S
H304 C309 0.950 . S
H305 C310 0.949 . S
H306 C312 0.950 . S
H307 C313 0.950 . S
H308 C314 0.949 . S
C309 H304 0.950 . S
C309 C311 1.327 . S
C309 C315 1.429 . S
C310 C302 1.574 . S
C310 H305 0.949 . S
C310 C316 1.368 . S
C311 C295 1.349 . S
C311 H303 0.950 . S
C311 C309 1.327 . S
C312 C300 1.349 . S
C312 H306 0.950 . S
C312 C313 1.327 . S
C313 H307 0.950 . S
C313 C312 1.327 . S
C313 C317 1.429 . S
C314 C297 1.574 . S
C314 H308 0.949 . S
C314 C318 1.368 . S
C315 C296 1.429 . S
C315 C309 1.429 . S
C315 C316 1.523 . S
C316 C297 1.368 . S
C316 C310 1.368 . S
C316 C315 1.523 . S
C317 C301 1.429 . S
C317 C313 1.429 . S
C317 C318 1.523 . S
C318 C302 1.368 . S
C318 C314 1.368 . S
C318 C317 1.523 . S
H319 C294 0.950 . S
H320 C296 0.950 . S
H321 C297 0.949 . S
H322 C299 0.950 . S
H323 C301 0.950 . S
C324 C325 1.349 . S
C324 C326 1.327 . S
C324 H349 0.950 . S
C325 C324 1.349 . S
C325 C341 1.349 . S
C326 C324 1.327 . S
C326 C345 1.429 . S
C326 H350 0.950 . S
C327 C344 1.574 . S
C327 C346 1.368 . S
C327 H351 0.949 . S
H328 C332 0.949 . S
C329 C330 1.349 . S
C329 C331 1.327 . S
C329 H352 0.950 . S
C330 C329 1.349 . S
C330 C342 1.349 . S
C331 C329 1.327 . S
C331 C347 1.429 . S
C331 H353 0.950 . S
C332 H328 0.949 . S
C332 C340 1.574 . S
C332 C348 1.368 . S
H333 C341 0.950 . S
H334 C339 0.950 . S
H335 C340 0.949 . S
H336 C342 0.950 . S
H337 C343 0.950 . S
H338 C344 0.949 . S
C339 H334 0.950 . S
C339 C341 1.327 . S
C339 C345 1.429 . S
C340 C332 1.574 . S
C340 H335 0.949 . S
C340 C346 1.368 . S
C341 C325 1.349 . S
C341 H333 0.950 . S
C341 C339 1.327 . S
C342 C330 1.349 . S
C342 H336 0.950 . S
C342 C343 1.327 . S
C343 H337 0.950 . S
C343 C342 1.327 . S
C343 C347 1.429 . S
C344 C327 1.574 . S
C344 H338 0.949 . S
C344 C348 1.368 . S
C345 C326 1.429 . S
C345 C339 1.429 . S
C345 C346 1.523 . S
C346 C327 1.368 . S
C346 C340 1.368 . S
C346 C345 1.523 . S
C347 C331 1.429 . S
C347 C343 1.429 . S
C347 C348 1.523 . S
C348 C332 1.368 . S
C348 C344 1.368 . S
C348 C347 1.523 . S
H349 C324 0.950 . S
H350 C326 0.950 . S
H351 C327 0.949 . S
H352 C329 0.950 . S
H353 C331 0.950 . S
C354 C355 1.349 . S
C354 C356 1.327 . S
C354 H379 0.950 . S
C355 C354 1.349 . S
C355 C371 1.349 . S
C356 C354 1.327 . S
C356 C375 1.429 . S
C356 H380 0.950 . S
C357 C374 1.574 . S
C357 C376 1.368 . S
C357 H381 0.949 . S
H358 C362 0.949 . S
C359 C360 1.349 . S
C359 C361 1.327 . S
C359 H382 0.950 . S
C360 C359 1.349 . S
C360 C372 1.349 . S
C361 C359 1.327 . S
C361 C377 1.429 . S
C361 H383 0.950 . S
C362 H358 0.949 . S
C362 C370 1.574 . S
C362 C378 1.368 . S
H363 C371 0.950 . S
H364 C369 0.950 . S
H365 C370 0.949 . S
H366 C372 0.950 . S
H367 C373 0.950 . S
H368 C374 0.949 . S
C369 H364 0.950 . S
C369 C371 1.327 . S
C369 C375 1.429 . S
C370 C362 1.574 . S
C370 H365 0.949 . S
C370 C376 1.368 . S
C371 C355 1.349 . S
C371 H363 0.950 . S
C371 C369 1.327 . S
C372 C360 1.349 . S
C372 H366 0.950 . S
C372 C373 1.327 . S
C373 H367 0.950 . S
C373 C372 1.327 . S
C373 C377 1.429 . S
C374 C357 1.574 . S
C374 H368 0.949 . S
C374 C378 1.368 . S
C375 C356 1.429 . S
C375 C369 1.429 . S
C375 C376 1.523 . S
C376 C357 1.368 . S
C376 C370 1.368 . S
C376 C375 1.523 . S
C377 C361 1.429 . S
C377 C373 1.429 . S
C377 C378 1.523 . S
C378 C362 1.368 . S
C378 C374 1.368 . S
C378 C377 1.523 . S
H379 C354 0.950 . S
H380 C356 0.950 . S
H381 C357 0.949 . S
H382 C359 0.950 . S
H383 C361 0.950 . S
C384 C385 1.349 . S
C384 C386 1.327 . S
C384 H409 0.950 . S
C385 C384 1.349 . S
C385 C401 1.349 . S
C386 C384 1.327 . S
C386 C405 1.429 . S
C386 H410 0.950 . S
C387 C404 1.574 . S
C387 C406 1.368 . S
C387 H411 0.949 . S
H388 C392 0.949 . S
C389 C390 1.349 . S
C389 C391 1.327 . S
C389 H412 0.950 . S
C390 C389 1.349 . S
C390 C402 1.349 . S
C391 C389 1.327 . S
C391 C407 1.429 . S
C391 H413 0.950 . S
C392 H388 0.949 . S
C392 C400 1.574 . S
C392 C408 1.368 . S
H393 C401 0.950 . S
H394 C399 0.950 . S
H395 C400 0.949 . S
H396 C402 0.950 . S
H397 C403 0.950 . S
H398 C404 0.949 . S
C399 H394 0.950 . S
C399 C401 1.327 . S
C399 C405 1.429 . S
C400 C392 1.574 . S
C400 H395 0.949 . S
C400 C406 1.368 . S
C401 C385 1.349 . S
C401 H393 0.950 . S
C401 C399 1.327 . S
C402 C390 1.349 . S
C402 H396 0.950 . S
C402 C403 1.327 . S
C403 H397 0.950 . S
C403 C402 1.327 . S
C403 C407 1.429 . S
C404 C387 1.574 . S
C404 H398 0.949 . S
C404 C408 1.368 . S
C405 C386 1.429 . S
C405 C399 1.429 . S
C405 C406 1.523 . S
C406 C387 1.368 . S
C406 C400 1.368 . S
C406 C405 1.523 . S
C407 C391 1.429 . S
C407 C403 1.429 . S
C407 C408 1.523 . S
C408 C392 1.368 . S
C408 C404 1.368 . S
C408 C407 1.523 . S
H409 C384 0.950 . S
H410 C386 0.950 . S
H411 C387 0.949 . S
H412 C389 0.950 . S
H413 C391 0.950 . S
C414 C415 1.349 . S
C414 C416 1.327 . S
C414 H439 0.950 . S
C415 C414 1.349 . S
C415 C431 1.349 . S
C416 C414 1.327 . S
C416 C435 1.429 . S
C416 H440 0.950 . S
C417 C434 1.574 . S
C417 C436 1.368 . S
C417 H441 0.949 . S
H418 C422 0.949 . S
C419 C420 1.349 . S
C419 C421 1.327 . S
C419 H442 0.950 . S
C420 C419 1.349 . S
C420 C432 1.349 . S
C421 C419 1.327 . S
C421 C437 1.429 . S
C421 H443 0.950 . S
C422 H418 0.949 . S
C422 C430 1.574 . S
C422 C438 1.368 . S
H423 C431 0.950 . S
H424 C429 0.950 . S
H425 C430 0.949 . S
H426 C432 0.950 . S
H427 C433 0.950 . S
H428 C434 0.949 . S
C429 H424 0.950 . S
C429 C431 1.327 . S
C429 C435 1.429 . S
C430 C422 1.574 . S
C430 H425 0.949 . S
C430 C436 1.368 . S
C431 C415 1.349 . S
C431 H423 0.950 . S
C431 C429 1.327 . S
C432 C420 1.349 . S
C432 H426 0.950 . S
C432 C433 1.327 . S
C433 H427 0.950 . S
C433 C432 1.327 . S
C433 C437 1.429 . S
C434 C417 1.574 . S
C434 H428 0.949 . S
C434 C438 1.368 . S
C435 C416 1.429 . S
C435 C429 1.429 . S
C435 C436 1.523 . S
C436 C417 1.368 . S
C436 C430 1.368 . S
C436 C435 1.523 . S
C437 C421 1.429 . S
C437 C433 1.429 . S
C437 C438 1.523 . S
C438 C422 1.368 . S
C438 C434 1.368 . S
C438 C437 1.523 . S
H439 C414 0.950 . S
H440 C416 0.950 . S
H441 C417 0.949 . S
H442 C419 0.950 . S
H443 C421 0.950 . S
C444 C445 1.349 . S
C444 C446 1.327 . S
C444 H469 0.950 . S
C445 C444 1.349 . S
C445 C461 1.349 . S
C446 C444 1.327 . S
C446 C465 1.429 . S
C446 H470 0.950 . S
C447 C464 1.574 . S
C447 C466 1.368 . S
C447 H471 0.949 . S
H448 C452 0.949 . S
C449 C450 1.349 1_655 S
C449 C451 1.327 . S
C449 H472 0.950 . S
C450 C449 1.349 1_455 S
C450 C462 1.349 . S
C451 C449 1.327 . S
C451 C467 1.429 . S
C451 H473 0.950 . S
C452 H448 0.949 . S
C452 C460 1.574 . S
C452 C468 1.368 . S
H453 C461 0.950 . S
H454 C459 0.950 . S
H455 C460 0.949 . S
H456 C462 0.950 . S
H457 C463 0.950 . S
H458 C464 0.949 . S
C459 H454 0.950 . S
C459 C461 1.327 . S
C459 C465 1.429 . S
C460 C452 1.574 . S
C460 H455 0.949 . S
C460 C466 1.368 . S
C461 C445 1.349 . S
C461 H453 0.950 . S
C461 C459 1.327 . S
C462 C450 1.349 . S
C462 H456 0.950 . S
C462 C463 1.327 1_455 S
C463 H457 0.950 . S
C463 C462 1.327 1_655 S
C463 C467 1.429 . S
C464 C447 1.574 . S
C464 H458 0.949 . S
C464 C468 1.368 . S
C465 C446 1.429 . S
C465 C459 1.429 . S
C465 C466 1.523 . S
C466 C447 1.368 . S
C466 C460 1.368 . S
C466 C465 1.523 . S
C467 C451 1.429 . S
C467 C463 1.429 . S
C467 C468 1.523 . S
C468 C452 1.368 . S
C468 C464 1.368 . S
C468 C467 1.523 . S
H469 C444 0.950 . S
H470 C446 0.950 . S
H471 C447 0.949 . S
H472 C449 0.950 . S
H473 C451 0.950 . S
C474 C475 1.349 . S
C474 C476 1.327 . S
C474 H499 0.950 . S
C475 C474 1.349 . S
C475 C491 1.349 . S
C476 C474 1.327 . S
C476 C495 1.429 . S
C476 H500 0.950 . S
C477 C494 1.574 . S
C477 C496 1.368 . S
C477 H501 0.949 . S
H478 C482 0.949 . S
C479 C480 1.349 . S
C479 C481 1.327 1_545 S
C479 H502 0.950 . S
C480 C479 1.349 . S
C480 C492 1.349 1_545 S
C481 C479 1.327 1_565 S
C481 C497 1.429 . S
C481 H503 0.950 . S
C482 H478 0.949 . S
C482 C490 1.574 . S
C482 C498 1.368 . S
H483 C491 0.950 . S
H484 C489 0.950 . S
H485 C490 0.949 . S
H486 C492 0.950 . S
H487 C493 0.950 . S
H488 C494 0.949 . S
C489 H484 0.950 . S
C489 C491 1.327 . S
C489 C495 1.429 . S
C490 C482 1.574 . S
C490 H485 0.949 . S
C490 C496 1.368 . S
C491 C475 1.349 . S
C491 H483 0.950 . S
C491 C489 1.327 . S
C492 C480 1.349 1_565 S
C492 H486 0.950 . S
C492 C493 1.327 . S
C493 H487 0.950 . S
C493 C492 1.327 . S
C493 C497 1.429 . S
C494 C477 1.574 . S
C494 H488 0.949 . S
C494 C498 1.368 . S
C495 C476 1.429 . S
C495 C489 1.429 . S
C495 C496 1.523 . S
C496 C477 1.368 . S
C496 C490 1.368 . S
C496 C495 1.523 . S
C497 C481 1.429 . S
C497 C493 1.429 . S
C497 C498 1.523 . S
C498 C482 1.368 . S
C498 C494 1.368 . S
C498 C497 1.523 . S
H499 C474 0.950 . S
H500 C476 0.950 . S
H501 C477 0.949 . S
H502 C479 0.950 . S
H503 C481 0.950 . S
C504 C505 1.349 . S
C504 C506 1.327 . S
C504 H529 0.950 . S
C505 C504 1.349 . S
C505 C521 1.349 . S
C506 C504 1.327 . S
C506 C525 1.429 . S
C506 H530 0.950 . S
C507 C524 1.574 . S
C507 C526 1.368 . S
C507 H531 0.949 . S
H508 C512 0.949 . S
C509 C510 1.349 . S
C509 C511 1.327 . S
C509 H532 0.950 . S
C510 C509 1.349 . S
C510 C522 1.349 . S
C511 C509 1.327 . S
C511 C527 1.429 . S
C511 H533 0.950 . S
C512 H508 0.949 . S
C512 C520 1.574 . S
C512 C528 1.368 . S
H513 C521 0.950 . S
H514 C519 0.950 . S
H515 C520 0.949 . S
H516 C522 0.950 . S
H517 C523 0.950 . S
H518 C524 0.949 . S
C519 H514 0.950 . S
C519 C521 1.327 . S
C519 C525 1.429 . S
C520 C512 1.574 . S
C520 H515 0.949 . S
C520 C526 1.368 . S
C521 C505 1.349 . S
C521 H513 0.950 . S
C521 C519 1.327 . S
C522 C510 1.349 . S
C522 H516 0.950 . S
C522 C523 1.327 . S
C523 H517 0.950 . S
C523 C522 1.327 . S
C523 C527 1.429 . S
C524 C507 1.574 . S
C524 H518 0.949 . S
C524 C528 1.368 . S
C525 C506 1.429 . S
C525 C519 1.429 . S
C525 C526 1.523 . S
C526 C507 1.368 . S
C526 C520 1.368 . S
C526 C525 1.523 . S
C527 C511 1.429 . S
C527 C523 1.429 . S
C527 C528 1.523 . S
C528 C512 1.368 . S
C528 C524 1.368 . S
C528 C527 1.523 . S
H529 C504 0.950 . S
H530 C506 0.950 . S
H531 C507 0.949 . S
H532 C509 0.950 . S
H533 C511 0.950 . S
C534 C535 1.349 . S
C534 C536 1.327 . S
C534 H559 0.950 . S
C535 C534 1.349 . S
C535 C551 1.349 . S
C536 C534 1.327 . S
C536 C555 1.429 . S
C536 H560 0.950 . S
C537 C554 1.574 . S
C537 C556 1.368 . S
C537 H561 0.949 . S
H538 C542 0.949 . S
C539 C540 1.349 . S
C539 C541 1.327 . S
C539 H562 0.950 . S
C540 C539 1.349 . S
C540 C552 1.349 . S
C541 C539 1.327 . S
C541 C557 1.429 . S
C541 H563 0.950 . S
C542 H538 0.949 . S
C542 C550 1.574 . S
C542 C558 1.368 . S
H543 C551 0.950 . S
H544 C549 0.950 . S
H545 C550 0.949 . S
H546 C552 0.950 . S
H547 C553 0.950 . S
H548 C554 0.949 . S
C549 H544 0.950 . S
C549 C551 1.327 . S
C549 C555 1.429 . S
C550 C542 1.574 . S
C550 H545 0.949 . S
C550 C556 1.368 . S
C551 C535 1.349 . S
C551 H543 0.950 . S
C551 C549 1.327 . S
C552 C540 1.349 . S
C552 H546 0.950 . S
C552 C553 1.327 . S
C553 H547 0.950 . S
C553 C552 1.327 . S
C553 C557 1.429 . S
C554 C537 1.574 . S
C554 H548 0.949 . S
C554 C558 1.368 . S
C555 C536 1.429 . S
C555 C549 1.429 . S
C555 C556 1.523 . S
C556 C537 1.368 . S
C556 C550 1.368 . S
C556 C555 1.523 . S
C557 C541 1.429 . S
C557 C553 1.429 . S
C557 C558 1.523 . S
C558 C542 1.368 . S
C558 C554 1.368 . S
C558 C557 1.523 . S
H559 C534 0.950 . S
H560 C536 0.950 . S
H561 C537 0.949 . S
H562 C539 0.950 . S
H563 C541 0.950 . S
C564 C565 1.349 . S
C564 C566 1.327 . S
C564 H589 0.950 . S
C565 C564 1.349 . S
C565 C581 1.349 . S
C566 C564 1.327 . S
C566 C585 1.429 . S
C566 H590 0.950 . S
C567 C584 1.574 . S
C567 C586 1.368 . S
C567 H591 0.949 . S
H568 C572 0.949 . S
C569 C570 1.349 . S
C569 C571 1.327 . S
C569 H592 0.950 . S
C570 C569 1.349 . S
C570 C582 1.349 . S
C571 C569 1.327 . S
C571 C587 1.429 . S
C571 H593 0.950 . S
C572 H568 0.949 . S
C572 C580 1.574 . S
C572 C588 1.368 . S
H573 C581 0.950 . S
H574 C579 0.950 . S
H575 C580 0.949 . S
H576 C582 0.950 . S
H577 C583 0.950 . S
H578 C584 0.949 . S
C579 H574 0.950 . S
C579 C581 1.327 . S
C579 C585 1.429 . S
C580 C572 1.574 . S
C580 H575 0.949 . S
C580 C586 1.368 . S
C581 C565 1.349 . S
C581 H573 0.950 . S
C581 C579 1.327 . S
C582 C570 1.349 . S
C582 H576 0.950 . S
C582 C583 1.327 . S
C583 H577 0.950 . S
C583 C582 1.327 . S
C583 C587 1.429 . S
C584 C567 1.574 . S
C584 H578 0.949 . S
C584 C588 1.368 . S
C585 C566 1.429 . S
C585 C579 1.429 . S
C585 C586 1.523 . S
C586 C567 1.368 . S
C586 C580 1.368 . S
C586 C585 1.523 . S
C587 C571 1.429 . S
C587 C583 1.429 . S
C587 C588 1.523 . S
C588 C572 1.368 . S
C588 C584 1.368 . S
C588 C587 1.523 . S
H589 C564 0.950 . S
H590 C566 0.950 . S
H591 C567 0.949 . S
H592 C569 0.950 . S
H593 C571 0.950 . S
C594 C595 1.349 1_655 S
C594 C596 1.327 . S
C594 H619 0.950 . S
C595 C594 1.349 1_455 S
C595 C611 1.349 . S
C596 C594 1.327 . S
C596 C615 1.429 1_655 S
C596 H620 0.950 . S
C597 C614 1.574 . S
C597 C616 1.368 . S
C597 H621 0.949 . S
H598 C602 0.949 1_655 S
C599 C600 1.349 . S
C599 C601 1.327 . S
C599 H622 0.950 . S
C600 C599 1.349 . S
C600 C612 1.349 . S
C601 C599 1.327 . S
C601 C617 1.429 . S
C601 H623 0.950 . S
C602 H598 0.949 1_455 S
C602 C610 1.574 1_556 S
C602 C618 1.368 . S
H603 C611 0.950 . S
H604 C609 0.950 . S
H605 C610 0.949 1_655 S
H606 C612 0.950 . S
H607 C613 0.950 1_655 S
H608 C614 0.949 1_556 S
C609 H604 0.950 . S
C609 C611 1.327 . S
C609 C615 1.429 . S
C610 C602 1.574 1_554 S
C610 H605 0.949 1_455 S
C610 C616 1.368 . S
C611 C595 1.349 . S
C611 H603 0.950 . S
C611 C609 1.327 . S
C612 C600 1.349 . S
C612 H606 0.950 . S
C612 C613 1.327 . S
C613 H607 0.950 1_455 S
C613 C612 1.327 . S
C613 C617 1.429 . S
C614 C597 1.574 . S
C614 H608 0.949 1_554 S
C614 C618 1.368 1_554 S
C615 C596 1.429 1_455 S
C615 C609 1.429 . S
C615 C616 1.523 . S
C616 C597 1.368 . S
C616 C610 1.368 . S
C616 C615 1.523 . S
C617 C601 1.429 . S
C617 C613 1.429 . S
C617 C618 1.523 . S
C618 C602 1.368 . S
C618 C614 1.368 1_556 S
C618 C617 1.523 . S
H619 C594 0.950 . S
H620 C596 0.950 . S
H621 C597 0.949 . S
H622 C599 0.950 . S
H623 C601 0.950 . S
C624 C625 1.349 . S
C624 C626 1.327 . S
C624 H649 0.950 1_545 S
C625 C624 1.349 . S
C625 C641 1.349 . S
C626 C624 1.327 . S
C626 C645 1.429 . S
C626 H650 0.950 1_545 S
C627 C644 1.574 . S
C627 C646 1.368 . S
C627 H651 0.949 . S
H628 C632 0.949 1_565 S
C629 C630 1.349 . S
C629 C631 1.327 . S
C629 H652 0.950 . S
C630 C629 1.349 . S
C630 C642 1.349 . S
C631 C629 1.327 . S
C631 C647 1.429 . S
C631 H653 0.950 . S
C632 H628 0.949 1_545 S
C632 C640 1.574 . S
C632 C648 1.368 . S
H633 C641 0.950 . S
H634 C639 0.950 . S
H635 C640 0.949 1_565 S
H636 C642 0.950 . S
H637 C643 0.950 . S
H638 C644 0.949 . S
C639 H634 0.950 . S
C639 C641 1.327 . S
C639 C645 1.429 . S
C640 C632 1.574 . S
C640 H635 0.949 1_545 S
C640 C646 1.368 . S
C641 C625 1.349 . S
C641 H633 0.950 . S
C641 C639 1.327 . S
C642 C630 1.349 . S
C642 H636 0.950 . S
C642 C643 1.327 . S
C643 H637 0.950 . S
C643 C642 1.327 . S
C643 C647 1.429 . S
C644 C627 1.574 . S
C644 H638 0.949 . S
C644 C648 1.368 . S
C645 C626 1.429 . S
C645 C639 1.429 . S
C645 C646 1.523 . S
C646 C627 1.368 . S
C646 C640 1.368 . S
C646 C645 1.523 . S
C647 C631 1.429 . S
C647 C643 1.429 . S
C647 C648 1.523 . S
C648 C632 1.368 . S
C648 C644 1.368 . S
C648 C647 1.523 . S
H649 C624 0.950 1_565 S
H650 C626 0.950 1_565 S
H651 C627 0.949 . S
H652 C629 0.950 . S
H653 C631 0.950 . S
C654 C655 1.349 . S
C654 C656 1.327 . S
C654 H679 0.950 . S
C655 C654 1.349 . S
C655 C671 1.349 . S
C656 C654 1.327 . S
C656 C675 1.429 . S
C656 H680 0.950 . S
C657 C674 1.574 . S
C657 C676 1.368 . S
C657 H681 0.949 . S
H658 C662 0.949 . S
C659 C660 1.349 . S
C659 C661 1.327 . S
C659 H682 0.950 . S
C660 C659 1.349 . S
C660 C672 1.349 . S
C661 C659 1.327 . S
C661 C677 1.429 . S
C661 H683 0.950 . S
C662 H658 0.949 . S
C662 C670 1.574 . S
C662 C678 1.368 . S
H663 C671 0.950 . S
H664 C669 0.950 . S
H665 C670 0.949 . S
H666 C672 0.950 . S
H667 C673 0.950 . S
H668 C674 0.949 . S
C669 H664 0.950 . S
C669 C671 1.327 . S
C669 C675 1.429 . S
C670 C662 1.574 . S
C670 H665 0.949 . S
C670 C676 1.368 . S
C671 C655 1.349 . S
C671 H663 0.950 . S
C671 C669 1.327 . S
C672 C660 1.349 . S
C672 H666 0.950 . S
C672 C673 1.327 . S
C673 H667 0.950 . S
C673 C672 1.327 . S
C673 C677 1.429 . S
C674 C657 1.574 . S
C674 H668 0.949 . S
C674 C678 1.368 . S
C675 C656 1.429 . S
C675 C669 1.429 . S
C675 C676 1.523 . S
C676 C657 1.368 . S
C676 C670 1.368 . S
C676 C675 1.523 . S
C677 C661 1.429 . S
C677 C673 1.429 . S
C677 C678 1.523 . S
C678 C662 1.368 . S
C678 C674 1.368 . S
C678 C677 1.523 . S
H679 C654 0.950 . S
H680 C656 0.950 . S
H681 C657 0.949 . S
H682 C659 0.950 . S
H683 C661 0.950 . S
C684 C685 1.349 . S
C684 C686 1.327 . S
C684 H709 0.950 . S
C685 C684 1.349 . S
C685 C701 1.349 . S
C686 C684 1.327 . S
C686 C705 1.429 . S
C686 H710 0.950 . S
C687 C704 1.574 . S
C687 C706 1.368 . S
C687 H711 0.949 . S
H688 C692 0.949 . S
C689 C690 1.349 . S
C689 C691 1.327 . S
C689 H712 0.950 . S
C690 C689 1.349 . S
C690 C702 1.349 . S
C691 C689 1.327 . S
C691 C707 1.429 . S
C691 H713 0.950 . S
C692 H688 0.949 . S
C692 C700 1.574 . S
C692 C708 1.368 . S
H693 C701 0.950 . S
H694 C699 0.950 . S
H695 C700 0.949 . S
H696 C702 0.950 . S
H697 C703 0.950 . S
H698 C704 0.949 . S
C699 H694 0.950 . S
C699 C701 1.327 . S
C699 C705 1.429 . S
C700 C692 1.574 . S
C700 H695 0.949 . S
C700 C706 1.368 . S
C701 C685 1.349 . S
C701 H693 0.950 . S
C701 C699 1.327 . S
C702 C690 1.349 . S
C702 H696 0.950 . S
C702 C703 1.327 . S
C703 H697 0.950 . S
C703 C702 1.327 . S
C703 C707 1.429 . S
C704 C687 1.574 . S
C704 H698 0.949 . S
C704 C708 1.368 . S
C705 C686 1.429 . S
C705 C699 1.429 . S
C705 C706 1.523 . S
C706 C687 1.368 . S
C706 C700 1.368 . S
C706 C705 1.523 . S
C707 C691 1.429 . S
C707 C703 1.429 . S
C707 C708 1.523 . S
C708 C692 1.368 . S
C708 C704 1.368 . S
C708 C707 1.523 . S
H709 C684 0.950 . S
H710 C686 0.950 . S
H711 C687 0.949 . S
H712 C689 0.950 . S
H713 C691 0.950 . S
C714 C715 1.349 . S
C714 C716 1.327 . S
C714 H739 0.950 . S
C715 C714 1.349 . S
C715 C731 1.349 . S
C716 C714 1.327 . S
C716 C735 1.429 . S
C716 H740 0.950 . S
C717 C734 1.543 1_556 S
C717 C736 1.368 . S
C717 H741 0.949 . S
H718 C722 0.949 1_554 S
C719 C720 1.349 . S
C719 C721 1.327 . S
C719 H742 0.950 . S
C720 C719 1.349 . S
C720 C732 1.349 . S
C721 C719 1.327 . S
C721 C737 1.429 . S
C721 H743 0.950 . S
C722 H718 0.949 1_556 S
C722 C730 1.574 . S
C722 C738 1.368 1_556 S
H723 C731 0.950 . S
H724 C729 0.950 . S
H725 C730 0.949 . S
H726 C732 0.950 . S
H727 C733 0.950 . S
H728 C734 0.971 . S
C729 H724 0.950 . S
C729 C731 1.327 . S
C729 C735 1.429 . S
C730 C722 1.574 . S
C730 H725 0.949 . S
C730 C736 1.368 . S
C731 C715 1.349 . S
C731 H723 0.950 . S
C731 C729 1.327 . S
C732 C720 1.349 . S
C732 H726 0.950 . S
C732 C733 1.327 . S
C733 H727 0.950 . S
C733 C732 1.327 . S
C733 C737 1.429 . S
C734 C717 1.543 1_554 S
C734 H728 0.971 . S
C734 C738 1.375 . S
C735 C716 1.429 . S
C735 C729 1.429 . S
C735 C736 1.523 . S
C736 C717 1.368 . S
C736 C730 1.368 . S
C736 C735 1.523 . S
C737 C721 1.429 . S
C737 C733 1.429 . S
C737 C738 1.523 . S
C738 C722 1.368 1_554 S
C738 C734 1.375 . S
C738 C737 1.523 . S
H739 C714 0.950 . S
H740 C716 0.950 . S
H741 C717 0.949 . S
H742 C719 0.950 . S
H743 C721 0.950 . S
C744 C745 1.349 . S
C744 C746 1.327 . S
C744 H769 0.950 . S
C745 C744 1.349 . S
C745 C761 1.349 . S
C746 C744 1.327 . S
C746 C765 1.429 . S
C746 H770 0.950 . S
C747 C764 1.574 . S
C747 C766 1.368 . S
C747 H771 0.949 . S
H748 C752 0.949 . S
C749 C750 1.349 . S
C749 C751 1.327 . S
C749 H772 0.950 . S
C750 C749 1.349 . S
C750 C762 1.349 . S
C751 C749 1.327 . S
C751 C767 1.429 . S
C751 H773 0.950 . S
C752 H748 0.949 . S
C752 C760 1.574 . S
C752 C768 1.368 . S
H753 C761 0.950 . S
H754 C759 0.950 . S
H755 C760 0.949 . S
H756 C762 0.950 . S
H757 C763 0.950 . S
H758 C764 0.949 . S
C759 H754 0.950 . S
C759 C761 1.327 . S
C759 C765 1.429 . S
C760 C752 1.574 . S
C760 H755 0.949 . S
C760 C766 1.368 . S
C761 C745 1.349 . S
C761 H753 0.950 . S
C761 C759 1.327 . S
C762 C750 1.349 . S
C762 H756 0.950 . S
C762 C763 1.327 . S
C763 H757 0.950 . S
C763 C762 1.327 . S
C763 C767 1.429 . S
C764 C747 1.574 . S
C764 H758 0.949 . S
C764 C768 1.368 . S
C765 C746 1.429 . S
C765 C759 1.429 . S
C765 C766 1.523 . S
C766 C747 1.368 . S
C766 C760 1.368 . S
C766 C765 1.523 . S
C767 C751 1.429 . S
C767 C763 1.429 . S
C767 C768 1.523 . S
C768 C752 1.368 . S
C768 C764 1.368 . S
C768 C767 1.523 . S
H769 C744 0.950 . S
H770 C746 0.950 . S
H771 C747 0.949 . S
H772 C749 0.950 . S
H773 C751 0.950 . S
C235 C12 3.072 . S
C240 C226 2.981 . S
C265 C52 3.067 . S
C270 C188 2.979 . S
C295 C111 3.102 . S
C300 C207 3.010 . S
C325 C31 3.009 . S
C330 C221 2.962 . S
C360 C183 2.968 . S
C355 C71 3.016 . S
C390 C202 2.919 . S
C385 C92 2.964 . S
C415 C48 0.582 . S
C420 C150 0.633 . S
C445 C109 0.257 . S
C450 C164 0.210 . S
C475 C29 0.202 . S
C480 C126 0.229 . S
C510 C145 0.258 . S
C505 C69 0.185 . S
C540 C169 0.466 . S
C535 C88 0.326 . S
C565 C8 0.396 . S
C570 C131 0.512 . S
C600 C160 1.382 . S
C595 C17 1.345 . S
C625 C57 1.313 . S
C630 C122 1.344 . S
C655 C97 1.348 . S
C660 C141 1.373 . S
C690 C198 1.709 . S
C685 C42 1.700 . S
C720 C217 1.731 . S
C715 C82 1.719 . S
C745 C2 1.737 . S
C750 C179 1.737 . S
