# Generated by pormake.
# Topology anh, (6,3)-cn, num edge types: 1
# Building blocks:
#     Node 0, Type 0, BuildingBlock: CUKXOW_clean_sbu_0, # of connection points: 6
#     Node 1, Type 0, BuildingBlock: CUKXOW_clean_sbu_0, # of connection points: 6
#     Node 2, Type 0, BuildingBlock: CUKXOW_clean_sbu_0, # of connection points: 6
#     Node 3, Type 1, BuildingBlock: PAMTOO_clean_linker_0, # of connection points: 3
#     Node 4, Type 1, BuildingBlock: PAMTOO_clean_linker_0, # of connection points: 3
#     Node 5, Type 1, BuildingBlock: PAMTOO_clean_linker_0, # of connection points: 3
#     Node 6, Type 1, BuildingBlock: PAMTOO_clean_linker_0, # of connection points: 3
#     Node 7, Type 1, BuildingBlock: PAMTOO_clean_linker_0, # of connection points: 3
#     Node 8, Type 1, BuildingBlock: PAMTOO_clean_linker_0, # of connection points: 3
#     Edge 9, Type (0, 1), BuildingBlock: XIVTED_clean_linker_0, # of connection points: 2
#     Edge 10, Type (0, 1), BuildingBlock: XIVTED_clean_linker_0, # of connection points: 2
#     Edge 11, Type (0, 1), BuildingBlock: XIVTED_clean_linker_0, # of connection points: 2
#     Edge 12, Type (0, 1), BuildingBlock: XIVTED_clean_linker_0, # of connection points: 2
#     Edge 13, Type (0, 1), BuildingBlock: XIVTED_clean_linker_0, # of connection points: 2
#     Edge 14, Type (0, 1), BuildingBlock: XIVTED_clean_linker_0, # of connection points: 2
#     Edge 15, Type (0, 1), BuildingBlock: XIVTED_clean_linker_0, # of connection points: 2
#     Edge 16, Type (0, 1), BuildingBlock: XIVTED_clean_linker_0, # of connection points: 2
#     Edge 17, Type (0, 1), BuildingBlock: XIVTED_clean_linker_0, # of connection points: 2
#     Edge 18, Type (0, 1), BuildingBlock: XIVTED_clean_linker_0, # of connection points: 2
#     Edge 19, Type (0, 1), BuildingBlock: XIVTED_clean_linker_0, # of connection points: 2
#     Edge 20, Type (0, 1), BuildingBlock: XIVTED_clean_linker_0, # of connection points: 2
#     Edge 21, Type (0, 1), BuildingBlock: XIVTED_clean_linker_0, # of connection points: 2
#     Edge 22, Type (0, 1), BuildingBlock: XIVTED_clean_linker_0, # of connection points: 2
#     Edge 23, Type (0, 1), BuildingBlock: XIVTED_clean_linker_0, # of connection points: 2
#     Edge 24, Type (0, 1), BuildingBlock: XIVTED_clean_linker_0, # of connection points: 2
#     Edge 25, Type (0, 1), BuildingBlock: XIVTED_clean_linker_0, # of connection points: 2
#     Edge 26, Type (0, 1), BuildingBlock: XIVTED_clean_linker_0, # of connection points: 2
# Relax obj value: 0.107
# Max RMSD: 0.156
# Mean RMSD: 0.125
data_MOF--net-anh--node1-CUKXOW_clean_sbu_0--node2-PAMTOO_clean_linker_0--edge1-XIVTED_clean_linker_0
_symmetry_space_group_name_H-M    P1
_symmetry_Int_Tables_number       1
_symmetry_cell_setting            triclinic
loop_
_symmetry_equiv_pos_as_xyz
'x, y, z'
_cell_length_a     29.083251
_cell_length_b     28.380158
_cell_length_c     48.152109
_cell_angle_alpha  91.706649
_cell_angle_beta   91.923901
_cell_angle_gamma 112.80384
loop_
_atom_site_label
_atom_site_type_symbol
_atom_site_fract_x
_atom_site_fract_y
_atom_site_fract_z
_atom_type_partial_charge
Tb0 Tb 0.11748 0.56634 0.16455 0.0
C1 C 0.08107 0.51382 0.22039 0.0
Tb2 Tb 0.04946 0.44678 0.16377 0.0
O3 O 0.0551 0.59328 0.16608 0.0
O4 O 0.04153 0.51741 0.16324 0.0
O5 O 0.11721 0.55103 0.20852 0.0
C6 C 0.97043 0.35923 0.16562 0.0
O7 O 0.04636 0.47466 0.20608 0.0
C8 C 0.14714 0.46455 0.16515 0.0
C9 C 0.0848 0.49979 0.10771 0.0
O10 O 1.00327 0.38046 0.18587 0.0
O11 O 0.98226 0.38707 0.144 0.0
O12 O 0.11133 0.41935 0.1652 0.0
O13 O 0.1257 0.49556 0.16442 0.0
O14 O 0.0503 0.46133 0.11979 0.0
O15 O 0.11868 0.54015 0.12167 0.0
C16 C 0.19524 0.65517 0.16374 0.0
O17 O 0.16061 0.63642 0.14408 0.0
O18 O 0.18614 0.6239 0.18392 0.0
C19 C 1.01953 0.54783 0.16456 0.0
Tb20 Tb 0.52215 0.98037 0.49636 0.0
C21 C 0.57521 0.01466 0.44177 0.0
Tb22 Tb 0.62931 0.05368 0.5009 0.0
O23 O 0.4983 0.03881 0.47984 0.0
O24 O 0.56025 0.05966 0.50745 0.0
O25 O 0.54191 0.97515 0.45362 0.0
C26 C 0.71708 0.13176 0.49771 0.0
O27 O 0.60855 0.05364 0.45679 0.0
C28 C 0.61518 0.95724 0.50627 0.0
C29 C 0.57552 0.02165 0.55643 0.0
O30 O 0.70697 0.08503 0.48895 0.0
O31 O 0.67774 0.13467 0.5082 0.0
O32 O 0.65148 0.99548 0.51875 0.0
O33 O 0.5912 0.97418 0.48979 0.0
O34 O 0.61476 0.05512 0.54471 0.0
O35 O 0.5367 0.98787 0.54163 0.0
C36 C 0.43701 0.89866 0.4993 0.0
O37 O 0.48047 0.90217 0.50885 0.0
O38 O 0.44144 0.94108 0.48812 0.0
C39 C 0.53567 0.07687 0.49162 0.0
Tb40 Tb 0.54877 0.5131 0.82866 0.0
C41 C 0.60506 0.53818 0.88638 0.0
Tb42 Tb 0.65904 0.55162 0.83028 0.0
O43 O 0.54571 0.44729 0.85166 0.0
O44 O 0.60114 0.47824 0.82329 0.0
O45 O 0.56579 0.53994 0.87221 0.0
C46 C 0.75342 0.56389 0.8257 0.0
O47 O 0.64337 0.53442 0.87363 0.0
C48 C 0.62426 0.62308 0.83903 0.0
C49 C 0.60263 0.52981 0.77154 0.0
O50 O 0.7358 0.59838 0.82053 0.0
O51 O 0.7183 0.52294 0.83386 0.0
O52 O 0.66542 0.62365 0.85057 0.0
O53 O 0.60616 0.58503 0.82201 0.0
O54 O 0.64617 0.54216 0.78531 0.0
O55 O 0.56042 0.51939 0.78429 0.0
C56 C 0.45201 0.48367 0.81597 0.0
O57 O 0.47813 0.4564 0.81209 0.0
O58 O 0.48009 0.528 0.82764 0.0
C59 C 0.58497 0.44464 0.84109 0.0
H60 H 0.66767 0.08672 0.24104 0.0
H61 H 0.52414 0.96709 0.22085 0.0
H62 H 0.61312 0.05025 0.15559 0.0
H63 H 0.49656 1.0035 0.13749 0.0
C64 C 0.49019 0.98796 0.15857 0.0
O65 O 0.53001 0.97591 0.167 0.0
H66 H 0.48643 0.01797 0.1727 0.0
C67 C 0.63862 0.06472 0.22565 0.0
C68 C 0.64583 0.07415 0.19732 0.0
C69 C 0.59449 0.02725 0.23454 0.0
C70 C 0.55838 0.99644 0.21451 0.0
C71 C 0.56548 1.0048 0.18613 0.0
C72 C 0.6089 0.04358 0.17756 0.0
H73 H 0.59566 0.62067 0.56936 0.0
H74 H 0.58882 0.46858 0.55231 0.0
H75 H 0.59506 0.56652 0.48476 0.0
H76 H 0.53678 0.44585 0.46741 0.0
C77 C 0.54652 0.43599 0.48836 0.0
O78 O 0.59041 0.47489 0.49841 0.0
H79 H 0.51516 0.43231 0.50195 0.0
C80 C 0.59413 0.59053 0.5545 0.0
C81 C 0.59609 0.59969 0.52601 0.0
C82 C 0.59132 0.54348 0.56416 0.0
C83 C 0.59069 0.50501 0.54505 0.0
C84 C 0.59117 0.51281 0.51644 0.0
C85 C 0.59361 0.56017 0.50684 0.0
H86 H 0.04413 0.5483 0.89698 0.0
H87 H 0.12305 0.44771 0.89552 0.0
H88 H 0.08994 0.50479 0.81942 0.0
H89 H 0.0779 0.40969 0.81081 0.0
C90 C 0.1066 0.40446 0.82484 0.0
O91 O 0.13097 0.44768 0.8418 0.0
H92 H 0.08809 0.37092 0.83766 0.0
C93 C 0.06344 0.52876 0.88546 0.0
C94 C 0.06358 0.52975 0.85628 0.0
C95 C 0.08517 0.49965 0.89986 0.0
C96 C 0.1062 0.47056 0.88483 0.0
C97 C 0.10776 0.47277 0.85595 0.0
C98 C 0.08803 0.50343 0.84183 0.0
H99 H 1.0048 0.41925 0.42064 0.0
H100 H 0.1308 0.56039 0.44129 0.0
H101 H 0.05622 0.46283 0.50594 0.0
H102 H 0.1114 0.5759 0.53006 0.0
C103 C 0.12101 0.58642 0.50834 0.0
O104 O 0.12976 0.5474 0.4948 0.0
H105 H 0.08876 0.59255 0.4983 0.0
C106 C 0.03064 0.4462 0.43591 0.0
C107 C 1.02567 0.43579 0.46421 0.0
C108 C 0.06815 0.49118 0.4272 0.0
C109 C 0.10167 0.52531 0.44734 0.0
C110 C 0.09719 0.51481 0.47559 0.0
C111 C 0.05925 0.47037 0.484 0.0
H112 H 0.58231 0.92825 0.75931 0.0
H113 H 0.61161 0.08738 0.77563 0.0
H114 H 0.61464 0.99353 0.8432 0.0
H115 H 0.58722 0.08147 0.86402 0.0
C116 C 0.58971 0.09648 0.84281 0.0
O117 O 0.62595 0.08576 0.82931 0.0
H118 H 0.5524 0.07721 0.83181 0.0
C119 C 0.59002 0.96043 0.77397 0.0
C120 C 0.59689 0.95437 0.80249 0.0
C121 C 0.59543 0.0082 0.76397 0.0
C122 C 0.60771 0.05034 0.78289 0.0
C123 C 0.61453 0.04488 0.81133 0.0
C124 C 0.60943 0.99716 0.8211 0.0
H125 H 0.68675 0.5119 0.09445 0.0
H126 H 0.54167 0.51753 0.10122 0.0
H127 H 0.62553 0.50894 0.17488 0.0
H128 H 0.50504 0.44935 0.1756 0.0
C129 C 0.4972 0.47013 0.15803 0.0
O130 O 0.53987 0.5139 0.15478 0.0
H131 H 0.48885 0.44418 0.13909 0.0
C132 C 0.65635 0.51139 0.10703 0.0
C133 C 0.6616 0.50929 0.13601 0.0
C134 C 0.61357 0.5145 0.09414 0.0
C135 C 0.57524 0.51582 0.11075 0.0
C136 C 0.57871 0.51326 0.13972 0.0
C137 C 0.62238 0.51049 0.15249 0.0
H138 H 0.22931 0.54951 0.14952 0.0
H139 H 0.42447 0.42386 0.19424 0.0
H140 H 0.18939 0.40072 0.18328 0.0
H141 H 0.46041 0.53662 0.13187 0.0
H142 H 0.34262 0.42815 0.19761 0.0
H143 H 0.31743 0.55766 0.14927 0.0
C144 C 0.23906 0.51891 0.15717 0.0
C145 C 0.20171 0.47431 0.16646 0.0
C146 C 0.36849 0.45264 0.18343 0.0
C147 C 0.30234 0.48357 0.16651 0.0
C148 C 0.41564 0.45056 0.18168 0.0
C149 C 0.45023 0.48074 0.16319 0.0
C150 C 0.35477 0.48504 0.16648 0.0
C151 C 0.43555 0.51348 0.14687 0.0
C152 C 0.28928 0.52344 0.15687 0.0
C153 C 0.21663 0.43576 0.17589 0.0
N154 N 0.38907 0.51482 0.14889 0.0
N155 N 0.2653 0.44137 0.17579 0.0
H156 H 0.79878 0.1309 0.47215 0.0
H157 H 0.9605 0.42906 0.50496 0.0
H158 H 0.74453 0.2301 0.51804 0.0
H159 H 0.99655 0.33771 0.44288 0.0
H160 H 0.88748 0.35346 0.51595 0.0
H161 H 0.87762 0.20367 0.46686 0.0
C162 C 0.80365 0.16803 0.48121 0.0
C163 C 0.76523 0.17481 0.49539 0.0
C164 C 0.91156 0.34993 0.50005 0.0
C165 C 0.85504 0.25794 0.48954 0.0
C166 C 0.95335 0.39289 0.49392 0.0
C167 C 0.98427 0.38954 0.47287 0.0
C168 C 0.90097 0.30331 0.48515 0.0
C169 C 0.9732 0.34197 0.45902 0.0
C170 C 0.84855 0.2095 0.47817 0.0
C171 C 0.77331 0.22351 0.50683 0.0
N172 N 0.93236 0.30071 0.46535 0.0
N173 N 0.81739 0.26336 0.50362 0.0
H174 H 0.66839 0.7117 0.87035 0.0
H175 H 0.52816 0.85916 0.7855 0.0
H176 H 0.55255 0.63855 0.80655 0.0
H177 H 0.65658 0.93405 0.84177 0.0
H178 H 0.52806 0.7763 0.79798 0.0
H179 H 0.65541 0.79114 0.86546 0.0
C180 C 0.63983 0.71228 0.85549 0.0
C181 C 0.61193 0.66879 0.83856 0.0
C182 C 0.556 0.81084 0.80777 0.0
C183 C 0.59701 0.75963 0.83273 0.0
C184 C 0.55624 0.8582 0.80057 0.0
C185 C 0.59288 0.90377 0.81231 0.0
C186 C 0.59264 0.80885 0.82689 0.0
C187 C 0.62754 0.90004 0.83223 0.0
C188 C 0.6325 0.75766 0.85267 0.0
C189 C 0.57511 0.67143 0.81984 0.0
N190 N 0.62682 0.85346 0.8387 0.0
N191 N 0.56902 0.7163 0.81722 0.0
H192 H 0.97699 0.61446 0.1789 0.0
H193 H 0.69869 0.43582 0.12521 0.0
H194 H 0.93696 0.45741 0.15096 0.0
H195 H 0.73509 0.57911 0.17116 0.0
H196 H 0.78384 0.44094 0.13543 0.0
H197 H 0.88869 0.60113 0.17682 0.0
C198 C 0.94954 0.5769 0.17248 0.0
C199 C 0.96479 0.53704 0.16509 0.0
C200 C 0.77312 0.47086 0.14375 0.0
C201 C 0.86241 0.52151 0.16226 0.0
C202 C 0.72428 0.46779 0.13808 0.0
C203 C 0.70924 0.50676 0.14764 0.0
C204 C 0.80811 0.51385 0.15867 0.0
C205 C 0.74453 0.54775 0.16375 0.0
C206 C 0.89889 0.5693 0.17134 0.0
C207 C 0.92716 0.48925 0.15694 0.0
N208 N 0.79224 0.55052 0.16842 0.0
N209 N 0.87793 0.483 0.15546 0.0
H210 H 0.34549 0.88479 0.47645 0.0
H211 H 0.20751 0.61044 0.53986 0.0
H212 H 0.4221 0.81077 0.52583 0.0
H213 H 0.13984 0.66962 0.47616 0.0
H214 H 0.28475 0.68705 0.53826 0.0
H215 H 0.26768 0.80951 0.47923 0.0
C216 C 0.34581 0.85262 0.4879 0.0
C217 C 0.39005 0.85373 0.50091 0.0
C218 C 0.25296 0.68344 0.52472 0.0
C219 C 0.30149 0.76783 0.50429 0.0
C220 C 0.20898 0.63996 0.52574 0.0
C221 C 0.16735 0.63442 0.50844 0.0
C222 C 0.25519 0.72153 0.50621 0.0
C223 C 0.17105 0.67303 0.49011 0.0
C224 C 0.3015 0.8097 0.48944 0.0
C225 C 0.38866 0.81123 0.51548 0.0
N226 N 0.21421 0.71513 0.48954 0.0
N227 N 0.34499 0.76996 0.51684 0.0
H228 H 0.5637 0.38085 0.8836 0.0
H229 H 0.62496 0.16629 0.802 0.0
H230 H 0.63619 0.40705 0.80561 0.0
H231 H 0.57893 0.15454 0.88654 0.0
H232 H 0.63441 0.25596 0.80351 0.0
H233 H 0.57469 0.30015 0.88615 0.0
C234 C 0.58248 0.36972 0.86714 0.0
C235 C 0.59859 0.40017 0.84423 0.0
C236 C 0.62309 0.23405 0.82189 0.0
C237 C 0.61067 0.30738 0.84671 0.0
C238 C 0.61777 0.1829 0.82104 0.0
C239 C 0.60187 0.15321 0.84434 0.0
C240 C 0.61142 0.25531 0.84603 0.0
C241 C 0.59192 0.17629 0.86827 0.0
C242 C 0.58878 0.32364 0.86859 0.0
C243 C 0.62309 0.38438 0.82357 0.0
N244 N 0.59657 0.2258 0.86844 0.0
N245 N 0.62773 0.33855 0.82507 0.0
H246 H 0.54822 0.87166 0.47687 0.0
H247 H 0.67105 0.68882 0.54318 0.0
H248 H 0.67376 0.92098 0.53637 0.0
H249 H 0.53646 0.62913 0.49052 0.0
H250 H 0.6764 0.77539 0.53618 0.0
H251 H 0.54531 0.78374 0.47797 0.0
C252 C 0.57506 0.86397 0.49016 0.0
C253 C 0.61124 0.90362 0.50661 0.0
C254 C 0.64579 0.74363 0.52589 0.0
C255 C 0.60857 0.80372 0.50771 0.0
C256 C 0.64294 0.69417 0.52977 0.0
C257 C 0.60322 0.65185 0.51747 0.0
C258 C 0.60837 0.75127 0.5097 0.0
C259 C 0.56782 0.66087 0.50024 0.0
C260 C 0.57349 0.81391 0.49071 0.0
C261 C 0.64522 0.89168 0.52336 0.0
N262 N 0.57091 0.70967 0.49707 0.0
N263 N 0.64306 0.84303 0.52344 0.0
H264 H 0.83828 0.65112 0.83022 0.0
H265 H 1.00451 0.48844 0.80949 0.0
H266 H 0.78406 0.48837 0.81218 0.0
H267 H 0.04816 0.61803 0.86829 0.0
H268 H 0.93541 0.50898 0.7923 0.0
H269 H 0.92465 0.656 0.82804 0.0
C270 C 0.84472 0.61673 0.82533 0.0
C271 C 0.80469 0.56912 0.82187 0.0
C272 C 0.96095 0.53369 0.80847 0.0
C273 C 0.90171 0.57469 0.81841 0.0
C274 C 1.00075 0.52232 0.8182 0.0
C275 C 0.03144 0.5508 0.84093 0.0
C276 C 0.95155 0.57344 0.82167 0.0
C277 C 1.02432 0.59412 0.85134 0.0
C278 C 0.89363 0.61958 0.82402 0.0
C279 C 0.81427 0.52558 0.81545 0.0
N280 N 0.98424 0.60356 0.84203 0.0
N281 N 0.86193 0.52938 0.81399 0.0
H282 H 0.26174 0.70551 0.20643 0.0
H283 H 0.43694 0.92601 0.11389 0.0
H284 H 0.22534 0.71655 0.11993 0.0
H285 H 0.43854 0.94188 0.20325 0.0
H286 H 0.36382 0.84517 0.11498 0.0
H287 H 0.33228 0.7882 0.20516 0.0
C288 C 0.26872 0.72541 0.18718 0.0
C289 C 0.2379 0.7045 0.16326 0.0
C290 C 0.37998 0.86656 0.13433 0.0
C291 C 0.31826 0.79847 0.16157 0.0
C292 C 0.4215 0.91258 0.13369 0.0
C293 C 0.44327 0.94054 0.15852 0.0
C294 C 0.3609 0.84808 0.16002 0.0
C295 C 0.42258 0.92132 0.1837 0.0
C296 C 0.30875 0.77257 0.18649 0.0
C297 C 0.24832 0.73162 0.13883 0.0
N298 N 0.38265 0.87606 0.18385 0.0
N299 N 0.28787 0.77719 0.13856 0.0
H300 H 0.59771 0.15938 0.52456 0.0
H301 H 0.50556 0.35808 0.44885 0.0
H302 H 0.48853 0.11791 0.45584 0.0
H303 H 0.59604 0.39635 0.52536 0.0
H304 H 0.50632 0.27217 0.44851 0.0
H305 H 0.60494 0.24843 0.52272 0.0
C306 C 0.57556 0.16911 0.50897 0.0
C307 C 0.54239 0.13124 0.49035 0.0
C308 C 0.52646 0.29943 0.46526 0.0
C309 C 0.55033 0.23285 0.48814 0.0
C310 C 0.52627 0.3486 0.46536 0.0
C311 C 0.55163 0.38483 0.48683 0.0
C312 C 0.55183 0.28591 0.48698 0.0
C313 C 0.57677 0.36998 0.50812 0.0
C314 C 0.57954 0.21987 0.50799 0.0
C315 C 0.51437 0.14586 0.47067 0.0
N316 N 0.57631 0.32174 0.50763 0.0
N317 N 0.51895 0.19537 0.47009 0.0
H318 H 0.38782 0.38575 0.80498 0.0
H319 H 0.15445 0.46241 0.78278 0.0
H320 H 0.39603 0.54091 0.80853 0.0
H321 H 0.15004 0.33473 0.83048 0.0
H322 H 0.2397 0.4764 0.77047 0.0
H323 H 0.29766 0.35497 0.79439 0.0
C324 C 0.37063 0.41332 0.80317 0.0
C325 C 0.39876 0.4658 0.80813 0.0
C326 C 0.21916 0.44407 0.78266 0.0
C327 C 0.29692 0.43107 0.79516 0.0
C328 C 0.17053 0.43567 0.78937 0.0
C329 C 0.14581 0.39774 0.80785 0.0
C330 C 0.24239 0.41373 0.7942 0.0
C331 C 0.16817 0.36449 0.81628 0.0
C332 C 0.31952 0.39574 0.79697 0.0
C333 C 0.37518 0.50009 0.80533 0.0
N334 N 0.21583 0.37381 0.80976 0.0
N335 N 0.32528 0.48205 0.79912 0.0
H336 H 0.93213 0.3161 0.2133 0.0
H337 H 0.70213 0.07831 0.15157 0.0
H338 H 0.90308 0.30125 0.12432 0.0
H339 H 0.69358 0.16794 0.22389 0.0
H340 H 0.78164 0.14748 0.14136 0.0
H341 H 0.85154 0.24626 0.21868 0.0
C342 C 0.90894 0.2977 0.19487 0.0
C343 C 0.92389 0.31439 0.16835 0.0
C344 C 0.7619 0.15165 0.15934 0.0
C345 C 0.83217 0.23457 0.17438 0.0
C346 C 0.71657 0.11248 0.16515 0.0
C347 C 0.69156 0.11674 0.189 0.0
C348 C 0.78242 0.19455 0.1778 0.0
C349 C 0.71223 0.16194 0.20586 0.0
C350 C 0.86297 0.25818 0.19798 0.0
C351 C 0.89249 0.28938 0.14513 0.0
N352 N 0.75675 0.19864 0.20018 0.0
N353 N 0.84784 0.25028 0.14864 0.0
H354 H 0.03748 0.4176 0.07124 0.0
H355 H 0.11182 0.58196 0.93641 0.0
H356 H 0.1335 0.57822 0.07436 0.0
H357 H 0.05936 0.41726 0.93286 0.0
H358 H 0.11229 0.58156 0.98719 0.0
H359 H 0.03788 0.41683 0.02042 0.0
C360 C 0.05866 0.45267 0.06127 0.0
C361 C 0.08551 0.49806 0.07707 0.0
C362 C 0.1008 0.54551 0.97531 0.0
C363 C 0.08577 0.49742 0.01909 0.0
C364 C 0.10024 0.54572 0.94639 0.0
C365 C 0.08553 0.49958 0.93054 0.0
C366 C 0.08598 0.49877 0.98845 0.0
C367 C 0.07133 0.45366 0.94441 0.0
C368 C 0.05898 0.45212 0.0323 0.0
C369 C 0.11243 0.5423 0.06305 0.0
N370 N 0.07164 0.45437 0.97264 0.0
N371 N 0.11163 0.54093 0.03484 0.0
H372 H 0.62509 0.09571 0.41055 0.0
H373 H 0.55335 0.93984 0.26409 0.0
H374 H 0.52639 0.93607 0.40319 0.0
H375 H 0.61587 0.10472 0.27386 0.0
H376 H 0.54537 0.93532 0.3147 0.0
H377 H 0.62616 0.09746 0.3601 0.0
C378 C 0.60365 0.06093 0.39832 0.0
C379 C 0.57566 0.01565 0.41113 0.0
C380 C 0.56065 0.97239 0.30564 0.0
C381 C 0.57671 0.01739 0.35315 0.0
C382 C 0.56505 0.975 0.27681 0.0
C383 C 0.58611 0.02272 0.26477 0.0
C384 C 0.5776 0.01782 0.32241 0.0
C385 C 0.60071 0.06707 0.28225 0.0
C386 C 0.60409 0.06202 0.36946 0.0
C387 C 0.5484 0.97184 0.39415 0.0
N388 N 0.59652 0.0635 0.31011 0.0
N389 N 0.54979 0.9737 0.36596 0.0
H390 H 0.67515 0.52951 0.73652 0.0
H391 H 0.52831 0.55945 0.60023 0.0
H392 H 0.52562 0.52673 0.73652 0.0
H393 H 0.65095 0.51026 0.59653 0.0
H394 H 0.52991 0.55289 0.65073 0.0
H395 H 0.67065 0.52807 0.68556 0.0
C396 C 0.64142 0.5286 0.72584 0.0
C397 C 0.60075 0.52839 0.74081 0.0
C398 C 0.55624 0.54312 0.63889 0.0
C399 C 0.59551 0.52691 0.6827 0.0
C400 C 0.5554 0.547 0.61014 0.0
C401 C 0.58961 0.53545 0.59435 0.0
C402 C 0.59207 0.52835 0.65202 0.0
C403 C 0.62381 0.51921 0.60806 0.0
C404 C 0.63881 0.5275 0.69679 0.0
C405 C 0.55788 0.52689 0.72588 0.0
N406 N 0.62455 0.51663 0.63623 0.0
N407 N 0.55653 0.52657 0.69768 0.0
H408 H 0.50578 0.95538 0.58887 0.0
H409 H 0.65405 0.08555 0.73239 0.0
H410 H 0.64411 0.08885 0.59412 0.0
H411 H 0.52384 0.94401 0.7266 0.0
H412 H 0.64657 0.09183 0.68205 0.0
H413 H 0.50773 0.95478 0.63958 0.0
C414 C 0.53645 0.98474 0.60064 0.0
C415 C 0.57497 0.0221 0.58715 0.0
C416 C 0.61951 0.05949 0.6918 0.0
C417 C 0.57742 0.02154 0.64528 0.0
C418 C 0.62357 0.05607 0.72056 0.0
C419 C 0.58966 0.01406 0.73369 0.0
C420 C 0.58117 0.02068 0.67603 0.0
C421 C 0.55123 0.97667 0.71727 0.0
C422 C 0.53756 0.9843 0.62963 0.0
C423 C 0.61372 0.05914 0.60357 0.0
N424 N 0.54812 0.98079 0.6893 0.0
N425 N 0.61401 0.05783 0.63175 0.0
H426 H 0.54607 0.56449 0.92216 0.0
H427 H 0.644 0.46228 0.05482 0.0
H428 H 0.66344 0.50706 0.92047 0.0
H429 H 0.57293 0.57006 0.06279 0.0
H430 H 0.64127 0.46891 0.00455 0.0
H431 H 0.54586 0.55814 0.97297 0.0
C432 C 0.57179 0.55066 0.93244 0.0
C433 C 0.60494 0.53646 0.91706 0.0
C434 C 0.62631 0.49116 0.01731 0.0
C435 C 0.60436 0.52847 0.97486 0.0
C436 C 0.62806 0.48762 0.04608 0.0
C437 C 0.60932 0.51622 0.06327 0.0
C438 C 0.60508 0.52301 0.00538 0.0
C439 C 0.5876 0.54706 0.05045 0.0
C440 C 0.57169 0.54715 0.96138 0.0
C441 C 0.63748 0.51881 0.93144 0.0
N442 N 0.5861 0.54968 0.02227 0.0
N443 N 0.63614 0.51504 0.95945 0.0
H444 H 1.00111 0.46337 0.2512 0.0
H445 H 0.15254 0.53287 0.39723 0.0
H446 H 0.15564 0.5681 0.25925 0.0
H447 H 0.99157 0.47429 0.38852 0.0
H448 H 0.1562 0.54397 0.34696 0.0
H449 H 0.99841 0.46327 0.30171 0.0
C450 C 0.0345 0.48648 0.2636 0.0
C451 C 0.07873 0.51569 0.25098 0.0
C452 C 0.12016 0.52901 0.35617 0.0
C453 C 0.07593 0.51549 0.30894 0.0
C454 C 0.11801 0.52285 0.38486 0.0
C455 C 0.07164 0.50192 0.39713 0.0
C456 C 0.07564 0.51374 0.33965 0.0
C457 C 1.02814 0.48925 0.37995 0.0
C458 C 0.03285 0.48658 0.29246 0.0
C459 C 0.12073 0.54514 0.26814 0.0
N460 N 0.03121 0.49491 0.35212 0.0
N461 N 0.11846 0.54393 0.29631 0.0
loop_
_geom_bond_atom_site_label_1
_geom_bond_atom_site_label_2
_geom_bond_distance
_geom_bond_site_symmetry_2
_ccdc_geom_bond_type
Tb0 O3 2.453 1_455 S
Tb0 O4 2.596 1_455 S
Tb0 O5 2.374 . S
Tb0 O13 2.343 . S
Tb0 O15 2.353 . S
Tb0 O17 2.427 . S
Tb0 O18 2.513 . S
C1 O5 1.251 1_655 S
C1 O7 1.263 . S
Tb2 O4 2.343 . S
Tb2 O7 2.353 . S
Tb2 O10 2.427 . S
Tb2 O11 2.513 . S
Tb2 O12 2.453 1_655 S
Tb2 O13 2.596 1_655 S
Tb2 O14 2.374 . S
O3 Tb0 2.453 1_655 S
O3 C19 1.245 . S
O4 Tb0 2.596 1_655 S
O4 Tb2 2.343 . S
O4 C19 1.259 . S
O5 Tb0 2.374 . S
O5 C1 1.251 1_455 S
C6 O10 1.275 . S
C6 O11 1.246 . S
O7 C1 1.263 . S
O7 Tb2 2.353 . S
C8 O12 1.245 . S
C8 O13 1.259 . S
C9 O14 1.250 1_455 S
C9 O15 1.263 . S
O10 Tb2 2.427 . S
O10 C6 1.275 . S
O11 Tb2 2.513 . S
O11 C6 1.246 . S
O12 Tb2 2.453 1_455 S
O12 C8 1.245 . S
O13 Tb0 2.343 . S
O13 Tb2 2.596 1_455 S
O13 C8 1.259 . S
O14 Tb2 2.374 . S
O14 C9 1.250 1_655 S
O15 Tb0 2.353 . S
O15 C9 1.263 . S
C16 O17 1.275 . S
C16 O18 1.246 . S
O17 Tb0 2.427 . S
O17 C16 1.275 . S
O18 Tb0 2.513 . S
O18 C16 1.246 . S
C19 O3 1.245 . S
C19 O4 1.259 . S
Tb20 O23 2.453 1_565 S
Tb20 O24 2.596 1_565 S
Tb20 O25 2.374 1_565 S
Tb20 O33 2.343 . S
Tb20 O35 2.353 1_565 S
Tb20 O37 2.427 . S
Tb20 O38 2.513 . S
C21 O25 1.251 . S
C21 O27 1.263 . S
Tb22 O24 2.343 . S
Tb22 O27 2.353 . S
Tb22 O30 2.427 . S
Tb22 O31 2.513 . S
Tb22 O32 2.453 1_545 S
Tb22 O33 2.596 1_545 S
Tb22 O34 2.374 . S
O23 Tb20 2.453 1_545 S
O23 C39 1.245 . S
O24 Tb20 2.596 1_545 S
O24 Tb22 2.343 . S
O24 C39 1.259 . S
O25 Tb20 2.374 1_545 S
O25 C21 1.251 . S
C26 O30 1.275 . S
C26 O31 1.246 . S
O27 C21 1.263 . S
O27 Tb22 2.353 . S
C28 O32 1.245 . S
C28 O33 1.259 . S
C29 O34 1.250 . S
C29 O35 1.263 . S
O30 Tb22 2.427 . S
O30 C26 1.275 . S
O31 Tb22 2.513 . S
O31 C26 1.246 . S
O32 Tb22 2.453 1_565 S
O32 C28 1.245 . S
O33 Tb20 2.343 . S
O33 Tb22 2.596 1_565 S
O33 C28 1.259 . S
O34 Tb22 2.374 . S
O34 C29 1.250 . S
O35 Tb20 2.353 1_545 S
O35 C29 1.263 . S
C36 O37 1.275 . S
C36 O38 1.246 . S
O37 Tb20 2.427 . S
O37 C36 1.275 . S
O38 Tb20 2.513 . S
O38 C36 1.246 . S
C39 O23 1.245 . S
C39 O24 1.259 . S
Tb40 O43 2.453 . S
Tb40 O44 2.596 . S
Tb40 O45 2.374 . S
Tb40 O53 2.343 . S
Tb40 O55 2.353 . S
Tb40 O57 2.427 . S
Tb40 O58 2.513 . S
C41 O45 1.251 . S
C41 O47 1.263 . S
Tb42 O44 2.343 . S
Tb42 O47 2.353 . S
Tb42 O50 2.427 . S
Tb42 O51 2.513 . S
Tb42 O52 2.453 . S
Tb42 O53 2.596 . S
Tb42 O54 2.374 . S
O43 Tb40 2.453 . S
O43 C59 1.245 . S
O44 Tb40 2.596 . S
O44 Tb42 2.343 . S
O44 C59 1.259 . S
O45 Tb40 2.374 . S
O45 C41 1.251 . S
C46 O50 1.275 . S
C46 O51 1.246 . S
O47 C41 1.263 . S
O47 Tb42 2.353 . S
C48 O52 1.245 . S
C48 O53 1.259 . S
C49 O54 1.250 . S
C49 O55 1.263 . S
O50 Tb42 2.427 . S
O50 C46 1.275 . S
O51 Tb42 2.513 . S
O51 C46 1.246 . S
O52 Tb42 2.453 . S
O52 C48 1.245 . S
O53 Tb40 2.343 . S
O53 Tb42 2.596 . S
O53 C48 1.259 . S
O54 Tb42 2.374 . S
O54 C49 1.250 . S
O55 Tb40 2.353 . S
O55 C49 1.263 . S
C56 O57 1.275 . S
C56 O58 1.246 . S
O57 Tb40 2.427 . S
O57 C56 1.275 . S
O58 Tb40 2.513 . S
O58 C56 1.246 . S
C59 O43 1.245 . S
C59 O44 1.259 . S
H60 C67 0.929 . S
H61 C70 0.930 . S
H62 C72 0.929 . S
H63 C64 0.969 . S
C64 H63 0.969 . S
C64 O65 1.550 . S
C64 H66 0.973 . S
O65 C64 1.550 . S
O65 C71 1.412 . S
H66 C64 0.973 . S
C67 H60 0.929 . S
C67 C68 1.400 . S
C67 C69 1.364 . S
C68 C67 1.400 . S
C68 C72 1.377 . S
C69 C67 1.364 . S
C69 C70 1.374 1_545 S
C70 H61 0.930 . S
C70 C69 1.374 1_565 S
C70 C71 1.383 . S
C71 O65 1.412 . S
C71 C70 1.383 . S
C71 C72 1.394 1_565 S
C72 H62 0.929 . S
C72 C68 1.377 . S
C72 C71 1.394 1_545 S
H73 C80 0.929 . S
H74 C83 0.930 . S
H75 C85 0.929 . S
H76 C77 0.969 . S
C77 H76 0.969 . S
C77 O78 1.550 . S
C77 H79 0.973 . S
O78 C77 1.550 . S
O78 C84 1.412 . S
H79 C77 0.973 . S
C80 H73 0.929 . S
C80 C81 1.400 . S
C80 C82 1.364 . S
C81 C80 1.400 . S
C81 C85 1.377 . S
C82 C80 1.364 . S
C82 C83 1.374 . S
C83 H74 0.930 . S
C83 C82 1.374 . S
C83 C84 1.383 . S
C84 O78 1.412 . S
C84 C83 1.383 . S
C84 C85 1.394 . S
C85 H75 0.929 . S
C85 C81 1.377 . S
C85 C84 1.394 . S
H86 C93 0.929 . S
H87 C96 0.930 . S
H88 C98 0.929 . S
H89 C90 0.969 . S
C90 H89 0.969 . S
C90 O91 1.550 . S
C90 H92 0.973 . S
O91 C90 1.550 . S
O91 C97 1.412 . S
H92 C90 0.973 . S
C93 H86 0.929 . S
C93 C94 1.400 . S
C93 C95 1.364 . S
C94 C93 1.400 . S
C94 C98 1.377 . S
C95 C93 1.364 . S
C95 C96 1.374 . S
C96 H87 0.930 . S
C96 C95 1.374 . S
C96 C97 1.383 . S
C97 O91 1.412 . S
C97 C96 1.383 . S
C97 C98 1.394 . S
C98 H88 0.929 . S
C98 C94 1.377 . S
C98 C97 1.394 . S
H99 C106 0.929 . S
H100 C109 0.930 . S
H101 C111 0.929 . S
H102 C103 0.969 . S
C103 H102 0.969 . S
C103 O104 1.550 . S
C103 H105 0.973 . S
O104 C103 1.550 . S
O104 C110 1.412 . S
H105 C103 0.973 . S
C106 H99 0.929 . S
C106 C107 1.400 . S
C106 C108 1.364 1_655 S
C107 C106 1.400 . S
C107 C111 1.377 1_655 S
C108 C106 1.364 1_455 S
C108 C109 1.374 . S
C109 H100 0.930 . S
C109 C108 1.374 . S
C109 C110 1.383 . S
C110 O104 1.412 . S
C110 C109 1.383 . S
C110 C111 1.394 . S
C111 H101 0.929 . S
C111 C107 1.377 1_455 S
C111 C110 1.394 . S
H112 C119 0.929 . S
H113 C122 0.930 . S
H114 C124 0.929 . S
H115 C116 0.969 . S
C116 H115 0.969 . S
C116 O117 1.550 . S
C116 H118 0.973 . S
O117 C116 1.550 . S
O117 C123 1.412 . S
H118 C116 0.973 . S
C119 H112 0.929 . S
C119 C120 1.400 . S
C119 C121 1.364 1_565 S
C120 C119 1.400 . S
C120 C124 1.377 . S
C121 C119 1.364 1_545 S
C121 C122 1.374 . S
C122 H113 0.930 . S
C122 C121 1.374 . S
C122 C123 1.383 . S
C123 O117 1.412 . S
C123 C122 1.383 . S
C123 C124 1.394 1_545 S
C124 H114 0.929 . S
C124 C120 1.377 . S
C124 C123 1.394 1_565 S
H125 C132 0.929 . S
H126 C135 0.930 . S
H127 C137 0.929 . S
H128 C129 0.969 . S
C129 H128 0.969 . S
C129 O130 1.550 . S
C129 H131 0.973 . S
O130 C129 1.550 . S
O130 C136 1.412 . S
H131 C129 0.973 . S
C132 H125 0.929 . S
C132 C133 1.400 . S
C132 C134 1.364 . S
C133 C132 1.400 . S
C133 C137 1.377 . S
C134 C132 1.364 . S
C134 C135 1.374 . S
C135 H126 0.930 . S
C135 C134 1.374 . S
C135 C136 1.383 . S
C136 O130 1.412 . S
C136 C135 1.383 . S
C136 C137 1.394 . S
C137 H127 0.929 . S
C137 C133 1.377 . S
C137 C136 1.394 . S
H138 C144 0.930 . S
H139 C148 0.930 . S
H140 C153 0.929 . S
H141 C151 0.929 . S
H142 C146 0.929 . S
H143 C152 0.929 . S
C144 H138 0.930 . S
C144 C145 1.367 . S
C144 C152 1.378 . S
C145 C144 1.367 . S
C145 C153 1.433 . S
C146 H142 0.929 . S
C146 C148 1.378 . S
C146 C150 1.350 . S
C147 C150 1.463 . S
C147 C152 1.350 . S
C147 N155 1.427 . S
C148 H139 0.930 . S
C148 C146 1.378 . S
C148 C149 1.367 . S
C149 C148 1.367 . S
C149 C151 1.433 . S
C150 C146 1.350 . S
C150 C147 1.463 . S
C150 N154 1.427 . S
C151 H141 0.929 . S
C151 C149 1.433 . S
C151 N154 1.384 . S
C152 H143 0.929 . S
C152 C144 1.378 . S
C152 C147 1.350 . S
C153 H140 0.929 . S
C153 C145 1.433 . S
C153 N155 1.384 . S
N154 C150 1.427 . S
N154 C151 1.384 . S
N155 C147 1.427 . S
N155 C153 1.384 . S
H156 C162 0.930 . S
H157 C166 0.930 . S
H158 C171 0.929 . S
H159 C169 0.929 . S
H160 C164 0.929 . S
H161 C170 0.929 . S
C162 H156 0.930 . S
C162 C163 1.367 . S
C162 C170 1.378 . S
C163 C162 1.367 . S
C163 C171 1.433 . S
C164 H160 0.929 . S
C164 C166 1.378 . S
C164 C168 1.350 . S
C165 C168 1.463 . S
C165 C170 1.350 . S
C165 N173 1.427 . S
C166 H157 0.930 . S
C166 C164 1.378 . S
C166 C167 1.367 . S
C167 C166 1.367 . S
C167 C169 1.433 . S
C168 C164 1.350 . S
C168 C165 1.463 . S
C168 N172 1.427 . S
C169 H159 0.929 . S
C169 C167 1.433 . S
C169 N172 1.384 . S
C170 H161 0.929 . S
C170 C162 1.378 . S
C170 C165 1.350 . S
C171 H158 0.929 . S
C171 C163 1.433 . S
C171 N173 1.384 . S
N172 C168 1.427 . S
N172 C169 1.384 . S
N173 C165 1.427 . S
N173 C171 1.384 . S
H174 C180 0.930 . S
H175 C184 0.930 . S
H176 C189 0.929 . S
H177 C187 0.929 . S
H178 C182 0.929 . S
H179 C188 0.929 . S
C180 H174 0.930 . S
C180 C181 1.367 . S
C180 C188 1.378 . S
C181 C180 1.367 . S
C181 C189 1.433 . S
C182 H178 0.929 . S
C182 C184 1.378 . S
C182 C186 1.350 . S
C183 C186 1.463 . S
C183 C188 1.350 . S
C183 N191 1.427 . S
C184 H175 0.930 . S
C184 C182 1.378 . S
C184 C185 1.367 . S
C185 C184 1.367 . S
C185 C187 1.433 . S
C186 C182 1.350 . S
C186 C183 1.463 . S
C186 N190 1.427 . S
C187 H177 0.929 . S
C187 C185 1.433 . S
C187 N190 1.384 . S
C188 H179 0.929 . S
C188 C180 1.378 . S
C188 C183 1.350 . S
C189 H176 0.929 . S
C189 C181 1.433 . S
C189 N191 1.384 . S
N190 C186 1.427 . S
N190 C187 1.384 . S
N191 C183 1.427 . S
N191 C189 1.384 . S
H192 C198 0.930 . S
H193 C202 0.930 . S
H194 C207 0.929 . S
H195 C205 0.929 . S
H196 C200 0.929 . S
H197 C206 0.929 . S
C198 H192 0.930 . S
C198 C199 1.367 . S
C198 C206 1.378 . S
C199 C198 1.367 . S
C199 C207 1.433 . S
C200 H196 0.929 . S
C200 C202 1.378 . S
C200 C204 1.350 . S
C201 C204 1.463 . S
C201 C206 1.350 . S
C201 N209 1.427 . S
C202 H193 0.930 . S
C202 C200 1.378 . S
C202 C203 1.367 . S
C203 C202 1.367 . S
C203 C205 1.433 . S
C204 C200 1.350 . S
C204 C201 1.463 . S
C204 N208 1.427 . S
C205 H195 0.929 . S
C205 C203 1.433 . S
C205 N208 1.384 . S
C206 H197 0.929 . S
C206 C198 1.378 . S
C206 C201 1.350 . S
C207 H194 0.929 . S
C207 C199 1.433 . S
C207 N209 1.384 . S
N208 C204 1.427 . S
N208 C205 1.384 . S
N209 C201 1.427 . S
N209 C207 1.384 . S
H210 C216 0.930 . S
H211 C220 0.930 . S
H212 C225 0.929 . S
H213 C223 0.929 . S
H214 C218 0.929 . S
H215 C224 0.929 . S
C216 H210 0.930 . S
C216 C217 1.367 . S
C216 C224 1.378 . S
C217 C216 1.367 . S
C217 C225 1.433 . S
C218 H214 0.929 . S
C218 C220 1.378 . S
C218 C222 1.350 . S
C219 C222 1.463 . S
C219 C224 1.350 . S
C219 N227 1.427 . S
C220 H211 0.930 . S
C220 C218 1.378 . S
C220 C221 1.367 . S
C221 C220 1.367 . S
C221 C223 1.433 . S
C222 C218 1.350 . S
C222 C219 1.463 . S
C222 N226 1.427 . S
C223 H213 0.929 . S
C223 C221 1.433 . S
C223 N226 1.384 . S
C224 H215 0.929 . S
C224 C216 1.378 . S
C224 C219 1.350 . S
C225 H212 0.929 . S
C225 C217 1.433 . S
C225 N227 1.384 . S
N226 C222 1.427 . S
N226 C223 1.384 . S
N227 C219 1.427 . S
N227 C225 1.384 . S
H228 C234 0.930 . S
H229 C238 0.930 . S
H230 C243 0.929 . S
H231 C241 0.929 . S
H232 C236 0.929 . S
H233 C242 0.929 . S
C234 H228 0.930 . S
C234 C235 1.367 . S
C234 C242 1.378 . S
C235 C234 1.367 . S
C235 C243 1.433 . S
C236 H232 0.929 . S
C236 C238 1.378 . S
C236 C240 1.350 . S
C237 C240 1.463 . S
C237 C242 1.350 . S
C237 N245 1.427 . S
C238 H229 0.930 . S
C238 C236 1.378 . S
C238 C239 1.367 . S
C239 C238 1.367 . S
C239 C241 1.433 . S
C240 C236 1.350 . S
C240 C237 1.463 . S
C240 N244 1.427 . S
C241 H231 0.929 . S
C241 C239 1.433 . S
C241 N244 1.384 . S
C242 H233 0.929 . S
C242 C234 1.378 . S
C242 C237 1.350 . S
C243 H230 0.929 . S
C243 C235 1.433 . S
C243 N245 1.384 . S
N244 C240 1.427 . S
N244 C241 1.384 . S
N245 C237 1.427 . S
N245 C243 1.384 . S
H246 C252 0.930 . S
H247 C256 0.930 . S
H248 C261 0.929 . S
H249 C259 0.929 . S
H250 C254 0.929 . S
H251 C260 0.929 . S
C252 H246 0.930 . S
C252 C253 1.367 . S
C252 C260 1.378 . S
C253 C252 1.367 . S
C253 C261 1.433 . S
C254 H250 0.929 . S
C254 C256 1.378 . S
C254 C258 1.350 . S
C255 C258 1.463 . S
C255 C260 1.350 . S
C255 N263 1.427 . S
C256 H247 0.930 . S
C256 C254 1.378 . S
C256 C257 1.367 . S
C257 C256 1.367 . S
C257 C259 1.433 . S
C258 C254 1.350 . S
C258 C255 1.463 . S
C258 N262 1.427 . S
C259 H249 0.929 . S
C259 C257 1.433 . S
C259 N262 1.384 . S
C260 H251 0.929 . S
C260 C252 1.378 . S
C260 C255 1.350 . S
C261 H248 0.929 . S
C261 C253 1.433 . S
C261 N263 1.384 . S
N262 C258 1.427 . S
N262 C259 1.384 . S
N263 C255 1.427 . S
N263 C261 1.384 . S
H264 C270 0.930 . S
H265 C274 0.930 . S
H266 C279 0.929 . S
H267 C277 0.929 1_455 S
H268 C272 0.929 . S
H269 C278 0.929 . S
C270 H264 0.930 . S
C270 C271 1.367 . S
C270 C278 1.378 . S
C271 C270 1.367 . S
C271 C279 1.433 . S
C272 H268 0.929 . S
C272 C274 1.378 . S
C272 C276 1.350 . S
C273 C276 1.463 . S
C273 C278 1.350 . S
C273 N281 1.427 . S
C274 H265 0.930 . S
C274 C272 1.378 . S
C274 C275 1.367 . S
C275 C274 1.367 . S
C275 C277 1.433 . S
C276 C272 1.350 . S
C276 C273 1.463 . S
C276 N280 1.427 . S
C277 H267 0.929 1_655 S
C277 C275 1.433 . S
C277 N280 1.384 . S
C278 H269 0.929 . S
C278 C270 1.378 . S
C278 C273 1.350 . S
C279 H266 0.929 . S
C279 C271 1.433 . S
C279 N281 1.384 . S
N280 C276 1.427 . S
N280 C277 1.384 . S
N281 C273 1.427 . S
N281 C279 1.384 . S
H282 C288 0.930 . S
H283 C292 0.930 . S
H284 C297 0.929 . S
H285 C295 0.929 . S
H286 C290 0.929 . S
H287 C296 0.929 . S
C288 H282 0.930 . S
C288 C289 1.367 . S
C288 C296 1.378 . S
C289 C288 1.367 . S
C289 C297 1.433 . S
C290 H286 0.929 . S
C290 C292 1.378 . S
C290 C294 1.350 . S
C291 C294 1.463 . S
C291 C296 1.350 . S
C291 N299 1.427 . S
C292 H283 0.930 . S
C292 C290 1.378 . S
C292 C293 1.367 . S
C293 C292 1.367 . S
C293 C295 1.433 . S
C294 C290 1.350 . S
C294 C291 1.463 . S
C294 N298 1.427 . S
C295 H285 0.929 . S
C295 C293 1.433 . S
C295 N298 1.384 . S
C296 H287 0.929 . S
C296 C288 1.378 . S
C296 C291 1.350 . S
C297 H284 0.929 . S
C297 C289 1.433 . S
C297 N299 1.384 . S
N298 C294 1.427 . S
N298 C295 1.384 . S
N299 C291 1.427 . S
N299 C297 1.384 . S
H300 C306 0.930 . S
H301 C310 0.930 . S
H302 C315 0.929 . S
H303 C313 0.929 . S
H304 C308 0.929 . S
H305 C314 0.929 . S
C306 H300 0.930 . S
C306 C307 1.367 . S
C306 C314 1.378 . S
C307 C306 1.367 . S
C307 C315 1.433 . S
C308 H304 0.929 . S
C308 C310 1.378 . S
C308 C312 1.350 . S
C309 C312 1.463 . S
C309 C314 1.350 . S
C309 N317 1.427 . S
C310 H301 0.930 . S
C310 C308 1.378 . S
C310 C311 1.367 . S
C311 C310 1.367 . S
C311 C313 1.433 . S
C312 C308 1.350 . S
C312 C309 1.463 . S
C312 N316 1.427 . S
C313 H303 0.929 . S
C313 C311 1.433 . S
C313 N316 1.384 . S
C314 H305 0.929 . S
C314 C306 1.378 . S
C314 C309 1.350 . S
C315 H302 0.929 . S
C315 C307 1.433 . S
C315 N317 1.384 . S
N316 C312 1.427 . S
N316 C313 1.384 . S
N317 C309 1.427 . S
N317 C315 1.384 . S
H318 C324 0.930 . S
H319 C328 0.930 . S
H320 C333 0.929 . S
H321 C331 0.929 . S
H322 C326 0.929 . S
H323 C332 0.929 . S
C324 H318 0.930 . S
C324 C325 1.367 . S
C324 C332 1.378 . S
C325 C324 1.367 . S
C325 C333 1.433 . S
C326 H322 0.929 . S
C326 C328 1.378 . S
C326 C330 1.350 . S
C327 C330 1.463 . S
C327 C332 1.350 . S
C327 N335 1.427 . S
C328 H319 0.930 . S
C328 C326 1.378 . S
C328 C329 1.367 . S
C329 C328 1.367 . S
C329 C331 1.433 . S
C330 C326 1.350 . S
C330 C327 1.463 . S
C330 N334 1.427 . S
C331 H321 0.929 . S
C331 C329 1.433 . S
C331 N334 1.384 . S
C332 H323 0.929 . S
C332 C324 1.378 . S
C332 C327 1.350 . S
C333 H320 0.929 . S
C333 C325 1.433 . S
C333 N335 1.384 . S
N334 C330 1.427 . S
N334 C331 1.384 . S
N335 C327 1.427 . S
N335 C333 1.384 . S
H336 C342 0.930 . S
H337 C346 0.930 . S
H338 C351 0.929 . S
H339 C349 0.929 . S
H340 C344 0.929 . S
H341 C350 0.929 . S
C342 H336 0.930 . S
C342 C343 1.367 . S
C342 C350 1.378 . S
C343 C342 1.367 . S
C343 C351 1.433 . S
C344 H340 0.929 . S
C344 C346 1.378 . S
C344 C348 1.350 . S
C345 C348 1.463 . S
C345 C350 1.350 . S
C345 N353 1.427 . S
C346 H337 0.930 . S
C346 C344 1.378 . S
C346 C347 1.367 . S
C347 C346 1.367 . S
C347 C349 1.433 . S
C348 C344 1.350 . S
C348 C345 1.463 . S
C348 N352 1.427 . S
C349 H339 0.929 . S
C349 C347 1.433 . S
C349 N352 1.384 . S
C350 H341 0.929 . S
C350 C342 1.378 . S
C350 C345 1.350 . S
C351 H338 0.929 . S
C351 C343 1.433 . S
C351 N353 1.384 . S
N352 C348 1.427 . S
N352 C349 1.384 . S
N353 C345 1.427 . S
N353 C351 1.384 . S
H354 C360 0.930 . S
H355 C364 0.930 . S
H356 C369 0.929 1_655 S
H357 C367 0.929 . S
H358 C362 0.929 . S
H359 C368 0.929 . S
C360 H354 0.930 . S
C360 C361 1.367 . S
C360 C368 1.378 . S
C361 C360 1.367 . S
C361 C369 1.433 . S
C362 H358 0.929 . S
C362 C364 1.378 . S
C362 C366 1.350 . S
C363 C366 1.463 1_554 S
C363 C368 1.350 . S
C363 N371 1.427 . S
C364 H355 0.930 . S
C364 C362 1.378 . S
C364 C365 1.367 . S
C365 C364 1.367 . S
C365 C367 1.433 . S
C366 C362 1.350 . S
C366 C363 1.463 1_556 S
C366 N370 1.427 . S
C367 H357 0.929 . S
C367 C365 1.433 . S
C367 N370 1.384 . S
C368 H359 0.929 . S
C368 C360 1.378 . S
C368 C363 1.350 . S
C369 H356 0.929 1_455 S
C369 C361 1.433 . S
C369 N371 1.384 . S
N370 C366 1.427 . S
N370 C367 1.384 . S
N371 C363 1.427 . S
N371 C369 1.384 . S
H372 C378 0.930 . S
H373 C382 0.930 . S
H374 C387 0.929 . S
H375 C385 0.929 . S
H376 C380 0.929 . S
H377 C386 0.929 . S
C378 H372 0.930 . S
C378 C379 1.367 . S
C378 C386 1.378 . S
C379 C378 1.367 . S
C379 C387 1.433 1_545 S
C380 H376 0.929 . S
C380 C382 1.378 . S
C380 C384 1.350 1_565 S
C381 C384 1.463 . S
C381 C386 1.350 . S
C381 N389 1.427 1_545 S
C382 H373 0.930 . S
C382 C380 1.378 . S
C382 C383 1.367 1_565 S
C383 C382 1.367 1_545 S
C383 C385 1.433 . S
C384 C380 1.350 1_545 S
C384 C381 1.463 . S
C384 N388 1.427 . S
C385 H375 0.929 . S
C385 C383 1.433 . S
C385 N388 1.384 . S
C386 H377 0.929 . S
C386 C378 1.378 . S
C386 C381 1.350 . S
C387 H374 0.929 . S
C387 C379 1.433 1_565 S
C387 N389 1.384 . S
N388 C384 1.427 . S
N388 C385 1.384 . S
N389 C381 1.427 1_565 S
N389 C387 1.384 . S
H390 C396 0.930 . S
H391 C400 0.930 . S
H392 C405 0.929 . S
H393 C403 0.929 . S
H394 C398 0.929 . S
H395 C404 0.929 . S
C396 H390 0.930 . S
C396 C397 1.367 . S
C396 C404 1.378 . S
C397 C396 1.367 . S
C397 C405 1.433 . S
C398 H394 0.929 . S
C398 C400 1.378 . S
C398 C402 1.350 . S
C399 C402 1.463 . S
C399 C404 1.350 . S
C399 N407 1.427 . S
C400 H391 0.930 . S
C400 C398 1.378 . S
C400 C401 1.367 . S
C401 C400 1.367 . S
C401 C403 1.433 . S
C402 C398 1.350 . S
C402 C399 1.463 . S
C402 N406 1.427 . S
C403 H393 0.929 . S
C403 C401 1.433 . S
C403 N406 1.384 . S
C404 H395 0.929 . S
C404 C396 1.378 . S
C404 C399 1.350 . S
C405 H392 0.929 . S
C405 C397 1.433 . S
C405 N407 1.384 . S
N406 C402 1.427 . S
N406 C403 1.384 . S
N407 C399 1.427 . S
N407 C405 1.384 . S
H408 C414 0.930 . S
H409 C418 0.930 . S
H410 C423 0.929 . S
H411 C421 0.929 . S
H412 C416 0.929 . S
H413 C422 0.929 . S
C414 H408 0.930 . S
C414 C415 1.367 1_565 S
C414 C422 1.378 . S
C415 C414 1.367 1_545 S
C415 C423 1.433 . S
C416 H412 0.929 . S
C416 C418 1.378 . S
C416 C420 1.350 . S
C417 C420 1.463 . S
C417 C422 1.350 1_545 S
C417 N425 1.427 . S
C418 H409 0.930 . S
C418 C416 1.378 . S
C418 C419 1.367 . S
C419 C418 1.367 . S
C419 C421 1.433 1_545 S
C420 C416 1.350 . S
C420 C417 1.463 . S
C420 N424 1.427 1_545 S
C421 H411 0.929 . S
C421 C419 1.433 1_565 S
C421 N424 1.384 . S
C422 H413 0.929 . S
C422 C414 1.378 . S
C422 C417 1.350 1_565 S
C423 H410 0.929 . S
C423 C415 1.433 . S
C423 N425 1.384 . S
N424 C420 1.427 1_565 S
N424 C421 1.384 . S
N425 C417 1.427 . S
N425 C423 1.384 . S
H426 C432 0.930 . S
H427 C436 0.930 . S
H428 C441 0.929 . S
H429 C439 0.929 . S
H430 C434 0.929 . S
H431 C440 0.929 . S
C432 H426 0.930 . S
C432 C433 1.367 . S
C432 C440 1.378 . S
C433 C432 1.367 . S
C433 C441 1.433 . S
C434 H430 0.929 . S
C434 C436 1.378 . S
C434 C438 1.350 . S
C435 C438 1.463 1_556 S
C435 C440 1.350 . S
C435 N443 1.427 . S
C436 H427 0.930 . S
C436 C434 1.378 . S
C436 C437 1.367 . S
C437 C436 1.367 . S
C437 C439 1.433 . S
C438 C434 1.350 . S
C438 C435 1.463 1_554 S
C438 N442 1.427 . S
C439 H429 0.929 . S
C439 C437 1.433 . S
C439 N442 1.384 . S
C440 H431 0.929 . S
C440 C432 1.378 . S
C440 C435 1.350 . S
C441 H428 0.929 . S
C441 C433 1.433 . S
C441 N443 1.384 . S
N442 C438 1.427 . S
N442 C439 1.384 . S
N443 C435 1.427 . S
N443 C441 1.384 . S
H444 C450 0.930 . S
H445 C454 0.930 . S
H446 C459 0.929 . S
H447 C457 0.929 . S
H448 C452 0.929 . S
H449 C458 0.929 . S
C450 H444 0.930 . S
C450 C451 1.367 . S
C450 C458 1.378 . S
C451 C450 1.367 . S
C451 C459 1.433 1_655 S
C452 H448 0.929 . S
C452 C454 1.378 . S
C452 C456 1.350 . S
C453 C456 1.463 1_655 S
C453 C458 1.350 . S
C453 N461 1.427 1_655 S
C454 H445 0.930 . S
C454 C452 1.378 . S
C454 C455 1.367 . S
C455 C454 1.367 . S
C455 C457 1.433 1_455 S
C456 C452 1.350 . S
C456 C453 1.463 1_455 S
C456 N460 1.427 1_455 S
C457 H447 0.929 . S
C457 C455 1.433 1_655 S
C457 N460 1.384 . S
C458 H449 0.929 . S
C458 C450 1.378 . S
C458 C453 1.350 . S
C459 H446 0.929 . S
C459 C451 1.433 1_455 S
C459 N461 1.384 . S
N460 C456 1.427 1_655 S
N460 C457 1.384 . S
N461 C453 1.427 1_455 S
N461 C459 1.384 . S
C145 C8 2.019 . S
C149 C129 1.939 . S
C163 C26 1.290 . S
C167 C107 1.289 . S
C181 C48 1.460 . S
C185 C120 1.496 . S
C199 C19 1.711 . S
C203 C133 1.752 . S
C221 C103 1.485 . S
C217 C36 1.530 . S
C239 C116 1.595 . S
C235 C59 1.640 . S
C253 C28 1.463 . S
C257 C81 1.493 . S
C271 C46 1.091 . S
C275 C94 1.099 1_655 S
C289 C16 1.521 . S
C293 C64 1.441 . S
C311 C77 1.601 . S
C307 C39 1.641 . S
C329 C90 1.055 . S
C325 C56 1.069 . S
C343 C6 1.317 . S
C347 C68 1.313 . S
C365 C95 1.490 . S
C361 C9 1.482 . S
C379 C21 1.533 . S
C383 C69 1.552 . S
C397 C49 1.556 . S
C401 C82 1.595 . S
C419 C121 1.551 . S
C415 C29 1.520 . S
C437 C134 1.625 . S
C433 C41 1.599 . S
C451 C1 1.550 . S
C455 C108 1.579 . S
