# Generated by pormake.
# Topology pts, (4,4)-cn, num edge types: 1
# Building blocks:
#     Node 0, Type 0, BuildingBlock: MIFKUJ_clean_linker_1, # of connection points: 4
#     Node 1, Type 0, BuildingBlock: MIFKUJ_clean_linker_1, # of connection points: 4
#     Node 2, Type 1, BuildingBlock: UXUYUI_clean_sbu_0, # of connection points: 4
#     Node 3, Type 1, BuildingBlock: UXUYUI_clean_sbu_0, # of connection points: 4
#     Edge 4, Type (0, 1), BuildingBlock: CIFDUS_clean_linker_0, # of connection points: 2
#     Edge 5, Type (0, 1), BuildingBlock: CIFDUS_clean_linker_0, # of connection points: 2
#     Edge 6, Type (0, 1), BuildingBlock: CIFDUS_clean_linker_0, # of connection points: 2
#     Edge 7, Type (0, 1), BuildingBlock: CIFDUS_clean_linker_0, # of connection points: 2
#     Edge 8, Type (0, 1), BuildingBlock: CIFDUS_clean_linker_0, # of connection points: 2
#     Edge 9, Type (0, 1), BuildingBlock: CIFDUS_clean_linker_0, # of connection points: 2
#     Edge 10, Type (0, 1), BuildingBlock: CIFDUS_clean_linker_0, # of connection points: 2
#     Edge 11, Type (0, 1), BuildingBlock: CIFDUS_clean_linker_0, # of connection points: 2
# Relax obj value: 0.001
# Max RMSD: 0.016
# Mean RMSD: 0.014
data_MOF--net-pts--node1-UXUYUI_clean_sbu_0--node2-MIFKUJ_clean_linker_1--edge1-CIFDUS_clean_linker_0
_symmetry_space_group_name_H-M    P1
_symmetry_Int_Tables_number       1
_symmetry_cell_setting            triclinic
loop_
_symmetry_equiv_pos_as_xyz
'x, y, z'
_cell_length_a     32.848309
_cell_length_b     32.778185
_cell_length_c     44.988665
_cell_angle_alpha  89.962317
_cell_angle_beta   90.026533
_cell_angle_gamma 89.956401
loop_
_atom_site_label
_atom_site_type_symbol
_atom_site_fract_x
_atom_site_fract_y
_atom_site_fract_z
_atom_type_partial_charge
H0 H 0.57457 0.95376 0.05715 0.0
H1 H 0.63716 0.94768 0.08646 0.0
H2 H 0.67439 0.06735 0.05676 0.0
H3 H 0.61146 0.07354 0.02801 0.0
H4 H 0.51226 0.01006 0.06098 0.0
H5 H 0.60654 0.96404 0.98308 0.0
H6 H 0.66682 0.96537 0.95125 0.0
H7 H 0.64327 0.09228 0.93098 0.0
H8 H 0.58206 0.08986 0.96168 0.0
H9 H 0.45629 0.08541 0.95083 0.0
H10 H 0.39706 0.08767 0.91794 0.0
H11 H 0.35446 0.97382 0.9549 0.0
H12 H 0.41419 0.97124 0.98742 0.0
H13 H 0.51575 0.03384 0.95215 0.0
H14 H 0.413 0.0744 0.01993 0.0
H15 H 0.34834 0.07123 0.04678 0.0
H16 H 0.38747 0.96054 0.09021 0.0
H17 H 0.45143 0.96251 0.06225 0.0
C18 C 0.58851 0.01394 0.04022 0.0
C19 C 0.59621 0.97869 0.05702 0.0
C20 C 0.6321 0.97514 0.07357 0.0
C21 C 0.66077 0.007 0.07386 0.0
C22 C 0.65278 0.04242 0.05718 0.0
C23 C 0.617 0.04585 0.04054 0.0
C24 C 0.55053 0.01754 0.02255 0.0
C25 C 0.5128 0.0147 0.03711 0.0
C26 C 0.55141 0.02501 0.99165 0.0
C27 C 0.58994 0.02684 0.97466 0.0
C28 C 0.61468 0.99217 0.97191 0.0
C29 C 0.64926 0.9931 0.9538 0.0
C30 C 0.65996 0.0289 0.9383 0.0
C31 C 0.6356 0.06392 0.94196 0.0
C32 C 0.60075 0.06275 0.95971 0.0
C33 C 0.43962 0.02832 0.97179 0.0
C34 C 0.43421 0.06092 0.95189 0.0
C35 C 0.40041 0.06217 0.93308 0.0
C36 C 0.3712 0.0309 0.93385 0.0
C37 C 0.37627 0.99857 0.95407 0.0
C38 C 0.41034 0.99711 0.9727 0.0
C39 C 0.47698 0.02608 0.99039 0.0
C40 C 0.51477 0.02926 0.97603 0.0
C41 C 0.47587 0.0193 0.02154 0.0
C42 C 0.43695 0.01823 0.03852 0.0
C43 C 0.40751 0.049 0.03479 0.0
C44 C 0.37064 0.04733 0.05025 0.0
C45 C 0.36297 0.01555 0.07041 0.0
C46 C 0.39277 0.98541 0.07482 0.0
C47 C 0.42931 0.9866 0.05889 0.0
H48 H 0.06712 0.44819 0.45286 0.0
H49 H 0.06754 0.38352 0.42572 0.0
H50 H 0.95568 0.34863 0.46941 0.0
H51 H 0.95569 0.41311 0.49658 0.0
H52 H 0.01252 0.51048 0.45352 0.0
H53 H 0.07257 0.4212 0.52849 0.0
H54 H 0.07695 0.36015 0.55996 0.0
H55 H 0.9563 0.38444 0.59365 0.0
H56 H 0.95231 0.44583 0.56248 0.0
H57 H 0.9551 0.57844 0.56417 0.0
H58 H 0.95738 0.64263 0.59173 0.0
H59 H 0.07214 0.67199 0.5498 0.0
H60 H 0.06898 0.60825 0.52179 0.0
H61 H 0.00845 0.51388 0.56376 0.0
H62 H 0.95683 0.61261 0.49619 0.0
H63 H 0.95742 0.67671 0.46838 0.0
H64 H 0.06143 0.63486 0.41834 0.0
H65 H 0.06186 0.57126 0.44703 0.0
C66 C 0.01163 0.43532 0.47698 0.0
C67 C 0.04268 0.4266 0.45653 0.0
C68 C 0.04279 0.38967 0.44097 0.0
C69 C 0.01169 0.36079 0.44545 0.0
C70 C 0.98047 0.36981 0.46581 0.0
C71 C 0.9804 0.40672 0.48134 0.0
C72 C 0.01168 0.47446 0.49359 0.0
C73 C 0.01219 0.51133 0.47762 0.0
C74 C 0.01007 0.47552 0.52498 0.0
C75 C 0.01207 0.43787 0.54314 0.0
C76 C 0.04704 0.41324 0.54257 0.0
C77 C 0.04957 0.37857 0.5606 0.0
C78 C 0.01694 0.36769 0.57917 0.0
C79 C 0.98173 0.39206 0.57937 0.0
C80 C 0.97949 0.42712 0.56172 0.0
C81 C 0.01167 0.58876 0.54076 0.0
C82 C 0.98074 0.59875 0.56099 0.0
C83 C 0.98222 0.63539 0.57682 0.0
C84 C 0.01494 0.6626 0.57301 0.0
C85 C 0.04612 0.65218 0.55293 0.0
C86 C 0.04448 0.61565 0.53698 0.0
C87 C 0.00979 0.55004 0.52376 0.0
C88 C 0.00875 0.51321 0.53964 0.0
C89 C 0.01095 0.54922 0.49226 0.0
C90 C 0.00986 0.58731 0.47421 0.0
C91 C 0.98015 0.61734 0.47955 0.0
C92 C 0.98037 0.65391 0.46357 0.0
C93 C 0.00963 0.6608 0.44138 0.0
C94 C 0.03846 0.63024 0.43528 0.0
C95 C 0.03868 0.59391 0.45164 0.0
Li96 Li 0.0152 0.0506 0.27674 0.0
Li97 Li 0.01101 0.97489 0.27617 0.0
Li98 Li 0.05123 0.01335 0.23681 0.0
Li99 Li 0.97545 0.01347 0.23669 0.0
C100 C 0.09005 0.0223 0.2993 0.0
N101 N 0.15078 0.0476 0.33751 0.0
C102 C 0.09296 1.0055 0.32778 0.0
C103 C 0.11828 0.05153 0.29008 0.0
C104 C 0.12382 0.01882 0.34682 0.0
C105 C 0.14869 0.06405 0.30978 0.0
C106 C 0.93549 1.00484 0.29916 0.0
C107 C 0.87514 0.96576 0.30998 0.0
N108 N 0.87338 0.98318 0.33739 0.0
C109 C 0.93294 0.02261 0.32733 0.0
C110 C 0.90624 0.9764 0.29029 0.0
C111 C 0.90136 0.01116 0.34638 0.0
C112 C 1.00181 0.13362 0.28836 0.0
N113 N 0.01594 0.0986 0.30084 0.0
C114 C 0.03093 0.13373 0.34615 0.0
C115 C 0.02972 0.09788 0.32935 0.0
C116 C 0.01745 0.17063 0.33356 0.0
C117 C 1.00241 0.17012 0.30432 0.0
H118 H 0.99003 0.13323 0.26592 0.0
H119 H 0.03974 0.06951 0.33912 0.0
C120 C 0.03237 0.89395 0.28843 0.0
N121 N 0.01093 0.92602 0.29945 0.0
C122 C 0.03363 0.85689 0.30377 0.0
C123 C 0.99077 0.88648 0.34167 0.0
C124 C 0.99084 0.92313 0.32578 0.0
C125 C 0.01235 0.85255 0.33073 0.0
H126 H 0.0486 0.89722 0.26764 0.0
H127 H 0.97477 0.94913 0.33457 0.0
C128 C 0.02624 0.09108 0.21501 0.0
N129 N 0.05269 0.15299 0.17813 0.0
C130 C 0.00759 0.09729 0.18745 0.0
C131 C 0.05807 0.11653 0.22395 0.0
C132 C 0.02148 0.12871 0.16908 0.0
C133 C 0.07107 0.14761 0.20495 0.0
C134 C 0.99779 0.93578 0.21532 0.0
C135 C 0.0131 0.92875 0.18681 0.0
C136 C 0.96666 0.91111 0.22644 0.0
C137 C 0.99647 0.89741 0.16964 0.0
C138 C 0.95085 0.88006 0.20859 0.0
N139 N 0.96592 0.87394 0.18079 0.0
C140 C 0.13144 0.98992 0.22406 0.0
C141 C 0.10203 0.03118 0.18656 0.0
C142 C 0.16811 0.98804 0.20839 0.0
N143 N 0.09949 0.0116 0.21314 0.0
C144 C 0.13834 0.03078 0.17041 0.0
C145 C 0.17223 0.00909 0.18127 0.0
H146 H 0.12842 0.97409 0.24505 0.0
H147 H 0.07603 0.04735 0.17785 0.0
C148 C 0.89414 0.03374 0.22432 0.0
N149 N 0.92793 0.01626 0.21241 0.0
C150 C 0.85847 0.03711 0.2076 0.0
C151 C 0.89306 1.00478 0.16648 0.0
C152 C 0.92817 1.00228 0.18396 0.0
C153 C 0.85759 0.02242 0.17828 0.0
H154 H 0.89495 0.04525 0.24683 0.0
H155 H 0.95573 0.98967 0.17466 0.0
O156 O 0.06005 0.00961 0.28041 0.0
O157 O 0.96618 0.01577 0.28027 0.0
O158 O 0.01304 0.06042 0.23321 0.0
O159 O 0.01368 0.96637 0.23236 0.0
H160 H 0.07143 0.98263 0.33513 0.0
H161 H 0.11684 0.06426 0.26793 0.0
H162 H 0.12632 1.00629 0.369 0.0
H163 H 0.17069 0.08676 0.30299 0.0
H164 H 0.85233 0.94373 0.30345 0.0
H165 H 0.95525 0.04483 0.33446 0.0
H166 H 0.9074 0.96287 0.2684 0.0
H167 H 0.89911 0.0245 0.3683 0.0
H168 H 0.04286 0.13263 0.36857 0.0
H169 H 0.99082 0.19758 0.29392 0.0
H170 H 0.05146 0.83208 0.29468 0.0
H171 H 0.9735 0.88474 0.36211 0.0
H172 H 0.98279 0.07792 0.18028 0.0
H173 H 0.07245 0.11244 0.24537 0.0
H174 H 0.00747 0.13379 0.14763 0.0
H175 H 0.09573 0.16751 0.21154 0.0
H176 H 0.03739 0.94752 0.178 0.0
H177 H 0.95498 0.91574 0.24864 0.0
H178 H 0.00784 0.89174 0.14746 0.0
H179 H 0.92666 0.86078 0.21687 0.0
H180 H 0.19282 0.97004 0.21744 0.0
H181 H 0.13984 0.04793 0.14988 0.0
H182 H 0.83175 0.05075 0.21762 0.0
H183 H 0.89391 0.99376 0.1438 0.0
Li184 Li 0.97548 0.01119 0.77706 0.0
Li185 Li 0.05135 0.01455 0.77752 0.0
Li186 Li 0.00839 0.04882 0.73749 0.0
Li187 Li 0.01534 0.97509 0.73916 0.0
C188 C 0.99358 0.08178 0.80329 0.0
N189 N 0.95624 0.12294 0.84938 0.0
C190 C 0.01039 0.08066 0.83182 0.0
C191 C 0.95807 0.10418 0.7981 0.0
C192 C 0.99099 0.10161 0.85485 0.0
C193 C 0.93955 0.12466 0.82173 0.0
C194 C 0.01572 0.9257 0.78608 0.0
C195 C 0.05076 0.86117 0.7833 0.0
N196 N 0.01526 0.84159 0.7895 0.0
C197 C 0.97963 0.90501 0.79257 0.0
C198 C 0.05165 0.90371 0.78157 0.0
C199 C 0.98002 0.86244 0.79417 0.0
C200 C 0.89141 0.00924 0.79227 0.0
N201 N 0.92998 0.00855 0.80315 0.0
C202 C 0.9051 1.00538 0.853 0.0
C203 C 0.93734 1.00594 0.83281 0.0
C204 C 0.86476 0.00666 0.84255 0.0
C205 C 0.8582 0.00821 0.81165 0.0
H206 H 0.8864 0.01045 0.76855 0.0
H207 H 0.96837 1.00474 0.8408 0.0
C208 C 0.12605 0.04703 0.79916 0.0
N209 N 0.0973 0.01769 0.80288 0.0
C210 C 0.15921 0.04927 0.8186 0.0
C211 C 0.1324 0.99103 0.84514 0.0
C212 C 0.0998 0.99002 0.82529 0.0
C213 C 0.16265 0.02103 0.84206 0.0
H214 H 0.12305 0.0688 0.7812 0.0
H215 H 0.07633 0.96719 0.82782 0.0
C216 C 0.94071 0.01969 0.71127 0.0
N217 N 0.89314 0.04657 0.66452 0.0
C218 C 0.94261 1.00004 0.68373 0.0
C219 C 0.91441 0.0528 0.7151 0.0
C220 C 0.91834 0.01413 0.66037 0.0
C221 C 0.8907 0.06602 0.69116 0.0
C222 C 0.09298 1.00573 0.71799 0.0
C223 C 0.09663 0.01733 0.68821 0.0
C224 C 0.12445 0.98387 0.73161 0.0
C225 C 0.13163 1.00651 0.67243 0.0
C226 C 0.15897 0.97367 0.71507 0.0
N227 N 0.16181 0.98509 0.68608 0.0
C228 C 0.00821 0.13329 0.72407 0.0
C229 C 1.00145 0.09012 0.68211 0.0
C230 C 0.00613 0.16789 0.70594 0.0
N231 N 0.00557 0.09538 0.71195 0.0
C232 C 0.99833 0.12383 0.66326 0.0
C233 C 1.00072 0.16328 0.67518 0.0
H234 H 0.01202 0.13665 0.74781 0.0
H235 H 1.00057 0.05973 0.67289 0.0
C236 C 0.98113 0.9033 0.7169 0.0
N237 N 0.01599 0.92566 0.71607 0.0
C238 C 0.97832 0.8665 0.70141 0.0
C239 C 0.04699 0.87669 0.68378 0.0
C240 C 0.04867 0.913 0.69994 0.0
C241 C 0.01152 0.85289 0.68447 0.0
H242 H 0.95544 0.91414 0.72969 0.0
H243 H 0.07619 0.9307 0.69952 0.0
O244 O 0.01168 0.06083 0.7806 0.0
O245 O 0.01577 0.96728 0.7838 0.0
O246 O 0.96435 1.00644 0.73438 0.0
O247 O 0.05914 0.01645 0.73383 0.0
H248 H 0.03789 0.06348 0.83619 0.0
H249 H 0.94484 0.10551 0.77611 0.0
H250 H 1.00349 0.10083 0.87709 0.0
H251 H 0.9119 0.1419 0.81808 0.0
H252 H 0.07827 0.84372 0.77966 0.0
H253 H 0.95155 0.92164 0.79607 0.0
H254 H 0.0798 0.91932 0.77648 0.0
H255 H 0.95228 0.84597 0.79903 0.0
H256 H 0.91183 1.00461 0.87655 0.0
H257 H 0.82774 0.00827 0.80245 0.0
H258 H 0.18152 0.07321 0.81558 0.0
H259 H 0.13403 0.96828 0.86256 0.0
H260 H 0.9629 0.97447 0.68032 0.0
H261 H 0.91254 0.06832 0.73625 0.0
H262 H 0.91963 0.99934 0.6389 0.0
H263 H 0.87038 0.09176 0.69376 0.0
H264 H 0.07265 0.0344 0.67738 0.0
H265 H 0.12216 0.9746 0.7546 0.0
H266 H 0.13481 0.01518 0.64934 0.0
H267 H 0.18349 0.95664 0.72529 0.0
H268 H 0.00812 0.19793 0.71587 0.0
H269 H 0.99472 0.11915 0.63958 0.0
H270 H 0.95027 0.84918 0.7023 0.0
H271 H 0.07341 0.86702 0.67121 0.0
H272 H 0.35211 0.0092 0.13 0.0
H273 H 0.28648 0.01848 0.0473 0.0
H274 H 0.22167 0.01584 0.07409 0.0
H275 H 0.18395 0.01062 0.12092 0.0
H276 H 0.24988 0.00732 0.20405 0.0
H277 H 0.31413 0.00676 0.17715 0.0
C278 C 0.32354 0.01046 0.11793 0.0
C279 C 0.3239 0.01388 0.08679 0.0
C280 C 0.28648 0.00969 0.13352 0.0
C281 C 0.28682 0.01601 0.07132 0.0
C282 C 0.24983 0.0144 0.08661 0.0
C283 C 0.21224 0.01038 0.13331 0.0
C284 C 0.21162 0.00881 0.16463 0.0
C285 C 0.2493 0.01139 0.11773 0.0
C286 C 0.24899 0.00763 0.18 0.0
C287 C 0.28594 0.00771 0.16463 0.0
H288 H 0.96299 0.30541 0.58429 0.0
H289 H 0.07786 0.34911 0.61788 0.0
H290 H 0.08261 0.29021 0.65119 0.0
H291 H 0.05388 0.22621 0.67085 0.0
H292 H 0.94085 0.18063 0.63537 0.0
H293 H 0.93538 0.24026 0.60276 0.0
C294 C 0.98894 0.30197 0.599 0.0
C295 C 0.01995 0.3315 0.5988 0.0
C296 C 0.99173 0.26775 0.61772 0.0
C297 C 0.05375 0.32657 0.61761 0.0
C298 C 0.05639 0.29303 0.6367 0.0
C299 C 0.02803 0.22957 0.65603 0.0
C300 C 0.99768 0.19939 0.65554 0.0
C301 C 0.02554 0.26347 0.63698 0.0
C302 C 0.96458 0.20356 0.636 0.0
C303 C 0.96143 0.23761 0.61743 0.0
H304 H 0.69501 0.06453 0.1095 0.0
H305 H 0.7117 0.94128 0.0782 0.0
H306 H 0.77407 0.93518 0.10755 0.0
H307 H 0.8238 0.96486 0.14229 0.0
H308 H 0.80698 0.08819 0.17342 0.0
H309 H 0.74483 0.09429 0.14393 0.0
C310 C 0.7125 0.03646 0.1089 0.0
C311 C 0.69875 1.00344 0.09165 0.0
C312 C 0.74827 0.03315 0.12586 0.0
C313 C 0.7214 0.96702 0.09152 0.0
C314 C 0.75716 0.96358 0.10818 0.0
C315 C 0.80669 0.99317 0.14241 0.0
C316 C 0.82001 0.026 0.16004 0.0
C317 C 0.77089 0.99644 0.12544 0.0
C318 C 0.79716 0.06229 0.16031 0.0
C319 C 0.76172 0.06588 0.14334 0.0
H320 H 0.9931 0.67592 0.63076 0.0
H321 H 0.04044 0.73739 0.55321 0.0
H322 H 0.0444 0.80114 0.58098 0.0
H323 H 0.0338 0.8398 0.62715 0.0
H324 H 0.98393 0.77914 0.70401 0.0
H325 H 0.98067 0.71493 0.67642 0.0
C326 C 1.00382 0.70332 0.61977 0.0
C327 C 0.01661 0.70164 0.58991 0.0
C328 C 1.00541 0.74012 0.63572 0.0
C329 C 0.03106 0.73747 0.57629 0.0
C330 C 0.03307 0.77408 0.59209 0.0
C331 C 0.02243 0.81243 0.63786 0.0
C332 C 0.00922 0.81412 0.66757 0.0
C333 C 0.02041 0.77575 0.62182 0.0
C334 C 0.99398 0.77863 0.68108 0.0
C335 C 0.99227 0.74191 0.66537 0.0
H336 H 0.29155 0.0166 0.9466 0.0
H337 H 0.37244 0.04663 0.87435 0.0
H338 H 0.31515 0.04695 0.83968 0.0
H339 H 0.24236 0.03702 0.82968 0.0
H340 H 0.16113 0.00874 0.90223 0.0
H341 H 0.21831 0.00872 0.93683 0.0
C342 C 0.29659 0.02303 0.92324 0.0
C343 C 0.33613 0.03154 0.91305 0.0
C344 C 0.2635 0.02327 0.90344 0.0
C345 C 0.3422 0.04037 0.88279 0.0
C346 C 0.3095 0.04037 0.86293 0.0
C347 C 0.23704 0.03136 0.85311 0.0
C348 C 0.19745 0.02265 0.86322 0.0
C349 C 0.27002 0.0318 0.873 0.0
C350 C 0.19133 0.01482 0.89366 0.0
C351 C 0.224 0.01504 0.91354 0.0
H352 H 0.03019 0.34856 0.38707 0.0
H353 H 0.99277 0.2847 0.46639 0.0
H354 H 0.99108 0.2205 0.43891 0.0
H355 H 0.99957 0.18254 0.39221 0.0
H356 H 0.03916 0.24623 0.31335 0.0
H357 H 0.04068 0.31033 0.34083 0.0
C358 C 0.02213 0.32054 0.39846 0.0
C359 C 0.01157 0.32157 0.42877 0.0
C360 C 0.02144 0.28366 0.38257 0.0
C361 C 1.00051 0.28497 0.443 0.0
C362 C 0.99975 0.24817 0.42733 0.0
C363 C 0.00898 0.21034 0.3811 0.0
C364 C 0.01908 0.20946 0.35069 0.0
C365 C 0.01007 0.24716 0.39709 0.0
C366 C 0.03059 0.24601 0.3366 0.0
C367 C 0.03172 0.2827 0.35234 0.0
H368 H 0.73329 0.99001 0.94467 0.0
H369 H 0.66643 0.06858 0.88489 0.0
H370 H 0.72398 0.06969 0.85087 0.0
H371 H 0.79299 0.04815 0.83772 0.0
H372 H 0.85781 0.96493 0.89526 0.0
H373 H 0.80129 0.96589 0.93035 0.0
C374 C 0.73102 0.00703 0.92406 0.0
C375 C 0.69544 0.0294 0.91762 0.0
C376 C 0.76394 0.00679 0.90411 0.0
C377 C 0.69359 0.05177 0.89092 0.0
C378 C 0.72641 0.05215 0.87123 0.0
C379 C 0.79465 0.02971 0.8577 0.0
C380 C 0.82985 0.00659 0.86372 0.0
C381 C 0.76168 0.0297 0.87755 0.0
C382 C 0.83153 0.98361 0.89015 0.0
C383 C 0.79904 0.98388 0.91019 0.0
H384 H 0.01283 0.672 0.38154 0.0
H385 H 0.00785 0.73745 0.46455 0.0
H386 H 0.00909 0.80245 0.43782 0.0
H387 H 0.01225 0.84052 0.39097 0.0
H388 H 0.01261 0.77497 0.30768 0.0
H389 H 0.01356 0.71034 0.33443 0.0
C390 C 0.01221 0.70056 0.39371 0.0
C391 C 0.01033 0.70002 0.42493 0.0
C392 C 0.01238 0.73779 0.37818 0.0
C393 C 0.00902 0.73716 0.44048 0.0
C394 C 0.00987 0.77429 0.42522 0.0
C395 C 0.01196 0.8122 0.37855 0.0
C396 C 0.01254 0.81298 0.34723 0.0
C397 C 0.01145 0.77497 0.39406 0.0
C398 C 0.01299 0.77565 0.33174 0.0
C399 C 0.01318 0.73851 0.34703 0.0
loop_
_geom_bond_atom_site_label_1
_geom_bond_atom_site_label_2
_geom_bond_distance
_geom_bond_site_symmetry_2
_ccdc_geom_bond_type
H0 C19 0.949 . S
H1 C20 0.950 . S
H2 C22 0.950 . S
H3 C23 0.950 . S
H4 C25 0.948 1_565 S
H5 C28 0.950 . S
H6 C29 0.950 . S
H7 C31 0.951 . S
H8 C32 0.949 . S
H9 C34 0.949 . S
H10 C35 0.950 . S
H11 C37 0.950 . S
H12 C38 0.950 . S
H13 C40 0.950 . S
H14 C43 0.950 . S
H15 C44 0.950 . S
H16 C46 0.951 . S
H17 C47 0.949 . S
C18 C19 1.376 1_545 S
C18 C23 1.386 . S
C18 C24 1.483 . S
C19 H0 0.949 . S
C19 C18 1.376 1_565 S
C19 C20 1.397 . S
C20 H1 0.950 . S
C20 C19 1.397 . S
C20 C21 1.391 1_565 S
C21 C20 1.391 1_545 S
C21 C22 1.405 . S
C22 H2 0.950 . S
C22 C21 1.405 . S
C22 C23 1.367 . S
C23 H3 0.950 . S
C23 C18 1.386 . S
C23 C22 1.367 . S
C24 C18 1.483 . S
C24 C25 1.383 . S
C24 C26 1.403 1_554 S
C25 H4 0.948 1_545 S
C25 C24 1.383 . S
C25 C41 1.412 . S
C26 C24 1.403 1_556 S
C26 C27 1.489 . S
C26 C40 1.411 . S
C27 C26 1.489 . S
C27 C28 1.383 1_545 S
C27 C32 1.382 . S
C28 H5 0.950 . S
C28 C27 1.383 1_565 S
C28 C29 1.395 . S
C29 H6 0.950 . S
C29 C28 1.395 . S
C29 C30 1.288 1_565 S
C30 C29 1.288 1_545 S
C30 C31 1.392 . S
C31 H7 0.951 . S
C31 C30 1.392 . S
C31 C32 1.392 . S
C32 H8 0.949 . S
C32 C27 1.382 . S
C32 C31 1.392 . S
C33 C34 1.376 . S
C33 C38 1.386 1_545 S
C33 C39 1.483 . S
C34 H9 0.949 . S
C34 C33 1.376 . S
C34 C35 1.397 . S
C35 H10 0.950 . S
C35 C34 1.397 . S
C35 C36 1.391 . S
C36 C35 1.391 . S
C36 C37 1.405 1_545 S
C37 H11 0.950 . S
C37 C36 1.405 1_565 S
C37 C38 1.367 . S
C38 H12 0.950 . S
C38 C33 1.386 1_565 S
C38 C37 1.367 . S
C39 C33 1.483 . S
C39 C40 1.382 . S
C39 C41 1.403 1_556 S
C40 H13 0.950 . S
C40 C26 1.411 . S
C40 C39 1.382 . S
C41 C25 1.412 . S
C41 C39 1.403 1_554 S
C41 C42 1.489 . S
C42 C41 1.489 . S
C42 C43 1.383 . S
C42 C47 1.382 1_545 S
C43 H14 0.950 . S
C43 C42 1.383 . S
C43 C44 1.395 . S
C44 H15 0.950 . S
C44 C43 1.395 . S
C44 C45 1.288 . S
C45 C44 1.288 . S
C45 C46 1.392 1_545 S
C46 H16 0.951 . S
C46 C45 1.392 1_565 S
C46 C47 1.392 . S
C47 H17 0.949 . S
C47 C42 1.382 1_565 S
C47 C46 1.392 . S
H48 C67 0.949 . S
H49 C68 0.950 . S
H50 C70 0.950 . S
H51 C71 0.950 . S
H52 C73 0.950 . S
H53 C76 0.950 . S
H54 C77 0.950 . S
H55 C79 0.951 . S
H56 C80 0.949 . S
H57 C82 0.949 . S
H58 C83 0.950 . S
H59 C85 0.950 . S
H60 C86 0.950 . S
H61 C88 0.948 1_655 S
H62 C91 0.950 . S
H63 C92 0.950 . S
H64 C94 0.951 . S
H65 C95 0.949 . S
C66 C67 1.376 . S
C66 C71 1.386 1_455 S
C66 C72 1.483 . S
C67 H48 0.949 . S
C67 C66 1.376 . S
C67 C68 1.397 . S
C68 H49 0.950 . S
C68 C67 1.397 . S
C68 C69 1.391 . S
C69 C68 1.391 . S
C69 C70 1.405 1_455 S
C70 H50 0.950 . S
C70 C69 1.405 1_655 S
C70 C71 1.367 . S
C71 H51 0.950 . S
C71 C66 1.386 1_655 S
C71 C70 1.367 . S
C72 C66 1.483 . S
C72 C73 1.382 . S
C72 C74 1.403 . S
C73 H52 0.950 . S
C73 C72 1.382 . S
C73 C89 1.411 . S
C74 C72 1.403 . S
C74 C75 1.489 . S
C74 C88 1.412 . S
C75 C74 1.489 . S
C75 C76 1.383 . S
C75 C80 1.382 1_455 S
C76 H53 0.950 . S
C76 C75 1.383 . S
C76 C77 1.395 . S
C77 H54 0.950 . S
C77 C76 1.395 . S
C77 C78 1.288 . S
C78 C77 1.288 . S
C78 C79 1.392 1_455 S
C79 H55 0.951 . S
C79 C78 1.392 1_655 S
C79 C80 1.392 . S
C80 H56 0.949 . S
C80 C75 1.382 1_655 S
C80 C79 1.392 . S
C81 C82 1.376 1_455 S
C81 C86 1.386 . S
C81 C87 1.483 . S
C82 H57 0.949 . S
C82 C81 1.376 1_655 S
C82 C83 1.397 . S
C83 H58 0.950 . S
C83 C82 1.397 . S
C83 C84 1.391 1_655 S
C84 C83 1.391 1_455 S
C84 C85 1.405 . S
C85 H59 0.950 . S
C85 C84 1.405 . S
C85 C86 1.367 . S
C86 H60 0.950 . S
C86 C81 1.386 . S
C86 C85 1.367 . S
C87 C81 1.483 . S
C87 C88 1.383 . S
C87 C89 1.403 . S
C88 H61 0.948 1_455 S
C88 C74 1.412 . S
C88 C87 1.383 . S
C89 C73 1.411 . S
C89 C87 1.403 . S
C89 C90 1.489 . S
C90 C89 1.489 . S
C90 C91 1.383 1_455 S
C90 C95 1.382 . S
C91 H62 0.950 . S
C91 C90 1.383 1_655 S
C91 C92 1.395 . S
C92 H63 0.950 . S
C92 C91 1.395 . S
C92 C93 1.288 1_655 S
C93 C92 1.288 1_455 S
C93 C94 1.392 . S
C94 H64 0.951 . S
C94 C93 1.392 . S
C94 C95 1.392 . S
C95 H65 0.949 . S
C95 C90 1.382 . S
C95 C94 1.392 . S
Li96 N113 1.990 . S
Li96 O156 1.956 . S
Li96 O157 1.970 1_455 S
Li96 O158 1.961 . S
Li97 N121 1.990 . S
Li97 O156 1.970 1_565 S
Li97 O157 1.956 1_465 S
Li97 O159 1.961 . S
Li98 N143 1.990 . S
Li98 O156 1.961 . S
Li98 O158 1.956 . S
Li98 O159 1.970 1_545 S
Li99 N149 1.990 . S
Li99 O157 1.961 . S
Li99 O158 1.970 1_655 S
Li99 O159 1.956 1_645 S
C100 C102 1.348 1_545 S
C100 C103 1.356 . S
C100 O156 1.325 . S
N101 C104 1.314 1_545 S
N101 C105 1.279 . S
C102 C100 1.348 1_565 S
C102 C104 1.353 . S
C102 H160 0.929 . S
C103 C100 1.356 . S
C103 C105 1.358 . S
C103 H161 0.930 . S
C104 N101 1.314 1_565 S
C104 C102 1.353 . S
C104 H162 0.930 . S
C105 N101 1.279 . S
C105 C103 1.358 . S
C105 H163 0.930 . S
C106 C109 1.348 . S
C106 C110 1.356 1_545 S
C106 O157 1.325 . S
C107 N108 1.279 1_565 S
C107 C110 1.358 . S
C107 H164 0.930 . S
N108 C107 1.279 1_545 S
N108 C111 1.314 . S
C109 C106 1.348 . S
C109 C111 1.353 . S
C109 H165 0.929 . S
C110 C106 1.356 1_565 S
C110 C107 1.358 . S
C110 H166 0.930 . S
C111 N108 1.314 . S
C111 C109 1.353 . S
C111 H167 0.930 . S
C112 N113 1.314 1_655 S
C112 C117 1.353 . S
C112 H118 0.930 . S
N113 Li96 1.990 . S
N113 C112 1.314 1_455 S
N113 C115 1.279 . S
C114 C115 1.358 . S
C114 C116 1.356 . S
C114 H168 0.930 . S
C115 N113 1.279 . S
C115 C114 1.358 . S
C115 H119 0.930 . S
C116 C114 1.356 . S
C116 C117 1.348 1_455 S
C117 C112 1.353 . S
C117 C116 1.348 1_655 S
C117 H169 0.929 . S
H118 C112 0.930 . S
H119 C115 0.930 . S
C120 N121 1.314 . S
C120 C122 1.353 . S
C120 H126 0.930 . S
N121 Li97 1.990 . S
N121 C120 1.314 . S
N121 C124 1.279 1_455 S
C122 C120 1.353 . S
C122 C125 1.348 . S
C122 H170 0.929 . S
C123 C124 1.358 . S
C123 C125 1.356 1_655 S
C123 H171 0.930 . S
C124 N121 1.279 1_655 S
C124 C123 1.358 . S
C124 H127 0.930 . S
C125 C122 1.348 . S
C125 C123 1.356 1_455 S
H126 C120 0.930 . S
H127 C124 0.930 . S
C128 C130 1.348 1_455 S
C128 C131 1.356 . S
C128 O158 1.325 . S
N129 C132 1.314 1_455 S
N129 C133 1.279 . S
C130 C128 1.348 1_655 S
C130 C132 1.353 . S
C130 H172 0.929 . S
C131 C128 1.356 . S
C131 C133 1.358 . S
C131 H173 0.930 . S
C132 N129 1.314 1_655 S
C132 C130 1.353 . S
C132 H174 0.930 . S
C133 N129 1.279 . S
C133 C131 1.358 . S
C133 H175 0.930 . S
C134 C135 1.348 . S
C134 C136 1.356 1_455 S
C134 O159 1.325 . S
C135 C134 1.348 . S
C135 C137 1.353 . S
C135 H176 0.929 . S
C136 C134 1.356 1_655 S
C136 C138 1.358 . S
C136 H177 0.930 . S
C137 C135 1.353 . S
C137 N139 1.314 . S
C137 H178 0.930 . S
C138 C136 1.358 . S
C138 N139 1.279 1_655 S
C138 H179 0.930 . S
N139 C137 1.314 . S
N139 C138 1.279 1_455 S
C140 C142 1.353 . S
C140 N143 1.314 1_565 S
C140 H146 0.930 . S
C141 N143 1.279 . S
C141 C144 1.358 . S
C141 H147 0.930 . S
C142 C140 1.353 . S
C142 C145 1.348 1_565 S
C142 H180 0.929 . S
N143 Li98 1.990 . S
N143 C140 1.314 1_545 S
N143 C141 1.279 . S
C144 C141 1.358 . S
C144 C145 1.356 . S
C144 H181 0.930 . S
C145 C142 1.348 1_545 S
C145 C144 1.356 . S
H146 C140 0.930 . S
H147 C141 0.930 . S
C148 N149 1.314 . S
C148 C150 1.353 . S
C148 H154 0.930 . S
N149 Li99 1.990 . S
N149 C148 1.314 . S
N149 C152 1.279 1_545 S
C150 C148 1.353 . S
C150 C153 1.348 . S
C150 H182 0.929 . S
C151 C152 1.358 . S
C151 C153 1.356 1_565 S
C151 H183 0.930 . S
C152 N149 1.279 1_565 S
C152 C151 1.358 . S
C152 H155 0.930 . S
C153 C150 1.348 . S
C153 C151 1.356 1_545 S
H154 C148 0.930 . S
H155 C152 0.930 . S
O156 Li96 1.956 . S
O156 Li97 1.970 1_545 S
O156 Li98 1.961 . S
O156 C100 1.325 . S
O157 Li96 1.970 1_655 S
O157 Li97 1.956 1_645 S
O157 Li99 1.961 . S
O157 C106 1.325 . S
O158 Li96 1.961 . S
O158 Li98 1.956 . S
O158 Li99 1.970 1_455 S
O158 C128 1.325 . S
O159 Li97 1.961 . S
O159 Li98 1.970 1_565 S
O159 Li99 1.956 1_465 S
O159 C134 1.325 . S
H160 C102 0.929 . S
H161 C103 0.930 . S
H162 C104 0.930 . S
H163 C105 0.930 . S
H164 C107 0.930 . S
H165 C109 0.929 . S
H166 C110 0.930 . S
H167 C111 0.930 . S
H168 C114 0.930 . S
H169 C117 0.929 . S
H170 C122 0.929 . S
H171 C123 0.930 . S
H172 C130 0.929 . S
H173 C131 0.930 . S
H174 C132 0.930 . S
H175 C133 0.930 . S
H176 C135 0.929 . S
H177 C136 0.930 . S
H178 C137 0.930 . S
H179 C138 0.930 . S
H180 C142 0.929 . S
H181 C144 0.930 . S
H182 C150 0.929 . S
H183 C151 0.930 . S
Li184 N201 1.990 . S
Li184 O244 1.956 1_655 S
Li184 O245 1.970 1_645 S
Li184 O246 1.961 . S
Li185 N209 1.990 . S
Li185 O244 1.970 . S
Li185 O245 1.956 1_545 S
Li185 O247 1.961 . S
Li186 N231 1.990 . S
Li186 O244 1.961 . S
Li186 O246 1.956 1_455 S
Li186 O247 1.970 . S
Li187 N237 1.990 . S
Li187 O245 1.961 . S
Li187 O246 1.970 1_465 S
Li187 O247 1.956 1_565 S
C188 C190 1.348 . S
C188 C191 1.356 1_455 S
C188 O244 1.325 . S
N189 C192 1.314 . S
N189 C193 1.279 1_455 S
C190 C188 1.348 . S
C190 C192 1.353 . S
C190 H248 0.929 . S
C191 C188 1.356 1_655 S
C191 C193 1.358 . S
C191 H249 0.930 . S
C192 N189 1.314 . S
C192 C190 1.353 . S
C192 H250 0.930 . S
C193 N189 1.279 1_655 S
C193 C191 1.358 . S
C193 H251 0.930 . S
C194 C197 1.348 1_455 S
C194 C198 1.356 . S
C194 O245 1.325 . S
C195 N196 1.279 . S
C195 C198 1.358 . S
C195 H252 0.930 . S
N196 C195 1.279 . S
N196 C199 1.314 1_455 S
C197 C194 1.348 1_655 S
C197 C199 1.353 . S
C197 H253 0.929 . S
C198 C194 1.356 . S
C198 C195 1.358 . S
C198 H254 0.930 . S
C199 N196 1.314 1_655 S
C199 C197 1.353 . S
C199 H255 0.930 . S
C200 N201 1.314 1_565 S
C200 C205 1.353 . S
C200 H206 0.930 . S
N201 Li184 1.990 . S
N201 C200 1.314 1_545 S
N201 C203 1.279 . S
C202 C203 1.358 . S
C202 C204 1.356 . S
C202 H256 0.930 . S
C203 N201 1.279 . S
C203 C202 1.358 . S
C203 H207 0.930 . S
C204 C202 1.356 . S
C204 C205 1.348 1_545 S
C205 C200 1.353 . S
C205 C204 1.348 1_565 S
C205 H257 0.929 . S
H206 C200 0.930 . S
H207 C203 0.930 . S
C208 N209 1.314 . S
C208 C210 1.353 . S
C208 H214 0.930 . S
N209 Li185 1.990 . S
N209 C208 1.314 . S
N209 C212 1.279 1_545 S
C210 C208 1.353 . S
C210 C213 1.348 . S
C210 H258 0.929 . S
C211 C212 1.358 . S
C211 C213 1.356 1_565 S
C211 H259 0.930 . S
C212 N209 1.279 1_565 S
C212 C211 1.358 . S
C212 H215 0.930 . S
C213 C210 1.348 . S
C213 C211 1.356 1_545 S
H214 C208 0.930 . S
H215 C212 0.930 . S
C216 C218 1.348 1_545 S
C216 C219 1.356 . S
C216 O246 1.325 . S
N217 C220 1.314 1_545 S
N217 C221 1.279 . S
C218 C216 1.348 1_565 S
C218 C220 1.353 . S
C218 H260 0.929 . S
C219 C216 1.356 . S
C219 C221 1.358 . S
C219 H261 0.930 . S
C220 N217 1.314 1_565 S
C220 C218 1.353 . S
C220 H262 0.930 . S
C221 N217 1.279 . S
C221 C219 1.358 . S
C221 H263 0.930 . S
C222 C223 1.348 . S
C222 C224 1.356 1_545 S
C222 O247 1.325 . S
C223 C222 1.348 . S
C223 C225 1.353 . S
C223 H264 0.929 . S
C224 C222 1.356 1_565 S
C224 C226 1.358 . S
C224 H265 0.930 . S
C225 C223 1.353 . S
C225 N227 1.314 . S
C225 H266 0.930 . S
C226 C224 1.358 . S
C226 N227 1.279 1_565 S
C226 H267 0.930 . S
N227 C225 1.314 . S
N227 C226 1.279 1_545 S
C228 C230 1.353 . S
C228 N231 1.314 . S
C228 H234 0.930 . S
C229 N231 1.279 1_655 S
C229 C232 1.358 . S
C229 H235 0.930 . S
C230 C228 1.353 . S
C230 C233 1.348 . S
C230 H268 0.929 . S
N231 Li186 1.990 . S
N231 C228 1.314 . S
N231 C229 1.279 1_455 S
C232 C229 1.358 . S
C232 C233 1.356 1_655 S
C232 H269 0.930 . S
C233 C230 1.348 . S
C233 C232 1.356 1_455 S
H234 C228 0.930 . S
H235 C229 0.930 . S
C236 N237 1.314 1_655 S
C236 C238 1.353 . S
C236 H242 0.930 . S
N237 Li187 1.990 . S
N237 C236 1.314 1_455 S
N237 C240 1.279 . S
C238 C236 1.353 . S
C238 C241 1.348 1_655 S
C238 H270 0.929 . S
C239 C240 1.358 . S
C239 C241 1.356 . S
C239 H271 0.930 . S
C240 N237 1.279 . S
C240 C239 1.358 . S
C240 H243 0.930 . S
C241 C238 1.348 1_455 S
C241 C239 1.356 . S
H242 C236 0.930 . S
H243 C240 0.930 . S
O244 Li184 1.956 1_455 S
O244 Li185 1.970 . S
O244 Li186 1.961 . S
O244 C188 1.325 . S
O245 Li184 1.970 1_465 S
O245 Li185 1.956 1_565 S
O245 Li187 1.961 . S
O245 C194 1.325 . S
O246 Li184 1.961 . S
O246 Li186 1.956 1_655 S
O246 Li187 1.970 1_645 S
O246 C216 1.325 . S
O247 Li185 1.961 . S
O247 Li186 1.970 . S
O247 Li187 1.956 1_545 S
O247 C222 1.325 . S
H248 C190 0.929 . S
H249 C191 0.930 . S
H250 C192 0.930 . S
H251 C193 0.930 . S
H252 C195 0.930 . S
H253 C197 0.929 . S
H254 C198 0.930 . S
H255 C199 0.930 . S
H256 C202 0.930 . S
H257 C205 0.929 . S
H258 C210 0.929 . S
H259 C211 0.930 . S
H260 C218 0.929 . S
H261 C219 0.930 . S
H262 C220 0.930 . S
H263 C221 0.930 . S
H264 C223 0.929 . S
H265 C224 0.930 . S
H266 C225 0.930 . S
H267 C226 0.930 . S
H268 C230 0.929 . S
H269 C232 0.930 . S
H270 C238 0.929 . S
H271 C239 0.930 . S
H272 C278 0.930 . S
H273 C281 0.930 . S
H274 C282 0.930 . S
H275 C283 0.930 . S
H276 C286 0.930 . S
H277 C287 0.930 . S
C278 H272 0.930 . S
C278 C279 1.355 1_565 S
C278 C280 1.415 . S
C279 C278 1.355 1_545 S
C279 C281 1.419 . S
C280 C278 1.415 . S
C280 C285 1.425 1_565 S
C280 C287 1.409 . S
C281 H273 0.930 . S
C281 C279 1.419 . S
C281 C282 1.362 . S
C282 H274 0.930 . S
C282 C281 1.362 . S
C282 C285 1.409 . S
C283 H275 0.930 . S
C283 C284 1.355 . S
C283 C285 1.415 . S
C284 C283 1.355 . S
C284 C286 1.419 1_545 S
C285 C280 1.425 1_545 S
C285 C282 1.409 . S
C285 C283 1.415 . S
C286 H276 0.930 . S
C286 C284 1.419 1_565 S
C286 C287 1.362 . S
C287 H277 0.930 . S
C287 C280 1.409 . S
C287 C286 1.362 . S
H288 C294 0.930 . S
H289 C297 0.930 . S
H290 C298 0.930 . S
H291 C299 0.930 . S
H292 C302 0.930 . S
H293 C303 0.930 . S
C294 H288 0.930 . S
C294 C295 1.355 1_655 S
C294 C296 1.415 . S
C295 C294 1.355 1_455 S
C295 C297 1.419 . S
C296 C294 1.415 . S
C296 C301 1.425 1_655 S
C296 C303 1.409 . S
C297 H289 0.930 . S
C297 C295 1.419 . S
C297 C298 1.362 . S
C298 H290 0.930 . S
C298 C297 1.362 . S
C298 C301 1.409 . S
C299 H291 0.930 . S
C299 C300 1.355 . S
C299 C301 1.415 . S
C300 C299 1.355 . S
C300 C302 1.419 1_455 S
C301 C296 1.425 1_455 S
C301 C298 1.409 . S
C301 C299 1.415 . S
C302 H292 0.930 . S
C302 C300 1.419 1_655 S
C302 C303 1.362 . S
C303 H293 0.930 . S
C303 C296 1.409 . S
C303 C302 1.362 . S
H304 C310 0.930 . S
H305 C313 0.930 . S
H306 C314 0.930 . S
H307 C315 0.930 . S
H308 C318 0.930 . S
H309 C319 0.930 . S
C310 H304 0.930 . S
C310 C311 1.355 . S
C310 C312 1.415 . S
C311 C310 1.355 . S
C311 C313 1.419 1_545 S
C312 C310 1.415 . S
C312 C317 1.425 1_545 S
C312 C319 1.409 . S
C313 H305 0.930 . S
C313 C311 1.419 1_565 S
C313 C314 1.362 . S
C314 H306 0.930 . S
C314 C313 1.362 . S
C314 C317 1.409 . S
C315 H307 0.930 . S
C315 C316 1.355 1_565 S
C315 C317 1.415 . S
C316 C315 1.355 1_545 S
C316 C318 1.419 . S
C317 C312 1.425 1_565 S
C317 C314 1.409 . S
C317 C315 1.415 . S
C318 H308 0.930 . S
C318 C316 1.419 . S
C318 C319 1.362 . S
C319 H309 0.930 . S
C319 C312 1.409 . S
C319 C318 1.362 . S
H320 C326 0.930 . S
H321 C329 0.930 . S
H322 C330 0.930 . S
H323 C331 0.930 . S
H324 C334 0.930 . S
H325 C335 0.930 . S
C326 H320 0.930 . S
C326 C327 1.355 1_655 S
C326 C328 1.415 . S
C327 C326 1.355 1_455 S
C327 C329 1.419 . S
C328 C326 1.415 . S
C328 C333 1.425 1_655 S
C328 C335 1.409 . S
C329 H321 0.930 . S
C329 C327 1.419 . S
C329 C330 1.362 . S
C330 H322 0.930 . S
C330 C329 1.362 . S
C330 C333 1.409 . S
C331 H323 0.930 . S
C331 C332 1.355 . S
C331 C333 1.415 . S
C332 C331 1.355 . S
C332 C334 1.419 1_455 S
C333 C328 1.425 1_455 S
C333 C330 1.409 . S
C333 C331 1.415 . S
C334 H324 0.930 . S
C334 C332 1.419 1_655 S
C334 C335 1.362 . S
C335 H325 0.930 . S
C335 C328 1.409 . S
C335 C334 1.362 . S
H336 C342 0.930 . S
H337 C345 0.930 . S
H338 C346 0.930 . S
H339 C347 0.929 1_565 S
H340 C350 0.930 . S
H341 C351 0.930 . S
C342 H336 0.930 . S
C342 C343 1.355 . S
C342 C344 1.415 . S
C343 C342 1.355 . S
C343 C345 1.419 1_545 S
C344 C342 1.415 . S
C344 C349 1.433 . S
C344 C351 1.409 . S
C345 H337 0.930 . S
C345 C343 1.419 1_565 S
C345 C346 1.362 . S
C346 H338 0.930 . S
C346 C345 1.362 . S
C346 C349 1.402 1_565 S
C347 H339 0.929 1_545 S
C347 C348 1.355 . S
C347 C349 1.414 . S
C348 C347 1.355 . S
C348 C350 1.419 . S
C349 C344 1.433 . S
C349 C346 1.402 1_545 S
C349 C347 1.414 . S
C350 H340 0.930 . S
C350 C348 1.419 . S
C350 C351 1.362 . S
C351 H341 0.930 . S
C351 C344 1.409 . S
C351 C350 1.362 . S
H352 C358 0.930 . S
H353 C361 0.930 . S
H354 C362 0.930 . S
H355 C363 0.930 . S
H356 C366 0.930 . S
H357 C367 0.930 . S
C358 H352 0.930 . S
C358 C359 1.355 1_655 S
C358 C360 1.415 . S
C359 C358 1.355 1_455 S
C359 C361 1.419 . S
C360 C358 1.415 . S
C360 C365 1.423 1_655 S
C360 C367 1.411 . S
C361 H353 0.930 . S
C361 C359 1.419 . S
C361 C362 1.362 . S
C362 H354 0.930 . S
C362 C361 1.362 . S
C362 C365 1.409 . S
C363 H355 0.930 . S
C363 C364 1.355 . S
C363 C365 1.415 . S
C364 C363 1.355 . S
C364 C366 1.419 1_455 S
C365 C360 1.423 1_455 S
C365 C362 1.409 . S
C365 C363 1.415 . S
C366 H356 0.930 . S
C366 C364 1.419 1_655 S
C366 C367 1.362 . S
C367 H357 0.930 . S
C367 C360 1.411 . S
C367 C366 1.362 . S
H368 C374 0.925 1_565 S
H369 C377 0.930 . S
H370 C378 0.930 . S
H371 C379 0.930 . S
H372 C382 0.930 . S
H373 C383 0.930 . S
C374 H368 0.925 1_545 S
C374 C375 1.359 . S
C374 C376 1.415 . S
C375 C374 1.359 . S
C375 C377 1.419 . S
C376 C374 1.415 . S
C376 C381 1.425 . S
C376 C383 1.409 1_545 S
C377 H369 0.930 . S
C377 C375 1.419 . S
C377 C378 1.362 . S
C378 H370 0.930 . S
C378 C377 1.362 . S
C378 C381 1.409 . S
C379 H371 0.930 . S
C379 C380 1.355 . S
C379 C381 1.415 . S
C380 C379 1.355 . S
C380 C382 1.419 1_545 S
C381 C376 1.425 . S
C381 C378 1.409 . S
C381 C379 1.415 . S
C382 H372 0.930 . S
C382 C380 1.419 1_565 S
C382 C383 1.362 . S
C383 H373 0.930 . S
C383 C376 1.409 1_565 S
C383 C382 1.362 . S
H384 C390 0.930 . S
H385 C393 0.930 . S
H386 C394 0.930 . S
H387 C395 0.930 . S
H388 C398 0.930 . S
H389 C399 0.930 . S
C390 H384 0.930 . S
C390 C391 1.355 . S
C390 C392 1.415 . S
C391 C390 1.355 . S
C391 C393 1.419 . S
C392 C390 1.415 . S
C392 C397 1.425 . S
C392 C399 1.409 . S
C393 H385 0.930 . S
C393 C391 1.419 . S
C393 C394 1.362 . S
C394 H386 0.930 . S
C394 C393 1.362 . S
C394 C397 1.409 . S
C395 H387 0.930 . S
C395 C396 1.355 . S
C395 C397 1.415 . S
C396 C395 1.355 . S
C396 C398 1.419 . S
C397 C392 1.425 . S
C397 C394 1.409 . S
C397 C395 1.415 . S
C398 H388 0.930 . S
C398 C396 1.419 . S
C398 C399 1.362 . S
C399 H389 0.930 . S
C399 C392 1.409 . S
C399 C398 1.362 . S
C284 C145 1.506 . S
C279 C45 1.505 . S
C300 C233 1.506 . S
C295 C78 1.511 . S
C316 C153 1.509 . S
C311 C21 1.501 . S
C332 C241 1.507 . S
C327 C84 1.503 . S
C348 C213 1.511 . S
C343 C36 1.512 . S
C364 C116 1.506 . S
C359 C69 1.502 . S
C380 C204 1.510 . S
C375 C30 1.495 . S
C391 C93 1.501 . S
C396 C125 1.505 . S
