# Generated by pormake.
# Topology zzz, (3,6)-cn, num edge types: 1
# Building blocks:
#     Node 0, Type 0, BuildingBlock: MIDCAF_clean_linker_0, # of connection points: 3
#     Node 1, Type 0, BuildingBlock: MIDCAF_clean_linker_0, # of connection points: 3
#     Node 2, Type 0, BuildingBlock: MIDCAF_clean_linker_0, # of connection points: 3
#     Node 3, Type 0, BuildingBlock: MIDCAF_clean_linker_0, # of connection points: 3
#     Node 4, Type 0, BuildingBlock: MIDCAF_clean_linker_0, # of connection points: 3
#     Node 5, Type 0, BuildingBlock: MIDCAF_clean_linker_0, # of connection points: 3
#     Node 6, Type 0, BuildingBlock: MIDCAF_clean_linker_0, # of connection points: 3
#     Node 7, Type 0, BuildingBlock: MIDCAF_clean_linker_0, # of connection points: 3
#     Node 8, Type 1, BuildingBlock: PAMTUU_clean_sbu_0, # of connection points: 6
#     Node 9, Type 1, BuildingBlock: PAMTUU_clean_sbu_0, # of connection points: 6
#     Node 10, Type 1, BuildingBlock: PAMTUU_clean_sbu_0, # of connection points: 6
#     Node 11, Type 1, BuildingBlock: PAMTUU_clean_sbu_0, # of connection points: 6
#     Edge 12, Type (0, 1), BuildingBlock: ZUJKAS_clean_linker_0, # of connection points: 2
#     Edge 13, Type (0, 1), BuildingBlock: ZUJKAS_clean_linker_0, # of connection points: 2
#     Edge 14, Type (0, 1), BuildingBlock: ZUJKAS_clean_linker_0, # of connection points: 2
#     Edge 15, Type (0, 1), BuildingBlock: ZUJKAS_clean_linker_0, # of connection points: 2
#     Edge 16, Type (0, 1), BuildingBlock: ZUJKAS_clean_linker_0, # of connection points: 2
#     Edge 17, Type (0, 1), BuildingBlock: ZUJKAS_clean_linker_0, # of connection points: 2
#     Edge 18, Type (0, 1), BuildingBlock: ZUJKAS_clean_linker_0, # of connection points: 2
#     Edge 19, Type (0, 1), BuildingBlock: ZUJKAS_clean_linker_0, # of connection points: 2
#     Edge 20, Type (0, 1), BuildingBlock: ZUJKAS_clean_linker_0, # of connection points: 2
#     Edge 21, Type (0, 1), BuildingBlock: ZUJKAS_clean_linker_0, # of connection points: 2
#     Edge 22, Type (0, 1), BuildingBlock: ZUJKAS_clean_linker_0, # of connection points: 2
#     Edge 23, Type (0, 1), BuildingBlock: ZUJKAS_clean_linker_0, # of connection points: 2
#     Edge 24, Type (0, 1), BuildingBlock: ZUJKAS_clean_linker_0, # of connection points: 2
#     Edge 25, Type (0, 1), BuildingBlock: ZUJKAS_clean_linker_0, # of connection points: 2
#     Edge 26, Type (0, 1), BuildingBlock: ZUJKAS_clean_linker_0, # of connection points: 2
#     Edge 27, Type (0, 1), BuildingBlock: ZUJKAS_clean_linker_0, # of connection points: 2
#     Edge 28, Type (0, 1), BuildingBlock: ZUJKAS_clean_linker_0, # of connection points: 2
#     Edge 29, Type (0, 1), BuildingBlock: ZUJKAS_clean_linker_0, # of connection points: 2
#     Edge 30, Type (0, 1), BuildingBlock: ZUJKAS_clean_linker_0, # of connection points: 2
#     Edge 31, Type (0, 1), BuildingBlock: ZUJKAS_clean_linker_0, # of connection points: 2
#     Edge 32, Type (0, 1), BuildingBlock: ZUJKAS_clean_linker_0, # of connection points: 2
#     Edge 33, Type (0, 1), BuildingBlock: ZUJKAS_clean_linker_0, # of connection points: 2
#     Edge 34, Type (0, 1), BuildingBlock: ZUJKAS_clean_linker_0, # of connection points: 2
#     Edge 35, Type (0, 1), BuildingBlock: ZUJKAS_clean_linker_0, # of connection points: 2
# Relax obj value: 0.360
# Max RMSD: 0.261
# Mean RMSD: 0.221
data_MOF--net-zzz--node1-PAMTUU_clean_sbu_0--node2-MIDCAF_clean_linker_0--edge1-ZUJKAS_clean_linker_0
_symmetry_space_group_name_H-M    P1
_symmetry_Int_Tables_number       1
_symmetry_cell_setting            triclinic
loop_
_symmetry_equiv_pos_as_xyz
'x, y, z'
_cell_length_a     72.131289
_cell_length_b     75.717945
_cell_length_c     25.723587
_cell_angle_alpha  97.573254
_cell_angle_beta   90.505017
_cell_angle_gamma 90.943282
loop_
_atom_site_label
_atom_site_type_symbol
_atom_site_fract_x
_atom_site_fract_y
_atom_site_fract_z
_atom_type_partial_charge
C0 C 0.79161 0.50665 0.43738 0.0
C1 C 0.79872 0.49228 0.4606 0.0
C2 C 0.78976 0.47555 0.44972 0.0
C3 C 0.77524 0.47284 0.41305 0.0
H4 H 0.7174 0.51456 0.28356 0.0
H5 H 0.68824 0.52113 0.24018 0.0
H6 H 0.67722 0.46468 0.20044 0.0
H7 H 0.70603 0.45833 0.24348 0.0
H8 H 0.74953 0.45636 0.14804 0.0
H9 H 0.76893 0.44377 0.07564 0.0
H10 H 0.81495 0.4421 0.18322 0.0
H11 H 0.7958 0.45477 0.25548 0.0
H12 H 0.77287 0.51478 0.37969 0.0
H13 H 0.79822 0.51969 0.44472 0.0
H14 H 0.79463 0.46427 0.46754 0.0
H15 H 0.76965 0.45946 0.40245 0.0
N16 N 0.74151 0.48725 0.32717 0.0
N17 N 0.74269 0.47143 0.24194 0.0
N18 N 0.7684 0.47195 0.29766 0.0
C19 C 0.73315 0.4816 0.27975 0.0
C20 C 0.76035 0.46667 0.25036 0.0
C21 C 0.75924 0.48213 0.33612 0.0
C22 C 0.71384 0.48594 0.26723 0.0
C23 C 0.70834 0.50364 0.26717 0.0
C24 C 0.69178 0.50736 0.2417 0.0
C25 C 0.68039 0.49343 0.21642 0.0
C26 C 0.68543 0.47577 0.21985 0.0
C27 C 0.70198 0.4721 0.24456 0.0
C28 C 0.77118 0.45687 0.20754 0.0
C29 C 0.76371 0.45309 0.15646 0.0
C30 C 0.77478 0.4458 0.11496 0.0
C31 C 0.79349 0.4422 0.12379 0.0
C32 C 0.80064 0.44505 0.17521 0.0
C33 C 0.78962 0.45228 0.21662 0.0
C34 C 0.76914 0.48681 0.38669 0.0
C35 C 0.77697 0.50391 0.40049 0.0
C36 C 0.94609 0.7857 0.43964 0.0
C37 C 0.96263 0.78699 0.4693 0.0
C38 C 0.9756 0.77326 0.4596 0.0
C39 C 0.97277 0.75938 0.41831 0.0
H40 H 0.95233 0.69196 0.30108 0.0
H41 H 0.96048 0.66219 0.25774 0.0
H42 H 1.0029 0.68609 0.17069 0.0
H43 H 0.99444 0.71551 0.21272 0.0
H44 H 0.96134 0.73965 0.1376 0.0
H45 H 0.96506 0.7593 0.07058 0.0
H46 H 0.94671 0.80366 0.17992 0.0
H47 H 0.94262 0.78409 0.24647 0.0
H48 H 0.93114 0.77218 0.37352 0.0
H49 H 0.93585 0.79605 0.44564 0.0
H50 H 0.98839 0.77376 0.48218 0.0
H51 H 0.98361 0.74976 0.40921 0.0
N52 N 0.96336 0.73179 0.32366 0.0
N53 N 0.96053 0.73286 0.23287 0.0
N54 N 0.9522 0.75741 0.29186 0.0
C55 C 0.96492 0.72377 0.2732 0.0
C56 C 0.95406 0.74964 0.24175 0.0
C57 C 0.95674 0.7487 0.33293 0.0
C58 C 0.97277 0.70592 0.26004 0.0
C59 C 0.96378 0.69067 0.27398 0.0
C60 C 0.9684 0.67369 0.249 0.0
C61 C 0.98205 0.67185 0.20989 0.0
C62 C 0.99202 0.68709 0.19963 0.0
C63 C 0.98733 0.70391 0.22409 0.0
C64 C 0.95212 0.76037 0.19793 0.0
C65 C 0.95763 0.7535 0.14703 0.0
C66 C 0.95984 0.76476 0.10859 0.0
C67 C 0.95652 0.78308 0.12025 0.0
C68 C 0.94934 0.7896 0.16954 0.0
C69 C 0.94713 0.77836 0.20795 0.0
C70 C 0.95702 0.75914 0.38572 0.0
C71 C 0.94338 0.772 0.3982 0.0
C72 C 0.73843 0.96903 0.42292 0.0
C73 C 0.73415 0.98554 0.4518 0.0
C74 C 0.74605 0.00024 0.44722 0.0
C75 C 0.76127 -0.00139 0.41294 0.0
H76 H 0.83456 0.96249 0.29511 0.0
H77 H 0.8637 0.96564 0.24914 0.0
H78 H 0.84951 0.01948 0.22846 0.0
H79 H 0.82068 0.01628 0.27544 0.0
H80 H 0.795 0.97304 0.14675 0.0
H81 H 0.7797 0.97546 0.06344 0.0
H82 H 0.72637 0.97384 0.13788 0.0
H83 H 0.74155 0.97134 0.22121 0.0
H84 H 0.75549 0.95485 0.36421 0.0
H85 H 0.72956 0.95745 0.42469 0.0
H86 H 0.7433 0.01314 0.46905 0.0
H87 H 0.76952 0.01035 0.4081 0.0
N88 N 0.79551 0.98588 0.3382 0.0
N89 N 0.797 0.97962 0.24623 0.0
N90 N 0.76883 0.97626 0.28778 0.0
C91 C 0.80556 0.9847 0.29285 0.0
C92 C 0.77874 0.97542 0.24306 0.0
C93 C 0.77696 0.98135 0.33539 0.0
C94 C 0.82552 0.9893 0.29027 0.0
C95 C 0.83823 0.97534 0.28352 0.0
C96 C 0.85474 0.97703 0.25587 0.0
C97 C 0.8589 0.99269 0.23375 0.0
C98 C 0.84698 0.00723 0.24493 0.0
C99 C 0.83049 0.00551 0.27264 0.0
C100 C 0.76949 0.97248 0.19105 0.0
C101 C 0.77999 0.97278 0.14526 0.0
C102 C 0.77127 0.97417 0.09743 0.0
C103 C 0.7519 0.97513 0.0944 0.0
C104 C 0.74135 0.97306 0.13898 0.0
C105 C 0.75006 0.97174 0.1869 0.0
C106 C 0.76478 0.9823 0.38205 0.0
C107 C 0.75338 0.9675 0.38827 0.0
C108 C 0.57302 0.70136 0.97705 0.0
C109 C 0.55833 0.70432 0.94325 0.0
C110 C 0.55016 0.72115 0.94817 0.0
C111 C 0.55591 0.73449 0.98811 0.0
H112 H 0.53884 0.78545 0.0882 0.0
H113 H 0.5337 0.8149 0.06314 0.0
H114 H 0.58932 0.83109 0.11504 0.0
H115 H 0.59401 0.80163 0.14239 0.0
H116 H 0.56051 0.75093 0.25267 0.0
H117 H 0.56106 0.7296 0.31636 0.0
H118 H 0.60971 0.70562 0.24195 0.0
H119 H 0.6085 0.72639 0.17735 0.0
H120 H 0.58931 0.7116 0.04448 0.0
H121 H 0.57946 0.68845 0.9744 0.0
H122 H 0.53884 0.72374 0.92241 0.0
H123 H 0.5488 0.74709 0.99248 0.0
N124 N 0.56917 0.76115 0.07377 0.0
N125 N 0.57653 0.7662 0.16405 0.0
N126 N 0.57903 0.73759 0.11659 0.0
C127 C 0.57107 0.77251 0.11904 0.0
C128 C 0.58057 0.74858 0.16256 0.0
C129 C 0.57329 0.74372 0.07216 0.0
C130 C 0.56675 0.79138 0.11748 0.0
C131 C 0.54971 0.79554 0.09585 0.0
C132 C 0.54691 0.81234 0.08077 0.0
C133 C 0.56126 0.82528 0.08568 0.0
C134 C 0.57793 0.8215 0.11072 0.0
C135 C 0.58063 0.80467 0.12664 0.0
C136 C 0.58448 0.7403 0.21026 0.0
C137 C 0.57169 0.74151 0.25133 0.0
C138 C 0.57198 0.72918 0.28762 0.0
C139 C 0.58516 0.71553 0.28362 0.0
C140 C 0.599 0.71555 0.24537 0.0
C141 C 0.59852 0.72764 0.20882 0.0
C142 C 0.56968 0.73106 0.02432 0.0
C143 C 0.57856 0.71457 0.01742 0.0
C144 C 0.23874 0.51584 0.03606 0.0
C145 C 0.23518 0.49951 0.00445 0.0
C146 C 0.24703 0.48516 0.00975 0.0
C147 C 0.26137 0.4869 0.04772 0.0
H148 H 0.31917 0.46946 0.17992 0.0
H149 H 0.349 0.46498 0.22222 0.0
H150 H 0.35954 0.52183 0.24132 0.0
H151 H 0.3301 0.52602 0.1981 0.0
H152 H 0.29014 0.52118 0.32113 0.0
H153 H 0.27337 0.53017 0.40224 0.0
H154 H 0.22154 0.52445 0.31588 0.0
H155 H 0.23808 0.51543 0.23516 0.0
H156 H 0.25442 0.52997 0.09976 0.0
H157 H 0.22988 0.52713 0.03392 0.0
H158 H 0.24483 0.47243 0.98576 0.0
H159 H 0.26954 0.47539 0.0531 0.0
N160 N 0.29336 0.4995 0.13196 0.0
N161 N 0.29353 0.50753 0.22375 0.0
N162 N 0.26631 0.50985 0.17583 0.0
C163 C 0.30262 0.50152 0.17917 0.0
C164 C 0.27537 0.51157 0.22254 0.0
C165 C 0.27503 0.50389 0.13053 0.0
C166 C 0.32256 0.49804 0.18466 0.0
C167 C 0.32837 0.48083 0.19076 0.0
C168 C 0.3453 0.47835 0.21603 0.0
C169 C 0.35666 0.49306 0.23615 0.0
C170 C 0.35139 0.51012 0.22608 0.0
C171 C 0.33453 0.51256 0.20089 0.0
C172 C 0.26545 0.51752 0.27161 0.0
C173 C 0.27517 0.52184 0.31943 0.0
C174 C 0.26561 0.52704 0.36584 0.0
C175 C 0.24619 0.52782 0.36529 0.0
C176 C 0.23652 0.52367 0.31751 0.0
C177 C 0.24603 0.51863 0.27119 0.0
C178 C 0.26399 0.50295 0.08132 0.0
C179 C 0.25286 0.51749 0.07399 0.0
C180 C 0.08671 0.21284 0.03183 0.0
C181 C 0.06915 0.21115 0.00744 0.0
C182 C 0.05575 0.22403 0.02335 0.0
C183 C 0.05937 0.23743 0.06551 0.0
H184 H 0.0779 0.30228 0.16727 0.0
H185 H 0.07222 0.33291 0.20869 0.0
H186 H 0.0458 0.31201 0.33829 0.0
H187 H 0.05176 0.28188 0.29797 0.0
H188 H 0.07307 0.25024 0.33908 0.0
H189 H 0.07243 0.22853 0.40053 0.0
H190 H 0.10025 0.19082 0.28792 0.0
H191 H 0.10029 0.21236 0.22551 0.0
H192 H 0.10337 0.22605 0.09497 0.0
H193 H 0.09731 0.20311 0.02096 0.0
H194 H 0.04214 0.22318 0.00497 0.0
H195 H 0.04835 0.24632 0.07952 0.0
N196 N 0.07205 0.26439 0.16034 0.0
N197 N 0.07719 0.26138 0.24923 0.0
N198 N 0.08349 0.23769 0.18477 0.0
C199 C 0.07192 0.27149 0.21201 0.0
C200 C 0.08307 0.24454 0.23603 0.0
C201 C 0.07803 0.24738 0.14678 0.0
C202 C 0.0655 0.28974 0.22977 0.0
C203 C 0.07054 0.30434 0.20404 0.0
C204 C 0.06734 0.32183 0.22782 0.0
C205 C 0.05899 0.32489 0.27747 0.0
C206 C 0.05277 0.31016 0.30089 0.0
C207 C 0.05608 0.29287 0.27756 0.0
C208 C 0.08637 0.2329 0.27693 0.0
C209 C 0.07942 0.23747 0.32772 0.0
C210 C 0.07914 0.22501 0.3632 0.0
C211 C 0.08598 0.2078 0.34882 0.0
C212 C 0.09442 0.20381 0.2997 0.0
C213 C 0.09452 0.21619 0.26401 0.0
C214 C 0.07636 0.23799 0.09282 0.0
C215 C 0.09022 0.22602 0.07425 0.0
C216 C 0.29579 0.98729 0.04618 0.0
C217 C 0.30221 0.0013 0.01942 0.0
C218 C 0.29178 0.01701 0.02392 0.0
C219 C 0.27645 0.01919 0.05716 0.0
H220 H 0.22351 0.9767 0.21842 0.0
H221 H 0.19601 0.97088 0.26913 0.0
H222 H 0.1715 0.01897 0.22872 0.0
H223 H 0.19893 0.02455 0.17794 0.0
H224 H 0.24329 0.03369 0.31722 0.0
H225 H 0.26163 0.04134 0.3971 0.0
H226 H 0.3102 0.04815 0.30426 0.0
H227 H 0.29198 0.04073 0.22457 0.0
H228 H 0.27657 0.97894 0.10218 0.0
H229 H 0.30342 0.97503 0.04436 0.0
H230 H 0.29585 0.02798 0.00319 0.0
H231 H 0.26963 0.03193 0.06252 0.0
N232 N 0.24155 0.00306 0.13766 0.0
N233 N 0.23961 0.01942 0.22189 0.0
N234 N 0.26636 0.02169 0.17278 0.0
C235 C 0.23176 0.00804 0.18255 0.0
C236 C 0.25687 0.02627 0.21762 0.0
C237 C 0.25892 0.01027 0.13263 0.0
C238 C 0.21316 0.0008 0.19292 0.0
C239 C 0.21181 0.98548 0.21814 0.0
C240 C 0.19619 0.98238 0.24817 0.0
C241 C 0.18156 0.99459 0.25389 0.0
C242 C 0.18233 0.00916 0.22507 0.0
C243 C 0.198 0.01229 0.19537 0.0
C244 C 0.26633 0.03598 0.26441 0.0
C245 C 0.25776 0.03737 0.31371 0.0
C246 C 0.26823 0.04176 0.35961 0.0
C247 C 0.2874 0.04495 0.35697 0.0
C248 C 0.29544 0.04577 0.30772 0.0
C249 C 0.285 0.04133 0.26185 0.0
C250 C 0.27075 0.0056 0.08605 0.0
C251 C 0.28027 0.98943 0.07914 0.0
C252 C 0.47126 0.30156 0.52205 0.0
C253 C 0.47781 0.29596 0.56878 0.0
C254 C 0.47921 0.27763 0.57152 0.0
C255 C 0.47523 0.26523 0.52749 0.0
H256 H 0.49487 0.21722 0.45961 0.0
H257 H 0.49738 0.1872 0.48174 0.0
H258 H 0.4611 0.16757 0.35181 0.0
H259 H 0.45865 0.19807 0.32906 0.0
H260 H 0.48443 0.24431 0.24636 0.0
H261 H 0.48488 0.26178 0.17225 0.0
H262 H 0.4426 0.29574 0.24686 0.0
H263 H 0.4422 0.27844 0.31998 0.0
H264 H 0.46303 0.29405 0.44222 0.0
H265 H 0.47022 0.3156 0.51832 0.0
H266 H 0.48399 0.27291 0.60717 0.0
H267 H 0.47714 0.25121 0.53047 0.0
N268 N 0.472 0.24067 0.4323 0.0
N269 N 0.46921 0.23478 0.3404 0.0
N270 N 0.46519 0.26379 0.3842 0.0
C271 C 0.47232 0.22891 0.38769 0.0
C272 C 0.46555 0.25239 0.33878 0.0
C273 C 0.46841 0.25808 0.43106 0.0
C274 C 0.47633 0.21007 0.39297 0.0
C275 C 0.48757 0.20651 0.43516 0.0
C276 C 0.48895 0.1893 0.44811 0.0
C277 C 0.47907 0.17507 0.4194 0.0
C278 C 0.46881 0.1783 0.37482 0.0
C279 C 0.46745 0.19572 0.36164 0.0
C280 C 0.46326 0.25999 0.2889 0.0
C281 C 0.47488 0.25519 0.24597 0.0
C282 C 0.47528 0.26533 0.20392 0.0
C283 C 0.46385 0.28025 0.20369 0.0
C284 C 0.45147 0.28428 0.2453 0.0
C285 C 0.45127 0.27437 0.28738 0.0
C286 C 0.46982 0.2709 0.47974 0.0
C287 C 0.46729 0.28918 0.47806 0.0
Tb288 Tb 1.0029 0.00663 0.7034 0.0
Tb289 Tb 0.03355 0.99071 0.77759 0.0
C290 C 0.99279 -0.00263 0.8159 0.0
C291 C 0.98819 0.03634 0.61524 0.0
C292 C 1.00364 0.06701 0.58058 0.0
C293 C 0.985 0.06672 0.59607 0.0
C294 C 0.97735 0.05147 0.61365 0.0
C295 C 1.00644 0.03633 0.5967 0.0
C296 C 0.01407 0.05149 0.57944 0.0
C297 C 0.9822 0.02224 0.64584 0.0
O298 O 0.02326 0.02775 0.7259 0.0
O299 O 0.03312 0.01932 0.80336 0.0
O300 O 0.04977 -0.00052 0.71418 0.0
O301 O 0.02628 -0.00203 0.653 0.0
O302 O 0.0443 0.98916 0.85302 0.0
O303 O 0.05586 0.9737 0.78513 0.0
O304 O 0.02253 0.96853 0.72297 0.0
O305 O 0.99409 0.97898 0.7025 0.0
O306 O 0.99077 0.00867 0.78167 0.0
O307 O 1.00671 0.98635 0.81261 0.0
C308 C 0.03077 0.03166 0.77263 0.0
O309 O 0.9888 0.00641 0.63135 0.0
O310 O 0.98373 0.02675 0.69634 0.0
C311 C 0.04408 -0.00139 0.66513 0.0
C312 C 0.04977 0.95921 0.85793 0.0
C313 C 0.03803 0.92921 0.90327 0.0
C314 C 0.05517 0.93764 0.91808 0.0
C315 C 0.06098 0.95269 0.89565 0.0
C316 C 0.03298 0.95043 0.84218 0.0
C317 C 0.02718 0.9356 0.86452 0.0
C318 C 0.0545 0.97561 0.83605 0.0
C319 C 1.00549 0.96576 0.7049 0.0
H320 H 0.9767 0.07856 0.59733 0.0
H321 H 0.96336 0.05185 0.62874 0.0
H322 H 0.01522 0.02496 0.59831 0.0
H323 H 0.02837 0.05126 0.56687 0.0
H324 H 0.06374 0.93291 0.94797 0.0
H325 H 0.07395 0.95937 0.9083 0.0
H326 H 0.02414 0.95524 0.81312 0.0
H327 H 0.01408 0.92918 0.85173 0.0
Tb328 Tb 0.51035 0.97974 0.68524 0.0
Tb329 Tb 0.52497 0.01047 0.77708 0.0
C330 C 0.52858 0.96991 0.78867 0.0
C331 C 0.47928 0.9614 0.58248 0.0
C332 C 0.44418 0.97263 0.55364 0.0
C333 C 0.44626 0.95554 0.56828 0.0
C334 C 0.46375 0.94998 0.58282 0.0
C335 C 0.47733 0.97782 0.56333 0.0
C336 C 0.45995 0.98337 0.54907 0.0
C337 C 0.49599 0.95823 0.6129 0.0
O338 O 0.48547 0.99147 0.7228 0.0
O339 O 0.49767 0.00263 0.80326 0.0
O340 O 0.50686 0.02398 0.72777 0.0
O341 O 0.51079 0.00488 0.65242 0.0
O342 O 0.53115 0.01951 0.85624 0.0
O343 O 0.53663 0.03613 0.79614 0.0
O344 O 0.54639 0.00706 0.71696 0.0
O345 O 0.54057 0.97821 0.68152 0.0
O346 O 0.51571 0.96596 0.75248 0.0
O347 O 0.53665 0.98572 0.79617 0.0
C348 C 0.48334 0.99711 0.77302 0.0
O349 O 0.51054 0.96813 0.60633 0.0
O350 O 0.49294 0.95752 0.66242 0.0
C351 C 0.50623 0.02057 0.67645 0.0
C352 C 0.5601 0.03365 0.8569 0.0
C353 C 0.5983 0.0327 0.87761 0.0
C354 C 0.58771 0.0469 0.90169 0.0
C355 C 0.56859 0.04737 0.89135 0.0
C356 C 0.57082 0.01978 0.83227 0.0
C357 C 0.58969 0.01936 0.84218 0.0
C358 C 0.54028 0.03337 0.84407 0.0
C359 C 0.55188 0.99212 0.69011 0.0
H360 H 0.43426 0.94702 0.57188 0.0
H361 H 0.4649 0.93735 0.59798 0.0
H362 H 0.48898 0.987 0.56278 0.0
H363 H 0.45871 0.99646 0.53684 0.0
H364 H 0.59411 0.05733 0.92922 0.0
H365 H 0.56049 0.05825 0.91031 0.0
H366 H 0.56458 0.00915 0.80528 0.0
H367 H 0.59755 0.00846 0.82225 0.0
Tb368 Tb 0.50246 0.48754 0.76613 0.0
Tb369 Tb 0.53491 0.50153 0.68962 0.0
C370 C 0.49385 0.49262 0.64958 0.0
C371 C 0.47871 0.45809 0.84976 0.0
C372 C 0.47723 0.42672 0.89882 0.0
C373 C 0.46394 0.4401 0.90981 0.0
C374 C 0.46467 0.45559 0.88549 0.0
C375 C 0.49211 0.4449 0.8388 0.0
C376 C 0.49138 0.42936 0.86303 0.0
C377 C 0.47912 0.47435 0.82374 0.0
O378 O 0.51358 0.46463 0.71792 0.0
O379 O 0.54286 0.47471 0.70063 0.0
O380 O 0.54515 0.50647 0.77061 0.0
O381 O 0.52886 0.48473 0.80547 0.0
O382 O 0.5481 0.50087 0.61648 0.0
O383 O 0.55693 0.51945 0.68301 0.0
O384 O 0.51515 0.52263 0.70569 0.0
O385 O 0.50447 0.51646 0.78512 0.0
O386 O 0.48789 0.49525 0.69818 0.0
O387 O 0.51164 0.49095 0.63922 0.0
C388 C 0.53097 0.46179 0.70575 0.0
O389 O 0.47856 0.4718 0.77266 0.0
O390 O 0.49146 0.4865 0.84126 0.0
C391 C 0.54287 0.49609 0.80731 0.0
C392 C 0.55887 0.52945 0.60076 0.0
C393 C 0.56122 0.55981 0.54759 0.0
C394 C 0.57578 0.54758 0.54512 0.0
C395 C 0.57463 0.53259 0.57162 0.0
C396 C 0.54407 0.54131 0.60219 0.0
C397 C 0.54525 0.55638 0.57602 0.0
C398 C 0.55863 0.51468 0.63283 0.0
C399 C 0.50783 0.52777 0.7515 0.0
H400 H 0.45305 0.43872 0.93776 0.0
H401 H 0.45425 0.46563 0.89462 0.0
H402 H 0.50307 0.44657 0.81123 0.0
H403 H 0.50174 0.41931 0.85312 0.0
H404 H 0.58834 0.54988 0.52409 0.0
H405 H 0.58625 0.52366 0.57038 0.0
H406 H 0.53177 0.53909 0.62441 0.0
H407 H 0.53369 0.56538 0.57821 0.0
Tb408 Tb 0.02228 0.51606 0.70307 0.0
Tb409 Tb 0.01101 0.48314 0.76728 0.0
C410 C 0.00933 0.52232 0.8178 0.0
C411 C 0.05074 0.54886 0.64344 0.0
C412 C 0.08737 0.55913 0.62243 0.0
C413 C 0.07805 0.56771 0.66606 0.0
C414 C 0.05986 0.56271 0.67627 0.0
C415 C 0.05981 0.54082 0.59854 0.0
C416 C 0.07794 0.5459 0.58819 0.0
C417 C 0.03241 0.54221 0.6582 0.0
O418 O 0.04681 0.51217 0.75044 0.0
O419 O 0.04123 0.48382 0.77053 0.0
O420 O 0.01144 0.47311 0.68413 0.0
O421 O 0.03361 0.4921 0.65975 0.0
O422 O 0.99889 0.47443 0.83326 0.0
O423 O 0.01043 0.45562 0.77241 0.0
O424 O 0.98471 0.49355 0.74265 0.0
O425 O 0.99464 0.50767 0.67382 0.0
O426 O 1.00592 0.5262 0.77058 0.0
O427 O 0.01596 0.50673 0.82406 0.0
C428 C 0.05243 0.4976 0.76822 0.0
O429 O 0.02644 0.52704 0.63308 0.0
O430 O 0.02951 0.54315 0.70841 0.0
C431 C 0.02449 0.47683 0.65182 0.0
C432 C 0.98333 0.44705 0.81358 0.0
C433 C 0.949 0.42968 0.82378 0.0
C434 C 0.9653 0.42344 0.84523 0.0
C435 C 0.98232 0.43215 0.84039 0.0
C436 C 0.96739 0.4526 0.78915 0.0
C437 C 0.95036 0.44405 0.79436 0.0
C438 C 1.00055 0.45767 0.81485 0.0
C439 C 0.98131 0.50074 0.69973 0.0
H440 H 0.08492 0.57811 0.69269 0.0
H441 H 0.05313 0.56933 0.71079 0.0
H442 H 0.05315 0.5302 0.57222 0.0
H443 H 0.08484 0.53893 0.55447 0.0
H444 H 0.96481 0.41222 0.86731 0.0
H445 H 0.99455 0.42763 0.85914 0.0
H446 H 0.96795 0.46406 0.76807 0.0
H447 H 0.93814 0.44939 0.77784 0.0
H448 H 0.14414 0.00125 0.24593 0.0
H449 H 0.12061 0.00156 0.31443 0.0
H450 H 0.16156 0.98545 0.42082 0.0
H451 H 0.18516 0.98534 0.35314 0.0
H452 H 0.10859 0.97336 0.37496 0.0
H453 H 0.13978 0.03171 0.50082 0.0
H454 H 0.14551 0.02622 0.43246 0.0
H455 H 0.1554 0.01391 0.48067 0.0
C456 C 0.14816 -0.00226 0.28386 0.0
C457 C 0.16664 0.99327 0.29372 0.0
C458 C 0.13465 -0.00213 0.32299 0.0
C459 C 0.13933 0.99377 0.37316 0.0
C460 C 0.15762 0.9889 0.38274 0.0
H461 H 0.08195 0.9952 0.67158 0.0
H462 H 0.10447 0.99364 0.60049 0.0
C463 C 0.17109 0.98864 0.34361 0.0
C464 C 0.12519 0.99476 0.41568 0.0
H465 H 0.11481 0.01683 0.53646 0.0
C466 C 0.10989 0.98292 0.41018 0.0
C467 C 0.12689 0.00716 0.46185 0.0
C468 C 0.14268 0.02059 0.46941 0.0
C469 C 0.09653 0.98286 0.44992 0.0
C470 C 0.09815 0.99535 0.49611 0.0
C471 C 0.11346 0.00723 0.50136 0.0
C472 C 0.08424 0.99629 0.53946 0.0
C473 C 0.08114 0.96899 0.44258 0.0
C474 C 0.06529 -0.00139 0.52955 0.0
C475 C 0.05233 -0.00065 0.57016 0.0
C476 C 0.05798 -0.0019 0.62212 0.0
C477 C 0.07702 0.99619 0.63221 0.0
C478 C 0.08996 0.9953 0.59145 0.0
H479 H 0.08498 0.95733 0.41409 0.0
H480 H 0.07752 0.96422 0.48029 0.0
H481 H 0.06863 0.9749 0.42694 0.0
H482 H 0.06047 -3e-05 0.49033 0.0
H483 H 0.03785 0.00098 0.56072 0.0
H484 H 0.48343 0.14179 0.36328 0.0
H485 H 0.48499 0.1131 0.39828 0.0
H486 H 0.47601 0.13999 0.55421 0.0
H487 H 0.47412 0.16838 0.5197 0.0
H488 H 0.51054 0.1042 0.47347 0.0
H489 H 0.43887 0.09854 0.54517 0.0
H490 H 0.4453 0.11362 0.49925 0.0
H491 H 0.44966 0.11966 0.56836 0.0
C492 C 0.4815 0.14149 0.40485 0.0
C493 C 0.47878 0.15737 0.43874 0.0
C494 C 0.48246 0.12513 0.42483 0.0
C495 C 0.48039 0.12436 0.47882 0.0
C496 C 0.47731 0.14016 0.51236 0.0
H497 H 0.49621 0.05479 0.71192 0.0
H498 H 0.48928 0.07871 0.65981 0.0
C499 C 0.47645 0.15644 0.49259 0.0
C500 C 0.48258 0.10736 0.50125 0.0
H501 H 0.46158 0.08059 0.58122 0.0
C502 C 0.49974 0.09884 0.49627 0.0
C503 C 0.4685 0.10042 0.5312 0.0
C504 C 0.44949 0.10843 0.53594 0.0
C505 C 0.50348 0.08408 0.52244 0.0
C506 C 0.48959 0.0775 0.55377 0.0
C507 C 0.47225 0.08569 0.55743 0.0
C508 C 0.49308 0.06263 0.58483 0.0
C509 C 0.52256 0.07615 0.51825 0.0
C510 C 0.49716 0.04552 0.56 0.0
C511 C 0.50113 0.03179 0.5897 0.0
C512 C 0.50105 0.03487 0.6449 0.0
C513 C 0.49648 0.05193 0.66957 0.0
C514 C 0.49249 0.06563 0.63982 0.0
H515 H 0.53276 0.08503 0.50189 0.0
H516 H 0.52766 0.07346 0.55725 0.0
H517 H 0.52188 0.06331 0.49193 0.0
H518 H 0.49736 0.0428 0.51761 0.0
H519 H 0.50448 0.01882 0.56929 0.0
H520 H 0.35924 0.47061 0.3115 0.0
H521 H 0.38363 0.46976 0.37753 0.0
H522 H 0.41448 0.51048 0.31152 0.0
H523 H 0.3903 0.51122 0.24448 0.0
H524 H 0.42238 0.46348 0.37038 0.0
H525 H 0.40758 0.5318 0.46647 0.0
H526 H 0.39189 0.51946 0.41947 0.0
H527 H 0.41233 0.53003 0.39753 0.0
C528 C 0.37137 0.47912 0.31005 0.0
C529 C 0.37265 0.49105 0.27244 0.0
C530 C 0.38527 0.47871 0.34826 0.0
C531 C 0.40074 0.49028 0.35018 0.0
C532 C 0.40249 0.50168 0.31156 0.0
H533 H 0.50073 0.48664 0.54391 0.0
H534 H 0.4785 0.4858 0.47124 0.0
C535 C 0.38862 0.50208 0.27318 0.0
C536 C 0.41472 0.49071 0.39348 0.0
H537 H 0.43307 0.5174 0.49981 0.0
C538 C 0.42476 0.47528 0.3986 0.0
C539 C 0.41764 0.50603 0.43082 0.0
C540 C 0.40671 0.52275 0.42882 0.0
C541 C 0.43776 0.47482 0.4396 0.0
C542 C 0.44093 0.49025 0.47635 0.0
C543 C 0.43075 0.50561 0.4715 0.0
C544 C 0.45451 0.49065 0.52063 0.0
C545 C 0.44769 0.45769 0.44391 0.0
C546 C 0.44855 0.49401 0.5728 0.0
C547 C 0.46126 0.49454 0.6146 0.0
C548 C 0.48027 0.49187 0.6052 0.0
C549 C 0.48621 0.48866 0.55282 0.0
C550 C 0.47349 0.48808 0.51108 0.0
H551 H 0.44053 0.44605 0.42093 0.0
H552 H 0.46193 0.45865 0.42843 0.0
H553 H 0.44881 0.45525 0.48545 0.0
H554 H 0.43401 0.49612 0.58122 0.0
H555 H 0.45614 0.49711 0.65428 0.0
H556 H 0.06673 0.33503 0.3809 0.0
H557 H 0.06222 0.36395 0.4324 0.0
H558 H 0.04468 0.38542 0.29314 0.0
H559 H 0.0486 0.35606 0.24115 0.0
H560 H 0.07745 0.397 0.42707 0.0
H561 H 1.0012 0.3968 0.39195 0.0
H562 H 0.01493 0.37723 0.37505 0.0
H563 H 0.01542 0.39482 0.33455 0.0
C564 C 0.06177 0.34583 0.36111 0.0
C565 C 0.05763 0.34311 0.30704 0.0
C566 C 0.05936 0.36244 0.3906 0.0
C567 C 0.05281 0.3768 0.36691 0.0
C568 C 0.04941 0.37442 0.31248 0.0
H569 H 0.04819 0.48053 0.57062 0.0
H570 H 0.05541 0.45814 0.49607 0.0
C571 C 0.0518 0.3577 0.28273 0.0
C572 C 0.04908 0.39392 0.40039 0.0
H573 H 0.0139 0.42059 0.44964 0.0
C574 C 0.0636 0.40233 0.43155 0.0
C575 C 0.03096 0.40073 0.40654 0.0
C576 C 0.01466 0.39191 0.37564 0.0
C577 C 0.06041 0.41693 0.46999 0.0
C578 C 0.04223 0.42355 0.47677 0.0
C579 C 0.02783 0.41555 0.44427 0.0
C580 C 0.03749 0.43761 0.52044 0.0
C581 C 0.07635 0.4245 0.50484 0.0
C582 C 0.02463 0.43372 0.55816 0.0
C583 C 0.02035 0.4465 0.6004 0.0
C584 C 0.02883 0.46352 0.60601 0.0
C585 C 0.04152 0.46751 0.56776 0.0
C586 C 0.04573 0.4547 0.52522 0.0
H587 H 0.08841 0.41549 0.502 0.0
H588 H 0.08096 0.4374 0.49282 0.0
H589 H 0.07203 0.42696 0.54645 0.0
H590 H 0.01808 0.42064 0.55534 0.0
H591 H 0.01051 0.44293 0.629 0.0
H592 H 0.88264 0.02069 0.21898 0.0
H593 H 0.90546 0.02194 0.14936 0.0
H594 H 0.89294 0.96711 0.09002 0.0
H595 H 0.86982 0.96587 0.15816 0.0
H596 H 0.93733 0.00221 0.12213 0.0
H597 H 0.88547 0.99213 0.96019 0.0
H598 H 0.87901 -0.0024 0.02796 0.0
H599 H 0.88474 0.9751 0.00258 0.0
C600 C 0.88469 0.00888 0.19112 0.0
C601 C 0.87423 0.99318 0.19457 0.0
C602 C 0.89784 0.0096 0.15135 0.0
C603 C 0.90076 0.99472 0.11364 0.0
C604 C 0.89077 0.9789 0.11788 0.0
H605 H 0.99285 0.9762 0.89493 0.0
H606 H 0.97091 0.97597 0.9668 0.0
C607 C 0.87767 0.97814 0.1576 0.0
C608 C 0.9141 0.99572 0.06967 0.0
H609 H 0.91715 0.9907 0.9357 0.0
C610 C 0.93289 -0.00026 0.08139 0.0
C611 C 0.90837 0.99276 0.0163 0.0
C612 C 0.88828 0.98932 0.00082 0.0
C613 C 0.94609 0.00047 0.04148 0.0
C614 C 0.94046 0.99688 0.9881 0.0
C615 C 0.92159 0.99327 0.97643 0.0
C616 C 0.95386 0.99694 0.94384 0.0
C617 C 0.96592 0.00538 0.05692 0.0
C618 C 0.95143 0.00844 0.90568 0.0
C619 C 0.96395 0.00855 0.86415 0.0
C620 C 0.97917 0.99704 0.8594 0.0
C621 C 0.9814 0.98534 0.89724 0.0
C622 C 0.96889 0.98527 0.93877 0.0
H623 H 0.967 0.01238 0.09763 0.0
H624 H 0.97414 0.99305 0.05495 0.0
H625 H 0.97219 0.01403 0.02989 0.0
H626 H 0.93991 0.0175 0.90833 0.0
H627 H 0.96171 0.01772 0.83587 0.0
H628 H 0.54457 0.82864 0.99178 0.0
H629 H 0.54086 0.85543 0.95007 0.0
H630 H 0.57033 0.88634 0.07839 0.0
H631 H 0.57376 0.85949 0.12162 0.0
H632 H 0.52322 0.88849 -0.00238 0.0
H633 H 0.59665 0.8978 0.93984 0.0
H634 H 0.5877 0.87658 0.95436 0.0
H635 H 0.59207 0.89435 0.00653 0.0
C636 C 0.55006 0.84113 0.01181 0.0
C637 C 0.55926 0.84187 0.06062 0.0
C638 C 0.54806 0.85643 0.98753 0.0
C639 C 0.55538 0.87284 0.01096 0.0
C640 C 0.56474 0.87374 0.05938 0.0
H641 H 0.55215 0.97356 0.87426 0.0
H642 H 0.55908 0.95117 0.93212 0.0
C643 C 0.56669 0.85838 0.084 0.0
C644 C 0.55264 0.88893 0.98466 0.0
H645 H 0.57483 0.91759 0.91281 0.0
C646 C 0.53452 0.89497 0.97948 0.0
C647 C 0.56743 0.89742 0.96135 0.0
C648 C 0.58709 0.89125 0.96535 0.0
C649 C 0.53071 0.90903 0.95071 0.0
C650 C 0.54536 0.91699 0.92522 0.0
C651 C 0.5636 0.91141 0.93205 0.0
C652 C 0.5418 0.93046 0.88929 0.0
C653 C 0.51098 0.9152 0.94786 0.0
C654 C 0.53019 0.92614 0.84523 0.0
C655 C 0.52615 0.93887 0.81228 0.0
C656 C 0.5338 0.95621 0.82227 0.0
C657 C 0.54595 0.96036 0.86548 0.0
C658 C 0.54994 0.94759 0.89861 0.0
H659 H 0.50278 0.91187 0.98173 0.0
H660 H 0.51047 0.9298 0.94691 0.0
H661 H 0.50425 0.90837 0.91156 0.0
H662 H 0.52414 0.91288 0.83641 0.0
H663 H 0.5169 0.9351 0.77914 0.0
H664 H 0.6784 0.51788 0.14685 0.0
H665 H 0.6539 0.52074 0.08218 0.0
H666 H 0.62211 0.47912 0.14121 0.0
H667 H 0.64627 0.47653 0.20689 0.0
H668 H 0.64266 0.49418 0.0042 0.0
H669 H 0.58268 0.51604 0.12812 0.0
H670 H 0.60619 0.51724 0.1532 0.0
H671 H 0.59342 0.49644 0.14586 0.0
C672 C 0.66596 0.50969 0.14715 0.0
C673 C 0.66434 0.49698 0.18226 0.0
C674 C 0.65201 0.51123 0.10977 0.0
C675 C 0.63604 0.50025 0.10692 0.0
C676 C 0.63411 0.48797 0.14304 0.0
H677 H 0.54348 0.47607 0.88888 0.0
H678 H 0.56611 0.47758 0.96086 0.0
C679 C 0.64805 0.48639 0.18035 0.0
C680 C 0.62216 0.50063 0.06371 0.0
H681 H 0.57609 0.50579 0.03804 0.0
C682 C 0.62813 0.49689 0.01162 0.0
C683 C 0.60316 0.50403 0.07327 0.0
C684 C 0.59597 0.50883 0.12811 0.0
C685 C 0.61563 0.49606 0.96904 0.0
C686 C 0.59661 0.49939 0.97858 0.0
C687 C 0.59064 0.50322 0.03065 0.0
C688 C 0.58271 0.49877 0.93505 0.0
C689 C 0.62282 0.49109 0.91424 0.0
C690 C 0.58431 0.51033 0.89679 0.0
C691 C 0.57141 0.50948 0.85543 0.0
C692 C 0.5565 0.49712 0.85153 0.0
C693 C 0.55478 0.48573 0.89041 0.0
C694 C 0.5677 0.4866 0.93174 0.0
H695 H 0.63647 0.4845 0.91441 0.0
H696 H 0.6129 0.48203 0.89005 0.0
H697 H 0.62463 0.50334 0.89529 0.0
H698 H 0.59554 0.52008 0.89899 0.0
H699 H 0.57314 0.51855 0.82654 0.0
H700 H 0.98456 0.63805 0.23848 0.0
H701 H 0.99003 0.6101 0.18042 0.0
H702 H 0.99049 0.63898 0.04675 0.0
H703 H 0.9851 0.66665 0.10384 0.0
H704 H 0.96959 0.59308 0.09257 0.0
H705 H 0.03972 0.61301 0.03399 0.0
H706 H 0.02802 0.62453 0.08997 0.0
H707 H 0.02274 0.6294 0.02486 0.0
C708 C 0.98581 0.63837 0.1967 0.0
C709 C 0.98481 0.65462 0.17591 0.0
C710 C 0.98897 0.62244 0.16363 0.0
C711 C 0.99114 0.62255 0.10942 0.0
C712 C 0.98943 0.63865 0.0886 0.0
H713 H 0.99961 0.557 0.81766 0.0
H714 H 0.99533 0.57969 0.89313 0.0
C715 C 0.98637 0.65448 0.12138 0.0
C716 C 0.99502 0.60599 0.07373 0.0
H717 H 0.02466 0.58911 0.97757 0.0
C718 C 0.98179 0.59203 0.0681 0.0
C719 C 0.01101 0.6046 0.04198 0.0
C720 C 0.02627 0.61861 0.04833 0.0
C721 C 0.98364 0.57719 0.02943 0.0
C722 C 0.99912 0.57634 0.99592 0.0
C723 C 0.01272 0.5899 0.00308 0.0
C724 C 1.00094 0.56211 0.95093 0.0
C725 C 0.96868 0.56291 0.02286 0.0
C726 C 1.00553 0.5447 0.95853 0.0
C727 C 1.0081 0.53165 0.91534 0.0
C728 C 1.00606 0.53583 0.86388 0.0
C729 C 1.00124 0.55328 0.85666 0.0
C730 C 0.9988 0.56629 0.89974 0.0
H731 H 0.95669 0.56635 0.04885 0.0
H732 H 0.96369 0.56069 0.98151 0.0
H733 H 0.97447 0.55019 0.03215 0.0
H734 H 1.00741 0.54128 -0.0022 0.0
H735 H 0.01181 0.51835 0.92227 0.0
H736 H 0.08722 0.21004 0.45655 0.0
H737 H 0.07657 0.18739 0.50997 0.0
H738 H 0.0652 0.15095 0.36948 0.0
H739 H 0.07534 0.17341 0.31605 0.0
H740 H 0.04045 0.17218 0.50383 0.0
H741 H 0.09358 0.1204 0.46286 0.0
H742 H 0.09736 0.14317 0.45098 0.0
H743 H 0.08453 0.12775 0.40427 0.0
C744 C 0.08263 0.19713 0.43709 0.0
C745 C 0.08221 0.19353 0.38198 0.0
C746 C 0.07662 0.18422 0.46766 0.0
C747 C 0.07033 0.16747 0.4436 0.0
C748 C 0.07042 0.16366 0.38881 0.0
H749 H 0.99091 0.09044 0.51669 0.0
H750 H 1.00744 0.11655 0.49174 0.0
C751 C 0.07631 0.17653 0.3583 0.0
C752 C 0.06211 0.15436 0.47484 0.0
H753 H 0.06422 0.11073 0.49374 0.0
C754 C 0.04579 0.15882 0.5025 0.0
C755 C 0.06924 0.13704 0.47343 0.0
C756 C 0.08725 0.13184 0.44672 0.0
C757 C 0.03585 0.14607 0.52647 0.0
C758 C 0.04231 0.12841 0.52184 0.0
C759 C 0.05916 0.12424 0.49665 0.0
C760 C 0.03151 0.11382 0.54083 0.0
C761 C 0.01844 0.15156 0.55595 0.0
C762 C 0.03961 0.10363 0.57637 0.0
C763 C 0.03029 0.08869 0.59018 0.0
C764 C 0.01273 0.08361 0.56847 0.0
C765 C 1.00437 0.09414 0.53414 0.0
C766 C 0.01376 0.10907 0.52012 0.0
H767 H 0.01851 0.16612 0.56943 0.0
H768 H 1.00626 0.14837 0.52955 0.0
H769 H 0.01675 0.14433 0.5905 0.0
H770 H 0.05329 0.10707 0.59273 0.0
H771 H 0.03691 0.08097 0.61748 0.0
H772 H 0.28466 0.02063 0.42544 0.0
H773 H 0.30947 0.01182 0.48049 0.0
H774 H 0.34311 0.05631 0.44567 0.0
H775 H 0.3182 0.06525 0.38996 0.0
H776 H 0.35756 0.02391 0.41041 0.0
H777 H 0.33745 0.02545 0.61838 0.0
H778 H 0.32026 0.015 0.57303 0.0
H779 H 0.32575 0.0383 0.57396 0.0
C780 C 0.29694 0.02911 0.4315 0.0
C781 C 0.29958 0.04353 0.40284 0.0
C782 C 0.31115 0.02403 0.46315 0.0
C783 C 0.32813 0.03339 0.46709 0.0
C784 C 0.33007 0.04892 0.44305 0.0
H785 H 0.43174 0.00448 0.59911 0.0
H786 H 0.40232 0.01844 0.58249 0.0
C787 C 0.31587 0.05398 0.41118 0.0
C788 C 0.34473 0.02492 0.48609 0.0
H789 H 0.36288 0.00661 0.5893 0.0
C790 C 0.35882 0.02033 0.44976 0.0
C791 C 0.3462 0.0201 0.53719 0.0
C792 C 0.33168 0.0251 0.57805 0.0
C793 C 0.37426 0.01085 0.46287 0.0
C794 C 0.3755 0.0056 0.51341 0.0
C795 C 0.36164 0.01044 0.55026 0.0
C796 C 0.39179 0.996 0.52908 0.0
C797 C 0.38921 0.00661 0.42263 0.0
C798 C 0.39527 0.97859 0.5055 0.0
C799 C 0.41211 0.9706 0.51472 0.0
C800 C 0.42563 0.98004 0.54729 0.0
C801 C 0.42165 0.9971 0.57292 0.0
C802 C 0.40483 0.005 0.56396 0.0
H803 H 0.38776 0.01439 0.38913 0.0
H804 H 0.40317 0.00941 0.44071 0.0
H805 H 0.38835 0.99224 0.40708 0.0
H806 H 0.38523 0.97146 0.47862 0.0
H807 H 0.41486 0.9574 0.49482 0.0
H808 H 0.50966 0.29428 0.62611 0.0
H809 H 0.52536 0.31884 0.68119 0.0
H810 H 0.47916 0.35277 0.66007 0.0
H811 H 0.46306 0.3281 0.60706 0.0
H812 H 0.53633 0.34662 0.63861 0.0
H813 H 0.49363 0.37141 0.8077 0.0
H814 H 0.49012 0.34937 0.77208 0.0
H815 H 0.4792 0.36839 0.75013 0.0
C816 C 0.50247 0.30673 0.63513 0.0
C817 C 0.4852 0.30933 0.61166 0.0
C818 C 0.51153 0.3208 0.66647 0.0
C819 C 0.50345 0.33765 0.675 0.0
C820 C 0.48556 0.33983 0.65506 0.0
H821 H 0.53097 0.43682 0.62062 0.0
H822 H 0.53073 0.40464 0.62262 0.0
C823 C 0.47647 0.32577 0.624 0.0
C824 C 0.5148 0.35362 0.69504 0.0
H825 H 0.51093 0.39444 0.7671 0.0
C826 C 0.5311 0.35687 0.66801 0.0
C827 C 0.50833 0.3669 0.73416 0.0
C828 C 0.49196 0.36371 0.76801 0.0
C829 C 0.53985 0.37368 0.67486 0.0
C830 C 0.53188 0.38762 0.70878 0.0
C831 C 0.51686 0.38383 0.7402 0.0
C832 C 0.53672 0.40653 0.70595 0.0
C833 C 0.55697 0.37657 0.64361 0.0
C834 C 0.54056 0.41827 0.75181 0.0
C835 C 0.54075 0.43665 0.75046 0.0
C836 C 0.53707 0.44344 0.70332 0.0
C837 C 0.53441 0.43176 0.65693 0.0
C838 C 0.53427 0.41339 0.6582 0.0
H839 H 0.56523 0.36423 0.63704 0.0
H840 H 0.55277 0.37997 0.60457 0.0
H841 H 0.56588 0.38756 0.66357 0.0
H842 H 0.54222 0.41326 0.78911 0.0
H843 H 0.5423 0.44555 0.7869 0.0
H844 H 0.25304 0.55618 0.441 0.0
H845 H 0.23309 0.56675 0.51518 0.0
H846 H 0.1958 0.52199 0.4715 0.0
H847 H 0.21576 0.51126 0.39872 0.0
H848 H 0.19807 0.57712 0.50238 0.0
H849 H 0.1966 0.52388 0.62849 0.0
H850 H 0.21477 0.52571 0.58143 0.0
H851 H 0.19323 0.51421 0.56164 0.0
C852 C 0.24085 0.54837 0.44835 0.0
C853 C 0.23581 0.533 0.41403 0.0
C854 C 0.22949 0.55442 0.49057 0.0
C855 C 0.21312 0.54501 0.49935 0.0
C856 C 0.20859 0.52922 0.4664 0.0
H857 H 0.10421 0.56365 0.53053 0.0
H858 H 0.1374 0.56523 0.5145 0.0
C859 C 0.21986 0.52324 0.42432 0.0
C860 C 0.19921 0.55275 0.53721 0.0
H861 H 0.16712 0.53958 0.62111 0.0
C862 C 0.19165 0.5692 0.52973 0.0
C863 C 0.19109 0.5427 0.57392 0.0
C864 C 0.19953 0.52574 0.5872 0.0
C865 C 0.17492 0.5748 0.55324 0.0
C866 C 0.16545 0.56347 0.58401 0.0
C867 C 0.17416 0.54811 0.59655 0.0
C868 C 0.14553 0.56557 0.59595 0.0
C869 C 0.16706 0.59231 0.54253 0.0
C870 C 0.13903 0.56515 0.64702 0.0
C871 C 0.12 0.56398 0.65612 0.0
C872 C 0.10722 0.56304 0.61417 0.0
C873 C 0.11375 0.56424 0.5635 0.0
C874 C 0.13272 0.56541 0.55445 0.0
H875 H 0.17836 0.60212 0.53794 0.0
H876 H 0.159 0.59023 0.50521 0.0
H877 H 0.1578 0.59801 0.57446 0.0
H878 H 0.14869 0.56503 0.67944 0.0
H879 H 0.11536 0.56287 0.69551 0.0
H880 H 0.93915 0.81287 0.09534 0.0
H881 H 0.95297 0.83664 0.0515 0.0
H882 H 1.00256 0.80597 0.02295 0.0
H883 H 0.989 0.78231 0.06684 0.0
H884 H 0.98553 0.8542 0.09116 0.0
H885 H 0.99408 0.82517 0.88317 0.0
H886 H 0.97835 0.81574 0.92678 0.0
H887 H 1.00278 0.81166 0.93004 0.0
C888 C 0.95285 0.81106 0.07876 0.0
C889 C 0.96299 0.79574 0.08468 0.0
C890 C 0.96069 0.8246 0.05366 0.0
C891 C 0.97872 0.82298 0.03378 0.0
C892 C 0.98848 0.80732 0.03707 0.0
H893 H 0.05604 0.89882 0.91956 0.0
H894 H 0.04266 0.8727 0.95431 0.0
C895 C 0.98067 0.79378 0.06213 0.0
C896 C 0.98817 0.83846 0.01555 0.0
H897 H 0.00992 0.85267 0.91093 0.0
C898 C 0.99076 0.85391 0.05165 0.0
C899 C 0.9952 0.8379 0.96426 0.0
C900 C 0.99235 0.82179 0.92361 0.0
C901 C 1.00025 0.86886 0.03787 0.0
C902 C 1.0071 0.86839 0.98645 0.0
C903 C 1.00472 0.85289 0.95044 0.0
C904 C 0.01564 0.88429 0.96833 0.0
C905 C 1.00302 0.88499 0.07853 0.0
C906 C 1.00486 0.89934 0.96519 0.0
C907 C 0.01242 0.91413 0.94563 0.0
C908 C 0.03088 0.9141 0.92861 0.0
C909 C 0.04183 0.89918 0.93285 0.0
C910 C 0.03419 0.88428 0.95227 0.0
H911 H 1.00142 0.88159 0.11899 0.0
H912 H 0.01696 0.89117 0.07518 0.0
H913 H 0.99248 0.89504 0.07229 0.0
H914 H 0.99046 0.8995 0.97685 0.0
H915 H 1.00373 0.92553 0.94307 0.0
H916 H 0.76306 0.00211 0.04094 0.0
H917 H 0.74444 0.01648 0.97914 0.0
H918 H 0.70135 0.97658 0.98362 0.0
H919 H 0.71999 0.96193 0.0447 0.0
H920 H 0.70766 0.99005 0.88039 0.0
H921 H 0.69855 0.04248 0.05209 0.0
H922 H 0.7216 0.0367 0.03053 0.0
H923 H 0.70772 0.02098 0.06025 0.0
C924 C 0.74993 0.99599 0.02718 0.0
C925 C 0.74283 0.98101 0.04803 0.0
C926 C 0.7393 0.0043 0.99216 0.0
C927 C 0.7215 -0.0023 0.97763 0.0
C928 C 0.71509 0.98185 0.99461 0.0
H929 H 0.61505 0.0032 0.90187 0.0
H930 H 0.64798 -0.00129 0.91446 0.0
C931 C 0.72568 0.97356 0.02967 0.0
C932 C 0.70828 0.00843 0.9518 0.0
H933 H 0.67683 0.04111 0.98379 0.0
C934 C 0.70127 0.00158 0.90215 0.0
C935 C 0.70015 0.02359 0.9802 0.0
C936 C 0.70727 0.03144 0.0338 0.0
C937 C 0.68524 0.00855 0.88216 0.0
C938 C 0.67591 0.02236 0.91331 0.0
C939 C 0.68403 0.03045 0.96029 0.0
C940 C 0.65617 0.02564 0.90398 0.0
C941 C 0.67766 0.00025 0.82957 0.0
C942 C 0.64981 0.04256 0.89651 0.0
C943 C 0.63082 0.0452 0.88941 0.0
C944 C 0.61813 0.03095 0.89017 0.0
C945 C 0.62459 0.01429 0.89989 0.0
C946 C 0.64339 0.01168 0.90671 0.0
H947 H 0.68901 0.99502 0.80329 0.0
H948 H 0.66832 0.98887 0.83515 0.0
H949 H 0.66964 0.00998 0.81011 0.0
H950 H 0.65952 0.05357 0.89551 0.0
H951 H 0.62613 0.05816 0.88198 0.0
H952 H 0.57626 0.6798 0.87504 0.0
H953 H 0.5634 0.65149 0.83141 0.0
H954 H 0.50934 0.66577 0.89225 0.0
H955 H 0.52203 0.69419 0.93462 0.0
H956 H 0.54976 0.62723 0.88657 0.0
H957 H 0.49565 0.64295 0.74658 0.0
H958 H 0.51287 0.65914 0.7743 0.0
H959 H 0.49263 0.65466 0.81115 0.0
C960 C 0.56154 0.67707 0.87771 0.0
C961 C 0.55013 0.68913 0.90811 0.0
C962 C 0.5542 0.66093 0.85286 0.0
C963 C 0.53538 0.65655 0.85834 0.0
C964 C 0.52378 0.66901 0.88638 0.0
H965 H 0.50094 0.54544 0.84939 0.0
H966 H 0.50429 0.57758 0.87663 0.0
C967 C 0.53107 0.68525 0.9107 0.0
C968 C 0.52856 0.63813 0.84125 0.0
H969 H 0.49485 0.61334 0.77003 0.0
C970 C 0.53782 0.6242 0.86079 0.0
C971 C 0.513 0.63421 0.80764 0.0
C972 C 0.50307 0.64852 0.78328 0.0
C973 C 0.53199 0.60644 0.84769 0.0
C974 C 0.51604 0.60254 0.81556 0.0
C975 C 0.50681 0.61644 0.79564 0.0
C976 C 0.5099 0.58393 0.79858 0.0
C977 C 0.54334 0.592 0.86715 0.0
C978 C 0.51056 0.57712 0.74532 0.0
C979 C 0.50836 0.55888 0.72961 0.0
C980 C 0.50561 0.5471 0.76696 0.0
C981 C 0.50325 0.55414 0.81976 0.0
C982 C 0.5053 0.57247 0.83542 0.0
H983 H 0.55741 0.59693 0.88054 0.0
H984 H 0.53626 0.58721 0.90091 0.0
H985 H 0.54486 0.5805 0.836 0.0
H986 H 0.5139 0.58576 0.7162 0.0
H987 H 0.50986 0.55395 0.68844 0.0
H988 H 0.82757 0.45608 0.10836 0.0
H989 H 0.84851 0.44781 0.0357 0.0
H990 H 0.80874 0.40846 0.96527 0.0
H991 H 0.78753 0.41664 0.03874 0.0
H992 H 0.84768 0.39683 0.975 0.0
H993 H 0.84144 0.45814 0.88072 0.0
H994 H 0.84451 0.4626 0.95061 0.0
H995 H 0.82393 0.45096 0.92368 0.0
C996 C 0.82329 0.44559 0.07762 0.0
C997 C 0.80599 0.43691 0.07933 0.0
C998 C 0.83517 0.44102 0.03589 0.0
C999 C 0.83002 0.42771 0.99495 0.0
C1000 C 0.81282 0.41888 0.99642 0.0
H1001 H 0.91763 0.42433 0.76139 0.0
H1002 H 0.88601 0.41891 0.79023 0.0
C1003 C 0.80077 0.42357 0.03819 0.0
C1004 C 0.84325 0.42283 0.95226 0.0
H1005 H 0.87008 0.44219 0.86653 0.0
C1006 C 0.85228 0.40649 0.95006 0.0
C1007 C 0.84898 0.43533 0.91922 0.0
C1008 C 0.83908 0.45268 0.9182 0.0
C1009 C 0.8681 0.40308 0.91922 0.0
C1010 C 0.87503 0.41644 0.89061 0.0
C1011 C 0.86487 0.432 0.88885 0.0
C1012 C 0.8941 0.41603 0.8698 0.0
C1013 C 0.87777 0.3856 0.91958 0.0
C1014 C 0.90911 0.41592 0.90475 0.0
C1015 C 0.9271 0.41925 0.88872 0.0
C1016 C 0.93046 0.42282 0.83732 0.0
C1017 C 0.9155 0.42188 0.80145 0.0
C1018 C 0.89744 0.41864 0.81769 0.0
H1019 H 0.86773 0.37482 0.92597 0.0
H1020 H 0.88517 0.38166 0.88229 0.0
H1021 H 0.88803 0.3869 0.95232 0.0
H1022 H 0.90682 0.41444 0.94553 0.0
H1023 H 0.93814 0.42021 0.91777 0.0
H1024 H 0.08988 0.19424 0.92721 0.0
H1025 H 0.08374 0.16492 0.87682 0.0
H1026 H 0.03189 0.16112 0.95717 0.0
H1027 H 0.03781 0.19042 0.00688 0.0
H1028 H 0.08083 0.13404 0.91451 0.0
H1029 H 0.01558 0.14433 0.80937 0.0
H1030 H 0.02957 0.16266 0.84131 0.0
H1031 H 0.01354 0.15097 0.87856 0.0
C1032 C 0.07701 0.18729 0.93338 0.0
C1033 C 0.06428 0.19475 0.97086 0.0
C1034 C 0.07352 0.17051 0.90459 0.0
C1035 C 0.05724 0.16083 0.91263 0.0
C1036 C 0.0443 0.16847 0.94906 0.0
H1037 H 0.04185 0.04631 0.87141 0.0
H1038 H 0.04915 0.07758 0.90227 0.0
C1039 C 0.04771 0.18528 0.97754 0.0
C1040 C 0.0545 0.14219 0.88643 0.0
H1041 H 0.02306 0.11394 0.81687 0.0
C1042 C 0.06828 0.1297 0.89263 0.0
C1043 C 0.03826 0.13649 0.85718 0.0
C1044 C 0.0235 0.14937 0.84571 0.0
C1045 C 0.06602 0.11165 0.87203 0.0
C1046 C 0.04928 0.10576 0.84562 0.0
C1047 C 0.03578 0.11835 0.83777 0.0
C1048 C 0.04536 0.0866 0.82648 0.0
C1049 C 0.08169 0.09913 0.87842 0.0
C1050 C 0.04034 0.08122 0.77382 0.0
C1051 C 0.0359 0.06336 0.7562 0.0
C1052 C 0.03639 0.05044 0.79088 0.0
C1053 C 0.04153 0.05583 0.84351 0.0
C1054 C 0.04582 0.07374 0.86118 0.0
H1055 H 0.09523 0.10639 0.88359 0.0
H1056 H 0.07932 0.09257 0.91396 0.0
H1057 H 0.08258 0.08865 0.84407 0.0
H1058 H 0.03979 0.09087 0.74629 0.0
H1059 H 0.03196 0.05972 0.71541 0.0
H1060 H 0.31785 0.97202 0.96066 0.0
H1061 H 0.34785 0.97039 0.9164 0.0
H1062 H 0.35775 0.02628 0.96721 0.0
H1063 H 0.32812 0.02801 0.01228 0.0
H1064 H 0.36638 0.01644 0.86155 0.0
H1065 H 0.39926 0.97116 0.98692 0.0
H1066 H 0.37764 0.96316 0.95667 0.0
H1067 H 0.37806 0.98265 0.00479 0.0
C1068 C 0.32642 0.98397 0.96287 0.0
C1069 C 0.3203 0.00016 0.99026 0.0
C1070 C 0.34365 0.983 0.93741 0.0
C1071 C 0.35527 -0.00182 0.93875 0.0
C1072 C 0.3491 0.01437 0.96534 0.0
H1073 H 0.47339 0.00631 0.8759 0.0
H1074 H 0.44235 0.00637 0.91358 0.0
C1075 C 0.33197 0.01534 0.99091 0.0
C1076 C 0.37384 -0.00267 0.9127 0.0
H1077 H 0.41672 0.97865 0.91538 0.0
C1078 C 0.37735 0.00811 0.87321 0.0
C1079 C 0.38833 0.98666 0.92819 0.0
C1080 C 0.38578 0.97534 0.97175 0.0
C1081 C 0.39478 0.00846 0.84881 0.0
C1082 C 0.4092 -0.00239 0.86381 0.0
C1083 C 0.40571 0.98689 0.90346 0.0
C1084 C 0.42815 -0.0024 0.84007 0.0
C1085 C 0.39775 0.02083 0.80809 0.0
C1086 C 0.43072 0.99251 0.78604 0.0
C1087 C 0.44853 0.99246 0.76425 0.0
C1088 C 0.4643 -0.00254 0.79594 0.0
C1089 C 0.46166 0.00246 0.85007 0.0
C1090 C 0.44386 0.00245 0.87181 0.0
H1091 H 0.38709 0.03132 0.81033 0.0
H1092 H 0.41167 0.02737 0.81273 0.0
H1093 H 0.39686 0.01304 0.76845 0.0
H1094 H 0.41895 0.98837 0.76068 0.0
H1095 H 0.44993 0.98841 0.72251 0.0
H1096 H 0.43603 0.29589 0.15358 0.0
H1097 H 0.43903 0.31896 0.09581 0.0
H1098 H 0.49859 0.31603 0.10523 0.0
H1099 H 0.49568 0.29287 0.16285 0.0
H1100 H 0.4553 0.35161 0.12164 0.0
H1101 H 0.49069 0.31602 0.9491 0.0
H1102 H 0.47987 0.30447 -0.00173 0.0
H1103 H 0.50244 0.31474 0.01027 0.0
C1104 C 0.44978 0.29999 0.14285 0.0
C1105 C 0.46562 0.29249 0.16289 0.0
C1106 C 0.45147 0.31319 0.10973 0.0
C1107 C 0.46903 0.31918 0.09564 0.0
C1108 C 0.48488 0.31139 0.11444 0.0
H1109 H 0.50603 0.40837 0.93636 0.0
H1110 H 0.50418 0.38209 0.98249 0.0
C1111 C 0.48319 0.29812 0.14744 0.0
C1112 C 0.47066 0.33446 0.06467 0.0
H1113 H 0.48859 0.3475 0.95269 0.0
C1114 C 0.46248 0.35065 0.08453 0.0
C1115 C 0.48017 0.33331 0.0164 0.0
C1116 C 0.48866 0.31616 0.99192 0.0
C1117 C 0.46368 0.36569 0.05793 0.0
C1118 C 0.47307 0.36452 0.00953 0.0
C1119 C 0.48139 0.3484 0.98975 0.0
C1120 C 0.47425 0.37989 0.97891 0.0
C1121 C 0.4552 0.38285 0.08251 0.0
C1122 C 0.45809 0.38716 0.96033 0.0
C1123 C 0.45909 0.40213 0.93377 0.0
C1124 C 0.47631 0.41019 0.9249 0.0
C1125 C 0.49254 0.40251 0.94214 0.0
C1126 C 0.49151 0.38751 0.96874 0.0
H1127 H 0.45289 0.38289 0.12518 0.0
H1128 H 0.46416 0.3945 0.07691 0.0
H1129 H 0.44157 0.38446 0.06356 0.0
H1130 H 0.44463 0.38127 0.96656 0.0
H1131 H 0.44633 0.40736 0.92002 0.0
H1132 H 0.22039 0.52336 0.94403 0.0
H1133 H 0.19021 0.52157 0.89942 0.0
H1134 H 0.18121 0.46879 0.94086 0.0
H1135 H 0.21105 0.47074 0.98738 0.0
H1136 H 0.1742 0.49894 0.81821 0.0
H1137 H 0.13586 0.4945 0.0022 0.0
H1138 H 0.16023 0.50019 0.00185 0.0
H1139 H 0.15258 0.47733 0.98729 0.0
C1140 C 0.21202 0.51134 0.94373 0.0
C1141 C 0.21816 0.49729 0.9701 0.0
C1142 C 0.19477 0.51031 0.91788 0.0
C1143 C 0.18316 0.49523 0.91775 0.0
C1144 C 0.18967 0.48077 0.94143 0.0
H1145 H 0.06932 0.47034 0.81018 0.0
H1146 H 0.10115 0.46943 0.84315 0.0
C1147 C 0.20692 0.4818 0.96743 0.0
C1148 C 0.16409 0.49492 0.89432 0.0
H1149 H 0.11811 0.4913 0.92373 0.0
C1150 C 0.16194 0.49728 0.84131 0.0
C1151 C 0.14801 0.49285 0.9244 0.0
C1152 C 0.1492 0.49124 0.9822 0.0
C1153 C 0.14427 0.49732 0.81745 0.0
C1154 C 0.12821 0.49523 0.84757 0.0
C1155 C 0.13037 0.49283 0.9005 0.0
C1156 C 0.10902 0.49564 0.82532 0.0
C1157 C 0.14299 0.49927 0.75992 0.0
C1158 C 0.10266 0.51074 0.80452 0.0
C1159 C 0.08441 0.5113 0.78554 0.0
C1160 C 0.07199 0.49683 0.78721 0.0
C1161 C 0.07842 0.48173 0.80808 0.0
C1162 C 0.09667 0.48119 0.82704 0.0
H1163 H 0.15618 0.49571 0.73945 0.0
H1164 H 0.13162 0.49077 0.74024 0.0
H1165 H 0.14007 0.51335 0.75563 0.0
H1166 H 0.11172 0.52224 0.80377 0.0
H1167 H 0.08001 0.5232 0.77002 0.0
H1168 H 0.9955 0.80562 0.47797 0.0
H1169 H 1.00168 0.83531 0.52534 0.0
H1170 H 0.94608 0.83662 0.5856 0.0
H1171 H 0.93985 0.80671 0.539 0.0
H1172 H 0.98092 0.8657 0.50691 0.0
H1173 H 0.97908 0.85437 0.71603 0.0
H1174 H 0.9826 0.83657 0.66317 0.0
H1175 H 0.95983 0.84523 0.67575 0.0
C1176 C 0.98474 0.81196 0.50253 0.0
C1177 C 0.96718 0.80372 0.5048 0.0
C1178 C 0.98825 0.82903 0.52919 0.0
C1179 C 0.97437 0.83816 0.55913 0.0
C1180 C 0.95706 0.82974 0.5632 0.0
H1181 H 0.97381 0.95413 0.64946 0.0
H1182 H 0.96494 0.92331 0.61537 0.0
C1183 C 0.95349 0.81269 0.53631 0.0
C1184 C 0.97764 0.85696 0.58265 0.0
H1185 H 0.98145 0.88432 0.69917 0.0
C1186 C 0.98099 0.86979 0.54894 0.0
C1187 C 0.97779 0.86224 0.63748 0.0
C1188 C 0.97478 0.84891 0.67543 0.0
C1189 C 0.98455 0.88774 0.56855 0.0
C1190 C 0.98457 0.89306 0.62337 0.0
C1191 C 0.98122 0.88024 0.65714 0.0
C1192 C 0.9892 0.91167 0.64631 0.0
C1193 C 0.98873 0.90081 0.53052 0.0
C1194 C 1.00552 0.91531 0.67602 0.0
C1195 C 0.01064 0.93284 0.69539 0.0
C1196 C 0.99944 0.94716 0.68584 0.0
C1197 C 0.98279 0.94345 0.65733 0.0
C1198 C 0.97773 0.92585 0.63766 0.0
H1199 H 0.99168 0.89399 0.49059 0.0
H1200 H 0.9766 0.90947 0.52772 0.0
H1201 H 1.00082 0.90949 0.54442 0.0
H1202 H 0.01454 0.90457 0.68331 0.0
H1203 H 0.02348 0.93513 0.71757 0.0
H1204 H 0.71922 0.96258 0.51566 0.0
H1205 H 0.68906 0.96421 0.55908 0.0
H1206 H 0.67891 0.01428 0.5025 0.0
H1207 H 0.70896 0.01268 0.45849 0.0
H1208 H 0.67325 0.99111 0.63606 0.0
H1209 H 0.63361 0.98212 0.44803 0.0
H1210 H 0.65795 0.97715 0.45181 0.0
H1211 H 0.65072 -0.00016 0.45495 0.0
C1212 C 0.71062 0.97399 0.51251 0.0
C1213 C 0.71661 0.98745 0.48316 0.0
C1214 C 0.69337 0.97493 0.53762 0.0
C1215 C 0.6815 0.98924 0.53359 0.0
C1216 C 0.68765 0.00297 0.50574 0.0
H1217 H 0.58013 0.01694 0.70967 0.0
H1218 H 0.61142 0.016 0.67383 0.0
C1219 C 0.70498 0.00212 0.48097 0.0
C1220 C 0.66254 0.9895 0.55723 0.0
H1221 H 0.61624 0.98788 0.5257 0.0
C1222 C 0.66079 0.99042 0.61193 0.0
C1223 C 0.6462 0.98837 0.52588 0.0
C1224 C 0.64709 0.98667 0.46687 0.0
C1225 C 0.64325 0.99053 0.63601 0.0
C1226 C 0.62689 0.98975 0.60467 0.0
C1227 C 0.62868 0.98856 0.54992 0.0
C1228 C 0.60781 0.99012 0.62769 0.0
C1229 C 0.64241 0.99116 0.69482 0.0
C1230 C 0.59502 0.97605 0.61326 0.0
C1231 C 0.57698 0.97654 0.63376 0.0
C1232 C 0.57116 0.99126 0.66874 0.0
C1233 C 0.58401 0.00536 0.68293 0.0
C1234 C 0.60205 0.00479 0.66269 0.0
H1235 H 0.65566 0.98698 0.71146 0.0
H1236 H 0.63977 0.00503 0.71274 0.0
H1237 H 0.631 0.98248 0.70621 0.0
H1238 H 0.59902 0.9646 0.58616 0.0
H1239 H 0.56754 0.96546 0.62175 0.0
H1240 H 0.57456 0.71615 0.38693 0.0
H1241 H 0.57061 0.69067 0.43602 0.0
H1242 H 0.58778 0.65514 0.30096 0.0
H1243 H 0.59134 0.68022 0.25143 0.0
H1244 H 0.54716 0.65944 0.40842 0.0
H1245 H 0.62134 0.64202 0.4207 0.0
H1246 H 0.61392 0.66345 0.40555 0.0
H1247 H 0.61331 0.64442 0.35574 0.0
C1248 C 0.5775 0.70292 0.36764 0.0
C1249 C 0.58353 0.70037 0.31528 0.0
C1250 C 0.57529 0.68838 0.39585 0.0
C1251 C 0.5792 0.67103 0.37243 0.0
C1252 C 0.58511 0.66843 0.32027 0.0
H1253 H 0.57525 0.56335 0.45062 0.0
H1254 H 0.57897 0.59065 0.41 0.0
C1255 C 0.58724 0.68288 0.29205 0.0
C1256 C 0.57654 0.65546 0.4015 0.0
H1257 H 0.59935 0.62064 0.44333 0.0
C1258 C 0.55858 0.65104 0.4166 0.0
C1259 C 0.59144 0.64446 0.41179 0.0
C1260 C 0.61113 0.64886 0.39806 0.0
C1261 C 0.55502 0.6356 0.4402 0.0
C1262 C 0.56991 0.62448 0.45007 0.0
C1263 C 0.58792 0.62909 0.43565 0.0
C1264 C 0.56715 0.60789 0.47464 0.0
C1265 C 0.53524 0.63101 0.45253 0.0
C1266 C 0.55938 0.60844 0.5247 0.0
C1267 C 0.55719 0.59283 0.54796 0.0
C1268 C 0.56294 0.57633 0.52195 0.0
C1269 C 0.57081 0.57583 0.47193 0.0
C1270 C 0.5729 0.59143 0.44859 0.0
H1271 H 0.52518 0.63795 0.42969 0.0
H1272 H 0.53251 0.61643 0.44414 0.0
H1273 H 0.53272 0.63524 0.49479 0.0
H1274 H 0.55528 0.621 0.54624 0.0
H1275 H 0.55141 0.59376 0.58692 0.0
H1276 H 0.82779 0.46958 0.45164 0.0
H1277 H 0.8573 0.47234 0.499 0.0
H1278 H 0.83997 0.5218 0.58601 0.0
H1279 H 0.81032 0.51927 0.53748 0.0
H1280 H 0.87469 0.52484 0.55553 0.0
H1281 H 0.86886 0.4625 0.64413 0.0
H1282 H 0.86636 0.45813 0.57424 0.0
H1283 H 0.84949 0.47148 0.61209 0.0
C1284 C 0.83008 0.48092 0.48147 0.0
C1285 C 0.8165 0.49406 0.49132 0.0
C1286 C 0.84701 0.48246 0.50872 0.0
C1287 C 0.85079 0.49702 0.5473 0.0
C1288 C 0.83737 0.51033 0.55685 0.0
H1289 H 0.9491 0.49402 0.75052 0.0
H1290 H 0.91723 0.49455 0.71734 0.0
C1291 C 0.82042 0.50889 0.52907 0.0
C1292 C 0.86905 0.49859 0.57573 0.0
H1293 H 0.89956 0.47518 0.64149 0.0
C1294 C 0.88002 0.51405 0.57484 0.0
C1295 C 0.87599 0.48472 0.60204 0.0
C1296 C 0.86446 0.46837 0.60873 0.0
C1297 C 0.89791 0.51572 0.59756 0.0
C1298 C 0.90537 0.50131 0.6205 0.0
C1299 C 0.8941 0.48614 0.62321 0.0
C1300 C 0.92484 0.50153 0.64129 0.0
C1301 C 0.90849 0.53307 0.59722 0.0
C1302 C 0.93991 0.50505 0.60965 0.0
C1303 C 0.95815 0.50499 0.62882 0.0
C1304 C 0.96186 0.50103 0.6798 0.0
C1305 C 0.9468 0.49717 0.71113 0.0
C1306 C 0.92853 0.49746 0.69214 0.0
H1307 H 0.89893 0.54434 0.59551 0.0
H1308 H 0.91752 0.53614 0.63253 0.0
H1309 H 0.9173 0.53214 0.56186 0.0
H1310 H 0.93762 0.50762 0.56971 0.0
H1311 H 0.96938 0.50779 0.60326 0.0
loop_
_geom_bond_atom_site_label_1
_geom_bond_atom_site_label_2
_geom_bond_distance
_geom_bond_site_symmetry_2
_ccdc_geom_bond_type
C0 C1 1.384 . S
C0 H13 0.947 . S
C0 C35 1.382 . S
C1 C0 1.384 . S
C1 C2 1.378 . S
C2 C1 1.378 . S
C2 C3 1.378 . S
C2 H14 0.952 . S
C3 C2 1.378 . S
C3 H15 0.950 . S
C3 C34 1.383 . S
H4 C23 0.947 . S
H5 C24 0.946 . S
H6 C26 0.953 . S
H7 C27 0.945 . S
H8 C29 0.952 . S
H9 C30 0.949 . S
H10 C32 0.950 . S
H11 C33 0.948 . S
H12 C35 0.951 . S
H13 C0 0.947 . S
H14 C2 0.952 . S
H15 C3 0.950 . S
N16 C19 1.382 . S
N16 C21 1.363 . S
N17 C19 1.371 . S
N17 C20 1.372 . S
N18 C20 1.361 . S
N18 C21 1.377 . S
C19 N16 1.382 . S
C19 N17 1.371 . S
C19 C22 1.480 . S
C20 N17 1.372 . S
C20 N18 1.361 . S
C20 C28 1.457 . S
C21 N16 1.363 . S
C21 N18 1.377 . S
C21 C34 1.479 . S
C22 C19 1.480 . S
C22 C23 1.383 . S
C22 C27 1.385 . S
C23 H4 0.947 . S
C23 C22 1.383 . S
C23 C24 1.388 . S
C24 H5 0.946 . S
C24 C23 1.388 . S
C24 C25 1.384 . S
C25 C24 1.384 . S
C25 C26 1.377 . S
C26 H6 0.953 . S
C26 C25 1.377 . S
C26 C27 1.369 . S
C27 H7 0.945 . S
C27 C22 1.385 . S
C27 C26 1.369 . S
C28 C20 1.457 . S
C28 C29 1.372 . S
C28 C33 1.364 . S
C29 H8 0.952 . S
C29 C28 1.372 . S
C29 C30 1.389 . S
C30 H9 0.949 . S
C30 C29 1.389 . S
C30 C31 1.387 . S
C31 C30 1.387 . S
C31 C32 1.372 . S
C32 H10 0.950 . S
C32 C31 1.372 . S
C32 C33 1.379 . S
C33 H11 0.948 . S
C33 C28 1.364 . S
C33 C32 1.379 . S
C34 C3 1.383 . S
C34 C21 1.479 . S
C34 C35 1.398 . S
C35 C0 1.382 . S
C35 H12 0.951 . S
C35 C34 1.398 . S
C36 C37 1.384 . S
C36 H49 0.947 . S
C36 C71 1.382 . S
C37 C36 1.384 . S
C37 C38 1.378 . S
C38 C37 1.378 . S
C38 C39 1.378 . S
C38 H50 0.952 . S
C39 C38 1.378 . S
C39 H51 0.950 . S
C39 C70 1.383 . S
H40 C59 0.947 . S
H41 C60 0.946 . S
H42 C62 0.953 . S
H43 C63 0.945 . S
H44 C65 0.952 . S
H45 C66 0.949 . S
H46 C68 0.950 . S
H47 C69 0.948 . S
H48 C71 0.951 . S
H49 C36 0.947 . S
H50 C38 0.952 . S
H51 C39 0.950 . S
N52 C55 1.382 . S
N52 C57 1.363 . S
N53 C55 1.371 . S
N53 C56 1.372 . S
N54 C56 1.361 . S
N54 C57 1.377 . S
C55 N52 1.382 . S
C55 N53 1.371 . S
C55 C58 1.480 . S
C56 N53 1.372 . S
C56 N54 1.361 . S
C56 C64 1.457 . S
C57 N52 1.363 . S
C57 N54 1.377 . S
C57 C70 1.479 . S
C58 C55 1.480 . S
C58 C59 1.383 . S
C58 C63 1.385 . S
C59 H40 0.947 . S
C59 C58 1.383 . S
C59 C60 1.388 . S
C60 H41 0.946 . S
C60 C59 1.388 . S
C60 C61 1.384 . S
C61 C60 1.384 . S
C61 C62 1.377 . S
C62 H42 0.953 . S
C62 C61 1.377 . S
C62 C63 1.369 . S
C63 H43 0.945 . S
C63 C58 1.385 . S
C63 C62 1.369 . S
C64 C56 1.457 . S
C64 C65 1.372 . S
C64 C69 1.364 . S
C65 H44 0.952 . S
C65 C64 1.372 . S
C65 C66 1.389 . S
C66 H45 0.949 . S
C66 C65 1.389 . S
C66 C67 1.387 . S
C67 C66 1.387 . S
C67 C68 1.372 . S
C68 H46 0.950 . S
C68 C67 1.372 . S
C68 C69 1.379 . S
C69 H47 0.948 . S
C69 C64 1.364 . S
C69 C68 1.379 . S
C70 C39 1.383 . S
C70 C57 1.479 . S
C70 C71 1.398 . S
C71 C36 1.382 . S
C71 H48 0.951 . S
C71 C70 1.398 . S
C72 C73 1.388 1_565 S
C72 H85 0.948 . S
C72 C107 1.382 1_565 S
C73 C72 1.388 1_545 S
C73 C74 1.389 . S
C74 C73 1.389 . S
C74 C75 1.378 . S
C74 H86 0.952 . S
C75 C74 1.378 . S
C75 H87 0.950 . S
C75 C106 1.383 . S
H76 C95 0.947 . S
H77 C96 0.954 . S
H78 C98 0.953 . S
H79 C99 0.945 . S
H80 C101 0.950 1_565 S
H81 C102 0.952 . S
H82 C104 0.950 . S
H83 C105 0.948 . S
H84 C107 0.951 1_565 S
H85 C72 0.948 . S
H86 C74 0.952 . S
H87 C75 0.950 . S
N88 C91 1.382 . S
N88 C93 1.363 . S
N89 C91 1.371 . S
N89 C92 1.372 . S
N90 C92 1.361 . S
N90 C93 1.377 . S
C91 N88 1.382 . S
C91 N89 1.371 . S
C91 C94 1.480 . S
C92 N89 1.372 . S
C92 N90 1.361 . S
C92 C100 1.457 . S
C93 N88 1.363 . S
C93 N90 1.377 . S
C93 C106 1.479 . S
C94 C91 1.480 . S
C94 C95 1.383 . S
C94 C99 1.385 . S
C95 H76 0.947 . S
C95 C94 1.383 . S
C95 C96 1.386 1_545 S
C96 H77 0.954 . S
C96 C95 1.386 1_565 S
C96 C97 1.378 1_565 S
C97 C96 1.378 1_545 S
C97 C98 1.377 . S
C98 H78 0.953 . S
C98 C97 1.377 . S
C98 C99 1.369 . S
C99 H79 0.945 . S
C99 C94 1.385 . S
C99 C98 1.369 . S
C100 C92 1.457 . S
C100 C101 1.374 . S
C100 C105 1.364 . S
C101 H80 0.950 1_545 S
C101 C100 1.374 . S
C101 C102 1.392 1_545 S
C102 H81 0.952 . S
C102 C101 1.392 1_565 S
C102 C103 1.384 1_565 S
C103 C102 1.384 1_545 S
C103 C104 1.372 . S
C104 H82 0.950 . S
C104 C103 1.372 . S
C104 C105 1.379 . S
C105 H83 0.948 . S
C105 C100 1.364 . S
C105 C104 1.379 . S
C106 C75 1.383 . S
C106 C93 1.479 . S
C106 C107 1.397 . S
C107 C72 1.382 1_545 S
C107 H84 0.951 1_545 S
C107 C106 1.397 . S
C108 C109 1.384 . S
C108 H121 0.947 . S
C108 C143 1.382 . S
C109 C108 1.384 . S
C109 C110 1.378 . S
C110 C109 1.378 . S
C110 C111 1.378 . S
C110 H122 0.952 . S
C111 C110 1.378 . S
C111 H123 0.950 . S
C111 C142 1.383 . S
H112 C131 0.947 . S
H113 C132 0.946 . S
H114 C134 0.953 . S
H115 C135 0.945 . S
H116 C137 0.952 . S
H117 C138 0.949 . S
H118 C140 0.950 . S
H119 C141 0.948 . S
H120 C143 0.951 . S
H121 C108 0.947 . S
H122 C110 0.952 . S
H123 C111 0.950 . S
N124 C127 1.382 . S
N124 C129 1.363 . S
N125 C127 1.371 1_554 S
N125 C128 1.372 . S
N126 C128 1.361 . S
N126 C129 1.377 1_554 S
C127 N124 1.382 . S
C127 N125 1.371 1_556 S
C127 C130 1.480 . S
C128 N125 1.372 . S
C128 N126 1.361 . S
C128 C136 1.457 . S
C129 N124 1.363 . S
C129 N126 1.377 1_556 S
C129 C142 1.479 . S
C130 C127 1.480 . S
C130 C131 1.383 . S
C130 C135 1.385 1_556 S
C131 H112 0.947 . S
C131 C130 1.383 . S
C131 C132 1.388 . S
C132 H113 0.946 . S
C132 C131 1.388 . S
C132 C133 1.384 . S
C133 C132 1.384 . S
C133 C134 1.377 1_556 S
C134 H114 0.953 . S
C134 C133 1.377 1_554 S
C134 C135 1.369 . S
C135 H115 0.945 . S
C135 C130 1.385 1_554 S
C135 C134 1.369 . S
C136 C128 1.457 . S
C136 C137 1.372 . S
C136 C141 1.364 . S
C137 H116 0.952 . S
C137 C136 1.372 . S
C137 C138 1.389 . S
C138 H117 0.949 . S
C138 C137 1.389 . S
C138 C139 1.387 . S
C139 C138 1.387 . S
C139 C140 1.372 . S
C140 H118 0.950 . S
C140 C139 1.372 . S
C140 C141 1.379 . S
C141 H119 0.948 . S
C141 C136 1.364 . S
C141 C140 1.379 . S
C142 C111 1.383 . S
C142 C129 1.479 . S
C142 C143 1.398 . S
C143 C108 1.382 . S
C143 H120 0.951 . S
C143 C142 1.398 . S
C144 C145 1.384 1_554 S
C144 H157 0.947 1_554 S
C144 C179 1.382 . S
C145 C144 1.384 1_556 S
C145 C146 1.378 . S
C146 C145 1.378 . S
C146 C147 1.378 1_556 S
C146 H158 0.952 . S
C147 C146 1.378 1_554 S
C147 H159 0.950 . S
C147 C178 1.383 . S
H148 C167 0.947 . S
H149 C168 0.946 . S
H150 C170 0.953 . S
H151 C171 0.945 . S
H152 C173 0.952 . S
H153 C174 0.949 . S
H154 C176 0.950 . S
H155 C177 0.948 . S
H156 C179 0.951 . S
H157 C144 0.947 1_556 S
H158 C146 0.952 . S
H159 C147 0.950 . S
N160 C163 1.382 . S
N160 C165 1.363 . S
N161 C163 1.371 . S
N161 C164 1.372 . S
N162 C164 1.361 . S
N162 C165 1.377 . S
C163 N160 1.382 . S
C163 N161 1.371 . S
C163 C166 1.480 . S
C164 N161 1.372 . S
C164 N162 1.361 . S
C164 C172 1.457 . S
C165 N160 1.363 . S
C165 N162 1.377 . S
C165 C178 1.479 . S
C166 C163 1.480 . S
C166 C167 1.383 . S
C166 C171 1.385 . S
C167 H148 0.947 . S
C167 C166 1.383 . S
C167 C168 1.388 . S
C168 H149 0.946 . S
C168 C167 1.388 . S
C168 C169 1.384 . S
C169 C168 1.384 . S
C169 C170 1.377 . S
C170 H150 0.953 . S
C170 C169 1.377 . S
C170 C171 1.369 . S
C171 H151 0.945 . S
C171 C166 1.385 . S
C171 C170 1.369 . S
C172 C164 1.457 . S
C172 C173 1.372 . S
C172 C177 1.364 . S
C173 H152 0.952 . S
C173 C172 1.372 . S
C173 C174 1.389 . S
C174 H153 0.949 . S
C174 C173 1.389 . S
C174 C175 1.387 . S
C175 C174 1.387 . S
C175 C176 1.372 . S
C176 H154 0.950 . S
C176 C175 1.372 . S
C176 C177 1.379 . S
C177 H155 0.948 . S
C177 C172 1.364 . S
C177 C176 1.379 . S
C178 C147 1.383 . S
C178 C165 1.479 . S
C178 C179 1.398 . S
C179 C144 1.382 . S
C179 H156 0.951 . S
C179 C178 1.398 . S
C180 C181 1.384 . S
C180 H193 0.947 . S
C180 C215 1.382 . S
C181 C180 1.384 . S
C181 C182 1.378 . S
C182 C181 1.378 . S
C182 C183 1.378 . S
C182 H194 0.952 1_554 S
C183 C182 1.378 . S
C183 H195 0.950 . S
C183 C214 1.383 . S
H184 C203 0.947 . S
H185 C204 0.946 . S
H186 C206 0.953 . S
H187 C207 0.945 . S
H188 C209 0.952 . S
H189 C210 0.949 . S
H190 C212 0.950 . S
H191 C213 0.948 . S
H192 C215 0.951 . S
H193 C180 0.947 . S
H194 C182 0.952 1_556 S
H195 C183 0.950 . S
N196 C199 1.382 . S
N196 C201 1.363 . S
N197 C199 1.371 . S
N197 C200 1.372 . S
N198 C200 1.361 . S
N198 C201 1.377 . S
C199 N196 1.382 . S
C199 N197 1.371 . S
C199 C202 1.480 . S
C200 N197 1.372 . S
C200 N198 1.361 . S
C200 C208 1.457 . S
C201 N196 1.363 . S
C201 N198 1.377 . S
C201 C214 1.479 . S
C202 C199 1.480 . S
C202 C203 1.383 . S
C202 C207 1.385 . S
C203 H184 0.947 . S
C203 C202 1.383 . S
C203 C204 1.388 . S
C204 H185 0.946 . S
C204 C203 1.388 . S
C204 C205 1.384 . S
C205 C204 1.384 . S
C205 C206 1.377 . S
C206 H186 0.953 . S
C206 C205 1.377 . S
C206 C207 1.369 . S
C207 H187 0.945 . S
C207 C202 1.385 . S
C207 C206 1.369 . S
C208 C200 1.457 . S
C208 C209 1.372 . S
C208 C213 1.364 . S
C209 H188 0.952 . S
C209 C208 1.372 . S
C209 C210 1.389 . S
C210 H189 0.949 . S
C210 C209 1.389 . S
C210 C211 1.387 . S
C211 C210 1.387 . S
C211 C212 1.372 . S
C212 H190 0.950 . S
C212 C211 1.372 . S
C212 C213 1.379 . S
C213 H191 0.948 . S
C213 C208 1.364 . S
C213 C212 1.379 . S
C214 C183 1.383 . S
C214 C201 1.479 . S
C214 C215 1.398 . S
C215 C180 1.382 . S
C215 H192 0.951 . S
C215 C214 1.398 . S
C216 C217 1.383 1_554 S
C216 H229 0.948 1_544 S
C216 C251 1.383 . S
C217 C216 1.383 1_556 S
C217 C218 1.378 . S
C218 C217 1.378 . S
C218 C219 1.378 1_556 S
C218 H230 0.952 . S
C219 C218 1.378 1_554 S
C219 H231 0.950 . S
C219 C250 1.383 . S
H220 C239 0.947 . S
H221 C240 0.947 . S
H222 C242 0.953 . S
H223 C243 0.945 . S
H224 C245 0.947 1_565 S
H225 C246 0.957 . S
H226 C248 0.950 . S
H227 C249 0.948 . S
H228 C251 0.949 1_565 S
H229 C216 0.948 1_566 S
H230 C218 0.952 . S
H231 C219 0.950 . S
N232 C235 1.382 . S
N232 C237 1.363 . S
N233 C235 1.371 . S
N233 C236 1.372 . S
N234 C236 1.361 . S
N234 C237 1.377 . S
C235 N232 1.382 . S
C235 N233 1.371 . S
C235 C238 1.480 . S
C236 N233 1.372 . S
C236 N234 1.361 . S
C236 C244 1.457 . S
C237 N232 1.363 . S
C237 N234 1.377 . S
C237 C250 1.479 . S
C238 C235 1.480 . S
C238 C239 1.383 . S
C238 C243 1.385 . S
C239 H220 0.947 . S
C239 C238 1.383 . S
C239 C240 1.387 1_545 S
C240 H221 0.947 . S
C240 C239 1.387 1_565 S
C240 C241 1.384 1_565 S
C241 C240 1.384 1_545 S
C241 C242 1.377 . S
C242 H222 0.953 . S
C242 C241 1.377 . S
C242 C243 1.369 . S
C243 H223 0.945 . S
C243 C238 1.385 . S
C243 C242 1.369 . S
C244 C236 1.457 . S
C244 C245 1.382 . S
C244 C249 1.364 . S
C245 H224 0.947 1_545 S
C245 C244 1.382 . S
C245 C246 1.381 1_545 S
C246 H225 0.957 . S
C246 C245 1.381 1_565 S
C246 C247 1.383 1_565 S
C247 C246 1.383 1_545 S
C247 C248 1.372 . S
C248 H226 0.950 . S
C248 C247 1.372 . S
C248 C249 1.379 . S
C249 H227 0.948 . S
C249 C244 1.364 . S
C249 C248 1.379 . S
C250 C219 1.383 . S
C250 C237 1.479 . S
C250 C251 1.399 . S
C251 C216 1.383 . S
C251 H228 0.949 1_545 S
C251 C250 1.399 . S
C252 C253 1.384 . S
C252 H265 0.947 . S
C252 C287 1.382 . S
C253 C252 1.384 . S
C253 C254 1.378 . S
C254 C253 1.378 . S
C254 C255 1.378 . S
C254 H266 0.952 . S
C255 C254 1.378 . S
C255 H267 0.950 . S
C255 C286 1.383 . S
H256 C275 0.947 . S
H257 C276 0.946 . S
H258 C278 0.953 . S
H259 C279 0.945 . S
H260 C281 0.952 . S
H261 C282 0.949 . S
H262 C284 0.950 . S
H263 C285 0.948 . S
H264 C287 0.951 . S
H265 C252 0.947 . S
H266 C254 0.952 . S
H267 C255 0.950 . S
N268 C271 1.382 . S
N268 C273 1.363 . S
N269 C271 1.371 . S
N269 C272 1.372 . S
N270 C272 1.361 . S
N270 C273 1.377 . S
C271 N268 1.382 . S
C271 N269 1.371 . S
C271 C274 1.480 . S
C272 N269 1.372 . S
C272 N270 1.361 . S
C272 C280 1.457 . S
C273 N268 1.363 . S
C273 N270 1.377 . S
C273 C286 1.479 . S
C274 C271 1.480 . S
C274 C275 1.383 . S
C274 C279 1.385 . S
C275 H256 0.947 . S
C275 C274 1.383 . S
C275 C276 1.388 . S
C276 H257 0.946 . S
C276 C275 1.388 . S
C276 C277 1.384 . S
C277 C276 1.384 . S
C277 C278 1.377 . S
C278 H258 0.953 . S
C278 C277 1.377 . S
C278 C279 1.369 . S
C279 H259 0.945 . S
C279 C274 1.385 . S
C279 C278 1.369 . S
C280 C272 1.457 . S
C280 C281 1.372 . S
C280 C285 1.364 . S
C281 H260 0.952 . S
C281 C280 1.372 . S
C281 C282 1.389 . S
C282 H261 0.949 . S
C282 C281 1.389 . S
C282 C283 1.387 . S
C283 C282 1.387 . S
C283 C284 1.372 . S
C284 H262 0.950 . S
C284 C283 1.372 . S
C284 C285 1.379 . S
C285 H263 0.948 . S
C285 C280 1.364 . S
C285 C284 1.379 . S
C286 C255 1.383 . S
C286 C273 1.479 . S
C286 C287 1.398 . S
C287 C252 1.382 . S
C287 H264 0.951 . S
C287 C286 1.398 . S
Tb288 C297 2.762 1_655 S
Tb288 O298 2.325 1_655 S
Tb288 O301 2.303 1_655 S
Tb288 O305 2.322 1_545 S
Tb288 O306 2.349 . S
Tb288 O309 2.415 1_655 S
Tb288 O310 2.399 . S
Tb289 O299 2.322 1_565 S
Tb289 O300 2.349 . S
Tb289 O302 2.415 . S
Tb289 O303 2.399 . S
Tb289 O304 2.325 . S
Tb289 O307 2.303 1_455 S
Tb289 C318 2.764 . S
C290 O306 1.261 . S
C290 O307 1.257 1_545 S
C291 C294 1.358 1_455 S
C291 C295 1.332 . S
C291 C297 1.506 . S
C292 C293 1.373 1_455 S
C292 C296 1.308 . S
C293 C292 1.373 1_655 S
C293 C294 1.429 . S
C293 H320 0.932 . S
C294 C291 1.358 1_655 S
C294 C293 1.429 . S
C294 H321 0.930 . S
C295 C291 1.332 . S
C295 C296 1.394 . S
C295 H322 0.932 . S
C296 C292 1.308 . S
C296 C295 1.394 . S
C296 H323 0.929 . S
C297 Tb288 2.762 1_455 S
C297 C291 1.506 . S
C297 O309 1.269 . S
C297 O310 1.231 1_455 S
O298 Tb288 2.325 1_455 S
O298 C308 1.236 . S
O299 Tb289 2.322 1_545 S
O299 C308 1.257 . S
O300 Tb289 2.349 . S
O300 C311 1.261 . S
O301 Tb288 2.303 1_455 S
O301 C311 1.257 1_545 S
O302 Tb289 2.415 . S
O302 C318 1.239 . S
O303 Tb289 2.399 . S
O303 C318 1.263 . S
O304 Tb289 2.325 . S
O304 C319 1.236 1_455 S
O305 Tb288 2.322 1_565 S
O305 C319 1.257 . S
O306 Tb288 2.349 . S
O306 C290 1.261 . S
O307 Tb289 2.303 1_655 S
O307 C290 1.257 1_565 S
C308 O298 1.236 . S
C308 O299 1.257 . S
O309 Tb288 2.415 1_455 S
O309 C297 1.269 . S
O310 Tb288 2.399 . S
O310 C297 1.231 1_655 S
C311 O300 1.261 . S
C311 O301 1.257 1_565 S
C312 C315 1.358 . S
C312 C316 1.332 . S
C312 C318 1.504 . S
C313 C314 1.373 . S
C313 C317 1.308 . S
C314 C313 1.373 . S
C314 C315 1.429 . S
C314 H324 0.932 . S
C315 C312 1.358 . S
C315 C314 1.429 . S
C315 H325 0.930 . S
C316 C312 1.332 . S
C316 C317 1.394 . S
C316 H326 0.932 1_455 S
C317 C313 1.308 . S
C317 C316 1.394 . S
C317 H327 0.929 1_455 S
C318 Tb289 2.764 . S
C318 O302 1.239 . S
C318 O303 1.263 . S
C318 C312 1.504 . S
C319 O304 1.236 1_655 S
C319 O305 1.257 . S
H320 C293 0.932 . S
H321 C294 0.930 . S
H322 C295 0.932 . S
H323 C296 0.929 . S
H324 C314 0.932 . S
H325 C315 0.930 . S
H326 C316 0.932 1_655 S
H327 C317 0.929 1_655 S
Tb328 C337 2.764 . S
Tb328 O338 2.325 . S
Tb328 O341 2.303 1_565 S
Tb328 O345 2.322 . S
Tb328 O346 2.349 . S
Tb328 O349 2.415 1_565 S
Tb328 O350 2.399 . S
Tb329 O339 2.322 . S
Tb329 O340 2.349 . S
Tb329 O342 2.415 1_545 S
Tb329 O343 2.399 . S
Tb329 O344 2.325 . S
Tb329 O347 2.303 1_545 S
Tb329 C358 2.764 . S
C330 O346 1.261 . S
C330 O347 1.257 . S
C331 C334 1.358 . S
C331 C335 1.332 . S
C331 C337 1.504 . S
C332 C333 1.373 . S
C332 C336 1.308 . S
C333 C332 1.373 . S
C333 C334 1.429 . S
C333 H360 0.932 . S
C334 C331 1.358 . S
C334 C333 1.429 . S
C334 H361 0.930 . S
C335 C331 1.332 . S
C335 C336 1.394 . S
C335 H362 0.932 1_565 S
C336 C332 1.308 . S
C336 C335 1.394 . S
C336 H363 0.929 1_565 S
C337 Tb328 2.764 . S
C337 C331 1.504 . S
C337 O349 1.239 1_565 S
C337 O350 1.263 . S
O338 Tb328 2.325 . S
O338 C348 1.236 1_565 S
O339 Tb329 2.322 . S
O339 C348 1.257 . S
O340 Tb329 2.349 . S
O340 C351 1.261 . S
O341 Tb328 2.303 1_545 S
O341 C351 1.257 . S
O342 Tb329 2.415 1_565 S
O342 C358 1.239 1_565 S
O343 Tb329 2.399 . S
O343 C358 1.263 . S
O344 Tb329 2.325 . S
O344 C359 1.236 1_545 S
O345 Tb328 2.322 . S
O345 C359 1.257 . S
O346 Tb328 2.349 . S
O346 C330 1.261 . S
O347 Tb329 2.303 1_565 S
O347 C330 1.257 . S
C348 O338 1.236 1_545 S
C348 O339 1.257 . S
O349 Tb328 2.415 1_545 S
O349 C337 1.239 1_545 S
O350 Tb328 2.399 . S
O350 C337 1.263 . S
C351 O340 1.261 . S
C351 O341 1.257 . S
C352 C355 1.358 . S
C352 C356 1.332 . S
C352 C358 1.504 . S
C353 C354 1.373 . S
C353 C357 1.308 . S
C354 C353 1.373 . S
C354 C355 1.429 . S
C354 H364 0.932 . S
C355 C352 1.358 . S
C355 C354 1.429 . S
C355 H365 0.930 . S
C356 C352 1.332 . S
C356 C357 1.394 . S
C356 H366 0.932 1_545 S
C357 C353 1.308 . S
C357 C356 1.394 . S
C357 H367 0.929 1_545 S
C358 Tb329 2.764 . S
C358 O342 1.239 1_545 S
C358 O343 1.263 . S
C358 C352 1.504 . S
C359 O344 1.236 1_565 S
C359 O345 1.257 . S
H360 C333 0.932 . S
H361 C334 0.930 . S
H362 C335 0.932 1_545 S
H363 C336 0.929 1_545 S
H364 C354 0.932 . S
H365 C355 0.930 . S
H366 C356 0.932 1_565 S
H367 C357 0.929 1_565 S
Tb368 C377 2.764 . S
Tb368 O378 2.325 . S
Tb368 O381 2.303 . S
Tb368 O385 2.322 . S
Tb368 O386 2.349 . S
Tb368 O389 2.415 . S
Tb368 O390 2.399 . S
Tb369 O379 2.322 . S
Tb369 O380 2.349 . S
Tb369 O382 2.415 . S
Tb369 O383 2.399 . S
Tb369 O384 2.325 . S
Tb369 O387 2.303 . S
Tb369 C398 2.764 . S
C370 O386 1.261 . S
C370 O387 1.257 . S
C371 C374 1.358 . S
C371 C375 1.332 . S
C371 C377 1.504 . S
C372 C373 1.373 . S
C372 C376 1.308 . S
C373 C372 1.373 . S
C373 C374 1.429 . S
C373 H400 0.932 . S
C374 C371 1.358 . S
C374 C373 1.429 . S
C374 H401 0.930 . S
C375 C371 1.332 . S
C375 C376 1.394 . S
C375 H402 0.932 . S
C376 C372 1.308 . S
C376 C375 1.394 . S
C376 H403 0.929 . S
C377 Tb368 2.764 . S
C377 C371 1.504 . S
C377 O389 1.239 . S
C377 O390 1.263 . S
O378 Tb368 2.325 . S
O378 C388 1.236 . S
O379 Tb369 2.322 . S
O379 C388 1.257 . S
O380 Tb369 2.349 . S
O380 C391 1.261 . S
O381 Tb368 2.303 . S
O381 C391 1.257 . S
O382 Tb369 2.415 . S
O382 C398 1.239 . S
O383 Tb369 2.399 . S
O383 C398 1.263 . S
O384 Tb369 2.325 . S
O384 C399 1.236 . S
O385 Tb368 2.322 . S
O385 C399 1.257 . S
O386 Tb368 2.349 . S
O386 C370 1.261 . S
O387 Tb369 2.303 . S
O387 C370 1.257 . S
C388 O378 1.236 . S
C388 O379 1.257 . S
O389 Tb368 2.415 . S
O389 C377 1.239 . S
O390 Tb368 2.399 . S
O390 C377 1.263 . S
C391 O380 1.261 . S
C391 O381 1.257 . S
C392 C395 1.358 . S
C392 C396 1.332 . S
C392 C398 1.504 . S
C393 C394 1.373 . S
C393 C397 1.308 . S
C394 C393 1.373 . S
C394 C395 1.429 . S
C394 H404 0.932 . S
C395 C392 1.358 . S
C395 C394 1.429 . S
C395 H405 0.930 . S
C396 C392 1.332 . S
C396 C397 1.394 . S
C396 H406 0.932 . S
C397 C393 1.308 . S
C397 C396 1.394 . S
C397 H407 0.929 . S
C398 Tb369 2.764 . S
C398 O382 1.239 . S
C398 O383 1.263 . S
C398 C392 1.504 . S
C399 O384 1.236 . S
C399 O385 1.257 . S
H400 C373 0.932 . S
H401 C374 0.930 . S
H402 C375 0.932 . S
H403 C376 0.929 . S
H404 C394 0.932 . S
H405 C395 0.930 . S
H406 C396 0.932 . S
H407 C397 0.929 . S
Tb408 C417 2.764 . S
Tb408 O418 2.325 . S
Tb408 O421 2.303 . S
Tb408 O425 2.322 1_455 S
Tb408 O426 2.349 . S
Tb408 O429 2.415 . S
Tb408 O430 2.399 . S
Tb409 O419 2.298 1_655 S
Tb409 O420 2.343 1_655 S
Tb409 O422 2.436 . S
Tb409 O423 2.417 . S
Tb409 O424 2.341 . S
Tb409 O427 2.300 1_655 S
Tb409 C438 2.786 . S
C410 O426 1.261 . S
C410 O427 1.257 . S
C411 C414 1.358 . S
C411 C415 1.332 . S
C411 C417 1.504 . S
C412 C413 1.373 . S
C412 C416 1.308 . S
C413 C412 1.373 . S
C413 C414 1.429 . S
C413 H440 0.932 . S
C414 C411 1.358 . S
C414 C413 1.429 . S
C414 H441 0.930 . S
C415 C411 1.332 . S
C415 C416 1.394 . S
C415 H442 0.932 . S
C416 C412 1.308 . S
C416 C415 1.394 . S
C416 H443 0.929 . S
C417 Tb408 2.764 . S
C417 C411 1.504 . S
C417 O429 1.239 . S
C417 O430 1.263 . S
O418 Tb408 2.325 . S
O418 C428 1.236 . S
O419 Tb409 2.298 1_455 S
O419 C428 1.257 . S
O420 Tb409 2.343 1_455 S
O420 C431 1.261 . S
O421 Tb408 2.303 . S
O421 C431 1.257 . S
O422 Tb409 2.436 . S
O422 C438 1.239 . S
O423 Tb409 2.417 . S
O423 C438 1.263 . S
O424 Tb409 2.341 . S
O424 C439 1.236 . S
O425 Tb408 2.322 1_655 S
O425 C439 1.257 . S
O426 Tb408 2.349 . S
O426 C410 1.261 . S
O427 Tb409 2.300 1_455 S
O427 C410 1.257 . S
C428 O418 1.236 . S
C428 O419 1.257 . S
O429 Tb408 2.415 . S
O429 C417 1.239 . S
O430 Tb408 2.399 . S
O430 C417 1.263 . S
C431 O420 1.261 . S
C431 O421 1.257 . S
C432 C435 1.358 . S
C432 C436 1.332 . S
C432 C438 1.504 . S
C433 C434 1.373 . S
C433 C437 1.308 . S
C434 C433 1.373 . S
C434 C435 1.429 . S
C434 H444 0.932 . S
C435 C432 1.358 . S
C435 C434 1.429 . S
C435 H445 0.930 . S
C436 C432 1.332 . S
C436 C437 1.394 . S
C436 H446 0.932 . S
C437 C433 1.308 . S
C437 C436 1.394 . S
C437 H447 0.929 . S
C438 Tb409 2.786 . S
C438 O422 1.239 . S
C438 O423 1.263 . S
C438 C432 1.504 . S
C439 O424 1.236 . S
C439 O425 1.257 . S
H440 C413 0.932 . S
H441 C414 0.930 . S
H442 C415 0.932 . S
H443 C416 0.929 . S
H444 C434 0.932 . S
H445 C435 0.930 . S
H446 C436 0.932 . S
H447 C437 0.929 . S
H448 C456 0.929 . S
H449 C458 0.930 . S
H450 C460 0.930 . S
H451 C463 0.929 . S
H452 C466 0.930 . S
H453 C468 0.960 . S
H454 C468 0.960 . S
H455 C468 0.960 . S
C456 H448 0.929 . S
C456 C457 1.381 . S
C456 C458 1.384 . S
C457 C456 1.381 . S
C457 C463 1.385 1_545 S
C458 H449 0.930 . S
C458 C456 1.384 . S
C458 C459 1.378 . S
C459 C458 1.378 . S
C459 C460 1.395 1_545 S
C459 C464 1.487 1_545 S
C460 H450 0.930 . S
C460 C459 1.395 1_565 S
C460 C463 1.386 . S
H461 C477 0.930 . S
H462 C478 0.931 . S
C463 H451 0.929 . S
C463 C457 1.385 1_565 S
C463 C460 1.386 . S
C464 C459 1.487 1_565 S
C464 C466 1.399 . S
C464 C467 1.400 1_565 S
H465 C471 0.930 . S
C466 H452 0.930 . S
C466 C464 1.399 . S
C466 C469 1.403 . S
C467 C464 1.400 1_545 S
C467 C468 1.524 . S
C467 C471 1.400 . S
C468 H453 0.960 . S
C468 H454 0.960 . S
C468 H455 0.960 . S
C468 C467 1.524 . S
C469 C466 1.403 . S
C469 C470 1.392 . S
C469 C473 1.495 . S
C470 C469 1.392 . S
C470 C471 1.385 1_565 S
C470 C472 1.478 . S
C471 H465 0.930 . S
C471 C467 1.400 . S
C471 C470 1.385 1_545 S
C472 C470 1.478 . S
C472 C474 1.381 1_565 S
C472 C478 1.383 . S
C473 C469 1.495 . S
C473 H479 0.959 . S
C473 H480 0.961 . S
C473 H481 0.960 . S
C474 C472 1.381 1_545 S
C474 C475 1.394 . S
C474 H482 0.930 . S
C475 C474 1.394 . S
C475 C476 1.383 1_545 S
C475 H483 0.929 . S
C476 C475 1.383 1_565 S
C476 C477 1.377 . S
C477 H461 0.930 . S
C477 C476 1.377 . S
C477 C478 1.379 . S
C478 H462 0.931 . S
C478 C472 1.383 . S
C478 C477 1.379 . S
H479 C473 0.959 . S
H480 C473 0.961 . S
H481 C473 0.960 . S
H482 C474 0.930 . S
H483 C475 0.929 . S
H484 C492 0.929 . S
H485 C494 0.930 . S
H486 C496 0.930 . S
H487 C499 0.929 . S
H488 C502 0.930 . S
H489 C504 0.960 . S
H490 C504 0.960 . S
H491 C504 0.960 . S
C492 H484 0.929 . S
C492 C493 1.377 . S
C492 C494 1.384 . S
C493 C492 1.377 . S
C493 C499 1.390 . S
C494 H485 0.930 . S
C494 C492 1.384 . S
C494 C495 1.372 . S
C495 C494 1.372 . S
C495 C496 1.400 . S
C495 C500 1.490 . S
C496 H486 0.930 . S
C496 C495 1.400 . S
C496 C499 1.386 . S
H497 C513 0.930 . S
H498 C514 0.931 . S
C499 H487 0.929 . S
C499 C493 1.390 . S
C499 C496 1.386 . S
C500 C495 1.490 . S
C500 C502 1.395 . S
C500 C503 1.403 . S
H501 C507 0.930 . S
C502 H488 0.930 . S
C502 C500 1.395 . S
C502 C505 1.403 . S
C503 C500 1.403 . S
C503 C504 1.524 . S
C503 C507 1.400 . S
C504 H489 0.960 . S
C504 H490 0.960 . S
C504 H491 0.960 . S
C504 C503 1.524 . S
C505 C502 1.403 . S
C505 C506 1.392 . S
C505 C509 1.495 . S
C506 C505 1.392 . S
C506 C507 1.385 . S
C506 C508 1.478 . S
C507 H501 0.930 . S
C507 C503 1.400 . S
C507 C506 1.385 . S
C508 C506 1.478 . S
C508 C510 1.381 . S
C508 C514 1.383 . S
C509 C505 1.495 . S
C509 H515 0.959 . S
C509 H516 0.961 . S
C509 H517 0.960 . S
C510 C508 1.381 . S
C510 C511 1.394 . S
C510 H518 0.930 . S
C511 C510 1.394 . S
C511 C512 1.383 . S
C511 H519 0.929 . S
C512 C511 1.383 . S
C512 C513 1.377 . S
C513 H497 0.930 . S
C513 C512 1.377 . S
C513 C514 1.379 . S
C514 H498 0.931 . S
C514 C508 1.383 . S
C514 C513 1.379 . S
H515 C509 0.959 . S
H516 C509 0.961 . S
H517 C509 0.960 . S
H518 C510 0.930 . S
H519 C511 0.929 . S
H520 C528 0.929 . S
H521 C530 0.930 . S
H522 C532 0.930 . S
H523 C535 0.929 . S
H524 C538 0.930 . S
H525 C540 0.960 . S
H526 C540 0.960 . S
H527 C540 0.960 . S
C528 H520 0.929 . S
C528 C529 1.377 . S
C528 C530 1.384 . S
C529 C528 1.377 . S
C529 C535 1.390 . S
C530 H521 0.930 . S
C530 C528 1.384 . S
C530 C531 1.372 . S
C531 C530 1.372 . S
C531 C532 1.400 . S
C531 C536 1.490 . S
C532 H522 0.930 . S
C532 C531 1.400 . S
C532 C535 1.386 . S
H533 C549 0.930 . S
H534 C550 0.931 . S
C535 H523 0.929 . S
C535 C529 1.390 . S
C535 C532 1.386 . S
C536 C531 1.490 . S
C536 C538 1.395 . S
C536 C539 1.403 . S
H537 C543 0.930 . S
C538 H524 0.930 . S
C538 C536 1.395 . S
C538 C541 1.403 . S
C539 C536 1.403 . S
C539 C540 1.524 . S
C539 C543 1.400 . S
C540 H525 0.960 . S
C540 H526 0.960 . S
C540 H527 0.960 . S
C540 C539 1.524 . S
C541 C538 1.403 . S
C541 C542 1.392 . S
C541 C545 1.495 . S
C542 C541 1.392 . S
C542 C543 1.385 . S
C542 C544 1.478 . S
C543 H537 0.930 . S
C543 C539 1.400 . S
C543 C542 1.385 . S
C544 C542 1.478 . S
C544 C546 1.381 . S
C544 C550 1.383 . S
C545 C541 1.495 . S
C545 H551 0.959 . S
C545 H552 0.961 . S
C545 H553 0.960 . S
C546 C544 1.381 . S
C546 C547 1.394 . S
C546 H554 0.930 . S
C547 C546 1.394 . S
C547 C548 1.383 . S
C547 H555 0.929 . S
C548 C547 1.383 . S
C548 C549 1.377 . S
C549 H533 0.930 . S
C549 C548 1.377 . S
C549 C550 1.379 . S
C550 H534 0.931 . S
C550 C544 1.383 . S
C550 C549 1.379 . S
H551 C545 0.959 . S
H552 C545 0.961 . S
H553 C545 0.960 . S
H554 C546 0.930 . S
H555 C547 0.929 . S
H556 C564 0.929 . S
H557 C566 0.930 . S
H558 C568 0.930 . S
H559 C571 0.929 . S
H560 C574 0.930 . S
H561 C576 0.960 . S
H562 C576 0.960 . S
H563 C576 0.960 . S
C564 H556 0.929 . S
C564 C565 1.377 . S
C564 C566 1.384 . S
C565 C564 1.377 . S
C565 C571 1.390 . S
C566 H557 0.930 . S
C566 C564 1.384 . S
C566 C567 1.372 . S
C567 C566 1.372 . S
C567 C568 1.400 . S
C567 C572 1.490 . S
C568 H558 0.930 . S
C568 C567 1.400 . S
C568 C571 1.386 . S
H569 C585 0.930 . S
H570 C586 0.931 . S
C571 H559 0.929 . S
C571 C565 1.390 . S
C571 C568 1.386 . S
C572 C567 1.490 . S
C572 C574 1.395 . S
C572 C575 1.403 . S
H573 C579 0.930 . S
C574 H560 0.930 . S
C574 C572 1.395 . S
C574 C577 1.403 . S
C575 C572 1.403 . S
C575 C576 1.524 . S
C575 C579 1.400 . S
C576 H561 0.960 . S
C576 H562 0.960 . S
C576 H563 0.960 . S
C576 C575 1.524 . S
C577 C574 1.403 . S
C577 C578 1.392 . S
C577 C581 1.495 . S
C578 C577 1.392 . S
C578 C579 1.385 . S
C578 C580 1.478 . S
C579 H573 0.930 . S
C579 C575 1.400 . S
C579 C578 1.385 . S
C580 C578 1.478 . S
C580 C582 1.381 . S
C580 C586 1.383 . S
C581 C577 1.495 . S
C581 H587 0.959 . S
C581 H588 0.961 . S
C581 H589 0.960 . S
C582 C580 1.381 . S
C582 C583 1.394 . S
C582 H590 0.930 . S
C583 C582 1.394 . S
C583 C584 1.383 . S
C583 H591 0.929 . S
C584 C583 1.383 . S
C584 C585 1.377 . S
C585 H569 0.930 . S
C585 C584 1.377 . S
C585 C586 1.379 . S
C586 H570 0.931 . S
C586 C580 1.383 . S
C586 C585 1.379 . S
H587 C581 0.959 . S
H588 C581 0.961 . S
H589 C581 0.960 . S
H590 C582 0.930 . S
H591 C583 0.929 . S
H592 C600 0.929 . S
H593 C602 0.930 . S
H594 C604 0.930 . S
H595 C607 0.929 . S
H596 C610 0.930 . S
H597 C612 0.960 1_556 S
H598 C612 0.960 . S
H599 C612 0.960 . S
C600 H592 0.929 . S
C600 C601 1.400 . S
C600 C602 1.384 . S
C601 C600 1.400 . S
C601 C607 1.370 1_545 S
C602 H593 0.930 . S
C602 C600 1.384 . S
C602 C603 1.372 . S
C603 C602 1.372 . S
C603 C604 1.400 1_545 S
C603 C608 1.490 . S
C604 H594 0.930 . S
C604 C603 1.400 1_565 S
C604 C607 1.386 . S
H605 C621 0.930 . S
H606 C622 0.931 . S
C607 H595 0.929 . S
C607 C601 1.370 1_565 S
C607 C604 1.386 . S
C608 C603 1.490 . S
C608 C610 1.395 . S
C608 C611 1.403 1_545 S
H609 C615 0.930 . S
C610 H596 0.930 . S
C610 C608 1.395 . S
C610 C613 1.403 . S
C611 C608 1.403 1_565 S
C611 C612 1.524 . S
C611 C615 1.400 1_554 S
C612 H597 0.960 1_554 S
C612 H598 0.960 . S
C612 H599 0.960 . S
C612 C611 1.524 . S
C613 C610 1.403 . S
C613 C614 1.392 1_554 S
C613 C617 1.495 . S
C614 C613 1.392 1_556 S
C614 C615 1.385 1_545 S
C614 C616 1.478 . S
C615 H609 0.930 . S
C615 C611 1.400 1_556 S
C615 C614 1.385 1_565 S
C616 C614 1.478 . S
C616 C618 1.381 . S
C616 C622 1.383 1_545 S
C617 C613 1.495 . S
C617 H623 0.959 . S
C617 H624 0.961 . S
C617 H625 0.960 . S
C618 C616 1.381 . S
C618 C619 1.394 . S
C618 H626 0.930 . S
C619 C618 1.394 . S
C619 C620 1.383 . S
C619 H627 0.929 . S
C620 C619 1.383 . S
C620 C621 1.377 1_545 S
C621 H605 0.930 . S
C621 C620 1.377 1_565 S
C621 C622 1.379 . S
C622 H606 0.931 . S
C622 C616 1.383 1_565 S
C622 C621 1.379 . S
H623 C617 0.959 . S
H624 C617 0.961 . S
H625 C617 0.960 . S
H626 C618 0.930 . S
H627 C619 0.929 . S
H628 C636 0.929 . S
H629 C638 0.930 . S
H630 C640 0.930 . S
H631 C643 0.929 1_554 S
H632 C646 0.930 . S
H633 C648 0.960 . S
H634 C648 0.960 . S
H635 C648 0.960 . S
C636 H628 0.929 . S
C636 C637 1.377 . S
C636 C638 1.384 . S
C637 C636 1.377 . S
C637 C643 1.390 . S
C638 H629 0.930 . S
C638 C636 1.384 . S
C638 C639 1.372 . S
C639 C638 1.372 . S
C639 C640 1.400 . S
C639 C644 1.490 . S
C640 H630 0.930 . S
C640 C639 1.400 . S
C640 C643 1.386 . S
H641 C657 0.930 . S
H642 C658 0.931 . S
C643 H631 0.929 1_556 S
C643 C637 1.390 . S
C643 C640 1.386 . S
C644 C639 1.490 . S
C644 C646 1.395 . S
C644 C647 1.403 . S
H645 C651 0.930 . S
C646 H632 0.930 . S
C646 C644 1.395 . S
C646 C649 1.403 . S
C647 C644 1.403 . S
C647 C648 1.524 . S
C647 C651 1.400 . S
C648 H633 0.960 . S
C648 H634 0.960 . S
C648 H635 0.960 . S
C648 C647 1.524 . S
C649 C646 1.403 . S
C649 C650 1.392 . S
C649 C653 1.495 . S
C650 C649 1.392 . S
C650 C651 1.385 . S
C650 C652 1.478 . S
C651 H645 0.930 . S
C651 C647 1.400 . S
C651 C650 1.385 . S
C652 C650 1.478 . S
C652 C654 1.381 . S
C652 C658 1.383 . S
C653 C649 1.495 . S
C653 H659 0.959 . S
C653 H660 0.961 . S
C653 H661 0.960 . S
C654 C652 1.381 . S
C654 C655 1.394 . S
C654 H662 0.930 . S
C655 C654 1.394 . S
C655 C656 1.383 . S
C655 H663 0.929 . S
C656 C655 1.383 . S
C656 C657 1.377 . S
C657 H641 0.930 . S
C657 C656 1.377 . S
C657 C658 1.379 . S
C658 H642 0.931 . S
C658 C652 1.383 . S
C658 C657 1.379 . S
H659 C653 0.959 . S
H660 C653 0.961 . S
H661 C653 0.960 . S
H662 C654 0.930 . S
H663 C655 0.929 . S
H664 C672 0.929 . S
H665 C674 0.930 . S
H666 C676 0.930 . S
H667 C679 0.929 . S
H668 C682 0.930 . S
H669 C684 0.960 . S
H670 C684 0.960 . S
H671 C684 0.960 . S
C672 H664 0.929 . S
C672 C673 1.377 . S
C672 C674 1.384 . S
C673 C672 1.377 . S
C673 C679 1.390 . S
C674 H665 0.930 . S
C674 C672 1.384 . S
C674 C675 1.372 . S
C675 C674 1.372 . S
C675 C676 1.400 . S
C675 C680 1.490 . S
C676 H666 0.930 . S
C676 C675 1.400 . S
C676 C679 1.386 . S
H677 C693 0.930 . S
H678 C694 0.931 . S
C679 H667 0.929 . S
C679 C673 1.390 . S
C679 C676 1.386 . S
C680 C675 1.490 . S
C680 C682 1.395 . S
C680 C683 1.403 . S
H681 C687 0.930 . S
C682 H668 0.930 . S
C682 C680 1.395 . S
C682 C685 1.403 1_554 S
C683 C680 1.403 . S
C683 C684 1.524 . S
C683 C687 1.400 . S
C684 H669 0.960 . S
C684 H670 0.960 . S
C684 H671 0.960 . S
C684 C683 1.524 . S
C685 C682 1.403 1_556 S
C685 C686 1.392 . S
C685 C689 1.495 . S
C686 C685 1.392 . S
C686 C687 1.385 1_556 S
C686 C688 1.478 . S
C687 H681 0.930 . S
C687 C683 1.400 . S
C687 C686 1.385 1_554 S
C688 C686 1.478 . S
C688 C690 1.381 . S
C688 C694 1.383 . S
C689 C685 1.495 . S
C689 H695 0.959 . S
C689 H696 0.961 . S
C689 H697 0.960 . S
C690 C688 1.381 . S
C690 C691 1.394 . S
C690 H698 0.930 . S
C691 C690 1.394 . S
C691 C692 1.383 . S
C691 H699 0.929 . S
C692 C691 1.383 . S
C692 C693 1.377 . S
C693 H677 0.930 . S
C693 C692 1.377 . S
C693 C694 1.379 . S
C694 H678 0.931 . S
C694 C688 1.383 . S
C694 C693 1.379 . S
H695 C689 0.959 . S
H696 C689 0.961 . S
H697 C689 0.960 . S
H698 C690 0.930 . S
H699 C691 0.929 . S
H700 C708 0.929 . S
H701 C710 0.930 . S
H702 C712 0.930 . S
H703 C715 0.929 . S
H704 C718 0.930 . S
H705 C720 0.960 1_556 S
H706 C720 0.960 . S
H707 C720 0.960 . S
C708 H700 0.929 . S
C708 C709 1.377 . S
C708 C710 1.384 . S
C709 C708 1.377 . S
C709 C715 1.390 . S
C710 H701 0.930 . S
C710 C708 1.384 . S
C710 C711 1.372 . S
C711 C710 1.372 . S
C711 C712 1.400 . S
C711 C716 1.490 . S
C712 H702 0.930 . S
C712 C711 1.400 . S
C712 C715 1.386 . S
H713 C729 0.930 . S
H714 C730 0.931 . S
C715 H703 0.929 . S
C715 C709 1.390 . S
C715 C712 1.386 . S
C716 C711 1.490 . S
C716 C718 1.395 . S
C716 C719 1.403 . S
H717 C723 0.930 . S
C718 H704 0.930 . S
C718 C716 1.395 . S
C718 C721 1.394 1_554 S
C719 C716 1.403 . S
C719 C720 1.524 . S
C719 C723 1.400 1_554 S
C720 H705 0.960 1_554 S
C720 H706 0.960 . S
C720 H707 0.960 . S
C720 C719 1.524 . S
C721 C718 1.394 1_556 S
C721 C722 1.403 . S
C721 C725 1.496 . S
C722 C721 1.403 . S
C722 C723 1.385 . S
C722 C724 1.478 . S
C723 H717 0.930 . S
C723 C719 1.400 1_556 S
C723 C722 1.385 . S
C724 C722 1.478 . S
C724 C726 1.381 . S
C724 C730 1.383 . S
C725 C721 1.496 . S
C725 H731 0.942 1_556 S
C725 H732 0.978 . S
C725 H733 0.957 1_556 S
C726 C724 1.381 . S
C726 C727 1.374 1_655 S
C726 H734 0.930 . S
C727 C726 1.374 1_455 S
C727 C728 1.368 1_455 S
C727 H735 0.969 . S
C728 C727 1.368 1_655 S
C728 C729 1.377 . S
C729 H713 0.930 . S
C729 C728 1.377 . S
C729 C730 1.379 . S
C730 H714 0.931 . S
C730 C724 1.383 . S
C730 C729 1.379 . S
H731 C725 0.942 1_554 S
H732 C725 0.978 . S
H733 C725 0.957 1_554 S
H734 C726 0.930 . S
H735 C727 0.969 . S
H736 C744 0.929 . S
H737 C746 0.930 . S
H738 C748 0.930 . S
H739 C751 0.929 . S
H740 C754 0.930 . S
H741 C756 0.960 . S
H742 C756 0.960 . S
H743 C756 0.960 . S
C744 H736 0.929 . S
C744 C745 1.377 . S
C744 C746 1.384 . S
C745 C744 1.377 . S
C745 C751 1.390 . S
C746 H737 0.930 . S
C746 C744 1.384 . S
C746 C747 1.372 . S
C747 C746 1.372 . S
C747 C748 1.400 . S
C747 C752 1.490 . S
C748 H738 0.930 . S
C748 C747 1.400 . S
C748 C751 1.386 . S
H749 C765 0.930 . S
H750 C766 0.931 . S
C751 H739 0.929 . S
C751 C745 1.390 . S
C751 C748 1.386 . S
C752 C747 1.490 . S
C752 C754 1.395 . S
C752 C755 1.403 . S
H753 C759 0.930 . S
C754 H740 0.930 . S
C754 C752 1.395 . S
C754 C757 1.403 . S
C755 C752 1.403 . S
C755 C756 1.524 . S
C755 C759 1.400 . S
C756 H741 0.960 . S
C756 H742 0.960 . S
C756 H743 0.960 . S
C756 C755 1.524 . S
C757 C754 1.403 . S
C757 C758 1.392 . S
C757 C761 1.495 . S
C758 C757 1.392 . S
C758 C759 1.385 . S
C758 C760 1.478 . S
C759 H753 0.930 . S
C759 C755 1.400 . S
C759 C758 1.385 . S
C760 C758 1.478 . S
C760 C762 1.381 . S
C760 C766 1.383 . S
C761 C757 1.495 . S
C761 H767 0.959 . S
C761 H768 0.961 1_455 S
C761 H769 0.960 . S
C762 C760 1.381 . S
C762 C763 1.394 . S
C762 H770 0.930 . S
C763 C762 1.394 . S
C763 C764 1.365 1_455 S
C763 H771 0.929 . S
C764 C763 1.365 1_655 S
C764 C765 1.381 . S
C765 H749 0.930 . S
C765 C764 1.381 . S
C765 C766 1.379 1_655 S
C766 H750 0.931 . S
C766 C760 1.383 . S
C766 C765 1.379 1_455 S
H767 C761 0.959 . S
H768 C761 0.961 1_655 S
H769 C761 0.960 . S
H770 C762 0.930 . S
H771 C763 0.929 . S
H772 C780 0.929 . S
H773 C782 0.930 . S
H774 C784 0.930 . S
H775 C787 0.929 . S
H776 C790 0.930 1_545 S
H777 C792 0.960 . S
H778 C792 0.960 . S
H779 C792 0.960 . S
C780 H772 0.929 . S
C780 C781 1.377 1_565 S
C780 C782 1.384 . S
C781 C780 1.377 1_545 S
C781 C787 1.390 . S
C782 H773 0.930 . S
C782 C780 1.384 . S
C782 C783 1.372 . S
C783 C782 1.372 . S
C783 C784 1.400 1_565 S
C783 C788 1.490 . S
C784 H774 0.930 . S
C784 C783 1.400 1_545 S
C784 C787 1.386 . S
H785 C801 0.930 . S
H786 C802 0.931 1_545 S
C787 H775 0.929 . S
C787 C781 1.390 . S
C787 C784 1.386 . S
C788 C783 1.490 . S
C788 C790 1.395 . S
C788 C791 1.403 . S
H789 C795 0.930 . S
C790 H776 0.930 1_565 S
C790 C788 1.395 . S
C790 C793 1.403 . S
C791 C788 1.403 . S
C791 C792 1.524 . S
C791 C795 1.400 . S
C792 H777 0.960 . S
C792 H778 0.960 . S
C792 H779 0.960 . S
C792 C791 1.524 . S
C793 C790 1.403 . S
C793 C794 1.392 . S
C793 C797 1.479 1_565 S
C794 C793 1.392 . S
C794 C795 1.385 . S
C794 C796 1.478 . S
C795 H789 0.930 . S
C795 C791 1.400 . S
C795 C794 1.385 . S
C796 C794 1.478 . S
C796 C798 1.381 . S
C796 C802 1.383 . S
C797 C793 1.479 1_545 S
C797 H803 0.985 . S
C797 H804 0.996 . S
C797 H805 0.919 1_545 S
C798 C796 1.381 . S
C798 C799 1.394 . S
C798 H806 0.930 . S
C799 C798 1.394 . S
C799 C800 1.383 . S
C799 H807 0.929 . S
C800 C799 1.383 . S
C800 C801 1.377 . S
C801 H785 0.930 . S
C801 C800 1.377 . S
C801 C802 1.379 . S
C802 H786 0.931 1_565 S
C802 C796 1.383 . S
C802 C801 1.379 . S
H803 C797 0.985 . S
H804 C797 0.996 . S
H805 C797 0.919 1_565 S
H806 C798 0.930 . S
H807 C799 0.929 . S
H808 C816 0.929 . S
H809 C818 0.930 . S
H810 C820 0.930 . S
H811 C823 0.929 . S
H812 C826 0.930 . S
H813 C828 0.960 . S
H814 C828 0.960 . S
H815 C828 0.960 . S
C816 H808 0.929 . S
C816 C817 1.377 . S
C816 C818 1.384 . S
C817 C816 1.377 . S
C817 C823 1.390 . S
C818 H809 0.930 . S
C818 C816 1.384 . S
C818 C819 1.372 . S
C819 C818 1.372 . S
C819 C820 1.400 . S
C819 C824 1.490 . S
C820 H810 0.930 . S
C820 C819 1.400 . S
C820 C823 1.386 . S
H821 C837 0.930 . S
H822 C838 0.931 . S
C823 H811 0.929 . S
C823 C817 1.390 . S
C823 C820 1.386 . S
C824 C819 1.490 . S
C824 C826 1.395 . S
C824 C827 1.403 . S
H825 C831 0.930 . S
C826 H812 0.930 . S
C826 C824 1.395 . S
C826 C829 1.403 . S
C827 C824 1.403 . S
C827 C828 1.524 . S
C827 C831 1.400 . S
C828 H813 0.960 . S
C828 H814 0.960 . S
C828 H815 0.960 . S
C828 C827 1.524 . S
C829 C826 1.403 . S
C829 C830 1.392 . S
C829 C833 1.495 . S
C830 C829 1.392 . S
C830 C831 1.385 . S
C830 C832 1.478 . S
C831 H825 0.930 . S
C831 C827 1.400 . S
C831 C830 1.385 . S
C832 C830 1.478 . S
C832 C834 1.381 . S
C832 C838 1.383 . S
C833 C829 1.495 . S
C833 H839 0.959 . S
C833 H840 0.961 . S
C833 H841 0.960 . S
C834 C832 1.381 . S
C834 C835 1.394 . S
C834 H842 0.930 . S
C835 C834 1.394 . S
C835 C836 1.383 . S
C835 H843 0.929 . S
C836 C835 1.383 . S
C836 C837 1.377 . S
C837 H821 0.930 . S
C837 C836 1.377 . S
C837 C838 1.379 . S
C838 H822 0.931 . S
C838 C832 1.383 . S
C838 C837 1.379 . S
H839 C833 0.959 . S
H840 C833 0.961 . S
H841 C833 0.960 . S
H842 C834 0.930 . S
H843 C835 0.929 . S
H844 C852 0.929 . S
H845 C854 0.930 . S
H846 C856 0.930 . S
H847 C859 0.929 . S
H848 C862 0.930 . S
H849 C864 0.960 . S
H850 C864 0.960 . S
H851 C864 0.960 . S
C852 H844 0.929 . S
C852 C853 1.377 . S
C852 C854 1.384 . S
C853 C852 1.377 . S
C853 C859 1.390 . S
C854 H845 0.930 . S
C854 C852 1.384 . S
C854 C855 1.372 . S
C855 C854 1.372 . S
C855 C856 1.400 . S
C855 C860 1.490 . S
C856 H846 0.930 . S
C856 C855 1.400 . S
C856 C859 1.386 . S
H857 C873 0.930 . S
H858 C874 0.931 . S
C859 H847 0.929 . S
C859 C853 1.390 . S
C859 C856 1.386 . S
C860 C855 1.490 . S
C860 C862 1.395 . S
C860 C863 1.403 . S
H861 C867 0.930 . S
C862 H848 0.930 . S
C862 C860 1.395 . S
C862 C865 1.403 . S
C863 C860 1.403 . S
C863 C864 1.524 . S
C863 C867 1.400 . S
C864 H849 0.960 . S
C864 H850 0.960 . S
C864 H851 0.960 . S
C864 C863 1.524 . S
C865 C862 1.403 . S
C865 C866 1.392 . S
C865 C869 1.495 . S
C866 C865 1.392 . S
C866 C867 1.385 . S
C866 C868 1.478 . S
C867 H861 0.930 . S
C867 C863 1.400 . S
C867 C866 1.385 . S
C868 C866 1.478 . S
C868 C870 1.381 . S
C868 C874 1.383 . S
C869 C865 1.495 . S
C869 H875 0.959 . S
C869 H876 0.961 . S
C869 H877 0.960 . S
C870 C868 1.381 . S
C870 C871 1.394 . S
C870 H878 0.930 . S
C871 C870 1.394 . S
C871 C872 1.383 . S
C871 H879 0.929 . S
C872 C871 1.383 . S
C872 C873 1.377 . S
C873 H857 0.930 . S
C873 C872 1.377 . S
C873 C874 1.379 . S
C874 H858 0.931 . S
C874 C868 1.383 . S
C874 C873 1.379 . S
H875 C869 0.959 . S
H876 C869 0.961 . S
H877 C869 0.960 . S
H878 C870 0.930 . S
H879 C871 0.929 . S
H880 C888 0.929 . S
H881 C890 0.930 . S
H882 C892 0.930 . S
H883 C895 0.929 . S
H884 C898 0.930 . S
H885 C900 0.960 . S
H886 C900 0.960 . S
H887 C900 0.960 . S
C888 H880 0.929 . S
C888 C889 1.377 . S
C888 C890 1.384 . S
C889 C888 1.377 . S
C889 C895 1.390 . S
C890 H881 0.930 . S
C890 C888 1.384 . S
C890 C891 1.372 . S
C891 C890 1.372 . S
C891 C892 1.400 . S
C891 C896 1.490 . S
C892 H882 0.930 . S
C892 C891 1.400 . S
C892 C895 1.386 . S
H893 C909 0.930 . S
H894 C910 0.931 . S
C895 H883 0.929 . S
C895 C889 1.390 . S
C895 C892 1.386 . S
C896 C891 1.490 . S
C896 C898 1.395 . S
C896 C899 1.403 1_554 S
H897 C903 0.930 . S
C898 H884 0.930 . S
C898 C896 1.395 . S
C898 C901 1.403 . S
C899 C896 1.403 1_556 S
C899 C900 1.524 . S
C899 C903 1.400 . S
C900 H885 0.960 . S
C900 H886 0.960 . S
C900 H887 0.960 . S
C900 C899 1.524 . S
C901 C898 1.403 . S
C901 C902 1.392 1_554 S
C901 C905 1.495 . S
C902 C901 1.392 1_556 S
C902 C903 1.385 . S
C902 C904 1.478 1_655 S
C903 H897 0.930 . S
C903 C899 1.400 . S
C903 C902 1.385 . S
C904 C902 1.478 1_455 S
C904 C906 1.381 1_455 S
C904 C910 1.383 . S
C905 C901 1.495 . S
C905 H911 0.959 . S
C905 H912 0.961 1_655 S
C905 H913 0.960 . S
C906 C904 1.381 1_655 S
C906 C907 1.394 1_655 S
C906 H914 0.930 . S
C907 C906 1.394 1_455 S
C907 C908 1.383 . S
C907 H915 0.929 1_455 S
C908 C907 1.383 . S
C908 C909 1.377 . S
C909 H893 0.930 . S
C909 C908 1.377 . S
C909 C910 1.379 . S
C910 H894 0.931 . S
C910 C904 1.383 . S
C910 C909 1.379 . S
H911 C905 0.959 . S
H912 C905 0.961 1_455 S
H913 C905 0.960 . S
H914 C906 0.930 . S
H915 C907 0.929 1_655 S
H916 C924 0.929 . S
H917 C926 0.930 . S
H918 C928 0.930 . S
H919 C931 0.929 . S
H920 C934 0.930 1_556 S
H921 C936 0.960 . S
H922 C936 0.960 . S
H923 C936 0.960 1_565 S
C924 H916 0.929 . S
C924 C925 1.377 1_545 S
C924 C926 1.384 . S
C925 C924 1.377 1_565 S
C925 C931 1.390 . S
C926 H917 0.930 . S
C926 C924 1.384 . S
C926 C927 1.372 . S
C927 C926 1.372 . S
C927 C928 1.400 1_545 S
C927 C932 1.490 . S
C928 H918 0.930 . S
C928 C927 1.400 1_565 S
C928 C931 1.386 . S
H929 C945 0.930 1_565 S
H930 C946 0.931 1_565 S
C931 H919 0.929 . S
C931 C925 1.390 . S
C931 C928 1.386 . S
C932 C927 1.490 . S
C932 C934 1.395 . S
C932 C935 1.403 . S
H933 C939 0.930 . S
C934 H920 0.930 1_554 S
C934 C932 1.395 . S
C934 C937 1.403 1_554 S
C935 C932 1.403 . S
C935 C936 1.524 . S
C935 C939 1.400 . S
C936 H921 0.960 . S
C936 H922 0.960 . S
C936 H923 0.960 1_545 S
C936 C935 1.524 . S
C937 C934 1.403 1_556 S
C937 C938 1.392 1_556 S
C937 C941 1.495 . S
C938 C937 1.392 1_554 S
C938 C939 1.385 . S
C938 C940 1.478 1_554 S
C939 H933 0.930 . S
C939 C935 1.400 . S
C939 C938 1.385 . S
C940 C938 1.478 1_556 S
C940 C942 1.381 . S
C940 C946 1.383 . S
C941 C937 1.495 . S
C941 H947 0.959 . S
C941 H948 0.961 . S
C941 H949 0.960 . S
C942 C940 1.381 . S
C942 C943 1.394 . S
C942 H950 0.930 . S
C943 C942 1.394 . S
C943 C944 1.383 . S
C943 H951 0.929 . S
C944 C943 1.383 . S
C944 C945 1.377 . S
C945 H929 0.930 1_545 S
C945 C944 1.377 . S
C945 C946 1.379 . S
C946 H930 0.931 1_545 S
C946 C940 1.383 . S
C946 C945 1.379 . S
H947 C941 0.959 . S
H948 C941 0.961 . S
H949 C941 0.960 . S
H950 C942 0.930 . S
H951 C943 0.929 . S
H952 C960 0.929 . S
H953 C962 0.930 . S
H954 C964 0.930 . S
H955 C967 0.929 . S
H956 C970 0.930 . S
H957 C972 0.960 . S
H958 C972 0.960 . S
H959 C972 0.960 . S
C960 H952 0.929 . S
C960 C961 1.377 . S
C960 C962 1.384 . S
C961 C960 1.377 . S
C961 C967 1.390 . S
C962 H953 0.930 . S
C962 C960 1.384 . S
C962 C963 1.372 . S
C963 C962 1.372 . S
C963 C964 1.400 . S
C963 C968 1.490 . S
C964 H954 0.930 . S
C964 C963 1.400 . S
C964 C967 1.386 . S
H965 C981 0.930 . S
H966 C982 0.931 . S
C967 H955 0.929 . S
C967 C961 1.390 . S
C967 C964 1.386 . S
C968 C963 1.490 . S
C968 C970 1.395 . S
C968 C971 1.403 . S
H969 C975 0.930 . S
C970 H956 0.930 . S
C970 C968 1.395 . S
C970 C973 1.403 . S
C971 C968 1.403 . S
C971 C972 1.524 . S
C971 C975 1.400 . S
C972 H957 0.960 . S
C972 H958 0.960 . S
C972 H959 0.960 . S
C972 C971 1.524 . S
C973 C970 1.403 . S
C973 C974 1.392 . S
C973 C977 1.495 . S
C974 C973 1.392 . S
C974 C975 1.385 . S
C974 C976 1.478 . S
C975 H969 0.930 . S
C975 C971 1.400 . S
C975 C974 1.385 . S
C976 C974 1.478 . S
C976 C978 1.381 . S
C976 C982 1.383 . S
C977 C973 1.495 . S
C977 H983 0.959 . S
C977 H984 0.961 . S
C977 H985 0.960 . S
C978 C976 1.381 . S
C978 C979 1.394 . S
C978 H986 0.930 . S
C979 C978 1.394 . S
C979 C980 1.383 . S
C979 H987 0.929 . S
C980 C979 1.383 . S
C980 C981 1.377 . S
C981 H965 0.930 . S
C981 C980 1.377 . S
C981 C982 1.379 . S
C982 H966 0.931 . S
C982 C976 1.383 . S
C982 C981 1.379 . S
H983 C977 0.959 . S
H984 C977 0.961 . S
H985 C977 0.960 . S
H986 C978 0.930 . S
H987 C979 0.929 . S
H988 C996 0.929 . S
H989 C998 0.930 . S
H990 C1000 0.930 . S
H991 C1003 0.929 . S
H992 C1006 0.930 . S
H993 C1008 0.960 . S
H994 C1008 0.960 . S
H995 C1008 0.960 . S
C996 H988 0.929 . S
C996 C997 1.377 . S
C996 C998 1.384 . S
C997 C996 1.377 . S
C997 C1003 1.390 . S
C998 H989 0.930 . S
C998 C996 1.384 . S
C998 C999 1.372 . S
C999 C998 1.372 . S
C999 C1000 1.400 . S
C999 C1004 1.490 . S
C1000 H990 0.930 . S
C1000 C999 1.400 . S
C1000 C1003 1.386 . S
H1001 C1017 0.930 . S
H1002 C1018 0.931 . S
C1003 H991 0.929 . S
C1003 C997 1.390 . S
C1003 C1000 1.386 . S
C1004 C999 1.490 . S
C1004 C1006 1.395 . S
C1004 C1007 1.403 . S
H1005 C1011 0.930 1_556 S
C1006 H992 0.930 . S
C1006 C1004 1.395 . S
C1006 C1009 1.403 . S
C1007 C1004 1.403 . S
C1007 C1008 1.524 . S
C1007 C1011 1.400 . S
C1008 H993 0.960 . S
C1008 H994 0.960 . S
C1008 H995 0.960 . S
C1008 C1007 1.524 . S
C1009 C1006 1.403 . S
C1009 C1010 1.392 . S
C1009 C1013 1.495 . S
C1010 C1009 1.392 . S
C1010 C1011 1.385 . S
C1010 C1012 1.478 1_554 S
C1011 H1005 0.930 1_554 S
C1011 C1007 1.400 . S
C1011 C1010 1.385 . S
C1012 C1010 1.478 1_556 S
C1012 C1014 1.389 . S
C1012 C1018 1.383 . S
C1013 C1009 1.495 . S
C1013 H1019 0.959 . S
C1013 H1020 0.961 . S
C1013 H1021 0.960 . S
C1014 C1012 1.389 . S
C1014 C1015 1.404 . S
C1014 H1022 0.912 1_556 S
C1015 C1014 1.404 . S
C1015 C1016 1.383 . S
C1015 H1023 0.929 . S
C1016 C1015 1.383 . S
C1016 C1017 1.377 . S
C1017 H1001 0.930 . S
C1017 C1016 1.377 . S
C1017 C1018 1.379 . S
C1018 H1002 0.931 . S
C1018 C1012 1.383 . S
C1018 C1017 1.379 . S
H1019 C1013 0.959 . S
H1020 C1013 0.961 . S
H1021 C1013 0.960 . S
H1022 C1014 0.912 1_554 S
H1023 C1015 0.929 . S
H1024 C1032 0.929 . S
H1025 C1034 0.930 . S
H1026 C1036 0.930 . S
H1027 C1039 0.929 . S
H1028 C1042 0.930 . S
H1029 C1044 0.960 . S
H1030 C1044 0.960 . S
H1031 C1044 0.960 . S
C1032 H1024 0.929 . S
C1032 C1033 1.377 . S
C1032 C1034 1.384 . S
C1033 C1032 1.377 . S
C1033 C1039 1.390 . S
C1034 H1025 0.930 . S
C1034 C1032 1.384 . S
C1034 C1035 1.372 . S
C1035 C1034 1.372 . S
C1035 C1036 1.400 . S
C1035 C1040 1.490 . S
C1036 H1026 0.930 . S
C1036 C1035 1.400 . S
C1036 C1039 1.386 . S
H1037 C1053 0.930 . S
H1038 C1054 0.931 . S
C1039 H1027 0.929 . S
C1039 C1033 1.390 . S
C1039 C1036 1.386 . S
C1040 C1035 1.490 . S
C1040 C1042 1.395 . S
C1040 C1043 1.403 . S
H1041 C1047 0.930 . S
C1042 H1028 0.930 . S
C1042 C1040 1.395 . S
C1042 C1045 1.403 . S
C1043 C1040 1.403 . S
C1043 C1044 1.524 . S
C1043 C1047 1.400 . S
C1044 H1029 0.960 . S
C1044 H1030 0.960 . S
C1044 H1031 0.960 . S
C1044 C1043 1.524 . S
C1045 C1042 1.403 . S
C1045 C1046 1.392 . S
C1045 C1049 1.495 . S
C1046 C1045 1.392 . S
C1046 C1047 1.385 . S
C1046 C1048 1.478 . S
C1047 H1041 0.930 . S
C1047 C1043 1.400 . S
C1047 C1046 1.385 . S
C1048 C1046 1.478 . S
C1048 C1050 1.381 . S
C1048 C1054 1.383 . S
C1049 C1045 1.495 . S
C1049 H1055 0.959 . S
C1049 H1056 0.961 . S
C1049 H1057 0.960 . S
C1050 C1048 1.381 . S
C1050 C1051 1.394 . S
C1050 H1058 0.930 . S
C1051 C1050 1.394 . S
C1051 C1052 1.383 . S
C1051 H1059 0.929 . S
C1052 C1051 1.383 . S
C1052 C1053 1.377 . S
C1053 H1037 0.930 . S
C1053 C1052 1.377 . S
C1053 C1054 1.379 . S
C1054 H1038 0.931 . S
C1054 C1048 1.383 . S
C1054 C1053 1.379 . S
H1055 C1049 0.959 . S
H1056 C1049 0.961 . S
H1057 C1049 0.960 . S
H1058 C1050 0.930 . S
H1059 C1051 0.929 . S
H1060 C1068 0.929 . S
H1061 C1070 0.930 . S
H1062 C1072 0.930 . S
H1063 C1075 0.929 . S
H1064 C1078 0.930 . S
H1065 C1080 0.960 . S
H1066 C1080 0.960 . S
H1067 C1080 0.960 . S
C1068 H1060 0.929 . S
C1068 C1069 1.370 1_565 S
C1068 C1070 1.384 . S
C1069 C1068 1.370 1_545 S
C1069 C1075 1.398 . S
C1070 H1061 0.930 . S
C1070 C1068 1.384 . S
C1070 C1071 1.355 1_565 S
C1071 C1070 1.355 1_545 S
C1071 C1072 1.416 . S
C1071 C1076 1.493 . S
C1072 H1062 0.930 . S
C1072 C1071 1.416 . S
C1072 C1075 1.386 . S
H1073 C1089 0.930 . S
H1074 C1090 0.931 . S
C1075 H1063 0.929 . S
C1075 C1069 1.398 . S
C1075 C1072 1.386 . S
C1076 C1071 1.493 . S
C1076 C1078 1.395 . S
C1076 C1079 1.403 1_545 S
H1077 C1083 0.930 . S
C1078 H1064 0.930 . S
C1078 C1076 1.395 . S
C1078 C1081 1.403 . S
C1079 C1076 1.403 1_565 S
C1079 C1080 1.524 . S
C1079 C1083 1.400 . S
C1080 H1065 0.960 . S
C1080 H1066 0.960 . S
C1080 H1067 0.960 . S
C1080 C1079 1.524 . S
C1081 C1078 1.403 . S
C1081 C1082 1.392 . S
C1081 C1085 1.495 . S
C1082 C1081 1.392 . S
C1082 C1083 1.385 1_545 S
C1082 C1084 1.478 . S
C1083 H1077 0.930 . S
C1083 C1079 1.400 . S
C1083 C1082 1.385 1_565 S
C1084 C1082 1.478 . S
C1084 C1086 1.381 1_545 S
C1084 C1090 1.383 . S
C1085 C1081 1.495 . S
C1085 H1091 0.959 . S
C1085 H1092 0.961 . S
C1085 H1093 0.960 . S
C1086 C1084 1.381 1_565 S
C1086 C1087 1.394 . S
C1086 H1094 0.930 . S
C1087 C1086 1.394 . S
C1087 C1088 1.383 1_565 S
C1087 H1095 0.929 . S
C1088 C1087 1.383 1_545 S
C1088 C1089 1.377 . S
C1089 H1073 0.930 . S
C1089 C1088 1.377 . S
C1089 C1090 1.379 . S
C1090 H1074 0.931 . S
C1090 C1084 1.383 . S
C1090 C1089 1.379 . S
H1091 C1085 0.959 . S
H1092 C1085 0.961 . S
H1093 C1085 0.960 . S
H1094 C1086 0.930 . S
H1095 C1087 0.929 . S
H1096 C1104 0.929 . S
H1097 C1106 0.930 . S
H1098 C1108 0.930 . S
H1099 C1111 0.929 . S
H1100 C1114 0.930 . S
H1101 C1116 0.960 . S
H1102 C1116 0.960 . S
H1103 C1116 0.960 . S
C1104 H1096 0.929 . S
C1104 C1105 1.377 . S
C1104 C1106 1.384 . S
C1105 C1104 1.377 . S
C1105 C1111 1.390 . S
C1106 H1097 0.930 . S
C1106 C1104 1.384 . S
C1106 C1107 1.372 . S
C1107 C1106 1.372 . S
C1107 C1108 1.400 . S
C1107 C1112 1.490 . S
C1108 H1098 0.930 . S
C1108 C1107 1.400 . S
C1108 C1111 1.386 . S
H1109 C1125 0.930 . S
H1110 C1126 0.931 . S
C1111 H1099 0.929 . S
C1111 C1105 1.390 . S
C1111 C1108 1.386 . S
C1112 C1107 1.490 . S
C1112 C1114 1.395 . S
C1112 C1115 1.403 . S
H1113 C1119 0.930 . S
C1114 H1100 0.930 . S
C1114 C1112 1.395 . S
C1114 C1117 1.403 . S
C1115 C1112 1.403 . S
C1115 C1116 1.524 . S
C1115 C1119 1.400 . S
C1116 H1101 0.960 . S
C1116 H1102 0.960 . S
C1116 H1103 0.960 . S
C1116 C1115 1.524 . S
C1117 C1114 1.403 . S
C1117 C1118 1.392 . S
C1117 C1121 1.495 . S
C1118 C1117 1.392 . S
C1118 C1119 1.385 . S
C1118 C1120 1.478 . S
C1119 H1113 0.930 . S
C1119 C1115 1.400 . S
C1119 C1118 1.385 . S
C1120 C1118 1.478 . S
C1120 C1122 1.381 . S
C1120 C1126 1.383 . S
C1121 C1117 1.495 . S
C1121 H1127 0.959 . S
C1121 H1128 0.961 . S
C1121 H1129 0.960 . S
C1122 C1120 1.381 . S
C1122 C1123 1.394 1_554 S
C1122 H1130 0.930 1_554 S
C1123 C1122 1.394 1_556 S
C1123 C1124 1.383 . S
C1123 H1131 0.929 . S
C1124 C1123 1.383 . S
C1124 C1125 1.378 1_556 S
C1125 H1109 0.930 . S
C1125 C1124 1.378 1_554 S
C1125 C1126 1.379 . S
C1126 H1110 0.931 . S
C1126 C1120 1.383 . S
C1126 C1125 1.379 . S
H1127 C1121 0.959 . S
H1128 C1121 0.961 . S
H1129 C1121 0.960 . S
H1130 C1122 0.930 1_556 S
H1131 C1123 0.929 . S
H1132 C1140 0.929 . S
H1133 C1142 0.930 . S
H1134 C1144 0.930 . S
H1135 C1147 0.929 . S
H1136 C1150 0.930 . S
H1137 C1152 0.960 . S
H1138 C1152 0.960 . S
H1139 C1152 0.960 . S
C1140 H1132 0.929 . S
C1140 C1141 1.377 . S
C1140 C1142 1.384 . S
C1141 C1140 1.377 . S
C1141 C1147 1.390 . S
C1142 H1133 0.930 . S
C1142 C1140 1.384 . S
C1142 C1143 1.372 . S
C1143 C1142 1.372 . S
C1143 C1144 1.400 . S
C1143 C1148 1.490 . S
C1144 H1134 0.930 . S
C1144 C1143 1.400 . S
C1144 C1147 1.386 . S
H1145 C1161 0.930 . S
H1146 C1162 0.931 . S
C1147 H1135 0.929 . S
C1147 C1141 1.390 . S
C1147 C1144 1.386 . S
C1148 C1143 1.490 . S
C1148 C1150 1.395 . S
C1148 C1151 1.403 . S
H1149 C1155 0.930 . S
C1150 H1136 0.930 . S
C1150 C1148 1.395 . S
C1150 C1153 1.403 . S
C1151 C1148 1.403 . S
C1151 C1152 1.524 . S
C1151 C1155 1.400 . S
C1152 H1137 0.960 . S
C1152 H1138 0.960 . S
C1152 H1139 0.960 . S
C1152 C1151 1.524 . S
C1153 C1150 1.403 . S
C1153 C1154 1.392 . S
C1153 C1157 1.495 . S
C1154 C1153 1.392 . S
C1154 C1155 1.385 . S
C1154 C1156 1.478 . S
C1155 H1149 0.930 . S
C1155 C1151 1.400 . S
C1155 C1154 1.385 . S
C1156 C1154 1.478 . S
C1156 C1158 1.381 . S
C1156 C1162 1.383 . S
C1157 C1153 1.495 . S
C1157 H1163 0.959 . S
C1157 H1164 0.961 . S
C1157 H1165 0.960 . S
C1158 C1156 1.381 . S
C1158 C1159 1.394 . S
C1158 H1166 0.930 . S
C1159 C1158 1.394 . S
C1159 C1160 1.383 . S
C1159 H1167 0.929 . S
C1160 C1159 1.383 . S
C1160 C1161 1.377 . S
C1161 H1145 0.930 . S
C1161 C1160 1.377 . S
C1161 C1162 1.379 . S
C1162 H1146 0.931 . S
C1162 C1156 1.383 . S
C1162 C1161 1.379 . S
H1163 C1157 0.959 . S
H1164 C1157 0.961 . S
H1165 C1157 0.960 . S
H1166 C1158 0.930 . S
H1167 C1159 0.929 . S
H1168 C1176 0.929 . S
H1169 C1178 0.930 . S
H1170 C1180 0.930 . S
H1171 C1183 0.929 . S
H1172 C1186 0.930 . S
H1173 C1188 0.960 . S
H1174 C1188 0.960 . S
H1175 C1188 0.960 . S
C1176 H1168 0.929 . S
C1176 C1177 1.377 . S
C1176 C1178 1.384 . S
C1177 C1176 1.377 . S
C1177 C1183 1.390 . S
C1178 H1169 0.930 . S
C1178 C1176 1.384 . S
C1178 C1179 1.372 . S
C1179 C1178 1.372 . S
C1179 C1180 1.400 . S
C1179 C1184 1.490 . S
C1180 H1170 0.930 . S
C1180 C1179 1.400 . S
C1180 C1183 1.386 . S
H1181 C1197 0.930 . S
H1182 C1198 0.931 . S
C1183 H1171 0.929 . S
C1183 C1177 1.390 . S
C1183 C1180 1.386 . S
C1184 C1179 1.490 . S
C1184 C1186 1.395 . S
C1184 C1187 1.403 . S
H1185 C1191 0.930 . S
C1186 H1172 0.930 . S
C1186 C1184 1.395 . S
C1186 C1189 1.403 . S
C1187 C1184 1.403 . S
C1187 C1188 1.524 . S
C1187 C1191 1.400 . S
C1188 H1173 0.960 . S
C1188 H1174 0.960 . S
C1188 H1175 0.960 . S
C1188 C1187 1.524 . S
C1189 C1186 1.403 . S
C1189 C1190 1.392 . S
C1189 C1193 1.495 . S
C1190 C1189 1.392 . S
C1190 C1191 1.385 . S
C1190 C1192 1.478 . S
C1191 H1185 0.930 . S
C1191 C1187 1.400 . S
C1191 C1190 1.385 . S
C1192 C1190 1.478 . S
C1192 C1194 1.381 . S
C1192 C1198 1.383 . S
C1193 C1189 1.495 . S
C1193 H1199 0.959 . S
C1193 H1200 0.961 . S
C1193 H1201 0.960 . S
C1194 C1192 1.381 . S
C1194 C1195 1.394 . S
C1194 H1202 0.904 1_655 S
C1195 C1194 1.394 . S
C1195 C1196 1.383 . S
C1195 H1203 0.929 1_655 S
C1196 C1195 1.383 . S
C1196 C1197 1.377 . S
C1197 H1181 0.930 . S
C1197 C1196 1.377 . S
C1197 C1198 1.379 . S
C1198 H1182 0.931 . S
C1198 C1192 1.383 . S
C1198 C1197 1.379 . S
H1199 C1193 0.959 . S
H1200 C1193 0.961 . S
H1201 C1193 0.960 . S
H1202 C1194 0.904 1_455 S
H1203 C1195 0.929 1_455 S
H1204 C1212 0.929 . S
H1205 C1214 0.930 . S
H1206 C1216 0.930 . S
H1207 C1219 0.929 . S
H1208 C1222 0.930 . S
H1209 C1224 0.960 . S
H1210 C1224 0.960 . S
H1211 C1224 0.960 . S
C1212 H1204 0.929 . S
C1212 C1213 1.411 . S
C1212 C1214 1.384 . S
C1213 C1212 1.411 . S
C1213 C1219 1.358 1_565 S
C1214 H1205 0.930 . S
C1214 C1212 1.384 . S
C1214 C1215 1.372 . S
C1215 C1214 1.372 . S
C1215 C1216 1.400 1_565 S
C1215 C1220 1.490 . S
C1216 H1206 0.930 . S
C1216 C1215 1.400 1_545 S
C1216 C1219 1.386 . S
H1217 C1233 0.930 . S
H1218 C1234 0.931 . S
C1219 H1207 0.929 . S
C1219 C1213 1.358 1_545 S
C1219 C1216 1.386 . S
C1220 C1215 1.490 . S
C1220 C1222 1.395 . S
C1220 C1223 1.403 1_565 S
H1221 C1227 0.930 . S
C1222 H1208 0.930 . S
C1222 C1220 1.395 . S
C1222 C1225 1.403 . S
C1223 C1220 1.403 1_545 S
C1223 C1224 1.524 . S
C1223 C1227 1.400 . S
C1224 H1209 0.960 . S
C1224 H1210 0.960 . S
C1224 H1211 0.960 . S
C1224 C1223 1.524 . S
C1225 C1222 1.403 . S
C1225 C1226 1.392 . S
C1225 C1229 1.495 . S
C1226 C1225 1.392 . S
C1226 C1227 1.385 1_565 S
C1226 C1228 1.478 . S
C1227 H1221 0.930 . S
C1227 C1223 1.400 . S
C1227 C1226 1.385 1_545 S
C1228 C1226 1.478 . S
C1228 C1230 1.381 . S
C1228 C1234 1.383 1_565 S
C1229 C1225 1.495 . S
C1229 H1235 0.959 . S
C1229 H1236 0.961 . S
C1229 H1237 0.960 . S
C1230 C1228 1.381 . S
C1230 C1231 1.394 . S
C1230 H1238 0.930 . S
C1231 C1230 1.394 . S
C1231 C1232 1.383 . S
C1231 H1239 0.929 . S
C1232 C1231 1.383 . S
C1232 C1233 1.377 1_565 S
C1233 H1217 0.930 . S
C1233 C1232 1.377 1_545 S
C1233 C1234 1.379 . S
C1234 H1218 0.931 . S
C1234 C1228 1.383 1_545 S
C1234 C1233 1.379 . S
H1235 C1229 0.959 . S
H1236 C1229 0.961 . S
H1237 C1229 0.960 . S
H1238 C1230 0.930 . S
H1239 C1231 0.929 . S
H1240 C1248 0.929 . S
H1241 C1250 0.930 . S
H1242 C1252 0.930 . S
H1243 C1255 0.929 . S
H1244 C1258 0.930 . S
H1245 C1260 0.960 . S
H1246 C1260 0.960 . S
H1247 C1260 0.960 . S
C1248 H1240 0.929 . S
C1248 C1249 1.377 . S
C1248 C1250 1.384 . S
C1249 C1248 1.377 . S
C1249 C1255 1.390 . S
C1250 H1241 0.930 . S
C1250 C1248 1.384 . S
C1250 C1251 1.372 . S
C1251 C1250 1.372 . S
C1251 C1252 1.400 . S
C1251 C1256 1.490 . S
C1252 H1242 0.930 . S
C1252 C1251 1.400 . S
C1252 C1255 1.386 . S
H1253 C1269 0.930 . S
H1254 C1270 0.931 . S
C1255 H1243 0.929 . S
C1255 C1249 1.390 . S
C1255 C1252 1.386 . S
C1256 C1251 1.490 . S
C1256 C1258 1.395 . S
C1256 C1259 1.403 . S
H1257 C1263 0.930 . S
C1258 H1244 0.930 . S
C1258 C1256 1.395 . S
C1258 C1261 1.403 . S
C1259 C1256 1.403 . S
C1259 C1260 1.524 . S
C1259 C1263 1.400 . S
C1260 H1245 0.960 . S
C1260 H1246 0.960 . S
C1260 H1247 0.960 . S
C1260 C1259 1.524 . S
C1261 C1258 1.403 . S
C1261 C1262 1.392 . S
C1261 C1265 1.495 . S
C1262 C1261 1.392 . S
C1262 C1263 1.385 . S
C1262 C1264 1.478 . S
C1263 H1257 0.930 . S
C1263 C1259 1.400 . S
C1263 C1262 1.385 . S
C1264 C1262 1.478 . S
C1264 C1266 1.381 . S
C1264 C1270 1.383 . S
C1265 C1261 1.495 . S
C1265 H1271 0.959 . S
C1265 H1272 0.961 . S
C1265 H1273 0.960 . S
C1266 C1264 1.381 . S
C1266 C1267 1.394 . S
C1266 H1274 0.930 . S
C1267 C1266 1.394 . S
C1267 C1268 1.383 . S
C1267 H1275 0.929 . S
C1268 C1267 1.383 . S
C1268 C1269 1.377 . S
C1269 H1253 0.930 . S
C1269 C1268 1.377 . S
C1269 C1270 1.379 . S
C1270 H1254 0.931 . S
C1270 C1264 1.383 . S
C1270 C1269 1.379 . S
H1271 C1265 0.959 . S
H1272 C1265 0.961 . S
H1273 C1265 0.960 . S
H1274 C1266 0.930 . S
H1275 C1267 0.929 . S
H1276 C1284 0.929 . S
H1277 C1286 0.930 . S
H1278 C1288 0.930 . S
H1279 C1291 0.929 . S
H1280 C1294 0.930 . S
H1281 C1296 0.960 . S
H1282 C1296 0.960 . S
H1283 C1296 0.960 . S
C1284 H1276 0.929 . S
C1284 C1285 1.377 . S
C1284 C1286 1.384 . S
C1285 C1284 1.377 . S
C1285 C1291 1.390 . S
C1286 H1277 0.930 . S
C1286 C1284 1.384 . S
C1286 C1287 1.372 . S
C1287 C1286 1.372 . S
C1287 C1288 1.400 . S
C1287 C1292 1.490 . S
C1288 H1278 0.930 . S
C1288 C1287 1.400 . S
C1288 C1291 1.386 . S
H1289 C1305 0.930 . S
H1290 C1306 0.931 . S
C1291 H1279 0.929 . S
C1291 C1285 1.390 . S
C1291 C1288 1.386 . S
C1292 C1287 1.490 . S
C1292 C1294 1.395 . S
C1292 C1295 1.403 . S
H1293 C1299 0.930 . S
C1294 H1280 0.930 . S
C1294 C1292 1.395 . S
C1294 C1297 1.403 . S
C1295 C1292 1.403 . S
C1295 C1296 1.524 . S
C1295 C1299 1.400 . S
C1296 H1281 0.960 . S
C1296 H1282 0.960 . S
C1296 H1283 0.960 . S
C1296 C1295 1.524 . S
C1297 C1294 1.403 . S
C1297 C1298 1.392 . S
C1297 C1301 1.495 . S
C1298 C1297 1.392 . S
C1298 C1299 1.385 . S
C1298 C1300 1.478 . S
C1299 H1293 0.930 . S
C1299 C1295 1.400 . S
C1299 C1298 1.385 . S
C1300 C1298 1.478 . S
C1300 C1302 1.381 . S
C1300 C1306 1.383 . S
C1301 C1297 1.495 . S
C1301 H1307 0.959 . S
C1301 H1308 0.961 . S
C1301 H1309 0.960 . S
C1302 C1300 1.381 . S
C1302 C1303 1.394 . S
C1302 H1310 0.930 . S
C1303 C1302 1.394 . S
C1303 C1304 1.383 . S
C1303 H1311 0.929 . S
C1304 C1303 1.383 . S
C1304 C1305 1.377 . S
C1305 H1289 0.930 . S
C1305 C1304 1.377 . S
C1305 C1306 1.379 . S
C1306 H1290 0.931 . S
C1306 C1300 1.383 . S
C1306 C1305 1.379 . S
H1307 C1301 0.959 . S
H1308 C1301 0.961 . S
H1309 C1301 0.960 . S
H1310 C1302 0.930 . S
H1311 C1303 0.929 . S
C457 C241 1.855 . S
C476 C311 1.983 . S
C512 C351 1.553 . S
C493 C277 1.512 . S
C548 C370 2.063 . S
C529 C169 1.909 . S
C584 C431 1.651 . S
C565 C205 1.542 . S
C620 C290 1.984 . S
C601 C97 1.848 . S
C637 C133 1.554 . S
C656 C330 1.557 . S
C673 C25 1.934 . S
C692 C391 2.070 . S
C709 C61 1.510 . S
C728 C410 1.646 1_655 S
C764 C292 0.571 1_655 S
C745 C211 0.499 . S
C800 C332 0.347 . S
C781 C247 0.321 . S
C836 C388 0.603 . S
C817 C253 0.632 . S
C853 C175 0.291 . S
C872 C412 0.365 . S
C889 C67 0.567 . S
C908 C313 0.531 . S
C944 C353 0.351 . S
C925 C103 0.378 1_565 S
C980 C399 0.463 . S
C961 C109 0.594 . S
C997 C31 0.288 . S
C1016 C433 0.366 . S
C1033 C181 2.207 1_556 S
C1052 C308 2.388 . S
C1069 C217 2.640 . S
C1088 C348 2.871 . S
C1124 C372 1.862 . S
C1105 C283 1.762 . S
C1160 C428 2.832 . S
C1141 C145 2.597 . S
C1177 C37 2.174 . S
C1196 C319 2.398 . S
C1232 C359 2.871 . S
C1213 C73 2.629 1_565 S
C1268 C393 1.831 . S
C1249 C139 1.772 . S
C1285 C1 2.613 . S
C1304 C439 2.838 . S
