# Generated by pormake.
# Topology wbl, (4,4)-cn, num edge types: 1
# Building blocks:
#     Node 0, Type 0, BuildingBlock: MIFKUJ_clean_linker_1, # of connection points: 4
#     Node 1, Type 0, BuildingBlock: MIFKUJ_clean_linker_1, # of connection points: 4
#     Node 2, Type 0, BuildingBlock: MIFKUJ_clean_linker_1, # of connection points: 4
#     Node 3, Type 0, BuildingBlock: MIFKUJ_clean_linker_1, # of connection points: 4
#     Node 4, Type 0, BuildingBlock: MIFKUJ_clean_linker_1, # of connection points: 4
#     Node 5, Type 0, BuildingBlock: MIFKUJ_clean_linker_1, # of connection points: 4
#     Node 6, Type 0, BuildingBlock: MIFKUJ_clean_linker_1, # of connection points: 4
#     Node 7, Type 0, BuildingBlock: MIFKUJ_clean_linker_1, # of connection points: 4
#     Node 8, Type 1, BuildingBlock: QUQFOY_clean_sbu_1, # of connection points: 4
#     Node 9, Type 1, BuildingBlock: QUQFOY_clean_sbu_1, # of connection points: 4
#     Node 10, Type 1, BuildingBlock: QUQFOY_clean_sbu_1, # of connection points: 4
#     Node 11, Type 1, BuildingBlock: QUQFOY_clean_sbu_1, # of connection points: 4
#     Node 12, Type 1, BuildingBlock: QUQFOY_clean_sbu_1, # of connection points: 4
#     Node 13, Type 1, BuildingBlock: QUQFOY_clean_sbu_1, # of connection points: 4
#     Node 14, Type 1, BuildingBlock: QUQFOY_clean_sbu_1, # of connection points: 4
#     Node 15, Type 1, BuildingBlock: QUQFOY_clean_sbu_1, # of connection points: 4
#     Edge 16, Type (0, 1), BuildingBlock: KIFKEQ_clean_linker_1, # of connection points: 2
#     Edge 17, Type (0, 1), BuildingBlock: KIFKEQ_clean_linker_1, # of connection points: 2
#     Edge 18, Type (0, 1), BuildingBlock: KIFKEQ_clean_linker_1, # of connection points: 2
#     Edge 19, Type (0, 1), BuildingBlock: KIFKEQ_clean_linker_1, # of connection points: 2
#     Edge 20, Type (0, 1), BuildingBlock: KIFKEQ_clean_linker_1, # of connection points: 2
#     Edge 21, Type (0, 1), BuildingBlock: KIFKEQ_clean_linker_1, # of connection points: 2
#     Edge 22, Type (0, 1), BuildingBlock: KIFKEQ_clean_linker_1, # of connection points: 2
#     Edge 23, Type (0, 1), BuildingBlock: KIFKEQ_clean_linker_1, # of connection points: 2
#     Edge 24, Type (0, 1), BuildingBlock: KIFKEQ_clean_linker_1, # of connection points: 2
#     Edge 25, Type (0, 1), BuildingBlock: KIFKEQ_clean_linker_1, # of connection points: 2
#     Edge 26, Type (0, 1), BuildingBlock: KIFKEQ_clean_linker_1, # of connection points: 2
#     Edge 27, Type (0, 1), BuildingBlock: KIFKEQ_clean_linker_1, # of connection points: 2
#     Edge 28, Type (0, 1), BuildingBlock: KIFKEQ_clean_linker_1, # of connection points: 2
#     Edge 29, Type (0, 1), BuildingBlock: KIFKEQ_clean_linker_1, # of connection points: 2
#     Edge 30, Type (0, 1), BuildingBlock: KIFKEQ_clean_linker_1, # of connection points: 2
#     Edge 31, Type (0, 1), BuildingBlock: KIFKEQ_clean_linker_1, # of connection points: 2
#     Edge 32, Type (0, 1), BuildingBlock: KIFKEQ_clean_linker_1, # of connection points: 2
#     Edge 33, Type (0, 1), BuildingBlock: KIFKEQ_clean_linker_1, # of connection points: 2
#     Edge 34, Type (0, 1), BuildingBlock: KIFKEQ_clean_linker_1, # of connection points: 2
#     Edge 35, Type (0, 1), BuildingBlock: KIFKEQ_clean_linker_1, # of connection points: 2
#     Edge 36, Type (0, 1), BuildingBlock: KIFKEQ_clean_linker_1, # of connection points: 2
#     Edge 37, Type (0, 1), BuildingBlock: KIFKEQ_clean_linker_1, # of connection points: 2
#     Edge 38, Type (0, 1), BuildingBlock: KIFKEQ_clean_linker_1, # of connection points: 2
#     Edge 39, Type (0, 1), BuildingBlock: KIFKEQ_clean_linker_1, # of connection points: 2
#     Edge 40, Type (0, 1), BuildingBlock: KIFKEQ_clean_linker_1, # of connection points: 2
#     Edge 41, Type (0, 1), BuildingBlock: KIFKEQ_clean_linker_1, # of connection points: 2
#     Edge 42, Type (0, 1), BuildingBlock: KIFKEQ_clean_linker_1, # of connection points: 2
#     Edge 43, Type (0, 1), BuildingBlock: KIFKEQ_clean_linker_1, # of connection points: 2
#     Edge 44, Type (0, 1), BuildingBlock: KIFKEQ_clean_linker_1, # of connection points: 2
#     Edge 45, Type (0, 1), BuildingBlock: KIFKEQ_clean_linker_1, # of connection points: 2
#     Edge 46, Type (0, 1), BuildingBlock: KIFKEQ_clean_linker_1, # of connection points: 2
#     Edge 47, Type (0, 1), BuildingBlock: KIFKEQ_clean_linker_1, # of connection points: 2
# Relax obj value: 0.175
# Max RMSD: 0.210
# Mean RMSD: 0.159
data_MOF--net-wbl--node1-QUQFOY_clean_sbu_1--node2-MIFKUJ_clean_linker_1--edge1-KIFKEQ_clean_linker_1
_symmetry_space_group_name_H-M    P1
_symmetry_Int_Tables_number       1
_symmetry_cell_setting            triclinic
loop_
_symmetry_equiv_pos_as_xyz
'x, y, z'
_cell_length_a     46.544883
_cell_length_b     46.52526
_cell_length_c     77.749555
_cell_angle_alpha  93.435433
_cell_angle_beta   93.399452
_cell_angle_gamma 90.251977
loop_
_atom_site_label
_atom_site_type_symbol
_atom_site_fract_x
_atom_site_fract_y
_atom_site_fract_z
_atom_type_partial_charge
H0 H 0.14097 0.15792 0.38356 0.0
H1 H 0.10842 0.18524 0.40212 0.0
H2 H 0.04011 0.12442 0.38654 0.0
H3 H 0.07251 0.0974 0.368 0.0
H4 H 0.15211 0.09649 0.38829 0.0
H5 H 0.11522 0.15838 0.34308 0.0
H6 H 0.07327 0.17976 0.32841 0.0
H7 H 0.04001 0.09446 0.31323 0.0
H8 H 0.08217 0.07344 0.32752 0.0
H9 H 0.14516 0.02179 0.32507 0.0
H10 H 0.17434 0.98603 0.30996 0.0
H11 H 0.25109 0.02294 0.33677 0.0
H12 H 0.22197 0.05941 0.35118 0.0
H13 H 0.14019 0.0761 0.32491 0.0
H14 H 0.15966 0.01336 0.36895 0.0
H15 H 0.18131 0.9835 0.39104 0.0
H16 H 0.2318 0.05645 0.41267 0.0
H17 H 0.21011 0.08626 0.3905 0.0
C18 C 0.10904 0.12579 0.37437 0.0
C19 C 0.11882 0.15084 0.38394 0.0
C20 C 0.10025 0.16645 0.39444 0.0
C21 C 0.07186 0.15682 0.39575 0.0
C22 C 0.06194 0.13219 0.38578 0.0
C23 C 0.08036 0.11685 0.37515 0.0
C24 C 0.12927 0.10738 0.36478 0.0
C25 C 0.15028 0.09267 0.37435 0.0
C26 C 0.12535 0.10111 0.34679 0.0
C27 C 0.10174 0.11433 0.33643 0.0
C28 C 0.099 0.14436 0.33639 0.0
C29 C 0.07494 0.15653 0.32809 0.0
C30 C 0.05315 0.13886 0.31968 0.0
C31 C 0.05652 0.10878 0.3193 0.0
C32 C 0.08062 0.09667 0.32751 0.0
C33 C 0.1813 0.04324 0.33937 0.0
C34 C 0.1683 0.02234 0.32758 0.0
C35 C 0.185 0.00171 0.31906 0.0
C36 C 0.21509 0.00156 0.32214 0.0
C37 C 0.22804 0.02262 0.33389 0.0
C38 C 0.21135 0.0433 0.34234 0.0
C39 C 0.16353 0.06516 0.34843 0.0
C40 C 0.14292 0.0805 0.33877 0.0
C41 C 0.16672 0.07092 0.36653 0.0
C42 C 0.18344 0.05198 0.37801 0.0
C43 C 0.17595 0.02274 0.37816 0.0
C44 C 0.1881 0.00578 0.39088 0.0
C45 C 0.20807 0.01773 0.40362 0.0
C46 C 0.21661 0.04664 0.40294 0.0
C47 C 0.20421 0.06369 0.39032 0.0
H48 H 0.03749 0.5707 0.57666 0.0
H49 H 0.01521 0.52907 0.56063 0.0
H50 H 0.93441 0.57468 0.55674 0.0
H51 H 0.95674 0.6156 0.57379 0.0
H52 H 0.04251 0.63065 0.57 0.0
H53 H 0.00587 0.56865 0.61014 0.0
H54 H 0.97383 0.53935 0.62553 0.0
H55 H 0.91646 0.6117 0.63159 0.0
H56 H 0.94946 0.64123 0.61653 0.0
H57 H 0.02125 0.70773 0.63078 0.0
H58 H 0.0484 0.73402 0.65479 0.0
H59 H 0.12256 0.68113 0.64522 0.0
H60 H 0.0955 0.65522 0.62138 0.0
H61 H 0.00857 0.65055 0.62884 0.0
H62 H 0.05285 0.71381 0.59061 0.0
H63 H 0.09406 0.74116 0.58232 0.0
H64 H 0.14231 0.66222 0.57646 0.0
H65 H 0.10021 0.63494 0.58388 0.0
C66 C 0.99869 0.59605 0.57647 0.0
C67 C 0.01507 0.5718 0.57213 0.0
C68 C 0.00226 0.54805 0.56282 0.0
C69 C 0.97285 0.54829 0.55735 0.0
C70 C 0.9569 0.57337 0.56102 0.0
C71 C 0.96965 0.59691 0.57063 0.0
C72 C 0.01158 0.6195 0.58813 0.0
C73 C 0.035 0.63513 0.58282 0.0
C74 C 0.00161 0.6255 0.60478 0.0
C75 C 0.9799 0.60701 0.61204 0.0
C76 C 0.98605 0.57801 0.61441 0.0
C77 C 0.96755 0.56123 0.62321 0.0
C78 C 0.94238 0.57305 0.62983 0.0
C79 C 0.93578 0.60194 0.62688 0.0
C80 C 0.9545 0.61881 0.61818 0.0
C81 C 0.05648 0.67983 0.62411 0.0
C82 C 0.0435 0.70215 0.63373 0.0
C83 C 0.05898 0.71703 0.64749 0.0
C84 C 0.08768 0.70971 0.6519 0.0
C85 C 0.10073 0.68774 0.64197 0.0
C86 C 0.08526 0.6729 0.62829 0.0
C87 C 0.03944 0.66182 0.61076 0.0
C88 C 0.01532 0.64698 0.61577 0.0
C89 C 0.04901 0.65627 0.59396 0.0
C90 C 0.07356 0.67242 0.5879 0.0
C91 C 0.07225 0.70243 0.58736 0.0
C92 C 0.096 0.71804 0.58279 0.0
C93 C 0.12183 0.70402 0.57895 0.0
C94 C 0.12279 0.67379 0.57914 0.0
C95 C 0.09877 0.65812 0.58343 0.0
H96 H 0.52882 0.60315 0.88062 0.0
H97 H 0.49907 0.62899 0.90129 0.0
H98 H 0.42285 0.5886 0.87601 0.0
H99 H 0.45281 0.56305 0.85511 0.0
H100 H 0.52901 0.54024 0.87553 0.0
H101 H 0.51091 0.62619 0.84519 0.0
H102 H 0.47594 0.66131 0.83523 0.0
H103 H 0.43566 0.59584 0.79983 0.0
H104 H 0.46995 0.56044 0.81055 0.0
H105 H 0.53704 0.49589 0.8044 0.0
H106 H 0.57291 0.47286 0.78621 0.0
H107 H 0.64103 0.51037 0.82069 0.0
H108 H 0.60537 0.53353 0.83849 0.0
H109 H 0.52928 0.55484 0.81281 0.0
H110 H 0.5354 0.46929 0.84952 0.0
H111 H 0.5579 0.43281 0.86746 0.0
H112 H 0.61813 0.49686 0.89049 0.0
H113 H 0.59508 0.53331 0.87293 0.0
C114 C 0.49295 0.58129 0.86639 0.0
C115 C 0.50567 0.60014 0.87942 0.0
C116 C 0.48867 0.61498 0.89112 0.0
C117 C 0.4587 0.61079 0.89018 0.0
C118 C 0.44592 0.59213 0.87699 0.0
C119 C 0.46294 0.57763 0.86507 0.0
C120 C 0.51137 0.56444 0.85472 0.0
C121 C 0.52926 0.54361 0.86184 0.0
C122 C 0.51103 0.56839 0.83682 0.0
C123 C 0.49259 0.59054 0.82891 0.0
C124 C 0.49458 0.61943 0.83525 0.0
C125 C 0.47475 0.63959 0.82937 0.0
C126 C 0.45273 0.63136 0.81685 0.0
C127 C 0.45196 0.60278 0.80974 0.0
C128 C 0.4717 0.58256 0.81573 0.0
C129 C 0.56857 0.51607 0.8229 0.0
C130 C 0.55973 0.49904 0.808 0.0
C131 C 0.58019 0.48586 0.79768 0.0
C132 C 0.60977 0.48994 0.80198 0.0
C133 C 0.61843 0.5071 0.8169 0.0
C134 C 0.59806 0.52005 0.82722 0.0
C135 C 0.54733 0.53082 0.83373 0.0
C136 C 0.52889 0.55133 0.82646 0.0
C137 C 0.54701 0.52663 0.85155 0.0
C138 C 0.5638 0.50383 0.85985 0.0
C139 C 0.55387 0.47523 0.85816 0.0
C140 C 0.56659 0.45452 0.86843 0.0
C141 C 0.58974 0.46208 0.88029 0.0
C142 C 0.60054 0.49043 0.8813 0.0
C143 C 0.58742 0.51123 0.87132 0.0
H144 H 0.56964 0.98563 0.06575 0.0
H145 H 0.53893 0.94505 0.05511 0.0
H146 H 0.47036 0.97939 0.08525 0.0
H147 H 0.50051 0.02095 0.0948 0.0
H148 H 0.56991 0.04152 0.06406 0.0
H149 H 0.56946 0.97814 0.11225 0.0
H150 H 0.54893 0.95002 0.13432 0.0
H151 H 0.50111 0.02437 0.15185 0.0
H152 H 0.52208 0.05256 0.12992 0.0
H153 H 0.59111 0.12065 0.12281 0.0
H154 H 0.62853 0.14585 0.1414 0.0
H155 H 0.69266 0.08968 0.11985 0.0
H156 H 0.65498 0.06398 0.10183 0.0
H157 H 0.58454 0.05977 0.12753 0.0
H158 H 0.57616 0.11672 0.07195 0.0
H159 H 0.60242 0.14699 0.05329 0.0
H160 H 0.67116 0.08501 0.05232 0.0
H161 H 0.64427 0.05431 0.07052 0.0
C162 C 0.53761 0.00608 0.08134 0.0
C163 C 0.5478 0.9847 0.0698 0.0
C164 C 0.5303 0.96128 0.06391 0.0
C165 C 0.50229 0.9586 0.06957 0.0
C166 C 0.49172 0.98073 0.08055 0.0
C167 C 0.50911 0.00436 0.08622 0.0
C168 C 0.55732 0.02923 0.08893 0.0
C169 C 0.57314 0.04535 0.07794 0.0
C170 C 0.56125 0.03486 0.10702 0.0
C171 C 0.54718 0.01735 0.11946 0.0
C172 C 0.55436 0.98827 0.12075 0.0
C173 C 0.54273 0.97231 0.13337 0.0
C174 C 0.52348 0.98509 0.14476 0.0
C175 C 0.51573 0.01399 0.14314 0.0
C176 C 0.52775 0.03009 0.1307 0.0
C177 C 0.62033 0.09075 0.11077 0.0
C178 C 0.61335 0.11437 0.12175 0.0
C179 C 0.6348 0.12879 0.13232 0.0
C180 C 0.66356 0.11964 0.13217 0.0
C181 C 0.67067 0.09707 0.12037 0.0
C182 C 0.64921 0.08264 0.10985 0.0
C183 C 0.59734 0.0715 0.10271 0.0
C184 C 0.58091 0.05615 0.11364 0.0
C185 C 0.59317 0.06632 0.08467 0.0
C186 C 0.6085 0.08355 0.07271 0.0
C187 C 0.59671 0.10953 0.06752 0.0
C188 C 0.61164 0.12668 0.05683 0.0
C189 C 0.63878 0.11828 0.0514 0.0
C190 C 0.65032 0.09197 0.05639 0.0
C191 C 0.63507 0.07452 0.06679 0.0
H192 H 0.01483 0.68377 0.93112 0.0
H193 H 0.04809 0.71024 0.91438 0.0
H194 H 0.114 0.64759 0.92486 0.0
H195 H 0.08078 0.62138 0.94173 0.0
H196 H 0.00305 0.62342 0.91982 0.0
H197 H 0.04247 0.6809 0.96994 0.0
H198 H 0.08509 0.69827 0.98726 0.0
H199 H 0.1031 0.61135 0.00134 0.0
H200 H 0.06162 0.59392 0.98302 0.0
H201 H 0.99793 0.54376 0.97384 0.0
H202 H 0.96467 0.50649 0.98164 0.0
H203 H 0.89316 0.55463 0.96035 0.0
H204 H 0.92654 0.5915 0.95238 0.0
H205 H 0.00666 0.59953 0.98121 0.0
H206 H 0.98087 0.53918 0.93321 0.0
H207 H 0.95593 0.51133 0.90945 0.0
H208 H 0.92719 0.59028 0.88746 0.0
H209 H 0.94983 0.61787 0.91226 0.0
C210 C 0.04544 0.65074 0.93769 0.0
C211 C 0.03671 0.67623 0.93019 0.0
C212 C 0.0557 0.69134 0.9207 0.0
C213 C 0.0835 0.68083 0.91829 0.0
C214 C 0.09262 0.65604 0.9265 0.0
C215 C 0.07376 0.64117 0.93618 0.0
C216 C 0.02396 0.63209 0.94496 0.0
C217 C 0.00313 0.61881 0.93335 0.0
C218 C 0.02576 0.62468 0.96238 0.0
C219 C 0.04918 0.636 0.9748 0.0
C220 C 0.05565 0.66557 0.9767 0.0
C221 C 0.07985 0.67554 0.98686 0.0
C222 C 0.09781 0.65618 0.99558 0.0
C223 C 0.09018 0.6268 0.99451 0.0
C224 C 0.06622 0.61683 0.98417 0.0
C225 C 0.96473 0.57027 0.96239 0.0
C226 C 0.97504 0.54644 0.97107 0.0
C227 C 0.956 0.52514 0.97551 0.0
C228 C 0.92627 0.5274 0.97143 0.0
C229 C 0.91597 0.55188 0.96332 0.0
C230 C 0.935 0.57309 0.95886 0.0
C231 C 0.9851 0.59131 0.95608 0.0
C232 C 0.00584 0.60479 0.96779 0.0
C233 C 0.98434 0.59777 0.93849 0.0
C234 C 0.96688 0.58072 0.92478 0.0
C235 C 0.96828 0.55052 0.92365 0.0
C236 C 0.95448 0.53457 0.90976 0.0
C237 C 0.93977 0.54843 0.89629 0.0
C238 C 0.93791 0.57868 0.89763 0.0
C239 C 0.95114 0.5946 0.91176 0.0
H240 H 0.56301 0.55304 0.23088 0.0
H241 H 0.53879 0.59456 0.24372 0.0
H242 H 0.45888 0.56663 0.21653 0.0
H243 H 0.48294 0.52398 0.20457 0.0
H244 H 0.56261 0.49738 0.22912 0.0
H245 H 0.53939 0.57106 0.18881 0.0
H246 H 0.5109 0.60172 0.16999 0.0
H247 H 0.47015 0.52602 0.14407 0.0
H248 H 0.49773 0.49568 0.16348 0.0
H249 H 0.58329 0.41821 0.1848 0.0
H250 H 0.61297 0.39028 0.16479 0.0
H251 H 0.64659 0.46953 0.14737 0.0
H252 H 0.6171 0.49706 0.16728 0.0
H253 H 0.55648 0.49262 0.1651 0.0
H254 H 0.57127 0.43643 0.22858 0.0
H255 H 0.60795 0.40726 0.2431 0.0
H256 H 0.67448 0.45463 0.22019 0.0
H257 H 0.63774 0.48334 0.20561 0.0
C258 C 0.52497 0.53568 0.21644 0.0
C259 C 0.54009 0.55533 0.22807 0.0
C260 C 0.52626 0.57932 0.23523 0.0
C261 C 0.49707 0.58437 0.23077 0.0
C262 C 0.48139 0.56347 0.22021 0.0
C263 C 0.49519 0.53918 0.21323 0.0
C264 C 0.5412 0.51379 0.20635 0.0
C265 C 0.56092 0.49609 0.21512 0.0
C266 C 0.53935 0.51219 0.18805 0.0
C267 C 0.52046 0.53109 0.17768 0.0
C268 C 0.52382 0.56114 0.17935 0.0
C269 C 0.50772 0.57862 0.16843 0.0
C270 C 0.48828 0.56636 0.15544 0.0
C271 C 0.48455 0.53627 0.15408 0.0
C272 C 0.50049 0.51884 0.16507 0.0
C273 C 0.59798 0.45963 0.17741 0.0
C274 C 0.59746 0.42944 0.17686 0.0
C275 C 0.6143 0.41357 0.16541 0.0
C276 C 0.63209 0.42774 0.15453 0.0
C277 C 0.63343 0.45798 0.15573 0.0
C278 C 0.61642 0.47375 0.16699 0.0
C279 C 0.57793 0.47682 0.18784 0.0
C280 C 0.55749 0.49345 0.1791 0.0
C281 C 0.57958 0.4779 0.20606 0.0
C282 C 0.60178 0.46167 0.2158 0.0
C283 C 0.59379 0.44062 0.22683 0.0
C284 C 0.61478 0.42408 0.23517 0.0
C285 C 0.64416 0.42844 0.23268 0.0
C286 C 0.65205 0.45032 0.22211 0.0
C287 C 0.63109 0.46678 0.21379 0.0
H288 H 0.58176 0.97927 0.4423 0.0
H289 H 0.55794 0.94434 0.42124 0.0
H290 H 0.50981 0.01328 0.39857 0.0
H291 H 0.53414 0.048 0.41936 0.0
H292 H 0.59269 0.0545 0.41905 0.0
H293 H 0.59767 0.00317 0.48587 0.0
H294 H 0.56609 0.97631 0.5035 0.0
H295 H 0.49174 0.01086 0.47614 0.0
H296 H 0.5232 0.03797 0.45896 0.0
H297 H 0.6161 0.13573 0.46033 0.0
H298 H 0.65163 0.16996 0.47407 0.0
H299 H 0.70161 0.09894 0.49297 0.0
H300 H 0.66526 0.06518 0.47991 0.0
H301 H 0.60406 0.06028 0.48299 0.0
H302 H 0.59507 0.11062 0.41639 0.0
H303 H 0.6231 0.13372 0.39552 0.0
H304 H 0.70155 0.10427 0.42117 0.0
H305 H 0.67321 0.07984 0.44142 0.0
C306 C 0.55981 0.0162 0.43229 0.0
C307 C 0.56551 0.98669 0.43307 0.0
C308 C 0.5519 0.96677 0.42102 0.0
C309 C 0.5324 0.97614 0.40804 0.0
C310 C 0.52524 0.00548 0.40816 0.0
C311 C 0.53894 0.02532 0.4201 0.0
C312 C 0.57846 0.03779 0.44233 0.0
C313 C 0.59474 0.05621 0.43305 0.0
C314 C 0.58164 0.03927 0.46055 0.0
C315 C 0.5628 0.02234 0.47097 0.0
C316 C 0.57455 0.00493 0.48372 0.0
C317 C 0.55652 0.98951 0.49372 0.0
C318 C 0.52642 0.99158 0.49128 0.0
C319 C 0.51481 0.0091 0.47852 0.0
C320 C 0.53279 0.02435 0.46852 0.0
C321 C 0.6382 0.098 0.46908 0.0
C322 C 0.63456 0.12768 0.46766 0.0
C323 C 0.65502 0.14718 0.47541 0.0
C324 C 0.67968 0.1373 0.48456 0.0
C325 C 0.68273 0.10748 0.48632 0.0
C326 C 0.66204 0.08806 0.47878 0.0
C327 C 0.61802 0.07722 0.45963 0.0
C328 C 0.60174 0.05877 0.469 0.0
C329 C 0.61447 0.07594 0.44141 0.0
C330 C 0.63197 0.09356 0.43054 0.0
C331 C 0.61833 0.10943 0.41764 0.0
C332 C 0.63446 0.12287 0.40578 0.0
C333 C 0.66465 0.12079 0.40657 0.0
C334 C 0.67833 0.10598 0.42001 0.0
C335 C 0.66215 0.09232 0.43178 0.0
H336 H 0.09147 0.18392 0.73781 0.0
H337 H 0.05398 0.21809 0.74574 0.0
H338 H 0.99434 0.17464 0.70795 0.0
H339 H 0.03149 0.1399 0.7007 0.0
H340 H 0.0973 0.12447 0.7374 0.0
H341 H 0.08634 0.19797 0.69512 0.0
H342 H 0.06216 0.22509 0.67229 0.0
H343 H 0.04655 0.14591 0.6413 0.0
H344 H 0.06924 0.11876 0.66425 0.0
H345 H 0.11445 0.0549 0.68003 0.0
H346 H 0.14591 0.02323 0.66375 0.0
H347 H 0.22031 0.06845 0.68811 0.0
H348 H 0.18827 0.10031 0.7045 0.0
H349 H 0.12105 0.11847 0.67593 0.0
H350 H 0.11299 0.04591 0.71662 0.0
H351 H 0.13394 0.01031 0.73532 0.0
H352 H 0.1802 0.07798 0.76606 0.0
H353 H 0.15933 0.11365 0.74693 0.0
C354 C 0.06442 0.15972 0.71846 0.0
C355 C 0.07016 0.1815 0.73148 0.0
C356 C 0.04877 0.20117 0.73586 0.0
C357 C 0.02123 0.1994 0.7273 0.0
C358 C 0.01519 0.17661 0.71488 0.0
C359 C 0.03652 0.15686 0.7106 0.0
C360 C 0.08794 0.14106 0.71233 0.0
C361 C 0.1028 0.12358 0.72401 0.0
C362 C 0.09469 0.13928 0.69477 0.0
C363 C 0.07955 0.15626 0.68145 0.0
C364 C 0.07726 0.1864 0.68355 0.0
C365 C 0.06361 0.20188 0.67053 0.0
C366 C 0.05282 0.18747 0.6551 0.0
C367 C 0.05501 0.15744 0.65306 0.0
C368 C 0.06802 0.14198 0.66614 0.0
C369 C 0.14909 0.07977 0.69348 0.0
C370 C 0.13755 0.05753 0.68218 0.0
C371 C 0.15561 0.03938 0.67294 0.0
C372 C 0.18565 0.04331 0.67465 0.0
C373 C 0.19726 0.065 0.68648 0.0
C374 C 0.17906 0.08305 0.69592 0.0
C375 C 0.12948 0.10156 0.70077 0.0
C376 C 0.11573 0.11988 0.68936 0.0
C377 C 0.12303 0.10333 0.7183 0.0
C378 C 0.13491 0.08231 0.7303 0.0
C379 C 0.12763 0.05309 0.72739 0.0
C380 C 0.13939 0.03281 0.73822 0.0
C381 C 0.15865 0.04134 0.75223 0.0
C382 C 0.16556 0.07075 0.7553 0.0
C383 C 0.1536 0.09113 0.74446 0.0
O384 O 0.35952 0.71977 0.99755 0.0
Cd385 Cd 0.3442 0.73854 0.01974 0.0
Cd386 Cd 0.38902 0.70931 0.03597 0.0
O387 O 0.39004 0.6913 0.01097 0.0
O388 O 0.30329 0.7481 0.01441 0.0
O389 O 0.31725 0.7153 0.03264 0.0
C390 C 0.29661 0.7286 0.02464 0.0
C391 C 0.40332 0.67917 0.05801 0.0
C392 C 0.37766 0.69949 0.9971 0.0
C393 C 0.38916 0.77519 0.0385 0.0
O394 O 0.40187 0.7517 0.04143 0.0
O395 O 0.3647 0.77505 0.03036 0.0
O396 O 0.42126 0.68876 0.04774 0.0
O397 O 0.37665 0.68623 0.05564 0.0
O398 O 0.4279 0.84219 0.30558 0.0
Cd399 Cd 0.40017 0.82881 0.28514 0.0
Cd400 Cd 0.44487 0.84561 0.26565 0.0
O401 O 0.46116 0.85997 0.29006 0.0
O402 O 0.36094 0.83256 0.29367 0.0
O403 O 0.37738 0.85966 0.27384 0.0
C404 C 0.35716 0.85379 0.28384 0.0
C405 C 0.45677 0.87321 0.2428 0.0
C406 C 0.45145 0.85571 0.30466 0.0
C407 C 0.42493 0.7824 0.2633 0.0
O408 O 0.44183 0.80197 0.25908 0.0
O409 O 0.40542 0.78829 0.27368 0.0
O410 O 0.47526 0.85695 0.25033 0.0
O411 O 0.43123 0.8744 0.24844 0.0
O412 O 0.29205 0.89379 0.50801 0.0
Cd413 Cd 0.31275 0.87456 0.52824 0.0
Cd414 Cd 0.27407 0.90777 0.54795 0.0
O415 O 0.26572 0.92342 0.52368 0.0
O416 O 0.3521 0.86559 0.52106 0.0
O417 O 0.34295 0.89867 0.54172 0.0
C418 C 0.3613 0.88609 0.53197 0.0
C419 C 0.26374 0.93856 0.57181 0.0
C420 C 0.27432 0.91438 0.5091 0.0
C421 C 0.27326 0.84131 0.54766 0.0
O422 O 0.26374 0.86581 0.55253 0.0
O423 O 0.29369 0.83904 0.53756 0.0
O424 O 0.24389 0.92746 0.56123 0.0
O425 O 0.29011 0.93333 0.56847 0.0
O426 O 0.22436 0.79233 0.76088 0.0
Cd427 Cd 0.24929 0.80951 0.78175 0.0
Cd428 Cd 0.21944 0.76833 0.79906 0.0
O429 O 0.19729 0.76411 0.77515 0.0
O430 O 0.26033 0.84866 0.77556 0.0
O431 O 0.23124 0.84071 0.79635 0.0
C432 C 0.24354 0.85876 0.78705 0.0
C433 C 0.1938 0.75712 0.82285 0.0
C434 C 0.20333 0.77492 0.76115 0.0
C435 C 0.2853 0.76479 0.7973 0.0
O436 O 0.2615 0.75471 0.80155 0.0
O437 O 0.286 0.78788 0.78942 0.0
O438 O 0.20173 0.73763 0.81174 0.0
O439 O 0.19947 0.78363 0.82025 0.0
O440 O 0.92564 0.28042 0.55249 0.0
Cd441 Cd 0.90007 0.2968 0.53278 0.0
Cd442 Cd 0.92484 0.25092 0.51376 0.0
O443 O 0.94707 0.24642 0.53704 0.0
O444 O 0.88937 0.33537 0.54251 0.0
O445 O 0.91582 0.32902 0.51987 0.0
C446 C 0.90407 0.34638 0.53096 0.0
C447 C 0.95009 0.23893 0.48922 0.0
C448 C 0.94377 0.26016 0.55139 0.0
C449 C 0.85984 0.2517 0.51661 0.0
O450 O 0.88218 0.23887 0.51166 0.0
O451 O 0.86178 0.27616 0.52479 0.0
O452 O 0.94082 0.21965 0.49873 0.0
O453 O 0.9454 0.26559 0.49367 0.0
O454 O 0.8569 0.41553 0.78579 0.0
Cd455 Cd 0.83715 0.39412 0.76439 0.0
Cd456 Cd 0.87328 0.42718 0.74707 0.0
O457 O 0.87826 0.44813 0.77137 0.0
O458 O 0.79816 0.3831 0.77085 0.0
O459 O 0.80597 0.41535 0.75174 0.0
C460 C 0.78809 0.4021 0.7607 0.0
C461 C 0.8779 0.45557 0.72347 0.0
C462 C 0.87143 0.43866 0.78559 0.0
C463 C 0.88089 0.36147 0.7462 0.0
O464 O 0.89009 0.38628 0.74306 0.0
O465 O 0.85793 0.3589 0.75403 0.0
O466 O 0.89973 0.44889 0.73331 0.0
O467 O 0.85281 0.44683 0.72723 0.0
O468 O 0.74066 0.35104 0.04222 0.0
Cd469 Cd 0.75353 0.33504 0.01871 0.0
Cd470 Cd 0.71459 0.3707 0.00575 0.0
O471 O 0.70053 0.36793 0.03038 0.0
O472 O 0.76305 0.29362 0.02038 0.0
O473 O 0.72422 0.30932 0.00591 0.0
C474 C 0.73879 0.28805 0.01182 0.0
C475 C 0.68088 0.37429 0.98247 0.0
C476 C 0.71577 0.36163 0.04374 0.0
C477 C 0.77774 0.38365 0.00215 0.0
O478 O 0.75212 0.39298 0.00237 0.0
O479 O 0.78349 0.35848 0.00679 0.0
O480 O 0.6846 0.3947 0.99433 0.0
O481 O 0.69545 0.35098 0.98415 0.0
O482 O 0.79406 0.21258 0.24117 0.0
Cd483 Cd 0.80782 0.23457 0.26404 0.0
Cd484 Cd 0.79098 0.18642 0.27791 0.0
O485 O 0.7722 0.17781 0.25347 0.0
O486 O 0.80669 0.27594 0.25905 0.0
O487 O 0.77706 0.25609 0.27631 0.0
C488 C 0.78471 0.2783 0.26839 0.0
C489 C 0.76466 0.17724 0.30169 0.0
C490 C 0.77786 0.19041 0.24 0.0
C491 C 0.85432 0.20078 0.28062 0.0
O492 O 0.83488 0.18177 0.28151 0.0
O493 O 0.84788 0.22536 0.27526 0.0
O494 O 0.77486 0.15669 0.29207 0.0
O495 O 0.76892 0.20337 0.29761 0.0
H496 H 0.26791 0.00842 0.30908 0.0
H497 H 0.2027 0.94415 0.31541 0.0
H498 H 0.29891 0.97132 0.29712 0.0
H499 H 0.23312 0.90722 0.30257 0.0
H500 H 0.31287 0.84794 0.30481 0.0
H501 H 0.27608 0.88298 0.3115 0.0
H502 H 0.30688 0.93753 0.27333 0.0
H503 H 0.34443 0.90265 0.26697 0.0
C504 C 0.26008 0.9864 0.30779 0.0
C505 C 0.23293 0.97926 0.31341 0.0
C506 C 0.2777 0.96515 0.30067 0.0
C507 C 0.26857 0.93621 0.2989 0.0
C508 C 0.24099 0.92923 0.30394 0.0
C509 C 0.22341 0.95048 0.31114 0.0
C510 C 0.31154 0.86717 0.29761 0.0
C511 C 0.33179 0.87263 0.28548 0.0
C512 C 0.29028 0.88726 0.3014 0.0
C513 C 0.28865 0.91327 0.29309 0.0
C514 C 0.30787 0.91796 0.28021 0.0
C515 C 0.32924 0.89786 0.27645 0.0
H516 H 0.16358 0.68989 0.55619 0.0
H517 H 0.13914 0.75686 0.59335 0.0
H518 H 0.2054 0.71837 0.5501 0.0
H519 H 0.17904 0.7862 0.58617 0.0
H520 H 0.25996 0.83097 0.58007 0.0
H521 H 0.22785 0.79378 0.58875 0.0
H522 H 0.21875 0.75867 0.53587 0.0
H523 H 0.25274 0.7948 0.52763 0.0
C524 C 0.16708 0.71063 0.5631 0.0
C525 C 0.1477 0.72107 0.57519 0.0
C526 C 0.19092 0.72718 0.55942 0.0
C527 C 0.19583 0.75472 0.5676 0.0
C528 C 0.17655 0.76493 0.57981 0.0
C529 C 0.1531 0.74826 0.58367 0.0
C530 C 0.25166 0.81473 0.57046 0.0
C531 C 0.25867 0.81564 0.55322 0.0
C532 C 0.23292 0.79362 0.57534 0.0
C533 C 0.21989 0.77357 0.56296 0.0
C534 C 0.22836 0.77354 0.54584 0.0
C535 C 0.24783 0.79425 0.54106 0.0
H536 H 0.39526 0.61979 0.8114 0.0
H537 H 0.4572 0.68943 0.81229 0.0
H538 H 0.35648 0.6534 0.80619 0.0
H539 H 0.41798 0.72348 0.80791 0.0
H540 H 0.33804 0.77015 0.78353 0.0
H541 H 0.37962 0.73857 0.78731 0.0
H542 H 0.33389 0.69077 0.82319 0.0
H543 H 0.29246 0.7216 0.81915 0.0
C544 C 0.40069 0.64223 0.81029 0.0
C545 C 0.42942 0.65185 0.8123 0.0
C546 C 0.37836 0.66162 0.80757 0.0
C547 C 0.38408 0.69122 0.80692 0.0
C548 C 0.41284 0.70082 0.80834 0.0
C549 C 0.43529 0.68134 0.81102 0.0
C550 C 0.33705 0.75306 0.79234 0.0
C551 C 0.31184 0.74819 0.80088 0.0
C552 C 0.36086 0.73499 0.79452 0.0
C553 C 0.35987 0.71182 0.80531 0.0
C554 C 0.33509 0.70789 0.81441 0.0
C555 C 0.31138 0.72574 0.81218 0.0
H556 H 0.52099 0.90302 0.0661 0.0
H557 H 0.44382 0.95418 0.06224 0.0
H558 H 0.49274 0.85975 0.05858 0.0
H559 H 0.41518 0.91048 0.05594 0.0
H560 H 0.37728 0.82853 0.027 0.0
H561 H 0.404 0.87318 0.03438 0.0
H562 H 0.4599 0.82895 0.07035 0.0
H563 H 0.43399 0.7842 0.0624 0.0
C564 C 0.49799 0.90511 0.06359 0.0
C565 C 0.48476 0.93221 0.06471 0.0
C566 C 0.48166 0.88014 0.05958 0.0
C567 C 0.45158 0.8815 0.05682 0.0
C568 C 0.43831 0.9086 0.05785 0.0
C569 C 0.45472 0.93367 0.06168 0.0
C570 C 0.39518 0.82843 0.03656 0.0
C571 C 0.40368 0.8028 0.04402 0.0
C572 C 0.41044 0.85407 0.04085 0.0
C573 C 0.43433 0.85468 0.05284 0.0
C574 C 0.44211 0.82918 0.06073 0.0
C575 C 0.42711 0.80352 0.05628 0.0
H576 H 0.14946 0.62833 0.99639 0.0
H577 H 0.10927 0.707 0.01484 0.0
H578 H 0.19591 0.64659 0.00814 0.0
H579 H 0.15625 0.72557 0.02622 0.0
H580 H 0.24901 0.75792 0.01385 0.0
H581 H 0.19948 0.74044 0.01104 0.0
H582 H 0.22565 0.66255 0.03497 0.0
H583 H 0.27545 0.68005 0.03776 0.0
C584 C 0.15034 0.64924 0.00332 0.0
C585 C 0.12552 0.66622 0.00456 0.0
C586 C 0.17707 0.65971 0.01006 0.0
C587 C 0.17973 0.68753 0.01807 0.0
C588 C 0.15484 0.70414 0.01996 0.0
C589 C 0.12799 0.69354 0.01335 0.0
C590 C 0.24414 0.73731 0.01884 0.0
C591 C 0.26617 0.7202 0.02584 0.0
C592 C 0.21571 0.72739 0.01733 0.0
C593 C 0.20874 0.70003 0.02266 0.0
C594 C 0.23049 0.68362 0.0306 0.0
C595 C 0.25894 0.69369 0.03227 0.0
H596 H 0.52223 0.63735 0.23131 0.0
H597 H 0.44224 0.59542 0.24102 0.0
H598 H 0.5015 0.68377 0.23855 0.0
H599 H 0.42081 0.64254 0.2475 0.0
H600 H 0.40834 0.73253 0.27721 0.0
H601 H 0.42341 0.68356 0.26895 0.0
H602 H 0.46694 0.71574 0.22636 0.0
H603 H 0.45277 0.76446 0.23492 0.0
C604 C 0.50022 0.63798 0.23512 0.0
C605 C 0.48401 0.61255 0.23574 0.0
C606 C 0.48813 0.66474 0.23898 0.0
C607 C 0.45935 0.66694 0.24338 0.0
C608 C 0.44308 0.64156 0.24418 0.0
C609 C 0.45528 0.61461 0.24035 0.0
C610 C 0.42076 0.729 0.26593 0.0
C611 C 0.42976 0.75236 0.25687 0.0
C612 C 0.42934 0.70096 0.26118 0.0
C613 C 0.44688 0.69582 0.2472 0.0
C614 C 0.45415 0.71904 0.23749 0.0
C615 C 0.44588 0.74696 0.24233 0.0
H616 H 0.4779 0.0111 0.50602 0.0
H617 H 0.53081 0.93554 0.5002 0.0
H618 H 0.44254 0.98335 0.51993 0.0
H619 H 0.49577 0.90781 0.51475 0.0
H620 H 0.40386 0.86505 0.5122 0.0
H621 H 0.44799 0.88958 0.50619 0.0
H622 H 0.4305 0.95737 0.54451 0.0
H623 H 0.38578 0.93308 0.55023 0.0
C624 C 0.48214 0.9886 0.50792 0.0
C625 C 0.50693 0.97541 0.50176 0.0
C626 C 0.46204 0.97275 0.51614 0.0
C627 C 0.46623 0.94328 0.51843 0.0
C628 C 0.49175 0.9304 0.51303 0.0
C629 C 0.51193 0.94633 0.50481 0.0
C630 C 0.40971 0.88485 0.51965 0.0
C631 C 0.39103 0.89735 0.53149 0.0
C632 C 0.43518 0.89888 0.51626 0.0
C633 C 0.44259 0.92571 0.52466 0.0
C634 C 0.4251 0.93701 0.53755 0.0
C635 C 0.39957 0.92297 0.54093 0.0
H636 H 0.2152 0.03786 0.76378 0.0
H637 H 0.1331 0.99455 0.76472 0.0
H638 H 0.23878 0.99765 0.77752 0.0
H639 H 0.15667 0.95401 0.77781 0.0
H640 H 0.20198 0.8858 0.8055 0.0
H641 H 0.18339 0.93426 0.80198 0.0
H642 H 0.24885 0.94944 0.76635 0.0
H643 H 0.2677 0.90154 0.77015 0.0
C644 C 0.20211 0.02003 0.76723 0.0
C645 C 0.17234 0.01919 0.76294 0.0
C646 C 0.21565 0.99687 0.77497 0.0
C647 C 0.19969 0.97244 0.7786 0.0
C648 C 0.16965 0.97252 0.77533 0.0
C649 C 0.15615 0.99562 0.76761 0.0
C650 C 0.21285 0.89979 0.79728 0.0
C651 C 0.23606 0.88968 0.78791 0.0
C652 C 0.20208 0.92748 0.79517 0.0
C653 C 0.21435 0.94561 0.78369 0.0
C654 C 0.23895 0.93621 0.77539 0.0
C655 C 0.24967 0.90859 0.77748 0.0
H656 H 0.65848 0.51465 0.79155 0.0
H657 H 0.61096 0.4344 0.78817 0.0
H658 H 0.69788 0.49104 0.77727 0.0
H659 H 0.65022 0.41077 0.77335 0.0
H660 H 0.74548 0.37706 0.77739 0.0
H661 H 0.69873 0.39717 0.78332 0.0
H662 H 0.71465 0.46721 0.751 0.0
H663 H 0.76184 0.4473 0.74529 0.0
C664 C 0.65632 0.492 0.78753 0.0
C665 C 0.63182 0.47628 0.7912 0.0
C666 C 0.67875 0.47853 0.77913 0.0
C667 C 0.67726 0.44897 0.7742 0.0
C668 C 0.65213 0.43352 0.77712 0.0
C669 C 0.62957 0.44707 0.78549 0.0
C670 C 0.73878 0.39641 0.77122 0.0
C671 C 0.75757 0.41082 0.76107 0.0
C672 C 0.71185 0.40787 0.77455 0.0
C673 C 0.70309 0.43402 0.76782 0.0
C674 C 0.72099 0.44728 0.75661 0.0
C675 C 0.74795 0.43576 0.75324 0.0
H676 H 0.6935 0.13744 0.05907 0.0
H677 H 0.62185 0.14371 0.02175 0.0
H678 H 0.71907 0.17471 0.04541 0.0
H679 H 0.64795 0.18001 0.00728 0.0
H680 H 0.6824 0.27306 0.00556 0.0
H681 H 0.65976 0.22824 0.01193 0.0
H682 H 0.74361 0.19151 0.02293 0.0
H683 H 0.76611 0.23725 0.01753 0.0
C684 C 0.6836 0.1463 0.0476 0.0
C685 C 0.65567 0.13793 0.04153 0.0
C686 C 0.69833 0.1676 0.03964 0.0
C687 C 0.68564 0.18071 0.02521 0.0
C688 C 0.65823 0.171 0.01858 0.0
C689 C 0.64329 0.15008 0.02677 0.0
C690 C 0.69605 0.2552 0.00894 0.0
C691 C 0.72602 0.25882 0.01128 0.0
C692 C 0.68303 0.2293 0.01256 0.0
C693 C 0.69973 0.20618 0.01831 0.0
C694 C 0.72994 0.20906 0.01908 0.0
C695 C 0.74291 0.23518 0.01579 0.0
H696 H 0.02294 0.18503 0.33257 0.0
H697 H 0.02215 0.12107 0.28983 0.0
H698 H 0.97619 0.2023 0.32183 0.0
H699 H 0.97504 0.13787 0.27948 0.0
H700 H 0.87676 0.14756 0.28471 0.0
H701 H 0.92629 0.13519 0.29269 0.0
H702 H 0.95018 0.22518 0.29563 0.0
H703 H 0.90031 0.23777 0.28745 0.0
C704 C 0.01312 0.17499 0.32072 0.0
C705 C 0.02624 0.15144 0.31216 0.0
C706 C 0.98629 0.18486 0.31461 0.0
C707 C 0.97193 0.17122 0.29993 0.0
C708 C 0.98549 0.14848 0.29098 0.0
C709 C 0.0124 0.13881 0.29697 0.0
C710 C 0.8925 0.16478 0.28702 0.0
C711 C 0.88458 0.19368 0.28547 0.0
C712 C 0.92093 0.15764 0.29146 0.0
C713 C 0.94206 0.17922 0.29467 0.0
C714 C 0.93424 0.20816 0.29324 0.0
C715 C 0.90577 0.21532 0.28853 0.0
H716 H 0.91783 0.52891 0.56096 0.0
H717 H 0.99532 0.50699 0.53519 0.0
H718 H 0.89666 0.48298 0.5507 0.0
H719 H 0.97516 0.45986 0.52638 0.0
H720 H 0.93021 0.3778 0.50738 0.0
H721 H 0.9424 0.42909 0.51015 0.0
H722 H 0.90267 0.4364 0.55912 0.0
H723 H 0.8894 0.38605 0.55588 0.0
C724 C 0.93031 0.51454 0.55292 0.0
C725 C 0.95858 0.52169 0.54918 0.0
C726 C 0.91828 0.48785 0.54727 0.0
C727 C 0.93439 0.46727 0.53806 0.0
C728 C 0.96199 0.47505 0.53341 0.0
C729 C 0.97381 0.50201 0.53877 0.0
C730 C 0.92368 0.3906 0.51855 0.0
C731 C 0.90897 0.37784 0.53144 0.0
C732 C 0.93083 0.41995 0.52022 0.0
C733 C 0.9237 0.43704 0.53492 0.0
C734 C 0.90809 0.42429 0.54745 0.0
C735 C 0.90065 0.39518 0.54567 0.0
H736 H 0.6985 0.18593 0.47014 0.0
H737 H 0.71397 0.13489 0.51445 0.0
H738 H 0.73978 0.21639 0.47985 0.0
H739 H 0.7561 0.16463 0.52352 0.0
H740 H 0.84993 0.19426 0.51189 0.0
H741 H 0.8039 0.16936 0.50616 0.0
H742 H 0.7599 0.25083 0.5078 0.0
H743 H 0.80625 0.27606 0.51399 0.0
C744 C 0.71025 0.18147 0.4821 0.0
C745 C 0.70295 0.15769 0.49141 0.0
C746 C 0.73395 0.19892 0.4876 0.0
C747 C 0.75106 0.19267 0.50234 0.0
C748 C 0.74327 0.16967 0.51202 0.0
C749 C 0.71931 0.15253 0.50671 0.0
C750 C 0.83047 0.20693 0.51109 0.0
C751 C 0.83165 0.23711 0.51332 0.0
C752 C 0.80415 0.19264 0.50794 0.0
C753 C 0.77849 0.20824 0.50664 0.0
C754 C 0.77951 0.23843 0.50879 0.0
C755 C 0.80591 0.25277 0.51234 0.0
H756 H 0.03042 0.25739 0.73246 0.0
H757 H 0.96271 0.1931 0.72916 0.0
H758 H 0.99508 0.295 0.7366 0.0
H759 H 0.92703 0.23105 0.73241 0.0
H760 H 0.87638 0.30699 0.75755 0.0
H761 H 0.90943 0.26697 0.75301 0.0
H762 H 0.95791 0.31818 0.72013 0.0
H763 H 0.92552 0.35827 0.72504 0.0
C764 C 0.008 0.25122 0.73273 0.0
C765 C -0.00052 0.22216 0.73052 0.0
C766 C 0.98763 0.27288 0.73482 0.0
C767 C 0.95813 0.26612 0.73463 0.0
C768 C 0.94957 0.23702 0.73269 0.0
C769 C 0.97001 0.21529 0.73066 0.0
C770 C 0.89391 0.30955 0.7492 0.0
C771 C 0.89848 0.33592 0.7418 0.0
C772 C 0.91283 0.2866 0.74657 0.0
C773 C 0.9366 0.2895 0.73642 0.0
C774 C 0.94029 0.31544 0.72839 0.0
C775 C 0.92156 0.33838 0.7311 0.0
H776 H 0.88049 0.5056 0.95107 0.0
H777 H 0.92645 0.49623 1.00034 0.0
H778 H 0.84591 0.46905 0.95774 0.0
H779 H 0.89193 0.45929 0.00689 0.0
H780 H 0.83635 0.37639 0.00548 0.0
H781 H 0.87371 0.40941 0.99738 0.0
H782 H 0.80804 0.46698 0.97865 0.0
H783 H 0.77093 0.43423 0.98657 0.0
C784 C 0.88315 0.49584 0.96337 0.0
C785 C 0.90604 0.50413 0.97527 0.0
C786 C 0.8634 0.47481 0.96714 0.0
C787 C 0.86611 0.46143 0.98288 0.0
C788 C 0.88945 0.46904 0.99459 0.0
C789 C 0.90919 0.49021 0.99084 0.0
C790 C 0.82994 0.39601 0.99953 0.0
C791 C 0.80067 0.40269 0.9967 0.0
C792 C 0.85131 0.41497 0.99499 0.0
C793 C 0.84378 0.44075 0.98736 0.0
C794 C 0.81454 0.44713 0.98432 0.0
C795 C 0.79326 0.4284 0.98897 0.0
H796 H 0.64776 0.40793 0.26519 0.0
H797 H 0.69072 0.40541 0.21737 0.0
H798 H 0.6836 0.37503 0.27707 0.0
H799 H 0.72625 0.37278 0.22914 0.0
H800 H 0.79849 0.33008 0.25629 0.0
H801 H 0.76598 0.36954 0.25024 0.0
H802 H 0.69738 0.32468 0.27279 0.0
H803 H 0.73019 0.28549 0.27927 0.0
C804 C 0.66484 0.40038 0.25723 0.0
C805 C 0.66643 0.4094 0.24035 0.0
C806 C 0.68538 0.38159 0.26404 0.0
C807 C 0.70795 0.37142 0.25412 0.0
C808 C 0.70961 0.38069 0.23732 0.0
C809 C 0.68915 0.39941 0.23054 0.0
C810 C 0.77665 0.32891 0.26031 0.0
C811 C 0.76682 0.3045 0.26807 0.0
C812 C 0.75794 0.35144 0.25672 0.0
C813 C 0.7289 0.35001 0.26069 0.0
C814 C 0.71962 0.32654 0.26959 0.0
C815 C 0.73843 0.30403 0.27329 0.0
H816 H 0.26322 0.0122 0.41725 0.0
H817 H 0.17561 0.9856 0.42338 0.0
H818 H 0.2792 0.98631 0.44259 0.0
H819 H 0.19155 0.95976 0.44863 0.0
H820 H 0.2287 0.95072 0.50489 0.0
H821 H 0.21287 0.97466 0.47889 0.0
H822 H 0.28152 0.9342 0.45161 0.0
H823 H 0.29733 0.91007 0.47752 0.0
C824 C 0.24745 0.00072 0.42397 0.0
C825 C 0.21822 0.00081 0.41833 0.0
C826 C 0.25658 0.98582 0.43839 0.0
C827 C 0.23657 0.97112 0.44758 0.0
C828 C 0.20738 0.97108 0.44186 0.0
C829 C 0.19833 0.98563 0.42732 0.0
C830 C 0.24037 0.94686 0.49334 0.0
C831 C 0.26424 0.92845 0.49327 0.0
C832 C 0.23123 0.96046 0.47845 0.0
C833 C 0.246 0.95627 0.46326 0.0
C834 C 0.26989 0.93795 0.46318 0.0
C835 C 0.27879 0.92402 0.47799 0.0
H836 H 0.1442 0.72681 0.65547 0.0
H837 H 0.06705 0.72322 0.68359 0.0
H838 H 0.17143 0.74395 0.68185 0.0
H839 H 0.09402 0.7416 0.7098 0.0
H840 H 0.15871 0.7362 0.75643 0.0
H841 H 0.13008 0.72321 0.72986 0.0
H842 H 0.17851 0.78398 0.70294 0.0
H843 H 0.20765 0.79651 0.72942 0.0
C844 C 0.13299 0.72997 0.66725 0.0
C845 C 0.1035 0.72343 0.66745 0.0
C846 C 0.14854 0.74008 0.68234 0.0
C847 C 0.13495 0.74396 0.69797 0.0
C848 C 0.10523 0.73842 0.69803 0.0
C849 C 0.08969 0.72826 0.68294 0.0
C850 C 0.16326 0.74685 0.74485 0.0
C851 C 0.18559 0.76731 0.74505 0.0
C852 C 0.14666 0.73954 0.72964 0.0
C853 C 0.15195 0.7526 0.71427 0.0
C854 C 0.17411 0.77326 0.71451 0.0
C855 C 0.19076 0.78053 0.72971 0.0
H856 H 0.45871 0.66733 0.9017 0.0
H857 H 0.4202 0.58485 0.90938 0.0
H858 H 0.43481 0.68859 0.92657 0.0
H859 H 0.39641 0.60607 0.93432 0.0
H860 H 0.40369 0.64771 0.99125 0.0
H861 H 0.4187 0.62628 0.96383 0.0
H862 H 0.38411 0.69886 0.93762 0.0
H863 H 0.36871 0.7203 0.96506 0.0
C864 C 0.4448 0.6539 0.90858 0.0
C865 C 0.44133 0.62448 0.9037 0.0
C866 C 0.43103 0.66606 0.92272 0.0
C867 C 0.41391 0.6489 0.93238 0.0
C868 C 0.40964 0.6197 0.92713 0.0
C869 C 0.42305 0.60764 0.91282 0.0
C870 C 0.39905 0.659 0.97963 0.0
C871 C 0.38514 0.68575 0.98033 0.0
C872 C 0.40746 0.64663 0.96393 0.0
C873 C 0.40252 0.66094 0.94865 0.0
C874 C 0.38823 0.68747 0.94926 0.0
C875 C 0.37937 0.69964 0.96494 0.0
H876 H 0.46775 0.97816 0.15324 0.0
H877 H 0.55509 0.95561 0.16818 0.0
H878 H 0.45034 0.95071 0.17644 0.0
H879 H 0.5382 0.92952 0.19184 0.0
H880 H 0.50055 0.86143 0.22208 0.0
H881 H 0.51513 0.88765 0.19799 0.0
H882 H 0.44688 0.94882 0.20637 0.0
H883 H 0.43131 0.92127 0.23002 0.0
C884 C 0.48319 0.96748 0.16161 0.0
C885 C 0.5127 0.96871 0.15885 0.0
C886 C 0.47329 0.9519 0.17498 0.0
C887 C 0.49278 0.93763 0.18605 0.0
C888 C 0.52238 0.93946 0.18337 0.0
C889 C 0.53217 0.95456 0.16985 0.0
C890 C 0.48861 0.88046 0.21876 0.0
C891 C 0.4649 0.88941 0.228 0.0
C892 C 0.49711 0.89569 0.20498 0.0
C893 C 0.48252 0.92073 0.20027 0.0
C894 C 0.4585 0.92951 0.20944 0.0
C895 C 0.44964 0.91385 0.22308 0.0
H896 H 0.09869 0.73753 0.91612 0.0
H897 H 0.10801 0.65275 0.89156 0.0
H898 H 0.12729 0.75794 0.89428 0.0
H899 H 0.13499 0.67285 0.86937 0.0
H900 H 0.20288 0.70844 0.83941 0.0
H901 H 0.17884 0.69206 0.86387 0.0
H902 H 0.12752 0.76941 0.86513 0.0
H903 H 0.15338 0.78663 0.84114 0.0
C904 C 0.10689 0.72333 0.90602 0.0
C905 C 0.10159 0.69355 0.90564 0.0
C906 C 0.12307 0.73498 0.89344 0.0
C907 C 0.1338 0.71709 0.88006 0.0
C908 C 0.12799 0.68732 0.87969 0.0
C909 C 0.11238 0.67571 0.89239 0.0
C910 C 0.18657 0.72202 0.84499 0.0
C911 C 0.17971 0.74862 0.83828 0.0
C912 C 0.17257 0.71255 0.85897 0.0
C913 C 0.15065 0.72902 0.86633 0.0
C914 C 0.14437 0.75616 0.85991 0.0
C915 C 0.15901 0.766 0.8461 0.0
H916 H 0.43292 0.56124 0.14099 0.0
H917 H 0.51047 0.61253 0.1404 0.0
H918 H 0.411 0.58807 0.1176 0.0
H919 H 0.48813 0.6401 0.11776 0.0
H920 H 0.45685 0.65725 0.06341 0.0
H921 H 0.47552 0.63073 0.0875 0.0
H922 H 0.39247 0.63506 0.10954 0.0
H923 H 0.37343 0.66131 0.085 0.0
C924 C 0.44521 0.57838 0.13599 0.0
C925 C 0.47356 0.58456 0.14253 0.0
C926 C 0.43252 0.59395 0.12271 0.0
C927 C 0.44792 0.61602 0.11567 0.0
C928 C 0.47584 0.62287 0.12266 0.0
C929 C 0.48852 0.60731 0.13586 0.0
C930 C 0.44246 0.65251 0.07333 0.0
C931 C 0.41367 0.66154 0.07232 0.0
C932 C 0.45326 0.63747 0.08725 0.0
C933 C 0.43564 0.63115 0.10061 0.0
C934 C 0.40659 0.63952 0.09943 0.0
C935 C 0.3957 0.65459 0.0854 0.0
H936 H 0.51295 0.92036 0.40911 0.0
H937 H 0.52821 0.98649 0.37394 0.0
H938 H 0.49634 0.88762 0.38465 0.0
H939 H 0.5108 0.95442 0.34978 0.0
H940 H 0.50277 0.88497 0.30782 0.0
H941 H 0.5244 0.91112 0.33347 0.0
H942 H 0.45532 0.88261 0.36322 0.0
H943 H 0.43396 0.85591 0.33768 0.0
C944 C 0.51273 0.92789 0.39619 0.0
C945 C 0.52162 0.9561 0.39348 0.0
C946 C 0.50308 0.90923 0.38221 0.0
C947 C 0.50239 0.91838 0.36526 0.0
C948 C 0.51147 0.94652 0.36262 0.0
C949 C 0.521 0.96509 0.37652 0.0
C950 C 0.49238 0.88394 0.31987 0.0
C951 C 0.46645 0.86861 0.32063 0.0
C952 C 0.5047 0.89906 0.33455 0.0
C953 C 0.49134 0.89928 0.35032 0.0
C954 C 0.46622 0.88276 0.3513 0.0
C955 C 0.45391 0.86757 0.33661 0.0
H956 H 0.18249 0.9857 0.66569 0.0
H957 H 0.23 0.06277 0.65667 0.0
H958 H 0.20526 0.96012 0.64188 0.0
H959 H 0.2531 0.03692 0.6329 0.0
H960 H 0.29929 0.96839 0.59645 0.0
H961 H 0.28516 0.99287 0.62355 0.0
H962 H 0.19647 0.96953 0.61008 0.0
H963 H 0.21022 0.94559 0.58329 0.0
C964 C 0.19817 0.99703 0.65881 0.0
C965 C 0.20407 0.02637 0.66287 0.0
C966 C 0.21121 0.98239 0.64519 0.0
C967 C 0.23055 0.99671 0.63538 0.0
C968 C 0.23829 0.02537 0.64029 0.0
C969 C 0.22511 0.04012 0.65391 0.0
C970 C 0.27679 0.96869 0.59928 0.0
C971 C 0.2559 0.95502 0.58773 0.0
C972 C 0.26875 0.98264 0.61476 0.0
C973 C 0.2398 0.98266 0.61901 0.0
C974 C 0.21901 0.96937 0.60731 0.0
C975 C 0.22692 0.95585 0.59186 0.0
H976 H 0.559 0.43186 0.90187 0.0
H977 H 0.64559 0.44687 0.8873 0.0
H978 H 0.57785 0.40394 0.92574 0.0
H979 H 0.6644 0.41851 0.91098 0.0
H980 H 0.68653 0.35062 0.94985 0.0
H981 H 0.66211 0.36601 0.92314 0.0
H982 H 0.60999 0.42436 0.95302 0.0
H983 H 0.63476 0.4096 0.9796 0.0
C984 C 0.582 0.42849 0.90351 0.0
C985 C 0.6009 0.4415 0.89281 0.0
C986 C 0.59274 0.41266 0.91717 0.0
C987 C 0.62253 0.40908 0.92014 0.0
C988 C 0.64133 0.42071 0.90884 0.0
C989 C 0.63062 0.43703 0.89538 0.0
C990 C 0.66937 0.3662 0.9507 0.0
C991 C 0.66257 0.37903 0.96676 0.0
C992 C 0.65556 0.37509 0.93544 0.0
C993 C 0.63426 0.39637 0.93607 0.0
C994 C 0.62618 0.40775 0.9522 0.0
C995 C 0.64041 0.39938 0.96738 0.0
H996 H 0.67242 0.1757 0.14459 0.0
H997 H 0.70298 0.08914 0.15079 0.0
H998 H 0.70318 0.19285 0.16974 0.0
H999 H 0.73418 0.10639 0.17549 0.0
H1000 H 0.74741 0.14058 0.23237 0.0
H1001 H 0.72332 0.12416 0.2049 0.0
H1002 H 0.75416 0.19947 0.18158 0.0
H1003 H 0.77823 0.21618 0.20921 0.0
C1004 C 0.68601 0.16044 0.15115 0.0
C1005 C 0.68516 0.13106 0.14573 0.0
C1006 C 0.70379 0.17029 0.16545 0.0
C1007 C 0.72089 0.15089 0.17466 0.0
C1008 C 0.72097 0.12177 0.16877 0.0
C1009 C 0.70333 0.11197 0.15447 0.0
C1010 C 0.74926 0.1536 0.22138 0.0
C1011 C 0.7647 0.17974 0.223 0.0
C1012 C 0.7356 0.14407 0.2056 0.0
C1013 C 0.73691 0.1605 0.19108 0.0
C1014 C 0.75263 0.18647 0.1926 0.0
C1015 C 0.76652 0.19593 0.20839 0.0
H1016 H 0.04423 0.13085 0.42026 0.0
H1017 H 0.05842 0.21402 0.40042 0.0
H1018 H 0.01436 0.15266 0.4419 0.0
H1019 H 0.0271 0.23612 0.42169 0.0
H1020 H 0.99334 0.26769 0.47476 0.0
H1021 H 0.02258 0.24925 0.4514 0.0
H1022 H 0.96931 0.17246 0.44513 0.0
H1023 H 0.94163 0.19013 0.46898 0.0
C1024 C 0.04049 0.15383 0.42039 0.0
C1025 C 0.05333 0.17072 0.40859 0.0
C1026 C 0.02319 0.1664 0.43274 0.0
C1027 C 0.01779 0.19619 0.43343 0.0
C1028 C 0.03089 0.21318 0.42164 0.0
C1029 C 0.04869 0.20057 0.40941 0.0
C1030 C 0.9879 0.24699 0.46823 0.0
C1031 C 0.96558 0.23011 0.47379 0.0
C1032 C 0.00454 0.23643 0.45481 0.0
C1033 C 0.99874 0.20904 0.44655 0.0
C1034 C 0.97516 0.19315 0.45154 0.0
C1035 C 0.95908 0.20337 0.46513 0.0
H1036 H 0.92975 0.51516 0.62637 0.0
H1037 H 0.9152 0.59187 0.65884 0.0
H1038 H 0.90933 0.48589 0.6477 0.0
H1039 H 0.89349 0.56246 0.67964 0.0
H1040 H 0.84062 0.49254 0.70735 0.0
H1041 H 0.85025 0.5212 0.68262 0.0
H1042 H 0.93427 0.48287 0.68019 0.0
H1043 H 0.92519 0.4552 0.70496 0.0
C1044 C 0.92182 0.52588 0.63787 0.0
C1045 C 0.92473 0.5559 0.64099 0.0
C1046 C 0.90988 0.50909 0.64998 0.0
C1047 C 0.90001 0.52199 0.66528 0.0
C1048 C 0.90075 0.55209 0.66784 0.0
C1049 C 0.91315 0.5689 0.65586 0.0
C1050 C 0.86103 0.49021 0.70142 0.0
C1051 C 0.88224 0.47182 0.70809 0.0
C1052 C 0.8665 0.50656 0.68735 0.0
C1053 C 0.89289 0.50398 0.6795 0.0
C1054 C 0.91365 0.48499 0.68592 0.0
C1055 C 0.90851 0.46933 0.70016 0.0
H1056 H 0.65619 0.17056 0.38956 0.0
H1057 H 0.7109 0.09586 0.39164 0.0
H1058 H 0.68013 0.18528 0.36438 0.0
H1059 H 0.73576 0.11141 0.36722 0.0
H1060 H 0.74796 0.12459 0.31103 0.0
H1061 H 0.72479 0.1129 0.33691 0.0
H1062 H 0.72436 0.20312 0.35376 0.0
H1063 H 0.74699 0.21494 0.32743 0.0
C1064 C 0.67349 0.15742 0.38478 0.0
C1065 C 0.68142 0.13188 0.39259 0.0
C1066 C 0.68743 0.16605 0.37045 0.0
C1067 C 0.70966 0.14936 0.36363 0.0
C1068 C 0.71835 0.12449 0.3719 0.0
C1069 C 0.70435 0.1158 0.38613 0.0
C1070 C 0.74287 0.14199 0.32021 0.0
C1071 C 0.7494 0.1707 0.31719 0.0
C1072 C 0.72978 0.13526 0.33515 0.0
C1073 C 0.72304 0.15702 0.34757 0.0
C1074 C 0.72912 0.18584 0.34443 0.0
C1075 C 0.74214 0.19261 0.32937 0.0
H1076 H 0.00568 0.22208 0.65544 0.0
H1077 H 0.07041 0.1879 0.62261 0.0
H1078 H 0.98014 0.24214 0.6305 0.0
H1079 H 0.04596 0.2089 0.59784 0.0
H1080 H 0.97623 0.21212 0.55498 0.0
H1081 H 0.0038 0.19789 0.58045 0.0
H1082 H 0.97892 0.27604 0.60848 0.0
H1083 H 0.95023 0.2898 0.58299 0.0
C1084 C 0.01473 0.21953 0.64293 0.0
C1085 C 0.03973 0.20332 0.6408 0.0
C1086 C 0.00022 0.23103 0.62865 0.0
C1087 C 0.01073 0.22674 0.61207 0.0
C1088 C 0.03678 0.21194 0.61029 0.0
C1089 C 0.05095 0.20012 0.62446 0.0
C1090 C 0.97667 0.22636 0.56654 0.0
C1091 C 0.96103 0.2521 0.56694 0.0
C1092 C 0.99271 0.21831 0.58115 0.0
C1093 C 0.99387 0.23595 0.59652 0.0
C1094 C 0.9783 0.26181 0.59692 0.0
C1095 C 0.96196 0.26975 0.58229 0.0
H1096 H 0.89122 0.55923 0.87565 0.0
H1097 H 0.96177 0.4994 0.88076 0.0
H1098 H 0.8741 0.53303 0.84879 0.0
H1099 H 0.94339 0.47253 0.85459 0.0
H1100 H 0.8781 0.41762 0.81756 0.0
H1101 H 0.89342 0.44403 0.84475 0.0
H1102 H 0.89933 0.52232 0.81807 0.0
H1103 H 0.88469 0.49587 0.79073 0.0
C1104 C 0.90309 0.54057 0.87115 0.0
C1105 C 0.92796 0.53155 0.8805 0.0
C1106 C 0.89313 0.52552 0.85583 0.0
C1107 C 0.90745 0.50082 0.84975 0.0
C1108 C 0.93185 0.49138 0.85917 0.0
C1109 C 0.94218 0.50672 0.87426 0.0
C1110 C 0.88263 0.44047 0.8175 0.0
C1111 C 0.88032 0.45468 0.80203 0.0
C1112 C 0.89142 0.4555 0.83302 0.0
C1113 C 0.89741 0.48512 0.83341 0.0
C1114 C 0.89463 0.49949 0.81804 0.0
C1115 C 0.88645 0.48434 0.80244 0.0
H1116 H 0.61037 0.38438 0.13232 0.0
H1117 H 0.68732 0.43521 0.14531 0.0
H1118 H 0.63189 0.36369 0.10655 0.0
H1119 H 0.70864 0.41492 0.11935 0.0
H1120 H 0.74485 0.35936 0.07535 0.0
H1121 H 0.72616 0.37018 0.10375 0.0
H1122 H 0.64247 0.38668 0.07949 0.0
H1123 H 0.66094 0.37585 0.05123 0.0
C1124 C 0.63215 0.39061 0.12989 0.0
C1125 C 0.6471 0.41157 0.14075 0.0
C1126 C 0.64434 0.379 0.11505 0.0
C1127 C 0.67179 0.38797 0.11084 0.0
C1128 C 0.68749 0.40752 0.12229 0.0
C1129 C 0.67522 0.41928 0.13708 0.0
C1130 C 0.72242 0.36509 0.0761 0.0
C1131 C 0.70442 0.36691 0.06102 0.0
C1132 C 0.71177 0.37133 0.09235 0.0
C1133 C 0.68285 0.37916 0.09383 0.0
C1134 C 0.66475 0.3803 0.07878 0.0
C1135 C 0.67542 0.37434 0.06256 0.0
loop_
_geom_bond_atom_site_label_1
_geom_bond_atom_site_label_2
_geom_bond_distance
_geom_bond_site_symmetry_2
_ccdc_geom_bond_type
H0 C19 0.949 . S
H1 C20 0.950 . S
H2 C22 0.950 1_655 S
H3 C23 0.950 . S
H4 C25 0.950 . S
H5 C28 0.950 . S
H6 C29 0.950 . S
H7 C31 0.951 . S
H8 C32 0.949 . S
H9 C34 0.949 . S
H10 C35 0.950 . S
H11 C37 0.950 . S
H12 C38 0.950 . S
H13 C40 0.950 . S
H14 C43 0.950 . S
H15 C44 0.950 . S
H16 C46 0.951 . S
H17 C47 0.949 . S
C18 C19 1.376 . S
C18 C23 1.386 . S
C18 C24 1.483 . S
C19 H0 0.949 . S
C19 C18 1.376 . S
C19 C20 1.397 . S
C20 H1 0.950 . S
C20 C19 1.397 . S
C20 C21 1.391 . S
C21 C20 1.391 . S
C21 C22 1.405 . S
C22 H2 0.950 1_455 S
C22 C21 1.405 . S
C22 C23 1.367 . S
C23 H3 0.950 . S
C23 C18 1.386 . S
C23 C22 1.367 . S
C24 C18 1.483 . S
C24 C25 1.382 . S
C24 C26 1.403 . S
C25 H4 0.950 . S
C25 C24 1.382 . S
C25 C41 1.411 . S
C26 C24 1.403 . S
C26 C27 1.489 . S
C26 C40 1.411 . S
C27 C26 1.489 . S
C27 C28 1.383 . S
C27 C32 1.382 . S
C28 H5 0.950 . S
C28 C27 1.383 . S
C28 C29 1.395 . S
C29 H6 0.950 . S
C29 C28 1.395 . S
C29 C30 1.288 . S
C30 C29 1.288 . S
C30 C31 1.392 . S
C31 H7 0.951 . S
C31 C30 1.392 . S
C31 C32 1.392 . S
C32 H8 0.949 . S
C32 C27 1.382 . S
C32 C31 1.392 . S
C33 C34 1.376 . S
C33 C38 1.386 1_565 S
C33 C39 1.483 1_565 S
C34 H9 0.949 . S
C34 C33 1.376 . S
C34 C35 1.397 . S
C35 H10 0.950 . S
C35 C34 1.397 . S
C35 C36 1.391 . S
C36 C35 1.391 . S
C36 C37 1.405 . S
C37 H11 0.950 . S
C37 C36 1.405 . S
C37 C38 1.367 1_565 S
C38 H12 0.950 . S
C38 C33 1.386 1_545 S
C38 C37 1.367 1_545 S
C39 C33 1.483 1_545 S
C39 C40 1.382 . S
C39 C41 1.403 . S
C40 H13 0.950 . S
C40 C26 1.411 . S
C40 C39 1.382 . S
C41 C25 1.411 . S
C41 C39 1.403 . S
C41 C42 1.489 . S
C42 C41 1.489 . S
C42 C43 1.383 1_545 S
C42 C47 1.382 . S
C43 H14 0.950 . S
C43 C42 1.383 1_565 S
C43 C44 1.395 . S
C44 H15 0.950 . S
C44 C43 1.395 . S
C44 C45 1.288 . S
C45 C44 1.288 . S
C45 C46 1.392 1_565 S
C46 H16 0.951 . S
C46 C45 1.392 1_545 S
C46 C47 1.392 . S
C47 H17 0.949 . S
C47 C42 1.382 . S
C47 C46 1.392 . S
H48 C67 0.949 . S
H49 C68 0.950 . S
H50 C70 0.950 . S
H51 C71 0.950 . S
H52 C73 0.950 . S
H53 C76 0.950 . S
H54 C77 0.950 . S
H55 C79 0.951 . S
H56 C80 0.949 . S
H57 C82 0.949 . S
H58 C83 0.950 . S
H59 C85 0.950 . S
H60 C86 0.950 . S
H61 C88 0.950 . S
H62 C91 0.950 . S
H63 C92 0.950 . S
H64 C94 0.951 . S
H65 C95 0.949 . S
C66 C67 1.376 . S
C66 C71 1.386 1_455 S
C66 C72 1.483 . S
C67 H48 0.949 . S
C67 C66 1.376 . S
C67 C68 1.397 . S
C68 H49 0.950 . S
C68 C67 1.397 . S
C68 C69 1.391 1_455 S
C69 C68 1.391 1_655 S
C69 C70 1.405 . S
C70 H50 0.950 . S
C70 C69 1.405 . S
C70 C71 1.367 . S
C71 H51 0.950 . S
C71 C66 1.386 1_655 S
C71 C70 1.367 . S
C72 C66 1.483 . S
C72 C73 1.382 . S
C72 C74 1.403 . S
C73 H52 0.950 . S
C73 C72 1.382 . S
C73 C89 1.411 . S
C74 C72 1.403 . S
C74 C75 1.491 . S
C74 C88 1.411 . S
C75 C74 1.491 . S
C75 C76 1.383 . S
C75 C80 1.379 1_455 S
C76 H53 0.950 . S
C76 C75 1.383 . S
C76 C77 1.395 1_455 S
C77 H54 0.950 . S
C77 C76 1.395 1_655 S
C77 C78 1.288 . S
C78 C77 1.288 . S
C78 C79 1.392 . S
C79 H55 0.951 . S
C79 C78 1.392 . S
C79 C80 1.392 . S
C80 H56 0.949 . S
C80 C75 1.379 1_655 S
C80 C79 1.392 . S
C81 C82 1.376 . S
C81 C86 1.386 . S
C81 C87 1.483 . S
C82 H57 0.949 . S
C82 C81 1.376 . S
C82 C83 1.397 . S
C83 H58 0.950 . S
C83 C82 1.397 . S
C83 C84 1.391 . S
C84 C83 1.391 . S
C84 C85 1.405 . S
C85 H59 0.950 . S
C85 C84 1.405 . S
C85 C86 1.367 . S
C86 H60 0.950 . S
C86 C81 1.386 . S
C86 C85 1.367 . S
C87 C81 1.483 . S
C87 C88 1.382 . S
C87 C89 1.403 . S
C88 H61 0.950 . S
C88 C74 1.411 . S
C88 C87 1.382 . S
C89 C73 1.411 . S
C89 C87 1.403 . S
C89 C90 1.489 . S
C90 C89 1.489 . S
C90 C91 1.383 . S
C90 C95 1.382 . S
C91 H62 0.950 . S
C91 C90 1.383 . S
C91 C92 1.395 . S
C92 H63 0.950 . S
C92 C91 1.395 . S
C92 C93 1.288 . S
C93 C92 1.288 . S
C93 C94 1.392 . S
C94 H64 0.951 . S
C94 C93 1.392 . S
C94 C95 1.392 . S
C95 H65 0.949 . S
C95 C90 1.382 . S
C95 C94 1.392 . S
H96 C115 0.949 . S
H97 C116 0.950 . S
H98 C118 0.950 . S
H99 C119 0.950 . S
H100 C121 0.950 . S
H101 C124 0.950 . S
H102 C125 0.950 . S
H103 C127 0.951 . S
H104 C128 0.949 . S
H105 C130 0.949 . S
H106 C131 0.950 . S
H107 C133 0.950 . S
H108 C134 0.950 . S
H109 C136 0.950 . S
H110 C139 0.950 . S
H111 C140 0.950 . S
H112 C142 0.951 . S
H113 C143 0.949 . S
C114 C115 1.376 . S
C114 C119 1.386 . S
C114 C120 1.483 . S
C115 H96 0.949 . S
C115 C114 1.376 . S
C115 C116 1.397 . S
C116 H97 0.950 . S
C116 C115 1.397 . S
C116 C117 1.391 . S
C117 C116 1.391 . S
C117 C118 1.405 . S
C118 H98 0.950 . S
C118 C117 1.405 . S
C118 C119 1.367 . S
C119 H99 0.950 . S
C119 C114 1.386 . S
C119 C118 1.367 . S
C120 C114 1.483 . S
C120 C121 1.382 . S
C120 C122 1.403 . S
C121 H100 0.950 . S
C121 C120 1.382 . S
C121 C137 1.411 . S
C122 C120 1.403 . S
C122 C123 1.489 . S
C122 C136 1.411 . S
C123 C122 1.489 . S
C123 C124 1.383 . S
C123 C128 1.382 . S
C124 H101 0.950 . S
C124 C123 1.383 . S
C124 C125 1.395 . S
C125 H102 0.950 . S
C125 C124 1.395 . S
C125 C126 1.288 . S
C126 C125 1.288 . S
C126 C127 1.392 . S
C127 H103 0.951 . S
C127 C126 1.392 . S
C127 C128 1.392 . S
C128 H104 0.949 . S
C128 C123 1.382 . S
C128 C127 1.392 . S
C129 C130 1.376 . S
C129 C134 1.386 . S
C129 C135 1.483 . S
C130 H105 0.949 . S
C130 C129 1.376 . S
C130 C131 1.397 . S
C131 H106 0.950 . S
C131 C130 1.397 . S
C131 C132 1.391 . S
C132 C131 1.391 . S
C132 C133 1.405 . S
C133 H107 0.950 . S
C133 C132 1.405 . S
C133 C134 1.367 . S
C134 H108 0.950 . S
C134 C129 1.386 . S
C134 C133 1.367 . S
C135 C129 1.483 . S
C135 C136 1.382 . S
C135 C137 1.403 . S
C136 H109 0.950 . S
C136 C122 1.411 . S
C136 C135 1.382 . S
C137 C121 1.411 . S
C137 C135 1.403 . S
C137 C138 1.489 . S
C138 C137 1.489 . S
C138 C139 1.383 . S
C138 C143 1.382 . S
C139 H110 0.950 . S
C139 C138 1.383 . S
C139 C140 1.395 . S
C140 H111 0.950 . S
C140 C139 1.395 . S
C140 C141 1.288 . S
C141 C140 1.288 . S
C141 C142 1.392 . S
C142 H112 0.951 . S
C142 C141 1.392 . S
C142 C143 1.392 . S
C143 H113 0.949 . S
C143 C138 1.382 . S
C143 C142 1.392 . S
H144 C163 0.949 . S
H145 C164 0.950 . S
H146 C166 0.950 . S
H147 C167 0.950 . S
H148 C169 0.950 . S
H149 C172 0.950 . S
H150 C173 0.950 . S
H151 C175 0.951 . S
H152 C176 0.949 . S
H153 C178 0.949 . S
H154 C179 0.950 . S
H155 C181 0.950 . S
H156 C182 0.950 . S
H157 C184 0.950 . S
H158 C187 0.950 . S
H159 C188 0.950 . S
H160 C190 0.951 . S
H161 C191 0.949 . S
C162 C163 1.376 . S
C162 C167 1.386 . S
C162 C168 1.483 . S
C163 H144 0.949 . S
C163 C162 1.376 . S
C163 C164 1.397 . S
C164 H145 0.950 . S
C164 C163 1.397 . S
C164 C165 1.391 . S
C165 C164 1.391 . S
C165 C166 1.405 . S
C166 H146 0.950 . S
C166 C165 1.405 . S
C166 C167 1.367 . S
C167 H147 0.950 . S
C167 C162 1.386 . S
C167 C166 1.367 . S
C168 C162 1.483 . S
C168 C169 1.382 . S
C168 C170 1.403 . S
C169 H148 0.950 . S
C169 C168 1.382 . S
C169 C185 1.411 1_565 S
C170 C168 1.403 . S
C170 C171 1.489 . S
C170 C184 1.411 1_565 S
C171 C170 1.489 . S
C171 C172 1.383 . S
C171 C176 1.382 . S
C172 H149 0.950 . S
C172 C171 1.383 . S
C172 C173 1.395 . S
C173 H150 0.950 . S
C173 C172 1.395 . S
C173 C174 1.288 . S
C174 C173 1.288 . S
C174 C175 1.392 . S
C175 H151 0.951 . S
C175 C174 1.392 . S
C175 C176 1.392 . S
C176 H152 0.949 . S
C176 C171 1.382 . S
C176 C175 1.392 . S
C177 C178 1.376 . S
C177 C182 1.386 . S
C177 C183 1.483 . S
C178 H153 0.949 . S
C178 C177 1.376 . S
C178 C179 1.397 . S
C179 H154 0.950 . S
C179 C178 1.397 . S
C179 C180 1.391 . S
C180 C179 1.391 . S
C180 C181 1.405 . S
C181 H155 0.950 . S
C181 C180 1.405 . S
C181 C182 1.367 . S
C182 H156 0.950 . S
C182 C177 1.386 . S
C182 C181 1.367 . S
C183 C177 1.483 . S
C183 C184 1.382 . S
C183 C185 1.403 . S
C184 H157 0.950 . S
C184 C170 1.411 1_545 S
C184 C183 1.382 . S
C185 C169 1.411 1_545 S
C185 C183 1.403 . S
C185 C186 1.489 . S
C186 C185 1.489 . S
C186 C187 1.383 . S
C186 C191 1.382 . S
C187 H158 0.950 . S
C187 C186 1.383 . S
C187 C188 1.395 . S
C188 H159 0.950 . S
C188 C187 1.395 . S
C188 C189 1.288 . S
C189 C188 1.288 . S
C189 C190 1.392 . S
C190 H160 0.951 . S
C190 C189 1.392 . S
C190 C191 1.392 . S
C191 H161 0.949 . S
C191 C186 1.382 . S
C191 C190 1.392 . S
H192 C211 0.949 . S
H193 C212 0.950 . S
H194 C214 0.950 . S
H195 C215 0.950 . S
H196 C217 0.950 . S
H197 C220 0.950 . S
H198 C221 0.950 . S
H199 C223 0.951 1_554 S
H200 C224 0.949 . S
H201 C226 0.949 . S
H202 C227 0.950 . S
H203 C229 0.950 . S
H204 C230 0.950 . S
H205 C232 0.950 . S
H206 C235 0.950 . S
H207 C236 0.950 . S
H208 C238 0.951 . S
H209 C239 0.949 . S
C210 C211 1.376 . S
C210 C215 1.386 . S
C210 C216 1.483 . S
C211 H192 0.949 . S
C211 C210 1.376 . S
C211 C212 1.397 . S
C212 H193 0.950 . S
C212 C211 1.397 . S
C212 C213 1.391 . S
C213 C212 1.391 . S
C213 C214 1.405 . S
C214 H194 0.950 . S
C214 C213 1.405 . S
C214 C215 1.367 . S
C215 H195 0.950 . S
C215 C210 1.386 . S
C215 C214 1.367 . S
C216 C210 1.483 . S
C216 C217 1.382 1_455 S
C216 C218 1.403 . S
C217 H196 0.950 . S
C217 C216 1.382 1_655 S
C217 C233 1.411 . S
C218 C216 1.403 . S
C218 C219 1.489 . S
C218 C232 1.411 . S
C219 C218 1.489 . S
C219 C220 1.383 . S
C219 C224 1.382 . S
C220 H197 0.950 . S
C220 C219 1.383 . S
C220 C221 1.395 . S
C221 H198 0.950 . S
C221 C220 1.395 . S
C221 C222 1.316 . S
C222 C221 1.316 . S
C222 C223 1.396 . S
C223 H199 0.951 1_556 S
C223 C222 1.396 . S
C223 C224 1.392 . S
C224 H200 0.949 . S
C224 C219 1.382 . S
C224 C223 1.392 . S
C225 C226 1.376 . S
C225 C230 1.386 . S
C225 C231 1.483 . S
C226 H201 0.949 . S
C226 C225 1.376 . S
C226 C227 1.397 . S
C227 H202 0.950 . S
C227 C226 1.397 . S
C227 C228 1.391 . S
C228 C227 1.391 . S
C228 C229 1.405 . S
C229 H203 0.950 . S
C229 C228 1.405 . S
C229 C230 1.367 . S
C230 H204 0.950 . S
C230 C225 1.386 . S
C230 C229 1.367 . S
C231 C225 1.483 . S
C231 C232 1.382 1_655 S
C231 C233 1.403 . S
C232 H205 0.950 . S
C232 C218 1.411 . S
C232 C231 1.382 1_455 S
C233 C217 1.411 . S
C233 C231 1.403 . S
C233 C234 1.489 . S
C234 C233 1.489 . S
C234 C235 1.383 . S
C234 C239 1.382 . S
C235 H206 0.950 . S
C235 C234 1.383 . S
C235 C236 1.395 . S
C236 H207 0.950 . S
C236 C235 1.395 . S
C236 C237 1.288 . S
C237 C236 1.288 . S
C237 C238 1.392 . S
C238 H208 0.951 . S
C238 C237 1.392 . S
C238 C239 1.392 . S
C239 H209 0.949 . S
C239 C234 1.382 . S
C239 C238 1.392 . S
H240 C259 0.949 . S
H241 C260 0.950 . S
H242 C262 0.950 . S
H243 C263 0.950 . S
H244 C265 0.950 . S
H245 C268 0.950 . S
H246 C269 0.950 . S
H247 C271 0.951 . S
H248 C272 0.949 . S
H249 C274 0.949 . S
H250 C275 0.950 . S
H251 C277 0.950 . S
H252 C278 0.950 . S
H253 C280 0.950 . S
H254 C283 0.950 . S
H255 C284 0.950 . S
H256 C286 0.951 . S
H257 C287 0.949 . S
C258 C259 1.376 . S
C258 C263 1.386 . S
C258 C264 1.483 . S
C259 H240 0.949 . S
C259 C258 1.376 . S
C259 C260 1.397 . S
C260 H241 0.950 . S
C260 C259 1.397 . S
C260 C261 1.391 . S
C261 C260 1.391 . S
C261 C262 1.405 . S
C262 H242 0.950 . S
C262 C261 1.405 . S
C262 C263 1.367 . S
C263 H243 0.950 . S
C263 C258 1.386 . S
C263 C262 1.367 . S
C264 C258 1.483 . S
C264 C265 1.382 . S
C264 C266 1.403 . S
C265 H244 0.950 . S
C265 C264 1.382 . S
C265 C281 1.411 . S
C266 C264 1.403 . S
C266 C267 1.489 . S
C266 C280 1.411 . S
C267 C266 1.489 . S
C267 C268 1.383 . S
C267 C272 1.382 . S
C268 H245 0.950 . S
C268 C267 1.383 . S
C268 C269 1.395 . S
C269 H246 0.950 . S
C269 C268 1.395 . S
C269 C270 1.288 . S
C270 C269 1.288 . S
C270 C271 1.392 . S
C271 H247 0.951 . S
C271 C270 1.392 . S
C271 C272 1.392 . S
C272 H248 0.949 . S
C272 C267 1.382 . S
C272 C271 1.392 . S
C273 C274 1.376 . S
C273 C278 1.386 . S
C273 C279 1.483 . S
C274 H249 0.949 . S
C274 C273 1.376 . S
C274 C275 1.397 . S
C275 H250 0.950 . S
C275 C274 1.397 . S
C275 C276 1.391 . S
C276 C275 1.391 . S
C276 C277 1.405 . S
C277 H251 0.950 . S
C277 C276 1.405 . S
C277 C278 1.367 . S
C278 H252 0.950 . S
C278 C273 1.386 . S
C278 C277 1.367 . S
C279 C273 1.483 . S
C279 C280 1.382 . S
C279 C281 1.403 . S
C280 H253 0.950 . S
C280 C266 1.411 . S
C280 C279 1.382 . S
C281 C265 1.411 . S
C281 C279 1.403 . S
C281 C282 1.489 . S
C282 C281 1.489 . S
C282 C283 1.383 . S
C282 C287 1.382 . S
C283 H254 0.950 . S
C283 C282 1.383 . S
C283 C284 1.395 . S
C284 H255 0.950 . S
C284 C283 1.395 . S
C284 C285 1.288 . S
C285 C284 1.288 . S
C285 C286 1.392 . S
C286 H256 0.951 . S
C286 C285 1.392 . S
C286 C287 1.392 . S
C287 H257 0.949 . S
C287 C282 1.382 . S
C287 C286 1.392 . S
H288 C307 0.949 . S
H289 C308 0.950 . S
H290 C310 0.950 . S
H291 C311 0.950 1_545 S
H292 C313 0.950 . S
H293 C316 0.950 . S
H294 C317 0.950 . S
H295 C319 0.951 . S
H296 C320 0.949 . S
H297 C322 0.949 . S
H298 C323 0.950 . S
H299 C325 0.950 . S
H300 C326 0.950 . S
H301 C328 0.950 . S
H302 C331 0.950 . S
H303 C332 0.950 . S
H304 C334 0.951 . S
H305 C335 0.949 . S
C306 C307 1.376 . S
C306 C311 1.386 . S
C306 C312 1.483 1_565 S
C307 H288 0.949 . S
C307 C306 1.376 . S
C307 C308 1.397 . S
C308 H289 0.950 . S
C308 C307 1.397 . S
C308 C309 1.391 . S
C309 C308 1.391 . S
C309 C310 1.405 . S
C310 H290 0.950 . S
C310 C309 1.405 . S
C310 C311 1.367 . S
C311 H291 0.950 1_565 S
C311 C306 1.386 . S
C311 C310 1.367 . S
C312 C306 1.483 1_545 S
C312 C313 1.382 . S
C312 C314 1.403 . S
C313 H292 0.950 . S
C313 C312 1.382 . S
C313 C329 1.411 . S
C314 C312 1.403 . S
C314 C315 1.489 . S
C314 C328 1.411 . S
C315 C314 1.489 . S
C315 C316 1.383 1_545 S
C315 C320 1.382 . S
C316 H293 0.950 . S
C316 C315 1.383 1_565 S
C316 C317 1.395 . S
C317 H294 0.950 . S
C317 C316 1.395 . S
C317 C318 1.288 . S
C318 C317 1.288 . S
C318 C319 1.392 1_565 S
C319 H295 0.951 . S
C319 C318 1.392 1_545 S
C319 C320 1.392 . S
C320 H296 0.949 . S
C320 C315 1.382 . S
C320 C319 1.392 . S
C321 C322 1.376 . S
C321 C326 1.386 . S
C321 C327 1.483 . S
C322 H297 0.949 . S
C322 C321 1.376 . S
C322 C323 1.397 . S
C323 H298 0.950 . S
C323 C322 1.397 . S
C323 C324 1.391 . S
C324 C323 1.391 . S
C324 C325 1.405 . S
C325 H299 0.950 . S
C325 C324 1.405 . S
C325 C326 1.367 . S
C326 H300 0.950 . S
C326 C321 1.386 . S
C326 C325 1.367 . S
C327 C321 1.483 . S
C327 C328 1.382 . S
C327 C329 1.403 . S
C328 H301 0.950 . S
C328 C314 1.411 . S
C328 C327 1.382 . S
C329 C313 1.411 . S
C329 C327 1.403 . S
C329 C330 1.489 . S
C330 C329 1.489 . S
C330 C331 1.383 . S
C330 C335 1.382 . S
C331 H302 0.950 . S
C331 C330 1.383 . S
C331 C332 1.395 . S
C332 H303 0.950 . S
C332 C331 1.395 . S
C332 C333 1.288 . S
C333 C332 1.288 . S
C333 C334 1.392 . S
C334 H304 0.951 . S
C334 C333 1.392 . S
C334 C335 1.392 . S
C335 H305 0.949 . S
C335 C330 1.382 . S
C335 C334 1.392 . S
H336 C355 0.949 . S
H337 C356 0.950 . S
H338 C358 0.950 1_655 S
H339 C359 0.950 . S
H340 C361 0.950 . S
H341 C364 0.950 . S
H342 C365 0.950 . S
H343 C367 0.951 . S
H344 C368 0.949 . S
H345 C370 0.949 . S
H346 C371 0.950 . S
H347 C373 0.950 . S
H348 C374 0.950 . S
H349 C376 0.950 . S
H350 C379 0.950 . S
H351 C380 0.950 . S
H352 C382 0.951 . S
H353 C383 0.949 . S
C354 C355 1.376 . S
C354 C359 1.386 . S
C354 C360 1.483 . S
C355 H336 0.949 . S
C355 C354 1.376 . S
C355 C356 1.397 . S
C356 H337 0.950 . S
C356 C355 1.397 . S
C356 C357 1.391 . S
C357 C356 1.391 . S
C357 C358 1.405 . S
C358 H338 0.950 1_455 S
C358 C357 1.405 . S
C358 C359 1.367 . S
C359 H339 0.950 . S
C359 C354 1.386 . S
C359 C358 1.367 . S
C360 C354 1.483 . S
C360 C361 1.382 . S
C360 C362 1.403 . S
C361 H340 0.950 . S
C361 C360 1.382 . S
C361 C377 1.411 . S
C362 C360 1.403 . S
C362 C363 1.489 . S
C362 C376 1.411 . S
C363 C362 1.489 . S
C363 C364 1.383 . S
C363 C368 1.382 . S
C364 H341 0.950 . S
C364 C363 1.383 . S
C364 C365 1.395 . S
C365 H342 0.950 . S
C365 C364 1.395 . S
C365 C366 1.288 . S
C366 C365 1.288 . S
C366 C367 1.392 . S
C367 H343 0.951 . S
C367 C366 1.392 . S
C367 C368 1.392 . S
C368 H344 0.949 . S
C368 C363 1.382 . S
C368 C367 1.392 . S
C369 C370 1.376 . S
C369 C374 1.386 . S
C369 C375 1.483 . S
C370 H345 0.949 . S
C370 C369 1.376 . S
C370 C371 1.397 . S
C371 H346 0.950 . S
C371 C370 1.397 . S
C371 C372 1.391 . S
C372 C371 1.391 . S
C372 C373 1.405 . S
C373 H347 0.950 . S
C373 C372 1.405 . S
C373 C374 1.367 . S
C374 H348 0.950 . S
C374 C369 1.386 . S
C374 C373 1.367 . S
C375 C369 1.483 . S
C375 C376 1.382 . S
C375 C377 1.403 . S
C376 H349 0.950 . S
C376 C362 1.411 . S
C376 C375 1.382 . S
C377 C361 1.411 . S
C377 C375 1.403 . S
C377 C378 1.489 . S
C378 C377 1.489 . S
C378 C379 1.383 . S
C378 C383 1.382 . S
C379 H350 0.950 . S
C379 C378 1.383 . S
C379 C380 1.395 . S
C380 H351 0.950 . S
C380 C379 1.395 . S
C380 C381 1.288 . S
C381 C380 1.288 . S
C381 C382 1.392 . S
C382 H352 0.951 . S
C382 C381 1.392 . S
C382 C383 1.392 . S
C383 H353 0.949 . S
C383 C378 1.382 . S
C383 C382 1.392 . S
O384 Cd385 2.223 . S
O384 C392 1.315 . S
Cd385 O384 2.223 . S
Cd385 O388 2.297 . S
Cd385 O389 2.439 . S
Cd385 O395 2.240 . S
Cd386 O387 2.240 . S
Cd386 O394 2.223 . S
Cd386 O396 2.297 . S
Cd386 O397 2.439 . S
O387 Cd386 2.240 . S
O387 C392 1.279 . S
O388 Cd385 2.297 . S
O388 C390 1.247 . S
O389 Cd385 2.439 . S
O389 C390 1.208 . S
C390 O388 1.247 . S
C390 O389 1.208 . S
C391 O396 1.247 . S
C391 O397 1.208 . S
C392 O384 1.315 . S
C392 O387 1.279 . S
C393 O394 1.315 . S
C393 O395 1.279 . S
O394 Cd386 2.223 . S
O394 C393 1.315 . S
O395 Cd385 2.240 . S
O395 C393 1.279 . S
O396 Cd386 2.297 . S
O396 C391 1.247 . S
O397 Cd386 2.439 . S
O397 C391 1.208 . S
O398 Cd399 2.223 . S
O398 C406 1.315 . S
Cd399 O398 2.223 . S
Cd399 O402 2.297 . S
Cd399 O403 2.439 . S
Cd399 O409 2.240 . S
Cd400 O401 2.240 . S
Cd400 O408 2.223 . S
Cd400 O410 2.297 . S
Cd400 O411 2.439 . S
O401 Cd400 2.240 . S
O401 C406 1.279 . S
O402 Cd399 2.297 . S
O402 C404 1.247 . S
O403 Cd399 2.439 . S
O403 C404 1.208 . S
C404 O402 1.247 . S
C404 O403 1.208 . S
C405 O410 1.247 . S
C405 O411 1.208 . S
C406 O398 1.315 . S
C406 O401 1.279 . S
C407 O408 1.315 . S
C407 O409 1.279 . S
O408 Cd400 2.223 . S
O408 C407 1.315 . S
O409 Cd399 2.240 . S
O409 C407 1.279 . S
O410 Cd400 2.297 . S
O410 C405 1.247 . S
O411 Cd400 2.439 . S
O411 C405 1.208 . S
O412 Cd413 2.223 . S
O412 C420 1.315 . S
Cd413 O412 2.223 . S
Cd413 O416 2.297 . S
Cd413 O417 2.439 . S
Cd413 O423 2.240 . S
Cd414 O415 2.240 . S
Cd414 O422 2.223 . S
Cd414 O424 2.297 . S
Cd414 O425 2.439 . S
O415 Cd414 2.240 . S
O415 C420 1.279 . S
O416 Cd413 2.297 . S
O416 C418 1.247 . S
O417 Cd413 2.439 . S
O417 C418 1.208 . S
C418 O416 1.247 . S
C418 O417 1.208 . S
C419 O424 1.247 . S
C419 O425 1.208 . S
C420 O412 1.315 . S
C420 O415 1.279 . S
C421 O422 1.315 . S
C421 O423 1.279 . S
O422 Cd414 2.223 . S
O422 C421 1.315 . S
O423 Cd413 2.240 . S
O423 C421 1.279 . S
O424 Cd414 2.297 . S
O424 C419 1.247 . S
O425 Cd414 2.439 . S
O425 C419 1.208 . S
O426 Cd427 2.223 . S
O426 C434 1.315 . S
Cd427 O426 2.223 . S
Cd427 O430 2.297 . S
Cd427 O431 2.439 . S
Cd427 O437 2.240 . S
Cd428 O429 2.240 . S
Cd428 O436 2.223 . S
Cd428 O438 2.297 . S
Cd428 O439 2.439 . S
O429 Cd428 2.240 . S
O429 C434 1.279 . S
O430 Cd427 2.297 . S
O430 C432 1.247 . S
O431 Cd427 2.439 . S
O431 C432 1.208 . S
C432 O430 1.247 . S
C432 O431 1.208 . S
C433 O438 1.247 . S
C433 O439 1.208 . S
C434 O426 1.315 . S
C434 O429 1.279 . S
C435 O436 1.315 . S
C435 O437 1.279 . S
O436 Cd428 2.223 . S
O436 C435 1.315 . S
O437 Cd427 2.240 . S
O437 C435 1.279 . S
O438 Cd428 2.297 . S
O438 C433 1.247 . S
O439 Cd428 2.439 . S
O439 C433 1.208 . S
O440 Cd441 2.223 . S
O440 C448 1.315 . S
Cd441 O440 2.223 . S
Cd441 O444 2.297 . S
Cd441 O445 2.439 . S
Cd441 O451 2.240 . S
Cd442 O443 2.240 . S
Cd442 O450 2.223 . S
Cd442 O452 2.297 . S
Cd442 O453 2.439 . S
O443 Cd442 2.240 . S
O443 C448 1.279 . S
O444 Cd441 2.297 . S
O444 C446 1.247 . S
O445 Cd441 2.439 . S
O445 C446 1.208 . S
C446 O444 1.247 . S
C446 O445 1.208 . S
C447 O452 1.247 . S
C447 O453 1.208 . S
C448 O440 1.315 . S
C448 O443 1.279 . S
C449 O450 1.315 . S
C449 O451 1.279 . S
O450 Cd442 2.223 . S
O450 C449 1.315 . S
O451 Cd441 2.240 . S
O451 C449 1.279 . S
O452 Cd442 2.297 . S
O452 C447 1.247 . S
O453 Cd442 2.439 . S
O453 C447 1.208 . S
O454 Cd455 2.223 . S
O454 C462 1.315 . S
Cd455 O454 2.223 . S
Cd455 O458 2.297 . S
Cd455 O459 2.439 . S
Cd455 O465 2.240 . S
Cd456 O457 2.240 . S
Cd456 O464 2.223 . S
Cd456 O466 2.297 . S
Cd456 O467 2.439 . S
O457 Cd456 2.240 . S
O457 C462 1.279 . S
O458 Cd455 2.297 . S
O458 C460 1.247 . S
O459 Cd455 2.439 . S
O459 C460 1.208 . S
C460 O458 1.247 . S
C460 O459 1.208 . S
C461 O466 1.247 . S
C461 O467 1.208 . S
C462 O454 1.315 . S
C462 O457 1.279 . S
C463 O464 1.315 . S
C463 O465 1.279 . S
O464 Cd456 2.223 . S
O464 C463 1.315 . S
O465 Cd455 2.240 . S
O465 C463 1.279 . S
O466 Cd456 2.297 . S
O466 C461 1.247 . S
O467 Cd456 2.439 . S
O467 C461 1.208 . S
O468 Cd469 2.223 . S
O468 C476 1.315 . S
Cd469 O468 2.223 . S
Cd469 O472 2.297 . S
Cd469 O473 2.439 . S
Cd469 O479 2.240 1_554 S
Cd470 O471 2.240 1_556 S
Cd470 O478 2.224 . S
Cd470 O480 2.297 . S
Cd470 O481 2.439 . S
O471 Cd470 2.240 1_554 S
O471 C476 1.279 . S
O472 Cd469 2.297 . S
O472 C474 1.247 . S
O473 Cd469 2.439 . S
O473 C474 1.208 . S
C474 O472 1.247 . S
C474 O473 1.208 . S
C475 O480 1.247 . S
C475 O481 1.208 . S
C476 O468 1.315 . S
C476 O471 1.279 . S
C477 O478 1.319 . S
C477 O479 1.279 . S
O478 Cd470 2.224 . S
O478 C477 1.319 . S
O479 Cd469 2.240 1_556 S
O479 C477 1.279 . S
O480 Cd470 2.297 . S
O480 C475 1.247 . S
O481 Cd470 2.439 . S
O481 C475 1.208 . S
O482 Cd483 2.223 . S
O482 C490 1.315 . S
Cd483 O482 2.223 . S
Cd483 O486 2.297 . S
Cd483 O487 2.439 . S
Cd483 O493 2.240 . S
Cd484 O485 2.240 . S
Cd484 O492 2.223 . S
Cd484 O494 2.297 . S
Cd484 O495 2.439 . S
O485 Cd484 2.240 . S
O485 C490 1.279 . S
O486 Cd483 2.297 . S
O486 C488 1.247 . S
O487 Cd483 2.439 . S
O487 C488 1.208 . S
C488 O486 1.247 . S
C488 O487 1.208 . S
C489 O494 1.247 . S
C489 O495 1.208 . S
C490 O482 1.315 . S
C490 O485 1.279 . S
C491 O492 1.315 . S
C491 O493 1.279 . S
O492 Cd484 2.223 . S
O492 C491 1.315 . S
O493 Cd483 2.240 . S
O493 C491 1.279 . S
O494 Cd484 2.297 . S
O494 C489 1.247 . S
O495 Cd484 2.439 . S
O495 C489 1.208 . S
H496 C504 0.950 . S
H497 C509 0.950 . S
H498 C506 0.950 . S
H499 C508 0.950 . S
H500 C510 0.950 . S
H501 C512 0.950 . S
H502 C514 0.950 . S
H503 C515 0.950 . S
C504 H496 0.950 . S
C504 C505 1.386 . S
C504 C506 1.391 . S
C505 C504 1.386 . S
C505 C509 1.393 . S
C506 H498 0.950 . S
C506 C504 1.391 . S
C506 C507 1.400 . S
C507 C506 1.400 . S
C507 C508 1.398 . S
C507 C513 1.491 . S
C508 H499 0.950 . S
C508 C507 1.398 . S
C508 C509 1.391 . S
C509 H497 0.950 . S
C509 C505 1.393 . S
C509 C508 1.391 . S
C510 H500 0.950 . S
C510 C511 1.386 . S
C510 C512 1.391 . S
C511 C510 1.386 . S
C511 C515 1.393 . S
C512 H501 0.950 . S
C512 C510 1.391 . S
C512 C513 1.400 . S
C513 C507 1.491 . S
C513 C512 1.400 . S
C513 C514 1.398 . S
C514 H502 0.950 . S
C514 C513 1.398 . S
C514 C515 1.391 . S
C515 H503 0.950 . S
C515 C511 1.393 . S
C515 C514 1.391 . S
H516 C524 0.950 . S
H517 C529 0.950 . S
H518 C526 0.950 . S
H519 C528 0.950 . S
H520 C530 0.950 . S
H521 C532 0.950 . S
H522 C534 0.950 . S
H523 C535 0.950 . S
C524 H516 0.950 . S
C524 C525 1.386 . S
C524 C526 1.391 . S
C525 C524 1.386 . S
C525 C529 1.393 . S
C526 H518 0.950 . S
C526 C524 1.391 . S
C526 C527 1.400 . S
C527 C526 1.400 . S
C527 C528 1.398 . S
C527 C533 1.491 . S
C528 H519 0.950 . S
C528 C527 1.398 . S
C528 C529 1.391 . S
C529 H517 0.950 . S
C529 C525 1.393 . S
C529 C528 1.391 . S
C530 H520 0.950 . S
C530 C531 1.386 . S
C530 C532 1.391 . S
C531 C530 1.386 . S
C531 C535 1.393 . S
C532 H521 0.950 . S
C532 C530 1.391 . S
C532 C533 1.400 . S
C533 C527 1.491 . S
C533 C532 1.400 . S
C533 C534 1.398 . S
C534 H522 0.950 . S
C534 C533 1.398 . S
C534 C535 1.391 . S
C535 H523 0.950 . S
C535 C531 1.393 . S
C535 C534 1.391 . S
H536 C544 0.950 . S
H537 C549 0.950 . S
H538 C546 0.950 . S
H539 C548 0.950 . S
H540 C550 0.950 . S
H541 C552 0.950 . S
H542 C554 0.950 . S
H543 C555 0.950 . S
C544 H536 0.950 . S
C544 C545 1.386 . S
C544 C546 1.391 . S
C545 C544 1.386 . S
C545 C549 1.393 . S
C546 H538 0.950 . S
C546 C544 1.391 . S
C546 C547 1.400 . S
C547 C546 1.400 . S
C547 C548 1.398 . S
C547 C553 1.491 . S
C548 H539 0.950 . S
C548 C547 1.398 . S
C548 C549 1.391 . S
C549 H537 0.950 . S
C549 C545 1.393 . S
C549 C548 1.391 . S
C550 H540 0.950 . S
C550 C551 1.386 . S
C550 C552 1.391 . S
C551 C550 1.386 . S
C551 C555 1.393 . S
C552 H541 0.950 . S
C552 C550 1.391 . S
C552 C553 1.400 . S
C553 C547 1.491 . S
C553 C552 1.400 . S
C553 C554 1.398 . S
C554 H542 0.950 . S
C554 C553 1.398 . S
C554 C555 1.391 . S
C555 H543 0.950 . S
C555 C551 1.393 . S
C555 C554 1.391 . S
H556 C564 0.950 . S
H557 C569 0.950 . S
H558 C566 0.950 . S
H559 C568 0.950 . S
H560 C570 0.950 . S
H561 C572 0.950 . S
H562 C574 0.950 . S
H563 C575 0.950 . S
C564 H556 0.950 . S
C564 C565 1.386 . S
C564 C566 1.391 . S
C565 C564 1.386 . S
C565 C569 1.393 . S
C566 H558 0.950 . S
C566 C564 1.391 . S
C566 C567 1.400 . S
C567 C566 1.400 . S
C567 C568 1.398 . S
C567 C573 1.491 . S
C568 H559 0.950 . S
C568 C567 1.398 . S
C568 C569 1.391 . S
C569 H557 0.950 . S
C569 C565 1.393 . S
C569 C568 1.391 . S
C570 H560 0.950 . S
C570 C571 1.386 . S
C570 C572 1.391 . S
C571 C570 1.386 . S
C571 C575 1.393 . S
C572 H561 0.950 . S
C572 C570 1.391 . S
C572 C573 1.400 . S
C573 C567 1.491 . S
C573 C572 1.400 . S
C573 C574 1.398 . S
C574 H562 0.950 . S
C574 C573 1.398 . S
C574 C575 1.391 . S
C575 H563 0.950 . S
C575 C571 1.393 . S
C575 C574 1.391 . S
H576 C584 0.920 1_556 S
H577 C589 0.950 . S
H578 C586 0.972 . S
H579 C588 0.950 . S
H580 C590 0.950 . S
H581 C592 0.950 . S
H582 C594 0.950 . S
H583 C595 0.950 . S
C584 H576 0.920 1_554 S
C584 C585 1.408 . S
C584 C586 1.402 . S
C585 C584 1.408 . S
C585 C589 1.393 . S
C586 H578 0.972 . S
C586 C584 1.402 . S
C586 C587 1.400 . S
C587 C586 1.400 . S
C587 C588 1.398 . S
C587 C593 1.491 . S
C588 H579 0.950 . S
C588 C587 1.398 . S
C588 C589 1.391 . S
C589 H577 0.950 . S
C589 C585 1.393 . S
C589 C588 1.391 . S
C590 H580 0.950 . S
C590 C591 1.386 . S
C590 C592 1.391 . S
C591 C590 1.386 . S
C591 C595 1.393 . S
C592 H581 0.950 . S
C592 C590 1.391 . S
C592 C593 1.400 . S
C593 C587 1.491 . S
C593 C592 1.400 . S
C593 C594 1.398 . S
C594 H582 0.950 . S
C594 C593 1.398 . S
C594 C595 1.391 . S
C595 H583 0.950 . S
C595 C591 1.393 . S
C595 C594 1.391 . S
H596 C604 0.950 . S
H597 C609 0.950 . S
H598 C606 0.950 . S
H599 C608 0.950 . S
H600 C610 0.950 . S
H601 C612 0.950 . S
H602 C614 0.950 . S
H603 C615 0.950 . S
C604 H596 0.950 . S
C604 C605 1.386 . S
C604 C606 1.391 . S
C605 C604 1.386 . S
C605 C609 1.393 . S
C606 H598 0.950 . S
C606 C604 1.391 . S
C606 C607 1.400 . S
C607 C606 1.400 . S
C607 C608 1.398 . S
C607 C613 1.491 . S
C608 H599 0.950 . S
C608 C607 1.398 . S
C608 C609 1.391 . S
C609 H597 0.950 . S
C609 C605 1.393 . S
C609 C608 1.391 . S
C610 H600 0.950 . S
C610 C611 1.386 . S
C610 C612 1.391 . S
C611 C610 1.386 . S
C611 C615 1.393 . S
C612 H601 0.950 . S
C612 C610 1.391 . S
C612 C613 1.400 . S
C613 C607 1.491 . S
C613 C612 1.400 . S
C613 C614 1.398 . S
C614 H602 0.950 . S
C614 C613 1.398 . S
C614 C615 1.391 . S
C615 H603 0.950 . S
C615 C611 1.393 . S
C615 C614 1.391 . S
H616 C624 0.950 . S
H617 C629 0.950 . S
H618 C626 0.950 . S
H619 C628 0.950 . S
H620 C630 0.950 . S
H621 C632 0.950 . S
H622 C634 0.950 . S
H623 C635 0.950 . S
C624 H616 0.950 . S
C624 C625 1.386 . S
C624 C626 1.391 . S
C625 C624 1.386 . S
C625 C629 1.393 . S
C626 H618 0.950 . S
C626 C624 1.391 . S
C626 C627 1.400 . S
C627 C626 1.400 . S
C627 C628 1.398 . S
C627 C633 1.491 . S
C628 H619 0.950 . S
C628 C627 1.398 . S
C628 C629 1.391 . S
C629 H617 0.950 . S
C629 C625 1.393 . S
C629 C628 1.391 . S
C630 H620 0.950 . S
C630 C631 1.386 . S
C630 C632 1.391 . S
C631 C630 1.386 . S
C631 C635 1.393 . S
C632 H621 0.950 . S
C632 C630 1.391 . S
C632 C633 1.400 . S
C633 C627 1.491 . S
C633 C632 1.400 . S
C633 C634 1.398 . S
C634 H622 0.950 . S
C634 C633 1.398 . S
C634 C635 1.391 . S
C635 H623 0.950 . S
C635 C631 1.393 . S
C635 C634 1.391 . S
H636 C644 0.950 . S
H637 C649 0.950 . S
H638 C646 0.950 . S
H639 C648 0.950 . S
H640 C650 0.950 . S
H641 C652 0.950 . S
H642 C654 0.950 . S
H643 C655 0.950 . S
C644 H636 0.950 . S
C644 C645 1.386 . S
C644 C646 1.391 . S
C645 C644 1.386 . S
C645 C649 1.393 . S
C646 H638 0.950 . S
C646 C644 1.391 . S
C646 C647 1.398 1_545 S
C647 C646 1.398 1_565 S
C647 C648 1.397 1_565 S
C647 C653 1.494 . S
C648 H639 0.950 . S
C648 C647 1.397 1_545 S
C648 C649 1.391 . S
C649 H637 0.950 . S
C649 C645 1.393 . S
C649 C648 1.391 . S
C650 H640 0.950 . S
C650 C651 1.386 . S
C650 C652 1.391 . S
C651 C650 1.386 . S
C651 C655 1.393 . S
C652 H641 0.950 . S
C652 C650 1.391 . S
C652 C653 1.400 . S
C653 C647 1.494 . S
C653 C652 1.400 . S
C653 C654 1.398 . S
C654 H642 0.950 . S
C654 C653 1.398 . S
C654 C655 1.391 . S
C655 H643 0.950 . S
C655 C651 1.393 . S
C655 C654 1.391 . S
H656 C664 0.950 . S
H657 C669 0.950 . S
H658 C666 0.950 . S
H659 C668 0.950 . S
H660 C670 0.950 . S
H661 C672 0.950 . S
H662 C674 0.950 . S
H663 C675 0.950 . S
C664 H656 0.950 . S
C664 C665 1.386 . S
C664 C666 1.391 . S
C665 C664 1.386 . S
C665 C669 1.393 . S
C666 H658 0.950 . S
C666 C664 1.391 . S
C666 C667 1.400 . S
C667 C666 1.400 . S
C667 C668 1.398 . S
C667 C673 1.491 . S
C668 H659 0.950 . S
C668 C667 1.398 . S
C668 C669 1.391 . S
C669 H657 0.950 . S
C669 C665 1.393 . S
C669 C668 1.391 . S
C670 H660 0.950 . S
C670 C671 1.386 . S
C670 C672 1.391 . S
C671 C670 1.386 . S
C671 C675 1.393 . S
C672 H661 0.950 . S
C672 C670 1.391 . S
C672 C673 1.400 . S
C673 C667 1.491 . S
C673 C672 1.400 . S
C673 C674 1.398 . S
C674 H662 0.950 . S
C674 C673 1.398 . S
C674 C675 1.391 . S
C675 H663 0.950 . S
C675 C671 1.393 . S
C675 C674 1.391 . S
H676 C684 0.950 . S
H677 C689 0.950 . S
H678 C686 0.950 . S
H679 C688 0.950 . S
H680 C690 0.950 . S
H681 C692 0.950 . S
H682 C694 0.950 . S
H683 C695 0.950 . S
C684 H676 0.950 . S
C684 C685 1.386 . S
C684 C686 1.391 . S
C685 C684 1.386 . S
C685 C689 1.393 . S
C686 H678 0.950 . S
C686 C684 1.391 . S
C686 C687 1.400 . S
C687 C686 1.400 . S
C687 C688 1.398 . S
C687 C693 1.491 . S
C688 H679 0.950 . S
C688 C687 1.398 . S
C688 C689 1.391 . S
C689 H677 0.950 . S
C689 C685 1.393 . S
C689 C688 1.391 . S
C690 H680 0.950 . S
C690 C691 1.386 . S
C690 C692 1.391 . S
C691 C690 1.386 . S
C691 C695 1.393 . S
C692 H681 0.950 . S
C692 C690 1.391 . S
C692 C693 1.400 . S
C693 C687 1.491 . S
C693 C692 1.400 . S
C693 C694 1.398 . S
C694 H682 0.950 . S
C694 C693 1.398 . S
C694 C695 1.391 . S
C695 H683 0.950 . S
C695 C691 1.393 . S
C695 C694 1.391 . S
H696 C704 0.950 1_455 S
H697 C709 0.950 . S
H698 C706 0.950 . S
H699 C708 0.950 . S
H700 C710 0.950 . S
H701 C712 0.950 . S
H702 C714 0.950 . S
H703 C715 0.950 . S
C704 H696 0.950 1_655 S
C704 C705 1.386 1_655 S
C704 C706 1.391 . S
C705 C704 1.386 1_455 S
C705 C709 1.393 1_455 S
C706 H698 0.950 . S
C706 C704 1.391 . S
C706 C707 1.400 . S
C707 C706 1.400 . S
C707 C708 1.398 . S
C707 C713 1.491 . S
C708 H699 0.950 . S
C708 C707 1.398 . S
C708 C709 1.391 . S
C709 H697 0.950 . S
C709 C705 1.393 1_655 S
C709 C708 1.391 . S
C710 H700 0.950 . S
C710 C711 1.386 . S
C710 C712 1.391 . S
C711 C710 1.386 . S
C711 C715 1.393 . S
C712 H701 0.950 . S
C712 C710 1.391 . S
C712 C713 1.400 . S
C713 C707 1.491 . S
C713 C712 1.400 . S
C713 C714 1.398 . S
C714 H702 0.950 . S
C714 C713 1.398 . S
C714 C715 1.391 . S
C715 H703 0.950 . S
C715 C711 1.393 . S
C715 C714 1.391 . S
H716 C724 0.950 . S
H717 C729 0.950 1_455 S
H718 C726 0.950 . S
H719 C728 0.950 . S
H720 C730 0.950 . S
H721 C732 0.950 . S
H722 C734 0.950 . S
H723 C735 0.950 . S
C724 H716 0.950 . S
C724 C725 1.386 . S
C724 C726 1.391 . S
C725 C724 1.386 . S
C725 C729 1.393 . S
C726 H718 0.950 . S
C726 C724 1.391 . S
C726 C727 1.400 . S
C727 C726 1.400 . S
C727 C728 1.398 . S
C727 C733 1.491 . S
C728 H719 0.950 . S
C728 C727 1.398 . S
C728 C729 1.391 . S
C729 H717 0.950 1_655 S
C729 C725 1.393 . S
C729 C728 1.391 . S
C730 H720 0.950 . S
C730 C731 1.386 . S
C730 C732 1.391 . S
C731 C730 1.386 . S
C731 C735 1.393 . S
C732 H721 0.950 . S
C732 C730 1.391 . S
C732 C733 1.400 . S
C733 C727 1.491 . S
C733 C732 1.400 . S
C733 C734 1.398 . S
C734 H722 0.950 . S
C734 C733 1.398 . S
C734 C735 1.391 . S
C735 H723 0.950 . S
C735 C731 1.393 . S
C735 C734 1.391 . S
H736 C744 0.950 . S
H737 C749 0.950 . S
H738 C746 0.950 . S
H739 C748 0.950 . S
H740 C750 0.950 . S
H741 C752 0.950 . S
H742 C754 0.950 . S
H743 C755 0.950 . S
C744 H736 0.950 . S
C744 C745 1.386 . S
C744 C746 1.391 . S
C745 C744 1.386 . S
C745 C749 1.393 . S
C746 H738 0.950 . S
C746 C744 1.391 . S
C746 C747 1.400 . S
C747 C746 1.400 . S
C747 C748 1.398 . S
C747 C753 1.491 . S
C748 H739 0.950 . S
C748 C747 1.398 . S
C748 C749 1.391 . S
C749 H737 0.950 . S
C749 C745 1.393 . S
C749 C748 1.391 . S
C750 H740 0.950 . S
C750 C751 1.386 . S
C750 C752 1.391 . S
C751 C750 1.386 . S
C751 C755 1.393 . S
C752 H741 0.950 . S
C752 C750 1.391 . S
C752 C753 1.400 . S
C753 C747 1.491 . S
C753 C752 1.400 . S
C753 C754 1.398 . S
C754 H742 0.950 . S
C754 C753 1.398 . S
C754 C755 1.391 . S
C755 H743 0.950 . S
C755 C751 1.393 . S
C755 C754 1.391 . S
H756 C764 0.950 . S
H757 C769 0.950 . S
H758 C766 0.950 . S
H759 C768 0.950 . S
H760 C770 0.950 . S
H761 C772 0.950 . S
H762 C774 0.950 . S
H763 C775 0.950 . S
C764 H756 0.950 . S
C764 C765 1.386 . S
C764 C766 1.391 . S
C765 C764 1.386 . S
C765 C769 1.393 . S
C766 H758 0.950 . S
C766 C764 1.391 . S
C766 C767 1.400 . S
C767 C766 1.400 . S
C767 C768 1.398 . S
C767 C773 1.491 . S
C768 H759 0.950 . S
C768 C767 1.398 . S
C768 C769 1.391 . S
C769 H757 0.950 . S
C769 C765 1.393 . S
C769 C768 1.391 . S
C770 H760 0.950 . S
C770 C771 1.386 . S
C770 C772 1.391 . S
C771 C770 1.386 . S
C771 C775 1.393 . S
C772 H761 0.950 . S
C772 C770 1.391 . S
C772 C773 1.400 . S
C773 C767 1.491 . S
C773 C772 1.400 . S
C773 C774 1.398 . S
C774 H762 0.950 . S
C774 C773 1.398 . S
C774 C775 1.391 . S
C775 H763 0.950 . S
C775 C771 1.393 . S
C775 C774 1.391 . S
H776 C784 0.950 . S
H777 C789 0.950 . S
H778 C786 0.950 . S
H779 C788 0.950 . S
H780 C790 0.950 . S
H781 C792 0.950 . S
H782 C794 0.950 . S
H783 C795 0.950 . S
C784 H776 0.950 . S
C784 C785 1.386 . S
C784 C786 1.391 . S
C785 C784 1.386 . S
C785 C789 1.393 1_556 S
C786 H778 0.950 . S
C786 C784 1.391 . S
C786 C787 1.400 . S
C787 C786 1.400 . S
C787 C788 1.398 1_556 S
C787 C793 1.491 . S
C788 H779 0.950 . S
C788 C787 1.398 1_554 S
C788 C789 1.391 . S
C789 H777 0.950 . S
C789 C785 1.393 1_554 S
C789 C788 1.391 . S
C790 H780 0.950 . S
C790 C791 1.386 1_554 S
C790 C792 1.391 . S
C791 C790 1.386 1_556 S
C791 C795 1.393 . S
C792 H781 0.950 . S
C792 C790 1.391 . S
C792 C793 1.400 1_554 S
C793 C787 1.491 . S
C793 C792 1.400 1_556 S
C793 C794 1.398 . S
C794 H782 0.950 . S
C794 C793 1.398 . S
C794 C795 1.391 . S
C795 H783 0.950 . S
C795 C791 1.393 . S
C795 C794 1.391 . S
H796 C804 0.950 . S
H797 C809 0.950 . S
H798 C806 0.950 . S
H799 C808 0.950 . S
H800 C810 0.950 . S
H801 C812 0.950 . S
H802 C814 0.950 . S
H803 C815 0.950 . S
C804 H796 0.950 . S
C804 C805 1.386 . S
C804 C806 1.391 . S
C805 C804 1.386 . S
C805 C809 1.393 . S
C806 H798 0.950 . S
C806 C804 1.391 . S
C806 C807 1.400 . S
C807 C806 1.400 . S
C807 C808 1.398 . S
C807 C813 1.491 . S
C808 H799 0.950 . S
C808 C807 1.398 . S
C808 C809 1.391 . S
C809 H797 0.950 . S
C809 C805 1.393 . S
C809 C808 1.391 . S
C810 H800 0.950 . S
C810 C811 1.386 . S
C810 C812 1.391 . S
C811 C810 1.386 . S
C811 C815 1.393 . S
C812 H801 0.950 . S
C812 C810 1.391 . S
C812 C813 1.400 . S
C813 C807 1.491 . S
C813 C812 1.400 . S
C813 C814 1.398 . S
C814 H802 0.950 . S
C814 C813 1.398 . S
C814 C815 1.391 . S
C815 H803 0.950 . S
C815 C811 1.393 . S
C815 C814 1.391 . S
H816 C824 0.950 . S
H817 C829 0.950 . S
H818 C826 0.950 . S
H819 C828 0.950 . S
H820 C830 0.950 . S
H821 C832 0.950 . S
H822 C834 0.950 . S
H823 C835 0.950 . S
C824 H816 0.950 . S
C824 C825 1.386 . S
C824 C826 1.391 . S
C825 C824 1.386 . S
C825 C829 1.393 . S
C826 H818 0.950 . S
C826 C824 1.391 . S
C826 C827 1.400 . S
C827 C826 1.400 . S
C827 C828 1.398 . S
C827 C833 1.491 . S
C828 H819 0.950 . S
C828 C827 1.398 . S
C828 C829 1.391 . S
C829 H817 0.950 . S
C829 C825 1.393 . S
C829 C828 1.391 . S
C830 H820 0.950 . S
C830 C831 1.386 . S
C830 C832 1.391 . S
C831 C830 1.386 . S
C831 C835 1.393 . S
C832 H821 0.950 . S
C832 C830 1.391 . S
C832 C833 1.400 . S
C833 C827 1.491 . S
C833 C832 1.400 . S
C833 C834 1.398 . S
C834 H822 0.950 . S
C834 C833 1.398 . S
C834 C835 1.391 . S
C835 H823 0.950 . S
C835 C831 1.393 . S
C835 C834 1.391 . S
H836 C844 0.950 . S
H837 C849 0.950 . S
H838 C846 0.950 . S
H839 C848 0.950 . S
H840 C850 0.950 . S
H841 C852 0.950 . S
H842 C854 0.950 . S
H843 C855 0.950 . S
C844 H836 0.950 . S
C844 C845 1.386 . S
C844 C846 1.391 . S
C845 C844 1.386 . S
C845 C849 1.393 . S
C846 H838 0.950 . S
C846 C844 1.391 . S
C846 C847 1.400 . S
C847 C846 1.400 . S
C847 C848 1.398 . S
C847 C853 1.491 . S
C848 H839 0.950 . S
C848 C847 1.398 . S
C848 C849 1.391 . S
C849 H837 0.950 . S
C849 C845 1.393 . S
C849 C848 1.391 . S
C850 H840 0.950 . S
C850 C851 1.386 . S
C850 C852 1.391 . S
C851 C850 1.386 . S
C851 C855 1.393 . S
C852 H841 0.950 . S
C852 C850 1.391 . S
C852 C853 1.400 . S
C853 C847 1.491 . S
C853 C852 1.400 . S
C853 C854 1.398 . S
C854 H842 0.950 . S
C854 C853 1.398 . S
C854 C855 1.391 . S
C855 H843 0.950 . S
C855 C851 1.393 . S
C855 C854 1.391 . S
H856 C864 0.950 . S
H857 C869 0.950 . S
H858 C866 0.950 . S
H859 C868 0.950 . S
H860 C870 0.950 . S
H861 C872 0.950 . S
H862 C874 0.950 . S
H863 C875 0.950 . S
C864 H856 0.950 . S
C864 C865 1.386 . S
C864 C866 1.391 . S
C865 C864 1.386 . S
C865 C869 1.393 . S
C866 H858 0.950 . S
C866 C864 1.391 . S
C866 C867 1.400 . S
C867 C866 1.400 . S
C867 C868 1.398 . S
C867 C873 1.491 . S
C868 H859 0.950 . S
C868 C867 1.398 . S
C868 C869 1.391 . S
C869 H857 0.950 . S
C869 C865 1.393 . S
C869 C868 1.391 . S
C870 H860 0.950 . S
C870 C871 1.386 . S
C870 C872 1.391 . S
C871 C870 1.386 . S
C871 C875 1.393 . S
C872 H861 0.950 . S
C872 C870 1.391 . S
C872 C873 1.400 . S
C873 C867 1.491 . S
C873 C872 1.400 . S
C873 C874 1.398 . S
C874 H862 0.950 . S
C874 C873 1.398 . S
C874 C875 1.391 . S
C875 H863 0.950 . S
C875 C871 1.393 . S
C875 C874 1.391 . S
H876 C884 0.950 . S
H877 C889 0.950 . S
H878 C886 0.950 . S
H879 C888 0.950 . S
H880 C890 0.950 . S
H881 C892 0.950 . S
H882 C894 0.950 . S
H883 C895 0.950 . S
C884 H876 0.950 . S
C884 C885 1.386 . S
C884 C886 1.391 . S
C885 C884 1.386 . S
C885 C889 1.393 . S
C886 H878 0.950 . S
C886 C884 1.391 . S
C886 C887 1.400 . S
C887 C886 1.400 . S
C887 C888 1.398 . S
C887 C893 1.491 . S
C888 H879 0.950 . S
C888 C887 1.398 . S
C888 C889 1.391 . S
C889 H877 0.950 . S
C889 C885 1.393 . S
C889 C888 1.391 . S
C890 H880 0.950 . S
C890 C891 1.386 . S
C890 C892 1.391 . S
C891 C890 1.386 . S
C891 C895 1.393 . S
C892 H881 0.950 . S
C892 C890 1.391 . S
C892 C893 1.400 . S
C893 C887 1.491 . S
C893 C892 1.400 . S
C893 C894 1.398 . S
C894 H882 0.950 . S
C894 C893 1.398 . S
C894 C895 1.391 . S
C895 H883 0.950 . S
C895 C891 1.393 . S
C895 C894 1.391 . S
H896 C904 0.950 . S
H897 C909 0.950 . S
H898 C906 0.950 . S
H899 C908 0.950 . S
H900 C910 0.950 . S
H901 C912 0.950 . S
H902 C914 0.950 . S
H903 C915 0.950 . S
C904 H896 0.950 . S
C904 C905 1.386 . S
C904 C906 1.391 . S
C905 C904 1.386 . S
C905 C909 1.393 . S
C906 H898 0.950 . S
C906 C904 1.391 . S
C906 C907 1.400 . S
C907 C906 1.400 . S
C907 C908 1.398 . S
C907 C913 1.491 . S
C908 H899 0.950 . S
C908 C907 1.398 . S
C908 C909 1.391 . S
C909 H897 0.950 . S
C909 C905 1.393 . S
C909 C908 1.391 . S
C910 H900 0.950 . S
C910 C911 1.386 . S
C910 C912 1.391 . S
C911 C910 1.386 . S
C911 C915 1.393 . S
C912 H901 0.950 . S
C912 C910 1.391 . S
C912 C913 1.400 . S
C913 C907 1.491 . S
C913 C912 1.400 . S
C913 C914 1.398 . S
C914 H902 0.950 . S
C914 C913 1.398 . S
C914 C915 1.391 . S
C915 H903 0.950 . S
C915 C911 1.393 . S
C915 C914 1.391 . S
H916 C924 0.950 . S
H917 C929 0.950 . S
H918 C926 0.950 . S
H919 C928 0.950 . S
H920 C930 0.950 . S
H921 C932 0.950 . S
H922 C934 0.950 . S
H923 C935 0.950 . S
C924 H916 0.950 . S
C924 C925 1.386 . S
C924 C926 1.391 . S
C925 C924 1.386 . S
C925 C929 1.393 . S
C926 H918 0.950 . S
C926 C924 1.391 . S
C926 C927 1.400 . S
C927 C926 1.400 . S
C927 C928 1.398 . S
C927 C933 1.491 . S
C928 H919 0.950 . S
C928 C927 1.398 . S
C928 C929 1.391 . S
C929 H917 0.950 . S
C929 C925 1.393 . S
C929 C928 1.391 . S
C930 H920 0.950 . S
C930 C931 1.386 . S
C930 C932 1.391 . S
C931 C930 1.386 . S
C931 C935 1.393 . S
C932 H921 0.950 . S
C932 C930 1.391 . S
C932 C933 1.400 . S
C933 C927 1.491 . S
C933 C932 1.400 . S
C933 C934 1.398 . S
C934 H922 0.950 . S
C934 C933 1.398 . S
C934 C935 1.391 . S
C935 H923 0.950 . S
C935 C931 1.393 . S
C935 C934 1.391 . S
H936 C944 0.950 . S
H937 C949 0.950 . S
H938 C946 0.950 . S
H939 C948 0.950 . S
H940 C950 0.950 . S
H941 C952 0.950 . S
H942 C954 0.950 . S
H943 C955 0.950 . S
C944 H936 0.950 . S
C944 C945 1.386 . S
C944 C946 1.391 . S
C945 C944 1.386 . S
C945 C949 1.393 . S
C946 H938 0.950 . S
C946 C944 1.391 . S
C946 C947 1.400 . S
C947 C946 1.400 . S
C947 C948 1.398 . S
C947 C953 1.491 . S
C948 H939 0.950 . S
C948 C947 1.398 . S
C948 C949 1.391 . S
C949 H937 0.950 . S
C949 C945 1.393 . S
C949 C948 1.391 . S
C950 H940 0.950 . S
C950 C951 1.386 . S
C950 C952 1.391 . S
C951 C950 1.386 . S
C951 C955 1.393 . S
C952 H941 0.950 . S
C952 C950 1.391 . S
C952 C953 1.400 . S
C953 C947 1.491 . S
C953 C952 1.400 . S
C953 C954 1.398 . S
C954 H942 0.950 . S
C954 C953 1.398 . S
C954 C955 1.391 . S
C955 H943 0.950 . S
C955 C951 1.393 . S
C955 C954 1.391 . S
H956 C964 0.950 . S
H957 C969 0.950 . S
H958 C966 0.950 1_565 S
H959 C968 0.950 . S
H960 C970 0.950 . S
H961 C972 0.950 . S
H962 C974 0.950 . S
H963 C975 0.950 . S
C964 H956 0.950 . S
C964 C965 1.386 . S
C964 C966 1.391 . S
C965 C964 1.386 . S
C965 C969 1.393 . S
C966 H958 0.950 1_545 S
C966 C964 1.391 . S
C966 C967 1.400 . S
C967 C966 1.400 . S
C967 C968 1.398 . S
C967 C973 1.491 1_545 S
C968 H959 0.950 . S
C968 C967 1.398 . S
C968 C969 1.391 . S
C969 H957 0.950 . S
C969 C965 1.393 . S
C969 C968 1.391 . S
C970 H960 0.950 . S
C970 C971 1.386 . S
C970 C972 1.391 1_565 S
C971 C970 1.386 . S
C971 C975 1.393 . S
C972 H961 0.950 . S
C972 C970 1.391 1_545 S
C972 C973 1.400 1_545 S
C973 C967 1.491 1_565 S
C973 C972 1.400 1_565 S
C973 C974 1.398 . S
C974 H962 0.950 . S
C974 C973 1.398 . S
C974 C975 1.391 . S
C975 H963 0.950 . S
C975 C971 1.393 . S
C975 C974 1.391 . S
H976 C984 0.950 . S
H977 C989 0.950 . S
H978 C986 0.950 . S
H979 C988 0.950 . S
H980 C990 0.950 . S
H981 C992 0.950 . S
H982 C994 0.950 . S
H983 C995 0.950 . S
C984 H976 0.950 . S
C984 C985 1.386 . S
C984 C986 1.391 . S
C985 C984 1.386 . S
C985 C989 1.393 . S
C986 H978 0.950 . S
C986 C984 1.391 . S
C986 C987 1.400 . S
C987 C986 1.400 . S
C987 C988 1.398 . S
C987 C993 1.491 . S
C988 H979 0.950 . S
C988 C987 1.398 . S
C988 C989 1.391 . S
C989 H977 0.950 . S
C989 C985 1.393 . S
C989 C988 1.391 . S
C990 H980 0.950 . S
C990 C991 1.386 . S
C990 C992 1.391 . S
C991 C990 1.386 . S
C991 C995 1.393 . S
C992 H981 0.950 . S
C992 C990 1.391 . S
C992 C993 1.400 . S
C993 C987 1.491 . S
C993 C992 1.400 . S
C993 C994 1.398 . S
C994 H982 0.950 . S
C994 C993 1.398 . S
C994 C995 1.391 . S
C995 H983 0.950 . S
C995 C991 1.393 . S
C995 C994 1.391 . S
H996 C1004 0.950 . S
H997 C1009 0.950 . S
H998 C1006 0.950 . S
H999 C1008 0.950 . S
H1000 C1010 0.950 . S
H1001 C1012 0.950 . S
H1002 C1014 0.950 . S
H1003 C1015 0.950 . S
C1004 H996 0.950 . S
C1004 C1005 1.386 . S
C1004 C1006 1.391 . S
C1005 C1004 1.386 . S
C1005 C1009 1.393 . S
C1006 H998 0.950 . S
C1006 C1004 1.391 . S
C1006 C1007 1.400 . S
C1007 C1006 1.400 . S
C1007 C1008 1.398 . S
C1007 C1013 1.491 . S
C1008 H999 0.950 . S
C1008 C1007 1.398 . S
C1008 C1009 1.391 . S
C1009 H997 0.950 . S
C1009 C1005 1.393 . S
C1009 C1008 1.391 . S
C1010 H1000 0.950 . S
C1010 C1011 1.386 . S
C1010 C1012 1.391 . S
C1011 C1010 1.386 . S
C1011 C1015 1.393 . S
C1012 H1001 0.950 . S
C1012 C1010 1.391 . S
C1012 C1013 1.400 . S
C1013 C1007 1.491 . S
C1013 C1012 1.400 . S
C1013 C1014 1.398 . S
C1014 H1002 0.950 . S
C1014 C1013 1.398 . S
C1014 C1015 1.391 . S
C1015 H1003 0.950 . S
C1015 C1011 1.393 . S
C1015 C1014 1.391 . S
H1016 C1024 0.950 . S
H1017 C1029 0.950 . S
H1018 C1026 0.950 . S
H1019 C1028 0.950 . S
H1020 C1030 0.950 . S
H1021 C1032 0.950 1_455 S
H1022 C1034 0.950 . S
H1023 C1035 0.950 . S
C1024 H1016 0.950 . S
C1024 C1025 1.386 1_655 S
C1024 C1026 1.391 . S
C1025 C1024 1.386 1_455 S
C1025 C1029 1.393 . S
C1026 H1018 0.950 . S
C1026 C1024 1.391 . S
C1026 C1027 1.400 . S
C1027 C1026 1.400 . S
C1027 C1028 1.398 1_655 S
C1027 C1033 1.491 . S
C1028 H1019 0.950 . S
C1028 C1027 1.398 1_455 S
C1028 C1029 1.391 . S
C1029 H1017 0.950 . S
C1029 C1025 1.393 . S
C1029 C1028 1.391 . S
C1030 H1020 0.950 . S
C1030 C1031 1.386 . S
C1030 C1032 1.391 . S
C1031 C1030 1.386 . S
C1031 C1035 1.393 . S
C1032 H1021 0.950 1_655 S
C1032 C1030 1.391 . S
C1032 C1033 1.400 . S
C1033 C1027 1.491 . S
C1033 C1032 1.400 . S
C1033 C1034 1.398 . S
C1034 H1022 0.950 . S
C1034 C1033 1.398 . S
C1034 C1035 1.391 . S
C1035 H1023 0.950 . S
C1035 C1031 1.393 . S
C1035 C1034 1.391 . S
H1036 C1044 0.950 . S
H1037 C1049 0.950 . S
H1038 C1046 0.950 . S
H1039 C1048 0.950 . S
H1040 C1050 0.950 . S
H1041 C1052 0.950 . S
H1042 C1054 0.950 . S
H1043 C1055 0.950 . S
C1044 H1036 0.950 . S
C1044 C1045 1.386 . S
C1044 C1046 1.391 . S
C1045 C1044 1.386 . S
C1045 C1049 1.393 . S
C1046 H1038 0.950 . S
C1046 C1044 1.391 . S
C1046 C1047 1.400 . S
C1047 C1046 1.400 . S
C1047 C1048 1.398 . S
C1047 C1053 1.491 . S
C1048 H1039 0.950 . S
C1048 C1047 1.398 . S
C1048 C1049 1.391 . S
C1049 H1037 0.950 . S
C1049 C1045 1.393 . S
C1049 C1048 1.391 . S
C1050 H1040 0.950 . S
C1050 C1051 1.386 . S
C1050 C1052 1.391 . S
C1051 C1050 1.386 . S
C1051 C1055 1.393 . S
C1052 H1041 0.950 . S
C1052 C1050 1.391 . S
C1052 C1053 1.400 . S
C1053 C1047 1.491 . S
C1053 C1052 1.400 . S
C1053 C1054 1.398 . S
C1054 H1042 0.950 . S
C1054 C1053 1.398 . S
C1054 C1055 1.391 . S
C1055 H1043 0.950 . S
C1055 C1051 1.393 . S
C1055 C1054 1.391 . S
H1056 C1064 0.950 . S
H1057 C1069 0.950 . S
H1058 C1066 0.950 . S
H1059 C1068 0.950 . S
H1060 C1070 0.950 . S
H1061 C1072 0.950 . S
H1062 C1074 0.950 . S
H1063 C1075 0.950 . S
C1064 H1056 0.950 . S
C1064 C1065 1.386 . S
C1064 C1066 1.391 . S
C1065 C1064 1.386 . S
C1065 C1069 1.393 . S
C1066 H1058 0.950 . S
C1066 C1064 1.391 . S
C1066 C1067 1.400 . S
C1067 C1066 1.400 . S
C1067 C1068 1.398 . S
C1067 C1073 1.491 . S
C1068 H1059 0.950 . S
C1068 C1067 1.398 . S
C1068 C1069 1.391 . S
C1069 H1057 0.950 . S
C1069 C1065 1.393 . S
C1069 C1068 1.391 . S
C1070 H1060 0.950 . S
C1070 C1071 1.386 . S
C1070 C1072 1.391 . S
C1071 C1070 1.386 . S
C1071 C1075 1.393 . S
C1072 H1061 0.950 . S
C1072 C1070 1.391 . S
C1072 C1073 1.400 . S
C1073 C1067 1.491 . S
C1073 C1072 1.400 . S
C1073 C1074 1.398 . S
C1074 H1062 0.950 . S
C1074 C1073 1.398 . S
C1074 C1075 1.391 . S
C1075 H1063 0.950 . S
C1075 C1071 1.393 . S
C1075 C1074 1.391 . S
H1076 C1084 0.950 . S
H1077 C1089 0.950 . S
H1078 C1086 0.950 . S
H1079 C1088 0.950 . S
H1080 C1090 0.950 . S
H1081 C1092 0.950 . S
H1082 C1094 0.950 . S
H1083 C1095 0.950 . S
C1084 H1076 0.950 . S
C1084 C1085 1.386 . S
C1084 C1086 1.391 1_455 S
C1085 C1084 1.386 . S
C1085 C1089 1.393 . S
C1086 H1078 0.950 . S
C1086 C1084 1.391 1_655 S
C1086 C1087 1.400 . S
C1087 C1086 1.400 . S
C1087 C1088 1.398 1_655 S
C1087 C1093 1.491 . S
C1088 H1079 0.950 . S
C1088 C1087 1.398 1_455 S
C1088 C1089 1.391 . S
C1089 H1077 0.950 . S
C1089 C1085 1.393 . S
C1089 C1088 1.391 . S
C1090 H1080 0.950 . S
C1090 C1091 1.386 . S
C1090 C1092 1.391 . S
C1091 C1090 1.386 . S
C1091 C1095 1.393 . S
C1092 H1081 0.950 . S
C1092 C1090 1.391 . S
C1092 C1093 1.400 . S
C1093 C1087 1.491 . S
C1093 C1092 1.400 . S
C1093 C1094 1.398 . S
C1094 H1082 0.950 . S
C1094 C1093 1.398 . S
C1094 C1095 1.391 . S
C1095 H1083 0.950 . S
C1095 C1091 1.393 . S
C1095 C1094 1.391 . S
H1096 C1104 0.950 . S
H1097 C1109 0.950 . S
H1098 C1106 0.950 . S
H1099 C1108 0.950 . S
H1100 C1110 0.950 . S
H1101 C1112 0.950 . S
H1102 C1114 0.950 . S
H1103 C1115 0.950 . S
C1104 H1096 0.950 . S
C1104 C1105 1.386 . S
C1104 C1106 1.391 . S
C1105 C1104 1.386 . S
C1105 C1109 1.393 . S
C1106 H1098 0.950 . S
C1106 C1104 1.391 . S
C1106 C1107 1.400 . S
C1107 C1106 1.400 . S
C1107 C1108 1.398 . S
C1107 C1113 1.491 . S
C1108 H1099 0.950 . S
C1108 C1107 1.398 . S
C1108 C1109 1.391 . S
C1109 H1097 0.950 . S
C1109 C1105 1.393 . S
C1109 C1108 1.391 . S
C1110 H1100 0.950 . S
C1110 C1111 1.386 . S
C1110 C1112 1.391 . S
C1111 C1110 1.386 . S
C1111 C1115 1.393 . S
C1112 H1101 0.950 . S
C1112 C1110 1.391 . S
C1112 C1113 1.400 . S
C1113 C1107 1.491 . S
C1113 C1112 1.400 . S
C1113 C1114 1.398 . S
C1114 H1102 0.950 . S
C1114 C1113 1.398 . S
C1114 C1115 1.391 . S
C1115 H1103 0.950 . S
C1115 C1111 1.393 . S
C1115 C1114 1.391 . S
H1116 C1124 0.950 . S
H1117 C1129 0.950 . S
H1118 C1126 0.950 . S
H1119 C1128 0.950 . S
H1120 C1130 0.950 . S
H1121 C1132 0.950 . S
H1122 C1134 0.950 . S
H1123 C1135 0.950 . S
C1124 H1116 0.950 . S
C1124 C1125 1.386 . S
C1124 C1126 1.391 . S
C1125 C1124 1.386 . S
C1125 C1129 1.393 . S
C1126 H1118 0.950 . S
C1126 C1124 1.391 . S
C1126 C1127 1.400 . S
C1127 C1126 1.400 . S
C1127 C1128 1.398 . S
C1127 C1133 1.491 . S
C1128 H1119 0.950 . S
C1128 C1127 1.398 . S
C1128 C1129 1.391 . S
C1129 H1117 0.950 . S
C1129 C1125 1.393 . S
C1129 C1128 1.391 . S
C1130 H1120 0.950 . S
C1130 C1131 1.386 . S
C1130 C1132 1.391 . S
C1131 C1130 1.386 . S
C1131 C1135 1.393 . S
C1132 H1121 0.950 . S
C1132 C1130 1.391 . S
C1132 C1133 1.400 . S
C1133 C1127 1.491 . S
C1133 C1132 1.400 . S
C1133 C1134 1.398 . S
C1134 H1122 0.950 . S
C1134 C1133 1.398 . S
C1134 C1135 1.391 . S
C1135 H1123 0.950 . S
C1135 C1131 1.393 . S
C1135 C1134 1.391 . S
C511 C404 1.355 . S
C505 C36 1.329 . S
C531 C421 1.395 . S
C525 C93 1.419 . S
C551 C435 1.504 . S
C545 C126 1.545 . S
C565 C165 1.314 . S
C571 C393 1.312 . S
C585 C222 1.273 1_554 S
C591 C390 1.351 . S
C605 C261 1.156 . S
C611 C407 1.150 . S
C631 C418 1.537 . S
C625 C318 1.494 . S
C651 C432 1.413 . S
C645 C381 1.422 . S
C665 C132 1.383 . S
C671 C460 1.410 . S
C691 C474 1.539 . S
C685 C189 1.554 . S
C705 C30 1.183 . S
C711 C491 1.142 . S
C731 C446 1.343 . S
C725 C69 1.309 . S
C745 C324 1.334 . S
C751 C449 1.322 . S
C765 C357 1.528 1_655 S
C771 C463 1.501 . S
C791 C477 1.371 . S
C785 C228 1.402 . S
C805 C285 1.341 . S
C811 C488 1.363 . S
C831 C420 1.985 . S
C825 C45 1.970 . S
C851 C434 2.082 . S
C845 C84 2.082 . S
C865 C117 1.992 . S
C871 C392 2.012 1_556 S
C885 C174 1.836 . S
C891 C405 1.762 . S
C905 C213 1.710 . S
C911 C433 1.557 . S
C931 C391 1.552 . S
C925 C270 1.659 . S
C951 C406 1.902 . S
C945 C309 1.908 . S
C971 C419 1.690 . S
C965 C372 1.798 . S
C991 C475 1.674 . S
C985 C141 1.785 . S
C1011 C490 1.894 . S
C1005 C180 1.896 . S
C1025 C21 1.672 . S
C1031 C447 1.560 . S
C1051 C461 1.587 . S
C1045 C78 1.695 . S
C1071 C489 1.772 . S
C1065 C333 1.892 . S
C1085 C366 1.957 . S
C1091 C448 2.014 . S
C1111 C462 2.069 . S
C1105 C237 2.070 . S
C1131 C476 1.979 . S
C1125 C276 1.990 . S
