# Generated by pormake.
# Topology eea, (3,6)-cn, num edge types: 1
# Building blocks:
#     Node 0, Type 0, BuildingBlock: MIDCAF_clean_linker_0, # of connection points: 3
#     Node 1, Type 0, BuildingBlock: MIDCAF_clean_linker_0, # of connection points: 3
#     Node 2, Type 0, BuildingBlock: MIDCAF_clean_linker_0, # of connection points: 3
#     Node 3, Type 0, BuildingBlock: MIDCAF_clean_linker_0, # of connection points: 3
#     Node 4, Type 0, BuildingBlock: MIDCAF_clean_linker_0, # of connection points: 3
#     Node 5, Type 0, BuildingBlock: MIDCAF_clean_linker_0, # of connection points: 3
#     Node 6, Type 0, BuildingBlock: MIDCAF_clean_linker_0, # of connection points: 3
#     Node 7, Type 0, BuildingBlock: MIDCAF_clean_linker_0, # of connection points: 3
#     Node 8, Type 0, BuildingBlock: MIDCAF_clean_linker_0, # of connection points: 3
#     Node 9, Type 0, BuildingBlock: MIDCAF_clean_linker_0, # of connection points: 3
#     Node 10, Type 0, BuildingBlock: MIDCAF_clean_linker_0, # of connection points: 3
#     Node 11, Type 0, BuildingBlock: MIDCAF_clean_linker_0, # of connection points: 3
#     Node 12, Type 0, BuildingBlock: MIDCAF_clean_linker_0, # of connection points: 3
#     Node 13, Type 0, BuildingBlock: MIDCAF_clean_linker_0, # of connection points: 3
#     Node 14, Type 0, BuildingBlock: MIDCAF_clean_linker_0, # of connection points: 3
#     Node 15, Type 0, BuildingBlock: MIDCAF_clean_linker_0, # of connection points: 3
#     Node 16, Type 0, BuildingBlock: MIDCAF_clean_linker_0, # of connection points: 3
#     Node 17, Type 0, BuildingBlock: MIDCAF_clean_linker_0, # of connection points: 3
#     Node 18, Type 1, BuildingBlock: NUHQIS_clean_sbu_0, # of connection points: 6
#     Node 19, Type 1, BuildingBlock: NUHQIS_clean_sbu_0, # of connection points: 6
#     Node 20, Type 1, BuildingBlock: NUHQIS_clean_sbu_0, # of connection points: 6
#     Node 21, Type 1, BuildingBlock: NUHQIS_clean_sbu_0, # of connection points: 6
#     Node 22, Type 1, BuildingBlock: NUHQIS_clean_sbu_0, # of connection points: 6
#     Node 23, Type 1, BuildingBlock: NUHQIS_clean_sbu_0, # of connection points: 6
#     Node 24, Type 1, BuildingBlock: NUHQIS_clean_sbu_0, # of connection points: 6
#     Node 25, Type 1, BuildingBlock: NUHQIS_clean_sbu_0, # of connection points: 6
#     Node 26, Type 1, BuildingBlock: NUHQIS_clean_sbu_0, # of connection points: 6
#     Edge 27, Type (0, 1), BuildingBlock: ZUJKAS_clean_linker_0, # of connection points: 2
#     Edge 28, Type (0, 1), BuildingBlock: ZUJKAS_clean_linker_0, # of connection points: 2
#     Edge 29, Type (0, 1), BuildingBlock: ZUJKAS_clean_linker_0, # of connection points: 2
#     Edge 30, Type (0, 1), BuildingBlock: ZUJKAS_clean_linker_0, # of connection points: 2
#     Edge 31, Type (0, 1), BuildingBlock: ZUJKAS_clean_linker_0, # of connection points: 2
#     Edge 32, Type (0, 1), BuildingBlock: ZUJKAS_clean_linker_0, # of connection points: 2
#     Edge 33, Type (0, 1), BuildingBlock: ZUJKAS_clean_linker_0, # of connection points: 2
#     Edge 34, Type (0, 1), BuildingBlock: ZUJKAS_clean_linker_0, # of connection points: 2
#     Edge 35, Type (0, 1), BuildingBlock: ZUJKAS_clean_linker_0, # of connection points: 2
#     Edge 36, Type (0, 1), BuildingBlock: ZUJKAS_clean_linker_0, # of connection points: 2
#     Edge 37, Type (0, 1), BuildingBlock: ZUJKAS_clean_linker_0, # of connection points: 2
#     Edge 38, Type (0, 1), BuildingBlock: ZUJKAS_clean_linker_0, # of connection points: 2
#     Edge 39, Type (0, 1), BuildingBlock: ZUJKAS_clean_linker_0, # of connection points: 2
#     Edge 40, Type (0, 1), BuildingBlock: ZUJKAS_clean_linker_0, # of connection points: 2
#     Edge 41, Type (0, 1), BuildingBlock: ZUJKAS_clean_linker_0, # of connection points: 2
#     Edge 42, Type (0, 1), BuildingBlock: ZUJKAS_clean_linker_0, # of connection points: 2
#     Edge 43, Type (0, 1), BuildingBlock: ZUJKAS_clean_linker_0, # of connection points: 2
#     Edge 44, Type (0, 1), BuildingBlock: ZUJKAS_clean_linker_0, # of connection points: 2
#     Edge 45, Type (0, 1), BuildingBlock: ZUJKAS_clean_linker_0, # of connection points: 2
#     Edge 46, Type (0, 1), BuildingBlock: ZUJKAS_clean_linker_0, # of connection points: 2
#     Edge 47, Type (0, 1), BuildingBlock: ZUJKAS_clean_linker_0, # of connection points: 2
#     Edge 48, Type (0, 1), BuildingBlock: ZUJKAS_clean_linker_0, # of connection points: 2
#     Edge 49, Type (0, 1), BuildingBlock: ZUJKAS_clean_linker_0, # of connection points: 2
#     Edge 50, Type (0, 1), BuildingBlock: ZUJKAS_clean_linker_0, # of connection points: 2
#     Edge 51, Type (0, 1), BuildingBlock: ZUJKAS_clean_linker_0, # of connection points: 2
#     Edge 52, Type (0, 1), BuildingBlock: ZUJKAS_clean_linker_0, # of connection points: 2
#     Edge 53, Type (0, 1), BuildingBlock: ZUJKAS_clean_linker_0, # of connection points: 2
#     Edge 54, Type (0, 1), BuildingBlock: ZUJKAS_clean_linker_0, # of connection points: 2
#     Edge 55, Type (0, 1), BuildingBlock: ZUJKAS_clean_linker_0, # of connection points: 2
#     Edge 56, Type (0, 1), BuildingBlock: ZUJKAS_clean_linker_0, # of connection points: 2
#     Edge 57, Type (0, 1), BuildingBlock: ZUJKAS_clean_linker_0, # of connection points: 2
#     Edge 58, Type (0, 1), BuildingBlock: ZUJKAS_clean_linker_0, # of connection points: 2
#     Edge 59, Type (0, 1), BuildingBlock: ZUJKAS_clean_linker_0, # of connection points: 2
#     Edge 60, Type (0, 1), BuildingBlock: ZUJKAS_clean_linker_0, # of connection points: 2
#     Edge 61, Type (0, 1), BuildingBlock: ZUJKAS_clean_linker_0, # of connection points: 2
#     Edge 62, Type (0, 1), BuildingBlock: ZUJKAS_clean_linker_0, # of connection points: 2
#     Edge 63, Type (0, 1), BuildingBlock: ZUJKAS_clean_linker_0, # of connection points: 2
#     Edge 64, Type (0, 1), BuildingBlock: ZUJKAS_clean_linker_0, # of connection points: 2
#     Edge 65, Type (0, 1), BuildingBlock: ZUJKAS_clean_linker_0, # of connection points: 2
#     Edge 66, Type (0, 1), BuildingBlock: ZUJKAS_clean_linker_0, # of connection points: 2
#     Edge 67, Type (0, 1), BuildingBlock: ZUJKAS_clean_linker_0, # of connection points: 2
#     Edge 68, Type (0, 1), BuildingBlock: ZUJKAS_clean_linker_0, # of connection points: 2
#     Edge 69, Type (0, 1), BuildingBlock: ZUJKAS_clean_linker_0, # of connection points: 2
#     Edge 70, Type (0, 1), BuildingBlock: ZUJKAS_clean_linker_0, # of connection points: 2
#     Edge 71, Type (0, 1), BuildingBlock: ZUJKAS_clean_linker_0, # of connection points: 2
#     Edge 72, Type (0, 1), BuildingBlock: ZUJKAS_clean_linker_0, # of connection points: 2
#     Edge 73, Type (0, 1), BuildingBlock: ZUJKAS_clean_linker_0, # of connection points: 2
#     Edge 74, Type (0, 1), BuildingBlock: ZUJKAS_clean_linker_0, # of connection points: 2
#     Edge 75, Type (0, 1), BuildingBlock: ZUJKAS_clean_linker_0, # of connection points: 2
#     Edge 76, Type (0, 1), BuildingBlock: ZUJKAS_clean_linker_0, # of connection points: 2
#     Edge 77, Type (0, 1), BuildingBlock: ZUJKAS_clean_linker_0, # of connection points: 2
#     Edge 78, Type (0, 1), BuildingBlock: ZUJKAS_clean_linker_0, # of connection points: 2
#     Edge 79, Type (0, 1), BuildingBlock: ZUJKAS_clean_linker_0, # of connection points: 2
#     Edge 80, Type (0, 1), BuildingBlock: ZUJKAS_clean_linker_0, # of connection points: 2
# Relax obj value: 0.035
# Max RMSD: 0.134
# Mean RMSD: 0.067
data_MOF--net-eea--node1-NUHQIS_clean_sbu_0--node2-MIDCAF_clean_linker_0--edge1-ZUJKAS_clean_linker_0
_symmetry_space_group_name_H-M    P1
_symmetry_Int_Tables_number       1
_symmetry_cell_setting            triclinic
loop_
_symmetry_equiv_pos_as_xyz
'x, y, z'
_cell_length_a     77.76674
_cell_length_b     78.268036
_cell_length_c     107.12424
_cell_angle_alpha  93.397497
_cell_angle_beta   93.6575
_cell_angle_gamma 119.92108
loop_
_atom_site_label
_atom_site_type_symbol
_atom_site_fract_x
_atom_site_fract_y
_atom_site_fract_z
_atom_type_partial_charge
C0 C 0.28261 0.07906 0.40875 0.0
C1 C 0.27082 0.07193 0.39708 0.0
C2 C 0.2664 0.08473 0.39074 0.0
C3 C 0.27316 0.10402 0.39612 0.0
H4 H 0.26933 0.15326 0.39072 0.0
H5 H 0.25706 0.17314 0.38117 0.0
H6 H 0.28669 0.21834 0.41265 0.0
H7 H 0.29865 0.19836 0.42237 0.0
H8 H 0.31919 0.19025 0.44614 0.0
H9 H 0.32951 0.19792 0.46875 0.0
H10 H 0.31589 0.13769 0.47133 0.0
H11 H 0.30557 0.1299 0.4488 0.0
H12 H 0.29814 0.10316 0.42322 0.0
H13 H 0.28658 0.06969 0.41377 0.0
H14 H 0.25718 0.07966 0.3818 0.0
H15 H 0.26908 0.1133 0.39108 0.0
N16 N 0.28618 0.14331 0.40801 0.0
N17 N 0.2993 0.16648 0.4259 0.0
N18 N 0.29889 0.13638 0.42622 0.0
C19 C 0.29068 0.16118 0.41381 0.0
C20 C 0.30347 0.15418 0.43217 0.0
C21 C 0.29035 0.13087 0.41412 0.0
C22 C 0.28483 0.17409 0.4074 0.0
C23 C 0.2734 0.16751 0.39558 0.0
C24 C 0.26642 0.17895 0.39006 0.0
C25 C 0.27075 0.19724 0.3962 0.0
C26 C 0.28278 0.20414 0.40779 0.0
C27 C 0.28972 0.1927 0.41333 0.0
C28 C 0.3114 0.15941 0.44565 0.0
C29 C 0.31853 0.17866 0.4515 0.0
C30 C 0.32454 0.18311 0.46443 0.0
C31 C 0.32332 0.16835 0.47178 0.0
C32 C 0.31673 0.14928 0.4659 0.0
C33 C 0.31093 0.14488 0.45297 0.0
C34 C 0.28445 0.11095 0.40797 0.0
C35 C 0.28933 0.09831 0.41414 0.0
C36 C 0.94775 0.20745 0.41795 0.0
C37 C 0.95114 0.20098 0.40632 0.0
C38 C 0.93612 0.18293 0.39986 0.0
C39 C 0.91821 0.17152 0.40495 0.0
H40 H 0.86534 0.11988 0.39752 0.0
H41 H 0.84172 0.08709 0.387 0.0
H42 H 0.80765 0.07367 0.41898 0.0
H43 H 0.83095 0.10658 0.42941 0.0
H44 H 0.84346 0.13882 0.45168 0.0
H45 H 0.83854 0.14753 0.47272 0.0
H46 H 0.89558 0.20174 0.47582 0.0
H47 H 0.9008 0.19286 0.45474 0.0
H48 H 0.92775 0.20142 0.43205 0.0
H49 H 0.95894 0.22141 0.42308 0.0
H50 H 0.93834 0.17737 0.39098 0.0
H51 H 0.9071 0.15761 0.39973 0.0
N52 N 0.88203 0.14754 0.41596 0.0
N53 N 0.86205 0.14148 0.43246 0.0
N54 N 0.89288 0.17098 0.43363 0.0
C55 C 0.86498 0.13556 0.42102 0.0
C56 C 0.87586 0.15917 0.43883 0.0
C57 C 0.89605 0.16527 0.42218 0.0
C58 C 0.85014 0.11591 0.41436 0.0
C59 C 0.85277 0.11001 0.40231 0.0
C60 C 0.83927 0.09115 0.39628 0.0
C61 C 0.82285 0.07771 0.40216 0.0
C62 C 0.82001 0.08373 0.41411 0.0
C63 C 0.83347 0.1026 0.42013 0.0
C64 C 0.87258 0.16508 0.45148 0.0
C65 C 0.85497 0.15266 0.45678 0.0
C66 C 0.85206 0.15772 0.46885 0.0
C67 C 0.86664 0.17536 0.47595 0.0
C68 C 0.88415 0.18794 0.47063 0.0
C69 C 0.88708 0.18288 0.45852 0.0
C70 C 0.91485 0.17785 0.41664 0.0
C71 C 0.9298 0.19602 0.42305 0.0
C72 C 0.82436 0.7636 0.42565 0.0
C73 C 0.82841 0.77362 0.41479 0.0
C74 C 0.84619 0.77842 0.40953 0.0
C75 C 0.85961 0.77334 0.41501 0.0
H76 H 0.91521 0.78066 0.41278 0.0
H77 H 0.94555 0.78884 0.40327 0.0
H78 H 0.95658 0.75246 0.42762 0.0
H79 H 0.92648 0.74475 0.43746 0.0
H80 H 0.90126 0.7314 0.46144 0.0
H81 H 0.89494 0.71709 0.48144 0.0
H82 H 0.84151 0.72105 0.48154 0.0
H83 H 0.84785 0.73554 0.46172 0.0
H84 H 0.8341 0.75077 0.43948 0.0
H85 H 0.81068 0.75943 0.42984 0.0
H86 H 0.84989 0.78636 0.40126 0.0
H87 H 0.87319 0.77736 0.41071 0.0
N88 N 0.88674 0.76211 0.42646 0.0
N89 N 0.89599 0.74825 0.44255 0.0
N90 N 0.86623 0.74904 0.44252 0.0
C91 C 0.89988 0.75727 0.43178 0.0
C92 C 0.87918 0.74411 0.448 0.0
C93 C 0.86985 0.758 0.43175 0.0
C94 C 0.91834 0.76203 0.42591 0.0
C95 C 0.92405 0.77436 0.41613 0.0
C96 C 0.94144 0.77897 0.4106 0.0
C97 C 0.95353 0.77126 0.41462 0.0
C98 C 0.9478 0.75889 0.42439 0.0
C99 C 0.93045 0.75438 0.43 0.0
C100 C 0.87514 0.73475 0.45995 0.0
C101 C 0.88814 0.7292 0.4657 0.0
C102 C 0.88448 0.7209 0.47714 0.0
C103 C 0.86779 0.71805 0.48311 0.0
C104 C 0.85468 0.72335 0.47729 0.0
C105 C 0.85828 0.73157 0.46586 0.0
C106 C 0.85559 0.76334 0.42589 0.0
C107 C 0.83778 0.75853 0.43113 0.0
C108 C 0.0468 0.23349 0.5935 0.0
C109 C 0.0441 0.22583 0.60523 0.0
C110 C 0.05953 0.22397 0.61135 0.0
C111 C 0.0771 0.22939 0.60584 0.0
H112 H 0.12541 0.22156 0.60832 0.0
H113 H 0.14862 0.21183 0.6169 0.0
H114 H 0.18814 0.24145 0.58897 0.0
H115 H 0.16481 0.25085 0.58019 0.0
H116 H 0.15331 0.27141 0.56053 0.0
H117 H 0.16004 0.2871 0.54117 0.0
H118 H 0.10169 0.28132 0.53807 0.0
H119 H 0.09469 0.26525 0.55747 0.0
H120 H 0.06594 0.2447 0.57891 0.0
H121 H 0.03514 0.23491 0.58845 0.0
H122 H 0.05813 0.21848 0.6205 0.0
H123 H 0.08861 0.22771 0.61087 0.0
N124 N 0.11177 0.23773 0.59333 0.0
N125 N 0.13238 0.25199 0.5775 0.0
N126 N 0.10216 0.25185 0.57759 0.0
C127 C 0.1288 0.24246 0.58804 0.0
C128 C 0.1192 0.25677 0.57221 0.0
C129 C 0.09838 0.24237 0.58819 0.0
C130 C 0.14316 0.23697 0.59353 0.0
C131 C 0.13905 0.22604 0.604 0.0
C132 C 0.15241 0.22053 0.60897 0.0
C133 C 0.17023 0.22583 0.60361 0.0
C134 C 0.17442 0.23687 0.59321 0.0
C135 C 0.16106 0.24237 0.58822 0.0
C136 C 0.1234 0.26697 0.56059 0.0
C137 C 0.14186 0.27348 0.55579 0.0
C138 C 0.14582 0.28265 0.54471 0.0
C139 C 0.13143 0.28552 0.5381 0.0
C140 C 0.11302 0.27917 0.5429 0.0
C141 C 0.10906 0.27004 0.55405 0.0
C142 C 0.07978 0.23693 0.59408 0.0
C143 C 0.06445 0.23902 0.588 0.0
C144 C 0.71299 0.78249 0.6078 0.0
C145 C 0.72525 0.78872 0.61928 0.0
C146 C 0.72986 0.80676 0.62594 0.0
C147 C 0.72287 0.8186 0.62105 0.0
H148 H 0.72323 0.87073 0.62865 0.0
H149 H 0.73538 0.90376 0.63916 0.0
H150 H 0.71501 0.91999 0.60587 0.0
H151 H 0.70244 0.8869 0.59543 0.0
H152 H 0.684 0.85719 0.57118 0.0
H153 H 0.67242 0.85048 0.54885 0.0
H154 H 0.66776 0.79307 0.54829 0.0
H155 H 0.67972 0.79987 0.57058 0.0
H156 H 0.69688 0.78917 0.59392 0.0
H157 H 0.70888 0.7685 0.60254 0.0
H158 H 0.73943 0.81209 0.63475 0.0
H159 H 0.72713 0.83263 0.62631 0.0
N160 N 0.70996 0.84363 0.60994 0.0
N161 N 0.6966 0.85151 0.59246 0.0
N162 N 0.6961 0.82129 0.59168 0.0
C163 C 0.70565 0.85645 0.60444 0.0
C164 C 0.6917 0.83392 0.58603 0.0
C165 C 0.70518 0.82599 0.60364 0.0
C166 C 0.71193 0.87612 0.61114 0.0
C167 C 0.72119 0.88127 0.62358 0.0
C168 C 0.72827 0.90026 0.6296 0.0
C169 C 0.72628 0.91455 0.62333 0.0
C170 C 0.71658 0.90927 0.61102 0.0
C171 C 0.70947 0.89028 0.60501 0.0
C172 C 0.68298 0.82916 0.5727 0.0
C173 C 0.68037 0.84306 0.56635 0.0
C174 C 0.67361 0.83917 0.55354 0.0
C175 C 0.66927 0.82128 0.54677 0.0
C176 C 0.67129 0.80713 0.55319 0.0
C177 C 0.67806 0.81101 0.566 0.0
C178 C 0.71114 0.81268 0.60936 0.0
C179 C 0.70602 0.79432 0.60289 0.0
C180 C 0.18486 0.91784 0.60636 0.0
C181 C 0.18233 0.92333 0.61853 0.0
C182 C 0.16569 0.90986 0.62424 0.0
C183 C 0.15163 0.89151 0.61779 0.0
H184 H 0.09897 0.84097 0.62091 0.0
H185 H 0.06788 0.82114 0.62983 0.0
H186 H 0.04081 0.78693 0.59373 0.0
H187 H 0.07213 0.80648 0.58481 0.0
H188 H 0.10307 0.81144 0.56363 0.0
H189 H 0.10791 0.80433 0.54206 0.0
H190 H 0.16 0.86279 0.54402 0.0
H191 H 0.15558 0.86967 0.56553 0.0
H192 H 0.17313 0.89601 0.59046 0.0
H193 H 0.19737 0.92797 0.60162 0.0
H194 H 0.16346 0.91354 0.63368 0.0
H195 H 0.13886 0.88162 0.62242 0.0
N196 N 0.12145 0.85508 0.60333 0.0
N197 N 0.10932 0.83356 0.58464 0.0
N198 N 0.14066 0.86255 0.58638 0.0
C199 C 0.10684 0.83816 0.59659 0.0
C200 C 0.12626 0.8457 0.57948 0.0
C201 C 0.13842 0.86735 0.5983 0.0
C202 C 0.08808 0.82541 0.6021 0.0
C203 C 0.08645 0.82919 0.61484 0.0
C204 C 0.06855 0.81789 0.61997 0.0
C205 C 0.05179 0.80256 0.61248 0.0
C206 C 0.05349 0.79852 0.59979 0.0
C207 C 0.07145 0.80979 0.59466 0.0
C208 C 0.12896 0.8411 0.56637 0.0
C209 C 0.11559 0.82274 0.55947 0.0
C210 C 0.11831 0.81869 0.54707 0.0
C211 C 0.13441 0.83294 0.54131 0.0
C212 C 0.14768 0.8513 0.54822 0.0
C213 C 0.14505 0.85529 0.56058 0.0
C214 C 0.15391 0.88623 0.60548 0.0
C215 C 0.17084 0.89952 0.59992 0.0
C216 C 0.94781 0.40932 0.74086 0.0
C217 C 0.93597 0.40241 0.72921 0.0
C218 C 0.93138 0.41527 0.7231 0.0
C219 C 0.93797 0.4344 0.7287 0.0
H220 H 0.93363 0.48349 0.72414 0.0
H221 H 0.92123 0.50341 0.71483 0.0
H222 H 0.94922 0.54733 0.74709 0.0
H223 H 0.9613 0.52726 0.75657 0.0
H224 H 0.98045 0.51811 0.7804 0.0
H225 H 0.99173 0.52508 0.80282 0.0
H226 H 0.98396 0.46647 0.80326 0.0
H227 H 0.9733 0.45969 0.78087 0.0
H228 H 0.9632 0.43308 0.75555 0.0
H229 H 0.9519 0.39989 0.7457 0.0
H230 H 0.92214 0.41035 0.71417 0.0
H231 H 0.93375 0.44373 0.72385 0.0
N232 N 0.95031 0.47317 0.74121 0.0
N233 N 0.96312 0.49574 0.75941 0.0
N234 N 0.96348 0.46596 0.75908 0.0
C235 C 0.95446 0.49074 0.74732 0.0
C236 C 0.9677 0.48344 0.76535 0.0
C237 C 0.95487 0.46073 0.74701 0.0
C238 C 0.94834 0.50365 0.74117 0.0
C239 C 0.93729 0.49745 0.72924 0.0
C240 C 0.93025 0.50893 0.72385 0.0
C241 C 0.93412 0.52689 0.73026 0.0
C242 C 0.94567 0.53338 0.74201 0.0
C243 C 0.95269 0.5219 0.74741 0.0
C244 C 0.97586 0.4883 0.7788 0.0
C245 C 0.9813 0.50676 0.78525 0.0
C246 C 0.98767 0.51073 0.79814 0.0
C247 C 0.98867 0.49631 0.80488 0.0
C248 C 0.98366 0.47804 0.79835 0.0
C249 C 0.97741 0.47411 0.78548 0.0
C250 C 0.94926 0.44109 0.74056 0.0
C251 C 0.95437 0.42841 0.74647 0.0
C252 C 0.61183 0.53553 0.75139 0.0
C253 C 0.61513 0.52955 0.73958 0.0
C254 C 0.60004 0.51173 0.73291 0.0
C255 C 0.58215 0.50009 0.73796 0.0
H256 H 0.52864 0.44905 0.7297 0.0
H257 H 0.5048 0.41665 0.7187 0.0
H258 H 0.47176 0.40141 0.75114 0.0
H259 H 0.4952 0.43388 0.76202 0.0
H260 H 0.50716 0.46535 0.78444 0.0
H261 H 0.50216 0.47264 0.80576 0.0
H262 H 0.56018 0.52581 0.81033 0.0
H263 H 0.56547 0.51834 0.78893 0.0
H264 H 0.59191 0.52887 0.76561 0.0
H265 H 0.62307 0.5493 0.7567 0.0
H266 H 0.60219 0.50653 0.72388 0.0
H267 H 0.571 0.48637 0.73256 0.0
N268 N 0.54595 0.47568 0.74878 0.0
N269 N 0.5261 0.46875 0.76538 0.0
N270 N 0.55704 0.49818 0.76697 0.0
C271 C 0.5289 0.46344 0.75374 0.0
C272 C 0.54001 0.48607 0.77207 0.0
C273 C 0.56009 0.49308 0.7553 0.0
C274 C 0.51393 0.4441 0.74678 0.0
C275 C 0.51623 0.43885 0.73447 0.0
C276 C 0.50261 0.42022 0.72818 0.0
C277 C 0.4864 0.40639 0.73405 0.0
C278 C 0.48391 0.41179 0.74626 0.0
C279 C 0.49746 0.43042 0.75254 0.0
C280 C 0.53677 0.49121 0.78493 0.0
C281 C 0.51889 0.47867 0.78992 0.0
C282 C 0.51593 0.48292 0.80215 0.0
C283 C 0.53074 0.49984 0.80974 0.0
C284 C 0.54855 0.51255 0.80475 0.0
C285 C 0.55153 0.50831 0.79246 0.0
C286 C 0.57889 0.50592 0.74983 0.0
C287 C 0.5939 0.52386 0.75646 0.0
C288 C 0.49322 0.09837 0.75838 0.0
C289 C 0.4949 0.10427 0.74616 0.0
C290 C 0.51024 0.10487 0.73958 0.0
C291 C 0.52361 0.09976 0.7451 0.0
H292 H 0.58019 0.10857 0.74327 0.0
H293 H 0.61021 0.11601 0.73361 0.0
H294 H 0.6221 0.08156 0.75919 0.0
H295 H 0.5923 0.0746 0.76918 0.0
H296 H 0.56791 0.06317 0.79366 0.0
H297 H 0.56197 0.05007 0.81407 0.0
H298 H 0.50904 0.05494 0.81399 0.0
H299 H 0.515 0.06823 0.79381 0.0
H300 H 0.50477 0.08879 0.77332 0.0
H301 H 0.48179 0.09805 0.7638 0.0
H302 H 0.5118 0.10905 0.73008 0.0
H303 H 0.5352 0.10034 0.73973 0.0
N304 N 0.55253 0.09169 0.75768 0.0
N305 N 0.56213 0.07873 0.77418 0.0
N306 N 0.53283 0.08033 0.77429 0.0
C307 C 0.56565 0.0869 0.76309 0.0
C308 C 0.54573 0.0754 0.77984 0.0
C309 C 0.53607 0.08843 0.76321 0.0
C310 C 0.58378 0.09098 0.75704 0.0
C311 C 0.58914 0.10251 0.74685 0.0
C312 C 0.60635 0.1067 0.74123 0.0
C313 C 0.6186 0.09934 0.74558 0.0
C314 C 0.61318 0.0877 0.75571 0.0
C315 C 0.59601 0.08362 0.7614 0.0
C316 C 0.542 0.06688 0.79207 0.0
C317 C 0.55499 0.06144 0.79798 0.0
C318 C 0.55154 0.05383 0.80965 0.0
C319 C 0.5351 0.05158 0.81568 0.0
C320 C 0.52203 0.0568 0.8097 0.0
C321 C 0.52541 0.06432 0.79806 0.0
C322 C 0.52189 0.09383 0.75731 0.0
C323 C 0.5065 0.09316 0.76387 0.0
C324 C 0.71491 0.5644 0.92754 0.0
C325 C 0.71317 0.55853 0.93978 0.0
C326 C 0.7294 0.55834 0.94622 0.0
C327 C 0.74681 0.56366 0.94053 0.0
H328 H 0.79828 0.56089 0.94457 0.0
H329 H 0.82269 0.55295 0.95356 0.0
H330 H 0.85462 0.57055 0.92078 0.0
H331 H 0.83061 0.57898 0.91192 0.0
H332 H 0.82054 0.60256 0.89356 0.0
H333 H 0.82658 0.61777 0.87401 0.0
H334 H 0.76812 0.61174 0.8715 0.0
H335 H 0.76182 0.59615 0.89109 0.0
H336 H 0.73313 0.57415 0.91241 0.0
H337 H 0.70263 0.56447 0.92223 0.0
H338 H 0.72876 0.55428 0.95574 0.0
H339 H 0.75897 0.56332 0.94581 0.0
N340 N 0.78076 0.57079 0.92745 0.0
N341 N 0.80055 0.5842 0.91113 0.0
N342 N 0.77013 0.58358 0.91134 0.0
C343 C 0.79759 0.57539 0.92194 0.0
C344 C 0.78698 0.5884 0.90577 0.0
C345 C 0.76694 0.57481 0.92222 0.0
C346 C 0.81244 0.57061 0.92751 0.0
C347 C 0.81052 0.5631 0.93927 0.0
C348 C 0.82446 0.55844 0.94441 0.0
C349 C 0.84062 0.56109 0.93789 0.0
C350 C 0.84254 0.5686 0.92614 0.0
C351 C 0.82866 0.57334 0.92103 0.0
C352 C 0.79065 0.59805 0.89394 0.0
C353 C 0.80891 0.60445 0.8889 0.0
C354 C 0.81247 0.61334 0.87771 0.0
C355 C 0.79788 0.61605 0.87124 0.0
C356 C 0.77961 0.60972 0.87624 0.0
C357 C 0.77605 0.60087 0.8875 0.0
C358 C 0.74852 0.56946 0.92828 0.0
C359 C 0.7324 0.56987 0.92188 0.0
C360 C 0.38615 0.12812 0.9418 0.0
C361 C 0.39826 0.1345 0.95335 0.0
C362 C 0.40195 0.15213 0.96016 0.0
C363 C 0.39408 0.16333 0.9554 0.0
H364 H 0.39563 0.21613 0.9622 0.0
H365 H 0.40668 0.24919 0.97225 0.0
H366 H 0.37206 0.25777 0.94274 0.0
H367 H 0.36131 0.22493 0.93252 0.0
H368 H 0.34266 0.19447 0.90816 0.0
H369 H 0.33125 0.18887 0.88583 0.0
H370 H 0.34661 0.14305 0.88121 0.0
H371 H 0.35745 0.14819 0.90357 0.0
H372 H 0.36923 0.13402 0.92804 0.0
H373 H 0.38273 0.11443 0.93643 0.0
H374 H 0.41138 0.15756 0.96903 0.0
H375 H 0.39756 0.17702 0.96081 0.0
N376 N 0.37855 0.18671 0.94481 0.0
N377 N 0.36335 0.19346 0.92771 0.0
N378 N 0.36578 0.16478 0.92633 0.0
C379 C 0.37267 0.19865 0.93962 0.0
C380 C 0.35983 0.17655 0.921 0.0
C381 C 0.37505 0.16967 0.93825 0.0
C382 C 0.37774 0.21789 0.94646 0.0
C383 C 0.3902 0.22496 0.9579 0.0
C384 C 0.39647 0.2439 0.96371 0.0
C385 C 0.3904 0.25619 0.95823 0.0
C386 C 0.37732 0.24882 0.94707 0.0
C387 C 0.37108 0.22992 0.94125 0.0
C388 C 0.35115 0.17191 0.90768 0.0
C389 C 0.34343 0.18306 0.90242 0.0
C390 C 0.33698 0.17992 0.88959 0.0
C391 C 0.3382 0.16565 0.88168 0.0
C392 C 0.34525 0.15402 0.88703 0.0
C393 C 0.35158 0.15706 0.89987 0.0
C394 C 0.38236 0.15719 0.9437 0.0
C395 C 0.37831 0.13933 0.93703 0.0
C396 C 0.85336 0.25454 0.93783 0.0
C397 C 0.85118 0.261 0.94983 0.0
C398 C 0.83452 0.24825 0.95582 0.0
C399 C 0.82008 0.2297 0.94978 0.0
H400 H 0.76643 0.1803 0.95365 0.0
H401 H 0.73559 0.16108 0.96296 0.0
H402 H 0.70748 0.12581 0.92728 0.0
H403 H 0.73856 0.14474 0.91798 0.0
H404 H 0.76448 0.15473 0.89402 0.0
H405 H 0.76865 0.14813 0.87216 0.0
H406 H 0.83173 0.19068 0.87939 0.0
H407 H 0.82756 0.19762 0.90098 0.0
H408 H 0.84102 0.23178 0.92246 0.0
H409 H 0.86586 0.26407 0.93287 0.0
H410 H 0.83254 0.25266 0.96515 0.0
H411 H 0.80729 0.22041 0.9546 0.0
N412 N 0.78889 0.19306 0.93589 0.0
N413 N 0.776 0.17088 0.91748 0.0
N414 N 0.80802 0.19891 0.91897 0.0
C415 C 0.77382 0.1762 0.92934 0.0
C416 C 0.79317 0.18215 0.91226 0.0
C417 C 0.80604 0.20451 0.93077 0.0
C418 C 0.75503 0.16413 0.93503 0.0
C419 C 0.75372 0.16845 0.94775 0.0
C420 C 0.73595 0.15748 0.9531 0.0
C421 C 0.71899 0.14197 0.94587 0.0
C422 C 0.72032 0.13752 0.93317 0.0
C423 C 0.73814 0.14845 0.92782 0.0
C424 C 0.79563 0.17686 0.89924 0.0
C425 C 0.77925 0.16259 0.89095 0.0
C426 C 0.78165 0.15876 0.87843 0.0
C427 C 0.80048 0.16906 0.87398 0.0
C428 C 0.81692 0.18283 0.88241 0.0
C429 C 0.81453 0.18672 0.89484 0.0
C430 C 0.822 0.22349 0.93762 0.0
C431 C 0.83898 0.23602 0.93181 0.0
C432 C 0.62066 0.75222 0.07143 0.0
C433 C 0.61083 0.74645 0.05915 0.0
C434 C 0.60712 0.75985 0.05301 0.0
C435 C 0.61248 0.77834 0.05918 0.0
H436 H 0.60442 0.82551 0.05595 0.0
H437 H 0.59121 0.84487 0.04682 0.0
H438 H 0.61353 0.88558 0.08073 0.0
H439 H 0.62639 0.866 0.09003 0.0
H440 H 0.64158 0.85443 0.11439 0.0
H441 H 0.64991 0.85884 0.13713 0.0
H442 H 0.65243 0.80488 0.1349 0.0
H443 H 0.64392 0.80025 0.11225 0.0
H444 H 0.63309 0.77436 0.08717 0.0
H445 H 0.62354 0.74217 0.07648 0.0
H446 H 0.59982 0.75594 0.04348 0.0
H447 H 0.609 0.78811 0.05425 0.0
N448 N 0.62059 0.81486 0.07311 0.0
N449 N 0.63026 0.83543 0.09209 0.0
N450 N 0.63281 0.8068 0.091 0.0
C451 C 0.62297 0.83138 0.07973 0.0
C452 C 0.63527 0.82322 0.09778 0.0
C453 C 0.62555 0.80253 0.07865 0.0
C454 C 0.61636 0.84407 0.07379 0.0
C455 C 0.60666 0.83866 0.06146 0.0
C456 C 0.59915 0.84982 0.05618 0.0
C457 C 0.6012 0.8667 0.06307 0.0
C458 C 0.61139 0.87245 0.07525 0.0
C459 C 0.61887 0.86126 0.08056 0.0
C460 C 0.64191 0.82689 0.11146 0.0
C461 C 0.64403 0.84355 0.11871 0.0
C462 C 0.64889 0.84615 0.13175 0.0
C463 C 0.65165 0.83211 0.1378 0.0
C464 C 0.65006 0.81577 0.13052 0.0
C465 C 0.6453 0.8132 0.11751 0.0
C466 C 0.62164 0.78381 0.07164 0.0
C467 C 0.62601 0.77068 0.07759 0.0
C468 C 0.2792 0.87272 0.08433 0.0
C469 C 0.28435 0.86402 0.07449 0.0
C470 C 0.27149 0.84393 0.0702 0.0
C471 C 0.25385 0.83275 0.07561 0.0
H472 H 0.20147 0.77964 0.06997 0.0
H473 H 0.17771 0.74585 0.06101 0.0
H474 H 0.13901 0.74047 0.08957 0.0
H475 H 0.16287 0.77406 0.09871 0.0
H476 H 0.17659 0.80761 0.12011 0.0
H477 H 0.17238 0.81661 0.14129 0.0
H478 H 0.23297 0.86581 0.14582 0.0
H479 H 0.23721 0.85701 0.12443 0.0
H480 H 0.25816 0.8686 0.09746 0.0
H481 H 0.28892 0.88816 0.08788 0.0
H482 H 0.27499 0.8369 0.06254 0.0
H483 H 0.24431 0.81729 0.07206 0.0
N484 N 0.21611 0.8111 0.08574 0.0
N485 N 0.19639 0.80669 0.10222 0.0
N486 N 0.22715 0.83602 0.10259 0.0
C487 C 0.19915 0.79973 0.09107 0.0
C488 C 0.21026 0.82477 0.10805 0.0
C489 C 0.23014 0.82929 0.09139 0.0
C490 C 0.18419 0.77959 0.08513 0.0
C491 C 0.18786 0.77132 0.07432 0.0
C492 C 0.17418 0.75196 0.06913 0.0
C493 C 0.1565 0.74043 0.07462 0.0
C494 C 0.15264 0.74884 0.08525 0.0
C495 C 0.16631 0.76817 0.09045 0.0
C496 C 0.20733 0.83145 0.12058 0.0
C497 C 0.18904 0.82043 0.12555 0.0
C498 C 0.18663 0.82553 0.13774 0.0
C499 C 0.20243 0.84175 0.1453 0.0
C500 C 0.22049 0.85327 0.1402 0.0
C501 C 0.22292 0.84817 0.12796 0.0
C502 C 0.24874 0.84135 0.08555 0.0
C503 C 0.26164 0.86147 0.08985 0.0
C504 C 0.16017 0.42815 0.09012 0.0
C505 C 0.16419 0.43736 0.07895 0.0
C506 C 0.18164 0.44118 0.07359 0.0
C507 C 0.19486 0.43606 0.07933 0.0
H508 H 0.24758 0.43833 0.07564 0.0
H509 H 0.27849 0.44703 0.06671 0.0
H510 H 0.29673 0.42444 0.09756 0.0
H511 H 0.26588 0.416 0.1067 0.0
H512 H 0.2367 0.3972 0.12782 0.0
H513 H 0.23015 0.38354 0.14801 0.0
H514 H 0.17637 0.38698 0.14712 0.0
H515 H 0.18293 0.40084 0.1271 0.0
H516 H 0.16977 0.41598 0.10448 0.0
H517 H 0.14671 0.42475 0.09439 0.0
H518 H 0.1853 0.44847 0.06507 0.0
H519 H 0.20823 0.43939 0.07498 0.0
N520 N 0.22219 0.42594 0.09176 0.0
N521 N 0.23153 0.41322 0.1085 0.0
N522 N 0.20148 0.41352 0.1078 0.0
C523 C 0.23546 0.42164 0.09751 0.0
C524 C 0.21454 0.40909 0.1137 0.0
C525 C 0.20516 0.42192 0.09682 0.0
C526 C 0.25417 0.42647 0.09193 0.0
C527 C 0.25811 0.43515 0.08055 0.0
C528 C 0.27582 0.44005 0.07536 0.0
C529 C 0.29007 0.4364 0.0814 0.0
C530 C 0.28615 0.42764 0.09274 0.0
C531 C 0.26839 0.42271 0.09794 0.0
C532 C 0.21041 0.40024 0.12581 0.0
C533 C 0.22346 0.39504 0.13191 0.0
C534 C 0.21967 0.3871 0.14346 0.0
C535 C 0.2028 0.38427 0.14919 0.0
C536 C 0.18966 0.38926 0.14304 0.0
C537 C 0.19339 0.39712 0.1315 0.0
C538 C 0.19093 0.42699 0.09057 0.0
C539 C 0.17337 0.42302 0.09586 0.0
C540 C 0.37945 0.90205 0.26039 0.0
C541 C 0.37533 0.89196 0.27123 0.0
C542 C 0.38927 0.88725 0.2765 0.0
C543 C 0.40694 0.89259 0.27113 0.0
H544 H 0.45369 0.87946 0.26958 0.0
H545 H 0.47768 0.87068 0.27849 0.0
H546 H 0.52525 0.92024 0.26322 0.0
H547 H 0.50131 0.92886 0.25408 0.0
H548 H 0.48549 0.93723 0.22734 0.0
H549 H 0.49201 0.95169 0.20754 0.0
H550 H 0.43433 0.94742 0.2045 0.0
H551 H 0.42775 0.93309 0.22452 0.0
H552 H 0.39989 0.9153 0.24671 0.0
H553 H 0.36912 0.90608 0.25617 0.0
H554 H 0.38643 0.87922 0.28473 0.0
H555 H 0.41727 0.88867 0.27549 0.0
N556 N 0.44358 0.90428 0.26018 0.0
N557 N 0.46504 0.91961 0.2449 0.0
N558 N 0.43425 0.91839 0.24428 0.0
C559 C 0.46109 0.90979 0.25532 0.0
C560 C 0.4517 0.9239 0.23927 0.0
C561 C 0.43012 0.90864 0.25477 0.0
C562 C 0.47561 0.90483 0.26111 0.0
C563 C 0.46927 0.88852 0.26815 0.0
C564 C 0.48294 0.88342 0.27319 0.0
C565 C 0.50324 0.89479 0.2715 0.0
C566 C 0.50966 0.9113 0.26467 0.0
C567 C 0.49595 0.91616 0.25941 0.0
C568 C 0.45599 0.93381 0.22753 0.0
C569 C 0.47415 0.9394 0.22253 0.0
C570 C 0.47789 0.94762 0.21112 0.0
C571 C 0.46361 0.9505 0.20438 0.0
C572 C 0.44568 0.94547 0.20951 0.0
C573 C 0.44189 0.93718 0.22096 0.0
C574 C 0.41116 0.90279 0.26033 0.0
C575 C 0.39716 0.90742 0.25501 0.0
C576 C 0.05178 0.45509 0.27531 0.0
C577 C 0.06117 0.45993 0.28768 0.0
C578 C 0.06222 0.47594 0.29508 0.0
C579 C 0.05457 0.4872 0.2901 0.0
H580 H 0.06144 0.54285 0.29536 0.0
H581 H 0.07304 0.57614 0.30522 0.0
H582 H 0.03724 0.58425 0.27627 0.0
H583 H 0.02602 0.55121 0.26621 0.0
H584 H 0.01918 0.52732 0.23943 0.0
H585 H 0.00917 0.52148 0.21694 0.0
H586 H 0.00221 0.46309 0.21637 0.0
H587 H 0.0128 0.46911 0.23886 0.0
H588 H 0.03734 0.46235 0.26068 0.0
H589 H 0.05092 0.443 0.2693 0.0
H590 H 0.06905 0.47985 0.30472 0.0
H591 H 0.05592 0.4996 0.29602 0.0
N592 N 0.04268 0.51266 0.27849 0.0
N593 N 0.02889 0.5202 0.26106 0.0
N594 N 0.03018 0.4909 0.25994 0.0
C595 C 0.03761 0.52505 0.27311 0.0
C596 C 0.02507 0.50314 0.25441 0.0
C597 C 0.03893 0.4955 0.27198 0.0
C598 C 0.04297 0.5444 0.2799 0.0
C599 C 0.05587 0.55163 0.29115 0.0
C600 C 0.06247 0.57072 0.29685 0.0
C601 C 0.05624 0.58294 0.29146 0.0
C602 C 0.04266 0.57537 0.28052 0.0
C603 C 0.03615 0.55636 0.27479 0.0
C604 C 0.01699 0.49876 0.24097 0.0
C605 C 0.01534 0.51314 0.23456 0.0
C606 C 0.00948 0.50975 0.22164 0.0
C607 C 0.00499 0.49186 0.21482 0.0
C608 C 0.00592 0.47719 0.2213 0.0
C609 C 0.01189 0.48061 0.23422 0.0
C610 C 0.04566 0.48268 0.27761 0.0
C611 C 0.04408 0.4663 0.27034 0.0
C612 C 0.51623 0.59158 0.26782 0.0
C613 C 0.51435 0.59756 0.28004 0.0
C614 C 0.49875 0.58396 0.28642 0.0
C615 C 0.48514 0.56497 0.28063 0.0
H616 H 0.4322 0.51654 0.28497 0.0
H617 H 0.4018 0.49668 0.29458 0.0
H618 H 0.37876 0.45311 0.26209 0.0
H619 H 0.40908 0.47314 0.25229 0.0
H620 H 0.43708 0.47891 0.23047 0.0
H621 H 0.44131 0.4687 0.2095 0.0
H622 H 0.49336 0.52643 0.20857 0.0
H623 H 0.4895 0.53649 0.22958 0.0
H624 H 0.50443 0.56859 0.25254 0.0
H625 H 0.52793 0.60176 0.26257 0.0
H626 H 0.49705 0.58797 0.29593 0.0
H627 H 0.47325 0.55496 0.28582 0.0
N628 N 0.45542 0.52716 0.26757 0.0
N629 N 0.44392 0.50313 0.25019 0.0
N630 N 0.47422 0.53299 0.25045 0.0
C631 C 0.44136 0.50914 0.26175 0.0
C632 C 0.46035 0.51497 0.24448 0.0
C633 C 0.4719 0.53918 0.262 0.0
C634 C 0.42313 0.49652 0.26781 0.0
C635 C 0.42073 0.50271 0.27985 0.0
C636 C 0.40332 0.49125 0.28542 0.0
C637 C 0.38785 0.47332 0.2791 0.0
C638 C 0.3903 0.46699 0.26713 0.0
C639 C 0.40776 0.47843 0.26155 0.0
C640 C 0.46295 0.50854 0.23177 0.0
C641 C 0.44947 0.48943 0.22582 0.0
C642 C 0.45183 0.48358 0.21376 0.0
C643 C 0.46769 0.49672 0.20734 0.0
C644 C 0.48117 0.5158 0.21331 0.0
C645 C 0.47887 0.52161 0.22537 0.0
C646 C 0.48683 0.55908 0.26832 0.0
C647 C 0.50266 0.57256 0.26203 0.0
Tb648 Tb 0.49313 0.98934 0.99691 0.0
Eu649 Eu 0.51019 0.01767 0.024 0.0
C650 C 0.51503 0.97973 0.01834 0.0
C651 C 0.46771 0.97857 0.01997 0.0
C652 C 0.48562 0.97482 0.96286 0.0
C653 C 0.48207 0.96549 0.94043 0.0
C654 C 0.47776 0.96022 0.95258 0.0
C655 C 0.49793 0.99476 0.96091 0.0
C656 C 0.5022 4e-05 0.94879 0.0
C657 C 0.49428 0.98548 0.9384 0.0
C658 C 0.48116 0.96932 0.97561 0.0
O659 O 0.49374 0.0167 0.9935 0.0
O660 O 0.48922 0.02492 0.01334 0.0
O661 O 0.53085 0.03564 0.01017 0.0
O662 O 0.52491 0.00934 0.99624 0.0
C663 C 0.48792 0.02601 1.00118 0.0
O664 O 0.50539 0.03398 0.03925 0.0
O665 O 0.53302 0.03355 0.03994 0.0
O666 O 0.52382 0.99824 0.02329 0.0
O667 O 0.49949 0.97232 0.00983 0.0
O668 O 0.46768 0.97996 1.00779 0.0
O669 O 0.48411 0.98874 0.02768 0.0
C670 C 0.53589 0.02808 1.00078 0.0
O671 O 0.49606 0.97115 0.98302 0.0
O672 O 0.47151 0.97663 0.98124 0.0
C673 C 0.51913 0.03266 0.05897 0.0
C674 C 0.51153 0.02159 0.08347 0.0
C675 C 0.5205 0.04165 0.08124 0.0
C676 C 0.52427 0.04713 0.06908 0.0
C677 C 0.51039 0.01267 0.06115 0.0
C678 C 0.50664 0.00718 0.07329 0.0
C679 C 0.52175 0.03824 0.0461 0.0
H680 H 0.4756 0.95396 0.93261 0.0
H681 H 0.46825 0.94476 0.95395 0.0
H682 H 0.50424 0.00622 0.96878 0.0
H683 H 0.51187 0.01552 0.94756 0.0
H684 H 0.52463 0.05311 0.0889 0.0
H685 H 0.53094 0.06262 0.06753 0.0
H686 H 0.50613 0.00128 0.05341 0.0
H687 H 0.49945 0.99159 0.07464 0.0
Tb688 Tb 0.01695 0.50778 0.99791 0.0
Eu689 Eu 0.98968 0.49596 0.02172 0.0
C690 C 0.02748 0.53843 0.0217 0.0
C691 C 0.02923 0.49284 0.02147 0.0
C692 C 0.0338 0.51489 0.96582 0.0
C693 C 0.04564 0.52511 0.94566 0.0
C694 C 0.04925 0.52653 0.95871 0.0
C695 C 0.01469 0.50162 0.95975 0.0
C696 C 0.01108 0.5001 0.94666 0.0
C697 C 0.0265 0.51197 0.93949 0.0
C698 C 0.03767 0.5176 0.97957 0.0
O699 O 0.99817 0.47555 0.99557 0.0
O700 O 0.9719 0.47251 1.00571 0.0
O701 O 0.97995 0.51249 0.00935 0.0
O702 O 0.98891 0.5052 0.99067 0.0
C703 C 0.97952 0.46514 0.99797 0.0
O704 O 0.97081 0.47384 0.03369 0.0
O705 O 0.97578 0.50372 0.03633 0.0
O706 O 0.01815 0.52403 0.02871 0.0
O707 O 0.025 0.53516 0.00937 0.0
O708 O 0.03547 0.5059 0.01323 0.0
O709 O 0.01084 0.48441 0.02445 0.0
C710 C 0.97861 0.51118 0.99701 0.0
O711 O 0.03173 0.52856 0.98527 0.0
O712 O 0.03319 0.50178 0.98515 0.0
C713 C 0.97142 0.4865 0.05427 0.0
C714 C 0.97717 0.48598 0.08042 0.0
C715 C 0.95837 0.47336 0.07365 0.0
C716 C 0.95554 0.47366 0.06068 0.0
C717 C 0.99026 0.49905 0.06093 0.0
C718 C 0.99309 0.49886 0.07393 0.0
C719 C 0.96816 0.48643 0.04063 0.0
H720 H 0.05786 0.53425 0.94037 0.0
H721 H 0.06407 0.5369 0.96329 0.0
H722 H 0.00254 0.49268 0.96514 0.0
H723 H 0.99614 0.49 0.94217 0.0
H724 H 0.94579 0.46344 0.07841 0.0
H725 H 0.94092 0.46386 0.05565 0.0
H726 H 0.00276 0.50895 0.05609 0.0
H727 H 0.00778 0.50858 0.07888 0.0
Tb728 Tb 0.5126 0.49817 0.02353 0.0
Eu729 Eu 0.49183 0.50392 0.99752 0.0
C730 C 0.48575 0.46248 1.00348 0.0
C731 C 0.53515 0.50767 0.99914 0.0
C732 C 0.51999 0.48754 0.05611 0.0
C733 C 0.52608 0.48181 0.07752 0.0
C734 C 0.5323 0.48604 0.06556 0.0
C735 C 0.50108 0.48407 0.05858 0.0
C736 C 0.49489 0.47999 0.07055 0.0
C737 C 0.50748 0.47918 0.08026 0.0
C738 C 0.52754 0.49421 0.04405 0.0
O739 O 0.52828 0.52939 0.02052 0.0
O740 O 0.50155 0.53034 0.01152 0.0
O741 O 0.4675 0.49092 0.01022 0.0
O742 O 0.4869 0.49964 0.0292 0.0
C743 C 0.51927 0.53932 0.01787 0.0
O744 O 0.49143 0.52343 0.98396 0.0
O745 O 0.46907 0.4922 0.98139 0.0
O746 O 0.49086 0.47479 0.99482 0.0
O747 O 0.48873 0.46903 0.01544 0.0
O748 O 0.53132 0.49811 0.00924 0.0
O749 O 0.52363 0.514 0.99436 0.0
C750 C 0.46959 0.49327 0.02257 0.0
O751 O 0.52021 0.48084 0.03437 0.0
O752 O 0.52831 0.51056 0.04136 0.0
C753 C 0.48083 0.50819 0.96328 0.0
C754 C 0.48946 0.50816 0.93813 0.0
C755 C 0.47637 0.5146 0.94178 0.0
C756 C 0.4721 0.51461 0.95426 0.0
C757 C 0.49384 0.5017 0.95972 0.0
C758 C 0.49809 0.50165 0.94725 0.0
C759 C 0.47693 0.509 0.97645 0.0
H760 H 0.536 0.48093 0.08469 0.0
H761 H 0.54693 0.48862 0.06378 0.0
H762 H 0.49137 0.48515 0.05136 0.0
H763 H 0.48058 0.47826 0.07232 0.0
H764 H 0.46969 0.51996 0.93505 0.0
H765 H 0.46216 0.51983 0.9569 0.0
H766 H 0.50077 0.49677 0.96661 0.0
H767 H 0.50802 0.49635 0.94473 0.0
Tb768 Tb 0.16209 0.31933 0.32993 0.0
Eu769 Eu 0.17942 0.34794 0.35696 0.0
C770 C 0.1843 0.31003 0.3513 0.0
C771 C 0.13683 0.30891 0.35314 0.0
C772 C 0.15395 0.30479 0.29587 0.0
C773 C 0.14999 0.29556 0.2734 0.0
C774 C 0.14622 0.2902 0.28559 0.0
C775 C 0.16558 0.3248 0.29389 0.0
C776 C 0.1693 0.33019 0.28173 0.0
C777 C 0.1615 0.31563 0.27133 0.0
C778 C 0.14996 0.29921 0.30866 0.0
O779 O 0.16226 0.34646 0.32649 0.0
O780 O 0.15821 0.35498 0.3464 0.0
O781 O 0.19987 0.36584 0.34306 0.0
O782 O 0.19379 0.33954 0.32906 0.0
C783 C 0.15651 0.35578 0.33423 0.0
O784 O 0.17532 0.36519 0.37198 0.0
O785 O 0.20209 0.36316 0.37307 0.0
O786 O 0.19317 0.32862 0.35609 0.0
O787 O 0.1686 0.30247 0.34291 0.0
O788 O 0.13675 0.3099 0.34092 0.0
O789 O 0.15324 0.31924 0.36082 0.0
C790 C 0.20479 0.35828 0.33361 0.0
O791 O 0.16521 0.30144 0.3159 0.0
O792 O 0.14012 0.30612 0.31447 0.0
C793 C 0.18805 0.36328 0.39188 0.0
C794 C 0.1796 0.35274 0.41639 0.0
C795 C 0.19042 0.3728 0.41418 0.0
C796 C 0.19456 0.37802 0.402 0.0
C797 C 0.17753 0.34326 0.39405 0.0
C798 C 0.17335 0.33803 0.4062 0.0
C799 C 0.19127 0.3687 0.37901 0.0
H800 H 0.14364 0.28404 0.26558 0.0
H801 H 0.13722 0.27468 0.28698 0.0
H802 H 0.17178 0.33626 0.30176 0.0
H803 H 0.17845 0.34573 0.28047 0.0
H804 H 0.19526 0.38448 0.4218 0.0
H805 H 0.20258 0.39354 0.40045 0.0
H806 H 0.17236 0.33168 0.38632 0.0
H807 H 0.16525 0.32245 0.4076 0.0
Tb808 Tb 0.68087 0.8408 0.33074 0.0
Eu809 Eu 0.65556 0.8335 0.35539 0.0
C810 C 0.69142 0.87513 0.35111 0.0
C811 C 0.69374 0.82805 0.35561 0.0
C812 C 0.69571 0.84621 0.29831 0.0
C813 C 0.70721 0.85406 0.27778 0.0
C814 C 0.71132 0.85446 0.29071 0.0
C815 C 0.6759 0.83755 0.29288 0.0
C816 C 0.67177 0.83705 0.27993 0.0
C817 C 0.6874 0.84534 0.27225 0.0
C818 C 0.70032 0.84711 0.31189 0.0
O819 O 0.65298 0.81303 0.326 0.0
O820 O 0.64797 0.80377 0.34589 0.0
O821 O 0.6365 0.83578 0.33981 0.0
O822 O 0.65964 0.85046 0.32571 0.0
C823 C 0.64492 0.79925 0.33365 0.0
O824 O 0.62997 0.81513 0.36547 0.0
O825 O 0.6522 0.84486 0.3735 0.0
O826 O 0.67267 0.86607 0.35325 0.0
O827 O 0.69862 0.86537 0.34517 0.0
O828 O 0.69188 0.82658 0.34324 0.0
O829 O 0.68363 0.83383 0.36229 0.0
C830 C 0.64216 0.84507 0.32973 0.0
O831 O 0.69934 0.86085 0.31874 0.0
O832 O 0.69184 0.83022 0.31668 0.0
C833 C 0.63589 0.82144 0.38767 0.0
C834 C 0.63608 0.81256 0.41276 0.0
C835 C 0.61871 0.81039 0.40623 0.0
C836 C 0.61865 0.81485 0.39381 0.0
C837 C 0.65299 0.8227 0.39389 0.0
C838 C 0.6531 0.81833 0.40635 0.0
C839 C 0.63623 0.82836 0.37521 0.0
H840 H 0.71954 0.86034 0.27208 0.0
H841 H 0.72669 0.86123 0.29478 0.0
H842 H 0.66368 0.83126 0.29867 0.0
H843 H 0.65637 0.83043 0.27595 0.0
H844 H 0.60525 0.80563 0.41082 0.0
H845 H 0.6053 0.81371 0.38911 0.0
H846 H 0.66645 0.82773 0.38926 0.0
H847 H 0.66678 0.82033 0.41111 0.0
Tb848 Tb 0.17337 0.82523 0.35468 0.0
Eu849 Eu 0.15219 0.83096 0.32883 0.0
C850 C 0.14607 0.7896 0.33503 0.0
C851 C 0.19572 0.83567 0.33014 0.0
C852 C 0.18451 0.82142 0.38807 0.0
C853 C 0.18359 0.81011 0.40875 0.0
C854 C 0.1881 0.81006 0.39633 0.0
C855 C 0.17643 0.83293 0.39235 0.0
C856 C 0.17208 0.83313 0.4048 0.0
C857 C 0.17549 0.82162 0.4131 0.0
C858 C 0.18809 0.8202 0.37484 0.0
O859 O 0.17411 0.85327 0.35787 0.0
O860 O 0.17659 0.86091 0.33761 0.0
O861 O 0.13285 0.83005 0.34376 0.0
O862 O 0.14295 0.81584 0.35866 0.0
C863 C 0.17952 0.86642 0.34972 0.0
O864 O 0.14409 0.8487 0.31747 0.0
O865 O 0.13594 0.81892 0.31021 0.0
O866 O 0.13645 0.79872 0.33186 0.0
O867 O 0.16393 0.79949 0.34122 0.0
O868 O 0.1972 0.838 0.3425 0.0
O869 O 0.17876 0.82945 0.32318 0.0
C870 C 0.13051 0.82132 0.35414 0.0
O871 O 0.17321 0.80591 0.3675 0.0
O872 O 0.19615 0.83681 0.3697 0.0
C873 C 0.14456 0.84239 0.29574 0.0
C874 C 0.15782 0.85188 0.27189 0.0
C875 C 0.17046 0.85151 0.28174 0.0
C876 C 0.16388 0.84683 0.29357 0.0
C877 C 0.13212 0.84335 0.28611 0.0
C878 C 0.13871 0.84811 0.27429 0.0
C879 C 0.13688 0.83545 0.3077 0.0
H880 H 0.18651 0.80122 0.41498 0.0
H881 H 0.19418 0.80097 0.39314 0.0
H882 H 0.17325 0.84156 0.38603 0.0
H883 H 0.16563 0.84194 0.40785 0.0
H884 H 0.18516 0.85408 0.28021 0.0
H885 H 0.17366 0.84611 0.30092 0.0
H886 H 0.11716 0.83998 0.28766 0.0
H887 H 0.12872 0.84857 0.26697 0.0
Tb888 Tb 0.82568 0.64846 0.66281 0.0
Eu889 Eu 0.84284 0.67726 0.68974 0.0
C890 C 0.84774 0.63926 0.68435 0.0
C891 C 0.80038 0.63804 0.68601 0.0
C892 C 0.81803 0.63443 0.62875 0.0
C893 C 0.81423 0.62578 0.60621 0.0
C894 C 0.81026 0.62009 0.61832 0.0
C895 C 0.82991 0.65451 0.62699 0.0
C896 C 0.83383 0.66021 0.61491 0.0
C897 C 0.82598 0.64592 0.60437 0.0
C898 C 0.81379 0.62856 0.64147 0.0
O899 O 0.82595 0.67565 0.65933 0.0
O900 O 0.82132 0.68384 0.67913 0.0
O901 O 0.86318 0.69504 0.67574 0.0
O902 O 0.85745 0.6685 0.66214 0.0
C903 C 0.81988 0.68477 0.66697 0.0
O904 O 0.83859 0.6945 0.70468 0.0
O905 O 0.86559 0.69289 0.70576 0.0
O906 O 0.85651 0.65786 0.68912 0.0
O907 O 0.83219 0.63165 0.67582 0.0
O908 O 0.80029 0.63886 0.67377 0.0
O909 O 0.81677 0.64856 0.69369 0.0
C910 C 0.86828 0.68734 0.66647 0.0
O911 O 0.82893 0.63068 0.64877 0.0
O912 O 0.80384 0.63533 0.64726 0.0
C913 C 0.85161 0.693 0.7246 0.0
C914 C 0.84349 0.68267 0.74918 0.0
C915 C 0.85411 0.70271 0.74688 0.0
C916 C 0.8581 0.70782 0.73466 0.0
C917 C 0.84127 0.67301 0.72685 0.0
C918 C 0.83725 0.66789 0.73903 0.0
C919 C 0.85466 0.6983 0.71169 0.0
H920 H 0.80782 0.61445 0.59828 0.0
H921 H 0.80106 0.60453 0.61954 0.0
H922 H 0.83615 0.66577 0.63497 0.0
H923 H 0.84317 0.6758 0.61383 0.0
H924 H 0.85894 0.71443 0.75446 0.0
H925 H 0.86597 0.72332 0.73305 0.0
H926 H 0.83613 0.66138 0.71916 0.0
H927 H 0.8293 0.65234 0.7405 0.0
Tb928 Tb 0.34484 0.169 0.66324 0.0
Eu929 Eu 0.31917 0.16128 0.68767 0.0
C930 C 0.35552 0.20317 0.68418 0.0
C931 C 0.35847 0.15735 0.68811 0.0
C932 C 0.36238 0.18035 0.63148 0.0
C933 C 0.37889 0.19551 0.61336 0.0
C934 C 0.37989 0.19144 0.62583 0.0
C935 C 0.34383 0.17406 0.62467 0.0
C936 C 0.34279 0.17794 0.61217 0.0
C937 C 0.36031 0.18837 0.60627 0.0
C938 C 0.36368 0.1744 0.64412 0.0
O939 O 0.3283 0.13732 0.665 0.0
O940 O 0.30118 0.13616 0.67261 0.0
O941 O 0.30803 0.1756 0.67438 0.0
O942 O 0.31765 0.16825 0.6559 0.0
C943 C 0.30926 0.12747 0.66652 0.0
O944 O 0.29962 0.14104 0.70021 0.0
O945 O 0.30797 0.17206 0.70258 0.0
O946 O 0.34794 0.19008 0.69228 0.0
O947 O 0.35144 0.19773 0.67202 0.0
O948 O 0.36399 0.16807 0.67857 0.0
O949 O 0.34065 0.15048 0.69189 0.0
C950 C 0.30702 0.17406 0.66204 0.0
O951 O 0.36901 0.18789 0.65357 0.0
O952 O 0.34897 0.15737 0.64635 0.0
C953 C 0.30272 0.15549 0.72089 0.0
C954 C 0.30876 0.15639 0.74718 0.0
C955 C 0.317 0.14814 0.7392 0.0
C956 C 0.3141 0.14779 0.72615 0.0
C957 C 0.29453 0.16376 0.72883 0.0
C958 C 0.29757 0.16427 0.74187 0.0
C959 C 0.29914 0.15501 0.70719 0.0
H960 H 0.39269 0.20394 0.60922 0.0
H961 H 0.39435 0.19655 0.63098 0.0
H962 H 0.33009 0.16558 0.62887 0.0
H963 H 0.32821 0.17201 0.60701 0.0
H964 H 0.32588 0.14217 0.74305 0.0
H965 H 0.32075 0.1415 0.7202 0.0
H966 H 0.28571 0.16977 0.72493 0.0
H967 H 0.2909 0.17057 0.74779 0.0
Tb968 Tb 0.83983 0.15637 0.68725 0.0
Eu969 Eu 0.819 0.16133 0.66091 0.0
C970 C 0.81342 0.1204 0.66762 0.0
C971 C 0.863 0.16696 0.66303 0.0
C972 C 0.8496 0.15236 0.72094 0.0
C973 C 0.82549 0.14373 0.73623 0.0
C974 C 0.82974 0.14338 0.72377 0.0
C975 C 0.86513 0.16178 0.73075 0.0
C976 C 0.86089 0.16222 0.74322 0.0
C977 C 0.84102 0.15315 0.74609 0.0
C978 C 0.85428 0.15218 0.70784 0.0
O979 O 0.83993 0.18417 0.68985 0.0
O980 O 0.84295 0.19154 0.66955 0.0
O981 O 0.79924 0.16035 0.67558 0.0
O982 O 0.80903 0.1462 0.69068 0.0
C983 C 0.84554 0.19721 0.68161 0.0
O984 O 0.81026 0.17829 0.64922 0.0
O985 O 0.80357 0.14889 0.64212 0.0
O986 O 0.8036 0.12921 0.6642 0.0
O987 O 0.83114 0.13058 0.67398 0.0
O988 O 0.86406 0.16924 0.67539 0.0
O989 O 0.84622 0.1606 0.65582 0.0
C990 C 0.7966 0.15154 0.68594 0.0
O991 O 0.84083 0.13748 0.69997 0.0
O992 O 0.86145 0.16902 0.70301 0.0
C993 C 0.81157 0.17216 0.62757 0.0
C994 C 0.82537 0.18169 0.60386 0.0
C995 C 0.83848 0.1835 0.61421 0.0
C996 C 0.83163 0.17879 0.62597 0.0
C997 C 0.79861 0.17093 0.61742 0.0
C998 C 0.80545 0.17571 0.60566 0.0
C999 C 0.80378 0.16503 0.63947 0.0
H1000 H 0.81003 0.13685 0.73811 0.0
H1001 H 0.81748 0.1361 0.71636 0.0
H1002 H 0.88055 0.16881 0.72876 0.0
H1003 H 0.87317 0.16944 0.75063 0.0
H1004 H 0.85395 0.18828 0.61316 0.0
H1005 H 0.84183 0.17983 0.63375 0.0
H1006 H 0.78305 0.16571 0.6185 0.0
H1007 H 0.79494 0.17393 0.59785 0.0
H1008 H 0.29904 0.90104 0.06684 0.0
H1009 H 0.32971 0.92015 0.05694 0.0
H1010 H 0.34282 0.87294 0.05959 0.0
H1011 H 0.31199 0.85363 0.06924 0.0
H1012 H 0.36789 0.93433 0.06552 0.0
H1013 H 0.34848 0.88159 0.02309 0.0
H1014 H 0.3304 0.87925 0.03362 0.0
H1015 H 0.34729 0.8704 0.03738 0.0
C1016 C 0.30849 0.89477 0.06531 0.0
C1017 C 0.30308 0.8758 0.06872 0.0
C1018 C 0.32596 0.90566 0.05963 0.0
C1019 C 0.33836 0.89781 0.05729 0.0
C1020 C 0.33319 0.87905 0.06095 0.0
H1021 H 0.46265 0.96699 0.04368 0.0
H1022 H 0.43125 0.94727 0.05257 0.0
C1023 C 0.31563 0.86807 0.06651 0.0
C1024 C 0.35698 0.9095 0.05137 0.0
H1025 H 0.38243 0.90769 0.02698 0.0
C1026 C 0.37102 0.92856 0.05705 0.0
C1027 C 0.36092 0.90208 0.0402 0.0
C1028 C 0.34588 0.8823 0.03314 0.0
C1029 C 0.38905 0.94026 0.05202 0.0
C1030 C 0.3934 0.93245 0.04119 0.0
C1031 C 0.3792 0.91355 0.03537 0.0
C1032 C 0.41249 0.94376 0.03566 0.0
C1033 C 0.40304 0.961 0.05821 0.0
C1034 C 0.4124 0.94761 0.02303 0.0
C1035 C 0.43034 0.95858 0.01784 0.0
C1036 C 0.44872 0.96597 0.02521 0.0
C1037 C 0.44875 0.96171 0.03778 0.0
C1038 C 0.43081 0.95055 0.04291 0.0
H1039 H 0.39505 0.9667 0.0638 0.0
H1040 H 0.41464 0.96089 0.06474 0.0
H1041 H 0.41056 0.9714 0.05115 0.0
H1042 H 0.39843 0.9424 0.01723 0.0
H1043 H 0.42979 0.9616 0.00813 0.0
H1044 H 0.15195 0.43357 0.05387 0.0
H1045 H 0.12957 0.44367 0.04407 0.0
H1046 H 0.12216 0.46364 0.08065 0.0
H1047 H 0.14498 0.45417 0.0905 0.0
H1048 H 0.08981 0.43076 0.04767 0.0
H1049 H 0.13796 0.51177 0.06093 0.0
H1050 H 0.14724 0.49479 0.06185 0.0
H1051 H 0.1333 0.49712 0.07393 0.0
C1052 C 0.14575 0.44033 0.05982 0.0
C1053 C 0.15033 0.44315 0.07297 0.0
C1054 C 0.13287 0.44597 0.05421 0.0
C1055 C 0.12444 0.45465 0.06163 0.0
C1056 C 0.12878 0.45728 0.07475 0.0
H1057 H 0.02234 0.46742 0.03952 0.0
H1058 H 0.04542 0.45814 0.04918 0.0
C1059 C 0.14164 0.45164 0.08037 0.0
C1060 C 0.11081 0.46062 0.05564 0.0
H1061 H 0.10478 0.50045 0.05211 0.0
C1062 C 0.09309 0.446 0.0486 0.0
C1063 C 0.11527 0.48055 0.05675 0.0
C1064 C 0.13456 0.49702 0.06367 0.0
C1065 C 0.07951 0.45073 0.04281 0.0
C1066 C 0.08366 0.47055 0.04427 0.0
C1067 C 0.10155 0.48523 0.05113 0.0
C1068 C 0.06976 0.47643 0.03859 0.0
C1069 C 0.061 0.43452 0.03502 0.0
C1070 C 0.07598 0.49023 0.0297 0.0
C1071 C 0.06288 0.49568 0.0242 0.0
C1072 C 0.04331 0.4875 0.02756 0.0
C1073 C 0.03724 0.47392 0.03664 0.0
C1074 C 0.05038 0.4685 0.04214 0.0
H1075 H 0.06254 0.4215 0.03221 0.0
H1076 H 0.04812 0.42948 0.04063 0.0
H1077 H 0.05761 0.43999 0.0264 0.0
H1078 H 0.09092 0.4966 0.02689 0.0
H1079 H 0.06807 0.5062 0.01726 0.0
H1080 H 0.57476 0.72171 0.04553 0.0
H1081 H 0.5612 0.68707 0.03739 0.0
H1082 H 0.61607 0.69018 0.05127 0.0
H1083 H 0.6299 0.72497 0.05934 0.0
H1084 H 0.57586 0.6686 0.02035 0.0
H1085 H 0.57217 0.64449 0.06841 0.0
H1086 H 0.57556 0.66841 0.0655 0.0
H1087 H 0.59614 0.66405 0.06523 0.0
C1088 C 0.58411 0.71516 0.04665 0.0
C1089 C 0.60337 0.72606 0.05316 0.0
C1090 C 0.57628 0.69534 0.04205 0.0
C1091 C 0.58753 0.68604 0.04392 0.0
C1092 C 0.60704 0.69704 0.04995 0.0
H1093 H 0.55682 0.56304 0.02995 0.0
H1094 H 0.57406 0.59887 0.03564 0.0
C1095 C 0.61489 0.71688 0.05456 0.0
C1096 C 0.57851 0.66464 0.03995 0.0
H1097 H 0.56264 0.61996 0.05137 0.0
C1098 C 0.57298 0.65793 0.02711 0.0
C1099 C 0.57479 0.65083 0.04883 0.0
C1100 C 0.5798 0.6572 0.06278 0.0
C1101 C 0.56393 0.6377 0.02287 0.0
C1102 C 0.55999 0.62387 0.03176 0.0
C1103 C 0.56571 0.63062 0.04459 0.0
C1104 C 0.54964 0.60227 0.028 0.0
C1105 C 0.55892 0.63136 0.00892 0.0
C1106 C 0.53009 0.59229 0.02197 0.0
C1107 C 0.52019 0.57182 0.01869 0.0
C1108 C 0.52962 0.56094 0.02147 0.0
C1109 C 0.54914 0.57097 0.02764 0.0
C1110 C 0.55903 0.59144 0.0309 0.0
H1111 H 0.5677 0.64385 1.00335 0.0
H1112 H 0.56173 0.6191 1.00628 0.0
H1113 H 0.54286 0.62599 1.00632 0.0
H1114 H 0.52241 0.60032 0.01992 0.0
H1115 H 0.50513 0.56455 0.01401 0.0
H1116 H 0.84335 0.287 0.96294 0.0
H1117 H 0.86701 0.32126 0.97141 0.0
H1118 H 0.91542 0.31562 0.95835 0.0
H1119 H 0.89192 0.28116 0.95003 0.0
H1120 H 0.90281 0.33684 0.98921 0.0
H1121 H 0.91828 0.36411 0.94207 0.0
H1122 H 0.89678 0.34067 0.94431 0.0
H1123 H 0.92102 0.3431 0.94484 0.0
C1124 C 0.85907 0.2929 0.96204 0.0
C1125 C 0.86573 0.28135 0.95575 0.0
C1126 C 0.87253 0.31252 0.96682 0.0
C1127 C 0.89287 0.32099 0.96532 0.0
C1128 C 0.8997 0.3094 0.95938 0.0
H1129 H 0.9909 0.44286 0.98383 0.0
H1130 H 0.97063 0.40766 0.97605 0.0
C1131 C 0.88626 0.28975 0.95463 0.0
C1132 C 0.90682 0.34207 0.96984 0.0
H1133 H 0.93577 0.38748 0.95974 0.0
C1134 C 0.91007 0.34793 0.98279 0.0
C1135 C 0.9163 0.35642 0.9614 0.0
C1136 C 0.91289 0.35089 0.94736 0.0
C1137 C 0.9226 0.36785 0.98757 0.0
C1138 C 0.93169 0.3823 0.97912 0.0
C1139 C 0.92873 0.37637 0.96617 0.0
C1140 C 0.94383 0.40371 0.98353 0.0
C1141 C 0.92614 0.37319 1.00164 0.0
C1142 C 0.93531 0.41325 0.99 0.0
C1143 C 0.94682 0.43329 0.99447 0.0
C1144 C 0.96706 0.44427 0.99245 0.0
C1145 C 0.97538 0.43484 0.98558 0.0
C1146 C 0.96384 0.41472 0.98114 0.0
H1147 H 0.92308 0.36019 1.00677 0.0
H1148 H 0.94174 0.38522 1.00458 0.0
H1149 H 0.91596 0.37844 1.0045 0.0
H1150 H 0.91974 0.40515 0.99164 0.0
H1151 H 0.93986 0.44011 0.99961 0.0
H1152 H 0.69488 0.52862 0.95486 0.0
H1153 H 0.66451 0.5192 0.96498 0.0
H1154 H 0.65845 0.56493 0.94827 0.0
H1155 H 0.68915 0.57493 0.93841 0.0
H1156 H 0.6571 0.54655 0.9818 0.0
H1157 H 0.60352 0.51112 0.93859 0.0
H1158 H 0.62832 0.51449 0.93968 0.0
H1159 H 0.62486 0.53521 0.93767 0.0
C1160 C 0.68724 0.53685 0.95343 0.0
C1161 C 0.69451 0.55256 0.9458 0.0
C1162 C 0.66982 0.53134 0.95916 0.0
C1163 C 0.65921 0.54126 0.95726 0.0
C1164 C 0.66634 0.55693 0.94969 0.0
H1165 H 0.55028 0.53071 0.98001 0.0
H1166 H 0.58051 0.53843 0.97029 0.0
C1167 C 0.68383 0.56256 0.94402 0.0
C1168 C 0.64083 0.53547 0.96339 0.0
H1169 H 0.5904 0.51458 0.95725 0.0
C1170 C 0.64247 0.53946 0.97648 0.0
C1171 C 0.62187 0.52632 0.95636 0.0
C1172 C 0.61937 0.52136 0.9423 0.0
C1173 C 0.62562 0.53498 0.98273 0.0
C1174 C 0.60658 0.52575 0.97572 0.0
C1175 C 0.60498 0.52161 0.96262 0.0
C1176 C 0.58818 0.5208 0.9817 0.0
C1177 C 0.62847 0.54077 0.99673 0.0
C1178 C 0.58226 0.50808 0.99124 0.0
C1179 C 0.56502 0.50375 0.99692 0.0
C1180 C 0.55323 0.51185 0.99303 0.0
C1181 C 0.55899 0.52423 0.98327 0.0
C1182 C 0.57629 0.52866 0.97768 0.0
H1183 H 0.64413 0.55236 1.00001 0.0
H1184 H 0.61846 0.54637 0.99938 0.0
H1185 H 0.62487 0.52758 1.00175 0.0
H1186 H 0.59092 0.50143 0.99427 0.0
H1187 H 0.56092 0.49401 1.00433 0.0
H1188 H 0.40225 0.12638 0.97755 0.0
H1189 H 0.41819 0.10833 0.98538 0.0
H1190 H 0.43021 0.09818 0.94775 0.0
H1191 H 0.41494 0.11677 0.93991 0.0
H1192 H 0.40798 0.06913 0.97849 0.0
H1193 H 0.4849 0.12192 0.96806 0.0
H1194 H 0.46558 0.12832 0.9681 0.0
H1195 H 0.46624 0.11356 0.95483 0.0
C1196 C 0.40849 0.1205 0.97096 0.0
C1197 C 0.4074 0.12309 0.95811 0.0
C1198 C 0.41747 0.1101 0.97544 0.0
C1199 C 0.42563 0.1022 0.96717 0.0
C1200 C 0.42433 0.10449 0.95432 0.0
H1201 H 0.48323 0.03227 0.97661 0.0
H1202 H 0.46788 0.05055 0.96823 0.0
C1203 C 0.41537 0.1149 0.94983 0.0
C1204 C 0.43516 0.09122 0.97195 0.0
H1205 H 0.47919 0.09128 0.9747 0.0
C1206 C 0.42356 0.074 0.97771 0.0
C1207 C 0.45549 0.09762 0.97088 0.0
C1208 C 0.46886 0.11646 0.96524 0.0
C1209 C 0.43169 0.06283 0.98231 0.0
C1210 C 0.45201 0.06926 0.98126 0.0
C1211 C 0.4636 0.08641 0.97545 0.0
C1212 C 0.46159 0.05853 0.98635 0.0
C1213 C 0.4184 0.04408 0.98806 0.0
C1214 C 0.46343 0.05731 0.99933 0.0
C1215 C 0.4722 0.04694 1.00415 0.0
C1216 C 0.47936 0.03764 0.99607 0.0
C1217 C 0.47782 0.03921 0.98308 0.0
C1218 C 0.46907 0.04964 0.97828 0.0
H1219 H 0.40234 0.03869 0.9854 0.0
H1220 H 0.42155 0.03215 0.98513 0.0
H1221 H 0.42131 0.04705 0.99846 0.0
H1222 H 0.45806 0.06439 1.00573 0.0
H1223 H 0.47321 0.04611 0.0142 0.0
H1224 H 0.70253 0.15619 0.96244 0.0
H1225 H 0.67184 0.13737 0.97227 0.0
H1226 H 0.66119 0.08341 0.95159 0.0
H1227 H 0.6923 0.10197 0.94212 0.0
H1228 H 0.63319 0.11454 0.96147 0.0
H1229 H 0.65629 0.06878 0.98744 0.0
H1230 H 0.67377 0.09031 0.98038 0.0
H1231 H 0.6583 0.06705 0.97088 0.0
C1232 C 0.69383 0.14027 0.96011 0.0
C1233 C 0.70001 0.13058 0.95157 0.0
C1234 C 0.67621 0.12957 0.96567 0.0
C1235 C 0.66441 0.10895 0.96283 0.0
C1236 C 0.67029 0.09926 0.95413 0.0
H1237 H 0.5515 0.017 0.98193 0.0
H1238 H 0.58259 0.03746 0.97296 0.0
C1239 C 0.68796 0.10994 0.9486 0.0
C1240 C 0.64579 0.09766 0.96881 0.0
H1241 H 0.62203 0.05946 0.98673 0.0
C1242 C 0.63079 0.10259 0.96707 0.0
C1243 C 0.64275 0.08213 0.97616 0.0
C1244 C 0.6587 0.07685 0.97895 0.0
C1245 C 0.61261 0.09204 0.9722 0.0
C1246 C 0.60947 0.07631 0.97935 0.0
C1247 C 0.62451 0.07151 0.9812 0.0
C1248 C 0.59046 0.06427 0.98472 0.0
C1249 C 0.59668 0.09743 0.96969 0.0
C1250 C 0.58465 0.0726 0.99436 0.0
C1251 C 0.56686 0.06092 0.99958 0.0
C1252 C 0.55462 0.04071 0.99523 0.0
C1253 C 0.56053 0.03249 0.98553 0.0
C1254 C 0.57831 0.04415 0.98038 0.0
H1255 H 0.59995 0.10732 0.96207 0.0
H1256 H 0.58189 0.08388 0.96705 0.0
H1257 H 0.59573 0.10524 0.97837 0.0
H1258 H 0.59398 0.08808 0.99795 0.0
H1259 H 0.56278 0.06771 1.00704 0.0
H1260 H 0.88119 0.58155 0.93746 0.0
H1261 H 0.90539 0.57287 0.94602 0.0
H1262 H 0.85798 0.52112 0.9596 0.0
H1263 H 0.83357 0.5292 0.9506 0.0
H1264 H 0.91444 0.5694 0.97026 0.0
H1265 H 0.88693 0.49796 0.94117 0.0
H1266 H 0.87902 0.51536 0.93746 0.0
H1267 H 0.86789 0.49889 0.94929 0.0
C1268 C 0.87585 0.56814 0.94208 0.0
C1269 C 0.8554 0.55601 0.94327 0.0
C1270 C 0.88973 0.56328 0.94704 0.0
C1271 C 0.88345 0.54617 0.95325 0.0
C1272 C 0.86311 0.53415 0.95459 0.0
H1273 H 0.95281 0.52103 1.00688 0.0
H1274 H 0.93055 0.52991 0.99573 0.0
C1275 C 0.8492 0.53896 0.9496 0.0
C1276 C 0.8983 0.54136 0.95877 0.0
H1277 H 0.91021 0.50488 0.9591 0.0
C1278 C 0.91361 0.55535 0.96775 0.0
C1279 C 0.89739 0.52316 0.95534 0.0
C1280 C 0.88205 0.50806 0.94519 0.0
C1281 C 0.92768 0.5514 0.97366 0.0
C1282 C 0.92613 0.53279 0.97071 0.0
C1283 C 0.91122 0.51904 0.96145 0.0
C1284 C 0.93955 0.52715 0.97737 0.0
C1285 C 0.94414 0.56726 0.98297 0.0
C1286 C 0.95156 0.52202 0.97069 0.0
C1287 C 0.96423 0.51674 0.97703 0.0
C1288 C 0.96502 0.51643 0.99017 0.0
C1289 C 0.95273 0.52129 0.99678 0.0
C1290 C 0.94005 0.52649 0.99044 0.0
H1291 H 0.94676 0.58224 0.98138 0.0
H1292 H 0.93984 0.56442 0.99263 0.0
H1293 H 0.95834 0.56723 0.98238 0.0
H1294 H 0.95127 0.52231 0.96058 0.0
H1295 H 0.97346 0.51304 0.97165 0.0
H1296 H 0.3964 0.27026 0.98317 0.0
H1297 H 0.41109 0.30483 0.99211 0.0
H1298 H 0.41759 0.32352 0.95479 0.0
H1299 H 0.40316 0.28919 0.9458 0.0
H1300 H 0.44915 0.33673 0.98923 0.0
H1301 H 0.3895 0.35056 0.97064 0.0
H1302 H 0.38574 0.32591 0.97113 0.0
H1303 H 0.39826 0.34051 0.95878 0.0
C1304 C 0.40094 0.28174 0.97687 0.0
C1305 C 0.39847 0.27695 0.96377 0.0
C1306 C 0.40925 0.30145 0.98199 0.0
C1307 C 0.4151 0.31666 0.97409 0.0
C1308 C 0.4127 0.31194 0.96103 0.0
H1309 H 0.47635 0.44365 0.97963 0.0
H1310 H 0.4592 0.408 0.97334 0.0
C1311 C 0.40442 0.29229 0.95591 0.0
C1312 C 0.42459 0.33761 0.97945 0.0
H1313 H 0.42065 0.37906 0.97867 0.0
C1314 C 0.44284 0.34596 0.98706 0.0
C1315 C 0.41628 0.34956 0.97658 0.0
C1316 C 0.39627 0.34116 0.96893 0.0
C1317 C 0.4534 0.36619 0.9915 0.0
C1318 C 0.44531 0.37824 0.98837 0.0
C1319 C 0.42685 0.36978 0.98099 0.0
C1320 C 0.456 0.39979 0.99234 0.0
C1321 C 0.47344 0.37466 0.99911 0.0
C1322 C 0.45977 0.40695 1.00512 0.0
C1323 C 0.4696 0.42734 0.00876 0.0
C1324 C 0.47573 0.44091 0.99967 0.0
C1325 C 0.47187 0.43364 0.98687 0.0
C1326 C 0.46205 0.41327 0.98325 0.0
H1327 H 0.47948 0.36446 0.99835 0.0
H1328 H 0.48441 0.3891 0.99601 0.0
H1329 H 0.47186 0.37723 0.00916 0.0
H1330 H 0.45491 0.39677 0.01227 0.0
H1331 H 0.47225 0.43244 0.01869 0.0
H1332 H 0.14457 0.72518 0.04988 0.0
H1333 H 0.12211 0.69053 0.04152 0.0
H1334 H 0.11415 0.67383 0.07928 0.0
H1335 H 0.13674 0.70834 0.08772 0.0
H1336 H 0.12704 0.65776 0.04613 0.0
H1337 H 0.05658 0.64862 0.06212 0.0
H1338 H 0.07832 0.67264 0.0614 0.0
H1339 H 0.07729 0.65835 0.07415 0.0
C1340 C 0.13808 0.71413 0.05641 0.0
C1341 C 0.1424 0.71953 0.06947 0.0
C1342 C 0.12519 0.69437 0.05162 0.0
C1343 C 0.11629 0.6797 0.05979 0.0
C1344 C 0.12054 0.68501 0.07282 0.0
H1345 H 0.03654 0.55162 0.04687 0.0
H1346 H 0.05858 0.58573 0.05647 0.0
C1347 C 0.13344 0.70474 0.07762 0.0
C1348 C 0.10318 0.65872 0.05467 0.0
H1349 H 0.05553 0.61969 0.0531 0.0
C1350 C 0.11139 0.64943 0.04762 0.0
C1351 C 0.08282 0.64791 0.05673 0.0
C1352 C 0.07312 0.65738 0.06392 0.0
C1353 C 0.0998 0.62952 0.0426 0.0
C1354 C 0.07938 0.61877 0.04451 0.0
C1355 C 0.07121 0.62799 0.05168 0.0
C1356 C 0.06611 0.59814 0.03876 0.0
C1357 C 0.10959 0.6201 0.03545 0.0
C1358 C 0.06286 0.59393 0.02564 0.0
C1359 C 0.05036 0.57453 0.02014 0.0
C1360 C 0.04071 0.55895 0.02765 0.0
C1361 C 0.04379 0.56325 0.04082 0.0
C1362 C 0.05635 0.58272 0.04632 0.0
H1363 H 0.12606 0.62837 0.03782 0.0
H1364 H 0.10369 0.60449 0.03745 0.0
H1365 H 0.10642 0.62016 0.02521 0.0
H1366 H 0.06992 0.60569 0.01964 0.0
H1367 H 0.04824 0.57181 0.00997 0.0
H1368 H 0.32784 0.45369 0.09368 0.0
H1369 H 0.35912 0.46396 0.08441 0.0
H1370 H 0.3265 0.44204 0.0475 0.0
H1371 H 0.29519 0.43157 0.05667 0.0
H1372 H 0.37084 0.44127 0.06929 0.0
H1373 H 0.36845 0.49991 0.04384 0.0
H1374 H 0.35301 0.48885 0.05625 0.0
H1375 H 0.34625 0.476 0.04068 0.0
C1376 C 0.32731 0.45088 0.0836 0.0
C1377 C 0.30903 0.44195 0.0759 0.0
C1378 C 0.34519 0.45685 0.07833 0.0
C1379 C 0.34514 0.45409 0.06526 0.0
C1380 C 0.3269 0.44473 0.05758 0.0
H1381 H 0.43086 0.47684 0.0123 0.0
H1382 H 0.40139 0.46766 0.02329 0.0
C1383 C 0.30903 0.43877 0.06284 0.0
C1384 C 0.36411 0.4609 0.05962 0.0
H1385 H 0.39287 0.49158 0.0388 0.0
C1386 C 0.37577 0.45237 0.0627 0.0
C1387 C 0.37048 0.47542 0.05105 0.0
C1388 C 0.35901 0.48574 0.04782 0.0
C1389 C 0.39335 0.45752 0.05711 0.0
C1390 C 0.39955 0.47183 0.04838 0.0
C1391 C 0.38804 0.48057 0.04546 0.0
C1392 C 0.41763 0.47755 0.04188 0.0
C1393 C 0.40477 0.44714 0.06028 0.0
C1394 C 0.43659 0.48644 0.04868 0.0
C1395 C 0.45352 0.49171 0.04242 0.0
C1396 C 0.4518 0.4883 0.02923 0.0
C1397 C 0.43278 0.47969 0.02245 0.0
C1398 C 0.41589 0.47441 0.02872 0.0
H1399 H 0.39559 0.43336 0.0647 0.0
H1400 H 0.41004 0.44333 0.05172 0.0
H1401 H 0.41804 0.45716 0.06701 0.0
H1402 H 0.43832 0.4894 0.05882 0.0
H1403 H 0.46794 0.49848 0.04794 0.0
H1404 H 0.58125 0.88214 0.07512 0.0
H1405 H 0.56601 0.90015 0.06633 0.0
H1406 H 0.58467 0.89393 0.03011 0.0
H1407 H 0.60063 0.87649 0.03895 0.0
H1408 H 0.59232 0.93177 0.03692 0.0
H1409 H 0.51416 0.87648 0.04304 0.0
H1410 H 0.53066 0.88418 0.05733 0.0
H1411 H 0.53409 0.87096 0.04432 0.0
C1412 C 0.5823 0.88476 0.06531 0.0
C1413 C 0.59215 0.87786 0.05773 0.0
C1414 C 0.57333 0.89481 0.06026 0.0
C1415 C 0.57387 0.89801 0.04751 0.0
C1416 C 0.58391 0.89141 0.03994 0.0
H1417 H 0.50333 0.94174 0.00892 0.0
H1418 H 0.51764 0.92151 0.01523 0.0
C1419 C 0.59293 0.88137 0.04499 0.0
C1420 C 0.56446 0.9088 0.0422 0.0
H1421 H 0.52036 0.90845 0.03838 0.0
C1422 C 0.57656 0.92661 0.03714 0.0
C1423 C 0.54383 0.90184 0.04231 0.0
C1424 C 0.52988 0.88222 0.04693 0.0
C1425 C 0.56871 0.93802 0.03258 0.0
C1426 C 0.54831 0.9316 0.03333 0.0
C1427 C 0.53606 0.91345 0.03797 0.0
C1428 C 0.53951 0.94374 0.02958 0.0
C1429 C 0.58232 0.9568 0.02696 0.0
C1430 C 0.54681 0.96276 0.03574 0.0
C1431 C 0.53872 0.97435 0.03216 0.0
C1432 C 0.52303 0.96707 0.02241 0.0
C1433 C 0.51542 0.94781 0.01645 0.0
C1434 C 0.52358 0.93623 0.02003 0.0
H1435 H 0.59555 0.9566 0.02378 0.0
H1436 H 0.57432 0.95906 0.01885 0.0
H1437 H 0.58776 0.96964 0.03419 0.0
H1438 H 0.55878 0.96864 0.04335 0.0
H1439 H 0.54483 0.98905 0.03704 0.0
H1440 H 0.95703 0.20818 0.3818 0.0
H1441 H 0.98881 0.22602 0.37291 0.0
H1442 H 0.02052 0.23885 0.40989 0.0
H1443 H 0.98883 0.22044 0.41881 0.0
H1444 H 0.01918 0.26532 0.37824 0.0
H1445 H 0.04638 0.21386 0.38927 0.0
H1446 H 0.02076 0.20748 0.39002 0.0
H1447 H 0.03956 0.22328 0.4026 0.0
C1448 C 0.97077 0.21463 0.38803 0.0
C1449 C 0.9704 0.21274 0.40101 0.0
C1450 C 0.9889 0.22492 0.38294 0.0
C1451 C 0.007 0.23345 0.39071 0.0
C1452 C 0.00671 0.23203 0.4037 0.0
H1453 H 0.13123 0.30302 0.37783 0.0
H1454 H 0.09959 0.28456 0.38675 0.0
C1455 C 0.98858 0.22172 0.4088 0.0
C1456 C 0.02616 0.244 0.3852 0.0
H1457 H 0.06929 0.24374 0.38137 0.0
C1458 C 0.03011 0.26057 0.37887 0.0
C1459 C 0.04036 0.23773 0.38604 0.0
C1460 C 0.03654 0.21951 0.39225 0.0
C1461 C 0.04806 0.27126 0.37353 0.0
C1462 C 0.06226 0.26501 0.3744 0.0
C1463 C 0.05834 0.24846 0.38073 0.0
C1464 C 0.08136 0.27557 0.36886 0.0
C1465 C 0.05186 0.28939 0.36723 0.0
C1466 C 0.08157 0.27625 0.35581 0.0
C1467 C 0.09962 0.28675 0.35066 0.0
C1468 C 0.1178 0.29672 0.35847 0.0
C1469 C 0.11753 0.29557 0.37153 0.0
C1470 C 0.09947 0.28503 0.37666 0.0
H1471 H 0.0417 0.2948 0.36989 0.0
H1472 H 0.06753 0.30158 0.36969 0.0
H1473 H 0.04938 0.28565 0.35687 0.0
H1474 H 0.06775 0.26873 0.34962 0.0
H1475 H 0.09928 0.28726 0.34057 0.0
H1476 H 0.80755 0.78825 0.42668 0.0
H1477 H 0.78378 0.79677 0.41707 0.0
H1478 H 0.79379 0.78056 0.3802 0.0
H1479 H 0.81704 0.77137 0.38972 0.0
H1480 H 0.79034 0.82479 0.40038 0.0
H1481 H 0.73305 0.74944 0.37895 0.0
H1482 H 0.75276 0.75372 0.39078 0.0
H1483 H 0.75765 0.75725 0.37467 0.0
C1484 C 0.80449 0.78623 0.41653 0.0
C1485 C 0.81412 0.77901 0.40897 0.0
C1486 C 0.79101 0.79124 0.41106 0.0
C1487 C 0.7868 0.78902 0.39794 0.0
C1488 C 0.79653 0.78203 0.39036 0.0
H1489 H 0.71645 0.81458 0.34504 0.0
H1490 H 0.73894 0.80553 0.35579 0.0
C1491 C 0.81 0.77701 0.39582 0.0
C1492 C 0.77262 0.79449 0.39216 0.0
H1493 H 0.72936 0.77622 0.3727 0.0
C1494 C 0.77692 0.81415 0.3944 0.0
C1495 C 0.75512 0.78056 0.38439 0.0
C1496 C 0.74922 0.75901 0.38213 0.0
C1497 C 0.76446 0.8204 0.38879 0.0
C1498 C 0.74712 0.80652 0.38088 0.0
C1499 C 0.74271 0.78682 0.37875 0.0
C1500 C 0.73354 0.81223 0.37451 0.0
C1501 C 0.77023 0.8419 0.39108 0.0
C1502 C 0.72291 0.81883 0.3815 0.0
C1503 C 0.71 0.82402 0.37538 0.0
C1504 C 0.70745 0.82264 0.36216 0.0
C1505 C 0.71807 0.81589 0.35522 0.0
C1506 C 0.73092 0.81068 0.36134 0.0
H1507 H 0.78609 0.85143 0.39503 0.0
H1508 H 0.7678 0.84746 0.38223 0.0
H1509 H 0.76077 0.84337 0.3979 0.0
H1510 H 0.72447 0.8198 0.39167 0.0
H1511 H 0.70199 0.82905 0.38103 0.0
H1512 H 0.25507 0.03892 0.40968 0.0
H1513 H 0.24055 0.0044 0.40099 0.0
H1514 H 0.2521 0.02283 0.36381 0.0
H1515 H 0.26733 0.05752 0.37249 0.0
H1516 H 0.2077 0.98335 0.38311 0.0
H1517 H 0.27509 0.98602 0.36637 0.0
H1518 H 0.27648 0.00536 0.3772 0.0
H1519 H 0.26965 0.00413 0.36069 0.0
C1520 C 0.25489 0.03569 0.39969 0.0
C1521 C 0.26249 0.05101 0.39179 0.0
C1522 C 0.24644 0.01594 0.39473 0.0
C1523 C 0.24547 0.01109 0.38179 0.0
C1524 C 0.25302 0.02629 0.37386 0.0
H1525 H 0.19393 0.89794 0.3357 0.0
H1526 H 0.2095 0.93312 0.34328 0.0
C1527 C 0.26152 0.04608 0.37882 0.0
C1528 C 0.23582 0.99003 0.3766 0.0
H1529 H 0.24429 0.95617 0.36084 0.0
C1530 C 0.2157 0.97739 0.37827 0.0
C1531 C 0.2463 0.98234 0.37025 0.0
C1532 C 0.26812 0.99509 0.36859 0.0
C1533 C 0.20573 0.95725 0.37369 0.0
C1534 C 0.21625 0.94953 0.36744 0.0
C1535 C 0.2363 0.96219 0.36564 0.0
C1536 C 0.20678 0.92824 0.3629 0.0
C1537 C 0.18395 0.94444 0.37543 0.0
C1538 C 0.20032 0.91392 0.37145 0.0
C1539 C 0.19144 0.89383 0.36717 0.0
C1540 C 0.18892 0.88771 0.35425 0.0
C1541 C 0.19557 0.90214 0.34571 0.0
C1542 C 0.2045 0.92224 0.35001 0.0
H1543 H 0.17689 0.95347 0.37754 0.0
H1544 H 0.17559 0.93399 0.36689 0.0
H1545 H 0.18254 0.9356 0.38342 0.0
H1546 H 0.20228 0.91831 0.38146 0.0
H1547 H 0.18659 0.88312 0.37401 0.0
H1548 H 0.50544 0.62175 0.29431 0.0
H1549 H 0.52822 0.65566 0.30374 0.0
H1550 H 0.57737 0.65407 0.28836 0.0
H1551 H 0.55482 0.61982 0.27929 0.0
H1552 H 0.58653 0.67069 0.31321 0.0
H1553 H 0.55181 0.70423 0.28423 0.0
H1554 H 0.53457 0.68481 0.29272 0.0
H1555 H 0.54648 0.67913 0.28062 0.0
C1556 C 0.52113 0.6285 0.29305 0.0
C1557 C 0.52829 0.61807 0.28599 0.0
C1558 C 0.53408 0.64798 0.29832 0.0
C1559 C 0.5544 0.65749 0.29655 0.0
C1560 C 0.5617 0.64704 0.28974 0.0
H1561 H 0.63728 0.78417 0.30895 0.0
H1562 H 0.61603 0.74964 0.30016 0.0
C1563 C 0.54876 0.62752 0.28449 0.0
C1564 C 0.56805 0.67835 0.30182 0.0
H1565 H 0.57598 0.72527 0.30112 0.0
C1566 C 0.58428 0.68265 0.31055 0.0
C1567 C 0.56523 0.69394 0.29819 0.0
C1568 C 0.5487 0.69039 0.28834 0.0
C1569 C 0.59761 0.70213 0.31592 0.0
C1570 C 0.59437 0.71762 0.31261 0.0
C1571 C 0.57832 0.71334 0.30373 0.0
C1572 C 0.6076 0.73844 0.3181 0.0
C1573 C 0.61521 0.70598 0.3249 0.0
C1574 C 0.60978 0.74363 0.33111 0.0
C1575 C 0.62198 0.76336 0.33619 0.0
C1576 C 0.63208 0.77831 0.32833 0.0
C1577 C 0.62973 0.77306 0.31529 0.0
C1578 C 0.61759 0.75332 0.31023 0.0
H1579 H 0.61855 0.69376 0.32381 0.0
H1580 H 0.62876 0.72008 0.32346 0.0
H1581 H 0.61177 0.70715 0.3347 0.0
H1582 H 0.60185 0.73244 0.33733 0.0
H1583 H 0.62335 0.76691 0.34627 0.0
H1584 H 0.37075 0.89443 0.29627 0.0
H1585 H 0.33988 0.88435 0.3059 0.0
H1586 H 0.3067 0.86701 0.26913 0.0
H1587 H 0.33754 0.87693 0.25939 0.0
H1588 H 0.29693 0.88965 0.28555 0.0
H1589 H 0.29564 0.82708 0.30818 0.0
H1590 H 0.31855 0.85028 0.31186 0.0
H1591 H 0.31132 0.83861 0.29596 0.0
C1592 C 0.35687 0.88828 0.29022 0.0
C1593 C 0.3566 0.88633 0.27706 0.0
C1594 C 0.33924 0.88254 0.29574 0.0
C1595 C 0.32096 0.87461 0.28823 0.0
C1596 C 0.32065 0.873 0.27509 0.0
H1597 H 0.19877 0.83293 0.30483 0.0
H1598 H 0.22886 0.84225 0.29447 0.0
C1599 C 0.3383 0.87876 0.26955 0.0
C1600 C 0.30223 0.86826 0.2941 0.0
H1601 H 0.27227 0.8364 0.31401 0.0
C1602 C 0.29144 0.87792 0.29171 0.0
C1603 C 0.29514 0.85297 0.30214 0.0
C1604 C 0.30564 0.84148 0.30462 0.0
C1605 C 0.274 0.87303 0.29739 0.0
C1606 C 0.26699 0.85783 0.3055 0.0
C1607 C 0.27771 0.84808 0.30782 0.0
C1608 C 0.24866 0.85192 0.31177 0.0
C1609 C 0.26351 0.88454 0.29493 0.0
C1610 C 0.2497 0.85372 0.32494 0.0
C1611 C 0.2325 0.84828 0.33092 0.0
C1612 C 0.21388 0.84082 0.32382 0.0
C1613 C 0.21285 0.83872 0.31061 0.0
C1614 C 0.23007 0.84416 0.30465 0.0
H1615 H 0.27339 0.89878 0.29117 0.0
H1616 H 0.25037 0.8756 0.28787 0.0
H1617 H 0.25816 0.88771 0.30366 0.0
H1618 H 0.2639 0.85956 0.33061 0.0
H1619 H 0.23386 0.85007 0.3411 0.0
H1620 H 0.09688 0.47481 0.30217 0.0
H1621 H 0.11274 0.45664 0.30978 0.0
H1622 H 0.06302 0.40192 0.29166 0.0
H1623 H 0.04663 0.41986 0.28442 0.0
H1624 H 0.07486 0.39856 0.31571 0.0
H1625 H 0.13991 0.43433 0.28835 0.0
H1626 H 0.13656 0.45168 0.29809 0.0
H1627 H 0.11793 0.43635 0.28529 0.0
C1628 C 0.08918 0.45887 0.29993 0.0
C1629 C 0.0705 0.44879 0.29265 0.0
C1630 C 0.0984 0.44856 0.30414 0.0
C1631 C 0.08924 0.42801 0.30106 0.0
C1632 C 0.07042 0.41782 0.29403 0.0
H1633 H 0.14716 0.358 0.30952 0.0
H1634 H 0.13042 0.37506 0.30126 0.0
C1635 C 0.06115 0.42811 0.28984 0.0
C1636 C 0.09916 0.4171 0.30533 0.0
H1637 H 0.14168 0.41475 0.30403 0.0
C1638 C 0.08943 0.40202 0.31311 0.0
C1639 C 0.11801 0.42145 0.30175 0.0
C1640 C 0.12865 0.4367 0.29281 0.0
C1641 C 0.09827 0.39146 0.31768 0.0
C1642 C 0.11752 0.39642 0.31456 0.0
C1643 C 0.12703 0.41116 0.30652 0.0
C1644 C 0.12804 0.38648 0.31957 0.0
C1645 C 0.08683 0.37494 0.32568 0.0
C1646 C 0.13261 0.38763 0.33258 0.0
C1647 C 0.14211 0.37787 0.33733 0.0
C1648 C 0.14739 0.36693 0.32914 0.0
C1649 C 0.14328 0.36627 0.31608 0.0
C1650 C 0.1337 0.37599 0.31135 0.0
H1651 H 0.07055 0.36944 0.32427 0.0
H1652 H 0.08928 0.36231 0.32352 0.0
H1653 H 0.09204 0.38056 0.33574 0.0
H1654 H 0.1288 0.39605 0.33907 0.0
H1655 H 0.1452 0.37883 0.34743 0.0
H1656 H 0.34949 0.4546 0.26774 0.0
H1657 H 0.31864 0.43572 0.27746 0.0
H1658 H 0.35288 0.44687 0.31333 0.0
H1659 H 0.38383 0.46531 0.30362 0.0
H1660 H 0.32254 0.4074 0.30744 0.0
H1661 H 0.29412 0.45913 0.301 0.0
H1662 H 0.30038 0.45112 0.28681 0.0
H1663 H 0.31968 0.46596 0.29937 0.0
C1664 C 0.35046 0.4529 0.27767 0.0
C1665 C 0.36911 0.46152 0.28492 0.0
C1666 C 0.33282 0.44231 0.28324 0.0
C1667 C 0.33349 0.44022 0.29615 0.0
C1668 C 0.35206 0.44849 0.30337 0.0
H1669 H 0.23329 0.39696 0.34132 0.0
H1670 H 0.26484 0.41711 0.33255 0.0
C1671 C 0.3697 0.4591 0.29782 0.0
C1672 C 0.31484 0.42902 0.30208 0.0
H1673 H 0.27163 0.42795 0.30781 0.0
C1674 C 0.31144 0.41192 0.30757 0.0
C1675 C 0.30053 0.43514 0.30239 0.0
C1676 C 0.30388 0.45394 0.29719 0.0
C1677 C 0.29386 0.40048 0.31312 0.0
C1678 C 0.27922 0.40618 0.31299 0.0
C1679 C 0.28282 0.42354 0.30778 0.0
C1680 C 0.25996 0.39415 0.31812 0.0
C1681 C 0.29119 0.38249 0.31915 0.0
C1682 C 0.24665 0.37473 0.31274 0.0
C1683 C 0.22865 0.36318 0.3177 0.0
C1684 C 0.22358 0.37088 0.32813 0.0
C1685 C 0.23676 0.39054 0.33332 0.0
C1686 C 0.25479 0.40208 0.32833 0.0
H1687 H 0.30566 0.38311 0.32136 0.0
H1688 H 0.28398 0.38103 0.32796 0.0
H1689 H 0.28145 0.369 0.31257 0.0
H1690 H 0.25018 0.36848 0.30468 0.0
H1691 H 0.21878 0.34819 0.31337 0.0
H1692 H 0.50136 0.85913 0.26807 0.0
H1693 H 0.52547 0.85028 0.2767 0.0
H1694 H 0.56142 0.90935 0.29582 0.0
H1695 H 0.53779 0.91845 0.28668 0.0
H1696 H 0.58446 0.89801 0.28603 0.0
H1697 H 0.53081 0.83718 0.31146 0.0
H1698 H 0.52327 0.83309 0.29488 0.0
H1699 H 0.5246 0.85381 0.30412 0.0
C1700 C 0.5144 0.87015 0.27416 0.0
C1701 C 0.5177 0.8894 0.27681 0.0
C1702 C 0.5281 0.86508 0.27914 0.0
C1703 C 0.54505 0.879 0.28717 0.0
C1704 C 0.54844 0.89832 0.2897 0.0
H1705 H 0.61368 0.8507 0.33935 0.0
H1706 H 0.59109 0.8594 0.32848 0.0
C1707 C 0.53494 0.90351 0.28451 0.0
C1708 C 0.55934 0.87355 0.29288 0.0
H1709 H 0.5626 0.84019 0.31055 0.0
C1710 C 0.5797 0.88541 0.29144 0.0
C1711 C 0.55317 0.85724 0.30008 0.0
C1712 C 0.53181 0.84473 0.30285 0.0
C1713 C 0.59406 0.88152 0.29703 0.0
C1714 C 0.58779 0.86482 0.30387 0.0
C1715 C 0.56741 0.85288 0.30522 0.0
C1716 C 0.60209 0.86 0.31034 0.0
C1717 C 0.6158 0.89577 0.29591 0.0
C1718 C 0.61586 0.85738 0.30379 0.0
C1719 C 0.62915 0.85279 0.31009 0.0
C1720 C 0.62848 0.85019 0.32296 0.0
C1721 C 0.61448 0.85248 0.32942 0.0
C1722 C 0.60154 0.85746 0.3232 0.0
H1723 H 0.61835 0.9105 0.2937 0.0
H1724 H 0.62526 0.89787 0.30473 0.0
H1725 H 0.62073 0.88979 0.28815 0.0
H1726 H 0.61621 0.85868 0.2938 0.0
H1727 H 0.63965 0.8509 0.30485 0.0
H1728 H 0.06394 0.59783 0.31635 0.0
H1729 H 0.07935 0.63261 0.32492 0.0
H1730 H 0.08269 0.64999 0.2873 0.0
H1731 H 0.06807 0.61549 0.27866 0.0
H1732 H 0.11796 0.67249 0.30271 0.0
H1733 H 0.05378 0.66739 0.32578 0.0
H1734 H 0.06157 0.65035 0.33034 0.0
H1735 H 0.05127 0.64808 0.31443 0.0
C1736 C 0.068 0.60907 0.3099 0.0
C1737 C 0.06466 0.60386 0.29681 0.0
C1738 C 0.0766 0.6289 0.31482 0.0
C1739 C 0.0819 0.64382 0.30674 0.0
C1740 C 0.07858 0.63867 0.29369 0.0
H1741 H 0.11067 0.7651 0.32066 0.0
H1742 H 0.09569 0.72963 0.31438 0.0
C1743 C 0.07005 0.61891 0.28877 0.0
C1744 C 0.0915 0.66494 0.31177 0.0
H1745 H 0.08397 0.69823 0.32906 0.0
C1746 C 0.11057 0.67813 0.3085 0.0
C1747 C 0.08171 0.67223 0.31922 0.0
C1748 C 0.06088 0.65885 0.32258 0.0
C1749 C 0.1201 0.69849 0.31241 0.0
C1750 C 0.11042 0.70576 0.32 0.0
C1751 C 0.09139 0.69255 0.32332 0.0
C1752 C 0.11946 0.72714 0.32412 0.0
C1753 C 0.14017 0.7121 0.30808 0.0
C1754 C 0.13767 0.73743 0.33181 0.0
C1755 C 0.14635 0.75774 0.33537 0.0
C1756 C 0.13685 0.76807 0.33137 0.0
C1757 C 0.11841 0.75762 0.32387 0.0
C1758 C 0.1098 0.73734 0.32029 0.0
H1759 H 0.14327 0.70494 0.29995 0.0
H1760 H 0.14109 0.72598 0.30536 0.0
H1761 H 0.15203 0.71611 0.31589 0.0
H1762 H 0.14517 0.72974 0.33507 0.0
H1763 H 0.16047 0.76532 0.34125 0.0
H1764 H 0.78208 0.05609 0.40144 0.0
H1765 H 0.75974 0.02181 0.39234 0.0
H1766 H 0.80991 0.01911 0.37961 0.0
H1767 H 0.83243 0.05307 0.38906 0.0
H1768 H 0.75279 0.00465 0.3675 0.0
H1769 H 0.78376 0.97119 0.39966 0.0
H1770 H 0.7891 0.9964 0.40263 0.0
H1771 H 0.80203 0.99032 0.39147 0.0
C1772 C 0.78839 0.04814 0.3968 0.0
C1773 C 0.80907 0.05728 0.39606 0.0
C1774 C 0.77558 0.02862 0.39153 0.0
C1775 C 0.78322 0.01784 0.38549 0.0
C1776 C 0.80376 0.02706 0.38444 0.0
H1777 H 0.73142 0.89809 0.34937 0.0
H1778 H 0.75336 0.93299 0.35726 0.0
C1779 C 0.81658 0.04655 0.38972 0.0
C1780 C 0.7697 0.99694 0.3803 0.0
H1781 H 0.7604 0.94981 0.38259 0.0
C1782 C 0.75438 0.99263 0.37082 0.0
C1783 C 0.77184 0.98132 0.38468 0.0
C1784 C 0.78745 0.98495 0.39525 0.0
C1785 C 0.74131 0.97312 0.36543 0.0
C1786 C 0.74352 0.95753 0.36978 0.0
C1787 C 0.75883 0.96184 0.37926 0.0
C1788 C 0.73001 0.9366 0.36469 0.0
C1789 C 0.72551 0.96935 0.35497 0.0
C1790 C 0.70966 0.92706 0.36636 0.0
C1791 C 0.69708 0.9071 0.36189 0.0
C1792 C 0.70467 0.89632 0.35571 0.0
C1793 C 0.72509 0.90595 0.35407 0.0
C1794 C 0.73765 0.92589 0.35857 0.0
H1795 H 0.72881 0.98313 0.35071 0.0
H1796 H 0.7241 0.95817 0.34748 0.0
H1797 H 0.71091 0.9635 0.35881 0.0
H1798 H 0.70356 0.93498 0.37128 0.0
H1799 H 0.68145 0.90012 0.36335 0.0
H1800 H 0.98967 0.77874 0.42595 0.0
H1801 H 0.02009 0.78728 0.41605 0.0
H1802 H 0.99002 0.78406 0.38003 0.0
H1803 H 0.95935 0.77489 0.3897 0.0
H1804 H 0.02341 0.76381 0.39336 0.0
H1805 H 0.04285 0.84116 0.38663 0.0
H1806 H 0.027 0.82746 0.39829 0.0
H1807 H 0.01742 0.82192 0.38198 0.0
C1808 C 0.9894 0.77959 0.4159 0.0
C1809 C 0.97202 0.77619 0.40865 0.0
C1810 C 0.00685 0.7846 0.41028 0.0
C1811 C 0.00729 0.78649 0.39736 0.0
C1812 C 0.99 0.78293 0.39006 0.0
H1813 H 0.09709 0.82219 0.34549 0.0
H1814 H 0.06743 0.81346 0.35625 0.0
C1815 C 0.97252 0.77778 0.39563 0.0
C1816 C 0.02581 0.79209 0.39145 0.0
H1817 H 0.06269 0.82962 0.37777 0.0
C1818 C 0.03211 0.77821 0.39 0.0
C1819 C 0.03694 0.81084 0.38702 0.0
C1820 C 0.03088 0.82633 0.38859 0.0
C1821 C 0.04911 0.78245 0.38396 0.0
C1822 C 0.06038 0.8013 0.37959 0.0
C1823 C 0.05408 0.81521 0.38113 0.0
C1824 C 0.07857 0.8068 0.37321 0.0
C1825 C 0.05443 0.76647 0.38198 0.0
C1826 C 0.09486 0.80632 0.37925 0.0
C1827 C 0.11177 0.81113 0.37308 0.0
C1828 C 0.11285 0.81683 0.36082 0.0
C1829 C 0.09675 0.81785 0.35493 0.0
C1830 C 0.07977 0.81286 0.36106 0.0
H1831 H 0.04142 0.7515 0.38255 0.0
H1832 H 0.06009 0.76665 0.3727 0.0
H1833 H 0.0663 0.76902 0.38942 0.0
H1834 H 0.09452 0.80225 0.38876 0.0
H1835 H 0.12401 0.81044 0.37796 0.0
H1836 H 0.26679 0.20368 0.37154 0.0
H1837 H 0.25138 0.22171 0.36282 0.0
H1838 H 0.23988 0.23483 0.39999 0.0
H1839 H 0.25463 0.21635 0.40873 0.0
H1840 H 0.20702 0.22077 0.38181 0.0
H1841 H 0.27567 0.28223 0.36618 0.0
H1842 H 0.26985 0.2577 0.36041 0.0
H1843 H 0.27639 0.26566 0.37696 0.0
C1844 C 0.26091 0.21035 0.37785 0.0
C1845 C 0.26205 0.20869 0.39084 0.0
C1846 C 0.25228 0.22078 0.37286 0.0
C1847 C 0.24473 0.22979 0.38079 0.0
C1848 C 0.24574 0.22807 0.39373 0.0
H1849 H 0.21535 0.32019 0.36921 0.0
H1850 H 0.22911 0.29975 0.37582 0.0
C1851 C 0.25434 0.21765 0.39872 0.0
C1852 C 0.23547 0.24081 0.37565 0.0
H1853 H 0.24549 0.28189 0.36105 0.0
C1854 C 0.21538 0.2341 0.37722 0.0
C1855 C 0.24651 0.25826 0.36979 0.0
C1856 C 0.26835 0.26654 0.3683 0.0
C1857 C 0.20604 0.24448 0.37315 0.0
C1858 C 0.21704 0.26185 0.36719 0.0
C1859 C 0.23709 0.26848 0.36555 0.0
C1860 C 0.20833 0.27392 0.36314 0.0
C1861 C 0.18468 0.23712 0.37558 0.0
C1862 C 0.1921 0.26616 0.35378 0.0
C1863 C 0.18411 0.27779 0.34999 0.0
C1864 C 0.19233 0.29743 0.35545 0.0
C1865 C 0.20863 0.30513 0.36481 0.0
C1866 C 0.21656 0.29349 0.36858 0.0
H1867 H 0.17984 0.22625 0.38266 0.0
H1868 H 0.18265 0.24964 0.37893 0.0
H1869 H 0.17478 0.22971 0.3667 0.0
H1870 H 0.18575 0.25117 0.34932 0.0
H1871 H 0.17164 0.27145 0.34271 0.0
H1872 H 0.62089 0.53766 0.71518 0.0
H1873 H 0.65259 0.55567 0.70624 0.0
H1874 H 0.68452 0.56722 0.74303 0.0
H1875 H 0.65289 0.54859 0.75198 0.0
H1876 H 0.68316 0.59464 0.71175 0.0
H1877 H 0.7099 0.5425 0.7218 0.0
H1878 H 0.68437 0.5363 0.72279 0.0
H1879 H 0.70341 0.5518 0.73535 0.0
C1880 C 0.63465 0.54386 0.72136 0.0
C1881 C 0.63435 0.54153 0.73428 0.0
C1882 C 0.65275 0.55425 0.71625 0.0
C1883 C 0.67089 0.56246 0.72393 0.0
C1884 C 0.67068 0.56064 0.73688 0.0
H1885 H 0.79495 0.63197 0.7107 0.0
H1886 H 0.76339 0.61348 0.7197 0.0
C1887 C 0.65258 0.55021 0.74201 0.0
C1888 C 0.69001 0.57304 0.71838 0.0
H1889 H 0.7329 0.57253 0.71409 0.0
C1890 C 0.69401 0.58977 0.71221 0.0
C1891 C 0.7041 0.56662 0.71899 0.0
C1892 C 0.70021 0.54822 0.72498 0.0
C1893 C 0.7119 0.60046 0.70681 0.0
C1894 C 0.72599 0.59406 0.70745 0.0
C1895 C 0.72203 0.57736 0.71363 0.0
C1896 C 0.74504 0.60463 0.70186 0.0
C1897 C 0.71576 0.61873 0.70066 0.0
C1898 C 0.74515 0.6054 0.68881 0.0
C1899 C 0.76316 0.61591 0.68361 0.0
C1900 C 0.78138 0.62582 0.69138 0.0
C1901 C 0.7812 0.62458 0.70443 0.0
C1902 C 0.76319 0.61402 0.70961 0.0
H1903 H 0.70563 0.62414 0.70342 0.0
H1904 H 0.73144 0.63086 0.70317 0.0
H1905 H 0.71328 0.61517 0.69029 0.0
H1906 H 0.73129 0.59795 0.68266 0.0
H1907 H 0.76275 0.6165 0.67353 0.0
H1908 H 0.50304 0.13437 0.73141 0.0
H1909 H 0.47964 0.14337 0.72184 0.0
H1910 H 0.4315 0.09622 0.7383 0.0
H1911 H 0.45462 0.08672 0.74765 0.0
H1912 H 0.44273 0.11687 0.70502 0.0
H1913 H 0.42986 0.14788 0.74921 0.0
H1914 H 0.45139 0.14505 0.74799 0.0
H1915 H 0.42748 0.12381 0.74932 0.0
C1916 C 0.48745 0.12577 0.73291 0.0
C1917 C 0.48074 0.10984 0.74034 0.0
C1918 C 0.47414 0.13103 0.7275 0.0
C1919 C 0.45394 0.1206 0.72951 0.0
C1920 C 0.44712 0.10465 0.73683 0.0
H1921 H 0.35143 0.13196 0.70619 0.0
H1922 H 0.37459 0.12293 0.71609 0.0
C1923 C 0.46038 0.09929 0.74219 0.0
C1924 C 0.43991 0.12616 0.72371 0.0
H1925 H 0.41038 0.14548 0.73061 0.0
C1926 C 0.43568 0.12319 0.71058 0.0
C1927 C 0.43069 0.13425 0.73104 0.0
C1928 C 0.43512 0.13811 0.74517 0.0
C1929 C 0.42222 0.12786 0.70457 0.0
C1930 C 0.41317 0.13621 0.71188 0.0
C1931 C 0.41737 0.13911 0.72503 0.0
C1932 C 0.39933 0.14207 0.70606 0.0
C1933 C 0.41746 0.12335 0.69047 0.0
C1934 C 0.40569 0.15614 0.69733 0.0
C1935 C 0.39248 0.16124 0.69159 0.0
C1936 C 0.37269 0.15255 0.6946 0.0
C1937 C 0.36654 0.1389 0.70363 0.0
C1938 C 0.37975 0.13371 0.7093 0.0
H1939 H 0.42099 0.11199 0.6868 0.0
H1940 H 0.40147 0.118 0.68759 0.0
H1941 H 0.42659 0.13706 0.68598 0.0
H1942 H 0.4209 0.16317 0.69494 0.0
H1943 H 0.3978 0.17197 0.68478 0.0
H1944 H 0.92023 0.36913 0.74152 0.0
H1945 H 0.9057 0.33474 0.73256 0.0
H1946 H 0.91736 0.35393 0.69555 0.0
H1947 H 0.93255 0.38851 0.70451 0.0
H1948 H 0.87279 0.31416 0.7144 0.0
H1949 H 0.94043 0.31697 0.69793 0.0
H1950 H 0.94173 0.33602 0.70899 0.0
H1951 H 0.93513 0.33532 0.69251 0.0
C1952 C 0.92007 0.36609 0.73151 0.0
C1953 C 0.92768 0.38158 0.72374 0.0
C1954 C 0.91161 0.34642 0.72639 0.0
C1955 C 0.91067 0.34183 0.71342 0.0
C1956 C 0.91825 0.3572 0.70562 0.0
H1957 H 0.86005 0.22853 0.66741 0.0
H1958 H 0.87532 0.26375 0.67479 0.0
C1959 C 0.92673 0.37692 0.71073 0.0
C1960 C 0.90102 0.32086 0.70808 0.0
H1961 H 0.90973 0.28708 0.69245 0.0
C1962 C 0.88085 0.30821 0.70961 0.0
C1963 C 0.9116 0.31322 0.7018 0.0
C1964 C 0.93346 0.32601 0.70027 0.0
C1965 C 0.87093 0.2881 0.70499 0.0
C1966 C 0.88156 0.2804 0.69886 0.0
C1967 C 0.90165 0.29308 0.69716 0.0
C1968 C 0.87221 0.2591 0.69441 0.0
C1969 C 0.84909 0.27529 0.70659 0.0
C1970 C 0.86562 0.24489 0.70304 0.0
C1971 C 0.8569 0.22478 0.69888 0.0
C1972 C 0.85468 0.21852 0.686 0.0
C1973 C 0.86145 0.23283 0.67739 0.0
C1974 C 0.87021 0.25296 0.68158 0.0
H1975 H 0.84197 0.28432 0.7085 0.0
H1976 H 0.84088 0.26472 0.69807 0.0
H1977 H 0.84756 0.26659 0.71467 0.0
H1978 H 0.86737 0.24938 0.71302 0.0
H1979 H 0.85196 0.21417 0.70577 0.0
H1980 H 0.2231 0.94407 0.6192 0.0
H1981 H 0.24608 0.97817 0.6284 0.0
H1982 H 0.19674 0.98206 0.6415 0.0
H1983 H 0.17364 0.94814 0.63221 0.0
H1984 H 0.24422 0.01171 0.62194 0.0
H1985 H 0.23801 0.00308 0.67278 0.0
H1986 H 0.23017 0.98233 0.66105 0.0
H1987 H 0.21449 0.99281 0.66329 0.0
C1988 C 0.21715 0.95217 0.62408 0.0
C1989 C 0.19653 0.94339 0.62498 0.0
C1990 C 0.2303 0.97159 0.62937 0.0
C1991 C 0.22312 0.98251 0.63575 0.0
C1992 C 0.20262 0.97372 0.63685 0.0
H1993 H 0.26939 0.10276 0.66774 0.0
H1994 H 0.24929 0.06757 0.66012 0.0
C1995 C 0.18945 0.95432 0.63154 0.0
C1996 C 0.23682 0.00354 0.64053 0.0
H1997 H 0.25408 0.03611 0.66711 0.0
C1998 C 0.24656 0.01706 0.63183 0.0
C1999 C 0.23972 0.0104 0.65342 0.0
C2000 C 0.2302 0.99639 0.66321 0.0
C2001 C 0.25871 0.0374 0.63563 0.0
C2002 C 0.26144 0.0443 0.64851 0.0
C2003 C 0.25191 0.03075 0.65723 0.0
C2004 C 0.27379 0.06561 0.65309 0.0
C2005 C 0.26797 0.0514 0.62578 0.0
C2006 C 0.29426 0.07611 0.65175 0.0
C2007 C 0.30579 0.09625 0.65604 0.0
C2008 C 0.29706 0.1062 0.66185 0.0
C2009 C 0.27658 0.09557 0.66329 0.0
C2010 C 0.26507 0.07545 0.65897 0.0
H2011 H 0.26056 0.04441 0.61617 0.0
H2012 H 0.26715 0.06506 0.6277 0.0
H2013 H 0.28393 0.05576 0.62595 0.0
H2014 H 0.30134 0.06868 0.64745 0.0
H2015 H 0.32155 0.10397 0.65486 0.0
H2016 H 0.02173 0.24408 0.60552 0.0
H2017 H 0.99078 0.23375 0.61513 0.0
H2018 H 0.99318 0.18378 0.62808 0.0
H2019 H 0.02359 0.19345 0.61803 0.0
H2020 H 0.956 0.17344 0.61779 0.0
H2021 H 0.98572 0.23993 0.65236 0.0
H2022 H 0.98864 0.2456 0.63637 0.0
H2023 H 0.00165 0.23443 0.64351 0.0
C2024 C 0.01559 0.23079 0.61031 0.0
C2025 C 0.02525 0.21966 0.61106 0.0
C2026 C 0.99803 0.22505 0.61594 0.0
C2027 C 0.98988 0.20821 0.62253 0.0
C2028 C 0.99931 0.19693 0.62314 0.0
H2029 H 0.90002 0.17777 0.67449 0.0
H2030 H 0.93048 0.18706 0.66453 0.0
C2031 C 0.0168 0.20258 0.61747 0.0
C2032 C 0.97133 0.20208 0.6286 0.0
H2033 H 0.9507 0.21765 0.65052 0.0
C2034 C 0.95485 0.18308 0.62497 0.0
C2035 C 0.96995 0.21457 0.6381 0.0
C2036 C 0.98748 0.23469 0.64292 0.0
C2037 C 0.93694 0.17632 0.63046 0.0
C2038 C 0.93534 0.18907 0.63964 0.0
C2039 C 0.9519 0.20797 0.64339 0.0
C2040 C 0.91669 0.18304 0.64558 0.0
C2041 C 0.92006 0.15544 0.62654 0.0
C2042 C 0.89884 0.17782 0.63824 0.0
C2043 C 0.88136 0.17236 0.64389 0.0
C2044 C 0.88143 0.17225 0.65702 0.0
C2045 C 0.89939 0.17765 0.66436 0.0
C2046 C 0.91684 0.183 0.65869 0.0
H2047 H 0.92548 0.14597 0.62225 0.0
H2048 H 0.91205 0.14848 0.63469 0.0
H2049 H 0.90926 0.1558 0.61943 0.0
H2050 H 0.89847 0.1782 0.62814 0.0
H2051 H 0.86786 0.16846 0.63794 0.0
H2052 H 0.7408 0.76995 0.60575 0.0
H2053 H 0.75602 0.75132 0.6136 0.0
H2054 H 0.7455 0.76293 0.65137 0.0
H2055 H 0.72961 0.78102 0.64355 0.0
H2056 H 0.78945 0.76563 0.63104 0.0
H2057 H 0.72323 0.70304 0.64784 0.0
H2058 H 0.72126 0.71944 0.63742 0.0
H2059 H 0.72817 0.72709 0.654 0.0
C2060 C 0.74136 0.76821 0.61569 0.0
C2061 C 0.73388 0.77686 0.62402 0.0
C2062 C 0.75021 0.7577 0.62017 0.0
C2063 C 0.75165 0.75556 0.63303 0.0
C2064 C 0.7442 0.76413 0.64138 0.0
H2065 H 0.80506 0.70479 0.67993 0.0
H2066 H 0.78914 0.72234 0.67136 0.0
C2067 C 0.73533 0.77463 0.63691 0.0
C2068 C 0.76171 0.74503 0.63776 0.0
H2069 H 0.75463 0.70587 0.65363 0.0
C2070 C 0.78183 0.75249 0.63591 0.0
C2071 C 0.75169 0.72791 0.64411 0.0
C2072 C 0.72984 0.71876 0.64588 0.0
C2073 C 0.79235 0.7435 0.64049 0.0
C2074 C 0.78237 0.72649 0.64692 0.0
C2075 C 0.76222 0.71896 0.64871 0.0
C2076 C 0.7926 0.71634 0.652 0.0
C2077 C 0.81417 0.75255 0.63868 0.0
C2078 C 0.79975 0.70713 0.64391 0.0
C2079 C 0.80889 0.69708 0.64877 0.0
C2080 C 0.81093 0.69602 0.6618 0.0
C2081 C 0.80378 0.70535 0.66986 0.0
C2082 C 0.79464 0.71536 0.66499 0.0
H2083 H 0.82066 0.76798 0.63615 0.0
H2084 H 0.82285 0.75261 0.64734 0.0
H2085 H 0.81584 0.74358 0.63095 0.0
H2086 H 0.79801 0.70747 0.63383 0.0
H2087 H 0.81414 0.68997 0.6423 0.0
H2088 H 0.02521 0.76259 0.60841 0.0
H2089 H 0.99359 0.74385 0.61736 0.0
H2090 H 0.00369 0.79756 0.63811 0.0
H2091 H 0.03486 0.81652 0.62883 0.0
H2092 H 0.98757 0.73978 0.64236 0.0
H2093 H 0.94721 0.77466 0.62122 0.0
H2094 H 0.96992 0.77757 0.61577 0.0
H2095 H 0.97091 0.79205 0.62977 0.0
C2096 C 0.02056 0.77047 0.61472 0.0
C2097 C 0.03256 0.79107 0.61787 0.0
C2098 C 0.00255 0.75972 0.61989 0.0
C2099 C 0.99616 0.76937 0.62825 0.0
C2100 C 0.00814 0.78988 0.63148 0.0
H2101 H 0.89504 0.72703 0.67252 0.0
H2102 H 0.92634 0.74726 0.66346 0.0
C2103 C 0.0261 0.80065 0.6263 0.0
C2104 C 0.9773 0.75784 0.63393 0.0
H2105 H 0.93178 0.75333 0.63693 0.0
C2106 C 0.97534 0.74268 0.64113 0.0
C2107 C 0.96141 0.76173 0.63234 0.0
C2108 C 0.96233 0.77726 0.62426 0.0
C2109 C 0.95796 0.7314 0.64689 0.0
C2110 C 0.94208 0.73526 0.64528 0.0
C2111 C 0.94406 0.7505 0.63816 0.0
C2112 C 0.92306 0.7232 0.6506 0.0
C2113 C 0.95678 0.71557 0.65478 0.0
C2114 C 0.91078 0.70312 0.64619 0.0
C2115 C 0.89294 0.69156 0.65129 0.0
C2116 C 0.88701 0.69988 0.66092 0.0
C2117 C 0.89921 0.72014 0.66517 0.0
C2118 C 0.91707 0.73172 0.66001 0.0
H2119 H 0.97175 0.71754 0.65747 0.0
H2120 H 0.94972 0.71562 0.66346 0.0
H2121 H 0.94747 0.70083 0.64931 0.0
H2122 H 0.91502 0.69638 0.63878 0.0
H2123 H 0.88386 0.67606 0.64771 0.0
H2124 H 0.19105 0.21222 0.59065 0.0
H2125 H 0.21423 0.20225 0.59932 0.0
H2126 H 0.20449 0.21574 0.63691 0.0
H2127 H 0.18151 0.22595 0.62837 0.0
H2128 H 0.24967 0.22487 0.61608 0.0
H2129 H 0.19345 0.15843 0.63642 0.0
H2130 H 0.18668 0.17054 0.62487 0.0
H2131 H 0.19315 0.18068 0.6411 0.0
C2132 C 0.19394 0.2132 0.60077 0.0
C2133 C 0.18435 0.2198 0.60882 0.0
C2134 C 0.20711 0.2074 0.60569 0.0
C2135 C 0.21081 0.20797 0.61873 0.0
C2136 C 0.20148 0.21478 0.6268 0.0
H2137 H 0.28319 0.18681 0.67162 0.0
H2138 H 0.26039 0.19464 0.66012 0.0
C2139 C 0.18834 0.22059 0.6219 0.0
C2140 C 0.22471 0.2018 0.62397 0.0
H2141 H 0.22758 0.16936 0.64271 0.0
C2142 C 0.24485 0.21261 0.6218 0.0
C2143 C 0.21831 0.18575 0.63137 0.0
C2144 C 0.19669 0.17304 0.6335 0.0
C2145 C 0.25896 0.20831 0.6273 0.0
C2146 C 0.25263 0.19257 0.63497 0.0
C2147 C 0.23239 0.18145 0.63685 0.0
C2148 C 0.26686 0.18803 0.64171 0.0
C2149 C 0.28062 0.22109 0.62526 0.0
C2150 C 0.27802 0.18161 0.63515 0.0
C2151 C 0.29118 0.17713 0.64171 0.0
C2152 C 0.29329 0.17889 0.65495 0.0
C2153 C 0.28199 0.18527 0.66144 0.0
C2154 C 0.26891 0.18975 0.65489 0.0
H2155 H 0.28358 0.23503 0.62134 0.0
H2156 H 0.29039 0.22492 0.63421 0.0
H2157 H 0.28475 0.21278 0.61851 0.0
H2158 H 0.2764 0.17987 0.62496 0.0
H2159 H 0.2996 0.17219 0.63641 0.0
H2160 H 0.71001 0.93856 0.62272 0.0
H2161 H 0.72544 0.97322 0.63148 0.0
H2162 H 0.77718 0.97156 0.64676 0.0
H2163 H 0.76221 0.93716 0.63766 0.0
H2164 H 0.73916 0.99075 0.65643 0.0
H2165 H 0.80077 0.01876 0.62582 0.0
H2166 H 0.77905 0.99428 0.62279 0.0
H2167 H 0.79869 -0.00076 0.63477 0.0
C2168 C 0.72473 0.94561 0.62787 0.0
C2169 C 0.73495 0.93514 0.62939 0.0
C2170 C 0.73345 0.96535 0.63294 0.0
C2171 C 0.75256 0.97501 0.63958 0.0
C2172 C 0.76256 0.96446 0.64147 0.0
H2173 H 0.83006 0.09738 0.67212 0.0
H2174 H 0.81522 0.06177 0.66615 0.0
C2175 C 0.75387 0.94473 0.63638 0.0
C2176 C 0.76211 0.99622 0.64437 0.0
H2177 H 0.80175 0.04194 0.64145 0.0
C2178 C 0.75284 0.00196 0.65317 0.0
C2179 C 0.77998 0.01077 0.64009 0.0
C2180 C 0.79016 0.00555 0.63027 0.0
C2181 C 0.76102 0.02191 0.65785 0.0
C2182 C 0.77876 0.03646 0.65346 0.0
C2183 C 0.78817 0.0307 0.6448 0.0
C2184 C 0.78745 0.05784 0.65741 0.0
C2185 C 0.75074 0.02723 0.66753 0.0
C2186 C 0.77681 0.0674 0.65434 0.0
C2187 C 0.78523 0.08772 0.65769 0.0
C2188 C 0.80452 0.09886 0.66414 0.0
C2189 C 0.81517 0.08923 0.66718 0.0
C2190 C 0.80673 0.0689 0.66378 0.0
H2191 H 0.74057 0.01419 0.67229 0.0
H2192 H 0.7618 0.03907 0.67477 0.0
H2193 H 0.7417 0.03285 0.66282 0.0
H2194 H 0.76206 0.05919 0.6492 0.0
H2195 H 0.77664 0.09467 0.65517 0.0
H2196 H 0.44577 0.3844 0.73397 0.0
H2197 H 0.42347 0.35013 0.72491 0.0
H2198 H 0.47313 0.34857 0.71029 0.0
H2199 H 0.49568 0.38252 0.71976 0.0
H2200 H 0.41454 0.33254 0.70039 0.0
H2201 H 0.45003 0.30108 0.73071 0.0
H2202 H 0.4551 0.32618 0.73373 0.0
H2203 H 0.46702 0.32005 0.72184 0.0
C2204 C 0.45198 0.37672 0.72891 0.0
C2205 C 0.47256 0.38615 0.72771 0.0
C2206 C 0.43919 0.3572 0.72366 0.0
C2207 C 0.44672 0.34672 0.71712 0.0
C2208 C 0.46709 0.35628 0.71551 0.0
H2209 H 0.3765 0.23409 0.6704 0.0
H2210 H 0.39835 0.26904 0.67817 0.0
C2211 C 0.47991 0.37578 0.7208 0.0
C2212 C 0.43327 0.32568 0.71219 0.0
H2213 H 0.42547 0.27906 0.71436 0.0
C2214 C 0.41689 0.32082 0.70343 0.0
C2215 C 0.43623 0.31042 0.71635 0.0
C2216 C 0.45292 0.31461 0.72626 0.0
C2217 C 0.40348 0.30109 0.6986 0.0
C2218 C 0.40679 0.2859 0.70247 0.0
C2219 C 0.42307 0.29076 0.71132 0.0
C2220 C 0.39336 0.26479 0.69768 0.0
C2221 C 0.38566 0.29664 0.68961 0.0
C2222 C 0.3837 0.25073 0.7061 0.0
C2223 C 0.37138 0.23072 0.70172 0.0
C2224 C 0.3685 0.22438 0.68881 0.0
C2225 C 0.37827 0.2385 0.68039 0.0
C2226 C 0.39067 0.25851 0.6848 0.0
H2227 H 0.38239 0.30894 0.69025 0.0
H2228 H 0.3888 0.29464 0.67984 0.0
H2229 H 0.37217 0.2828 0.69148 0.0
H2230 H 0.38566 0.25527 0.71609 0.0
H2231 H 0.3641 0.22025 0.70846 0.0
H2232 H 0.62404 0.10148 0.72054 0.0
H2233 H 0.65474 0.11062 0.71089 0.0
H2234 H 0.68545 0.11643 0.7472 0.0
H2235 H 0.65501 0.10795 0.75706 0.0
H2236 H 0.69496 0.14863 0.71947 0.0
H2237 H 0.69425 0.07737 0.72187 0.0
H2238 H 0.67175 0.07879 0.72181 0.0
H2239 H 0.68924 0.08778 0.73567 0.0
C2240 C 0.63734 0.10486 0.72652 0.0
C2241 C 0.63703 0.10403 0.73961 0.0
C2242 C 0.65482 0.10996 0.72096 0.0
C2243 C 0.67224 0.11408 0.72834 0.0
C2244 C 0.67203 0.11309 0.74136 0.0
H2245 H 0.78948 0.14069 0.70971 0.0
H2246 H 0.75974 0.13258 0.72019 0.0
C2247 C 0.65459 0.10814 0.74695 0.0
C2248 C 0.69079 0.11992 0.72244 0.0
H2249 H 0.72181 0.10328 0.71386 0.0
C2250 C 0.70088 0.13876 0.71822 0.0
C2251 C 0.69844 0.10701 0.72095 0.0
C2252 C 0.68789 0.08653 0.72523 0.0
C2253 C 0.71863 0.14515 0.7126 0.0
C2254 C 0.72613 0.13209 0.71085 0.0
C2255 C 0.71603 0.11326 0.71517 0.0
C2256 C 0.74436 0.13759 0.70454 0.0
C2257 C 0.7294 0.16598 0.70887 0.0
C2258 C 0.74558 0.14298 0.69222 0.0
C2259 C 0.76266 0.1478 0.68623 0.0
C2260 C 0.77872 0.14698 0.69238 0.0
C2261 C 0.77737 0.14141 0.70468 0.0
C2262 C 0.76038 0.13677 0.7107 0.0
H2263 H 0.72523 0.17575 0.7142 0.0
H2264 H 0.74583 0.17259 0.71046 0.0
H2265 H 0.72522 0.16566 0.69872 0.0
H2266 H 0.73321 0.1432 0.68715 0.0
H2267 H 0.76311 0.15183 0.67671 0.0
H2268 H 0.93113 0.53425 0.70572 0.0
H2269 H 0.91579 0.55232 0.69698 0.0
H2270 H 0.90257 0.56387 0.73397 0.0
H2271 H 0.91723 0.54531 0.74271 0.0
H2272 H 0.87038 0.55024 0.71542 0.0
H2273 H 0.93947 0.61263 0.70095 0.0
H2274 H 0.93406 0.58835 0.69492 0.0
H2275 H 0.93995 0.59574 0.71155 0.0
C2276 C 0.92489 0.54058 0.71198 0.0
C2277 C 0.9255 0.53843 0.72492 0.0
C2278 C 0.9163 0.55104 0.70699 0.0
C2279 C 0.90829 0.55963 0.71486 0.0
C2280 C 0.90879 0.55744 0.72775 0.0
H2281 H 0.87826 0.64949 0.70268 0.0
H2282 H 0.89204 0.62922 0.70959 0.0
C2283 C 0.91734 0.54698 0.73275 0.0
C2284 C 0.89905 0.57065 0.70969 0.0
H2285 H 0.90921 0.6119 0.69525 0.0
C2286 C 0.87883 0.5637 0.71098 0.0
C2287 C 0.9102 0.58827 0.70401 0.0
C2288 C 0.93216 0.59684 0.70284 0.0
C2289 C 0.86944 0.57396 0.70676 0.0
C2290 C 0.88053 0.59147 0.70096 0.0
C2291 C 0.90073 0.59838 0.69963 0.0
C2292 C 0.87176 0.60341 0.69674 0.0
C2293 C 0.84792 0.56632 0.70888 0.0
C2294 C 0.8558 0.59561 0.68718 0.0
C2295 C 0.8478 0.60715 0.68321 0.0
C2296 C 0.85574 0.62674 0.68869 0.0
C2297 C 0.87177 0.63447 0.69824 0.0
C2298 C 0.8797 0.62293 0.70221 0.0
H2299 H 0.84293 0.55537 0.71592 0.0
H2300 H 0.84559 0.57869 0.71213 0.0
H2301 H 0.83833 0.55891 0.69989 0.0
H2302 H 0.84968 0.58067 0.6827 0.0
H2303 H 0.83555 0.60078 0.67577 0.0
H2304 H 0.45623 0.97844 0.19508 0.0
H2305 H 0.46282 0.99113 0.17446 0.0
H2306 H 0.4863 0.95297 0.16506 0.0
H2307 H 0.4794 0.93993 0.18544 0.0
H2308 H 0.50037 0.01015 0.16431 0.0
H2309 H 0.44495 0.94099 0.13491 0.0
H2310 H 0.44409 0.94485 0.1516 0.0
H2311 H 0.4612 0.93779 0.14598 0.0
C2312 C 0.46259 0.9726 0.18855 0.0
C2313 C 0.4673 0.95819 0.19189 0.0
C2314 C 0.46643 0.97994 0.17682 0.0
C2315 C 0.47481 0.9728 0.1682 0.0
C2316 C 0.47954 0.95845 0.17151 0.0
H2317 H 0.51635 0.99383 0.09512 0.0
H2318 H 0.50729 0.98299 0.11587 0.0
C2319 C 0.47578 0.95118 0.18321 0.0
C2320 C 0.4792 0.98066 0.15584 0.0
H2321 H 0.46933 0.96658 0.12423 0.0
C2322 C 0.49345 0.00072 0.15552 0.0
C2323 C 0.47014 0.96827 0.14442 0.0
C2324 C 0.4541 0.94681 0.14419 0.0
C2325 C 0.49944 0.00856 0.14408 0.0
C2326 C 0.49066 0.99606 0.13268 0.0
C2327 C 0.47611 0.9761 0.13299 0.0
C2328 C 0.49664 0.0032 0.12029 0.0
C2329 C 0.51558 0.02997 0.14431 0.0
C2330 C 0.49359 0.01811 0.11589 0.0
C2331 C 0.49871 0.02431 0.10402 0.0
C2332 C 0.50684 0.0156 0.0963 0.0
C2333 C 0.50992 0.0007 0.10077 0.0
C2334 C 0.50483 0.99454 0.11264 0.0
H2335 H 0.52398 0.03618 0.15379 0.0
H2336 H 0.52627 0.03161 0.13743 0.0
H2337 H 0.50869 0.03889 0.14168 0.0
H2338 H 0.4869 0.0247 0.12154 0.0
H2339 H 0.49582 0.03558 0.10076 0.0
H2340 H 0.9823 0.50299 0.20063 0.0
H2341 H 0.97697 0.50046 0.17771 0.0
H2342 H 0.01132 0.47123 0.17461 0.0
H2343 H 0.01753 0.47453 0.19749 0.0
H2344 H 0.02274 0.50094 0.15966 0.0
H2345 H 0.94045 0.45263 0.15287 0.0
H2346 H 0.94868 0.47447 0.16353 0.0
H2347 H 0.95506 0.45619 0.16759 0.0
C2348 C 0.98874 0.49603 0.19508 0.0
C2349 C 0.00033 0.48894 0.20092 0.0
C2350 C 0.98546 0.49437 0.18197 0.0
C2351 C 0.99349 0.48538 0.17446 0.0
C2352 C 0.00486 0.47809 0.18024 0.0
H2353 H 0.96396 0.45368 0.09361 0.0
H2354 H 0.96846 0.45331 0.1164 0.0
C2355 C 0.00824 0.47983 0.19333 0.0
C2356 C 0.99098 0.48454 0.16057 0.0
H2357 H 0.95603 0.46839 0.1351 0.0
C2358 C 0.00816 0.49371 0.15427 0.0
C2359 C 0.97195 0.4749 0.15356 0.0
C2360 C 0.95299 0.46381 0.15971 0.0
C2361 C 0.00683 0.49383 0.14117 0.0
C2362 C 0.98779 0.48492 0.13421 0.0
C2363 C 0.97061 0.4754 0.14047 0.0
C2364 C 0.98536 0.48525 0.12042 0.0
C2365 C 0.02583 0.50325 0.13488 0.0
C2366 C 0.99322 0.50333 0.11515 0.0
C2367 C 0.99073 0.50357 0.10215 0.0
C2368 C 0.9801 0.48574 0.0942 0.0
C2369 C 0.97208 0.46765 0.09952 0.0
C2370 C 0.97468 0.46742 0.11251 0.0
H2371 H 0.03851 0.50418 0.14089 0.0
H2372 H 0.02399 0.49482 0.12571 0.0
H2373 H 0.02976 0.51856 0.13315 0.0
H2374 H 0.00107 0.51726 0.12111 0.0
H2375 H 0.99679 0.51772 0.09833 0.0
H2376 H 0.43841 0.47509 0.18787 0.0
H2377 H 0.44258 0.46678 0.16632 0.0
H2378 H 0.5064 0.49757 0.17575 0.0
H2379 H 0.50234 0.50515 0.1974 0.0
H2380 H 0.46198 0.49246 0.14959 0.0
H2381 H 0.49684 0.44671 0.15728 0.0
H2382 H 0.48481 0.45262 0.16929 0.0
H2383 H 0.51005 0.47018 0.1667 0.0
C2384 C 0.45331 0.4797 0.18544 0.0
C2385 C 0.47004 0.49079 0.19439 0.0
C2386 C 0.45567 0.47504 0.17309 0.0
C2387 C 0.47478 0.48129 0.16946 0.0
C2388 C 0.49148 0.49219 0.17839 0.0
H2389 H 0.53157 0.49791 0.10224 0.0
H2390 H 0.52195 0.49583 0.12358 0.0
C2391 C 0.48914 0.49677 0.19073 0.0
C2392 C 0.47743 0.47772 0.15615 0.0
H2393 H 0.50036 0.46021 0.13737 0.0
C2394 C 0.47008 0.48511 0.14688 0.0
C2395 C 0.48798 0.4681 0.15263 0.0
C2396 C 0.49519 0.45877 0.16199 0.0
C2397 C 0.47377 0.48394 0.1343 0.0
C2398 C 0.48497 0.47502 0.13089 0.0
C2399 C 0.49184 0.46711 0.14006 0.0
C2400 C 0.49072 0.47488 0.118 0.0
C2401 C 0.46639 0.49297 0.12481 0.0
C2402 C 0.47636 0.46343 0.10784 0.0
C2403 C 0.48183 0.4644 0.0956 0.0
C2404 C 0.50177 0.47686 0.09332 0.0
C2405 C 0.51616 0.48791 0.10362 0.0
C2406 C 0.51068 0.48685 0.11584 0.0
H2407 H 0.46053 0.50189 0.12932 0.0
H2408 H 0.47858 0.50259 0.11925 0.0
H2409 H 0.45421 0.48097 0.11817 0.0
H2410 H 0.46089 0.45392 0.10937 0.0
H2411 H 0.47042 0.45545 0.08792 0.0
H2412 H 0.01171 0.48539 0.81886 0.0
H2413 H 0.01812 0.48874 0.84175 0.0
H2414 H 0.98525 0.51946 0.84517 0.0
H2415 H 0.97791 0.51532 0.82232 0.0
H2416 H 0.03711 0.52114 0.85906 0.0
H2417 H 0.95766 0.47519 0.86732 0.0
H2418 H 0.96596 0.47625 0.85188 0.0
H2419 H 0.9626 0.49583 0.85866 0.0
C2420 C 0.00567 0.4927 0.82447 0.0
C2421 C 0.99409 0.49988 0.81873 0.0
C2422 C 0.00949 0.49474 0.83755 0.0
C2423 C 0.00182 0.50399 0.84516 0.0
C2424 C 0.99092 0.51186 0.83948 0.0
H2425 H 0.03872 0.54275 0.92503 0.0
H2426 H 0.03286 0.54104 0.90217 0.0
C2427 C 0.98698 0.50973 0.82639 0.0
C2428 C 0.00516 0.50525 0.85904 0.0
H2429 H 0.98097 0.49191 0.88538 0.0
C2430 C 0.02485 0.51473 0.86483 0.0
C2431 C 0.98912 0.49661 0.86651 0.0
C2432 C 0.96765 0.48523 0.86079 0.0
C2433 C 0.02895 0.51598 0.8779 0.0
C2434 C 0.01291 0.50789 0.88541 0.0
C2435 C 0.99323 0.49825 0.87961 0.0
C2436 C 0.01622 0.50898 0.89928 0.0
C2437 C 0.05041 0.52555 0.88352 0.0
C2438 C 0.00825 0.49154 0.90527 0.0
C2439 C 0.01143 0.49248 0.91834 0.0
C2440 C 0.02266 0.51089 0.92564 0.0
C2441 C 0.03034 0.52834 0.91962 0.0
C2442 C 0.02704 0.52739 0.90657 0.0
H2443 H 0.06032 0.52595 0.87637 0.0
H2444 H 0.05565 0.54105 0.88731 0.0
H2445 H 0.05196 0.51754 0.89133 0.0
H2446 H 0.99977 0.47718 0.89981 0.0
H2447 H 0.00543 0.47879 0.92272 0.0
H2448 H 0.49674 0.49562 0.8186 0.0
H2449 H 0.4908 0.49899 0.84051 0.0
H2450 H 0.55169 0.5161 0.85265 0.0
H2451 H 0.55772 0.51252 0.83076 0.0
H2452 H 0.49542 0.47713 0.85941 0.0
H2453 H 0.54349 0.55844 0.87198 0.0
H2454 H 0.53568 0.5473 0.85588 0.0
H2455 H 0.55545 0.54634 0.86484 0.0
C2456 C 0.5089 0.50016 0.82593 0.0
C2457 C 0.52769 0.50372 0.82293 0.0
C2458 C 0.50549 0.50217 0.83842 0.0
C2459 C 0.52084 0.50795 0.84817 0.0
C2460 C 0.53975 0.51198 0.84524 0.0
H2461 H 0.52569 0.51907 0.92965 0.0
H2462 H 0.53319 0.51864 0.90783 0.0
C2463 C 0.54317 0.50994 0.83272 0.0
C2464 C 0.51662 0.50845 0.86143 0.0
H2465 H 0.52885 0.53904 0.88859 0.0
C2466 C 0.50265 0.49067 0.86579 0.0
C2467 C 0.52621 0.52612 0.86971 0.0
C2468 C 0.54094 0.5457 0.86539 0.0
C2469 C 0.49814 0.49002 0.87828 0.0
C2470 C 0.50756 0.50772 0.88655 0.0
C2471 C 0.52163 0.5255 0.88221 0.0
C2472 C 0.50295 0.50808 0.89974 0.0
C2473 C 0.48367 0.47029 0.88258 0.0
C2474 C 0.48352 0.50251 0.90241 0.0
C2475 C 0.47913 0.50253 0.91485 0.0
C2476 C 0.49415 0.5083 0.92488 0.0
C2477 C 0.5137 0.51421 0.92215 0.0
C2478 C 0.51805 0.51413 0.9097 0.0
H2479 H 0.48207 0.4577 0.87625 0.0
H2480 H 0.48851 0.46904 0.89229 0.0
H2481 H 0.46876 0.46893 0.88252 0.0
H2482 H 0.47172 0.49813 0.89485 0.0
H2483 H 0.46391 0.49778 0.91661 0.0
H2484 H 0.53825 0.02064 0.82397 0.0
H2485 H 0.53121 0.00768 0.84448 0.0
H2486 H 0.51718 0.0526 0.85617 0.0
H2487 H 0.52421 0.06562 0.83579 0.0
H2488 H 0.54834 0.02647 0.86879 0.0
H2489 H 0.46758 0.00131 0.86271 0.0
H2490 H 0.48269 0.00776 0.84976 0.0
H2491 H 0.48318 0.02686 0.86026 0.0
C2492 C 0.53379 0.02782 0.83095 0.0
C2493 C 0.53158 0.04403 0.82821 0.0
C2494 C 0.52969 0.02036 0.84263 0.0
C2495 C 0.52328 0.02893 0.85173 0.0
C2496 C 0.5216 0.04543 0.84915 0.0
H2497 H 0.49453 0.0166 0.92794 0.0
H2498 H 0.50201 0.02625 0.90678 0.0
C2499 C 0.52563 0.05286 0.8375 0.0
C2500 C 0.51853 0.02087 0.86402 0.0
H2501 H 0.48155 0.00248 0.88344 0.0
C2502 C 0.53369 0.02102 0.87196 0.0
C2503 C 0.49938 0.01371 0.8681 0.0
C2504 C 0.48221 0.01219 0.85972 0.0
C2505 C 0.5304 0.0149 0.88408 0.0
C2506 C 0.5114 0.00824 0.88826 0.0
C2507 C 0.49613 0.0077 0.88022 0.0
C2508 C 0.50717 0.00235 0.90109 0.0
C2509 C 0.54744 0.01621 0.89248 0.0
C2510 C 0.50743 0.98559 0.90483 0.0
C2511 C 0.5032 0.98006 0.91694 0.0
C2512 C 0.49864 0.99119 0.9255 0.0
C2513 C 0.49827 0.00789 0.92165 0.0
C2514 C 0.50243 0.01336 0.90954 0.0
H2515 H 0.56204 0.02531 0.88882 0.0
H2516 H 0.54811 0.02267 0.90214 0.0
H2517 H 0.54504 0.00108 0.8931 0.0
H2518 H 0.51078 0.97674 0.89837 0.0
H2519 H 0.50372 0.9672 0.91965 0.0
H2520 H 0.16591 0.31763 0.5327 0.0
H2521 H 0.17365 0.3309 0.5124 0.0
H2522 H 0.11433 0.28719 0.49594 0.0
H2523 H 0.10647 0.27379 0.51621 0.0
H2524 H 0.17317 0.31014 0.49042 0.0
H2525 H 0.12077 0.33837 0.48378 0.0
H2526 H 0.12687 0.33235 0.49883 0.0
H2527 H 0.10911 0.31301 0.48715 0.0
C2528 C 0.15447 0.3109 0.52477 0.0
C2529 C 0.13558 0.29463 0.52606 0.0
C2530 C 0.15889 0.31855 0.5132 0.0
C2531 C 0.1445 0.31018 0.5027 0.0
C2532 C 0.12551 0.29416 0.50399 0.0
H2533 H 0.14426 0.32359 0.42318 0.0
H2534 H 0.13629 0.31377 0.44427 0.0
C2535 C 0.12105 0.28651 0.51558 0.0
C2536 C 0.14982 0.31736 0.49024 0.0
H2537 H 0.13701 0.33673 0.46602 0.0
C2538 C 0.16538 0.31611 0.48512 0.0
C2539 C 0.13956 0.32505 0.48334 0.0
C2540 C 0.12326 0.32747 0.48858 0.0
C2541 C 0.1707 0.32195 0.47317 0.0
C2542 C 0.16039 0.32955 0.46624 0.0
C2543 C 0.14488 0.33089 0.47137 0.0
C2544 C 0.16526 0.33584 0.45355 0.0
C2545 C 0.18695 0.31945 0.46791 0.0
C2546 C 0.18412 0.35168 0.45183 0.0
C2547 C 0.18878 0.35724 0.43978 0.0
C2548 C 0.17462 0.34711 0.42925 0.0
C2549 C 0.15562 0.33147 0.43107 0.0
C2550 C 0.15098 0.32594 0.44311 0.0
H2551 H 0.19004 0.30918 0.47305 0.0
H2552 H 0.18287 0.31372 0.45779 0.0
H2553 H 0.20091 0.33406 0.46878 0.0
H2554 H 0.19525 0.35971 0.4598 0.0
H2555 H 0.20357 0.36928 0.4387 0.0
H2556 H 0.68192 0.80495 0.52887 0.0
H2557 H 0.67409 0.80112 0.50604 0.0
H2558 H 0.63621 0.82617 0.51058 0.0
H2559 H 0.64376 0.82987 0.53345 0.0
H2560 H 0.63628 0.78064 0.49063 0.0
H2561 H 0.6774 0.86187 0.48733 0.0
H2562 H 0.68055 0.8511 0.50112 0.0
H2563 H 0.65896 0.85366 0.49828 0.0
C2564 C 0.67167 0.80937 0.52504 0.0
C2565 C 0.66353 0.81782 0.53298 0.0
C2566 C 0.6673 0.80725 0.51199 0.0
C2567 C 0.65482 0.81362 0.50666 0.0
C2568 C 0.64618 0.8215 0.51454 0.0
H2569 H 0.62036 0.82502 0.43081 0.0
H2570 H 0.6235 0.82333 0.45343 0.0
C2571 C 0.65053 0.82363 0.52758 0.0
C2572 C 0.65127 0.81252 0.49283 0.0
H2573 H 0.65919 0.84122 0.46868 0.0
C2574 C 0.64129 0.79385 0.4858 0.0
C2575 C 0.65793 0.82982 0.48661 0.0
C2576 C 0.66946 0.85028 0.49368 0.0
C2577 C 0.63742 0.79201 0.47265 0.0
C2578 C 0.64403 0.80932 0.46643 0.0
C2579 C 0.65408 0.82797 0.47349 0.0
C2580 C 0.64072 0.80858 0.4526 0.0
C2581 C 0.62595 0.77157 0.46557 0.0
C2582 C 0.64927 0.80073 0.44462 0.0
C2583 C 0.64733 0.80149 0.43163 0.0
C2584 C 0.63692 0.81024 0.42641 0.0
C2585 C 0.62815 0.81784 0.43446 0.0
C2586 C 0.63006 0.81703 0.44742 0.0
H2587 H 0.61761 0.76004 0.47187 0.0
H2588 H 0.61523 0.77086 0.4579 0.0
H2589 H 0.63655 0.76802 0.46128 0.0
H2590 H 0.65787 0.79446 0.44846 0.0
H2591 H 0.65416 0.79541 0.42569 0.0
H2592 H 0.16963 0.84342 0.53157 0.0
H2593 H 0.17483 0.8396 0.50961 0.0
H2594 H 0.11122 0.80869 0.4992 0.0
H2595 H 0.10591 0.81338 0.5211 0.0
H2596 H 0.16299 0.80747 0.49312 0.0
H2597 H 0.13069 0.85216 0.47606 0.0
H2598 H 0.13611 0.85133 0.49256 0.0
H2599 H 0.11387 0.83138 0.4838 0.0
C2600 C 0.15673 0.83599 0.52461 0.0
C2601 C 0.13736 0.82899 0.52809 0.0
C2602 C 0.15973 0.83366 0.51206 0.0
C2603 C 0.14345 0.82422 0.50273 0.0
C2604 C 0.12403 0.81645 0.50621 0.0
H2605 H 0.1554 0.78949 0.42604 0.0
H2606 H 0.14691 0.78924 0.44767 0.0
C2607 C 0.12101 0.81891 0.51877 0.0
C2608 C 0.14699 0.82281 0.48936 0.0
H2609 H 0.14014 0.83649 0.46063 0.0
C2610 C 0.15797 0.81377 0.48599 0.0
C2611 C 0.14068 0.83133 0.48014 0.0
C2612 C 0.12985 0.84227 0.48331 0.0
C2613 C 0.16288 0.81307 0.47367 0.0
C2614 C 0.15617 0.82118 0.46438 0.0
C2615 C 0.14513 0.83015 0.46774 0.0
C2616 C 0.16103 0.82116 0.45122 0.0
C2617 C 0.17576 0.80423 0.47083 0.0
C2618 C 0.17123 0.83912 0.44589 0.0
C2619 C 0.17587 0.83928 0.4335 0.0
C2620 C 0.17045 0.82146 0.42622 0.0
C2621 C 0.16007 0.80347 0.43152 0.0
C2622 C 0.15526 0.80331 0.44388 0.0
H2623 H 0.18407 0.80378 0.47951 0.0
H2624 H 0.16613 0.78879 0.4664 0.0
H2625 H 0.18667 0.81278 0.46423 0.0
H2626 H 0.17578 0.85307 0.45138 0.0
H2627 H 0.18397 0.85336 0.42968 0.0
H2628 H 0.67723 0.86556 0.15355 0.0
H2629 H 0.68358 0.86848 0.17652 0.0
H2630 H 0.64087 0.80623 0.17633 0.0
H2631 H 0.63454 0.80319 0.15345 0.0
H2632 H 0.65745 0.86063 0.19469 0.0
H2633 H 0.69004 0.81177 0.19623 0.0
H2634 H 0.68652 0.82134 0.18197 0.0
H2635 H 0.66586 0.80025 0.18743 0.0
C2636 C 0.66919 0.85252 0.15843 0.0
C2637 C 0.65554 0.8341 0.1517 0.0
C2638 C 0.67286 0.85419 0.17152 0.0
C2639 C 0.66297 0.83749 0.17808 0.0
C2640 C 0.64906 0.81919 0.17141 0.0
H2641 H 0.65899 0.81416 0.25607 0.0
H2642 H 0.65268 0.81297 0.23324 0.0
C2643 C 0.64545 0.81748 0.15834 0.0
C2644 C 0.66689 0.8392 0.19194 0.0
H2645 H 0.68203 0.82085 0.21568 0.0
C2646 C 0.66296 0.85205 0.1993 0.0
C2647 C 0.6741 0.82799 0.19789 0.0
C2648 C 0.67957 0.8147 0.19048 0.0
C2649 C 0.66559 0.85364 0.21248 0.0
C2650 C 0.67252 0.84221 0.21841 0.0
C2651 C 0.67659 0.82948 0.21107 0.0
C2652 C 0.67579 0.84332 0.23225 0.0
C2653 C 0.66056 0.86717 0.21999 0.0
C2654 C 0.6909 0.86077 0.23919 0.0
C2655 C 0.69453 0.8615 0.2522 0.0
C2656 C 0.68311 0.84477 0.25849 0.0
C2657 C 0.66787 0.82735 0.2515 0.0
C2658 C 0.66432 0.82661 0.23848 0.0
H2659 H 0.65146 0.87164 0.21412 0.0
H2660 H 0.65229 0.85989 0.22798 0.0
H2661 H 0.67458 0.8808 0.22393 0.0
H2662 H 0.70007 0.87373 0.2345 0.0
H2663 H 0.70627 0.87517 0.25735 0.0
H2664 H 0.1852 0.81512 0.16228 0.0
H2665 H 0.18056 0.82161 0.184 0.0
H2666 H 0.21056 0.88433 0.18045 0.0
H2667 H 0.21484 0.8779 0.15848 0.0
H2668 H 0.21019 0.84563 0.20417 0.0
H2669 H 0.15658 0.87166 0.19334 0.0
H2670 H 0.16226 0.85822 0.1816 0.0
H2671 H 0.17983 0.88385 0.18656 0.0
C2672 C 0.19062 0.83029 0.16605 0.0
C2673 C 0.20018 0.84598 0.15861 0.0
C2674 C 0.18811 0.83398 0.1785 0.0
C2675 C 0.19503 0.85341 0.18377 0.0
C2676 C 0.20488 0.8692 0.17648 0.0
H2677 H 0.19473 0.87791 0.26497 0.0
H2678 H 0.20542 0.88081 0.24379 0.0
C2679 C 0.20745 0.86552 0.16398 0.0
C2680 C 0.19174 0.85685 0.19692 0.0
H2681 H 0.16452 0.87014 0.21467 0.0
C2682 C 0.20041 0.85121 0.20652 0.0
C2683 C 0.17882 0.86397 0.19987 0.0
C2684 C 0.16868 0.86967 0.18983 0.0
C2685 C 0.19613 0.85208 0.21899 0.0
C2686 C 0.18301 0.85897 0.22192 0.0
C2687 C 0.17468 0.86502 0.21237 0.0
C2688 C 0.17648 0.8584 0.23464 0.0
C2689 C 0.20496 0.84479 0.22883 0.0
C2690 C 0.15659 0.8452 0.23643 0.0
C2691 C 0.15046 0.84343 0.24848 0.0
C2692 C 0.1641 0.85494 0.259 0.0
C2693 C 0.18393 0.86862 0.25711 0.0
C2694 C 0.19005 0.87034 0.24502 0.0
H2695 H 0.21203 0.83683 0.22461 0.0
H2696 H 0.21653 0.85763 0.23527 0.0
H2697 H 0.1933 0.83472 0.23454 0.0
H2698 H 0.14592 0.83582 0.22852 0.0
H2699 H 0.13517 0.83255 0.24959 0.0
H2700 H 0.19056 0.3972 0.16914 0.0
H2701 H 0.18364 0.38393 0.18948 0.0
H2702 H 0.1993 0.34024 0.17774 0.0
H2703 H 0.20628 0.35346 0.15734 0.0
H2704 H 0.15598 0.34595 0.19432 0.0
H2705 H 0.23292 0.36476 0.21167 0.0
H2706 H 0.2277 0.37522 0.19838 0.0
H2707 H 0.22346 0.3504 0.19658 0.0
C2708 C 0.19247 0.38472 0.17087 0.0
C2709 C 0.19897 0.37638 0.16163 0.0
C2710 C 0.18859 0.37721 0.18251 0.0
C2711 C 0.19119 0.36126 0.18518 0.0
C2712 C 0.19761 0.35283 0.17598 0.0
H2713 H 0.17151 0.29834 0.25233 0.0
H2714 H 0.17789 0.30822 0.23105 0.0
C2715 C 0.20157 0.36039 0.16432 0.0
C2716 C 0.18662 0.35322 0.19749 0.0
H2717 H 0.20736 0.34602 0.2243 0.0
C2718 C 0.16721 0.34596 0.20087 0.0
C2719 C 0.20129 0.35318 0.206 0.0
C2720 C 0.22256 0.36145 0.20306 0.0
C2721 C 0.16207 0.33869 0.21255 0.0
C2722 C 0.1768 0.33894 0.22112 0.0
C2723 C 0.19611 0.34585 0.21767 0.0
C2724 C 0.17262 0.33275 0.2339 0.0
C2725 C 0.14087 0.33068 0.21558 0.0
C2726 C 0.16774 0.34339 0.24256 0.0
C2727 C 0.16406 0.33779 0.25468 0.0
C2728 C 0.16526 0.32144 0.25839 0.0
C2729 C 0.17023 0.31084 0.2497 0.0
C2730 C 0.17398 0.31652 0.23758 0.0
H2731 H 0.13038 0.32678 0.20695 0.0
H2732 H 0.13588 0.31733 0.2207 0.0
H2733 H 0.14006 0.34215 0.2217 0.0
H2734 H 0.1669 0.35615 0.23996 0.0
H2735 H 0.16012 0.34616 0.26112 0.0
H2736 H 0.83203 0.64822 0.86558 0.0
H2737 H 0.83924 0.66138 0.84521 0.0
H2738 H 0.77979 0.61729 0.82918 0.0
H2739 H 0.77247 0.60401 0.84953 0.0
H2740 H 0.8385 0.64055 0.8232 0.0
H2741 H 0.78556 0.66822 0.81702 0.0
H2742 H 0.79203 0.66238 0.83203 0.0
H2743 H 0.77418 0.64291 0.82046 0.0
C2744 C 0.82045 0.64138 0.85773 0.0
C2745 C 0.80168 0.62504 0.85916 0.0
C2746 C 0.82458 0.64897 0.84612 0.0
C2747 C 0.80999 0.64045 0.83573 0.0
C2748 C 0.79112 0.62436 0.83715 0.0
H2749 H 0.80837 0.65343 0.75615 0.0
H2750 H 0.80075 0.64371 0.77729 0.0
C2751 C 0.78696 0.61678 0.84878 0.0
C2752 C 0.81501 0.64756 0.82322 0.0
H2753 H 0.80159 0.66668 0.79913 0.0
C2754 C 0.83054 0.64641 0.81797 0.0
C2755 C 0.80454 0.65512 0.81641 0.0
C2756 C 0.78827 0.65743 0.82179 0.0
C2757 C 0.83563 0.65224 0.80599 0.0
C2758 C 0.82511 0.65972 0.79916 0.0
C2759 C 0.80963 0.66095 0.80441 0.0
C2760 C 0.82974 0.666 0.78644 0.0
C2761 C 0.85187 0.64986 0.80059 0.0
C2762 C 0.84849 0.68192 0.78462 0.0
C2763 C 0.85295 0.68743 0.77254 0.0
C2764 C 0.8387 0.67714 0.76207 0.0
C2765 C 0.81979 0.66143 0.76398 0.0
C2766 C 0.81535 0.65595 0.77606 0.0
H2767 H 0.85515 0.63969 0.80569 0.0
H2768 H 0.84765 0.64409 0.79048 0.0
H2769 H 0.86576 0.66453 0.80139 0.0
H2770 H 0.8597 0.69004 0.79254 0.0
H2771 H 0.86766 0.69953 0.77138 0.0
H2772 H 0.34661 0.19532 0.86665 0.0
H2773 H 0.33996 0.19235 0.84383 0.0
H2774 H 0.31328 0.12887 0.8424 0.0
H2775 H 0.31902 0.13159 0.86532 0.0
H2776 H 0.35472 0.17769 0.82652 0.0
H2777 H 0.2719 0.13414 0.82062 0.0
H2778 H 0.28613 0.14609 0.83566 0.0
H2779 H 0.28332 0.12289 0.82942 0.0
C2780 C 0.33888 0.18066 0.86154 0.0
C2781 C 0.33323 0.16367 0.86785 0.0
C2782 C 0.33526 0.17902 0.84847 0.0
C2783 C 0.32592 0.16039 0.84143 0.0
C2784 C 0.32016 0.14337 0.84767 0.0
H2785 H 0.30483 0.12623 0.76058 0.0
H2786 H 0.30937 0.12683 0.78351 0.0
C2787 C 0.32368 0.14498 0.86076 0.0
C2788 C 0.32318 0.15897 0.82752 0.0
H2789 H 0.28806 0.13887 0.80198 0.0
C2790 C 0.34014 0.16926 0.82116 0.0
C2791 C 0.30413 0.1479 0.82056 0.0
C2792 C 0.2853 0.13727 0.8269 0.0
C2793 C 0.33858 0.16873 0.80802 0.0
C2794 C 0.31957 0.15772 0.80109 0.0
C2795 C 0.30261 0.14724 0.80739 0.0
C2796 C 0.31698 0.15738 0.7873 0.0
C2797 C 0.35723 0.17983 0.80159 0.0
C2798 C 0.31967 0.17435 0.78193 0.0
C2799 C 0.31704 0.17404 0.76889 0.0
C2800 C 0.31175 0.15676 0.76101 0.0
C2801 C 0.30911 0.13979 0.76643 0.0
C2802 C 0.31158 0.14007 0.77949 0.0
H2803 H 0.37098 0.18463 0.80803 0.0
H2804 H 0.35704 0.17047 0.79331 0.0
H2805 H 0.35786 0.19322 0.79817 0.0
H2806 H 0.32372 0.18779 0.78786 0.0
H2807 H 0.31931 0.18736 0.76496 0.0
H2808 H 0.82342 0.19711 0.85897 0.0
H2809 H 0.82898 0.19209 0.83723 0.0
H2810 H 0.78885 0.12921 0.83664 0.0
H2811 H 0.78346 0.13401 0.85858 0.0
H2812 H 0.84375 0.16621 0.82815 0.0
H2813 H 0.76913 0.14617 0.80475 0.0
H2814 H 0.7783 0.15919 0.82036 0.0
H2815 H 0.76963 0.13316 0.81795 0.0
C2816 C 0.81586 0.18217 0.85428 0.0
C2817 C 0.8031 0.16594 0.86056 0.0
C2818 C 0.81897 0.17936 0.84183 0.0
C2819 C 0.80924 0.16032 0.83534 0.0
C2820 C 0.79629 0.14406 0.84147 0.0
H2821 H 0.81288 0.12275 0.75767 0.0
H2822 H 0.80528 0.12358 0.77945 0.0
C2823 C 0.79321 0.14684 0.85398 0.0
C2824 C 0.81327 0.15758 0.82228 0.0
H2825 H 0.79246 0.14616 0.79176 0.0
C2826 C 0.83254 0.16177 0.82018 0.0
C2827 C 0.79855 0.15167 0.81196 0.0
C2828 C 0.77774 0.14738 0.81377 0.0
C2829 C 0.83756 0.16027 0.80797 0.0
C2830 C 0.82301 0.15491 0.79759 0.0
C2831 C 0.8036 0.15034 0.79973 0.0
C2832 C 0.82776 0.1544 0.78444 0.0
C2833 C 0.85832 0.16421 0.80634 0.0
C2834 C 0.84275 0.17152 0.77998 0.0
C2835 C 0.84715 0.17108 0.76756 0.0
C2836 C 0.83647 0.15356 0.75932 0.0
C2837 C 0.82128 0.1365 0.76377 0.0
C2838 C 0.81696 0.13693 0.77621 0.0
H2839 H 0.86543 0.16218 0.81502 0.0
H2840 H 0.85812 0.15428 0.79842 0.0
H2841 H 0.86773 0.17977 0.80428 0.0
H2842 H 0.85091 0.18531 0.78607 0.0
H2843 H 0.85868 0.18455 0.76435 0.0
H2844 H 0.30128 0.1462 0.48951 0.0
H2845 H 0.30904 0.15268 0.51236 0.0
H2846 H 0.36409 0.2061 0.50815 0.0
H2847 H 0.35611 0.19988 0.48522 0.0
H2848 H 0.33951 0.15466 0.52639 0.0
H2849 H 0.3414 0.22631 0.53415 0.0
H2850 H 0.33163 0.21081 0.51937 0.0
H2851 H 0.35813 0.22657 0.52328 0.0
C2852 C 0.31503 0.15934 0.49347 0.0
C2853 C 0.32812 0.17253 0.48562 0.0
C2854 C 0.31942 0.16307 0.50651 0.0
C2855 C 0.33702 0.18001 0.51198 0.0
C2856 C 0.35018 0.1932 0.50416 0.0
H2857 H 0.38401 0.18623 0.58909 0.0
H2858 H 0.38004 0.18642 0.56636 0.0
C2859 C 0.34568 0.18959 0.49108 0.0
C2860 C 0.34186 0.18321 0.52584 0.0
H2861 H 0.35237 0.21576 0.55178 0.0
C2862 C 0.3423 0.16802 0.53194 0.0
C2863 C 0.34527 0.20055 0.53308 0.0
C2864 C 0.3439 0.21692 0.52717 0.0
C2865 C 0.346 0.16963 0.54505 0.0
C2866 C 0.35002 0.18722 0.55227 0.0
C2867 C 0.34954 0.20242 0.5462 0.0
C2868 C 0.35399 0.18969 0.56617 0.0
C2869 C 0.34494 0.1522 0.55105 0.0
C2870 C 0.34138 0.19265 0.57368 0.0
C2871 C 0.3439 0.19306 0.58675 0.0
C2872 C 0.35906 0.19043 0.59256 0.0
C2873 C 0.37226 0.18844 0.58501 0.0
C2874 C 0.36984 0.18825 0.57196 0.0
H2875 H 0.3364 0.13822 0.54467 0.0
H2876 H 0.36028 0.15487 0.55325 0.0
H2877 H 0.33785 0.15014 0.55994 0.0
H2878 H 0.32917 0.19401 0.56939 0.0
H2879 H 0.33373 0.19506 0.59227 0.0
H2880 H 0.83241 0.1707 0.48473 0.0
H2881 H 0.82681 0.17542 0.50655 0.0
H2882 H 0.88848 0.19545 0.51855 0.0
H2883 H 0.89419 0.19052 0.49676 0.0
H2884 H 0.8328 0.15542 0.52593 0.0
H2885 H 0.87844 0.23719 0.53701 0.0
H2886 H 0.87066 0.22527 0.52108 0.0
H2887 H 0.89117 0.22572 0.53012 0.0
C2888 C 0.84482 0.17619 0.492 0.0
C2889 C 0.86373 0.18013 0.48901 0.0
C2890 C 0.84161 0.17899 0.50445 0.0
C2891 C 0.85727 0.18594 0.51413 0.0
C2892 C 0.8763 0.19043 0.51117 0.0
H2893 H 0.84825 0.1689 0.59289 0.0
H2894 H 0.85684 0.17127 0.57125 0.0
C2895 C 0.87952 0.1876 0.49872 0.0
C2896 C 0.85325 0.18689 0.5274 0.0
H2897 H 0.86552 0.21829 0.55421 0.0
C2898 C 0.83989 0.16917 0.5321 0.0
C2899 C 0.86244 0.20489 0.53538 0.0
C2900 C 0.87636 0.22441 0.53066 0.0
C2901 C 0.83571 0.1689 0.54465 0.0
C2902 C 0.84529 0.18679 0.55272 0.0
C2903 C 0.85837 0.20459 0.54799 0.0
C2904 C 0.84173 0.18711 0.5661 0.0
C2905 C 0.82098 0.14948 0.54917 0.0
C2906 C 0.83088 0.19576 0.57042 0.0
C2907 C 0.82599 0.19449 0.5828 0.0
C2908 C 0.83202 0.18469 0.59108 0.0
C2909 C 0.84354 0.17671 0.5868 0.0
C2910 C 0.84834 0.17791 0.57442 0.0
H2911 H 0.81196 0.1379 0.54124 0.0
H2912 H 0.82921 0.1441 0.55505 0.0
H2913 H 0.81073 0.15146 0.55507 0.0
H2914 H 0.82572 0.20298 0.56412 0.0
H2915 H 0.81729 0.20097 0.58587 0.0
H2916 H 0.85609 0.73069 0.50348 0.0
H2917 H 0.84923 0.7168 0.52362 0.0
H2918 H 0.86416 0.67297 0.51089 0.0
H2919 H 0.87109 0.68682 0.49066 0.0
H2920 H 0.82123 0.6787 0.52799 0.0
H2921 H 0.89784 0.69604 0.54492 0.0
H2922 H 0.89285 0.70713 0.53191 0.0
H2923 H 0.88822 0.6822 0.52968 0.0
C2924 C 0.85787 0.71806 0.50494 0.0
C2925 C 0.86412 0.70984 0.49546 0.0
C2926 C 0.85402 0.71019 0.51648 0.0
C2927 C 0.8564 0.69401 0.51881 0.0
C2928 C 0.86263 0.68573 0.50939 0.0
H2929 H 0.83576 0.62885 0.58509 0.0
H2930 H 0.84236 0.63931 0.56394 0.0
C2931 C 0.86656 0.69364 0.49783 0.0
C2932 C 0.85174 0.68553 0.531 0.0
H2933 H 0.8722 0.67718 0.55746 0.0
C2934 C 0.83237 0.67836 0.53443 0.0
C2935 C 0.86629 0.68502 0.53936 0.0
C2936 C 0.88752 0.69315 0.53637 0.0
C2937 C 0.82715 0.67076 0.54601 0.0
C2938 C 0.84177 0.67057 0.55446 0.0
C2939 C 0.86104 0.67736 0.55095 0.0
C2940 C 0.83753 0.66407 0.56717 0.0
C2941 C 0.806 0.66288 0.54909 0.0
C2942 C 0.83283 0.67465 0.57599 0.0
C2943 C 0.82902 0.66871 0.58804 0.0
C2944 C 0.82991 0.65209 0.59151 0.0
C2945 C 0.83472 0.64156 0.58265 0.0
C2946 C 0.8386 0.64757 0.5706 0.0
H2947 H 0.79553 0.6593 0.5405 0.0
H2948 H 0.80085 0.64937 0.55406 0.0
H2949 H 0.80535 0.6743 0.55537 0.0
H2950 H 0.83221 0.68759 0.57358 0.0
H2951 H 0.82521 0.67704 0.5946 0.0
loop_
_geom_bond_atom_site_label_1
_geom_bond_atom_site_label_2
_geom_bond_distance
_geom_bond_site_symmetry_2
_ccdc_geom_bond_type
C0 C1 1.384 . S
C0 H13 0.947 . S
C0 C35 1.382 . S
C1 C0 1.384 . S
C1 C2 1.378 . S
C2 C1 1.378 . S
C2 C3 1.378 . S
C2 H14 0.952 . S
C3 C2 1.378 . S
C3 H15 0.950 . S
C3 C34 1.383 . S
H4 C23 0.947 . S
H5 C24 0.946 . S
H6 C26 0.953 . S
H7 C27 0.945 . S
H8 C29 0.952 . S
H9 C30 0.949 . S
H10 C32 0.950 . S
H11 C33 0.948 . S
H12 C35 0.951 . S
H13 C0 0.947 . S
H14 C2 0.952 . S
H15 C3 0.950 . S
N16 C19 1.382 . S
N16 C21 1.363 . S
N17 C19 1.371 . S
N17 C20 1.372 . S
N18 C20 1.361 . S
N18 C21 1.377 . S
C19 N16 1.382 . S
C19 N17 1.371 . S
C19 C22 1.480 . S
C20 N17 1.372 . S
C20 N18 1.361 . S
C20 C28 1.457 . S
C21 N16 1.363 . S
C21 N18 1.377 . S
C21 C34 1.479 . S
C22 C19 1.480 . S
C22 C23 1.383 . S
C22 C27 1.385 . S
C23 H4 0.947 . S
C23 C22 1.383 . S
C23 C24 1.388 . S
C24 H5 0.946 . S
C24 C23 1.388 . S
C24 C25 1.384 . S
C25 C24 1.384 . S
C25 C26 1.377 . S
C26 H6 0.953 . S
C26 C25 1.377 . S
C26 C27 1.369 . S
C27 H7 0.945 . S
C27 C22 1.385 . S
C27 C26 1.369 . S
C28 C20 1.457 . S
C28 C29 1.372 . S
C28 C33 1.364 . S
C29 H8 0.952 . S
C29 C28 1.372 . S
C29 C30 1.389 . S
C30 H9 0.949 . S
C30 C29 1.389 . S
C30 C31 1.387 . S
C31 C30 1.387 . S
C31 C32 1.372 . S
C32 H10 0.950 . S
C32 C31 1.372 . S
C32 C33 1.379 . S
C33 H11 0.948 . S
C33 C28 1.364 . S
C33 C32 1.379 . S
C34 C3 1.383 . S
C34 C21 1.479 . S
C34 C35 1.398 . S
C35 C0 1.382 . S
C35 H12 0.951 . S
C35 C34 1.398 . S
C36 C37 1.384 . S
C36 H49 0.947 . S
C36 C71 1.382 . S
C37 C36 1.384 . S
C37 C38 1.378 . S
C38 C37 1.378 . S
C38 C39 1.378 . S
C38 H50 0.952 . S
C39 C38 1.378 . S
C39 H51 0.950 . S
C39 C70 1.383 . S
H40 C59 0.947 . S
H41 C60 0.946 . S
H42 C62 0.953 . S
H43 C63 0.945 . S
H44 C65 0.952 . S
H45 C66 0.949 . S
H46 C68 0.950 . S
H47 C69 0.948 . S
H48 C71 0.951 . S
H49 C36 0.947 . S
H50 C38 0.952 . S
H51 C39 0.950 . S
N52 C55 1.382 . S
N52 C57 1.363 . S
N53 C55 1.371 . S
N53 C56 1.372 . S
N54 C56 1.361 . S
N54 C57 1.377 . S
C55 N52 1.382 . S
C55 N53 1.371 . S
C55 C58 1.480 . S
C56 N53 1.372 . S
C56 N54 1.361 . S
C56 C64 1.457 . S
C57 N52 1.363 . S
C57 N54 1.377 . S
C57 C70 1.479 . S
C58 C55 1.480 . S
C58 C59 1.383 . S
C58 C63 1.385 . S
C59 H40 0.947 . S
C59 C58 1.383 . S
C59 C60 1.388 . S
C60 H41 0.946 . S
C60 C59 1.388 . S
C60 C61 1.384 . S
C61 C60 1.384 . S
C61 C62 1.377 . S
C62 H42 0.953 . S
C62 C61 1.377 . S
C62 C63 1.369 . S
C63 H43 0.945 . S
C63 C58 1.385 . S
C63 C62 1.369 . S
C64 C56 1.457 . S
C64 C65 1.372 . S
C64 C69 1.364 . S
C65 H44 0.952 . S
C65 C64 1.372 . S
C65 C66 1.389 . S
C66 H45 0.949 . S
C66 C65 1.389 . S
C66 C67 1.387 . S
C67 C66 1.387 . S
C67 C68 1.372 . S
C68 H46 0.950 . S
C68 C67 1.372 . S
C68 C69 1.379 . S
C69 H47 0.948 . S
C69 C64 1.364 . S
C69 C68 1.379 . S
C70 C39 1.383 . S
C70 C57 1.479 . S
C70 C71 1.398 . S
C71 C36 1.382 . S
C71 H48 0.951 . S
C71 C70 1.398 . S
C72 C73 1.384 . S
C72 H85 0.947 . S
C72 C107 1.382 . S
C73 C72 1.384 . S
C73 C74 1.378 . S
C74 C73 1.378 . S
C74 C75 1.378 . S
C74 H86 0.952 . S
C75 C74 1.378 . S
C75 H87 0.950 . S
C75 C106 1.383 . S
H76 C95 0.947 . S
H77 C96 0.946 . S
H78 C98 0.953 . S
H79 C99 0.945 . S
H80 C101 0.952 . S
H81 C102 0.949 . S
H82 C104 0.950 . S
H83 C105 0.948 . S
H84 C107 0.951 . S
H85 C72 0.947 . S
H86 C74 0.952 . S
H87 C75 0.950 . S
N88 C91 1.382 . S
N88 C93 1.363 . S
N89 C91 1.371 . S
N89 C92 1.372 . S
N90 C92 1.361 . S
N90 C93 1.377 . S
C91 N88 1.382 . S
C91 N89 1.371 . S
C91 C94 1.480 . S
C92 N89 1.372 . S
C92 N90 1.361 . S
C92 C100 1.457 . S
C93 N88 1.363 . S
C93 N90 1.377 . S
C93 C106 1.479 . S
C94 C91 1.480 . S
C94 C95 1.383 . S
C94 C99 1.385 . S
C95 H76 0.947 . S
C95 C94 1.383 . S
C95 C96 1.388 . S
C96 H77 0.946 . S
C96 C95 1.388 . S
C96 C97 1.384 . S
C97 C96 1.384 . S
C97 C98 1.377 . S
C98 H78 0.953 . S
C98 C97 1.377 . S
C98 C99 1.369 . S
C99 H79 0.945 . S
C99 C94 1.385 . S
C99 C98 1.369 . S
C100 C92 1.457 . S
C100 C101 1.372 . S
C100 C105 1.364 . S
C101 H80 0.952 . S
C101 C100 1.372 . S
C101 C102 1.389 . S
C102 H81 0.949 . S
C102 C101 1.389 . S
C102 C103 1.387 . S
C103 C102 1.387 . S
C103 C104 1.372 . S
C104 H82 0.950 . S
C104 C103 1.372 . S
C104 C105 1.379 . S
C105 H83 0.948 . S
C105 C100 1.364 . S
C105 C104 1.379 . S
C106 C75 1.383 . S
C106 C93 1.479 . S
C106 C107 1.398 . S
C107 C72 1.382 . S
C107 H84 0.951 . S
C107 C106 1.398 . S
C108 C109 1.384 . S
C108 H121 0.947 . S
C108 C143 1.382 . S
C109 C108 1.384 . S
C109 C110 1.378 . S
C110 C109 1.378 . S
C110 C111 1.378 . S
C110 H122 0.952 . S
C111 C110 1.378 . S
C111 H123 0.950 . S
C111 C142 1.383 . S
H112 C131 0.947 . S
H113 C132 0.946 . S
H114 C134 0.953 . S
H115 C135 0.945 . S
H116 C137 0.952 . S
H117 C138 0.949 . S
H118 C140 0.950 . S
H119 C141 0.948 . S
H120 C143 0.951 . S
H121 C108 0.947 . S
H122 C110 0.952 . S
H123 C111 0.950 . S
N124 C127 1.382 . S
N124 C129 1.363 . S
N125 C127 1.371 . S
N125 C128 1.372 . S
N126 C128 1.361 . S
N126 C129 1.377 . S
C127 N124 1.382 . S
C127 N125 1.371 . S
C127 C130 1.480 . S
C128 N125 1.372 . S
C128 N126 1.361 . S
C128 C136 1.457 . S
C129 N124 1.363 . S
C129 N126 1.377 . S
C129 C142 1.479 . S
C130 C127 1.480 . S
C130 C131 1.383 . S
C130 C135 1.385 . S
C131 H112 0.947 . S
C131 C130 1.383 . S
C131 C132 1.388 . S
C132 H113 0.946 . S
C132 C131 1.388 . S
C132 C133 1.384 . S
C133 C132 1.384 . S
C133 C134 1.377 . S
C134 H114 0.953 . S
C134 C133 1.377 . S
C134 C135 1.369 . S
C135 H115 0.945 . S
C135 C130 1.385 . S
C135 C134 1.369 . S
C136 C128 1.457 . S
C136 C137 1.372 . S
C136 C141 1.364 . S
C137 H116 0.952 . S
C137 C136 1.372 . S
C137 C138 1.389 . S
C138 H117 0.949 . S
C138 C137 1.389 . S
C138 C139 1.387 . S
C139 C138 1.387 . S
C139 C140 1.372 . S
C140 H118 0.950 . S
C140 C139 1.372 . S
C140 C141 1.379 . S
C141 H119 0.948 . S
C141 C136 1.364 . S
C141 C140 1.379 . S
C142 C111 1.383 . S
C142 C129 1.479 . S
C142 C143 1.398 . S
C143 C108 1.382 . S
C143 H120 0.951 . S
C143 C142 1.398 . S
C144 C145 1.384 . S
C144 H157 0.947 . S
C144 C179 1.382 . S
C145 C144 1.384 . S
C145 C146 1.378 . S
C146 C145 1.378 . S
C146 C147 1.378 . S
C146 H158 0.952 . S
C147 C146 1.378 . S
C147 H159 0.950 . S
C147 C178 1.383 . S
H148 C167 0.947 . S
H149 C168 0.946 . S
H150 C170 0.953 . S
H151 C171 0.945 . S
H152 C173 0.952 . S
H153 C174 0.949 . S
H154 C176 0.950 . S
H155 C177 0.948 . S
H156 C179 0.951 . S
H157 C144 0.947 . S
H158 C146 0.952 . S
H159 C147 0.950 . S
N160 C163 1.382 . S
N160 C165 1.363 . S
N161 C163 1.371 . S
N161 C164 1.372 . S
N162 C164 1.361 . S
N162 C165 1.377 . S
C163 N160 1.382 . S
C163 N161 1.371 . S
C163 C166 1.480 . S
C164 N161 1.372 . S
C164 N162 1.361 . S
C164 C172 1.457 . S
C165 N160 1.363 . S
C165 N162 1.377 . S
C165 C178 1.479 . S
C166 C163 1.480 . S
C166 C167 1.383 . S
C166 C171 1.385 . S
C167 H148 0.947 . S
C167 C166 1.383 . S
C167 C168 1.388 . S
C168 H149 0.946 . S
C168 C167 1.388 . S
C168 C169 1.384 . S
C169 C168 1.384 . S
C169 C170 1.377 . S
C170 H150 0.953 . S
C170 C169 1.377 . S
C170 C171 1.369 . S
C171 H151 0.945 . S
C171 C166 1.385 . S
C171 C170 1.369 . S
C172 C164 1.457 . S
C172 C173 1.372 . S
C172 C177 1.364 . S
C173 H152 0.952 . S
C173 C172 1.372 . S
C173 C174 1.389 . S
C174 H153 0.949 . S
C174 C173 1.389 . S
C174 C175 1.387 . S
C175 C174 1.387 . S
C175 C176 1.372 . S
C176 H154 0.950 . S
C176 C175 1.372 . S
C176 C177 1.379 . S
C177 H155 0.948 . S
C177 C172 1.364 . S
C177 C176 1.379 . S
C178 C147 1.383 . S
C178 C165 1.479 . S
C178 C179 1.398 . S
C179 C144 1.382 . S
C179 H156 0.951 . S
C179 C178 1.398 . S
C180 C181 1.384 . S
C180 H193 0.947 . S
C180 C215 1.382 . S
C181 C180 1.384 . S
C181 C182 1.378 . S
C182 C181 1.378 . S
C182 C183 1.378 . S
C182 H194 0.952 . S
C183 C182 1.378 . S
C183 H195 0.950 . S
C183 C214 1.383 . S
H184 C203 0.947 . S
H185 C204 0.946 . S
H186 C206 0.953 . S
H187 C207 0.945 . S
H188 C209 0.952 . S
H189 C210 0.949 . S
H190 C212 0.950 . S
H191 C213 0.948 . S
H192 C215 0.951 . S
H193 C180 0.947 . S
H194 C182 0.952 . S
H195 C183 0.950 . S
N196 C199 1.382 . S
N196 C201 1.363 . S
N197 C199 1.371 . S
N197 C200 1.372 . S
N198 C200 1.361 . S
N198 C201 1.377 . S
C199 N196 1.382 . S
C199 N197 1.371 . S
C199 C202 1.480 . S
C200 N197 1.372 . S
C200 N198 1.361 . S
C200 C208 1.457 . S
C201 N196 1.363 . S
C201 N198 1.377 . S
C201 C214 1.479 . S
C202 C199 1.480 . S
C202 C203 1.383 . S
C202 C207 1.385 . S
C203 H184 0.947 . S
C203 C202 1.383 . S
C203 C204 1.388 . S
C204 H185 0.946 . S
C204 C203 1.388 . S
C204 C205 1.384 . S
C205 C204 1.384 . S
C205 C206 1.377 . S
C206 H186 0.953 . S
C206 C205 1.377 . S
C206 C207 1.369 . S
C207 H187 0.945 . S
C207 C202 1.385 . S
C207 C206 1.369 . S
C208 C200 1.457 . S
C208 C209 1.372 . S
C208 C213 1.364 . S
C209 H188 0.952 . S
C209 C208 1.372 . S
C209 C210 1.389 . S
C210 H189 0.949 . S
C210 C209 1.389 . S
C210 C211 1.387 . S
C211 C210 1.387 . S
C211 C212 1.372 . S
C212 H190 0.950 . S
C212 C211 1.372 . S
C212 C213 1.379 . S
C213 H191 0.948 . S
C213 C208 1.364 . S
C213 C212 1.379 . S
C214 C183 1.383 . S
C214 C201 1.479 . S
C214 C215 1.398 . S
C215 C180 1.382 . S
C215 H192 0.951 . S
C215 C214 1.398 . S
C216 C217 1.384 . S
C216 H229 0.947 . S
C216 C251 1.382 . S
C217 C216 1.384 . S
C217 C218 1.378 . S
C218 C217 1.378 . S
C218 C219 1.378 . S
C218 H230 0.952 . S
C219 C218 1.378 . S
C219 H231 0.950 . S
C219 C250 1.383 . S
H220 C239 0.947 . S
H221 C240 0.946 . S
H222 C242 0.953 . S
H223 C243 0.945 . S
H224 C245 0.952 . S
H225 C246 0.949 . S
H226 C248 0.950 . S
H227 C249 0.948 . S
H228 C251 0.951 . S
H229 C216 0.947 . S
H230 C218 0.952 . S
H231 C219 0.950 . S
N232 C235 1.382 . S
N232 C237 1.363 . S
N233 C235 1.371 . S
N233 C236 1.372 . S
N234 C236 1.361 . S
N234 C237 1.377 . S
C235 N232 1.382 . S
C235 N233 1.371 . S
C235 C238 1.480 . S
C236 N233 1.372 . S
C236 N234 1.361 . S
C236 C244 1.457 . S
C237 N232 1.363 . S
C237 N234 1.377 . S
C237 C250 1.479 . S
C238 C235 1.480 . S
C238 C239 1.383 . S
C238 C243 1.385 . S
C239 H220 0.947 . S
C239 C238 1.383 . S
C239 C240 1.388 . S
C240 H221 0.946 . S
C240 C239 1.388 . S
C240 C241 1.384 . S
C241 C240 1.384 . S
C241 C242 1.377 . S
C242 H222 0.953 . S
C242 C241 1.377 . S
C242 C243 1.369 . S
C243 H223 0.945 . S
C243 C238 1.385 . S
C243 C242 1.369 . S
C244 C236 1.457 . S
C244 C245 1.372 . S
C244 C249 1.364 . S
C245 H224 0.952 . S
C245 C244 1.372 . S
C245 C246 1.389 . S
C246 H225 0.949 . S
C246 C245 1.389 . S
C246 C247 1.387 . S
C247 C246 1.387 . S
C247 C248 1.372 . S
C248 H226 0.950 . S
C248 C247 1.372 . S
C248 C249 1.379 . S
C249 H227 0.948 . S
C249 C244 1.364 . S
C249 C248 1.379 . S
C250 C219 1.383 . S
C250 C237 1.479 . S
C250 C251 1.398 . S
C251 C216 1.382 . S
C251 H228 0.951 . S
C251 C250 1.398 . S
C252 C253 1.384 . S
C252 H265 0.947 . S
C252 C287 1.382 . S
C253 C252 1.384 . S
C253 C254 1.378 . S
C254 C253 1.378 . S
C254 C255 1.378 . S
C254 H266 0.952 . S
C255 C254 1.378 . S
C255 H267 0.950 . S
C255 C286 1.383 . S
H256 C275 0.947 . S
H257 C276 0.946 . S
H258 C278 0.953 . S
H259 C279 0.945 . S
H260 C281 0.952 . S
H261 C282 0.949 . S
H262 C284 0.950 . S
H263 C285 0.948 . S
H264 C287 0.951 . S
H265 C252 0.947 . S
H266 C254 0.952 . S
H267 C255 0.950 . S
N268 C271 1.382 . S
N268 C273 1.363 . S
N269 C271 1.371 . S
N269 C272 1.372 . S
N270 C272 1.361 . S
N270 C273 1.377 . S
C271 N268 1.382 . S
C271 N269 1.371 . S
C271 C274 1.480 . S
C272 N269 1.372 . S
C272 N270 1.361 . S
C272 C280 1.457 . S
C273 N268 1.363 . S
C273 N270 1.377 . S
C273 C286 1.479 . S
C274 C271 1.480 . S
C274 C275 1.383 . S
C274 C279 1.385 . S
C275 H256 0.947 . S
C275 C274 1.383 . S
C275 C276 1.388 . S
C276 H257 0.946 . S
C276 C275 1.388 . S
C276 C277 1.384 . S
C277 C276 1.384 . S
C277 C278 1.377 . S
C278 H258 0.953 . S
C278 C277 1.377 . S
C278 C279 1.369 . S
C279 H259 0.945 . S
C279 C274 1.385 . S
C279 C278 1.369 . S
C280 C272 1.457 . S
C280 C281 1.372 . S
C280 C285 1.364 . S
C281 H260 0.952 . S
C281 C280 1.372 . S
C281 C282 1.389 . S
C282 H261 0.949 . S
C282 C281 1.389 . S
C282 C283 1.387 . S
C283 C282 1.387 . S
C283 C284 1.372 . S
C284 H262 0.950 . S
C284 C283 1.372 . S
C284 C285 1.379 . S
C285 H263 0.948 . S
C285 C280 1.364 . S
C285 C284 1.379 . S
C286 C255 1.383 . S
C286 C273 1.479 . S
C286 C287 1.398 . S
C287 C252 1.382 . S
C287 H264 0.951 . S
C287 C286 1.398 . S
C288 C289 1.384 . S
C288 H301 0.947 . S
C288 C323 1.382 . S
C289 C288 1.384 . S
C289 C290 1.378 . S
C290 C289 1.378 . S
C290 C291 1.378 . S
C290 H302 0.952 . S
C291 C290 1.378 . S
C291 H303 0.950 . S
C291 C322 1.383 . S
H292 C311 0.947 . S
H293 C312 0.946 . S
H294 C314 0.953 . S
H295 C315 0.945 . S
H296 C317 0.952 . S
H297 C318 0.949 . S
H298 C320 0.950 . S
H299 C321 0.948 . S
H300 C323 0.951 . S
H301 C288 0.947 . S
H302 C290 0.952 . S
H303 C291 0.950 . S
N304 C307 1.382 . S
N304 C309 1.363 . S
N305 C307 1.371 . S
N305 C308 1.372 . S
N306 C308 1.361 . S
N306 C309 1.377 . S
C307 N304 1.382 . S
C307 N305 1.371 . S
C307 C310 1.480 . S
C308 N305 1.372 . S
C308 N306 1.361 . S
C308 C316 1.457 . S
C309 N304 1.363 . S
C309 N306 1.377 . S
C309 C322 1.479 . S
C310 C307 1.480 . S
C310 C311 1.383 . S
C310 C315 1.385 . S
C311 H292 0.947 . S
C311 C310 1.383 . S
C311 C312 1.388 . S
C312 H293 0.946 . S
C312 C311 1.388 . S
C312 C313 1.384 . S
C313 C312 1.384 . S
C313 C314 1.377 . S
C314 H294 0.953 . S
C314 C313 1.377 . S
C314 C315 1.369 . S
C315 H295 0.945 . S
C315 C310 1.385 . S
C315 C314 1.369 . S
C316 C308 1.457 . S
C316 C317 1.372 . S
C316 C321 1.364 . S
C317 H296 0.952 . S
C317 C316 1.372 . S
C317 C318 1.389 . S
C318 H297 0.949 . S
C318 C317 1.389 . S
C318 C319 1.387 . S
C319 C318 1.387 . S
C319 C320 1.372 . S
C320 H298 0.950 . S
C320 C319 1.372 . S
C320 C321 1.379 . S
C321 H299 0.948 . S
C321 C316 1.364 . S
C321 C320 1.379 . S
C322 C291 1.383 . S
C322 C309 1.479 . S
C322 C323 1.398 . S
C323 C288 1.382 . S
C323 H300 0.951 . S
C323 C322 1.398 . S
C324 C325 1.384 . S
C324 H337 0.947 . S
C324 C359 1.382 . S
C325 C324 1.384 . S
C325 C326 1.378 . S
C326 C325 1.378 . S
C326 C327 1.378 . S
C326 H338 0.952 . S
C327 C326 1.378 . S
C327 H339 0.950 . S
C327 C358 1.383 . S
H328 C347 0.947 . S
H329 C348 0.946 . S
H330 C350 0.953 . S
H331 C351 0.945 . S
H332 C353 0.952 . S
H333 C354 0.949 . S
H334 C356 0.950 . S
H335 C357 0.948 . S
H336 C359 0.951 . S
H337 C324 0.947 . S
H338 C326 0.952 . S
H339 C327 0.950 . S
N340 C343 1.382 . S
N340 C345 1.363 . S
N341 C343 1.371 . S
N341 C344 1.372 . S
N342 C344 1.361 . S
N342 C345 1.377 . S
C343 N340 1.382 . S
C343 N341 1.371 . S
C343 C346 1.480 . S
C344 N341 1.372 . S
C344 N342 1.361 . S
C344 C352 1.457 . S
C345 N340 1.363 . S
C345 N342 1.377 . S
C345 C358 1.479 . S
C346 C343 1.480 . S
C346 C347 1.383 . S
C346 C351 1.385 . S
C347 H328 0.947 . S
C347 C346 1.383 . S
C347 C348 1.388 . S
C348 H329 0.946 . S
C348 C347 1.388 . S
C348 C349 1.384 . S
C349 C348 1.384 . S
C349 C350 1.377 . S
C350 H330 0.953 . S
C350 C349 1.377 . S
C350 C351 1.369 . S
C351 H331 0.945 . S
C351 C346 1.385 . S
C351 C350 1.369 . S
C352 C344 1.457 . S
C352 C353 1.372 . S
C352 C357 1.364 . S
C353 H332 0.952 . S
C353 C352 1.372 . S
C353 C354 1.389 . S
C354 H333 0.949 . S
C354 C353 1.389 . S
C354 C355 1.387 . S
C355 C354 1.387 . S
C355 C356 1.372 . S
C356 H334 0.950 . S
C356 C355 1.372 . S
C356 C357 1.379 . S
C357 H335 0.948 . S
C357 C352 1.364 . S
C357 C356 1.379 . S
C358 C327 1.383 . S
C358 C345 1.479 . S
C358 C359 1.398 . S
C359 C324 1.382 . S
C359 H336 0.951 . S
C359 C358 1.398 . S
C360 C361 1.384 . S
C360 H373 0.947 . S
C360 C395 1.382 . S
C361 C360 1.384 . S
C361 C362 1.378 . S
C362 C361 1.378 . S
C362 C363 1.378 . S
C362 H374 0.952 . S
C363 C362 1.378 . S
C363 H375 0.950 . S
C363 C394 1.383 . S
H364 C383 0.947 . S
H365 C384 0.946 . S
H366 C386 0.953 . S
H367 C387 0.945 . S
H368 C389 0.952 . S
H369 C390 0.949 . S
H370 C392 0.950 . S
H371 C393 0.948 . S
H372 C395 0.951 . S
H373 C360 0.947 . S
H374 C362 0.952 . S
H375 C363 0.950 . S
N376 C379 1.382 . S
N376 C381 1.363 . S
N377 C379 1.371 . S
N377 C380 1.372 . S
N378 C380 1.361 . S
N378 C381 1.377 . S
C379 N376 1.382 . S
C379 N377 1.371 . S
C379 C382 1.480 . S
C380 N377 1.372 . S
C380 N378 1.361 . S
C380 C388 1.457 . S
C381 N376 1.363 . S
C381 N378 1.377 . S
C381 C394 1.479 . S
C382 C379 1.480 . S
C382 C383 1.383 . S
C382 C387 1.385 . S
C383 H364 0.947 . S
C383 C382 1.383 . S
C383 C384 1.388 . S
C384 H365 0.946 . S
C384 C383 1.388 . S
C384 C385 1.384 . S
C385 C384 1.384 . S
C385 C386 1.377 . S
C386 H366 0.953 . S
C386 C385 1.377 . S
C386 C387 1.369 . S
C387 H367 0.945 . S
C387 C382 1.385 . S
C387 C386 1.369 . S
C388 C380 1.457 . S
C388 C389 1.372 . S
C388 C393 1.364 . S
C389 H368 0.952 . S
C389 C388 1.372 . S
C389 C390 1.389 . S
C390 H369 0.949 . S
C390 C389 1.389 . S
C390 C391 1.387 . S
C391 C390 1.387 . S
C391 C392 1.372 . S
C392 H370 0.950 . S
C392 C391 1.372 . S
C392 C393 1.379 . S
C393 H371 0.948 . S
C393 C388 1.364 . S
C393 C392 1.379 . S
C394 C363 1.383 . S
C394 C381 1.479 . S
C394 C395 1.398 . S
C395 C360 1.382 . S
C395 H372 0.951 . S
C395 C394 1.398 . S
C396 C397 1.384 . S
C396 H409 0.947 . S
C396 C431 1.382 . S
C397 C396 1.384 . S
C397 C398 1.378 . S
C398 C397 1.378 . S
C398 C399 1.378 . S
C398 H410 0.952 . S
C399 C398 1.378 . S
C399 H411 0.950 . S
C399 C430 1.383 . S
H400 C419 0.947 . S
H401 C420 0.946 . S
H402 C422 0.953 . S
H403 C423 0.945 . S
H404 C425 0.952 . S
H405 C426 0.949 . S
H406 C428 0.950 . S
H407 C429 0.948 . S
H408 C431 0.951 . S
H409 C396 0.947 . S
H410 C398 0.952 . S
H411 C399 0.950 . S
N412 C415 1.382 . S
N412 C417 1.363 . S
N413 C415 1.371 . S
N413 C416 1.372 . S
N414 C416 1.361 . S
N414 C417 1.377 . S
C415 N412 1.382 . S
C415 N413 1.371 . S
C415 C418 1.480 . S
C416 N413 1.372 . S
C416 N414 1.361 . S
C416 C424 1.457 . S
C417 N412 1.363 . S
C417 N414 1.377 . S
C417 C430 1.479 . S
C418 C415 1.480 . S
C418 C419 1.383 . S
C418 C423 1.385 . S
C419 H400 0.947 . S
C419 C418 1.383 . S
C419 C420 1.388 . S
C420 H401 0.946 . S
C420 C419 1.388 . S
C420 C421 1.384 . S
C421 C420 1.384 . S
C421 C422 1.377 . S
C422 H402 0.953 . S
C422 C421 1.377 . S
C422 C423 1.369 . S
C423 H403 0.945 . S
C423 C418 1.385 . S
C423 C422 1.369 . S
C424 C416 1.457 . S
C424 C425 1.372 . S
C424 C429 1.364 . S
C425 H404 0.952 . S
C425 C424 1.372 . S
C425 C426 1.389 . S
C426 H405 0.949 . S
C426 C425 1.389 . S
C426 C427 1.387 . S
C427 C426 1.387 . S
C427 C428 1.372 . S
C428 H406 0.950 . S
C428 C427 1.372 . S
C428 C429 1.379 . S
C429 H407 0.948 . S
C429 C424 1.364 . S
C429 C428 1.379 . S
C430 C399 1.383 . S
C430 C417 1.479 . S
C430 C431 1.398 . S
C431 C396 1.382 . S
C431 H408 0.951 . S
C431 C430 1.398 . S
C432 C433 1.384 . S
C432 H445 0.947 . S
C432 C467 1.382 . S
C433 C432 1.384 . S
C433 C434 1.378 . S
C434 C433 1.378 . S
C434 C435 1.378 . S
C434 H446 0.952 . S
C435 C434 1.378 . S
C435 H447 0.950 . S
C435 C466 1.383 . S
H436 C455 0.947 . S
H437 C456 0.946 . S
H438 C458 0.953 . S
H439 C459 0.945 . S
H440 C461 0.952 . S
H441 C462 0.949 . S
H442 C464 0.950 . S
H443 C465 0.948 . S
H444 C467 0.951 . S
H445 C432 0.947 . S
H446 C434 0.952 . S
H447 C435 0.950 . S
N448 C451 1.382 . S
N448 C453 1.363 . S
N449 C451 1.371 . S
N449 C452 1.372 . S
N450 C452 1.361 . S
N450 C453 1.377 . S
C451 N448 1.382 . S
C451 N449 1.371 . S
C451 C454 1.480 . S
C452 N449 1.372 . S
C452 N450 1.361 . S
C452 C460 1.457 . S
C453 N448 1.363 . S
C453 N450 1.377 . S
C453 C466 1.479 . S
C454 C451 1.480 . S
C454 C455 1.383 . S
C454 C459 1.385 . S
C455 H436 0.947 . S
C455 C454 1.383 . S
C455 C456 1.388 . S
C456 H437 0.946 . S
C456 C455 1.388 . S
C456 C457 1.384 . S
C457 C456 1.384 . S
C457 C458 1.377 . S
C458 H438 0.953 . S
C458 C457 1.377 . S
C458 C459 1.369 . S
C459 H439 0.945 . S
C459 C454 1.385 . S
C459 C458 1.369 . S
C460 C452 1.457 . S
C460 C461 1.372 . S
C460 C465 1.364 . S
C461 H440 0.952 . S
C461 C460 1.372 . S
C461 C462 1.389 . S
C462 H441 0.949 . S
C462 C461 1.389 . S
C462 C463 1.387 . S
C463 C462 1.387 . S
C463 C464 1.372 . S
C464 H442 0.950 . S
C464 C463 1.372 . S
C464 C465 1.379 . S
C465 H443 0.948 . S
C465 C460 1.364 . S
C465 C464 1.379 . S
C466 C435 1.383 . S
C466 C453 1.479 . S
C466 C467 1.398 . S
C467 C432 1.382 . S
C467 H444 0.951 . S
C467 C466 1.398 . S
C468 C469 1.384 . S
C468 H481 0.947 . S
C468 C503 1.382 . S
C469 C468 1.384 . S
C469 C470 1.378 . S
C470 C469 1.378 . S
C470 C471 1.378 . S
C470 H482 0.952 . S
C471 C470 1.378 . S
C471 H483 0.950 . S
C471 C502 1.383 . S
H472 C491 0.947 . S
H473 C492 0.946 . S
H474 C494 0.953 . S
H475 C495 0.945 . S
H476 C497 0.952 . S
H477 C498 0.949 . S
H478 C500 0.950 . S
H479 C501 0.948 . S
H480 C503 0.951 . S
H481 C468 0.947 . S
H482 C470 0.952 . S
H483 C471 0.950 . S
N484 C487 1.382 . S
N484 C489 1.363 . S
N485 C487 1.371 . S
N485 C488 1.372 . S
N486 C488 1.361 . S
N486 C489 1.377 . S
C487 N484 1.382 . S
C487 N485 1.371 . S
C487 C490 1.480 . S
C488 N485 1.372 . S
C488 N486 1.361 . S
C488 C496 1.457 . S
C489 N484 1.363 . S
C489 N486 1.377 . S
C489 C502 1.479 . S
C490 C487 1.480 . S
C490 C491 1.383 . S
C490 C495 1.385 . S
C491 H472 0.947 . S
C491 C490 1.383 . S
C491 C492 1.388 . S
C492 H473 0.946 . S
C492 C491 1.388 . S
C492 C493 1.384 . S
C493 C492 1.384 . S
C493 C494 1.377 . S
C494 H474 0.953 . S
C494 C493 1.377 . S
C494 C495 1.369 . S
C495 H475 0.945 . S
C495 C490 1.385 . S
C495 C494 1.369 . S
C496 C488 1.457 . S
C496 C497 1.372 . S
C496 C501 1.364 . S
C497 H476 0.952 . S
C497 C496 1.372 . S
C497 C498 1.389 . S
C498 H477 0.949 . S
C498 C497 1.389 . S
C498 C499 1.387 . S
C499 C498 1.387 . S
C499 C500 1.372 . S
C500 H478 0.950 . S
C500 C499 1.372 . S
C500 C501 1.379 . S
C501 H479 0.948 . S
C501 C496 1.364 . S
C501 C500 1.379 . S
C502 C471 1.383 . S
C502 C489 1.479 . S
C502 C503 1.398 . S
C503 C468 1.382 . S
C503 H480 0.951 . S
C503 C502 1.398 . S
C504 C505 1.384 . S
C504 H517 0.947 . S
C504 C539 1.382 . S
C505 C504 1.384 . S
C505 C506 1.378 . S
C506 C505 1.378 . S
C506 C507 1.378 . S
C506 H518 0.952 . S
C507 C506 1.378 . S
C507 H519 0.950 . S
C507 C538 1.383 . S
H508 C527 0.947 . S
H509 C528 0.946 . S
H510 C530 0.953 . S
H511 C531 0.945 . S
H512 C533 0.952 . S
H513 C534 0.949 . S
H514 C536 0.950 . S
H515 C537 0.948 . S
H516 C539 0.951 . S
H517 C504 0.947 . S
H518 C506 0.952 . S
H519 C507 0.950 . S
N520 C523 1.382 . S
N520 C525 1.363 . S
N521 C523 1.371 . S
N521 C524 1.372 . S
N522 C524 1.361 . S
N522 C525 1.377 . S
C523 N520 1.382 . S
C523 N521 1.371 . S
C523 C526 1.480 . S
C524 N521 1.372 . S
C524 N522 1.361 . S
C524 C532 1.457 . S
C525 N520 1.363 . S
C525 N522 1.377 . S
C525 C538 1.479 . S
C526 C523 1.480 . S
C526 C527 1.383 . S
C526 C531 1.385 . S
C527 H508 0.947 . S
C527 C526 1.383 . S
C527 C528 1.388 . S
C528 H509 0.946 . S
C528 C527 1.388 . S
C528 C529 1.384 . S
C529 C528 1.384 . S
C529 C530 1.377 . S
C530 H510 0.953 . S
C530 C529 1.377 . S
C530 C531 1.369 . S
C531 H511 0.945 . S
C531 C526 1.385 . S
C531 C530 1.369 . S
C532 C524 1.457 . S
C532 C533 1.372 . S
C532 C537 1.364 . S
C533 H512 0.952 . S
C533 C532 1.372 . S
C533 C534 1.389 . S
C534 H513 0.949 . S
C534 C533 1.389 . S
C534 C535 1.387 . S
C535 C534 1.387 . S
C535 C536 1.372 . S
C536 H514 0.950 . S
C536 C535 1.372 . S
C536 C537 1.379 . S
C537 H515 0.948 . S
C537 C532 1.364 . S
C537 C536 1.379 . S
C538 C507 1.383 . S
C538 C525 1.479 . S
C538 C539 1.398 . S
C539 C504 1.382 . S
C539 H516 0.951 . S
C539 C538 1.398 . S
C540 C541 1.384 . S
C540 H553 0.947 . S
C540 C575 1.382 . S
C541 C540 1.384 . S
C541 C542 1.378 . S
C542 C541 1.378 . S
C542 C543 1.378 . S
C542 H554 0.952 . S
C543 C542 1.378 . S
C543 H555 0.950 . S
C543 C574 1.383 . S
H544 C563 0.947 . S
H545 C564 0.946 . S
H546 C566 0.953 . S
H547 C567 0.945 . S
H548 C569 0.952 . S
H549 C570 0.949 . S
H550 C572 0.950 . S
H551 C573 0.948 . S
H552 C575 0.951 . S
H553 C540 0.947 . S
H554 C542 0.952 . S
H555 C543 0.950 . S
N556 C559 1.382 . S
N556 C561 1.363 . S
N557 C559 1.371 . S
N557 C560 1.372 . S
N558 C560 1.361 . S
N558 C561 1.377 . S
C559 N556 1.382 . S
C559 N557 1.371 . S
C559 C562 1.480 . S
C560 N557 1.372 . S
C560 N558 1.361 . S
C560 C568 1.457 . S
C561 N556 1.363 . S
C561 N558 1.377 . S
C561 C574 1.479 . S
C562 C559 1.480 . S
C562 C563 1.383 . S
C562 C567 1.385 . S
C563 H544 0.947 . S
C563 C562 1.383 . S
C563 C564 1.388 . S
C564 H545 0.946 . S
C564 C563 1.388 . S
C564 C565 1.384 . S
C565 C564 1.384 . S
C565 C566 1.377 . S
C566 H546 0.953 . S
C566 C565 1.377 . S
C566 C567 1.369 . S
C567 H547 0.945 . S
C567 C562 1.385 . S
C567 C566 1.369 . S
C568 C560 1.457 . S
C568 C569 1.372 . S
C568 C573 1.364 . S
C569 H548 0.952 . S
C569 C568 1.372 . S
C569 C570 1.389 . S
C570 H549 0.949 . S
C570 C569 1.389 . S
C570 C571 1.387 . S
C571 C570 1.387 . S
C571 C572 1.372 . S
C572 H550 0.950 . S
C572 C571 1.372 . S
C572 C573 1.379 . S
C573 H551 0.948 . S
C573 C568 1.364 . S
C573 C572 1.379 . S
C574 C543 1.383 . S
C574 C561 1.479 . S
C574 C575 1.398 . S
C575 C540 1.382 . S
C575 H552 0.951 . S
C575 C574 1.398 . S
C576 C577 1.384 . S
C576 H589 0.947 . S
C576 C611 1.382 . S
C577 C576 1.384 . S
C577 C578 1.378 . S
C578 C577 1.378 . S
C578 C579 1.378 . S
C578 H590 0.952 . S
C579 C578 1.378 . S
C579 H591 0.950 . S
C579 C610 1.383 . S
H580 C599 0.947 . S
H581 C600 0.946 . S
H582 C602 0.953 . S
H583 C603 0.945 . S
H584 C605 0.952 . S
H585 C606 0.949 . S
H586 C608 0.950 . S
H587 C609 0.948 . S
H588 C611 0.951 . S
H589 C576 0.947 . S
H590 C578 0.952 . S
H591 C579 0.950 . S
N592 C595 1.382 . S
N592 C597 1.363 . S
N593 C595 1.371 . S
N593 C596 1.372 . S
N594 C596 1.361 . S
N594 C597 1.377 . S
C595 N592 1.382 . S
C595 N593 1.371 . S
C595 C598 1.480 . S
C596 N593 1.372 . S
C596 N594 1.361 . S
C596 C604 1.457 . S
C597 N592 1.363 . S
C597 N594 1.377 . S
C597 C610 1.479 . S
C598 C595 1.480 . S
C598 C599 1.383 . S
C598 C603 1.385 . S
C599 H580 0.947 . S
C599 C598 1.383 . S
C599 C600 1.388 . S
C600 H581 0.946 . S
C600 C599 1.388 . S
C600 C601 1.384 . S
C601 C600 1.384 . S
C601 C602 1.377 . S
C602 H582 0.953 . S
C602 C601 1.377 . S
C602 C603 1.369 . S
C603 H583 0.945 . S
C603 C598 1.385 . S
C603 C602 1.369 . S
C604 C596 1.457 . S
C604 C605 1.372 . S
C604 C609 1.364 . S
C605 H584 0.952 . S
C605 C604 1.372 . S
C605 C606 1.389 . S
C606 H585 0.949 . S
C606 C605 1.389 . S
C606 C607 1.387 . S
C607 C606 1.387 . S
C607 C608 1.372 . S
C608 H586 0.950 . S
C608 C607 1.372 . S
C608 C609 1.379 . S
C609 H587 0.948 . S
C609 C604 1.364 . S
C609 C608 1.379 . S
C610 C579 1.383 . S
C610 C597 1.479 . S
C610 C611 1.398 . S
C611 C576 1.382 . S
C611 H588 0.951 . S
C611 C610 1.398 . S
C612 C613 1.384 . S
C612 H625 0.947 . S
C612 C647 1.382 . S
C613 C612 1.384 . S
C613 C614 1.378 . S
C614 C613 1.378 . S
C614 C615 1.378 . S
C614 H626 0.952 . S
C615 C614 1.378 . S
C615 H627 0.950 . S
C615 C646 1.383 . S
H616 C635 0.947 . S
H617 C636 0.946 . S
H618 C638 0.953 . S
H619 C639 0.945 . S
H620 C641 0.952 . S
H621 C642 0.949 . S
H622 C644 0.950 . S
H623 C645 0.948 . S
H624 C647 0.951 . S
H625 C612 0.947 . S
H626 C614 0.952 . S
H627 C615 0.950 . S
N628 C631 1.382 . S
N628 C633 1.363 . S
N629 C631 1.371 . S
N629 C632 1.372 . S
N630 C632 1.361 . S
N630 C633 1.377 . S
C631 N628 1.382 . S
C631 N629 1.371 . S
C631 C634 1.480 . S
C632 N629 1.372 . S
C632 N630 1.361 . S
C632 C640 1.457 . S
C633 N628 1.363 . S
C633 N630 1.377 . S
C633 C646 1.479 . S
C634 C631 1.480 . S
C634 C635 1.383 . S
C634 C639 1.385 . S
C635 H616 0.947 . S
C635 C634 1.383 . S
C635 C636 1.388 . S
C636 H617 0.946 . S
C636 C635 1.388 . S
C636 C637 1.384 . S
C637 C636 1.384 . S
C637 C638 1.377 . S
C638 H618 0.953 . S
C638 C637 1.377 . S
C638 C639 1.369 . S
C639 H619 0.945 . S
C639 C634 1.385 . S
C639 C638 1.369 . S
C640 C632 1.457 . S
C640 C641 1.372 . S
C640 C645 1.364 . S
C641 H620 0.952 . S
C641 C640 1.372 . S
C641 C642 1.389 . S
C642 H621 0.949 . S
C642 C641 1.389 . S
C642 C643 1.387 . S
C643 C642 1.387 . S
C643 C644 1.372 . S
C644 H622 0.950 . S
C644 C643 1.372 . S
C644 C645 1.379 . S
C645 H623 0.948 . S
C645 C640 1.364 . S
C645 C644 1.379 . S
C646 C615 1.383 . S
C646 C633 1.479 . S
C646 C647 1.398 . S
C647 C612 1.382 . S
C647 H624 0.951 . S
C647 C646 1.398 . S
Tb648 C658 2.825 . S
Tb648 O659 2.347 1_565 S
Tb648 O662 2.366 1_565 S
Tb648 O667 2.418 . S
Tb648 O668 2.423 . S
Tb648 O671 2.479 . S
Tb648 O672 2.471 1_565 S
Eu649 O660 2.418 . S
Eu649 O661 2.384 . S
Eu649 O664 2.479 . S
Eu649 O665 2.439 1_545 S
Eu649 O666 2.347 1_545 S
Eu649 O669 2.366 1_545 S
Eu649 C679 2.825 . S
C650 O666 1.259 . S
C650 O667 1.265 1_554 S
C651 O668 1.209 1_554 S
C651 O669 1.265 . S
C652 C654 1.380 . S
C652 C655 1.374 1_565 S
C652 C658 1.507 . S
C653 C654 1.384 . S
C653 C657 1.387 1_565 S
C653 H680 0.930 . S
C654 C652 1.380 . S
C654 C653 1.384 . S
C654 H681 0.931 . S
C655 C652 1.374 1_545 S
C655 C656 1.390 . S
C655 H682 0.930 . S
C656 C655 1.390 . S
C656 C657 1.391 . S
C656 H683 0.930 . S
C657 C653 1.387 1_545 S
C657 C656 1.391 . S
C658 Tb648 2.825 . S
C658 C652 1.507 . S
C658 O671 1.238 . S
C658 O672 1.247 1_565 S
O659 Tb648 2.347 1_545 S
O659 C663 1.292 . S
O660 Eu649 2.418 . S
O660 C663 1.185 1_554 S
O661 Eu649 2.384 . S
O661 C670 1.255 1_554 S
O662 Tb648 2.366 1_545 S
O662 C670 1.265 . S
C663 O659 1.292 . S
C663 O660 1.185 1_556 S
O664 Eu649 2.479 . S
O664 C679 1.238 . S
O665 Eu649 2.439 1_565 S
O665 C679 1.199 1_565 S
O666 Eu649 2.347 1_565 S
O666 C650 1.259 . S
O667 Tb648 2.418 . S
O667 C650 1.265 1_556 S
O668 Tb648 2.423 . S
O668 C651 1.209 1_556 S
O669 Eu649 2.366 1_565 S
O669 C651 1.265 . S
C670 O661 1.255 1_556 S
C670 O662 1.265 . S
O671 Tb648 2.479 . S
O671 C658 1.238 . S
O672 Tb648 2.471 1_545 S
O672 C658 1.247 1_545 S
C673 C676 1.380 . S
C673 C677 1.374 1_545 S
C673 C679 1.507 . S
C674 C675 1.387 1_565 S
C674 C678 1.391 . S
C675 C674 1.387 1_545 S
C675 C676 1.384 . S
C675 H684 0.930 . S
C676 C673 1.380 . S
C676 C675 1.384 . S
C676 H685 0.931 . S
C677 C673 1.374 1_565 S
C677 C678 1.390 . S
C677 H686 0.930 . S
C678 C674 1.391 . S
C678 C677 1.390 . S
C678 H687 0.930 . S
C679 Eu649 2.825 . S
C679 O664 1.238 . S
C679 O665 1.199 1_545 S
C679 C673 1.507 . S
H680 C653 0.930 . S
H681 C654 0.931 . S
H682 C655 0.930 . S
H683 C656 0.930 . S
H684 C675 0.930 . S
H685 C676 0.931 . S
H686 C677 0.930 . S
H687 C678 0.930 . S
Tb688 C698 2.825 . S
Tb688 O699 2.347 1_455 S
Tb688 O702 2.366 1_455 S
Tb688 O707 2.418 . S
Tb688 O708 2.384 1_556 S
Tb688 O711 2.479 . S
Tb688 O712 2.471 1_455 S
Eu689 O700 2.418 . S
Eu689 O701 2.372 1_554 S
Eu689 O704 2.479 . S
Eu689 O705 2.471 1_655 S
Eu689 O706 2.347 1_655 S
Eu689 O709 2.366 1_655 S
Eu689 C719 2.825 . S
C690 O706 1.259 . S
C690 O707 1.265 1_554 S
C691 O708 1.255 . S
C691 O709 1.265 . S
C692 C694 1.380 . S
C692 C695 1.374 1_455 S
C692 C698 1.507 . S
C693 C694 1.384 . S
C693 C697 1.387 1_455 S
C693 H720 0.930 . S
C694 C692 1.380 . S
C694 C693 1.384 . S
C694 H721 0.931 . S
C695 C692 1.374 1_655 S
C695 C696 1.390 . S
C695 H722 0.930 . S
C696 C695 1.390 . S
C696 C697 1.391 . S
C696 H723 0.930 . S
C697 C693 1.387 1_655 S
C697 C696 1.391 . S
C698 Tb688 2.825 . S
C698 C692 1.507 . S
C698 O711 1.238 . S
C698 O712 1.247 1_455 S
O699 Tb688 2.347 1_655 S
O699 C703 1.259 . S
O700 Eu689 2.418 . S
O700 C703 1.265 1_554 S
O701 Eu689 2.372 1_556 S
O701 C710 1.270 . S
O702 Tb688 2.366 1_655 S
O702 C710 1.265 . S
C703 O699 1.259 . S
C703 O700 1.265 1_556 S
O704 Eu689 2.479 . S
O704 C719 1.238 . S
O705 Eu689 2.471 1_455 S
O705 C719 1.247 1_455 S
O706 Eu689 2.347 1_455 S
O706 C690 1.259 . S
O707 Tb688 2.418 . S
O707 C690 1.265 1_556 S
O708 Tb688 2.384 1_554 S
O708 C691 1.255 . S
O709 Eu689 2.366 1_455 S
O709 C691 1.265 . S
C710 O701 1.270 . S
C710 O702 1.265 . S
O711 Tb688 2.479 . S
O711 C698 1.238 . S
O712 Tb688 2.471 1_655 S
O712 C698 1.247 1_655 S
C713 C716 1.403 . S
C713 C717 1.336 1_655 S
C713 C719 1.525 . S
C714 C715 1.387 1_455 S
C714 C718 1.391 . S
C715 C714 1.387 1_655 S
C715 C716 1.384 . S
C715 H724 0.930 . S
C716 C713 1.403 . S
C716 C715 1.384 . S
C716 H725 0.931 . S
C717 C713 1.336 1_455 S
C717 C718 1.390 . S
C717 H726 0.930 . S
C718 C714 1.391 . S
C718 C717 1.390 . S
C718 H727 0.930 . S
C719 Eu689 2.825 . S
C719 O704 1.238 . S
C719 O705 1.247 1_655 S
C719 C713 1.525 . S
H720 C693 0.930 . S
H721 C694 0.931 . S
H722 C695 0.930 . S
H723 C696 0.930 . S
H724 C715 0.930 . S
H725 C716 0.931 . S
H726 C717 0.930 . S
H727 C718 0.930 . S
Tb728 C738 2.825 . S
Tb728 O739 2.347 . S
Tb728 O742 2.366 . S
Tb728 O747 2.418 . S
Tb728 O748 2.384 . S
Tb728 O751 2.479 . S
Tb728 O752 2.471 . S
Eu729 O740 2.418 . S
Eu729 O741 2.384 1_556 S
Eu729 O744 2.479 . S
Eu729 O745 2.471 . S
Eu729 O746 2.347 . S
Eu729 O749 2.366 . S
Eu729 C759 2.825 . S
C730 O746 1.259 . S
C730 O747 1.265 1_556 S
C731 O748 1.255 1_556 S
C731 O749 1.265 . S
C732 C734 1.380 . S
C732 C735 1.374 . S
C732 C738 1.507 . S
C733 C734 1.384 . S
C733 C737 1.387 . S
C733 H760 0.930 . S
C734 C732 1.380 . S
C734 C733 1.384 . S
C734 H761 0.931 . S
C735 C732 1.374 . S
C735 C736 1.390 . S
C735 H762 0.930 . S
C736 C735 1.390 . S
C736 C737 1.391 . S
C736 H763 0.930 . S
C737 C733 1.387 . S
C737 C736 1.391 . S
C738 Tb728 2.825 . S
C738 C732 1.507 . S
C738 O751 1.238 . S
C738 O752 1.247 . S
O739 Tb728 2.347 . S
O739 C743 1.259 . S
O740 Eu729 2.418 . S
O740 C743 1.265 1_556 S
O741 Eu729 2.384 1_554 S
O741 C750 1.255 . S
O742 Tb728 2.366 . S
O742 C750 1.265 . S
C743 O739 1.259 . S
C743 O740 1.265 1_554 S
O744 Eu729 2.479 . S
O744 C759 1.238 . S
O745 Eu729 2.471 . S
O745 C759 1.247 . S
O746 Eu729 2.347 . S
O746 C730 1.259 . S
O747 Tb728 2.418 . S
O747 C730 1.265 1_554 S
O748 Tb728 2.384 . S
O748 C731 1.255 1_554 S
O749 Eu729 2.366 . S
O749 C731 1.265 . S
C750 O741 1.255 . S
C750 O742 1.265 . S
O751 Tb728 2.479 . S
O751 C738 1.238 . S
O752 Tb728 2.471 . S
O752 C738 1.247 . S
C753 C756 1.380 . S
C753 C757 1.374 . S
C753 C759 1.507 . S
C754 C755 1.387 . S
C754 C758 1.391 . S
C755 C754 1.387 . S
C755 C756 1.384 . S
C755 H764 0.930 . S
C756 C753 1.380 . S
C756 C755 1.384 . S
C756 H765 0.931 . S
C757 C753 1.374 . S
C757 C758 1.390 . S
C757 H766 0.930 . S
C758 C754 1.391 . S
C758 C757 1.390 . S
C758 H767 0.930 . S
C759 Eu729 2.825 . S
C759 O744 1.238 . S
C759 O745 1.247 . S
C759 C753 1.507 . S
H760 C733 0.930 . S
H761 C734 0.931 . S
H762 C735 0.930 . S
H763 C736 0.930 . S
H764 C755 0.930 . S
H765 C756 0.931 . S
H766 C757 0.930 . S
H767 C758 0.930 . S
Tb768 C778 2.825 . S
Tb768 O779 2.347 . S
Tb768 O782 2.366 . S
Tb768 O787 2.418 . S
Tb768 O788 2.384 . S
Tb768 O791 2.479 . S
Tb768 O792 2.471 . S
Eu769 O780 2.418 . S
Eu769 O781 2.384 . S
Eu769 O784 2.479 . S
Eu769 O785 2.471 . S
Eu769 O786 2.347 . S
Eu769 O789 2.366 . S
Eu769 C799 2.825 . S
C770 O786 1.259 . S
C770 O787 1.265 . S
C771 O788 1.255 . S
C771 O789 1.265 . S
C772 C774 1.380 . S
C772 C775 1.374 . S
C772 C778 1.507 . S
C773 C774 1.384 . S
C773 C777 1.387 . S
C773 H800 0.930 . S
C774 C772 1.380 . S
C774 C773 1.384 . S
C774 H801 0.931 . S
C775 C772 1.374 . S
C775 C776 1.390 . S
C775 H802 0.930 . S
C776 C775 1.390 . S
C776 C777 1.391 . S
C776 H803 0.930 . S
C777 C773 1.387 . S
C777 C776 1.391 . S
C778 Tb768 2.825 . S
C778 C772 1.507 . S
C778 O791 1.238 . S
C778 O792 1.247 . S
O779 Tb768 2.347 . S
O779 C783 1.259 . S
O780 Eu769 2.418 . S
O780 C783 1.265 . S
O781 Eu769 2.384 . S
O781 C790 1.255 . S
O782 Tb768 2.366 . S
O782 C790 1.265 . S
C783 O779 1.259 . S
C783 O780 1.265 . S
O784 Eu769 2.479 . S
O784 C799 1.238 . S
O785 Eu769 2.471 . S
O785 C799 1.247 . S
O786 Eu769 2.347 . S
O786 C770 1.259 . S
O787 Tb768 2.418 . S
O787 C770 1.265 . S
O788 Tb768 2.384 . S
O788 C771 1.255 . S
O789 Eu769 2.366 . S
O789 C771 1.265 . S
C790 O781 1.255 . S
C790 O782 1.265 . S
O791 Tb768 2.479 . S
O791 C778 1.238 . S
O792 Tb768 2.471 . S
O792 C778 1.247 . S
C793 C796 1.380 . S
C793 C797 1.374 . S
C793 C799 1.507 . S
C794 C795 1.387 . S
C794 C798 1.391 . S
C795 C794 1.387 . S
C795 C796 1.384 . S
C795 H804 0.930 . S
C796 C793 1.380 . S
C796 C795 1.384 . S
C796 H805 0.931 . S
C797 C793 1.374 . S
C797 C798 1.390 . S
C797 H806 0.930 . S
C798 C794 1.391 . S
C798 C797 1.390 . S
C798 H807 0.930 . S
C799 Eu769 2.825 . S
C799 O784 1.238 . S
C799 O785 1.247 . S
C799 C793 1.507 . S
H800 C773 0.930 . S
H801 C774 0.931 . S
H802 C775 0.930 . S
H803 C776 0.930 . S
H804 C795 0.930 . S
H805 C796 0.931 . S
H806 C797 0.930 . S
H807 C798 0.930 . S
Tb808 C818 2.825 . S
Tb808 O819 2.347 . S
Tb808 O822 2.366 . S
Tb808 O827 2.418 . S
Tb808 O828 2.384 . S
Tb808 O831 2.479 . S
Tb808 O832 2.471 . S
Eu809 O820 2.418 . S
Eu809 O821 2.384 . S
Eu809 O824 2.479 . S
Eu809 O825 2.471 . S
Eu809 O826 2.347 . S
Eu809 O829 2.366 . S
Eu809 C839 2.825 . S
C810 O826 1.259 . S
C810 O827 1.265 . S
C811 O828 1.255 . S
C811 O829 1.265 . S
C812 C814 1.380 . S
C812 C815 1.374 . S
C812 C818 1.507 . S
C813 C814 1.384 . S
C813 C817 1.387 . S
C813 H840 0.930 . S
C814 C812 1.380 . S
C814 C813 1.384 . S
C814 H841 0.931 . S
C815 C812 1.374 . S
C815 C816 1.390 . S
C815 H842 0.930 . S
C816 C815 1.390 . S
C816 C817 1.391 . S
C816 H843 0.930 . S
C817 C813 1.387 . S
C817 C816 1.391 . S
C818 Tb808 2.825 . S
C818 C812 1.507 . S
C818 O831 1.238 . S
C818 O832 1.247 . S
O819 Tb808 2.347 . S
O819 C823 1.259 . S
O820 Eu809 2.418 . S
O820 C823 1.265 . S
O821 Eu809 2.384 . S
O821 C830 1.255 . S
O822 Tb808 2.366 . S
O822 C830 1.265 . S
C823 O819 1.259 . S
C823 O820 1.265 . S
O824 Eu809 2.479 . S
O824 C839 1.238 . S
O825 Eu809 2.471 . S
O825 C839 1.247 . S
O826 Eu809 2.347 . S
O826 C810 1.259 . S
O827 Tb808 2.418 . S
O827 C810 1.265 . S
O828 Tb808 2.384 . S
O828 C811 1.255 . S
O829 Eu809 2.366 . S
O829 C811 1.265 . S
C830 O821 1.255 . S
C830 O822 1.265 . S
O831 Tb808 2.479 . S
O831 C818 1.238 . S
O832 Tb808 2.471 . S
O832 C818 1.247 . S
C833 C836 1.380 . S
C833 C837 1.374 . S
C833 C839 1.507 . S
C834 C835 1.387 . S
C834 C838 1.391 . S
C835 C834 1.387 . S
C835 C836 1.384 . S
C835 H844 0.930 . S
C836 C833 1.380 . S
C836 C835 1.384 . S
C836 H845 0.931 . S
C837 C833 1.374 . S
C837 C838 1.390 . S
C837 H846 0.930 . S
C838 C834 1.391 . S
C838 C837 1.390 . S
C838 H847 0.930 . S
C839 Eu809 2.825 . S
C839 O824 1.238 . S
C839 O825 1.247 . S
C839 C833 1.507 . S
H840 C813 0.930 . S
H841 C814 0.931 . S
H842 C815 0.930 . S
H843 C816 0.930 . S
H844 C835 0.930 . S
H845 C836 0.931 . S
H846 C837 0.930 . S
H847 C838 0.930 . S
Tb848 C858 2.825 . S
Tb848 O859 2.347 . S
Tb848 O862 2.366 . S
Tb848 O867 2.418 . S
Tb848 O868 2.384 . S
Tb848 O871 2.479 . S
Tb848 O872 2.471 . S
Eu849 O860 2.418 . S
Eu849 O861 2.384 . S
Eu849 O864 2.479 . S
Eu849 O865 2.471 . S
Eu849 O866 2.347 . S
Eu849 O869 2.366 . S
Eu849 C879 2.825 . S
C850 O866 1.259 . S
C850 O867 1.265 . S
C851 O868 1.255 . S
C851 O869 1.265 . S
C852 C854 1.380 . S
C852 C855 1.374 . S
C852 C858 1.507 . S
C853 C854 1.384 . S
C853 C857 1.387 . S
C853 H880 0.930 . S
C854 C852 1.380 . S
C854 C853 1.384 . S
C854 H881 0.931 . S
C855 C852 1.374 . S
C855 C856 1.390 . S
C855 H882 0.930 . S
C856 C855 1.390 . S
C856 C857 1.391 . S
C856 H883 0.930 . S
C857 C853 1.387 . S
C857 C856 1.391 . S
C858 Tb848 2.825 . S
C858 C852 1.507 . S
C858 O871 1.238 . S
C858 O872 1.247 . S
O859 Tb848 2.347 . S
O859 C863 1.259 . S
O860 Eu849 2.418 . S
O860 C863 1.265 . S
O861 Eu849 2.384 . S
O861 C870 1.255 . S
O862 Tb848 2.366 . S
O862 C870 1.265 . S
C863 O859 1.259 . S
C863 O860 1.265 . S
O864 Eu849 2.479 . S
O864 C879 1.238 . S
O865 Eu849 2.471 . S
O865 C879 1.247 . S
O866 Eu849 2.347 . S
O866 C850 1.259 . S
O867 Tb848 2.418 . S
O867 C850 1.265 . S
O868 Tb848 2.384 . S
O868 C851 1.255 . S
O869 Eu849 2.366 . S
O869 C851 1.265 . S
C870 O861 1.255 . S
C870 O862 1.265 . S
O871 Tb848 2.479 . S
O871 C858 1.238 . S
O872 Tb848 2.471 . S
O872 C858 1.247 . S
C873 C876 1.380 . S
C873 C877 1.374 . S
C873 C879 1.507 . S
C874 C875 1.387 . S
C874 C878 1.391 . S
C875 C874 1.387 . S
C875 C876 1.384 . S
C875 H884 0.930 . S
C876 C873 1.380 . S
C876 C875 1.384 . S
C876 H885 0.931 . S
C877 C873 1.374 . S
C877 C878 1.390 . S
C877 H886 0.930 . S
C878 C874 1.391 . S
C878 C877 1.390 . S
C878 H887 0.930 . S
C879 Eu849 2.825 . S
C879 O864 1.238 . S
C879 O865 1.247 . S
C879 C873 1.507 . S
H880 C853 0.930 . S
H881 C854 0.931 . S
H882 C855 0.930 . S
H883 C856 0.930 . S
H884 C875 0.930 . S
H885 C876 0.931 . S
H886 C877 0.930 . S
H887 C878 0.930 . S
Tb888 C898 2.825 . S
Tb888 O899 2.347 . S
Tb888 O902 2.366 . S
Tb888 O907 2.418 . S
Tb888 O908 2.384 . S
Tb888 O911 2.479 . S
Tb888 O912 2.471 . S
Eu889 O900 2.418 . S
Eu889 O901 2.384 . S
Eu889 O904 2.479 . S
Eu889 O905 2.471 . S
Eu889 O906 2.347 . S
Eu889 O909 2.366 . S
Eu889 C919 2.825 . S
C890 O906 1.259 . S
C890 O907 1.265 . S
C891 O908 1.255 . S
C891 O909 1.265 . S
C892 C894 1.380 . S
C892 C895 1.374 . S
C892 C898 1.507 . S
C893 C894 1.384 . S
C893 C897 1.387 . S
C893 H920 0.930 . S
C894 C892 1.380 . S
C894 C893 1.384 . S
C894 H921 0.931 . S
C895 C892 1.374 . S
C895 C896 1.390 . S
C895 H922 0.930 . S
C896 C895 1.390 . S
C896 C897 1.391 . S
C896 H923 0.930 . S
C897 C893 1.387 . S
C897 C896 1.391 . S
C898 Tb888 2.825 . S
C898 C892 1.507 . S
C898 O911 1.238 . S
C898 O912 1.247 . S
O899 Tb888 2.347 . S
O899 C903 1.259 . S
O900 Eu889 2.418 . S
O900 C903 1.265 . S
O901 Eu889 2.384 . S
O901 C910 1.255 . S
O902 Tb888 2.366 . S
O902 C910 1.265 . S
C903 O899 1.259 . S
C903 O900 1.265 . S
O904 Eu889 2.479 . S
O904 C919 1.238 . S
O905 Eu889 2.471 . S
O905 C919 1.247 . S
O906 Eu889 2.347 . S
O906 C890 1.259 . S
O907 Tb888 2.418 . S
O907 C890 1.265 . S
O908 Tb888 2.384 . S
O908 C891 1.255 . S
O909 Eu889 2.366 . S
O909 C891 1.265 . S
C910 O901 1.255 . S
C910 O902 1.265 . S
O911 Tb888 2.479 . S
O911 C898 1.238 . S
O912 Tb888 2.471 . S
O912 C898 1.247 . S
C913 C916 1.380 . S
C913 C917 1.374 . S
C913 C919 1.507 . S
C914 C915 1.387 . S
C914 C918 1.391 . S
C915 C914 1.387 . S
C915 C916 1.384 . S
C915 H924 0.930 . S
C916 C913 1.380 . S
C916 C915 1.384 . S
C916 H925 0.931 . S
C917 C913 1.374 . S
C917 C918 1.390 . S
C917 H926 0.930 . S
C918 C914 1.391 . S
C918 C917 1.390 . S
C918 H927 0.930 . S
C919 Eu889 2.825 . S
C919 O904 1.238 . S
C919 O905 1.247 . S
C919 C913 1.507 . S
H920 C893 0.930 . S
H921 C894 0.931 . S
H922 C895 0.930 . S
H923 C896 0.930 . S
H924 C915 0.930 . S
H925 C916 0.931 . S
H926 C917 0.930 . S
H927 C918 0.930 . S
Tb928 C938 2.825 . S
Tb928 O939 2.347 . S
Tb928 O942 2.366 . S
Tb928 O947 2.418 . S
Tb928 O948 2.384 . S
Tb928 O951 2.479 . S
Tb928 O952 2.471 . S
Eu929 O940 2.418 . S
Eu929 O941 2.384 . S
Eu929 O944 2.479 . S
Eu929 O945 2.471 . S
Eu929 O946 2.347 . S
Eu929 O949 2.366 . S
Eu929 C959 2.825 . S
C930 O946 1.259 . S
C930 O947 1.265 . S
C931 O948 1.255 . S
C931 O949 1.265 . S
C932 C934 1.380 . S
C932 C935 1.374 . S
C932 C938 1.507 . S
C933 C934 1.384 . S
C933 C937 1.387 . S
C933 H960 0.930 . S
C934 C932 1.380 . S
C934 C933 1.384 . S
C934 H961 0.931 . S
C935 C932 1.374 . S
C935 C936 1.390 . S
C935 H962 0.930 . S
C936 C935 1.390 . S
C936 C937 1.391 . S
C936 H963 0.930 . S
C937 C933 1.387 . S
C937 C936 1.391 . S
C938 Tb928 2.825 . S
C938 C932 1.507 . S
C938 O951 1.238 . S
C938 O952 1.247 . S
O939 Tb928 2.347 . S
O939 C943 1.259 . S
O940 Eu929 2.418 . S
O940 C943 1.265 . S
O941 Eu929 2.384 . S
O941 C950 1.255 . S
O942 Tb928 2.366 . S
O942 C950 1.265 . S
C943 O939 1.259 . S
C943 O940 1.265 . S
O944 Eu929 2.479 . S
O944 C959 1.238 . S
O945 Eu929 2.471 . S
O945 C959 1.247 . S
O946 Eu929 2.347 . S
O946 C930 1.259 . S
O947 Tb928 2.418 . S
O947 C930 1.265 . S
O948 Tb928 2.384 . S
O948 C931 1.255 . S
O949 Eu929 2.366 . S
O949 C931 1.265 . S
C950 O941 1.255 . S
C950 O942 1.265 . S
O951 Tb928 2.479 . S
O951 C938 1.238 . S
O952 Tb928 2.471 . S
O952 C938 1.247 . S
C953 C956 1.380 . S
C953 C957 1.374 . S
C953 C959 1.507 . S
C954 C955 1.387 . S
C954 C958 1.391 . S
C955 C954 1.387 . S
C955 C956 1.384 . S
C955 H964 0.930 . S
C956 C953 1.380 . S
C956 C955 1.384 . S
C956 H965 0.931 . S
C957 C953 1.374 . S
C957 C958 1.390 . S
C957 H966 0.930 . S
C958 C954 1.391 . S
C958 C957 1.390 . S
C958 H967 0.930 . S
C959 Eu929 2.825 . S
C959 O944 1.238 . S
C959 O945 1.247 . S
C959 C953 1.507 . S
H960 C933 0.930 . S
H961 C934 0.931 . S
H962 C935 0.930 . S
H963 C936 0.930 . S
H964 C955 0.930 . S
H965 C956 0.931 . S
H966 C957 0.930 . S
H967 C958 0.930 . S
Tb968 C978 2.825 . S
Tb968 O979 2.347 . S
Tb968 O982 2.366 . S
Tb968 O987 2.418 . S
Tb968 O988 2.384 . S
Tb968 O991 2.479 . S
Tb968 O992 2.471 . S
Eu969 O980 2.418 . S
Eu969 O981 2.384 . S
Eu969 O984 2.479 . S
Eu969 O985 2.471 . S
Eu969 O986 2.347 . S
Eu969 O989 2.366 . S
Eu969 C999 2.825 . S
C970 O986 1.259 . S
C970 O987 1.265 . S
C971 O988 1.255 . S
C971 O989 1.265 . S
C972 C974 1.380 . S
C972 C975 1.374 . S
C972 C978 1.507 . S
C973 C974 1.384 . S
C973 C977 1.387 . S
C973 H1000 0.930 . S
C974 C972 1.380 . S
C974 C973 1.384 . S
C974 H1001 0.931 . S
C975 C972 1.374 . S
C975 C976 1.390 . S
C975 H1002 0.930 . S
C976 C975 1.390 . S
C976 C977 1.391 . S
C976 H1003 0.930 . S
C977 C973 1.387 . S
C977 C976 1.391 . S
C978 Tb968 2.825 . S
C978 C972 1.507 . S
C978 O991 1.238 . S
C978 O992 1.247 . S
O979 Tb968 2.347 . S
O979 C983 1.259 . S
O980 Eu969 2.418 . S
O980 C983 1.265 . S
O981 Eu969 2.384 . S
O981 C990 1.255 . S
O982 Tb968 2.366 . S
O982 C990 1.265 . S
C983 O979 1.259 . S
C983 O980 1.265 . S
O984 Eu969 2.479 . S
O984 C999 1.238 . S
O985 Eu969 2.471 . S
O985 C999 1.247 . S
O986 Eu969 2.347 . S
O986 C970 1.259 . S
O987 Tb968 2.418 . S
O987 C970 1.265 . S
O988 Tb968 2.384 . S
O988 C971 1.255 . S
O989 Eu969 2.366 . S
O989 C971 1.265 . S
C990 O981 1.255 . S
C990 O982 1.265 . S
O991 Tb968 2.479 . S
O991 C978 1.238 . S
O992 Tb968 2.471 . S
O992 C978 1.247 . S
C993 C996 1.380 . S
C993 C997 1.374 . S
C993 C999 1.507 . S
C994 C995 1.387 . S
C994 C998 1.391 . S
C995 C994 1.387 . S
C995 C996 1.384 . S
C995 H1004 0.930 . S
C996 C993 1.380 . S
C996 C995 1.384 . S
C996 H1005 0.931 . S
C997 C993 1.374 . S
C997 C998 1.390 . S
C997 H1006 0.930 . S
C998 C994 1.391 . S
C998 C997 1.390 . S
C998 H1007 0.930 . S
C999 Eu969 2.825 . S
C999 O984 1.238 . S
C999 O985 1.247 . S
C999 C993 1.507 . S
H1000 C973 0.930 . S
H1001 C974 0.931 . S
H1002 C975 0.930 . S
H1003 C976 0.930 . S
H1004 C995 0.930 . S
H1005 C996 0.931 . S
H1006 C997 0.930 . S
H1007 C998 0.930 . S
H1008 C1016 0.929 . S
H1009 C1018 0.930 . S
H1010 C1020 0.930 . S
H1011 C1023 0.929 . S
H1012 C1026 0.930 . S
H1013 C1028 0.960 . S
H1014 C1028 0.960 . S
H1015 C1028 0.960 . S
C1016 H1008 0.929 . S
C1016 C1017 1.377 . S
C1016 C1018 1.384 . S
C1017 C1016 1.377 . S
C1017 C1023 1.390 . S
C1018 H1009 0.930 . S
C1018 C1016 1.384 . S
C1018 C1019 1.372 . S
C1019 C1018 1.372 . S
C1019 C1020 1.400 . S
C1019 C1024 1.490 . S
C1020 H1010 0.930 . S
C1020 C1019 1.400 . S
C1020 C1023 1.386 . S
H1021 C1037 0.930 . S
H1022 C1038 0.931 . S
C1023 H1011 0.929 . S
C1023 C1017 1.390 . S
C1023 C1020 1.386 . S
C1024 C1019 1.490 . S
C1024 C1026 1.395 . S
C1024 C1027 1.403 . S
H1025 C1031 0.930 . S
C1026 H1012 0.930 . S
C1026 C1024 1.395 . S
C1026 C1029 1.403 . S
C1027 C1024 1.403 . S
C1027 C1028 1.524 . S
C1027 C1031 1.400 . S
C1028 H1013 0.960 . S
C1028 H1014 0.960 . S
C1028 H1015 0.960 . S
C1028 C1027 1.524 . S
C1029 C1026 1.403 . S
C1029 C1030 1.392 . S
C1029 C1033 1.495 . S
C1030 C1029 1.392 . S
C1030 C1031 1.385 . S
C1030 C1032 1.478 . S
C1031 H1025 0.930 . S
C1031 C1027 1.400 . S
C1031 C1030 1.385 . S
C1032 C1030 1.478 . S
C1032 C1034 1.381 . S
C1032 C1038 1.383 . S
C1033 C1029 1.495 . S
C1033 H1039 0.959 . S
C1033 H1040 0.961 . S
C1033 H1041 0.960 . S
C1034 C1032 1.381 . S
C1034 C1035 1.394 . S
C1034 H1042 0.930 . S
C1035 C1034 1.394 . S
C1035 C1036 1.383 . S
C1035 H1043 0.929 . S
C1036 C1035 1.383 . S
C1036 C1037 1.377 . S
C1037 H1021 0.930 . S
C1037 C1036 1.377 . S
C1037 C1038 1.379 . S
C1038 H1022 0.931 . S
C1038 C1032 1.383 . S
C1038 C1037 1.379 . S
H1039 C1033 0.959 . S
H1040 C1033 0.961 . S
H1041 C1033 0.960 . S
H1042 C1034 0.930 . S
H1043 C1035 0.929 . S
H1044 C1052 0.929 . S
H1045 C1054 0.930 . S
H1046 C1056 0.930 . S
H1047 C1059 0.929 . S
H1048 C1062 0.930 . S
H1049 C1064 0.960 . S
H1050 C1064 0.960 . S
H1051 C1064 0.960 . S
C1052 H1044 0.929 . S
C1052 C1053 1.377 . S
C1052 C1054 1.384 . S
C1053 C1052 1.377 . S
C1053 C1059 1.390 . S
C1054 H1045 0.930 . S
C1054 C1052 1.384 . S
C1054 C1055 1.372 . S
C1055 C1054 1.372 . S
C1055 C1056 1.400 . S
C1055 C1060 1.490 . S
C1056 H1046 0.930 . S
C1056 C1055 1.400 . S
C1056 C1059 1.386 . S
H1057 C1073 0.930 . S
H1058 C1074 0.931 . S
C1059 H1047 0.929 . S
C1059 C1053 1.390 . S
C1059 C1056 1.386 . S
C1060 C1055 1.490 . S
C1060 C1062 1.395 . S
C1060 C1063 1.403 . S
H1061 C1067 0.930 . S
C1062 H1048 0.930 . S
C1062 C1060 1.395 . S
C1062 C1065 1.403 . S
C1063 C1060 1.403 . S
C1063 C1064 1.524 . S
C1063 C1067 1.400 . S
C1064 H1049 0.960 . S
C1064 H1050 0.960 . S
C1064 H1051 0.960 . S
C1064 C1063 1.524 . S
C1065 C1062 1.403 . S
C1065 C1066 1.392 . S
C1065 C1069 1.495 . S
C1066 C1065 1.392 . S
C1066 C1067 1.385 . S
C1066 C1068 1.478 . S
C1067 H1061 0.930 . S
C1067 C1063 1.400 . S
C1067 C1066 1.385 . S
C1068 C1066 1.478 . S
C1068 C1070 1.381 . S
C1068 C1074 1.383 . S
C1069 C1065 1.495 . S
C1069 H1075 0.959 . S
C1069 H1076 0.961 . S
C1069 H1077 0.960 . S
C1070 C1068 1.381 . S
C1070 C1071 1.394 . S
C1070 H1078 0.930 . S
C1071 C1070 1.394 . S
C1071 C1072 1.383 . S
C1071 H1079 0.929 . S
C1072 C1071 1.383 . S
C1072 C1073 1.377 . S
C1073 H1057 0.930 . S
C1073 C1072 1.377 . S
C1073 C1074 1.379 . S
C1074 H1058 0.931 . S
C1074 C1068 1.383 . S
C1074 C1073 1.379 . S
H1075 C1069 0.959 . S
H1076 C1069 0.961 . S
H1077 C1069 0.960 . S
H1078 C1070 0.930 . S
H1079 C1071 0.929 . S
H1080 C1088 0.929 . S
H1081 C1090 0.930 . S
H1082 C1092 0.930 . S
H1083 C1095 0.929 . S
H1084 C1098 0.930 . S
H1085 C1100 0.960 . S
H1086 C1100 0.960 . S
H1087 C1100 0.960 . S
C1088 H1080 0.929 . S
C1088 C1089 1.377 . S
C1088 C1090 1.384 . S
C1089 C1088 1.377 . S
C1089 C1095 1.390 . S
C1090 H1081 0.930 . S
C1090 C1088 1.384 . S
C1090 C1091 1.372 . S
C1091 C1090 1.372 . S
C1091 C1092 1.400 . S
C1091 C1096 1.490 . S
C1092 H1082 0.930 . S
C1092 C1091 1.400 . S
C1092 C1095 1.386 . S
H1093 C1109 0.930 . S
H1094 C1110 0.931 . S
C1095 H1083 0.929 . S
C1095 C1089 1.390 . S
C1095 C1092 1.386 . S
C1096 C1091 1.490 . S
C1096 C1098 1.395 . S
C1096 C1099 1.403 . S
H1097 C1103 0.930 . S
C1098 H1084 0.930 . S
C1098 C1096 1.395 . S
C1098 C1101 1.403 . S
C1099 C1096 1.403 . S
C1099 C1100 1.524 . S
C1099 C1103 1.400 . S
C1100 H1085 0.960 . S
C1100 H1086 0.960 . S
C1100 H1087 0.960 . S
C1100 C1099 1.524 . S
C1101 C1098 1.403 . S
C1101 C1102 1.392 . S
C1101 C1105 1.495 1_554 S
C1102 C1101 1.392 . S
C1102 C1103 1.385 . S
C1102 C1104 1.478 . S
C1103 H1097 0.930 . S
C1103 C1099 1.400 . S
C1103 C1102 1.385 . S
C1104 C1102 1.478 . S
C1104 C1106 1.381 . S
C1104 C1110 1.383 . S
C1105 C1101 1.495 1_556 S
C1105 H1111 0.959 . S
C1105 H1112 0.961 . S
C1105 H1113 0.960 . S
C1106 C1104 1.381 . S
C1106 C1107 1.394 . S
C1106 H1114 0.930 . S
C1107 C1106 1.394 . S
C1107 C1108 1.383 . S
C1107 H1115 0.881 1_554 S
C1108 C1107 1.383 . S
C1108 C1109 1.377 . S
C1109 H1093 0.930 . S
C1109 C1108 1.377 . S
C1109 C1110 1.379 . S
C1110 H1094 0.931 . S
C1110 C1104 1.383 . S
C1110 C1109 1.379 . S
H1111 C1105 0.959 . S
H1112 C1105 0.961 . S
H1113 C1105 0.960 . S
H1114 C1106 0.930 . S
H1115 C1107 0.881 1_556 S
H1116 C1124 0.929 . S
H1117 C1126 0.930 . S
H1118 C1128 0.930 . S
H1119 C1131 0.929 . S
H1120 C1134 0.930 . S
H1121 C1136 0.960 . S
H1122 C1136 0.960 . S
H1123 C1136 0.960 . S
C1124 H1116 0.929 . S
C1124 C1125 1.377 . S
C1124 C1126 1.384 . S
C1125 C1124 1.377 . S
C1125 C1131 1.390 . S
C1126 H1117 0.930 . S
C1126 C1124 1.384 . S
C1126 C1127 1.372 . S
C1127 C1126 1.372 . S
C1127 C1128 1.400 . S
C1127 C1132 1.490 . S
C1128 H1118 0.930 . S
C1128 C1127 1.400 . S
C1128 C1131 1.386 . S
H1129 C1145 0.930 . S
H1130 C1146 0.931 . S
C1131 H1119 0.929 . S
C1131 C1125 1.390 . S
C1131 C1128 1.386 . S
C1132 C1127 1.490 . S
C1132 C1134 1.395 . S
C1132 C1135 1.403 . S
H1133 C1139 0.930 . S
C1134 H1120 0.930 . S
C1134 C1132 1.395 . S
C1134 C1137 1.403 . S
C1135 C1132 1.403 . S
C1135 C1136 1.524 . S
C1135 C1139 1.400 . S
C1136 H1121 0.960 . S
C1136 H1122 0.960 . S
C1136 H1123 0.960 . S
C1136 C1135 1.524 . S
C1137 C1134 1.403 . S
C1137 C1138 1.392 . S
C1137 C1141 1.495 1_556 S
C1138 C1137 1.392 . S
C1138 C1139 1.385 . S
C1138 C1140 1.478 . S
C1139 H1133 0.930 . S
C1139 C1135 1.400 . S
C1139 C1138 1.385 . S
C1140 C1138 1.478 . S
C1140 C1142 1.381 . S
C1140 C1146 1.383 . S
C1141 C1137 1.495 1_554 S
C1141 H1147 0.959 . S
C1141 H1148 0.961 . S
C1141 H1149 0.960 . S
C1142 C1140 1.381 . S
C1142 C1143 1.394 . S
C1142 H1150 0.930 . S
C1143 C1142 1.394 . S
C1143 C1144 1.383 . S
C1143 H1151 0.929 . S
C1144 C1143 1.383 . S
C1144 C1145 1.377 . S
C1145 H1129 0.930 . S
C1145 C1144 1.377 . S
C1145 C1146 1.379 . S
C1146 H1130 0.931 . S
C1146 C1140 1.383 . S
C1146 C1145 1.379 . S
H1147 C1141 0.959 . S
H1148 C1141 0.961 . S
H1149 C1141 0.960 . S
H1150 C1142 0.930 . S
H1151 C1143 0.929 . S
H1152 C1160 0.929 . S
H1153 C1162 0.930 . S
H1154 C1164 0.930 . S
H1155 C1167 0.929 . S
H1156 C1170 0.930 . S
H1157 C1172 0.960 . S
H1158 C1172 0.960 . S
H1159 C1172 0.960 . S
C1160 H1152 0.929 . S
C1160 C1161 1.377 . S
C1160 C1162 1.384 . S
C1161 C1160 1.377 . S
C1161 C1167 1.390 . S
C1162 H1153 0.930 . S
C1162 C1160 1.384 . S
C1162 C1163 1.372 . S
C1163 C1162 1.372 . S
C1163 C1164 1.400 . S
C1163 C1168 1.490 . S
C1164 H1154 0.930 . S
C1164 C1163 1.400 . S
C1164 C1167 1.386 . S
H1165 C1181 0.930 . S
H1166 C1182 0.931 . S
C1167 H1155 0.929 . S
C1167 C1161 1.390 . S
C1167 C1164 1.386 . S
C1168 C1163 1.490 . S
C1168 C1170 1.395 . S
C1168 C1171 1.403 . S
H1169 C1175 0.930 . S
C1170 H1156 0.930 . S
C1170 C1168 1.395 . S
C1170 C1173 1.403 . S
C1171 C1168 1.403 . S
C1171 C1172 1.524 . S
C1171 C1175 1.400 . S
C1172 H1157 0.960 . S
C1172 H1158 0.960 . S
C1172 H1159 0.960 . S
C1172 C1171 1.524 . S
C1173 C1170 1.403 . S
C1173 C1174 1.392 . S
C1173 C1177 1.495 . S
C1174 C1173 1.392 . S
C1174 C1175 1.385 . S
C1174 C1176 1.478 . S
C1175 H1169 0.930 . S
C1175 C1171 1.400 . S
C1175 C1174 1.385 . S
C1176 C1174 1.478 . S
C1176 C1178 1.381 . S
C1176 C1182 1.383 . S
C1177 C1173 1.495 . S
C1177 H1183 0.959 . S
C1177 H1184 0.961 . S
C1177 H1185 0.960 . S
C1178 C1176 1.381 . S
C1178 C1179 1.394 . S
C1178 H1186 0.930 . S
C1179 C1178 1.394 . S
C1179 C1180 1.383 . S
C1179 H1187 0.929 . S
C1180 C1179 1.383 . S
C1180 C1181 1.377 . S
C1181 H1165 0.930 . S
C1181 C1180 1.377 . S
C1181 C1182 1.379 . S
C1182 H1166 0.931 . S
C1182 C1176 1.383 . S
C1182 C1181 1.379 . S
H1183 C1177 0.959 . S
H1184 C1177 0.961 . S
H1185 C1177 0.960 . S
H1186 C1178 0.930 . S
H1187 C1179 0.929 . S
H1188 C1196 0.929 . S
H1189 C1198 0.930 . S
H1190 C1200 0.930 . S
H1191 C1203 0.929 . S
H1192 C1206 0.930 . S
H1193 C1208 0.960 . S
H1194 C1208 0.960 . S
H1195 C1208 0.960 . S
C1196 H1188 0.929 . S
C1196 C1197 1.377 . S
C1196 C1198 1.384 . S
C1197 C1196 1.377 . S
C1197 C1203 1.390 . S
C1198 H1189 0.930 . S
C1198 C1196 1.384 . S
C1198 C1199 1.372 . S
C1199 C1198 1.372 . S
C1199 C1200 1.400 . S
C1199 C1204 1.490 . S
C1200 H1190 0.930 . S
C1200 C1199 1.400 . S
C1200 C1203 1.386 . S
H1201 C1217 0.930 . S
H1202 C1218 0.931 . S
C1203 H1191 0.929 . S
C1203 C1197 1.390 . S
C1203 C1200 1.386 . S
C1204 C1199 1.490 . S
C1204 C1206 1.395 . S
C1204 C1207 1.403 . S
H1205 C1211 0.930 . S
C1206 H1192 0.930 . S
C1206 C1204 1.395 . S
C1206 C1209 1.403 . S
C1207 C1204 1.403 . S
C1207 C1208 1.524 . S
C1207 C1211 1.400 . S
C1208 H1193 0.960 . S
C1208 H1194 0.960 . S
C1208 H1195 0.960 . S
C1208 C1207 1.524 . S
C1209 C1206 1.403 . S
C1209 C1210 1.392 . S
C1209 C1213 1.495 . S
C1210 C1209 1.392 . S
C1210 C1211 1.385 . S
C1210 C1212 1.478 . S
C1211 H1205 0.930 . S
C1211 C1207 1.400 . S
C1211 C1210 1.385 . S
C1212 C1210 1.478 . S
C1212 C1214 1.471 . S
C1212 C1218 1.383 . S
C1213 C1209 1.495 . S
C1213 H1219 0.959 . S
C1213 H1220 0.961 . S
C1213 H1221 0.960 . S
C1214 C1212 1.471 . S
C1214 C1215 1.373 1_556 S
C1214 H1222 0.866 1_556 S
C1215 C1214 1.373 1_554 S
C1215 C1216 1.383 1_554 S
C1215 H1223 0.929 . S
C1216 C1215 1.383 1_556 S
C1216 C1217 1.377 . S
C1217 H1201 0.930 . S
C1217 C1216 1.377 . S
C1217 C1218 1.379 . S
C1218 H1202 0.931 . S
C1218 C1212 1.383 . S
C1218 C1217 1.379 . S
H1219 C1213 0.959 . S
H1220 C1213 0.961 . S
H1221 C1213 0.960 . S
H1222 C1214 0.866 1_554 S
H1223 C1215 0.929 . S
H1224 C1232 0.929 . S
H1225 C1234 0.930 . S
H1226 C1236 0.930 . S
H1227 C1239 0.929 . S
H1228 C1242 0.930 . S
H1229 C1244 0.960 . S
H1230 C1244 0.960 . S
H1231 C1244 0.960 . S
C1232 H1224 0.929 . S
C1232 C1233 1.377 . S
C1232 C1234 1.384 . S
C1233 C1232 1.377 . S
C1233 C1239 1.390 . S
C1234 H1225 0.930 . S
C1234 C1232 1.384 . S
C1234 C1235 1.372 . S
C1235 C1234 1.372 . S
C1235 C1236 1.400 . S
C1235 C1240 1.490 . S
C1236 H1226 0.930 . S
C1236 C1235 1.400 . S
C1236 C1239 1.386 . S
H1237 C1253 0.930 . S
H1238 C1254 0.931 . S
C1239 H1227 0.929 . S
C1239 C1233 1.390 . S
C1239 C1236 1.386 . S
C1240 C1235 1.490 . S
C1240 C1242 1.395 . S
C1240 C1243 1.403 . S
H1241 C1247 0.930 . S
C1242 H1228 0.930 . S
C1242 C1240 1.395 . S
C1242 C1245 1.403 . S
C1243 C1240 1.403 . S
C1243 C1244 1.524 . S
C1243 C1247 1.400 . S
C1244 H1229 0.960 . S
C1244 H1230 0.960 . S
C1244 H1231 0.960 . S
C1244 C1243 1.524 . S
C1245 C1242 1.403 . S
C1245 C1246 1.392 . S
C1245 C1249 1.495 . S
C1246 C1245 1.392 . S
C1246 C1247 1.385 . S
C1246 C1248 1.478 . S
C1247 H1241 0.930 . S
C1247 C1243 1.400 . S
C1247 C1246 1.385 . S
C1248 C1246 1.478 . S
C1248 C1250 1.381 . S
C1248 C1254 1.383 . S
C1249 C1245 1.495 . S
C1249 H1255 0.959 . S
C1249 H1256 0.961 . S
C1249 H1257 0.960 . S
C1250 C1248 1.381 . S
C1250 C1251 1.394 . S
C1250 H1258 0.930 . S
C1251 C1250 1.394 . S
C1251 C1252 1.383 . S
C1251 H1259 0.929 . S
C1252 C1251 1.383 . S
C1252 C1253 1.377 . S
C1253 H1237 0.930 . S
C1253 C1252 1.377 . S
C1253 C1254 1.379 . S
C1254 H1238 0.931 . S
C1254 C1248 1.383 . S
C1254 C1253 1.379 . S
H1255 C1249 0.959 . S
H1256 C1249 0.961 . S
H1257 C1249 0.960 . S
H1258 C1250 0.930 . S
H1259 C1251 0.929 . S
H1260 C1268 0.929 . S
H1261 C1270 0.930 . S
H1262 C1272 0.930 . S
H1263 C1275 0.929 . S
H1264 C1278 0.930 . S
H1265 C1280 0.960 . S
H1266 C1280 0.960 . S
H1267 C1280 0.960 . S
C1268 H1260 0.929 . S
C1268 C1269 1.377 . S
C1268 C1270 1.384 . S
C1269 C1268 1.377 . S
C1269 C1275 1.390 . S
C1270 H1261 0.930 . S
C1270 C1268 1.384 . S
C1270 C1271 1.372 . S
C1271 C1270 1.372 . S
C1271 C1272 1.400 . S
C1271 C1276 1.490 . S
C1272 H1262 0.930 . S
C1272 C1271 1.400 . S
C1272 C1275 1.386 . S
H1273 C1289 0.930 . S
H1274 C1290 0.931 . S
C1275 H1263 0.929 . S
C1275 C1269 1.390 . S
C1275 C1272 1.386 . S
C1276 C1271 1.490 . S
C1276 C1278 1.395 . S
C1276 C1279 1.403 . S
H1277 C1283 0.930 . S
C1278 H1264 0.930 . S
C1278 C1276 1.395 . S
C1278 C1281 1.403 . S
C1279 C1276 1.403 . S
C1279 C1280 1.524 . S
C1279 C1283 1.400 . S
C1280 H1265 0.960 . S
C1280 H1266 0.960 . S
C1280 H1267 0.960 . S
C1280 C1279 1.524 . S
C1281 C1278 1.403 . S
C1281 C1282 1.392 . S
C1281 C1285 1.495 . S
C1282 C1281 1.392 . S
C1282 C1283 1.385 . S
C1282 C1284 1.478 . S
C1283 H1277 0.930 . S
C1283 C1279 1.400 . S
C1283 C1282 1.385 . S
C1284 C1282 1.478 . S
C1284 C1286 1.381 . S
C1284 C1290 1.383 . S
C1285 C1281 1.495 . S
C1285 H1291 0.959 . S
C1285 H1292 0.961 . S
C1285 H1293 0.960 . S
C1286 C1284 1.381 . S
C1286 C1287 1.394 . S
C1286 H1294 0.930 . S
C1287 C1286 1.394 . S
C1287 C1288 1.383 . S
C1287 H1295 0.929 . S
C1288 C1287 1.383 . S
C1288 C1289 1.377 . S
C1289 H1273 0.930 . S
C1289 C1288 1.377 . S
C1289 C1290 1.379 . S
C1290 H1274 0.931 . S
C1290 C1284 1.383 . S
C1290 C1289 1.379 . S
H1291 C1285 0.959 . S
H1292 C1285 0.961 . S
H1293 C1285 0.960 . S
H1294 C1286 0.930 . S
H1295 C1287 0.929 . S
H1296 C1304 0.929 . S
H1297 C1306 0.930 . S
H1298 C1308 0.930 . S
H1299 C1311 0.929 . S
H1300 C1314 0.930 . S
H1301 C1316 0.960 . S
H1302 C1316 0.960 . S
H1303 C1316 0.960 . S
C1304 H1296 0.929 . S
C1304 C1305 1.377 . S
C1304 C1306 1.384 . S
C1305 C1304 1.377 . S
C1305 C1311 1.390 . S
C1306 H1297 0.930 . S
C1306 C1304 1.384 . S
C1306 C1307 1.372 . S
C1307 C1306 1.372 . S
C1307 C1308 1.400 . S
C1307 C1312 1.490 . S
C1308 H1298 0.930 . S
C1308 C1307 1.400 . S
C1308 C1311 1.386 . S
H1309 C1325 0.930 . S
H1310 C1326 0.931 . S
C1311 H1299 0.929 . S
C1311 C1305 1.390 . S
C1311 C1308 1.386 . S
C1312 C1307 1.490 . S
C1312 C1314 1.395 . S
C1312 C1315 1.403 . S
H1313 C1319 0.930 . S
C1314 H1300 0.930 . S
C1314 C1312 1.395 . S
C1314 C1317 1.403 . S
C1315 C1312 1.403 . S
C1315 C1316 1.524 . S
C1315 C1319 1.400 . S
C1316 H1301 0.960 . S
C1316 H1302 0.960 . S
C1316 H1303 0.960 . S
C1316 C1315 1.524 . S
C1317 C1314 1.403 . S
C1317 C1318 1.392 . S
C1317 C1321 1.495 1_556 S
C1318 C1317 1.392 . S
C1318 C1319 1.385 . S
C1318 C1320 1.478 . S
C1319 H1313 0.930 . S
C1319 C1315 1.400 . S
C1319 C1318 1.385 . S
C1320 C1318 1.478 . S
C1320 C1322 1.381 . S
C1320 C1326 1.383 . S
C1321 C1317 1.495 1_554 S
C1321 H1327 0.959 . S
C1321 H1328 0.961 . S
C1321 H1329 0.960 . S
C1322 C1320 1.381 . S
C1322 C1323 1.394 . S
C1322 H1330 0.974 . S
C1323 C1322 1.394 . S
C1323 C1324 1.383 . S
C1323 H1331 0.929 1_556 S
C1324 C1323 1.383 . S
C1324 C1325 1.377 . S
C1325 H1309 0.930 . S
C1325 C1324 1.377 . S
C1325 C1326 1.379 . S
C1326 H1310 0.931 . S
C1326 C1320 1.383 . S
C1326 C1325 1.379 . S
H1327 C1321 0.959 . S
H1328 C1321 0.961 . S
H1329 C1321 0.960 . S
H1330 C1322 0.974 . S
H1331 C1323 0.929 1_554 S
H1332 C1340 0.929 . S
H1333 C1342 0.930 . S
H1334 C1344 0.930 . S
H1335 C1347 0.929 . S
H1336 C1350 0.930 . S
H1337 C1352 0.960 . S
H1338 C1352 0.960 . S
H1339 C1352 0.960 . S
C1340 H1332 0.929 . S
C1340 C1341 1.377 . S
C1340 C1342 1.384 . S
C1341 C1340 1.377 . S
C1341 C1347 1.390 . S
C1342 H1333 0.930 . S
C1342 C1340 1.384 . S
C1342 C1343 1.372 . S
C1343 C1342 1.372 . S
C1343 C1344 1.400 . S
C1343 C1348 1.490 . S
C1344 H1334 0.930 . S
C1344 C1343 1.400 . S
C1344 C1347 1.386 . S
H1345 C1361 0.930 . S
H1346 C1362 0.931 . S
C1347 H1335 0.929 . S
C1347 C1341 1.390 . S
C1347 C1344 1.386 . S
C1348 C1343 1.490 . S
C1348 C1350 1.395 . S
C1348 C1351 1.403 . S
H1349 C1355 0.930 . S
C1350 H1336 0.930 . S
C1350 C1348 1.395 . S
C1350 C1353 1.403 . S
C1351 C1348 1.403 . S
C1351 C1352 1.524 . S
C1351 C1355 1.400 . S
C1352 H1337 0.960 . S
C1352 H1338 0.960 . S
C1352 H1339 0.960 . S
C1352 C1351 1.524 . S
C1353 C1350 1.403 . S
C1353 C1354 1.392 . S
C1353 C1357 1.495 . S
C1354 C1353 1.392 . S
C1354 C1355 1.385 . S
C1354 C1356 1.478 . S
C1355 H1349 0.930 . S
C1355 C1351 1.400 . S
C1355 C1354 1.385 . S
C1356 C1354 1.478 . S
C1356 C1358 1.381 . S
C1356 C1362 1.383 . S
C1357 C1353 1.495 . S
C1357 H1363 0.959 . S
C1357 H1364 0.961 . S
C1357 H1365 1.012 . S
C1358 C1356 1.381 . S
C1358 C1359 1.394 . S
C1358 H1366 0.994 . S
C1359 C1358 1.394 . S
C1359 C1360 1.383 . S
C1359 H1367 0.929 1_554 S
C1360 C1359 1.383 . S
C1360 C1361 1.377 . S
C1361 H1345 0.930 . S
C1361 C1360 1.377 . S
C1361 C1362 1.379 . S
C1362 H1346 0.931 . S
C1362 C1356 1.383 . S
C1362 C1361 1.379 . S
H1363 C1357 0.959 . S
H1364 C1357 0.961 . S
H1365 C1357 1.012 . S
H1366 C1358 0.994 . S
H1367 C1359 0.929 1_556 S
H1368 C1376 0.929 . S
H1369 C1378 0.930 . S
H1370 C1380 0.930 . S
H1371 C1383 0.929 . S
H1372 C1386 0.930 . S
H1373 C1388 0.960 . S
H1374 C1388 0.960 . S
H1375 C1388 0.960 . S
C1376 H1368 0.929 . S
C1376 C1377 1.377 . S
C1376 C1378 1.384 . S
C1377 C1376 1.377 . S
C1377 C1383 1.390 . S
C1378 H1369 0.930 . S
C1378 C1376 1.384 . S
C1378 C1379 1.372 . S
C1379 C1378 1.372 . S
C1379 C1380 1.400 . S
C1379 C1384 1.490 . S
C1380 H1370 0.930 . S
C1380 C1379 1.400 . S
C1380 C1383 1.386 . S
H1381 C1397 0.930 . S
H1382 C1398 0.931 . S
C1383 H1371 0.929 . S
C1383 C1377 1.390 . S
C1383 C1380 1.386 . S
C1384 C1379 1.490 . S
C1384 C1386 1.395 . S
C1384 C1387 1.403 . S
H1385 C1391 0.930 . S
C1386 H1372 0.930 . S
C1386 C1384 1.395 . S
C1386 C1389 1.403 . S
C1387 C1384 1.403 . S
C1387 C1388 1.524 . S
C1387 C1391 1.400 . S
C1388 H1373 0.960 . S
C1388 H1374 0.960 . S
C1388 H1375 0.960 . S
C1388 C1387 1.524 . S
C1389 C1386 1.403 . S
C1389 C1390 1.392 . S
C1389 C1393 1.495 . S
C1390 C1389 1.392 . S
C1390 C1391 1.385 . S
C1390 C1392 1.478 . S
C1391 H1385 0.930 . S
C1391 C1387 1.400 . S
C1391 C1390 1.385 . S
C1392 C1390 1.478 . S
C1392 C1394 1.381 . S
C1392 C1398 1.383 . S
C1393 C1389 1.495 . S
C1393 H1399 0.959 . S
C1393 H1400 0.961 . S
C1393 H1401 0.960 . S
C1394 C1392 1.381 . S
C1394 C1395 1.394 . S
C1394 H1402 0.930 . S
C1395 C1394 1.394 . S
C1395 C1396 1.383 . S
C1395 H1403 0.929 . S
C1396 C1395 1.383 . S
C1396 C1397 1.377 . S
C1397 H1381 0.930 . S
C1397 C1396 1.377 . S
C1397 C1398 1.379 . S
C1398 H1382 0.931 . S
C1398 C1392 1.383 . S
C1398 C1397 1.379 . S
H1399 C1393 0.959 . S
H1400 C1393 0.961 . S
H1401 C1393 0.960 . S
H1402 C1394 0.930 . S
H1403 C1395 0.929 . S
H1404 C1412 0.929 . S
H1405 C1414 0.930 . S
H1406 C1416 0.930 . S
H1407 C1419 0.929 . S
H1408 C1422 0.930 . S
H1409 C1424 0.960 . S
H1410 C1424 0.960 . S
H1411 C1424 0.960 . S
C1412 H1404 0.929 . S
C1412 C1413 1.377 . S
C1412 C1414 1.384 . S
C1413 C1412 1.377 . S
C1413 C1419 1.390 . S
C1414 H1405 0.930 . S
C1414 C1412 1.384 . S
C1414 C1415 1.372 . S
C1415 C1414 1.372 . S
C1415 C1416 1.400 . S
C1415 C1420 1.490 . S
C1416 H1406 0.930 . S
C1416 C1415 1.400 . S
C1416 C1419 1.386 . S
H1417 C1433 0.930 1_556 S
H1418 C1434 0.878 1_556 S
C1419 H1407 0.929 . S
C1419 C1413 1.390 . S
C1419 C1416 1.386 . S
C1420 C1415 1.490 . S
C1420 C1422 1.395 . S
C1420 C1423 1.403 . S
H1421 C1427 0.930 . S
C1422 H1408 0.930 . S
C1422 C1420 1.395 . S
C1422 C1425 1.403 . S
C1423 C1420 1.403 . S
C1423 C1424 1.524 . S
C1423 C1427 1.400 . S
C1424 H1409 0.960 . S
C1424 H1410 0.960 . S
C1424 H1411 0.960 . S
C1424 C1423 1.524 . S
C1425 C1422 1.403 . S
C1425 C1426 1.392 . S
C1425 C1429 1.495 . S
C1426 C1425 1.392 . S
C1426 C1427 1.385 . S
C1426 C1428 1.478 . S
C1427 H1421 0.930 . S
C1427 C1423 1.400 . S
C1427 C1426 1.385 . S
C1428 C1426 1.478 . S
C1428 C1430 1.381 . S
C1428 C1434 1.383 . S
C1429 C1425 1.495 . S
C1429 H1435 0.959 . S
C1429 H1436 0.961 . S
C1429 H1437 0.960 . S
C1430 C1428 1.381 . S
C1430 C1431 1.394 . S
C1430 H1438 0.930 . S
C1431 C1430 1.394 . S
C1431 C1432 1.383 . S
C1431 H1439 0.929 . S
C1432 C1431 1.383 . S
C1432 C1433 1.377 . S
C1433 H1417 0.930 1_554 S
C1433 C1432 1.377 . S
C1433 C1434 1.379 . S
C1434 H1418 0.878 1_554 S
C1434 C1428 1.383 . S
C1434 C1433 1.379 . S
H1435 C1429 0.959 . S
H1436 C1429 0.961 . S
H1437 C1429 0.960 . S
H1438 C1430 0.930 . S
H1439 C1431 0.929 . S
H1440 C1448 0.929 . S
H1441 C1450 0.930 . S
H1442 C1452 0.930 . S
H1443 C1455 0.929 . S
H1444 C1458 0.930 . S
H1445 C1460 0.960 . S
H1446 C1460 0.960 1_655 S
H1447 C1460 0.960 . S
C1448 H1440 0.929 . S
C1448 C1449 1.377 . S
C1448 C1450 1.384 . S
C1449 C1448 1.377 . S
C1449 C1455 1.390 . S
C1450 H1441 0.930 . S
C1450 C1448 1.384 . S
C1450 C1451 1.372 . S
C1451 C1450 1.372 . S
C1451 C1452 1.400 . S
C1451 C1456 1.490 1_655 S
C1452 H1442 0.930 . S
C1452 C1451 1.400 . S
C1452 C1455 1.386 . S
H1453 C1469 0.930 . S
H1454 C1470 0.931 . S
C1455 H1443 0.929 . S
C1455 C1449 1.390 . S
C1455 C1452 1.386 . S
C1456 C1451 1.490 1_455 S
C1456 C1458 1.395 . S
C1456 C1459 1.403 . S
H1457 C1463 0.930 . S
C1458 H1444 0.930 . S
C1458 C1456 1.395 . S
C1458 C1461 1.403 . S
C1459 C1456 1.403 . S
C1459 C1460 1.524 . S
C1459 C1463 1.400 . S
C1460 H1445 0.960 . S
C1460 H1446 0.960 1_455 S
C1460 H1447 0.960 . S
C1460 C1459 1.524 . S
C1461 C1458 1.403 . S
C1461 C1462 1.392 . S
C1461 C1465 1.495 . S
C1462 C1461 1.392 . S
C1462 C1463 1.385 . S
C1462 C1464 1.478 . S
C1463 H1457 0.930 . S
C1463 C1459 1.400 . S
C1463 C1462 1.385 . S
C1464 C1462 1.478 . S
C1464 C1466 1.381 . S
C1464 C1470 1.383 . S
C1465 C1461 1.495 . S
C1465 H1471 0.959 . S
C1465 H1472 0.961 . S
C1465 H1473 0.960 . S
C1466 C1464 1.381 . S
C1466 C1467 1.394 . S
C1466 H1474 0.930 . S
C1467 C1466 1.394 . S
C1467 C1468 1.383 . S
C1467 H1475 0.929 . S
C1468 C1467 1.383 . S
C1468 C1469 1.377 . S
C1469 H1453 0.930 . S
C1469 C1468 1.377 . S
C1469 C1470 1.379 . S
C1470 H1454 0.931 . S
C1470 C1464 1.383 . S
C1470 C1469 1.379 . S
H1471 C1465 0.959 . S
H1472 C1465 0.961 . S
H1473 C1465 0.960 . S
H1474 C1466 0.930 . S
H1475 C1467 0.929 . S
H1476 C1484 0.929 . S
H1477 C1486 0.930 . S
H1478 C1488 0.930 . S
H1479 C1491 0.929 . S
H1480 C1494 0.930 . S
H1481 C1496 0.960 . S
H1482 C1496 0.960 . S
H1483 C1496 0.960 . S
C1484 H1476 0.929 . S
C1484 C1485 1.377 . S
C1484 C1486 1.384 . S
C1485 C1484 1.377 . S
C1485 C1491 1.390 . S
C1486 H1477 0.930 . S
C1486 C1484 1.384 . S
C1486 C1487 1.372 . S
C1487 C1486 1.372 . S
C1487 C1488 1.400 . S
C1487 C1492 1.490 . S
C1488 H1478 0.930 . S
C1488 C1487 1.400 . S
C1488 C1491 1.386 . S
H1489 C1505 0.930 . S
H1490 C1506 0.931 . S
C1491 H1479 0.929 . S
C1491 C1485 1.390 . S
C1491 C1488 1.386 . S
C1492 C1487 1.490 . S
C1492 C1494 1.395 . S
C1492 C1495 1.403 . S
H1493 C1499 0.930 . S
C1494 H1480 0.930 . S
C1494 C1492 1.395 . S
C1494 C1497 1.403 . S
C1495 C1492 1.403 . S
C1495 C1496 1.524 . S
C1495 C1499 1.400 . S
C1496 H1481 0.960 . S
C1496 H1482 0.960 . S
C1496 H1483 0.960 . S
C1496 C1495 1.524 . S
C1497 C1494 1.403 . S
C1497 C1498 1.392 . S
C1497 C1501 1.495 . S
C1498 C1497 1.392 . S
C1498 C1499 1.385 . S
C1498 C1500 1.478 . S
C1499 H1493 0.930 . S
C1499 C1495 1.400 . S
C1499 C1498 1.385 . S
C1500 C1498 1.478 . S
C1500 C1502 1.381 . S
C1500 C1506 1.383 . S
C1501 C1497 1.495 . S
C1501 H1507 0.959 . S
C1501 H1508 0.961 . S
C1501 H1509 0.960 . S
C1502 C1500 1.381 . S
C1502 C1503 1.394 . S
C1502 H1510 0.930 . S
C1503 C1502 1.394 . S
C1503 C1504 1.383 . S
C1503 H1511 0.929 . S
C1504 C1503 1.383 . S
C1504 C1505 1.377 . S
C1505 H1489 0.930 . S
C1505 C1504 1.377 . S
C1505 C1506 1.379 . S
C1506 H1490 0.931 . S
C1506 C1500 1.383 . S
C1506 C1505 1.379 . S
H1507 C1501 0.959 . S
H1508 C1501 0.961 . S
H1509 C1501 0.960 . S
H1510 C1502 0.930 . S
H1511 C1503 0.929 . S
H1512 C1520 0.929 . S
H1513 C1522 0.930 . S
H1514 C1524 0.930 . S
H1515 C1527 0.929 . S
H1516 C1530 0.930 . S
H1517 C1532 0.906 1_565 S
H1518 C1532 0.969 . S
H1519 C1532 1.007 . S
C1520 H1512 0.929 . S
C1520 C1521 1.377 . S
C1520 C1522 1.384 . S
C1521 C1520 1.377 . S
C1521 C1527 1.390 . S
C1522 H1513 0.930 . S
C1522 C1520 1.384 . S
C1522 C1523 1.372 . S
C1523 C1522 1.372 . S
C1523 C1524 1.400 . S
C1523 C1528 1.524 . S
C1524 H1514 0.930 . S
C1524 C1523 1.400 . S
C1524 C1527 1.386 . S
H1525 C1541 0.930 . S
H1526 C1542 0.931 . S
C1527 H1515 0.929 . S
C1527 C1521 1.390 . S
C1527 C1524 1.386 . S
C1528 C1523 1.524 . S
C1528 C1530 1.393 1_545 S
C1528 C1531 1.372 1_545 S
H1529 C1535 0.930 . S
C1530 H1516 0.930 . S
C1530 C1528 1.393 1_565 S
C1530 C1533 1.403 . S
C1531 C1528 1.372 1_565 S
C1531 C1532 1.525 1_565 S
C1531 C1535 1.400 . S
C1532 H1517 0.906 1_545 S
C1532 H1518 0.969 . S
C1532 H1519 1.007 . S
C1532 C1531 1.525 1_545 S
C1533 C1530 1.403 . S
C1533 C1534 1.392 . S
C1533 C1537 1.495 . S
C1534 C1533 1.392 . S
C1534 C1535 1.385 . S
C1534 C1536 1.478 . S
C1535 H1529 0.930 . S
C1535 C1531 1.400 . S
C1535 C1534 1.385 . S
C1536 C1534 1.478 . S
C1536 C1538 1.381 . S
C1536 C1542 1.383 . S
C1537 C1533 1.495 . S
C1537 H1543 0.959 . S
C1537 H1544 0.961 . S
C1537 H1545 0.960 . S
C1538 C1536 1.381 . S
C1538 C1539 1.394 . S
C1538 H1546 0.930 . S
C1539 C1538 1.394 . S
C1539 C1540 1.383 . S
C1539 H1547 0.929 . S
C1540 C1539 1.383 . S
C1540 C1541 1.377 . S
C1541 H1525 0.930 . S
C1541 C1540 1.377 . S
C1541 C1542 1.379 . S
C1542 H1526 0.931 . S
C1542 C1536 1.383 . S
C1542 C1541 1.379 . S
H1543 C1537 0.959 . S
H1544 C1537 0.961 . S
H1545 C1537 0.960 . S
H1546 C1538 0.930 . S
H1547 C1539 0.929 . S
H1548 C1556 0.929 . S
H1549 C1558 0.930 . S
H1550 C1560 0.930 . S
H1551 C1563 0.929 . S
H1552 C1566 0.930 . S
H1553 C1568 0.960 . S
H1554 C1568 0.960 . S
H1555 C1568 0.960 . S
C1556 H1548 0.929 . S
C1556 C1557 1.377 . S
C1556 C1558 1.384 . S
C1557 C1556 1.377 . S
C1557 C1563 1.390 . S
C1558 H1549 0.930 . S
C1558 C1556 1.384 . S
C1558 C1559 1.372 . S
C1559 C1558 1.372 . S
C1559 C1560 1.400 . S
C1559 C1564 1.490 . S
C1560 H1550 0.930 . S
C1560 C1559 1.400 . S
C1560 C1563 1.386 . S
H1561 C1577 0.930 . S
H1562 C1578 0.931 . S
C1563 H1551 0.929 . S
C1563 C1557 1.390 . S
C1563 C1560 1.386 . S
C1564 C1559 1.490 . S
C1564 C1566 1.395 . S
C1564 C1567 1.403 . S
H1565 C1571 0.930 . S
C1566 H1552 0.930 . S
C1566 C1564 1.395 . S
C1566 C1569 1.403 . S
C1567 C1564 1.403 . S
C1567 C1568 1.524 . S
C1567 C1571 1.400 . S
C1568 H1553 0.960 . S
C1568 H1554 0.960 . S
C1568 H1555 0.960 . S
C1568 C1567 1.524 . S
C1569 C1566 1.403 . S
C1569 C1570 1.392 . S
C1569 C1573 1.495 . S
C1570 C1569 1.392 . S
C1570 C1571 1.385 . S
C1570 C1572 1.478 . S
C1571 H1565 0.930 . S
C1571 C1567 1.400 . S
C1571 C1570 1.385 . S
C1572 C1570 1.478 . S
C1572 C1574 1.381 . S
C1572 C1578 1.383 . S
C1573 C1569 1.495 . S
C1573 H1579 0.959 . S
C1573 H1580 0.961 . S
C1573 H1581 0.960 . S
C1574 C1572 1.381 . S
C1574 C1575 1.394 . S
C1574 H1582 0.930 . S
C1575 C1574 1.394 . S
C1575 C1576 1.383 . S
C1575 H1583 0.929 . S
C1576 C1575 1.383 . S
C1576 C1577 1.377 . S
C1577 H1561 0.930 . S
C1577 C1576 1.377 . S
C1577 C1578 1.379 . S
C1578 H1562 0.931 . S
C1578 C1572 1.383 . S
C1578 C1577 1.379 . S
H1579 C1573 0.959 . S
H1580 C1573 0.961 . S
H1581 C1573 0.960 . S
H1582 C1574 0.930 . S
H1583 C1575 0.929 . S
H1584 C1592 0.929 . S
H1585 C1594 0.930 . S
H1586 C1596 0.930 . S
H1587 C1599 0.929 . S
H1588 C1602 0.930 . S
H1589 C1604 0.960 . S
H1590 C1604 0.960 . S
H1591 C1604 0.960 . S
C1592 H1584 0.929 . S
C1592 C1593 1.377 . S
C1592 C1594 1.384 . S
C1593 C1592 1.377 . S
C1593 C1599 1.390 . S
C1594 H1585 0.930 . S
C1594 C1592 1.384 . S
C1594 C1595 1.372 . S
C1595 C1594 1.372 . S
C1595 C1596 1.400 . S
C1595 C1600 1.490 . S
C1596 H1586 0.930 . S
C1596 C1595 1.400 . S
C1596 C1599 1.386 . S
H1597 C1613 0.930 . S
H1598 C1614 0.931 . S
C1599 H1587 0.929 . S
C1599 C1593 1.390 . S
C1599 C1596 1.386 . S
C1600 C1595 1.490 . S
C1600 C1602 1.395 . S
C1600 C1603 1.403 . S
H1601 C1607 0.930 . S
C1602 H1588 0.930 . S
C1602 C1600 1.395 . S
C1602 C1605 1.403 . S
C1603 C1600 1.403 . S
C1603 C1604 1.524 . S
C1603 C1607 1.400 . S
C1604 H1589 0.960 . S
C1604 H1590 0.960 . S
C1604 H1591 0.960 . S
C1604 C1603 1.524 . S
C1605 C1602 1.403 . S
C1605 C1606 1.392 . S
C1605 C1609 1.495 . S
C1606 C1605 1.392 . S
C1606 C1607 1.385 . S
C1606 C1608 1.478 . S
C1607 H1601 0.930 . S
C1607 C1603 1.400 . S
C1607 C1606 1.385 . S
C1608 C1606 1.478 . S
C1608 C1610 1.381 . S
C1608 C1614 1.383 . S
C1609 C1605 1.495 . S
C1609 H1615 0.959 . S
C1609 H1616 0.961 . S
C1609 H1617 0.960 . S
C1610 C1608 1.381 . S
C1610 C1611 1.394 . S
C1610 H1618 0.930 . S
C1611 C1610 1.394 . S
C1611 C1612 1.383 . S
C1611 H1619 0.929 . S
C1612 C1611 1.383 . S
C1612 C1613 1.377 . S
C1613 H1597 0.930 . S
C1613 C1612 1.377 . S
C1613 C1614 1.379 . S
C1614 H1598 0.931 . S
C1614 C1608 1.383 . S
C1614 C1613 1.379 . S
H1615 C1609 0.959 . S
H1616 C1609 0.961 . S
H1617 C1609 0.960 . S
H1618 C1610 0.930 . S
H1619 C1611 0.929 . S
H1620 C1628 0.929 . S
H1621 C1630 0.930 . S
H1622 C1632 0.930 . S
H1623 C1635 0.929 . S
H1624 C1638 0.930 . S
H1625 C1640 0.960 . S
H1626 C1640 0.960 . S
H1627 C1640 0.960 . S
C1628 H1620 0.929 . S
C1628 C1629 1.377 . S
C1628 C1630 1.384 . S
C1629 C1628 1.377 . S
C1629 C1635 1.390 . S
C1630 H1621 0.930 . S
C1630 C1628 1.384 . S
C1630 C1631 1.372 . S
C1631 C1630 1.372 . S
C1631 C1632 1.400 . S
C1631 C1636 1.490 . S
C1632 H1622 0.930 . S
C1632 C1631 1.400 . S
C1632 C1635 1.386 . S
H1633 C1649 0.930 . S
H1634 C1650 0.931 . S
C1635 H1623 0.929 . S
C1635 C1629 1.390 . S
C1635 C1632 1.386 . S
C1636 C1631 1.490 . S
C1636 C1638 1.395 . S
C1636 C1639 1.403 . S
H1637 C1643 0.930 . S
C1638 H1624 0.930 . S
C1638 C1636 1.395 . S
C1638 C1641 1.403 . S
C1639 C1636 1.403 . S
C1639 C1640 1.524 . S
C1639 C1643 1.400 . S
C1640 H1625 0.960 . S
C1640 H1626 0.960 . S
C1640 H1627 0.960 . S
C1640 C1639 1.524 . S
C1641 C1638 1.403 . S
C1641 C1642 1.392 . S
C1641 C1645 1.495 . S
C1642 C1641 1.392 . S
C1642 C1643 1.385 . S
C1642 C1644 1.478 . S
C1643 H1637 0.930 . S
C1643 C1639 1.400 . S
C1643 C1642 1.385 . S
C1644 C1642 1.478 . S
C1644 C1646 1.381 . S
C1644 C1650 1.383 . S
C1645 C1641 1.495 . S
C1645 H1651 0.959 . S
C1645 H1652 0.961 . S
C1645 H1653 0.960 . S
C1646 C1644 1.381 . S
C1646 C1647 1.394 . S
C1646 H1654 0.930 . S
C1647 C1646 1.394 . S
C1647 C1648 1.383 . S
C1647 H1655 0.929 . S
C1648 C1647 1.383 . S
C1648 C1649 1.377 . S
C1649 H1633 0.930 . S
C1649 C1648 1.377 . S
C1649 C1650 1.379 . S
C1650 H1634 0.931 . S
C1650 C1644 1.383 . S
C1650 C1649 1.379 . S
H1651 C1645 0.959 . S
H1652 C1645 0.961 . S
H1653 C1645 0.960 . S
H1654 C1646 0.930 . S
H1655 C1647 0.929 . S
H1656 C1664 0.929 . S
H1657 C1666 0.930 . S
H1658 C1668 0.930 . S
H1659 C1671 0.929 . S
H1660 C1674 0.930 . S
H1661 C1676 0.960 . S
H1662 C1676 0.960 . S
H1663 C1676 0.960 . S
C1664 H1656 0.929 . S
C1664 C1665 1.377 . S
C1664 C1666 1.384 . S
C1665 C1664 1.377 . S
C1665 C1671 1.390 . S
C1666 H1657 0.930 . S
C1666 C1664 1.384 . S
C1666 C1667 1.372 . S
C1667 C1666 1.372 . S
C1667 C1668 1.400 . S
C1667 C1672 1.490 . S
C1668 H1658 0.930 . S
C1668 C1667 1.400 . S
C1668 C1671 1.386 . S
H1669 C1685 0.930 . S
H1670 C1686 0.931 . S
C1671 H1659 0.929 . S
C1671 C1665 1.390 . S
C1671 C1668 1.386 . S
C1672 C1667 1.490 . S
C1672 C1674 1.395 . S
C1672 C1675 1.403 . S
H1673 C1679 0.930 . S
C1674 H1660 0.930 . S
C1674 C1672 1.395 . S
C1674 C1677 1.403 . S
C1675 C1672 1.403 . S
C1675 C1676 1.524 . S
C1675 C1679 1.400 . S
C1676 H1661 0.960 . S
C1676 H1662 0.960 . S
C1676 H1663 0.960 . S
C1676 C1675 1.524 . S
C1677 C1674 1.403 . S
C1677 C1678 1.392 . S
C1677 C1681 1.495 . S
C1678 C1677 1.392 . S
C1678 C1679 1.385 . S
C1678 C1680 1.478 . S
C1679 H1673 0.930 . S
C1679 C1675 1.400 . S
C1679 C1678 1.385 . S
C1680 C1678 1.478 . S
C1680 C1682 1.381 . S
C1680 C1686 1.383 . S
C1681 C1677 1.495 . S
C1681 H1687 0.959 . S
C1681 H1688 0.961 . S
C1681 H1689 0.960 . S
C1682 C1680 1.381 . S
C1682 C1683 1.394 . S
C1682 H1690 0.930 . S
C1683 C1682 1.394 . S
C1683 C1684 1.383 . S
C1683 H1691 0.929 . S
C1684 C1683 1.383 . S
C1684 C1685 1.377 . S
C1685 H1669 0.930 . S
C1685 C1684 1.377 . S
C1685 C1686 1.379 . S
C1686 H1670 0.931 . S
C1686 C1680 1.383 . S
C1686 C1685 1.379 . S
H1687 C1681 0.959 . S
H1688 C1681 0.961 . S
H1689 C1681 0.960 . S
H1690 C1682 0.930 . S
H1691 C1683 0.929 . S
H1692 C1700 0.929 . S
H1693 C1702 0.930 . S
H1694 C1704 0.930 . S
H1695 C1707 0.929 . S
H1696 C1710 0.930 . S
H1697 C1712 0.960 . S
H1698 C1712 0.960 . S
H1699 C1712 0.960 . S
C1700 H1692 0.929 . S
C1700 C1701 1.377 . S
C1700 C1702 1.384 . S
C1701 C1700 1.377 . S
C1701 C1707 1.390 . S
C1702 H1693 0.930 . S
C1702 C1700 1.384 . S
C1702 C1703 1.372 . S
C1703 C1702 1.372 . S
C1703 C1704 1.400 . S
C1703 C1708 1.490 . S
C1704 H1694 0.930 . S
C1704 C1703 1.400 . S
C1704 C1707 1.386 . S
H1705 C1721 0.930 . S
H1706 C1722 0.931 . S
C1707 H1695 0.929 . S
C1707 C1701 1.390 . S
C1707 C1704 1.386 . S
C1708 C1703 1.490 . S
C1708 C1710 1.395 . S
C1708 C1711 1.403 . S
H1709 C1715 0.930 . S
C1710 H1696 0.930 . S
C1710 C1708 1.395 . S
C1710 C1713 1.403 . S
C1711 C1708 1.403 . S
C1711 C1712 1.524 . S
C1711 C1715 1.400 . S
C1712 H1697 0.960 . S
C1712 H1698 0.960 . S
C1712 H1699 0.960 . S
C1712 C1711 1.524 . S
C1713 C1710 1.403 . S
C1713 C1714 1.392 . S
C1713 C1717 1.495 . S
C1714 C1713 1.392 . S
C1714 C1715 1.385 . S
C1714 C1716 1.478 . S
C1715 H1709 0.930 . S
C1715 C1711 1.400 . S
C1715 C1714 1.385 . S
C1716 C1714 1.478 . S
C1716 C1718 1.381 . S
C1716 C1722 1.383 . S
C1717 C1713 1.495 . S
C1717 H1723 0.959 . S
C1717 H1724 0.961 . S
C1717 H1725 0.960 . S
C1718 C1716 1.381 . S
C1718 C1719 1.394 . S
C1718 H1726 0.930 . S
C1719 C1718 1.394 . S
C1719 C1720 1.383 . S
C1719 H1727 0.929 . S
C1720 C1719 1.383 . S
C1720 C1721 1.377 . S
C1721 H1705 0.930 . S
C1721 C1720 1.377 . S
C1721 C1722 1.379 . S
C1722 H1706 0.931 . S
C1722 C1716 1.383 . S
C1722 C1721 1.379 . S
H1723 C1717 0.959 . S
H1724 C1717 0.961 . S
H1725 C1717 0.960 . S
H1726 C1718 0.930 . S
H1727 C1719 0.929 . S
H1728 C1736 0.929 . S
H1729 C1738 0.930 . S
H1730 C1740 0.930 . S
H1731 C1743 0.929 . S
H1732 C1746 0.930 . S
H1733 C1748 0.960 . S
H1734 C1748 0.960 . S
H1735 C1748 0.960 . S
C1736 H1728 0.929 . S
C1736 C1737 1.377 . S
C1736 C1738 1.384 . S
C1737 C1736 1.377 . S
C1737 C1743 1.390 . S
C1738 H1729 0.930 . S
C1738 C1736 1.384 . S
C1738 C1739 1.372 . S
C1739 C1738 1.372 . S
C1739 C1740 1.400 . S
C1739 C1744 1.490 . S
C1740 H1730 0.930 . S
C1740 C1739 1.400 . S
C1740 C1743 1.386 . S
H1741 C1757 0.930 . S
H1742 C1758 0.931 . S
C1743 H1731 0.929 . S
C1743 C1737 1.390 . S
C1743 C1740 1.386 . S
C1744 C1739 1.490 . S
C1744 C1746 1.395 . S
C1744 C1747 1.403 . S
H1745 C1751 0.930 . S
C1746 H1732 0.930 . S
C1746 C1744 1.395 . S
C1746 C1749 1.403 . S
C1747 C1744 1.403 . S
C1747 C1748 1.524 . S
C1747 C1751 1.400 . S
C1748 H1733 0.960 . S
C1748 H1734 0.960 . S
C1748 H1735 0.960 . S
C1748 C1747 1.524 . S
C1749 C1746 1.403 . S
C1749 C1750 1.392 . S
C1749 C1753 1.495 . S
C1750 C1749 1.392 . S
C1750 C1751 1.385 . S
C1750 C1752 1.478 . S
C1751 H1745 0.930 . S
C1751 C1747 1.400 . S
C1751 C1750 1.385 . S
C1752 C1750 1.478 . S
C1752 C1754 1.381 . S
C1752 C1758 1.383 . S
C1753 C1749 1.495 . S
C1753 H1759 0.959 . S
C1753 H1760 0.961 . S
C1753 H1761 0.960 . S
C1754 C1752 1.381 . S
C1754 C1755 1.394 . S
C1754 H1762 0.930 . S
C1755 C1754 1.394 . S
C1755 C1756 1.383 . S
C1755 H1763 0.929 . S
C1756 C1755 1.383 . S
C1756 C1757 1.377 . S
C1757 H1741 0.930 . S
C1757 C1756 1.377 . S
C1757 C1758 1.379 . S
C1758 H1742 0.931 . S
C1758 C1752 1.383 . S
C1758 C1757 1.379 . S
H1759 C1753 0.959 . S
H1760 C1753 0.961 . S
H1761 C1753 0.960 . S
H1762 C1754 0.930 . S
H1763 C1755 0.929 . S
H1764 C1772 0.929 . S
H1765 C1774 0.930 . S
H1766 C1776 0.930 . S
H1767 C1779 0.929 . S
H1768 C1782 0.970 . S
H1769 C1784 0.960 . S
H1770 C1784 0.960 . S
H1771 C1784 0.960 . S
C1772 H1764 0.929 . S
C1772 C1773 1.377 . S
C1772 C1774 1.384 . S
C1773 C1772 1.377 . S
C1773 C1779 1.390 . S
C1774 H1765 0.930 . S
C1774 C1772 1.384 . S
C1774 C1775 1.372 . S
C1775 C1774 1.372 . S
C1775 C1776 1.400 . S
C1775 C1780 1.490 1_545 S
C1776 H1766 0.930 . S
C1776 C1775 1.400 . S
C1776 C1779 1.386 . S
H1777 C1793 0.930 . S
H1778 C1794 0.931 . S
C1779 H1767 0.929 . S
C1779 C1773 1.390 . S
C1779 C1776 1.386 . S
C1780 C1775 1.490 1_565 S
C1780 C1782 1.395 . S
C1780 C1783 1.403 . S
H1781 C1787 0.930 . S
C1782 H1768 0.970 . S
C1782 C1780 1.395 . S
C1782 C1785 1.403 . S
C1783 C1780 1.403 . S
C1783 C1784 1.524 . S
C1783 C1787 1.400 . S
C1784 H1769 0.960 . S
C1784 H1770 0.960 . S
C1784 H1771 0.960 . S
C1784 C1783 1.524 . S
C1785 C1782 1.403 . S
C1785 C1786 1.392 . S
C1785 C1789 1.495 . S
C1786 C1785 1.392 . S
C1786 C1787 1.385 . S
C1786 C1788 1.478 . S
C1787 H1781 0.930 . S
C1787 C1783 1.400 . S
C1787 C1786 1.385 . S
C1788 C1786 1.478 . S
C1788 C1790 1.381 . S
C1788 C1794 1.383 . S
C1789 C1785 1.495 . S
C1789 H1795 0.959 . S
C1789 H1796 0.961 . S
C1789 H1797 0.960 . S
C1790 C1788 1.381 . S
C1790 C1791 1.394 . S
C1790 H1798 0.930 . S
C1791 C1790 1.394 . S
C1791 C1792 1.383 . S
C1791 H1799 0.929 . S
C1792 C1791 1.383 . S
C1792 C1793 1.377 . S
C1793 H1777 0.930 . S
C1793 C1792 1.377 . S
C1793 C1794 1.379 . S
C1794 H1778 0.931 . S
C1794 C1788 1.383 . S
C1794 C1793 1.379 . S
H1795 C1789 0.959 . S
H1796 C1789 0.961 . S
H1797 C1789 0.960 . S
H1798 C1790 0.930 . S
H1799 C1791 0.929 . S
H1800 C1808 0.929 . S
H1801 C1810 0.930 . S
H1802 C1812 0.930 . S
H1803 C1815 0.929 . S
H1804 C1818 0.930 . S
H1805 C1820 0.960 . S
H1806 C1820 0.960 . S
H1807 C1820 0.960 . S
C1808 H1800 0.929 . S
C1808 C1809 1.377 . S
C1808 C1810 1.384 1_655 S
C1809 C1808 1.377 . S
C1809 C1815 1.390 . S
C1810 H1801 0.930 . S
C1810 C1808 1.384 1_455 S
C1810 C1811 1.372 . S
C1811 C1810 1.372 . S
C1811 C1812 1.400 1_455 S
C1811 C1816 1.490 . S
C1812 H1802 0.930 . S
C1812 C1811 1.400 1_655 S
C1812 C1815 1.386 . S
H1813 C1829 0.930 . S
H1814 C1830 0.931 . S
C1815 H1803 0.929 . S
C1815 C1809 1.390 . S
C1815 C1812 1.386 . S
C1816 C1811 1.490 . S
C1816 C1818 1.395 . S
C1816 C1819 1.403 . S
H1817 C1823 0.930 . S
C1818 H1804 0.930 . S
C1818 C1816 1.395 . S
C1818 C1821 1.403 . S
C1819 C1816 1.403 . S
C1819 C1820 1.524 . S
C1819 C1823 1.400 . S
C1820 H1805 0.960 . S
C1820 H1806 0.960 . S
C1820 H1807 0.960 . S
C1820 C1819 1.524 . S
C1821 C1818 1.403 . S
C1821 C1822 1.392 . S
C1821 C1825 1.495 . S
C1822 C1821 1.392 . S
C1822 C1823 1.385 . S
C1822 C1824 1.478 . S
C1823 H1817 0.930 . S
C1823 C1819 1.400 . S
C1823 C1822 1.385 . S
C1824 C1822 1.478 . S
C1824 C1826 1.381 . S
C1824 C1830 1.383 . S
C1825 C1821 1.495 . S
C1825 H1831 0.959 . S
C1825 H1832 0.961 . S
C1825 H1833 0.960 . S
C1826 C1824 1.381 . S
C1826 C1827 1.394 . S
C1826 H1834 0.930 . S
C1827 C1826 1.394 . S
C1827 C1828 1.383 . S
C1827 H1835 0.929 . S
C1828 C1827 1.383 . S
C1828 C1829 1.377 . S
C1829 H1813 0.930 . S
C1829 C1828 1.377 . S
C1829 C1830 1.379 . S
C1830 H1814 0.931 . S
C1830 C1824 1.383 . S
C1830 C1829 1.379 . S
H1831 C1825 0.959 . S
H1832 C1825 0.961 . S
H1833 C1825 0.960 . S
H1834 C1826 0.930 . S
H1835 C1827 0.929 . S
H1836 C1844 0.929 . S
H1837 C1846 0.930 . S
H1838 C1848 0.930 . S
H1839 C1851 0.929 . S
H1840 C1854 0.930 . S
H1841 C1856 0.960 . S
H1842 C1856 0.960 . S
H1843 C1856 0.960 . S
C1844 H1836 0.929 . S
C1844 C1845 1.377 . S
C1844 C1846 1.384 . S
C1845 C1844 1.377 . S
C1845 C1851 1.390 . S
C1846 H1837 0.930 . S
C1846 C1844 1.384 . S
C1846 C1847 1.372 . S
C1847 C1846 1.372 . S
C1847 C1848 1.400 . S
C1847 C1852 1.490 . S
C1848 H1838 0.930 . S
C1848 C1847 1.400 . S
C1848 C1851 1.386 . S
H1849 C1865 0.930 . S
H1850 C1866 0.931 . S
C1851 H1839 0.929 . S
C1851 C1845 1.390 . S
C1851 C1848 1.386 . S
C1852 C1847 1.490 . S
C1852 C1854 1.395 . S
C1852 C1855 1.403 . S
H1853 C1859 0.930 . S
C1854 H1840 0.930 . S
C1854 C1852 1.395 . S
C1854 C1857 1.403 . S
C1855 C1852 1.403 . S
C1855 C1856 1.524 . S
C1855 C1859 1.400 . S
C1856 H1841 0.960 . S
C1856 H1842 0.960 . S
C1856 H1843 0.960 . S
C1856 C1855 1.524 . S
C1857 C1854 1.403 . S
C1857 C1858 1.392 . S
C1857 C1861 1.495 . S
C1858 C1857 1.392 . S
C1858 C1859 1.385 . S
C1858 C1860 1.478 . S
C1859 H1853 0.930 . S
C1859 C1855 1.400 . S
C1859 C1858 1.385 . S
C1860 C1858 1.478 . S
C1860 C1862 1.381 . S
C1860 C1866 1.383 . S
C1861 C1857 1.495 . S
C1861 H1867 0.959 . S
C1861 H1868 0.961 . S
C1861 H1869 0.960 . S
C1862 C1860 1.381 . S
C1862 C1863 1.394 . S
C1862 H1870 0.930 . S
C1863 C1862 1.394 . S
C1863 C1864 1.383 . S
C1863 H1871 0.929 . S
C1864 C1863 1.383 . S
C1864 C1865 1.377 . S
C1865 H1849 0.930 . S
C1865 C1864 1.377 . S
C1865 C1866 1.379 . S
C1866 H1850 0.931 . S
C1866 C1860 1.383 . S
C1866 C1865 1.379 . S
H1867 C1861 0.959 . S
H1868 C1861 0.961 . S
H1869 C1861 0.960 . S
H1870 C1862 0.930 . S
H1871 C1863 0.929 . S
H1872 C1880 0.929 . S
H1873 C1882 0.930 . S
H1874 C1884 0.930 . S
H1875 C1887 0.929 . S
H1876 C1890 0.930 . S
H1877 C1892 0.960 . S
H1878 C1892 0.960 . S
H1879 C1892 0.960 . S
C1880 H1872 0.929 . S
C1880 C1881 1.377 . S
C1880 C1882 1.384 . S
C1881 C1880 1.377 . S
C1881 C1887 1.390 . S
C1882 H1873 0.930 . S
C1882 C1880 1.384 . S
C1882 C1883 1.372 . S
C1883 C1882 1.372 . S
C1883 C1884 1.400 . S
C1883 C1888 1.490 . S
C1884 H1874 0.930 . S
C1884 C1883 1.400 . S
C1884 C1887 1.386 . S
H1885 C1901 0.930 . S
H1886 C1902 0.931 . S
C1887 H1875 0.929 . S
C1887 C1881 1.390 . S
C1887 C1884 1.386 . S
C1888 C1883 1.490 . S
C1888 C1890 1.395 . S
C1888 C1891 1.403 . S
H1889 C1895 0.930 . S
C1890 H1876 0.930 . S
C1890 C1888 1.395 . S
C1890 C1893 1.403 . S
C1891 C1888 1.403 . S
C1891 C1892 1.524 . S
C1891 C1895 1.400 . S
C1892 H1877 0.960 . S
C1892 H1878 0.960 . S
C1892 H1879 0.960 . S
C1892 C1891 1.524 . S
C1893 C1890 1.403 . S
C1893 C1894 1.392 . S
C1893 C1897 1.495 . S
C1894 C1893 1.392 . S
C1894 C1895 1.385 . S
C1894 C1896 1.478 . S
C1895 H1889 0.930 . S
C1895 C1891 1.400 . S
C1895 C1894 1.385 . S
C1896 C1894 1.478 . S
C1896 C1898 1.381 . S
C1896 C1902 1.383 . S
C1897 C1893 1.495 . S
C1897 H1903 0.959 . S
C1897 H1904 0.961 . S
C1897 H1905 0.960 . S
C1898 C1896 1.381 . S
C1898 C1899 1.394 . S
C1898 H1906 0.930 . S
C1899 C1898 1.394 . S
C1899 C1900 1.383 . S
C1899 H1907 0.929 . S
C1900 C1899 1.383 . S
C1900 C1901 1.377 . S
C1901 H1885 0.930 . S
C1901 C1900 1.377 . S
C1901 C1902 1.379 . S
C1902 H1886 0.931 . S
C1902 C1896 1.383 . S
C1902 C1901 1.379 . S
H1903 C1897 0.959 . S
H1904 C1897 0.961 . S
H1905 C1897 0.960 . S
H1906 C1898 0.930 . S
H1907 C1899 0.929 . S
H1908 C1916 0.929 . S
H1909 C1918 0.930 . S
H1910 C1920 0.930 . S
H1911 C1923 0.929 . S
H1912 C1926 0.930 . S
H1913 C1928 0.960 . S
H1914 C1928 0.960 . S
H1915 C1928 0.960 . S
C1916 H1908 0.929 . S
C1916 C1917 1.377 . S
C1916 C1918 1.384 . S
C1917 C1916 1.377 . S
C1917 C1923 1.390 . S
C1918 H1909 0.930 . S
C1918 C1916 1.384 . S
C1918 C1919 1.372 . S
C1919 C1918 1.372 . S
C1919 C1920 1.400 . S
C1919 C1924 1.490 . S
C1920 H1910 0.930 . S
C1920 C1919 1.400 . S
C1920 C1923 1.386 . S
H1921 C1937 0.930 . S
H1922 C1938 0.931 . S
C1923 H1911 0.929 . S
C1923 C1917 1.390 . S
C1923 C1920 1.386 . S
C1924 C1919 1.490 . S
C1924 C1926 1.395 . S
C1924 C1927 1.403 . S
H1925 C1931 0.930 . S
C1926 H1912 0.930 . S
C1926 C1924 1.395 . S
C1926 C1929 1.403 . S
C1927 C1924 1.403 . S
C1927 C1928 1.524 . S
C1927 C1931 1.400 . S
C1928 H1913 0.960 . S
C1928 H1914 0.960 . S
C1928 H1915 0.960 . S
C1928 C1927 1.524 . S
C1929 C1926 1.403 . S
C1929 C1930 1.392 . S
C1929 C1933 1.495 . S
C1930 C1929 1.392 . S
C1930 C1931 1.385 . S
C1930 C1932 1.478 . S
C1931 H1925 0.930 . S
C1931 C1927 1.400 . S
C1931 C1930 1.385 . S
C1932 C1930 1.478 . S
C1932 C1934 1.381 . S
C1932 C1938 1.383 . S
C1933 C1929 1.495 . S
C1933 H1939 0.959 . S
C1933 H1940 0.961 . S
C1933 H1941 0.960 . S
C1934 C1932 1.381 . S
C1934 C1935 1.394 . S
C1934 H1942 0.930 . S
C1935 C1934 1.394 . S
C1935 C1936 1.383 . S
C1935 H1943 0.929 . S
C1936 C1935 1.383 . S
C1936 C1937 1.377 . S
C1937 H1921 0.930 . S
C1937 C1936 1.377 . S
C1937 C1938 1.379 . S
C1938 H1922 0.931 . S
C1938 C1932 1.383 . S
C1938 C1937 1.379 . S
H1939 C1933 0.959 . S
H1940 C1933 0.961 . S
H1941 C1933 0.960 . S
H1942 C1934 0.930 . S
H1943 C1935 0.929 . S
H1944 C1952 0.929 . S
H1945 C1954 0.930 . S
H1946 C1956 0.930 . S
H1947 C1959 0.929 . S
H1948 C1962 0.930 . S
H1949 C1964 0.960 . S
H1950 C1964 0.960 . S
H1951 C1964 0.960 . S
C1952 H1944 0.929 . S
C1952 C1953 1.377 . S
C1952 C1954 1.384 . S
C1953 C1952 1.377 . S
C1953 C1959 1.390 . S
C1954 H1945 0.930 . S
C1954 C1952 1.384 . S
C1954 C1955 1.372 . S
C1955 C1954 1.372 . S
C1955 C1956 1.400 . S
C1955 C1960 1.490 . S
C1956 H1946 0.930 . S
C1956 C1955 1.400 . S
C1956 C1959 1.386 . S
H1957 C1973 0.930 . S
H1958 C1974 0.931 . S
C1959 H1947 0.929 . S
C1959 C1953 1.390 . S
C1959 C1956 1.386 . S
C1960 C1955 1.490 . S
C1960 C1962 1.395 . S
C1960 C1963 1.403 . S
H1961 C1967 0.930 . S
C1962 H1948 0.930 . S
C1962 C1960 1.395 . S
C1962 C1965 1.403 . S
C1963 C1960 1.403 . S
C1963 C1964 1.524 . S
C1963 C1967 1.400 . S
C1964 H1949 0.960 . S
C1964 H1950 0.960 . S
C1964 H1951 0.960 . S
C1964 C1963 1.524 . S
C1965 C1962 1.403 . S
C1965 C1966 1.392 . S
C1965 C1969 1.495 . S
C1966 C1965 1.392 . S
C1966 C1967 1.385 . S
C1966 C1968 1.478 . S
C1967 H1961 0.930 . S
C1967 C1963 1.400 . S
C1967 C1966 1.385 . S
C1968 C1966 1.478 . S
C1968 C1970 1.381 . S
C1968 C1974 1.383 . S
C1969 C1965 1.495 . S
C1969 H1975 0.959 . S
C1969 H1976 0.961 . S
C1969 H1977 0.960 . S
C1970 C1968 1.381 . S
C1970 C1971 1.394 . S
C1970 H1978 0.930 . S
C1971 C1970 1.394 . S
C1971 C1972 1.383 . S
C1971 H1979 0.929 . S
C1972 C1971 1.383 . S
C1972 C1973 1.377 . S
C1973 H1957 0.930 . S
C1973 C1972 1.377 . S
C1973 C1974 1.379 . S
C1974 H1958 0.931 . S
C1974 C1968 1.383 . S
C1974 C1973 1.379 . S
H1975 C1969 0.959 . S
H1976 C1969 0.961 . S
H1977 C1969 0.960 . S
H1978 C1970 0.930 . S
H1979 C1971 0.929 . S
H1980 C1988 0.929 . S
H1981 C1990 0.930 . S
H1982 C1992 0.930 . S
H1983 C1995 0.929 . S
H1984 C1998 0.930 . S
H1985 C2000 0.960 . S
H1986 C2000 0.960 1_565 S
H1987 C2000 0.960 1_565 S
C1988 H1980 0.929 . S
C1988 C1989 1.377 . S
C1988 C1990 1.384 . S
C1989 C1988 1.377 . S
C1989 C1995 1.390 . S
C1990 H1981 0.930 . S
C1990 C1988 1.384 . S
C1990 C1991 1.372 . S
C1991 C1990 1.372 . S
C1991 C1992 1.400 . S
C1991 C1996 1.490 1_565 S
C1992 H1982 0.930 . S
C1992 C1991 1.400 . S
C1992 C1995 1.386 . S
H1993 C2009 0.930 . S
H1994 C2010 0.931 . S
C1995 H1983 0.929 . S
C1995 C1989 1.390 . S
C1995 C1992 1.386 . S
C1996 C1991 1.490 1_545 S
C1996 C1998 1.395 . S
C1996 C1999 1.403 . S
H1997 C2003 0.930 . S
C1998 H1984 0.930 . S
C1998 C1996 1.395 . S
C1998 C2001 1.403 . S
C1999 C1996 1.403 . S
C1999 C2000 1.524 . S
C1999 C2003 1.400 . S
C2000 H1985 0.960 . S
C2000 H1986 0.960 1_545 S
C2000 H1987 0.960 1_545 S
C2000 C1999 1.524 . S
C2001 C1998 1.403 . S
C2001 C2002 1.392 . S
C2001 C2005 1.495 . S
C2002 C2001 1.392 . S
C2002 C2003 1.385 . S
C2002 C2004 1.478 . S
C2003 H1997 0.930 . S
C2003 C1999 1.400 . S
C2003 C2002 1.385 . S
C2004 C2002 1.478 . S
C2004 C2006 1.381 . S
C2004 C2010 1.383 . S
C2005 C2001 1.495 . S
C2005 H2011 0.959 . S
C2005 H2012 0.961 . S
C2005 H2013 0.960 . S
C2006 C2004 1.381 . S
C2006 C2007 1.394 . S
C2006 H2014 0.930 . S
C2007 C2006 1.394 . S
C2007 C2008 1.383 . S
C2007 H2015 0.929 . S
C2008 C2007 1.383 . S
C2008 C2009 1.377 . S
C2009 H1993 0.930 . S
C2009 C2008 1.377 . S
C2009 C2010 1.379 . S
C2010 H1994 0.931 . S
C2010 C2004 1.383 . S
C2010 C2009 1.379 . S
H2011 C2005 0.959 . S
H2012 C2005 0.961 . S
H2013 C2005 0.960 . S
H2014 C2006 0.930 . S
H2015 C2007 0.929 . S
H2016 C2024 0.929 . S
H2017 C2026 0.930 1_655 S
H2018 C2028 0.930 . S
H2019 C2031 0.929 . S
H2020 C2034 0.930 . S
H2021 C2036 0.960 . S
H2022 C2036 0.960 1_455 S
H2023 C2036 0.939 1_455 S
C2024 H2016 0.929 . S
C2024 C2025 1.377 . S
C2024 C2026 1.384 . S
C2025 C2024 1.377 . S
C2025 C2031 1.390 . S
C2026 H2017 0.930 1_455 S
C2026 C2024 1.384 . S
C2026 C2027 1.372 1_455 S
C2027 C2026 1.372 1_655 S
C2027 C2028 1.400 1_655 S
C2027 C2032 1.490 . S
C2028 H2018 0.930 . S
C2028 C2027 1.400 1_455 S
C2028 C2031 1.386 . S
H2029 C2045 0.930 . S
H2030 C2046 0.931 . S
C2031 H2019 0.929 . S
C2031 C2025 1.390 . S
C2031 C2028 1.386 . S
C2032 C2027 1.490 . S
C2032 C2034 1.395 . S
C2032 C2035 1.403 . S
H2033 C2039 0.930 . S
C2034 H2020 0.930 . S
C2034 C2032 1.395 . S
C2034 C2037 1.403 . S
C2035 C2032 1.403 . S
C2035 C2036 1.524 . S
C2035 C2039 1.400 . S
C2036 H2021 0.960 . S
C2036 H2022 0.960 1_655 S
C2036 H2023 0.939 1_655 S
C2036 C2035 1.524 . S
C2037 C2034 1.403 . S
C2037 C2038 1.392 . S
C2037 C2041 1.495 . S
C2038 C2037 1.392 . S
C2038 C2039 1.385 . S
C2038 C2040 1.478 . S
C2039 H2033 0.930 . S
C2039 C2035 1.400 . S
C2039 C2038 1.385 . S
C2040 C2038 1.478 . S
C2040 C2042 1.381 . S
C2040 C2046 1.383 . S
C2041 C2037 1.495 . S
C2041 H2047 0.959 . S
C2041 H2048 0.961 . S
C2041 H2049 0.960 . S
C2042 C2040 1.381 . S
C2042 C2043 1.394 . S
C2042 H2050 0.930 . S
C2043 C2042 1.394 . S
C2043 C2044 1.383 . S
C2043 H2051 0.929 . S
C2044 C2043 1.383 . S
C2044 C2045 1.377 . S
C2045 H2029 0.930 . S
C2045 C2044 1.377 . S
C2045 C2046 1.379 . S
C2046 H2030 0.931 . S
C2046 C2040 1.383 . S
C2046 C2045 1.379 . S
H2047 C2041 0.959 . S
H2048 C2041 0.961 . S
H2049 C2041 0.960 . S
H2050 C2042 0.930 . S
H2051 C2043 0.929 . S
H2052 C2060 0.929 . S
H2053 C2062 0.930 . S
H2054 C2064 0.930 . S
H2055 C2067 0.929 . S
H2056 C2070 0.930 . S
H2057 C2072 0.960 . S
H2058 C2072 0.960 . S
H2059 C2072 0.960 . S
C2060 H2052 0.929 . S
C2060 C2061 1.377 . S
C2060 C2062 1.384 . S
C2061 C2060 1.377 . S
C2061 C2067 1.390 . S
C2062 H2053 0.930 . S
C2062 C2060 1.384 . S
C2062 C2063 1.372 . S
C2063 C2062 1.372 . S
C2063 C2064 1.400 . S
C2063 C2068 1.490 . S
C2064 H2054 0.930 . S
C2064 C2063 1.400 . S
C2064 C2067 1.386 . S
H2065 C2081 0.930 . S
H2066 C2082 0.931 . S
C2067 H2055 0.929 . S
C2067 C2061 1.390 . S
C2067 C2064 1.386 . S
C2068 C2063 1.490 . S
C2068 C2070 1.395 . S
C2068 C2071 1.403 . S
H2069 C2075 0.930 . S
C2070 H2056 0.930 . S
C2070 C2068 1.395 . S
C2070 C2073 1.403 . S
C2071 C2068 1.403 . S
C2071 C2072 1.524 . S
C2071 C2075 1.400 . S
C2072 H2057 0.960 . S
C2072 H2058 0.960 . S
C2072 H2059 0.960 . S
C2072 C2071 1.524 . S
C2073 C2070 1.403 . S
C2073 C2074 1.392 . S
C2073 C2077 1.495 . S
C2074 C2073 1.392 . S
C2074 C2075 1.385 . S
C2074 C2076 1.478 . S
C2075 H2069 0.930 . S
C2075 C2071 1.400 . S
C2075 C2074 1.385 . S
C2076 C2074 1.478 . S
C2076 C2078 1.381 . S
C2076 C2082 1.383 . S
C2077 C2073 1.495 . S
C2077 H2083 0.959 . S
C2077 H2084 0.961 . S
C2077 H2085 0.960 . S
C2078 C2076 1.381 . S
C2078 C2079 1.394 . S
C2078 H2086 0.930 . S
C2079 C2078 1.394 . S
C2079 C2080 1.383 . S
C2079 H2087 0.929 . S
C2080 C2079 1.383 . S
C2080 C2081 1.377 . S
C2081 H2065 0.930 . S
C2081 C2080 1.377 . S
C2081 C2082 1.379 . S
C2082 H2066 0.931 . S
C2082 C2076 1.383 . S
C2082 C2081 1.379 . S
H2083 C2077 0.959 . S
H2084 C2077 0.961 . S
H2085 C2077 0.960 . S
H2086 C2078 0.930 . S
H2087 C2079 0.929 . S
H2088 C2096 0.929 . S
H2089 C2098 0.930 . S
H2090 C2100 0.930 . S
H2091 C2103 0.929 . S
H2092 C2106 0.930 . S
H2093 C2108 0.960 . S
H2094 C2108 0.960 . S
H2095 C2108 0.960 . S
C2096 H2088 0.929 . S
C2096 C2097 1.377 . S
C2096 C2098 1.384 . S
C2097 C2096 1.377 . S
C2097 C2103 1.390 . S
C2098 H2089 0.930 . S
C2098 C2096 1.384 . S
C2098 C2099 1.372 . S
C2099 C2098 1.372 . S
C2099 C2100 1.400 . S
C2099 C2104 1.490 1_455 S
C2100 H2090 0.930 . S
C2100 C2099 1.400 . S
C2100 C2103 1.386 . S
H2101 C2117 0.930 . S
H2102 C2118 0.931 . S
C2103 H2091 0.929 . S
C2103 C2097 1.390 . S
C2103 C2100 1.386 . S
C2104 C2099 1.490 1_655 S
C2104 C2106 1.395 . S
C2104 C2107 1.403 . S
H2105 C2111 0.930 . S
C2106 H2092 0.930 . S
C2106 C2104 1.395 . S
C2106 C2109 1.403 . S
C2107 C2104 1.403 . S
C2107 C2108 1.524 . S
C2107 C2111 1.400 . S
C2108 H2093 0.960 . S
C2108 H2094 0.960 . S
C2108 H2095 0.960 . S
C2108 C2107 1.524 . S
C2109 C2106 1.403 . S
C2109 C2110 1.392 . S
C2109 C2113 1.495 . S
C2110 C2109 1.392 . S
C2110 C2111 1.385 . S
C2110 C2112 1.478 . S
C2111 H2105 0.930 . S
C2111 C2107 1.400 . S
C2111 C2110 1.385 . S
C2112 C2110 1.478 . S
C2112 C2114 1.381 . S
C2112 C2118 1.383 . S
C2113 C2109 1.495 . S
C2113 H2119 0.959 . S
C2113 H2120 0.961 . S
C2113 H2121 0.960 . S
C2114 C2112 1.381 . S
C2114 C2115 1.394 . S
C2114 H2122 0.930 . S
C2115 C2114 1.394 . S
C2115 C2116 1.383 . S
C2115 H2123 0.929 . S
C2116 C2115 1.383 . S
C2116 C2117 1.377 . S
C2117 H2101 0.930 . S
C2117 C2116 1.377 . S
C2117 C2118 1.379 . S
C2118 H2102 0.931 . S
C2118 C2112 1.383 . S
C2118 C2117 1.379 . S
H2119 C2113 0.959 . S
H2120 C2113 0.961 . S
H2121 C2113 0.960 . S
H2122 C2114 0.930 . S
H2123 C2115 0.929 . S
H2124 C2132 0.929 . S
H2125 C2134 0.930 . S
H2126 C2136 0.930 . S
H2127 C2139 0.929 . S
H2128 C2142 0.930 . S
H2129 C2144 0.960 . S
H2130 C2144 0.960 . S
H2131 C2144 0.960 . S
C2132 H2124 0.929 . S
C2132 C2133 1.377 . S
C2132 C2134 1.384 . S
C2133 C2132 1.377 . S
C2133 C2139 1.390 . S
C2134 H2125 0.930 . S
C2134 C2132 1.384 . S
C2134 C2135 1.372 . S
C2135 C2134 1.372 . S
C2135 C2136 1.400 . S
C2135 C2140 1.490 . S
C2136 H2126 0.930 . S
C2136 C2135 1.400 . S
C2136 C2139 1.386 . S
H2137 C2153 0.930 . S
H2138 C2154 0.931 . S
C2139 H2127 0.929 . S
C2139 C2133 1.390 . S
C2139 C2136 1.386 . S
C2140 C2135 1.490 . S
C2140 C2142 1.395 . S
C2140 C2143 1.403 . S
H2141 C2147 0.930 . S
C2142 H2128 0.930 . S
C2142 C2140 1.395 . S
C2142 C2145 1.403 . S
C2143 C2140 1.403 . S
C2143 C2144 1.524 . S
C2143 C2147 1.400 . S
C2144 H2129 0.960 . S
C2144 H2130 0.960 . S
C2144 H2131 0.960 . S
C2144 C2143 1.524 . S
C2145 C2142 1.403 . S
C2145 C2146 1.392 . S
C2145 C2149 1.495 . S
C2146 C2145 1.392 . S
C2146 C2147 1.385 . S
C2146 C2148 1.478 . S
C2147 H2141 0.930 . S
C2147 C2143 1.400 . S
C2147 C2146 1.385 . S
C2148 C2146 1.478 . S
C2148 C2150 1.381 . S
C2148 C2154 1.383 . S
C2149 C2145 1.495 . S
C2149 H2155 0.959 . S
C2149 H2156 0.961 . S
C2149 H2157 0.960 . S
C2150 C2148 1.381 . S
C2150 C2151 1.394 . S
C2150 H2158 0.930 . S
C2151 C2150 1.394 . S
C2151 C2152 1.383 . S
C2151 H2159 0.929 . S
C2152 C2151 1.383 . S
C2152 C2153 1.377 . S
C2153 H2137 0.930 . S
C2153 C2152 1.377 . S
C2153 C2154 1.379 . S
C2154 H2138 0.931 . S
C2154 C2148 1.383 . S
C2154 C2153 1.379 . S
H2155 C2149 0.959 . S
H2156 C2149 0.961 . S
H2157 C2149 0.960 . S
H2158 C2150 0.930 . S
H2159 C2151 0.929 . S
H2160 C2168 0.929 . S
H2161 C2170 0.930 . S
H2162 C2172 0.930 . S
H2163 C2175 0.929 . S
H2164 C2178 0.922 1_565 S
H2165 C2180 0.960 . S
H2166 C2180 0.952 1_565 S
H2167 C2180 0.960 1_565 S
C2168 H2160 0.929 . S
C2168 C2169 1.377 . S
C2168 C2170 1.384 . S
C2169 C2168 1.377 . S
C2169 C2175 1.390 . S
C2170 H2161 0.930 . S
C2170 C2168 1.384 . S
C2170 C2171 1.372 . S
C2171 C2170 1.372 . S
C2171 C2172 1.400 . S
C2171 C2176 1.487 . S
C2172 H2162 0.930 . S
C2172 C2171 1.400 . S
C2172 C2175 1.386 . S
H2173 C2189 0.930 . S
H2174 C2190 0.931 . S
C2175 H2163 0.929 . S
C2175 C2169 1.390 . S
C2175 C2172 1.386 . S
C2176 C2171 1.487 . S
C2176 C2178 1.397 1_565 S
C2176 C2179 1.403 1_565 S
H2177 C2183 0.930 . S
C2178 H2164 0.922 1_545 S
C2178 C2176 1.397 1_545 S
C2178 C2181 1.403 . S
C2179 C2176 1.403 1_545 S
C2179 C2180 1.524 . S
C2179 C2183 1.400 . S
C2180 H2165 0.960 . S
C2180 H2166 0.952 1_545 S
C2180 H2167 0.960 1_545 S
C2180 C2179 1.524 . S
C2181 C2178 1.403 . S
C2181 C2182 1.392 . S
C2181 C2185 1.495 . S
C2182 C2181 1.392 . S
C2182 C2183 1.385 . S
C2182 C2184 1.478 . S
C2183 H2177 0.930 . S
C2183 C2179 1.400 . S
C2183 C2182 1.385 . S
C2184 C2182 1.478 . S
C2184 C2186 1.381 . S
C2184 C2190 1.383 . S
C2185 C2181 1.495 . S
C2185 H2191 0.959 . S
C2185 H2192 0.961 . S
C2185 H2193 0.960 . S
C2186 C2184 1.381 . S
C2186 C2187 1.394 . S
C2186 H2194 0.930 . S
C2187 C2186 1.394 . S
C2187 C2188 1.383 . S
C2187 H2195 0.929 . S
C2188 C2187 1.383 . S
C2188 C2189 1.377 . S
C2189 H2173 0.930 . S
C2189 C2188 1.377 . S
C2189 C2190 1.379 . S
C2190 H2174 0.931 . S
C2190 C2184 1.383 . S
C2190 C2189 1.379 . S
H2191 C2185 0.959 . S
H2192 C2185 0.961 . S
H2193 C2185 0.960 . S
H2194 C2186 0.930 . S
H2195 C2187 0.929 . S
H2196 C2204 0.929 . S
H2197 C2206 0.930 . S
H2198 C2208 0.930 . S
H2199 C2211 0.929 . S
H2200 C2214 0.930 . S
H2201 C2216 0.960 . S
H2202 C2216 0.960 . S
H2203 C2216 0.960 . S
C2204 H2196 0.929 . S
C2204 C2205 1.377 . S
C2204 C2206 1.384 . S
C2205 C2204 1.377 . S
C2205 C2211 1.390 . S
C2206 H2197 0.930 . S
C2206 C2204 1.384 . S
C2206 C2207 1.372 . S
C2207 C2206 1.372 . S
C2207 C2208 1.400 . S
C2207 C2212 1.490 . S
C2208 H2198 0.930 . S
C2208 C2207 1.400 . S
C2208 C2211 1.386 . S
H2209 C2225 0.930 . S
H2210 C2226 0.931 . S
C2211 H2199 0.929 . S
C2211 C2205 1.390 . S
C2211 C2208 1.386 . S
C2212 C2207 1.490 . S
C2212 C2214 1.395 . S
C2212 C2215 1.403 . S
H2213 C2219 0.930 . S
C2214 H2200 0.930 . S
C2214 C2212 1.395 . S
C2214 C2217 1.403 . S
C2215 C2212 1.403 . S
C2215 C2216 1.524 . S
C2215 C2219 1.400 . S
C2216 H2201 0.960 . S
C2216 H2202 0.960 . S
C2216 H2203 0.960 . S
C2216 C2215 1.524 . S
C2217 C2214 1.403 . S
C2217 C2218 1.392 . S
C2217 C2221 1.495 . S
C2218 C2217 1.392 . S
C2218 C2219 1.385 . S
C2218 C2220 1.478 . S
C2219 H2213 0.930 . S
C2219 C2215 1.400 . S
C2219 C2218 1.385 . S
C2220 C2218 1.478 . S
C2220 C2222 1.381 . S
C2220 C2226 1.383 . S
C2221 C2217 1.495 . S
C2221 H2227 0.959 . S
C2221 H2228 0.961 . S
C2221 H2229 0.960 . S
C2222 C2220 1.381 . S
C2222 C2223 1.394 . S
C2222 H2230 0.930 . S
C2223 C2222 1.394 . S
C2223 C2224 1.383 . S
C2223 H2231 0.929 . S
C2224 C2223 1.383 . S
C2224 C2225 1.377 . S
C2225 H2209 0.930 . S
C2225 C2224 1.377 . S
C2225 C2226 1.379 . S
C2226 H2210 0.931 . S
C2226 C2220 1.383 . S
C2226 C2225 1.379 . S
H2227 C2221 0.959 . S
H2228 C2221 0.961 . S
H2229 C2221 0.960 . S
H2230 C2222 0.930 . S
H2231 C2223 0.929 . S
H2232 C2240 0.929 . S
H2233 C2242 0.930 . S
H2234 C2244 0.930 . S
H2235 C2247 0.929 . S
H2236 C2250 0.930 . S
H2237 C2252 0.960 . S
H2238 C2252 0.960 . S
H2239 C2252 0.960 . S
C2240 H2232 0.929 . S
C2240 C2241 1.377 . S
C2240 C2242 1.384 . S
C2241 C2240 1.377 . S
C2241 C2247 1.390 . S
C2242 H2233 0.930 . S
C2242 C2240 1.384 . S
C2242 C2243 1.372 . S
C2243 C2242 1.372 . S
C2243 C2244 1.400 . S
C2243 C2248 1.490 . S
C2244 H2234 0.930 . S
C2244 C2243 1.400 . S
C2244 C2247 1.386 . S
H2245 C2261 0.930 . S
H2246 C2262 0.931 . S
C2247 H2235 0.929 . S
C2247 C2241 1.390 . S
C2247 C2244 1.386 . S
C2248 C2243 1.490 . S
C2248 C2250 1.395 . S
C2248 C2251 1.403 . S
H2249 C2255 0.930 . S
C2250 H2236 0.930 . S
C2250 C2248 1.395 . S
C2250 C2253 1.403 . S
C2251 C2248 1.403 . S
C2251 C2252 1.524 . S
C2251 C2255 1.400 . S
C2252 H2237 0.960 . S
C2252 H2238 0.960 . S
C2252 H2239 0.960 . S
C2252 C2251 1.524 . S
C2253 C2250 1.403 . S
C2253 C2254 1.392 . S
C2253 C2257 1.495 . S
C2254 C2253 1.392 . S
C2254 C2255 1.385 . S
C2254 C2256 1.478 . S
C2255 H2249 0.930 . S
C2255 C2251 1.400 . S
C2255 C2254 1.385 . S
C2256 C2254 1.478 . S
C2256 C2258 1.381 . S
C2256 C2262 1.383 . S
C2257 C2253 1.495 . S
C2257 H2263 0.959 . S
C2257 H2264 0.961 . S
C2257 H2265 0.960 . S
C2258 C2256 1.381 . S
C2258 C2259 1.394 . S
C2258 H2266 0.930 . S
C2259 C2258 1.394 . S
C2259 C2260 1.383 . S
C2259 H2267 0.929 . S
C2260 C2259 1.383 . S
C2260 C2261 1.377 . S
C2261 H2245 0.930 . S
C2261 C2260 1.377 . S
C2261 C2262 1.379 . S
C2262 H2246 0.931 . S
C2262 C2256 1.383 . S
C2262 C2261 1.379 . S
H2263 C2257 0.959 . S
H2264 C2257 0.961 . S
H2265 C2257 0.960 . S
H2266 C2258 0.930 . S
H2267 C2259 0.929 . S
H2268 C2276 0.929 . S
H2269 C2278 0.930 . S
H2270 C2280 0.930 . S
H2271 C2283 0.929 . S
H2272 C2286 0.930 . S
H2273 C2288 0.960 . S
H2274 C2288 0.960 . S
H2275 C2288 0.960 . S
C2276 H2268 0.929 . S
C2276 C2277 1.377 . S
C2276 C2278 1.384 . S
C2277 C2276 1.377 . S
C2277 C2283 1.390 . S
C2278 H2269 0.930 . S
C2278 C2276 1.384 . S
C2278 C2279 1.372 . S
C2279 C2278 1.372 . S
C2279 C2280 1.400 . S
C2279 C2284 1.490 . S
C2280 H2270 0.930 . S
C2280 C2279 1.400 . S
C2280 C2283 1.386 . S
H2281 C2297 0.930 . S
H2282 C2298 0.931 . S
C2283 H2271 0.929 . S
C2283 C2277 1.390 . S
C2283 C2280 1.386 . S
C2284 C2279 1.490 . S
C2284 C2286 1.395 . S
C2284 C2287 1.403 . S
H2285 C2291 0.930 . S
C2286 H2272 0.930 . S
C2286 C2284 1.395 . S
C2286 C2289 1.403 . S
C2287 C2284 1.403 . S
C2287 C2288 1.524 . S
C2287 C2291 1.400 . S
C2288 H2273 0.960 . S
C2288 H2274 0.960 . S
C2288 H2275 0.960 . S
C2288 C2287 1.524 . S
C2289 C2286 1.403 . S
C2289 C2290 1.392 . S
C2289 C2293 1.495 . S
C2290 C2289 1.392 . S
C2290 C2291 1.385 . S
C2290 C2292 1.478 . S
C2291 H2285 0.930 . S
C2291 C2287 1.400 . S
C2291 C2290 1.385 . S
C2292 C2290 1.478 . S
C2292 C2294 1.381 . S
C2292 C2298 1.383 . S
C2293 C2289 1.495 . S
C2293 H2299 0.959 . S
C2293 H2300 0.961 . S
C2293 H2301 0.960 . S
C2294 C2292 1.381 . S
C2294 C2295 1.394 . S
C2294 H2302 0.930 . S
C2295 C2294 1.394 . S
C2295 C2296 1.383 . S
C2295 H2303 0.929 . S
C2296 C2295 1.383 . S
C2296 C2297 1.377 . S
C2297 H2281 0.930 . S
C2297 C2296 1.377 . S
C2297 C2298 1.379 . S
C2298 H2282 0.931 . S
C2298 C2292 1.383 . S
C2298 C2297 1.379 . S
H2299 C2293 0.959 . S
H2300 C2293 0.961 . S
H2301 C2293 0.960 . S
H2302 C2294 0.930 . S
H2303 C2295 0.929 . S
H2304 C2312 0.929 . S
H2305 C2314 0.930 . S
H2306 C2316 0.930 . S
H2307 C2319 0.929 . S
H2308 C2322 0.930 . S
H2309 C2324 0.960 . S
H2310 C2324 0.960 . S
H2311 C2324 0.960 . S
C2312 H2304 0.929 . S
C2312 C2313 1.377 . S
C2312 C2314 1.384 . S
C2313 C2312 1.377 . S
C2313 C2319 1.390 . S
C2314 H2305 0.930 . S
C2314 C2312 1.384 . S
C2314 C2315 1.372 . S
C2315 C2314 1.372 . S
C2315 C2316 1.400 . S
C2315 C2320 1.490 . S
C2316 H2306 0.930 . S
C2316 C2315 1.400 . S
C2316 C2319 1.386 . S
H2317 C2333 0.930 . S
H2318 C2334 0.931 . S
C2319 H2307 0.929 . S
C2319 C2313 1.390 . S
C2319 C2316 1.386 . S
C2320 C2315 1.490 . S
C2320 C2322 1.395 . S
C2320 C2323 1.403 . S
H2321 C2327 0.930 . S
C2322 H2308 0.930 . S
C2322 C2320 1.395 . S
C2322 C2325 1.403 . S
C2323 C2320 1.403 . S
C2323 C2324 1.524 . S
C2323 C2327 1.400 . S
C2324 H2309 0.960 . S
C2324 H2310 0.960 . S
C2324 H2311 0.960 . S
C2324 C2323 1.524 . S
C2325 C2322 1.403 . S
C2325 C2326 1.392 . S
C2325 C2329 1.495 1_565 S
C2326 C2325 1.392 . S
C2326 C2327 1.385 . S
C2326 C2328 1.478 . S
C2327 H2321 0.930 . S
C2327 C2323 1.400 . S
C2327 C2326 1.385 . S
C2328 C2326 1.478 . S
C2328 C2330 1.376 . S
C2328 C2334 1.383 . S
C2329 C2325 1.495 1_545 S
C2329 H2335 0.959 . S
C2329 H2336 0.961 . S
C2329 H2337 0.960 . S
C2330 C2328 1.376 . S
C2330 C2331 1.395 1_565 S
C2330 H2338 0.934 1_565 S
C2331 C2330 1.395 1_545 S
C2331 C2332 1.383 1_545 S
C2331 H2339 0.929 . S
C2332 C2331 1.383 1_565 S
C2332 C2333 1.377 . S
C2333 H2317 0.930 . S
C2333 C2332 1.377 . S
C2333 C2334 1.379 . S
C2334 H2318 0.931 . S
C2334 C2328 1.383 . S
C2334 C2333 1.379 . S
H2335 C2329 0.959 . S
H2336 C2329 0.961 . S
H2337 C2329 0.960 . S
H2338 C2330 0.934 1_545 S
H2339 C2331 0.929 . S
H2340 C2348 0.929 . S
H2341 C2350 0.930 . S
H2342 C2352 0.930 . S
H2343 C2355 0.929 . S
H2344 C2358 0.930 . S
H2345 C2360 0.960 . S
H2346 C2360 0.960 . S
H2347 C2360 0.960 . S
C2348 H2340 0.929 . S
C2348 C2349 1.377 . S
C2348 C2350 1.384 . S
C2349 C2348 1.377 . S
C2349 C2355 1.390 . S
C2350 H2341 0.930 . S
C2350 C2348 1.384 . S
C2350 C2351 1.372 . S
C2351 C2350 1.372 . S
C2351 C2352 1.400 . S
C2351 C2356 1.490 . S
C2352 H2342 0.930 . S
C2352 C2351 1.400 . S
C2352 C2355 1.386 . S
H2353 C2369 0.930 . S
H2354 C2370 0.931 . S
C2355 H2343 0.929 . S
C2355 C2349 1.390 . S
C2355 C2352 1.386 . S
C2356 C2351 1.490 . S
C2356 C2358 1.395 . S
C2356 C2359 1.403 1_455 S
H2357 C2363 0.930 . S
C2358 H2344 0.930 . S
C2358 C2356 1.395 . S
C2358 C2361 1.403 . S
C2359 C2356 1.403 1_655 S
C2359 C2360 1.524 . S
C2359 C2363 1.400 . S
C2360 H2345 0.960 . S
C2360 H2346 0.960 . S
C2360 H2347 0.960 . S
C2360 C2359 1.524 . S
C2361 C2358 1.403 . S
C2361 C2362 1.392 . S
C2361 C2365 1.495 . S
C2362 C2361 1.392 . S
C2362 C2363 1.385 1_455 S
C2362 C2364 1.478 . S
C2363 H2357 0.930 . S
C2363 C2359 1.400 . S
C2363 C2362 1.385 1_655 S
C2364 C2362 1.478 . S
C2364 C2366 1.381 . S
C2364 C2370 1.383 . S
C2365 C2361 1.495 . S
C2365 H2371 0.959 . S
C2365 H2372 0.961 . S
C2365 H2373 0.960 . S
C2366 C2364 1.381 . S
C2366 C2367 1.394 . S
C2366 H2374 0.930 . S
C2367 C2366 1.394 . S
C2367 C2368 1.383 . S
C2367 H2375 0.929 . S
C2368 C2367 1.383 . S
C2368 C2369 1.377 . S
C2369 H2353 0.930 . S
C2369 C2368 1.377 . S
C2369 C2370 1.379 . S
C2370 H2354 0.931 . S
C2370 C2364 1.383 . S
C2370 C2369 1.379 . S
H2371 C2365 0.959 . S
H2372 C2365 0.961 . S
H2373 C2365 0.960 . S
H2374 C2366 0.930 . S
H2375 C2367 0.929 . S
H2376 C2384 0.929 . S
H2377 C2386 0.930 . S
H2378 C2388 0.930 . S
H2379 C2391 0.929 . S
H2380 C2394 0.930 . S
H2381 C2396 0.960 . S
H2382 C2396 0.960 . S
H2383 C2396 0.960 . S
C2384 H2376 0.929 . S
C2384 C2385 1.377 . S
C2384 C2386 1.384 . S
C2385 C2384 1.377 . S
C2385 C2391 1.390 . S
C2386 H2377 0.930 . S
C2386 C2384 1.384 . S
C2386 C2387 1.372 . S
C2387 C2386 1.372 . S
C2387 C2388 1.400 . S
C2387 C2392 1.490 . S
C2388 H2378 0.930 . S
C2388 C2387 1.400 . S
C2388 C2391 1.386 . S
H2389 C2405 0.930 . S
H2390 C2406 0.931 . S
C2391 H2379 0.929 . S
C2391 C2385 1.390 . S
C2391 C2388 1.386 . S
C2392 C2387 1.490 . S
C2392 C2394 1.395 . S
C2392 C2395 1.403 . S
H2393 C2399 0.930 . S
C2394 H2380 0.930 . S
C2394 C2392 1.395 . S
C2394 C2397 1.403 . S
C2395 C2392 1.403 . S
C2395 C2396 1.524 . S
C2395 C2399 1.400 . S
C2396 H2381 0.960 . S
C2396 H2382 0.960 . S
C2396 H2383 0.960 . S
C2396 C2395 1.524 . S
C2397 C2394 1.403 . S
C2397 C2398 1.392 . S
C2397 C2401 1.495 . S
C2398 C2397 1.392 . S
C2398 C2399 1.385 . S
C2398 C2400 1.478 . S
C2399 H2393 0.930 . S
C2399 C2395 1.400 . S
C2399 C2398 1.385 . S
C2400 C2398 1.478 . S
C2400 C2402 1.381 . S
C2400 C2406 1.383 . S
C2401 C2397 1.495 . S
C2401 H2407 0.959 . S
C2401 H2408 0.961 . S
C2401 H2409 0.960 . S
C2402 C2400 1.381 . S
C2402 C2403 1.394 . S
C2402 H2410 0.930 . S
C2403 C2402 1.394 . S
C2403 C2404 1.383 . S
C2403 H2411 0.929 . S
C2404 C2403 1.383 . S
C2404 C2405 1.377 . S
C2405 H2389 0.930 . S
C2405 C2404 1.377 . S
C2405 C2406 1.379 . S
C2406 H2390 0.931 . S
C2406 C2400 1.383 . S
C2406 C2405 1.379 . S
H2407 C2401 0.959 . S
H2408 C2401 0.961 . S
H2409 C2401 0.960 . S
H2410 C2402 0.930 . S
H2411 C2403 0.929 . S
H2412 C2420 0.929 . S
H2413 C2422 0.930 . S
H2414 C2424 0.930 . S
H2415 C2427 0.929 . S
H2416 C2430 0.930 . S
H2417 C2432 0.960 . S
H2418 C2432 0.960 . S
H2419 C2432 0.960 . S
C2420 H2412 0.929 . S
C2420 C2421 1.377 . S
C2420 C2422 1.384 . S
C2421 C2420 1.377 . S
C2421 C2427 1.390 . S
C2422 H2413 0.930 . S
C2422 C2420 1.384 . S
C2422 C2423 1.372 . S
C2423 C2422 1.372 . S
C2423 C2424 1.400 . S
C2423 C2428 1.490 . S
C2424 H2414 0.930 . S
C2424 C2423 1.400 . S
C2424 C2427 1.386 . S
H2425 C2441 0.930 . S
H2426 C2442 0.931 . S
C2427 H2415 0.929 . S
C2427 C2421 1.390 . S
C2427 C2424 1.386 . S
C2428 C2423 1.490 . S
C2428 C2430 1.395 1_655 S
C2428 C2431 1.403 . S
H2429 C2435 0.930 . S
C2430 H2416 0.930 . S
C2430 C2428 1.395 1_455 S
C2430 C2433 1.403 . S
C2431 C2428 1.403 . S
C2431 C2432 1.524 . S
C2431 C2435 1.400 . S
C2432 H2417 0.960 . S
C2432 H2418 0.960 . S
C2432 H2419 0.960 . S
C2432 C2431 1.524 . S
C2433 C2430 1.403 . S
C2433 C2434 1.392 1_455 S
C2433 C2437 1.495 . S
C2434 C2433 1.392 1_655 S
C2434 C2435 1.385 . S
C2434 C2436 1.478 . S
C2435 H2429 0.930 . S
C2435 C2431 1.400 . S
C2435 C2434 1.385 . S
C2436 C2434 1.478 . S
C2436 C2438 1.381 . S
C2436 C2442 1.383 . S
C2437 C2433 1.495 . S
C2437 H2443 0.959 . S
C2437 H2444 0.961 . S
C2437 H2445 0.960 . S
C2438 C2436 1.381 . S
C2438 C2439 1.394 . S
C2438 H2446 0.930 . S
C2439 C2438 1.394 . S
C2439 C2440 1.383 . S
C2439 H2447 0.929 . S
C2440 C2439 1.383 . S
C2440 C2441 1.377 . S
C2441 H2425 0.930 . S
C2441 C2440 1.377 . S
C2441 C2442 1.379 . S
C2442 H2426 0.931 . S
C2442 C2436 1.383 . S
C2442 C2441 1.379 . S
H2443 C2437 0.959 . S
H2444 C2437 0.961 . S
H2445 C2437 0.960 . S
H2446 C2438 0.930 . S
H2447 C2439 0.929 . S
H2448 C2456 0.929 . S
H2449 C2458 0.930 . S
H2450 C2460 0.930 . S
H2451 C2463 0.929 . S
H2452 C2466 0.930 . S
H2453 C2468 0.960 . S
H2454 C2468 0.960 . S
H2455 C2468 0.960 . S
C2456 H2448 0.929 . S
C2456 C2457 1.377 . S
C2456 C2458 1.384 . S
C2457 C2456 1.377 . S
C2457 C2463 1.390 . S
C2458 H2449 0.930 . S
C2458 C2456 1.384 . S
C2458 C2459 1.372 . S
C2459 C2458 1.372 . S
C2459 C2460 1.400 . S
C2459 C2464 1.490 . S
C2460 H2450 0.930 . S
C2460 C2459 1.400 . S
C2460 C2463 1.386 . S
H2461 C2477 0.930 . S
H2462 C2478 0.931 . S
C2463 H2451 0.929 . S
C2463 C2457 1.390 . S
C2463 C2460 1.386 . S
C2464 C2459 1.490 . S
C2464 C2466 1.395 . S
C2464 C2467 1.403 . S
H2465 C2471 0.930 . S
C2466 H2452 0.930 . S
C2466 C2464 1.395 . S
C2466 C2469 1.403 . S
C2467 C2464 1.403 . S
C2467 C2468 1.524 . S
C2467 C2471 1.400 . S
C2468 H2453 0.960 . S
C2468 H2454 0.960 . S
C2468 H2455 0.960 . S
C2468 C2467 1.524 . S
C2469 C2466 1.403 . S
C2469 C2470 1.392 . S
C2469 C2473 1.495 . S
C2470 C2469 1.392 . S
C2470 C2471 1.385 . S
C2470 C2472 1.478 . S
C2471 H2465 0.930 . S
C2471 C2467 1.400 . S
C2471 C2470 1.385 . S
C2472 C2470 1.478 . S
C2472 C2474 1.381 . S
C2472 C2478 1.383 . S
C2473 C2469 1.495 . S
C2473 H2479 0.959 . S
C2473 H2480 0.961 . S
C2473 H2481 0.960 . S
C2474 C2472 1.381 . S
C2474 C2475 1.394 . S
C2474 H2482 0.930 . S
C2475 C2474 1.394 . S
C2475 C2476 1.383 . S
C2475 H2483 0.929 . S
C2476 C2475 1.383 . S
C2476 C2477 1.377 . S
C2477 H2461 0.930 . S
C2477 C2476 1.377 . S
C2477 C2478 1.379 . S
C2478 H2462 0.931 . S
C2478 C2472 1.383 . S
C2478 C2477 1.379 . S
H2479 C2473 0.959 . S
H2480 C2473 0.961 . S
H2481 C2473 0.960 . S
H2482 C2474 0.930 . S
H2483 C2475 0.929 . S
H2484 C2492 0.929 . S
H2485 C2494 0.930 . S
H2486 C2496 0.930 . S
H2487 C2499 0.929 . S
H2488 C2502 0.930 . S
H2489 C2504 0.960 1_565 S
H2490 C2504 0.960 1_565 S
H2491 C2504 0.960 . S
C2492 H2484 0.929 . S
C2492 C2493 1.377 . S
C2492 C2494 1.384 . S
C2493 C2492 1.377 . S
C2493 C2499 1.390 . S
C2494 H2485 0.930 . S
C2494 C2492 1.384 . S
C2494 C2495 1.372 . S
C2495 C2494 1.372 . S
C2495 C2496 1.400 . S
C2495 C2500 1.490 . S
C2496 H2486 0.930 . S
C2496 C2495 1.400 . S
C2496 C2499 1.386 . S
H2497 C2513 0.930 . S
H2498 C2514 0.931 . S
C2499 H2487 0.929 . S
C2499 C2493 1.390 . S
C2499 C2496 1.386 . S
C2500 C2495 1.490 . S
C2500 C2502 1.395 . S
C2500 C2503 1.403 . S
H2501 C2507 0.930 . S
C2502 H2488 0.930 . S
C2502 C2500 1.395 . S
C2502 C2505 1.403 . S
C2503 C2500 1.403 . S
C2503 C2504 1.524 . S
C2503 C2507 1.400 . S
C2504 H2489 0.960 1_545 S
C2504 H2490 0.960 1_545 S
C2504 H2491 0.960 . S
C2504 C2503 1.524 . S
C2505 C2502 1.403 . S
C2505 C2506 1.392 . S
C2505 C2509 1.495 . S
C2506 C2505 1.392 . S
C2506 C2507 1.385 . S
C2506 C2508 1.478 . S
C2507 H2501 0.930 . S
C2507 C2503 1.400 . S
C2507 C2506 1.385 . S
C2508 C2506 1.478 . S
C2508 C2510 1.381 . S
C2508 C2514 1.383 . S
C2509 C2505 1.495 . S
C2509 H2515 0.959 . S
C2509 H2516 0.961 . S
C2509 H2517 0.960 . S
C2510 C2508 1.381 . S
C2510 C2511 1.394 . S
C2510 H2518 0.930 . S
C2511 C2510 1.394 . S
C2511 C2512 1.383 . S
C2511 H2519 0.929 . S
C2512 C2511 1.383 . S
C2512 C2513 1.377 . S
C2513 H2497 0.930 . S
C2513 C2512 1.377 . S
C2513 C2514 1.379 . S
C2514 H2498 0.931 . S
C2514 C2508 1.383 . S
C2514 C2513 1.379 . S
H2515 C2509 0.959 . S
H2516 C2509 0.961 . S
H2517 C2509 0.960 . S
H2518 C2510 0.930 . S
H2519 C2511 0.929 . S
H2520 C2528 0.929 . S
H2521 C2530 0.930 . S
H2522 C2532 0.930 . S
H2523 C2535 0.929 . S
H2524 C2538 0.930 . S
H2525 C2540 0.960 . S
H2526 C2540 0.960 . S
H2527 C2540 0.960 . S
C2528 H2520 0.929 . S
C2528 C2529 1.377 . S
C2528 C2530 1.384 . S
C2529 C2528 1.377 . S
C2529 C2535 1.390 . S
C2530 H2521 0.930 . S
C2530 C2528 1.384 . S
C2530 C2531 1.372 . S
C2531 C2530 1.372 . S
C2531 C2532 1.400 . S
C2531 C2536 1.490 . S
C2532 H2522 0.930 . S
C2532 C2531 1.400 . S
C2532 C2535 1.386 . S
H2533 C2549 0.930 . S
H2534 C2550 0.931 . S
C2535 H2523 0.929 . S
C2535 C2529 1.390 . S
C2535 C2532 1.386 . S
C2536 C2531 1.490 . S
C2536 C2538 1.395 . S
C2536 C2539 1.403 . S
H2537 C2543 0.930 . S
C2538 H2524 0.930 . S
C2538 C2536 1.395 . S
C2538 C2541 1.403 . S
C2539 C2536 1.403 . S
C2539 C2540 1.524 . S
C2539 C2543 1.400 . S
C2540 H2525 0.960 . S
C2540 H2526 0.960 . S
C2540 H2527 0.960 . S
C2540 C2539 1.524 . S
C2541 C2538 1.403 . S
C2541 C2542 1.392 . S
C2541 C2545 1.495 . S
C2542 C2541 1.392 . S
C2542 C2543 1.385 . S
C2542 C2544 1.478 . S
C2543 H2537 0.930 . S
C2543 C2539 1.400 . S
C2543 C2542 1.385 . S
C2544 C2542 1.478 . S
C2544 C2546 1.381 . S
C2544 C2550 1.383 . S
C2545 C2541 1.495 . S
C2545 H2551 0.959 . S
C2545 H2552 0.961 . S
C2545 H2553 0.960 . S
C2546 C2544 1.381 . S
C2546 C2547 1.394 . S
C2546 H2554 0.930 . S
C2547 C2546 1.394 . S
C2547 C2548 1.383 . S
C2547 H2555 0.929 . S
C2548 C2547 1.383 . S
C2548 C2549 1.377 . S
C2549 H2533 0.930 . S
C2549 C2548 1.377 . S
C2549 C2550 1.379 . S
C2550 H2534 0.931 . S
C2550 C2544 1.383 . S
C2550 C2549 1.379 . S
H2551 C2545 0.959 . S
H2552 C2545 0.961 . S
H2553 C2545 0.960 . S
H2554 C2546 0.930 . S
H2555 C2547 0.929 . S
H2556 C2564 0.929 . S
H2557 C2566 0.930 . S
H2558 C2568 0.930 . S
H2559 C2571 0.929 . S
H2560 C2574 0.930 . S
H2561 C2576 0.960 . S
H2562 C2576 0.960 . S
H2563 C2576 0.960 . S
C2564 H2556 0.929 . S
C2564 C2565 1.377 . S
C2564 C2566 1.384 . S
C2565 C2564 1.377 . S
C2565 C2571 1.390 . S
C2566 H2557 0.930 . S
C2566 C2564 1.384 . S
C2566 C2567 1.372 . S
C2567 C2566 1.372 . S
C2567 C2568 1.400 . S
C2567 C2572 1.490 . S
C2568 H2558 0.930 . S
C2568 C2567 1.400 . S
C2568 C2571 1.386 . S
H2569 C2585 0.930 . S
H2570 C2586 0.931 . S
C2571 H2559 0.929 . S
C2571 C2565 1.390 . S
C2571 C2568 1.386 . S
C2572 C2567 1.490 . S
C2572 C2574 1.395 . S
C2572 C2575 1.403 . S
H2573 C2579 0.930 . S
C2574 H2560 0.930 . S
C2574 C2572 1.395 . S
C2574 C2577 1.403 . S
C2575 C2572 1.403 . S
C2575 C2576 1.524 . S
C2575 C2579 1.400 . S
C2576 H2561 0.960 . S
C2576 H2562 0.960 . S
C2576 H2563 0.960 . S
C2576 C2575 1.524 . S
C2577 C2574 1.403 . S
C2577 C2578 1.392 . S
C2577 C2581 1.495 . S
C2578 C2577 1.392 . S
C2578 C2579 1.385 . S
C2578 C2580 1.478 . S
C2579 H2573 0.930 . S
C2579 C2575 1.400 . S
C2579 C2578 1.385 . S
C2580 C2578 1.478 . S
C2580 C2582 1.381 . S
C2580 C2586 1.383 . S
C2581 C2577 1.495 . S
C2581 H2587 0.959 . S
C2581 H2588 0.961 . S
C2581 H2589 0.960 . S
C2582 C2580 1.381 . S
C2582 C2583 1.394 . S
C2582 H2590 0.930 . S
C2583 C2582 1.394 . S
C2583 C2584 1.383 . S
C2583 H2591 0.929 . S
C2584 C2583 1.383 . S
C2584 C2585 1.377 . S
C2585 H2569 0.930 . S
C2585 C2584 1.377 . S
C2585 C2586 1.379 . S
C2586 H2570 0.931 . S
C2586 C2580 1.383 . S
C2586 C2585 1.379 . S
H2587 C2581 0.959 . S
H2588 C2581 0.961 . S
H2589 C2581 0.960 . S
H2590 C2582 0.930 . S
H2591 C2583 0.929 . S
H2592 C2600 0.929 . S
H2593 C2602 0.930 . S
H2594 C2604 0.930 . S
H2595 C2607 0.929 . S
H2596 C2610 0.930 . S
H2597 C2612 0.960 . S
H2598 C2612 0.960 . S
H2599 C2612 0.960 . S
C2600 H2592 0.929 . S
C2600 C2601 1.377 . S
C2600 C2602 1.384 . S
C2601 C2600 1.377 . S
C2601 C2607 1.390 . S
C2602 H2593 0.930 . S
C2602 C2600 1.384 . S
C2602 C2603 1.372 . S
C2603 C2602 1.372 . S
C2603 C2604 1.400 . S
C2603 C2608 1.490 . S
C2604 H2594 0.930 . S
C2604 C2603 1.400 . S
C2604 C2607 1.386 . S
H2605 C2621 0.930 . S
H2606 C2622 0.931 . S
C2607 H2595 0.929 . S
C2607 C2601 1.390 . S
C2607 C2604 1.386 . S
C2608 C2603 1.490 . S
C2608 C2610 1.395 . S
C2608 C2611 1.403 . S
H2609 C2615 0.930 . S
C2610 H2596 0.930 . S
C2610 C2608 1.395 . S
C2610 C2613 1.403 . S
C2611 C2608 1.403 . S
C2611 C2612 1.524 . S
C2611 C2615 1.400 . S
C2612 H2597 0.960 . S
C2612 H2598 0.960 . S
C2612 H2599 0.960 . S
C2612 C2611 1.524 . S
C2613 C2610 1.403 . S
C2613 C2614 1.392 . S
C2613 C2617 1.495 . S
C2614 C2613 1.392 . S
C2614 C2615 1.385 . S
C2614 C2616 1.478 . S
C2615 H2609 0.930 . S
C2615 C2611 1.400 . S
C2615 C2614 1.385 . S
C2616 C2614 1.478 . S
C2616 C2618 1.381 . S
C2616 C2622 1.383 . S
C2617 C2613 1.495 . S
C2617 H2623 0.959 . S
C2617 H2624 0.961 . S
C2617 H2625 0.960 . S
C2618 C2616 1.381 . S
C2618 C2619 1.394 . S
C2618 H2626 0.930 . S
C2619 C2618 1.394 . S
C2619 C2620 1.383 . S
C2619 H2627 0.929 . S
C2620 C2619 1.383 . S
C2620 C2621 1.377 . S
C2621 H2605 0.930 . S
C2621 C2620 1.377 . S
C2621 C2622 1.379 . S
C2622 H2606 0.931 . S
C2622 C2616 1.383 . S
C2622 C2621 1.379 . S
H2623 C2617 0.959 . S
H2624 C2617 0.961 . S
H2625 C2617 0.960 . S
H2626 C2618 0.930 . S
H2627 C2619 0.929 . S
H2628 C2636 0.929 . S
H2629 C2638 0.930 . S
H2630 C2640 0.930 . S
H2631 C2643 0.929 . S
H2632 C2646 0.930 . S
H2633 C2648 0.960 . S
H2634 C2648 0.960 . S
H2635 C2648 0.960 . S
C2636 H2628 0.929 . S
C2636 C2637 1.377 . S
C2636 C2638 1.384 . S
C2637 C2636 1.377 . S
C2637 C2643 1.390 . S
C2638 H2629 0.930 . S
C2638 C2636 1.384 . S
C2638 C2639 1.372 . S
C2639 C2638 1.372 . S
C2639 C2640 1.400 . S
C2639 C2644 1.490 . S
C2640 H2630 0.930 . S
C2640 C2639 1.400 . S
C2640 C2643 1.386 . S
H2641 C2657 0.930 . S
H2642 C2658 0.931 . S
C2643 H2631 0.929 . S
C2643 C2637 1.390 . S
C2643 C2640 1.386 . S
C2644 C2639 1.490 . S
C2644 C2646 1.395 . S
C2644 C2647 1.403 . S
H2645 C2651 0.930 . S
C2646 H2632 0.930 . S
C2646 C2644 1.395 . S
C2646 C2649 1.403 . S
C2647 C2644 1.403 . S
C2647 C2648 1.524 . S
C2647 C2651 1.400 . S
C2648 H2633 0.960 . S
C2648 H2634 0.960 . S
C2648 H2635 0.960 . S
C2648 C2647 1.524 . S
C2649 C2646 1.403 . S
C2649 C2650 1.392 . S
C2649 C2653 1.495 . S
C2650 C2649 1.392 . S
C2650 C2651 1.385 . S
C2650 C2652 1.478 . S
C2651 H2645 0.930 . S
C2651 C2647 1.400 . S
C2651 C2650 1.385 . S
C2652 C2650 1.478 . S
C2652 C2654 1.381 . S
C2652 C2658 1.383 . S
C2653 C2649 1.495 . S
C2653 H2659 0.959 . S
C2653 H2660 0.961 . S
C2653 H2661 0.960 . S
C2654 C2652 1.381 . S
C2654 C2655 1.394 . S
C2654 H2662 0.930 . S
C2655 C2654 1.394 . S
C2655 C2656 1.383 . S
C2655 H2663 0.929 . S
C2656 C2655 1.383 . S
C2656 C2657 1.377 . S
C2657 H2641 0.930 . S
C2657 C2656 1.377 . S
C2657 C2658 1.379 . S
C2658 H2642 0.931 . S
C2658 C2652 1.383 . S
C2658 C2657 1.379 . S
H2659 C2653 0.959 . S
H2660 C2653 0.961 . S
H2661 C2653 0.960 . S
H2662 C2654 0.930 . S
H2663 C2655 0.929 . S
H2664 C2672 0.929 . S
H2665 C2674 0.930 . S
H2666 C2676 0.930 . S
H2667 C2679 0.929 . S
H2668 C2682 0.930 . S
H2669 C2684 0.960 . S
H2670 C2684 0.960 . S
H2671 C2684 0.960 . S
C2672 H2664 0.929 . S
C2672 C2673 1.377 . S
C2672 C2674 1.384 . S
C2673 C2672 1.377 . S
C2673 C2679 1.390 . S
C2674 H2665 0.930 . S
C2674 C2672 1.384 . S
C2674 C2675 1.372 . S
C2675 C2674 1.372 . S
C2675 C2676 1.400 . S
C2675 C2680 1.490 . S
C2676 H2666 0.930 . S
C2676 C2675 1.400 . S
C2676 C2679 1.386 . S
H2677 C2693 0.930 . S
H2678 C2694 0.931 . S
C2679 H2667 0.929 . S
C2679 C2673 1.390 . S
C2679 C2676 1.386 . S
C2680 C2675 1.490 . S
C2680 C2682 1.395 . S
C2680 C2683 1.403 . S
H2681 C2687 0.930 . S
C2682 H2668 0.930 . S
C2682 C2680 1.395 . S
C2682 C2685 1.403 . S
C2683 C2680 1.403 . S
C2683 C2684 1.524 . S
C2683 C2687 1.400 . S
C2684 H2669 0.960 . S
C2684 H2670 0.960 . S
C2684 H2671 0.960 . S
C2684 C2683 1.524 . S
C2685 C2682 1.403 . S
C2685 C2686 1.392 . S
C2685 C2689 1.495 . S
C2686 C2685 1.392 . S
C2686 C2687 1.385 . S
C2686 C2688 1.478 . S
C2687 H2681 0.930 . S
C2687 C2683 1.400 . S
C2687 C2686 1.385 . S
C2688 C2686 1.478 . S
C2688 C2690 1.381 . S
C2688 C2694 1.383 . S
C2689 C2685 1.495 . S
C2689 H2695 0.959 . S
C2689 H2696 0.961 . S
C2689 H2697 0.960 . S
C2690 C2688 1.381 . S
C2690 C2691 1.394 . S
C2690 H2698 0.930 . S
C2691 C2690 1.394 . S
C2691 C2692 1.383 . S
C2691 H2699 0.929 . S
C2692 C2691 1.383 . S
C2692 C2693 1.377 . S
C2693 H2677 0.930 . S
C2693 C2692 1.377 . S
C2693 C2694 1.379 . S
C2694 H2678 0.931 . S
C2694 C2688 1.383 . S
C2694 C2693 1.379 . S
H2695 C2689 0.959 . S
H2696 C2689 0.961 . S
H2697 C2689 0.960 . S
H2698 C2690 0.930 . S
H2699 C2691 0.929 . S
H2700 C2708 0.929 . S
H2701 C2710 0.930 . S
H2702 C2712 0.930 . S
H2703 C2715 0.929 . S
H2704 C2718 0.930 . S
H2705 C2720 0.960 . S
H2706 C2720 0.960 . S
H2707 C2720 0.960 . S
C2708 H2700 0.929 . S
C2708 C2709 1.377 . S
C2708 C2710 1.384 . S
C2709 C2708 1.377 . S
C2709 C2715 1.390 . S
C2710 H2701 0.930 . S
C2710 C2708 1.384 . S
C2710 C2711 1.372 . S
C2711 C2710 1.372 . S
C2711 C2712 1.400 . S
C2711 C2716 1.490 . S
C2712 H2702 0.930 . S
C2712 C2711 1.400 . S
C2712 C2715 1.386 . S
H2713 C2729 0.930 . S
H2714 C2730 0.931 . S
C2715 H2703 0.929 . S
C2715 C2709 1.390 . S
C2715 C2712 1.386 . S
C2716 C2711 1.490 . S
C2716 C2718 1.395 . S
C2716 C2719 1.403 . S
H2717 C2723 0.930 . S
C2718 H2704 0.930 . S
C2718 C2716 1.395 . S
C2718 C2721 1.403 . S
C2719 C2716 1.403 . S
C2719 C2720 1.524 . S
C2719 C2723 1.400 . S
C2720 H2705 0.960 . S
C2720 H2706 0.960 . S
C2720 H2707 0.960 . S
C2720 C2719 1.524 . S
C2721 C2718 1.403 . S
C2721 C2722 1.392 . S
C2721 C2725 1.495 . S
C2722 C2721 1.392 . S
C2722 C2723 1.385 . S
C2722 C2724 1.478 . S
C2723 H2717 0.930 . S
C2723 C2719 1.400 . S
C2723 C2722 1.385 . S
C2724 C2722 1.478 . S
C2724 C2726 1.381 . S
C2724 C2730 1.383 . S
C2725 C2721 1.495 . S
C2725 H2731 0.959 . S
C2725 H2732 0.961 . S
C2725 H2733 0.960 . S
C2726 C2724 1.381 . S
C2726 C2727 1.394 . S
C2726 H2734 0.930 . S
C2727 C2726 1.394 . S
C2727 C2728 1.383 . S
C2727 H2735 0.929 . S
C2728 C2727 1.383 . S
C2728 C2729 1.377 . S
C2729 H2713 0.930 . S
C2729 C2728 1.377 . S
C2729 C2730 1.379 . S
C2730 H2714 0.931 . S
C2730 C2724 1.383 . S
C2730 C2729 1.379 . S
H2731 C2725 0.959 . S
H2732 C2725 0.961 . S
H2733 C2725 0.960 . S
H2734 C2726 0.930 . S
H2735 C2727 0.929 . S
H2736 C2744 0.929 . S
H2737 C2746 0.930 . S
H2738 C2748 0.930 . S
H2739 C2751 0.929 . S
H2740 C2754 0.930 . S
H2741 C2756 0.960 . S
H2742 C2756 0.960 . S
H2743 C2756 0.960 . S
C2744 H2736 0.929 . S
C2744 C2745 1.377 . S
C2744 C2746 1.384 . S
C2745 C2744 1.377 . S
C2745 C2751 1.390 . S
C2746 H2737 0.930 . S
C2746 C2744 1.384 . S
C2746 C2747 1.372 . S
C2747 C2746 1.372 . S
C2747 C2748 1.400 . S
C2747 C2752 1.490 . S
C2748 H2738 0.930 . S
C2748 C2747 1.400 . S
C2748 C2751 1.386 . S
H2749 C2765 0.930 . S
H2750 C2766 0.931 . S
C2751 H2739 0.929 . S
C2751 C2745 1.390 . S
C2751 C2748 1.386 . S
C2752 C2747 1.490 . S
C2752 C2754 1.395 . S
C2752 C2755 1.403 . S
H2753 C2759 0.930 . S
C2754 H2740 0.930 . S
C2754 C2752 1.395 . S
C2754 C2757 1.403 . S
C2755 C2752 1.403 . S
C2755 C2756 1.524 . S
C2755 C2759 1.400 . S
C2756 H2741 0.960 . S
C2756 H2742 0.960 . S
C2756 H2743 0.960 . S
C2756 C2755 1.524 . S
C2757 C2754 1.403 . S
C2757 C2758 1.392 . S
C2757 C2761 1.495 . S
C2758 C2757 1.392 . S
C2758 C2759 1.385 . S
C2758 C2760 1.478 . S
C2759 H2753 0.930 . S
C2759 C2755 1.400 . S
C2759 C2758 1.385 . S
C2760 C2758 1.478 . S
C2760 C2762 1.381 . S
C2760 C2766 1.383 . S
C2761 C2757 1.495 . S
C2761 H2767 0.959 . S
C2761 H2768 0.961 . S
C2761 H2769 0.960 . S
C2762 C2760 1.381 . S
C2762 C2763 1.394 . S
C2762 H2770 0.930 . S
C2763 C2762 1.394 . S
C2763 C2764 1.383 . S
C2763 H2771 0.929 . S
C2764 C2763 1.383 . S
C2764 C2765 1.377 . S
C2765 H2749 0.930 . S
C2765 C2764 1.377 . S
C2765 C2766 1.379 . S
C2766 H2750 0.931 . S
C2766 C2760 1.383 . S
C2766 C2765 1.379 . S
H2767 C2761 0.959 . S
H2768 C2761 0.961 . S
H2769 C2761 0.960 . S
H2770 C2762 0.930 . S
H2771 C2763 0.929 . S
H2772 C2780 0.929 . S
H2773 C2782 0.930 . S
H2774 C2784 0.930 . S
H2775 C2787 0.929 . S
H2776 C2790 0.930 . S
H2777 C2792 0.960 . S
H2778 C2792 0.960 . S
H2779 C2792 0.960 . S
C2780 H2772 0.929 . S
C2780 C2781 1.377 . S
C2780 C2782 1.384 . S
C2781 C2780 1.377 . S
C2781 C2787 1.390 . S
C2782 H2773 0.930 . S
C2782 C2780 1.384 . S
C2782 C2783 1.372 . S
C2783 C2782 1.372 . S
C2783 C2784 1.400 . S
C2783 C2788 1.490 . S
C2784 H2774 0.930 . S
C2784 C2783 1.400 . S
C2784 C2787 1.386 . S
H2785 C2801 0.930 . S
H2786 C2802 0.931 . S
C2787 H2775 0.929 . S
C2787 C2781 1.390 . S
C2787 C2784 1.386 . S
C2788 C2783 1.490 . S
C2788 C2790 1.395 . S
C2788 C2791 1.403 . S
H2789 C2795 0.930 . S
C2790 H2776 0.930 . S
C2790 C2788 1.395 . S
C2790 C2793 1.403 . S
C2791 C2788 1.403 . S
C2791 C2792 1.524 . S
C2791 C2795 1.400 . S
C2792 H2777 0.960 . S
C2792 H2778 0.960 . S
C2792 H2779 0.960 . S
C2792 C2791 1.524 . S
C2793 C2790 1.403 . S
C2793 C2794 1.392 . S
C2793 C2797 1.495 . S
C2794 C2793 1.392 . S
C2794 C2795 1.385 . S
C2794 C2796 1.478 . S
C2795 H2789 0.930 . S
C2795 C2791 1.400 . S
C2795 C2794 1.385 . S
C2796 C2794 1.478 . S
C2796 C2798 1.381 . S
C2796 C2802 1.383 . S
C2797 C2793 1.495 . S
C2797 H2803 0.959 . S
C2797 H2804 0.961 . S
C2797 H2805 0.960 . S
C2798 C2796 1.381 . S
C2798 C2799 1.394 . S
C2798 H2806 0.930 . S
C2799 C2798 1.394 . S
C2799 C2800 1.383 . S
C2799 H2807 0.929 . S
C2800 C2799 1.383 . S
C2800 C2801 1.377 . S
C2801 H2785 0.930 . S
C2801 C2800 1.377 . S
C2801 C2802 1.379 . S
C2802 H2786 0.931 . S
C2802 C2796 1.383 . S
C2802 C2801 1.379 . S
H2803 C2797 0.959 . S
H2804 C2797 0.961 . S
H2805 C2797 0.960 . S
H2806 C2798 0.930 . S
H2807 C2799 0.929 . S
H2808 C2816 0.929 . S
H2809 C2818 0.930 . S
H2810 C2820 0.930 . S
H2811 C2823 0.929 . S
H2812 C2826 0.930 . S
H2813 C2828 0.960 . S
H2814 C2828 0.960 . S
H2815 C2828 0.960 . S
C2816 H2808 0.929 . S
C2816 C2817 1.377 . S
C2816 C2818 1.384 . S
C2817 C2816 1.377 . S
C2817 C2823 1.390 . S
C2818 H2809 0.930 . S
C2818 C2816 1.384 . S
C2818 C2819 1.372 . S
C2819 C2818 1.372 . S
C2819 C2820 1.400 . S
C2819 C2824 1.490 . S
C2820 H2810 0.930 . S
C2820 C2819 1.400 . S
C2820 C2823 1.386 . S
H2821 C2837 0.930 . S
H2822 C2838 0.931 . S
C2823 H2811 0.929 . S
C2823 C2817 1.390 . S
C2823 C2820 1.386 . S
C2824 C2819 1.490 . S
C2824 C2826 1.395 . S
C2824 C2827 1.403 . S
H2825 C2831 0.930 . S
C2826 H2812 0.930 . S
C2826 C2824 1.395 . S
C2826 C2829 1.403 . S
C2827 C2824 1.403 . S
C2827 C2828 1.524 . S
C2827 C2831 1.400 . S
C2828 H2813 0.960 . S
C2828 H2814 0.960 . S
C2828 H2815 0.960 . S
C2828 C2827 1.524 . S
C2829 C2826 1.403 . S
C2829 C2830 1.392 . S
C2829 C2833 1.495 . S
C2830 C2829 1.392 . S
C2830 C2831 1.385 . S
C2830 C2832 1.478 . S
C2831 H2825 0.930 . S
C2831 C2827 1.400 . S
C2831 C2830 1.385 . S
C2832 C2830 1.478 . S
C2832 C2834 1.381 . S
C2832 C2838 1.383 . S
C2833 C2829 1.495 . S
C2833 H2839 0.959 . S
C2833 H2840 0.961 . S
C2833 H2841 0.960 . S
C2834 C2832 1.381 . S
C2834 C2835 1.394 . S
C2834 H2842 0.930 . S
C2835 C2834 1.394 . S
C2835 C2836 1.383 . S
C2835 H2843 0.929 . S
C2836 C2835 1.383 . S
C2836 C2837 1.377 . S
C2837 H2821 0.930 . S
C2837 C2836 1.377 . S
C2837 C2838 1.379 . S
C2838 H2822 0.931 . S
C2838 C2832 1.383 . S
C2838 C2837 1.379 . S
H2839 C2833 0.959 . S
H2840 C2833 0.961 . S
H2841 C2833 0.960 . S
H2842 C2834 0.930 . S
H2843 C2835 0.929 . S
H2844 C2852 0.929 . S
H2845 C2854 0.930 . S
H2846 C2856 0.930 . S
H2847 C2859 0.929 . S
H2848 C2862 0.930 . S
H2849 C2864 0.960 . S
H2850 C2864 0.960 . S
H2851 C2864 0.960 . S
C2852 H2844 0.929 . S
C2852 C2853 1.377 . S
C2852 C2854 1.384 . S
C2853 C2852 1.377 . S
C2853 C2859 1.390 . S
C2854 H2845 0.930 . S
C2854 C2852 1.384 . S
C2854 C2855 1.372 . S
C2855 C2854 1.372 . S
C2855 C2856 1.400 . S
C2855 C2860 1.490 . S
C2856 H2846 0.930 . S
C2856 C2855 1.400 . S
C2856 C2859 1.386 . S
H2857 C2873 0.930 . S
H2858 C2874 0.931 . S
C2859 H2847 0.929 . S
C2859 C2853 1.390 . S
C2859 C2856 1.386 . S
C2860 C2855 1.490 . S
C2860 C2862 1.395 . S
C2860 C2863 1.403 . S
H2861 C2867 0.930 . S
C2862 H2848 0.930 . S
C2862 C2860 1.395 . S
C2862 C2865 1.403 . S
C2863 C2860 1.403 . S
C2863 C2864 1.524 . S
C2863 C2867 1.400 . S
C2864 H2849 0.960 . S
C2864 H2850 0.960 . S
C2864 H2851 0.960 . S
C2864 C2863 1.524 . S
C2865 C2862 1.403 . S
C2865 C2866 1.392 . S
C2865 C2869 1.495 . S
C2866 C2865 1.392 . S
C2866 C2867 1.385 . S
C2866 C2868 1.478 . S
C2867 H2861 0.930 . S
C2867 C2863 1.400 . S
C2867 C2866 1.385 . S
C2868 C2866 1.478 . S
C2868 C2870 1.381 . S
C2868 C2874 1.383 . S
C2869 C2865 1.495 . S
C2869 H2875 0.959 . S
C2869 H2876 0.961 . S
C2869 H2877 0.960 . S
C2870 C2868 1.381 . S
C2870 C2871 1.394 . S
C2870 H2878 0.930 . S
C2871 C2870 1.394 . S
C2871 C2872 1.383 . S
C2871 H2879 0.929 . S
C2872 C2871 1.383 . S
C2872 C2873 1.377 . S
C2873 H2857 0.930 . S
C2873 C2872 1.377 . S
C2873 C2874 1.379 . S
C2874 H2858 0.931 . S
C2874 C2868 1.383 . S
C2874 C2873 1.379 . S
H2875 C2869 0.959 . S
H2876 C2869 0.961 . S
H2877 C2869 0.960 . S
H2878 C2870 0.930 . S
H2879 C2871 0.929 . S
H2880 C2888 0.929 . S
H2881 C2890 0.930 . S
H2882 C2892 0.930 . S
H2883 C2895 0.929 . S
H2884 C2898 0.930 . S
H2885 C2900 0.960 . S
H2886 C2900 0.960 . S
H2887 C2900 0.960 . S
C2888 H2880 0.929 . S
C2888 C2889 1.377 . S
C2888 C2890 1.384 . S
C2889 C2888 1.377 . S
C2889 C2895 1.390 . S
C2890 H2881 0.930 . S
C2890 C2888 1.384 . S
C2890 C2891 1.372 . S
C2891 C2890 1.372 . S
C2891 C2892 1.400 . S
C2891 C2896 1.490 . S
C2892 H2882 0.930 . S
C2892 C2891 1.400 . S
C2892 C2895 1.386 . S
H2893 C2909 0.930 . S
H2894 C2910 0.931 . S
C2895 H2883 0.929 . S
C2895 C2889 1.390 . S
C2895 C2892 1.386 . S
C2896 C2891 1.490 . S
C2896 C2898 1.395 . S
C2896 C2899 1.403 . S
H2897 C2903 0.930 . S
C2898 H2884 0.930 . S
C2898 C2896 1.395 . S
C2898 C2901 1.403 . S
C2899 C2896 1.403 . S
C2899 C2900 1.524 . S
C2899 C2903 1.400 . S
C2900 H2885 0.960 . S
C2900 H2886 0.960 . S
C2900 H2887 0.960 . S
C2900 C2899 1.524 . S
C2901 C2898 1.403 . S
C2901 C2902 1.392 . S
C2901 C2905 1.495 . S
C2902 C2901 1.392 . S
C2902 C2903 1.385 . S
C2902 C2904 1.478 . S
C2903 H2897 0.930 . S
C2903 C2899 1.400 . S
C2903 C2902 1.385 . S
C2904 C2902 1.478 . S
C2904 C2906 1.381 . S
C2904 C2910 1.383 . S
C2905 C2901 1.495 . S
C2905 H2911 0.959 . S
C2905 H2912 0.961 . S
C2905 H2913 0.960 . S
C2906 C2904 1.381 . S
C2906 C2907 1.394 . S
C2906 H2914 0.930 . S
C2907 C2906 1.394 . S
C2907 C2908 1.383 . S
C2907 H2915 0.929 . S
C2908 C2907 1.383 . S
C2908 C2909 1.377 . S
C2909 H2893 0.930 . S
C2909 C2908 1.377 . S
C2909 C2910 1.379 . S
C2910 H2894 0.931 . S
C2910 C2904 1.383 . S
C2910 C2909 1.379 . S
H2911 C2905 0.959 . S
H2912 C2905 0.961 . S
H2913 C2905 0.960 . S
H2914 C2906 0.930 . S
H2915 C2907 0.929 . S
H2916 C2924 0.929 . S
H2917 C2926 0.930 . S
H2918 C2928 0.930 . S
H2919 C2931 0.929 . S
H2920 C2934 0.930 . S
H2921 C2936 0.960 . S
H2922 C2936 0.960 . S
H2923 C2936 0.960 . S
C2924 H2916 0.929 . S
C2924 C2925 1.377 . S
C2924 C2926 1.384 . S
C2925 C2924 1.377 . S
C2925 C2931 1.390 . S
C2926 H2917 0.930 . S
C2926 C2924 1.384 . S
C2926 C2927 1.372 . S
C2927 C2926 1.372 . S
C2927 C2928 1.400 . S
C2927 C2932 1.490 . S
C2928 H2918 0.930 . S
C2928 C2927 1.400 . S
C2928 C2931 1.386 . S
H2929 C2945 0.930 . S
H2930 C2946 0.931 . S
C2931 H2919 0.929 . S
C2931 C2925 1.390 . S
C2931 C2928 1.386 . S
C2932 C2927 1.490 . S
C2932 C2934 1.395 . S
C2932 C2935 1.403 . S
H2933 C2939 0.930 . S
C2934 H2920 0.930 . S
C2934 C2932 1.395 . S
C2934 C2937 1.403 . S
C2935 C2932 1.403 . S
C2935 C2936 1.524 . S
C2935 C2939 1.400 . S
C2936 H2921 0.960 . S
C2936 H2922 0.960 . S
C2936 H2923 0.960 . S
C2936 C2935 1.524 . S
C2937 C2934 1.403 . S
C2937 C2938 1.392 . S
C2937 C2941 1.495 . S
C2938 C2937 1.392 . S
C2938 C2939 1.385 . S
C2938 C2940 1.478 . S
C2939 H2933 0.930 . S
C2939 C2935 1.400 . S
C2939 C2938 1.385 . S
C2940 C2938 1.478 . S
C2940 C2942 1.381 . S
C2940 C2946 1.383 . S
C2941 C2937 1.495 . S
C2941 H2947 0.959 . S
C2941 H2948 0.961 . S
C2941 H2949 0.960 . S
C2942 C2940 1.381 . S
C2942 C2943 1.394 . S
C2942 H2950 0.930 . S
C2943 C2942 1.394 . S
C2943 C2944 1.383 . S
C2943 H2951 0.929 . S
C2944 C2943 1.383 . S
C2944 C2945 1.377 . S
C2945 H2929 0.930 . S
C2945 C2944 1.377 . S
C2945 C2946 1.379 . S
C2946 H2930 0.931 . S
C2946 C2940 1.383 . S
C2946 C2945 1.379 . S
H2947 C2941 0.959 . S
H2948 C2941 0.961 . S
H2949 C2941 0.960 . S
H2950 C2942 0.930 . S
H2951 C2943 0.929 . S
C1017 C469 1.665 . S
C1036 C651 1.662 . S
C1053 C505 1.837 . S
C1072 C691 1.828 . S
C1089 C433 1.737 . S
C1108 C743 1.708 . S
C1125 C397 1.546 . S
C1144 C703 1.509 . S
C1180 C731 1.438 . S
C1161 C325 1.436 . S
C1197 C361 1.344 . S
C1216 C663 1.378 . S
C1252 C670 1.671 . S
C1233 C421 1.670 . S
C1288 C710 1.821 . S
C1269 C349 1.833 . S
C1305 C385 1.735 . S
C1324 C730 1.708 . S
C1341 C493 1.547 . S
C1360 C690 1.514 . S
C1377 C529 1.441 . S
C1396 C750 1.431 . S
C1432 C650 1.342 . S
C1413 C457 1.343 . S
C1468 C771 1.658 . S
C1449 C37 1.664 . S
C1485 C73 1.836 . S
C1504 C811 1.827 . S
C1521 C1 1.740 . S
C1540 C863 1.728 . S
C1557 C613 1.547 . S
C1576 C823 1.512 . S
C1593 C541 1.435 . S
C1612 C851 1.433 . S
C1629 C577 1.340 . S
C1648 C783 1.326 . S
C1665 C637 1.668 . S
C1684 C790 1.665 . S
C1701 C565 1.834 . S
C1720 C830 1.834 . S
C1756 C850 1.723 . S
C1737 C601 1.737 . S
C1773 C61 1.543 . S
C1792 C810 1.516 . S
C1828 C870 1.431 . S
C1809 C97 1.442 . S
C1845 C25 1.351 . S
C1864 C770 1.345 . S
C1900 C891 1.656 . S
C1881 C253 1.663 . S
C1917 C289 1.836 . S
C1936 C931 1.821 . S
C1972 C983 1.719 . S
C1953 C217 1.738 . S
C2008 C943 1.544 . S
C1989 C181 1.551 . S
C2044 C971 1.440 . S
C2025 C109 1.438 . S
C2061 C145 1.344 . S
C2080 C903 1.346 . S
C2097 C205 1.670 . S
C2116 C910 1.658 . S
C2133 C133 1.833 . S
C2152 C950 1.828 . S
C2188 C970 1.717 . S
C2169 C169 1.731 . S
C2205 C277 1.543 . S
C2224 C930 1.520 . S
C2241 C313 1.443 . S
C2260 C990 1.436 . S
C2277 C241 1.351 . S
C2296 C890 1.338 . S
C2313 C571 1.252 . S
C2332 C674 1.236 . S
C2368 C714 1.911 . S
C2349 C607 1.927 . S
C2385 C643 1.582 . S
C2404 C737 1.582 . S
C2421 C247 1.923 . S
C2440 C697 1.891 . S
C2457 C283 1.586 . S
C2476 C754 1.571 . S
C2512 C657 1.251 . S
C2493 C319 1.251 . S
C2529 C139 1.252 . S
C2548 C794 1.231 . S
C2565 C175 1.925 . S
C2584 C834 1.909 . S
C2601 C211 1.579 . S
C2620 C857 1.569 . S
C2637 C463 1.926 . S
C2656 C817 1.915 . S
C2692 C874 1.585 . S
C2673 C499 1.584 . S
C2709 C535 1.251 . S
C2728 C777 1.236 . S
C2745 C355 1.252 . S
C2764 C914 1.233 . S
C2781 C391 1.926 . S
C2800 C954 1.916 . S
C2836 C977 1.569 . S
C2817 C427 1.580 . S
C2853 C31 1.923 . S
C2872 C937 1.898 . S
C2889 C67 1.586 . S
C2908 C994 1.578 . S
C2925 C103 1.252 . S
C2944 C897 1.230 . S
