# Generated by pormake.
# Topology pyr, (3,6)-cn, num edge types: 1
# Building blocks:
#     Node 0, Type 0, BuildingBlock: KAKCAD_clean_linker_0, # of connection points: 3
#     Node 1, Type 0, BuildingBlock: KAKCAD_clean_linker_0, # of connection points: 3
#     Node 2, Type 0, BuildingBlock: KAKCAD_clean_linker_0, # of connection points: 3
#     Node 3, Type 0, BuildingBlock: KAKCAD_clean_linker_0, # of connection points: 3
#     Node 4, Type 0, BuildingBlock: KAKCAD_clean_linker_0, # of connection points: 3
#     Node 5, Type 0, BuildingBlock: KAKCAD_clean_linker_0, # of connection points: 3
#     Node 6, Type 0, BuildingBlock: KAKCAD_clean_linker_0, # of connection points: 3
#     Node 7, Type 0, BuildingBlock: KAKCAD_clean_linker_0, # of connection points: 3
#     Node 8, Type 1, BuildingBlock: MIDCAF_clean_sbu_0, # of connection points: 6
#     Node 9, Type 1, BuildingBlock: MIDCAF_clean_sbu_0, # of connection points: 6
#     Node 10, Type 1, BuildingBlock: MIDCAF_clean_sbu_0, # of connection points: 6
#     Node 11, Type 1, BuildingBlock: MIDCAF_clean_sbu_0, # of connection points: 6
#     Edge 12, Type (0, 1), BuildingBlock: TEMPAE_clean_linker_10, # of connection points: 2
#     Edge 13, Type (0, 1), BuildingBlock: TEMPAE_clean_linker_10, # of connection points: 2
#     Edge 14, Type (0, 1), BuildingBlock: TEMPAE_clean_linker_10, # of connection points: 2
#     Edge 15, Type (0, 1), BuildingBlock: TEMPAE_clean_linker_10, # of connection points: 2
#     Edge 16, Type (0, 1), BuildingBlock: TEMPAE_clean_linker_10, # of connection points: 2
#     Edge 17, Type (0, 1), BuildingBlock: TEMPAE_clean_linker_10, # of connection points: 2
#     Edge 18, Type (0, 1), BuildingBlock: TEMPAE_clean_linker_10, # of connection points: 2
#     Edge 19, Type (0, 1), BuildingBlock: TEMPAE_clean_linker_10, # of connection points: 2
#     Edge 20, Type (0, 1), BuildingBlock: TEMPAE_clean_linker_10, # of connection points: 2
#     Edge 21, Type (0, 1), BuildingBlock: TEMPAE_clean_linker_10, # of connection points: 2
#     Edge 22, Type (0, 1), BuildingBlock: TEMPAE_clean_linker_10, # of connection points: 2
#     Edge 23, Type (0, 1), BuildingBlock: TEMPAE_clean_linker_10, # of connection points: 2
#     Edge 24, Type (0, 1), BuildingBlock: TEMPAE_clean_linker_10, # of connection points: 2
#     Edge 25, Type (0, 1), BuildingBlock: TEMPAE_clean_linker_10, # of connection points: 2
#     Edge 26, Type (0, 1), BuildingBlock: TEMPAE_clean_linker_10, # of connection points: 2
#     Edge 27, Type (0, 1), BuildingBlock: TEMPAE_clean_linker_10, # of connection points: 2
#     Edge 28, Type (0, 1), BuildingBlock: TEMPAE_clean_linker_10, # of connection points: 2
#     Edge 29, Type (0, 1), BuildingBlock: TEMPAE_clean_linker_10, # of connection points: 2
#     Edge 30, Type (0, 1), BuildingBlock: TEMPAE_clean_linker_10, # of connection points: 2
#     Edge 31, Type (0, 1), BuildingBlock: TEMPAE_clean_linker_10, # of connection points: 2
#     Edge 32, Type (0, 1), BuildingBlock: TEMPAE_clean_linker_10, # of connection points: 2
#     Edge 33, Type (0, 1), BuildingBlock: TEMPAE_clean_linker_10, # of connection points: 2
#     Edge 34, Type (0, 1), BuildingBlock: TEMPAE_clean_linker_10, # of connection points: 2
#     Edge 35, Type (0, 1), BuildingBlock: TEMPAE_clean_linker_10, # of connection points: 2
# Relax obj value: 0.019
# Max RMSD: 0.063
# Mean RMSD: 0.024
data_MOF--net-pry--node1-MIDCAF_clean_sbu_0--node2-KAKCAD_clean_linker_0--edge1-TEMPAE_clean_linker_10
_symmetry_space_group_name_H-M    P1
_symmetry_Int_Tables_number       1
_symmetry_cell_setting            triclinic
loop_
_symmetry_equiv_pos_as_xyz
'x, y, z'
_cell_length_a     44.328157
_cell_length_b     44.340973
_cell_length_c     44.281302
_cell_angle_alpha  90.23321
_cell_angle_beta   89.905854
_cell_angle_gamma 90.3274
loop_
_atom_site_label
_atom_site_type_symbol
_atom_site_fract_x
_atom_site_fract_y
_atom_site_fract_z
_atom_type_partial_charge
C0 C 0.16591 0.20133 0.31527 0.0
C1 C 0.18213 0.19089 0.34032 0.0
C2 C 0.18074 0.21562 0.29145 0.0
C3 C 0.2122 0.21984 0.29206 0.0
C4 C 0.2284 0.21001 0.31743 0.0
C5 C 0.21348 0.1958 0.34142 0.0
C6 C 0.22787 0.23329 0.26561 0.0
C7 C 0.21506 0.25785 0.25051 0.0
C8 C 0.22742 0.2686 0.22339 0.0
C9 C 0.25368 0.25515 0.21188 0.0
C10 C 0.26695 0.23047 0.22665 0.0
C11 C 0.25401 0.21993 0.2537 0.0
C12 C 0.29239 0.21381 0.21237 0.0
C13 C 0.29233 0.20818 0.18111 0.0
C14 C 0.31605 0.20209 0.22988 0.0
C15 C 0.33878 0.18473 0.21647 0.0
C16 C 0.33826 0.17861 0.18529 0.0
C17 C 0.21117 0.2919 0.20581 0.0
C18 C 0.17976 0.28958 0.20214 0.0
C19 C 0.22663 0.31602 0.19208 0.0
C20 C 0.21088 0.33745 0.17517 0.0
C21 C 0.17947 0.33487 0.17137 0.0
C22 C 0.16413 0.31077 0.18516 0.0
C23 C 0.31499 0.19092 0.16776 0.0
H24 H 0.14171 0.19806 0.31391 0.0
H25 H 0.16762 0.22257 0.2721 0.0
H26 H 0.25263 0.21311 0.3186 0.0
H27 H 0.22657 0.18779 0.36037 0.0
H28 H 0.19496 0.26834 0.25965 0.0
H29 H 0.26316 0.2001 0.2645 0.0
H30 H 0.26308 0.26316 0.19076 0.0
H31 H 0.2743 0.21642 0.16695 0.0
H32 H 0.31689 0.20619 0.25399 0.0
H33 H 0.35634 0.17552 0.23062 0.0
H34 H 0.16723 0.27104 0.21205 0.0
H35 H 0.25082 0.31842 0.1946 0.0
H36 H 0.31417 0.1871 0.1436 0.0
H37 H 0.1399 0.30837 0.18299 0.0
H38 H 0.22329 0.35575 0.1647 0.0
C39 C 0.33317 0.84525 0.83844 0.0
C40 C 0.36477 0.84777 0.8366 0.0
C41 C 0.3167 0.83205 0.81487 0.0
C42 C 0.33149 0.82101 0.78901 0.0
C43 C 0.36315 0.82292 0.78757 0.0
C44 C 0.37957 0.83606 0.81109 0.0
C45 C 0.31414 0.80869 0.76299 0.0
C46 C 0.28804 0.8233 0.75272 0.0
C47 C 0.27334 0.81357 0.72626 0.0
C48 C 0.28475 0.78855 0.71037 0.0
C49 C 0.31092 0.77389 0.72016 0.0
C50 C 0.3251 0.78376 0.74676 0.0
C51 C 0.32512 0.7502 0.70118 0.0
C52 C 0.30778 0.72716 0.68771 0.0
C53 C 0.35631 0.75126 0.69562 0.0
C54 C 0.3699 0.72988 0.67696 0.0
C55 C 0.35266 0.70688 0.66339 0.0
C56 C 0.24794 0.83127 0.71361 0.0
C57 C 0.22518 0.84305 0.73237 0.0
C58 C 0.24702 0.83744 0.68253 0.0
C59 C 0.22409 0.85508 0.6705 0.0
C60 C 0.20154 0.86722 0.68921 0.0
C61 C 0.20212 0.86077 0.72026 0.0
C62 C 0.32148 0.70556 0.66911 0.0
H63 H 0.32108 0.8543 0.85769 0.0
H64 H 0.29237 0.8307 0.81677 0.0
H65 H 0.37528 0.81503 0.76784 0.0
H66 H 0.4039 0.83739 0.80912 0.0
H67 H 0.28021 0.84337 0.76429 0.0
H68 H 0.3451 0.77224 0.75459 0.0
H69 H 0.27394 0.7812 0.68966 0.0
H70 H 0.2837 0.72576 0.69167 0.0
H71 H 0.37023 0.76897 0.7053 0.0
H72 H 0.39405 0.73125 0.67333 0.0
H73 H 0.22519 0.83856 0.75639 0.0
H74 H 0.2644 0.82916 0.66747 0.0
H75 H 0.30764 0.6881 0.65888 0.0
H76 H 0.18509 0.86987 0.73525 0.0
H77 H 0.22404 0.85919 0.6464 0.0
C78 C 0.80781 0.36595 0.8315 0.0
C79 C 0.83179 0.34868 0.84272 0.0
C80 C 0.78338 0.35207 0.81704 0.0
C81 C 0.78229 0.32055 0.81338 0.0
C82 C 0.8067 0.30335 0.82379 0.0
C83 C 0.83115 0.31725 0.83829 0.0
C84 C 0.75511 0.30572 0.80008 0.0
C85 C 0.74002 0.31885 0.77556 0.0
C86 C 0.71301 0.30634 0.76439 0.0
C87 C 0.70135 0.28006 0.77776 0.0
C88 C 0.7161 0.26651 0.80223 0.0
C89 C 0.74307 0.27937 0.81309 0.0
C90 C 0.70234 0.2401 0.81774 0.0
C91 C 0.67135 0.23973 0.82449 0.0
C92 C 0.72014 0.21563 0.82683 0.0
C93 C 0.70727 0.19148 0.84263 0.0
C94 C 0.67634 0.19135 0.84986 0.0
C95 C 0.69613 0.32165 0.73987 0.0
C96 C 0.69281 0.35315 0.7403 0.0
C97 C 0.6826 0.305 0.71636 0.0
C98 C 0.66608 0.31956 0.69383 0.0
C99 C 0.66257 0.35105 0.69447 0.0
C100 C 0.67626 0.36765 0.7179 0.0
C101 C 0.65853 0.21571 0.8404 0.0
H102 H 0.80731 0.39013 0.83497 0.0
H103 H 0.76478 0.36599 0.80976 0.0
H104 H 0.8068 0.27908 0.82093 0.0
H105 H 0.84944 0.30334 0.84633 0.0
H106 H 0.74935 0.3389 0.7651 0.0
H107 H 0.75386 0.26969 0.83271 0.0
H108 H 0.68033 0.27051 0.76957 0.0
H109 H 0.65712 0.25848 0.81828 0.0
H110 H 0.74403 0.21515 0.82168 0.0
H111 H 0.72157 0.17292 0.84921 0.0
H112 H 0.70262 0.36662 0.75827 0.0
H113 H 0.68492 0.28072 0.71528 0.0
H114 H 0.63478 0.21671 0.84606 0.0
H115 H 0.67437 0.39198 0.71882 0.0
H116 H 0.65571 0.30613 0.67615 0.0
C117 C 0.83451 0.70034 0.19416 0.0
C118 C 0.86583 0.69612 0.19664 0.0
C119 C 0.8184 0.71469 0.21726 0.0
C120 C 0.83327 0.7253 0.24327 0.0
C121 C 0.86472 0.72181 0.24533 0.0
C122 C 0.88079 0.70737 0.22231 0.0
C123 C 0.81601 0.73881 0.26876 0.0
C124 C 0.78908 0.72516 0.27889 0.0
C125 C 0.77386 0.73632 0.30446 0.0
C126 C 0.78556 0.7618 0.31945 0.0
C127 C 0.81251 0.77552 0.30995 0.0
C128 C 0.82743 0.76412 0.28437 0.0
C129 C 0.82604 0.80037 0.32811 0.0
C130 C 0.83831 0.82608 0.31415 0.0
C131 C 0.8274 0.79804 0.35974 0.0
C132 C 0.84118 0.82063 0.377 0.0
C133 C 0.85378 0.84617 0.36307 0.0
C134 C 0.74697 0.72037 0.31696 0.0
C135 C 0.72445 0.70826 0.298 0.0
C136 C 0.74386 0.71701 0.34837 0.0
C137 C 0.71875 0.70246 0.36058 0.0
C138 C 0.69605 0.69066 0.34176 0.0
C139 C 0.69925 0.69345 0.3103 0.0
C140 C 0.85191 0.84885 0.33149 0.0
H141 H 0.82228 0.69168 0.1748 0.0
H142 H 0.79423 0.71724 0.21489 0.0
H143 H 0.87685 0.72943 0.26518 0.0
H144 H 0.90493 0.70468 0.22479 0.0
H145 H 0.78083 0.70491 0.26781 0.0
H146 H 0.8484 0.77447 0.27708 0.0
H147 H 0.77375 0.77093 0.33887 0.0
H148 H 0.83743 0.82856 0.28985 0.0
H149 H 0.81844 0.77836 0.37114 0.0
H150 H 0.84213 0.81804 0.40129 0.0
H151 H 0.7261 0.71057 0.27372 0.0
H152 H 0.76112 0.72525 0.36364 0.0
H153 H 0.86169 0.86817 0.32012 0.0
H154 H 0.6821 0.68455 0.29526 0.0
H155 H 0.71736 0.69997 0.38487 0.0
C156 C 0.97374 0.91491 0.8107 0.0
C157 C 0.97501 0.94563 0.80354 0.0
C158 C 0.95882 0.9053 0.83682 0.0
C159 C 0.94531 0.92631 0.85658 0.0
C160 C 0.94833 0.95724 0.8501 0.0
C161 C 0.96271 0.96676 0.82368 0.0
C162 C 0.92604 0.91581 0.8822 0.0
C163 C 0.93279 0.88897 0.8976 0.0
C164 C 0.91248 0.87649 0.9187 0.0
C165 C 0.88573 0.89209 0.92526 0.0
C166 C 0.87933 0.91959 0.91122 0.0
C167 C 0.89939 0.93127 0.88971 0.0
C168 C 0.85082 0.93536 0.9181 0.0
C169 C 0.82318 0.92005 0.91529 0.0
C170 C 0.85112 0.9654 0.9283 0.0
C171 C 0.82418 0.97958 0.93655 0.0
C172 C 0.79655 0.9641 0.93402 0.0
C173 C 0.91827 0.8464 0.93246 0.0
C174 C 0.93253 0.82364 0.91557 0.0
C175 C 0.90869 0.83971 0.96204 0.0
C176 C 0.9127 0.81088 0.97411 0.0
C177 C 0.92681 0.78812 0.95708 0.0
C178 C 0.93705 0.79511 0.92781 0.0
C179 C 0.79627 0.93437 0.92295 0.0
H180 H 0.98282 0.89825 0.79526 0.0
H181 H 0.95664 0.88129 0.84063 0.0
H182 H 0.93891 0.97415 0.86503 0.0
H183 H 0.9636 0.99063 0.81855 0.0
H184 H 0.95385 0.87763 0.89291 0.0
H185 H 0.89328 0.95164 0.87781 0.0
H186 H 0.86946 0.88267 0.94093 0.0
H187 H 0.82244 0.89693 0.90731 0.0
H188 H 0.87224 0.97758 0.93068 0.0
H189 H 0.82491 0.0025 0.94508 0.0
H190 H 0.9398 0.82757 0.89257 0.0
H191 H 0.89805 0.85672 0.97598 0.0
H192 H 0.77528 0.92185 0.92114 0.0
H193 H 0.94875 0.77854 0.91419 0.0
H194 H 0.90435 0.8064 0.99665 0.0
C195 C 0.58304 0.07735 0.3188 0.0
C196 C 0.56847 0.09909 0.30117 0.0
C197 C 0.59791 0.08571 0.34533 0.0
C198 C 0.59889 0.11609 0.35453 0.0
C199 C 0.58339 0.13765 0.33725 0.0
C200 C 0.56814 0.12918 0.31095 0.0
C201 C 0.61747 0.1256 0.3809 0.0
C202 C 0.64586 0.11261 0.38599 0.0
C203 C 0.66464 0.12291 0.4095 0.0
C204 C 0.65485 0.14735 0.42741 0.0
C205 C 0.62716 0.16151 0.4218 0.0
C206 C 0.60805 0.14943 0.3995 0.0
C207 C 0.61979 0.19094 0.43638 0.0
C208 C 0.62848 0.19772 0.46625 0.0
C209 C 0.60572 0.2135 0.41932 0.0
C210 C 0.60076 0.242 0.43148 0.0
C211 C 0.6104 0.24924 0.46086 0.0
C212 C 0.69513 0.10939 0.41412 0.0
C213 C 0.70058 0.07878 0.40751 0.0
C214 C 0.71923 0.12709 0.42496 0.0
C215 C 0.7475 0.11449 0.42994 0.0
C216 C 0.75317 0.084 0.42303 0.0
C217 C 0.72928 0.06639 0.41147 0.0
C218 C 0.62392 0.22662 0.47834 0.0
H219 H 0.58334 0.05393 0.31174 0.0
H220 H 0.60908 0.06844 0.35835 0.0
H221 H 0.58404 0.16134 0.34328 0.0
H222 H 0.5573 0.14635 0.29751 0.0
H223 H 0.6539 0.09537 0.37064 0.0
H224 H 0.58602 0.15924 0.396 0.0
H225 H 0.66924 0.15613 0.44509 0.0
H226 H 0.63905 0.18084 0.48024 0.0
H227 H 0.59919 0.20958 0.39607 0.0
H228 H 0.58944 0.25849 0.41759 0.0
H229 H 0.68266 0.06414 0.39951 0.0
H230 H 0.71656 0.15089 0.42959 0.0
H231 H 0.63154 0.23138 0.50109 0.0
H232 H 0.73255 0.04298 0.4054 0.0
H233 H 0.76474 0.12886 0.43969 0.0
C234 C 0.29529 0.56039 0.12634 0.0
C235 C 0.28314 0.56278 0.09723 0.0
C236 C 0.3227 0.57458 0.13339 0.0
C237 C 0.33863 0.59105 0.1113 0.0
C238 C 0.32695 0.59212 0.08181 0.0
C239 C 0.29942 0.57835 0.07493 0.0
C240 C 0.3665 0.60829 0.1192 0.0
C241 C 0.38726 0.59687 0.1401 0.0
C242 C 0.41259 0.61391 0.14907 0.0
C243 C 0.41788 0.64207 0.13547 0.0
C244 C 0.39744 0.654 0.11438 0.0
C245 C 0.37166 0.637 0.10678 0.0
C246 C 0.4022 0.6847 0.10128 0.0
C247 C 0.41591 0.70774 0.1184 0.0
C248 C 0.39275 0.69142 0.0717 0.0
C249 C 0.39666 0.72036 0.05976 0.0
C250 C 0.41074 0.74328 0.0768 0.0
C251 C 0.43203 0.6034 0.17434 0.0
C252 C 0.41877 0.58942 0.19956 0.0
C253 C 0.46341 0.60866 0.17447 0.0
C254 C 0.48092 0.60063 0.19949 0.0
C255 C 0.46744 0.58688 0.2247 0.0
C256 C 0.43623 0.58119 0.22431 0.0
C257 C 0.42052 0.73637 0.10622 0.0
H258 H 0.283 0.54863 0.14392 0.0
H259 H 0.33077 0.57354 0.15642 0.0
H260 H 0.3389 0.60394 0.06405 0.0
H261 H 0.29061 0.58015 0.0522 0.0
H262 H 0.38363 0.57466 0.14958 0.0
H263 H 0.35488 0.64662 0.09199 0.0
H264 H 0.43759 0.65503 0.14198 0.0
H265 H 0.42298 0.70391 0.14144 0.0
H266 H 0.3825 0.67426 0.05753 0.0
H267 H 0.38851 0.72469 0.03717 0.0
H268 H 0.39463 0.58567 0.20072 0.0
H269 H 0.47445 0.61909 0.15531 0.0
H270 H 0.43219 0.75295 0.11996 0.0
H271 H 0.42505 0.57124 0.24366 0.0
H272 H 0.50495 0.60515 0.19913 0.0
C273 C 0.13521 0.31585 0.56492 0.0
C274 C 0.10498 0.30677 0.56271 0.0
C275 C 0.14284 0.34243 0.58026 0.0
C276 C 0.12029 0.36068 0.59326 0.0
C277 C 0.08988 0.35233 0.58926 0.0
C278 C 0.08234 0.3255 0.5744 0.0
C279 C 0.12865 0.38674 0.61299 0.0
C280 C 0.15451 0.40409 0.60679 0.0
C281 C 0.1653 0.42572 0.62755 0.0
C282 C 0.14846 0.43132 0.65391 0.0
C283 C 0.12174 0.41514 0.65992 0.0
C284 C 0.11223 0.39272 0.63952 0.0
C285 C 0.1045 0.42054 0.68823 0.0
C286 C 0.11969 0.42442 0.7158 0.0
C287 C 0.07278 0.42165 0.68796 0.0
C288 C 0.05665 0.42706 0.71462 0.0
C289 C 0.07194 0.43152 0.74206 0.0
C290 C 0.19513 0.44073 0.62256 0.0
C291 C 0.21866 0.42475 0.60858 0.0
C292 C 0.20078 0.47054 0.63222 0.0
C293 C 0.22924 0.48386 0.62807 0.0
C294 C 0.25263 0.46784 0.6138 0.0
C295 C 0.24671 0.43821 0.60386 0.0
C296 C 0.10361 0.42981 0.74237 0.0
H297 H 0.15302 0.30154 0.55632 0.0
H298 H 0.16652 0.34777 0.5832 0.0
H299 H 0.07188 0.3661 0.59831 0.0
H300 H 0.05882 0.3189 0.57276 0.0
H301 H 0.16656 0.40037 0.58583 0.0
H302 H 0.09278 0.37896 0.64517 0.0
H303 H 0.15642 0.44784 0.67016 0.0
H304 H 0.14404 0.42299 0.71692 0.0
H305 H 0.06045 0.41892 0.66702 0.0
H306 H 0.03229 0.42848 0.71363 0.0
H307 H 0.21566 0.40156 0.60141 0.0
H308 H 0.1832 0.48375 0.64281 0.0
H309 H 0.11602 0.43256 0.76327 0.0
H310 H 0.26366 0.42525 0.592 0.0
H311 H 0.23288 0.50664 0.63621 0.0
Zn312 Zn 0.98731 0.06613 0.55932 0.0
Zn313 Zn 0.05488 0.99253 0.49314 0.0
Zn314 Zn 0.02024 0.02951 0.5262 0.0
C315 C 0.07532 0.05102 0.4822 0.0
C316 C 0.99509 0.98371 0.47435 0.0
O317 O 0.02357 0.01623 0.57454 0.0
O318 O 0.99803 0.05099 0.59972 0.0
C319 C 0.02777 0.1024 0.52857 0.0
O320 O 0.05349 0.05693 0.50057 0.0
O321 O 0.08152 0.02404 0.47551 0.0
O322 O 0.02166 0.97552 0.46826 0.0
O323 O 0.99031 0.00363 0.49511 0.0
O324 O 0.00519 0.10451 0.54579 0.0
O325 O 0.03699 0.07635 0.5195 0.0
O326 O 0.97312 0.02627 0.50984 0.0
O327 O 0.94789 0.05512 0.54186 0.0
C328 C 0.94817 0.03803 0.51899 0.0
O329 O 0.04354 0.99838 0.55742 0.0
O330 O 0.07001 0.96841 0.52746 0.0
C331 C 0.01385 0.02743 0.59966 0.0
C332 C 0.06189 0.9762 0.55369 0.0
Zn333 Zn 0.49126 0.04615 0.99265 0.0
Zn334 Zn 0.55003 0.97332 0.0643 0.0
Zn335 Zn 0.52258 0.00943 0.02779 0.0
C336 C 0.59385 0.99515 0.02511 0.0
C337 C 0.50828 0.93755 0.03588 0.0
O338 O 0.49738 0.04259 0.05625 0.0
O339 O 0.4709 0.07004 0.02429 0.0
C340 C 0.5529 0.05423 0.97886 0.0
O341 O 0.5713 0.01053 0.01526 0.0
O342 O 0.59042 0.97706 0.04675 0.0
O343 O 0.52858 0.93582 0.05566 0.0
O344 O 0.50306 0.96292 0.0227 0.0
O345 O 0.52707 0.06462 0.97327 0.0
O346 O 0.55612 0.03251 0.99789 0.0
O347 O 0.49121 0.98164 1.00021 0.0
O348 O 0.46792 0.01444 0.97092 0.0
C349 C 0.47228 0.98752 0.97896 0.0
O350 O 0.51634 0.02583 0.07491 0.0
O351 O 0.54108 0.99307 0.10302 0.0
C352 C 0.47822 0.06377 0.05105 0.0
C353 C 0.52531 0.01654 0.10094 0.0
Zn354 Zn 0.55436 0.55521 0.53993 0.0
Zn355 Zn 0.48096 0.48995 0.46877 0.0
Zn356 Zn 0.51722 0.52216 0.50402 0.0
C357 C 0.52345 0.45054 0.49338 0.0
C358 C 0.5087 0.53196 0.43173 0.0
O359 O 0.48847 0.54841 0.53486 0.0
O360 O 0.52063 0.5766 0.56101 0.0
C361 C 0.56662 0.49456 0.55105 0.0
O362 O 0.53195 0.47486 0.50703 0.0
O363 O 0.50167 0.45105 0.47505 0.0
O364 O 0.48813 0.51221 0.43097 0.0
O365 O 0.52258 0.53806 0.4566 0.0
O366 O 0.57394 0.52063 0.56008 0.0
O367 O 0.54687 0.49117 0.52989 0.0
O368 O 0.54287 0.55371 0.47504 0.0
O369 O 0.57608 0.57504 0.50592 0.0
C370 C 0.56555 0.57144 0.47965 0.0
O371 O 0.47015 0.52638 0.52097 0.0
O372 O 0.44307 0.49709 0.49075 0.0
C373 C 0.4938 0.56906 0.55474 0.0
C374 C 0.44468 0.51436 0.51342 0.0
Zn375 Zn 0.04279 0.54212 0.97484 0.0
Zn376 Zn 0.97133 0.48163 0.05123 0.0
Zn377 Zn 0.00817 0.51267 0.0131 0.0
C378 C 0.0323 0.46888 0.06575 0.0
C379 C 0.95885 0.46187 0.9925 0.0
O380 O 0.99464 0.56087 0.0145 0.0
O381 O 0.02708 0.5827 0.98334 0.0
C382 C 0.08139 0.51644 0.01642 0.0
O383 O 0.03738 0.48825 0.0447 0.0
O384 O 0.00555 0.46174 0.07279 0.0
O385 O 0.9487 0.45954 0.01906 0.0
O386 O 0.98134 0.47951 0.98673 0.0
O387 O 0.08226 0.53103 0.99203 0.0
O388 O 0.05587 0.5079 0.02763 0.0
O389 O 0.00135 0.49388 0.96684 0.0
O390 O 0.02974 0.5224 0.93713 0.0
C391 C 0.01132 0.5009 0.94041 0.0
O392 O 0.97933 0.54555 0.03793 0.0
O393 O 0.95237 0.51771 0.06957 0.0
C394 C 0.00495 0.58464 0.0012 0.0
C395 C 0.95972 0.54329 0.0594 0.0
C396 C 0.14648 0.15014 0.35599 0.0
C397 C 0.1665 0.17332 0.36419 0.0
C398 C 0.13199 0.13254 0.3779 0.0
C399 C 0.13742 0.1384 0.40889 0.0
C400 C 0.15721 0.16214 0.41741 0.0
C401 C 0.17178 0.17915 0.3949 0.0
C402 C 0.11145 0.10714 0.36781 0.0
C403 C 0.16386 0.16924 0.4501 0.0
C404 C 0.07819 0.10231 0.45909 0.0
C405 C 0.09243 0.07546 0.46728 0.0
C406 C 0.09347 0.12428 0.44209 0.0
C407 C 0.12319 0.11854 0.43191 0.0
C408 C 0.13802 0.0919 0.44099 0.0
C409 C 0.12247 0.07072 0.45865 0.0
C410 C 0.07728 0.1529 0.4338 0.0
C411 C 0.16978 0.08509 0.43081 0.0
H412 H 0.14269 0.14525 0.33228 0.0
H413 H 0.18718 0.19713 0.40135 0.0
H414 H 0.12013 0.08533 0.37628 0.0
H415 H 0.08856 0.11024 0.37745 0.0
H416 H 0.1095 0.1057 0.34283 0.0
H417 H 0.16887 0.19363 0.45326 0.0
H418 H 0.14494 0.16284 0.46523 0.0
H419 H 0.1841 0.15649 0.45717 0.0
H420 H 0.05468 0.10561 0.46476 0.0
H421 H 0.13355 0.04994 0.46497 0.0
H422 H 0.07032 0.15176 0.40977 0.0
H423 H 0.09248 0.1727 0.43644 0.0
H424 H 0.05683 0.15646 0.44788 0.0
H425 H 0.17034 0.08258 0.40586 0.0
H426 H 0.17865 0.06412 0.44107 0.0
H427 H 0.18503 0.1041 0.43683 0.0
C428 C 0.4047 0.88477 0.85203 0.0
C429 C 0.3821 0.86412 0.86031 0.0
C430 C 0.4201 0.90187 0.87384 0.0
C431 C 0.41269 0.89834 0.90474 0.0
C432 C 0.39068 0.87677 0.91336 0.0
C433 C 0.37554 0.85997 0.89102 0.0
C434 C 0.44356 0.92451 0.86371 0.0
C435 C 0.38277 0.87187 0.94609 0.0
C436 C 0.46903 0.93489 0.95833 0.0
C437 C 0.45578 0.96312 0.96312 0.0
C438 C 0.45434 0.91261 0.94104 0.0
C439 C 0.42623 0.91918 0.92745 0.0
C440 C 0.41235 0.94733 0.9331 0.0
C441 C 0.42729 0.96892 0.95086 0.0
C442 C 0.46985 0.88279 0.9361 0.0
C443 C 0.38233 0.95522 0.9192 0.0
H444 H 0.40968 0.88835 0.82834 0.0
H445 H 0.35845 0.84367 0.89758 0.0
H446 H 0.43602 0.94766 0.8695 0.0
H447 H 0.46513 0.92061 0.87571 0.0
H448 H 0.44783 0.92337 0.839 0.0
H449 H 0.36703 0.85256 0.9493 0.0
H450 H 0.40358 0.86768 0.95921 0.0
H451 H 0.37218 0.89249 0.9555 0.0
H452 H 0.49131 0.93051 0.96728 0.0
H453 H 0.41693 0.99071 0.95462 0.0
H454 H 0.48309 0.88383 0.91484 0.0
H455 H 0.45338 0.86398 0.93398 0.0
H456 H 0.48561 0.8777 0.95486 0.0
H457 H 0.38475 0.9566 0.89429 0.0
H458 H 0.37355 0.97711 0.92765 0.0
H459 H 0.36541 0.93736 0.92407 0.0
C460 C 0.6487 0.35946 0.64014 0.0
C461 C 0.64502 0.36684 0.67077 0.0
C462 C 0.63433 0.37621 0.61751 0.0
C463 C 0.61599 0.40099 0.6257 0.0
C464 C 0.61091 0.40746 0.65662 0.0
C465 C 0.62547 0.39033 0.67875 0.0
C466 C 0.63974 0.36817 0.58486 0.0
C467 C 0.59104 0.43329 0.66637 0.0
C468 C 0.60993 0.4706 0.57699 0.0
C469 C 0.58034 0.46833 0.56614 0.0
C470 C 0.62237 0.44787 0.5949 0.0
C471 C 0.6047 0.42225 0.60237 0.0
C472 C 0.57535 0.41902 0.59006 0.0
C473 C 0.56338 0.44229 0.57231 0.0
C474 C 0.65388 0.45211 0.60719 0.0
C475 C 0.55574 0.39201 0.597 0.0
H476 H 0.66376 0.34133 0.63378 0.0
H477 H 0.62193 0.39567 0.70239 0.0
H478 H 0.61812 0.36797 0.57232 0.0
H479 H 0.65454 0.38547 0.57438 0.0
H480 H 0.65061 0.34579 0.58225 0.0
H481 H 0.58775 0.43407 0.69123 0.0
H482 H 0.60131 0.45497 0.65908 0.0
H483 H 0.56863 0.43137 0.65538 0.0
H484 H 0.62314 0.49066 0.57211 0.0
H485 H 0.54035 0.44061 0.56425 0.0
H486 H 0.66764 0.43177 0.60263 0.0
H487 H 0.65285 0.45521 0.63205 0.0
H488 H 0.66551 0.47199 0.59724 0.0
H489 H 0.56928 0.37135 0.60036 0.0
H490 H 0.53919 0.38779 0.57861 0.0
H491 H 0.54296 0.39643 0.61811 0.0
C492 C 0.90296 0.65616 0.18238 0.0
C493 C 0.88248 0.6784 0.17345 0.0
C494 C 0.917 0.6374 0.16106 0.0
C495 C 0.91049 0.64094 0.12999 0.0
C496 C 0.89095 0.66426 0.1207 0.0
C497 C 0.87702 0.68262 0.14254 0.0
C498 C 0.93782 0.6129 0.17193 0.0
C499 C 0.88429 0.66937 0.08774 0.0
C500 C 0.96266 0.59687 0.07782 0.0
C501 C 0.94601 0.57024 0.07352 0.0
C502 C 0.95065 0.62112 0.09442 0.0
C503 C 0.92172 0.61817 0.10786 0.0
C504 C 0.90446 0.59172 0.10259 0.0
C505 C 0.91678 0.56816 0.08547 0.0
C506 C 0.96979 0.64901 0.09886 0.0
C507 C 0.87352 0.58757 0.11639 0.0
H508 H 0.90712 0.65259 0.20621 0.0
H509 H 0.86164 0.70013 0.13547 0.0
H510 H 0.92796 0.59047 0.1665 0.0
H511 H 0.95986 0.61453 0.16012 0.0
H512 H 0.94183 0.61417 0.19667 0.0
H513 H 0.87061 0.68992 0.084 0.0
H514 H 0.90574 0.67155 0.07502 0.0
H515 H 0.87194 0.64963 0.07834 0.0
H516 H 0.98549 0.59838 0.06915 0.0
H517 H 0.90381 0.54761 0.08216 0.0
H518 H 0.98372 0.64626 0.11945 0.0
H519 H 0.95586 0.66952 0.1018 0.0
H520 H 0.98531 0.65245 0.07942 0.0
H521 H 0.87549 0.58668 0.14136 0.0
H522 H 0.86225 0.56654 0.10848 0.0
H523 H 0.85892 0.60699 0.11082 0.0
C524 C 0.39217 0.16225 0.17808 0.0
C525 C 0.36147 0.15914 0.17083 0.0
C526 C 0.41425 0.14551 0.16261 0.0
C527 C 0.40541 0.12546 0.13924 0.0
C528 C 0.37439 0.12122 0.13287 0.0
C529 C 0.35285 0.13798 0.1488 0.0
C530 C 0.44707 0.1503 0.17036 0.0
C531 C 0.36396 0.09986 0.1083 0.0
C532 C 0.45513 0.11058 0.07136 0.0
C533 C 0.46359 0.08055 0.07592 0.0
C534 C 0.43754 0.12598 0.09266 0.0
C535 C 0.42831 0.11103 0.11934 0.0
C536 C 0.4383 0.08127 0.12492 0.0
C537 C 0.45537 0.06616 0.10283 0.0
C538 C 0.4274 0.15767 0.08574 0.0
C539 C 0.42957 0.06465 0.15331 0.0
H540 H 0.39905 0.17854 0.19507 0.0
H541 H 0.32914 0.13484 0.14364 0.0
H542 H 0.45935 0.12856 0.17027 0.0
H543 H 0.45772 0.16496 0.15309 0.0
H544 H 0.44988 0.16127 0.19278 0.0
H545 H 0.33898 0.09809 0.10711 0.0
H546 H 0.3725 0.10774 0.0861 0.0
H547 H 0.37327 0.07704 0.11216 0.0
H548 H 0.46147 0.12177 0.05054 0.0
H549 H 0.46104 0.04267 0.10605 0.0
H550 H 0.43255 0.17293 0.10498 0.0
H551 H 0.40259 0.15784 0.08242 0.0
H552 H 0.43833 0.16684 0.06511 0.0
H553 H 0.42863 0.0801 0.17305 0.0
H554 H 0.44565 0.0462 0.15828 0.0
H555 H 0.40683 0.05451 0.15031 0.0
C556 C 0.18556 0.90796 0.654 0.0
C557 C 0.17776 0.88657 0.67593 0.0
C558 C 0.16339 0.92389 0.63833 0.0
C559 C 0.13255 0.91863 0.64498 0.0
C560 C 0.12454 0.89851 0.66849 0.0
C561 C 0.14728 0.88261 0.68364 0.0
C562 C 0.173 0.94511 0.61345 0.0
C563 C 0.09209 0.89217 0.67678 0.0
C564 C 0.08267 0.97583 0.60626 0.0
C565 C 0.07513 0.9603 0.57968 0.0
C566 C 0.09905 0.96163 0.62927 0.0
C567 C 0.10926 0.93172 0.62484 0.0
C568 C 0.10035 0.91552 0.59871 0.0
C569 C 0.0833 0.92998 0.57652 0.0
C570 C 0.10687 0.97939 0.65733 0.0
C571 C 0.11038 0.88345 0.5933 0.0
H572 H 0.20912 0.91169 0.64849 0.0
H573 H 0.14103 0.86613 0.70058 0.0
H574 H 0.16425 0.93676 0.59145 0.0
H575 H 0.16332 0.9678 0.61738 0.0
H576 H 0.19791 0.94737 0.61175 0.0
H577 H 0.08965 0.89043 0.70169 0.0
H578 H 0.07641 0.90965 0.66844 0.0
H579 H 0.08524 0.8701 0.66699 0.0
H580 H 0.07711 0.99948 0.60851 0.0
H581 H 0.07735 0.91787 0.55603 0.0
H582 H 0.12868 0.99125 0.65381 0.0
H583 H 0.10916 0.96453 0.67728 0.0
H584 H 0.08945 0.99667 0.66223 0.0
H585 H 0.13533 0.88278 0.59124 0.0
H586 H 0.10039 0.87357 0.57247 0.0
H587 H 0.10392 0.86913 0.61277 0.0
C588 C 0.86563 0.35011 0.88798 0.0
C589 C 0.85609 0.36329 0.8609 0.0
C590 C 0.88569 0.36524 0.90737 0.0
C591 C 0.89643 0.39433 0.89959 0.0
C592 C 0.88835 0.40701 0.87147 0.0
C593 C 0.86818 0.39138 0.85249 0.0
C594 C 0.89412 0.35076 0.93696 0.0
C595 C 0.89977 0.43774 0.86214 0.0
C596 C 0.91199 0.4463 0.96604 0.0
C597 C 0.94347 0.44541 0.96796 0.0
C598 C 0.89658 0.43037 0.94337 0.0
C599 C 0.91306 0.41271 0.9224 0.0
C600 C 0.94496 0.41171 0.92431 0.0
C601 C 0.95979 0.42816 0.94715 0.0
C602 C 0.86258 0.43213 0.94214 0.0
C603 C 0.96338 0.3932 0.90245 0.0
H604 H 0.85629 0.32854 0.89478 0.0
H605 H 0.86135 0.40146 0.83134 0.0
H606 H 0.91893 0.35157 0.94019 0.0
H607 H 0.88373 0.36347 0.9559 0.0
H608 H 0.88647 0.32689 0.93825 0.0
H609 H 0.8944 0.44283 0.83821 0.0
H610 H 0.88931 0.45525 0.87668 0.0
H611 H 0.92455 0.4394 0.8653 0.0
H612 H 0.89942 0.45964 0.98227 0.0
H613 H 0.98404 0.42677 0.94942 0.0
H614 H 0.85263 0.40941 0.94574 0.0
H615 H 0.8553 0.43987 0.91951 0.0
H616 H 0.85327 0.44773 0.95945 0.0
H617 H 0.95369 0.37021 0.89988 0.0
H618 H 0.98727 0.39124 0.90968 0.0
H619 H 0.96292 0.40403 0.87994 0.0
C620 C 0.65587 0.68694 0.38123 0.0
C621 C 0.6698 0.67482 0.35547 0.0
C622 C 0.63461 0.67021 0.39767 0.0
C623 C 0.6271 0.64061 0.38816 0.0
C624 C 0.63903 0.62928 0.36072 0.0
C625 C 0.66037 0.64652 0.34467 0.0
C626 C 0.6217 0.68347 0.42633 0.0
C627 C 0.63059 0.59826 0.34935 0.0
C628 C 0.61217 0.58806 0.45361 0.0
C629 C 0.58064 0.58681 0.45431 0.0
C630 C 0.62743 0.60434 0.43124 0.0
C631 C 0.61071 0.62024 0.40926 0.0
C632 C 0.57877 0.61835 0.40936 0.0
C633 C 0.56407 0.60158 0.43197 0.0
C634 C 0.6615 0.60544 0.43184 0.0
C635 C 0.55988 0.6353 0.38689 0.0
H636 H 0.66248 0.70916 0.38919 0.0
H637 H 0.67089 0.63711 0.32465 0.0
H638 H 0.59682 0.68063 0.42672 0.0
H639 H 0.63089 0.67131 0.44612 0.0
H640 H 0.6272 0.70782 0.42884 0.0
H641 H 0.63855 0.59428 0.32588 0.0
H642 H 0.64069 0.58096 0.36424 0.0
H643 H 0.60575 0.59514 0.35013 0.0
H644 H 0.62495 0.57648 0.47086 0.0
H645 H 0.53964 0.60115 0.43296 0.0
H646 H 0.66923 0.62882 0.43664 0.0
H647 H 0.67075 0.59887 0.40948 0.0
H648 H 0.6711 0.5903 0.44925 0.0
H649 H 0.5547 0.65794 0.39624 0.0
H650 H 0.53812 0.62349 0.3827 0.0
H651 H 0.57179 0.63844 0.36509 0.0
C652 C 0.14016 0.34691 0.13295 0.0
C653 C 0.16235 0.35703 0.15317 0.0
C654 C 0.12156 0.36728 0.11776 0.0
C655 C 0.12527 0.39864 0.12279 0.0
C656 C 0.14855 0.40911 0.14215 0.0
C657 C 0.16682 0.38814 0.15714 0.0
C658 C 0.09709 0.35515 0.09727 0.0
C659 C 0.15332 0.44225 0.1485 0.0
C660 C 0.08441 0.4474 0.06585 0.0
C661 C 0.05753 0.45374 0.08124 0.0
C662 C 0.10763 0.43119 0.07981 0.0
C663 C 0.10325 0.41994 0.10938 0.0
C664 C 0.0764 0.42685 0.12525 0.0
C665 C 0.05389 0.44371 0.111 0.0
C666 C 0.13629 0.42514 0.06244 0.0
C667 C 0.07099 0.41553 0.15692 0.0
H668 H 0.13698 0.3229 0.1294 0.0
H669 H 0.18381 0.39612 0.1729 0.0
H670 H 0.07464 0.36138 0.10643 0.0
H671 H 0.09911 0.36535 0.07453 0.0
H672 H 0.09797 0.33022 0.09486 0.0
H673 H 0.17749 0.44725 0.15302 0.0
H674 H 0.1456 0.45659 0.12961 0.0
H675 H 0.14032 0.44858 0.16897 0.0
H676 H 0.08693 0.45417 0.04252 0.0
H677 H 0.03312 0.44858 0.12298 0.0
H678 H 0.13596 0.40157 0.05395 0.0
H679 H 0.15631 0.42776 0.07724 0.0
H680 H 0.13883 0.4405 0.04282 0.0
H681 H 0.07049 0.39049 0.15688 0.0
H682 H 0.04942 0.42384 0.16657 0.0
H683 H 0.08974 0.4228 0.17188 0.0
C684 C 0.67835 0.15519 0.8933 0.0
C685 C 0.66281 0.16674 0.86836 0.0
C686 C 0.66479 0.13408 0.91268 0.0
C687 C 0.63498 0.12392 0.90687 0.0
C688 C 0.61953 0.13479 0.88114 0.0
C689 C 0.63366 0.15591 0.86218 0.0
C690 C 0.68249 0.12312 0.93947 0.0
C691 C 0.58748 0.12522 0.87436 0.0
C692 C 0.59667 0.05571 0.94296 0.0
C693 C 0.57885 0.06979 0.96494 0.0
C694 C 0.61659 0.07279 0.92487 0.0
C695 C 0.6185 0.1045 0.92898 0.0
C696 C 0.60176 0.11833 0.95245 0.0
C697 C 0.58208 0.10082 0.97 0.0
C698 C 0.63446 0.05723 0.90041 0.0
C699 C 0.60311 0.15198 0.95775 0.0
H700 H 0.70082 0.16352 0.8984 0.0
H701 H 0.62164 0.16432 0.84269 0.0
H702 H 0.66811 0.12142 0.95991 0.0
H703 H 0.69145 0.10044 0.93413 0.0
H704 H 0.70195 0.13814 0.94471 0.0
H705 H 0.57915 0.13464 0.85274 0.0
H706 H 0.58576 0.10028 0.87324 0.0
H707 H 0.57238 0.13291 0.89284 0.0
H708 H 0.59389 0.03172 0.93889 0.0
H709 H 0.56804 0.11167 0.98689 0.0
H710 H 0.65878 0.06275 0.90288 0.0
H711 H 0.62732 0.06551 0.87794 0.0
H712 H 0.63142 0.03237 0.9009 0.0
H713 H 0.62686 0.15951 0.96052 0.0
H714 H 0.59012 0.15894 0.97808 0.0
H715 H 0.5938 0.16386 0.93785 0.0
C716 C 0.86547 0.90001 0.37665 0.0
C717 C 0.87018 0.86913 0.38131 0.0
C718 C 0.88213 0.92178 0.39278 0.0
C719 C 0.9043 0.91241 0.41368 0.0
C720 C 0.90844 0.88125 0.4191 0.0
C721 C 0.89128 0.86002 0.40293 0.0
C722 C 0.8763 0.95475 0.38723 0.0
C723 C 0.93182 0.87028 0.44119 0.0
C724 C 0.9747 0.95889 0.4282 0.0
C725 C 0.96994 0.96914 0.45779 0.0
C726 C 0.95278 0.94171 0.41306 0.0
C727 C 0.92527 0.9347 0.4278 0.0
C728 C 0.91963 0.94642 0.45709 0.0
C729 C 0.9423 0.96305 0.47198 0.0
C730 C 0.95977 0.92974 0.38185 0.0
C731 C 0.89044 0.94015 0.47352 0.0
H732 H 0.84878 0.90711 0.36034 0.0
H733 H 0.89514 0.83617 0.40646 0.0
H734 H 0.87061 0.966 0.40889 0.0
H735 H 0.89696 0.96576 0.37825 0.0
H736 H 0.85756 0.95837 0.37105 0.0
H737 H 0.93129 0.84538 0.44383 0.0
H738 H 0.95467 0.87708 0.43338 0.0
H739 H 0.92816 0.88083 0.46365 0.0
H740 H 0.99603 0.9636 0.41712 0.0
H741 H 0.93872 0.97047 0.49505 0.0
H742 H 0.94132 0.93543 0.366 0.0
H743 H 0.96138 0.90478 0.38256 0.0
H744 H 0.9813 0.93892 0.37275 0.0
H745 H 0.87112 0.93844 0.45772 0.0
H746 H 0.8856 0.95804 0.49047 0.0
H747 H 0.8923 0.91838 0.48561 0.0
C748 C 0.36185 0.6534 0.64728 0.0
C749 C 0.36764 0.6843 0.6437 0.0
C750 C 0.37863 0.63182 0.63124 0.0
C751 C 0.40171 0.64143 0.61126 0.0
C752 C 0.40631 0.67262 0.60621 0.0
C753 C 0.38925 0.69365 0.62251 0.0
C754 C 0.3726 0.59881 0.63674 0.0
C755 C 0.43025 0.68382 0.58463 0.0
C756 C 0.47277 0.59593 0.59946 0.0
C757 C 0.46875 0.5848 0.57009 0.0
C758 C 0.45036 0.61308 0.61366 0.0
C759 C 0.42326 0.61938 0.59806 0.0
C760 C 0.4185 0.60705 0.56889 0.0
C761 C 0.44152 0.59024 0.55507 0.0
C762 C 0.45623 0.62551 0.64493 0.0
C763 C 0.38986 0.61276 0.55152 0.0
H764 H 0.34515 0.64604 0.66362 0.0
H765 H 0.3933 0.71755 0.61916 0.0
H766 H 0.37199 0.58632 0.61502 0.0
H767 H 0.39116 0.58932 0.65046 0.0
H768 H 0.35097 0.59497 0.64886 0.0
H769 H 0.42943 0.70866 0.58155 0.0
H770 H 0.4529 0.67781 0.5933 0.0
H771 H 0.42754 0.67278 0.56227 0.0
H772 H 0.49375 0.59163 0.61119 0.0
H773 H 0.4385 0.58207 0.53217 0.0
H774 H 0.43722 0.61977 0.66022 0.0
H775 H 0.45787 0.65047 0.64397 0.0
H776 H 0.47743 0.61669 0.65482 0.0
H777 H 0.36995 0.61367 0.56669 0.0
H778 H 0.38591 0.59504 0.53412 0.0
H779 H 0.39177 0.63482 0.53992 0.0
C780 C 0.01586 0.95029 0.76456 0.0
C781 C 0.98602 0.95538 0.77363 0.0
C782 C 0.02605 0.95972 0.73598 0.0
C783 C 0.00566 0.97393 0.71603 0.0
C784 C 0.97529 0.97834 0.72501 0.0
C785 C 0.96597 0.96932 0.75382 0.0
C786 C 0.05874 0.95535 0.72767 0.0
C787 C 0.95261 0.99286 0.70427 0.0
C788 C 0.02448 0.0295 0.6546 0.0
C789 C 0.01894 0.01218 0.62867 0.0
C790 C 0.02336 0.01648 0.68336 0.0
C791 C 0.01572 0.9856 0.68619 0.0
C792 C 0.01266 0.96748 0.65991 0.0
C793 C 0.0143 0.98105 0.63133 0.0
C794 C 0.02801 0.03631 0.71075 0.0
C795 C 0.00507 0.93435 0.66194 0.0
H796 H 0.0313 0.93949 0.78003 0.0
H797 H 0.9428 0.97283 0.76083 0.0
H798 H 0.0696 0.93794 0.74192 0.0
H799 H 0.06116 0.94882 0.70363 0.0
H800 H 0.07108 0.97695 0.73093 0.0
H801 H 0.92952 0.99298 0.71404 0.0
H802 H 0.95946 0.01649 0.69961 0.0
H803 H 0.95192 0.98069 0.68232 0.0
H804 H 0.02844 0.05356 0.65244 0.0
H805 H 0.01002 0.96768 0.61122 0.0
H806 H 0.04256 0.0249 0.7275 0.0
H807 H 0.00593 0.04066 0.72173 0.0
H808 H 0.03844 0.05834 0.70479 0.0
H809 H 0.0185 0.92333 0.67985 0.0
H810 H 0.00915 0.92247 0.64018 0.0
H811 H 0.98088 0.93171 0.66796 0.0
C812 C 0.52625 0.09784 0.26355 0.0
C813 C 0.55599 0.09076 0.27136 0.0
C814 C 0.51437 0.0892 0.23538 0.0
C815 C 0.5331 0.07398 0.21438 0.0
C816 C 0.56351 0.0678 0.22196 0.0
C817 C 0.57443 0.07598 0.25046 0.0
C818 C 0.48189 0.09657 0.22868 0.0
C819 C 0.58448 0.052 0.20016 0.0
C820 C 0.51169 0.01745 0.15509 0.0
C821 C 0.51879 0.03342 0.12879 0.0
C822 C 0.51237 0.03168 0.18332 0.0
C823 C 0.52126 0.06229 0.18522 0.0
C824 C 0.52487 0.07934 0.15847 0.0
C825 C 0.52369 0.0646 0.13035 0.0
C826 C 0.50631 0.01329 0.2113 0.0
C827 C 0.53269 0.11244 0.1597 0.0
H828 H 0.51205 0.10952 0.27972 0.0
H829 H 0.59761 0.07104 0.25637 0.0
H830 H 0.48012 0.12111 0.2243 0.0
H831 H 0.47275 0.08412 0.20894 0.0
H832 H 0.46754 0.09157 0.24866 0.0
H833 H 0.60795 0.05078 0.20881 0.0
H834 H 0.57626 0.02868 0.19593 0.0
H835 H 0.58482 0.06394 0.17818 0.0
H836 H 0.50718 0.99342 0.1537 0.0
H837 H 0.52877 0.07699 0.10988 0.0
H838 H 0.49213 0.02621 0.22743 0.0
H839 H 0.52799 0.00827 0.22269 0.0
H840 H 0.49482 0.9916 0.20593 0.0
H841 H 0.51877 0.12407 0.17698 0.0
H842 H 0.52927 0.12352 0.13752 0.0
H843 H 0.55671 0.11515 0.16627 0.0
C844 C 0.47996 0.55231 0.26717 0.0
C845 C 0.48508 0.57964 0.2522 0.0
C846 C 0.49169 0.54726 0.29605 0.0
C847 C 0.50907 0.57009 0.31035 0.0
C848 C 0.51668 0.59658 0.29421 0.0
C849 C 0.50449 0.60112 0.26528 0.0
C850 C 0.48338 0.5184 0.31216 0.0
C851 C 0.53599 0.62094 0.30825 0.0
C852 C 0.49145 0.56779 0.39339 0.0
C853 C 0.51435 0.54914 0.40404 0.0
C854 C 0.49128 0.57756 0.36338 0.0
C855 C 0.51443 0.568 0.34348 0.0
C856 C 0.53925 0.55165 0.35502 0.0
C857 C 0.53886 0.54224 0.38534 0.0
C858 C 0.46464 0.59547 0.35232 0.0
C859 C 0.56468 0.54147 0.33484 0.0
H860 H 0.46557 0.53535 0.2568 0.0
H861 H 0.50867 0.62224 0.25373 0.0
H862 H 0.50373 0.50794 0.32209 0.0
H863 H 0.46758 0.5235 0.33094 0.0
H864 H 0.4724 0.50174 0.29686 0.0
H865 H 0.54363 0.6378 0.29135 0.0
H866 H 0.52291 0.63281 0.326 0.0
H867 H 0.55607 0.61093 0.31914 0.0
H868 H 0.47252 0.57298 0.40803 0.0
H869 H 0.55649 0.52764 0.39371 0.0
H870 H 0.4501 0.58082 0.338 0.0
H871 H 0.4723 0.61469 0.33826 0.0
H872 H 0.45077 0.60435 0.37125 0.0
H873 H 0.5581 0.52007 0.32349 0.0
H874 H 0.58553 0.53728 0.34804 0.0
H875 H 0.56969 0.55833 0.31706 0.0
C876 C 0.02896 0.42306 0.77844 0.0
C877 C 0.05526 0.43886 0.77025 0.0
C878 C 0.01414 0.42919 0.8059 0.0
C879 C 0.02608 0.45149 0.82557 0.0
C880 C 0.05209 0.46808 0.81689 0.0
C881 C 0.06624 0.46161 0.78938 0.0
C882 C 0.98642 0.41111 0.81419 0.0
C883 C 0.06548 0.49233 0.83697 0.0
C884 C 0.98964 0.49396 0.88938 0.0
C885 C 0.00526 0.48193 0.91391 0.0
C886 C 0.99292 0.48149 0.86037 0.0
C887 C 0.0129 0.45705 0.85599 0.0
C888 C 0.02588 0.44279 0.88137 0.0
C889 C 0.02211 0.45563 0.91009 0.0
C890 C 0.97789 0.49675 0.83405 0.0
C891 C 0.04671 0.41623 0.87782 0.0
H892 H 0.02042 0.40536 0.76376 0.0
H893 H 0.08612 0.47437 0.78284 0.0
H894 H 0.99277 0.39327 0.83043 0.0
H895 H 0.96921 0.42551 0.82525 0.0
H896 H 0.97615 0.40005 0.79411 0.0
H897 H 0.0853 0.50363 0.82649 0.0
H898 H 0.04829 0.5097 0.84213 0.0
H899 H 0.07269 0.48236 0.85873 0.0
H900 H 0.97687 0.51455 0.89242 0.0
H901 H 0.03451 0.44666 0.9291 0.0
H902 H 0.96991 0.4799 0.81723 0.0
H903 H 0.99446 0.51172 0.82264 0.0
H904 H 0.95845 0.51066 0.84148 0.0
H905 H 0.0374 0.39973 0.86136 0.0
H906 H 0.05054 0.4046 0.89965 0.0
H907 H 0.06883 0.42418 0.86905 0.0
C908 C 0.74233 0.97696 0.92654 0.0
C909 C 0.76811 0.97782 0.94476 0.0
C910 C 0.71408 0.98518 0.93814 0.0
C911 C 0.71155 0.99384 0.96885 0.0
C912 C 0.73787 0.99665 0.98676 0.0
C913 C 0.76594 0.98877 0.9744 0.0
C914 C 0.68669 0.98241 0.91812 0.0
C915 C 0.73616 0.00544 0.01968 0.0
C916 C 0.6362 0.02241 0.99891 0.0
C917 C 0.62351 0.99575 0.01003 0.0
C918 C 0.66499 0.02232 0.98545 0.0
C919 C 0.68126 0.99498 0.9833 0.0
C920 C 0.66847 0.96807 0.99476 0.0
C921 C 0.63982 0.96882 0.00795 0.0
C922 C 0.67808 0.0514 0.97382 0.0
C923 C 0.68505 0.93841 0.99316 0.0
H924 H 0.7441 0.96878 0.90349 0.0
H925 H 0.78589 0.98929 0.98854 0.0
H926 H 0.67428 0.96135 0.9237 0.0
H927 H 0.67115 0.00153 0.92198 0.0
H928 H 0.69291 0.98166 0.89382 0.0
H929 H 0.75871 0.01115 0.02909 0.0
H930 H 0.72101 0.025 0.02297 0.0
H931 H 0.72661 0.98635 0.0328 0.0
H932 H 0.62401 0.04336 0.00145 0.0
H933 H 0.63001 0.9481 0.01658 0.0
H934 H 0.68553 0.04847 0.95008 0.0
H935 H 0.69825 0.05777 0.98723 0.0
H936 H 0.66157 0.07006 0.97513 0.0
H937 H 0.68944 0.93228 0.96925 0.0
H938 H 0.67219 0.91971 0.00388 0.0
H939 H 0.70723 0.94051 0.00458 0.0
C940 C 0.80945 0.08916 0.42843 0.0
C941 C 0.78354 0.07077 0.42913 0.0
C942 C 0.83711 0.07898 0.43958 0.0
C943 C 0.83957 0.04894 0.44989 0.0
C944 C 0.81466 0.02907 0.44708 0.0
C945 C 0.78671 0.04038 0.4376 0.0
C946 C 0.86311 0.10103 0.44206 0.0
C947 C 0.81693 0.99623 0.45555 0.0
C948 C 0.92053 0.03066 0.47021 0.0
C949 C 0.91994 0.03465 0.5016 0.0
C950 C 0.89398 0.03245 0.45309 0.0
C951 C 0.86654 0.0401 0.46761 0.0
C952 C 0.86572 0.04317 0.49946 0.0
C953 C 0.89231 0.03985 0.51605 0.0
C954 C 0.89612 0.02785 0.41941 0.0
C955 C 0.83727 0.0523 0.51592 0.0
H956 H 0.808 0.11209 0.42027 0.0
H957 H 0.76724 0.02555 0.43814 0.0
H958 H 0.87103 0.10242 0.4658 0.0
H959 H 0.88227 0.09315 0.42806 0.0
H960 H 0.85693 0.12406 0.43454 0.0
H961 H 0.80089 0.98226 0.44216 0.0
H962 H 0.84008 0.98753 0.45198 0.0
H963 H 0.81106 0.99346 0.47974 0.0
H964 H 0.9419 0.02746 0.45876 0.0
H965 H 0.89176 0.04301 0.54034 0.0
H966 H 0.90537 0.04858 0.40884 0.0
H967 H 0.87395 0.02259 0.40901 0.0
H968 H 0.91207 0.00931 0.41414 0.0
H969 H 0.82908 0.07416 0.50706 0.0
H970 H 0.84076 0.05465 0.54066 0.0
H971 H 0.81925 0.03531 0.51206 0.0
C972 C 0.23111 0.57018 0.07811 0.0
C973 C 0.25269 0.55087 0.09034 0.0
C974 C 0.20252 0.55945 0.06987 0.0
C975 C 0.19546 0.52847 0.07355 0.0
C976 C 0.21689 0.50897 0.08677 0.0
C977 C 0.2453 0.52049 0.09521 0.0
C978 C 0.18022 0.58117 0.0563 0.0
C979 C 0.21052 0.47579 0.09075 0.0
C980 C 0.11163 0.51556 0.06399 0.0
C981 C 0.11 0.51171 0.03262 0.0
C982 C 0.13973 0.518 0.07849 0.0
C983 C 0.16653 0.51674 0.06106 0.0
C984 C 0.16485 0.50964 0.02993 0.0
C985 C 0.13657 0.50748 0.01603 0.0
C986 C 0.14054 0.52471 0.11189 0.0
C987 C 0.19288 0.50703 0.01072 0.0
H988 H 0.23674 0.59377 0.07479 0.0
H989 H 0.26208 0.50556 0.10467 0.0
H990 H 0.17575 0.57484 0.03245 0.0
H991 H 0.15845 0.57999 0.06865 0.0
H992 H 0.18852 0.60486 0.05688 0.0
H993 H 0.21553 0.4638 0.0693 0.0
H994 H 0.22479 0.46593 0.10876 0.0
H995 H 0.1865 0.47163 0.09631 0.0
H996 H 0.09107 0.51871 0.07688 0.0
H997 H 0.13527 0.50401 0.99181 0.0
H998 H 0.14321 0.54939 0.11532 0.0
H999 H 0.15993 0.51347 0.12286 0.0
H1000 H 0.11938 0.51736 0.12323 0.0
H1001 H 0.2029 0.52978 0.00738 0.0
H1002 H 0.18797 0.49708 0.98818 0.0
H1003 H 0.20999 0.49295 0.02215 0.0
C1004 C 0.28578 0.5124 0.60042 0.0
C1005 C 0.28284 0.48178 0.60805 0.0
C1006 C 0.31345 0.52425 0.59025 0.0
C1007 C 0.33844 0.50479 0.58657 0.0
C1008 C 0.33619 0.4745 0.59638 0.0
C1009 C 0.30872 0.46369 0.60775 0.0
C1010 C 0.31486 0.55719 0.58188 0.0
C1011 C 0.36208 0.45273 0.59281 0.0
C1012 C 0.38897 0.51421 0.51859 0.0
C1013 C 0.41729 0.51833 0.53201 0.0
C1014 C 0.36283 0.51163 0.53615 0.0
C1015 C 0.36492 0.51397 0.568 0.0
C1016 C 0.39314 0.5208 0.58151 0.0
C1017 C 0.41913 0.52227 0.56336 0.0
C1018 C 0.33334 0.50429 0.52062 0.0
C1019 C 0.39667 0.5249 0.61514 0.0
H1020 H 0.26621 0.52692 0.60085 0.0
H1021 H 0.30721 0.44045 0.61509 0.0
H1022 H 0.33798 0.56512 0.57642 0.0
H1023 H 0.30005 0.56124 0.56213 0.0
H1024 H 0.30596 0.57105 0.60081 0.0
H1025 H 0.35589 0.42942 0.59967 0.0
H1026 H 0.36976 0.45213 0.56893 0.0
H1027 H 0.3814 0.46028 0.60682 0.0
H1028 H 0.38744 0.51144 0.4943 0.0
H1029 H 0.44099 0.52509 0.57395 0.0
H1030 H 0.31688 0.52255 0.52493 0.0
H1031 H 0.32365 0.48308 0.52982 0.0
H1032 H 0.33596 0.50164 0.4958 0.0
H1033 H 0.37495 0.52967 0.62663 0.0
H1034 H 0.41275 0.54363 0.61993 0.0
H1035 H 0.40651 0.5042 0.62495 0.0
C1036 C 0.93011 0.73203 0.95033 0.0
C1037 C 0.93136 0.75726 0.96955 0.0
C1038 C 0.93853 0.7034 0.96041 0.0
C1039 C 0.94738 0.69954 0.99084 0.0
C1040 C 0.94588 0.72422 0.01113 0.0
C1041 C 0.93841 0.75292 1.00016 0.0
C1042 C 0.9397 0.67768 0.93796 0.0
C1043 C 0.95369 0.72088 0.04409 0.0
C1044 C 0.95926 0.61686 0.00913 0.0
C1045 C 0.99044 0.61436 0.00467 0.0
C1046 C 0.94499 0.64503 0.00742 0.0
C1047 C 0.96223 0.67095 0.9998 0.0
C1048 C 0.99393 0.66865 0.99677 0.0
C1049 C 0.00762 0.64047 0.99958 0.0
C1050 C 0.91131 0.64634 0.01197 0.0
C1051 C 0.01322 0.69553 0.9883 0.0
H1052 H 0.92344 0.73478 0.92698 0.0
H1053 H 0.93937 0.77206 0.01542 0.0
H1054 H 0.9632 0.66935 0.93596 0.0
H1055 H 0.92551 0.65864 0.94595 0.0
H1056 H 0.93179 0.68438 0.91518 0.0
H1057 H 0.94106 0.73734 0.05816 0.0
H1058 H 0.94873 0.6978 0.05233 0.0
H1059 H 0.97812 0.72541 0.04729 0.0
H1060 H 0.94577 0.59671 0.01262 0.0
H1061 H 0.03179 0.63863 0.99628 0.0
H1062 H 0.89987 0.63968 0.99068 0.0
H1063 H 0.90361 0.66923 0.01844 0.0
H1064 H 0.90411 0.6301 0.02966 0.0
H1065 H 0.00622 0.70412 0.96587 0.0
H1066 H 0.03761 0.68998 0.98729 0.0
H1067 H 0.01006 0.71403 0.00489 0.0
C1068 C 0.42312 0.77786 0.03316 0.0
C1069 C 0.41637 0.77395 0.06396 0.0
C1070 C 0.43246 0.80602 0.02194 0.0
C1071 C 0.43642 0.83051 0.04217 0.0
C1072 C 0.42757 0.82731 0.07274 0.0
C1073 C 0.41698 0.79934 0.08301 0.0
C1074 C 0.43986 0.80867 0.98878 0.0
C1075 C 0.43143 0.85275 0.09523 0.0
C1076 C 0.50375 0.88205 0.03353 0.0
C1077 C 0.49008 0.9102 0.03 0.0
C1078 C 0.4865 0.85565 0.03558 0.0
C1079 C 0.4547 0.85732 0.03329 0.0
C1080 C 0.44096 0.88536 0.02678 0.0
C1081 C 0.45882 0.91167 0.02577 0.0
C1082 C 0.50228 0.82639 0.04268 0.0
C1083 C 0.40734 0.88827 0.02278 0.0
H1084 H 0.4226 0.75873 0.0179 0.0
H1085 H 0.41037 0.79714 0.10646 0.0
H1086 H 0.43994 0.8324 0.981 0.0
H1087 H 0.46244 0.7989 0.98444 0.0
H1088 H 0.42333 0.79561 0.97508 0.0
H1089 H 0.4236 0.8465 0.11823 0.0
H1090 H 0.45558 0.85942 0.09657 0.0
H1091 H 0.41861 0.87275 0.08777 0.0
H1092 H 0.52799 0.88089 0.03654 0.0
H1093 H 0.44811 0.93343 0.0233 0.0
H1094 H 0.4973 0.8094 0.02493 0.0
H1095 H 0.49386 0.81729 0.06446 0.0
H1096 H 0.52715 0.82916 0.04424 0.0
H1097 H 0.39659 0.86663 0.01597 0.0
H1098 H 0.40222 0.90566 0.00557 0.0
H1099 H 0.39708 0.89586 0.04435 0.0
C1100 C 0.10481 0.26699 0.52223 0.0
C1101 C 0.09725 0.27629 0.55155 0.0
C1102 C 0.09699 0.23793 0.51188 0.0
C1103 C 0.08188 0.2178 0.53163 0.0
C1104 C 0.07514 0.22699 0.56157 0.0
C1105 C 0.08263 0.25621 0.57102 0.0
C1106 C 0.104 0.22922 0.47968 0.0
C1107 C 0.05953 0.20612 0.58361 0.0
C1108 C 0.02727 0.15574 0.51258 0.0
C1109 C 0.04392 0.13034 0.52075 0.0
C1110 C 0.04063 0.18441 0.51224 0.0
C1111 C 0.0711 0.18772 0.52117 0.0
C1112 C 0.08881 0.16171 0.52633 0.0
C1113 C 0.07492 0.13315 0.52605 0.0
C1114 C 0.02124 0.2114 0.50542 0.0
C1115 C 0.12151 0.16417 0.53535 0.0
H1116 H 0.1162 0.28265 0.50726 0.0
H1117 H 0.07727 0.26339 0.59384 0.0
H1118 H 0.11275 0.20591 0.47844 0.0
H1119 H 0.08296 0.22985 0.46616 0.0
H1120 H 0.12071 0.24476 0.46922 0.0
H1121 H 0.05779 0.2161 0.6066 0.0
H1122 H 0.03642 0.20084 0.5755 0.0
H1123 H 0.07194 0.18452 0.5852 0.0
H1124 H 0.00332 0.15337 0.50809 0.0
H1125 H 0.08776 0.11338 0.53226 0.0
H1126 H 0.03378 0.22797 0.49143 0.0
H1127 H 0.01495 0.22277 0.52688 0.0
H1128 H 1.00019 0.20484 0.49344 0.0
H1129 H 0.13316 0.18245 0.52281 0.0
H1130 H 0.13364 0.14266 0.53134 0.0
H1131 H 0.12288 0.16967 0.55979 0.0
C1132 C 0.60876 0.30499 0.45309 0.0
C1133 C 0.60586 0.28035 0.47268 0.0
C1134 C 0.59907 0.33375 0.46163 0.0
C1135 C 0.58735 0.33837 0.49102 0.0
C1136 C 0.58754 0.31438 0.51207 0.0
C1137 C 0.59642 0.28549 0.50252 0.0
C1138 C 0.59933 0.35859 0.43835 0.0
C1139 C 0.57674 0.31827 0.54417 0.0
C1140 C 0.57041 0.42124 0.50378 0.0
C1141 C 0.53941 0.4218 0.49778 0.0
C1142 C 0.58616 0.39387 0.50436 0.0
C1143 C 0.57067 0.36664 0.4975 0.0
C1144 C 0.5391 0.36709 0.49261 0.0
C1145 C 0.52386 0.39462 0.49311 0.0
C1146 C 0.61956 0.39483 0.51076 0.0
C1147 C 0.52161 0.33871 0.48497 0.0
H1148 H 0.61735 0.30151 0.43042 0.0
H1149 H 0.59444 0.26677 0.51807 0.0
H1150 H 0.57613 0.36725 0.43502 0.0
H1151 H 0.61353 0.37764 0.44636 0.0
H1152 H 0.6082 0.35089 0.41616 0.0
H1153 H 0.59307 0.30782 0.55994 0.0
H1154 H 0.57373 0.34222 0.55069 0.0
H1155 H 0.55493 0.30621 0.54708 0.0
H1156 H 0.58267 0.44223 0.50686 0.0
H1157 H 0.49982 0.39499 0.48867 0.0
H1158 H 0.63164 0.40385 0.49075 0.0
H1159 H 0.62887 0.37236 0.51628 0.0
H1160 H 0.62424 0.41054 0.52982 0.0
H1161 H 0.53138 0.3278 0.4646 0.0
H1162 H 0.49736 0.34319 0.48066 0.0
H1163 H 0.52323 0.32246 0.50385 0.0
loop_
_geom_bond_atom_site_label_1
_geom_bond_atom_site_label_2
_geom_bond_distance
_geom_bond_site_symmetry_2
_ccdc_geom_bond_type
C0 C1 1.386 . S
C0 C2 1.397 . S
C0 H24 0.931 . S
C1 C0 1.386 . S
C1 C5 1.397 . S
C2 C0 1.397 . S
C2 C3 1.384 . S
C2 H25 0.930 . S
C3 C2 1.384 . S
C3 C4 1.377 . S
C3 C6 1.481 . S
C4 C3 1.377 . S
C4 C5 1.389 . S
C4 H26 0.929 . S
C5 C1 1.397 . S
C5 C4 1.389 . S
C5 H27 0.931 . S
C6 C3 1.481 . S
C6 C7 1.387 . S
C6 C11 1.390 . S
C7 C6 1.387 . S
C7 C8 1.401 . S
C7 H28 0.930 . S
C8 C7 1.401 . S
C8 C9 1.376 . S
C8 C17 1.511 . S
C9 C8 1.376 . S
C9 C10 1.392 . S
C9 H30 0.931 . S
C10 C9 1.392 . S
C10 C11 1.361 . S
C10 C12 1.500 . S
C11 C6 1.390 . S
C11 C10 1.361 . S
C11 H29 0.931 . S
C12 C10 1.500 . S
C12 C13 1.371 . S
C12 C14 1.365 . S
C13 C12 1.371 . S
C13 C23 1.386 . S
C13 H31 0.931 . S
C14 C12 1.365 . S
C14 C15 1.409 . S
C14 H32 0.929 . S
C15 C14 1.409 . S
C15 C16 1.380 . S
C15 H33 0.930 . S
C16 C15 1.380 . S
C16 C23 1.357 . S
C17 C8 1.511 . S
C17 C18 1.341 . S
C17 C19 1.371 . S
C18 C17 1.341 . S
C18 C22 1.394 . S
C18 H34 0.930 . S
C19 C17 1.371 . S
C19 C20 1.392 . S
C19 H35 0.931 . S
C20 C19 1.392 . S
C20 C21 1.331 . S
C20 H38 0.932 . S
C21 C20 1.331 . S
C21 C22 1.336 . S
C22 C18 1.394 . S
C22 C21 1.336 . S
C22 H37 0.929 . S
C23 C13 1.386 . S
C23 C16 1.357 . S
C23 H36 0.928 . S
H24 C0 0.931 . S
H25 C2 0.930 . S
H26 C4 0.929 . S
H27 C5 0.931 . S
H28 C7 0.930 . S
H29 C11 0.931 . S
H30 C9 0.931 . S
H31 C13 0.931 . S
H32 C14 0.929 . S
H33 C15 0.930 . S
H34 C18 0.930 . S
H35 C19 0.931 . S
H36 C23 0.928 . S
H37 C22 0.929 . S
H38 C20 0.932 . S
C39 C40 1.386 . S
C39 C41 1.397 . S
C39 H63 0.931 . S
C40 C39 1.386 . S
C40 C44 1.397 . S
C41 C39 1.397 . S
C41 C42 1.384 . S
C41 H64 0.930 . S
C42 C41 1.384 . S
C42 C43 1.377 . S
C42 C45 1.481 . S
C43 C42 1.377 . S
C43 C44 1.389 . S
C43 H65 0.929 . S
C44 C40 1.397 . S
C44 C43 1.389 . S
C44 H66 0.931 . S
C45 C42 1.481 . S
C45 C46 1.387 . S
C45 C50 1.390 . S
C46 C45 1.387 . S
C46 C47 1.401 . S
C46 H67 0.930 . S
C47 C46 1.401 . S
C47 C48 1.376 . S
C47 C56 1.511 . S
C48 C47 1.376 . S
C48 C49 1.392 . S
C48 H69 0.931 . S
C49 C48 1.392 . S
C49 C50 1.361 . S
C49 C51 1.500 . S
C50 C45 1.390 . S
C50 C49 1.361 . S
C50 H68 0.931 . S
C51 C49 1.500 . S
C51 C52 1.371 . S
C51 C53 1.365 . S
C52 C51 1.371 . S
C52 C62 1.386 . S
C52 H70 0.931 . S
C53 C51 1.365 . S
C53 C54 1.409 . S
C53 H71 0.929 . S
C54 C53 1.409 . S
C54 C55 1.380 . S
C54 H72 0.930 . S
C55 C54 1.380 . S
C55 C62 1.357 . S
C56 C47 1.511 . S
C56 C57 1.341 . S
C56 C58 1.371 . S
C57 C56 1.341 . S
C57 C61 1.394 . S
C57 H73 0.930 . S
C58 C56 1.371 . S
C58 C59 1.392 . S
C58 H74 0.931 . S
C59 C58 1.392 . S
C59 C60 1.331 . S
C59 H77 0.932 . S
C60 C59 1.331 . S
C60 C61 1.336 . S
C61 C57 1.394 . S
C61 C60 1.336 . S
C61 H76 0.929 . S
C62 C52 1.386 . S
C62 C55 1.357 . S
C62 H75 0.928 . S
H63 C39 0.931 . S
H64 C41 0.930 . S
H65 C43 0.929 . S
H66 C44 0.931 . S
H67 C46 0.930 . S
H68 C50 0.931 . S
H69 C48 0.931 . S
H70 C52 0.931 . S
H71 C53 0.929 . S
H72 C54 0.930 . S
H73 C57 0.930 . S
H74 C58 0.931 . S
H75 C62 0.928 . S
H76 C61 0.929 . S
H77 C59 0.932 . S
C78 C79 1.386 . S
C78 C80 1.397 . S
C78 H102 0.931 . S
C79 C78 1.386 . S
C79 C83 1.397 . S
C80 C78 1.397 . S
C80 C81 1.384 . S
C80 H103 0.930 . S
C81 C80 1.384 . S
C81 C82 1.377 . S
C81 C84 1.481 . S
C82 C81 1.377 . S
C82 C83 1.389 . S
C82 H104 0.929 . S
C83 C79 1.397 . S
C83 C82 1.389 . S
C83 H105 0.931 . S
C84 C81 1.481 . S
C84 C85 1.387 . S
C84 C89 1.390 . S
C85 C84 1.387 . S
C85 C86 1.401 . S
C85 H106 0.930 . S
C86 C85 1.401 . S
C86 C87 1.376 . S
C86 C95 1.511 . S
C87 C86 1.376 . S
C87 C88 1.392 . S
C87 H108 0.931 . S
C88 C87 1.392 . S
C88 C89 1.361 . S
C88 C90 1.500 . S
C89 C84 1.390 . S
C89 C88 1.361 . S
C89 H107 0.931 . S
C90 C88 1.500 . S
C90 C91 1.371 . S
C90 C92 1.365 . S
C91 C90 1.371 . S
C91 C101 1.386 . S
C91 H109 0.931 . S
C92 C90 1.365 . S
C92 C93 1.409 . S
C92 H110 0.929 . S
C93 C92 1.409 . S
C93 C94 1.380 . S
C93 H111 0.930 . S
C94 C93 1.380 . S
C94 C101 1.357 . S
C95 C86 1.511 . S
C95 C96 1.341 . S
C95 C97 1.371 . S
C96 C95 1.341 . S
C96 C100 1.394 . S
C96 H112 0.930 . S
C97 C95 1.371 . S
C97 C98 1.392 . S
C97 H113 0.931 . S
C98 C97 1.392 . S
C98 C99 1.331 . S
C98 H116 0.932 . S
C99 C98 1.331 . S
C99 C100 1.336 . S
C100 C96 1.394 . S
C100 C99 1.336 . S
C100 H115 0.929 . S
C101 C91 1.386 . S
C101 C94 1.357 . S
C101 H114 0.928 . S
H102 C78 0.931 . S
H103 C80 0.930 . S
H104 C82 0.929 . S
H105 C83 0.931 . S
H106 C85 0.930 . S
H107 C89 0.931 . S
H108 C87 0.931 . S
H109 C91 0.931 . S
H110 C92 0.929 . S
H111 C93 0.930 . S
H112 C96 0.930 . S
H113 C97 0.931 . S
H114 C101 0.928 . S
H115 C100 0.929 . S
H116 C98 0.932 . S
C117 C118 1.386 . S
C117 C119 1.397 . S
C117 H141 0.931 . S
C118 C117 1.386 . S
C118 C122 1.397 . S
C119 C117 1.397 . S
C119 C120 1.384 . S
C119 H142 0.930 . S
C120 C119 1.384 . S
C120 C121 1.377 . S
C120 C123 1.481 . S
C121 C120 1.377 . S
C121 C122 1.389 . S
C121 H143 0.929 . S
C122 C118 1.397 . S
C122 C121 1.389 . S
C122 H144 0.931 . S
C123 C120 1.481 . S
C123 C124 1.387 . S
C123 C128 1.390 . S
C124 C123 1.387 . S
C124 C125 1.401 . S
C124 H145 0.930 . S
C125 C124 1.401 . S
C125 C126 1.376 . S
C125 C134 1.511 . S
C126 C125 1.376 . S
C126 C127 1.392 . S
C126 H147 0.931 . S
C127 C126 1.392 . S
C127 C128 1.361 . S
C127 C129 1.500 . S
C128 C123 1.390 . S
C128 C127 1.361 . S
C128 H146 0.931 . S
C129 C127 1.500 . S
C129 C130 1.371 . S
C129 C131 1.365 . S
C130 C129 1.371 . S
C130 C140 1.386 . S
C130 H148 0.931 . S
C131 C129 1.365 . S
C131 C132 1.409 . S
C131 H149 0.929 . S
C132 C131 1.409 . S
C132 C133 1.380 . S
C132 H150 0.930 . S
C133 C132 1.380 . S
C133 C140 1.357 . S
C134 C125 1.511 . S
C134 C135 1.341 . S
C134 C136 1.371 . S
C135 C134 1.341 . S
C135 C139 1.394 . S
C135 H151 0.930 . S
C136 C134 1.371 . S
C136 C137 1.392 . S
C136 H152 0.931 . S
C137 C136 1.392 . S
C137 C138 1.331 . S
C137 H155 0.932 . S
C138 C137 1.331 . S
C138 C139 1.336 . S
C139 C135 1.394 . S
C139 C138 1.336 . S
C139 H154 0.929 . S
C140 C130 1.386 . S
C140 C133 1.357 . S
C140 H153 0.928 . S
H141 C117 0.931 . S
H142 C119 0.930 . S
H143 C121 0.929 . S
H144 C122 0.931 . S
H145 C124 0.930 . S
H146 C128 0.931 . S
H147 C126 0.931 . S
H148 C130 0.931 . S
H149 C131 0.929 . S
H150 C132 0.930 . S
H151 C135 0.930 . S
H152 C136 0.931 . S
H153 C140 0.928 . S
H154 C139 0.929 . S
H155 C137 0.932 . S
C156 C157 1.386 . S
C156 C158 1.397 . S
C156 H180 0.931 . S
C157 C156 1.386 . S
C157 C161 1.397 1_565 S
C158 C156 1.397 . S
C158 C159 1.384 . S
C158 H181 0.930 . S
C159 C158 1.384 . S
C159 C160 1.377 . S
C159 C162 1.481 . S
C160 C159 1.377 . S
C160 C161 1.389 1_565 S
C160 H182 0.929 1_565 S
C161 C157 1.397 1_545 S
C161 C160 1.389 1_545 S
C161 H183 0.931 . S
C162 C159 1.481 . S
C162 C163 1.387 . S
C162 C167 1.390 . S
C163 C162 1.387 . S
C163 C164 1.401 . S
C163 H184 0.930 . S
C164 C163 1.401 . S
C164 C165 1.376 . S
C164 C173 1.511 . S
C165 C164 1.376 . S
C165 C166 1.392 . S
C165 H186 0.931 . S
C166 C165 1.392 . S
C166 C167 1.361 . S
C166 C168 1.500 . S
C167 C162 1.390 . S
C167 C166 1.361 . S
C167 H185 0.931 . S
C168 C166 1.500 . S
C168 C169 1.371 . S
C168 C170 1.365 . S
C169 C168 1.371 . S
C169 C179 1.386 . S
C169 H187 0.931 . S
C170 C168 1.365 . S
C170 C171 1.407 1_565 S
C170 H188 0.926 1_565 S
C171 C170 1.407 1_545 S
C171 C172 1.377 1_545 S
C171 H189 0.935 . S
C172 C171 1.377 1_565 S
C172 C179 1.357 . S
C173 C164 1.511 . S
C173 C174 1.341 . S
C173 C175 1.371 . S
C174 C173 1.341 . S
C174 C178 1.394 . S
C174 H190 0.930 . S
C175 C173 1.371 . S
C175 C176 1.392 . S
C175 H191 0.931 . S
C176 C175 1.392 . S
C176 C177 1.331 . S
C176 H194 0.932 1_556 S
C177 C176 1.331 . S
C177 C178 1.336 . S
C178 C174 1.394 . S
C178 C177 1.336 . S
C178 H193 0.929 1_655 S
C179 C169 1.386 . S
C179 C172 1.357 . S
C179 H192 0.928 . S
H180 C156 0.931 . S
H181 C158 0.930 . S
H182 C160 0.929 1_545 S
H183 C161 0.931 . S
H184 C163 0.930 . S
H185 C167 0.931 . S
H186 C165 0.931 . S
H187 C169 0.931 . S
H188 C170 0.926 1_545 S
H189 C171 0.935 . S
H190 C174 0.930 . S
H191 C175 0.931 . S
H192 C179 0.928 . S
H193 C178 0.929 1_455 S
H194 C176 0.932 1_554 S
C195 C196 1.386 . S
C195 C197 1.397 . S
C195 H219 0.931 . S
C196 C195 1.386 . S
C196 C200 1.397 . S
C197 C195 1.397 . S
C197 C198 1.384 . S
C197 H220 0.930 . S
C198 C197 1.384 . S
C198 C199 1.377 . S
C198 C201 1.481 . S
C199 C198 1.377 . S
C199 C200 1.389 . S
C199 H221 0.929 . S
C200 C196 1.397 . S
C200 C199 1.389 . S
C200 H222 0.931 . S
C201 C198 1.481 . S
C201 C202 1.387 . S
C201 C206 1.390 . S
C202 C201 1.387 . S
C202 C203 1.401 . S
C202 H223 0.930 . S
C203 C202 1.401 . S
C203 C204 1.376 . S
C203 C212 1.511 . S
C204 C203 1.376 . S
C204 C205 1.392 . S
C204 H225 0.931 . S
C205 C204 1.392 . S
C205 C206 1.361 . S
C205 C207 1.500 . S
C206 C201 1.390 . S
C206 C205 1.361 . S
C206 H224 0.931 . S
C207 C205 1.500 . S
C207 C208 1.371 . S
C207 C209 1.365 . S
C208 C207 1.371 . S
C208 C218 1.386 . S
C208 H226 0.931 . S
C209 C207 1.365 . S
C209 C210 1.409 . S
C209 H227 0.929 . S
C210 C209 1.409 . S
C210 C211 1.380 . S
C210 H228 0.930 . S
C211 C210 1.380 . S
C211 C218 1.357 . S
C212 C203 1.511 . S
C212 C213 1.341 . S
C212 C214 1.371 . S
C213 C212 1.341 . S
C213 C217 1.394 . S
C213 H229 0.930 . S
C214 C212 1.371 . S
C214 C215 1.392 . S
C214 H230 0.931 . S
C215 C214 1.392 . S
C215 C216 1.331 . S
C215 H233 0.932 . S
C216 C215 1.331 . S
C216 C217 1.336 . S
C217 C213 1.394 . S
C217 C216 1.336 . S
C217 H232 0.929 . S
C218 C208 1.386 . S
C218 C211 1.357 . S
C218 H231 0.928 . S
H219 C195 0.931 . S
H220 C197 0.930 . S
H221 C199 0.929 . S
H222 C200 0.931 . S
H223 C202 0.930 . S
H224 C206 0.931 . S
H225 C204 0.931 . S
H226 C208 0.931 . S
H227 C209 0.929 . S
H228 C210 0.930 . S
H229 C213 0.930 . S
H230 C214 0.931 . S
H231 C218 0.928 . S
H232 C217 0.929 . S
H233 C215 0.932 . S
C234 C235 1.386 . S
C234 C236 1.397 . S
C234 H258 0.931 . S
C235 C234 1.386 . S
C235 C239 1.397 . S
C236 C234 1.397 . S
C236 C237 1.384 . S
C236 H259 0.930 . S
C237 C236 1.384 . S
C237 C238 1.377 . S
C237 C240 1.481 . S
C238 C237 1.377 . S
C238 C239 1.389 . S
C238 H260 0.929 . S
C239 C235 1.397 . S
C239 C238 1.389 . S
C239 H261 0.931 . S
C240 C237 1.481 . S
C240 C241 1.387 . S
C240 C245 1.390 . S
C241 C240 1.387 . S
C241 C242 1.401 . S
C241 H262 0.930 . S
C242 C241 1.401 . S
C242 C243 1.376 . S
C242 C251 1.511 . S
C243 C242 1.376 . S
C243 C244 1.392 . S
C243 H264 0.931 . S
C244 C243 1.392 . S
C244 C245 1.361 . S
C244 C246 1.500 . S
C245 C240 1.390 . S
C245 C244 1.361 . S
C245 H263 0.931 . S
C246 C244 1.500 . S
C246 C247 1.371 . S
C246 C248 1.365 . S
C247 C246 1.371 . S
C247 C257 1.386 . S
C247 H265 0.931 . S
C248 C246 1.365 . S
C248 C249 1.409 . S
C248 H266 0.929 . S
C249 C248 1.409 . S
C249 C250 1.380 . S
C249 H267 0.930 . S
C250 C249 1.380 . S
C250 C257 1.357 . S
C251 C242 1.511 . S
C251 C252 1.341 . S
C251 C253 1.371 . S
C252 C251 1.341 . S
C252 C256 1.394 . S
C252 H268 0.930 . S
C253 C251 1.371 . S
C253 C254 1.392 . S
C253 H269 0.931 . S
C254 C253 1.392 . S
C254 C255 1.331 . S
C254 H272 0.932 . S
C255 C254 1.331 . S
C255 C256 1.336 . S
C256 C252 1.394 . S
C256 C255 1.336 . S
C256 H271 0.929 . S
C257 C247 1.386 . S
C257 C250 1.357 . S
C257 H270 0.928 . S
H258 C234 0.931 . S
H259 C236 0.930 . S
H260 C238 0.929 . S
H261 C239 0.931 . S
H262 C241 0.930 . S
H263 C245 0.931 . S
H264 C243 0.931 . S
H265 C247 0.931 . S
H266 C248 0.929 . S
H267 C249 0.930 . S
H268 C252 0.930 . S
H269 C253 0.931 . S
H270 C257 0.928 . S
H271 C256 0.929 . S
H272 C254 0.932 . S
C273 C274 1.386 . S
C273 C275 1.397 . S
C273 H297 0.931 . S
C274 C273 1.386 . S
C274 C278 1.397 . S
C275 C273 1.397 . S
C275 C276 1.384 . S
C275 H298 0.930 . S
C276 C275 1.384 . S
C276 C277 1.377 . S
C276 C279 1.481 . S
C277 C276 1.377 . S
C277 C278 1.389 . S
C277 H299 0.929 . S
C278 C274 1.397 . S
C278 C277 1.389 . S
C278 H300 0.931 . S
C279 C276 1.481 . S
C279 C280 1.387 . S
C279 C284 1.390 . S
C280 C279 1.387 . S
C280 C281 1.401 . S
C280 H301 0.930 . S
C281 C280 1.401 . S
C281 C282 1.376 . S
C281 C290 1.511 . S
C282 C281 1.376 . S
C282 C283 1.392 . S
C282 H303 0.931 . S
C283 C282 1.392 . S
C283 C284 1.361 . S
C283 C285 1.500 . S
C284 C279 1.390 . S
C284 C283 1.361 . S
C284 H302 0.931 . S
C285 C283 1.500 . S
C285 C286 1.371 . S
C285 C287 1.365 . S
C286 C285 1.371 . S
C286 C296 1.386 . S
C286 H304 0.931 . S
C287 C285 1.365 . S
C287 C288 1.409 . S
C287 H305 0.929 . S
C288 C287 1.409 . S
C288 C289 1.380 . S
C288 H306 0.930 . S
C289 C288 1.380 . S
C289 C296 1.357 . S
C290 C281 1.511 . S
C290 C291 1.341 . S
C290 C292 1.371 . S
C291 C290 1.341 . S
C291 C295 1.394 . S
C291 H307 0.930 . S
C292 C290 1.371 . S
C292 C293 1.392 . S
C292 H308 0.931 . S
C293 C292 1.392 . S
C293 C294 1.331 . S
C293 H311 0.932 . S
C294 C293 1.331 . S
C294 C295 1.336 . S
C295 C291 1.394 . S
C295 C294 1.336 . S
C295 H310 0.929 . S
C296 C286 1.386 . S
C296 C289 1.357 . S
C296 H309 0.928 . S
H297 C273 0.931 . S
H298 C275 0.930 . S
H299 C277 0.929 . S
H300 C278 0.931 . S
H301 C280 0.930 . S
H302 C284 0.931 . S
H303 C282 0.931 . S
H304 C286 0.931 . S
H305 C287 0.929 . S
H306 C288 0.930 . S
H307 C291 0.930 . S
H308 C292 0.931 . S
H309 C296 0.928 . S
H310 C295 0.929 . S
H311 C293 0.932 . S
Zn312 O318 1.920 . S
Zn312 O324 1.898 . S
Zn312 O327 1.905 . S
Zn313 O321 1.905 1_565 S
Zn313 O322 1.898 . S
Zn313 O330 1.920 . S
Zn314 O317 2.080 1_455 S
Zn314 O320 2.114 . S
Zn314 O323 2.120 1_445 S
Zn314 O325 2.120 . S
Zn314 O326 2.114 1_455 S
Zn314 O329 2.080 . S
C315 O320 1.166 . S
C315 O321 1.182 . S
C316 O322 1.167 1_655 S
C316 O323 1.299 . S
O317 Zn314 2.080 1_655 S
O317 C331 1.305 . S
O318 Zn312 1.920 . S
O318 C331 1.234 . S
C319 O324 1.167 1_455 S
C319 O325 1.299 . S
O320 Zn314 2.114 . S
O320 C315 1.166 . S
O321 Zn313 1.905 1_545 S
O321 C315 1.182 . S
O322 Zn313 1.898 . S
O322 C316 1.167 1_455 S
O323 Zn314 2.120 1_665 S
O323 C316 1.299 . S
O324 Zn312 1.898 . S
O324 C319 1.167 1_655 S
O325 Zn314 2.120 . S
O325 C319 1.299 . S
O326 Zn314 2.114 1_655 S
O326 C328 1.166 . S
O327 Zn312 1.905 . S
O327 C328 1.182 . S
C328 O326 1.166 . S
C328 O327 1.182 . S
O329 Zn314 2.080 . S
O329 C332 1.305 1_545 S
O330 Zn313 1.920 . S
O330 C332 1.234 . S
C331 O317 1.305 . S
C331 O318 1.234 . S
C332 O329 1.305 1_565 S
C332 O330 1.234 . S
Zn333 O339 1.920 1_556 S
Zn333 O345 1.898 . S
Zn333 O348 1.905 . S
Zn334 O342 1.905 . S
Zn334 O343 1.898 . S
Zn334 O351 1.920 . S
Zn335 O338 2.080 . S
Zn335 O341 2.114 1_545 S
Zn335 O344 2.120 1_545 S
Zn335 O346 2.120 . S
Zn335 O347 2.114 1_544 S
Zn335 O350 2.080 . S
C336 O341 1.166 . S
C336 O342 1.182 . S
C337 O343 1.167 . S
C337 O344 1.299 . S
O338 Zn335 2.080 . S
O338 C352 1.305 . S
O339 Zn333 1.920 1_554 S
O339 C352 1.234 . S
C340 O345 1.167 . S
C340 O346 1.299 1_556 S
O341 Zn335 2.114 1_565 S
O341 C336 1.166 . S
O342 Zn334 1.905 . S
O342 C336 1.182 . S
O343 Zn334 1.898 . S
O343 C337 1.167 . S
O344 Zn335 2.120 1_565 S
O344 C337 1.299 . S
O345 Zn333 1.898 . S
O345 C340 1.167 . S
O346 Zn335 2.120 . S
O346 C340 1.299 1_554 S
O347 Zn335 2.114 1_566 S
O347 C349 1.166 . S
O348 Zn333 1.905 . S
O348 C349 1.182 1_545 S
C349 O347 1.166 . S
C349 O348 1.182 1_565 S
O350 Zn335 2.080 . S
O350 C353 1.305 . S
O351 Zn334 1.920 . S
O351 C353 1.234 1_565 S
C352 O338 1.305 . S
C352 O339 1.234 . S
C353 O350 1.305 . S
C353 O351 1.234 1_545 S
Zn354 O360 1.920 . S
Zn354 O366 1.898 . S
Zn354 O369 1.905 . S
Zn355 O363 1.905 . S
Zn355 O364 1.898 . S
Zn355 O372 1.920 . S
Zn356 O359 2.080 . S
Zn356 O362 2.114 . S
Zn356 O365 2.120 . S
Zn356 O367 2.120 . S
Zn356 O368 2.114 . S
Zn356 O371 2.080 . S
C357 O362 1.166 . S
C357 O363 1.182 . S
C358 O364 1.167 . S
C358 O365 1.299 . S
O359 Zn356 2.080 . S
O359 C373 1.305 . S
O360 Zn354 1.920 . S
O360 C373 1.234 . S
C361 O366 1.167 . S
C361 O367 1.299 . S
O362 Zn356 2.114 . S
O362 C357 1.166 . S
O363 Zn355 1.905 . S
O363 C357 1.182 . S
O364 Zn355 1.898 . S
O364 C358 1.167 . S
O365 Zn356 2.120 . S
O365 C358 1.299 . S
O366 Zn354 1.898 . S
O366 C361 1.167 . S
O367 Zn356 2.120 . S
O367 C361 1.299 . S
O368 Zn356 2.114 . S
O368 C370 1.166 . S
O369 Zn354 1.905 . S
O369 C370 1.182 . S
C370 O368 1.166 . S
C370 O369 1.182 . S
O371 Zn356 2.080 . S
O371 C374 1.305 . S
O372 Zn355 1.920 . S
O372 C374 1.234 . S
C373 O359 1.305 . S
C373 O360 1.234 . S
C374 O371 1.305 . S
C374 O372 1.234 . S
Zn375 O381 1.920 . S
Zn375 O387 1.898 . S
Zn375 O390 1.905 . S
Zn376 O384 1.905 1_655 S
Zn376 O385 1.898 . S
Zn376 O393 1.920 . S
Zn377 O380 2.080 1_554 S
Zn377 O383 2.114 . S
Zn377 O386 2.120 1_454 S
Zn377 O388 2.120 . S
Zn377 O389 2.114 1_554 S
Zn377 O392 2.080 . S
C378 O383 1.166 . S
C378 O384 1.182 . S
C379 O385 1.167 1_556 S
C379 O386 1.299 . S
O380 Zn377 2.080 1_556 S
O380 C394 1.305 . S
O381 Zn375 1.920 . S
O381 C394 1.234 . S
C382 O387 1.167 1_554 S
C382 O388 1.299 . S
O383 Zn377 2.114 . S
O383 C378 1.166 . S
O384 Zn376 1.905 1_455 S
O384 C378 1.182 . S
O385 Zn376 1.898 . S
O385 C379 1.167 1_554 S
O386 Zn377 2.120 1_656 S
O386 C379 1.299 . S
O387 Zn375 1.898 . S
O387 C382 1.167 1_556 S
O388 Zn377 2.120 . S
O388 C382 1.299 . S
O389 Zn377 2.114 1_556 S
O389 C391 1.166 . S
O390 Zn375 1.905 . S
O390 C391 1.182 . S
C391 O389 1.166 . S
C391 O390 1.182 . S
O392 Zn377 2.080 . S
O392 C395 1.305 1_455 S
O393 Zn376 1.920 . S
O393 C395 1.234 . S
C394 O380 1.305 . S
C394 O381 1.234 . S
C395 O392 1.305 1_655 S
C395 O393 1.234 . S
C396 C397 1.391 . S
C396 C398 1.394 . S
C396 H412 0.931 . S
C397 C396 1.391 . S
C397 C401 1.376 . S
C398 C396 1.394 . S
C398 C399 1.369 . S
C398 C402 1.531 . S
C399 C398 1.369 . S
C399 C400 1.410 . S
C399 C407 1.503 . S
C400 C399 1.410 . S
C400 C401 1.392 . S
C400 C403 1.511 . S
C401 C397 1.376 . S
C401 C400 1.392 . S
C401 H413 0.929 . S
C402 C398 1.531 . S
C402 H414 0.960 . S
C402 H415 0.962 . S
C402 H416 0.960 . S
C403 C400 1.511 . S
C403 H417 0.961 . S
C403 H418 0.961 . S
C403 H419 0.961 . S
C404 C405 1.370 . S
C404 C406 1.363 . S
C404 H420 0.931 . S
C405 C404 1.370 . S
C405 C409 1.408 . S
C406 C404 1.363 . S
C406 C407 1.370 . S
C406 C410 1.524 . S
C407 C399 1.503 . S
C407 C406 1.370 . S
C407 C408 1.403 . S
C408 C407 1.403 . S
C408 C409 1.404 . S
C408 C411 1.539 . S
C409 C405 1.408 . S
C409 C408 1.404 . S
C409 H421 0.930 . S
C410 C406 1.524 . S
C410 H422 0.956 . S
C410 H423 0.961 . S
C410 H424 0.961 . S
C411 C408 1.539 . S
C411 H425 0.958 . S
C411 H426 0.961 . S
C411 H427 0.960 . S
H412 C396 0.931 . S
H413 C401 0.929 . S
H414 C402 0.960 . S
H415 C402 0.962 . S
H416 C402 0.960 . S
H417 C403 0.961 . S
H418 C403 0.961 . S
H419 C403 0.961 . S
H420 C404 0.931 . S
H421 C409 0.930 . S
H422 C410 0.956 . S
H423 C410 0.961 . S
H424 C410 0.961 . S
H425 C411 0.958 . S
H426 C411 0.961 . S
H427 C411 0.960 . S
C428 C429 1.391 . S
C428 C430 1.394 . S
C428 H444 0.931 . S
C429 C428 1.391 . S
C429 C433 1.376 . S
C430 C428 1.394 . S
C430 C431 1.369 . S
C430 C434 1.531 . S
C431 C430 1.369 . S
C431 C432 1.410 . S
C431 C439 1.503 . S
C432 C431 1.410 . S
C432 C433 1.392 . S
C432 C435 1.511 . S
C433 C429 1.376 . S
C433 C432 1.392 . S
C433 H445 0.929 . S
C434 C430 1.531 . S
C434 H446 0.960 . S
C434 H447 0.962 . S
C434 H448 0.960 . S
C435 C432 1.511 . S
C435 H449 0.961 . S
C435 H450 0.961 . S
C435 H451 0.961 . S
C436 C437 1.370 . S
C436 C438 1.363 . S
C436 H452 0.931 . S
C437 C436 1.370 . S
C437 C441 1.408 . S
C438 C436 1.363 . S
C438 C439 1.370 . S
C438 C442 1.524 . S
C439 C431 1.503 . S
C439 C438 1.370 . S
C439 C440 1.403 . S
C440 C439 1.403 . S
C440 C441 1.404 . S
C440 C443 1.539 . S
C441 C437 1.408 . S
C441 C440 1.404 . S
C441 H453 0.945 . S
C442 C438 1.524 . S
C442 H454 0.956 . S
C442 H455 0.961 . S
C442 H456 0.961 . S
C443 C440 1.539 . S
C443 H457 0.958 1_565 S
C443 H458 0.961 . S
C443 H459 0.960 . S
H444 C428 0.931 . S
H445 C433 0.929 . S
H446 C434 0.960 . S
H447 C434 0.962 . S
H448 C434 0.960 . S
H449 C435 0.961 . S
H450 C435 0.961 . S
H451 C435 0.961 . S
H452 C436 0.931 . S
H453 C441 0.945 . S
H454 C442 0.956 . S
H455 C442 0.961 . S
H456 C442 0.961 . S
H457 C443 0.958 1_545 S
H458 C443 0.961 . S
H459 C443 0.960 . S
C460 C461 1.391 . S
C460 C462 1.394 . S
C460 H476 0.931 . S
C461 C460 1.391 . S
C461 C465 1.376 . S
C462 C460 1.394 . S
C462 C463 1.369 . S
C462 C466 1.531 . S
C463 C462 1.369 . S
C463 C464 1.410 . S
C463 C471 1.503 . S
C464 C463 1.410 . S
C464 C465 1.392 . S
C464 C467 1.511 . S
C465 C461 1.376 . S
C465 C464 1.392 . S
C465 H477 0.929 . S
C466 C462 1.531 . S
C466 H478 0.960 . S
C466 H479 0.962 . S
C466 H480 0.960 . S
C467 C464 1.511 . S
C467 H481 0.961 . S
C467 H482 0.961 . S
C467 H483 0.961 . S
C468 C469 1.370 . S
C468 C470 1.363 . S
C468 H484 0.931 . S
C469 C468 1.370 . S
C469 C473 1.408 . S
C470 C468 1.363 . S
C470 C471 1.370 . S
C470 C474 1.524 . S
C471 C463 1.503 . S
C471 C470 1.370 . S
C471 C472 1.403 . S
C472 C471 1.403 . S
C472 C473 1.404 . S
C472 C475 1.539 . S
C473 C469 1.408 . S
C473 C472 1.404 . S
C473 H485 0.930 . S
C474 C470 1.524 . S
C474 H486 0.956 . S
C474 H487 0.961 . S
C474 H488 0.961 . S
C475 C472 1.539 . S
C475 H489 0.958 . S
C475 H490 0.961 . S
C475 H491 0.960 . S
H476 C460 0.931 . S
H477 C465 0.929 . S
H478 C466 0.960 . S
H479 C466 0.962 . S
H480 C466 0.960 . S
H481 C467 0.961 . S
H482 C467 0.961 . S
H483 C467 0.961 . S
H484 C468 0.931 . S
H485 C473 0.930 . S
H486 C474 0.956 . S
H487 C474 0.961 . S
H488 C474 0.961 . S
H489 C475 0.958 . S
H490 C475 0.961 . S
H491 C475 0.960 . S
C492 C493 1.391 . S
C492 C494 1.394 . S
C492 H508 0.931 . S
C493 C492 1.391 . S
C493 C497 1.376 . S
C494 C492 1.394 . S
C494 C495 1.369 . S
C494 C498 1.531 . S
C495 C494 1.369 . S
C495 C496 1.410 . S
C495 C503 1.503 . S
C496 C495 1.410 . S
C496 C497 1.392 . S
C496 C499 1.511 . S
C497 C493 1.376 . S
C497 C496 1.392 . S
C497 H509 0.929 . S
C498 C494 1.531 . S
C498 H510 0.960 . S
C498 H511 0.962 . S
C498 H512 0.960 . S
C499 C496 1.511 . S
C499 H513 0.961 . S
C499 H514 0.961 . S
C499 H515 0.961 . S
C500 C501 1.370 . S
C500 C502 1.363 . S
C500 H516 0.931 1_655 S
C501 C500 1.370 . S
C501 C505 1.408 . S
C502 C500 1.363 . S
C502 C503 1.370 . S
C502 C506 1.522 . S
C503 C495 1.503 . S
C503 C502 1.370 . S
C503 C504 1.403 . S
C504 C503 1.403 . S
C504 C505 1.404 . S
C504 C507 1.539 . S
C505 C501 1.408 . S
C505 C504 1.404 . S
C505 H517 0.930 . S
C506 C502 1.522 . S
C506 H518 0.955 . S
C506 H519 0.960 . S
C506 H520 0.965 1_655 S
C507 C504 1.539 . S
C507 H521 0.958 . S
C507 H522 0.961 . S
C507 H523 0.960 . S
H508 C492 0.931 . S
H509 C497 0.929 . S
H510 C498 0.960 . S
H511 C498 0.962 . S
H512 C498 0.960 . S
H513 C499 0.961 . S
H514 C499 0.961 . S
H515 C499 0.961 . S
H516 C500 0.931 1_455 S
H517 C505 0.930 . S
H518 C506 0.955 . S
H519 C506 0.960 . S
H520 C506 0.965 1_455 S
H521 C507 0.958 . S
H522 C507 0.961 . S
H523 C507 0.960 . S
C524 C525 1.391 . S
C524 C526 1.394 . S
C524 H540 0.931 . S
C525 C524 1.391 . S
C525 C529 1.376 . S
C526 C524 1.394 . S
C526 C527 1.369 . S
C526 C530 1.531 . S
C527 C526 1.369 . S
C527 C528 1.410 . S
C527 C535 1.503 . S
C528 C527 1.410 . S
C528 C529 1.392 . S
C528 C531 1.511 . S
C529 C525 1.376 . S
C529 C528 1.392 . S
C529 H541 0.929 . S
C530 C526 1.531 . S
C530 H542 0.960 . S
C530 H543 0.962 . S
C530 H544 0.960 . S
C531 C528 1.511 . S
C531 H545 0.961 . S
C531 H546 0.961 . S
C531 H547 0.961 . S
C532 C533 1.370 . S
C532 C534 1.363 . S
C532 H548 0.931 . S
C533 C532 1.370 . S
C533 C537 1.408 . S
C534 C532 1.363 . S
C534 C535 1.370 . S
C534 C538 1.524 . S
C535 C527 1.503 . S
C535 C534 1.370 . S
C535 C536 1.403 . S
C536 C535 1.403 . S
C536 C537 1.404 . S
C536 C539 1.539 . S
C537 C533 1.408 . S
C537 C536 1.404 . S
C537 H549 0.930 . S
C538 C534 1.524 . S
C538 H550 0.956 . S
C538 H551 0.961 . S
C538 H552 0.961 . S
C539 C536 1.539 . S
C539 H553 0.958 . S
C539 H554 0.961 . S
C539 H555 0.960 . S
H540 C524 0.931 . S
H541 C529 0.929 . S
H542 C530 0.960 . S
H543 C530 0.962 . S
H544 C530 0.960 . S
H545 C531 0.961 . S
H546 C531 0.961 . S
H547 C531 0.961 . S
H548 C532 0.931 . S
H549 C537 0.930 . S
H550 C538 0.956 . S
H551 C538 0.961 . S
H552 C538 0.961 . S
H553 C539 0.958 . S
H554 C539 0.961 . S
H555 C539 0.960 . S
C556 C557 1.391 . S
C556 C558 1.394 . S
C556 H572 0.931 . S
C557 C556 1.391 . S
C557 C561 1.376 . S
C558 C556 1.394 . S
C558 C559 1.369 . S
C558 C562 1.531 . S
C559 C558 1.369 . S
C559 C560 1.410 . S
C559 C567 1.503 . S
C560 C559 1.410 . S
C560 C561 1.392 . S
C560 C563 1.511 . S
C561 C557 1.376 . S
C561 C560 1.392 . S
C561 H573 0.929 . S
C562 C558 1.531 . S
C562 H574 0.956 1_565 S
C562 H575 0.962 1_565 S
C562 H576 0.960 1_565 S
C563 C560 1.511 . S
C563 H577 0.961 . S
C563 H578 0.961 . S
C563 H579 0.961 . S
C564 C565 1.370 . S
C564 C566 1.363 . S
C564 H580 0.931 . S
C565 C564 1.370 . S
C565 C569 1.408 . S
C566 C564 1.363 . S
C566 C567 1.370 . S
C566 C570 1.524 . S
C567 C559 1.503 . S
C567 C566 1.370 . S
C567 C568 1.403 . S
C568 C567 1.403 . S
C568 C569 1.404 . S
C568 C571 1.539 . S
C569 C565 1.408 . S
C569 C568 1.404 . S
C569 H581 0.930 . S
C570 C566 1.524 . S
C570 H582 0.956 . S
C570 H583 0.961 . S
C570 H584 0.961 . S
C571 C568 1.539 . S
C571 H585 0.958 . S
C571 H586 0.961 . S
C571 H587 0.960 . S
H572 C556 0.931 . S
H573 C561 0.929 . S
H574 C562 0.956 1_545 S
H575 C562 0.962 1_545 S
H576 C562 0.960 1_545 S
H577 C563 0.961 . S
H578 C563 0.961 . S
H579 C563 0.961 . S
H580 C564 0.931 . S
H581 C569 0.930 . S
H582 C570 0.956 . S
H583 C570 0.961 . S
H584 C570 0.961 . S
H585 C571 0.958 . S
H586 C571 0.961 . S
H587 C571 0.960 . S
C588 C589 1.391 . S
C588 C590 1.394 . S
C588 H604 0.931 . S
C589 C588 1.391 . S
C589 C593 1.376 . S
C590 C588 1.394 . S
C590 C591 1.369 . S
C590 C594 1.531 . S
C591 C590 1.369 . S
C591 C592 1.410 . S
C591 C599 1.503 . S
C592 C591 1.410 . S
C592 C593 1.392 . S
C592 C595 1.511 . S
C593 C589 1.376 . S
C593 C592 1.392 . S
C593 H605 0.929 . S
C594 C590 1.531 . S
C594 H606 0.960 . S
C594 H607 0.962 . S
C594 H608 0.960 . S
C595 C592 1.511 . S
C595 H609 0.961 . S
C595 H610 0.961 . S
C595 H611 0.961 . S
C596 C597 1.370 . S
C596 C598 1.363 . S
C596 H612 0.909 1_556 S
C597 C596 1.370 . S
C597 C601 1.408 . S
C598 C596 1.363 . S
C598 C599 1.370 . S
C598 C602 1.524 . S
C599 C591 1.503 . S
C599 C598 1.370 . S
C599 C600 1.403 . S
C600 C599 1.403 . S
C600 C601 1.404 . S
C600 C603 1.539 . S
C601 C597 1.408 . S
C601 C600 1.404 . S
C601 H613 0.930 . S
C602 C598 1.524 . S
C602 H614 0.956 . S
C602 H615 0.961 . S
C602 H616 0.964 1_556 S
C603 C600 1.539 . S
C603 H617 0.958 . S
C603 H618 0.961 . S
C603 H619 0.960 . S
H604 C588 0.931 . S
H605 C593 0.929 . S
H606 C594 0.960 . S
H607 C594 0.962 . S
H608 C594 0.960 . S
H609 C595 0.961 . S
H610 C595 0.961 . S
H611 C595 0.961 . S
H612 C596 0.909 1_554 S
H613 C601 0.930 . S
H614 C602 0.956 . S
H615 C602 0.961 . S
H616 C602 0.964 1_554 S
H617 C603 0.958 . S
H618 C603 0.961 . S
H619 C603 0.960 . S
C620 C621 1.391 . S
C620 C622 1.394 . S
C620 H636 0.931 . S
C621 C620 1.391 . S
C621 C625 1.376 . S
C622 C620 1.394 . S
C622 C623 1.369 . S
C622 C626 1.531 . S
C623 C622 1.369 . S
C623 C624 1.410 . S
C623 C631 1.503 . S
C624 C623 1.410 . S
C624 C625 1.392 . S
C624 C627 1.511 . S
C625 C621 1.376 . S
C625 C624 1.392 . S
C625 H637 0.929 . S
C626 C622 1.531 . S
C626 H638 0.960 . S
C626 H639 0.962 . S
C626 H640 0.960 . S
C627 C624 1.511 . S
C627 H641 0.961 . S
C627 H642 0.961 . S
C627 H643 0.961 . S
C628 C629 1.370 . S
C628 C630 1.363 . S
C628 H644 0.931 . S
C629 C628 1.370 . S
C629 C633 1.408 . S
C630 C628 1.363 . S
C630 C631 1.370 . S
C630 C634 1.524 . S
C631 C623 1.503 . S
C631 C630 1.370 . S
C631 C632 1.403 . S
C632 C631 1.403 . S
C632 C633 1.404 . S
C632 C635 1.539 . S
C633 C629 1.408 . S
C633 C632 1.404 . S
C633 H645 0.930 . S
C634 C630 1.524 . S
C634 H646 0.956 . S
C634 H647 0.961 . S
C634 H648 0.961 . S
C635 C632 1.539 . S
C635 H649 0.958 . S
C635 H650 0.961 . S
C635 H651 0.960 . S
H636 C620 0.931 . S
H637 C625 0.929 . S
H638 C626 0.960 . S
H639 C626 0.962 . S
H640 C626 0.960 . S
H641 C627 0.961 . S
H642 C627 0.961 . S
H643 C627 0.961 . S
H644 C628 0.931 . S
H645 C633 0.930 . S
H646 C634 0.956 . S
H647 C634 0.961 . S
H648 C634 0.961 . S
H649 C635 0.958 . S
H650 C635 0.961 . S
H651 C635 0.960 . S
C652 C653 1.391 . S
C652 C654 1.394 . S
C652 H668 0.931 . S
C653 C652 1.391 . S
C653 C657 1.376 . S
C654 C652 1.394 . S
C654 C655 1.369 . S
C654 C658 1.531 . S
C655 C654 1.369 . S
C655 C656 1.410 . S
C655 C663 1.503 . S
C656 C655 1.410 . S
C656 C657 1.392 . S
C656 C659 1.511 . S
C657 C653 1.376 . S
C657 C656 1.392 . S
C657 H669 0.929 . S
C658 C654 1.531 . S
C658 H670 0.960 . S
C658 H671 0.962 . S
C658 H672 0.960 . S
C659 C656 1.511 . S
C659 H673 0.961 . S
C659 H674 0.961 . S
C659 H675 0.961 . S
C660 C661 1.370 . S
C660 C662 1.363 . S
C660 H676 0.931 . S
C661 C660 1.370 . S
C661 C665 1.408 . S
C662 C660 1.363 . S
C662 C663 1.370 . S
C662 C666 1.524 . S
C663 C655 1.503 . S
C663 C662 1.370 . S
C663 C664 1.403 . S
C664 C663 1.403 . S
C664 C665 1.404 . S
C664 C667 1.539 . S
C665 C661 1.408 . S
C665 C664 1.404 . S
C665 H677 0.930 . S
C666 C662 1.524 . S
C666 H678 0.956 . S
C666 H679 0.961 . S
C666 H680 0.961 . S
C667 C664 1.539 . S
C667 H681 0.958 . S
C667 H682 0.961 . S
C667 H683 0.960 . S
H668 C652 0.931 . S
H669 C657 0.929 . S
H670 C658 0.960 . S
H671 C658 0.962 . S
H672 C658 0.960 . S
H673 C659 0.961 . S
H674 C659 0.961 . S
H675 C659 0.961 . S
H676 C660 0.931 . S
H677 C665 0.930 . S
H678 C666 0.956 . S
H679 C666 0.961 . S
H680 C666 0.961 . S
H681 C667 0.958 . S
H682 C667 0.961 . S
H683 C667 0.960 . S
C684 C685 1.391 . S
C684 C686 1.394 . S
C684 H700 0.931 . S
C685 C684 1.391 . S
C685 C689 1.376 . S
C686 C684 1.394 . S
C686 C687 1.369 . S
C686 C690 1.531 . S
C687 C686 1.369 . S
C687 C688 1.410 . S
C687 C695 1.503 . S
C688 C687 1.410 . S
C688 C689 1.392 . S
C688 C691 1.511 . S
C689 C685 1.376 . S
C689 C688 1.392 . S
C689 H701 0.929 . S
C690 C686 1.531 . S
C690 H702 0.965 . S
C690 H703 0.962 . S
C690 H704 0.955 1_556 S
C691 C688 1.511 . S
C691 H705 0.961 . S
C691 H706 0.961 . S
C691 H707 0.961 . S
C692 C693 1.370 . S
C692 C694 1.363 . S
C692 H708 0.931 . S
C693 C692 1.370 . S
C693 C697 1.408 . S
C694 C692 1.363 . S
C694 C695 1.370 . S
C694 C698 1.524 . S
C695 C687 1.503 . S
C695 C694 1.370 . S
C695 C696 1.403 . S
C696 C695 1.403 . S
C696 C697 1.404 . S
C696 C699 1.539 . S
C697 C693 1.408 . S
C697 C696 1.404 . S
C697 H709 0.930 . S
C698 C694 1.524 . S
C698 H710 0.956 . S
C698 H711 0.961 . S
C698 H712 0.961 . S
C699 C696 1.539 . S
C699 H713 0.958 . S
C699 H714 0.961 . S
C699 H715 0.960 . S
H700 C684 0.931 . S
H701 C689 0.929 . S
H702 C690 0.965 . S
H703 C690 0.962 . S
H704 C690 0.955 1_554 S
H705 C691 0.961 . S
H706 C691 0.961 . S
H707 C691 0.961 . S
H708 C692 0.931 . S
H709 C697 0.930 . S
H710 C698 0.956 . S
H711 C698 0.961 . S
H712 C698 0.961 . S
H713 C699 0.958 . S
H714 C699 0.961 . S
H715 C699 0.960 . S
C716 C717 1.391 . S
C716 C718 1.394 . S
C716 H732 0.931 . S
C717 C716 1.391 . S
C717 C721 1.376 . S
C718 C716 1.394 . S
C718 C719 1.369 . S
C718 C722 1.531 . S
C719 C718 1.369 . S
C719 C720 1.410 . S
C719 C727 1.503 . S
C720 C719 1.410 . S
C720 C721 1.392 . S
C720 C723 1.511 . S
C721 C717 1.376 . S
C721 C720 1.392 . S
C721 H733 0.929 . S
C722 C718 1.531 . S
C722 H734 0.960 . S
C722 H735 0.962 . S
C722 H736 0.960 . S
C723 C720 1.511 . S
C723 H737 0.961 . S
C723 H738 0.961 . S
C723 H739 0.961 . S
C724 C725 1.370 . S
C724 C726 1.363 . S
C724 H740 0.931 . S
C725 C724 1.370 . S
C725 C729 1.408 . S
C726 C724 1.363 . S
C726 C727 1.370 . S
C726 C730 1.524 . S
C727 C719 1.503 . S
C727 C726 1.370 . S
C727 C728 1.403 . S
C728 C727 1.403 . S
C728 C729 1.404 . S
C728 C731 1.539 . S
C729 C725 1.408 . S
C729 C728 1.404 . S
C729 H741 0.930 . S
C730 C726 1.524 . S
C730 H742 0.956 . S
C730 H743 0.961 . S
C730 H744 0.961 . S
C731 C728 1.539 . S
C731 H745 0.958 . S
C731 H746 0.961 . S
C731 H747 0.960 . S
H732 C716 0.931 . S
H733 C721 0.929 . S
H734 C722 0.960 . S
H735 C722 0.962 . S
H736 C722 0.960 . S
H737 C723 0.961 . S
H738 C723 0.961 . S
H739 C723 0.961 . S
H740 C724 0.931 . S
H741 C729 0.930 . S
H742 C730 0.956 . S
H743 C730 0.961 . S
H744 C730 0.961 . S
H745 C731 0.958 . S
H746 C731 0.961 . S
H747 C731 0.960 . S
C748 C749 1.391 . S
C748 C750 1.394 . S
C748 H764 0.931 . S
C749 C748 1.391 . S
C749 C753 1.376 . S
C750 C748 1.394 . S
C750 C751 1.369 . S
C750 C754 1.531 . S
C751 C750 1.369 . S
C751 C752 1.410 . S
C751 C759 1.503 . S
C752 C751 1.410 . S
C752 C753 1.392 . S
C752 C755 1.511 . S
C753 C749 1.376 . S
C753 C752 1.392 . S
C753 H765 0.929 . S
C754 C750 1.531 . S
C754 H766 0.960 . S
C754 H767 0.962 . S
C754 H768 0.960 . S
C755 C752 1.511 . S
C755 H769 0.961 . S
C755 H770 0.961 . S
C755 H771 0.961 . S
C756 C757 1.370 . S
C756 C758 1.363 . S
C756 H772 0.931 . S
C757 C756 1.370 . S
C757 C761 1.408 . S
C758 C756 1.363 . S
C758 C759 1.370 . S
C758 C762 1.524 . S
C759 C751 1.503 . S
C759 C758 1.370 . S
C759 C760 1.403 . S
C760 C759 1.403 . S
C760 C761 1.404 . S
C760 C763 1.539 . S
C761 C757 1.408 . S
C761 C760 1.404 . S
C761 H773 0.930 . S
C762 C758 1.524 . S
C762 H774 0.956 . S
C762 H775 0.961 . S
C762 H776 0.961 . S
C763 C760 1.539 . S
C763 H777 0.958 . S
C763 H778 0.961 . S
C763 H779 0.960 . S
H764 C748 0.931 . S
H765 C753 0.929 . S
H766 C754 0.960 . S
H767 C754 0.962 . S
H768 C754 0.960 . S
H769 C755 0.961 . S
H770 C755 0.961 . S
H771 C755 0.961 . S
H772 C756 0.931 . S
H773 C761 0.930 . S
H774 C762 0.956 . S
H775 C762 0.961 . S
H776 C762 0.961 . S
H777 C763 0.958 . S
H778 C763 0.961 . S
H779 C763 0.960 . S
C780 C781 1.391 1_455 S
C780 C782 1.394 . S
C780 H796 0.931 . S
C781 C780 1.391 1_655 S
C781 C785 1.376 1_565 S
C782 C780 1.394 . S
C782 C783 1.383 1_455 S
C782 C786 1.531 . S
C783 C782 1.383 1_655 S
C783 C784 1.397 1_565 S
C783 C791 1.499 1_565 S
C784 C783 1.397 1_545 S
C784 C785 1.392 . S
C784 C787 1.511 . S
C785 C781 1.376 1_545 S
C785 C784 1.392 . S
C785 H797 0.929 . S
C786 C782 1.531 . S
C786 H798 0.960 . S
C786 H799 0.962 . S
C786 H800 0.960 . S
C787 C784 1.511 . S
C787 H801 0.961 . S
C787 H802 0.961 . S
C787 H803 0.961 . S
C788 C789 1.370 1_455 S
C788 C790 1.365 . S
C788 H804 0.931 . S
C789 C788 1.370 1_655 S
C789 C793 1.408 1_545 S
C790 C788 1.365 . S
C790 C791 1.362 1_455 S
C790 C794 1.531 . S
C791 C783 1.499 1_545 S
C791 C790 1.362 1_655 S
C791 C792 1.403 1_545 S
C792 C791 1.403 1_565 S
C792 C793 1.404 . S
C792 C795 1.539 . S
C793 C789 1.408 1_565 S
C793 C792 1.404 . S
C793 H805 0.930 . S
C794 C790 1.531 . S
C794 H806 0.956 . S
C794 H807 0.961 . S
C794 H808 0.961 . S
C795 C792 1.539 . S
C795 H809 0.958 . S
C795 H810 0.961 . S
C795 H811 0.960 . S
H796 C780 0.931 . S
H797 C785 0.929 . S
H798 C786 0.960 . S
H799 C786 0.962 . S
H800 C786 0.960 . S
H801 C787 0.961 . S
H802 C787 0.961 . S
H803 C787 0.961 . S
H804 C788 0.931 . S
H805 C793 0.930 . S
H806 C794 0.956 . S
H807 C794 0.961 . S
H808 C794 0.961 . S
H809 C795 0.958 . S
H810 C795 0.961 . S
H811 C795 0.960 . S
C812 C813 1.391 . S
C812 C814 1.394 . S
C812 H828 0.931 . S
C813 C812 1.391 . S
C813 C817 1.376 . S
C814 C812 1.394 . S
C814 C815 1.369 . S
C814 C818 1.531 . S
C815 C814 1.369 . S
C815 C816 1.410 . S
C815 C823 1.503 . S
C816 C815 1.410 . S
C816 C817 1.392 . S
C816 C819 1.511 . S
C817 C813 1.376 . S
C817 C816 1.392 . S
C817 H829 0.929 . S
C818 C814 1.531 . S
C818 H830 0.960 . S
C818 H831 0.962 . S
C818 H832 0.960 . S
C819 C816 1.511 . S
C819 H833 0.961 . S
C819 H834 0.961 . S
C819 H835 0.961 . S
C820 C821 1.370 . S
C820 C822 1.363 . S
C820 H836 0.931 1_545 S
C821 C820 1.370 . S
C821 C825 1.408 . S
C822 C820 1.363 . S
C822 C823 1.370 . S
C822 C826 1.524 1_545 S
C823 C815 1.503 . S
C823 C822 1.370 . S
C823 C824 1.403 . S
C824 C823 1.403 . S
C824 C825 1.404 . S
C824 C827 1.539 . S
C825 C821 1.408 . S
C825 C824 1.404 . S
C825 H837 0.930 . S
C826 C822 1.524 1_565 S
C826 H838 0.956 . S
C826 H839 0.961 . S
C826 H840 0.961 . S
C827 C824 1.539 . S
C827 H841 0.958 . S
C827 H842 0.961 . S
C827 H843 0.960 . S
H828 C812 0.931 . S
H829 C817 0.929 . S
H830 C818 0.960 . S
H831 C818 0.962 . S
H832 C818 0.960 . S
H833 C819 0.961 . S
H834 C819 0.961 . S
H835 C819 0.961 . S
H836 C820 0.931 1_565 S
H837 C825 0.930 . S
H838 C826 0.956 . S
H839 C826 0.961 . S
H840 C826 0.961 . S
H841 C827 0.958 . S
H842 C827 0.961 . S
H843 C827 0.960 . S
C844 C845 1.391 . S
C844 C846 1.394 . S
C844 H860 0.931 . S
C845 C844 1.391 . S
C845 C849 1.376 . S
C846 C844 1.394 . S
C846 C847 1.369 . S
C846 C850 1.531 . S
C847 C846 1.369 . S
C847 C848 1.410 . S
C847 C855 1.503 . S
C848 C847 1.410 . S
C848 C849 1.392 . S
C848 C851 1.511 . S
C849 C845 1.376 . S
C849 C848 1.392 . S
C849 H861 0.929 . S
C850 C846 1.531 . S
C850 H862 0.960 . S
C850 H863 0.962 . S
C850 H864 0.960 . S
C851 C848 1.511 . S
C851 H865 0.961 . S
C851 H866 0.961 . S
C851 H867 0.961 . S
C852 C853 1.370 . S
C852 C854 1.363 . S
C852 H868 0.931 . S
C853 C852 1.370 . S
C853 C857 1.408 . S
C854 C852 1.363 . S
C854 C855 1.370 . S
C854 C858 1.524 . S
C855 C847 1.503 . S
C855 C854 1.370 . S
C855 C856 1.403 . S
C856 C855 1.403 . S
C856 C857 1.404 . S
C856 C859 1.539 . S
C857 C853 1.408 . S
C857 C856 1.404 . S
C857 H869 0.930 . S
C858 C854 1.524 . S
C858 H870 0.956 . S
C858 H871 0.961 . S
C858 H872 0.961 . S
C859 C856 1.539 . S
C859 H873 0.958 . S
C859 H874 0.961 . S
C859 H875 0.960 . S
H860 C844 0.931 . S
H861 C849 0.929 . S
H862 C850 0.960 . S
H863 C850 0.962 . S
H864 C850 0.960 . S
H865 C851 0.961 . S
H866 C851 0.961 . S
H867 C851 0.961 . S
H868 C852 0.931 . S
H869 C857 0.930 . S
H870 C858 0.956 . S
H871 C858 0.961 . S
H872 C858 0.961 . S
H873 C859 0.958 . S
H874 C859 0.961 . S
H875 C859 0.960 . S
C876 C877 1.391 . S
C876 C878 1.394 . S
C876 H892 0.931 . S
C877 C876 1.391 . S
C877 C881 1.376 . S
C878 C876 1.394 . S
C878 C879 1.369 . S
C878 C882 1.531 . S
C879 C878 1.369 . S
C879 C880 1.410 . S
C879 C887 1.503 . S
C880 C879 1.410 . S
C880 C881 1.392 . S
C880 C883 1.511 . S
C881 C877 1.376 . S
C881 C880 1.392 . S
C881 H893 0.929 . S
C882 C878 1.531 . S
C882 H894 0.960 . S
C882 H895 0.962 1_455 S
C882 H896 0.960 . S
C883 C880 1.511 . S
C883 H897 0.961 . S
C883 H898 0.961 . S
C883 H899 0.961 . S
C884 C885 1.370 . S
C884 C886 1.363 . S
C884 H900 0.931 . S
C885 C884 1.370 . S
C885 C889 1.408 . S
C886 C884 1.363 . S
C886 C887 1.370 . S
C886 C890 1.524 . S
C887 C879 1.503 . S
C887 C886 1.370 . S
C887 C888 1.403 . S
C888 C887 1.403 . S
C888 C889 1.404 . S
C888 C891 1.539 . S
C889 C885 1.408 . S
C889 C888 1.404 . S
C889 H901 0.930 . S
C890 C886 1.524 . S
C890 H902 0.956 1_455 S
C890 H903 0.961 . S
C890 H904 0.961 1_455 S
C891 C888 1.539 . S
C891 H905 0.958 . S
C891 H906 0.961 . S
C891 H907 0.960 . S
H892 C876 0.931 . S
H893 C881 0.929 . S
H894 C882 0.960 . S
H895 C882 0.962 1_655 S
H896 C882 0.960 . S
H897 C883 0.961 . S
H898 C883 0.961 . S
H899 C883 0.961 . S
H900 C884 0.931 . S
H901 C889 0.930 . S
H902 C890 0.956 1_655 S
H903 C890 0.961 . S
H904 C890 0.961 1_655 S
H905 C891 0.958 . S
H906 C891 0.961 . S
H907 C891 0.960 . S
C908 C909 1.391 . S
C908 C910 1.394 . S
C908 H924 0.931 . S
C909 C908 1.391 . S
C909 C913 1.376 1_556 S
C910 C908 1.394 . S
C910 C911 1.369 1_556 S
C910 C914 1.531 . S
C911 C910 1.369 1_554 S
C911 C912 1.410 . S
C911 C919 1.503 . S
C912 C911 1.410 . S
C912 C913 1.392 . S
C912 C915 1.511 1_565 S
C913 C909 1.376 1_554 S
C913 C912 1.392 . S
C913 H925 0.929 1_565 S
C914 C910 1.531 . S
C914 H926 0.960 . S
C914 H927 0.962 . S
C914 H928 0.960 . S
C915 C912 1.511 1_545 S
C915 H929 0.961 . S
C915 H930 0.961 . S
C915 H931 0.961 1_545 S
C916 C917 1.370 1_546 S
C916 C918 1.363 . S
C916 H932 0.931 . S
C917 C916 1.370 1_564 S
C917 C921 1.408 . S
C918 C916 1.363 . S
C918 C919 1.370 1_546 S
C918 C922 1.524 . S
C919 C911 1.503 . S
C919 C918 1.370 1_564 S
C919 C920 1.403 . S
C920 C919 1.403 . S
C920 C921 1.404 . S
C920 C923 1.539 . S
C921 C917 1.408 . S
C921 C920 1.404 . S
C921 H933 0.930 . S
C922 C918 1.524 . S
C922 H934 0.956 . S
C922 H935 0.961 . S
C922 H936 0.961 . S
C923 C920 1.539 . S
C923 H937 0.958 . S
C923 H938 0.961 . S
C923 H939 0.960 . S
H924 C908 0.931 . S
H925 C913 0.929 1_545 S
H926 C914 0.960 . S
H927 C914 0.962 . S
H928 C914 0.960 . S
H929 C915 0.961 . S
H930 C915 0.961 . S
H931 C915 0.961 1_565 S
H932 C916 0.931 . S
H933 C921 0.930 . S
H934 C922 0.956 . S
H935 C922 0.961 . S
H936 C922 0.961 . S
H937 C923 0.958 . S
H938 C923 0.961 . S
H939 C923 0.960 . S
C940 C941 1.391 . S
C940 C942 1.394 . S
C940 H956 0.931 . S
C941 C940 1.391 . S
C941 C945 1.376 . S
C942 C940 1.394 . S
C942 C943 1.369 . S
C942 C946 1.531 . S
C943 C942 1.369 . S
C943 C944 1.410 . S
C943 C951 1.503 . S
C944 C943 1.410 . S
C944 C945 1.392 . S
C944 C947 1.483 1_545 S
C945 C941 1.376 . S
C945 C944 1.392 . S
C945 H957 0.929 . S
C946 C942 1.531 . S
C946 H958 0.960 . S
C946 H959 0.962 . S
C946 H960 0.960 . S
C947 C944 1.483 1_565 S
C947 H961 0.987 . S
C947 H962 0.965 . S
C947 H963 0.960 . S
C948 C949 1.370 . S
C948 C950 1.363 . S
C948 H964 0.931 . S
C949 C948 1.370 . S
C949 C953 1.408 . S
C950 C948 1.363 . S
C950 C951 1.370 . S
C950 C954 1.524 . S
C951 C943 1.503 . S
C951 C950 1.370 . S
C951 C952 1.403 . S
C952 C951 1.403 . S
C952 C953 1.404 . S
C952 C955 1.539 . S
C953 C949 1.408 . S
C953 C952 1.404 . S
C953 H965 0.930 . S
C954 C950 1.524 . S
C954 H966 0.956 . S
C954 H967 0.961 . S
C954 H968 0.961 . S
C955 C952 1.539 . S
C955 H969 0.958 . S
C955 H970 0.961 . S
C955 H971 0.960 . S
H956 C940 0.931 . S
H957 C945 0.929 . S
H958 C946 0.960 . S
H959 C946 0.962 . S
H960 C946 0.960 . S
H961 C947 0.987 . S
H962 C947 0.965 . S
H963 C947 0.960 . S
H964 C948 0.931 . S
H965 C953 0.930 . S
H966 C954 0.956 . S
H967 C954 0.961 . S
H968 C954 0.961 . S
H969 C955 0.958 . S
H970 C955 0.961 . S
H971 C955 0.960 . S
C972 C973 1.391 . S
C972 C974 1.394 . S
C972 H988 0.931 1_554 S
C973 C972 1.391 . S
C973 C977 1.376 . S
C974 C972 1.394 . S
C974 C975 1.369 . S
C974 C978 1.531 1_554 S
C975 C974 1.369 . S
C975 C976 1.410 . S
C975 C983 1.503 . S
C976 C975 1.410 . S
C976 C977 1.392 . S
C976 C979 1.511 . S
C977 C973 1.376 . S
C977 C976 1.392 . S
C977 H989 0.929 . S
C978 C974 1.531 1_556 S
C978 H990 0.960 . S
C978 H991 0.962 . S
C978 H992 0.960 . S
C979 C976 1.511 . S
C979 H993 0.961 . S
C979 H994 0.961 . S
C979 H995 0.961 . S
C980 C981 1.370 . S
C980 C982 1.363 . S
C980 H996 0.931 . S
C981 C980 1.370 . S
C981 C985 1.408 . S
C982 C980 1.363 . S
C982 C983 1.370 . S
C982 C986 1.524 . S
C983 C975 1.503 . S
C983 C982 1.370 . S
C983 C984 1.403 . S
C984 C983 1.403 . S
C984 C985 1.404 . S
C984 C987 1.539 . S
C985 C981 1.408 . S
C985 C984 1.404 . S
C985 H997 0.930 . S
C986 C982 1.524 . S
C986 H998 0.956 . S
C986 H999 0.961 . S
C986 H1000 0.961 . S
C987 C984 1.539 . S
C987 H1001 0.958 1_554 S
C987 H1002 0.961 . S
C987 H1003 0.960 . S
H988 C972 0.931 1_556 S
H989 C977 0.929 . S
H990 C978 0.960 . S
H991 C978 0.962 . S
H992 C978 0.960 . S
H993 C979 0.961 . S
H994 C979 0.961 . S
H995 C979 0.961 . S
H996 C980 0.931 . S
H997 C985 0.930 . S
H998 C986 0.956 . S
H999 C986 0.961 . S
H1000 C986 0.961 . S
H1001 C987 0.958 1_556 S
H1002 C987 0.961 . S
H1003 C987 0.960 . S
C1004 C1005 1.391 . S
C1004 C1006 1.394 . S
C1004 H1020 0.931 . S
C1005 C1004 1.391 . S
C1005 C1009 1.376 . S
C1006 C1004 1.394 . S
C1006 C1007 1.369 . S
C1006 C1010 1.531 . S
C1007 C1006 1.369 . S
C1007 C1008 1.410 . S
C1007 C1015 1.503 . S
C1008 C1007 1.410 . S
C1008 C1009 1.392 . S
C1008 C1011 1.511 . S
C1009 C1005 1.376 . S
C1009 C1008 1.392 . S
C1009 H1021 0.929 . S
C1010 C1006 1.531 . S
C1010 H1022 0.960 . S
C1010 H1023 0.962 . S
C1010 H1024 0.960 . S
C1011 C1008 1.511 . S
C1011 H1025 0.961 . S
C1011 H1026 0.961 . S
C1011 H1027 0.961 . S
C1012 C1013 1.370 . S
C1012 C1014 1.363 . S
C1012 H1028 0.931 . S
C1013 C1012 1.370 . S
C1013 C1017 1.408 . S
C1014 C1012 1.363 . S
C1014 C1015 1.370 . S
C1014 C1018 1.524 . S
C1015 C1007 1.503 . S
C1015 C1014 1.370 . S
C1015 C1016 1.403 . S
C1016 C1015 1.403 . S
C1016 C1017 1.404 . S
C1016 C1019 1.539 . S
C1017 C1013 1.408 . S
C1017 C1016 1.404 . S
C1017 H1029 0.930 . S
C1018 C1014 1.524 . S
C1018 H1030 0.956 . S
C1018 H1031 0.961 . S
C1018 H1032 0.961 . S
C1019 C1016 1.539 . S
C1019 H1033 0.958 . S
C1019 H1034 0.961 . S
C1019 H1035 0.960 . S
H1020 C1004 0.931 . S
H1021 C1009 0.929 . S
H1022 C1010 0.960 . S
H1023 C1010 0.962 . S
H1024 C1010 0.960 . S
H1025 C1011 0.961 . S
H1026 C1011 0.961 . S
H1027 C1011 0.961 . S
H1028 C1012 0.931 . S
H1029 C1017 0.930 . S
H1030 C1018 0.956 . S
H1031 C1018 0.961 . S
H1032 C1018 0.961 . S
H1033 C1019 0.958 . S
H1034 C1019 0.961 . S
H1035 C1019 0.960 . S
C1036 C1037 1.391 . S
C1036 C1038 1.394 . S
C1036 H1052 0.931 . S
C1037 C1036 1.391 . S
C1037 C1041 1.376 1_655 S
C1038 C1036 1.394 . S
C1038 C1039 1.369 1_655 S
C1038 C1042 1.531 . S
C1039 C1038 1.369 1_455 S
C1039 C1040 1.410 . S
C1039 C1047 1.503 . S
C1040 C1039 1.410 . S
C1040 C1041 1.392 . S
C1040 C1043 1.511 1_556 S
C1041 C1037 1.376 1_455 S
C1041 C1040 1.392 . S
C1041 H1053 0.929 1_556 S
C1042 C1038 1.531 . S
C1042 H1054 0.960 . S
C1042 H1055 0.962 . S
C1042 H1056 0.960 . S
C1043 C1040 1.511 1_554 S
C1043 H1057 0.961 . S
C1043 H1058 0.961 . S
C1043 H1059 0.961 1_554 S
C1044 C1045 1.370 1_654 S
C1044 C1046 1.363 . S
C1044 H1060 0.931 . S
C1045 C1044 1.370 1_456 S
C1045 C1049 1.408 . S
C1046 C1044 1.363 . S
C1046 C1047 1.370 1_654 S
C1046 C1050 1.524 . S
C1047 C1039 1.503 . S
C1047 C1046 1.370 1_456 S
C1047 C1048 1.403 . S
C1048 C1047 1.403 . S
C1048 C1049 1.404 . S
C1048 C1051 1.539 . S
C1049 C1045 1.408 . S
C1049 C1048 1.404 . S
C1049 H1061 0.930 . S
C1050 C1046 1.524 . S
C1050 H1062 0.956 . S
C1050 H1063 0.961 . S
C1050 H1064 0.961 . S
C1051 C1048 1.539 . S
C1051 H1065 0.958 . S
C1051 H1066 0.961 . S
C1051 H1067 0.960 . S
H1052 C1036 0.931 . S
H1053 C1041 0.929 1_554 S
H1054 C1042 0.960 . S
H1055 C1042 0.962 . S
H1056 C1042 0.960 . S
H1057 C1043 0.961 . S
H1058 C1043 0.961 . S
H1059 C1043 0.961 1_556 S
H1060 C1044 0.931 . S
H1061 C1049 0.930 . S
H1062 C1050 0.956 . S
H1063 C1050 0.961 . S
H1064 C1050 0.961 . S
H1065 C1051 0.958 . S
H1066 C1051 0.961 . S
H1067 C1051 0.960 . S
C1068 C1069 1.391 . S
C1068 C1070 1.394 . S
C1068 H1084 0.931 . S
C1069 C1068 1.391 . S
C1069 C1073 1.376 . S
C1070 C1068 1.394 . S
C1070 C1071 1.369 . S
C1070 C1074 1.531 . S
C1071 C1070 1.369 . S
C1071 C1072 1.410 . S
C1071 C1079 1.503 . S
C1072 C1071 1.410 . S
C1072 C1073 1.392 . S
C1072 C1075 1.511 . S
C1073 C1069 1.376 . S
C1073 C1072 1.392 . S
C1073 H1085 0.929 . S
C1074 C1070 1.531 . S
C1074 H1086 0.963 . S
C1074 H1087 0.962 . S
C1074 H1088 0.960 1_554 S
C1075 C1072 1.511 . S
C1075 H1089 0.961 . S
C1075 H1090 0.961 . S
C1075 H1091 0.961 . S
C1076 C1077 1.370 . S
C1076 C1078 1.363 . S
C1076 H1092 0.931 . S
C1077 C1076 1.370 . S
C1077 C1081 1.408 . S
C1078 C1076 1.363 . S
C1078 C1079 1.370 . S
C1078 C1082 1.524 . S
C1079 C1071 1.503 . S
C1079 C1078 1.370 . S
C1079 C1080 1.403 . S
C1080 C1079 1.403 . S
C1080 C1081 1.404 . S
C1080 C1083 1.539 1_554 S
C1081 C1077 1.408 . S
C1081 C1080 1.404 . S
C1081 H1093 0.930 . S
C1082 C1078 1.524 . S
C1082 H1094 0.956 . S
C1082 H1095 0.961 . S
C1082 H1096 0.961 . S
C1083 C1080 1.539 1_556 S
C1083 H1097 0.958 . S
C1083 H1098 0.961 . S
C1083 H1099 0.960 . S
H1084 C1068 0.931 . S
H1085 C1073 0.929 . S
H1086 C1074 0.963 . S
H1087 C1074 0.962 . S
H1088 C1074 0.960 1_556 S
H1089 C1075 0.961 . S
H1090 C1075 0.961 . S
H1091 C1075 0.961 . S
H1092 C1076 0.931 . S
H1093 C1081 0.930 . S
H1094 C1082 0.956 . S
H1095 C1082 0.961 . S
H1096 C1082 0.961 . S
H1097 C1083 0.958 . S
H1098 C1083 0.961 . S
H1099 C1083 0.960 . S
C1100 C1101 1.391 . S
C1100 C1102 1.394 . S
C1100 H1116 0.931 1_455 S
C1101 C1100 1.391 . S
C1101 C1105 1.376 . S
C1102 C1100 1.394 . S
C1102 C1103 1.369 . S
C1102 C1106 1.531 1_455 S
C1103 C1102 1.369 . S
C1103 C1104 1.410 . S
C1103 C1111 1.503 . S
C1104 C1103 1.410 . S
C1104 C1105 1.392 . S
C1104 C1107 1.511 . S
C1105 C1101 1.376 . S
C1105 C1104 1.392 . S
C1105 H1117 0.929 . S
C1106 C1102 1.531 1_655 S
C1106 H1118 0.960 . S
C1106 H1119 0.962 . S
C1106 H1120 0.960 . S
C1107 C1104 1.511 . S
C1107 H1121 0.961 . S
C1107 H1122 0.961 . S
C1107 H1123 0.961 . S
C1108 C1109 1.370 . S
C1108 C1110 1.363 . S
C1108 H1124 0.931 . S
C1109 C1108 1.370 . S
C1109 C1113 1.408 . S
C1110 C1108 1.363 . S
C1110 C1111 1.370 . S
C1110 C1114 1.524 . S
C1111 C1103 1.503 . S
C1111 C1110 1.370 . S
C1111 C1112 1.403 . S
C1112 C1111 1.403 . S
C1112 C1113 1.404 . S
C1112 C1115 1.539 . S
C1113 C1109 1.408 . S
C1113 C1112 1.404 . S
C1113 H1125 0.930 . S
C1114 C1110 1.524 . S
C1114 H1126 0.956 1_455 S
C1114 H1127 0.961 . S
C1114 H1128 0.961 . S
C1115 C1112 1.539 . S
C1115 H1129 0.958 . S
C1115 H1130 0.961 . S
C1115 H1131 0.960 . S
H1116 C1100 0.931 1_655 S
H1117 C1105 0.929 . S
H1118 C1106 0.960 . S
H1119 C1106 0.962 . S
H1120 C1106 0.960 . S
H1121 C1107 0.961 . S
H1122 C1107 0.961 . S
H1123 C1107 0.961 . S
H1124 C1108 0.931 . S
H1125 C1113 0.930 . S
H1126 C1114 0.956 1_655 S
H1127 C1114 0.961 . S
H1128 C1114 0.961 . S
H1129 C1115 0.958 . S
H1130 C1115 0.961 . S
H1131 C1115 0.960 . S
C1132 C1133 1.391 . S
C1132 C1134 1.394 . S
C1132 H1148 0.931 . S
C1133 C1132 1.391 . S
C1133 C1137 1.376 . S
C1134 C1132 1.394 . S
C1134 C1135 1.369 . S
C1134 C1138 1.531 . S
C1135 C1134 1.369 . S
C1135 C1136 1.410 . S
C1135 C1143 1.503 . S
C1136 C1135 1.410 . S
C1136 C1137 1.392 . S
C1136 C1139 1.511 . S
C1137 C1133 1.376 . S
C1137 C1136 1.392 . S
C1137 H1149 0.929 . S
C1138 C1134 1.531 . S
C1138 H1150 0.960 . S
C1138 H1151 0.962 . S
C1138 H1152 0.960 . S
C1139 C1136 1.511 . S
C1139 H1153 0.961 . S
C1139 H1154 0.961 . S
C1139 H1155 0.961 . S
C1140 C1141 1.370 . S
C1140 C1142 1.363 . S
C1140 H1156 0.931 . S
C1141 C1140 1.370 . S
C1141 C1145 1.408 . S
C1142 C1140 1.363 . S
C1142 C1143 1.370 . S
C1142 C1146 1.524 . S
C1143 C1135 1.503 . S
C1143 C1142 1.370 . S
C1143 C1144 1.403 . S
C1144 C1143 1.403 . S
C1144 C1145 1.404 . S
C1144 C1147 1.539 . S
C1145 C1141 1.408 . S
C1145 C1144 1.404 . S
C1145 H1157 0.930 . S
C1146 C1142 1.524 . S
C1146 H1158 0.956 . S
C1146 H1159 0.961 . S
C1146 H1160 0.961 . S
C1147 C1144 1.539 . S
C1147 H1161 0.958 . S
C1147 H1162 0.961 . S
C1147 H1163 0.960 . S
H1148 C1132 0.931 . S
H1149 C1137 0.929 . S
H1150 C1138 0.960 . S
H1151 C1138 0.962 . S
H1152 C1138 0.960 . S
H1153 C1139 0.961 . S
H1154 C1139 0.961 . S
H1155 C1139 0.961 . S
H1156 C1140 0.931 . S
H1157 C1145 0.930 . S
H1158 C1146 0.956 . S
H1159 C1146 0.961 . S
H1160 C1146 0.961 . S
H1161 C1147 0.958 . S
H1162 C1147 0.961 . S
H1163 C1147 0.960 . S
C397 C1 1.545 . S
C405 C315 1.434 . S
C429 C40 1.505 . S
C437 C349 1.399 . S
C469 C361 1.415 . S
C461 C99 1.501 . S
C493 C118 1.498 . S
C501 C395 1.400 . S
C533 C352 1.432 . S
C525 C16 1.538 . S
C565 C332 1.385 . S
C557 C60 1.505 . S
C597 C379 1.415 . S
C589 C79 1.506 . S
C629 C370 1.402 . S
C621 C138 1.486 . S
C653 C21 1.529 . S
C661 C378 1.411 . S
C693 C340 1.393 . S
C685 C94 1.510 . S
C717 C133 1.492 . S
C725 C316 1.373 . S
C749 C55 1.514 . S
C757 C373 1.420 . S
C789 C331 1.642 . S
C781 C157 1.693 . S
C813 C196 1.686 . S
C821 C353 1.629 . S
C845 C255 1.739 . S
C853 C358 1.649 . S
C877 C289 1.701 . S
C885 C391 1.652 . S
C909 C172 1.727 . S
C917 C336 1.640 . S
C949 C328 1.639 . S
C941 C216 1.751 . S
C981 C382 1.664 . S
C973 C235 1.766 . S
C1013 C374 1.623 . S
C1005 C294 1.660 . S
C1037 C177 1.686 . S
C1045 C394 1.601 . S
C1077 C337 1.675 . S
C1069 C250 1.754 . S
C1109 C319 1.625 . S
C1101 C274 1.707 . S
C1133 C211 1.704 . S
C1141 C357 1.620 . S
