# Generated by pormake.
# Topology pyr, (3,6)-cn, num edge types: 1
# Building blocks:
#     Node 0, Type 0, BuildingBlock: KAKCAD_clean_linker_0, # of connection points: 3
#     Node 1, Type 0, BuildingBlock: KAKCAD_clean_linker_0, # of connection points: 3
#     Node 2, Type 0, BuildingBlock: KAKCAD_clean_linker_0, # of connection points: 3
#     Node 3, Type 0, BuildingBlock: KAKCAD_clean_linker_0, # of connection points: 3
#     Node 4, Type 0, BuildingBlock: KAKCAD_clean_linker_0, # of connection points: 3
#     Node 5, Type 0, BuildingBlock: KAKCAD_clean_linker_0, # of connection points: 3
#     Node 6, Type 0, BuildingBlock: KAKCAD_clean_linker_0, # of connection points: 3
#     Node 7, Type 0, BuildingBlock: KAKCAD_clean_linker_0, # of connection points: 3
#     Node 8, Type 1, BuildingBlock: VOLQOD_clean_sbu_1, # of connection points: 6
#     Node 9, Type 1, BuildingBlock: VOLQOD_clean_sbu_1, # of connection points: 6
#     Node 10, Type 1, BuildingBlock: VOLQOD_clean_sbu_1, # of connection points: 6
#     Node 11, Type 1, BuildingBlock: VOLQOD_clean_sbu_1, # of connection points: 6
#     Edge 12, Type (0, 1), BuildingBlock: KIFKEQ_clean_linker_1, # of connection points: 2
#     Edge 13, Type (0, 1), BuildingBlock: KIFKEQ_clean_linker_1, # of connection points: 2
#     Edge 14, Type (0, 1), BuildingBlock: KIFKEQ_clean_linker_1, # of connection points: 2
#     Edge 15, Type (0, 1), BuildingBlock: KIFKEQ_clean_linker_1, # of connection points: 2
#     Edge 16, Type (0, 1), BuildingBlock: KIFKEQ_clean_linker_1, # of connection points: 2
#     Edge 17, Type (0, 1), BuildingBlock: KIFKEQ_clean_linker_1, # of connection points: 2
#     Edge 18, Type (0, 1), BuildingBlock: KIFKEQ_clean_linker_1, # of connection points: 2
#     Edge 19, Type (0, 1), BuildingBlock: KIFKEQ_clean_linker_1, # of connection points: 2
#     Edge 20, Type (0, 1), BuildingBlock: KIFKEQ_clean_linker_1, # of connection points: 2
#     Edge 21, Type (0, 1), BuildingBlock: KIFKEQ_clean_linker_1, # of connection points: 2
#     Edge 22, Type (0, 1), BuildingBlock: KIFKEQ_clean_linker_1, # of connection points: 2
#     Edge 23, Type (0, 1), BuildingBlock: KIFKEQ_clean_linker_1, # of connection points: 2
#     Edge 24, Type (0, 1), BuildingBlock: KIFKEQ_clean_linker_1, # of connection points: 2
#     Edge 25, Type (0, 1), BuildingBlock: KIFKEQ_clean_linker_1, # of connection points: 2
#     Edge 26, Type (0, 1), BuildingBlock: KIFKEQ_clean_linker_1, # of connection points: 2
#     Edge 27, Type (0, 1), BuildingBlock: KIFKEQ_clean_linker_1, # of connection points: 2
#     Edge 28, Type (0, 1), BuildingBlock: KIFKEQ_clean_linker_1, # of connection points: 2
#     Edge 29, Type (0, 1), BuildingBlock: KIFKEQ_clean_linker_1, # of connection points: 2
#     Edge 30, Type (0, 1), BuildingBlock: KIFKEQ_clean_linker_1, # of connection points: 2
#     Edge 31, Type (0, 1), BuildingBlock: KIFKEQ_clean_linker_1, # of connection points: 2
#     Edge 32, Type (0, 1), BuildingBlock: KIFKEQ_clean_linker_1, # of connection points: 2
#     Edge 33, Type (0, 1), BuildingBlock: KIFKEQ_clean_linker_1, # of connection points: 2
#     Edge 34, Type (0, 1), BuildingBlock: KIFKEQ_clean_linker_1, # of connection points: 2
#     Edge 35, Type (0, 1), BuildingBlock: KIFKEQ_clean_linker_1, # of connection points: 2
# Relax obj value: 0.035
# Max RMSD: 0.119
# Mean RMSD: 0.043
data_MOF--net-pry--node1-VOLQOD_clean_sbu_1--node2-KAKCAD_clean_linker_0--edge1-KIFKEQ_clean_linker_1
_symmetry_space_group_name_H-M    P1
_symmetry_Int_Tables_number       1
_symmetry_cell_setting            triclinic
loop_
_symmetry_equiv_pos_as_xyz
'x, y, z'
_cell_length_a     46.279957
_cell_length_b     46.236236
_cell_length_c     46.407396
_cell_angle_alpha  90.288639
_cell_angle_beta   89.868883
_cell_angle_gamma 90.25325
loop_
_atom_site_label
_atom_site_type_symbol
_atom_site_fract_x
_atom_site_fract_y
_atom_site_fract_z
_atom_type_partial_charge
C0 C 0.07332 0.1096 0.2228 0.0
C1 C 0.09167 0.10652 0.24667 0.0
C2 C 0.0842 0.11976 0.19656 0.0
C3 C 0.11367 0.1266 0.19366 0.0
C4 C 0.13197 0.12348 0.21754 0.0
C5 C 0.12106 0.11366 0.2438 0.0
C6 C 0.12555 0.13681 0.16583 0.0
C7 C 0.11196 0.15912 0.1506 0.0
C8 C 0.12433 0.17001 0.12517 0.0
C9 C 0.14984 0.15762 0.11441 0.0
C10 C 0.16341 0.13513 0.12924 0.0
C11 C 0.15131 0.12498 0.15501 0.0
C12 C 0.19078 0.12288 0.11832 0.0
C13 C 0.19283 0.1126 0.08987 0.0
C14 C 0.21508 0.12156 0.13632 0.0
C15 C 0.24111 0.11043 0.12594 0.0
C16 C 0.24312 0.09994 0.09756 0.0
C17 C 0.11191 0.19568 0.11097 0.0
C18 C 0.08236 0.19697 0.10437 0.0
C19 C 0.1297 0.21943 0.10451 0.0
C20 C 0.1182 0.24413 0.09189 0.0
C21 C 0.08864 0.24555 0.08499 0.0
C22 C 0.07087 0.22158 0.0913 0.0
C23 C 0.21873 0.10094 0.07965 0.0
H24 H 0.05054 0.1044 0.22451 0.0
H25 H 0.06968 0.12188 0.17842 0.0
H26 H 0.15472 0.12885 0.21598 0.0
H27 H 0.13573 0.11127 0.26178 0.0
H28 H 0.09257 0.16898 0.15929 0.0
H29 H 0.16183 0.10761 0.16651 0.0
H30 H 0.15951 0.16593 0.0948 0.0
H31 H 0.1743 0.11334 0.07567 0.0
H32 H 0.21401 0.12952 0.15829 0.0
H33 H 0.25963 0.10973 0.14016 0.0
H34 H 0.06825 0.17883 0.10905 0.0
H35 H 0.15248 0.21915 0.10985 0.0
H36 H 0.21986 0.09308 0.05765 0.0
H37 H 0.04811 0.22167 0.08596 0.0
H38 H 0.13247 0.26234 0.08811 0.0
C39 C 0.39535 0.92534 0.7378 0.0
C40 C 0.42474 0.92244 0.74478 0.0
C41 C 0.38489 0.9159 0.7112 0.0
C42 C 0.40362 0.9038 0.69054 0.0
C43 C 0.43317 0.90161 0.69718 0.0
C44 C 0.44357 0.91064 0.72403 0.0
C45 C 0.39204 0.89253 0.66272 0.0
C46 C 0.36869 0.90622 0.64924 0.0
C47 C 0.35554 0.89409 0.62474 0.0
C48 C 0.36723 0.86882 0.61258 0.0
C49 C 0.391 0.85505 0.62533 0.0
C50 C 0.40303 0.86695 0.65054 0.0
C51 C 0.40225 0.82734 0.61342 0.0
C52 C 0.38321 0.80619 0.60256 0.0
C53 C 0.43204 0.82145 0.61362 0.0
C54 C 0.44247 0.79486 0.60375 0.0
C55 C 0.42338 0.77359 0.59319 0.0
C56 C 0.3282 0.90642 0.61343 0.0
C57 C 0.30682 0.91617 0.63269 0.0
C58 C 0.32253 0.90719 0.58368 0.0
C59 C 0.29583 0.91685 0.57352 0.0
C60 C 0.27426 0.92597 0.59289 0.0
C61 C 0.28028 0.92594 0.62255 0.0
C62 C 0.39365 0.77976 0.5924 0.0
H63 H 0.38024 0.93485 0.75293 0.0
H64 H 0.36193 0.91755 0.70716 0.0
H65 H 0.44832 0.89278 0.68169 0.0
H66 H 0.46629 0.90777 0.72868 0.0
H67 H 0.36039 0.92628 0.65807 0.0
H68 H 0.42016 0.85549 0.66144 0.0
H69 H 0.35729 0.85939 0.59361 0.0
H70 H 0.3601 0.80974 0.60242 0.0
H71 H 0.44737 0.83737 0.62151 0.0
H72 H 0.46546 0.7908 0.60495 0.0
H73 H 0.31021 0.91551 0.65576 0.0
H74 H 0.33863 0.90011 0.56825 0.0
H75 H 0.37833 0.76413 0.58395 0.0
H76 H 0.26437 0.93328 0.63806 0.0
H77 H 0.29184 0.91644 0.55054 0.0
C78 C 0.70988 0.44797 0.92136 0.0
C79 C 0.7316 0.43045 0.93292 0.0
C80 C 0.68425 0.43564 0.91104 0.0
C81 C 0.68007 0.40545 0.91155 0.0
C82 C 0.70194 0.38805 0.92333 0.0
C83 C 0.72727 0.40044 0.93413 0.0
C84 C 0.65358 0.392 0.89899 0.0
C85 C 0.64084 0.40356 0.87409 0.0
C86 C 0.61704 0.38989 0.86106 0.0
C87 C 0.60567 0.36453 0.87319 0.0
C88 C 0.61804 0.35274 0.89802 0.0
C89 C 0.64174 0.36664 0.91092 0.0
C90 C 0.60732 0.32494 0.90956 0.0
C91 C 0.57791 0.32102 0.91608 0.0
C92 C 0.62655 0.30192 0.91357 0.0
C93 C 0.6165 0.27525 0.9235 0.0
C94 C 0.58714 0.27132 0.93011 0.0
C95 C 0.60538 0.4011 0.83368 0.0
C96 C 0.59743 0.43026 0.83121 0.0
C97 C 0.6032 0.38284 0.80951 0.0
C98 C 0.5938 0.3937 0.78313 0.0
C99 C 0.58592 0.42287 0.78062 0.0
C100 C 0.58746 0.441 0.80494 0.0
C101 C 0.56795 0.29448 0.92659 0.0
H102 H 0.71271 0.47122 0.9204 0.0
H103 H 0.66776 0.4498 0.90265 0.0
H104 H 0.69993 0.36471 0.92355 0.0
H105 H 0.74391 0.38646 0.9426 0.0
H106 H 0.65022 0.42244 0.8639 0.0
H107 H 0.65089 0.35757 0.93033 0.0
H108 H 0.58762 0.35361 0.8629 0.0
H109 H 0.56274 0.33853 0.91318 0.0
H110 H 0.64929 0.30441 0.90849 0.0
H111 H 0.6317 0.25771 0.92618 0.0
H112 H 0.59892 0.44471 0.84961 0.0
H113 H 0.60945 0.36034 0.81085 0.0
H114 H 0.54518 0.29184 0.93146 0.0
H115 H 0.5816 0.4636 0.80344 0.0
H116 H 0.59263 0.3793 0.76468 0.0
C117 C 0.90182 0.5844 0.28291 0.0
C118 C 0.93147 0.58685 0.27705 0.0
C119 C 0.8906 0.59408 0.30916 0.0
C120 C 0.90888 0.60595 0.33039 0.0
C121 C 0.9387 0.60796 0.32455 0.0
C122 C 0.94983 0.59875 0.29804 0.0
C123 C 0.89677 0.61669 0.35822 0.0
C124 C 0.87299 0.60275 0.37105 0.0
C125 C 0.86061 0.61358 0.39647 0.0
C126 C 0.87265 0.6381 0.40975 0.0
C127 C 0.89622 0.65261 0.39718 0.0
C128 C 0.90811 0.64173 0.37142 0.0
C129 C 0.90723 0.68015 0.4098 0.0
C130 C 0.88791 0.70074 0.42106 0.0
C131 C 0.93697 0.68661 0.40968 0.0
C132 C 0.94705 0.71324 0.42001 0.0
C133 C 0.92765 0.73387 0.43091 0.0
C134 C 0.83351 0.60086 0.40773 0.0
C135 C 0.80957 0.59777 0.38942 0.0
C136 C 0.83082 0.59318 0.43686 0.0
C137 C 0.80449 0.58274 0.44753 0.0
C138 C 0.78036 0.58048 0.42934 0.0
C139 C 0.78317 0.5879 0.40018 0.0
C140 C 0.89802 0.72723 0.43161 0.0
H141 H 0.88719 0.57563 0.26686 0.0
H142 H 0.86747 0.59277 0.31248 0.0
H143 H 0.95353 0.61651 0.34051 0.0
H144 H 0.97282 0.60066 0.29403 0.0
H145 H 0.86389 0.58342 0.3613 0.0
H146 H 0.9254 0.65355 0.36093 0.0
H147 H 0.86301 0.64638 0.42941 0.0
H148 H 0.86483 0.69679 0.42098 0.0
H149 H 0.95247 0.67108 0.40155 0.0
H150 H 0.97005 0.71768 0.41952 0.0
H151 H 0.81106 0.60381 0.36693 0.0
H152 H 0.84903 0.5954 0.45134 0.0
H153 H 0.88253 0.74289 0.43952 0.0
H154 H 0.76485 0.58619 0.38576 0.0
H155 H 0.80272 0.57721 0.47013 0.0
C156 C 0.94897 0.932 0.80694 0.0
C157 C 0.94415 0.96099 0.79969 0.0
C158 C 0.94098 0.92157 0.8339 0.0
C159 C 0.92828 0.93993 0.85459 0.0
C160 C 0.92396 0.96917 0.84753 0.0
C161 C 0.93167 0.97957 0.82025 0.0
C162 C 0.91791 0.92771 0.88242 0.0
C163 C 0.93298 0.90487 0.89534 0.0
C164 C 0.9206 0.8887 0.91779 0.0
C165 C 0.89375 0.89735 0.92901 0.0
C166 C 0.87911 0.92119 0.91755 0.0
C167 C 0.89124 0.93622 0.89421 0.0
C168 C 0.84983 0.92862 0.9281 0.0
C169 C 0.82875 0.90688 0.93109 0.0
C170 C 0.84254 0.95739 0.93465 0.0
C171 C 0.81466 0.96425 0.94411 0.0
C172 C 0.79351 0.94251 0.94672 0.0
C173 C 0.93391 0.86092 0.92696 0.0
C174 C 0.94741 0.84294 0.90646 0.0
C175 C 0.93131 0.85099 0.95547 0.0
C176 C 0.94067 0.82327 0.96288 0.0
C177 C 0.95314 0.80496 0.94203 0.0
C178 C 0.95716 0.81553 0.91397 0.0
C179 C 0.80086 0.91377 0.94019 0.0
H180 H 0.95799 0.91704 0.79132 0.0
H181 H 0.94387 0.89874 0.83806 0.0
H182 H 0.91445 0.98398 0.86297 0.0
H183 H 0.92784 0.00207 0.8152 0.0
H184 H 0.95403 0.8989 0.88705 0.0
H185 H 0.87893 0.95327 0.88412 0.0
H186 H 0.88357 0.8849 0.94597 0.0
H187 H 0.8337 0.88458 0.92589 0.0
H188 H 0.85845 0.97451 0.93255 0.0
H189 H 0.80947 0.9866 0.94886 0.0
H190 H 0.94949 0.84945 0.88417 0.0
H191 H 0.92146 0.86436 0.97197 0.0
H192 H 0.78502 0.89657 0.94222 0.0
H193 H 0.96729 0.80236 0.89748 0.0
H194 H 0.93711 0.81586 0.9847 0.0
C195 C 0.56925 0.0413 0.32588 0.0
C196 C 0.56338 0.06072 0.30335 0.0
C197 C 0.57839 0.05154 0.35283 0.0
C198 C 0.58138 0.08137 0.35785 0.0
C199 C 0.57514 0.10073 0.33555 0.0
C200 C 0.56646 0.09056 0.30863 0.0
C201 C 0.59255 0.09276 0.38554 0.0
C202 C 0.61867 0.08245 0.39673 0.0
C203 C 0.63213 0.09683 0.41982 0.0
C204 C 0.61887 0.12121 0.43214 0.0
C205 C 0.59238 0.13144 0.42161 0.0
C206 C 0.57916 0.11665 0.3986 0.0
C207 C 0.5801 0.15909 0.43266 0.0
C208 C 0.58295 0.16707 0.46185 0.0
C209 C 0.56692 0.17862 0.41361 0.0
C210 C 0.55735 0.20551 0.42334 0.0
C211 C 0.5612 0.21376 0.45219 0.0
C212 C 0.66152 0.08837 0.42895 0.0
C213 C 0.66817 0.05935 0.43466 0.0
C214 C 0.68341 0.10941 0.43105 0.0
C215 C 0.71149 0.10157 0.43838 0.0
C216 C 0.71822 0.07258 0.44401 0.0
C217 C 0.69627 0.05154 0.44238 0.0
C218 C 0.57385 0.19426 0.47145 0.0
H219 H 0.56681 0.0182 0.32273 0.0
H220 H 0.58309 0.0362 0.36973 0.0
H221 H 0.5779 0.12382 0.33864 0.0
H222 H 0.563 0.1062 0.29172 0.0
H223 H 0.62957 0.06461 0.38613 0.0
H224 H 0.55877 0.12419 0.39011 0.0
H225 H 0.6299 0.13285 0.44923 0.0
H226 H 0.59252 0.15246 0.47725 0.0
H227 H 0.56492 0.17368 0.39088 0.0
H228 H 0.54801 0.22038 0.40802 0.0
H229 H 0.65163 0.04276 0.43318 0.0
H230 H 0.67895 0.13189 0.42641 0.0
H231 H 0.57686 0.20016 0.49387 0.0
H232 H 0.70098 0.02901 0.44649 0.0
H233 H 0.72799 0.11823 0.4397 0.0
C234 C 0.29968 0.56169 0.09442 0.0
C235 C 0.29415 0.56622 0.06507 0.0
C236 C 0.32618 0.56974 0.10638 0.0
C237 C 0.34794 0.58223 0.08919 0.0
C238 C 0.34267 0.58592 0.05957 0.0
C239 C 0.31598 0.57817 0.04768 0.0
C240 C 0.37525 0.59288 0.10255 0.0
C241 C 0.38783 0.57793 0.12559 0.0
C242 C 0.41138 0.58967 0.14083 0.0
C243 C 0.42363 0.61587 0.13134 0.0
C244 C 0.41193 0.63083 0.10778 0.0
C245 C 0.38753 0.61926 0.09381 0.0
C246 C 0.42393 0.65937 0.09877 0.0
C247 C 0.43417 0.67938 0.11937 0.0
C248 C 0.42429 0.66729 0.06951 0.0
C249 C 0.43376 0.69474 0.06119 0.0
C250 C 0.44362 0.71468 0.08186 0.0
C251 C 0.42134 0.57608 0.16815 0.0
C252 C 0.40118 0.56327 0.18697 0.0
C253 C 0.45048 0.57751 0.17671 0.0
C254 C 0.4589 0.56773 0.20391 0.0
C255 C 0.43847 0.55592 0.22308 0.0
C256 C 0.40968 0.55306 0.21386 0.0
C257 C 0.44414 0.70664 0.11096 0.0
H258 H 0.28309 0.5529 0.10841 0.0
H259 H 0.32914 0.5671 0.12935 0.0
H260 H 0.35907 0.59505 0.0456 0.0
H261 H 0.31234 0.58164 0.02491 0.0
H262 H 0.37887 0.55726 0.13202 0.0
H263 H 0.37719 0.63155 0.07694 0.0
H264 H 0.44181 0.62511 0.14281 0.0
H265 H 0.43372 0.67441 0.14214 0.0
H266 H 0.41712 0.65231 0.05297 0.0
H267 H 0.43342 0.70041 0.03856 0.0
H268 H 0.37848 0.56203 0.1815 0.0
H269 H 0.46676 0.5867 0.16265 0.0
H270 H 0.45135 0.72181 0.12732 0.0
H271 H 0.39342 0.54345 0.22768 0.0
H272 H 0.48126 0.57043 0.21023 0.0
C273 C 0.09457 0.29976 0.58532 0.0
C274 C 0.06484 0.29353 0.58545 0.0
C275 C 0.10453 0.32774 0.5906 0.0
C276 C 0.08504 0.3504 0.59585 0.0
C277 C 0.05523 0.34433 0.59572 0.0
C278 C 0.04522 0.31616 0.59051 0.0
C279 C 0.09621 0.37986 0.6025 0.0
C280 C 0.12079 0.39039 0.58809 0.0
C281 C 0.13443 0.41602 0.59704 0.0
C282 C 0.12249 0.43201 0.61985 0.0
C283 C 0.09768 0.42206 0.63432 0.0
C284 C 0.08446 0.39614 0.6253 0.0
C285 C 0.08782 0.43668 0.66105 0.0
C286 C 0.10796 0.4441 0.68246 0.0
C287 C 0.05835 0.44177 0.66616 0.0
C288 C 0.04919 0.45378 0.69235 0.0
C289 C 0.06932 0.46064 0.71407 0.0
C290 C 0.16311 0.42395 0.58516 0.0
C291 C 0.18472 0.40279 0.58298 0.0
C292 C 0.16974 0.45263 0.57766 0.0
C293 C 0.19765 0.46005 0.56852 0.0
C294 C 0.2194 0.43897 0.56723 0.0
C295 C 0.21257 0.41024 0.57421 0.0
C296 C 0.09883 0.4558 0.70866 0.0
H297 H 0.11028 0.28297 0.58103 0.0
H298 H 0.12765 0.33145 0.59107 0.0
H299 H 0.03968 0.36134 0.59961 0.0
H300 H 0.02217 0.31202 0.59091 0.0
H301 H 0.13 0.37809 0.5704 0.0
H302 H 0.06627 0.38763 0.6374 0.0
H303 H 0.13335 0.45146 0.62734 0.0
H304 H 0.13076 0.43987 0.67937 0.0
H305 H 0.04241 0.43634 0.64993 0.0
H306 H 0.02634 0.45756 0.69561 0.0
H307 H 0.18035 0.38058 0.58898 0.0
H308 H 0.15344 0.46932 0.57913 0.0
H309 H 0.11492 0.46012 0.72504 0.0
H310 H 0.2289 0.39355 0.57316 0.0
H311 H 0.20246 0.48238 0.56334 0.0
O312 O 0.98996 0.07647 0.53937 0.0
Zn313 Zn 0.97459 0.03573 0.53594 0.0
O314 O 0.0006 0.01144 0.51305 0.0
Zn315 Zn 0.98163 3e-05 0.47713 0.0
Zn316 Zn 0.03586 0.03299 0.50436 0.0
Zn317 Zn 0.01041 0.97696 0.53491 0.0
O318 O 0.9797 0.95657 0.4733 0.0
O319 O 0.99521 0.94094 0.51568 0.0
O320 O 0.93488 0.03708 0.5183 0.0
O321 O 0.94061 0.01415 0.47652 0.0
O322 O 0.00214 0.01653 0.44243 0.0
O323 O 0.04045 0.03826 0.46164 0.0
O324 O 0.07137 0.01268 0.51884 0.0
O325 O 0.97079 0.02073 0.57645 0.0
O326 O 0.05349 0.9726 0.53816 0.0
O327 O 0.99479 0.9793 0.57537 0.0
C328 C 0.0146 0.08753 0.53389 0.0
C329 C 0.98469 0.93604 0.49079 0.0
C330 C 0.02545 0.03104 0.43977 0.0
C331 C 0.92485 0.02795 0.49438 0.0
C332 C 0.07494 0.98852 0.53136 0.0
C333 C 0.97985 0.99805 0.5889 0.0
O334 O 0.03447 0.07284 0.52178 0.0
O335 O 0.50543 0.06062 0.9864 0.0
Zn336 Zn 0.48655 0.0221 0.99382 0.0
O337 O 0.5102 0.99814 0.01884 0.0
Zn338 Zn 0.52499 0.96501 0.99717 0.0
Zn339 Zn 0.54233 0.02155 0.03356 0.0
Zn340 Zn 0.48649 0.98396 0.05068 0.0
O341 O 0.51239 0.92716 0.01487 0.0
O342 O 0.48193 0.94074 0.04936 0.0
O343 O 0.48012 0.00265 0.9556 0.0
O344 O 0.5099 0.96509 0.95643 0.0
O345 O 0.56829 0.96573 0.99567 0.0
O346 O 0.58066 0.00481 0.02089 0.0
O347 O 0.54142 0.02323 0.07694 0.0
O348 O 0.44783 0.03017 0.01183 0.0
O349 O 0.50468 0.99441 0.0887 0.0
O350 O 0.44687 0.0018 0.05028 0.0
C351 C 0.52614 0.0741 0.99858 0.0
C352 C 0.49437 0.92102 0.03472 0.0
C353 C 0.58748 0.98268 0.00592 0.0
C354 C 0.49155 0.98076 0.94341 0.0
C355 C 0.52576 0.01073 0.0958 0.0
C356 C 0.43488 0.02019 0.0339 0.0
O357 O 0.54118 0.06228 0.01819 0.0
O358 O 0.53513 0.50827 0.5709 0.0
Zn359 Zn 0.5296 0.52559 0.53143 0.0
O360 O 0.50519 0.50046 0.50747 0.0
Zn361 Zn 0.52792 0.48493 0.47529 0.0
Zn362 Zn 0.49002 0.46862 0.53055 0.0
Zn363 Zn 0.47284 0.52274 0.49264 0.0
O364 O 0.51074 0.49642 0.43692 0.0
O365 O 0.47455 0.52529 0.44952 0.0
O366 O 0.56893 0.53087 0.51353 0.0
O367 O 0.56865 0.50045 0.47631 0.0
O368 O 0.53011 0.44147 0.4769 0.0
O369 O 0.50244 0.43024 0.51441 0.0
O370 O 0.44667 0.46835 0.5315 0.0
O371 O 0.51184 0.56518 0.53667 0.0
O372 O 0.4345 0.50525 0.50374 0.0
O373 O 0.47289 0.56286 0.50894 0.0
C374 C 0.52316 0.48711 0.58385 0.0
C375 C 0.49011 0.51328 0.43026 0.0
C376 C 0.51857 0.42278 0.49344 0.0
C377 C 0.58157 0.51892 0.4922 0.0
C378 C 0.42754 0.48393 0.5196 0.0
C379 C 0.48926 0.57672 0.52618 0.0
O380 O 0.50476 0.4709 0.57126 0.0
O381 O 0.98086 0.51108 0.06308 0.0
Zn382 Zn 0.98478 0.49324 0.02368 0.0
O383 O 0.00857 0.51756 0.9987 0.0
Zn384 Zn 0.9845 0.53264 0.96769 0.0
Zn385 Zn 0.02489 0.54977 0.02101 0.0
Zn386 Zn 0.03998 0.49443 0.98251 0.0
O387 O 0.00029 0.52108 0.92875 0.0
O388 O 0.03894 0.49483 0.93921 0.0
O389 O 0.94472 0.48771 0.00753 0.0
O390 O 0.94381 0.51739 0.97009 0.0
O391 O 0.98271 0.57604 0.96935 0.0
O392 O 0.01254 0.58817 0.00488 0.0
O393 O 0.06836 0.54878 0.02106 0.0
O394 O 0.00227 0.45378 0.02834 0.0
O395 O 0.07883 0.50995 0.99482 0.0
O396 O 0.03788 0.45313 0.99617 0.0
C397 C 0.9931 0.53245 0.07552 0.0
C398 C 0.02203 0.50618 0.92088 0.0
C399 C 0.99524 0.59515 0.9848 0.0
C400 C 0.93138 0.49926 0.9866 0.0
C401 C 0.08676 0.53164 0.00989 0.0
C402 C 0.02255 0.44058 0.01525 0.0
O403 O 0.0111 0.54852 0.06225 0.0
H404 H 0.10143 0.12898 0.30015 0.0
H405 H 0.05665 0.05974 0.25604 0.0
H406 H 0.08475 0.11034 0.34629 0.0
H407 H 0.04049 0.04047 0.30229 0.0
H408 H 0.99444 0.03053 0.38953 0.0
H409 H 0.00937 0.04907 0.34268 0.0
H410 H 0.09321 0.07089 0.37767 0.0
H411 H 0.07797 0.05334 0.42458 0.0
C412 C 0.08814 0.10964 0.30039 0.0
C413 C 0.08042 0.09573 0.27456 0.0
C414 C 0.07867 0.09885 0.32682 0.0
C415 C 0.0615 0.0737 0.32808 0.0
C416 C 0.05341 0.06004 0.30214 0.0
C417 C 0.06268 0.07103 0.27564 0.0
C418 C 0.0161 0.03919 0.38716 0.0
C419 C 0.03495 0.04061 0.41084 0.0
C420 C 0.02471 0.04972 0.36026 0.0
C421 C 0.05243 0.0617 0.3564 0.0
C422 C 0.07147 0.06244 0.37997 0.0
C423 C 0.0628 0.05217 0.40687 0.0
H424 H 0.47705 0.94722 0.75894 0.0
H425 H 0.39684 0.91717 0.79668 0.0
H426 H 0.49425 0.96119 0.80679 0.0
H427 H 0.41365 0.93252 0.84401 0.0
H428 H 0.44263 0.99706 0.91532 0.0
H429 H 0.42725 0.98308 0.8669 0.0
H430 H 0.50528 0.93346 0.85581 0.0
H431 H 0.52064 0.94703 0.90451 0.0
C432 C 0.46312 0.94345 0.77732 0.0
C433 C 0.43544 0.93116 0.7738 0.0
C434 C 0.47296 0.95159 0.80466 0.0
C435 C 0.45515 0.94806 0.82891 0.0
C436 C 0.42759 0.93582 0.82552 0.0
C437 C 0.41794 0.92722 0.79834 0.0
C438 C 0.45659 0.98327 0.90255 0.0
C439 C 0.48281 0.97306 0.91374 0.0
C440 C 0.44771 0.9752 0.87493 0.0
C441 C 0.4651 0.9572 0.85779 0.0
C442 C 0.4916 0.94748 0.86864 0.0
C443 C 0.50026 0.95512 0.8965 0.0
H444 H 0.53665 0.45256 0.7685 0.0
H445 H 0.61442 0.41902 0.72949 0.0
H446 H 0.52081 0.4703 0.72135 0.0
H447 H 0.59886 0.43715 0.68254 0.0
H448 H 0.57301 0.50241 0.61155 0.0
H449 H 0.58813 0.48857 0.66004 0.0
H450 H 0.50735 0.4433 0.6724 0.0
H451 H 0.49233 0.45661 0.62376 0.0
C452 C 0.55039 0.44923 0.74986 0.0
C453 C 0.57666 0.43439 0.75247 0.0
C454 C 0.54132 0.45924 0.72298 0.0
C455 C 0.55869 0.45511 0.69845 0.0
C456 C 0.58521 0.44077 0.7012 0.0
C457 C 0.594 0.43027 0.72793 0.0
C458 C 0.55838 0.48971 0.62469 0.0
C459 C 0.53153 0.4805 0.61383 0.0
C460 C 0.5671 0.48171 0.65234 0.0
C461 C 0.54888 0.46489 0.66982 0.0
C462 C 0.52169 0.45643 0.65935 0.0
C463 C 0.51319 0.46393 0.6315 0.0
H464 H 0.9239 0.53481 0.25045 0.0
H465 H 0.96462 0.6182 0.24003 0.0
H466 H 0.94096 0.52016 0.20284 0.0
H467 H 0.98053 0.60437 0.19178 0.0
H468 H 0.02432 0.56444 0.11426 0.0
H469 H 0.01167 0.57587 0.164 0.0
H470 H 0.9316 0.5282 0.15425 0.0
H471 H 0.94505 0.51562 0.10517 0.0
C472 C 0.93644 0.55001 0.23781 0.0
C473 C 0.94296 0.57759 0.24876 0.0
C474 C 0.94607 0.54176 0.21045 0.0
C475 C 0.96196 0.56114 0.19321 0.0
C476 C 0.96878 0.58866 0.20451 0.0
C477 C 0.95957 0.59669 0.23209 0.0
C478 C 0.0041 0.55631 0.12286 0.0
C479 C 0.9857 0.53911 0.10582 0.0
C480 C 0.99673 0.563 0.15134 0.0
C481 C 0.97054 0.55304 0.16329 0.0
C482 C 0.95221 0.53579 0.14612 0.0
C483 C 0.95982 0.52871 0.11784 0.0
H484 H 0.25209 0.0476 0.07189 0.0
H485 H 0.29607 0.12562 0.09895 0.0
H486 H 0.29817 0.02752 0.05504 0.0
H487 H 0.34199 0.10575 0.08173 0.0
H488 H 0.40995 0.07059 0.01668 0.0
H489 H 0.36287 0.08972 0.031 0.0
H490 H 0.34683 0.01337 0.0818 0.0
H491 H 0.39414 0.99432 0.06795 0.0
C492 C 0.2716 0.06047 0.074 0.0
C493 C 0.27068 0.08808 0.08671 0.0
C494 C 0.29787 0.04897 0.06453 0.0
C495 C 0.32348 0.06516 0.0671 0.0
C496 C 0.32246 0.09296 0.07938 0.0
C497 C 0.29632 0.10422 0.08934 0.0
C498 C 0.39632 0.05778 0.03075 0.0
C499 C 0.40576 0.03098 0.04127 0.0
C500 C 0.36949 0.06881 0.03902 0.0
C501 C 0.35137 0.05299 0.05748 0.0
C502 C 0.36041 0.02587 0.06741 0.0
C503 C 0.38749 0.01508 0.05959 0.0
H504 H 0.26092 0.95831 0.54528 0.0
H505 H 0.22184 0.91315 0.61686 0.0
H506 H 0.21305 0.97238 0.52854 0.0
H507 H 0.17435 0.92843 0.60109 0.0
H508 H 0.09146 0.93554 0.55105 0.0
H509 H 0.13978 0.91983 0.56393 0.0
H510 H 0.17371 0.00402 0.54151 0.0
H511 H 0.12541 0.0195 0.52776 0.0
C512 C 0.24215 0.95137 0.55742 0.0
C513 C 0.24525 0.9347 0.58248 0.0
C514 C 0.21473 0.95971 0.54802 0.0
C515 C 0.18983 0.95157 0.56348 0.0
C516 C 0.19299 0.93479 0.58843 0.0
C517 C 0.22031 0.92637 0.59773 0.0
C518 C 0.10921 0.95071 0.54877 0.0
C519 C 0.10452 0.97884 0.53851 0.0
C520 C 0.13693 0.94173 0.5563 0.0
C521 C 0.16063 0.96072 0.55397 0.0
C522 C 0.15601 0.98873 0.54327 0.0
C523 C 0.12828 0.99766 0.53555 0.0
H524 H 0.76731 0.46618 0.90291 0.0
H525 H 0.7583 0.42291 0.98458 0.0
H526 H 0.81488 0.48386 0.91706 0.0
H527 H 0.80526 0.44176 -0.00037 0.0
H528 H 0.90336 0.45009 0.00338 0.0
H529 H 0.85442 0.43501 0.99145 0.0
H530 H 0.84142 0.5154 0.94605 0.0
H531 H 0.89096 0.52964 0.95672 0.0
C532 C 0.77537 0.46098 0.92416 0.0
C533 C 0.7593 0.44316 0.94265 0.0
C534 C 0.80259 0.47121 0.93239 0.0
C535 C 0.81413 0.46423 0.95953 0.0
C536 C 0.79746 0.44708 0.97834 0.0
C537 C 0.77047 0.43644 0.96986 0.0
C538 C 0.88997 0.46457 0.99095 0.0
C539 C 0.90105 0.49096 0.98084 0.0
C540 C 0.86177 0.45603 0.98425 0.0
C541 C 0.84378 0.47392 0.9677 0.0
C542 C 0.85473 0.50072 0.95828 0.0
C543 C 0.88311 0.50901 0.96455 0.0
H544 H 0.72967 0.60939 0.42558 0.0
H545 H 0.76732 0.53107 0.45863 0.0
H546 H 0.68215 0.59399 0.44314 0.0
H547 H 0.71952 0.51534 0.47579 0.0
H548 H 0.62109 0.48809 0.461 0.0
H549 H 0.67031 0.50267 0.44808 0.0
H550 H 0.65909 0.58302 0.49437 0.0
H551 H 0.61006 0.56837 0.50779 0.0
C552 C 0.72768 0.58889 0.43663 0.0
C553 C 0.75198 0.57134 0.44077 0.0
C554 C 0.70063 0.58018 0.44678 0.0
C555 C 0.69731 0.55353 0.46078 0.0
C556 C 0.72161 0.53595 0.46497 0.0
C557 C 0.74884 0.54495 0.45531 0.0
C558 C 0.62919 0.50878 0.46857 0.0
C559 C 0.61169 0.52714 0.48533 0.0
C560 C 0.65736 0.517 0.46132 0.0
C561 C 0.66833 0.54393 0.47024 0.0
C562 C 0.651 0.56218 0.48718 0.0
C563 C 0.62303 0.55374 0.49491 0.0
H564 H 0.03546 0.27015 0.09458 0.0
H565 H 0.11425 0.28164 0.04564 0.0
H566 H 0.01677 0.3149 0.0749 0.0
H567 H 0.09666 0.32751 0.02801 0.0
H568 H 0.05181 0.40023 0.98353 0.0
H569 H 0.06479 0.35136 0.99773 0.0
H570 H 0.02281 0.36474 0.08008 0.0
H571 H 0.00857 0.4129 0.06516 0.0
C572 C 0.04879 0.28208 0.07952 0.0
C573 C 0.07651 0.27224 0.07192 0.0
C574 C 0.03823 0.30808 0.06857 0.0
C575 C 0.05526 0.32514 0.05003 0.0
C576 C 0.0827 0.31493 0.04193 0.0
C577 C 0.09306 0.28875 0.05251 0.0
C578 C 0.04517 0.39257 0.00456 0.0
C579 C 0.02926 0.41043 0.02325 0.0
C580 C 0.05276 0.3646 0.01282 0.0
C581 C 0.0451 0.35401 0.0402 0.0
C582 C 0.02872 0.37181 0.05865 0.0
C583 C 0.02069 0.39958 0.05018 0.0
H584 H 0.59456 0.21911 0.9041 0.0
H585 H 0.55623 0.25969 0.97883 0.0
H586 H 0.57808 0.17175 0.9211 0.0
H587 H 0.54018 0.21212 0.99616 0.0
H588 H 0.55567 0.11579 0.02857 0.0
H589 H 0.56877 0.1644 0.01221 0.0
H590 H 0.52659 0.14778 0.93094 0.0
H591 H 0.51295 0.09943 0.94734 0.0
C592 C 0.58263 0.2178 0.92417 0.0
C593 C 0.57662 0.2429 0.94021 0.0
C594 C 0.57311 0.19082 0.93379 0.0
C595 C 0.55791 0.18842 0.95989 0.0
C596 C 0.55197 0.2135 0.97601 0.0
C597 C 0.56098 0.2406 0.96607 0.0
C598 C 0.54906 0.12257 0.00727 0.0
C599 C 0.53333 0.10379 0.98921 0.0
C600 C 0.55643 0.15039 0.99802 0.0
C601 C 0.54869 0.15967 0.97034 0.0
C602 C 0.53288 0.141 0.95233 0.0
C603 C 0.52501 0.11343 0.96178 0.0
H604 H 0.91253 0.76315 0.47989 0.0
H605 H 0.96598 0.76958 0.40376 0.0
H606 H 0.92756 0.81178 0.49453 0.0
H607 H 0.98131 0.81806 0.4186 0.0
H608 H 0.96955 0.91598 0.43731 0.0
H609 H 0.9573 0.86648 0.42343 0.0
H610 H 0.97213 0.83836 0.51071 0.0
H611 H 0.98431 0.88784 0.52475 0.0
C612 C 0.92758 0.77494 0.46637 0.0
C613 C 0.93805 0.76264 0.44067 0.0
C614 C 0.93634 0.80265 0.47485 0.0
C615 C 0.95555 0.8187 0.45766 0.0
C616 C 0.9663 0.80626 0.43213 0.0
C617 C 0.95774 0.77844 0.42379 0.0
C618 C 0.97026 0.89926 0.45355 0.0
C619 C 0.97785 0.90591 0.48216 0.0
C620 C 0.96342 0.87089 0.44554 0.0
C621 C 0.96377 0.8486 0.466 0.0
C622 C 0.97145 0.85517 0.49456 0.0
C623 C 0.97855 0.88349 0.50253 0.0
H624 H 0.39802 0.72059 0.60098 0.0
H625 H 0.47353 0.76138 0.56371 0.0
H626 H 0.4149 0.67372 0.584 0.0
H627 H 0.49083 0.71409 0.54766 0.0
H628 H 0.52223 0.61735 0.55443 0.0
H629 H 0.50726 0.66557 0.57053 0.0
H630 H 0.42264 0.65094 0.53421 0.0
H631 H 0.4374 0.60308 0.51801 0.0
C632 C 0.41811 0.71966 0.58901 0.0
C633 C 0.43424 0.74489 0.58349 0.0
C634 C 0.42783 0.69276 0.57944 0.0
C635 C 0.45408 0.69037 0.56445 0.0
C636 C 0.4706 0.71537 0.55938 0.0
C637 C 0.4607 0.74241 0.56866 0.0
C638 C 0.50049 0.6245 0.54979 0.0
C639 C 0.481 0.60635 0.53501 0.0
C640 C 0.492 0.65209 0.55888 0.0
C641 C 0.46377 0.66181 0.55373 0.0
C642 C 0.44443 0.64382 0.53872 0.0
C643 C 0.45299 0.61648 0.52931 0.0
H644 H 0.90985 0.99227 0.76366 0.0
H645 H 0.99349 0.95172 0.76897 0.0
H646 H 0.9184 0.00268 0.71276 0.0
H647 H 0.00234 0.96251 0.71836 0.0
H648 H 0.99226 0.95084 0.62174 0.0
H649 H 0.98421 0.94459 0.6731 0.0
H650 H 0.94688 0.02996 0.67828 0.0
H651 H 0.95426 0.03599 0.6266 0.0
C652 C 0.93031 0.98617 0.75407 0.0
C653 C 0.95091 0.97098 0.77014 0.0
C654 C 0.93522 0.99209 0.72493 0.0
C655 C 0.96088 0.98303 0.71138 0.0
C656 C 0.98204 0.96912 0.72794 0.0
C657 C 0.97707 0.96309 0.75695 0.0
C658 C 0.98225 0.96828 0.63376 0.0
C659 C 0.97394 0.99393 0.62001 0.0
C660 C 0.97786 0.96479 0.6633 0.0
C661 C 0.96518 0.9869 0.67988 0.0
C662 C 0.95652 0.01243 0.6661 0.0
C663 C 0.96083 0.0159 0.63648 0.0
H664 H 0.52556 0.0855 0.26544 0.0
H665 H 0.58263 0.01223 0.27462 0.0
H666 H 0.517 0.07199 0.21535 0.0
H667 H 0.57243 0.99798 0.22483 0.0
H668 H 0.51253 0.97568 0.14125 0.0
H669 H 0.52074 0.98553 0.1926 0.0
H670 H 0.55921 0.06783 0.17123 0.0
H671 H 0.55182 0.05784 0.11995 0.0
C672 C 0.5362 0.06647 0.25692 0.0
C673 C 0.55521 0.05026 0.27407 0.0
C674 C 0.53109 0.05869 0.22831 0.0
C675 C 0.54426 0.03415 0.21642 0.0
C676 C 0.56202 0.01699 0.23373 0.0
C677 C 0.56766 0.02509 0.26226 0.0
C678 C 0.52289 0.99579 0.14754 0.0
C679 C 0.53154 0.01602 0.12665 0.0
C680 C 0.52763 0.00131 0.17681 0.0
C681 C 0.54044 0.02743 0.1856 0.0
C682 C 0.54917 0.04759 0.1648 0.0
C683 C 0.54506 0.0418 0.13555 0.0
H684 H 0.48924 0.53186 0.24248 0.0
H685 H 0.40626 0.56286 0.27211 0.0
H686 H 0.50298 0.52203 0.29215 0.0
H687 H 0.41905 0.55099 0.3211 0.0
H688 H 0.45946 0.5582 0.40844 0.0
H689 H 0.44845 0.56814 0.3584 0.0
H690 H 0.49485 0.4913 0.33243 0.0
H691 H 0.50699 0.48209 0.38273 0.0
C692 C 0.47385 0.53644 0.25949 0.0
C693 C 0.44661 0.54819 0.25313 0.0
C694 C 0.4816 0.53043 0.28798 0.0
C695 C 0.46221 0.53584 0.31077 0.0
C696 C 0.43481 0.54704 0.30427 0.0
C697 C 0.42723 0.55336 0.27595 0.0
C698 C 0.46735 0.54341 0.39208 0.0
C699 C 0.48396 0.51926 0.39959 0.0
C700 C 0.46088 0.54901 0.36331 0.0
C701 C 0.47042 0.53033 0.34127 0.0
C702 C 0.48737 0.50632 0.34876 0.0
C703 C 0.49421 0.50093 0.37761 0.0
H704 H 0.02117 0.4445 0.74484 0.0
H705 H 0.09587 0.50093 0.74874 0.0
H706 H 0.00831 0.45848 0.79397 0.0
H707 H 0.08347 0.51386 0.79824 0.0
H708 H 0.07289 0.49047 0.89568 0.0
H709 H 0.08258 0.48265 0.84455 0.0
H710 H 0.99419 0.50402 0.82459 0.0
H711 H 0.98442 0.51224 0.87587 0.0
C712 C 0.03459 0.46023 0.7559 0.0
C713 C 0.05975 0.47135 0.74284 0.0
C714 C 0.02725 0.46812 0.78409 0.0
C715 C 0.04508 0.48699 0.79989 0.0
C716 C 0.06961 0.49892 0.7866 0.0
C717 C 0.07674 0.49138 0.75831 0.0
C718 C 0.05552 0.49359 0.88042 0.0
C719 C 0.02788 0.50193 0.88981 0.0
C720 C 0.06113 0.48931 0.85116 0.0
C721 C 0.03913 0.49283 0.83071 0.0
C722 C 0.01147 0.50111 0.84 0.0
C723 C 0.00595 0.50589 0.86928 0.0
H724 H 0.74348 0.9252 0.92123 0.0
H725 H 0.7763 0.97592 0.99238 0.0
H726 H 0.69422 0.93552 0.93637 0.0
H727 H 0.72687 0.98564 0.00828 0.0
H728 H 0.63355 0.01979 0.01094 0.0
H729 H 0.68355 0.01095 0.99681 0.0
H730 H 0.66095 0.92322 0.97301 0.0
H731 H 0.61095 0.93241 0.98604 0.0
C732 C 0.74008 0.93837 0.94029 0.0
C733 C 0.76365 0.94963 0.95573 0.0
C734 C 0.71185 0.9442 0.9491 0.0
C735 C 0.70649 0.96115 0.97378 0.0
C736 C 0.73016 0.97275 0.98902 0.0
C737 C 0.75846 0.96715 0.97999 0.0
C738 C 0.63933 0.99858 0.00281 0.0
C739 C 0.61824 0.97688 -0.00061 0.0
C740 C 0.66803 0.99347 0.99482 0.0
C741 C 0.67629 0.96644 0.98349 0.0
C742 C 0.65528 0.94451 0.98096 0.0
C743 C 0.6266 0.94972 0.98863 0.0
H744 H 0.76728 0.08816 0.41557 0.0
H745 H 0.73677 0.03878 0.48837 0.0
H746 H 0.8171 0.0763 0.42793 0.0
H747 H 0.78677 0.02682 0.50074 0.0
H748 H 0.88158 0.04606 0.53041 0.0
H749 H 0.83117 0.05535 0.5181 0.0
H750 H 0.84851 0.03142 0.42972 0.0
H751 H 0.89884 0.02203 0.44188 0.0
C752 C 0.77129 0.07476 0.43422 0.0
C753 C 0.74826 0.06444 0.45109 0.0
C754 C 0.79974 0.06782 0.44116 0.0
C755 C 0.80573 0.05068 0.46529 0.0
C756 C 0.7827 0.04024 0.48213 0.0
C757 C 0.75417 0.04688 0.47495 0.0
C758 C 0.87465 0.04276 0.50836 0.0
C759 C 0.89424 0.0334 0.48711 0.0
C760 C 0.84576 0.04788 0.50138 0.0
C761 C 0.83601 0.0441 0.47297 0.0
C762 C 0.85554 0.0347 0.45175 0.0
C763 C 0.88432 0.02923 0.45877 0.0
H764 H 0.2611 0.60097 0.0313 0.0
H765 H 0.26159 0.51741 0.07243 0.0
H766 H 0.21151 0.59234 0.01516 0.0
H767 H 0.21195 0.50885 0.05644 0.0
H768 H 0.1315 0.4943 0.00019 0.0
H769 H 0.18268 0.5021 0.01062 0.0
H770 H 0.1637 0.58813 0.04167 0.0
H771 H 0.11257 0.58045 0.03137 0.0
C772 C 0.25074 0.5806 0.03651 0.0
C773 C 0.26512 0.55986 0.05315 0.0
C774 C 0.22232 0.57578 0.0275 0.0
C775 C 0.20789 0.54999 0.03467 0.0
C776 C 0.22263 0.52884 0.05046 0.0
C777 C 0.25092 0.53381 0.05976 0.0
C778 C 0.13825 0.51495 0.00908 0.0
C779 C 0.11794 0.53672 0.01505 0.0
C780 C 0.16752 0.51933 0.01514 0.0
C781 C 0.17712 0.5457 0.02693 0.0
C782 C 0.15693 0.56769 0.03232 0.0
C783 C 0.12763 0.56319 0.0266 0.0
H784 H 0.2679 0.42508 0.59667 0.0
H785 H 0.23863 0.47069 0.52135 0.0
H786 H 0.31776 0.43655 0.58444 0.0
H787 H 0.28879 0.48147 0.50832 0.0
H788 H 0.38102 0.519 0.5103 0.0
H789 H 0.33047 0.50901 0.52154 0.0
H790 H 0.35378 0.42362 0.55082 0.0
H791 H 0.40428 0.43406 0.5407 0.0
C792 C 0.27225 0.43737 0.5773 0.0
C793 C 0.24951 0.44684 0.55983 0.0
C794 C 0.30082 0.44383 0.57018 0.0
C795 C 0.30739 0.45964 0.54518 0.0
C796 C 0.28453 0.46948 0.52787 0.0
C797 C 0.25583 0.46327 0.53524 0.0
C798 C 0.37529 0.49807 0.51906 0.0
C799 C 0.39667 0.47741 0.52483 0.0
C800 C 0.34628 0.49228 0.52538 0.0
C801 C 0.33802 0.46559 0.53732 0.0
C802 C 0.3594 0.44467 0.54231 0.0
C803 C 0.38837 0.45058 0.53633 0.0
H804 H 0.94646 0.75742 0.90741 0.0
H805 H 0.9758 0.78305 0.9922 0.0
H806 H 0.95799 0.7076 0.91792 0.0
H807 H 0.98539 0.73255 0.00353 0.0
H808 H 0.02623 0.64225 0.00338 0.0
H809 H 0.01685 0.69308 0.99336 0.0
H810 H 0.94061 0.66859 0.94521 0.0
H811 H 0.95069 0.61795 0.95419 0.0
C812 C 0.95551 0.7525 0.9283 0.0
C813 C 0.96039 0.77442 0.94886 0.0
C814 C 0.96165 0.72373 0.93453 0.0
C815 C 0.9724 0.71591 0.96168 0.0
C816 C 0.97738 0.73779 0.98229 0.0
C817 C 0.97152 0.76673 0.97592 0.0
C818 C 0.00749 0.64777 0.99063 0.0
C819 C 0.98933 0.62606 0.97939 0.0
C820 C 0.002 0.67693 0.98504 0.0
C821 C 0.97805 0.685 0.96833 0.0
C822 C 0.95964 0.66321 0.95759 0.0
C823 C 0.96532 0.63412 0.96287 0.0
H824 H 0.41269 0.75256 0.04979 0.0
H825 H 0.49356 0.74343 0.09494 0.0
H826 H 0.42552 0.80248 0.03757 0.0
H827 H 0.50661 0.7933 0.08228 0.0
H828 H 0.52726 0.87341 0.02277 0.0
H829 H 0.51573 0.82279 0.03338 0.0
H830 H 0.43429 0.84892 0.07048 0.0
H831 H 0.44591 0.89949 0.06047 0.0
C832 C 0.43333 0.76118 0.05679 0.0
C833 C 0.45217 0.74427 0.07328 0.0
C834 C 0.44057 0.78969 0.04996 0.0
C835 C 0.467 0.8016 0.05904 0.0
C836 C 0.48617 0.78449 0.07494 0.0
C837 C 0.47867 0.75613 0.08227 0.0
C838 C 0.50691 0.86833 0.03318 0.0
C839 C 0.4875 0.8904 0.04082 0.0
C840 C 0.50041 0.83944 0.03933 0.0
C841 C 0.47413 0.8321 0.05265 0.0
C842 C 0.45461 0.85408 0.06002 0.0
C843 C 0.46134 0.88298 0.05442 0.0
H844 H 0.08812 0.24374 0.60636 0.0
H845 H 0.01863 0.27513 0.55306 0.0
H846 H 0.07466 0.19415 0.59449 0.0
H847 H 0.0048 0.22522 0.54168 0.0
H848 H 0.97588 0.12875 0.55157 0.0
H849 H 0.98619 0.17884 0.56549 0.0
H850 H 0.07686 0.1651 0.54845 0.0
H851 H 0.06676 0.11525 0.53458 0.0
C852 C 0.06997 0.24007 0.59209 0.0
C853 C 0.05472 0.26342 0.5803 0.0
C854 C 0.06224 0.21166 0.58538 0.0
C855 C 0.03891 0.2059 0.56692 0.0
C856 C 0.02282 0.22911 0.55607 0.0
C857 C 0.0307 0.25764 0.56263 0.0
C858 C 0.99801 0.13642 0.55081 0.0
C859 C 0.02051 0.11798 0.54202 0.0
C860 C 0.00385 0.16511 0.55864 0.0
C861 C 0.03232 0.17574 0.55819 0.0
C862 C 0.05475 0.15734 0.54935 0.0
C863 C 0.04891 0.12883 0.54124 0.0
H864 H 0.59579 0.25263 0.4797 0.0
H865 H 0.50997 0.24163 0.44495 0.0
H866 H 0.58507 0.3033 0.4909 0.0
H867 H 0.49911 0.29224 0.45653 0.0
H868 H 0.48625 0.37672 0.51148 0.0
H869 H 0.49591 0.32532 0.50338 0.0
H870 H 0.57358 0.34736 0.45662 0.0
H871 H 0.56381 0.39876 0.46422 0.0
C872 C 0.5745 0.26098 0.47493 0.0
C873 C 0.55366 0.24337 0.46152 0.0
C874 C 0.56847 0.28992 0.48111 0.0
C875 C 0.54133 0.30154 0.47445 0.0
C876 C 0.52014 0.28367 0.46196 0.0
C877 C 0.52636 0.25486 0.45528 0.0
C878 C 0.50539 0.37059 0.49947 0.0
C879 C 0.52427 0.39175 0.48845 0.0
C880 C 0.51082 0.34124 0.49479 0.0
C881 C 0.53552 0.33254 0.47952 0.0
C882 C 0.55452 0.35361 0.46868 0.0
C883 C 0.54881 0.38296 0.47288 0.0
loop_
_geom_bond_atom_site_label_1
_geom_bond_atom_site_label_2
_geom_bond_distance
_geom_bond_site_symmetry_2
_ccdc_geom_bond_type
C0 C1 1.386 . S
C0 C2 1.397 . S
C0 H24 0.931 . S
C1 C0 1.386 . S
C1 C5 1.397 . S
C2 C0 1.397 . S
C2 C3 1.384 . S
C2 H25 0.930 . S
C3 C2 1.384 . S
C3 C4 1.377 . S
C3 C6 1.481 . S
C4 C3 1.377 . S
C4 C5 1.389 . S
C4 H26 0.929 . S
C5 C1 1.397 . S
C5 C4 1.389 . S
C5 H27 0.931 . S
C6 C3 1.481 . S
C6 C7 1.387 . S
C6 C11 1.390 . S
C7 C6 1.387 . S
C7 C8 1.401 . S
C7 H28 0.930 . S
C8 C7 1.401 . S
C8 C9 1.376 . S
C8 C17 1.511 . S
C9 C8 1.376 . S
C9 C10 1.392 . S
C9 H30 0.931 . S
C10 C9 1.392 . S
C10 C11 1.361 . S
C10 C12 1.500 . S
C11 C6 1.390 . S
C11 C10 1.361 . S
C11 H29 0.931 . S
C12 C10 1.500 . S
C12 C13 1.371 . S
C12 C14 1.365 . S
C13 C12 1.371 . S
C13 C23 1.386 . S
C13 H31 0.931 . S
C14 C12 1.365 . S
C14 C15 1.409 . S
C14 H32 0.929 . S
C15 C14 1.409 . S
C15 C16 1.380 . S
C15 H33 0.930 . S
C16 C15 1.380 . S
C16 C23 1.357 . S
C17 C8 1.511 . S
C17 C18 1.341 . S
C17 C19 1.371 . S
C18 C17 1.341 . S
C18 C22 1.394 . S
C18 H34 0.930 . S
C19 C17 1.371 . S
C19 C20 1.392 . S
C19 H35 0.931 . S
C20 C19 1.392 . S
C20 C21 1.331 . S
C20 H38 0.932 . S
C21 C20 1.331 . S
C21 C22 1.336 . S
C22 C18 1.394 . S
C22 C21 1.336 . S
C22 H37 0.929 . S
C23 C13 1.386 . S
C23 C16 1.357 . S
C23 H36 0.928 . S
H24 C0 0.931 . S
H25 C2 0.930 . S
H26 C4 0.929 . S
H27 C5 0.931 . S
H28 C7 0.930 . S
H29 C11 0.931 . S
H30 C9 0.931 . S
H31 C13 0.931 . S
H32 C14 0.929 . S
H33 C15 0.930 . S
H34 C18 0.930 . S
H35 C19 0.931 . S
H36 C23 0.928 . S
H37 C22 0.929 . S
H38 C20 0.932 . S
C39 C40 1.386 . S
C39 C41 1.397 . S
C39 H63 0.931 . S
C40 C39 1.386 . S
C40 C44 1.397 . S
C41 C39 1.397 . S
C41 C42 1.384 . S
C41 H64 0.930 . S
C42 C41 1.384 . S
C42 C43 1.377 . S
C42 C45 1.481 . S
C43 C42 1.377 . S
C43 C44 1.389 . S
C43 H65 0.929 . S
C44 C40 1.397 . S
C44 C43 1.389 . S
C44 H66 0.931 . S
C45 C42 1.481 . S
C45 C46 1.387 . S
C45 C50 1.390 . S
C46 C45 1.387 . S
C46 C47 1.401 . S
C46 H67 0.930 . S
C47 C46 1.401 . S
C47 C48 1.376 . S
C47 C56 1.511 . S
C48 C47 1.376 . S
C48 C49 1.392 . S
C48 H69 0.931 . S
C49 C48 1.392 . S
C49 C50 1.361 . S
C49 C51 1.500 . S
C50 C45 1.390 . S
C50 C49 1.361 . S
C50 H68 0.931 . S
C51 C49 1.500 . S
C51 C52 1.371 . S
C51 C53 1.365 . S
C52 C51 1.371 . S
C52 C62 1.386 . S
C52 H70 0.931 . S
C53 C51 1.365 . S
C53 C54 1.409 . S
C53 H71 0.929 . S
C54 C53 1.409 . S
C54 C55 1.380 . S
C54 H72 0.930 . S
C55 C54 1.380 . S
C55 C62 1.357 . S
C56 C47 1.511 . S
C56 C57 1.341 . S
C56 C58 1.371 . S
C57 C56 1.341 . S
C57 C61 1.394 . S
C57 H73 0.930 . S
C58 C56 1.371 . S
C58 C59 1.392 . S
C58 H74 0.931 . S
C59 C58 1.392 . S
C59 C60 1.331 . S
C59 H77 0.932 . S
C60 C59 1.331 . S
C60 C61 1.336 . S
C61 C57 1.394 . S
C61 C60 1.336 . S
C61 H76 0.929 . S
C62 C52 1.386 . S
C62 C55 1.357 . S
C62 H75 0.928 . S
H63 C39 0.931 . S
H64 C41 0.930 . S
H65 C43 0.929 . S
H66 C44 0.931 . S
H67 C46 0.930 . S
H68 C50 0.931 . S
H69 C48 0.931 . S
H70 C52 0.931 . S
H71 C53 0.929 . S
H72 C54 0.930 . S
H73 C57 0.930 . S
H74 C58 0.931 . S
H75 C62 0.928 . S
H76 C61 0.929 . S
H77 C59 0.932 . S
C78 C79 1.386 . S
C78 C80 1.397 . S
C78 H102 0.931 . S
C79 C78 1.386 . S
C79 C83 1.397 . S
C80 C78 1.397 . S
C80 C81 1.384 . S
C80 H103 0.930 . S
C81 C80 1.384 . S
C81 C82 1.377 . S
C81 C84 1.481 . S
C82 C81 1.377 . S
C82 C83 1.389 . S
C82 H104 0.929 . S
C83 C79 1.397 . S
C83 C82 1.389 . S
C83 H105 0.931 . S
C84 C81 1.481 . S
C84 C85 1.387 . S
C84 C89 1.390 . S
C85 C84 1.387 . S
C85 C86 1.401 . S
C85 H106 0.930 . S
C86 C85 1.401 . S
C86 C87 1.376 . S
C86 C95 1.511 . S
C87 C86 1.376 . S
C87 C88 1.392 . S
C87 H108 0.931 . S
C88 C87 1.392 . S
C88 C89 1.361 . S
C88 C90 1.500 . S
C89 C84 1.390 . S
C89 C88 1.361 . S
C89 H107 0.931 . S
C90 C88 1.500 . S
C90 C91 1.371 . S
C90 C92 1.365 . S
C91 C90 1.371 . S
C91 C101 1.386 . S
C91 H109 0.931 . S
C92 C90 1.365 . S
C92 C93 1.409 . S
C92 H110 0.929 . S
C93 C92 1.409 . S
C93 C94 1.380 . S
C93 H111 0.930 . S
C94 C93 1.380 . S
C94 C101 1.357 . S
C95 C86 1.511 . S
C95 C96 1.341 . S
C95 C97 1.371 . S
C96 C95 1.341 . S
C96 C100 1.394 . S
C96 H112 0.930 . S
C97 C95 1.371 . S
C97 C98 1.392 . S
C97 H113 0.931 . S
C98 C97 1.392 . S
C98 C99 1.331 . S
C98 H116 0.932 . S
C99 C98 1.331 . S
C99 C100 1.336 . S
C100 C96 1.394 . S
C100 C99 1.336 . S
C100 H115 0.929 . S
C101 C91 1.386 . S
C101 C94 1.357 . S
C101 H114 0.928 . S
H102 C78 0.931 . S
H103 C80 0.930 . S
H104 C82 0.929 . S
H105 C83 0.931 . S
H106 C85 0.930 . S
H107 C89 0.931 . S
H108 C87 0.931 . S
H109 C91 0.931 . S
H110 C92 0.929 . S
H111 C93 0.930 . S
H112 C96 0.930 . S
H113 C97 0.931 . S
H114 C101 0.928 . S
H115 C100 0.929 . S
H116 C98 0.932 . S
C117 C118 1.386 . S
C117 C119 1.397 . S
C117 H141 0.931 . S
C118 C117 1.386 . S
C118 C122 1.397 . S
C119 C117 1.397 . S
C119 C120 1.384 . S
C119 H142 0.930 . S
C120 C119 1.384 . S
C120 C121 1.377 . S
C120 C123 1.481 . S
C121 C120 1.377 . S
C121 C122 1.389 . S
C121 H143 0.929 . S
C122 C118 1.397 . S
C122 C121 1.389 . S
C122 H144 0.931 . S
C123 C120 1.481 . S
C123 C124 1.387 . S
C123 C128 1.390 . S
C124 C123 1.387 . S
C124 C125 1.401 . S
C124 H145 0.930 . S
C125 C124 1.401 . S
C125 C126 1.376 . S
C125 C134 1.511 . S
C126 C125 1.376 . S
C126 C127 1.392 . S
C126 H147 0.931 . S
C127 C126 1.392 . S
C127 C128 1.361 . S
C127 C129 1.500 . S
C128 C123 1.390 . S
C128 C127 1.361 . S
C128 H146 0.931 . S
C129 C127 1.500 . S
C129 C130 1.371 . S
C129 C131 1.365 . S
C130 C129 1.371 . S
C130 C140 1.386 . S
C130 H148 0.931 . S
C131 C129 1.365 . S
C131 C132 1.409 . S
C131 H149 0.929 . S
C132 C131 1.409 . S
C132 C133 1.380 . S
C132 H150 0.930 . S
C133 C132 1.380 . S
C133 C140 1.357 . S
C134 C125 1.511 . S
C134 C135 1.341 . S
C134 C136 1.371 . S
C135 C134 1.341 . S
C135 C139 1.394 . S
C135 H151 0.930 . S
C136 C134 1.371 . S
C136 C137 1.392 . S
C136 H152 0.931 . S
C137 C136 1.392 . S
C137 C138 1.331 . S
C137 H155 0.932 . S
C138 C137 1.331 . S
C138 C139 1.336 . S
C139 C135 1.394 . S
C139 C138 1.336 . S
C139 H154 0.929 . S
C140 C130 1.386 . S
C140 C133 1.357 . S
C140 H153 0.928 . S
H141 C117 0.931 . S
H142 C119 0.930 . S
H143 C121 0.929 . S
H144 C122 0.931 . S
H145 C124 0.930 . S
H146 C128 0.931 . S
H147 C126 0.931 . S
H148 C130 0.931 . S
H149 C131 0.929 . S
H150 C132 0.930 . S
H151 C135 0.930 . S
H152 C136 0.931 . S
H153 C140 0.928 . S
H154 C139 0.929 . S
H155 C137 0.932 . S
C156 C157 1.386 . S
C156 C158 1.397 . S
C156 H180 0.931 . S
C157 C156 1.386 . S
C157 C161 1.397 . S
C158 C156 1.397 . S
C158 C159 1.384 . S
C158 H181 0.930 . S
C159 C158 1.384 . S
C159 C160 1.377 . S
C159 C162 1.481 . S
C160 C159 1.377 . S
C160 C161 1.389 . S
C160 H182 0.929 . S
C161 C157 1.397 . S
C161 C160 1.389 . S
C161 H183 0.931 1_565 S
C162 C159 1.481 . S
C162 C163 1.387 . S
C162 C167 1.390 . S
C163 C162 1.387 . S
C163 C164 1.401 . S
C163 H184 0.930 . S
C164 C163 1.401 . S
C164 C165 1.376 . S
C164 C173 1.511 . S
C165 C164 1.376 . S
C165 C166 1.392 . S
C165 H186 0.931 . S
C166 C165 1.392 . S
C166 C167 1.361 . S
C166 C168 1.500 . S
C167 C162 1.390 . S
C167 C166 1.361 . S
C167 H185 0.931 . S
C168 C166 1.500 . S
C168 C169 1.371 . S
C168 C170 1.365 . S
C169 C168 1.371 . S
C169 C179 1.386 . S
C169 H187 0.931 . S
C170 C168 1.365 . S
C170 C171 1.409 . S
C170 H188 0.929 . S
C171 C170 1.409 . S
C171 C172 1.380 . S
C171 H189 0.930 1_565 S
C172 C171 1.380 . S
C172 C179 1.357 . S
C173 C164 1.511 . S
C173 C174 1.341 . S
C173 C175 1.371 . S
C174 C173 1.341 . S
C174 C178 1.394 . S
C174 H190 0.930 . S
C175 C173 1.371 . S
C175 C176 1.392 . S
C175 H191 0.931 . S
C176 C175 1.392 . S
C176 C177 1.331 . S
C176 H194 0.932 . S
C177 C176 1.331 . S
C177 C178 1.336 . S
C178 C174 1.394 . S
C178 C177 1.336 . S
C178 H193 0.929 . S
C179 C169 1.386 . S
C179 C172 1.357 . S
C179 H192 0.928 . S
H180 C156 0.931 . S
H181 C158 0.930 . S
H182 C160 0.929 . S
H183 C161 0.931 1_545 S
H184 C163 0.930 . S
H185 C167 0.931 . S
H186 C165 0.931 . S
H187 C169 0.931 . S
H188 C170 0.929 . S
H189 C171 0.930 1_545 S
H190 C174 0.930 . S
H191 C175 0.931 . S
H192 C179 0.928 . S
H193 C178 0.929 . S
H194 C176 0.932 . S
C195 C196 1.386 . S
C195 C197 1.397 . S
C195 H219 0.931 . S
C196 C195 1.386 . S
C196 C200 1.397 . S
C197 C195 1.397 . S
C197 C198 1.384 . S
C197 H220 0.930 . S
C198 C197 1.384 . S
C198 C199 1.377 . S
C198 C201 1.481 . S
C199 C198 1.377 . S
C199 C200 1.389 . S
C199 H221 0.929 . S
C200 C196 1.397 . S
C200 C199 1.389 . S
C200 H222 0.931 . S
C201 C198 1.481 . S
C201 C202 1.387 . S
C201 C206 1.390 . S
C202 C201 1.387 . S
C202 C203 1.401 . S
C202 H223 0.930 . S
C203 C202 1.401 . S
C203 C204 1.376 . S
C203 C212 1.511 . S
C204 C203 1.376 . S
C204 C205 1.392 . S
C204 H225 0.931 . S
C205 C204 1.392 . S
C205 C206 1.361 . S
C205 C207 1.500 . S
C206 C201 1.390 . S
C206 C205 1.361 . S
C206 H224 0.931 . S
C207 C205 1.500 . S
C207 C208 1.371 . S
C207 C209 1.365 . S
C208 C207 1.371 . S
C208 C218 1.386 . S
C208 H226 0.931 . S
C209 C207 1.365 . S
C209 C210 1.409 . S
C209 H227 0.929 . S
C210 C209 1.409 . S
C210 C211 1.380 . S
C210 H228 0.930 . S
C211 C210 1.380 . S
C211 C218 1.357 . S
C212 C203 1.511 . S
C212 C213 1.341 . S
C212 C214 1.371 . S
C213 C212 1.341 . S
C213 C217 1.394 . S
C213 H229 0.930 . S
C214 C212 1.371 . S
C214 C215 1.392 . S
C214 H230 0.931 . S
C215 C214 1.392 . S
C215 C216 1.331 . S
C215 H233 0.932 . S
C216 C215 1.331 . S
C216 C217 1.336 . S
C217 C213 1.394 . S
C217 C216 1.336 . S
C217 H232 0.929 . S
C218 C208 1.386 . S
C218 C211 1.357 . S
C218 H231 0.928 . S
H219 C195 0.931 . S
H220 C197 0.930 . S
H221 C199 0.929 . S
H222 C200 0.931 . S
H223 C202 0.930 . S
H224 C206 0.931 . S
H225 C204 0.931 . S
H226 C208 0.931 . S
H227 C209 0.929 . S
H228 C210 0.930 . S
H229 C213 0.930 . S
H230 C214 0.931 . S
H231 C218 0.928 . S
H232 C217 0.929 . S
H233 C215 0.932 . S
C234 C235 1.386 . S
C234 C236 1.397 . S
C234 H258 0.931 . S
C235 C234 1.386 . S
C235 C239 1.397 . S
C236 C234 1.397 . S
C236 C237 1.384 . S
C236 H259 0.930 . S
C237 C236 1.384 . S
C237 C238 1.377 . S
C237 C240 1.481 . S
C238 C237 1.377 . S
C238 C239 1.389 . S
C238 H260 0.929 . S
C239 C235 1.397 . S
C239 C238 1.389 . S
C239 H261 0.931 . S
C240 C237 1.481 . S
C240 C241 1.387 . S
C240 C245 1.390 . S
C241 C240 1.387 . S
C241 C242 1.401 . S
C241 H262 0.930 . S
C242 C241 1.401 . S
C242 C243 1.376 . S
C242 C251 1.511 . S
C243 C242 1.376 . S
C243 C244 1.392 . S
C243 H264 0.931 . S
C244 C243 1.392 . S
C244 C245 1.361 . S
C244 C246 1.500 . S
C245 C240 1.390 . S
C245 C244 1.361 . S
C245 H263 0.931 . S
C246 C244 1.500 . S
C246 C247 1.371 . S
C246 C248 1.365 . S
C247 C246 1.371 . S
C247 C257 1.386 . S
C247 H265 0.931 . S
C248 C246 1.365 . S
C248 C249 1.409 . S
C248 H266 0.929 . S
C249 C248 1.409 . S
C249 C250 1.380 . S
C249 H267 0.930 . S
C250 C249 1.380 . S
C250 C257 1.357 . S
C251 C242 1.511 . S
C251 C252 1.341 . S
C251 C253 1.371 . S
C252 C251 1.341 . S
C252 C256 1.394 . S
C252 H268 0.930 . S
C253 C251 1.371 . S
C253 C254 1.392 . S
C253 H269 0.931 . S
C254 C253 1.392 . S
C254 C255 1.331 . S
C254 H272 0.932 . S
C255 C254 1.331 . S
C255 C256 1.336 . S
C256 C252 1.394 . S
C256 C255 1.336 . S
C256 H271 0.929 . S
C257 C247 1.386 . S
C257 C250 1.357 . S
C257 H270 0.928 . S
H258 C234 0.931 . S
H259 C236 0.930 . S
H260 C238 0.929 . S
H261 C239 0.931 . S
H262 C241 0.930 . S
H263 C245 0.931 . S
H264 C243 0.931 . S
H265 C247 0.931 . S
H266 C248 0.929 . S
H267 C249 0.930 . S
H268 C252 0.930 . S
H269 C253 0.931 . S
H270 C257 0.928 . S
H271 C256 0.929 . S
H272 C254 0.932 . S
C273 C274 1.386 . S
C273 C275 1.397 . S
C273 H297 0.931 . S
C274 C273 1.386 . S
C274 C278 1.397 . S
C275 C273 1.397 . S
C275 C276 1.384 . S
C275 H298 0.930 . S
C276 C275 1.384 . S
C276 C277 1.377 . S
C276 C279 1.481 . S
C277 C276 1.377 . S
C277 C278 1.389 . S
C277 H299 0.929 . S
C278 C274 1.397 . S
C278 C277 1.389 . S
C278 H300 0.931 . S
C279 C276 1.481 . S
C279 C280 1.387 . S
C279 C284 1.390 . S
C280 C279 1.387 . S
C280 C281 1.401 . S
C280 H301 0.930 . S
C281 C280 1.401 . S
C281 C282 1.376 . S
C281 C290 1.511 . S
C282 C281 1.376 . S
C282 C283 1.392 . S
C282 H303 0.931 . S
C283 C282 1.392 . S
C283 C284 1.361 . S
C283 C285 1.500 . S
C284 C279 1.390 . S
C284 C283 1.361 . S
C284 H302 0.931 . S
C285 C283 1.500 . S
C285 C286 1.371 . S
C285 C287 1.365 . S
C286 C285 1.371 . S
C286 C296 1.386 . S
C286 H304 0.931 . S
C287 C285 1.365 . S
C287 C288 1.409 . S
C287 H305 0.929 . S
C288 C287 1.409 . S
C288 C289 1.380 . S
C288 H306 0.930 . S
C289 C288 1.380 . S
C289 C296 1.357 . S
C290 C281 1.511 . S
C290 C291 1.341 . S
C290 C292 1.371 . S
C291 C290 1.341 . S
C291 C295 1.394 . S
C291 H307 0.930 . S
C292 C290 1.371 . S
C292 C293 1.392 . S
C292 H308 0.931 . S
C293 C292 1.392 . S
C293 C294 1.331 . S
C293 H311 0.932 . S
C294 C293 1.331 . S
C294 C295 1.336 . S
C295 C291 1.394 . S
C295 C294 1.336 . S
C295 H310 0.929 . S
C296 C286 1.386 . S
C296 C289 1.357 . S
C296 H309 0.928 . S
H297 C273 0.931 . S
H298 C275 0.930 . S
H299 C277 0.929 . S
H300 C278 0.931 . S
H301 C280 0.930 . S
H302 C284 0.931 . S
H303 C282 0.931 . S
H304 C286 0.931 . S
H305 C287 0.929 . S
H306 C288 0.930 . S
H307 C291 0.930 . S
H308 C292 0.931 . S
H309 C296 0.928 . S
H310 C295 0.929 . S
H311 C293 0.932 . S
O312 Zn313 1.953 . S
O312 C328 1.225 1_655 S
Zn313 O312 1.953 . S
Zn313 O314 1.949 1_655 S
Zn313 O320 1.919 . S
Zn313 O325 1.924 . S
O314 Zn313 1.949 1_455 S
O314 Zn315 1.923 1_445 S
O314 Zn316 1.950 . S
O314 Zn317 1.945 1_545 S
Zn315 O314 1.923 1_665 S
Zn315 O318 1.933 . S
Zn315 O321 1.941 1_565 S
Zn315 O322 1.965 1_665 S
Zn316 O314 1.950 . S
Zn316 O323 1.938 . S
Zn316 O324 1.931 . S
Zn316 O334 1.953 . S
Zn317 O314 1.945 1_565 S
Zn317 O319 1.932 1_455 S
Zn317 O326 1.977 . S
Zn317 O327 1.910 1_455 S
O318 Zn315 1.933 . S
O318 C329 1.226 . S
O319 Zn317 1.932 1_655 S
O319 C329 1.307 . S
O320 Zn313 1.919 . S
O320 C331 1.253 . S
O321 Zn315 1.941 1_545 S
O321 C331 1.283 . S
O322 Zn315 1.965 1_445 S
O322 C330 1.303 . S
O323 Zn316 1.938 . S
O323 C330 1.247 . S
O324 Zn316 1.931 . S
O324 C332 1.268 1_545 S
O325 Zn313 1.924 . S
O325 C333 1.331 . S
O326 Zn317 1.977 . S
O326 C332 1.272 . S
O327 Zn317 1.910 1_655 S
O327 C333 1.209 1_565 S
C328 O312 1.225 1_455 S
C328 O334 1.298 . S
C329 O318 1.226 . S
C329 O319 1.307 . S
C330 O322 1.303 . S
C330 O323 1.247 . S
C331 O320 1.253 . S
C331 O321 1.283 . S
C332 O324 1.268 1_565 S
C332 O326 1.272 . S
C333 O325 1.331 . S
C333 O327 1.209 1_545 S
O334 Zn316 1.953 . S
O334 C328 1.298 . S
O335 Zn336 1.953 . S
O335 C351 1.225 . S
Zn336 O335 1.953 . S
Zn336 O337 1.949 1_556 S
Zn336 O343 1.919 . S
Zn336 O348 1.924 1_556 S
O337 Zn336 1.949 1_554 S
O337 Zn338 1.923 1_545 S
O337 Zn339 1.950 . S
O337 Zn340 1.938 1_545 S
Zn338 O337 1.923 1_565 S
Zn338 O341 1.933 . S
Zn338 O344 1.941 1_554 S
Zn338 O345 1.965 1_554 S
Zn339 O337 1.950 . S
Zn339 O346 1.938 . S
Zn339 O347 1.906 . S
Zn339 O357 1.953 . S
Zn340 O337 1.938 1_565 S
Zn340 O342 1.962 . S
Zn340 O349 1.969 1_565 S
Zn340 O350 1.894 1_565 S
O341 Zn338 1.933 . S
O341 C352 1.226 . S
O342 Zn340 1.962 . S
O342 C352 1.307 . S
O343 Zn336 1.919 . S
O343 C354 1.253 1_545 S
O344 Zn338 1.941 1_556 S
O344 C354 1.283 . S
O345 Zn338 1.965 1_556 S
O345 C353 1.303 . S
O346 Zn339 1.938 . S
O346 C353 1.247 1_544 S
O347 Zn339 1.906 . S
O347 C355 1.304 . S
O348 Zn336 1.924 1_554 S
O348 C356 1.311 . S
O349 Zn340 1.969 1_545 S
O349 C355 1.272 . S
O350 Zn340 1.894 1_545 S
O350 C356 1.231 . S
C351 O335 1.225 . S
C351 O357 1.298 1_556 S
C352 O341 1.226 . S
C352 O342 1.307 . S
C353 O345 1.303 . S
C353 O346 1.247 1_566 S
C354 O343 1.253 1_565 S
C354 O344 1.283 . S
C355 O347 1.304 . S
C355 O349 1.272 . S
C356 O348 1.311 . S
C356 O350 1.231 . S
O357 Zn339 1.953 . S
O357 C351 1.298 1_554 S
O358 Zn359 1.953 . S
O358 C374 1.225 . S
Zn359 O358 1.953 . S
Zn359 O360 1.949 . S
Zn359 O366 1.919 . S
Zn359 O371 1.924 . S
O360 Zn359 1.949 . S
O360 Zn361 1.923 . S
O360 Zn362 1.950 . S
O360 Zn363 1.945 . S
Zn361 O360 1.923 . S
Zn361 O364 1.933 . S
Zn361 O367 1.941 . S
Zn361 O368 1.965 . S
Zn362 O360 1.950 . S
Zn362 O369 1.938 . S
Zn362 O370 1.906 . S
Zn362 O380 1.953 . S
Zn363 O360 1.945 . S
Zn363 O365 1.932 . S
Zn363 O372 1.977 . S
Zn363 O373 1.910 . S
O364 Zn361 1.933 . S
O364 C375 1.226 . S
O365 Zn363 1.932 . S
O365 C375 1.307 . S
O366 Zn359 1.919 . S
O366 C377 1.253 . S
O367 Zn361 1.941 . S
O367 C377 1.283 . S
O368 Zn361 1.965 . S
O368 C376 1.303 . S
O369 Zn362 1.938 . S
O369 C376 1.247 . S
O370 Zn362 1.906 . S
O370 C378 1.304 . S
O371 Zn359 1.924 . S
O371 C379 1.311 . S
O372 Zn363 1.977 . S
O372 C378 1.272 . S
O373 Zn363 1.910 . S
O373 C379 1.231 . S
C374 O358 1.225 . S
C374 O380 1.298 . S
C375 O364 1.226 . S
C375 O365 1.307 . S
C376 O368 1.303 . S
C376 O369 1.247 . S
C377 O366 1.253 . S
C377 O367 1.283 . S
C378 O370 1.304 . S
C378 O372 1.272 . S
C379 O371 1.311 . S
C379 O373 1.231 . S
O380 Zn362 1.953 . S
O380 C374 1.298 . S
O381 Zn382 1.953 . S
O381 C397 1.225 . S
Zn382 O381 1.953 . S
Zn382 O383 1.949 1_655 S
Zn382 O389 1.919 . S
Zn382 O394 1.924 . S
O383 Zn382 1.949 1_455 S
O383 Zn384 1.923 1_454 S
O383 Zn385 1.950 . S
O383 Zn386 1.945 1_554 S
Zn384 O383 1.923 1_656 S
Zn384 O387 1.933 1_655 S
Zn384 O390 1.941 . S
Zn384 O391 1.965 . S
Zn385 O383 1.950 . S
Zn385 O392 1.938 . S
Zn385 O393 1.906 . S
Zn385 O403 1.953 . S
Zn386 O383 1.945 1_556 S
Zn386 O388 1.932 . S
Zn386 O395 1.977 1_556 S
Zn386 O396 1.910 1_556 S
O387 Zn384 1.933 1_455 S
O387 C398 1.226 . S
O388 Zn386 1.932 . S
O388 C398 1.307 . S
O389 Zn382 1.919 . S
O389 C400 1.253 1_554 S
O390 Zn384 1.941 . S
O390 C400 1.283 . S
O391 Zn384 1.965 . S
O391 C399 1.303 . S
O392 Zn385 1.938 . S
O392 C399 1.247 1_454 S
O393 Zn385 1.906 . S
O393 C401 1.304 . S
O394 Zn382 1.924 . S
O394 C402 1.311 1_655 S
O395 Zn386 1.977 1_554 S
O395 C401 1.272 . S
O396 Zn386 1.910 1_554 S
O396 C402 1.231 . S
C397 O381 1.225 . S
C397 O403 1.298 1_655 S
C398 O387 1.226 . S
C398 O388 1.307 . S
C399 O391 1.303 . S
C399 O392 1.247 1_656 S
C400 O389 1.253 1_556 S
C400 O390 1.283 . S
C401 O393 1.304 . S
C401 O395 1.272 . S
C402 O394 1.311 1_455 S
C402 O396 1.231 . S
O403 Zn385 1.953 . S
O403 C397 1.298 1_455 S
H404 C412 0.950 . S
H405 C417 0.950 . S
H406 C414 0.950 . S
H407 C416 0.950 . S
H408 C418 0.950 . S
H409 C420 0.950 . S
H410 C422 0.950 . S
H411 C423 0.950 . S
C412 H404 0.950 . S
C412 C413 1.386 . S
C412 C414 1.391 . S
C413 C412 1.386 . S
C413 C417 1.393 . S
C414 H406 0.950 . S
C414 C412 1.391 . S
C414 C415 1.400 . S
C415 C414 1.400 . S
C415 C416 1.398 . S
C415 C421 1.491 . S
C416 H407 0.950 . S
C416 C415 1.398 . S
C416 C417 1.391 . S
C417 H405 0.950 . S
C417 C413 1.393 . S
C417 C416 1.391 . S
C418 H408 0.950 . S
C418 C419 1.386 . S
C418 C420 1.391 . S
C419 C418 1.386 . S
C419 C423 1.393 . S
C420 H409 0.950 . S
C420 C418 1.391 . S
C420 C421 1.400 . S
C421 C415 1.491 . S
C421 C420 1.400 . S
C421 C422 1.398 . S
C422 H410 0.950 . S
C422 C421 1.398 . S
C422 C423 1.391 . S
C423 H411 0.950 . S
C423 C419 1.393 . S
C423 C422 1.391 . S
H424 C432 0.950 . S
H425 C437 0.950 . S
H426 C434 0.950 . S
H427 C436 0.950 . S
H428 C438 0.950 . S
H429 C440 0.950 . S
H430 C442 0.950 . S
H431 C443 0.950 . S
C432 H424 0.950 . S
C432 C433 1.386 . S
C432 C434 1.391 . S
C433 C432 1.386 . S
C433 C437 1.393 . S
C434 H426 0.950 . S
C434 C432 1.391 . S
C434 C435 1.400 . S
C435 C434 1.400 . S
C435 C436 1.398 . S
C435 C441 1.491 . S
C436 H427 0.950 . S
C436 C435 1.398 . S
C436 C437 1.391 . S
C437 H425 0.950 . S
C437 C433 1.393 . S
C437 C436 1.391 . S
C438 H428 0.950 . S
C438 C439 1.386 . S
C438 C440 1.391 . S
C439 C438 1.386 . S
C439 C443 1.393 . S
C440 H429 0.950 . S
C440 C438 1.391 . S
C440 C441 1.400 . S
C441 C435 1.491 . S
C441 C440 1.400 . S
C441 C442 1.398 . S
C442 H430 0.950 . S
C442 C441 1.398 . S
C442 C443 1.391 . S
C443 H431 0.950 . S
C443 C439 1.393 . S
C443 C442 1.391 . S
H444 C452 0.950 . S
H445 C457 0.950 . S
H446 C454 0.950 . S
H447 C456 0.950 . S
H448 C458 0.950 . S
H449 C460 0.950 . S
H450 C462 0.950 . S
H451 C463 0.950 . S
C452 H444 0.950 . S
C452 C453 1.386 . S
C452 C454 1.391 . S
C453 C452 1.386 . S
C453 C457 1.393 . S
C454 H446 0.950 . S
C454 C452 1.391 . S
C454 C455 1.400 . S
C455 C454 1.400 . S
C455 C456 1.398 . S
C455 C461 1.491 . S
C456 H447 0.950 . S
C456 C455 1.398 . S
C456 C457 1.391 . S
C457 H445 0.950 . S
C457 C453 1.393 . S
C457 C456 1.391 . S
C458 H448 0.950 . S
C458 C459 1.386 . S
C458 C460 1.391 . S
C459 C458 1.386 . S
C459 C463 1.393 . S
C460 H449 0.950 . S
C460 C458 1.391 . S
C460 C461 1.400 . S
C461 C455 1.491 . S
C461 C460 1.400 . S
C461 C462 1.398 . S
C462 H450 0.950 . S
C462 C461 1.398 . S
C462 C463 1.391 . S
C463 H451 0.950 . S
C463 C459 1.393 . S
C463 C462 1.391 . S
H464 C472 0.950 . S
H465 C477 0.950 . S
H466 C474 0.950 . S
H467 C476 0.950 . S
H468 C478 0.950 . S
H469 C480 0.950 . S
H470 C482 0.950 . S
H471 C483 0.950 . S
C472 H464 0.950 . S
C472 C473 1.386 . S
C472 C474 1.391 . S
C473 C472 1.386 . S
C473 C477 1.393 . S
C474 H466 0.950 . S
C474 C472 1.391 . S
C474 C475 1.400 . S
C475 C474 1.400 . S
C475 C476 1.398 . S
C475 C481 1.491 . S
C476 H467 0.950 . S
C476 C475 1.398 . S
C476 C477 1.391 . S
C477 H465 0.950 . S
C477 C473 1.393 . S
C477 C476 1.391 . S
C478 H468 0.950 . S
C478 C479 1.386 . S
C478 C480 1.391 . S
C479 C478 1.386 . S
C479 C483 1.393 . S
C480 H469 0.950 . S
C480 C478 1.391 . S
C480 C481 1.400 . S
C481 C475 1.491 . S
C481 C480 1.400 . S
C481 C482 1.398 . S
C482 H470 0.950 . S
C482 C481 1.398 . S
C482 C483 1.391 . S
C483 H471 0.950 . S
C483 C479 1.393 . S
C483 C482 1.391 . S
H484 C492 0.950 . S
H485 C497 0.950 . S
H486 C494 0.950 . S
H487 C496 0.950 . S
H488 C498 0.950 . S
H489 C500 0.950 . S
H490 C502 0.950 . S
H491 C503 0.950 . S
C492 H484 0.950 . S
C492 C493 1.386 . S
C492 C494 1.391 . S
C493 C492 1.386 . S
C493 C497 1.393 . S
C494 H486 0.950 . S
C494 C492 1.391 . S
C494 C495 1.400 . S
C495 C494 1.400 . S
C495 C496 1.398 . S
C495 C501 1.491 . S
C496 H487 0.950 . S
C496 C495 1.398 . S
C496 C497 1.391 . S
C497 H485 0.950 . S
C497 C493 1.393 . S
C497 C496 1.391 . S
C498 H488 0.950 . S
C498 C499 1.386 . S
C498 C500 1.391 . S
C499 C498 1.386 . S
C499 C503 1.393 . S
C500 H489 0.950 . S
C500 C498 1.391 . S
C500 C501 1.400 . S
C501 C495 1.491 . S
C501 C500 1.400 . S
C501 C502 1.398 . S
C502 H490 0.950 . S
C502 C501 1.398 . S
C502 C503 1.391 . S
C503 H491 0.950 . S
C503 C499 1.393 . S
C503 C502 1.391 . S
H504 C512 0.950 . S
H505 C517 0.950 . S
H506 C514 0.950 . S
H507 C516 0.950 . S
H508 C518 0.950 . S
H509 C520 0.950 . S
H510 C522 0.950 . S
H511 C523 0.950 . S
C512 H504 0.950 . S
C512 C513 1.386 . S
C512 C514 1.391 . S
C513 C512 1.386 . S
C513 C517 1.393 . S
C514 H506 0.950 . S
C514 C512 1.391 . S
C514 C515 1.400 . S
C515 C514 1.400 . S
C515 C516 1.398 . S
C515 C521 1.491 . S
C516 H507 0.950 . S
C516 C515 1.398 . S
C516 C517 1.391 . S
C517 H505 0.950 . S
C517 C513 1.393 . S
C517 C516 1.391 . S
C518 H508 0.950 . S
C518 C519 1.386 . S
C518 C520 1.391 . S
C519 C518 1.386 . S
C519 C523 1.393 . S
C520 H509 0.950 . S
C520 C518 1.391 . S
C520 C521 1.400 . S
C521 C515 1.491 . S
C521 C520 1.400 . S
C521 C522 1.398 . S
C522 H510 0.950 . S
C522 C521 1.398 . S
C522 C523 1.391 . S
C523 H511 0.950 . S
C523 C519 1.393 . S
C523 C522 1.391 . S
H524 C532 0.950 . S
H525 C537 0.950 . S
H526 C534 0.950 . S
H527 C536 0.950 . S
H528 C538 0.950 . S
H529 C540 0.950 . S
H530 C542 0.950 . S
H531 C543 0.950 . S
C532 H524 0.950 . S
C532 C533 1.386 . S
C532 C534 1.391 . S
C533 C532 1.386 . S
C533 C537 1.393 . S
C534 H526 0.950 . S
C534 C532 1.391 . S
C534 C535 1.400 . S
C535 C534 1.400 . S
C535 C536 1.398 . S
C535 C541 1.491 . S
C536 H527 0.950 . S
C536 C535 1.398 . S
C536 C537 1.391 . S
C537 H525 0.950 . S
C537 C533 1.393 . S
C537 C536 1.391 . S
C538 H528 0.950 . S
C538 C539 1.386 . S
C538 C540 1.391 . S
C539 C538 1.386 . S
C539 C543 1.393 . S
C540 H529 0.950 . S
C540 C538 1.391 . S
C540 C541 1.400 . S
C541 C535 1.491 . S
C541 C540 1.400 . S
C541 C542 1.398 . S
C542 H530 0.950 . S
C542 C541 1.398 . S
C542 C543 1.391 . S
C543 H531 0.950 . S
C543 C539 1.393 . S
C543 C542 1.391 . S
H544 C552 0.950 . S
H545 C557 0.950 . S
H546 C554 0.950 . S
H547 C556 0.950 . S
H548 C558 0.950 . S
H549 C560 0.950 . S
H550 C562 0.950 . S
H551 C563 0.950 . S
C552 H544 0.950 . S
C552 C553 1.386 . S
C552 C554 1.391 . S
C553 C552 1.386 . S
C553 C557 1.393 . S
C554 H546 0.950 . S
C554 C552 1.391 . S
C554 C555 1.400 . S
C555 C554 1.400 . S
C555 C556 1.398 . S
C555 C561 1.491 . S
C556 H547 0.950 . S
C556 C555 1.398 . S
C556 C557 1.391 . S
C557 H545 0.950 . S
C557 C553 1.393 . S
C557 C556 1.391 . S
C558 H548 0.950 . S
C558 C559 1.386 . S
C558 C560 1.391 . S
C559 C558 1.386 . S
C559 C563 1.393 . S
C560 H549 0.950 . S
C560 C558 1.391 . S
C560 C561 1.400 . S
C561 C555 1.491 . S
C561 C560 1.400 . S
C561 C562 1.398 . S
C562 H550 0.950 . S
C562 C561 1.398 . S
C562 C563 1.391 . S
C563 H551 0.950 . S
C563 C559 1.393 . S
C563 C562 1.391 . S
H564 C572 0.950 . S
H565 C577 0.950 . S
H566 C574 0.950 . S
H567 C576 0.950 . S
H568 C578 0.950 . S
H569 C580 0.950 . S
H570 C582 0.950 . S
H571 C583 0.950 . S
C572 H564 0.950 . S
C572 C573 1.386 . S
C572 C574 1.391 . S
C573 C572 1.386 . S
C573 C577 1.393 . S
C574 H566 0.950 . S
C574 C572 1.391 . S
C574 C575 1.400 . S
C575 C574 1.400 . S
C575 C576 1.398 . S
C575 C581 1.491 . S
C576 H567 0.950 . S
C576 C575 1.398 . S
C576 C577 1.391 . S
C577 H565 0.950 . S
C577 C573 1.393 . S
C577 C576 1.391 . S
C578 H568 0.950 . S
C578 C579 1.386 . S
C578 C580 1.391 . S
C579 C578 1.386 . S
C579 C583 1.393 . S
C580 H569 0.950 . S
C580 C578 1.391 . S
C580 C581 1.400 . S
C581 C575 1.491 . S
C581 C580 1.400 . S
C581 C582 1.398 . S
C582 H570 0.950 . S
C582 C581 1.398 . S
C582 C583 1.391 . S
C583 H571 0.950 . S
C583 C579 1.393 . S
C583 C582 1.391 . S
H584 C592 0.950 . S
H585 C597 0.950 . S
H586 C594 0.950 . S
H587 C596 0.950 . S
H588 C598 0.970 . S
H589 C600 0.950 1_554 S
H590 C602 0.950 . S
H591 C603 0.950 . S
C592 H584 0.950 . S
C592 C593 1.386 . S
C592 C594 1.391 . S
C593 C592 1.386 . S
C593 C597 1.393 . S
C594 H586 0.950 . S
C594 C592 1.391 . S
C594 C595 1.400 . S
C595 C594 1.400 . S
C595 C596 1.398 . S
C595 C601 1.491 . S
C596 H587 0.950 . S
C596 C595 1.398 . S
C596 C597 1.391 . S
C597 H585 0.950 . S
C597 C593 1.393 . S
C597 C596 1.391 . S
C598 H588 0.970 . S
C598 C599 1.371 1_554 S
C598 C600 1.385 1_554 S
C599 C598 1.371 1_556 S
C599 C603 1.393 . S
C600 H589 0.950 1_556 S
C600 C598 1.385 1_556 S
C600 C601 1.400 . S
C601 C595 1.491 . S
C601 C600 1.400 . S
C601 C602 1.398 . S
C602 H590 0.950 . S
C602 C601 1.398 . S
C602 C603 1.391 . S
C603 H591 0.950 . S
C603 C599 1.393 . S
C603 C602 1.391 . S
H604 C612 0.950 . S
H605 C617 0.950 . S
H606 C614 0.950 . S
H607 C616 0.950 . S
H608 C618 0.950 . S
H609 C620 0.950 . S
H610 C622 0.950 . S
H611 C623 0.950 . S
C612 H604 0.950 . S
C612 C613 1.386 . S
C612 C614 1.391 . S
C613 C612 1.386 . S
C613 C617 1.393 . S
C614 H606 0.950 . S
C614 C612 1.391 . S
C614 C615 1.400 . S
C615 C614 1.400 . S
C615 C616 1.398 . S
C615 C621 1.491 . S
C616 H607 0.950 . S
C616 C615 1.398 . S
C616 C617 1.391 . S
C617 H605 0.950 . S
C617 C613 1.393 . S
C617 C616 1.391 . S
C618 H608 0.950 . S
C618 C619 1.386 . S
C618 C620 1.391 . S
C619 C618 1.386 . S
C619 C623 1.393 . S
C620 H609 0.950 . S
C620 C618 1.391 . S
C620 C621 1.400 . S
C621 C615 1.491 . S
C621 C620 1.400 . S
C621 C622 1.398 . S
C622 H610 0.950 . S
C622 C621 1.398 . S
C622 C623 1.391 . S
C623 H611 0.950 . S
C623 C619 1.393 . S
C623 C622 1.391 . S
H624 C632 0.950 . S
H625 C637 0.950 . S
H626 C634 0.950 . S
H627 C636 0.950 . S
H628 C638 0.950 . S
H629 C640 0.950 . S
H630 C642 0.950 . S
H631 C643 0.950 . S
C632 H624 0.950 . S
C632 C633 1.386 . S
C632 C634 1.391 . S
C633 C632 1.386 . S
C633 C637 1.393 . S
C634 H626 0.950 . S
C634 C632 1.391 . S
C634 C635 1.400 . S
C635 C634 1.400 . S
C635 C636 1.398 . S
C635 C641 1.491 . S
C636 H627 0.950 . S
C636 C635 1.398 . S
C636 C637 1.391 . S
C637 H625 0.950 . S
C637 C633 1.393 . S
C637 C636 1.391 . S
C638 H628 0.950 . S
C638 C639 1.386 . S
C638 C640 1.391 . S
C639 C638 1.386 . S
C639 C643 1.393 . S
C640 H629 0.950 . S
C640 C638 1.391 . S
C640 C641 1.400 . S
C641 C635 1.491 . S
C641 C640 1.400 . S
C641 C642 1.398 . S
C642 H630 0.950 . S
C642 C641 1.398 . S
C642 C643 1.391 . S
C643 H631 0.950 . S
C643 C639 1.393 . S
C643 C642 1.391 . S
H644 C652 0.950 . S
H645 C657 0.950 . S
H646 C654 0.950 . S
H647 C656 0.950 1_455 S
H648 C658 0.950 1_455 S
H649 C660 0.950 1_455 S
H650 C662 0.950 . S
H651 C663 0.950 . S
C652 H644 0.950 . S
C652 C653 1.386 1_545 S
C652 C654 1.391 . S
C653 C652 1.386 1_565 S
C653 C657 1.393 . S
C654 H646 0.950 . S
C654 C652 1.391 . S
C654 C655 1.400 1_545 S
C655 C654 1.400 1_565 S
C655 C656 1.398 . S
C655 C661 1.491 . S
C656 H647 0.950 1_655 S
C656 C655 1.398 . S
C656 C657 1.391 . S
C657 H645 0.950 . S
C657 C653 1.393 . S
C657 C656 1.391 . S
C658 H648 0.950 1_655 S
C658 C659 1.383 1_565 S
C658 C660 1.391 . S
C659 C658 1.383 1_545 S
C659 C663 1.395 . S
C660 H649 0.950 1_655 S
C660 C658 1.391 . S
C660 C661 1.400 . S
C661 C655 1.491 . S
C661 C660 1.400 . S
C661 C662 1.398 1_565 S
C662 H650 0.950 . S
C662 C661 1.398 1_545 S
C662 C663 1.391 . S
C663 H651 0.950 . S
C663 C659 1.395 . S
C663 C662 1.391 . S
H664 C672 0.950 . S
H665 C677 0.950 1_565 S
H666 C674 0.950 . S
H667 C676 0.950 1_565 S
H668 C678 0.950 . S
H669 C680 0.950 . S
H670 C682 0.950 . S
H671 C683 0.950 . S
C672 H664 0.950 . S
C672 C673 1.386 . S
C672 C674 1.391 . S
C673 C672 1.386 . S
C673 C677 1.393 . S
C674 H666 0.950 . S
C674 C672 1.391 . S
C674 C675 1.400 . S
C675 C674 1.400 . S
C675 C676 1.398 . S
C675 C681 1.491 . S
C676 H667 0.950 1_545 S
C676 C675 1.398 . S
C676 C677 1.391 . S
C677 H665 0.950 1_545 S
C677 C673 1.393 . S
C677 C676 1.391 . S
C678 H668 0.950 . S
C678 C679 1.386 1_565 S
C678 C680 1.391 . S
C679 C678 1.386 1_545 S
C679 C683 1.393 . S
C680 H669 0.950 . S
C680 C678 1.391 . S
C680 C681 1.400 1_565 S
C681 C675 1.491 . S
C681 C680 1.400 1_545 S
C681 C682 1.398 . S
C682 H670 0.950 . S
C682 C681 1.398 . S
C682 C683 1.391 . S
C683 H671 0.950 . S
C683 C679 1.393 . S
C683 C682 1.391 . S
H684 C692 0.950 . S
H685 C697 0.950 . S
H686 C694 0.950 . S
H687 C696 0.950 . S
H688 C698 0.950 . S
H689 C700 0.950 . S
H690 C702 0.950 . S
H691 C703 0.950 . S
C692 H684 0.950 . S
C692 C693 1.386 . S
C692 C694 1.391 . S
C693 C692 1.386 . S
C693 C697 1.393 . S
C694 H686 0.950 . S
C694 C692 1.391 . S
C694 C695 1.400 . S
C695 C694 1.400 . S
C695 C696 1.398 . S
C695 C701 1.491 . S
C696 H687 0.950 . S
C696 C695 1.398 . S
C696 C697 1.391 . S
C697 H685 0.950 . S
C697 C693 1.393 . S
C697 C696 1.391 . S
C698 H688 0.950 . S
C698 C699 1.386 . S
C698 C700 1.391 . S
C699 C698 1.386 . S
C699 C703 1.393 . S
C700 H689 0.950 . S
C700 C698 1.391 . S
C700 C701 1.400 . S
C701 C695 1.491 . S
C701 C700 1.400 . S
C701 C702 1.398 . S
C702 H690 0.950 . S
C702 C701 1.398 . S
C702 C703 1.391 . S
C703 H691 0.950 . S
C703 C699 1.393 . S
C703 C702 1.391 . S
H704 C712 0.950 . S
H705 C717 0.950 . S
H706 C714 0.950 . S
H707 C716 0.950 . S
H708 C718 0.950 . S
H709 C720 0.950 . S
H710 C722 0.950 . S
H711 C723 0.917 1_655 S
C712 H704 0.950 . S
C712 C713 1.386 . S
C712 C714 1.391 . S
C713 C712 1.386 . S
C713 C717 1.393 . S
C714 H706 0.950 . S
C714 C712 1.391 . S
C714 C715 1.400 . S
C715 C714 1.400 . S
C715 C716 1.398 . S
C715 C721 1.491 . S
C716 H707 0.950 . S
C716 C715 1.398 . S
C716 C717 1.391 . S
C717 H705 0.950 . S
C717 C713 1.393 . S
C717 C716 1.391 . S
C718 H708 0.950 . S
C718 C719 1.386 . S
C718 C720 1.391 . S
C719 C718 1.386 . S
C719 C723 1.393 . S
C720 H709 0.950 . S
C720 C718 1.391 . S
C720 C721 1.400 . S
C721 C715 1.491 . S
C721 C720 1.400 . S
C721 C722 1.398 . S
C722 H710 0.950 . S
C722 C721 1.398 . S
C722 C723 1.391 . S
C723 H711 0.917 1_455 S
C723 C719 1.393 . S
C723 C722 1.391 . S
H724 C732 0.950 . S
H725 C737 0.950 1_554 S
H726 C734 0.950 . S
H727 C736 0.950 1_554 S
H728 C738 0.950 . S
H729 C740 0.950 . S
H730 C742 0.950 . S
H731 C743 0.950 . S
C732 H724 0.950 . S
C732 C733 1.386 . S
C732 C734 1.391 . S
C733 C732 1.386 . S
C733 C737 1.393 1_565 S
C734 H726 0.950 . S
C734 C732 1.391 . S
C734 C735 1.400 . S
C735 C734 1.400 . S
C735 C736 1.398 1_565 S
C735 C741 1.491 . S
C736 H727 0.950 1_556 S
C736 C735 1.398 1_545 S
C736 C737 1.391 . S
C737 H725 0.950 1_556 S
C737 C733 1.393 1_545 S
C737 C736 1.391 . S
C738 H728 0.950 . S
C738 C739 1.386 1_544 S
C738 C740 1.391 . S
C739 C738 1.386 1_566 S
C739 C743 1.393 . S
C740 H729 0.950 . S
C740 C738 1.391 . S
C740 C741 1.400 1_544 S
C741 C735 1.491 . S
C741 C740 1.400 1_566 S
C741 C742 1.398 . S
C742 H730 0.950 . S
C742 C741 1.398 . S
C742 C743 1.391 . S
C743 H731 0.950 . S
C743 C739 1.393 . S
C743 C742 1.391 . S
H744 C752 0.950 . S
H745 C757 0.967 . S
H746 C754 0.950 . S
H747 C756 0.950 1_565 S
H748 C758 0.950 1_565 S
H749 C760 0.950 1_565 S
H750 C762 0.950 . S
H751 C763 0.950 . S
C752 H744 0.950 . S
C752 C753 1.386 . S
C752 C754 1.391 . S
C753 C752 1.386 . S
C753 C757 1.393 . S
C754 H746 0.950 . S
C754 C752 1.391 . S
C754 C755 1.400 . S
C755 C754 1.400 . S
C755 C756 1.398 . S
C755 C761 1.491 . S
C756 H747 0.950 1_545 S
C756 C755 1.398 . S
C756 C757 1.391 . S
C757 H745 0.967 . S
C757 C753 1.393 . S
C757 C756 1.391 . S
C758 H748 0.950 1_545 S
C758 C759 1.386 . S
C758 C760 1.391 . S
C759 C758 1.386 . S
C759 C763 1.393 . S
C760 H749 0.950 1_545 S
C760 C758 1.391 . S
C760 C761 1.400 . S
C761 C755 1.491 . S
C761 C760 1.400 . S
C761 C762 1.398 . S
C762 H750 0.950 . S
C762 C761 1.398 . S
C762 C763 1.391 . S
C763 H751 0.950 . S
C763 C759 1.393 . S
C763 C762 1.391 . S
H764 C772 0.950 . S
H765 C777 0.950 . S
H766 C774 0.950 . S
H767 C776 0.950 . S
H768 C778 0.950 . S
H769 C780 0.950 . S
H770 C782 0.950 . S
H771 C783 0.950 . S
C772 H764 0.950 . S
C772 C773 1.386 . S
C772 C774 1.391 . S
C773 C772 1.386 . S
C773 C777 1.393 . S
C774 H766 0.950 . S
C774 C772 1.391 . S
C774 C775 1.400 . S
C775 C774 1.400 . S
C775 C776 1.398 . S
C775 C781 1.491 . S
C776 H767 0.950 . S
C776 C775 1.398 . S
C776 C777 1.391 . S
C777 H765 0.950 . S
C777 C773 1.393 . S
C777 C776 1.391 . S
C778 H768 0.950 . S
C778 C779 1.386 . S
C778 C780 1.391 . S
C779 C778 1.386 . S
C779 C783 1.393 . S
C780 H769 0.950 . S
C780 C778 1.391 . S
C780 C781 1.400 . S
C781 C775 1.491 . S
C781 C780 1.400 . S
C781 C782 1.398 . S
C782 H770 0.950 . S
C782 C781 1.398 . S
C782 C783 1.391 . S
C783 H771 0.950 . S
C783 C779 1.393 . S
C783 C782 1.391 . S
H784 C792 0.950 . S
H785 C797 0.950 . S
H786 C794 0.950 . S
H787 C796 0.950 . S
H788 C798 0.950 . S
H789 C800 0.950 . S
H790 C802 0.950 . S
H791 C803 0.950 . S
C792 H784 0.950 . S
C792 C793 1.386 . S
C792 C794 1.391 . S
C793 C792 1.386 . S
C793 C797 1.393 . S
C794 H786 0.950 . S
C794 C792 1.391 . S
C794 C795 1.400 . S
C795 C794 1.400 . S
C795 C796 1.398 . S
C795 C801 1.491 . S
C796 H787 0.950 . S
C796 C795 1.398 . S
C796 C797 1.391 . S
C797 H785 0.950 . S
C797 C793 1.393 . S
C797 C796 1.391 . S
C798 H788 0.950 . S
C798 C799 1.386 . S
C798 C800 1.391 . S
C799 C798 1.386 . S
C799 C803 1.393 . S
C800 H789 0.950 . S
C800 C798 1.391 . S
C800 C801 1.400 . S
C801 C795 1.491 . S
C801 C800 1.400 . S
C801 C802 1.398 . S
C802 H790 0.950 . S
C802 C801 1.398 . S
C802 C803 1.391 . S
C803 H791 0.950 . S
C803 C799 1.393 . S
C803 C802 1.391 . S
H804 C812 0.950 . S
H805 C817 0.950 1_554 S
H806 C814 0.950 . S
H807 C816 0.950 . S
H808 C818 0.950 . S
H809 C820 0.950 . S
H810 C822 0.950 . S
H811 C823 0.950 . S
C812 H804 0.950 . S
C812 C813 1.386 . S
C812 C814 1.391 . S
C813 C812 1.386 . S
C813 C817 1.393 . S
C814 H806 0.950 . S
C814 C812 1.391 . S
C814 C815 1.400 . S
C815 C814 1.400 . S
C815 C816 1.398 1_556 S
C815 C821 1.491 . S
C816 H807 0.950 . S
C816 C815 1.398 1_554 S
C816 C817 1.391 1_554 S
C817 H805 0.950 1_556 S
C817 C813 1.393 . S
C817 C816 1.391 1_556 S
C818 H808 0.950 . S
C818 C819 1.386 1_554 S
C818 C820 1.391 . S
C819 C818 1.386 1_556 S
C819 C823 1.393 . S
C820 H809 0.950 . S
C820 C818 1.391 . S
C820 C821 1.400 1_554 S
C821 C815 1.491 . S
C821 C820 1.400 1_556 S
C821 C822 1.398 . S
C822 H810 0.950 . S
C822 C821 1.398 . S
C822 C823 1.391 . S
C823 H811 0.950 . S
C823 C819 1.393 . S
C823 C822 1.391 . S
H824 C832 0.950 . S
H825 C837 0.950 . S
H826 C834 0.950 . S
H827 C836 0.950 . S
H828 C838 0.950 . S
H829 C840 0.950 . S
H830 C842 0.950 . S
H831 C843 0.950 . S
C832 H824 0.950 . S
C832 C833 1.386 . S
C832 C834 1.391 . S
C833 C832 1.386 . S
C833 C837 1.393 . S
C834 H826 0.950 . S
C834 C832 1.391 . S
C834 C835 1.400 . S
C835 C834 1.400 . S
C835 C836 1.398 . S
C835 C841 1.491 . S
C836 H827 0.950 . S
C836 C835 1.398 . S
C836 C837 1.391 . S
C837 H825 0.950 . S
C837 C833 1.393 . S
C837 C836 1.391 . S
C838 H828 0.950 . S
C838 C839 1.386 . S
C838 C840 1.391 . S
C839 C838 1.386 . S
C839 C843 1.393 . S
C840 H829 0.950 . S
C840 C838 1.391 . S
C840 C841 1.400 . S
C841 C835 1.491 . S
C841 C840 1.400 . S
C841 C842 1.398 . S
C842 H830 0.950 . S
C842 C841 1.398 . S
C842 C843 1.391 . S
C843 H831 0.950 . S
C843 C839 1.393 . S
C843 C842 1.391 . S
H844 C852 0.950 . S
H845 C857 0.950 . S
H846 C854 0.950 . S
H847 C856 0.950 . S
H848 C858 0.950 . S
H849 C860 0.950 . S
H850 C862 0.950 . S
H851 C863 0.950 . S
C852 H844 0.950 . S
C852 C853 1.386 . S
C852 C854 1.391 . S
C853 C852 1.386 . S
C853 C857 1.393 . S
C854 H846 0.950 . S
C854 C852 1.391 . S
C854 C855 1.400 . S
C855 C854 1.400 . S
C855 C856 1.398 . S
C855 C861 1.491 . S
C856 H847 0.950 . S
C856 C855 1.398 . S
C856 C857 1.391 . S
C857 H845 0.950 . S
C857 C853 1.393 . S
C857 C856 1.391 . S
C858 H848 0.950 . S
C858 C859 1.386 . S
C858 C860 1.391 . S
C859 C858 1.386 . S
C859 C863 1.393 . S
C860 H849 0.950 . S
C860 C858 1.391 . S
C860 C861 1.400 . S
C861 C855 1.491 . S
C861 C860 1.400 . S
C861 C862 1.398 . S
C862 H850 0.950 . S
C862 C861 1.398 . S
C862 C863 1.391 . S
C863 H851 0.950 . S
C863 C859 1.393 . S
C863 C862 1.391 . S
H864 C872 0.950 . S
H865 C877 0.950 . S
H866 C874 0.950 . S
H867 C876 0.950 . S
H868 C878 0.950 . S
H869 C880 0.950 . S
H870 C882 0.950 . S
H871 C883 0.950 . S
C872 H864 0.950 . S
C872 C873 1.386 . S
C872 C874 1.391 . S
C873 C872 1.386 . S
C873 C877 1.393 . S
C874 H866 0.950 . S
C874 C872 1.391 . S
C874 C875 1.400 . S
C875 C874 1.400 . S
C875 C876 1.398 . S
C875 C881 1.491 . S
C876 H867 0.950 . S
C876 C875 1.398 . S
C876 C877 1.391 . S
C877 H865 0.950 . S
C877 C873 1.393 . S
C877 C876 1.391 . S
C878 H868 0.950 . S
C878 C879 1.386 . S
C878 C880 1.391 . S
C879 C878 1.386 . S
C879 C883 1.393 . S
C880 H869 0.950 . S
C880 C878 1.391 . S
C880 C881 1.400 . S
C881 C875 1.491 . S
C881 C880 1.400 . S
C881 C882 1.398 . S
C882 H870 0.950 . S
C882 C881 1.398 . S
C882 C883 1.391 . S
C883 H871 0.950 . S
C883 C879 1.393 . S
C883 C882 1.391 . S
C413 C1 1.616 . S
C419 C330 1.588 . S
C433 C40 1.596 . S
C439 C354 1.571 . S
C459 C374 1.446 . S
C453 C99 1.435 . S
C473 C118 1.425 . S
C479 C397 1.449 . S
C499 C356 1.670 . S
C493 C16 1.717 . S
C519 C332 1.651 . S
C513 C60 1.690 . S
C539 C400 1.612 . S
C533 C79 1.652 . S
C559 C377 1.547 . S
C553 C138 1.587 . S
C573 C21 1.396 . S
C579 C402 1.367 . S
C599 C351 1.670 . S
C593 C94 1.653 . S
C613 C133 1.629 . S
C619 C329 1.640 . S
C633 C55 1.387 . S
C639 C379 1.361 . S
C659 C333 1.726 . S
C653 C157 1.705 . S
C673 C196 1.647 . S
C679 C355 1.661 . S
C693 C255 1.790 . S
C699 C375 1.829 . S
C713 C289 1.790 . S
C719 C398 1.822 . S
C733 C172 1.626 . S
C739 C353 1.623 . S
C759 C331 1.650 . S
C753 C216 1.616 . S
C779 C401 1.524 . S
C773 C235 1.555 . S
C799 C378 1.523 . S
C793 C294 1.549 . S
C813 C177 1.930 . S
C819 C399 1.921 . S
C839 C352 1.625 . S
C833 C250 1.597 . S
C859 C328 1.616 . S
C853 C274 1.589 . S
C873 C211 1.893 . S
C879 C376 1.885 . S
