# Generated by pormake.
# Topology anh, (6,3)-cn, num edge types: 1
# Building blocks:
#     Node 0, Type 0, BuildingBlock: GEDQOX_clean_sbu_0, # of connection points: 6
#     Node 1, Type 0, BuildingBlock: GEDQOX_clean_sbu_0, # of connection points: 6
#     Node 2, Type 0, BuildingBlock: GEDQOX_clean_sbu_0, # of connection points: 6
#     Node 3, Type 1, BuildingBlock: ESEHIV_clean_linker_0, # of connection points: 3
#     Node 4, Type 1, BuildingBlock: ESEHIV_clean_linker_0, # of connection points: 3
#     Node 5, Type 1, BuildingBlock: ESEHIV_clean_linker_0, # of connection points: 3
#     Node 6, Type 1, BuildingBlock: ESEHIV_clean_linker_0, # of connection points: 3
#     Node 7, Type 1, BuildingBlock: ESEHIV_clean_linker_0, # of connection points: 3
#     Node 8, Type 1, BuildingBlock: ESEHIV_clean_linker_0, # of connection points: 3
#     Edge 9, Type (0, 1), BuildingBlock: EZIPEK_clean_linker_0, # of connection points: 2
#     Edge 10, Type (0, 1), BuildingBlock: EZIPEK_clean_linker_0, # of connection points: 2
#     Edge 11, Type (0, 1), BuildingBlock: EZIPEK_clean_linker_0, # of connection points: 2
#     Edge 12, Type (0, 1), BuildingBlock: EZIPEK_clean_linker_0, # of connection points: 2
#     Edge 13, Type (0, 1), BuildingBlock: EZIPEK_clean_linker_0, # of connection points: 2
#     Edge 14, Type (0, 1), BuildingBlock: EZIPEK_clean_linker_0, # of connection points: 2
#     Edge 15, Type (0, 1), BuildingBlock: EZIPEK_clean_linker_0, # of connection points: 2
#     Edge 16, Type (0, 1), BuildingBlock: EZIPEK_clean_linker_0, # of connection points: 2
#     Edge 17, Type (0, 1), BuildingBlock: EZIPEK_clean_linker_0, # of connection points: 2
#     Edge 18, Type (0, 1), BuildingBlock: EZIPEK_clean_linker_0, # of connection points: 2
#     Edge 19, Type (0, 1), BuildingBlock: EZIPEK_clean_linker_0, # of connection points: 2
#     Edge 20, Type (0, 1), BuildingBlock: EZIPEK_clean_linker_0, # of connection points: 2
#     Edge 21, Type (0, 1), BuildingBlock: EZIPEK_clean_linker_0, # of connection points: 2
#     Edge 22, Type (0, 1), BuildingBlock: EZIPEK_clean_linker_0, # of connection points: 2
#     Edge 23, Type (0, 1), BuildingBlock: EZIPEK_clean_linker_0, # of connection points: 2
#     Edge 24, Type (0, 1), BuildingBlock: EZIPEK_clean_linker_0, # of connection points: 2
#     Edge 25, Type (0, 1), BuildingBlock: EZIPEK_clean_linker_0, # of connection points: 2
#     Edge 26, Type (0, 1), BuildingBlock: EZIPEK_clean_linker_0, # of connection points: 2
# Relax obj value: 0.279
# Max RMSD: 0.261
# Mean RMSD: 0.182
data_MOF--net-anh--node1-GEDQOX_clean_sbu_0--node2-ESEHIV_clean_linker_0--edge1-EZIPEK_clean_linker_0
_symmetry_space_group_name_H-M    P1
_symmetry_Int_Tables_number       1
_symmetry_cell_setting            triclinic
loop_
_symmetry_equiv_pos_as_xyz
'x, y, z'
_cell_length_a     19.769596
_cell_length_b     19.344692
_cell_length_c     38.006499
_cell_angle_alpha  93.468581
_cell_angle_beta   88.00663
_cell_angle_gamma 94.494656
loop_
_atom_site_label
_atom_site_type_symbol
_atom_site_fract_x
_atom_site_fract_y
_atom_site_fract_z
_atom_type_partial_charge
Nd0 Nd 0.19563 0.6354 0.13225 0.0
Nd1 Nd 0.17856 0.48405 0.1367 0.0
C2 C 0.23535 0.76871 0.12771 0.0
C3 C 0.29983 0.81099 0.13255 0.0
C4 C 0.36249 0.78438 0.12299 0.0
C5 C 0.42299 0.81873 0.13514 0.0
C6 C 0.42126 0.87915 0.15756 0.0
C7 C 0.35892 0.90743 0.16549 0.0
C8 C 0.29878 0.8738 0.15293 0.0
C9 C 0.14388 0.5947 0.19643 0.0
C10 C 0.3365 0.55225 0.13379 0.0
C11 C 0.1642 0.3537 0.15541 0.0
C12 C 1.10282 0.31221 0.16694 0.0
C13 C 1.03895 0.33672 0.16238 0.0
C14 C 0.9804 0.30169 0.17584 0.0
C15 C 0.9845 0.24088 0.19369 0.0
C16 C 1.04816 0.2151 0.19761 0.0
C17 C 1.10722 0.25101 0.18449 0.0
C18 C 0.18042 0.52307 0.06892 0.0
C19 C 1.04242 0.56504 0.12104 0.0
O20 O 0.22944 0.72532 0.10002 0.0
O21 O 0.21092 0.74158 0.15643 0.0
O22 O 1.11876 0.64115 0.17884 0.0
O23 O 0.19288 0.56896 0.17948 0.0
O24 O 0.30945 0.61295 0.13581 0.0
O25 O 0.29652 0.49396 0.13344 0.0
O26 O 0.18343 0.40603 0.17691 0.0
O27 O 0.16612 0.37068 0.12267 0.0
O28 O 1.13869 0.47471 0.08114 0.0
O29 O 0.22022 0.54931 0.09222 0.0
O30 O 1.06538 0.51265 0.1371 0.0
O31 O 1.08648 0.61624 0.11119 0.0
H32 H 0.36449 0.73548 0.10768 0.0
H33 H 0.47068 0.79625 0.12869 0.0
H34 H 0.35653 0.95396 0.18271 0.0
H35 H 0.25095 0.89463 0.16097 0.0
H36 H 1.0344 0.38377 0.14895 0.0
H37 H 0.93173 0.32229 0.17254 0.0
H38 H 1.05208 0.16814 0.21129 0.0
H39 H 0.15617 0.23162 0.18842 0.0
Nd40 Nd 0.57142 1.00688 0.51747 0.0
Nd41 Nd 0.72196 1.02096 0.50478 0.0
C42 C 0.44497 0.96992 0.53677 0.0
C43 C 0.3958 0.91833 0.52026 0.0
C44 C 0.35015 0.87795 0.5411 0.0
C45 C 0.30765 0.82456 0.5253 0.0
C46 C 0.31042 0.81167 0.48856 0.0
C47 C 0.35562 0.85238 0.46776 0.0
C48 C 0.39838 0.90504 0.4835 0.0
C49 C 0.6089 1.01873 0.44769 0.0
C50 C 0.65696 0.86535 0.508 0.0
C51 C 0.84522 0.05435 0.47966 0.0
C52 C 0.87996 0.11946 0.46838 0.0
C53 C 0.84703 0.16295 0.44728 0.0
C54 C 0.87981 0.22539 0.43728 0.0
C55 C 0.94564 0.24529 0.4484 0.0
C56 C 0.97837 0.20248 0.46981 0.0
C57 C 0.94567 0.13971 0.47968 0.0
C58 C 0.68364 1.00425 0.57407 0.0
C59 C 0.64116 0.16323 0.5209 0.0
O60 O 0.49711 0.94443 0.55 0.0
O61 O 0.46208 1.02448 0.51883 0.0
O62 O 0.55438 0.04229 0.46195 0.0
O63 O 0.63725 0.98425 0.46918 0.0
O64 O 0.60184 0.8941 0.52045 0.0
O65 O 0.70889 0.90329 0.49492 0.0
O66 O 0.79569 0.02751 0.45999 0.0
O67 O 0.83089 0.05188 0.51342 0.0
O68 O 0.73513 0.97635 0.55838 0.0
O69 O 0.65615 0.04248 0.5538 0.0
O70 O 0.6951 0.13554 0.5062 0.0
O71 O 0.58828 0.12312 0.53161 0.0
H72 H 0.34839 0.88683 0.56953 0.0
H73 H 0.27317 0.79297 0.54161 0.0
H74 H 0.35861 0.84243 0.43941 0.0
H75 H 0.43434 0.93454 0.46698 0.0
H76 H 0.79603 0.14873 0.43847 0.0
H77 H 0.85404 0.25806 0.42075 0.0
H78 H 1.02929 0.21747 0.47855 0.0
H79 H 0.97153 0.10705 0.49617 0.0
Nd80 Nd 0.56805 0.56949 0.8179 0.0
Nd81 Nd 0.71878 0.56818 0.82524 0.0
C82 C 0.44332 0.56168 0.79483 0.0
C83 C 0.3785 0.59406 0.79449 0.0
C84 C 0.35078 0.6051 0.76195 0.0
C85 C 0.28197 0.61608 0.76 0.0
C86 C 0.23992 0.61445 0.79052 0.0
C87 C 0.27033 0.61338 0.82351 0.0
C88 C 0.33897 0.60306 0.82547 0.0
C89 C 0.61048 0.58371 0.88653 0.0
C90 C 0.65753 0.71802 0.82593 0.0
C91 C 0.8357 0.53217 0.84442 0.0
C92 C 0.84773 0.4633 0.85679 0.0
C93 C 0.8215 0.44308 0.88971 0.0
C94 C 0.82741 0.37602 0.90006 0.0
C95 C 0.8612 0.32704 0.87818 0.0
C96 C 0.88239 0.34629 0.84397 0.0
C97 C 0.87681 0.4137 0.83374 0.0
C98 C 0.68178 0.59186 0.7585 0.0
C99 C 0.62936 0.41721 0.81341 0.0
O100 O 0.49529 0.59055 0.7775 0.0
O101 O 0.45957 0.53438 0.82384 0.0
O102 O 0.56174 0.61743 0.87538 0.0
O103 O 0.63185 0.54323 0.86228 0.0
O104 O 0.60369 0.68407 0.81177 0.0
O105 O 0.70495 0.68421 0.83978 0.0
O106 O 0.79801 0.57118 0.86521 0.0
O107 O 0.82031 0.53232 0.81122 0.0
O108 O 0.73475 0.62327 0.77347 0.0
O109 O 0.65229 0.54827 0.7784 0.0
O110 O 0.68979 0.45043 0.81732 0.0
O111 O 0.57397 0.45103 0.81344 0.0
H112 H 0.38094 0.5997 0.73771 0.0
H113 H 0.2609 0.62001 0.73439 0.0
H114 H 0.23985 0.61282 0.84772 0.0
H115 H 0.35935 0.59614 0.85101 0.0
H116 H 0.79598 0.4789 0.90766 0.0
H117 H 0.80741 0.3638 0.92598 0.0
H118 H 0.90688 0.31083 0.82546 0.0
H119 H 0.89537 0.42701 0.80767 0.0
H120 H 0.58601 0.98072 0.28666 0.0
H121 H 0.77052 0.10628 0.30407 0.0
H122 H 0.70739 0.04734 0.19828 0.0
C123 C 0.63053 1.00983 0.27614 0.0
C124 C 0.64109 1.01256 0.23969 0.0
C125 C 0.67782 0.04329 0.2991 0.0
C126 C 0.7336 0.08388 0.28554 0.0
C127 C 0.74075 0.09523 0.24901 0.0
C128 C 0.69821 0.05149 0.22643 0.0
H129 H 0.66315 0.65166 0.59693 0.0
H130 H 0.65602 0.43305 0.61031 0.0
H131 H 0.63633 0.50764 0.50659 0.0
C132 C 0.65751 0.59872 0.58564 0.0
C133 C 0.64994 0.58638 0.54922 0.0
C134 C 0.6586 0.54368 0.60765 0.0
C135 C 0.65362 0.47545 0.59308 0.0
C136 C 0.64517 0.46131 0.55669 0.0
C137 C 0.64246 0.51743 0.53471 0.0
H138 H 1.1127 0.36921 0.95395 0.0
H139 H 0.17861 0.54111 0.89181 0.0
H140 H 1.01969 0.39314 0.85518 0.0
C141 C 1.10811 0.39775 0.93059 0.0
C142 C 1.06101 0.37339 0.90536 0.0
C143 C 0.14617 0.46139 0.92705 0.0
C144 C 0.14635 0.49389 0.89518 0.0
C145 C 1.10112 0.46875 0.86893 0.0
C146 C 1.05663 0.41042 0.87482 0.0
H147 H 1.04439 0.47337 0.34524 0.0
H148 H 0.19299 0.64761 0.35838 0.0
H149 H 1.11787 0.53715 0.44815 0.0
C150 C 1.07643 0.50857 0.36195 0.0
C151 C 1.0786 0.49779 0.39801 0.0
C152 C 1.11868 0.56164 0.34706 0.0
C153 C 0.16008 0.60625 0.3693 0.0
C154 C 0.1573 0.59936 0.40583 0.0
C155 C 1.11755 0.54436 0.42008 0.0
H156 H 0.65086 0.15454 0.72506 0.0
H157 H 0.67192 0.93799 0.73529 0.0
H158 H 0.63444 0.07067 0.82804 0.0
C159 C 0.65157 0.1111 0.74177 0.0
C160 C 0.64185 0.12159 0.7785 0.0
C161 C 0.66112 0.04508 0.72615 0.0
C162 C 0.66354 0.98891 0.74746 0.0
C163 C 0.65436 0.9974 0.7842 0.0
C164 C 0.64243 0.06386 0.79973 0.0
H165 H 0.57167 0.57061 0.04414 0.0
H166 H 0.78688 0.56783 0.03017 0.0
H167 H 0.69454 0.56336 0.13529 0.0
C168 C 0.62095 0.56959 0.05575 0.0
C169 C 0.62488 0.56474 0.09228 0.0
C170 C 0.67867 0.57086 0.03358 0.0
C171 C 0.74279 0.56803 0.04793 0.0
C172 C 0.75088 0.56725 0.08482 0.0
C173 C 0.69056 0.56526 0.10703 0.0
C174 C 0.45963 0.59954 0.14621 0.0
C175 C 0.41334 0.54987 0.12845 0.0
C176 C 0.51312 0.49567 0.10116 0.0
C177 C 0.55731 0.5536 0.11232 0.0
N178 N 0.5699 0.66487 0.14437 0.0
N179 N 0.4007 0.45968 0.08154 0.0
C180 C 0.52995 0.6065 0.13487 0.0
C181 C 0.44137 0.49953 0.10431 0.0
N182 N 0.43742 0.63846 0.17479 0.0
N183 N 0.53992 0.43761 0.08611 0.0
H184 H 0.34972 0.46714 0.07915 0.0
H185 H 0.41957 0.42655 0.06154 0.0
H186 H 0.59224 0.43346 0.08352 0.0
H187 H 0.51044 0.3917 0.07991 0.0
H188 H 0.47056 0.66916 0.191 0.0
H189 H 0.38761 0.63318 0.18479 0.0
H190 H 0.55081 0.70844 0.15747 0.0
H191 H 0.6213 0.67109 0.13716 0.0
C192 C 1.0353 0.30703 0.41139 0.0
C193 C 0.98101 0.31031 0.43661 0.0
C194 C 0.98744 0.43691 0.43501 0.0
C195 C 1.04526 0.43374 0.41205 0.0
N196 N 1.13489 0.36772 0.38594 0.0
N197 N 0.91447 0.37814 0.47814 0.0
C198 C 1.07239 0.36931 0.40241 0.0
C199 C 0.95962 0.37527 0.45014 0.0
N200 N 1.05012 0.24477 0.39516 0.0
N201 N 0.95802 0.4982 0.44153 0.0
H202 H 0.89344 0.3339 0.49007 0.0
H203 H 0.90265 0.42447 0.49149 0.0
H204 H 0.97716 0.54444 0.43084 0.0
H205 H 0.91165 0.50196 0.45512 0.0
H206 H 1.08445 0.24063 0.37385 0.0
H207 H 1.02372 0.19771 0.40078 0.0
H208 H 0.15978 0.32236 0.38136 0.0
H209 H 0.1651 0.41255 0.38027 0.0
C210 C 0.60448 0.83228 0.83253 0.0
C211 C 0.66349 0.79576 0.82477 0.0
C212 C 0.72199 0.90433 0.80505 0.0
C213 C 0.6591 0.93493 0.80519 0.0
N214 N 0.53855 0.92652 0.81791 0.0
N215 N 0.77896 0.79802 0.80081 0.0
C216 C 0.5999 0.89899 0.81917 0.0
C217 C 0.72303 0.83233 0.81097 0.0
N218 N 0.55303 0.80337 0.85307 0.0
N219 N 0.78074 0.94426 0.79874 0.0
H220 H 0.78293 0.74555 0.80394 0.0
H221 H 0.81997 0.82067 0.78656 0.0
H222 H 0.78114 0.9971 0.79442 0.0
H223 H 0.82878 0.92696 0.80146 0.0
H224 H 0.51135 0.82985 0.86216 0.0
H225 H 0.55586 0.75578 0.86424 0.0
H226 H 0.49258 0.89884 0.82371 0.0
H227 H 0.53314 0.97547 0.80877 0.0
C228 C 0.9444 0.6058 0.08617 0.0
C229 C 0.96636 0.56648 0.11369 0.0
C230 C 0.8453 0.52259 0.12203 0.0
C231 C 0.82348 0.57035 0.09839 0.0
N232 N 0.85639 0.67521 0.06855 0.0
N233 N 0.92824 0.50407 0.16526 0.0
C234 C 0.87437 0.61785 0.08409 0.0
C235 C 0.9141 0.52964 0.13388 0.0
N236 N 0.98856 0.6274 0.06 0.0
N237 N 0.80215 0.46847 0.13221 0.0
H238 H 0.97466 0.51469 0.17732 0.0
H239 H 0.89073 0.48093 0.18164 0.0
H240 H 0.75327 0.45873 0.12278 0.0
H241 H 0.8179 0.4291 0.14686 0.0
H242 H 0.97309 0.65264 0.0385 0.0
H243 H 1.037 0.61022 0.05663 0.0
H244 H 0.89226 0.71334 0.0598 0.0
H245 H 0.80622 0.68841 0.06838 0.0
C246 C 0.20144 0.7656 0.46142 0.0
C247 C 0.26787 0.75395 0.47134 0.0
C248 C 0.25847 0.63729 0.44202 0.0
C249 C 0.19457 0.65145 0.42945 0.0
N250 N 1.10429 0.72746 0.42589 0.0
N251 N 0.36116 0.68107 0.47188 0.0
C252 C 0.16554 0.71505 0.439 0.0
C253 C 0.29662 0.6901 0.4621 0.0
N254 N 0.17273 0.82477 0.47384 0.0
N255 N 0.28213 0.57315 0.4349 0.0
H256 H 0.38865 0.71693 0.48851 0.0
H257 H 0.38879 0.6397 0.46274 0.0
H258 H 0.25684 0.53431 0.41897 0.0
H259 H 0.32484 0.55652 0.44609 0.0
H260 H 1.12222 0.83389 0.47068 0.0
H261 H 0.19839 0.86368 0.48955 0.0
H262 H 1.08366 0.77541 0.42818 0.0
H263 H 1.07464 0.69019 0.41108 0.0
C264 C 0.66285 0.2998 0.82941 0.0
C265 C 0.62454 0.33951 0.80824 0.0
C266 C 0.57982 0.23056 0.77807 0.0
C267 C 0.63001 0.1938 0.79321 0.0
N268 N 0.72704 0.19886 0.83069 0.0
N269 N 0.55398 0.34078 0.75742 0.0
C270 C 0.67331 0.22959 0.8185 0.0
C271 C 0.5843 0.30442 0.7814 0.0
N272 N 0.68742 0.32806 0.86059 0.0
N273 N 0.52768 0.19487 0.76052 0.0
H274 H 0.55963 0.39469 0.75689 0.0
H275 H 0.52953 0.31678 0.73554 0.0
H276 H 0.52163 0.14069 0.75872 0.0
H277 H 0.48683 0.21898 0.75143 0.0
H278 H 0.70834 0.29824 0.87877 0.0
H279 H 0.67901 0.37847 0.8701 0.0
H280 H 0.763 0.22567 0.84683 0.0
H281 H 0.73956 0.1492 0.82214 0.0
C282 C 0.6018 0.74341 0.50261 0.0
C283 C 0.66035 0.78877 0.51021 0.0
C284 C 0.71825 0.6882 0.52651 0.0
C285 C 0.65543 0.64799 0.52733 0.0
N286 N 0.53559 0.63727 0.51673 0.0
N287 N 0.77354 0.80315 0.5341 0.0
C288 C 0.59673 0.67511 0.515 0.0
C289 C 0.71911 0.7608 0.52271 0.0
N290 N 0.55177 0.76501 0.48294 0.0
N291 N 0.77689 0.65702 0.53062 0.0
H292 H 0.77618 0.85698 0.53437 0.0
H293 H 0.81377 0.78501 0.54695 0.0
H294 H 0.77714 0.60373 0.53363 0.0
H295 H 0.82493 0.68242 0.52723 0.0
H296 H 0.51114 0.73191 0.47393 0.0
H297 H 0.55513 0.81357 0.47219 0.0
H298 H 0.48977 0.65783 0.51212 0.0
H299 H 0.53043 0.5865 0.52481 0.0
C300 C 0.93844 0.23264 0.87424 0.0
C301 C 0.88524 0.26307 0.89347 0.0
C302 C 0.96137 0.311 0.93751 0.0
C303 C 1.01352 0.31113 0.91038 0.0
N304 N 1.05959 0.24752 0.85961 0.0
N305 N 0.85037 0.25621 0.95416 0.0
C306 C 1.00544 0.26133 0.88131 0.0
C307 C 0.89902 0.27335 0.92943 0.0
N308 N 0.92376 0.18343 0.84801 0.0
N309 N 0.96699 0.3514 0.96806 0.0
H310 H 0.80332 0.23252 0.94665 0.0
H311 H 0.8591 0.26188 0.98113 0.0
H312 H 1.01046 0.38207 0.97498 0.0
H313 H 0.92622 0.35632 0.98596 0.0
H314 H 0.96065 0.15824 0.8331 0.0
H315 H 0.87336 0.16656 0.8429 0.0
H316 H 1.0557 0.21618 0.8364 0.0
H317 H 1.1085 0.26857 0.86543 0.0
C318 C 0.51532 0.87336 0.20021 0.0
C319 C 0.48331 0.91059 0.17521 0.0
C320 C 0.55352 1.01582 0.19307 0.0
C321 C 0.59009 0.97681 0.21546 0.0
N322 N 0.61675 0.86439 0.23292 0.0
N323 N 0.48366 1.01272 0.14184 0.0
C324 C 0.57461 0.90415 0.21656 0.0
C325 C 0.50644 0.98038 0.16961 0.0
N326 N 0.48681 0.81073 0.21025 0.0
N327 N 0.56013 0.08678 0.1957 0.0
H328 H 0.44981 0.98777 0.12385 0.0
H329 H 0.50363 0.06154 0.1347 0.0
H330 H 0.59076 0.11526 0.21403 0.0
H331 H 0.5296 0.11733 0.18232 0.0
H332 H 0.5048 0.78499 0.23092 0.0
H333 H 0.44111 0.78803 0.20058 0.0
H334 H 0.61077 0.81029 0.23166 0.0
H335 H 0.66155 0.88506 0.24451 0.0
C336 C 0.67862 0.28858 0.50591 0.0
C337 C 0.64146 0.24069 0.528 0.0
C338 C 0.59256 0.33953 0.56006 0.0
C339 C 0.63914 0.38685 0.54296 0.0
N340 N 0.73757 0.40278 0.50385 0.0
N341 N 0.58243 0.22781 0.58471 0.0
C342 C 0.68526 0.36056 0.51692 0.0
C343 C 0.60337 0.26797 0.55743 0.0
N344 N 0.7061 0.26687 0.47408 0.0
N345 N 0.53846 0.3628 0.57932 0.0
H346 H 0.59826 0.17828 0.58724 0.0
H347 H 0.55831 0.24791 0.6075 0.0
H348 H 0.52759 0.41486 0.58081 0.0
H349 H 0.50085 0.32906 0.59032 0.0
H350 H 0.72788 0.30126 0.45606 0.0
H351 H 0.70057 0.21598 0.46372 0.0
H352 H 0.77555 0.3842 0.48699 0.0
H353 H 0.7471 0.45466 0.51245 0.0
C354 C 0.15158 0.52291 0.7779 0.0
C355 C 0.16598 0.59339 0.78851 0.0
C356 C 1.0878 0.57764 0.83872 0.0
C357 C 1.10041 0.50622 0.83605 0.0
N358 N 1.13617 0.40778 0.79943 0.0
N359 N 1.12605 0.69315 0.82004 0.0
C360 C 1.12769 0.47709 0.80397 0.0
C361 C 1.12362 0.62272 0.81505 0.0
N362 N 0.16466 0.50005 0.74397 0.0
N363 N 1.04487 0.60154 0.86471 0.0
H364 H 0.15437 0.72475 0.80266 0.0
H365 H 1.10187 0.71928 0.84103 0.0
H366 H 1.0183 0.56774 0.88165 0.0
H367 H 1.03182 0.65271 0.86759 0.0
H368 H 0.15227 0.44909 0.73451 0.0
H369 H 0.1803 0.53462 0.72475 0.0
H370 H 0.1629 0.38636 0.77785 0.0
H371 H 1.11952 0.3722 0.81791 0.0
C372 C 0.90352 0.21568 0.24469 0.0
C373 C 0.92106 0.20578 0.20827 0.0
C374 C 0.80617 0.15458 0.19781 0.0
C375 C 0.79507 0.14763 0.23456 0.0
N376 N 0.81011 0.22269 0.28702 0.0
N377 N 0.88866 0.16252 0.14978 0.0
C378 C 0.83736 0.19231 0.25701 0.0
C379 C 0.87229 0.1741 0.18472 0.0
N380 N 0.94936 0.24805 0.26752 0.0
N381 N 0.75237 0.15649 0.17649 0.0
H382 H 0.93695 0.17549 0.13903 0.0
H383 H 0.8556 0.13447 0.13241 0.0
H384 H 0.70289 0.15795 0.18687 0.0
H385 H 0.75786 0.16764 0.14999 0.0
H386 H 0.9414 0.24959 0.2948 0.0
H387 H 0.99706 0.26925 0.25939 0.0
H388 H 0.83652 0.26066 0.30293 0.0
H389 H 0.75802 0.21745 0.29284 0.0
C390 C 0.22559 0.46482 0.01353 0.0
C391 C 0.1969 0.52299 0.03094 0.0
C392 C 0.15335 0.55575 0.97587 0.0
C393 C 0.17935 0.49548 0.9586 0.0
N394 N 0.26159 0.41028 0.95759 0.0
N395 N 0.15845 0.63679 0.02698 0.0
C396 C 0.22396 0.45684 0.97632 0.0
C397 C 0.17031 0.57346 0.01131 0.0
N398 N 0.24954 0.41472 0.03251 0.0
N399 N 1.10718 0.59199 0.96022 0.0
H400 H 0.16883 0.64942 0.05337 0.0
H401 H 0.14435 0.67794 0.01308 0.0
H402 H 1.09107 0.58099 0.93465 0.0
H403 H 1.08072 0.63041 0.97375 0.0
H404 H 0.26446 0.36775 0.02112 0.0
H405 H 0.2499 0.4181 0.05997 0.0
H406 H 0.29852 0.38377 0.96884 0.0
H407 H 0.26011 0.40396 0.93012 0.0
C408 C 0.6513 0.96728 0.38893 0.0
C409 C 0.62998 1.02548 0.40996 0.0
C410 C 0.63884 0.09515 0.35775 0.0
C411 C 0.66585 0.03895 0.33776 0.0
N412 N 0.71018 0.9263 0.33555 0.0
N413 N 0.61586 0.14893 0.41548 0.0
C414 C 0.67619 0.97657 0.35382 0.0
C415 C 0.62729 0.09061 0.39467 0.0
N416 N 0.64332 0.90219 0.40137 0.0
N417 N 0.62167 0.15196 0.34128 0.0
H418 H 0.60728 0.14881 0.44263 0.0
H419 H 0.62137 0.19882 0.40635 0.0
H420 H 0.62997 0.15789 0.31435 0.0
H421 H 0.59404 0.19063 0.35372 0.0
H422 H 0.65177 0.85728 0.38583 0.0
H423 H 0.6209 0.89169 0.42585 0.0
H424 H 0.72559 0.88286 0.34709 0.0
H425 H 0.72854 0.93124 0.30968 0.0
C426 C 0.72604 0.54396 0.70015 0.0
C427 C 0.67788 0.5827 0.71972 0.0
C428 C 0.61373 0.58998 0.66639 0.0
C429 C 0.66558 0.55771 0.64623 0.0
N430 N 0.77865 0.51826 0.64292 0.0
N431 N 0.585 0.65629 0.72005 0.0
C432 C 0.72407 0.53884 0.66281 0.0
C433 C 0.62435 0.60982 0.70243 0.0
N434 N 0.77216 0.50993 0.71715 0.0
N435 N 0.55334 0.59928 0.65156 0.0
H436 H 0.59315 0.67374 0.74611 0.0
H437 H 0.54927 0.68274 0.7078 0.0
H438 H 0.54274 0.58376 0.62544 0.0
H439 H 0.51146 0.61611 0.66611 0.0
H440 H 0.80344 0.47499 0.7042 0.0
H441 H 0.77495 0.51145 0.74451 0.0
H442 H 0.8251 0.51066 0.65365 0.0
H443 H 0.77987 0.51549 0.61541 0.0
C444 C 0.6264 0.97632 0.63191 0.0
C445 C 0.67818 1.01436 0.61293 0.0
C446 C 0.72361 0.06639 0.66845 0.0
C447 C 0.66723 0.03447 0.68709 0.0
N448 N 0.55733 0.97038 0.68561 0.0
N449 N 0.7697 0.1046 0.61237 0.0
C450 C 0.61637 0.99256 0.66855 0.0
C451 C 0.72496 0.06215 0.63097 0.0
N452 N 0.58827 0.92306 0.61523 0.0
N453 N 0.77711 0.09839 0.6865 0.0
H454 H 0.77264 0.1028 0.58488 0.0
H455 H 0.79982 0.14557 0.62416 0.0
H456 H 0.77875 0.10119 0.71396 0.0
H457 H 0.82254 0.1163 0.67425 0.0
H458 H 0.55423 0.88909 0.62847 0.0
H459 H 0.5958 0.90853 0.58863 0.0
H460 H 0.51585 0.94566 0.67256 0.0
H461 H 0.54712 0.98263 0.71227 0.0
C462 C 0.64842 0.64359 0.94446 0.0
C463 C 0.62898 0.58134 0.92426 0.0
C464 C 0.65754 0.51298 0.97356 0.0
C465 C 0.66985 0.57501 -0.00511 0.0
N466 N 0.67146 0.69966 0.00221 0.0
N467 N 0.60135 0.4572 0.92264 0.0
C468 C 0.66386 0.64045 0.98072 0.0
C469 C 0.63041 0.51602 0.93951 0.0
N470 N 0.65462 0.70556 0.92875 0.0
N471 N 0.67158 0.45093 0.98592 0.0
H472 H 0.57639 0.45737 0.89895 0.0
H473 H 0.59508 0.40933 0.93395 0.0
H474 H 0.68985 0.44661 0.01105 0.0
H475 H 0.67111 0.40491 0.97018 0.0
H476 H 0.67613 0.75145 0.94079 0.0
H477 H 0.643 0.71039 0.90256 0.0
H478 H 0.65929 0.74809 -0.00509 0.0
H479 H 0.68634 0.69974 0.02829 0.0
C480 C 1.13116 0.64665 0.25897 0.0
C481 C 1.13031 0.58765 0.23476 0.0
C482 C 1.12707 0.51231 0.28389 0.0
C483 C 1.12023 0.57024 0.30824 0.0
N484 N 1.0918 0.68979 0.31642 0.0
N485 N 1.0969 0.46574 0.22598 0.0
C486 C 1.11482 0.63677 0.29506 0.0
C487 C 1.11901 0.52074 0.2477 0.0
N488 N 0.15032 0.71162 0.24832 0.0
N489 N 0.14471 0.45027 0.29458 0.0
H490 H 1.08475 0.47195 0.19995 0.0
H491 H 1.08302 0.41672 0.23518 0.0
H492 H 0.15821 0.44335 0.32029 0.0
H493 H 0.15399 0.40864 0.27677 0.0
H494 H 0.15715 0.75471 0.26604 0.0
H495 H 0.16649 0.72144 0.22264 0.0
H496 H 1.0822 0.73747 0.30698 0.0
H497 H 1.07455 0.68329 0.34233 0.0
loop_
_geom_bond_atom_site_label_1
_geom_bond_atom_site_label_2
_geom_bond_distance
_geom_bond_site_symmetry_2
_ccdc_geom_bond_type
Nd0 C2 2.836 . S
Nd0 O20 2.500 . S
Nd0 O21 2.492 . S
Nd0 O22 2.487 . S
Nd0 O23 2.682 . S
Nd0 O24 2.410 . S
Nd0 O29 2.414 . S
Nd0 O31 2.424 1_455 S
Nd1 C11 2.836 . S
Nd1 O23 2.414 1_655 S
Nd1 O25 2.424 1_655 S
Nd1 O26 2.500 . S
Nd1 O27 2.492 . S
Nd1 O28 2.487 . S
Nd1 O29 2.682 1_655 S
Nd1 O30 2.410 . S
C2 Nd0 2.836 . S
C2 C3 1.498 . S
C2 O20 1.258 . S
C2 O21 1.239 . S
C3 C2 1.498 . S
C3 C4 1.366 . S
C3 C8 1.407 . S
C4 C3 1.366 . S
C4 C5 1.392 . S
C4 H32 0.930 . S
C5 C4 1.392 . S
C5 C6 1.398 . S
C5 H33 0.929 . S
C6 C5 1.398 . S
C6 C7 1.352 . S
C7 C6 1.352 . S
C7 C8 1.384 . S
C7 H34 0.930 . S
C8 C3 1.407 . S
C8 C7 1.384 . S
C8 H35 0.929 . S
C9 O22 1.241 . S
C9 O23 1.273 . S
C10 O24 1.251 . S
C10 O25 1.268 . S
C11 Nd1 2.836 . S
C11 C12 1.498 . S
C11 O26 1.258 . S
C11 O27 1.239 . S
C12 C11 1.498 . S
C12 C13 1.366 . S
C12 C17 1.407 . S
C13 C12 1.366 . S
C13 C14 1.392 . S
C13 H36 0.930 . S
C14 C13 1.392 . S
C14 C15 1.398 . S
C14 H37 0.929 . S
C15 C14 1.398 . S
C15 C16 1.352 . S
C16 C15 1.352 . S
C16 C17 1.384 . S
C16 H38 0.930 . S
C17 C12 1.407 . S
C17 C16 1.384 . S
C17 H39 0.929 . S
C18 O28 1.241 1_455 S
C18 O29 1.273 . S
C19 O30 1.251 . S
C19 O31 1.268 . S
O20 Nd0 2.500 . S
O20 C2 1.258 . S
O21 Nd0 2.492 . S
O21 C2 1.239 . S
O22 Nd0 2.487 . S
O22 C9 1.241 . S
O23 Nd0 2.682 . S
O23 Nd1 2.414 1_455 S
O23 C9 1.273 . S
O24 Nd0 2.410 . S
O24 C10 1.251 . S
O25 Nd1 2.424 1_455 S
O25 C10 1.268 . S
O26 Nd1 2.500 . S
O26 C11 1.258 . S
O27 Nd1 2.492 . S
O27 C11 1.239 . S
O28 Nd1 2.487 . S
O28 C18 1.241 1_655 S
O29 Nd0 2.414 . S
O29 Nd1 2.682 1_455 S
O29 C18 1.273 . S
O30 Nd1 2.410 . S
O30 C19 1.251 . S
O31 Nd0 2.424 1_655 S
O31 C19 1.268 . S
H32 C4 0.930 . S
H33 C5 0.929 . S
H34 C7 0.930 . S
H35 C8 0.929 . S
H36 C13 0.930 . S
H37 C14 0.929 . S
H38 C16 0.930 . S
H39 C17 0.929 . S
Nd40 C42 2.835 1_545 S
Nd40 O60 2.499 1_545 S
Nd40 O61 2.491 1_545 S
Nd40 O62 2.487 1_545 S
Nd40 O63 2.682 . S
Nd40 O64 2.409 1_545 S
Nd40 O69 2.414 . S
Nd40 O71 2.425 . S
Nd41 C51 2.836 . S
Nd41 O63 2.414 . S
Nd41 O65 2.424 1_545 S
Nd41 O66 2.500 . S
Nd41 O67 2.492 . S
Nd41 O68 2.487 . S
Nd41 O69 2.682 . S
Nd41 O70 2.410 . S
C42 Nd40 2.835 1_565 S
C42 C43 1.498 . S
C42 O60 1.258 . S
C42 O61 1.239 . S
C43 C42 1.498 . S
C43 C44 1.366 . S
C43 C48 1.407 . S
C44 C43 1.366 . S
C44 C45 1.392 . S
C44 H72 0.930 . S
C45 C44 1.392 . S
C45 C46 1.398 . S
C45 H73 0.929 . S
C46 C45 1.398 . S
C46 C47 1.352 . S
C47 C46 1.352 . S
C47 C48 1.384 . S
C47 H74 0.930 . S
C48 C43 1.407 . S
C48 C47 1.384 . S
C48 H75 0.929 . S
C49 O62 1.241 1_545 S
C49 O63 1.273 . S
C50 O64 1.251 . S
C50 O65 1.268 . S
C51 Nd41 2.836 . S
C51 C52 1.498 . S
C51 O66 1.258 . S
C51 O67 1.239 . S
C52 C51 1.498 . S
C52 C53 1.366 . S
C52 C57 1.407 . S
C53 C52 1.366 . S
C53 C54 1.392 . S
C53 H76 0.930 . S
C54 C53 1.392 . S
C54 C55 1.398 . S
C54 H77 0.929 . S
C55 C54 1.398 . S
C55 C56 1.352 . S
C56 C55 1.352 . S
C56 C57 1.384 . S
C56 H78 0.930 . S
C57 C52 1.407 . S
C57 C56 1.384 . S
C57 H79 0.929 . S
C58 O68 1.241 . S
C58 O69 1.273 . S
C59 O70 1.251 . S
C59 O71 1.268 . S
O60 Nd40 2.499 1_565 S
O60 C42 1.258 . S
O61 Nd40 2.491 1_565 S
O61 C42 1.239 . S
O62 Nd40 2.487 1_565 S
O62 C49 1.241 1_565 S
O63 Nd40 2.682 . S
O63 Nd41 2.414 . S
O63 C49 1.273 . S
O64 Nd40 2.409 1_565 S
O64 C50 1.251 . S
O65 Nd41 2.424 1_565 S
O65 C50 1.268 . S
O66 Nd41 2.500 . S
O66 C51 1.258 . S
O67 Nd41 2.492 . S
O67 C51 1.239 . S
O68 Nd41 2.487 . S
O68 C58 1.241 . S
O69 Nd40 2.414 . S
O69 Nd41 2.682 . S
O69 C58 1.273 . S
O70 Nd41 2.410 . S
O70 C59 1.251 . S
O71 Nd40 2.425 . S
O71 C59 1.268 . S
H72 C44 0.930 . S
H73 C45 0.929 . S
H74 C47 0.930 . S
H75 C48 0.929 . S
H76 C53 0.930 . S
H77 C54 0.929 . S
H78 C56 0.930 . S
H79 C57 0.929 . S
Nd80 C82 2.836 . S
Nd80 O100 2.500 . S
Nd80 O101 2.492 . S
Nd80 O102 2.487 . S
Nd80 O103 2.682 . S
Nd80 O104 2.410 . S
Nd80 O109 2.414 . S
Nd80 O111 2.424 . S
Nd81 C91 2.836 . S
Nd81 O103 2.414 . S
Nd81 O105 2.424 . S
Nd81 O106 2.500 . S
Nd81 O107 2.492 . S
Nd81 O108 2.487 . S
Nd81 O109 2.682 . S
Nd81 O110 2.410 . S
C82 Nd80 2.836 . S
C82 C83 1.498 . S
C82 O100 1.258 . S
C82 O101 1.239 . S
C83 C82 1.498 . S
C83 C84 1.366 . S
C83 C88 1.407 . S
C84 C83 1.366 . S
C84 C85 1.392 . S
C84 H112 0.930 . S
C85 C84 1.392 . S
C85 C86 1.398 . S
C85 H113 0.929 . S
C86 C85 1.398 . S
C86 C87 1.352 . S
C87 C86 1.352 . S
C87 C88 1.384 . S
C87 H114 0.930 . S
C88 C83 1.407 . S
C88 C87 1.384 . S
C88 H115 0.929 . S
C89 O102 1.241 . S
C89 O103 1.273 . S
C90 O104 1.251 . S
C90 O105 1.268 . S
C91 Nd81 2.836 . S
C91 C92 1.498 . S
C91 O106 1.258 . S
C91 O107 1.239 . S
C92 C91 1.498 . S
C92 C93 1.366 . S
C92 C97 1.407 . S
C93 C92 1.366 . S
C93 C94 1.392 . S
C93 H116 0.930 . S
C94 C93 1.392 . S
C94 C95 1.398 . S
C94 H117 0.929 . S
C95 C94 1.398 . S
C95 C96 1.352 . S
C96 C95 1.352 . S
C96 C97 1.384 . S
C96 H118 0.930 . S
C97 C92 1.407 . S
C97 C96 1.384 . S
C97 H119 0.929 . S
C98 O108 1.241 . S
C98 O109 1.273 . S
C99 O110 1.251 . S
C99 O111 1.268 . S
O100 Nd80 2.500 . S
O100 C82 1.258 . S
O101 Nd80 2.492 . S
O101 C82 1.239 . S
O102 Nd80 2.487 . S
O102 C89 1.241 . S
O103 Nd80 2.682 . S
O103 Nd81 2.414 . S
O103 C89 1.273 . S
O104 Nd80 2.410 . S
O104 C90 1.251 . S
O105 Nd81 2.424 . S
O105 C90 1.268 . S
O106 Nd81 2.500 . S
O106 C91 1.258 . S
O107 Nd81 2.492 . S
O107 C91 1.239 . S
O108 Nd81 2.487 . S
O108 C98 1.241 . S
O109 Nd80 2.414 . S
O109 Nd81 2.682 . S
O109 C98 1.273 . S
O110 Nd81 2.410 . S
O110 C99 1.251 . S
O111 Nd80 2.424 . S
O111 C99 1.268 . S
H112 C84 0.930 . S
H113 C85 0.929 . S
H114 C87 0.930 . S
H115 C88 0.929 . S
H116 C93 0.930 . S
H117 C94 0.929 . S
H118 C96 0.930 . S
H119 C97 0.929 . S
H120 C123 0.931 . S
H121 C126 0.928 . S
H122 C128 0.930 . S
C123 H120 0.931 . S
C123 C124 1.413 . S
C123 C125 1.360 1_565 S
C124 C123 1.413 . S
C124 C128 1.429 1_565 S
C125 C123 1.360 1_545 S
C125 C126 1.372 . S
C126 H121 0.928 . S
C126 C125 1.372 . S
C126 C127 1.404 . S
C127 C126 1.404 . S
C127 C128 1.391 . S
C128 H122 0.930 . S
C128 C124 1.429 1_545 S
C128 C127 1.391 . S
H129 C132 0.931 . S
H130 C135 0.928 . S
H131 C137 0.930 . S
C132 H129 0.931 . S
C132 C133 1.413 . S
C132 C134 1.360 . S
C133 C132 1.413 . S
C133 C137 1.429 . S
C134 C132 1.360 . S
C134 C135 1.372 . S
C135 H130 0.928 . S
C135 C134 1.372 . S
C135 C136 1.404 . S
C136 C135 1.404 . S
C136 C137 1.391 . S
C137 H131 0.930 . S
C137 C133 1.429 . S
C137 C136 1.391 . S
H138 C141 0.931 . S
H139 C144 0.928 . S
H140 C146 0.930 . S
C141 H138 0.931 . S
C141 C142 1.413 . S
C141 C143 1.360 1_655 S
C142 C141 1.413 . S
C142 C146 1.429 1_655 S
C143 C141 1.360 1_455 S
C143 C144 1.372 . S
C144 H139 0.928 . S
C144 C143 1.372 . S
C144 C145 1.404 . S
C145 C144 1.404 . S
C145 C146 1.391 . S
C146 H140 0.930 . S
C146 C142 1.429 1_455 S
C146 C145 1.391 . S
H147 C150 0.931 . S
H148 C153 0.928 . S
H149 C155 0.932 . S
C150 H147 0.931 . S
C150 C151 1.413 . S
C150 C152 1.360 1_655 S
C151 C150 1.413 . S
C151 C155 1.429 1_655 S
C152 C150 1.360 1_455 S
C152 C153 1.372 . S
C153 H148 0.928 . S
C153 C152 1.372 . S
C153 C154 1.404 . S
C154 C153 1.404 . S
C154 C155 1.391 . S
C155 H149 0.932 . S
C155 C151 1.429 1_455 S
C155 C154 1.391 . S
H156 C159 0.931 . S
H157 C162 0.928 . S
H158 C164 0.930 . S
C159 H156 0.931 . S
C159 C160 1.413 . S
C159 C161 1.361 . S
C160 C159 1.413 . S
C160 C164 1.429 . S
C161 C159 1.361 . S
C161 C162 1.370 1_545 S
C162 H157 0.928 . S
C162 C161 1.370 1_565 S
C162 C163 1.404 . S
C163 C162 1.404 . S
C163 C164 1.391 1_565 S
C164 H158 0.930 . S
C164 C160 1.429 . S
C164 C163 1.391 1_545 S
H165 C168 0.931 . S
H166 C171 0.928 . S
H167 C173 0.930 . S
C168 H165 0.931 . S
C168 C169 1.413 . S
C168 C170 1.360 . S
C169 C168 1.413 . S
C169 C173 1.429 . S
C170 C168 1.360 . S
C170 C171 1.372 . S
C171 H166 0.928 . S
C171 C170 1.372 . S
C171 C172 1.404 . S
C172 C171 1.404 . S
C172 C173 1.391 . S
C173 H167 0.930 . S
C173 C169 1.429 . S
C173 C172 1.391 . S
C174 C175 1.363 . S
C174 C180 1.379 . S
C174 N182 1.356 . S
C175 C174 1.363 . S
C175 C181 1.363 . S
C176 C177 1.363 . S
C176 C181 1.379 . S
C176 N183 1.356 . S
C177 C176 1.363 . S
C177 C180 1.363 . S
N178 C180 1.356 . S
N178 H190 0.984 . S
N178 H191 0.985 . S
N179 C181 1.356 . S
N179 H184 0.984 . S
N179 H185 0.985 . S
C180 C174 1.379 . S
C180 C177 1.363 . S
C180 N178 1.356 . S
C181 C175 1.363 . S
C181 C176 1.379 . S
C181 N179 1.356 . S
N182 C174 1.356 . S
N182 H188 0.984 . S
N182 H189 0.984 . S
N183 C176 1.356 . S
N183 H186 0.984 . S
N183 H187 0.985 . S
H184 N179 0.984 . S
H185 N179 0.985 . S
H186 N183 0.984 . S
H187 N183 0.985 . S
H188 N182 0.984 . S
H189 N182 0.984 . S
H190 N178 0.984 . S
H191 N178 0.985 . S
C192 C193 1.363 . S
C192 C198 1.379 . S
C192 N200 1.356 . S
C193 C192 1.363 . S
C193 C199 1.363 . S
C194 C195 1.363 . S
C194 C199 1.379 . S
C194 N201 1.356 . S
C195 C194 1.363 . S
C195 C198 1.363 . S
N196 C198 1.356 . S
N196 H208 0.984 . S
N196 H209 0.985 . S
N197 C199 1.356 . S
N197 H202 0.984 . S
N197 H203 0.985 . S
C198 C192 1.379 . S
C198 C195 1.363 . S
C198 N196 1.356 . S
C199 C193 1.363 . S
C199 C194 1.379 . S
C199 N197 1.356 . S
N200 C192 1.356 . S
N200 H206 0.984 . S
N200 H207 0.984 . S
N201 C194 1.356 . S
N201 H204 0.984 . S
N201 H205 0.985 . S
H202 N197 0.984 . S
H203 N197 0.985 . S
H204 N201 0.984 . S
H205 N201 0.985 . S
H206 N200 0.984 . S
H207 N200 0.984 . S
H208 N196 0.984 . S
H209 N196 0.985 . S
C210 C211 1.363 . S
C210 C216 1.379 . S
C210 N218 1.356 . S
C211 C210 1.363 . S
C211 C217 1.363 . S
C212 C213 1.363 . S
C212 C217 1.379 . S
C212 N219 1.356 . S
C213 C212 1.363 . S
C213 C216 1.363 . S
N214 C216 1.356 . S
N214 H226 0.984 . S
N214 H227 0.985 . S
N215 C217 1.356 . S
N215 H220 0.984 . S
N215 H221 0.985 . S
C216 C210 1.379 . S
C216 C213 1.363 . S
C216 N214 1.356 . S
C217 C211 1.363 . S
C217 C212 1.379 . S
C217 N215 1.356 . S
N218 C210 1.356 . S
N218 H224 0.984 . S
N218 H225 0.984 . S
N219 C212 1.356 . S
N219 H222 0.984 . S
N219 H223 0.985 . S
H220 N215 0.984 . S
H221 N215 0.985 . S
H222 N219 0.984 . S
H223 N219 0.985 . S
H224 N218 0.984 . S
H225 N218 0.984 . S
H226 N214 0.984 . S
H227 N214 0.985 . S
C228 C229 1.363 . S
C228 C234 1.379 . S
C228 N236 1.356 . S
C229 C228 1.363 . S
C229 C235 1.363 . S
C230 C231 1.363 . S
C230 C235 1.379 . S
C230 N237 1.356 . S
C231 C230 1.363 . S
C231 C234 1.363 . S
N232 C234 1.356 . S
N232 H244 0.984 . S
N232 H245 0.985 . S
N233 C235 1.356 . S
N233 H238 0.984 . S
N233 H239 0.985 . S
C234 C228 1.379 . S
C234 C231 1.363 . S
C234 N232 1.356 . S
C235 C229 1.363 . S
C235 C230 1.379 . S
C235 N233 1.356 . S
N236 C228 1.356 . S
N236 H242 0.984 . S
N236 H243 0.984 . S
N237 C230 1.356 . S
N237 H240 0.984 . S
N237 H241 0.985 . S
H238 N233 0.984 . S
H239 N233 0.985 . S
H240 N237 0.984 . S
H241 N237 0.985 . S
H242 N236 0.984 . S
H243 N236 0.984 . S
H244 N232 0.984 . S
H245 N232 0.985 . S
C246 C247 1.363 . S
C246 C252 1.379 . S
C246 N254 1.356 . S
C247 C246 1.363 . S
C247 C253 1.363 . S
C248 C249 1.363 . S
C248 C253 1.379 . S
C248 N255 1.356 . S
C249 C248 1.363 . S
C249 C252 1.363 . S
N250 C252 1.356 . S
N250 H262 0.984 . S
N250 H263 0.985 . S
N251 C253 1.356 . S
N251 H256 0.984 . S
N251 H257 0.985 . S
C252 C246 1.379 . S
C252 C249 1.363 . S
C252 N250 1.356 . S
C253 C247 1.363 . S
C253 C248 1.379 . S
C253 N251 1.356 . S
N254 C246 1.356 . S
N254 H260 0.984 . S
N254 H261 0.984 . S
N255 C248 1.356 . S
N255 H258 0.984 . S
N255 H259 0.985 . S
H256 N251 0.984 . S
H257 N251 0.985 . S
H258 N255 0.984 . S
H259 N255 0.985 . S
H260 N254 0.984 . S
H261 N254 0.984 . S
H262 N250 0.984 . S
H263 N250 0.985 . S
C264 C265 1.363 . S
C264 C270 1.379 . S
C264 N272 1.356 . S
C265 C264 1.363 . S
C265 C271 1.363 . S
C266 C267 1.363 . S
C266 C271 1.379 . S
C266 N273 1.356 . S
C267 C266 1.363 . S
C267 C270 1.363 . S
N268 C270 1.356 . S
N268 H280 0.984 . S
N268 H281 0.985 . S
N269 C271 1.356 . S
N269 H274 0.984 . S
N269 H275 0.985 . S
C270 C264 1.379 . S
C270 C267 1.363 . S
C270 N268 1.356 . S
C271 C265 1.363 . S
C271 C266 1.379 . S
C271 N269 1.356 . S
N272 C264 1.356 . S
N272 H278 0.984 . S
N272 H279 0.984 . S
N273 C266 1.356 . S
N273 H276 0.984 . S
N273 H277 0.985 . S
H274 N269 0.984 . S
H275 N269 0.985 . S
H276 N273 0.984 . S
H277 N273 0.985 . S
H278 N272 0.984 . S
H279 N272 0.984 . S
H280 N268 0.984 . S
H281 N268 0.985 . S
C282 C283 1.363 . S
C282 C288 1.379 . S
C282 N290 1.356 . S
C283 C282 1.363 . S
C283 C289 1.363 . S
C284 C285 1.363 . S
C284 C289 1.379 . S
C284 N291 1.356 . S
C285 C284 1.363 . S
C285 C288 1.363 . S
N286 C288 1.356 . S
N286 H298 0.984 . S
N286 H299 0.985 . S
N287 C289 1.356 . S
N287 H292 0.984 . S
N287 H293 0.985 . S
C288 C282 1.379 . S
C288 C285 1.363 . S
C288 N286 1.356 . S
C289 C283 1.363 . S
C289 C284 1.379 . S
C289 N287 1.356 . S
N290 C282 1.356 . S
N290 H296 0.984 . S
N290 H297 0.984 . S
N291 C284 1.356 . S
N291 H294 0.984 . S
N291 H295 0.985 . S
H292 N287 0.984 . S
H293 N287 0.985 . S
H294 N291 0.984 . S
H295 N291 0.985 . S
H296 N290 0.984 . S
H297 N290 0.984 . S
H298 N286 0.984 . S
H299 N286 0.985 . S
C300 C301 1.363 . S
C300 C306 1.379 . S
C300 N308 1.356 . S
C301 C300 1.363 . S
C301 C307 1.363 . S
C302 C303 1.363 . S
C302 C307 1.379 . S
C302 N309 1.356 . S
C303 C302 1.363 . S
C303 C306 1.363 . S
N304 C306 1.356 1_455 S
N304 H316 0.984 . S
N304 H317 0.985 . S
N305 C307 1.356 . S
N305 H310 0.984 . S
N305 H311 0.985 . S
C306 C300 1.379 . S
C306 C303 1.363 . S
C306 N304 1.356 1_655 S
C307 C301 1.363 . S
C307 C302 1.379 . S
C307 N305 1.356 . S
N308 C300 1.356 . S
N308 H314 0.984 . S
N308 H315 0.984 . S
N309 C302 1.356 . S
N309 H312 0.984 . S
N309 H313 0.985 . S
H310 N305 0.984 . S
H311 N305 0.985 . S
H312 N309 0.984 . S
H313 N309 0.985 . S
H314 N308 0.984 . S
H315 N308 0.984 . S
H316 N304 0.984 . S
H317 N304 0.985 . S
C318 C319 1.363 . S
C318 C324 1.379 . S
C318 N326 1.356 . S
C319 C318 1.363 . S
C319 C325 1.363 . S
C320 C321 1.363 . S
C320 C325 1.379 . S
C320 N327 1.365 . S
C321 C320 1.363 . S
C321 C324 1.363 . S
N322 C324 1.356 . S
N322 H334 0.984 . S
N322 H335 0.985 . S
N323 C325 1.356 . S
N323 H328 0.984 . S
N323 H329 0.985 . S
C324 C318 1.379 . S
C324 C321 1.363 . S
C324 N322 1.356 . S
C325 C319 1.363 . S
C325 C320 1.379 . S
C325 N323 1.356 . S
N326 C318 1.356 . S
N326 H332 0.984 . S
N326 H333 0.984 . S
N327 C320 1.365 . S
N327 H330 0.981 1_565 S
N327 H331 0.980 1_565 S
H328 N323 0.984 . S
H329 N323 0.985 . S
H330 N327 0.981 1_545 S
H331 N327 0.980 1_545 S
H332 N326 0.984 . S
H333 N326 0.984 . S
H334 N322 0.984 . S
H335 N322 0.985 . S
C336 C337 1.363 . S
C336 C342 1.379 . S
C336 N344 1.356 . S
C337 C336 1.363 . S
C337 C343 1.363 . S
C338 C339 1.363 . S
C338 C343 1.379 . S
C338 N345 1.356 . S
C339 C338 1.363 . S
C339 C342 1.363 . S
N340 C342 1.356 . S
N340 H352 0.984 . S
N340 H353 0.985 . S
N341 C343 1.356 . S
N341 H346 0.984 . S
N341 H347 0.985 . S
C342 C336 1.379 . S
C342 C339 1.363 . S
C342 N340 1.356 . S
C343 C337 1.363 . S
C343 C338 1.379 . S
C343 N341 1.356 . S
N344 C336 1.356 . S
N344 H350 0.984 . S
N344 H351 0.984 . S
N345 C338 1.356 . S
N345 H348 0.984 . S
N345 H349 0.985 . S
H346 N341 0.984 . S
H347 N341 0.985 . S
H348 N345 0.984 . S
H349 N345 0.985 . S
H350 N344 0.984 . S
H351 N344 0.984 . S
H352 N340 0.984 . S
H353 N340 0.985 . S
C354 C355 1.363 . S
C354 C360 1.379 . S
C354 N362 1.356 . S
C355 C354 1.363 . S
C355 C361 1.363 . S
C356 C357 1.363 . S
C356 C361 1.379 . S
C356 N363 1.356 . S
C357 C356 1.363 . S
C357 C360 1.363 . S
N358 C360 1.356 . S
N358 H370 0.980 1_455 S
N358 H371 0.985 . S
N359 C361 1.356 . S
N359 H364 0.984 . S
N359 H365 0.985 . S
C360 C354 1.379 . S
C360 C357 1.363 . S
C360 N358 1.356 . S
C361 C355 1.363 . S
C361 C356 1.379 . S
C361 N359 1.356 . S
N362 C354 1.356 . S
N362 H368 0.984 . S
N362 H369 0.984 . S
N363 C356 1.356 . S
N363 H366 0.984 . S
N363 H367 0.985 . S
H364 N359 0.984 . S
H365 N359 0.985 . S
H366 N363 0.984 . S
H367 N363 0.985 . S
H368 N362 0.984 . S
H369 N362 0.984 . S
H370 N358 0.980 1_655 S
H371 N358 0.985 . S
C372 C373 1.363 . S
C372 C378 1.379 . S
C372 N380 1.356 . S
C373 C372 1.363 . S
C373 C379 1.363 . S
C374 C375 1.363 . S
C374 C379 1.379 . S
C374 N381 1.356 . S
C375 C374 1.363 . S
C375 C378 1.363 . S
N376 C378 1.356 . S
N376 H388 0.984 . S
N376 H389 0.985 . S
N377 C379 1.356 . S
N377 H382 0.984 . S
N377 H383 0.985 . S
C378 C372 1.379 . S
C378 C375 1.363 . S
C378 N376 1.356 . S
C379 C373 1.363 . S
C379 C374 1.379 . S
C379 N377 1.356 . S
N380 C372 1.356 . S
N380 H386 0.984 . S
N380 H387 0.984 . S
N381 C374 1.356 . S
N381 H384 0.984 . S
N381 H385 0.985 . S
H382 N377 0.984 . S
H383 N377 0.985 . S
H384 N381 0.984 . S
H385 N381 0.985 . S
H386 N380 0.984 . S
H387 N380 0.984 . S
H388 N376 0.984 . S
H389 N376 0.985 . S
C390 C391 1.363 . S
C390 C396 1.379 1_554 S
C390 N398 1.356 . S
C391 C390 1.363 . S
C391 C397 1.363 . S
C392 C393 1.363 1_554 S
C392 C397 1.379 . S
C392 N399 1.356 . S
C393 C392 1.363 1_556 S
C393 C396 1.363 . S
N394 C396 1.356 . S
N394 H406 0.984 . S
N394 H407 0.985 . S
N395 C397 1.356 . S
N395 H400 0.984 . S
N395 H401 0.985 . S
C396 C390 1.379 1_556 S
C396 C393 1.363 . S
C396 N394 1.356 . S
C397 C391 1.363 . S
C397 C392 1.379 . S
C397 N395 1.356 . S
N398 C390 1.356 . S
N398 H404 0.984 . S
N398 H405 0.984 . S
N399 C392 1.356 . S
N399 H402 0.984 1_554 S
N399 H403 0.992 . S
H400 N395 0.984 . S
H401 N395 0.985 . S
H402 N399 0.984 1_556 S
H403 N399 0.992 . S
H404 N398 0.984 . S
H405 N398 0.984 . S
H406 N394 0.984 . S
H407 N394 0.985 . S
C408 C409 1.363 1_565 S
C408 C414 1.379 . S
C408 N416 1.356 . S
C409 C408 1.363 1_545 S
C409 C415 1.363 . S
C410 C411 1.363 . S
C410 C415 1.379 . S
C410 N417 1.356 . S
C411 C410 1.363 . S
C411 C414 1.363 1_545 S
N412 C414 1.356 . S
N412 H424 0.984 . S
N412 H425 0.985 . S
N413 C415 1.356 . S
N413 H418 0.984 . S
N413 H419 0.985 . S
C414 C408 1.379 . S
C414 C411 1.363 1_565 S
C414 N412 1.356 . S
C415 C409 1.363 . S
C415 C410 1.379 . S
C415 N413 1.356 . S
N416 C408 1.356 . S
N416 H422 0.984 . S
N416 H423 0.984 . S
N417 C410 1.356 . S
N417 H420 0.984 . S
N417 H421 0.985 . S
H418 N413 0.984 . S
H419 N413 0.985 . S
H420 N417 0.984 . S
H421 N417 0.985 . S
H422 N416 0.984 . S
H423 N416 0.984 . S
H424 N412 0.984 . S
H425 N412 0.985 . S
C426 C427 1.363 . S
C426 C432 1.379 . S
C426 N434 1.356 . S
C427 C426 1.363 . S
C427 C433 1.363 . S
C428 C429 1.363 . S
C428 C433 1.379 . S
C428 N435 1.356 . S
C429 C428 1.363 . S
C429 C432 1.363 . S
N430 C432 1.356 . S
N430 H442 0.984 . S
N430 H443 0.985 . S
N431 C433 1.356 . S
N431 H436 0.984 . S
N431 H437 0.985 . S
C432 C426 1.379 . S
C432 C429 1.363 . S
C432 N430 1.356 . S
C433 C427 1.363 . S
C433 C428 1.379 . S
C433 N431 1.356 . S
N434 C426 1.356 . S
N434 H440 0.984 . S
N434 H441 0.984 . S
N435 C428 1.356 . S
N435 H438 0.984 . S
N435 H439 0.985 . S
H436 N431 0.984 . S
H437 N431 0.985 . S
H438 N435 0.984 . S
H439 N435 0.985 . S
H440 N434 0.984 . S
H441 N434 0.984 . S
H442 N430 0.984 . S
H443 N430 0.985 . S
C444 C445 1.363 1_565 S
C444 C450 1.379 . S
C444 N452 1.356 . S
C445 C444 1.363 1_545 S
C445 C451 1.363 . S
C446 C447 1.363 . S
C446 C451 1.379 . S
C446 N453 1.356 . S
C447 C446 1.363 . S
C447 C450 1.363 1_545 S
N448 C450 1.356 . S
N448 H460 0.984 . S
N448 H461 0.985 . S
N449 C451 1.356 . S
N449 H454 0.984 . S
N449 H455 0.985 . S
C450 C444 1.379 . S
C450 C447 1.363 1_565 S
C450 N448 1.356 . S
C451 C445 1.363 . S
C451 C446 1.379 . S
C451 N449 1.356 . S
N452 C444 1.356 . S
N452 H458 0.984 . S
N452 H459 0.984 . S
N453 C446 1.356 . S
N453 H456 0.984 . S
N453 H457 0.985 . S
H454 N449 0.984 . S
H455 N449 0.985 . S
H456 N453 0.984 . S
H457 N453 0.985 . S
H458 N452 0.984 . S
H459 N452 0.984 . S
H460 N448 0.984 . S
H461 N448 0.985 . S
C462 C463 1.363 . S
C462 C468 1.379 . S
C462 N470 1.356 . S
C463 C462 1.363 . S
C463 C469 1.363 . S
C464 C465 1.363 1_556 S
C464 C469 1.379 . S
C464 N471 1.356 1_556 S
C465 C464 1.363 1_554 S
C465 C468 1.363 1_554 S
N466 C468 1.356 1_554 S
N466 H478 0.984 . S
N466 H479 0.985 . S
N467 C469 1.356 . S
N467 H472 0.984 . S
N467 H473 0.985 . S
C468 C462 1.379 . S
C468 C465 1.363 1_556 S
C468 N466 1.356 1_556 S
C469 C463 1.363 . S
C469 C464 1.379 . S
C469 N467 1.356 . S
N470 C462 1.356 . S
N470 H476 0.984 . S
N470 H477 0.984 . S
N471 C464 1.356 1_554 S
N471 H474 0.984 . S
N471 H475 0.987 . S
H472 N467 0.984 . S
H473 N467 0.985 . S
H474 N471 0.984 . S
H475 N471 0.987 . S
H476 N470 0.984 . S
H477 N470 0.984 . S
H478 N466 0.984 . S
H479 N466 0.985 . S
C480 C481 1.363 . S
C480 C486 1.379 . S
C480 N488 1.356 . S
C481 C480 1.363 . S
C481 C487 1.363 1_455 S
C482 C483 1.363 1_655 S
C482 C487 1.379 . S
C482 N489 1.356 . S
C483 C482 1.363 1_455 S
C483 C486 1.363 . S
N484 C486 1.356 . S
N484 H496 0.984 . S
N484 H497 0.985 . S
N485 C487 1.356 . S
N485 H490 0.984 . S
N485 H491 0.985 . S
C486 C480 1.379 . S
C486 C483 1.363 . S
C486 N484 1.356 . S
C487 C481 1.363 1_655 S
C487 C482 1.379 . S
C487 N485 1.356 . S
N488 C480 1.356 . S
N488 H494 0.984 . S
N488 H495 0.984 . S
N489 C482 1.356 . S
N489 H492 0.984 . S
N489 H493 0.985 . S
H490 N485 0.984 . S
H491 N485 0.985 . S
H492 N489 0.984 . S
H493 N489 0.985 . S
H494 N488 0.984 . S
H495 N488 0.984 . S
H496 N484 0.984 . S
H497 N484 0.985 . S
C175 C10 3.038 . S
C177 C169 3.000 . S
C193 C55 1.483 . S
C195 C151 1.584 . S
C211 C90 1.873 . S
C213 C163 1.869 . S
C229 C19 2.977 . S
C231 C172 2.991 . S
C249 C154 1.630 . S
C247 C46 1.502 . S
C267 C160 1.948 . S
C265 C99 1.933 . S
C283 C50 1.872 . S
C285 C133 1.848 . S
C301 C95 1.229 . S
C303 C142 1.432 . S
C319 C6 1.471 . S
C321 C124 1.562 . S
C339 C136 1.868 . S
C337 C59 1.895 . S
C357 C145 1.120 . S
C355 C86 0.955 . S
C373 C15 1.698 . S
C375 C127 1.828 . S
C393 C143 1.019 . S
C391 C18 1.026 . S
C409 C49 1.423 . S
C411 C125 1.467 . S
C427 C98 1.280 . S
C429 C134 1.314 . S
C447 C161 1.339 . S
C445 C58 1.292 . S
C465 C170 1.812 . S
C463 C89 1.739 . S
C481 C9 1.425 . S
C483 C152 1.496 . S
