# Generated by pormake.
# Topology pyr, (3,6)-cn, num edge types: 1
# Building blocks:
#     Node 0, Type 0, BuildingBlock: KAKCAD_clean_linker_0, # of connection points: 3
#     Node 1, Type 0, BuildingBlock: KAKCAD_clean_linker_0, # of connection points: 3
#     Node 2, Type 0, BuildingBlock: KAKCAD_clean_linker_0, # of connection points: 3
#     Node 3, Type 0, BuildingBlock: KAKCAD_clean_linker_0, # of connection points: 3
#     Node 4, Type 0, BuildingBlock: KAKCAD_clean_linker_0, # of connection points: 3
#     Node 5, Type 0, BuildingBlock: KAKCAD_clean_linker_0, # of connection points: 3
#     Node 6, Type 0, BuildingBlock: KAKCAD_clean_linker_0, # of connection points: 3
#     Node 7, Type 0, BuildingBlock: KAKCAD_clean_linker_0, # of connection points: 3
#     Node 8, Type 1, BuildingBlock: BETGAK_clean_sbu_0, # of connection points: 6
#     Node 9, Type 1, BuildingBlock: BETGAK_clean_sbu_0, # of connection points: 6
#     Node 10, Type 1, BuildingBlock: BETGAK_clean_sbu_0, # of connection points: 6
#     Node 11, Type 1, BuildingBlock: BETGAK_clean_sbu_0, # of connection points: 6
#     Edge 12, Type (0, 1), BuildingBlock: KIFKEQ_clean_linker_1, # of connection points: 2
#     Edge 13, Type (0, 1), BuildingBlock: KIFKEQ_clean_linker_1, # of connection points: 2
#     Edge 14, Type (0, 1), BuildingBlock: KIFKEQ_clean_linker_1, # of connection points: 2
#     Edge 15, Type (0, 1), BuildingBlock: KIFKEQ_clean_linker_1, # of connection points: 2
#     Edge 16, Type (0, 1), BuildingBlock: KIFKEQ_clean_linker_1, # of connection points: 2
#     Edge 17, Type (0, 1), BuildingBlock: KIFKEQ_clean_linker_1, # of connection points: 2
#     Edge 18, Type (0, 1), BuildingBlock: KIFKEQ_clean_linker_1, # of connection points: 2
#     Edge 19, Type (0, 1), BuildingBlock: KIFKEQ_clean_linker_1, # of connection points: 2
#     Edge 20, Type (0, 1), BuildingBlock: KIFKEQ_clean_linker_1, # of connection points: 2
#     Edge 21, Type (0, 1), BuildingBlock: KIFKEQ_clean_linker_1, # of connection points: 2
#     Edge 22, Type (0, 1), BuildingBlock: KIFKEQ_clean_linker_1, # of connection points: 2
#     Edge 23, Type (0, 1), BuildingBlock: KIFKEQ_clean_linker_1, # of connection points: 2
#     Edge 24, Type (0, 1), BuildingBlock: KIFKEQ_clean_linker_1, # of connection points: 2
#     Edge 25, Type (0, 1), BuildingBlock: KIFKEQ_clean_linker_1, # of connection points: 2
#     Edge 26, Type (0, 1), BuildingBlock: KIFKEQ_clean_linker_1, # of connection points: 2
#     Edge 27, Type (0, 1), BuildingBlock: KIFKEQ_clean_linker_1, # of connection points: 2
#     Edge 28, Type (0, 1), BuildingBlock: KIFKEQ_clean_linker_1, # of connection points: 2
#     Edge 29, Type (0, 1), BuildingBlock: KIFKEQ_clean_linker_1, # of connection points: 2
#     Edge 30, Type (0, 1), BuildingBlock: KIFKEQ_clean_linker_1, # of connection points: 2
#     Edge 31, Type (0, 1), BuildingBlock: KIFKEQ_clean_linker_1, # of connection points: 2
#     Edge 32, Type (0, 1), BuildingBlock: KIFKEQ_clean_linker_1, # of connection points: 2
#     Edge 33, Type (0, 1), BuildingBlock: KIFKEQ_clean_linker_1, # of connection points: 2
#     Edge 34, Type (0, 1), BuildingBlock: KIFKEQ_clean_linker_1, # of connection points: 2
#     Edge 35, Type (0, 1), BuildingBlock: KIFKEQ_clean_linker_1, # of connection points: 2
# Relax obj value: 0.092
# Max RMSD: 0.119
# Mean RMSD: 0.056
data_MOF--net-pyr--node1-BETGAK_clean_sbu_0--node2-KAKCAD_clean_linker_0--edge1-KIFKEQ_clean_linker_1
_symmetry_space_group_name_H-M    P1
_symmetry_Int_Tables_number       1
_symmetry_cell_setting            triclinic
loop_
_symmetry_equiv_pos_as_xyz
'x, y, z'
_cell_length_a     47.873422
_cell_length_b     48.672732
_cell_length_c     43.945046
_cell_angle_alpha  90.689554
_cell_angle_beta   88.47011
_cell_angle_gamma 101.39468
loop_
_atom_site_label
_atom_site_type_symbol
_atom_site_fract_x
_atom_site_fract_y
_atom_site_fract_z
_atom_type_partial_charge
C0 C 0.26277 0.29108 0.32465 0.0
C1 C 0.27481 0.27789 0.34777 0.0
C2 C 0.27937 0.303 0.29991 0.0
C3 C 0.30859 0.30231 0.29769 0.0
C4 C 0.32106 0.29061 0.32175 0.0
C5 C 0.30429 0.2784 0.34651 0.0
C6 C 0.32466 0.31059 0.26868 0.0
C7 C 0.31826 0.33241 0.25119 0.0
C8 C 0.32735 0.33575 0.22061 0.0
C9 C 0.34463 0.31817 0.20796 0.0
C10 C 0.35261 0.29726 0.22564 0.0
C11 C 0.34264 0.29367 0.25596 0.0
C12 C 0.3683 0.27679 0.21161 0.0
C13 C 0.35889 0.26301 0.1844 0.0
C14 C 0.39143 0.26944 0.22636 0.0
C15 C 0.40467 0.2484 0.21431 0.0
C16 C 0.39467 0.23406 0.1876 0.0
C17 C 0.31449 0.35427 0.20111 0.0
C18 C 0.29941 0.34304 0.17539 0.0
C19 C 0.31336 0.38169 0.21053 0.0
C20 C 0.2961 0.397 0.19558 0.0
C21 C 0.27922 0.38499 0.17124 0.0
C22 C 0.28185 0.35816 0.16071 0.0
C23 C 0.37184 0.24173 0.17261 0.0
H24 H 0.24005 0.29057 0.32454 0.0
H25 H 0.26873 0.31113 0.28161 0.0
H26 H 0.34356 0.29002 0.32095 0.0
H27 H 0.3142 0.26859 0.36416 0.0
H28 H 0.30423 0.34546 0.26063 0.0
H29 H 0.34697 0.27611 0.26871 0.0
H30 H 0.3512 0.32029 0.18417 0.0
H31 H 0.34089 0.26803 0.17278 0.0
H32 H 0.39904 0.27977 0.24739 0.0
H33 H 0.42217 0.24279 0.22634 0.0
H34 H 0.29959 0.32178 0.16793 0.0
H35 H 0.32493 0.39083 0.23024 0.0
H36 H 0.36391 0.23114 0.15183 0.0
H37 H 0.26899 0.348 0.14234 0.0
H38 H 0.29519 0.41786 0.20385 0.0
C39 C 0.32147 0.87663 0.74106 0.0
C40 C 0.35106 0.87951 0.74404 0.0
C41 C 0.30973 0.87677 0.7124 0.0
C42 C 0.32729 0.87986 0.68605 0.0
C43 C 0.35676 0.88164 0.68886 0.0
C44 C 0.36855 0.88152 0.71761 0.0
C45 C 0.31477 0.88194 0.65589 0.0
C46 C 0.29405 0.89832 0.65248 0.0
C47 C 0.28067 0.89924 0.62457 0.0
C48 C 0.28871 0.88391 0.59965 0.0
C49 C 0.30997 0.86807 0.60248 0.0
C50 C 0.32289 0.86717 0.6307 0.0
C51 C 0.31746 0.8507 0.57686 0.0
C52 C 0.29603 0.83276 0.56094 0.0
C53 C 0.34609 0.84954 0.57061 0.0
C54 C 0.35306 0.8289 0.55126 0.0
C55 C 0.33149 0.80897 0.53781 0.0
C56 C 0.25807 0.9159 0.62173 0.0
C57 C 0.23845 0.91717 0.64586 0.0
C58 C 0.25595 0.93069 0.59492 0.0
C59 C 0.23462 0.94624 0.59224 0.0
C60 C 0.21516 0.94774 0.61647 0.0
C61 C 0.21738 0.93307 0.64335 0.0
C62 C 0.30301 0.81206 0.54151 0.0
H63 H 0.30742 0.87538 0.76094 0.0
H64 H 0.28687 0.87487 0.7109 0.0
H65 H 0.3708 0.88405 0.66892 0.0
H66 H 0.3914 0.88354 0.71918 0.0
H67 H 0.28856 0.91063 0.67163 0.0
H68 H 0.33844 0.85398 0.6334 0.0
H69 H 0.27823 0.88398 0.5781 0.0
H70 H 0.27376 0.8333 0.56524 0.0
H71 H 0.36302 0.8635 0.58219 0.0
H72 H 0.37522 0.82712 0.54915 0.0
H73 H 0.23915 0.90566 0.66667 0.0
H74 H 0.27088 0.93046 0.57602 0.0
H75 H 0.28597 0.79722 0.53116 0.0
H76 H 0.20295 0.93396 0.66257 0.0
H77 H 0.23324 0.95681 0.57096 0.0
C78 C 0.75052 0.44742 0.92111 0.0
C79 C 0.77417 0.43412 0.92215 0.0
C80 C 0.72525 0.4344 0.90707 0.0
C81 C 0.72262 0.40746 0.89426 0.0
C82 C 0.74603 0.3941 0.89513 0.0
C83 C 0.77152 0.40734 0.90849 0.0
C84 C 0.69529 0.39292 0.88082 0.0
C85 C 0.68274 0.40543 0.85745 0.0
C86 C 0.65682 0.39184 0.84459 0.0
C87 C 0.64351 0.36526 0.8561 0.0
C88 C 0.65581 0.35225 0.87951 0.0
C89 C 0.68178 0.36641 0.89152 0.0
C90 C 0.64168 0.32405 0.89179 0.0
C91 C 0.61184 0.3166 0.89574 0.0
C92 C 0.65808 0.30449 0.90047 0.0
C93 C 0.64517 0.27863 0.91315 0.0
C94 C 0.61539 0.27131 0.91739 0.0
C95 C 0.64399 0.40532 0.81905 0.0
C96 C 0.64733 0.4347 0.81726 0.0
C97 C 0.62865 0.3891 0.7959 0.0
C98 C 0.61707 0.40177 0.77195 0.0
C99 C 0.6207 0.43118 0.76999 0.0
C100 C 0.63614 0.44737 0.7931 0.0
C101 C 0.5989 0.29062 0.90827 0.0
H102 H 0.75113 0.46769 0.93171 0.0
H103 H 0.70744 0.44509 0.90696 0.0
H104 H 0.74469 0.37342 0.88517 0.0
H105 H 0.78917 0.39648 0.90782 0.0
H106 H 0.69379 0.42549 0.84877 0.0
H107 H 0.69128 0.35717 0.90995 0.0
H108 H 0.62352 0.3546 0.84683 0.0
H109 H 0.59842 0.33112 0.88981 0.0
H110 H 0.68103 0.30904 0.89727 0.0
H111 H 0.65858 0.26417 0.9193 0.0
H112 H 0.65849 0.44815 0.83467 0.0
H113 H 0.62582 0.36648 0.79591 0.0
H114 H 0.57594 0.28591 0.91145 0.0
H115 H 0.64001 0.47002 0.79251 0.0
H116 H 0.60503 0.38832 0.7551 0.0
C117 C 0.86761 0.6488 0.26926 0.0
C118 C 0.89715 0.65451 0.26314 0.0
C119 C 0.85588 0.66179 0.29378 0.0
C120 C 0.87338 0.6805 0.31338 0.0
C121 C 0.90303 0.68617 0.30709 0.0
C122 C 0.91468 0.67356 0.28218 0.0
C123 C 0.8608 0.69374 0.34027 0.0
C124 C 0.83616 0.67919 0.35585 0.0
C125 C 0.824 0.69131 0.38091 0.0
C126 C 0.83706 0.7183 0.39071 0.0
C127 C 0.86169 0.73336 0.37586 0.0
C128 C 0.87327 0.72092 0.35059 0.0
C129 C 0.87519 0.76201 0.38707 0.0
C130 C 0.85823 0.78095 0.39747 0.0
C131 C 0.90502 0.77033 0.38861 0.0
C132 C 0.91745 0.79652 0.40092 0.0
C133 C 0.9004 0.8151 0.41209 0.0
C134 C 0.7975 0.676 0.39684 0.0
C135 C 0.77458 0.661 0.38025 0.0
C136 C 0.79453 0.67702 0.42877 0.0
C137 C 0.76925 0.66386 0.44364 0.0
C138 C 0.74611 0.64926 0.42705 0.0
C139 C 0.74923 0.64787 0.39514 0.0
C140 C 0.87063 0.80704 0.40983 0.0
H141 H 0.85347 0.63449 0.2548 0.0
H142 H 0.83295 0.65725 0.2971 0.0
H143 H 0.91745 0.69995 0.32173 0.0
H144 H 0.93756 0.6782 0.27825 0.0
H145 H 0.82671 0.65802 0.34903 0.0
H146 H 0.89165 0.73282 0.33851 0.0
H147 H 0.82794 0.72768 0.41008 0.0
H148 H 0.83525 0.77563 0.39608 0.0
H149 H 0.91878 0.75626 0.38114 0.0
H150 H 0.94042 0.80185 0.40252 0.0
H151 H 0.77597 0.6599 0.35564 0.0
H152 H 0.8118 0.68805 0.44237 0.0
H153 H 0.85681 0.82097 0.41757 0.0
H154 H 0.73206 0.63657 0.38158 0.0
H155 H 0.76765 0.66567 0.46818 0.0
C156 C 0.73826 0.80053 0.75978 0.0
C157 C 0.74397 0.82964 0.75531 0.0
C158 C 0.72078 0.78879 0.7842 0.0
C159 C 0.70915 0.80601 0.80496 0.0
C160 C 0.71367 0.83498 0.79931 0.0
C161 C 0.73071 0.8466 0.77466 0.0
C162 C 0.69548 0.79463 0.83424 0.0
C163 C 0.70708 0.77494 0.85032 0.0
C164 C 0.69795 0.76742 0.88029 0.0
C165 C 0.67691 0.78011 0.8943 0.0
C166 C 0.66514 0.79991 0.8786 0.0
C167 C 0.67383 0.80632 0.84833 0.0
C168 C 0.64737 0.81734 0.8949 0.0
C169 C 0.62277 0.82317 0.88172 0.0
C170 C 0.65717 0.83124 0.92193 0.0
C171 C 0.64358 0.85169 0.93461 0.0
C172 C 0.61972 0.85838 0.92074 0.0
C173 C 0.71307 0.74899 0.8977 0.0
C174 C 0.72246 0.72644 0.88318 0.0
C175 C 0.72076 0.75547 0.92799 0.0
C176 C 0.73876 0.74083 0.94273 0.0
C177 C 0.7498 0.71959 0.92743 0.0
C178 C 0.74074 0.71205 0.89776 0.0
C179 C 0.60891 0.84337 0.89469 0.0
H180 H 0.74807 0.78699 0.74498 0.0
H181 H 0.7173 0.76635 0.78749 0.0
H182 H 0.70564 0.84909 0.81496 0.0
H183 H 0.73506 0.86916 0.772 0.0
H184 H 0.72489 0.76702 0.84034 0.0
H185 H 0.66506 0.82195 0.83646 0.0
H186 H 0.67021 0.77524 0.91769 0.0
H187 H 0.61485 0.81275 0.86085 0.0
H188 H 0.67629 0.82742 0.93236 0.0
H189 H 0.65215 0.86281 0.95487 0.0
H190 H 0.71654 0.72055 0.86003 0.0
H191 H 0.71411 0.77279 0.9399 0.0
H192 H 0.59056 0.84821 0.88355 0.0
H193 H 0.74886 0.69596 0.88509 0.0
H194 H 0.74474 0.7468 0.96583 0.0
C195 C 0.65646 0.16801 0.40907 0.0
C196 C 0.65774 0.18742 0.38536 0.0
C197 C 0.66953 0.17614 0.43661 0.0
C198 C 0.68371 0.20391 0.44119 0.0
C199 C 0.68323 0.22382 0.41848 0.0
C200 C 0.67046 0.21562 0.39072 0.0
C201 C 0.70181 0.21125 0.46788 0.0
C202 C 0.72273 0.19572 0.47379 0.0
C203 C 0.74187 0.20359 0.49736 0.0
C204 C 0.73939 0.22667 0.5159 0.0
C205 C 0.71832 0.24221 0.51043 0.0
C206 C 0.69977 0.2346 0.48613 0.0
C207 C 0.71587 0.26671 0.5297 0.0
C208 C 0.71407 0.26451 0.56158 0.0
C209 C 0.7139 0.29211 0.51609 0.0
C210 C 0.7088 0.31453 0.53388 0.0
C211 C 0.70538 0.31198 0.56569 0.0
C212 C 0.76561 0.18877 0.50092 0.0
C213 C 0.76048 0.15939 0.50114 0.0
C214 C 0.79373 0.20393 0.50185 0.0
C215 C 0.81645 0.18989 0.50231 0.0
C216 C 0.81142 0.16043 0.50215 0.0
C217 C 0.78316 0.14534 0.50192 0.0
C218 C 0.70865 0.28694 0.57946 0.0
H219 H 0.64619 0.14629 0.40599 0.0
H220 H 0.66941 0.16051 0.454 0.0
H221 H 0.69424 0.24533 0.42148 0.0
H222 H 0.67204 0.23108 0.37291 0.0
H223 H 0.72509 0.17831 0.45894 0.0
H224 H 0.68355 0.24663 0.48159 0.0
H225 H 0.75416 0.23284 0.53417 0.0
H226 H 0.71556 0.24505 0.57254 0.0
H227 H 0.71555 0.29438 0.49157 0.0
H228 H 0.7059 0.33333 0.52246 0.0
H229 H 0.73891 0.1473 0.50059 0.0
H230 H 0.79819 0.22662 0.50118 0.0
H231 H 0.70609 0.28441 0.60389 0.0
H232 H 0.77853 0.12265 0.50246 0.0
H233 H 0.83795 0.20214 0.50209 0.0
C234 C 0.25876 0.65234 0.20072 0.0
C235 C 0.25328 0.65745 0.17012 0.0
C236 C 0.28395 0.66599 0.21447 0.0
C237 C 0.30489 0.68486 0.19797 0.0
C238 C 0.29972 0.68939 0.16718 0.0
C239 C 0.2743 0.67626 0.15366 0.0
C240 C 0.33162 0.70021 0.21279 0.0
C241 C 0.34426 0.68798 0.23648 0.0
C242 C 0.36893 0.70255 0.25098 0.0
C243 C 0.38155 0.72965 0.24043 0.0
C244 C 0.36987 0.74204 0.21618 0.0
C245 C 0.34463 0.72736 0.20321 0.0
C246 C 0.38387 0.77018 0.20383 0.0
C247 C 0.39532 0.79262 0.22317 0.0
C248 C 0.38531 0.77493 0.17221 0.0
C249 C 0.39742 0.8013 0.1603 0.0
C250 C 0.40853 0.82389 0.17959 0.0
C251 C 0.38142 0.6893 0.27692 0.0
C252 C 0.36371 0.6712 0.29746 0.0
C253 C 0.41107 0.69442 0.28147 0.0
C254 C 0.42253 0.6819 0.30563 0.0
C255 C 0.40479 0.66356 0.32576 0.0
C256 C 0.37522 0.6584 0.3213 0.0
C257 C 0.40739 0.81912 0.21123 0.0
H258 H 0.24366 0.63768 0.21428 0.0
H259 H 0.28668 0.66199 0.23827 0.0
H260 H 0.31533 0.70314 0.15322 0.0
H261 H 0.27112 0.68138 0.13029 0.0
H262 H 0.33522 0.66671 0.24322 0.0
H263 H 0.33479 0.73757 0.18585 0.0
H264 H 0.40057 0.74115 0.25096 0.0
H265 H 0.39448 0.78988 0.24762 0.0
H266 H 0.37708 0.75814 0.1565 0.0
H267 H 0.39758 0.80407 0.13588 0.0
H268 H 0.34078 0.6671 0.29545 0.0
H269 H 0.42564 0.70772 0.26606 0.0
H270 H 0.416 0.83585 0.22684 0.0
H271 H 0.36084 0.64473 0.3366 0.0
H272 H 0.44543 0.68615 0.30815 0.0
C273 C 0.15265 0.28759 0.68461 0.0
C274 C 0.12297 0.28041 0.68115 0.0
C275 C 0.16533 0.31337 0.69741 0.0
C276 C 0.14877 0.33294 0.707 0.0
C277 C 0.11898 0.32554 0.70415 0.0
C278 C 0.10625 0.2996 0.69145 0.0
C279 C 0.16276 0.36111 0.71911 0.0
C280 C 0.18881 0.37521 0.70609 0.0
C281 C 0.20275 0.40142 0.71722 0.0
C282 C 0.19025 0.4137 0.7419 0.0
C283 C 0.16415 0.40016 0.75534 0.0
C284 C 0.15047 0.37398 0.7436 0.0
C285 C 0.15149 0.41322 0.78195 0.0
C286 C 0.16832 0.42387 0.80677 0.0
C287 C 0.12262 0.41533 0.78271 0.0
C288 C 0.111 0.42825 0.8074 0.0
C289 C 0.12781 0.43904 0.83236 0.0
C290 C 0.23034 0.41579 0.70284 0.0
C291 C 0.25188 0.40068 0.69563 0.0
C292 C 0.23511 0.4444 0.69539 0.0
C293 C 0.26055 0.45741 0.68056 0.0
C294 C 0.282 0.44222 0.67319 0.0
C295 C 0.2774 0.41374 0.68116 0.0
C296 C 0.15663 0.43635 0.83169 0.0
H297 H 0.16618 0.27315 0.67754 0.0
H298 H 0.18823 0.31793 0.69986 0.0
H299 H 0.10551 0.34008 0.71098 0.0
H300 H 0.08336 0.29491 0.68892 0.0
H301 H 0.19804 0.36604 0.68663 0.0
H302 H 0.13071 0.36324 0.75424 0.0
H303 H 0.2009 0.43383 0.75074 0.0
H304 H 0.19054 0.42221 0.80712 0.0
H305 H 0.10913 0.40755 0.76382 0.0
H306 H 0.08891 0.43023 0.80652 0.0
H307 H 0.249 0.37867 0.70124 0.0
H308 H 0.21891 0.4566 0.70044 0.0
H309 H 0.17027 0.44363 0.85056 0.0
H310 H 0.29332 0.40134 0.67563 0.0
H311 H 0.26347 0.47942 0.67497 0.0
La312 La 0.02457 0.06084 0.5174 0.0
La313 La 0.99952 1.03475 0.57579 0.0
C314 C 0.03829 0.08214 0.46603 0.0
C315 C 0.06197 0.10473 0.45693 0.0
C316 C 0.0789 0.1202 0.47925 0.0
C317 C 0.10303 0.14003 0.47088 0.0
C318 C 0.11072 0.14465 0.44 0.0
C319 C 0.0933 0.12947 0.41769 0.0
C320 C 0.06912 0.10961 0.42613 0.0
C321 C 0.06065 1.04286 0.55245 0.0
C322 C 0.03513 0.09759 0.5758 0.0
C323 C 0.98576 1.01379 0.62725 0.0
C324 C 0.96036 0.99353 0.63774 0.0
C325 C 0.93305 0.99607 0.62869 0.0
C326 C 0.90909 0.97649 0.63797 0.0
C327 C 0.91194 0.95378 0.65622 0.0
C328 C 0.93929 0.95099 0.66496 0.0
C329 C 0.96332 0.9708 0.65585 0.0
C330 C 0.96357 0.05374 0.54106 0.0
C331 C 0.98868 0.99798 0.51736 0.0
O332 O 0.04607 0.05944 0.47542 0.0
O333 O 0.01871 0.08951 0.48398 0.0
O334 O 0.06727 0.06479 0.53546 0.0
O335 O 0.0354 1.03088 0.54791 0.0
O336 O 0.03243 0.0981 0.54598 0.0
O337 O 0.02727 0.07396 0.59131 0.0
O338 O 0.98133 1.03834 0.61913 0.0
O339 O 1.00288 1.00403 0.60806 0.0
O340 O 0.95663 1.032 0.5583 0.0
O341 O 0.98902 0.06495 0.54557 0.0
O342 O 0.9907 0.99754 0.54726 0.0
O343 O 0.99735 1.02142 0.50173 0.0
H344 H 0.07386 0.11646 0.50319 0.0
H345 H 0.11613 0.15109 0.48861 0.0
H346 H 0.09845 0.13285 0.39371 0.0
H347 H 0.05633 0.09773 0.40865 0.0
H348 H 0.93011 1.01315 0.61432 0.0
H349 H 0.88832 0.97895 0.6306 0.0
H350 H 0.94204 0.93377 0.67921 0.0
H351 H 0.98421 0.96834 0.66286 0.0
La352 La 0.53446 0.05692 0.06749 0.0
La353 La 0.4828 1.04089 1.03141 0.0
C354 C 0.58276 0.07573 0.08889 0.0
C355 C 0.59089 0.0905 0.11751 0.0
C356 C 0.57038 0.09056 0.14089 0.0
C357 C 0.57797 0.10415 0.16841 0.0
C358 C 0.60619 0.11815 0.17299 0.0
C359 C 0.62656 0.11851 0.14918 0.0
C360 C 0.61894 0.10473 0.12164 0.0
C361 C 0.49653 1.01467 0.09042 0.0
C362 C 0.48295 0.08325 0.08774 0.0
C363 C 0.4339 1.02046 1.01237 0.0
C364 C 0.42327 0.99659 0.99238 0.0
C365 C 0.39904 0.99659 0.97528 0.0
C366 C 0.39093 0.97597 0.95312 0.0
C367 C 0.40706 0.95507 0.94768 0.0
C368 C 0.43067 0.95449 0.96581 0.0
C369 C 0.43873 0.97511 0.98798 0.0
C370 C 0.52065 0.08324 1.00839 0.0
C371 C 0.53424 1.01504 1.01146 0.0
O372 O 0.56937 0.0497 0.09179 0.0
O373 O 0.57045 0.08945 0.06958 0.0
O374 O 0.51204 1.0341 0.10648 0.0
O375 O 0.50338 1.01883 0.0627 0.0
O376 O 0.51054 0.08466 0.09052 0.0
O377 O 0.468 0.06647 0.06755 0.0
O378 O 0.45136 1.04117 0.99915 0.0
O379 O 0.44297 1.01444 1.03883 0.0
O380 O 0.50483 0.06398 0.99235 0.0
O381 O 0.51388 0.07898 1.03612 0.0
O382 O 0.50621 1.01103 1.01195 0.0
O383 O 0.54963 1.03476 1.02842 0.0
H384 H 0.54855 0.07976 0.138 0.0
H385 H 0.56184 0.10306 0.18635 0.0
H386 H 0.64838 0.12943 0.15183 0.0
H387 H 0.63492 0.10508 0.10365 0.0
H388 H 0.38704 1.01317 0.97824 0.0
H389 H 0.37289 0.97725 0.93924 0.0
H390 H 0.44334 0.93853 0.96233 0.0
H391 H 0.45753 0.97476 1.001 0.0
La392 La 0.51549 0.52423 0.52728 0.0
La393 La 0.50882 0.57101 0.56831 0.0
C394 C 0.53714 0.48678 0.50225 0.0
C395 C 0.55261 0.46757 0.51734 0.0
C396 C 0.53913 0.44921 0.54021 0.0
C397 C 0.55499 0.43474 0.55809 0.0
C398 C 0.58462 0.43854 0.55366 0.0
C399 C 0.598 0.45633 0.53038 0.0
C400 C 0.58212 0.47061 0.5123 0.0
C401 C 0.46503 0.51845 0.55473 0.0
C402 C 0.53664 0.52549 0.59686 0.0
C403 C 0.48675 0.60681 0.59669 0.0
C404 C 0.46648 0.62378 0.58699 0.0
C405 C 0.46794 0.65082 0.59889 0.0
C406 C 0.44982 0.66764 0.58831 0.0
C407 C 0.4304 0.65774 0.56534 0.0
C408 C 0.4289 0.63066 0.55354 0.0
C409 C 0.44656 0.61366 0.56455 0.0
C410 C 0.55955 0.57658 0.54164 0.0
C411 C 0.48845 0.56971 0.49827 0.0
O412 O 0.50985 0.48359 0.50881 0.0
O413 O 0.54991 0.51318 0.50283 0.0
O414 O 0.46908 0.51018 0.52708 0.0
O415 O 0.48885 0.52806 0.56621 0.0
O416 O 0.5378 0.51566 0.56866 0.0
O417 O 0.52356 0.54642 0.60324 0.0
O418 O 0.51196 0.61264 0.58336 0.0
O419 O 0.47679 0.5798 0.5981 0.0
O420 O 0.55515 0.58486 0.56926 0.0
O421 O 0.53587 0.56716 0.52968 0.0
O422 O 0.48664 0.57914 0.52661 0.0
O423 O 0.50199 0.54909 0.4919 0.0
H424 H 0.51647 0.44667 0.54505 0.0
H425 H 0.54419 0.42108 0.57585 0.0
H426 H 0.62077 0.45913 0.52606 0.0
H427 H 0.59304 0.48479 0.49503 0.0
H428 H 0.48323 0.65897 0.61612 0.0
H429 H 0.45127 0.68856 0.59767 0.0
H430 H 0.41383 0.62254 0.53609 0.0
H431 H 0.44471 0.59268 0.55536 0.0
La432 La 0.01317 0.52014 0.06191 0.0
La433 La 0.01264 0.57507 1.03367 0.0
C434 C 0.0275 0.4753 0.07773 0.0
C435 C 0.05444 0.46745 0.08587 0.0
C436 C 0.05402 0.44181 0.10018 0.0
C437 C 0.07955 0.4341 0.10792 0.0
C438 C 0.10584 0.45212 0.10176 0.0
C439 C 0.10615 0.47783 0.08746 0.0
C440 C 0.08067 0.48532 0.07934 0.0
C441 C 0.98317 0.55158 0.09288 0.0
C442 C 0.06561 0.57223 0.07164 0.0
C443 C 0.99862 0.61978 1.01742 0.0
C444 C 0.9719 0.62811 1.00916 0.0
C445 C 0.97207 0.64621 0.98461 0.0
C446 C 0.94708 0.65472 0.97655 0.0
C447 C 0.92142 0.64546 0.99311 0.0
C448 C 0.92128 0.62695 1.0175 0.0
C449 C 0.94625 0.61824 1.02537 0.0
C450 C 0.04275 0.54372 1.00254 0.0
C451 C 0.96 0.52327 1.02429 0.0
O452 O 0.01763 0.49217 0.09674 0.0
O453 O 0.02589 0.48269 1.04942 0.0
O454 O 0.97638 0.52446 0.09093 0.0
O455 O 1.00677 0.55986 0.07913 0.0
O456 O 0.05561 0.54484 0.07278 0.0
O457 O 0.05112 0.58936 0.05907 0.0
O458 O 1.00815 0.60264 0.99849 0.0
O459 O 1.0007 0.61293 1.04588 0.0
O460 O 0.04924 0.57084 1.00445 0.0
O461 O 0.01921 0.53536 1.01642 0.0
O462 O 0.96978 0.55074 1.02349 0.0
O463 O 0.97476 0.50611 1.0364 0.0
H464 H 0.03397 0.42774 0.10532 0.0
H465 H 0.07873 0.41424 0.11911 0.0
H466 H 0.12612 0.49194 0.08212 0.0
H467 H 0.08156 0.50493 0.06774 0.0
H468 H 0.99159 0.6538 0.97165 0.0
H469 H 0.94789 0.66848 0.95724 0.0
H470 H 0.90202 0.6196 1.03094 0.0
H471 H 0.94554 0.60403 1.04429 0.0
H472 H 0.22898 0.29125 0.37894 0.0
H473 H 0.27707 0.22536 0.36729 0.0
H474 H 0.19136 0.25895 0.4059 0.0
H475 H 0.24001 0.19336 0.39539 0.0
H476 H 0.14994 0.13776 0.39583 0.0
H477 H 0.19268 0.17084 0.38006 0.0
H478 H 0.17522 0.22927 0.44944 0.0
H479 H 0.13167 0.19649 0.46445 0.0
C480 C 0.23183 0.27005 0.38283 0.0
C481 C 0.25576 0.26073 0.37055 0.0
C482 C 0.21037 0.25158 0.39849 0.0
C483 C 0.21246 0.22343 0.40228 0.0
C484 C 0.23752 0.21478 0.39226 0.0
C485 C 0.25895 0.23324 0.37653 0.0
C486 C 0.1551 0.15773 0.4076 0.0
C487 C 0.13724 0.16461 0.43116 0.0
C488 C 0.17989 0.17652 0.39892 0.0
C489 C 0.18747 0.20265 0.41362 0.0
C490 C 0.16989 0.20936 0.43757 0.0
C491 C 0.14505 0.19052 0.44628 0.0
H492 H 0.33177 0.85062 0.79613 0.0
H493 H 0.39827 0.91686 0.76135 0.0
H494 H 0.34767 0.86225 0.84792 0.0
H495 H 0.41415 0.92833 0.8128 0.0
H496 H 0.44504 0.93954 0.90673 0.0
H497 H 0.43452 0.91404 0.85901 0.0
H498 H 0.34438 0.90297 0.88038 0.0
H499 H 0.35493 0.92756 0.9286 0.0
C500 C 0.35001 0.86739 0.79951 0.0
C501 C 0.36358 0.88302 0.77469 0.0
C502 C 0.35911 0.87401 0.82912 0.0
C503 C 0.382 0.89633 0.83445 0.0
C504 C 0.39668 0.91076 0.80946 0.0
C505 C 0.38756 0.90419 0.7799 0.0
C506 C 0.423 0.93091 0.90168 0.0
C507 C 0.40077 0.9358 0.92128 0.0
C508 C 0.41699 0.91655 0.87421 0.0
C509 C 0.38864 0.90678 0.86578 0.0
C510 C 0.36647 0.91006 0.88629 0.0
C511 C 0.37248 0.92444 0.91375 0.0
H512 H 0.60083 0.48083 0.77063 0.0
H513 H 0.61247 0.41308 0.71019 0.0
H514 H 0.58266 0.50373 0.72912 0.0
H515 H 0.59177 0.43478 0.66924 0.0
H516 H 0.57628 0.49168 0.59234 0.0
H517 H 0.59691 0.46944 0.63321 0.0
H518 H 0.5449 0.50483 0.69899 0.0
H519 H 0.5256 0.5281 0.6582 0.0
C520 C 0.59956 0.47066 0.74855 0.0
C521 C 0.60846 0.44492 0.74421 0.0
C522 C 0.58848 0.48368 0.7246 0.0
C523 C 0.58531 0.47127 0.6954 0.0
C524 C 0.59406 0.44543 0.69105 0.0
C525 C 0.60557 0.43261 0.71493 0.0
C526 C 0.56935 0.49477 0.61557 0.0
C527 C 0.54936 0.51188 0.6219 0.0
C528 C 0.58107 0.48179 0.63917 0.0
C529 C 0.57285 0.48516 0.66989 0.0
C530 C 0.55254 0.50209 0.67598 0.0
C531 C 0.54121 0.5154 0.65244 0.0
H532 H 0.93554 0.67813 0.21874 0.0
H533 H 0.88691 0.59863 0.24914 0.0
H534 H 0.9551 0.65484 0.17604 0.0
H535 H 0.90747 0.57494 0.20771 0.0
H536 H 0.92961 0.539 0.11781 0.0
H537 H 0.90822 0.56471 0.1569 0.0
H538 H 0.98624 0.62715 0.15942 0.0
H539 H 1.00668 0.60209 0.11884 0.0
C540 C 0.92928 0.65558 0.21644 0.0
C541 C 0.90957 0.64026 0.23727 0.0
C542 C 0.94063 0.64209 0.19198 0.0
C543 C 0.93301 0.61277 0.18794 0.0
C544 C 0.91348 0.59753 0.2092 0.0
C545 C 0.90175 0.6111 0.23325 0.0
C546 C 0.94203 0.55839 0.12657 0.0
C547 C 0.96984 0.56845 0.11532 0.0
C548 C 0.92989 0.57309 0.14933 0.0
C549 C 0.94545 0.59805 0.16207 0.0
C550 C 0.97322 0.60832 0.15021 0.0
C551 C 0.98512 0.59386 0.12696 0.0
H552 H 0.4511 0.2333 0.178 0.0
H553 H 0.36701 0.18205 0.17062 0.0
H554 H 0.47191 0.19536 0.15615 0.0
H555 H 0.38765 0.14368 0.14987 0.0
H556 H 0.43077 0.09586 0.07872 0.0
H557 H 0.40958 0.13133 0.10463 0.0
H558 H 0.48173 0.1501 0.1638 0.0
H559 H 0.50351 0.11526 0.13692 0.0
C560 C 0.43714 0.21373 0.17206 0.0
C561 C 0.40747 0.21065 0.17568 0.0
C562 C 0.44902 0.19191 0.1597 0.0
C563 C 0.43148 0.16641 0.15108 0.0
C564 C 0.4018 0.16318 0.15559 0.0
C565 C 0.38994 0.18511 0.16755 0.0
C566 C 0.44202 0.10735 0.09744 0.0
C567 C 0.46889 0.10282 0.10565 0.0
C568 C 0.42978 0.12766 0.11246 0.0
C569 C 0.44394 0.14372 0.13633 0.0
C570 C 0.47045 0.13853 0.14517 0.0
C571 C 0.48285 0.1184 0.1299 0.0
H572 H 0.21866 0.99781 0.5876 0.0
H573 H 0.15993 0.93483 0.63835 0.0
H574 H 0.18027 1.02182 0.57737 0.0
H575 H 0.12193 0.9603 0.63042 0.0
H576 H 0.11174 0.06988 0.57269 0.0
H577 H 0.14849 0.04904 0.59541 0.0
H578 H 0.093 0.96736 0.59045 0.0
H579 H 0.05585 0.9887 0.56961 0.0
C580 C 0.1976 0.98922 0.59687 0.0
C581 C 0.19233 0.96409 0.61333 0.0
C582 C 0.17561 1.00334 0.59151 0.0
C583 C 0.14786 0.993 0.60298 0.0
C584 C 0.1429 0.96862 0.62077 0.0
C585 C 0.16483 0.9542 0.62569 0.0
C586 C 0.1074 0.04755 0.577 0.0
C587 C 0.08131 1.03074 0.56912 0.0
C588 C 0.12844 1.03555 0.5898 0.0
C589 C 0.12398 1.00641 0.59426 0.0
C590 C 0.09718 0.98988 0.58768 0.0
C591 C 0.07593 1.00202 0.5755 0.0
H592 H 0.7974 0.49074 0.92882 0.0
H593 H 0.81304 0.40892 0.95117 0.0
H594 H 0.84003 0.51248 0.95512 0.0
H595 H 0.85714 0.43056 0.97439 0.0
H596 H 0.92409 0.47372 1.03796 0.0
H597 H 0.879 0.4534 1.01504 0.0
H598 H 0.88847 0.52461 0.95493 0.0
H599 H 0.93259 0.54566 0.97961 0.0
C600 C 0.80981 0.47722 0.9392 0.0
C601 C 0.80122 0.44781 0.93761 0.0
C602 C 0.83484 0.48984 0.95394 0.0
C603 C 0.85258 0.47355 0.96713 0.0
C604 C 0.84412 0.44415 0.96524 0.0
C605 C 0.81881 0.43156 0.95112 0.0
C606 C 0.91642 0.48509 1.01995 0.0
C607 C 0.93203 0.5113 1.01061 0.0
C608 C 0.89054 0.47328 1.00646 0.0
C609 C 0.87974 0.48696 0.98258 0.0
C610 C 0.89545 0.51338 0.97345 0.0
C611 C 0.92102 0.52549 0.9875 0.0
H612 H 0.69125 0.64776 0.409 0.0
H613 H 0.73872 0.62097 0.48141 0.0
H614 H 0.64676 0.62824 0.43601 0.0
H615 H 0.69423 0.60144 0.50842 0.0
H616 H 0.61115 0.60089 0.56412 0.0
H617 H 0.65598 0.61673 0.53604 0.0
H618 H 0.61536 0.58552 0.45244 0.0
H619 H 0.57029 0.57022 0.48064 0.0
C620 C 0.69225 0.63737 0.43048 0.0
C621 C 0.71874 0.63612 0.44299 0.0
C622 C 0.66664 0.62613 0.44602 0.0
C623 C 0.66674 0.61329 0.47455 0.0
C624 C 0.69323 0.61159 0.4868 0.0
C625 C 0.71882 0.62284 0.47127 0.0
C626 C 0.61184 0.59727 0.53976 0.0
C627 C 0.58716 0.58437 0.5246 0.0
C628 C 0.63763 0.60622 0.52364 0.0
C629 C 0.63944 0.60251 0.49185 0.0
C630 C 0.61476 0.58911 0.47679 0.0
C631 C 0.58895 0.58012 0.49298 0.0
H632 H 0.24585 0.41601 0.20254 0.0
H633 H 0.26137 0.38516 0.11218 0.0
H634 H 0.20597 0.4345 0.18386 0.0
H635 H 0.22056 0.40283 0.09392 0.0
H636 H 0.12241 0.40235 0.09083 0.0
H637 H 0.1667 0.38887 0.10568 0.0
H638 H 0.19452 0.47049 0.14655 0.0
H639 H 0.15019 0.48398 0.13169 0.0
C640 C 0.24123 0.41364 0.17857 0.0
C641 C 0.25694 0.39898 0.15892 0.0
C642 C 0.21821 0.42413 0.16794 0.0
C643 C 0.2101 0.41991 0.13753 0.0
C644 C 0.22618 0.40603 0.1176 0.0
C645 C 0.24949 0.39586 0.12811 0.0
C646 C 0.13802 0.41738 0.10297 0.0
C647 C 0.13289 0.44416 0.11022 0.0
C648 C 0.16344 0.40978 0.11119 0.0
C649 C 0.18403 0.42869 0.12716 0.0
C650 C 0.17895 0.45551 0.13431 0.0
C651 C 0.1537 0.46325 0.12571 0.0
H652 H 0.56613 0.23548 0.9008 0.0
H653 H 0.63357 0.24443 0.96562 0.0
H654 H 0.54408 0.19051 0.92321 0.0
H655 H 0.61186 0.19912 0.98759 0.0
H656 H 0.54715 0.13034 1.03912 0.0
H657 H 0.5702 0.17563 1.01764 0.0
H658 H 0.55197 0.14273 0.92707 0.0
H659 H 0.52894 0.09765 0.94857 0.0
C660 C 0.57624 0.22794 0.91989 0.0
C661 C 0.60172 0.24373 0.93128 0.0
C662 C 0.56373 0.20193 0.93258 0.0
C663 C 0.57618 0.19097 0.95721 0.0
C664 C 0.60151 0.20689 0.96881 0.0
C665 C 0.61414 0.2328 0.95597 0.0
C666 C 0.54831 0.13274 1.01462 0.0
C667 C 0.5362 0.11035 0.99558 0.0
C668 C 0.56157 0.15871 1.00226 0.0
C669 C 0.56286 0.16304 0.97054 0.0
C670 C 0.55103 0.14043 0.95158 0.0
C671 C 0.53797 0.11446 0.96391 0.0
H672 H 0.8814 0.83955 0.46308 0.0
H673 H 0.94901 0.85262 0.39463 0.0
H674 H 0.9023 0.88384 0.4873 0.0
H675 H 0.97044 0.89672 0.41945 0.0
H676 H 0.98406 0.98821 0.45562 0.0
H677 H 0.96287 0.94458 0.42972 0.0
H678 H 0.94355 0.90402 0.51672 0.0
H679 H 0.9643 0.94745 0.54253 0.0
C680 C 0.90067 0.85192 0.45307 0.0
C681 C 0.91342 0.84241 0.42678 0.0
C682 C 0.91287 0.87724 0.4672 0.0
C683 C 0.93817 0.89393 0.45546 0.0
C684 C 0.95084 0.88458 0.42902 0.0
C685 C 0.9387 0.85911 0.41495 0.0
C686 C 0.97527 0.97 0.46923 0.0
C687 C 0.97592 0.97149 0.50122 0.0
C688 C 0.96325 0.9449 0.45435 0.0
C689 C 0.95138 0.9207 0.47108 0.0
C690 C 0.95209 0.92226 0.50305 0.0
C691 C 0.9642 0.94723 0.51788 0.0
H692 H 0.37735 0.80115 0.50203 0.0
H693 H 0.30184 0.75619 0.54895 0.0
H694 H 0.39724 0.75862 0.50114 0.0
H695 H 0.32142 0.71387 0.54725 0.0
H696 H 0.39438 0.68269 0.59909 0.0
H697 H 0.36445 0.71415 0.58166 0.0
H698 H 0.39386 0.70471 0.48904 0.0
H699 H 0.42373 0.67261 0.50667 0.0
C700 C 0.36452 0.78196 0.51098 0.0
C701 C 0.3384 0.78226 0.52632 0.0
C702 C 0.37582 0.75759 0.51027 0.0
C703 C 0.36108 0.73329 0.52482 0.0
C704 C 0.33331 0.73255 0.53627 0.0
C705 C 0.32202 0.75682 0.53699 0.0
C706 C 0.39418 0.68712 0.575 0.0
C707 C 0.41133 0.67551 0.55421 0.0
C708 C 0.37686 0.70481 0.56495 0.0
C709 C 0.37664 0.71152 0.53395 0.0
C710 C 0.39354 0.69961 0.51299 0.0
C711 C 0.41055 0.6814 0.52304 0.0
H712 H 0.74114 0.8704 0.71394 0.0
H713 H 0.79755 0.81949 0.74801 0.0
H714 H 0.78079 0.89816 0.68486 0.0
H715 H 0.83737 0.84764 0.71992 0.0
H716 H 0.90341 0.89651 0.65552 0.0
H717 H 0.86104 0.86333 0.67322 0.0
H718 H 0.82078 0.93262 0.6987 0.0
H719 H 0.86265 0.96544 0.6803 0.0
C720 C 0.76197 0.86495 0.71482 0.0
C721 C 0.76635 0.84293 0.73329 0.0
C722 C 0.78473 0.88093 0.69839 0.0
C723 C 0.81242 0.87548 0.70046 0.0
C724 C 0.81635 0.85233 0.71752 0.0
C725 C 0.79352 0.83615 0.73366 0.0
C726 C 0.88541 0.90451 0.66488 0.0
C727 C 0.88628 0.9335 0.66658 0.0
C728 C 0.86115 0.88556 0.675 0.0
C729 C 0.83739 0.89525 0.68729 0.0
C730 C 0.83833 0.92431 0.68872 0.0
C731 C 0.86242 0.94318 0.67836 0.0
H732 H 0.63037 0.21396 0.34382 0.0
H733 H 0.66457 0.13918 0.35652 0.0
H734 H 0.6189 0.19937 0.29151 0.0
H735 H 0.65168 0.12396 0.3052 0.0
H736 H 0.65506 0.11779 0.2036 0.0
H737 H 0.66728 0.13626 0.25417 0.0
H738 H 0.58742 0.16481 0.26184 0.0
H739 H 0.5759 0.14774 0.21043 0.0
C740 C 0.63524 0.19435 0.33556 0.0
C741 C 0.64836 0.17775 0.35442 0.0
C742 C 0.62844 0.18587 0.30569 0.0
C743 C 0.6346 0.16061 0.2941 0.0
C744 C 0.64713 0.14378 0.3132 0.0
C745 C 0.65405 0.1523 0.34288 0.0
C746 C 0.64036 0.12853 0.21576 0.0
C747 C 0.61444 0.13116 0.20299 0.0
C748 C 0.64717 0.13875 0.24498 0.0
C749 C 0.62814 0.15166 0.26223 0.0
C750 C 0.6026 0.15507 0.24913 0.0
C751 C 0.59586 0.14499 0.21979 0.0
H752 H 0.44606 0.68726 0.36579 0.0
H753 H 0.39116 0.60853 0.34352 0.0
H754 H 0.46578 0.66466 0.40743 0.0
H755 H 0.41089 0.58595 0.38509 0.0
H756 H 0.4776 0.55038 0.4399 0.0
H757 H 0.4573 0.57289 0.39871 0.0
H758 H 0.45022 0.64243 0.45831 0.0
H759 H 0.47044 0.61994 0.49952 0.0
C760 C 0.43827 0.66511 0.36968 0.0
C761 C 0.41698 0.64976 0.35122 0.0
C762 C 0.44941 0.65219 0.39373 0.0
C763 C 0.43996 0.62344 0.39969 0.0
C764 C 0.41884 0.60805 0.38108 0.0
C765 C 0.40736 0.62106 0.35736 0.0
C766 C 0.4717 0.57045 0.44429 0.0
C767 C 0.47567 0.58324 0.47317 0.0
C768 C 0.4599 0.58331 0.42067 0.0
C769 C 0.45213 0.60953 0.42509 0.0
C770 C 0.45618 0.62237 0.45395 0.0
C771 C 0.4676 0.60933 0.4777 0.0
H772 H 0.15479 0.48278 0.86823 0.0
H773 H 0.07281 0.42814 0.85673 0.0
H774 H 0.13542 0.50562 0.91077 0.0
H775 H 0.05278 0.45272 0.89768 0.0
H776 H 0.02766 0.48748 0.98877 0.0
H777 H 0.04882 0.46126 0.94968 0.0
H778 H 0.10723 0.53734 0.92341 0.0
H779 H 0.08724 0.56279 0.96357 0.0
C780 C 0.13261 0.47548 0.87467 0.0
C781 C 0.11556 0.45335 0.85866 0.0
C782 C 0.12126 0.48906 0.89896 0.0
C783 C 0.09229 0.48141 0.90787 0.0
C784 C 0.07523 0.45919 0.89198 0.0
C785 C 0.0867 0.44531 0.86793 0.0
C786 C 0.04535 0.49842 0.97494 0.0
C787 C 0.0559 0.52718 0.97951 0.0
C788 C 0.05731 0.48346 0.95216 0.0
C789 C 0.07991 0.49697 0.93302 0.0
C790 C 0.09037 0.52582 0.93784 0.0
C791 C 0.07869 0.5406 0.96084 0.0
H792 H 0.56377 0.85922 0.93379 0.0
H793 H 0.64795 0.91121 0.93326 0.0
H794 H 0.54383 0.89847 0.95367 0.0
H795 H 0.62814 0.95086 0.95179 0.0
H796 H 0.58789 1.00529 1.01861 0.0
H797 H 0.60848 0.96795 0.99562 0.0
H798 H 0.53301 0.94221 0.94228 0.0
H799 H 0.51192 0.9788 0.96646 0.0
C800 C 0.57792 0.87918 0.93767 0.0
C801 C 0.60737 0.88217 0.93233 0.0
C802 C 0.56653 0.90177 0.94884 0.0
C803 C 0.58434 0.92796 0.95441 0.0
C804 C 0.6138 0.93093 0.94843 0.0
C805 C 0.62519 0.90825 0.93773 0.0
C806 C 0.57585 0.99188 1.00169 0.0
C807 C 0.54825 0.99493 0.99444 0.0
C808 C 0.58769 0.97046 0.98839 0.0
C809 C 0.57237 0.95182 0.96717 0.0
C810 C 0.54519 0.95569 0.95902 0.0
C811 C 0.5332 0.97687 0.97266 0.0
H812 H 0.81686 0.11262 0.47097 0.0
H813 H 0.86048 0.17435 0.53407 0.0
H814 H 0.85519 0.08638 0.47432 0.0
H815 H 0.89897 0.14854 0.53663 0.0
H816 H 0.97339 0.10683 0.51911 0.0
H817 H 0.93769 0.13324 0.50389 0.0
H818 H 0.87152 0.05981 0.51789 0.0
H819 H 0.90723 1.03338 0.53305 0.0
C820 C 0.83461 0.12062 0.48549 0.0
C821 C 0.8355 0.14545 0.50248 0.0
C822 C 0.85658 0.1057 0.4872 0.0
C823 C 0.87998 0.11552 0.50564 0.0
C824 C 0.88135 0.14076 0.52184 0.0
C825 C 0.85929 0.15553 0.52038 0.0
C826 C 0.95127 0.09623 0.51835 0.0
C827 C 0.94288 0.06823 0.52755 0.0
C828 C 0.93091 0.11134 0.50978 0.0
C829 C 0.90192 0.09858 0.51001 0.0
C830 C 0.89377 0.07006 0.51737 0.0
C831 C 0.91413 0.05501 0.52618 0.0
H832 H 0.19979 0.64004 0.19721 0.0
H833 H 0.2436 0.6431 0.10949 0.0
H834 H 0.15547 0.6181 0.17331 0.0
H835 H 0.19868 0.62308 0.08574 0.0
H836 H 0.10201 0.62184 0.05859 0.0
H837 H 0.14768 0.64131 0.082 0.0
H838 H 0.13771 0.56915 0.14019 0.0
H839 H 0.09249 0.54915 0.11619 0.0
C840 C 0.20029 0.63598 0.17297 0.0
C841 C 0.22581 0.64364 0.15554 0.0
C842 C 0.17467 0.62355 0.15926 0.0
C843 C 0.1736 0.61903 0.12766 0.0
C844 C 0.19883 0.62661 0.11012 0.0
C845 C 0.22461 0.63838 0.12387 0.0
C846 C 0.10959 0.61006 0.07629 0.0
C847 C 0.09355 0.58394 0.08551 0.0
C848 C 0.13577 0.62118 0.0896 0.0
C849 C 0.14618 0.60678 0.11297 0.0
C850 C 0.13012 0.58075 0.12233 0.0
C851 C 0.1043 0.56929 0.10848 0.0
H852 H 0.28813 0.47751 0.62416 0.0
H853 H 0.33681 0.43747 0.685 0.0
H854 H 0.33198 0.49815 0.59617 0.0
H855 H 0.38056 0.45783 0.65686 0.0
H856 H 0.45667 0.52023 0.61651 0.0
H857 H 0.41242 0.50376 0.64577 0.0
H858 H 0.3678 0.4815 0.56217 0.0
H859 H 0.41207 0.49797 0.53297 0.0
C860 C 0.30821 0.4733 0.63172 0.0
C861 C 0.3089 0.45577 0.65682 0.0
C862 C 0.33332 0.48493 0.61551 0.0
C863 C 0.35984 0.47964 0.6242 0.0
C864 C 0.36058 0.46255 0.64966 0.0
C865 C 0.33544 0.45067 0.66564 0.0
C866 C 0.43735 0.51203 0.60439 0.0
C867 C 0.43785 0.51031 0.57243 0.0
C868 C 0.41203 0.50242 0.62116 0.0
C869 C 0.38653 0.49117 0.60636 0.0
C870 C 0.38695 0.49022 0.57432 0.0
C871 C 0.41234 0.49954 0.55758 0.0
H872 H 0.7935 0.74578 0.96285 0.0
H873 H 0.75812 0.66527 0.92276 0.0
H874 H 0.83297 0.72695 0.98156 0.0
H875 H 0.79887 0.647 0.93965 0.0
H876 H 0.86613 0.61598 0.99374 0.0
H877 H 0.82321 0.63306 0.98159 0.0
H878 H 0.87461 0.71442 0.96081 0.0
H879 H 0.91707 0.69796 0.97485 0.0
C880 C 0.79389 0.72395 0.95828 0.0
C881 C 0.77253 0.70711 0.94115 0.0
C882 C 0.81689 0.71327 0.96859 0.0
C883 C 0.81943 0.68557 0.96173 0.0
C884 C 0.7976 0.66839 0.94551 0.0
C885 C 0.77437 0.67901 0.93547 0.0
C886 C 0.86821 0.63763 0.98703 0.0
C887 C 0.89513 0.65556 0.98528 0.0
C888 C 0.84361 0.64734 0.97969 0.0
C889 C 0.84536 0.67516 0.97027 0.0
C890 C 0.8723 0.69301 0.96847 0.0
C891 C 0.8968 0.6834 0.97604 0.0
H892 H 0.40353 0.87586 0.202 0.0
H893 H 0.44174 0.83644 0.12757 0.0
H894 H 0.42292 0.92178 0.18034 0.0
H895 H 0.46119 0.8823 0.10597 0.0
H896 H 0.47128 0.96726 0.05956 0.0
H897 H 0.4491 0.9217 0.08084 0.0
H898 H 0.46635 0.95476 0.17159 0.0
H899 H 0.48782 1.00031 0.15024 0.0
C900 C 0.4163 0.87693 0.18118 0.0
C901 C 0.42096 0.85223 0.16663 0.0
C902 C 0.42744 0.90337 0.16867 0.0
C903 C 0.44366 0.90599 0.14124 0.0
C904 C 0.44839 0.88127 0.12677 0.0
C905 C 0.43723 0.85485 0.13925 0.0
C906 C 0.47008 0.96482 0.08406 0.0
C907 C 0.48135 0.98742 0.10319 0.0
C908 C 0.45757 0.9386 0.09631 0.0
C909 C 0.45598 0.93428 0.12806 0.0
C910 C 0.4668 0.95718 0.14711 0.0
C911 C 0.47928 0.98335 0.13485 0.0
H912 H 0.0735 0.24371 0.69758 0.0
H913 H 0.14248 0.25565 0.63071 0.0
H914 H 0.0521 0.19958 0.6727 0.0
H915 H 0.1215 0.21142 0.60635 0.0
H916 H 0.05966 0.14799 0.5505 0.0
H917 H 0.08019 0.19155 0.57623 0.0
H918 H 0.06017 0.15137 0.66333 0.0
H919 H 0.0393 0.10757 0.6375 0.0
C920 C 0.08409 0.23697 0.67757 0.0
C921 C 0.10977 0.25331 0.66622 0.0
C922 C 0.07197 0.21151 0.66348 0.0
C923 C 0.08503 0.20186 0.63747 0.0
C924 C 0.11067 0.21825 0.62613 0.0
C925 C 0.12287 0.24354 0.64033 0.0
C926 C 0.05957 0.14832 0.57515 0.0
C927 C 0.04778 0.12412 0.59187 0.0
C928 C 0.07154 0.17336 0.58993 0.0
C929 C 0.07196 0.17505 0.6219 0.0
C930 C 0.06 0.15092 0.63869 0.0
C931 C 0.04818 0.12573 0.62386 0.0
H932 H 0.72295 0.36872 0.56169 0.0
H933 H 0.66226 0.30475 0.60856 0.0
H934 H 0.6938 0.40284 0.5743 0.0
H935 H 0.63366 0.33928 0.62274 0.0
H936 H 0.57242 0.38303 0.56679 0.0
H937 H 0.60452 0.35538 0.58673 0.0
H938 H 0.66715 0.431 0.60271 0.0
H939 H 0.63485 0.45869 0.58181 0.0
C940 C 0.70395 0.36226 0.57583 0.0
C941 C 0.69432 0.33392 0.58314 0.0
C942 C 0.68729 0.38191 0.58341 0.0
C943 C 0.6608 0.37356 0.59867 0.0
C944 C 0.65353 0.34616 0.61015 0.0
C945 C 0.6701 0.32641 0.60229 0.0
C946 C 0.59268 0.39381 0.57543 0.0
C947 C 0.60152 0.42285 0.57202 0.0
C948 C 0.61111 0.37798 0.58717 0.0
C949 C 0.63873 0.39092 0.59589 0.0
C950 C 0.64629 0.42035 0.59555 0.0
C951 C 0.6279 0.43617 0.5835 0.0
loop_
_geom_bond_atom_site_label_1
_geom_bond_atom_site_label_2
_geom_bond_distance
_geom_bond_site_symmetry_2
_ccdc_geom_bond_type
C0 C1 1.386 . S
C0 C2 1.397 . S
C0 H24 0.931 . S
C1 C0 1.386 . S
C1 C5 1.397 . S
C2 C0 1.397 . S
C2 C3 1.384 . S
C2 H25 0.930 . S
C3 C2 1.384 . S
C3 C4 1.377 . S
C3 C6 1.481 . S
C4 C3 1.377 . S
C4 C5 1.389 . S
C4 H26 0.929 . S
C5 C1 1.397 . S
C5 C4 1.389 . S
C5 H27 0.931 . S
C6 C3 1.481 . S
C6 C7 1.387 . S
C6 C11 1.390 . S
C7 C6 1.387 . S
C7 C8 1.401 . S
C7 H28 0.930 . S
C8 C7 1.401 . S
C8 C9 1.376 . S
C8 C17 1.511 . S
C9 C8 1.376 . S
C9 C10 1.392 . S
C9 H30 0.931 . S
C10 C9 1.392 . S
C10 C11 1.361 . S
C10 C12 1.500 . S
C11 C6 1.390 . S
C11 C10 1.361 . S
C11 H29 0.931 . S
C12 C10 1.500 . S
C12 C13 1.371 . S
C12 C14 1.365 . S
C13 C12 1.371 . S
C13 C23 1.386 . S
C13 H31 0.931 . S
C14 C12 1.365 . S
C14 C15 1.409 . S
C14 H32 0.929 . S
C15 C14 1.409 . S
C15 C16 1.380 . S
C15 H33 0.930 . S
C16 C15 1.380 . S
C16 C23 1.357 . S
C17 C8 1.511 . S
C17 C18 1.341 . S
C17 C19 1.371 . S
C18 C17 1.341 . S
C18 C22 1.394 . S
C18 H34 0.930 . S
C19 C17 1.371 . S
C19 C20 1.392 . S
C19 H35 0.931 . S
C20 C19 1.392 . S
C20 C21 1.331 . S
C20 H38 0.932 . S
C21 C20 1.331 . S
C21 C22 1.336 . S
C22 C18 1.394 . S
C22 C21 1.336 . S
C22 H37 0.929 . S
C23 C13 1.386 . S
C23 C16 1.357 . S
C23 H36 0.928 . S
H24 C0 0.931 . S
H25 C2 0.930 . S
H26 C4 0.929 . S
H27 C5 0.931 . S
H28 C7 0.930 . S
H29 C11 0.931 . S
H30 C9 0.931 . S
H31 C13 0.931 . S
H32 C14 0.929 . S
H33 C15 0.930 . S
H34 C18 0.930 . S
H35 C19 0.931 . S
H36 C23 0.928 . S
H37 C22 0.929 . S
H38 C20 0.932 . S
C39 C40 1.386 . S
C39 C41 1.397 . S
C39 H63 0.931 . S
C40 C39 1.386 . S
C40 C44 1.397 . S
C41 C39 1.397 . S
C41 C42 1.384 . S
C41 H64 0.930 . S
C42 C41 1.384 . S
C42 C43 1.377 . S
C42 C45 1.481 . S
C43 C42 1.377 . S
C43 C44 1.389 . S
C43 H65 0.929 . S
C44 C40 1.397 . S
C44 C43 1.389 . S
C44 H66 0.931 . S
C45 C42 1.481 . S
C45 C46 1.387 . S
C45 C50 1.390 . S
C46 C45 1.387 . S
C46 C47 1.401 . S
C46 H67 0.930 . S
C47 C46 1.401 . S
C47 C48 1.376 . S
C47 C56 1.511 . S
C48 C47 1.376 . S
C48 C49 1.392 . S
C48 H69 0.931 . S
C49 C48 1.392 . S
C49 C50 1.361 . S
C49 C51 1.500 . S
C50 C45 1.390 . S
C50 C49 1.361 . S
C50 H68 0.931 . S
C51 C49 1.500 . S
C51 C52 1.371 . S
C51 C53 1.365 . S
C52 C51 1.371 . S
C52 C62 1.386 . S
C52 H70 0.931 . S
C53 C51 1.365 . S
C53 C54 1.409 . S
C53 H71 0.929 . S
C54 C53 1.409 . S
C54 C55 1.380 . S
C54 H72 0.930 . S
C55 C54 1.380 . S
C55 C62 1.357 . S
C56 C47 1.511 . S
C56 C57 1.341 . S
C56 C58 1.371 . S
C57 C56 1.341 . S
C57 C61 1.394 . S
C57 H73 0.930 . S
C58 C56 1.371 . S
C58 C59 1.392 . S
C58 H74 0.931 . S
C59 C58 1.392 . S
C59 C60 1.331 . S
C59 H77 0.932 . S
C60 C59 1.331 . S
C60 C61 1.336 . S
C61 C57 1.394 . S
C61 C60 1.336 . S
C61 H76 0.929 . S
C62 C52 1.386 . S
C62 C55 1.357 . S
C62 H75 0.928 . S
H63 C39 0.931 . S
H64 C41 0.930 . S
H65 C43 0.929 . S
H66 C44 0.931 . S
H67 C46 0.930 . S
H68 C50 0.931 . S
H69 C48 0.931 . S
H70 C52 0.931 . S
H71 C53 0.929 . S
H72 C54 0.930 . S
H73 C57 0.930 . S
H74 C58 0.931 . S
H75 C62 0.928 . S
H76 C61 0.929 . S
H77 C59 0.932 . S
C78 C79 1.386 . S
C78 C80 1.397 . S
C78 H102 0.931 . S
C79 C78 1.386 . S
C79 C83 1.397 . S
C80 C78 1.397 . S
C80 C81 1.384 . S
C80 H103 0.930 . S
C81 C80 1.384 . S
C81 C82 1.377 . S
C81 C84 1.481 . S
C82 C81 1.377 . S
C82 C83 1.389 . S
C82 H104 0.929 . S
C83 C79 1.397 . S
C83 C82 1.389 . S
C83 H105 0.931 . S
C84 C81 1.481 . S
C84 C85 1.387 . S
C84 C89 1.390 . S
C85 C84 1.387 . S
C85 C86 1.401 . S
C85 H106 0.930 . S
C86 C85 1.401 . S
C86 C87 1.376 . S
C86 C95 1.511 . S
C87 C86 1.376 . S
C87 C88 1.392 . S
C87 H108 0.931 . S
C88 C87 1.392 . S
C88 C89 1.361 . S
C88 C90 1.500 . S
C89 C84 1.390 . S
C89 C88 1.361 . S
C89 H107 0.931 . S
C90 C88 1.500 . S
C90 C91 1.371 . S
C90 C92 1.365 . S
C91 C90 1.371 . S
C91 C101 1.386 . S
C91 H109 0.931 . S
C92 C90 1.365 . S
C92 C93 1.409 . S
C92 H110 0.929 . S
C93 C92 1.409 . S
C93 C94 1.380 . S
C93 H111 0.930 . S
C94 C93 1.380 . S
C94 C101 1.357 . S
C95 C86 1.511 . S
C95 C96 1.341 . S
C95 C97 1.371 . S
C96 C95 1.341 . S
C96 C100 1.394 . S
C96 H112 0.930 . S
C97 C95 1.371 . S
C97 C98 1.392 . S
C97 H113 0.931 . S
C98 C97 1.392 . S
C98 C99 1.331 . S
C98 H116 0.932 . S
C99 C98 1.331 . S
C99 C100 1.336 . S
C100 C96 1.394 . S
C100 C99 1.336 . S
C100 H115 0.929 . S
C101 C91 1.386 . S
C101 C94 1.357 . S
C101 H114 0.928 . S
H102 C78 0.931 . S
H103 C80 0.930 . S
H104 C82 0.929 . S
H105 C83 0.931 . S
H106 C85 0.930 . S
H107 C89 0.931 . S
H108 C87 0.931 . S
H109 C91 0.931 . S
H110 C92 0.929 . S
H111 C93 0.930 . S
H112 C96 0.930 . S
H113 C97 0.931 . S
H114 C101 0.928 . S
H115 C100 0.929 . S
H116 C98 0.932 . S
C117 C118 1.386 . S
C117 C119 1.397 . S
C117 H141 0.931 . S
C118 C117 1.386 . S
C118 C122 1.397 . S
C119 C117 1.397 . S
C119 C120 1.384 . S
C119 H142 0.930 . S
C120 C119 1.384 . S
C120 C121 1.377 . S
C120 C123 1.481 . S
C121 C120 1.377 . S
C121 C122 1.389 . S
C121 H143 0.929 . S
C122 C118 1.397 . S
C122 C121 1.389 . S
C122 H144 0.931 . S
C123 C120 1.481 . S
C123 C124 1.387 . S
C123 C128 1.390 . S
C124 C123 1.387 . S
C124 C125 1.401 . S
C124 H145 0.930 . S
C125 C124 1.401 . S
C125 C126 1.376 . S
C125 C134 1.511 . S
C126 C125 1.376 . S
C126 C127 1.392 . S
C126 H147 0.931 . S
C127 C126 1.392 . S
C127 C128 1.361 . S
C127 C129 1.500 . S
C128 C123 1.390 . S
C128 C127 1.361 . S
C128 H146 0.931 . S
C129 C127 1.500 . S
C129 C130 1.371 . S
C129 C131 1.365 . S
C130 C129 1.371 . S
C130 C140 1.386 . S
C130 H148 0.931 . S
C131 C129 1.365 . S
C131 C132 1.409 . S
C131 H149 0.929 . S
C132 C131 1.409 . S
C132 C133 1.380 . S
C132 H150 0.930 . S
C133 C132 1.380 . S
C133 C140 1.357 . S
C134 C125 1.511 . S
C134 C135 1.341 . S
C134 C136 1.371 . S
C135 C134 1.341 . S
C135 C139 1.394 . S
C135 H151 0.930 . S
C136 C134 1.371 . S
C136 C137 1.392 . S
C136 H152 0.931 . S
C137 C136 1.392 . S
C137 C138 1.331 . S
C137 H155 0.932 . S
C138 C137 1.331 . S
C138 C139 1.336 . S
C139 C135 1.394 . S
C139 C138 1.336 . S
C139 H154 0.929 . S
C140 C130 1.386 . S
C140 C133 1.357 . S
C140 H153 0.928 . S
H141 C117 0.931 . S
H142 C119 0.930 . S
H143 C121 0.929 . S
H144 C122 0.931 . S
H145 C124 0.930 . S
H146 C128 0.931 . S
H147 C126 0.931 . S
H148 C130 0.931 . S
H149 C131 0.929 . S
H150 C132 0.930 . S
H151 C135 0.930 . S
H152 C136 0.931 . S
H153 C140 0.928 . S
H154 C139 0.929 . S
H155 C137 0.932 . S
C156 C157 1.386 . S
C156 C158 1.397 . S
C156 H180 0.931 . S
C157 C156 1.386 . S
C157 C161 1.397 . S
C158 C156 1.397 . S
C158 C159 1.384 . S
C158 H181 0.930 . S
C159 C158 1.384 . S
C159 C160 1.377 . S
C159 C162 1.481 . S
C160 C159 1.377 . S
C160 C161 1.389 . S
C160 H182 0.929 . S
C161 C157 1.397 . S
C161 C160 1.389 . S
C161 H183 0.931 . S
C162 C159 1.481 . S
C162 C163 1.387 . S
C162 C167 1.390 . S
C163 C162 1.387 . S
C163 C164 1.401 . S
C163 H184 0.930 . S
C164 C163 1.401 . S
C164 C165 1.376 . S
C164 C173 1.511 . S
C165 C164 1.376 . S
C165 C166 1.392 . S
C165 H186 0.931 . S
C166 C165 1.392 . S
C166 C167 1.361 . S
C166 C168 1.500 . S
C167 C162 1.390 . S
C167 C166 1.361 . S
C167 H185 0.931 . S
C168 C166 1.500 . S
C168 C169 1.371 . S
C168 C170 1.365 . S
C169 C168 1.371 . S
C169 C179 1.386 . S
C169 H187 0.931 . S
C170 C168 1.365 . S
C170 C171 1.409 . S
C170 H188 0.929 . S
C171 C170 1.409 . S
C171 C172 1.380 . S
C171 H189 0.930 . S
C172 C171 1.380 . S
C172 C179 1.357 . S
C173 C164 1.511 . S
C173 C174 1.341 . S
C173 C175 1.371 . S
C174 C173 1.341 . S
C174 C178 1.394 . S
C174 H190 0.930 . S
C175 C173 1.371 . S
C175 C176 1.392 . S
C175 H191 0.931 . S
C176 C175 1.392 . S
C176 C177 1.331 . S
C176 H194 0.932 . S
C177 C176 1.331 . S
C177 C178 1.336 . S
C178 C174 1.394 . S
C178 C177 1.336 . S
C178 H193 0.929 . S
C179 C169 1.386 . S
C179 C172 1.357 . S
C179 H192 0.928 . S
H180 C156 0.931 . S
H181 C158 0.930 . S
H182 C160 0.929 . S
H183 C161 0.931 . S
H184 C163 0.930 . S
H185 C167 0.931 . S
H186 C165 0.931 . S
H187 C169 0.931 . S
H188 C170 0.929 . S
H189 C171 0.930 . S
H190 C174 0.930 . S
H191 C175 0.931 . S
H192 C179 0.928 . S
H193 C178 0.929 . S
H194 C176 0.932 . S
C195 C196 1.386 . S
C195 C197 1.397 . S
C195 H219 0.931 . S
C196 C195 1.386 . S
C196 C200 1.397 . S
C197 C195 1.397 . S
C197 C198 1.384 . S
C197 H220 0.930 . S
C198 C197 1.384 . S
C198 C199 1.377 . S
C198 C201 1.481 . S
C199 C198 1.377 . S
C199 C200 1.389 . S
C199 H221 0.929 . S
C200 C196 1.397 . S
C200 C199 1.389 . S
C200 H222 0.931 . S
C201 C198 1.481 . S
C201 C202 1.387 . S
C201 C206 1.390 . S
C202 C201 1.387 . S
C202 C203 1.401 . S
C202 H223 0.930 . S
C203 C202 1.401 . S
C203 C204 1.376 . S
C203 C212 1.511 . S
C204 C203 1.376 . S
C204 C205 1.392 . S
C204 H225 0.931 . S
C205 C204 1.392 . S
C205 C206 1.361 . S
C205 C207 1.500 . S
C206 C201 1.390 . S
C206 C205 1.361 . S
C206 H224 0.931 . S
C207 C205 1.500 . S
C207 C208 1.371 . S
C207 C209 1.365 . S
C208 C207 1.371 . S
C208 C218 1.386 . S
C208 H226 0.931 . S
C209 C207 1.365 . S
C209 C210 1.409 . S
C209 H227 0.929 . S
C210 C209 1.409 . S
C210 C211 1.380 . S
C210 H228 0.930 . S
C211 C210 1.380 . S
C211 C218 1.357 . S
C212 C203 1.511 . S
C212 C213 1.341 . S
C212 C214 1.371 . S
C213 C212 1.341 . S
C213 C217 1.394 . S
C213 H229 0.930 . S
C214 C212 1.371 . S
C214 C215 1.392 . S
C214 H230 0.931 . S
C215 C214 1.392 . S
C215 C216 1.331 . S
C215 H233 0.932 . S
C216 C215 1.331 . S
C216 C217 1.336 . S
C217 C213 1.394 . S
C217 C216 1.336 . S
C217 H232 0.929 . S
C218 C208 1.386 . S
C218 C211 1.357 . S
C218 H231 0.928 . S
H219 C195 0.931 . S
H220 C197 0.930 . S
H221 C199 0.929 . S
H222 C200 0.931 . S
H223 C202 0.930 . S
H224 C206 0.931 . S
H225 C204 0.931 . S
H226 C208 0.931 . S
H227 C209 0.929 . S
H228 C210 0.930 . S
H229 C213 0.930 . S
H230 C214 0.931 . S
H231 C218 0.928 . S
H232 C217 0.929 . S
H233 C215 0.932 . S
C234 C235 1.386 . S
C234 C236 1.397 . S
C234 H258 0.931 . S
C235 C234 1.386 . S
C235 C239 1.397 . S
C236 C234 1.397 . S
C236 C237 1.384 . S
C236 H259 0.930 . S
C237 C236 1.384 . S
C237 C238 1.377 . S
C237 C240 1.481 . S
C238 C237 1.377 . S
C238 C239 1.389 . S
C238 H260 0.929 . S
C239 C235 1.397 . S
C239 C238 1.389 . S
C239 H261 0.931 . S
C240 C237 1.481 . S
C240 C241 1.387 . S
C240 C245 1.390 . S
C241 C240 1.387 . S
C241 C242 1.401 . S
C241 H262 0.930 . S
C242 C241 1.401 . S
C242 C243 1.376 . S
C242 C251 1.511 . S
C243 C242 1.376 . S
C243 C244 1.392 . S
C243 H264 0.931 . S
C244 C243 1.392 . S
C244 C245 1.361 . S
C244 C246 1.500 . S
C245 C240 1.390 . S
C245 C244 1.361 . S
C245 H263 0.931 . S
C246 C244 1.500 . S
C246 C247 1.371 . S
C246 C248 1.365 . S
C247 C246 1.371 . S
C247 C257 1.386 . S
C247 H265 0.931 . S
C248 C246 1.365 . S
C248 C249 1.409 . S
C248 H266 0.929 . S
C249 C248 1.409 . S
C249 C250 1.380 . S
C249 H267 0.930 . S
C250 C249 1.380 . S
C250 C257 1.357 . S
C251 C242 1.511 . S
C251 C252 1.341 . S
C251 C253 1.371 . S
C252 C251 1.341 . S
C252 C256 1.394 . S
C252 H268 0.930 . S
C253 C251 1.371 . S
C253 C254 1.392 . S
C253 H269 0.931 . S
C254 C253 1.392 . S
C254 C255 1.331 . S
C254 H272 0.932 . S
C255 C254 1.331 . S
C255 C256 1.336 . S
C256 C252 1.394 . S
C256 C255 1.336 . S
C256 H271 0.929 . S
C257 C247 1.386 . S
C257 C250 1.357 . S
C257 H270 0.928 . S
H258 C234 0.931 . S
H259 C236 0.930 . S
H260 C238 0.929 . S
H261 C239 0.931 . S
H262 C241 0.930 . S
H263 C245 0.931 . S
H264 C243 0.931 . S
H265 C247 0.931 . S
H266 C248 0.929 . S
H267 C249 0.930 . S
H268 C252 0.930 . S
H269 C253 0.931 . S
H270 C257 0.928 . S
H271 C256 0.929 . S
H272 C254 0.932 . S
C273 C274 1.386 . S
C273 C275 1.397 . S
C273 H297 0.931 . S
C274 C273 1.386 . S
C274 C278 1.397 . S
C275 C273 1.397 . S
C275 C276 1.384 . S
C275 H298 0.930 . S
C276 C275 1.384 . S
C276 C277 1.377 . S
C276 C279 1.481 . S
C277 C276 1.377 . S
C277 C278 1.389 . S
C277 H299 0.929 . S
C278 C274 1.397 . S
C278 C277 1.389 . S
C278 H300 0.931 . S
C279 C276 1.481 . S
C279 C280 1.387 . S
C279 C284 1.390 . S
C280 C279 1.387 . S
C280 C281 1.401 . S
C280 H301 0.930 . S
C281 C280 1.401 . S
C281 C282 1.376 . S
C281 C290 1.511 . S
C282 C281 1.376 . S
C282 C283 1.392 . S
C282 H303 0.931 . S
C283 C282 1.392 . S
C283 C284 1.361 . S
C283 C285 1.500 . S
C284 C279 1.390 . S
C284 C283 1.361 . S
C284 H302 0.931 . S
C285 C283 1.500 . S
C285 C286 1.371 . S
C285 C287 1.365 . S
C286 C285 1.371 . S
C286 C296 1.386 . S
C286 H304 0.931 . S
C287 C285 1.365 . S
C287 C288 1.409 . S
C287 H305 0.929 . S
C288 C287 1.409 . S
C288 C289 1.380 . S
C288 H306 0.930 . S
C289 C288 1.380 . S
C289 C296 1.357 . S
C290 C281 1.511 . S
C290 C291 1.341 . S
C290 C292 1.371 . S
C291 C290 1.341 . S
C291 C295 1.394 . S
C291 H307 0.930 . S
C292 C290 1.371 . S
C292 C293 1.392 . S
C292 H308 0.931 . S
C293 C292 1.392 . S
C293 C294 1.331 . S
C293 H311 0.932 . S
C294 C293 1.331 . S
C294 C295 1.336 . S
C295 C291 1.394 . S
C295 C294 1.336 . S
C295 H310 0.929 . S
C296 C286 1.386 . S
C296 C289 1.357 . S
C296 H309 0.928 . S
H297 C273 0.931 . S
H298 C275 0.930 . S
H299 C277 0.929 . S
H300 C278 0.931 . S
H301 C280 0.930 . S
H302 C284 0.931 . S
H303 C282 0.931 . S
H304 C286 0.931 . S
H305 C287 0.929 . S
H306 C288 0.930 . S
H307 C291 0.930 . S
H308 C292 0.931 . S
H309 C296 0.928 . S
H310 C295 0.929 . S
H311 C293 0.932 . S
La312 C314 2.928 . S
La312 O332 2.521 . S
La312 O333 2.628 . S
La312 O334 2.554 1_545 S
La312 O335 2.757 1_545 S
La312 O336 2.470 . S
La312 O341 2.482 1_455 S
La312 O343 2.503 1_445 S
La313 C323 2.928 . S
La313 O335 2.482 1_655 S
La313 O337 2.503 1_665 S
La313 O338 2.521 . S
La313 O339 2.628 . S
La313 O340 2.554 1_565 S
La313 O341 2.757 1_565 S
La313 O342 2.470 . S
C314 La312 2.928 . S
C314 C315 1.503 . S
C314 O332 1.261 . S
C314 O333 1.243 . S
C315 C314 1.503 . S
C315 C316 1.394 . S
C315 C320 1.373 . S
C316 C315 1.394 . S
C316 C317 1.380 . S
C316 H344 0.930 . S
C317 C316 1.380 . S
C317 C318 1.376 . S
C317 H345 0.930 . S
C318 C317 1.376 . S
C318 C319 1.370 . S
C319 C318 1.370 . S
C319 C320 1.396 . S
C319 H346 0.929 . S
C320 C315 1.373 . S
C320 C319 1.396 . S
C320 H347 0.929 . S
C321 O334 1.240 . S
C321 O335 1.289 . S
C322 O336 1.258 . S
C322 O337 1.256 . S
C323 La313 2.928 . S
C323 C324 1.503 . S
C323 O338 1.261 . S
C323 O339 1.243 . S
C324 C323 1.503 . S
C324 C325 1.394 . S
C324 C329 1.373 . S
C325 C324 1.394 . S
C325 C326 1.380 . S
C325 H348 0.930 . S
C326 C325 1.380 . S
C326 C327 1.376 . S
C326 H349 0.930 . S
C327 C326 1.376 . S
C327 C328 1.370 . S
C328 C327 1.370 . S
C328 C329 1.396 . S
C328 H350 0.929 . S
C329 C324 1.373 . S
C329 C328 1.396 . S
C329 H351 0.929 . S
C330 O340 1.240 . S
C330 O341 1.289 . S
C331 O342 1.258 . S
C331 O343 1.256 . S
O332 La312 2.521 . S
O332 C314 1.261 . S
O333 La312 2.628 . S
O333 C314 1.243 . S
O334 La312 2.554 1_565 S
O334 C321 1.240 . S
O335 La312 2.757 1_565 S
O335 La313 2.482 1_455 S
O335 C321 1.289 . S
O336 La312 2.470 . S
O336 C322 1.258 . S
O337 La313 2.503 1_445 S
O337 C322 1.256 . S
O338 La313 2.521 . S
O338 C323 1.261 . S
O339 La313 2.628 . S
O339 C323 1.243 . S
O340 La313 2.554 1_545 S
O340 C330 1.240 . S
O341 La312 2.482 1_655 S
O341 La313 2.757 1_545 S
O341 C330 1.289 . S
O342 La313 2.470 . S
O342 C331 1.258 . S
O343 La312 2.503 1_665 S
O343 C331 1.256 . S
H344 C316 0.930 . S
H345 C317 0.930 . S
H346 C319 0.929 . S
H347 C320 0.929 . S
H348 C325 0.930 . S
H349 C326 0.930 . S
H350 C328 0.929 . S
H351 C329 0.929 . S
La352 C354 2.926 1_565 S
La352 O372 2.521 1_565 S
La352 O373 2.624 1_565 S
La352 O374 2.557 . S
La352 O375 2.759 . S
La352 O376 2.468 1_565 S
La352 O381 2.479 1_564 S
La352 O383 2.506 1_554 S
La353 C363 2.928 1_545 S
La353 O375 2.482 1_546 S
La353 O377 2.503 1_556 S
La353 O378 2.521 1_545 S
La353 O379 2.628 1_545 S
La353 O380 2.554 . S
La353 O381 2.757 . S
La353 O382 2.470 1_545 S
C354 La352 2.926 1_545 S
C354 C355 1.503 . S
C354 O372 1.261 . S
C354 O373 1.243 . S
C355 C354 1.503 . S
C355 C356 1.394 . S
C355 C360 1.373 . S
C356 C355 1.394 . S
C356 C357 1.380 . S
C356 H384 0.930 . S
C357 C356 1.380 . S
C357 C358 1.376 . S
C357 H385 0.930 . S
C358 C357 1.376 . S
C358 C359 1.370 . S
C359 C358 1.370 . S
C359 C360 1.396 . S
C359 H386 0.929 . S
C360 C355 1.373 . S
C360 C359 1.396 . S
C360 H387 0.929 . S
C361 O374 1.240 . S
C361 O375 1.289 . S
C362 O376 1.258 . S
C362 O377 1.256 . S
C363 La353 2.928 1_565 S
C363 C364 1.503 . S
C363 O378 1.261 . S
C363 O379 1.243 . S
C364 C363 1.503 . S
C364 C365 1.394 . S
C364 C369 1.373 . S
C365 C364 1.394 . S
C365 C366 1.380 . S
C365 H388 0.930 . S
C366 C365 1.380 . S
C366 C367 1.376 . S
C366 H389 0.930 . S
C367 C366 1.376 . S
C367 C368 1.370 . S
C368 C367 1.370 . S
C368 C369 1.396 . S
C368 H390 0.929 . S
C369 C364 1.373 . S
C369 C368 1.396 . S
C369 H391 0.929 . S
C370 O380 1.240 . S
C370 O381 1.289 . S
C371 O382 1.258 . S
C371 O383 1.256 . S
O372 La352 2.521 1_545 S
O372 C354 1.261 . S
O373 La352 2.624 1_545 S
O373 C354 1.243 . S
O374 La352 2.557 . S
O374 C361 1.240 . S
O375 La352 2.759 . S
O375 La353 2.482 1_564 S
O375 C361 1.289 . S
O376 La352 2.468 1_545 S
O376 C362 1.258 . S
O377 La353 2.503 1_554 S
O377 C362 1.256 . S
O378 La353 2.521 1_565 S
O378 C363 1.261 . S
O379 La353 2.628 1_565 S
O379 C363 1.243 . S
O380 La353 2.554 . S
O380 C370 1.240 . S
O381 La352 2.479 1_546 S
O381 La353 2.757 . S
O381 C370 1.289 . S
O382 La353 2.470 1_565 S
O382 C371 1.258 . S
O383 La352 2.506 1_556 S
O383 C371 1.256 . S
H384 C356 0.930 . S
H385 C357 0.930 . S
H386 C359 0.929 . S
H387 C360 0.929 . S
H388 C365 0.930 . S
H389 C366 0.930 . S
H390 C368 0.929 . S
H391 C369 0.929 . S
La392 C394 2.928 . S
La392 O412 2.521 . S
La392 O413 2.628 . S
La392 O414 2.554 . S
La392 O415 2.757 . S
La392 O416 2.470 . S
La392 O421 2.482 . S
La392 O423 2.503 . S
La393 C403 2.928 . S
La393 O415 2.482 . S
La393 O417 2.503 . S
La393 O418 2.521 . S
La393 O419 2.628 . S
La393 O420 2.554 . S
La393 O421 2.757 . S
La393 O422 2.470 . S
C394 La392 2.928 . S
C394 C395 1.503 . S
C394 O412 1.261 . S
C394 O413 1.243 . S
C395 C394 1.503 . S
C395 C396 1.394 . S
C395 C400 1.373 . S
C396 C395 1.394 . S
C396 C397 1.380 . S
C396 H424 0.930 . S
C397 C396 1.380 . S
C397 C398 1.376 . S
C397 H425 0.930 . S
C398 C397 1.376 . S
C398 C399 1.370 . S
C399 C398 1.370 . S
C399 C400 1.396 . S
C399 H426 0.929 . S
C400 C395 1.373 . S
C400 C399 1.396 . S
C400 H427 0.929 . S
C401 O414 1.240 . S
C401 O415 1.289 . S
C402 O416 1.258 . S
C402 O417 1.256 . S
C403 La393 2.928 . S
C403 C404 1.503 . S
C403 O418 1.261 . S
C403 O419 1.243 . S
C404 C403 1.503 . S
C404 C405 1.394 . S
C404 C409 1.373 . S
C405 C404 1.394 . S
C405 C406 1.380 . S
C405 H428 0.930 . S
C406 C405 1.380 . S
C406 C407 1.376 . S
C406 H429 0.930 . S
C407 C406 1.376 . S
C407 C408 1.370 . S
C408 C407 1.370 . S
C408 C409 1.396 . S
C408 H430 0.929 . S
C409 C404 1.373 . S
C409 C408 1.396 . S
C409 H431 0.929 . S
C410 O420 1.240 . S
C410 O421 1.289 . S
C411 O422 1.258 . S
C411 O423 1.256 . S
O412 La392 2.521 . S
O412 C394 1.261 . S
O413 La392 2.628 . S
O413 C394 1.243 . S
O414 La392 2.554 . S
O414 C401 1.240 . S
O415 La392 2.757 . S
O415 La393 2.482 . S
O415 C401 1.289 . S
O416 La392 2.470 . S
O416 C402 1.258 . S
O417 La393 2.503 . S
O417 C402 1.256 . S
O418 La393 2.521 . S
O418 C403 1.261 . S
O419 La393 2.628 . S
O419 C403 1.243 . S
O420 La393 2.554 . S
O420 C410 1.240 . S
O421 La392 2.482 . S
O421 La393 2.757 . S
O421 C410 1.289 . S
O422 La393 2.470 . S
O422 C411 1.258 . S
O423 La392 2.503 . S
O423 C411 1.256 . S
H424 C396 0.930 . S
H425 C397 0.930 . S
H426 C399 0.929 . S
H427 C400 0.929 . S
H428 C405 0.930 . S
H429 C406 0.930 . S
H430 C408 0.929 . S
H431 C409 0.929 . S
La432 C434 2.928 . S
La432 O452 2.521 . S
La432 O453 2.628 . S
La432 O454 2.554 1_455 S
La432 O455 2.757 1_455 S
La432 O456 2.470 . S
La432 O461 2.482 1_554 S
La432 O463 2.503 1_454 S
La433 C443 2.928 . S
La433 O455 2.482 1_556 S
La433 O457 2.503 1_656 S
La433 O458 2.521 . S
La433 O459 2.628 . S
La433 O460 2.554 1_655 S
La433 O461 2.757 1_655 S
La433 O462 2.470 . S
C434 La432 2.928 . S
C434 C435 1.503 . S
C434 O452 1.261 . S
C434 O453 1.243 . S
C435 C434 1.503 . S
C435 C436 1.394 . S
C435 C440 1.373 . S
C436 C435 1.394 . S
C436 C437 1.380 . S
C436 H464 0.930 . S
C437 C436 1.380 . S
C437 C438 1.376 . S
C437 H465 0.930 . S
C438 C437 1.376 . S
C438 C439 1.370 . S
C439 C438 1.370 . S
C439 C440 1.396 . S
C439 H466 0.929 . S
C440 C435 1.373 . S
C440 C439 1.396 . S
C440 H467 0.929 . S
C441 O454 1.240 . S
C441 O455 1.289 . S
C442 O456 1.258 . S
C442 O457 1.256 . S
C443 La433 2.928 . S
C443 C444 1.503 . S
C443 O458 1.261 . S
C443 O459 1.243 . S
C444 C443 1.503 . S
C444 C445 1.394 . S
C444 C449 1.373 . S
C445 C444 1.394 . S
C445 C446 1.380 . S
C445 H468 0.930 . S
C446 C445 1.380 . S
C446 C447 1.376 . S
C446 H469 0.930 . S
C447 C446 1.376 . S
C447 C448 1.370 . S
C448 C447 1.370 . S
C448 C449 1.396 . S
C448 H470 0.929 . S
C449 C444 1.373 . S
C449 C448 1.396 . S
C449 H471 0.929 . S
C450 O460 1.240 . S
C450 O461 1.289 . S
C451 O462 1.258 . S
C451 O463 1.256 . S
O452 La432 2.521 . S
O452 C434 1.261 . S
O453 La432 2.628 . S
O453 C434 1.243 . S
O454 La432 2.554 1_655 S
O454 C441 1.240 . S
O455 La432 2.757 1_655 S
O455 La433 2.482 1_554 S
O455 C441 1.289 . S
O456 La432 2.470 . S
O456 C442 1.258 . S
O457 La433 2.503 1_454 S
O457 C442 1.256 . S
O458 La433 2.521 . S
O458 C443 1.261 . S
O459 La433 2.628 . S
O459 C443 1.243 . S
O460 La433 2.554 1_455 S
O460 C450 1.240 . S
O461 La432 2.482 1_556 S
O461 La433 2.757 1_455 S
O461 C450 1.289 . S
O462 La433 2.470 . S
O462 C451 1.258 . S
O463 La432 2.503 1_656 S
O463 C451 1.256 . S
H464 C436 0.930 . S
H465 C437 0.930 . S
H466 C439 0.929 . S
H467 C440 0.929 . S
H468 C445 0.930 . S
H469 C446 0.930 . S
H470 C448 0.929 . S
H471 C449 0.929 . S
H472 C480 0.950 . S
H473 C485 0.950 . S
H474 C482 0.950 . S
H475 C484 0.950 . S
H476 C486 0.950 . S
H477 C488 0.950 . S
H478 C490 0.950 . S
H479 C491 0.950 . S
C480 H472 0.950 . S
C480 C481 1.386 . S
C480 C482 1.391 . S
C481 C480 1.386 . S
C481 C485 1.393 . S
C482 H474 0.950 . S
C482 C480 1.391 . S
C482 C483 1.400 . S
C483 C482 1.400 . S
C483 C484 1.398 . S
C483 C489 1.491 . S
C484 H475 0.950 . S
C484 C483 1.398 . S
C484 C485 1.391 . S
C485 H473 0.950 . S
C485 C481 1.393 . S
C485 C484 1.391 . S
C486 H476 0.950 . S
C486 C487 1.386 . S
C486 C488 1.391 . S
C487 C486 1.386 . S
C487 C491 1.393 . S
C488 H477 0.950 . S
C488 C486 1.391 . S
C488 C489 1.400 . S
C489 C483 1.491 . S
C489 C488 1.400 . S
C489 C490 1.398 . S
C490 H478 0.950 . S
C490 C489 1.398 . S
C490 C491 1.391 . S
C491 H479 0.950 . S
C491 C487 1.393 . S
C491 C490 1.391 . S
H492 C500 0.950 . S
H493 C505 0.950 . S
H494 C502 0.950 . S
H495 C504 0.950 . S
H496 C506 0.950 . S
H497 C508 0.950 . S
H498 C510 0.950 . S
H499 C511 0.950 . S
C500 H492 0.950 . S
C500 C501 1.386 . S
C500 C502 1.391 . S
C501 C500 1.386 . S
C501 C505 1.393 . S
C502 H494 0.950 . S
C502 C500 1.391 . S
C502 C503 1.400 . S
C503 C502 1.400 . S
C503 C504 1.398 . S
C503 C509 1.491 . S
C504 H495 0.950 . S
C504 C503 1.398 . S
C504 C505 1.391 . S
C505 H493 0.950 . S
C505 C501 1.393 . S
C505 C504 1.391 . S
C506 H496 0.950 . S
C506 C507 1.386 . S
C506 C508 1.391 . S
C507 C506 1.386 . S
C507 C511 1.393 . S
C508 H497 0.950 . S
C508 C506 1.391 . S
C508 C509 1.400 . S
C509 C503 1.491 . S
C509 C508 1.400 . S
C509 C510 1.398 . S
C510 H498 0.950 . S
C510 C509 1.398 . S
C510 C511 1.391 . S
C511 H499 0.950 . S
C511 C507 1.393 . S
C511 C510 1.391 . S
H512 C520 0.950 . S
H513 C525 0.950 . S
H514 C522 0.950 . S
H515 C524 0.950 . S
H516 C526 0.950 . S
H517 C528 0.950 . S
H518 C530 0.950 . S
H519 C531 0.950 . S
C520 H512 0.950 . S
C520 C521 1.386 . S
C520 C522 1.391 . S
C521 C520 1.386 . S
C521 C525 1.393 . S
C522 H514 0.950 . S
C522 C520 1.391 . S
C522 C523 1.400 . S
C523 C522 1.400 . S
C523 C524 1.398 . S
C523 C529 1.491 . S
C524 H515 0.950 . S
C524 C523 1.398 . S
C524 C525 1.391 . S
C525 H513 0.950 . S
C525 C521 1.393 . S
C525 C524 1.391 . S
C526 H516 0.950 . S
C526 C527 1.386 . S
C526 C528 1.391 . S
C527 C526 1.386 . S
C527 C531 1.393 . S
C528 H517 0.950 . S
C528 C526 1.391 . S
C528 C529 1.400 . S
C529 C523 1.491 . S
C529 C528 1.400 . S
C529 C530 1.398 . S
C530 H518 0.950 . S
C530 C529 1.398 . S
C530 C531 1.391 . S
C531 H519 0.950 . S
C531 C527 1.393 . S
C531 C530 1.391 . S
H532 C540 0.950 . S
H533 C545 0.950 . S
H534 C542 0.950 . S
H535 C544 0.950 . S
H536 C546 0.950 . S
H537 C548 0.950 . S
H538 C550 0.950 . S
H539 C551 0.950 . S
C540 H532 0.950 . S
C540 C541 1.386 . S
C540 C542 1.391 . S
C541 C540 1.386 . S
C541 C545 1.393 . S
C542 H534 0.950 . S
C542 C540 1.391 . S
C542 C543 1.400 . S
C543 C542 1.400 . S
C543 C544 1.398 . S
C543 C549 1.491 . S
C544 H535 0.950 . S
C544 C543 1.398 . S
C544 C545 1.391 . S
C545 H533 0.950 . S
C545 C541 1.393 . S
C545 C544 1.391 . S
C546 H536 0.950 . S
C546 C547 1.386 . S
C546 C548 1.391 . S
C547 C546 1.386 . S
C547 C551 1.393 . S
C548 H537 0.950 . S
C548 C546 1.391 . S
C548 C549 1.400 . S
C549 C543 1.491 . S
C549 C548 1.400 . S
C549 C550 1.398 . S
C550 H538 0.950 . S
C550 C549 1.398 . S
C550 C551 1.391 . S
C551 H539 0.950 . S
C551 C547 1.393 . S
C551 C550 1.391 . S
H552 C560 0.950 . S
H553 C565 0.950 . S
H554 C562 0.950 . S
H555 C564 0.950 . S
H556 C566 0.950 . S
H557 C568 0.950 . S
H558 C570 0.950 . S
H559 C571 0.950 . S
C560 H552 0.950 . S
C560 C561 1.386 . S
C560 C562 1.391 . S
C561 C560 1.386 . S
C561 C565 1.393 . S
C562 H554 0.950 . S
C562 C560 1.391 . S
C562 C563 1.400 . S
C563 C562 1.400 . S
C563 C564 1.398 . S
C563 C569 1.491 . S
C564 H555 0.950 . S
C564 C563 1.398 . S
C564 C565 1.391 . S
C565 H553 0.950 . S
C565 C561 1.393 . S
C565 C564 1.391 . S
C566 H556 0.950 . S
C566 C567 1.386 . S
C566 C568 1.391 . S
C567 C566 1.386 . S
C567 C571 1.393 . S
C568 H557 0.950 . S
C568 C566 1.391 . S
C568 C569 1.400 . S
C569 C563 1.491 . S
C569 C568 1.400 . S
C569 C570 1.398 . S
C570 H558 0.950 . S
C570 C569 1.398 . S
C570 C571 1.391 . S
C571 H559 0.950 . S
C571 C567 1.393 . S
C571 C570 1.391 . S
H572 C580 0.950 . S
H573 C585 0.950 . S
H574 C582 0.950 . S
H575 C584 0.950 . S
H576 C586 0.950 . S
H577 C588 0.950 . S
H578 C590 0.950 . S
H579 C591 0.950 . S
C580 H572 0.950 . S
C580 C581 1.386 . S
C580 C582 1.391 . S
C581 C580 1.386 . S
C581 C585 1.393 . S
C582 H574 0.950 . S
C582 C580 1.391 . S
C582 C583 1.400 . S
C583 C582 1.400 . S
C583 C584 1.398 . S
C583 C589 1.491 . S
C584 H575 0.950 . S
C584 C583 1.398 . S
C584 C585 1.391 . S
C585 H573 0.950 . S
C585 C581 1.393 . S
C585 C584 1.391 . S
C586 H576 0.950 . S
C586 C587 1.386 . S
C586 C588 1.391 . S
C587 C586 1.386 . S
C587 C591 1.393 . S
C588 H577 0.950 . S
C588 C586 1.391 . S
C588 C589 1.400 . S
C589 C583 1.491 . S
C589 C588 1.400 . S
C589 C590 1.398 . S
C590 H578 0.950 . S
C590 C589 1.398 . S
C590 C591 1.391 . S
C591 H579 0.950 . S
C591 C587 1.393 . S
C591 C590 1.391 . S
H592 C600 0.950 . S
H593 C605 0.950 . S
H594 C602 0.950 . S
H595 C604 0.950 . S
H596 C606 0.950 . S
H597 C608 0.950 . S
H598 C610 0.950 . S
H599 C611 0.950 . S
C600 H592 0.950 . S
C600 C601 1.386 . S
C600 C602 1.391 . S
C601 C600 1.386 . S
C601 C605 1.393 . S
C602 H594 0.950 . S
C602 C600 1.391 . S
C602 C603 1.400 . S
C603 C602 1.400 . S
C603 C604 1.398 . S
C603 C609 1.491 . S
C604 H595 0.950 . S
C604 C603 1.398 . S
C604 C605 1.391 . S
C605 H593 0.950 . S
C605 C601 1.393 . S
C605 C604 1.391 . S
C606 H596 0.950 . S
C606 C607 1.386 . S
C606 C608 1.391 . S
C607 C606 1.386 . S
C607 C611 1.393 . S
C608 H597 0.950 . S
C608 C606 1.391 . S
C608 C609 1.400 . S
C609 C603 1.491 . S
C609 C608 1.400 . S
C609 C610 1.398 . S
C610 H598 0.950 . S
C610 C609 1.398 . S
C610 C611 1.391 . S
C611 H599 0.950 . S
C611 C607 1.393 . S
C611 C610 1.391 . S
H612 C620 0.950 . S
H613 C625 0.950 . S
H614 C622 0.950 . S
H615 C624 0.950 . S
H616 C626 0.950 . S
H617 C628 0.950 . S
H618 C630 0.950 . S
H619 C631 0.950 . S
C620 H612 0.950 . S
C620 C621 1.386 . S
C620 C622 1.391 . S
C621 C620 1.386 . S
C621 C625 1.393 . S
C622 H614 0.950 . S
C622 C620 1.391 . S
C622 C623 1.400 . S
C623 C622 1.400 . S
C623 C624 1.398 . S
C623 C629 1.491 . S
C624 H615 0.950 . S
C624 C623 1.398 . S
C624 C625 1.391 . S
C625 H613 0.950 . S
C625 C621 1.393 . S
C625 C624 1.391 . S
C626 H616 0.950 . S
C626 C627 1.386 . S
C626 C628 1.391 . S
C627 C626 1.386 . S
C627 C631 1.393 . S
C628 H617 0.950 . S
C628 C626 1.391 . S
C628 C629 1.400 . S
C629 C623 1.491 . S
C629 C628 1.400 . S
C629 C630 1.398 . S
C630 H618 0.950 . S
C630 C629 1.398 . S
C630 C631 1.391 . S
C631 H619 0.950 . S
C631 C627 1.393 . S
C631 C630 1.391 . S
H632 C640 0.950 . S
H633 C645 0.950 . S
H634 C642 0.950 . S
H635 C644 0.950 . S
H636 C646 0.950 . S
H637 C648 0.950 . S
H638 C650 0.950 . S
H639 C651 0.950 . S
C640 H632 0.950 . S
C640 C641 1.386 . S
C640 C642 1.391 . S
C641 C640 1.386 . S
C641 C645 1.393 . S
C642 H634 0.950 . S
C642 C640 1.391 . S
C642 C643 1.400 . S
C643 C642 1.400 . S
C643 C644 1.398 . S
C643 C649 1.491 . S
C644 H635 0.950 . S
C644 C643 1.398 . S
C644 C645 1.391 . S
C645 H633 0.950 . S
C645 C641 1.393 . S
C645 C644 1.391 . S
C646 H636 0.950 . S
C646 C647 1.386 . S
C646 C648 1.391 . S
C647 C646 1.386 . S
C647 C651 1.393 . S
C648 H637 0.950 . S
C648 C646 1.391 . S
C648 C649 1.400 . S
C649 C643 1.491 . S
C649 C648 1.400 . S
C649 C650 1.398 . S
C650 H638 0.950 . S
C650 C649 1.398 . S
C650 C651 1.391 . S
C651 H639 0.950 . S
C651 C647 1.393 . S
C651 C650 1.391 . S
H652 C660 0.950 . S
H653 C665 0.950 . S
H654 C662 0.950 . S
H655 C664 0.950 . S
H656 C666 0.950 . S
H657 C668 0.950 . S
H658 C670 0.950 . S
H659 C671 0.950 . S
C660 H652 0.950 . S
C660 C661 1.386 . S
C660 C662 1.391 . S
C661 C660 1.386 . S
C661 C665 1.393 . S
C662 H654 0.950 . S
C662 C660 1.391 . S
C662 C663 1.400 . S
C663 C662 1.400 . S
C663 C664 1.398 . S
C663 C669 1.491 . S
C664 H655 0.950 . S
C664 C663 1.398 . S
C664 C665 1.391 . S
C665 H653 0.950 . S
C665 C661 1.393 . S
C665 C664 1.391 . S
C666 H656 0.950 . S
C666 C667 1.386 . S
C666 C668 1.391 . S
C667 C666 1.386 . S
C667 C671 1.393 . S
C668 H657 0.950 . S
C668 C666 1.391 . S
C668 C669 1.400 . S
C669 C663 1.491 . S
C669 C668 1.400 . S
C669 C670 1.398 . S
C670 H658 0.950 . S
C670 C669 1.398 . S
C670 C671 1.391 . S
C671 H659 0.950 . S
C671 C667 1.393 . S
C671 C670 1.391 . S
H672 C680 0.950 . S
H673 C685 0.950 . S
H674 C682 0.950 . S
H675 C684 0.950 . S
H676 C686 0.950 . S
H677 C688 0.950 . S
H678 C690 0.950 . S
H679 C691 0.950 . S
C680 H672 0.950 . S
C680 C681 1.386 . S
C680 C682 1.391 . S
C681 C680 1.386 . S
C681 C685 1.393 . S
C682 H674 0.950 . S
C682 C680 1.391 . S
C682 C683 1.400 . S
C683 C682 1.400 . S
C683 C684 1.398 . S
C683 C689 1.491 . S
C684 H675 0.950 . S
C684 C683 1.398 . S
C684 C685 1.391 . S
C685 H673 0.950 . S
C685 C681 1.393 . S
C685 C684 1.391 . S
C686 H676 0.950 . S
C686 C687 1.386 . S
C686 C688 1.391 . S
C687 C686 1.386 . S
C687 C691 1.393 . S
C688 H677 0.950 . S
C688 C686 1.391 . S
C688 C689 1.400 . S
C689 C683 1.491 . S
C689 C688 1.400 . S
C689 C690 1.398 . S
C690 H678 0.950 . S
C690 C689 1.398 . S
C690 C691 1.391 . S
C691 H679 0.950 . S
C691 C687 1.393 . S
C691 C690 1.391 . S
H692 C700 0.950 . S
H693 C705 0.950 . S
H694 C702 0.950 . S
H695 C704 0.950 . S
H696 C706 0.950 . S
H697 C708 0.950 . S
H698 C710 0.950 . S
H699 C711 0.950 . S
C700 H692 0.950 . S
C700 C701 1.386 . S
C700 C702 1.391 . S
C701 C700 1.386 . S
C701 C705 1.393 . S
C702 H694 0.950 . S
C702 C700 1.391 . S
C702 C703 1.400 . S
C703 C702 1.400 . S
C703 C704 1.398 . S
C703 C709 1.491 . S
C704 H695 0.950 . S
C704 C703 1.398 . S
C704 C705 1.391 . S
C705 H693 0.950 . S
C705 C701 1.393 . S
C705 C704 1.391 . S
C706 H696 0.950 . S
C706 C707 1.386 . S
C706 C708 1.391 . S
C707 C706 1.386 . S
C707 C711 1.393 . S
C708 H697 0.950 . S
C708 C706 1.391 . S
C708 C709 1.400 . S
C709 C703 1.491 . S
C709 C708 1.400 . S
C709 C710 1.398 . S
C710 H698 0.950 . S
C710 C709 1.398 . S
C710 C711 1.391 . S
C711 H699 0.950 . S
C711 C707 1.393 . S
C711 C710 1.391 . S
H712 C720 0.950 . S
H713 C725 0.950 . S
H714 C722 0.950 . S
H715 C724 0.950 . S
H716 C726 0.950 . S
H717 C728 0.950 . S
H718 C730 0.950 . S
H719 C731 0.950 . S
C720 H712 0.950 . S
C720 C721 1.386 . S
C720 C722 1.391 . S
C721 C720 1.386 . S
C721 C725 1.393 . S
C722 H714 0.950 . S
C722 C720 1.391 . S
C722 C723 1.400 . S
C723 C722 1.400 . S
C723 C724 1.398 . S
C723 C729 1.491 . S
C724 H715 0.950 . S
C724 C723 1.398 . S
C724 C725 1.391 . S
C725 H713 0.950 . S
C725 C721 1.393 . S
C725 C724 1.391 . S
C726 H716 0.950 . S
C726 C727 1.386 . S
C726 C728 1.391 . S
C727 C726 1.386 . S
C727 C731 1.393 . S
C728 H717 0.950 . S
C728 C726 1.391 . S
C728 C729 1.400 . S
C729 C723 1.491 . S
C729 C728 1.400 . S
C729 C730 1.398 . S
C730 H718 0.950 . S
C730 C729 1.398 . S
C730 C731 1.391 . S
C731 H719 0.950 . S
C731 C727 1.393 . S
C731 C730 1.391 . S
H732 C740 0.950 . S
H733 C745 0.950 . S
H734 C742 0.950 . S
H735 C744 0.950 . S
H736 C746 0.950 . S
H737 C748 0.950 . S
H738 C750 0.950 . S
H739 C751 0.950 . S
C740 H732 0.950 . S
C740 C741 1.386 . S
C740 C742 1.391 . S
C741 C740 1.386 . S
C741 C745 1.393 . S
C742 H734 0.950 . S
C742 C740 1.391 . S
C742 C743 1.400 . S
C743 C742 1.400 . S
C743 C744 1.398 . S
C743 C749 1.491 . S
C744 H735 0.950 . S
C744 C743 1.398 . S
C744 C745 1.391 . S
C745 H733 0.950 . S
C745 C741 1.393 . S
C745 C744 1.391 . S
C746 H736 0.950 . S
C746 C747 1.386 . S
C746 C748 1.391 . S
C747 C746 1.386 . S
C747 C751 1.393 . S
C748 H737 0.950 . S
C748 C746 1.391 . S
C748 C749 1.400 . S
C749 C743 1.491 . S
C749 C748 1.400 . S
C749 C750 1.398 . S
C750 H738 0.950 . S
C750 C749 1.398 . S
C750 C751 1.391 . S
C751 H739 0.950 . S
C751 C747 1.393 . S
C751 C750 1.391 . S
H752 C760 0.950 . S
H753 C765 0.950 . S
H754 C762 0.950 . S
H755 C764 0.950 . S
H756 C766 0.950 . S
H757 C768 0.950 . S
H758 C770 0.950 . S
H759 C771 0.950 . S
C760 H752 0.950 . S
C760 C761 1.386 . S
C760 C762 1.391 . S
C761 C760 1.386 . S
C761 C765 1.393 . S
C762 H754 0.950 . S
C762 C760 1.391 . S
C762 C763 1.400 . S
C763 C762 1.400 . S
C763 C764 1.398 . S
C763 C769 1.491 . S
C764 H755 0.950 . S
C764 C763 1.398 . S
C764 C765 1.391 . S
C765 H753 0.950 . S
C765 C761 1.393 . S
C765 C764 1.391 . S
C766 H756 0.950 . S
C766 C767 1.386 . S
C766 C768 1.391 . S
C767 C766 1.386 . S
C767 C771 1.393 . S
C768 H757 0.950 . S
C768 C766 1.391 . S
C768 C769 1.400 . S
C769 C763 1.491 . S
C769 C768 1.400 . S
C769 C770 1.398 . S
C770 H758 0.950 . S
C770 C769 1.398 . S
C770 C771 1.391 . S
C771 H759 0.950 . S
C771 C767 1.393 . S
C771 C770 1.391 . S
H772 C780 0.950 . S
H773 C785 0.950 . S
H774 C782 0.950 . S
H775 C784 0.950 . S
H776 C786 0.950 . S
H777 C788 0.950 . S
H778 C790 0.950 . S
H779 C791 0.950 . S
C780 H772 0.950 . S
C780 C781 1.386 . S
C780 C782 1.391 . S
C781 C780 1.386 . S
C781 C785 1.393 . S
C782 H774 0.950 . S
C782 C780 1.391 . S
C782 C783 1.400 . S
C783 C782 1.400 . S
C783 C784 1.398 . S
C783 C789 1.491 . S
C784 H775 0.950 . S
C784 C783 1.398 . S
C784 C785 1.391 . S
C785 H773 0.950 . S
C785 C781 1.393 . S
C785 C784 1.391 . S
C786 H776 0.950 . S
C786 C787 1.386 . S
C786 C788 1.391 . S
C787 C786 1.386 . S
C787 C791 1.393 . S
C788 H777 0.950 . S
C788 C786 1.391 . S
C788 C789 1.400 . S
C789 C783 1.491 . S
C789 C788 1.400 . S
C789 C790 1.398 . S
C790 H778 0.950 . S
C790 C789 1.398 . S
C790 C791 1.391 . S
C791 H779 0.950 . S
C791 C787 1.393 . S
C791 C790 1.391 . S
H792 C800 0.950 . S
H793 C805 0.950 . S
H794 C802 0.950 . S
H795 C804 0.950 . S
H796 C806 0.950 . S
H797 C808 0.950 . S
H798 C810 0.950 . S
H799 C811 0.950 . S
C800 H792 0.950 . S
C800 C801 1.386 . S
C800 C802 1.391 . S
C801 C800 1.386 . S
C801 C805 1.393 . S
C802 H794 0.950 . S
C802 C800 1.391 . S
C802 C803 1.400 . S
C803 C802 1.400 . S
C803 C804 1.398 . S
C803 C809 1.491 . S
C804 H795 0.950 . S
C804 C803 1.398 . S
C804 C805 1.391 . S
C805 H793 0.950 . S
C805 C801 1.393 . S
C805 C804 1.391 . S
C806 H796 0.950 . S
C806 C807 1.386 . S
C806 C808 1.391 . S
C807 C806 1.386 . S
C807 C811 1.393 . S
C808 H797 0.950 . S
C808 C806 1.391 . S
C808 C809 1.400 . S
C809 C803 1.491 . S
C809 C808 1.400 . S
C809 C810 1.398 . S
C810 H798 0.950 . S
C810 C809 1.398 . S
C810 C811 1.391 . S
C811 H799 0.950 . S
C811 C807 1.393 . S
C811 C810 1.391 . S
H812 C820 0.950 . S
H813 C825 0.950 . S
H814 C822 0.950 . S
H815 C824 0.950 . S
H816 C826 0.950 . S
H817 C828 0.950 . S
H818 C830 0.950 . S
H819 C831 0.950 . S
C820 H812 0.950 . S
C820 C821 1.386 . S
C820 C822 1.391 . S
C821 C820 1.386 . S
C821 C825 1.393 . S
C822 H814 0.950 . S
C822 C820 1.391 . S
C822 C823 1.400 . S
C823 C822 1.400 . S
C823 C824 1.398 . S
C823 C829 1.491 . S
C824 H815 0.950 . S
C824 C823 1.398 . S
C824 C825 1.391 . S
C825 H813 0.950 . S
C825 C821 1.393 . S
C825 C824 1.391 . S
C826 H816 0.950 . S
C826 C827 1.386 . S
C826 C828 1.391 . S
C827 C826 1.386 . S
C827 C831 1.393 . S
C828 H817 0.950 . S
C828 C826 1.391 . S
C828 C829 1.400 . S
C829 C823 1.491 . S
C829 C828 1.400 . S
C829 C830 1.398 . S
C830 H818 0.950 . S
C830 C829 1.398 . S
C830 C831 1.391 . S
C831 H819 0.950 . S
C831 C827 1.393 . S
C831 C830 1.391 . S
H832 C840 0.950 . S
H833 C845 0.950 . S
H834 C842 0.950 . S
H835 C844 0.950 . S
H836 C846 0.950 . S
H837 C848 0.950 . S
H838 C850 0.950 . S
H839 C851 0.950 . S
C840 H832 0.950 . S
C840 C841 1.386 . S
C840 C842 1.391 . S
C841 C840 1.386 . S
C841 C845 1.393 . S
C842 H834 0.950 . S
C842 C840 1.391 . S
C842 C843 1.400 . S
C843 C842 1.400 . S
C843 C844 1.398 . S
C843 C849 1.491 . S
C844 H835 0.950 . S
C844 C843 1.398 . S
C844 C845 1.391 . S
C845 H833 0.950 . S
C845 C841 1.393 . S
C845 C844 1.391 . S
C846 H836 0.950 . S
C846 C847 1.386 . S
C846 C848 1.391 . S
C847 C846 1.386 . S
C847 C851 1.393 . S
C848 H837 0.950 . S
C848 C846 1.391 . S
C848 C849 1.400 . S
C849 C843 1.491 . S
C849 C848 1.400 . S
C849 C850 1.398 . S
C850 H838 0.950 . S
C850 C849 1.398 . S
C850 C851 1.391 . S
C851 H839 0.950 . S
C851 C847 1.393 . S
C851 C850 1.391 . S
H852 C860 0.950 . S
H853 C865 0.950 . S
H854 C862 0.950 . S
H855 C864 0.950 . S
H856 C866 0.950 . S
H857 C868 0.950 . S
H858 C870 0.950 . S
H859 C871 0.950 . S
C860 H852 0.950 . S
C860 C861 1.386 . S
C860 C862 1.391 . S
C861 C860 1.386 . S
C861 C865 1.393 . S
C862 H854 0.950 . S
C862 C860 1.391 . S
C862 C863 1.400 . S
C863 C862 1.400 . S
C863 C864 1.398 . S
C863 C869 1.491 . S
C864 H855 0.950 . S
C864 C863 1.398 . S
C864 C865 1.391 . S
C865 H853 0.950 . S
C865 C861 1.393 . S
C865 C864 1.391 . S
C866 H856 0.950 . S
C866 C867 1.386 . S
C866 C868 1.391 . S
C867 C866 1.386 . S
C867 C871 1.393 . S
C868 H857 0.950 . S
C868 C866 1.391 . S
C868 C869 1.400 . S
C869 C863 1.491 . S
C869 C868 1.400 . S
C869 C870 1.398 . S
C870 H858 0.950 . S
C870 C869 1.398 . S
C870 C871 1.391 . S
C871 H859 0.950 . S
C871 C867 1.393 . S
C871 C870 1.391 . S
H872 C880 0.950 . S
H873 C885 0.950 . S
H874 C882 0.950 . S
H875 C884 0.950 . S
H876 C886 0.950 . S
H877 C888 0.950 . S
H878 C890 0.950 . S
H879 C891 0.950 . S
C880 H872 0.950 . S
C880 C881 1.386 . S
C880 C882 1.391 . S
C881 C880 1.386 . S
C881 C885 1.393 . S
C882 H874 0.950 . S
C882 C880 1.391 . S
C882 C883 1.400 . S
C883 C882 1.400 . S
C883 C884 1.398 . S
C883 C889 1.491 . S
C884 H875 0.950 . S
C884 C883 1.398 . S
C884 C885 1.391 . S
C885 H873 0.950 . S
C885 C881 1.393 . S
C885 C884 1.391 . S
C886 H876 0.950 . S
C886 C887 1.386 . S
C886 C888 1.391 . S
C887 C886 1.386 . S
C887 C891 1.393 . S
C888 H877 0.950 . S
C888 C886 1.391 . S
C888 C889 1.400 . S
C889 C883 1.491 . S
C889 C888 1.400 . S
C889 C890 1.398 . S
C890 H878 0.950 . S
C890 C889 1.398 . S
C890 C891 1.391 . S
C891 H879 0.950 . S
C891 C887 1.393 . S
C891 C890 1.391 . S
H892 C900 0.950 . S
H893 C905 0.950 . S
H894 C902 0.950 . S
H895 C904 0.950 . S
H896 C906 0.950 . S
H897 C908 0.950 . S
H898 C910 0.950 . S
H899 C911 0.950 . S
C900 H892 0.950 . S
C900 C901 1.386 . S
C900 C902 1.391 . S
C901 C900 1.386 . S
C901 C905 1.393 . S
C902 H894 0.950 . S
C902 C900 1.391 . S
C902 C903 1.400 . S
C903 C902 1.400 . S
C903 C904 1.398 . S
C903 C909 1.491 . S
C904 H895 0.950 . S
C904 C903 1.398 . S
C904 C905 1.391 . S
C905 H893 0.950 . S
C905 C901 1.393 . S
C905 C904 1.391 . S
C906 H896 0.950 . S
C906 C907 1.386 . S
C906 C908 1.391 . S
C907 C906 1.386 . S
C907 C911 1.393 . S
C908 H897 0.950 . S
C908 C906 1.391 . S
C908 C909 1.400 . S
C909 C903 1.491 . S
C909 C908 1.400 . S
C909 C910 1.398 . S
C910 H898 0.950 . S
C910 C909 1.398 . S
C910 C911 1.391 . S
C911 H899 0.950 . S
C911 C907 1.393 . S
C911 C910 1.391 . S
H912 C920 0.950 . S
H913 C925 0.950 . S
H914 C922 0.950 . S
H915 C924 0.950 . S
H916 C926 0.950 . S
H917 C928 0.950 . S
H918 C930 0.950 . S
H919 C931 0.950 . S
C920 H912 0.950 . S
C920 C921 1.386 . S
C920 C922 1.391 . S
C921 C920 1.386 . S
C921 C925 1.393 . S
C922 H914 0.950 . S
C922 C920 1.391 . S
C922 C923 1.400 . S
C923 C922 1.400 . S
C923 C924 1.398 . S
C923 C929 1.491 . S
C924 H915 0.950 . S
C924 C923 1.398 . S
C924 C925 1.391 . S
C925 H913 0.950 . S
C925 C921 1.393 . S
C925 C924 1.391 . S
C926 H916 0.950 . S
C926 C927 1.386 . S
C926 C928 1.391 . S
C927 C926 1.386 . S
C927 C931 1.393 . S
C928 H917 0.950 . S
C928 C926 1.391 . S
C928 C929 1.400 . S
C929 C923 1.491 . S
C929 C928 1.400 . S
C929 C930 1.398 . S
C930 H918 0.950 . S
C930 C929 1.398 . S
C930 C931 1.391 . S
C931 H919 0.950 . S
C931 C927 1.393 . S
C931 C930 1.391 . S
H932 C940 0.950 . S
H933 C945 0.950 . S
H934 C942 0.950 . S
H935 C944 0.950 . S
H936 C946 0.950 . S
H937 C948 0.950 . S
H938 C950 0.950 . S
H939 C951 0.950 . S
C940 H932 0.950 . S
C940 C941 1.386 . S
C940 C942 1.391 . S
C941 C940 1.386 . S
C941 C945 1.393 . S
C942 H934 0.950 . S
C942 C940 1.391 . S
C942 C943 1.400 . S
C943 C942 1.400 . S
C943 C944 1.398 . S
C943 C949 1.491 . S
C944 H935 0.950 . S
C944 C943 1.398 . S
C944 C945 1.391 . S
C945 H933 0.950 . S
C945 C941 1.393 . S
C945 C944 1.391 . S
C946 H936 0.950 . S
C946 C947 1.386 . S
C946 C948 1.391 . S
C947 C946 1.386 . S
C947 C951 1.393 . S
C948 H937 0.950 . S
C948 C946 1.391 . S
C948 C949 1.400 . S
C949 C943 1.491 . S
C949 C948 1.400 . S
C949 C950 1.398 . S
C950 H938 0.950 . S
C950 C949 1.398 . S
C950 C951 1.391 . S
C951 H939 0.950 . S
C951 C947 1.393 . S
C951 C950 1.391 . S
C481 C1 1.205 . S
C487 C318 1.255 . S
C501 C40 0.938 . S
C507 C367 0.933 . S
C527 C402 2.475 . S
C521 C99 2.539 . S
C541 C118 2.404 . S
C547 C441 2.344 . S
C567 C362 2.475 . S
C561 C16 2.352 . S
C587 C321 0.831 . S
C581 C60 0.859 . S
C607 C451 1.887 . S
C601 C79 1.951 . S
C627 C410 1.581 . S
C621 C138 1.620 . S
C641 C21 1.643 . S
C647 C438 1.724 . S
C667 C370 2.335 . S
C661 C94 2.432 . S
C681 C133 2.339 . S
C687 C331 2.317 . S
C701 C55 0.809 . S
C707 C407 0.824 . S
C727 C327 1.258 . S
C721 C157 1.208 . S
C741 C196 0.945 . S
C747 C358 0.941 . S
C761 C255 2.537 . S
C767 C411 2.475 . S
C781 C289 2.400 . S
C787 C450 2.339 . S
C801 C172 2.335 . S
C807 C371 2.473 . S
C827 C330 0.816 . S
C821 C216 0.856 . S
C847 C442 1.901 . S
C841 C235 1.955 . S
C867 C401 1.580 . S
C861 C294 1.619 . S
C881 C177 1.666 . S
C887 C447 1.724 . S
C907 C361 2.351 . S
C901 C250 2.435 . S
C927 C322 2.322 . S
C921 C274 2.342 . S
C941 C211 0.831 . S
C947 C398 0.840 . S
