# Generated by pormake.
# Topology tbo, (3,4)-cn, num edge types: 1
# Building blocks:
#     Node 0, Type 0, BuildingBlock: KAKCAD_clean_linker_0, # of connection points: 3
#     Node 1, Type 0, BuildingBlock: KAKCAD_clean_linker_0, # of connection points: 3
#     Node 2, Type 0, BuildingBlock: KAKCAD_clean_linker_0, # of connection points: 3
#     Node 3, Type 0, BuildingBlock: KAKCAD_clean_linker_0, # of connection points: 3
#     Node 4, Type 0, BuildingBlock: KAKCAD_clean_linker_0, # of connection points: 3
#     Node 5, Type 0, BuildingBlock: KAKCAD_clean_linker_0, # of connection points: 3
#     Node 6, Type 0, BuildingBlock: KAKCAD_clean_linker_0, # of connection points: 3
#     Node 7, Type 0, BuildingBlock: KAKCAD_clean_linker_0, # of connection points: 3
#     Node 8, Type 0, BuildingBlock: KAKCAD_clean_linker_0, # of connection points: 3
#     Node 9, Type 0, BuildingBlock: KAKCAD_clean_linker_0, # of connection points: 3
#     Node 10, Type 0, BuildingBlock: KAKCAD_clean_linker_0, # of connection points: 3
#     Node 11, Type 0, BuildingBlock: KAKCAD_clean_linker_0, # of connection points: 3
#     Node 12, Type 0, BuildingBlock: KAKCAD_clean_linker_0, # of connection points: 3
#     Node 13, Type 0, BuildingBlock: KAKCAD_clean_linker_0, # of connection points: 3
#     Node 14, Type 0, BuildingBlock: KAKCAD_clean_linker_0, # of connection points: 3
#     Node 15, Type 0, BuildingBlock: KAKCAD_clean_linker_0, # of connection points: 3
#     Node 16, Type 0, BuildingBlock: KAKCAD_clean_linker_0, # of connection points: 3
#     Node 17, Type 0, BuildingBlock: KAKCAD_clean_linker_0, # of connection points: 3
#     Node 18, Type 0, BuildingBlock: KAKCAD_clean_linker_0, # of connection points: 3
#     Node 19, Type 0, BuildingBlock: KAKCAD_clean_linker_0, # of connection points: 3
#     Node 20, Type 0, BuildingBlock: KAKCAD_clean_linker_0, # of connection points: 3
#     Node 21, Type 0, BuildingBlock: KAKCAD_clean_linker_0, # of connection points: 3
#     Node 22, Type 0, BuildingBlock: KAKCAD_clean_linker_0, # of connection points: 3
#     Node 23, Type 0, BuildingBlock: KAKCAD_clean_linker_0, # of connection points: 3
#     Node 24, Type 0, BuildingBlock: KAKCAD_clean_linker_0, # of connection points: 3
#     Node 25, Type 0, BuildingBlock: KAKCAD_clean_linker_0, # of connection points: 3
#     Node 26, Type 0, BuildingBlock: KAKCAD_clean_linker_0, # of connection points: 3
#     Node 27, Type 0, BuildingBlock: KAKCAD_clean_linker_0, # of connection points: 3
#     Node 28, Type 0, BuildingBlock: KAKCAD_clean_linker_0, # of connection points: 3
#     Node 29, Type 0, BuildingBlock: KAKCAD_clean_linker_0, # of connection points: 3
#     Node 30, Type 0, BuildingBlock: KAKCAD_clean_linker_0, # of connection points: 3
#     Node 31, Type 0, BuildingBlock: KAKCAD_clean_linker_0, # of connection points: 3
#     Node 32, Type 1, BuildingBlock: ESEHIV_clean_sbu_0, # of connection points: 4
#     Node 33, Type 1, BuildingBlock: ESEHIV_clean_sbu_0, # of connection points: 4
#     Node 34, Type 1, BuildingBlock: ESEHIV_clean_sbu_0, # of connection points: 4
#     Node 35, Type 1, BuildingBlock: ESEHIV_clean_sbu_0, # of connection points: 4
#     Node 36, Type 1, BuildingBlock: ESEHIV_clean_sbu_0, # of connection points: 4
#     Node 37, Type 1, BuildingBlock: ESEHIV_clean_sbu_0, # of connection points: 4
#     Node 38, Type 1, BuildingBlock: ESEHIV_clean_sbu_0, # of connection points: 4
#     Node 39, Type 1, BuildingBlock: ESEHIV_clean_sbu_0, # of connection points: 4
#     Node 40, Type 1, BuildingBlock: ESEHIV_clean_sbu_0, # of connection points: 4
#     Node 41, Type 1, BuildingBlock: ESEHIV_clean_sbu_0, # of connection points: 4
#     Node 42, Type 1, BuildingBlock: ESEHIV_clean_sbu_0, # of connection points: 4
#     Node 43, Type 1, BuildingBlock: ESEHIV_clean_sbu_0, # of connection points: 4
#     Node 44, Type 1, BuildingBlock: ESEHIV_clean_sbu_0, # of connection points: 4
#     Node 45, Type 1, BuildingBlock: ESEHIV_clean_sbu_0, # of connection points: 4
#     Node 46, Type 1, BuildingBlock: ESEHIV_clean_sbu_0, # of connection points: 4
#     Node 47, Type 1, BuildingBlock: ESEHIV_clean_sbu_0, # of connection points: 4
#     Node 48, Type 1, BuildingBlock: ESEHIV_clean_sbu_0, # of connection points: 4
#     Node 49, Type 1, BuildingBlock: ESEHIV_clean_sbu_0, # of connection points: 4
#     Node 50, Type 1, BuildingBlock: ESEHIV_clean_sbu_0, # of connection points: 4
#     Node 51, Type 1, BuildingBlock: ESEHIV_clean_sbu_0, # of connection points: 4
#     Node 52, Type 1, BuildingBlock: ESEHIV_clean_sbu_0, # of connection points: 4
#     Node 53, Type 1, BuildingBlock: ESEHIV_clean_sbu_0, # of connection points: 4
#     Node 54, Type 1, BuildingBlock: ESEHIV_clean_sbu_0, # of connection points: 4
#     Node 55, Type 1, BuildingBlock: ESEHIV_clean_sbu_0, # of connection points: 4
#     Edge 56, Type (0, 1), BuildingBlock: EZIPEK_clean_linker_0, # of connection points: 2
#     Edge 57, Type (0, 1), BuildingBlock: EZIPEK_clean_linker_0, # of connection points: 2
#     Edge 58, Type (0, 1), BuildingBlock: EZIPEK_clean_linker_0, # of connection points: 2
#     Edge 59, Type (0, 1), BuildingBlock: EZIPEK_clean_linker_0, # of connection points: 2
#     Edge 60, Type (0, 1), BuildingBlock: EZIPEK_clean_linker_0, # of connection points: 2
#     Edge 61, Type (0, 1), BuildingBlock: EZIPEK_clean_linker_0, # of connection points: 2
#     Edge 62, Type (0, 1), BuildingBlock: EZIPEK_clean_linker_0, # of connection points: 2
#     Edge 63, Type (0, 1), BuildingBlock: EZIPEK_clean_linker_0, # of connection points: 2
#     Edge 64, Type (0, 1), BuildingBlock: EZIPEK_clean_linker_0, # of connection points: 2
#     Edge 65, Type (0, 1), BuildingBlock: EZIPEK_clean_linker_0, # of connection points: 2
#     Edge 66, Type (0, 1), BuildingBlock: EZIPEK_clean_linker_0, # of connection points: 2
#     Edge 67, Type (0, 1), BuildingBlock: EZIPEK_clean_linker_0, # of connection points: 2
#     Edge 68, Type (0, 1), BuildingBlock: EZIPEK_clean_linker_0, # of connection points: 2
#     Edge 69, Type (0, 1), BuildingBlock: EZIPEK_clean_linker_0, # of connection points: 2
#     Edge 70, Type (0, 1), BuildingBlock: EZIPEK_clean_linker_0, # of connection points: 2
#     Edge 71, Type (0, 1), BuildingBlock: EZIPEK_clean_linker_0, # of connection points: 2
#     Edge 72, Type (0, 1), BuildingBlock: EZIPEK_clean_linker_0, # of connection points: 2
#     Edge 73, Type (0, 1), BuildingBlock: EZIPEK_clean_linker_0, # of connection points: 2
#     Edge 74, Type (0, 1), BuildingBlock: EZIPEK_clean_linker_0, # of connection points: 2
#     Edge 75, Type (0, 1), BuildingBlock: EZIPEK_clean_linker_0, # of connection points: 2
#     Edge 76, Type (0, 1), BuildingBlock: EZIPEK_clean_linker_0, # of connection points: 2
#     Edge 77, Type (0, 1), BuildingBlock: EZIPEK_clean_linker_0, # of connection points: 2
#     Edge 78, Type (0, 1), BuildingBlock: EZIPEK_clean_linker_0, # of connection points: 2
#     Edge 79, Type (0, 1), BuildingBlock: EZIPEK_clean_linker_0, # of connection points: 2
#     Edge 80, Type (0, 1), BuildingBlock: EZIPEK_clean_linker_0, # of connection points: 2
#     Edge 81, Type (0, 1), BuildingBlock: EZIPEK_clean_linker_0, # of connection points: 2
#     Edge 82, Type (0, 1), BuildingBlock: EZIPEK_clean_linker_0, # of connection points: 2
#     Edge 83, Type (0, 1), BuildingBlock: EZIPEK_clean_linker_0, # of connection points: 2
#     Edge 84, Type (0, 1), BuildingBlock: EZIPEK_clean_linker_0, # of connection points: 2
#     Edge 85, Type (0, 1), BuildingBlock: EZIPEK_clean_linker_0, # of connection points: 2
#     Edge 86, Type (0, 1), BuildingBlock: EZIPEK_clean_linker_0, # of connection points: 2
#     Edge 87, Type (0, 1), BuildingBlock: EZIPEK_clean_linker_0, # of connection points: 2
#     Edge 88, Type (0, 1), BuildingBlock: EZIPEK_clean_linker_0, # of connection points: 2
#     Edge 89, Type (0, 1), BuildingBlock: EZIPEK_clean_linker_0, # of connection points: 2
#     Edge 90, Type (0, 1), BuildingBlock: EZIPEK_clean_linker_0, # of connection points: 2
#     Edge 91, Type (0, 1), BuildingBlock: EZIPEK_clean_linker_0, # of connection points: 2
#     Edge 92, Type (0, 1), BuildingBlock: EZIPEK_clean_linker_0, # of connection points: 2
#     Edge 93, Type (0, 1), BuildingBlock: EZIPEK_clean_linker_0, # of connection points: 2
#     Edge 94, Type (0, 1), BuildingBlock: EZIPEK_clean_linker_0, # of connection points: 2
#     Edge 95, Type (0, 1), BuildingBlock: EZIPEK_clean_linker_0, # of connection points: 2
#     Edge 96, Type (0, 1), BuildingBlock: EZIPEK_clean_linker_0, # of connection points: 2
#     Edge 97, Type (0, 1), BuildingBlock: EZIPEK_clean_linker_0, # of connection points: 2
#     Edge 98, Type (0, 1), BuildingBlock: EZIPEK_clean_linker_0, # of connection points: 2
#     Edge 99, Type (0, 1), BuildingBlock: EZIPEK_clean_linker_0, # of connection points: 2
#     Edge 100, Type (0, 1), BuildingBlock: EZIPEK_clean_linker_0, # of connection points: 2
#     Edge 101, Type (0, 1), BuildingBlock: EZIPEK_clean_linker_0, # of connection points: 2
#     Edge 102, Type (0, 1), BuildingBlock: EZIPEK_clean_linker_0, # of connection points: 2
#     Edge 103, Type (0, 1), BuildingBlock: EZIPEK_clean_linker_0, # of connection points: 2
#     Edge 104, Type (0, 1), BuildingBlock: EZIPEK_clean_linker_0, # of connection points: 2
#     Edge 105, Type (0, 1), BuildingBlock: EZIPEK_clean_linker_0, # of connection points: 2
#     Edge 106, Type (0, 1), BuildingBlock: EZIPEK_clean_linker_0, # of connection points: 2
#     Edge 107, Type (0, 1), BuildingBlock: EZIPEK_clean_linker_0, # of connection points: 2
#     Edge 108, Type (0, 1), BuildingBlock: EZIPEK_clean_linker_0, # of connection points: 2
#     Edge 109, Type (0, 1), BuildingBlock: EZIPEK_clean_linker_0, # of connection points: 2
#     Edge 110, Type (0, 1), BuildingBlock: EZIPEK_clean_linker_0, # of connection points: 2
#     Edge 111, Type (0, 1), BuildingBlock: EZIPEK_clean_linker_0, # of connection points: 2
#     Edge 112, Type (0, 1), BuildingBlock: EZIPEK_clean_linker_0, # of connection points: 2
#     Edge 113, Type (0, 1), BuildingBlock: EZIPEK_clean_linker_0, # of connection points: 2
#     Edge 114, Type (0, 1), BuildingBlock: EZIPEK_clean_linker_0, # of connection points: 2
#     Edge 115, Type (0, 1), BuildingBlock: EZIPEK_clean_linker_0, # of connection points: 2
#     Edge 116, Type (0, 1), BuildingBlock: EZIPEK_clean_linker_0, # of connection points: 2
#     Edge 117, Type (0, 1), BuildingBlock: EZIPEK_clean_linker_0, # of connection points: 2
#     Edge 118, Type (0, 1), BuildingBlock: EZIPEK_clean_linker_0, # of connection points: 2
#     Edge 119, Type (0, 1), BuildingBlock: EZIPEK_clean_linker_0, # of connection points: 2
#     Edge 120, Type (0, 1), BuildingBlock: EZIPEK_clean_linker_0, # of connection points: 2
#     Edge 121, Type (0, 1), BuildingBlock: EZIPEK_clean_linker_0, # of connection points: 2
#     Edge 122, Type (0, 1), BuildingBlock: EZIPEK_clean_linker_0, # of connection points: 2
#     Edge 123, Type (0, 1), BuildingBlock: EZIPEK_clean_linker_0, # of connection points: 2
#     Edge 124, Type (0, 1), BuildingBlock: EZIPEK_clean_linker_0, # of connection points: 2
#     Edge 125, Type (0, 1), BuildingBlock: EZIPEK_clean_linker_0, # of connection points: 2
#     Edge 126, Type (0, 1), BuildingBlock: EZIPEK_clean_linker_0, # of connection points: 2
#     Edge 127, Type (0, 1), BuildingBlock: EZIPEK_clean_linker_0, # of connection points: 2
#     Edge 128, Type (0, 1), BuildingBlock: EZIPEK_clean_linker_0, # of connection points: 2
#     Edge 129, Type (0, 1), BuildingBlock: EZIPEK_clean_linker_0, # of connection points: 2
#     Edge 130, Type (0, 1), BuildingBlock: EZIPEK_clean_linker_0, # of connection points: 2
#     Edge 131, Type (0, 1), BuildingBlock: EZIPEK_clean_linker_0, # of connection points: 2
#     Edge 132, Type (0, 1), BuildingBlock: EZIPEK_clean_linker_0, # of connection points: 2
#     Edge 133, Type (0, 1), BuildingBlock: EZIPEK_clean_linker_0, # of connection points: 2
#     Edge 134, Type (0, 1), BuildingBlock: EZIPEK_clean_linker_0, # of connection points: 2
#     Edge 135, Type (0, 1), BuildingBlock: EZIPEK_clean_linker_0, # of connection points: 2
#     Edge 136, Type (0, 1), BuildingBlock: EZIPEK_clean_linker_0, # of connection points: 2
#     Edge 137, Type (0, 1), BuildingBlock: EZIPEK_clean_linker_0, # of connection points: 2
#     Edge 138, Type (0, 1), BuildingBlock: EZIPEK_clean_linker_0, # of connection points: 2
#     Edge 139, Type (0, 1), BuildingBlock: EZIPEK_clean_linker_0, # of connection points: 2
#     Edge 140, Type (0, 1), BuildingBlock: EZIPEK_clean_linker_0, # of connection points: 2
#     Edge 141, Type (0, 1), BuildingBlock: EZIPEK_clean_linker_0, # of connection points: 2
#     Edge 142, Type (0, 1), BuildingBlock: EZIPEK_clean_linker_0, # of connection points: 2
#     Edge 143, Type (0, 1), BuildingBlock: EZIPEK_clean_linker_0, # of connection points: 2
#     Edge 144, Type (0, 1), BuildingBlock: EZIPEK_clean_linker_0, # of connection points: 2
#     Edge 145, Type (0, 1), BuildingBlock: EZIPEK_clean_linker_0, # of connection points: 2
#     Edge 146, Type (0, 1), BuildingBlock: EZIPEK_clean_linker_0, # of connection points: 2
#     Edge 147, Type (0, 1), BuildingBlock: EZIPEK_clean_linker_0, # of connection points: 2
#     Edge 148, Type (0, 1), BuildingBlock: EZIPEK_clean_linker_0, # of connection points: 2
#     Edge 149, Type (0, 1), BuildingBlock: EZIPEK_clean_linker_0, # of connection points: 2
#     Edge 150, Type (0, 1), BuildingBlock: EZIPEK_clean_linker_0, # of connection points: 2
#     Edge 151, Type (0, 1), BuildingBlock: EZIPEK_clean_linker_0, # of connection points: 2
# Relax obj value: 0.003
# Max RMSD: 0.122
# Mean RMSD: 0.050
data_MOF--net-tbo--node1-ESEHIV_clean_sbu_0--node2-KAKCAD_clean_linker_0--edge1-EZIPEK_clean_linker_0
_symmetry_space_group_name_H-M    P1
_symmetry_Int_Tables_number       1
_symmetry_cell_setting            triclinic
loop_
_symmetry_equiv_pos_as_xyz
'x, y, z'
_cell_length_a     71.257259
_cell_length_b     71.204988
_cell_length_c     71.022923
_cell_angle_alpha  90.255305
_cell_angle_beta   92.143764
_cell_angle_gamma 90.936952
loop_
_atom_site_label
_atom_site_type_symbol
_atom_site_fract_x
_atom_site_fract_y
_atom_site_fract_z
_atom_type_partial_charge
C0 C 0.20418 0.19663 0.11621 0.0
C1 C 0.20543 0.21649 0.11455 0.0
C2 C 0.19937 0.188 0.13317 0.0
C3 C 0.19675 0.19881 0.14938 0.0
C4 C 0.20123 0.21804 0.14874 0.0
C5 C 0.20617 0.22654 0.13185 0.0
C6 C 0.18812 0.19057 0.16641 0.0
C7 C 0.19428 0.17353 0.17441 0.0
C8 C 0.18547 0.16572 0.1902 0.0
C9 C 0.16994 0.17521 0.1974 0.0
C10 C 0.16383 0.19243 0.18987 0.0
C11 C 0.17315 0.19994 0.17446 0.0
C12 C 0.14794 0.20282 0.19821 0.0
C13 C 0.13528 0.21307 0.18667 0.0
C14 C 0.14569 0.2032 0.21785 0.0
C15 C 0.13146 0.21377 0.22568 0.0
C16 C 0.11925 0.22436 0.21412 0.0
C17 C 0.1924 0.14791 0.19944 0.0
C18 C 0.20146 0.13384 0.18921 0.0
C19 C 0.18993 0.14477 0.21882 0.0
C20 C 0.19559 0.12804 0.22743 0.0
C21 C 0.20448 0.11405 0.21719 0.0
C22 C 0.20766 0.11728 0.19804 0.0
C23 C 0.12121 0.2238 0.19454 0.0
H24 H 0.20685 0.1874 0.10457 0.0
H25 H 0.19708 0.17293 0.1334 0.0
H26 H 0.20069 0.22662 0.16134 0.0
H27 H 0.21045 0.24113 0.13271 0.0
H28 H 0.20626 0.16676 0.16857 0.0
H29 H 0.16868 0.2132 0.16854 0.0
H30 H 0.16225 0.16904 0.20874 0.0
H31 H 0.13623 0.21288 0.1715 0.0
H32 H 0.15523 0.19574 0.22725 0.0
H33 H 0.13023 0.21401 0.24084 0.0
H34 H 0.20356 0.13538 0.17429 0.0
H35 H 0.18374 0.15529 0.22757 0.0
H36 H 0.1119 0.23179 0.18534 0.0
H37 H 0.21462 0.10679 0.18982 0.0
H38 H 0.19317 0.12607 0.24227 0.0
C39 C 0.9276 0.20427 0.25283 0.0
C40 C 0.94205 0.21375 0.24369 0.0
C41 C 0.91195 0.19705 0.24253 0.0
C42 C 0.91056 0.19863 0.22272 0.0
C43 C 0.92532 0.20784 0.21361 0.0
C44 C 0.94079 0.21541 0.22398 0.0
C45 C 0.89387 0.19056 0.21175 0.0
C46 C 0.88665 0.19928 0.19524 0.0
C47 C 0.87077 0.19179 0.18515 0.0
C48 C 0.86193 0.17549 0.19203 0.0
C49 C 0.8689 0.16651 0.20837 0.0
C50 C 0.88495 0.17403 0.21794 0.0
C51 C 0.85927 0.14946 0.2158 0.0
C52 C 0.86976 0.13431 0.22295 0.0
C53 C 0.83954 0.14848 0.21644 0.0
C54 C 0.83059 0.13291 0.22438 0.0
C55 C 0.84119 0.11805 0.23182 0.0
C56 C 0.86327 0.20092 0.16749 0.0
C57 C 0.86285 0.22062 0.16583 0.0
C58 C 0.85614 0.18993 0.15219 0.0
C59 C 0.84856 0.19836 0.1359 0.0
C60 C 0.84805 0.21799 0.1344 0.0
C61 C 0.85537 0.22905 0.14945 0.0
C62 C 0.86081 0.11878 0.23089 0.0
H63 H 0.92825 0.20285 0.26802 0.0
H64 H 0.90081 0.19049 0.25024 0.0
H65 H 0.92506 0.20908 0.19842 0.0
H66 H 0.95182 0.22261 0.21662 0.0
H67 H 0.89336 0.21196 0.19023 0.0
H68 H 0.89039 0.167 0.23042 0.0
H69 H 0.84953 0.16975 0.18467 0.0
H70 H 0.88493 0.13447 0.22243 0.0
H71 H 0.83104 0.15996 0.21127 0.0
H72 H 0.81543 0.13257 0.225 0.0
H73 H 0.86795 0.22958 0.17734 0.0
H74 H 0.8565 0.17474 0.15274 0.0
H75 H 0.86919 0.1074 0.2365 0.0
H76 H 0.85507 0.24423 0.1486 0.0
H77 H 0.84304 0.18956 0.12443 0.0
C78 C 0.78379 0.82394 0.11875 0.0
C79 C 0.77869 0.8347 0.1029 0.0
C80 C 0.79315 0.83228 0.13435 0.0
C81 C 0.79744 0.85161 0.13454 0.0
C82 C 0.79157 0.86257 0.11903 0.0
C83 C 0.7824 0.85414 0.10325 0.0
C84 C 0.80903 0.85996 0.15039 0.0
C85 C 0.82586 0.85142 0.15628 0.0
C86 C 0.83721 0.85894 0.1712 0.0
C87 C 0.83111 0.87511 0.18058 0.0
C88 C 0.81414 0.88383 0.17501 0.0
C89 C 0.80334 0.87623 0.1597 0.0
C90 C 0.80747 0.90061 0.18539 0.0
C91 C 0.80909 0.90151 0.2052 0.0
C92 C 0.79909 0.91571 0.17566 0.0
C93 C 0.79254 0.93127 0.18547 0.0
C94 C 0.79421 0.93204 0.20521 0.0
C95 C 0.85525 0.84966 0.1769 0.0
C96 C 0.86098 0.848 0.19601 0.0
C97 C 0.86661 0.84175 0.16319 0.0
C98 C 0.88282 0.83193 0.16845 0.0
C99 C 0.88821 0.82993 0.18752 0.0
C100 C 0.87732 0.83828 0.20125 0.0
C101 C 0.8025 0.91704 0.21499 0.0
H102 H 0.78112 0.80891 0.11873 0.0
H103 H 0.79735 0.82353 0.14617 0.0
H104 H 0.79478 0.87748 0.11879 0.0
H105 H 0.77873 0.86265 0.0911 0.0
H106 H 0.8301 0.83877 0.14915 0.0
H107 H 0.79014 0.88256 0.1554 0.0
H108 H 0.83979 0.88118 0.19196 0.0
H109 H 0.8152 0.89006 0.21318 0.0
H110 H 0.79777 0.9156 0.16042 0.0
H111 H 0.78625 0.94276 0.17768 0.0
H112 H 0.85257 0.85373 0.20698 0.0
H113 H 0.86294 0.84306 0.14833 0.0
H114 H 0.80389 0.91739 0.23023 0.0
H115 H 0.88124 0.83689 0.21606 0.0
H116 H 0.89106 0.82569 0.15762 0.0
C117 C 0.16327 0.81114 0.10993 0.0
C118 C 0.18274 0.80901 0.10886 0.0
C119 C 0.15595 0.82248 0.12393 0.0
C120 C 0.16796 0.83192 0.13718 0.0
C121 C 0.18748 0.82958 0.13612 0.0
C122 C 0.19479 0.81825 0.12209 0.0
C123 C 0.16013 0.84424 0.15193 0.0
C124 C 0.14377 0.83881 0.16109 0.0
C125 C 0.13607 0.85038 0.17484 0.0
C126 C 0.14507 0.8676 0.17948 0.0
C127 C 0.1615 0.87334 0.17054 0.0
C128 C 0.1689 0.86152 0.1568 0.0
C129 C 0.17085 0.89172 0.17543 0.0
C130 C 0.17228 0.89806 0.19425 0.0
C131 C 0.17848 0.90308 0.16133 0.0
C132 C 0.18734 0.92026 0.16595 0.0
C133 C 0.18868 0.92646 0.18472 0.0
C134 C 0.11863 0.84437 0.1843 0.0
C135 C 0.10377 0.8356 0.17383 0.0
C136 C 0.11692 0.84675 0.20386 0.0
C137 C 0.101 0.83991 0.21281 0.0
C138 C 0.08651 0.83067 0.20232 0.0
C139 C 0.08791 0.82879 0.18276 0.0
C140 C 0.18108 0.91528 0.19884 0.0
H141 H 0.15377 0.80416 0.09978 0.0
H142 H 0.14088 0.82413 0.12415 0.0
H143 H 0.19713 0.83639 0.14623 0.0
H144 H 0.20986 0.81674 0.12149 0.0
H145 H 0.13722 0.82528 0.15782 0.0
H146 H 0.18153 0.86582 0.14984 0.0
H147 H 0.13895 0.87678 0.18971 0.0
H148 H 0.16681 0.8896 0.2055 0.0
H149 H 0.1774 0.89882 0.14667 0.0
H150 H 0.19309 0.92878 0.15488 0.0
H151 H 0.10446 0.83381 0.15873 0.0
H152 H 0.12816 0.8533 0.21236 0.0
H153 H 0.18206 0.91986 0.21341 0.0
H154 H 0.07689 0.82163 0.17447 0.0
H155 H 0.10023 0.84129 0.22796 0.0
C156 C 0.12903 0.84114 0.82688 0.0
C157 C 0.12664 0.82152 0.82649 0.0
C158 C 0.14545 0.84946 0.83491 0.0
C159 C 0.15993 0.83835 0.84274 0.0
C160 C 0.15733 0.81866 0.84249 0.0
C161 C 0.14087 0.81037 0.83453 0.0
C162 C 0.17763 0.84724 0.85112 0.0
C163 C 0.18644 0.8397 0.86748 0.0
C164 C 0.20315 0.84775 0.87539 0.0
C165 C 0.21086 0.86375 0.86689 0.0
C166 C 0.20244 0.87164 0.85061 0.0
C167 C 0.18587 0.8632 0.84276 0.0
C168 C 0.2114 0.88846 0.84186 0.0
C169 C 0.21905 0.90312 0.85328 0.0
C170 C 0.21341 0.88955 0.82224 0.0
C171 C 0.22337 0.90458 0.81436 0.0
C172 C 0.23146 0.91883 0.82594 0.0
C173 C 0.21282 0.83944 0.89239 0.0
C174 C 0.20254 0.83253 0.90751 0.0
C175 C 0.23258 0.83857 0.89369 0.0
C176 C 0.24178 0.83112 0.90965 0.0
C177 C 0.23147 0.82422 0.92465 0.0
C178 C 0.21178 0.82497 0.92347 0.0
C179 C 0.22898 0.9181 0.84542 0.0
H180 H 0.11822 0.85003 0.8208 0.0
H181 H 0.14671 0.86463 0.83509 0.0
H182 H 0.16819 0.80958 0.84812 0.0
H183 H 0.13936 0.7952 0.83433 0.0
H184 H 0.18034 0.82746 0.87404 0.0
H185 H 0.17944 0.86908 0.83009 0.0
H186 H 0.22365 0.87008 0.87293 0.0
H187 H 0.21753 0.90293 0.8684 0.0
H188 H 0.20785 0.87846 0.81304 0.0
H189 H 0.22511 0.90491 0.79928 0.0
H190 H 0.18736 0.83315 0.90714 0.0
H191 H 0.24099 0.84343 0.88224 0.0
H192 H 0.235 0.92899 0.85458 0.0
H193 H 0.20358 0.81966 0.93488 0.0
H194 H 0.25698 0.83052 0.91023 0.0
C195 C 0.21855 0.20202 0.91315 0.0
C196 C 0.23819 0.20312 0.91535 0.0
C197 C 0.20998 0.19392 0.89692 0.0
C198 C 0.22085 0.18676 0.88243 0.0
C199 C 0.24058 0.18752 0.88493 0.0
C200 C 0.24914 0.19557 0.90122 0.0
C201 C 0.21161 0.17891 0.86471 0.0
C202 C 0.19555 0.18748 0.85653 0.0
C203 C 0.1868 0.18038 0.83981 0.0
C204 C 0.19425 0.16439 0.83136 0.0
C205 C 0.21049 0.15584 0.83885 0.0
C206 C 0.21899 0.16311 0.85565 0.0
C207 C 0.21863 0.13959 0.82872 0.0
C208 C 0.22628 0.12425 0.83862 0.0
C209 C 0.2187 0.13931 0.80887 0.0
C210 C 0.22616 0.12417 0.79921 0.0
C211 C 0.23393 0.10902 0.80915 0.0
C212 C 0.17005 0.18965 0.83081 0.0
C213 C 0.15582 0.19711 0.84174 0.0
C214 C 0.16797 0.19071 0.81103 0.0
C215 C 0.15198 0.19853 0.80243 0.0
C216 C 0.13774 0.20572 0.81336 0.0
C217 C 0.13986 0.20512 0.83309 0.0
C218 C 0.23387 0.10912 0.82892 0.0
H219 H 0.20984 0.20771 0.9239 0.0
H220 H 0.19478 0.19331 0.89573 0.0
H221 H 0.24946 0.18238 0.87406 0.0
H222 H 0.26433 0.19632 0.90261 0.0
H223 H 0.1902 0.20007 0.86288 0.0
H224 H 0.23143 0.15653 0.8616 0.0
H225 H 0.18719 0.15839 0.81891 0.0
H226 H 0.22628 0.12383 0.85386 0.0
H227 H 0.21325 0.15098 0.80073 0.0
H228 H 0.2262 0.12442 0.78396 0.0
H229 H 0.15682 0.19642 0.85697 0.0
H230 H 0.17877 0.18553 0.80211 0.0
H231 H 0.23984 0.09755 0.83684 0.0
H232 H 0.12904 0.21064 0.84178 0.0
H233 H 0.15069 0.19898 0.78719 0.0
C234 C 0.88608 0.12392 0.81651 0.0
C235 C 0.86689 0.11964 0.81378 0.0
C236 C 0.89198 0.13946 0.82746 0.0
C237 C 0.87878 0.15106 0.83587 0.0
C238 C 0.85954 0.1467 0.83302 0.0
C239 C 0.85366 0.13114 0.82207 0.0
C240 C 0.88511 0.16768 0.84745 0.0
C241 C 0.9001 0.17913 0.84168 0.0
C242 C 0.90645 0.19473 0.85251 0.0
C243 C 0.89753 0.19882 0.86931 0.0
C244 C 0.8824 0.18771 0.8753 0.0
C245 C 0.87627 0.17217 0.86426 0.0
C246 C 0.873 0.19263 0.89299 0.0
C247 C 0.88373 0.19843 0.90908 0.0
C248 C 0.85328 0.19243 0.8937 0.0
C249 C 0.84452 0.19847 0.90994 0.0
C250 C 0.85534 0.20476 0.92571 0.0
C251 C 0.92217 0.20691 0.84608 0.0
C252 C 0.9376 0.19901 0.83732 0.0
C253 C 0.92171 0.22658 0.8483 0.0
C254 C 0.93607 0.23804 0.84152 0.0
C255 C 0.95102 0.23007 0.83218 0.0
C256 C 0.95184 0.21048 0.83039 0.0
C257 C 0.87498 0.20445 0.92526 0.0
H258 H 0.89648 0.11514 0.81027 0.0
H259 H 0.9069 0.14225 0.82954 0.0
H260 H 0.849 0.15544 0.83906 0.0
H261 H 0.83879 0.12804 0.82007 0.0
H262 H 0.90649 0.17617 0.82841 0.0
H263 H 0.86491 0.16331 0.86902 0.0
H264 H 0.9023 0.2108 0.87775 0.0
H265 H 0.89893 0.19847 0.90912 0.0
H266 H 0.84462 0.18818 0.88152 0.0
H267 H 0.82932 0.19863 0.91008 0.0
H268 H 0.93864 0.18394 0.8357 0.0
H269 H 0.90997 0.23321 0.85477 0.0
H270 H 0.88353 0.20918 0.93736 0.0
H271 H 0.96333 0.2041 0.82327 0.0
H272 H 0.9352 0.25315 0.84296 0.0
C273 C 0.81994 0.8252 0.90692 0.0
C274 C 0.83223 0.81581 0.91944 0.0
C275 C 0.82691 0.83625 0.89236 0.0
C276 C 0.8464 0.83838 0.89003 0.0
C277 C 0.85867 0.82895 0.9027 0.0
C278 C 0.85167 0.81774 0.91715 0.0
C279 C 0.8538 0.85041 0.87452 0.0
C280 C 0.84456 0.86704 0.8691 0.0
C281 C 0.85112 0.87837 0.85443 0.0
C282 C 0.86735 0.87293 0.84524 0.0
C283 C 0.87709 0.85659 0.85046 0.0
C284 C 0.87009 0.84537 0.86505 0.0
C285 C 0.89446 0.85133 0.84048 0.0
C286 C 0.89803 0.83249 0.83581 0.0
C287 C 0.90749 0.86526 0.83516 0.0
C288 C 0.9234 0.86056 0.82523 0.0
C289 C 0.92676 0.84181 0.82043 0.0
C290 C 0.84095 0.89575 0.84843 0.0
C291 C 0.82116 0.89609 0.84732 0.0
C292 C 0.85098 0.91197 0.84308 0.0
C293 C 0.84155 0.92782 0.83629 0.0
C294 C 0.82186 0.92788 0.83478 0.0
C295 C 0.81173 0.91199 0.84056 0.0
C296 C 0.914 0.8278 0.82591 0.0
H297 H 0.80489 0.82386 0.90834 0.0
H298 H 0.81693 0.84293 0.88279 0.0
H299 H 0.87374 0.83039 0.90165 0.0
H300 H 0.86143 0.81064 0.92664 0.0
H301 H 0.83241 0.87144 0.87659 0.0
H302 H 0.87736 0.83267 0.86901 0.0
H303 H 0.87215 0.8812 0.83354 0.0
H304 H 0.88827 0.82139 0.83945 0.0
H305 H 0.90545 0.87987 0.83873 0.0
H306 H 0.93309 0.87159 0.82122 0.0
H307 H 0.81294 0.88384 0.8511 0.0
H308 H 0.86619 0.91241 0.84401 0.0
H309 H 0.91631 0.81323 0.82233 0.0
H310 H 0.79653 0.9117 0.83935 0.0
H311 H 0.84962 0.93993 0.83186 0.0
C312 C 0.18642 0.7242 0.58602 0.0
C313 C 0.20527 0.72555 0.5811 0.0
C314 C 0.1817 0.71694 0.60355 0.0
C315 C 0.19574 0.71098 0.61659 0.0
C316 C 0.21464 0.71244 0.61158 0.0
C317 C 0.21933 0.71966 0.59402 0.0
C318 C 0.19063 0.70347 0.63539 0.0
C319 C 0.19992 0.68797 0.64339 0.0
C320 C 0.19495 0.68068 0.661 0.0
C321 C 0.18035 0.68933 0.67066 0.0
C322 C 0.1708 0.70486 0.66284 0.0
C323 C 0.17628 0.71185 0.64534 0.0
C324 C 0.15502 0.71403 0.6726 0.0
C325 C 0.13936 0.72067 0.66204 0.0
C326 C 0.15578 0.71711 0.69222 0.0
C327 C 0.14156 0.72706 0.7009 0.0
C328 C 0.12634 0.73419 0.69013 0.0
C329 C 0.20501 0.66399 0.66904 0.0
C330 C 0.21033 0.64917 0.65723 0.0
C331 C 0.20989 0.6629 0.68842 0.0
C332 C 0.22009 0.64764 0.69566 0.0
C333 C 0.22564 0.63312 0.68371 0.0
C334 C 0.22053 0.63398 0.66446 0.0
C335 C 0.12529 0.7307 0.67067 0.0
H336 H 0.17536 0.72864 0.57622 0.0
H337 H 0.16699 0.71581 0.60679 0.0
H338 H 0.22583 0.70826 0.62132 0.0
H339 H 0.23398 0.72066 0.59049 0.0
H340 H 0.21109 0.68154 0.63582 0.0
H341 H 0.16959 0.72421 0.63956 0.0
H342 H 0.17606 0.68363 0.68397 0.0
H343 H 0.13801 0.71823 0.64698 0.0
H344 H 0.16763 0.71233 0.7008 0.0
H345 H 0.1426 0.72953 0.71597 0.0
H346 H 0.20656 0.64925 0.64232 0.0
H347 H 0.20623 0.67406 0.69795 0.0
H348 H 0.11362 0.7359 0.6621 0.0
H349 H 0.22455 0.6229 0.65499 0.0
H350 H 0.22386 0.64726 0.71057 0.0
C351 C 0.92415 0.73648 0.70985 0.0
C352 C 0.93754 0.72532 0.7194 0.0
C353 C 0.90841 0.72819 0.70037 0.0
C354 C 0.90584 0.70853 0.70011 0.0
C355 C 0.91985 0.69746 0.70892 0.0
C356 C 0.93532 0.70574 0.7186 0.0
C357 C 0.88819 0.6994 0.692 0.0
C358 C 0.87897 0.70578 0.67531 0.0
C359 C 0.86262 0.69643 0.66784 0.0
C360 C 0.85566 0.68058 0.67735 0.0
C361 C 0.86455 0.67414 0.69405 0.0
C362 C 0.88049 0.68389 0.70133 0.0
C363 C 0.85742 0.65723 0.70409 0.0
C364 C 0.83804 0.6538 0.70577 0.0
C365 C 0.87014 0.64467 0.7127 0.0
C366 C 0.86372 0.62955 0.72329 0.0
C367 C 0.84443 0.62644 0.7253 0.0
C368 C 0.85267 0.70297 0.65013 0.0
C369 C 0.84982 0.72222 0.64679 0.0
C370 C 0.84523 0.6899 0.63673 0.0
C371 C 0.83504 0.69587 0.62064 0.0
C372 C 0.83206 0.71505 0.61751 0.0
C373 C 0.83959 0.72817 0.63068 0.0
C374 C 0.83161 0.63848 0.7162 0.0
H375 H 0.92561 0.75165 0.71021 0.0
H376 H 0.89796 0.73719 0.69385 0.0
H377 H 0.91872 0.68228 0.70863 0.0
H378 H 0.9455 0.69682 0.7257 0.0
H379 H 0.88476 0.71766 0.66788 0.0
H380 H 0.88681 0.67952 0.71468 0.0
H381 H 0.84323 0.67322 0.67177 0.0
H382 H 0.82783 0.66322 0.69948 0.0
H383 H 0.88514 0.64656 0.71137 0.0
H384 H 0.87383 0.62033 0.73007 0.0
H385 H 0.85514 0.73267 0.65684 0.0
H386 H 0.84734 0.675 0.63863 0.0
H387 H 0.81664 0.63626 0.71756 0.0
H388 H 0.83748 0.74305 0.62851 0.0
H389 H 0.82947 0.68552 0.61061 0.0
C390 C 0.83138 0.32629 0.63623 0.0
C391 C 0.82367 0.33773 0.62203 0.0
C392 C 0.83972 0.3343 0.65254 0.0
C393 C 0.84059 0.35395 0.6549 0.0
C394 C 0.83241 0.36534 0.64078 0.0
C395 C 0.82402 0.35729 0.62448 0.0
C396 C 0.85069 0.36251 0.67164 0.0
C397 C 0.86787 0.35519 0.67822 0.0
C398 C 0.87788 0.36323 0.69375 0.0
C399 C 0.87037 0.3789 0.70285 0.0
C400 C 0.85317 0.38661 0.69637 0.0
C401 C 0.84344 0.37817 0.68083 0.0
C402 C 0.84532 0.40355 0.70557 0.0
C403 C 0.84648 0.40586 0.72529 0.0
C404 C 0.83625 0.41746 0.69465 0.0
C405 C 0.82845 0.43311 0.70319 0.0
C406 C 0.82967 0.43533 0.72282 0.0
C407 C 0.89618 0.35505 0.70014 0.0
C408 C 0.9004 0.35183 0.71936 0.0
C409 C 0.90912 0.34934 0.68682 0.0
C410 C 0.9255 0.34006 0.69249 0.0
C411 C 0.92937 0.33633 0.71158 0.0
C412 C 0.91685 0.34251 0.72503 0.0
C413 C 0.83873 0.42159 0.73381 0.0
H414 H 0.83117 0.31115 0.63454 0.0
H415 H 0.8456 0.32511 0.66326 0.0
H416 H 0.83301 0.3805 0.64205 0.0
H417 H 0.81818 0.3663 0.61358 0.0
H418 H 0.87356 0.34316 0.67114 0.0
H419 H 0.82996 0.38356 0.67605 0.0
H420 H 0.8782 0.38541 0.71458 0.0
H421 H 0.85311 0.39538 0.73417 0.0
H422 H 0.83534 0.41636 0.67943 0.0
H423 H 0.82157 0.44359 0.69447 0.0
H424 H 0.89069 0.35594 0.72995 0.0
H425 H 0.90647 0.35187 0.67194 0.0
H426 H 0.83979 0.42306 0.749 0.0
H427 H 0.91965 0.33978 0.73986 0.0
H428 H 0.93505 0.33551 0.68192 0.0
C429 C 0.19516 0.32592 0.63 0.0
C430 C 0.21441 0.32491 0.62672 0.0
C431 C 0.18878 0.33689 0.64479 0.0
C432 C 0.20152 0.34701 0.65684 0.0
C433 C 0.22081 0.34617 0.6533 0.0
C434 C 0.22717 0.33529 0.63838 0.0
C435 C 0.19466 0.35794 0.67324 0.0
C436 C 0.17955 0.35093 0.68356 0.0
C437 C 0.17261 0.36113 0.69872 0.0
C438 C 0.18113 0.37839 0.70381 0.0
C439 C 0.19622 0.38576 0.69387 0.0
C440 C 0.20297 0.37541 0.67861 0.0
C441 C 0.20473 0.40429 0.6997 0.0
C442 C 0.19323 0.41906 0.70534 0.0
C443 C 0.22434 0.4071 0.70059 0.0
C444 C 0.23222 0.42411 0.70734 0.0
C445 C 0.22066 0.43863 0.71325 0.0
C446 C 0.15617 0.35405 0.70909 0.0
C447 C 0.15466 0.33505 0.71425 0.0
C448 C 0.14174 0.36632 0.71375 0.0
C449 C 0.12602 0.35969 0.72305 0.0
C450 C 0.12445 0.3407 0.72792 0.0
C451 C 0.13895 0.32845 0.72363 0.0
C452 C 0.20112 0.43601 0.71211 0.0
H453 H 0.18506 0.31811 0.62113 0.0
H454 H 0.1738 0.33745 0.64675 0.0
H455 H 0.23108 0.35357 0.66232 0.0
H456 H 0.2421 0.33469 0.63611 0.0
H457 H 0.17306 0.33752 0.67974 0.0
H458 H 0.21431 0.38121 0.67062 0.0
H459 H 0.17617 0.38596 0.71587 0.0
H460 H 0.17808 0.41751 0.70457 0.0
H461 H 0.2336 0.39599 0.69656 0.0
H462 H 0.24736 0.42591 0.70812 0.0
H463 H 0.16562 0.3253 0.71107 0.0
H464 H 0.14237 0.38098 0.70979 0.0
H465 H 0.19198 0.44708 0.71652 0.0
H466 H 0.1379 0.31371 0.72723 0.0
H467 H 0.11487 0.36929 0.72608 0.0
C468 C 0.13545 0.322 0.36312 0.0
C469 C 0.13171 0.31866 0.34385 0.0
C470 C 0.15213 0.33118 0.36933 0.0
C471 C 0.16546 0.33728 0.3564 0.0
C472 C 0.16149 0.3341 0.33706 0.0
C473 C 0.14481 0.3249 0.33087 0.0
C474 C 0.18365 0.34637 0.36312 0.0
C475 C 0.19324 0.33963 0.37933 0.0
C476 C 0.21042 0.34776 0.38586 0.0
C477 C 0.2182 0.3627 0.37569 0.0
C478 C 0.20893 0.3699 0.35945 0.0
C479 C 0.19158 0.36159 0.35335 0.0
C480 C 0.21741 0.38611 0.34904 0.0
C481 C 0.22829 0.40011 0.35871 0.0
C482 C 0.2149 0.38771 0.32933 0.0
C483 C 0.22271 0.40293 0.3197 0.0
C484 C 0.23349 0.41679 0.32946 0.0
C485 C 0.2202 0.34063 0.40333 0.0
C486 C 0.20982 0.33511 0.41893 0.0
C487 C 0.23992 0.33912 0.40457 0.0
C488 C 0.24893 0.33193 0.42081 0.0
C489 C 0.2384 0.326 0.43605 0.0
C490 C 0.21883 0.3278 0.43506 0.0
C491 C 0.23645 0.41506 0.34901 0.0
H492 H 0.12546 0.31744 0.37336 0.0
H493 H 0.15452 0.3336 0.3843 0.0
H494 H 0.17146 0.33838 0.32669 0.0
H495 H 0.14218 0.3225 0.31592 0.0
H496 H 0.18755 0.32762 0.38664 0.0
H497 H 0.18395 0.36725 0.34125 0.0
H498 H 0.23155 0.36875 0.38053 0.0
H499 H 0.23032 0.39978 0.37388 0.0
H500 H 0.20703 0.37714 0.32122 0.0
H501 H 0.2203 0.40391 0.30459 0.0
H502 H 0.19469 0.33639 0.41868 0.0
H503 H 0.24838 0.34299 0.39281 0.0
H504 H 0.24469 0.42559 0.35684 0.0
H505 H 0.21048 0.32325 0.44669 0.0
H506 H 0.26404 0.33045 0.42127 0.0
C507 C 0.18553 0.69629 0.37573 0.0
C508 C 0.20516 0.69777 0.37778 0.0
C509 C 0.17699 0.68946 0.35889 0.0
C510 C 0.18794 0.68409 0.3437 0.0
C511 C 0.20765 0.6857 0.3459 0.0
C512 C 0.21614 0.69239 0.36277 0.0
C513 C 0.179 0.67686 0.3256 0.0
C514 C 0.16215 0.68446 0.31816 0.0
C515 C 0.15394 0.67781 0.30098 0.0
C516 C 0.16307 0.6637 0.29104 0.0
C517 C 0.17965 0.65559 0.29831 0.0
C518 C 0.18739 0.66222 0.31568 0.0
C519 C 0.18859 0.63988 0.28801 0.0
C520 C 0.1775 0.62641 0.27787 0.0
C521 C 0.20825 0.63791 0.28857 0.0
C522 C 0.21649 0.62254 0.27996 0.0
C523 C 0.2053 0.60892 0.27036 0.0
C524 C 0.13572 0.68529 0.29334 0.0
C525 C 0.13162 0.70453 0.29457 0.0
C526 C 0.12229 0.6731 0.28448 0.0
C527 C 0.10542 0.67997 0.2768 0.0
C528 C 0.1015 0.69915 0.27794 0.0
C529 C 0.11464 0.71138 0.28697 0.0
C530 C 0.18578 0.61123 0.26898 0.0
H531 H 0.17682 0.70042 0.38718 0.0
H532 H 0.16183 0.6882 0.35787 0.0
H533 H 0.21657 0.68206 0.33448 0.0
H534 H 0.23131 0.6936 0.36403 0.0
H535 H 0.15539 0.69552 0.32575 0.0
H536 H 0.19977 0.65564 0.32178 0.0
H537 H 0.15731 0.65919 0.27741 0.0
H538 H 0.16233 0.62719 0.27727 0.0
H539 H 0.21734 0.64817 0.2958 0.0
H540 H 0.23159 0.62105 0.28111 0.0
H541 H 0.14166 0.71436 0.30109 0.0
H542 H 0.12474 0.65816 0.28358 0.0
H543 H 0.17691 0.60085 0.26166 0.0
H544 H 0.11181 0.72625 0.28796 0.0
H545 H 0.09538 0.67031 0.27001 0.0
C546 C 0.85112 0.61262 0.33335 0.0
C547 C 0.83195 0.61075 0.32811 0.0
C548 C 0.85869 0.63002 0.33944 0.0
C549 C 0.84714 0.64574 0.34084 0.0
C550 C 0.82804 0.64393 0.33544 0.0
C551 C 0.82058 0.62668 0.32889 0.0
C552 C 0.85493 0.66397 0.34811 0.0
C553 C 0.86909 0.67345 0.33844 0.0
C554 C 0.87618 0.69099 0.3449 0.0
C555 C 0.86944 0.69854 0.36161 0.0
C556 C 0.85552 0.68919 0.37168 0.0
C557 C 0.84807 0.672 0.36461 0.0
C558 C 0.84889 0.69773 0.38942 0.0
C559 C 0.86184 0.70641 0.40231 0.0
C560 C 0.82964 0.6982 0.39319 0.0
C561 C 0.82351 0.70764 0.40915 0.0
C562 C 0.8365 0.71674 0.42161 0.0
C563 C 0.89023 0.70184 0.33412 0.0
C564 C 0.90547 0.69291 0.32601 0.0
C565 C 0.88854 0.72142 0.33203 0.0
C566 C 0.90172 0.73179 0.32216 0.0
C567 C 0.91685 0.72284 0.31411 0.0
C568 C 0.91868 0.70334 0.3161 0.0
C569 C 0.8557 0.71584 0.41819 0.0
H570 H 0.86016 0.60055 0.33298 0.0
H571 H 0.87347 0.6311 0.34352 0.0
H572 H 0.81889 0.65589 0.33628 0.0
H573 H 0.80577 0.62561 0.32492 0.0
H574 H 0.87406 0.66746 0.32552 0.0
H575 H 0.8373 0.66461 0.37217 0.0
H576 H 0.875 0.71194 0.36676 0.0
H577 H 0.87677 0.70604 0.40005 0.0
H578 H 0.8193 0.69179 0.38351 0.0
H579 H 0.80861 0.70816 0.4116 0.0
H580 H 0.90729 0.67791 0.32749 0.0
H581 H 0.87682 0.72872 0.33779 0.0
H582 H 0.86594 0.72266 0.42771 0.0
H583 H 0.93025 0.6962 0.30985 0.0
H584 H 0.89998 0.7468 0.32056 0.0
C585 C 0.81272 0.30502 0.43329 0.0
C586 C 0.82504 0.29617 0.44621 0.0
C587 C 0.81972 0.31614 0.41876 0.0
C588 C 0.83923 0.31892 0.4169 0.0
C589 C 0.85148 0.31019 0.43009 0.0
C590 C 0.84447 0.29896 0.44451 0.0
C591 C 0.84675 0.33095 0.40142 0.0
C592 C 0.83719 0.34725 0.39554 0.0
C593 C 0.84391 0.35865 0.381 0.0
C594 C 0.86064 0.35368 0.37247 0.0
C595 C 0.87067 0.33765 0.37808 0.0
C596 C 0.8635 0.3263 0.39249 0.0
C597 C 0.88854 0.33297 0.36865 0.0
C598 C 0.89281 0.3143 0.36395 0.0
C599 C 0.9012 0.34735 0.36358 0.0
C600 C 0.91729 0.3433 0.35366 0.0
C601 C 0.92129 0.32474 0.34867 0.0
C602 C 0.83357 0.37576 0.3746 0.0
C603 C 0.83206 0.38032 0.35531 0.0
C604 C 0.82543 0.38787 0.38763 0.0
C605 C 0.81617 0.40412 0.38154 0.0
C606 C 0.81491 0.40864 0.36231 0.0
C607 C 0.82289 0.39658 0.34926 0.0
C608 C 0.90902 0.31024 0.3541 0.0
H609 H 0.79769 0.30308 0.43429 0.0
H610 H 0.80977 0.32233 0.4088 0.0
H611 H 0.86653 0.3122 0.42946 0.0
H612 H 0.85426 0.29237 0.45436 0.0
H613 H 0.82441 0.35111 0.40226 0.0
H614 H 0.87101 0.31384 0.39676 0.0
H615 H 0.86591 0.36241 0.36132 0.0
H616 H 0.88339 0.30286 0.36743 0.0
H617 H 0.89868 0.36185 0.36724 0.0
H618 H 0.9266 0.3547 0.34976 0.0
H619 H 0.83784 0.37122 0.34481 0.0
H620 H 0.82647 0.38497 0.40258 0.0
H621 H 0.91184 0.29581 0.35043 0.0
H622 H 0.82196 0.39974 0.33435 0.0
H623 H 0.81008 0.41324 0.39183 0.0
C624 C 0.73207 0.18703 0.62758 0.0
C625 C 0.72917 0.20593 0.62207 0.0
C626 C 0.72586 0.18004 0.64476 0.0
C627 C 0.71752 0.19185 0.65784 0.0
C628 C 0.71687 0.2111 0.65368 0.0
C629 C 0.72307 0.21804 0.63646 0.0
C630 C 0.70952 0.18415 0.67559 0.0
C631 C 0.71818 0.16913 0.68539 0.0
C632 C 0.71 0.16092 0.7013 0.0
C633 C 0.69291 0.16816 0.70725 0.0
C634 C 0.68437 0.18352 0.69829 0.0
C635 C 0.69275 0.19143 0.68248 0.0
C636 C 0.66682 0.19124 0.70597 0.0
C637 C 0.65246 0.17903 0.71189 0.0
C638 C 0.66498 0.21066 0.709 0.0
C639 C 0.6496 0.21758 0.71851 0.0
C640 C 0.63575 0.20522 0.72506 0.0
C641 C 0.71878 0.14461 0.71164 0.0
C642 C 0.72983 0.13148 0.70232 0.0
C643 C 0.71547 0.14149 0.73089 0.0
C644 C 0.72182 0.1253 0.74006 0.0
C645 C 0.73251 0.11213 0.73061 0.0
C646 C 0.73685 0.11565 0.71177 0.0
C647 C 0.63712 0.18595 0.72135 0.0
H648 H 0.73939 0.17729 0.61894 0.0
H649 H 0.72741 0.16521 0.64762 0.0
H650 H 0.71179 0.22096 0.66389 0.0
H651 H 0.72329 0.2331 0.63493 0.0
H652 H 0.73148 0.16409 0.68074 0.0
H653 H 0.68582 0.20287 0.67519 0.0
H654 H 0.68605 0.16188 0.71906 0.0
H655 H 0.65329 0.16403 0.70955 0.0
H656 H 0.67583 0.22042 0.70475 0.0
H657 H 0.64876 0.23252 0.72122 0.0
H658 H 0.73266 0.133 0.68754 0.0
H659 H 0.70781 0.15145 0.73904 0.0
H660 H 0.62653 0.1762 0.72619 0.0
H661 H 0.74514 0.10576 0.70414 0.0
H662 H 0.71834 0.12305 0.75461 0.0
C663 C 0.43514 0.24142 0.70818 0.0
C664 C 0.45003 0.23152 0.71666 0.0
C665 C 0.41963 0.23179 0.69996 0.0
C666 C 0.41879 0.21198 0.69965 0.0
C667 C 0.434 0.20212 0.70781 0.0
C668 C 0.44941 0.2118 0.71629 0.0
C669 C 0.4021 0.20178 0.69087 0.0
C670 C 0.39268 0.20924 0.67492 0.0
C671 C 0.37638 0.20059 0.66696 0.0
C672 C 0.36981 0.18366 0.67476 0.0
C673 C 0.37917 0.1756 0.69054 0.0
C674 C 0.39522 0.18489 0.69853 0.0
C675 C 0.37206 0.15768 0.69893 0.0
C676 C 0.38465 0.14384 0.70535 0.0
C677 C 0.35267 0.15431 0.70077 0.0
C678 C 0.3461 0.13764 0.7089 0.0
C679 C 0.35875 0.12396 0.71532 0.0
C680 C 0.36616 0.20968 0.65077 0.0
C681 C 0.36386 0.2293 0.65058 0.0
C682 C 0.35881 0.19904 0.63536 0.0
C683 C 0.34946 0.20784 0.62017 0.0
C684 C 0.34722 0.22741 0.62013 0.0
C685 C 0.35452 0.23806 0.63544 0.0
C686 C 0.37807 0.12717 0.71343 0.0
H687 H 0.43532 0.25664 0.70839 0.0
H688 H 0.40812 0.23995 0.69419 0.0
H689 H 0.43409 0.18692 0.7076 0.0
H690 H 0.46079 0.20389 0.72272 0.0
H691 H 0.39819 0.22183 0.66846 0.0
H692 H 0.40202 0.17924 0.71112 0.0
H693 H 0.35733 0.17682 0.66861 0.0
H694 H 0.39964 0.14581 0.70398 0.0
H695 H 0.34256 0.16469 0.69623 0.0
H696 H 0.33114 0.13544 0.71027 0.0
H697 H 0.36907 0.23792 0.66232 0.0
H698 H 0.36047 0.18396 0.63496 0.0
H699 H 0.38805 0.11677 0.71825 0.0
H700 H 0.35274 0.25313 0.63576 0.0
H701 H 0.34382 0.19939 0.6085 0.0
C702 C 0.30587 0.83234 0.60162 0.0
C703 C 0.31835 0.82465 0.58891 0.0
C704 C 0.31273 0.84216 0.61769 0.0
C705 C 0.3322 0.8445 0.62126 0.0
C706 C 0.34455 0.83742 0.60801 0.0
C707 C 0.3377 0.82753 0.59211 0.0
C708 C 0.33988 0.85315 0.63919 0.0
C709 C 0.35546 0.84502 0.64847 0.0
C710 C 0.36367 0.8529 0.665 0.0
C711 C 0.35563 0.86899 0.6727 0.0
C712 C 0.33964 0.87723 0.664 0.0
C713 C 0.33192 0.8692 0.64715 0.0
C714 C 0.3313 0.89433 0.67249 0.0
C715 C 0.33026 0.8961 0.69218 0.0
C716 C 0.32477 0.90921 0.66112 0.0
C717 C 0.31785 0.92558 0.66927 0.0
C718 C 0.31737 0.92741 0.68894 0.0
C719 C 0.38064 0.84411 0.67398 0.0
C720 C 0.3828 0.84247 0.6937 0.0
C721 C 0.39451 0.83649 0.6627 0.0
C722 C 0.40965 0.82682 0.67081 0.0
C723 C 0.41146 0.82475 0.69041 0.0
C724 C 0.39812 0.83293 0.70184 0.0
C725 C 0.3234 0.91244 0.70029 0.0
H726 H 0.29085 0.83033 0.59933 0.0
H727 H 0.30284 0.84732 0.62762 0.0
H728 H 0.3596 0.8393 0.61007 0.0
H729 H 0.34755 0.82185 0.5824 0.0
H730 H 0.36106 0.83216 0.64291 0.0
H731 H 0.31975 0.87542 0.64022 0.0
H732 H 0.36212 0.8754 0.68523 0.0
H733 H 0.33481 0.88484 0.70139 0.0
H734 H 0.32549 0.90846 0.64593 0.0
H735 H 0.31325 0.93698 0.66026 0.0
H736 H 0.37237 0.84804 0.70282 0.0
H737 H 0.39361 0.83785 0.64752 0.0
H738 H 0.32305 0.91353 0.7155 0.0
H739 H 0.39934 0.83154 0.71701 0.0
H740 H 0.41988 0.82076 0.66176 0.0
C741 C 0.69459 0.8251 0.625 0.0
C742 C 0.71432 0.82623 0.62496 0.0
C743 C 0.68491 0.83214 0.64032 0.0
C744 C 0.69484 0.84031 0.65587 0.0
C745 C 0.71463 0.84043 0.6561 0.0
C746 C 0.72422 0.83364 0.64078 0.0
C747 C 0.68498 0.85009 0.6712 0.0
C748 C 0.66875 0.84251 0.67926 0.0
C749 C 0.6604 0.85172 0.69445 0.0
C750 C 0.66851 0.86873 0.70138 0.0
C751 C 0.6843 0.87671 0.69301 0.0
C752 C 0.69228 0.86734 0.67798 0.0
C753 C 0.69322 0.89455 0.69998 0.0
C754 C 0.6983 0.90849 0.68706 0.0
C755 C 0.69874 0.89682 0.71907 0.0
C756 C 0.71 0.91226 0.72492 0.0
C757 C 0.71574 0.92565 0.71176 0.0
C758 C 0.64337 0.84353 0.7032 0.0
C759 C 0.62834 0.83612 0.69191 0.0
C760 C 0.64199 0.84306 0.72293 0.0
C761 C 0.62616 0.83508 0.73115 0.0
C762 C 0.61127 0.82757 0.71983 0.0
C763 C 0.61243 0.82833 0.70014 0.0
C764 C 0.70945 0.9239 0.6929 0.0
H765 H 0.68671 0.81928 0.61295 0.0
H766 H 0.6697 0.83186 0.63967 0.0
H767 H 0.72276 0.84618 0.66803 0.0
H768 H 0.73943 0.83445 0.64115 0.0
H769 H 0.66302 0.82916 0.67416 0.0
H770 H 0.70452 0.8735 0.67164 0.0
H771 H 0.66226 0.87602 0.71296 0.0
H772 H 0.69413 0.90715 0.67228 0.0
H773 H 0.69516 0.88621 0.72927 0.0
H774 H 0.71472 0.91346 0.73955 0.0
H775 H 0.62884 0.83645 0.67669 0.0
H776 H 0.65336 0.84849 0.73205 0.0
H777 H 0.71367 0.93416 0.6826 0.0
H778 H 0.60112 0.82259 0.69113 0.0
H779 H 0.62564 0.83453 0.74636 0.0
C780 C 0.61538 0.8468 0.33324 0.0
C781 C 0.61036 0.82793 0.32983 0.0
C782 C 0.63211 0.8515 0.34324 0.0
C783 C 0.64438 0.83744 0.34987 0.0
C784 C 0.63928 0.81852 0.34634 0.0
C785 C 0.62244 0.81383 0.33645 0.0
C786 C 0.66255 0.84261 0.36002 0.0
C787 C 0.66949 0.83208 0.37549 0.0
C788 C 0.68649 0.83723 0.38519 0.0
C789 C 0.69644 0.85328 0.37915 0.0
C790 C 0.6899 0.86382 0.3636 0.0
C791 C 0.67302 0.8583 0.35416 0.0
C792 C 0.70046 0.88078 0.35721 0.0
C793 C 0.70797 0.89407 0.3703 0.0
C794 C 0.70255 0.88415 0.33786 0.0
C795 C 0.71157 0.9005 0.33176 0.0
C796 C 0.7187 0.91385 0.34484 0.0
C797 C 0.69387 0.82603 0.40164 0.0
C798 C 0.68168 0.81817 0.4148 0.0
C799 C 0.71333 0.82342 0.40457 0.0
C800 C 0.7204 0.81383 0.42041 0.0
C801 C 0.70824 0.80646 0.43371 0.0
C802 C 0.68878 0.80842 0.4306 0.0
C803 C 0.71697 0.91046 0.36416 0.0
H804 H 0.60622 0.85789 0.32831 0.0
H805 H 0.63534 0.8662 0.34592 0.0
H806 H 0.64843 0.80731 0.35095 0.0
H807 H 0.61883 0.79917 0.33393 0.0
H808 H 0.66162 0.81988 0.38001 0.0
H809 H 0.66795 0.86638 0.34218 0.0
H810 H 0.70936 0.85764 0.38657 0.0
H811 H 0.70646 0.89203 0.38527 0.0
H812 H 0.69718 0.87411 0.32741 0.0
H813 H 0.71284 0.90285 0.31679 0.0
H814 H 0.66665 0.81998 0.41321 0.0
H815 H 0.72319 0.82882 0.39461 0.0
H816 H 0.72238 0.92063 0.37446 0.0
H817 H 0.67913 0.80282 0.44067 0.0
H818 H 0.73545 0.81236 0.42244 0.0
C819 C 0.69195 0.21369 0.40948 0.0
C820 C 0.71155 0.21277 0.41172 0.0
C821 C 0.6826 0.20561 0.39372 0.0
C822 C 0.69267 0.19666 0.37963 0.0
C823 C 0.71233 0.19547 0.38212 0.0
C824 C 0.72165 0.20332 0.39807 0.0
C825 C 0.68273 0.18929 0.36214 0.0
C826 C 0.66767 0.19922 0.35391 0.0
C827 C 0.65828 0.19293 0.33722 0.0
C828 C 0.66417 0.17616 0.32874 0.0
C829 C 0.6792 0.16585 0.33676 0.0
C830 C 0.68835 0.17263 0.35344 0.0
C831 C 0.68576 0.14821 0.3277 0.0
C832 C 0.69145 0.13283 0.33882 0.0
C833 C 0.68731 0.14689 0.30801 0.0
C834 C 0.69502 0.13094 0.2998 0.0
C835 C 0.70138 0.11601 0.31109 0.0
C836 C 0.64237 0.20405 0.32893 0.0
C837 C 0.64294 0.22385 0.32968 0.0
C838 C 0.62621 0.1951 0.32085 0.0
C839 C 0.61106 0.20566 0.31386 0.0
C840 C 0.61168 0.22537 0.31488 0.0
C841 C 0.62772 0.23436 0.32292 0.0
C842 C 0.6992 0.11696 0.33062 0.0
H843 H 0.68388 0.22076 0.41994 0.0
H844 H 0.66745 0.20644 0.3926 0.0
H845 H 0.72061 0.18891 0.37152 0.0
H846 H 0.73679 0.2024 0.39959 0.0
H847 H 0.66325 0.21205 0.36053 0.0
H848 H 0.7 0.16493 0.35965 0.0
H849 H 0.65711 0.17115 0.31587 0.0
H850 H 0.69014 0.13315 0.35396 0.0
H851 H 0.68321 0.15846 0.299 0.0
H852 H 0.69659 0.13048 0.28469 0.0
H853 H 0.65523 0.23133 0.33541 0.0
H854 H 0.62511 0.17992 0.32023 0.0
H855 H 0.70392 0.10558 0.33958 0.0
H856 H 0.62855 0.24955 0.32373 0.0
H857 H 0.5988 0.19845 0.30768 0.0
C858 C 0.33616 0.12809 0.30747 0.0
C859 C 0.31668 0.12838 0.30405 0.0
C860 C 0.34497 0.14127 0.31956 0.0
C861 C 0.33452 0.15524 0.32832 0.0
C862 C 0.31491 0.1553 0.32511 0.0
C863 C 0.30606 0.14194 0.31309 0.0
C864 C 0.34434 0.16998 0.34016 0.0
C865 C 0.36159 0.17744 0.33458 0.0
C866 C 0.37173 0.19074 0.34566 0.0
C867 C 0.36423 0.19695 0.36263 0.0
C868 C 0.34674 0.18988 0.36834 0.0
C869 C 0.33686 0.1765 0.35699 0.0
C870 C 0.33882 0.19597 0.38638 0.0
C871 C 0.34817 0.19204 0.40363 0.0
C872 C 0.32133 0.2048 0.38647 0.0
C873 C 0.31335 0.20967 0.40351 0.0
C874 C 0.32246 0.20534 0.42082 0.0
C875 C 0.38994 0.19803 0.33883 0.0
C876 C 0.40293 0.18544 0.3316 0.0
C877 C 0.3935 0.21744 0.33732 0.0
C878 C 0.40917 0.22406 0.32778 0.0
C879 C 0.42152 0.21137 0.31973 0.0
C880 C 0.41854 0.19205 0.32213 0.0
C881 C 0.33996 0.19647 0.4207 0.0
H882 H 0.34456 0.11763 0.30074 0.0
H883 H 0.36003 0.14052 0.32202 0.0
H884 H 0.30646 0.16592 0.3315 0.0
H885 H 0.29097 0.1423 0.31065 0.0
H886 H 0.36707 0.17311 0.32123 0.0
H887 H 0.32363 0.17076 0.3616 0.0
H888 H 0.37194 0.20719 0.37135 0.0
H889 H 0.36158 0.18508 0.40391 0.0
H890 H 0.31385 0.20791 0.37332 0.0
H891 H 0.2999 0.21655 0.40323 0.0
H892 H 0.40064 0.17041 0.3327 0.0
H893 H 0.38367 0.22744 0.34261 0.0
H894 H 0.34724 0.19296 0.43385 0.0
H895 H 0.42796 0.18205 0.31611 0.0
H896 H 0.4113 0.23905 0.32608 0.0
C897 C 0.28697 0.84288 0.38334 0.0
C898 C 0.29688 0.83742 0.39982 0.0
C899 C 0.29636 0.85193 0.36885 0.0
C900 C 0.31585 0.85557 0.37056 0.0
C901 C 0.32555 0.85058 0.38738 0.0
C902 C 0.31615 0.84161 0.40185 0.0
C903 C 0.32617 0.86392 0.35464 0.0
C904 C 0.31858 0.87884 0.34417 0.0
C905 C 0.32816 0.88673 0.32905 0.0
C906 C 0.34578 0.87947 0.3245 0.0
C907 C 0.35364 0.86436 0.33477 0.0
C908 C 0.34359 0.85674 0.34974 0.0
C909 C 0.37205 0.85597 0.32991 0.0
C910 C 0.37678 0.85309 0.31104 0.0
C911 C 0.38459 0.84967 0.34428 0.0
C912 C 0.40093 0.84014 0.33995 0.0
C913 C 0.40531 0.8368 0.32115 0.0
C914 C 0.3195 0.90264 0.31835 0.0
C915 C 0.30022 0.90203 0.31316 0.0
C916 C 0.32996 0.91899 0.31433 0.0
C917 C 0.32118 0.93457 0.30596 0.0
C918 C 0.30183 0.93398 0.30129 0.0
C919 C 0.29151 0.91749 0.3047 0.0
C920 C 0.39325 0.84363 0.30671 0.0
H921 H 0.27212 0.83959 0.38147 0.0
H922 H 0.28849 0.85544 0.35605 0.0
H923 H 0.34048 0.85342 0.38927 0.0
H924 H 0.32403 0.83741 0.41444 0.0
H925 H 0.3053 0.88464 0.3481 0.0
H926 H 0.34909 0.84473 0.35732 0.0
H927 H 0.35329 0.88553 0.31295 0.0
H928 H 0.36746 0.85758 0.2996 0.0
H929 H 0.38169 0.85192 0.35896 0.0
H930 H 0.41008 0.83515 0.35132 0.0
H931 H 0.29179 0.8896 0.31586 0.0
H932 H 0.34478 0.91999 0.31827 0.0
H933 H 0.39638 0.84125 0.29209 0.0
H934 H 0.2766 0.91674 0.30116 0.0
H935 H 0.32938 0.94719 0.30345 0.0
C936 C 0.71375 0.68494 0.131 0.0
C937 C 0.71499 0.7041 0.12661 0.0
C938 C 0.70498 0.67896 0.14733 0.0
C939 C 0.6973 0.692 0.15979 0.0
C940 C 0.69852 0.71123 0.15524 0.0
C941 C 0.70724 0.7172 0.13882 0.0
C942 C 0.68829 0.6855 0.17749 0.0
C943 C 0.69578 0.6702 0.18774 0.0
C944 C 0.68731 0.66355 0.20407 0.0
C945 C 0.67133 0.67262 0.21032 0.0
C946 C 0.66335 0.68773 0.2004 0.0
C947 C 0.67204 0.69422 0.18406 0.0
C948 C 0.64586 0.69629 0.20742 0.0
C949 C 0.63158 0.6847 0.21456 0.0
C950 C 0.64374 0.7159 0.20831 0.0
C951 C 0.62813 0.72365 0.21684 0.0
C952 C 0.61436 0.71195 0.22462 0.0
C953 C 0.69476 0.64698 0.21467 0.0
C954 C 0.71421 0.64445 0.21771 0.0
C955 C 0.68229 0.63374 0.22231 0.0
C956 C 0.689 0.61868 0.23303 0.0
C957 C 0.70834 0.61637 0.23622 0.0
C958 C 0.72093 0.62926 0.22837 0.0
C959 C 0.6161 0.69242 0.22311 0.0
H960 H 0.71949 0.67458 0.1217 0.0
H961 H 0.70404 0.66403 0.15004 0.0
H962 H 0.69299 0.72174 0.1645 0.0
H963 H 0.70801 0.73206 0.13568 0.0
H964 H 0.7082 0.66335 0.18296 0.0
H965 H 0.66578 0.70565 0.17615 0.0
H966 H 0.66517 0.66804 0.22329 0.0
H967 H 0.63252 0.66954 0.21381 0.0
H968 H 0.65446 0.72523 0.20305 0.0
H969 H 0.627 0.73878 0.21779 0.0
H970 H 0.72422 0.65442 0.21221 0.0
H971 H 0.66725 0.63496 0.21997 0.0
H972 H 0.6056 0.68313 0.22886 0.0
H973 H 0.73593 0.62765 0.23067 0.0
H974 H 0.67909 0.60878 0.23882 0.0
C975 C 0.4149 0.72416 0.2195 0.0
C976 C 0.42756 0.73263 0.20733 0.0
C977 C 0.3991 0.71419 0.21228 0.0
C978 C 0.39565 0.71246 0.1927 0.0
C979 C 0.40843 0.72102 0.18056 0.0
C980 C 0.42417 0.73107 0.18781 0.0
C981 C 0.37863 0.70212 0.18493 0.0
C982 C 0.36852 0.70923 0.16926 0.0
C983 C 0.35244 0.69986 0.16164 0.0
C984 C 0.34658 0.68285 0.16988 0.0
C985 C 0.35637 0.6754 0.18576 0.0
C986 C 0.37235 0.68529 0.19316 0.0
C987 C 0.34993 0.65743 0.19476 0.0
C988 C 0.33067 0.65279 0.19566 0.0
C989 C 0.36301 0.64483 0.20282 0.0
C990 C 0.35703 0.62834 0.21167 0.0
C991 C 0.33783 0.6238 0.21248 0.0
C992 C 0.34191 0.70811 0.14512 0.0
C993 C 0.33502 0.69673 0.13006 0.0
C994 C 0.33912 0.72764 0.14409 0.0
C995 C 0.32987 0.73559 0.1284 0.0
C996 C 0.32309 0.72419 0.11341 0.0
C997 C 0.32572 0.7047 0.11435 0.0
C998 C 0.32471 0.63615 0.2043 0.0
H999 H 0.41725 0.72529 0.23463 0.0
H1000 H 0.38946 0.70809 0.22206 0.0
H1001 H 0.4064 0.71979 0.16542 0.0
H1002 H 0.4338 0.73748 0.17819 0.0
H1003 H 0.37317 0.72223 0.16295 0.0
H1004 H 0.37997 0.67992 0.20541 0.0
H1005 H 0.33433 0.67548 0.16392 0.0
H1006 H 0.32009 0.66216 0.18996 0.0
H1007 H 0.37795 0.64758 0.20216 0.0
H1008 H 0.36742 0.61901 0.2178 0.0
H1009 H 0.33709 0.6817 0.13025 0.0
H1010 H 0.34396 0.73683 0.15552 0.0
H1011 H 0.30982 0.63298 0.20477 0.0
H1012 H 0.32053 0.69567 0.10294 0.0
H1013 H 0.32785 0.75063 0.128 0.0
C1014 C 0.34042 0.30555 0.12259 0.0
C1015 C 0.33297 0.31448 0.10645 0.0
C1016 C 0.34793 0.31618 0.13784 0.0
C1017 C 0.34821 0.33597 0.13723 0.0
C1018 C 0.34122 0.34478 0.12075 0.0
C1019 C 0.33367 0.33416 0.10556 0.0
C1020 C 0.35526 0.34743 0.15385 0.0
C1021 C 0.3711 0.34187 0.1648 0.0
C1022 C 0.3777 0.3525 0.18058 0.0
C1023 C 0.36814 0.36893 0.18528 0.0
C1024 C 0.35216 0.37469 0.1747 0.0
C1025 C 0.34591 0.36385 0.15901 0.0
C1026 C 0.34191 0.39191 0.18022 0.0
C1027 C 0.33908 0.39591 0.19933 0.0
C1028 C 0.33489 0.40449 0.16651 0.0
C1029 C 0.32549 0.42073 0.17181 0.0
C1030 C 0.32292 0.42469 0.1909 0.0
C1031 C 0.39446 0.34639 0.19224 0.0
C1032 C 0.40988 0.33812 0.18376 0.0
C1033 C 0.39511 0.34859 0.21201 0.0
C1034 C 0.41058 0.34245 0.22295 0.0
C1035 C 0.42567 0.3338 0.21442 0.0
C1036 C 0.42527 0.33187 0.19473 0.0
C1037 C 0.32968 0.41211 0.2046 0.0
H1038 H 0.33994 0.29038 0.12358 0.0
H1039 H 0.35299 0.30888 0.15032 0.0
H1040 H 0.3415 0.35994 0.11959 0.0
H1041 H 0.32803 0.34131 0.09322 0.0
H1042 H 0.37827 0.32917 0.16105 0.0
H1043 H 0.33332 0.36791 0.15112 0.0
H1044 H 0.37337 0.37751 0.19703 0.0
H1045 H 0.34399 0.38643 0.21026 0.0
H1046 H 0.33695 0.40196 0.15169 0.0
H1047 H 0.32038 0.43029 0.16104 0.0
H1048 H 0.41013 0.33652 0.16861 0.0
H1049 H 0.38346 0.35466 0.21912 0.0
H1050 H 0.32776 0.4149 0.2194 0.0
H1051 H 0.43681 0.32531 0.18786 0.0
H1052 H 0.41061 0.34406 0.23813 0.0
C1053 C 0.70776 0.3302 0.12384 0.0
C1054 C 0.72662 0.325 0.12562 0.0
C1055 C 0.69977 0.34088 0.1379 0.0
C1056 C 0.71045 0.34647 0.1541 0.0
C1057 C 0.72957 0.34178 0.1555 0.0
C1058 C 0.73759 0.33114 0.14135 0.0
C1059 C 0.70134 0.35614 0.1699 0.0
C1060 C 0.68348 0.35014 0.17526 0.0
C1061 C 0.67455 0.35868 0.19029 0.0
C1062 C 0.68392 0.37343 0.20028 0.0
C1063 C 0.70194 0.37968 0.19517 0.0
C1064 C 0.71045 0.37093 0.17992 0.0
C1065 C 0.71203 0.39529 0.20566 0.0
C1066 C 0.7025 0.41149 0.21112 0.0
C1067 C 0.73145 0.39424 0.20997 0.0
C1068 C 0.74108 0.40896 0.21946 0.0
C1069 C 0.73153 0.42509 0.22483 0.0
C1070 C 0.65571 0.35145 0.19552 0.0
C1071 C 0.64197 0.34703 0.18135 0.0
C1072 C 0.65186 0.34727 0.21435 0.0
C1073 C 0.63503 0.33809 0.21875 0.0
C1074 C 0.62175 0.33303 0.20441 0.0
C1075 C 0.62519 0.3379 0.18574 0.0
C1076 C 0.71218 0.42626 0.22057 0.0
H1077 H 0.69913 0.32566 0.11173 0.0
H1078 H 0.68511 0.34455 0.1362 0.0
H1079 H 0.73815 0.34572 0.16784 0.0
H1080 H 0.75219 0.32724 0.14291 0.0
H1081 H 0.67668 0.33828 0.16805 0.0
H1082 H 0.72409 0.37587 0.17558 0.0
H1083 H 0.67722 0.37993 0.21204 0.0
H1084 H 0.68762 0.41287 0.20786 0.0
H1085 H 0.73919 0.3819 0.2062 0.0
H1086 H 0.75597 0.40772 0.22277 0.0
H1087 H 0.6444 0.35026 0.16674 0.0
H1088 H 0.6622 0.35035 0.22555 0.0
H1089 H 0.70455 0.43857 0.22466 0.0
H1090 H 0.61508 0.33421 0.17451 0.0
H1091 H 0.63257 0.33445 0.23325 0.0
C1092 C 0.64061 0.32166 0.8539 0.0
C1093 C 0.63867 0.32434 0.83435 0.0
C1094 C 0.65682 0.32802 0.86395 0.0
C1095 C 0.67144 0.33721 0.85465 0.0
C1096 C 0.66936 0.33984 0.83501 0.0
C1097 C 0.65313 0.33355 0.82501 0.0
C1098 C 0.68866 0.34433 0.8653 0.0
C1099 C 0.69703 0.33392 0.88017 0.0
C1100 C 0.71346 0.34057 0.88993 0.0
C1101 C 0.72139 0.3579 0.88459 0.0
C1102 C 0.71336 0.36848 0.86979 0.0
C1103 C 0.69692 0.36164 0.8604 0.0
C1104 C 0.72246 0.38645 0.86387 0.0
C1105 C 0.73089 0.39887 0.87731 0.0
C1106 C 0.7233 0.39105 0.84465 0.0
C1107 C 0.73251 0.40748 0.83903 0.0
C1108 C 0.7412 0.41958 0.85247 0.0
C1109 C 0.72255 0.32962 0.90567 0.0
C1110 C 0.71172 0.31985 0.91877 0.0
C1111 C 0.74228 0.32949 0.90817 0.0
C1112 C 0.75087 0.32055 0.92364 0.0
C1113 C 0.74001 0.31123 0.93686 0.0
C1114 C 0.72037 0.31068 0.93416 0.0
C1115 C 0.74024 0.41521 0.87165 0.0
H1116 H 0.62959 0.31458 0.86137 0.0
H1117 H 0.65778 0.32595 0.87905 0.0
H1118 H 0.6804 0.34657 0.82727 0.0
H1119 H 0.65195 0.33567 0.80992 0.0
H1120 H 0.69107 0.32037 0.88378 0.0
H1121 H 0.69033 0.37003 0.8494 0.0
H1122 H 0.73399 0.36318 0.89194 0.0
H1123 H 0.73026 0.39599 0.89223 0.0
H1124 H 0.71723 0.38174 0.83389 0.0
H1125 H 0.73315 0.41061 0.82415 0.0
H1126 H 0.69653 0.31973 0.91746 0.0
H1127 H 0.75117 0.33638 0.89818 0.0
H1128 H 0.74682 0.42442 0.88223 0.0
H1129 H 0.71175 0.30351 0.9442 0.0
H1130 H 0.76604 0.32096 0.92536 0.0
C1131 C 0.68387 0.7094 0.91606 0.0
C1132 C 0.70301 0.71415 0.91831 0.0
C1133 C 0.67726 0.6987 0.90051 0.0
C1134 C 0.68969 0.69243 0.88693 0.0
C1135 C 0.70891 0.69705 0.8894 0.0
C1136 C 0.71548 0.70781 0.9049 0.0
C1137 C 0.6826 0.68162 0.86997 0.0
C1138 C 0.66603 0.68707 0.86021 0.0
C1139 C 0.65947 0.67756 0.84378 0.0
C1140 C 0.66966 0.66221 0.83729 0.0
C1141 C 0.68605 0.65621 0.84697 0.0
C1142 C 0.69248 0.66612 0.86326 0.0
C1143 C 0.69642 0.63968 0.83985 0.0
C1144 C 0.68656 0.62388 0.83227 0.0
C1145 C 0.71619 0.63963 0.84025 0.0
C1146 C 0.72581 0.62423 0.83327 0.0
C1147 C 0.71588 0.60856 0.82573 0.0
C1148 C 0.6423 0.68391 0.83306 0.0
C1149 C 0.62981 0.67079 0.82417 0.0
C1150 C 0.63851 0.70317 0.83117 0.0
C1151 C 0.62283 0.70914 0.82052 0.0
C1152 C 0.61072 0.69602 0.81134 0.0
C1153 C 0.61426 0.6768 0.81333 0.0
C1154 C 0.69619 0.60853 0.82523 0.0
H1155 H 0.67405 0.71401 0.92634 0.0
H1156 H 0.66242 0.69522 0.89918 0.0
H1157 H 0.71884 0.69265 0.87914 0.0
H1158 H 0.73032 0.71128 0.90642 0.0
H1159 H 0.65834 0.69893 0.86533 0.0
H1160 H 0.70496 0.66152 0.87097 0.0
H1161 H 0.66511 0.65523 0.82429 0.0
H1162 H 0.67136 0.62327 0.83194 0.0
H1163 H 0.72426 0.6516 0.84571 0.0
H1164 H 0.74102 0.62452 0.83373 0.0
H1165 H 0.63206 0.65585 0.82556 0.0
H1166 H 0.64791 0.71372 0.83749 0.0
H1167 H 0.68829 0.59655 0.81952 0.0
H1168 H 0.60506 0.66646 0.80635 0.0
H1169 H 0.62038 0.72405 0.81905 0.0
C1170 C 0.34948 0.62771 0.81394 0.0
C1171 C 0.32981 0.62582 0.81352 0.0
C1172 C 0.35843 0.64305 0.82311 0.0
C1173 C 0.34786 0.65678 0.83207 0.0
C1174 C 0.32812 0.65487 0.83138 0.0
C1175 C 0.31921 0.63953 0.82226 0.0
C1176 C 0.35726 0.67261 0.84281 0.0
C1177 C 0.37283 0.68241 0.83581 0.0
C1178 C 0.38146 0.69754 0.84599 0.0
C1179 C 0.37406 0.70279 0.86341 0.0
C1180 C 0.35862 0.69298 0.87067 0.0
C1181 C 0.35044 0.67797 0.86026 0.0
C1182 C 0.35038 0.69838 0.88885 0.0
C1183 C 0.34491 0.6844 0.9016 0.0
C1184 C 0.34615 0.7172 0.89275 0.0
C1185 C 0.3358 0.72177 0.90851 0.0
C1186 C 0.32959 0.7076 0.92062 0.0
C1187 C 0.39805 0.70783 0.83832 0.0
C1188 C 0.40041 0.72742 0.84067 0.0
C1189 C 0.41161 0.69812 0.82829 0.0
C1190 C 0.42674 0.70772 0.82046 0.0
C1191 C 0.42882 0.72727 0.82254 0.0
C1192 C 0.41566 0.73701 0.83294 0.0
C1193 C 0.3346 0.68896 0.91728 0.0
H1194 H 0.35788 0.61726 0.8072 0.0
H1195 H 0.37362 0.64397 0.82353 0.0
H1196 H 0.31951 0.66531 0.83785 0.0
H1197 H 0.30402 0.63839 0.82195 0.0
H1198 H 0.37786 0.67857 0.82214 0.0
H1199 H 0.33852 0.67045 0.86578 0.0
H1200 H 0.38057 0.71418 0.87159 0.0
H1201 H 0.34818 0.66981 0.89914 0.0
H1202 H 0.35004 0.72826 0.88315 0.0
H1203 H 0.33207 0.73625 0.91089 0.0
H1204 H 0.39024 0.73547 0.8481 0.0
H1205 H 0.4106 0.68303 0.82649 0.0
H1206 H 0.33002 0.67786 0.92652 0.0
H1207 H 0.417 0.75209 0.83473 0.0
H1208 H 0.43678 0.6999 0.81262 0.0
C1209 C 0.33116 0.32628 0.90123 0.0
C1210 C 0.32321 0.33891 0.91376 0.0
C1211 C 0.34158 0.33288 0.8862 0.0
C1212 C 0.34437 0.3523 0.88336 0.0
C1213 C 0.33615 0.36491 0.89586 0.0
C1214 C 0.3257 0.35829 0.91089 0.0
C1215 C 0.35617 0.35924 0.86771 0.0
C1216 C 0.35094 0.37506 0.85697 0.0
C1217 C 0.36199 0.38153 0.84214 0.0
C1218 C 0.37856 0.37186 0.83825 0.0
C1219 C 0.38418 0.35612 0.8489 0.0
C1220 C 0.37283 0.34998 0.86354 0.0
C1221 C 0.40185 0.34599 0.8448 0.0
C1222 C 0.41367 0.33936 0.8596 0.0
C1223 C 0.40693 0.34255 0.82613 0.0
C1224 C 0.42322 0.33261 0.82238 0.0
C1225 C 0.43482 0.3259 0.83721 0.0
C1226 C 0.35625 0.39833 0.83071 0.0
C1227 C 0.36976 0.41144 0.82462 0.0
C1228 C 0.33721 0.4014 0.82567 0.0
C1229 C 0.33189 0.41705 0.8149 0.0
C1230 C 0.34544 0.42999 0.80883 0.0
C1231 C 0.36442 0.42703 0.8138 0.0
C1232 C 0.42994 0.32942 0.85584 0.0
H1233 H 0.32933 0.31129 0.90313 0.0
H1234 H 0.3474 0.32273 0.87674 0.0
H1235 H 0.33814 0.37993 0.89427 0.0
H1236 H 0.31969 0.36827 0.92041 0.0
H1237 H 0.33821 0.38234 0.86016 0.0
H1238 H 0.37701 0.33786 0.87176 0.0
H1239 H 0.38715 0.3766 0.82689 0.0
H1240 H 0.41042 0.34196 0.87415 0.0
H1241 H 0.39811 0.34722 0.81437 0.0
H1242 H 0.42673 0.33002 0.8079 0.0
H1243 H 0.38449 0.40979 0.82841 0.0
H1244 H 0.3264 0.39156 0.82981 0.0
H1245 H 0.43873 0.32443 0.86749 0.0
H1246 H 0.37511 0.43686 0.80932 0.0
H1247 H 0.31717 0.41902 0.8112 0.0
Cu1248 Cu 0.27191 0.26728 0.01229 0.0
N1249 N 0.27277 0.28951 0.99812 0.0
N1250 N 0.28226 0.30953 0.97611 0.0
C1251 C 0.28522 0.29291 0.98464 0.0
C1252 C 0.26752 0.31706 0.98459 0.0
C1253 C 0.26171 0.30468 0.99824 0.0
O1254 O 0.27306 0.24676 0.99384 0.0
C1255 C 0.28981 0.28298 0.04342 0.0
O1256 O 0.27478 0.29333 0.04145 0.0
H1257 H 0.29607 0.28325 0.98094 0.0
H1258 H 0.25017 0.30657 1.00748 0.0
N1259 N 0.24966 0.26367 0.02533 0.0
N1260 N 0.23027 0.25305 0.0471 0.0
C1261 C 0.24793 0.253 0.04088 0.0
C1262 C 0.23242 0.2705 0.02153 0.0
C1263 C 0.22044 0.264 0.03499 0.0
C1264 C 0.2605 0.24746 0.98052 0.0
O1265 O 0.24847 0.26123 0.9804 0.0
H1266 H 0.25937 0.24536 0.04751 0.0
H1267 H 0.22877 0.2795 0.00979 0.0
O1268 O 0.29209 0.26959 0.03171 0.0
H1269 H 0.26134 0.33043 0.98103 0.0
H1270 H 0.20568 0.26711 0.0359 0.0
Cu1271 Cu 0.79074 0.25407 0.03251 0.0
N1272 N 0.76986 0.26026 0.04824 0.0
N1273 N 0.75253 0.27484 0.069 0.0
C1274 C 0.76907 0.27473 0.06041 0.0
C1275 C 0.74251 0.26001 0.06195 0.0
C1276 C 0.7533 0.25099 0.04907 0.0
O1277 O 0.80466 0.2427 0.05543 0.0
C1278 C 0.78138 0.27931 1.00088 0.0
O1279 O 0.79683 0.28829 1.00653 0.0
H1280 H 0.78033 0.28489 0.06301 0.0
H1281 H 0.74942 0.23855 0.04094 0.0
N1282 N 0.81177 0.24814 0.01676 0.0
N1283 N 0.82834 0.23731 0.99323 0.0
C1284 C 0.81171 0.2366 1.00168 0.0
C1285 C 0.82894 0.25632 0.01787 0.0
C1286 C 0.83923 0.24964 1.0033 0.0
C1287 C 0.81452 0.2525 0.06726 0.0
O1288 O 0.8165 0.27067 0.06473 0.0
H1289 H 0.79962 0.22838 0.99662 0.0
H1290 H 0.83342 0.26681 0.02821 0.0
O1291 O 0.77615 0.26466 1.00962 0.0
H1292 H 0.72853 0.25596 0.06601 0.0
H1293 H 0.85339 0.25386 0.99998 0.0
Cu1294 Cu 0.75929 0.76016 0.01395 0.0
N1295 N 0.78116 0.7603 0.99982 0.0
N1296 N 0.80152 0.77023 0.97856 0.0
C1297 C 0.78715 0.77491 0.98941 0.0
C1298 C 0.80502 0.75208 0.9825 0.0
C1299 C 0.79243 0.74598 0.99562 0.0
O1300 O 0.73818 0.75424 0.99634 0.0
C1301 C 0.74922 0.78944 0.0399 0.0
O1302 O 0.73332 0.78033 0.04232 0.0
H1303 H 0.78041 0.78842 0.98898 0.0
H1304 H 0.79105 0.73187 1.001 0.0
N1305 N 0.75914 0.7408 0.03223 0.0
N1306 N 0.75086 0.72457 0.05777 0.0
C1307 C 0.75352 0.74174 0.05023 0.0
C1308 C 0.76019 0.72227 0.02852 0.0
C1309 C 0.7551 0.71225 0.0442 0.0
C1310 C 0.73758 0.75903 0.97904 0.0
O1311 O 0.74917 0.77205 0.9732 0.0
H1312 H 0.75036 0.75458 0.05746 0.0
H1313 H 0.76311 0.71639 0.01491 0.0
O1314 O 0.7597 0.7845 0.02671 0.0
H1315 H 0.81532 0.74364 0.9757 0.0
H1316 H 0.75349 0.69715 0.04518 0.0
Cu1317 Cu 0.25912 0.75917 0.01731 0.0
N1318 N 0.2366 0.75717 0.02992 0.0
N1319 N 0.21517 0.76537 0.0504 0.0
C1320 C 0.23253 0.76867 0.04425 0.0
C1321 C 0.20778 0.75139 0.03947 0.0
C1322 C 0.22106 0.7464 0.0267 0.0
O1323 O 0.27891 0.76101 0.03709 0.0
C1324 C 0.26705 0.78835 0.98973 0.0
O1325 O 0.2851 0.78548 0.99244 0.0
H1326 H 0.24197 0.77959 0.04978 0.0
H1327 H 0.21919 0.73613 0.01553 0.0
N1328 N 0.26467 0.73842 1.00235 0.0
N1329 N 0.27959 0.72231 0.98058 0.0
C1330 C 0.27925 0.73823 0.99082 0.0
C1331 C 0.25571 0.72176 0.99956 0.0
C1332 C 0.26488 0.7118 0.986 0.0
C1333 C 0.27888 0.74694 0.0482 0.0
O1334 O 0.26629 0.73347 0.04529 0.0
H1335 H 0.28928 0.74966 0.98969 0.0
H1336 H 0.2433 0.7172 1.00663 0.0
O1337 O 0.25524 0.78001 0.99992 0.0
H1338 H 0.19369 0.74564 0.04034 0.0
H1339 H 0.26085 0.69815 0.98025 0.0
Cu1340 Cu 0.0305 0.27994 0.29094 0.0
N1341 N 0.04358 0.28109 0.26845 0.0
N1342 N 0.06371 0.27139 0.24713 0.0
C1343 C 0.05224 0.26626 0.26094 0.0
C1344 C 0.06197 0.29016 0.24555 0.0
C1345 C 0.04961 0.29614 0.25881 0.0
O1346 O 0.04926 0.28403 0.31163 0.0
C1347 C 1.00431 0.25616 0.27533 0.0
O1348 O 1.00442 0.27027 0.2635 0.0
H1349 H 0.05133 0.25216 0.26653 0.0
H1350 H 0.04639 0.31054 0.26208 0.0
N1351 N 0.01233 0.29855 0.29359 0.0
N1352 N 0.98679 0.31192 0.30488 0.0
C1353 C 0.99959 0.29829 0.3072 0.0
C1354 C 1.00741 0.31294 0.28229 0.0
C1355 C 0.99166 0.32126 0.28928 0.0
C1356 C 0.0664 0.27926 0.31065 0.0
O1357 O 0.07114 0.26728 0.29766 0.0
H1358 H 0.99931 0.28787 0.31824 0.0
H1359 H 0.01426 0.31668 0.26948 0.0
O1360 O 0.01569 0.25658 0.28969 0.0
H1361 H 0.07007 0.29902 0.23641 0.0
H1362 H 0.984 0.33284 0.28306 0.0
Cu1363 Cu 0.7628 0.02037 0.27782 0.0
N1364 N 0.78573 0.03354 0.27703 0.0
N1365 N 0.80683 0.05494 0.26827 0.0
C1366 C 0.78921 0.04807 0.26552 0.0
C1367 C 0.81487 0.04435 0.28191 0.0
C1368 C 0.8018 0.03106 0.28726 0.0
O1369 O 0.74315 0.03932 0.27812 0.0
C1370 C 0.77496 0.9914 0.25588 0.0
O1371 O 0.78776 0.9915 0.26967 0.0
H1372 H 0.779 0.05361 0.25543 0.0
H1373 H 0.80391 0.02035 0.29784 0.0
N1374 N 0.76121 1.00564 0.29955 0.0
N1375 N 0.75297 0.98215 0.31843 0.0
C1376 C 0.75124 0.98948 0.30099 0.0
C1377 C 0.76935 1.00864 0.31676 0.0
C1378 C 0.76433 0.99409 0.32845 0.0
C1379 C 0.74521 0.05206 0.29079 0.0
O1380 O 0.75989 0.05156 0.30251 0.0
H1381 H 0.74285 0.98322 0.28953 0.0
H1382 H 0.77825 0.0206 0.32059 0.0
O1383 O 0.76177 1.00331 0.25615 0.0
H1384 H 0.8291 0.04618 0.28758 0.0
H1385 H 0.76858 0.99241 0.34313 0.0
Cu1386 Cu 0.99462 0.76751 0.24148 0.0
N1387 N 0.97636 0.77111 0.22195 0.0
N1388 N 0.95219 0.78394 0.20593 0.0
C1389 C 0.96562 0.78645 0.21964 0.0
C1390 C 0.95483 0.76661 0.19891 0.0
C1391 C 0.9698 0.75876 0.20875 0.0
O1392 O 0.98222 0.76325 0.26523 0.0
C1393 C 0.02019 0.79086 0.22477 0.0
O1394 O 0.01289 0.78192 0.20996 0.0
H1395 H 0.96697 0.79886 0.22848 0.0
H1396 H 0.975 0.74476 0.20683 0.0
N1397 N 1.00844 0.74562 0.2388 0.0
N1398 N 0.03183 0.72592 0.24536 0.0
C1399 C 0.02598 0.74376 0.24624 0.0
C1400 C 1.00286 0.72815 0.23344 0.0
C1401 C 0.01739 0.71595 0.23736 0.0
C1402 C 0.96575 0.76846 0.26892 0.0
O1403 O 0.95725 0.78082 0.25814 0.0
H1404 H 0.03399 0.75511 0.25304 0.0
H1405 H 0.98888 0.72429 0.22825 0.0
O1406 O 0.01344 0.78772 0.24088 0.0
H1407 H 0.94599 0.75983 0.18808 0.0
H1408 H 0.01708 0.70087 0.23536 0.0
Cu1409 Cu 0.24834 0.02791 0.2485 0.0
N1410 N 0.26377 0.04885 0.24515 0.0
N1411 N 0.2821 0.07331 0.25378 0.0
C1412 C 0.26868 0.06108 0.259 0.0
C1413 C 0.28601 0.06851 0.23598 0.0
C1414 C 0.27462 0.05335 0.23066 0.0
O1415 O 0.2277 0.03474 0.26434 0.0
C1416 C 0.25787 0.99602 0.27148 0.0
O1417 O 0.24022 0.99611 0.27615 0.0
H1418 H 0.26344 0.06025 0.27307 0.0
H1419 H 0.27495 0.04557 0.21757 0.0
N1420 N 0.2385 0.01761 0.226 0.0
N1421 N 0.22465 0.9964 0.2067 0.0
C1422 C 0.23075 1.00029 0.22447 0.0
C1423 C 0.23719 0.02497 0.20856 0.0
C1424 C 0.22862 0.01182 0.19654 0.0
C1425 C 0.21654 0.04865 0.26378 0.0
O1426 O 0.2037 0.0496 0.27652 0.0
H1427 H 0.22954 0.9907 0.23616 0.0
H1428 H 0.24191 0.03894 0.20488 0.0
O1429 O 0.26398 1.00856 0.26042 0.0
H1430 H 0.29677 0.07506 0.22775 0.0
H1431 H 0.22545 0.01342 0.18162 0.0
Cu1432 Cu 0.03038 0.78811 0.76055 0.0
N1433 N 0.04587 0.78938 0.73976 0.0
N1434 N 0.0681 0.77937 0.72084 0.0
C1435 C 0.05846 0.77593 0.73644 0.0
C1436 C 0.06127 0.79556 0.71384 0.0
C1437 C 0.04748 0.8017 0.72553 0.0
O1438 O 0.0482 0.78576 0.78216 0.0
C1439 C 1.00018 0.75976 0.76313 0.0
O1440 O 1.00042 0.76199 0.7815 0.0
H1441 H 0.06049 0.76375 0.74531 0.0
H1442 H 0.03923 0.81416 0.7236 0.0
N1443 N 0.01521 0.80899 0.76503 0.0
N1444 N 0.99174 0.8249 0.77745 0.0
C1445 C 1.00198 0.80915 0.77817 0.0
C1446 C 0.01335 0.82543 0.75586 0.0
C1447 C 0.99882 0.83526 0.76348 0.0
C1448 C 0.05967 0.79975 0.78375 0.0
O1449 O 0.05779 0.81378 0.77193 0.0
H1450 H 0.99957 0.79775 0.78782 0.0
H1451 H 0.02159 0.82988 0.7442 0.0
O1452 O 0.01267 0.76781 0.75353 0.0
H1453 H 0.06591 0.80238 0.7012 0.0
H1454 H 0.99356 0.84871 0.75886 0.0
Cu1455 Cu 0.29032 0.01835 0.75945 0.0
N1456 N 0.31291 0.03227 0.75804 0.0
N1457 N 0.33223 0.05555 0.74954 0.0
C1458 C 0.31491 0.04775 0.74736 0.0
C1459 C 0.34164 0.04453 0.76192 0.0
C1460 C 0.32968 0.03011 0.76711 0.0
O1461 O 0.2708 0.03692 0.76262 0.0
C1462 C 0.30123 0.99033 0.73606 0.0
O1463 O 0.31464 0.99033 0.74926 0.0
H1464 H 0.30378 0.05338 0.73838 0.0
H1465 H 0.33299 0.01894 0.77688 0.0
N1466 N 0.28901 1.00209 0.78012 0.0
N1467 N 0.27755 0.97927 0.79815 0.0
C1468 C 0.27596 0.98827 0.78153 0.0
C1469 C 0.29913 1.00185 0.79653 0.0
C1470 C 0.29211 0.98769 0.80768 0.0
C1471 C 0.2738 0.04767 0.7769 0.0
O1472 O 0.28904 0.0454 0.78756 0.0
H1473 H 0.26526 0.98509 0.77071 0.0
H1474 H 0.31051 0.01151 0.80033 0.0
O1475 O 0.28816 1.0023 0.73704 0.0
H1476 H 0.35602 0.04689 0.76694 0.0
H1477 H 0.29707 0.98403 0.82176 0.0
Cu1478 Cu 0.03604 0.27874 0.76848 0.0
N1479 N 0.01971 0.28239 0.7475 0.0
N1480 N 0.99533 0.29379 0.73083 0.0
C1481 C 1.00481 0.29379 0.74757 0.0
C1482 C 1.00453 0.28201 0.71965 0.0
C1483 C 0.01966 0.27498 0.73 0.0
O1484 O 0.02021 0.27671 0.79013 0.0
C1485 C 0.0553 0.31254 0.75861 0.0
O1486 O 0.03969 0.31693 0.74941 0.0
H1487 H 1.00112 0.30213 0.75962 0.0
H1488 H 0.02995 0.26532 0.72504 0.0
N1489 N 0.04955 0.25649 0.76756 0.0
N1490 N 0.07214 0.23631 0.77551 0.0
C1491 C 0.06464 0.25316 0.77898 0.0
C1492 C 0.04733 0.2411 0.75655 0.0
C1493 C 0.06136 0.22861 0.7614 0.0
C1494 C 1.00779 0.26366 0.78825 0.0
O1495 O 1.00696 0.25358 0.7727 0.0
H1496 H 0.07013 0.26299 0.78957 0.0
H1497 H 0.03632 0.23905 0.74583 0.0
O1498 O 0.05552 0.29833 0.76941 0.0
H1499 H 1.00063 0.27884 0.70509 0.0
H1500 H 0.0635 0.21497 0.75512 0.0
Cu1501 Cu 0.79188 0.02122 0.76988 0.0
N1502 N 0.81451 0.034 0.76653 0.0
N1503 N 0.83667 0.05587 0.77262 0.0
C1504 C 0.81943 0.04946 0.7766 0.0
C1505 C 0.84305 0.04401 0.75956 0.0
C1506 C 0.82926 0.0304 0.75582 0.0
O1507 O 0.77467 0.04207 0.77236 0.0
C1508 C 0.78657 0.99231 0.79871 0.0
O1509 O 0.76835 0.99285 0.79533 0.0
H1510 H 0.81066 0.05571 0.78698 0.0
H1511 H 0.83012 0.01855 0.74633 0.0
N1512 N 0.78406 1.00692 0.7487 0.0
N1513 N 0.76783 0.98577 0.73112 0.0
C1514 C 0.77095 0.99305 0.74847 0.0
C1515 C 0.78928 1.0085 0.73072 0.0
C1516 C 0.77929 0.99535 0.7198 0.0
C1517 C 0.7579 0.04229 0.76554 0.0
O1518 O 0.74884 0.02632 0.76234 0.0
H1519 H 0.76361 0.98843 0.76068 0.0
H1520 H 0.79944 0.01864 0.72584 0.0
O1521 O 0.79739 1.00404 0.79082 0.0
H1522 H 0.85676 0.04491 0.75354 0.0
H1523 H 0.78023 0.99308 0.70479 0.0
Cu1524 Cu 0.25684 0.76516 0.48425 0.0
N1525 N 0.27785 0.76704 0.50077 0.0
N1526 N 0.29518 0.7785 0.52512 0.0
C1527 C 0.28058 0.78143 0.51298 0.0
C1528 C 0.30205 0.76165 0.52041 0.0
C1529 C 0.29124 0.75454 0.50535 0.0
O1530 O 0.2359 0.76283 0.50102 0.0
C1531 C 0.27316 0.78957 0.45982 0.0
O1532 O 0.2872 0.77852 0.46424 0.0
H1533 H 0.27149 0.79343 0.51352 0.0
H1534 H 0.2925 0.74088 0.49887 0.0
N1535 N 0.25654 0.74434 0.46797 0.0
N1536 N 0.24615 0.7269 0.44332 0.0
C1537 C 0.24139 0.73849 0.45741 0.0
C1538 C 0.27131 0.73589 0.46045 0.0
C1539 C 0.26492 0.7251 0.44525 0.0
C1540 C 0.2367 0.7482 0.51132 0.0
O1541 O 0.24963 0.73573 0.50823 0.0
H1542 H 0.22743 0.74392 0.45896 0.0
H1543 H 0.28584 0.73861 0.46466 0.0
O1544 O 0.25751 0.78698 0.46769 0.0
H1545 H 0.3135 0.7547 0.52783 0.0
H1546 H 0.27348 0.71745 0.43566 0.0
Cu1547 Cu 0.77552 0.76751 0.52513 0.0
N1548 N 0.79592 0.76839 0.50929 0.0
N1549 N 0.81335 0.75937 0.48553 0.0
C1550 C 0.79763 0.75614 0.49498 0.0
C1551 C 0.82206 0.77417 0.49416 0.0
C1552 C 0.81125 0.77971 0.50894 0.0
O1553 O 0.75338 0.76608 0.5079 0.0
C1554 C 0.79523 0.75027 0.55363 0.0
O1555 O 0.80521 0.76565 0.55103 0.0
H1556 H 0.78753 0.74501 0.49157 0.0
H1557 H 0.81449 0.79103 0.51876 0.0
N1558 N 0.77219 0.78877 0.54012 0.0
N1559 N 0.75952 0.80577 0.56271 0.0
C1560 C 0.75936 0.78918 0.55355 0.0
C1561 C 0.78069 0.80582 0.54069 0.0
C1562 C 0.77289 0.81636 0.55474 0.0
C1563 C 0.75221 0.78042 0.49716 0.0
O1564 O 0.76496 0.79388 0.49914 0.0
H1565 H 0.75015 0.77744 0.55666 0.0
H1566 H 0.79166 0.81034 0.53157 0.0
O1567 O 0.78052 0.74719 0.5431 0.0
H1568 H 0.83527 0.78038 0.49013 0.0
H1569 H 0.77671 0.83062 0.55881 0.0
Cu1570 Cu 0.77606 0.2571 0.52453 0.0
N1571 N 0.76057 0.25932 0.50289 0.0
N1572 N 0.74464 0.25165 0.47626 0.0
C1573 C 0.75652 0.24568 0.4901 0.0
C1574 C 0.74087 0.26962 0.48052 0.0
C1575 C 0.75068 0.2743 0.49703 0.0
O1576 O 0.79769 0.24202 0.51854 0.0
C1577 C 0.76833 0.23671 0.55864 0.0
O1578 O 0.78663 0.23531 0.56084 0.0
H1579 H 0.76189 0.23159 0.49107 0.0
H1580 H 0.7504 0.28762 0.50437 0.0
N1581 N 0.78415 0.28063 0.53362 0.0
N1582 N 0.79487 0.30286 0.55362 0.0
C1583 C 0.78951 0.28472 0.55157 0.0
C1584 C 0.78624 0.29679 0.52404 0.0
C1585 C 0.79291 0.31057 0.53639 0.0
C1586 C 0.80945 0.24323 0.50538 0.0
O1587 O 0.82242 0.23041 0.50451 0.0
H1588 H 0.7897 0.2746 0.56289 0.0
H1589 H 0.78352 0.29835 0.50905 0.0
O1590 O 0.76134 0.24499 0.54415 0.0
H1591 H 0.73162 0.2786 0.47231 0.0
H1592 H 0.79631 0.32501 0.53302 0.0
Cu1593 Cu 0.27873 0.26364 0.52976 0.0
N1594 N 0.25812 0.26509 0.54556 0.0
N1595 N 0.23968 0.27661 0.56753 0.0
C1596 C 0.2535 0.28039 0.55558 0.0
C1597 C 0.23503 0.25836 0.56466 0.0
C1598 C 0.24641 0.25129 0.55105 0.0
O1599 O 0.30167 0.26105 0.54563 0.0
C1600 C 0.26131 0.28687 0.50373 0.0
O1601 O 0.24672 0.27752 0.50983 0.0
H1602 H 0.26079 0.29381 0.55485 0.0
H1603 H 0.24668 0.2369 0.54616 0.0
N1604 N 0.27857 0.2421 0.51454 0.0
N1605 N 0.28789 0.22426 0.49069 0.0
C1606 C 0.28543 0.24187 0.4971 0.0
C1607 C 0.27679 0.22392 0.51943 0.0
C1608 C 0.28247 0.21286 0.50467 0.0
C1609 C 0.3037 0.26691 0.56257 0.0
O1610 O 0.29171 0.27881 0.56916 0.0
H1611 H 0.28977 0.25439 0.48972 0.0
H1612 H 0.27297 0.21907 0.53319 0.0
O1613 O 0.27745 0.28424 0.51163 0.0
H1614 H 0.2248 0.25053 0.5725 0.0
H1615 H 0.28346 0.19771 0.50457 0.0
Cu1616 Cu 0.78779 0.52411 0.78785 0.0
N1617 N 0.80719 0.5419 0.78611 0.0
N1618 N 0.82292 0.56601 0.77393 0.0
C1619 C 0.80943 0.55278 0.77087 0.0
C1620 C 0.82947 0.56349 0.79177 0.0
C1621 C 0.81964 0.54863 0.79932 0.0
O1622 O 0.76497 0.53866 0.78917 0.0
C1623 C 0.80496 0.49854 0.76586 0.0
O1624 O 0.81854 0.50308 0.77813 0.0
H1625 H 0.80076 0.55155 0.75806 0.0
H1626 H 0.82082 0.54384 0.81371 0.0
N1627 N 0.78943 0.50888 0.80918 0.0
N1628 N 0.78154 0.4851 0.82778 0.0
C1629 C 0.77603 0.49619 0.81338 0.0
C1630 C 0.80397 0.50561 0.82134 0.0
C1631 C 0.79907 0.49095 0.83295 0.0
C1632 C 0.76416 0.54869 0.80405 0.0
O1633 O 0.77758 0.54746 0.81715 0.0
H1634 H 0.7629 0.49444 0.80536 0.0
H1635 H 0.81756 0.5125 0.8211 0.0
O1636 O 0.78927 0.50685 0.76661 0.0
H1637 H 0.83998 0.5723 0.79902 0.0
H1638 H 0.80798 0.48442 0.84364 0.0
Cu1639 Cu 0.28444 0.53322 0.75088 0.0
N1640 N 0.3055 0.51765 0.75288 0.0
N1641 N 0.32309 0.49415 0.76414 0.0
C1642 C 0.30713 0.50382 0.76576 0.0
C1643 C 0.33203 0.50219 0.74977 0.0
C1644 C 0.32115 0.51676 0.74285 0.0
O1645 O 0.263 0.51587 0.75054 0.0
C1646 C 0.30076 0.56269 0.77 0.0
O1647 O 0.31143 0.56115 0.75542 0.0
H1648 H 0.29673 0.50083 0.7761 0.0
H1649 H 0.32445 0.52595 0.73133 0.0
N1650 N 0.28167 0.54796 0.729 0.0
N1651 N 0.26993 0.57057 0.71041 0.0
C1652 C 0.26897 0.56176 0.72712 0.0
C1653 C 0.29087 0.54797 0.71277 0.0
C1654 C 0.28366 0.56197 0.70126 0.0
C1655 C 0.26284 0.50464 0.73648 0.0
O1656 O 0.27592 0.50646 0.72404 0.0
H1657 H 0.2593 0.56541 0.7379 0.0
H1658 H 0.30201 0.53852 0.70947 0.0
O1659 O 0.28696 0.55122 0.77162 0.0
H1660 H 0.34537 0.49777 0.74461 0.0
H1661 H 0.28816 0.56562 0.68734 0.0
Cu1662 Cu 0.27045 0.51583 0.243 0.0
N1663 N 0.25968 0.5 0.26091 0.0
N1664 N 0.25195 0.478 0.28179 0.0
C1665 C 0.26607 0.4888 0.27506 0.0
C1666 C 0.23641 0.48255 0.27165 0.0
C1667 C 0.24122 0.49587 0.25881 0.0
O1668 O 0.27721 0.49941 0.2224 0.0
C1669 C 0.24786 0.5442 0.25219 0.0
O1670 O 0.25668 0.54022 0.26821 0.0
H1671 H 0.28064 0.48806 0.27982 0.0
H1672 H 0.23197 0.50174 0.24803 0.0
N1673 N 0.29153 0.53071 0.24989 0.0
N1674 N 0.31077 0.55557 0.24693 0.0
C1675 C 0.2972 0.54471 0.23862 0.0
C1676 C 0.30198 0.5327 0.266 0.0
C1677 C 0.31398 0.5481 0.26417 0.0
C1678 C 0.29117 0.48894 0.22627 0.0
O1679 O 0.30009 0.49074 0.2427 0.0
H1680 H 0.29084 0.54742 0.22484 0.0
H1681 H 0.3004 0.52417 0.27842 0.0
O1682 O 0.25126 0.53451 0.23756 0.0
H1683 H 0.22262 0.47624 0.27315 0.0
H1684 H 0.32372 0.55379 0.27486 0.0
Cu1685 Cu 0.76968 0.51433 0.2938 0.0
N1686 N 0.76985 0.49845 0.31506 0.0
N1687 N 0.77762 0.47493 0.33453 0.0
C1688 C 0.78278 0.48544 0.31978 0.0
C1689 C 0.76101 0.48172 0.33962 0.0
C1690 C 0.75628 0.49625 0.32762 0.0
O1691 O 0.76574 0.49876 0.2711 0.0
C1692 C 0.79859 0.53709 0.31066 0.0
O1693 O 0.7955 0.5267 0.32549 0.0
H1694 H 0.79559 0.48341 0.31239 0.0
H1695 H 0.74353 0.50425 0.32773 0.0
N1696 N 0.74874 0.52981 0.29277 0.0
N1697 N 0.73116 0.55317 0.28139 0.0
C1698 C 0.74873 0.54699 0.28486 0.0
C1699 C 0.73051 0.52496 0.29428 0.0
C1700 C 0.71961 0.53942 0.28732 0.0
C1701 C 0.77283 0.48278 0.26803 0.0
O1702 O 0.78675 0.47687 0.2789 0.0
H1703 H 0.76125 0.55409 0.28016 0.0
H1704 H 0.72549 0.51127 0.29854 0.0
O1705 O 0.79083 0.53239 0.29481 0.0
H1706 H 0.75264 0.47612 0.35077 0.0
H1707 H 0.70446 0.5393 0.28546 0.0
Cu1708 Cu 0.54117 0.27222 0.78474 0.0
N1709 N 0.5255 0.27393 0.80536 0.0
N1710 N 0.50134 0.28423 0.82151 0.0
C1711 C 0.51163 0.28653 0.80614 0.0
C1712 C 0.50908 0.26976 0.831 0.0
C1713 C 0.52408 0.26344 0.82101 0.0
O1714 O 0.52411 0.27308 0.76262 0.0
C1715 C 0.57175 0.28906 0.80211 0.0
O1716 O 0.56903 0.27431 0.81275 0.0
H1717 H 0.50885 0.29695 0.79538 0.0
H1718 H 0.53304 0.25185 0.82477 0.0
N1719 N 0.55439 0.24984 0.78222 0.0
N1720 N 0.57547 0.23072 0.77021 0.0
C1721 C 0.56758 0.24775 0.7693 0.0
C1722 C 0.55379 0.23341 0.79154 0.0
C1723 C 0.56689 0.22156 0.78415 0.0
C1724 C 0.51197 0.25968 0.76252 0.0
O1725 O 0.51235 0.24761 0.77645 0.0
H1726 H 0.57147 0.25862 0.7595 0.0
H1727 H 0.54455 0.23022 0.80285 0.0
O1728 O 0.56055 0.29182 0.78796 0.0
H1729 H 0.50402 0.26401 0.84398 0.0
H1730 H 0.56999 0.20741 0.7887 0.0
Cu1731 Cu 0.51521 0.76723 0.7542 0.0
N1732 N 0.52889 0.74494 0.75409 0.0
N1733 N 0.54998 0.72406 0.76425 0.0
C1734 C 0.53879 0.73824 0.76907 0.0
C1735 C 0.54673 0.72136 0.74561 0.0
C1736 C 0.53378 0.73436 0.73934 0.0
O1737 O 0.53294 0.78825 0.75014 0.0
C1738 C 0.48933 0.75311 0.77799 0.0
O1739 O 0.48928 0.74023 0.76471 0.0
H1740 H 0.53892 0.74461 0.78295 0.0
H1741 H 0.52949 0.73687 0.72483 0.0
N1742 N 0.49718 0.7683 0.73442 0.0
N1743 N 0.47275 0.77931 0.71752 0.0
C1744 C 0.48548 0.78279 0.73165 0.0
C1745 C 0.4915 0.75514 0.72165 0.0
C1746 C 0.47645 0.76197 0.71111 0.0
C1747 C 0.55012 0.78828 0.7559 0.0
O1748 O 0.55591 0.77535 0.76774 0.0
H1749 H 0.48591 0.79541 0.74022 0.0
H1750 H 0.49727 0.74127 0.72056 0.0
O1751 O 0.50056 0.76723 0.777 0.0
H1752 H 0.55429 0.71173 0.73695 0.0
H1753 H 0.46843 0.75459 0.70005 0.0
Cu1754 Cu 0.51441 0.77884 0.276 0.0
N1755 N 0.49637 0.7811 0.29454 0.0
N1756 N 0.47092 0.79265 0.30776 0.0
C1757 C 0.48346 0.79478 0.29415 0.0
C1758 C 0.47606 0.77705 0.31719 0.0
C1759 C 0.49179 0.76993 0.30899 0.0
O1760 O 0.49956 0.77808 0.25242 0.0
C1761 C 0.54176 0.79761 0.29609 0.0
O1762 O 0.53637 0.78463 0.30789 0.0
H1763 H 0.48293 0.80579 0.2837 0.0
H1764 H 0.49893 0.75723 0.313 0.0
N1765 N 0.52897 0.75707 0.2759 0.0
N1766 N 0.55192 0.73873 0.26614 0.0
C1767 C 0.54162 0.75409 0.26258 0.0
C1768 C 0.53139 0.74301 0.28836 0.0
C1769 C 0.54557 0.73163 0.28233 0.0
C1770 C 0.4889 0.76348 0.25147 0.0
O1771 O 0.48981 0.75123 0.26522 0.0
H1772 H 0.5437 0.76342 0.25083 0.0
H1773 H 0.52396 0.74146 0.30124 0.0
O1774 O 0.53301 0.79896 0.28014 0.0
H1775 H 0.46868 0.77103 0.32882 0.0
H1776 H 0.55119 0.71947 0.28952 0.0
Cu1777 Cu 0.51854 0.27538 0.25947 0.0
N1778 N 0.50349 0.25372 0.26088 0.0
N1779 N 0.48132 0.23516 0.27258 0.0
C1780 C 0.49077 0.25161 0.27427 0.0
C1781 C 0.48836 0.22638 0.25761 0.0
C1782 C 0.50216 0.2379 0.25039 0.0
O1783 O 0.50094 0.29615 0.2594 0.0
C1784 C 0.54824 0.25943 0.27758 0.0
O1785 O 0.54549 0.24874 0.26259 0.0
H1786 H 0.48836 0.26206 0.28501 0.0
H1787 H 0.51056 0.23492 0.23842 0.0
N1788 N 0.5324 0.27815 0.23778 0.0
N1789 N 0.55539 0.28969 0.22052 0.0
C1790 C 0.54668 0.29069 0.23695 0.0
C1791 C 0.5319 0.26901 0.2211 0.0
C1792 C 0.5462 0.27613 0.21038 0.0
C1793 C 0.48894 0.29502 0.2456 0.0
O1794 O 0.48987 0.28097 0.23365 0.0
H1795 H 0.55087 0.30013 0.2484 0.0
H1796 H 0.52207 0.25787 0.21708 0.0
O1797 O 0.53744 0.27333 0.27998 0.0
H1798 H 0.48377 0.21273 0.25228 0.0
H1799 H 0.54978 0.27154 0.19644 0.0
C1800 C 0.20811 0.2166 0.07809 0.0
C1801 C 0.20766 0.2265 0.09556 0.0
C1802 C 0.21906 0.25479 0.07952 0.0
C1803 C 0.22318 0.2439 0.06357 0.0
N1804 N 0.22147 0.21425 0.04727 0.0
N1805 N 0.19802 0.25737 0.10503 0.0
C1806 C 0.21774 0.2247 0.06278 0.0
C1807 C 0.20907 0.24644 0.09435 0.0
N1808 N 0.19633 0.20156 0.07484 0.0
N1809 N 0.22476 0.27315 0.0806 0.0
H1810 H 0.18748 0.25153 0.11311 0.0
H1811 H 0.1973 0.27191 0.10355 0.0
H1812 H 0.23218 0.27965 0.06996 0.0
H1813 H 0.22351 0.28124 0.09276 0.0
H1814 H 0.19489 0.19467 0.06188 0.0
H1815 H 0.18578 0.19812 0.0841 0.0
H1816 H 0.21951 0.19971 0.04673 0.0
H1817 H 0.22773 0.22 0.03551 0.0
C1818 C 0.84877 0.22602 0.09979 0.0
C1819 C 0.83951 0.22693 0.11715 0.0
C1820 C 0.81469 0.2459 0.10205 0.0
C1821 C 0.82309 0.2436 0.08438 0.0
N1822 N 0.84678 0.22955 0.06577 0.0
N1823 N 0.81202 0.23487 0.13412 0.0
C1824 C 0.83971 0.23302 0.08305 0.0
C1825 C 0.82203 0.23614 0.11811 0.0
N1826 N 0.86656 0.21916 0.09945 0.0
N1827 N 0.79976 0.25756 0.10356 0.0
H1828 H 0.8168 0.22771 0.1461 0.0
H1829 H 0.79828 0.23945 0.13502 0.0
H1830 H 0.79348 0.26434 0.09204 0.0
H1831 H 0.79444 0.2616 0.11639 0.0
H1832 H 0.87488 0.21993 0.08773 0.0
H1833 H 0.87371 0.21409 0.11141 0.0
H1834 H 0.85755 0.22017 0.06359 0.0
H1835 H 0.84098 0.23505 0.05331 0.0
C1836 C 0.75239 0.82677 0.07894 0.0
C1837 C 0.77137 0.82502 0.08539 0.0
C1838 C 0.77557 0.79962 0.06273 0.0
C1839 C 0.75704 0.80233 0.05501 0.0
N1840 N 0.72929 0.82131 0.05342 0.0
N1841 N 0.80234 0.81366 0.07966 0.0
C1842 C 0.74586 0.81677 0.06243 0.0
C1843 C 0.78337 0.81274 0.076 0.0
N1844 N 0.74042 0.83742 0.08891 0.0
N1845 N 0.78534 0.78384 0.05862 0.0
H1846 H 0.80865 0.82328 0.08914 0.0
H1847 H 0.81188 0.80628 0.0718 0.0
H1848 H 0.77998 0.7729 0.05018 0.0
H1849 H 0.79802 0.78049 0.0655 0.0
H1850 H 0.72597 0.83758 0.08607 0.0
H1851 H 0.74473 0.84499 0.10095 0.0
H1852 H 0.72142 0.83287 0.05713 0.0
H1853 H 0.72434 0.81464 0.04107 0.0
C1854 C 0.19766 0.77929 0.0978 0.0
C1855 C 0.19056 0.7974 0.09362 0.0
C1856 C 0.19769 0.79308 0.06032 0.0
C1857 C 0.20612 0.77575 0.06484 0.0
N1858 N 0.21638 0.75309 0.0877 0.0
N1859 N 0.1859 0.82272 0.07155 0.0
C1860 C 0.20669 0.76904 0.08356 0.0
C1861 C 0.19107 0.80461 0.07501 0.0
N1862 N 0.1953 0.77173 0.11523 0.0
N1863 N 0.19585 0.79831 0.04188 0.0
H1864 H 0.18098 0.83158 0.08194 0.0
H1865 H 0.18779 0.82948 0.05879 0.0
H1866 H 0.20091 0.79021 0.03094 0.0
H1867 H 0.18817 0.80982 0.03725 0.0
H1868 H 0.19847 0.7579 0.11862 0.0
H1869 H 0.18881 0.77886 0.126 0.0
H1870 H 0.21922 0.74842 0.10137 0.0
H1871 H 0.22276 0.74518 0.0774 0.0
C1872 C 0.24973 0.79773 0.93936 0.0
C1873 C 0.24136 0.81556 0.94129 0.0
C1874 C 0.25044 0.81598 0.97506 0.0
C1875 C 0.25982 0.7987 0.97285 0.0
N1876 N 0.27113 0.77463 0.95222 0.0
N1877 N 0.23646 0.84323 0.96001 0.0
C1878 C 0.2604 0.79012 0.95476 0.0
C1879 C 0.24248 0.82514 0.95889 0.0
N1880 N 0.24665 0.7876 0.92309 0.0
N1881 N 0.24895 0.8235 0.99267 0.0
H1882 H 0.23057 0.85035 0.94848 0.0
H1883 H 0.23865 0.85171 0.97189 0.0
H1884 H 0.25551 0.81777 1.00465 0.0
H1885 H 0.24038 0.83478 0.99559 0.0
H1886 H 0.25044 0.77363 0.92159 0.0
H1887 H 0.23878 0.79256 0.91153 0.0
H1888 H 0.27394 0.76918 0.93902 0.0
H1889 H 0.27855 0.76805 0.96314 0.0
C1890 C 0.25493 0.23141 0.93001 0.0
C1891 C 0.24713 0.21308 0.93207 0.0
C1892 C 0.2517 0.21572 0.96654 0.0
C1893 C 0.2595 0.23401 0.96438 0.0
N1894 N 0.27316 0.25717 0.94429 0.0
N1895 N 0.24201 0.18611 0.95168 0.0
C1896 C 0.26265 0.24112 0.94613 0.0
C1897 C 0.24682 0.20468 0.95018 0.0
N1898 N 0.254 0.24002 0.91283 0.0
N1899 N 0.24806 0.20931 0.98415 0.0
H1900 H 0.23836 0.17772 0.93999 0.0
H1901 H 0.24318 0.17864 0.96423 0.0
H1902 H 0.25199 0.21678 0.99638 0.0
H1903 H 0.2403 0.19712 0.98665 0.0
H1904 H 0.25739 0.25414 0.91088 0.0
H1905 H 0.24844 0.23349 0.90064 0.0
H1906 H 0.27751 0.26226 0.93141 0.0
H1907 H 0.27917 0.26437 0.95589 0.0
C1908 C 0.84545 0.20136 0.95912 0.0
C1909 C 0.84628 0.21241 0.94257 0.0
C1910 C 0.83191 0.23866 0.95892 0.0
C1911 C 0.8331 0.22837 0.9759 0.0
N1912 N 0.84187 0.20075 0.99303 0.0
N1913 N 0.8418 0.24205 0.9268 0.0
C1914 C 0.83998 0.20986 0.97621 0.0
C1915 C 0.83974 0.23116 0.94242 0.0
N1916 N 0.8496 0.1827 0.95836 0.0
N1917 N 0.82311 0.25556 0.95869 0.0
H1918 H 0.84729 0.23703 0.91437 0.0
H1919 H 0.83926 0.2564 0.92648 0.0
H1920 H 0.81763 0.26147 0.97074 0.0
H1921 H 0.81992 0.26301 0.94644 0.0
H1922 H 0.84763 0.17343 0.96942 0.0
H1923 H 0.85367 0.17611 0.94605 0.0
H1924 H 0.84863 0.18799 0.99476 0.0
H1925 H 0.83761 0.20662 1.00564 0.0
C1926 C 0.82726 0.80943 0.95403 0.0
C1927 C 0.82467 0.80382 0.93484 0.0
C1928 C 0.80534 0.7769 0.94465 0.0
C1929 C 0.80945 0.7815 0.96382 0.0
N1930 N 0.82638 0.8004 0.98697 0.0
N1931 N 0.81408 0.78024 0.91216 0.0
C1932 C 0.82101 0.7973 0.96855 0.0
C1933 C 0.8145 0.78697 0.93023 0.0
N1934 N 0.83501 0.82667 0.95836 0.0
N1935 N 0.79206 0.76339 0.94024 0.0
H1936 H 0.82083 0.78704 0.90127 0.0
H1937 H 0.80854 0.76709 0.90834 0.0
H1938 H 0.78478 0.75611 0.95046 0.0
H1939 H 0.78698 0.76068 0.92653 0.0
H1940 H 0.83552 0.83236 0.97191 0.0
H1941 H 0.83953 0.83603 0.94816 0.0
H1942 H 0.83634 0.81052 0.99133 0.0
H1943 H 0.82197 0.79171 0.9978 0.0
C1944 C 0.08534 0.23219 0.21969 0.0
C1945 C 0.10479 0.23653 0.22257 0.0
C1946 C 0.09693 0.26279 0.24324 0.0
C1947 C 0.07758 0.25972 0.23871 0.0
N1948 N 0.05326 0.24315 0.22085 0.0
N1949 N 0.12897 0.25821 0.23423 0.0
C1950 C 0.07176 0.24485 0.22642 0.0
C1951 C 0.11056 0.25249 0.23355 0.0
N1952 N 0.07984 0.21566 0.21116 0.0
N1953 N 0.10225 0.27494 0.25746 0.0
H1954 H 0.13937 0.25128 0.22709 0.0
H1955 H 0.13362 0.27083 0.24042 0.0
H1956 H 0.09262 0.28218 0.26532 0.0
H1957 H 0.11605 0.27634 0.26273 0.0
H1958 H 0.06597 0.21081 0.21034 0.0
H1959 H 0.08935 0.20594 0.20629 0.0
H1960 H 0.04825 0.23379 0.21047 0.0
H1961 H 0.0431 0.25227 0.22557 0.0
C1962 C 0.82507 0.10392 0.25949 0.0
C1963 C 0.83179 0.10185 0.24102 0.0
C1964 C 0.8228 0.0684 0.24108 0.0
C1965 C 0.81512 0.0708 0.25899 0.0
N1966 N 0.80617 0.09088 0.2842 0.0
N1967 N 0.83467 0.08303 0.21299 0.0
C1968 C 0.81545 0.08861 0.26789 0.0
C1969 C 0.82999 0.08431 0.23144 0.0
N1970 N 0.82849 0.12029 0.26926 0.0
N1971 N 0.8236 0.05074 0.23358 0.0
H1972 H 0.83999 0.0944 0.20553 0.0
H1973 H 0.83197 0.07119 0.20463 0.0
H1974 H 0.81822 0.03896 0.24035 0.0
H1975 H 0.83069 0.04755 0.22146 0.0
H1976 H 0.82573 0.12201 0.28344 0.0
H1977 H 0.83543 0.13184 0.26358 0.0
H1978 H 0.80402 0.10388 0.29046 0.0
H1979 H 0.7993 0.07977 0.29076 0.0
C1980 C 0.90233 0.80071 0.20173 0.0
C1981 C 0.90491 0.81846 0.19302 0.0
C1982 C 0.93886 0.81294 0.19217 0.0
C1983 C 0.93635 0.79587 0.20196 0.0
N1984 N 0.91659 0.77546 0.21973 0.0
N1985 N 0.92592 0.84299 0.18289 0.0
C1986 C 0.91831 0.79033 0.20781 0.0
C1987 C 0.9233 0.82502 0.18907 0.0
N1988 N 0.88463 0.79339 0.20349 0.0
N1989 N 0.95607 0.81725 0.18537 0.0
H1990 H 0.91488 0.85226 0.18065 0.0
H1991 H 0.9391 0.84924 0.1815 0.0
H1992 H 0.96765 0.80864 0.18756 0.0
H1993 H 0.95853 0.8285 0.17642 0.0
H1994 H 0.88199 0.77969 0.20786 0.0
H1995 H 0.87254 0.80039 0.19902 0.0
H1996 H 0.90412 0.77184 0.2261 0.0
H1997 H 0.9281 0.76782 0.22469 0.0
C1998 C 0.21778 0.94541 0.19364 0.0
C1999 C 0.1981 0.94471 0.18965 0.0
C2000 C 0.19601 0.97828 0.19716 0.0
C2001 C 0.21575 0.97916 0.20017 0.0
N2002 N 0.2459 0.96481 0.19906 0.0
N2003 N 0.16869 0.96064 0.18504 0.0
C2004 C 0.22677 0.96303 0.19777 0.0
C2005 C 0.18726 0.96123 0.19063 0.0
N2006 N 0.22775 0.92916 0.19392 0.0
N2007 N 0.18564 0.99361 0.20133 0.0
H2008 H 0.16173 0.9483 0.18061 0.0
H2009 H 0.16046 0.97252 0.18352 0.0
H2010 H 0.19176 1.00626 0.20606 0.0
H2011 H 0.17104 0.99348 0.20142 0.0
H2012 H 0.24171 0.92836 0.19865 0.0
H2013 H 0.22171 0.91608 0.19048 0.0
H2014 H 0.25502 0.95411 0.1958 0.0
H2015 H 0.25273 0.9776 0.2021 0.0
C2016 C 0.09178 0.81398 0.82562 0.0
C2017 C 0.10945 0.81276 0.81706 0.0
C2018 C 0.0941 0.79624 0.79003 0.0
C2019 C 0.07627 0.80021 0.79714 0.0
N2020 N 0.05772 0.81313 0.82146 0.0
N2021 N 0.12737 0.80399 0.79031 0.0
C2022 C 0.075 0.80895 0.81502 0.0
C2023 C 0.11064 0.80398 0.79914 0.0
N2024 N 0.09111 0.81973 0.84396 0.0
N2025 N 0.09514 0.78503 0.77446 0.0
H2026 H 0.13979 0.80957 0.7964 0.0
H2027 H 0.12871 0.7998 0.77637 0.0
H2028 H 0.08322 0.77898 0.76783 0.0
H2029 H 0.10769 0.78017 0.76936 0.0
H2030 H 0.07894 0.8193 0.85162 0.0
H2031 H 0.10313 0.82348 0.85206 0.0
H2032 H 0.05572 0.82152 0.83324 0.0
H2033 H 0.04526 0.80882 0.81442 0.0
C2034 C 0.23408 0.07545 0.79752 0.0
C2035 C 0.24293 0.09346 0.79884 0.0
C2036 C 0.26876 0.08201 0.78025 0.0
C2037 C 0.26137 0.06347 0.78138 0.0
N2038 N 0.2376 0.042 0.79203 0.0
N2039 N 0.2698 0.1135 0.79328 0.0
C2040 C 0.24405 0.06004 0.79008 0.0
C2041 C 0.26051 0.0967 0.79054 0.0
N2042 N 0.21604 0.07316 0.80311 0.0
N2043 N 0.28361 0.08558 0.7691 0.0
H2044 H 0.26438 0.12461 0.80088 0.0
H2045 H 0.28358 0.11593 0.78942 0.0
H2046 H 0.28972 0.0751 0.76119 0.0
H2047 H 0.28857 0.09905 0.76618 0.0
H2048 H 0.20813 0.06088 0.80082 0.0
H2049 H 0.2084 0.08412 0.80866 0.0
H2050 H 0.22632 0.03832 0.80024 0.0
H2051 H 0.24426 0.03048 0.78627 0.0
C2052 C 0.98404 0.24286 0.83056 0.0
C2053 C 0.96528 0.24213 0.82308 0.0
C2054 C 0.97441 0.26212 0.79689 0.0
C2055 C 0.99353 0.25993 0.80246 0.0
N2056 N 0.01701 0.24795 0.82432 0.0
N2057 N 0.94266 0.24982 0.79821 0.0
C2058 C 0.99851 0.25051 0.81942 0.0
C2059 C 0.96039 0.25167 0.80614 0.0
N2060 N 0.98795 0.2363 0.8483 0.0
N2061 N 0.96972 0.27426 0.78271 0.0
H2062 H 0.93192 0.24217 0.80436 0.0
H2063 H 0.93895 0.25461 0.78477 0.0
H2064 H 0.97979 0.28226 0.77594 0.0
H2065 H 0.95595 0.27784 0.77906 0.0
H2066 H 1.001 0.23795 0.85525 0.0
H2067 H 0.97761 0.23063 0.85673 0.0
H2068 H 0.02158 0.23924 0.83523 0.0
H2069 H 0.02791 0.25382 0.81676 0.0
C2070 C 0.81064 0.94511 0.80579 0.0
C2071 C 0.812 0.94408 0.82573 0.0
C2072 C 0.79472 0.97366 0.82803 0.0
C2073 C 0.79495 0.97557 0.80815 0.0
N2074 N 0.80447 0.96396 0.77799 0.0
N2075 N 0.80696 0.95786 0.8561 0.0
C2076 C 0.80331 0.96152 0.79701 0.0
C2077 C 0.80439 0.95846 0.83694 0.0
N2078 N 0.81584 0.93009 0.7952 0.0
N2079 N 0.78512 0.98631 0.83835 0.0
H2080 H 0.81361 0.94678 0.86305 0.0
H2081 H 0.80363 0.96881 0.86507 0.0
H2082 H 0.77848 0.9979 0.83234 0.0
H2083 H 0.78264 0.98472 0.85261 0.0
H2084 H 0.81316 0.92893 0.78074 0.0
H2085 H 0.82151 0.91794 0.80107 0.0
H2086 H 0.81247 0.95558 0.76944 0.0
H2087 H 0.79837 0.97511 0.77075 0.0
C2088 C 0.22317 0.09748 0.24284 0.0
C2089 C 0.21049 0.09627 0.22693 0.0
C2090 C 0.20699 0.06219 0.23232 0.0
C2091 C 0.21741 0.06407 0.24967 0.0
N2092 N 0.23299 0.08425 0.27293 0.0
N2093 N 0.18837 0.07765 0.20784 0.0
C2094 C 0.22495 0.08191 0.25528 0.0
C2095 C 0.20211 0.07859 0.22179 0.0
N2096 N 0.23358 0.11354 0.24601 0.0
N2097 N 0.20116 0.04475 0.22625 0.0
H2098 H 0.18387 0.0893 0.2002 0.0
H2099 H 0.18024 0.06566 0.20486 0.0
H2100 H 0.20367 0.03264 0.23408 0.0
H2101 H 0.19529 0.0421 0.21283 0.0
H2102 H 0.24387 0.11495 0.25673 0.0
H2103 H 0.23316 0.12491 0.23679 0.0
H2104 H 0.23673 0.09731 0.2787 0.0
H2105 H 0.23476 0.0732 0.28239 0.0
C2106 C 0.23571 0.9527 0.81639 0.0
C2107 C 0.24305 0.9343 0.81787 0.0
C2108 C 0.27249 0.94548 0.8044 0.0
C2109 C 0.26579 0.96407 0.80458 0.0
N2110 N 0.2422 0.98609 0.81258 0.0
N2111 N 0.26928 0.9135 0.81562 0.0
C2112 C 0.24767 0.96787 0.81104 0.0
C2113 C 0.26168 0.93075 0.81244 0.0
N2114 N 0.21718 0.95556 0.81964 0.0
N2115 N 0.28904 0.94193 0.79608 0.0
H2116 H 0.26183 0.90234 0.8214 0.0
H2117 H 0.28339 0.9106 0.81388 0.0
H2118 H 0.29721 0.95253 0.7902 0.0
H2119 H 0.29391 0.92847 0.79363 0.0
H2120 H 0.21047 0.9682 0.81701 0.0
H2121 H 0.20806 0.94478 0.82356 0.0
H2122 H 0.22998 0.99012 0.81896 0.0
H2123 H 0.25069 0.99739 0.80867 0.0
C2124 C 0.10301 0.20424 0.8048 0.0
C2125 C 0.12062 0.21381 0.80397 0.0
C2126 C 0.10637 0.23706 0.78262 0.0
C2127 C 0.08853 0.22848 0.78486 0.0
N2128 N 0.06912 0.20612 0.80067 0.0
N2129 N 0.13839 0.24123 0.79486 0.0
C2130 C 0.08664 0.21266 0.79668 0.0
C2131 C 0.12212 0.23079 0.79365 0.0
N2132 N 0.102 0.18682 0.81273 0.0
N2133 N 0.10833 0.25078 0.76944 0.0
H2134 H 0.15012 0.23724 0.80301 0.0
H2135 H 0.13969 0.25463 0.78919 0.0
H2136 H 0.09709 0.25536 0.76091 0.0
H2137 H 0.12128 0.25635 0.76574 0.0
H2138 H 0.08994 0.17836 0.81198 0.0
H2139 H 0.11368 0.18009 0.81866 0.0
H2140 H 0.06668 0.19585 0.81072 0.0
H2141 H 0.05691 0.2122 0.79512 0.0
C2142 C 0.85332 0.10529 0.78371 0.0
C2143 C 0.86058 0.10291 0.80244 0.0
C2144 C 0.85534 0.06883 0.79964 0.0
C2145 C 0.84635 0.07149 0.78179 0.0
N2146 N 0.83516 0.09181 0.75716 0.0
N2147 N 0.86715 0.08283 0.82907 0.0
C2148 C 0.84501 0.08962 0.77385 0.0
C2149 C 0.86138 0.08475 0.8106 0.0
N2150 N 0.85471 0.12246 0.77529 0.0
N2151 N 0.85813 0.05097 0.80597 0.0
H2152 H 0.87179 0.09413 0.8375 0.0
H2153 H 0.86618 0.0703 0.83648 0.0
H2154 H 0.85354 0.03916 0.79824 0.0
H2155 H 0.86616 0.04776 0.81803 0.0
H2156 H 0.85135 0.12476 0.76111 0.0
H2157 H 0.86062 0.13424 0.78216 0.0
H2158 H 0.83174 0.10481 0.75147 0.0
H2159 H 0.82938 0.08044 0.7495 0.0
C2160 C 0.9413 0.83193 0.79007 0.0
C2161 C 0.94356 0.83697 0.80943 0.0
C2162 C 0.97789 0.83508 0.8072 0.0
C2163 C 0.97549 0.82892 0.78827 0.0
N2164 N 0.9552 0.81823 0.76256 0.0
N2165 N 0.96373 0.84051 0.83729 0.0
C2166 C 0.95724 0.82642 0.77996 0.0
C2167 C 0.96182 0.83777 0.81825 0.0
N2168 N 0.92402 0.83307 0.78115 0.0
N2169 N 0.99561 0.83881 0.81438 0.0
H2170 H 0.9523 0.84245 0.84581 0.0
H2171 H 0.97643 0.83939 0.8449 0.0
H2172 H 1.00754 0.83676 0.80658 0.0
H2173 H 0.99845 0.84518 0.82742 0.0
H2174 H 0.92181 0.83154 0.76665 0.0
H2175 H 0.91202 0.83706 0.78802 0.0
H2176 H 0.94228 0.81409 0.75645 0.0
H2177 H 0.96665 0.81408 0.7549 0.0
C2178 C 0.77002 0.94775 0.22461 0.0
C2179 C 0.78758 0.94866 0.2158 0.0
C2180 C 0.79326 0.98034 0.22881 0.0
C2181 C 0.77719 0.97822 0.23985 0.0
N2182 N 0.75031 0.95992 0.24888 0.0
N2183 N 0.81651 0.96531 0.20999 0.0
C2184 C 0.76539 0.96204 0.23771 0.0
C2185 C 0.79928 0.96493 0.21784 0.0
N2186 N 0.75774 0.93329 0.22029 0.0
N2187 N 0.80259 0.99727 0.22869 0.0
H2188 H 0.82126 0.95448 0.20156 0.0
H2189 H 0.82662 0.97577 0.21278 0.0
H2190 H 0.7983 1.00884 0.23642 0.0
H2191 H 0.81338 1.00044 0.21968 0.0
H2192 H 0.74399 0.93269 0.22475 0.0
H2193 H 0.76081 0.92254 0.21092 0.0
H2194 H 0.74252 0.94749 0.24982 0.0
H2195 H 0.74611 0.97041 0.25802 0.0
C2196 C 0.07126 0.80149 0.21423 0.0
C2197 C 0.07066 0.82118 0.21174 0.0
C2198 C 0.03853 0.82133 0.22324 0.0
C2199 C 0.03818 0.8014 0.22277 0.0
N2200 N 0.05382 0.77227 0.21647 0.0
N2201 N 0.05397 0.85022 0.21343 0.0
C2202 C 0.0545 0.79141 0.21807 0.0
C2203 C 0.05443 0.83128 0.21639 0.0
N2204 N 0.08797 0.79244 0.21306 0.0
N2205 N 0.02357 0.83069 0.22998 0.0
H2206 H 0.06553 0.85791 0.2089 0.0
H2207 H 0.04193 0.85818 0.21447 0.0
H2208 H 0.01159 0.82377 0.23461 0.0
H2209 H 0.02354 0.84512 0.23233 0.0
H2210 H 0.08978 0.77842 0.21672 0.0
H2211 H 0.10052 0.7994 0.21014 0.0
H2212 H 0.06445 0.76442 0.21078 0.0
H2213 H 0.04204 0.76422 0.21956 0.0
C2214 C 0.97679 0.21572 0.25227 0.0
C2215 C 0.95832 0.22237 0.25474 0.0
C2216 C 0.9711 0.24573 0.27751 0.0
C2217 C 0.98951 0.24147 0.27227 0.0
N2218 N 1.0103 0.2227 0.25444 0.0
N2219 N 0.93807 0.24532 0.26834 0.0
C2220 C 0.9925 0.22636 0.25975 0.0
C2221 C 0.95546 0.23764 0.26723 0.0
N2222 N 0.97926 0.19912 0.24304 0.0
N2223 N 0.96865 0.25773 0.29222 0.0
H2224 H 0.92631 0.24036 0.26057 0.0
H2225 H 0.93564 0.25771 0.27565 0.0
H2226 H 0.97999 0.26359 0.30002 0.0
H2227 H 0.95563 0.2602 0.29787 0.0
H2228 H 0.99223 0.1927 0.24223 0.0
H2229 H 0.96804 0.19087 0.23767 0.0
H2230 H 0.01329 0.21347 0.24358 0.0
H2231 H 0.02209 0.22967 0.26043 0.0
C2232 C 0.21876 0.75117 0.56111 0.0
C2233 C 0.21041 0.733 0.56234 0.0
C2234 C 0.21358 0.72861 0.52831 0.0
C2235 C 0.22466 0.7453 0.52774 0.0
N2236 N 0.23886 0.77218 0.54383 0.0
N2237 N 0.20078 0.70371 0.54743 0.0
C2238 C 0.22729 0.7567 0.54413 0.0
C2239 C 0.20783 0.7216 0.54596 0.0
N2240 N 0.21837 0.76318 0.57615 0.0
N2241 N 0.20852 0.71954 0.51185 0.0
H2242 H 0.19635 0.69806 0.56007 0.0
H2243 H 0.20058 0.69397 0.53645 0.0
H2244 H 0.21243 0.72454 0.49873 0.0
H2245 H 0.19905 0.70825 0.51099 0.0
H2246 H 0.22252 0.77725 0.57555 0.0
H2247 H 0.2123 0.75953 0.58879 0.0
H2248 H 0.24337 0.77958 0.5559 0.0
H2249 H 0.24491 0.77706 0.53163 0.0
C2250 C 0.83004 0.72224 0.58268 0.0
C2251 C 0.82124 0.72145 0.60029 0.0
C2252 C 0.7931 0.7362 0.58604 0.0
C2253 C 0.802 0.73707 0.56851 0.0
N2254 N 0.82664 0.72693 0.54884 0.0
N2255 N 0.79309 0.72373 0.61786 0.0
C2256 C 0.81975 0.72873 0.56646 0.0
C2257 C 0.8023 0.72716 0.60166 0.0
N2258 N 0.84853 0.71763 0.58165 0.0
N2259 N 0.77631 0.74486 0.58801 0.0
H2260 H 0.79947 0.71732 0.62957 0.0
H2261 H 0.77878 0.72582 0.61922 0.0
H2262 H 0.76892 0.75097 0.57673 0.0
H2263 H 0.77014 0.74684 0.6009 0.0
H2264 H 0.85639 0.71993 0.5698 0.0
H2265 H 0.85649 0.71266 0.59315 0.0
H2266 H 0.83866 0.71948 0.54598 0.0
H2267 H 0.81924 0.7314 0.53676 0.0
C2268 C 0.79652 0.32511 0.60185 0.0
C2269 C 0.81605 0.32919 0.60417 0.0
C2270 C 0.82157 0.31485 0.57347 0.0
C2271 C 0.80199 0.31189 0.57064 0.0
N2272 N 0.77048 0.31585 0.58051 0.0
N2273 N 0.84695 0.33045 0.59143 0.0
C2274 C 0.78935 0.31748 0.58442 0.0
C2275 C 0.82853 0.32479 0.58973 0.0
N2276 N 0.78498 0.32813 0.61648 0.0
N2277 N 0.83348 0.30749 0.56086 0.0
H2278 H 0.85264 0.33747 0.60329 0.0
H2279 H 0.85631 0.32946 0.58057 0.0
H2280 H 0.82865 0.30009 0.5489 0.0
H2281 H 0.84801 0.30736 0.56294 0.0
H2282 H 0.77099 0.32369 0.61646 0.0
H2283 H 0.78972 0.33408 0.62927 0.0
H2284 H 0.76031 0.32125 0.58907 0.0
H2285 H 0.76498 0.31014 0.56788 0.0
C2286 C 0.23107 0.29595 0.61597 0.0
C2287 C 0.22118 0.31259 0.61135 0.0
C2288 C 0.2223 0.30449 0.57769 0.0
C2289 C 0.23342 0.28877 0.5823 0.0
N2290 N 0.25173 0.27166 0.60536 0.0
N2291 N 0.21003 0.33438 0.58771 0.0
C2292 C 0.23874 0.28509 0.60134 0.0
C2293 C 0.21751 0.31734 0.59214 0.0
N2294 N 0.23255 0.29014 0.63427 0.0
N2295 N 0.21591 0.3068 0.5595 0.0
H2296 H 0.20654 0.3442 0.5979 0.0
H2297 H 0.20875 0.33946 0.57401 0.0
H2298 H 0.21925 0.29758 0.54871 0.0
H2299 H 0.20616 0.31686 0.55537 0.0
H2300 H 0.23785 0.27713 0.63823 0.0
H2301 H 0.22696 0.29755 0.64539 0.0
H2302 H 0.25771 0.2696 0.61878 0.0
H2303 H 0.25789 0.26378 0.59492 0.0
C2304 C 0.25319 0.32675 0.46894 0.0
C2305 C 0.2475 0.3164 0.4525 0.0
C2306 C 0.25346 0.28682 0.469 0.0
C2307 C 0.25906 0.2971 0.48558 0.0
N2308 N 0.26756 0.32655 0.50059 0.0
N2309 N 0.24626 0.28712 0.43535 0.0
C2310 C 0.26013 0.31701 0.48525 0.0
C2311 C 0.24901 0.29659 0.45206 0.0
N2312 N 0.25128 0.34582 0.46912 0.0
N2313 N 0.25168 0.26768 0.46961 0.0
H2314 H 0.24243 0.29372 0.42274 0.0
H2315 H 0.24929 0.27299 0.43357 0.0
H2316 H 0.25556 0.25979 0.48137 0.0
H2317 H 0.24527 0.25959 0.45887 0.0
H2318 H 0.25312 0.35413 0.48115 0.0
H2319 H 0.24691 0.35336 0.45722 0.0
H2320 H 0.27036 0.34094 0.50078 0.0
H2321 H 0.27223 0.31982 0.51287 0.0
C2322 C 0.21856 0.69356 0.41085 0.0
C2323 C 0.21437 0.7056 0.39541 0.0
C2324 C 0.22879 0.73234 0.41293 0.0
C2325 C 0.23434 0.72001 0.4277 0.0
N2326 N 0.23523 0.68916 0.44104 0.0
N2327 N 0.21617 0.73607 0.38091 0.0
C2328 C 0.22933 0.70068 0.42674 0.0
C2329 C 0.21958 0.72493 0.39628 0.0
N2330 N 0.21203 0.67538 0.41033 0.0
N2331 N 0.23224 0.75118 0.41493 0.0
H2332 H 0.2087 0.73139 0.36884 0.0
H2333 H 0.22153 0.74965 0.37958 0.0
H2334 H 0.23948 0.75699 0.42659 0.0
H2335 H 0.22693 0.76129 0.40575 0.0
H2336 H 0.213 0.66622 0.42167 0.0
H2337 H 0.20458 0.66962 0.39871 0.0
H2338 H 0.23396 0.6746 0.44066 0.0
H2339 H 0.24219 0.69427 0.45325 0.0
C2340 C 0.8219 0.7455 0.43535 0.0
C2341 C 0.8301 0.7276 0.43812 0.0
C2342 C 0.82874 0.7317 0.4724 0.0
C2343 C 0.81942 0.7489 0.46953 0.0
N2344 N 0.80445 0.77103 0.44879 0.0
N2345 N 0.83889 0.70232 0.45896 0.0
C2346 C 0.81524 0.75547 0.45112 0.0
C2347 C 0.83288 0.72032 0.45659 0.0
N2348 N 0.82112 0.75326 0.41777 0.0
N2349 N 0.83392 0.72652 0.49032 0.0
H2350 H 0.84196 0.69358 0.44769 0.0
H2351 H 0.83945 0.6955 0.47189 0.0
H2352 H 0.83083 0.73458 0.50208 0.0
H2353 H 0.84241 0.71512 0.49348 0.0
H2354 H 0.81715 0.76704 0.41516 0.0
H2355 H 0.82583 0.74641 0.40587 0.0
H2356 H 0.79909 0.7755 0.43576 0.0
H2357 H 0.79968 0.77871 0.46016 0.0
C2358 C 0.82018 0.28947 0.48059 0.0
C2359 C 0.81782 0.28376 0.46146 0.0
C2360 C 0.80452 0.25352 0.47183 0.0
C2361 C 0.80928 0.25834 0.49088 0.0
N2362 N 0.82456 0.27981 0.51307 0.0
N2363 N 0.80902 0.25966 0.43868 0.0
C2364 C 0.8177 0.27611 0.49521 0.0
C2365 C 0.81004 0.26569 0.457 0.0
N2366 N 0.82456 0.3078 0.48482 0.0
N2367 N 0.79499 0.23706 0.46792 0.0
H2368 H 0.81303 0.268 0.42745 0.0
H2369 H 0.80549 0.24596 0.4346 0.0
H2370 H 0.79167 0.22741 0.47834 0.0
H2371 H 0.78912 0.23361 0.4547 0.0
H2372 H 0.82457 0.31323 0.49847 0.0
H2373 H 0.82638 0.31796 0.47448 0.0
H2374 H 0.83314 0.29141 0.51644 0.0
H2375 H 0.82269 0.27064 0.52429 0.0
C2376 C 0.11577 0.76406 0.70574 0.0
C2377 C 0.11151 0.74558 0.69898 0.0
C2378 C 0.07821 0.75017 0.70541 0.0
C2379 C 0.08274 0.768 0.7134 0.0
N2380 N 0.10609 0.79043 0.72466 0.0
N2381 N 0.08931 0.71973 0.69564 0.0
C2382 C 0.10163 0.77452 0.71456 0.0
C2383 C 0.09288 0.73824 0.69976 0.0
N2384 N 0.13308 0.77193 0.70304 0.0
N2385 N 0.05979 0.74493 0.70267 0.0
H2386 H 0.09974 0.71053 0.69172 0.0
H2387 H 0.07644 0.71308 0.69774 0.0
H2388 H 0.0488 0.75349 0.7065 0.0
H2389 H 0.05537 0.73294 0.69519 0.0
H2390 H 0.13633 0.786 0.70584 0.0
H2391 H 0.14377 0.76485 0.69649 0.0
H2392 H 0.11984 0.79492 0.72778 0.0
H2393 H 0.09602 0.79824 0.73139 0.0
C2394 C 0.82948 0.61476 0.75476 0.0
C2395 C 0.83784 0.61077 0.73736 0.0
C2396 C 0.8372 0.57712 0.74475 0.0
C2397 C 0.82769 0.58107 0.76142 0.0
N2398 N 0.81088 0.60286 0.78014 0.0
N2399 N 0.84631 0.58798 0.71404 0.0
C2400 C 0.82268 0.59969 0.76579 0.0
C2401 C 0.84072 0.59186 0.73182 0.0
N2402 N 0.82875 0.63285 0.76116 0.0
N2403 N 0.84339 0.55936 0.74166 0.0
H2404 H 0.84873 0.59841 0.70411 0.0
H2405 H 0.8469 0.57442 0.70857 0.0
H2406 H 0.84111 0.54838 0.75102 0.0
H2407 H 0.85206 0.55588 0.73074 0.0
H2408 H 0.82462 0.63635 0.77463 0.0
H2409 H 0.83384 0.64431 0.75369 0.0
H2410 H 0.80515 0.61592 0.78284 0.0
H2411 H 0.80536 0.59202 0.78819 0.0
C2412 C 0.96438 0.33436 0.71731 0.0
C2413 C 0.94637 0.32549 0.71729 0.0
C2414 C 0.96084 0.29595 0.72753 0.0
C2415 C 0.97881 0.30441 0.72603 0.0
N2416 N 0.99827 0.33065 0.71774 0.0
N2417 N 0.92738 0.29732 0.72003 0.0
C2418 C 0.98073 0.32337 0.72044 0.0
C2419 C 0.94456 0.30613 0.72184 0.0
N2420 N 0.96578 0.35336 0.71486 0.0
N2421 N 0.95943 0.27828 0.7348 0.0
H2422 H 0.91513 0.3043 0.71603 0.0
H2423 H 0.92542 0.28286 0.72117 0.0
H2424 H 0.97119 0.27045 0.73867 0.0
H2425 H 0.94677 0.27194 0.73829 0.0
H2426 H 0.9783 0.361 0.71653 0.0
H2427 H 0.95409 0.3618 0.71256 0.0
H2428 H 1.00079 0.34377 0.71186 0.0
H2429 H 1.01041 0.3229 0.72019 0.0
C2430 C 0.2287 0.47298 0.70941 0.0
C2431 C 0.22909 0.45658 0.72072 0.0
C2432 C 0.2489 0.47314 0.74473 0.0
C2433 C 0.24846 0.48951 0.73341 0.0
N2434 N 0.23428 0.50666 0.70767 0.0
N2435 N 0.23558 0.44227 0.7509 0.0
C2436 C 0.23709 0.48992 0.71662 0.0
C2437 C 0.23792 0.45708 0.73898 0.0
N2438 N 0.22115 0.47212 0.69144 0.0
N2439 N 0.26057 0.47258 0.76041 0.0
H2440 H 0.22768 0.43029 0.74711 0.0
H2441 H 0.24007 0.44252 0.76503 0.0
H2442 H 0.26821 0.48426 0.76546 0.0
H2443 H 0.26347 0.46032 0.76784 0.0
H2444 H 0.22233 0.48298 0.68177 0.0
H2445 H 0.21486 0.45999 0.68563 0.0
H2446 H 0.2248 0.50835 0.69631 0.0
H2447 H 0.24014 0.51928 0.71283 0.0
C2448 C 0.11203 0.28897 0.33902 0.0
C2449 C 0.114 0.30876 0.33712 0.0
C2450 C 0.0842 0.30945 0.3186 0.0
C2451 C 0.08164 0.2898 0.3214 0.0
N2452 N 0.09128 0.26155 0.33724 0.0
N2453 N 0.10003 0.33833 0.32888 0.0
C2454 C 0.09503 0.27978 0.33254 0.0
C2455 C 0.09944 0.31914 0.32813 0.0
N2456 N 0.12671 0.27885 0.3463 0.0
N2457 N 0.0729 0.31874 0.30587 0.0
H2458 H 0.11101 0.34591 0.33564 0.0
H2459 H 0.08886 0.34665 0.32438 0.0
H2460 H 0.06183 0.31232 0.29816 0.0
H2461 H 0.07555 0.33248 0.30163 0.0
H2462 H 0.12699 0.26424 0.34609 0.0
H2463 H 0.1393 0.28506 0.3513 0.0
H2464 H 0.09953 0.25397 0.34683 0.0
H2465 H 0.07891 0.25451 0.33286 0.0
C2466 C 0.22654 0.59273 0.24794 0.0
C2467 C 0.21399 0.59158 0.263 0.0
C2468 C 0.21902 0.55768 0.26486 0.0
C2469 C 0.2339 0.55943 0.25228 0.0
N2470 N 0.25284 0.57887 0.2325 0.0
N2471 N 0.2001 0.57319 0.28758 0.0
C2472 C 0.23778 0.57697 0.24374 0.0
C2473 C 0.2105 0.57406 0.2718 0.0
N2474 N 0.22756 0.60881 0.23758 0.0
N2475 N 0.2131 0.54023 0.27023 0.0
H2476 H 0.19405 0.58488 0.29362 0.0
H2477 H 0.19892 0.56115 0.29576 0.0
H2478 H 0.21901 0.528 0.26517 0.0
H2479 H 0.20116 0.53788 0.27797 0.0
H2480 H 0.23514 0.60993 0.22537 0.0
H2481 H 0.21943 0.62051 0.24026 0.0
H2482 H 0.25786 0.59179 0.22785 0.0
H2483 H 0.26101 0.56755 0.2287 0.0
C2484 C 0.92809 0.7334 0.28276 0.0
C2485 C 0.93017 0.73387 0.30269 0.0
C2486 C 0.95563 0.75745 0.30073 0.0
C2487 C 0.95414 0.75618 0.28081 0.0
N2488 N 0.94203 0.73995 0.25289 0.0
N2489 N 0.94753 0.74396 0.33081 0.0
C2490 C 0.94125 0.74327 0.27183 0.0
C2491 C 0.94445 0.74522 0.31174 0.0
N2492 N 0.91311 0.72405 0.27426 0.0
N2493 N 0.96734 0.7707 0.30905 0.0
H2494 H 0.9395 0.73525 0.33925 0.0
H2495 H 0.95886 0.75038 0.33809 0.0
H2496 H 0.97599 0.77952 0.30135 0.0
H2497 H 0.96766 0.7738 0.3234 0.0
H2498 H 0.90958 0.72509 0.25995 0.0
H2499 H 0.90324 0.71643 0.28172 0.0
H2500 H 0.93441 0.72926 0.2459 0.0
H2501 H 0.95161 0.7467 0.24437 0.0
C2502 C 0.78735 0.42419 0.34586 0.0
C2503 C 0.80504 0.42591 0.35568 0.0
C2504 C 0.80364 0.4603 0.35293 0.0
C2505 C 0.78683 0.4584 0.34178 0.0
N2506 N 0.76425 0.4387 0.32485 0.0
N2507 N 0.83142 0.44535 0.36634 0.0
C2508 C 0.7791 0.44037 0.33751 0.0
C2509 C 0.81357 0.44393 0.35866 0.0
N2510 N 0.77817 0.40718 0.34501 0.0
N2511 N 0.80979 0.47782 0.35839 0.0
H2512 H 0.83912 0.43371 0.37068 0.0
H2513 H 0.83916 0.45787 0.36708 0.0
H2514 H 0.80277 0.48997 0.35428 0.0
H2515 H 0.82089 0.48027 0.3681 0.0
H2516 H 0.76441 0.4054 0.33976 0.0
H2517 H 0.7837 0.39504 0.35104 0.0
H2518 H 0.75917 0.42589 0.3195 0.0
H2519 H 0.75802 0.4503 0.31844 0.0
C2520 C 0.25635 0.61979 0.69627 0.0
C2521 C 0.23698 0.61705 0.6912 0.0
C2522 C 0.23989 0.58325 0.69769 0.0
C2523 C 0.25881 0.58626 0.70392 0.0
N2524 N 0.28433 0.60748 0.71215 0.0
N2525 N 0.20952 0.59679 0.68991 0.0
C2526 C 0.26683 0.60459 0.70406 0.0
C2527 C 0.22852 0.59892 0.6927 0.0
N2528 N 0.2649 0.63672 0.69298 0.0
N2529 N 0.23301 0.56528 0.69603 0.0
H2530 H 0.20077 0.60793 0.68633 0.0
H2531 H 0.2022 0.58438 0.69262 0.0
H2532 H 0.24108 0.55364 0.69962 0.0
H2533 H 0.21997 0.56181 0.68977 0.0
H2534 H 0.27934 0.63903 0.69447 0.0
H2535 H 0.25774 0.64817 0.6873 0.0
H2536 H 0.2903 0.62074 0.71464 0.0
H2537 H 0.29229 0.59657 0.71782 0.0
C2538 C 0.25451 0.43064 0.305 0.0
C2539 C 0.24119 0.43335 0.31915 0.0
C2540 C 0.24168 0.46716 0.31245 0.0
C2541 C 0.25214 0.46386 0.29628 0.0
N2542 N 0.26757 0.4423 0.27611 0.0
N2543 N 0.22041 0.45425 0.33498 0.0
C2544 C 0.25857 0.44558 0.29241 0.0
C2545 C 0.23453 0.4517 0.32275 0.0
N2546 N 0.26343 0.41386 0.30375 0.0
N2547 N 0.2383 0.48524 0.31758 0.0
H2548 H 0.21417 0.44328 0.34228 0.0
H2549 H 0.21369 0.46699 0.33665 0.0
H2550 H 0.24341 0.49666 0.31002 0.0
H2551 H 0.23215 0.48888 0.33013 0.0
H2552 H 0.27446 0.4116 0.29485 0.0
H2553 H 0.26098 0.40276 0.31293 0.0
H2554 H 0.27064 0.4289 0.27131 0.0
H2555 H 0.27093 0.45299 0.26677 0.0
C2556 C 0.06705 0.70567 0.28031 0.0
C2557 C 0.08351 0.70633 0.26962 0.0
C2558 C 0.0653 0.71864 0.24244 0.0
C2559 C 0.04915 0.71883 0.25342 0.0
N2560 N 0.03447 0.71469 0.28299 0.0
N2561 N 0.09909 0.71491 0.24128 0.0
C2562 C 0.04998 0.7129 0.27242 0.0
C2563 C 0.08286 0.71325 0.25086 0.0
N2564 N 0.06772 0.69782 0.29786 0.0
N2565 N 0.06359 0.72329 0.22382 0.0
H2566 H 0.11207 0.71056 0.2468 0.0
H2567 H 0.10004 0.72153 0.22832 0.0
H2568 H 0.05089 0.72753 0.21753 0.0
H2569 H 0.07425 0.72193 0.21432 0.0
H2570 H 0.05592 0.69501 0.30563 0.0
H2571 H 0.08012 0.69309 0.30437 0.0
H2572 H 0.03444 0.71257 0.29747 0.0
H2573 H 0.02169 0.71945 0.27736 0.0
C2574 C 0.80923 0.58419 0.33426 0.0
C2575 C 0.82344 0.59192 0.32301 0.0
C2576 C 0.82203 0.5632 0.30342 0.0
C2577 C 0.80666 0.55641 0.31372 0.0
N2578 N 0.78197 0.56368 0.3349 0.0
N2579 N 0.84074 0.59032 0.29448 0.0
C2580 C 0.79918 0.56786 0.32795 0.0
C2581 C 0.82912 0.58186 0.30687 0.0
N2582 N 0.80575 0.59195 0.35139 0.0
N2583 N 0.83028 0.5517 0.29082 0.0
H2584 H 0.84588 0.60403 0.29633 0.0
H2585 H 0.84388 0.58441 0.28156 0.0
H2586 H 0.82544 0.53804 0.28795 0.0
H2587 H 0.84275 0.55516 0.28438 0.0
H2588 H 0.79677 0.58569 0.36086 0.0
H2589 H 0.81331 0.60346 0.35702 0.0
H2590 H 0.77518 0.57259 0.34402 0.0
H2591 H 0.77349 0.55256 0.3298 0.0
C2592 C 0.95653 0.32309 0.34597 0.0
C2593 C 0.93823 0.32067 0.33752 0.0
C2594 C 0.95225 0.31047 0.30809 0.0
C2595 C 0.9704 0.31478 0.31592 0.0
N2596 N 0.98992 0.32756 0.34127 0.0
N2597 N 0.91865 0.31478 0.30958 0.0
C2598 C 0.97256 0.3217 0.33462 0.0
C2599 C 0.93608 0.31505 0.31831 0.0
N2600 N 0.9586 0.32614 0.36495 0.0
N2601 N 0.95054 0.30142 0.29111 0.0
H2602 H 0.90648 0.31815 0.31649 0.0
H2603 H 0.91641 0.31277 0.29513 0.0
H2604 H 0.96213 0.29772 0.28345 0.0
H2605 H 0.93784 0.29606 0.28548 0.0
H2606 H 0.97154 0.32615 0.37227 0.0
H2607 H 0.94722 0.32705 0.37371 0.0
H2608 H 0.99226 0.33456 0.35406 0.0
H2609 H 1.00182 0.3268 0.33319 0.0
C2610 C 0.83076 0.46996 0.73054 0.0
C2611 C 0.82163 0.45217 0.73195 0.0
C2612 C 0.79947 0.46547 0.7539 0.0
C2613 C 0.80831 0.48335 0.75207 0.0
N2614 N 0.82925 0.50367 0.73547 0.0
N2615 N 0.79484 0.43389 0.74138 0.0
C2616 C 0.82296 0.4859 0.73931 0.0
C2617 C 0.80517 0.45023 0.7425 0.0
N2618 N 0.84741 0.47148 0.72165 0.0
N2619 N 0.78641 0.46275 0.76728 0.0
H2620 H 0.79861 0.42247 0.73317 0.0
H2621 H 0.78171 0.43227 0.7472 0.0
H2622 H 0.78162 0.47357 0.7757 0.0
H2623 H 0.78124 0.44955 0.77095 0.0
H2624 H 0.8558 0.48359 0.722 0.0
H2625 H 0.85367 0.46015 0.71513 0.0
H2626 H 0.83865 0.50671 0.72499 0.0
H2627 H 0.82362 0.51559 0.74156 0.0
C2628 C 0.10316 0.33707 0.75534 0.0
C2629 C 0.10694 0.33335 0.73619 0.0
C2630 C 0.07822 0.31411 0.73289 0.0
C2631 C 0.07335 0.31949 0.75134 0.0
N2632 N 0.0801 0.33729 0.77974 0.0
N2633 N 0.09651 0.32116 0.70573 0.0
C2634 C 0.08556 0.33127 0.76252 0.0
C2635 C 0.09403 0.32265 0.72468 0.0
N2636 N 0.1166 0.34567 0.76676 0.0
N2637 N 0.06818 0.30024 0.72347 0.0
H2638 H 0.10789 0.32725 0.69907 0.0
H2639 H 0.08641 0.31536 0.69634 0.0
H2640 H 0.05674 0.29324 0.72912 0.0
H2641 H 0.07233 0.29432 0.71088 0.0
H2642 H 0.11553 0.34711 0.78127 0.0
H2643 H 0.12957 0.35014 0.76192 0.0
H2644 H 0.08739 0.34748 0.78777 0.0
H2645 H 0.06747 0.33297 0.78546 0.0
C2646 C 0.97243 0.7307 0.72593 0.0
C2647 C 0.95359 0.734 0.7308 0.0
C2648 C 0.96521 0.75499 0.75636 0.0
C2649 C 0.98404 0.74998 0.7529 0.0
N2650 N 1.00512 0.7299 0.7366 0.0
N2651 N 0.93237 0.7458 0.75362 0.0
C2652 C 0.98751 0.7369 0.73831 0.0
C2653 C 0.95008 0.74509 0.74692 0.0
N2654 N 0.97598 0.72227 0.70915 0.0
N2655 N 0.9616 0.76995 0.76773 0.0
H2656 H 0.92095 0.73846 0.74743 0.0
H2657 H 0.92946 0.75212 0.76643 0.0
H2658 H 0.97207 0.77837 0.77418 0.0
H2659 H 0.94818 0.77529 0.76906 0.0
H2660 H 0.98942 0.72124 0.70399 0.0
H2661 H 0.96536 0.71797 0.69949 0.0
H2662 H 1.00808 0.71901 0.72739 0.0
H2663 H 0.01637 0.7336 0.74575 0.0
C2664 C 0.74158 0.20131 0.58847 0.0
C2665 C 0.73443 0.21326 0.60252 0.0
C2666 C 0.74477 0.24049 0.5841 0.0
C2667 C 0.75583 0.22859 0.57305 0.0
N2668 N 0.76413 0.19707 0.56423 0.0
N2669 N 0.71685 0.24188 0.60217 0.0
C2670 C 0.75408 0.20881 0.57511 0.0
C2671 C 0.73243 0.23241 0.59728 0.0
N2672 N 0.73377 0.18386 0.58562 0.0
N2673 N 0.74632 0.25955 0.58249 0.0
H2674 H 0.70566 0.23505 0.60851 0.0
H2675 H 0.7138 0.25534 0.59735 0.0
H2676 H 0.75509 0.26611 0.57301 0.0
H2677 H 0.73994 0.26874 0.59167 0.0
H2678 H 0.73719 0.1751 0.5745 0.0
H2679 H 0.72181 0.17954 0.59258 0.0
H2680 H 0.76481 0.18266 0.56668 0.0
H2681 H 0.77261 0.20186 0.55354 0.0
C2682 C 0.31646 0.23524 0.60384 0.0
C2683 C 0.33634 0.23676 0.60458 0.0
C2684 C 0.33511 0.25829 0.57754 0.0
C2685 C 0.31531 0.25591 0.57625 0.0
N2686 N 0.28763 0.23864 0.58516 0.0
N2687 N 0.36494 0.24717 0.59053 0.0
C2688 C 0.30614 0.24335 0.58853 0.0
C2689 C 0.34579 0.24755 0.59093 0.0
N2690 N 0.30735 0.22665 0.61815 0.0
N2691 N 0.34361 0.2712 0.56634 0.0
H2692 H 0.37314 0.23952 0.60016 0.0
H2693 H 0.37264 0.25317 0.57987 0.0
H2694 H 0.3362 0.27889 0.55614 0.0
H2695 H 0.3577 0.27516 0.56793 0.0
H2696 H 0.29286 0.22709 0.61951 0.0
H2697 H 0.31434 0.22043 0.62961 0.0
H2698 H 0.28069 0.22807 0.59239 0.0
H2699 H 0.27965 0.24397 0.57388 0.0
C2700 C 0.30363 0.79484 0.57531 0.0
C2701 C 0.31138 0.81309 0.57245 0.0
C2702 C 0.3096 0.80774 0.53823 0.0
C2703 C 0.30072 0.79013 0.54111 0.0
N2704 N 0.28557 0.76857 0.56183 0.0
N2705 N 0.31859 0.8383 0.5512 0.0
C2706 C 0.29666 0.78415 0.55952 0.0
C2707 C 0.31346 0.81996 0.55387 0.0
N2708 N 0.30364 0.78739 0.59302 0.0
N2709 N 0.31484 0.81248 0.52055 0.0
H2710 H 0.32127 0.8477 0.56233 0.0
H2711 H 0.31859 0.84465 0.53802 0.0
H2712 H 0.3122 0.80372 0.5089 0.0
H2713 H 0.32307 0.82426 0.51767 0.0
H2714 H 0.30004 0.77344 0.59567 0.0
H2715 H 0.30878 0.79464 0.60496 0.0
H2716 H 0.2804 0.76457 0.57476 0.0
H2717 H 0.28006 0.76062 0.55049 0.0
C2718 C 0.7238 0.8306 0.59127 0.0
C2719 C 0.72492 0.82016 0.6083 0.0
C2720 C 0.75019 0.80143 0.59559 0.0
C2721 C 0.74793 0.81077 0.57812 0.0
N2722 N 0.7302 0.83148 0.55795 0.0
N2723 N 0.73652 0.79318 0.62523 0.0
C2724 C 0.73402 0.82458 0.57556 0.0
C2725 C 0.73734 0.80481 0.61002 0.0
N2726 N 0.71368 0.84674 0.59033 0.0
N2727 N 0.76511 0.7899 0.59861 0.0
H2728 H 0.72703 0.79503 0.6359 0.0
H2729 H 0.74395 0.78073 0.62638 0.0
H2730 H 0.77502 0.78757 0.58844 0.0
H2731 H 0.76864 0.78408 0.61167 0.0
H2732 H 0.71401 0.85593 0.57898 0.0
H2733 H 0.70621 0.85183 0.60156 0.0
H2734 H 0.71891 0.84017 0.55476 0.0
H2735 H 0.73732 0.82711 0.54618 0.0
C2736 C 0.71594 0.80683 0.4688 0.0
C2737 C 0.71618 0.79732 0.45116 0.0
C2738 C 0.73691 0.77342 0.46525 0.0
C2739 C 0.73677 0.78308 0.48276 0.0
N2740 N 0.72239 0.80566 0.50262 0.0
N2741 N 0.72287 0.76926 0.43376 0.0
C2742 C 0.72491 0.79865 0.48496 0.0
C2743 C 0.72535 0.77981 0.4498 0.0
N2744 N 0.70821 0.82423 0.4699 0.0
N2745 N 0.74887 0.75884 0.46308 0.0
H2746 H 0.71444 0.77355 0.42229 0.0
H2747 H 0.72773 0.75562 0.43245 0.0
H2748 H 0.75693 0.7534 0.47427 0.0
H2749 H 0.7515 0.75277 0.4501 0.0
H2750 H 0.70954 0.83278 0.48182 0.0
H2751 H 0.70166 0.83085 0.45843 0.0
H2752 H 0.71264 0.81591 0.50554 0.0
H2753 H 0.72879 0.79981 0.51464 0.0
C2754 C 0.73316 0.23798 0.42589 0.0
C2755 C 0.72136 0.22194 0.42834 0.0
C2756 C 0.72463 0.22591 0.46265 0.0
C2757 C 0.73737 0.24108 0.46017 0.0
N2758 N 0.75703 0.25895 0.4399 0.0
N2759 N 0.70923 0.1982 0.44898 0.0
C2760 C 0.74263 0.24631 0.44189 0.0
C2761 C 0.71812 0.21515 0.44673 0.0
N2762 N 0.73461 0.24582 0.40847 0.0
N2763 N 0.71812 0.22234 0.48014 0.0
H2764 H 0.70458 0.18977 0.43763 0.0
H2765 H 0.70808 0.19169 0.462 0.0
H2766 H 0.72236 0.23022 0.492 0.0
H2767 H 0.70732 0.21272 0.48258 0.0
H2768 H 0.74144 0.25862 0.40623 0.0
H2769 H 0.72761 0.24043 0.39642 0.0
H2770 H 0.76286 0.26197 0.427 0.0
H2771 H 0.76434 0.26506 0.45143 0.0
C2772 C 0.32277 0.22262 0.45206 0.0
C2773 C 0.31361 0.20996 0.43905 0.0
C2774 C 0.28672 0.20791 0.45972 0.0
C2775 C 0.29673 0.21895 0.47349 0.0
N2776 N 0.32608 0.23298 0.48457 0.0
N2777 N 0.28849 0.18736 0.4326 0.0
C2778 C 0.3153 0.22521 0.47017 0.0
C2779 C 0.29602 0.20168 0.44348 0.0
N2780 N 0.33818 0.23276 0.44692 0.0
N2781 N 0.26811 0.20398 0.46184 0.0
H2782 H 0.29512 0.18196 0.42096 0.0
H2783 H 0.27664 0.17963 0.43622 0.0
H2784 H 0.26084 0.20872 0.47337 0.0
H2785 H 0.25956 0.1976 0.45137 0.0
H2786 H 0.34426 0.24351 0.4552 0.0
H2787 H 0.34376 0.23176 0.43359 0.0
H2788 H 0.3403 0.23621 0.48346 0.0
H2789 H 0.32132 0.23425 0.49821 0.0
C2790 C 0.28682 0.80581 0.41158 0.0
C2791 C 0.28768 0.82558 0.41416 0.0
C2792 C 0.27597 0.82213 0.44613 0.0
C2793 C 0.27518 0.80236 0.44352 0.0
N2794 N 0.27564 0.77564 0.42262 0.0
N2795 N 0.27975 0.85296 0.43198 0.0
C2796 C 0.27924 0.79432 0.42582 0.0
C2797 C 0.28111 0.83387 0.43085 0.0
N2798 N 0.2941 0.79793 0.39589 0.0
N2799 N 0.2728 0.82956 0.46348 0.0
H2800 H 0.28365 0.86185 0.42111 0.0
H2801 H 0.27346 0.85991 0.44296 0.0
H2802 H 0.26863 0.82138 0.47478 0.0
H2803 H 0.27527 0.84361 0.46702 0.0
H2804 H 0.29613 0.78358 0.39429 0.0
H2805 H 0.29934 0.80582 0.38486 0.0
H2806 H 0.27625 0.76926 0.40944 0.0
H2807 H 0.27039 0.76676 0.43285 0.0
C2808 C 0.62382 0.21695 0.75589 0.0
C2809 C 0.6202 0.21225 0.7366 0.0
C2810 C 0.58663 0.21832 0.74014 0.0
C2811 C 0.59051 0.22416 0.75898 0.0
N2812 N 0.61276 0.23203 0.78408 0.0
N2813 N 0.59879 0.21081 0.70953 0.0
C2814 C 0.60913 0.2243 0.76666 0.0
C2815 C 0.60174 0.21358 0.72848 0.0
N2816 N 0.64114 0.21378 0.7641 0.0
N2817 N 0.56838 0.21691 0.73363 0.0
H2818 H 0.60952 0.20729 0.70063 0.0
H2819 H 0.58609 0.21335 0.70236 0.0
H2820 H 0.55715 0.22042 0.74191 0.0
H2821 H 0.56424 0.21102 0.72066 0.0
H2822 H 0.6441 0.215 0.77852 0.0
H2823 H 0.6523 0.20852 0.7567 0.0
H2824 H 0.62625 0.23455 0.78975 0.0
H2825 H 0.60221 0.23733 0.79229 0.0
C2826 C 0.34656 0.10638 0.74328 0.0
C2827 C 0.35178 0.10626 0.72415 0.0
C2828 C 0.34522 0.07223 0.72235 0.0
C2829 C 0.33893 0.07264 0.74101 0.0
N2830 N 0.33112 0.09001 0.76857 0.0
N2831 N 0.35387 0.08976 0.69461 0.0
C2832 C 0.33892 0.08973 0.75129 0.0
C2833 C 0.35052 0.08933 0.71343 0.0
N2834 N 0.34943 0.12229 0.75392 0.0
N2835 N 0.3465 0.05531 0.71339 0.0
H2836 H 0.35793 0.10197 0.68768 0.0
H2837 H 0.35138 0.0784 0.68554 0.0
H2838 H 0.34246 0.04269 0.71959 0.0
H2839 H 0.35272 0.05356 0.70049 0.0
H2840 H 0.3478 0.12281 0.76842 0.0
H2841 H 0.35479 0.13478 0.7485 0.0
H2842 H 0.32871 0.10226 0.77608 0.0
H2843 H 0.32574 0.07794 0.77482 0.0
C2844 C 0.446 0.82033 0.69743 0.0
C2845 C 0.42722 0.8136 0.69872 0.0
C2846 C 0.43871 0.78546 0.715 0.0
C2847 C 0.45741 0.7911 0.71155 0.0
N2848 N 0.47903 0.81254 0.6974 0.0
N2849 N 0.40573 0.78835 0.70623 0.0
C2850 C 0.46111 0.80823 0.70226 0.0
C2851 C 0.42355 0.79579 0.70692 0.0
N2852 N 0.44937 0.83844 0.69205 0.0
N2853 N 0.43552 0.7705 0.72648 0.0
H2854 H 0.39424 0.79531 0.70023 0.0
H2855 H 0.4026 0.77461 0.71017 0.0
H2856 H 0.44639 0.76286 0.73281 0.0
H2857 H 0.42228 0.76683 0.73116 0.0
H2858 H 0.46268 0.84473 0.69259 0.0
H2859 H 0.43863 0.84777 0.68868 0.0
H2860 H 0.48245 0.82387 0.68889 0.0
H2861 H 0.49031 0.8038 0.70056 0.0
C2862 C 0.72239 0.95945 0.72036 0.0
C2863 C 0.72915 0.94107 0.71738 0.0
C2864 C 0.76144 0.9522 0.72453 0.0
C2865 C 0.75484 0.97075 0.72602 0.0
N2866 N 0.72978 0.99277 0.72353 0.0
N2867 N 0.75514 0.92013 0.71419 0.0
C2868 C 0.73548 0.97456 0.72344 0.0
C2869 C 0.74871 0.93747 0.71883 0.0
N2870 N 0.70348 0.9623 0.72069 0.0
N2871 N 0.77983 0.9487 0.72913 0.0
H2872 H 0.74625 0.9089 0.71023 0.0
H2873 H 0.76931 0.91717 0.71297 0.0
H2874 H 0.78945 0.95933 0.73309 0.0
H2875 H 0.78525 0.93525 0.73037 0.0
H2876 H 0.69759 0.97494 0.72462 0.0
H2877 H 0.69354 0.95154 0.71836 0.0
H2878 H 0.71617 0.9969 0.71993 0.0
H2879 H 0.73916 1.00397 0.72592 0.0
C2880 C 0.57494 0.82523 0.3284 0.0
C2881 C 0.5923 0.82284 0.31954 0.0
C2882 C 0.57583 0.80674 0.29288 0.0
C2883 C 0.55848 0.80938 0.30166 0.0
N2884 N 0.5409 0.8252 0.32503 0.0
N2885 N 0.60879 0.81562 0.29146 0.0
C2886 C 0.55789 0.82004 0.31852 0.0
C2887 C 0.59257 0.81499 0.30113 0.0
N2888 N 0.57478 0.83144 0.34664 0.0
N2889 N 0.57654 0.79545 0.27733 0.0
H2890 H 0.62126 0.82159 0.29707 0.0
H2891 H 0.60946 0.81182 0.27733 0.0
H2892 H 0.56461 0.78954 0.27059 0.0
H2893 H 0.58905 0.79099 0.27178 0.0
H2894 H 0.56276 0.83145 0.35453 0.0
H2895 H 0.58694 0.83519 0.35448 0.0
H2896 H 0.53945 0.83443 0.33627 0.0
H2897 H 0.52822 0.8217 0.31792 0.0
C2898 C 0.73028 0.10229 0.2973 0.0
C2899 C 0.71145 0.09984 0.30283 0.0
C2900 C 0.71364 0.06572 0.29779 0.0
C2901 C 0.73235 0.06828 0.29198 0.0
N2902 N 0.7566 0.08918 0.28134 0.0
N2903 N 0.68383 0.08006 0.30437 0.0
C2904 C 0.74003 0.08667 0.29017 0.0
C2905 C 0.70268 0.08178 0.30176 0.0
N2906 N 0.73924 0.11929 0.29981 0.0
N2907 N 0.70668 0.04798 0.30052 0.0
H2908 H 0.67549 0.09154 0.30731 0.0
H2909 H 0.67619 0.06763 0.302 0.0
H2910 H 0.71414 0.03594 0.29747 0.0
H2911 H 0.69402 0.04518 0.30689 0.0
H2912 H 0.75359 0.12133 0.29817 0.0
H2913 H 0.73271 0.13113 0.30501 0.0
H2914 H 0.7621 0.10232 0.27793 0.0
H2915 H 0.76388 0.07804 0.27568 0.0
C2916 C 0.45587 0.21776 0.31481 0.0
C2917 C 0.43696 0.21809 0.30774 0.0
C2918 C 0.44749 0.23063 0.27767 0.0
C2919 C 0.46636 0.22885 0.28421 0.0
N2920 N 0.48902 0.21896 0.30778 0.0
N2921 N 0.41477 0.22219 0.28161 0.0
C2922 C 0.47068 0.22193 0.30248 0.0
C2923 C 0.43275 0.22384 0.28893 0.0
N2924 N 0.45957 0.21396 0.33342 0.0
N2925 N 0.44371 0.23936 0.26091 0.0
H2926 H 0.40355 0.2174 0.2894 0.0
H2927 H 0.41117 0.22421 0.26743 0.0
H2928 H 0.45428 0.24429 0.25233 0.0
H2929 H 0.43026 0.24306 0.2562 0.0
H2930 H 0.47285 0.21526 0.33994 0.0
H2931 H 0.44904 0.21085 0.34279 0.0
H2932 H 0.49324 0.21226 0.32018 0.0
H2933 H 0.50005 0.22201 0.29897 0.0
C2934 C 0.28432 0.96406 0.306 0.0
C2935 C 0.29202 0.95083 0.29352 0.0
C2936 C 0.27753 0.96735 0.26644 0.0
C2937 C 0.2705 0.98102 0.27889 0.0
N2938 N 0.27012 0.99452 0.31002 0.0
N2939 N 0.29875 0.94146 0.2619 0.0
C2940 C 0.27473 0.97997 0.29854 0.0
C2941 C 0.28951 0.95301 0.27373 0.0
N2942 N 0.28575 0.96112 0.32501 0.0
N2943 N 0.27202 0.96749 0.24779 0.0
H2944 H 0.30727 0.93059 0.26676 0.0
H2945 H 0.29921 0.94351 0.24742 0.0
H2946 H 0.26338 0.97774 0.24188 0.0
H2947 H 0.2748 0.95671 0.23839 0.0
H2948 H 0.27853 0.96888 0.33477 0.0
H2949 H 0.29323 0.95005 0.33104 0.0
H2950 H 0.27453 0.99563 0.32413 0.0
H2951 H 0.26323 1.00643 0.30504 0.0
C2952 C 0.73358 0.07668 0.73176 0.0
C2953 C 0.73848 0.09429 0.74016 0.0
C2954 C 0.75298 0.07752 0.76709 0.0
C2955 C 0.75058 0.06018 0.75723 0.0
N2956 N 0.74421 0.04521 0.72688 0.0
N2957 N 0.75674 0.11124 0.76427 0.0
C2958 C 0.74236 0.06023 0.73865 0.0
C2959 C 0.74926 0.09468 0.75745 0.0
N2960 N 0.7203 0.07546 0.71742 0.0
N2961 N 0.75837 0.07767 0.78574 0.0
H2962 H 0.75518 0.12396 0.75721 0.0
H2963 H 0.76615 0.11199 0.77586 0.0
H2964 H 0.76056 0.06541 0.79344 0.0
H2965 H 0.7587 0.08984 0.79396 0.0
H2966 H 0.7153 0.06262 0.71198 0.0
H2967 H 0.7128 0.08702 0.71251 0.0
H2968 H 0.73957 0.04534 0.71278 0.0
H2969 H 0.75272 0.03388 0.73026 0.0
C2970 C 0.7465 0.93148 0.33232 0.0
C2971 C 0.72766 0.93158 0.33822 0.0
C2972 C 0.72607 0.96546 0.33201 0.0
C2973 C 0.74439 0.96506 0.32503 0.0
N2974 N 0.77139 0.94791 0.31622 0.0
N2975 N 0.69854 0.94787 0.34151 0.0
C2976 C 0.75443 0.9481 0.32454 0.0
C2977 C 0.71717 0.94839 0.33751 0.0
N2978 N 0.75693 0.91566 0.33467 0.0
N2979 N 0.7174 0.98232 0.33366 0.0
H2980 H 0.69161 0.93568 0.34577 0.0
H2981 H 0.68959 0.95912 0.3394 0.0
H2982 H 0.7235 0.99491 0.32929 0.0
H2983 H 0.70484 0.98408 0.34044 0.0
H2984 H 0.77126 0.91516 0.33245 0.0
H2985 H 0.75152 0.90323 0.34017 0.0
H2986 H 0.77873 0.93573 0.31354 0.0
H2987 H 0.77758 0.96 0.31076 0.0
C2988 C 0.57812 0.23616 0.31594 0.0
C2989 C 0.5957 0.23663 0.30709 0.0
C2990 C 0.58276 0.2584 0.28348 0.0
C2991 C 0.56458 0.2553 0.29035 0.0
N2992 N 0.54443 0.24079 0.3127 0.0
N2993 N 0.61429 0.24674 0.28111 0.0
C2994 C 0.56213 0.24425 0.30665 0.0
C2995 C 0.59799 0.24757 0.29062 0.0
N2996 N 0.57681 0.22824 0.33335 0.0
N2997 N 0.58538 0.27176 0.27006 0.0
H2998 H 0.62567 0.23865 0.28555 0.0
H2999 H 0.61595 0.25275 0.26792 0.0
H3000 H 0.57442 0.28 0.26483 0.0
H3001 H 0.59856 0.276 0.26565 0.0
H3002 H 0.56487 0.22899 0.34131 0.0
H3003 H 0.58827 0.22233 0.34057 0.0
H3004 H 0.5414 0.23097 0.32303 0.0
H3005 H 0.53258 0.24713 0.30664 0.0
C3006 C 0.30713 0.09508 0.29614 0.0
C3007 C 0.30755 0.11431 0.29098 0.0
C3008 C 0.29062 0.10649 0.26117 0.0
C3009 C 0.29158 0.08717 0.26574 0.0
N3010 N 0.30478 0.06284 0.28524 0.0
N3011 N 0.3029 0.138 0.26712 0.0
C3012 C 0.301 0.0814 0.28259 0.0
C3013 C 0.3002 0.11995 0.27305 0.0
N3014 N 0.31206 0.08994 0.31415 0.0
N3015 N 0.27999 0.11199 0.24584 0.0
H3016 H 0.30992 0.14824 0.27537 0.0
H3017 H 0.29962 0.14243 0.25345 0.0
H3018 H 0.27253 0.1025 0.23708 0.0
H3019 H 0.27715 0.12598 0.24281 0.0
H3020 H 0.31019 0.07634 0.31919 0.0
H3021 H 0.31636 0.0996 0.32459 0.0
H3022 H 0.31313 0.05792 0.29645 0.0
H3023 H 0.30128 0.05259 0.27511 0.0
C3024 C 0.42026 0.80711 0.30947 0.0
C3025 C 0.42233 0.82571 0.31676 0.0
C3026 C 0.45663 0.82194 0.31896 0.0
C3027 C 0.45455 0.80391 0.31059 0.0
N3028 N 0.43505 0.78073 0.29446 0.0
N3029 N 0.44261 0.85205 0.32536 0.0
C3030 C 0.43652 0.79691 0.30484 0.0
C3031 C 0.44059 0.83348 0.32063 0.0
N3032 N 0.40281 0.79887 0.30772 0.0
N3033 N 0.47394 0.82774 0.3258 0.0
H3034 H 0.43121 0.86094 0.32651 0.0
H3035 H 0.45554 0.85905 0.32656 0.0
H3036 H 0.48586 0.81956 0.32465 0.0
H3037 H 0.47625 0.83988 0.33383 0.0
H3038 H 0.40059 0.78473 0.30442 0.0
H3039 H 0.39057 0.80575 0.3111 0.0
H3040 H 0.4225 0.77584 0.28807 0.0
H3041 H 0.44675 0.77308 0.29082 0.0
C3042 C 0.32359 0.96105 0.69902 0.0
C3043 C 0.31123 0.94519 0.69793 0.0
C3044 C 0.2898 0.96082 0.71914 0.0
C3045 C 0.30228 0.97657 0.72033 0.0
N3046 N 0.32812 0.9939 0.70772 0.0
N3047 N 0.28067 0.93168 0.70307 0.0
C3048 C 0.31821 0.97738 0.70898 0.0
C3049 C 0.29367 0.94567 0.70672 0.0
N3050 N 0.34092 0.96015 0.69145 0.0
N3051 N 0.27487 0.95986 0.73064 0.0
H3052 H 0.28314 0.92043 0.69408 0.0
H3053 H 0.26694 0.93204 0.70757 0.0
H3054 H 0.27127 0.97091 0.73939 0.0
H3055 H 0.26665 0.9478 0.73226 0.0
H3056 H 0.3514 0.97036 0.69371 0.0
H3057 H 0.34541 0.94853 0.68397 0.0
H3058 H 0.33886 0.99604 0.69837 0.0
H3059 H 0.32433 1.00609 0.71475 0.0
C3060 C 0.58177 0.82835 0.73878 0.0
C3061 C 0.59495 0.81792 0.72858 0.0
C3062 C 0.5762 0.78923 0.73326 0.0
C3063 C 0.56447 0.79911 0.74548 0.0
N3064 N 0.55674 0.82781 0.76118 0.0
N3065 N 0.60647 0.78775 0.71907 0.0
C3066 C 0.56738 0.81865 0.74855 0.0
C3067 C 0.59262 0.79816 0.7266 0.0
N3068 N 0.58268 0.84753 0.73864 0.0
N3069 N 0.57128 0.77144 0.72746 0.0
H3070 H 0.61892 0.79363 0.71433 0.0
H3071 H 0.60642 0.77312 0.71922 0.0
H3072 H 0.55904 0.76465 0.73157 0.0
H3073 H 0.57825 0.76422 0.71709 0.0
H3074 H 0.57245 0.856 0.74419 0.0
H3075 H 0.59292 0.85505 0.73157 0.0
H3076 H 0.55948 0.84155 0.76568 0.0
H3077 H 0.54581 0.82119 0.76811 0.0
C3078 C 0.48428 0.2412 0.71948 0.0
C3079 C 0.46594 0.24174 0.72667 0.0
C3080 C 0.47812 0.26098 0.75327 0.0
C3081 C 0.49668 0.25755 0.7479 0.0
N3082 N 0.5179 0.24404 0.72625 0.0
N3083 N 0.44562 0.25059 0.75163 0.0
C3084 C 0.49991 0.24779 0.73093 0.0
C3085 C 0.46284 0.25145 0.74378 0.0
N3086 N 0.48668 0.23461 0.70165 0.0
N3087 N 0.47518 0.27336 0.76754 0.0
H3088 H 0.4341 0.24338 0.74546 0.0
H3089 H 0.44315 0.25561 0.76509 0.0
H3090 H 0.48621 0.28067 0.77447 0.0
H3091 H 0.46192 0.27784 0.77108 0.0
H3092 H 0.49941 0.23541 0.69495 0.0
H3093 H 0.4755 0.22981 0.69291 0.0
H3094 H 0.52122 0.23499 0.71535 0.0
H3095 H 0.52959 0.24933 0.73396 0.0
C3096 C 0.74375 0.71452 0.10933 0.0
C3097 C 0.72415 0.7103 0.10898 0.0
C3098 C 0.72206 0.71744 0.07507 0.0
C3099 C 0.74181 0.72025 0.07517 0.0
N3100 N 0.77182 0.72033 0.09149 0.0
N3101 N 0.69475 0.70617 0.09145 0.0
C3102 C 0.75274 0.71854 0.09211 0.0
C3103 C 0.71332 0.71139 0.09181 0.0
N3104 N 0.75366 0.71492 0.12619 0.0
N3105 N 0.71169 0.72097 0.05894 0.0
H3106 H 0.68773 0.70231 0.1035 0.0
H3107 H 0.68649 0.70458 0.07914 0.0
H3108 H 0.71778 0.72504 0.04644 0.0
H3109 H 0.69708 0.72116 0.05818 0.0
H3110 H 0.76753 0.7196 0.12782 0.0
H3111 H 0.74762 0.71163 0.13894 0.0
H3112 H 0.78105 0.71749 0.10277 0.0
H3113 H 0.77855 0.7237 0.07911 0.0
C3114 C 0.29378 0.73818 0.0988 0.0
C3115 C 0.31266 0.73259 0.09697 0.0
C3116 C 0.31057 0.7398 0.06311 0.0
C3117 C 0.29177 0.74556 0.06505 0.0
N3118 N 0.26702 0.75462 0.08515 0.0
N3119 N 0.34037 0.7318 0.07856 0.0
C3120 C 0.28392 0.74618 0.08309 0.0
C3121 C 0.32149 0.73462 0.07946 0.0
N3122 N 0.28494 0.73498 0.11528 0.0
N3123 N 0.31765 0.7384 0.04554 0.0
H3124 H 0.3487 0.72788 0.09023 0.0
H3125 H 0.34803 0.73482 0.06672 0.0
H3126 H 0.31025 0.74266 0.03339 0.0
H3127 H 0.33037 0.7321 0.04287 0.0
H3128 H 0.2706 0.73672 0.1168 0.0
H3129 H 0.29164 0.72918 0.12714 0.0
H3130 H 0.26123 0.75717 0.09814 0.0
H3131 H 0.25965 0.76077 0.07389 0.0
C3132 C 0.30496 0.29597 0.09332 0.0
C3133 C 0.3233 0.30343 0.09088 0.0
C3134 C 0.32114 0.29446 0.05733 0.0
C3135 C 0.30288 0.28682 0.05989 0.0
N3136 N 0.27952 0.27587 0.08105 0.0
N3137 N 0.35052 0.30608 0.0719 0.0
C3138 C 0.29553 0.28613 0.07817 0.0
C3139 C 0.33194 0.30143 0.07328 0.0
N3140 N 0.2961 0.29916 0.10975 0.0
N3141 N 0.32771 0.29606 0.03957 0.0
H3142 H 0.35873 0.31128 0.0833 0.0
H3143 H 0.35816 0.3033 0.06003 0.0
H3144 H 0.32038 0.29081 0.02765 0.0
H3145 H 0.33987 0.30356 0.03649 0.0
H3146 H 0.28194 0.29606 0.11153 0.0
H3147 H 0.30243 0.30628 0.12123 0.0
H3148 H 0.27435 0.27326 0.09432 0.0
H3149 H 0.27244 0.26835 0.07027 0.0
C3150 C 0.73799 0.31928 0.09303 0.0
C3151 C 0.73452 0.31236 0.11131 0.0
C3152 C 0.74547 0.2813 0.10208 0.0
C3153 C 0.74695 0.28769 0.08336 0.0
N3154 N 0.74253 0.31178 0.06014 0.0
N3155 N 0.73236 0.28615 0.13266 0.0
C3156 C 0.74272 0.30647 0.0786 0.0
C3157 C 0.73763 0.29319 0.11573 0.0
N3158 N 0.73718 0.33813 0.08961 0.0
N3159 N 0.75203 0.26398 0.10685 0.0
H3160 H 0.72649 0.29436 0.14304 0.0
H3161 H 0.73239 0.27189 0.13584 0.0
H3162 H 0.7579 0.25501 0.09709 0.0
H3163 H 0.75323 0.2592 0.12067 0.0
H3164 H 0.74134 0.34426 0.07713 0.0
H3165 H 0.73381 0.34789 0.0999 0.0
H3166 H 0.73772 0.32472 0.0554 0.0
H3167 H 0.74579 0.3026 0.04929 0.0
C3168 C 0.7582 0.28471 0.95174 0.0
C3169 C 0.74938 0.30233 0.95368 0.0
C3170 C 0.76082 0.30443 0.9868 0.0
C3171 C 0.76963 0.28678 0.98487 0.0
N3172 N 0.775 0.25892 0.96655 0.0
N3173 N 0.7405 0.32832 0.97309 0.0
C3174 C 0.76774 0.27654 0.96765 0.0
C3175 C 0.75015 0.31198 0.97127 0.0
N3176 N 0.75782 0.27605 0.93449 0.0
N3177 N 0.76281 0.314 1.00354 0.0
H3178 H 0.73331 0.33472 0.96185 0.0
H3179 H 0.73873 0.33524 0.98579 0.0
H3180 H 0.76915 0.3083 0.01564 0.0
H3181 H 0.75874 0.3278 1.00553 0.0
H3182 H 0.76578 0.26442 0.93129 0.0
H3183 H 0.75009 0.28103 0.92285 0.0
H3184 H 0.7725 0.24976 0.95525 0.0
H3185 H 0.78288 0.25286 0.97749 0.0
C3186 C 0.70689 0.74502 0.93594 0.0
C3187 C 0.71024 0.72543 0.93489 0.0
C3188 C 0.73144 0.72784 0.96283 0.0
C3189 C 0.72705 0.74717 0.96476 0.0
N3190 N 0.70809 0.77337 0.95514 0.0
N3191 N 0.72214 0.69747 0.94977 0.0
C3192 C 0.71398 0.75552 0.9519 0.0
C3193 C 0.72137 0.71662 0.94915 0.0
N3194 N 0.69762 0.75376 0.92133 0.0
N3195 N 0.74612 0.72042 0.97311 0.0
H3196 H 0.71493 0.68877 0.94 0.0
H3197 H 0.72843 0.69021 0.96098 0.0
H3198 H 0.75455 0.72821 0.98266 0.0
H3199 H 0.7512 0.70701 0.97074 0.0
H3200 H 0.69657 0.76829 0.92028 0.0
H3201 H 0.69219 0.74658 0.90945 0.0
H3202 H 0.69721 0.77962 0.94738 0.0
H3203 H 0.71296 0.78136 0.96673 0.0
C3204 C 0.32372 0.71169 0.95517 0.0
C3205 C 0.31682 0.71196 0.93614 0.0
C3206 C 0.28561 0.72042 0.94663 0.0
C3207 C 0.29207 0.71848 0.96559 0.0
N3208 N 0.31631 0.7104 0.98831 0.0
N3209 N 0.29059 0.71376 0.91372 0.0
C3210 C 0.31091 0.71361 0.96997 0.0
C3211 C 0.29758 0.71559 0.93185 0.0
N3212 N 0.34256 0.7101 0.95903 0.0
N3213 N 0.2682 0.72753 0.94282 0.0
H3214 H 0.29887 0.71027 0.90247 0.0
H3215 H 0.27633 0.7142 0.91004 0.0
H3216 H 0.25916 0.73125 0.95339 0.0
H3217 H 0.26336 0.73129 0.92936 0.0
H3218 H 0.34875 0.71163 0.97247 0.0
H3219 H 0.3523 0.70869 0.94852 0.0
H3220 H 0.3293 0.70503 0.99249 0.0
H3221 H 0.30714 0.71182 0.99933 0.0
C3222 C 0.32074 0.33221 0.94851 0.0
C3223 C 0.31242 0.33174 0.92999 0.0
C3224 C 0.28459 0.31551 0.94198 0.0
C3225 C 0.29234 0.31722 0.96057 0.0
N3226 N 0.31638 0.32906 0.98218 0.0
N3227 N 0.28538 0.32544 0.90936 0.0
C3228 C 0.31005 0.32612 0.964 0.0
C3229 C 0.29403 0.32406 0.9268 0.0
N3230 N 0.33909 0.33784 0.95119 0.0
N3231 N 0.26845 0.30517 0.93887 0.0
H3232 H 0.29185 0.33159 0.89793 0.0
H3233 H 0.27133 0.32186 0.90654 0.0
H3234 H 0.26123 0.29892 0.94979 0.0
H3235 H 0.26303 0.30154 0.92552 0.0
H3236 H 0.3466 0.33667 0.96397 0.0
H3237 H 0.34734 0.34242 0.94023 0.0
H3238 H 0.32825 0.33715 0.98592 0.0
H3239 H 0.30887 0.3245 0.99368 0.0
C3240 C 0.60151 0.72801 0.25312 0.0
C3241 C 0.59833 0.7199 0.23492 0.0
C3242 C 0.56427 0.72325 0.23803 0.0
C3243 C 0.56758 0.73237 0.25561 0.0
N3244 N 0.58913 0.74681 0.2783 0.0
N3245 N 0.57701 0.71271 0.20862 0.0
C3246 C 0.58617 0.73573 0.26269 0.0
C3247 C 0.57976 0.71836 0.22695 0.0
N3248 N 0.61903 0.72764 0.26163 0.0
N3249 N 0.54624 0.71879 0.23224 0.0
H3250 H 0.58803 0.7092 0.20008 0.0
H3251 H 0.56404 0.713 0.20139 0.0
H3252 H 0.53472 0.72221 0.24016 0.0
H3253 H 0.54277 0.71049 0.22048 0.0
H3254 H 0.62179 0.73146 0.27564 0.0
H3255 H 0.63063 0.72207 0.25518 0.0
H3256 H 0.60238 0.75153 0.28309 0.0
H3257 H 0.57815 0.75266 0.28553 0.0
C3258 C 0.33545 0.58828 0.21397 0.0
C3259 C 0.33143 0.6061 0.22187 0.0
C3260 C 0.31314 0.59037 0.24613 0.0
C3261 C 0.31857 0.57265 0.23923 0.0
N3262 N 0.33713 0.55452 0.21859 0.0
N3263 N 0.31946 0.62391 0.24769 0.0
C3264 C 0.33044 0.57158 0.22374 0.0
C3265 C 0.32113 0.60709 0.23861 0.0
N3266 N 0.34327 0.58726 0.19672 0.0
N3267 N 0.29967 0.59123 0.25926 0.0
H3268 H 0.32537 0.63639 0.24283 0.0
H3269 H 0.31374 0.62518 0.26091 0.0
H3270 H 0.29336 0.57926 0.26481 0.0
H3271 H 0.29357 0.60372 0.26337 0.0
H3272 H 0.34477 0.57473 0.18936 0.0
H3273 H 0.34677 0.59911 0.18893 0.0
H3274 H 0.34732 0.55285 0.20862 0.0
H3275 H 0.33364 0.54215 0.22556 0.0
C3276 C 0.45973 0.33479 0.22552 0.0
C3277 C 0.44167 0.32606 0.22599 0.0
C3278 C 0.45481 0.30134 0.24629 0.0
C3279 C 0.47314 0.30818 0.24295 0.0
N3280 N 0.49354 0.33127 0.2294 0.0
N3281 N 0.42205 0.3002 0.23588 0.0
C3282 C 0.47574 0.32507 0.23283 0.0
C3283 C 0.43914 0.30926 0.2364 0.0
N3284 N 0.46147 0.35242 0.2182 0.0
N3285 N 0.4525 0.28713 0.2589 0.0
H3286 H 0.41022 0.30538 0.2287 0.0
H3287 H 0.4199 0.28683 0.24135 0.0
H3288 H 0.46382 0.28128 0.26638 0.0
H3289 H 0.43945 0.28252 0.26333 0.0
H3290 H 0.47393 0.36029 0.21893 0.0
H3291 H 0.44999 0.35987 0.21282 0.0
H3292 H 0.49651 0.34214 0.22017 0.0
H3293 H 0.50546 0.32485 0.23523 0.0
C3294 C 0.75438 0.45264 0.22638 0.0
C3295 C 0.74173 0.44042 0.2356 0.0
C3296 C 0.74774 0.45779 0.2652 0.0
C3297 C 0.76174 0.46879 0.25647 0.0
N3298 N 0.77989 0.47572 0.2294 0.0
N3299 N 0.72861 0.42933 0.26441 0.0
C3300 C 0.76549 0.46595 0.23721 0.0
C3301 C 0.73897 0.44248 0.25518 0.0
N3302 N 0.75535 0.45188 0.20721 0.0
N3303 N 0.74253 0.46219 0.283 0.0
H3304 H 0.72197 0.41787 0.25764 0.0
H3305 H 0.72792 0.42881 0.27902 0.0
H3306 H 0.7488 0.47305 0.291 0.0
H3307 H 0.73095 0.45612 0.2893 0.0
H3308 H 0.76282 0.46159 0.19939 0.0
H3309 H 0.74744 0.44233 0.19888 0.0
H3310 H 0.78475 0.47289 0.21606 0.0
H3311 H 0.78784 0.48594 0.23681 0.0
C3312 C 0.60416 0.32615 0.82521 0.0
C3313 C 0.62163 0.31703 0.82362 0.0
C3314 C 0.60648 0.29364 0.8023 0.0
C3315 C 0.58869 0.301 0.80628 0.0
N3316 N 0.57012 0.32383 0.82186 0.0
N3317 N 0.63935 0.29115 0.81184 0.0
C3318 C 0.5874 0.31731 0.81764 0.0
C3319 C 0.62283 0.30064 0.81228 0.0
N3320 N 0.60368 0.34338 0.83372 0.0
N3321 N 0.60766 0.27998 0.78885 0.0
H3322 H 0.65164 0.29573 0.81899 0.0
H3323 H 0.64055 0.27798 0.80562 0.0
H3324 H 0.59587 0.27481 0.78123 0.0
H3325 H 0.6203 0.27515 0.78394 0.0
H3326 H 0.59174 0.3516 0.83379 0.0
H3327 H 0.61568 0.35019 0.8394 0.0
H3328 H 0.56804 0.33421 0.8319 0.0
H3329 H 0.55767 0.31812 0.8159 0.0
C3330 C 0.73571 0.59353 0.80138 0.0
C3331 C 0.72623 0.5921 0.81856 0.0
C3332 C 0.73733 0.55983 0.82242 0.0
C3333 C 0.74899 0.56233 0.80686 0.0
N3334 N 0.76071 0.58213 0.7823 0.0
N3335 N 0.71921 0.57453 0.84648 0.0
C3336 C 0.7484 0.57925 0.79636 0.0
C3337 C 0.72718 0.57533 0.82929 0.0
N3338 N 0.73238 0.60844 0.78974 0.0
N3339 N 0.73587 0.5425 0.83051 0.0
H3340 H 0.71169 0.58556 0.85205 0.0
H3341 H 0.72124 0.56352 0.85591 0.0
H3342 H 0.74305 0.53087 0.82565 0.0
H3343 H 0.72629 0.5392 0.84075 0.0
H3344 H 0.73737 0.60937 0.77618 0.0
H3345 H 0.7232 0.61915 0.79301 0.0
H3346 H 0.76263 0.59505 0.77577 0.0
H3347 H 0.76998 0.57194 0.77798 0.0
C3348 C 0.44099 0.74842 0.797 0.0
C3349 C 0.44461 0.73737 0.81333 0.0
C3350 C 0.4786 0.74056 0.80886 0.0
C3351 C 0.47491 0.75143 0.79251 0.0
N3352 N 0.45338 0.76981 0.77376 0.0
N3353 N 0.46666 0.72682 0.83739 0.0
C3354 C 0.45632 0.75679 0.78759 0.0
C3355 C 0.4634 0.73473 0.82011 0.0
N3356 N 0.42304 0.74993 0.78975 0.0
N3357 N 0.49657 0.73515 0.81314 0.0
H3358 H 0.45582 0.72254 0.84596 0.0
H3359 H 0.47994 0.726 0.84394 0.0
H3360 H 0.50803 0.73995 0.80567 0.0
H3361 H 0.50001 0.72531 0.82345 0.0
H3362 H 0.41974 0.7559 0.77671 0.0
H3363 H 0.41142 0.74392 0.79605 0.0
H3364 H 0.44036 0.77567 0.77056 0.0
H3365 H 0.46441 0.77609 0.7667 0.0
C3366 C 0.34046 0.46495 0.80534 0.0
C3367 C 0.33976 0.44664 0.79722 0.0
C3368 C 0.32675 0.45979 0.76759 0.0
C3369 C 0.32895 0.47813 0.77521 0.0
N3370 N 0.33997 0.49871 0.8002 0.0
N3371 N 0.33491 0.42689 0.76972 0.0
C3372 C 0.3364 0.48084 0.7938 0.0
C3373 C 0.33361 0.44413 0.77807 0.0
N3374 N 0.34436 0.46708 0.82423 0.0
N3375 N 0.31751 0.45736 0.75054 0.0
H3376 H 0.33992 0.41512 0.77688 0.0
H3377 H 0.33251 0.42456 0.75534 0.0
H3378 H 0.31239 0.4686 0.74262 0.0
H3379 H 0.31358 0.44426 0.74498 0.0
H3380 H 0.34322 0.47976 0.8314 0.0
H3381 H 0.34731 0.4558 0.83312 0.0
H3382 H 0.34717 0.50182 0.81288 0.0
H3383 H 0.33697 0.51051 0.79204 0.0
C3384 C 0.71882 0.60265 0.26746 0.0
C3385 C 0.71525 0.60027 0.24775 0.0
C3386 C 0.72363 0.56699 0.25021 0.0
C3387 C 0.72594 0.56911 0.27001 0.0
N3388 N 0.72474 0.5879 0.29796 0.0
N3389 N 0.71282 0.58021 0.22031 0.0
C3390 C 0.72332 0.58671 0.27875 0.0
C3391 C 0.71732 0.58243 0.23909 0.0
N3392 N 0.7181 0.62021 0.27526 0.0
N3393 N 0.72789 0.55024 0.24209 0.0
H3394 H 0.70894 0.59134 0.21158 0.0
H3395 H 0.71193 0.56725 0.21348 0.0
H3396 H 0.73203 0.53858 0.24995 0.0
H3397 H 0.7285 0.5481 0.22762 0.0
H3398 H 0.72221 0.62335 0.28914 0.0
H3399 H 0.71436 0.63206 0.2675 0.0
H3400 H 0.72133 0.59974 0.30567 0.0
H3401 H 0.72843 0.57646 0.30637 0.0
C3402 C 0.74457 0.45477 0.8497 0.0
C3403 C 0.75175 0.43659 0.84638 0.0
C3404 C 0.77783 0.45061 0.82942 0.0
C3405 C 0.77165 0.46872 0.8343 0.0
N3406 N 0.75084 0.48842 0.85097 0.0
N3407 N 0.77699 0.41729 0.83605 0.0
C3408 C 0.75547 0.4709 0.845 0.0
C3409 C 0.7689 0.43453 0.83707 0.0
N3410 N 0.72707 0.4566 0.85668 0.0
N3411 N 0.79174 0.44882 0.81685 0.0
H3412 H 0.77102 0.40518 0.84168 0.0
H3413 H 0.79041 0.41528 0.83115 0.0
H3414 H 0.7983 0.46037 0.81075 0.0
H3415 H 0.79552 0.43599 0.81114 0.0
H3416 H 0.72029 0.46939 0.85761 0.0
H3417 H 0.71862 0.44512 0.86012 0.0
H3418 H 0.7403 0.49092 0.86039 0.0
H3419 H 0.75861 0.50042 0.84763 0.0
C3420 C 0.57596 0.69968 0.80411 0.0
C3421 C 0.59486 0.70255 0.7989 0.0
C3422 C 0.58398 0.72094 0.77167 0.0
C3423 C 0.56512 0.71653 0.77579 0.0
N3424 N 0.54293 0.69968 0.79421 0.0
N3425 N 0.61664 0.71251 0.77554 0.0
C3426 C 0.56105 0.70528 0.79155 0.0
C3427 C 0.59881 0.71218 0.78201 0.0
N3428 N 0.57228 0.69227 0.82133 0.0
N3429 N 0.58775 0.73428 0.75853 0.0
H3430 H 0.62787 0.70597 0.78252 0.0
H3431 H 0.61991 0.7177 0.76234 0.0
H3432 H 0.57722 0.74157 0.75128 0.0
H3433 H 0.60122 0.7395 0.75627 0.0
H3434 H 0.55889 0.69161 0.82671 0.0
H3435 H 0.58282 0.68817 0.83096 0.0
H3436 H 0.53913 0.68997 0.80436 0.0
H3437 H 0.53183 0.70362 0.78516 0.0
C3438 C 0.31115 0.61251 0.78564 0.0
C3439 C 0.32026 0.60968 0.80349 0.0
C3440 C 0.31381 0.57571 0.80086 0.0
C3441 C 0.30446 0.57866 0.78318 0.0
N3442 N 0.29013 0.59989 0.76089 0.0
N3443 N 0.32685 0.58945 0.82997 0.0
C3444 C 0.30181 0.59712 0.7763 0.0
C3445 C 0.3205 0.59151 0.81171 0.0
N3446 N 0.31219 0.62969 0.77718 0.0
N3447 N 0.31708 0.5578 0.80686 0.0
H3448 H 0.33192 0.60071 0.83824 0.0
H3449 H 0.32569 0.57695 0.83741 0.0
H3450 H 0.31185 0.54597 0.79955 0.0
H3451 H 0.3258 0.55462 0.81846 0.0
H3452 H 0.30771 0.63208 0.76329 0.0
H3453 H 0.31891 0.64134 0.78352 0.0
H3454 H 0.28613 0.6131 0.75615 0.0
H3455 H 0.28293 0.58886 0.75396 0.0
C3456 C 0.45035 0.29606 0.82709 0.0
C3457 C 0.45205 0.31505 0.83327 0.0
C3458 C 0.48648 0.31284 0.83343 0.0
C3459 C 0.4847 0.29443 0.82594 0.0
N3460 N 0.46536 0.26931 0.81294 0.0
N3461 N 0.47153 0.34247 0.83991 0.0
C3462 C 0.46672 0.28624 0.82205 0.0
C3463 C 0.4701 0.32371 0.83582 0.0
N3464 N 0.43316 0.28722 0.82661 0.0
N3465 N 0.50393 0.31971 0.83863 0.0
H3466 H 0.45986 0.35085 0.84175 0.0
H3467 H 0.48413 0.35008 0.84006 0.0
H3468 H 0.51609 0.31202 0.83686 0.0
H3469 H 0.50629 0.33228 0.84593 0.0
H3470 H 0.43123 0.27289 0.82414 0.0
H3471 H 0.42087 0.29394 0.83014 0.0
H3472 H 0.45272 0.26342 0.80776 0.0
H3473 H 0.47712 0.26182 0.8092 0.0
C3474 C 0.32351 0.45949 0.19783 0.0
C3475 C 0.31337 0.44214 0.19682 0.0
C3476 C 0.2869 0.45658 0.21236 0.0
C3477 C 0.29705 0.4739 0.21333 0.0
N3478 N 0.32286 0.49317 0.20349 0.0
N3479 N 0.28407 0.42511 0.19908 0.0
C3480 C 0.31467 0.47575 0.20486 0.0
C3481 C 0.29459 0.44103 0.20276 0.0
N3482 N 0.34189 0.46019 0.19294 0.0
N3483 N 0.27044 0.45469 0.22151 0.0
H3484 H 0.28935 0.41347 0.19218 0.0
H3485 H 0.26975 0.42402 0.20136 0.0
H3486 H 0.26413 0.46587 0.22823 0.0
H3487 H 0.26358 0.44186 0.22343 0.0
H3488 H 0.35073 0.47179 0.1954 0.0
H3489 H 0.34877 0.44867 0.18748 0.0
H3490 H 0.33485 0.49589 0.19596 0.0
H3491 H 0.31661 0.50529 0.2085 0.0
C3492 C 0.58683 0.33064 0.20869 0.0
C3493 C 0.60458 0.32183 0.20868 0.0
C3494 C 0.58972 0.29178 0.21704 0.0
C3495 C 0.57191 0.30028 0.21569 0.0
N3496 N 0.55283 0.32679 0.20804 0.0
N3497 N 0.62273 0.29351 0.20995 0.0
C3498 C 0.5703 0.31947 0.21089 0.0
C3499 C 0.60598 0.30223 0.21207 0.0
N3500 N 0.58589 0.34974 0.20716 0.0
N3501 N 0.59109 0.27388 0.22374 0.0
H3502 H 0.63499 0.30068 0.20645 0.0
H3503 H 0.62421 0.27899 0.21023 0.0
H3504 H 0.57939 0.2659 0.2274 0.0
H3505 H 0.60382 0.2675 0.22711 0.0
H3506 H 0.57367 0.35725 0.20892 0.0
H3507 H 0.59772 0.35832 0.2055 0.0
H3508 H 0.55043 0.34018 0.20275 0.0
H3509 H 0.54057 0.31883 0.20963 0.0
C3510 C 0.44226 0.76065 0.22419 0.0
C3511 C 0.44445 0.74298 0.21524 0.0
C3512 C 0.47809 0.74399 0.22403 0.0
C3513 C 0.47512 0.75973 0.23572 0.0
N3514 N 0.45458 0.78326 0.24737 0.0
N3515 N 0.46428 0.71726 0.20705 0.0
C3516 C 0.45733 0.76836 0.23566 0.0
C3517 C 0.46241 0.73463 0.21497 0.0
N3518 N 0.4258 0.77003 0.22162 0.0
N3519 N 0.496 0.73799 0.22181 0.0
H3520 H 0.45317 0.70992 0.20028 0.0
H3521 H 0.47652 0.70949 0.20827 0.0
H3522 H 0.50763 0.7448 0.22829 0.0
H3523 H 0.49948 0.72757 0.21229 0.0
H3524 H 0.42386 0.78371 0.22632 0.0
H3525 H 0.41454 0.76472 0.21329 0.0
H3526 H 0.44141 0.78864 0.24994 0.0
H3527 H 0.46551 0.78972 0.25527 0.0
loop_
_geom_bond_atom_site_label_1
_geom_bond_atom_site_label_2
_geom_bond_distance
_geom_bond_site_symmetry_2
_ccdc_geom_bond_type
C0 C1 1.386 . S
C0 C2 1.397 . S
C0 H24 0.931 . S
C1 C0 1.386 . S
C1 C5 1.397 . S
C2 C0 1.397 . S
C2 C3 1.384 . S
C2 H25 0.930 . S
C3 C2 1.384 . S
C3 C4 1.377 . S
C3 C6 1.481 . S
C4 C3 1.377 . S
C4 C5 1.389 . S
C4 H26 0.929 . S
C5 C1 1.397 . S
C5 C4 1.389 . S
C5 H27 0.931 . S
C6 C3 1.481 . S
C6 C7 1.387 . S
C6 C11 1.390 . S
C7 C6 1.387 . S
C7 C8 1.401 . S
C7 H28 0.930 . S
C8 C7 1.401 . S
C8 C9 1.376 . S
C8 C17 1.511 . S
C9 C8 1.376 . S
C9 C10 1.392 . S
C9 H30 0.931 . S
C10 C9 1.392 . S
C10 C11 1.361 . S
C10 C12 1.500 . S
C11 C6 1.390 . S
C11 C10 1.361 . S
C11 H29 0.931 . S
C12 C10 1.500 . S
C12 C13 1.371 . S
C12 C14 1.365 . S
C13 C12 1.371 . S
C13 C23 1.386 . S
C13 H31 0.931 . S
C14 C12 1.365 . S
C14 C15 1.409 . S
C14 H32 0.929 . S
C15 C14 1.409 . S
C15 C16 1.380 . S
C15 H33 0.930 . S
C16 C15 1.380 . S
C16 C23 1.357 . S
C17 C8 1.511 . S
C17 C18 1.341 . S
C17 C19 1.371 . S
C18 C17 1.341 . S
C18 C22 1.394 . S
C18 H34 0.930 . S
C19 C17 1.371 . S
C19 C20 1.392 . S
C19 H35 0.931 . S
C20 C19 1.392 . S
C20 C21 1.331 . S
C20 H38 0.932 . S
C21 C20 1.331 . S
C21 C22 1.336 . S
C22 C18 1.394 . S
C22 C21 1.336 . S
C22 H37 0.929 . S
C23 C13 1.386 . S
C23 C16 1.357 . S
C23 H36 0.928 . S
H24 C0 0.931 . S
H25 C2 0.930 . S
H26 C4 0.929 . S
H27 C5 0.931 . S
H28 C7 0.930 . S
H29 C11 0.931 . S
H30 C9 0.931 . S
H31 C13 0.931 . S
H32 C14 0.929 . S
H33 C15 0.930 . S
H34 C18 0.930 . S
H35 C19 0.931 . S
H36 C23 0.928 . S
H37 C22 0.929 . S
H38 C20 0.932 . S
C39 C40 1.386 . S
C39 C41 1.397 . S
C39 H63 0.931 . S
C40 C39 1.386 . S
C40 C44 1.397 . S
C41 C39 1.397 . S
C41 C42 1.384 . S
C41 H64 0.930 . S
C42 C41 1.384 . S
C42 C43 1.377 . S
C42 C45 1.481 . S
C43 C42 1.377 . S
C43 C44 1.389 . S
C43 H65 0.929 . S
C44 C40 1.397 . S
C44 C43 1.389 . S
C44 H66 0.931 . S
C45 C42 1.481 . S
C45 C46 1.387 . S
C45 C50 1.390 . S
C46 C45 1.387 . S
C46 C47 1.401 . S
C46 H67 0.930 . S
C47 C46 1.401 . S
C47 C48 1.376 . S
C47 C56 1.511 . S
C48 C47 1.376 . S
C48 C49 1.392 . S
C48 H69 0.931 . S
C49 C48 1.392 . S
C49 C50 1.361 . S
C49 C51 1.500 . S
C50 C45 1.390 . S
C50 C49 1.361 . S
C50 H68 0.931 . S
C51 C49 1.500 . S
C51 C52 1.371 . S
C51 C53 1.365 . S
C52 C51 1.371 . S
C52 C62 1.386 . S
C52 H70 0.931 . S
C53 C51 1.365 . S
C53 C54 1.409 . S
C53 H71 0.929 . S
C54 C53 1.409 . S
C54 C55 1.380 . S
C54 H72 0.930 . S
C55 C54 1.380 . S
C55 C62 1.357 . S
C56 C47 1.511 . S
C56 C57 1.341 . S
C56 C58 1.371 . S
C57 C56 1.341 . S
C57 C61 1.394 . S
C57 H73 0.930 . S
C58 C56 1.371 . S
C58 C59 1.392 . S
C58 H74 0.931 . S
C59 C58 1.392 . S
C59 C60 1.331 . S
C59 H77 0.932 . S
C60 C59 1.331 . S
C60 C61 1.336 . S
C61 C57 1.394 . S
C61 C60 1.336 . S
C61 H76 0.929 . S
C62 C52 1.386 . S
C62 C55 1.357 . S
C62 H75 0.928 . S
H63 C39 0.931 . S
H64 C41 0.930 . S
H65 C43 0.929 . S
H66 C44 0.931 . S
H67 C46 0.930 . S
H68 C50 0.931 . S
H69 C48 0.931 . S
H70 C52 0.931 . S
H71 C53 0.929 . S
H72 C54 0.930 . S
H73 C57 0.930 . S
H74 C58 0.931 . S
H75 C62 0.928 . S
H76 C61 0.929 . S
H77 C59 0.932 . S
C78 C79 1.386 . S
C78 C80 1.397 . S
C78 H102 0.931 . S
C79 C78 1.386 . S
C79 C83 1.397 . S
C80 C78 1.397 . S
C80 C81 1.384 . S
C80 H103 0.930 . S
C81 C80 1.384 . S
C81 C82 1.377 . S
C81 C84 1.481 . S
C82 C81 1.377 . S
C82 C83 1.389 . S
C82 H104 0.929 . S
C83 C79 1.397 . S
C83 C82 1.389 . S
C83 H105 0.931 . S
C84 C81 1.481 . S
C84 C85 1.387 . S
C84 C89 1.390 . S
C85 C84 1.387 . S
C85 C86 1.401 . S
C85 H106 0.930 . S
C86 C85 1.401 . S
C86 C87 1.376 . S
C86 C95 1.511 . S
C87 C86 1.376 . S
C87 C88 1.392 . S
C87 H108 0.931 . S
C88 C87 1.392 . S
C88 C89 1.361 . S
C88 C90 1.500 . S
C89 C84 1.390 . S
C89 C88 1.361 . S
C89 H107 0.931 . S
C90 C88 1.500 . S
C90 C91 1.371 . S
C90 C92 1.365 . S
C91 C90 1.371 . S
C91 C101 1.386 . S
C91 H109 0.931 . S
C92 C90 1.365 . S
C92 C93 1.409 . S
C92 H110 0.929 . S
C93 C92 1.409 . S
C93 C94 1.380 . S
C93 H111 0.930 . S
C94 C93 1.380 . S
C94 C101 1.357 . S
C95 C86 1.511 . S
C95 C96 1.341 . S
C95 C97 1.371 . S
C96 C95 1.341 . S
C96 C100 1.394 . S
C96 H112 0.930 . S
C97 C95 1.371 . S
C97 C98 1.392 . S
C97 H113 0.931 . S
C98 C97 1.392 . S
C98 C99 1.331 . S
C98 H116 0.932 . S
C99 C98 1.331 . S
C99 C100 1.336 . S
C100 C96 1.394 . S
C100 C99 1.336 . S
C100 H115 0.929 . S
C101 C91 1.386 . S
C101 C94 1.357 . S
C101 H114 0.928 . S
H102 C78 0.931 . S
H103 C80 0.930 . S
H104 C82 0.929 . S
H105 C83 0.931 . S
H106 C85 0.930 . S
H107 C89 0.931 . S
H108 C87 0.931 . S
H109 C91 0.931 . S
H110 C92 0.929 . S
H111 C93 0.930 . S
H112 C96 0.930 . S
H113 C97 0.931 . S
H114 C101 0.928 . S
H115 C100 0.929 . S
H116 C98 0.932 . S
C117 C118 1.386 . S
C117 C119 1.397 . S
C117 H141 0.931 . S
C118 C117 1.386 . S
C118 C122 1.397 . S
C119 C117 1.397 . S
C119 C120 1.384 . S
C119 H142 0.930 . S
C120 C119 1.384 . S
C120 C121 1.377 . S
C120 C123 1.481 . S
C121 C120 1.377 . S
C121 C122 1.389 . S
C121 H143 0.929 . S
C122 C118 1.397 . S
C122 C121 1.389 . S
C122 H144 0.931 . S
C123 C120 1.481 . S
C123 C124 1.387 . S
C123 C128 1.390 . S
C124 C123 1.387 . S
C124 C125 1.401 . S
C124 H145 0.930 . S
C125 C124 1.401 . S
C125 C126 1.376 . S
C125 C134 1.511 . S
C126 C125 1.376 . S
C126 C127 1.392 . S
C126 H147 0.931 . S
C127 C126 1.392 . S
C127 C128 1.361 . S
C127 C129 1.500 . S
C128 C123 1.390 . S
C128 C127 1.361 . S
C128 H146 0.931 . S
C129 C127 1.500 . S
C129 C130 1.371 . S
C129 C131 1.365 . S
C130 C129 1.371 . S
C130 C140 1.386 . S
C130 H148 0.931 . S
C131 C129 1.365 . S
C131 C132 1.409 . S
C131 H149 0.929 . S
C132 C131 1.409 . S
C132 C133 1.380 . S
C132 H150 0.930 . S
C133 C132 1.380 . S
C133 C140 1.357 . S
C134 C125 1.511 . S
C134 C135 1.341 . S
C134 C136 1.371 . S
C135 C134 1.341 . S
C135 C139 1.394 . S
C135 H151 0.930 . S
C136 C134 1.371 . S
C136 C137 1.392 . S
C136 H152 0.931 . S
C137 C136 1.392 . S
C137 C138 1.331 . S
C137 H155 0.932 . S
C138 C137 1.331 . S
C138 C139 1.336 . S
C139 C135 1.394 . S
C139 C138 1.336 . S
C139 H154 0.929 . S
C140 C130 1.386 . S
C140 C133 1.357 . S
C140 H153 0.928 . S
H141 C117 0.931 . S
H142 C119 0.930 . S
H143 C121 0.929 . S
H144 C122 0.931 . S
H145 C124 0.930 . S
H146 C128 0.931 . S
H147 C126 0.931 . S
H148 C130 0.931 . S
H149 C131 0.929 . S
H150 C132 0.930 . S
H151 C135 0.930 . S
H152 C136 0.931 . S
H153 C140 0.928 . S
H154 C139 0.929 . S
H155 C137 0.932 . S
C156 C157 1.386 . S
C156 C158 1.397 . S
C156 H180 0.931 . S
C157 C156 1.386 . S
C157 C161 1.397 . S
C158 C156 1.397 . S
C158 C159 1.384 . S
C158 H181 0.930 . S
C159 C158 1.384 . S
C159 C160 1.377 . S
C159 C162 1.481 . S
C160 C159 1.377 . S
C160 C161 1.389 . S
C160 H182 0.929 . S
C161 C157 1.397 . S
C161 C160 1.389 . S
C161 H183 0.931 . S
C162 C159 1.481 . S
C162 C163 1.387 . S
C162 C167 1.390 . S
C163 C162 1.387 . S
C163 C164 1.401 . S
C163 H184 0.930 . S
C164 C163 1.401 . S
C164 C165 1.376 . S
C164 C173 1.511 . S
C165 C164 1.376 . S
C165 C166 1.392 . S
C165 H186 0.931 . S
C166 C165 1.392 . S
C166 C167 1.361 . S
C166 C168 1.500 . S
C167 C162 1.390 . S
C167 C166 1.361 . S
C167 H185 0.931 . S
C168 C166 1.500 . S
C168 C169 1.371 . S
C168 C170 1.365 . S
C169 C168 1.371 . S
C169 C179 1.386 . S
C169 H187 0.931 . S
C170 C168 1.365 . S
C170 C171 1.409 . S
C170 H188 0.929 . S
C171 C170 1.409 . S
C171 C172 1.380 . S
C171 H189 0.930 . S
C172 C171 1.380 . S
C172 C179 1.357 . S
C173 C164 1.511 . S
C173 C174 1.341 . S
C173 C175 1.371 . S
C174 C173 1.341 . S
C174 C178 1.394 . S
C174 H190 0.930 . S
C175 C173 1.371 . S
C175 C176 1.392 . S
C175 H191 0.931 . S
C176 C175 1.392 . S
C176 C177 1.331 . S
C176 H194 0.932 . S
C177 C176 1.331 . S
C177 C178 1.336 . S
C178 C174 1.394 . S
C178 C177 1.336 . S
C178 H193 0.929 . S
C179 C169 1.386 . S
C179 C172 1.357 . S
C179 H192 0.928 . S
H180 C156 0.931 . S
H181 C158 0.930 . S
H182 C160 0.929 . S
H183 C161 0.931 . S
H184 C163 0.930 . S
H185 C167 0.931 . S
H186 C165 0.931 . S
H187 C169 0.931 . S
H188 C170 0.929 . S
H189 C171 0.930 . S
H190 C174 0.930 . S
H191 C175 0.931 . S
H192 C179 0.928 . S
H193 C178 0.929 . S
H194 C176 0.932 . S
C195 C196 1.386 . S
C195 C197 1.397 . S
C195 H219 0.931 . S
C196 C195 1.386 . S
C196 C200 1.397 . S
C197 C195 1.397 . S
C197 C198 1.384 . S
C197 H220 0.930 . S
C198 C197 1.384 . S
C198 C199 1.377 . S
C198 C201 1.481 . S
C199 C198 1.377 . S
C199 C200 1.389 . S
C199 H221 0.929 . S
C200 C196 1.397 . S
C200 C199 1.389 . S
C200 H222 0.931 . S
C201 C198 1.481 . S
C201 C202 1.387 . S
C201 C206 1.390 . S
C202 C201 1.387 . S
C202 C203 1.401 . S
C202 H223 0.930 . S
C203 C202 1.401 . S
C203 C204 1.376 . S
C203 C212 1.511 . S
C204 C203 1.376 . S
C204 C205 1.392 . S
C204 H225 0.931 . S
C205 C204 1.392 . S
C205 C206 1.361 . S
C205 C207 1.500 . S
C206 C201 1.390 . S
C206 C205 1.361 . S
C206 H224 0.931 . S
C207 C205 1.500 . S
C207 C208 1.371 . S
C207 C209 1.365 . S
C208 C207 1.371 . S
C208 C218 1.386 . S
C208 H226 0.931 . S
C209 C207 1.365 . S
C209 C210 1.409 . S
C209 H227 0.929 . S
C210 C209 1.409 . S
C210 C211 1.380 . S
C210 H228 0.930 . S
C211 C210 1.380 . S
C211 C218 1.357 . S
C212 C203 1.511 . S
C212 C213 1.341 . S
C212 C214 1.371 . S
C213 C212 1.341 . S
C213 C217 1.394 . S
C213 H229 0.930 . S
C214 C212 1.371 . S
C214 C215 1.392 . S
C214 H230 0.931 . S
C215 C214 1.392 . S
C215 C216 1.331 . S
C215 H233 0.932 . S
C216 C215 1.331 . S
C216 C217 1.336 . S
C217 C213 1.394 . S
C217 C216 1.336 . S
C217 H232 0.929 . S
C218 C208 1.386 . S
C218 C211 1.357 . S
C218 H231 0.928 . S
H219 C195 0.931 . S
H220 C197 0.930 . S
H221 C199 0.929 . S
H222 C200 0.931 . S
H223 C202 0.930 . S
H224 C206 0.931 . S
H225 C204 0.931 . S
H226 C208 0.931 . S
H227 C209 0.929 . S
H228 C210 0.930 . S
H229 C213 0.930 . S
H230 C214 0.931 . S
H231 C218 0.928 . S
H232 C217 0.929 . S
H233 C215 0.932 . S
C234 C235 1.386 . S
C234 C236 1.397 . S
C234 H258 0.931 . S
C235 C234 1.386 . S
C235 C239 1.397 . S
C236 C234 1.397 . S
C236 C237 1.384 . S
C236 H259 0.930 . S
C237 C236 1.384 . S
C237 C238 1.377 . S
C237 C240 1.481 . S
C238 C237 1.377 . S
C238 C239 1.389 . S
C238 H260 0.929 . S
C239 C235 1.397 . S
C239 C238 1.389 . S
C239 H261 0.931 . S
C240 C237 1.481 . S
C240 C241 1.387 . S
C240 C245 1.390 . S
C241 C240 1.387 . S
C241 C242 1.401 . S
C241 H262 0.930 . S
C242 C241 1.401 . S
C242 C243 1.376 . S
C242 C251 1.511 . S
C243 C242 1.376 . S
C243 C244 1.392 . S
C243 H264 0.931 . S
C244 C243 1.392 . S
C244 C245 1.361 . S
C244 C246 1.500 . S
C245 C240 1.390 . S
C245 C244 1.361 . S
C245 H263 0.931 . S
C246 C244 1.500 . S
C246 C247 1.371 . S
C246 C248 1.365 . S
C247 C246 1.371 . S
C247 C257 1.386 . S
C247 H265 0.931 . S
C248 C246 1.365 . S
C248 C249 1.409 . S
C248 H266 0.929 . S
C249 C248 1.409 . S
C249 C250 1.380 . S
C249 H267 0.930 . S
C250 C249 1.380 . S
C250 C257 1.357 . S
C251 C242 1.511 . S
C251 C252 1.341 . S
C251 C253 1.371 . S
C252 C251 1.341 . S
C252 C256 1.394 . S
C252 H268 0.930 . S
C253 C251 1.371 . S
C253 C254 1.392 . S
C253 H269 0.931 . S
C254 C253 1.392 . S
C254 C255 1.331 . S
C254 H272 0.932 . S
C255 C254 1.331 . S
C255 C256 1.336 . S
C256 C252 1.394 . S
C256 C255 1.336 . S
C256 H271 0.929 . S
C257 C247 1.386 . S
C257 C250 1.357 . S
C257 H270 0.928 . S
H258 C234 0.931 . S
H259 C236 0.930 . S
H260 C238 0.929 . S
H261 C239 0.931 . S
H262 C241 0.930 . S
H263 C245 0.931 . S
H264 C243 0.931 . S
H265 C247 0.931 . S
H266 C248 0.929 . S
H267 C249 0.930 . S
H268 C252 0.930 . S
H269 C253 0.931 . S
H270 C257 0.928 . S
H271 C256 0.929 . S
H272 C254 0.932 . S
C273 C274 1.386 . S
C273 C275 1.397 . S
C273 H297 0.931 . S
C274 C273 1.386 . S
C274 C278 1.397 . S
C275 C273 1.397 . S
C275 C276 1.384 . S
C275 H298 0.930 . S
C276 C275 1.384 . S
C276 C277 1.377 . S
C276 C279 1.481 . S
C277 C276 1.377 . S
C277 C278 1.389 . S
C277 H299 0.929 . S
C278 C274 1.397 . S
C278 C277 1.389 . S
C278 H300 0.931 . S
C279 C276 1.481 . S
C279 C280 1.387 . S
C279 C284 1.390 . S
C280 C279 1.387 . S
C280 C281 1.401 . S
C280 H301 0.930 . S
C281 C280 1.401 . S
C281 C282 1.376 . S
C281 C290 1.511 . S
C282 C281 1.376 . S
C282 C283 1.392 . S
C282 H303 0.931 . S
C283 C282 1.392 . S
C283 C284 1.361 . S
C283 C285 1.500 . S
C284 C279 1.390 . S
C284 C283 1.361 . S
C284 H302 0.931 . S
C285 C283 1.500 . S
C285 C286 1.371 . S
C285 C287 1.365 . S
C286 C285 1.371 . S
C286 C296 1.386 . S
C286 H304 0.931 . S
C287 C285 1.365 . S
C287 C288 1.409 . S
C287 H305 0.929 . S
C288 C287 1.409 . S
C288 C289 1.380 . S
C288 H306 0.930 . S
C289 C288 1.380 . S
C289 C296 1.357 . S
C290 C281 1.511 . S
C290 C291 1.341 . S
C290 C292 1.371 . S
C291 C290 1.341 . S
C291 C295 1.394 . S
C291 H307 0.930 . S
C292 C290 1.371 . S
C292 C293 1.392 . S
C292 H308 0.931 . S
C293 C292 1.392 . S
C293 C294 1.331 . S
C293 H311 0.932 . S
C294 C293 1.331 . S
C294 C295 1.336 . S
C295 C291 1.394 . S
C295 C294 1.336 . S
C295 H310 0.929 . S
C296 C286 1.386 . S
C296 C289 1.357 . S
C296 H309 0.928 . S
H297 C273 0.931 . S
H298 C275 0.930 . S
H299 C277 0.929 . S
H300 C278 0.931 . S
H301 C280 0.930 . S
H302 C284 0.931 . S
H303 C282 0.931 . S
H304 C286 0.931 . S
H305 C287 0.929 . S
H306 C288 0.930 . S
H307 C291 0.930 . S
H308 C292 0.931 . S
H309 C296 0.928 . S
H310 C295 0.929 . S
H311 C293 0.932 . S
C312 C313 1.386 . S
C312 C314 1.397 . S
C312 H336 0.931 . S
C313 C312 1.386 . S
C313 C317 1.397 . S
C314 C312 1.397 . S
C314 C315 1.384 . S
C314 H337 0.930 . S
C315 C314 1.384 . S
C315 C316 1.377 . S
C315 C318 1.481 . S
C316 C315 1.377 . S
C316 C317 1.389 . S
C316 H338 0.929 . S
C317 C313 1.397 . S
C317 C316 1.389 . S
C317 H339 0.931 . S
C318 C315 1.481 . S
C318 C319 1.387 . S
C318 C323 1.390 . S
C319 C318 1.387 . S
C319 C320 1.401 . S
C319 H340 0.930 . S
C320 C319 1.401 . S
C320 C321 1.376 . S
C320 C329 1.511 . S
C321 C320 1.376 . S
C321 C322 1.392 . S
C321 H342 0.931 . S
C322 C321 1.392 . S
C322 C323 1.361 . S
C322 C324 1.500 . S
C323 C318 1.390 . S
C323 C322 1.361 . S
C323 H341 0.931 . S
C324 C322 1.500 . S
C324 C325 1.371 . S
C324 C326 1.365 . S
C325 C324 1.371 . S
C325 C335 1.386 . S
C325 H343 0.931 . S
C326 C324 1.365 . S
C326 C327 1.409 . S
C326 H344 0.929 . S
C327 C326 1.409 . S
C327 C328 1.380 . S
C327 H345 0.930 . S
C328 C327 1.380 . S
C328 C335 1.357 . S
C329 C320 1.511 . S
C329 C330 1.341 . S
C329 C331 1.371 . S
C330 C329 1.341 . S
C330 C334 1.394 . S
C330 H346 0.930 . S
C331 C329 1.371 . S
C331 C332 1.392 . S
C331 H347 0.931 . S
C332 C331 1.392 . S
C332 C333 1.331 . S
C332 H350 0.932 . S
C333 C332 1.331 . S
C333 C334 1.336 . S
C334 C330 1.394 . S
C334 C333 1.336 . S
C334 H349 0.929 . S
C335 C325 1.386 . S
C335 C328 1.357 . S
C335 H348 0.928 . S
H336 C312 0.931 . S
H337 C314 0.930 . S
H338 C316 0.929 . S
H339 C317 0.931 . S
H340 C319 0.930 . S
H341 C323 0.931 . S
H342 C321 0.931 . S
H343 C325 0.931 . S
H344 C326 0.929 . S
H345 C327 0.930 . S
H346 C330 0.930 . S
H347 C331 0.931 . S
H348 C335 0.928 . S
H349 C334 0.929 . S
H350 C332 0.932 . S
C351 C352 1.386 . S
C351 C353 1.397 . S
C351 H375 0.931 . S
C352 C351 1.386 . S
C352 C356 1.397 . S
C353 C351 1.397 . S
C353 C354 1.384 . S
C353 H376 0.930 . S
C354 C353 1.384 . S
C354 C355 1.377 . S
C354 C357 1.481 . S
C355 C354 1.377 . S
C355 C356 1.389 . S
C355 H377 0.929 . S
C356 C352 1.397 . S
C356 C355 1.389 . S
C356 H378 0.931 . S
C357 C354 1.481 . S
C357 C358 1.387 . S
C357 C362 1.390 . S
C358 C357 1.387 . S
C358 C359 1.401 . S
C358 H379 0.930 . S
C359 C358 1.401 . S
C359 C360 1.376 . S
C359 C368 1.511 . S
C360 C359 1.376 . S
C360 C361 1.392 . S
C360 H381 0.931 . S
C361 C360 1.392 . S
C361 C362 1.361 . S
C361 C363 1.500 . S
C362 C357 1.390 . S
C362 C361 1.361 . S
C362 H380 0.931 . S
C363 C361 1.500 . S
C363 C364 1.371 . S
C363 C365 1.365 . S
C364 C363 1.371 . S
C364 C374 1.386 . S
C364 H382 0.931 . S
C365 C363 1.365 . S
C365 C366 1.409 . S
C365 H383 0.929 . S
C366 C365 1.409 . S
C366 C367 1.380 . S
C366 H384 0.930 . S
C367 C366 1.380 . S
C367 C374 1.357 . S
C368 C359 1.511 . S
C368 C369 1.341 . S
C368 C370 1.371 . S
C369 C368 1.341 . S
C369 C373 1.394 . S
C369 H385 0.930 . S
C370 C368 1.371 . S
C370 C371 1.392 . S
C370 H386 0.931 . S
C371 C370 1.392 . S
C371 C372 1.331 . S
C371 H389 0.932 . S
C372 C371 1.331 . S
C372 C373 1.336 . S
C373 C369 1.394 . S
C373 C372 1.336 . S
C373 H388 0.929 . S
C374 C364 1.386 . S
C374 C367 1.357 . S
C374 H387 0.928 . S
H375 C351 0.931 . S
H376 C353 0.930 . S
H377 C355 0.929 . S
H378 C356 0.931 . S
H379 C358 0.930 . S
H380 C362 0.931 . S
H381 C360 0.931 . S
H382 C364 0.931 . S
H383 C365 0.929 . S
H384 C366 0.930 . S
H385 C369 0.930 . S
H386 C370 0.931 . S
H387 C374 0.928 . S
H388 C373 0.929 . S
H389 C371 0.932 . S
C390 C391 1.386 . S
C390 C392 1.397 . S
C390 H414 0.931 . S
C391 C390 1.386 . S
C391 C395 1.397 . S
C392 C390 1.397 . S
C392 C393 1.384 . S
C392 H415 0.930 . S
C393 C392 1.384 . S
C393 C394 1.377 . S
C393 C396 1.481 . S
C394 C393 1.377 . S
C394 C395 1.389 . S
C394 H416 0.929 . S
C395 C391 1.397 . S
C395 C394 1.389 . S
C395 H417 0.931 . S
C396 C393 1.481 . S
C396 C397 1.387 . S
C396 C401 1.390 . S
C397 C396 1.387 . S
C397 C398 1.401 . S
C397 H418 0.930 . S
C398 C397 1.401 . S
C398 C399 1.376 . S
C398 C407 1.511 . S
C399 C398 1.376 . S
C399 C400 1.392 . S
C399 H420 0.931 . S
C400 C399 1.392 . S
C400 C401 1.361 . S
C400 C402 1.500 . S
C401 C396 1.390 . S
C401 C400 1.361 . S
C401 H419 0.931 . S
C402 C400 1.500 . S
C402 C403 1.371 . S
C402 C404 1.365 . S
C403 C402 1.371 . S
C403 C413 1.386 . S
C403 H421 0.931 . S
C404 C402 1.365 . S
C404 C405 1.409 . S
C404 H422 0.929 . S
C405 C404 1.409 . S
C405 C406 1.380 . S
C405 H423 0.930 . S
C406 C405 1.380 . S
C406 C413 1.357 . S
C407 C398 1.511 . S
C407 C408 1.341 . S
C407 C409 1.371 . S
C408 C407 1.341 . S
C408 C412 1.394 . S
C408 H424 0.930 . S
C409 C407 1.371 . S
C409 C410 1.392 . S
C409 H425 0.931 . S
C410 C409 1.392 . S
C410 C411 1.331 . S
C410 H428 0.932 . S
C411 C410 1.331 . S
C411 C412 1.336 . S
C412 C408 1.394 . S
C412 C411 1.336 . S
C412 H427 0.929 . S
C413 C403 1.386 . S
C413 C406 1.357 . S
C413 H426 0.928 . S
H414 C390 0.931 . S
H415 C392 0.930 . S
H416 C394 0.929 . S
H417 C395 0.931 . S
H418 C397 0.930 . S
H419 C401 0.931 . S
H420 C399 0.931 . S
H421 C403 0.931 . S
H422 C404 0.929 . S
H423 C405 0.930 . S
H424 C408 0.930 . S
H425 C409 0.931 . S
H426 C413 0.928 . S
H427 C412 0.929 . S
H428 C410 0.932 . S
C429 C430 1.386 . S
C429 C431 1.397 . S
C429 H453 0.931 . S
C430 C429 1.386 . S
C430 C434 1.397 . S
C431 C429 1.397 . S
C431 C432 1.384 . S
C431 H454 0.930 . S
C432 C431 1.384 . S
C432 C433 1.377 . S
C432 C435 1.481 . S
C433 C432 1.377 . S
C433 C434 1.389 . S
C433 H455 0.929 . S
C434 C430 1.397 . S
C434 C433 1.389 . S
C434 H456 0.931 . S
C435 C432 1.481 . S
C435 C436 1.387 . S
C435 C440 1.390 . S
C436 C435 1.387 . S
C436 C437 1.401 . S
C436 H457 0.930 . S
C437 C436 1.401 . S
C437 C438 1.376 . S
C437 C446 1.511 . S
C438 C437 1.376 . S
C438 C439 1.392 . S
C438 H459 0.931 . S
C439 C438 1.392 . S
C439 C440 1.361 . S
C439 C441 1.500 . S
C440 C435 1.390 . S
C440 C439 1.361 . S
C440 H458 0.931 . S
C441 C439 1.500 . S
C441 C442 1.371 . S
C441 C443 1.365 . S
C442 C441 1.371 . S
C442 C452 1.386 . S
C442 H460 0.931 . S
C443 C441 1.365 . S
C443 C444 1.409 . S
C443 H461 0.929 . S
C444 C443 1.409 . S
C444 C445 1.380 . S
C444 H462 0.930 . S
C445 C444 1.380 . S
C445 C452 1.357 . S
C446 C437 1.511 . S
C446 C447 1.341 . S
C446 C448 1.371 . S
C447 C446 1.341 . S
C447 C451 1.394 . S
C447 H463 0.930 . S
C448 C446 1.371 . S
C448 C449 1.392 . S
C448 H464 0.931 . S
C449 C448 1.392 . S
C449 C450 1.331 . S
C449 H467 0.932 . S
C450 C449 1.331 . S
C450 C451 1.336 . S
C451 C447 1.394 . S
C451 C450 1.336 . S
C451 H466 0.929 . S
C452 C442 1.386 . S
C452 C445 1.357 . S
C452 H465 0.928 . S
H453 C429 0.931 . S
H454 C431 0.930 . S
H455 C433 0.929 . S
H456 C434 0.931 . S
H457 C436 0.930 . S
H458 C440 0.931 . S
H459 C438 0.931 . S
H460 C442 0.931 . S
H461 C443 0.929 . S
H462 C444 0.930 . S
H463 C447 0.930 . S
H464 C448 0.931 . S
H465 C452 0.928 . S
H466 C451 0.929 . S
H467 C449 0.932 . S
C468 C469 1.386 . S
C468 C470 1.397 . S
C468 H492 0.931 . S
C469 C468 1.386 . S
C469 C473 1.397 . S
C470 C468 1.397 . S
C470 C471 1.384 . S
C470 H493 0.930 . S
C471 C470 1.384 . S
C471 C472 1.377 . S
C471 C474 1.481 . S
C472 C471 1.377 . S
C472 C473 1.389 . S
C472 H494 0.929 . S
C473 C469 1.397 . S
C473 C472 1.389 . S
C473 H495 0.931 . S
C474 C471 1.481 . S
C474 C475 1.387 . S
C474 C479 1.390 . S
C475 C474 1.387 . S
C475 C476 1.401 . S
C475 H496 0.930 . S
C476 C475 1.401 . S
C476 C477 1.376 . S
C476 C485 1.511 . S
C477 C476 1.376 . S
C477 C478 1.392 . S
C477 H498 0.931 . S
C478 C477 1.392 . S
C478 C479 1.361 . S
C478 C480 1.500 . S
C479 C474 1.390 . S
C479 C478 1.361 . S
C479 H497 0.931 . S
C480 C478 1.500 . S
C480 C481 1.371 . S
C480 C482 1.365 . S
C481 C480 1.371 . S
C481 C491 1.386 . S
C481 H499 0.931 . S
C482 C480 1.365 . S
C482 C483 1.409 . S
C482 H500 0.929 . S
C483 C482 1.409 . S
C483 C484 1.380 . S
C483 H501 0.930 . S
C484 C483 1.380 . S
C484 C491 1.357 . S
C485 C476 1.511 . S
C485 C486 1.341 . S
C485 C487 1.371 . S
C486 C485 1.341 . S
C486 C490 1.394 . S
C486 H502 0.930 . S
C487 C485 1.371 . S
C487 C488 1.392 . S
C487 H503 0.931 . S
C488 C487 1.392 . S
C488 C489 1.331 . S
C488 H506 0.932 . S
C489 C488 1.331 . S
C489 C490 1.336 . S
C490 C486 1.394 . S
C490 C489 1.336 . S
C490 H505 0.929 . S
C491 C481 1.386 . S
C491 C484 1.357 . S
C491 H504 0.928 . S
H492 C468 0.931 . S
H493 C470 0.930 . S
H494 C472 0.929 . S
H495 C473 0.931 . S
H496 C475 0.930 . S
H497 C479 0.931 . S
H498 C477 0.931 . S
H499 C481 0.931 . S
H500 C482 0.929 . S
H501 C483 0.930 . S
H502 C486 0.930 . S
H503 C487 0.931 . S
H504 C491 0.928 . S
H505 C490 0.929 . S
H506 C488 0.932 . S
C507 C508 1.386 . S
C507 C509 1.397 . S
C507 H531 0.931 . S
C508 C507 1.386 . S
C508 C512 1.397 . S
C509 C507 1.397 . S
C509 C510 1.384 . S
C509 H532 0.930 . S
C510 C509 1.384 . S
C510 C511 1.377 . S
C510 C513 1.481 . S
C511 C510 1.377 . S
C511 C512 1.389 . S
C511 H533 0.929 . S
C512 C508 1.397 . S
C512 C511 1.389 . S
C512 H534 0.931 . S
C513 C510 1.481 . S
C513 C514 1.387 . S
C513 C518 1.390 . S
C514 C513 1.387 . S
C514 C515 1.401 . S
C514 H535 0.930 . S
C515 C514 1.401 . S
C515 C516 1.376 . S
C515 C524 1.511 . S
C516 C515 1.376 . S
C516 C517 1.392 . S
C516 H537 0.931 . S
C517 C516 1.392 . S
C517 C518 1.361 . S
C517 C519 1.500 . S
C518 C513 1.390 . S
C518 C517 1.361 . S
C518 H536 0.931 . S
C519 C517 1.500 . S
C519 C520 1.371 . S
C519 C521 1.365 . S
C520 C519 1.371 . S
C520 C530 1.386 . S
C520 H538 0.931 . S
C521 C519 1.365 . S
C521 C522 1.409 . S
C521 H539 0.929 . S
C522 C521 1.409 . S
C522 C523 1.380 . S
C522 H540 0.930 . S
C523 C522 1.380 . S
C523 C530 1.357 . S
C524 C515 1.511 . S
C524 C525 1.341 . S
C524 C526 1.371 . S
C525 C524 1.341 . S
C525 C529 1.394 . S
C525 H541 0.930 . S
C526 C524 1.371 . S
C526 C527 1.392 . S
C526 H542 0.931 . S
C527 C526 1.392 . S
C527 C528 1.331 . S
C527 H545 0.932 . S
C528 C527 1.331 . S
C528 C529 1.336 . S
C529 C525 1.394 . S
C529 C528 1.336 . S
C529 H544 0.929 . S
C530 C520 1.386 . S
C530 C523 1.357 . S
C530 H543 0.928 . S
H531 C507 0.931 . S
H532 C509 0.930 . S
H533 C511 0.929 . S
H534 C512 0.931 . S
H535 C514 0.930 . S
H536 C518 0.931 . S
H537 C516 0.931 . S
H538 C520 0.931 . S
H539 C521 0.929 . S
H540 C522 0.930 . S
H541 C525 0.930 . S
H542 C526 0.931 . S
H543 C530 0.928 . S
H544 C529 0.929 . S
H545 C527 0.932 . S
C546 C547 1.386 . S
C546 C548 1.397 . S
C546 H570 0.931 . S
C547 C546 1.386 . S
C547 C551 1.397 . S
C548 C546 1.397 . S
C548 C549 1.384 . S
C548 H571 0.930 . S
C549 C548 1.384 . S
C549 C550 1.377 . S
C549 C552 1.481 . S
C550 C549 1.377 . S
C550 C551 1.389 . S
C550 H572 0.929 . S
C551 C547 1.397 . S
C551 C550 1.389 . S
C551 H573 0.931 . S
C552 C549 1.481 . S
C552 C553 1.387 . S
C552 C557 1.390 . S
C553 C552 1.387 . S
C553 C554 1.401 . S
C553 H574 0.930 . S
C554 C553 1.401 . S
C554 C555 1.376 . S
C554 C563 1.511 . S
C555 C554 1.376 . S
C555 C556 1.392 . S
C555 H576 0.931 . S
C556 C555 1.392 . S
C556 C557 1.361 . S
C556 C558 1.500 . S
C557 C552 1.390 . S
C557 C556 1.361 . S
C557 H575 0.931 . S
C558 C556 1.500 . S
C558 C559 1.371 . S
C558 C560 1.365 . S
C559 C558 1.371 . S
C559 C569 1.386 . S
C559 H577 0.931 . S
C560 C558 1.365 . S
C560 C561 1.409 . S
C560 H578 0.929 . S
C561 C560 1.409 . S
C561 C562 1.380 . S
C561 H579 0.930 . S
C562 C561 1.380 . S
C562 C569 1.357 . S
C563 C554 1.511 . S
C563 C564 1.341 . S
C563 C565 1.371 . S
C564 C563 1.341 . S
C564 C568 1.394 . S
C564 H580 0.930 . S
C565 C563 1.371 . S
C565 C566 1.392 . S
C565 H581 0.931 . S
C566 C565 1.392 . S
C566 C567 1.331 . S
C566 H584 0.932 . S
C567 C566 1.331 . S
C567 C568 1.336 . S
C568 C564 1.394 . S
C568 C567 1.336 . S
C568 H583 0.929 . S
C569 C559 1.386 . S
C569 C562 1.357 . S
C569 H582 0.928 . S
H570 C546 0.931 . S
H571 C548 0.930 . S
H572 C550 0.929 . S
H573 C551 0.931 . S
H574 C553 0.930 . S
H575 C557 0.931 . S
H576 C555 0.931 . S
H577 C559 0.931 . S
H578 C560 0.929 . S
H579 C561 0.930 . S
H580 C564 0.930 . S
H581 C565 0.931 . S
H582 C569 0.928 . S
H583 C568 0.929 . S
H584 C566 0.932 . S
C585 C586 1.386 . S
C585 C587 1.397 . S
C585 H609 0.931 . S
C586 C585 1.386 . S
C586 C590 1.397 . S
C587 C585 1.397 . S
C587 C588 1.384 . S
C587 H610 0.930 . S
C588 C587 1.384 . S
C588 C589 1.377 . S
C588 C591 1.481 . S
C589 C588 1.377 . S
C589 C590 1.389 . S
C589 H611 0.929 . S
C590 C586 1.397 . S
C590 C589 1.389 . S
C590 H612 0.931 . S
C591 C588 1.481 . S
C591 C592 1.387 . S
C591 C596 1.390 . S
C592 C591 1.387 . S
C592 C593 1.401 . S
C592 H613 0.930 . S
C593 C592 1.401 . S
C593 C594 1.376 . S
C593 C602 1.511 . S
C594 C593 1.376 . S
C594 C595 1.392 . S
C594 H615 0.931 . S
C595 C594 1.392 . S
C595 C596 1.361 . S
C595 C597 1.500 . S
C596 C591 1.390 . S
C596 C595 1.361 . S
C596 H614 0.931 . S
C597 C595 1.500 . S
C597 C598 1.371 . S
C597 C599 1.365 . S
C598 C597 1.371 . S
C598 C608 1.386 . S
C598 H616 0.931 . S
C599 C597 1.365 . S
C599 C600 1.409 . S
C599 H617 0.929 . S
C600 C599 1.409 . S
C600 C601 1.380 . S
C600 H618 0.930 . S
C601 C600 1.380 . S
C601 C608 1.357 . S
C602 C593 1.511 . S
C602 C603 1.341 . S
C602 C604 1.371 . S
C603 C602 1.341 . S
C603 C607 1.394 . S
C603 H619 0.930 . S
C604 C602 1.371 . S
C604 C605 1.392 . S
C604 H620 0.931 . S
C605 C604 1.392 . S
C605 C606 1.331 . S
C605 H623 0.932 . S
C606 C605 1.331 . S
C606 C607 1.336 . S
C607 C603 1.394 . S
C607 C606 1.336 . S
C607 H622 0.929 . S
C608 C598 1.386 . S
C608 C601 1.357 . S
C608 H621 0.928 . S
H609 C585 0.931 . S
H610 C587 0.930 . S
H611 C589 0.929 . S
H612 C590 0.931 . S
H613 C592 0.930 . S
H614 C596 0.931 . S
H615 C594 0.931 . S
H616 C598 0.931 . S
H617 C599 0.929 . S
H618 C600 0.930 . S
H619 C603 0.930 . S
H620 C604 0.931 . S
H621 C608 0.928 . S
H622 C607 0.929 . S
H623 C605 0.932 . S
C624 C625 1.386 . S
C624 C626 1.397 . S
C624 H648 0.931 . S
C625 C624 1.386 . S
C625 C629 1.397 . S
C626 C624 1.397 . S
C626 C627 1.384 . S
C626 H649 0.930 . S
C627 C626 1.384 . S
C627 C628 1.377 . S
C627 C630 1.481 . S
C628 C627 1.377 . S
C628 C629 1.389 . S
C628 H650 0.929 . S
C629 C625 1.397 . S
C629 C628 1.389 . S
C629 H651 0.931 . S
C630 C627 1.481 . S
C630 C631 1.387 . S
C630 C635 1.390 . S
C631 C630 1.387 . S
C631 C632 1.401 . S
C631 H652 0.930 . S
C632 C631 1.401 . S
C632 C633 1.376 . S
C632 C641 1.511 . S
C633 C632 1.376 . S
C633 C634 1.392 . S
C633 H654 0.931 . S
C634 C633 1.392 . S
C634 C635 1.361 . S
C634 C636 1.500 . S
C635 C630 1.390 . S
C635 C634 1.361 . S
C635 H653 0.931 . S
C636 C634 1.500 . S
C636 C637 1.371 . S
C636 C638 1.365 . S
C637 C636 1.371 . S
C637 C647 1.386 . S
C637 H655 0.931 . S
C638 C636 1.365 . S
C638 C639 1.409 . S
C638 H656 0.929 . S
C639 C638 1.409 . S
C639 C640 1.380 . S
C639 H657 0.930 . S
C640 C639 1.380 . S
C640 C647 1.357 . S
C641 C632 1.511 . S
C641 C642 1.341 . S
C641 C643 1.371 . S
C642 C641 1.341 . S
C642 C646 1.394 . S
C642 H658 0.930 . S
C643 C641 1.371 . S
C643 C644 1.392 . S
C643 H659 0.931 . S
C644 C643 1.392 . S
C644 C645 1.331 . S
C644 H662 0.932 . S
C645 C644 1.331 . S
C645 C646 1.336 . S
C646 C642 1.394 . S
C646 C645 1.336 . S
C646 H661 0.929 . S
C647 C637 1.386 . S
C647 C640 1.357 . S
C647 H660 0.928 . S
H648 C624 0.931 . S
H649 C626 0.930 . S
H650 C628 0.929 . S
H651 C629 0.931 . S
H652 C631 0.930 . S
H653 C635 0.931 . S
H654 C633 0.931 . S
H655 C637 0.931 . S
H656 C638 0.929 . S
H657 C639 0.930 . S
H658 C642 0.930 . S
H659 C643 0.931 . S
H660 C647 0.928 . S
H661 C646 0.929 . S
H662 C644 0.932 . S
C663 C664 1.386 . S
C663 C665 1.397 . S
C663 H687 0.931 . S
C664 C663 1.386 . S
C664 C668 1.397 . S
C665 C663 1.397 . S
C665 C666 1.384 . S
C665 H688 0.930 . S
C666 C665 1.384 . S
C666 C667 1.377 . S
C666 C669 1.481 . S
C667 C666 1.377 . S
C667 C668 1.389 . S
C667 H689 0.929 . S
C668 C664 1.397 . S
C668 C667 1.389 . S
C668 H690 0.931 . S
C669 C666 1.481 . S
C669 C670 1.387 . S
C669 C674 1.390 . S
C670 C669 1.387 . S
C670 C671 1.401 . S
C670 H691 0.930 . S
C671 C670 1.401 . S
C671 C672 1.376 . S
C671 C680 1.511 . S
C672 C671 1.376 . S
C672 C673 1.392 . S
C672 H693 0.931 . S
C673 C672 1.392 . S
C673 C674 1.361 . S
C673 C675 1.500 . S
C674 C669 1.390 . S
C674 C673 1.361 . S
C674 H692 0.931 . S
C675 C673 1.500 . S
C675 C676 1.371 . S
C675 C677 1.365 . S
C676 C675 1.371 . S
C676 C686 1.386 . S
C676 H694 0.931 . S
C677 C675 1.365 . S
C677 C678 1.409 . S
C677 H695 0.929 . S
C678 C677 1.409 . S
C678 C679 1.380 . S
C678 H696 0.930 . S
C679 C678 1.380 . S
C679 C686 1.357 . S
C680 C671 1.511 . S
C680 C681 1.341 . S
C680 C682 1.371 . S
C681 C680 1.341 . S
C681 C685 1.394 . S
C681 H697 0.930 . S
C682 C680 1.371 . S
C682 C683 1.392 . S
C682 H698 0.931 . S
C683 C682 1.392 . S
C683 C684 1.331 . S
C683 H701 0.932 . S
C684 C683 1.331 . S
C684 C685 1.336 . S
C685 C681 1.394 . S
C685 C684 1.336 . S
C685 H700 0.929 . S
C686 C676 1.386 . S
C686 C679 1.357 . S
C686 H699 0.928 . S
H687 C663 0.931 . S
H688 C665 0.930 . S
H689 C667 0.929 . S
H690 C668 0.931 . S
H691 C670 0.930 . S
H692 C674 0.931 . S
H693 C672 0.931 . S
H694 C676 0.931 . S
H695 C677 0.929 . S
H696 C678 0.930 . S
H697 C681 0.930 . S
H698 C682 0.931 . S
H699 C686 0.928 . S
H700 C685 0.929 . S
H701 C683 0.932 . S
C702 C703 1.386 . S
C702 C704 1.397 . S
C702 H726 0.931 . S
C703 C702 1.386 . S
C703 C707 1.397 . S
C704 C702 1.397 . S
C704 C705 1.384 . S
C704 H727 0.930 . S
C705 C704 1.384 . S
C705 C706 1.377 . S
C705 C708 1.481 . S
C706 C705 1.377 . S
C706 C707 1.389 . S
C706 H728 0.929 . S
C707 C703 1.397 . S
C707 C706 1.389 . S
C707 H729 0.931 . S
C708 C705 1.481 . S
C708 C709 1.387 . S
C708 C713 1.390 . S
C709 C708 1.387 . S
C709 C710 1.401 . S
C709 H730 0.930 . S
C710 C709 1.401 . S
C710 C711 1.376 . S
C710 C719 1.511 . S
C711 C710 1.376 . S
C711 C712 1.392 . S
C711 H732 0.931 . S
C712 C711 1.392 . S
C712 C713 1.361 . S
C712 C714 1.500 . S
C713 C708 1.390 . S
C713 C712 1.361 . S
C713 H731 0.931 . S
C714 C712 1.500 . S
C714 C715 1.371 . S
C714 C716 1.365 . S
C715 C714 1.371 . S
C715 C725 1.386 . S
C715 H733 0.931 . S
C716 C714 1.365 . S
C716 C717 1.409 . S
C716 H734 0.929 . S
C717 C716 1.409 . S
C717 C718 1.380 . S
C717 H735 0.930 . S
C718 C717 1.380 . S
C718 C725 1.357 . S
C719 C710 1.511 . S
C719 C720 1.341 . S
C719 C721 1.371 . S
C720 C719 1.341 . S
C720 C724 1.394 . S
C720 H736 0.930 . S
C721 C719 1.371 . S
C721 C722 1.392 . S
C721 H737 0.931 . S
C722 C721 1.392 . S
C722 C723 1.331 . S
C722 H740 0.932 . S
C723 C722 1.331 . S
C723 C724 1.336 . S
C724 C720 1.394 . S
C724 C723 1.336 . S
C724 H739 0.929 . S
C725 C715 1.386 . S
C725 C718 1.357 . S
C725 H738 0.928 . S
H726 C702 0.931 . S
H727 C704 0.930 . S
H728 C706 0.929 . S
H729 C707 0.931 . S
H730 C709 0.930 . S
H731 C713 0.931 . S
H732 C711 0.931 . S
H733 C715 0.931 . S
H734 C716 0.929 . S
H735 C717 0.930 . S
H736 C720 0.930 . S
H737 C721 0.931 . S
H738 C725 0.928 . S
H739 C724 0.929 . S
H740 C722 0.932 . S
C741 C742 1.386 . S
C741 C743 1.397 . S
C741 H765 0.931 . S
C742 C741 1.386 . S
C742 C746 1.397 . S
C743 C741 1.397 . S
C743 C744 1.384 . S
C743 H766 0.930 . S
C744 C743 1.384 . S
C744 C745 1.377 . S
C744 C747 1.481 . S
C745 C744 1.377 . S
C745 C746 1.389 . S
C745 H767 0.929 . S
C746 C742 1.397 . S
C746 C745 1.389 . S
C746 H768 0.931 . S
C747 C744 1.481 . S
C747 C748 1.387 . S
C747 C752 1.390 . S
C748 C747 1.387 . S
C748 C749 1.401 . S
C748 H769 0.930 . S
C749 C748 1.401 . S
C749 C750 1.376 . S
C749 C758 1.511 . S
C750 C749 1.376 . S
C750 C751 1.392 . S
C750 H771 0.931 . S
C751 C750 1.392 . S
C751 C752 1.361 . S
C751 C753 1.500 . S
C752 C747 1.390 . S
C752 C751 1.361 . S
C752 H770 0.931 . S
C753 C751 1.500 . S
C753 C754 1.371 . S
C753 C755 1.365 . S
C754 C753 1.371 . S
C754 C764 1.386 . S
C754 H772 0.931 . S
C755 C753 1.365 . S
C755 C756 1.409 . S
C755 H773 0.929 . S
C756 C755 1.409 . S
C756 C757 1.380 . S
C756 H774 0.930 . S
C757 C756 1.380 . S
C757 C764 1.357 . S
C758 C749 1.511 . S
C758 C759 1.341 . S
C758 C760 1.371 . S
C759 C758 1.341 . S
C759 C763 1.394 . S
C759 H775 0.930 . S
C760 C758 1.371 . S
C760 C761 1.392 . S
C760 H776 0.931 . S
C761 C760 1.392 . S
C761 C762 1.331 . S
C761 H779 0.932 . S
C762 C761 1.331 . S
C762 C763 1.336 . S
C763 C759 1.394 . S
C763 C762 1.336 . S
C763 H778 0.929 . S
C764 C754 1.386 . S
C764 C757 1.357 . S
C764 H777 0.928 . S
H765 C741 0.931 . S
H766 C743 0.930 . S
H767 C745 0.929 . S
H768 C746 0.931 . S
H769 C748 0.930 . S
H770 C752 0.931 . S
H771 C750 0.931 . S
H772 C754 0.931 . S
H773 C755 0.929 . S
H774 C756 0.930 . S
H775 C759 0.930 . S
H776 C760 0.931 . S
H777 C764 0.928 . S
H778 C763 0.929 . S
H779 C761 0.932 . S
C780 C781 1.386 . S
C780 C782 1.397 . S
C780 H804 0.931 . S
C781 C780 1.386 . S
C781 C785 1.397 . S
C782 C780 1.397 . S
C782 C783 1.384 . S
C782 H805 0.930 . S
C783 C782 1.384 . S
C783 C784 1.377 . S
C783 C786 1.481 . S
C784 C783 1.377 . S
C784 C785 1.389 . S
C784 H806 0.929 . S
C785 C781 1.397 . S
C785 C784 1.389 . S
C785 H807 0.931 . S
C786 C783 1.481 . S
C786 C787 1.387 . S
C786 C791 1.390 . S
C787 C786 1.387 . S
C787 C788 1.401 . S
C787 H808 0.930 . S
C788 C787 1.401 . S
C788 C789 1.376 . S
C788 C797 1.511 . S
C789 C788 1.376 . S
C789 C790 1.392 . S
C789 H810 0.931 . S
C790 C789 1.392 . S
C790 C791 1.361 . S
C790 C792 1.500 . S
C791 C786 1.390 . S
C791 C790 1.361 . S
C791 H809 0.931 . S
C792 C790 1.500 . S
C792 C793 1.371 . S
C792 C794 1.365 . S
C793 C792 1.371 . S
C793 C803 1.386 . S
C793 H811 0.931 . S
C794 C792 1.365 . S
C794 C795 1.409 . S
C794 H812 0.929 . S
C795 C794 1.409 . S
C795 C796 1.380 . S
C795 H813 0.930 . S
C796 C795 1.380 . S
C796 C803 1.357 . S
C797 C788 1.511 . S
C797 C798 1.341 . S
C797 C799 1.371 . S
C798 C797 1.341 . S
C798 C802 1.394 . S
C798 H814 0.930 . S
C799 C797 1.371 . S
C799 C800 1.392 . S
C799 H815 0.931 . S
C800 C799 1.392 . S
C800 C801 1.331 . S
C800 H818 0.932 . S
C801 C800 1.331 . S
C801 C802 1.336 . S
C802 C798 1.394 . S
C802 C801 1.336 . S
C802 H817 0.929 . S
C803 C793 1.386 . S
C803 C796 1.357 . S
C803 H816 0.928 . S
H804 C780 0.931 . S
H805 C782 0.930 . S
H806 C784 0.929 . S
H807 C785 0.931 . S
H808 C787 0.930 . S
H809 C791 0.931 . S
H810 C789 0.931 . S
H811 C793 0.931 . S
H812 C794 0.929 . S
H813 C795 0.930 . S
H814 C798 0.930 . S
H815 C799 0.931 . S
H816 C803 0.928 . S
H817 C802 0.929 . S
H818 C800 0.932 . S
C819 C820 1.386 . S
C819 C821 1.397 . S
C819 H843 0.931 . S
C820 C819 1.386 . S
C820 C824 1.397 . S
C821 C819 1.397 . S
C821 C822 1.384 . S
C821 H844 0.930 . S
C822 C821 1.384 . S
C822 C823 1.377 . S
C822 C825 1.481 . S
C823 C822 1.377 . S
C823 C824 1.389 . S
C823 H845 0.929 . S
C824 C820 1.397 . S
C824 C823 1.389 . S
C824 H846 0.931 . S
C825 C822 1.481 . S
C825 C826 1.387 . S
C825 C830 1.390 . S
C826 C825 1.387 . S
C826 C827 1.401 . S
C826 H847 0.930 . S
C827 C826 1.401 . S
C827 C828 1.376 . S
C827 C836 1.511 . S
C828 C827 1.376 . S
C828 C829 1.392 . S
C828 H849 0.931 . S
C829 C828 1.392 . S
C829 C830 1.361 . S
C829 C831 1.500 . S
C830 C825 1.390 . S
C830 C829 1.361 . S
C830 H848 0.931 . S
C831 C829 1.500 . S
C831 C832 1.371 . S
C831 C833 1.365 . S
C832 C831 1.371 . S
C832 C842 1.386 . S
C832 H850 0.931 . S
C833 C831 1.365 . S
C833 C834 1.409 . S
C833 H851 0.929 . S
C834 C833 1.409 . S
C834 C835 1.380 . S
C834 H852 0.930 . S
C835 C834 1.380 . S
C835 C842 1.357 . S
C836 C827 1.511 . S
C836 C837 1.341 . S
C836 C838 1.371 . S
C837 C836 1.341 . S
C837 C841 1.394 . S
C837 H853 0.930 . S
C838 C836 1.371 . S
C838 C839 1.392 . S
C838 H854 0.931 . S
C839 C838 1.392 . S
C839 C840 1.331 . S
C839 H857 0.932 . S
C840 C839 1.331 . S
C840 C841 1.336 . S
C841 C837 1.394 . S
C841 C840 1.336 . S
C841 H856 0.929 . S
C842 C832 1.386 . S
C842 C835 1.357 . S
C842 H855 0.928 . S
H843 C819 0.931 . S
H844 C821 0.930 . S
H845 C823 0.929 . S
H846 C824 0.931 . S
H847 C826 0.930 . S
H848 C830 0.931 . S
H849 C828 0.931 . S
H850 C832 0.931 . S
H851 C833 0.929 . S
H852 C834 0.930 . S
H853 C837 0.930 . S
H854 C838 0.931 . S
H855 C842 0.928 . S
H856 C841 0.929 . S
H857 C839 0.932 . S
C858 C859 1.386 . S
C858 C860 1.397 . S
C858 H882 0.931 . S
C859 C858 1.386 . S
C859 C863 1.397 . S
C860 C858 1.397 . S
C860 C861 1.384 . S
C860 H883 0.930 . S
C861 C860 1.384 . S
C861 C862 1.377 . S
C861 C864 1.481 . S
C862 C861 1.377 . S
C862 C863 1.389 . S
C862 H884 0.929 . S
C863 C859 1.397 . S
C863 C862 1.389 . S
C863 H885 0.931 . S
C864 C861 1.481 . S
C864 C865 1.387 . S
C864 C869 1.390 . S
C865 C864 1.387 . S
C865 C866 1.401 . S
C865 H886 0.930 . S
C866 C865 1.401 . S
C866 C867 1.376 . S
C866 C875 1.511 . S
C867 C866 1.376 . S
C867 C868 1.392 . S
C867 H888 0.931 . S
C868 C867 1.392 . S
C868 C869 1.361 . S
C868 C870 1.500 . S
C869 C864 1.390 . S
C869 C868 1.361 . S
C869 H887 0.931 . S
C870 C868 1.500 . S
C870 C871 1.371 . S
C870 C872 1.365 . S
C871 C870 1.371 . S
C871 C881 1.386 . S
C871 H889 0.931 . S
C872 C870 1.365 . S
C872 C873 1.409 . S
C872 H890 0.929 . S
C873 C872 1.409 . S
C873 C874 1.380 . S
C873 H891 0.930 . S
C874 C873 1.380 . S
C874 C881 1.357 . S
C875 C866 1.511 . S
C875 C876 1.341 . S
C875 C877 1.371 . S
C876 C875 1.341 . S
C876 C880 1.394 . S
C876 H892 0.930 . S
C877 C875 1.371 . S
C877 C878 1.392 . S
C877 H893 0.931 . S
C878 C877 1.392 . S
C878 C879 1.331 . S
C878 H896 0.932 . S
C879 C878 1.331 . S
C879 C880 1.336 . S
C880 C876 1.394 . S
C880 C879 1.336 . S
C880 H895 0.929 . S
C881 C871 1.386 . S
C881 C874 1.357 . S
C881 H894 0.928 . S
H882 C858 0.931 . S
H883 C860 0.930 . S
H884 C862 0.929 . S
H885 C863 0.931 . S
H886 C865 0.930 . S
H887 C869 0.931 . S
H888 C867 0.931 . S
H889 C871 0.931 . S
H890 C872 0.929 . S
H891 C873 0.930 . S
H892 C876 0.930 . S
H893 C877 0.931 . S
H894 C881 0.928 . S
H895 C880 0.929 . S
H896 C878 0.932 . S
C897 C898 1.386 . S
C897 C899 1.397 . S
C897 H921 0.931 . S
C898 C897 1.386 . S
C898 C902 1.397 . S
C899 C897 1.397 . S
C899 C900 1.384 . S
C899 H922 0.930 . S
C900 C899 1.384 . S
C900 C901 1.377 . S
C900 C903 1.481 . S
C901 C900 1.377 . S
C901 C902 1.389 . S
C901 H923 0.929 . S
C902 C898 1.397 . S
C902 C901 1.389 . S
C902 H924 0.931 . S
C903 C900 1.481 . S
C903 C904 1.387 . S
C903 C908 1.390 . S
C904 C903 1.387 . S
C904 C905 1.401 . S
C904 H925 0.930 . S
C905 C904 1.401 . S
C905 C906 1.376 . S
C905 C914 1.511 . S
C906 C905 1.376 . S
C906 C907 1.392 . S
C906 H927 0.931 . S
C907 C906 1.392 . S
C907 C908 1.361 . S
C907 C909 1.500 . S
C908 C903 1.390 . S
C908 C907 1.361 . S
C908 H926 0.931 . S
C909 C907 1.500 . S
C909 C910 1.371 . S
C909 C911 1.365 . S
C910 C909 1.371 . S
C910 C920 1.386 . S
C910 H928 0.931 . S
C911 C909 1.365 . S
C911 C912 1.409 . S
C911 H929 0.929 . S
C912 C911 1.409 . S
C912 C913 1.380 . S
C912 H930 0.930 . S
C913 C912 1.380 . S
C913 C920 1.357 . S
C914 C905 1.511 . S
C914 C915 1.341 . S
C914 C916 1.371 . S
C915 C914 1.341 . S
C915 C919 1.394 . S
C915 H931 0.930 . S
C916 C914 1.371 . S
C916 C917 1.392 . S
C916 H932 0.931 . S
C917 C916 1.392 . S
C917 C918 1.331 . S
C917 H935 0.932 . S
C918 C917 1.331 . S
C918 C919 1.336 . S
C919 C915 1.394 . S
C919 C918 1.336 . S
C919 H934 0.929 . S
C920 C910 1.386 . S
C920 C913 1.357 . S
C920 H933 0.928 . S
H921 C897 0.931 . S
H922 C899 0.930 . S
H923 C901 0.929 . S
H924 C902 0.931 . S
H925 C904 0.930 . S
H926 C908 0.931 . S
H927 C906 0.931 . S
H928 C910 0.931 . S
H929 C911 0.929 . S
H930 C912 0.930 . S
H931 C915 0.930 . S
H932 C916 0.931 . S
H933 C920 0.928 . S
H934 C919 0.929 . S
H935 C917 0.932 . S
C936 C937 1.386 . S
C936 C938 1.397 . S
C936 H960 0.931 . S
C937 C936 1.386 . S
C937 C941 1.397 . S
C938 C936 1.397 . S
C938 C939 1.384 . S
C938 H961 0.930 . S
C939 C938 1.384 . S
C939 C940 1.377 . S
C939 C942 1.481 . S
C940 C939 1.377 . S
C940 C941 1.389 . S
C940 H962 0.929 . S
C941 C937 1.397 . S
C941 C940 1.389 . S
C941 H963 0.931 . S
C942 C939 1.481 . S
C942 C943 1.387 . S
C942 C947 1.390 . S
C943 C942 1.387 . S
C943 C944 1.401 . S
C943 H964 0.930 . S
C944 C943 1.401 . S
C944 C945 1.376 . S
C944 C953 1.511 . S
C945 C944 1.376 . S
C945 C946 1.392 . S
C945 H966 0.931 . S
C946 C945 1.392 . S
C946 C947 1.361 . S
C946 C948 1.500 . S
C947 C942 1.390 . S
C947 C946 1.361 . S
C947 H965 0.931 . S
C948 C946 1.500 . S
C948 C949 1.371 . S
C948 C950 1.365 . S
C949 C948 1.371 . S
C949 C959 1.386 . S
C949 H967 0.931 . S
C950 C948 1.365 . S
C950 C951 1.409 . S
C950 H968 0.929 . S
C951 C950 1.409 . S
C951 C952 1.380 . S
C951 H969 0.930 . S
C952 C951 1.380 . S
C952 C959 1.357 . S
C953 C944 1.511 . S
C953 C954 1.341 . S
C953 C955 1.371 . S
C954 C953 1.341 . S
C954 C958 1.394 . S
C954 H970 0.930 . S
C955 C953 1.371 . S
C955 C956 1.392 . S
C955 H971 0.931 . S
C956 C955 1.392 . S
C956 C957 1.331 . S
C956 H974 0.932 . S
C957 C956 1.331 . S
C957 C958 1.336 . S
C958 C954 1.394 . S
C958 C957 1.336 . S
C958 H973 0.929 . S
C959 C949 1.386 . S
C959 C952 1.357 . S
C959 H972 0.928 . S
H960 C936 0.931 . S
H961 C938 0.930 . S
H962 C940 0.929 . S
H963 C941 0.931 . S
H964 C943 0.930 . S
H965 C947 0.931 . S
H966 C945 0.931 . S
H967 C949 0.931 . S
H968 C950 0.929 . S
H969 C951 0.930 . S
H970 C954 0.930 . S
H971 C955 0.931 . S
H972 C959 0.928 . S
H973 C958 0.929 . S
H974 C956 0.932 . S
C975 C976 1.386 . S
C975 C977 1.397 . S
C975 H999 0.931 . S
C976 C975 1.386 . S
C976 C980 1.397 . S
C977 C975 1.397 . S
C977 C978 1.384 . S
C977 H1000 0.930 . S
C978 C977 1.384 . S
C978 C979 1.377 . S
C978 C981 1.481 . S
C979 C978 1.377 . S
C979 C980 1.389 . S
C979 H1001 0.929 . S
C980 C976 1.397 . S
C980 C979 1.389 . S
C980 H1002 0.931 . S
C981 C978 1.481 . S
C981 C982 1.387 . S
C981 C986 1.390 . S
C982 C981 1.387 . S
C982 C983 1.401 . S
C982 H1003 0.930 . S
C983 C982 1.401 . S
C983 C984 1.376 . S
C983 C992 1.511 . S
C984 C983 1.376 . S
C984 C985 1.392 . S
C984 H1005 0.931 . S
C985 C984 1.392 . S
C985 C986 1.361 . S
C985 C987 1.500 . S
C986 C981 1.390 . S
C986 C985 1.361 . S
C986 H1004 0.931 . S
C987 C985 1.500 . S
C987 C988 1.371 . S
C987 C989 1.365 . S
C988 C987 1.371 . S
C988 C998 1.386 . S
C988 H1006 0.931 . S
C989 C987 1.365 . S
C989 C990 1.409 . S
C989 H1007 0.929 . S
C990 C989 1.409 . S
C990 C991 1.380 . S
C990 H1008 0.930 . S
C991 C990 1.380 . S
C991 C998 1.357 . S
C992 C983 1.511 . S
C992 C993 1.341 . S
C992 C994 1.371 . S
C993 C992 1.341 . S
C993 C997 1.394 . S
C993 H1009 0.930 . S
C994 C992 1.371 . S
C994 C995 1.392 . S
C994 H1010 0.931 . S
C995 C994 1.392 . S
C995 C996 1.331 . S
C995 H1013 0.932 . S
C996 C995 1.331 . S
C996 C997 1.336 . S
C997 C993 1.394 . S
C997 C996 1.336 . S
C997 H1012 0.929 . S
C998 C988 1.386 . S
C998 C991 1.357 . S
C998 H1011 0.928 . S
H999 C975 0.931 . S
H1000 C977 0.930 . S
H1001 C979 0.929 . S
H1002 C980 0.931 . S
H1003 C982 0.930 . S
H1004 C986 0.931 . S
H1005 C984 0.931 . S
H1006 C988 0.931 . S
H1007 C989 0.929 . S
H1008 C990 0.930 . S
H1009 C993 0.930 . S
H1010 C994 0.931 . S
H1011 C998 0.928 . S
H1012 C997 0.929 . S
H1013 C995 0.932 . S
C1014 C1015 1.386 . S
C1014 C1016 1.397 . S
C1014 H1038 0.931 . S
C1015 C1014 1.386 . S
C1015 C1019 1.397 . S
C1016 C1014 1.397 . S
C1016 C1017 1.384 . S
C1016 H1039 0.930 . S
C1017 C1016 1.384 . S
C1017 C1018 1.377 . S
C1017 C1020 1.481 . S
C1018 C1017 1.377 . S
C1018 C1019 1.389 . S
C1018 H1040 0.929 . S
C1019 C1015 1.397 . S
C1019 C1018 1.389 . S
C1019 H1041 0.931 . S
C1020 C1017 1.481 . S
C1020 C1021 1.387 . S
C1020 C1025 1.390 . S
C1021 C1020 1.387 . S
C1021 C1022 1.401 . S
C1021 H1042 0.930 . S
C1022 C1021 1.401 . S
C1022 C1023 1.376 . S
C1022 C1031 1.511 . S
C1023 C1022 1.376 . S
C1023 C1024 1.392 . S
C1023 H1044 0.931 . S
C1024 C1023 1.392 . S
C1024 C1025 1.361 . S
C1024 C1026 1.500 . S
C1025 C1020 1.390 . S
C1025 C1024 1.361 . S
C1025 H1043 0.931 . S
C1026 C1024 1.500 . S
C1026 C1027 1.371 . S
C1026 C1028 1.365 . S
C1027 C1026 1.371 . S
C1027 C1037 1.386 . S
C1027 H1045 0.931 . S
C1028 C1026 1.365 . S
C1028 C1029 1.409 . S
C1028 H1046 0.929 . S
C1029 C1028 1.409 . S
C1029 C1030 1.380 . S
C1029 H1047 0.930 . S
C1030 C1029 1.380 . S
C1030 C1037 1.357 . S
C1031 C1022 1.511 . S
C1031 C1032 1.341 . S
C1031 C1033 1.371 . S
C1032 C1031 1.341 . S
C1032 C1036 1.394 . S
C1032 H1048 0.930 . S
C1033 C1031 1.371 . S
C1033 C1034 1.392 . S
C1033 H1049 0.931 . S
C1034 C1033 1.392 . S
C1034 C1035 1.331 . S
C1034 H1052 0.932 . S
C1035 C1034 1.331 . S
C1035 C1036 1.336 . S
C1036 C1032 1.394 . S
C1036 C1035 1.336 . S
C1036 H1051 0.929 . S
C1037 C1027 1.386 . S
C1037 C1030 1.357 . S
C1037 H1050 0.928 . S
H1038 C1014 0.931 . S
H1039 C1016 0.930 . S
H1040 C1018 0.929 . S
H1041 C1019 0.931 . S
H1042 C1021 0.930 . S
H1043 C1025 0.931 . S
H1044 C1023 0.931 . S
H1045 C1027 0.931 . S
H1046 C1028 0.929 . S
H1047 C1029 0.930 . S
H1048 C1032 0.930 . S
H1049 C1033 0.931 . S
H1050 C1037 0.928 . S
H1051 C1036 0.929 . S
H1052 C1034 0.932 . S
C1053 C1054 1.386 . S
C1053 C1055 1.397 . S
C1053 H1077 0.931 . S
C1054 C1053 1.386 . S
C1054 C1058 1.397 . S
C1055 C1053 1.397 . S
C1055 C1056 1.384 . S
C1055 H1078 0.930 . S
C1056 C1055 1.384 . S
C1056 C1057 1.377 . S
C1056 C1059 1.481 . S
C1057 C1056 1.377 . S
C1057 C1058 1.389 . S
C1057 H1079 0.929 . S
C1058 C1054 1.397 . S
C1058 C1057 1.389 . S
C1058 H1080 0.931 . S
C1059 C1056 1.481 . S
C1059 C1060 1.387 . S
C1059 C1064 1.390 . S
C1060 C1059 1.387 . S
C1060 C1061 1.401 . S
C1060 H1081 0.930 . S
C1061 C1060 1.401 . S
C1061 C1062 1.376 . S
C1061 C1070 1.511 . S
C1062 C1061 1.376 . S
C1062 C1063 1.392 . S
C1062 H1083 0.931 . S
C1063 C1062 1.392 . S
C1063 C1064 1.361 . S
C1063 C1065 1.500 . S
C1064 C1059 1.390 . S
C1064 C1063 1.361 . S
C1064 H1082 0.931 . S
C1065 C1063 1.500 . S
C1065 C1066 1.371 . S
C1065 C1067 1.365 . S
C1066 C1065 1.371 . S
C1066 C1076 1.386 . S
C1066 H1084 0.931 . S
C1067 C1065 1.365 . S
C1067 C1068 1.409 . S
C1067 H1085 0.929 . S
C1068 C1067 1.409 . S
C1068 C1069 1.380 . S
C1068 H1086 0.930 . S
C1069 C1068 1.380 . S
C1069 C1076 1.357 . S
C1070 C1061 1.511 . S
C1070 C1071 1.341 . S
C1070 C1072 1.371 . S
C1071 C1070 1.341 . S
C1071 C1075 1.394 . S
C1071 H1087 0.930 . S
C1072 C1070 1.371 . S
C1072 C1073 1.392 . S
C1072 H1088 0.931 . S
C1073 C1072 1.392 . S
C1073 C1074 1.331 . S
C1073 H1091 0.932 . S
C1074 C1073 1.331 . S
C1074 C1075 1.336 . S
C1075 C1071 1.394 . S
C1075 C1074 1.336 . S
C1075 H1090 0.929 . S
C1076 C1066 1.386 . S
C1076 C1069 1.357 . S
C1076 H1089 0.928 . S
H1077 C1053 0.931 . S
H1078 C1055 0.930 . S
H1079 C1057 0.929 . S
H1080 C1058 0.931 . S
H1081 C1060 0.930 . S
H1082 C1064 0.931 . S
H1083 C1062 0.931 . S
H1084 C1066 0.931 . S
H1085 C1067 0.929 . S
H1086 C1068 0.930 . S
H1087 C1071 0.930 . S
H1088 C1072 0.931 . S
H1089 C1076 0.928 . S
H1090 C1075 0.929 . S
H1091 C1073 0.932 . S
C1092 C1093 1.386 . S
C1092 C1094 1.397 . S
C1092 H1116 0.931 . S
C1093 C1092 1.386 . S
C1093 C1097 1.397 . S
C1094 C1092 1.397 . S
C1094 C1095 1.384 . S
C1094 H1117 0.930 . S
C1095 C1094 1.384 . S
C1095 C1096 1.377 . S
C1095 C1098 1.481 . S
C1096 C1095 1.377 . S
C1096 C1097 1.389 . S
C1096 H1118 0.929 . S
C1097 C1093 1.397 . S
C1097 C1096 1.389 . S
C1097 H1119 0.931 . S
C1098 C1095 1.481 . S
C1098 C1099 1.387 . S
C1098 C1103 1.390 . S
C1099 C1098 1.387 . S
C1099 C1100 1.401 . S
C1099 H1120 0.930 . S
C1100 C1099 1.401 . S
C1100 C1101 1.376 . S
C1100 C1109 1.511 . S
C1101 C1100 1.376 . S
C1101 C1102 1.392 . S
C1101 H1122 0.931 . S
C1102 C1101 1.392 . S
C1102 C1103 1.361 . S
C1102 C1104 1.500 . S
C1103 C1098 1.390 . S
C1103 C1102 1.361 . S
C1103 H1121 0.931 . S
C1104 C1102 1.500 . S
C1104 C1105 1.371 . S
C1104 C1106 1.365 . S
C1105 C1104 1.371 . S
C1105 C1115 1.386 . S
C1105 H1123 0.931 . S
C1106 C1104 1.365 . S
C1106 C1107 1.409 . S
C1106 H1124 0.929 . S
C1107 C1106 1.409 . S
C1107 C1108 1.380 . S
C1107 H1125 0.930 . S
C1108 C1107 1.380 . S
C1108 C1115 1.357 . S
C1109 C1100 1.511 . S
C1109 C1110 1.341 . S
C1109 C1111 1.371 . S
C1110 C1109 1.341 . S
C1110 C1114 1.394 . S
C1110 H1126 0.930 . S
C1111 C1109 1.371 . S
C1111 C1112 1.392 . S
C1111 H1127 0.931 . S
C1112 C1111 1.392 . S
C1112 C1113 1.331 . S
C1112 H1130 0.932 . S
C1113 C1112 1.331 . S
C1113 C1114 1.336 . S
C1114 C1110 1.394 . S
C1114 C1113 1.336 . S
C1114 H1129 0.929 . S
C1115 C1105 1.386 . S
C1115 C1108 1.357 . S
C1115 H1128 0.928 . S
H1116 C1092 0.931 . S
H1117 C1094 0.930 . S
H1118 C1096 0.929 . S
H1119 C1097 0.931 . S
H1120 C1099 0.930 . S
H1121 C1103 0.931 . S
H1122 C1101 0.931 . S
H1123 C1105 0.931 . S
H1124 C1106 0.929 . S
H1125 C1107 0.930 . S
H1126 C1110 0.930 . S
H1127 C1111 0.931 . S
H1128 C1115 0.928 . S
H1129 C1114 0.929 . S
H1130 C1112 0.932 . S
C1131 C1132 1.386 . S
C1131 C1133 1.397 . S
C1131 H1155 0.931 . S
C1132 C1131 1.386 . S
C1132 C1136 1.397 . S
C1133 C1131 1.397 . S
C1133 C1134 1.384 . S
C1133 H1156 0.930 . S
C1134 C1133 1.384 . S
C1134 C1135 1.377 . S
C1134 C1137 1.481 . S
C1135 C1134 1.377 . S
C1135 C1136 1.389 . S
C1135 H1157 0.929 . S
C1136 C1132 1.397 . S
C1136 C1135 1.389 . S
C1136 H1158 0.931 . S
C1137 C1134 1.481 . S
C1137 C1138 1.387 . S
C1137 C1142 1.390 . S
C1138 C1137 1.387 . S
C1138 C1139 1.401 . S
C1138 H1159 0.930 . S
C1139 C1138 1.401 . S
C1139 C1140 1.376 . S
C1139 C1148 1.511 . S
C1140 C1139 1.376 . S
C1140 C1141 1.392 . S
C1140 H1161 0.931 . S
C1141 C1140 1.392 . S
C1141 C1142 1.361 . S
C1141 C1143 1.500 . S
C1142 C1137 1.390 . S
C1142 C1141 1.361 . S
C1142 H1160 0.931 . S
C1143 C1141 1.500 . S
C1143 C1144 1.371 . S
C1143 C1145 1.365 . S
C1144 C1143 1.371 . S
C1144 C1154 1.386 . S
C1144 H1162 0.931 . S
C1145 C1143 1.365 . S
C1145 C1146 1.409 . S
C1145 H1163 0.929 . S
C1146 C1145 1.409 . S
C1146 C1147 1.380 . S
C1146 H1164 0.930 . S
C1147 C1146 1.380 . S
C1147 C1154 1.357 . S
C1148 C1139 1.511 . S
C1148 C1149 1.341 . S
C1148 C1150 1.371 . S
C1149 C1148 1.341 . S
C1149 C1153 1.394 . S
C1149 H1165 0.930 . S
C1150 C1148 1.371 . S
C1150 C1151 1.392 . S
C1150 H1166 0.931 . S
C1151 C1150 1.392 . S
C1151 C1152 1.331 . S
C1151 H1169 0.932 . S
C1152 C1151 1.331 . S
C1152 C1153 1.336 . S
C1153 C1149 1.394 . S
C1153 C1152 1.336 . S
C1153 H1168 0.929 . S
C1154 C1144 1.386 . S
C1154 C1147 1.357 . S
C1154 H1167 0.928 . S
H1155 C1131 0.931 . S
H1156 C1133 0.930 . S
H1157 C1135 0.929 . S
H1158 C1136 0.931 . S
H1159 C1138 0.930 . S
H1160 C1142 0.931 . S
H1161 C1140 0.931 . S
H1162 C1144 0.931 . S
H1163 C1145 0.929 . S
H1164 C1146 0.930 . S
H1165 C1149 0.930 . S
H1166 C1150 0.931 . S
H1167 C1154 0.928 . S
H1168 C1153 0.929 . S
H1169 C1151 0.932 . S
C1170 C1171 1.386 . S
C1170 C1172 1.397 . S
C1170 H1194 0.931 . S
C1171 C1170 1.386 . S
C1171 C1175 1.397 . S
C1172 C1170 1.397 . S
C1172 C1173 1.384 . S
C1172 H1195 0.930 . S
C1173 C1172 1.384 . S
C1173 C1174 1.377 . S
C1173 C1176 1.481 . S
C1174 C1173 1.377 . S
C1174 C1175 1.389 . S
C1174 H1196 0.929 . S
C1175 C1171 1.397 . S
C1175 C1174 1.389 . S
C1175 H1197 0.931 . S
C1176 C1173 1.481 . S
C1176 C1177 1.387 . S
C1176 C1181 1.390 . S
C1177 C1176 1.387 . S
C1177 C1178 1.401 . S
C1177 H1198 0.930 . S
C1178 C1177 1.401 . S
C1178 C1179 1.376 . S
C1178 C1187 1.511 . S
C1179 C1178 1.376 . S
C1179 C1180 1.392 . S
C1179 H1200 0.931 . S
C1180 C1179 1.392 . S
C1180 C1181 1.361 . S
C1180 C1182 1.500 . S
C1181 C1176 1.390 . S
C1181 C1180 1.361 . S
C1181 H1199 0.931 . S
C1182 C1180 1.500 . S
C1182 C1183 1.371 . S
C1182 C1184 1.365 . S
C1183 C1182 1.371 . S
C1183 C1193 1.386 . S
C1183 H1201 0.931 . S
C1184 C1182 1.365 . S
C1184 C1185 1.409 . S
C1184 H1202 0.929 . S
C1185 C1184 1.409 . S
C1185 C1186 1.380 . S
C1185 H1203 0.930 . S
C1186 C1185 1.380 . S
C1186 C1193 1.357 . S
C1187 C1178 1.511 . S
C1187 C1188 1.341 . S
C1187 C1189 1.371 . S
C1188 C1187 1.341 . S
C1188 C1192 1.394 . S
C1188 H1204 0.930 . S
C1189 C1187 1.371 . S
C1189 C1190 1.392 . S
C1189 H1205 0.931 . S
C1190 C1189 1.392 . S
C1190 C1191 1.331 . S
C1190 H1208 0.932 . S
C1191 C1190 1.331 . S
C1191 C1192 1.336 . S
C1192 C1188 1.394 . S
C1192 C1191 1.336 . S
C1192 H1207 0.929 . S
C1193 C1183 1.386 . S
C1193 C1186 1.357 . S
C1193 H1206 0.928 . S
H1194 C1170 0.931 . S
H1195 C1172 0.930 . S
H1196 C1174 0.929 . S
H1197 C1175 0.931 . S
H1198 C1177 0.930 . S
H1199 C1181 0.931 . S
H1200 C1179 0.931 . S
H1201 C1183 0.931 . S
H1202 C1184 0.929 . S
H1203 C1185 0.930 . S
H1204 C1188 0.930 . S
H1205 C1189 0.931 . S
H1206 C1193 0.928 . S
H1207 C1192 0.929 . S
H1208 C1190 0.932 . S
C1209 C1210 1.386 . S
C1209 C1211 1.397 . S
C1209 H1233 0.931 . S
C1210 C1209 1.386 . S
C1210 C1214 1.397 . S
C1211 C1209 1.397 . S
C1211 C1212 1.384 . S
C1211 H1234 0.930 . S
C1212 C1211 1.384 . S
C1212 C1213 1.377 . S
C1212 C1215 1.481 . S
C1213 C1212 1.377 . S
C1213 C1214 1.389 . S
C1213 H1235 0.929 . S
C1214 C1210 1.397 . S
C1214 C1213 1.389 . S
C1214 H1236 0.931 . S
C1215 C1212 1.481 . S
C1215 C1216 1.387 . S
C1215 C1220 1.390 . S
C1216 C1215 1.387 . S
C1216 C1217 1.401 . S
C1216 H1237 0.930 . S
C1217 C1216 1.401 . S
C1217 C1218 1.376 . S
C1217 C1226 1.511 . S
C1218 C1217 1.376 . S
C1218 C1219 1.392 . S
C1218 H1239 0.931 . S
C1219 C1218 1.392 . S
C1219 C1220 1.361 . S
C1219 C1221 1.500 . S
C1220 C1215 1.390 . S
C1220 C1219 1.361 . S
C1220 H1238 0.931 . S
C1221 C1219 1.500 . S
C1221 C1222 1.371 . S
C1221 C1223 1.365 . S
C1222 C1221 1.371 . S
C1222 C1232 1.386 . S
C1222 H1240 0.931 . S
C1223 C1221 1.365 . S
C1223 C1224 1.409 . S
C1223 H1241 0.929 . S
C1224 C1223 1.409 . S
C1224 C1225 1.380 . S
C1224 H1242 0.930 . S
C1225 C1224 1.380 . S
C1225 C1232 1.357 . S
C1226 C1217 1.511 . S
C1226 C1227 1.341 . S
C1226 C1228 1.371 . S
C1227 C1226 1.341 . S
C1227 C1231 1.394 . S
C1227 H1243 0.930 . S
C1228 C1226 1.371 . S
C1228 C1229 1.392 . S
C1228 H1244 0.931 . S
C1229 C1228 1.392 . S
C1229 C1230 1.331 . S
C1229 H1247 0.932 . S
C1230 C1229 1.331 . S
C1230 C1231 1.336 . S
C1231 C1227 1.394 . S
C1231 C1230 1.336 . S
C1231 H1246 0.929 . S
C1232 C1222 1.386 . S
C1232 C1225 1.357 . S
C1232 H1245 0.928 . S
H1233 C1209 0.931 . S
H1234 C1211 0.930 . S
H1235 C1213 0.929 . S
H1236 C1214 0.931 . S
H1237 C1216 0.930 . S
H1238 C1220 0.931 . S
H1239 C1218 0.931 . S
H1240 C1222 0.931 . S
H1241 C1223 0.929 . S
H1242 C1224 0.930 . S
H1243 C1227 0.930 . S
H1244 C1228 0.931 . S
H1245 C1232 0.928 . S
H1246 C1231 0.929 . S
H1247 C1229 0.932 . S
Cu1248 N1249 1.999 . S
Cu1248 O1254 1.974 1_554 S
Cu1248 N1259 1.985 . S
Cu1248 O1268 1.959 . S
N1249 Cu1248 1.999 . S
N1249 C1251 1.263 1_554 S
N1249 C1253 1.389 . S
N1250 C1251 1.358 . S
N1250 C1252 1.400 . S
C1251 N1249 1.263 1_556 S
C1251 N1250 1.358 . S
C1251 H1257 0.930 . S
C1252 N1250 1.400 . S
C1252 C1253 1.351 1_556 S
C1252 H1269 0.930 . S
C1253 N1249 1.389 . S
C1253 C1252 1.351 1_554 S
C1253 H1258 0.930 . S
O1254 Cu1248 1.974 1_556 S
O1254 C1264 1.282 . S
C1255 O1256 1.261 . S
C1255 O1268 1.251 . S
O1256 C1255 1.261 . S
H1257 C1251 0.930 . S
H1258 C1253 0.930 . S
N1259 Cu1248 1.985 . S
N1259 C1261 1.335 . S
N1259 C1262 1.390 . S
N1260 C1261 1.345 . S
N1260 C1263 1.336 . S
C1261 N1259 1.335 . S
C1261 N1260 1.345 . S
C1261 H1266 0.930 . S
C1262 N1259 1.390 . S
C1262 C1263 1.346 . S
C1262 H1267 0.930 . S
C1263 N1260 1.336 . S
C1263 C1262 1.346 . S
C1263 H1270 0.929 . S
C1264 O1254 1.282 . S
C1264 O1265 1.216 . S
O1265 C1264 1.216 . S
H1266 C1261 0.930 . S
H1267 C1262 0.930 . S
O1268 Cu1248 1.959 . S
O1268 C1255 1.251 . S
H1269 C1252 0.930 . S
H1270 C1263 0.929 . S
Cu1271 N1272 1.999 . S
Cu1271 O1277 1.974 . S
Cu1271 N1282 1.985 1_554 S
Cu1271 O1291 1.959 1_554 S
N1272 Cu1271 1.999 . S
N1272 C1274 1.263 . S
N1272 C1276 1.389 . S
N1273 C1274 1.358 . S
N1273 C1275 1.400 . S
C1274 N1272 1.263 . S
C1274 N1273 1.358 . S
C1274 H1280 0.930 . S
C1275 N1273 1.400 . S
C1275 C1276 1.351 . S
C1275 H1292 0.930 . S
C1276 N1272 1.389 . S
C1276 C1275 1.351 . S
C1276 H1281 0.930 . S
O1277 Cu1271 1.974 . S
O1277 C1287 1.282 . S
C1278 O1279 1.261 . S
C1278 O1291 1.251 . S
O1279 C1278 1.261 . S
H1280 C1274 0.930 . S
H1281 C1276 0.930 . S
N1282 Cu1271 1.985 1_556 S
N1282 C1284 1.335 . S
N1282 C1285 1.390 . S
N1283 C1284 1.345 . S
N1283 C1286 1.336 . S
C1284 N1282 1.335 . S
C1284 N1283 1.345 . S
C1284 H1289 0.930 . S
C1285 N1282 1.390 . S
C1285 C1286 1.346 . S
C1285 H1290 0.930 1_556 S
C1286 N1283 1.336 . S
C1286 C1285 1.346 . S
C1286 H1293 0.929 . S
C1287 O1277 1.282 . S
C1287 O1288 1.216 . S
O1288 C1287 1.216 . S
H1289 C1284 0.930 . S
H1290 C1285 0.930 1_554 S
O1291 Cu1271 1.959 1_556 S
O1291 C1278 1.251 . S
H1292 C1275 0.930 . S
H1293 C1286 0.929 . S
Cu1294 N1295 1.959 1_554 S
Cu1294 O1300 1.924 1_554 S
Cu1294 N1305 2.024 . S
Cu1294 O1314 2.008 . S
N1295 Cu1294 1.959 1_556 S
N1295 C1297 1.263 . S
N1295 C1299 1.389 . S
N1296 C1297 1.358 . S
N1296 C1298 1.400 . S
C1297 N1295 1.263 . S
C1297 N1296 1.358 . S
C1297 H1303 0.930 . S
C1298 N1296 1.400 . S
C1298 C1299 1.351 . S
C1298 H1315 0.930 . S
C1299 N1295 1.389 . S
C1299 C1298 1.351 . S
C1299 H1304 0.977 . S
O1300 Cu1294 1.924 1_556 S
O1300 C1310 1.282 . S
C1301 O1302 1.261 . S
C1301 O1314 1.251 . S
O1302 C1301 1.261 . S
H1303 C1297 0.930 . S
H1304 C1299 0.977 . S
N1305 Cu1294 2.024 . S
N1305 C1307 1.335 . S
N1305 C1308 1.390 . S
N1306 C1307 1.345 . S
N1306 C1309 1.336 . S
C1307 N1305 1.335 . S
C1307 N1306 1.345 . S
C1307 H1312 0.930 . S
C1308 N1305 1.390 . S
C1308 C1309 1.346 . S
C1308 H1313 0.932 . S
C1309 N1306 1.336 . S
C1309 C1308 1.346 . S
C1309 H1316 0.929 . S
C1310 O1300 1.282 . S
C1310 O1311 1.216 . S
O1311 C1310 1.216 . S
H1312 C1307 0.930 . S
H1313 C1308 0.932 . S
O1314 Cu1294 2.008 . S
O1314 C1301 1.251 . S
H1315 C1298 0.930 . S
H1316 C1309 0.929 . S
Cu1317 N1318 2.033 . S
Cu1317 O1323 2.014 . S
Cu1317 N1328 1.953 1_554 S
Cu1317 O1337 1.920 1_554 S
N1318 Cu1317 2.033 . S
N1318 C1320 1.263 . S
N1318 C1322 1.389 . S
N1319 C1320 1.358 . S
N1319 C1321 1.400 . S
C1320 N1318 1.263 . S
C1320 N1319 1.358 . S
C1320 H1326 0.930 . S
C1321 N1319 1.400 . S
C1321 C1322 1.351 . S
C1321 H1338 0.930 . S
C1322 N1318 1.389 . S
C1322 C1321 1.351 . S
C1322 H1327 0.930 . S
O1323 Cu1317 2.014 . S
O1323 C1333 1.282 . S
C1324 O1325 1.261 . S
C1324 O1337 1.251 . S
O1325 C1324 1.261 . S
H1326 C1320 0.930 . S
H1327 C1322 0.930 . S
N1328 Cu1317 1.953 1_556 S
N1328 C1330 1.335 . S
N1328 C1331 1.390 . S
N1329 C1330 1.345 . S
N1329 C1332 1.336 . S
C1330 N1328 1.335 . S
C1330 N1329 1.345 . S
C1330 H1335 0.930 . S
C1331 N1328 1.390 . S
C1331 C1332 1.346 . S
C1331 H1336 0.930 1_556 S
C1332 N1329 1.336 . S
C1332 C1331 1.346 . S
C1332 H1339 0.929 . S
C1333 O1323 1.282 . S
C1333 O1334 1.216 . S
O1334 C1333 1.216 . S
H1335 C1330 0.930 . S
H1336 C1331 0.930 1_554 S
O1337 Cu1317 1.920 1_556 S
O1337 C1324 1.251 . S
H1338 C1321 0.930 . S
H1339 C1332 0.929 . S
Cu1340 N1341 1.999 . S
Cu1340 O1346 1.974 . S
Cu1340 N1351 1.985 1_455 S
Cu1340 O1360 1.959 1_455 S
N1341 Cu1340 1.999 . S
N1341 C1343 1.263 . S
N1341 C1345 1.389 . S
N1342 C1343 1.358 . S
N1342 C1344 1.400 . S
C1343 N1341 1.263 . S
C1343 N1342 1.358 . S
C1343 H1349 0.930 . S
C1344 N1342 1.400 . S
C1344 C1345 1.351 . S
C1344 H1361 0.930 . S
C1345 N1341 1.389 . S
C1345 C1344 1.351 . S
C1345 H1350 0.930 . S
O1346 Cu1340 1.974 . S
O1346 C1356 1.282 . S
C1347 O1348 1.261 . S
C1347 O1360 1.251 . S
O1348 C1347 1.261 . S
H1349 C1343 0.930 . S
H1350 C1345 0.930 . S
N1351 Cu1340 1.985 1_655 S
N1351 C1353 1.335 . S
N1351 C1354 1.382 1_655 S
N1352 C1353 1.345 . S
N1352 C1355 1.336 . S
C1353 N1351 1.335 . S
C1353 N1352 1.345 . S
C1353 H1358 0.930 . S
C1354 N1351 1.382 1_455 S
C1354 C1355 1.307 1_455 S
C1354 H1359 0.971 . S
C1355 N1352 1.336 . S
C1355 C1354 1.307 1_655 S
C1355 H1362 0.929 . S
C1356 O1346 1.282 . S
C1356 O1357 1.216 . S
O1357 C1356 1.216 . S
H1358 C1353 0.930 . S
H1359 C1354 0.971 . S
O1360 Cu1340 1.959 1_655 S
O1360 C1347 1.251 . S
H1361 C1344 0.930 . S
H1362 C1355 0.929 . S
Cu1363 N1364 1.999 . S
Cu1363 O1369 1.974 . S
Cu1363 N1374 1.985 1_545 S
Cu1363 O1383 1.959 1_545 S
N1364 Cu1363 1.999 . S
N1364 C1366 1.263 . S
N1364 C1368 1.389 . S
N1365 C1366 1.358 . S
N1365 C1367 1.400 . S
C1366 N1364 1.263 . S
C1366 N1365 1.358 . S
C1366 H1372 0.930 . S
C1367 N1365 1.400 . S
C1367 C1368 1.351 . S
C1367 H1384 0.930 . S
C1368 N1364 1.389 . S
C1368 C1367 1.351 . S
C1368 H1373 0.930 . S
O1369 Cu1363 1.974 . S
O1369 C1379 1.282 . S
C1370 O1371 1.261 . S
C1370 O1383 1.251 . S
O1371 C1370 1.261 . S
H1372 C1366 0.930 . S
H1373 C1368 0.930 . S
N1374 Cu1363 1.985 1_565 S
N1374 C1376 1.335 . S
N1374 C1377 1.390 . S
N1375 C1376 1.345 . S
N1375 C1378 1.336 . S
C1376 N1374 1.335 . S
C1376 N1375 1.345 . S
C1376 H1381 0.930 . S
C1377 N1374 1.390 . S
C1377 C1378 1.346 . S
C1377 H1382 0.930 1_565 S
C1378 N1375 1.336 . S
C1378 C1377 1.346 . S
C1378 H1385 0.929 . S
C1379 O1369 1.282 . S
C1379 O1380 1.216 . S
O1380 C1379 1.216 . S
H1381 C1376 0.930 . S
H1382 C1377 0.930 1_545 S
O1383 Cu1363 1.959 1_565 S
O1383 C1370 1.251 . S
H1384 C1367 0.930 . S
H1385 C1378 0.929 . S
Cu1386 N1387 1.999 . S
Cu1386 O1392 1.974 . S
Cu1386 N1397 1.985 1_655 S
Cu1386 O1406 1.959 1_655 S
N1387 Cu1386 1.999 . S
N1387 C1389 1.263 . S
N1387 C1391 1.389 . S
N1388 C1389 1.358 . S
N1388 C1390 1.400 . S
C1389 N1387 1.263 . S
C1389 N1388 1.358 . S
C1389 H1395 0.930 . S
C1390 N1388 1.400 . S
C1390 C1391 1.351 . S
C1390 H1407 0.930 . S
C1391 N1387 1.389 . S
C1391 C1390 1.351 . S
C1391 H1396 0.930 . S
O1392 Cu1386 1.974 . S
O1392 C1402 1.282 . S
C1393 O1394 1.261 . S
C1393 O1406 1.251 . S
O1394 C1393 1.261 . S
H1395 C1389 0.930 . S
H1396 C1391 0.930 . S
N1397 Cu1386 1.985 1_455 S
N1397 C1399 1.335 . S
N1397 C1400 1.390 . S
N1398 C1399 1.345 . S
N1398 C1401 1.336 . S
C1399 N1397 1.335 . S
C1399 N1398 1.345 . S
C1399 H1404 0.930 . S
C1400 N1397 1.390 . S
C1400 C1401 1.346 . S
C1400 H1405 0.930 . S
C1401 N1398 1.336 . S
C1401 C1400 1.346 . S
C1401 H1408 0.929 . S
C1402 O1392 1.282 . S
C1402 O1403 1.216 . S
O1403 C1402 1.216 . S
H1404 C1399 0.930 . S
H1405 C1400 0.930 . S
O1406 Cu1386 1.959 1_455 S
O1406 C1393 1.251 . S
H1407 C1390 0.930 . S
H1408 C1401 0.929 . S
Cu1409 N1410 1.982 1_565 S
Cu1409 O1415 1.952 1_565 S
Cu1409 N1420 2.002 . S
Cu1409 O1429 1.981 . S
N1410 Cu1409 1.982 1_545 S
N1410 C1412 1.263 . S
N1410 C1414 1.389 . S
N1411 C1412 1.358 . S
N1411 C1413 1.400 . S
C1412 N1410 1.263 . S
C1412 N1411 1.358 . S
C1412 H1418 0.930 . S
C1413 N1411 1.400 . S
C1413 C1414 1.351 . S
C1413 H1430 0.930 . S
C1414 N1410 1.389 . S
C1414 C1413 1.351 . S
C1414 H1419 0.930 . S
O1415 Cu1409 1.952 1_545 S
O1415 C1425 1.282 . S
C1416 O1417 1.261 . S
C1416 O1429 1.251 . S
O1417 C1416 1.261 . S
H1418 C1412 0.930 . S
H1419 C1414 0.930 . S
N1420 Cu1409 2.002 . S
N1420 C1422 1.335 . S
N1420 C1423 1.390 . S
N1421 C1422 1.345 . S
N1421 C1424 1.336 . S
C1422 N1420 1.335 . S
C1422 N1421 1.345 . S
C1422 H1427 0.930 . S
C1423 N1420 1.390 . S
C1423 C1424 1.346 . S
C1423 H1428 0.930 . S
C1424 N1421 1.336 . S
C1424 C1423 1.346 . S
C1424 H1431 0.929 . S
C1425 O1415 1.282 . S
C1425 O1426 1.216 . S
O1426 C1425 1.216 . S
H1427 C1422 0.930 . S
H1428 C1423 0.930 . S
O1429 Cu1409 1.981 . S
O1429 C1416 1.251 . S
H1430 C1413 0.930 . S
H1431 C1424 0.929 . S
Cu1432 N1433 1.999 . S
Cu1432 O1438 1.974 . S
Cu1432 N1443 1.985 1_455 S
Cu1432 O1452 1.959 1_455 S
N1433 Cu1432 1.999 . S
N1433 C1435 1.263 . S
N1433 C1437 1.389 . S
N1434 C1435 1.358 . S
N1434 C1436 1.400 . S
C1435 N1433 1.263 . S
C1435 N1434 1.358 . S
C1435 H1441 0.930 . S
C1436 N1434 1.400 . S
C1436 C1437 1.351 . S
C1436 H1453 0.930 . S
C1437 N1433 1.389 . S
C1437 C1436 1.351 . S
C1437 H1442 0.930 . S
O1438 Cu1432 1.974 . S
O1438 C1448 1.282 . S
C1439 O1440 1.261 . S
C1439 O1452 1.251 . S
O1440 C1439 1.261 . S
H1441 C1435 0.930 . S
H1442 C1437 0.930 . S
N1443 Cu1432 1.985 1_655 S
N1443 C1445 1.335 . S
N1443 C1446 1.390 . S
N1444 C1445 1.345 . S
N1444 C1447 1.336 . S
C1445 N1443 1.335 . S
C1445 N1444 1.345 . S
C1445 H1450 0.930 . S
C1446 N1443 1.390 . S
C1446 C1447 1.347 . S
C1446 H1451 0.929 1_655 S
C1447 N1444 1.336 . S
C1447 C1446 1.347 . S
C1447 H1454 0.929 . S
C1448 O1438 1.282 . S
C1448 O1449 1.216 . S
O1449 C1448 1.216 . S
H1450 C1445 0.930 . S
H1451 C1446 0.929 1_455 S
O1452 Cu1432 1.959 1_655 S
O1452 C1439 1.251 . S
H1453 C1436 0.930 . S
H1454 C1447 0.929 . S
Cu1455 N1456 1.999 . S
Cu1455 O1461 1.974 . S
Cu1455 N1466 1.985 1_545 S
Cu1455 O1475 1.959 1_545 S
N1456 Cu1455 1.999 . S
N1456 C1458 1.263 . S
N1456 C1460 1.389 . S
N1457 C1458 1.358 . S
N1457 C1459 1.400 . S
C1458 N1456 1.263 . S
C1458 N1457 1.358 . S
C1458 H1464 0.930 . S
C1459 N1457 1.400 . S
C1459 C1460 1.351 . S
C1459 H1476 0.930 . S
C1460 N1456 1.389 . S
C1460 C1459 1.351 . S
C1460 H1465 0.930 . S
O1461 Cu1455 1.974 . S
O1461 C1471 1.282 . S
C1462 O1463 1.261 . S
C1462 O1475 1.251 . S
O1463 C1462 1.261 . S
H1464 C1458 0.930 . S
H1465 C1460 0.930 . S
N1466 Cu1455 1.985 1_565 S
N1466 C1468 1.335 . S
N1466 C1469 1.390 1_565 S
N1467 C1468 1.345 . S
N1467 C1470 1.336 . S
C1468 N1466 1.335 . S
C1468 N1467 1.345 . S
C1468 H1473 0.930 . S
C1469 N1466 1.390 1_545 S
C1469 C1470 1.346 1_545 S
C1469 H1474 0.930 . S
C1470 N1467 1.336 . S
C1470 C1469 1.346 1_565 S
C1470 H1477 0.929 . S
C1471 O1461 1.282 . S
C1471 O1472 1.216 . S
O1472 C1471 1.216 . S
H1473 C1468 0.930 . S
H1474 C1469 0.930 . S
O1475 Cu1455 1.959 1_565 S
O1475 C1462 1.251 . S
H1476 C1459 0.930 . S
H1477 C1470 0.929 . S
Cu1478 N1479 1.999 . S
Cu1478 O1484 1.974 . S
Cu1478 N1489 1.985 . S
Cu1478 O1498 1.959 . S
N1479 Cu1478 1.999 . S
N1479 C1481 1.263 1_455 S
N1479 C1483 1.389 . S
N1480 C1481 1.358 . S
N1480 C1482 1.400 . S
C1481 N1479 1.263 1_655 S
C1481 N1480 1.358 . S
C1481 H1487 0.930 . S
C1482 N1480 1.400 . S
C1482 C1483 1.351 1_655 S
C1482 H1499 0.930 . S
C1483 N1479 1.389 . S
C1483 C1482 1.351 1_455 S
C1483 H1488 0.930 . S
O1484 Cu1478 1.974 . S
O1484 C1494 1.282 1_455 S
C1485 O1486 1.261 . S
C1485 O1498 1.251 . S
O1486 C1485 1.261 . S
H1487 C1481 0.930 . S
H1488 C1483 0.930 . S
N1489 Cu1478 1.985 . S
N1489 C1491 1.335 . S
N1489 C1492 1.390 . S
N1490 C1491 1.345 . S
N1490 C1493 1.336 . S
C1491 N1489 1.335 . S
C1491 N1490 1.345 . S
C1491 H1496 0.930 . S
C1492 N1489 1.390 . S
C1492 C1493 1.346 . S
C1492 H1497 0.930 . S
C1493 N1490 1.336 . S
C1493 C1492 1.346 . S
C1493 H1500 0.929 . S
C1494 O1484 1.282 1_655 S
C1494 O1495 1.216 1_655 S
O1495 C1494 1.216 1_455 S
H1496 C1491 0.930 . S
H1497 C1492 0.930 . S
O1498 Cu1478 1.959 . S
O1498 C1485 1.251 . S
H1499 C1482 0.930 . S
H1500 C1493 0.929 . S
Cu1501 N1502 1.999 . S
Cu1501 O1507 1.974 . S
Cu1501 N1512 2.023 . S
Cu1501 O1521 1.959 1_545 S
N1502 Cu1501 1.999 . S
N1502 C1504 1.263 . S
N1502 C1506 1.389 . S
N1503 C1504 1.358 . S
N1503 C1505 1.400 . S
C1504 N1502 1.263 . S
C1504 N1503 1.358 . S
C1504 H1510 0.930 . S
C1505 N1503 1.400 . S
C1505 C1506 1.351 . S
C1505 H1522 0.930 . S
C1506 N1502 1.389 . S
C1506 C1505 1.351 . S
C1506 H1511 0.930 . S
O1507 Cu1501 1.974 . S
O1507 C1517 1.282 . S
C1508 O1509 1.233 1_565 S
C1508 O1521 1.251 . S
O1509 C1508 1.233 1_545 S
H1510 C1504 0.930 . S
H1511 C1506 0.930 . S
N1512 Cu1501 2.023 . S
N1512 C1514 1.275 1_545 S
N1512 C1515 1.406 . S
N1513 C1514 1.345 . S
N1513 C1516 1.336 . S
C1514 N1512 1.275 1_565 S
C1514 N1513 1.345 . S
C1514 H1519 0.930 . S
C1515 N1512 1.406 . S
C1515 C1516 1.346 1_545 S
C1515 H1520 0.930 . S
C1516 N1513 1.336 . S
C1516 C1515 1.346 1_565 S
C1516 H1523 0.929 . S
C1517 O1507 1.282 . S
C1517 O1518 1.216 . S
O1518 C1517 1.216 . S
H1519 C1514 0.930 . S
H1520 C1515 0.930 . S
O1521 Cu1501 1.959 1_565 S
O1521 C1508 1.251 . S
H1522 C1505 0.930 . S
H1523 C1516 0.929 . S
Cu1524 N1525 1.999 . S
Cu1524 O1530 1.974 . S
Cu1524 N1535 1.985 . S
Cu1524 O1544 1.959 . S
N1525 Cu1524 1.999 . S
N1525 C1527 1.263 . S
N1525 C1529 1.389 . S
N1526 C1527 1.358 . S
N1526 C1528 1.400 . S
C1527 N1525 1.263 . S
C1527 N1526 1.358 . S
C1527 H1533 0.930 . S
C1528 N1526 1.400 . S
C1528 C1529 1.351 . S
C1528 H1545 0.930 . S
C1529 N1525 1.389 . S
C1529 C1528 1.351 . S
C1529 H1534 0.930 . S
O1530 Cu1524 1.974 . S
O1530 C1540 1.282 . S
C1531 O1532 1.261 . S
C1531 O1544 1.251 . S
O1532 C1531 1.261 . S
H1533 C1527 0.930 . S
H1534 C1529 0.930 . S
N1535 Cu1524 1.985 . S
N1535 C1537 1.335 . S
N1535 C1538 1.390 . S
N1536 C1537 1.345 . S
N1536 C1539 1.336 . S
C1537 N1535 1.335 . S
C1537 N1536 1.345 . S
C1537 H1542 0.930 . S
C1538 N1535 1.390 . S
C1538 C1539 1.346 . S
C1538 H1543 0.930 . S
C1539 N1536 1.336 . S
C1539 C1538 1.346 . S
C1539 H1546 0.929 . S
C1540 O1530 1.282 . S
C1540 O1541 1.216 . S
O1541 C1540 1.216 . S
H1542 C1537 0.930 . S
H1543 C1538 0.930 . S
O1544 Cu1524 1.959 . S
O1544 C1531 1.251 . S
H1545 C1528 0.930 . S
H1546 C1539 0.929 . S
Cu1547 N1548 1.999 . S
Cu1547 O1553 1.974 . S
Cu1547 N1558 1.985 . S
Cu1547 O1567 1.959 . S
N1548 Cu1547 1.999 . S
N1548 C1550 1.263 . S
N1548 C1552 1.389 . S
N1549 C1550 1.358 . S
N1549 C1551 1.400 . S
C1550 N1548 1.263 . S
C1550 N1549 1.358 . S
C1550 H1556 0.930 . S
C1551 N1549 1.400 . S
C1551 C1552 1.351 . S
C1551 H1568 0.930 . S
C1552 N1548 1.389 . S
C1552 C1551 1.351 . S
C1552 H1557 0.930 . S
O1553 Cu1547 1.974 . S
O1553 C1563 1.282 . S
C1554 O1555 1.261 . S
C1554 O1567 1.251 . S
O1555 C1554 1.261 . S
H1556 C1550 0.930 . S
H1557 C1552 0.930 . S
N1558 Cu1547 1.985 . S
N1558 C1560 1.335 . S
N1558 C1561 1.390 . S
N1559 C1560 1.345 . S
N1559 C1562 1.336 . S
C1560 N1558 1.335 . S
C1560 N1559 1.345 . S
C1560 H1565 0.930 . S
C1561 N1558 1.390 . S
C1561 C1562 1.346 . S
C1561 H1566 0.930 . S
C1562 N1559 1.336 . S
C1562 C1561 1.346 . S
C1562 H1569 0.929 . S
C1563 O1553 1.282 . S
C1563 O1564 1.216 . S
O1564 C1563 1.216 . S
H1565 C1560 0.930 . S
H1566 C1561 0.930 . S
O1567 Cu1547 1.959 . S
O1567 C1554 1.251 . S
H1568 C1551 0.930 . S
H1569 C1562 0.929 . S
Cu1570 N1571 1.999 . S
Cu1570 O1576 1.974 . S
Cu1570 N1581 1.985 . S
Cu1570 O1590 1.959 . S
N1571 Cu1570 1.999 . S
N1571 C1573 1.263 . S
N1571 C1575 1.389 . S
N1572 C1573 1.358 . S
N1572 C1574 1.400 . S
C1573 N1571 1.263 . S
C1573 N1572 1.358 . S
C1573 H1579 0.930 . S
C1574 N1572 1.400 . S
C1574 C1575 1.351 . S
C1574 H1591 0.930 . S
C1575 N1571 1.389 . S
C1575 C1574 1.351 . S
C1575 H1580 0.930 . S
O1576 Cu1570 1.974 . S
O1576 C1586 1.282 . S
C1577 O1578 1.261 . S
C1577 O1590 1.251 . S
O1578 C1577 1.261 . S
H1579 C1573 0.930 . S
H1580 C1575 0.930 . S
N1581 Cu1570 1.985 . S
N1581 C1583 1.335 . S
N1581 C1584 1.390 . S
N1582 C1583 1.345 . S
N1582 C1585 1.336 . S
C1583 N1581 1.335 . S
C1583 N1582 1.345 . S
C1583 H1588 0.930 . S
C1584 N1581 1.390 . S
C1584 C1585 1.346 . S
C1584 H1589 0.930 . S
C1585 N1582 1.336 . S
C1585 C1584 1.346 . S
C1585 H1592 0.929 . S
C1586 O1576 1.282 . S
C1586 O1587 1.216 . S
O1587 C1586 1.216 . S
H1588 C1583 0.930 . S
H1589 C1584 0.930 . S
O1590 Cu1570 1.959 . S
O1590 C1577 1.251 . S
H1591 C1574 0.930 . S
H1592 C1585 0.929 . S
Cu1593 N1594 1.999 . S
Cu1593 O1599 1.974 . S
Cu1593 N1604 1.985 . S
Cu1593 O1613 1.959 . S
N1594 Cu1593 1.999 . S
N1594 C1596 1.263 . S
N1594 C1598 1.389 . S
N1595 C1596 1.358 . S
N1595 C1597 1.400 . S
C1596 N1594 1.263 . S
C1596 N1595 1.358 . S
C1596 H1602 0.930 . S
C1597 N1595 1.400 . S
C1597 C1598 1.351 . S
C1597 H1614 0.930 . S
C1598 N1594 1.389 . S
C1598 C1597 1.351 . S
C1598 H1603 0.930 . S
O1599 Cu1593 1.974 . S
O1599 C1609 1.282 . S
C1600 O1601 1.261 . S
C1600 O1613 1.251 . S
O1601 C1600 1.261 . S
H1602 C1596 0.930 . S
H1603 C1598 0.930 . S
N1604 Cu1593 1.985 . S
N1604 C1606 1.335 . S
N1604 C1607 1.390 . S
N1605 C1606 1.345 . S
N1605 C1608 1.336 . S
C1606 N1604 1.335 . S
C1606 N1605 1.345 . S
C1606 H1611 0.930 . S
C1607 N1604 1.390 . S
C1607 C1608 1.346 . S
C1607 H1612 0.930 . S
C1608 N1605 1.336 . S
C1608 C1607 1.346 . S
C1608 H1615 0.929 . S
C1609 O1599 1.282 . S
C1609 O1610 1.216 . S
O1610 C1609 1.216 . S
H1611 C1606 0.930 . S
H1612 C1607 0.930 . S
O1613 Cu1593 1.959 . S
O1613 C1600 1.251 . S
H1614 C1597 0.930 . S
H1615 C1608 0.929 . S
Cu1616 N1617 1.999 . S
Cu1616 O1622 1.974 . S
Cu1616 N1627 1.985 . S
Cu1616 O1636 1.959 . S
N1617 Cu1616 1.999 . S
N1617 C1619 1.263 . S
N1617 C1621 1.389 . S
N1618 C1619 1.358 . S
N1618 C1620 1.400 . S
C1619 N1617 1.263 . S
C1619 N1618 1.358 . S
C1619 H1625 0.930 . S
C1620 N1618 1.400 . S
C1620 C1621 1.351 . S
C1620 H1637 0.930 . S
C1621 N1617 1.389 . S
C1621 C1620 1.351 . S
C1621 H1626 0.930 . S
O1622 Cu1616 1.974 . S
O1622 C1632 1.282 . S
C1623 O1624 1.261 . S
C1623 O1636 1.251 . S
O1624 C1623 1.261 . S
H1625 C1619 0.930 . S
H1626 C1621 0.930 . S
N1627 Cu1616 1.985 . S
N1627 C1629 1.335 . S
N1627 C1630 1.390 . S
N1628 C1629 1.345 . S
N1628 C1631 1.336 . S
C1629 N1627 1.335 . S
C1629 N1628 1.345 . S
C1629 H1634 0.930 . S
C1630 N1627 1.390 . S
C1630 C1631 1.346 . S
C1630 H1635 0.930 . S
C1631 N1628 1.336 . S
C1631 C1630 1.346 . S
C1631 H1638 0.929 . S
C1632 O1622 1.282 . S
C1632 O1633 1.216 . S
O1633 C1632 1.216 . S
H1634 C1629 0.930 . S
H1635 C1630 0.930 . S
O1636 Cu1616 1.959 . S
O1636 C1623 1.251 . S
H1637 C1620 0.930 . S
H1638 C1631 0.929 . S
Cu1639 N1640 1.999 . S
Cu1639 O1645 1.974 . S
Cu1639 N1650 1.985 . S
Cu1639 O1659 1.959 . S
N1640 Cu1639 1.999 . S
N1640 C1642 1.263 . S
N1640 C1644 1.389 . S
N1641 C1642 1.358 . S
N1641 C1643 1.400 . S
C1642 N1640 1.263 . S
C1642 N1641 1.358 . S
C1642 H1648 0.930 . S
C1643 N1641 1.400 . S
C1643 C1644 1.351 . S
C1643 H1660 0.930 . S
C1644 N1640 1.389 . S
C1644 C1643 1.351 . S
C1644 H1649 0.930 . S
O1645 Cu1639 1.974 . S
O1645 C1655 1.282 . S
C1646 O1647 1.261 . S
C1646 O1659 1.251 . S
O1647 C1646 1.261 . S
H1648 C1642 0.930 . S
H1649 C1644 0.930 . S
N1650 Cu1639 1.985 . S
N1650 C1652 1.335 . S
N1650 C1653 1.390 . S
N1651 C1652 1.345 . S
N1651 C1654 1.336 . S
C1652 N1650 1.335 . S
C1652 N1651 1.345 . S
C1652 H1657 0.930 . S
C1653 N1650 1.390 . S
C1653 C1654 1.346 . S
C1653 H1658 0.930 . S
C1654 N1651 1.336 . S
C1654 C1653 1.346 . S
C1654 H1661 0.929 . S
C1655 O1645 1.282 . S
C1655 O1656 1.216 . S
O1656 C1655 1.216 . S
H1657 C1652 0.930 . S
H1658 C1653 0.930 . S
O1659 Cu1639 1.959 . S
O1659 C1646 1.251 . S
H1660 C1643 0.930 . S
H1661 C1654 0.929 . S
Cu1662 N1663 1.999 . S
Cu1662 O1668 1.974 . S
Cu1662 N1673 1.985 . S
Cu1662 O1682 1.959 . S
N1663 Cu1662 1.999 . S
N1663 C1665 1.263 . S
N1663 C1667 1.389 . S
N1664 C1665 1.358 . S
N1664 C1666 1.400 . S
C1665 N1663 1.263 . S
C1665 N1664 1.358 . S
C1665 H1671 0.930 . S
C1666 N1664 1.400 . S
C1666 C1667 1.351 . S
C1666 H1683 0.930 . S
C1667 N1663 1.389 . S
C1667 C1666 1.351 . S
C1667 H1672 0.930 . S
O1668 Cu1662 1.974 . S
O1668 C1678 1.282 . S
C1669 O1670 1.261 . S
C1669 O1682 1.251 . S
O1670 C1669 1.261 . S
H1671 C1665 0.930 . S
H1672 C1667 0.930 . S
N1673 Cu1662 1.985 . S
N1673 C1675 1.335 . S
N1673 C1676 1.390 . S
N1674 C1675 1.345 . S
N1674 C1677 1.336 . S
C1675 N1673 1.335 . S
C1675 N1674 1.345 . S
C1675 H1680 0.930 . S
C1676 N1673 1.390 . S
C1676 C1677 1.346 . S
C1676 H1681 0.930 . S
C1677 N1674 1.336 . S
C1677 C1676 1.346 . S
C1677 H1684 0.929 . S
C1678 O1668 1.282 . S
C1678 O1679 1.216 . S
O1679 C1678 1.216 . S
H1680 C1675 0.930 . S
H1681 C1676 0.930 . S
O1682 Cu1662 1.959 . S
O1682 C1669 1.251 . S
H1683 C1666 0.930 . S
H1684 C1677 0.929 . S
Cu1685 N1686 1.999 . S
Cu1685 O1691 1.974 . S
Cu1685 N1696 1.985 . S
Cu1685 O1705 1.959 . S
N1686 Cu1685 1.999 . S
N1686 C1688 1.263 . S
N1686 C1690 1.389 . S
N1687 C1688 1.358 . S
N1687 C1689 1.400 . S
C1688 N1686 1.263 . S
C1688 N1687 1.358 . S
C1688 H1694 0.930 . S
C1689 N1687 1.400 . S
C1689 C1690 1.351 . S
C1689 H1706 0.930 . S
C1690 N1686 1.389 . S
C1690 C1689 1.351 . S
C1690 H1695 0.930 . S
O1691 Cu1685 1.974 . S
O1691 C1701 1.282 . S
C1692 O1693 1.261 . S
C1692 O1705 1.251 . S
O1693 C1692 1.261 . S
H1694 C1688 0.930 . S
H1695 C1690 0.930 . S
N1696 Cu1685 1.985 . S
N1696 C1698 1.335 . S
N1696 C1699 1.390 . S
N1697 C1698 1.345 . S
N1697 C1700 1.336 . S
C1698 N1696 1.335 . S
C1698 N1697 1.345 . S
C1698 H1703 0.930 . S
C1699 N1696 1.390 . S
C1699 C1700 1.346 . S
C1699 H1704 0.930 . S
C1700 N1697 1.336 . S
C1700 C1699 1.346 . S
C1700 H1707 0.929 . S
C1701 O1691 1.282 . S
C1701 O1702 1.216 . S
O1702 C1701 1.216 . S
H1703 C1698 0.930 . S
H1704 C1699 0.930 . S
O1705 Cu1685 1.959 . S
O1705 C1692 1.251 . S
H1706 C1689 0.930 . S
H1707 C1700 0.929 . S
Cu1708 N1709 1.999 . S
Cu1708 O1714 1.974 . S
Cu1708 N1719 1.985 . S
Cu1708 O1728 1.959 . S
N1709 Cu1708 1.999 . S
N1709 C1711 1.263 . S
N1709 C1713 1.389 . S
N1710 C1711 1.358 . S
N1710 C1712 1.400 . S
C1711 N1709 1.263 . S
C1711 N1710 1.358 . S
C1711 H1717 0.930 . S
C1712 N1710 1.400 . S
C1712 C1713 1.351 . S
C1712 H1729 0.930 . S
C1713 N1709 1.389 . S
C1713 C1712 1.351 . S
C1713 H1718 0.930 . S
O1714 Cu1708 1.974 . S
O1714 C1724 1.282 . S
C1715 O1716 1.261 . S
C1715 O1728 1.251 . S
O1716 C1715 1.261 . S
H1717 C1711 0.930 . S
H1718 C1713 0.930 . S
N1719 Cu1708 1.985 . S
N1719 C1721 1.335 . S
N1719 C1722 1.390 . S
N1720 C1721 1.345 . S
N1720 C1723 1.336 . S
C1721 N1719 1.335 . S
C1721 N1720 1.345 . S
C1721 H1726 0.930 . S
C1722 N1719 1.390 . S
C1722 C1723 1.346 . S
C1722 H1727 0.930 . S
C1723 N1720 1.336 . S
C1723 C1722 1.346 . S
C1723 H1730 0.929 . S
C1724 O1714 1.282 . S
C1724 O1725 1.216 . S
O1725 C1724 1.216 . S
H1726 C1721 0.930 . S
H1727 C1722 0.930 . S
O1728 Cu1708 1.959 . S
O1728 C1715 1.251 . S
H1729 C1712 0.930 . S
H1730 C1723 0.929 . S
Cu1731 N1732 1.999 . S
Cu1731 O1737 1.974 . S
Cu1731 N1742 1.985 . S
Cu1731 O1751 1.959 . S
N1732 Cu1731 1.999 . S
N1732 C1734 1.263 . S
N1732 C1736 1.389 . S
N1733 C1734 1.358 . S
N1733 C1735 1.400 . S
C1734 N1732 1.263 . S
C1734 N1733 1.358 . S
C1734 H1740 0.930 . S
C1735 N1733 1.400 . S
C1735 C1736 1.351 . S
C1735 H1752 0.930 . S
C1736 N1732 1.389 . S
C1736 C1735 1.351 . S
C1736 H1741 0.930 . S
O1737 Cu1731 1.974 . S
O1737 C1747 1.282 . S
C1738 O1739 1.261 . S
C1738 O1751 1.251 . S
O1739 C1738 1.261 . S
H1740 C1734 0.930 . S
H1741 C1736 0.930 . S
N1742 Cu1731 1.985 . S
N1742 C1744 1.335 . S
N1742 C1745 1.390 . S
N1743 C1744 1.345 . S
N1743 C1746 1.336 . S
C1744 N1742 1.335 . S
C1744 N1743 1.345 . S
C1744 H1749 0.930 . S
C1745 N1742 1.390 . S
C1745 C1746 1.346 . S
C1745 H1750 0.930 . S
C1746 N1743 1.336 . S
C1746 C1745 1.346 . S
C1746 H1753 0.929 . S
C1747 O1737 1.282 . S
C1747 O1748 1.216 . S
O1748 C1747 1.216 . S
H1749 C1744 0.930 . S
H1750 C1745 0.930 . S
O1751 Cu1731 1.959 . S
O1751 C1738 1.251 . S
H1752 C1735 0.930 . S
H1753 C1746 0.929 . S
Cu1754 N1755 1.999 . S
Cu1754 O1760 1.974 . S
Cu1754 N1765 1.985 . S
Cu1754 O1774 1.959 . S
N1755 Cu1754 1.999 . S
N1755 C1757 1.263 . S
N1755 C1759 1.389 . S
N1756 C1757 1.358 . S
N1756 C1758 1.400 . S
C1757 N1755 1.263 . S
C1757 N1756 1.358 . S
C1757 H1763 0.930 . S
C1758 N1756 1.400 . S
C1758 C1759 1.351 . S
C1758 H1775 0.930 . S
C1759 N1755 1.389 . S
C1759 C1758 1.351 . S
C1759 H1764 0.930 . S
O1760 Cu1754 1.974 . S
O1760 C1770 1.282 . S
C1761 O1762 1.261 . S
C1761 O1774 1.251 . S
O1762 C1761 1.261 . S
H1763 C1757 0.930 . S
H1764 C1759 0.930 . S
N1765 Cu1754 1.985 . S
N1765 C1767 1.335 . S
N1765 C1768 1.390 . S
N1766 C1767 1.345 . S
N1766 C1769 1.336 . S
C1767 N1765 1.335 . S
C1767 N1766 1.345 . S
C1767 H1772 0.930 . S
C1768 N1765 1.390 . S
C1768 C1769 1.346 . S
C1768 H1773 0.930 . S
C1769 N1766 1.336 . S
C1769 C1768 1.346 . S
C1769 H1776 0.929 . S
C1770 O1760 1.282 . S
C1770 O1771 1.216 . S
O1771 C1770 1.216 . S
H1772 C1767 0.930 . S
H1773 C1768 0.930 . S
O1774 Cu1754 1.959 . S
O1774 C1761 1.251 . S
H1775 C1758 0.930 . S
H1776 C1769 0.929 . S
Cu1777 N1778 1.999 . S
Cu1777 O1783 1.974 . S
Cu1777 N1788 1.985 . S
Cu1777 O1797 1.959 . S
N1778 Cu1777 1.999 . S
N1778 C1780 1.263 . S
N1778 C1782 1.389 . S
N1779 C1780 1.358 . S
N1779 C1781 1.400 . S
C1780 N1778 1.263 . S
C1780 N1779 1.358 . S
C1780 H1786 0.930 . S
C1781 N1779 1.400 . S
C1781 C1782 1.351 . S
C1781 H1798 0.930 . S
C1782 N1778 1.389 . S
C1782 C1781 1.351 . S
C1782 H1787 0.930 . S
O1783 Cu1777 1.974 . S
O1783 C1793 1.282 . S
C1784 O1785 1.261 . S
C1784 O1797 1.251 . S
O1785 C1784 1.261 . S
H1786 C1780 0.930 . S
H1787 C1782 0.930 . S
N1788 Cu1777 1.985 . S
N1788 C1790 1.335 . S
N1788 C1791 1.390 . S
N1789 C1790 1.345 . S
N1789 C1792 1.336 . S
C1790 N1788 1.335 . S
C1790 N1789 1.345 . S
C1790 H1795 0.930 . S
C1791 N1788 1.390 . S
C1791 C1792 1.346 . S
C1791 H1796 0.930 . S
C1792 N1789 1.336 . S
C1792 C1791 1.346 . S
C1792 H1799 0.929 . S
C1793 O1783 1.282 . S
C1793 O1794 1.216 . S
O1794 C1793 1.216 . S
H1795 C1790 0.930 . S
H1796 C1791 0.930 . S
O1797 Cu1777 1.959 . S
O1797 C1784 1.251 . S
H1798 C1781 0.930 . S
H1799 C1792 0.929 . S
C1800 C1801 1.363 . S
C1800 C1806 1.379 . S
C1800 N1808 1.356 . S
C1801 C1800 1.363 . S
C1801 C1807 1.363 . S
C1802 C1803 1.363 . S
C1802 C1807 1.379 . S
C1802 N1809 1.356 . S
C1803 C1802 1.363 . S
C1803 C1806 1.363 . S
N1804 C1806 1.356 . S
N1804 H1816 0.984 . S
N1804 H1817 0.985 . S
N1805 C1807 1.356 . S
N1805 H1810 0.984 . S
N1805 H1811 0.985 . S
C1806 C1800 1.379 . S
C1806 C1803 1.363 . S
C1806 N1804 1.356 . S
C1807 C1801 1.363 . S
C1807 C1802 1.379 . S
C1807 N1805 1.356 . S
N1808 C1800 1.356 . S
N1808 H1814 0.984 . S
N1808 H1815 0.984 . S
N1809 C1802 1.356 . S
N1809 H1812 0.984 . S
N1809 H1813 0.985 . S
H1810 N1805 0.984 . S
H1811 N1805 0.985 . S
H1812 N1809 0.984 . S
H1813 N1809 0.985 . S
H1814 N1808 0.984 . S
H1815 N1808 0.984 . S
H1816 N1804 0.984 . S
H1817 N1804 0.985 . S
C1818 C1819 1.363 . S
C1818 C1824 1.379 . S
C1818 N1826 1.356 . S
C1819 C1818 1.363 . S
C1819 C1825 1.363 . S
C1820 C1821 1.363 . S
C1820 C1825 1.379 . S
C1820 N1827 1.356 . S
C1821 C1820 1.363 . S
C1821 C1824 1.363 . S
N1822 C1824 1.356 . S
N1822 H1834 0.984 . S
N1822 H1835 0.985 . S
N1823 C1825 1.356 . S
N1823 H1828 0.984 . S
N1823 H1829 0.985 . S
C1824 C1818 1.379 . S
C1824 C1821 1.363 . S
C1824 N1822 1.356 . S
C1825 C1819 1.363 . S
C1825 C1820 1.379 . S
C1825 N1823 1.356 . S
N1826 C1818 1.356 . S
N1826 H1832 0.984 . S
N1826 H1833 0.984 . S
N1827 C1820 1.356 . S
N1827 H1830 0.984 . S
N1827 H1831 0.985 . S
H1828 N1823 0.984 . S
H1829 N1823 0.985 . S
H1830 N1827 0.984 . S
H1831 N1827 0.985 . S
H1832 N1826 0.984 . S
H1833 N1826 0.984 . S
H1834 N1822 0.984 . S
H1835 N1822 0.985 . S
C1836 C1837 1.363 . S
C1836 C1842 1.379 . S
C1836 N1844 1.356 . S
C1837 C1836 1.363 . S
C1837 C1843 1.363 . S
C1838 C1839 1.363 . S
C1838 C1843 1.379 . S
C1838 N1845 1.356 . S
C1839 C1838 1.363 . S
C1839 C1842 1.363 . S
N1840 C1842 1.356 . S
N1840 H1852 0.984 . S
N1840 H1853 0.985 . S
N1841 C1843 1.356 . S
N1841 H1846 0.984 . S
N1841 H1847 0.985 . S
C1842 C1836 1.379 . S
C1842 C1839 1.363 . S
C1842 N1840 1.356 . S
C1843 C1837 1.363 . S
C1843 C1838 1.379 . S
C1843 N1841 1.356 . S
N1844 C1836 1.356 . S
N1844 H1850 0.984 . S
N1844 H1851 0.984 . S
N1845 C1838 1.356 . S
N1845 H1848 0.984 . S
N1845 H1849 0.985 . S
H1846 N1841 0.984 . S
H1847 N1841 0.985 . S
H1848 N1845 0.984 . S
H1849 N1845 0.985 . S
H1850 N1844 0.984 . S
H1851 N1844 0.984 . S
H1852 N1840 0.984 . S
H1853 N1840 0.985 . S
C1854 C1855 1.363 . S
C1854 C1860 1.379 . S
C1854 N1862 1.356 . S
C1855 C1854 1.363 . S
C1855 C1861 1.363 . S
C1856 C1857 1.363 . S
C1856 C1861 1.379 . S
C1856 N1863 1.356 . S
C1857 C1856 1.363 . S
C1857 C1860 1.363 . S
N1858 C1860 1.356 . S
N1858 H1870 0.984 . S
N1858 H1871 0.985 . S
N1859 C1861 1.356 . S
N1859 H1864 0.984 . S
N1859 H1865 0.985 . S
C1860 C1854 1.379 . S
C1860 C1857 1.363 . S
C1860 N1858 1.356 . S
C1861 C1855 1.363 . S
C1861 C1856 1.379 . S
C1861 N1859 1.356 . S
N1862 C1854 1.356 . S
N1862 H1868 0.984 . S
N1862 H1869 0.984 . S
N1863 C1856 1.356 . S
N1863 H1866 0.984 . S
N1863 H1867 0.985 . S
H1864 N1859 0.984 . S
H1865 N1859 0.985 . S
H1866 N1863 0.984 . S
H1867 N1863 0.985 . S
H1868 N1862 0.984 . S
H1869 N1862 0.984 . S
H1870 N1858 0.984 . S
H1871 N1858 0.985 . S
C1872 C1873 1.363 . S
C1872 C1878 1.379 . S
C1872 N1880 1.356 . S
C1873 C1872 1.363 . S
C1873 C1879 1.363 . S
C1874 C1875 1.363 . S
C1874 C1879 1.379 . S
C1874 N1881 1.356 . S
C1875 C1874 1.363 . S
C1875 C1878 1.363 . S
N1876 C1878 1.356 . S
N1876 H1888 0.984 . S
N1876 H1889 0.985 . S
N1877 C1879 1.356 . S
N1877 H1882 0.984 . S
N1877 H1883 0.985 . S
C1878 C1872 1.379 . S
C1878 C1875 1.363 . S
C1878 N1876 1.356 . S
C1879 C1873 1.363 . S
C1879 C1874 1.379 . S
C1879 N1877 1.356 . S
N1880 C1872 1.356 . S
N1880 H1886 0.984 . S
N1880 H1887 0.984 . S
N1881 C1874 1.356 . S
N1881 H1884 0.984 . S
N1881 H1885 0.985 . S
H1882 N1877 0.984 . S
H1883 N1877 0.985 . S
H1884 N1881 0.984 . S
H1885 N1881 0.985 . S
H1886 N1880 0.984 . S
H1887 N1880 0.984 . S
H1888 N1876 0.984 . S
H1889 N1876 0.985 . S
C1890 C1891 1.363 . S
C1890 C1896 1.379 . S
C1890 N1898 1.356 . S
C1891 C1890 1.363 . S
C1891 C1897 1.363 . S
C1892 C1893 1.363 . S
C1892 C1897 1.379 . S
C1892 N1899 1.356 . S
C1893 C1892 1.363 . S
C1893 C1896 1.363 . S
N1894 C1896 1.356 . S
N1894 H1906 0.984 . S
N1894 H1907 0.985 . S
N1895 C1897 1.356 . S
N1895 H1900 0.984 . S
N1895 H1901 0.985 . S
C1896 C1890 1.379 . S
C1896 C1893 1.363 . S
C1896 N1894 1.356 . S
C1897 C1891 1.363 . S
C1897 C1892 1.379 . S
C1897 N1895 1.356 . S
N1898 C1890 1.356 . S
N1898 H1904 0.984 . S
N1898 H1905 0.984 . S
N1899 C1892 1.356 . S
N1899 H1902 0.984 . S
N1899 H1903 0.985 . S
H1900 N1895 0.984 . S
H1901 N1895 0.985 . S
H1902 N1899 0.984 . S
H1903 N1899 0.985 . S
H1904 N1898 0.984 . S
H1905 N1898 0.984 . S
H1906 N1894 0.984 . S
H1907 N1894 0.985 . S
C1908 C1909 1.363 . S
C1908 C1914 1.379 . S
C1908 N1916 1.356 . S
C1909 C1908 1.363 . S
C1909 C1915 1.363 . S
C1910 C1911 1.363 . S
C1910 C1915 1.379 . S
C1910 N1917 1.356 . S
C1911 C1910 1.363 . S
C1911 C1914 1.363 . S
N1912 C1914 1.356 . S
N1912 H1924 0.984 . S
N1912 H1925 0.985 . S
N1913 C1915 1.356 . S
N1913 H1918 0.984 . S
N1913 H1919 0.985 . S
C1914 C1908 1.379 . S
C1914 C1911 1.363 . S
C1914 N1912 1.356 . S
C1915 C1909 1.363 . S
C1915 C1910 1.379 . S
C1915 N1913 1.356 . S
N1916 C1908 1.356 . S
N1916 H1922 0.984 . S
N1916 H1923 0.984 . S
N1917 C1910 1.356 . S
N1917 H1920 0.984 . S
N1917 H1921 0.985 . S
H1918 N1913 0.984 . S
H1919 N1913 0.985 . S
H1920 N1917 0.984 . S
H1921 N1917 0.985 . S
H1922 N1916 0.984 . S
H1923 N1916 0.984 . S
H1924 N1912 0.984 . S
H1925 N1912 0.985 . S
C1926 C1927 1.363 . S
C1926 C1932 1.379 . S
C1926 N1934 1.356 . S
C1927 C1926 1.363 . S
C1927 C1933 1.363 . S
C1928 C1929 1.363 . S
C1928 C1933 1.379 . S
C1928 N1935 1.356 . S
C1929 C1928 1.363 . S
C1929 C1932 1.363 . S
N1930 C1932 1.356 . S
N1930 H1942 0.984 . S
N1930 H1943 0.985 . S
N1931 C1933 1.356 . S
N1931 H1936 0.984 . S
N1931 H1937 0.985 . S
C1932 C1926 1.379 . S
C1932 C1929 1.363 . S
C1932 N1930 1.356 . S
C1933 C1927 1.363 . S
C1933 C1928 1.379 . S
C1933 N1931 1.356 . S
N1934 C1926 1.356 . S
N1934 H1940 0.984 . S
N1934 H1941 0.984 . S
N1935 C1928 1.356 . S
N1935 H1938 0.984 . S
N1935 H1939 0.985 . S
H1936 N1931 0.984 . S
H1937 N1931 0.985 . S
H1938 N1935 0.984 . S
H1939 N1935 0.985 . S
H1940 N1934 0.984 . S
H1941 N1934 0.984 . S
H1942 N1930 0.984 . S
H1943 N1930 0.985 . S
C1944 C1945 1.363 . S
C1944 C1950 1.379 . S
C1944 N1952 1.356 . S
C1945 C1944 1.363 . S
C1945 C1951 1.363 . S
C1946 C1947 1.363 . S
C1946 C1951 1.379 . S
C1946 N1953 1.356 . S
C1947 C1946 1.363 . S
C1947 C1950 1.363 . S
N1948 C1950 1.356 . S
N1948 H1960 0.984 . S
N1948 H1961 0.985 . S
N1949 C1951 1.356 . S
N1949 H1954 0.984 . S
N1949 H1955 0.985 . S
C1950 C1944 1.379 . S
C1950 C1947 1.363 . S
C1950 N1948 1.356 . S
C1951 C1945 1.363 . S
C1951 C1946 1.379 . S
C1951 N1949 1.356 . S
N1952 C1944 1.356 . S
N1952 H1958 0.984 . S
N1952 H1959 0.984 . S
N1953 C1946 1.356 . S
N1953 H1956 0.984 . S
N1953 H1957 0.985 . S
H1954 N1949 0.984 . S
H1955 N1949 0.985 . S
H1956 N1953 0.984 . S
H1957 N1953 0.985 . S
H1958 N1952 0.984 . S
H1959 N1952 0.984 . S
H1960 N1948 0.984 . S
H1961 N1948 0.985 . S
C1962 C1963 1.363 . S
C1962 C1968 1.379 . S
C1962 N1970 1.356 . S
C1963 C1962 1.363 . S
C1963 C1969 1.363 . S
C1964 C1965 1.363 . S
C1964 C1969 1.379 . S
C1964 N1971 1.356 . S
C1965 C1964 1.363 . S
C1965 C1968 1.363 . S
N1966 C1968 1.356 . S
N1966 H1978 0.984 . S
N1966 H1979 0.985 . S
N1967 C1969 1.356 . S
N1967 H1972 0.984 . S
N1967 H1973 0.985 . S
C1968 C1962 1.379 . S
C1968 C1965 1.363 . S
C1968 N1966 1.356 . S
C1969 C1963 1.363 . S
C1969 C1964 1.379 . S
C1969 N1967 1.356 . S
N1970 C1962 1.356 . S
N1970 H1976 0.984 . S
N1970 H1977 0.984 . S
N1971 C1964 1.356 . S
N1971 H1974 0.984 . S
N1971 H1975 0.985 . S
H1972 N1967 0.984 . S
H1973 N1967 0.985 . S
H1974 N1971 0.984 . S
H1975 N1971 0.985 . S
H1976 N1970 0.984 . S
H1977 N1970 0.984 . S
H1978 N1966 0.984 . S
H1979 N1966 0.985 . S
C1980 C1981 1.363 . S
C1980 C1986 1.379 . S
C1980 N1988 1.356 . S
C1981 C1980 1.363 . S
C1981 C1987 1.363 . S
C1982 C1983 1.363 . S
C1982 C1987 1.379 . S
C1982 N1989 1.356 . S
C1983 C1982 1.363 . S
C1983 C1986 1.363 . S
N1984 C1986 1.356 . S
N1984 H1996 0.984 . S
N1984 H1997 0.985 . S
N1985 C1987 1.356 . S
N1985 H1990 0.984 . S
N1985 H1991 0.985 . S
C1986 C1980 1.379 . S
C1986 C1983 1.363 . S
C1986 N1984 1.356 . S
C1987 C1981 1.363 . S
C1987 C1982 1.379 . S
C1987 N1985 1.356 . S
N1988 C1980 1.356 . S
N1988 H1994 0.984 . S
N1988 H1995 0.984 . S
N1989 C1982 1.356 . S
N1989 H1992 0.984 . S
N1989 H1993 0.985 . S
H1990 N1985 0.984 . S
H1991 N1985 0.985 . S
H1992 N1989 0.984 . S
H1993 N1989 0.985 . S
H1994 N1988 0.984 . S
H1995 N1988 0.984 . S
H1996 N1984 0.984 . S
H1997 N1984 0.985 . S
C1998 C1999 1.363 . S
C1998 C2004 1.379 . S
C1998 N2006 1.356 . S
C1999 C1998 1.363 . S
C1999 C2005 1.363 . S
C2000 C2001 1.363 . S
C2000 C2005 1.379 . S
C2000 N2007 1.356 . S
C2001 C2000 1.363 . S
C2001 C2004 1.363 . S
N2002 C2004 1.356 . S
N2002 H2014 0.984 . S
N2002 H2015 0.985 . S
N2003 C2005 1.356 . S
N2003 H2008 0.984 . S
N2003 H2009 0.985 . S
C2004 C1998 1.379 . S
C2004 C2001 1.363 . S
C2004 N2002 1.356 . S
C2005 C1999 1.363 . S
C2005 C2000 1.379 . S
C2005 N2003 1.356 . S
N2006 C1998 1.356 . S
N2006 H2012 0.984 . S
N2006 H2013 0.984 . S
N2007 C2000 1.356 . S
N2007 H2010 0.984 . S
N2007 H2011 0.985 . S
H2008 N2003 0.984 . S
H2009 N2003 0.985 . S
H2010 N2007 0.984 . S
H2011 N2007 0.985 . S
H2012 N2006 0.984 . S
H2013 N2006 0.984 . S
H2014 N2002 0.984 . S
H2015 N2002 0.985 . S
C2016 C2017 1.363 . S
C2016 C2022 1.379 . S
C2016 N2024 1.356 . S
C2017 C2016 1.363 . S
C2017 C2023 1.363 . S
C2018 C2019 1.363 . S
C2018 C2023 1.379 . S
C2018 N2025 1.356 . S
C2019 C2018 1.363 . S
C2019 C2022 1.363 . S
N2020 C2022 1.356 . S
N2020 H2032 0.984 . S
N2020 H2033 0.985 . S
N2021 C2023 1.356 . S
N2021 H2026 0.984 . S
N2021 H2027 0.985 . S
C2022 C2016 1.379 . S
C2022 C2019 1.363 . S
C2022 N2020 1.356 . S
C2023 C2017 1.363 . S
C2023 C2018 1.379 . S
C2023 N2021 1.356 . S
N2024 C2016 1.356 . S
N2024 H2030 0.984 . S
N2024 H2031 0.984 . S
N2025 C2018 1.356 . S
N2025 H2028 0.984 . S
N2025 H2029 0.985 . S
H2026 N2021 0.984 . S
H2027 N2021 0.985 . S
H2028 N2025 0.984 . S
H2029 N2025 0.985 . S
H2030 N2024 0.984 . S
H2031 N2024 0.984 . S
H2032 N2020 0.984 . S
H2033 N2020 0.985 . S
C2034 C2035 1.363 . S
C2034 C2040 1.379 . S
C2034 N2042 1.356 . S
C2035 C2034 1.363 . S
C2035 C2041 1.363 . S
C2036 C2037 1.363 . S
C2036 C2041 1.379 . S
C2036 N2043 1.356 . S
C2037 C2036 1.363 . S
C2037 C2040 1.363 . S
N2038 C2040 1.356 . S
N2038 H2050 0.984 . S
N2038 H2051 0.985 . S
N2039 C2041 1.356 . S
N2039 H2044 0.984 . S
N2039 H2045 0.985 . S
C2040 C2034 1.379 . S
C2040 C2037 1.363 . S
C2040 N2038 1.356 . S
C2041 C2035 1.363 . S
C2041 C2036 1.379 . S
C2041 N2039 1.356 . S
N2042 C2034 1.356 . S
N2042 H2048 0.984 . S
N2042 H2049 0.984 . S
N2043 C2036 1.356 . S
N2043 H2046 0.984 . S
N2043 H2047 0.985 . S
H2044 N2039 0.984 . S
H2045 N2039 0.985 . S
H2046 N2043 0.984 . S
H2047 N2043 0.985 . S
H2048 N2042 0.984 . S
H2049 N2042 0.984 . S
H2050 N2038 0.984 . S
H2051 N2038 0.985 . S
C2052 C2053 1.363 . S
C2052 C2058 1.379 . S
C2052 N2060 1.356 . S
C2053 C2052 1.363 . S
C2053 C2059 1.363 . S
C2054 C2055 1.363 . S
C2054 C2059 1.379 . S
C2054 N2061 1.356 . S
C2055 C2054 1.363 . S
C2055 C2058 1.363 . S
N2056 C2058 1.356 . S
N2056 H2068 0.984 . S
N2056 H2069 0.985 . S
N2057 C2059 1.356 . S
N2057 H2062 0.984 . S
N2057 H2063 0.985 . S
C2058 C2052 1.379 . S
C2058 C2055 1.363 . S
C2058 N2056 1.356 . S
C2059 C2053 1.363 . S
C2059 C2054 1.379 . S
C2059 N2057 1.356 . S
N2060 C2052 1.356 . S
N2060 H2066 0.984 . S
N2060 H2067 0.984 . S
N2061 C2054 1.356 . S
N2061 H2064 0.984 1_655 S
N2061 H2065 0.985 . S
H2062 N2057 0.984 . S
H2063 N2057 0.985 . S
H2064 N2061 0.984 1_455 S
H2065 N2061 0.985 . S
H2066 N2060 0.984 . S
H2067 N2060 0.984 . S
H2068 N2056 0.984 . S
H2069 N2056 0.985 . S
C2070 C2071 1.363 . S
C2070 C2076 1.379 . S
C2070 N2078 1.356 . S
C2071 C2070 1.363 . S
C2071 C2077 1.363 . S
C2072 C2073 1.363 . S
C2072 C2077 1.379 . S
C2072 N2079 1.356 . S
C2073 C2072 1.363 . S
C2073 C2076 1.363 . S
N2074 C2076 1.356 . S
N2074 H2086 0.984 . S
N2074 H2087 0.985 . S
N2075 C2077 1.356 . S
N2075 H2080 0.984 . S
N2075 H2081 0.985 . S
C2076 C2070 1.379 . S
C2076 C2073 1.363 . S
C2076 N2074 1.356 . S
C2077 C2071 1.363 . S
C2077 C2072 1.379 . S
C2077 N2075 1.356 . S
N2078 C2070 1.356 . S
N2078 H2084 0.984 . S
N2078 H2085 0.984 . S
N2079 C2072 1.356 . S
N2079 H2082 0.984 . S
N2079 H2083 0.985 . S
H2080 N2075 0.984 . S
H2081 N2075 0.985 . S
H2082 N2079 0.984 . S
H2083 N2079 0.985 . S
H2084 N2078 0.984 . S
H2085 N2078 0.984 . S
H2086 N2074 0.984 . S
H2087 N2074 0.985 . S
C2088 C2089 1.363 . S
C2088 C2094 1.379 . S
C2088 N2096 1.356 . S
C2089 C2088 1.363 . S
C2089 C2095 1.363 . S
C2090 C2091 1.363 . S
C2090 C2095 1.379 . S
C2090 N2097 1.356 . S
C2091 C2090 1.363 . S
C2091 C2094 1.363 . S
N2092 C2094 1.356 . S
N2092 H2104 0.984 . S
N2092 H2105 0.985 . S
N2093 C2095 1.356 . S
N2093 H2098 0.984 . S
N2093 H2099 0.985 . S
C2094 C2088 1.379 . S
C2094 C2091 1.363 . S
C2094 N2092 1.356 . S
C2095 C2089 1.363 . S
C2095 C2090 1.379 . S
C2095 N2093 1.356 . S
N2096 C2088 1.356 . S
N2096 H2102 0.984 . S
N2096 H2103 0.984 . S
N2097 C2090 1.356 . S
N2097 H2100 0.984 . S
N2097 H2101 0.985 . S
H2098 N2093 0.984 . S
H2099 N2093 0.985 . S
H2100 N2097 0.984 . S
H2101 N2097 0.985 . S
H2102 N2096 0.984 . S
H2103 N2096 0.984 . S
H2104 N2092 0.984 . S
H2105 N2092 0.985 . S
C2106 C2107 1.363 . S
C2106 C2112 1.379 . S
C2106 N2114 1.356 . S
C2107 C2106 1.363 . S
C2107 C2113 1.363 . S
C2108 C2109 1.363 . S
C2108 C2113 1.379 . S
C2108 N2115 1.356 . S
C2109 C2108 1.363 . S
C2109 C2112 1.363 . S
N2110 C2112 1.356 . S
N2110 H2122 0.984 . S
N2110 H2123 0.985 . S
N2111 C2113 1.356 . S
N2111 H2116 0.984 . S
N2111 H2117 0.985 . S
C2112 C2106 1.379 . S
C2112 C2109 1.363 . S
C2112 N2110 1.356 . S
C2113 C2107 1.363 . S
C2113 C2108 1.379 . S
C2113 N2111 1.356 . S
N2114 C2106 1.356 . S
N2114 H2120 0.984 . S
N2114 H2121 0.984 . S
N2115 C2108 1.356 . S
N2115 H2118 0.984 . S
N2115 H2119 0.985 . S
H2116 N2111 0.984 . S
H2117 N2111 0.985 . S
H2118 N2115 0.984 . S
H2119 N2115 0.985 . S
H2120 N2114 0.984 . S
H2121 N2114 0.984 . S
H2122 N2110 0.984 . S
H2123 N2110 0.985 . S
C2124 C2125 1.363 . S
C2124 C2130 1.379 . S
C2124 N2132 1.356 . S
C2125 C2124 1.363 . S
C2125 C2131 1.363 . S
C2126 C2127 1.363 . S
C2126 C2131 1.379 . S
C2126 N2133 1.356 . S
C2127 C2126 1.363 . S
C2127 C2130 1.363 . S
N2128 C2130 1.356 . S
N2128 H2140 0.984 . S
N2128 H2141 0.985 . S
N2129 C2131 1.356 . S
N2129 H2134 0.984 . S
N2129 H2135 0.985 . S
C2130 C2124 1.379 . S
C2130 C2127 1.363 . S
C2130 N2128 1.356 . S
C2131 C2125 1.363 . S
C2131 C2126 1.379 . S
C2131 N2129 1.356 . S
N2132 C2124 1.356 . S
N2132 H2138 0.984 . S
N2132 H2139 0.984 . S
N2133 C2126 1.356 . S
N2133 H2136 0.984 . S
N2133 H2137 0.985 . S
H2134 N2129 0.984 . S
H2135 N2129 0.985 . S
H2136 N2133 0.984 . S
H2137 N2133 0.985 . S
H2138 N2132 0.984 . S
H2139 N2132 0.984 . S
H2140 N2128 0.984 . S
H2141 N2128 0.985 . S
C2142 C2143 1.363 . S
C2142 C2148 1.379 . S
C2142 N2150 1.356 . S
C2143 C2142 1.363 . S
C2143 C2149 1.363 . S
C2144 C2145 1.363 . S
C2144 C2149 1.379 . S
C2144 N2151 1.356 . S
C2145 C2144 1.363 . S
C2145 C2148 1.363 . S
N2146 C2148 1.356 . S
N2146 H2158 0.984 . S
N2146 H2159 0.985 . S
N2147 C2149 1.356 . S
N2147 H2152 0.984 . S
N2147 H2153 0.985 . S
C2148 C2142 1.379 . S
C2148 C2145 1.363 . S
C2148 N2146 1.356 . S
C2149 C2143 1.363 . S
C2149 C2144 1.379 . S
C2149 N2147 1.356 . S
N2150 C2142 1.356 . S
N2150 H2156 0.984 . S
N2150 H2157 0.984 . S
N2151 C2144 1.356 . S
N2151 H2154 0.984 . S
N2151 H2155 0.985 . S
H2152 N2147 0.984 . S
H2153 N2147 0.985 . S
H2154 N2151 0.984 . S
H2155 N2151 0.985 . S
H2156 N2150 0.984 . S
H2157 N2150 0.984 . S
H2158 N2146 0.984 . S
H2159 N2146 0.985 . S
C2160 C2161 1.363 . S
C2160 C2166 1.379 . S
C2160 N2168 1.356 . S
C2161 C2160 1.363 . S
C2161 C2167 1.363 . S
C2162 C2163 1.363 . S
C2162 C2167 1.379 . S
C2162 N2169 1.356 . S
C2163 C2162 1.363 . S
C2163 C2166 1.363 . S
N2164 C2166 1.356 . S
N2164 H2176 0.984 . S
N2164 H2177 0.985 . S
N2165 C2167 1.356 . S
N2165 H2170 0.984 . S
N2165 H2171 0.985 . S
C2166 C2160 1.379 . S
C2166 C2163 1.363 . S
C2166 N2164 1.356 . S
C2167 C2161 1.363 . S
C2167 C2162 1.379 . S
C2167 N2165 1.356 . S
N2168 C2160 1.356 . S
N2168 H2174 0.984 . S
N2168 H2175 0.984 . S
N2169 C2162 1.356 . S
N2169 H2172 0.984 . S
N2169 H2173 0.985 . S
H2170 N2165 0.984 . S
H2171 N2165 0.985 . S
H2172 N2169 0.984 . S
H2173 N2169 0.985 . S
H2174 N2168 0.984 . S
H2175 N2168 0.984 . S
H2176 N2164 0.984 . S
H2177 N2164 0.985 . S
C2178 C2179 1.363 . S
C2178 C2184 1.379 . S
C2178 N2186 1.356 . S
C2179 C2178 1.363 . S
C2179 C2185 1.363 . S
C2180 C2181 1.363 . S
C2180 C2185 1.379 . S
C2180 N2187 1.356 . S
C2181 C2180 1.363 . S
C2181 C2184 1.363 . S
N2182 C2184 1.356 . S
N2182 H2194 0.984 . S
N2182 H2195 0.985 . S
N2183 C2185 1.356 . S
N2183 H2188 0.984 . S
N2183 H2189 0.985 . S
C2184 C2178 1.379 . S
C2184 C2181 1.363 . S
C2184 N2182 1.356 . S
C2185 C2179 1.363 . S
C2185 C2180 1.379 . S
C2185 N2183 1.356 . S
N2186 C2178 1.356 . S
N2186 H2192 0.984 . S
N2186 H2193 0.984 . S
N2187 C2180 1.356 . S
N2187 H2190 0.984 . S
N2187 H2191 0.985 . S
H2188 N2183 0.984 . S
H2189 N2183 0.985 . S
H2190 N2187 0.984 . S
H2191 N2187 0.985 . S
H2192 N2186 0.984 . S
H2193 N2186 0.984 . S
H2194 N2182 0.984 . S
H2195 N2182 0.985 . S
C2196 C2197 1.363 . S
C2196 C2202 1.379 . S
C2196 N2204 1.356 . S
C2197 C2196 1.363 . S
C2197 C2203 1.363 . S
C2198 C2199 1.363 . S
C2198 C2203 1.379 . S
C2198 N2205 1.356 . S
C2199 C2198 1.363 . S
C2199 C2202 1.363 . S
N2200 C2202 1.356 . S
N2200 H2212 0.984 . S
N2200 H2213 0.985 . S
N2201 C2203 1.356 . S
N2201 H2206 0.984 . S
N2201 H2207 0.985 . S
C2202 C2196 1.379 . S
C2202 C2199 1.363 . S
C2202 N2200 1.356 . S
C2203 C2197 1.363 . S
C2203 C2198 1.379 . S
C2203 N2201 1.356 . S
N2204 C2196 1.356 . S
N2204 H2210 0.984 . S
N2204 H2211 0.984 . S
N2205 C2198 1.356 . S
N2205 H2208 0.984 . S
N2205 H2209 0.985 . S
H2206 N2201 0.984 . S
H2207 N2201 0.985 . S
H2208 N2205 0.984 . S
H2209 N2205 0.985 . S
H2210 N2204 0.984 . S
H2211 N2204 0.984 . S
H2212 N2200 0.984 . S
H2213 N2200 0.985 . S
C2214 C2215 1.363 . S
C2214 C2220 1.379 . S
C2214 N2222 1.356 . S
C2215 C2214 1.363 . S
C2215 C2221 1.363 . S
C2216 C2217 1.363 . S
C2216 C2221 1.379 . S
C2216 N2223 1.356 . S
C2217 C2216 1.363 . S
C2217 C2220 1.363 . S
N2218 C2220 1.356 . S
N2218 H2230 0.984 . S
N2218 H2231 0.985 . S
N2219 C2221 1.356 . S
N2219 H2224 0.984 . S
N2219 H2225 0.985 . S
C2220 C2214 1.379 . S
C2220 C2217 1.363 . S
C2220 N2218 1.356 . S
C2221 C2215 1.363 . S
C2221 C2216 1.379 . S
C2221 N2219 1.356 . S
N2222 C2214 1.356 . S
N2222 H2228 0.984 . S
N2222 H2229 0.984 . S
N2223 C2216 1.356 . S
N2223 H2226 0.984 . S
N2223 H2227 0.985 . S
H2224 N2219 0.984 . S
H2225 N2219 0.985 . S
H2226 N2223 0.984 . S
H2227 N2223 0.985 . S
H2228 N2222 0.984 . S
H2229 N2222 0.984 . S
H2230 N2218 0.984 . S
H2231 N2218 0.985 . S
C2232 C2233 1.363 . S
C2232 C2238 1.379 . S
C2232 N2240 1.356 . S
C2233 C2232 1.363 . S
C2233 C2239 1.363 . S
C2234 C2235 1.363 . S
C2234 C2239 1.379 . S
C2234 N2241 1.356 . S
C2235 C2234 1.363 . S
C2235 C2238 1.363 . S
N2236 C2238 1.356 . S
N2236 H2248 0.984 . S
N2236 H2249 0.985 . S
N2237 C2239 1.356 . S
N2237 H2242 0.984 . S
N2237 H2243 0.985 . S
C2238 C2232 1.379 . S
C2238 C2235 1.363 . S
C2238 N2236 1.356 . S
C2239 C2233 1.363 . S
C2239 C2234 1.379 . S
C2239 N2237 1.356 . S
N2240 C2232 1.356 . S
N2240 H2246 0.984 . S
N2240 H2247 0.984 . S
N2241 C2234 1.356 . S
N2241 H2244 0.984 . S
N2241 H2245 0.985 . S
H2242 N2237 0.984 . S
H2243 N2237 0.985 . S
H2244 N2241 0.984 . S
H2245 N2241 0.985 . S
H2246 N2240 0.984 . S
H2247 N2240 0.984 . S
H2248 N2236 0.984 . S
H2249 N2236 0.985 . S
C2250 C2251 1.363 . S
C2250 C2256 1.379 . S
C2250 N2258 1.356 . S
C2251 C2250 1.363 . S
C2251 C2257 1.363 . S
C2252 C2253 1.363 . S
C2252 C2257 1.379 . S
C2252 N2259 1.356 . S
C2253 C2252 1.363 . S
C2253 C2256 1.363 . S
N2254 C2256 1.356 . S
N2254 H2266 0.984 . S
N2254 H2267 0.985 . S
N2255 C2257 1.356 . S
N2255 H2260 0.984 . S
N2255 H2261 0.985 . S
C2256 C2250 1.379 . S
C2256 C2253 1.363 . S
C2256 N2254 1.356 . S
C2257 C2251 1.363 . S
C2257 C2252 1.379 . S
C2257 N2255 1.356 . S
N2258 C2250 1.356 . S
N2258 H2264 0.984 . S
N2258 H2265 0.984 . S
N2259 C2252 1.356 . S
N2259 H2262 0.984 . S
N2259 H2263 0.985 . S
H2260 N2255 0.984 . S
H2261 N2255 0.985 . S
H2262 N2259 0.984 . S
H2263 N2259 0.985 . S
H2264 N2258 0.984 . S
H2265 N2258 0.984 . S
H2266 N2254 0.984 . S
H2267 N2254 0.985 . S
C2268 C2269 1.363 . S
C2268 C2274 1.379 . S
C2268 N2276 1.356 . S
C2269 C2268 1.363 . S
C2269 C2275 1.363 . S
C2270 C2271 1.363 . S
C2270 C2275 1.379 . S
C2270 N2277 1.356 . S
C2271 C2270 1.363 . S
C2271 C2274 1.363 . S
N2272 C2274 1.356 . S
N2272 H2284 0.984 . S
N2272 H2285 0.985 . S
N2273 C2275 1.356 . S
N2273 H2278 0.984 . S
N2273 H2279 0.985 . S
C2274 C2268 1.379 . S
C2274 C2271 1.363 . S
C2274 N2272 1.356 . S
C2275 C2269 1.363 . S
C2275 C2270 1.379 . S
C2275 N2273 1.356 . S
N2276 C2268 1.356 . S
N2276 H2282 0.984 . S
N2276 H2283 0.984 . S
N2277 C2270 1.356 . S
N2277 H2280 0.984 . S
N2277 H2281 0.985 . S
H2278 N2273 0.984 . S
H2279 N2273 0.985 . S
H2280 N2277 0.984 . S
H2281 N2277 0.985 . S
H2282 N2276 0.984 . S
H2283 N2276 0.984 . S
H2284 N2272 0.984 . S
H2285 N2272 0.985 . S
C2286 C2287 1.363 . S
C2286 C2292 1.379 . S
C2286 N2294 1.356 . S
C2287 C2286 1.363 . S
C2287 C2293 1.363 . S
C2288 C2289 1.363 . S
C2288 C2293 1.379 . S
C2288 N2295 1.356 . S
C2289 C2288 1.363 . S
C2289 C2292 1.363 . S
N2290 C2292 1.356 . S
N2290 H2302 0.984 . S
N2290 H2303 0.985 . S
N2291 C2293 1.356 . S
N2291 H2296 0.984 . S
N2291 H2297 0.985 . S
C2292 C2286 1.379 . S
C2292 C2289 1.363 . S
C2292 N2290 1.356 . S
C2293 C2287 1.363 . S
C2293 C2288 1.379 . S
C2293 N2291 1.356 . S
N2294 C2286 1.356 . S
N2294 H2300 0.984 . S
N2294 H2301 0.984 . S
N2295 C2288 1.356 . S
N2295 H2298 0.984 . S
N2295 H2299 0.985 . S
H2296 N2291 0.984 . S
H2297 N2291 0.985 . S
H2298 N2295 0.984 . S
H2299 N2295 0.985 . S
H2300 N2294 0.984 . S
H2301 N2294 0.984 . S
H2302 N2290 0.984 . S
H2303 N2290 0.985 . S
C2304 C2305 1.363 . S
C2304 C2310 1.379 . S
C2304 N2312 1.356 . S
C2305 C2304 1.363 . S
C2305 C2311 1.363 . S
C2306 C2307 1.363 . S
C2306 C2311 1.379 . S
C2306 N2313 1.356 . S
C2307 C2306 1.363 . S
C2307 C2310 1.363 . S
N2308 C2310 1.356 . S
N2308 H2320 0.984 . S
N2308 H2321 0.985 . S
N2309 C2311 1.356 . S
N2309 H2314 0.984 . S
N2309 H2315 0.985 . S
C2310 C2304 1.379 . S
C2310 C2307 1.363 . S
C2310 N2308 1.356 . S
C2311 C2305 1.363 . S
C2311 C2306 1.379 . S
C2311 N2309 1.356 . S
N2312 C2304 1.356 . S
N2312 H2318 0.984 . S
N2312 H2319 0.984 . S
N2313 C2306 1.356 . S
N2313 H2316 0.984 . S
N2313 H2317 0.985 . S
H2314 N2309 0.984 . S
H2315 N2309 0.985 . S
H2316 N2313 0.984 . S
H2317 N2313 0.985 . S
H2318 N2312 0.984 . S
H2319 N2312 0.984 . S
H2320 N2308 0.984 . S
H2321 N2308 0.985 . S
C2322 C2323 1.363 . S
C2322 C2328 1.379 . S
C2322 N2330 1.356 . S
C2323 C2322 1.363 . S
C2323 C2329 1.363 . S
C2324 C2325 1.363 . S
C2324 C2329 1.379 . S
C2324 N2331 1.356 . S
C2325 C2324 1.363 . S
C2325 C2328 1.363 . S
N2326 C2328 1.356 . S
N2326 H2338 0.984 . S
N2326 H2339 0.985 . S
N2327 C2329 1.356 . S
N2327 H2332 0.984 . S
N2327 H2333 0.985 . S
C2328 C2322 1.379 . S
C2328 C2325 1.363 . S
C2328 N2326 1.356 . S
C2329 C2323 1.363 . S
C2329 C2324 1.379 . S
C2329 N2327 1.356 . S
N2330 C2322 1.356 . S
N2330 H2336 0.984 . S
N2330 H2337 0.984 . S
N2331 C2324 1.356 . S
N2331 H2334 0.984 . S
N2331 H2335 0.985 . S
H2332 N2327 0.984 . S
H2333 N2327 0.985 . S
H2334 N2331 0.984 . S
H2335 N2331 0.985 . S
H2336 N2330 0.984 . S
H2337 N2330 0.984 . S
H2338 N2326 0.984 . S
H2339 N2326 0.985 . S
C2340 C2341 1.363 . S
C2340 C2346 1.379 . S
C2340 N2348 1.356 . S
C2341 C2340 1.363 . S
C2341 C2347 1.363 . S
C2342 C2343 1.363 . S
C2342 C2347 1.379 . S
C2342 N2349 1.356 . S
C2343 C2342 1.363 . S
C2343 C2346 1.363 . S
N2344 C2346 1.356 . S
N2344 H2356 0.984 . S
N2344 H2357 0.985 . S
N2345 C2347 1.356 . S
N2345 H2350 0.984 . S
N2345 H2351 0.985 . S
C2346 C2340 1.379 . S
C2346 C2343 1.363 . S
C2346 N2344 1.356 . S
C2347 C2341 1.363 . S
C2347 C2342 1.379 . S
C2347 N2345 1.356 . S
N2348 C2340 1.356 . S
N2348 H2354 0.984 . S
N2348 H2355 0.984 . S
N2349 C2342 1.356 . S
N2349 H2352 0.984 . S
N2349 H2353 0.985 . S
H2350 N2345 0.984 . S
H2351 N2345 0.985 . S
H2352 N2349 0.984 . S
H2353 N2349 0.985 . S
H2354 N2348 0.984 . S
H2355 N2348 0.984 . S
H2356 N2344 0.984 . S
H2357 N2344 0.985 . S
C2358 C2359 1.363 . S
C2358 C2364 1.379 . S
C2358 N2366 1.356 . S
C2359 C2358 1.363 . S
C2359 C2365 1.363 . S
C2360 C2361 1.363 . S
C2360 C2365 1.379 . S
C2360 N2367 1.356 . S
C2361 C2360 1.363 . S
C2361 C2364 1.363 . S
N2362 C2364 1.356 . S
N2362 H2374 0.984 . S
N2362 H2375 0.985 . S
N2363 C2365 1.356 . S
N2363 H2368 0.984 . S
N2363 H2369 0.985 . S
C2364 C2358 1.379 . S
C2364 C2361 1.363 . S
C2364 N2362 1.356 . S
C2365 C2359 1.363 . S
C2365 C2360 1.379 . S
C2365 N2363 1.356 . S
N2366 C2358 1.356 . S
N2366 H2372 0.984 . S
N2366 H2373 0.984 . S
N2367 C2360 1.356 . S
N2367 H2370 0.984 . S
N2367 H2371 0.985 . S
H2368 N2363 0.984 . S
H2369 N2363 0.985 . S
H2370 N2367 0.984 . S
H2371 N2367 0.985 . S
H2372 N2366 0.984 . S
H2373 N2366 0.984 . S
H2374 N2362 0.984 . S
H2375 N2362 0.985 . S
C2376 C2377 1.363 . S
C2376 C2382 1.379 . S
C2376 N2384 1.356 . S
C2377 C2376 1.363 . S
C2377 C2383 1.363 . S
C2378 C2379 1.363 . S
C2378 C2383 1.379 . S
C2378 N2385 1.356 . S
C2379 C2378 1.363 . S
C2379 C2382 1.363 . S
N2380 C2382 1.356 . S
N2380 H2392 0.984 . S
N2380 H2393 0.985 . S
N2381 C2383 1.356 . S
N2381 H2386 0.984 . S
N2381 H2387 0.985 . S
C2382 C2376 1.379 . S
C2382 C2379 1.363 . S
C2382 N2380 1.356 . S
C2383 C2377 1.363 . S
C2383 C2378 1.379 . S
C2383 N2381 1.356 . S
N2384 C2376 1.356 . S
N2384 H2390 0.984 . S
N2384 H2391 0.984 . S
N2385 C2378 1.356 . S
N2385 H2388 0.984 . S
N2385 H2389 0.985 . S
H2386 N2381 0.984 . S
H2387 N2381 0.985 . S
H2388 N2385 0.984 . S
H2389 N2385 0.985 . S
H2390 N2384 0.984 . S
H2391 N2384 0.984 . S
H2392 N2380 0.984 . S
H2393 N2380 0.985 . S
C2394 C2395 1.363 . S
C2394 C2400 1.379 . S
C2394 N2402 1.356 . S
C2395 C2394 1.363 . S
C2395 C2401 1.363 . S
C2396 C2397 1.363 . S
C2396 C2401 1.379 . S
C2396 N2403 1.356 . S
C2397 C2396 1.363 . S
C2397 C2400 1.363 . S
N2398 C2400 1.356 . S
N2398 H2410 0.984 . S
N2398 H2411 0.985 . S
N2399 C2401 1.356 . S
N2399 H2404 0.984 . S
N2399 H2405 0.985 . S
C2400 C2394 1.379 . S
C2400 C2397 1.363 . S
C2400 N2398 1.356 . S
C2401 C2395 1.363 . S
C2401 C2396 1.379 . S
C2401 N2399 1.356 . S
N2402 C2394 1.356 . S
N2402 H2408 0.984 . S
N2402 H2409 0.984 . S
N2403 C2396 1.356 . S
N2403 H2406 0.984 . S
N2403 H2407 0.985 . S
H2404 N2399 0.984 . S
H2405 N2399 0.985 . S
H2406 N2403 0.984 . S
H2407 N2403 0.985 . S
H2408 N2402 0.984 . S
H2409 N2402 0.984 . S
H2410 N2398 0.984 . S
H2411 N2398 0.985 . S
C2412 C2413 1.363 . S
C2412 C2418 1.379 . S
C2412 N2420 1.356 . S
C2413 C2412 1.363 . S
C2413 C2419 1.363 . S
C2414 C2415 1.363 . S
C2414 C2419 1.379 . S
C2414 N2421 1.356 . S
C2415 C2414 1.363 . S
C2415 C2418 1.363 . S
N2416 C2418 1.356 . S
N2416 H2428 0.984 . S
N2416 H2429 0.985 . S
N2417 C2419 1.356 . S
N2417 H2422 0.984 . S
N2417 H2423 0.985 . S
C2418 C2412 1.379 . S
C2418 C2415 1.363 . S
C2418 N2416 1.356 . S
C2419 C2413 1.363 . S
C2419 C2414 1.379 . S
C2419 N2417 1.356 . S
N2420 C2412 1.356 . S
N2420 H2426 0.984 . S
N2420 H2427 0.984 . S
N2421 C2414 1.356 . S
N2421 H2424 0.984 . S
N2421 H2425 0.985 . S
H2422 N2417 0.984 . S
H2423 N2417 0.985 . S
H2424 N2421 0.984 . S
H2425 N2421 0.985 . S
H2426 N2420 0.984 . S
H2427 N2420 0.984 . S
H2428 N2416 0.984 . S
H2429 N2416 0.985 . S
C2430 C2431 1.363 . S
C2430 C2436 1.379 . S
C2430 N2438 1.356 . S
C2431 C2430 1.363 . S
C2431 C2437 1.363 . S
C2432 C2433 1.363 . S
C2432 C2437 1.379 . S
C2432 N2439 1.356 . S
C2433 C2432 1.363 . S
C2433 C2436 1.363 . S
N2434 C2436 1.356 . S
N2434 H2446 0.984 . S
N2434 H2447 0.985 . S
N2435 C2437 1.356 . S
N2435 H2440 0.984 . S
N2435 H2441 0.985 . S
C2436 C2430 1.379 . S
C2436 C2433 1.363 . S
C2436 N2434 1.356 . S
C2437 C2431 1.363 . S
C2437 C2432 1.379 . S
C2437 N2435 1.356 . S
N2438 C2430 1.356 . S
N2438 H2444 0.984 . S
N2438 H2445 0.984 . S
N2439 C2432 1.356 . S
N2439 H2442 0.984 . S
N2439 H2443 0.985 . S
H2440 N2435 0.984 . S
H2441 N2435 0.985 . S
H2442 N2439 0.984 . S
H2443 N2439 0.985 . S
H2444 N2438 0.984 . S
H2445 N2438 0.984 . S
H2446 N2434 0.984 . S
H2447 N2434 0.985 . S
C2448 C2449 1.363 . S
C2448 C2454 1.379 . S
C2448 N2456 1.356 . S
C2449 C2448 1.363 . S
C2449 C2455 1.363 . S
C2450 C2451 1.363 . S
C2450 C2455 1.379 . S
C2450 N2457 1.356 . S
C2451 C2450 1.363 . S
C2451 C2454 1.363 . S
N2452 C2454 1.356 . S
N2452 H2464 0.984 . S
N2452 H2465 0.985 . S
N2453 C2455 1.356 . S
N2453 H2458 0.984 . S
N2453 H2459 0.985 . S
C2454 C2448 1.379 . S
C2454 C2451 1.363 . S
C2454 N2452 1.356 . S
C2455 C2449 1.363 . S
C2455 C2450 1.379 . S
C2455 N2453 1.356 . S
N2456 C2448 1.356 . S
N2456 H2462 0.984 . S
N2456 H2463 0.984 . S
N2457 C2450 1.356 . S
N2457 H2460 0.984 . S
N2457 H2461 0.985 . S
H2458 N2453 0.984 . S
H2459 N2453 0.985 . S
H2460 N2457 0.984 . S
H2461 N2457 0.985 . S
H2462 N2456 0.984 . S
H2463 N2456 0.984 . S
H2464 N2452 0.984 . S
H2465 N2452 0.985 . S
C2466 C2467 1.363 . S
C2466 C2472 1.379 . S
C2466 N2474 1.356 . S
C2467 C2466 1.363 . S
C2467 C2473 1.363 . S
C2468 C2469 1.363 . S
C2468 C2473 1.379 . S
C2468 N2475 1.356 . S
C2469 C2468 1.363 . S
C2469 C2472 1.363 . S
N2470 C2472 1.356 . S
N2470 H2482 0.984 . S
N2470 H2483 0.985 . S
N2471 C2473 1.356 . S
N2471 H2476 0.984 . S
N2471 H2477 0.985 . S
C2472 C2466 1.379 . S
C2472 C2469 1.363 . S
C2472 N2470 1.356 . S
C2473 C2467 1.363 . S
C2473 C2468 1.379 . S
C2473 N2471 1.356 . S
N2474 C2466 1.356 . S
N2474 H2480 0.984 . S
N2474 H2481 0.984 . S
N2475 C2468 1.356 . S
N2475 H2478 0.984 . S
N2475 H2479 0.985 . S
H2476 N2471 0.984 . S
H2477 N2471 0.985 . S
H2478 N2475 0.984 . S
H2479 N2475 0.985 . S
H2480 N2474 0.984 . S
H2481 N2474 0.984 . S
H2482 N2470 0.984 . S
H2483 N2470 0.985 . S
C2484 C2485 1.363 . S
C2484 C2490 1.379 . S
C2484 N2492 1.356 . S
C2485 C2484 1.363 . S
C2485 C2491 1.363 . S
C2486 C2487 1.363 . S
C2486 C2491 1.379 . S
C2486 N2493 1.356 . S
C2487 C2486 1.363 . S
C2487 C2490 1.363 . S
N2488 C2490 1.356 . S
N2488 H2500 0.984 . S
N2488 H2501 0.985 . S
N2489 C2491 1.356 . S
N2489 H2494 0.984 . S
N2489 H2495 0.985 . S
C2490 C2484 1.379 . S
C2490 C2487 1.363 . S
C2490 N2488 1.356 . S
C2491 C2485 1.363 . S
C2491 C2486 1.379 . S
C2491 N2489 1.356 . S
N2492 C2484 1.356 . S
N2492 H2498 0.984 . S
N2492 H2499 0.984 . S
N2493 C2486 1.356 . S
N2493 H2496 0.984 . S
N2493 H2497 0.985 . S
H2494 N2489 0.984 . S
H2495 N2489 0.985 . S
H2496 N2493 0.984 . S
H2497 N2493 0.985 . S
H2498 N2492 0.984 . S
H2499 N2492 0.984 . S
H2500 N2488 0.984 . S
H2501 N2488 0.985 . S
C2502 C2503 1.363 . S
C2502 C2508 1.379 . S
C2502 N2510 1.356 . S
C2503 C2502 1.363 . S
C2503 C2509 1.363 . S
C2504 C2505 1.363 . S
C2504 C2509 1.379 . S
C2504 N2511 1.356 . S
C2505 C2504 1.363 . S
C2505 C2508 1.363 . S
N2506 C2508 1.356 . S
N2506 H2518 0.984 . S
N2506 H2519 0.985 . S
N2507 C2509 1.356 . S
N2507 H2512 0.984 . S
N2507 H2513 0.985 . S
C2508 C2502 1.379 . S
C2508 C2505 1.363 . S
C2508 N2506 1.356 . S
C2509 C2503 1.363 . S
C2509 C2504 1.379 . S
C2509 N2507 1.356 . S
N2510 C2502 1.356 . S
N2510 H2516 0.984 . S
N2510 H2517 0.984 . S
N2511 C2504 1.356 . S
N2511 H2514 0.984 . S
N2511 H2515 0.985 . S
H2512 N2507 0.984 . S
H2513 N2507 0.985 . S
H2514 N2511 0.984 . S
H2515 N2511 0.985 . S
H2516 N2510 0.984 . S
H2517 N2510 0.984 . S
H2518 N2506 0.984 . S
H2519 N2506 0.985 . S
C2520 C2521 1.363 . S
C2520 C2526 1.379 . S
C2520 N2528 1.356 . S
C2521 C2520 1.363 . S
C2521 C2527 1.363 . S
C2522 C2523 1.363 . S
C2522 C2527 1.379 . S
C2522 N2529 1.356 . S
C2523 C2522 1.363 . S
C2523 C2526 1.363 . S
N2524 C2526 1.356 . S
N2524 H2536 0.984 . S
N2524 H2537 0.985 . S
N2525 C2527 1.356 . S
N2525 H2530 0.984 . S
N2525 H2531 0.985 . S
C2526 C2520 1.379 . S
C2526 C2523 1.363 . S
C2526 N2524 1.356 . S
C2527 C2521 1.363 . S
C2527 C2522 1.379 . S
C2527 N2525 1.356 . S
N2528 C2520 1.356 . S
N2528 H2534 0.984 . S
N2528 H2535 0.984 . S
N2529 C2522 1.356 . S
N2529 H2532 0.984 . S
N2529 H2533 0.985 . S
H2530 N2525 0.984 . S
H2531 N2525 0.985 . S
H2532 N2529 0.984 . S
H2533 N2529 0.985 . S
H2534 N2528 0.984 . S
H2535 N2528 0.984 . S
H2536 N2524 0.984 . S
H2537 N2524 0.985 . S
C2538 C2539 1.363 . S
C2538 C2544 1.379 . S
C2538 N2546 1.356 . S
C2539 C2538 1.363 . S
C2539 C2545 1.363 . S
C2540 C2541 1.363 . S
C2540 C2545 1.379 . S
C2540 N2547 1.356 . S
C2541 C2540 1.363 . S
C2541 C2544 1.363 . S
N2542 C2544 1.356 . S
N2542 H2554 0.984 . S
N2542 H2555 0.985 . S
N2543 C2545 1.356 . S
N2543 H2548 0.984 . S
N2543 H2549 0.985 . S
C2544 C2538 1.379 . S
C2544 C2541 1.363 . S
C2544 N2542 1.356 . S
C2545 C2539 1.363 . S
C2545 C2540 1.379 . S
C2545 N2543 1.356 . S
N2546 C2538 1.356 . S
N2546 H2552 0.984 . S
N2546 H2553 0.984 . S
N2547 C2540 1.356 . S
N2547 H2550 0.984 . S
N2547 H2551 0.985 . S
H2548 N2543 0.984 . S
H2549 N2543 0.985 . S
H2550 N2547 0.984 . S
H2551 N2547 0.985 . S
H2552 N2546 0.984 . S
H2553 N2546 0.984 . S
H2554 N2542 0.984 . S
H2555 N2542 0.985 . S
C2556 C2557 1.363 . S
C2556 C2562 1.379 . S
C2556 N2564 1.356 . S
C2557 C2556 1.363 . S
C2557 C2563 1.363 . S
C2558 C2559 1.363 . S
C2558 C2563 1.379 . S
C2558 N2565 1.356 . S
C2559 C2558 1.363 . S
C2559 C2562 1.363 . S
N2560 C2562 1.356 . S
N2560 H2572 0.984 . S
N2560 H2573 0.985 . S
N2561 C2563 1.356 . S
N2561 H2566 0.984 . S
N2561 H2567 0.985 . S
C2562 C2556 1.379 . S
C2562 C2559 1.363 . S
C2562 N2560 1.356 . S
C2563 C2557 1.363 . S
C2563 C2558 1.379 . S
C2563 N2561 1.356 . S
N2564 C2556 1.356 . S
N2564 H2570 0.984 . S
N2564 H2571 0.984 . S
N2565 C2558 1.356 . S
N2565 H2568 0.984 . S
N2565 H2569 0.985 . S
H2566 N2561 0.984 . S
H2567 N2561 0.985 . S
H2568 N2565 0.984 . S
H2569 N2565 0.985 . S
H2570 N2564 0.984 . S
H2571 N2564 0.984 . S
H2572 N2560 0.984 . S
H2573 N2560 0.985 . S
C2574 C2575 1.363 . S
C2574 C2580 1.379 . S
C2574 N2582 1.356 . S
C2575 C2574 1.363 . S
C2575 C2581 1.363 . S
C2576 C2577 1.363 . S
C2576 C2581 1.379 . S
C2576 N2583 1.356 . S
C2577 C2576 1.363 . S
C2577 C2580 1.363 . S
N2578 C2580 1.356 . S
N2578 H2590 0.984 . S
N2578 H2591 0.985 . S
N2579 C2581 1.356 . S
N2579 H2584 0.984 . S
N2579 H2585 0.985 . S
C2580 C2574 1.379 . S
C2580 C2577 1.363 . S
C2580 N2578 1.356 . S
C2581 C2575 1.363 . S
C2581 C2576 1.379 . S
C2581 N2579 1.356 . S
N2582 C2574 1.356 . S
N2582 H2588 0.984 . S
N2582 H2589 0.984 . S
N2583 C2576 1.356 . S
N2583 H2586 0.984 . S
N2583 H2587 0.985 . S
H2584 N2579 0.984 . S
H2585 N2579 0.985 . S
H2586 N2583 0.984 . S
H2587 N2583 0.985 . S
H2588 N2582 0.984 . S
H2589 N2582 0.984 . S
H2590 N2578 0.984 . S
H2591 N2578 0.985 . S
C2592 C2593 1.363 . S
C2592 C2598 1.379 . S
C2592 N2600 1.356 . S
C2593 C2592 1.363 . S
C2593 C2599 1.363 . S
C2594 C2595 1.363 . S
C2594 C2599 1.379 . S
C2594 N2601 1.356 . S
C2595 C2594 1.363 . S
C2595 C2598 1.363 . S
N2596 C2598 1.356 . S
N2596 H2608 0.984 . S
N2596 H2609 0.985 . S
N2597 C2599 1.356 . S
N2597 H2602 0.984 . S
N2597 H2603 0.985 . S
C2598 C2592 1.379 . S
C2598 C2595 1.363 . S
C2598 N2596 1.356 . S
C2599 C2593 1.363 . S
C2599 C2594 1.379 . S
C2599 N2597 1.356 . S
N2600 C2592 1.356 . S
N2600 H2606 0.984 . S
N2600 H2607 0.984 . S
N2601 C2594 1.356 . S
N2601 H2604 0.984 . S
N2601 H2605 0.985 . S
H2602 N2597 0.984 . S
H2603 N2597 0.985 . S
H2604 N2601 0.984 . S
H2605 N2601 0.985 . S
H2606 N2600 0.984 . S
H2607 N2600 0.984 . S
H2608 N2596 0.984 . S
H2609 N2596 0.985 . S
C2610 C2611 1.363 . S
C2610 C2616 1.379 . S
C2610 N2618 1.356 . S
C2611 C2610 1.363 . S
C2611 C2617 1.363 . S
C2612 C2613 1.363 . S
C2612 C2617 1.379 . S
C2612 N2619 1.356 . S
C2613 C2612 1.363 . S
C2613 C2616 1.363 . S
N2614 C2616 1.356 . S
N2614 H2626 0.984 . S
N2614 H2627 0.985 . S
N2615 C2617 1.356 . S
N2615 H2620 0.984 . S
N2615 H2621 0.985 . S
C2616 C2610 1.379 . S
C2616 C2613 1.363 . S
C2616 N2614 1.356 . S
C2617 C2611 1.363 . S
C2617 C2612 1.379 . S
C2617 N2615 1.356 . S
N2618 C2610 1.356 . S
N2618 H2624 0.984 . S
N2618 H2625 0.984 . S
N2619 C2612 1.356 . S
N2619 H2622 0.984 . S
N2619 H2623 0.985 . S
H2620 N2615 0.984 . S
H2621 N2615 0.985 . S
H2622 N2619 0.984 . S
H2623 N2619 0.985 . S
H2624 N2618 0.984 . S
H2625 N2618 0.984 . S
H2626 N2614 0.984 . S
H2627 N2614 0.985 . S
C2628 C2629 1.363 . S
C2628 C2634 1.379 . S
C2628 N2636 1.356 . S
C2629 C2628 1.363 . S
C2629 C2635 1.363 . S
C2630 C2631 1.363 . S
C2630 C2635 1.379 . S
C2630 N2637 1.356 . S
C2631 C2630 1.363 . S
C2631 C2634 1.363 . S
N2632 C2634 1.356 . S
N2632 H2644 0.984 . S
N2632 H2645 0.985 . S
N2633 C2635 1.356 . S
N2633 H2638 0.984 . S
N2633 H2639 0.985 . S
C2634 C2628 1.379 . S
C2634 C2631 1.363 . S
C2634 N2632 1.356 . S
C2635 C2629 1.363 . S
C2635 C2630 1.379 . S
C2635 N2633 1.356 . S
N2636 C2628 1.356 . S
N2636 H2642 0.984 . S
N2636 H2643 0.984 . S
N2637 C2630 1.356 . S
N2637 H2640 0.984 . S
N2637 H2641 0.985 . S
H2638 N2633 0.984 . S
H2639 N2633 0.985 . S
H2640 N2637 0.984 . S
H2641 N2637 0.985 . S
H2642 N2636 0.984 . S
H2643 N2636 0.984 . S
H2644 N2632 0.984 . S
H2645 N2632 0.985 . S
C2646 C2647 1.363 . S
C2646 C2652 1.379 . S
C2646 N2654 1.356 . S
C2647 C2646 1.363 . S
C2647 C2653 1.363 . S
C2648 C2649 1.363 . S
C2648 C2653 1.379 . S
C2648 N2655 1.356 . S
C2649 C2648 1.363 . S
C2649 C2652 1.363 . S
N2650 C2652 1.356 . S
N2650 H2662 0.984 . S
N2650 H2663 0.985 . S
N2651 C2653 1.356 . S
N2651 H2656 0.984 . S
N2651 H2657 0.985 . S
C2652 C2646 1.379 . S
C2652 C2649 1.363 . S
C2652 N2650 1.356 . S
C2653 C2647 1.363 . S
C2653 C2648 1.379 . S
C2653 N2651 1.356 . S
N2654 C2646 1.356 . S
N2654 H2660 0.984 . S
N2654 H2661 0.984 . S
N2655 C2648 1.356 . S
N2655 H2658 0.984 . S
N2655 H2659 0.985 . S
H2656 N2651 0.984 . S
H2657 N2651 0.985 . S
H2658 N2655 0.984 . S
H2659 N2655 0.985 . S
H2660 N2654 0.984 . S
H2661 N2654 0.984 . S
H2662 N2650 0.984 . S
H2663 N2650 0.985 . S
C2664 C2665 1.363 . S
C2664 C2670 1.379 . S
C2664 N2672 1.356 . S
C2665 C2664 1.363 . S
C2665 C2671 1.363 . S
C2666 C2667 1.363 . S
C2666 C2671 1.379 . S
C2666 N2673 1.356 . S
C2667 C2666 1.363 . S
C2667 C2670 1.363 . S
N2668 C2670 1.356 . S
N2668 H2680 0.984 . S
N2668 H2681 0.985 . S
N2669 C2671 1.356 . S
N2669 H2674 0.984 . S
N2669 H2675 0.985 . S
C2670 C2664 1.379 . S
C2670 C2667 1.363 . S
C2670 N2668 1.356 . S
C2671 C2665 1.363 . S
C2671 C2666 1.379 . S
C2671 N2669 1.356 . S
N2672 C2664 1.356 . S
N2672 H2678 0.984 . S
N2672 H2679 0.984 . S
N2673 C2666 1.356 . S
N2673 H2676 0.984 . S
N2673 H2677 0.985 . S
H2674 N2669 0.984 . S
H2675 N2669 0.985 . S
H2676 N2673 0.984 . S
H2677 N2673 0.985 . S
H2678 N2672 0.984 . S
H2679 N2672 0.984 . S
H2680 N2668 0.984 . S
H2681 N2668 0.985 . S
C2682 C2683 1.363 . S
C2682 C2688 1.379 . S
C2682 N2690 1.356 . S
C2683 C2682 1.363 . S
C2683 C2689 1.363 . S
C2684 C2685 1.363 . S
C2684 C2689 1.379 . S
C2684 N2691 1.356 . S
C2685 C2684 1.363 . S
C2685 C2688 1.363 . S
N2686 C2688 1.356 . S
N2686 H2698 0.984 . S
N2686 H2699 0.985 . S
N2687 C2689 1.356 . S
N2687 H2692 0.984 . S
N2687 H2693 0.985 . S
C2688 C2682 1.379 . S
C2688 C2685 1.363 . S
C2688 N2686 1.356 . S
C2689 C2683 1.363 . S
C2689 C2684 1.379 . S
C2689 N2687 1.356 . S
N2690 C2682 1.356 . S
N2690 H2696 0.984 . S
N2690 H2697 0.984 . S
N2691 C2684 1.356 . S
N2691 H2694 0.984 . S
N2691 H2695 0.985 . S
H2692 N2687 0.984 . S
H2693 N2687 0.985 . S
H2694 N2691 0.984 . S
H2695 N2691 0.985 . S
H2696 N2690 0.984 . S
H2697 N2690 0.984 . S
H2698 N2686 0.984 . S
H2699 N2686 0.985 . S
C2700 C2701 1.363 . S
C2700 C2706 1.379 . S
C2700 N2708 1.356 . S
C2701 C2700 1.363 . S
C2701 C2707 1.363 . S
C2702 C2703 1.363 . S
C2702 C2707 1.379 . S
C2702 N2709 1.356 . S
C2703 C2702 1.363 . S
C2703 C2706 1.363 . S
N2704 C2706 1.356 . S
N2704 H2716 0.984 . S
N2704 H2717 0.985 . S
N2705 C2707 1.356 . S
N2705 H2710 0.984 . S
N2705 H2711 0.985 . S
C2706 C2700 1.379 . S
C2706 C2703 1.363 . S
C2706 N2704 1.356 . S
C2707 C2701 1.363 . S
C2707 C2702 1.379 . S
C2707 N2705 1.356 . S
N2708 C2700 1.356 . S
N2708 H2714 0.984 . S
N2708 H2715 0.984 . S
N2709 C2702 1.356 . S
N2709 H2712 0.984 . S
N2709 H2713 0.985 . S
H2710 N2705 0.984 . S
H2711 N2705 0.985 . S
H2712 N2709 0.984 . S
H2713 N2709 0.985 . S
H2714 N2708 0.984 . S
H2715 N2708 0.984 . S
H2716 N2704 0.984 . S
H2717 N2704 0.985 . S
C2718 C2719 1.363 . S
C2718 C2724 1.379 . S
C2718 N2726 1.356 . S
C2719 C2718 1.363 . S
C2719 C2725 1.363 . S
C2720 C2721 1.363 . S
C2720 C2725 1.379 . S
C2720 N2727 1.356 . S
C2721 C2720 1.363 . S
C2721 C2724 1.363 . S
N2722 C2724 1.356 . S
N2722 H2734 0.984 . S
N2722 H2735 0.985 . S
N2723 C2725 1.356 . S
N2723 H2728 0.984 . S
N2723 H2729 0.985 . S
C2724 C2718 1.379 . S
C2724 C2721 1.363 . S
C2724 N2722 1.356 . S
C2725 C2719 1.363 . S
C2725 C2720 1.379 . S
C2725 N2723 1.356 . S
N2726 C2718 1.356 . S
N2726 H2732 0.984 . S
N2726 H2733 0.984 . S
N2727 C2720 1.356 . S
N2727 H2730 0.984 . S
N2727 H2731 0.985 . S
H2728 N2723 0.984 . S
H2729 N2723 0.985 . S
H2730 N2727 0.984 . S
H2731 N2727 0.985 . S
H2732 N2726 0.984 . S
H2733 N2726 0.984 . S
H2734 N2722 0.984 . S
H2735 N2722 0.985 . S
C2736 C2737 1.363 . S
C2736 C2742 1.379 . S
C2736 N2744 1.356 . S
C2737 C2736 1.363 . S
C2737 C2743 1.363 . S
C2738 C2739 1.363 . S
C2738 C2743 1.379 . S
C2738 N2745 1.356 . S
C2739 C2738 1.363 . S
C2739 C2742 1.363 . S
N2740 C2742 1.356 . S
N2740 H2752 0.984 . S
N2740 H2753 0.985 . S
N2741 C2743 1.356 . S
N2741 H2746 0.984 . S
N2741 H2747 0.985 . S
C2742 C2736 1.379 . S
C2742 C2739 1.363 . S
C2742 N2740 1.356 . S
C2743 C2737 1.363 . S
C2743 C2738 1.379 . S
C2743 N2741 1.356 . S
N2744 C2736 1.356 . S
N2744 H2750 0.984 . S
N2744 H2751 0.984 . S
N2745 C2738 1.356 . S
N2745 H2748 0.984 . S
N2745 H2749 0.985 . S
H2746 N2741 0.984 . S
H2747 N2741 0.985 . S
H2748 N2745 0.984 . S
H2749 N2745 0.985 . S
H2750 N2744 0.984 . S
H2751 N2744 0.984 . S
H2752 N2740 0.984 . S
H2753 N2740 0.985 . S
C2754 C2755 1.363 . S
C2754 C2760 1.379 . S
C2754 N2762 1.356 . S
C2755 C2754 1.363 . S
C2755 C2761 1.363 . S
C2756 C2757 1.363 . S
C2756 C2761 1.379 . S
C2756 N2763 1.356 . S
C2757 C2756 1.363 . S
C2757 C2760 1.363 . S
N2758 C2760 1.356 . S
N2758 H2770 0.984 . S
N2758 H2771 0.985 . S
N2759 C2761 1.356 . S
N2759 H2764 0.984 . S
N2759 H2765 0.985 . S
C2760 C2754 1.379 . S
C2760 C2757 1.363 . S
C2760 N2758 1.356 . S
C2761 C2755 1.363 . S
C2761 C2756 1.379 . S
C2761 N2759 1.356 . S
N2762 C2754 1.356 . S
N2762 H2768 0.984 . S
N2762 H2769 0.984 . S
N2763 C2756 1.356 . S
N2763 H2766 0.984 . S
N2763 H2767 0.985 . S
H2764 N2759 0.984 . S
H2765 N2759 0.985 . S
H2766 N2763 0.984 . S
H2767 N2763 0.985 . S
H2768 N2762 0.984 . S
H2769 N2762 0.984 . S
H2770 N2758 0.984 . S
H2771 N2758 0.985 . S
C2772 C2773 1.363 . S
C2772 C2778 1.379 . S
C2772 N2780 1.356 . S
C2773 C2772 1.363 . S
C2773 C2779 1.363 . S
C2774 C2775 1.363 . S
C2774 C2779 1.379 . S
C2774 N2781 1.356 . S
C2775 C2774 1.363 . S
C2775 C2778 1.363 . S
N2776 C2778 1.356 . S
N2776 H2788 0.984 . S
N2776 H2789 0.985 . S
N2777 C2779 1.356 . S
N2777 H2782 0.984 . S
N2777 H2783 0.985 . S
C2778 C2772 1.379 . S
C2778 C2775 1.363 . S
C2778 N2776 1.356 . S
C2779 C2773 1.363 . S
C2779 C2774 1.379 . S
C2779 N2777 1.356 . S
N2780 C2772 1.356 . S
N2780 H2786 0.984 . S
N2780 H2787 0.984 . S
N2781 C2774 1.356 . S
N2781 H2784 0.984 . S
N2781 H2785 0.985 . S
H2782 N2777 0.984 . S
H2783 N2777 0.985 . S
H2784 N2781 0.984 . S
H2785 N2781 0.985 . S
H2786 N2780 0.984 . S
H2787 N2780 0.984 . S
H2788 N2776 0.984 . S
H2789 N2776 0.985 . S
C2790 C2791 1.363 . S
C2790 C2796 1.379 . S
C2790 N2798 1.356 . S
C2791 C2790 1.363 . S
C2791 C2797 1.363 . S
C2792 C2793 1.363 . S
C2792 C2797 1.379 . S
C2792 N2799 1.356 . S
C2793 C2792 1.363 . S
C2793 C2796 1.363 . S
N2794 C2796 1.356 . S
N2794 H2806 0.984 . S
N2794 H2807 0.985 . S
N2795 C2797 1.356 . S
N2795 H2800 0.984 . S
N2795 H2801 0.985 . S
C2796 C2790 1.379 . S
C2796 C2793 1.363 . S
C2796 N2794 1.356 . S
C2797 C2791 1.363 . S
C2797 C2792 1.379 . S
C2797 N2795 1.356 . S
N2798 C2790 1.356 . S
N2798 H2804 0.984 . S
N2798 H2805 0.984 . S
N2799 C2792 1.356 . S
N2799 H2802 0.984 . S
N2799 H2803 0.985 . S
H2800 N2795 0.984 . S
H2801 N2795 0.985 . S
H2802 N2799 0.984 . S
H2803 N2799 0.985 . S
H2804 N2798 0.984 . S
H2805 N2798 0.984 . S
H2806 N2794 0.984 . S
H2807 N2794 0.985 . S
C2808 C2809 1.363 . S
C2808 C2814 1.379 . S
C2808 N2816 1.356 . S
C2809 C2808 1.363 . S
C2809 C2815 1.363 . S
C2810 C2811 1.363 . S
C2810 C2815 1.379 . S
C2810 N2817 1.356 . S
C2811 C2810 1.363 . S
C2811 C2814 1.363 . S
N2812 C2814 1.356 . S
N2812 H2824 0.984 . S
N2812 H2825 0.985 . S
N2813 C2815 1.356 . S
N2813 H2818 0.984 . S
N2813 H2819 0.985 . S
C2814 C2808 1.379 . S
C2814 C2811 1.363 . S
C2814 N2812 1.356 . S
C2815 C2809 1.363 . S
C2815 C2810 1.379 . S
C2815 N2813 1.356 . S
N2816 C2808 1.356 . S
N2816 H2822 0.984 . S
N2816 H2823 0.984 . S
N2817 C2810 1.356 . S
N2817 H2820 0.984 . S
N2817 H2821 0.985 . S
H2818 N2813 0.984 . S
H2819 N2813 0.985 . S
H2820 N2817 0.984 . S
H2821 N2817 0.985 . S
H2822 N2816 0.984 . S
H2823 N2816 0.984 . S
H2824 N2812 0.984 . S
H2825 N2812 0.985 . S
C2826 C2827 1.363 . S
C2826 C2832 1.379 . S
C2826 N2834 1.356 . S
C2827 C2826 1.363 . S
C2827 C2833 1.363 . S
C2828 C2829 1.363 . S
C2828 C2833 1.379 . S
C2828 N2835 1.356 . S
C2829 C2828 1.363 . S
C2829 C2832 1.363 . S
N2830 C2832 1.356 . S
N2830 H2842 0.984 . S
N2830 H2843 0.985 . S
N2831 C2833 1.356 . S
N2831 H2836 0.984 . S
N2831 H2837 0.985 . S
C2832 C2826 1.379 . S
C2832 C2829 1.363 . S
C2832 N2830 1.356 . S
C2833 C2827 1.363 . S
C2833 C2828 1.379 . S
C2833 N2831 1.356 . S
N2834 C2826 1.356 . S
N2834 H2840 0.984 . S
N2834 H2841 0.984 . S
N2835 C2828 1.356 . S
N2835 H2838 0.984 . S
N2835 H2839 0.985 . S
H2836 N2831 0.984 . S
H2837 N2831 0.985 . S
H2838 N2835 0.984 . S
H2839 N2835 0.985 . S
H2840 N2834 0.984 . S
H2841 N2834 0.984 . S
H2842 N2830 0.984 . S
H2843 N2830 0.985 . S
C2844 C2845 1.363 . S
C2844 C2850 1.379 . S
C2844 N2852 1.356 . S
C2845 C2844 1.363 . S
C2845 C2851 1.363 . S
C2846 C2847 1.363 . S
C2846 C2851 1.379 . S
C2846 N2853 1.356 . S
C2847 C2846 1.363 . S
C2847 C2850 1.363 . S
N2848 C2850 1.356 . S
N2848 H2860 0.984 . S
N2848 H2861 0.985 . S
N2849 C2851 1.356 . S
N2849 H2854 0.984 . S
N2849 H2855 0.985 . S
C2850 C2844 1.379 . S
C2850 C2847 1.363 . S
C2850 N2848 1.356 . S
C2851 C2845 1.363 . S
C2851 C2846 1.379 . S
C2851 N2849 1.356 . S
N2852 C2844 1.356 . S
N2852 H2858 0.984 . S
N2852 H2859 0.984 . S
N2853 C2846 1.356 . S
N2853 H2856 0.984 . S
N2853 H2857 0.985 . S
H2854 N2849 0.984 . S
H2855 N2849 0.985 . S
H2856 N2853 0.984 . S
H2857 N2853 0.985 . S
H2858 N2852 0.984 . S
H2859 N2852 0.984 . S
H2860 N2848 0.984 . S
H2861 N2848 0.985 . S
C2862 C2863 1.363 . S
C2862 C2868 1.379 . S
C2862 N2870 1.356 . S
C2863 C2862 1.363 . S
C2863 C2869 1.363 . S
C2864 C2865 1.363 . S
C2864 C2869 1.379 . S
C2864 N2871 1.356 . S
C2865 C2864 1.363 . S
C2865 C2868 1.363 . S
N2866 C2868 1.356 . S
N2866 H2878 0.984 . S
N2866 H2879 0.985 . S
N2867 C2869 1.356 . S
N2867 H2872 0.984 . S
N2867 H2873 0.985 . S
C2868 C2862 1.379 . S
C2868 C2865 1.363 . S
C2868 N2866 1.356 . S
C2869 C2863 1.363 . S
C2869 C2864 1.379 . S
C2869 N2867 1.356 . S
N2870 C2862 1.356 . S
N2870 H2876 0.984 . S
N2870 H2877 0.984 . S
N2871 C2864 1.356 . S
N2871 H2874 0.984 . S
N2871 H2875 0.985 . S
H2872 N2867 0.984 . S
H2873 N2867 0.985 . S
H2874 N2871 0.984 . S
H2875 N2871 0.985 . S
H2876 N2870 0.984 . S
H2877 N2870 0.984 . S
H2878 N2866 0.984 . S
H2879 N2866 0.985 . S
C2880 C2881 1.363 . S
C2880 C2886 1.379 . S
C2880 N2888 1.356 . S
C2881 C2880 1.363 . S
C2881 C2887 1.363 . S
C2882 C2883 1.363 . S
C2882 C2887 1.379 . S
C2882 N2889 1.356 . S
C2883 C2882 1.363 . S
C2883 C2886 1.363 . S
N2884 C2886 1.356 . S
N2884 H2896 0.984 . S
N2884 H2897 0.985 . S
N2885 C2887 1.356 . S
N2885 H2890 0.984 . S
N2885 H2891 0.985 . S
C2886 C2880 1.379 . S
C2886 C2883 1.363 . S
C2886 N2884 1.356 . S
C2887 C2881 1.363 . S
C2887 C2882 1.379 . S
C2887 N2885 1.356 . S
N2888 C2880 1.356 . S
N2888 H2894 0.984 . S
N2888 H2895 0.984 . S
N2889 C2882 1.356 . S
N2889 H2892 0.984 . S
N2889 H2893 0.985 . S
H2890 N2885 0.984 . S
H2891 N2885 0.985 . S
H2892 N2889 0.984 . S
H2893 N2889 0.985 . S
H2894 N2888 0.984 . S
H2895 N2888 0.984 . S
H2896 N2884 0.984 . S
H2897 N2884 0.985 . S
C2898 C2899 1.363 . S
C2898 C2904 1.379 . S
C2898 N2906 1.356 . S
C2899 C2898 1.363 . S
C2899 C2905 1.363 . S
C2900 C2901 1.363 . S
C2900 C2905 1.379 . S
C2900 N2907 1.356 . S
C2901 C2900 1.363 . S
C2901 C2904 1.363 . S
N2902 C2904 1.356 . S
N2902 H2914 0.984 . S
N2902 H2915 0.985 . S
N2903 C2905 1.356 . S
N2903 H2908 0.984 . S
N2903 H2909 0.985 . S
C2904 C2898 1.379 . S
C2904 C2901 1.363 . S
C2904 N2902 1.356 . S
C2905 C2899 1.363 . S
C2905 C2900 1.379 . S
C2905 N2903 1.356 . S
N2906 C2898 1.356 . S
N2906 H2912 0.984 . S
N2906 H2913 0.984 . S
N2907 C2900 1.356 . S
N2907 H2910 0.984 . S
N2907 H2911 0.985 . S
H2908 N2903 0.984 . S
H2909 N2903 0.985 . S
H2910 N2907 0.984 . S
H2911 N2907 0.985 . S
H2912 N2906 0.984 . S
H2913 N2906 0.984 . S
H2914 N2902 0.984 . S
H2915 N2902 0.985 . S
C2916 C2917 1.363 . S
C2916 C2922 1.379 . S
C2916 N2924 1.356 . S
C2917 C2916 1.363 . S
C2917 C2923 1.363 . S
C2918 C2919 1.363 . S
C2918 C2923 1.379 . S
C2918 N2925 1.356 . S
C2919 C2918 1.363 . S
C2919 C2922 1.363 . S
N2920 C2922 1.356 . S
N2920 H2932 0.984 . S
N2920 H2933 0.985 . S
N2921 C2923 1.356 . S
N2921 H2926 0.984 . S
N2921 H2927 0.985 . S
C2922 C2916 1.379 . S
C2922 C2919 1.363 . S
C2922 N2920 1.356 . S
C2923 C2917 1.363 . S
C2923 C2918 1.379 . S
C2923 N2921 1.356 . S
N2924 C2916 1.356 . S
N2924 H2930 0.984 . S
N2924 H2931 0.984 . S
N2925 C2918 1.356 . S
N2925 H2928 0.984 . S
N2925 H2929 0.985 . S
H2926 N2921 0.984 . S
H2927 N2921 0.985 . S
H2928 N2925 0.984 . S
H2929 N2925 0.985 . S
H2930 N2924 0.984 . S
H2931 N2924 0.984 . S
H2932 N2920 0.984 . S
H2933 N2920 0.985 . S
C2934 C2935 1.363 . S
C2934 C2940 1.379 . S
C2934 N2942 1.356 . S
C2935 C2934 1.363 . S
C2935 C2941 1.363 . S
C2936 C2937 1.363 . S
C2936 C2941 1.379 . S
C2936 N2943 1.356 . S
C2937 C2936 1.363 . S
C2937 C2940 1.363 . S
N2938 C2940 1.356 . S
N2938 H2950 0.984 . S
N2938 H2951 0.985 . S
N2939 C2941 1.356 . S
N2939 H2944 0.984 . S
N2939 H2945 0.985 . S
C2940 C2934 1.379 . S
C2940 C2937 1.363 . S
C2940 N2938 1.356 . S
C2941 C2935 1.363 . S
C2941 C2936 1.379 . S
C2941 N2939 1.356 . S
N2942 C2934 1.356 . S
N2942 H2948 0.984 . S
N2942 H2949 0.984 . S
N2943 C2936 1.356 . S
N2943 H2946 0.984 . S
N2943 H2947 0.985 . S
H2944 N2939 0.984 . S
H2945 N2939 0.985 . S
H2946 N2943 0.984 . S
H2947 N2943 0.985 . S
H2948 N2942 0.984 . S
H2949 N2942 0.984 . S
H2950 N2938 0.984 . S
H2951 N2938 0.985 . S
C2952 C2953 1.363 . S
C2952 C2958 1.379 . S
C2952 N2960 1.356 . S
C2953 C2952 1.363 . S
C2953 C2959 1.363 . S
C2954 C2955 1.363 . S
C2954 C2959 1.379 . S
C2954 N2961 1.356 . S
C2955 C2954 1.363 . S
C2955 C2958 1.363 . S
N2956 C2958 1.356 . S
N2956 H2968 0.984 . S
N2956 H2969 0.985 . S
N2957 C2959 1.356 . S
N2957 H2962 0.984 . S
N2957 H2963 0.985 . S
C2958 C2952 1.379 . S
C2958 C2955 1.363 . S
C2958 N2956 1.356 . S
C2959 C2953 1.363 . S
C2959 C2954 1.379 . S
C2959 N2957 1.356 . S
N2960 C2952 1.356 . S
N2960 H2966 0.984 . S
N2960 H2967 0.984 . S
N2961 C2954 1.356 . S
N2961 H2964 0.984 . S
N2961 H2965 0.985 . S
H2962 N2957 0.984 . S
H2963 N2957 0.985 . S
H2964 N2961 0.984 . S
H2965 N2961 0.985 . S
H2966 N2960 0.984 . S
H2967 N2960 0.984 . S
H2968 N2956 0.984 . S
H2969 N2956 0.985 . S
C2970 C2971 1.363 . S
C2970 C2976 1.379 . S
C2970 N2978 1.356 . S
C2971 C2970 1.363 . S
C2971 C2977 1.363 . S
C2972 C2973 1.363 . S
C2972 C2977 1.379 . S
C2972 N2979 1.356 . S
C2973 C2972 1.363 . S
C2973 C2976 1.363 . S
N2974 C2976 1.356 . S
N2974 H2986 0.984 . S
N2974 H2987 0.985 . S
N2975 C2977 1.356 . S
N2975 H2980 0.984 . S
N2975 H2981 0.985 . S
C2976 C2970 1.379 . S
C2976 C2973 1.363 . S
C2976 N2974 1.356 . S
C2977 C2971 1.363 . S
C2977 C2972 1.379 . S
C2977 N2975 1.356 . S
N2978 C2970 1.356 . S
N2978 H2984 0.984 . S
N2978 H2985 0.984 . S
N2979 C2972 1.356 . S
N2979 H2982 0.984 . S
N2979 H2983 0.985 . S
H2980 N2975 0.984 . S
H2981 N2975 0.985 . S
H2982 N2979 0.984 . S
H2983 N2979 0.985 . S
H2984 N2978 0.984 . S
H2985 N2978 0.984 . S
H2986 N2974 0.984 . S
H2987 N2974 0.985 . S
C2988 C2989 1.363 . S
C2988 C2994 1.379 . S
C2988 N2996 1.356 . S
C2989 C2988 1.363 . S
C2989 C2995 1.363 . S
C2990 C2991 1.363 . S
C2990 C2995 1.379 . S
C2990 N2997 1.356 . S
C2991 C2990 1.363 . S
C2991 C2994 1.363 . S
N2992 C2994 1.356 . S
N2992 H3004 0.984 . S
N2992 H3005 0.985 . S
N2993 C2995 1.356 . S
N2993 H2998 0.984 . S
N2993 H2999 0.985 . S
C2994 C2988 1.379 . S
C2994 C2991 1.363 . S
C2994 N2992 1.356 . S
C2995 C2989 1.363 . S
C2995 C2990 1.379 . S
C2995 N2993 1.356 . S
N2996 C2988 1.356 . S
N2996 H3002 0.984 . S
N2996 H3003 0.984 . S
N2997 C2990 1.356 . S
N2997 H3000 0.984 . S
N2997 H3001 0.985 . S
H2998 N2993 0.984 . S
H2999 N2993 0.985 . S
H3000 N2997 0.984 . S
H3001 N2997 0.985 . S
H3002 N2996 0.984 . S
H3003 N2996 0.984 . S
H3004 N2992 0.984 . S
H3005 N2992 0.985 . S
C3006 C3007 1.363 . S
C3006 C3012 1.379 . S
C3006 N3014 1.356 . S
C3007 C3006 1.363 . S
C3007 C3013 1.363 . S
C3008 C3009 1.363 . S
C3008 C3013 1.379 . S
C3008 N3015 1.356 . S
C3009 C3008 1.363 . S
C3009 C3012 1.363 . S
N3010 C3012 1.356 . S
N3010 H3022 0.984 . S
N3010 H3023 0.985 . S
N3011 C3013 1.356 . S
N3011 H3016 0.984 . S
N3011 H3017 0.985 . S
C3012 C3006 1.379 . S
C3012 C3009 1.363 . S
C3012 N3010 1.356 . S
C3013 C3007 1.363 . S
C3013 C3008 1.379 . S
C3013 N3011 1.356 . S
N3014 C3006 1.356 . S
N3014 H3020 0.984 . S
N3014 H3021 0.984 . S
N3015 C3008 1.356 . S
N3015 H3018 0.984 . S
N3015 H3019 0.985 . S
H3016 N3011 0.984 . S
H3017 N3011 0.985 . S
H3018 N3015 0.984 . S
H3019 N3015 0.985 . S
H3020 N3014 0.984 . S
H3021 N3014 0.984 . S
H3022 N3010 0.984 . S
H3023 N3010 0.985 . S
C3024 C3025 1.363 . S
C3024 C3030 1.379 . S
C3024 N3032 1.356 . S
C3025 C3024 1.363 . S
C3025 C3031 1.363 . S
C3026 C3027 1.363 . S
C3026 C3031 1.379 . S
C3026 N3033 1.356 . S
C3027 C3026 1.363 . S
C3027 C3030 1.363 . S
N3028 C3030 1.356 . S
N3028 H3040 0.984 . S
N3028 H3041 0.985 . S
N3029 C3031 1.356 . S
N3029 H3034 0.984 . S
N3029 H3035 0.985 . S
C3030 C3024 1.379 . S
C3030 C3027 1.363 . S
C3030 N3028 1.356 . S
C3031 C3025 1.363 . S
C3031 C3026 1.379 . S
C3031 N3029 1.356 . S
N3032 C3024 1.356 . S
N3032 H3038 0.984 . S
N3032 H3039 0.984 . S
N3033 C3026 1.356 . S
N3033 H3036 0.984 . S
N3033 H3037 0.985 . S
H3034 N3029 0.984 . S
H3035 N3029 0.985 . S
H3036 N3033 0.984 . S
H3037 N3033 0.985 . S
H3038 N3032 0.984 . S
H3039 N3032 0.984 . S
H3040 N3028 0.984 . S
H3041 N3028 0.985 . S
C3042 C3043 1.363 . S
C3042 C3048 1.379 . S
C3042 N3050 1.356 . S
C3043 C3042 1.363 . S
C3043 C3049 1.363 . S
C3044 C3045 1.363 . S
C3044 C3049 1.379 . S
C3044 N3051 1.356 . S
C3045 C3044 1.363 . S
C3045 C3048 1.363 . S
N3046 C3048 1.356 . S
N3046 H3058 0.958 1_565 S
N3046 H3059 0.981 1_565 S
N3047 C3049 1.356 . S
N3047 H3052 0.984 . S
N3047 H3053 0.985 . S
C3048 C3042 1.379 . S
C3048 C3045 1.363 . S
C3048 N3046 1.356 . S
C3049 C3043 1.363 . S
C3049 C3044 1.379 . S
C3049 N3047 1.356 . S
N3050 C3042 1.356 . S
N3050 H3056 0.984 . S
N3050 H3057 0.984 . S
N3051 C3044 1.356 . S
N3051 H3054 0.984 . S
N3051 H3055 0.985 . S
H3052 N3047 0.984 . S
H3053 N3047 0.985 . S
H3054 N3051 0.984 . S
H3055 N3051 0.985 . S
H3056 N3050 0.984 . S
H3057 N3050 0.984 . S
H3058 N3046 0.958 1_545 S
H3059 N3046 0.981 1_545 S
C3060 C3061 1.363 . S
C3060 C3066 1.379 . S
C3060 N3068 1.356 . S
C3061 C3060 1.363 . S
C3061 C3067 1.363 . S
C3062 C3063 1.363 . S
C3062 C3067 1.379 . S
C3062 N3069 1.356 . S
C3063 C3062 1.363 . S
C3063 C3066 1.363 . S
N3064 C3066 1.356 . S
N3064 H3076 0.984 . S
N3064 H3077 0.985 . S
N3065 C3067 1.356 . S
N3065 H3070 0.984 . S
N3065 H3071 0.985 . S
C3066 C3060 1.379 . S
C3066 C3063 1.363 . S
C3066 N3064 1.356 . S
C3067 C3061 1.363 . S
C3067 C3062 1.379 . S
C3067 N3065 1.356 . S
N3068 C3060 1.356 . S
N3068 H3074 0.984 . S
N3068 H3075 0.984 . S
N3069 C3062 1.356 . S
N3069 H3072 0.984 . S
N3069 H3073 0.985 . S
H3070 N3065 0.984 . S
H3071 N3065 0.985 . S
H3072 N3069 0.984 . S
H3073 N3069 0.985 . S
H3074 N3068 0.984 . S
H3075 N3068 0.984 . S
H3076 N3064 0.984 . S
H3077 N3064 0.985 . S
C3078 C3079 1.363 . S
C3078 C3084 1.379 . S
C3078 N3086 1.356 . S
C3079 C3078 1.363 . S
C3079 C3085 1.363 . S
C3080 C3081 1.363 . S
C3080 C3085 1.379 . S
C3080 N3087 1.356 . S
C3081 C3080 1.363 . S
C3081 C3084 1.363 . S
N3082 C3084 1.356 . S
N3082 H3094 0.984 . S
N3082 H3095 0.985 . S
N3083 C3085 1.356 . S
N3083 H3088 0.984 . S
N3083 H3089 0.985 . S
C3084 C3078 1.379 . S
C3084 C3081 1.363 . S
C3084 N3082 1.356 . S
C3085 C3079 1.363 . S
C3085 C3080 1.379 . S
C3085 N3083 1.356 . S
N3086 C3078 1.356 . S
N3086 H3092 0.984 . S
N3086 H3093 0.984 . S
N3087 C3080 1.356 . S
N3087 H3090 0.984 . S
N3087 H3091 0.985 . S
H3088 N3083 0.984 . S
H3089 N3083 0.985 . S
H3090 N3087 0.984 . S
H3091 N3087 0.985 . S
H3092 N3086 0.984 . S
H3093 N3086 0.984 . S
H3094 N3082 0.984 . S
H3095 N3082 0.985 . S
C3096 C3097 1.363 . S
C3096 C3102 1.379 . S
C3096 N3104 1.356 . S
C3097 C3096 1.363 . S
C3097 C3103 1.363 . S
C3098 C3099 1.363 . S
C3098 C3103 1.379 . S
C3098 N3105 1.356 . S
C3099 C3098 1.363 . S
C3099 C3102 1.363 . S
N3100 C3102 1.356 . S
N3100 H3112 0.984 . S
N3100 H3113 0.985 . S
N3101 C3103 1.356 . S
N3101 H3106 0.984 . S
N3101 H3107 0.985 . S
C3102 C3096 1.379 . S
C3102 C3099 1.363 . S
C3102 N3100 1.356 . S
C3103 C3097 1.363 . S
C3103 C3098 1.379 . S
C3103 N3101 1.356 . S
N3104 C3096 1.356 . S
N3104 H3110 0.984 . S
N3104 H3111 0.984 . S
N3105 C3098 1.356 . S
N3105 H3108 0.984 . S
N3105 H3109 0.985 . S
H3106 N3101 0.984 . S
H3107 N3101 0.985 . S
H3108 N3105 0.984 . S
H3109 N3105 0.985 . S
H3110 N3104 0.984 . S
H3111 N3104 0.984 . S
H3112 N3100 0.984 . S
H3113 N3100 0.985 . S
C3114 C3115 1.363 . S
C3114 C3120 1.379 . S
C3114 N3122 1.356 . S
C3115 C3114 1.363 . S
C3115 C3121 1.363 . S
C3116 C3117 1.363 . S
C3116 C3121 1.379 . S
C3116 N3123 1.356 . S
C3117 C3116 1.363 . S
C3117 C3120 1.363 . S
N3118 C3120 1.356 . S
N3118 H3130 0.984 . S
N3118 H3131 0.985 . S
N3119 C3121 1.356 . S
N3119 H3124 0.984 . S
N3119 H3125 0.985 . S
C3120 C3114 1.379 . S
C3120 C3117 1.363 . S
C3120 N3118 1.356 . S
C3121 C3115 1.363 . S
C3121 C3116 1.379 . S
C3121 N3119 1.356 . S
N3122 C3114 1.356 . S
N3122 H3128 0.984 . S
N3122 H3129 0.984 . S
N3123 C3116 1.356 . S
N3123 H3126 0.984 . S
N3123 H3127 0.985 . S
H3124 N3119 0.984 . S
H3125 N3119 0.985 . S
H3126 N3123 0.984 . S
H3127 N3123 0.985 . S
H3128 N3122 0.984 . S
H3129 N3122 0.984 . S
H3130 N3118 0.984 . S
H3131 N3118 0.985 . S
C3132 C3133 1.363 . S
C3132 C3138 1.379 . S
C3132 N3140 1.356 . S
C3133 C3132 1.363 . S
C3133 C3139 1.363 . S
C3134 C3135 1.363 . S
C3134 C3139 1.379 . S
C3134 N3141 1.356 . S
C3135 C3134 1.363 . S
C3135 C3138 1.363 . S
N3136 C3138 1.356 . S
N3136 H3148 0.984 . S
N3136 H3149 0.985 . S
N3137 C3139 1.356 . S
N3137 H3142 0.984 . S
N3137 H3143 0.985 . S
C3138 C3132 1.379 . S
C3138 C3135 1.363 . S
C3138 N3136 1.356 . S
C3139 C3133 1.363 . S
C3139 C3134 1.379 . S
C3139 N3137 1.356 . S
N3140 C3132 1.356 . S
N3140 H3146 0.984 . S
N3140 H3147 0.984 . S
N3141 C3134 1.356 . S
N3141 H3144 0.984 . S
N3141 H3145 0.985 . S
H3142 N3137 0.984 . S
H3143 N3137 0.985 . S
H3144 N3141 0.984 . S
H3145 N3141 0.985 . S
H3146 N3140 0.984 . S
H3147 N3140 0.984 . S
H3148 N3136 0.984 . S
H3149 N3136 0.985 . S
C3150 C3151 1.363 . S
C3150 C3156 1.379 . S
C3150 N3158 1.356 . S
C3151 C3150 1.363 . S
C3151 C3157 1.363 . S
C3152 C3153 1.363 . S
C3152 C3157 1.379 . S
C3152 N3159 1.356 . S
C3153 C3152 1.363 . S
C3153 C3156 1.363 . S
N3154 C3156 1.356 . S
N3154 H3166 0.984 . S
N3154 H3167 0.985 . S
N3155 C3157 1.356 . S
N3155 H3160 0.984 . S
N3155 H3161 0.985 . S
C3156 C3150 1.379 . S
C3156 C3153 1.363 . S
C3156 N3154 1.356 . S
C3157 C3151 1.363 . S
C3157 C3152 1.379 . S
C3157 N3155 1.356 . S
N3158 C3150 1.356 . S
N3158 H3164 0.984 . S
N3158 H3165 0.984 . S
N3159 C3152 1.356 . S
N3159 H3162 0.984 . S
N3159 H3163 0.985 . S
H3160 N3155 0.984 . S
H3161 N3155 0.985 . S
H3162 N3159 0.984 . S
H3163 N3159 0.985 . S
H3164 N3158 0.984 . S
H3165 N3158 0.984 . S
H3166 N3154 0.984 . S
H3167 N3154 0.985 . S
C3168 C3169 1.363 . S
C3168 C3174 1.379 . S
C3168 N3176 1.356 . S
C3169 C3168 1.363 . S
C3169 C3175 1.363 . S
C3170 C3171 1.363 . S
C3170 C3175 1.379 . S
C3170 N3177 1.356 . S
C3171 C3170 1.363 . S
C3171 C3174 1.363 . S
N3172 C3174 1.356 . S
N3172 H3184 0.984 . S
N3172 H3185 0.985 . S
N3173 C3175 1.356 . S
N3173 H3178 0.984 . S
N3173 H3179 0.985 . S
C3174 C3168 1.379 . S
C3174 C3171 1.363 . S
C3174 N3172 1.356 . S
C3175 C3169 1.363 . S
C3175 C3170 1.379 . S
C3175 N3173 1.356 . S
N3176 C3168 1.356 . S
N3176 H3182 0.984 . S
N3176 H3183 0.984 . S
N3177 C3170 1.356 . S
N3177 H3180 0.984 . S
N3177 H3181 0.985 . S
H3178 N3173 0.984 . S
H3179 N3173 0.985 . S
H3180 N3177 0.984 . S
H3181 N3177 0.985 . S
H3182 N3176 0.984 . S
H3183 N3176 0.984 . S
H3184 N3172 0.984 . S
H3185 N3172 0.985 . S
C3186 C3187 1.363 . S
C3186 C3192 1.379 . S
C3186 N3194 1.356 . S
C3187 C3186 1.363 . S
C3187 C3193 1.363 . S
C3188 C3189 1.363 . S
C3188 C3193 1.379 . S
C3188 N3195 1.356 . S
C3189 C3188 1.363 . S
C3189 C3192 1.363 . S
N3190 C3192 1.356 . S
N3190 H3202 0.984 . S
N3190 H3203 0.985 . S
N3191 C3193 1.356 . S
N3191 H3196 0.984 . S
N3191 H3197 0.985 . S
C3192 C3186 1.379 . S
C3192 C3189 1.363 . S
C3192 N3190 1.356 . S
C3193 C3187 1.363 . S
C3193 C3188 1.379 . S
C3193 N3191 1.356 . S
N3194 C3186 1.356 . S
N3194 H3200 0.984 . S
N3194 H3201 0.984 . S
N3195 C3188 1.356 . S
N3195 H3198 0.984 . S
N3195 H3199 0.985 . S
H3196 N3191 0.984 . S
H3197 N3191 0.985 . S
H3198 N3195 0.984 . S
H3199 N3195 0.985 . S
H3200 N3194 0.984 . S
H3201 N3194 0.984 . S
H3202 N3190 0.984 . S
H3203 N3190 0.985 . S
C3204 C3205 1.363 . S
C3204 C3210 1.379 . S
C3204 N3212 1.356 . S
C3205 C3204 1.363 . S
C3205 C3211 1.363 . S
C3206 C3207 1.363 . S
C3206 C3211 1.379 . S
C3206 N3213 1.356 . S
C3207 C3206 1.363 . S
C3207 C3210 1.363 . S
N3208 C3210 1.356 . S
N3208 H3220 0.984 . S
N3208 H3221 0.985 . S
N3209 C3211 1.356 . S
N3209 H3214 0.984 . S
N3209 H3215 0.985 . S
C3210 C3204 1.379 . S
C3210 C3207 1.363 . S
C3210 N3208 1.356 . S
C3211 C3205 1.363 . S
C3211 C3206 1.379 . S
C3211 N3209 1.356 . S
N3212 C3204 1.356 . S
N3212 H3218 0.984 . S
N3212 H3219 0.984 . S
N3213 C3206 1.356 . S
N3213 H3216 0.984 . S
N3213 H3217 0.985 . S
H3214 N3209 0.984 . S
H3215 N3209 0.985 . S
H3216 N3213 0.984 . S
H3217 N3213 0.985 . S
H3218 N3212 0.984 . S
H3219 N3212 0.984 . S
H3220 N3208 0.984 . S
H3221 N3208 0.985 . S
C3222 C3223 1.363 . S
C3222 C3228 1.379 . S
C3222 N3230 1.356 . S
C3223 C3222 1.363 . S
C3223 C3229 1.363 . S
C3224 C3225 1.363 . S
C3224 C3229 1.379 . S
C3224 N3231 1.356 . S
C3225 C3224 1.363 . S
C3225 C3228 1.363 . S
N3226 C3228 1.356 . S
N3226 H3238 0.984 . S
N3226 H3239 0.985 . S
N3227 C3229 1.356 . S
N3227 H3232 0.984 . S
N3227 H3233 0.985 . S
C3228 C3222 1.379 . S
C3228 C3225 1.363 . S
C3228 N3226 1.356 . S
C3229 C3223 1.363 . S
C3229 C3224 1.379 . S
C3229 N3227 1.356 . S
N3230 C3222 1.356 . S
N3230 H3236 0.984 . S
N3230 H3237 0.984 . S
N3231 C3224 1.356 . S
N3231 H3234 0.984 . S
N3231 H3235 0.985 . S
H3232 N3227 0.984 . S
H3233 N3227 0.985 . S
H3234 N3231 0.984 . S
H3235 N3231 0.985 . S
H3236 N3230 0.984 . S
H3237 N3230 0.984 . S
H3238 N3226 0.984 . S
H3239 N3226 0.985 . S
C3240 C3241 1.363 . S
C3240 C3246 1.379 . S
C3240 N3248 1.356 . S
C3241 C3240 1.363 . S
C3241 C3247 1.363 . S
C3242 C3243 1.363 . S
C3242 C3247 1.379 . S
C3242 N3249 1.356 . S
C3243 C3242 1.363 . S
C3243 C3246 1.363 . S
N3244 C3246 1.356 . S
N3244 H3256 0.984 . S
N3244 H3257 0.985 . S
N3245 C3247 1.356 . S
N3245 H3250 0.984 . S
N3245 H3251 0.985 . S
C3246 C3240 1.379 . S
C3246 C3243 1.363 . S
C3246 N3244 1.356 . S
C3247 C3241 1.363 . S
C3247 C3242 1.379 . S
C3247 N3245 1.356 . S
N3248 C3240 1.356 . S
N3248 H3254 0.984 . S
N3248 H3255 0.984 . S
N3249 C3242 1.356 . S
N3249 H3252 0.984 . S
N3249 H3253 0.985 . S
H3250 N3245 0.984 . S
H3251 N3245 0.985 . S
H3252 N3249 0.984 . S
H3253 N3249 0.985 . S
H3254 N3248 0.984 . S
H3255 N3248 0.984 . S
H3256 N3244 0.984 . S
H3257 N3244 0.985 . S
C3258 C3259 1.363 . S
C3258 C3264 1.379 . S
C3258 N3266 1.356 . S
C3259 C3258 1.363 . S
C3259 C3265 1.363 . S
C3260 C3261 1.363 . S
C3260 C3265 1.379 . S
C3260 N3267 1.356 . S
C3261 C3260 1.363 . S
C3261 C3264 1.363 . S
N3262 C3264 1.356 . S
N3262 H3274 0.984 . S
N3262 H3275 0.985 . S
N3263 C3265 1.356 . S
N3263 H3268 0.984 . S
N3263 H3269 0.985 . S
C3264 C3258 1.379 . S
C3264 C3261 1.363 . S
C3264 N3262 1.356 . S
C3265 C3259 1.363 . S
C3265 C3260 1.379 . S
C3265 N3263 1.356 . S
N3266 C3258 1.356 . S
N3266 H3272 0.984 . S
N3266 H3273 0.984 . S
N3267 C3260 1.356 . S
N3267 H3270 0.984 . S
N3267 H3271 0.985 . S
H3268 N3263 0.984 . S
H3269 N3263 0.985 . S
H3270 N3267 0.984 . S
H3271 N3267 0.985 . S
H3272 N3266 0.984 . S
H3273 N3266 0.984 . S
H3274 N3262 0.984 . S
H3275 N3262 0.985 . S
C3276 C3277 1.363 . S
C3276 C3282 1.379 . S
C3276 N3284 1.356 . S
C3277 C3276 1.363 . S
C3277 C3283 1.363 . S
C3278 C3279 1.363 . S
C3278 C3283 1.379 . S
C3278 N3285 1.356 . S
C3279 C3278 1.363 . S
C3279 C3282 1.363 . S
N3280 C3282 1.356 . S
N3280 H3292 0.984 . S
N3280 H3293 0.985 . S
N3281 C3283 1.356 . S
N3281 H3286 0.984 . S
N3281 H3287 0.985 . S
C3282 C3276 1.379 . S
C3282 C3279 1.363 . S
C3282 N3280 1.356 . S
C3283 C3277 1.363 . S
C3283 C3278 1.379 . S
C3283 N3281 1.356 . S
N3284 C3276 1.356 . S
N3284 H3290 0.984 . S
N3284 H3291 0.984 . S
N3285 C3278 1.356 . S
N3285 H3288 0.984 . S
N3285 H3289 0.985 . S
H3286 N3281 0.984 . S
H3287 N3281 0.985 . S
H3288 N3285 0.984 . S
H3289 N3285 0.985 . S
H3290 N3284 0.984 . S
H3291 N3284 0.984 . S
H3292 N3280 0.984 . S
H3293 N3280 0.985 . S
C3294 C3295 1.363 . S
C3294 C3300 1.379 . S
C3294 N3302 1.356 . S
C3295 C3294 1.363 . S
C3295 C3301 1.363 . S
C3296 C3297 1.363 . S
C3296 C3301 1.379 . S
C3296 N3303 1.356 . S
C3297 C3296 1.363 . S
C3297 C3300 1.363 . S
N3298 C3300 1.356 . S
N3298 H3310 0.984 . S
N3298 H3311 0.985 . S
N3299 C3301 1.356 . S
N3299 H3304 0.984 . S
N3299 H3305 0.985 . S
C3300 C3294 1.379 . S
C3300 C3297 1.363 . S
C3300 N3298 1.356 . S
C3301 C3295 1.363 . S
C3301 C3296 1.379 . S
C3301 N3299 1.356 . S
N3302 C3294 1.356 . S
N3302 H3308 0.984 . S
N3302 H3309 0.984 . S
N3303 C3296 1.356 . S
N3303 H3306 0.984 . S
N3303 H3307 0.985 . S
H3304 N3299 0.984 . S
H3305 N3299 0.985 . S
H3306 N3303 0.984 . S
H3307 N3303 0.985 . S
H3308 N3302 0.984 . S
H3309 N3302 0.984 . S
H3310 N3298 0.984 . S
H3311 N3298 0.985 . S
C3312 C3313 1.363 . S
C3312 C3318 1.379 . S
C3312 N3320 1.356 . S
C3313 C3312 1.363 . S
C3313 C3319 1.363 . S
C3314 C3315 1.363 . S
C3314 C3319 1.379 . S
C3314 N3321 1.356 . S
C3315 C3314 1.363 . S
C3315 C3318 1.363 . S
N3316 C3318 1.356 . S
N3316 H3328 0.984 . S
N3316 H3329 0.985 . S
N3317 C3319 1.356 . S
N3317 H3322 0.984 . S
N3317 H3323 0.985 . S
C3318 C3312 1.379 . S
C3318 C3315 1.363 . S
C3318 N3316 1.356 . S
C3319 C3313 1.363 . S
C3319 C3314 1.379 . S
C3319 N3317 1.356 . S
N3320 C3312 1.356 . S
N3320 H3326 0.984 . S
N3320 H3327 0.984 . S
N3321 C3314 1.356 . S
N3321 H3324 0.984 . S
N3321 H3325 0.985 . S
H3322 N3317 0.984 . S
H3323 N3317 0.985 . S
H3324 N3321 0.984 . S
H3325 N3321 0.985 . S
H3326 N3320 0.984 . S
H3327 N3320 0.984 . S
H3328 N3316 0.984 . S
H3329 N3316 0.985 . S
C3330 C3331 1.363 . S
C3330 C3336 1.379 . S
C3330 N3338 1.356 . S
C3331 C3330 1.363 . S
C3331 C3337 1.363 . S
C3332 C3333 1.363 . S
C3332 C3337 1.379 . S
C3332 N3339 1.356 . S
C3333 C3332 1.363 . S
C3333 C3336 1.363 . S
N3334 C3336 1.356 . S
N3334 H3346 0.984 . S
N3334 H3347 0.985 . S
N3335 C3337 1.356 . S
N3335 H3340 0.984 . S
N3335 H3341 0.985 . S
C3336 C3330 1.379 . S
C3336 C3333 1.363 . S
C3336 N3334 1.356 . S
C3337 C3331 1.363 . S
C3337 C3332 1.379 . S
C3337 N3335 1.356 . S
N3338 C3330 1.356 . S
N3338 H3344 0.984 . S
N3338 H3345 0.984 . S
N3339 C3332 1.356 . S
N3339 H3342 0.984 . S
N3339 H3343 0.985 . S
H3340 N3335 0.984 . S
H3341 N3335 0.985 . S
H3342 N3339 0.984 . S
H3343 N3339 0.985 . S
H3344 N3338 0.984 . S
H3345 N3338 0.984 . S
H3346 N3334 0.984 . S
H3347 N3334 0.985 . S
C3348 C3349 1.363 . S
C3348 C3354 1.379 . S
C3348 N3356 1.356 . S
C3349 C3348 1.363 . S
C3349 C3355 1.363 . S
C3350 C3351 1.363 . S
C3350 C3355 1.379 . S
C3350 N3357 1.356 . S
C3351 C3350 1.363 . S
C3351 C3354 1.363 . S
N3352 C3354 1.356 . S
N3352 H3364 0.984 . S
N3352 H3365 0.985 . S
N3353 C3355 1.356 . S
N3353 H3358 0.984 . S
N3353 H3359 0.985 . S
C3354 C3348 1.379 . S
C3354 C3351 1.363 . S
C3354 N3352 1.356 . S
C3355 C3349 1.363 . S
C3355 C3350 1.379 . S
C3355 N3353 1.356 . S
N3356 C3348 1.356 . S
N3356 H3362 0.984 . S
N3356 H3363 0.984 . S
N3357 C3350 1.356 . S
N3357 H3360 0.984 . S
N3357 H3361 0.985 . S
H3358 N3353 0.984 . S
H3359 N3353 0.985 . S
H3360 N3357 0.984 . S
H3361 N3357 0.985 . S
H3362 N3356 0.984 . S
H3363 N3356 0.984 . S
H3364 N3352 0.984 . S
H3365 N3352 0.985 . S
C3366 C3367 1.363 . S
C3366 C3372 1.379 . S
C3366 N3374 1.356 . S
C3367 C3366 1.363 . S
C3367 C3373 1.363 . S
C3368 C3369 1.363 . S
C3368 C3373 1.379 . S
C3368 N3375 1.356 . S
C3369 C3368 1.363 . S
C3369 C3372 1.363 . S
N3370 C3372 1.356 . S
N3370 H3382 0.984 . S
N3370 H3383 0.985 . S
N3371 C3373 1.356 . S
N3371 H3376 0.984 . S
N3371 H3377 0.985 . S
C3372 C3366 1.379 . S
C3372 C3369 1.363 . S
C3372 N3370 1.356 . S
C3373 C3367 1.363 . S
C3373 C3368 1.379 . S
C3373 N3371 1.356 . S
N3374 C3366 1.356 . S
N3374 H3380 0.984 . S
N3374 H3381 0.984 . S
N3375 C3368 1.356 . S
N3375 H3378 0.984 . S
N3375 H3379 0.985 . S
H3376 N3371 0.984 . S
H3377 N3371 0.985 . S
H3378 N3375 0.984 . S
H3379 N3375 0.985 . S
H3380 N3374 0.984 . S
H3381 N3374 0.984 . S
H3382 N3370 0.984 . S
H3383 N3370 0.985 . S
C3384 C3385 1.363 . S
C3384 C3390 1.379 . S
C3384 N3392 1.356 . S
C3385 C3384 1.363 . S
C3385 C3391 1.363 . S
C3386 C3387 1.363 . S
C3386 C3391 1.379 . S
C3386 N3393 1.356 . S
C3387 C3386 1.363 . S
C3387 C3390 1.363 . S
N3388 C3390 1.356 . S
N3388 H3400 0.984 . S
N3388 H3401 0.985 . S
N3389 C3391 1.356 . S
N3389 H3394 0.984 . S
N3389 H3395 0.985 . S
C3390 C3384 1.379 . S
C3390 C3387 1.363 . S
C3390 N3388 1.356 . S
C3391 C3385 1.363 . S
C3391 C3386 1.379 . S
C3391 N3389 1.356 . S
N3392 C3384 1.356 . S
N3392 H3398 0.984 . S
N3392 H3399 0.984 . S
N3393 C3386 1.356 . S
N3393 H3396 0.984 . S
N3393 H3397 0.985 . S
H3394 N3389 0.984 . S
H3395 N3389 0.985 . S
H3396 N3393 0.984 . S
H3397 N3393 0.985 . S
H3398 N3392 0.984 . S
H3399 N3392 0.984 . S
H3400 N3388 0.984 . S
H3401 N3388 0.985 . S
C3402 C3403 1.363 . S
C3402 C3408 1.379 . S
C3402 N3410 1.356 . S
C3403 C3402 1.363 . S
C3403 C3409 1.363 . S
C3404 C3405 1.363 . S
C3404 C3409 1.379 . S
C3404 N3411 1.356 . S
C3405 C3404 1.363 . S
C3405 C3408 1.363 . S
N3406 C3408 1.356 . S
N3406 H3418 0.984 . S
N3406 H3419 0.985 . S
N3407 C3409 1.356 . S
N3407 H3412 0.984 . S
N3407 H3413 0.985 . S
C3408 C3402 1.379 . S
C3408 C3405 1.363 . S
C3408 N3406 1.356 . S
C3409 C3403 1.363 . S
C3409 C3404 1.379 . S
C3409 N3407 1.356 . S
N3410 C3402 1.356 . S
N3410 H3416 0.984 . S
N3410 H3417 0.984 . S
N3411 C3404 1.356 . S
N3411 H3414 0.984 . S
N3411 H3415 0.985 . S
H3412 N3407 0.984 . S
H3413 N3407 0.985 . S
H3414 N3411 0.984 . S
H3415 N3411 0.985 . S
H3416 N3410 0.984 . S
H3417 N3410 0.984 . S
H3418 N3406 0.984 . S
H3419 N3406 0.985 . S
C3420 C3421 1.363 . S
C3420 C3426 1.379 . S
C3420 N3428 1.356 . S
C3421 C3420 1.363 . S
C3421 C3427 1.363 . S
C3422 C3423 1.363 . S
C3422 C3427 1.379 . S
C3422 N3429 1.356 . S
C3423 C3422 1.363 . S
C3423 C3426 1.363 . S
N3424 C3426 1.356 . S
N3424 H3436 0.984 . S
N3424 H3437 0.985 . S
N3425 C3427 1.356 . S
N3425 H3430 0.984 . S
N3425 H3431 0.985 . S
C3426 C3420 1.379 . S
C3426 C3423 1.363 . S
C3426 N3424 1.356 . S
C3427 C3421 1.363 . S
C3427 C3422 1.379 . S
C3427 N3425 1.356 . S
N3428 C3420 1.356 . S
N3428 H3434 0.984 . S
N3428 H3435 0.984 . S
N3429 C3422 1.356 . S
N3429 H3432 0.984 . S
N3429 H3433 0.985 . S
H3430 N3425 0.984 . S
H3431 N3425 0.985 . S
H3432 N3429 0.984 . S
H3433 N3429 0.985 . S
H3434 N3428 0.984 . S
H3435 N3428 0.984 . S
H3436 N3424 0.984 . S
H3437 N3424 0.985 . S
C3438 C3439 1.363 . S
C3438 C3444 1.379 . S
C3438 N3446 1.356 . S
C3439 C3438 1.363 . S
C3439 C3445 1.363 . S
C3440 C3441 1.363 . S
C3440 C3445 1.379 . S
C3440 N3447 1.356 . S
C3441 C3440 1.363 . S
C3441 C3444 1.363 . S
N3442 C3444 1.356 . S
N3442 H3454 0.984 . S
N3442 H3455 0.985 . S
N3443 C3445 1.356 . S
N3443 H3448 0.984 . S
N3443 H3449 0.985 . S
C3444 C3438 1.379 . S
C3444 C3441 1.363 . S
C3444 N3442 1.356 . S
C3445 C3439 1.363 . S
C3445 C3440 1.379 . S
C3445 N3443 1.356 . S
N3446 C3438 1.356 . S
N3446 H3452 0.984 . S
N3446 H3453 0.984 . S
N3447 C3440 1.356 . S
N3447 H3450 0.984 . S
N3447 H3451 0.985 . S
H3448 N3443 0.984 . S
H3449 N3443 0.985 . S
H3450 N3447 0.984 . S
H3451 N3447 0.985 . S
H3452 N3446 0.984 . S
H3453 N3446 0.984 . S
H3454 N3442 0.984 . S
H3455 N3442 0.985 . S
C3456 C3457 1.363 . S
C3456 C3462 1.379 . S
C3456 N3464 1.356 . S
C3457 C3456 1.363 . S
C3457 C3463 1.363 . S
C3458 C3459 1.363 . S
C3458 C3463 1.379 . S
C3458 N3465 1.356 . S
C3459 C3458 1.363 . S
C3459 C3462 1.363 . S
N3460 C3462 1.356 . S
N3460 H3472 0.984 . S
N3460 H3473 0.985 . S
N3461 C3463 1.356 . S
N3461 H3466 0.984 . S
N3461 H3467 0.985 . S
C3462 C3456 1.379 . S
C3462 C3459 1.363 . S
C3462 N3460 1.356 . S
C3463 C3457 1.363 . S
C3463 C3458 1.379 . S
C3463 N3461 1.356 . S
N3464 C3456 1.356 . S
N3464 H3470 0.984 . S
N3464 H3471 0.984 . S
N3465 C3458 1.356 . S
N3465 H3468 0.984 . S
N3465 H3469 0.985 . S
H3466 N3461 0.984 . S
H3467 N3461 0.985 . S
H3468 N3465 0.984 . S
H3469 N3465 0.985 . S
H3470 N3464 0.984 . S
H3471 N3464 0.984 . S
H3472 N3460 0.984 . S
H3473 N3460 0.985 . S
C3474 C3475 1.363 . S
C3474 C3480 1.379 . S
C3474 N3482 1.356 . S
C3475 C3474 1.363 . S
C3475 C3481 1.363 . S
C3476 C3477 1.363 . S
C3476 C3481 1.379 . S
C3476 N3483 1.356 . S
C3477 C3476 1.363 . S
C3477 C3480 1.363 . S
N3478 C3480 1.356 . S
N3478 H3490 0.984 . S
N3478 H3491 0.985 . S
N3479 C3481 1.356 . S
N3479 H3484 0.984 . S
N3479 H3485 0.985 . S
C3480 C3474 1.379 . S
C3480 C3477 1.363 . S
C3480 N3478 1.356 . S
C3481 C3475 1.363 . S
C3481 C3476 1.379 . S
C3481 N3479 1.356 . S
N3482 C3474 1.356 . S
N3482 H3488 0.984 . S
N3482 H3489 0.984 . S
N3483 C3476 1.356 . S
N3483 H3486 0.984 . S
N3483 H3487 0.985 . S
H3484 N3479 0.984 . S
H3485 N3479 0.985 . S
H3486 N3483 0.984 . S
H3487 N3483 0.985 . S
H3488 N3482 0.984 . S
H3489 N3482 0.984 . S
H3490 N3478 0.984 . S
H3491 N3478 0.985 . S
C3492 C3493 1.363 . S
C3492 C3498 1.379 . S
C3492 N3500 1.356 . S
C3493 C3492 1.363 . S
C3493 C3499 1.363 . S
C3494 C3495 1.363 . S
C3494 C3499 1.379 . S
C3494 N3501 1.356 . S
C3495 C3494 1.363 . S
C3495 C3498 1.363 . S
N3496 C3498 1.356 . S
N3496 H3508 0.984 . S
N3496 H3509 0.985 . S
N3497 C3499 1.356 . S
N3497 H3502 0.984 . S
N3497 H3503 0.985 . S
C3498 C3492 1.379 . S
C3498 C3495 1.363 . S
C3498 N3496 1.356 . S
C3499 C3493 1.363 . S
C3499 C3494 1.379 . S
C3499 N3497 1.356 . S
N3500 C3492 1.356 . S
N3500 H3506 0.984 . S
N3500 H3507 0.984 . S
N3501 C3494 1.356 . S
N3501 H3504 0.984 . S
N3501 H3505 0.985 . S
H3502 N3497 0.984 . S
H3503 N3497 0.985 . S
H3504 N3501 0.984 . S
H3505 N3501 0.985 . S
H3506 N3500 0.984 . S
H3507 N3500 0.984 . S
H3508 N3496 0.984 . S
H3509 N3496 0.985 . S
C3510 C3511 1.363 . S
C3510 C3516 1.379 . S
C3510 N3518 1.356 . S
C3511 C3510 1.363 . S
C3511 C3517 1.363 . S
C3512 C3513 1.363 . S
C3512 C3517 1.379 . S
C3512 N3519 1.356 . S
C3513 C3512 1.363 . S
C3513 C3516 1.363 . S
N3514 C3516 1.356 . S
N3514 H3526 0.984 . S
N3514 H3527 0.985 . S
N3515 C3517 1.356 . S
N3515 H3520 0.984 . S
N3515 H3521 0.985 . S
C3516 C3510 1.379 . S
C3516 C3513 1.363 . S
C3516 N3514 1.356 . S
C3517 C3511 1.363 . S
C3517 C3512 1.379 . S
C3517 N3515 1.356 . S
N3518 C3510 1.356 . S
N3518 H3524 0.984 . S
N3518 H3525 0.984 . S
N3519 C3512 1.356 . S
N3519 H3522 0.984 . S
N3519 H3523 0.985 . S
H3520 N3515 0.984 . S
H3521 N3515 0.985 . S
H3522 N3519 0.984 . S
H3523 N3519 0.985 . S
H3524 N3518 0.984 . S
H3525 N3518 0.984 . S
H3526 N3514 0.984 . S
H3527 N3514 0.985 . S
C1803 N1260 1.476 . S
C1801 C1 1.532 . S
C1821 C1287 1.606 . S
C1819 C60 1.608 . S
C1837 C79 1.517 . S
C1839 C1301 1.511 . S
C1857 N1319 1.436 . S
C1855 C118 1.476 . S
C1873 C177 1.591 . S
C1875 C1324 1.591 . S
C1891 C196 1.519 . S
C1893 C1264 1.526 . S
C1909 C250 1.424 . S
C1911 N1283 1.382 . S
C1929 N1296 1.473 . S
C1927 C274 1.516 . S
C1947 N1342 1.420 . S
C1945 C16 1.460 . S
C1963 C55 1.559 . S
C1965 N1365 1.533 . S
C1981 C99 1.584 . S
C1983 N1388 1.575 . S
C2001 N1421 1.401 . S
C1999 C133 1.453 . S
C2017 C157 1.571 . S
C2019 C1448 1.557 . S
C2037 C1471 1.572 . S
C2035 C211 1.575 . S
C2053 C255 1.478 . S
C2055 C1494 1.480 . S
C2073 C1508 1.452 . S
C2071 C294 1.450 . S
C2089 C21 1.468 . S
C2091 C1425 1.467 . S
C2107 C172 1.508 . S
C2109 N1467 1.469 . S
C2127 N1490 1.436 . S
C2125 C216 1.480 . S
C2143 C235 1.473 . S
C2145 N1503 1.436 . S
C2163 N1444 1.425 . S
C2161 C289 1.478 . S
C2181 C1370 1.666 . S
C2179 C94 1.670 . S
C2197 C138 1.486 . S
C2199 C1393 1.482 . S
C2217 C1347 1.622 . S
C2215 C40 1.627 . S
C2235 C1540 1.486 . S
C2233 C313 1.489 . S
C2251 C372 1.612 . S
C2253 C1554 1.614 . S
C2269 C391 1.510 . S
C2271 N1582 1.460 . S
C2289 N1595 1.426 . S
C2287 C430 1.462 . S
C2305 C489 1.603 . S
C2307 C1600 1.603 . S
C2323 C508 1.519 . S
C2325 N1536 1.465 . S
C2341 C562 1.512 . S
C2343 N1549 1.486 . S
C2359 C586 1.481 . S
C2361 C1586 1.474 . S
C2379 N1434 1.427 . S
C2377 C328 1.461 . S
C2395 C367 1.533 . S
C2397 N1618 1.486 . S
C2415 N1480 1.455 . S
C2413 C411 1.481 . S
C2431 C445 1.506 . S
C2433 C1655 1.509 . S
C2449 C469 1.607 . S
C2451 C1356 1.604 . S
C2469 C1669 1.599 . S
C2467 C523 1.601 . S
C2485 C567 1.514 . S
C2487 C1402 1.505 . S
C2505 N1687 1.406 . S
C2503 C606 1.443 . S
C2521 C333 1.481 . S
C2523 N1651 1.433 . S
C2541 N1664 1.504 . S
C2539 C484 1.543 . S
C2557 C528 1.486 . S
C2559 N1398 1.434 . S
C2577 C1692 1.422 . S
C2575 C547 1.422 . S
C2593 C601 1.458 . S
C2595 N1352 1.412 . S
C2611 C406 1.574 . S
C2613 C1623 1.572 . S
C2629 C450 1.531 . S
C2631 C1485 1.527 . S
C2647 C352 1.618 . S
C2649 C1439 1.619 . S
C2665 C625 1.548 . S
C2667 C1577 1.547 . S
C2685 C1609 1.553 . S
C2683 C684 1.560 . S
C2701 C703 1.479 . S
C2703 N1526 1.443 . S
C2719 C742 1.452 . S
C2721 N1559 1.406 . S
C2737 C801 1.607 . S
C2739 C1563 1.602 . S
C2755 C820 1.558 . S
C2757 N1572 1.533 . S
C2775 N1605 1.353 . S
C2773 C874 1.401 . S
C2791 C898 1.521 . S
C2793 C1531 1.519 . S
C2811 N1720 1.443 . S
C2809 C640 1.488 . S
C2827 C679 1.492 . S
C2829 N1457 1.459 . S
C2847 N1743 1.389 . S
C2845 C723 1.446 . S
C2863 C757 1.491 . S
C2865 N1513 1.445 . S
C2881 C781 1.578 . S
C2883 C1761 1.578 . S
C2899 C835 1.663 . S
C2901 C1379 1.661 . S
C2919 N1779 1.361 . S
C2917 C879 1.405 . S
C2935 C918 1.495 . S
C2937 C1416 1.498 . S
C2955 C1517 1.511 . S
C2953 C645 1.511 . S
C2973 N1375 1.505 . S
C2971 C796 1.562 . S
C2989 C840 1.575 . S
C2991 C1784 1.572 . S
C3007 C859 1.391 . S
C3009 N1411 1.345 . S
C3027 N1756 1.490 . S
C3025 C913 1.518 . S
C3045 C1462 1.579 . S
C3043 C718 1.580 . S
C3063 C1747 1.537 . S
C3061 C762 1.539 . S
C3081 C1724 1.594 . S
C3079 C664 1.593 . S
C3097 C937 1.441 . S
C3099 N1306 1.388 . S
C3115 C996 1.579 . S
C3117 C1333 1.572 . S
C3135 C1255 1.547 . S
C3133 C1015 1.549 . S
C3153 N1273 1.378 . S
C3151 C1054 1.414 . S
C3171 C1278 1.608 . S
C3169 C1113 1.610 . S
C3189 C1310 1.556 . S
C3187 C1132 1.547 . S
C3207 N1329 1.478 . S
C3205 C1186 1.526 . S
C3223 C1210 1.543 . S
C3225 N1250 1.512 . S
C3241 C952 1.406 . S
C3243 N1766 1.361 . S
C3261 N1674 1.480 . S
C3259 C991 1.518 . S
C3279 C1793 1.605 . S
C3277 C1035 1.599 . S
C3297 C1701 1.373 . S
C3295 C1069 1.378 . S
C3313 C1093 1.601 . S
C3315 C1715 1.597 . S
C3333 C1632 1.582 . S
C3331 C1147 1.588 . S
C3351 C1738 1.605 . S
C3349 C1191 1.608 . S
C3367 C1230 1.493 . S
C3369 N1641 1.448 . S
C3387 N1697 1.363 . S
C3385 C957 1.408 . S
C3405 N1628 1.473 . S
C3403 C1108 1.510 . S
C3423 N1733 1.401 . S
C3421 C1152 1.429 . S
C3439 C1171 1.499 . S
C3441 C1646 1.495 . S
C3457 C1225 1.466 . S
C3459 N1710 1.430 . S
C3475 C1030 1.673 . S
C3477 C1678 1.668 . S
C3493 C1074 1.411 . S
C3495 N1789 1.372 . S
C3513 C1770 1.569 . S
C3511 C976 1.572 . S
