# Generated by pormake.
# Topology llk, (3,12)-cn, num edge types: 1
# Building blocks:
#     Node 0, Type 0, BuildingBlock: ESEHIV_clean_linker_0, # of connection points: 3
#     Node 1, Type 0, BuildingBlock: ESEHIV_clean_linker_0, # of connection points: 3
#     Node 2, Type 0, BuildingBlock: ESEHIV_clean_linker_0, # of connection points: 3
#     Node 3, Type 0, BuildingBlock: ESEHIV_clean_linker_0, # of connection points: 3
#     Node 4, Type 0, BuildingBlock: ESEHIV_clean_linker_0, # of connection points: 3
#     Node 5, Type 0, BuildingBlock: ESEHIV_clean_linker_0, # of connection points: 3
#     Node 6, Type 0, BuildingBlock: ESEHIV_clean_linker_0, # of connection points: 3
#     Node 7, Type 0, BuildingBlock: ESEHIV_clean_linker_0, # of connection points: 3
#     Node 8, Type 0, BuildingBlock: ESEHIV_clean_linker_0, # of connection points: 3
#     Node 9, Type 0, BuildingBlock: ESEHIV_clean_linker_0, # of connection points: 3
#     Node 10, Type 0, BuildingBlock: ESEHIV_clean_linker_0, # of connection points: 3
#     Node 11, Type 0, BuildingBlock: ESEHIV_clean_linker_0, # of connection points: 3
#     Node 12, Type 0, BuildingBlock: ESEHIV_clean_linker_0, # of connection points: 3
#     Node 13, Type 0, BuildingBlock: ESEHIV_clean_linker_0, # of connection points: 3
#     Node 14, Type 0, BuildingBlock: ESEHIV_clean_linker_0, # of connection points: 3
#     Node 15, Type 0, BuildingBlock: ESEHIV_clean_linker_0, # of connection points: 3
#     Node 16, Type 0, BuildingBlock: ESEHIV_clean_linker_0, # of connection points: 3
#     Node 17, Type 0, BuildingBlock: ESEHIV_clean_linker_0, # of connection points: 3
#     Node 18, Type 0, BuildingBlock: ESEHIV_clean_linker_0, # of connection points: 3
#     Node 19, Type 0, BuildingBlock: ESEHIV_clean_linker_0, # of connection points: 3
#     Node 20, Type 0, BuildingBlock: ESEHIV_clean_linker_0, # of connection points: 3
#     Node 21, Type 0, BuildingBlock: ESEHIV_clean_linker_0, # of connection points: 3
#     Node 22, Type 0, BuildingBlock: ESEHIV_clean_linker_0, # of connection points: 3
#     Node 23, Type 0, BuildingBlock: ESEHIV_clean_linker_0, # of connection points: 3
#     Node 24, Type 1, BuildingBlock: EZIPEK_clean_sbu_0, # of connection points: 12
#     Node 25, Type 1, BuildingBlock: EZIPEK_clean_sbu_0, # of connection points: 12
#     Node 26, Type 1, BuildingBlock: EZIPEK_clean_sbu_0, # of connection points: 12
#     Node 27, Type 1, BuildingBlock: EZIPEK_clean_sbu_0, # of connection points: 12
#     Node 28, Type 1, BuildingBlock: EZIPEK_clean_sbu_0, # of connection points: 12
#     Node 29, Type 1, BuildingBlock: EZIPEK_clean_sbu_0, # of connection points: 12
#     Edge 30, Type (0, 1), BuildingBlock: ZUJKAS_clean_linker_0, # of connection points: 2
#     Edge 31, Type (0, 1), BuildingBlock: ZUJKAS_clean_linker_0, # of connection points: 2
#     Edge 32, Type (0, 1), BuildingBlock: ZUJKAS_clean_linker_0, # of connection points: 2
#     Edge 33, Type (0, 1), BuildingBlock: ZUJKAS_clean_linker_0, # of connection points: 2
#     Edge 34, Type (0, 1), BuildingBlock: ZUJKAS_clean_linker_0, # of connection points: 2
#     Edge 35, Type (0, 1), BuildingBlock: ZUJKAS_clean_linker_0, # of connection points: 2
#     Edge 36, Type (0, 1), BuildingBlock: ZUJKAS_clean_linker_0, # of connection points: 2
#     Edge 37, Type (0, 1), BuildingBlock: ZUJKAS_clean_linker_0, # of connection points: 2
#     Edge 38, Type (0, 1), BuildingBlock: ZUJKAS_clean_linker_0, # of connection points: 2
#     Edge 39, Type (0, 1), BuildingBlock: ZUJKAS_clean_linker_0, # of connection points: 2
#     Edge 40, Type (0, 1), BuildingBlock: ZUJKAS_clean_linker_0, # of connection points: 2
#     Edge 41, Type (0, 1), BuildingBlock: ZUJKAS_clean_linker_0, # of connection points: 2
#     Edge 42, Type (0, 1), BuildingBlock: ZUJKAS_clean_linker_0, # of connection points: 2
#     Edge 43, Type (0, 1), BuildingBlock: ZUJKAS_clean_linker_0, # of connection points: 2
#     Edge 44, Type (0, 1), BuildingBlock: ZUJKAS_clean_linker_0, # of connection points: 2
#     Edge 45, Type (0, 1), BuildingBlock: ZUJKAS_clean_linker_0, # of connection points: 2
#     Edge 46, Type (0, 1), BuildingBlock: ZUJKAS_clean_linker_0, # of connection points: 2
#     Edge 47, Type (0, 1), BuildingBlock: ZUJKAS_clean_linker_0, # of connection points: 2
#     Edge 48, Type (0, 1), BuildingBlock: ZUJKAS_clean_linker_0, # of connection points: 2
#     Edge 49, Type (0, 1), BuildingBlock: ZUJKAS_clean_linker_0, # of connection points: 2
#     Edge 50, Type (0, 1), BuildingBlock: ZUJKAS_clean_linker_0, # of connection points: 2
#     Edge 51, Type (0, 1), BuildingBlock: ZUJKAS_clean_linker_0, # of connection points: 2
#     Edge 52, Type (0, 1), BuildingBlock: ZUJKAS_clean_linker_0, # of connection points: 2
#     Edge 53, Type (0, 1), BuildingBlock: ZUJKAS_clean_linker_0, # of connection points: 2
#     Edge 54, Type (0, 1), BuildingBlock: ZUJKAS_clean_linker_0, # of connection points: 2
#     Edge 55, Type (0, 1), BuildingBlock: ZUJKAS_clean_linker_0, # of connection points: 2
#     Edge 56, Type (0, 1), BuildingBlock: ZUJKAS_clean_linker_0, # of connection points: 2
#     Edge 57, Type (0, 1), BuildingBlock: ZUJKAS_clean_linker_0, # of connection points: 2
#     Edge 58, Type (0, 1), BuildingBlock: ZUJKAS_clean_linker_0, # of connection points: 2
#     Edge 59, Type (0, 1), BuildingBlock: ZUJKAS_clean_linker_0, # of connection points: 2
#     Edge 60, Type (0, 1), BuildingBlock: ZUJKAS_clean_linker_0, # of connection points: 2
#     Edge 61, Type (0, 1), BuildingBlock: ZUJKAS_clean_linker_0, # of connection points: 2
#     Edge 62, Type (0, 1), BuildingBlock: ZUJKAS_clean_linker_0, # of connection points: 2
#     Edge 63, Type (0, 1), BuildingBlock: ZUJKAS_clean_linker_0, # of connection points: 2
#     Edge 64, Type (0, 1), BuildingBlock: ZUJKAS_clean_linker_0, # of connection points: 2
#     Edge 65, Type (0, 1), BuildingBlock: ZUJKAS_clean_linker_0, # of connection points: 2
#     Edge 66, Type (0, 1), BuildingBlock: ZUJKAS_clean_linker_0, # of connection points: 2
#     Edge 67, Type (0, 1), BuildingBlock: ZUJKAS_clean_linker_0, # of connection points: 2
#     Edge 68, Type (0, 1), BuildingBlock: ZUJKAS_clean_linker_0, # of connection points: 2
#     Edge 69, Type (0, 1), BuildingBlock: ZUJKAS_clean_linker_0, # of connection points: 2
#     Edge 70, Type (0, 1), BuildingBlock: ZUJKAS_clean_linker_0, # of connection points: 2
#     Edge 71, Type (0, 1), BuildingBlock: ZUJKAS_clean_linker_0, # of connection points: 2
#     Edge 72, Type (0, 1), BuildingBlock: ZUJKAS_clean_linker_0, # of connection points: 2
#     Edge 73, Type (0, 1), BuildingBlock: ZUJKAS_clean_linker_0, # of connection points: 2
#     Edge 74, Type (0, 1), BuildingBlock: ZUJKAS_clean_linker_0, # of connection points: 2
#     Edge 75, Type (0, 1), BuildingBlock: ZUJKAS_clean_linker_0, # of connection points: 2
#     Edge 76, Type (0, 1), BuildingBlock: ZUJKAS_clean_linker_0, # of connection points: 2
#     Edge 77, Type (0, 1), BuildingBlock: ZUJKAS_clean_linker_0, # of connection points: 2
#     Edge 78, Type (0, 1), BuildingBlock: ZUJKAS_clean_linker_0, # of connection points: 2
#     Edge 79, Type (0, 1), BuildingBlock: ZUJKAS_clean_linker_0, # of connection points: 2
#     Edge 80, Type (0, 1), BuildingBlock: ZUJKAS_clean_linker_0, # of connection points: 2
#     Edge 81, Type (0, 1), BuildingBlock: ZUJKAS_clean_linker_0, # of connection points: 2
#     Edge 82, Type (0, 1), BuildingBlock: ZUJKAS_clean_linker_0, # of connection points: 2
#     Edge 83, Type (0, 1), BuildingBlock: ZUJKAS_clean_linker_0, # of connection points: 2
#     Edge 84, Type (0, 1), BuildingBlock: ZUJKAS_clean_linker_0, # of connection points: 2
#     Edge 85, Type (0, 1), BuildingBlock: ZUJKAS_clean_linker_0, # of connection points: 2
#     Edge 86, Type (0, 1), BuildingBlock: ZUJKAS_clean_linker_0, # of connection points: 2
#     Edge 87, Type (0, 1), BuildingBlock: ZUJKAS_clean_linker_0, # of connection points: 2
#     Edge 88, Type (0, 1), BuildingBlock: ZUJKAS_clean_linker_0, # of connection points: 2
#     Edge 89, Type (0, 1), BuildingBlock: ZUJKAS_clean_linker_0, # of connection points: 2
#     Edge 90, Type (0, 1), BuildingBlock: ZUJKAS_clean_linker_0, # of connection points: 2
#     Edge 91, Type (0, 1), BuildingBlock: ZUJKAS_clean_linker_0, # of connection points: 2
#     Edge 92, Type (0, 1), BuildingBlock: ZUJKAS_clean_linker_0, # of connection points: 2
#     Edge 93, Type (0, 1), BuildingBlock: ZUJKAS_clean_linker_0, # of connection points: 2
#     Edge 94, Type (0, 1), BuildingBlock: ZUJKAS_clean_linker_0, # of connection points: 2
#     Edge 95, Type (0, 1), BuildingBlock: ZUJKAS_clean_linker_0, # of connection points: 2
#     Edge 96, Type (0, 1), BuildingBlock: ZUJKAS_clean_linker_0, # of connection points: 2
#     Edge 97, Type (0, 1), BuildingBlock: ZUJKAS_clean_linker_0, # of connection points: 2
#     Edge 98, Type (0, 1), BuildingBlock: ZUJKAS_clean_linker_0, # of connection points: 2
#     Edge 99, Type (0, 1), BuildingBlock: ZUJKAS_clean_linker_0, # of connection points: 2
#     Edge 100, Type (0, 1), BuildingBlock: ZUJKAS_clean_linker_0, # of connection points: 2
#     Edge 101, Type (0, 1), BuildingBlock: ZUJKAS_clean_linker_0, # of connection points: 2
# Relax obj value: 0.107
# Max RMSD: 0.160
# Mean RMSD: 0.134
data_MOF--net-llk--node1-EZIPEK_clean_sbu_0--node2-ESEHIV_clean_linker_0--edge1-ZUJKAS_clean_linker_0
_symmetry_space_group_name_H-M    P1
_symmetry_Int_Tables_number       1
_symmetry_cell_setting            triclinic
loop_
_symmetry_equiv_pos_as_xyz
'x, y, z'
_cell_length_a     56.747839
_cell_length_b     56.729399
_cell_length_c     56.757487
_cell_angle_alpha  89.971893
_cell_angle_beta   90.024919
_cell_angle_gamma 90.015568
loop_
_atom_site_label
_atom_site_type_symbol
_atom_site_fract_x
_atom_site_fract_y
_atom_site_fract_z
_atom_type_partial_charge
H0 H 0.01153 0.24155 0.29318 0.0
H1 H 0.01247 0.29444 0.23928 0.0
H2 H 1.00281 0.22143 0.2204 0.0
C3 C 0.01087 0.24628 0.27466 0.0
C4 C 0.00748 0.22862 0.25776 0.0
C5 C 0.01244 0.26994 0.26813 0.0
C6 C 0.01108 0.27604 0.24437 0.0
C7 C 0.00761 0.25888 0.227 0.0
C8 C 0.00575 0.23486 0.23363 0.0
H9 H 0.71391 0.0091 0.2453 0.0
H10 H 0.76731 0.01669 0.2982 0.0
H11 H 0.78714 1.00272 0.2262 0.0
C12 C 0.73238 0.00963 0.25022 0.0
C13 C 0.74957 0.00598 0.23291 0.0
C14 C 0.7386 0.01337 0.27373 0.0
C15 C 0.7624 0.01366 0.27997 0.0
C16 C 0.78006 0.00975 0.26318 0.0
C17 C 0.77369 0.00582 0.23936 0.0
H18 H 0.99309 0.768 0.29622 0.0
H19 H 0.99873 0.71375 0.24399 0.0
H20 H 0.00958 0.78638 0.22435 0.0
C21 C 0.99618 0.76276 0.27809 0.0
C22 C 1.00139 0.78003 0.26124 0.0
C23 C 0.99533 0.73893 0.27209 0.0
C24 C 0.99909 0.73228 0.24871 0.0
C25 C 1.00399 0.74909 0.23131 0.0
C26 C 0.00544 0.77323 0.23756 0.0
H27 H 0.24696 0.02569 0.29554 0.0
H28 H 0.29789 0.02962 0.2398 0.0
H29 H 0.23066 0.99652 0.22743 0.0
C30 C 0.25182 0.02278 0.27728 0.0
C31 C 0.23583 0.01141 0.2623 0.0
C32 C 0.27433 0.02908 0.26947 0.0
C33 C 0.28051 0.02469 0.24605 0.0
C34 C 0.2651 0.01286 0.2308 0.0
C35 C 0.24258 0.006 0.23894 0.0
H36 H 0.00753 0.7676 0.7136 0.0
H37 H 0.99995 0.71482 0.76712 0.0
H38 H 0.0071 0.78788 0.78684 0.0
C39 C 0.00618 0.76286 0.73208 0.0
C40 C 0.00734 0.78057 0.74923 0.0
C41 C 1.00362 0.73921 0.73838 0.0
C42 C 1.00213 0.73318 0.76218 0.0
C43 C 1.00344 0.75039 0.7798 0.0
C44 C 0.00607 0.77439 0.77339 0.0
H45 H 0.24947 0.98485 0.71305 0.0
H46 H 0.29845 0.98002 0.77054 0.0
H47 H 0.23255 0.01653 0.77982 0.0
C48 C 0.25394 0.98798 0.73137 0.0
C49 C 0.23801 1.00038 0.74557 0.0
C50 C 0.27593 0.98089 0.74005 0.0
C51 C 0.28153 0.98558 0.76358 0.0
C52 C 0.26629 0.99859 0.77798 0.0
C53 C 0.24434 0.00619 0.76896 0.0
H54 H 0.03432 0.29834 0.76877 0.0
H55 H 0.02961 0.24981 0.71094 0.0
H56 H 1.00059 0.23099 0.77844 0.0
C57 C 0.02916 0.2813 0.76179 0.0
C58 C 0.01715 0.26545 0.77641 0.0
C59 C 0.03335 0.27612 0.73808 0.0
C60 C 0.02685 0.25397 0.72938 0.0
C61 C 0.0155 0.2374 0.74377 0.0
C62 C 0.01014 0.24329 0.76739 0.0
H63 H 0.71432 0.00531 0.76478 0.0
H64 H 0.76708 0.00918 0.71096 0.0
H65 H 0.78781 0.0075 0.7841 0.0
C66 C 0.73277 0.006 0.75976 0.0
C67 C 0.75012 0.00612 0.77729 0.0
C68 C 0.73875 0.00719 0.73596 0.0
C69 C 0.76242 0.00861 0.7295 0.0
C70 C 0.78029 0.00871 0.74653 0.0
C71 C 0.77419 0.00745 0.77074 0.0
H72 H 0.24355 0.29691 0.03204 0.0
H73 H 0.29946 0.24613 0.02835 0.0
H74 H 0.23145 0.2296 0.99898 0.0
C75 C 0.24986 0.27954 0.02712 0.0
C76 C 0.23467 0.26412 0.01524 0.0
C77 C 0.2733 0.27344 0.03158 0.0
C78 C 0.28119 0.25093 0.02537 0.0
C79 C 0.26629 0.23485 0.01399 0.0
C80 C 0.24291 0.24157 0.00845 0.0
H81 H 0.29616 0.76887 0.02153 0.0
H82 H 0.24304 0.71564 0.01435 0.0
H83 H 0.22492 0.78867 1.00384 0.0
C84 C 0.27799 0.76401 0.0181 0.0
C85 C 0.26154 0.78164 0.01272 0.0
C86 C 0.27153 0.74027 0.01859 0.0
C87 C 0.2481 0.73409 0.01432 0.0
C88 C 0.2311 0.75122 0.00923 0.0
C89 C 0.23782 0.77527 0.00813 0.0
H90 H 0.71594 0.2434 0.0205 0.0
H91 H 0.76783 0.29773 0.01219 0.0
H92 H 0.78778 0.22488 1.00413 0.0
C93 C 0.73401 0.24865 0.01709 0.0
C94 C 0.75094 0.23131 0.01239 0.0
C95 C 0.73986 0.27256 0.01689 0.0
C96 C 0.76319 0.27918 0.01265 0.0
C97 C 0.78064 0.26228 0.00829 0.0
C98 C 0.77453 0.23809 0.00789 0.0
H99 H 0.7104 0.76215 0.02146 0.0
H100 H 0.76511 0.71008 0.02573 0.0
H101 H 0.78045 0.77899 0.99767 0.0
C102 C 0.72872 0.75712 0.01933 0.0
C103 C 0.74462 0.77347 0.00985 0.0
C104 C 0.73583 0.73417 0.02485 0.0
C105 C 0.75939 0.72781 0.02142 0.0
C106 C 0.77555 0.74367 0.01156 0.0
C107 C 0.76818 0.76669 0.00561 0.0
H108 H 0.50132 0.74289 0.79508 0.0
H109 H 0.49737 0.79505 0.74062 0.0
H110 H 0.50233 0.72148 0.72216 0.0
C111 C 0.50102 0.74738 0.77649 0.0
C112 C 0.50217 0.72938 0.75964 0.0
C113 C 0.49917 0.77096 0.76976 0.0
C114 C 0.49834 0.77668 0.74588 0.0
C115 C 0.49944 0.75915 0.72855 0.0
C116 C 0.5014 0.7352 0.73537 0.0
H117 H 0.21429 0.50398 0.73911 0.0
H118 H 0.26774 0.50677 0.7923 0.0
H119 H 0.28763 0.50234 0.71906 0.0
C120 C 0.23281 0.504 0.74391 0.0
C121 C 0.24996 0.50287 0.72623 0.0
C122 C 0.23913 0.50553 0.7676 0.0
C123 C 0.26288 0.50598 0.77381 0.0
C124 C 0.28056 0.50485 0.75666 0.0
C125 C 0.27416 0.50325 0.73253 0.0
H126 H 0.49312 0.21382 0.74134 0.0
H127 H 0.49506 0.26734 0.79454 0.0
H128 H 0.50739 0.28595 0.7219 0.0
C129 C 0.49523 0.2322 0.74622 0.0
C130 C 0.50022 0.24892 0.72878 0.0
C131 C 0.49344 0.23869 0.76986 0.0
C132 C 0.49601 0.26233 0.77611 0.0
C133 C 0.50094 0.27954 0.75913 0.0
C134 C 0.50322 0.27288 0.73517 0.0
H135 H 0.74041 0.50988 0.79658 0.0
H136 H 0.7942 0.51262 0.7437 0.0
H137 H 0.72148 0.50422 0.72318 0.0
C138 C 0.74549 0.50947 0.77814 0.0
C139 C 0.72812 0.50686 0.76081 0.0
C140 C 0.76922 0.51157 0.77211 0.0
C141 C 0.7757 0.51144 0.7484 0.0
C142 C 0.75879 0.50886 0.7306 0.0
C143 C 0.73472 0.50643 0.73675 0.0
H144 H 0.52683 0.26639 0.213 0.0
H145 H 0.52215 0.21145 0.2648 0.0
H146 H 0.49779 0.28137 0.28153 0.0
C147 C 0.52226 0.26059 0.23064 0.0
C148 C 0.51211 0.27667 0.24636 0.0
C149 C 0.52571 0.23702 0.23697 0.0
C150 C 0.51995 0.22978 0.25982 0.0
C151 C 0.5102 0.24556 0.2761 0.0
C152 C 0.50591 0.26917 0.26931 0.0
H153 H 0.74161 0.50192 0.21282 0.0
H154 H 0.79404 0.50481 0.26707 0.0
H155 H 0.72036 0.50493 0.28573 0.0
C156 C 0.74615 0.50253 0.23139 0.0
C157 C 0.72816 0.50311 0.24826 0.0
C158 C 0.7698 0.50331 0.23804 0.0
C159 C 0.77563 0.50459 0.26188 0.0
C160 C 0.75812 0.50517 0.27925 0.0
C161 C 0.73408 0.50446 0.27249 0.0
H162 H 0.52179 0.79664 0.2657 0.0
H163 H 0.51866 0.74486 0.21069 0.0
H164 H 0.493 0.72781 0.28005 0.0
C165 C 0.5175 0.77895 0.2598 0.0
C166 C 0.50715 0.76312 0.27566 0.0
C167 C 0.52144 0.7727 0.23632 0.0
C168 C 0.51607 0.74979 0.22897 0.0
C169 C 0.50615 0.73338 0.24454 0.0
C170 C 0.50127 0.74012 0.26804 0.0
H171 H 0.21311 0.51953 0.26545 0.0
H172 H 0.2693 0.52106 0.21504 0.0
H173 H 0.28259 0.49633 0.28566 0.0
C174 C 0.2316 0.5171 0.26122 0.0
C175 C 0.24689 0.50838 0.27854 0.0
C176 C 0.23946 0.52131 0.23829 0.0
C177 C 0.26315 0.51765 0.23283 0.0
C178 C 0.27886 0.50858 0.24953 0.0
C179 C 0.27073 0.5037 0.27265 0.0
H180 H 0.74389 0.7978 0.50306 0.0
H181 H 0.7958 0.74312 0.49927 0.0
H182 H 0.72223 0.72491 0.50515 0.0
C183 C 0.74828 0.77918 0.5029 0.0
C184 C 0.73022 0.76241 0.50439 0.0
C185 C 0.77182 0.77235 0.50094 0.0
C186 C 0.77745 0.74842 0.50034 0.0
C187 C 0.75991 0.73113 0.50182 0.0
C188 C 0.73599 0.73808 0.5039 0.0
H189 H 0.79361 0.26448 0.50889 0.0
H190 H 0.7406 0.2111 0.50219 0.0
H191 H 0.72026 0.28423 0.50681 0.0
C192 C 0.77518 0.25957 0.50752 0.0
C193 C 0.75791 0.27717 0.50794 0.0
C194 C 0.7691 0.23583 0.50546 0.0
C195 C 0.74537 0.22954 0.50398 0.0
C196 C 0.72759 0.24667 0.50452 0.0
C197 C 0.73381 0.27079 0.50649 0.0
H198 H 0.2101 0.74082 0.53062 0.0
H199 H 0.2619 0.79579 0.52603 0.0
H200 H 0.27701 0.72717 0.49743 0.0
C201 C 0.22756 0.74677 0.52558 0.0
C202 C 0.24268 0.73119 0.51383 0.0
C203 C 0.23412 0.77016 0.52975 0.0
C204 C 0.25673 0.77758 0.52331 0.0
C205 C 0.27244 0.76224 0.51203 0.0
C206 C 0.2653 0.73894 0.50684 0.0
H207 H 0.21111 0.27063 0.47954 0.0
H208 H 0.26117 0.21402 0.47819 0.0
H209 H 0.28043 0.28077 0.50885 0.0
C210 C 0.22862 0.2639 0.48327 0.0
C211 C 0.24497 0.27847 0.49463 0.0
C212 C 0.23412 0.24059 0.47758 0.0
C213 C 0.25687 0.23224 0.48208 0.0
C214 C 0.27385 0.24654 0.49297 0.0
C215 C 0.26773 0.26974 0.49982 0.0
C216 C 0.00904 0.95065 0.56407 0.0
C217 C 0.01146 0.94707 0.44845 0.0
C218 C 0.0074 0.06444 0.56043 0.0
C219 C 0.00734 0.06049 0.44488 0.0
C220 C 0.95054 0.06147 0.50326 0.0
C221 C 0.95283 0.94732 0.5049 0.0
C222 C 0.06462 0.06325 0.4969 0.0
C223 C 0.06686 0.95 0.51164 0.0
C224 C 0.06561 1.00323 0.44696 0.0
C225 C 0.95196 1.00262 0.44689 0.0
C226 C 0.06577 0.01019 0.562 0.0
C227 C 0.95211 0.00533 0.56251 0.0
Eu228 Eu 0.00968 0.96051 0.50591 0.0
O229 O 0.98809 0.98338 0.48458 0.0
O230 O 0.03 0.98576 0.52568 0.0
Eu231 Eu 0.96386 1.00469 0.50464 0.0
Eu232 Eu 0.05367 0.00642 0.50451 0.0
O233 O 0.98826 0.98479 0.52587 0.0
O234 O 0.03047 0.98398 0.48439 0.0
Eu235 Eu 0.00887 0.00713 0.5485 0.0
Eu236 Eu 0.00878 1.00409 0.46065 0.0
O237 O 0.98735 0.027 0.52453 0.0
O238 O 0.98733 0.02561 0.48325 0.0
O239 O 0.02913 0.02619 0.48344 0.0
O240 O 0.0297 0.02811 0.52466 0.0
Eu241 Eu 0.00791 0.0507 0.50306 0.0
O242 O 0.00895 0.94216 0.54201 0.0
O243 O 0.01122 0.93981 0.47098 0.0
O244 O 0.00789 0.0715 0.53785 0.0
O245 O 0.00666 0.06901 0.46693 0.0
O246 O 0.94377 0.03897 0.50422 0.0
O247 O 0.94517 0.96956 0.50473 0.0
O248 O 0.07223 0.04108 0.49874 0.0
O249 O 0.07366 0.97244 0.50984 0.0
O250 O 0.04304 1.00416 0.44054 0.0
O251 O 0.97456 1.00214 0.4405 0.0
O252 O 0.04325 0.00873 0.56856 0.0
O253 O 0.97472 0.00633 0.56882 0.0
O254 O 0.04233 0.07049 0.49908 0.0
O255 O 0.97272 0.06927 0.50256 0.0
O256 O 0.04479 0.94204 0.50979 0.0
O257 O 0.97532 0.94046 0.50542 0.0
O258 O 0.01048 0.96945 0.44146 0.0
O259 O 0.00829 0.03768 0.4393 0.0
O260 O 0.00939 0.97346 0.56975 0.0
O261 O 0.00748 0.04202 0.56751 0.0
O262 O 0.94429 1.00477 0.54019 0.0
O263 O 0.94421 1.00399 0.46918 0.0
O264 O 0.07334 0.01024 0.53962 0.0
O265 O 0.07333 1.00322 0.4693 0.0
C266 C 0.51139 0.94605 0.05942 0.0
C267 C 0.51263 0.05999 0.06443 0.0
C268 C 0.50537 0.95087 0.94561 0.0
C269 C 0.50607 0.06506 0.95042 0.0
C270 C 0.56517 0.00755 0.94765 0.0
C271 C 0.56603 1.00315 0.06109 0.0
C272 C 0.44955 0.00917 0.94879 0.0
C273 C 0.45045 1.00342 0.06229 0.0
C274 C 0.45067 0.06325 0.00717 0.0
C275 C 0.5662 0.06163 1.0051 0.0
C276 C 0.44889 0.94973 1.00318 0.0
C277 C 0.56436 0.948 1.00158 0.0
Eu278 Eu 0.50809 1.00363 0.04994 0.0
O279 O 0.52866 0.02533 0.02652 0.0
O280 O 0.48672 0.98369 0.02558 0.0
Eu281 Eu 0.55155 0.00501 1.0044 0.0
Eu282 Eu 0.46383 0.00624 0.00548 0.0
O283 O 0.52804 0.98353 0.02473 0.0
O284 O 0.48733 0.02636 0.02745 0.0
Eu285 Eu 0.50689 0.96062 1.00313 0.0
Eu286 Eu 0.50831 0.05063 0.00692 0.0
O287 O 0.52789 0.98494 0.98269 0.0
O288 O 0.52846 0.02743 0.98445 0.0
O289 O 0.48747 0.02758 0.98516 0.0
O290 O 0.48661 0.9858 0.98324 0.0
Eu291 Eu 0.50743 0.00743 0.95993 0.0
O292 O 0.51024 0.96803 0.06774 0.0
O293 O 0.51121 0.03737 0.07075 0.0
O294 O 0.50621 0.97349 0.93916 0.0
O295 O 0.50651 0.04302 0.94223 0.0
O296 O 0.57162 0.00635 0.97018 0.0
O297 O 0.57212 1.00406 0.03842 0.0
O298 O 0.44336 0.00828 0.97143 0.0
O299 O 0.44395 1.00472 0.03977 0.0
O300 O 0.4731 0.07071 0.00781 0.0
O301 O 0.54402 0.06975 0.00607 0.0
O302 O 0.47108 0.94154 1.0037 0.0
O303 O 0.54193 0.94059 1.00107 0.0
O304 O 0.4718 0.00898 0.94081 0.0
O305 O 0.54279 0.00796 0.93998 0.0
O306 O 0.47284 1.00286 0.06991 0.0
O307 O 0.54379 1.00261 0.06909 0.0
O308 O 0.5113 0.06836 0.04247 0.0
O309 O 0.50681 0.07142 0.97304 0.0
O310 O 0.51007 0.93974 0.03682 0.0
O311 O 0.50539 0.94278 0.96768 0.0
O312 O 0.57112 0.97046 1.00299 0.0
O313 O 0.57224 0.03894 1.00464 0.0
O314 O 0.44294 0.97246 1.00339 0.0
O315 O 0.44402 0.04072 0.00644 0.0
C316 C 0.00774 0.44749 0.06107 0.0
C317 C 0.00666 0.44849 0.94758 0.0
C318 C 1.00525 0.56326 0.06193 0.0
C319 C 0.00703 0.56416 0.94844 0.0
C320 C 0.94899 0.56255 1.00405 0.0
C321 C 0.95095 0.44706 1.00424 0.0
C322 C 0.06259 0.56466 0.00522 0.0
C323 C 0.06449 0.44894 1.00451 0.0
C324 C 0.06405 0.50662 0.94804 0.0
C325 C 0.94988 0.50626 0.9473 0.0
C326 C 0.06313 0.5095 0.06236 0.0
C327 C 0.94916 0.5045 0.0614 0.0
Eu328 Eu 0.0075 0.46201 1.00447 0.0
O329 O 0.98609 0.485 0.98335 0.0
O330 O 0.0282 0.48529 0.02607 0.0
Eu331 Eu 0.96174 0.50505 1.00442 0.0
Eu332 Eu 0.05177 0.50658 1.00509 0.0
O333 O 0.98581 0.48467 0.02557 0.0
O334 O 0.02827 0.48579 0.98363 0.0
Eu335 Eu 0.00634 0.50546 0.04979 0.0
Eu336 Eu 0.00689 0.50622 0.95973 0.0
O337 O 0.9851 0.52602 0.02588 0.0
O338 O 0.98541 0.52634 0.98368 0.0
O339 O 0.02757 0.52697 0.98397 0.0
O340 O 0.02714 0.5265 0.02599 0.0
Eu341 Eu 0.006 0.54975 1.00506 0.0
O342 O 0.00812 0.44143 0.0384 0.0
O343 O 0.0072 0.44201 0.97015 0.0
O344 O 0.00528 0.56972 0.03936 0.0
O345 O 0.00676 0.57029 0.9711 0.0
O346 O 0.94158 0.54011 1.004 0.0
O347 O 0.94278 0.46925 1.00383 0.0
O348 O 0.07076 0.54246 1.00458 0.0
O349 O 0.07196 0.47138 0.00524 0.0
O350 O 0.04172 0.50637 0.94069 0.0
O351 O 0.97227 0.50667 0.94014 0.0
O352 O 0.04077 0.50782 0.06936 0.0
O353 O 0.97146 0.50472 0.06884 0.0
O354 O 0.03987 0.57056 0.00578 0.0
O355 O 0.97147 0.56933 1.00443 0.0
O356 O 0.04197 0.44231 1.00395 0.0
O357 O 0.97367 0.44112 1.0047 0.0
O358 O 0.00649 0.47087 0.93992 0.0
O359 O 0.00686 0.54191 0.94041 0.0
O360 O 0.00696 0.46973 0.06912 0.0
O361 O 0.00558 0.54088 0.06962 0.0
O362 O 0.94207 0.50461 0.03897 0.0
O363 O 0.94255 0.50541 0.96962 0.0
O364 O 0.07073 0.50897 0.04009 0.0
O365 O 0.07126 0.50678 0.97043 0.0
C366 C 0.50496 0.44728 0.06193 0.0
C367 C 0.49917 0.56092 0.06152 0.0
C368 C 0.50442 0.44704 0.9463 0.0
C369 C 0.50007 0.5604 0.94602 0.0
C370 C 0.55903 0.50674 0.94626 0.0
C371 C 0.55921 0.50694 0.06192 0.0
C372 C 0.44571 0.50032 0.94623 0.0
C373 C 0.44582 0.5015 0.06212 0.0
C374 C 0.44261 0.55803 1.00475 0.0
C375 C 0.55662 0.5637 0.00794 0.0
C376 C 0.44855 0.44398 0.00915 0.0
C377 C 0.56239 0.44971 0.00535 0.0
Eu378 Eu 0.50251 0.50408 0.04792 0.0
O379 O 0.52241 0.52596 0.02447 0.0
O380 O 0.48269 0.48206 0.02452 0.0
Eu381 Eu 0.54748 0.50609 1.0041 0.0
Eu382 Eu 0.45734 0.50158 1.00416 0.0
O383 O 0.52461 0.48386 0.02477 0.0
O384 O 0.48035 0.52397 0.02456 0.0
Eu385 Eu 0.50472 0.45887 1.00414 0.0
Eu386 Eu 0.50027 0.54887 1.00386 0.0
O387 O 0.52463 0.48376 0.98346 0.0
O388 O 0.52262 0.52605 0.98326 0.0
O389 O 0.48021 0.52386 0.98342 0.0
O390 O 0.48217 0.48148 0.98342 0.0
Eu391 Eu 0.50235 0.50374 0.9603 0.0
O392 O 0.50389 0.4699 0.06821 0.0
O393 O 0.50074 0.53838 0.06797 0.0
O394 O 0.5039 0.46967 0.94005 0.0
O395 O 0.50022 0.53774 0.93985 0.0
O396 O 0.56696 0.50692 0.96855 0.0
O397 O 0.56707 0.50667 0.03962 0.0
O398 O 0.43778 0.5003 0.96854 0.0
O399 O 0.43789 0.50109 0.03982 0.0
O400 O 0.46458 0.56639 1.00378 0.0
O401 O 0.53395 0.56989 0.00706 0.0
O402 O 0.47119 0.43785 0.00767 0.0
O403 O 0.54044 0.44129 1.00461 0.0
O404 O 0.46831 0.50149 0.94 0.0
O405 O 0.53642 0.50568 0.94 0.0
O406 O 0.46846 0.50248 0.06827 0.0
O407 O 0.5366 0.50623 0.0682 0.0
O408 O 0.49849 0.56856 0.03916 0.0
O409 O 0.50054 0.56836 0.96829 0.0
O410 O 0.50563 0.43944 0.03965 0.0
O411 O 0.50473 0.43917 0.96862 0.0
O412 O 0.56856 0.4724 0.00523 0.0
O413 O 0.56506 0.54179 0.00629 0.0
O414 O 0.43995 0.46583 0.00736 0.0
O415 O 0.43635 0.53536 1.00506 0.0
C416 C 0.00866 0.44593 0.56178 0.0
C417 C 1.00293 0.44522 0.44806 0.0
C418 C 1.00152 0.56013 0.56148 0.0
C419 C 0.99873 0.55933 0.44725 0.0
C420 C 0.94306 0.55855 0.50595 0.0
C421 C 0.94486 0.44505 0.50536 0.0
C422 C 0.05855 0.56062 0.50307 0.0
C423 C 0.06045 0.44699 0.50499 0.0
C424 C 0.05898 0.50296 0.44704 0.0
C425 C 0.94322 0.50146 0.4489 0.0
C426 C 0.06076 0.5048 0.56052 0.0
C427 C 0.94501 0.50052 0.56244 0.0
Eu428 Eu 1.0025 0.45774 0.50503 0.0
O429 O 0.98125 0.48116 0.48401 0.0
O430 O 0.02291 0.48242 0.52537 0.0
Eu431 Eu 0.95807 0.50193 0.5055 0.0
Eu432 Eu 0.04569 0.5036 0.50399 0.0
O433 O 0.98172 0.48113 0.52668 0.0
O434 O 0.0225 0.48187 0.48347 0.0
Eu435 Eu 1.00264 0.50287 0.54995 0.0
Eu436 Eu 1.00124 0.5024 0.45965 0.0
O437 O 0.98134 0.52352 0.5261 0.0
O438 O 0.98067 0.52321 0.4839 0.0
O439 O 0.02188 0.52424 0.48299 0.0
O440 O 0.0224 0.52432 0.52546 0.0
Eu441 Eu 1.00106 0.54775 0.50443 0.0
O442 O 0.00679 0.43861 0.53954 0.0
O443 O 1.00298 0.43813 0.47047 0.0
O444 O 1.00107 0.56725 0.53907 0.0
O445 O 0.99947 0.56683 0.46953 0.0
O446 O 0.93713 0.5358 0.50643 0.0
O447 O 0.9383 0.46758 0.50482 0.0
O448 O 0.06527 0.53813 0.5032 0.0
O449 O 0.06643 0.46971 0.5048 0.0
O450 O 0.03654 0.50274 0.43952 0.0
O451 O 0.9654 0.5016 0.4407 0.0
O452 O 0.0386 0.50417 0.56881 0.0
O453 O 0.9674 0.50145 0.57005 0.0
O454 O 0.03611 0.56804 0.5034 0.0
O455 O 0.96523 0.56671 0.50494 0.0
O456 O 0.03827 0.43881 0.50477 0.0
O457 O 0.96728 0.4375 0.50616 0.0
O458 O 1.00215 0.46752 0.44061 0.0
O459 O 0.99931 0.53694 0.44011 0.0
O460 O 0.00682 0.46817 0.56929 0.0
O461 O 1.00214 0.53783 0.56898 0.0
O462 O 0.9384 0.50058 0.53992 0.0
O463 O 0.93726 0.50173 0.47162 0.0
O464 O 0.06659 0.50471 0.53778 0.0
O465 O 0.06554 0.50323 0.46959 0.0
C466 C 0.50218 0.94494 0.55979 0.0
C467 C 0.499 0.94715 0.44629 0.0
C468 C 0.4998 0.06075 0.56221 0.0
C469 C 0.49907 0.06267 0.44857 0.0
C470 C 0.44283 0.06094 0.50849 0.0
C471 C 0.44373 0.94579 0.50215 0.0
C472 C 0.55643 0.06209 0.505 0.0
C473 C 0.55737 0.94639 0.50273 0.0
C474 C 0.55642 0.0059 0.44657 0.0
C475 C 0.44234 0.01008 0.44826 0.0
C476 C 0.55781 1.0037 0.56077 0.0
C477 C 0.44371 0.99671 0.56157 0.0
Eu478 Eu 0.50048 0.96 0.50327 0.0
O479 O 0.47867 0.98328 0.48273 0.0
O480 O 0.52144 0.98307 0.52477 0.0
Eu481 Eu 0.45517 1.00348 0.50477 0.0
Eu482 Eu 0.54503 1.00416 0.5038 0.0
O483 O 0.47971 0.98286 0.52499 0.0
O484 O 0.52121 0.98373 0.48233 0.0
Eu485 Eu 0.50051 1.00304 0.54946 0.0
Eu486 Eu 0.49946 1.00469 0.45921 0.0
O487 O 0.47884 0.02411 0.52632 0.0
O488 O 0.47884 0.0246 0.48404 0.0
O489 O 0.52059 0.025 0.48347 0.0
O490 O 0.52119 0.02423 0.5256 0.0
Eu491 Eu 0.4997 0.0478 0.50526 0.0
O492 O 0.50162 0.93906 0.53706 0.0
O493 O 0.5001 0.94043 0.46876 0.0
O494 O 0.50006 0.06738 0.5397 0.0
O495 O 0.49884 0.06866 0.4713 0.0
O496 O 0.43524 0.03856 0.5081 0.0
O497 O 0.43585 0.96807 0.50183 0.0
O498 O 0.56437 0.03982 0.50407 0.0
O499 O 0.56497 0.96879 0.50351 0.0
O500 O 0.53399 0.00583 0.43949 0.0
O501 O 0.46445 0.00816 0.44046 0.0
O502 O 0.53554 1.00338 0.56833 0.0
O503 O 0.46592 0.99916 0.569 0.0
O504 O 0.53378 0.06827 0.50557 0.0
O505 O 0.46531 0.06765 0.50719 0.0
O506 O 0.53479 0.93991 0.5023 0.0
O507 O 0.46635 0.93955 0.50327 0.0
O508 O 0.4983 0.96962 0.4389 0.0
O509 O 0.49955 0.04049 0.44042 0.0
O510 O 0.50185 0.96708 0.56812 0.0
O511 O 0.49979 0.03829 0.56973 0.0
O512 O 0.43631 0.99805 0.5393 0.0
O513 O 0.4354 0.00846 0.47066 0.0
O514 O 0.56477 1.00396 0.53832 0.0
O515 O 0.56396 0.0051 0.46883 0.0
H516 H 0.18886 0.23838 0.49336 0.0
H517 H 0.16003 0.20765 0.48562 0.0
H518 H 0.2082 0.17394 0.43758 0.0
H519 H 0.23718 0.20527 0.44456 0.0
H520 H 0.14023 0.18526 0.44003 0.0
H521 H 0.19698 0.12929 0.49777 0.0
H522 H 0.19937 0.16101 0.49782 0.0
H523 H 0.21018 0.14446 0.4732 0.0
C524 C 0.1931 0.225 0.48044 0.0
C525 C 0.21541 0.22419 0.46968 0.0
C526 C 0.17659 0.2074 0.47612 0.0
C527 C 0.18216 0.18862 0.46117 0.0
C528 C 0.20375 0.18839 0.44922 0.0
H529 H 0.10699 0.05557 0.47577 0.0
H530 H 0.13536 0.08497 0.46251 0.0
C531 C 0.22028 0.20615 0.45338 0.0
C532 C 0.16662 0.16791 0.46104 0.0
H533 H 0.15942 0.11514 0.48869 0.0
C534 C 0.14449 0.16967 0.45024 0.0
C535 C 0.17242 0.14775 0.47443 0.0
C536 C 0.19597 0.14535 0.4866 0.0
C537 C 0.12756 0.15191 0.45315 0.0
C538 C 0.13284 0.13242 0.46779 0.0
C539 C 0.15542 0.13019 0.47759 0.0
C540 C 0.1149 0.11483 0.47449 0.0
C541 C 0.10414 0.15435 0.44078 0.0
C542 C 0.09417 0.12192 0.48596 0.0
C543 C 0.07785 0.10516 0.49354 0.0
C544 C 0.08226 0.08104 0.49016 0.0
C545 C 0.10321 0.07401 0.47894 0.0
C546 C 0.11935 0.09077 0.47115 0.0
H547 H 0.10578 0.16522 0.42457 0.0
H548 H 0.09676 0.13688 0.43594 0.0
H549 H 0.0915 0.16333 0.45268 0.0
H550 H 0.09078 0.14039 0.48939 0.0
H551 H 0.06191 0.11109 0.50219 0.0
H552 H 0.76963 0.1936 0.52853 0.0
H553 H 0.80064 0.16358 0.52748 0.0
H554 H 0.84145 0.20713 0.48045 0.0
H555 H 0.81032 0.23699 0.48082 0.0
H556 H 0.82363 0.14458 0.47798 0.0
H557 H 0.88119 0.18728 0.54529 0.0
H558 H 0.84953 0.19076 0.54565 0.0
H559 H 0.86667 0.20531 0.52349 0.0
C560 C 0.78509 0.19665 0.51776 0.0
C561 C 0.78763 0.21761 0.50478 0.0
C562 C 0.80275 0.1796 0.5173 0.0
C563 C 0.82315 0.18341 0.50399 0.0
C564 C 0.82575 0.20415 0.49091 0.0
H565 H 0.95434 0.10797 0.49125 0.0
H566 H 0.92296 0.1374 0.49062 0.0
C567 C 0.80808 0.22116 0.49126 0.0
C568 C 0.84183 0.16563 0.50372 0.0
H569 H 0.89514 0.15235 0.52778 0.0
C570 C 0.83929 0.14614 0.48884 0.0
C571 C 0.86211 0.16811 0.51784 0.0
C572 C 0.86521 0.18892 0.53409 0.0
C573 C 0.85685 0.12887 0.48759 0.0
C574 C 0.87705 0.13112 0.502 0.0
C575 C 0.87957 0.15075 0.51681 0.0
C576 C 0.89578 0.11323 0.5021 0.0
C577 C 0.85385 0.10867 0.47054 0.0
C578 C 0.89079 0.09006 0.50904 0.0
C579 C 0.90859 0.07319 0.50933 0.0
C580 C 0.93174 0.07933 0.50296 0.0
C581 C 0.93671 0.10268 0.49632 0.0
C582 C 0.91884 0.11951 0.49591 0.0
H583 H 0.84086 0.11292 0.45651 0.0
H584 H 0.87088 0.10398 0.46213 0.0
H585 H 0.8473 0.09299 0.48023 0.0
H586 H 0.87316 0.08509 0.51443 0.0
H587 H 0.90424 0.05542 0.51481 0.0
H588 H 0.80958 0.77373 0.47128 0.0
H589 H 0.84177 0.80251 0.47122 0.0
H590 H 0.80847 0.84008 0.52826 0.0
H591 H 0.77651 0.81112 0.52881 0.0
H592 H 0.83848 0.85268 0.46531 0.0
H593 H 0.87652 0.82641 0.55166 0.0
H594 H 0.85637 0.80789 0.5354 0.0
H595 H 0.84543 0.83245 0.55212 0.0
C596 C 0.80924 0.78807 0.48388 0.0
C597 C 0.79069 0.7902 0.50013 0.0
C598 C 0.82751 0.80448 0.48374 0.0
C599 C 0.82751 0.8231 0.49994 0.0
C600 C 0.80882 0.82556 0.51587 0.0
H601 H 0.90497 0.95269 0.50222 0.0
H602 H 0.87529 0.92172 0.50004 0.0
C603 C 0.79053 0.80919 0.51601 0.0
C604 C 0.847 0.84013 0.5001 0.0
H605 H 0.89122 0.86172 0.53452 0.0
C606 C 0.85013 0.85462 0.48034 0.0
C607 C 0.86224 0.84225 0.51967 0.0
C608 C 0.86018 0.8263 0.54086 0.0
C609 C 0.86785 0.87178 0.47991 0.0
C610 C 0.88247 0.87453 0.49987 0.0
C611 C 0.87976 0.85959 0.51936 0.0
C612 C 0.90046 0.89311 0.50106 0.0
C613 C 0.87085 0.88676 0.45814 0.0
C614 C 0.92431 0.8871 0.50292 0.0
C615 C 0.94138 0.90472 0.50431 0.0
C616 C 0.93477 0.92862 0.504 0.0
C617 C 0.91074 0.93449 0.50243 0.0
C618 C 0.89373 0.91685 0.50102 0.0
H619 H 0.86231 0.87863 0.44251 0.0
H620 H 0.86258 0.90422 0.46115 0.0
H621 H 0.8898 0.88964 0.45421 0.0
H622 H 0.92972 0.86878 0.50314 0.0
H623 H 0.9597 0.89953 0.50554 0.0
H624 H 0.18797 0.77306 0.51679 0.0
H625 H 0.16083 0.80533 0.52429 0.0
H626 H 0.21316 0.84002 0.56705 0.0
H627 H 0.24046 0.80718 0.56038 0.0
H628 H 0.14539 0.83132 0.57034 0.0
H629 H 0.19877 0.88122 0.50443 0.0
H630 H 0.19977 0.84945 0.50592 0.0
H631 H 0.21339 0.8667 0.5286 0.0
C632 C 0.19351 0.78702 0.52856 0.0
C633 C 0.21648 0.78761 0.53787 0.0
C634 C 0.17797 0.80551 0.53272 0.0
C635 C 0.18516 0.82496 0.54606 0.0
C636 C 0.20745 0.82506 0.55665 0.0
H637 H 0.11113 0.95874 0.52848 0.0
H638 H 0.14048 0.92996 0.54107 0.0
C639 C 0.22302 0.80642 0.55267 0.0
C640 C 0.17034 0.84618 0.54596 0.0
H641 H 0.16228 0.89706 0.51513 0.0
C642 C 0.1492 0.84598 0.55867 0.0
C643 C 0.17555 0.86514 0.5307 0.0
C644 C 0.19805 0.86582 0.51651 0.0
C645 C 0.13259 0.86404 0.55583 0.0
C646 C 0.13712 0.88221 0.53936 0.0
C647 C 0.15884 0.88301 0.52763 0.0
C648 C 0.11899 0.89959 0.53266 0.0
C649 C 0.11023 0.86326 0.57019 0.0
C650 C 0.09743 0.89198 0.52326 0.0
C651 C 0.08059 0.90835 0.51603 0.0
C652 C 0.0852 0.93262 0.51775 0.0
C653 C 0.10706 0.94017 0.52672 0.0
C654 C 0.1238 0.92378 0.53411 0.0
H655 H 0.11293 0.85356 0.58698 0.0
H656 H 0.10375 0.88127 0.57427 0.0
H657 H 0.0964 0.85385 0.56005 0.0
H658 H 0.0937 0.87336 0.52129 0.0
H659 H 0.06401 0.90194 0.50907 0.0
H660 H 0.51099 0.23443 0.19137 0.0
H661 H 0.51815 0.20275 0.16338 0.0
H662 H 0.56231 0.16734 0.21406 0.0
H663 H 0.55591 0.19953 0.2422 0.0
H664 H 0.56452 0.17919 0.14656 0.0
H665 H 0.5016 0.12427 0.1986 0.0
H666 H 0.50188 0.156 0.20099 0.0
H667 H 0.5254 0.13906 0.21356 0.0
C668 C 0.52288 0.22036 0.19638 0.0
C669 C 0.53282 0.21945 0.21906 0.0
C670 C 0.52684 0.20223 0.18038 0.0
C671 C 0.54061 0.18282 0.18683 0.0
C672 C 0.55156 0.18226 0.20894 0.0
H673 H 0.52988 0.0509 0.10842 0.0
H674 H 0.54061 0.07948 0.13869 0.0
C675 C 0.54775 0.20054 0.22498 0.0
C676 C 0.54116 0.16224 0.17116 0.0
H677 H 0.51291 0.11015 0.16156 0.0
C678 C 0.55362 0.16384 0.14993 0.0
C679 C 0.52692 0.14236 0.17582 0.0
C680 C 0.51306 0.14015 0.19841 0.0
C681 C 0.55155 0.14627 0.13272 0.0
C682 C 0.5361 0.12711 0.13675 0.0
C683 C 0.52461 0.12496 0.15851 0.0
C684 C 0.53033 0.10992 0.11814 0.0
C685 C 0.56566 0.14857 0.11031 0.0
C686 C 0.52049 0.11761 0.09679 0.0
C687 C 0.51435 0.10137 0.07942 0.0
C688 C 0.51759 0.07712 0.0833 0.0
C689 C 0.52695 0.06945 0.10494 0.0
C690 C 0.53327 0.08574 0.12221 0.0
H691 H 0.58191 0.15911 0.11319 0.0
H692 H 0.5707 0.13103 0.10323 0.0
H693 H 0.55489 0.15781 0.09685 0.0
H694 H 0.51737 0.13618 0.09364 0.0
H695 H 0.50703 0.10782 0.06301 0.0
H696 H 0.77298 0.47456 0.1997 0.0
H697 H 0.80388 0.47448 0.1696 0.0
H698 H 0.83967 0.53088 0.20592 0.0
H699 H 0.80858 0.53147 0.23578 0.0
H700 H 0.83345 0.53761 0.15643 0.0
H701 H 0.8724 0.45045 0.17873 0.0
H702 H 0.84104 0.45053 0.17424 0.0
H703 H 0.85341 0.46637 0.19868 0.0
C704 C 0.7874 0.48699 0.20117 0.0
C705 C 0.7885 0.50298 0.22003 0.0
C706 C 0.80508 0.48678 0.18415 0.0
C707 C 0.82407 0.50247 0.18584 0.0
C708 C 0.82515 0.51855 0.20453 0.0
H709 H 0.955 0.50229 0.10921 0.0
H710 H 0.92432 0.50222 0.13927 0.0
C711 C 0.80751 0.51877 0.22157 0.0
C712 C 0.84257 0.50254 0.16777 0.0
H713 H 0.88648 0.46916 0.14412 0.0
C714 C 0.84511 0.5227 0.15371 0.0
C715 C 0.85776 0.48309 0.1646 0.0
C716 C 0.85623 0.46143 0.17997 0.0
C717 C 0.86241 0.52382 0.13621 0.0
C718 C 0.87722 0.50414 0.13265 0.0
C719 C 0.87488 0.48409 0.1469 0.0
C720 C 0.89553 0.50415 0.11438 0.0
C721 C 0.86496 0.5461 0.12189 0.0
C722 C 0.88928 0.50499 0.09053 0.0
C723 C 0.90671 0.50506 0.07326 0.0
C724 C 0.93066 0.50419 0.07963 0.0
C725 C 0.93676 0.50308 0.10364 0.0
C726 C 0.9193 0.50299 0.12086 0.0
H727 H 0.85585 0.56126 0.13028 0.0
H728 H 0.88383 0.55067 0.11945 0.0
H729 H 0.85708 0.54333 0.10421 0.0
H730 H 0.87093 0.50552 0.0853 0.0
H731 H 0.90135 0.50584 0.05496 0.0
H732 H 0.50629 0.81816 0.23355 0.0
H733 H 0.5137 0.84633 0.20206 0.0
H734 H 0.55891 0.79619 0.1673 0.0
H735 H 0.55228 0.76789 0.19933 0.0
H736 H 0.56111 0.8632 0.17907 0.0
H737 H 0.49799 0.8119 0.12369 0.0
H738 H 0.49767 0.80975 0.15543 0.0
H739 H 0.52129 0.79671 0.13904 0.0
C740 C 0.51846 0.81331 0.21968 0.0
C741 C 0.52865 0.79073 0.2189 0.0
C742 C 0.52256 0.82941 0.20165 0.0
C743 C 0.53672 0.82317 0.18248 0.0
C744 C 0.54787 0.80116 0.18206 0.0
H745 H 0.52812 0.90181 0.05058 0.0
H746 H 0.5381 0.87139 0.07931 0.0
C747 C 0.54394 0.78503 0.20023 0.0
C748 C 0.53751 0.83892 0.16198 0.0
H749 H 0.50967 0.84895 0.10977 0.0
C750 C 0.55024 0.86 0.16367 0.0
C751 C 0.5233 0.83448 0.14205 0.0
C752 C 0.50917 0.81204 0.13976 0.0
C753 C 0.54851 0.87726 0.1461 0.0
C754 C 0.53314 0.87344 0.12685 0.0
C755 C 0.52133 0.85184 0.12465 0.0
C756 C 0.5278 0.89212 0.10958 0.0
C757 C 0.56292 0.89949 0.14848 0.0
C758 C 0.51821 0.91361 0.11714 0.0
C759 C 0.5125 0.93107 0.10081 0.0
C760 C 0.51594 0.92713 0.07662 0.0
C761 C 0.52505 0.90534 0.06908 0.0
C762 C 0.53094 0.88799 0.08545 0.0
H763 H 0.57902 0.8964 0.15918 0.0
H764 H 0.56822 0.90647 0.13099 0.0
H765 H 0.55225 0.91311 0.15758 0.0
H766 H 0.51494 0.91683 0.13566 0.0
H767 H 0.50535 0.94758 0.10716 0.0
H768 H 0.20235 0.55229 0.23946 0.0
H769 H 0.17094 0.55612 0.2099 0.0
H770 H 0.20671 0.50611 0.16532 0.0
H771 H 0.23767 0.50168 0.19471 0.0
H772 H 0.17617 0.56325 0.15271 0.0
H773 H 0.13699 0.48057 0.18843 0.0
H774 H 0.15529 0.49981 0.20601 0.0
H775 H 0.16845 0.48103 0.18427 0.0
C776 C 0.20361 0.54237 0.22321 0.0
C777 C 0.22239 0.52666 0.21939 0.0
C778 C 0.18582 0.5447 0.20637 0.0
C779 C 0.18672 0.53134 0.18566 0.0
C780 C 0.20596 0.5166 0.18126 0.0
H781 H 0.11103 0.51343 0.05734 0.0
H782 H 0.13987 0.52139 0.08826 0.0
C783 C 0.22366 0.51422 0.19801 0.0
C784 C 0.16655 0.53065 0.16957 0.0
H785 H 0.1219 0.49457 0.15221 0.0
C786 C 0.16404 0.54846 0.15268 0.0
C787 C 0.15087 0.51135 0.16992 0.0
C788 C 0.15281 0.49211 0.1882 0.0
C789 C 0.14648 0.54698 0.13538 0.0
C790 C 0.13154 0.52704 0.13501 0.0
C791 C 0.13354 0.50974 0.15253 0.0
C792 C 0.11407 0.52327 0.11626 0.0
C793 C 0.14414 0.56661 0.11759 0.0
C794 C 0.09021 0.52103 0.12202 0.0
C795 C 0.0737 0.5162 0.10455 0.0
C796 C 0.08085 0.51342 0.08096 0.0
C797 C 0.10489 0.51549 0.07531 0.0
C798 C 0.12139 0.52029 0.09286 0.0
H799 H 0.15231 0.5832 0.12404 0.0
H800 H 0.15325 0.56144 0.10109 0.0
H801 H 0.12535 0.57005 0.11335 0.0
H802 H 0.08435 0.52305 0.14009 0.0
H803 H 0.05538 0.51482 0.10958 0.0
H804 H 0.52724 0.77524 0.80842 0.0
H805 H 0.52675 0.8068 0.83778 0.0
H806 H 0.47001 0.84093 0.80041 0.0
H807 H 0.46996 0.80911 0.77127 0.0
H808 H 0.53335 0.85596 0.82837 0.0
H809 H 0.44668 0.83581 0.8696 0.0
H810 H 0.46243 0.81475 0.8517 0.0
H811 H 0.44665 0.83854 0.83804 0.0
C812 C 0.51445 0.7893 0.80667 0.0
C813 C 0.49857 0.78975 0.78769 0.0
C814 C 0.5143 0.80733 0.8233 0.0
C815 C 0.49821 0.82594 0.82124 0.0
C816 C 0.48234 0.82649 0.80235 0.0
H817 H 0.50511 0.95845 0.89789 0.0
H818 H 0.50304 0.92876 0.86681 0.0
C819 C 0.48247 0.80846 0.78568 0.0
C820 C 0.49849 0.84507 0.83866 0.0
H821 H 0.46626 0.87024 0.88257 0.0
C822 C 0.51871 0.85918 0.84022 0.0
C823 C 0.47934 0.84893 0.85405 0.0
C824 C 0.45758 0.83363 0.85349 0.0
C825 C 0.52033 0.87718 0.85699 0.0
C826 C 0.5011 0.88118 0.87224 0.0
C827 C 0.48085 0.86711 0.87063 0.0
C828 C 0.5021 0.89916 0.89081 0.0
C829 C 0.54278 0.89136 0.85869 0.0
C830 C 0.50186 0.89217 0.91446 0.0
C831 C 0.50296 0.90899 0.93226 0.0
C832 C 0.50422 0.93312 0.92666 0.0
C833 C 0.50426 0.94003 0.90285 0.0
C834 C 0.50316 0.92314 0.88505 0.0
H835 H 0.55748 0.88303 0.84882 0.0
H836 H 0.53974 0.90918 0.85122 0.0
H837 H 0.54818 0.89351 0.87738 0.0
H838 H 0.501 0.87366 0.91912 0.0
H839 H 0.50283 0.90298 0.95037 0.0
H840 H 0.20035 0.47759 0.77139 0.0
H841 H 0.17027 0.47867 0.80229 0.0
H842 H 0.20709 0.53585 0.83631 0.0
H843 H 0.237 0.53522 0.80522 0.0
H844 H 0.17911 0.47323 0.85226 0.0
H845 H 0.13761 0.5589 0.82851 0.0
H846 H 0.15573 0.5424 0.80821 0.0
H847 H 0.16917 0.55917 0.83142 0.0
C848 C 0.20183 0.49057 0.78532 0.0
C849 C 0.22086 0.50639 0.78598 0.0
C850 C 0.18479 0.49106 0.80294 0.0
C851 C 0.18651 0.50746 0.82129 0.0
C852 C 0.20545 0.52327 0.82204 0.0
H853 H 0.11194 0.50697 0.95415 0.0
H854 H 0.14208 0.50703 0.92349 0.0
C855 C 0.22254 0.52276 0.80445 0.0
C856 C 0.16872 0.50763 0.84001 0.0
H857 H 0.12474 0.54076 0.86381 0.0
C858 C 0.16717 0.48795 0.85485 0.0
C859 C 0.15321 0.52684 0.843 0.0
C860 C 0.15378 0.54799 0.82686 0.0
C861 C 0.15045 0.48703 0.87291 0.0
C862 C 0.13523 0.50644 0.87618 0.0
C863 C 0.13666 0.52605 0.86122 0.0
C864 C 0.11717 0.50645 0.89465 0.0
C865 C 0.14888 0.46523 0.88808 0.0
C866 C 0.09334 0.50652 0.88836 0.0
C867 C 0.07605 0.50657 0.90573 0.0
C868 C 0.0824 0.50667 0.92969 0.0
C869 C 0.10641 0.5068 0.93588 0.0
C870 C 0.12368 0.50674 0.91844 0.0
H871 H 0.15847 0.4501 0.88019 0.0
H872 H 0.15679 0.46898 0.90557 0.0
H873 H 0.13021 0.46007 0.89088 0.0
H874 H 0.08812 0.50638 0.86998 0.0
H875 H 0.05776 0.50652 0.90029 0.0
H876 H 0.51733 0.19738 0.77318 0.0
H877 H 0.51592 0.16882 0.80532 0.0
H878 H 0.46353 0.21091 0.84078 0.0
H879 H 0.46441 0.23946 0.8083 0.0
H880 H 0.52593 0.1824 0.85387 0.0
H881 H 0.43765 0.14126 0.84095 0.0
H882 H 0.45298 0.1564 0.8175 0.0
H883 H 0.43928 0.17296 0.84064 0.0
C884 C 0.50509 0.20028 0.78754 0.0
C885 C 0.4909 0.22054 0.78827 0.0
C886 C 0.50445 0.18408 0.8059 0.0
C887 C 0.48956 0.18785 0.8252 0.0
C888 C 0.47494 0.20772 0.82582 0.0
H889 H 0.5048 0.11269 0.95837 0.0
H890 H 0.49982 0.1439 0.92915 0.0
C891 C 0.47559 0.22401 0.80742 0.0
C892 C 0.49059 0.17157 0.84526 0.0
H893 H 0.46028 0.12791 0.87316 0.0
C894 C 0.51156 0.17058 0.85828 0.0
C895 C 0.47175 0.15627 0.85066 0.0
C896 C 0.44913 0.15654 0.83669 0.0
C897 C 0.5144 0.15419 0.87645 0.0
C898 C 0.49564 0.13872 0.88174 0.0
C899 C 0.47451 0.13999 0.86899 0.0
C900 C 0.49823 0.12007 0.89946 0.0
C901 C 0.53765 0.15294 0.88931 0.0
C902 C 0.49874 0.0965 0.89225 0.0
C903 C 0.50159 0.07862 0.90879 0.0
C904 C 0.50386 0.08408 0.93286 0.0
C905 C 0.50324 0.10784 0.93998 0.0
C906 C 0.5004 0.12571 0.92337 0.0
H907 H 0.55158 0.16342 0.88039 0.0
H908 H 0.53541 0.15995 0.90742 0.0
H909 H 0.5437 0.13438 0.89078 0.0
H910 H 0.49709 0.09196 0.87378 0.0
H911 H 0.50186 0.06055 0.90265 0.0
H912 H 0.77234 0.48455 0.81157 0.0
H913 H 0.80325 0.48544 0.84157 0.0
H914 H 0.8384 0.54143 0.80399 0.0
H915 H 0.8072 0.54106 0.77413 0.0
H916 H 0.85224 0.47805 0.83231 0.0
H917 H 0.83352 0.56521 0.87319 0.0
H918 H 0.81217 0.54967 0.8554 0.0
H919 H 0.83616 0.56501 0.84161 0.0
C920 C 0.78644 0.49733 0.80993 0.0
C921 C 0.78739 0.51282 0.79064 0.0
C922 C 0.8041 0.4977 0.82694 0.0
C923 C 0.82285 0.51362 0.82497 0.0
C924 C 0.82382 0.52924 0.80586 0.0
H925 H 0.95598 0.50607 0.89943 0.0
H926 H 0.92542 0.50805 0.86922 0.0
C927 C 0.80616 0.52887 0.78879 0.0
C928 C 0.8419 0.51313 0.84247 0.0
H929 H 0.86773 0.54518 0.88617 0.0
C930 C 0.8557 0.49269 0.8441 0.0
C931 C 0.84607 0.53227 0.8578 0.0
C932 C 0.83112 0.55425 0.85714 0.0
C933 C 0.87374 0.49088 0.8608 0.0
C934 C 0.87811 0.51014 0.87592 0.0
C935 C 0.86429 0.53056 0.87434 0.0
C936 C 0.89655 0.50913 0.89405 0.0
C937 C 0.88765 0.46827 0.86248 0.0
C938 C 0.89025 0.50946 0.91788 0.0
C939 C 0.90758 0.50839 0.93521 0.0
C940 C 0.93153 0.5071 0.92892 0.0
C941 C 0.93773 0.50696 0.90492 0.0
C942 C 0.92034 0.50801 0.88761 0.0
H943 H 0.87893 0.45358 0.85291 0.0
H944 H 0.90535 0.47101 0.85464 0.0
H945 H 0.8901 0.46302 0.88117 0.0
H946 H 0.87189 0.51039 0.92305 0.0
H947 H 0.90214 0.50865 0.95349 0.0
H948 H 0.73305 0.68874 0.00952 0.0
H949 H 0.70093 0.66099 0.01574 0.0
H950 H 0.66555 0.71129 0.06028 0.0
H951 H 0.69816 0.73917 0.05481 0.0
H952 H 0.67639 0.64352 0.06129 0.0
H953 H 0.62311 0.69772 0.99879 0.0
H954 H 0.65486 0.69968 0.99961 0.0
H955 H 0.63774 0.71199 0.0231 0.0
C956 C 0.71889 0.6937 0.0213 0.0
C957 C 0.7181 0.71623 0.03159 0.0
C958 C 0.7005 0.67783 0.02472 0.0
C959 C 0.68096 0.68427 0.0383 0.0
C960 C 0.68056 0.70618 0.04965 0.0
H961 H 0.54787 0.60771 0.02544 0.0
H962 H 0.57675 0.63763 0.03654 0.0
C963 C 0.69908 0.72207 0.04638 0.0
C964 C 0.66014 0.66888 0.03825 0.0
H965 H 0.60812 0.66077 0.00938 0.0
C966 C 0.66123 0.64737 0.05031 0.0
C967 C 0.64048 0.67417 0.02392 0.0
C968 C 0.63881 0.69708 0.01049 0.0
C969 C 0.64335 0.63052 0.04777 0.0
C970 C 0.62441 0.63519 0.03224 0.0
C971 C 0.62277 0.65722 0.02114 0.0
C972 C 0.60698 0.61696 0.02594 0.0
C973 C 0.6451 0.60778 0.06147 0.0
C974 C 0.61444 0.59573 0.01572 0.0
C975 C 0.59804 0.57859 0.00935 0.0
C976 C 0.57384 0.58256 0.01278 0.0
C977 C 0.56638 0.60416 0.02239 0.0
C978 C 0.58283 0.62122 0.02892 0.0
H979 H 0.65559 0.61015 0.07784 0.0
H980 H 0.6274 0.60095 0.06626 0.0
H981 H 0.65415 0.59435 0.05052 0.0
H982 H 0.63297 0.59246 0.01256 0.0
H983 H 0.60435 0.56224 1.00182 0.0
H984 H 0.26786 0.69981 0.0447 0.0
H985 H 0.29629 0.66735 0.04657 0.0
H986 H 0.3441 0.70656 1.00241 0.0
H987 H 0.31563 0.73866 0.99969 0.0
H988 H 0.31517 0.64526 1.0011 0.0
H989 H 0.38299 0.68139 0.06203 0.0
H990 H 0.35255 0.6908 0.06264 0.0
H991 H 0.37185 0.70114 0.03983 0.0
C992 C 0.28446 0.70153 0.03546 0.0
C993 C 0.28952 0.72175 0.02201 0.0
C994 C 0.30066 0.68309 0.03668 0.0
C995 C 0.32219 0.68484 0.02479 0.0
C996 C 0.32762 0.70521 0.01197 0.0
H997 H 0.44439 0.60452 0.99272 0.0
H998 H 0.41362 0.63405 0.99819 0.0
C999 C 0.31139 0.72353 0.01054 0.0
C1000 C 0.33833 0.6647 0.024 0.0
H1001 H 0.39336 0.64726 0.04023 0.0
C1002 C 0.33217 0.64542 0.00987 0.0
C1003 C 0.3604 0.66535 0.03536 0.0
C1004 C 0.36741 0.68569 0.05098 0.0
C1005 C 0.34808 0.62698 0.00599 0.0
C1006 C 0.37038 0.62779 0.01706 0.0
C1007 C 0.37622 0.6468 0.03176 0.0
C1008 C 0.38835 0.60957 0.01293 0.0
C1009 C 0.3413 0.60741 0.9893 0.0
C1010 C 0.38415 0.58608 0.01933 0.0
C1011 C 0.40159 0.56912 0.01601 0.0
C1012 C 0.42359 0.57552 0.00659 0.0
C1013 C 0.42765 0.59907 1.0001 0.0
C1014 C 0.41014 0.61595 1.00322 0.0
H1015 H 0.32614 0.61241 0.97796 0.0
H1016 H 0.35635 0.60249 0.97781 0.0
H1017 H 0.33613 0.59162 0.99963 0.0
H1018 H 0.36758 0.58097 0.0273 0.0
H1019 H 0.39806 0.55116 0.02147 0.0
H1020 H 0.27541 0.31947 0.01815 0.0
H1021 H 0.30707 0.3473 0.02556 0.0
H1022 H 0.34237 0.29619 0.06934 0.0
H1023 H 0.31012 0.26815 0.06269 0.0
H1024 H 0.33187 0.36485 0.06989 0.0
H1025 H 0.3845 0.30903 0.00832 0.0
H1026 H 0.35282 0.30676 0.0098 0.0
H1027 H 0.37055 0.29542 0.03336 0.0
C1028 C 0.28936 0.31434 0.03012 0.0
C1029 C 0.29031 0.29149 0.03971 0.0
C1030 C 0.30751 0.33028 0.03424 0.0
C1031 C 0.32699 0.32362 0.04781 0.0
C1032 C 0.32741 0.30147 0.05872 0.0
H1033 H 0.45861 0.40093 0.02808 0.0
H1034 H 0.43073 0.37124 0.04178 0.0
C1035 C 0.3091 0.28549 0.05477 0.0
C1036 C 0.34795 0.33881 0.0475 0.0
H1037 H 0.39911 0.34651 0.01711 0.0
C1038 C 0.34688 0.36073 0.05879 0.0
C1039 C 0.36737 0.33322 0.03299 0.0
C1040 C 0.36904 0.30989 0.02029 0.0
C1041 C 0.36441 0.37773 0.05513 0.0
C1042 C 0.38297 0.37275 0.03926 0.0
C1043 C 0.38473 0.35029 0.02911 0.0
C1044 C 0.39977 0.39101 0.03155 0.0
C1045 C 0.36263 0.40098 0.0679 0.0
C1046 C 0.39154 0.41165 0.02068 0.0
C1047 C 0.4074 0.42869 0.01281 0.0
C1048 C 0.43177 0.42515 0.01533 0.0
C1049 C 0.43995 0.40411 0.02563 0.0
C1050 C 0.42407 0.3872 0.03368 0.0
H1051 H 0.3528 0.39907 0.08473 0.0
H1052 H 0.38033 0.40839 0.07176 0.0
H1053 H 0.35288 0.41373 0.05674 0.0
H1054 H 0.37285 0.41453 0.01816 0.0
H1055 H 0.40056 0.44463 1.00484 0.0
H1056 H 0.74232 0.31385 0.04181 0.0
H1057 H 0.71263 0.34519 0.04335 0.0
H1058 H 0.66606 0.30342 1.00024 0.0
H1059 H 0.69577 0.27244 0.99782 0.0
H1060 H 0.6914 0.36571 0.99733 0.0
H1061 H 0.62759 0.32738 0.06124 0.0
H1062 H 0.65855 0.31982 0.06131 0.0
H1063 H 0.63941 0.30792 0.03915 0.0
C1064 C 0.72575 0.31135 0.03267 0.0
C1065 C 0.72136 0.29069 0.01969 0.0
C1066 C 0.70883 0.32915 0.03371 0.0
C1067 C 0.68726 0.32634 0.02208 0.0
C1068 C 0.68257 0.30561 0.00958 0.0
H1069 H 0.56068 0.40282 0.99468 0.0
H1070 H 0.59219 0.37387 0.99923 0.0
C1071 C 0.69951 0.28792 0.00833 0.0
C1072 C 0.67012 0.34566 0.02147 0.0
H1073 H 0.61522 0.36113 0.03999 0.0
C1074 C 0.67483 0.36497 0.00683 0.0
C1075 C 0.6486 0.34424 0.03377 0.0
C1076 C 0.64315 0.32382 0.04991 0.0
C1077 C 0.65804 0.38273 1.00349 0.0
C1078 C 0.63634 0.38124 0.01564 0.0
C1079 C 0.6319 0.36213 0.03071 0.0
C1080 C 0.61768 0.39898 0.01247 0.0
C1081 C 0.66329 0.40236 0.98631 0.0
C1082 C 0.62169 0.42259 0.01847 0.0
C1083 C 0.60383 0.43921 0.01569 0.0
C1084 C 0.58158 0.43236 0.0072 0.0
C1085 C 0.57761 0.40863 1.00131 0.0
C1086 C 0.59556 0.39208 1.00391 0.0
H1087 H 0.67789 0.39766 0.97414 0.0
H1088 H 0.64748 0.4068 0.97568 0.0
H1089 H 0.66866 0.41833 0.99622 0.0
H1090 H 0.63852 0.4281 0.0256 0.0
H1091 H 0.60733 0.4573 0.02071 0.0
H1092 H 0.97947 0.74006 0.69674 0.0
H1093 H 0.9787 0.70945 0.66631 0.0
H1094 H 0.02454 0.66599 0.70855 0.0
H1095 H 0.02602 0.69669 0.73878 0.0
H1096 H 0.0269 0.68562 0.6463 0.0
H1097 H 0.95892 0.62837 0.68832 0.0
H1098 H 0.95947 0.65992 0.69276 0.0
H1099 H 0.98132 0.64174 0.7065 0.0
C1100 C 0.98954 0.72407 0.69944 0.0
C1101 C 1.00279 0.72071 0.72011 0.0
C1102 C 0.98896 0.70664 0.68217 0.0
C1103 C 1.00145 0.68563 0.68546 0.0
C1104 C 0.01467 0.68214 0.70598 0.0
H1105 H 0.01279 0.55569 0.60809 0.0
H1106 H 0.01309 0.58669 0.63791 0.0
C1107 C 0.01538 0.69959 0.72321 0.0
C1108 C 1.00107 0.66739 0.66722 0.0
H1109 H 0.9762 0.61463 0.65316 0.0
C1110 C 0.01581 0.6701 0.64764 0.0
C1111 C 0.98667 0.64727 0.66942 0.0
C1112 C 0.97057 0.64399 0.69031 0.0
C1113 C 0.01672 0.65283 0.63007 0.0
C1114 C 1.00207 0.63276 0.63208 0.0
C1115 C 0.98733 0.63011 0.65174 0.0
C1116 C 1.00185 0.6142 0.61399 0.0
C1117 C 0.03373 0.65594 0.60986 0.0
C1118 C 0.99511 0.61948 0.59084 0.0
C1119 C 0.99503 0.60189 0.57373 0.0
C1120 C 1.00141 0.57867 0.57962 0.0
C1121 C 0.00773 0.57338 0.60299 0.0
C1122 C 0.00795 0.59104 0.62003 0.0
H1123 H 0.04789 0.66875 0.61421 0.0
H1124 H 0.04199 0.63889 0.60495 0.0
H1125 H 0.02404 0.66275 0.5943 0.0
H1126 H 0.98979 0.63718 0.58603 0.0
H1127 H 0.98977 0.60648 0.55596 0.0
H1128 H 0.27015 0.95004 0.70306 0.0
H1129 H 0.29874 0.94184 0.67178 0.0
H1130 H 0.35118 0.98235 0.70895 0.0
H1131 H 0.32282 0.99143 0.73956 0.0
H1132 H 0.31792 0.98179 0.6475 0.0
H1133 H 0.38842 0.9248 0.68377 0.0
H1134 H 0.35898 0.9257 0.69595 0.0
H1135 H 0.37995 0.94836 0.70312 0.0
C1136 C 0.28789 0.95687 0.70475 0.0
C1137 C 0.2941 0.97156 0.72374 0.0
C1138 C 0.30422 0.95196 0.687 0.0
C1139 C 0.32706 0.96128 0.68828 0.0
C1140 C 0.33378 0.97454 0.70797 0.0
H1141 H 0.44513 1.00481 0.60904 0.0
H1142 H 0.41572 0.99311 0.63833 0.0
C1143 C 0.31747 0.97969 0.72551 0.0
C1144 C 0.3426 0.96107 0.66752 0.0
H1145 H 0.39897 0.94921 0.65066 0.0
C1146 C 0.33547 0.9742 0.64785 0.0
C1147 C 0.36547 0.95137 0.66834 0.0
C1148 C 0.37363 0.93658 0.68886 0.0
C1149 C 0.35119 0.97926 0.62955 0.0
C1150 C 0.37443 0.97031 0.63075 0.0
C1151 C 0.38117 0.95613 0.64989 0.0
C1152 C 0.39236 0.97665 0.61304 0.0
C1153 C 0.34321 0.99536 0.6099 0.0
C1154 C 0.38896 0.9711 0.58923 0.0
C1155 C 0.40545 0.97813 0.57247 0.0
C1156 C 0.42586 0.99044 0.57931 0.0
C1157 C 0.42951 0.99548 0.60325 0.0
C1158 C 0.41281 0.98872 0.61998 0.0
H1159 H 0.32696 0.0052 0.61463 0.0
H1160 H 0.35717 0.00829 0.60531 0.0
H1161 H 0.33931 0.98468 0.594 0.0
H1162 H 0.37357 0.96129 0.58362 0.0
H1163 H 0.40242 0.97348 0.5542 0.0
H1164 H 0.06319 0.27195 0.70007 0.0
H1165 H 0.06938 0.30125 0.66895 0.0
H1166 H 0.02828 0.35171 0.70809 0.0
H1167 H 0.02112 0.32261 0.73854 0.0
H1168 H 0.02748 0.31951 0.64652 0.0
H1169 H 0.08409 0.39107 0.68144 0.0
H1170 H 0.08469 0.36135 0.693 0.0
H1171 H 0.06169 0.38136 0.7016 0.0
C1172 C 0.05579 0.28941 0.70222 0.0
C1173 C 0.0415 0.29483 0.72173 0.0
C1174 C 0.05956 0.30615 0.68456 0.0
C1175 C 0.04951 0.32863 0.68646 0.0
C1176 C 0.03665 0.3346 0.70663 0.0
H1177 H 1.00153 0.44705 0.60944 0.0
H1178 H 0.0141 0.41753 0.63832 0.0
C1179 C 0.03261 0.31787 0.72407 0.0
C1180 C 0.04848 0.34443 0.66594 0.0
H1181 H 0.05844 0.40126 0.64926 0.0
C1182 C 0.03469 0.33723 0.64675 0.0
C1183 C 0.05767 0.36752 0.66666 0.0
C1184 C 0.07304 0.37577 0.6867 0.0
C1185 C 0.02855 0.35305 0.62886 0.0
C1186 C 0.03709 0.37646 0.62995 0.0
C1187 C 0.05184 0.38332 0.64859 0.0
C1188 C 0.02996 0.39435 0.6125 0.0
C1189 C 0.01184 0.34493 0.6098 0.0
C1190 C 0.03485 0.39106 0.58855 0.0
C1191 C 0.0273 0.40758 0.57204 0.0
C1192 C 0.01514 0.42793 0.57929 0.0
C1193 C 0.0107 0.43145 0.60336 0.0
C1194 C 0.01798 0.41471 0.61985 0.0
H1195 H 1.00234 0.32857 0.61488 0.0
H1196 H 0.99862 0.35876 0.60567 0.0
H1197 H 0.02198 0.34113 0.59353 0.0
H1198 H 0.0446 0.37577 0.58262 0.0
H1199 H 0.03153 0.40466 0.55366 0.0
H1200 H 0.73484 0.03569 0.69747 0.0
H1201 H 0.70377 0.03504 0.66749 0.0
H1202 H 0.6697 0.97759 0.70386 0.0
H1203 H 0.70094 0.97778 0.7336 0.0
H1204 H 0.67561 0.97151 0.65399 0.0
H1205 H 0.63462 0.05726 0.67802 0.0
H1206 H 0.66594 0.05796 0.67325 0.0
H1207 H 0.65417 0.04148 0.69757 0.0
C1208 C 0.72078 0.02285 0.69895 0.0
C1209 C 0.72016 0.00684 0.71782 0.0
C1210 C 0.70301 0.02264 0.682 0.0
C1211 C 0.68443 0.00647 0.68378 0.0
C1212 C 0.6839 0.99028 0.7024 0.0
H1213 H 0.55238 1.0047 0.60869 0.0
H1214 H 0.58335 1.00477 0.6385 0.0
C1215 C 0.70162 0.9905 0.71938 0.0
C1216 C 0.66568 0.00613 0.66595 0.0
H1217 H 0.62039 0.03854 0.64351 0.0
C1218 C 0.66348 0.98611 0.65166 0.0
C1219 C 0.64987 0.02516 0.66331 0.0
C1220 C 0.65105 0.04664 0.67896 0.0
C1221 C 0.6459 0.98473 0.63443 0.0
C1222 C 0.63046 1.00401 0.6314 0.0
C1223 C 0.63246 0.02391 0.64589 0.0
C1224 C 0.61193 1.00381 0.61332 0.0
C1225 C 0.64377 0.9626 0.61983 0.0
C1226 C 0.61795 1.00349 0.5894 0.0
C1227 C 0.60035 1.00342 0.5723 0.0
C1228 C 0.57645 1.00379 0.57888 0.0
C1229 C 0.57057 1.00432 0.60296 0.0
C1230 C 0.58821 1.0044 0.62003 0.0
H1231 H 0.65334 0.94756 0.62795 0.0
H1232 H 0.625 0.95759 0.61748 0.0
H1233 H 0.65143 0.96583 0.60213 0.0
H1234 H 0.63625 1.00342 0.584 0.0
H1235 H 0.60556 1.0031 0.55393 0.0
H1236 H 0.98694 0.31038 0.27034 0.0
H1237 H 0.98774 0.34021 0.30134 0.0
H1238 H 0.04114 0.30068 0.33832 0.0
H1239 H 0.04087 0.27092 0.30699 0.0
H1240 H 0.97817 0.32995 0.35005 0.0
H1241 H 0.0666 0.36983 0.3351 0.0
H1242 H 0.05143 0.35293 0.31279 0.0
H1243 H 0.06545 0.33819 0.337 0.0
C1244 C 0.99919 0.30828 0.28483 0.0
C1245 C 0.01394 0.28846 0.28628 0.0
C1246 C 0.9995 0.32521 0.30255 0.0
C1247 C 0.01461 0.3226 0.32187 0.0
C1248 C 0.02958 0.30302 0.32331 0.0
H1249 H 1.00261 0.39738 0.45448 0.0
H1250 H 0.00585 0.36699 0.42426 0.0
C1251 C 0.02927 0.28602 0.30557 0.0
C1252 C 0.01369 0.33987 0.34109 0.0
H1253 H 0.04504 0.3834 0.36806 0.0
C1254 C 0.99277 0.34162 0.35409 0.0
C1255 C 0.03279 0.35503 0.346 0.0
C1256 C 0.05532 0.35413 0.33193 0.0
C1257 C 0.99038 0.35836 0.372 0.0
C1258 C 0.00954 0.37341 0.37704 0.0
C1259 C 0.0305 0.37163 0.36409 0.0
C1260 C 0.00786 0.39166 0.39527 0.0
C1261 C 0.96727 0.36023 0.38501 0.0
C1262 C 0.00825 0.41546 0.38879 0.0
C1263 C 0.00642 0.43291 0.40594 0.0
C1264 C 1.00432 0.42675 0.42986 0.0
C1265 C 1.0041 0.40278 0.43623 0.0
C1266 C 0.0059 0.38536 0.41903 0.0
H1267 H 0.9529 0.35056 0.37588 0.0
H1268 H 0.96932 0.35261 0.40291 0.0
H1269 H 0.96196 0.37896 0.38701 0.0
H1270 H 0.0098 0.42052 0.37044 0.0
H1271 H 0.00679 0.45117 0.40038 0.0
H1272 H 0.69763 0.03865 0.27096 0.0
H1273 H 0.66587 0.04016 0.30016 0.0
H1274 H 0.70631 0.99576 0.34672 0.0
H1275 H 0.73777 0.99343 0.31745 0.0
H1276 H 0.64463 0.99357 0.32104 0.0
H1277 H 0.68261 0.05777 0.38488 0.0
H1278 H 0.69026 0.0579 0.35395 0.0
H1279 H 0.70189 0.03552 0.37299 0.0
C1280 C 0.69973 0.02919 0.2874 0.0
C1281 C 0.72016 0.01589 0.29193 0.0
C1282 C 0.6817 0.03021 0.30404 0.0
C1283 C 0.68402 0.01821 0.32547 0.0
C1284 C 0.7045 0.00534 0.33029 0.0
H1285 H 0.60307 0.99489 0.45041 0.0
H1286 H 0.63326 0.99822 0.41998 0.0
C1287 C 0.72244 1.00414 0.31362 0.0
C1288 C 0.66448 0.01785 0.34234 0.0
H1289 H 0.6478 0.03793 0.39632 0.0
C1290 C 0.6451 1.00339 0.33743 0.0
C1291 C 0.66555 0.03058 0.36363 0.0
C1292 C 0.6861 0.04646 0.36928 0.0
C1293 C 0.6268 1.00078 0.35375 0.0
C1294 C 0.62784 0.01349 0.37516 0.0
C1295 C 0.64713 0.02825 0.37985 0.0
C1296 C 0.60939 0.01126 0.39324 0.0
C1297 C 0.60702 0.98383 0.34832 0.0
C1298 C 0.58607 0.01762 0.38819 0.0
C1299 C 0.56873 0.01554 0.40545 0.0
C1300 C 0.57457 0.00741 0.42811 0.0
C1301 C 0.59803 1.00127 0.43314 0.0
C1302 C 0.61529 1.00316 0.41581 0.0
H1303 H 0.61198 0.97113 0.33427 0.0
H1304 H 0.6018 0.97377 0.36427 0.0
H1305 H 0.59146 0.9939 0.34208 0.0
H1306 H 0.58133 0.02442 0.371 0.0
H1307 H 0.55087 0.02073 0.40114 0.0
H1308 H 0.96828 0.69904 0.26962 0.0
H1309 H 0.96515 0.66775 0.29928 0.0
H1310 H 0.01082 0.70694 0.34565 0.0
H1311 H 0.0148 0.73784 0.31597 0.0
H1312 H 0.01159 0.64555 0.32101 0.0
H1313 H 0.94713 0.68548 0.38332 0.0
H1314 H 0.94735 0.69246 0.35222 0.0
H1315 H 0.96973 0.70421 0.37117 0.0
C1316 C 0.97765 0.70097 0.28614 0.0
C1317 C 0.99179 0.72086 0.2905 0.0
C1318 C 0.9757 0.68323 0.30303 0.0
C1319 C 0.9876 0.68536 0.32452 0.0
C1320 C 1.00129 0.70532 0.32918 0.0
H1321 H 0.00935 0.60612 0.45075 0.0
H1322 H 0.00585 0.63603 0.41997 0.0
C1323 C 1.00343 0.72295 0.31227 0.0
C1324 C 0.98722 0.666 0.34159 0.0
H1325 H 0.96629 0.65055 0.39562 0.0
C1326 C 1.00153 0.64639 0.33723 0.0
C1327 C 0.97424 0.66761 0.36268 0.0
C1328 C 0.9586 0.68849 0.36775 0.0
C1329 C 1.00374 0.62839 0.35394 0.0
C1330 C 0.99077 0.62996 0.37515 0.0
C1331 C 0.97615 0.64947 0.37928 0.0
C1332 C 0.99265 0.61185 0.39359 0.0
C1333 C 0.02059 0.60837 0.34913 0.0
C1334 C 0.98615 0.5885 0.38887 0.0
C1335 C 0.98833 0.57135 0.4063 0.0
C1336 C 0.99672 0.57742 0.4288 0.0
C1337 C 1.00281 0.60094 0.43358 0.0
C1338 C 1.00082 0.61802 0.41606 0.0
H1339 H 0.03348 0.61293 0.33512 0.0
H1340 H 0.03044 0.60343 0.36531 0.0
H1341 H 0.01048 0.59274 0.34314 0.0
H1342 H 0.97929 0.58358 0.37176 0.0
H1343 H 0.98314 0.55344 0.4022 0.0
H1344 H 0.32034 0.01566 0.2719 0.0
H1345 H 0.34801 0.02325 0.30369 0.0
H1346 H 0.29672 0.06716 0.33845 0.0
H1347 H 0.26885 0.06029 0.30611 0.0
H1348 H 0.36532 0.06795 0.32825 0.0
H1349 H 0.30962 0.00636 0.38106 0.0
H1350 H 0.30759 0.00761 0.34935 0.0
H1351 H 0.29583 0.03116 0.36681 0.0
C1352 C 0.31514 0.02768 0.28578 0.0
C1353 C 0.29229 0.03725 0.28655 0.0
C1354 C 0.33099 0.0319 0.30398 0.0
C1355 C 0.32423 0.04557 0.32334 0.0
C1356 C 0.30208 0.05646 0.32358 0.0
H1357 H 0.39904 0.02917 0.4567 0.0
H1358 H 0.37004 0.04208 0.42773 0.0
C1359 C 0.28619 0.05238 0.30522 0.0
C1360 C 0.33933 0.04551 0.34437 0.0
H1361 H 0.3466 0.0162 0.39624 0.0
C1362 C 0.36113 0.05705 0.34339 0.0
C1363 C 0.33364 0.03124 0.36396 0.0
C1364 C 0.31046 0.01825 0.36552 0.0
C1365 C 0.37788 0.05398 0.36127 0.0
C1366 C 0.37278 0.03846 0.38011 0.0
C1367 C 0.35047 0.02796 0.38167 0.0
C1368 C 0.39077 0.03152 0.39754 0.0
C1369 C 0.40097 0.06707 0.35961 0.0
C1370 C 0.41178 0.02083 0.39012 0.0
C1371 C 0.42844 0.01343 0.4066 0.0
C1372 C 0.42414 0.01626 0.4308 0.0
C1373 C 0.40281 0.02651 0.43819 0.0
C1374 C 0.38629 0.03409 0.42168 0.0
H1375 H 0.39902 0.08362 0.34932 0.0
H1376 H 0.40799 0.07147 0.37734 0.0
H1377 H 0.41406 0.05585 0.35039 0.0
H1378 H 0.41521 0.01798 0.37156 0.0
H1379 H 0.44463 0.00548 0.40037 0.0
H1380 H 0.04238 0.1966 0.26453 0.0
H1381 H 0.04159 0.16453 0.29354 0.0
H1382 H 0.96731 0.17635 0.30433 0.0
H1383 H 0.9681 0.20796 0.27501 0.0
H1384 H 0.03207 0.17226 0.33911 0.0
H1385 H 0.9691 0.10555 0.30601 0.0
H1386 H 0.98139 0.12812 0.28726 0.0
H1387 H 0.95685 0.13469 0.30625 0.0
C1388 C 0.02565 0.19137 0.2721 0.0
C1389 C 1.00515 0.20426 0.26696 0.0
C1390 C 0.02526 0.17332 0.28902 0.0
C1391 C 1.00436 0.16783 0.30119 0.0
C1392 C 0.98355 0.17974 0.29492 0.0
H1393 H 0.99971 0.10877 0.44487 0.0
H1394 H 0.9987 0.1353 0.41066 0.0
C1395 C 0.98394 0.19771 0.27796 0.0
C1396 C 1.00491 0.15184 0.32218 0.0
H1397 H 0.97881 0.10344 0.34693 0.0
C1398 C 0.02053 0.15711 0.34071 0.0
C1399 C 0.98991 0.13201 0.32441 0.0
C1400 C 0.97353 0.12459 0.30483 0.0
C1401 C 0.02145 0.14331 0.36134 0.0
C1402 C 0.00596 0.12389 0.36386 0.0
C1403 C 0.9905 0.11848 0.34523 0.0
C1404 C 0.00641 0.10812 0.385 0.0
C1405 C 0.03941 0.14937 0.38 0.0
C1406 C 0.01057 0.08394 0.38209 0.0
C1407 C 0.01096 0.06877 0.4015 0.0
C1408 C 0.00713 0.07727 0.42454 0.0
C1409 C 1.00291 0.10156 0.4275 0.0
C1410 C 1.00243 0.11679 0.40792 0.0
H1411 H 0.05373 0.16067 0.37289 0.0
H1412 H 0.03062 0.15919 0.39443 0.0
H1413 H 0.04739 0.13319 0.3876 0.0
H1414 H 0.01371 0.07674 0.36469 0.0
H1415 H 0.01437 0.05026 0.3983 0.0
H1416 H 0.80764 0.97115 0.27069 0.0
H1417 H 0.84006 0.96883 0.29931 0.0
H1418 H 0.83801 0.04435 0.30762 0.0
H1419 H 0.80607 0.04665 0.27873 0.0
H1420 H 0.8828 0.02789 0.31151 0.0
H1421 H 0.82288 0.97563 0.36842 0.0
H1422 H 0.82885 0.96223 0.34041 0.0
H1423 H 0.81306 0.98969 0.34165 0.0
C1424 C 0.81495 0.98731 0.27776 0.0
C1425 C 0.8046 0.00911 0.27221 0.0
C1426 C 0.83312 0.98595 0.29453 0.0
C1427 C 0.84103 0.00636 0.30623 0.0
C1428 C 0.83215 0.02833 0.29904 0.0
H1429 H 0.90472 0.0149 0.44704 0.0
H1430 H 0.87774 0.01602 0.41312 0.0
C1431 C 0.81409 0.02968 0.28228 0.0
C1432 C 0.85703 1.00488 0.32713 0.0
H1433 H 0.86149 0.98199 0.38282 0.0
C1434 C 0.87816 0.01777 0.32705 0.0
C1435 C 0.85074 0.99222 0.34777 0.0
C1436 C 0.82755 0.97934 0.34977 0.0
C1437 C 0.89329 0.01805 0.34674 0.0
C1438 C 0.88744 1.00466 0.36703 0.0
C1439 C 0.86613 0.99207 0.36726 0.0
C1440 C 0.9034 1.00323 0.38795 0.0
C1441 C 0.91514 0.0332 0.34578 0.0
C1442 C 0.92656 0.99503 0.38535 0.0
C1443 C 0.94195 0.99446 0.40459 0.0
C1444 C 0.93457 1.00183 0.42714 0.0
C1445 C 0.91105 0.00915 0.42999 0.0
C1446 C 0.89562 0.00985 0.41057 0.0
H1447 H 0.9134 0.04752 0.33253 0.0
H1448 H 0.91898 0.04124 0.36319 0.0
H1449 H 0.93041 0.02212 0.34062 0.0
H1450 H 0.93284 0.98911 0.36834 0.0
H1451 H 0.95976 0.98828 0.40165 0.0
H1452 H 0.04142 0.80473 0.27076 0.0
H1453 H 0.04462 0.83609 0.3004 0.0
H1454 H 0.96885 0.83947 0.30483 0.0
H1455 H 0.96572 0.80863 0.27488 0.0
H1456 H 0.98808 0.88257 0.31149 0.0
H1457 H 0.03327 0.81708 0.36829 0.0
H1458 H 0.04851 0.82309 0.34124 0.0
H1459 H 0.01997 0.80928 0.34051 0.0
C1460 C 0.0255 0.81308 0.27716 0.0
C1461 C 1.00332 0.80451 0.27023 0.0
C1462 C 0.02731 0.83062 0.29453 0.0
C1463 C 0.00697 0.83963 0.3055 0.0
C1464 C 0.98482 0.83271 0.29687 0.0
H1465 H 0.99672 0.90048 0.44787 0.0
H1466 H 0.99543 0.87395 0.41351 0.0
C1467 C 0.98302 0.8153 0.27947 0.0
C1468 C 0.00856 0.85471 0.32706 0.0
H1469 H 0.02933 0.85565 0.38376 0.0
C1470 C 0.99717 0.87669 0.32724 0.0
C1471 C 0.01981 0.84682 0.34798 0.0
C1472 C 0.03088 0.82269 0.34969 0.0
C1473 C 0.99714 0.89112 0.34743 0.0
C1474 C 0.00927 0.88368 0.36799 0.0
C1475 C 0.02025 0.86151 0.368 0.0
C1476 C 0.01119 0.89897 0.38936 0.0
C1477 C 0.98362 0.91402 0.34665 0.0
C1478 C 0.02126 0.92147 0.38753 0.0
C1479 C 0.02193 0.93654 0.40697 0.0
C1480 C 0.01283 0.92948 0.42898 0.0
C1481 C 1.00386 0.90647 0.43122 0.0
C1482 C 1.00303 0.89135 0.41155 0.0
H1483 H 0.96969 0.91369 0.33289 0.0
H1484 H 0.97526 0.91791 0.3639 0.0
H1485 H 0.99591 0.92861 0.34233 0.0
H1486 H 0.02839 0.92755 0.37091 0.0
H1487 H 0.02943 0.95396 0.40462 0.0
H1488 H 0.2253 0.97127 0.28601 0.0
H1489 H 0.194 0.96698 0.31543 0.0
H1490 H 0.16483 0.03383 0.29399 0.0
H1491 H 0.19641 0.0382 0.26482 0.0
H1492 H 0.17467 0.03249 0.34092 0.0
H1493 H 0.12388 0.95267 0.31658 0.0
H1494 H 0.15513 0.94792 0.31775 0.0
H1495 H 0.14306 0.96765 0.29608 0.0
C1496 C 0.21146 0.9844 0.28676 0.0
C1497 C 0.21285 1.00475 0.2727 0.0
C1498 C 0.19366 0.98206 0.30373 0.0
C1499 C 0.17691 1.00003 0.30694 0.0
C1500 C 0.17745 0.01967 0.29182 0.0
H1501 H 0.0564 1.00085 0.39969 0.0
H1502 H 0.08407 0.99976 0.36713 0.0
C1503 C 0.19527 0.02202 0.27489 0.0
C1504 C 0.16075 0.99974 0.3277 0.0
H1505 H 0.11779 0.96773 0.35528 0.0
C1506 C 0.16216 0.01836 0.34399 0.0
C1507 C 0.14439 0.98135 0.33177 0.0
C1508 C 0.1413 0.96137 0.31452 0.0
C1509 C 0.14777 0.0191 0.36416 0.0
C1510 C 0.13175 1.00046 0.36851 0.0
C1511 C 0.13026 0.98188 0.35216 0.0
C1512 C 0.11526 1.0007 0.389 0.0
C1513 C 0.14942 0.04017 0.38031 0.0
C1514 C 0.12346 1.00138 0.41241 0.0
C1515 C 0.10753 1.00214 0.43137 0.0
C1516 C 0.08305 1.0021 0.42728 0.0
C1517 C 0.07504 1.00104 0.40376 0.0
C1518 C 0.0909 1.00032 0.38496 0.0
H1519 H 0.15831 0.05532 0.37165 0.0
H1520 H 0.13166 0.04588 0.38619 0.0
H1521 H 0.15982 0.03533 0.39615 0.0
H1522 H 0.14219 1.00125 0.41603 0.0
H1523 H 0.1144 1.00282 0.44916 0.0
H1524 H 0.9725 0.81299 0.74351 0.0
H1525 H 0.97309 0.8453 0.7147 0.0
H1526 H 0.0472 0.8334 0.70298 0.0
H1527 H 0.04665 0.80148 0.73204 0.0
H1528 H 0.03591 0.88042 0.69932 0.0
H1529 H 0.97494 0.82606 0.64556 0.0
H1530 H 0.96357 0.8337 0.67406 0.0
H1531 H 0.98905 0.81499 0.67181 0.0
C1532 C 0.98913 0.81813 0.73567 0.0
C1533 C 0.00962 0.80504 0.74033 0.0
C1534 C 0.98937 0.83625 0.71882 0.0
C1535 C 0.01005 0.84136 0.70611 0.0
C1536 C 0.03099 0.82974 0.71237 0.0
H1537 H 0.01786 0.90265 0.56418 0.0
H1538 H 0.01877 0.8761 0.59841 0.0
C1539 C 0.03076 0.81169 0.72924 0.0
C1540 C 0.00956 0.85718 0.68504 0.0
H1541 H 0.98475 0.86367 0.6304 0.0
C1542 C 0.02467 0.87679 0.68429 0.0
C1543 C 0.99539 0.85213 0.66507 0.0
C1544 C 0.97999 0.83046 0.66396 0.0
C1545 C 0.02562 0.89168 0.66444 0.0
C1546 C 0.01075 0.88717 0.64486 0.0
C1547 C 0.99599 0.86731 0.64543 0.0
C1548 C 0.00994 0.90309 0.62388 0.0
C1549 C 0.04297 0.91185 0.66447 0.0
C1550 C 1.00414 0.92696 0.62661 0.0
C1551 C 1.00368 0.94211 0.60718 0.0
C1552 C 0.00876 0.93381 0.58432 0.0
C1553 C 0.0139 0.90971 0.58146 0.0
C1554 C 0.01446 0.89451 0.60104 0.0
H1555 H 0.05764 0.9087 0.67706 0.0
H1556 H 0.05053 0.91474 0.64666 0.0
H1557 H 0.0338 0.92822 0.66997 0.0
H1558 H 0.99986 0.93393 0.64385 0.0
H1559 H 0.99923 0.96043 0.61019 0.0
H1560 H 0.19724 0.97548 0.74363 0.0
H1561 H 0.16604 0.98029 0.71405 0.0
H1562 H 0.19864 0.04466 0.69015 0.0
H1563 H 0.22968 0.03994 0.71994 0.0
H1564 H 0.14869 0.04616 0.68869 0.0
H1565 H 0.18414 0.96605 0.64529 0.0
H1566 H 0.17531 0.96164 0.67535 0.0
H1567 H 0.19951 0.981 0.66877 0.0
C1568 C 0.19708 0.9912 0.73278 0.0
C1569 C 0.21555 0.00761 0.73438 0.0
C1570 C 0.17951 0.99374 0.71559 0.0
C1571 C 0.18027 0.01256 0.69949 0.0
C1572 C 0.1977 0.02995 0.70229 0.0
H1573 H 0.11447 0.01065 0.55924 0.0
H1574 H 0.14274 0.01279 0.59194 0.0
C1575 C 0.21527 0.02741 0.71949 0.0
C1576 C 0.16424 0.01308 0.67864 0.0
H1577 H 0.14921 0.98221 0.62906 0.0
C1578 C 0.1488 0.03219 0.67565 0.0
C1579 C 0.16477 0.99515 0.66125 0.0
C1580 C 0.18196 0.9749 0.66261 0.0
C1581 C 0.13344 0.03349 0.65618 0.0
C1582 C 0.13327 0.01504 0.63933 0.0
C1583 C 0.14917 0.99627 0.642 0.0
C1584 C 0.11621 0.01445 0.61928 0.0
C1585 C 0.11774 0.05481 0.65369 0.0
C1586 C 0.0919 0.01435 0.62367 0.0
C1587 C 0.07575 0.01316 0.6051 0.0
C1588 C 0.08342 0.01184 0.58149 0.0
C1589 C 0.10784 0.01178 0.57709 0.0
C1590 C 0.12405 0.01297 0.5958 0.0
H1591 H 0.12489 0.07018 0.6635 0.0
H1592 H 0.11552 0.05984 0.63491 0.0
H1593 H 0.10011 0.05069 0.66106 0.0
H1594 H 0.08534 0.01486 0.64158 0.0
H1595 H 0.05716 0.01314 0.6094 0.0
H1596 H 0.0421 0.19782 0.74058 0.0
H1597 H 0.03788 0.16685 0.71069 0.0
H1598 H 0.97144 0.19673 0.68912 0.0
H1599 H 0.9756 0.22756 0.7192 0.0
H1600 H 0.97224 0.14664 0.68718 0.0
H1601 H 0.0491 0.18637 0.64164 0.0
H1602 H 0.05487 0.17757 0.6715 0.0
H1603 H 0.03413 0.20081 0.66568 0.0
C1604 C 0.0261 0.19708 0.73019 0.0
C1605 C 0.00892 0.21475 0.73255 0.0
C1606 C 0.02389 0.17965 0.71281 0.0
C1607 C 1.00459 0.17975 0.69726 0.0
C1608 C 0.98652 0.19631 0.70082 0.0
H1609 H 1.00485 0.11315 0.55687 0.0
H1610 H 1.0027 0.14186 0.58925 0.0
C1611 C 0.98875 0.21375 0.71821 0.0
C1612 C 1.00417 0.16391 0.67625 0.0
H1613 H 0.03433 0.15063 0.62574 0.0
C1614 C 0.98579 0.14753 0.67374 0.0
C1615 C 0.02152 0.16544 0.65834 0.0
C1616 C 0.04091 0.18363 0.65921 0.0
C1617 C 0.98474 0.13215 0.65427 0.0
C1618 C 1.0027 0.13295 0.63691 0.0
C1619 C 0.02066 0.14984 0.63906 0.0
C1620 C 1.00375 0.11572 0.61703 0.0
C1621 C 0.96425 0.11532 0.65237 0.0
C1622 C 0.00554 0.09154 0.62177 0.0
C1623 C 0.00681 0.07518 0.60342 0.0
C1624 C 0.00649 0.08248 0.57964 0.0
C1625 C 1.00507 0.10681 0.57486 0.0
C1626 C 1.00382 0.12325 0.59338 0.0
H1627 H 0.9488 0.12163 0.66261 0.0
H1628 H 0.95883 0.11282 0.63374 0.0
H1629 H 0.96952 0.09793 0.65962 0.0
H1630 H 0.00617 0.08526 0.63979 0.0
H1631 H 0.00809 0.05671 0.60805 0.0
H1632 H 0.8106 0.97213 0.74009 0.0
H1633 H 0.8432 0.97133 0.71164 0.0
H1634 H 0.83526 0.04613 0.70062 0.0
H1635 H 0.80311 0.0469 0.72928 0.0
H1636 H 0.83717 0.98144 0.66568 0.0
H1637 H 0.90591 0.04085 0.70103 0.0
H1638 H 0.88231 0.0295 0.71909 0.0
H1639 H 0.87745 0.05455 0.70022 0.0
C1640 C 0.81676 0.98858 0.73257 0.0
C1641 C 0.8048 0.0097 0.73745 0.0
C1642 C 0.83511 0.98807 0.71598 0.0
C1643 C 0.84189 0.00869 0.70393 0.0
C1644 C 0.83088 0.03006 0.70994 0.0
H1645 H 0.90391 0.01336 0.5616 0.0
H1646 H 0.87672 0.01404 0.5953 0.0
C1647 C 0.81258 0.03055 0.72652 0.0
C1648 C 0.85839 0.00748 0.68338 0.0
H1649 H 0.90837 0.03175 0.65997 0.0
C1650 C 0.85285 0.99232 0.66455 0.0
C1651 C 0.87892 0.02159 0.68176 0.0
C1652 C 0.88666 0.03736 0.7017 0.0
C1653 C 0.86701 0.99108 0.64418 0.0
C1654 C 0.88711 0.00576 0.64223 0.0
C1655 C 0.89282 0.02069 0.6612 0.0
C1656 C 0.90319 0.00509 0.62132 0.0
C1657 C 0.86053 0.97368 0.62516 0.0
C1658 C 0.92721 1.00022 0.62457 0.0
C1659 C 0.94274 1.00004 0.60546 0.0
C1660 C 0.9348 1.00476 0.58238 0.0
C1661 C 0.91066 0.00946 0.57902 0.0
C1662 C 0.89506 0.00976 0.59831 0.0
H1663 H 0.84864 0.95965 0.6319 0.0
H1664 H 0.8512 0.98307 0.61077 0.0
H1665 H 0.87649 0.96523 0.61763 0.0
H1666 H 0.93401 0.9965 0.64202 0.0
H1667 H 0.96111 0.99615 0.60891 0.0
H1668 H 0.27019 0.04171 0.1931 0.0
H1669 H 0.29943 0.03684 0.16174 0.0
H1670 H 0.31406 0.96646 0.18648 0.0
H1671 H 0.28448 0.97126 0.21755 0.0
H1672 H 0.3456 0.03081 0.173 0.0
H1673 H 0.3167 0.95724 0.11555 0.0
H1674 H 0.29679 0.97239 0.13518 0.0
H1675 H 0.31647 0.95024 0.14641 0.0
C1676 C 0.2787 0.02475 0.19096 0.0
C1677 C 0.27464 0.00664 0.20734 0.0
C1678 C 0.29569 0.02209 0.17328 0.0
C1679 C 0.30903 1.00127 0.17167 0.0
C1680 C 0.30376 0.98251 0.18699 0.0
H1681 H 0.45245 0.99842 0.11089 0.0
H1682 H 0.41913 0.9967 0.13851 0.0
C1683 C 0.28667 0.98516 0.20464 0.0
C1684 C 0.33025 1.00045 0.15615 0.0
H1685 H 0.3564 0.97005 0.11122 0.0
C1686 C 0.34791 0.01755 0.15943 0.0
C1687 C 0.33336 0.98314 0.13848 0.0
C1688 C 0.31475 0.96483 0.13349 0.0
C1689 C 0.36842 0.01793 0.14552 0.0
C1690 C 0.37169 1.00044 0.12805 0.0
C1691 C 0.35407 0.98329 0.12479 0.0
C1692 C 0.39227 1.00079 0.1117 0.0
C1693 C 0.38606 0.03749 0.14919 0.0
C1694 C 0.38834 1.00318 0.08745 0.0
C1695 C 0.40722 1.00407 0.07171 0.0
C1696 C 0.43072 1.00249 0.07971 0.0
C1697 C 0.43469 0.99986 0.10406 0.0
C1698 C 0.41563 0.99895 0.11989 0.0
H1699 H 0.37852 0.0523 0.15953 0.0
H1700 H 0.40148 0.0305 0.15899 0.0
H1701 H 0.39241 0.04446 0.13204 0.0
H1702 H 0.37056 1.00467 0.08065 0.0
H1703 H 0.4032 0.00609 0.05317 0.0
H1704 H 0.0427 0.2663 0.19534 0.0
H1705 H 0.04179 0.2963 0.1642 0.0
H1706 H 0.96709 0.30506 0.17486 0.0
H1707 H 0.96798 0.27475 0.20564 0.0
H1708 H 0.97959 0.31133 0.12814 0.0
H1709 H 0.03701 0.36442 0.18676 0.0
H1710 H 0.04962 0.33663 0.17842 0.0
H1711 H 0.02338 0.33727 0.19618 0.0
C1712 C 0.0259 0.2737 0.19009 0.0
C1713 C 0.00533 0.26783 0.20257 0.0
C1714 C 0.02546 0.29125 0.17267 0.0
C1715 C 1.0045 0.3035 0.16765 0.0
C1716 C 0.98352 0.29603 0.17849 0.0
H1717 H 0.99679 0.44726 0.10872 0.0
H1718 H 0.99495 0.41282 0.13508 0.0
C1719 C 0.98395 0.27842 0.19584 0.0
C1720 C 1.00474 0.3253 0.15284 0.0
H1721 H 0.02876 0.38059 0.1491 0.0
C1722 C 0.99036 0.32645 0.13273 0.0
C1723 C 0.01824 0.3454 0.15913 0.0
C1724 C 0.03276 0.34606 0.18142 0.0
C1725 C 0.98967 0.34675 0.11842 0.0
C1726 C 1.00406 0.36641 0.1241 0.0
C1727 C 0.01791 0.36551 0.14457 0.0
C1728 C 0.00562 0.38761 0.10851 0.0
C1729 C 0.97323 0.34705 0.09752 0.0
C1730 C 0.01288 0.38511 0.08505 0.0
C1731 C 0.01394 0.40462 0.07005 0.0
C1732 C 0.00796 0.42738 0.07809 0.0
C1733 C 1.00148 0.43007 0.10188 0.0
C1734 C 1.00035 0.41036 0.11695 0.0
H1735 H 0.95853 0.33431 0.09977 0.0
H1736 H 0.96569 0.36489 0.09466 0.0
H1737 H 0.98315 0.34193 0.08147 0.0
H1738 H 0.01776 0.36796 0.07824 0.0
H1739 H 0.01943 0.40172 0.05201 0.0
H1740 H 0.73119 0.96609 0.21424 0.0
H1741 H 0.70259 0.96449 0.18201 0.0
H1742 H 0.71647 0.03752 0.16612 0.0
H1743 H 0.74486 0.03914 0.19871 0.0
H1744 H 0.67008 0.02966 0.17385 0.0
H1745 H 0.70276 0.96274 0.11091 0.0
H1746 H 0.70186 0.95213 0.14068 0.0
H1747 H 0.72146 0.97587 0.13304 0.0
C1748 C 0.72908 0.9814 0.20301 0.0
C1749 C 0.74076 1.00255 0.20855 0.0
C1750 C 0.71254 0.98056 0.18468 0.0
C1751 C 0.70733 1.00086 0.17145 0.0
C1752 C 0.72019 0.02159 0.17596 0.0
H1753 H 0.61301 0.00855 0.05168 0.0
H1754 H 0.646 0.00802 0.0789 0.0
C1755 C 0.73674 0.02242 0.19432 0.0
C1756 C 0.6867 1.00121 0.15502 0.0
H1757 H 0.66224 0.97355 0.10739 0.0
C1758 C 0.66847 0.01748 0.15921 0.0
C1759 C 0.68448 0.98537 0.13588 0.0
C1760 C 0.70378 0.96819 0.12968 0.0
C1761 C 0.64813 0.01824 0.145 0.0
C1762 C 0.64561 1.00197 0.12625 0.0
C1763 C 0.66394 0.98585 0.12192 0.0
C1764 C 0.62483 1.00227 0.11002 0.0
C1765 C 0.62978 0.03685 0.14989 0.0
C1766 C 0.60164 0.99911 0.1183 0.0
C1767 C 0.5824 0.99952 0.10263 0.0
C1768 C 0.586 1.00287 0.07831 0.0
C1769 C 0.60931 0.00585 0.0702 0.0
C1770 C 0.62837 0.00553 0.0858 0.0
H1771 H 0.63695 0.05144 0.16081 0.0
H1772 H 0.62278 0.04438 0.13323 0.0
H1773 H 0.61489 0.02877 0.15965 0.0
H1774 H 0.5984 0.99611 0.13686 0.0
H1775 H 0.5648 0.99701 0.10956 0.0
H1776 H 0.0439 0.73044 0.2129 0.0
H1777 H 0.04537 0.70102 0.18139 0.0
H1778 H 0.97225 0.71436 0.16559 0.0
H1779 H 0.97079 0.7436 0.19738 0.0
H1780 H 0.98067 0.66789 0.17503 0.0
H1781 H 0.0461 0.69966 0.1099 0.0
H1782 H 0.05685 0.69979 0.13965 0.0
H1783 H 0.03287 0.71887 0.13153 0.0
C1784 C 0.02855 0.72804 0.2018 0.0
C1785 C 0.00743 0.73983 0.20713 0.0
C1786 C 0.02931 0.71101 0.1839 0.0
C1787 C 0.00893 0.70541 0.17096 0.0
C1788 C 0.98824 0.71836 0.17522 0.0
H1789 H 0.9973 0.60993 0.053 0.0
H1790 H 0.99837 0.64295 0.08013 0.0
C1791 C 0.9875 0.7354 0.19312 0.0
C1792 C 0.00845 0.68436 0.15509 0.0
H1793 H 0.0348 0.65931 0.10705 0.0
C1794 C 0.99244 0.66608 0.16009 0.0
C1795 C 0.02378 0.68189 0.13559 0.0
C1796 C 0.04073 0.70118 0.12866 0.0
C1797 C 0.99139 0.6455 0.14624 0.0
C1798 C 0.00704 0.64282 0.12702 0.0
C1799 C 0.02297 0.66116 0.12194 0.0
C1800 C 0.00614 0.62195 0.11094 0.0
C1801 C 0.97312 0.62705 0.152 0.0
C1802 C 0.01011 0.59883 0.11912 0.0
C1803 C 0.00945 0.57956 0.10348 0.0
C1804 C 1.00499 0.58307 0.07932 0.0
C1805 C 1.00094 0.6063 0.07138 0.0
C1806 C 1.00156 0.62538 0.08692 0.0
H1807 H 0.95908 0.63409 0.16367 0.0
H1808 H 0.96482 0.62013 0.13569 0.0
H1809 H 0.98174 0.61212 0.16124 0.0
H1810 H 0.01406 0.5957 0.13751 0.0
H1811 H 0.01284 0.56203 0.11024 0.0
H1812 H 0.28608 0.04032 0.79038 0.0
H1813 H 0.31544 0.0455 0.82174 0.0
H1814 H 0.29911 0.97623 0.84839 0.0
H1815 H 0.27012 0.97091 0.8168 0.0
H1816 H 0.31868 0.04229 0.87159 0.0
H1817 H 0.36812 0.97074 0.82701 0.0
H1818 H 0.34275 0.98474 0.81392 0.0
H1819 H 0.33898 0.96239 0.83608 0.0
C1820 C 0.28795 0.02672 0.80366 0.0
C1821 C 0.27558 0.00537 0.80142 0.0
C1822 C 0.30495 0.02955 0.8214 0.0
C1823 C 0.30992 0.01101 0.83707 0.0
C1824 C 0.29591 0.9906 0.83624 0.0
H1825 H 0.40224 0.00702 0.95801 0.0
H1826 H 0.36955 0.00909 0.93048 0.0
C1827 C 0.27903 0.98773 0.81846 0.0
C1828 C 0.33117 0.01199 0.85254 0.0
H1829 H 0.38364 0.98431 0.86336 0.0
C1830 C 0.3329 0.02964 0.86979 0.0
C1831 C 0.35007 0.99589 0.84978 0.0
C1832 C 0.35009 0.97751 0.83056 0.0
C1833 C 0.3526 0.03111 0.88484 0.0
C1834 C 0.37096 0.01426 0.88284 0.0
C1835 C 0.36954 0.9971 0.86509 0.0
C1836 C 0.3913 0.01351 0.89952 0.0
C1837 C 0.35367 0.05088 0.90259 0.0
C1838 C 0.41469 0.01454 0.89133 0.0
C1839 C 0.43372 0.01314 0.90715 0.0
C1840 C 0.42973 0.01052 0.9315 0.0
C1841 C 0.40622 0.00925 0.93949 0.0
C1842 C 0.38734 0.01062 0.92373 0.0
H1843 H 0.34259 0.06606 0.89708 0.0
H1844 H 0.34689 0.04445 0.91976 0.0
H1845 H 0.37203 0.05713 0.90517 0.0
H1846 H 0.41823 0.01653 0.87269 0.0
H1847 H 0.45149 0.01414 0.90029 0.0
H1848 H 0.04559 0.26911 0.81463 0.0
H1849 H 0.04075 0.29769 0.84661 0.0
H1850 H 0.9709 0.31387 0.8214 0.0
H1851 H 0.97565 0.28492 0.78976 0.0
H1852 H 0.03582 0.34398 0.83678 0.0
H1853 H 0.96046 0.31543 0.89193 0.0
H1854 H 0.97539 0.2957 0.87194 0.0
H1855 H 0.95386 0.31624 0.861 0.0
C1856 C 0.02872 0.27778 0.81679 0.0
C1857 C 0.01075 0.27432 0.80011 0.0
C1858 C 0.02608 0.29442 0.83483 0.0
C1859 C 0.00545 0.30803 0.83653 0.0
C1860 C 0.98681 0.30335 0.82087 0.0
H1861 H 1.00352 0.45069 0.89886 0.0
H1862 H 1.00224 0.41752 0.87106 0.0
C1863 C 0.98942 0.2866 0.80287 0.0
C1864 C 1.00472 0.32895 0.85252 0.0
H1865 H 0.97364 0.35498 0.89709 0.0
C1866 C 0.02225 0.34631 0.85004 0.0
C1867 C 0.98704 0.33211 0.86982 0.0
C1868 C 0.96823 0.31379 0.87404 0.0
C1869 C 0.02265 0.36659 0.86431 0.0
C1870 C 1.00475 0.36996 0.88134 0.0
C1871 C 0.98721 0.3526 0.88386 0.0
C1872 C 1.00488 0.39046 0.89786 0.0
C1873 C 0.04265 0.3839 0.86146 0.0
C1874 C 0.00629 0.3864 0.92217 0.0
C1875 C 0.00692 0.40522 0.93803 0.0
C1876 C 0.00606 0.42878 0.93009 0.0
C1877 C 1.0044 0.43288 0.90567 0.0
C1878 C 1.00375 0.41389 0.88973 0.0
H1879 H 0.05767 0.37613 0.85161 0.0
H1880 H 0.0363 0.39948 0.85148 0.0
H1881 H 0.04911 0.39005 0.87887 0.0
H1882 H 0.00719 0.36856 0.92894 0.0
H1883 H 0.00816 0.40111 0.95662 0.0
H1884 H 0.74295 0.04284 0.80721 0.0
H1885 H 0.71427 0.04331 0.83957 0.0
H1886 H 0.70535 0.96815 0.83261 0.0
H1887 H 0.73429 0.96771 0.80073 0.0
H1888 H 0.66877 0.03207 0.83308 0.0
H1889 H 0.70438 0.97428 0.90307 0.0
H1890 H 0.72253 0.98565 0.87956 0.0
H1891 H 0.70422 0.96017 0.87481 0.0
C1892 C 0.73589 0.02627 0.81358 0.0
C1893 C 0.74142 0.00513 0.80193 0.0
C1894 C 0.71914 0.02658 0.83179 0.0
C1895 C 0.70756 0.00575 0.83872 0.0
C1896 C 0.71429 0.9844 0.82811 0.0
H1897 H 0.56453 0.99905 0.89949 0.0
H1898 H 0.59839 0.99867 0.87245 0.0
C1899 C 0.73105 0.9841 0.80997 0.0
C1900 C 0.68672 0.00669 0.85489 0.0
H1901 H 0.66311 0.98257 0.90484 0.0
C1902 C 0.66765 0.02137 0.84888 0.0
C1903 C 0.68509 0.99279 0.87556 0.0
C1904 C 0.70524 0.97751 0.88378 0.0
C1905 C 0.64706 0.02238 0.86274 0.0
C1906 C 0.64515 0.00794 0.88302 0.0
C1907 C 0.66433 0.99345 0.88916 0.0
C1908 C 0.6241 0.00854 0.89892 0.0
C1909 C 0.62778 0.03931 0.8558 0.0
C1910 C 0.62712 0.01389 0.92284 0.0
C1911 C 0.60793 0.01391 0.93827 0.0
C1912 C 0.585 0.00853 0.93031 0.0
C1913 C 0.58184 1.00344 0.90624 0.0
C1914 C 0.60122 1.0033 0.89074 0.0
H1915 H 0.63435 0.05323 0.84368 0.0
H1916 H 0.61362 0.02949 0.84656 0.0
H1917 H 0.61998 0.04792 0.87154 0.0
H1918 H 0.64446 0.01808 0.92967 0.0
H1919 H 0.61122 0.01814 0.95659 0.0
H1920 H 0.04029 0.74351 0.80971 0.0
H1921 H 0.04105 0.71435 0.84169 0.0
H1922 H 0.96592 0.70515 0.83501 0.0
H1923 H 0.96515 0.73461 0.80349 0.0
H1924 H 0.98003 0.7001 0.88068 0.0
H1925 H 0.03597 0.6457 0.82187 0.0
H1926 H 0.04872 0.67369 0.82927 0.0
H1927 H 0.02206 0.67258 0.81215 0.0
C1928 C 0.02381 0.73617 0.81597 0.0
C1929 C 1.0026 0.74161 0.8044 0.0
C1930 C 0.0243 0.71909 0.83387 0.0
C1931 C 1.00364 0.70694 0.84028 0.0
C1932 C 0.98213 0.71407 0.8303 0.0
H1933 H 0.99605 0.56429 0.90084 0.0
H1934 H 0.99458 0.59862 0.87433 0.0
C1935 C 0.98163 0.73118 0.8125 0.0
C1936 C 1.00455 0.68558 0.8557 0.0
H1937 H 0.02832 0.63024 0.85987 0.0
C1938 C 0.99064 0.68487 0.87615 0.0
C1939 C 0.01784 0.66533 0.84949 0.0
C1940 C 0.03181 0.66416 0.82689 0.0
C1941 C 0.99008 0.66479 0.89077 0.0
C1942 C 1.00418 0.64495 0.8851 0.0
C1943 C 0.01769 0.64547 0.86439 0.0
C1944 C 0.00561 0.62382 0.90078 0.0
C1945 C 0.97396 0.6649 0.91191 0.0
C1946 C 0.01296 0.62635 0.92423 0.0
C1947 C 0.01375 0.6069 0.93932 0.0
C1948 C 0.00746 0.5842 0.93137 0.0
C1949 C 1.00095 0.58146 0.9076 0.0
C1950 C 1.00005 0.6011 0.89245 0.0
H1951 H 0.95935 0.67776 0.90974 0.0
H1952 H 0.96627 0.64718 0.91509 0.0
H1953 H 0.98417 0.67011 0.92775 0.0
H1954 H 0.01809 0.64347 0.93094 0.0
H1955 H 0.01931 0.60979 0.95735 0.0
H1956 H 0.19677 0.26884 0.04391 0.0
H1957 H 0.16535 0.29809 0.03921 0.0
H1958 H 0.19044 0.31372 0.96923 0.0
H1959 H 0.22155 0.28413 0.97385 0.0
H1960 H 0.17571 0.34442 0.03394 0.0
H1961 H 0.11975 0.31584 0.95915 0.0
H1962 H 0.13957 0.296 0.97419 0.0
H1963 H 0.15067 0.31624 0.95247 0.0
C1964 C 0.1947 0.27757 0.02706 0.0
C1965 C 0.21118 0.27372 0.00899 0.0
C1966 C 0.17699 0.29459 0.0245 0.0
C1967 C 0.1754 0.30821 1.00385 0.0
C1968 C 0.19088 0.30322 0.98515 0.0
H1969 H 0.11326 0.45124 1.00133 0.0
H1970 H 0.14115 0.41809 1.00027 0.0
C1971 C 0.20857 0.2861 0.98769 0.0
C1972 C 0.1596 0.32929 1.00308 0.0
H1973 H 0.11484 0.35539 0.97225 0.0
C1974 C 0.16234 0.34675 0.02047 0.0
C1975 C 0.14215 0.33246 0.98553 0.0
C1976 C 0.13765 0.31406 0.96689 0.0
C1977 C 0.14817 0.36712 0.02087 0.0
C1978 C 0.13096 0.37047 1.00312 0.0
C1979 C 0.1282 0.35303 0.98571 0.0
C1980 C 0.11443 0.39099 1.00332 0.0
C1981 C 0.15131 0.38454 0.04071 0.0
C1982 C 0.09013 0.38693 1.00495 0.0
C1983 C 0.07423 0.40572 0.00546 0.0
C1984 C 0.0821 0.4293 1.00424 0.0
C1985 C 0.10651 0.43342 1.00247 0.0
C1986 C 0.1225 0.41445 1.00194 0.0
H1987 H 0.16136 0.37685 0.05565 0.0
H1988 H 0.16119 0.40008 0.03413 0.0
H1989 H 0.13398 0.39072 0.04736 0.0
H1990 H 0.08339 0.36909 0.00609 0.0
H1991 H 0.05566 0.40159 0.00688 0.0
H1992 H 0.21342 0.73264 0.96896 0.0
H1993 H 0.18183 0.70333 0.96693 0.0
H1994 H 0.16429 0.7173 0.0395 0.0
H1995 H 0.19621 0.74639 0.04155 0.0
H1996 H 0.17341 0.67102 0.03215 0.0
H1997 H 0.1107 0.70162 0.96393 0.0
H1998 H 0.14069 0.70138 0.95394 0.0
H1999 H 0.1321 0.72099 0.97731 0.0
C2000 C 0.20192 0.73042 0.98404 0.0
C2001 C 0.20684 0.74232 0.00521 0.0
C2002 C 0.18397 0.71345 0.98296 0.0
C2003 C 0.1705 0.70803 1.00304 0.0
C2004 C 0.17433 0.72115 0.02373 0.0
H2005 H 0.05253 0.61154 0.01046 0.0
H2006 H 0.07924 0.64493 0.00989 0.0
C2007 C 0.1923 0.73812 0.02479 0.0
C2008 C 0.15459 0.68697 1.00329 0.0
H2009 H 0.10778 0.66123 0.97534 0.0
C2010 C 0.15897 0.66897 0.0198 0.0
C2011 C 0.1357 0.68416 0.98723 0.0
C2012 C 0.12934 0.70315 0.96974 0.0
C2013 C 0.14516 0.64833 0.02061 0.0
C2014 C 0.12664 0.64526 1.00416 0.0
C2015 C 0.12214 0.66334 0.98777 0.0
C2016 C 0.11074 0.6242 1.00458 0.0
C2017 C 0.15021 0.63026 0.03946 0.0
C2018 C 0.1194 0.60109 1.00172 0.0
C2019 C 0.10401 0.58161 1.00213 0.0
C2020 C 0.0796 0.58485 0.00522 0.0
C2021 C 0.07113 0.60808 0.00798 0.0
C2022 C 0.08644 0.62739 0.00762 0.0
H2023 H 0.16094 0.63775 0.05402 0.0
H2024 H 0.1336 0.62312 0.04695 0.0
H2025 H 0.16022 0.61541 0.03162 0.0
H2026 H 0.13803 0.59812 0.99891 0.0
H2027 H 0.11121 0.56409 0.99979 0.0
H2028 H 0.26943 0.19576 0.04131 0.0
H2029 H 0.2992 0.16466 0.03741 0.0
H2030 H 0.31964 0.19278 0.96987 0.0
H2031 H 0.28966 0.22375 0.97372 0.0
H2032 H 0.32202 0.14249 0.97231 0.0
H2033 H 0.36828 0.18537 0.04702 0.0
H2034 H 0.33856 0.17657 0.05347 0.0
H2035 H 0.34393 0.19908 0.03182 0.0
C2036 C 0.27949 0.19456 0.02514 0.0
C2037 C 0.27687 0.21183 0.00758 0.0
C2038 C 0.29681 0.17706 0.0231 0.0
C2039 C 0.31207 0.17667 1.00359 0.0
C2040 C 0.30817 0.19273 0.98513 0.0
H2041 H 0.45332 0.11196 1.00383 0.0
H2042 H 0.42041 0.14006 1.00159 0.0
C2043 C 0.29082 0.21025 0.98717 0.0
C2044 C 0.33323 0.16101 1.00342 0.0
H2045 H 0.38436 0.14933 0.03329 0.0
C2046 C 0.33565 0.144 0.98562 0.0
C2047 C 0.3514 0.16333 0.02043 0.0
C2048 C 0.35063 0.18221 0.03915 0.0
C2049 C 0.35528 0.12878 0.98485 0.0
C2050 C 0.37291 0.1304 1.00252 0.0
C2051 C 0.37083 0.14791 0.01986 0.0
C2052 C 0.3931 0.11351 1.00383 0.0
C2053 C 0.35706 0.11125 0.96494 0.0
C2054 C 0.38881 0.08931 0.0064 0.0
C2055 C 0.40748 0.07329 0.00775 0.0
C2056 C 0.43112 0.08096 0.00673 0.0
C2057 C 0.43544 0.10533 1.00466 0.0
C2058 C 0.41662 0.12143 1.00332 0.0
H2059 H 0.34649 0.11688 0.94945 0.0
H2060 H 0.37564 0.10879 0.95932 0.0
H2061 H 0.35013 0.09397 0.97094 0.0
H2062 H 0.37092 0.08274 0.00751 0.0
H2063 H 0.40322 0.05477 0.00956 0.0
H2064 H 0.81593 0.26657 0.04033 0.0
H2065 H 0.84798 0.29558 0.03828 0.0
H2066 H 0.82966 0.31066 0.9661 0.0
H2067 H 0.7979 0.28145 0.9681 0.0
H2068 H 0.87816 0.31369 0.97421 0.0
H2069 H 0.82762 0.36488 0.0404 0.0
H2070 H 0.83587 0.33588 0.05002 0.0
H2071 H 0.81567 0.33927 0.02583 0.0
C2072 C 0.81958 0.27521 0.0237 0.0
C2073 C 0.80475 0.27145 1.00424 0.0
C2074 C 0.83757 0.29214 0.02266 0.0
C2075 C 0.84084 0.3058 1.00222 0.0
C2076 C 0.82743 0.30049 0.9821 0.0
H2077 H 0.90266 0.44786 0.99701 0.0
H2078 H 0.8757 0.41396 0.99551 0.0
C2079 C 0.80948 0.28355 0.98314 0.0
C2080 C 0.85656 0.32692 1.00239 0.0
H2081 H 0.86459 0.3805 0.02897 0.0
C2082 C 0.87522 0.32827 0.98621 0.0
C2083 C 0.85236 0.34631 0.0176 0.0
C2084 C 0.83167 0.34672 0.0343 0.0
C2085 C 0.89012 0.34812 0.98525 0.0
C2086 C 0.88652 0.36706 1.00114 0.0
C2087 C 0.86752 0.36595 0.01692 0.0
C2088 C 0.9027 0.38783 1.00213 0.0
C2089 C 0.90935 0.34875 0.9669 0.0
C2090 C 0.92672 0.38456 0.00688 0.0
C2091 C 0.94209 0.40379 0.00772 0.0
C2092 C 0.93389 0.42698 1.00405 0.0
C2093 C 0.90966 0.43033 0.99987 0.0
C2094 C 0.89422 0.41094 0.99897 0.0
H2095 H 0.90535 0.33682 0.9519 0.0
H2096 H 0.91196 0.36687 0.95998 0.0
H2097 H 0.92613 0.34277 0.97497 0.0
H2098 H 0.93363 0.36706 0.01008 0.0
H2099 H 0.96051 0.40033 0.01133 0.0
H2100 H 0.72273 0.78634 0.96944 0.0
H2101 H 0.69437 0.81864 0.96541 0.0
H2102 H 0.71401 0.84432 0.03418 0.0
H2103 H 0.74213 0.81173 0.03828 0.0
H2104 H 0.6669 0.83564 0.03059 0.0
H2105 H 0.69564 0.88937 0.95425 0.0
H2106 H 0.69397 0.85839 0.94802 0.0
H2107 H 0.71508 0.86904 0.96914 0.0
C2108 C 0.72184 0.79963 0.98311 0.0
C2109 C 0.73504 0.79697 1.00389 0.0
C2110 C 0.7055 0.818 0.9809 0.0
C2111 C 0.70207 0.83405 0.99945 0.0
C2112 C 0.71639 0.83225 0.01959 0.0
H2113 H 0.61184 0.95637 1.00216 0.0
H2114 H 0.64391 0.9281 1.00126 0.0
C2115 C 0.73271 0.81386 0.0218 0.0
C2116 C 0.68176 0.85073 0.99909 0.0
H2117 H 0.65643 0.89564 0.96792 0.0
C2118 C 0.66468 0.84884 0.01694 0.0
C2119 C 0.67882 0.86796 0.9813 0.0
C2120 C 0.69695 0.87152 0.9622 0.0
C2121 C 0.64479 0.86361 0.01747 0.0
C2122 C 0.64157 0.88051 0.9994 0.0
C2123 C 0.65871 0.88249 0.98161 0.0
C2124 C 0.62143 0.89738 0.99951 0.0
C2125 C 0.6277 0.86137 0.03771 0.0
C2126 C 0.59788 0.88962 0.99863 0.0
C2127 C 0.57921 0.90589 0.99925 0.0
C2128 C 0.58375 0.93025 1.00062 0.0
C2129 C 0.60743 0.93783 1.00116 0.0
C2130 C 0.62594 0.92164 1.00058 0.0
H2131 H 0.63548 0.85157 0.05278 0.0
H2132 H 0.62197 0.879 0.044 0.0
H2133 H 0.61185 0.85161 0.03172 0.0
H2134 H 0.59393 0.87099 0.99738 0.0
H2135 H 0.56128 0.89936 0.99868 0.0
H2136 H 0.79102 0.72519 0.97037 0.0
H2137 H 0.8228 0.69613 0.96648 0.0
H2138 H 0.844 0.70979 0.03815 0.0
H2139 H 0.81192 0.73847 0.04213 0.0
H2140 H 0.87191 0.6932 0.97297 0.0
H2141 H 0.8234 0.64049 0.0395 0.0
H2142 H 0.81098 0.66635 0.02576 0.0
H2143 H 0.83164 0.66933 0.04961 0.0
C2144 C 0.8032 0.72278 0.98487 0.0
C2145 C 0.79932 0.73432 0.00642 0.0
C2146 C 0.82117 0.70596 0.98276 0.0
C2147 C 0.83541 0.70034 1.00222 0.0
C2148 C 0.83294 0.7135 0.02305 0.0
H2149 H 0.95695 0.60967 0.01018 0.0
H2150 H 0.92893 0.64191 0.00822 0.0
C2151 C 0.81491 0.7302 0.0252 0.0
C2152 C 0.85114 0.67933 1.0015 0.0
H2153 H 0.86076 0.62588 0.02774 0.0
C2154 C 0.86947 0.67847 0.98492 0.0
C2155 C 0.84755 0.65977 0.01664 0.0
C2156 C 0.8272 0.65882 0.03373 0.0
C2157 C 0.88477 0.65898 0.98363 0.0
C2158 C 0.8819 0.63996 0.9996 0.0
C2159 C 0.86311 0.6405 0.01565 0.0
C2160 C 0.89879 0.61987 1.00064 0.0
C2161 C 0.90372 0.65885 0.96499 0.0
C2162 C 0.89112 0.59643 0.99791 0.0
C2163 C 0.90721 0.57764 0.99922 0.0
C2164 C 0.93128 0.58196 1.00341 0.0
C2165 C 0.93868 0.60549 0.0066 0.0
C2166 C 0.92266 0.62411 0.00533 0.0
H2167 H 0.89907 0.67051 0.94995 0.0
H2168 H 0.92041 0.6655 0.97274 0.0
H2169 H 0.90686 0.64077 0.95819 0.0
H2170 H 0.8727 0.59269 0.99453 0.0
H2171 H 0.90084 0.55982 0.9967 0.0
H2172 H 0.27007 0.8076 0.97314 0.0
H2173 H 0.29929 0.83943 0.97001 0.0
H2174 H 0.30647 0.84015 0.04564 0.0
H2175 H 0.27691 0.80893 0.04873 0.0
H2176 H 0.31179 0.88379 0.0283 0.0
H2177 H 0.36784 0.82184 0.97762 0.0
H2178 H 0.34014 0.82817 0.96372 0.0
H2179 H 0.3407 0.81282 0.99147 0.0
C2180 C 0.27703 0.81542 0.98911 0.0
C2181 C 0.27095 0.80603 0.0112 0.0
C2182 C 0.29417 0.83323 0.98731 0.0
C2183 C 0.30576 0.84171 0.00755 0.0
C2184 C 0.29804 0.83384 0.02972 0.0
H2185 H 0.44805 0.90241 0.01529 0.0
H2186 H 0.41351 0.87619 0.01649 0.0
C2187 C 0.28088 0.81618 0.03152 0.0
C2188 C 0.32698 0.85732 0.00582 0.0
H2189 H 0.38288 0.86034 0.98319 0.0
C2190 C 0.32728 0.87867 0.01835 0.0
C2191 C 0.34758 0.85043 0.99341 0.0
C2192 C 0.34924 0.82697 0.98098 0.0
C2193 C 0.34729 0.89339 0.01855 0.0
C2194 C 0.36753 0.88695 0.00537 0.0
C2195 C 0.36737 0.86545 0.99311 0.0
C2196 C 0.38885 0.90245 1.00388 0.0
C2197 C 0.3467 0.91541 0.03345 0.0
C2198 C 0.38676 0.92571 0.99574 0.0
C2199 C 0.40634 0.94067 0.99518 0.0
C2200 C 0.42876 0.93277 1.00243 0.0
C2201 C 0.43111 0.90914 0.00965 0.0
C2202 C 0.41133 0.89415 0.01038 0.0
H2203 H 0.33347 0.91401 0.04781 0.0
H2204 H 0.36419 0.91908 0.04143 0.0
H2205 H 0.34172 0.93064 0.02224 0.0
H2206 H 0.36988 0.9324 0.98986 0.0
H2207 H 0.40379 0.95858 0.98906 0.0
H2208 H 0.73645 0.20418 0.04884 0.0
H2209 H 0.70801 0.17194 0.04629 0.0
H2210 H 0.71448 0.17225 0.97058 0.0
H2211 H 0.74272 0.20496 0.97321 0.0
H2212 H 0.66928 0.17716 0.98408 0.0
H2213 H 0.70777 0.10234 0.03328 0.0
H2214 H 0.7081 0.12906 0.05014 0.0
H2215 H 0.72525 0.12708 0.02353 0.0
C2216 C 0.73275 0.19649 0.03176 0.0
C2217 C 0.74223 0.20669 0.01126 0.0
C2218 C 0.71632 0.17814 0.03027 0.0
C2219 C 0.70906 0.16948 0.00824 0.0
C2220 C 0.71981 0.17854 0.9878 0.0
H2221 H 0.61135 0.05292 0.99115 0.0
H2222 H 0.64494 0.07948 0.9912 0.0
C2223 C 0.73627 0.19696 0.9893 0.0
C2224 C 0.6884 0.15321 0.00651 0.0
H2225 H 0.66599 0.10125 0.02724 0.0
C2226 C 0.66867 0.16044 0.99333 0.0
C2227 C 0.68749 0.13135 0.01852 0.0
C2228 C 0.70838 0.12188 0.03197 0.0
C2229 C 0.64805 0.14666 0.99213 0.0
C2230 C 0.64683 0.12522 1.00486 0.0
C2231 C 0.6667 0.11782 0.01771 0.0
C2232 C 0.62561 0.1096 1.00426 0.0
C2233 C 0.62795 0.15503 0.97687 0.0
C2234 C 0.60325 0.11758 0.01151 0.0
C2235 C 0.58369 0.10232 0.01137 0.0
C2236 C 0.58621 0.07869 1.00429 0.0
C2237 C 0.60863 0.07091 0.99695 0.0
C2238 C 0.62799 0.08612 0.99694 0.0
H2239 H 0.63392 0.16811 0.96356 0.0
H2240 H 0.61947 0.14005 0.96755 0.0
H2241 H 0.6145 0.16365 0.98812 0.0
H2242 H 0.60098 0.13548 0.0177 0.0
H2243 H 0.56679 0.10888 0.01731 0.0
H2244 H 0.46664 0.69779 0.76589 0.0
H2245 H 0.46655 0.66601 0.79529 0.0
H2246 H 0.54088 0.67662 0.80692 0.0
H2247 H 0.54101 0.70801 0.77728 0.0
H2248 H 0.52862 0.6299 0.81129 0.0
H2249 H 0.46881 0.68628 0.86415 0.0
H2250 H 0.45727 0.6785 0.83574 0.0
H2251 H 0.48317 0.69667 0.83777 0.0
C2252 C 0.48316 0.69246 0.77385 0.0
C2253 C 0.50392 0.70504 0.76898 0.0
C2254 C 0.48302 0.67466 0.79104 0.0
C2255 C 0.50357 0.66936 0.80387 0.0
C2256 C 0.52476 0.68044 0.79744 0.0
H2257 H 0.50964 0.60833 0.94636 0.0
H2258 H 0.51117 0.63507 0.91224 0.0
C2259 C 0.52491 0.69817 0.78024 0.0
C2260 C 0.50275 0.65388 0.82518 0.0
H2261 H 0.47757 0.64855 0.87976 0.0
C2262 C 0.51741 0.63396 0.82622 0.0
C2263 C 0.48865 0.65949 0.84503 0.0
C2264 C 0.47375 0.68151 0.84582 0.0
C2265 C 0.51792 0.61925 0.84622 0.0
C2266 C 0.50305 0.6243 0.86566 0.0
C2267 C 0.4888 0.64451 0.86484 0.0
C2268 C 0.50157 0.60844 0.88665 0.0
C2269 C 0.53476 0.59867 0.84649 0.0
C2270 C 0.49502 0.58479 0.88381 0.0
C2271 C 0.49418 0.56956 0.90315 0.0
C2272 C 0.49964 0.57756 0.92605 0.0
C2273 C 0.50539 0.60151 0.92905 0.0
C2274 C 0.50632 0.6168 0.90953 0.0
H2275 H 0.54961 0.60139 0.83403 0.0
H2276 H 0.54208 0.5957 0.86439 0.0
H2277 H 0.52523 0.5825 0.84099 0.0
H2278 H 0.49055 0.57802 0.86654 0.0
H2279 H 0.48927 0.55138 0.90002 0.0
H2280 H 0.30893 0.46709 0.76499 0.0
H2281 H 0.34001 0.4658 0.79507 0.0
H2282 H 0.33609 0.54135 0.80223 0.0
H2283 H 0.30548 0.54262 0.77184 0.0
H2284 H 0.38092 0.52586 0.80903 0.0
H2285 H 0.31899 0.47294 0.863 0.0
H2286 H 0.32662 0.45929 0.83552 0.0
H2287 H 0.31041 0.48654 0.83558 0.0
C2288 C 0.31565 0.4835 0.77207 0.0
C2289 C 0.3051 0.505 0.76571 0.0
C2290 C 0.33301 0.48273 0.7897 0.0
C2291 C 0.3399 0.50341 0.80155 0.0
C2292 C 0.33101 0.52511 0.79357 0.0
H2293 H 0.39819 0.51184 0.94537 0.0
H2294 H 0.37213 0.51307 0.91066 0.0
C2295 C 0.31374 0.52589 0.7759 0.0
C2296 C 0.35477 0.50242 0.82334 0.0
H2297 H 0.35697 0.47939 0.87914 0.0
C2298 C 0.37568 0.51564 0.82431 0.0
C2299 C 0.34768 0.48967 0.84367 0.0
C2300 C 0.32459 0.4765 0.84458 0.0
C2301 C 0.38989 0.51602 0.84468 0.0
C2302 C 0.38335 0.50241 0.86463 0.0
C2303 C 0.36217 0.48963 0.86386 0.0
C2304 C 0.3986 0.50077 0.8861 0.0
C2305 C 0.41158 0.53142 0.84477 0.0
C2306 C 0.42187 0.4927 0.88412 0.0
C2307 C 0.43669 0.49204 0.90378 0.0
C2308 C 0.42866 0.49918 0.92619 0.0
C2309 C 0.405 0.50626 0.92845 0.0
C2310 C 0.39011 0.50704 0.90858 0.0
H2311 H 0.41016 0.54591 0.83166 0.0
H2312 H 0.41467 0.53926 0.86243 0.0
H2313 H 0.42716 0.52061 0.84003 0.0
H2314 H 0.42869 0.48701 0.86724 0.0
H2315 H 0.45463 0.48603 0.90129 0.0
H2316 H 0.46733 0.31275 0.76617 0.0
H2317 H 0.46943 0.34433 0.79558 0.0
H2318 H 0.54339 0.33003 0.80552 0.0
H2319 H 0.5413 0.29882 0.77583 0.0
H2320 H 0.47957 0.33474 0.84115 0.0
H2321 H 0.54316 0.40119 0.8084 0.0
H2322 H 0.52986 0.37946 0.78934 0.0
H2323 H 0.5545 0.37167 0.80771 0.0
C2324 C 0.48431 0.31734 0.77362 0.0
C2325 C 0.50431 0.30382 0.76817 0.0
C2326 C 0.48543 0.3351 0.79077 0.0
C2327 C 0.50658 0.3397 0.80286 0.0
C2328 C 0.52697 0.32729 0.7962 0.0
H2329 H 0.51281 0.3988 0.94698 0.0
H2330 H 0.514 0.37186 0.91304 0.0
C2331 C 0.52584 0.30956 0.77901 0.0
C2332 C 0.50664 0.35523 0.82417 0.0
H2333 H 0.53324 0.40322 0.84915 0.0
C2334 C 0.49124 0.34979 0.84282 0.0
C2335 C 0.52185 0.37488 0.82649 0.0
C2336 C 0.53813 0.38232 0.80684 0.0
C2337 C 0.49062 0.36335 0.8636 0.0
C2338 C 0.50615 0.38273 0.86611 0.0
C2339 C 0.52151 0.38821 0.84743 0.0
C2340 C 0.50556 0.39861 0.88713 0.0
C2341 C 0.47288 0.35717 0.88241 0.0
C2342 C 0.50077 0.42263 0.88398 0.0
C2343 C 0.50022 0.43798 0.9032 0.0
C2344 C 0.50452 0.42985 0.92632 0.0
C2345 C 0.50926 0.4057 0.92955 0.0
C2346 C 0.50988 0.39026 0.91013 0.0
H2347 H 0.45874 0.34548 0.87555 0.0
H2348 H 0.48194 0.34777 0.89696 0.0
H2349 H 0.46463 0.37331 0.88978 0.0
H2350 H 0.4973 0.42957 0.86653 0.0
H2351 H 0.49633 0.45636 0.89978 0.0
H2352 H 0.69581 0.54173 0.76646 0.0
H2353 H 0.66388 0.54125 0.79562 0.0
H2354 H 0.67555 0.46704 0.80715 0.0
H2355 H 0.70711 0.46749 0.77772 0.0
H2356 H 0.62851 0.47887 0.81158 0.0
H2357 H 0.68467 0.53895 0.86445 0.0
H2358 H 0.67677 0.5505 0.83607 0.0
H2359 H 0.69506 0.52469 0.83803 0.0
C2360 C 0.69066 0.52509 0.7743 0.0
C2361 C 0.70361 0.50455 0.76949 0.0
C2362 C 0.67277 0.52491 0.79136 0.0
C2363 C 0.66776 0.50425 0.80413 0.0
C2364 C 0.67916 0.48324 0.7977 0.0
H2365 H 0.607 0.49754 0.94665 0.0
H2366 H 0.63372 0.49623 0.91253 0.0
C2367 C 0.69698 0.48341 0.7806 0.0
C2368 C 0.65236 0.50487 0.82547 0.0
H2369 H 0.64702 0.52997 0.88008 0.0
C2370 C 0.63254 0.49008 0.82652 0.0
C2371 C 0.65794 0.51898 0.84534 0.0
C2372 C 0.67989 0.53401 0.84612 0.0
C2373 C 0.61787 0.48948 0.84653 0.0
C2374 C 0.62288 0.50437 0.86597 0.0
C2375 C 0.64301 0.51873 0.86516 0.0
C2376 C 0.60705 0.50577 0.88696 0.0
C2377 C 0.59736 0.47254 0.8468 0.0
C2378 C 0.58338 0.51225 0.88413 0.0
C2379 C 0.56817 0.51298 0.90346 0.0
C2380 C 0.5762 0.50746 0.92634 0.0
C2381 C 0.60017 0.50184 0.92935 0.0
C2382 C 0.61545 0.50102 0.90984 0.0
H2383 H 0.60011 0.45771 0.83431 0.0
H2384 H 0.59447 0.46517 0.86469 0.0
H2385 H 0.58115 0.482 0.84134 0.0
H2386 H 0.57659 0.51674 0.86687 0.0
H2387 H 0.54997 0.51782 0.90035 0.0
H2388 H 0.5429 0.31285 0.24133 0.0
H2389 H 0.5395 0.34484 0.21247 0.0
H2390 H 0.46794 0.32383 0.1978 0.0
H2391 H 0.47129 0.29218 0.22701 0.0
H2392 H 0.5329 0.33532 0.16624 0.0
H2393 H 0.46175 0.39492 0.19653 0.0
H2394 H 0.47596 0.37407 0.21592 0.0
H2395 H 0.45329 0.36444 0.19597 0.0
C2396 C 0.52605 0.31596 0.23289 0.0
C2397 C 0.50714 0.30049 0.23689 0.0
C2398 C 0.52422 0.33399 0.21611 0.0
C2399 C 0.50345 0.33687 0.20289 0.0
C2400 C 0.48399 0.32238 0.20803 0.0
H2401 H 0.50008 0.39872 0.06024 0.0
H2402 H 0.49909 0.37117 0.09364 0.0
C2403 C 0.48582 0.30439 0.2249 0.0
C2404 C 0.50319 0.3529 0.182 0.0
H2405 H 0.47412 0.39923 0.15665 0.0
C2406 C 0.5201 0.34937 0.16422 0.0
C2407 C 0.4865 0.37124 0.17925 0.0
C2408 C 0.46848 0.37659 0.19802 0.0
C2409 C 0.52079 0.36357 0.14389 0.0
C2410 C 0.50384 0.38163 0.14093 0.0
C2411 C 0.48696 0.38522 0.15873 0.0
C2412 C 0.50425 0.39798 0.12031 0.0
C2413 C 0.54007 0.3595 0.12605 0.0
C2414 C 0.5071 0.42223 0.12408 0.0
C2415 C 0.50759 0.43794 0.10512 0.0
C2416 C 0.50514 0.42992 0.08173 0.0
C2417 C 0.50225 0.40556 0.07791 0.0
C2418 C 0.50173 0.38977 0.09703 0.0
H2419 H 0.55473 0.34883 0.13346 0.0
H2420 H 0.53271 0.34984 0.11073 0.0
H2421 H 0.54734 0.3765 0.11961 0.0
H2422 H 0.50913 0.42905 0.14179 0.0
H2423 H 0.50991 0.4565 0.10896 0.0
H2424 H 0.69918 0.54049 0.24059 0.0
H2425 H 0.6671 0.54171 0.21158 0.0
H2426 H 0.67264 0.46644 0.20255 0.0
H2427 H 0.70428 0.46527 0.23178 0.0
H2428 H 0.67372 0.5302 0.16597 0.0
H2429 H 0.60221 0.47426 0.20152 0.0
H2430 H 0.62587 0.48524 0.21974 0.0
H2431 H 0.63018 0.45954 0.20164 0.0
C2432 C 0.69257 0.52409 0.2334 0.0
C2433 C 0.70373 0.50269 0.23898 0.0
C2434 C 0.67453 0.52481 0.21648 0.0
C2435 C 0.66727 0.50415 0.20481 0.0
C2436 C 0.67742 0.48257 0.21155 0.0
H2437 H 0.60713 0.49739 0.06173 0.0
H2438 H 0.63397 0.49698 0.09576 0.0
C2439 C 0.69541 0.48186 0.22846 0.0
C2440 C 0.65122 0.50544 0.18392 0.0
H2441 H 0.6008 0.48243 0.16022 0.0
C2442 C 0.65767 0.51989 0.16481 0.0
C2443 C 0.63022 0.49205 0.18228 0.0
C2444 C 0.62157 0.47708 0.20248 0.0
C2445 C 0.64393 0.52112 0.14416 0.0
C2446 C 0.62332 0.50716 0.14224 0.0
C2447 C 0.61673 0.49293 0.16146 0.0
C2448 C 0.6076 0.50794 0.12108 0.0
C2449 C 0.65137 0.53775 0.12478 0.0
C2450 C 0.5838 0.51395 0.12385 0.0
C2451 C 0.56848 0.51402 0.10457 0.0
C2452 C 0.57644 0.50801 0.08181 0.0
C2453 C 0.6004 0.50229 0.0789 0.0
C2454 C 0.61579 0.50212 0.09837 0.0
H2455 H 0.66381 0.55139 0.1313 0.0
H2456 H 0.6604 0.52759 0.11074 0.0
H2457 H 0.63587 0.54669 0.11685 0.0
H2458 H 0.57698 0.51859 0.14106 0.0
H2459 H 0.55025 0.51874 0.10764 0.0
H2460 H 0.46556 0.71977 0.22322 0.0
H2461 H 0.46187 0.68799 0.19421 0.0
H2462 H 0.53178 0.66393 0.21181 0.0
H2463 H 0.53551 0.69596 0.24058 0.0
H2464 H 0.52692 0.67322 0.16489 0.0
H2465 H 0.45275 0.61688 0.19438 0.0
H2466 H 0.44572 0.64772 0.19336 0.0
H2467 H 0.46753 0.63727 0.21384 0.0
C2468 C 0.4796 0.70691 0.22176 0.0
C2469 C 0.50055 0.70988 0.23463 0.0
C2470 C 0.47758 0.68884 0.20501 0.0
C2471 C 0.49651 0.67341 0.20081 0.0
C2472 C 0.51689 0.67551 0.21475 0.0
H2473 H 0.50089 0.55209 0.10892 0.0
H2474 H 0.49984 0.57997 0.14133 0.0
C2475 C 0.51889 0.69358 0.23147 0.0
C2476 C 0.49619 0.65703 0.1802 0.0
H2477 H 0.46601 0.61135 0.15497 0.0
C2478 C 0.51364 0.65962 0.16279 0.0
C2479 C 0.47891 0.63926 0.17738 0.0
C2480 C 0.46028 0.6349 0.19582 0.0
C2481 C 0.51427 0.64505 0.14273 0.0
C2482 C 0.49671 0.62759 0.13965 0.0
C2483 C 0.47932 0.62491 0.15712 0.0
C2484 C 0.49696 0.61091 0.11928 0.0
C2485 C 0.53412 0.64812 0.12531 0.0
C2486 C 0.4955 0.61889 0.09583 0.0
C2487 C 0.4962 0.60284 0.07695 0.0
C2488 C 0.49821 0.57845 0.08116 0.0
C2489 C 0.49936 0.57065 0.10474 0.0
C2490 C 0.4987 0.58662 0.12347 0.0
H2491 H 0.54904 0.65825 0.13295 0.0
H2492 H 0.54082 0.63076 0.11923 0.0
H2493 H 0.52755 0.65791 0.10971 0.0
H2494 H 0.49372 0.63752 0.0921 0.0
H2495 H 0.49514 0.60955 0.05911 0.0
H2496 H 0.29459 0.46724 0.23151 0.0
H2497 H 0.3255 0.46362 0.20164 0.0
H2498 H 0.34641 0.53553 0.21459 0.0
H2499 H 0.31519 0.53919 0.24417 0.0
H2500 H 0.33564 0.52827 0.16865 0.0
H2501 H 0.39651 0.45782 0.19808 0.0
H2502 H 0.36609 0.44917 0.19858 0.0
H2503 H 0.37621 0.47217 0.21791 0.0
C2504 C 0.30671 0.48179 0.22897 0.0
C2505 C 0.30289 0.50328 0.2407 0.0
C2506 C 0.32426 0.47981 0.21165 0.0
C2507 C 0.33843 0.49929 0.20574 0.0
C2508 C 0.3358 0.52021 0.21877 0.0
H2509 H 0.45559 0.50556 0.10915 0.0
H2510 H 0.42873 0.50442 0.14231 0.0
C2511 C 0.31823 0.52218 0.23604 0.0
C2512 C 0.35382 0.49885 0.18431 0.0
H2513 H 0.39953 0.46971 0.15795 0.0
C2514 C 0.34967 0.5155 0.16639 0.0
C2515 C 0.37215 0.48221 0.1812 0.0
C2516 C 0.3782 0.46446 0.20004 0.0
C2517 C 0.36326 0.51602 0.14561 0.0
C2518 C 0.38134 0.49913 0.14232 0.0
C2519 C 0.38551 0.48249 0.16025 0.0
C2520 C 0.39732 0.49956 0.12133 0.0
C2521 C 0.35856 0.53509 0.12768 0.0
C2522 C 0.38877 0.49712 0.09813 0.0
C2523 C 0.40427 0.49786 0.07874 0.0
C2524 C 0.42867 0.50089 0.08218 0.0
C2525 C 0.43701 0.50315 0.10551 0.0
C2526 C 0.42161 0.50245 0.1247 0.0
H2527 H 0.34794 0.54972 0.13519 0.0
H2528 H 0.37532 0.54245 0.12076 0.0
H2529 H 0.3486 0.52749 0.11267 0.0
H2530 H 0.37014 0.49446 0.09501 0.0
H2531 H 0.39715 0.49589 0.06115 0.0
H2532 H 0.7742 0.54556 0.70436 0.0
H2533 H 0.80337 0.54317 0.67278 0.0
H2534 H 0.79616 0.4675 0.67193 0.0
H2535 H 0.76717 0.46997 0.70394 0.0
H2536 H 0.84154 0.48081 0.67815 0.0
H2537 H 0.80469 0.53075 0.60291 0.0
H2538 H 0.80396 0.54721 0.62987 0.0
H2539 H 0.78668 0.52074 0.62714 0.0
C2540 C 0.77789 0.52855 0.69652 0.0
C2541 C 0.76793 0.508 0.70615 0.0
C2542 C 0.79476 0.52715 0.67856 0.0
C2543 C 0.802 0.50515 0.66979 0.0
C2544 C 0.79085 0.48469 0.67831 0.0
H2545 H 0.90002 0.48579 0.55446 0.0
H2546 H 0.86656 0.48637 0.58112 0.0
C2547 C 0.77396 0.48611 0.69631 0.0
C2548 C 0.82297 0.5034 0.65393 0.0
H2549 H 0.84622 0.52371 0.6022 0.0
C2550 C 0.84247 0.49004 0.66144 0.0
C2551 C 0.8243 0.51541 0.6321 0.0
C2552 C 0.8037 0.52914 0.6224 0.0
C2553 C 0.86323 0.48857 0.64792 0.0
C2554 C 0.86482 0.50115 0.62643 0.0
C2555 C 0.84521 0.51428 0.61879 0.0
C2556 C 0.88605 0.49997 0.61089 0.0
C2557 C 0.88309 0.47315 0.65657 0.0
C2558 C 0.9085 0.50722 0.61869 0.0
C2559 C 0.92799 0.50681 0.60335 0.0
C2560 C 0.92532 0.49941 0.57984 0.0
C2561 C 0.90286 0.49186 0.57233 0.0
C2562 C 0.88357 0.49216 0.5876 0.0
H2563 H 0.87697 0.46022 0.66994 0.0
H2564 H 0.89135 0.46339 0.64176 0.0
H2565 H 0.89679 0.48438 0.66486 0.0
H2566 H 0.91086 0.51372 0.63647 0.0
H2567 H 0.94493 0.51291 0.60969 0.0
H2568 H 0.53681 0.76603 0.69934 0.0
H2569 H 0.53794 0.7949 0.66711 0.0
H2570 H 0.4626 0.80338 0.67214 0.0
H2571 H 0.46148 0.7742 0.70391 0.0
H2572 H 0.47762 0.80818 0.62671 0.0
H2573 H 0.53179 0.86364 0.6863 0.0
H2574 H 0.54494 0.83572 0.67934 0.0
H2575 H 0.51796 0.83668 0.69593 0.0
C2576 C 0.52039 0.77313 0.69266 0.0
C2577 C 0.49901 0.76756 0.70382 0.0
C2578 C 0.52108 0.79005 0.67461 0.0
C2579 C 0.50044 0.80192 0.66767 0.0
C2580 C 0.4788 0.79466 0.67726 0.0
H2581 H 0.49104 0.94418 0.60727 0.0
H2582 H 0.49028 0.90968 0.63353 0.0
C2583 C 0.47811 0.77771 0.6952 0.0
C2584 C 0.50145 0.82317 0.65211 0.0
H2585 H 0.52446 0.87886 0.64818 0.0
C2586 C 0.48793 0.82359 0.63138 0.0
C2587 C 0.51436 0.84363 0.65847 0.0
C2588 C 0.5279 0.8451 0.68133 0.0
C2589 C 0.48733 0.8436 0.61668 0.0
C2590 C 0.50099 0.8637 0.62256 0.0
C2591 C 0.51417 0.86345 0.6435 0.0
C2592 C 0.50211 0.88494 0.607 0.0
C2593 C 0.47157 0.84317 0.59526 0.0
C2594 C 0.50966 0.88275 0.58358 0.0
C2595 C 0.51001 0.90232 0.56861 0.0
C2596 C 0.50311 0.92478 0.57668 0.0
C2597 C 0.49643 0.9272 0.60043 0.0
C2598 C 0.49594 0.90745 0.61544 0.0
H2599 H 0.45722 0.82998 0.59714 0.0
H2600 H 0.46354 0.86072 0.59199 0.0
H2601 H 0.48216 0.83824 0.57959 0.0
H2602 H 0.51525 0.86582 0.57679 0.0
H2603 H 0.51571 0.89973 0.55058 0.0
H2604 H 0.23378 0.4642 0.70345 0.0
H2605 H 0.20399 0.4644 0.6723 0.0
H2606 H 0.21266 0.53951 0.66453 0.0
H2607 H 0.24223 0.53927 0.69609 0.0
H2608 H 0.16726 0.52805 0.6727 0.0
H2609 H 0.20097 0.47043 0.60165 0.0
H2610 H 0.2018 0.45653 0.63003 0.0
H2611 H 0.21981 0.48206 0.6245 0.0
C2612 C 0.23031 0.48051 0.69413 0.0
C2613 C 0.24088 0.50161 0.70173 0.0
C2614 C 0.21304 0.48068 0.67644 0.0
C2615 C 0.206 0.50197 0.66586 0.0
C2616 C 0.21777 0.52283 0.6723 0.0
H2617 H 0.10658 0.51577 0.55068 0.0
H2618 H 0.14049 0.51524 0.57678 0.0
C2619 C 0.23503 0.52265 0.69004 0.0
C2620 C 0.18466 0.50284 0.65031 0.0
H2621 H 0.15979 0.47906 0.60081 0.0
C2622 C 0.16573 0.51744 0.65689 0.0
C2623 C 0.1825 0.48905 0.62963 0.0
C2624 C 0.20243 0.4738 0.62088 0.0
C2625 C 0.14478 0.51851 0.64355 0.0
C2626 C 0.14238 0.50425 0.62322 0.0
C2627 C 0.1614 0.4898 0.61653 0.0
C2628 C 0.12094 0.50502 0.60782 0.0
C2629 C 0.12564 0.53533 0.65111 0.0
C2630 C 0.09829 0.49953 0.61644 0.0
C2631 C 0.07852 0.49991 0.60141 0.0
C2632 C 0.08104 0.50554 0.57738 0.0
C2633 C 0.10376 0.51116 0.56898 0.0
C2634 C 0.12334 0.51086 0.58394 0.0
H2635 H 0.13243 0.54906 0.6633 0.0
H2636 H 0.11754 0.54417 0.63563 0.0
H2637 H 0.11165 0.52536 0.66045 0.0
H2638 H 0.09594 0.49454 0.6347 0.0
H2639 H 0.06142 0.4953 0.6085 0.0
H2640 H 0.54 0.23193 0.70867 0.0
H2641 H 0.5412 0.2018 0.67782 0.0
H2642 H 0.46688 0.21163 0.66538 0.0
H2643 H 0.4657 0.2415 0.69657 0.0
H2644 H 0.47739 0.16603 0.67533 0.0
H2645 H 0.53885 0.19828 0.60668 0.0
H2646 H 0.55098 0.19934 0.63587 0.0
H2647 H 0.5261 0.21756 0.62852 0.0
C2648 C 0.52425 0.22862 0.69839 0.0
C2649 C 0.5029 0.23958 0.70454 0.0
C2650 C 0.52487 0.21117 0.68089 0.0
C2651 C 0.50414 0.20437 0.66912 0.0
C2652 C 0.48314 0.21655 0.67411 0.0
H2653 H 0.49008 0.10703 0.5535 0.0
H2654 H 0.49149 0.14023 0.58033 0.0
C2655 C 0.48253 0.23396 0.69164 0.0
C2656 C 0.50374 0.18289 0.65384 0.0
H2657 H 0.52871 0.15756 0.60521 0.0
C2658 C 0.48855 0.16425 0.65993 0.0
C2659 C 0.5183 0.18043 0.63375 0.0
C2660 C 0.53432 0.20004 0.62564 0.0
C2661 C 0.48749 0.14335 0.64656 0.0
C2662 C 0.50232 0.14073 0.62669 0.0
C2663 C 0.51751 0.15938 0.62059 0.0
C2664 C 0.50112 0.11966 0.61091 0.0
C2665 C 0.47001 0.12453 0.65346 0.0
C2666 C 0.50592 0.09668 0.61906 0.0
C2667 C 0.50505 0.07727 0.60359 0.0
C2668 C 0.49957 0.08054 0.57961 0.0
C2669 C 0.49458 0.1036 0.57173 0.0
C2670 C 0.49539 0.12279 0.5871 0.0
H2671 H 0.45638 0.13138 0.66573 0.0
H2672 H 0.46109 0.11717 0.63768 0.0
H2673 H 0.47946 0.10996 0.66245 0.0
H2674 H 0.51073 0.09378 0.6373 0.0
H2675 H 0.50914 0.05987 0.61028 0.0
H2676 H 0.76448 0.46854 0.30942 0.0
H2677 H 0.79294 0.46782 0.34199 0.0
H2678 H 0.8029 0.54283 0.33472 0.0
H2679 H 0.77421 0.54352 0.30258 0.0
H2680 H 0.83864 0.47867 0.33521 0.0
H2681 H 0.80367 0.5366 0.40536 0.0
H2682 H 0.78536 0.52532 0.38192 0.0
H2683 H 0.80384 0.55065 0.37705 0.0
C2684 C 0.77171 0.48504 0.31576 0.0
C2685 C 0.76659 0.50619 0.30395 0.0
C2686 C 0.78832 0.48459 0.33409 0.0
C2687 C 0.80014 0.50529 0.34098 0.0
C2688 C 0.79377 0.52669 0.33023 0.0
H2689 H 0.94325 0.5109 0.40099 0.0
H2690 H 0.90911 0.5118 0.37433 0.0
C2691 C 0.77715 0.52713 0.31196 0.0
C2692 C 0.82096 0.5041 0.35714 0.0
H2693 H 0.84485 0.52779 0.40714 0.0
C2694 C 0.83989 0.48929 0.35105 0.0
C2695 C 0.82273 0.5179 0.37785 0.0
C2696 C 0.80272 0.53334 0.38608 0.0
C2697 C 0.86048 0.48806 0.36487 0.0
C2698 C 0.86254 0.5024 0.38518 0.0
C2699 C 0.8435 0.517 0.39143 0.0
C2700 C 0.88368 0.50164 0.40093 0.0
C2701 C 0.87964 0.47104 0.35781 0.0
C2702 C 0.88088 0.496 0.42482 0.0
C2703 C 0.90024 0.49565 0.44005 0.0
C2704 C 0.9231 0.501 0.4319 0.0
C2705 C 0.926 0.50649 0.40788 0.0
C2706 C 0.90647 0.50694 0.39259 0.0
H2707 H 0.87295 0.45722 0.34566 0.0
H2708 H 0.89383 0.48082 0.34858 0.0
H2709 H 0.88743 0.46231 0.37351 0.0
H2710 H 0.86359 0.49178 0.43175 0.0
H2711 H 0.89715 0.49115 0.45834 0.0
H2712 H 0.46572 0.7818 0.29041 0.0
H2713 H 0.46164 0.8116 0.32148 0.0
H2714 H 0.53299 0.79805 0.34379 0.0
H2715 H 0.53715 0.76856 0.31249 0.0
H2716 H 0.46771 0.81562 0.37072 0.0
H2717 H 0.53489 0.86698 0.32169 0.0
H2718 H 0.52108 0.84097 0.30967 0.0
H2719 H 0.54474 0.83825 0.33059 0.0
C2720 C 0.48009 0.78436 0.30273 0.0
C2721 C 0.5016 0.77258 0.29934 0.0
C2722 C 0.47787 0.80163 0.32027 0.0
C2723 C 0.49721 0.80752 0.33459 0.0
C2724 C 0.51797 0.79415 0.33266 0.0
H2725 H 0.505 0.90005 0.45459 0.0
H2726 H 0.5031 0.86757 0.42692 0.0
C2727 C 0.52021 0.77696 0.31509 0.0
C2728 C 0.49643 0.82892 0.34986 0.0
H2729 H 0.52288 0.88245 0.35863 0.0
C2730 C 0.47974 0.83024 0.36805 0.0
C2731 C 0.5117 0.84835 0.34602 0.0
C2732 C 0.52897 0.84877 0.3258 0.0
C2733 C 0.47847 0.85003 0.38298 0.0
C2734 C 0.49454 0.86894 0.37988 0.0
C2735 C 0.51069 0.86794 0.36118 0.0
C2736 C 0.49564 0.88929 0.39652 0.0
C2737 C 0.45974 0.85058 0.40184 0.0
C2738 C 0.49296 0.91268 0.38861 0.0
C2739 C 0.49422 0.93165 0.40454 0.0
C2740 C 0.49833 0.92758 0.42867 0.0
C2741 C 0.50149 0.9041 0.43628 0.0
C2742 C 0.50026 0.88531 0.42044 0.0
H2743 H 0.44466 0.83894 0.39732 0.0
H2744 H 0.46738 0.84418 0.41867 0.0
H2745 H 0.45303 0.86875 0.40465 0.0
H2746 H 0.48965 0.91623 0.37016 0.0
H2747 H 0.49176 0.94941 0.39798 0.0
H2748 H 0.22642 0.46771 0.29345 0.0
H2749 H 0.19566 0.46479 0.32372 0.0
H2750 H 0.20987 0.53636 0.34489 0.0
H2751 H 0.24037 0.53933 0.31441 0.0
H2752 H 0.19099 0.47132 0.37248 0.0
H2753 H 0.14118 0.53926 0.32292 0.0
H2754 H 0.16708 0.52508 0.31116 0.0
H2755 H 0.16995 0.54871 0.33208 0.0
C2756 C 0.22374 0.4824 0.30534 0.0
C2757 C 0.23617 0.50357 0.30192 0.0
C2758 C 0.2059 0.48085 0.32243 0.0
C2759 C 0.19997 0.50055 0.33624 0.0
C2760 C 0.21375 0.52106 0.33417 0.0
H2761 H 0.10601 0.50911 0.45571 0.0
H2762 H 0.13878 0.50743 0.42834 0.0
C2763 C 0.23154 0.52261 0.31707 0.0
C2764 C 0.17839 0.50023 0.35142 0.0
H2765 H 0.12518 0.52752 0.35977 0.0
C2766 C 0.17661 0.48359 0.36967 0.0
C2767 C 0.15924 0.51581 0.34745 0.0
C2768 C 0.15925 0.53308 0.32721 0.0
C2769 C 0.15666 0.48265 0.38446 0.0
C2770 C 0.13801 0.49899 0.38119 0.0
C2771 C 0.13947 0.51512 0.36247 0.0
C2772 C 0.11741 0.50026 0.39763 0.0
C2773 C 0.15568 0.46394 0.40334 0.0
C2774 C 0.09408 0.4977 0.38951 0.0
C2775 C 0.07493 0.49881 0.40528 0.0
C2776 C 0.07873 0.50266 0.42951 0.0
C2777 C 0.10215 0.50579 0.43733 0.0
C2778 C 0.12111 0.50469 0.42165 0.0
H2779 H 0.16722 0.44874 0.399 0.0
H2780 H 0.16193 0.47154 0.42023 0.0
H2781 H 0.13741 0.4574 0.40591 0.0
H2782 H 0.0907 0.49452 0.371 0.0
H2783 H 0.05724 0.49637 0.39854 0.0
H2784 H 0.46966 0.22367 0.28881 0.0
H2785 H 0.4655 0.19506 0.3209 0.0
H2786 H 0.53437 0.21415 0.34676 0.0
H2787 H 0.53859 0.24252 0.3144 0.0
H2788 H 0.53062 0.16711 0.33822 0.0
H2789 H 0.4541 0.19594 0.39152 0.0
H2790 H 0.44797 0.19434 0.36053 0.0
H2791 H 0.4691 0.21538 0.37127 0.0
C2792 C 0.48334 0.22262 0.30209 0.0
C2793 C 0.50416 0.23579 0.29955 0.0
C2794 C 0.48105 0.20611 0.32035 0.0
C2795 C 0.49956 0.20245 0.33642 0.0
C2796 C 0.51979 0.21668 0.3347 0.0
H2797 H 0.50035 0.11002 0.45808 0.0
H2798 H 0.50026 0.14283 0.43051 0.0
C2799 C 0.52207 0.23317 0.31643 0.0
C2800 C 0.49906 0.18205 0.35308 0.0
H2801 H 0.46752 0.15659 0.39769 0.0
C2802 C 0.51687 0.1649 0.35131 0.0
C2803 C 0.48118 0.17908 0.37021 0.0
C2804 C 0.46212 0.19726 0.37371 0.0
C2805 C 0.51722 0.1449 0.366 0.0
C2806 C 0.49902 0.14163 0.38275 0.0
C2807 C 0.48132 0.15888 0.38468 0.0
C2808 C 0.49872 0.12112 0.39926 0.0
C2809 C 0.5374 0.12773 0.36381 0.0
C2810 C 0.49769 0.09775 0.39099 0.0
C2811 C 0.49783 0.07869 0.40683 0.0
C2812 C 0.49885 0.0826 0.43132 0.0
C2813 C 0.49958 0.1061 0.43943 0.0
C2814 C 0.49947 0.12503 0.42364 0.0
H2815 H 0.55266 0.1356 0.35438 0.0
H2816 H 0.5434 0.12165 0.38142 0.0
H2817 H 0.53147 0.11209 0.35367 0.0
H2818 H 0.49666 0.09423 0.37227 0.0
H2819 H 0.49708 0.06093 0.39987 0.0
H2820 H 0.69824 0.76855 0.46912 0.0
H2821 H 0.66617 0.79763 0.46918 0.0
H2822 H 0.67758 0.80989 0.54328 0.0
H2823 H 0.70926 0.78056 0.54324 0.0
H2824 H 0.63075 0.81331 0.53193 0.0
H2825 H 0.68441 0.86698 0.47034 0.0
H2826 H 0.67703 0.83831 0.45919 0.0
H2827 H 0.69574 0.84094 0.48464 0.0
C2828 C 0.69307 0.77661 0.48563 0.0
C2829 C 0.70591 0.77191 0.50628 0.0
C2830 C 0.67509 0.79364 0.48557 0.0
C2831 C 0.66984 0.80653 0.5061 0.0
C2832 C 0.68132 0.80037 0.52717 0.0
H2833 H 0.60548 0.94779 0.51145 0.0
H2834 H 0.63297 0.91429 0.51298 0.0
C2835 C 0.69923 0.78334 0.52723 0.0
C2836 C 0.65381 0.8275 0.50539 0.0
H2837 H 0.64647 0.88168 0.47968 0.0
C2838 C 0.63419 0.82822 0.52046 0.0
C2839 C 0.65855 0.84736 0.49092 0.0
C2840 C 0.68019 0.84857 0.47552 0.0
C2841 C 0.61897 0.84785 0.52106 0.0
C2842 C 0.62315 0.86728 0.50586 0.0
C2843 C 0.64306 0.86679 0.49118 0.0
C2844 C 0.60672 0.8879 0.50453 0.0
C2845 C 0.59877 0.84775 0.53835 0.0
C2846 C 0.58296 0.88445 0.49868 0.0
C2847 C 0.56728 0.90346 0.49784 0.0
C2848 C 0.57489 0.92666 0.50259 0.0
C2849 C 0.59891 0.93026 0.50774 0.0
C2850 C 0.61465 0.91108 0.50866 0.0
H2851 H 0.60217 0.83555 0.55329 0.0
H2852 H 0.59549 0.86566 0.54552 0.0
H2853 H 0.58255 0.84168 0.52927 0.0
H2854 H 0.57645 0.86695 0.49471 0.0
H2855 H 0.54907 0.89982 0.49344 0.0
H2856 H 0.69696 0.23971 0.54075 0.0
H2857 H 0.66472 0.2108 0.54085 0.0
H2858 H 0.67299 0.20144 0.46592 0.0
H2859 H 0.70477 0.23063 0.46581 0.0
H2860 H 0.62692 0.19718 0.47891 0.0
H2861 H 0.68336 0.14181 0.53641 0.0
H2862 H 0.67614 0.16994 0.54893 0.0
H2863 H 0.6939 0.1685 0.52272 0.0
C2864 C 0.69103 0.23236 0.52416 0.0
C2865 C 0.70306 0.23774 0.50321 0.0
C2866 C 0.67297 0.21543 0.52428 0.0
C2867 C 0.66687 0.20334 0.5035 0.0
C2868 C 0.67742 0.21032 0.48222 0.0
H2869 H 0.60423 0.06169 0.49486 0.0
H2870 H 0.63119 0.09564 0.49382 0.0
C2871 C 0.69539 0.22728 0.4821 0.0
C2872 C 0.65105 0.18225 0.50406 0.0
H2873 H 0.64528 0.12702 0.52782 0.0
C2874 C 0.63092 0.18188 0.48966 0.0
C2875 C 0.65656 0.16191 0.51755 0.0
C2876 C 0.67877 0.16036 0.5321 0.0
C2877 C 0.61595 0.16208 0.48877 0.0
C2878 C 0.62091 0.14214 0.50303 0.0
C2879 C 0.6413 0.14231 0.51706 0.0
C2880 C 0.60484 0.12126 0.50405 0.0
C2881 C 0.5952 0.16256 0.47213 0.0
C2882 C 0.58124 0.12414 0.51073 0.0
C2883 C 0.56586 0.1049 0.51126 0.0
C2884 C 0.57366 0.08203 0.50538 0.0
C2885 C 0.59754 0.07897 0.49943 0.0
C2886 C 0.61298 0.0984 0.4988 0.0
H2887 H 0.59796 0.17537 0.45757 0.0
H2888 H 0.59189 0.1449 0.46439 0.0
H2889 H 0.57922 0.16808 0.48195 0.0
H2890 H 0.57463 0.14138 0.51559 0.0
H2891 H 0.54774 0.10807 0.51635 0.0
H2892 H 0.77513 0.70609 0.46422 0.0
H2893 H 0.80334 0.67357 0.46556 0.0
H2894 H 0.79491 0.66932 0.54094 0.0
H2895 H 0.76696 0.70233 0.53955 0.0
H2896 H 0.84036 0.67402 0.52939 0.0
H2897 H 0.80274 0.60339 0.47384 0.0
H2898 H 0.80351 0.63117 0.45877 0.0
H2899 H 0.78526 0.62772 0.48449 0.0
C2900 C 0.77832 0.69734 0.4809 0.0
C2901 C 0.76829 0.70632 0.5017 0.0
C2902 C 0.79466 0.67882 0.48171 0.0
C2903 C 0.80131 0.66873 0.50335 0.0
C2904 C 0.79008 0.67667 0.524 0.0
H2905 H 0.89686 0.54938 0.51631 0.0
H2906 H 0.86356 0.57632 0.51629 0.0
C2907 C 0.77375 0.69526 0.52318 0.0
C2908 C 0.82176 0.65205 0.50465 0.0
H2909 H 0.84419 0.60111 0.48147 0.0
C2910 C 0.84107 0.65796 0.51906 0.0
C2911 C 0.82284 0.631 0.49128 0.0
C2912 C 0.80238 0.6228 0.47641 0.0
C2913 C 0.8614 0.64372 0.5202 0.0
C2914 C 0.86283 0.62313 0.50615 0.0
C2915 C 0.84337 0.61701 0.49204 0.0
C2916 C 0.88383 0.60709 0.50656 0.0
C2917 C 0.88093 0.65067 0.53684 0.0
C2918 C 0.90665 0.61523 0.50109 0.0
C2919 C 0.92605 0.59974 0.50123 0.0
C2920 C 0.923 0.57568 0.50655 0.0
C2921 C 0.90009 0.5677 0.51199 0.0
C2922 C 0.88086 0.58314 0.51198 0.0
H2923 H 0.87456 0.66282 0.5508 0.0
H2924 H 0.88886 0.63495 0.54539 0.0
H2925 H 0.89494 0.65993 0.52681 0.0
H2926 H 0.90946 0.6335 0.49633 0.0
H2927 H 0.94331 0.60654 0.49676 0.0
H2928 H 0.28324 0.78549 0.47172 0.0
H2929 H 0.31498 0.81443 0.46717 0.0
H2930 H 0.34399 0.79302 0.53408 0.0
H2931 H 0.31198 0.76432 0.53871 0.0
H2932 H 0.33468 0.84005 0.53248 0.0
H2933 H 0.38513 0.81474 0.45284 0.0
H2934 H 0.35389 0.81618 0.44808 0.0
H2935 H 0.36575 0.7945 0.46794 0.0
C2936 C 0.29713 0.78613 0.48481 0.0
C2937 C 0.29557 0.77223 0.50525 0.0
C2938 C 0.31519 0.80282 0.48232 0.0
C2939 C 0.33203 0.80591 0.50023 0.0
C2940 C 0.33131 0.79093 0.51997 0.0
H2941 H 0.45308 0.89848 0.50031 0.0
H2942 H 0.42545 0.8658 0.49955 0.0
C2943 C 0.31324 0.77427 0.52246 0.0
C2944 C 0.34843 0.8265 0.49982 0.0
H2945 H 0.39155 0.85356 0.46758 0.0
C2946 C 0.3472 0.84292 0.51833 0.0
C2947 C 0.36479 0.83031 0.4814 0.0
C2948 C 0.36769 0.8129 0.46154 0.0
C2949 C 0.36174 0.86301 0.5189 0.0
C2950 C 0.37773 0.86712 0.50021 0.0
C2951 C 0.37909 0.85061 0.48177 0.0
C2952 C 0.39423 0.88762 0.5002 0.0
C2953 C 0.36024 0.87934 0.53983 0.0
C2954 C 0.38599 0.91103 0.50059 0.0
C2955 C 0.40189 0.93003 0.50114 0.0
C2956 C 0.42637 0.92601 0.50119 0.0
C2957 C 0.43443 0.90249 0.50042 0.0
C2958 C 0.4186 0.88363 0.49989 0.0
H2959 H 0.35139 0.87082 0.55508 0.0
H2960 H 0.37805 0.88522 0.54543 0.0
H2961 H 0.34987 0.89517 0.53491 0.0
H2962 H 0.36725 0.91461 0.5004 0.0
H2963 H 0.39497 0.94782 0.50161 0.0
H2964 H 0.24249 0.31753 0.46732 0.0
H2965 H 0.2138 0.34942 0.47229 0.0
H2966 H 0.19593 0.32242 0.54103 0.0
H2967 H 0.22488 0.29079 0.53613 0.0
H2968 H 0.16706 0.33828 0.47628 0.0
H2969 H 0.19393 0.39331 0.55241 0.0
H2970 H 0.21422 0.37408 0.53723 0.0
H2971 H 0.19385 0.36222 0.55839 0.0
C2972 C 0.23344 0.31929 0.48403 0.0
C2973 C 0.23636 0.30208 0.5016 0.0
C2974 C 0.21674 0.33727 0.48673 0.0
C2975 C 0.20262 0.33839 0.50704 0.0
C2976 C 0.20684 0.32228 0.52539 0.0
H2977 H 0.05921 0.39831 0.50887 0.0
H2978 H 0.0929 0.37115 0.51027 0.0
C2979 C 0.22359 0.30431 0.52269 0.0
C2980 C 0.18155 0.35414 0.50757 0.0
H2981 H 0.15461 0.39823 0.53856 0.0
C2982 C 0.16441 0.35145 0.48986 0.0
C2983 C 0.17799 0.37131 0.52529 0.0
C2984 C 0.19605 0.37562 0.54431 0.0
C2985 C 0.14391 0.36539 0.48936 0.0
C2986 C 0.14015 0.38231 0.50728 0.0
C2987 C 0.15732 0.38507 0.52497 0.0
C2988 C 0.11939 0.39844 0.50704 0.0
C2989 C 0.12675 0.3623 0.46929 0.0
C2990 C 0.12298 0.42281 0.50519 0.0
C2991 C 0.10387 0.4383 0.50443 0.0
C2992 C 0.08049 0.42991 0.50561 0.0
C2993 C 0.07687 0.40544 0.5077 0.0
C2994 C 0.09614 0.38987 0.50846 0.0
H2995 H 0.13466 0.3524 0.45437 0.0
H2996 H 0.11118 0.35229 0.4756 0.0
H2997 H 0.12054 0.37966 0.46269 0.0
H2998 H 0.14069 0.42988 0.50405 0.0
H2999 H 0.10759 0.45695 0.50284 0.0
H3000 H 0.29337 0.23496 0.53553 0.0
H3001 H 0.32527 0.20628 0.54194 0.0
H3002 H 0.33651 0.20236 0.46689 0.0
H3003 H 0.30522 0.2312 0.46064 0.0
H3004 H 0.32407 0.16139 0.52686 0.0
H3005 H 0.40334 0.20351 0.48932 0.0
H3006 H 0.37698 0.21999 0.49599 0.0
H3007 H 0.37939 0.20387 0.46874 0.0
C3008 C 0.30348 0.22879 0.52057 0.0
C3009 C 0.29718 0.23565 0.49763 0.0
C3010 C 0.32146 0.21215 0.52418 0.0
C3011 C 0.33352 0.20218 0.50491 0.0
C3012 C 0.328 0.21008 0.48211 0.0
H3013 H 0.39616 0.06164 0.4947 0.0
H3014 H 0.36923 0.09554 0.49521 0.0
C3015 C 0.31013 0.22666 0.47853 0.0
C3016 C 0.35001 0.18189 0.5082 0.0
H3017 H 0.40439 0.16127 0.49256 0.0
C3018 C 0.34176 0.16149 0.51962 0.0
C3019 C 0.37318 0.18192 0.49893 0.0
C3020 C 0.38382 0.2036 0.48778 0.0
C3021 C 0.35571 0.14103 0.52146 0.0
C3022 C 0.37841 0.14066 0.51109 0.0
C3023 C 0.38689 0.16129 0.50024 0.0
C3024 C 0.39403 0.11942 0.51176 0.0
C3025 C 0.34605 0.12013 0.53478 0.0
C3026 C 0.41706 0.12145 0.52056 0.0
C3027 C 0.4325 0.10228 0.51994 0.0
C3028 C 0.42536 0.08041 0.51058 0.0
C3029 C 0.40213 0.07812 0.50226 0.0
C3030 C 0.38669 0.09751 0.50263 0.0
H3031 H 0.33204 0.12549 0.54736 0.0
H3032 H 0.33817 0.10751 0.5221 0.0
H3033 H 0.36017 0.1109 0.54471 0.0
H3034 H 0.42322 0.13803 0.52775 0.0
H3035 H 0.45019 0.10469 0.52671 0.0
H3036 H 0.76531 0.30768 0.47178 0.0
H3037 H 0.79506 0.33909 0.47175 0.0
H3038 H 0.80352 0.33108 0.54681 0.0
H3039 H 0.77352 0.30002 0.54685 0.0
H3040 H 0.80927 0.37732 0.53285 0.0
H3041 H 0.86344 0.31758 0.47767 0.0
H3042 H 0.83565 0.3253 0.46466 0.0
H3043 H 0.83632 0.30825 0.49138 0.0
C3044 C 0.7726 0.31355 0.48842 0.0
C3045 C 0.76677 0.30172 0.50938 0.0
C3046 C 0.79001 0.33112 0.48834 0.0
C3047 C 0.80211 0.33698 0.50918 0.0
C3048 C 0.79463 0.32679 0.53047 0.0
H3049 H 0.94512 0.39763 0.51755 0.0
H3050 H 0.91097 0.37083 0.51934 0.0
C3051 C 0.7772 0.30928 0.53055 0.0
C3052 C 0.82373 0.35203 0.50861 0.0
H3053 H 0.87928 0.35551 0.48523 0.0
C3054 C 0.82455 0.37255 0.52241 0.0
C3055 C 0.84402 0.34552 0.49554 0.0
C3056 C 0.84501 0.32285 0.48165 0.0
C3057 C 0.84473 0.38701 0.52297 0.0
C3058 C 0.86461 0.38107 0.50904 0.0
C3059 C 0.86403 0.36022 0.49574 0.0
C3060 C 0.88569 0.39679 0.50735 0.0
C3061 C 0.84466 0.40839 0.53879 0.0
C3062 C 0.88306 0.42 0.49933 0.0
C3063 C 0.90237 0.43522 0.49831 0.0
C3064 C 0.92507 0.42767 0.5051 0.0
C3065 C 0.92795 0.40409 0.51227 0.0
C3066 C 0.90842 0.38878 0.51336 0.0
H3067 H 0.83171 0.40648 0.55335 0.0
H3068 H 0.86235 0.41156 0.54653 0.0
H3069 H 0.83961 0.42412 0.52833 0.0
H3070 H 0.86594 0.42645 0.49386 0.0
H3071 H 0.89936 0.45306 0.49222 0.0
H3072 H 0.22332 0.71787 0.47222 0.0
H3073 H 0.19335 0.68702 0.46744 0.0
H3074 H 0.20745 0.66249 0.53796 0.0
H3075 H 0.23705 0.69361 0.54285 0.0
H3076 H 0.18924 0.63778 0.47188 0.0
H3077 H 0.13868 0.68439 0.54126 0.0
H3078 H 0.16459 0.69687 0.52768 0.0
H3079 H 0.16746 0.67515 0.5506 0.0
C3080 C 0.2208 0.70515 0.48624 0.0
C3081 C 0.23276 0.70784 0.50775 0.0
C3082 C 0.20345 0.68773 0.48363 0.0
C3083 C 0.19769 0.67283 0.50257 0.0
C3084 C 0.21123 0.67409 0.52328 0.0
H3085 H 0.10578 0.55226 0.50759 0.0
H3086 H 0.13812 0.58014 0.50593 0.0
C3087 C 0.22847 0.69156 0.52591 0.0
C3088 C 0.1763 0.65758 0.5015 0.0
H3089 H 0.12323 0.64768 0.52836 0.0
C3090 C 0.17479 0.63998 0.48419 0.0
C3091 C 0.15709 0.66084 0.51713 0.0
C3092 C 0.15684 0.68048 0.53507 0.0
C3093 C 0.15503 0.62502 0.48267 0.0
C3094 C 0.13639 0.62748 0.49913 0.0
C3095 C 0.13755 0.64562 0.51589 0.0
C3096 C 0.11615 0.6107 0.49999 0.0
C3097 C 0.15425 0.60683 0.4633 0.0
C3098 C 0.0927 0.61859 0.49807 0.0
C3099 C 0.07382 0.60254 0.4992 0.0
C3100 C 0.07806 0.5783 0.50242 0.0
C3101 C 0.10161 0.57067 0.50478 0.0
C3102 C 0.12031 0.58663 0.50368 0.0
H3103 H 0.16558 0.61199 0.44819 0.0
H3104 H 0.1609 0.58979 0.47021 0.0
H3105 H 0.13598 0.60414 0.45681 0.0
H3106 H 0.08902 0.63714 0.49548 0.0
H3107 H 0.056 0.60911 0.49738 0.0
loop_
_geom_bond_atom_site_label_1
_geom_bond_atom_site_label_2
_geom_bond_distance
_geom_bond_site_symmetry_2
_ccdc_geom_bond_type
H0 C3 0.931 . S
H1 C6 0.933 . S
H2 C8 0.930 . S
C3 H0 0.931 . S
C3 C4 1.413 1_655 S
C3 C5 1.360 . S
C4 C3 1.413 1_455 S
C4 C8 1.429 . S
C5 C3 1.360 . S
C5 C6 1.371 . S
C6 H1 0.933 . S
C6 C5 1.371 . S
C6 C7 1.403 . S
C7 C6 1.403 . S
C7 C8 1.390 1_655 S
C8 H2 0.930 . S
C8 C4 1.429 . S
C8 C7 1.390 1_455 S
H9 C12 0.931 . S
H10 C15 0.928 . S
H11 C17 0.930 1_565 S
C12 H9 0.931 . S
C12 C13 1.413 . S
C12 C14 1.360 . S
C13 C12 1.413 . S
C13 C17 1.429 . S
C14 C12 1.360 . S
C14 C15 1.373 . S
C15 H10 0.928 . S
C15 C14 1.373 . S
C15 C16 1.405 . S
C16 C15 1.405 . S
C16 C17 1.390 . S
C17 H11 0.930 1_545 S
C17 C13 1.429 . S
C17 C16 1.390 . S
H18 C21 0.931 . S
H19 C24 0.928 . S
H20 C26 0.930 1_655 S
C21 H18 0.931 . S
C21 C22 1.413 . S
C21 C23 1.360 . S
C22 C21 1.413 . S
C22 C26 1.429 . S
C23 C21 1.360 . S
C23 C24 1.373 . S
C24 H19 0.928 . S
C24 C23 1.373 . S
C24 C25 1.405 . S
C25 C24 1.405 . S
C25 C26 1.390 . S
C26 H20 0.930 1_455 S
C26 C22 1.429 . S
C26 C25 1.390 . S
H27 C30 0.931 . S
H28 C33 0.928 . S
H29 C35 0.930 1_565 S
C30 H27 0.931 . S
C30 C31 1.413 . S
C30 C32 1.360 . S
C31 C30 1.413 . S
C31 C35 1.429 . S
C32 C30 1.360 . S
C32 C33 1.373 . S
C33 H28 0.928 . S
C33 C32 1.373 . S
C33 C34 1.405 . S
C34 C33 1.405 . S
C34 C35 1.390 . S
C35 H29 0.930 1_545 S
C35 C31 1.429 . S
C35 C34 1.390 . S
H36 C39 0.931 . S
H37 C42 0.933 . S
H38 C44 0.930 . S
C39 H36 0.931 . S
C39 C40 1.413 1_655 S
C39 C41 1.360 . S
C40 C39 1.413 1_455 S
C40 C44 1.429 . S
C41 C39 1.360 . S
C41 C42 1.371 . S
C42 H37 0.933 . S
C42 C41 1.371 . S
C42 C43 1.403 . S
C43 C42 1.403 . S
C43 C44 1.390 1_655 S
C44 H38 0.930 . S
C44 C40 1.429 . S
C44 C43 1.390 1_455 S
H45 C48 0.931 . S
H46 C51 0.933 . S
H47 C53 0.930 . S
C48 H45 0.931 . S
C48 C49 1.413 1_565 S
C48 C50 1.360 . S
C49 C48 1.413 1_545 S
C49 C53 1.429 . S
C50 C48 1.360 . S
C50 C51 1.371 . S
C51 H46 0.933 . S
C51 C50 1.371 . S
C51 C52 1.403 1_565 S
C52 C51 1.403 1_545 S
C52 C53 1.390 . S
C53 H47 0.930 . S
C53 C49 1.429 . S
C53 C52 1.390 . S
H54 C57 0.931 . S
H55 C60 0.933 . S
H56 C62 0.930 . S
C57 H54 0.931 . S
C57 C58 1.413 1_655 S
C57 C59 1.360 . S
C58 C57 1.413 1_455 S
C58 C62 1.429 . S
C59 C57 1.360 . S
C59 C60 1.371 . S
C60 H55 0.933 . S
C60 C59 1.371 . S
C60 C61 1.403 . S
C61 C60 1.403 . S
C61 C62 1.390 1_655 S
C62 H56 0.930 . S
C62 C58 1.429 . S
C62 C61 1.390 1_455 S
H63 C66 0.931 . S
H64 C69 0.933 . S
H65 C71 0.930 . S
C66 H63 0.931 . S
C66 C67 1.413 1_565 S
C66 C68 1.360 . S
C67 C66 1.413 1_545 S
C67 C71 1.429 . S
C68 C66 1.360 . S
C68 C69 1.371 . S
C69 H64 0.933 . S
C69 C68 1.371 . S
C69 C70 1.403 1_565 S
C70 C69 1.403 1_545 S
C70 C71 1.390 . S
C71 H65 0.930 . S
C71 C67 1.429 . S
C71 C70 1.390 . S
H72 C75 0.931 . S
H73 C78 0.928 . S
H74 C80 0.930 . S
C75 H72 0.931 . S
C75 C76 1.413 . S
C75 C77 1.360 . S
C76 C75 1.413 . S
C76 C80 1.429 1_556 S
C77 C75 1.360 . S
C77 C78 1.372 . S
C78 H73 0.928 . S
C78 C77 1.372 . S
C78 C79 1.404 . S
C79 C78 1.404 . S
C79 C80 1.390 1_556 S
C80 H74 0.930 . S
C80 C76 1.429 1_554 S
C80 C79 1.390 1_554 S
H81 C84 0.931 . S
H82 C87 0.928 . S
H83 C89 0.930 . S
C84 H81 0.931 . S
C84 C85 1.413 . S
C84 C86 1.360 . S
C85 C84 1.413 . S
C85 C89 1.429 1_556 S
C86 C84 1.360 . S
C86 C87 1.372 . S
C87 H82 0.928 . S
C87 C86 1.372 . S
C87 C88 1.404 . S
C88 C87 1.404 . S
C88 C89 1.390 1_556 S
C89 H83 0.930 . S
C89 C85 1.429 1_554 S
C89 C88 1.390 1_554 S
H90 C93 0.931 . S
H91 C96 0.928 . S
H92 C98 0.930 . S
C93 H90 0.931 . S
C93 C94 1.413 . S
C93 C95 1.360 . S
C94 C93 1.413 . S
C94 C98 1.429 1_556 S
C95 C93 1.360 . S
C95 C96 1.372 . S
C96 H91 0.928 . S
C96 C95 1.372 . S
C96 C97 1.404 . S
C97 C96 1.404 . S
C97 C98 1.390 1_556 S
C98 H92 0.930 . S
C98 C94 1.429 1_554 S
C98 C97 1.390 1_554 S
H99 C102 0.931 . S
H100 C105 0.928 . S
H101 C107 0.930 1_556 S
C102 H99 0.931 . S
C102 C103 1.413 . S
C102 C104 1.360 . S
C103 C102 1.413 . S
C103 C107 1.429 . S
C104 C102 1.360 . S
C104 C105 1.373 . S
C105 H100 0.928 . S
C105 C104 1.373 . S
C105 C106 1.404 . S
C106 C105 1.404 . S
C106 C107 1.390 . S
C107 H101 0.930 1_554 S
C107 C103 1.429 . S
C107 C106 1.390 . S
H108 C111 0.931 . S
H109 C114 0.928 . S
H110 C116 0.930 . S
C111 H108 0.931 . S
C111 C112 1.413 . S
C111 C113 1.360 . S
C112 C111 1.413 . S
C112 C116 1.429 . S
C113 C111 1.360 . S
C113 C114 1.372 . S
C114 H109 0.928 . S
C114 C113 1.372 . S
C114 C115 1.404 . S
C115 C114 1.404 . S
C115 C116 1.391 . S
C116 H110 0.930 . S
C116 C112 1.429 . S
C116 C115 1.391 . S
H117 C120 0.931 . S
H118 C123 0.928 . S
H119 C125 0.930 . S
C120 H117 0.931 . S
C120 C121 1.413 . S
C120 C122 1.360 . S
C121 C120 1.413 . S
C121 C125 1.429 . S
C122 C120 1.360 . S
C122 C123 1.372 . S
C123 H118 0.928 . S
C123 C122 1.372 . S
C123 C124 1.404 . S
C124 C123 1.404 . S
C124 C125 1.391 . S
C125 H119 0.930 . S
C125 C121 1.429 . S
C125 C124 1.391 . S
H126 C129 0.931 . S
H127 C132 0.928 . S
H128 C134 0.930 . S
C129 H126 0.931 . S
C129 C130 1.413 . S
C129 C131 1.360 . S
C130 C129 1.413 . S
C130 C134 1.429 . S
C131 C129 1.360 . S
C131 C132 1.372 . S
C132 H127 0.928 . S
C132 C131 1.372 . S
C132 C133 1.404 . S
C133 C132 1.404 . S
C133 C134 1.391 . S
C134 H128 0.930 . S
C134 C130 1.429 . S
C134 C133 1.391 . S
H135 C138 0.931 . S
H136 C141 0.928 . S
H137 C143 0.930 . S
C138 H135 0.931 . S
C138 C139 1.413 . S
C138 C140 1.360 . S
C139 C138 1.413 . S
C139 C143 1.429 . S
C140 C138 1.360 . S
C140 C141 1.372 . S
C141 H136 0.928 . S
C141 C140 1.372 . S
C141 C142 1.404 . S
C142 C141 1.404 . S
C142 C143 1.391 . S
C143 H137 0.930 . S
C143 C139 1.429 . S
C143 C142 1.391 . S
H144 C147 0.931 . S
H145 C150 0.928 . S
H146 C152 0.930 . S
C147 H144 0.931 . S
C147 C148 1.413 . S
C147 C149 1.360 . S
C148 C147 1.413 . S
C148 C152 1.429 . S
C149 C147 1.360 . S
C149 C150 1.372 . S
C150 H145 0.928 . S
C150 C149 1.372 . S
C150 C151 1.404 . S
C151 C150 1.404 . S
C151 C152 1.391 . S
C152 H146 0.930 . S
C152 C148 1.429 . S
C152 C151 1.391 . S
H153 C156 0.931 . S
H154 C159 0.928 . S
H155 C161 0.930 . S
C156 H153 0.931 . S
C156 C157 1.413 . S
C156 C158 1.360 . S
C157 C156 1.413 . S
C157 C161 1.429 . S
C158 C156 1.360 . S
C158 C159 1.372 . S
C159 H154 0.928 . S
C159 C158 1.372 . S
C159 C160 1.404 . S
C160 C159 1.404 . S
C160 C161 1.391 . S
C161 H155 0.930 . S
C161 C157 1.429 . S
C161 C160 1.391 . S
H162 C165 0.931 . S
H163 C168 0.928 . S
H164 C170 0.930 . S
C165 H162 0.931 . S
C165 C166 1.413 . S
C165 C167 1.360 . S
C166 C165 1.413 . S
C166 C170 1.429 . S
C167 C165 1.360 . S
C167 C168 1.372 . S
C168 H163 0.928 . S
C168 C167 1.372 . S
C168 C169 1.404 . S
C169 C168 1.404 . S
C169 C170 1.391 . S
C170 H164 0.930 . S
C170 C166 1.429 . S
C170 C169 1.391 . S
H171 C174 0.931 . S
H172 C177 0.928 . S
H173 C179 0.930 . S
C174 H171 0.931 . S
C174 C175 1.413 . S
C174 C176 1.360 . S
C175 C174 1.413 . S
C175 C179 1.429 . S
C176 C174 1.360 . S
C176 C177 1.372 . S
C177 H172 0.928 . S
C177 C176 1.372 . S
C177 C178 1.404 . S
C178 C177 1.404 . S
C178 C179 1.391 . S
C179 H173 0.930 . S
C179 C175 1.429 . S
C179 C178 1.391 . S
H180 C183 0.931 . S
H181 C186 0.928 . S
H182 C188 0.930 . S
C183 H180 0.931 . S
C183 C184 1.413 . S
C183 C185 1.360 . S
C184 C183 1.413 . S
C184 C188 1.429 . S
C185 C183 1.360 . S
C185 C186 1.372 . S
C186 H181 0.928 . S
C186 C185 1.372 . S
C186 C187 1.404 . S
C187 C186 1.404 . S
C187 C188 1.391 . S
C188 H182 0.930 . S
C188 C184 1.429 . S
C188 C187 1.391 . S
H189 C192 0.931 . S
H190 C195 0.928 . S
H191 C197 0.930 . S
C192 H189 0.931 . S
C192 C193 1.413 . S
C192 C194 1.360 . S
C193 C192 1.413 . S
C193 C197 1.429 . S
C194 C192 1.360 . S
C194 C195 1.372 . S
C195 H190 0.928 . S
C195 C194 1.372 . S
C195 C196 1.404 . S
C196 C195 1.404 . S
C196 C197 1.391 . S
C197 H191 0.930 . S
C197 C193 1.429 . S
C197 C196 1.391 . S
H198 C201 0.931 . S
H199 C204 0.928 . S
H200 C206 0.930 . S
C201 H198 0.931 . S
C201 C202 1.413 . S
C201 C203 1.360 . S
C202 C201 1.413 . S
C202 C206 1.429 . S
C203 C201 1.360 . S
C203 C204 1.372 . S
C204 H199 0.928 . S
C204 C203 1.372 . S
C204 C205 1.404 . S
C205 C204 1.404 . S
C205 C206 1.391 . S
C206 H200 0.930 . S
C206 C202 1.429 . S
C206 C205 1.391 . S
H207 C210 0.931 . S
H208 C213 0.928 . S
H209 C215 0.930 . S
C210 H207 0.931 . S
C210 C211 1.413 . S
C210 C212 1.360 . S
C211 C210 1.413 . S
C211 C215 1.429 . S
C212 C210 1.360 . S
C212 C213 1.372 . S
C213 H208 0.928 . S
C213 C212 1.372 . S
C213 C214 1.404 . S
C214 C213 1.404 . S
C214 C215 1.391 . S
C215 H209 0.930 . S
C215 C211 1.429 . S
C215 C214 1.391 . S
C216 O242 1.283 . S
C216 O260 1.283 . S
C217 O243 1.283 . S
C217 O258 1.283 . S
C218 O244 1.283 . S
C218 O261 1.283 . S
C219 O245 1.283 . S
C219 O259 1.283 . S
C220 O246 1.283 . S
C220 O255 1.283 . S
C221 O247 1.283 . S
C221 O257 1.283 . S
C222 O248 1.283 . S
C222 O254 1.283 . S
C223 O249 1.283 . S
C223 O256 1.283 . S
C224 O250 1.283 . S
C224 O265 1.283 . S
C225 O251 1.283 . S
C225 O263 1.283 . S
C226 O252 1.283 . S
C226 O264 1.283 . S
C227 O253 1.283 . S
C227 O262 1.283 . S
Eu228 O229 2.362 1_455 S
Eu228 O230 2.378 . S
Eu228 O233 2.362 1_455 S
Eu228 O234 2.378 . S
Eu228 O242 2.363 . S
Eu228 O243 2.363 . S
Eu228 O256 2.377 . S
Eu228 O257 2.349 1_455 S
O229 Eu228 2.362 1_655 S
O229 Eu231 2.363 1_565 S
O229 Eu236 2.355 1_665 S
O230 Eu228 2.378 . S
O230 Eu232 2.363 1_565 S
O230 Eu235 2.371 1_565 S
Eu231 O229 2.363 1_545 S
Eu231 O233 2.363 1_545 S
Eu231 O237 2.377 . S
Eu231 O238 2.377 . S
Eu231 O246 2.375 . S
Eu231 O247 2.351 1_545 S
Eu231 O262 2.363 . S
Eu231 O263 2.363 . S
Eu232 O230 2.363 1_545 S
Eu232 O234 2.363 1_545 S
Eu232 O239 2.377 . S
Eu232 O240 2.377 . S
Eu232 O248 2.375 . S
Eu232 O249 2.351 1_545 S
Eu232 O264 2.363 . S
Eu232 O265 2.363 . S
O233 Eu228 2.362 1_655 S
O233 Eu231 2.363 1_565 S
O233 Eu235 2.355 1_665 S
O234 Eu228 2.378 . S
O234 Eu232 2.363 1_565 S
O234 Eu236 2.371 1_565 S
Eu235 O230 2.371 1_545 S
Eu235 O233 2.355 1_445 S
Eu235 O237 2.369 1_455 S
Eu235 O240 2.385 . S
Eu235 O252 2.377 . S
Eu235 O253 2.349 1_455 S
Eu235 O260 2.351 1_545 S
Eu235 O261 2.375 . S
Eu236 O229 2.355 1_445 S
Eu236 O234 2.371 1_545 S
Eu236 O238 2.369 1_455 S
Eu236 O239 2.385 . S
Eu236 O250 2.377 . S
Eu236 O251 2.349 1_455 S
Eu236 O258 2.351 1_545 S
Eu236 O259 2.375 . S
O237 Eu231 2.377 . S
O237 Eu235 2.369 1_655 S
O237 Eu241 2.362 1_655 S
O238 Eu231 2.377 . S
O238 Eu236 2.369 1_655 S
O238 Eu241 2.362 1_655 S
O239 Eu232 2.377 . S
O239 Eu236 2.385 . S
O239 Eu241 2.378 . S
O240 Eu232 2.377 . S
O240 Eu235 2.385 . S
O240 Eu241 2.378 . S
Eu241 O237 2.362 1_455 S
Eu241 O238 2.362 1_455 S
Eu241 O239 2.378 . S
Eu241 O240 2.378 . S
Eu241 O244 2.363 . S
Eu241 O245 2.363 . S
Eu241 O254 2.377 . S
Eu241 O255 2.349 1_455 S
O242 C216 1.283 . S
O242 Eu228 2.363 . S
O243 C217 1.283 . S
O243 Eu228 2.363 . S
O244 C218 1.283 . S
O244 Eu241 2.363 . S
O245 C219 1.283 . S
O245 Eu241 2.363 . S
O246 C220 1.283 . S
O246 Eu231 2.375 . S
O247 C221 1.283 . S
O247 Eu231 2.351 1_565 S
O248 C222 1.283 . S
O248 Eu232 2.375 . S
O249 C223 1.283 . S
O249 Eu232 2.351 1_565 S
O250 C224 1.283 . S
O250 Eu236 2.377 . S
O251 C225 1.283 . S
O251 Eu236 2.349 1_655 S
O252 C226 1.283 . S
O252 Eu235 2.377 . S
O253 C227 1.283 . S
O253 Eu235 2.349 1_655 S
O254 C222 1.283 . S
O254 Eu241 2.377 . S
O255 C220 1.283 . S
O255 Eu241 2.349 1_655 S
O256 C223 1.283 . S
O256 Eu228 2.377 . S
O257 C221 1.283 . S
O257 Eu228 2.349 1_655 S
O258 C217 1.283 . S
O258 Eu236 2.351 1_565 S
O259 C219 1.283 . S
O259 Eu236 2.375 . S
O260 C216 1.283 . S
O260 Eu235 2.351 1_565 S
O261 C218 1.283 . S
O261 Eu235 2.375 . S
O262 C227 1.283 . S
O262 Eu231 2.363 . S
O263 C225 1.283 . S
O263 Eu231 2.363 . S
O264 C226 1.283 . S
O264 Eu232 2.363 . S
O265 C224 1.283 . S
O265 Eu232 2.363 . S
C266 O292 1.283 . S
C266 O310 1.283 . S
C267 O293 1.283 . S
C267 O308 1.283 . S
C268 O294 1.283 . S
C268 O311 1.283 . S
C269 O295 1.283 . S
C269 O309 1.283 . S
C270 O296 1.283 . S
C270 O305 1.283 . S
C271 O297 1.283 . S
C271 O307 1.283 . S
C272 O298 1.283 . S
C272 O304 1.283 . S
C273 O299 1.283 . S
C273 O306 1.283 . S
C274 O300 1.283 . S
C274 O315 1.283 . S
C275 O301 1.283 . S
C275 O313 1.283 . S
C276 O302 1.283 . S
C276 O314 1.283 . S
C277 O303 1.283 . S
C277 O312 1.283 . S
Eu278 O279 2.373 . S
Eu278 O280 2.367 1_545 S
Eu278 O283 2.367 1_545 S
Eu278 O284 2.373 . S
Eu278 O292 2.357 1_545 S
Eu278 O293 2.368 . S
Eu278 O306 2.363 . S
Eu278 O307 2.363 . S
O279 Eu278 2.373 . S
O279 Eu281 2.376 . S
O279 Eu286 2.373 . S
O280 Eu278 2.367 1_565 S
O280 Eu282 2.369 1_565 S
O280 Eu285 2.373 . S
Eu281 O279 2.376 . S
Eu281 O283 2.370 1_545 S
Eu281 O287 2.364 1_544 S
Eu281 O288 2.371 1_554 S
Eu281 O296 2.358 1_554 S
Eu281 O297 2.368 . S
Eu281 O312 2.357 1_545 S
Eu281 O313 2.369 . S
Eu282 O280 2.369 1_545 S
Eu282 O284 2.376 . S
Eu282 O289 2.371 1_554 S
Eu282 O290 2.364 1_544 S
Eu282 O298 2.358 1_554 S
Eu282 O299 2.368 . S
Eu282 O314 2.357 1_545 S
Eu282 O315 2.369 . S
O283 Eu278 2.367 1_565 S
O283 Eu281 2.370 1_565 S
O283 Eu285 2.373 . S
O284 Eu278 2.373 . S
O284 Eu282 2.376 . S
O284 Eu286 2.373 . S
Eu285 O280 2.373 . S
Eu285 O283 2.373 . S
Eu285 O287 2.367 1_554 S
Eu285 O290 2.367 1_554 S
Eu285 O302 2.363 . S
Eu285 O303 2.363 . S
Eu285 O310 2.367 . S
Eu285 O311 2.358 1_554 S
Eu286 O279 2.373 . S
Eu286 O284 2.373 . S
Eu286 O288 2.367 1_554 S
Eu286 O289 2.367 1_554 S
Eu286 O300 2.363 . S
Eu286 O301 2.363 . S
Eu286 O308 2.368 . S
Eu286 O309 2.358 1_554 S
O287 Eu281 2.364 1_566 S
O287 Eu285 2.367 1_556 S
O287 Eu291 2.367 1_565 S
O288 Eu281 2.371 1_556 S
O288 Eu286 2.367 1_556 S
O288 Eu291 2.374 . S
O289 Eu282 2.371 1_556 S
O289 Eu286 2.367 1_556 S
O289 Eu291 2.374 . S
O290 Eu282 2.364 1_566 S
O290 Eu285 2.367 1_556 S
O290 Eu291 2.367 1_565 S
Eu291 O287 2.367 1_545 S
Eu291 O288 2.374 . S
Eu291 O289 2.374 . S
Eu291 O290 2.367 1_545 S
Eu291 O294 2.357 1_545 S
Eu291 O295 2.369 . S
Eu291 O304 2.363 . S
Eu291 O305 2.363 . S
O292 C266 1.283 . S
O292 Eu278 2.357 1_565 S
O293 C267 1.283 . S
O293 Eu278 2.368 . S
O294 C268 1.283 . S
O294 Eu291 2.357 1_565 S
O295 C269 1.283 . S
O295 Eu291 2.369 . S
O296 C270 1.283 . S
O296 Eu281 2.358 1_556 S
O297 C271 1.283 . S
O297 Eu281 2.368 . S
O298 C272 1.283 . S
O298 Eu282 2.358 1_556 S
O299 C273 1.283 . S
O299 Eu282 2.368 . S
O300 C274 1.283 . S
O300 Eu286 2.363 . S
O301 C275 1.283 . S
O301 Eu286 2.363 . S
O302 C276 1.283 . S
O302 Eu285 2.363 . S
O303 C277 1.283 . S
O303 Eu285 2.363 . S
O304 C272 1.283 . S
O304 Eu291 2.363 . S
O305 C270 1.283 . S
O305 Eu291 2.363 . S
O306 C273 1.283 . S
O306 Eu278 2.363 . S
O307 C271 1.283 . S
O307 Eu278 2.363 . S
O308 C267 1.283 . S
O308 Eu286 2.368 . S
O309 C269 1.283 . S
O309 Eu286 2.358 1_556 S
O310 C266 1.283 . S
O310 Eu285 2.367 . S
O311 C268 1.283 . S
O311 Eu285 2.358 1_556 S
O312 C277 1.283 . S
O312 Eu281 2.357 1_565 S
O313 C275 1.283 . S
O313 Eu281 2.369 . S
O314 C276 1.283 . S
O314 Eu282 2.357 1_565 S
O315 C274 1.283 . S
O315 Eu282 2.369 . S
C316 O342 1.283 . S
C316 O360 1.283 . S
C317 O343 1.283 . S
C317 O358 1.283 . S
C318 O344 1.283 . S
C318 O361 1.283 . S
C319 O345 1.283 . S
C319 O359 1.283 . S
C320 O346 1.283 . S
C320 O355 1.283 . S
C321 O347 1.283 . S
C321 O357 1.283 . S
C322 O348 1.283 . S
C322 O354 1.283 . S
C323 O349 1.283 . S
C323 O356 1.283 . S
C324 O350 1.283 . S
C324 O365 1.283 . S
C325 O351 1.283 . S
C325 O363 1.283 . S
C326 O352 1.283 . S
C326 O364 1.283 . S
C327 O353 1.283 . S
C327 O362 1.283 . S
Eu328 O329 2.370 1_454 S
Eu328 O330 2.371 . S
Eu328 O333 2.370 1_455 S
Eu328 O334 2.371 1_554 S
Eu328 O342 2.363 . S
Eu328 O343 2.363 1_554 S
Eu328 O356 2.364 . S
Eu328 O357 2.362 1_455 S
O329 Eu328 2.370 1_656 S
O329 Eu331 2.370 1_556 S
O329 Eu336 2.370 1_655 S
O330 Eu328 2.371 . S
O330 Eu332 2.370 . S
O330 Eu335 2.371 . S
Eu331 O329 2.370 1_554 S
Eu331 O333 2.370 . S
Eu331 O337 2.370 . S
Eu331 O338 2.370 1_554 S
Eu331 O346 2.363 . S
Eu331 O347 2.363 . S
Eu331 O362 2.363 . S
Eu331 O363 2.363 1_554 S
Eu332 O330 2.370 . S
Eu332 O334 2.370 1_554 S
Eu332 O339 2.370 1_554 S
Eu332 O340 2.370 . S
Eu332 O348 2.363 . S
Eu332 O349 2.363 . S
Eu332 O364 2.363 . S
Eu332 O365 2.363 1_554 S
O333 Eu328 2.370 1_655 S
O333 Eu331 2.370 . S
O333 Eu335 2.370 1_655 S
O334 Eu328 2.371 1_556 S
O334 Eu332 2.370 1_556 S
O334 Eu336 2.371 . S
Eu335 O330 2.371 . S
Eu335 O333 2.370 1_455 S
Eu335 O337 2.370 1_455 S
Eu335 O340 2.371 . S
Eu335 O352 2.364 . S
Eu335 O353 2.362 1_455 S
Eu335 O360 2.363 . S
Eu335 O361 2.363 . S
Eu336 O329 2.370 1_455 S
Eu336 O334 2.371 . S
Eu336 O338 2.370 1_455 S
Eu336 O339 2.371 . S
Eu336 O350 2.364 . S
Eu336 O351 2.362 1_455 S
Eu336 O358 2.363 . S
Eu336 O359 2.363 . S
O337 Eu331 2.370 . S
O337 Eu335 2.370 1_655 S
O337 Eu341 2.370 1_655 S
O338 Eu331 2.370 1_556 S
O338 Eu336 2.370 1_655 S
O338 Eu341 2.370 1_656 S
O339 Eu332 2.370 1_556 S
O339 Eu336 2.371 . S
O339 Eu341 2.371 1_556 S
O340 Eu332 2.370 . S
O340 Eu335 2.371 . S
O340 Eu341 2.371 . S
Eu341 O337 2.370 1_455 S
Eu341 O338 2.370 1_454 S
Eu341 O339 2.371 1_554 S
Eu341 O340 2.371 . S
Eu341 O344 2.363 . S
Eu341 O345 2.363 1_554 S
Eu341 O354 2.364 . S
Eu341 O355 2.362 1_455 S
O342 C316 1.283 . S
O342 Eu328 2.363 . S
O343 C317 1.283 . S
O343 Eu328 2.363 1_556 S
O344 C318 1.283 . S
O344 Eu341 2.363 . S
O345 C319 1.283 . S
O345 Eu341 2.363 1_556 S
O346 C320 1.283 . S
O346 Eu331 2.363 . S
O347 C321 1.283 . S
O347 Eu331 2.363 . S
O348 C322 1.283 . S
O348 Eu332 2.363 . S
O349 C323 1.283 . S
O349 Eu332 2.363 . S
O350 C324 1.283 . S
O350 Eu336 2.364 . S
O351 C325 1.283 . S
O351 Eu336 2.362 1_655 S
O352 C326 1.283 . S
O352 Eu335 2.364 . S
O353 C327 1.283 . S
O353 Eu335 2.362 1_655 S
O354 C322 1.283 . S
O354 Eu341 2.364 . S
O355 C320 1.283 . S
O355 Eu341 2.362 1_655 S
O356 C323 1.283 . S
O356 Eu328 2.364 . S
O357 C321 1.283 . S
O357 Eu328 2.362 1_655 S
O358 C317 1.283 . S
O358 Eu336 2.363 . S
O359 C319 1.283 . S
O359 Eu336 2.363 . S
O360 C316 1.283 . S
O360 Eu335 2.363 . S
O361 C318 1.283 . S
O361 Eu335 2.363 . S
O362 C327 1.283 . S
O362 Eu331 2.363 . S
O363 C325 1.283 . S
O363 Eu331 2.363 1_556 S
O364 C326 1.283 . S
O364 Eu332 2.363 . S
O365 C324 1.283 . S
O365 Eu332 2.363 1_556 S
C366 O392 1.283 . S
C366 O410 1.283 . S
C367 O393 1.283 . S
C367 O408 1.283 . S
C368 O394 1.283 . S
C368 O411 1.283 . S
C369 O395 1.283 . S
C369 O409 1.283 . S
C370 O396 1.283 . S
C370 O405 1.283 . S
C371 O397 1.283 . S
C371 O407 1.283 . S
C372 O398 1.283 . S
C372 O404 1.283 . S
C373 O399 1.283 . S
C373 O406 1.283 . S
C374 O400 1.283 . S
C374 O415 1.283 . S
C375 O401 1.283 . S
C375 O413 1.283 . S
C376 O402 1.283 . S
C376 O414 1.283 . S
C377 O403 1.283 . S
C377 O412 1.283 . S
Eu378 O379 2.370 . S
Eu378 O380 2.370 . S
Eu378 O383 2.370 . S
Eu378 O384 2.370 . S
Eu378 O392 2.363 . S
Eu378 O393 2.363 . S
Eu378 O406 2.363 . S
Eu378 O407 2.363 . S
O379 Eu378 2.370 . S
O379 Eu381 2.373 . S
O379 Eu386 2.373 . S
O380 Eu378 2.370 . S
O380 Eu382 2.373 . S
O380 Eu385 2.374 . S
Eu381 O379 2.373 . S
Eu381 O383 2.373 . S
Eu381 O387 2.367 1_554 S
Eu381 O388 2.367 1_554 S
Eu381 O396 2.357 1_554 S
Eu381 O397 2.369 . S
Eu381 O412 2.363 . S
Eu381 O413 2.363 . S
Eu382 O380 2.373 . S
Eu382 O384 2.373 . S
Eu382 O389 2.367 1_554 S
Eu382 O390 2.367 1_554 S
Eu382 O398 2.357 1_554 S
Eu382 O399 2.369 . S
Eu382 O414 2.363 . S
Eu382 O415 2.363 . S
O383 Eu378 2.370 . S
O383 Eu381 2.373 . S
O383 Eu385 2.374 . S
O384 Eu378 2.370 . S
O384 Eu382 2.373 . S
O384 Eu386 2.373 . S
Eu385 O380 2.374 . S
Eu385 O383 2.374 . S
Eu385 O387 2.367 1_554 S
Eu385 O390 2.367 1_554 S
Eu385 O402 2.363 . S
Eu385 O403 2.363 . S
Eu385 O410 2.369 . S
Eu385 O411 2.357 1_554 S
Eu386 O379 2.373 . S
Eu386 O384 2.373 . S
Eu386 O388 2.367 1_554 S
Eu386 O389 2.367 1_554 S
Eu386 O400 2.363 . S
Eu386 O401 2.363 . S
Eu386 O408 2.369 . S
Eu386 O409 2.357 1_554 S
O387 Eu381 2.367 1_556 S
O387 Eu385 2.367 1_556 S
O387 Eu391 2.370 . S
O388 Eu381 2.367 1_556 S
O388 Eu386 2.367 1_556 S
O388 Eu391 2.370 . S
O389 Eu382 2.367 1_556 S
O389 Eu386 2.367 1_556 S
O389 Eu391 2.370 . S
O390 Eu382 2.367 1_556 S
O390 Eu385 2.367 1_556 S
O390 Eu391 2.370 . S
Eu391 O387 2.370 . S
Eu391 O388 2.370 . S
Eu391 O389 2.370 . S
Eu391 O390 2.370 . S
Eu391 O394 2.363 . S
Eu391 O395 2.363 . S
Eu391 O404 2.363 . S
Eu391 O405 2.363 . S
O392 C366 1.283 . S
O392 Eu378 2.363 . S
O393 C367 1.283 . S
O393 Eu378 2.363 . S
O394 C368 1.283 . S
O394 Eu391 2.363 . S
O395 C369 1.283 . S
O395 Eu391 2.363 . S
O396 C370 1.283 . S
O396 Eu381 2.357 1_556 S
O397 C371 1.283 . S
O397 Eu381 2.369 . S
O398 C372 1.283 . S
O398 Eu382 2.357 1_556 S
O399 C373 1.283 . S
O399 Eu382 2.369 . S
O400 C374 1.283 . S
O400 Eu386 2.363 . S
O401 C375 1.283 . S
O401 Eu386 2.363 . S
O402 C376 1.283 . S
O402 Eu385 2.363 . S
O403 C377 1.283 . S
O403 Eu385 2.363 . S
O404 C372 1.283 . S
O404 Eu391 2.363 . S
O405 C370 1.283 . S
O405 Eu391 2.363 . S
O406 C373 1.283 . S
O406 Eu378 2.363 . S
O407 C371 1.283 . S
O407 Eu378 2.363 . S
O408 C367 1.283 . S
O408 Eu386 2.369 . S
O409 C369 1.283 . S
O409 Eu386 2.357 1_556 S
O410 C366 1.283 . S
O410 Eu385 2.369 . S
O411 C368 1.283 . S
O411 Eu385 2.357 1_556 S
O412 C377 1.283 . S
O412 Eu381 2.363 . S
O413 C375 1.283 . S
O413 Eu381 2.363 . S
O414 C376 1.283 . S
O414 Eu382 2.363 . S
O415 C374 1.283 . S
O415 Eu382 2.363 . S
C416 O442 1.283 . S
C416 O460 1.283 . S
C417 O443 1.283 . S
C417 O458 1.283 . S
C418 O444 1.283 . S
C418 O461 1.283 . S
C419 O445 1.283 . S
C419 O459 1.283 . S
C420 O446 1.283 . S
C420 O455 1.283 . S
C421 O447 1.283 . S
C421 O457 1.283 . S
C422 O448 1.283 . S
C422 O454 1.283 . S
C423 O449 1.283 . S
C423 O456 1.283 . S
C424 O450 1.283 . S
C424 O465 1.283 . S
C425 O451 1.283 . S
C425 O463 1.283 . S
C426 O452 1.283 . S
C426 O464 1.283 . S
C427 O453 1.283 . S
C427 O462 1.283 . S
Eu428 O429 2.366 1_455 S
Eu428 O430 2.374 . S
Eu428 O433 2.366 1_455 S
Eu428 O434 2.374 . S
Eu428 O442 2.363 . S
Eu428 O443 2.363 . S
Eu428 O456 2.369 . S
Eu428 O457 2.357 1_455 S
O429 Eu428 2.366 1_655 S
O429 Eu431 2.370 . S
O429 Eu436 2.366 1_655 S
O430 Eu428 2.374 . S
O430 Eu432 2.370 . S
O430 Eu435 2.374 . S
Eu431 O429 2.370 . S
Eu431 O433 2.370 . S
Eu431 O437 2.370 . S
Eu431 O438 2.370 . S
Eu431 O446 2.363 . S
Eu431 O447 2.363 . S
Eu431 O462 2.363 . S
Eu431 O463 2.363 . S
Eu432 O430 2.370 . S
Eu432 O434 2.370 . S
Eu432 O439 2.370 . S
Eu432 O440 2.370 . S
Eu432 O448 2.363 . S
Eu432 O449 2.363 . S
Eu432 O464 2.363 . S
Eu432 O465 2.363 . S
O433 Eu428 2.366 1_655 S
O433 Eu431 2.370 . S
O433 Eu435 2.366 1_655 S
O434 Eu428 2.374 . S
O434 Eu432 2.370 . S
O434 Eu436 2.374 . S
Eu435 O430 2.374 . S
Eu435 O433 2.366 1_455 S
Eu435 O437 2.366 1_455 S
Eu435 O440 2.374 . S
Eu435 O452 2.369 . S
Eu435 O453 2.357 1_455 S
Eu435 O460 2.363 . S
Eu435 O461 2.363 . S
Eu436 O429 2.366 1_455 S
Eu436 O434 2.374 . S
Eu436 O438 2.366 1_455 S
Eu436 O439 2.374 . S
Eu436 O450 2.369 . S
Eu436 O451 2.357 1_455 S
Eu436 O458 2.363 . S
Eu436 O459 2.363 . S
O437 Eu431 2.370 . S
O437 Eu435 2.366 1_655 S
O437 Eu441 2.366 1_655 S
O438 Eu431 2.370 . S
O438 Eu436 2.366 1_655 S
O438 Eu441 2.366 1_655 S
O439 Eu432 2.370 . S
O439 Eu436 2.374 . S
O439 Eu441 2.374 . S
O440 Eu432 2.370 . S
O440 Eu435 2.374 . S
O440 Eu441 2.374 . S
Eu441 O437 2.366 1_455 S
Eu441 O438 2.366 1_455 S
Eu441 O439 2.374 . S
Eu441 O440 2.374 . S
Eu441 O444 2.363 . S
Eu441 O445 2.363 . S
Eu441 O454 2.369 . S
Eu441 O455 2.356 1_455 S
O442 C416 1.283 . S
O442 Eu428 2.363 . S
O443 C417 1.283 . S
O443 Eu428 2.363 . S
O444 C418 1.283 . S
O444 Eu441 2.363 . S
O445 C419 1.283 . S
O445 Eu441 2.363 . S
O446 C420 1.283 . S
O446 Eu431 2.363 . S
O447 C421 1.283 . S
O447 Eu431 2.363 . S
O448 C422 1.283 . S
O448 Eu432 2.363 . S
O449 C423 1.283 . S
O449 Eu432 2.363 . S
O450 C424 1.283 . S
O450 Eu436 2.369 . S
O451 C425 1.283 . S
O451 Eu436 2.357 1_655 S
O452 C426 1.283 . S
O452 Eu435 2.369 . S
O453 C427 1.283 . S
O453 Eu435 2.357 1_655 S
O454 C422 1.283 . S
O454 Eu441 2.369 . S
O455 C420 1.283 . S
O455 Eu441 2.356 1_655 S
O456 C423 1.283 . S
O456 Eu428 2.369 . S
O457 C421 1.283 . S
O457 Eu428 2.357 1_655 S
O458 C417 1.283 . S
O458 Eu436 2.363 . S
O459 C419 1.283 . S
O459 Eu436 2.363 . S
O460 C416 1.283 . S
O460 Eu435 2.363 . S
O461 C418 1.283 . S
O461 Eu435 2.363 . S
O462 C427 1.283 . S
O462 Eu431 2.363 . S
O463 C425 1.283 . S
O463 Eu431 2.363 . S
O464 C426 1.283 . S
O464 Eu432 2.363 . S
O465 C424 1.283 . S
O465 Eu432 2.363 . S
C466 O492 1.283 . S
C466 O510 1.283 . S
C467 O493 1.283 . S
C467 O508 1.283 . S
C468 O494 1.283 . S
C468 O511 1.283 . S
C469 O495 1.283 . S
C469 O509 1.283 . S
C470 O496 1.283 . S
C470 O505 1.283 . S
C471 O497 1.283 . S
C471 O507 1.283 . S
C472 O498 1.283 . S
C472 O504 1.283 . S
C473 O499 1.283 . S
C473 O506 1.283 . S
C474 O500 1.283 . S
C474 O515 1.283 . S
C475 O501 1.283 . S
C475 O513 1.283 . S
C476 O502 1.283 . S
C476 O514 1.283 . S
C477 O503 1.283 . S
C477 O512 1.283 . S
Eu478 O479 2.370 . S
Eu478 O480 2.370 . S
Eu478 O483 2.370 . S
Eu478 O484 2.370 . S
Eu478 O492 2.363 . S
Eu478 O493 2.363 . S
Eu478 O506 2.363 . S
Eu478 O507 2.363 . S
O479 Eu478 2.370 . S
O479 Eu481 2.362 1_565 S
O479 Eu486 2.362 1_565 S
O480 Eu478 2.370 . S
O480 Eu482 2.362 1_565 S
O480 Eu485 2.362 1_565 S
Eu481 O479 2.362 1_545 S
Eu481 O483 2.362 1_545 S
Eu481 O487 2.378 . S
Eu481 O488 2.378 . S
Eu481 O496 2.376 . S
Eu481 O497 2.349 1_545 S
Eu481 O512 2.363 . S
Eu481 O513 2.363 . S
Eu482 O480 2.362 1_545 S
Eu482 O484 2.362 1_545 S
Eu482 O489 2.378 . S
Eu482 O490 2.378 . S
Eu482 O498 2.376 . S
Eu482 O499 2.349 1_545 S
Eu482 O514 2.363 . S
Eu482 O515 2.363 . S
O483 Eu478 2.370 . S
O483 Eu481 2.362 1_565 S
O483 Eu485 2.362 1_565 S
O484 Eu478 2.370 . S
O484 Eu482 2.362 1_565 S
O484 Eu486 2.362 1_565 S
Eu485 O480 2.362 1_545 S
Eu485 O483 2.362 1_545 S
Eu485 O487 2.378 . S
Eu485 O490 2.378 . S
Eu485 O502 2.363 . S
Eu485 O503 2.363 . S
Eu485 O510 2.349 1_545 S
Eu485 O511 2.377 . S
Eu486 O479 2.362 1_545 S
Eu486 O484 2.362 1_545 S
Eu486 O488 2.378 . S
Eu486 O489 2.378 . S
Eu486 O500 2.363 . S
Eu486 O501 2.363 . S
Eu486 O508 2.350 1_545 S
Eu486 O509 2.376 . S
O487 Eu481 2.378 . S
O487 Eu485 2.378 . S
O487 Eu491 2.370 . S
O488 Eu481 2.378 . S
O488 Eu486 2.378 . S
O488 Eu491 2.370 . S
O489 Eu482 2.378 . S
O489 Eu486 2.378 . S
O489 Eu491 2.370 . S
O490 Eu482 2.378 . S
O490 Eu485 2.378 . S
O490 Eu491 2.370 . S
Eu491 O487 2.370 . S
Eu491 O488 2.370 . S
Eu491 O489 2.370 . S
Eu491 O490 2.370 . S
Eu491 O494 2.363 . S
Eu491 O495 2.363 . S
Eu491 O504 2.363 . S
Eu491 O505 2.363 . S
O492 C466 1.283 . S
O492 Eu478 2.363 . S
O493 C467 1.283 . S
O493 Eu478 2.363 . S
O494 C468 1.283 . S
O494 Eu491 2.363 . S
O495 C469 1.283 . S
O495 Eu491 2.363 . S
O496 C470 1.283 . S
O496 Eu481 2.376 . S
O497 C471 1.283 . S
O497 Eu481 2.349 1_565 S
O498 C472 1.283 . S
O498 Eu482 2.376 . S
O499 C473 1.283 . S
O499 Eu482 2.349 1_565 S
O500 C474 1.283 . S
O500 Eu486 2.363 . S
O501 C475 1.283 . S
O501 Eu486 2.363 . S
O502 C476 1.283 . S
O502 Eu485 2.363 . S
O503 C477 1.283 . S
O503 Eu485 2.363 . S
O504 C472 1.283 . S
O504 Eu491 2.363 . S
O505 C470 1.283 . S
O505 Eu491 2.363 . S
O506 C473 1.283 . S
O506 Eu478 2.363 . S
O507 C471 1.283 . S
O507 Eu478 2.363 . S
O508 C467 1.283 . S
O508 Eu486 2.350 1_565 S
O509 C469 1.283 . S
O509 Eu486 2.376 . S
O510 C466 1.283 . S
O510 Eu485 2.349 1_565 S
O511 C468 1.283 . S
O511 Eu485 2.377 . S
O512 C477 1.283 . S
O512 Eu481 2.363 . S
O513 C475 1.283 . S
O513 Eu481 2.363 . S
O514 C476 1.283 . S
O514 Eu482 2.363 . S
O515 C474 1.283 . S
O515 Eu482 2.363 . S
H516 C524 0.929 . S
H517 C526 0.930 . S
H518 C528 0.930 . S
H519 C531 0.929 . S
H520 C534 0.930 . S
H521 C536 0.960 . S
H522 C536 0.960 . S
H523 C536 0.960 . S
C524 H516 0.929 . S
C524 C525 1.377 . S
C524 C526 1.384 . S
C525 C524 1.377 . S
C525 C531 1.390 . S
C526 H517 0.930 . S
C526 C524 1.384 . S
C526 C527 1.372 . S
C527 C526 1.372 . S
C527 C528 1.400 . S
C527 C532 1.490 . S
C528 H518 0.930 . S
C528 C527 1.400 . S
C528 C531 1.386 . S
H529 C545 0.930 . S
H530 C546 0.931 . S
C531 H519 0.929 . S
C531 C525 1.390 . S
C531 C528 1.386 . S
C532 C527 1.490 . S
C532 C534 1.395 . S
C532 C535 1.403 . S
H533 C539 0.930 . S
C534 H520 0.930 . S
C534 C532 1.395 . S
C534 C537 1.403 . S
C535 C532 1.403 . S
C535 C536 1.524 . S
C535 C539 1.400 . S
C536 H521 0.960 . S
C536 H522 0.960 . S
C536 H523 0.960 . S
C536 C535 1.524 . S
C537 C534 1.403 . S
C537 C538 1.392 . S
C537 C541 1.495 . S
C538 C537 1.392 . S
C538 C539 1.385 . S
C538 C540 1.478 . S
C539 H533 0.930 . S
C539 C535 1.400 . S
C539 C538 1.385 . S
C540 C538 1.478 . S
C540 C542 1.381 . S
C540 C546 1.383 . S
C541 C537 1.495 . S
C541 H547 0.959 . S
C541 H548 0.961 . S
C541 H549 0.960 . S
C542 C540 1.381 . S
C542 C543 1.394 . S
C542 H550 0.930 . S
C543 C542 1.394 . S
C543 C544 1.383 . S
C543 H551 0.929 . S
C544 C543 1.383 . S
C544 C545 1.377 . S
C545 H529 0.930 . S
C545 C544 1.377 . S
C545 C546 1.379 . S
C546 H530 0.931 . S
C546 C540 1.383 . S
C546 C545 1.379 . S
H547 C541 0.959 . S
H548 C541 0.961 . S
H549 C541 0.960 . S
H550 C542 0.930 . S
H551 C543 0.929 . S
H552 C560 0.929 . S
H553 C562 0.930 . S
H554 C564 0.930 . S
H555 C567 0.929 . S
H556 C570 0.930 . S
H557 C572 0.960 . S
H558 C572 0.960 . S
H559 C572 0.960 . S
C560 H552 0.929 . S
C560 C561 1.377 . S
C560 C562 1.384 . S
C561 C560 1.377 . S
C561 C567 1.390 . S
C562 H553 0.930 . S
C562 C560 1.384 . S
C562 C563 1.372 . S
C563 C562 1.372 . S
C563 C564 1.400 . S
C563 C568 1.490 . S
C564 H554 0.930 . S
C564 C563 1.400 . S
C564 C567 1.386 . S
H565 C581 0.930 . S
H566 C582 0.931 . S
C567 H555 0.929 . S
C567 C561 1.390 . S
C567 C564 1.386 . S
C568 C563 1.490 . S
C568 C570 1.395 . S
C568 C571 1.403 . S
H569 C575 0.930 . S
C570 H556 0.930 . S
C570 C568 1.395 . S
C570 C573 1.403 . S
C571 C568 1.403 . S
C571 C572 1.524 . S
C571 C575 1.400 . S
C572 H557 0.960 . S
C572 H558 0.960 . S
C572 H559 0.960 . S
C572 C571 1.524 . S
C573 C570 1.403 . S
C573 C574 1.392 . S
C573 C577 1.495 . S
C574 C573 1.392 . S
C574 C575 1.385 . S
C574 C576 1.478 . S
C575 H569 0.930 . S
C575 C571 1.400 . S
C575 C574 1.385 . S
C576 C574 1.478 . S
C576 C578 1.381 . S
C576 C582 1.383 . S
C577 C573 1.495 . S
C577 H583 0.959 . S
C577 H584 0.961 . S
C577 H585 0.960 . S
C578 C576 1.381 . S
C578 C579 1.394 . S
C578 H586 0.930 . S
C579 C578 1.394 . S
C579 C580 1.383 . S
C579 H587 0.929 . S
C580 C579 1.383 . S
C580 C581 1.377 . S
C581 H565 0.930 . S
C581 C580 1.377 . S
C581 C582 1.379 . S
C582 H566 0.931 . S
C582 C576 1.383 . S
C582 C581 1.379 . S
H583 C577 0.959 . S
H584 C577 0.961 . S
H585 C577 0.960 . S
H586 C578 0.930 . S
H587 C579 0.929 . S
H588 C596 0.929 . S
H589 C598 0.930 . S
H590 C600 0.930 . S
H591 C603 0.929 . S
H592 C606 0.930 . S
H593 C608 0.960 . S
H594 C608 0.960 . S
H595 C608 0.960 . S
C596 H588 0.929 . S
C596 C597 1.377 . S
C596 C598 1.384 . S
C597 C596 1.377 . S
C597 C603 1.390 . S
C598 H589 0.930 . S
C598 C596 1.384 . S
C598 C599 1.372 . S
C599 C598 1.372 . S
C599 C600 1.400 . S
C599 C604 1.490 . S
C600 H590 0.930 . S
C600 C599 1.400 . S
C600 C603 1.386 . S
H601 C617 0.930 . S
H602 C618 0.931 . S
C603 H591 0.929 . S
C603 C597 1.390 . S
C603 C600 1.386 . S
C604 C599 1.490 . S
C604 C606 1.395 . S
C604 C607 1.403 . S
H605 C611 0.930 . S
C606 H592 0.930 . S
C606 C604 1.395 . S
C606 C609 1.403 . S
C607 C604 1.403 . S
C607 C608 1.524 . S
C607 C611 1.400 . S
C608 H593 0.960 . S
C608 H594 0.960 . S
C608 H595 0.960 . S
C608 C607 1.524 . S
C609 C606 1.403 . S
C609 C610 1.392 . S
C609 C613 1.495 . S
C610 C609 1.392 . S
C610 C611 1.385 . S
C610 C612 1.478 . S
C611 H605 0.930 . S
C611 C607 1.400 . S
C611 C610 1.385 . S
C612 C610 1.478 . S
C612 C614 1.381 . S
C612 C618 1.383 . S
C613 C609 1.495 . S
C613 H619 0.959 . S
C613 H620 0.961 . S
C613 H621 0.960 . S
C614 C612 1.381 . S
C614 C615 1.394 . S
C614 H622 0.930 . S
C615 C614 1.394 . S
C615 C616 1.383 . S
C615 H623 0.929 . S
C616 C615 1.383 . S
C616 C617 1.377 . S
C617 H601 0.930 . S
C617 C616 1.377 . S
C617 C618 1.379 . S
C618 H602 0.931 . S
C618 C612 1.383 . S
C618 C617 1.379 . S
H619 C613 0.959 . S
H620 C613 0.961 . S
H621 C613 0.960 . S
H622 C614 0.930 . S
H623 C615 0.929 . S
H624 C632 0.929 . S
H625 C634 0.930 . S
H626 C636 0.930 . S
H627 C639 0.929 . S
H628 C642 0.930 . S
H629 C644 0.960 . S
H630 C644 0.960 . S
H631 C644 0.960 . S
C632 H624 0.929 . S
C632 C633 1.377 . S
C632 C634 1.384 . S
C633 C632 1.377 . S
C633 C639 1.390 . S
C634 H625 0.930 . S
C634 C632 1.384 . S
C634 C635 1.372 . S
C635 C634 1.372 . S
C635 C636 1.400 . S
C635 C640 1.490 . S
C636 H626 0.930 . S
C636 C635 1.400 . S
C636 C639 1.386 . S
H637 C653 0.930 . S
H638 C654 0.931 . S
C639 H627 0.929 . S
C639 C633 1.390 . S
C639 C636 1.386 . S
C640 C635 1.490 . S
C640 C642 1.395 . S
C640 C643 1.403 . S
H641 C647 0.930 . S
C642 H628 0.930 . S
C642 C640 1.395 . S
C642 C645 1.403 . S
C643 C640 1.403 . S
C643 C644 1.524 . S
C643 C647 1.400 . S
C644 H629 0.960 . S
C644 H630 0.960 . S
C644 H631 0.960 . S
C644 C643 1.524 . S
C645 C642 1.403 . S
C645 C646 1.392 . S
C645 C649 1.495 . S
C646 C645 1.392 . S
C646 C647 1.385 . S
C646 C648 1.478 . S
C647 H641 0.930 . S
C647 C643 1.400 . S
C647 C646 1.385 . S
C648 C646 1.478 . S
C648 C650 1.381 . S
C648 C654 1.383 . S
C649 C645 1.495 . S
C649 H655 0.959 . S
C649 H656 0.961 . S
C649 H657 0.960 . S
C650 C648 1.381 . S
C650 C651 1.394 . S
C650 H658 0.930 . S
C651 C650 1.394 . S
C651 C652 1.383 . S
C651 H659 0.929 . S
C652 C651 1.383 . S
C652 C653 1.377 . S
C653 H637 0.930 . S
C653 C652 1.377 . S
C653 C654 1.379 . S
C654 H638 0.931 . S
C654 C648 1.383 . S
C654 C653 1.379 . S
H655 C649 0.959 . S
H656 C649 0.961 . S
H657 C649 0.960 . S
H658 C650 0.930 . S
H659 C651 0.929 . S
H660 C668 0.929 . S
H661 C670 0.930 . S
H662 C672 0.930 . S
H663 C675 0.929 . S
H664 C678 0.930 . S
H665 C680 0.960 . S
H666 C680 0.960 . S
H667 C680 0.960 . S
C668 H660 0.929 . S
C668 C669 1.377 . S
C668 C670 1.384 . S
C669 C668 1.377 . S
C669 C675 1.390 . S
C670 H661 0.930 . S
C670 C668 1.384 . S
C670 C671 1.372 . S
C671 C670 1.372 . S
C671 C672 1.400 . S
C671 C676 1.490 . S
C672 H662 0.930 . S
C672 C671 1.400 . S
C672 C675 1.386 . S
H673 C689 0.930 . S
H674 C690 0.931 . S
C675 H663 0.929 . S
C675 C669 1.390 . S
C675 C672 1.386 . S
C676 C671 1.490 . S
C676 C678 1.395 . S
C676 C679 1.403 . S
H677 C683 0.930 . S
C678 H664 0.930 . S
C678 C676 1.395 . S
C678 C681 1.403 . S
C679 C676 1.403 . S
C679 C680 1.524 . S
C679 C683 1.400 . S
C680 H665 0.960 . S
C680 H666 0.960 . S
C680 H667 0.960 . S
C680 C679 1.524 . S
C681 C678 1.403 . S
C681 C682 1.392 . S
C681 C685 1.495 . S
C682 C681 1.392 . S
C682 C683 1.385 . S
C682 C684 1.478 . S
C683 H677 0.930 . S
C683 C679 1.400 . S
C683 C682 1.385 . S
C684 C682 1.478 . S
C684 C686 1.381 . S
C684 C690 1.383 . S
C685 C681 1.495 . S
C685 H691 0.959 . S
C685 H692 0.961 . S
C685 H693 0.960 . S
C686 C684 1.381 . S
C686 C687 1.394 . S
C686 H694 0.930 . S
C687 C686 1.394 . S
C687 C688 1.383 . S
C687 H695 0.929 . S
C688 C687 1.383 . S
C688 C689 1.377 . S
C689 H673 0.930 . S
C689 C688 1.377 . S
C689 C690 1.379 . S
C690 H674 0.931 . S
C690 C684 1.383 . S
C690 C689 1.379 . S
H691 C685 0.959 . S
H692 C685 0.961 . S
H693 C685 0.960 . S
H694 C686 0.930 . S
H695 C687 0.929 . S
H696 C704 0.929 . S
H697 C706 0.930 . S
H698 C708 0.930 . S
H699 C711 0.929 . S
H700 C714 0.930 . S
H701 C716 0.960 . S
H702 C716 0.960 . S
H703 C716 0.960 . S
C704 H696 0.929 . S
C704 C705 1.377 . S
C704 C706 1.384 . S
C705 C704 1.377 . S
C705 C711 1.390 . S
C706 H697 0.930 . S
C706 C704 1.384 . S
C706 C707 1.372 . S
C707 C706 1.372 . S
C707 C708 1.400 . S
C707 C712 1.490 . S
C708 H698 0.930 . S
C708 C707 1.400 . S
C708 C711 1.386 . S
H709 C725 0.930 . S
H710 C726 0.931 . S
C711 H699 0.929 . S
C711 C705 1.390 . S
C711 C708 1.386 . S
C712 C707 1.490 . S
C712 C714 1.395 . S
C712 C715 1.403 . S
H713 C719 0.930 . S
C714 H700 0.930 . S
C714 C712 1.395 . S
C714 C717 1.403 . S
C715 C712 1.403 . S
C715 C716 1.524 . S
C715 C719 1.400 . S
C716 H701 0.960 . S
C716 H702 0.960 . S
C716 H703 0.960 . S
C716 C715 1.524 . S
C717 C714 1.403 . S
C717 C718 1.392 . S
C717 C721 1.495 . S
C718 C717 1.392 . S
C718 C719 1.385 . S
C718 C720 1.478 . S
C719 H713 0.930 . S
C719 C715 1.400 . S
C719 C718 1.385 . S
C720 C718 1.478 . S
C720 C722 1.381 . S
C720 C726 1.383 . S
C721 C717 1.495 . S
C721 H727 0.959 . S
C721 H728 0.961 . S
C721 H729 0.960 . S
C722 C720 1.381 . S
C722 C723 1.394 . S
C722 H730 0.930 . S
C723 C722 1.394 . S
C723 C724 1.383 . S
C723 H731 0.929 . S
C724 C723 1.383 . S
C724 C725 1.377 . S
C725 H709 0.930 . S
C725 C724 1.377 . S
C725 C726 1.379 . S
C726 H710 0.931 . S
C726 C720 1.383 . S
C726 C725 1.379 . S
H727 C721 0.959 . S
H728 C721 0.961 . S
H729 C721 0.960 . S
H730 C722 0.930 . S
H731 C723 0.929 . S
H732 C740 0.929 . S
H733 C742 0.930 . S
H734 C744 0.930 . S
H735 C747 0.929 . S
H736 C750 0.930 . S
H737 C752 0.960 . S
H738 C752 0.960 . S
H739 C752 0.960 . S
C740 H732 0.929 . S
C740 C741 1.377 . S
C740 C742 1.384 . S
C741 C740 1.377 . S
C741 C747 1.390 . S
C742 H733 0.930 . S
C742 C740 1.384 . S
C742 C743 1.372 . S
C743 C742 1.372 . S
C743 C744 1.400 . S
C743 C748 1.490 . S
C744 H734 0.930 . S
C744 C743 1.400 . S
C744 C747 1.386 . S
H745 C761 0.930 . S
H746 C762 0.931 . S
C747 H735 0.929 . S
C747 C741 1.390 . S
C747 C744 1.386 . S
C748 C743 1.490 . S
C748 C750 1.395 . S
C748 C751 1.403 . S
H749 C755 0.930 . S
C750 H736 0.930 . S
C750 C748 1.395 . S
C750 C753 1.403 . S
C751 C748 1.403 . S
C751 C752 1.524 . S
C751 C755 1.400 . S
C752 H737 0.960 . S
C752 H738 0.960 . S
C752 H739 0.960 . S
C752 C751 1.524 . S
C753 C750 1.403 . S
C753 C754 1.392 . S
C753 C757 1.495 . S
C754 C753 1.392 . S
C754 C755 1.385 . S
C754 C756 1.478 . S
C755 H749 0.930 . S
C755 C751 1.400 . S
C755 C754 1.385 . S
C756 C754 1.478 . S
C756 C758 1.381 . S
C756 C762 1.383 . S
C757 C753 1.495 . S
C757 H763 0.959 . S
C757 H764 0.961 . S
C757 H765 0.960 . S
C758 C756 1.381 . S
C758 C759 1.394 . S
C758 H766 0.930 . S
C759 C758 1.394 . S
C759 C760 1.383 . S
C759 H767 0.929 . S
C760 C759 1.383 . S
C760 C761 1.377 . S
C761 H745 0.930 . S
C761 C760 1.377 . S
C761 C762 1.379 . S
C762 H746 0.931 . S
C762 C756 1.383 . S
C762 C761 1.379 . S
H763 C757 0.959 . S
H764 C757 0.961 . S
H765 C757 0.960 . S
H766 C758 0.930 . S
H767 C759 0.929 . S
H768 C776 0.929 . S
H769 C778 0.930 . S
H770 C780 0.930 . S
H771 C783 0.929 . S
H772 C786 0.930 . S
H773 C788 0.960 . S
H774 C788 0.960 . S
H775 C788 0.960 . S
C776 H768 0.929 . S
C776 C777 1.377 . S
C776 C778 1.384 . S
C777 C776 1.377 . S
C777 C783 1.390 . S
C778 H769 0.930 . S
C778 C776 1.384 . S
C778 C779 1.372 . S
C779 C778 1.372 . S
C779 C780 1.400 . S
C779 C784 1.490 . S
C780 H770 0.930 . S
C780 C779 1.400 . S
C780 C783 1.386 . S
H781 C797 0.930 . S
H782 C798 0.931 . S
C783 H771 0.929 . S
C783 C777 1.390 . S
C783 C780 1.386 . S
C784 C779 1.490 . S
C784 C786 1.395 . S
C784 C787 1.403 . S
H785 C791 0.930 . S
C786 H772 0.930 . S
C786 C784 1.395 . S
C786 C789 1.403 . S
C787 C784 1.403 . S
C787 C788 1.524 . S
C787 C791 1.400 . S
C788 H773 0.960 . S
C788 H774 0.960 . S
C788 H775 0.960 . S
C788 C787 1.524 . S
C789 C786 1.403 . S
C789 C790 1.392 . S
C789 C793 1.495 . S
C790 C789 1.392 . S
C790 C791 1.385 . S
C790 C792 1.478 . S
C791 H785 0.930 . S
C791 C787 1.400 . S
C791 C790 1.385 . S
C792 C790 1.478 . S
C792 C794 1.381 . S
C792 C798 1.383 . S
C793 C789 1.495 . S
C793 H799 0.959 . S
C793 H800 0.961 . S
C793 H801 0.960 . S
C794 C792 1.381 . S
C794 C795 1.394 . S
C794 H802 0.930 . S
C795 C794 1.394 . S
C795 C796 1.383 . S
C795 H803 0.929 . S
C796 C795 1.383 . S
C796 C797 1.377 . S
C797 H781 0.930 . S
C797 C796 1.377 . S
C797 C798 1.379 . S
C798 H782 0.931 . S
C798 C792 1.383 . S
C798 C797 1.379 . S
H799 C793 0.959 . S
H800 C793 0.961 . S
H801 C793 0.960 . S
H802 C794 0.930 . S
H803 C795 0.929 . S
H804 C812 0.929 . S
H805 C814 0.930 . S
H806 C816 0.930 . S
H807 C819 0.929 . S
H808 C822 0.930 . S
H809 C824 0.960 . S
H810 C824 0.960 . S
H811 C824 0.960 . S
C812 H804 0.929 . S
C812 C813 1.377 . S
C812 C814 1.384 . S
C813 C812 1.377 . S
C813 C819 1.390 . S
C814 H805 0.930 . S
C814 C812 1.384 . S
C814 C815 1.372 . S
C815 C814 1.372 . S
C815 C816 1.400 . S
C815 C820 1.490 . S
C816 H806 0.930 . S
C816 C815 1.400 . S
C816 C819 1.386 . S
H817 C833 0.930 . S
H818 C834 0.931 . S
C819 H807 0.929 . S
C819 C813 1.390 . S
C819 C816 1.386 . S
C820 C815 1.490 . S
C820 C822 1.395 . S
C820 C823 1.403 . S
H821 C827 0.930 . S
C822 H808 0.930 . S
C822 C820 1.395 . S
C822 C825 1.403 . S
C823 C820 1.403 . S
C823 C824 1.524 . S
C823 C827 1.400 . S
C824 H809 0.960 . S
C824 H810 0.960 . S
C824 H811 0.960 . S
C824 C823 1.524 . S
C825 C822 1.403 . S
C825 C826 1.392 . S
C825 C829 1.495 . S
C826 C825 1.392 . S
C826 C827 1.385 . S
C826 C828 1.478 . S
C827 H821 0.930 . S
C827 C823 1.400 . S
C827 C826 1.385 . S
C828 C826 1.478 . S
C828 C830 1.381 . S
C828 C834 1.383 . S
C829 C825 1.495 . S
C829 H835 0.959 . S
C829 H836 0.961 . S
C829 H837 0.960 . S
C830 C828 1.381 . S
C830 C831 1.394 . S
C830 H838 0.930 . S
C831 C830 1.394 . S
C831 C832 1.383 . S
C831 H839 0.929 . S
C832 C831 1.383 . S
C832 C833 1.377 . S
C833 H817 0.930 . S
C833 C832 1.377 . S
C833 C834 1.379 . S
C834 H818 0.931 . S
C834 C828 1.383 . S
C834 C833 1.379 . S
H835 C829 0.959 . S
H836 C829 0.961 . S
H837 C829 0.960 . S
H838 C830 0.930 . S
H839 C831 0.929 . S
H840 C848 0.929 . S
H841 C850 0.930 . S
H842 C852 0.930 . S
H843 C855 0.929 . S
H844 C858 0.930 . S
H845 C860 0.960 . S
H846 C860 0.960 . S
H847 C860 0.960 . S
C848 H840 0.929 . S
C848 C849 1.377 . S
C848 C850 1.384 . S
C849 C848 1.377 . S
C849 C855 1.390 . S
C850 H841 0.930 . S
C850 C848 1.384 . S
C850 C851 1.372 . S
C851 C850 1.372 . S
C851 C852 1.400 . S
C851 C856 1.490 . S
C852 H842 0.930 . S
C852 C851 1.400 . S
C852 C855 1.386 . S
H853 C869 0.930 . S
H854 C870 0.931 . S
C855 H843 0.929 . S
C855 C849 1.390 . S
C855 C852 1.386 . S
C856 C851 1.490 . S
C856 C858 1.395 . S
C856 C859 1.403 . S
H857 C863 0.930 . S
C858 H844 0.930 . S
C858 C856 1.395 . S
C858 C861 1.403 . S
C859 C856 1.403 . S
C859 C860 1.524 . S
C859 C863 1.400 . S
C860 H845 0.960 . S
C860 H846 0.960 . S
C860 H847 0.960 . S
C860 C859 1.524 . S
C861 C858 1.403 . S
C861 C862 1.392 . S
C861 C865 1.495 . S
C862 C861 1.392 . S
C862 C863 1.385 . S
C862 C864 1.478 . S
C863 H857 0.930 . S
C863 C859 1.400 . S
C863 C862 1.385 . S
C864 C862 1.478 . S
C864 C866 1.381 . S
C864 C870 1.383 . S
C865 C861 1.495 . S
C865 H871 0.959 . S
C865 H872 0.961 . S
C865 H873 0.960 . S
C866 C864 1.381 . S
C866 C867 1.394 . S
C866 H874 0.930 . S
C867 C866 1.394 . S
C867 C868 1.383 . S
C867 H875 0.929 . S
C868 C867 1.383 . S
C868 C869 1.377 . S
C869 H853 0.930 . S
C869 C868 1.377 . S
C869 C870 1.379 . S
C870 H854 0.931 . S
C870 C864 1.383 . S
C870 C869 1.379 . S
H871 C865 0.959 . S
H872 C865 0.961 . S
H873 C865 0.960 . S
H874 C866 0.930 . S
H875 C867 0.929 . S
H876 C884 0.929 . S
H877 C886 0.930 . S
H878 C888 0.930 . S
H879 C891 0.929 . S
H880 C894 0.930 . S
H881 C896 0.960 . S
H882 C896 0.960 . S
H883 C896 0.960 . S
C884 H876 0.929 . S
C884 C885 1.377 . S
C884 C886 1.384 . S
C885 C884 1.377 . S
C885 C891 1.390 . S
C886 H877 0.930 . S
C886 C884 1.384 . S
C886 C887 1.372 . S
C887 C886 1.372 . S
C887 C888 1.400 . S
C887 C892 1.490 . S
C888 H878 0.930 . S
C888 C887 1.400 . S
C888 C891 1.386 . S
H889 C905 0.930 . S
H890 C906 0.931 . S
C891 H879 0.929 . S
C891 C885 1.390 . S
C891 C888 1.386 . S
C892 C887 1.490 . S
C892 C894 1.395 . S
C892 C895 1.403 . S
H893 C899 0.930 . S
C894 H880 0.930 . S
C894 C892 1.395 . S
C894 C897 1.403 . S
C895 C892 1.403 . S
C895 C896 1.524 . S
C895 C899 1.400 . S
C896 H881 0.960 . S
C896 H882 0.960 . S
C896 H883 0.960 . S
C896 C895 1.524 . S
C897 C894 1.403 . S
C897 C898 1.392 . S
C897 C901 1.495 . S
C898 C897 1.392 . S
C898 C899 1.385 . S
C898 C900 1.478 . S
C899 H893 0.930 . S
C899 C895 1.400 . S
C899 C898 1.385 . S
C900 C898 1.478 . S
C900 C902 1.381 . S
C900 C906 1.383 . S
C901 C897 1.495 . S
C901 H907 0.959 . S
C901 H908 0.961 . S
C901 H909 0.960 . S
C902 C900 1.381 . S
C902 C903 1.394 . S
C902 H910 0.930 . S
C903 C902 1.394 . S
C903 C904 1.383 . S
C903 H911 0.929 . S
C904 C903 1.383 . S
C904 C905 1.377 . S
C905 H889 0.930 . S
C905 C904 1.377 . S
C905 C906 1.379 . S
C906 H890 0.931 . S
C906 C900 1.383 . S
C906 C905 1.379 . S
H907 C901 0.959 . S
H908 C901 0.961 . S
H909 C901 0.960 . S
H910 C902 0.930 . S
H911 C903 0.929 . S
H912 C920 0.929 . S
H913 C922 0.930 . S
H914 C924 0.930 . S
H915 C927 0.929 . S
H916 C930 0.930 . S
H917 C932 0.960 . S
H918 C932 0.960 . S
H919 C932 0.960 . S
C920 H912 0.929 . S
C920 C921 1.377 . S
C920 C922 1.384 . S
C921 C920 1.377 . S
C921 C927 1.390 . S
C922 H913 0.930 . S
C922 C920 1.384 . S
C922 C923 1.372 . S
C923 C922 1.372 . S
C923 C924 1.400 . S
C923 C928 1.490 . S
C924 H914 0.930 . S
C924 C923 1.400 . S
C924 C927 1.386 . S
H925 C941 0.930 . S
H926 C942 0.931 . S
C927 H915 0.929 . S
C927 C921 1.390 . S
C927 C924 1.386 . S
C928 C923 1.490 . S
C928 C930 1.395 . S
C928 C931 1.403 . S
H929 C935 0.930 . S
C930 H916 0.930 . S
C930 C928 1.395 . S
C930 C933 1.403 . S
C931 C928 1.403 . S
C931 C932 1.524 . S
C931 C935 1.400 . S
C932 H917 0.960 . S
C932 H918 0.960 . S
C932 H919 0.960 . S
C932 C931 1.524 . S
C933 C930 1.403 . S
C933 C934 1.392 . S
C933 C937 1.495 . S
C934 C933 1.392 . S
C934 C935 1.385 . S
C934 C936 1.478 . S
C935 H929 0.930 . S
C935 C931 1.400 . S
C935 C934 1.385 . S
C936 C934 1.478 . S
C936 C938 1.381 . S
C936 C942 1.383 . S
C937 C933 1.495 . S
C937 H943 0.959 . S
C937 H944 0.961 . S
C937 H945 0.960 . S
C938 C936 1.381 . S
C938 C939 1.394 . S
C938 H946 0.930 . S
C939 C938 1.394 . S
C939 C940 1.383 . S
C939 H947 0.929 . S
C940 C939 1.383 . S
C940 C941 1.377 . S
C941 H925 0.930 . S
C941 C940 1.377 . S
C941 C942 1.379 . S
C942 H926 0.931 . S
C942 C936 1.383 . S
C942 C941 1.379 . S
H943 C937 0.959 . S
H944 C937 0.961 . S
H945 C937 0.960 . S
H946 C938 0.930 . S
H947 C939 0.929 . S
H948 C956 0.929 . S
H949 C958 0.930 . S
H950 C960 0.930 . S
H951 C963 0.929 . S
H952 C966 0.930 . S
H953 C968 0.963 . S
H954 C968 0.933 1_556 S
H955 C968 0.986 . S
C956 H948 0.929 . S
C956 C957 1.380 . S
C956 C958 1.384 . S
C957 C956 1.380 . S
C957 C963 1.387 1_556 S
C958 H949 0.930 . S
C958 C956 1.384 . S
C958 C959 1.372 . S
C959 C958 1.372 . S
C959 C960 1.400 1_556 S
C959 C964 1.490 . S
C960 H950 0.930 . S
C960 C959 1.400 1_554 S
C960 C963 1.386 . S
H961 C977 0.930 . S
H962 C978 0.931 . S
C963 H951 0.929 . S
C963 C957 1.387 1_554 S
C963 C960 1.386 . S
C964 C959 1.490 . S
C964 C966 1.395 . S
C964 C967 1.402 1_556 S
H965 C971 0.933 . S
C966 H952 0.930 . S
C966 C964 1.395 . S
C966 C969 1.403 . S
C967 C964 1.402 1_554 S
C967 C968 1.523 . S
C967 C971 1.400 . S
C968 H953 0.963 . S
C968 H954 0.933 1_554 S
C968 H955 0.986 . S
C968 C967 1.523 . S
C969 C966 1.403 . S
C969 C970 1.396 . S
C969 C973 1.495 . S
C970 C969 1.396 . S
C970 C971 1.383 1_556 S
C970 C972 1.477 . S
C971 H965 0.933 . S
C971 C967 1.400 . S
C971 C970 1.383 1_554 S
C972 C970 1.477 . S
C972 C974 1.386 . S
C972 C978 1.378 1_556 S
C973 C969 1.495 . S
C973 H979 0.959 . S
C973 H980 0.961 1_556 S
C973 H981 0.960 . S
C974 C972 1.386 . S
C974 C975 1.394 . S
C974 H982 0.930 . S
C975 C974 1.394 . S
C975 C976 1.376 1_556 S
C975 H983 0.929 . S
C976 C975 1.376 1_554 S
C976 C977 1.384 . S
C977 H961 0.930 . S
C977 C976 1.384 . S
C977 C978 1.379 . S
C978 H962 0.931 . S
C978 C972 1.378 1_554 S
C978 C977 1.379 . S
H979 C973 0.959 . S
H980 C973 0.961 1_554 S
H981 C973 0.960 . S
H982 C974 0.930 . S
H983 C975 0.929 . S
H984 C992 0.929 . S
H985 C994 0.930 . S
H986 C996 0.930 . S
H987 C999 0.929 . S
H988 C1002 0.930 . S
H989 C1004 0.960 . S
H990 C1004 0.960 . S
H991 C1004 0.960 1_556 S
C992 H984 0.929 . S
C992 C993 1.394 . S
C992 C994 1.384 . S
C993 C992 1.394 . S
C993 C999 1.374 1_554 S
C994 H985 0.930 . S
C994 C992 1.384 . S
C994 C995 1.372 . S
C995 C994 1.372 . S
C995 C996 1.400 1_554 S
C995 C1000 1.490 . S
C996 H986 0.930 . S
C996 C995 1.400 1_556 S
C996 C999 1.386 . S
H997 C1013 0.930 . S
H998 C1014 0.931 . S
C999 H987 0.929 . S
C999 C993 1.374 1_556 S
C999 C996 1.386 . S
C1000 C995 1.490 . S
C1000 C1002 1.395 1_554 S
C1000 C1003 1.403 . S
H1001 C1007 0.930 . S
C1002 H988 0.930 . S
C1002 C1000 1.395 1_556 S
C1002 C1005 1.403 . S
C1003 C1000 1.403 . S
C1003 C1004 1.524 . S
C1003 C1007 1.400 . S
C1004 H989 0.960 . S
C1004 H990 0.960 . S
C1004 H991 0.960 1_554 S
C1004 C1003 1.524 . S
C1005 C1002 1.403 . S
C1005 C1006 1.392 1_556 S
C1005 C1009 1.495 . S
C1006 C1005 1.392 1_554 S
C1006 C1007 1.386 . S
C1006 C1008 1.477 1_554 S
C1007 H1001 0.930 . S
C1007 C1003 1.400 . S
C1007 C1006 1.386 . S
C1008 C1006 1.477 1_556 S
C1008 C1010 1.365 1_556 S
C1008 C1014 1.399 . S
C1009 C1005 1.495 . S
C1009 H1015 0.959 . S
C1009 H1016 0.961 . S
C1009 H1017 0.960 1_556 S
C1010 C1008 1.365 1_554 S
C1010 C1011 1.394 . S
C1010 H1018 0.930 . S
C1011 C1010 1.394 . S
C1011 C1012 1.378 1_554 S
C1011 H1019 0.929 . S
C1012 C1011 1.378 1_556 S
C1012 C1013 1.382 . S
C1013 H997 0.930 . S
C1013 C1012 1.382 . S
C1013 C1014 1.379 . S
C1014 H998 0.931 . S
C1014 C1008 1.399 . S
C1014 C1013 1.379 . S
H1015 C1009 0.959 . S
H1016 C1009 0.961 . S
H1017 C1009 0.960 1_554 S
H1018 C1010 0.930 . S
H1019 C1011 0.929 . S
H1020 C1028 0.929 . S
H1021 C1030 0.930 . S
H1022 C1032 0.930 . S
H1023 C1035 0.929 . S
H1024 C1038 0.930 . S
H1025 C1040 0.960 . S
H1026 C1040 0.960 . S
H1027 C1040 0.960 . S
C1028 H1020 0.929 . S
C1028 C1029 1.381 . S
C1028 C1030 1.384 . S
C1029 C1028 1.381 . S
C1029 C1035 1.386 1_556 S
C1030 H1021 0.930 . S
C1030 C1028 1.384 . S
C1030 C1031 1.398 . S
C1031 C1030 1.398 . S
C1031 C1032 1.375 1_556 S
C1031 C1036 1.490 . S
C1032 H1022 0.930 . S
C1032 C1031 1.375 1_554 S
C1032 C1035 1.386 . S
H1033 C1049 0.930 . S
H1034 C1050 0.931 . S
C1035 H1023 0.929 . S
C1035 C1029 1.386 1_554 S
C1035 C1032 1.386 . S
C1036 C1031 1.490 . S
C1036 C1038 1.387 1_556 S
C1036 C1039 1.411 . S
H1037 C1043 0.930 . S
C1038 H1024 0.930 . S
C1038 C1036 1.387 1_554 S
C1038 C1041 1.403 . S
C1039 C1036 1.411 . S
C1039 C1040 1.524 . S
C1039 C1043 1.400 . S
C1040 H1025 0.960 . S
C1040 H1026 0.960 . S
C1040 H1027 0.960 . S
C1040 C1039 1.524 . S
C1041 C1038 1.403 . S
C1041 C1042 1.406 . S
C1041 C1045 1.495 . S
C1042 C1041 1.406 . S
C1042 C1043 1.372 1_554 S
C1042 C1044 1.480 . S
C1043 H1037 0.930 . S
C1043 C1039 1.400 . S
C1043 C1042 1.372 1_556 S
C1044 C1042 1.480 . S
C1044 C1046 1.381 1_554 S
C1044 C1050 1.383 . S
C1045 C1041 1.495 . S
C1045 H1051 0.959 . S
C1045 H1052 0.961 . S
C1045 H1053 0.960 . S
C1046 C1044 1.381 1_556 S
C1046 C1047 1.394 . S
C1046 H1054 0.930 . S
C1047 C1046 1.394 . S
C1047 C1048 1.354 1_556 S
C1047 H1055 0.929 . S
C1048 C1047 1.354 1_554 S
C1048 C1049 1.408 . S
C1049 H1033 0.930 . S
C1049 C1048 1.408 . S
C1049 C1050 1.379 . S
C1050 H1034 0.931 . S
C1050 C1044 1.383 . S
C1050 C1049 1.379 . S
H1051 C1045 0.959 . S
H1052 C1045 0.961 . S
H1053 C1045 0.960 . S
H1054 C1046 0.930 . S
H1055 C1047 0.929 . S
H1056 C1064 0.929 . S
H1057 C1066 0.930 . S
H1058 C1068 0.930 . S
H1059 C1071 0.929 . S
H1060 C1074 0.930 . S
H1061 C1076 0.960 . S
H1062 C1076 0.960 . S
H1063 C1076 0.960 . S
C1064 H1056 0.929 . S
C1064 C1065 1.388 . S
C1064 C1066 1.384 . S
C1065 C1064 1.388 . S
C1065 C1071 1.380 1_554 S
C1066 H1057 0.930 . S
C1066 C1064 1.384 . S
C1066 C1067 1.393 . S
C1067 C1066 1.393 . S
C1067 C1068 1.380 1_554 S
C1067 C1072 1.490 . S
C1068 H1058 0.930 . S
C1068 C1067 1.380 1_556 S
C1068 C1071 1.386 . S
H1069 C1085 0.930 . S
H1070 C1086 0.931 . S
C1071 H1059 0.929 . S
C1071 C1065 1.380 1_556 S
C1071 C1068 1.386 . S
C1072 C1067 1.490 . S
C1072 C1074 1.383 1_554 S
C1072 C1075 1.414 . S
H1073 C1079 0.930 . S
C1074 H1060 0.930 . S
C1074 C1072 1.383 1_556 S
C1074 C1077 1.403 . S
C1075 C1072 1.414 . S
C1075 C1076 1.524 . S
C1075 C1079 1.400 . S
C1076 H1061 0.960 . S
C1076 H1062 0.960 . S
C1076 H1063 0.960 . S
C1076 C1075 1.524 . S
C1077 C1074 1.403 . S
C1077 C1078 1.392 . S
C1077 C1081 1.495 . S
C1078 C1077 1.392 . S
C1078 C1079 1.385 1_556 S
C1078 C1080 1.478 . S
C1079 H1073 0.930 . S
C1079 C1075 1.400 . S
C1079 C1078 1.385 1_554 S
C1080 C1078 1.478 . S
C1080 C1082 1.381 1_556 S
C1080 C1086 1.383 . S
C1081 C1077 1.495 . S
C1081 H1087 0.959 . S
C1081 H1088 0.961 . S
C1081 H1089 0.960 . S
C1082 C1080 1.381 1_554 S
C1082 C1083 1.394 . S
C1082 H1090 0.930 . S
C1083 C1082 1.394 . S
C1083 C1084 1.363 1_554 S
C1083 H1091 0.929 . S
C1084 C1083 1.363 1_556 S
C1084 C1085 1.399 . S
C1085 H1069 0.930 . S
C1085 C1084 1.399 . S
C1085 C1086 1.379 . S
C1086 H1070 0.931 . S
C1086 C1080 1.383 . S
C1086 C1085 1.379 . S
H1087 C1081 0.959 . S
H1088 C1081 0.961 . S
H1089 C1081 0.960 . S
H1090 C1082 0.930 . S
H1091 C1083 0.929 . S
H1092 C1100 0.929 . S
H1093 C1102 0.930 . S
H1094 C1104 0.930 . S
H1095 C1107 0.929 . S
H1096 C1110 0.930 . S
H1097 C1112 0.960 . S
H1098 C1112 0.960 . S
H1099 C1112 0.960 1_455 S
C1100 H1092 0.929 . S
C1100 C1101 1.377 . S
C1100 C1102 1.384 . S
C1101 C1100 1.377 . S
C1101 C1107 1.390 1_655 S
C1102 H1093 0.930 . S
C1102 C1100 1.384 . S
C1102 C1103 1.372 . S
C1103 C1102 1.372 . S
C1103 C1104 1.400 1_655 S
C1103 C1108 1.490 . S
C1104 H1094 0.930 . S
C1104 C1103 1.400 1_455 S
C1104 C1107 1.386 . S
H1105 C1121 0.930 . S
H1106 C1122 0.931 . S
C1107 H1095 0.929 . S
C1107 C1101 1.390 1_455 S
C1107 C1104 1.386 . S
C1108 C1103 1.490 . S
C1108 C1110 1.395 . S
C1108 C1111 1.404 . S
H1109 C1115 0.930 . S
C1110 H1096 0.930 . S
C1110 C1108 1.395 . S
C1110 C1113 1.405 . S
C1111 C1108 1.404 . S
C1111 C1112 1.526 . S
C1111 C1115 1.400 . S
C1112 H1097 0.960 . S
C1112 H1098 0.960 . S
C1112 H1099 0.960 1_655 S
C1112 C1111 1.526 . S
C1113 C1110 1.405 . S
C1113 C1114 1.392 . S
C1113 C1117 1.495 . S
C1114 C1113 1.392 . S
C1114 C1115 1.385 . S
C1114 C1116 1.477 1_655 S
C1115 H1109 0.930 . S
C1115 C1111 1.400 . S
C1115 C1114 1.385 . S
C1116 C1114 1.477 1_455 S
C1116 C1118 1.380 1_455 S
C1116 C1122 1.384 . S
C1117 C1113 1.495 . S
C1117 H1123 0.961 . S
C1117 H1124 0.928 1_655 S
C1117 H1125 0.992 . S
C1118 C1116 1.380 1_655 S
C1118 C1119 1.394 . S
C1118 H1126 0.930 . S
C1119 C1118 1.394 . S
C1119 C1120 1.371 1_655 S
C1119 H1127 0.929 . S
C1120 C1119 1.371 1_455 S
C1120 C1121 1.389 . S
C1121 H1105 0.930 . S
C1121 C1120 1.389 . S
C1121 C1122 1.379 . S
C1122 H1106 0.931 . S
C1122 C1116 1.384 . S
C1122 C1121 1.379 . S
H1123 C1117 0.961 . S
H1124 C1117 0.928 1_455 S
H1125 C1117 0.992 . S
H1126 C1118 0.930 . S
H1127 C1119 0.929 . S
H1128 C1136 0.929 . S
H1129 C1138 0.930 . S
H1130 C1140 0.930 . S
H1131 C1143 0.929 . S
H1132 C1146 0.932 . S
H1133 C1148 0.960 . S
H1134 C1148 0.960 . S
H1135 C1148 0.960 1_545 S
C1136 H1128 0.929 . S
C1136 C1137 1.374 . S
C1136 C1138 1.384 . S
C1137 C1136 1.374 . S
C1137 C1143 1.393 1_565 S
C1138 H1129 0.930 . S
C1138 C1136 1.384 . S
C1138 C1139 1.403 . S
C1139 C1138 1.403 . S
C1139 C1140 1.368 1_565 S
C1139 C1144 1.490 . S
C1140 H1130 0.930 . S
C1140 C1139 1.368 1_545 S
C1140 C1143 1.386 . S
H1141 C1157 0.930 . S
H1142 C1158 0.931 . S
C1143 H1131 0.929 . S
C1143 C1137 1.393 1_545 S
C1143 C1140 1.386 . S
C1144 C1139 1.490 . S
C1144 C1146 1.392 1_565 S
C1144 C1147 1.406 . S
H1145 C1151 0.930 . S
C1146 H1132 0.932 . S
C1146 C1144 1.392 1_545 S
C1146 C1149 1.405 . S
C1147 C1144 1.406 . S
C1147 C1148 1.524 . S
C1147 C1151 1.400 . S
C1148 H1133 0.960 . S
C1148 H1134 0.960 . S
C1148 H1135 0.960 1_565 S
C1148 C1147 1.524 . S
C1149 C1146 1.405 . S
C1149 C1150 1.392 . S
C1149 C1153 1.495 . S
C1150 C1149 1.392 . S
C1150 C1151 1.385 1_545 S
C1150 C1152 1.477 . S
C1151 H1145 0.930 . S
C1151 C1147 1.400 . S
C1151 C1150 1.385 1_565 S
C1152 C1150 1.477 . S
C1152 C1154 1.357 1_545 S
C1152 C1158 1.407 . S
C1153 C1149 1.495 . S
C1153 H1159 0.959 . S
C1153 H1160 0.961 . S
C1153 H1161 0.960 1_545 S
C1154 C1152 1.357 1_565 S
C1154 C1155 1.394 . S
C1154 H1162 0.930 . S
C1155 C1154 1.394 . S
C1155 C1156 1.359 1_565 S
C1155 H1163 0.929 . S
C1156 C1155 1.359 1_545 S
C1156 C1157 1.401 . S
C1157 H1141 0.930 . S
C1157 C1156 1.401 . S
C1157 C1158 1.379 . S
C1158 H1142 0.931 . S
C1158 C1152 1.407 . S
C1158 C1157 1.379 . S
H1159 C1153 0.959 . S
H1160 C1153 0.961 . S
H1161 C1153 0.960 1_565 S
H1162 C1154 0.930 . S
H1163 C1155 0.929 . S
H1164 C1172 0.929 . S
H1165 C1174 0.930 . S
H1166 C1176 0.930 . S
H1167 C1179 0.929 . S
H1168 C1182 0.930 . S
H1169 C1184 0.960 . S
H1170 C1184 0.960 1_455 S
H1171 C1184 0.960 . S
C1172 H1164 0.929 . S
C1172 C1173 1.398 . S
C1172 C1174 1.384 . S
C1173 C1172 1.398 . S
C1173 C1179 1.370 1_455 S
C1174 H1165 0.930 . S
C1174 C1172 1.384 . S
C1174 C1175 1.372 . S
C1175 C1174 1.372 . S
C1175 C1176 1.400 1_455 S
C1175 C1180 1.490 . S
C1176 H1166 0.930 . S
C1176 C1175 1.400 1_655 S
C1176 C1179 1.386 . S
H1177 C1193 0.930 . S
H1178 C1194 0.931 . S
C1179 H1167 0.929 . S
C1179 C1173 1.370 1_655 S
C1179 C1176 1.386 . S
C1180 C1175 1.490 . S
C1180 C1182 1.395 . S
C1180 C1183 1.403 1_455 S
H1181 C1187 0.930 . S
C1182 H1168 0.930 . S
C1182 C1180 1.395 . S
C1182 C1185 1.403 . S
C1183 C1180 1.403 1_655 S
C1183 C1184 1.524 . S
C1183 C1187 1.400 . S
C1184 H1169 0.960 . S
C1184 H1170 0.960 1_655 S
C1184 H1171 0.960 . S
C1184 C1183 1.524 . S
C1185 C1182 1.403 . S
C1185 C1186 1.392 . S
C1185 C1189 1.495 . S
C1186 C1185 1.392 . S
C1186 C1187 1.385 1_455 S
C1186 C1188 1.478 . S
C1187 H1181 0.930 . S
C1187 C1183 1.400 . S
C1187 C1186 1.385 1_655 S
C1188 C1186 1.478 . S
C1188 C1190 1.381 . S
C1188 C1194 1.383 1_455 S
C1189 C1185 1.495 . S
C1189 H1195 0.959 . S
C1189 H1196 0.961 1_455 S
C1189 H1197 0.960 . S
C1190 C1188 1.381 . S
C1190 C1191 1.394 . S
C1190 H1198 0.930 . S
C1191 C1190 1.394 . S
C1191 C1192 1.396 . S
C1191 H1199 0.929 . S
C1192 C1191 1.396 . S
C1192 C1193 1.364 1_455 S
C1193 H1177 0.930 . S
C1193 C1192 1.364 1_655 S
C1193 C1194 1.379 . S
C1194 H1178 0.931 . S
C1194 C1188 1.383 1_655 S
C1194 C1193 1.379 . S
H1195 C1189 0.959 . S
H1196 C1189 0.961 1_655 S
H1197 C1189 0.960 . S
H1198 C1190 0.930 . S
H1199 C1191 0.929 . S
H1200 C1208 0.929 . S
H1201 C1210 0.930 . S
H1202 C1212 0.930 . S
H1203 C1215 0.929 . S
H1204 C1218 0.930 . S
H1205 C1220 0.960 . S
H1206 C1220 0.960 . S
H1207 C1220 0.960 . S
C1208 H1200 0.929 . S
C1208 C1209 1.395 . S
C1208 C1210 1.384 . S
C1209 C1208 1.395 . S
C1209 C1215 1.373 1_545 S
C1210 H1201 0.930 . S
C1210 C1208 1.384 . S
C1210 C1211 1.372 . S
C1211 C1210 1.372 . S
C1211 C1212 1.400 1_545 S
C1211 C1216 1.491 . S
C1212 H1202 0.930 . S
C1212 C1211 1.400 1_565 S
C1212 C1215 1.386 . S
H1213 C1229 0.930 . S
H1214 C1230 0.931 . S
C1215 H1203 0.929 . S
C1215 C1209 1.373 1_565 S
C1215 C1212 1.386 . S
C1216 C1211 1.491 . S
C1216 C1218 1.378 1_545 S
C1216 C1219 1.420 . S
H1217 C1223 0.930 . S
C1218 H1204 0.930 . S
C1218 C1216 1.378 1_565 S
C1218 C1221 1.403 . S
C1219 C1216 1.420 . S
C1219 C1220 1.524 . S
C1219 C1223 1.400 . S
C1220 H1205 0.960 . S
C1220 H1206 0.960 . S
C1220 H1207 0.960 . S
C1220 C1219 1.524 . S
C1221 C1218 1.403 . S
C1221 C1222 1.406 . S
C1221 C1225 1.495 . S
C1222 C1221 1.406 . S
C1222 C1223 1.371 1_565 S
C1222 C1224 1.479 . S
C1223 H1217 0.930 . S
C1223 C1219 1.400 . S
C1223 C1222 1.371 1_545 S
C1224 C1222 1.479 . S
C1224 C1226 1.381 1_565 S
C1224 C1230 1.383 . S
C1225 C1221 1.495 . S
C1225 H1231 0.959 . S
C1225 H1232 0.961 . S
C1225 H1233 0.960 . S
C1226 C1224 1.381 1_545 S
C1226 C1227 1.394 . S
C1226 H1234 0.930 . S
C1227 C1226 1.394 . S
C1227 C1228 1.371 1_545 S
C1227 H1235 0.929 . S
C1228 C1227 1.371 1_565 S
C1228 C1229 1.390 . S
C1229 H1213 0.930 . S
C1229 C1228 1.390 . S
C1229 C1230 1.379 . S
C1230 H1214 0.931 . S
C1230 C1224 1.383 . S
C1230 C1229 1.379 . S
H1231 C1225 0.959 . S
H1232 C1225 0.961 . S
H1233 C1225 0.960 . S
H1234 C1226 0.930 . S
H1235 C1227 0.929 . S
H1236 C1244 0.929 . S
H1237 C1246 0.930 . S
H1238 C1248 0.930 . S
H1239 C1251 0.929 . S
H1240 C1254 0.930 . S
H1241 C1256 0.960 . S
H1242 C1256 0.960 . S
H1243 C1256 0.960 . S
C1244 H1236 0.929 . S
C1244 C1245 1.374 1_655 S
C1244 C1246 1.384 . S
C1245 C1244 1.374 1_455 S
C1245 C1251 1.393 . S
C1246 H1237 0.930 . S
C1246 C1244 1.384 . S
C1246 C1247 1.398 . S
C1247 C1246 1.398 . S
C1247 C1248 1.373 1_655 S
C1247 C1252 1.491 . S
C1248 H1238 0.930 . S
C1248 C1247 1.373 1_455 S
C1248 C1251 1.386 . S
H1249 C1265 0.930 . S
H1250 C1266 0.931 . S
C1251 H1239 0.929 . S
C1251 C1245 1.393 . S
C1251 C1248 1.386 . S
C1252 C1247 1.491 . S
C1252 C1254 1.395 . S
C1252 C1255 1.403 1_655 S
H1253 C1259 0.930 . S
C1254 H1240 0.930 . S
C1254 C1252 1.395 . S
C1254 C1257 1.403 . S
C1255 C1252 1.403 1_455 S
C1255 C1256 1.524 . S
C1255 C1259 1.400 . S
C1256 H1241 0.960 . S
C1256 H1242 0.960 . S
C1256 H1243 0.960 . S
C1256 C1255 1.524 . S
C1257 C1254 1.403 . S
C1257 C1258 1.392 . S
C1257 C1261 1.495 . S
C1258 C1257 1.392 . S
C1258 C1259 1.385 1_655 S
C1258 C1260 1.478 . S
C1259 H1253 0.930 . S
C1259 C1255 1.400 . S
C1259 C1258 1.385 1_455 S
C1260 C1258 1.478 . S
C1260 C1262 1.381 . S
C1260 C1266 1.383 1_655 S
C1261 C1257 1.495 . S
C1261 H1267 0.959 . S
C1261 H1268 0.961 . S
C1261 H1269 0.960 . S
C1262 C1260 1.381 . S
C1262 C1263 1.394 . S
C1262 H1270 0.930 . S
C1263 C1262 1.394 . S
C1263 C1264 1.383 . S
C1263 H1271 0.929 . S
C1264 C1263 1.383 . S
C1264 C1265 1.377 1_655 S
C1265 H1249 0.930 . S
C1265 C1264 1.377 1_455 S
C1265 C1266 1.379 . S
C1266 H1250 0.931 . S
C1266 C1260 1.383 1_455 S
C1266 C1265 1.379 . S
H1267 C1261 0.959 . S
H1268 C1261 0.961 . S
H1269 C1261 0.960 . S
H1270 C1262 0.930 . S
H1271 C1263 0.929 . S
H1272 C1280 0.929 . S
H1273 C1282 0.930 . S
H1274 C1284 0.930 . S
H1275 C1287 0.929 . S
H1276 C1290 0.930 . S
H1277 C1292 0.960 . S
H1278 C1292 0.960 . S
H1279 C1292 0.960 1_565 S
C1280 H1272 0.929 . S
C1280 C1281 1.401 . S
C1280 C1282 1.384 . S
C1281 C1280 1.401 . S
C1281 C1287 1.367 1_545 S
C1282 H1273 0.930 . S
C1282 C1280 1.384 . S
C1282 C1283 1.372 . S
C1283 C1282 1.372 . S
C1283 C1284 1.400 1_545 S
C1283 C1288 1.490 . S
C1284 H1274 0.930 . S
C1284 C1283 1.400 1_565 S
C1284 C1287 1.386 . S
H1285 C1301 0.930 . S
H1286 C1302 0.931 . S
C1287 H1275 0.929 . S
C1287 C1281 1.367 1_565 S
C1287 C1284 1.386 . S
C1288 C1283 1.490 . S
C1288 C1290 1.396 . S
C1288 C1291 1.403 . S
H1289 C1295 0.930 . S
C1290 H1276 0.930 . S
C1290 C1288 1.396 . S
C1290 C1293 1.403 . S
C1291 C1288 1.403 . S
C1291 C1292 1.524 . S
C1291 C1295 1.400 . S
C1292 H1277 0.960 . S
C1292 H1278 0.960 . S
C1292 H1279 0.960 1_545 S
C1292 C1291 1.524 . S
C1293 C1290 1.403 . S
C1293 C1294 1.392 . S
C1293 C1297 1.494 1_545 S
C1294 C1293 1.392 . S
C1294 C1295 1.387 . S
C1294 C1296 1.477 . S
C1295 H1289 0.930 . S
C1295 C1291 1.400 . S
C1295 C1294 1.387 . S
C1296 C1294 1.477 . S
C1296 C1298 1.388 . S
C1296 C1302 1.376 1_545 S
C1297 C1293 1.494 1_565 S
C1297 H1303 0.959 . S
C1297 H1304 0.987 . S
C1297 H1305 0.935 1_565 S
C1298 C1296 1.388 . S
C1298 C1299 1.394 . S
C1298 H1306 0.930 . S
C1299 C1298 1.394 . S
C1299 C1300 1.385 . S
C1299 H1307 0.929 . S
C1300 C1299 1.385 . S
C1300 C1301 1.375 1_545 S
C1301 H1285 0.930 . S
C1301 C1300 1.375 1_565 S
C1301 C1302 1.379 . S
C1302 H1286 0.931 . S
C1302 C1296 1.376 1_565 S
C1302 C1301 1.379 . S
H1303 C1297 0.959 . S
H1304 C1297 0.987 . S
H1305 C1297 0.935 1_545 S
H1306 C1298 0.930 . S
H1307 C1299 0.929 . S
H1308 C1316 0.929 . S
H1309 C1318 0.930 . S
H1310 C1320 0.930 . S
H1311 C1323 0.929 . S
H1312 C1326 0.930 . S
H1313 C1328 0.960 . S
H1314 C1328 0.960 . S
H1315 C1328 0.960 1_455 S
C1316 H1308 0.929 . S
C1316 C1317 1.377 . S
C1316 C1318 1.384 . S
C1317 C1316 1.377 . S
C1317 C1323 1.390 1_655 S
C1318 H1309 0.930 . S
C1318 C1316 1.384 . S
C1318 C1319 1.372 . S
C1319 C1318 1.372 . S
C1319 C1320 1.400 1_655 S
C1319 C1324 1.491 . S
C1320 H1310 0.930 . S
C1320 C1319 1.400 1_455 S
C1320 C1323 1.386 . S
H1321 C1337 0.930 . S
H1322 C1338 0.931 . S
C1323 H1311 0.929 . S
C1323 C1317 1.390 1_455 S
C1323 C1320 1.386 . S
C1324 C1319 1.491 . S
C1324 C1326 1.395 . S
C1324 C1327 1.404 . S
H1325 C1331 0.930 . S
C1326 H1312 0.930 . S
C1326 C1324 1.395 . S
C1326 C1329 1.404 . S
C1327 C1324 1.404 . S
C1327 C1328 1.524 . S
C1327 C1331 1.401 . S
C1328 H1313 0.960 . S
C1328 H1314 0.960 . S
C1328 H1315 0.960 1_655 S
C1328 C1327 1.524 . S
C1329 C1326 1.404 . S
C1329 C1330 1.392 . S
C1329 C1333 1.495 . S
C1330 C1329 1.392 . S
C1330 C1331 1.385 . S
C1330 C1332 1.477 1_655 S
C1331 H1325 0.930 . S
C1331 C1327 1.401 . S
C1331 C1330 1.385 . S
C1332 C1330 1.477 1_455 S
C1332 C1334 1.378 1_455 S
C1332 C1338 1.386 . S
C1333 C1329 1.495 . S
C1333 H1339 0.959 . S
C1333 H1340 0.954 1_655 S
C1333 H1341 0.966 . S
C1334 C1332 1.378 1_655 S
C1334 C1335 1.394 . S
C1334 H1342 0.930 . S
C1335 C1334 1.394 . S
C1335 C1336 1.370 1_655 S
C1335 H1343 0.929 . S
C1336 C1335 1.370 1_455 S
C1336 C1337 1.390 . S
C1337 H1321 0.930 . S
C1337 C1336 1.390 . S
C1337 C1338 1.379 . S
C1338 H1322 0.931 . S
C1338 C1332 1.386 . S
C1338 C1337 1.379 . S
H1339 C1333 0.959 . S
H1340 C1333 0.954 1_455 S
H1341 C1333 0.966 . S
H1342 C1334 0.930 . S
H1343 C1335 0.929 . S
H1344 C1352 0.929 . S
H1345 C1354 0.930 . S
H1346 C1356 0.930 . S
H1347 C1359 0.929 . S
H1348 C1362 0.930 . S
H1349 C1364 0.962 . S
H1350 C1364 0.960 . S
H1351 C1364 0.960 1_545 S
C1352 H1344 0.929 . S
C1352 C1353 1.374 . S
C1352 C1354 1.384 . S
C1353 C1352 1.374 . S
C1353 C1359 1.393 1_565 S
C1354 H1345 0.930 . S
C1354 C1352 1.384 . S
C1354 C1355 1.407 . S
C1355 C1354 1.407 . S
C1355 C1356 1.364 1_565 S
C1355 C1360 1.490 . S
C1356 H1346 0.930 . S
C1356 C1355 1.364 1_545 S
C1356 C1359 1.386 . S
H1357 C1373 0.930 . S
H1358 C1374 0.931 . S
C1359 H1347 0.929 . S
C1359 C1353 1.393 1_545 S
C1359 C1356 1.386 . S
C1360 C1355 1.490 . S
C1360 C1362 1.396 . S
C1360 C1363 1.403 . S
H1361 C1367 0.930 1_545 S
C1362 H1348 0.930 . S
C1362 C1360 1.396 . S
C1362 C1365 1.403 . S
C1363 C1360 1.403 . S
C1363 C1364 1.525 . S
C1363 C1367 1.400 . S
C1364 H1349 0.962 . S
C1364 H1350 0.960 . S
C1364 H1351 0.960 1_565 S
C1364 C1363 1.525 . S
C1365 C1362 1.403 . S
C1365 C1366 1.393 . S
C1365 C1369 1.495 . S
C1366 C1365 1.393 . S
C1366 C1367 1.385 . S
C1366 C1368 1.477 1_565 S
C1367 H1361 0.930 1_565 S
C1367 C1363 1.400 . S
C1367 C1366 1.385 . S
C1368 C1366 1.477 1_545 S
C1368 C1370 1.378 1_545 S
C1368 C1374 1.386 . S
C1369 C1365 1.495 . S
C1369 H1375 0.959 . S
C1369 H1376 0.961 1_565 S
C1369 H1377 0.960 . S
C1370 C1368 1.378 1_565 S
C1370 C1371 1.394 . S
C1370 H1378 0.930 . S
C1371 C1370 1.394 . S
C1371 C1372 1.366 1_565 S
C1371 H1379 0.929 . S
C1372 C1371 1.366 1_545 S
C1372 C1373 1.394 . S
C1373 H1357 0.930 . S
C1373 C1372 1.394 . S
C1373 C1374 1.379 . S
C1374 H1358 0.931 . S
C1374 C1368 1.386 . S
C1374 C1373 1.379 . S
H1375 C1369 0.959 . S
H1376 C1369 0.961 1_545 S
H1377 C1369 0.960 . S
H1378 C1370 0.930 . S
H1379 C1371 0.929 . S
H1380 C1388 0.929 . S
H1381 C1390 0.930 . S
H1382 C1392 0.930 . S
H1383 C1395 0.929 . S
H1384 C1398 0.930 . S
H1385 C1400 0.960 . S
H1386 C1400 0.960 . S
H1387 C1400 0.960 . S
C1388 H1380 0.929 . S
C1388 C1389 1.392 . S
C1388 C1390 1.384 . S
C1389 C1388 1.392 . S
C1389 C1395 1.375 1_455 S
C1390 H1381 0.930 . S
C1390 C1388 1.384 . S
C1390 C1391 1.372 . S
C1391 C1390 1.372 . S
C1391 C1392 1.400 1_455 S
C1391 C1396 1.490 . S
C1392 H1382 0.930 . S
C1392 C1391 1.400 1_655 S
C1392 C1395 1.386 . S
H1393 C1409 0.930 . S
H1394 C1410 0.931 . S
C1395 H1383 0.929 . S
C1395 C1389 1.375 1_655 S
C1395 C1392 1.386 . S
C1396 C1391 1.490 . S
C1396 C1398 1.395 . S
C1396 C1399 1.403 1_455 S
H1397 C1403 0.930 . S
C1398 H1384 0.930 . S
C1398 C1396 1.395 . S
C1398 C1401 1.403 . S
C1399 C1396 1.403 1_655 S
C1399 C1400 1.524 . S
C1399 C1403 1.400 . S
C1400 H1385 0.960 . S
C1400 H1386 0.960 . S
C1400 H1387 0.960 . S
C1400 C1399 1.524 . S
C1401 C1398 1.403 . S
C1401 C1402 1.392 . S
C1401 C1405 1.495 . S
C1402 C1401 1.392 . S
C1402 C1403 1.385 1_455 S
C1402 C1404 1.478 . S
C1403 H1397 0.930 . S
C1403 C1399 1.400 . S
C1403 C1402 1.385 1_655 S
C1404 C1402 1.478 . S
C1404 C1406 1.381 . S
C1404 C1410 1.383 1_455 S
C1405 C1401 1.495 . S
C1405 H1411 0.959 . S
C1405 H1412 0.961 . S
C1405 H1413 0.960 . S
C1406 C1404 1.381 . S
C1406 C1407 1.394 . S
C1406 H1414 0.930 . S
C1407 C1406 1.394 . S
C1407 C1408 1.383 . S
C1407 H1415 0.929 . S
C1408 C1407 1.383 . S
C1408 C1409 1.377 1_455 S
C1409 H1393 0.930 . S
C1409 C1408 1.377 1_655 S
C1409 C1410 1.379 . S
C1410 H1394 0.931 . S
C1410 C1404 1.383 1_655 S
C1410 C1409 1.379 . S
H1411 C1405 0.959 . S
H1412 C1405 0.961 . S
H1413 C1405 0.960 . S
H1414 C1406 0.930 . S
H1415 C1407 0.929 . S
H1416 C1424 0.929 . S
H1417 C1426 0.930 . S
H1418 C1428 0.930 . S
H1419 C1431 0.929 . S
H1420 C1434 0.930 . S
H1421 C1436 0.960 . S
H1422 C1436 0.960 . S
H1423 C1436 0.960 1_545 S
C1424 H1416 0.929 . S
C1424 C1425 1.376 . S
C1424 C1426 1.384 . S
C1425 C1424 1.376 . S
C1425 C1431 1.391 1_565 S
C1426 H1417 0.930 . S
C1426 C1424 1.384 . S
C1426 C1427 1.403 . S
C1427 C1426 1.403 . S
C1427 C1428 1.369 1_565 S
C1427 C1432 1.490 . S
C1428 H1418 0.930 . S
C1428 C1427 1.369 1_545 S
C1428 C1431 1.386 . S
H1429 C1445 0.930 . S
H1430 C1446 0.931 . S
C1431 H1419 0.929 . S
C1431 C1425 1.391 1_545 S
C1431 C1428 1.386 . S
C1432 C1427 1.490 . S
C1432 C1434 1.391 1_565 S
C1432 C1435 1.407 . S
H1433 C1439 0.930 . S
C1434 H1420 0.930 . S
C1434 C1432 1.391 1_545 S
C1434 C1437 1.403 . S
C1435 C1432 1.407 . S
C1435 C1436 1.524 . S
C1435 C1439 1.400 . S
C1436 H1421 0.960 . S
C1436 H1422 0.960 . S
C1436 H1423 0.960 1_565 S
C1436 C1435 1.524 . S
C1437 C1434 1.403 . S
C1437 C1438 1.393 . S
C1437 C1441 1.495 . S
C1438 C1437 1.393 . S
C1438 C1439 1.384 1_545 S
C1438 C1440 1.477 . S
C1439 H1433 0.930 . S
C1439 C1435 1.400 . S
C1439 C1438 1.384 1_565 S
C1440 C1438 1.477 . S
C1440 C1442 1.349 1_545 S
C1440 C1446 1.415 . S
C1441 C1437 1.495 . S
C1441 H1447 0.959 . S
C1441 H1448 0.961 . S
C1441 H1449 0.960 1_545 S
C1442 C1440 1.349 1_565 S
C1442 C1443 1.394 . S
C1442 H1450 0.930 . S
C1443 C1442 1.394 . S
C1443 C1444 1.358 1_565 S
C1443 H1451 0.929 . S
C1444 C1443 1.358 1_545 S
C1444 C1445 1.403 . S
C1445 H1429 0.930 . S
C1445 C1444 1.403 . S
C1445 C1446 1.379 . S
C1446 H1430 0.931 . S
C1446 C1440 1.415 . S
C1446 C1445 1.379 . S
H1447 C1441 0.959 . S
H1448 C1441 0.961 . S
H1449 C1441 0.960 1_565 S
H1450 C1442 0.930 . S
H1451 C1443 0.929 . S
H1452 C1460 0.929 . S
H1453 C1462 0.930 . S
H1454 C1464 0.930 . S
H1455 C1467 0.929 . S
H1456 C1470 0.930 . S
H1457 C1472 0.960 . S
H1458 C1472 0.960 . S
H1459 C1472 0.960 . S
C1460 H1452 0.929 . S
C1460 C1461 1.396 . S
C1460 C1462 1.384 . S
C1461 C1460 1.396 . S
C1461 C1467 1.372 1_455 S
C1462 H1453 0.930 . S
C1462 C1460 1.384 . S
C1462 C1463 1.372 . S
C1463 C1462 1.372 . S
C1463 C1464 1.400 1_455 S
C1463 C1468 1.490 . S
C1464 H1454 0.930 . S
C1464 C1463 1.400 1_655 S
C1464 C1467 1.386 . S
H1465 C1481 0.930 . S
H1466 C1482 0.931 . S
C1467 H1455 0.929 . S
C1467 C1461 1.372 1_655 S
C1467 C1464 1.386 . S
C1468 C1463 1.490 . S
C1468 C1470 1.395 1_455 S
C1468 C1471 1.403 . S
H1469 C1475 0.930 . S
C1470 H1456 0.930 . S
C1470 C1468 1.395 1_655 S
C1470 C1473 1.403 . S
C1471 C1468 1.403 . S
C1471 C1472 1.524 . S
C1471 C1475 1.400 . S
C1472 H1457 0.960 . S
C1472 H1458 0.960 . S
C1472 H1459 0.960 . S
C1472 C1471 1.524 . S
C1473 C1470 1.403 . S
C1473 C1474 1.394 . S
C1473 C1477 1.495 . S
C1474 C1473 1.394 . S
C1474 C1475 1.383 1_655 S
C1474 C1476 1.477 . S
C1475 H1469 0.930 . S
C1475 C1471 1.400 . S
C1475 C1474 1.383 1_455 S
C1476 C1474 1.477 . S
C1476 C1478 1.352 1_655 S
C1476 C1482 1.412 . S
C1477 C1473 1.495 . S
C1477 H1483 0.959 . S
C1477 H1484 0.961 . S
C1477 H1485 0.937 1_655 S
C1478 C1476 1.352 1_455 S
C1478 C1479 1.394 . S
C1478 H1486 0.930 . S
C1479 C1478 1.394 . S
C1479 C1480 1.377 1_455 S
C1479 H1487 0.929 . S
C1480 C1479 1.377 1_655 S
C1480 C1481 1.383 . S
C1481 H1465 0.930 . S
C1481 C1480 1.383 . S
C1481 C1482 1.379 . S
C1482 H1466 0.931 . S
C1482 C1476 1.412 . S
C1482 C1481 1.379 . S
H1483 C1477 0.959 . S
H1484 C1477 0.961 . S
H1485 C1477 0.937 1_455 S
H1486 C1478 0.930 . S
H1487 C1479 0.929 . S
H1488 C1496 0.929 . S
H1489 C1498 0.930 . S
H1490 C1500 0.930 . S
H1491 C1503 0.929 . S
H1492 C1506 0.930 . S
H1493 C1508 0.960 . S
H1494 C1508 0.960 . S
H1495 C1508 0.960 . S
C1496 H1488 0.929 . S
C1496 C1497 1.376 . S
C1496 C1498 1.384 . S
C1497 C1496 1.376 . S
C1497 C1503 1.391 1_565 S
C1498 H1489 0.930 . S
C1498 C1496 1.384 . S
C1498 C1499 1.393 . S
C1499 C1498 1.393 . S
C1499 C1500 1.379 1_565 S
C1499 C1504 1.490 . S
C1500 H1490 0.930 . S
C1500 C1499 1.379 1_545 S
C1500 C1503 1.386 . S
H1501 C1517 0.930 . S
H1502 C1518 0.931 . S
C1503 H1491 0.929 . S
C1503 C1497 1.391 1_545 S
C1503 C1500 1.386 . S
C1504 C1499 1.490 . S
C1504 C1506 1.389 1_565 S
C1504 C1507 1.408 . S
H1505 C1511 0.930 . S
C1506 H1492 0.930 . S
C1506 C1504 1.389 1_545 S
C1506 C1509 1.403 . S
C1507 C1504 1.408 . S
C1507 C1508 1.524 . S
C1507 C1511 1.400 . S
C1508 H1493 0.960 . S
C1508 H1494 0.960 . S
C1508 H1495 0.960 . S
C1508 C1507 1.524 . S
C1509 C1506 1.403 . S
C1509 C1510 1.392 . S
C1509 C1513 1.495 . S
C1510 C1509 1.392 . S
C1510 C1511 1.385 1_545 S
C1510 C1512 1.478 . S
C1511 H1505 0.930 . S
C1511 C1507 1.400 . S
C1511 C1510 1.385 1_565 S
C1512 C1510 1.478 . S
C1512 C1514 1.381 1_545 S
C1512 C1518 1.383 . S
C1513 C1509 1.495 . S
C1513 H1519 0.959 . S
C1513 H1520 0.961 . S
C1513 H1521 0.960 . S
C1514 C1512 1.381 1_565 S
C1514 C1515 1.394 . S
C1514 H1522 0.930 . S
C1515 C1514 1.394 . S
C1515 C1516 1.383 1_565 S
C1515 H1523 0.929 . S
C1516 C1515 1.383 1_545 S
C1516 C1517 1.377 . S
C1517 H1501 0.930 . S
C1517 C1516 1.377 . S
C1517 C1518 1.379 . S
C1518 H1502 0.931 . S
C1518 C1512 1.383 . S
C1518 C1517 1.379 . S
H1519 C1513 0.959 . S
H1520 C1513 0.961 . S
H1521 C1513 0.960 . S
H1522 C1514 0.930 . S
H1523 C1515 0.929 . S
H1524 C1532 0.929 . S
H1525 C1534 0.930 . S
H1526 C1536 0.930 . S
H1527 C1539 0.929 . S
H1528 C1542 0.930 . S
H1529 C1544 0.960 . S
H1530 C1544 0.960 . S
H1531 C1544 0.960 1_455 S
C1532 H1524 0.929 . S
C1532 C1533 1.377 . S
C1532 C1534 1.384 . S
C1533 C1532 1.377 . S
C1533 C1539 1.390 1_655 S
C1534 H1525 0.930 . S
C1534 C1532 1.384 . S
C1534 C1535 1.404 . S
C1535 C1534 1.404 . S
C1535 C1536 1.368 1_655 S
C1535 C1540 1.490 . S
C1536 H1526 0.930 . S
C1536 C1535 1.368 1_455 S
C1536 C1539 1.386 . S
H1537 C1553 0.930 . S
H1538 C1554 0.931 . S
C1539 H1527 0.929 . S
C1539 C1533 1.390 1_455 S
C1539 C1536 1.386 . S
C1540 C1535 1.490 . S
C1540 C1542 1.391 1_655 S
C1540 C1543 1.407 . S
H1541 C1547 0.930 . S
C1542 H1528 0.930 . S
C1542 C1540 1.391 1_455 S
C1542 C1545 1.403 . S
C1543 C1540 1.407 . S
C1543 C1544 1.524 . S
C1543 C1547 1.400 . S
C1544 H1529 0.960 . S
C1544 H1530 0.960 . S
C1544 H1531 0.960 1_655 S
C1544 C1543 1.524 . S
C1545 C1542 1.403 . S
C1545 C1546 1.393 . S
C1545 C1549 1.495 . S
C1546 C1545 1.393 . S
C1546 C1547 1.385 1_455 S
C1546 C1548 1.477 . S
C1547 H1541 0.930 . S
C1547 C1543 1.400 . S
C1547 C1546 1.385 1_655 S
C1548 C1546 1.477 . S
C1548 C1550 1.350 1_455 S
C1548 C1554 1.414 . S
C1549 C1545 1.495 . S
C1549 H1555 0.959 . S
C1549 H1556 0.961 . S
C1549 H1557 0.960 1_455 S
C1550 C1548 1.350 1_655 S
C1550 C1551 1.394 . S
C1550 H1558 0.930 . S
C1551 C1550 1.394 . S
C1551 C1552 1.357 1_655 S
C1551 H1559 0.929 . S
C1552 C1551 1.357 1_455 S
C1552 C1553 1.404 . S
C1553 H1537 0.930 . S
C1553 C1552 1.404 . S
C1553 C1554 1.379 . S
C1554 H1538 0.931 . S
C1554 C1548 1.414 . S
C1554 C1553 1.379 . S
H1555 C1549 0.959 . S
H1556 C1549 0.961 . S
H1557 C1549 0.960 1_655 S
H1558 C1550 0.930 . S
H1559 C1551 0.929 . S
H1560 C1568 0.929 . S
H1561 C1570 0.930 . S
H1562 C1572 0.930 . S
H1563 C1575 0.929 . S
H1564 C1578 0.930 . S
H1565 C1580 0.960 . S
H1566 C1580 0.960 . S
H1567 C1580 0.960 . S
C1568 H1560 0.929 . S
C1568 C1569 1.376 . S
C1568 C1570 1.384 . S
C1569 C1568 1.376 . S
C1569 C1575 1.391 1_565 S
C1570 H1561 0.930 . S
C1570 C1568 1.384 . S
C1570 C1571 1.376 . S
C1571 C1570 1.376 . S
C1571 C1572 1.396 1_565 S
C1571 C1576 1.490 1_565 S
C1572 H1562 0.930 . S
C1572 C1571 1.396 1_545 S
C1572 C1575 1.386 . S
H1573 C1589 0.930 . S
H1574 C1590 0.931 . S
C1575 H1563 0.929 . S
C1575 C1569 1.391 1_545 S
C1575 C1572 1.386 . S
C1576 C1571 1.490 1_545 S
C1576 C1578 1.399 . S
C1576 C1579 1.398 1_545 S
H1577 C1583 0.930 . S
C1578 H1564 0.930 . S
C1578 C1576 1.399 . S
C1578 C1581 1.403 . S
C1579 C1576 1.398 1_565 S
C1579 C1580 1.524 . S
C1579 C1583 1.400 . S
C1580 H1565 0.960 . S
C1580 H1566 0.960 . S
C1580 H1567 0.960 . S
C1580 C1579 1.524 . S
C1581 C1578 1.403 . S
C1581 C1582 1.392 . S
C1581 C1585 1.495 . S
C1582 C1581 1.392 . S
C1582 C1583 1.385 1_545 S
C1582 C1584 1.478 . S
C1583 H1577 0.930 . S
C1583 C1579 1.400 . S
C1583 C1582 1.385 1_565 S
C1584 C1582 1.478 . S
C1584 C1586 1.381 1_545 S
C1584 C1590 1.383 . S
C1585 C1581 1.495 . S
C1585 H1591 0.959 . S
C1585 H1592 0.961 . S
C1585 H1593 0.960 . S
C1586 C1584 1.381 1_565 S
C1586 C1587 1.394 . S
C1586 H1594 0.930 . S
C1587 C1586 1.394 . S
C1587 C1588 1.383 1_565 S
C1587 H1595 0.929 . S
C1588 C1587 1.383 1_545 S
C1588 C1589 1.377 . S
C1589 H1573 0.930 . S
C1589 C1588 1.377 . S
C1589 C1590 1.379 . S
C1590 H1574 0.931 . S
C1590 C1584 1.383 . S
C1590 C1589 1.379 . S
H1591 C1585 0.959 . S
H1592 C1585 0.961 . S
H1593 C1585 0.960 . S
H1594 C1586 0.930 . S
H1595 C1587 0.929 . S
H1596 C1604 0.929 . S
H1597 C1606 0.930 . S
H1598 C1608 0.930 . S
H1599 C1611 0.929 . S
H1600 C1614 0.930 . S
H1601 C1616 0.960 . S
H1602 C1616 0.960 . S
H1603 C1616 0.960 . S
C1604 H1596 0.929 . S
C1604 C1605 1.391 . S
C1604 C1606 1.384 . S
C1605 C1604 1.391 . S
C1605 C1611 1.378 1_455 S
C1606 H1597 0.930 . S
C1606 C1604 1.384 . S
C1606 C1607 1.372 . S
C1607 C1606 1.372 . S
C1607 C1608 1.400 1_455 S
C1607 C1612 1.491 . S
C1608 H1598 0.930 . S
C1608 C1607 1.400 1_655 S
C1608 C1611 1.386 . S
H1609 C1625 0.930 . S
H1610 C1626 0.931 . S
C1611 H1599 0.929 . S
C1611 C1605 1.378 1_655 S
C1611 C1608 1.386 . S
C1612 C1607 1.491 . S
C1612 C1614 1.379 1_455 S
C1612 C1615 1.418 . S
H1613 C1619 0.930 . S
C1614 H1600 0.930 . S
C1614 C1612 1.379 1_655 S
C1614 C1617 1.403 . S
C1615 C1612 1.418 . S
C1615 C1616 1.524 . S
C1615 C1619 1.400 . S
C1616 H1601 0.960 . S
C1616 H1602 0.960 . S
C1616 H1603 0.960 . S
C1616 C1615 1.524 . S
C1617 C1614 1.403 . S
C1617 C1618 1.392 . S
C1617 C1621 1.495 . S
C1618 C1617 1.392 . S
C1618 C1619 1.385 1_655 S
C1618 C1620 1.478 . S
C1619 H1613 0.930 . S
C1619 C1615 1.400 . S
C1619 C1618 1.385 1_455 S
C1620 C1618 1.478 . S
C1620 C1622 1.381 1_655 S
C1620 C1626 1.383 . S
C1621 C1617 1.495 . S
C1621 H1627 0.959 . S
C1621 H1628 0.961 . S
C1621 H1629 0.960 . S
C1622 C1620 1.381 1_455 S
C1622 C1623 1.394 . S
C1622 H1630 0.930 . S
C1623 C1622 1.394 . S
C1623 C1624 1.367 1_455 S
C1623 H1631 0.929 . S
C1624 C1623 1.367 1_655 S
C1624 C1625 1.394 . S
C1625 H1609 0.930 . S
C1625 C1624 1.394 . S
C1625 C1626 1.379 . S
C1626 H1610 0.931 . S
C1626 C1620 1.383 . S
C1626 C1625 1.379 . S
H1627 C1621 0.959 . S
H1628 C1621 0.961 . S
H1629 C1621 0.960 . S
H1630 C1622 0.930 . S
H1631 C1623 0.929 . S
H1632 C1640 0.929 . S
H1633 C1642 0.930 . S
H1634 C1644 0.930 . S
H1635 C1647 0.929 . S
H1636 C1650 0.930 . S
H1637 C1652 0.960 . S
H1638 C1652 0.960 . S
H1639 C1652 0.960 . S
C1640 H1632 0.929 . S
C1640 C1641 1.371 1_565 S
C1640 C1642 1.384 . S
C1641 C1640 1.371 1_545 S
C1641 C1647 1.396 . S
C1642 H1633 0.930 . S
C1642 C1640 1.384 . S
C1642 C1643 1.398 . S
C1643 C1642 1.398 . S
C1643 C1644 1.374 1_565 S
C1643 C1648 1.491 . S
C1644 H1634 0.930 . S
C1644 C1643 1.374 1_545 S
C1644 C1647 1.386 . S
H1645 C1661 0.930 . S
H1646 C1662 0.931 . S
C1647 H1635 0.929 . S
C1647 C1641 1.396 . S
C1647 C1644 1.386 . S
C1648 C1643 1.491 . S
C1648 C1650 1.395 . S
C1648 C1651 1.403 1_565 S
H1649 C1655 0.930 . S
C1650 H1636 0.930 . S
C1650 C1648 1.395 . S
C1650 C1653 1.403 . S
C1651 C1648 1.403 1_545 S
C1651 C1652 1.524 . S
C1651 C1655 1.400 . S
C1652 H1637 0.960 . S
C1652 H1638 0.960 . S
C1652 H1639 0.960 . S
C1652 C1651 1.524 . S
C1653 C1650 1.403 . S
C1653 C1654 1.392 . S
C1653 C1657 1.495 . S
C1654 C1653 1.392 . S
C1654 C1655 1.385 1_565 S
C1654 C1656 1.478 . S
C1655 H1649 0.930 . S
C1655 C1651 1.400 . S
C1655 C1654 1.385 1_545 S
C1656 C1654 1.478 . S
C1656 C1658 1.381 . S
C1656 C1662 1.383 1_565 S
C1657 C1653 1.495 . S
C1657 H1663 0.959 . S
C1657 H1664 0.961 . S
C1657 H1665 0.960 . S
C1658 C1656 1.381 . S
C1658 C1659 1.394 . S
C1658 H1666 0.930 . S
C1659 C1658 1.394 . S
C1659 C1660 1.383 . S
C1659 H1667 0.929 . S
C1660 C1659 1.383 . S
C1660 C1661 1.377 1_565 S
C1661 H1645 0.930 . S
C1661 C1660 1.377 1_545 S
C1661 C1662 1.379 . S
C1662 H1646 0.931 . S
C1662 C1656 1.383 1_545 S
C1662 C1661 1.379 . S
H1663 C1657 0.959 . S
H1664 C1657 0.961 . S
H1665 C1657 0.960 . S
H1666 C1658 0.930 . S
H1667 C1659 0.929 . S
H1668 C1676 0.929 . S
H1669 C1678 0.930 . S
H1670 C1680 0.930 . S
H1671 C1683 0.929 . S
H1672 C1686 0.930 . S
H1673 C1688 0.960 . S
H1674 C1688 0.960 . S
H1675 C1688 0.960 . S
C1676 H1668 0.929 . S
C1676 C1677 1.392 . S
C1676 C1678 1.384 . S
C1677 C1676 1.392 . S
C1677 C1683 1.376 1_545 S
C1678 H1669 0.930 . S
C1678 C1676 1.384 . S
C1678 C1679 1.372 . S
C1679 C1678 1.372 . S
C1679 C1680 1.400 1_545 S
C1679 C1684 1.490 . S
C1680 H1670 0.930 . S
C1680 C1679 1.400 1_565 S
C1680 C1683 1.386 . S
H1681 C1697 0.930 . S
H1682 C1698 0.931 . S
C1683 H1671 0.929 . S
C1683 C1677 1.376 1_565 S
C1683 C1680 1.386 . S
C1684 C1679 1.490 . S
C1684 C1686 1.395 . S
C1684 C1687 1.403 1_545 S
H1685 C1691 0.930 . S
C1686 H1672 0.930 . S
C1686 C1684 1.395 . S
C1686 C1689 1.403 . S
C1687 C1684 1.403 1_565 S
C1687 C1688 1.524 . S
C1687 C1691 1.400 . S
C1688 H1673 0.960 . S
C1688 H1674 0.960 . S
C1688 H1675 0.960 . S
C1688 C1687 1.524 . S
C1689 C1686 1.403 . S
C1689 C1690 1.392 . S
C1689 C1693 1.495 . S
C1690 C1689 1.392 . S
C1690 C1691 1.385 1_545 S
C1690 C1692 1.478 . S
C1691 H1685 0.930 . S
C1691 C1687 1.400 . S
C1691 C1690 1.385 1_565 S
C1692 C1690 1.478 . S
C1692 C1694 1.381 . S
C1692 C1698 1.383 1_545 S
C1693 C1689 1.495 . S
C1693 H1699 0.959 . S
C1693 H1700 0.961 . S
C1693 H1701 0.960 . S
C1694 C1692 1.381 . S
C1694 C1695 1.394 . S
C1694 H1702 0.930 . S
C1695 C1694 1.394 . S
C1695 C1696 1.383 . S
C1695 H1703 0.929 . S
C1696 C1695 1.383 . S
C1696 C1697 1.377 1_545 S
C1697 H1681 0.930 . S
C1697 C1696 1.377 1_565 S
C1697 C1698 1.379 . S
C1698 H1682 0.931 . S
C1698 C1692 1.383 1_565 S
C1698 C1697 1.379 . S
H1699 C1693 0.959 . S
H1700 C1693 0.961 . S
H1701 C1693 0.960 . S
H1702 C1694 0.930 . S
H1703 C1695 0.929 . S
H1704 C1712 0.929 . S
H1705 C1714 0.930 . S
H1706 C1716 0.930 . S
H1707 C1719 0.929 . S
H1708 C1722 0.930 . S
H1709 C1724 0.960 . S
H1710 C1724 0.960 . S
H1711 C1724 0.960 1_655 S
C1712 H1704 0.929 . S
C1712 C1713 1.396 . S
C1712 C1714 1.384 . S
C1713 C1712 1.396 . S
C1713 C1719 1.372 1_455 S
C1714 H1705 0.930 . S
C1714 C1712 1.384 . S
C1714 C1715 1.372 . S
C1715 C1714 1.372 . S
C1715 C1716 1.400 1_455 S
C1715 C1720 1.490 . S
C1716 H1706 0.930 . S
C1716 C1715 1.400 1_655 S
C1716 C1719 1.386 . S
H1717 C1733 0.930 . S
H1718 C1734 0.931 . S
C1719 H1707 0.929 . S
C1719 C1713 1.372 1_655 S
C1719 C1716 1.386 . S
C1720 C1715 1.490 . S
C1720 C1722 1.395 1_455 S
C1720 C1723 1.403 . S
H1721 C1727 0.930 . S
C1722 H1708 0.930 . S
C1722 C1720 1.395 1_655 S
C1722 C1725 1.403 . S
C1723 C1720 1.403 . S
C1723 C1724 1.524 . S
C1723 C1727 1.400 . S
C1724 H1709 0.960 . S
C1724 H1710 0.960 . S
C1724 H1711 0.960 1_455 S
C1724 C1723 1.524 . S
C1725 C1722 1.403 . S
C1725 C1726 1.393 1_655 S
C1725 C1729 1.495 . S
C1726 C1725 1.393 1_455 S
C1726 C1727 1.385 . S
C1726 C1728 1.477 1_455 S
C1727 H1721 0.930 . S
C1727 C1723 1.400 . S
C1727 C1726 1.385 . S
C1728 C1726 1.477 1_655 S
C1728 C1730 1.360 1_655 S
C1728 C1734 1.404 . S
C1729 C1725 1.495 . S
C1729 H1735 0.959 . S
C1729 H1736 0.961 . S
C1729 H1737 0.960 1_655 S
C1730 C1728 1.360 1_455 S
C1730 C1731 1.394 . S
C1730 H1738 0.930 . S
C1731 C1730 1.394 . S
C1731 C1732 1.373 1_455 S
C1731 H1739 0.929 . S
C1732 C1731 1.373 1_655 S
C1732 C1733 1.387 . S
C1733 H1717 0.930 . S
C1733 C1732 1.387 . S
C1733 C1734 1.379 . S
C1734 H1718 0.931 . S
C1734 C1728 1.404 . S
C1734 C1733 1.379 . S
H1735 C1729 0.959 . S
H1736 C1729 0.961 . S
H1737 C1729 0.960 1_455 S
H1738 C1730 0.930 . S
H1739 C1731 0.929 . S
H1740 C1748 0.929 . S
H1741 C1750 0.930 . S
H1742 C1752 0.930 . S
H1743 C1755 0.929 . S
H1744 C1758 0.930 . S
H1745 C1760 0.960 . S
H1746 C1760 0.960 1_565 S
H1747 C1760 0.960 . S
C1748 H1740 0.929 . S
C1748 C1749 1.375 . S
C1748 C1750 1.384 . S
C1749 C1748 1.375 . S
C1749 C1755 1.392 1_565 S
C1750 H1741 0.930 . S
C1750 C1748 1.384 . S
C1750 C1751 1.372 . S
C1751 C1750 1.372 . S
C1751 C1752 1.400 1_565 S
C1751 C1756 1.490 . S
C1752 H1742 0.930 . S
C1752 C1751 1.400 1_545 S
C1752 C1755 1.386 . S
H1753 C1769 0.930 . S
H1754 C1770 0.931 . S
C1755 H1743 0.929 . S
C1755 C1749 1.392 1_545 S
C1755 C1752 1.386 . S
C1756 C1751 1.490 . S
C1756 C1758 1.395 . S
C1756 C1759 1.399 1_565 S
H1757 C1763 0.930 . S
C1758 H1744 0.930 . S
C1758 C1756 1.395 . S
C1758 C1761 1.403 . S
C1759 C1756 1.399 1_545 S
C1759 C1760 1.527 . S
C1759 C1763 1.401 . S
C1760 H1745 0.960 . S
C1760 H1746 0.960 1_545 S
C1760 H1747 0.960 . S
C1760 C1759 1.527 . S
C1761 C1758 1.403 . S
C1761 C1762 1.398 . S
C1761 C1765 1.495 . S
C1762 C1761 1.398 . S
C1762 C1763 1.382 1_565 S
C1762 C1764 1.477 . S
C1763 H1757 0.930 . S
C1763 C1759 1.401 . S
C1763 C1762 1.382 1_545 S
C1764 C1762 1.477 . S
C1764 C1766 1.393 . S
C1764 C1770 1.371 1_565 S
C1765 C1761 1.495 . S
C1765 H1771 0.959 . S
C1765 H1772 0.961 1_565 S
C1765 H1773 0.960 . S
C1766 C1764 1.393 . S
C1766 C1767 1.394 . S
C1766 H1774 0.930 . S
C1767 C1766 1.394 . S
C1767 C1768 1.379 1_565 S
C1767 H1775 0.929 . S
C1768 C1767 1.379 1_545 S
C1768 C1769 1.381 . S
C1769 H1753 0.930 . S
C1769 C1768 1.381 . S
C1769 C1770 1.379 . S
C1770 H1754 0.931 . S
C1770 C1764 1.371 1_545 S
C1770 C1769 1.379 . S
H1771 C1765 0.959 . S
H1772 C1765 0.961 1_545 S
H1773 C1765 0.960 . S
H1774 C1766 0.930 . S
H1775 C1767 0.929 . S
H1776 C1784 0.929 . S
H1777 C1786 0.930 . S
H1778 C1788 0.930 . S
H1779 C1791 0.929 . S
H1780 C1794 0.930 . S
H1781 C1796 0.960 . S
H1782 C1796 0.960 . S
H1783 C1796 0.960 . S
C1784 H1776 0.929 . S
C1784 C1785 1.388 . S
C1784 C1786 1.384 . S
C1785 C1784 1.388 . S
C1785 C1791 1.380 1_455 S
C1786 H1777 0.930 . S
C1786 C1784 1.384 . S
C1786 C1787 1.390 . S
C1787 C1786 1.390 . S
C1787 C1788 1.383 1_455 S
C1787 C1792 1.490 . S
C1788 H1778 0.930 . S
C1788 C1787 1.383 1_655 S
C1788 C1791 1.386 . S
H1789 C1805 0.930 . S
H1790 C1806 0.931 . S
C1791 H1779 0.929 . S
C1791 C1785 1.380 1_655 S
C1791 C1788 1.386 . S
C1792 C1787 1.490 . S
C1792 C1794 1.384 1_455 S
C1792 C1795 1.413 . S
H1793 C1799 0.930 . S
C1794 H1780 0.930 . S
C1794 C1792 1.384 1_655 S
C1794 C1797 1.403 . S
C1795 C1792 1.413 . S
C1795 C1796 1.524 . S
C1795 C1799 1.400 . S
C1796 H1781 0.960 . S
C1796 H1782 0.960 . S
C1796 H1783 0.960 . S
C1796 C1795 1.524 . S
C1797 C1794 1.403 . S
C1797 C1798 1.392 . S
C1797 C1801 1.495 . S
C1798 C1797 1.392 . S
C1798 C1799 1.385 1_655 S
C1798 C1800 1.478 . S
C1799 H1793 0.930 . S
C1799 C1795 1.400 . S
C1799 C1798 1.385 1_455 S
C1800 C1798 1.478 . S
C1800 C1802 1.381 1_655 S
C1800 C1806 1.383 . S
C1801 C1797 1.495 . S
C1801 H1807 0.959 . S
C1801 H1808 0.961 . S
C1801 H1809 0.960 . S
C1802 C1800 1.381 1_455 S
C1802 C1803 1.394 . S
C1802 H1810 0.930 . S
C1803 C1802 1.394 . S
C1803 C1804 1.383 1_455 S
C1803 H1811 0.929 . S
C1804 C1803 1.383 1_655 S
C1804 C1805 1.377 . S
C1805 H1789 0.930 . S
C1805 C1804 1.377 . S
C1805 C1806 1.379 . S
C1806 H1790 0.931 . S
C1806 C1800 1.383 . S
C1806 C1805 1.379 . S
H1807 C1801 0.959 . S
H1808 C1801 0.961 . S
H1809 C1801 0.960 . S
H1810 C1802 0.930 . S
H1811 C1803 0.929 . S
H1812 C1820 0.929 . S
H1813 C1822 0.930 . S
H1814 C1824 0.930 . S
H1815 C1827 0.929 . S
H1816 C1830 0.930 . S
H1817 C1832 0.960 . S
H1818 C1832 0.960 . S
H1819 C1832 0.960 . S
C1820 H1812 0.929 . S
C1820 C1821 1.377 . S
C1820 C1822 1.384 . S
C1821 C1820 1.377 . S
C1821 C1827 1.390 1_545 S
C1822 H1813 0.930 . S
C1822 C1820 1.384 . S
C1822 C1823 1.376 . S
C1823 C1822 1.376 . S
C1823 C1824 1.395 1_545 S
C1823 C1828 1.491 . S
C1824 H1814 0.930 . S
C1824 C1823 1.395 1_565 S
C1824 C1827 1.386 . S
H1825 C1841 0.939 . S
H1826 C1842 0.928 1_565 S
C1827 H1815 0.929 . S
C1827 C1821 1.390 1_565 S
C1827 C1824 1.386 . S
C1828 C1823 1.491 . S
C1828 C1830 1.395 . S
C1828 C1831 1.403 1_545 S
H1829 C1835 0.930 . S
C1830 H1816 0.930 . S
C1830 C1828 1.395 . S
C1830 C1833 1.403 . S
C1831 C1828 1.403 1_565 S
C1831 C1832 1.524 . S
C1831 C1835 1.400 . S
C1832 H1817 0.960 . S
C1832 H1818 0.960 . S
C1832 H1819 0.960 . S
C1832 C1831 1.524 . S
C1833 C1830 1.403 . S
C1833 C1834 1.392 . S
C1833 C1837 1.495 . S
C1834 C1833 1.392 . S
C1834 C1835 1.385 1_545 S
C1834 C1836 1.478 . S
C1835 H1829 0.930 . S
C1835 C1831 1.400 . S
C1835 C1834 1.385 1_565 S
C1836 C1834 1.478 . S
C1836 C1838 1.381 . S
C1836 C1842 1.389 . S
C1837 C1833 1.495 . S
C1837 H1843 0.959 . S
C1837 H1844 0.961 . S
C1837 H1845 0.960 . S
C1838 C1836 1.381 . S
C1838 C1839 1.394 . S
C1838 H1846 0.930 . S
C1839 C1838 1.394 . S
C1839 C1840 1.383 . S
C1839 H1847 0.929 . S
C1840 C1839 1.383 . S
C1840 C1841 1.372 1_545 S
C1841 H1825 0.939 . S
C1841 C1840 1.372 1_565 S
C1841 C1842 1.377 1_565 S
C1842 H1826 0.928 1_545 S
C1842 C1836 1.389 . S
C1842 C1841 1.377 1_545 S
H1843 C1837 0.959 . S
H1844 C1837 0.961 . S
H1845 C1837 0.960 . S
H1846 C1838 0.930 . S
H1847 C1839 0.929 . S
H1848 C1856 0.929 . S
H1849 C1858 0.932 . S
H1850 C1860 0.930 . S
H1851 C1863 0.931 . S
H1852 C1866 0.930 . S
H1853 C1868 0.960 . S
H1854 C1868 0.960 . S
H1855 C1868 0.960 . S
C1856 H1848 0.929 . S
C1856 C1857 1.377 1_455 S
C1856 C1858 1.384 . S
C1857 C1856 1.377 1_655 S
C1857 C1863 1.389 . S
C1858 H1849 0.932 . S
C1858 C1856 1.384 . S
C1858 C1859 1.371 1_455 S
C1859 C1858 1.371 1_655 S
C1859 C1860 1.399 . S
C1859 C1864 1.489 1_655 S
C1860 H1850 0.930 . S
C1860 C1859 1.399 . S
C1860 C1863 1.387 . S
H1861 C1877 0.930 . S
H1862 C1878 0.931 . S
C1863 H1851 0.931 . S
C1863 C1857 1.389 . S
C1863 C1860 1.387 . S
C1864 C1859 1.489 1_455 S
C1864 C1866 1.423 . S
C1864 C1867 1.376 1_455 S
H1865 C1871 0.930 . S
C1866 H1852 0.930 . S
C1866 C1864 1.423 . S
C1866 C1869 1.403 . S
C1867 C1864 1.376 1_655 S
C1867 C1868 1.524 . S
C1867 C1871 1.400 . S
C1868 H1853 0.960 . S
C1868 H1854 0.960 . S
C1868 H1855 0.960 . S
C1868 C1867 1.524 . S
C1869 C1866 1.403 . S
C1869 C1870 1.392 . S
C1869 C1873 1.495 . S
C1870 C1869 1.392 . S
C1870 C1871 1.385 1_455 S
C1870 C1872 1.478 . S
C1871 H1865 0.930 . S
C1871 C1867 1.400 . S
C1871 C1870 1.385 1_655 S
C1872 C1870 1.478 . S
C1872 C1874 1.381 . S
C1872 C1878 1.383 . S
C1873 C1869 1.495 . S
C1873 H1879 0.959 . S
C1873 H1880 0.961 . S
C1873 H1881 0.960 . S
C1874 C1872 1.381 . S
C1874 C1875 1.397 . S
C1874 H1882 0.930 . S
C1875 C1874 1.397 . S
C1875 C1876 1.385 . S
C1875 H1883 0.924 1_455 S
C1876 C1875 1.385 . S
C1876 C1877 1.377 . S
C1877 H1861 0.930 . S
C1877 C1876 1.377 . S
C1877 C1878 1.379 . S
C1878 H1862 0.931 . S
C1878 C1872 1.383 . S
C1878 C1877 1.379 . S
H1879 C1873 0.959 . S
H1880 C1873 0.961 . S
H1881 C1873 0.960 . S
H1882 C1874 0.930 . S
H1883 C1875 0.924 1_655 S
H1884 C1892 0.929 . S
H1885 C1894 0.930 . S
H1886 C1896 0.930 . S
H1887 C1899 0.929 . S
H1888 C1902 0.930 . S
H1889 C1904 0.960 . S
H1890 C1904 0.960 . S
H1891 C1904 0.960 . S
C1892 H1884 0.929 . S
C1892 C1893 1.382 . S
C1892 C1894 1.384 . S
C1893 C1892 1.382 . S
C1893 C1899 1.385 1_545 S
C1894 H1885 0.930 . S
C1894 C1892 1.384 . S
C1894 C1895 1.403 . S
C1895 C1894 1.403 . S
C1895 C1896 1.369 1_545 S
C1895 C1900 1.492 . S
C1896 H1886 0.930 . S
C1896 C1895 1.369 1_565 S
C1896 C1899 1.386 . S
H1897 C1913 0.930 . S
H1898 C1914 0.931 . S
C1899 H1887 0.929 . S
C1899 C1893 1.385 1_565 S
C1899 C1896 1.386 . S
C1900 C1895 1.492 . S
C1900 C1902 1.395 . S
C1900 C1903 1.403 1_545 S
H1901 C1907 0.930 . S
C1902 H1888 0.930 . S
C1902 C1900 1.395 . S
C1902 C1905 1.403 . S
C1903 C1900 1.403 1_565 S
C1903 C1904 1.524 . S
C1903 C1907 1.400 . S
C1904 H1889 0.960 . S
C1904 H1890 0.960 . S
C1904 H1891 0.960 . S
C1904 C1903 1.524 . S
C1905 C1902 1.403 . S
C1905 C1906 1.392 . S
C1905 C1909 1.495 . S
C1906 C1905 1.392 . S
C1906 C1907 1.385 1_545 S
C1906 C1908 1.478 . S
C1907 H1901 0.930 . S
C1907 C1903 1.400 . S
C1907 C1906 1.385 1_565 S
C1908 C1906 1.478 . S
C1908 C1910 1.381 . S
C1908 C1914 1.383 1_545 S
C1909 C1905 1.495 . S
C1909 H1915 0.959 . S
C1909 H1916 0.961 . S
C1909 H1917 0.960 . S
C1910 C1908 1.381 . S
C1910 C1911 1.394 . S
C1910 H1918 0.930 . S
C1911 C1910 1.394 . S
C1911 C1912 1.383 . S
C1911 H1919 0.929 . S
C1912 C1911 1.383 . S
C1912 C1913 1.377 1_545 S
C1913 H1897 0.930 . S
C1913 C1912 1.377 1_565 S
C1913 C1914 1.379 . S
C1914 H1898 0.931 . S
C1914 C1908 1.383 1_565 S
C1914 C1913 1.379 . S
H1915 C1909 0.959 . S
H1916 C1909 0.961 . S
H1917 C1909 0.960 . S
H1918 C1910 0.930 . S
H1919 C1911 0.929 . S
H1920 C1928 0.929 . S
H1921 C1930 0.930 . S
H1922 C1932 0.930 . S
H1923 C1935 0.929 . S
H1924 C1938 0.931 . S
H1925 C1940 0.960 . S
H1926 C1940 0.960 . S
H1927 C1940 0.960 1_655 S
C1928 H1920 0.929 . S
C1928 C1929 1.397 . S
C1928 C1930 1.384 . S
C1929 C1928 1.397 . S
C1929 C1935 1.371 1_455 S
C1930 H1921 0.930 . S
C1930 C1928 1.384 . S
C1930 C1931 1.372 . S
C1931 C1930 1.372 . S
C1931 C1932 1.400 1_455 S
C1931 C1936 1.490 . S
C1932 H1922 0.930 . S
C1932 C1931 1.400 1_655 S
C1932 C1935 1.386 . S
H1933 C1949 0.930 . S
H1934 C1950 0.931 . S
C1935 H1923 0.929 . S
C1935 C1929 1.371 1_655 S
C1935 C1932 1.386 . S
C1936 C1931 1.490 . S
C1936 C1938 1.393 1_455 S
C1936 C1939 1.403 . S
H1937 C1943 0.930 . S
C1938 H1924 0.931 . S
C1938 C1936 1.393 1_655 S
C1938 C1941 1.403 . S
C1939 C1936 1.403 . S
C1939 C1940 1.524 . S
C1939 C1943 1.400 . S
C1940 H1925 0.960 . S
C1940 H1926 0.960 . S
C1940 H1927 0.960 1_455 S
C1940 C1939 1.524 . S
C1941 C1938 1.403 . S
C1941 C1942 1.390 1_655 S
C1941 C1945 1.500 . S
C1942 C1941 1.390 1_455 S
C1942 C1943 1.387 . S
C1942 C1944 1.477 1_455 S
C1943 H1937 0.930 . S
C1943 C1939 1.400 . S
C1943 C1942 1.387 . S
C1944 C1942 1.477 1_655 S
C1944 C1946 1.377 1_655 S
C1944 C1950 1.387 . S
C1945 C1941 1.500 . S
C1945 H1951 0.959 . S
C1945 H1952 0.961 . S
C1945 H1953 0.960 1_655 S
C1946 C1944 1.377 1_455 S
C1946 C1947 1.394 . S
C1946 H1954 0.930 . S
C1947 C1946 1.394 . S
C1947 C1948 1.380 1_455 S
C1947 H1955 0.929 . S
C1948 C1947 1.380 1_655 S
C1948 C1949 1.380 . S
C1949 H1933 0.930 . S
C1949 C1948 1.380 . S
C1949 C1950 1.379 . S
C1950 H1934 0.931 . S
C1950 C1944 1.387 . S
C1950 C1949 1.379 . S
H1951 C1945 0.959 . S
H1952 C1945 0.961 . S
H1953 C1945 0.960 1_455 S
H1954 C1946 0.930 . S
H1955 C1947 0.929 . S
H1956 C1964 0.929 . S
H1957 C1966 0.930 . S
H1958 C1968 0.930 . S
H1959 C1971 0.929 . S
H1960 C1974 0.930 . S
H1961 C1976 0.960 . S
H1962 C1976 0.960 . S
H1963 C1976 0.960 . S
C1964 H1956 0.929 . S
C1964 C1965 1.378 . S
C1964 C1966 1.384 . S
C1965 C1964 1.378 . S
C1965 C1971 1.389 1_554 S
C1966 H1957 0.930 . S
C1966 C1964 1.384 . S
C1966 C1967 1.396 . S
C1967 C1966 1.396 . S
C1967 C1968 1.375 1_554 S
C1967 C1972 1.492 . S
C1968 H1958 0.930 . S
C1968 C1967 1.375 1_556 S
C1968 C1971 1.386 . S
H1969 C1985 0.930 . S
H1970 C1986 0.931 . S
C1971 H1959 0.929 . S
C1971 C1965 1.389 1_556 S
C1971 C1968 1.386 . S
C1972 C1967 1.492 . S
C1972 C1974 1.395 . S
C1972 C1975 1.403 1_554 S
H1973 C1979 0.930 . S
C1974 H1960 0.930 . S
C1974 C1972 1.395 . S
C1974 C1977 1.403 . S
C1975 C1972 1.403 1_556 S
C1975 C1976 1.524 . S
C1975 C1979 1.400 . S
C1976 H1961 0.960 . S
C1976 H1962 0.960 . S
C1976 H1963 0.960 . S
C1976 C1975 1.524 . S
C1977 C1974 1.403 . S
C1977 C1978 1.392 . S
C1977 C1981 1.495 . S
C1978 C1977 1.392 . S
C1978 C1979 1.385 1_554 S
C1978 C1980 1.478 . S
C1979 H1973 0.930 . S
C1979 C1975 1.400 . S
C1979 C1978 1.385 1_556 S
C1980 C1978 1.478 . S
C1980 C1982 1.381 . S
C1980 C1986 1.383 1_554 S
C1981 C1977 1.495 . S
C1981 H1987 0.959 . S
C1981 H1988 0.961 . S
C1981 H1989 0.960 . S
C1982 C1980 1.381 . S
C1982 C1983 1.394 . S
C1982 H1990 0.930 . S
C1983 C1982 1.394 . S
C1983 C1984 1.383 . S
C1983 H1991 0.929 . S
C1984 C1983 1.383 . S
C1984 C1985 1.377 1_554 S
C1985 H1969 0.930 . S
C1985 C1984 1.377 1_556 S
C1985 C1986 1.379 . S
C1986 H1970 0.931 . S
C1986 C1980 1.383 1_556 S
C1986 C1985 1.379 . S
H1987 C1981 0.959 . S
H1988 C1981 0.961 . S
H1989 C1981 0.960 . S
H1990 C1982 0.930 . S
H1991 C1983 0.929 . S
H1992 C2000 0.929 . S
H1993 C2002 0.930 . S
H1994 C2004 0.930 . S
H1995 C2007 0.929 . S
H1996 C2010 0.930 . S
H1997 C2012 0.960 . S
H1998 C2012 0.960 . S
H1999 C2012 0.960 . S
C2000 H1992 0.929 . S
C2000 C2001 1.381 . S
C2000 C2002 1.384 . S
C2001 C2000 1.381 . S
C2001 C2007 1.386 1_556 S
C2002 H1993 0.930 . S
C2002 C2000 1.384 . S
C2002 C2003 1.392 . S
C2003 C2002 1.392 . S
C2003 C2004 1.380 1_556 S
C2003 C2008 1.490 . S
C2004 H1994 0.930 . S
C2004 C2003 1.380 1_554 S
C2004 C2007 1.386 . S
H2005 C2021 0.930 . S
H2006 C2022 0.931 . S
C2007 H1995 0.929 . S
C2007 C2001 1.386 1_554 S
C2007 C2004 1.386 . S
C2008 C2003 1.490 . S
C2008 C2010 1.387 1_556 S
C2008 C2011 1.410 . S
H2009 C2015 0.930 . S
C2010 H1996 0.930 . S
C2010 C2008 1.387 1_554 S
C2010 C2013 1.403 . S
C2011 C2008 1.410 . S
C2011 C2012 1.524 . S
C2011 C2015 1.400 . S
C2012 H1997 0.960 . S
C2012 H1998 0.960 . S
C2012 H1999 0.960 . S
C2012 C2011 1.524 . S
C2013 C2010 1.403 . S
C2013 C2014 1.392 . S
C2013 C2017 1.495 . S
C2014 C2013 1.392 . S
C2014 C2015 1.385 1_554 S
C2014 C2016 1.478 . S
C2015 H2009 0.930 . S
C2015 C2011 1.400 . S
C2015 C2014 1.385 1_556 S
C2016 C2014 1.478 . S
C2016 C2018 1.381 1_554 S
C2016 C2022 1.383 . S
C2017 C2013 1.495 . S
C2017 H2023 0.959 . S
C2017 H2024 0.961 . S
C2017 H2025 0.960 . S
C2018 C2016 1.381 1_556 S
C2018 C2019 1.394 . S
C2018 H2026 0.930 . S
C2019 C2018 1.394 . S
C2019 C2020 1.356 1_556 S
C2019 H2027 0.929 . S
C2020 C2019 1.356 1_554 S
C2020 C2021 1.406 . S
C2021 H2005 0.930 . S
C2021 C2020 1.406 . S
C2021 C2022 1.379 . S
C2022 H2006 0.931 . S
C2022 C2016 1.383 . S
C2022 C2021 1.379 . S
H2023 C2017 0.959 . S
H2024 C2017 0.961 . S
H2025 C2017 0.960 . S
H2026 C2018 0.930 . S
H2027 C2019 0.929 . S
H2028 C2036 0.929 . S
H2029 C2038 0.930 . S
H2030 C2040 0.930 . S
H2031 C2043 0.929 . S
H2032 C2046 0.930 . S
H2033 C2048 0.960 . S
H2034 C2048 0.960 . S
H2035 C2048 0.960 1_556 S
C2036 H2028 0.929 . S
C2036 C2037 1.395 . S
C2036 C2038 1.384 . S
C2037 C2036 1.395 . S
C2037 C2043 1.373 1_554 S
C2038 H2029 0.930 . S
C2038 C2036 1.384 . S
C2038 C2039 1.372 . S
C2039 C2038 1.372 . S
C2039 C2040 1.400 1_554 S
C2039 C2044 1.490 . S
C2040 H2030 0.930 . S
C2040 C2039 1.400 1_556 S
C2040 C2043 1.386 . S
H2041 C2057 0.930 . S
H2042 C2058 0.931 . S
C2043 H2031 0.929 . S
C2043 C2037 1.373 1_556 S
C2043 C2040 1.386 . S
C2044 C2039 1.490 . S
C2044 C2046 1.395 . S
C2044 C2047 1.403 . S
H2045 C2051 0.932 . S
C2046 H2032 0.930 . S
C2046 C2044 1.395 . S
C2046 C2049 1.403 . S
C2047 C2044 1.403 . S
C2047 C2048 1.524 . S
C2047 C2051 1.400 . S
C2048 H2033 0.960 . S
C2048 H2034 0.960 . S
C2048 H2035 0.960 1_554 S
C2048 C2047 1.524 . S
C2049 C2046 1.403 . S
C2049 C2050 1.393 . S
C2049 C2053 1.496 . S
C2050 C2049 1.393 . S
C2050 C2051 1.386 . S
C2050 C2052 1.477 . S
C2051 H2045 0.932 . S
C2051 C2047 1.400 . S
C2051 C2050 1.386 . S
C2052 C2050 1.477 . S
C2052 C2054 1.388 . S
C2052 C2058 1.376 1_554 S
C2053 C2049 1.496 . S
C2053 H2059 0.961 . S
C2053 H2060 0.930 1_554 S
C2053 H2061 0.990 . S
C2054 C2052 1.388 . S
C2054 C2055 1.394 . S
C2054 H2062 0.930 . S
C2055 C2054 1.394 . S
C2055 C2056 1.380 . S
C2055 H2063 0.929 . S
C2056 C2055 1.380 . S
C2056 C2057 1.380 1_554 S
C2057 H2041 0.930 . S
C2057 C2056 1.380 1_556 S
C2057 C2058 1.379 . S
C2058 H2042 0.931 . S
C2058 C2052 1.376 1_556 S
C2058 C2057 1.379 . S
H2059 C2053 0.961 . S
H2060 C2053 0.930 1_556 S
H2061 C2053 0.990 . S
H2062 C2054 0.930 . S
H2063 C2055 0.929 . S
H2064 C2072 0.929 . S
H2065 C2074 0.930 . S
H2066 C2076 0.930 . S
H2067 C2079 0.929 . S
H2068 C2082 0.930 . S
H2069 C2084 0.960 . S
H2070 C2084 0.960 . S
H2071 C2084 0.960 . S
C2072 H2064 0.929 . S
C2072 C2073 1.386 . S
C2072 C2074 1.384 . S
C2073 C2072 1.386 . S
C2073 C2079 1.382 1_554 S
C2074 H2065 0.930 . S
C2074 C2072 1.384 . S
C2074 C2075 1.388 . S
C2075 C2074 1.388 . S
C2075 C2076 1.385 1_554 S
C2075 C2080 1.490 . S
C2076 H2066 0.930 . S
C2076 C2075 1.385 1_556 S
C2076 C2079 1.386 . S
H2077 C2093 0.930 . S
H2078 C2094 0.931 . S
C2079 H2067 0.929 . S
C2079 C2073 1.382 1_556 S
C2079 C2076 1.386 . S
C2080 C2075 1.490 . S
C2080 C2082 1.387 1_554 S
C2080 C2083 1.410 . S
H2081 C2087 0.930 . S
C2082 H2068 0.930 . S
C2082 C2080 1.387 1_556 S
C2082 C2085 1.403 . S
C2083 C2080 1.410 . S
C2083 C2084 1.524 . S
C2083 C2087 1.400 . S
C2084 H2069 0.960 . S
C2084 H2070 0.960 . S
C2084 H2071 0.960 . S
C2084 C2083 1.524 . S
C2085 C2082 1.403 . S
C2085 C2086 1.392 . S
C2085 C2089 1.495 . S
C2086 C2085 1.392 . S
C2086 C2087 1.385 1_556 S
C2086 C2088 1.478 . S
C2087 H2081 0.930 . S
C2087 C2083 1.400 . S
C2087 C2086 1.385 1_554 S
C2088 C2086 1.478 . S
C2088 C2090 1.381 1_556 S
C2088 C2094 1.383 . S
C2089 C2085 1.495 . S
C2089 H2095 0.959 . S
C2089 H2096 0.961 . S
C2089 H2097 0.960 . S
C2090 C2088 1.381 1_554 S
C2090 C2091 1.394 . S
C2090 H2098 0.930 . S
C2091 C2090 1.394 . S
C2091 C2092 1.383 1_554 S
C2091 H2099 0.929 . S
C2092 C2091 1.383 1_556 S
C2092 C2093 1.377 . S
C2093 H2077 0.930 . S
C2093 C2092 1.377 . S
C2093 C2094 1.379 . S
C2094 H2078 0.931 . S
C2094 C2088 1.383 . S
C2094 C2093 1.379 . S
H2095 C2089 0.959 . S
H2096 C2089 0.961 . S
H2097 C2089 0.960 . S
H2098 C2090 0.930 . S
H2099 C2091 0.929 . S
H2100 C2108 0.929 . S
H2101 C2110 0.930 . S
H2102 C2112 0.930 . S
H2103 C2115 0.929 . S
H2104 C2118 0.930 . S
H2105 C2120 0.960 . S
H2106 C2120 0.960 1_556 S
H2107 C2120 0.960 . S
C2108 H2100 0.929 . S
C2108 C2109 1.380 . S
C2108 C2110 1.384 . S
C2109 C2108 1.380 . S
C2109 C2115 1.388 1_556 S
C2110 H2101 0.930 . S
C2110 C2108 1.384 . S
C2110 C2111 1.372 . S
C2111 C2110 1.372 . S
C2111 C2112 1.400 1_556 S
C2111 C2116 1.490 . S
C2112 H2102 0.930 . S
C2112 C2111 1.400 1_554 S
C2112 C2115 1.386 . S
H2113 C2129 0.930 . S
H2114 C2130 0.931 . S
C2115 H2103 0.929 . S
C2115 C2109 1.388 1_554 S
C2115 C2112 1.386 . S
C2116 C2111 1.490 . S
C2116 C2118 1.395 . S
C2116 C2119 1.403 1_556 S
H2117 C2123 0.930 . S
C2118 H2104 0.930 . S
C2118 C2116 1.395 . S
C2118 C2121 1.403 . S
C2119 C2116 1.403 1_554 S
C2119 C2120 1.524 . S
C2119 C2123 1.400 . S
C2120 H2105 0.960 . S
C2120 H2106 0.960 1_554 S
C2120 H2107 0.960 . S
C2120 C2119 1.524 . S
C2121 C2118 1.403 . S
C2121 C2122 1.392 . S
C2121 C2125 1.495 . S
C2122 C2121 1.392 . S
C2122 C2123 1.385 1_556 S
C2122 C2124 1.479 . S
C2123 H2117 0.930 . S
C2123 C2119 1.400 . S
C2123 C2122 1.385 1_554 S
C2124 C2122 1.479 . S
C2124 C2126 1.412 . S
C2124 C2130 1.351 1_556 S
C2125 C2121 1.495 . S
C2125 H2131 0.959 . S
C2125 H2132 0.961 1_556 S
C2125 H2133 0.960 . S
C2126 C2124 1.412 . S
C2126 C2127 1.394 . S
C2126 H2134 0.930 . S
C2127 C2126 1.394 . S
C2127 C2128 1.387 1_556 S
C2127 H2135 0.929 . S
C2128 C2127 1.387 1_554 S
C2128 C2129 1.373 . S
C2129 H2113 0.930 . S
C2129 C2128 1.373 . S
C2129 C2130 1.379 . S
C2130 H2114 0.931 . S
C2130 C2124 1.351 1_554 S
C2130 C2129 1.379 . S
H2131 C2125 0.959 . S
H2132 C2125 0.961 1_554 S
H2133 C2125 0.960 . S
H2134 C2126 0.930 . S
H2135 C2127 0.929 . S
H2136 C2144 0.929 . S
H2137 C2146 0.930 . S
H2138 C2148 0.930 . S
H2139 C2151 0.929 . S
H2140 C2154 0.930 . S
H2141 C2156 0.960 . S
H2142 C2156 0.960 . S
H2143 C2156 0.960 . S
C2144 H2136 0.929 . S
C2144 C2145 1.373 1_556 S
C2144 C2146 1.384 . S
C2145 C2144 1.373 1_554 S
C2145 C2151 1.394 . S
C2146 H2137 0.930 . S
C2146 C2144 1.384 . S
C2146 C2147 1.379 . S
C2147 C2146 1.379 . S
C2147 C2148 1.393 1_556 S
C2147 C2152 1.491 . S
C2148 H2138 0.930 . S
C2148 C2147 1.393 1_554 S
C2148 C2151 1.386 . S
H2149 C2165 0.930 . S
H2150 C2166 0.931 . S
C2151 H2139 0.929 . S
C2151 C2145 1.394 . S
C2151 C2148 1.386 . S
C2152 C2147 1.491 . S
C2152 C2154 1.395 . S
C2152 C2155 1.403 1_556 S
H2153 C2159 0.930 . S
C2154 H2140 0.930 . S
C2154 C2152 1.395 . S
C2154 C2157 1.403 . S
C2155 C2152 1.403 1_554 S
C2155 C2156 1.524 . S
C2155 C2159 1.400 . S
C2156 H2141 0.960 . S
C2156 H2142 0.960 . S
C2156 H2143 0.960 . S
C2156 C2155 1.524 . S
C2157 C2154 1.403 . S
C2157 C2158 1.392 . S
C2157 C2161 1.495 . S
C2158 C2157 1.392 . S
C2158 C2159 1.385 1_556 S
C2158 C2160 1.478 . S
C2159 H2153 0.930 . S
C2159 C2155 1.400 . S
C2159 C2158 1.385 1_554 S
C2160 C2158 1.478 . S
C2160 C2162 1.381 . S
C2160 C2166 1.383 1_556 S
C2161 C2157 1.495 . S
C2161 H2167 0.959 . S
C2161 H2168 0.961 . S
C2161 H2169 0.960 . S
C2162 C2160 1.381 . S
C2162 C2163 1.394 . S
C2162 H2170 0.930 . S
C2163 C2162 1.394 . S
C2163 C2164 1.383 . S
C2163 H2171 0.929 . S
C2164 C2163 1.383 . S
C2164 C2165 1.377 1_556 S
C2165 H2149 0.930 . S
C2165 C2164 1.377 1_554 S
C2165 C2166 1.379 . S
C2166 H2150 0.931 . S
C2166 C2160 1.383 1_554 S
C2166 C2165 1.379 . S
H2167 C2161 0.959 . S
H2168 C2161 0.961 . S
H2169 C2161 0.960 . S
H2170 C2162 0.930 . S
H2171 C2163 0.929 . S
H2172 C2180 0.929 . S
H2173 C2182 0.930 . S
H2174 C2184 0.930 . S
H2175 C2187 0.929 . S
H2176 C2190 0.930 . S
H2177 C2192 0.960 . S
H2178 C2192 0.960 . S
H2179 C2192 0.960 1_554 S
C2180 H2172 0.929 . S
C2180 C2181 1.381 . S
C2180 C2182 1.384 . S
C2181 C2180 1.381 . S
C2181 C2187 1.386 1_556 S
C2182 H2173 0.930 . S
C2182 C2180 1.384 . S
C2182 C2183 1.407 . S
C2183 C2182 1.407 . S
C2183 C2184 1.365 1_556 S
C2183 C2188 1.490 . S
C2184 H2174 0.930 . S
C2184 C2183 1.365 1_554 S
C2184 C2187 1.386 . S
H2185 C2201 0.930 . S
H2186 C2202 0.931 . S
C2187 H2175 0.929 . S
C2187 C2181 1.386 1_554 S
C2187 C2184 1.386 . S
C2188 C2183 1.490 . S
C2188 C2190 1.390 1_556 S
C2188 C2191 1.409 . S
H2189 C2195 0.930 . S
C2190 H2176 0.930 . S
C2190 C2188 1.390 1_554 S
C2190 C2193 1.403 . S
C2191 C2188 1.409 . S
C2191 C2192 1.524 . S
C2191 C2195 1.400 . S
C2192 H2177 0.960 . S
C2192 H2178 0.960 . S
C2192 H2179 0.960 1_556 S
C2192 C2191 1.524 . S
C2193 C2190 1.403 . S
C2193 C2194 1.393 . S
C2193 C2197 1.495 . S
C2194 C2193 1.393 . S
C2194 C2195 1.385 1_554 S
C2194 C2196 1.477 . S
C2195 H2189 0.930 . S
C2195 C2191 1.400 . S
C2195 C2194 1.385 1_556 S
C2196 C2194 1.477 . S
C2196 C2198 1.352 1_554 S
C2196 C2202 1.412 . S
C2197 C2193 1.495 . S
C2197 H2203 0.959 . S
C2197 H2204 0.961 . S
C2197 H2205 0.960 1_554 S
C2198 C2196 1.352 1_556 S
C2198 C2199 1.394 . S
C2198 H2206 0.930 . S
C2199 C2198 1.394 . S
C2199 C2200 1.362 1_556 S
C2199 H2207 0.929 . S
C2200 C2199 1.362 1_554 S
C2200 C2201 1.398 . S
C2201 H2185 0.930 . S
C2201 C2200 1.398 . S
C2201 C2202 1.379 . S
C2202 H2186 0.931 . S
C2202 C2196 1.412 . S
C2202 C2201 1.379 . S
H2203 C2197 0.959 . S
H2204 C2197 0.961 . S
H2205 C2197 0.960 1_556 S
H2206 C2198 0.930 . S
H2207 C2199 0.929 . S
H2208 C2216 0.929 . S
H2209 C2218 0.930 . S
H2210 C2220 0.930 . S
H2211 C2223 0.929 . S
H2212 C2226 0.930 . S
H2213 C2228 0.960 . S
H2214 C2228 0.960 1_554 S
H2215 C2228 0.960 . S
C2216 H2208 0.929 . S
C2216 C2217 1.394 . S
C2216 C2218 1.384 . S
C2217 C2216 1.394 . S
C2217 C2223 1.374 1_554 S
C2218 H2209 0.930 . S
C2218 C2216 1.384 . S
C2218 C2219 1.372 . S
C2219 C2218 1.372 . S
C2219 C2220 1.400 1_554 S
C2219 C2224 1.490 . S
C2220 H2210 0.930 . S
C2220 C2219 1.400 1_556 S
C2220 C2223 1.386 . S
H2221 C2237 0.930 . S
H2222 C2238 0.931 . S
C2223 H2211 0.929 . S
C2223 C2217 1.374 1_556 S
C2223 C2220 1.386 . S
C2224 C2219 1.490 . S
C2224 C2226 1.395 . S
C2224 C2227 1.403 1_554 S
H2225 C2231 0.930 . S
C2226 H2212 0.930 . S
C2226 C2224 1.395 . S
C2226 C2229 1.403 . S
C2227 C2224 1.403 1_556 S
C2227 C2228 1.524 . S
C2227 C2231 1.400 . S
C2228 H2213 0.960 . S
C2228 H2214 0.960 1_556 S
C2228 H2215 0.960 . S
C2228 C2227 1.524 . S
C2229 C2226 1.403 . S
C2229 C2230 1.392 . S
C2229 C2233 1.495 . S
C2230 C2229 1.392 . S
C2230 C2231 1.385 1_554 S
C2230 C2232 1.478 . S
C2231 H2225 0.930 . S
C2231 C2227 1.400 . S
C2231 C2230 1.385 1_556 S
C2232 C2230 1.478 . S
C2232 C2234 1.381 . S
C2232 C2238 1.383 1_554 S
C2233 C2229 1.495 . S
C2233 H2239 0.959 . S
C2233 H2240 0.961 . S
C2233 H2241 0.960 . S
C2234 C2232 1.381 . S
C2234 C2235 1.394 . S
C2234 H2242 0.930 . S
C2235 C2234 1.394 . S
C2235 C2236 1.408 . S
C2235 H2243 0.929 . S
C2236 C2235 1.408 . S
C2236 C2237 1.353 1_554 S
C2237 H2221 0.930 . S
C2237 C2236 1.353 1_556 S
C2237 C2238 1.379 . S
C2238 H2222 0.931 . S
C2238 C2232 1.383 1_556 S
C2238 C2237 1.379 . S
H2239 C2233 0.959 . S
H2240 C2233 0.961 . S
H2241 C2233 0.960 . S
H2242 C2234 0.930 . S
H2243 C2235 0.929 . S
H2244 C2252 0.929 . S
H2245 C2254 0.930 . S
H2246 C2256 0.930 . S
H2247 C2259 0.929 . S
H2248 C2262 0.930 . S
H2249 C2264 0.960 . S
H2250 C2264 0.960 . S
H2251 C2264 0.960 . S
C2252 H2244 0.929 . S
C2252 C2253 1.377 . S
C2252 C2254 1.384 . S
C2253 C2252 1.377 . S
C2253 C2259 1.390 . S
C2254 H2245 0.930 . S
C2254 C2252 1.384 . S
C2254 C2255 1.372 . S
C2255 C2254 1.372 . S
C2255 C2256 1.400 . S
C2255 C2260 1.490 . S
C2256 H2246 0.930 . S
C2256 C2255 1.400 . S
C2256 C2259 1.386 . S
H2257 C2273 0.930 . S
H2258 C2274 0.931 . S
C2259 H2247 0.929 . S
C2259 C2253 1.390 . S
C2259 C2256 1.386 . S
C2260 C2255 1.490 . S
C2260 C2262 1.395 . S
C2260 C2263 1.403 . S
H2261 C2267 0.930 . S
C2262 H2248 0.930 . S
C2262 C2260 1.395 . S
C2262 C2265 1.403 . S
C2263 C2260 1.403 . S
C2263 C2264 1.524 . S
C2263 C2267 1.400 . S
C2264 H2249 0.960 . S
C2264 H2250 0.960 . S
C2264 H2251 0.960 . S
C2264 C2263 1.524 . S
C2265 C2262 1.403 . S
C2265 C2266 1.392 . S
C2265 C2269 1.495 . S
C2266 C2265 1.392 . S
C2266 C2267 1.385 . S
C2266 C2268 1.478 . S
C2267 H2261 0.930 . S
C2267 C2263 1.400 . S
C2267 C2266 1.385 . S
C2268 C2266 1.478 . S
C2268 C2270 1.381 . S
C2268 C2274 1.383 . S
C2269 C2265 1.495 . S
C2269 H2275 0.959 . S
C2269 H2276 0.961 . S
C2269 H2277 0.960 . S
C2270 C2268 1.381 . S
C2270 C2271 1.394 . S
C2270 H2278 0.930 . S
C2271 C2270 1.394 . S
C2271 C2272 1.383 . S
C2271 H2279 0.929 . S
C2272 C2271 1.383 . S
C2272 C2273 1.377 . S
C2273 H2257 0.930 . S
C2273 C2272 1.377 . S
C2273 C2274 1.379 . S
C2274 H2258 0.931 . S
C2274 C2268 1.383 . S
C2274 C2273 1.379 . S
H2275 C2269 0.959 . S
H2276 C2269 0.961 . S
H2277 C2269 0.960 . S
H2278 C2270 0.930 . S
H2279 C2271 0.929 . S
H2280 C2288 0.929 . S
H2281 C2290 0.930 . S
H2282 C2292 0.930 . S
H2283 C2295 0.929 . S
H2284 C2298 0.930 . S
H2285 C2300 0.960 . S
H2286 C2300 0.960 . S
H2287 C2300 0.960 . S
C2288 H2280 0.929 . S
C2288 C2289 1.377 . S
C2288 C2290 1.384 . S
C2289 C2288 1.377 . S
C2289 C2295 1.390 . S
C2290 H2281 0.930 . S
C2290 C2288 1.384 . S
C2290 C2291 1.372 . S
C2291 C2290 1.372 . S
C2291 C2292 1.400 . S
C2291 C2296 1.490 . S
C2292 H2282 0.930 . S
C2292 C2291 1.400 . S
C2292 C2295 1.386 . S
H2293 C2309 0.930 . S
H2294 C2310 0.931 . S
C2295 H2283 0.929 . S
C2295 C2289 1.390 . S
C2295 C2292 1.386 . S
C2296 C2291 1.490 . S
C2296 C2298 1.395 . S
C2296 C2299 1.403 . S
H2297 C2303 0.930 . S
C2298 H2284 0.930 . S
C2298 C2296 1.395 . S
C2298 C2301 1.403 . S
C2299 C2296 1.403 . S
C2299 C2300 1.524 . S
C2299 C2303 1.400 . S
C2300 H2285 0.960 . S
C2300 H2286 0.960 . S
C2300 H2287 0.960 . S
C2300 C2299 1.524 . S
C2301 C2298 1.403 . S
C2301 C2302 1.392 . S
C2301 C2305 1.495 . S
C2302 C2301 1.392 . S
C2302 C2303 1.385 . S
C2302 C2304 1.478 . S
C2303 H2297 0.930 . S
C2303 C2299 1.400 . S
C2303 C2302 1.385 . S
C2304 C2302 1.478 . S
C2304 C2306 1.381 . S
C2304 C2310 1.383 . S
C2305 C2301 1.495 . S
C2305 H2311 0.959 . S
C2305 H2312 0.961 . S
C2305 H2313 0.960 . S
C2306 C2304 1.381 . S
C2306 C2307 1.394 . S
C2306 H2314 0.930 . S
C2307 C2306 1.394 . S
C2307 C2308 1.383 . S
C2307 H2315 0.929 . S
C2308 C2307 1.383 . S
C2308 C2309 1.377 . S
C2309 H2293 0.930 . S
C2309 C2308 1.377 . S
C2309 C2310 1.379 . S
C2310 H2294 0.931 . S
C2310 C2304 1.383 . S
C2310 C2309 1.379 . S
H2311 C2305 0.959 . S
H2312 C2305 0.961 . S
H2313 C2305 0.960 . S
H2314 C2306 0.930 . S
H2315 C2307 0.929 . S
H2316 C2324 0.929 . S
H2317 C2326 0.930 . S
H2318 C2328 0.930 . S
H2319 C2331 0.929 . S
H2320 C2334 0.930 . S
H2321 C2336 0.960 . S
H2322 C2336 0.960 . S
H2323 C2336 0.960 . S
C2324 H2316 0.929 . S
C2324 C2325 1.377 . S
C2324 C2326 1.384 . S
C2325 C2324 1.377 . S
C2325 C2331 1.390 . S
C2326 H2317 0.930 . S
C2326 C2324 1.384 . S
C2326 C2327 1.372 . S
C2327 C2326 1.372 . S
C2327 C2328 1.400 . S
C2327 C2332 1.490 . S
C2328 H2318 0.930 . S
C2328 C2327 1.400 . S
C2328 C2331 1.386 . S
H2329 C2345 0.930 . S
H2330 C2346 0.931 . S
C2331 H2319 0.929 . S
C2331 C2325 1.390 . S
C2331 C2328 1.386 . S
C2332 C2327 1.490 . S
C2332 C2334 1.395 . S
C2332 C2335 1.403 . S
H2333 C2339 0.930 . S
C2334 H2320 0.930 . S
C2334 C2332 1.395 . S
C2334 C2337 1.403 . S
C2335 C2332 1.403 . S
C2335 C2336 1.524 . S
C2335 C2339 1.400 . S
C2336 H2321 0.960 . S
C2336 H2322 0.960 . S
C2336 H2323 0.960 . S
C2336 C2335 1.524 . S
C2337 C2334 1.403 . S
C2337 C2338 1.392 . S
C2337 C2341 1.495 . S
C2338 C2337 1.392 . S
C2338 C2339 1.385 . S
C2338 C2340 1.478 . S
C2339 H2333 0.930 . S
C2339 C2335 1.400 . S
C2339 C2338 1.385 . S
C2340 C2338 1.478 . S
C2340 C2342 1.381 . S
C2340 C2346 1.383 . S
C2341 C2337 1.495 . S
C2341 H2347 0.959 . S
C2341 H2348 0.961 . S
C2341 H2349 0.960 . S
C2342 C2340 1.381 . S
C2342 C2343 1.394 . S
C2342 H2350 0.930 . S
C2343 C2342 1.394 . S
C2343 C2344 1.383 . S
C2343 H2351 0.929 . S
C2344 C2343 1.383 . S
C2344 C2345 1.377 . S
C2345 H2329 0.930 . S
C2345 C2344 1.377 . S
C2345 C2346 1.379 . S
C2346 H2330 0.931 . S
C2346 C2340 1.383 . S
C2346 C2345 1.379 . S
H2347 C2341 0.959 . S
H2348 C2341 0.961 . S
H2349 C2341 0.960 . S
H2350 C2342 0.930 . S
H2351 C2343 0.929 . S
H2352 C2360 0.929 . S
H2353 C2362 0.930 . S
H2354 C2364 0.930 . S
H2355 C2367 0.929 . S
H2356 C2370 0.930 . S
H2357 C2372 0.960 . S
H2358 C2372 0.960 . S
H2359 C2372 0.960 . S
C2360 H2352 0.929 . S
C2360 C2361 1.377 . S
C2360 C2362 1.384 . S
C2361 C2360 1.377 . S
C2361 C2367 1.390 . S
C2362 H2353 0.930 . S
C2362 C2360 1.384 . S
C2362 C2363 1.372 . S
C2363 C2362 1.372 . S
C2363 C2364 1.400 . S
C2363 C2368 1.490 . S
C2364 H2354 0.930 . S
C2364 C2363 1.400 . S
C2364 C2367 1.386 . S
H2365 C2381 0.930 . S
H2366 C2382 0.931 . S
C2367 H2355 0.929 . S
C2367 C2361 1.390 . S
C2367 C2364 1.386 . S
C2368 C2363 1.490 . S
C2368 C2370 1.395 . S
C2368 C2371 1.403 . S
H2369 C2375 0.930 . S
C2370 H2356 0.930 . S
C2370 C2368 1.395 . S
C2370 C2373 1.403 . S
C2371 C2368 1.403 . S
C2371 C2372 1.524 . S
C2371 C2375 1.400 . S
C2372 H2357 0.960 . S
C2372 H2358 0.960 . S
C2372 H2359 0.960 . S
C2372 C2371 1.524 . S
C2373 C2370 1.403 . S
C2373 C2374 1.392 . S
C2373 C2377 1.495 . S
C2374 C2373 1.392 . S
C2374 C2375 1.385 . S
C2374 C2376 1.478 . S
C2375 H2369 0.930 . S
C2375 C2371 1.400 . S
C2375 C2374 1.385 . S
C2376 C2374 1.478 . S
C2376 C2378 1.381 . S
C2376 C2382 1.383 . S
C2377 C2373 1.495 . S
C2377 H2383 0.959 . S
C2377 H2384 0.961 . S
C2377 H2385 0.960 . S
C2378 C2376 1.381 . S
C2378 C2379 1.394 . S
C2378 H2386 0.930 . S
C2379 C2378 1.394 . S
C2379 C2380 1.383 . S
C2379 H2387 0.929 . S
C2380 C2379 1.383 . S
C2380 C2381 1.377 . S
C2381 H2365 0.930 . S
C2381 C2380 1.377 . S
C2381 C2382 1.379 . S
C2382 H2366 0.931 . S
C2382 C2376 1.383 . S
C2382 C2381 1.379 . S
H2383 C2377 0.959 . S
H2384 C2377 0.961 . S
H2385 C2377 0.960 . S
H2386 C2378 0.930 . S
H2387 C2379 0.929 . S
H2388 C2396 0.929 . S
H2389 C2398 0.930 . S
H2390 C2400 0.930 . S
H2391 C2403 0.929 . S
H2392 C2406 0.930 . S
H2393 C2408 0.960 . S
H2394 C2408 0.960 . S
H2395 C2408 0.960 . S
C2396 H2388 0.929 . S
C2396 C2397 1.377 . S
C2396 C2398 1.384 . S
C2397 C2396 1.377 . S
C2397 C2403 1.390 . S
C2398 H2389 0.930 . S
C2398 C2396 1.384 . S
C2398 C2399 1.372 . S
C2399 C2398 1.372 . S
C2399 C2400 1.400 . S
C2399 C2404 1.490 . S
C2400 H2390 0.930 . S
C2400 C2399 1.400 . S
C2400 C2403 1.386 . S
H2401 C2417 0.930 . S
H2402 C2418 0.931 . S
C2403 H2391 0.929 . S
C2403 C2397 1.390 . S
C2403 C2400 1.386 . S
C2404 C2399 1.490 . S
C2404 C2406 1.395 . S
C2404 C2407 1.403 . S
H2405 C2411 0.930 . S
C2406 H2392 0.930 . S
C2406 C2404 1.395 . S
C2406 C2409 1.403 . S
C2407 C2404 1.403 . S
C2407 C2408 1.524 . S
C2407 C2411 1.400 . S
C2408 H2393 0.960 . S
C2408 H2394 0.960 . S
C2408 H2395 0.960 . S
C2408 C2407 1.524 . S
C2409 C2406 1.403 . S
C2409 C2410 1.392 . S
C2409 C2413 1.495 . S
C2410 C2409 1.392 . S
C2410 C2411 1.385 . S
C2410 C2412 1.478 . S
C2411 H2405 0.930 . S
C2411 C2407 1.400 . S
C2411 C2410 1.385 . S
C2412 C2410 1.478 . S
C2412 C2414 1.381 . S
C2412 C2418 1.383 . S
C2413 C2409 1.495 . S
C2413 H2419 0.959 . S
C2413 H2420 0.961 . S
C2413 H2421 0.960 . S
C2414 C2412 1.381 . S
C2414 C2415 1.394 . S
C2414 H2422 0.930 . S
C2415 C2414 1.394 . S
C2415 C2416 1.383 . S
C2415 H2423 0.929 . S
C2416 C2415 1.383 . S
C2416 C2417 1.377 . S
C2417 H2401 0.930 . S
C2417 C2416 1.377 . S
C2417 C2418 1.379 . S
C2418 H2402 0.931 . S
C2418 C2412 1.383 . S
C2418 C2417 1.379 . S
H2419 C2413 0.959 . S
H2420 C2413 0.961 . S
H2421 C2413 0.960 . S
H2422 C2414 0.930 . S
H2423 C2415 0.929 . S
H2424 C2432 0.929 . S
H2425 C2434 0.930 . S
H2426 C2436 0.930 . S
H2427 C2439 0.929 . S
H2428 C2442 0.930 . S
H2429 C2444 0.960 . S
H2430 C2444 0.960 . S
H2431 C2444 0.960 . S
C2432 H2424 0.929 . S
C2432 C2433 1.377 . S
C2432 C2434 1.384 . S
C2433 C2432 1.377 . S
C2433 C2439 1.390 . S
C2434 H2425 0.930 . S
C2434 C2432 1.384 . S
C2434 C2435 1.372 . S
C2435 C2434 1.372 . S
C2435 C2436 1.400 . S
C2435 C2440 1.490 . S
C2436 H2426 0.930 . S
C2436 C2435 1.400 . S
C2436 C2439 1.386 . S
H2437 C2453 0.930 . S
H2438 C2454 0.931 . S
C2439 H2427 0.929 . S
C2439 C2433 1.390 . S
C2439 C2436 1.386 . S
C2440 C2435 1.490 . S
C2440 C2442 1.395 . S
C2440 C2443 1.403 . S
H2441 C2447 0.930 . S
C2442 H2428 0.930 . S
C2442 C2440 1.395 . S
C2442 C2445 1.403 . S
C2443 C2440 1.403 . S
C2443 C2444 1.524 . S
C2443 C2447 1.400 . S
C2444 H2429 0.960 . S
C2444 H2430 0.960 . S
C2444 H2431 0.960 . S
C2444 C2443 1.524 . S
C2445 C2442 1.403 . S
C2445 C2446 1.392 . S
C2445 C2449 1.495 . S
C2446 C2445 1.392 . S
C2446 C2447 1.385 . S
C2446 C2448 1.478 . S
C2447 H2441 0.930 . S
C2447 C2443 1.400 . S
C2447 C2446 1.385 . S
C2448 C2446 1.478 . S
C2448 C2450 1.381 . S
C2448 C2454 1.383 . S
C2449 C2445 1.495 . S
C2449 H2455 0.959 . S
C2449 H2456 0.961 . S
C2449 H2457 0.960 . S
C2450 C2448 1.381 . S
C2450 C2451 1.394 . S
C2450 H2458 0.930 . S
C2451 C2450 1.394 . S
C2451 C2452 1.383 . S
C2451 H2459 0.929 . S
C2452 C2451 1.383 . S
C2452 C2453 1.377 . S
C2453 H2437 0.930 . S
C2453 C2452 1.377 . S
C2453 C2454 1.379 . S
C2454 H2438 0.931 . S
C2454 C2448 1.383 . S
C2454 C2453 1.379 . S
H2455 C2449 0.959 . S
H2456 C2449 0.961 . S
H2457 C2449 0.960 . S
H2458 C2450 0.930 . S
H2459 C2451 0.929 . S
H2460 C2468 0.929 . S
H2461 C2470 0.930 . S
H2462 C2472 0.930 . S
H2463 C2475 0.929 . S
H2464 C2478 0.930 . S
H2465 C2480 0.960 . S
H2466 C2480 0.960 . S
H2467 C2480 0.960 . S
C2468 H2460 0.929 . S
C2468 C2469 1.377 . S
C2468 C2470 1.384 . S
C2469 C2468 1.377 . S
C2469 C2475 1.390 . S
C2470 H2461 0.930 . S
C2470 C2468 1.384 . S
C2470 C2471 1.372 . S
C2471 C2470 1.372 . S
C2471 C2472 1.400 . S
C2471 C2476 1.490 . S
C2472 H2462 0.930 . S
C2472 C2471 1.400 . S
C2472 C2475 1.386 . S
H2473 C2489 0.930 . S
H2474 C2490 0.931 . S
C2475 H2463 0.929 . S
C2475 C2469 1.390 . S
C2475 C2472 1.386 . S
C2476 C2471 1.490 . S
C2476 C2478 1.395 . S
C2476 C2479 1.403 . S
H2477 C2483 0.930 . S
C2478 H2464 0.930 . S
C2478 C2476 1.395 . S
C2478 C2481 1.403 . S
C2479 C2476 1.403 . S
C2479 C2480 1.524 . S
C2479 C2483 1.400 . S
C2480 H2465 0.960 . S
C2480 H2466 0.960 . S
C2480 H2467 0.960 . S
C2480 C2479 1.524 . S
C2481 C2478 1.403 . S
C2481 C2482 1.392 . S
C2481 C2485 1.495 . S
C2482 C2481 1.392 . S
C2482 C2483 1.385 . S
C2482 C2484 1.478 . S
C2483 H2477 0.930 . S
C2483 C2479 1.400 . S
C2483 C2482 1.385 . S
C2484 C2482 1.478 . S
C2484 C2486 1.381 . S
C2484 C2490 1.383 . S
C2485 C2481 1.495 . S
C2485 H2491 0.959 . S
C2485 H2492 0.961 . S
C2485 H2493 0.960 . S
C2486 C2484 1.381 . S
C2486 C2487 1.394 . S
C2486 H2494 0.930 . S
C2487 C2486 1.394 . S
C2487 C2488 1.383 . S
C2487 H2495 0.929 . S
C2488 C2487 1.383 . S
C2488 C2489 1.377 . S
C2489 H2473 0.930 . S
C2489 C2488 1.377 . S
C2489 C2490 1.379 . S
C2490 H2474 0.931 . S
C2490 C2484 1.383 . S
C2490 C2489 1.379 . S
H2491 C2485 0.959 . S
H2492 C2485 0.961 . S
H2493 C2485 0.960 . S
H2494 C2486 0.930 . S
H2495 C2487 0.929 . S
H2496 C2504 0.929 . S
H2497 C2506 0.930 . S
H2498 C2508 0.930 . S
H2499 C2511 0.929 . S
H2500 C2514 0.930 . S
H2501 C2516 0.960 . S
H2502 C2516 0.960 . S
H2503 C2516 0.960 . S
C2504 H2496 0.929 . S
C2504 C2505 1.377 . S
C2504 C2506 1.384 . S
C2505 C2504 1.377 . S
C2505 C2511 1.390 . S
C2506 H2497 0.930 . S
C2506 C2504 1.384 . S
C2506 C2507 1.372 . S
C2507 C2506 1.372 . S
C2507 C2508 1.400 . S
C2507 C2512 1.490 . S
C2508 H2498 0.930 . S
C2508 C2507 1.400 . S
C2508 C2511 1.386 . S
H2509 C2525 0.930 . S
H2510 C2526 0.931 . S
C2511 H2499 0.929 . S
C2511 C2505 1.390 . S
C2511 C2508 1.386 . S
C2512 C2507 1.490 . S
C2512 C2514 1.395 . S
C2512 C2515 1.403 . S
H2513 C2519 0.930 . S
C2514 H2500 0.930 . S
C2514 C2512 1.395 . S
C2514 C2517 1.403 . S
C2515 C2512 1.403 . S
C2515 C2516 1.524 . S
C2515 C2519 1.400 . S
C2516 H2501 0.960 . S
C2516 H2502 0.960 . S
C2516 H2503 0.960 . S
C2516 C2515 1.524 . S
C2517 C2514 1.403 . S
C2517 C2518 1.392 . S
C2517 C2521 1.495 . S
C2518 C2517 1.392 . S
C2518 C2519 1.385 . S
C2518 C2520 1.478 . S
C2519 H2513 0.930 . S
C2519 C2515 1.400 . S
C2519 C2518 1.385 . S
C2520 C2518 1.478 . S
C2520 C2522 1.381 . S
C2520 C2526 1.383 . S
C2521 C2517 1.495 . S
C2521 H2527 0.959 . S
C2521 H2528 0.961 . S
C2521 H2529 0.960 . S
C2522 C2520 1.381 . S
C2522 C2523 1.394 . S
C2522 H2530 0.930 . S
C2523 C2522 1.394 . S
C2523 C2524 1.383 . S
C2523 H2531 0.929 . S
C2524 C2523 1.383 . S
C2524 C2525 1.377 . S
C2525 H2509 0.930 . S
C2525 C2524 1.377 . S
C2525 C2526 1.379 . S
C2526 H2510 0.931 . S
C2526 C2520 1.383 . S
C2526 C2525 1.379 . S
H2527 C2521 0.959 . S
H2528 C2521 0.961 . S
H2529 C2521 0.960 . S
H2530 C2522 0.930 . S
H2531 C2523 0.929 . S
H2532 C2540 0.929 . S
H2533 C2542 0.930 . S
H2534 C2544 0.930 . S
H2535 C2547 0.929 . S
H2536 C2550 0.930 . S
H2537 C2552 0.960 . S
H2538 C2552 0.960 . S
H2539 C2552 0.960 . S
C2540 H2532 0.929 . S
C2540 C2541 1.377 . S
C2540 C2542 1.384 . S
C2541 C2540 1.377 . S
C2541 C2547 1.390 . S
C2542 H2533 0.930 . S
C2542 C2540 1.384 . S
C2542 C2543 1.372 . S
C2543 C2542 1.372 . S
C2543 C2544 1.400 . S
C2543 C2548 1.490 . S
C2544 H2534 0.930 . S
C2544 C2543 1.400 . S
C2544 C2547 1.386 . S
H2545 C2561 0.930 . S
H2546 C2562 0.931 . S
C2547 H2535 0.929 . S
C2547 C2541 1.390 . S
C2547 C2544 1.386 . S
C2548 C2543 1.490 . S
C2548 C2550 1.395 . S
C2548 C2551 1.403 . S
H2549 C2555 0.930 . S
C2550 H2536 0.930 . S
C2550 C2548 1.395 . S
C2550 C2553 1.403 . S
C2551 C2548 1.403 . S
C2551 C2552 1.524 . S
C2551 C2555 1.400 . S
C2552 H2537 0.960 . S
C2552 H2538 0.960 . S
C2552 H2539 0.960 . S
C2552 C2551 1.524 . S
C2553 C2550 1.403 . S
C2553 C2554 1.392 . S
C2553 C2557 1.495 . S
C2554 C2553 1.392 . S
C2554 C2555 1.385 . S
C2554 C2556 1.478 . S
C2555 H2549 0.930 . S
C2555 C2551 1.400 . S
C2555 C2554 1.385 . S
C2556 C2554 1.478 . S
C2556 C2558 1.381 . S
C2556 C2562 1.383 . S
C2557 C2553 1.495 . S
C2557 H2563 0.959 . S
C2557 H2564 0.961 . S
C2557 H2565 0.960 . S
C2558 C2556 1.381 . S
C2558 C2559 1.394 . S
C2558 H2566 0.930 . S
C2559 C2558 1.394 . S
C2559 C2560 1.383 . S
C2559 H2567 0.929 . S
C2560 C2559 1.383 . S
C2560 C2561 1.377 . S
C2561 H2545 0.930 . S
C2561 C2560 1.377 . S
C2561 C2562 1.379 . S
C2562 H2546 0.931 . S
C2562 C2556 1.383 . S
C2562 C2561 1.379 . S
H2563 C2557 0.959 . S
H2564 C2557 0.961 . S
H2565 C2557 0.960 . S
H2566 C2558 0.930 . S
H2567 C2559 0.929 . S
H2568 C2576 0.929 . S
H2569 C2578 0.930 . S
H2570 C2580 0.930 . S
H2571 C2583 0.929 . S
H2572 C2586 0.930 . S
H2573 C2588 0.960 . S
H2574 C2588 0.960 . S
H2575 C2588 0.960 . S
C2576 H2568 0.929 . S
C2576 C2577 1.377 . S
C2576 C2578 1.384 . S
C2577 C2576 1.377 . S
C2577 C2583 1.390 . S
C2578 H2569 0.930 . S
C2578 C2576 1.384 . S
C2578 C2579 1.372 . S
C2579 C2578 1.372 . S
C2579 C2580 1.400 . S
C2579 C2584 1.490 . S
C2580 H2570 0.930 . S
C2580 C2579 1.400 . S
C2580 C2583 1.386 . S
H2581 C2597 0.930 . S
H2582 C2598 0.931 . S
C2583 H2571 0.929 . S
C2583 C2577 1.390 . S
C2583 C2580 1.386 . S
C2584 C2579 1.490 . S
C2584 C2586 1.395 . S
C2584 C2587 1.403 . S
H2585 C2591 0.930 . S
C2586 H2572 0.930 . S
C2586 C2584 1.395 . S
C2586 C2589 1.403 . S
C2587 C2584 1.403 . S
C2587 C2588 1.524 . S
C2587 C2591 1.400 . S
C2588 H2573 0.960 . S
C2588 H2574 0.960 . S
C2588 H2575 0.960 . S
C2588 C2587 1.524 . S
C2589 C2586 1.403 . S
C2589 C2590 1.392 . S
C2589 C2593 1.495 . S
C2590 C2589 1.392 . S
C2590 C2591 1.385 . S
C2590 C2592 1.478 . S
C2591 H2585 0.930 . S
C2591 C2587 1.400 . S
C2591 C2590 1.385 . S
C2592 C2590 1.478 . S
C2592 C2594 1.381 . S
C2592 C2598 1.383 . S
C2593 C2589 1.495 . S
C2593 H2599 0.959 . S
C2593 H2600 0.961 . S
C2593 H2601 0.960 . S
C2594 C2592 1.381 . S
C2594 C2595 1.394 . S
C2594 H2602 0.930 . S
C2595 C2594 1.394 . S
C2595 C2596 1.383 . S
C2595 H2603 0.929 . S
C2596 C2595 1.383 . S
C2596 C2597 1.377 . S
C2597 H2581 0.930 . S
C2597 C2596 1.377 . S
C2597 C2598 1.379 . S
C2598 H2582 0.931 . S
C2598 C2592 1.383 . S
C2598 C2597 1.379 . S
H2599 C2593 0.959 . S
H2600 C2593 0.961 . S
H2601 C2593 0.960 . S
H2602 C2594 0.930 . S
H2603 C2595 0.929 . S
H2604 C2612 0.929 . S
H2605 C2614 0.930 . S
H2606 C2616 0.930 . S
H2607 C2619 0.929 . S
H2608 C2622 0.930 . S
H2609 C2624 0.960 . S
H2610 C2624 0.960 . S
H2611 C2624 0.960 . S
C2612 H2604 0.929 . S
C2612 C2613 1.377 . S
C2612 C2614 1.384 . S
C2613 C2612 1.377 . S
C2613 C2619 1.390 . S
C2614 H2605 0.930 . S
C2614 C2612 1.384 . S
C2614 C2615 1.372 . S
C2615 C2614 1.372 . S
C2615 C2616 1.400 . S
C2615 C2620 1.490 . S
C2616 H2606 0.930 . S
C2616 C2615 1.400 . S
C2616 C2619 1.386 . S
H2617 C2633 0.930 . S
H2618 C2634 0.931 . S
C2619 H2607 0.929 . S
C2619 C2613 1.390 . S
C2619 C2616 1.386 . S
C2620 C2615 1.490 . S
C2620 C2622 1.395 . S
C2620 C2623 1.403 . S
H2621 C2627 0.930 . S
C2622 H2608 0.930 . S
C2622 C2620 1.395 . S
C2622 C2625 1.403 . S
C2623 C2620 1.403 . S
C2623 C2624 1.524 . S
C2623 C2627 1.400 . S
C2624 H2609 0.960 . S
C2624 H2610 0.960 . S
C2624 H2611 0.960 . S
C2624 C2623 1.524 . S
C2625 C2622 1.403 . S
C2625 C2626 1.392 . S
C2625 C2629 1.495 . S
C2626 C2625 1.392 . S
C2626 C2627 1.385 . S
C2626 C2628 1.478 . S
C2627 H2621 0.930 . S
C2627 C2623 1.400 . S
C2627 C2626 1.385 . S
C2628 C2626 1.478 . S
C2628 C2630 1.381 . S
C2628 C2634 1.383 . S
C2629 C2625 1.495 . S
C2629 H2635 0.959 . S
C2629 H2636 0.961 . S
C2629 H2637 0.960 . S
C2630 C2628 1.381 . S
C2630 C2631 1.394 . S
C2630 H2638 0.930 . S
C2631 C2630 1.394 . S
C2631 C2632 1.383 . S
C2631 H2639 0.929 . S
C2632 C2631 1.383 . S
C2632 C2633 1.377 . S
C2633 H2617 0.930 . S
C2633 C2632 1.377 . S
C2633 C2634 1.379 . S
C2634 H2618 0.931 . S
C2634 C2628 1.383 . S
C2634 C2633 1.379 . S
H2635 C2629 0.959 . S
H2636 C2629 0.961 . S
H2637 C2629 0.960 . S
H2638 C2630 0.930 . S
H2639 C2631 0.929 . S
H2640 C2648 0.929 . S
H2641 C2650 0.930 . S
H2642 C2652 0.930 . S
H2643 C2655 0.929 . S
H2644 C2658 0.930 . S
H2645 C2660 0.960 . S
H2646 C2660 0.960 . S
H2647 C2660 0.960 . S
C2648 H2640 0.929 . S
C2648 C2649 1.377 . S
C2648 C2650 1.384 . S
C2649 C2648 1.377 . S
C2649 C2655 1.390 . S
C2650 H2641 0.930 . S
C2650 C2648 1.384 . S
C2650 C2651 1.372 . S
C2651 C2650 1.372 . S
C2651 C2652 1.400 . S
C2651 C2656 1.490 . S
C2652 H2642 0.930 . S
C2652 C2651 1.400 . S
C2652 C2655 1.386 . S
H2653 C2669 0.930 . S
H2654 C2670 0.931 . S
C2655 H2643 0.929 . S
C2655 C2649 1.390 . S
C2655 C2652 1.386 . S
C2656 C2651 1.490 . S
C2656 C2658 1.395 . S
C2656 C2659 1.403 . S
H2657 C2663 0.930 . S
C2658 H2644 0.930 . S
C2658 C2656 1.395 . S
C2658 C2661 1.403 . S
C2659 C2656 1.403 . S
C2659 C2660 1.524 . S
C2659 C2663 1.400 . S
C2660 H2645 0.960 . S
C2660 H2646 0.960 . S
C2660 H2647 0.960 . S
C2660 C2659 1.524 . S
C2661 C2658 1.403 . S
C2661 C2662 1.392 . S
C2661 C2665 1.495 . S
C2662 C2661 1.392 . S
C2662 C2663 1.385 . S
C2662 C2664 1.478 . S
C2663 H2657 0.930 . S
C2663 C2659 1.400 . S
C2663 C2662 1.385 . S
C2664 C2662 1.478 . S
C2664 C2666 1.381 . S
C2664 C2670 1.383 . S
C2665 C2661 1.495 . S
C2665 H2671 0.959 . S
C2665 H2672 0.961 . S
C2665 H2673 0.960 . S
C2666 C2664 1.381 . S
C2666 C2667 1.394 . S
C2666 H2674 0.930 . S
C2667 C2666 1.394 . S
C2667 C2668 1.383 . S
C2667 H2675 0.929 . S
C2668 C2667 1.383 . S
C2668 C2669 1.377 . S
C2669 H2653 0.930 . S
C2669 C2668 1.377 . S
C2669 C2670 1.379 . S
C2670 H2654 0.931 . S
C2670 C2664 1.383 . S
C2670 C2669 1.379 . S
H2671 C2665 0.959 . S
H2672 C2665 0.961 . S
H2673 C2665 0.960 . S
H2674 C2666 0.930 . S
H2675 C2667 0.929 . S
H2676 C2684 0.929 . S
H2677 C2686 0.930 . S
H2678 C2688 0.930 . S
H2679 C2691 0.929 . S
H2680 C2694 0.930 . S
H2681 C2696 0.960 . S
H2682 C2696 0.960 . S
H2683 C2696 0.960 . S
C2684 H2676 0.929 . S
C2684 C2685 1.377 . S
C2684 C2686 1.384 . S
C2685 C2684 1.377 . S
C2685 C2691 1.390 . S
C2686 H2677 0.930 . S
C2686 C2684 1.384 . S
C2686 C2687 1.372 . S
C2687 C2686 1.372 . S
C2687 C2688 1.400 . S
C2687 C2692 1.490 . S
C2688 H2678 0.930 . S
C2688 C2687 1.400 . S
C2688 C2691 1.386 . S
H2689 C2705 0.930 . S
H2690 C2706 0.931 . S
C2691 H2679 0.929 . S
C2691 C2685 1.390 . S
C2691 C2688 1.386 . S
C2692 C2687 1.490 . S
C2692 C2694 1.395 . S
C2692 C2695 1.403 . S
H2693 C2699 0.930 . S
C2694 H2680 0.930 . S
C2694 C2692 1.395 . S
C2694 C2697 1.403 . S
C2695 C2692 1.403 . S
C2695 C2696 1.524 . S
C2695 C2699 1.400 . S
C2696 H2681 0.960 . S
C2696 H2682 0.960 . S
C2696 H2683 0.960 . S
C2696 C2695 1.524 . S
C2697 C2694 1.403 . S
C2697 C2698 1.392 . S
C2697 C2701 1.495 . S
C2698 C2697 1.392 . S
C2698 C2699 1.385 . S
C2698 C2700 1.478 . S
C2699 H2693 0.930 . S
C2699 C2695 1.400 . S
C2699 C2698 1.385 . S
C2700 C2698 1.478 . S
C2700 C2702 1.381 . S
C2700 C2706 1.383 . S
C2701 C2697 1.495 . S
C2701 H2707 0.959 . S
C2701 H2708 0.961 . S
C2701 H2709 0.960 . S
C2702 C2700 1.381 . S
C2702 C2703 1.394 . S
C2702 H2710 0.930 . S
C2703 C2702 1.394 . S
C2703 C2704 1.383 . S
C2703 H2711 0.929 . S
C2704 C2703 1.383 . S
C2704 C2705 1.377 . S
C2705 H2689 0.930 . S
C2705 C2704 1.377 . S
C2705 C2706 1.379 . S
C2706 H2690 0.931 . S
C2706 C2700 1.383 . S
C2706 C2705 1.379 . S
H2707 C2701 0.959 . S
H2708 C2701 0.961 . S
H2709 C2701 0.960 . S
H2710 C2702 0.930 . S
H2711 C2703 0.929 . S
H2712 C2720 0.929 . S
H2713 C2722 0.930 . S
H2714 C2724 0.930 . S
H2715 C2727 0.929 . S
H2716 C2730 0.930 . S
H2717 C2732 0.960 . S
H2718 C2732 0.960 . S
H2719 C2732 0.960 . S
C2720 H2712 0.929 . S
C2720 C2721 1.377 . S
C2720 C2722 1.384 . S
C2721 C2720 1.377 . S
C2721 C2727 1.390 . S
C2722 H2713 0.930 . S
C2722 C2720 1.384 . S
C2722 C2723 1.372 . S
C2723 C2722 1.372 . S
C2723 C2724 1.400 . S
C2723 C2728 1.490 . S
C2724 H2714 0.930 . S
C2724 C2723 1.400 . S
C2724 C2727 1.386 . S
H2725 C2741 0.930 . S
H2726 C2742 0.931 . S
C2727 H2715 0.929 . S
C2727 C2721 1.390 . S
C2727 C2724 1.386 . S
C2728 C2723 1.490 . S
C2728 C2730 1.395 . S
C2728 C2731 1.403 . S
H2729 C2735 0.930 . S
C2730 H2716 0.930 . S
C2730 C2728 1.395 . S
C2730 C2733 1.403 . S
C2731 C2728 1.403 . S
C2731 C2732 1.524 . S
C2731 C2735 1.400 . S
C2732 H2717 0.960 . S
C2732 H2718 0.960 . S
C2732 H2719 0.960 . S
C2732 C2731 1.524 . S
C2733 C2730 1.403 . S
C2733 C2734 1.392 . S
C2733 C2737 1.495 . S
C2734 C2733 1.392 . S
C2734 C2735 1.385 . S
C2734 C2736 1.478 . S
C2735 H2729 0.930 . S
C2735 C2731 1.400 . S
C2735 C2734 1.385 . S
C2736 C2734 1.478 . S
C2736 C2738 1.381 . S
C2736 C2742 1.383 . S
C2737 C2733 1.495 . S
C2737 H2743 0.959 . S
C2737 H2744 0.961 . S
C2737 H2745 0.960 . S
C2738 C2736 1.381 . S
C2738 C2739 1.394 . S
C2738 H2746 0.930 . S
C2739 C2738 1.394 . S
C2739 C2740 1.383 . S
C2739 H2747 0.929 . S
C2740 C2739 1.383 . S
C2740 C2741 1.377 . S
C2741 H2725 0.930 . S
C2741 C2740 1.377 . S
C2741 C2742 1.379 . S
C2742 H2726 0.931 . S
C2742 C2736 1.383 . S
C2742 C2741 1.379 . S
H2743 C2737 0.959 . S
H2744 C2737 0.961 . S
H2745 C2737 0.960 . S
H2746 C2738 0.930 . S
H2747 C2739 0.929 . S
H2748 C2756 0.929 . S
H2749 C2758 0.930 . S
H2750 C2760 0.930 . S
H2751 C2763 0.929 . S
H2752 C2766 0.930 . S
H2753 C2768 0.960 . S
H2754 C2768 0.960 . S
H2755 C2768 0.960 . S
C2756 H2748 0.929 . S
C2756 C2757 1.377 . S
C2756 C2758 1.384 . S
C2757 C2756 1.377 . S
C2757 C2763 1.390 . S
C2758 H2749 0.930 . S
C2758 C2756 1.384 . S
C2758 C2759 1.372 . S
C2759 C2758 1.372 . S
C2759 C2760 1.400 . S
C2759 C2764 1.490 . S
C2760 H2750 0.930 . S
C2760 C2759 1.400 . S
C2760 C2763 1.386 . S
H2761 C2777 0.930 . S
H2762 C2778 0.931 . S
C2763 H2751 0.929 . S
C2763 C2757 1.390 . S
C2763 C2760 1.386 . S
C2764 C2759 1.490 . S
C2764 C2766 1.395 . S
C2764 C2767 1.403 . S
H2765 C2771 0.930 . S
C2766 H2752 0.930 . S
C2766 C2764 1.395 . S
C2766 C2769 1.403 . S
C2767 C2764 1.403 . S
C2767 C2768 1.524 . S
C2767 C2771 1.400 . S
C2768 H2753 0.960 . S
C2768 H2754 0.960 . S
C2768 H2755 0.960 . S
C2768 C2767 1.524 . S
C2769 C2766 1.403 . S
C2769 C2770 1.392 . S
C2769 C2773 1.495 . S
C2770 C2769 1.392 . S
C2770 C2771 1.385 . S
C2770 C2772 1.478 . S
C2771 H2765 0.930 . S
C2771 C2767 1.400 . S
C2771 C2770 1.385 . S
C2772 C2770 1.478 . S
C2772 C2774 1.381 . S
C2772 C2778 1.383 . S
C2773 C2769 1.495 . S
C2773 H2779 0.959 . S
C2773 H2780 0.961 . S
C2773 H2781 0.960 . S
C2774 C2772 1.381 . S
C2774 C2775 1.394 . S
C2774 H2782 0.930 . S
C2775 C2774 1.394 . S
C2775 C2776 1.383 . S
C2775 H2783 0.929 . S
C2776 C2775 1.383 . S
C2776 C2777 1.377 . S
C2777 H2761 0.930 . S
C2777 C2776 1.377 . S
C2777 C2778 1.379 . S
C2778 H2762 0.931 . S
C2778 C2772 1.383 . S
C2778 C2777 1.379 . S
H2779 C2773 0.959 . S
H2780 C2773 0.961 . S
H2781 C2773 0.960 . S
H2782 C2774 0.930 . S
H2783 C2775 0.929 . S
H2784 C2792 0.929 . S
H2785 C2794 0.930 . S
H2786 C2796 0.930 . S
H2787 C2799 0.929 . S
H2788 C2802 0.930 . S
H2789 C2804 0.960 . S
H2790 C2804 0.960 . S
H2791 C2804 0.960 . S
C2792 H2784 0.929 . S
C2792 C2793 1.377 . S
C2792 C2794 1.384 . S
C2793 C2792 1.377 . S
C2793 C2799 1.390 . S
C2794 H2785 0.930 . S
C2794 C2792 1.384 . S
C2794 C2795 1.372 . S
C2795 C2794 1.372 . S
C2795 C2796 1.400 . S
C2795 C2800 1.490 . S
C2796 H2786 0.930 . S
C2796 C2795 1.400 . S
C2796 C2799 1.386 . S
H2797 C2813 0.930 . S
H2798 C2814 0.931 . S
C2799 H2787 0.929 . S
C2799 C2793 1.390 . S
C2799 C2796 1.386 . S
C2800 C2795 1.490 . S
C2800 C2802 1.395 . S
C2800 C2803 1.403 . S
H2801 C2807 0.930 . S
C2802 H2788 0.930 . S
C2802 C2800 1.395 . S
C2802 C2805 1.403 . S
C2803 C2800 1.403 . S
C2803 C2804 1.524 . S
C2803 C2807 1.400 . S
C2804 H2789 0.960 . S
C2804 H2790 0.960 . S
C2804 H2791 0.960 . S
C2804 C2803 1.524 . S
C2805 C2802 1.403 . S
C2805 C2806 1.392 . S
C2805 C2809 1.495 . S
C2806 C2805 1.392 . S
C2806 C2807 1.385 . S
C2806 C2808 1.478 . S
C2807 H2801 0.930 . S
C2807 C2803 1.400 . S
C2807 C2806 1.385 . S
C2808 C2806 1.478 . S
C2808 C2810 1.381 . S
C2808 C2814 1.383 . S
C2809 C2805 1.495 . S
C2809 H2815 0.959 . S
C2809 H2816 0.961 . S
C2809 H2817 0.960 . S
C2810 C2808 1.381 . S
C2810 C2811 1.394 . S
C2810 H2818 0.930 . S
C2811 C2810 1.394 . S
C2811 C2812 1.383 . S
C2811 H2819 0.929 . S
C2812 C2811 1.383 . S
C2812 C2813 1.377 . S
C2813 H2797 0.930 . S
C2813 C2812 1.377 . S
C2813 C2814 1.379 . S
C2814 H2798 0.931 . S
C2814 C2808 1.383 . S
C2814 C2813 1.379 . S
H2815 C2809 0.959 . S
H2816 C2809 0.961 . S
H2817 C2809 0.960 . S
H2818 C2810 0.930 . S
H2819 C2811 0.929 . S
H2820 C2828 0.929 . S
H2821 C2830 0.930 . S
H2822 C2832 0.930 . S
H2823 C2835 0.929 . S
H2824 C2838 0.930 . S
H2825 C2840 0.960 . S
H2826 C2840 0.960 . S
H2827 C2840 0.960 . S
C2828 H2820 0.929 . S
C2828 C2829 1.377 . S
C2828 C2830 1.384 . S
C2829 C2828 1.377 . S
C2829 C2835 1.390 . S
C2830 H2821 0.930 . S
C2830 C2828 1.384 . S
C2830 C2831 1.372 . S
C2831 C2830 1.372 . S
C2831 C2832 1.400 . S
C2831 C2836 1.490 . S
C2832 H2822 0.930 . S
C2832 C2831 1.400 . S
C2832 C2835 1.386 . S
H2833 C2849 0.930 . S
H2834 C2850 0.931 . S
C2835 H2823 0.929 . S
C2835 C2829 1.390 . S
C2835 C2832 1.386 . S
C2836 C2831 1.490 . S
C2836 C2838 1.395 . S
C2836 C2839 1.403 . S
H2837 C2843 0.930 . S
C2838 H2824 0.930 . S
C2838 C2836 1.395 . S
C2838 C2841 1.403 . S
C2839 C2836 1.403 . S
C2839 C2840 1.524 . S
C2839 C2843 1.400 . S
C2840 H2825 0.960 . S
C2840 H2826 0.960 . S
C2840 H2827 0.960 . S
C2840 C2839 1.524 . S
C2841 C2838 1.403 . S
C2841 C2842 1.392 . S
C2841 C2845 1.495 . S
C2842 C2841 1.392 . S
C2842 C2843 1.385 . S
C2842 C2844 1.478 . S
C2843 H2837 0.930 . S
C2843 C2839 1.400 . S
C2843 C2842 1.385 . S
C2844 C2842 1.478 . S
C2844 C2846 1.381 . S
C2844 C2850 1.383 . S
C2845 C2841 1.495 . S
C2845 H2851 0.959 . S
C2845 H2852 0.961 . S
C2845 H2853 0.960 . S
C2846 C2844 1.381 . S
C2846 C2847 1.394 . S
C2846 H2854 0.930 . S
C2847 C2846 1.394 . S
C2847 C2848 1.383 . S
C2847 H2855 0.929 . S
C2848 C2847 1.383 . S
C2848 C2849 1.377 . S
C2849 H2833 0.930 . S
C2849 C2848 1.377 . S
C2849 C2850 1.379 . S
C2850 H2834 0.931 . S
C2850 C2844 1.383 . S
C2850 C2849 1.379 . S
H2851 C2845 0.959 . S
H2852 C2845 0.961 . S
H2853 C2845 0.960 . S
H2854 C2846 0.930 . S
H2855 C2847 0.929 . S
H2856 C2864 0.929 . S
H2857 C2866 0.930 . S
H2858 C2868 0.930 . S
H2859 C2871 0.929 . S
H2860 C2874 0.930 . S
H2861 C2876 0.960 . S
H2862 C2876 0.960 . S
H2863 C2876 0.960 . S
C2864 H2856 0.929 . S
C2864 C2865 1.377 . S
C2864 C2866 1.384 . S
C2865 C2864 1.377 . S
C2865 C2871 1.390 . S
C2866 H2857 0.930 . S
C2866 C2864 1.384 . S
C2866 C2867 1.372 . S
C2867 C2866 1.372 . S
C2867 C2868 1.400 . S
C2867 C2872 1.490 . S
C2868 H2858 0.930 . S
C2868 C2867 1.400 . S
C2868 C2871 1.386 . S
H2869 C2885 0.930 . S
H2870 C2886 0.931 . S
C2871 H2859 0.929 . S
C2871 C2865 1.390 . S
C2871 C2868 1.386 . S
C2872 C2867 1.490 . S
C2872 C2874 1.395 . S
C2872 C2875 1.403 . S
H2873 C2879 0.930 . S
C2874 H2860 0.930 . S
C2874 C2872 1.395 . S
C2874 C2877 1.403 . S
C2875 C2872 1.403 . S
C2875 C2876 1.524 . S
C2875 C2879 1.400 . S
C2876 H2861 0.960 . S
C2876 H2862 0.960 . S
C2876 H2863 0.960 . S
C2876 C2875 1.524 . S
C2877 C2874 1.403 . S
C2877 C2878 1.392 . S
C2877 C2881 1.495 . S
C2878 C2877 1.392 . S
C2878 C2879 1.385 . S
C2878 C2880 1.478 . S
C2879 H2873 0.930 . S
C2879 C2875 1.400 . S
C2879 C2878 1.385 . S
C2880 C2878 1.478 . S
C2880 C2882 1.381 . S
C2880 C2886 1.383 . S
C2881 C2877 1.495 . S
C2881 H2887 0.959 . S
C2881 H2888 0.961 . S
C2881 H2889 0.960 . S
C2882 C2880 1.381 . S
C2882 C2883 1.394 . S
C2882 H2890 0.930 . S
C2883 C2882 1.394 . S
C2883 C2884 1.383 . S
C2883 H2891 0.929 . S
C2884 C2883 1.383 . S
C2884 C2885 1.377 . S
C2885 H2869 0.930 . S
C2885 C2884 1.377 . S
C2885 C2886 1.379 . S
C2886 H2870 0.931 . S
C2886 C2880 1.383 . S
C2886 C2885 1.379 . S
H2887 C2881 0.959 . S
H2888 C2881 0.961 . S
H2889 C2881 0.960 . S
H2890 C2882 0.930 . S
H2891 C2883 0.929 . S
H2892 C2900 0.929 . S
H2893 C2902 0.930 . S
H2894 C2904 0.930 . S
H2895 C2907 0.929 . S
H2896 C2910 0.930 . S
H2897 C2912 0.960 . S
H2898 C2912 0.960 . S
H2899 C2912 0.960 . S
C2900 H2892 0.929 . S
C2900 C2901 1.377 . S
C2900 C2902 1.384 . S
C2901 C2900 1.377 . S
C2901 C2907 1.390 . S
C2902 H2893 0.930 . S
C2902 C2900 1.384 . S
C2902 C2903 1.372 . S
C2903 C2902 1.372 . S
C2903 C2904 1.400 . S
C2903 C2908 1.490 . S
C2904 H2894 0.930 . S
C2904 C2903 1.400 . S
C2904 C2907 1.386 . S
H2905 C2921 0.930 . S
H2906 C2922 0.931 . S
C2907 H2895 0.929 . S
C2907 C2901 1.390 . S
C2907 C2904 1.386 . S
C2908 C2903 1.490 . S
C2908 C2910 1.395 . S
C2908 C2911 1.403 . S
H2909 C2915 0.930 . S
C2910 H2896 0.930 . S
C2910 C2908 1.395 . S
C2910 C2913 1.403 . S
C2911 C2908 1.403 . S
C2911 C2912 1.524 . S
C2911 C2915 1.400 . S
C2912 H2897 0.960 . S
C2912 H2898 0.960 . S
C2912 H2899 0.960 . S
C2912 C2911 1.524 . S
C2913 C2910 1.403 . S
C2913 C2914 1.392 . S
C2913 C2917 1.495 . S
C2914 C2913 1.392 . S
C2914 C2915 1.385 . S
C2914 C2916 1.478 . S
C2915 H2909 0.930 . S
C2915 C2911 1.400 . S
C2915 C2914 1.385 . S
C2916 C2914 1.478 . S
C2916 C2918 1.381 . S
C2916 C2922 1.383 . S
C2917 C2913 1.495 . S
C2917 H2923 0.959 . S
C2917 H2924 0.961 . S
C2917 H2925 0.960 . S
C2918 C2916 1.381 . S
C2918 C2919 1.394 . S
C2918 H2926 0.930 . S
C2919 C2918 1.394 . S
C2919 C2920 1.383 . S
C2919 H2927 0.929 . S
C2920 C2919 1.383 . S
C2920 C2921 1.377 . S
C2921 H2905 0.930 . S
C2921 C2920 1.377 . S
C2921 C2922 1.379 . S
C2922 H2906 0.931 . S
C2922 C2916 1.383 . S
C2922 C2921 1.379 . S
H2923 C2917 0.959 . S
H2924 C2917 0.961 . S
H2925 C2917 0.960 . S
H2926 C2918 0.930 . S
H2927 C2919 0.929 . S
H2928 C2936 0.929 . S
H2929 C2938 0.930 . S
H2930 C2940 0.930 . S
H2931 C2943 0.929 . S
H2932 C2946 0.930 . S
H2933 C2948 0.960 . S
H2934 C2948 0.960 . S
H2935 C2948 0.960 . S
C2936 H2928 0.929 . S
C2936 C2937 1.377 . S
C2936 C2938 1.384 . S
C2937 C2936 1.377 . S
C2937 C2943 1.390 . S
C2938 H2929 0.930 . S
C2938 C2936 1.384 . S
C2938 C2939 1.372 . S
C2939 C2938 1.372 . S
C2939 C2940 1.400 . S
C2939 C2944 1.490 . S
C2940 H2930 0.930 . S
C2940 C2939 1.400 . S
C2940 C2943 1.386 . S
H2941 C2957 0.930 . S
H2942 C2958 0.931 . S
C2943 H2931 0.929 . S
C2943 C2937 1.390 . S
C2943 C2940 1.386 . S
C2944 C2939 1.490 . S
C2944 C2946 1.395 . S
C2944 C2947 1.403 . S
H2945 C2951 0.930 . S
C2946 H2932 0.930 . S
C2946 C2944 1.395 . S
C2946 C2949 1.403 . S
C2947 C2944 1.403 . S
C2947 C2948 1.524 . S
C2947 C2951 1.400 . S
C2948 H2933 0.960 . S
C2948 H2934 0.960 . S
C2948 H2935 0.960 . S
C2948 C2947 1.524 . S
C2949 C2946 1.403 . S
C2949 C2950 1.392 . S
C2949 C2953 1.495 . S
C2950 C2949 1.392 . S
C2950 C2951 1.385 . S
C2950 C2952 1.478 . S
C2951 H2945 0.930 . S
C2951 C2947 1.400 . S
C2951 C2950 1.385 . S
C2952 C2950 1.478 . S
C2952 C2954 1.381 . S
C2952 C2958 1.383 . S
C2953 C2949 1.495 . S
C2953 H2959 0.959 . S
C2953 H2960 0.961 . S
C2953 H2961 0.960 . S
C2954 C2952 1.381 . S
C2954 C2955 1.394 . S
C2954 H2962 0.930 . S
C2955 C2954 1.394 . S
C2955 C2956 1.383 . S
C2955 H2963 0.929 . S
C2956 C2955 1.383 . S
C2956 C2957 1.377 . S
C2957 H2941 0.930 . S
C2957 C2956 1.377 . S
C2957 C2958 1.379 . S
C2958 H2942 0.931 . S
C2958 C2952 1.383 . S
C2958 C2957 1.379 . S
H2959 C2953 0.959 . S
H2960 C2953 0.961 . S
H2961 C2953 0.960 . S
H2962 C2954 0.930 . S
H2963 C2955 0.929 . S
H2964 C2972 0.929 . S
H2965 C2974 0.930 . S
H2966 C2976 0.930 . S
H2967 C2979 0.929 . S
H2968 C2982 0.930 . S
H2969 C2984 0.960 . S
H2970 C2984 0.960 . S
H2971 C2984 0.960 . S
C2972 H2964 0.929 . S
C2972 C2973 1.377 . S
C2972 C2974 1.384 . S
C2973 C2972 1.377 . S
C2973 C2979 1.390 . S
C2974 H2965 0.930 . S
C2974 C2972 1.384 . S
C2974 C2975 1.372 . S
C2975 C2974 1.372 . S
C2975 C2976 1.400 . S
C2975 C2980 1.490 . S
C2976 H2966 0.930 . S
C2976 C2975 1.400 . S
C2976 C2979 1.386 . S
H2977 C2993 0.930 . S
H2978 C2994 0.931 . S
C2979 H2967 0.929 . S
C2979 C2973 1.390 . S
C2979 C2976 1.386 . S
C2980 C2975 1.490 . S
C2980 C2982 1.395 . S
C2980 C2983 1.403 . S
H2981 C2987 0.930 . S
C2982 H2968 0.930 . S
C2982 C2980 1.395 . S
C2982 C2985 1.403 . S
C2983 C2980 1.403 . S
C2983 C2984 1.524 . S
C2983 C2987 1.400 . S
C2984 H2969 0.960 . S
C2984 H2970 0.960 . S
C2984 H2971 0.960 . S
C2984 C2983 1.524 . S
C2985 C2982 1.403 . S
C2985 C2986 1.392 . S
C2985 C2989 1.495 . S
C2986 C2985 1.392 . S
C2986 C2987 1.385 . S
C2986 C2988 1.478 . S
C2987 H2981 0.930 . S
C2987 C2983 1.400 . S
C2987 C2986 1.385 . S
C2988 C2986 1.478 . S
C2988 C2990 1.381 . S
C2988 C2994 1.383 . S
C2989 C2985 1.495 . S
C2989 H2995 0.959 . S
C2989 H2996 0.961 . S
C2989 H2997 0.960 . S
C2990 C2988 1.381 . S
C2990 C2991 1.394 . S
C2990 H2998 0.930 . S
C2991 C2990 1.394 . S
C2991 C2992 1.383 . S
C2991 H2999 0.929 . S
C2992 C2991 1.383 . S
C2992 C2993 1.377 . S
C2993 H2977 0.930 . S
C2993 C2992 1.377 . S
C2993 C2994 1.379 . S
C2994 H2978 0.931 . S
C2994 C2988 1.383 . S
C2994 C2993 1.379 . S
H2995 C2989 0.959 . S
H2996 C2989 0.961 . S
H2997 C2989 0.960 . S
H2998 C2990 0.930 . S
H2999 C2991 0.929 . S
H3000 C3008 0.929 . S
H3001 C3010 0.930 . S
H3002 C3012 0.930 . S
H3003 C3015 0.929 . S
H3004 C3018 0.930 . S
H3005 C3020 0.960 . S
H3006 C3020 0.960 . S
H3007 C3020 0.960 . S
C3008 H3000 0.929 . S
C3008 C3009 1.377 . S
C3008 C3010 1.384 . S
C3009 C3008 1.377 . S
C3009 C3015 1.390 . S
C3010 H3001 0.930 . S
C3010 C3008 1.384 . S
C3010 C3011 1.372 . S
C3011 C3010 1.372 . S
C3011 C3012 1.400 . S
C3011 C3016 1.490 . S
C3012 H3002 0.930 . S
C3012 C3011 1.400 . S
C3012 C3015 1.386 . S
H3013 C3029 0.930 . S
H3014 C3030 0.931 . S
C3015 H3003 0.929 . S
C3015 C3009 1.390 . S
C3015 C3012 1.386 . S
C3016 C3011 1.490 . S
C3016 C3018 1.395 . S
C3016 C3019 1.403 . S
H3017 C3023 0.930 . S
C3018 H3004 0.930 . S
C3018 C3016 1.395 . S
C3018 C3021 1.403 . S
C3019 C3016 1.403 . S
C3019 C3020 1.524 . S
C3019 C3023 1.400 . S
C3020 H3005 0.960 . S
C3020 H3006 0.960 . S
C3020 H3007 0.960 . S
C3020 C3019 1.524 . S
C3021 C3018 1.403 . S
C3021 C3022 1.392 . S
C3021 C3025 1.495 . S
C3022 C3021 1.392 . S
C3022 C3023 1.385 . S
C3022 C3024 1.478 . S
C3023 H3017 0.930 . S
C3023 C3019 1.400 . S
C3023 C3022 1.385 . S
C3024 C3022 1.478 . S
C3024 C3026 1.381 . S
C3024 C3030 1.383 . S
C3025 C3021 1.495 . S
C3025 H3031 0.959 . S
C3025 H3032 0.961 . S
C3025 H3033 0.960 . S
C3026 C3024 1.381 . S
C3026 C3027 1.394 . S
C3026 H3034 0.930 . S
C3027 C3026 1.394 . S
C3027 C3028 1.383 . S
C3027 H3035 0.929 . S
C3028 C3027 1.383 . S
C3028 C3029 1.377 . S
C3029 H3013 0.930 . S
C3029 C3028 1.377 . S
C3029 C3030 1.379 . S
C3030 H3014 0.931 . S
C3030 C3024 1.383 . S
C3030 C3029 1.379 . S
H3031 C3025 0.959 . S
H3032 C3025 0.961 . S
H3033 C3025 0.960 . S
H3034 C3026 0.930 . S
H3035 C3027 0.929 . S
H3036 C3044 0.929 . S
H3037 C3046 0.930 . S
H3038 C3048 0.930 . S
H3039 C3051 0.929 . S
H3040 C3054 0.930 . S
H3041 C3056 0.960 . S
H3042 C3056 0.960 . S
H3043 C3056 0.960 . S
C3044 H3036 0.929 . S
C3044 C3045 1.377 . S
C3044 C3046 1.384 . S
C3045 C3044 1.377 . S
C3045 C3051 1.390 . S
C3046 H3037 0.930 . S
C3046 C3044 1.384 . S
C3046 C3047 1.372 . S
C3047 C3046 1.372 . S
C3047 C3048 1.400 . S
C3047 C3052 1.490 . S
C3048 H3038 0.930 . S
C3048 C3047 1.400 . S
C3048 C3051 1.386 . S
H3049 C3065 0.930 . S
H3050 C3066 0.931 . S
C3051 H3039 0.929 . S
C3051 C3045 1.390 . S
C3051 C3048 1.386 . S
C3052 C3047 1.490 . S
C3052 C3054 1.395 . S
C3052 C3055 1.403 . S
H3053 C3059 0.930 . S
C3054 H3040 0.930 . S
C3054 C3052 1.395 . S
C3054 C3057 1.403 . S
C3055 C3052 1.403 . S
C3055 C3056 1.524 . S
C3055 C3059 1.400 . S
C3056 H3041 0.960 . S
C3056 H3042 0.960 . S
C3056 H3043 0.960 . S
C3056 C3055 1.524 . S
C3057 C3054 1.403 . S
C3057 C3058 1.392 . S
C3057 C3061 1.495 . S
C3058 C3057 1.392 . S
C3058 C3059 1.385 . S
C3058 C3060 1.478 . S
C3059 H3053 0.930 . S
C3059 C3055 1.400 . S
C3059 C3058 1.385 . S
C3060 C3058 1.478 . S
C3060 C3062 1.381 . S
C3060 C3066 1.383 . S
C3061 C3057 1.495 . S
C3061 H3067 0.959 . S
C3061 H3068 0.961 . S
C3061 H3069 0.960 . S
C3062 C3060 1.381 . S
C3062 C3063 1.394 . S
C3062 H3070 0.930 . S
C3063 C3062 1.394 . S
C3063 C3064 1.383 . S
C3063 H3071 0.929 . S
C3064 C3063 1.383 . S
C3064 C3065 1.377 . S
C3065 H3049 0.930 . S
C3065 C3064 1.377 . S
C3065 C3066 1.379 . S
C3066 H3050 0.931 . S
C3066 C3060 1.383 . S
C3066 C3065 1.379 . S
H3067 C3061 0.959 . S
H3068 C3061 0.961 . S
H3069 C3061 0.960 . S
H3070 C3062 0.930 . S
H3071 C3063 0.929 . S
H3072 C3080 0.929 . S
H3073 C3082 0.930 . S
H3074 C3084 0.930 . S
H3075 C3087 0.929 . S
H3076 C3090 0.930 . S
H3077 C3092 0.960 . S
H3078 C3092 0.960 . S
H3079 C3092 0.960 . S
C3080 H3072 0.929 . S
C3080 C3081 1.377 . S
C3080 C3082 1.384 . S
C3081 C3080 1.377 . S
C3081 C3087 1.390 . S
C3082 H3073 0.930 . S
C3082 C3080 1.384 . S
C3082 C3083 1.372 . S
C3083 C3082 1.372 . S
C3083 C3084 1.400 . S
C3083 C3088 1.490 . S
C3084 H3074 0.930 . S
C3084 C3083 1.400 . S
C3084 C3087 1.386 . S
H3085 C3101 0.930 . S
H3086 C3102 0.931 . S
C3087 H3075 0.929 . S
C3087 C3081 1.390 . S
C3087 C3084 1.386 . S
C3088 C3083 1.490 . S
C3088 C3090 1.395 . S
C3088 C3091 1.403 . S
H3089 C3095 0.930 . S
C3090 H3076 0.930 . S
C3090 C3088 1.395 . S
C3090 C3093 1.403 . S
C3091 C3088 1.403 . S
C3091 C3092 1.524 . S
C3091 C3095 1.400 . S
C3092 H3077 0.960 . S
C3092 H3078 0.960 . S
C3092 H3079 0.960 . S
C3092 C3091 1.524 . S
C3093 C3090 1.403 . S
C3093 C3094 1.392 . S
C3093 C3097 1.495 . S
C3094 C3093 1.392 . S
C3094 C3095 1.385 . S
C3094 C3096 1.478 . S
C3095 H3089 0.930 . S
C3095 C3091 1.400 . S
C3095 C3094 1.385 . S
C3096 C3094 1.478 . S
C3096 C3098 1.381 . S
C3096 C3102 1.383 . S
C3097 C3093 1.495 . S
C3097 H3103 0.959 . S
C3097 H3104 0.961 . S
C3097 H3105 0.960 . S
C3098 C3096 1.381 . S
C3098 C3099 1.394 . S
C3098 H3106 0.930 . S
C3099 C3098 1.394 . S
C3099 C3100 1.383 . S
C3099 H3107 0.929 . S
C3100 C3099 1.383 . S
C3100 C3101 1.377 . S
C3101 H3085 0.930 . S
C3101 C3100 1.377 . S
C3101 C3102 1.379 . S
C3102 H3086 0.931 . S
C3102 C3096 1.383 . S
C3102 C3101 1.379 . S
H3103 C3097 0.959 . S
H3104 C3097 0.961 . S
H3105 C3097 0.960 . S
H3106 C3098 0.930 . S
H3107 C3099 0.929 . S
C544 C222 1.024 . S
C525 C212 1.025 . S
C561 C194 1.030 . S
C580 C220 1.028 . S
C616 C221 1.028 . S
C597 C185 1.029 . S
C633 C203 1.025 . S
C652 C223 1.024 . S
C688 C267 1.028 . S
C669 C149 1.029 . S
C724 C327 1.028 . S
C705 C158 1.028 . S
C741 C167 1.025 . S
C760 C266 1.024 . S
C796 C326 1.032 . S
C777 C176 1.032 . S
C813 C113 1.025 . S
C832 C268 1.024 . S
C868 C324 1.028 . S
C849 C122 1.031 . S
C885 C131 1.029 . S
C904 C269 1.028 . S
C921 C140 1.026 . S
C940 C325 1.026 . S
C976 C375 1.022 . S
C957 C104 1.024 1_556 S
C993 C86 1.027 1_554 S
C1012 C374 1.026 1_556 S
C1029 C77 1.032 . S
C1048 C376 1.029 . S
C1084 C377 1.025 1_556 S
C1065 C95 1.028 1_554 S
C1101 C41 1.024 . S
C1120 C418 1.023 . S
C1137 C50 1.027 . S
C1156 C477 1.025 . S
C1173 C59 1.026 1_455 S
C1192 C416 1.024 . S
C1209 C68 1.030 1_545 S
C1228 C476 1.028 1_565 S
C1264 C417 1.028 1_655 S
C1245 C5 1.029 1_455 S
C1300 C474 1.029 . S
C1281 C14 1.031 . S
C1317 C23 1.029 1_655 S
C1336 C419 1.027 . S
C1372 C475 1.026 . S
C1353 C32 1.028 1_565 S
C1408 C219 1.529 . S
C1389 C4 1.482 . S
C1425 C16 1.463 1_565 S
C1444 C225 1.521 . S
C1461 C22 1.477 . S
C1480 C217 1.526 1_655 S
C1497 C31 1.481 1_565 S
C1516 C224 1.532 . S
C1533 C40 1.475 1_655 S
C1552 C216 1.525 . S
C1588 C226 1.531 . S
C1569 C49 1.483 1_565 S
C1605 C61 1.458 1_455 S
C1624 C218 1.513 1_655 S
C1660 C227 1.523 1_565 S
C1641 C70 1.471 . S
C1696 C273 1.521 . S
C1677 C34 1.468 . S
C1713 C7 1.462 1_455 S
C1732 C316 1.518 1_655 S
C1768 C271 1.534 . S
C1749 C13 1.486 1_565 S
C1804 C318 1.520 1_655 S
C1785 C25 1.459 . S
C1821 C52 1.457 . S
C1840 C272 1.520 . S
C1876 C317 1.527 . S
C1857 C58 1.483 1_655 S
C1912 C270 1.534 . S
C1893 C67 1.489 . S
C1948 C319 1.515 1_655 S
C1929 C43 1.458 1_455 S
C1984 C323 1.534 . S
C1965 C76 1.489 1_554 S
C2001 C88 1.463 . S
C2020 C322 1.521 . S
C2056 C274 1.516 . S
C2037 C79 1.458 1_554 S
C2092 C321 1.517 1_556 S
C2073 C97 1.462 1_554 S
C2109 C103 1.479 1_556 S
C2128 C277 1.526 . S
C2145 C106 1.453 . S
C2164 C320 1.516 1_556 S
C2200 C276 1.523 . S
C2181 C85 1.474 . S
C2236 C275 1.530 . S
C2217 C94 1.483 1_554 S
C2272 C369 1.524 . S
C2253 C112 1.478 . S
C2308 C372 1.522 . S
C2289 C124 1.464 . S
C2325 C133 1.466 . S
C2344 C368 1.519 . S
C2380 C370 1.530 . S
C2361 C139 1.483 . S
C2416 C366 1.529 . S
C2397 C148 1.484 . S
C2433 C157 1.485 . S
C2452 C371 1.531 . S
C2469 C169 1.460 . S
C2488 C367 1.515 . S
C2524 C373 1.524 . S
C2505 C178 1.465 . S
C2560 C427 1.518 . S
C2541 C142 1.459 . S
C2577 C115 1.459 . S
C2596 C466 1.517 . S
C2632 C426 1.532 . S
C2613 C121 1.480 . S
C2668 C468 1.530 . S
C2649 C130 1.483 . S
C2704 C425 1.521 . S
C2685 C160 1.467 . S
C2721 C166 1.475 . S
C2740 C467 1.528 . S
C2776 C424 1.534 . S
C2757 C175 1.480 . S
C2812 C469 1.520 . S
C2793 C151 1.465 . S
C2848 C473 1.532 . S
C2829 C184 1.481 . S
C2865 C196 1.462 . S
C2884 C472 1.520 . S
C2920 C420 1.517 . S
C2901 C187 1.461 . S
C2937 C205 1.462 . S
C2956 C471 1.519 . S
C2992 C423 1.528 . S
C2973 C211 1.482 . S
C3028 C470 1.517 . S
C3009 C214 1.464 . S
C3064 C421 1.526 . S
C3045 C193 1.475 . S
C3081 C202 1.473 . S
C3100 C422 1.527 . S
