# Generated by pormake.
# Topology tsx, (6,3)-cn, num edge types: 1
# Building blocks:
#     Node 0, Type 0, BuildingBlock: FUNLAD_clean_sbu_0, # of connection points: 6
#     Node 1, Type 0, BuildingBlock: FUNLAD_clean_sbu_0, # of connection points: 6
#     Node 2, Type 1, BuildingBlock: BETDAH_clean_linker_0, # of connection points: 3
#     Node 3, Type 1, BuildingBlock: BETDAH_clean_linker_0, # of connection points: 3
#     Node 4, Type 1, BuildingBlock: BETDAH_clean_linker_0, # of connection points: 3
#     Node 5, Type 1, BuildingBlock: BETDAH_clean_linker_0, # of connection points: 3
#     Edge 6, Type (0, 1), BuildingBlock: ZUJKAS_clean_linker_0, # of connection points: 2
#     Edge 7, Type (0, 1), BuildingBlock: ZUJKAS_clean_linker_0, # of connection points: 2
#     Edge 8, Type (0, 1), BuildingBlock: ZUJKAS_clean_linker_0, # of connection points: 2
#     Edge 9, Type (0, 1), BuildingBlock: ZUJKAS_clean_linker_0, # of connection points: 2
#     Edge 10, Type (0, 1), BuildingBlock: ZUJKAS_clean_linker_0, # of connection points: 2
#     Edge 11, Type (0, 1), BuildingBlock: ZUJKAS_clean_linker_0, # of connection points: 2
#     Edge 12, Type (0, 1), BuildingBlock: ZUJKAS_clean_linker_0, # of connection points: 2
#     Edge 13, Type (0, 1), BuildingBlock: ZUJKAS_clean_linker_0, # of connection points: 2
#     Edge 14, Type (0, 1), BuildingBlock: ZUJKAS_clean_linker_0, # of connection points: 2
#     Edge 15, Type (0, 1), BuildingBlock: ZUJKAS_clean_linker_0, # of connection points: 2
#     Edge 16, Type (0, 1), BuildingBlock: ZUJKAS_clean_linker_0, # of connection points: 2
#     Edge 17, Type (0, 1), BuildingBlock: ZUJKAS_clean_linker_0, # of connection points: 2
# Relax obj value: 0.105
# Max RMSD: 0.112
# Mean RMSD: 0.106
data_MOF--net-tsx--node1-FUNLAD_clean_sbu_0--node2-BETDAH_clean_linker_0--edge1-ZUJKAS_clean_linker_0
_symmetry_space_group_name_H-M    P1
_symmetry_Int_Tables_number       1
_symmetry_cell_setting            triclinic
loop_
_symmetry_equiv_pos_as_xyz
'x, y, z'
_cell_length_a     25.592463
_cell_length_b     28.305242
_cell_length_c     48.997266
_cell_angle_alpha  91.01683
_cell_angle_beta   101.30263
_cell_angle_gamma 90.025713
loop_
_atom_site_label
_atom_site_type_symbol
_atom_site_fract_x
_atom_site_fract_y
_atom_site_fract_z
_atom_type_partial_charge
C0 C 0.93154 0.9325 0.00524 0.0
N1 N 0.01202 0.00654 0.07607 0.0
C2 C 0.9648 0.00804 0.08488 0.0
C3 C 0.9638 0.01344 0.11314 0.0
C4 C 0.01184 0.01714 0.13263 0.0
C5 C 0.06007 0.01432 0.12305 0.0
C6 C 0.05923 0.00915 0.09452 0.0
Zn7 Zn 0.01027 0.00446 0.03406 0.0
C8 C 0.08678 0.93751 0.01686 0.0
N9 N 0.00135 0.0029 0.94597 0.0
C10 C 0.95453 0.00233 0.92716 0.0
C11 C 0.04882 0.00655 0.9376 0.0
C12 C 0.05049 0.01081 0.90948 0.0
C13 C 0.00285 0.0111 0.88956 0.0
C14 C 0.95436 0.00633 0.89872 0.0
Zn15 Zn 0.00268 0.00276 0.98791 0.0
O16 O 0.95266 0.95044 0.02878 0.0
C17 C 0.92695 0.07009 0.00446 0.0
O18 O 0.94549 0.94732 0.98335 0.0
H19 H 0.08562 0.00722 0.95285 0.0
H20 H 0.92769 0.00581 0.06992 0.0
H21 H 0.91722 -0.00051 0.93426 0.0
O22 O 0.94926 0.05623 0.02845 0.0
O23 O 0.9414 0.05276 0.98306 0.0
H24 H 0.09631 0.00817 0.08707 0.0
O25 O 0.05954 0.05842 0.99338 0.0
O26 O 0.06727 0.05857 0.03874 0.0
O27 O 0.06409 0.95277 0.99329 0.0
O28 O 0.072 0.95281 0.03873 0.0
C29 C 0.08046 0.07531 0.0172 0.0
H30 H 0.92575 0.01467 0.11965 0.0
H31 H 0.098 0.01733 0.13737 0.0
H32 H 0.08877 0.01512 0.90354 0.0
H33 H 0.91668 0.00571 0.8841 0.0
C34 C 0.43895 0.42885 0.50886 0.0
N35 N 0.52062 0.50747 0.57755 0.0
C36 C 0.47417 0.50853 0.58712 0.0
C37 C 0.4746 0.5157 0.61541 0.0
C38 C 0.5233 0.52174 0.63415 0.0
C39 C 0.57075 0.51929 0.62382 0.0
C40 C 0.56848 0.51223 0.59529 0.0
Zn41 Zn 0.5166 0.50329 0.53541 0.0
C42 C 0.59358 0.43728 0.5181 0.0
N43 N 0.50299 0.49836 0.44707 0.0
C44 C 0.45563 0.49515 0.42879 0.0
C45 C 0.54964 0.50307 0.43801 0.0
C46 C 0.54987 0.50569 0.40966 0.0
C47 C 0.50164 0.50309 0.39021 0.0
C48 C 0.45404 0.49734 0.40012 0.0
Zn49 Zn 0.50648 0.50023 0.48918 0.0
O50 O 0.46047 0.44819 0.53194 0.0
C51 C 0.43016 0.5666 0.50582 0.0
O52 O 0.45126 0.44318 0.48645 0.0
H53 H 0.58688 0.50577 0.45284 0.0
H54 H 0.43653 0.50466 0.57271 0.0
H55 H 0.41898 0.49151 0.43644 0.0
O56 O 0.45426 0.55407 0.52978 0.0
O57 O 0.44353 0.54856 0.48431 0.0
H58 H 0.60491 0.51157 0.58722 0.0
O59 O 0.56112 0.55769 0.49282 0.0
O60 O 0.57222 0.55842 0.53833 0.0
O61 O 0.56975 0.45186 0.49456 0.0
O62 O 0.57933 0.45266 0.54009 0.0
C63 C 0.58306 0.57537 0.51628 0.0
H64 H 0.43712 0.51655 0.62253 0.0
H65 H 0.60916 0.52408 0.63752 0.0
H66 H 0.58749 0.51092 0.40315 0.0
H67 H 0.41597 0.49454 0.38592 0.0
H68 H 0.09381 0.97245 0.4166 0.0
H69 H 0.96471 0.05554 0.4363 0.0
H70 H 0.03749 0.94856 0.49216 0.0
C71 C 0.06772 0.98188 0.43078 0.0
C72 C 0.07151 0.95725 0.45566 0.0
C73 C 0.02888 0.01694 0.42337 0.0
C74 C 0.995 0.0288 0.44188 0.0
C75 C -0.00088 0.00455 0.46705 0.0
C76 C 0.03645 0.96848 0.4734 0.0
N77 N 0.96477 0.01353 0.48594 0.0
C78 C 0.93914 0.05605 0.48836 0.0
H79 H 0.922 0.98395 0.60288 0.0
H80 H 0.06701 0.04817 0.58918 0.0
H81 H 0.98245 0.94869 0.52933 0.0
C82 C 0.95101 0.98926 0.58979 0.0
C83 C 0.94591 0.9638 0.56459 0.0
C84 C 0.99496 0.01918 0.59912 0.0
C85 C 0.03267 0.02559 0.58208 0.0
C86 C 0.02722 0.00074 0.55653 0.0
C87 C 0.98466 0.96943 0.54832 0.0
N88 N 0.0655 0.00396 0.53935 0.0
C89 C 0.09506 0.04428 0.53729 0.0
H90 H 0.60266 0.48375 0.91714 0.0
H91 H 0.47765 0.57078 0.93806 0.0
H92 H 0.54525 0.45971 0.99229 0.0
C93 C 0.57698 0.49367 0.93144 0.0
C94 C 0.57961 0.4683 0.95596 0.0
C95 C 0.53983 0.53022 0.92455 0.0
C96 C 0.50656 0.5428 0.94324 0.0
C97 C 0.50967 0.51782 0.96812 0.0
C98 C 0.54509 0.4802 0.97385 0.0
N99 N 0.47658 0.52791 0.9875 0.0
C100 C 0.45122 0.57063 0.98967 0.0
H101 H 0.42835 0.47223 0.1018 0.0
H102 H 0.57075 0.54522 0.09165 0.0
H103 H 0.49241 0.44911 0.02796 0.0
C104 C 0.45685 0.48116 0.08898 0.0
C105 C 0.45422 0.45784 0.06325 0.0
C106 C 0.49882 0.51256 0.09953 0.0
C107 C 0.53752 0.52194 0.0835 0.0
C108 C 0.53474 0.49894 0.05758 0.0
C109 C 0.49355 0.46701 0.04779 0.0
N110 N 0.5751 0.504 0.04187 0.0
C111 C 0.59868 0.54682 0.03822 0.0
H112 H 0.12259 0.1153 0.97591 0.0
H113 H 0.18646 0.18073 0.98054 0.0
H114 H 0.18795 0.19032 0.06865 0.0
H115 H 0.12501 0.12454 0.06438 0.0
H116 H 0.1772 0.27281 0.99978 0.0
H117 H 0.34564 0.17978 0.06549 0.0
H118 H 0.28719 0.14917 0.04685 0.0
H119 H 0.28579 0.17909 0.0794 0.0
C120 C 0.13671 0.13121 0.99629 0.0
C121 C 0.1191 0.11457 0.01983 0.0
C122 C 0.17305 0.16859 0.99887 0.0
C123 C 0.19238 0.18976 0.02498 0.0
C124 C 0.17429 0.17371 0.04842 0.0
H125 H 0.34859 0.45908 0.0667 0.0
H126 H 0.28392 0.39465 0.05494 0.0
C127 C 0.13819 0.13625 0.04591 0.0
C128 C 0.2311 0.22904 0.02778 0.0
H129 H 0.35473 0.26305 0.06196 0.0
C130 C 0.21621 0.27068 0.01319 0.0
C131 C 0.28213 0.22572 0.04498 0.0
C132 C 0.30144 0.18087 0.05986 0.0
C133 C 0.2507 0.30975 0.01594 0.0
C134 C 0.30079 0.30713 0.03415 0.0
C135 C 0.31607 0.26506 0.04819 0.0
C136 C 0.3382 0.34752 0.03921 0.0
C137 C 0.23343 0.35318 0.99917 0.0
C138 C 0.39023 0.34207 0.03462 0.0
C139 C 0.42747 0.37832 0.04184 0.0
C140 C 0.41334 0.42086 0.05374 0.0
C141 C 0.36077 0.42662 0.05775 0.0
C142 C 0.32359 0.39011 0.0507 0.0
H143 H 0.2019 0.34474 0.98067 0.0
H144 H 0.21689 0.37927 0.01233 0.0
H145 H 0.26758 0.36987 0.99206 0.0
H146 H 0.40236 0.30928 0.02599 0.0
H147 H 0.46783 0.37229 0.03895 0.0
H148 H 0.12448 0.89845 0.97348 0.0
H149 H 0.19503 0.84041 0.97502 0.0
H150 H 0.21907 0.83955 0.06462 0.0
H151 H 0.14741 0.89764 0.06332 0.0
H152 H 0.30258 0.84686 0.0017 0.0
H153 H 0.19685 0.69911 0.04178 0.0
H154 H 0.1629 0.75189 0.02784 0.0
H155 H 0.20406 0.75315 0.06203 0.0
C156 C 0.14455 0.88597 0.99359 0.0
C157 C 0.13005 0.90247 0.01831 0.0
C158 C 0.18504 0.85287 0.99439 0.0
C159 C 0.2119 0.83542 0.01988 0.0
C160 C 0.1982 0.85212 0.0447 0.0
H161 H 0.44252 0.60397 0.04 0.0
H162 H 0.39022 0.67256 0.05019 0.0
C163 C 0.15742 0.88537 0.04393 0.0
C164 C 0.2538 0.79941 0.01995 0.0
H165 H 0.28094 0.68265 0.03153 0.0
C166 C 0.29818 0.81104 0.00847 0.0
C167 C 0.2479 0.75281 0.02886 0.0
C168 C 0.20026 0.73813 0.04065 0.0
C169 C 0.33626 0.77697 0.00504 0.0
C170 C 0.32924 0.72998 0.01294 0.0
C171 C 0.28604 0.71876 0.02544 0.0
C172 C 0.36441 0.69125 0.007 0.0
C173 C 0.38343 0.79147 0.99283 0.0
C174 C 0.36716 0.6792 0.97936 0.0
C175 C 0.39691 0.64018 0.97358 0.0
C176 C 0.42393 0.61285 0.99537 0.0
C177 C 0.42196 0.62509 0.02298 0.0
C178 C 0.3922 0.66403 0.02878 0.0
H179 H 0.39133 0.83005 0.99554 0.0
H180 H 0.4199 0.77212 0.00254 0.0
H181 H 0.375 0.78308 0.97018 0.0
H182 H 0.34506 0.69913 0.96224 0.0
H183 H 0.3978 0.63076 0.95214 0.0
H184 H 0.88666 0.90125 0.04754 0.0
H185 H 0.82161 0.83792 0.04604 0.0
H186 H 0.81879 0.8152 0.95851 0.0
H187 H 0.88449 0.87887 0.95974 0.0
H188 H 0.71603 0.82872 0.01024 0.0
H189 H 0.85677 0.68417 0.99608 0.0
H190 H 0.87965 0.74249 0.00846 0.0
H191 H 0.85059 0.73269 0.97242 0.0
C192 C 0.87232 0.8829 0.02791 0.0
C193 C 0.89105 0.89485 0.00378 0.0
C194 C 0.83496 0.84686 0.0271 0.0
C195 C 0.81582 0.82184 0.00224 0.0
C196 C 0.83361 0.83397 0.97795 0.0
H197 H 0.62288 0.56434 0.9887 0.0
H198 H 0.66978 0.63396 0.97624 0.0
C199 C 0.87097 0.87033 0.97869 0.0
C200 C 0.77826 0.7823 0.00236 0.0
H201 H 0.77127 0.66198 0.00175 0.0
C202 C 0.72774 0.79222 0.00807 0.0
C203 C 0.79386 0.7349 0.99946 0.0
C204 C 0.84823 0.72255 0.99392 0.0
C205 C 0.69267 0.75576 0.01159 0.0
C206 C 0.70917 0.70834 0.00989 0.0
C207 C 0.75889 0.69845 0.00311 0.0
C208 C 0.67696 0.66841 0.01662 0.0
C209 C 0.63846 0.7683 0.01727 0.0
C210 C 0.66556 0.66484 0.04344 0.0
C211 C 0.63881 0.62522 0.05051 0.0
C212 C 0.62362 0.58882 0.03088 0.0
C213 C 0.63431 0.59243 0.00403 0.0
C214 C 0.66099 0.632 0.99694 0.0
H215 H 0.62598 0.80411 0.00967 0.0
H216 H 0.60784 0.74227 0.00727 0.0
H217 H 0.64 0.76822 0.04006 0.0
H218 H 0.67862 0.69207 0.0591 0.0
H219 H 0.63095 0.62261 0.07137 0.0
H220 H 0.89743 0.12403 0.04569 0.0
H221 H 0.83465 0.19007 0.04011 0.0
H222 H 0.80263 0.16717 0.95114 0.0
H223 H 0.86518 0.10126 0.95641 0.0
H224 H 0.84515 0.27204 0.00597 0.0
H225 H 0.65285 0.17639 0.97295 0.0
H226 H 0.71243 0.14813 0.99136 0.0
H227 H 0.70472 0.15929 0.95482 0.0
C228 C 0.87655 0.13269 0.02497 0.0
C229 C 0.88629 0.10753 0.00147 0.0
C230 C 0.84082 0.17039 0.02184 0.0
C231 C 0.81386 0.183 0.99527 0.0
C232 C 0.82262 0.1574 0.97185 0.0
H233 H 0.60142 0.39918 0.92021 0.0
H234 H 0.6602 0.33126 0.9312 0.0
C235 C 0.85854 0.11995 0.9749 0.0
C236 C 0.77911 0.22484 0.99169 0.0
H237 H 0.65121 0.25965 0.96751 0.0
C238 C 0.80263 0.26949 0.99784 0.0
C239 C 0.72389 0.22103 0.98096 0.0
C240 C 0.69671 0.17364 0.97482 0.0
C241 C 0.77248 0.31084 0.99262 0.0
C242 C 0.71725 0.3071 0.98156 0.0
C243 C 0.69361 0.26231 0.97592 0.0
C244 C 0.68337 0.3492 0.97503 0.0
C245 C 0.80034 0.35807 0.99803 0.0
C246 C 0.67706 0.38169 0.99607 0.0
C247 C 0.64415 0.4209 0.98979 0.0
C248 C 0.61651 0.42793 0.96239 0.0
C249 C 0.6229 0.39521 0.94139 0.0
C250 C 0.65603 0.35618 0.94768 0.0
H251 H 0.84409 0.35478 0.99963 0.0
H252 H 0.78473 0.38323 0.98127 0.0
H253 H 0.7932 0.37324 0.01801 0.0
H254 H 0.69711 0.37645 0.0174 0.0
H255 H 0.64027 0.44568 0.00637 0.0
H256 H 0.63773 0.61959 0.56314 0.0
H257 H 0.69357 0.69006 0.56606 0.0
H258 H 0.66514 0.69556 0.47646 0.0
H259 H 0.60955 0.62441 0.47324 0.0
H260 H 0.77196 0.70899 0.50208 0.0
H261 H 0.63949 0.82477 0.55026 0.0
H262 H 0.65567 0.77089 0.56874 0.0
H263 H 0.61765 0.76874 0.5337 0.0
C264 C 0.64333 0.63568 0.54401 0.0
C265 C 0.61893 0.61661 0.51795 0.0
C266 C 0.67494 0.67614 0.54574 0.0
C267 C 0.68239 0.69852 0.52148 0.0
C268 C 0.65932 0.67898 0.4954 0.0
H269 H 0.88592 0.94651 0.51257 0.0
H270 H 0.81847 0.88444 0.49877 0.0
C271 C 0.62768 0.63835 0.49363 0.0
C272 C 0.71535 0.74176 0.52359 0.0
H273 H 0.72938 0.85196 0.55351 0.0
C274 C 0.76232 0.7406 0.51289 0.0
C275 C 0.70227 0.78296 0.53754 0.0
C276 C 0.65074 0.78721 0.54797 0.0
C277 C 0.7982 0.77873 0.51719 0.0
C278 C 0.78629 0.81892 0.53233 0.0
C279 C 0.73831 0.82087 0.54202 0.0
C280 C 0.82516 0.85759 0.54036 0.0
C281 C 0.84974 0.775 0.50673 0.0
C282 C 0.85021 0.86328 0.56832 0.0
C283 C 0.88877 0.89829 0.57623 0.0
C284 C 0.90263 0.92852 0.5563 0.0
C285 C 0.8765 0.92337 0.52832 0.0
C286 C 0.838 0.8881 0.52041 0.0
H287 H 0.85591 0.73905 0.49848 0.0
H288 H 0.84938 0.8006 0.4898 0.0
H289 H 0.88403 0.78406 0.5237 0.0
H290 H 0.84076 0.83986 0.58394 0.0
H291 H 0.90877 0.90075 0.59784 0.0
H292 H 0.64952 0.39205 0.56391 0.0
H293 H 0.71884 0.33183 0.5646 0.0
H294 H 0.7034 0.34285 0.47571 0.0
H295 H 0.63517 0.40288 0.4748 0.0
H296 H 0.70734 0.24488 0.53602 0.0
H297 H 0.8641 0.35221 0.50314 0.0
H298 H 0.80894 0.37834 0.51592 0.0
H299 H 0.80057 0.35806 0.48029 0.0
C300 C 0.66136 0.38195 0.54458 0.0
C301 C 0.63687 0.4023 0.51932 0.0
C302 C 0.70091 0.34761 0.54502 0.0
C303 C 0.71688 0.33356 0.52027 0.0
C304 C 0.69263 0.354 0.49513 0.0
H305 H 0.88625 0.11731 0.45135 0.0
H306 H 0.83555 0.18672 0.46212 0.0
C307 C 0.65324 0.38809 0.49465 0.0
C308 C 0.75618 0.29527 0.52003 0.0
H309 H 0.87047 0.26796 0.4972 0.0
C310 C 0.74355 0.24999 0.52803 0.0
C311 C 0.8033 0.30215 0.50955 0.0
C312 C 0.82035 0.35044 0.502 0.0
C313 C 0.77534 0.21086 0.52444 0.0
C314 C 0.82129 0.21749 0.5129 0.0
C315 C 0.83499 0.26303 0.50586 0.0
C316 C 0.85415 0.17719 0.50673 0.0
C317 C 0.75822 0.16245 0.53179 0.0
C318 C 0.88205 0.1496 0.5283 0.0
C319 C 0.91077 0.11019 0.52214 0.0
C320 C 0.9121 0.09822 0.49441 0.0
C321 C 0.88548 0.12627 0.47286 0.0
C322 C 0.85674 0.16573 0.47901 0.0
H323 H 0.71656 0.16221 0.5352 0.0
H324 H 0.76158 0.13625 0.51509 0.0
H325 H 0.78468 0.15095 0.55124 0.0
H326 H 0.88119 0.15831 0.54982 0.0
H327 H 0.93136 0.08873 0.53899 0.0
H328 H 0.3855 0.37726 0.46391 0.0
H329 H 0.32022 0.31377 0.46428 0.0
H330 H 0.33928 0.32995 0.55336 0.0
H331 H 0.40368 0.39322 0.55325 0.0
H332 H 0.3355 0.22802 0.49377 0.0
H333 H 0.17733 0.33623 0.5264 0.0
H334 H 0.23139 0.36186 0.5128 0.0
H335 H 0.24146 0.34449 0.54859 0.0
C336 C 0.37556 0.3674 0.48354 0.0
C337 C 0.39964 0.39041 0.50853 0.0
C338 C 0.3383 0.3312 0.4837 0.0
C339 C 0.32429 0.31786 0.50879 0.0
C340 C 0.34865 0.34047 0.53371 0.0
H341 H 0.14862 0.10581 0.57533 0.0
H342 H 0.20271 0.17331 0.56597 0.0
C343 C 0.38578 0.37644 0.5336 0.0
C344 C 0.28585 0.27904 0.50941 0.0
H345 H 0.17078 0.25253 0.53131 0.0
C346 C 0.29905 0.23336 0.50156 0.0
C347 C 0.23841 0.28629 0.51962 0.0
C348 C 0.22096 0.33495 0.52708 0.0
C349 C 0.26722 0.19429 0.50488 0.0
C350 C 0.2207 0.20139 0.51594 0.0
C351 C 0.20668 0.24725 0.523 0.0
C352 C 0.18706 0.16145 0.52131 0.0
C353 C 0.28475 0.14554 0.4976 0.0
C354 C 0.15985 0.13311 0.49925 0.0
C355 C 0.1292 0.09478 0.50461 0.0
C356 C 0.12528 0.08466 0.53202 0.0
C357 C 0.15149 0.1133 0.55406 0.0
C358 C 0.18216 0.15166 0.54871 0.0
H359 H 0.32687 0.14518 0.49493 0.0
H360 H 0.28023 0.12007 0.51397 0.0
H361 H 0.25933 0.13317 0.47776 0.0
H362 H 0.1624 0.1406 0.47795 0.0
H363 H 0.10883 0.07292 0.48738 0.0
H364 H 0.40166 0.6214 0.54703 0.0
H365 H 0.33754 0.68644 0.5415 0.0
H366 H 0.30199 0.66066 0.45278 0.0
H367 H 0.36578 0.59572 0.458 0.0
H368 H 0.34368 0.76775 0.50687 0.0
H369 H 0.15389 0.6678 0.47582 0.0
H370 H 0.21481 0.64082 0.49359 0.0
H371 H 0.20499 0.65179 0.45694 0.0
C372 C 0.37972 0.62921 0.52637 0.0
C373 C 0.38877 0.60347 0.50293 0.0
C374 C 0.34324 0.66637 0.52328 0.0
C375 C 0.31484 0.67788 0.49679 0.0
C376 C 0.32304 0.65175 0.47344 0.0
H377 H 0.09579 0.88811 0.42058 0.0
H378 H 0.15682 0.82192 0.43219 0.0
C379 C 0.35967 0.61483 0.47646 0.0
C380 C 0.2789 0.71899 0.49319 0.0
H381 H 0.14983 0.75088 0.46931 0.0
C382 C 0.30118 0.76422 0.49895 0.0
C383 C 0.22367 0.71395 0.48276 0.0
C384 C 0.19768 0.66598 0.47711 0.0
C385 C 0.2698 0.80487 0.49359 0.0
C386 C 0.21461 0.79987 0.48274 0.0
C387 C 0.19221 0.75454 0.47754 0.0
C388 C 0.17951 0.84117 0.47585 0.0
C389 C 0.29631 0.85273 0.4986 0.0
C390 C 0.17218 0.8739 0.49659 0.0
C391 C 0.13789 0.91216 0.48995 0.0
C392 C 0.10995 0.91802 0.46249 0.0
C393 C 0.11745 0.8851 0.4418 0.0
C394 C 0.15189 0.84702 0.44844 0.0
H395 H 0.34016 0.85038 0.50028 0.0
H396 H 0.28003 0.87722 0.48159 0.0
H397 H 0.28864 0.86814 0.51841 0.0
H398 H 0.19244 0.86953 0.51797 0.0
H399 H 0.13314 0.93709 0.50631 0.0
H400 H 0.07455 0.97436 0.17702 0.0
H401 H 0.0719 0.98511 0.22646 0.0
H402 H 0.94546 0.08661 0.20568 0.0
H403 H 0.9483 0.0766 0.15622 0.0
H404 H 0.03208 0.1133 0.2522 0.0
H405 H 0.94638 0.93536 0.26181 0.0
H406 H 0.00462 0.93606 0.2464 0.0
H407 H 0.94415 0.96288 0.22862 0.0
C408 C 0.0465 -0.00074 0.18299 0.0
C409 C 0.01138 0.02438 0.1627 0.0
C410 C 0.0448 0.00512 0.2112 0.0
C411 C 0.00809 0.03627 0.21963 0.0
C412 C 0.97386 0.06223 0.19954 0.0
H413 H 0.93547 0.02394 0.38577 0.0
H414 H 0.92518 0.03783 0.3358 0.0
C415 C 0.9753 0.0562 0.17132 0.0
C416 C 0.00489 0.04105 0.2494 0.0
H417 H 0.97655 0.9789 0.30374 0.0
C418 C 0.01959 0.0841 0.26349 0.0
C419 C 0.98776 0.00312 0.26388 0.0
C420 C 0.96935 0.95681 0.24943 0.0
C421 C 0.01946 0.08961 0.29205 0.0
C422 C 0.00451 0.05097 0.30679 0.0
C423 C 0.98806 0.0085 0.29241 0.0
C424 C 0.00877 0.0523 0.33742 0.0
C425 C 0.03543 0.13659 0.30622 0.0
C426 C 0.05886 0.05737 0.355 0.0
C427 C 0.06477 0.04963 0.38352 0.0
C428 C 0.02072 0.03644 0.39495 0.0
C429 C 0.97 0.03456 0.37762 0.0
C430 C 0.96414 0.04215 0.34904 0.0
H431 H 0.03053 0.16576 0.29106 0.0
H432 H 0.01157 0.1447 0.32236 0.0
H433 H 0.07805 0.13533 0.31655 0.0
H434 H 0.09398 0.06443 0.34646 0.0
H435 H 0.1043 0.05142 0.39643 0.0
H436 H 0.07411 0.97378 0.86006 0.0
H437 H 0.07844 0.98656 0.81143 0.0
H438 H 0.93753 0.073 0.80193 0.0
H439 H 0.93435 0.06234 0.85099 0.0
H440 H 0.00678 0.96219 0.7656 0.0
H441 H 0.03612 0.15651 0.76859 0.0
H442 H 0.04338 0.12205 0.79975 0.0
H443 H 0.9782 0.13822 0.78125 0.0
C444 C 0.04448 -0.00383 0.8478 0.0
C445 C 0.00409 0.01731 0.85957 0.0
C446 C 0.04687 0.00322 0.81993 0.0
C447 C 0.00896 0.0315 0.80316 0.0
C448 C 0.96802 0.05202 0.81464 0.0
H449 H 0.92407 0.06413 0.62573 0.0
H450 H 0.93196 0.07368 0.6762 0.0
C451 C 0.96575 0.04521 0.8426 0.0
C452 C 0.01092 0.03735 0.77333 0.0
H453 H 0.01703 0.11936 0.72358 0.0
C454 C 0.00948 -0.00345 0.75651 0.0
C455 C 0.0144 0.08226 0.76146 0.0
C456 C 0.01863 0.12725 0.77874 0.0
C457 C 0.0105 -0.00061 0.72809 0.0
C458 C 0.01348 0.0442 0.71619 0.0
C459 C 0.01496 0.0851 0.73289 0.0
C460 C 0.0131 0.04852 0.68613 0.0
C461 C 0.00732 0.95444 0.71077 0.0
C462 C 0.05706 0.03348 0.67512 0.0
C463 C 0.05273 0.02813 0.64634 0.0
C464 C 0.00423 0.0375 0.62822 0.0
C465 C 0.96178 0.05639 0.63926 0.0
C466 C 0.96624 0.06192 0.66803 0.0
H467 H -0.00301 0.92329 0.72217 0.0
H468 H 0.97713 0.95786 0.69126 0.0
H469 H 0.04645 0.94782 0.7049 0.0
H470 H 0.0936 0.02313 0.68885 0.0
H471 H 0.08591 0.01312 0.63846 0.0
H472 H 0.45852 0.58055 0.6574 0.0
H473 H 0.45806 0.59357 0.70688 0.0
H474 H 0.59012 0.49782 0.72832 0.0
H475 H 0.59022 0.48386 0.67886 0.0
H476 H 0.50213 0.47999 0.75441 0.0
H477 H 0.56692 0.66803 0.76626 0.0
H478 H 0.51247 0.65476 0.73791 0.0
H479 H 0.57724 0.63081 0.73746 0.0
C480 C 0.48743 0.5622 0.67265 0.0
C481 C 0.52433 0.53104 0.66421 0.0
C482 C 0.48747 0.57011 0.7009 0.0
C483 C 0.52445 0.5471 0.72123 0.0
C484 C 0.56151 0.51619 0.71292 0.0
H485 H 0.61668 0.56405 0.89841 0.0
H486 H 0.608 0.57563 0.84832 0.0
C487 C 0.56166 0.50841 0.68468 0.0
C488 C 0.52269 0.55309 0.75113 0.0
H489 H 0.54131 0.63312 0.80527 0.0
C490 C 0.51048 0.51349 0.76552 0.0
C491 C 0.53387 0.59684 0.76552 0.0
C492 C 0.5488 0.64006 0.75114 0.0
C493 C 0.50935 0.51633 0.79399 0.0
C494 C 0.52007 0.56014 0.80838 0.0
C495 C 0.53232 0.59983 0.79403 0.0
C496 C 0.52282 0.56382 0.83881 0.0
C497 C 0.49823 0.47206 0.80868 0.0
C498 C 0.47732 0.55596 0.85014 0.0
C499 C 0.48217 0.54938 0.87876 0.0
C500 C 0.53264 0.55046 0.89636 0.0
C501 C 0.57738 0.56266 0.88524 0.0
C502 C 0.57248 0.56935 0.85668 0.0
H503 H 0.50025 0.43972 0.79575 0.0
H504 H 0.52712 0.46857 0.82865 0.0
H505 H 0.45767 0.47415 0.81347 0.0
H506 H 0.43856 0.55205 0.83665 0.0
H507 H 0.44709 0.53977 0.88674 0.0
H508 H 0.42908 0.54906 0.35083 0.0
H509 H 0.43011 0.55697 0.30129 0.0
H510 H 0.57623 0.47755 0.31189 0.0
H511 H 0.57404 0.46722 0.36092 0.0
H512 H 0.50319 0.5986 0.27564 0.0
H513 H 0.48567 0.40814 0.24713 0.0
H514 H 0.47424 0.43078 0.28009 0.0
H515 H 0.54109 0.42066 0.2749 0.0
C516 C 0.46088 0.53245 0.34253 0.0
C517 C 0.50132 0.50725 0.35992 0.0
C518 C 0.4617 0.53746 0.31425 0.0
C519 C 0.50285 0.51732 0.3028 0.0
C520 C 0.5435 0.49259 0.32012 0.0
H521 H 0.58728 0.5062 0.14041 0.0
H522 H 0.59126 0.51504 0.19062 0.0
C523 C 0.54251 0.48724 0.34829 0.0
C524 C 0.50377 0.52252 0.27281 0.0
H525 H 0.50925 0.45936 0.21343 0.0
C526 C 0.50421 0.56817 0.26199 0.0
C527 C 0.50481 0.48278 0.25498 0.0
C528 C 0.50087 0.43286 0.26477 0.0
C529 C 0.50677 0.57503 0.23393 0.0
C530 C 0.50906 0.53529 0.21642 0.0
C531 C 0.50827 0.48975 0.22713 0.0
C532 C 0.51013 0.53958 0.18651 0.0
C533 C 0.5077 0.62453 0.22318 0.0
C534 C 0.46369 0.55188 0.16769 0.0
C535 C 0.46128 0.54674 0.13905 0.0
C536 C 0.50533 0.52933 0.12883 0.0
C537 C 0.553 0.52029 0.14769 0.0
C538 C 0.55522 0.52502 0.17634 0.0
H539 H 0.51384 0.65149 0.24028 0.0
H540 H 0.53979 0.62817 0.21102 0.0
H541 H 0.46921 0.63179 0.209 0.0
H542 H 0.42833 0.56269 0.17518 0.0
H543 H 0.42406 0.55387 0.12492 0.0
loop_
_geom_bond_atom_site_label_1
_geom_bond_atom_site_label_2
_geom_bond_distance
_geom_bond_site_symmetry_2
_ccdc_geom_bond_type
C0 O16 1.251 . S
C0 O18 1.254 1_554 S
N1 C2 1.333 1_455 S
N1 C6 1.307 . S
N1 Zn7 2.020 . S
C2 N1 1.333 1_655 S
C2 C3 1.379 . S
C2 H20 0.952 1_545 S
C3 C2 1.379 . S
C3 C4 1.390 1_655 S
C3 H30 0.949 1_545 S
C4 C3 1.390 1_455 S
C4 C5 1.357 . S
C5 C4 1.357 . S
C5 C6 1.370 . S
C5 H31 0.950 . S
C6 N1 1.307 . S
C6 C5 1.370 . S
C6 H24 0.948 . S
Zn7 N1 2.020 . S
Zn7 O16 2.039 1_445 S
Zn7 O22 2.034 1_455 S
Zn7 O26 2.025 . S
Zn7 O28 2.024 1_545 S
C8 O27 1.246 1_554 S
C8 O28 1.249 . S
N9 C10 1.307 1_455 S
N9 C11 1.333 . S
N9 Zn15 2.020 . S
C10 N9 1.307 1_655 S
C10 C14 1.370 . S
C10 H21 0.948 1_545 S
C11 N9 1.333 . S
C11 C12 1.379 . S
C11 H19 0.952 . S
C12 C11 1.379 . S
C12 C13 1.390 1_455 S
C12 H32 0.949 . S
C13 C12 1.390 1_655 S
C13 C14 1.357 . S
C14 C10 1.370 . S
C14 C13 1.357 . S
C14 H33 0.950 1_545 S
Zn15 N9 2.020 . S
Zn15 O18 2.025 1_445 S
Zn15 O23 2.024 1_455 S
Zn15 O25 2.039 . S
Zn15 O27 2.034 1_545 S
O16 C0 1.251 . S
O16 Zn7 2.039 1_665 S
C17 O22 1.246 . S
C17 O23 1.249 1_554 S
O18 C0 1.254 1_556 S
O18 Zn15 2.025 1_665 S
H19 C11 0.952 . S
H20 C2 0.952 1_565 S
H21 C10 0.948 1_565 S
O22 Zn7 2.034 1_655 S
O22 C17 1.246 . S
O23 Zn15 2.024 1_655 S
O23 C17 1.249 1_556 S
H24 C6 0.948 . S
O25 Zn15 2.039 . S
O25 C29 1.251 1_556 S
O26 Zn7 2.025 . S
O26 C29 1.254 . S
O27 C8 1.246 1_556 S
O27 Zn15 2.034 1_565 S
O28 Zn7 2.024 1_565 S
O28 C8 1.249 . S
C29 O25 1.251 1_554 S
C29 O26 1.254 . S
H30 C3 0.949 1_565 S
H31 C5 0.950 . S
H32 C12 0.949 . S
H33 C14 0.950 1_565 S
C34 O50 1.251 . S
C34 O52 1.254 . S
N35 C36 1.333 . S
N35 C40 1.307 . S
N35 Zn41 2.020 . S
C36 N35 1.333 . S
C36 C37 1.379 . S
C36 H54 0.952 . S
C37 C36 1.379 . S
C37 C38 1.390 . S
C37 H64 0.949 . S
C38 C37 1.390 . S
C38 C39 1.357 . S
C39 C38 1.357 . S
C39 C40 1.370 . S
C39 H65 0.950 . S
C40 N35 1.307 . S
C40 C39 1.370 . S
C40 H58 0.948 . S
Zn41 N35 2.020 . S
Zn41 O50 2.039 . S
Zn41 O56 2.034 . S
Zn41 O60 2.025 . S
Zn41 O62 2.024 . S
C42 O61 1.246 . S
C42 O62 1.249 . S
N43 C44 1.307 . S
N43 C45 1.333 . S
N43 Zn49 2.020 . S
C44 N43 1.307 . S
C44 C48 1.370 . S
C44 H55 0.948 . S
C45 N43 1.333 . S
C45 C46 1.379 . S
C45 H53 0.952 . S
C46 C45 1.379 . S
C46 C47 1.390 . S
C46 H66 0.949 . S
C47 C46 1.390 . S
C47 C48 1.357 . S
C48 C44 1.370 . S
C48 C47 1.357 . S
C48 H67 0.950 . S
Zn49 N43 2.020 . S
Zn49 O52 2.025 . S
Zn49 O57 2.024 . S
Zn49 O59 2.039 . S
Zn49 O61 2.034 . S
O50 C34 1.251 . S
O50 Zn41 2.039 . S
C51 O56 1.246 . S
C51 O57 1.249 . S
O52 C34 1.254 . S
O52 Zn49 2.025 . S
H53 C45 0.952 . S
H54 C36 0.952 . S
H55 C44 0.948 . S
O56 Zn41 2.034 . S
O56 C51 1.246 . S
O57 Zn49 2.024 . S
O57 C51 1.249 . S
H58 C40 0.948 . S
O59 Zn49 2.039 . S
O59 C63 1.251 . S
O60 Zn41 2.025 . S
O60 C63 1.254 . S
O61 C42 1.246 . S
O61 Zn49 2.034 . S
O62 Zn41 2.024 . S
O62 C42 1.249 . S
C63 O59 1.251 . S
C63 O60 1.254 . S
H64 C37 0.949 . S
H65 C39 0.950 . S
H66 C46 0.949 . S
H67 C48 0.950 . S
H68 C71 0.929 . S
H69 C74 0.929 1_655 S
H70 C76 0.930 . S
C71 H68 0.929 . S
C71 C72 1.398 . S
C71 C73 1.396 1_565 S
C72 C71 1.398 . S
C72 C76 1.407 . S
C73 C71 1.396 1_545 S
C73 C74 1.394 . S
C74 H69 0.929 1_455 S
C74 C73 1.394 . S
C74 C75 1.382 . S
C75 C74 1.382 . S
C75 C76 1.392 1_545 S
C75 N77 1.420 1_455 S
C76 H70 0.930 . S
C76 C72 1.407 . S
C76 C75 1.392 1_565 S
N77 C75 1.420 1_655 S
N77 C78 1.244 . S
C78 N77 1.244 . S
H79 C82 0.929 . S
H80 C85 0.929 . S
H81 C87 0.933 . S
C82 H79 0.929 . S
C82 C83 1.398 . S
C82 C84 1.396 1_565 S
C83 C82 1.398 . S
C83 C87 1.412 . S
C84 C82 1.396 1_545 S
C84 C85 1.394 1_655 S
C85 H80 0.929 . S
C85 C84 1.394 1_455 S
C85 C86 1.382 . S
C86 C85 1.382 . S
C86 C87 1.384 1_445 S
C86 N88 1.420 . S
C87 H81 0.933 . S
C87 C83 1.412 . S
C87 C86 1.384 1_665 S
N88 C86 1.420 . S
N88 C89 1.244 . S
C89 N88 1.244 . S
H90 C93 0.929 . S
H91 C96 0.929 . S
H92 C98 0.930 1_554 S
C93 H90 0.929 . S
C93 C94 1.398 . S
C93 C95 1.396 . S
C94 C93 1.398 . S
C94 C98 1.407 . S
C95 C93 1.396 . S
C95 C96 1.394 . S
C96 H91 0.929 . S
C96 C95 1.394 . S
C96 C97 1.382 . S
C97 C96 1.382 . S
C97 C98 1.392 . S
C97 N99 1.420 . S
C98 H92 0.930 1_556 S
C98 C94 1.407 . S
C98 C97 1.392 . S
N99 C97 1.420 . S
N99 C100 1.244 . S
C100 N99 1.244 . S
H101 C104 0.929 . S
H102 C107 0.929 . S
H103 C109 0.930 . S
C104 H101 0.929 . S
C104 C105 1.398 . S
C104 C106 1.396 . S
C105 C104 1.398 . S
C105 C109 1.407 . S
C106 C104 1.396 . S
C106 C107 1.394 . S
C107 H102 0.929 . S
C107 C106 1.394 . S
C107 C108 1.382 . S
C108 C107 1.382 . S
C108 C109 1.392 . S
C108 N110 1.420 . S
C109 H103 0.930 . S
C109 C105 1.407 . S
C109 C108 1.392 . S
N110 C108 1.420 . S
N110 C111 1.244 . S
C111 N110 1.244 . S
H112 C120 0.929 . S
H113 C122 0.949 . S
H114 C124 0.930 . S
H115 C127 0.929 . S
H116 C130 0.957 . S
H117 C132 0.960 . S
H118 C132 0.960 . S
H119 C132 0.960 . S
C120 H112 0.929 . S
C120 C121 1.377 1_556 S
C120 C122 1.382 . S
C121 C120 1.377 1_554 S
C121 C127 1.390 . S
C122 H113 0.949 . S
C122 C120 1.382 . S
C122 C123 1.355 1_556 S
C123 C122 1.355 1_554 S
C123 C124 1.400 . S
C123 C128 1.490 . S
C124 H114 0.930 . S
C124 C123 1.400 . S
C124 C127 1.386 . S
H125 C141 0.930 . S
H126 C142 0.931 . S
C127 H115 0.929 . S
C127 C121 1.390 . S
C127 C124 1.386 . S
C128 C123 1.490 . S
C128 C130 1.364 1_554 S
C128 C131 1.403 . S
H129 C135 0.930 . S
C130 H116 0.957 . S
C130 C128 1.364 1_556 S
C130 C133 1.408 . S
C131 C128 1.403 . S
C131 C132 1.524 . S
C131 C135 1.400 . S
C132 H117 0.960 . S
C132 H118 0.960 . S
C132 H119 0.960 . S
C132 C131 1.524 . S
C133 C130 1.408 . S
C133 C134 1.389 1_556 S
C133 C137 1.499 . S
C134 C133 1.389 1_554 S
C134 C135 1.385 . S
C134 C136 1.478 . S
C135 H129 0.930 . S
C135 C131 1.400 . S
C135 C134 1.385 . S
C136 C134 1.478 . S
C136 C138 1.381 . S
C136 C142 1.383 . S
C137 C133 1.499 . S
C137 H143 0.959 . S
C137 H144 0.961 . S
C137 H145 0.960 . S
C138 C136 1.381 . S
C138 C139 1.394 . S
C138 H146 0.930 1_554 S
C139 C138 1.394 . S
C139 C140 1.383 . S
C139 H147 0.929 . S
C140 C139 1.383 . S
C140 C141 1.377 . S
C141 H125 0.930 . S
C141 C140 1.377 . S
C141 C142 1.379 . S
C142 H126 0.931 . S
C142 C136 1.383 . S
C142 C141 1.379 . S
H143 C137 0.959 . S
H144 C137 0.961 . S
H145 C137 0.960 . S
H146 C138 0.930 1_556 S
H147 C139 0.929 . S
H148 C156 0.935 . S
H149 C158 0.930 . S
H150 C160 0.930 . S
H151 C163 0.929 . S
H152 C166 0.930 . S
H153 C168 0.960 . S
H154 C168 0.960 . S
H155 C168 0.960 . S
C156 H148 0.935 . S
C156 C157 1.366 1_556 S
C156 C158 1.390 . S
C157 C156 1.366 1_554 S
C157 C163 1.390 . S
C158 H149 0.930 . S
C158 C156 1.390 . S
C158 C159 1.372 1_556 S
C159 C158 1.372 1_554 S
C159 C160 1.400 . S
C159 C164 1.490 . S
C160 H150 0.930 . S
C160 C159 1.400 . S
C160 C163 1.386 . S
H161 C177 0.930 . S
H162 C178 0.931 . S
C163 H151 0.929 . S
C163 C157 1.390 . S
C163 C160 1.386 . S
C164 C159 1.490 . S
C164 C166 1.395 1_554 S
C164 C167 1.403 . S
H165 C171 0.930 . S
C166 H152 0.930 . S
C166 C164 1.395 1_556 S
C166 C169 1.403 . S
C167 C164 1.403 . S
C167 C168 1.524 . S
C167 C171 1.400 . S
C168 H153 0.960 . S
C168 H154 0.960 . S
C168 H155 0.960 . S
C168 C167 1.524 . S
C169 C166 1.403 . S
C169 C170 1.392 . S
C169 C173 1.495 . S
C170 C169 1.392 . S
C170 C171 1.385 1_556 S
C170 C172 1.478 . S
C171 H165 0.930 . S
C171 C167 1.400 . S
C171 C170 1.385 1_554 S
C172 C170 1.478 . S
C172 C174 1.381 . S
C172 C178 1.383 1_556 S
C173 C169 1.495 . S
C173 H179 0.959 . S
C173 H180 0.961 . S
C173 H181 0.960 . S
C174 C172 1.381 . S
C174 C175 1.394 . S
C174 H182 0.930 . S
C175 C174 1.394 . S
C175 C176 1.383 . S
C175 H183 0.929 . S
C176 C175 1.383 . S
C176 C177 1.377 1_556 S
C177 H161 0.930 . S
C177 C176 1.377 1_554 S
C177 C178 1.379 . S
C178 H162 0.931 . S
C178 C172 1.383 1_554 S
C178 C177 1.379 . S
H179 C173 0.959 . S
H180 C173 0.961 . S
H181 C173 0.960 . S
H182 C174 0.930 . S
H183 C175 0.929 . S
H184 C192 0.929 . S
H185 C194 0.930 . S
H186 C196 0.930 1_556 S
H187 C199 0.929 . S
H188 C202 0.930 1_556 S
H189 C204 0.960 . S
H190 C204 0.960 . S
H191 C204 0.960 . S
C192 H184 0.929 . S
C192 C193 1.377 . S
C192 C194 1.384 . S
C193 C192 1.377 . S
C193 C199 1.390 1_554 S
C194 H185 0.930 . S
C194 C192 1.384 . S
C194 C195 1.372 . S
C195 C194 1.372 . S
C195 C196 1.400 . S
C195 C200 1.490 . S
C196 H186 0.930 1_554 S
C196 C195 1.400 . S
C196 C199 1.386 1_554 S
H197 C213 0.930 . S
H198 C214 0.931 1_556 S
C199 H187 0.929 . S
C199 C193 1.390 1_556 S
C199 C196 1.386 1_556 S
C200 C195 1.490 . S
C200 C202 1.395 . S
C200 C203 1.403 . S
H201 C207 0.930 . S
C202 H188 0.930 1_554 S
C202 C200 1.395 . S
C202 C205 1.403 . S
C203 C200 1.403 . S
C203 C204 1.524 . S
C203 C207 1.400 . S
C204 H189 0.960 . S
C204 H190 0.960 . S
C204 H191 0.960 . S
C204 C203 1.524 . S
C205 C202 1.403 . S
C205 C206 1.392 . S
C205 C209 1.495 1_554 S
C206 C205 1.392 . S
C206 C207 1.385 . S
C206 C208 1.478 . S
C207 H201 0.930 . S
C207 C203 1.400 . S
C207 C206 1.385 . S
C208 C206 1.478 . S
C208 C210 1.381 . S
C208 C214 1.383 . S
C209 C205 1.495 1_556 S
C209 H215 0.959 . S
C209 H216 0.961 . S
C209 H217 0.960 1_556 S
C210 C208 1.381 . S
C210 C211 1.394 . S
C210 H218 0.930 . S
C211 C210 1.394 . S
C211 C212 1.383 . S
C211 H219 0.929 . S
C212 C211 1.383 . S
C212 C213 1.377 . S
C213 H197 0.930 . S
C213 C212 1.377 . S
C213 C214 1.379 . S
C214 H198 0.931 1_554 S
C214 C208 1.383 . S
C214 C213 1.379 . S
H215 C209 0.959 . S
H216 C209 0.961 . S
H217 C209 0.960 1_554 S
H218 C210 0.930 . S
H219 C211 0.929 . S
H220 C228 0.929 . S
H221 C230 0.930 . S
H222 C232 0.930 . S
H223 C235 0.929 . S
H224 C238 0.932 1_554 S
H225 C240 0.960 . S
H226 C240 0.960 1_554 S
H227 C240 0.960 . S
C228 H220 0.929 . S
C228 C229 1.377 . S
C228 C230 1.384 . S
C229 C228 1.377 . S
C229 C235 1.390 1_554 S
C230 H221 0.930 . S
C230 C228 1.384 . S
C230 C231 1.372 . S
C231 C230 1.372 . S
C231 C232 1.400 1_554 S
C231 C236 1.490 1_554 S
C232 H222 0.930 . S
C232 C231 1.400 1_556 S
C232 C235 1.386 . S
H233 C249 0.930 . S
H234 C250 0.931 . S
C235 H223 0.929 . S
C235 C229 1.390 1_556 S
C235 C232 1.386 . S
C236 C231 1.490 1_556 S
C236 C238 1.395 . S
C236 C239 1.403 . S
H237 C243 0.930 . S
C238 H224 0.932 1_556 S
C238 C236 1.395 . S
C238 C241 1.403 . S
C239 C236 1.403 . S
C239 C240 1.524 . S
C239 C243 1.400 . S
C240 H225 0.960 . S
C240 H226 0.960 1_556 S
C240 H227 0.960 . S
C240 C239 1.524 . S
C241 C238 1.403 . S
C241 C242 1.392 . S
C241 C245 1.495 . S
C242 C241 1.392 . S
C242 C243 1.385 . S
C242 C244 1.478 . S
C243 H237 0.930 . S
C243 C239 1.400 . S
C243 C242 1.385 . S
C244 C242 1.478 . S
C244 C246 1.381 1_556 S
C244 C250 1.383 . S
C245 C241 1.495 . S
C245 H251 0.959 . S
C245 H252 0.961 . S
C245 H253 0.960 1_556 S
C246 C244 1.381 1_554 S
C246 C247 1.394 . S
C246 H254 0.930 . S
C247 C246 1.394 . S
C247 C248 1.383 1_554 S
C247 H255 0.929 . S
C248 C247 1.383 1_556 S
C248 C249 1.377 . S
C249 H233 0.930 . S
C249 C248 1.377 . S
C249 C250 1.379 . S
C250 H234 0.931 . S
C250 C244 1.383 . S
C250 C249 1.379 . S
H251 C245 0.959 . S
H252 C245 0.961 . S
H253 C245 0.960 1_554 S
H254 C246 0.930 . S
H255 C247 0.929 . S
H256 C264 0.929 . S
H257 C266 0.930 . S
H258 C268 0.930 . S
H259 C271 0.929 . S
H260 C274 0.930 . S
H261 C276 0.960 . S
H262 C276 0.960 . S
H263 C276 0.960 . S
C264 H256 0.929 . S
C264 C265 1.377 . S
C264 C266 1.384 . S
C265 C264 1.377 . S
C265 C271 1.390 . S
C266 H257 0.930 . S
C266 C264 1.384 . S
C266 C267 1.372 . S
C267 C266 1.372 . S
C267 C268 1.400 . S
C267 C272 1.490 . S
C268 H258 0.930 . S
C268 C267 1.400 . S
C268 C271 1.386 . S
H269 C285 0.930 . S
H270 C286 0.931 . S
C271 H259 0.929 . S
C271 C265 1.390 . S
C271 C268 1.386 . S
C272 C267 1.490 . S
C272 C274 1.395 . S
C272 C275 1.403 . S
H273 C279 0.930 . S
C274 H260 0.930 . S
C274 C272 1.395 . S
C274 C277 1.403 . S
C275 C272 1.403 . S
C275 C276 1.524 . S
C275 C279 1.400 . S
C276 H261 0.960 . S
C276 H262 0.960 . S
C276 H263 0.960 . S
C276 C275 1.524 . S
C277 C274 1.403 . S
C277 C278 1.392 . S
C277 C281 1.495 . S
C278 C277 1.392 . S
C278 C279 1.385 . S
C278 C280 1.478 . S
C279 H273 0.930 . S
C279 C275 1.400 . S
C279 C278 1.385 . S
C280 C278 1.478 . S
C280 C282 1.381 . S
C280 C286 1.383 . S
C281 C277 1.495 . S
C281 H287 0.959 . S
C281 H288 0.961 . S
C281 H289 0.960 . S
C282 C280 1.381 . S
C282 C283 1.394 . S
C282 H290 0.930 . S
C283 C282 1.394 . S
C283 C284 1.383 . S
C283 H291 0.929 . S
C284 C283 1.383 . S
C284 C285 1.377 . S
C285 H269 0.930 . S
C285 C284 1.377 . S
C285 C286 1.379 . S
C286 H270 0.931 . S
C286 C280 1.383 . S
C286 C285 1.379 . S
H287 C281 0.959 . S
H288 C281 0.961 . S
H289 C281 0.960 . S
H290 C282 0.930 . S
H291 C283 0.929 . S
H292 C300 0.929 . S
H293 C302 0.930 . S
H294 C304 0.930 . S
H295 C307 0.929 . S
H296 C310 0.930 . S
H297 C312 0.960 . S
H298 C312 0.960 . S
H299 C312 0.960 . S
C300 H292 0.929 . S
C300 C301 1.377 . S
C300 C302 1.384 . S
C301 C300 1.377 . S
C301 C307 1.390 . S
C302 H293 0.930 . S
C302 C300 1.384 . S
C302 C303 1.372 . S
C303 C302 1.372 . S
C303 C304 1.400 . S
C303 C308 1.490 . S
C304 H294 0.930 . S
C304 C303 1.400 . S
C304 C307 1.386 . S
H305 C321 0.930 . S
H306 C322 0.931 . S
C307 H295 0.929 . S
C307 C301 1.390 . S
C307 C304 1.386 . S
C308 C303 1.490 . S
C308 C310 1.395 . S
C308 C311 1.403 . S
H309 C315 0.930 . S
C310 H296 0.930 . S
C310 C308 1.395 . S
C310 C313 1.403 . S
C311 C308 1.403 . S
C311 C312 1.524 . S
C311 C315 1.400 . S
C312 H297 0.960 . S
C312 H298 0.960 . S
C312 H299 0.960 . S
C312 C311 1.524 . S
C313 C310 1.403 . S
C313 C314 1.392 . S
C313 C317 1.495 . S
C314 C313 1.392 . S
C314 C315 1.385 . S
C314 C316 1.478 . S
C315 H309 0.930 . S
C315 C311 1.400 . S
C315 C314 1.385 . S
C316 C314 1.478 . S
C316 C318 1.381 . S
C316 C322 1.383 . S
C317 C313 1.495 . S
C317 H323 0.959 . S
C317 H324 0.961 . S
C317 H325 0.960 . S
C318 C316 1.381 . S
C318 C319 1.394 . S
C318 H326 0.930 . S
C319 C318 1.394 . S
C319 C320 1.383 . S
C319 H327 0.929 . S
C320 C319 1.383 . S
C320 C321 1.377 . S
C321 H305 0.930 . S
C321 C320 1.377 . S
C321 C322 1.379 . S
C322 H306 0.931 . S
C322 C316 1.383 . S
C322 C321 1.379 . S
H323 C317 0.959 . S
H324 C317 0.961 . S
H325 C317 0.960 . S
H326 C318 0.930 . S
H327 C319 0.929 . S
H328 C336 0.929 . S
H329 C338 0.930 . S
H330 C340 0.930 . S
H331 C343 0.929 . S
H332 C346 0.930 . S
H333 C348 0.960 . S
H334 C348 0.960 . S
H335 C348 0.960 . S
C336 H328 0.929 . S
C336 C337 1.377 . S
C336 C338 1.384 . S
C337 C336 1.377 . S
C337 C343 1.390 . S
C338 H329 0.930 . S
C338 C336 1.384 . S
C338 C339 1.372 . S
C339 C338 1.372 . S
C339 C340 1.400 . S
C339 C344 1.490 . S
C340 H330 0.930 . S
C340 C339 1.400 . S
C340 C343 1.386 . S
H341 C357 0.930 . S
H342 C358 0.931 . S
C343 H331 0.929 . S
C343 C337 1.390 . S
C343 C340 1.386 . S
C344 C339 1.490 . S
C344 C346 1.395 . S
C344 C347 1.403 . S
H345 C351 0.930 . S
C346 H332 0.930 . S
C346 C344 1.395 . S
C346 C349 1.403 . S
C347 C344 1.403 . S
C347 C348 1.524 . S
C347 C351 1.400 . S
C348 H333 0.960 . S
C348 H334 0.960 . S
C348 H335 0.960 . S
C348 C347 1.524 . S
C349 C346 1.403 . S
C349 C350 1.392 . S
C349 C353 1.495 . S
C350 C349 1.392 . S
C350 C351 1.385 . S
C350 C352 1.478 . S
C351 H345 0.930 . S
C351 C347 1.400 . S
C351 C350 1.385 . S
C352 C350 1.478 . S
C352 C354 1.381 . S
C352 C358 1.383 . S
C353 C349 1.495 . S
C353 H359 0.959 . S
C353 H360 0.961 . S
C353 H361 0.960 . S
C354 C352 1.381 . S
C354 C355 1.394 . S
C354 H362 0.930 . S
C355 C354 1.394 . S
C355 C356 1.383 . S
C355 H363 0.929 . S
C356 C355 1.383 . S
C356 C357 1.377 . S
C357 H341 0.930 . S
C357 C356 1.377 . S
C357 C358 1.379 . S
C358 H342 0.931 . S
C358 C352 1.383 . S
C358 C357 1.379 . S
H359 C353 0.959 . S
H360 C353 0.961 . S
H361 C353 0.960 . S
H362 C354 0.930 . S
H363 C355 0.929 . S
H364 C372 0.929 . S
H365 C374 0.930 . S
H366 C376 0.930 . S
H367 C379 0.929 . S
H368 C382 0.930 . S
H369 C384 0.960 . S
H370 C384 0.960 . S
H371 C384 0.960 . S
C372 H364 0.929 . S
C372 C373 1.377 . S
C372 C374 1.384 . S
C373 C372 1.377 . S
C373 C379 1.390 . S
C374 H365 0.930 . S
C374 C372 1.384 . S
C374 C375 1.372 . S
C375 C374 1.372 . S
C375 C376 1.400 . S
C375 C380 1.490 . S
C376 H366 0.930 . S
C376 C375 1.400 . S
C376 C379 1.386 . S
H377 C393 0.930 . S
H378 C394 0.931 . S
C379 H367 0.929 . S
C379 C373 1.390 . S
C379 C376 1.386 . S
C380 C375 1.490 . S
C380 C382 1.395 . S
C380 C383 1.403 . S
H381 C387 0.930 . S
C382 H368 0.930 . S
C382 C380 1.395 . S
C382 C385 1.403 . S
C383 C380 1.403 . S
C383 C384 1.524 . S
C383 C387 1.400 . S
C384 H369 0.960 . S
C384 H370 0.960 . S
C384 H371 0.960 . S
C384 C383 1.524 . S
C385 C382 1.403 . S
C385 C386 1.392 . S
C385 C389 1.495 . S
C386 C385 1.392 . S
C386 C387 1.385 . S
C386 C388 1.478 . S
C387 H381 0.930 . S
C387 C383 1.400 . S
C387 C386 1.385 . S
C388 C386 1.478 . S
C388 C390 1.381 . S
C388 C394 1.383 . S
C389 C385 1.495 . S
C389 H395 0.959 . S
C389 H396 0.961 . S
C389 H397 0.960 . S
C390 C388 1.381 . S
C390 C391 1.394 . S
C390 H398 0.930 . S
C391 C390 1.394 . S
C391 C392 1.383 . S
C391 H399 0.929 . S
C392 C391 1.383 . S
C392 C393 1.377 . S
C393 H377 0.930 . S
C393 C392 1.377 . S
C393 C394 1.379 . S
C394 H378 0.931 . S
C394 C388 1.383 . S
C394 C393 1.379 . S
H395 C389 0.959 . S
H396 C389 0.961 . S
H397 C389 0.960 . S
H398 C390 0.930 . S
H399 C391 0.929 . S
H400 C408 0.929 1_565 S
H401 C410 0.930 1_565 S
H402 C412 0.930 . S
H403 C415 0.929 . S
H404 C418 0.930 . S
H405 C420 0.960 . S
H406 C420 0.960 . S
H407 C420 0.960 . S
C408 H400 0.929 1_545 S
C408 C409 1.377 . S
C408 C410 1.384 . S
C409 C408 1.377 . S
C409 C415 1.390 1_455 S
C410 H401 0.930 1_545 S
C410 C408 1.384 . S
C410 C411 1.372 . S
C411 C410 1.372 . S
C411 C412 1.400 1_455 S
C411 C416 1.490 . S
C412 H402 0.930 . S
C412 C411 1.400 1_655 S
C412 C415 1.386 . S
H413 C429 0.930 . S
H414 C430 0.931 . S
C415 H403 0.929 . S
C415 C409 1.390 1_655 S
C415 C412 1.386 . S
C416 C411 1.490 . S
C416 C418 1.395 . S
C416 C419 1.403 1_545 S
H417 C423 0.930 1_655 S
C418 H404 0.930 . S
C418 C416 1.395 . S
C418 C421 1.403 . S
C419 C416 1.403 1_565 S
C419 C420 1.524 1_455 S
C419 C423 1.400 . S
C420 H405 0.960 . S
C420 H406 0.960 . S
C420 H407 0.960 . S
C420 C419 1.524 1_655 S
C421 C418 1.403 . S
C421 C422 1.392 . S
C421 C425 1.495 . S
C422 C421 1.392 . S
C422 C423 1.385 1_545 S
C422 C424 1.478 . S
C423 H417 0.930 1_455 S
C423 C419 1.400 . S
C423 C422 1.385 1_565 S
C424 C422 1.478 . S
C424 C426 1.381 . S
C424 C430 1.383 1_455 S
C425 C421 1.495 . S
C425 H431 0.959 . S
C425 H432 0.961 . S
C425 H433 0.960 . S
C426 C424 1.381 . S
C426 C427 1.394 . S
C426 H434 0.930 1_545 S
C427 C426 1.394 . S
C427 C428 1.383 . S
C427 H435 0.929 1_545 S
C428 C427 1.383 . S
C428 C429 1.377 1_455 S
C429 H413 0.930 . S
C429 C428 1.377 1_655 S
C429 C430 1.379 . S
C430 H414 0.931 . S
C430 C424 1.383 1_655 S
C430 C429 1.379 . S
H431 C425 0.959 . S
H432 C425 0.961 . S
H433 C425 0.960 . S
H434 C426 0.930 1_565 S
H435 C427 0.929 1_565 S
H436 C444 0.929 . S
H437 C446 0.930 . S
H438 C448 0.930 . S
H439 C451 0.929 . S
H440 C454 0.930 . S
H441 C456 0.960 . S
H442 C456 0.960 . S
H443 C456 0.960 . S
C444 H436 0.929 . S
C444 C445 1.377 1_455 S
C444 C446 1.384 . S
C445 C444 1.377 1_655 S
C445 C451 1.390 . S
C446 H437 0.930 . S
C446 C444 1.384 . S
C446 C447 1.361 1_455 S
C447 C446 1.361 1_655 S
C447 C448 1.414 . S
C447 C452 1.485 1_655 S
C448 H438 0.930 . S
C448 C447 1.414 . S
C448 C451 1.386 . S
H449 C465 0.928 1_565 S
H450 C466 0.931 1_565 S
C451 H439 0.929 . S
C451 C445 1.390 . S
C451 C448 1.386 . S
C452 C447 1.485 1_455 S
C452 C454 1.400 1_545 S
C452 C455 1.399 1_455 S
H453 C459 0.930 . S
C454 H440 0.930 . S
C454 C452 1.400 1_565 S
C454 C457 1.403 . S
C455 C452 1.399 1_655 S
C455 C456 1.524 . S
C455 C459 1.400 . S
C456 H441 0.960 . S
C456 H442 0.960 . S
C456 H443 0.960 . S
C456 C455 1.524 . S
C457 C454 1.403 . S
C457 C458 1.392 1_565 S
C457 C461 1.495 . S
C458 C457 1.392 1_545 S
C458 C459 1.385 1_455 S
C458 C460 1.478 . S
C459 H453 0.930 . S
C459 C455 1.400 . S
C459 C458 1.385 1_655 S
C460 C458 1.478 . S
C460 C462 1.381 . S
C460 C466 1.383 1_455 S
C461 C457 1.495 . S
C461 H467 0.959 . S
C461 H468 0.961 . S
C461 H469 0.960 . S
C462 C460 1.381 . S
C462 C463 1.394 . S
C462 H470 0.930 . S
C463 C462 1.394 . S
C463 C464 1.383 1_455 S
C463 H471 0.929 . S
C464 C463 1.383 1_655 S
C464 C465 1.377 . S
C465 H449 0.928 1_545 S
C465 C464 1.377 . S
C465 C466 1.379 . S
C466 H450 0.931 1_545 S
C466 C460 1.383 1_655 S
C466 C465 1.379 . S
H467 C461 0.959 . S
H468 C461 0.961 . S
H469 C461 0.960 . S
H470 C462 0.930 . S
H471 C463 0.929 . S
H472 C480 0.929 . S
H473 C482 0.930 . S
H474 C484 0.930 . S
H475 C487 0.929 . S
H476 C490 0.930 . S
H477 C492 0.960 . S
H478 C492 0.960 . S
H479 C492 0.960 . S
C480 H472 0.929 . S
C480 C481 1.377 . S
C480 C482 1.384 . S
C481 C480 1.377 . S
C481 C487 1.390 . S
C482 H473 0.930 . S
C482 C480 1.384 . S
C482 C483 1.372 . S
C483 C482 1.372 . S
C483 C484 1.400 . S
C483 C488 1.490 . S
C484 H474 0.930 . S
C484 C483 1.400 . S
C484 C487 1.386 . S
H485 C501 0.930 . S
H486 C502 0.931 . S
C487 H475 0.929 . S
C487 C481 1.390 . S
C487 C484 1.386 . S
C488 C483 1.490 . S
C488 C490 1.395 . S
C488 C491 1.403 . S
H489 C495 0.930 . S
C490 H476 0.930 . S
C490 C488 1.395 . S
C490 C493 1.403 . S
C491 C488 1.403 . S
C491 C492 1.524 . S
C491 C495 1.400 . S
C492 H477 0.960 . S
C492 H478 0.960 . S
C492 H479 0.960 . S
C492 C491 1.524 . S
C493 C490 1.403 . S
C493 C494 1.392 . S
C493 C497 1.495 . S
C494 C493 1.392 . S
C494 C495 1.385 . S
C494 C496 1.478 . S
C495 H489 0.930 . S
C495 C491 1.400 . S
C495 C494 1.385 . S
C496 C494 1.478 . S
C496 C498 1.381 . S
C496 C502 1.383 . S
C497 C493 1.495 . S
C497 H503 0.959 . S
C497 H504 0.961 . S
C497 H505 0.960 . S
C498 C496 1.381 . S
C498 C499 1.394 . S
C498 H506 0.930 . S
C499 C498 1.394 . S
C499 C500 1.383 . S
C499 H507 0.929 . S
C500 C499 1.383 . S
C500 C501 1.377 . S
C501 H485 0.930 . S
C501 C500 1.377 . S
C501 C502 1.379 . S
C502 H486 0.931 . S
C502 C496 1.383 . S
C502 C501 1.379 . S
H503 C497 0.959 . S
H504 C497 0.961 . S
H505 C497 0.960 . S
H506 C498 0.930 . S
H507 C499 0.929 . S
H508 C516 0.929 . S
H509 C518 0.930 . S
H510 C520 0.930 . S
H511 C523 0.929 . S
H512 C526 0.930 . S
H513 C528 0.960 . S
H514 C528 0.960 . S
H515 C528 0.960 . S
C516 H508 0.929 . S
C516 C517 1.377 . S
C516 C518 1.384 . S
C517 C516 1.377 . S
C517 C523 1.390 . S
C518 H509 0.930 . S
C518 C516 1.384 . S
C518 C519 1.372 . S
C519 C518 1.372 . S
C519 C520 1.400 . S
C519 C524 1.490 . S
C520 H510 0.930 . S
C520 C519 1.400 . S
C520 C523 1.386 . S
H521 C537 0.930 . S
H522 C538 0.931 . S
C523 H511 0.929 . S
C523 C517 1.390 . S
C523 C520 1.386 . S
C524 C519 1.490 . S
C524 C526 1.395 . S
C524 C527 1.403 . S
H525 C531 0.930 . S
C526 H512 0.930 . S
C526 C524 1.395 . S
C526 C529 1.403 . S
C527 C524 1.403 . S
C527 C528 1.524 . S
C527 C531 1.400 . S
C528 H513 0.960 . S
C528 H514 0.960 . S
C528 H515 0.960 . S
C528 C527 1.524 . S
C529 C526 1.403 . S
C529 C530 1.392 . S
C529 C533 1.495 . S
C530 C529 1.392 . S
C530 C531 1.385 . S
C530 C532 1.478 . S
C531 H525 0.930 . S
C531 C527 1.400 . S
C531 C530 1.385 . S
C532 C530 1.478 . S
C532 C534 1.381 . S
C532 C538 1.383 . S
C533 C529 1.495 . S
C533 H539 0.959 . S
C533 H540 0.961 . S
C533 H541 0.960 . S
C534 C532 1.381 . S
C534 C535 1.394 . S
C534 H542 0.930 . S
C535 C534 1.394 . S
C535 C536 1.383 . S
C535 H543 0.929 . S
C536 C535 1.383 . S
C536 C537 1.377 . S
C537 H521 0.930 . S
C537 C536 1.377 . S
C537 C538 1.379 . S
C538 H522 0.931 . S
C538 C532 1.383 . S
C538 C537 1.379 . S
H539 C533 0.959 . S
H540 C533 0.961 . S
H541 C533 0.960 . S
H542 C534 0.930 . S
H543 C535 0.929 . S
C140 C105 1.450 . S
C121 C29 1.464 . S
C157 C8 1.352 . S
C176 C100 1.284 . S
C193 C0 1.356 . S
C212 C111 1.332 . S
C229 C17 1.468 . S
C248 C94 1.438 . S
C265 C63 1.463 . S
C284 C83 1.436 . S
C301 C42 1.348 . S
C320 C78 1.338 . S
C356 C89 1.326 . S
C337 C34 1.358 . S
C392 C72 1.432 . S
C373 C51 1.468 . S
C409 C4 1.517 . S
C428 C73 1.510 . S
C445 C13 1.510 . S
C464 C84 1.495 . S
C500 C95 1.505 . S
C481 C38 1.515 . S
C517 C47 1.509 . S
C536 C106 1.507 . S
