# Generated by pormake.
# Topology pto, (3,4)-cn, num edge types: 1
# Building blocks:
#     Node 0, Type 0, BuildingBlock: PAMTOO_clean_linker_0, # of connection points: 3
#     Node 1, Type 0, BuildingBlock: PAMTOO_clean_linker_0, # of connection points: 3
#     Node 2, Type 0, BuildingBlock: PAMTOO_clean_linker_0, # of connection points: 3
#     Node 3, Type 0, BuildingBlock: PAMTOO_clean_linker_0, # of connection points: 3
#     Node 4, Type 0, BuildingBlock: PAMTOO_clean_linker_0, # of connection points: 3
#     Node 5, Type 0, BuildingBlock: PAMTOO_clean_linker_0, # of connection points: 3
#     Node 6, Type 0, BuildingBlock: PAMTOO_clean_linker_0, # of connection points: 3
#     Node 7, Type 0, BuildingBlock: PAMTOO_clean_linker_0, # of connection points: 3
#     Node 8, Type 1, BuildingBlock: NAWXER_clean_sbu_0, # of connection points: 4
#     Node 9, Type 1, BuildingBlock: NAWXER_clean_sbu_0, # of connection points: 4
#     Node 10, Type 1, BuildingBlock: NAWXER_clean_sbu_0, # of connection points: 4
#     Node 11, Type 1, BuildingBlock: NAWXER_clean_sbu_0, # of connection points: 4
#     Node 12, Type 1, BuildingBlock: NAWXER_clean_sbu_0, # of connection points: 4
#     Node 13, Type 1, BuildingBlock: NAWXER_clean_sbu_0, # of connection points: 4
#     Edge 14, Type (0, 1), BuildingBlock: MIFKUJ_clean_linker_0, # of connection points: 2
#     Edge 15, Type (0, 1), BuildingBlock: MIFKUJ_clean_linker_0, # of connection points: 2
#     Edge 16, Type (0, 1), BuildingBlock: MIFKUJ_clean_linker_0, # of connection points: 2
#     Edge 17, Type (0, 1), BuildingBlock: MIFKUJ_clean_linker_0, # of connection points: 2
#     Edge 18, Type (0, 1), BuildingBlock: MIFKUJ_clean_linker_0, # of connection points: 2
#     Edge 19, Type (0, 1), BuildingBlock: MIFKUJ_clean_linker_0, # of connection points: 2
#     Edge 20, Type (0, 1), BuildingBlock: MIFKUJ_clean_linker_0, # of connection points: 2
#     Edge 21, Type (0, 1), BuildingBlock: MIFKUJ_clean_linker_0, # of connection points: 2
#     Edge 22, Type (0, 1), BuildingBlock: MIFKUJ_clean_linker_0, # of connection points: 2
#     Edge 23, Type (0, 1), BuildingBlock: MIFKUJ_clean_linker_0, # of connection points: 2
#     Edge 24, Type (0, 1), BuildingBlock: MIFKUJ_clean_linker_0, # of connection points: 2
#     Edge 25, Type (0, 1), BuildingBlock: MIFKUJ_clean_linker_0, # of connection points: 2
#     Edge 26, Type (0, 1), BuildingBlock: MIFKUJ_clean_linker_0, # of connection points: 2
#     Edge 27, Type (0, 1), BuildingBlock: MIFKUJ_clean_linker_0, # of connection points: 2
#     Edge 28, Type (0, 1), BuildingBlock: MIFKUJ_clean_linker_0, # of connection points: 2
#     Edge 29, Type (0, 1), BuildingBlock: MIFKUJ_clean_linker_0, # of connection points: 2
#     Edge 30, Type (0, 1), BuildingBlock: MIFKUJ_clean_linker_0, # of connection points: 2
#     Edge 31, Type (0, 1), BuildingBlock: MIFKUJ_clean_linker_0, # of connection points: 2
#     Edge 32, Type (0, 1), BuildingBlock: MIFKUJ_clean_linker_0, # of connection points: 2
#     Edge 33, Type (0, 1), BuildingBlock: MIFKUJ_clean_linker_0, # of connection points: 2
#     Edge 34, Type (0, 1), BuildingBlock: MIFKUJ_clean_linker_0, # of connection points: 2
#     Edge 35, Type (0, 1), BuildingBlock: MIFKUJ_clean_linker_0, # of connection points: 2
#     Edge 36, Type (0, 1), BuildingBlock: MIFKUJ_clean_linker_0, # of connection points: 2
#     Edge 37, Type (0, 1), BuildingBlock: MIFKUJ_clean_linker_0, # of connection points: 2
# Relax obj value: 0.015
# Max RMSD: 0.153
# Mean RMSD: 0.066
data_MOF--net-pto--node1-NAWXER_clean_sbu_0--node2-PAMTOO_clean_linker_0--edge1-MIFKUJ_clean_linker_0
_symmetry_space_group_name_H-M    P1
_symmetry_Int_Tables_number       1
_symmetry_cell_setting            triclinic
loop_
_symmetry_equiv_pos_as_xyz
'x, y, z'
_cell_length_a     56.987967
_cell_length_b     51.511525
_cell_length_c     49.681185
_cell_angle_alpha  82.241111
_cell_angle_beta   84.02929
_cell_angle_gamma 99.618482
loop_
_atom_site_label
_atom_site_type_symbol
_atom_site_fract_x
_atom_site_fract_y
_atom_site_fract_z
_atom_type_partial_charge
H0 H 0.18948 0.3192 0.3458 0.0
H1 H 0.2449 0.28515 0.30528 0.0
H2 H 0.22149 0.35201 0.26296 0.0
H3 H 0.23514 0.31566 0.226 0.0
C4 C 0.24641 0.30521 0.23913 0.0
O5 O 0.25145 0.31912 0.26033 0.0
H6 H 0.23619 0.2848 0.24739 0.0
C7 C 0.20183 0.31882 0.3278 0.0
C8 C 0.20333 0.33806 0.30429 0.0
C9 C 0.2168 0.29963 0.32855 0.0
C10 C 0.23335 0.29986 0.30543 0.0
C11 C 0.23501 0.3188 0.28207 0.0
C12 C 0.22009 0.33776 0.28146 0.0
H13 H 0.21232 0.78641 0.82993 0.0
H14 H 0.25262 0.7473 0.88648 0.0
H15 H 0.28012 0.82733 0.84722 0.0
H16 H 0.31528 0.79115 0.84764 0.0
C17 C 0.30824 0.77799 0.86749 0.0
O18 O 0.28881 0.78684 0.87972 0.0
H19 H 0.3026 0.75734 0.86327 0.0
C20 C 0.22763 0.78691 0.8412 0.0
C21 C 0.24552 0.81002 0.83674 0.0
C22 C 0.22982 0.76405 0.85913 0.0
C23 C 0.25043 0.76451 0.87248 0.0
C24 C 0.2686 0.78713 0.86773 0.0
C25 C 0.26604 0.80987 0.85022 0.0
H26 H 0.70507 0.77227 0.30588 0.0
H27 H 0.75016 0.72242 0.27165 0.0
H28 H 0.77557 0.77103 0.32963 0.0
H29 H 0.81097 0.7696 0.2826 0.0
C30 C 0.80516 0.7486 0.2795 0.0
O31 O 0.78579 0.73647 0.29864 0.0
H32 H 0.79995 0.74892 0.25849 0.0
C33 C 0.72177 0.76486 0.30444 0.0
C34 C 0.73958 0.77382 0.32044 0.0
C35 C 0.72535 0.74654 0.28644 0.0
C36 C 0.74704 0.73689 0.2849 0.0
C37 C 0.76497 0.74578 0.30047 0.0
C38 C 0.76127 0.76415 0.3181 0.0
H39 H 0.75463 0.29378 0.83111 0.0
H40 H 0.71454 0.23535 0.79076 0.0
H41 H 0.78902 0.26515 0.76259 0.0
H42 H 0.75911 0.25918 0.71788 0.0
C43 C 0.74438 0.24309 0.72883 0.0
O44 O 0.75023 0.23379 0.75417 0.0
H45 H 0.72774 0.25168 0.73132 0.0
C46 C 0.75387 0.28069 0.81576 0.0
C47 C 0.77466 0.28112 0.79765 0.0
C48 C 0.73197 0.26432 0.81361 0.0
C49 C 0.73106 0.24838 0.79277 0.0
C50 C 0.75151 0.24899 0.7743 0.0
C51 C 0.77326 0.2652 0.7768 0.0
H52 H 0.75371 0.80894 0.81227 0.0
H53 H 0.77892 0.74952 0.86551 0.0
H54 H 0.81325 0.77408 0.78279 0.0
H55 H 0.79231 0.71419 0.80975 0.0
C56 C 0.80496 0.71558 0.8254 0.0
O57 O 0.81228 0.7419 0.82836 0.0
H58 H 0.79538 0.70435 0.84526 0.0
C59 C 0.76602 0.79522 0.81557 0.0
C60 C 0.78391 0.79385 0.79435 0.0
C61 C 0.76411 0.77942 0.84131 0.0
C62 C 0.78039 0.76213 0.84588 0.0
C63 C 0.79785 0.76004 0.82461 0.0
C64 C 0.79975 0.77604 0.79906 0.0
H65 H 0.78901 0.2997 0.31722 0.0
H66 H 0.72927 0.27358 0.27477 0.0
H67 H 0.76204 0.35634 0.26249 0.0
H68 H 0.71025 0.3477 0.26757 0.0
C69 C 0.70636 0.32849 0.25955 0.0
O70 O 0.72759 0.32132 0.24998 0.0
H71 H 0.6965 0.31314 0.27675 0.0
C72 C 0.77646 0.30402 0.303 0.0
C73 C 0.77765 0.3304 0.29058 0.0
C74 C 0.75931 0.28321 0.2973 0.0
C75 C 0.74278 0.28925 0.27934 0.0
C76 C 0.74375 0.3156 0.26692 0.0
C77 C 0.7614 0.33605 0.2722 0.0
H78 H 0.23474 0.3364 0.73394 0.0
H79 H 0.26042 0.38403 0.7934 0.0
H80 H 0.29887 0.32453 0.76943 0.0
H81 H 0.28446 0.32698 0.83022 0.0
C82 C 0.29191 0.34864 0.82858 0.0
O83 O 0.29675 0.36039 0.80146 0.0
H84 H 0.2781 0.35788 0.83933 0.0
C85 C 0.24811 0.34194 0.74715 0.0
C86 C 0.26729 0.32801 0.74926 0.0
C87 C 0.24535 0.36213 0.76304 0.0
C88 C 0.26217 0.36853 0.78098 0.0
C89 C 0.28121 0.35476 0.78336 0.0
C90 C 0.28385 0.33474 0.76746 0.0
H91 H 0.23609 0.7956 0.41474 0.0
H92 H 0.26862 0.75913 0.351 0.0
H93 H 0.30474 0.83323 0.36914 0.0
H94 H 0.30401 0.82998 0.31136 0.0
C95 C 0.30557 0.8087 0.31145 0.0
O96 O 0.30653 0.79678 0.3378 0.0
H97 H 0.28944 0.79862 0.30355 0.0
C98 C 0.25076 0.79591 0.3989 0.0
C99 C 0.27062 0.81704 0.39423 0.0
C100 C 0.24991 0.7748 0.38356 0.0
C101 C 0.26914 0.77494 0.3634 0.0
C102 C 0.28873 0.79607 0.35824 0.0
C103 C 0.28957 0.81687 0.37373 0.0
C104 C 0.97841 0.51748 0.34051 0.0
C105 C 0.04409 0.58488 0.35773 0.0
O106 O 0.98389 0.52226 0.36377 0.0
Zn107 Zn 0.01092 0.55079 0.34997 0.0
O108 O 0.99078 0.53116 0.31859 0.0
Zn109 Zn 0.02093 0.56332 0.30697 0.0
O110 O 0.04414 0.54705 0.28697 0.0
O111 O 0.03577 0.52969 0.33077 0.0
O112 O 0.04247 0.58479 0.33221 0.0
O113 O 0.02932 0.5683 0.37546 0.0
O114 O 0.99306 0.58101 0.33181 0.0
O115 O 0.00644 0.59055 0.28768 0.0
C116 C 0.04704 0.53016 0.30693 0.0
C117 C 0.9927 0.59426 0.30811 0.0
C118 C 0.97846 0.47998 0.82004 0.0
C119 C 0.04279 0.55024 0.83507 0.0
O120 O 0.98552 0.48453 0.84268 0.0
Zn121 Zn 0.01068 0.515 0.82831 0.0
O122 O 0.98878 0.4949 0.79777 0.0
Zn123 Zn 0.01712 0.52877 0.78529 0.0
O124 O 0.04035 0.51506 0.76226 0.0
O125 O 0.03702 0.4981 0.80598 0.0
O126 O 0.03971 0.55074 0.8098 0.0
O127 O 0.02965 0.53243 0.85318 0.0
O128 O 0.99121 0.54521 0.81403 0.0
O129 O 1.00042 0.55568 0.76917 0.0
C130 C 0.04682 0.49972 0.78124 0.0
C131 C 0.98884 0.55907 0.79134 0.0
C132 C 0.23475 0.02769 0.6274 0.0
C133 C 0.22897 0.09158 0.54704 0.0
O134 O 0.21583 0.03425 0.61928 0.0
Zn135 Zn 0.2312 0.05974 0.58722 0.0
O136 O 0.25522 0.03883 0.6141 0.0
Zn137 Zn 0.26934 0.06784 0.57882 0.0
O138 O 0.28799 0.09597 0.59407 0.0
O139 O 0.24879 0.09302 0.60388 0.0
O140 O 0.25067 0.08966 0.55051 0.0
O141 O 0.21169 0.07728 0.56368 0.0
O142 O 0.24638 0.03522 0.5609 0.0
O143 O 0.28579 0.04747 0.55567 0.0
C144 C 0.2703 0.10459 0.60508 0.0
C145 C 0.26723 0.03248 0.55052 0.0
C146 C 0.54674 0.73494 0.10885 0.0
C147 C 0.49302 0.75655 0.04247 0.0
O148 O 0.53346 0.71876 0.09721 0.0
Zn149 Zn 0.52029 0.74542 0.07518 0.0
O150 O 0.54754 0.76006 0.10287 0.0
Zn151 Zn 0.53211 0.78655 0.07582 0.0
O152 O 0.51625 0.80519 0.10113 0.0
O153 O 0.50005 0.76257 0.10527 0.0
O154 O 0.50515 0.77745 0.04927 0.0
O155 O 0.49641 0.73367 0.05258 0.0
O156 O 0.55061 0.76396 0.04563 0.0
O157 O 0.56012 0.80597 0.0515 0.0
C158 C 0.50038 0.78546 0.11292 0.0
C159 C 0.56421 0.78691 0.03903 0.0
C160 C 0.76942 0.97853 0.55765 0.0
C161 C 0.76169 0.0449 0.48052 0.0
O162 O 0.74757 0.98034 0.55496 0.0
Zn163 Zn 0.7281 0.003 0.52854 0.0
O164 O 0.78638 0.9935 0.5411 0.0
Zn165 Zn 0.76634 0.01176 0.51903 0.0
O166 O 0.75162 0.03472 0.54708 0.0
O167 O 0.7122 0.02257 0.55351 0.0
O168 O 0.78097 0.03858 0.48784 0.0
O169 O 0.74149 0.03308 0.49402 0.0
O170 O 0.70939 0.97568 0.5121 0.0
O171 O 0.74853 0.97995 0.5007 0.0
C172 C 0.73106 0.03713 0.55858 0.0
C173 C 0.72707 0.96821 0.49951 0.0
C174 C 0.53747 0.33886 0.06379 0.0
C175 C 0.48352 0.34509 0.99369 0.0
O176 O 0.52624 0.31607 0.06028 0.0
Zn177 Zn 0.50024 0.30044 0.03551 0.0
O178 O 0.53343 0.35989 0.04992 0.0
Zn179 Zn 0.51024 0.34267 0.02897 0.0
O180 O 0.47958 0.32673 0.05901 0.0
O181 O 0.47305 0.28296 0.06207 0.0
O182 O 0.4963 0.36431 0.00207 0.0
O183 O 0.4837 0.32103 0.00434 0.0
O184 O 0.51758 0.27893 0.01487 0.0
O185 O 0.5319 0.32209 0.00406 0.0
C186 C 0.46714 0.30384 0.06962 0.0
C187 C 0.53285 0.29799 1.00069 0.0
H188 H 0.21491 0.3907 0.28073 0.0
H189 H 0.18883 0.42368 0.27806 0.0
H190 H 0.13038 0.36547 0.32454 0.0
H191 H 0.15598 0.33184 0.32589 0.0
H192 H 0.11429 0.39234 0.28443 0.0
H193 H 0.16328 0.41616 0.35319 0.0
H194 H 0.20088 0.42801 0.37286 0.0
H195 H 0.22223 0.49741 0.3113 0.0
H196 H 0.18488 0.48578 0.29101 0.0
H197 H 0.04352 0.48112 0.33663 0.0
H198 H 0.07067 0.44942 0.33215 0.0
H199 H 0.11445 0.50389 0.26516 0.0
H200 H 0.08685 0.5356 0.26902 0.0
H201 H 0.13864 0.48073 0.31259 0.0
H202 H 0.08765 0.45652 0.24543 0.0
H203 H 0.04893 0.44437 0.22813 0.0
H204 H 0.0301 0.37525 0.29032 0.0
H205 H 0.06863 0.38719 0.30823 0.0
C206 C 0.19643 0.38474 0.29012 0.0
C207 C 0.1876 0.3585 0.30351 0.0
C208 C 0.1816 0.40379 0.28888 0.0
C209 C 0.15769 0.39723 0.30142 0.0
C210 C 0.14878 0.37107 0.31476 0.0
C211 C 0.16354 0.35191 0.31579 0.0
C212 C 0.14191 0.41755 0.30043 0.0
C213 C 0.11957 0.41154 0.29087 0.0
C214 C 0.14891 0.4429 0.30827 0.0
C215 C 0.1714 0.44993 0.3204 0.0
C216 C 0.17608 0.43383 0.3437 0.0
C217 C 0.19734 0.44053 0.35499 0.0
C218 C 0.21397 0.4634 0.34329 0.0
C219 C 0.20935 0.47967 0.32031 0.0
C220 C 0.18813 0.47304 0.30892 0.0
C221 C 0.05885 0.48632 0.32083 0.0
C222 C 0.0631 0.51083 0.30317 0.0
C223 C 0.07429 0.46817 0.31827 0.0
C224 C 0.09449 0.47436 0.29834 0.0
C225 C 0.09889 0.49881 0.28064 0.0
C226 C 0.0831 0.51679 0.28279 0.0
C227 C 0.11122 0.45536 0.29672 0.0
C228 C 0.1336 0.46159 0.30593 0.0
C229 C 0.10416 0.43012 0.28892 0.0
C230 C 0.08093 0.42289 0.27832 0.0
C231 C 0.07516 0.43887 0.25559 0.0
C232 C 0.05328 0.43199 0.24563 0.0
C233 C 0.03706 0.40907 0.25813 0.0
C234 C 0.04269 0.393 0.28065 0.0
C235 C 0.06456 0.3998 0.2907 0.0
H236 H 0.02018 0.40374 0.25029 0.0
H237 H 0.23041 0.46856 0.35206 0.0
H238 H 0.18098 0.76047 0.86238 0.0
H239 H 0.15055 0.72059 0.86492 0.0
H240 H 0.20521 0.67194 0.86868 0.0
H241 H 0.23596 0.71191 0.86439 0.0
H242 H 0.17792 0.65661 0.83427 0.0
H243 H 0.16305 0.67254 0.92553 0.0
H244 H 0.15573 0.69827 0.96296 0.0
H245 H 0.09002 0.71303 0.93409 0.0
H246 H 0.0971 0.6877 0.89624 0.0
H247 H 0.05904 0.5526 0.88517 0.0
H248 H 0.09216 0.58507 0.89588 0.0
H249 H 0.10223 0.6257 0.81257 0.0
H250 H 0.06977 0.59341 0.80164 0.0
H251 H 0.09995 0.63829 0.89436 0.0
H252 H 0.16011 0.6468 0.79 0.0
H253 H 0.16877 0.618 0.75579 0.0
H254 H 0.14716 0.54867 0.81741 0.0
H255 H 0.13872 0.57705 0.85207 0.0
C256 C 0.18659 0.74132 0.86362 0.0
C257 C 0.211 0.73951 0.86302 0.0
C258 C 0.16908 0.71843 0.86551 0.0
C259 C 0.17549 0.69314 0.86737 0.0
C260 C 0.19977 0.6912 0.86738 0.0
C261 C 0.21734 0.71411 0.86518 0.0
C262 C 0.15705 0.66901 0.86731 0.0
C263 C 0.16097 0.65254 0.84759 0.0
C264 C 0.13512 0.66314 0.88513 0.0
C265 C 0.1307 0.67834 0.90793 0.0
C266 C 0.14712 0.68142 0.92705 0.0
C267 C 0.143 0.69592 0.94836 0.0
C268 C 0.12244 0.70732 0.95088 0.0
C269 C 0.10593 0.70419 0.93211 0.0
C270 C 0.10997 0.68973 0.91075 0.0
C271 C 0.06832 0.56849 0.86919 0.0
C272 C 0.0619 0.57025 0.84249 0.0
C273 C 0.08719 0.58703 0.87534 0.0
C274 C 0.09994 0.60751 0.8549 0.0
C275 C 0.09302 0.60972 0.82853 0.0
C276 C 0.07435 0.59124 0.82235 0.0
C277 C 0.12059 0.62674 0.86067 0.0
C278 C 0.11707 0.64223 0.88138 0.0
C279 C 0.14317 0.63128 0.84427 0.0
C280 C 0.14863 0.61408 0.82361 0.0
C281 C 0.15735 0.62543 0.7963 0.0
C282 C 0.16219 0.60917 0.77681 0.0
C283 C 0.15847 0.58152 0.78441 0.0
C284 C 0.14997 0.57008 0.81153 0.0
C285 C 0.14513 0.58625 0.8311 0.0
H286 H 0.1622 0.56897 0.76929 0.0
H287 H 0.11929 0.71854 0.96739 0.0
H288 H 0.81009 0.70211 0.26069 0.0
H289 H 0.84282 0.67694 0.26522 0.0
H290 H 0.87787 0.73538 0.30964 0.0
H291 H 0.84523 0.76061 0.30492 0.0
H292 H 0.90973 0.72202 0.27191 0.0
H293 H 0.84755 0.67645 0.34334 0.0
H294 H 0.80672 0.65324 0.36302 0.0
H295 H 0.81206 0.59251 0.31257 0.0
H296 H 0.85281 0.61558 0.2923 0.0
H297 H 0.96141 0.60602 0.34804 0.0
H298 H 0.9309 0.63363 0.34277 0.0
H299 H 0.95333 0.6511 0.25562 0.0
H300 H 0.98423 0.62354 0.26073 0.0
H301 H 0.89307 0.6272 0.31552 0.0
H302 H 0.94311 0.7141 0.23268 0.0
H303 H 0.98442 0.73835 0.21678 0.0
H304 H 0.00424 0.71824 0.29698 0.0
H305 H 0.963 0.6942 0.31344 0.0
C306 C 0.82488 0.70955 0.27129 0.0
C307 C 0.82538 0.73339 0.28216 0.0
C308 C 0.84349 0.69517 0.27396 0.0
C309 C 0.86278 0.70426 0.28782 0.0
C310 C 0.86325 0.72809 0.29872 0.0
C311 C 0.84462 0.74244 0.29609 0.0
C312 C 0.88233 0.68878 0.29124 0.0
C313 C 0.90609 0.70126 0.28138 0.0
C314 C 0.87763 0.66181 0.30393 0.0
C315 C 0.85313 0.64789 0.3161 0.0
C316 C 0.83994 0.65827 0.33628 0.0
C317 C 0.81682 0.64512 0.34757 0.0
C318 C 0.80677 0.62146 0.339 0.0
C319 C 0.81985 0.61086 0.31916 0.0
C320 C 0.84296 0.62396 0.30777 0.0
C321 C 0.96005 0.61586 0.32772 0.0
C322 C 0.97531 0.61254 0.30478 0.0
C323 C 0.94249 0.63157 0.32476 0.0
C324 C 0.93982 0.64446 0.29883 0.0
C325 C 0.95522 0.64154 0.27587 0.0
C326 C 0.97285 0.62576 0.27882 0.0
C327 C 0.92048 0.66035 0.29597 0.0
C328 C 0.89672 0.64791 0.30589 0.0
C329 C 0.92524 0.68747 0.28378 0.0
C330 C 0.95004 0.70211 0.27418 0.0
C331 C 0.95627 0.71493 0.24693 0.0
C332 C 0.97968 0.72863 0.23782 0.0
C333 C 0.99696 0.72975 0.25583 0.0
C334 C 0.99087 0.71726 0.28302 0.0
C335 C 0.96749 0.70356 0.29224 0.0
H336 H 0.01507 0.74035 0.24873 0.0
H337 H 0.78888 0.6113 0.34778 0.0
H338 H 0.8071 0.31311 0.75698 0.0
H339 H 0.84336 0.34398 0.76217 0.0
H340 H 0.83015 0.31971 0.84979 0.0
H341 H 0.79389 0.28887 0.84474 0.0
H342 H 0.83971 0.37241 0.83749 0.0
H343 H 0.87588 0.30093 0.81024 0.0
H344 H 0.88392 0.26746 0.78109 0.0
H345 H 0.91168 0.32968 0.71316 0.0
H346 H 0.90349 0.36353 0.7418 0.0
H347 H 0.95116 0.44485 0.8629 0.0
H348 H 0.91786 0.40875 0.86049 0.0
H349 H 0.92697 0.42916 0.77246 0.0
H350 H 0.96033 0.46492 0.77463 0.0
H351 H 0.92037 0.37642 0.78701 0.0
H352 H 0.87988 0.44667 0.81131 0.0
H353 H 0.86984 0.48083 0.8385 0.0
H354 H 0.85009 0.4216 0.91049 0.0
H355 H 0.85978 0.38695 0.88357 0.0
C356 C 0.81213 0.31404 0.77731 0.0
C357 C 0.79757 0.2986 0.80045 0.0
C358 C 0.83287 0.3317 0.78026 0.0
C359 C 0.83959 0.33405 0.80638 0.0
C360 C 0.8253 0.3183 0.82945 0.0
C361 C 0.80455 0.30074 0.82653 0.0
C362 C 0.86081 0.35388 0.80979 0.0
C363 C 0.85744 0.37294 0.82684 0.0
C364 C 0.88383 0.35506 0.79537 0.0
C365 C 0.88887 0.33476 0.77812 0.0
C366 C 0.88353 0.30747 0.78903 0.0
C367 C 0.88814 0.28843 0.77261 0.0
C368 C 0.89825 0.29644 0.74528 0.0
C369 C 0.90383 0.32351 0.73433 0.0
C370 C 0.89922 0.34263 0.75066 0.0
C371 C 0.94609 0.44163 0.84304 0.0
C372 C 0.9584 0.45785 0.81898 0.0
C373 C 0.92698 0.42105 0.84169 0.0
C374 C 0.91976 0.41637 0.81629 0.0
C375 C 0.93222 0.43234 0.79227 0.0
C376 C 0.95126 0.45287 0.79359 0.0
C377 C 0.89919 0.39497 0.81458 0.0
C378 C 0.90267 0.37566 0.79786 0.0
C379 C 0.87622 0.39358 0.82917 0.0
C380 C 0.87082 0.41433 0.84553 0.0
C381 C 0.87359 0.44099 0.83299 0.0
C382 C 0.86791 0.46042 0.84834 0.0
C383 C 0.85953 0.45347 0.87627 0.0
C384 C 0.85665 0.42699 0.88887 0.0
C385 C 0.86215 0.40742 0.87356 0.0
H386 H 0.85515 0.46857 0.88812 0.0
H387 H 0.90181 0.28166 0.7326 0.0
H388 H 0.25389 0.28203 0.35167 0.0
H389 H 0.25162 0.24579 0.38948 0.0
H390 H 0.17437 0.23508 0.39983 0.0
H391 H 0.17644 0.27118 0.3615 0.0
H392 H 0.19465 0.23171 0.45017 0.0
H393 H 0.19829 0.19386 0.36704 0.0
H394 H 0.21461 0.19127 0.31972 0.0
H395 H 0.28245 0.18166 0.34615 0.0
H396 H 0.26664 0.1846 0.39358 0.0
H397 H 0.18601 0.10521 0.53543 0.0
H398 H 0.17981 0.13944 0.49879 0.0
H399 H 0.25587 0.15675 0.47113 0.0
H400 H 0.26216 0.12262 0.50717 0.0
H401 H 0.23089 0.15452 0.42877 0.0
H402 H 0.22945 0.19605 0.51017 0.0
H403 H 0.21471 0.19988 0.55768 0.0
H404 H 0.14451 0.20359 0.53505 0.0
H405 H 0.15875 0.19935 0.48747 0.0
C406 C 0.23638 0.27196 0.36189 0.0
C407 C 0.21533 0.27926 0.35327 0.0
C408 C 0.23513 0.25134 0.38361 0.0
C409 C 0.21282 0.23753 0.39719 0.0
C410 C 0.19176 0.24549 0.38956 0.0
C411 C 0.19299 0.26615 0.3677 0.0
C412 C 0.21173 0.214 0.41841 0.0
C413 C 0.20215 0.21459 0.44547 0.0
C414 C 0.22186 0.19187 0.41227 0.0
C415 C 0.23131 0.18964 0.38384 0.0
C416 C 0.21673 0.19136 0.36273 0.0
C417 C 0.22589 0.18981 0.3359 0.0
C418 C 0.24957 0.18635 0.32993 0.0
C419 C 0.26412 0.18435 0.35081 0.0
C420 C 0.25505 0.18592 0.37768 0.0
C421 C 0.20137 0.1162 0.52141 0.0
C422 C 0.22458 0.11121 0.52429 0.0
C423 C 0.19782 0.13584 0.50058 0.0
C424 C 0.21742 0.15082 0.48237 0.0
C425 C 0.24048 0.14544 0.48491 0.0
C426 C 0.24404 0.12593 0.50563 0.0
C427 C 0.21429 0.1724 0.46074 0.0
C428 C 0.22307 0.17144 0.4335 0.0
C429 C 0.2036 0.19422 0.46681 0.0
C430 C 0.19509 0.19706 0.49534 0.0
C431 C 0.21082 0.19747 0.51537 0.0
C432 C 0.20257 0.19975 0.5423 0.0
C433 C 0.17867 0.20189 0.54939 0.0
C434 C 0.163 0.20187 0.52954 0.0
C435 C 0.17115 0.19953 0.50259 0.0
H436 H 0.17231 0.20364 0.57025 0.0
H437 H 0.25664 0.18518 0.30913 0.0
H438 H 0.30381 0.75419 0.92095 0.0
H439 H 0.33555 0.75166 0.95054 0.0
H440 H 0.38773 0.79764 0.88496 0.0
H441 H 0.35608 0.80013 0.8554 0.0
H442 H 0.40366 0.75471 0.90894 0.0
H443 H 0.36849 0.82642 0.93787 0.0
H444 H 0.33559 0.84805 0.9547 0.0
H445 H 0.32003 0.79033 0.02809 0.0
H446 H 0.35265 0.76812 0.01151 0.0
H447 H 0.47864 0.80219 0.02122 0.0
H448 H 0.4478 0.80666 0.99113 0.0
H449 H 0.43478 0.72172 0.99126 0.0
H450 H 0.46573 0.71703 0.02132 0.0
H451 H 0.40015 0.78604 0.99919 0.0
H452 H 0.42034 0.71064 0.92769 0.0
H453 H 0.45473 0.69193 0.90946 0.0
H454 H 0.50308 0.76275 0.91849 0.0
H455 H 0.46896 0.78202 0.9364 0.0
C456 C 0.32203 0.76399 0.91306 0.0
C457 C 0.32747 0.77773 0.88611 0.0
C458 C 0.34012 0.76253 0.9299 0.0
C459 C 0.36398 0.77466 0.92002 0.0
C460 C 0.36945 0.78819 0.89302 0.0
C461 C 0.35136 0.78973 0.87622 0.0
C462 C 0.38332 0.77293 0.93767 0.0
C463 C 0.40287 0.76152 0.92869 0.0
C464 C 0.38245 0.78211 0.96328 0.0
C465 C 0.36286 0.79545 0.97332 0.0
C466 C 0.35793 0.81821 0.9575 0.0
C467 C 0.33935 0.8306 0.96701 0.0
C468 C 0.32569 0.82053 0.99241 0.0
C469 C 0.33061 0.79808 0.00839 0.0
C470 C 0.34915 0.7856 0.99896 0.0
C471 C 0.46932 0.78443 0.01478 0.0
C472 C 0.47472 0.75924 0.02364 0.0
C473 C 0.4516 0.78703 0.99767 0.0
C474 C 0.43907 0.76457 0.98885 0.0
C475 C 0.44441 0.73937 0.99761 0.0
C476 C 0.46207 0.73673 0.01483 0.0
C477 C 0.42034 0.76755 0.9706 0.0
C478 C 0.40089 0.77914 0.97948 0.0
C479 C 0.42147 0.75888 0.94473 0.0
C480 C 0.4421 0.74763 0.93365 0.0
C481 C 0.4383 0.72225 0.92569 0.0
C482 C 0.45775 0.71154 0.91542 0.0
C483 C 0.48108 0.7261 0.91291 0.0
C484 C 0.48501 0.75144 0.92055 0.0
C485 C 0.46562 0.76225 0.9308 0.0
H486 H 0.49611 0.71777 0.90498 0.0
H487 H 0.31132 0.83015 0.99975 0.0
H488 H 0.75479 0.77637 0.37093 0.0
H489 H 0.7485 0.80831 0.4016 0.0
H490 H 0.70721 0.84602 0.34509 0.0
H491 H 0.71522 0.81565 0.31317 0.0
H492 H 0.73313 0.8825 0.36315 0.0
H493 H 0.68107 0.80321 0.4077 0.0
H494 H 0.6687 0.75569 0.4274 0.0
H495 H 0.71842 0.76516 0.48617 0.0
H496 H 0.73135 0.81266 0.46658 0.0
H497 H 0.69073 0.95453 0.46907 0.0
H498 H 0.68788 0.91986 0.43927 0.0
H499 H 0.75233 0.89689 0.46531 0.0
H500 H 0.75573 0.93188 0.49418 0.0
H501 H 0.7088 0.85294 0.4629 0.0
H502 H 0.76299 0.93248 0.41159 0.0
H503 H 0.7721 0.98023 0.3921 0.0
H504 H 0.7124 0.96934 0.34607 0.0
H505 H 0.70273 0.92156 0.36568 0.0
C506 C 0.74467 0.79167 0.36474 0.0
C507 C 0.73546 0.7932 0.33947 0.0
C508 C 0.74069 0.80969 0.38261 0.0
C509 C 0.72685 0.82927 0.37607 0.0
C510 C 0.71777 0.831 0.35081 0.0
C511 C 0.72214 0.81331 0.33266 0.0
C512 C 0.72256 0.84845 0.39517 0.0
C513 C 0.72735 0.87585 0.38485 0.0
C514 C 0.71504 0.84005 0.42361 0.0
C515 C 0.70731 0.81147 0.43551 0.0
C516 C 0.68949 0.79512 0.4247 0.0
C517 C 0.68236 0.76819 0.43587 0.0
C518 C 0.6928 0.7574 0.45799 0.0
C519 C 0.71036 0.77354 0.46902 0.0
C520 C 0.71758 0.80048 0.45792 0.0
C521 C 0.70408 0.94184 0.46861 0.0
C522 C 0.72351 0.94589 0.48374 0.0
C523 C 0.70246 0.92214 0.45162 0.0
C524 C 0.71992 0.90591 0.45019 0.0
C525 C 0.73868 0.9092 0.46624 0.0
C526 C 0.74064 0.92924 0.48259 0.0
C527 C 0.71973 0.88654 0.43077 0.0
C528 C 0.71416 0.85925 0.44108 0.0
C529 C 0.726 0.89496 0.4023 0.0
C530 C 0.73195 0.92357 0.39037 0.0
C531 C 0.75167 0.94034 0.39754 0.0
C532 C 0.75696 0.96738 0.38642 0.0
C533 C 0.74278 0.97784 0.36793 0.0
C534 C 0.72333 0.96123 0.36045 0.0
C535 C 0.71794 0.93417 0.37155 0.0
H536 H 0.74691 0.99878 0.35934 0.0
H537 H 0.68725 0.73655 0.46661 0.0
H538 H 0.6855 0.26165 0.80231 0.0
H539 H 0.65009 0.26371 0.83357 0.0
H540 H 0.69361 0.27079 0.8992 0.0
H541 H 0.72878 0.26707 0.86856 0.0
H542 H 0.65286 0.2404 0.91863 0.0
H543 H 0.677 0.32588 0.86182 0.0
H544 H 0.68732 0.35717 0.81837 0.0
H545 H 0.61692 0.3321 0.79685 0.0
H546 H 0.60629 0.3004 0.84004 0.0
H547 H 0.57097 0.33374 0.97228 0.0
H548 H 0.60316 0.32531 0.94024 0.0
H549 H 0.57009 0.24226 0.95094 0.0
H550 H 0.53799 0.25044 0.98373 0.0
H551 H 0.60468 0.30948 0.89278 0.0
H552 H 0.61373 0.20466 0.94445 0.0
H553 H 0.607 0.17776 0.99054 0.0
H554 H 0.61713 0.24918 0.02693 0.0
H555 H 0.62423 0.27647 0.98107 0.0
C556 C 0.68749 0.26313 0.82351 0.0
C557 C 0.7101 0.26442 0.83281 0.0
C558 C 0.66724 0.26462 0.84131 0.0
C559 C 0.66923 0.26789 0.86864 0.0
C560 C 0.69161 0.2684 0.87818 0.0
C561 C 0.71179 0.2666 0.86051 0.0
C562 C 0.64825 0.27162 0.88718 0.0
C563 C 0.64226 0.25542 0.9129 0.0
C564 C 0.63461 0.29151 0.87997 0.0
C565 C 0.64094 0.31057 0.85401 0.0
C566 C 0.66378 0.3269 0.84773 0.0
C567 C 0.66968 0.34473 0.82316 0.0
C568 C 0.65281 0.34657 0.80483 0.0
C569 C 0.62998 0.33062 0.81105 0.0
C570 C 0.62401 0.31273 0.83557 0.0
C571 C 0.57048 0.31365 0.96785 0.0
C572 C 0.55195 0.29272 0.98069 0.0
C573 C 0.58889 0.30889 0.94942 0.0
C574 C 0.58919 0.28313 0.94331 0.0
C575 C 0.57046 0.26224 0.95566 0.0
C576 C 0.55208 0.26695 0.97433 0.0
C577 C 0.60933 0.27831 0.92426 0.0
C578 C 0.61513 0.29427 0.8984 0.0
C579 C 0.62325 0.25879 0.93169 0.0
C580 C 0.61921 0.24257 0.95935 0.0
C581 C 0.61458 0.2146 0.9623 0.0
C582 C 0.61069 0.19929 0.98837 0.0
C583 C 0.61155 0.21175 0.01165 0.0
C584 C 0.61638 0.23955 0.00889 0.0
C585 C 0.6203 0.25494 0.98287 0.0
H586 H 0.60852 0.19987 0.03181 0.0
H587 H 0.6574 0.36039 0.78582 0.0
H588 H 0.20479 0.83072 0.82975 0.0
H589 H 0.20042 0.86881 0.79674 0.0
H590 H 0.27602 0.88193 0.76748 0.0
H591 H 0.2805 0.84351 0.7999 0.0
H592 H 0.26005 0.92862 0.77538 0.0
H593 H 0.23661 0.85188 0.73153 0.0
H594 H 0.21295 0.80795 0.72841 0.0
H595 H 0.14794 0.83963 0.7365 0.0
H596 H 0.17121 0.88369 0.74007 0.0
H597 H 0.27214 0.00797 0.64702 0.0
H598 H 0.27089 0.97276 0.68528 0.0
H599 H 0.19391 0.96456 0.70091 0.0
H600 H 0.19494 0.99974 0.66192 0.0
H601 H 0.20682 0.91671 0.70332 0.0
H602 H 0.23021 0.99448 0.74317 0.0
H603 H 0.25362 0.0385 0.74641 0.0
H604 H 0.31797 0.00545 0.74671 0.0
H605 H 0.29501 0.9613 0.74307 0.0
C606 C 0.22048 0.84155 0.81615 0.0
C607 C 0.24299 0.83391 0.81745 0.0
C608 C 0.21795 0.86339 0.79738 0.0
C609 C 0.23786 0.87808 0.77954 0.0
C610 C 0.26043 0.87091 0.78114 0.0
C611 C 0.26297 0.84899 0.79979 0.0
C612 C 0.2352 0.90069 0.75886 0.0
C613 C 0.24857 0.92601 0.75948 0.0
C614 C 0.21961 0.89741 0.73868 0.0
C615 C 0.20562 0.87099 0.73639 0.0
C616 C 0.21725 0.84942 0.73288 0.0
C617 C 0.20392 0.82451 0.73099 0.0
C618 C 0.17895 0.82098 0.73234 0.0
C619 C 0.16727 0.84238 0.73551 0.0
C620 C 0.18053 0.86733 0.73745 0.0
C621 C 0.25489 0.99887 0.65862 0.0
C622 C 0.23362 0.00681 0.65144 0.0
C623 C 0.25424 0.97876 0.68064 0.0
C624 C 0.23236 0.96628 0.6963 0.0
C625 C 0.21102 0.97402 0.68919 0.0
C626 C 0.21164 0.99416 0.66697 0.0
C627 C 0.23201 0.94466 0.71951 0.0
C628 C 0.21808 0.91948 0.7194 0.0
C629 C 0.24701 0.9481 0.74027 0.0
C630 C 0.26089 0.9746 0.74265 0.0
C631 C 0.24938 0.99663 0.74374 0.0
C632 C 0.26257 0.0216 0.74567 0.0
C633 C 0.28727 0.02478 0.74672 0.0
C634 C 0.29883 0.00297 0.74589 0.0
C635 C 0.28573 0.97795 0.74393 0.0
H636 H 0.29745 0.04413 0.74821 0.0
H637 H 0.16866 0.80168 0.73087 0.0
H638 H 0.67626 0.73676 0.29943 0.0
H639 H 0.64604 0.72749 0.2691 0.0
H640 H 0.70164 0.72649 0.20347 0.0
H641 H 0.73211 0.73774 0.23313 0.0
H642 H 0.67211 0.75409 0.1846 0.0
H643 H 0.66187 0.66815 0.23813 0.0
H644 H 0.65598 0.63502 0.28012 0.0
H645 H 0.58815 0.65643 0.30454 0.0
H646 H 0.59378 0.68996 0.26287 0.0
H647 H 0.58528 0.71148 0.09873 0.0
H648 H 0.61577 0.7051 0.12939 0.0
H649 H 0.57332 0.73191 0.19351 0.0
H650 H 0.54334 0.73918 0.1626 0.0
H651 H 0.59746 0.68635 0.21068 0.0
H652 H 0.61065 0.77481 0.15729 0.0
H653 H 0.61699 0.80649 0.11422 0.0
H654 H 0.68161 0.77893 0.08897 0.0
H655 H 0.67497 0.74603 0.13121 0.0
C656 C 0.68214 0.73476 0.27851 0.0
C657 C 0.70673 0.73823 0.26876 0.0
C658 C 0.66475 0.72898 0.26126 0.0
C659 C 0.67147 0.72588 0.23402 0.0
C660 C 0.69596 0.72868 0.22441 0.0
C661 C 0.71339 0.73485 0.24154 0.0
C662 C 0.65305 0.72154 0.21513 0.0
C663 C 0.65607 0.73884 0.19011 0.0
C664 C 0.63186 0.70194 0.22238 0.0
C665 C 0.62834 0.68172 0.24744 0.0
C666 C 0.64577 0.66593 0.25254 0.0
C667 C 0.64247 0.64705 0.27627 0.0
C668 C 0.62173 0.64366 0.29501 0.0
C669 C 0.60422 0.65909 0.29001 0.0
C670 C 0.60744 0.67801 0.26632 0.0
C671 C 0.58222 0.7152 0.11965 0.0
C672 C 0.56203 0.72554 0.12859 0.0
C673 C 0.59961 0.71165 0.13705 0.0
C674 C 0.59673 0.71806 0.16365 0.0
C675 C 0.57573 0.72669 0.17312 0.0
C676 C 0.55868 0.73084 0.15553 0.0
C677 C 0.61667 0.7189 0.18051 0.0
C678 C 0.61381 0.70114 0.20511 0.0
C679 C 0.63815 0.73786 0.17276 0.0
C680 C 0.64202 0.75753 0.14721 0.0
C681 C 0.62593 0.77506 0.1423 0.0
C682 C 0.62957 0.79324 0.118 0.0
C683 C 0.64953 0.79448 0.09868 0.0
C684 C 0.66594 0.77763 0.10371 0.0
C685 C 0.6622 0.75915 0.12779 0.0
H686 H 0.65239 0.80863 0.07992 0.0
H687 H 0.6192 0.62904 0.31338 0.0
H688 H 0.77849 0.21746 0.70766 0.0
H689 H 0.77352 0.18187 0.67941 0.0
H690 H 0.69767 0.18308 0.68424 0.0
H691 H 0.70258 0.21827 0.71301 0.0
H692 H 0.70548 0.13278 0.68979 0.0
H693 H 0.73582 0.21319 0.62669 0.0
H694 H 0.76358 0.25538 0.60815 0.0
H695 H 0.82189 0.21293 0.59833 0.0
H696 H 0.79453 0.17051 0.61716 0.0
H697 H 0.69139 0.05534 0.57997 0.0
H698 H 0.69069 0.08999 0.60932 0.0
H699 H 0.76729 0.09802 0.60919 0.0
H700 H 0.76821 0.06416 0.57963 0.0
H701 H 0.75574 0.14523 0.59967 0.0
H702 H 0.72588 0.06516 0.66527 0.0
H703 H 0.69818 0.02298 0.68406 0.0
H704 H 0.63901 0.0647 0.68897 0.0
H705 H 0.66633 0.1071 0.66988 0.0
C706 C 0.76079 0.21001 0.70269 0.0
C707 C 0.74099 0.22074 0.71216 0.0
C708 C 0.75795 0.18981 0.6865 0.0
C709 C 0.73527 0.18013 0.67929 0.0
C710 C 0.71534 0.19032 0.68942 0.0
C711 C 0.71817 0.21046 0.70573 0.0
C712 C 0.73251 0.15964 0.66088 0.0
C713 C 0.71622 0.13563 0.6699 0.0
C714 C 0.74668 0.16323 0.63505 0.0
C715 C 0.76315 0.1887 0.62354 0.0
C716 C 0.75459 0.21288 0.62075 0.0
C717 C 0.77025 0.23683 0.61016 0.0
C718 C 0.79449 0.23684 0.60212 0.0
C719 C 0.80311 0.21289 0.60458 0.0
C720 C 0.78753 0.18889 0.61518 0.0
C721 C 0.70803 0.06442 0.58635 0.0
C722 C 0.72985 0.05704 0.57738 0.0
C723 C 0.7076 0.08416 0.60318 0.0
C724 C 0.72894 0.09656 0.61159 0.0
C725 C 0.75062 0.08889 0.60289 0.0
C726 C 0.75109 0.06943 0.58598 0.0
C727 C 0.72916 0.11804 0.62884 0.0
C728 C 0.74491 0.14237 0.6195 0.0
C729 C 0.7145 0.11469 0.65433 0.0
C730 C 0.6981 0.08923 0.66586 0.0
C731 C 0.70693 0.0653 0.67015 0.0
C732 C 0.69131 0.04136 0.6809 0.0
C733 C 0.66684 0.04115 0.68763 0.0
C734 C 0.65796 0.06489 0.6837 0.0
C735 C 0.6735 0.08887 0.67294 0.0
H736 H 0.65477 0.02259 0.69595 0.0
H737 H 0.80659 0.25541 0.59393 0.0
H738 H 0.26525 0.26078 0.23039 0.0
H739 H 0.30281 0.25891 0.20247 0.0
H740 H 0.31728 0.34473 0.18241 0.0
H741 H 0.27933 0.3465 0.20974 0.0
H742 H 0.32657 0.32345 0.13819 0.0
H743 H 0.34645 0.31077 0.23002 0.0
H744 H 0.34164 0.28953 0.27831 0.0
H745 H 0.35075 0.21501 0.2529 0.0
H746 H 0.35529 0.23572 0.20442 0.0
H747 H 0.44919 0.34514 0.08773 0.0
H748 H 0.41197 0.34319 0.11755 0.0
H749 H 0.3983 0.25739 0.1261 0.0
H750 H 0.43577 0.2591 0.09617 0.0
H751 H 0.38825 0.27653 0.17558 0.0
H752 H 0.36969 0.29064 0.08323 0.0
H753 H 0.37558 0.31308 0.03529 0.0
H754 H 0.36482 0.38642 0.0624 0.0
H755 H 0.35923 0.36452 0.11054 0.0
C756 C 0.27648 0.2792 0.21997 0.0
C757 C 0.2695 0.30381 0.22216 0.0
C758 C 0.29799 0.27814 0.20417 0.0
C759 C 0.31305 0.30171 0.19059 0.0
C760 C 0.30598 0.32629 0.19269 0.0
C761 C 0.2844 0.32732 0.20833 0.0
C762 C 0.33602 0.30079 0.17387 0.0
C763 C 0.34015 0.31346 0.14651 0.0
C764 C 0.35355 0.2872 0.18446 0.0
C765 C 0.35095 0.27473 0.21359 0.0
C766 C 0.34724 0.2898 0.23473 0.0
C767 C 0.34459 0.27787 0.26213 0.0
C768 C 0.34581 0.25092 0.26867 0.0
C769 C 0.34976 0.23587 0.2478 0.0
C770 C 0.3524 0.2477 0.22036 0.0
C771 C 0.43842 0.32579 0.09605 0.0
C772 C 0.4454 0.30226 0.08938 0.0
C773 C 0.41709 0.32474 0.11305 0.0
C774 C 0.40223 0.30018 0.12371 0.0
C775 C 0.4095 0.27656 0.11797 0.0
C776 C 0.43088 0.27758 0.10083 0.0
C777 C 0.37878 0.29941 0.14013 0.0
C778 C 0.37457 0.28642 0.16733 0.0
C779 C 0.36122 0.31284 0.12947 0.0
C780 C 0.36424 0.32598 0.10051 0.0
C781 C 0.36874 0.3116 0.07898 0.0
C782 C 0.37201 0.32422 0.05177 0.0
C783 C 0.37063 0.35117 0.0458 0.0
C784 C 0.36591 0.36555 0.06705 0.0
C785 C 0.36267 0.35303 0.0943 0.0
H786 H 0.37318 0.36091 0.02472 0.0
H787 H 0.34375 0.24171 0.28989 0.0
H788 H 0.85275 0.72878 0.83374 0.0
H789 H 0.88533 0.7048 0.82278 0.0
H790 H 0.83657 0.64817 0.78914 0.0
H791 H 0.80401 0.67222 0.79977 0.0
H792 H 0.86176 0.62437 0.82639 0.0
H793 H 0.87794 0.69167 0.74671 0.0
H794 H 0.88582 0.73763 0.72177 0.0
H795 H 0.9497 0.75567 0.75969 0.0
H796 H 0.94202 0.7099 0.78517 0.0
H797 H 0.97169 0.58517 0.74761 0.0
H798 H 0.942 0.61463 0.74934 0.0
H799 H 0.94009 0.60705 0.83709 0.0
H800 H 0.96913 0.57737 0.83565 0.0
H801 H 0.9394 0.66251 0.76844 0.0
H802 H 0.88289 0.60074 0.86595 0.0
H803 H 0.87586 0.55482 0.89096 0.0
H804 H 0.89176 0.52533 0.81558 0.0
H805 H 0.89831 0.57094 0.79008 0.0
C806 C 0.84909 0.71156 0.82348 0.0
C807 C 0.82594 0.70271 0.81698 0.0
C808 C 0.86772 0.69787 0.81726 0.0
C809 C 0.86341 0.67488 0.80487 0.0
C810 C 0.84031 0.66598 0.7985 0.0
C811 C 0.82178 0.67976 0.80449 0.0
C812 C 0.88253 0.65907 0.80017 0.0
C813 C 0.8787 0.63271 0.81365 0.0
C814 C 0.90456 0.66992 0.78342 0.0
C815 C 0.90928 0.69741 0.76804 0.0
C816 C 0.89356 0.70549 0.74991 0.0
C817 C 0.89801 0.7315 0.73564 0.0
C818 C 0.91822 0.74958 0.73919 0.0
C819 C 0.93405 0.74166 0.75698 0.0
C820 C 0.92967 0.71567 0.77132 0.0
C821 C 0.96504 0.58996 0.76722 0.0
C822 C 0.97248 0.57859 0.79153 0.0
C823 C 0.94818 0.60687 0.76816 0.0
C824 C 0.93856 0.61267 0.79339 0.0
C825 C 0.94693 0.60244 0.81746 0.0
C826 C 0.96354 0.58544 0.81657 0.0
C827 C 0.91871 0.62798 0.79501 0.0
C828 C 0.9224 0.65419 0.78105 0.0
C829 C 0.89643 0.61701 0.81126 0.0
C830 C 0.89129 0.58929 0.82616 0.0
C831 C 0.88464 0.58441 0.85469 0.0
C832 C 0.88076 0.55844 0.86896 0.0
C833 C 0.88342 0.53717 0.8549 0.0
C834 C 0.88971 0.54179 0.82649 0.0
C835 C 0.89349 0.56771 0.8121 0.0
H836 H 0.88062 0.51714 0.86607 0.0
H837 H 0.92163 0.76971 0.72813 0.0
H838 H 0.78718 0.34102 0.34095 0.0
H839 H 0.82032 0.37324 0.35167 0.0
H840 H 0.84333 0.39939 0.26535 0.0
H841 H 0.81003 0.36726 0.25452 0.0
H842 H 0.87999 0.38528 0.29667 0.0
H843 H 0.81836 0.43913 0.2992 0.0
H844 H 0.77864 0.44884 0.31454 0.0
H845 H 0.79396 0.44049 0.39777 0.0
H846 H 0.83367 0.43034 0.38295 0.0
H847 H 0.9653 0.50049 0.29383 0.0
H848 H 0.93057 0.46788 0.28881 0.0
H849 H 0.9095 0.45467 0.37621 0.0
H850 H 0.94441 0.48781 0.38149 0.0
H851 H 0.87153 0.46009 0.34809 0.0
H852 H 0.93257 0.40806 0.34755 0.0
H853 H 0.97196 0.39628 0.3347 0.0
H854 H 0.95773 0.3983 0.25134 0.0
H855 H 0.91836 0.41049 0.26359 0.0
C856 C 0.79918 0.35387 0.32429 0.0
C857 C 0.79614 0.35171 0.29691 0.0
C858 C 0.81802 0.37226 0.33043 0.0
C859 C 0.83423 0.38864 0.3093 0.0
C860 C 0.83097 0.38688 0.28192 0.0
C861 C 0.81191 0.36871 0.27577 0.0
C862 C 0.85523 0.40669 0.31577 0.0
C863 C 0.8782 0.40188 0.30757 0.0
C864 C 0.85273 0.42753 0.33108 0.0
C865 C 0.82889 0.43369 0.34 0.0
C866 C 0.81318 0.43912 0.3208 0.0
C867 C 0.79068 0.44475 0.3294 0.0
C868 C 0.78375 0.4452 0.35712 0.0
C869 C 0.79934 0.44009 0.3763 0.0
C870 C 0.82185 0.43442 0.36781 0.0
C871 C 0.9534 0.49064 0.31209 0.0
C872 C 0.95768 0.49675 0.3381 0.0
C873 C 0.93357 0.47187 0.30916 0.0
C874 C 0.91759 0.45864 0.33215 0.0
C875 C 0.92168 0.46464 0.35821 0.0
C876 C 0.94167 0.48347 0.3612 0.0
C877 C 0.89639 0.43904 0.32849 0.0
C878 C 0.87337 0.44344 0.33729 0.0
C879 C 0.89882 0.41753 0.31407 0.0
C880 C 0.92257 0.41041 0.30647 0.0
C881 C 0.93792 0.40625 0.32642 0.0
C882 C 0.96023 0.39944 0.31926 0.0
C883 C 0.96734 0.39657 0.29222 0.0
C884 C 0.95218 0.40054 0.27227 0.0
C885 C 0.92985 0.40737 0.27932 0.0
H886 H 0.98455 0.39116 0.28678 0.0
H887 H 0.76633 0.44958 0.36374 0.0
H888 H 0.22731 0.38267 0.71741 0.0
H889 H 0.1925 0.40494 0.71574 0.0
H890 H 0.18135 0.39441 0.80403 0.0
H891 H 0.21592 0.37206 0.80584 0.0
H892 H 0.13936 0.38042 0.78126 0.0
H893 H 0.20704 0.4535 0.76904 0.0
H894 H 0.24582 0.47986 0.7461 0.0
H895 H 0.2154 0.49329 0.67104 0.0
H896 H 0.1765 0.46667 0.69346 0.0
H897 H 0.06665 0.46922 0.81841 0.0
H898 H 0.09899 0.44486 0.81006 0.0
H899 H 0.10329 0.47049 0.72308 0.0
H900 H 0.07097 0.4957 0.73136 0.0
H901 H 0.1472 0.47481 0.73859 0.0
H902 H 0.07833 0.40603 0.75161 0.0
H903 H 0.03939 0.37974 0.7741 0.0
H904 H 0.0714 0.35738 0.84621 0.0
H905 H 0.11047 0.38386 0.82431 0.0
C906 C 0.21736 0.38505 0.73644 0.0
C907 C 0.2244 0.37576 0.76176 0.0
C908 C 0.19758 0.39787 0.73545 0.0
C909 C 0.18443 0.40143 0.75976 0.0
C910 C 0.19127 0.39188 0.78503 0.0
C911 C 0.21112 0.37931 0.78603 0.0
C912 C 0.16352 0.41511 0.75912 0.0
C913 C 0.14107 0.4011 0.77208 0.0
C914 C 0.16562 0.44179 0.74628 0.0
C915 C 0.18896 0.45783 0.73283 0.0
C916 C 0.20869 0.46187 0.74757 0.0
C917 C 0.23067 0.4769 0.73468 0.0
C918 C 0.23309 0.48817 0.7071 0.0
C919 C 0.21351 0.4845 0.69238 0.0
C920 C 0.19149 0.46946 0.70518 0.0
C921 C 0.07429 0.46963 0.79743 0.0
C922 C 0.06607 0.48432 0.77552 0.0
C923 C 0.09277 0.45554 0.79269 0.0
C924 C 0.10331 0.4554 0.76591 0.0
C925 C 0.09532 0.47018 0.74391 0.0
C926 C 0.07681 0.4845 0.74867 0.0
C927 C 0.12307 0.44031 0.76135 0.0
C928 C 0.14532 0.454 0.7474 0.0
C929 C 0.12076 0.41323 0.77313 0.0
C930 C 0.09732 0.39708 0.78635 0.0
C931 C 0.07704 0.39565 0.77233 0.0
C932 C 0.05494 0.38069 0.78496 0.0
C933 C 0.05291 0.36693 0.81158 0.0
C934 C 0.073 0.36805 0.82559 0.0
C935 C 0.09514 0.383 0.81306 0.0
H936 H 0.03579 0.35537 0.82133 0.0
H937 H 0.25013 0.4998 0.69716 0.0
H938 H 0.20292 0.77985 0.3857 0.0
H939 H 0.16791 0.7445 0.38862 0.0
H940 H 0.21363 0.68558 0.39417 0.0
H941 H 0.24879 0.72109 0.39022 0.0
H942 H 0.18544 0.67462 0.35973 0.0
H943 H 0.17272 0.69388 0.45019 0.0
H944 H 0.16887 0.72162 0.48658 0.0
H945 H 0.10796 0.7473 0.45462 0.0
H946 H 0.11164 0.72001 0.41779 0.0
H947 H 0.05901 0.58599 0.40865 0.0
H948 H 0.09406 0.61526 0.42006 0.0
H949 H 0.10819 0.65563 0.33655 0.0
H950 H 0.07376 0.62654 0.32496 0.0
H951 H 0.10778 0.66911 0.41753 0.0
H952 H 0.16679 0.66725 0.31504 0.0
H953 H 0.17136 0.63628 0.28189 0.0
H954 H 0.14197 0.56966 0.34476 0.0
H955 H 0.13757 0.60019 0.37838 0.0
C956 C 0.20542 0.75931 0.38796 0.0
C957 C 0.22854 0.75318 0.38773 0.0
C958 C 0.18538 0.73908 0.38976 0.0
C959 C 0.18799 0.71224 0.392 0.0
C960 C 0.21109 0.70609 0.39244 0.0
C961 C 0.23117 0.72636 0.39019 0.0
C962 C 0.16693 0.69087 0.39175 0.0
C963 C 0.16856 0.67336 0.37257 0.0
C964 C 0.14495 0.68864 0.4089 0.0
C965 C 0.14256 0.705 0.43111 0.0
C966 C 0.1586 0.70557 0.45081 0.0
C967 C 0.15643 0.7212 0.47154 0.0
C968 C 0.13821 0.73624 0.47289 0.0
C969 C 0.12207 0.73564 0.45355 0.0
C970 C 0.12417 0.72006 0.43276 0.0
C971 C 0.06951 0.60125 0.39281 0.0
C972 C 0.06376 0.60371 0.36583 0.0
C973 C 0.08949 0.61795 0.39937 0.0
C974 C 0.10398 0.63728 0.37902 0.0
C975 C 0.09757 0.64049 0.35244 0.0
C976 C 0.0778 0.62383 0.34588 0.0
C977 C 0.12627 0.65374 0.38492 0.0
C978 C 0.12483 0.67026 0.40506 0.0
C979 C 0.14865 0.6546 0.3692 0.0
C980 C 0.1517 0.63606 0.34919 0.0
C981 C 0.16144 0.64599 0.32183 0.0
C982 C 0.16397 0.62851 0.30295 0.0
C983 C 0.15691 0.60103 0.3112 0.0
C984 C 0.14737 0.59096 0.33838 0.0
C985 C 0.14484 0.60835 0.35735 0.0
H986 H 0.15885 0.58753 0.29654 0.0
H987 H 0.13657 0.74834 0.48895 0.0
H988 H 0.74737 0.80415 0.76549 0.0
H989 H 0.75005 0.834 0.72231 0.0
H990 H 0.82716 0.85155 0.71844 0.0
H991 H 0.82455 0.82214 0.76221 0.0
H992 H 0.80871 0.89652 0.70747 0.0
H993 H 0.80181 0.81261 0.67592 0.0
H994 H 0.78484 0.76548 0.6752 0.0
H995 H 0.71759 0.78684 0.65825 0.0
H996 H 0.73404 0.83408 0.65927 0.0
H997 H 0.81317 0.97078 0.57271 0.0
H998 H 0.82057 0.93792 0.60997 0.0
H999 H 0.74435 0.90907 0.62992 0.0
H1000 H 0.73682 0.94144 0.59292 0.0
H1001 H 0.76891 0.86842 0.62921 0.0
H1002 H 0.77401 0.95068 0.66722 0.0
H1003 H 0.79023 0.99785 0.66887 0.0
H1004 H 0.8605 0.97929 0.67397 0.0
H1005 H 0.84474 0.93204 0.67198 0.0
C1006 C 0.76491 0.8144 0.75551 0.0
C1007 C 0.78575 0.81086 0.76731 0.0
C1008 C 0.76643 0.83126 0.73068 0.0
C1009 C 0.78883 0.84478 0.717 0.0
C1010 C 0.80971 0.8412 0.72861 0.0
C1011 C 0.8082 0.82427 0.75349 0.0
C1012 C 0.79012 0.86338 0.69113 0.0
C1013 C 0.80048 0.89027 0.6901 0.0
C1014 C 0.77909 0.85529 0.66863 0.0
C1015 C 0.76914 0.8269 0.66784 0.0
C1016 C 0.78335 0.80725 0.67222 0.0
C1017 C 0.77383 0.78051 0.67173 0.0
C1018 C 0.75014 0.77317 0.66672 0.0
C1019 C 0.73594 0.79256 0.66213 0.0
C1020 C 0.74537 0.81933 0.66262 0.0
C1021 C 0.79802 0.95739 0.58502 0.0
C1022 C 0.77441 0.9588 0.57988 0.0
C1023 C 0.80227 0.93868 0.60632 0.0
C1024 C 0.78299 0.92113 0.62276 0.0
C1025 C 0.75949 0.92235 0.61742 0.0
C1026 C 0.75523 0.941 0.59631 0.0
C1027 C 0.78691 0.90161 0.64589 0.0
C1028 C 0.77753 0.87454 0.64638 0.0
C1029 C 0.7988 0.90955 0.66788 0.0
C1030 C 0.80827 0.93792 0.6691 0.0
C1031 C 0.79296 0.95671 0.66845 0.0
C1032 C 0.80206 0.98344 0.66949 0.0
C1033 C 0.8264 0.99158 0.67142 0.0
C1034 C 0.84167 0.97297 0.6724 0.0
C1035 C 0.83266 0.94622 0.67133 0.0
H1036 H 0.83341 0.01228 0.67224 0.0
H1037 H 0.7428 0.75245 0.66636 0.0
H1038 H 0.67519 0.28923 0.24303 0.0
H1039 H 0.64893 0.29364 0.20724 0.0
H1040 H 0.67735 0.37803 0.18864 0.0
H1041 H 0.70341 0.37362 0.22475 0.0
H1042 H 0.62928 0.36871 0.19249 0.0
H1043 H 0.69278 0.3359 0.14542 0.0
H1044 H 0.7215 0.30581 0.13841 0.0
H1045 H 0.66315 0.24022 0.14247 0.0
H1046 H 0.63405 0.26984 0.1499 0.0
H1047 H 0.56842 0.38279 0.07319 0.0
H1048 H 0.59926 0.38377 0.10415 0.0
H1049 H 0.57796 0.29885 0.12944 0.0
H1050 H 0.54756 0.29761 0.09839 0.0
H1051 H 0.62537 0.31215 0.11923 0.0
H1052 H 0.56212 0.34437 0.17007 0.0
H1053 H 0.5334 0.37444 0.17728 0.0
H1054 H 0.59158 0.44128 0.16589 0.0
H1055 H 0.62065 0.41163 0.15826 0.0
C1056 C 0.6758 0.30866 0.23121 0.0
C1057 C 0.69097 0.33115 0.23683 0.0
C1058 C 0.66094 0.31117 0.2107 0.0
C1059 C 0.66124 0.33617 0.19514 0.0
C1060 C 0.67674 0.35859 0.20043 0.0
C1061 C 0.69162 0.35606 0.22098 0.0
C1062 C 0.64479 0.33894 0.174 0.0
C1063 C 0.62871 0.35668 0.17617 0.0
C1064 C 0.64377 0.32296 0.15295 0.0
C1065 C 0.66123 0.30507 0.14845 0.0
C1066 C 0.68606 0.31502 0.14503 0.0
C1067 C 0.70242 0.29805 0.14095 0.0
C1068 C 0.69416 0.27111 0.14006 0.0
C1069 C 0.66952 0.26109 0.14319 0.0
C1070 C 0.65309 0.27797 0.14731 0.0
C1071 C 0.57024 0.36436 0.08546 0.0
C1072 C 0.55549 0.34013 0.08331 0.0
C1073 C 0.58784 0.36496 0.10319 0.0
C1074 C 0.59086 0.34139 0.11925 0.0
C1075 C 0.57606 0.31727 0.11719 0.0
C1076 C 0.55859 0.31664 0.09947 0.0
C1077 C 0.60953 0.34151 0.13807 0.0
C1078 C 0.62608 0.32434 0.13541 0.0
C1079 C 0.61097 0.35801 0.15865 0.0
C1080 C 0.59352 0.37583 0.16329 0.0
C1081 C 0.56877 0.36551 0.16889 0.0
C1082 C 0.55243 0.38247 0.17309 0.0
C1083 C 0.56065 0.40977 0.17196 0.0
C1084 C 0.58524 0.42014 0.1667 0.0
C1085 C 0.60165 0.40327 0.16246 0.0
H1086 H 0.54798 0.42287 0.17522 0.0
H1087 H 0.70685 0.258 0.13688 0.0
H1088 H 0.28086 0.28029 0.7658 0.0
H1089 H 0.28406 0.24396 0.73953 0.0
H1090 H 0.26133 0.28873 0.67036 0.0
H1091 H 0.25868 0.32555 0.69621 0.0
H1092 H 0.2369 0.23656 0.68248 0.0
H1093 H 0.31867 0.2832 0.66876 0.0
H1094 H 0.35651 0.30389 0.68337 0.0
H1095 H 0.36277 0.2286 0.72827 0.0
H1096 H 0.32476 0.20752 0.71425 0.0
H1097 H 0.25616 0.15065 0.58795 0.0
H1098 H 0.25883 0.19038 0.61022 0.0
H1099 H 0.29343 0.1521 0.67379 0.0
H1100 H 0.29225 0.113 0.65018 0.0
H1101 H 0.31217 0.20175 0.66437 0.0
H1102 H 0.23017 0.15514 0.68056 0.0
H1103 H 0.19209 0.13367 0.66702 0.0
H1104 H 0.18556 0.20765 0.61962 0.0
H1105 H 0.22372 0.22948 0.63266 0.0
C1106 C 0.27692 0.28267 0.74485 0.0
C1107 C 0.26958 0.30597 0.73312 0.0
C1108 C 0.27867 0.2618 0.7299 0.0
C1109 C 0.27309 0.26373 0.70293 0.0
C1110 C 0.26568 0.28684 0.69117 0.0
C1111 C 0.26407 0.30781 0.70603 0.0
C1112 C 0.27441 0.24134 0.68725 0.0
C1113 C 0.25342 0.22916 0.67818 0.0
C1114 C 0.29582 0.23125 0.68234 0.0
C1115 C 0.31875 0.24384 0.69067 0.0
C1116 C 0.32801 0.2711 0.68193 0.0
C1117 C 0.34951 0.28289 0.69007 0.0
C1118 C 0.36201 0.26758 0.7068 0.0
C1119 C 0.35305 0.24044 0.71535 0.0
C1120 C 0.33155 0.22855 0.70729 0.0
C1121 C 0.26464 0.151 0.60647 0.0
C1122 C 0.27396 0.12897 0.61752 0.0
C1123 C 0.26596 0.17355 0.61936 0.0
C1124 C 0.27564 0.174 0.64422 0.0
C1125 C 0.28572 0.15222 0.65475 0.0
C1126 C 0.28505 0.12991 0.64135 0.0
C1127 C 0.2746 0.19681 0.65955 0.0
C1128 C 0.29562 0.20909 0.66863 0.0
C1129 C 0.25312 0.20683 0.66477 0.0
C1130 C 0.22988 0.19388 0.65743 0.0
C1131 C 0.22064 0.1668 0.66719 0.0
C1132 C 0.19904 0.15457 0.65959 0.0
C1133 C 0.18644 0.16927 0.64241 0.0
C1134 C 0.19535 0.19628 0.6329 0.0
C1135 C 0.21693 0.2086 0.64042 0.0
H1136 H 0.16975 0.15976 0.63651 0.0
H1137 H 0.37865 0.27675 0.71308 0.0
H1138 H 0.34536 0.84741 0.29266 0.0
H1139 H 0.38065 0.84441 0.26126 0.0
H1140 H 0.35093 0.76227 0.25822 0.0
H1141 H 0.31569 0.76525 0.2898 0.0
H1142 H 0.39894 0.76946 0.26231 0.0
H1143 H 0.34639 0.8105 0.20697 0.0
H1144 H 0.32176 0.84407 0.19383 0.0
H1145 H 0.38389 0.9062 0.18365 0.0
H1146 H 0.40884 0.87301 0.19709 0.0
H1147 H 0.46331 0.74766 0.14071 0.0
H1148 H 0.43269 0.75294 0.17662 0.0
H1149 H 0.46544 0.83551 0.1718 0.0
H1150 H 0.49603 0.83052 0.13538 0.0
H1151 H 0.41791 0.83016 0.17334 0.0
H1152 H 0.4712 0.78893 0.22558 0.0
H1153 H 0.49595 0.75541 0.23835 0.0
H1154 H 0.43307 0.69394 0.25452 0.0
H1155 H 0.40796 0.72703 0.24144 0.0
C1156 C 0.34644 0.82875 0.28527 0.0
C1157 C 0.32771 0.80668 0.29313 0.0
C1158 C 0.36654 0.82705 0.26735 0.0
C1159 C 0.36823 0.80323 0.25708 0.0
C1160 C 0.34993 0.78087 0.2658 0.0
C1161 C 0.32982 0.78259 0.28368 0.0
C1162 C 0.38875 0.80179 0.23669 0.0
C1163 C 0.40298 0.78255 0.24274 0.0
C1164 C 0.39438 0.81936 0.21148 0.0
C1165 C 0.37942 0.83931 0.20332 0.0
C1166 C 0.35476 0.83135 0.20214 0.0
C1167 C 0.34075 0.8503 0.19461 0.0
C1168 C 0.35124 0.87726 0.18799 0.0
C1169 C 0.37578 0.88531 0.18883 0.0
C1170 C 0.38987 0.86644 0.19638 0.0
C1171 C 0.46411 0.76695 0.14732 0.0
C1172 C 0.48217 0.78867 0.13518 0.0
C1173 C 0.44663 0.76989 0.16799 0.0
C1174 C 0.44695 0.79453 0.17718 0.0
C1175 C 0.4649 0.81629 0.16508 0.0
C1176 C 0.48239 0.81339 0.14431 0.0
C1177 C 0.42804 0.79766 0.19881 0.0
C1178 C 0.41406 0.81721 0.19299 0.0
C1179 C 0.4227 0.78041 0.22425 0.0
C1180 C 0.43772 0.76045 0.23231 0.0
C1181 C 0.46266 0.76823 0.23166 0.0
C1182 C 0.47676 0.74931 0.23899 0.0
C1183 C 0.4661 0.72255 0.24718 0.0
C1184 C 0.4413 0.71467 0.24814 0.0
C1185 C 0.42713 0.73351 0.24081 0.0
H1186 H 0.47704 0.70793 0.25284 0.0
H1187 H 0.34037 0.8919 0.18215 0.0
H1188 H 0.79733 0.25813 0.30427 0.0
H1189 H 0.797 0.21483 0.33127 0.0
H1190 H 0.71972 0.20187 0.34727 0.0
H1191 H 0.72001 0.24578 0.321 0.0
H1192 H 0.73856 0.19235 0.39329 0.0
H1193 H 0.74895 0.16604 0.30488 0.0
H1194 H 0.76734 0.1686 0.25721 0.0
H1195 H 0.83447 0.15832 0.28521 0.0
H1196 H 0.81658 0.15607 0.33305 0.0
H1197 H 0.72323 0.06037 0.45914 0.0
H1198 H 0.72304 0.09813 0.42402 0.0
H1199 H 0.80038 0.11643 0.41434 0.0
H1200 H 0.80082 0.0783 0.44964 0.0
H1201 H 0.781 0.1221 0.36425 0.0
H1202 H 0.77071 0.15043 0.45238 0.0
H1203 H 0.75203 0.14734 0.50003 0.0
H1204 H 0.68416 0.15369 0.47194 0.0
H1205 H 0.70237 0.15639 0.42412 0.0
C1206 C 0.78024 0.24601 0.31343 0.0
C1207 C 0.7587 0.25549 0.31072 0.0
C1208 C 0.78007 0.22112 0.32862 0.0
C1209 C 0.75833 0.20499 0.34117 0.0
C1210 C 0.73671 0.21398 0.33772 0.0
C1211 C 0.73687 0.23897 0.32255 0.0
C1212 C 0.7584 0.17978 0.35958 0.0
C1213 C 0.74746 0.17679 0.38674 0.0
C1214 C 0.77064 0.15981 0.35131 0.0
C1215 C 0.78146 0.16112 0.32255 0.0
C1216 C 0.76769 0.16454 0.30087 0.0
C1217 C 0.77801 0.1659 0.27381 0.0
C1218 C 0.80207 0.16369 0.26818 0.0
C1219 C 0.81584 0.16005 0.2896 0.0
C1220 C 0.80561 0.1587 0.3167 0.0
C1221 C 0.74028 0.07223 0.44947 0.0
C1222 C 0.76207 0.06647 0.45744 0.0
C1223 C 0.74009 0.09384 0.42937 0.0
C1224 C 0.76166 0.11028 0.41689 0.0
C1225 C 0.78353 0.10399 0.42383 0.0
C1226 C 0.78375 0.08226 0.44403 0.0
C1227 C 0.76109 0.13478 0.39774 0.0
C1228 C 0.772 0.13766 0.3706 0.0
C1229 C 0.7488 0.15469 0.40596 0.0
C1230 C 0.73786 0.15335 0.43469 0.0
C1231 C 0.75176 0.15096 0.45638 0.0
C1232 C 0.74127 0.14931 0.48341 0.0
C1233 C 0.71691 0.15025 0.48901 0.0
C1234 C 0.70302 0.15292 0.46757 0.0
C1235 C 0.71342 0.15454 0.44049 0.0
H1236 H 0.70881 0.14896 0.50996 0.0
H1237 H 0.81003 0.16474 0.24722 0.0
H1238 H 0.3268 0.31819 0.82754 0.0
H1239 H 0.36206 0.32143 0.85219 0.0
H1240 H 0.34312 0.39015 0.88395 0.0
H1241 H 0.30795 0.38705 0.85906 0.0
H1242 H 0.39219 0.39554 0.86935 0.0
H1243 H 0.32784 0.33056 0.92311 0.0
H1244 H 0.29602 0.29049 0.93125 0.0
H1245 H 0.34821 0.24229 0.91203 0.0
H1246 H 0.38031 0.28215 0.90342 0.0
H1247 H 0.46158 0.38808 0.98223 0.0
H1248 H 0.4313 0.39242 0.95106 0.0
H1249 H 0.44015 0.31727 0.92582 0.0
H1250 H 0.46941 0.31237 0.95774 0.0
H1251 H 0.39557 0.31673 0.93727 0.0
H1252 H 0.46032 0.38099 0.88362 0.0
H1253 H 0.49238 0.42084 0.87467 0.0
H1254 H 0.44069 0.47 0.89257 0.0
H1255 H 0.40834 0.43039 0.90196 0.0
C1256 C 0.33032 0.33405 0.83967 0.0
C1257 C 0.31447 0.35199 0.842 0.0
C1258 C 0.3504 0.3359 0.85372 0.0
C1259 C 0.35496 0.35576 0.8703 0.0
C1260 C 0.33985 0.3746 0.87141 0.0
C1261 C 0.31975 0.37274 0.85734 0.0
C1262 C 0.37464 0.35585 0.88767 0.0
C1263 C 0.39288 0.37844 0.88441 0.0
C1264 C 0.37569 0.33338 0.90701 0.0
C1265 C 0.35643 0.30937 0.91238 0.0
C1266 C 0.3325 0.31144 0.92044 0.0
C1267 C 0.31442 0.28877 0.92516 0.0
C1268 C 0.32008 0.26387 0.92209 0.0
C1269 C 0.34385 0.26159 0.91437 0.0
C1270 C 0.36199 0.28421 0.90959 0.0
C1271 C 0.45727 0.37274 0.96968 0.0
C1272 C 0.46773 0.34984 0.97247 0.0
C1273 C 0.44003 0.37526 0.95179 0.0
C1274 C 0.43344 0.35522 0.93591 0.0
C1275 C 0.44473 0.33292 0.93794 0.0
C1276 C 0.46152 0.33016 0.95615 0.0
C1277 C 0.41366 0.35624 0.91864 0.0
C1278 C 0.39514 0.33386 0.92212 0.0
C1279 C 0.41253 0.37885 0.89943 0.0
C1280 C 0.43195 0.40268 0.89376 0.0
C1281 C 0.45581 0.40027 0.88585 0.0
C1282 C 0.47404 0.42282 0.88066 0.0
C1283 C 0.46859 0.44793 0.88312 0.0
C1284 C 0.44489 0.45054 0.89071 0.0
C1285 C 0.4266 0.42805 0.89594 0.0
H1286 H 0.48272 0.46536 0.8791 0.0
H1287 H 0.30606 0.24634 0.92575 0.0
H1288 H 0.23375 0.84197 0.41008 0.0
H1289 H 0.23521 0.87923 0.43582 0.0
H1290 H 0.31079 0.88118 0.43933 0.0
H1291 H 0.30925 0.8431 0.41463 0.0
H1292 H 0.28925 0.88713 0.48745 0.0
H1293 H 0.29093 0.92703 0.39448 0.0
H1294 H 0.27731 0.93272 0.34889 0.0
H1295 H 0.20985 0.9474 0.38476 0.0
H1296 H 0.22293 0.94142 0.43064 0.0
H1297 H 0.30791 0.01503 0.53148 0.0
H1298 H 0.31053 0.97942 0.50375 0.0
H1299 H 0.23396 0.96741 0.50233 0.0
H1300 H 0.23116 0.0028 0.52989 0.0
H1301 H 0.25883 0.9681 0.45165 0.0
H1302 H 0.2569 0.92583 0.54486 0.0
H1303 H 0.2709 0.92032 0.59026 0.0
H1304 H 0.33979 0.91075 0.55316 0.0
H1305 H 0.32629 0.91659 0.50747 0.0
C1306 C 0.25063 0.85007 0.41661 0.0
C1307 C 0.2714 0.83955 0.41021 0.0
C1308 C 0.2515 0.87161 0.43105 0.0
C1309 C 0.27321 0.88331 0.43912 0.0
C1310 C 0.29388 0.87259 0.43317 0.0
C1311 C 0.293 0.85096 0.41884 0.0
C1312 C 0.27426 0.90661 0.45391 0.0
C1313 C 0.28297 0.90501 0.47939 0.0
C1314 C 0.26574 0.92981 0.44361 0.0
C1315 C 0.25784 0.93354 0.41603 0.0
C1316 C 0.27312 0.93127 0.39267 0.0
C1317 C 0.26551 0.93458 0.36678 0.0
C1318 C 0.24271 0.94035 0.36394 0.0
C1319 C 0.2275 0.9429 0.38699 0.0
C1320 C 0.23501 0.93958 0.41294 0.0
C1321 C 0.29166 0.00487 0.52516 0.0
C1322 C 0.26932 0.01168 0.53299 0.0
C1323 C 0.29318 0.98449 0.50941 0.0
C1324 C 0.2724 0.97067 0.50116 0.0
C1325 C 0.2502 0.97782 0.50847 0.0
C1326 C 0.24864 0.998 0.52433 0.0
C1327 C 0.27357 0.94845 0.48523 0.0
C1328 C 0.26529 0.95029 0.45955 0.0
C1329 C 0.28257 0.92554 0.49527 0.0
C1330 C 0.29068 0.92196 0.52273 0.0
C1331 C 0.27511 0.92279 0.54636 0.0
C1332 C 0.28293 0.91956 0.57215 0.0
C1333 C 0.30624 0.91527 0.57459 0.0
C1334 C 0.32175 0.91413 0.55124 0.0
C1335 C 0.31402 0.91738 0.52539 0.0
H1336 H 0.31226 0.91277 0.59457 0.0
H1337 H 0.23685 0.94291 0.34387 0.0
H1338 H 0.71637 0.771 0.83772 0.0
H1339 H 0.68373 0.77438 0.87231 0.0
H1340 H 0.73507 0.79483 0.92763 0.0
H1341 H 0.76772 0.79006 0.89331 0.0
H1342 H 0.69806 0.76421 0.9556 0.0
H1343 H 0.70798 0.84271 0.89 0.0
H1344 H 0.71207 0.86951 0.84416 0.0
H1345 H 0.64133 0.83181 0.83325 0.0
H1346 H 0.63695 0.80448 0.87888 0.0
H1347 H 0.609 0.81606 0.03836 0.0
H1348 H 0.64475 0.81735 0.00547 0.0
H1349 H 0.60198 0.76704 0.95924 0.0
H1350 H 0.56651 0.76484 0.99252 0.0
H1351 H 0.63652 0.81684 0.92855 0.0
H1352 H 0.62888 0.7379 0.99704 0.0
H1353 H 0.62659 0.7146 0.04419 0.0
H1354 H 0.69658 0.75756 0.05075 0.0
H1355 H 0.69877 0.78214 0.00415 0.0
C1356 C 0.72062 0.77612 0.85733 0.0
C1357 C 0.74449 0.78048 0.86287 0.0
C1358 C 0.702 0.77825 0.87703 0.0
C1359 C 0.70692 0.7856 0.90239 0.0
C1360 C 0.73079 0.78931 0.90819 0.0
C1361 C 0.74942 0.78662 0.88863 0.0
C1362 C 0.6871 0.78934 0.92269 0.0
C1363 C 0.68487 0.77611 0.94975 0.0
C1364 C 0.66975 0.80482 0.91517 0.0
C1365 C 0.67221 0.8214 0.8878 0.0
C1366 C 0.69335 0.84001 0.87776 0.0
C1367 C 0.69572 0.85531 0.85182 0.0
C1368 C 0.67699 0.85232 0.83578 0.0
C1369 C 0.65583 0.83408 0.84569 0.0
C1370 C 0.65338 0.8187 0.87161 0.0
C1371 C 0.60724 0.8056 0.02095 0.0
C1372 C 0.58508 0.79039 0.01785 0.0
C1373 C 0.62762 0.80625 0.00233 0.0
C1374 C 0.62591 0.79222 0.98006 0.0
C1375 C 0.60358 0.77798 0.97632 0.0
C1376 C 0.58341 0.77671 0.99531 0.0
C1377 C 0.64746 0.79145 0.96106 0.0
C1378 C 0.64995 0.80524 0.93433 0.0
C1379 C 0.66529 0.777 0.96907 0.0
C1380 C 0.66377 0.7623 0.99724 0.0
C1381 C 0.64356 0.74285 0.00873 0.0
C1382 C 0.64228 0.72937 0.03538 0.0
C1383 C 0.66132 0.73478 0.05058 0.0
C1384 C 0.68171 0.75361 0.0391 0.0
C1385 C 0.68293 0.7674 0.01261 0.0
H1386 H 0.66034 0.72428 0.07118 0.0
H1387 H 0.67886 0.86418 0.8157 0.0
loop_
_geom_bond_atom_site_label_1
_geom_bond_atom_site_label_2
_geom_bond_distance
_geom_bond_site_symmetry_2
_ccdc_geom_bond_type
H0 C7 0.929 . S
H1 C10 0.930 . S
H2 C12 0.929 . S
H3 C4 0.969 . S
C4 H3 0.969 . S
C4 O5 1.550 . S
C4 H6 0.973 . S
O5 C4 1.550 . S
O5 C11 1.412 . S
H6 C4 0.973 . S
C7 H0 0.929 . S
C7 C8 1.400 . S
C7 C9 1.364 . S
C8 C7 1.400 . S
C8 C12 1.377 . S
C9 C7 1.364 . S
C9 C10 1.374 . S
C10 H1 0.930 . S
C10 C9 1.374 . S
C10 C11 1.383 . S
C11 O5 1.412 . S
C11 C10 1.383 . S
C11 C12 1.394 . S
C12 H2 0.929 . S
C12 C8 1.377 . S
C12 C11 1.394 . S
H13 C20 0.929 . S
H14 C23 0.930 . S
H15 C25 0.929 . S
H16 C17 0.969 . S
C17 H16 0.969 . S
C17 O18 1.550 . S
C17 H19 0.973 . S
O18 C17 1.550 . S
O18 C24 1.412 . S
H19 C17 0.973 . S
C20 H13 0.929 . S
C20 C21 1.400 . S
C20 C22 1.364 . S
C21 C20 1.400 . S
C21 C25 1.377 . S
C22 C20 1.364 . S
C22 C23 1.374 . S
C23 H14 0.930 . S
C23 C22 1.374 . S
C23 C24 1.383 . S
C24 O18 1.412 . S
C24 C23 1.383 . S
C24 C25 1.394 . S
C25 H15 0.929 . S
C25 C21 1.377 . S
C25 C24 1.394 . S
H26 C33 0.929 . S
H27 C36 0.930 . S
H28 C38 0.929 . S
H29 C30 0.969 . S
C30 H29 0.969 . S
C30 O31 1.550 . S
C30 H32 0.973 . S
O31 C30 1.550 . S
O31 C37 1.412 . S
H32 C30 0.973 . S
C33 H26 0.929 . S
C33 C34 1.400 . S
C33 C35 1.364 . S
C34 C33 1.400 . S
C34 C38 1.377 . S
C35 C33 1.364 . S
C35 C36 1.374 . S
C36 H27 0.930 . S
C36 C35 1.374 . S
C36 C37 1.383 . S
C37 O31 1.412 . S
C37 C36 1.383 . S
C37 C38 1.394 . S
C38 H28 0.929 . S
C38 C34 1.377 . S
C38 C37 1.394 . S
H39 C46 0.929 . S
H40 C49 0.930 . S
H41 C51 0.929 . S
H42 C43 0.969 . S
C43 H42 0.969 . S
C43 O44 1.550 . S
C43 H45 0.973 . S
O44 C43 1.550 . S
O44 C50 1.412 . S
H45 C43 0.973 . S
C46 H39 0.929 . S
C46 C47 1.400 . S
C46 C48 1.364 . S
C47 C46 1.400 . S
C47 C51 1.377 . S
C48 C46 1.364 . S
C48 C49 1.374 . S
C49 H40 0.930 . S
C49 C48 1.374 . S
C49 C50 1.383 . S
C50 O44 1.412 . S
C50 C49 1.383 . S
C50 C51 1.394 . S
C51 H41 0.929 . S
C51 C47 1.377 . S
C51 C50 1.394 . S
H52 C59 0.929 . S
H53 C62 0.930 . S
H54 C64 0.929 . S
H55 C56 0.969 . S
C56 H55 0.969 . S
C56 O57 1.550 . S
C56 H58 0.973 . S
O57 C56 1.550 . S
O57 C63 1.412 . S
H58 C56 0.973 . S
C59 H52 0.929 . S
C59 C60 1.400 . S
C59 C61 1.364 . S
C60 C59 1.400 . S
C60 C64 1.377 . S
C61 C59 1.364 . S
C61 C62 1.374 . S
C62 H53 0.930 . S
C62 C61 1.374 . S
C62 C63 1.383 . S
C63 O57 1.412 . S
C63 C62 1.383 . S
C63 C64 1.394 . S
C64 H54 0.929 . S
C64 C60 1.377 . S
C64 C63 1.394 . S
H65 C72 0.929 . S
H66 C75 0.930 . S
H67 C77 0.929 . S
H68 C69 0.969 . S
C69 H68 0.969 . S
C69 O70 1.550 . S
C69 H71 0.973 . S
O70 C69 1.550 . S
O70 C76 1.412 . S
H71 C69 0.973 . S
C72 H65 0.929 . S
C72 C73 1.400 . S
C72 C74 1.364 . S
C73 C72 1.400 . S
C73 C77 1.377 . S
C74 C72 1.364 . S
C74 C75 1.374 . S
C75 H66 0.930 . S
C75 C74 1.374 . S
C75 C76 1.383 . S
C76 O70 1.412 . S
C76 C75 1.383 . S
C76 C77 1.394 . S
C77 H67 0.929 . S
C77 C73 1.377 . S
C77 C76 1.394 . S
H78 C85 0.929 . S
H79 C88 0.930 . S
H80 C90 0.929 . S
H81 C82 0.969 . S
C82 H81 0.969 . S
C82 O83 1.550 . S
C82 H84 0.973 . S
O83 C82 1.550 . S
O83 C89 1.412 . S
H84 C82 0.973 . S
C85 H78 0.929 . S
C85 C86 1.400 . S
C85 C87 1.364 . S
C86 C85 1.400 . S
C86 C90 1.377 . S
C87 C85 1.364 . S
C87 C88 1.374 . S
C88 H79 0.930 . S
C88 C87 1.374 . S
C88 C89 1.383 . S
C89 O83 1.412 . S
C89 C88 1.383 . S
C89 C90 1.394 . S
C90 H80 0.929 . S
C90 C86 1.377 . S
C90 C89 1.394 . S
H91 C98 0.929 . S
H92 C101 0.930 . S
H93 C103 0.929 . S
H94 C95 0.969 . S
C95 H94 0.969 . S
C95 O96 1.550 . S
C95 H97 0.973 . S
O96 C95 1.550 . S
O96 C102 1.412 . S
H97 C95 0.973 . S
C98 H91 0.929 . S
C98 C99 1.400 . S
C98 C100 1.364 . S
C99 C98 1.400 . S
C99 C103 1.377 . S
C100 C98 1.364 . S
C100 C101 1.374 . S
C101 H92 0.930 . S
C101 C100 1.374 . S
C101 C102 1.383 . S
C102 O96 1.412 . S
C102 C101 1.383 . S
C102 C103 1.394 . S
C103 H93 0.929 . S
C103 C99 1.377 . S
C103 C102 1.394 . S
C104 O106 1.247 . S
C104 O108 1.258 . S
C105 O112 1.247 . S
C105 O113 1.258 . S
O106 C104 1.247 . S
O106 Zn107 2.028 . S
Zn107 O106 2.028 . S
Zn107 O111 2.035 1_655 S
Zn107 O113 2.035 1_655 S
Zn107 O114 2.028 . S
O108 C104 1.258 . S
O108 Zn109 2.035 1_655 S
Zn109 O108 2.035 1_455 S
Zn109 O110 2.028 . S
Zn109 O112 2.028 . S
Zn109 O115 2.035 1_455 S
O110 Zn109 2.028 . S
O110 C116 1.247 . S
O111 Zn107 2.035 1_455 S
O111 C116 1.258 . S
O112 C105 1.247 . S
O112 Zn109 2.028 . S
O113 C105 1.258 . S
O113 Zn107 2.035 1_455 S
O114 Zn107 2.028 . S
O114 C117 1.247 . S
O115 Zn109 2.035 1_655 S
O115 C117 1.258 . S
C116 O110 1.247 . S
C116 O111 1.258 . S
C117 O114 1.247 . S
C117 O115 1.258 . S
C118 O120 1.247 . S
C118 O122 1.276 . S
C119 O126 1.247 . S
C119 O127 1.258 . S
O120 C118 1.247 . S
O120 Zn121 2.028 1_655 S
Zn121 O120 2.028 1_455 S
Zn121 O125 2.035 . S
Zn121 O127 2.035 . S
Zn121 O128 2.028 1_455 S
O122 C118 1.276 . S
O122 Zn123 2.007 1_655 S
Zn123 O122 2.007 1_455 S
Zn123 O124 2.028 . S
Zn123 O126 2.028 . S
Zn123 O129 2.035 . S
O124 Zn123 2.028 . S
O124 C130 1.247 . S
O125 Zn121 2.035 . S
O125 C130 1.258 . S
O126 C119 1.247 . S
O126 Zn123 2.028 . S
O127 C119 1.258 . S
O127 Zn121 2.035 . S
O128 Zn121 2.028 1_655 S
O128 C131 1.247 . S
O129 Zn123 2.035 . S
O129 C131 1.258 1_455 S
C130 O124 1.247 . S
C130 O125 1.258 . S
C131 O128 1.247 . S
C131 O129 1.258 1_655 S
C132 O134 1.240 1_565 S
C132 O136 1.250 1_565 S
C133 O140 1.247 . S
C133 O141 1.258 . S
O134 C132 1.240 1_545 S
O134 Zn135 2.028 . S
Zn135 O134 2.028 . S
Zn135 O139 2.035 . S
Zn135 O141 2.035 . S
Zn135 O142 2.028 . S
O136 C132 1.250 1_545 S
O136 Zn137 2.035 . S
Zn137 O136 2.035 . S
Zn137 O138 2.028 . S
Zn137 O140 2.028 . S
Zn137 O143 2.035 . S
O138 Zn137 2.028 . S
O138 C144 1.247 . S
O139 Zn135 2.035 . S
O139 C144 1.258 . S
O140 C133 1.247 . S
O140 Zn137 2.028 . S
O141 C133 1.258 . S
O141 Zn135 2.035 . S
O142 Zn135 2.028 . S
O142 C145 1.246 1_545 S
O143 Zn137 2.035 . S
O143 C145 1.257 1_545 S
C144 O138 1.247 . S
C144 O139 1.258 . S
C145 O142 1.246 1_565 S
C145 O143 1.257 1_565 S
C146 O148 1.247 . S
C146 O150 1.258 . S
C147 O154 1.247 . S
C147 O155 1.258 . S
O148 C146 1.247 . S
O148 Zn149 2.028 . S
Zn149 O148 2.028 . S
Zn149 O153 2.035 . S
Zn149 O155 2.035 . S
Zn149 O156 2.028 . S
O150 C146 1.258 . S
O150 Zn151 2.035 . S
Zn151 O150 2.035 . S
Zn151 O152 2.028 . S
Zn151 O154 2.028 . S
Zn151 O157 2.035 . S
O152 Zn151 2.028 . S
O152 C158 1.247 . S
O153 Zn149 2.035 . S
O153 C158 1.258 . S
O154 C147 1.247 . S
O154 Zn151 2.028 . S
O155 C147 1.258 . S
O155 Zn149 2.035 . S
O156 Zn149 2.028 . S
O156 C159 1.247 . S
O157 Zn151 2.035 . S
O157 C159 1.258 . S
C158 O152 1.247 . S
C158 O153 1.258 . S
C159 O156 1.247 . S
C159 O157 1.258 . S
C160 O162 1.247 . S
C160 O164 1.258 . S
C161 O168 1.247 . S
C161 O169 1.258 . S
O162 C160 1.247 . S
O162 Zn163 2.028 . S
Zn163 O162 2.028 . S
Zn163 O167 2.035 1_565 S
Zn163 O169 2.035 1_565 S
Zn163 O170 2.028 . S
O164 C160 1.258 . S
O164 Zn165 2.035 1_565 S
Zn165 O164 2.035 1_545 S
Zn165 O166 2.028 . S
Zn165 O168 2.028 . S
Zn165 O171 2.035 1_545 S
O166 Zn165 2.028 . S
O166 C172 1.247 . S
O167 Zn163 2.035 1_545 S
O167 C172 1.258 . S
O168 C161 1.247 . S
O168 Zn165 2.028 . S
O169 C161 1.258 . S
O169 Zn163 2.035 1_545 S
O170 Zn163 2.028 . S
O170 C173 1.247 . S
O171 Zn165 2.035 1_565 S
O171 C173 1.258 . S
C172 O166 1.247 . S
C172 O167 1.258 . S
C173 O170 1.247 . S
C173 O171 1.258 . S
C174 O176 1.247 . S
C174 O178 1.258 . S
C175 O182 1.247 . S
C175 O183 1.258 . S
O176 C174 1.247 . S
O176 Zn177 2.028 . S
Zn177 O176 2.028 . S
Zn177 O181 2.035 . S
Zn177 O183 2.035 1_554 S
Zn177 O184 2.028 1_554 S
O178 C174 1.258 . S
O178 Zn179 2.035 1_554 S
Zn179 O178 2.035 1_556 S
Zn179 O180 2.028 1_556 S
Zn179 O182 2.028 . S
Zn179 O185 2.035 . S
O180 Zn179 2.028 1_554 S
O180 C186 1.247 . S
O181 Zn177 2.035 . S
O181 C186 1.258 . S
O182 C175 1.247 . S
O182 Zn179 2.028 . S
O183 C175 1.258 . S
O183 Zn177 2.035 1_556 S
O184 Zn177 2.028 1_556 S
O184 C187 1.247 . S
O185 Zn179 2.035 . S
O185 C187 1.258 . S
C186 O180 1.247 . S
C186 O181 1.258 . S
C187 O184 1.247 . S
C187 O185 1.258 . S
H188 C206 0.951 . S
H189 C208 0.951 . S
H190 C210 0.950 . S
H191 C211 0.950 . S
H192 C213 0.950 . S
H193 C216 0.950 . S
H194 C217 0.950 . S
H195 C219 0.950 . S
H196 C220 0.950 . S
H197 C221 0.951 . S
H198 C223 0.951 . S
H199 C225 0.950 . S
H200 C226 0.950 . S
H201 C228 0.950 . S
H202 C231 0.950 . S
H203 C232 0.950 . S
H204 C234 0.950 . S
H205 C235 0.950 . S
C206 H188 0.951 . S
C206 C207 1.366 . S
C206 C208 1.388 . S
C207 C206 1.366 . S
C207 C211 1.385 . S
C208 H189 0.951 . S
C208 C206 1.388 . S
C208 C209 1.366 . S
C209 C208 1.366 . S
C209 C210 1.414 . S
C209 C212 1.499 . S
C210 H190 0.950 . S
C210 C209 1.414 . S
C210 C211 1.374 . S
C211 H191 0.950 . S
C211 C207 1.385 . S
C211 C210 1.374 . S
C212 C209 1.499 . S
C212 C213 1.373 . S
C212 C214 1.389 . S
C213 H192 0.950 . S
C213 C212 1.373 . S
C213 C229 1.377 . S
C214 C212 1.389 . S
C214 C215 1.524 . S
C214 C228 1.377 . S
C215 C214 1.524 . S
C215 C216 1.397 . S
C215 C220 1.363 . S
C216 H193 0.950 . S
C216 C215 1.397 . S
C216 C217 1.334 . S
C217 H194 0.950 . S
C217 C216 1.334 . S
C217 C218 1.287 . S
C218 C217 1.287 . S
C218 C219 1.524 . S
C218 H237 0.913 . S
C219 H195 0.950 . S
C219 C218 1.524 . S
C219 C220 1.415 . S
C220 H196 0.950 . S
C220 C215 1.363 . S
C220 C219 1.415 . S
C221 H197 0.951 . S
C221 C222 1.366 . S
C221 C223 1.388 . S
C222 C221 1.366 . S
C222 C226 1.385 . S
C223 H198 0.951 . S
C223 C221 1.388 . S
C223 C224 1.366 . S
C224 C223 1.366 . S
C224 C225 1.414 . S
C224 C227 1.499 . S
C225 H199 0.950 . S
C225 C224 1.414 . S
C225 C226 1.374 . S
C226 H200 0.950 . S
C226 C222 1.385 . S
C226 C225 1.374 . S
C227 C224 1.499 . S
C227 C228 1.373 . S
C227 C229 1.389 . S
C228 H201 0.950 . S
C228 C214 1.377 . S
C228 C227 1.373 . S
C229 C213 1.377 . S
C229 C227 1.389 . S
C229 C230 1.524 . S
C230 C229 1.524 . S
C230 C231 1.397 . S
C230 C235 1.363 . S
C231 H202 0.950 . S
C231 C230 1.397 . S
C231 C232 1.334 . S
C232 H203 0.950 . S
C232 C231 1.334 . S
C232 C233 1.287 . S
C233 C232 1.287 . S
C233 C234 1.524 . S
C233 H236 0.999 . S
C234 H204 0.950 . S
C234 C233 1.524 . S
C234 C235 1.415 . S
C235 H205 0.950 . S
C235 C230 1.363 . S
C235 C234 1.415 . S
H236 C233 0.999 . S
H237 C218 0.913 . S
H238 C256 0.951 . S
H239 C258 0.951 . S
H240 C260 0.950 . S
H241 C261 0.950 . S
H242 C263 0.950 . S
H243 C266 0.950 . S
H244 C267 0.950 . S
H245 C269 0.950 . S
H246 C270 0.950 . S
H247 C271 0.951 . S
H248 C273 0.951 . S
H249 C275 0.950 . S
H250 C276 0.950 . S
H251 C278 0.950 . S
H252 C281 0.950 . S
H253 C282 0.950 . S
H254 C284 0.950 . S
H255 C285 0.950 . S
C256 H238 0.951 . S
C256 C257 1.366 . S
C256 C258 1.388 . S
C257 C256 1.366 . S
C257 C261 1.385 . S
C258 H239 0.951 . S
C258 C256 1.388 . S
C258 C259 1.366 . S
C259 C258 1.366 . S
C259 C260 1.414 . S
C259 C262 1.499 . S
C260 H240 0.950 . S
C260 C259 1.414 . S
C260 C261 1.374 . S
C261 H241 0.950 . S
C261 C257 1.385 . S
C261 C260 1.374 . S
C262 C259 1.499 . S
C262 C263 1.373 . S
C262 C264 1.389 . S
C263 H242 0.950 . S
C263 C262 1.373 . S
C263 C279 1.377 . S
C264 C262 1.389 . S
C264 C265 1.524 . S
C264 C278 1.377 . S
C265 C264 1.524 . S
C265 C266 1.397 . S
C265 C270 1.363 . S
C266 H243 0.950 . S
C266 C265 1.397 . S
C266 C267 1.334 . S
C267 H244 0.950 . S
C267 C266 1.334 . S
C267 C268 1.287 . S
C268 C267 1.287 . S
C268 C269 1.524 . S
C268 H287 0.913 . S
C269 H245 0.950 . S
C269 C268 1.524 . S
C269 C270 1.415 . S
C270 H246 0.950 . S
C270 C265 1.363 . S
C270 C269 1.415 . S
C271 H247 0.951 . S
C271 C272 1.366 . S
C271 C273 1.388 . S
C272 C271 1.366 . S
C272 C276 1.385 . S
C273 H248 0.951 . S
C273 C271 1.388 . S
C273 C274 1.366 . S
C274 C273 1.366 . S
C274 C275 1.414 . S
C274 C277 1.499 . S
C275 H249 0.950 . S
C275 C274 1.414 . S
C275 C276 1.374 . S
C276 H250 0.950 . S
C276 C272 1.385 . S
C276 C275 1.374 . S
C277 C274 1.499 . S
C277 C278 1.373 . S
C277 C279 1.389 . S
C278 H251 0.950 . S
C278 C264 1.377 . S
C278 C277 1.373 . S
C279 C263 1.377 . S
C279 C277 1.389 . S
C279 C280 1.524 . S
C280 C279 1.524 . S
C280 C281 1.397 . S
C280 C285 1.363 . S
C281 H252 0.950 . S
C281 C280 1.397 . S
C281 C282 1.334 . S
C282 H253 0.950 . S
C282 C281 1.334 . S
C282 C283 1.287 . S
C283 C282 1.287 . S
C283 C284 1.524 . S
C283 H286 0.999 . S
C284 H254 0.950 . S
C284 C283 1.524 . S
C284 C285 1.415 . S
C285 H255 0.950 . S
C285 C280 1.363 . S
C285 C284 1.415 . S
H286 C283 0.999 . S
H287 C268 0.913 . S
H288 C306 0.951 . S
H289 C308 0.951 . S
H290 C310 0.950 . S
H291 C311 0.950 . S
H292 C313 0.950 . S
H293 C316 0.950 . S
H294 C317 0.950 . S
H295 C319 0.950 . S
H296 C320 0.950 . S
H297 C321 0.951 . S
H298 C323 0.951 . S
H299 C325 0.950 . S
H300 C326 0.950 . S
H301 C328 0.950 . S
H302 C331 0.950 . S
H303 C332 0.950 . S
H304 C334 0.950 . S
H305 C335 0.950 . S
C306 H288 0.951 . S
C306 C307 1.366 . S
C306 C308 1.388 . S
C307 C306 1.366 . S
C307 C311 1.385 . S
C308 H289 0.951 . S
C308 C306 1.388 . S
C308 C309 1.366 . S
C309 C308 1.366 . S
C309 C310 1.414 . S
C309 C312 1.499 . S
C310 H290 0.950 . S
C310 C309 1.414 . S
C310 C311 1.374 . S
C311 H291 0.950 . S
C311 C307 1.385 . S
C311 C310 1.374 . S
C312 C309 1.499 . S
C312 C313 1.373 . S
C312 C314 1.389 . S
C313 H292 0.950 . S
C313 C312 1.373 . S
C313 C329 1.377 . S
C314 C312 1.389 . S
C314 C315 1.524 . S
C314 C328 1.377 . S
C315 C314 1.524 . S
C315 C316 1.397 . S
C315 C320 1.363 . S
C316 H293 0.950 . S
C316 C315 1.397 . S
C316 C317 1.334 . S
C317 H294 0.950 . S
C317 C316 1.334 . S
C317 C318 1.287 . S
C318 C317 1.287 . S
C318 C319 1.524 . S
C318 H337 0.913 . S
C319 H295 0.950 . S
C319 C318 1.524 . S
C319 C320 1.415 . S
C320 H296 0.950 . S
C320 C315 1.363 . S
C320 C319 1.415 . S
C321 H297 0.951 . S
C321 C322 1.366 . S
C321 C323 1.388 . S
C322 C321 1.366 . S
C322 C326 1.385 . S
C323 H298 0.951 . S
C323 C321 1.388 . S
C323 C324 1.366 . S
C324 C323 1.366 . S
C324 C325 1.414 . S
C324 C327 1.499 . S
C325 H299 0.950 . S
C325 C324 1.414 . S
C325 C326 1.374 . S
C326 H300 0.950 . S
C326 C322 1.385 . S
C326 C325 1.374 . S
C327 C324 1.499 . S
C327 C328 1.373 . S
C327 C329 1.389 . S
C328 H301 0.950 . S
C328 C314 1.377 . S
C328 C327 1.373 . S
C329 C313 1.377 . S
C329 C327 1.389 . S
C329 C330 1.524 . S
C330 C329 1.524 . S
C330 C331 1.397 . S
C330 C335 1.363 . S
C331 H302 0.950 . S
C331 C330 1.397 . S
C331 C332 1.334 . S
C332 H303 0.950 . S
C332 C331 1.334 . S
C332 C333 1.287 . S
C333 C332 1.287 . S
C333 C334 1.524 . S
C333 H336 0.999 . S
C334 H304 0.950 . S
C334 C333 1.524 . S
C334 C335 1.415 . S
C335 H305 0.950 . S
C335 C330 1.363 . S
C335 C334 1.415 . S
H336 C333 0.999 . S
H337 C318 0.913 . S
H338 C356 0.951 . S
H339 C358 0.951 . S
H340 C360 0.950 . S
H341 C361 0.950 . S
H342 C363 0.950 . S
H343 C366 0.950 . S
H344 C367 0.950 . S
H345 C369 0.950 . S
H346 C370 0.950 . S
H347 C371 0.951 . S
H348 C373 0.951 . S
H349 C375 0.950 . S
H350 C376 0.950 . S
H351 C378 0.950 . S
H352 C381 0.950 . S
H353 C382 0.950 . S
H354 C384 0.950 . S
H355 C385 0.950 . S
C356 H338 0.951 . S
C356 C357 1.366 . S
C356 C358 1.388 . S
C357 C356 1.366 . S
C357 C361 1.385 . S
C358 H339 0.951 . S
C358 C356 1.388 . S
C358 C359 1.366 . S
C359 C358 1.366 . S
C359 C360 1.414 . S
C359 C362 1.499 . S
C360 H340 0.950 . S
C360 C359 1.414 . S
C360 C361 1.374 . S
C361 H341 0.950 . S
C361 C357 1.385 . S
C361 C360 1.374 . S
C362 C359 1.499 . S
C362 C363 1.373 . S
C362 C364 1.389 . S
C363 H342 0.950 . S
C363 C362 1.373 . S
C363 C379 1.377 . S
C364 C362 1.389 . S
C364 C365 1.524 . S
C364 C378 1.377 . S
C365 C364 1.524 . S
C365 C366 1.397 . S
C365 C370 1.363 . S
C366 H343 0.950 . S
C366 C365 1.397 . S
C366 C367 1.334 . S
C367 H344 0.950 . S
C367 C366 1.334 . S
C367 C368 1.287 . S
C368 C367 1.287 . S
C368 C369 1.524 . S
C368 H387 0.913 . S
C369 H345 0.950 . S
C369 C368 1.524 . S
C369 C370 1.415 . S
C370 H346 0.950 . S
C370 C365 1.363 . S
C370 C369 1.415 . S
C371 H347 0.951 . S
C371 C372 1.366 . S
C371 C373 1.388 . S
C372 C371 1.366 . S
C372 C376 1.385 . S
C373 H348 0.951 . S
C373 C371 1.388 . S
C373 C374 1.366 . S
C374 C373 1.366 . S
C374 C375 1.414 . S
C374 C377 1.499 . S
C375 H349 0.950 . S
C375 C374 1.414 . S
C375 C376 1.374 . S
C376 H350 0.950 . S
C376 C372 1.385 . S
C376 C375 1.374 . S
C377 C374 1.499 . S
C377 C378 1.373 . S
C377 C379 1.389 . S
C378 H351 0.950 . S
C378 C364 1.377 . S
C378 C377 1.373 . S
C379 C363 1.377 . S
C379 C377 1.389 . S
C379 C380 1.524 . S
C380 C379 1.524 . S
C380 C381 1.397 . S
C380 C385 1.363 . S
C381 H352 0.950 . S
C381 C380 1.397 . S
C381 C382 1.334 . S
C382 H353 0.950 . S
C382 C381 1.334 . S
C382 C383 1.287 . S
C383 C382 1.287 . S
C383 C384 1.524 . S
C383 H386 0.999 . S
C384 H354 0.950 . S
C384 C383 1.524 . S
C384 C385 1.415 . S
C385 H355 0.950 . S
C385 C380 1.363 . S
C385 C384 1.415 . S
H386 C383 0.999 . S
H387 C368 0.913 . S
H388 C406 0.951 . S
H389 C408 0.951 . S
H390 C410 0.950 . S
H391 C411 0.950 . S
H392 C413 0.950 . S
H393 C416 0.950 . S
H394 C417 0.950 . S
H395 C419 0.950 . S
H396 C420 0.950 . S
H397 C421 0.951 . S
H398 C423 0.951 . S
H399 C425 0.950 . S
H400 C426 0.950 . S
H401 C428 0.950 . S
H402 C431 0.950 . S
H403 C432 0.950 . S
H404 C434 0.950 . S
H405 C435 0.950 . S
C406 H388 0.951 . S
C406 C407 1.366 . S
C406 C408 1.388 . S
C407 C406 1.366 . S
C407 C411 1.385 . S
C408 H389 0.951 . S
C408 C406 1.388 . S
C408 C409 1.366 . S
C409 C408 1.366 . S
C409 C410 1.414 . S
C409 C412 1.499 . S
C410 H390 0.950 . S
C410 C409 1.414 . S
C410 C411 1.374 . S
C411 H391 0.950 . S
C411 C407 1.385 . S
C411 C410 1.374 . S
C412 C409 1.499 . S
C412 C413 1.373 . S
C412 C414 1.389 . S
C413 H392 0.950 . S
C413 C412 1.373 . S
C413 C429 1.377 . S
C414 C412 1.389 . S
C414 C415 1.524 . S
C414 C428 1.377 . S
C415 C414 1.524 . S
C415 C416 1.397 . S
C415 C420 1.363 . S
C416 H393 0.950 . S
C416 C415 1.397 . S
C416 C417 1.334 . S
C417 H394 0.950 . S
C417 C416 1.334 . S
C417 C418 1.287 . S
C418 C417 1.287 . S
C418 C419 1.524 . S
C418 H437 0.913 . S
C419 H395 0.950 . S
C419 C418 1.524 . S
C419 C420 1.415 . S
C420 H396 0.950 . S
C420 C415 1.363 . S
C420 C419 1.415 . S
C421 H397 0.951 . S
C421 C422 1.366 . S
C421 C423 1.388 . S
C422 C421 1.366 . S
C422 C426 1.385 . S
C423 H398 0.951 . S
C423 C421 1.388 . S
C423 C424 1.366 . S
C424 C423 1.366 . S
C424 C425 1.414 . S
C424 C427 1.499 . S
C425 H399 0.950 . S
C425 C424 1.414 . S
C425 C426 1.374 . S
C426 H400 0.950 . S
C426 C422 1.385 . S
C426 C425 1.374 . S
C427 C424 1.499 . S
C427 C428 1.373 . S
C427 C429 1.389 . S
C428 H401 0.950 . S
C428 C414 1.377 . S
C428 C427 1.373 . S
C429 C413 1.377 . S
C429 C427 1.389 . S
C429 C430 1.524 . S
C430 C429 1.524 . S
C430 C431 1.397 . S
C430 C435 1.363 . S
C431 H402 0.950 . S
C431 C430 1.397 . S
C431 C432 1.334 . S
C432 H403 0.950 . S
C432 C431 1.334 . S
C432 C433 1.287 . S
C433 C432 1.287 . S
C433 C434 1.524 . S
C433 H436 0.999 . S
C434 H404 0.950 . S
C434 C433 1.524 . S
C434 C435 1.415 . S
C435 H405 0.950 . S
C435 C430 1.363 . S
C435 C434 1.415 . S
H436 C433 0.999 . S
H437 C418 0.913 . S
H438 C456 0.951 . S
H439 C458 0.951 . S
H440 C460 0.950 . S
H441 C461 0.950 . S
H442 C463 0.950 . S
H443 C466 0.950 . S
H444 C467 0.950 . S
H445 C469 0.950 . S
H446 C470 0.950 . S
H447 C471 0.951 . S
H448 C473 0.951 . S
H449 C475 0.950 . S
H450 C476 0.950 . S
H451 C478 0.952 1_554 S
H452 C481 0.950 . S
H453 C482 0.950 . S
H454 C484 0.950 . S
H455 C485 0.950 . S
C456 H438 0.951 . S
C456 C457 1.366 . S
C456 C458 1.388 . S
C457 C456 1.366 . S
C457 C461 1.385 . S
C458 H439 0.951 . S
C458 C456 1.388 . S
C458 C459 1.366 . S
C459 C458 1.366 . S
C459 C460 1.414 . S
C459 C462 1.499 . S
C460 H440 0.950 . S
C460 C459 1.414 . S
C460 C461 1.374 . S
C461 H441 0.950 . S
C461 C457 1.385 . S
C461 C460 1.374 . S
C462 C459 1.499 . S
C462 C463 1.373 . S
C462 C464 1.389 . S
C463 H442 0.950 . S
C463 C462 1.373 . S
C463 C479 1.377 . S
C464 C462 1.389 . S
C464 C465 1.524 . S
C464 C478 1.377 . S
C465 C464 1.524 . S
C465 C466 1.397 . S
C465 C470 1.363 1_556 S
C466 H443 0.950 . S
C466 C465 1.397 . S
C466 C467 1.334 . S
C467 H444 0.950 . S
C467 C466 1.334 . S
C467 C468 1.287 . S
C468 C467 1.287 . S
C468 C469 1.524 1_556 S
C468 H487 0.913 . S
C469 H445 0.950 . S
C469 C468 1.524 1_554 S
C469 C470 1.415 . S
C470 H446 0.950 . S
C470 C465 1.363 1_554 S
C470 C469 1.415 . S
C471 H447 0.951 . S
C471 C472 1.366 1_556 S
C471 C473 1.388 . S
C472 C471 1.366 1_554 S
C472 C476 1.385 . S
C473 H448 0.951 . S
C473 C471 1.388 . S
C473 C474 1.366 . S
C474 C473 1.366 . S
C474 C475 1.414 1_556 S
C474 C477 1.499 . S
C475 H449 0.950 . S
C475 C474 1.414 1_554 S
C475 C476 1.374 . S
C476 H450 0.950 . S
C476 C472 1.385 . S
C476 C475 1.374 . S
C477 C474 1.499 . S
C477 C478 1.373 . S
C477 C479 1.389 . S
C478 H451 0.952 1_556 S
C478 C464 1.377 . S
C478 C477 1.373 . S
C479 C463 1.377 . S
C479 C477 1.389 . S
C479 C480 1.524 . S
C480 C479 1.524 . S
C480 C481 1.397 . S
C480 C485 1.363 . S
C481 H452 0.950 . S
C481 C480 1.397 . S
C481 C482 1.334 . S
C482 H453 0.950 . S
C482 C481 1.334 . S
C482 C483 1.287 . S
C483 C482 1.287 . S
C483 C484 1.524 . S
C483 H486 0.999 . S
C484 H454 0.950 . S
C484 C483 1.524 . S
C484 C485 1.415 . S
C485 H455 0.950 . S
C485 C480 1.363 . S
C485 C484 1.415 . S
H486 C483 0.999 . S
H487 C468 0.913 . S
H488 C506 0.951 . S
H489 C508 0.951 . S
H490 C510 0.950 . S
H491 C511 0.950 . S
H492 C513 0.950 . S
H493 C516 0.950 . S
H494 C517 0.950 . S
H495 C519 0.950 . S
H496 C520 0.950 . S
H497 C521 0.951 . S
H498 C523 0.951 . S
H499 C525 0.950 . S
H500 C526 0.950 . S
H501 C528 0.950 . S
H502 C531 0.950 . S
H503 C532 0.950 . S
H504 C534 0.950 . S
H505 C535 0.950 . S
C506 H488 0.951 . S
C506 C507 1.366 . S
C506 C508 1.388 . S
C507 C506 1.366 . S
C507 C511 1.385 . S
C508 H489 0.951 . S
C508 C506 1.388 . S
C508 C509 1.366 . S
C509 C508 1.366 . S
C509 C510 1.414 . S
C509 C512 1.499 . S
C510 H490 0.950 . S
C510 C509 1.414 . S
C510 C511 1.374 . S
C511 H491 0.950 . S
C511 C507 1.385 . S
C511 C510 1.374 . S
C512 C509 1.499 . S
C512 C513 1.373 . S
C512 C514 1.389 . S
C513 H492 0.950 . S
C513 C512 1.373 . S
C513 C529 1.377 . S
C514 C512 1.389 . S
C514 C515 1.524 . S
C514 C528 1.377 . S
C515 C514 1.524 . S
C515 C516 1.397 . S
C515 C520 1.363 . S
C516 H493 0.950 . S
C516 C515 1.397 . S
C516 C517 1.334 . S
C517 H494 0.950 . S
C517 C516 1.334 . S
C517 C518 1.287 . S
C518 C517 1.287 . S
C518 C519 1.524 . S
C518 H537 0.913 . S
C519 H495 0.950 . S
C519 C518 1.524 . S
C519 C520 1.415 . S
C520 H496 0.950 . S
C520 C515 1.363 . S
C520 C519 1.415 . S
C521 H497 0.951 . S
C521 C522 1.366 . S
C521 C523 1.388 . S
C522 C521 1.366 . S
C522 C526 1.385 . S
C523 H498 0.951 . S
C523 C521 1.388 . S
C523 C524 1.366 . S
C524 C523 1.366 . S
C524 C525 1.414 . S
C524 C527 1.499 . S
C525 H499 0.950 . S
C525 C524 1.414 . S
C525 C526 1.374 . S
C526 H500 0.950 . S
C526 C522 1.385 . S
C526 C525 1.374 . S
C527 C524 1.499 . S
C527 C528 1.373 . S
C527 C529 1.389 . S
C528 H501 0.950 . S
C528 C514 1.377 . S
C528 C527 1.373 . S
C529 C513 1.377 . S
C529 C527 1.389 . S
C529 C530 1.524 . S
C530 C529 1.524 . S
C530 C531 1.397 . S
C530 C535 1.363 . S
C531 H502 0.950 . S
C531 C530 1.397 . S
C531 C532 1.334 . S
C532 H503 0.950 . S
C532 C531 1.334 . S
C532 C533 1.287 . S
C533 C532 1.287 . S
C533 C534 1.524 . S
C533 H536 0.999 . S
C534 H504 0.950 . S
C534 C533 1.524 . S
C534 C535 1.415 . S
C535 H505 0.950 . S
C535 C530 1.363 . S
C535 C534 1.415 . S
H536 C533 0.999 . S
H537 C518 0.913 . S
H538 C556 0.951 . S
H539 C558 0.951 . S
H540 C560 0.950 . S
H541 C561 0.950 . S
H542 C563 0.950 . S
H543 C566 0.950 . S
H544 C567 0.950 . S
H545 C569 0.950 . S
H546 C570 0.950 . S
H547 C571 0.951 . S
H548 C573 0.951 . S
H549 C575 0.950 . S
H550 C576 0.950 . S
H551 C578 0.950 . S
H552 C581 0.950 . S
H553 C582 0.950 . S
H554 C584 0.950 . S
H555 C585 0.950 . S
C556 H538 0.951 . S
C556 C557 1.366 . S
C556 C558 1.388 . S
C557 C556 1.366 . S
C557 C561 1.385 . S
C558 H539 0.951 . S
C558 C556 1.388 . S
C558 C559 1.366 . S
C559 C558 1.366 . S
C559 C560 1.414 . S
C559 C562 1.499 . S
C560 H540 0.950 . S
C560 C559 1.414 . S
C560 C561 1.374 . S
C561 H541 0.950 . S
C561 C557 1.385 . S
C561 C560 1.374 . S
C562 C559 1.499 . S
C562 C563 1.373 . S
C562 C564 1.389 . S
C563 H542 0.950 . S
C563 C562 1.373 . S
C563 C579 1.377 . S
C564 C562 1.389 . S
C564 C565 1.524 . S
C564 C578 1.377 . S
C565 C564 1.524 . S
C565 C566 1.397 . S
C565 C570 1.363 . S
C566 H543 0.950 . S
C566 C565 1.397 . S
C566 C567 1.334 . S
C567 H544 0.950 . S
C567 C566 1.334 . S
C567 C568 1.287 . S
C568 C567 1.287 . S
C568 C569 1.524 . S
C568 H587 0.913 . S
C569 H545 0.950 . S
C569 C568 1.524 . S
C569 C570 1.415 . S
C570 H546 0.950 . S
C570 C565 1.363 . S
C570 C569 1.415 . S
C571 H547 0.951 . S
C571 C572 1.366 . S
C571 C573 1.388 . S
C572 C571 1.366 . S
C572 C576 1.385 . S
C573 H548 0.951 . S
C573 C571 1.388 . S
C573 C574 1.366 . S
C574 C573 1.366 . S
C574 C575 1.414 . S
C574 C577 1.499 . S
C575 H549 0.950 . S
C575 C574 1.414 . S
C575 C576 1.374 . S
C576 H550 0.950 . S
C576 C572 1.385 . S
C576 C575 1.374 . S
C577 C574 1.499 . S
C577 C578 1.373 . S
C577 C579 1.389 . S
C578 H551 0.950 . S
C578 C564 1.377 . S
C578 C577 1.373 . S
C579 C563 1.377 . S
C579 C577 1.389 . S
C579 C580 1.524 . S
C580 C579 1.524 . S
C580 C581 1.397 . S
C580 C585 1.363 . S
C581 H552 0.950 . S
C581 C580 1.397 . S
C581 C582 1.334 . S
C582 H553 0.950 . S
C582 C581 1.334 . S
C582 C583 1.287 . S
C583 C582 1.287 . S
C583 C584 1.524 . S
C583 H586 0.999 . S
C584 H554 0.950 . S
C584 C583 1.524 . S
C584 C585 1.415 . S
C585 H555 0.950 . S
C585 C580 1.363 . S
C585 C584 1.415 . S
H586 C583 0.999 . S
H587 C568 0.913 . S
H588 C606 0.951 . S
H589 C608 0.951 . S
H590 C610 0.950 . S
H591 C611 0.950 . S
H592 C613 0.950 . S
H593 C616 0.950 . S
H594 C617 0.950 . S
H595 C619 0.950 . S
H596 C620 0.950 . S
H597 C621 0.951 . S
H598 C623 0.951 . S
H599 C625 0.950 . S
H600 C626 0.950 . S
H601 C628 0.950 . S
H602 C631 0.950 . S
H603 C632 0.950 . S
H604 C634 0.950 1_545 S
H605 C635 0.950 . S
C606 H588 0.951 . S
C606 C607 1.366 . S
C606 C608 1.388 . S
C607 C606 1.366 . S
C607 C611 1.385 . S
C608 H589 0.951 . S
C608 C606 1.388 . S
C608 C609 1.366 . S
C609 C608 1.366 . S
C609 C610 1.414 . S
C609 C612 1.499 . S
C610 H590 0.950 . S
C610 C609 1.414 . S
C610 C611 1.374 . S
C611 H591 0.950 . S
C611 C607 1.385 . S
C611 C610 1.374 . S
C612 C609 1.499 . S
C612 C613 1.373 . S
C612 C614 1.389 . S
C613 H592 0.950 . S
C613 C612 1.373 . S
C613 C629 1.377 . S
C614 C612 1.389 . S
C614 C615 1.524 . S
C614 C628 1.377 . S
C615 C614 1.524 . S
C615 C616 1.397 . S
C615 C620 1.363 . S
C616 H593 0.950 . S
C616 C615 1.397 . S
C616 C617 1.334 . S
C617 H594 0.950 . S
C617 C616 1.334 . S
C617 C618 1.287 . S
C618 C617 1.287 . S
C618 C619 1.524 . S
C618 H637 0.913 . S
C619 H595 0.950 . S
C619 C618 1.524 . S
C619 C620 1.415 . S
C620 H596 0.950 . S
C620 C615 1.363 . S
C620 C619 1.415 . S
C621 H597 0.951 . S
C621 C622 1.366 . S
C621 C623 1.388 . S
C622 C621 1.366 . S
C622 C626 1.385 . S
C623 H598 0.951 . S
C623 C621 1.388 . S
C623 C624 1.366 . S
C624 C623 1.366 . S
C624 C625 1.414 . S
C624 C627 1.499 . S
C625 H599 0.950 . S
C625 C624 1.414 . S
C625 C626 1.374 . S
C626 H600 0.950 . S
C626 C622 1.385 . S
C626 C625 1.374 . S
C627 C624 1.499 . S
C627 C628 1.373 . S
C627 C629 1.389 . S
C628 H601 0.950 . S
C628 C614 1.377 . S
C628 C627 1.373 . S
C629 C613 1.377 . S
C629 C627 1.389 . S
C629 C630 1.524 . S
C630 C629 1.524 . S
C630 C631 1.397 . S
C630 C635 1.363 . S
C631 H602 0.950 . S
C631 C630 1.397 . S
C631 C632 1.334 1_565 S
C632 H603 0.950 . S
C632 C631 1.334 1_545 S
C632 C633 1.287 . S
C633 C632 1.287 . S
C633 C634 1.524 1_545 S
C633 H636 0.999 . S
C634 H604 0.950 1_565 S
C634 C633 1.524 1_565 S
C634 C635 1.415 . S
C635 H605 0.950 . S
C635 C630 1.363 . S
C635 C634 1.415 . S
H636 C633 0.999 . S
H637 C618 0.913 . S
H638 C656 0.951 . S
H639 C658 0.951 . S
H640 C660 0.950 . S
H641 C661 0.950 . S
H642 C663 0.950 . S
H643 C666 0.950 . S
H644 C667 0.950 . S
H645 C669 0.950 . S
H646 C670 0.950 . S
H647 C671 0.951 . S
H648 C673 0.951 . S
H649 C675 0.950 . S
H650 C676 0.950 . S
H651 C678 0.950 . S
H652 C681 0.950 . S
H653 C682 0.950 . S
H654 C684 0.950 . S
H655 C685 0.950 . S
C656 H638 0.951 . S
C656 C657 1.366 . S
C656 C658 1.388 . S
C657 C656 1.366 . S
C657 C661 1.385 . S
C658 H639 0.951 . S
C658 C656 1.388 . S
C658 C659 1.366 . S
C659 C658 1.366 . S
C659 C660 1.414 . S
C659 C662 1.499 . S
C660 H640 0.950 . S
C660 C659 1.414 . S
C660 C661 1.374 . S
C661 H641 0.950 . S
C661 C657 1.385 . S
C661 C660 1.374 . S
C662 C659 1.499 . S
C662 C663 1.373 . S
C662 C664 1.389 . S
C663 H642 0.950 . S
C663 C662 1.373 . S
C663 C679 1.377 . S
C664 C662 1.389 . S
C664 C665 1.524 . S
C664 C678 1.377 . S
C665 C664 1.524 . S
C665 C666 1.397 . S
C665 C670 1.363 . S
C666 H643 0.950 . S
C666 C665 1.397 . S
C666 C667 1.334 . S
C667 H644 0.950 . S
C667 C666 1.334 . S
C667 C668 1.287 . S
C668 C667 1.287 . S
C668 C669 1.524 . S
C668 H687 0.913 . S
C669 H645 0.950 . S
C669 C668 1.524 . S
C669 C670 1.415 . S
C670 H646 0.950 . S
C670 C665 1.363 . S
C670 C669 1.415 . S
C671 H647 0.951 . S
C671 C672 1.366 . S
C671 C673 1.388 . S
C672 C671 1.366 . S
C672 C676 1.385 . S
C673 H648 0.951 . S
C673 C671 1.388 . S
C673 C674 1.366 . S
C674 C673 1.366 . S
C674 C675 1.414 . S
C674 C677 1.499 . S
C675 H649 0.950 . S
C675 C674 1.414 . S
C675 C676 1.374 . S
C676 H650 0.950 . S
C676 C672 1.385 . S
C676 C675 1.374 . S
C677 C674 1.499 . S
C677 C678 1.373 . S
C677 C679 1.389 . S
C678 H651 0.950 . S
C678 C664 1.377 . S
C678 C677 1.373 . S
C679 C663 1.377 . S
C679 C677 1.389 . S
C679 C680 1.524 . S
C680 C679 1.524 . S
C680 C681 1.397 . S
C680 C685 1.363 . S
C681 H652 0.950 . S
C681 C680 1.397 . S
C681 C682 1.334 . S
C682 H653 0.950 . S
C682 C681 1.334 . S
C682 C683 1.287 . S
C683 C682 1.287 . S
C683 C684 1.524 . S
C683 H686 0.999 . S
C684 H654 0.950 . S
C684 C683 1.524 . S
C684 C685 1.415 . S
C685 H655 0.950 . S
C685 C680 1.363 . S
C685 C684 1.415 . S
H686 C683 0.999 . S
H687 C668 0.913 . S
H688 C706 0.951 . S
H689 C708 0.951 . S
H690 C710 0.950 . S
H691 C711 0.950 . S
H692 C713 0.950 . S
H693 C716 0.950 . S
H694 C717 0.950 . S
H695 C719 0.950 . S
H696 C720 0.950 . S
H697 C721 0.951 . S
H698 C723 0.951 . S
H699 C725 0.950 . S
H700 C726 0.950 . S
H701 C728 0.950 . S
H702 C731 0.950 . S
H703 C732 0.950 . S
H704 C734 0.950 . S
H705 C735 0.950 . S
C706 H688 0.951 . S
C706 C707 1.366 . S
C706 C708 1.388 . S
C707 C706 1.366 . S
C707 C711 1.385 . S
C708 H689 0.951 . S
C708 C706 1.388 . S
C708 C709 1.366 . S
C709 C708 1.366 . S
C709 C710 1.414 . S
C709 C712 1.499 . S
C710 H690 0.950 . S
C710 C709 1.414 . S
C710 C711 1.374 . S
C711 H691 0.950 . S
C711 C707 1.385 . S
C711 C710 1.374 . S
C712 C709 1.499 . S
C712 C713 1.373 . S
C712 C714 1.389 . S
C713 H692 0.950 . S
C713 C712 1.373 . S
C713 C729 1.377 . S
C714 C712 1.389 . S
C714 C715 1.524 . S
C714 C728 1.377 . S
C715 C714 1.524 . S
C715 C716 1.397 . S
C715 C720 1.363 . S
C716 H693 0.950 . S
C716 C715 1.397 . S
C716 C717 1.334 . S
C717 H694 0.950 . S
C717 C716 1.334 . S
C717 C718 1.287 . S
C718 C717 1.287 . S
C718 C719 1.524 . S
C718 H737 0.913 . S
C719 H695 0.950 . S
C719 C718 1.524 . S
C719 C720 1.415 . S
C720 H696 0.950 . S
C720 C715 1.363 . S
C720 C719 1.415 . S
C721 H697 0.951 . S
C721 C722 1.366 . S
C721 C723 1.388 . S
C722 C721 1.366 . S
C722 C726 1.385 . S
C723 H698 0.951 . S
C723 C721 1.388 . S
C723 C724 1.366 . S
C724 C723 1.366 . S
C724 C725 1.414 . S
C724 C727 1.499 . S
C725 H699 0.950 . S
C725 C724 1.414 . S
C725 C726 1.374 . S
C726 H700 0.950 . S
C726 C722 1.385 . S
C726 C725 1.374 . S
C727 C724 1.499 . S
C727 C728 1.373 . S
C727 C729 1.389 . S
C728 H701 0.950 . S
C728 C714 1.377 . S
C728 C727 1.373 . S
C729 C713 1.377 . S
C729 C727 1.389 . S
C729 C730 1.524 . S
C730 C729 1.524 . S
C730 C731 1.397 . S
C730 C735 1.363 . S
C731 H702 0.950 . S
C731 C730 1.397 . S
C731 C732 1.334 . S
C732 H703 0.950 . S
C732 C731 1.334 . S
C732 C733 1.287 . S
C733 C732 1.287 . S
C733 C734 1.524 . S
C733 H736 0.999 . S
C734 H704 0.950 . S
C734 C733 1.524 . S
C734 C735 1.415 . S
C735 H705 0.950 . S
C735 C730 1.363 . S
C735 C734 1.415 . S
H736 C733 0.999 . S
H737 C718 0.913 . S
H738 C756 0.951 . S
H739 C758 0.951 . S
H740 C760 0.950 . S
H741 C761 0.950 . S
H742 C763 0.950 . S
H743 C766 0.950 . S
H744 C767 0.950 . S
H745 C769 0.950 . S
H746 C770 0.950 . S
H747 C771 0.951 . S
H748 C773 0.951 . S
H749 C775 0.950 . S
H750 C776 0.950 . S
H751 C778 0.950 . S
H752 C781 0.950 . S
H753 C782 0.950 . S
H754 C784 0.950 . S
H755 C785 0.950 . S
C756 H738 0.951 . S
C756 C757 1.366 . S
C756 C758 1.388 . S
C757 C756 1.366 . S
C757 C761 1.385 . S
C758 H739 0.951 . S
C758 C756 1.388 . S
C758 C759 1.366 . S
C759 C758 1.366 . S
C759 C760 1.414 . S
C759 C762 1.499 . S
C760 H740 0.950 . S
C760 C759 1.414 . S
C760 C761 1.374 . S
C761 H741 0.950 . S
C761 C757 1.385 . S
C761 C760 1.374 . S
C762 C759 1.499 . S
C762 C763 1.373 . S
C762 C764 1.389 . S
C763 H742 0.950 . S
C763 C762 1.373 . S
C763 C779 1.377 . S
C764 C762 1.389 . S
C764 C765 1.524 . S
C764 C778 1.377 . S
C765 C764 1.524 . S
C765 C766 1.397 . S
C765 C770 1.363 . S
C766 H743 0.950 . S
C766 C765 1.397 . S
C766 C767 1.334 . S
C767 H744 0.950 . S
C767 C766 1.334 . S
C767 C768 1.287 . S
C768 C767 1.287 . S
C768 C769 1.524 . S
C768 H787 0.913 . S
C769 H745 0.950 . S
C769 C768 1.524 . S
C769 C770 1.415 . S
C770 H746 0.950 . S
C770 C765 1.363 . S
C770 C769 1.415 . S
C771 H747 0.951 . S
C771 C772 1.366 . S
C771 C773 1.388 . S
C772 C771 1.366 . S
C772 C776 1.385 . S
C773 H748 0.951 . S
C773 C771 1.388 . S
C773 C774 1.366 . S
C774 C773 1.366 . S
C774 C775 1.414 . S
C774 C777 1.499 . S
C775 H749 0.950 . S
C775 C774 1.414 . S
C775 C776 1.374 . S
C776 H750 0.950 . S
C776 C772 1.385 . S
C776 C775 1.374 . S
C777 C774 1.499 . S
C777 C778 1.373 . S
C777 C779 1.389 . S
C778 H751 0.950 . S
C778 C764 1.377 . S
C778 C777 1.373 . S
C779 C763 1.377 . S
C779 C777 1.389 . S
C779 C780 1.524 . S
C780 C779 1.524 . S
C780 C781 1.397 . S
C780 C785 1.363 . S
C781 H752 0.950 . S
C781 C780 1.397 . S
C781 C782 1.334 . S
C782 H753 0.950 . S
C782 C781 1.334 . S
C782 C783 1.287 . S
C783 C782 1.287 . S
C783 C784 1.524 . S
C783 H786 0.999 . S
C784 H754 0.950 . S
C784 C783 1.524 . S
C784 C785 1.415 . S
C785 H755 0.950 . S
C785 C780 1.363 . S
C785 C784 1.415 . S
H786 C783 0.999 . S
H787 C768 0.913 . S
H788 C806 0.951 . S
H789 C808 0.951 . S
H790 C810 0.950 . S
H791 C811 0.950 . S
H792 C813 0.950 . S
H793 C816 0.950 . S
H794 C817 0.950 . S
H795 C819 0.950 . S
H796 C820 0.950 . S
H797 C821 0.951 . S
H798 C823 0.951 . S
H799 C825 0.950 . S
H800 C826 0.950 . S
H801 C828 0.950 . S
H802 C831 0.950 . S
H803 C832 0.950 . S
H804 C834 0.950 . S
H805 C835 0.950 . S
C806 H788 0.951 . S
C806 C807 1.366 . S
C806 C808 1.388 . S
C807 C806 1.366 . S
C807 C811 1.385 . S
C808 H789 0.951 . S
C808 C806 1.388 . S
C808 C809 1.366 . S
C809 C808 1.366 . S
C809 C810 1.414 . S
C809 C812 1.499 . S
C810 H790 0.950 . S
C810 C809 1.414 . S
C810 C811 1.374 . S
C811 H791 0.950 . S
C811 C807 1.385 . S
C811 C810 1.374 . S
C812 C809 1.499 . S
C812 C813 1.373 . S
C812 C814 1.389 . S
C813 H792 0.950 . S
C813 C812 1.373 . S
C813 C829 1.377 . S
C814 C812 1.389 . S
C814 C815 1.524 . S
C814 C828 1.377 . S
C815 C814 1.524 . S
C815 C816 1.397 . S
C815 C820 1.363 . S
C816 H793 0.950 . S
C816 C815 1.397 . S
C816 C817 1.334 . S
C817 H794 0.950 . S
C817 C816 1.334 . S
C817 C818 1.287 . S
C818 C817 1.287 . S
C818 C819 1.524 . S
C818 H837 0.913 . S
C819 H795 0.950 . S
C819 C818 1.524 . S
C819 C820 1.415 . S
C820 H796 0.950 . S
C820 C815 1.363 . S
C820 C819 1.415 . S
C821 H797 0.951 . S
C821 C822 1.366 . S
C821 C823 1.388 . S
C822 C821 1.366 . S
C822 C826 1.385 . S
C823 H798 0.951 . S
C823 C821 1.388 . S
C823 C824 1.366 . S
C824 C823 1.366 . S
C824 C825 1.414 . S
C824 C827 1.499 . S
C825 H799 0.950 . S
C825 C824 1.414 . S
C825 C826 1.374 . S
C826 H800 0.950 . S
C826 C822 1.385 . S
C826 C825 1.374 . S
C827 C824 1.499 . S
C827 C828 1.373 . S
C827 C829 1.389 . S
C828 H801 0.950 . S
C828 C814 1.377 . S
C828 C827 1.373 . S
C829 C813 1.377 . S
C829 C827 1.389 . S
C829 C830 1.524 . S
C830 C829 1.524 . S
C830 C831 1.397 . S
C830 C835 1.363 . S
C831 H802 0.950 . S
C831 C830 1.397 . S
C831 C832 1.334 . S
C832 H803 0.950 . S
C832 C831 1.334 . S
C832 C833 1.287 . S
C833 C832 1.287 . S
C833 C834 1.524 . S
C833 H836 0.999 . S
C834 H804 0.950 . S
C834 C833 1.524 . S
C834 C835 1.415 . S
C835 H805 0.950 . S
C835 C830 1.363 . S
C835 C834 1.415 . S
H836 C833 0.999 . S
H837 C818 0.913 . S
H838 C856 0.951 . S
H839 C858 0.951 . S
H840 C860 0.950 . S
H841 C861 0.950 . S
H842 C863 0.950 . S
H843 C866 0.950 . S
H844 C867 0.950 . S
H845 C869 0.950 . S
H846 C870 0.950 . S
H847 C871 0.951 . S
H848 C873 0.951 . S
H849 C875 0.950 . S
H850 C876 0.950 . S
H851 C878 0.950 . S
H852 C881 0.950 . S
H853 C882 0.950 . S
H854 C884 0.950 . S
H855 C885 0.950 . S
C856 H838 0.951 . S
C856 C857 1.366 . S
C856 C858 1.388 . S
C857 C856 1.366 . S
C857 C861 1.385 . S
C858 H839 0.951 . S
C858 C856 1.388 . S
C858 C859 1.366 . S
C859 C858 1.366 . S
C859 C860 1.414 . S
C859 C862 1.499 . S
C860 H840 0.950 . S
C860 C859 1.414 . S
C860 C861 1.374 . S
C861 H841 0.950 . S
C861 C857 1.385 . S
C861 C860 1.374 . S
C862 C859 1.499 . S
C862 C863 1.373 . S
C862 C864 1.389 . S
C863 H842 0.950 . S
C863 C862 1.373 . S
C863 C879 1.377 . S
C864 C862 1.389 . S
C864 C865 1.524 . S
C864 C878 1.377 . S
C865 C864 1.524 . S
C865 C866 1.397 . S
C865 C870 1.363 . S
C866 H843 0.950 . S
C866 C865 1.397 . S
C866 C867 1.334 . S
C867 H844 0.950 . S
C867 C866 1.334 . S
C867 C868 1.287 . S
C868 C867 1.287 . S
C868 C869 1.524 . S
C868 H887 0.913 . S
C869 H845 0.950 . S
C869 C868 1.524 . S
C869 C870 1.415 . S
C870 H846 0.950 . S
C870 C865 1.363 . S
C870 C869 1.415 . S
C871 H847 0.951 . S
C871 C872 1.366 . S
C871 C873 1.388 . S
C872 C871 1.366 . S
C872 C876 1.385 . S
C873 H848 0.951 . S
C873 C871 1.388 . S
C873 C874 1.366 . S
C874 C873 1.366 . S
C874 C875 1.414 . S
C874 C877 1.499 . S
C875 H849 0.950 . S
C875 C874 1.414 . S
C875 C876 1.374 . S
C876 H850 0.950 . S
C876 C872 1.385 . S
C876 C875 1.374 . S
C877 C874 1.499 . S
C877 C878 1.373 . S
C877 C879 1.389 . S
C878 H851 0.950 . S
C878 C864 1.377 . S
C878 C877 1.373 . S
C879 C863 1.377 . S
C879 C877 1.389 . S
C879 C880 1.524 . S
C880 C879 1.524 . S
C880 C881 1.397 . S
C880 C885 1.363 . S
C881 H852 0.950 . S
C881 C880 1.397 . S
C881 C882 1.334 . S
C882 H853 0.950 . S
C882 C881 1.334 . S
C882 C883 1.287 . S
C883 C882 1.287 . S
C883 C884 1.524 . S
C883 H886 0.999 . S
C884 H854 0.950 . S
C884 C883 1.524 . S
C884 C885 1.415 . S
C885 H855 0.950 . S
C885 C880 1.363 . S
C885 C884 1.415 . S
H886 C883 0.999 . S
H887 C868 0.913 . S
H888 C906 0.951 . S
H889 C908 0.951 . S
H890 C910 0.950 . S
H891 C911 0.950 . S
H892 C913 0.950 . S
H893 C916 0.950 . S
H894 C917 0.950 . S
H895 C919 0.950 . S
H896 C920 0.950 . S
H897 C921 0.951 . S
H898 C923 0.951 . S
H899 C925 0.950 . S
H900 C926 0.950 . S
H901 C928 0.950 . S
H902 C931 0.950 . S
H903 C932 0.950 . S
H904 C934 0.950 . S
H905 C935 0.950 . S
C906 H888 0.951 . S
C906 C907 1.366 . S
C906 C908 1.388 . S
C907 C906 1.366 . S
C907 C911 1.385 . S
C908 H889 0.951 . S
C908 C906 1.388 . S
C908 C909 1.366 . S
C909 C908 1.366 . S
C909 C910 1.414 . S
C909 C912 1.499 . S
C910 H890 0.950 . S
C910 C909 1.414 . S
C910 C911 1.374 . S
C911 H891 0.950 . S
C911 C907 1.385 . S
C911 C910 1.374 . S
C912 C909 1.499 . S
C912 C913 1.373 . S
C912 C914 1.389 . S
C913 H892 0.950 . S
C913 C912 1.373 . S
C913 C929 1.377 . S
C914 C912 1.389 . S
C914 C915 1.524 . S
C914 C928 1.377 . S
C915 C914 1.524 . S
C915 C916 1.397 . S
C915 C920 1.363 . S
C916 H893 0.950 . S
C916 C915 1.397 . S
C916 C917 1.334 . S
C917 H894 0.950 . S
C917 C916 1.334 . S
C917 C918 1.287 . S
C918 C917 1.287 . S
C918 C919 1.524 . S
C918 H937 0.913 . S
C919 H895 0.950 . S
C919 C918 1.524 . S
C919 C920 1.415 . S
C920 H896 0.950 . S
C920 C915 1.363 . S
C920 C919 1.415 . S
C921 H897 0.951 . S
C921 C922 1.366 . S
C921 C923 1.388 . S
C922 C921 1.366 . S
C922 C926 1.385 . S
C923 H898 0.951 . S
C923 C921 1.388 . S
C923 C924 1.366 . S
C924 C923 1.366 . S
C924 C925 1.414 . S
C924 C927 1.499 . S
C925 H899 0.950 . S
C925 C924 1.414 . S
C925 C926 1.374 . S
C926 H900 0.950 . S
C926 C922 1.385 . S
C926 C925 1.374 . S
C927 C924 1.499 . S
C927 C928 1.373 . S
C927 C929 1.389 . S
C928 H901 0.950 . S
C928 C914 1.377 . S
C928 C927 1.373 . S
C929 C913 1.377 . S
C929 C927 1.389 . S
C929 C930 1.524 . S
C930 C929 1.524 . S
C930 C931 1.397 . S
C930 C935 1.363 . S
C931 H902 0.950 . S
C931 C930 1.397 . S
C931 C932 1.334 . S
C932 H903 0.950 . S
C932 C931 1.334 . S
C932 C933 1.287 . S
C933 C932 1.287 . S
C933 C934 1.524 . S
C933 H936 0.999 . S
C934 H904 0.950 . S
C934 C933 1.524 . S
C934 C935 1.415 . S
C935 H905 0.950 . S
C935 C930 1.363 . S
C935 C934 1.415 . S
H936 C933 0.999 . S
H937 C918 0.913 . S
H938 C956 0.951 . S
H939 C958 0.951 . S
H940 C960 0.950 . S
H941 C961 0.950 . S
H942 C963 0.950 . S
H943 C966 0.950 . S
H944 C967 0.950 . S
H945 C969 0.950 . S
H946 C970 0.950 . S
H947 C971 0.951 . S
H948 C973 0.951 . S
H949 C975 0.950 . S
H950 C976 0.950 . S
H951 C978 0.950 . S
H952 C981 0.950 . S
H953 C982 0.950 . S
H954 C984 0.950 . S
H955 C985 0.950 . S
C956 H938 0.951 . S
C956 C957 1.366 . S
C956 C958 1.388 . S
C957 C956 1.366 . S
C957 C961 1.385 . S
C958 H939 0.951 . S
C958 C956 1.388 . S
C958 C959 1.366 . S
C959 C958 1.366 . S
C959 C960 1.414 . S
C959 C962 1.499 . S
C960 H940 0.950 . S
C960 C959 1.414 . S
C960 C961 1.374 . S
C961 H941 0.950 . S
C961 C957 1.385 . S
C961 C960 1.374 . S
C962 C959 1.499 . S
C962 C963 1.373 . S
C962 C964 1.389 . S
C963 H942 0.950 . S
C963 C962 1.373 . S
C963 C979 1.377 . S
C964 C962 1.389 . S
C964 C965 1.524 . S
C964 C978 1.377 . S
C965 C964 1.524 . S
C965 C966 1.397 . S
C965 C970 1.363 . S
C966 H943 0.950 . S
C966 C965 1.397 . S
C966 C967 1.334 . S
C967 H944 0.950 . S
C967 C966 1.334 . S
C967 C968 1.287 . S
C968 C967 1.287 . S
C968 C969 1.524 . S
C968 H987 0.913 . S
C969 H945 0.950 . S
C969 C968 1.524 . S
C969 C970 1.415 . S
C970 H946 0.950 . S
C970 C965 1.363 . S
C970 C969 1.415 . S
C971 H947 0.951 . S
C971 C972 1.366 . S
C971 C973 1.388 . S
C972 C971 1.366 . S
C972 C976 1.385 . S
C973 H948 0.951 . S
C973 C971 1.388 . S
C973 C974 1.366 . S
C974 C973 1.366 . S
C974 C975 1.414 . S
C974 C977 1.499 . S
C975 H949 0.950 . S
C975 C974 1.414 . S
C975 C976 1.374 . S
C976 H950 0.950 . S
C976 C972 1.385 . S
C976 C975 1.374 . S
C977 C974 1.499 . S
C977 C978 1.373 . S
C977 C979 1.389 . S
C978 H951 0.950 . S
C978 C964 1.377 . S
C978 C977 1.373 . S
C979 C963 1.377 . S
C979 C977 1.389 . S
C979 C980 1.524 . S
C980 C979 1.524 . S
C980 C981 1.397 . S
C980 C985 1.363 . S
C981 H952 0.950 . S
C981 C980 1.397 . S
C981 C982 1.334 . S
C982 H953 0.950 . S
C982 C981 1.334 . S
C982 C983 1.287 . S
C983 C982 1.287 . S
C983 C984 1.524 . S
C983 H986 0.999 . S
C984 H954 0.950 . S
C984 C983 1.524 . S
C984 C985 1.415 . S
C985 H955 0.950 . S
C985 C980 1.363 . S
C985 C984 1.415 . S
H986 C983 0.999 . S
H987 C968 0.913 . S
H988 C1006 0.951 . S
H989 C1008 0.951 . S
H990 C1010 0.950 . S
H991 C1011 0.950 . S
H992 C1013 0.950 . S
H993 C1016 0.950 . S
H994 C1017 0.950 . S
H995 C1019 0.950 . S
H996 C1020 0.950 . S
H997 C1021 0.951 . S
H998 C1023 0.951 . S
H999 C1025 0.950 . S
H1000 C1026 0.950 . S
H1001 C1028 0.950 . S
H1002 C1031 0.950 . S
H1003 C1032 0.950 . S
H1004 C1034 0.950 . S
H1005 C1035 0.950 . S
C1006 H988 0.951 . S
C1006 C1007 1.366 . S
C1006 C1008 1.388 . S
C1007 C1006 1.366 . S
C1007 C1011 1.385 . S
C1008 H989 0.951 . S
C1008 C1006 1.388 . S
C1008 C1009 1.366 . S
C1009 C1008 1.366 . S
C1009 C1010 1.414 . S
C1009 C1012 1.499 . S
C1010 H990 0.950 . S
C1010 C1009 1.414 . S
C1010 C1011 1.374 . S
C1011 H991 0.950 . S
C1011 C1007 1.385 . S
C1011 C1010 1.374 . S
C1012 C1009 1.499 . S
C1012 C1013 1.373 . S
C1012 C1014 1.389 . S
C1013 H992 0.950 . S
C1013 C1012 1.373 . S
C1013 C1029 1.377 . S
C1014 C1012 1.389 . S
C1014 C1015 1.524 . S
C1014 C1028 1.377 . S
C1015 C1014 1.524 . S
C1015 C1016 1.397 . S
C1015 C1020 1.363 . S
C1016 H993 0.950 . S
C1016 C1015 1.397 . S
C1016 C1017 1.334 . S
C1017 H994 0.950 . S
C1017 C1016 1.334 . S
C1017 C1018 1.287 . S
C1018 C1017 1.287 . S
C1018 C1019 1.524 . S
C1018 H1037 0.913 . S
C1019 H995 0.950 . S
C1019 C1018 1.524 . S
C1019 C1020 1.415 . S
C1020 H996 0.950 . S
C1020 C1015 1.363 . S
C1020 C1019 1.415 . S
C1021 H997 0.951 . S
C1021 C1022 1.366 . S
C1021 C1023 1.388 . S
C1022 C1021 1.366 . S
C1022 C1026 1.385 . S
C1023 H998 0.951 . S
C1023 C1021 1.388 . S
C1023 C1024 1.366 . S
C1024 C1023 1.366 . S
C1024 C1025 1.414 . S
C1024 C1027 1.499 . S
C1025 H999 0.950 . S
C1025 C1024 1.414 . S
C1025 C1026 1.374 . S
C1026 H1000 0.950 . S
C1026 C1022 1.385 . S
C1026 C1025 1.374 . S
C1027 C1024 1.499 . S
C1027 C1028 1.373 . S
C1027 C1029 1.389 . S
C1028 H1001 0.950 . S
C1028 C1014 1.377 . S
C1028 C1027 1.373 . S
C1029 C1013 1.377 . S
C1029 C1027 1.389 . S
C1029 C1030 1.524 . S
C1030 C1029 1.524 . S
C1030 C1031 1.397 . S
C1030 C1035 1.363 . S
C1031 H1002 0.950 . S
C1031 C1030 1.397 . S
C1031 C1032 1.334 . S
C1032 H1003 0.950 . S
C1032 C1031 1.334 . S
C1032 C1033 1.287 . S
C1033 C1032 1.287 . S
C1033 C1034 1.524 . S
C1033 H1036 0.999 . S
C1034 H1004 0.950 . S
C1034 C1033 1.524 . S
C1034 C1035 1.415 . S
C1035 H1005 0.950 . S
C1035 C1030 1.363 . S
C1035 C1034 1.415 . S
H1036 C1033 0.999 . S
H1037 C1018 0.913 . S
H1038 C1056 0.951 . S
H1039 C1058 0.951 . S
H1040 C1060 0.950 . S
H1041 C1061 0.950 . S
H1042 C1063 0.950 . S
H1043 C1066 0.950 . S
H1044 C1067 0.950 . S
H1045 C1069 0.950 . S
H1046 C1070 0.950 . S
H1047 C1071 0.951 . S
H1048 C1073 0.951 . S
H1049 C1075 0.950 . S
H1050 C1076 0.950 . S
H1051 C1078 0.950 . S
H1052 C1081 0.950 . S
H1053 C1082 0.950 . S
H1054 C1084 0.950 . S
H1055 C1085 0.950 . S
C1056 H1038 0.951 . S
C1056 C1057 1.366 . S
C1056 C1058 1.388 . S
C1057 C1056 1.366 . S
C1057 C1061 1.385 . S
C1058 H1039 0.951 . S
C1058 C1056 1.388 . S
C1058 C1059 1.366 . S
C1059 C1058 1.366 . S
C1059 C1060 1.414 . S
C1059 C1062 1.499 . S
C1060 H1040 0.950 . S
C1060 C1059 1.414 . S
C1060 C1061 1.374 . S
C1061 H1041 0.950 . S
C1061 C1057 1.385 . S
C1061 C1060 1.374 . S
C1062 C1059 1.499 . S
C1062 C1063 1.373 . S
C1062 C1064 1.389 . S
C1063 H1042 0.950 . S
C1063 C1062 1.373 . S
C1063 C1079 1.377 . S
C1064 C1062 1.389 . S
C1064 C1065 1.524 . S
C1064 C1078 1.377 . S
C1065 C1064 1.524 . S
C1065 C1066 1.397 . S
C1065 C1070 1.363 . S
C1066 H1043 0.950 . S
C1066 C1065 1.397 . S
C1066 C1067 1.334 . S
C1067 H1044 0.950 . S
C1067 C1066 1.334 . S
C1067 C1068 1.287 . S
C1068 C1067 1.287 . S
C1068 C1069 1.524 . S
C1068 H1087 0.913 . S
C1069 H1045 0.950 . S
C1069 C1068 1.524 . S
C1069 C1070 1.415 . S
C1070 H1046 0.950 . S
C1070 C1065 1.363 . S
C1070 C1069 1.415 . S
C1071 H1047 0.951 . S
C1071 C1072 1.366 . S
C1071 C1073 1.388 . S
C1072 C1071 1.366 . S
C1072 C1076 1.385 . S
C1073 H1048 0.951 . S
C1073 C1071 1.388 . S
C1073 C1074 1.366 . S
C1074 C1073 1.366 . S
C1074 C1075 1.414 . S
C1074 C1077 1.499 . S
C1075 H1049 0.950 . S
C1075 C1074 1.414 . S
C1075 C1076 1.374 . S
C1076 H1050 0.950 . S
C1076 C1072 1.385 . S
C1076 C1075 1.374 . S
C1077 C1074 1.499 . S
C1077 C1078 1.373 . S
C1077 C1079 1.389 . S
C1078 H1051 0.950 . S
C1078 C1064 1.377 . S
C1078 C1077 1.373 . S
C1079 C1063 1.377 . S
C1079 C1077 1.389 . S
C1079 C1080 1.524 . S
C1080 C1079 1.524 . S
C1080 C1081 1.397 . S
C1080 C1085 1.363 . S
C1081 H1052 0.950 . S
C1081 C1080 1.397 . S
C1081 C1082 1.334 . S
C1082 H1053 0.950 . S
C1082 C1081 1.334 . S
C1082 C1083 1.287 . S
C1083 C1082 1.287 . S
C1083 C1084 1.524 . S
C1083 H1086 0.999 . S
C1084 H1054 0.950 . S
C1084 C1083 1.524 . S
C1084 C1085 1.415 . S
C1085 H1055 0.950 . S
C1085 C1080 1.363 . S
C1085 C1084 1.415 . S
H1086 C1083 0.999 . S
H1087 C1068 0.913 . S
H1088 C1106 0.951 . S
H1089 C1108 0.951 . S
H1090 C1110 0.950 . S
H1091 C1111 0.950 . S
H1092 C1113 0.950 . S
H1093 C1116 0.950 . S
H1094 C1117 0.950 . S
H1095 C1119 0.950 . S
H1096 C1120 0.950 . S
H1097 C1121 0.951 . S
H1098 C1123 0.951 . S
H1099 C1125 0.950 . S
H1100 C1126 0.950 . S
H1101 C1128 0.950 . S
H1102 C1131 0.950 . S
H1103 C1132 0.950 . S
H1104 C1134 0.950 . S
H1105 C1135 0.950 . S
C1106 H1088 0.951 . S
C1106 C1107 1.366 . S
C1106 C1108 1.388 . S
C1107 C1106 1.366 . S
C1107 C1111 1.385 . S
C1108 H1089 0.951 . S
C1108 C1106 1.388 . S
C1108 C1109 1.366 . S
C1109 C1108 1.366 . S
C1109 C1110 1.414 . S
C1109 C1112 1.499 . S
C1110 H1090 0.950 . S
C1110 C1109 1.414 . S
C1110 C1111 1.374 . S
C1111 H1091 0.950 . S
C1111 C1107 1.385 . S
C1111 C1110 1.374 . S
C1112 C1109 1.499 . S
C1112 C1113 1.373 . S
C1112 C1114 1.389 . S
C1113 H1092 0.950 . S
C1113 C1112 1.373 . S
C1113 C1129 1.377 . S
C1114 C1112 1.389 . S
C1114 C1115 1.524 . S
C1114 C1128 1.377 . S
C1115 C1114 1.524 . S
C1115 C1116 1.397 . S
C1115 C1120 1.363 . S
C1116 H1093 0.950 . S
C1116 C1115 1.397 . S
C1116 C1117 1.334 . S
C1117 H1094 0.950 . S
C1117 C1116 1.334 . S
C1117 C1118 1.287 . S
C1118 C1117 1.287 . S
C1118 C1119 1.524 . S
C1118 H1137 0.913 . S
C1119 H1095 0.950 . S
C1119 C1118 1.524 . S
C1119 C1120 1.415 . S
C1120 H1096 0.950 . S
C1120 C1115 1.363 . S
C1120 C1119 1.415 . S
C1121 H1097 0.951 . S
C1121 C1122 1.366 . S
C1121 C1123 1.388 . S
C1122 C1121 1.366 . S
C1122 C1126 1.385 . S
C1123 H1098 0.951 . S
C1123 C1121 1.388 . S
C1123 C1124 1.366 . S
C1124 C1123 1.366 . S
C1124 C1125 1.414 . S
C1124 C1127 1.499 . S
C1125 H1099 0.950 . S
C1125 C1124 1.414 . S
C1125 C1126 1.374 . S
C1126 H1100 0.950 . S
C1126 C1122 1.385 . S
C1126 C1125 1.374 . S
C1127 C1124 1.499 . S
C1127 C1128 1.373 . S
C1127 C1129 1.389 . S
C1128 H1101 0.950 . S
C1128 C1114 1.377 . S
C1128 C1127 1.373 . S
C1129 C1113 1.377 . S
C1129 C1127 1.389 . S
C1129 C1130 1.524 . S
C1130 C1129 1.524 . S
C1130 C1131 1.397 . S
C1130 C1135 1.363 . S
C1131 H1102 0.950 . S
C1131 C1130 1.397 . S
C1131 C1132 1.334 . S
C1132 H1103 0.950 . S
C1132 C1131 1.334 . S
C1132 C1133 1.287 . S
C1133 C1132 1.287 . S
C1133 C1134 1.524 . S
C1133 H1136 0.999 . S
C1134 H1104 0.950 . S
C1134 C1133 1.524 . S
C1134 C1135 1.415 . S
C1135 H1105 0.950 . S
C1135 C1130 1.363 . S
C1135 C1134 1.415 . S
H1136 C1133 0.999 . S
H1137 C1118 0.913 . S
H1138 C1156 0.951 . S
H1139 C1158 0.951 . S
H1140 C1160 0.950 . S
H1141 C1161 0.950 . S
H1142 C1163 0.950 . S
H1143 C1166 0.950 . S
H1144 C1167 0.950 . S
H1145 C1169 0.950 . S
H1146 C1170 0.950 . S
H1147 C1171 0.951 . S
H1148 C1173 0.951 . S
H1149 C1175 0.950 . S
H1150 C1176 0.950 . S
H1151 C1178 0.950 . S
H1152 C1181 0.950 . S
H1153 C1182 0.950 . S
H1154 C1184 0.950 . S
H1155 C1185 0.950 . S
C1156 H1138 0.951 . S
C1156 C1157 1.366 . S
C1156 C1158 1.388 . S
C1157 C1156 1.366 . S
C1157 C1161 1.385 . S
C1158 H1139 0.951 . S
C1158 C1156 1.388 . S
C1158 C1159 1.366 . S
C1159 C1158 1.366 . S
C1159 C1160 1.414 . S
C1159 C1162 1.499 . S
C1160 H1140 0.950 . S
C1160 C1159 1.414 . S
C1160 C1161 1.374 . S
C1161 H1141 0.950 . S
C1161 C1157 1.385 . S
C1161 C1160 1.374 . S
C1162 C1159 1.499 . S
C1162 C1163 1.373 . S
C1162 C1164 1.389 . S
C1163 H1142 0.950 . S
C1163 C1162 1.373 . S
C1163 C1179 1.377 . S
C1164 C1162 1.389 . S
C1164 C1165 1.524 . S
C1164 C1178 1.377 . S
C1165 C1164 1.524 . S
C1165 C1166 1.397 . S
C1165 C1170 1.363 . S
C1166 H1143 0.950 . S
C1166 C1165 1.397 . S
C1166 C1167 1.334 . S
C1167 H1144 0.950 . S
C1167 C1166 1.334 . S
C1167 C1168 1.287 . S
C1168 C1167 1.287 . S
C1168 C1169 1.524 . S
C1168 H1187 0.913 . S
C1169 H1145 0.950 . S
C1169 C1168 1.524 . S
C1169 C1170 1.415 . S
C1170 H1146 0.950 . S
C1170 C1165 1.363 . S
C1170 C1169 1.415 . S
C1171 H1147 0.951 . S
C1171 C1172 1.366 . S
C1171 C1173 1.388 . S
C1172 C1171 1.366 . S
C1172 C1176 1.385 . S
C1173 H1148 0.951 . S
C1173 C1171 1.388 . S
C1173 C1174 1.366 . S
C1174 C1173 1.366 . S
C1174 C1175 1.414 . S
C1174 C1177 1.499 . S
C1175 H1149 0.950 . S
C1175 C1174 1.414 . S
C1175 C1176 1.374 . S
C1176 H1150 0.950 . S
C1176 C1172 1.385 . S
C1176 C1175 1.374 . S
C1177 C1174 1.499 . S
C1177 C1178 1.373 . S
C1177 C1179 1.389 . S
C1178 H1151 0.950 . S
C1178 C1164 1.377 . S
C1178 C1177 1.373 . S
C1179 C1163 1.377 . S
C1179 C1177 1.389 . S
C1179 C1180 1.524 . S
C1180 C1179 1.524 . S
C1180 C1181 1.397 . S
C1180 C1185 1.363 . S
C1181 H1152 0.950 . S
C1181 C1180 1.397 . S
C1181 C1182 1.334 . S
C1182 H1153 0.950 . S
C1182 C1181 1.334 . S
C1182 C1183 1.287 . S
C1183 C1182 1.287 . S
C1183 C1184 1.524 . S
C1183 H1186 0.999 . S
C1184 H1154 0.950 . S
C1184 C1183 1.524 . S
C1184 C1185 1.415 . S
C1185 H1155 0.950 . S
C1185 C1180 1.363 . S
C1185 C1184 1.415 . S
H1186 C1183 0.999 . S
H1187 C1168 0.913 . S
H1188 C1206 0.951 . S
H1189 C1208 0.951 . S
H1190 C1210 0.950 . S
H1191 C1211 0.950 . S
H1192 C1213 0.950 . S
H1193 C1216 0.950 . S
H1194 C1217 0.950 . S
H1195 C1219 0.950 . S
H1196 C1220 0.950 . S
H1197 C1221 0.951 . S
H1198 C1223 0.951 . S
H1199 C1225 0.950 . S
H1200 C1226 0.950 . S
H1201 C1228 0.950 . S
H1202 C1231 0.950 . S
H1203 C1232 0.950 . S
H1204 C1234 0.950 . S
H1205 C1235 0.950 . S
C1206 H1188 0.951 . S
C1206 C1207 1.366 . S
C1206 C1208 1.388 . S
C1207 C1206 1.366 . S
C1207 C1211 1.385 . S
C1208 H1189 0.951 . S
C1208 C1206 1.388 . S
C1208 C1209 1.366 . S
C1209 C1208 1.366 . S
C1209 C1210 1.414 . S
C1209 C1212 1.499 . S
C1210 H1190 0.950 . S
C1210 C1209 1.414 . S
C1210 C1211 1.374 . S
C1211 H1191 0.950 . S
C1211 C1207 1.385 . S
C1211 C1210 1.374 . S
C1212 C1209 1.499 . S
C1212 C1213 1.373 . S
C1212 C1214 1.389 . S
C1213 H1192 0.950 . S
C1213 C1212 1.373 . S
C1213 C1229 1.377 . S
C1214 C1212 1.389 . S
C1214 C1215 1.524 . S
C1214 C1228 1.377 . S
C1215 C1214 1.524 . S
C1215 C1216 1.397 . S
C1215 C1220 1.363 . S
C1216 H1193 0.950 . S
C1216 C1215 1.397 . S
C1216 C1217 1.334 . S
C1217 H1194 0.950 . S
C1217 C1216 1.334 . S
C1217 C1218 1.287 . S
C1218 C1217 1.287 . S
C1218 C1219 1.524 . S
C1218 H1237 0.913 . S
C1219 H1195 0.950 . S
C1219 C1218 1.524 . S
C1219 C1220 1.415 . S
C1220 H1196 0.950 . S
C1220 C1215 1.363 . S
C1220 C1219 1.415 . S
C1221 H1197 0.951 . S
C1221 C1222 1.366 . S
C1221 C1223 1.388 . S
C1222 C1221 1.366 . S
C1222 C1226 1.385 . S
C1223 H1198 0.951 . S
C1223 C1221 1.388 . S
C1223 C1224 1.366 . S
C1224 C1223 1.366 . S
C1224 C1225 1.414 . S
C1224 C1227 1.499 . S
C1225 H1199 0.950 . S
C1225 C1224 1.414 . S
C1225 C1226 1.374 . S
C1226 H1200 0.950 . S
C1226 C1222 1.385 . S
C1226 C1225 1.374 . S
C1227 C1224 1.499 . S
C1227 C1228 1.373 . S
C1227 C1229 1.389 . S
C1228 H1201 0.950 . S
C1228 C1214 1.377 . S
C1228 C1227 1.373 . S
C1229 C1213 1.377 . S
C1229 C1227 1.389 . S
C1229 C1230 1.524 . S
C1230 C1229 1.524 . S
C1230 C1231 1.397 . S
C1230 C1235 1.363 . S
C1231 H1202 0.950 . S
C1231 C1230 1.397 . S
C1231 C1232 1.334 . S
C1232 H1203 0.950 . S
C1232 C1231 1.334 . S
C1232 C1233 1.287 . S
C1233 C1232 1.287 . S
C1233 C1234 1.524 . S
C1233 H1236 0.999 . S
C1234 H1204 0.950 . S
C1234 C1233 1.524 . S
C1234 C1235 1.415 . S
C1235 H1205 0.950 . S
C1235 C1230 1.363 . S
C1235 C1234 1.415 . S
H1236 C1233 0.999 . S
H1237 C1218 0.913 . S
H1238 C1256 0.951 . S
H1239 C1258 0.951 . S
H1240 C1260 0.950 . S
H1241 C1261 0.950 . S
H1242 C1263 0.950 . S
H1243 C1266 0.950 . S
H1244 C1267 0.950 . S
H1245 C1269 0.950 . S
H1246 C1270 0.950 . S
H1247 C1271 0.951 . S
H1248 C1273 0.951 . S
H1249 C1275 0.950 . S
H1250 C1276 0.950 . S
H1251 C1278 0.950 . S
H1252 C1281 0.950 . S
H1253 C1282 0.950 . S
H1254 C1284 0.950 . S
H1255 C1285 0.950 . S
C1256 H1238 0.951 . S
C1256 C1257 1.366 . S
C1256 C1258 1.388 . S
C1257 C1256 1.366 . S
C1257 C1261 1.385 . S
C1258 H1239 0.951 . S
C1258 C1256 1.388 . S
C1258 C1259 1.366 . S
C1259 C1258 1.366 . S
C1259 C1260 1.414 . S
C1259 C1262 1.499 . S
C1260 H1240 0.950 . S
C1260 C1259 1.414 . S
C1260 C1261 1.374 . S
C1261 H1241 0.950 . S
C1261 C1257 1.385 . S
C1261 C1260 1.374 . S
C1262 C1259 1.499 . S
C1262 C1263 1.373 . S
C1262 C1264 1.389 . S
C1263 H1242 0.950 . S
C1263 C1262 1.373 . S
C1263 C1279 1.377 . S
C1264 C1262 1.389 . S
C1264 C1265 1.524 . S
C1264 C1278 1.377 . S
C1265 C1264 1.524 . S
C1265 C1266 1.397 . S
C1265 C1270 1.363 . S
C1266 H1243 0.950 . S
C1266 C1265 1.397 . S
C1266 C1267 1.334 . S
C1267 H1244 0.950 . S
C1267 C1266 1.334 . S
C1267 C1268 1.287 . S
C1268 C1267 1.287 . S
C1268 C1269 1.524 . S
C1268 H1287 0.913 . S
C1269 H1245 0.950 . S
C1269 C1268 1.524 . S
C1269 C1270 1.415 . S
C1270 H1246 0.950 . S
C1270 C1265 1.363 . S
C1270 C1269 1.415 . S
C1271 H1247 0.951 . S
C1271 C1272 1.366 . S
C1271 C1273 1.388 . S
C1272 C1271 1.366 . S
C1272 C1276 1.385 . S
C1273 H1248 0.951 . S
C1273 C1271 1.388 . S
C1273 C1274 1.366 . S
C1274 C1273 1.366 . S
C1274 C1275 1.414 . S
C1274 C1277 1.499 . S
C1275 H1249 0.950 . S
C1275 C1274 1.414 . S
C1275 C1276 1.374 . S
C1276 H1250 0.950 . S
C1276 C1272 1.385 . S
C1276 C1275 1.374 . S
C1277 C1274 1.499 . S
C1277 C1278 1.373 . S
C1277 C1279 1.389 . S
C1278 H1251 0.950 . S
C1278 C1264 1.377 . S
C1278 C1277 1.373 . S
C1279 C1263 1.377 . S
C1279 C1277 1.389 . S
C1279 C1280 1.524 . S
C1280 C1279 1.524 . S
C1280 C1281 1.397 . S
C1280 C1285 1.363 . S
C1281 H1252 0.950 . S
C1281 C1280 1.397 . S
C1281 C1282 1.334 . S
C1282 H1253 0.950 . S
C1282 C1281 1.334 . S
C1282 C1283 1.287 . S
C1283 C1282 1.287 . S
C1283 C1284 1.524 . S
C1283 H1286 0.999 . S
C1284 H1254 0.950 . S
C1284 C1283 1.524 . S
C1284 C1285 1.415 . S
C1285 H1255 0.950 . S
C1285 C1280 1.363 . S
C1285 C1284 1.415 . S
H1286 C1283 0.999 . S
H1287 C1268 0.913 . S
H1288 C1306 0.951 . S
H1289 C1308 0.951 . S
H1290 C1310 0.950 . S
H1291 C1311 0.950 . S
H1292 C1313 0.950 . S
H1293 C1316 0.950 . S
H1294 C1317 0.950 . S
H1295 C1319 0.950 . S
H1296 C1320 0.950 . S
H1297 C1321 0.951 . S
H1298 C1323 0.951 . S
H1299 C1325 0.950 . S
H1300 C1326 0.950 . S
H1301 C1328 0.950 . S
H1302 C1331 0.950 . S
H1303 C1332 0.950 . S
H1304 C1334 0.950 . S
H1305 C1335 0.950 . S
C1306 H1288 0.951 . S
C1306 C1307 1.366 . S
C1306 C1308 1.388 . S
C1307 C1306 1.366 . S
C1307 C1311 1.385 . S
C1308 H1289 0.951 . S
C1308 C1306 1.388 . S
C1308 C1309 1.366 . S
C1309 C1308 1.366 . S
C1309 C1310 1.414 . S
C1309 C1312 1.499 . S
C1310 H1290 0.950 . S
C1310 C1309 1.414 . S
C1310 C1311 1.374 . S
C1311 H1291 0.950 . S
C1311 C1307 1.385 . S
C1311 C1310 1.374 . S
C1312 C1309 1.499 . S
C1312 C1313 1.373 . S
C1312 C1314 1.389 . S
C1313 H1292 0.950 . S
C1313 C1312 1.373 . S
C1313 C1329 1.377 . S
C1314 C1312 1.389 . S
C1314 C1315 1.524 . S
C1314 C1328 1.377 . S
C1315 C1314 1.524 . S
C1315 C1316 1.397 . S
C1315 C1320 1.363 . S
C1316 H1293 0.950 . S
C1316 C1315 1.397 . S
C1316 C1317 1.334 . S
C1317 H1294 0.950 . S
C1317 C1316 1.334 . S
C1317 C1318 1.287 . S
C1318 C1317 1.287 . S
C1318 C1319 1.524 . S
C1318 H1337 0.913 . S
C1319 H1295 0.950 . S
C1319 C1318 1.524 . S
C1319 C1320 1.415 . S
C1320 H1296 0.950 . S
C1320 C1315 1.363 . S
C1320 C1319 1.415 . S
C1321 H1297 0.951 . S
C1321 C1322 1.366 . S
C1321 C1323 1.388 . S
C1322 C1321 1.366 . S
C1322 C1326 1.385 . S
C1323 H1298 0.951 . S
C1323 C1321 1.388 . S
C1323 C1324 1.366 . S
C1324 C1323 1.366 . S
C1324 C1325 1.414 . S
C1324 C1327 1.499 . S
C1325 H1299 0.950 . S
C1325 C1324 1.414 . S
C1325 C1326 1.374 . S
C1326 H1300 0.950 . S
C1326 C1322 1.385 . S
C1326 C1325 1.374 . S
C1327 C1324 1.499 . S
C1327 C1328 1.373 . S
C1327 C1329 1.389 . S
C1328 H1301 0.950 . S
C1328 C1314 1.377 . S
C1328 C1327 1.373 . S
C1329 C1313 1.377 . S
C1329 C1327 1.389 . S
C1329 C1330 1.524 . S
C1330 C1329 1.524 . S
C1330 C1331 1.397 . S
C1330 C1335 1.363 . S
C1331 H1302 0.950 . S
C1331 C1330 1.397 . S
C1331 C1332 1.334 . S
C1332 H1303 0.950 . S
C1332 C1331 1.334 . S
C1332 C1333 1.287 . S
C1333 C1332 1.287 . S
C1333 C1334 1.524 . S
C1333 H1336 0.999 . S
C1334 H1304 0.950 . S
C1334 C1333 1.524 . S
C1334 C1335 1.415 . S
C1335 H1305 0.950 . S
C1335 C1330 1.363 . S
C1335 C1334 1.415 . S
H1336 C1333 0.999 . S
H1337 C1318 0.913 . S
H1338 C1356 0.951 . S
H1339 C1358 0.951 . S
H1340 C1360 0.950 . S
H1341 C1361 0.950 . S
H1342 C1363 0.950 . S
H1343 C1366 0.950 . S
H1344 C1367 0.950 . S
H1345 C1369 0.950 . S
H1346 C1370 0.950 . S
H1347 C1371 0.951 . S
H1348 C1373 0.951 1_554 S
H1349 C1375 0.950 . S
H1350 C1376 0.950 . S
H1351 C1378 0.950 . S
H1352 C1381 0.950 . S
H1353 C1382 0.950 . S
H1354 C1384 0.950 . S
H1355 C1385 0.950 . S
C1356 H1338 0.951 . S
C1356 C1357 1.366 . S
C1356 C1358 1.388 . S
C1357 C1356 1.366 . S
C1357 C1361 1.385 . S
C1358 H1339 0.951 . S
C1358 C1356 1.388 . S
C1358 C1359 1.366 . S
C1359 C1358 1.366 . S
C1359 C1360 1.414 . S
C1359 C1362 1.499 . S
C1360 H1340 0.950 . S
C1360 C1359 1.414 . S
C1360 C1361 1.374 . S
C1361 H1341 0.950 . S
C1361 C1357 1.385 . S
C1361 C1360 1.374 . S
C1362 C1359 1.499 . S
C1362 C1363 1.373 . S
C1362 C1364 1.389 . S
C1363 H1342 0.950 . S
C1363 C1362 1.373 . S
C1363 C1379 1.377 . S
C1364 C1362 1.389 . S
C1364 C1365 1.524 . S
C1364 C1378 1.377 . S
C1365 C1364 1.524 . S
C1365 C1366 1.397 . S
C1365 C1370 1.363 . S
C1366 H1343 0.950 . S
C1366 C1365 1.397 . S
C1366 C1367 1.334 . S
C1367 H1344 0.950 . S
C1367 C1366 1.334 . S
C1367 C1368 1.287 . S
C1368 C1367 1.287 . S
C1368 C1369 1.524 . S
C1368 H1387 0.913 . S
C1369 H1345 0.950 . S
C1369 C1368 1.524 . S
C1369 C1370 1.415 . S
C1370 H1346 0.950 . S
C1370 C1365 1.363 . S
C1370 C1369 1.415 . S
C1371 H1347 0.951 . S
C1371 C1372 1.366 . S
C1371 C1373 1.388 1_554 S
C1372 C1371 1.366 . S
C1372 C1376 1.385 1_554 S
C1373 H1348 0.951 1_556 S
C1373 C1371 1.388 1_556 S
C1373 C1374 1.365 . S
C1374 C1373 1.365 . S
C1374 C1375 1.414 . S
C1374 C1377 1.499 . S
C1375 H1349 0.950 . S
C1375 C1374 1.414 . S
C1375 C1376 1.374 . S
C1376 H1350 0.950 . S
C1376 C1372 1.385 1_556 S
C1376 C1375 1.374 . S
C1377 C1374 1.499 . S
C1377 C1378 1.373 . S
C1377 C1379 1.389 . S
C1378 H1351 0.950 . S
C1378 C1364 1.377 . S
C1378 C1377 1.373 . S
C1379 C1363 1.377 . S
C1379 C1377 1.389 . S
C1379 C1380 1.524 . S
C1380 C1379 1.524 . S
C1380 C1381 1.397 . S
C1380 C1385 1.363 . S
C1381 H1352 0.950 . S
C1381 C1380 1.397 . S
C1381 C1382 1.334 1_556 S
C1382 H1353 0.950 . S
C1382 C1381 1.334 1_554 S
C1382 C1383 1.287 . S
C1383 C1382 1.287 . S
C1383 C1384 1.524 . S
C1383 H1386 0.999 . S
C1384 H1354 0.950 . S
C1384 C1383 1.524 . S
C1384 C1385 1.415 1_554 S
C1385 H1355 0.950 . S
C1385 C1380 1.363 . S
C1385 C1384 1.415 1_556 S
H1386 C1383 0.999 . S
H1387 C1368 0.913 . S
C222 C116 1.666 . S
C207 C8 1.678 . S
C272 C119 1.580 . S
C257 C22 1.563 . S
C322 C117 1.580 . S
C307 C30 1.575 . S
C372 C118 1.353 . S
C357 C47 1.351 . S
C422 C133 1.727 . S
C407 C9 1.735 . S
C472 C147 1.689 . S
C457 C17 1.638 . S
C507 C34 1.508 . S
C522 C173 1.498 . S
C572 C187 1.614 . S
C557 C48 1.611 . S
C622 C132 1.760 . S
C607 C21 1.760 . S
C657 C35 1.682 . S
C672 C146 1.703 . S
C722 C172 1.336 . S
C707 C43 1.292 . S
C772 C186 1.625 . S
C757 C4 1.585 . S
C807 C56 1.401 . S
C822 C131 1.451 . S
C872 C104 1.596 . S
C857 C73 1.601 . S
C907 C87 1.593 . S
C922 C130 1.597 . S
C957 C100 1.763 . S
C972 C105 1.753 . S
C1022 C160 1.624 . S
C1007 C60 1.632 . S
C1072 C174 1.458 . S
C1057 C69 1.399 . S
C1122 C144 1.844 . S
C1107 C86 1.868 . S
C1157 C95 1.427 . S
C1172 C158 1.498 . S
C1222 C161 1.613 . S
C1207 C74 1.616 . S
C1272 C175 1.467 . S
C1257 C82 1.410 . S
C1322 C145 1.924 . S
C1307 C99 1.940 . S
C1357 C61 1.546 . S
C1372 C159 1.560 . S
