# Generated by pormake.
# Topology pto, (3,4)-cn, num edge types: 1
# Building blocks:
#     Node 0, Type 0, BuildingBlock: WUSLED_clean_sbu_0, # of connection points: 3
#     Node 1, Type 0, BuildingBlock: WUSLED_clean_sbu_0, # of connection points: 3
#     Node 2, Type 0, BuildingBlock: WUSLED_clean_sbu_0, # of connection points: 3
#     Node 3, Type 0, BuildingBlock: WUSLED_clean_sbu_0, # of connection points: 3
#     Node 4, Type 0, BuildingBlock: WUSLED_clean_sbu_0, # of connection points: 3
#     Node 5, Type 0, BuildingBlock: WUSLED_clean_sbu_0, # of connection points: 3
#     Node 6, Type 0, BuildingBlock: WUSLED_clean_sbu_0, # of connection points: 3
#     Node 7, Type 0, BuildingBlock: WUSLED_clean_sbu_0, # of connection points: 3
#     Node 8, Type 1, BuildingBlock: NAHDIM_clean_linker_0, # of connection points: 4
#     Node 9, Type 1, BuildingBlock: NAHDIM_clean_linker_0, # of connection points: 4
#     Node 10, Type 1, BuildingBlock: NAHDIM_clean_linker_0, # of connection points: 4
#     Node 11, Type 1, BuildingBlock: NAHDIM_clean_linker_0, # of connection points: 4
#     Node 12, Type 1, BuildingBlock: NAHDIM_clean_linker_0, # of connection points: 4
#     Node 13, Type 1, BuildingBlock: NAHDIM_clean_linker_0, # of connection points: 4
#     Edge 14, Type (0, 1), BuildingBlock: XIVTED_clean_linker_0, # of connection points: 2
#     Edge 15, Type (0, 1), BuildingBlock: XIVTED_clean_linker_0, # of connection points: 2
#     Edge 16, Type (0, 1), BuildingBlock: XIVTED_clean_linker_0, # of connection points: 2
#     Edge 17, Type (0, 1), BuildingBlock: XIVTED_clean_linker_0, # of connection points: 2
#     Edge 18, Type (0, 1), BuildingBlock: XIVTED_clean_linker_0, # of connection points: 2
#     Edge 19, Type (0, 1), BuildingBlock: XIVTED_clean_linker_0, # of connection points: 2
#     Edge 20, Type (0, 1), BuildingBlock: XIVTED_clean_linker_0, # of connection points: 2
#     Edge 21, Type (0, 1), BuildingBlock: XIVTED_clean_linker_0, # of connection points: 2
#     Edge 22, Type (0, 1), BuildingBlock: XIVTED_clean_linker_0, # of connection points: 2
#     Edge 23, Type (0, 1), BuildingBlock: XIVTED_clean_linker_0, # of connection points: 2
#     Edge 24, Type (0, 1), BuildingBlock: XIVTED_clean_linker_0, # of connection points: 2
#     Edge 25, Type (0, 1), BuildingBlock: XIVTED_clean_linker_0, # of connection points: 2
#     Edge 26, Type (0, 1), BuildingBlock: XIVTED_clean_linker_0, # of connection points: 2
#     Edge 27, Type (0, 1), BuildingBlock: XIVTED_clean_linker_0, # of connection points: 2
#     Edge 28, Type (0, 1), BuildingBlock: XIVTED_clean_linker_0, # of connection points: 2
#     Edge 29, Type (0, 1), BuildingBlock: XIVTED_clean_linker_0, # of connection points: 2
#     Edge 30, Type (0, 1), BuildingBlock: XIVTED_clean_linker_0, # of connection points: 2
#     Edge 31, Type (0, 1), BuildingBlock: XIVTED_clean_linker_0, # of connection points: 2
#     Edge 32, Type (0, 1), BuildingBlock: XIVTED_clean_linker_0, # of connection points: 2
#     Edge 33, Type (0, 1), BuildingBlock: XIVTED_clean_linker_0, # of connection points: 2
#     Edge 34, Type (0, 1), BuildingBlock: XIVTED_clean_linker_0, # of connection points: 2
#     Edge 35, Type (0, 1), BuildingBlock: XIVTED_clean_linker_0, # of connection points: 2
#     Edge 36, Type (0, 1), BuildingBlock: XIVTED_clean_linker_0, # of connection points: 2
#     Edge 37, Type (0, 1), BuildingBlock: XIVTED_clean_linker_0, # of connection points: 2
# Relax obj value: 0.001
# Max RMSD: 0.071
# Mean RMSD: 0.020
data_MOF--net-pto--node1-WUSLED_clean_sbu_0--node2-NAHDIM_clean_linker_0--edge1-XIVTED_clean_linker_0
_symmetry_space_group_name_H-M    P1
_symmetry_Int_Tables_number       1
_symmetry_cell_setting            triclinic
loop_
_symmetry_equiv_pos_as_xyz
'x, y, z'
_cell_length_a     74.981213
_cell_length_b     71.355595
_cell_length_c     67.46559
_cell_angle_alpha  89.082039
_cell_angle_beta   90.865506
_cell_angle_gamma 90.52263
loop_
_atom_site_label
_atom_site_type_symbol
_atom_site_fract_x
_atom_site_fract_y
_atom_site_fract_z
_atom_type_partial_charge
C0 C 0.25021 0.25576 0.3034 0.0
C1 C 0.25511 0.23801 0.29666 0.0
C2 C 0.25482 0.2255 0.33046 0.0
C3 C 0.25729 0.223 0.31006 0.0
C4 C 0.25008 0.24331 0.33717 0.0
C5 C 0.24772 0.25825 0.32375 0.0
U6 U 0.26597 0.28721 0.26068 0.0
O7 O 0.25126 0.29909 0.23501 0.0
O8 O 0.26436 0.31776 0.25643 0.0
C9 C 0.25384 0.31644 0.24074 0.0
C10 C 0.24764 0.2718 0.28956 0.0
C11 C 0.23795 0.32837 0.24041 0.0
C12 C 0.21187 0.34132 0.25606 0.0
C13 C 0.2268 0.32963 0.25687 0.0
C14 C 0.21906 0.35036 0.22233 0.0
C15 C 0.20781 0.35178 0.23873 0.0
C16 C 0.23395 0.33878 0.22318 0.0
C17 C 0.31114 0.2774 0.23704 0.0
C18 C 0.32132 0.28204 0.20318 0.0
C19 C 0.34254 0.28324 0.23056 0.0
C20 C 0.32877 0.27972 0.24388 0.0
C21 C 0.33899 0.28434 0.21005 0.0
C22 C 0.3075 0.27869 0.21654 0.0
C23 C 0.29698 0.27326 0.25152 0.0
O24 O 0.25854 0.28611 0.29217 0.0
O25 O 0.24499 0.26775 0.27078 0.0
O26 O 0.28171 0.26686 0.24439 0.0
O27 O 0.29505 0.2857 0.26546 0.0
H28 H 0.25729 0.23569 0.28106 0.0
H29 H 0.26115 0.2095 0.30449 0.0
H30 H 0.24794 0.24561 0.35278 0.0
H31 H 0.24393 0.2718 0.32928 0.0
H32 H 0.2034 0.342 0.26889 0.0
H33 H 0.22965 0.3216 0.2703 0.0
H34 H 0.21651 0.35845 0.20887 0.0
H35 H 0.24244 0.33802 0.21036 0.0
H36 H 0.31816 0.283 0.18748 0.0
H37 H 0.35604 0.28473 0.23629 0.0
H38 H 0.33192 0.2787 0.25959 0.0
H39 H 0.29402 0.27706 0.21081 0.0
C40 C 0.25173 0.77341 0.70491 0.0
C41 C 0.2687 0.78172 0.70334 0.0
C42 C 0.2575 0.80332 0.67779 0.0
C43 C 0.27157 0.79651 0.68987 0.0
C44 C 0.24046 0.79507 0.6797 0.0
C45 C 0.23763 0.78024 0.69311 0.0
U46 U 0.2654 0.74339 0.74974 0.0
O47 O 0.2491 0.73138 0.77371 0.0
O48 O 0.264 0.71284 0.75445 0.0
C49 C 0.25211 0.71404 0.76848 0.0
C50 C 0.24853 0.75764 0.71873 0.0
C51 C 0.23617 0.70216 0.76585 0.0
C52 C 0.20827 0.69497 0.74872 0.0
C53 C 0.22319 0.70662 0.75139 0.0
C54 C 0.21914 0.67433 0.775 0.0
C55 C 0.2061 0.67861 0.76044 0.0
C56 C 0.23404 0.68601 0.77767 0.0
C57 C 0.30848 0.75533 0.77801 0.0
C58 C 0.31965 0.73647 0.80574 0.0
C59 C 0.3342 0.7659 0.79716 0.0
C60 C 0.32199 0.76858 0.78155 0.0
C61 C 0.33313 0.74987 0.80951 0.0
C62 C 0.30738 0.73921 0.79013 0.0
C63 C 0.29551 0.75873 0.76186 0.0
O64 O 0.25975 0.74366 0.71768 0.0
O65 O 0.24505 0.76231 0.73702 0.0
O66 O 0.27978 0.76447 0.76742 0.0
O67 O 0.2946 0.74584 0.74817 0.0
H68 H 0.27974 0.77665 0.71242 0.0
H69 H 0.28489 0.80237 0.68866 0.0
H70 H 0.22925 0.80014 0.67092 0.0
H71 H 0.22442 0.77408 0.69425 0.0
H72 H 0.1984 0.69884 0.73755 0.0
H73 H 0.22465 0.71908 0.74213 0.0
H74 H 0.21806 0.66173 0.78408 0.0
H75 H 0.24399 0.68233 0.78884 0.0
H76 H 0.31835 0.72408 0.8151 0.0
H77 H 0.34456 0.77635 0.79948 0.0
H78 H 0.32303 0.78109 0.77229 0.0
H79 H 0.29696 0.72886 0.78763 0.0
C80 C 0.71873 0.76208 0.22616 0.0
C81 C 0.72256 0.75299 0.20845 0.0
C82 C 0.69104 0.7533 0.19889 0.0
C83 C 0.70885 0.74871 0.1949 0.0
C84 C 0.68735 0.76248 0.21666 0.0
C85 C 0.70107 0.76684 0.23012 0.0
U86 U 0.76362 0.75154 0.25131 0.0
O87 O 0.78464 0.77048 0.26247 0.0
O88 O 0.77092 0.75127 0.28303 0.0
C89 C 0.78207 0.76548 0.28107 0.0
C90 C 0.73279 0.76617 0.24096 0.0
C91 C 0.78019 0.78069 0.29554 0.0
C92 C 0.77863 0.81376 0.30374 0.0
C93 C 0.77978 0.79968 0.28961 0.0
C94 C 0.77808 0.79015 0.32992 0.0
C95 C 0.77776 0.80914 0.32405 0.0
C96 C 0.77937 0.77611 0.31583 0.0
C97 C 0.79146 0.71049 0.23475 0.0
C98 C 0.81939 0.70264 0.25147 0.0
C99 C 0.80768 0.68275 0.22547 0.0
C100 C 0.79306 0.69464 0.22296 0.0
C101 C 0.82097 0.68652 0.23987 0.0
C102 C 0.80475 0.7145 0.24894 0.0
C103 C 0.77561 0.72235 0.2326 0.0
O104 O 0.73461 0.75353 0.2552 0.0
O105 O 0.74812 0.77227 0.23399 0.0
O106 O 0.77863 0.73974 0.22672 0.0
O107 O 0.76436 0.72104 0.2473 0.0
H108 H 0.73612 0.7491 0.20515 0.0
H109 H 0.71224 0.74185 0.18128 0.0
H110 H 0.6738 0.76593 0.22045 0.0
H111 H 0.69785 0.77373 0.2438 0.0
H112 H 0.77826 0.82826 0.29876 0.0
H113 H 0.7804 0.80371 0.27409 0.0
H114 H 0.77767 0.78616 0.34546 0.0
H115 H 0.77986 0.76161 0.32082 0.0
H116 H 0.82947 0.70612 0.2625 0.0
H117 H 0.80832 0.67035 0.21647 0.0
H118 H 0.78286 0.6913 0.21199 0.0
H119 H 0.8037 0.72672 0.25819 0.0
C120 C 0.74207 0.23781 0.71939 0.0
C121 C 0.74544 0.24089 0.69913 0.0
C122 C 0.74906 0.20733 0.69451 0.0
C123 C 0.74882 0.22576 0.68679 0.0
C124 C 0.74569 0.20435 0.71476 0.0
C125 C 0.74216 0.21941 0.72702 0.0
U126 U 0.75339 0.28486 0.74384 0.0
O127 O 0.73583 0.30784 0.75231 0.0
O128 O 0.75131 0.29262 0.77513 0.0
C129 C 0.73893 0.30514 0.77137 0.0
C130 C 0.73821 0.25333 0.73288 0.0
C131 C 0.72311 0.30362 0.78391 0.0
C132 C 0.69512 0.28851 0.79277 0.0
C133 C 0.70974 0.29021 0.78019 0.0
C134 C 0.7071 0.31366 0.81283 0.0
C135 C 0.69368 0.30014 0.80934 0.0
C136 C 0.72166 0.31538 0.80021 0.0
C137 C 0.79574 0.3119 0.73201 0.0
C138 C 0.80464 0.33863 0.75179 0.0
C139 C 0.82258 0.32959 0.724 0.0
C140 C 0.81065 0.31486 0.72005 0.0
C141 C 0.81981 0.34153 0.74005 0.0
C142 C 0.7927 0.32397 0.74779 0.0
C143 C 0.78372 0.2959 0.7284 0.0
O144 O 0.74886 0.25462 0.74846 0.0
O145 O 0.73431 0.26969 0.72473 0.0
O146 O 0.7681 0.30007 0.72047 0.0
O147 O 0.78265 0.28376 0.7432 0.0
H148 H 0.74551 0.25494 0.69282 0.0
H149 H 0.75149 0.22848 0.67127 0.0
H150 H 0.74553 0.1903 0.72109 0.0
H151 H 0.73947 0.21667 0.74254 0.0
H152 H 0.68495 0.2781 0.78949 0.0
H153 H 0.71069 0.28098 0.76765 0.0
H154 H 0.70662 0.32263 0.82559 0.0
H155 H 0.73194 0.32572 0.80336 0.0
H156 H 0.80196 0.34774 0.76407 0.0
H157 H 0.8342 0.33133 0.71479 0.0
H158 H 0.8132 0.30563 0.70783 0.0
H159 H 0.7812 0.32191 0.75713 0.0
C160 C 0.79222 0.70179 0.77588 0.0
C161 C 0.80061 0.70091 0.75747 0.0
C162 C 0.82051 0.67667 0.77043 0.0
C163 C 0.81458 0.68841 0.75474 0.0
C164 C 0.81218 0.67787 0.78893 0.0
C165 C 0.79815 0.6903 0.7916 0.0
U166 U 0.76648 0.74572 0.76146 0.0
O167 O 0.73768 0.75075 0.75908 0.0
O168 O 0.75402 0.76677 0.78026 0.0
C169 C 0.73784 0.76235 0.77404 0.0
C170 C 0.77739 0.7147 0.77893 0.0
C171 C 0.72477 0.75834 0.78969 0.0
C172 C 0.70586 0.73654 0.80801 0.0
C173 C 0.71843 0.74004 0.7933 0.0
C174 C 0.70609 0.76949 0.81608 0.0
C175 C 0.69952 0.75121 0.81962 0.0
C176 C 0.71855 0.77301 0.80122 0.0
C177 C 0.78245 0.77581 0.71751 0.0
C178 C 0.77814 0.80909 0.71084 0.0
C179 C 0.78258 0.78793 0.68366 0.0
C180 C 0.78402 0.77292 0.69711 0.0
C181 C 0.77968 0.80618 0.69038 0.0
C182 C 0.7794 0.79402 0.7243 0.0
C183 C 0.78412 0.75964 0.73128 0.0
O184 O 0.78203 0.73146 0.78508 0.0
O185 O 0.7651 0.71507 0.76481 0.0
O186 O 0.77172 0.74662 0.72944 0.0
O187 O 0.78825 0.76335 0.74984 0.0
H188 H 0.79627 0.70978 0.74517 0.0
H189 H 0.82052 0.68772 0.74024 0.0
H190 H 0.81659 0.66932 0.80144 0.0
H191 H 0.79192 0.69093 0.80596 0.0
H192 H 0.70095 0.72234 0.81007 0.0
H193 H 0.7231 0.72843 0.78468 0.0
H194 H 0.70179 0.78109 0.82493 0.0
H195 H 0.72337 0.7872 0.79875 0.0
H196 H 0.77573 0.82297 0.71641 0.0
H197 H 0.78403 0.78529 0.668 0.0
H198 H 0.78641 0.75901 0.69157 0.0
H199 H 0.77801 0.79662 0.73997 0.0
C200 C 0.72523 0.25591 0.21637 0.0
C201 C 0.72593 0.27345 0.20671 0.0
C202 C 0.69927 0.26556 0.18745 0.0
C203 C 0.71303 0.27826 0.19241 0.0
C204 C 0.69868 0.24797 0.19717 0.0
C205 C 0.71156 0.24321 0.21154 0.0
U206 U 0.76963 0.26577 0.24149 0.0
O207 O 0.77782 0.26438 0.27291 0.0
O208 O 0.79115 0.24688 0.25123 0.0
C209 C 0.78932 0.25094 0.27002 0.0
C210 C 0.73886 0.25078 0.23127 0.0
C211 C 0.78808 0.23482 0.2837 0.0
C212 C 0.77337 0.20629 0.29525 0.0
C213 C 0.77427 0.22151 0.28194 0.0
C214 C 0.80001 0.21765 0.31213 0.0
C215 C 0.78626 0.20417 0.31049 0.0
C216 C 0.8009 0.2328 0.29884 0.0
C217 C 0.79735 0.30773 0.22517 0.0
C218 C 0.8224 0.31908 0.24495 0.0
C219 C 0.81937 0.32862 0.21044 0.0
C220 C 0.80369 0.31795 0.2088 0.0
C221 C 0.82895 0.32929 0.22853 0.0
C222 C 0.80682 0.30832 0.24325 0.0
C223 C 0.78119 0.29606 0.2231 0.0
O224 O 0.75412 0.24535 0.22404 0.0
O225 O 0.74079 0.26257 0.24594 0.0
O226 O 0.77018 0.29644 0.23807 0.0
O227 O 0.78385 0.27908 0.21657 0.0
H228 H 0.7365 0.28338 0.21017 0.0
H229 H 0.71401 0.29179 0.18499 0.0
H230 H 0.68817 0.23796 0.19379 0.0
H231 H 0.71087 0.2296 0.21887 0.0
H232 H 0.7627 0.19609 0.29349 0.0
H233 H 0.76424 0.22291 0.27029 0.0
H234 H 0.80996 0.21666 0.3239 0.0
H235 H 0.81158 0.24302 0.30044 0.0
H236 H 0.82925 0.31947 0.25918 0.0
H237 H 0.82415 0.33603 0.19741 0.0
H238 H 0.79663 0.3175 0.19469 0.0
H239 H 0.80218 0.30042 0.25605 0.0
C240 C 0.24199 0.23441 0.71914 0.0
C241 C 0.25927 0.22752 0.71668 0.0
C242 C 0.24753 0.20259 0.69577 0.0
C243 C 0.26202 0.21181 0.70502 0.0
C244 C 0.23024 0.20963 0.69831 0.0
C245 C 0.22752 0.22541 0.70987 0.0
U246 U 0.25683 0.26701 0.76035 0.0
O247 O 0.25476 0.2976 0.76277 0.0
O248 O 0.24154 0.27918 0.78448 0.0
C249 C 0.24371 0.2964 0.77768 0.0
C250 C 0.23885 0.25064 0.73171 0.0
C251 C 0.22726 0.30721 0.77515 0.0
C252 C 0.19908 0.31288 0.75805 0.0
C253 C 0.21458 0.30234 0.7606 0.0
C254 C 0.20871 0.33316 0.78472 0.0
C255 C 0.196 0.32847 0.77002 0.0
C256 C 0.22424 0.32261 0.78723 0.0
C257 C 0.30111 0.25965 0.78698 0.0
C258 C 0.31132 0.28147 0.81204 0.0
C259 C 0.32866 0.25384 0.80529 0.0
C260 C 0.31609 0.24854 0.79087 0.0
C261 C 0.32643 0.2704 0.81601 0.0
C262 C 0.29874 0.27612 0.79767 0.0
C263 C 0.28796 0.25398 0.77186 0.0
O264 O 0.23643 0.24666 0.75056 0.0
O265 O 0.24951 0.26513 0.72877 0.0
O266 O 0.2859 0.26586 0.75693 0.0
O267 O 0.27277 0.24754 0.7788 0.0
H268 H 0.27061 0.23427 0.7238 0.0
H269 H 0.27553 0.20696 0.7032 0.0
H270 H 0.21874 0.20273 0.6917 0.0
H271 H 0.21408 0.23047 0.71174 0.0
H272 H 0.18944 0.30873 0.7468 0.0
H273 H 0.21671 0.29041 0.7512 0.0
H274 H 0.20683 0.34519 0.79402 0.0
H275 H 0.23394 0.32656 0.79851 0.0
H276 H 0.30909 0.29415 0.82022 0.0
H277 H 0.34024 0.24513 0.80784 0.0
H278 H 0.31809 0.23578 0.78272 0.0
H279 H 0.28716 0.2848 0.7949 0.0
C280 C 0.2167 0.73373 0.26357 0.0
C281 C 0.21302 0.726 0.24494 0.0
C282 C 0.19116 0.70464 0.25963 0.0
C283 C 0.2003 0.71167 0.24297 0.0
C284 C 0.19499 0.71244 0.27827 0.0
C285 C 0.20761 0.72687 0.28019 0.0
U286 U 0.25982 0.75823 0.24814 0.0
O287 O 0.26668 0.78831 0.24654 0.0
O288 O 0.28194 0.76938 0.26623 0.0
C289 C 0.27881 0.78682 0.26074 0.0
C290 C 0.23022 0.74863 0.26604 0.0
C291 C 0.27764 0.80053 0.27679 0.0
C292 C 0.28091 0.83268 0.28777 0.0
C293 C 0.28133 0.81948 0.27269 0.0
C294 C 0.27293 0.80815 0.31132 0.0
C295 C 0.27685 0.82716 0.30732 0.0
C296 C 0.27326 0.79498 0.29621 0.0
C297 C 0.28662 0.73963 0.20546 0.0
C298 C 0.31352 0.75558 0.19436 0.0
C299 C 0.30661 0.72424 0.18304 0.0
C300 C 0.29098 0.72414 0.19408 0.0
C301 C 0.31818 0.7399 0.18319 0.0
C302 C 0.29791 0.75541 0.20547 0.0
C303 C 0.27083 0.73878 0.21807 0.0
O304 O 0.24602 0.74291 0.27208 0.0
O305 O 0.23092 0.76134 0.25174 0.0
O306 O 0.25974 0.75288 0.21611 0.0
O307 O 0.2741 0.73402 0.23665 0.0
H308 H 0.21998 0.73104 0.23191 0.0
H309 H 0.19756 0.70621 0.22834 0.0
H310 H 0.18849 0.70719 0.29149 0.0
H311 H 0.21038 0.73256 0.29472 0.0
H312 H 0.28369 0.84723 0.28408 0.0
H313 H 0.28464 0.82408 0.25779 0.0
H314 H 0.26996 0.80335 0.32623 0.0
H315 H 0.27029 0.78044 0.29978 0.0
H316 H 0.32195 0.76797 0.19462 0.0
H317 H 0.30988 0.71182 0.17489 0.0
H318 H 0.28246 0.71178 0.19405 0.0
H319 H 0.29478 0.76749 0.21426 0.0
C320 C 0.95751 0.39131 0.22236 0.0
C321 C 0.94497 0.40139 0.23631 0.0
C322 C 0.95639 0.43326 0.23446 0.0
C323 C 0.96329 0.4359 0.25365 0.0
C324 C 0.9771 0.44889 0.25711 0.0
C325 C 0.98421 0.45932 0.241 0.0
C326 C 0.97688 0.45706 0.22171 0.0
C327 C 0.96281 0.44424 0.21876 0.0
C328 C 0.98431 0.45125 0.27794 0.0
C329 C 0.98423 0.46777 0.20413 0.0
C330 C 0.1198 0.41276 0.23434 0.0
C331 C 0.10436 0.42508 0.23024 0.0
C332 C 0.08063 0.44167 0.24679 0.0
C333 C 0.07449 0.45109 0.22954 0.0
C334 C 0.05901 0.462 0.22975 0.0
C335 C 0.04958 0.46378 0.24761 0.0
C336 C 0.05605 0.45488 0.26515 0.0
C337 C 0.0715 0.44392 0.26449 0.0
C338 C 0.05248 0.47129 0.21076 0.0
C339 C 0.04642 0.45664 0.28449 0.0
C340 C 0.07474 0.58768 0.25574 0.0
C341 C 0.06917 0.58006 0.23758 0.0
C342 C 0.05363 0.569 0.23627 0.0
C343 C 0.04364 0.56521 0.25355 0.0
C344 C 0.04902 0.5732 0.27177 0.0
C345 C 0.06439 0.58458 0.27254 0.0
C346 C 0.04788 0.56139 0.2164 0.0
C347 C 0.03867 0.56955 0.29047 0.0
C348 C 0.90572 0.57101 0.2643 0.0
C349 C 0.91623 0.58952 0.26323 0.0
C350 C 0.94493 0.57954 0.24968 0.0
C351 C 0.95495 0.57865 0.23243 0.0
C352 C 0.97129 0.56917 0.23224 0.0
C353 C 0.97787 0.56057 0.24989 0.0
C354 C 0.96797 0.56166 0.26751 0.0
C355 C 0.95154 0.57096 0.2672 0.0
C356 C 0.98147 0.56825 0.21316 0.0
C357 C 0.97475 0.55297 0.2867 0.0
C358 C 1.0 0.47168 0.24415 0.0
C359 C 0.01675 0.46326 0.24502 0.0
C360 C 0.03233 0.47388 0.2476 0.0
C361 C 0.03126 0.49356 0.24935 0.0
C362 C 0.04664 0.50469 0.25203 0.0
C363 C 0.04547 0.5241 0.25324 0.0
C364 C 0.02888 0.53312 0.25183 0.0
C365 C 0.02759 0.55287 0.2525 0.0
C366 C 0.01084 0.56132 0.2517 0.0
C367 C 0.9952 0.55061 0.25002 0.0
C368 C 0.99624 0.53087 0.24873 0.0
C369 C 0.98083 0.51967 0.24649 0.0
C370 C 0.982 0.50028 0.24519 0.0
C371 C 0.99863 0.49134 0.2459 0.0
C372 C 0.01434 0.50232 0.24836 0.0
C373 C 0.01315 0.52211 0.24968 0.0
C374 C 0.11531 0.57844 0.25848 0.0
C375 C 0.1059 0.59507 0.24837 0.0
O376 O 0.94367 0.42011 0.23066 0.0
O377 O 0.92906 0.58872 0.24866 0.0
O378 O 0.08981 0.59829 0.25757 0.0
O379 O 0.09502 0.43016 0.24687 0.0
H380 H 0.95052 0.40013 0.25165 0.0
H381 H 0.97107 0.39766 0.22326 0.0
H382 H 0.95255 0.39247 0.20678 0.0
H383 H 0.95855 0.37625 0.22664 0.0
H384 H 0.95785 0.42786 0.26593 0.0
H385 H 0.95722 0.4422 0.20404 0.0
H386 H 0.998 0.44549 0.27898 0.0
H387 H 0.97592 0.44392 0.28912 0.0
H388 H 0.98517 0.46636 0.28159 0.0
H389 H 0.97778 0.46353 0.18994 0.0
H390 H 0.99882 0.46549 0.20316 0.0
H391 H 0.98216 0.483 0.20607 0.0
H392 H 0.09572 0.42082 0.21745 0.0
H393 H 0.11674 0.3993 0.22635 0.0
H394 H 0.11781 0.40647 0.24963 0.0
H395 H 0.14326 0.43084 0.22639 0.0
H396 H 0.08158 0.44984 0.21578 0.0
H397 H 0.07637 0.43678 0.27776 0.0
H398 H 0.05202 0.48669 0.21266 0.0
H399 H 0.03871 0.46641 0.20723 0.0
H400 H 0.06114 0.46826 0.198 0.0
H401 H 0.05405 0.4504 0.29717 0.0
H402 H 0.03327 0.44945 0.28338 0.0
H403 H 0.04393 0.47164 0.28754 0.0
H404 H 0.10363 0.5918 0.23249 0.0
H405 H 0.07662 0.58299 0.22429 0.0
H406 H 0.06867 0.59073 0.28642 0.0
H407 H 0.04976 0.54599 0.21641 0.0
H408 H 0.05566 0.56765 0.20402 0.0
H409 H 0.03349 0.56412 0.2136 0.0
H410 H 0.0455 0.57539 0.30376 0.0
H411 H 0.03667 0.55423 0.29281 0.0
H412 H 0.02529 0.57598 0.28895 0.0
H413 H 0.92275 0.59218 0.27783 0.0
H414 H 0.89533 0.57168 0.27583 0.0
H415 H 0.91472 0.55922 0.26824 0.0
H416 H 0.8992 0.56801 0.24977 0.0
H417 H 0.94982 0.58529 0.21898 0.0
H418 H 0.94407 0.57142 0.28075 0.0
H419 H 0.98464 0.55346 0.20988 0.0
H420 H 0.9943 0.57599 0.21481 0.0
H421 H 0.9739 0.57439 0.20039 0.0
H422 H 0.96633 0.55652 0.2995 0.0
H423 H 0.98864 0.55775 0.28981 0.0
H424 H 0.97496 0.53749 0.28537 0.0
H425 H 0.01769 0.44818 0.24348 0.0
H426 H 0.05976 0.49852 0.25311 0.0
H427 H 0.05777 0.53195 0.25525 0.0
H428 H 0.00996 0.57647 0.25239 0.0
H429 H 0.96767 0.52579 0.24566 0.0
H430 H 0.96969 0.49237 0.24351 0.0
H431 H 0.11771 0.58121 0.27447 0.0
H432 H 0.12827 0.57578 0.25132 0.0
H433 H 0.10692 0.56559 0.25714 0.0
C434 C 0.06841 0.3863 0.74419 0.0
C435 C 0.08325 0.40122 0.74465 0.0
C436 C 0.06676 0.42766 0.75808 0.0
C437 C 0.05842 0.43338 0.74018 0.0
C438 C 0.04457 0.44645 0.74002 0.0
C439 C 0.03867 0.45375 0.75811 0.0
C440 C 0.04727 0.44842 0.77611 0.0
C441 C 0.06138 0.4356 0.77581 0.0
C442 C 0.03599 0.45216 0.72048 0.0
C443 C 0.04128 0.45594 0.79566 0.0
C444 C 0.901 0.40686 0.76613 0.0
C445 C 0.91609 0.41948 0.77122 0.0
C446 C 0.9416 0.4354 0.75598 0.0
C447 C 0.94749 0.44432 0.77339 0.0
C448 C 0.96324 0.45512 0.77362 0.0
C449 C 0.9731 0.45743 0.75601 0.0
C450 C 0.96686 0.44902 0.73832 0.0
C451 C 0.95125 0.43803 0.7386 0.0
C452 C 0.96954 0.46379 0.79278 0.0
C453 C 0.97688 0.45132 0.7192 0.0
C454 C 0.94706 0.57896 0.74513 0.0
C455 C 0.95265 0.57244 0.76389 0.0
C456 C 0.96869 0.56262 0.7663 0.0
C457 C 0.97914 0.55903 0.74949 0.0
C458 C 0.97382 0.56624 0.73066 0.0
C459 C 0.95791 0.57638 0.72879 0.0
C460 C 0.97429 0.5558 0.78672 0.0
C461 C 0.98468 0.56281 0.71244 0.0
C462 C 0.1166 0.56606 0.73661 0.0
C463 C 0.1068 0.58475 0.73809 0.0
C464 C 0.07815 0.57459 0.7524 0.0
C465 C 0.06856 0.57308 0.76997 0.0
C466 C 0.0521 0.56355 0.77064 0.0
C467 C 0.04495 0.55552 0.75317 0.0
C468 C 0.05437 0.55731 0.73522 0.0
C469 C 0.07092 0.56668 0.73503 0.0
C470 C 0.04241 0.56193 0.79003 0.0
C471 C 0.04697 0.54924 0.71621 0.0
C472 C 0.02279 0.46603 0.75814 0.0
C473 C 0.00601 0.45735 0.75791 0.0
C474 C 0.99038 0.46782 0.75633 0.0
C475 C 0.99146 0.48759 0.75495 0.0
C476 C 0.97606 0.49855 0.7527 0.0
C477 C 0.97725 0.518 0.75144 0.0
C478 C 0.99388 0.52727 0.75248 0.0
C479 C 0.9952 0.54706 0.75145 0.0
C480 C 0.01196 0.55579 0.75203 0.0
C481 C 0.02759 0.54529 0.7536 0.0
C482 C 0.02654 0.5255 0.75497 0.0
C483 C 0.04197 0.51449 0.75675 0.0
C484 C 0.04079 0.49501 0.75773 0.0
C485 C 0.02414 0.4858 0.75725 0.0
C486 C 0.0084 0.49662 0.75563 0.0
C487 C 0.00961 0.51648 0.75442 0.0
C488 C 0.90757 0.56806 0.73095 0.0
C489 C 0.91495 0.58006 0.74786 0.0
O490 O 0.07975 0.41443 0.75894 0.0
O491 O 0.09423 0.58367 0.75297 0.0
O492 O 0.93125 0.58777 0.74247 0.0
O493 O 0.92694 0.42403 0.75537 0.0
H494 H 0.08408 0.40818 0.72984 0.0
H495 H 0.05544 0.39278 0.74009 0.0
H496 H 0.06714 0.37935 0.75897 0.0
H497 H 0.07133 0.37552 0.733 0.0
H498 H 0.06249 0.42771 0.72623 0.0
H499 H 0.06793 0.43125 0.78953 0.0
H500 H 0.0222 0.44645 0.71974 0.0
H501 H 0.04342 0.44695 0.70759 0.0
H502 H 0.03515 0.46767 0.71928 0.0
H503 H 0.04929 0.45035 0.80838 0.0
H504 H 0.02703 0.45223 0.79796 0.0
H505 H 0.04236 0.47147 0.79545 0.0
H506 H 0.92342 0.41568 0.7852 0.0
H507 H 0.9034 0.39368 0.77523 0.0
H508 H 0.90418 0.40015 0.75155 0.0
H509 H 0.87702 0.42487 0.76972 0.0
H510 H 0.94001 0.44275 0.78691 0.0
H511 H 0.94657 0.43123 0.72521 0.0
H512 H 0.96959 0.47929 0.79116 0.0
H513 H 0.98343 0.45942 0.79627 0.0
H514 H 0.96094 0.45978 0.80546 0.0
H515 H 0.96887 0.44653 0.70621 0.0
H516 H 0.98925 0.44292 0.72016 0.0
H517 H 0.98081 0.4662 0.71673 0.0
H518 H 0.91658 0.57082 0.76121 0.0
H519 H 0.94448 0.57507 0.77664 0.0
H520 H 0.95354 0.58175 0.71443 0.0
H521 H 0.97279 0.54032 0.78764 0.0
H522 H 0.96614 0.56201 0.79852 0.0
H523 H 0.98856 0.55925 0.7896 0.0
H524 H 0.97812 0.56834 0.6987 0.0
H525 H 0.9869 0.54755 0.7108 0.0
H526 H 0.99796 0.56966 0.71409 0.0
H527 H 0.10009 0.58809 0.72367 0.0
H528 H 0.1268 0.56697 0.72484 0.0
H529 H 0.10712 0.55461 0.73276 0.0
H530 H 0.12327 0.56239 0.75095 0.0
H531 H 0.07416 0.57924 0.78328 0.0
H532 H 0.07801 0.5677 0.72123 0.0
H533 H 0.03943 0.54697 0.79351 0.0
H534 H 0.02948 0.56934 0.78872 0.0
H535 H 0.05023 0.56797 0.80253 0.0
H536 H 0.05512 0.55324 0.70316 0.0
H537 H 0.03309 0.5541 0.71356 0.0
H538 H 0.04655 0.53372 0.7175 0.0
H539 H 0.0051 0.44216 0.75865 0.0
H540 H 0.96291 0.4922 0.75185 0.0
H541 H 0.96493 0.52567 0.74965 0.0
H542 H 0.01287 0.57096 0.75102 0.0
H543 H 0.05514 0.52081 0.75733 0.0
H544 H 0.05311 0.48725 0.75896 0.0
H545 H 0.90588 0.57665 0.71718 0.0
H546 H 0.89449 0.56178 0.73503 0.0
H547 H 0.91693 0.55648 0.72798 0.0
C548 C 0.25017 0.0683 0.63283 0.0
C549 C 0.26109 0.08266 0.62089 0.0
C550 C 0.25871 0.07033 0.58764 0.0
C551 C 0.27632 0.0651 0.58397 0.0
C552 C 0.27997 0.05104 0.57034 0.0
C553 C 0.26568 0.04197 0.56031 0.0
C554 C 0.24793 0.04764 0.56357 0.0
C555 C 0.24471 0.06201 0.577 0.0
C556 C 0.29907 0.0457 0.56686 0.0
C557 C 0.23236 0.03824 0.55322 0.0
C558 C 0.29703 0.89857 0.56404 0.0
C559 C 0.28123 0.90531 0.57604 0.0
C560 C 0.28253 0.9394 0.57472 0.0
C561 C 0.26602 0.94388 0.56589 0.0
C562 C 0.26346 0.96128 0.55627 0.0
C563 C 0.27776 0.97434 0.55534 0.0
C564 C 0.29429 0.96998 0.56465 0.0
C565 C 0.29636 0.95262 0.57447 0.0
C566 C 0.24545 0.96571 0.54715 0.0
C567 C 0.30979 0.9836 0.56414 0.0
C568 C 0.28571 0.95138 0.4255 0.0
C569 C 0.26883 0.9555 0.43291 0.0
C570 C 0.26623 0.9716 0.44415 0.0
C571 C 0.28085 0.98372 0.44818 0.0
C572 C 0.29774 0.97991 0.44015 0.0
C573 C 0.29988 0.96387 0.42867 0.0
C574 C 0.24786 0.97558 0.45184 0.0
C575 C 0.31358 0.9926 0.44401 0.0
C576 C 0.25707 0.12656 0.44925 0.0
C577 C 0.26869 0.1211 0.4318 0.0
C578 C 0.26606 0.08697 0.43377 0.0
C579 C 0.25218 0.07378 0.434 0.0
C580 C 0.25419 0.05638 0.44375 0.0
C581 C 0.27072 0.05189 0.45298 0.0
C582 C 0.28509 0.06487 0.45203 0.0
C583 C 0.28256 0.08235 0.44258 0.0
C584 C 0.23859 0.04288 0.44438 0.0
C585 C 0.30313 0.06027 0.46097 0.0
C586 C 0.26928 0.02598 0.54717 0.0
C587 C 0.27174 0.00835 0.55608 0.0
C588 C 0.27539 0.99263 0.54479 0.0
C589 C 0.27659 0.99445 0.52394 0.0
C590 C 0.28047 0.979 0.51213 0.0
C591 C 0.28122 0.98084 0.49159 0.0
C592 C 0.2782 0.99822 0.48206 0.0
C593 C 0.27851 1.00012 0.46116 0.0
C594 C 0.27606 0.01773 0.45221 0.0
C595 C 0.27302 0.0336 0.46354 0.0
C596 C 0.27215 0.03187 0.48445 0.0
C597 C 0.26866 0.04742 0.49631 0.0
C598 C 0.26787 0.04557 0.51685 0.0
C599 C 0.27032 0.02807 0.52633 0.0
C600 C 0.27391 0.01222 0.51468 0.0
C601 C 0.27479 0.01412 0.49372 0.0
C602 C 0.29648 0.90929 0.43538 0.0
C603 C 0.28311 0.91773 0.42044 0.0
O604 O 0.25487 0.08328 0.60142 0.0
O605 O 0.26315 0.10382 0.42468 0.0
O606 O 0.28866 0.93567 0.41498 0.0
O607 O 0.28534 0.92264 0.58401 0.0
H608 H 0.27529 0.07831 0.62148 0.0
H609 H 0.25168 0.05413 0.62652 0.0
H610 H 0.2358 0.07199 0.63242 0.0
H611 H 0.25493 0.06775 0.64851 0.0
H612 H 0.28722 0.07206 0.59165 0.0
H613 H 0.23117 0.06634 0.57981 0.0
H614 H 0.30145 0.03141 0.57302 0.0
H615 H 0.3087 0.05553 0.57396 0.0
H616 H 0.3017 0.04537 0.55071 0.0
H617 H 0.21933 0.04364 0.55813 0.0
H618 H 0.23274 0.02287 0.55608 0.0
H619 H 0.23334 0.04055 0.53696 0.0
H620 H 0.2695 0.90633 0.5658 0.0
H621 H 0.29399 0.88466 0.55755 0.0
H622 H 0.30921 0.89745 0.57357 0.0
H623 H 0.29975 0.90866 0.55171 0.0
H624 H 0.25504 0.93397 0.5668 0.0
H625 H 0.30895 0.94912 0.58164 0.0
H626 H 0.24078 0.97948 0.55238 0.0
H627 H 0.23526 0.95485 0.55079 0.0
H628 H 0.2466 0.96673 0.53079 0.0
H629 H 0.32225 0.97734 0.57029 0.0
H630 H 0.30655 0.99608 0.57295 0.0
H631 H 0.31219 0.98845 0.54867 0.0
H632 H 0.26989 0.91811 0.42764 0.0
H633 H 0.25762 0.94633 0.42971 0.0
H634 H 0.31278 0.96071 0.42257 0.0
H635 H 0.2479 0.97373 0.46821 0.0
H636 H 0.23752 0.96612 0.44543 0.0
H637 H 0.24416 0.99033 0.4484 0.0
H638 H 0.32604 0.98709 0.43767 0.0
H639 H 0.31558 0.99435 0.46022 0.0
H640 H 0.31098 0.00668 0.43741 0.0
H641 H 0.28279 0.12046 0.43701 0.0
H642 H 0.26131 0.14041 0.45505 0.0
H643 H 0.25844 0.11603 0.46147 0.0
H644 H 0.24281 0.12722 0.44457 0.0
H645 H 0.23957 0.07738 0.42692 0.0
H646 H 0.29363 0.09214 0.44178 0.0
H647 H 0.2361 0.03829 0.45991 0.0
H648 H 0.24177 0.03021 0.43582 0.0
H649 H 0.2262 0.04914 0.43806 0.0
H650 H 0.31343 0.07092 0.45702 0.0
H651 H 0.30755 0.04634 0.4559 0.0
H652 H 0.30217 0.05951 0.47736 0.0
H653 H 0.27082 0.00684 0.57207 0.0
H654 H 0.28288 0.96526 0.51861 0.0
H655 H 0.28418 0.96842 0.48328 0.0
H656 H 0.27643 0.01909 0.43618 0.0
H657 H 0.26647 0.0612 0.48984 0.0
H658 H 0.26521 0.05804 0.52522 0.0
H659 H 0.31001 0.90882 0.42892 0.0
H660 H 0.29228 0.89486 0.43978 0.0
H661 H 0.29712 0.91795 0.44891 0.0
C662 C 0.44507 0.70914 0.12917 0.0
C663 C 0.43706 0.72596 0.11793 0.0
C664 C 0.45058 0.72515 0.08573 0.0
C665 C 0.45809 0.74303 0.08303 0.0
C666 C 0.47306 0.74572 0.07103 0.0
C667 C 0.48076 0.73011 0.06179 0.0
C668 C 0.47302 0.71206 0.06438 0.0
C669 C 0.45777 0.70989 0.07604 0.0
C670 C 0.48074 0.7652 0.06836 0.0
C671 C 0.48103 0.69499 0.05516 0.0
C672 C 0.61906 0.73036 0.11557 0.0
C673 C 0.60482 0.72525 0.10114 0.0
C674 C 0.57849 0.73849 0.08455 0.0
C675 C 0.57155 0.72113 0.07829 0.0
C676 C 0.5556 0.72013 0.06718 0.0
C677 C 0.54638 0.73679 0.06217 0.0
C678 C 0.55322 0.75426 0.06855 0.0
C679 C 0.56921 0.75486 0.07967 0.0
C680 C 0.54861 0.70126 0.0607 0.0
C681 C 0.54367 0.77227 0.06353 0.0
C682 C 0.5783 0.73636 0.934 0.0
C683 C 0.57249 0.71965 0.94332 0.0
C684 C 0.55627 0.71887 0.95342 0.0
C685 C 0.54582 0.73522 0.95466 0.0
C686 C 0.5515 0.75198 0.9451 0.0
C687 C 0.56759 0.75224 0.93471 0.0
C688 C 0.55038 0.70058 0.96292 0.0
C689 C 0.5407 0.76967 0.94608 0.0
C690 C 0.40589 0.72005 0.94258 0.0
C691 C 0.41591 0.73208 0.92734 0.0
C692 C 0.44759 0.72604 0.93279 0.0
C693 C 0.45791 0.71034 0.93743 0.0
C694 C 0.474 0.71205 0.9482 0.0
C695 C 0.48003 0.73001 0.95406 0.0
C696 C 0.47001 0.74605 0.94865 0.0
C697 C 0.45388 0.74391 0.93804 0.0
C698 C 0.48444 0.69467 0.95355 0.0
C699 C 0.47635 0.76545 0.95414 0.0
C700 C 0.49722 0.73257 0.04999 0.0
C701 C 0.51349 0.73406 0.06028 0.0
C702 C 0.52959 0.73589 0.05022 0.0
C703 C 0.52955 0.73619 0.02925 0.0
C704 C 0.54549 0.73799 0.01865 0.0
C705 C 0.54537 0.7378 0.99803 0.0
C706 C 0.52932 0.73569 0.9872 0.0
C707 C 0.52913 0.73484 0.96625 0.0
C708 C 0.5129 0.73305 0.95594 0.0
C709 C 0.49674 0.73199 0.96598 0.0
C710 C 0.49668 0.73258 0.98694 0.0
C711 C 0.48068 0.73137 0.99753 0.0
C712 C 0.48079 0.73166 0.01816 0.0
C713 C 0.49691 0.73293 0.02901 0.0
C714 C 0.51316 0.73455 0.01862 0.0
C715 C 0.51305 0.73434 0.99757 0.0
C716 C 0.61794 0.72671 0.94517 0.0
C717 C 0.60818 0.72544 0.92509 0.0
O718 O 0.4365 0.72234 0.0978 0.0
O719 O 0.43187 0.72353 0.92286 0.0
O720 O 0.59405 0.73786 0.92429 0.0
O721 O 0.59396 0.74002 0.09526 0.0
H722 H 0.44567 0.73845 0.12087 0.0
H723 H 0.45889 0.70674 0.12415 0.0
H724 H 0.437 0.69627 0.12643 0.0
H725 H 0.44558 0.71179 0.14535 0.0
H726 H 0.45219 0.75485 0.09029 0.0
H727 H 0.45174 0.69617 0.0782 0.0
H728 H 0.49392 0.76603 0.07602 0.0
H729 H 0.47197 0.77609 0.07448 0.0
H730 H 0.48286 0.76833 0.05238 0.0
H731 H 0.47473 0.68176 0.06058 0.0
H732 H 0.49558 0.69446 0.05845 0.0
H733 H 0.47925 0.69584 0.03882 0.0
H734 H 0.60902 0.7162 0.08875 0.0
H735 H 0.61121 0.71498 0.14333 0.0
H736 H 0.62059 0.74613 0.11495 0.0
H737 H 0.63194 0.72769 0.10767 0.0
H738 H 0.5785 0.70829 0.08202 0.0
H739 H 0.57458 0.76818 0.08459 0.0
H740 H 0.5349 0.69899 0.06631 0.0
H741 H 0.55716 0.68955 0.06609 0.0
H742 H 0.54782 0.70091 0.04426 0.0
H743 H 0.55079 0.78475 0.06946 0.0
H744 H 0.53002 0.77174 0.06969 0.0
H745 H 0.54227 0.77391 0.04719 0.0
H746 H 0.60315 0.7109 0.92296 0.0
H747 H 0.58046 0.70713 0.94283 0.0
H748 H 0.57209 0.76503 0.9274 0.0
H749 H 0.55147 0.70165 0.97928 0.0
H750 H 0.55862 0.68861 0.95825 0.0
H751 H 0.53619 0.69756 0.95909 0.0
H752 H 0.5476 0.78188 0.93912 0.0
H753 H 0.53791 0.77293 0.96177 0.0
H754 H 0.52767 0.76754 0.93836 0.0
H755 H 0.41835 0.746 0.93407 0.0
H756 H 0.39294 0.72658 0.9461 0.0
H757 H 0.41394 0.71886 0.95649 0.0
H758 H 0.40336 0.70572 0.93689 0.0
H759 H 0.45309 0.69665 0.93299 0.0
H760 H 0.4464 0.75622 0.93363 0.0
H761 H 0.48636 0.69365 0.96989 0.0
H762 H 0.49787 0.69561 0.94687 0.0
H763 H 0.4777 0.68168 0.94836 0.0
H764 H 0.4675 0.77658 0.94798 0.0
H765 H 0.49007 0.7679 0.94862 0.0
H766 H 0.47689 0.76662 0.97052 0.0
H767 H 0.51365 0.73359 0.07637 0.0
H768 H 0.55827 0.73948 0.02618 0.0
H769 H 0.55807 0.73922 0.99069 0.0
H770 H 0.51285 0.73235 0.93989 0.0
H771 H 0.46789 0.73013 0.99 0.0
H772 H 0.46807 0.7307 0.0255 0.0
H773 H 0.62934 0.71687 0.94585 0.0
H774 H 0.6088 0.7229 0.95741 0.0
H775 H 0.62301 0.7412 0.94755 0.0
C776 C 0.75117 0.07659 0.62717 0.0
C777 C 0.76392 0.08997 0.61625 0.0
C778 C 0.76283 0.07688 0.58343 0.0
C779 C 0.78018 0.07025 0.58104 0.0
C780 C 0.78341 0.0549 0.56887 0.0
C781 C 0.76893 0.0459 0.55911 0.0
C782 C 0.75146 0.05301 0.56101 0.0
C783 C 0.7487 0.06866 0.57292 0.0
C784 C 0.80226 0.04805 0.56684 0.0
C785 C 0.73565 0.04371 0.551 0.0
C786 C 0.79222 0.90352 0.57218 0.0
C787 C 0.7788 0.90986 0.58756 0.0
C788 C 0.78138 0.94376 0.58458 0.0
C789 C 0.7649 0.94849 0.57585 0.0
C790 C 0.76289 0.96528 0.56496 0.0
C791 C 0.77776 0.97743 0.56258 0.0
C792 C 0.79424 0.97296 0.57194 0.0
C793 C 0.79575 0.95626 0.58308 0.0
C794 C 0.74494 0.96994 0.55584 0.0
C795 C 0.81033 0.98566 0.56988 0.0
C796 C 0.78108 0.93997 0.4349 0.0
C797 C 0.76493 0.94544 0.44328 0.0
C798 C 0.76367 0.9625 0.45323 0.0
C799 C 0.77895 0.97419 0.45514 0.0
C800 C 0.79515 0.96885 0.44642 0.0
C801 C 0.7959 0.95191 0.43616 0.0
C802 C 0.74596 0.96807 0.46161 0.0
C803 C 0.8117 0.98095 0.44807 0.0
C804 C 0.77368 0.11992 0.43919 0.0
C805 C 0.78164 0.1093 0.42191 0.0
C806 C 0.77304 0.07674 0.42896 0.0
C807 C 0.75745 0.06636 0.43231 0.0
C808 C 0.75778 0.04972 0.4437 0.0
C809 C 0.77421 0.04319 0.45159 0.0
C810 C 0.79015 0.0532 0.44756 0.0
C811 C 0.78941 0.06986 0.43627 0.0
C812 C 0.74058 0.03926 0.44758 0.0
C813 C 0.80796 0.04629 0.45526 0.0
C814 C 0.7719 0.02835 0.54807 0.0
C815 C 0.77351 0.01168 0.55912 0.0
C816 C 0.77619 0.99456 0.5499 0.0
C817 C 0.77712 0.99389 0.529 0.0
C818 C 0.77987 0.97691 0.51923 0.0
C819 C 0.78024 0.97629 0.49864 0.0
C820 C 0.77799 0.99265 0.48701 0.0
C821 C 0.77788 0.99209 0.46604 0.0
C822 C 0.77635 0.00874 0.45497 0.0
C823 C 0.7748 0.02601 0.46425 0.0
C824 C 0.77428 0.02679 0.48517 0.0
C825 C 0.77228 0.04389 0.49497 0.0
C826 C 0.77163 0.04448 0.51556 0.0
C827 C 0.77291 0.02798 0.52715 0.0
C828 C 0.77531 0.01064 0.51759 0.0
C829 C 0.77587 0.01002 0.49658 0.0
C830 C 0.78552 0.89798 0.44828 0.0
C831 C 0.77516 0.90645 0.43062 0.0
O832 O 0.75936 0.09081 0.59625 0.0
O833 O 0.77178 0.09311 0.41845 0.0
O834 O 0.78277 0.92355 0.42517 0.0
O835 O 0.78379 0.92732 0.59461 0.0
H836 H 0.77772 0.08455 0.61821 0.0
H837 H 0.75227 0.06223 0.62123 0.0
H838 H 0.73715 0.08129 0.62522 0.0
H839 H 0.75458 0.07595 0.64325 0.0
H840 H 0.79119 0.07702 0.58875 0.0
H841 H 0.73536 0.07403 0.57478 0.0
H842 H 0.80376 0.0346 0.57516 0.0
H843 H 0.81224 0.05821 0.57273 0.0
H844 H 0.80519 0.0454 0.55104 0.0
H845 H 0.72281 0.05016 0.55509 0.0
H846 H 0.73519 0.02857 0.55508 0.0
H847 H 0.73703 0.0448 0.53467 0.0
H848 H 0.76541 0.91053 0.5803 0.0
H849 H 0.78845 0.88946 0.56653 0.0
H850 H 0.80587 0.90289 0.5788 0.0
H851 H 0.79235 0.91354 0.55941 0.0
H852 H 0.75353 0.9392 0.57771 0.0
H853 H 0.80833 0.95258 0.59017 0.0
H854 H 0.74123 0.98452 0.55941 0.0
H855 H 0.73426 0.96024 0.56106 0.0
H856 H 0.74566 0.96903 0.53947 0.0
H857 H 0.82251 0.97946 0.57676 0.0
H858 H 0.80768 0.9992 0.57711 0.0
H859 H 0.81286 0.9887 0.55397 0.0
H860 H 0.76109 0.90832 0.43501 0.0
H861 H 0.75314 0.93674 0.44172 0.0
H862 H 0.80823 0.9477 0.42941 0.0
H863 H 0.74674 0.9674 0.47804 0.0
H864 H 0.73489 0.95875 0.45661 0.0
H865 H 0.74277 0.98273 0.45717 0.0
H866 H 0.82369 0.97385 0.44243 0.0
H867 H 0.8142 0.9848 0.46376 0.0
H868 H 0.80969 0.99413 0.4394 0.0
H869 H 0.79563 0.10592 0.42605 0.0
H870 H 0.78121 0.13318 0.44171 0.0
H871 H 0.77455 0.11122 0.45296 0.0
H872 H 0.75944 0.12322 0.43617 0.0
H873 H 0.74492 0.07161 0.42635 0.0
H874 H 0.80173 0.07716 0.43298 0.0
H875 H 0.73846 0.03802 0.4638 0.0
H876 H 0.74144 0.02483 0.44176 0.0
H877 H 0.72887 0.0463 0.44059 0.0
H878 H 0.81924 0.05523 0.45013 0.0
H879 H 0.81012 0.03172 0.45035 0.0
H880 H 0.80803 0.04605 0.47172 0.0
H881 H 0.77265 0.01203 0.57516 0.0
H882 H 0.78165 0.96385 0.52738 0.0
H883 H 0.7823 0.96281 0.49195 0.0
H884 H 0.77646 0.00827 0.43891 0.0
H885 H 0.77109 0.05702 0.48681 0.0
H886 H 0.77004 0.05802 0.52229 0.0
H887 H 0.79974 0.89599 0.44445 0.0
H888 H 0.77962 0.88424 0.45273 0.0
H889 H 0.78491 0.90745 0.46115 0.0
C890 C 0.46113 0.29113 0.13632 0.0
C891 C 0.44671 0.30156 0.12428 0.0
C892 C 0.45735 0.29621 0.09104 0.0
C893 C 0.4643 0.31391 0.08589 0.0
C894 C 0.47782 0.31579 0.07181 0.0
C895 C 0.48464 0.2996 0.06285 0.0
C896 C 0.47721 0.28178 0.06755 0.0
C897 C 0.46341 0.28038 0.08136 0.0
C898 C 0.48508 0.33506 0.06683 0.0
C899 C 0.48422 0.26418 0.05845 0.0
C900 C 0.62731 0.31875 0.06363 0.0
C901 C 0.61626 0.30518 0.07634 0.0
C902 C 0.58426 0.3112 0.07475 0.0
C903 C 0.57774 0.29319 0.07044 0.0
C904 C 0.56069 0.29071 0.06195 0.0
C905 C 0.54999 0.30656 0.05776 0.0
C906 C 0.55624 0.32463 0.06292 0.0
C907 C 0.57327 0.32668 0.07156 0.0
C908 C 0.55419 0.2712 0.05715 0.0
C909 C 0.54509 0.34181 0.0589 0.0
C910 C 0.5738 0.29815 0.92743 0.0
C911 C 0.56715 0.28204 0.93724 0.0
C912 C 0.55176 0.28283 0.94877 0.0
C913 C 0.54292 0.30011 0.95081 0.0
C914 C 0.54941 0.3163 0.94082 0.0
C915 C 0.56471 0.31506 0.92916 0.0
C916 C 0.54502 0.26518 0.95891 0.0
C917 C 0.54031 0.33494 0.94268 0.0
C918 C 0.40483 0.31312 0.94018 0.0
C919 C 0.41541 0.30878 0.92156 0.0
C920 C 0.44388 0.29677 0.93519 0.0
C921 C 0.45371 0.28053 0.93896 0.0
C922 C 0.47025 0.28123 0.94893 0.0
C923 C 0.4772 0.29872 0.95512 0.0
C924 C 0.46747 0.31528 0.95114 0.0
C925 C 0.45085 0.31414 0.94134 0.0
C926 C 0.48027 0.2633 0.95297 0.0
C927 C 0.47463 0.33419 0.9573 0.0
C928 C 0.5003 0.3012 0.04965 0.0
C929 C 0.51716 0.30288 0.05862 0.0
C930 C 0.53257 0.30435 0.04729 0.0
C931 C 0.53127 0.30388 0.02638 0.0
C932 C 0.54654 0.30508 0.01454 0.0
C933 C 0.54517 0.30426 0.994 0.0
C934 C 0.52847 0.30239 0.98445 0.0
C935 C 0.52698 0.30116 0.96358 0.0
C936 C 0.51013 0.30002 0.95453 0.0
C937 C 0.49462 0.2997 0.96579 0.0
C938 C 0.49586 0.30025 0.98673 0.0
C939 C 0.48056 0.29937 0.99854 0.0
C940 C 0.48195 0.29979 0.01914 0.0
C941 C 0.49869 0.30104 0.02872 0.0
C942 C 0.51427 0.3022 0.01707 0.0
C943 C 0.51286 0.30166 0.99607 0.0
C944 C 0.61257 0.28231 0.93385 0.0
C945 C 0.60106 0.28369 0.9149 0.0
O946 O 0.44508 0.29396 0.10551 0.0
O947 O 0.42781 0.29491 0.92571 0.0
O948 O 0.58885 0.2981 0.91635 0.0
O949 O 0.60092 0.31412 0.08226 0.0
H950 H 0.45067 0.31658 0.1231 0.0
H951 H 0.47424 0.29276 0.12901 0.0
H952 H 0.45781 0.27595 0.13751 0.0
H953 H 0.4624 0.29696 0.15146 0.0
H954 H 0.45917 0.32629 0.09281 0.0
H955 H 0.45781 0.26679 0.08531 0.0
H956 H 0.49868 0.33656 0.07336 0.0
H957 H 0.47662 0.34635 0.07269 0.0
H958 H 0.48613 0.33698 0.05052 0.0
H959 H 0.47775 0.25132 0.06458 0.0
H960 H 0.49884 0.26324 0.06105 0.0
H961 H 0.48185 0.26467 0.04218 0.0
H962 H 0.613 0.29293 0.0669 0.0
H963 H 0.63975 0.31192 0.05884 0.0
H964 H 0.63084 0.33158 0.07201 0.0
H965 H 0.61951 0.32296 0.05018 0.0
H966 H 0.58587 0.28106 0.07382 0.0
H967 H 0.57831 0.34047 0.07533 0.0
H968 H 0.54093 0.26861 0.06382 0.0
H969 H 0.56356 0.26023 0.06261 0.0
H970 H 0.55256 0.26991 0.04084 0.0
H971 H 0.55203 0.35491 0.06343 0.0
H972 H 0.53238 0.34054 0.06706 0.0
H973 H 0.54168 0.34287 0.04284 0.0
H974 H 0.59385 0.27019 0.91263 0.0
H975 H 0.57385 0.26877 0.93608 0.0
H976 H 0.56984 0.32741 0.92153 0.0
H977 H 0.54661 0.26653 0.97521 0.0
H978 H 0.5523 0.25253 0.95427 0.0
H979 H 0.53058 0.26313 0.9556 0.0
H980 H 0.54755 0.34643 0.93483 0.0
H981 H 0.53924 0.33855 0.95857 0.0
H982 H 0.52655 0.33397 0.93645 0.0
H983 H 0.42232 0.32173 0.91624 0.0
H984 H 0.39477 0.3241 0.93681 0.0
H985 H 0.41387 0.31836 0.95207 0.0
H986 H 0.39791 0.30031 0.9458 0.0
H987 H 0.44827 0.2672 0.93416 0.0
H988 H 0.44349 0.32691 0.93864 0.0
H989 H 0.48344 0.26189 0.96906 0.0
H990 H 0.49312 0.26375 0.94499 0.0
H991 H 0.4726 0.25072 0.94821 0.0
H992 H 0.46608 0.34588 0.95186 0.0
H993 H 0.48831 0.33634 0.95155 0.0
H994 H 0.4755 0.33471 0.97372 0.0
H995 H 0.51832 0.3031 0.07467 0.0
H996 H 0.55976 0.30654 0.02103 0.0
H997 H 0.55739 0.30515 0.98567 0.0
H998 H 0.50907 0.2992 0.93851 0.0
H999 H 0.46732 0.29827 0.992 0.0
H1000 H 0.46973 0.29908 0.02748 0.0
H1001 H 0.62248 0.27092 0.93261 0.0
H1002 H 0.60417 0.27909 0.94689 0.0
H1003 H 0.61975 0.29576 0.93649 0.0
H1004 H 0.18419 0.35652 0.20777 0.0
H1005 H 0.12665 0.44641 0.26259 0.0
H1006 H 0.1955 0.37567 0.26705 0.0
H1007 H 0.12081 0.42534 0.18993 0.0
H1008 H 0.1533 0.41738 0.26699 0.0
H1009 H 0.16013 0.37921 0.2048 0.0
C1010 C 0.18162 0.3655 0.22018 0.0
C1011 C 0.19208 0.36435 0.23759 0.0
C1012 C 0.14661 0.41982 0.25288 0.0
C1013 C 0.16442 0.39032 0.23429 0.0
C1014 C 0.13114 0.43852 0.25007 0.0
C1015 C 0.11848 0.43722 0.2261 0.0
C1016 C 0.15098 0.4052 0.23218 0.0
C1017 C 0.1275 0.42527 0.20425 0.0
C1018 C 0.16782 0.37841 0.21849 0.0
C1019 C 0.18778 0.37604 0.25337 0.0
N1020 N 0.1419 0.40917 0.2103 0.0
N1021 N 0.17434 0.38868 0.25129 0.0
H1022 H 0.19038 0.66853 0.72513 0.0
H1023 H 0.12171 0.59538 0.77409 0.0
H1024 H 0.18631 0.65943 0.78832 0.0
H1025 H 0.12304 0.60853 0.71152 0.0
H1026 H 0.14504 0.61905 0.77984 0.0
H1027 H 0.16536 0.64699 0.72003 0.0
C1028 C 0.18413 0.66216 0.73797 0.0
C1029 C 0.19053 0.66585 0.7572 0.0
C1030 C 0.1401 0.6169 0.76487 0.0
C1031 C 0.16192 0.64084 0.75142 0.0
C1032 C 0.12673 0.60346 0.76161 0.0
C1033 C 0.12017 0.60028 0.74234 0.0
C1034 C 0.14715 0.62704 0.74871 0.0
C1035 C 0.1275 0.61078 0.72664 0.0
C1036 C 0.16988 0.64974 0.73503 0.0
C1037 C 0.18204 0.65683 0.77321 0.0
N1038 N 0.14059 0.62365 0.73016 0.0
N1039 N 0.16822 0.64473 0.76996 0.0
H1040 H 0.8363 0.67535 0.27524 0.0
H1041 H 0.90222 0.60166 0.22704 0.0
H1042 H 0.84003 0.6675 0.21213 0.0
H1043 H 0.9006 0.61288 0.28959 0.0
H1044 H 0.87995 0.62613 0.22099 0.0
H1045 H 0.86041 0.65306 0.28055 0.0
C1046 C 0.8423 0.6691 0.26246 0.0
C1047 C 0.83607 0.67337 0.24319 0.0
C1048 C 0.8846 0.62337 0.23602 0.0
C1049 C 0.86362 0.64748 0.24922 0.0
C1050 C 0.89736 0.60948 0.23945 0.0
C1051 C 0.90353 0.60551 0.25881 0.0
C1052 C 0.87777 0.63319 0.25209 0.0
C1053 C 0.89644 0.61571 0.27442 0.0
C1054 C 0.85602 0.65625 0.26552 0.0
C1055 C 0.8442 0.66448 0.22726 0.0
N1056 N 0.88395 0.62905 0.27072 0.0
N1057 N 0.8575 0.65194 0.23063 0.0
H1058 H 0.83707 0.36572 0.71444 0.0
H1059 H 0.89547 0.42061 0.80922 0.0
H1060 H 0.83244 0.35173 0.77665 0.0
H1061 H 0.89751 0.43953 0.73511 0.0
H1062 H 0.86937 0.39287 0.79731 0.0
H1063 H 0.85852 0.39056 0.72301 0.0
C1064 C 0.8406 0.36781 0.72987 0.0
C1065 C 0.83286 0.35667 0.74486 0.0
C1066 C 0.87514 0.40233 0.78644 0.0
C1067 C 0.85724 0.38506 0.75469 0.0
C1068 C 0.89028 0.42017 0.79418 0.0
C1069 C 0.90171 0.43152 0.77285 0.0
C1070 C 0.86982 0.4 0.76062 0.0
C1071 C 0.89165 0.43192 0.74742 0.0
C1072 C 0.85276 0.38204 0.73474 0.0
C1073 C 0.83783 0.36015 0.76463 0.0
N1074 N 0.87769 0.41461 0.74384 0.0
N1075 N 0.84971 0.37402 0.76896 0.0
H1076 H 0.2423 0.18945 0.32721 0.0
H1077 H 0.28832 0.15341 0.42837 0.0
H1078 H 0.27274 0.22539 0.36613 0.0
H1079 H 0.24561 0.12323 0.39912 0.0
H1080 H 0.28543 0.17857 0.40347 0.0
H1081 H 0.24609 0.16356 0.35118 0.0
C1082 C 0.24986 0.19185 0.34075 0.0
C1083 C 0.25718 0.20961 0.34471 0.0
C1084 C 0.27678 0.16639 0.40242 0.0
C1085 C 0.26157 0.18009 0.37216 0.0
C1086 C 0.27849 0.152 0.41654 0.0
C1087 C 0.26748 0.13602 0.41559 0.0
C1088 C 0.26393 0.16484 0.38716 0.0
C1089 C 0.25465 0.1351 0.40021 0.0
C1090 C 0.25192 0.17712 0.35446 0.0
C1091 C 0.26671 0.21199 0.36258 0.0
N1092 N 0.2533 0.14926 0.38654 0.0
N1093 N 0.26868 0.19739 0.3756 0.0
H1094 H 0.34499 0.77638 0.83558 0.0
H1095 H 0.40792 0.70637 0.89825 0.0
H1096 H 0.35013 0.71775 0.82221 0.0
H1097 H 0.39792 0.76348 0.91449 0.0
H1098 H 0.38825 0.71055 0.86917 0.0
H1099 H 0.36585 0.77224 0.86337 0.0
C1100 C 0.3506 0.76265 0.83841 0.0
C1101 C 0.34581 0.7474 0.82649 0.0
C1102 C 0.39042 0.72219 0.87904 0.0
C1103 C 0.36964 0.7425 0.85851 0.0
C1104 C 0.40169 0.71982 0.89557 0.0
C1105 C 0.40467 0.73466 0.90868 0.0
C1106 C 0.38205 0.73951 0.87561 0.0
C1107 C 0.39611 0.75174 0.90468 0.0
C1108 C 0.36244 0.76027 0.85437 0.0
C1109 C 0.35329 0.72985 0.83111 0.0
N1110 N 0.38522 0.7537 0.88852 0.0
N1111 N 0.36486 0.72789 0.84673 0.0
H1112 H 0.75623 0.81004 0.35642 0.0
H1113 H 0.79976 0.90353 0.40043 0.0
H1114 H 0.7969 0.84204 0.32609 0.0
H1115 H 0.75137 0.87823 0.42249 0.0
H1116 H 0.79998 0.88046 0.37391 0.0
H1117 H 0.75533 0.83412 0.38173 0.0
C1118 C 0.76499 0.82213 0.35511 0.0
C1119 C 0.77669 0.82401 0.33914 0.0
C1120 C 0.78921 0.88008 0.38444 0.0
C1121 C 0.77571 0.85169 0.36806 0.0
C1122 C 0.78905 0.89328 0.39953 0.0
C1123 C 0.77526 0.89307 0.4134 0.0
C1124 C 0.77571 0.86633 0.38346 0.0
C1125 C 0.76203 0.8791 0.41187 0.0
C1126 C 0.7644 0.83593 0.3695 0.0
C1127 C 0.78758 0.84011 0.33806 0.0
N1128 N 0.76259 0.8663 0.39721 0.0
N1129 N 0.7869 0.85327 0.35239 0.0
H1130 H 0.67777 0.26744 0.82226 0.0
H1131 H 0.61555 0.3171 0.9008 0.0
H1132 H 0.67523 0.32748 0.82852 0.0
H1133 H 0.61451 0.25774 0.88977 0.0
H1134 H 0.63689 0.32144 0.8739 0.0
H1135 H 0.65398 0.26381 0.8463 0.0
C1136 C 0.67209 0.2799 0.8285 0.0
C1137 C 0.6786 0.29781 0.82332 0.0
C1138 C 0.63183 0.3075 0.8772 0.0
C1139 C 0.65146 0.2937 0.85124 0.0
C1140 C 0.6196 0.30504 0.89248 0.0
C1141 C 0.61297 0.28708 0.89724 0.0
C1142 C 0.6377 0.29185 0.8668 0.0
C1143 C 0.61904 0.27186 0.88635 0.0
C1144 C 0.65856 0.2778 0.84235 0.0
C1145 C 0.67087 0.31338 0.83226 0.0
N1146 N 0.63107 0.27458 0.8717 0.0
N1147 N 0.65778 0.31096 0.84582 0.0
H1148 H 0.24336 0.80696 0.64018 0.0
H1149 H 0.29715 0.90114 0.61315 0.0
H1150 H 0.27875 0.8348 0.68157 0.0
H1151 H 0.25649 0.87682 0.57545 0.0
H1152 H 0.29113 0.8768 0.63829 0.0
H1153 H 0.24846 0.83225 0.61618 0.0
C1154 C 0.2521 0.81846 0.64432 0.0
C1155 C 0.26058 0.81872 0.66303 0.0
C1156 C 0.28341 0.87689 0.6246 0.0
C1157 C 0.26672 0.8477 0.63534 0.0
C1158 C 0.28679 0.89082 0.6103 0.0
C1159 C 0.27702 0.89122 0.59237 0.0
C1160 C 0.27036 0.86309 0.62081 0.0
C1161 C 0.26409 0.8772 0.5892 0.0
C1162 C 0.25508 0.83287 0.63053 0.0
C1163 C 0.27208 0.83385 0.66729 0.0
N1164 N 0.26114 0.86373 0.60326 0.0
N1165 N 0.27482 0.84771 0.65356 0.0
H1166 H 0.6608 0.77322 0.18894 0.0
H1167 H 0.61873 0.68683 0.1121 0.0
H1168 H 0.68745 0.72127 0.17698 0.0
H1169 H 0.58443 0.74487 0.13493 0.0
H1170 H 0.64772 0.70043 0.13675 0.0
H1171 H 0.63592 0.76327 0.16759 0.0
C1172 C 0.66146 0.75973 0.18188 0.0
C1173 C 0.67627 0.74803 0.18495 0.0
C1174 C 0.63529 0.70798 0.13574 0.0
C1175 C 0.64792 0.73675 0.16028 0.0
C1176 C 0.61715 0.69874 0.12163 0.0
C1177 C 0.59895 0.71605 0.11822 0.0
C1178 C 0.63287 0.72982 0.14807 0.0
C1179 C 0.59563 0.73543 0.13592 0.0
C1180 C 0.64727 0.75413 0.16961 0.0
C1181 C 0.67647 0.73088 0.17497 0.0
N1182 N 0.61394 0.74115 0.14775 0.0
N1183 N 0.66248 0.72575 0.16314 0.0
H1184 H 0.77114 0.17782 0.70243 0.0
H1185 H 0.74072 0.11926 0.60774 0.0
H1186 H 0.7354 0.20003 0.65738 0.0
H1187 H 0.78469 0.10377 0.64637 0.0
H1188 H 0.73825 0.14887 0.62545 0.0
H1189 H 0.77588 0.1504 0.68206 0.0
C1190 C 0.7643 0.17692 0.68821 0.0
C1191 C 0.75278 0.19117 0.68164 0.0
C1192 C 0.7486 0.1391 0.62986 0.0
C1193 C 0.75815 0.15977 0.65816 0.0
C1194 C 0.75006 0.12226 0.61971 0.0
C1195 C 0.76319 0.10921 0.62535 0.0
C1196 C 0.76009 0.14275 0.64602 0.0
C1197 C 0.77459 0.11358 0.64133 0.0
C1198 C 0.76708 0.1613 0.67653 0.0
C1199 C 0.74446 0.18939 0.66296 0.0
N1200 N 0.77273 0.1299 0.65114 0.0
N1201 N 0.74719 0.17389 0.65194 0.0
H1202 H 0.34518 0.26648 0.17512 0.0
H1203 H 0.43392 0.3256 0.15167 0.0
H1204 H 0.36644 0.30975 0.21292 0.0
H1205 H 0.42029 0.27403 0.12236 0.0
H1206 H 0.407 0.32234 0.17149 0.0
H1207 H 0.37037 0.27144 0.15283 0.0
C1208 C 0.35507 0.27713 0.17864 0.0
C1209 C 0.35376 0.28767 0.19595 0.0
C1210 C 0.40978 0.31182 0.16059 0.0
C1211 C 0.38259 0.29337 0.17057 0.0
C1212 C 0.42507 0.31375 0.1492 0.0
C1213 C 0.42916 0.30029 0.13507 0.0
C1214 C 0.39845 0.29626 0.15793 0.0
C1215 C 0.41747 0.28493 0.1328 0.0
C1216 C 0.36949 0.27986 0.16599 0.0
C1217 C 0.36704 0.30115 0.19987 0.0
N1218 N 0.40262 0.28336 0.14409 0.0
N1219 N 0.38088 0.30362 0.18729 0.0
H1220 H 0.85096 0.68131 0.74851 0.0
H1221 H 0.88872 0.57933 0.77563 0.0
H1222 H 0.82341 0.64085 0.78552 0.0
H1223 H 0.91087 0.61495 0.72982 0.0
H1224 H 0.86622 0.60308 0.7817 0.0
H1225 H 0.87443 0.65839 0.74345 0.0
C1226 C 0.84977 0.66761 0.75551 0.0
C1227 C 0.83512 0.66305 0.76746 0.0
C1228 C 0.87608 0.60579 0.77042 0.0
C1229 C 0.86213 0.63684 0.76195 0.0
C1230 C 0.88896 0.59229 0.76704 0.0
C1231 C 0.90189 0.59535 0.7525 0.0
C1232 C 0.87601 0.62248 0.7591 0.0
C1233 C 0.90136 0.6122 0.74144 0.0
C1234 C 0.86325 0.65456 0.75269 0.0
C1235 C 0.83454 0.64515 0.77644 0.0
N1236 N 0.88866 0.62516 0.74501 0.0
N1237 N 0.84783 0.63273 0.7735 0.0
H1238 H 0.85942 0.32022 0.24951 0.0
H1239 H 0.9163 0.40817 0.2108 0.0
H1240 H 0.83719 0.36348 0.21131 0.0
H1241 H 0.93284 0.3726 0.25987 0.0
H1242 H 0.88779 0.39118 0.20932 0.0
H1243 H 0.88699 0.33842 0.25213 0.0
C1244 C 0.86024 0.33362 0.2418 0.0
C1245 C 0.84585 0.34031 0.23022 0.0
C1246 C 0.89758 0.38723 0.22054 0.0
C1247 C 0.87765 0.36111 0.23287 0.0
C1248 C 0.91381 0.39696 0.22145 0.0
C1249 C 0.92677 0.39206 0.23581 0.0
C1250 C 0.89444 0.37223 0.23381 0.0
C1251 C 0.92306 0.37704 0.24883 0.0
C1252 C 0.87606 0.34397 0.24323 0.0
C1253 C 0.84796 0.3576 0.2202 0.0
N1254 N 0.90727 0.36765 0.24751 0.0
N1255 N 0.86357 0.36737 0.22172 0.0
H1256 H 0.17441 0.34347 0.79816 0.0
H1257 H 0.1077 0.38977 0.71789 0.0
H1258 H 0.18054 0.33968 0.73484 0.0
H1259 H 0.0985 0.39061 0.78081 0.0
H1260 H 0.13538 0.37282 0.72418 0.0
H1261 H 0.14756 0.36222 0.7925 0.0
C1262 C 0.17017 0.34665 0.78307 0.0
C1263 C 0.17972 0.33992 0.76695 0.0
C1264 C 0.12743 0.37683 0.73667 0.0
C1265 C 0.14896 0.36126 0.76037 0.0
C1266 C 0.11168 0.3866 0.73307 0.0
C1267 C 0.10101 0.39196 0.74886 0.0
C1268 C 0.13254 0.37219 0.75623 0.0
C1269 C 0.10654 0.38706 0.76824 0.0
C1270 C 0.15479 0.35727 0.77986 0.0
C1271 C 0.17347 0.34431 0.74772 0.0
N1272 N 0.12195 0.37747 0.77138 0.0
N1273 N 0.15852 0.35469 0.74499 0.0
H1274 H 0.15957 0.69958 0.27939 0.0
H1275 H 0.13169 0.60618 0.22237 0.0
H1276 H 0.19237 0.67408 0.23536 0.0
H1277 H 0.10777 0.62253 0.27714 0.0
H1278 H 0.15204 0.63311 0.22457 0.0
H1279 H 0.13848 0.67342 0.27655 0.0
C1280 C 0.16242 0.68847 0.26919 0.0
C1281 C 0.17788 0.68908 0.25766 0.0
C1282 C 0.14225 0.63088 0.23603 0.0
C1283 C 0.15354 0.65923 0.25409 0.0
C1284 C 0.1306 0.61559 0.23473 0.0
C1285 C 0.11776 0.61234 0.24934 0.0
C1286 C 0.14112 0.64305 0.2521 0.0
C1287 C 0.11719 0.62472 0.26531 0.0
C1288 C 0.15031 0.67358 0.26752 0.0
C1289 C 0.18057 0.67443 0.24437 0.0
N1290 N 0.12864 0.63958 0.26621 0.0
N1291 N 0.16853 0.66014 0.24295 0.0
H1292 H 0.76095 0.8076 0.65531 0.0
H1293 H 0.79992 0.90746 0.6216 0.0
H1294 H 0.79554 0.84087 0.69272 0.0
H1295 H 0.75659 0.87941 0.59112 0.0
H1296 H 0.7993 0.88293 0.64741 0.0
H1297 H 0.76 0.83341 0.63108 0.0
C1298 C 0.76836 0.82035 0.6584 0.0
C1299 C 0.7784 0.82207 0.67601 0.0
C1300 C 0.78979 0.88226 0.6352 0.0
C1301 C 0.77736 0.8517 0.64836 0.0
C1302 C 0.7901 0.89628 0.62051 0.0
C1303 C 0.77799 0.89567 0.60444 0.0
C1304 C 0.77754 0.86733 0.63359 0.0
C1305 C 0.76592 0.88057 0.60346 0.0
C1306 C 0.76773 0.83512 0.64463 0.0
C1307 C 0.78754 0.83901 0.67939 0.0
N1308 N 0.76602 0.86699 0.61779 0.0
N1309 N 0.78691 0.85313 0.66562 0.0
H1310 H 0.68568 0.24357 0.15779 0.0
H1311 H 0.62482 0.3248 0.11009 0.0
H1312 H 0.68214 0.29906 0.18186 0.0
H1313 H 0.63246 0.2712 0.08299 0.0
H1314 H 0.64388 0.31475 0.138 0.0
H1315 H 0.66421 0.25252 0.1318 0.0
C1316 C 0.68027 0.25759 0.15771 0.0
C1317 C 0.68577 0.2706 0.17199 0.0
C1318 C 0.6413 0.30513 0.12602 0.0
C1319 C 0.66129 0.28101 0.14216 0.0
C1320 C 0.63038 0.31084 0.11015 0.0
C1321 C 0.62696 0.29874 0.09432 0.0
C1322 C 0.64892 0.28722 0.12603 0.0
C1323 C 0.63466 0.28089 0.09498 0.0
C1324 C 0.66809 0.26273 0.1428 0.0
C1325 C 0.67847 0.28866 0.171 0.0
N1326 N 0.64529 0.27567 0.11056 0.0
N1327 N 0.66663 0.29333 0.15633 0.0
H1328 H 0.27107 0.17398 0.70322 0.0
H1329 H 0.23542 0.10997 0.61476 0.0
H1330 H 0.23041 0.19201 0.66128 0.0
H1331 H 0.28311 0.09808 0.64905 0.0
H1332 H 0.23271 0.13972 0.63205 0.0
H1333 H 0.27515 0.14576 0.68397 0.0
C1334 C 0.26311 0.17213 0.68986 0.0
C1335 C 0.25037 0.18548 0.6839 0.0
C1336 C 0.24388 0.1307 0.63563 0.0
C1337 C 0.25477 0.15289 0.66193 0.0
C1338 C 0.24547 0.11377 0.62571 0.0
C1339 C 0.25975 0.10175 0.63017 0.0
C1340 C 0.25646 0.13547 0.6504 0.0
C1341 C 0.27209 0.10711 0.64491 0.0
C1342 C 0.26538 0.15593 0.67892 0.0
C1343 C 0.24019 0.18202 0.66665 0.0
N1344 N 0.27014 0.12353 0.65452 0.0
N1345 N 0.24257 0.16604 0.65632 0.0
H1346 H 0.35069 0.75413 0.19504 0.0
H1347 H 0.40463 0.71046 0.10599 0.0
H1348 H 0.32505 0.72465 0.14685 0.0
H1349 H 0.42769 0.74914 0.14786 0.0
H1350 H 0.37536 0.71515 0.12068 0.0
H1351 H 0.37898 0.75229 0.17793 0.0
C1352 C 0.35092 0.74747 0.18075 0.0
C1353 C 0.33537 0.73954 0.17242 0.0
C1354 C 0.38678 0.72279 0.1265 0.0
C1355 C 0.36796 0.73704 0.15286 0.0
C1356 C 0.40347 0.72018 0.11806 0.0
C1357 C 0.41854 0.72976 0.12546 0.0
C1358 C 0.38522 0.73477 0.1427 0.0
C1359 C 0.41635 0.74176 0.1415 0.0
C1360 C 0.36715 0.74632 0.17102 0.0
C1361 C 0.33669 0.73071 0.15402 0.0
N1362 N 0.40004 0.74387 0.14961 0.0
N1363 N 0.35271 0.72963 0.14491 0.0
H1364 H 0.8139 0.18332 0.32571 0.0
H1365 H 0.75315 0.12136 0.39871 0.0
H1366 H 0.75665 0.18852 0.32805 0.0
H1367 H 0.81051 0.12516 0.40325 0.0
H1368 H 0.75387 0.14286 0.36996 0.0
H1369 H 0.81257 0.15881 0.35126 0.0
C1370 C 0.80103 0.17933 0.33161 0.0
C1371 C 0.78539 0.1882 0.32488 0.0
C1372 C 0.76629 0.13889 0.37719 0.0
C1373 C 0.78375 0.15992 0.35406 0.0
C1374 C 0.76588 0.12662 0.39354 0.0
C1375 C 0.7818 0.1215 0.40336 0.0
C1376 C 0.78273 0.14602 0.3706 0.0
C1377 C 0.79794 0.12872 0.39611 0.0
C1378 C 0.80028 0.16526 0.34615 0.0
C1379 C 0.76905 0.18205 0.33272 0.0
N1380 N 0.79798 0.14062 0.38021 0.0
N1381 N 0.76866 0.16836 0.34699 0.0
H1382 H 0.33986 0.30558 0.82288 0.0
H1383 H 0.4009 0.27351 0.91558 0.0
H1384 H 0.34351 0.24827 0.84385 0.0
H1385 H 0.40052 0.32977 0.89127 0.0
H1386 H 0.37957 0.26399 0.88974 0.0
H1387 H 0.36164 0.31479 0.84828 0.0
C1388 C 0.34519 0.29494 0.83289 0.0
C1389 C 0.33982 0.27612 0.83125 0.0
C1390 C 0.38425 0.27838 0.88996 0.0
C1391 C 0.3649 0.28654 0.8603 0.0
C1392 C 0.39646 0.2838 0.90465 0.0
C1393 C 0.40279 0.30237 0.90527 0.0
C1394 C 0.37809 0.29169 0.87594 0.0
C1395 C 0.39623 0.31525 0.89108 0.0
C1396 C 0.35771 0.30019 0.84732 0.0
C1397 C 0.34739 0.2629 0.84444 0.0
N1398 N 0.38427 0.30967 0.87699 0.0
N1399 N 0.35951 0.26837 0.85843 0.0
H1400 H 0.25392 0.82957 0.33856 0.0
H1401 H 0.30508 0.91665 0.3879 0.0
H1402 H 0.30022 0.85651 0.31313 0.0
H1403 H 0.25827 0.89029 0.41261 0.0
H1404 H 0.30312 0.89527 0.3599 0.0
H1405 H 0.25503 0.85202 0.3655 0.0
C1406 C 0.26435 0.84017 0.33864 0.0
C1407 C 0.27702 0.84108 0.32352 0.0
C1408 C 0.29319 0.89425 0.37135 0.0
C1409 C 0.27824 0.86703 0.35429 0.0
C1410 C 0.29426 0.90651 0.38727 0.0
C1411 C 0.28159 0.90548 0.40237 0.0
C1412 C 0.27948 0.88069 0.37064 0.0
C1413 C 0.26811 0.89175 0.4011 0.0
C1414 C 0.26491 0.85307 0.35398 0.0
C1415 C 0.29004 0.85536 0.32429 0.0
N1416 N 0.26741 0.87991 0.38553 0.0
N1417 N 0.29034 0.86771 0.33943 0.0
H1418 H 0.6968 0.72044 0.84451 0.0
H1419 H 0.61604 0.75969 0.90684 0.0
H1420 H 0.67157 0.77335 0.83069 0.0
H1421 H 0.6305 0.70131 0.90678 0.0
H1422 H 0.6381 0.76605 0.88113 0.0
H1423 H 0.67433 0.71423 0.86959 0.0
C1424 C 0.68649 0.73072 0.84661 0.0
C1425 C 0.6861 0.74743 0.8353 0.0
C1426 C 0.63632 0.75183 0.88662 0.0
C1427 C 0.66049 0.7405 0.86441 0.0
C1428 C 0.62369 0.74817 0.90123 0.0
C1429 C 0.62111 0.72982 0.90858 0.0
C1430 C 0.64673 0.73713 0.87964 0.0
C1431 C 0.63183 0.71556 0.90122 0.0
C1432 C 0.67371 0.72718 0.86103 0.0
C1433 C 0.67261 0.76039 0.83916 0.0
N1434 N 0.64417 0.71951 0.88719 0.0
N1435 N 0.66038 0.75667 0.8534 0.0
loop_
_geom_bond_atom_site_label_1
_geom_bond_atom_site_label_2
_geom_bond_distance
_geom_bond_site_symmetry_2
_ccdc_geom_bond_type
C0 C1 1.264 . S
C0 C5 1.479 . S
C0 C10 1.465 . S
C1 C0 1.264 . S
C1 C3 1.339 . S
C1 H28 0.931 . S
C2 C3 1.395 . S
C2 C4 1.320 . S
C3 C1 1.339 . S
C3 C2 1.395 . S
C3 H29 0.929 . S
C4 C2 1.320 . S
C4 C5 1.405 . S
C4 H30 0.930 . S
C5 C0 1.479 . S
C5 C4 1.405 . S
C5 H31 0.931 . S
U6 O7 2.454 . S
U6 O8 2.458 . S
U6 C9 2.984 . S
U6 C10 2.847 . S
U6 C23 2.882 . S
U6 O24 2.441 . S
U6 O25 2.420 . S
U6 O26 2.455 . S
U6 O27 2.449 . S
O7 U6 2.454 . S
O7 C9 1.353 . S
O8 U6 2.458 . S
O8 C9 1.286 . S
C9 U6 2.984 . S
C9 O7 1.353 . S
C9 O8 1.286 . S
C9 C11 1.363 . S
C10 C0 1.465 . S
C10 U6 2.847 . S
C10 O24 1.249 . S
C10 O25 1.202 . S
C11 C9 1.363 . S
C11 C13 1.408 . S
C11 C16 1.342 . S
C12 C13 1.310 . S
C12 C15 1.461 . S
C12 H32 0.932 . S
C13 C11 1.408 . S
C13 C12 1.310 . S
C13 H33 0.930 . S
C14 C15 1.474 . S
C14 C16 1.285 . S
C14 H34 0.929 . S
C15 C12 1.461 . S
C15 C14 1.474 . S
C16 C11 1.342 . S
C16 C14 1.285 . S
C16 H35 0.930 . S
C17 C20 1.424 . S
C17 C22 1.245 . S
C17 C23 1.428 . S
C18 C21 1.260 . S
C18 C22 1.477 . S
C18 H36 0.932 . S
C19 C20 1.384 . S
C19 C21 1.479 . S
C19 H37 0.929 . S
C20 C17 1.424 . S
C20 C19 1.384 . S
C20 H38 0.928 . S
C21 C18 1.260 . S
C21 C19 1.479 . S
C22 C17 1.245 . S
C22 C18 1.477 . S
C22 H39 0.932 . S
C23 U6 2.882 . S
C23 C17 1.428 . S
C23 O26 1.301 . S
C23 O27 1.282 . S
O24 U6 2.441 . S
O24 C10 1.249 . S
O25 U6 2.420 . S
O25 C10 1.202 . S
O26 U6 2.455 . S
O26 C23 1.301 . S
O27 U6 2.449 . S
O27 C23 1.282 . S
H28 C1 0.931 . S
H29 C3 0.929 . S
H30 C4 0.930 . S
H31 C5 0.931 . S
H32 C12 0.932 . S
H33 C13 0.930 . S
H34 C14 0.929 . S
H35 C16 0.930 . S
H36 C18 0.932 . S
H37 C19 0.929 . S
H38 C20 0.928 . S
H39 C22 0.932 . S
C40 C41 1.264 . S
C40 C45 1.479 . S
C40 C50 1.465 . S
C41 C40 1.264 . S
C41 C43 1.339 . S
C41 H68 0.931 . S
C42 C43 1.395 . S
C42 C44 1.320 . S
C43 C41 1.339 . S
C43 C42 1.395 . S
C43 H69 0.929 . S
C44 C42 1.320 . S
C44 C45 1.405 . S
C44 H70 0.930 . S
C45 C40 1.479 . S
C45 C44 1.405 . S
C45 H71 0.931 . S
U46 O47 2.454 . S
U46 O48 2.458 . S
U46 C49 2.984 . S
U46 C50 2.847 . S
U46 C63 2.882 . S
U46 O64 2.441 . S
U46 O65 2.420 . S
U46 O66 2.455 . S
U46 O67 2.449 . S
O47 U46 2.454 . S
O47 C49 1.353 . S
O48 U46 2.458 . S
O48 C49 1.286 . S
C49 U46 2.984 . S
C49 O47 1.353 . S
C49 O48 1.286 . S
C49 C51 1.363 . S
C50 C40 1.465 . S
C50 U46 2.847 . S
C50 O64 1.249 . S
C50 O65 1.202 . S
C51 C49 1.363 . S
C51 C53 1.408 . S
C51 C56 1.342 . S
C52 C53 1.310 . S
C52 C55 1.461 . S
C52 H72 0.932 . S
C53 C51 1.408 . S
C53 C52 1.310 . S
C53 H73 0.930 . S
C54 C55 1.474 . S
C54 C56 1.285 . S
C54 H74 0.929 . S
C55 C52 1.461 . S
C55 C54 1.474 . S
C56 C51 1.342 . S
C56 C54 1.285 . S
C56 H75 0.930 . S
C57 C60 1.424 . S
C57 C62 1.245 . S
C57 C63 1.428 . S
C58 C61 1.260 . S
C58 C62 1.477 . S
C58 H76 0.932 . S
C59 C60 1.384 . S
C59 C61 1.479 . S
C59 H77 0.929 . S
C60 C57 1.424 . S
C60 C59 1.384 . S
C60 H78 0.928 . S
C61 C58 1.260 . S
C61 C59 1.479 . S
C62 C57 1.245 . S
C62 C58 1.477 . S
C62 H79 0.932 . S
C63 U46 2.882 . S
C63 C57 1.428 . S
C63 O66 1.301 . S
C63 O67 1.282 . S
O64 U46 2.441 . S
O64 C50 1.249 . S
O65 U46 2.420 . S
O65 C50 1.202 . S
O66 U46 2.455 . S
O66 C63 1.301 . S
O67 U46 2.449 . S
O67 C63 1.282 . S
H68 C41 0.931 . S
H69 C43 0.929 . S
H70 C44 0.930 . S
H71 C45 0.931 . S
H72 C52 0.932 . S
H73 C53 0.930 . S
H74 C54 0.929 . S
H75 C56 0.930 . S
H76 C58 0.932 . S
H77 C59 0.929 . S
H78 C60 0.928 . S
H79 C62 0.932 . S
C80 C81 1.264 . S
C80 C85 1.479 . S
C80 C90 1.465 . S
C81 C80 1.264 . S
C81 C83 1.339 . S
C81 H108 0.931 . S
C82 C83 1.395 . S
C82 C84 1.320 . S
C83 C81 1.339 . S
C83 C82 1.395 . S
C83 H109 0.929 . S
C84 C82 1.320 . S
C84 C85 1.405 . S
C84 H110 0.930 . S
C85 C80 1.479 . S
C85 C84 1.405 . S
C85 H111 0.931 . S
U86 O87 2.454 . S
U86 O88 2.458 . S
U86 C89 2.984 . S
U86 C90 2.847 . S
U86 C103 2.882 . S
U86 O104 2.441 . S
U86 O105 2.420 . S
U86 O106 2.455 . S
U86 O107 2.449 . S
O87 U86 2.454 . S
O87 C89 1.353 . S
O88 U86 2.458 . S
O88 C89 1.286 . S
C89 U86 2.984 . S
C89 O87 1.353 . S
C89 O88 1.286 . S
C89 C91 1.363 . S
C90 C80 1.465 . S
C90 U86 2.847 . S
C90 O104 1.249 . S
C90 O105 1.202 . S
C91 C89 1.363 . S
C91 C93 1.408 . S
C91 C96 1.342 . S
C92 C93 1.310 . S
C92 C95 1.461 . S
C92 H112 0.932 . S
C93 C91 1.408 . S
C93 C92 1.310 . S
C93 H113 0.930 . S
C94 C95 1.474 . S
C94 C96 1.285 . S
C94 H114 0.929 . S
C95 C92 1.461 . S
C95 C94 1.474 . S
C96 C91 1.342 . S
C96 C94 1.285 . S
C96 H115 0.930 . S
C97 C100 1.424 . S
C97 C102 1.245 . S
C97 C103 1.428 . S
C98 C101 1.260 . S
C98 C102 1.477 . S
C98 H116 0.932 . S
C99 C100 1.384 . S
C99 C101 1.479 . S
C99 H117 0.929 . S
C100 C97 1.424 . S
C100 C99 1.384 . S
C100 H118 0.928 . S
C101 C98 1.260 . S
C101 C99 1.479 . S
C102 C97 1.245 . S
C102 C98 1.477 . S
C102 H119 0.932 . S
C103 U86 2.882 . S
C103 C97 1.428 . S
C103 O106 1.301 . S
C103 O107 1.282 . S
O104 U86 2.441 . S
O104 C90 1.249 . S
O105 U86 2.420 . S
O105 C90 1.202 . S
O106 U86 2.455 . S
O106 C103 1.301 . S
O107 U86 2.449 . S
O107 C103 1.282 . S
H108 C81 0.931 . S
H109 C83 0.929 . S
H110 C84 0.930 . S
H111 C85 0.931 . S
H112 C92 0.932 . S
H113 C93 0.930 . S
H114 C94 0.929 . S
H115 C96 0.930 . S
H116 C98 0.932 . S
H117 C99 0.929 . S
H118 C100 0.928 . S
H119 C102 0.932 . S
C120 C121 1.264 . S
C120 C125 1.479 . S
C120 C130 1.465 . S
C121 C120 1.264 . S
C121 C123 1.339 . S
C121 H148 0.931 . S
C122 C123 1.395 . S
C122 C124 1.320 . S
C123 C121 1.339 . S
C123 C122 1.395 . S
C123 H149 0.929 . S
C124 C122 1.320 . S
C124 C125 1.405 . S
C124 H150 0.930 . S
C125 C120 1.479 . S
C125 C124 1.405 . S
C125 H151 0.931 . S
U126 O127 2.454 . S
U126 O128 2.458 . S
U126 C129 2.984 . S
U126 C130 2.847 . S
U126 C143 2.882 . S
U126 O144 2.441 . S
U126 O145 2.420 . S
U126 O146 2.455 . S
U126 O147 2.449 . S
O127 U126 2.454 . S
O127 C129 1.353 . S
O128 U126 2.458 . S
O128 C129 1.286 . S
C129 U126 2.984 . S
C129 O127 1.353 . S
C129 O128 1.286 . S
C129 C131 1.363 . S
C130 C120 1.465 . S
C130 U126 2.847 . S
C130 O144 1.249 . S
C130 O145 1.202 . S
C131 C129 1.363 . S
C131 C133 1.408 . S
C131 C136 1.342 . S
C132 C133 1.310 . S
C132 C135 1.461 . S
C132 H152 0.932 . S
C133 C131 1.408 . S
C133 C132 1.310 . S
C133 H153 0.930 . S
C134 C135 1.474 . S
C134 C136 1.285 . S
C134 H154 0.929 . S
C135 C132 1.461 . S
C135 C134 1.474 . S
C136 C131 1.342 . S
C136 C134 1.285 . S
C136 H155 0.930 . S
C137 C140 1.424 . S
C137 C142 1.245 . S
C137 C143 1.428 . S
C138 C141 1.260 . S
C138 C142 1.477 . S
C138 H156 0.932 . S
C139 C140 1.384 . S
C139 C141 1.479 . S
C139 H157 0.929 . S
C140 C137 1.424 . S
C140 C139 1.384 . S
C140 H158 0.928 . S
C141 C138 1.260 . S
C141 C139 1.479 . S
C142 C137 1.245 . S
C142 C138 1.477 . S
C142 H159 0.932 . S
C143 U126 2.882 . S
C143 C137 1.428 . S
C143 O146 1.301 . S
C143 O147 1.282 . S
O144 U126 2.441 . S
O144 C130 1.249 . S
O145 U126 2.420 . S
O145 C130 1.202 . S
O146 U126 2.455 . S
O146 C143 1.301 . S
O147 U126 2.449 . S
O147 C143 1.282 . S
H148 C121 0.931 . S
H149 C123 0.929 . S
H150 C124 0.930 . S
H151 C125 0.931 . S
H152 C132 0.932 . S
H153 C133 0.930 . S
H154 C134 0.929 . S
H155 C136 0.930 . S
H156 C138 0.932 . S
H157 C139 0.929 . S
H158 C140 0.928 . S
H159 C142 0.932 . S
C160 C161 1.264 . S
C160 C165 1.479 . S
C160 C170 1.465 . S
C161 C160 1.264 . S
C161 C163 1.339 . S
C161 H188 0.931 . S
C162 C163 1.395 . S
C162 C164 1.320 . S
C163 C161 1.339 . S
C163 C162 1.395 . S
C163 H189 0.929 . S
C164 C162 1.320 . S
C164 C165 1.405 . S
C164 H190 0.930 . S
C165 C160 1.479 . S
C165 C164 1.405 . S
C165 H191 0.931 . S
U166 O167 2.454 . S
U166 O168 2.458 . S
U166 C169 2.984 . S
U166 C170 2.847 . S
U166 C183 2.882 . S
U166 O184 2.441 . S
U166 O185 2.420 . S
U166 O186 2.455 . S
U166 O187 2.449 . S
O167 U166 2.454 . S
O167 C169 1.353 . S
O168 U166 2.458 . S
O168 C169 1.286 . S
C169 U166 2.984 . S
C169 O167 1.353 . S
C169 O168 1.286 . S
C169 C171 1.363 . S
C170 C160 1.465 . S
C170 U166 2.847 . S
C170 O184 1.249 . S
C170 O185 1.202 . S
C171 C169 1.363 . S
C171 C173 1.408 . S
C171 C176 1.342 . S
C172 C173 1.310 . S
C172 C175 1.461 . S
C172 H192 0.932 . S
C173 C171 1.408 . S
C173 C172 1.310 . S
C173 H193 0.930 . S
C174 C175 1.474 . S
C174 C176 1.285 . S
C174 H194 0.929 . S
C175 C172 1.461 . S
C175 C174 1.474 . S
C176 C171 1.342 . S
C176 C174 1.285 . S
C176 H195 0.930 . S
C177 C180 1.424 . S
C177 C182 1.245 . S
C177 C183 1.428 . S
C178 C181 1.260 . S
C178 C182 1.477 . S
C178 H196 0.932 . S
C179 C180 1.384 . S
C179 C181 1.479 . S
C179 H197 0.929 . S
C180 C177 1.424 . S
C180 C179 1.384 . S
C180 H198 0.928 . S
C181 C178 1.260 . S
C181 C179 1.479 . S
C182 C177 1.245 . S
C182 C178 1.477 . S
C182 H199 0.932 . S
C183 U166 2.882 . S
C183 C177 1.428 . S
C183 O186 1.301 . S
C183 O187 1.282 . S
O184 U166 2.441 . S
O184 C170 1.249 . S
O185 U166 2.420 . S
O185 C170 1.202 . S
O186 U166 2.455 . S
O186 C183 1.301 . S
O187 U166 2.449 . S
O187 C183 1.282 . S
H188 C161 0.931 . S
H189 C163 0.929 . S
H190 C164 0.930 . S
H191 C165 0.931 . S
H192 C172 0.932 . S
H193 C173 0.930 . S
H194 C174 0.929 . S
H195 C176 0.930 . S
H196 C178 0.932 . S
H197 C179 0.929 . S
H198 C180 0.928 . S
H199 C182 0.932 . S
C200 C201 1.264 . S
C200 C205 1.479 . S
C200 C210 1.465 . S
C201 C200 1.264 . S
C201 C203 1.339 . S
C201 H228 0.931 . S
C202 C203 1.395 . S
C202 C204 1.320 . S
C203 C201 1.339 . S
C203 C202 1.395 . S
C203 H229 0.929 . S
C204 C202 1.320 . S
C204 C205 1.405 . S
C204 H230 0.930 . S
C205 C200 1.479 . S
C205 C204 1.405 . S
C205 H231 0.931 . S
U206 O207 2.454 . S
U206 O208 2.458 . S
U206 C209 2.984 . S
U206 C210 2.847 . S
U206 C223 2.882 . S
U206 O224 2.441 . S
U206 O225 2.420 . S
U206 O226 2.455 . S
U206 O227 2.449 . S
O207 U206 2.454 . S
O207 C209 1.353 . S
O208 U206 2.458 . S
O208 C209 1.286 . S
C209 U206 2.984 . S
C209 O207 1.353 . S
C209 O208 1.286 . S
C209 C211 1.363 . S
C210 C200 1.465 . S
C210 U206 2.847 . S
C210 O224 1.249 . S
C210 O225 1.202 . S
C211 C209 1.363 . S
C211 C213 1.408 . S
C211 C216 1.342 . S
C212 C213 1.310 . S
C212 C215 1.461 . S
C212 H232 0.932 . S
C213 C211 1.408 . S
C213 C212 1.310 . S
C213 H233 0.930 . S
C214 C215 1.474 . S
C214 C216 1.285 . S
C214 H234 0.929 . S
C215 C212 1.461 . S
C215 C214 1.474 . S
C216 C211 1.342 . S
C216 C214 1.285 . S
C216 H235 0.930 . S
C217 C220 1.424 . S
C217 C222 1.245 . S
C217 C223 1.428 . S
C218 C221 1.260 . S
C218 C222 1.477 . S
C218 H236 0.932 . S
C219 C220 1.384 . S
C219 C221 1.479 . S
C219 H237 0.929 . S
C220 C217 1.424 . S
C220 C219 1.384 . S
C220 H238 0.928 . S
C221 C218 1.260 . S
C221 C219 1.479 . S
C222 C217 1.245 . S
C222 C218 1.477 . S
C222 H239 0.932 . S
C223 U206 2.882 . S
C223 C217 1.428 . S
C223 O226 1.301 . S
C223 O227 1.282 . S
O224 U206 2.441 . S
O224 C210 1.249 . S
O225 U206 2.420 . S
O225 C210 1.202 . S
O226 U206 2.455 . S
O226 C223 1.301 . S
O227 U206 2.449 . S
O227 C223 1.282 . S
H228 C201 0.931 . S
H229 C203 0.929 . S
H230 C204 0.930 . S
H231 C205 0.931 . S
H232 C212 0.932 . S
H233 C213 0.930 . S
H234 C214 0.929 . S
H235 C216 0.930 . S
H236 C218 0.932 . S
H237 C219 0.929 . S
H238 C220 0.928 . S
H239 C222 0.932 . S
C240 C241 1.264 . S
C240 C245 1.479 . S
C240 C250 1.465 . S
C241 C240 1.264 . S
C241 C243 1.339 . S
C241 H268 0.931 . S
C242 C243 1.395 . S
C242 C244 1.320 . S
C243 C241 1.339 . S
C243 C242 1.395 . S
C243 H269 0.929 . S
C244 C242 1.320 . S
C244 C245 1.405 . S
C244 H270 0.930 . S
C245 C240 1.479 . S
C245 C244 1.405 . S
C245 H271 0.931 . S
U246 O247 2.454 . S
U246 O248 2.458 . S
U246 C249 2.984 . S
U246 C250 2.847 . S
U246 C263 2.882 . S
U246 O264 2.441 . S
U246 O265 2.420 . S
U246 O266 2.455 . S
U246 O267 2.449 . S
O247 U246 2.454 . S
O247 C249 1.353 . S
O248 U246 2.458 . S
O248 C249 1.286 . S
C249 U246 2.984 . S
C249 O247 1.353 . S
C249 O248 1.286 . S
C249 C251 1.363 . S
C250 C240 1.465 . S
C250 U246 2.847 . S
C250 O264 1.249 . S
C250 O265 1.202 . S
C251 C249 1.363 . S
C251 C253 1.408 . S
C251 C256 1.342 . S
C252 C253 1.310 . S
C252 C255 1.461 . S
C252 H272 0.932 . S
C253 C251 1.408 . S
C253 C252 1.310 . S
C253 H273 0.930 . S
C254 C255 1.474 . S
C254 C256 1.285 . S
C254 H274 0.929 . S
C255 C252 1.461 . S
C255 C254 1.474 . S
C256 C251 1.342 . S
C256 C254 1.285 . S
C256 H275 0.930 . S
C257 C260 1.424 . S
C257 C262 1.245 . S
C257 C263 1.428 . S
C258 C261 1.260 . S
C258 C262 1.477 . S
C258 H276 0.932 . S
C259 C260 1.384 . S
C259 C261 1.479 . S
C259 H277 0.929 . S
C260 C257 1.424 . S
C260 C259 1.384 . S
C260 H278 0.928 . S
C261 C258 1.260 . S
C261 C259 1.479 . S
C262 C257 1.245 . S
C262 C258 1.477 . S
C262 H279 0.932 . S
C263 U246 2.882 . S
C263 C257 1.428 . S
C263 O266 1.301 . S
C263 O267 1.282 . S
O264 U246 2.441 . S
O264 C250 1.249 . S
O265 U246 2.420 . S
O265 C250 1.202 . S
O266 U246 2.455 . S
O266 C263 1.301 . S
O267 U246 2.449 . S
O267 C263 1.282 . S
H268 C241 0.931 . S
H269 C243 0.929 . S
H270 C244 0.930 . S
H271 C245 0.931 . S
H272 C252 0.932 . S
H273 C253 0.930 . S
H274 C254 0.929 . S
H275 C256 0.930 . S
H276 C258 0.932 . S
H277 C259 0.929 . S
H278 C260 0.928 . S
H279 C262 0.932 . S
C280 C281 1.264 . S
C280 C285 1.479 . S
C280 C290 1.465 . S
C281 C280 1.264 . S
C281 C283 1.339 . S
C281 H308 0.931 . S
C282 C283 1.395 . S
C282 C284 1.320 . S
C283 C281 1.339 . S
C283 C282 1.395 . S
C283 H309 0.929 . S
C284 C282 1.320 . S
C284 C285 1.405 . S
C284 H310 0.930 . S
C285 C280 1.479 . S
C285 C284 1.405 . S
C285 H311 0.931 . S
U286 O287 2.454 . S
U286 O288 2.458 . S
U286 C289 2.984 . S
U286 C290 2.847 . S
U286 C303 2.882 . S
U286 O304 2.441 . S
U286 O305 2.420 . S
U286 O306 2.455 . S
U286 O307 2.449 . S
O287 U286 2.454 . S
O287 C289 1.353 . S
O288 U286 2.458 . S
O288 C289 1.286 . S
C289 U286 2.984 . S
C289 O287 1.353 . S
C289 O288 1.286 . S
C289 C291 1.363 . S
C290 C280 1.465 . S
C290 U286 2.847 . S
C290 O304 1.249 . S
C290 O305 1.202 . S
C291 C289 1.363 . S
C291 C293 1.408 . S
C291 C296 1.342 . S
C292 C293 1.310 . S
C292 C295 1.461 . S
C292 H312 0.932 . S
C293 C291 1.408 . S
C293 C292 1.310 . S
C293 H313 0.930 . S
C294 C295 1.474 . S
C294 C296 1.285 . S
C294 H314 0.929 . S
C295 C292 1.461 . S
C295 C294 1.474 . S
C296 C291 1.342 . S
C296 C294 1.285 . S
C296 H315 0.930 . S
C297 C300 1.424 . S
C297 C302 1.245 . S
C297 C303 1.428 . S
C298 C301 1.260 . S
C298 C302 1.477 . S
C298 H316 0.932 . S
C299 C300 1.384 . S
C299 C301 1.479 . S
C299 H317 0.929 . S
C300 C297 1.424 . S
C300 C299 1.384 . S
C300 H318 0.928 . S
C301 C298 1.260 . S
C301 C299 1.479 . S
C302 C297 1.245 . S
C302 C298 1.477 . S
C302 H319 0.932 . S
C303 U286 2.882 . S
C303 C297 1.428 . S
C303 O306 1.301 . S
C303 O307 1.282 . S
O304 U286 2.441 . S
O304 C290 1.249 . S
O305 U286 2.420 . S
O305 C290 1.202 . S
O306 U286 2.455 . S
O306 C303 1.301 . S
O307 U286 2.449 . S
O307 C303 1.282 . S
H308 C281 0.931 . S
H309 C283 0.929 . S
H310 C284 0.930 . S
H311 C285 0.931 . S
H312 C292 0.932 . S
H313 C293 0.930 . S
H314 C294 0.929 . S
H315 C296 0.930 . S
H316 C298 0.932 . S
H317 C299 0.929 . S
H318 C300 0.928 . S
H319 C302 0.932 . S
C320 C321 1.560 . S
C320 H381 0.959 . S
C320 H382 0.959 . S
C320 H383 0.960 . S
C321 C320 1.560 . S
C321 O376 1.426 . S
C321 H380 0.980 . S
C322 C323 1.407 . S
C322 C327 1.418 . S
C322 O376 1.334 . S
C323 C322 1.407 . S
C323 C324 1.360 . S
C323 H384 0.929 . S
C324 C323 1.360 . S
C324 C325 1.401 . S
C324 C328 1.527 . S
C325 C324 1.401 . S
C325 C326 1.405 . S
C325 C358 1.587 . S
C326 C325 1.405 . S
C326 C327 1.332 . S
C326 C329 1.496 . S
C327 C322 1.418 . S
C327 C326 1.332 . S
C327 H385 0.929 . S
C328 C324 1.527 . S
C328 H386 0.959 . S
C328 H387 0.961 . S
C328 H388 0.961 . S
C329 C326 1.496 . S
C329 H389 0.960 . S
C329 H390 0.960 1_655 S
C329 H391 0.961 . S
C330 C331 1.517 . S
C330 H393 0.961 . S
C330 H394 0.960 . S
C330 H395 0.959 . S
C331 C330 1.517 . S
C331 O379 1.468 . S
C331 H392 0.980 . S
C332 C333 1.349 . S
C332 C337 1.367 . S
C332 O379 1.408 . S
C333 C332 1.349 . S
C333 C334 1.407 . S
C333 H396 0.930 . S
C334 C333 1.407 . S
C334 C335 1.449 . S
C334 C338 1.535 . S
C335 C334 1.449 . S
C335 C336 1.384 . S
C335 C360 1.553 . S
C336 C335 1.384 . S
C336 C337 1.364 . S
C336 C339 1.450 . S
C337 C332 1.367 . S
C337 C336 1.364 . S
C337 H397 0.931 . S
C338 C334 1.535 . S
C338 H398 0.959 . S
C338 H399 0.961 . S
C338 H400 0.959 . S
C339 C336 1.450 . S
C339 H401 0.960 . S
C339 H402 0.960 . S
C339 H403 0.960 . S
C340 C341 1.309 . S
C340 C345 1.304 . S
C340 O378 1.435 . S
C341 C340 1.309 . S
C341 C342 1.476 . S
C341 H405 0.930 . S
C342 C341 1.476 . S
C342 C343 1.400 . S
C342 C346 1.567 . S
C343 C342 1.400 . S
C343 C344 1.373 . S
C343 C365 1.432 . S
C344 C343 1.373 . S
C344 C345 1.339 . S
C344 C347 1.530 . S
C345 C340 1.304 . S
C345 C344 1.339 . S
C345 H406 0.930 . S
C346 C342 1.567 . S
C346 H407 0.961 . S
C346 H408 0.960 . S
C346 H409 0.958 . S
C347 C344 1.530 . S
C347 H410 0.961 . S
C347 H411 0.960 . S
C347 H412 0.960 . S
C348 C349 1.530 . S
C348 H414 0.961 . S
C348 H415 0.961 . S
C348 H416 0.959 . S
C349 C348 1.530 . S
C349 O377 1.412 . S
C349 H413 0.980 . S
C350 C351 1.288 . S
C350 C355 1.377 . S
C350 O377 1.393 . S
C351 C350 1.288 . S
C351 C352 1.369 . S
C351 H417 0.932 . S
C352 C351 1.369 . S
C352 C353 1.398 . S
C352 C356 1.527 . S
C353 C352 1.398 . S
C353 C354 1.380 . S
C353 C367 1.497 . S
C354 C353 1.380 . S
C354 C355 1.383 . S
C354 C357 1.603 . S
C355 C350 1.377 . S
C355 C354 1.383 . S
C355 H418 0.929 . S
C356 C352 1.527 . S
C356 H419 0.961 . S
C356 H420 0.997 . S
C356 H421 0.959 . S
C357 C354 1.603 . S
C357 H422 0.960 . S
C357 H423 0.962 . S
C357 H424 0.961 . S
C358 C325 1.587 . S
C358 C359 1.360 1_655 S
C358 C371 1.412 . S
C359 C358 1.360 1_455 S
C359 C360 1.365 . S
C359 H425 0.929 . S
C360 C335 1.553 . S
C360 C359 1.365 . S
C360 C361 1.404 . S
C361 C360 1.404 . S
C361 C362 1.395 . S
C361 C372 1.451 . S
C362 C361 1.395 . S
C362 C363 1.322 . S
C362 H426 0.930 . S
C363 C362 1.322 . S
C363 C364 1.459 . S
C363 H427 0.929 . S
C364 C363 1.459 . S
C364 C365 1.445 . S
C364 C373 1.395 . S
C365 C343 1.432 . S
C365 C364 1.445 . S
C365 C366 1.370 . S
C366 C365 1.370 . S
C366 C367 1.438 1_455 S
C366 H428 0.930 . S
C367 C353 1.497 . S
C367 C366 1.438 1_655 S
C367 C368 1.360 . S
C368 C367 1.360 . S
C368 C369 1.401 . S
C368 C373 1.446 1_655 S
C369 C368 1.401 . S
C369 C370 1.347 . S
C369 H429 0.929 . S
C370 C369 1.347 . S
C370 C371 1.455 . S
C370 H430 0.930 . S
C371 C358 1.412 . S
C371 C370 1.455 . S
C371 C372 1.331 1_655 S
C372 C361 1.451 . S
C372 C371 1.331 1_455 S
C372 C373 1.497 . S
C373 C364 1.395 . S
C373 C368 1.446 1_455 S
C373 C372 1.497 . S
C374 C375 1.582 . S
C374 H431 0.962 . S
C374 H432 0.959 . S
C374 H433 0.958 . S
C375 C374 1.582 . S
C375 O378 1.458 . S
C375 H404 0.980 . S
O376 C321 1.426 . S
O376 C322 1.334 . S
O377 C349 1.412 . S
O377 C350 1.393 . S
O378 C340 1.435 . S
O378 C375 1.458 . S
O379 C331 1.468 . S
O379 C332 1.408 . S
H380 C321 0.980 . S
H381 C320 0.959 . S
H382 C320 0.959 . S
H383 C320 0.960 . S
H384 C323 0.929 . S
H385 C327 0.929 . S
H386 C328 0.959 . S
H387 C328 0.961 . S
H388 C328 0.961 . S
H389 C329 0.960 . S
H390 C329 0.960 1_455 S
H391 C329 0.961 . S
H392 C331 0.980 . S
H393 C330 0.961 . S
H394 C330 0.960 . S
H395 C330 0.959 . S
H396 C333 0.930 . S
H397 C337 0.931 . S
H398 C338 0.959 . S
H399 C338 0.961 . S
H400 C338 0.959 . S
H401 C339 0.960 . S
H402 C339 0.960 . S
H403 C339 0.960 . S
H404 C375 0.980 . S
H405 C341 0.930 . S
H406 C345 0.930 . S
H407 C346 0.961 . S
H408 C346 0.960 . S
H409 C346 0.958 . S
H410 C347 0.961 . S
H411 C347 0.960 . S
H412 C347 0.960 . S
H413 C349 0.980 . S
H414 C348 0.961 . S
H415 C348 0.961 . S
H416 C348 0.959 . S
H417 C351 0.932 . S
H418 C355 0.929 . S
H419 C356 0.961 . S
H420 C356 0.997 . S
H421 C356 0.959 . S
H422 C357 0.960 . S
H423 C357 0.962 . S
H424 C357 0.961 . S
H425 C359 0.929 . S
H426 C362 0.930 . S
H427 C363 0.929 . S
H428 C366 0.930 . S
H429 C369 0.929 . S
H430 C370 0.930 . S
H431 C374 0.962 . S
H432 C374 0.959 . S
H433 C374 0.958 . S
C434 C435 1.560 . S
C434 H495 0.959 . S
C434 H496 0.959 . S
C434 H497 0.960 . S
C435 C434 1.560 . S
C435 O490 1.426 . S
C435 H494 0.980 . S
C436 C437 1.407 . S
C436 C441 1.418 . S
C436 O490 1.334 . S
C437 C436 1.407 . S
C437 C438 1.360 . S
C437 H498 0.929 . S
C438 C437 1.360 . S
C438 C439 1.401 . S
C438 C442 1.527 . S
C439 C438 1.401 . S
C439 C440 1.405 . S
C439 C472 1.587 . S
C440 C439 1.405 . S
C440 C441 1.332 . S
C440 C443 1.496 . S
C441 C436 1.418 . S
C441 C440 1.332 . S
C441 H499 0.929 . S
C442 C438 1.527 . S
C442 H500 0.959 . S
C442 H501 0.961 . S
C442 H502 0.961 . S
C443 C440 1.496 . S
C443 H503 0.960 . S
C443 H504 0.960 . S
C443 H505 0.961 . S
C444 C445 1.517 . S
C444 H507 0.961 . S
C444 H508 0.960 . S
C444 H509 0.959 . S
C445 C444 1.517 . S
C445 O493 1.468 . S
C445 H506 0.980 . S
C446 C447 1.349 . S
C446 C451 1.367 . S
C446 O493 1.408 . S
C447 C446 1.349 . S
C447 C448 1.407 . S
C447 H510 0.930 . S
C448 C447 1.407 . S
C448 C449 1.449 . S
C448 C452 1.535 . S
C449 C448 1.449 . S
C449 C450 1.384 . S
C449 C474 1.553 . S
C450 C449 1.384 . S
C450 C451 1.364 . S
C450 C453 1.450 . S
C451 C446 1.367 . S
C451 C450 1.364 . S
C451 H511 0.931 . S
C452 C448 1.535 . S
C452 H512 0.959 . S
C452 H513 0.961 . S
C452 H514 0.959 . S
C453 C450 1.450 . S
C453 H515 0.960 . S
C453 H516 0.960 . S
C453 H517 0.960 . S
C454 C455 1.309 . S
C454 C459 1.304 . S
C454 O492 1.435 . S
C455 C454 1.309 . S
C455 C456 1.476 . S
C455 H519 0.930 . S
C456 C455 1.476 . S
C456 C457 1.400 . S
C456 C460 1.567 . S
C457 C456 1.400 . S
C457 C458 1.373 . S
C457 C479 1.432 . S
C458 C457 1.373 . S
C458 C459 1.339 . S
C458 C461 1.530 . S
C459 C454 1.304 . S
C459 C458 1.339 . S
C459 H520 0.930 . S
C460 C456 1.567 . S
C460 H521 0.961 . S
C460 H522 0.960 . S
C460 H523 0.958 . S
C461 C458 1.530 . S
C461 H524 0.961 . S
C461 H525 0.960 . S
C461 H526 0.960 . S
C462 C463 1.530 . S
C462 H528 0.961 . S
C462 H529 0.961 . S
C462 H530 0.959 . S
C463 C462 1.530 . S
C463 O491 1.412 . S
C463 H527 0.980 . S
C464 C465 1.288 . S
C464 C469 1.377 . S
C464 O491 1.393 . S
C465 C464 1.288 . S
C465 C466 1.369 . S
C465 H531 0.932 . S
C466 C465 1.369 . S
C466 C467 1.398 . S
C466 C470 1.527 . S
C467 C466 1.398 . S
C467 C468 1.380 . S
C467 C481 1.497 . S
C468 C467 1.380 . S
C468 C469 1.383 . S
C468 C471 1.603 . S
C469 C464 1.377 . S
C469 C468 1.383 . S
C469 H532 0.929 . S
C470 C466 1.527 . S
C470 H533 0.961 . S
C470 H534 0.959 . S
C470 H535 0.959 . S
C471 C468 1.603 . S
C471 H536 0.960 . S
C471 H537 0.962 . S
C471 H538 0.961 . S
C472 C439 1.587 . S
C472 C473 1.360 . S
C472 C485 1.412 . S
C473 C472 1.360 . S
C473 C474 1.365 1_455 S
C473 H539 0.929 . S
C474 C449 1.553 . S
C474 C473 1.365 1_655 S
C474 C475 1.404 . S
C475 C474 1.404 . S
C475 C476 1.395 . S
C475 C486 1.451 1_655 S
C476 C475 1.395 . S
C476 C477 1.322 . S
C476 H540 0.930 . S
C477 C476 1.322 . S
C477 C478 1.459 . S
C477 H541 0.929 . S
C478 C477 1.459 . S
C478 C479 1.445 . S
C478 C487 1.395 1_655 S
C479 C457 1.432 . S
C479 C478 1.445 . S
C479 C480 1.370 1_655 S
C480 C479 1.370 1_455 S
C480 C481 1.438 . S
C480 H542 0.930 . S
C481 C467 1.497 . S
C481 C480 1.438 . S
C481 C482 1.360 . S
C482 C481 1.360 . S
C482 C483 1.401 . S
C482 C487 1.446 . S
C483 C482 1.401 . S
C483 C484 1.347 . S
C483 H543 0.929 . S
C484 C483 1.347 . S
C484 C485 1.455 . S
C484 H544 0.930 . S
C485 C472 1.412 . S
C485 C484 1.455 . S
C485 C486 1.331 . S
C486 C475 1.451 1_455 S
C486 C485 1.331 . S
C486 C487 1.497 . S
C487 C478 1.395 1_455 S
C487 C482 1.446 . S
C487 C486 1.497 . S
C488 C489 1.582 . S
C488 H545 0.962 . S
C488 H546 0.959 . S
C488 H547 0.958 . S
C489 C488 1.582 . S
C489 O492 1.458 . S
C489 H518 0.980 . S
O490 C435 1.426 . S
O490 C436 1.334 . S
O491 C463 1.412 . S
O491 C464 1.393 . S
O492 C454 1.435 . S
O492 C489 1.458 . S
O493 C445 1.468 . S
O493 C446 1.408 . S
H494 C435 0.980 . S
H495 C434 0.959 . S
H496 C434 0.959 . S
H497 C434 0.960 . S
H498 C437 0.929 . S
H499 C441 0.929 . S
H500 C442 0.959 . S
H501 C442 0.961 . S
H502 C442 0.961 . S
H503 C443 0.960 . S
H504 C443 0.960 . S
H505 C443 0.961 . S
H506 C445 0.980 . S
H507 C444 0.961 . S
H508 C444 0.960 . S
H509 C444 0.959 . S
H510 C447 0.930 . S
H511 C451 0.931 . S
H512 C452 0.959 . S
H513 C452 0.961 . S
H514 C452 0.959 . S
H515 C453 0.960 . S
H516 C453 0.960 . S
H517 C453 0.960 . S
H518 C489 0.980 . S
H519 C455 0.930 . S
H520 C459 0.930 . S
H521 C460 0.961 . S
H522 C460 0.960 . S
H523 C460 0.958 . S
H524 C461 0.961 . S
H525 C461 0.960 . S
H526 C461 0.960 . S
H527 C463 0.980 . S
H528 C462 0.961 . S
H529 C462 0.961 . S
H530 C462 0.959 . S
H531 C465 0.932 . S
H532 C469 0.929 . S
H533 C470 0.961 . S
H534 C470 0.959 . S
H535 C470 0.959 . S
H536 C471 0.960 . S
H537 C471 0.962 . S
H538 C471 0.961 . S
H539 C473 0.929 . S
H540 C476 0.930 . S
H541 C477 0.929 . S
H542 C480 0.930 . S
H543 C483 0.929 . S
H544 C484 0.930 . S
H545 C488 0.962 . S
H546 C488 0.959 . S
H547 C488 0.958 . S
C548 C549 1.560 . S
C548 H609 0.959 . S
C548 H610 0.959 . S
C548 H611 0.960 . S
C549 C548 1.560 . S
C549 O604 1.426 . S
C549 H608 0.980 . S
C550 C551 1.407 . S
C550 C555 1.418 . S
C550 O604 1.334 . S
C551 C550 1.407 . S
C551 C552 1.360 . S
C551 H612 0.929 . S
C552 C551 1.360 . S
C552 C553 1.401 . S
C552 C556 1.527 . S
C553 C552 1.401 . S
C553 C554 1.405 . S
C553 C586 1.587 . S
C554 C553 1.405 . S
C554 C555 1.332 . S
C554 C557 1.496 . S
C555 C550 1.418 . S
C555 C554 1.332 . S
C555 H613 0.929 . S
C556 C552 1.527 . S
C556 H614 0.959 . S
C556 H615 0.961 . S
C556 H616 0.961 . S
C557 C554 1.496 . S
C557 H617 0.960 . S
C557 H618 0.960 . S
C557 H619 0.961 . S
C558 C559 1.517 . S
C558 H621 0.961 . S
C558 H622 0.960 . S
C558 H623 0.959 . S
C559 C558 1.517 . S
C559 O607 1.468 . S
C559 H620 0.980 . S
C560 C561 1.349 . S
C560 C565 1.367 . S
C560 O607 1.408 . S
C561 C560 1.349 . S
C561 C562 1.407 . S
C561 H624 0.930 . S
C562 C561 1.407 . S
C562 C563 1.449 . S
C562 C566 1.535 . S
C563 C562 1.449 . S
C563 C564 1.384 . S
C563 C588 1.553 . S
C564 C563 1.384 . S
C564 C565 1.364 . S
C564 C567 1.450 . S
C565 C560 1.367 . S
C565 C564 1.364 . S
C565 H625 0.931 . S
C566 C562 1.535 . S
C566 H626 0.959 . S
C566 H627 0.961 . S
C566 H628 0.959 . S
C567 C564 1.450 . S
C567 H629 0.960 . S
C567 H630 0.960 . S
C567 H631 0.960 . S
C568 C569 1.309 . S
C568 C573 1.304 . S
C568 O606 1.435 . S
C569 C568 1.309 . S
C569 C570 1.476 . S
C569 H633 0.930 . S
C570 C569 1.476 . S
C570 C571 1.400 . S
C570 C574 1.567 . S
C571 C570 1.400 . S
C571 C572 1.373 . S
C571 C593 1.432 . S
C572 C571 1.373 . S
C572 C573 1.339 . S
C572 C575 1.530 . S
C573 C568 1.304 . S
C573 C572 1.339 . S
C573 H634 0.930 . S
C574 C570 1.567 . S
C574 H635 0.961 . S
C574 H636 0.960 . S
C574 H637 0.958 . S
C575 C572 1.530 . S
C575 H638 0.961 . S
C575 H639 0.960 . S
C575 H640 0.960 . S
C576 C577 1.530 . S
C576 H642 0.961 . S
C576 H643 0.961 . S
C576 H644 0.959 . S
C577 C576 1.530 . S
C577 O605 1.412 . S
C577 H641 0.980 . S
C578 C579 1.288 . S
C578 C583 1.377 . S
C578 O605 1.393 . S
C579 C578 1.288 . S
C579 C580 1.369 . S
C579 H645 0.932 . S
C580 C579 1.369 . S
C580 C581 1.398 . S
C580 C584 1.527 . S
C581 C580 1.398 . S
C581 C582 1.380 . S
C581 C595 1.497 . S
C582 C581 1.380 . S
C582 C583 1.383 . S
C582 C585 1.603 . S
C583 C578 1.377 . S
C583 C582 1.383 . S
C583 H646 0.929 . S
C584 C580 1.527 . S
C584 H647 0.961 . S
C584 H648 0.959 . S
C584 H649 0.959 . S
C585 C582 1.603 . S
C585 H650 0.960 . S
C585 H651 0.962 . S
C585 H652 0.961 . S
C586 C553 1.587 . S
C586 C587 1.360 . S
C586 C599 1.412 . S
C587 C586 1.360 . S
C587 C588 1.365 1_545 S
C587 H653 0.929 . S
C588 C563 1.553 . S
C588 C587 1.365 1_565 S
C588 C589 1.404 . S
C589 C588 1.404 . S
C589 C590 1.395 . S
C589 C600 1.451 1_565 S
C590 C589 1.395 . S
C590 C591 1.322 . S
C590 H654 0.930 . S
C591 C590 1.322 . S
C591 C592 1.459 . S
C591 H655 0.929 . S
C592 C591 1.459 . S
C592 C593 1.445 . S
C592 C601 1.395 1_565 S
C593 C571 1.432 . S
C593 C592 1.445 . S
C593 C594 1.370 1_565 S
C594 C593 1.370 1_545 S
C594 C595 1.438 . S
C594 H656 0.930 . S
C595 C581 1.497 . S
C595 C594 1.438 . S
C595 C596 1.360 . S
C596 C595 1.360 . S
C596 C597 1.401 . S
C596 C601 1.446 . S
C597 C596 1.401 . S
C597 C598 1.347 . S
C597 H657 0.929 . S
C598 C597 1.347 . S
C598 C599 1.455 . S
C598 H658 0.930 . S
C599 C586 1.412 . S
C599 C598 1.455 . S
C599 C600 1.331 . S
C600 C589 1.451 1_545 S
C600 C599 1.331 . S
C600 C601 1.497 . S
C601 C592 1.395 1_545 S
C601 C596 1.446 . S
C601 C600 1.497 . S
C602 C603 1.582 . S
C602 H659 0.962 . S
C602 H660 0.959 . S
C602 H661 0.958 . S
C603 C602 1.582 . S
C603 O606 1.458 . S
C603 H632 0.980 . S
O604 C549 1.426 . S
O604 C550 1.334 . S
O605 C577 1.412 . S
O605 C578 1.393 . S
O606 C568 1.435 . S
O606 C603 1.458 . S
O607 C559 1.468 . S
O607 C560 1.408 . S
H608 C549 0.980 . S
H609 C548 0.959 . S
H610 C548 0.959 . S
H611 C548 0.960 . S
H612 C551 0.929 . S
H613 C555 0.929 . S
H614 C556 0.959 . S
H615 C556 0.961 . S
H616 C556 0.961 . S
H617 C557 0.960 . S
H618 C557 0.960 . S
H619 C557 0.961 . S
H620 C559 0.980 . S
H621 C558 0.961 . S
H622 C558 0.960 . S
H623 C558 0.959 . S
H624 C561 0.930 . S
H625 C565 0.931 . S
H626 C566 0.959 . S
H627 C566 0.961 . S
H628 C566 0.959 . S
H629 C567 0.960 . S
H630 C567 0.960 . S
H631 C567 0.960 . S
H632 C603 0.980 . S
H633 C569 0.930 . S
H634 C573 0.930 . S
H635 C574 0.961 . S
H636 C574 0.960 . S
H637 C574 0.958 . S
H638 C575 0.961 . S
H639 C575 0.960 . S
H640 C575 0.960 . S
H641 C577 0.980 . S
H642 C576 0.961 . S
H643 C576 0.961 . S
H644 C576 0.959 . S
H645 C579 0.932 . S
H646 C583 0.929 . S
H647 C584 0.961 . S
H648 C584 0.959 . S
H649 C584 0.959 . S
H650 C585 0.960 . S
H651 C585 0.962 . S
H652 C585 0.961 . S
H653 C587 0.929 . S
H654 C590 0.930 . S
H655 C591 0.929 . S
H656 C594 0.930 . S
H657 C597 0.929 . S
H658 C598 0.930 . S
H659 C602 0.962 . S
H660 C602 0.959 . S
H661 C602 0.958 . S
C662 C663 1.560 . S
C662 H723 0.959 . S
C662 H724 0.959 . S
C662 H725 0.960 . S
C663 C662 1.560 . S
C663 O718 1.426 . S
C663 H722 0.980 . S
C664 C665 1.407 . S
C664 C669 1.418 . S
C664 O718 1.334 . S
C665 C664 1.407 . S
C665 C666 1.360 . S
C665 H726 0.929 . S
C666 C665 1.360 . S
C666 C667 1.401 . S
C666 C670 1.527 . S
C667 C666 1.401 . S
C667 C668 1.405 . S
C667 C700 1.587 . S
C668 C667 1.405 . S
C668 C669 1.332 . S
C668 C671 1.496 . S
C669 C664 1.418 . S
C669 C668 1.332 . S
C669 H727 0.929 . S
C670 C666 1.527 . S
C670 H728 0.959 . S
C670 H729 0.961 . S
C670 H730 0.961 . S
C671 C668 1.496 . S
C671 H731 0.960 . S
C671 H732 0.960 . S
C671 H733 0.961 . S
C672 C673 1.517 . S
C672 H735 0.961 . S
C672 H736 0.960 . S
C672 H737 0.959 . S
C673 C672 1.517 . S
C673 O721 1.468 . S
C673 H734 0.980 . S
C674 C675 1.349 . S
C674 C679 1.367 . S
C674 O721 1.408 . S
C675 C674 1.349 . S
C675 C676 1.407 . S
C675 H738 0.930 . S
C676 C675 1.407 . S
C676 C677 1.449 . S
C676 C680 1.535 . S
C677 C676 1.449 . S
C677 C678 1.384 . S
C677 C702 1.553 . S
C678 C677 1.384 . S
C678 C679 1.364 . S
C678 C681 1.450 . S
C679 C674 1.367 . S
C679 C678 1.364 . S
C679 H739 0.931 . S
C680 C676 1.535 . S
C680 H740 0.959 . S
C680 H741 0.961 . S
C680 H742 0.959 . S
C681 C678 1.450 . S
C681 H743 0.960 . S
C681 H744 0.960 . S
C681 H745 0.960 . S
C682 C683 1.309 . S
C682 C687 1.304 . S
C682 O720 1.435 . S
C683 C682 1.309 . S
C683 C684 1.476 . S
C683 H747 0.930 . S
C684 C683 1.476 . S
C684 C685 1.400 . S
C684 C688 1.567 . S
C685 C684 1.400 . S
C685 C686 1.373 . S
C685 C707 1.432 . S
C686 C685 1.373 . S
C686 C687 1.339 . S
C686 C689 1.530 . S
C687 C682 1.304 . S
C687 C686 1.339 . S
C687 H748 0.930 . S
C688 C684 1.567 . S
C688 H749 0.961 . S
C688 H750 0.960 . S
C688 H751 0.958 . S
C689 C686 1.530 . S
C689 H752 0.961 . S
C689 H753 0.960 . S
C689 H754 0.960 . S
C690 C691 1.530 . S
C690 H756 0.961 . S
C690 H757 0.961 . S
C690 H758 0.959 . S
C691 C690 1.530 . S
C691 O719 1.412 . S
C691 H755 0.980 . S
C692 C693 1.288 . S
C692 C697 1.377 . S
C692 O719 1.393 . S
C693 C692 1.288 . S
C693 C694 1.369 . S
C693 H759 0.932 . S
C694 C693 1.369 . S
C694 C695 1.398 . S
C694 C698 1.527 . S
C695 C694 1.398 . S
C695 C696 1.380 . S
C695 C709 1.497 . S
C696 C695 1.380 . S
C696 C697 1.383 . S
C696 C699 1.603 . S
C697 C692 1.377 . S
C697 C696 1.383 . S
C697 H760 0.929 . S
C698 C694 1.527 . S
C698 H761 0.961 . S
C698 H762 0.959 . S
C698 H763 0.959 . S
C699 C696 1.603 . S
C699 H764 0.960 . S
C699 H765 0.962 . S
C699 H766 0.961 . S
C700 C667 1.587 . S
C700 C701 1.360 . S
C700 C713 1.412 . S
C701 C700 1.360 . S
C701 C702 1.365 . S
C701 H767 0.929 . S
C702 C677 1.553 . S
C702 C701 1.365 . S
C702 C703 1.404 . S
C703 C702 1.404 . S
C703 C704 1.395 . S
C703 C714 1.451 . S
C704 C703 1.395 . S
C704 C705 1.322 . S
C704 H768 0.930 . S
C705 C704 1.322 . S
C705 C706 1.459 1_554 S
C705 H769 0.929 1_554 S
C706 C705 1.459 1_556 S
C706 C707 1.445 . S
C706 C715 1.395 . S
C707 C685 1.432 . S
C707 C706 1.445 . S
C707 C708 1.370 . S
C708 C707 1.370 . S
C708 C709 1.438 . S
C708 H770 0.930 . S
C709 C695 1.497 . S
C709 C708 1.438 . S
C709 C710 1.360 . S
C710 C709 1.360 . S
C710 C711 1.401 . S
C710 C715 1.446 . S
C711 C710 1.401 . S
C711 C712 1.347 1_556 S
C711 H771 0.929 . S
C712 C711 1.347 1_554 S
C712 C713 1.455 . S
C712 H772 0.930 . S
C713 C700 1.412 . S
C713 C712 1.455 . S
C713 C714 1.331 . S
C714 C703 1.451 . S
C714 C713 1.331 . S
C714 C715 1.497 1_554 S
C715 C706 1.395 . S
C715 C710 1.446 . S
C715 C714 1.497 1_556 S
C716 C717 1.582 . S
C716 H773 0.962 . S
C716 H774 0.959 . S
C716 H775 0.958 . S
C717 C716 1.582 . S
C717 O720 1.458 . S
C717 H746 0.980 . S
O718 C663 1.426 . S
O718 C664 1.334 . S
O719 C691 1.412 . S
O719 C692 1.393 . S
O720 C682 1.435 . S
O720 C717 1.458 . S
O721 C673 1.468 . S
O721 C674 1.408 . S
H722 C663 0.980 . S
H723 C662 0.959 . S
H724 C662 0.959 . S
H725 C662 0.960 . S
H726 C665 0.929 . S
H727 C669 0.929 . S
H728 C670 0.959 . S
H729 C670 0.961 . S
H730 C670 0.961 . S
H731 C671 0.960 . S
H732 C671 0.960 . S
H733 C671 0.961 . S
H734 C673 0.980 . S
H735 C672 0.961 . S
H736 C672 0.960 . S
H737 C672 0.959 . S
H738 C675 0.930 . S
H739 C679 0.931 . S
H740 C680 0.959 . S
H741 C680 0.961 . S
H742 C680 0.959 . S
H743 C681 0.960 . S
H744 C681 0.960 . S
H745 C681 0.960 . S
H746 C717 0.980 . S
H747 C683 0.930 . S
H748 C687 0.930 . S
H749 C688 0.961 . S
H750 C688 0.960 . S
H751 C688 0.958 . S
H752 C689 0.961 . S
H753 C689 0.960 . S
H754 C689 0.960 . S
H755 C691 0.980 . S
H756 C690 0.961 . S
H757 C690 0.961 . S
H758 C690 0.959 . S
H759 C693 0.932 . S
H760 C697 0.929 . S
H761 C698 0.961 . S
H762 C698 0.959 . S
H763 C698 0.959 . S
H764 C699 0.960 . S
H765 C699 0.962 . S
H766 C699 0.961 . S
H767 C701 0.929 . S
H768 C704 0.930 . S
H769 C705 0.929 1_556 S
H770 C708 0.930 . S
H771 C711 0.929 . S
H772 C712 0.930 . S
H773 C716 0.962 . S
H774 C716 0.959 . S
H775 C716 0.958 . S
C776 C777 1.560 . S
C776 H837 0.959 . S
C776 H838 0.959 . S
C776 H839 0.960 . S
C777 C776 1.560 . S
C777 O832 1.426 . S
C777 H836 0.980 . S
C778 C779 1.407 . S
C778 C783 1.418 . S
C778 O832 1.334 . S
C779 C778 1.407 . S
C779 C780 1.360 . S
C779 H840 0.929 . S
C780 C779 1.360 . S
C780 C781 1.401 . S
C780 C784 1.527 . S
C781 C780 1.401 . S
C781 C782 1.405 . S
C781 C814 1.587 . S
C782 C781 1.405 . S
C782 C783 1.332 . S
C782 C785 1.496 . S
C783 C778 1.418 . S
C783 C782 1.332 . S
C783 H841 0.929 . S
C784 C780 1.527 . S
C784 H842 0.959 . S
C784 H843 0.961 . S
C784 H844 0.961 . S
C785 C782 1.496 . S
C785 H845 0.960 . S
C785 H846 0.960 . S
C785 H847 0.961 . S
C786 C787 1.517 . S
C786 H849 0.961 . S
C786 H850 0.960 . S
C786 H851 0.959 . S
C787 C786 1.517 . S
C787 O835 1.468 . S
C787 H848 0.980 . S
C788 C789 1.349 . S
C788 C793 1.367 . S
C788 O835 1.408 . S
C789 C788 1.349 . S
C789 C790 1.407 . S
C789 H852 0.930 . S
C790 C789 1.407 . S
C790 C791 1.449 . S
C790 C794 1.535 . S
C791 C790 1.449 . S
C791 C792 1.384 . S
C791 C816 1.553 . S
C792 C791 1.384 . S
C792 C793 1.364 . S
C792 C795 1.450 . S
C793 C788 1.367 . S
C793 C792 1.364 . S
C793 H853 0.931 . S
C794 C790 1.535 . S
C794 H854 0.959 . S
C794 H855 0.961 . S
C794 H856 0.959 . S
C795 C792 1.450 . S
C795 H857 0.960 . S
C795 H858 0.960 . S
C795 H859 0.960 . S
C796 C797 1.309 . S
C796 C801 1.304 . S
C796 O834 1.435 . S
C797 C796 1.309 . S
C797 C798 1.476 . S
C797 H861 0.930 . S
C798 C797 1.476 . S
C798 C799 1.400 . S
C798 C802 1.567 . S
C799 C798 1.400 . S
C799 C800 1.373 . S
C799 C821 1.432 . S
C800 C799 1.373 . S
C800 C801 1.339 . S
C800 C803 1.530 . S
C801 C796 1.304 . S
C801 C800 1.339 . S
C801 H862 0.930 . S
C802 C798 1.567 . S
C802 H863 0.961 . S
C802 H864 0.960 . S
C802 H865 0.958 . S
C803 C800 1.530 . S
C803 H866 0.961 . S
C803 H867 0.960 . S
C803 H868 0.960 . S
C804 C805 1.530 . S
C804 H870 0.961 . S
C804 H871 0.961 . S
C804 H872 0.959 . S
C805 C804 1.530 . S
C805 O833 1.412 . S
C805 H869 0.980 . S
C806 C807 1.288 . S
C806 C811 1.377 . S
C806 O833 1.393 . S
C807 C806 1.288 . S
C807 C808 1.369 . S
C807 H873 0.932 . S
C808 C807 1.369 . S
C808 C809 1.398 . S
C808 C812 1.527 . S
C809 C808 1.398 . S
C809 C810 1.380 . S
C809 C823 1.497 . S
C810 C809 1.380 . S
C810 C811 1.383 . S
C810 C813 1.603 . S
C811 C806 1.377 . S
C811 C810 1.383 . S
C811 H874 0.929 . S
C812 C808 1.527 . S
C812 H875 0.961 . S
C812 H876 0.959 . S
C812 H877 0.959 . S
C813 C810 1.603 . S
C813 H878 0.960 . S
C813 H879 0.962 . S
C813 H880 0.961 . S
C814 C781 1.587 . S
C814 C815 1.360 . S
C814 C827 1.412 . S
C815 C814 1.360 . S
C815 C816 1.365 1_545 S
C815 H881 0.929 . S
C816 C791 1.553 . S
C816 C815 1.365 1_565 S
C816 C817 1.404 . S
C817 C816 1.404 . S
C817 C818 1.395 . S
C817 C828 1.451 1_565 S
C818 C817 1.395 . S
C818 C819 1.322 . S
C818 H882 0.930 . S
C819 C818 1.322 . S
C819 C820 1.459 . S
C819 H883 0.929 . S
C820 C819 1.459 . S
C820 C821 1.445 . S
C820 C829 1.395 1_565 S
C821 C799 1.432 . S
C821 C820 1.445 . S
C821 C822 1.370 1_565 S
C822 C821 1.370 1_545 S
C822 C823 1.438 . S
C822 H884 0.930 . S
C823 C809 1.497 . S
C823 C822 1.438 . S
C823 C824 1.360 . S
C824 C823 1.360 . S
C824 C825 1.401 . S
C824 C829 1.446 . S
C825 C824 1.401 . S
C825 C826 1.347 . S
C825 H885 0.929 . S
C826 C825 1.347 . S
C826 C827 1.455 . S
C826 H886 0.930 . S
C827 C814 1.412 . S
C827 C826 1.455 . S
C827 C828 1.331 . S
C828 C817 1.451 1_545 S
C828 C827 1.331 . S
C828 C829 1.497 . S
C829 C820 1.395 1_545 S
C829 C824 1.446 . S
C829 C828 1.497 . S
C830 C831 1.582 . S
C830 H887 0.962 . S
C830 H888 0.959 . S
C830 H889 0.958 . S
C831 C830 1.582 . S
C831 O834 1.458 . S
C831 H860 0.980 . S
O832 C777 1.426 . S
O832 C778 1.334 . S
O833 C805 1.412 . S
O833 C806 1.393 . S
O834 C796 1.435 . S
O834 C831 1.458 . S
O835 C787 1.468 . S
O835 C788 1.408 . S
H836 C777 0.980 . S
H837 C776 0.959 . S
H838 C776 0.959 . S
H839 C776 0.960 . S
H840 C779 0.929 . S
H841 C783 0.929 . S
H842 C784 0.959 . S
H843 C784 0.961 . S
H844 C784 0.961 . S
H845 C785 0.960 . S
H846 C785 0.960 . S
H847 C785 0.961 . S
H848 C787 0.980 . S
H849 C786 0.961 . S
H850 C786 0.960 . S
H851 C786 0.959 . S
H852 C789 0.930 . S
H853 C793 0.931 . S
H854 C794 0.959 . S
H855 C794 0.961 . S
H856 C794 0.959 . S
H857 C795 0.960 . S
H858 C795 0.960 . S
H859 C795 0.960 . S
H860 C831 0.980 . S
H861 C797 0.930 . S
H862 C801 0.930 . S
H863 C802 0.961 . S
H864 C802 0.960 . S
H865 C802 0.958 . S
H866 C803 0.961 . S
H867 C803 0.960 . S
H868 C803 0.960 . S
H869 C805 0.980 . S
H870 C804 0.961 . S
H871 C804 0.961 . S
H872 C804 0.959 . S
H873 C807 0.932 . S
H874 C811 0.929 . S
H875 C812 0.961 . S
H876 C812 0.959 . S
H877 C812 0.959 . S
H878 C813 0.960 . S
H879 C813 0.962 . S
H880 C813 0.961 . S
H881 C815 0.929 . S
H882 C818 0.930 . S
H883 C819 0.929 . S
H884 C822 0.930 . S
H885 C825 0.929 . S
H886 C826 0.930 . S
H887 C830 0.962 . S
H888 C830 0.959 . S
H889 C830 0.958 . S
C890 C891 1.560 . S
C890 H951 0.959 . S
C890 H952 0.959 . S
C890 H953 0.960 . S
C891 C890 1.560 . S
C891 O946 1.426 . S
C891 H950 0.980 . S
C892 C893 1.407 . S
C892 C897 1.418 . S
C892 O946 1.334 . S
C893 C892 1.407 . S
C893 C894 1.360 . S
C893 H954 0.929 . S
C894 C893 1.360 . S
C894 C895 1.401 . S
C894 C898 1.527 . S
C895 C894 1.401 . S
C895 C896 1.405 . S
C895 C928 1.587 . S
C896 C895 1.405 . S
C896 C897 1.332 . S
C896 C899 1.496 . S
C897 C892 1.418 . S
C897 C896 1.332 . S
C897 H955 0.929 . S
C898 C894 1.527 . S
C898 H956 0.959 . S
C898 H957 0.961 . S
C898 H958 0.961 . S
C899 C896 1.496 . S
C899 H959 0.960 . S
C899 H960 0.960 . S
C899 H961 0.961 . S
C900 C901 1.517 . S
C900 H963 0.961 . S
C900 H964 0.960 . S
C900 H965 0.959 . S
C901 C900 1.517 . S
C901 O949 1.468 . S
C901 H962 0.980 . S
C902 C903 1.349 . S
C902 C907 1.367 . S
C902 O949 1.408 . S
C903 C902 1.349 . S
C903 C904 1.407 . S
C903 H966 0.930 . S
C904 C903 1.407 . S
C904 C905 1.449 . S
C904 C908 1.535 . S
C905 C904 1.449 . S
C905 C906 1.384 . S
C905 C930 1.553 . S
C906 C905 1.384 . S
C906 C907 1.364 . S
C906 C909 1.450 . S
C907 C902 1.367 . S
C907 C906 1.364 . S
C907 H967 0.931 . S
C908 C904 1.535 . S
C908 H968 0.959 . S
C908 H969 0.961 . S
C908 H970 0.959 . S
C909 C906 1.450 . S
C909 H971 0.960 . S
C909 H972 0.960 . S
C909 H973 0.960 . S
C910 C911 1.309 . S
C910 C915 1.304 . S
C910 O948 1.435 . S
C911 C910 1.309 . S
C911 C912 1.476 . S
C911 H975 0.930 . S
C912 C911 1.476 . S
C912 C913 1.400 . S
C912 C916 1.567 . S
C913 C912 1.400 . S
C913 C914 1.373 . S
C913 C935 1.432 . S
C914 C913 1.373 . S
C914 C915 1.339 . S
C914 C917 1.530 . S
C915 C910 1.304 . S
C915 C914 1.339 . S
C915 H976 0.930 . S
C916 C912 1.567 . S
C916 H977 0.961 . S
C916 H978 0.960 . S
C916 H979 0.958 . S
C917 C914 1.530 . S
C917 H980 0.961 . S
C917 H981 0.960 . S
C917 H982 0.960 . S
C918 C919 1.530 . S
C918 H984 0.961 . S
C918 H985 0.961 . S
C918 H986 0.959 . S
C919 C918 1.530 . S
C919 O947 1.412 . S
C919 H983 0.980 . S
C920 C921 1.288 . S
C920 C925 1.377 . S
C920 O947 1.393 . S
C921 C920 1.288 . S
C921 C922 1.369 . S
C921 H987 0.932 . S
C922 C921 1.369 . S
C922 C923 1.398 . S
C922 C926 1.527 . S
C923 C922 1.398 . S
C923 C924 1.380 . S
C923 C937 1.497 . S
C924 C923 1.380 . S
C924 C925 1.383 . S
C924 C927 1.603 . S
C925 C920 1.377 . S
C925 C924 1.383 . S
C925 H988 0.929 . S
C926 C922 1.527 . S
C926 H989 0.961 . S
C926 H990 0.959 . S
C926 H991 0.959 . S
C927 C924 1.603 . S
C927 H992 0.960 . S
C927 H993 0.962 . S
C927 H994 0.961 . S
C928 C895 1.587 . S
C928 C929 1.360 . S
C928 C941 1.412 . S
C929 C928 1.360 . S
C929 C930 1.365 . S
C929 H995 0.929 . S
C930 C905 1.553 . S
C930 C929 1.365 . S
C930 C931 1.404 . S
C931 C930 1.404 . S
C931 C932 1.395 . S
C931 C942 1.451 . S
C932 C931 1.395 . S
C932 C933 1.322 1_554 S
C932 H996 0.930 . S
C933 C932 1.322 1_556 S
C933 C934 1.459 . S
C933 H997 0.929 . S
C934 C933 1.459 . S
C934 C935 1.445 . S
C934 C943 1.395 . S
C935 C913 1.432 . S
C935 C934 1.445 . S
C935 C936 1.370 . S
C936 C935 1.370 . S
C936 C937 1.438 . S
C936 H998 0.930 . S
C937 C923 1.497 . S
C937 C936 1.438 . S
C937 C938 1.360 . S
C938 C937 1.360 . S
C938 C939 1.400 1_556 S
C938 C943 1.446 . S
C939 C938 1.400 1_554 S
C939 C940 1.348 . S
C939 H999 0.929 1_554 S
C940 C939 1.348 . S
C940 C941 1.455 . S
C940 H1000 0.930 . S
C941 C928 1.412 . S
C941 C940 1.455 . S
C941 C942 1.331 . S
C942 C931 1.451 . S
C942 C941 1.331 . S
C942 C943 1.497 1_554 S
C943 C934 1.395 . S
C943 C938 1.446 . S
C943 C942 1.497 1_556 S
C944 C945 1.582 . S
C944 H1001 0.962 . S
C944 H1002 0.959 . S
C944 H1003 0.958 . S
C945 C944 1.582 . S
C945 O948 1.458 . S
C945 H974 0.980 . S
O946 C891 1.426 . S
O946 C892 1.334 . S
O947 C919 1.412 . S
O947 C920 1.393 . S
O948 C910 1.435 . S
O948 C945 1.458 . S
O949 C901 1.468 . S
O949 C902 1.408 . S
H950 C891 0.980 . S
H951 C890 0.959 . S
H952 C890 0.959 . S
H953 C890 0.960 . S
H954 C893 0.929 . S
H955 C897 0.929 . S
H956 C898 0.959 . S
H957 C898 0.961 . S
H958 C898 0.961 . S
H959 C899 0.960 . S
H960 C899 0.960 . S
H961 C899 0.961 . S
H962 C901 0.980 . S
H963 C900 0.961 . S
H964 C900 0.960 . S
H965 C900 0.959 . S
H966 C903 0.930 . S
H967 C907 0.931 . S
H968 C908 0.959 . S
H969 C908 0.961 . S
H970 C908 0.959 . S
H971 C909 0.960 . S
H972 C909 0.960 . S
H973 C909 0.960 . S
H974 C945 0.980 . S
H975 C911 0.930 . S
H976 C915 0.930 . S
H977 C916 0.961 . S
H978 C916 0.960 . S
H979 C916 0.958 . S
H980 C917 0.961 . S
H981 C917 0.960 . S
H982 C917 0.960 . S
H983 C919 0.980 . S
H984 C918 0.961 . S
H985 C918 0.961 . S
H986 C918 0.959 . S
H987 C921 0.932 . S
H988 C925 0.929 . S
H989 C926 0.961 . S
H990 C926 0.959 . S
H991 C926 0.959 . S
H992 C927 0.960 . S
H993 C927 0.962 . S
H994 C927 0.961 . S
H995 C929 0.929 . S
H996 C932 0.930 . S
H997 C933 0.929 . S
H998 C936 0.930 . S
H999 C939 0.929 1_556 S
H1000 C940 0.930 . S
H1001 C944 0.962 . S
H1002 C944 0.959 . S
H1003 C944 0.958 . S
H1004 C1010 0.930 . S
H1005 C1014 0.930 . S
H1006 C1019 0.929 . S
H1007 C1017 0.929 . S
H1008 C1012 0.929 . S
H1009 C1018 0.929 . S
C1010 H1004 0.930 . S
C1010 C1011 1.367 . S
C1010 C1018 1.378 . S
C1011 C1010 1.367 . S
C1011 C1019 1.433 . S
C1012 H1008 0.929 . S
C1012 C1014 1.378 . S
C1012 C1016 1.350 . S
C1013 C1016 1.463 . S
C1013 C1018 1.350 . S
C1013 N1021 1.427 . S
C1014 H1005 0.930 . S
C1014 C1012 1.378 . S
C1014 C1015 1.367 . S
C1015 C1014 1.367 . S
C1015 C1017 1.433 . S
C1016 C1012 1.350 . S
C1016 C1013 1.463 . S
C1016 N1020 1.427 . S
C1017 H1007 0.929 . S
C1017 C1015 1.433 . S
C1017 N1020 1.384 . S
C1018 H1009 0.929 . S
C1018 C1010 1.378 . S
C1018 C1013 1.350 . S
C1019 H1006 0.929 . S
C1019 C1011 1.433 . S
C1019 N1021 1.384 . S
N1020 C1016 1.427 . S
N1020 C1017 1.384 . S
N1021 C1013 1.427 . S
N1021 C1019 1.384 . S
H1022 C1028 0.930 . S
H1023 C1032 0.930 . S
H1024 C1037 0.929 . S
H1025 C1035 0.929 . S
H1026 C1030 0.929 . S
H1027 C1036 0.929 . S
C1028 H1022 0.930 . S
C1028 C1029 1.367 . S
C1028 C1036 1.378 . S
C1029 C1028 1.367 . S
C1029 C1037 1.433 . S
C1030 H1026 0.929 . S
C1030 C1032 1.378 . S
C1030 C1034 1.350 . S
C1031 C1034 1.463 . S
C1031 C1036 1.350 . S
C1031 N1039 1.427 . S
C1032 H1023 0.930 . S
C1032 C1030 1.378 . S
C1032 C1033 1.367 . S
C1033 C1032 1.367 . S
C1033 C1035 1.433 . S
C1034 C1030 1.350 . S
C1034 C1031 1.463 . S
C1034 N1038 1.427 . S
C1035 H1025 0.929 . S
C1035 C1033 1.433 . S
C1035 N1038 1.384 . S
C1036 H1027 0.929 . S
C1036 C1028 1.378 . S
C1036 C1031 1.350 . S
C1037 H1024 0.929 . S
C1037 C1029 1.433 . S
C1037 N1039 1.384 . S
N1038 C1034 1.427 . S
N1038 C1035 1.384 . S
N1039 C1031 1.427 . S
N1039 C1037 1.384 . S
H1040 C1046 0.930 . S
H1041 C1050 0.930 . S
H1042 C1055 0.929 . S
H1043 C1053 0.929 . S
H1044 C1048 0.929 . S
H1045 C1054 0.929 . S
C1046 H1040 0.930 . S
C1046 C1047 1.367 . S
C1046 C1054 1.378 . S
C1047 C1046 1.367 . S
C1047 C1055 1.433 . S
C1048 H1044 0.929 . S
C1048 C1050 1.378 . S
C1048 C1052 1.350 . S
C1049 C1052 1.463 . S
C1049 C1054 1.350 . S
C1049 N1057 1.427 . S
C1050 H1041 0.930 . S
C1050 C1048 1.378 . S
C1050 C1051 1.367 . S
C1051 C1050 1.367 . S
C1051 C1053 1.433 . S
C1052 C1048 1.350 . S
C1052 C1049 1.463 . S
C1052 N1056 1.427 . S
C1053 H1043 0.929 . S
C1053 C1051 1.433 . S
C1053 N1056 1.384 . S
C1054 H1045 0.929 . S
C1054 C1046 1.378 . S
C1054 C1049 1.350 . S
C1055 H1042 0.929 . S
C1055 C1047 1.433 . S
C1055 N1057 1.384 . S
N1056 C1052 1.427 . S
N1056 C1053 1.384 . S
N1057 C1049 1.427 . S
N1057 C1055 1.384 . S
H1058 C1064 0.930 . S
H1059 C1068 0.930 . S
H1060 C1073 0.929 . S
H1061 C1071 0.929 . S
H1062 C1066 0.929 . S
H1063 C1072 0.929 . S
C1064 H1058 0.930 . S
C1064 C1065 1.367 . S
C1064 C1072 1.378 . S
C1065 C1064 1.367 . S
C1065 C1073 1.433 . S
C1066 H1062 0.929 . S
C1066 C1068 1.378 . S
C1066 C1070 1.350 . S
C1067 C1070 1.463 . S
C1067 C1072 1.350 . S
C1067 N1075 1.427 . S
C1068 H1059 0.930 . S
C1068 C1066 1.378 . S
C1068 C1069 1.367 . S
C1069 C1068 1.367 . S
C1069 C1071 1.433 . S
C1070 C1066 1.350 . S
C1070 C1067 1.463 . S
C1070 N1074 1.427 . S
C1071 H1061 0.929 . S
C1071 C1069 1.433 . S
C1071 N1074 1.384 . S
C1072 H1063 0.929 . S
C1072 C1064 1.378 . S
C1072 C1067 1.350 . S
C1073 H1060 0.929 . S
C1073 C1065 1.433 . S
C1073 N1075 1.384 . S
N1074 C1070 1.427 . S
N1074 C1071 1.384 . S
N1075 C1067 1.427 . S
N1075 C1073 1.384 . S
H1076 C1082 0.930 . S
H1077 C1086 0.930 . S
H1078 C1091 0.929 . S
H1079 C1089 0.929 . S
H1080 C1084 0.929 . S
H1081 C1090 0.929 . S
C1082 H1076 0.930 . S
C1082 C1083 1.367 . S
C1082 C1090 1.378 . S
C1083 C1082 1.367 . S
C1083 C1091 1.433 . S
C1084 H1080 0.929 . S
C1084 C1086 1.378 . S
C1084 C1088 1.350 . S
C1085 C1088 1.463 . S
C1085 C1090 1.350 . S
C1085 N1093 1.427 . S
C1086 H1077 0.930 . S
C1086 C1084 1.378 . S
C1086 C1087 1.367 . S
C1087 C1086 1.367 . S
C1087 C1089 1.433 . S
C1088 C1084 1.350 . S
C1088 C1085 1.463 . S
C1088 N1092 1.427 . S
C1089 H1079 0.929 . S
C1089 C1087 1.433 . S
C1089 N1092 1.384 . S
C1090 H1081 0.929 . S
C1090 C1082 1.378 . S
C1090 C1085 1.350 . S
C1091 H1078 0.929 . S
C1091 C1083 1.433 . S
C1091 N1093 1.384 . S
N1092 C1088 1.427 . S
N1092 C1089 1.384 . S
N1093 C1085 1.427 . S
N1093 C1091 1.384 . S
H1094 C1100 0.930 . S
H1095 C1104 0.930 . S
H1096 C1109 0.929 . S
H1097 C1107 0.929 . S
H1098 C1102 0.929 . S
H1099 C1108 0.929 . S
C1100 H1094 0.930 . S
C1100 C1101 1.367 . S
C1100 C1108 1.378 . S
C1101 C1100 1.367 . S
C1101 C1109 1.433 . S
C1102 H1098 0.929 . S
C1102 C1104 1.378 . S
C1102 C1106 1.350 . S
C1103 C1106 1.463 . S
C1103 C1108 1.350 . S
C1103 N1111 1.427 . S
C1104 H1095 0.930 . S
C1104 C1102 1.378 . S
C1104 C1105 1.367 . S
C1105 C1104 1.367 . S
C1105 C1107 1.433 . S
C1106 C1102 1.350 . S
C1106 C1103 1.463 . S
C1106 N1110 1.427 . S
C1107 H1097 0.929 . S
C1107 C1105 1.433 . S
C1107 N1110 1.384 . S
C1108 H1099 0.929 . S
C1108 C1100 1.378 . S
C1108 C1103 1.350 . S
C1109 H1096 0.929 . S
C1109 C1101 1.433 . S
C1109 N1111 1.384 . S
N1110 C1106 1.427 . S
N1110 C1107 1.384 . S
N1111 C1103 1.427 . S
N1111 C1109 1.384 . S
H1112 C1118 0.930 . S
H1113 C1122 0.930 . S
H1114 C1127 0.929 . S
H1115 C1125 0.929 . S
H1116 C1120 0.929 . S
H1117 C1126 0.929 . S
C1118 H1112 0.930 . S
C1118 C1119 1.367 . S
C1118 C1126 1.378 . S
C1119 C1118 1.367 . S
C1119 C1127 1.433 . S
C1120 H1116 0.929 . S
C1120 C1122 1.378 . S
C1120 C1124 1.350 . S
C1121 C1124 1.463 . S
C1121 C1126 1.350 . S
C1121 N1129 1.427 . S
C1122 H1113 0.930 . S
C1122 C1120 1.378 . S
C1122 C1123 1.367 . S
C1123 C1122 1.367 . S
C1123 C1125 1.433 . S
C1124 C1120 1.350 . S
C1124 C1121 1.463 . S
C1124 N1128 1.427 . S
C1125 H1115 0.929 . S
C1125 C1123 1.433 . S
C1125 N1128 1.384 . S
C1126 H1117 0.929 . S
C1126 C1118 1.378 . S
C1126 C1121 1.350 . S
C1127 H1114 0.929 . S
C1127 C1119 1.433 . S
C1127 N1129 1.384 . S
N1128 C1124 1.427 . S
N1128 C1125 1.384 . S
N1129 C1121 1.427 . S
N1129 C1127 1.384 . S
H1130 C1136 0.930 . S
H1131 C1140 0.930 . S
H1132 C1145 0.929 . S
H1133 C1143 0.929 . S
H1134 C1138 0.929 . S
H1135 C1144 0.929 . S
C1136 H1130 0.930 . S
C1136 C1137 1.367 . S
C1136 C1144 1.378 . S
C1137 C1136 1.367 . S
C1137 C1145 1.433 . S
C1138 H1134 0.929 . S
C1138 C1140 1.378 . S
C1138 C1142 1.350 . S
C1139 C1142 1.463 . S
C1139 C1144 1.350 . S
C1139 N1147 1.427 . S
C1140 H1131 0.930 . S
C1140 C1138 1.378 . S
C1140 C1141 1.367 . S
C1141 C1140 1.367 . S
C1141 C1143 1.433 . S
C1142 C1138 1.350 . S
C1142 C1139 1.463 . S
C1142 N1146 1.427 . S
C1143 H1133 0.929 . S
C1143 C1141 1.433 . S
C1143 N1146 1.384 . S
C1144 H1135 0.929 . S
C1144 C1136 1.378 . S
C1144 C1139 1.350 . S
C1145 H1132 0.929 . S
C1145 C1137 1.433 . S
C1145 N1147 1.384 . S
N1146 C1142 1.427 . S
N1146 C1143 1.384 . S
N1147 C1139 1.427 . S
N1147 C1145 1.384 . S
H1148 C1154 0.930 . S
H1149 C1158 0.930 . S
H1150 C1163 0.929 . S
H1151 C1161 0.929 . S
H1152 C1156 0.929 . S
H1153 C1162 0.929 . S
C1154 H1148 0.930 . S
C1154 C1155 1.367 . S
C1154 C1162 1.378 . S
C1155 C1154 1.367 . S
C1155 C1163 1.433 . S
C1156 H1152 0.929 . S
C1156 C1158 1.378 . S
C1156 C1160 1.350 . S
C1157 C1160 1.463 . S
C1157 C1162 1.350 . S
C1157 N1165 1.427 . S
C1158 H1149 0.930 . S
C1158 C1156 1.378 . S
C1158 C1159 1.367 . S
C1159 C1158 1.367 . S
C1159 C1161 1.433 . S
C1160 C1156 1.350 . S
C1160 C1157 1.463 . S
C1160 N1164 1.427 . S
C1161 H1151 0.929 . S
C1161 C1159 1.433 . S
C1161 N1164 1.384 . S
C1162 H1153 0.929 . S
C1162 C1154 1.378 . S
C1162 C1157 1.350 . S
C1163 H1150 0.929 . S
C1163 C1155 1.433 . S
C1163 N1165 1.384 . S
N1164 C1160 1.427 . S
N1164 C1161 1.384 . S
N1165 C1157 1.427 . S
N1165 C1163 1.384 . S
H1166 C1172 0.930 . S
H1167 C1176 0.930 . S
H1168 C1181 0.929 . S
H1169 C1179 0.929 . S
H1170 C1174 0.929 . S
H1171 C1180 0.929 . S
C1172 H1166 0.930 . S
C1172 C1173 1.367 . S
C1172 C1180 1.378 . S
C1173 C1172 1.367 . S
C1173 C1181 1.433 . S
C1174 H1170 0.929 . S
C1174 C1176 1.378 . S
C1174 C1178 1.350 . S
C1175 C1178 1.463 . S
C1175 C1180 1.350 . S
C1175 N1183 1.427 . S
C1176 H1167 0.930 . S
C1176 C1174 1.378 . S
C1176 C1177 1.367 . S
C1177 C1176 1.367 . S
C1177 C1179 1.433 . S
C1178 C1174 1.350 . S
C1178 C1175 1.463 . S
C1178 N1182 1.427 . S
C1179 H1169 0.929 . S
C1179 C1177 1.433 . S
C1179 N1182 1.384 . S
C1180 H1171 0.929 . S
C1180 C1172 1.378 . S
C1180 C1175 1.350 . S
C1181 H1168 0.929 . S
C1181 C1173 1.433 . S
C1181 N1183 1.384 . S
N1182 C1178 1.427 . S
N1182 C1179 1.384 . S
N1183 C1175 1.427 . S
N1183 C1181 1.384 . S
H1184 C1190 0.930 . S
H1185 C1194 0.930 . S
H1186 C1199 0.929 . S
H1187 C1197 0.929 . S
H1188 C1192 0.929 . S
H1189 C1198 0.929 . S
C1190 H1184 0.930 . S
C1190 C1191 1.367 . S
C1190 C1198 1.378 . S
C1191 C1190 1.367 . S
C1191 C1199 1.433 . S
C1192 H1188 0.929 . S
C1192 C1194 1.378 . S
C1192 C1196 1.350 . S
C1193 C1196 1.463 . S
C1193 C1198 1.350 . S
C1193 N1201 1.427 . S
C1194 H1185 0.930 . S
C1194 C1192 1.378 . S
C1194 C1195 1.367 . S
C1195 C1194 1.367 . S
C1195 C1197 1.433 . S
C1196 C1192 1.350 . S
C1196 C1193 1.463 . S
C1196 N1200 1.427 . S
C1197 H1187 0.929 . S
C1197 C1195 1.433 . S
C1197 N1200 1.384 . S
C1198 H1189 0.929 . S
C1198 C1190 1.378 . S
C1198 C1193 1.350 . S
C1199 H1186 0.929 . S
C1199 C1191 1.433 . S
C1199 N1201 1.384 . S
N1200 C1196 1.427 . S
N1200 C1197 1.384 . S
N1201 C1193 1.427 . S
N1201 C1199 1.384 . S
H1202 C1208 0.930 . S
H1203 C1212 0.930 . S
H1204 C1217 0.929 . S
H1205 C1215 0.929 . S
H1206 C1210 0.929 . S
H1207 C1216 0.929 . S
C1208 H1202 0.930 . S
C1208 C1209 1.367 . S
C1208 C1216 1.378 . S
C1209 C1208 1.367 . S
C1209 C1217 1.433 . S
C1210 H1206 0.929 . S
C1210 C1212 1.378 . S
C1210 C1214 1.350 . S
C1211 C1214 1.463 . S
C1211 C1216 1.350 . S
C1211 N1219 1.427 . S
C1212 H1203 0.930 . S
C1212 C1210 1.378 . S
C1212 C1213 1.367 . S
C1213 C1212 1.367 . S
C1213 C1215 1.433 . S
C1214 C1210 1.350 . S
C1214 C1211 1.463 . S
C1214 N1218 1.427 . S
C1215 H1205 0.929 . S
C1215 C1213 1.433 . S
C1215 N1218 1.384 . S
C1216 H1207 0.929 . S
C1216 C1208 1.378 . S
C1216 C1211 1.350 . S
C1217 H1204 0.929 . S
C1217 C1209 1.433 . S
C1217 N1219 1.384 . S
N1218 C1214 1.427 . S
N1218 C1215 1.384 . S
N1219 C1211 1.427 . S
N1219 C1217 1.384 . S
H1220 C1226 0.930 . S
H1221 C1230 0.930 . S
H1222 C1235 0.929 . S
H1223 C1233 0.929 . S
H1224 C1228 0.929 . S
H1225 C1234 0.929 . S
C1226 H1220 0.930 . S
C1226 C1227 1.367 . S
C1226 C1234 1.378 . S
C1227 C1226 1.367 . S
C1227 C1235 1.433 . S
C1228 H1224 0.929 . S
C1228 C1230 1.378 . S
C1228 C1232 1.350 . S
C1229 C1232 1.463 . S
C1229 C1234 1.350 . S
C1229 N1237 1.427 . S
C1230 H1221 0.930 . S
C1230 C1228 1.378 . S
C1230 C1231 1.367 . S
C1231 C1230 1.367 . S
C1231 C1233 1.433 . S
C1232 C1228 1.350 . S
C1232 C1229 1.463 . S
C1232 N1236 1.427 . S
C1233 H1223 0.929 . S
C1233 C1231 1.433 . S
C1233 N1236 1.384 . S
C1234 H1225 0.929 . S
C1234 C1226 1.378 . S
C1234 C1229 1.350 . S
C1235 H1222 0.929 . S
C1235 C1227 1.433 . S
C1235 N1237 1.384 . S
N1236 C1232 1.427 . S
N1236 C1233 1.384 . S
N1237 C1229 1.427 . S
N1237 C1235 1.384 . S
H1238 C1244 0.930 . S
H1239 C1248 0.930 . S
H1240 C1253 0.929 . S
H1241 C1251 0.929 . S
H1242 C1246 0.929 . S
H1243 C1252 0.929 . S
C1244 H1238 0.930 . S
C1244 C1245 1.367 . S
C1244 C1252 1.378 . S
C1245 C1244 1.367 . S
C1245 C1253 1.433 . S
C1246 H1242 0.929 . S
C1246 C1248 1.378 . S
C1246 C1250 1.350 . S
C1247 C1250 1.463 . S
C1247 C1252 1.350 . S
C1247 N1255 1.427 . S
C1248 H1239 0.930 . S
C1248 C1246 1.378 . S
C1248 C1249 1.367 . S
C1249 C1248 1.367 . S
C1249 C1251 1.433 . S
C1250 C1246 1.350 . S
C1250 C1247 1.463 . S
C1250 N1254 1.427 . S
C1251 H1241 0.929 . S
C1251 C1249 1.433 . S
C1251 N1254 1.384 . S
C1252 H1243 0.929 . S
C1252 C1244 1.378 . S
C1252 C1247 1.350 . S
C1253 H1240 0.929 . S
C1253 C1245 1.433 . S
C1253 N1255 1.384 . S
N1254 C1250 1.427 . S
N1254 C1251 1.384 . S
N1255 C1247 1.427 . S
N1255 C1253 1.384 . S
H1256 C1262 0.930 . S
H1257 C1266 0.930 . S
H1258 C1271 0.929 . S
H1259 C1269 0.929 . S
H1260 C1264 0.929 . S
H1261 C1270 0.929 . S
C1262 H1256 0.930 . S
C1262 C1263 1.367 . S
C1262 C1270 1.378 . S
C1263 C1262 1.367 . S
C1263 C1271 1.433 . S
C1264 H1260 0.929 . S
C1264 C1266 1.378 . S
C1264 C1268 1.350 . S
C1265 C1268 1.463 . S
C1265 C1270 1.350 . S
C1265 N1273 1.427 . S
C1266 H1257 0.930 . S
C1266 C1264 1.378 . S
C1266 C1267 1.367 . S
C1267 C1266 1.367 . S
C1267 C1269 1.433 . S
C1268 C1264 1.350 . S
C1268 C1265 1.463 . S
C1268 N1272 1.427 . S
C1269 H1259 0.929 . S
C1269 C1267 1.433 . S
C1269 N1272 1.384 . S
C1270 H1261 0.929 . S
C1270 C1262 1.378 . S
C1270 C1265 1.350 . S
C1271 H1258 0.929 . S
C1271 C1263 1.433 . S
C1271 N1273 1.384 . S
N1272 C1268 1.427 . S
N1272 C1269 1.384 . S
N1273 C1265 1.427 . S
N1273 C1271 1.384 . S
H1274 C1280 0.930 . S
H1275 C1284 0.930 . S
H1276 C1289 0.929 . S
H1277 C1287 0.929 . S
H1278 C1282 0.929 . S
H1279 C1288 0.929 . S
C1280 H1274 0.930 . S
C1280 C1281 1.367 . S
C1280 C1288 1.378 . S
C1281 C1280 1.367 . S
C1281 C1289 1.433 . S
C1282 H1278 0.929 . S
C1282 C1284 1.378 . S
C1282 C1286 1.350 . S
C1283 C1286 1.463 . S
C1283 C1288 1.350 . S
C1283 N1291 1.427 . S
C1284 H1275 0.930 . S
C1284 C1282 1.378 . S
C1284 C1285 1.367 . S
C1285 C1284 1.367 . S
C1285 C1287 1.433 . S
C1286 C1282 1.350 . S
C1286 C1283 1.463 . S
C1286 N1290 1.427 . S
C1287 H1277 0.929 . S
C1287 C1285 1.433 . S
C1287 N1290 1.384 . S
C1288 H1279 0.929 . S
C1288 C1280 1.378 . S
C1288 C1283 1.350 . S
C1289 H1276 0.929 . S
C1289 C1281 1.433 . S
C1289 N1291 1.384 . S
N1290 C1286 1.427 . S
N1290 C1287 1.384 . S
N1291 C1283 1.427 . S
N1291 C1289 1.384 . S
H1292 C1298 0.930 . S
H1293 C1302 0.930 . S
H1294 C1307 0.929 . S
H1295 C1305 0.929 . S
H1296 C1300 0.929 . S
H1297 C1306 0.929 . S
C1298 H1292 0.930 . S
C1298 C1299 1.367 . S
C1298 C1306 1.378 . S
C1299 C1298 1.367 . S
C1299 C1307 1.433 . S
C1300 H1296 0.929 . S
C1300 C1302 1.378 . S
C1300 C1304 1.350 . S
C1301 C1304 1.463 . S
C1301 C1306 1.350 . S
C1301 N1309 1.427 . S
C1302 H1293 0.930 . S
C1302 C1300 1.378 . S
C1302 C1303 1.367 . S
C1303 C1302 1.367 . S
C1303 C1305 1.433 . S
C1304 C1300 1.350 . S
C1304 C1301 1.463 . S
C1304 N1308 1.427 . S
C1305 H1295 0.929 . S
C1305 C1303 1.433 . S
C1305 N1308 1.384 . S
C1306 H1297 0.929 . S
C1306 C1298 1.378 . S
C1306 C1301 1.350 . S
C1307 H1294 0.929 . S
C1307 C1299 1.433 . S
C1307 N1309 1.384 . S
N1308 C1304 1.427 . S
N1308 C1305 1.384 . S
N1309 C1301 1.427 . S
N1309 C1307 1.384 . S
H1310 C1316 0.930 . S
H1311 C1320 0.930 . S
H1312 C1325 0.929 . S
H1313 C1323 0.929 . S
H1314 C1318 0.929 . S
H1315 C1324 0.929 . S
C1316 H1310 0.930 . S
C1316 C1317 1.367 . S
C1316 C1324 1.378 . S
C1317 C1316 1.367 . S
C1317 C1325 1.433 . S
C1318 H1314 0.929 . S
C1318 C1320 1.378 . S
C1318 C1322 1.350 . S
C1319 C1322 1.463 . S
C1319 C1324 1.350 . S
C1319 N1327 1.427 . S
C1320 H1311 0.930 . S
C1320 C1318 1.378 . S
C1320 C1321 1.367 . S
C1321 C1320 1.367 . S
C1321 C1323 1.433 . S
C1322 C1318 1.350 . S
C1322 C1319 1.463 . S
C1322 N1326 1.427 . S
C1323 H1313 0.929 . S
C1323 C1321 1.433 . S
C1323 N1326 1.384 . S
C1324 H1315 0.929 . S
C1324 C1316 1.378 . S
C1324 C1319 1.350 . S
C1325 H1312 0.929 . S
C1325 C1317 1.433 . S
C1325 N1327 1.384 . S
N1326 C1322 1.427 . S
N1326 C1323 1.384 . S
N1327 C1319 1.427 . S
N1327 C1325 1.384 . S
H1328 C1334 0.930 . S
H1329 C1338 0.930 . S
H1330 C1343 0.929 . S
H1331 C1341 0.929 . S
H1332 C1336 0.929 . S
H1333 C1342 0.929 . S
C1334 H1328 0.930 . S
C1334 C1335 1.367 . S
C1334 C1342 1.378 . S
C1335 C1334 1.367 . S
C1335 C1343 1.433 . S
C1336 H1332 0.929 . S
C1336 C1338 1.378 . S
C1336 C1340 1.350 . S
C1337 C1340 1.463 . S
C1337 C1342 1.350 . S
C1337 N1345 1.427 . S
C1338 H1329 0.930 . S
C1338 C1336 1.378 . S
C1338 C1339 1.367 . S
C1339 C1338 1.367 . S
C1339 C1341 1.433 . S
C1340 C1336 1.350 . S
C1340 C1337 1.463 . S
C1340 N1344 1.427 . S
C1341 H1331 0.929 . S
C1341 C1339 1.433 . S
C1341 N1344 1.384 . S
C1342 H1333 0.929 . S
C1342 C1334 1.378 . S
C1342 C1337 1.350 . S
C1343 H1330 0.929 . S
C1343 C1335 1.433 . S
C1343 N1345 1.384 . S
N1344 C1340 1.427 . S
N1344 C1341 1.384 . S
N1345 C1337 1.427 . S
N1345 C1343 1.384 . S
H1346 C1352 0.930 . S
H1347 C1356 0.930 . S
H1348 C1361 0.929 . S
H1349 C1359 0.929 . S
H1350 C1354 0.929 . S
H1351 C1360 0.929 . S
C1352 H1346 0.930 . S
C1352 C1353 1.367 . S
C1352 C1360 1.378 . S
C1353 C1352 1.367 . S
C1353 C1361 1.433 . S
C1354 H1350 0.929 . S
C1354 C1356 1.378 . S
C1354 C1358 1.350 . S
C1355 C1358 1.463 . S
C1355 C1360 1.350 . S
C1355 N1363 1.427 . S
C1356 H1347 0.930 . S
C1356 C1354 1.378 . S
C1356 C1357 1.367 . S
C1357 C1356 1.367 . S
C1357 C1359 1.433 . S
C1358 C1354 1.350 . S
C1358 C1355 1.463 . S
C1358 N1362 1.427 . S
C1359 H1349 0.929 . S
C1359 C1357 1.433 . S
C1359 N1362 1.384 . S
C1360 H1351 0.929 . S
C1360 C1352 1.378 . S
C1360 C1355 1.350 . S
C1361 H1348 0.929 . S
C1361 C1353 1.433 . S
C1361 N1363 1.384 . S
N1362 C1358 1.427 . S
N1362 C1359 1.384 . S
N1363 C1355 1.427 . S
N1363 C1361 1.384 . S
H1364 C1370 0.930 . S
H1365 C1374 0.930 . S
H1366 C1379 0.929 . S
H1367 C1377 0.929 . S
H1368 C1372 0.929 . S
H1369 C1378 0.929 . S
C1370 H1364 0.930 . S
C1370 C1371 1.367 . S
C1370 C1378 1.378 . S
C1371 C1370 1.367 . S
C1371 C1379 1.433 . S
C1372 H1368 0.929 . S
C1372 C1374 1.378 . S
C1372 C1376 1.350 . S
C1373 C1376 1.463 . S
C1373 C1378 1.350 . S
C1373 N1381 1.427 . S
C1374 H1365 0.930 . S
C1374 C1372 1.378 . S
C1374 C1375 1.367 . S
C1375 C1374 1.367 . S
C1375 C1377 1.433 . S
C1376 C1372 1.350 . S
C1376 C1373 1.463 . S
C1376 N1380 1.427 . S
C1377 H1367 0.929 . S
C1377 C1375 1.433 . S
C1377 N1380 1.384 . S
C1378 H1369 0.929 . S
C1378 C1370 1.378 . S
C1378 C1373 1.350 . S
C1379 H1366 0.929 . S
C1379 C1371 1.433 . S
C1379 N1381 1.384 . S
N1380 C1376 1.427 . S
N1380 C1377 1.384 . S
N1381 C1373 1.427 . S
N1381 C1379 1.384 . S
H1382 C1388 0.930 . S
H1383 C1392 0.930 . S
H1384 C1397 0.929 . S
H1385 C1395 0.929 . S
H1386 C1390 0.929 . S
H1387 C1396 0.929 . S
C1388 H1382 0.930 . S
C1388 C1389 1.367 . S
C1388 C1396 1.378 . S
C1389 C1388 1.367 . S
C1389 C1397 1.433 . S
C1390 H1386 0.929 . S
C1390 C1392 1.378 . S
C1390 C1394 1.350 . S
C1391 C1394 1.463 . S
C1391 C1396 1.350 . S
C1391 N1399 1.427 . S
C1392 H1383 0.930 . S
C1392 C1390 1.378 . S
C1392 C1393 1.367 . S
C1393 C1392 1.367 . S
C1393 C1395 1.433 . S
C1394 C1390 1.350 . S
C1394 C1391 1.463 . S
C1394 N1398 1.427 . S
C1395 H1385 0.929 . S
C1395 C1393 1.433 . S
C1395 N1398 1.384 . S
C1396 H1387 0.929 . S
C1396 C1388 1.378 . S
C1396 C1391 1.350 . S
C1397 H1384 0.929 . S
C1397 C1389 1.433 . S
C1397 N1399 1.384 . S
N1398 C1394 1.427 . S
N1398 C1395 1.384 . S
N1399 C1391 1.427 . S
N1399 C1397 1.384 . S
H1400 C1406 0.930 . S
H1401 C1410 0.930 . S
H1402 C1415 0.929 . S
H1403 C1413 0.929 . S
H1404 C1408 0.929 . S
H1405 C1414 0.929 . S
C1406 H1400 0.930 . S
C1406 C1407 1.367 . S
C1406 C1414 1.378 . S
C1407 C1406 1.367 . S
C1407 C1415 1.433 . S
C1408 H1404 0.929 . S
C1408 C1410 1.378 . S
C1408 C1412 1.350 . S
C1409 C1412 1.463 . S
C1409 C1414 1.350 . S
C1409 N1417 1.427 . S
C1410 H1401 0.930 . S
C1410 C1408 1.378 . S
C1410 C1411 1.367 . S
C1411 C1410 1.367 . S
C1411 C1413 1.433 . S
C1412 C1408 1.350 . S
C1412 C1409 1.463 . S
C1412 N1416 1.427 . S
C1413 H1403 0.929 . S
C1413 C1411 1.433 . S
C1413 N1416 1.384 . S
C1414 H1405 0.929 . S
C1414 C1406 1.378 . S
C1414 C1409 1.350 . S
C1415 H1402 0.929 . S
C1415 C1407 1.433 . S
C1415 N1417 1.384 . S
N1416 C1412 1.427 . S
N1416 C1413 1.384 . S
N1417 C1409 1.427 . S
N1417 C1415 1.384 . S
H1418 C1424 0.930 . S
H1419 C1428 0.930 . S
H1420 C1433 0.929 . S
H1421 C1431 0.929 . S
H1422 C1426 0.929 . S
H1423 C1432 0.929 . S
C1424 H1418 0.930 . S
C1424 C1425 1.367 . S
C1424 C1432 1.378 . S
C1425 C1424 1.367 . S
C1425 C1433 1.433 . S
C1426 H1422 0.929 . S
C1426 C1428 1.378 . S
C1426 C1430 1.350 . S
C1427 C1430 1.463 . S
C1427 C1432 1.350 . S
C1427 N1435 1.427 . S
C1428 H1419 0.930 . S
C1428 C1426 1.378 . S
C1428 C1429 1.367 . S
C1429 C1428 1.367 . S
C1429 C1431 1.433 . S
C1430 C1426 1.350 . S
C1430 C1427 1.463 . S
C1430 N1434 1.427 . S
C1431 H1421 0.929 . S
C1431 C1429 1.433 . S
C1431 N1434 1.384 . S
C1432 H1423 0.929 . S
C1432 C1424 1.378 . S
C1432 C1427 1.350 . S
C1433 H1420 0.929 . S
C1433 C1425 1.433 . S
C1433 N1435 1.384 . S
N1434 C1430 1.427 . S
N1434 C1431 1.384 . S
N1435 C1427 1.427 . S
N1435 C1433 1.384 . S
C1015 C331 0.942 . S
C1011 C15 1.595 . S
C1033 C463 1.243 . S
C1029 C55 1.516 . S
C1051 C349 1.300 . S
C1047 C101 1.536 . S
C1069 C445 0.939 . S
C1065 C141 1.564 . S
C1087 C577 1.208 . S
C1083 C2 1.510 . S
C1105 C691 1.288 . S
C1101 C61 1.539 . S
C1119 C95 1.611 . S
C1123 C831 1.254 . S
C1141 C945 1.137 . S
C1137 C135 1.537 . S
C1159 C559 0.879 . S
C1155 C42 1.451 . S
C1173 C82 1.612 . S
C1177 C673 0.991 . S
C1195 C777 1.234 . S
C1191 C122 1.567 . S
C1213 C891 1.079 . S
C1209 C21 1.394 . S
C1227 C162 1.514 . S
C1231 C489 1.113 . S
C1249 C321 1.099 . S
C1245 C221 1.426 . S
C1263 C255 1.380 . S
C1267 C435 1.065 . S
C1281 C282 1.533 . S
C1285 C375 1.118 . S
C1303 C787 0.979 . S
C1299 C181 1.584 . S
C1321 C901 1.098 . S
C1317 C202 1.577 . S
C1339 C549 1.022 . S
C1335 C242 1.317 . S
C1353 C301 1.538 . S
C1357 C663 1.261 . S
C1375 C805 1.205 . S
C1371 C215 1.472 . S
C1393 C919 1.132 . S
C1389 C261 1.504 . S
C1411 C603 1.191 . S
C1407 C295 1.555 . S
C1425 C175 1.643 . S
C1429 C717 1.145 . S
