# Generated by pormake.
# Topology tbo, (3,4)-cn, num edge types: 1
# Building blocks:
#     Node 0, Type 0, BuildingBlock: KAKCAD_clean_linker_0, # of connection points: 3
#     Node 1, Type 0, BuildingBlock: KAKCAD_clean_linker_0, # of connection points: 3
#     Node 2, Type 0, BuildingBlock: KAKCAD_clean_linker_0, # of connection points: 3
#     Node 3, Type 0, BuildingBlock: KAKCAD_clean_linker_0, # of connection points: 3
#     Node 4, Type 0, BuildingBlock: KAKCAD_clean_linker_0, # of connection points: 3
#     Node 5, Type 0, BuildingBlock: KAKCAD_clean_linker_0, # of connection points: 3
#     Node 6, Type 0, BuildingBlock: KAKCAD_clean_linker_0, # of connection points: 3
#     Node 7, Type 0, BuildingBlock: KAKCAD_clean_linker_0, # of connection points: 3
#     Node 8, Type 0, BuildingBlock: KAKCAD_clean_linker_0, # of connection points: 3
#     Node 9, Type 0, BuildingBlock: KAKCAD_clean_linker_0, # of connection points: 3
#     Node 10, Type 0, BuildingBlock: KAKCAD_clean_linker_0, # of connection points: 3
#     Node 11, Type 0, BuildingBlock: KAKCAD_clean_linker_0, # of connection points: 3
#     Node 12, Type 0, BuildingBlock: KAKCAD_clean_linker_0, # of connection points: 3
#     Node 13, Type 0, BuildingBlock: KAKCAD_clean_linker_0, # of connection points: 3
#     Node 14, Type 0, BuildingBlock: KAKCAD_clean_linker_0, # of connection points: 3
#     Node 15, Type 0, BuildingBlock: KAKCAD_clean_linker_0, # of connection points: 3
#     Node 16, Type 0, BuildingBlock: KAKCAD_clean_linker_0, # of connection points: 3
#     Node 17, Type 0, BuildingBlock: KAKCAD_clean_linker_0, # of connection points: 3
#     Node 18, Type 0, BuildingBlock: KAKCAD_clean_linker_0, # of connection points: 3
#     Node 19, Type 0, BuildingBlock: KAKCAD_clean_linker_0, # of connection points: 3
#     Node 20, Type 0, BuildingBlock: KAKCAD_clean_linker_0, # of connection points: 3
#     Node 21, Type 0, BuildingBlock: KAKCAD_clean_linker_0, # of connection points: 3
#     Node 22, Type 0, BuildingBlock: KAKCAD_clean_linker_0, # of connection points: 3
#     Node 23, Type 0, BuildingBlock: KAKCAD_clean_linker_0, # of connection points: 3
#     Node 24, Type 0, BuildingBlock: KAKCAD_clean_linker_0, # of connection points: 3
#     Node 25, Type 0, BuildingBlock: KAKCAD_clean_linker_0, # of connection points: 3
#     Node 26, Type 0, BuildingBlock: KAKCAD_clean_linker_0, # of connection points: 3
#     Node 27, Type 0, BuildingBlock: KAKCAD_clean_linker_0, # of connection points: 3
#     Node 28, Type 0, BuildingBlock: KAKCAD_clean_linker_0, # of connection points: 3
#     Node 29, Type 0, BuildingBlock: KAKCAD_clean_linker_0, # of connection points: 3
#     Node 30, Type 0, BuildingBlock: KAKCAD_clean_linker_0, # of connection points: 3
#     Node 31, Type 0, BuildingBlock: KAKCAD_clean_linker_0, # of connection points: 3
#     Node 32, Type 1, BuildingBlock: ESEHIV_clean_sbu_0, # of connection points: 4
#     Node 33, Type 1, BuildingBlock: ESEHIV_clean_sbu_0, # of connection points: 4
#     Node 34, Type 1, BuildingBlock: ESEHIV_clean_sbu_0, # of connection points: 4
#     Node 35, Type 1, BuildingBlock: ESEHIV_clean_sbu_0, # of connection points: 4
#     Node 36, Type 1, BuildingBlock: ESEHIV_clean_sbu_0, # of connection points: 4
#     Node 37, Type 1, BuildingBlock: ESEHIV_clean_sbu_0, # of connection points: 4
#     Node 38, Type 1, BuildingBlock: ESEHIV_clean_sbu_0, # of connection points: 4
#     Node 39, Type 1, BuildingBlock: ESEHIV_clean_sbu_0, # of connection points: 4
#     Node 40, Type 1, BuildingBlock: ESEHIV_clean_sbu_0, # of connection points: 4
#     Node 41, Type 1, BuildingBlock: ESEHIV_clean_sbu_0, # of connection points: 4
#     Node 42, Type 1, BuildingBlock: ESEHIV_clean_sbu_0, # of connection points: 4
#     Node 43, Type 1, BuildingBlock: ESEHIV_clean_sbu_0, # of connection points: 4
#     Node 44, Type 1, BuildingBlock: ESEHIV_clean_sbu_0, # of connection points: 4
#     Node 45, Type 1, BuildingBlock: ESEHIV_clean_sbu_0, # of connection points: 4
#     Node 46, Type 1, BuildingBlock: ESEHIV_clean_sbu_0, # of connection points: 4
#     Node 47, Type 1, BuildingBlock: ESEHIV_clean_sbu_0, # of connection points: 4
#     Node 48, Type 1, BuildingBlock: ESEHIV_clean_sbu_0, # of connection points: 4
#     Node 49, Type 1, BuildingBlock: ESEHIV_clean_sbu_0, # of connection points: 4
#     Node 50, Type 1, BuildingBlock: ESEHIV_clean_sbu_0, # of connection points: 4
#     Node 51, Type 1, BuildingBlock: ESEHIV_clean_sbu_0, # of connection points: 4
#     Node 52, Type 1, BuildingBlock: ESEHIV_clean_sbu_0, # of connection points: 4
#     Node 53, Type 1, BuildingBlock: ESEHIV_clean_sbu_0, # of connection points: 4
#     Node 54, Type 1, BuildingBlock: ESEHIV_clean_sbu_0, # of connection points: 4
#     Node 55, Type 1, BuildingBlock: ESEHIV_clean_sbu_0, # of connection points: 4
#     Edge 56, Type (0, 1), BuildingBlock: AJUNOK_clean_linker_0, # of connection points: 2
#     Edge 57, Type (0, 1), BuildingBlock: AJUNOK_clean_linker_0, # of connection points: 2
#     Edge 58, Type (0, 1), BuildingBlock: AJUNOK_clean_linker_0, # of connection points: 2
#     Edge 59, Type (0, 1), BuildingBlock: AJUNOK_clean_linker_0, # of connection points: 2
#     Edge 60, Type (0, 1), BuildingBlock: AJUNOK_clean_linker_0, # of connection points: 2
#     Edge 61, Type (0, 1), BuildingBlock: AJUNOK_clean_linker_0, # of connection points: 2
#     Edge 62, Type (0, 1), BuildingBlock: AJUNOK_clean_linker_0, # of connection points: 2
#     Edge 63, Type (0, 1), BuildingBlock: AJUNOK_clean_linker_0, # of connection points: 2
#     Edge 64, Type (0, 1), BuildingBlock: AJUNOK_clean_linker_0, # of connection points: 2
#     Edge 65, Type (0, 1), BuildingBlock: AJUNOK_clean_linker_0, # of connection points: 2
#     Edge 66, Type (0, 1), BuildingBlock: AJUNOK_clean_linker_0, # of connection points: 2
#     Edge 67, Type (0, 1), BuildingBlock: AJUNOK_clean_linker_0, # of connection points: 2
#     Edge 68, Type (0, 1), BuildingBlock: AJUNOK_clean_linker_0, # of connection points: 2
#     Edge 69, Type (0, 1), BuildingBlock: AJUNOK_clean_linker_0, # of connection points: 2
#     Edge 70, Type (0, 1), BuildingBlock: AJUNOK_clean_linker_0, # of connection points: 2
#     Edge 71, Type (0, 1), BuildingBlock: AJUNOK_clean_linker_0, # of connection points: 2
#     Edge 72, Type (0, 1), BuildingBlock: AJUNOK_clean_linker_0, # of connection points: 2
#     Edge 73, Type (0, 1), BuildingBlock: AJUNOK_clean_linker_0, # of connection points: 2
#     Edge 74, Type (0, 1), BuildingBlock: AJUNOK_clean_linker_0, # of connection points: 2
#     Edge 75, Type (0, 1), BuildingBlock: AJUNOK_clean_linker_0, # of connection points: 2
#     Edge 76, Type (0, 1), BuildingBlock: AJUNOK_clean_linker_0, # of connection points: 2
#     Edge 77, Type (0, 1), BuildingBlock: AJUNOK_clean_linker_0, # of connection points: 2
#     Edge 78, Type (0, 1), BuildingBlock: AJUNOK_clean_linker_0, # of connection points: 2
#     Edge 79, Type (0, 1), BuildingBlock: AJUNOK_clean_linker_0, # of connection points: 2
#     Edge 80, Type (0, 1), BuildingBlock: AJUNOK_clean_linker_0, # of connection points: 2
#     Edge 81, Type (0, 1), BuildingBlock: AJUNOK_clean_linker_0, # of connection points: 2
#     Edge 82, Type (0, 1), BuildingBlock: AJUNOK_clean_linker_0, # of connection points: 2
#     Edge 83, Type (0, 1), BuildingBlock: AJUNOK_clean_linker_0, # of connection points: 2
#     Edge 84, Type (0, 1), BuildingBlock: AJUNOK_clean_linker_0, # of connection points: 2
#     Edge 85, Type (0, 1), BuildingBlock: AJUNOK_clean_linker_0, # of connection points: 2
#     Edge 86, Type (0, 1), BuildingBlock: AJUNOK_clean_linker_0, # of connection points: 2
#     Edge 87, Type (0, 1), BuildingBlock: AJUNOK_clean_linker_0, # of connection points: 2
#     Edge 88, Type (0, 1), BuildingBlock: AJUNOK_clean_linker_0, # of connection points: 2
#     Edge 89, Type (0, 1), BuildingBlock: AJUNOK_clean_linker_0, # of connection points: 2
#     Edge 90, Type (0, 1), BuildingBlock: AJUNOK_clean_linker_0, # of connection points: 2
#     Edge 91, Type (0, 1), BuildingBlock: AJUNOK_clean_linker_0, # of connection points: 2
#     Edge 92, Type (0, 1), BuildingBlock: AJUNOK_clean_linker_0, # of connection points: 2
#     Edge 93, Type (0, 1), BuildingBlock: AJUNOK_clean_linker_0, # of connection points: 2
#     Edge 94, Type (0, 1), BuildingBlock: AJUNOK_clean_linker_0, # of connection points: 2
#     Edge 95, Type (0, 1), BuildingBlock: AJUNOK_clean_linker_0, # of connection points: 2
#     Edge 96, Type (0, 1), BuildingBlock: AJUNOK_clean_linker_0, # of connection points: 2
#     Edge 97, Type (0, 1), BuildingBlock: AJUNOK_clean_linker_0, # of connection points: 2
#     Edge 98, Type (0, 1), BuildingBlock: AJUNOK_clean_linker_0, # of connection points: 2
#     Edge 99, Type (0, 1), BuildingBlock: AJUNOK_clean_linker_0, # of connection points: 2
#     Edge 100, Type (0, 1), BuildingBlock: AJUNOK_clean_linker_0, # of connection points: 2
#     Edge 101, Type (0, 1), BuildingBlock: AJUNOK_clean_linker_0, # of connection points: 2
#     Edge 102, Type (0, 1), BuildingBlock: AJUNOK_clean_linker_0, # of connection points: 2
#     Edge 103, Type (0, 1), BuildingBlock: AJUNOK_clean_linker_0, # of connection points: 2
#     Edge 104, Type (0, 1), BuildingBlock: AJUNOK_clean_linker_0, # of connection points: 2
#     Edge 105, Type (0, 1), BuildingBlock: AJUNOK_clean_linker_0, # of connection points: 2
#     Edge 106, Type (0, 1), BuildingBlock: AJUNOK_clean_linker_0, # of connection points: 2
#     Edge 107, Type (0, 1), BuildingBlock: AJUNOK_clean_linker_0, # of connection points: 2
#     Edge 108, Type (0, 1), BuildingBlock: AJUNOK_clean_linker_0, # of connection points: 2
#     Edge 109, Type (0, 1), BuildingBlock: AJUNOK_clean_linker_0, # of connection points: 2
#     Edge 110, Type (0, 1), BuildingBlock: AJUNOK_clean_linker_0, # of connection points: 2
#     Edge 111, Type (0, 1), BuildingBlock: AJUNOK_clean_linker_0, # of connection points: 2
#     Edge 112, Type (0, 1), BuildingBlock: AJUNOK_clean_linker_0, # of connection points: 2
#     Edge 113, Type (0, 1), BuildingBlock: AJUNOK_clean_linker_0, # of connection points: 2
#     Edge 114, Type (0, 1), BuildingBlock: AJUNOK_clean_linker_0, # of connection points: 2
#     Edge 115, Type (0, 1), BuildingBlock: AJUNOK_clean_linker_0, # of connection points: 2
#     Edge 116, Type (0, 1), BuildingBlock: AJUNOK_clean_linker_0, # of connection points: 2
#     Edge 117, Type (0, 1), BuildingBlock: AJUNOK_clean_linker_0, # of connection points: 2
#     Edge 118, Type (0, 1), BuildingBlock: AJUNOK_clean_linker_0, # of connection points: 2
#     Edge 119, Type (0, 1), BuildingBlock: AJUNOK_clean_linker_0, # of connection points: 2
#     Edge 120, Type (0, 1), BuildingBlock: AJUNOK_clean_linker_0, # of connection points: 2
#     Edge 121, Type (0, 1), BuildingBlock: AJUNOK_clean_linker_0, # of connection points: 2
#     Edge 122, Type (0, 1), BuildingBlock: AJUNOK_clean_linker_0, # of connection points: 2
#     Edge 123, Type (0, 1), BuildingBlock: AJUNOK_clean_linker_0, # of connection points: 2
#     Edge 124, Type (0, 1), BuildingBlock: AJUNOK_clean_linker_0, # of connection points: 2
#     Edge 125, Type (0, 1), BuildingBlock: AJUNOK_clean_linker_0, # of connection points: 2
#     Edge 126, Type (0, 1), BuildingBlock: AJUNOK_clean_linker_0, # of connection points: 2
#     Edge 127, Type (0, 1), BuildingBlock: AJUNOK_clean_linker_0, # of connection points: 2
#     Edge 128, Type (0, 1), BuildingBlock: AJUNOK_clean_linker_0, # of connection points: 2
#     Edge 129, Type (0, 1), BuildingBlock: AJUNOK_clean_linker_0, # of connection points: 2
#     Edge 130, Type (0, 1), BuildingBlock: AJUNOK_clean_linker_0, # of connection points: 2
#     Edge 131, Type (0, 1), BuildingBlock: AJUNOK_clean_linker_0, # of connection points: 2
#     Edge 132, Type (0, 1), BuildingBlock: AJUNOK_clean_linker_0, # of connection points: 2
#     Edge 133, Type (0, 1), BuildingBlock: AJUNOK_clean_linker_0, # of connection points: 2
#     Edge 134, Type (0, 1), BuildingBlock: AJUNOK_clean_linker_0, # of connection points: 2
#     Edge 135, Type (0, 1), BuildingBlock: AJUNOK_clean_linker_0, # of connection points: 2
#     Edge 136, Type (0, 1), BuildingBlock: AJUNOK_clean_linker_0, # of connection points: 2
#     Edge 137, Type (0, 1), BuildingBlock: AJUNOK_clean_linker_0, # of connection points: 2
#     Edge 138, Type (0, 1), BuildingBlock: AJUNOK_clean_linker_0, # of connection points: 2
#     Edge 139, Type (0, 1), BuildingBlock: AJUNOK_clean_linker_0, # of connection points: 2
#     Edge 140, Type (0, 1), BuildingBlock: AJUNOK_clean_linker_0, # of connection points: 2
#     Edge 141, Type (0, 1), BuildingBlock: AJUNOK_clean_linker_0, # of connection points: 2
#     Edge 142, Type (0, 1), BuildingBlock: AJUNOK_clean_linker_0, # of connection points: 2
#     Edge 143, Type (0, 1), BuildingBlock: AJUNOK_clean_linker_0, # of connection points: 2
#     Edge 144, Type (0, 1), BuildingBlock: AJUNOK_clean_linker_0, # of connection points: 2
#     Edge 145, Type (0, 1), BuildingBlock: AJUNOK_clean_linker_0, # of connection points: 2
#     Edge 146, Type (0, 1), BuildingBlock: AJUNOK_clean_linker_0, # of connection points: 2
#     Edge 147, Type (0, 1), BuildingBlock: AJUNOK_clean_linker_0, # of connection points: 2
#     Edge 148, Type (0, 1), BuildingBlock: AJUNOK_clean_linker_0, # of connection points: 2
#     Edge 149, Type (0, 1), BuildingBlock: AJUNOK_clean_linker_0, # of connection points: 2
#     Edge 150, Type (0, 1), BuildingBlock: AJUNOK_clean_linker_0, # of connection points: 2
#     Edge 151, Type (0, 1), BuildingBlock: AJUNOK_clean_linker_0, # of connection points: 2
# Relax obj value: 0.003
# Max RMSD: 0.122
# Mean RMSD: 0.050
data_MOF--net-tbo--node1-ESEHIV_clean_sbu_0--node2-KAKCAD_clean_linker_0--edge1-AJUNOK_clean_linker_0
_symmetry_space_group_name_H-M    P1
_symmetry_Int_Tables_number       1
_symmetry_cell_setting            triclinic
loop_
_symmetry_equiv_pos_as_xyz
'x, y, z'
_cell_length_a     71.196493
_cell_length_b     70.973006
_cell_length_c     70.884818
_cell_angle_alpha  90.378149
_cell_angle_beta   92.26132
_cell_angle_gamma 90.961858
loop_
_atom_site_label
_atom_site_type_symbol
_atom_site_fract_x
_atom_site_fract_y
_atom_site_fract_z
_atom_type_partial_charge
C0 C 0.22226 0.19625 0.12425 0.0
C1 C 0.22743 0.21543 0.12305 0.0
C2 C 0.21634 0.1887 0.14132 0.0
C3 C 0.21537 0.20022 0.15743 0.0
C4 C 0.22141 0.21914 0.15641 0.0
C5 C 0.22744 0.22663 0.13946 0.0
C6 C 0.20597 0.19341 0.17454 0.0
C7 C 0.2109 0.1764 0.18348 0.0
C8 C 0.20152 0.17027 0.19964 0.0
C9 C 0.18666 0.18116 0.20616 0.0
C10 C 0.18184 0.19821 0.19748 0.0
C11 C 0.19158 0.20422 0.1818 0.0
C12 C 0.16669 0.20998 0.20471 0.0
C13 C 0.14862 0.20233 0.2071 0.0
C14 C 0.17008 0.22922 0.20859 0.0
C15 C 0.15568 0.2406 0.21472 0.0
C16 C 0.13756 0.23302 0.21681 0.0
C17 C 0.2074 0.15292 0.21012 0.0
C18 C 0.21371 0.13689 0.20059 0.0
C19 C 0.20665 0.15224 0.22995 0.0
C20 C 0.21184 0.13605 0.2399 0.0
C21 C 0.21834 0.12014 0.23041 0.0
C22 C 0.21912 0.12074 0.2106 0.0
C23 C 0.13412 0.21381 0.21292 0.0
H24 H 0.22245 0.1872 0.1119 0.0
H25 H 0.21169 0.1741 0.14168 0.0
H26 H 0.22092 0.22833 0.16864 0.0
H27 H 0.23139 0.24142 0.139 0.0
H28 H 0.22239 0.16836 0.17818 0.0
H29 H 0.18756 0.21721 0.17488 0.0
H30 H 0.17889 0.17655 0.21818 0.0
H31 H 0.14565 0.18757 0.20406 0.0
H32 H 0.18391 0.23543 0.20689 0.0
H33 H 0.1586 0.2554 0.21757 0.0
H34 H 0.21429 0.13671 0.18535 0.0
H35 H 0.20219 0.16431 0.23793 0.0
H36 H 0.12023 0.20769 0.2145 0.0
H37 H 0.22409 0.10875 0.20282 0.0
H38 H 0.21061 0.136 0.25507 0.0
C39 C 0.92575 0.23542 0.22781 0.0
C40 C 0.94032 0.2241 0.23502 0.0
C41 C 0.90915 0.22729 0.22014 0.0
C42 C 0.9067 0.20761 0.21936 0.0
C43 C 0.92109 0.19626 0.22706 0.0
C44 C 0.93775 0.20444 0.23483 0.0
C45 C 0.88936 0.19907 0.21012 0.0
C46 C 0.88164 0.20678 0.1934 0.0
C47 C 0.86488 0.19948 0.18476 0.0
C48 C 0.85634 0.18348 0.19277 0.0
C49 C 0.86408 0.17518 0.20933 0.0
C50 C 0.88042 0.1834 0.218 0.0
C51 C 0.85526 0.15801 0.21775 0.0
C52 C 0.83563 0.15503 0.21696 0.0
C53 C 0.86652 0.14451 0.22703 0.0
C54 C 0.85845 0.12882 0.23559 0.0
C55 C 0.83888 0.12574 0.23465 0.0
C56 C 0.85646 0.20884 0.16756 0.0
C57 C 0.85815 0.22852 0.16542 0.0
C58 C 0.84685 0.19842 0.15309 0.0
C59 C 0.8394 0.20739 0.13693 0.0
C60 C 0.84165 0.22698 0.13461 0.0
C61 C 0.85106 0.23738 0.14916 0.0
C62 C 0.82757 0.13907 0.2252 0.0
H63 H 0.9273 0.25063 0.22795 0.0
H64 H 0.89823 0.23648 0.21473 0.0
H65 H 0.91973 0.18104 0.22656 0.0
H66 H 0.94885 0.19538 0.24008 0.0
H67 H 0.88895 0.21841 0.18692 0.0
H68 H 0.88603 0.17789 0.23123 0.0
H69 H 0.84363 0.17752 0.18613 0.0
H70 H 0.82639 0.16516 0.21027 0.0
H71 H 0.88169 0.14598 0.22773 0.0
H72 H 0.86763 0.11926 0.24321 0.0
H73 H 0.86494 0.23723 0.17637 0.0
H74 H 0.84527 0.18326 0.15405 0.0
H75 H 0.81244 0.13718 0.22417 0.0
H76 H 0.85314 0.25247 0.14795 0.0
H77 H 0.83175 0.19893 0.12634 0.0
C78 C 0.8123 0.82215 0.12783 0.0
C79 C 0.8032 0.83298 0.11384 0.0
C80 C 0.82001 0.83077 0.14433 0.0
C81 C 0.81893 0.85042 0.1471 0.0
C82 C 0.81051 0.86124 0.13261 0.0
C83 C 0.8027 0.85263 0.11625 0.0
C84 C 0.82595 0.85955 0.16521 0.0
C85 C 0.84241 0.85323 0.17471 0.0
C86 C 0.84883 0.86131 0.19207 0.0
C87 C 0.83852 0.8761 0.19972 0.0
C88 C 0.82226 0.88297 0.19037 0.0
C89 C 0.81606 0.87453 0.17317 0.0
C90 C 0.81209 0.89917 0.1986 0.0
C91 C 0.80998 0.90049 0.21822 0.0
C92 C 0.80557 0.91407 0.18716 0.0
C93 C 0.79808 0.93027 0.19528 0.0
C94 C 0.79696 0.93183 0.21495 0.0
C95 C 0.8662 0.85438 0.20232 0.0
C96 C 0.87104 0.83523 0.2017 0.0
C97 C 0.87796 0.86683 0.21316 0.0
C98 C 0.89366 0.86026 0.22348 0.0
C99 C 0.89834 0.8411 0.22304 0.0
C100 C 0.88699 0.82874 0.21172 0.0
C101 C 0.80261 0.91666 0.22629 0.0
H102 H 0.81277 0.80697 0.12634 0.0
H103 H 0.82623 0.82191 0.15519 0.0
H104 H 0.8098 0.87642 0.13394 0.0
H105 H 0.79594 0.86132 0.10556 0.0
H106 H 0.85047 0.84225 0.16832 0.0
H107 H 0.8032 0.87935 0.16625 0.0
H108 H 0.84318 0.88241 0.21307 0.0
H109 H 0.81446 0.88918 0.22745 0.0
H110 H 0.80708 0.91361 0.17202 0.0
H111 H 0.79399 0.94192 0.1863 0.0
H112 H 0.86238 0.8251 0.19369 0.0
H113 H 0.87516 0.88175 0.21369 0.0
H114 H 0.80191 0.9176 0.2415 0.0
H115 H 0.89045 0.814 0.21045 0.0
H116 H 0.90205 0.87024 0.23197 0.0
C117 C 0.19261 0.82013 0.11946 0.0
C118 C 0.21068 0.81292 0.12309 0.0
C119 C 0.18116 0.82468 0.13437 0.0
C120 C 0.18763 0.82214 0.1531 0.0
C121 C 0.20515 0.81387 0.15672 0.0
C122 C 0.21648 0.80907 0.14184 0.0
C123 C 0.17798 0.83132 0.16862 0.0
C124 C 0.16033 0.82503 0.17438 0.0
C125 C 0.15123 0.83459 0.18889 0.0
C126 C 0.15997 0.85095 0.19701 0.0
C127 C 0.17775 0.85712 0.19139 0.0
C128 C 0.18662 0.84712 0.17729 0.0
C129 C 0.18728 0.87422 0.19961 0.0
C130 C 0.17811 0.89158 0.19987 0.0
C131 C 0.20637 0.8736 0.2054 0.0
C132 C 0.21633 0.89009 0.21046 0.0
C133 C 0.2075 0.90763 0.20966 0.0
C134 C 0.13292 0.82733 0.19587 0.0
C135 C 0.1192 0.81882 0.18352 0.0
C136 C 0.12907 0.82877 0.21515 0.0
C137 C 0.11189 0.82241 0.22178 0.0
C138 C 0.09818 0.81416 0.20942 0.0
C139 C 0.10204 0.81221 0.19025 0.0
C140 C 0.18815 0.90816 0.20484 0.0
H141 H 0.18774 0.8232 0.10516 0.0
H142 H 0.16779 0.8313 0.13132 0.0
H143 H 0.2104 0.81188 0.17112 0.0
H144 H 0.23005 0.80294 0.14506 0.0
H145 H 0.15402 0.81249 0.16786 0.0
H146 H 0.20014 0.85203 0.17254 0.0
H147 H 0.15306 0.85886 0.20778 0.0
H148 H 0.16344 0.89246 0.19537 0.0
H149 H 0.21372 0.86035 0.20557 0.0
H150 H 0.23106 0.88914 0.21473 0.0
H151 H 0.12151 0.81762 0.16856 0.0
H152 H 0.13937 0.83474 0.22522 0.0
H153 H 0.18096 0.92148 0.20421 0.0
H154 H 0.09159 0.80607 0.18042 0.0
H155 H 0.10929 0.82394 0.23667 0.0
C156 C 0.12393 0.83224 0.83682 0.0
C157 C 0.12346 0.83103 0.81706 0.0
C158 C 0.13986 0.83943 0.84674 0.0
C159 C 0.15574 0.84551 0.8371 0.0
C160 C 0.15489 0.84511 0.81721 0.0
C161 C 0.13891 0.83782 0.80727 0.0
C162 C 0.17344 0.85101 0.84787 0.0
C163 C 0.17973 0.84008 0.86329 0.0
C164 C 0.19636 0.84484 0.8737 0.0
C165 C 0.20683 0.86082 0.86842 0.0
C166 C 0.2008 0.87213 0.85314 0.0
C167 C 0.1841 0.86697 0.84286 0.0
C168 C 0.21177 0.88949 0.84823 0.0
C169 C 0.22046 0.90088 0.86252 0.0
C170 C 0.21375 0.89482 0.82931 0.0
C171 C 0.22406 0.91108 0.82482 0.0
C172 C 0.23267 0.92246 0.83913 0.0
C173 C 0.20256 0.83337 0.89035 0.0
C174 C 0.18945 0.82684 0.90325 0.0
C175 C 0.22167 0.82928 0.89378 0.0
C176 C 0.22753 0.8193 0.90988 0.0
C177 C 0.21445 0.81311 0.92295 0.0
C178 C 0.19532 0.81689 0.91937 0.0
C179 C 0.23086 0.91703 0.85802 0.0
H180 H 0.11223 0.82687 0.84464 0.0
H181 H 0.13993 0.83979 0.86202 0.0
H182 H 0.16692 0.84957 0.80937 0.0
H183 H 0.13893 0.8367 0.79202 0.0
H184 H 0.17183 0.82754 0.86697 0.0
H185 H 0.17904 0.87568 0.8313 0.0
H186 H 0.21966 0.86454 0.87639 0.0
H187 H 0.2191 0.89746 0.87727 0.0
H188 H 0.20752 0.88631 0.81789 0.0
H189 H 0.22516 0.91484 0.81012 0.0
H190 H 0.17466 0.82989 0.9012 0.0
H191 H 0.23214 0.83391 0.88407 0.0
H192 H 0.23765 0.92519 0.8694 0.0
H193 H 0.18492 0.81238 0.92921 0.0
H194 H 0.24241 0.81697 0.91241 0.0
C195 C 0.22991 0.20356 0.9229 0.0
C196 C 0.24967 0.20343 0.9243 0.0
C197 C 0.22022 0.19838 0.90608 0.0
C198 C 0.22999 0.19297 0.89012 0.0
C199 C 0.24977 0.19256 0.89155 0.0
C200 C 0.25951 0.19788 0.90842 0.0
C201 C 0.21946 0.18821 0.87203 0.0
C202 C 0.20429 0.19931 0.86578 0.0
C203 C 0.19364 0.19476 0.84917 0.0
C204 C 0.19863 0.17882 0.83857 0.0
C205 C 0.21391 0.16755 0.84443 0.0
C206 C 0.2242 0.17244 0.86122 0.0
C207 C 0.2189 0.15038 0.8334 0.0
C208 C 0.20485 0.13841 0.82513 0.0
C209 C 0.23783 0.14549 0.83151 0.0
C210 C 0.24255 0.12888 0.82216 0.0
C211 C 0.22849 0.11665 0.81441 0.0
C212 C 0.17732 0.20668 0.84309 0.0
C213 C 0.16567 0.21461 0.85657 0.0
C214 C 0.17334 0.21049 0.82388 0.0
C215 C 0.15831 0.22202 0.81837 0.0
C216 C 0.14698 0.2302 0.83191 0.0
C217 C 0.15077 0.22625 0.85106 0.0
C218 C 0.20959 0.12181 0.81571 0.0
H219 H 0.22189 0.2082 0.93469 0.0
H220 H 0.205 0.1987 0.90556 0.0
H221 H 0.25773 0.1886 0.87948 0.0
H222 H 0.27473 0.19779 0.90903 0.0
H223 H 0.201 0.21181 0.87377 0.0
H224 H 0.23555 0.16358 0.86627 0.0
H225 H 0.19055 0.17513 0.82578 0.0
H226 H 0.19012 0.14158 0.82634 0.0
H227 H 0.24908 0.15448 0.83735 0.0
H228 H 0.25725 0.12536 0.82143 0.0
H229 H 0.16794 0.2117 0.87145 0.0
H230 H 0.18205 0.20487 0.81308 0.0
H231 H 0.1984 0.11293 0.80957 0.0
H232 H 0.14204 0.23199 0.86179 0.0
H233 H 0.15574 0.22483 0.80349 0.0
C234 C 0.86845 0.13527 0.82933 0.0
C235 C 0.84874 0.13617 0.82799 0.0
C236 C 0.87929 0.15118 0.83474 0.0
C237 C 0.87055 0.16815 0.83919 0.0
C238 C 0.85085 0.1691 0.83749 0.0
C239 C 0.84005 0.15329 0.8319 0.0
C240 C 0.88172 0.18444 0.84694 0.0
C241 C 0.89768 0.19125 0.83797 0.0
C242 C 0.90823 0.20676 0.8455 0.0
C243 C 0.90245 0.21522 0.86241 0.0
C244 C 0.88628 0.20869 0.87136 0.0
C245 C 0.87622 0.19318 0.86354 0.0
C246 C 0.87964 0.21778 0.88888 0.0
C247 C 0.89236 0.22357 0.90354 0.0
C248 C 0.86026 0.21985 0.89142 0.0
C249 C 0.85373 0.22667 0.90845 0.0
C250 C 0.86639 0.23176 0.92338 0.0
C251 C 0.92468 0.21455 0.83527 0.0
C252 C 0.93607 0.20281 0.82454 0.0
C253 C 0.92885 0.23401 0.83571 0.0
C254 C 0.9437 0.24147 0.82567 0.0
C255 C 0.95452 0.22988 0.81431 0.0
C256 C 0.95073 0.21038 0.81414 0.0
C257 C 0.88581 0.23057 0.92057 0.0
H258 H 0.87544 0.1222 0.82635 0.0
H259 H 0.89444 0.15005 0.83609 0.0
H260 H 0.84377 0.18205 0.84078 0.0
H261 H 0.82488 0.15429 0.83115 0.0
H262 H 0.90143 0.18478 0.82479 0.0
H263 H 0.86416 0.18755 0.87066 0.0
H264 H 0.91039 0.22701 0.86858 0.0
H265 H 0.90736 0.22219 0.90211 0.0
H266 H 0.85005 0.21595 0.88029 0.0
H267 H 0.8387 0.22749 0.91009 0.0
H268 H 0.9337 0.1877 0.82413 0.0
H269 H 0.92045 0.24368 0.84353 0.0
H270 H 0.89596 0.23487 0.9316 0.0
H271 H 0.95893 0.201 0.80575 0.0
H272 H 0.94665 0.25646 0.82681 0.0
C273 C 0.8062 0.84662 0.89637 0.0
C274 C 0.81384 0.84369 0.91473 0.0
C275 C 0.8177 0.85244 0.88182 0.0
C276 C 0.83713 0.85517 0.88521 0.0
C277 C 0.84479 0.85233 0.9035 0.0
C278 C 0.83326 0.84694 0.91813 0.0
C279 C 0.84937 0.86134 0.86985 0.0
C280 C 0.84522 0.87775 0.85966 0.0
C281 C 0.85705 0.88418 0.84555 0.0
C282 C 0.87309 0.87375 0.8416 0.0
C283 C 0.87729 0.85693 0.85126 0.0
C284 C 0.86534 0.85099 0.86554 0.0
C285 C 0.89389 0.84548 0.8461 0.0
C286 C 0.89972 0.84494 0.82735 0.0
C287 C 0.90404 0.83496 0.85974 0.0
C288 C 0.91931 0.82402 0.85469 0.0
C289 C 0.92501 0.82347 0.83592 0.0
C290 C 0.8527 0.90177 0.83493 0.0
C291 C 0.83409 0.90586 0.82914 0.0
C292 C 0.8671 0.91466 0.83053 0.0
C293 C 0.86298 0.93121 0.82068 0.0
C294 C 0.84438 0.93529 0.81494 0.0
C295 C 0.82998 0.92243 0.81933 0.0
C296 C 0.91521 0.83438 0.82242 0.0
H297 H 0.79135 0.84423 0.89319 0.0
H298 H 0.81145 0.85455 0.86783 0.0
H299 H 0.85968 0.85468 0.90655 0.0
H300 H 0.83958 0.84559 0.93219 0.0
H301 H 0.83304 0.88583 0.86318 0.0
H302 H 0.86806 0.83801 0.87305 0.0
H303 H 0.88226 0.87877 0.83083 0.0
H304 H 0.89224 0.8525 0.81627 0.0
H305 H 0.90034 0.83522 0.8744 0.0
H306 H 0.92655 0.81585 0.86549 0.0
H307 H 0.82266 0.89621 0.83213 0.0
H308 H 0.88156 0.91214 0.83499 0.0
H309 H 0.91953 0.8349 0.80796 0.0
H310 H 0.81544 0.92535 0.81552 0.0
H311 H 0.87437 0.94088 0.81759 0.0
C312 C 0.19983 0.69857 0.60324 0.0
C313 C 0.19551 0.71769 0.6008 0.0
C314 C 0.1968 0.68954 0.62035 0.0
C315 C 0.18956 0.69942 0.63566 0.0
C316 C 0.18493 0.71849 0.63311 0.0
C317 C 0.1877 0.72745 0.61586 0.0
C318 C 0.18713 0.68993 0.65423 0.0
C319 C 0.2 0.67635 0.66075 0.0
C320 C 0.19789 0.66727 0.67815 0.0
C321 C 0.18292 0.67238 0.68942 0.0
C322 C 0.16994 0.68607 0.68334 0.0
C323 C 0.17205 0.69447 0.66558 0.0
C324 C 0.1543 0.6918 0.69555 0.0
C325 C 0.14491 0.67858 0.70672 0.0
C326 C 0.14861 0.71069 0.69611 0.0
C327 C 0.13398 0.71619 0.70742 0.0
C328 C 0.12481 0.70305 0.71879 0.0
C329 C 0.21134 0.6524 0.68441 0.0
C330 C 0.21774 0.63911 0.6714 0.0
C331 C 0.21781 0.65124 0.70338 0.0
C332 C 0.23028 0.63715 0.70917 0.0
C333 C 0.23667 0.62392 0.69613 0.0
C334 C 0.23023 0.62506 0.67719 0.0
C335 C 0.13037 0.68414 0.7182 0.0
H336 H 0.20591 0.6906 0.59199 0.0
H337 H 0.20015 0.67477 0.62152 0.0
H338 H 0.17946 0.72668 0.64454 0.0
H339 H 0.18374 0.74204 0.61436 0.0
H340 H 0.212 0.6731 0.65247 0.0
H341 H 0.16168 0.70437 0.66041 0.0
H342 H 0.18138 0.66569 0.70297 0.0
H343 H 0.14863 0.66385 0.70646 0.0
H344 H 0.15557 0.72137 0.68793 0.0
H345 H 0.12975 0.73077 0.7071 0.0
H346 H 0.21281 0.63933 0.65675 0.0
H347 H 0.21341 0.66136 0.71374 0.0
H348 H 0.12356 0.67365 0.72674 0.0
H349 H 0.23452 0.61481 0.66689 0.0
H350 H 0.23505 0.63668 0.72385 0.0
C351 C 0.91812 0.75007 0.69689 0.0
C352 C 0.93575 0.74148 0.6986 0.0
C353 C 0.90291 0.74076 0.68748 0.0
C354 C 0.90505 0.72257 0.68002 0.0
C355 C 0.92293 0.71446 0.68086 0.0
C356 C 0.93818 0.7239 0.68994 0.0
C357 C 0.88835 0.71101 0.67379 0.0
C358 C 0.87635 0.71653 0.65869 0.0
C359 C 0.86061 0.70524 0.65298 0.0
C360 C 0.85687 0.68855 0.66295 0.0
C361 C 0.8685 0.68307 0.67844 0.0
C362 C 0.88428 0.69441 0.68358 0.0
C363 C 0.86404 0.66584 0.68959 0.0
C364 C 0.84528 0.66071 0.69301 0.0
C365 C 0.87852 0.6547 0.69746 0.0
C366 C 0.87439 0.63913 0.70869 0.0
C367 C 0.85568 0.63411 0.71204 0.0
C368 C 0.84808 0.71076 0.6366 0.0
C369 C 0.84268 0.72959 0.63415 0.0
C370 C 0.84137 0.6972 0.62329 0.0
C371 C 0.82964 0.70233 0.60791 0.0
C372 C 0.82419 0.72113 0.60552 0.0
C373 C 0.83088 0.73471 0.61881 0.0
C374 C 0.84117 0.64497 0.70402 0.0
H375 H 0.91588 0.76349 0.70374 0.0
H376 H 0.88921 0.7472 0.68717 0.0
H377 H 0.92488 0.70042 0.67527 0.0
H378 H 0.95156 0.71689 0.69137 0.0
H379 H 0.87957 0.72934 0.65114 0.0
H380 H 0.89321 0.69071 0.69568 0.0
H381 H 0.84476 0.67987 0.65869 0.0
H382 H 0.83374 0.66908 0.68756 0.0
H383 H 0.89311 0.65792 0.6949 0.0
H384 H 0.88582 0.63088 0.71461 0.0
H385 H 0.84747 0.74038 0.64417 0.0
H386 H 0.84542 0.68261 0.62458 0.0
H387 H 0.82662 0.6415 0.70659 0.0
H388 H 0.82725 0.74938 0.61716 0.0
H389 H 0.82481 0.69158 0.59786 0.0
C390 C 0.84584 0.3425 0.61757 0.0
C391 C 0.83478 0.35476 0.60652 0.0
C392 C 0.85629 0.34931 0.63345 0.0
C393 C 0.85596 0.36854 0.63844 0.0
C394 C 0.84582 0.38089 0.62652 0.0
C395 C 0.8352 0.37405 0.61087 0.0
C396 C 0.86438 0.37546 0.65691 0.0
C397 C 0.88173 0.36885 0.66436 0.0
C398 C 0.88894 0.37488 0.68236 0.0
C399 C 0.87827 0.38768 0.69268 0.0
C400 C 0.86133 0.39486 0.68517 0.0
C401 C 0.85444 0.38851 0.66748 0.0
C402 C 0.85102 0.40942 0.69562 0.0
C403 C 0.84853 0.40773 0.71509 0.0
C404 C 0.84427 0.42552 0.68626 0.0
C405 C 0.83593 0.43999 0.6963 0.0
C406 C 0.83406 0.43859 0.71589 0.0
C407 C 0.90741 0.36798 0.69062 0.0
C408 C 0.91432 0.35011 0.68594 0.0
C409 C 0.91817 0.37909 0.70377 0.0
C410 C 0.93444 0.37217 0.7128 0.0
C411 C 0.94106 0.35414 0.70853 0.0
C412 C 0.93105 0.34348 0.69447 0.0
C413 C 0.84012 0.42214 0.7251 0.0
H414 H 0.84567 0.32754 0.61444 0.0
H415 H 0.86382 0.33938 0.64232 0.0
H416 H 0.8456 0.39585 0.62961 0.0
H417 H 0.82693 0.38377 0.60241 0.0
H418 H 0.88968 0.35932 0.65591 0.0
H419 H 0.84093 0.39345 0.66217 0.0
H420 H 0.88309 0.39228 0.70664 0.0
H421 H 0.8533 0.39537 0.72264 0.0
H422 H 0.84615 0.4273 0.67128 0.0
H423 H 0.83177 0.45264 0.68888 0.0
H424 H 0.9067 0.34096 0.67595 0.0
H425 H 0.91408 0.39324 0.70734 0.0
H426 H 0.83874 0.42063 0.74018 0.0
H427 H 0.93604 0.32991 0.69001 0.0
H428 H 0.94163 0.38096 0.72343 0.0
C429 C 0.23539 0.34125 0.63014 0.0
C430 C 0.25496 0.33991 0.633 0.0
C431 C 0.2242 0.34718 0.64481 0.0
C432 C 0.23242 0.35222 0.66253 0.0
C433 C 0.25203 0.35092 0.66533 0.0
C434 C 0.26316 0.34471 0.65076 0.0
C435 C 0.22071 0.35935 0.6779 0.0
C436 C 0.20424 0.34964 0.68285 0.0
C437 C 0.19329 0.35629 0.69755 0.0
C438 C 0.19895 0.37313 0.70702 0.0
C439 C 0.21531 0.38313 0.70222 0.0
C440 C 0.22609 0.37602 0.68765 0.0
C441 C 0.22105 0.40113 0.71217 0.0
C442 C 0.20754 0.41425 0.71744 0.0
C443 C 0.24016 0.40554 0.71613 0.0
C444 C 0.24563 0.42277 0.72456 0.0
C445 C 0.23217 0.43607 0.72935 0.0
C446 C 0.17599 0.34579 0.70317 0.0
C447 C 0.16353 0.33722 0.68958 0.0
C448 C 0.17144 0.34486 0.72229 0.0
C449 C 0.15454 0.33653 0.72758 0.0
C450 C 0.14185 0.32863 0.71397 0.0
C451 C 0.14662 0.32868 0.69495 0.0
C452 C 0.21303 0.43143 0.72601 0.0
H453 H 0.22874 0.3376 0.61656 0.0
H454 H 0.20915 0.34818 0.6422 0.0
H455 H 0.25874 0.35465 0.67886 0.0
H456 H 0.27823 0.34391 0.65328 0.0
H457 H 0.20028 0.3366 0.67558 0.0
H458 H 0.23847 0.38375 0.68343 0.0
H459 H 0.19056 0.3785 0.71821 0.0
H460 H 0.19271 0.41147 0.71456 0.0
H461 H 0.25097 0.39569 0.71266 0.0
H462 H 0.26049 0.42586 0.72692 0.0
H463 H 0.16646 0.33775 0.67472 0.0
H464 H 0.18083 0.35081 0.73323 0.0
H465 H 0.20225 0.44115 0.7299 0.0
H466 H 0.13694 0.32284 0.68419 0.0
H467 H 0.15117 0.33661 0.74235 0.0
C468 C 0.12913 0.31543 0.37195 0.0
C469 C 0.12456 0.31544 0.35249 0.0
C470 C 0.14582 0.32398 0.37906 0.0
C471 C 0.15848 0.33261 0.36688 0.0
C472 C 0.15406 0.33227 0.34735 0.0
C473 C 0.13732 0.32378 0.34025 0.0
C474 C 0.17615 0.34195 0.3746 0.0
C475 C 0.18639 0.33385 0.38978 0.0
C476 C 0.20266 0.34272 0.39782 0.0
C477 C 0.20878 0.35993 0.3901 0.0
C478 C 0.19923 0.36798 0.37443 0.0
C479 C 0.18281 0.35895 0.36692 0.0
C480 C 0.20676 0.38553 0.36566 0.0
C481 C 0.21458 0.40033 0.3769 0.0
C482 C 0.20682 0.38732 0.34589 0.0
C483 C 0.21466 0.40336 0.33762 0.0
C484 C 0.2226 0.41806 0.34888 0.0
C485 C 0.21356 0.3337 0.41381 0.0
C486 C 0.20456 0.32233 0.42715 0.0
C487 C 0.2332 0.33612 0.41574 0.0
C488 C 0.24347 0.32747 0.43035 0.0
C489 C 0.23462 0.31542 0.44309 0.0
C490 C 0.21498 0.31321 0.44149 0.0
C491 C 0.22245 0.41635 0.36862 0.0
H492 H 0.11978 0.30883 0.38172 0.0
H493 H 0.14863 0.32407 0.39419 0.0
H494 H 0.16358 0.33849 0.3375 0.0
H495 H 0.13419 0.32404 0.32518 0.0
H496 H 0.18188 0.32027 0.39498 0.0
H497 H 0.17498 0.36541 0.35534 0.0
H498 H 0.2212 0.36704 0.39608 0.0
H499 H 0.21458 0.39959 0.39216 0.0
H500 H 0.20125 0.3761 0.33677 0.0
H501 H 0.2149 0.40404 0.32237 0.0
H502 H 0.18944 0.32044 0.42659 0.0
H503 H 0.24087 0.34447 0.40581 0.0
H504 H 0.22833 0.42748 0.37768 0.0
H505 H 0.20765 0.30422 0.45117 0.0
H506 H 0.25847 0.33025 0.43159 0.0
C507 C 0.19672 0.68444 0.40824 0.0
C508 C 0.21632 0.68709 0.40877 0.0
C509 C 0.18703 0.67952 0.39135 0.0
C510 C 0.19675 0.67697 0.37467 0.0
C511 C 0.21641 0.67933 0.37525 0.0
C512 C 0.22609 0.68454 0.39212 0.0
C513 C 0.18623 0.67216 0.35671 0.0
C514 C 0.17033 0.68242 0.35114 0.0
C515 C 0.15942 0.67755 0.33477 0.0
C516 C 0.16512 0.66221 0.32366 0.0
C517 C 0.18138 0.65199 0.32877 0.0
C518 C 0.19175 0.65712 0.3454 0.0
C519 C 0.18743 0.63558 0.31725 0.0
C520 C 0.17422 0.62251 0.30933 0.0
C521 C 0.20666 0.63235 0.31492 0.0
C522 C 0.21256 0.61608 0.3058 0.0
C523 C 0.19941 0.60259 0.29863 0.0
C524 C 0.14221 0.68861 0.32957 0.0
C525 C 0.13153 0.69676 0.34372 0.0
C526 C 0.13652 0.69163 0.31058 0.0
C527 C 0.1209 0.70273 0.30595 0.0
C528 C 0.1108 0.71154 0.32016 0.0
C529 C 0.11628 0.70822 0.33909 0.0
C530 C 0.18015 0.60625 0.30007 0.0
H531 H 0.18885 0.68657 0.42082 0.0
H532 H 0.17189 0.67768 0.39133 0.0
H533 H 0.22422 0.67755 0.36257 0.0
H534 H 0.24121 0.6866 0.39219 0.0
H535 H 0.1667 0.6945 0.35959 0.0
H536 H 0.20383 0.64899 0.34997 0.0
H537 H 0.15691 0.65815 0.31106 0.0
H538 H 0.15931 0.62446 0.31085 0.0
H539 H 0.21724 0.64227 0.32045 0.0
H540 H 0.2275 0.61375 0.30493 0.0
H541 H 0.1349 0.69438 0.35852 0.0
H542 H 0.1443 0.68572 0.2992 0.0
H543 H 0.16963 0.59639 0.29431 0.0
H544 H 0.10892 0.71468 0.35048 0.0
H545 H 0.11675 0.70432 0.29121 0.0
C546 C 0.82696 0.62604 0.33342 0.0
C547 C 0.80721 0.62518 0.33287 0.0
C548 C 0.83659 0.64302 0.33743 0.0
C549 C 0.8267 0.65956 0.34104 0.0
C550 C 0.80692 0.65868 0.3406 0.0
C551 C 0.79727 0.64169 0.33641 0.0
C552 C 0.83705 0.67764 0.34515 0.0
C553 C 0.85236 0.68305 0.33434 0.0
C554 C 0.86251 0.69988 0.33829 0.0
C555 C 0.85711 0.71139 0.35336 0.0
C556 C 0.84187 0.70622 0.36443 0.0
C557 C 0.8319 0.68934 0.3601 0.0
C558 C 0.83662 0.71811 0.38085 0.0
C559 C 0.85053 0.72653 0.39299 0.0
C560 C 0.81762 0.72065 0.38487 0.0
C561 C 0.81268 0.731 0.40074 0.0
C562 C 0.82658 0.7392 0.41298 0.0
C563 C 0.87899 0.70521 0.32694 0.0
C564 C 0.89207 0.69158 0.32187 0.0
C565 C 0.88203 0.72398 0.32141 0.0
C566 C 0.89799 0.72909 0.31156 0.0
C567 C 0.91137 0.71558 0.30711 0.0
C568 C 0.90806 0.69671 0.31209 0.0
C569 C 0.84557 0.73694 0.40886 0.0
H570 H 0.83499 0.61362 0.33041 0.0
H571 H 0.85182 0.64318 0.3378 0.0
H572 H 0.7989 0.67121 0.34316 0.0
H573 H 0.78205 0.64143 0.33597 0.0
H574 H 0.85618 0.67425 0.32259 0.0
H575 H 0.82048 0.6849 0.36881 0.0
H576 H 0.86492 0.72432 0.35658 0.0
H577 H 0.8653 0.72464 0.39055 0.0
H578 H 0.80652 0.71464 0.37571 0.0
H579 H 0.79792 0.73261 0.40347 0.0
H580 H 0.89025 0.67701 0.32596 0.0
H581 H 0.87212 0.73478 0.32481 0.0
H582 H 0.85661 0.74277 0.4182 0.0
H583 H 0.91804 0.68596 0.30871 0.0
H584 H 0.90021 0.74376 0.30798 0.0
C585 C 0.81998 0.33823 0.41051 0.0
C586 C 0.83126 0.32839 0.42377 0.0
C587 C 0.82803 0.34838 0.39591 0.0
C588 C 0.84765 0.34918 0.3942 0.0
C589 C 0.85895 0.33952 0.40764 0.0
C590 C 0.85086 0.32914 0.42209 0.0
C591 C 0.85625 0.35956 0.37821 0.0
C592 C 0.84823 0.37624 0.3709 0.0
C593 C 0.85625 0.38577 0.35571 0.0
C594 C 0.87231 0.37837 0.34774 0.0
C595 C 0.88056 0.36194 0.35477 0.0
C596 C 0.87249 0.35262 0.36996 0.0
C597 C 0.89779 0.35478 0.34624 0.0
C598 C 0.89891 0.35356 0.32651 0.0
C599 C 0.91355 0.35011 0.35768 0.0
C600 C 0.93023 0.34468 0.34955 0.0
C601 C 0.93139 0.34352 0.32981 0.0
C602 C 0.84809 0.40339 0.34777 0.0
C603 C 0.82864 0.40488 0.34392 0.0
C604 C 0.86 0.41838 0.34266 0.0
C605 C 0.85279 0.4341 0.33328 0.0
C606 C 0.83346 0.43535 0.32888 0.0
C607 C 0.8214 0.42069 0.33453 0.0
C608 C 0.91552 0.34796 0.31839 0.0
H609 H 0.80483 0.33813 0.41142 0.0
H610 H 0.81877 0.35532 0.38578 0.0
H611 H 0.87412 0.33995 0.40707 0.0
H612 H 0.86001 0.32149 0.43178 0.0
H613 H 0.83603 0.38211 0.37728 0.0
H614 H 0.87865 0.33962 0.37493 0.0
H615 H 0.87851 0.38548 0.33595 0.0
H616 H 0.88692 0.35695 0.31735 0.0
H617 H 0.91316 0.35123 0.37291 0.0
H618 H 0.94235 0.34181 0.35873 0.0
H619 H 0.81912 0.39351 0.34748 0.0
H620 H 0.87501 0.41786 0.3457 0.0
H621 H 0.91593 0.34706 0.30316 0.0
H622 H 0.80645 0.42115 0.33114 0.0
H623 H 0.86239 0.44528 0.32935 0.0
C624 C 0.74477 0.19703 0.60819 0.0
C625 C 0.74809 0.21659 0.60848 0.0
C626 C 0.73644 0.18812 0.6234 0.0
C627 C 0.73101 0.19859 0.63917 0.0
C628 C 0.7337 0.21826 0.63913 0.0
C629 C 0.74221 0.22715 0.62398 0.0
C630 C 0.7237 0.18883 0.65603 0.0
C631 C 0.7329 0.1728 0.66304 0.0
C632 C 0.7267 0.16347 0.6791 0.0
C633 C 0.71101 0.17037 0.68821 0.0
C634 C 0.70125 0.18622 0.68138 0.0
C635 C 0.70789 0.19549 0.66529 0.0
C636 C 0.68413 0.19275 0.6911 0.0
C637 C 0.67199 0.17963 0.69946 0.0
C638 C 0.67999 0.21202 0.69266 0.0
C639 C 0.66436 0.21795 0.70249 0.0
C640 C 0.65248 0.20479 0.71113 0.0
C641 C 0.73647 0.14635 0.68628 0.0
C642 C 0.74251 0.13248 0.6737 0.0
C643 C 0.73947 0.14353 0.70578 0.0
C644 C 0.74782 0.12708 0.71254 0.0
C645 C 0.75339 0.11301 0.69998 0.0
C646 C 0.75091 0.11603 0.68047 0.0
C647 C 0.65662 0.18556 0.70953 0.0
H648 H 0.74907 0.18855 0.5964 0.0
H649 H 0.73438 0.17296 0.6229 0.0
H650 H 0.72975 0.22671 0.65107 0.0
H651 H 0.7443 0.2423 0.62443 0.0
H652 H 0.74529 0.16788 0.65624 0.0
H653 H 0.70052 0.20755 0.65963 0.0
H654 H 0.70634 0.16324 0.70067 0.0
H655 H 0.67433 0.16464 0.69834 0.0
H656 H 0.68903 0.22262 0.68664 0.0
H657 H 0.66161 0.23288 0.70336 0.0
H658 H 0.74036 0.13413 0.65859 0.0
H659 H 0.73531 0.15404 0.71588 0.0
H660 H 0.64821 0.17497 0.71639 0.0
H661 H 0.75537 0.10561 0.67043 0.0
H662 H 0.74953 0.12516 0.72766 0.0
C663 C 0.44181 0.24457 0.71069 0.0
C664 C 0.45725 0.23369 0.71663 0.0
C665 C 0.42425 0.23597 0.70625 0.0
C666 C 0.42166 0.21631 0.70788 0.0
C667 C 0.43711 0.20555 0.71406 0.0
C668 C 0.45458 0.21411 0.71843 0.0
C669 C 0.40313 0.20686 0.70295 0.0
C670 C 0.39234 0.21234 0.68688 0.0
C671 C 0.37556 0.20262 0.68141 0.0
C672 C 0.36952 0.1874 0.69236 0.0
C673 C 0.37982 0.1818 0.70867 0.0
C674 C 0.39658 0.19172 0.71385 0.0
C675 C 0.37324 0.16533 0.71991 0.0
C676 C 0.3539 0.16183 0.72208 0.0
C677 C 0.38613 0.15258 0.72805 0.0
C678 C 0.37985 0.13671 0.73782 0.0
C679 C 0.36053 0.13309 0.73955 0.0
C680 C 0.36465 0.20787 0.66388 0.0
C681 C 0.36126 0.22686 0.65959 0.0
C682 C 0.35763 0.19386 0.65119 0.0
C683 C 0.34787 0.19873 0.63445 0.0
C684 C 0.34483 0.21772 0.63001 0.0
C685 C 0.35136 0.23172 0.64289 0.0
C686 C 0.34764 0.14585 0.73163 0.0
H687 H 0.44337 0.2597 0.70933 0.0
H688 H 0.41264 0.24474 0.70173 0.0
H689 H 0.43578 0.19039 0.71533 0.0
H690 H 0.46602 0.20535 0.72345 0.0
H691 H 0.3974 0.22365 0.67813 0.0
H692 H 0.40448 0.18778 0.72654 0.0
H693 H 0.35677 0.17975 0.68799 0.0
H694 H 0.34351 0.17145 0.71641 0.0
H695 H 0.40109 0.15456 0.72646 0.0
H696 H 0.39009 0.12697 0.74359 0.0
H697 H 0.36628 0.23798 0.66914 0.0
H698 H 0.3601 0.1791 0.65398 0.0
H699 H 0.33267 0.14348 0.73289 0.0
H700 H 0.34931 0.24648 0.63975 0.0
H701 H 0.34291 0.18764 0.62483 0.0
C702 C 0.31837 0.81456 0.6364 0.0
C703 C 0.31418 0.82383 0.61936 0.0
C704 C 0.32559 0.82457 0.65213 0.0
C705 C 0.329 0.84411 0.65119 0.0
C706 C 0.32418 0.85359 0.6344 0.0
C707 C 0.31691 0.8435 0.61857 0.0
C708 C 0.3396 0.85381 0.66701 0.0
C709 C 0.35596 0.84548 0.67439 0.0
C710 C 0.36626 0.85344 0.68976 0.0
C711 C 0.36017 0.87043 0.69763 0.0
C712 C 0.34371 0.87921 0.69045 0.0
C713 C 0.33361 0.87082 0.67492 0.0
C714 C 0.33683 0.89673 0.69961 0.0
C715 C 0.33804 0.8988 0.71938 0.0
C716 C 0.32914 0.91157 0.68883 0.0
C717 C 0.32328 0.92817 0.6976 0.0
C718 C 0.32496 0.93031 0.71733 0.0
C719 C 0.38327 0.8436 0.69728 0.0
C720 C 0.38292 0.82385 0.69902 0.0
C721 C 0.40026 0.85346 0.70134 0.0
C722 C 0.41667 0.84368 0.70628 0.0
C723 C 0.41637 0.82387 0.7073 0.0
C724 C 0.39928 0.81411 0.70386 0.0
C725 C 0.33224 0.91533 0.72808 0.0
H726 H 0.31679 0.79939 0.6374 0.0
H727 H 0.32912 0.8169 0.66491 0.0
H728 H 0.32681 0.8686 0.63325 0.0
H729 H 0.31377 0.85101 0.6056 0.0
H730 H 0.36089 0.8327 0.66788 0.0
H731 H 0.32076 0.87708 0.66943 0.0
H732 H 0.36819 0.87669 0.70944 0.0
H733 H 0.34343 0.88757 0.72821 0.0
H734 H 0.3281 0.91056 0.67358 0.0
H735 H 0.31798 0.93955 0.6889 0.0
H736 H 0.37 0.81584 0.69632 0.0
H737 H 0.40103 0.86864 0.69996 0.0
H738 H 0.33353 0.91644 0.74333 0.0
H739 H 0.39859 0.79889 0.70479 0.0
H740 H 0.42972 0.85155 0.70868 0.0
C741 C 0.69829 0.83332 0.63374 0.0
C742 C 0.71805 0.83361 0.63309 0.0
C743 C 0.68943 0.8379 0.65048 0.0
C744 C 0.70015 0.84295 0.66686 0.0
C745 C 0.71986 0.8424 0.66641 0.0
C746 C 0.72868 0.83765 0.6498 0.0
C747 C 0.69108 0.85046 0.68387 0.0
C748 C 0.676 0.84089 0.6922 0.0
C749 C 0.6679 0.84829 0.7085 0.0
C750 C 0.67466 0.8657 0.71583 0.0
C751 C 0.68958 0.87538 0.70769 0.0
C752 C 0.69775 0.86762 0.6918 0.0
C753 C 0.6968 0.89346 0.71607 0.0
C754 C 0.68432 0.90724 0.72208 0.0
C755 C 0.71624 0.8969 0.71848 0.0
C756 C 0.72305 0.91367 0.72683 0.0
C757 C 0.71058 0.92736 0.73298 0.0
C758 C 0.65249 0.83819 0.71824 0.0
C759 C 0.63763 0.82907 0.70798 0.0
C760 C 0.65198 0.83864 0.7381 0.0
C761 C 0.6367 0.831 0.74738 0.0
C762 C 0.62166 0.82224 0.73715 0.0
C763 C 0.62241 0.82118 0.71733 0.0
C764 C 0.69115 0.92403 0.73041 0.0
H765 H 0.68968 0.83018 0.62114 0.0
H766 H 0.67422 0.83828 0.65039 0.0
H767 H 0.72849 0.84595 0.6789 0.0
H768 H 0.74389 0.83733 0.65001 0.0
H769 H 0.67104 0.82748 0.68635 0.0
H770 H 0.70909 0.87522 0.68527 0.0
H771 H 0.66836 0.87176 0.72809 0.0
H772 H 0.66927 0.90512 0.72014 0.0
H773 H 0.7262 0.88647 0.71422 0.0
H774 H 0.73811 0.91584 0.72873 0.0
H775 H 0.63746 0.82853 0.69271 0.0
H776 H 0.66331 0.84521 0.74656 0.0
H777 H 0.68123 0.93452 0.73462 0.0
H778 H 0.6111 0.8144 0.70901 0.0
H779 H 0.63649 0.83244 0.76259 0.0
C780 C 0.59924 0.8386 0.35117 0.0
C781 C 0.59813 0.83157 0.33253 0.0
C782 C 0.61637 0.84499 0.35935 0.0
C783 C 0.63272 0.84507 0.34893 0.0
C784 C 0.63145 0.83936 0.32989 0.0
C785 C 0.61431 0.83256 0.32178 0.0
C786 C 0.65109 0.85032 0.35832 0.0
C787 C 0.65751 0.84044 0.3744 0.0
C788 C 0.67459 0.84549 0.38396 0.0
C789 C 0.68505 0.86091 0.37725 0.0
C790 C 0.67882 0.87107 0.36123 0.0
C791 C 0.6619 0.86544 0.35169 0.0
C792 C 0.68974 0.88787 0.35489 0.0
C793 C 0.69784 0.90073 0.36818 0.0
C794 C 0.69207 0.89129 0.33558 0.0
C795 C 0.70235 0.90708 0.32975 0.0
C796 C 0.7106 0.91979 0.34308 0.0
C797 C 0.68137 0.83495 0.4011 0.0
C798 C 0.66868 0.82829 0.41438 0.0
C799 C 0.70067 0.83176 0.40453 0.0
C800 C 0.70713 0.82274 0.421 0.0
C801 C 0.69448 0.81656 0.4345 0.0
C802 C 0.67514 0.81913 0.43078 0.0
C803 C 0.70811 0.91648 0.36235 0.0
H804 H 0.58692 0.8386 0.35966 0.0
H805 H 0.61692 0.84965 0.37395 0.0
H806 H 0.64388 0.83938 0.32155 0.0
H807 H 0.61392 0.82729 0.30739 0.0
H808 H 0.64927 0.82857 0.37922 0.0
H809 H 0.6567 0.87327 0.33954 0.0
H810 H 0.69805 0.86517 0.38464 0.0
H811 H 0.69599 0.89881 0.38314 0.0
H812 H 0.68617 0.88162 0.32496 0.0
H813 H 0.70406 0.90924 0.3148 0.0
H814 H 0.65373 0.83052 0.41235 0.0
H815 H 0.71088 0.83629 0.39451 0.0
H816 H 0.71387 0.92626 0.37295 0.0
H817 H 0.66496 0.81417 0.44064 0.0
H818 H 0.72212 0.821 0.42339 0.0
C819 C 0.68236 0.2201 0.40682 0.0
C820 C 0.70184 0.22109 0.41081 0.0
C821 C 0.67511 0.2113 0.39035 0.0
C822 C 0.68713 0.20345 0.37722 0.0
C823 C 0.70665 0.2043 0.38124 0.0
C824 C 0.71392 0.21309 0.39783 0.0
C825 C 0.67917 0.19503 0.35919 0.0
C826 C 0.66401 0.20376 0.34963 0.0
C827 C 0.65552 0.19582 0.33316 0.0
C828 C 0.66271 0.17899 0.32596 0.0
C829 C 0.67812 0.1701 0.33501 0.0
C830 C 0.68628 0.17829 0.35165 0.0
C831 C 0.68543 0.15214 0.32717 0.0
C832 C 0.67297 0.13798 0.31998 0.0
C833 C 0.70487 0.14903 0.32665 0.0
C834 C 0.71166 0.13226 0.3191 0.0
C835 C 0.69918 0.11816 0.31188 0.0
C836 C 0.63903 0.20508 0.32363 0.0
C837 C 0.62514 0.21362 0.33429 0.0
C838 C 0.63697 0.20538 0.30382 0.0
C839 C 0.62127 0.21357 0.29494 0.0
C840 C 0.60729 0.22176 0.30562 0.0
C841 C 0.6095 0.22198 0.32537 0.0
C842 C 0.67976 0.1212 0.3125 0.0
H843 H 0.67266 0.22644 0.41629 0.0
H844 H 0.66 0.21071 0.38789 0.0
H845 H 0.71633 0.19856 0.37139 0.0
H846 H 0.729 0.21362 0.40051 0.0
H847 H 0.65896 0.21703 0.35492 0.0
H848 H 0.69776 0.1713 0.35906 0.0
H849 H 0.65625 0.17272 0.31328 0.0
H850 H 0.65791 0.13972 0.32038 0.0
H851 H 0.71489 0.15964 0.33194 0.0
H852 H 0.7267 0.1302 0.31922 0.0
H853 H 0.62608 0.21348 0.34957 0.0
H854 H 0.64753 0.19935 0.29512 0.0
H855 H 0.66977 0.11059 0.30715 0.0
H856 H 0.59885 0.22811 0.3339 0.0
H857 H 0.61999 0.21346 0.27966 0.0
C858 C 0.36295 0.10437 0.33296 0.0
C859 C 0.34347 0.10326 0.32908 0.0
C860 C 0.37095 0.11984 0.34275 0.0
C861 C 0.35966 0.13457 0.34888 0.0
C862 C 0.34007 0.13297 0.346 0.0
C863 C 0.33205 0.11749 0.33609 0.0
C864 C 0.36855 0.15269 0.35525 0.0
C865 C 0.38185 0.16109 0.34383 0.0
C866 C 0.38988 0.1787 0.3484 0.0
C867 C 0.38437 0.18817 0.36467 0.0
C868 C 0.37145 0.17982 0.37691 0.0
C869 C 0.36346 0.16198 0.37185 0.0
C870 C 0.36649 0.18978 0.3948 0.0
C871 C 0.37937 0.20241 0.40403 0.0
C872 C 0.34886 0.18697 0.40282 0.0
C873 C 0.34426 0.19659 0.41929 0.0
C874 C 0.3568 0.20991 0.42789 0.0
C875 C 0.40394 0.18703 0.33584 0.0
C876 C 0.41843 0.17586 0.32918 0.0
C877 C 0.40245 0.20572 0.32961 0.0
C878 C 0.41496 0.21292 0.31662 0.0
C879 C 0.4293 0.20163 0.30983 0.0
C880 C 0.43096 0.18307 0.3163 0.0
C881 C 0.3745 0.2125 0.42008 0.0
H882 H 0.37214 0.09377 0.32754 0.0
H883 H 0.38611 0.12076 0.34474 0.0
H884 H 0.33108 0.14422 0.3504 0.0
H885 H 0.31697 0.11693 0.33336 0.0
H886 H 0.38554 0.1541 0.33086 0.0
H887 H 0.3536 0.15503 0.38085 0.0
H888 H 0.39031 0.20204 0.3677 0.0
H889 H 0.39336 0.20462 0.39897 0.0
H890 H 0.33838 0.17754 0.39632 0.0
H891 H 0.33079 0.19352 0.42524 0.0
H892 H 0.41997 0.16143 0.33382 0.0
H893 H 0.39131 0.21457 0.33438 0.0
H894 H 0.38463 0.22256 0.42622 0.0
H895 H 0.44173 0.174 0.31111 0.0
H896 H 0.41343 0.2273 0.31184 0.0
C897 C 0.28106 0.83439 0.40712 0.0
C898 C 0.29032 0.83055 0.4245 0.0
C899 C 0.2906 0.84362 0.39286 0.0
C900 C 0.30968 0.84871 0.39559 0.0
C901 C 0.31887 0.845 0.41303 0.0
C902 C 0.30924 0.83612 0.42741 0.0
C903 C 0.32011 0.8576 0.38019 0.0
C904 C 0.31319 0.87373 0.37126 0.0
C905 C 0.32309 0.88253 0.35687 0.0
C906 C 0.3403 0.87485 0.3515 0.0
C907 C 0.34743 0.85842 0.3602 0.0
C908 C 0.33705 0.84996 0.37452 0.0
C909 C 0.36547 0.84976 0.3544 0.0
C910 C 0.37092 0.85011 0.33551 0.0
C911 C 0.37705 0.84027 0.36769 0.0
C912 C 0.39309 0.83087 0.36221 0.0
C913 C 0.39853 0.83115 0.34335 0.0
C914 C 0.31536 0.89993 0.34792 0.0
C915 C 0.29589 0.90146 0.34402 0.0
C916 C 0.3271 0.91546 0.34411 0.0
C917 C 0.3195 0.93224 0.33709 0.0
C918 C 0.29997 0.93392 0.33378 0.0
C919 C 0.28831 0.91822 0.33707 0.0
C920 C 0.38725 0.84102 0.3301 0.0
H921 H 0.26652 0.83003 0.40453 0.0
H922 H 0.28324 0.84627 0.3795 0.0
H923 H 0.33355 0.84889 0.4155 0.0
H924 H 0.31674 0.83303 0.44059 0.0
H925 H 0.30027 0.87973 0.37597 0.0
H926 H 0.34181 0.83706 0.38107 0.0
H927 H 0.34807 0.88167 0.34056 0.0
H928 H 0.36237 0.85701 0.32475 0.0
H929 H 0.37371 0.8399 0.38245 0.0
H930 H 0.40098 0.82302 0.37279 0.0
H931 H 0.28643 0.88969 0.34646 0.0
H932 H 0.34213 0.91484 0.347 0.0
H933 H 0.39098 0.84163 0.31545 0.0
H934 H 0.27323 0.91899 0.33456 0.0
H935 H 0.32894 0.9439 0.33422 0.0
C936 C 0.67925 0.71765 0.11344 0.0
C937 C 0.67923 0.73744 0.11399 0.0
C938 C 0.67473 0.70717 0.12935 0.0
C939 C 0.66985 0.71623 0.14613 0.0
C940 C 0.66936 0.73604 0.14652 0.0
C941 C 0.67408 0.74653 0.13065 0.0
C942 C 0.66574 0.70502 0.16326 0.0
C943 C 0.67744 0.69008 0.16873 0.0
C944 C 0.67383 0.67922 0.18477 0.0
C945 C 0.65819 0.68365 0.19546 0.0
C946 C 0.64627 0.69861 0.19035 0.0
C947 C 0.65024 0.7092 0.17417 0.0
C948 C 0.62971 0.70314 0.20188 0.0
C949 C 0.61906 0.68874 0.21022 0.0
C950 C 0.62447 0.72195 0.2048 0.0
C951 C 0.60904 0.72621 0.21563 0.0
C952 C 0.59841 0.71182 0.22393 0.0
C953 C 0.68641 0.66332 0.19034 0.0
C954 C 0.69442 0.65192 0.17654 0.0
C955 C 0.6906 0.65939 0.20948 0.0
C956 C 0.70222 0.64439 0.21464 0.0
C957 C 0.7101 0.63296 0.20084 0.0
C958 C 0.70621 0.63707 0.18171 0.0
C959 C 0.60372 0.69303 0.22119 0.0
H960 H 0.68317 0.71027 0.1008 0.0
H961 H 0.67504 0.69194 0.12851 0.0
H962 H 0.66574 0.74345 0.15925 0.0
H963 H 0.67374 0.76177 0.1314 0.0
H964 H 0.68971 0.68725 0.16067 0.0
H965 H 0.64098 0.72043 0.16973 0.0
H966 H 0.65528 0.67541 0.20784 0.0
H967 H 0.62245 0.67408 0.20818 0.0
H968 H 0.63244 0.73348 0.19892 0.0
H969 H 0.60534 0.74084 0.2174 0.0
H970 H 0.69144 0.65432 0.16166 0.0
H971 H 0.68505 0.668 0.22055 0.0
H972 H 0.59616 0.68159 0.22769 0.0
H973 H 0.71238 0.62888 0.17068 0.0
H974 H 0.70489 0.64164 0.22951 0.0
C975 C 0.39791 0.74358 0.20182 0.0
C976 C 0.41469 0.7354 0.20859 0.0
C977 C 0.38316 0.73232 0.19404 0.0
C978 C 0.38475 0.71259 0.19314 0.0
C979 C 0.40163 0.70447 0.19973 0.0
C980 C 0.41642 0.71573 0.20731 0.0
C981 C 0.36882 0.70046 0.1856 0.0
C982 C 0.35883 0.70532 0.1689 0.0
C983 C 0.34417 0.69367 0.16138 0.0
C984 C 0.33941 0.67702 0.17088 0.0
C985 C 0.34882 0.67209 0.18799 0.0
C986 C 0.3636 0.68393 0.19511 0.0
C987 C 0.34304 0.65488 0.19862 0.0
C988 C 0.324 0.64923 0.19906 0.0
C989 C 0.35644 0.64409 0.2087 0.0
C990 C 0.35093 0.62837 0.21913 0.0
C991 C 0.33189 0.62288 0.21972 0.0
C992 C 0.33398 0.69895 0.14351 0.0
C993 C 0.32706 0.71726 0.14117 0.0
C994 C 0.33169 0.68601 0.12844 0.0
C995 C 0.3232 0.69148 0.11119 0.0
C996 C 0.31647 0.70986 0.10883 0.0
C997 C 0.3183 0.72261 0.12406 0.0
C998 C 0.31853 0.63339 0.20932 0.0
H999 H 0.39612 0.75868 0.20278 0.0
H1000 H 0.3703 0.73901 0.1892 0.0
H1001 H 0.40337 0.68935 0.19909 0.0
H1002 H 0.42901 0.70896 0.21278 0.0
H1003 H 0.36282 0.71793 0.1614 0.0
H1004 H 0.37078 0.68062 0.2084 0.0
H1005 H 0.32824 0.66799 0.16494 0.0
H1006 H 0.31319 0.6572 0.19168 0.0
H1007 H 0.37126 0.64769 0.20848 0.0
H1008 H 0.36162 0.6206 0.22692 0.0
H1009 H 0.32857 0.72749 0.15256 0.0
H1010 H 0.337 0.67185 0.12981 0.0
H1011 H 0.3038 0.62932 0.20898 0.0
H1012 H 0.31353 0.73695 0.12253 0.0
H1013 H 0.32208 0.68144 0.09961 0.0
C1014 C 0.34263 0.31746 0.12686 0.0
C1015 C 0.33571 0.32795 0.1114 0.0
C1016 C 0.3492 0.32655 0.14353 0.0
C1017 C 0.34881 0.34632 0.1452 0.0
C1018 C 0.34225 0.35679 0.12961 0.0
C1019 C 0.33587 0.34774 0.11293 0.0
C1020 C 0.35497 0.35603 0.16317 0.0
C1021 C 0.37164 0.35078 0.17289 0.0
C1022 C 0.37771 0.35991 0.18979 0.0
C1023 C 0.36679 0.37449 0.1969 0.0
C1024 C 0.34988 0.37988 0.18757 0.0
C1025 C 0.34418 0.37055 0.17064 0.0
C1026 C 0.3381 0.39497 0.19576 0.0
C1027 C 0.33682 0.39683 0.21545 0.0
C1028 C 0.32808 0.40769 0.18412 0.0
C1029 C 0.31728 0.4219 0.19197 0.0
C1030 C 0.31638 0.42393 0.21168 0.0
C1031 C 0.39544 0.35416 0.20001 0.0
C1032 C 0.40018 0.33503 0.20125 0.0
C1033 C 0.4078 0.36768 0.20854 0.0
C1034 C 0.42458 0.36223 0.21779 0.0
C1035 C 0.42948 0.34314 0.21862 0.0
C1036 C 0.41697 0.3296 0.21041 0.0
C1037 C 0.32627 0.41114 0.22326 0.0
H1038 H 0.34234 0.3022 0.12634 0.0
H1039 H 0.35403 0.31807 0.15535 0.0
H1040 H 0.34205 0.37204 0.13032 0.0
H1041 H 0.3308 0.35627 0.10124 0.0
H1042 H 0.38015 0.33987 0.16698 0.0
H1043 H 0.33101 0.37417 0.16349 0.0
H1044 H 0.37146 0.38161 0.20984 0.0
H1045 H 0.3439 0.38713 0.22495 0.0
H1046 H 0.32876 0.40685 0.16891 0.0
H1047 H 0.30955 0.43121 0.18258 0.0
H1048 H 0.39088 0.32418 0.19517 0.0
H1049 H 0.4047 0.38255 0.20779 0.0
H1050 H 0.32606 0.41228 0.23849 0.0
H1051 H 0.42035 0.31478 0.21075 0.0
H1052 H 0.43374 0.37299 0.22425 0.0
C1053 C 0.70457 0.35077 0.11432 0.0
C1054 C 0.72424 0.34935 0.1152 0.0
C1055 C 0.69522 0.35966 0.12873 0.0
C1056 C 0.70518 0.36694 0.14478 0.0
C1057 C 0.72492 0.36615 0.14544 0.0
C1058 C 0.73435 0.35744 0.1308 0.0
C1059 C 0.69469 0.37372 0.16126 0.0
C1060 C 0.67841 0.36384 0.1663 0.0
C1061 C 0.66782 0.36979 0.18137 0.0
C1062 C 0.67383 0.3857 0.19193 0.0
C1063 C 0.69013 0.39591 0.18729 0.0
C1064 C 0.70059 0.38972 0.17195 0.0
C1065 C 0.69583 0.41323 0.19827 0.0
C1066 C 0.68222 0.42609 0.20381 0.0
C1067 C 0.7148 0.41697 0.20349 0.0
C1068 C 0.71998 0.4331 0.21409 0.0
C1069 C 0.70633 0.44586 0.21972 0.0
C1070 C 0.65037 0.35927 0.18575 0.0
C1071 C 0.63731 0.35419 0.17115 0.0
C1072 C 0.64698 0.35362 0.20427 0.0
C1073 C 0.63109 0.34261 0.208 0.0
C1074 C 0.61825 0.33714 0.19329 0.0
C1075 C 0.62137 0.34334 0.17489 0.0
C1076 C 0.68741 0.44221 0.21436 0.0
H1077 H 0.69621 0.34431 0.10286 0.0
H1078 H 0.68003 0.3603 0.12754 0.0
H1079 H 0.73303 0.37153 0.15762 0.0
H1080 H 0.74953 0.35666 0.13189 0.0
H1081 H 0.67404 0.35114 0.15863 0.0
H1082 H 0.71293 0.39765 0.16799 0.0
H1083 H 0.66569 0.3902 0.2037 0.0
H1084 H 0.66752 0.42383 0.1998 0.0
H1085 H 0.72563 0.40733 0.19955 0.0
H1086 H 0.73473 0.43573 0.21764 0.0
H1087 H 0.63943 0.35864 0.15678 0.0
H1088 H 0.65688 0.35727 0.21577 0.0
H1089 H 0.67658 0.45182 0.21839 0.0
H1090 H 0.61145 0.33988 0.16337 0.0
H1091 H 0.62903 0.33804 0.22234 0.0
C1092 C 0.6497 0.3294 0.84971 0.0
C1093 C 0.64714 0.32976 0.82993 0.0
C1094 C 0.66539 0.33812 0.85875 0.0
C1095 C 0.67905 0.34749 0.8483 0.0
C1096 C 0.67624 0.34834 0.82853 0.0
C1097 C 0.6605 0.33953 0.81944 0.0
C1098 C 0.69618 0.35607 0.85808 0.0
C1099 C 0.70554 0.34652 0.87305 0.0
C1100 C 0.72141 0.3546 0.88274 0.0
C1101 C 0.7277 0.37257 0.87728 0.0
C1102 C 0.71893 0.38221 0.86219 0.0
C1103 C 0.70319 0.37383 0.85262 0.0
C1104 C 0.7268 0.4008 0.85636 0.0
C1105 C 0.73336 0.41407 0.87004 0.0
C1106 C 0.72914 0.40486 0.83719 0.0
C1107 C 0.73851 0.42141 0.83191 0.0
C1108 C 0.7458 0.43421 0.84568 0.0
C1109 C 0.7316 0.34455 0.89856 0.0
C1110 C 0.72195 0.33289 0.91109 0.0
C1111 C 0.75116 0.34709 0.90166 0.0
C1112 C 0.76057 0.3391 0.91724 0.0
C1113 C 0.75089 0.32786 0.93004 0.0
C1114 C 0.7315 0.32448 0.92646 0.0
C1115 C 0.74277 0.43055 0.86476 0.0
H1116 H 0.63959 0.32215 0.85824 0.0
H1117 H 0.66684 0.33749 0.874 0.0
H1118 H 0.68653 0.35529 0.81999 0.0
H1119 H 0.65917 0.33979 0.80418 0.0
H1120 H 0.70069 0.33255 0.8768 0.0
H1121 H 0.69611 0.38138 0.84125 0.0
H1122 H 0.73967 0.37914 0.88472 0.0
H1123 H 0.73143 0.41161 0.8849 0.0
H1124 H 0.7244 0.39491 0.8263 0.0
H1125 H 0.74061 0.42391 0.81708 0.0
H1126 H 0.70693 0.33052 0.90931 0.0
H1127 H 0.75934 0.35538 0.89209 0.0
H1128 H 0.74779 0.44039 0.87564 0.0
H1129 H 0.72362 0.31533 0.93553 0.0
H1130 H 0.77548 0.34205 0.9194 0.0
C1131 C 0.7016 0.71295 0.91924 0.0
C1132 C 0.72095 0.71391 0.92413 0.0
C1133 C 0.69513 0.7055 0.90176 0.0
C1134 C 0.70783 0.6987 0.88871 0.0
C1135 C 0.7272 0.69969 0.89363 0.0
C1136 C 0.73366 0.70715 0.91111 0.0
C1137 C 0.70096 0.69034 0.87019 0.0
C1138 C 0.68581 0.6983 0.8597 0.0
C1139 C 0.67971 0.69062 0.84208 0.0
C1140 C 0.68876 0.67472 0.83515 0.0
C1141 C 0.70369 0.66642 0.84534 0.0
C1142 C 0.70967 0.67432 0.86287 0.0
C1143 C 0.71334 0.64993 0.83717 0.0
C1144 C 0.70309 0.63599 0.82667 0.0
C1145 C 0.733 0.64859 0.83881 0.0
C1146 C 0.74219 0.634 0.82982 0.0
C1147 C 0.732 0.62044 0.81884 0.0
C1148 C 0.66379 0.69873 0.83068 0.0
C1149 C 0.64703 0.70373 0.83912 0.0
C1150 C 0.66469 0.69995 0.81091 0.0
C1151 C 0.64899 0.70509 0.79979 0.0
C1152 C 0.63202 0.70945 0.80814 0.0
C1153 C 0.63131 0.709 0.82796 0.0
C1154 C 0.71232 0.62151 0.8175 0.0
H1155 H 0.69143 0.7181 0.92891 0.0
H1156 H 0.68012 0.70479 0.89861 0.0
H1157 H 0.73744 0.6948 0.88391 0.0
H1158 H 0.74863 0.70739 0.91452 0.0
H1159 H 0.67912 0.71078 0.86496 0.0
H1160 H 0.72092 0.66774 0.87102 0.0
H1161 H 0.68415 0.6688 0.82159 0.0
H1162 H 0.6879 0.63638 0.82533 0.0
H1163 H 0.74139 0.65913 0.84657 0.0
H1164 H 0.75737 0.63345 0.83133 0.0
H1165 H 0.64581 0.70284 0.85427 0.0
H1166 H 0.67746 0.69645 0.80395 0.0
H1167 H 0.70406 0.61145 0.80899 0.0
H1168 H 0.61846 0.7124 0.83482 0.0
H1169 H 0.64998 0.70496 0.78459 0.0
C1170 C 0.36104 0.62702 0.82208 0.0
C1171 C 0.34161 0.6232 0.82264 0.0
C1172 C 0.36869 0.6443 0.82861 0.0
C1173 C 0.35711 0.6582 0.83595 0.0
C1174 C 0.33761 0.65446 0.83623 0.0
C1175 C 0.32998 0.63717 0.82974 0.0
C1176 C 0.36536 0.67615 0.84408 0.0
C1177 C 0.38037 0.68567 0.8355 0.0
C1178 C 0.38825 0.70244 0.84347 0.0
C1179 C 0.38115 0.70932 0.86035 0.0
C1180 C 0.3661 0.70028 0.86891 0.0
C1181 C 0.35828 0.68374 0.86073 0.0
C1182 C 0.35825 0.70869 0.88607 0.0
C1183 C 0.37027 0.71534 0.90096 0.0
C1184 C 0.3388 0.71134 0.88709 0.0
C1185 C 0.33161 0.72111 0.90233 0.0
C1186 C 0.34372 0.72831 0.91687 0.0
C1187 C 0.40377 0.7131 0.83442 0.0
C1188 C 0.41848 0.70372 0.82582 0.0
C1189 C 0.40442 0.73295 0.83514 0.0
C1190 C 0.4196 0.74309 0.82816 0.0
C1191 C 0.43438 0.73375 0.81972 0.0
C1192 C 0.43358 0.71393 0.81854 0.0
C1193 C 0.36306 0.72497 0.91626 0.0
H1194 H 0.37038 0.61659 0.81661 0.0
H1195 H 0.38376 0.64655 0.82835 0.0
H1196 H 0.3282 0.66488 0.84156 0.0
H1197 H 0.31501 0.63462 0.83064 0.0
H1198 H 0.38554 0.6803 0.82238 0.0
H1199 H 0.34696 0.67654 0.86767 0.0
H1200 H 0.38721 0.72199 0.86686 0.0
H1201 H 0.3853 0.71332 0.90063 0.0
H1202 H 0.32922 0.70645 0.87579 0.0
H1203 H 0.31659 0.72324 0.90266 0.0
H1204 H 0.4186 0.68848 0.82512 0.0
H1205 H 0.39323 0.74077 0.84129 0.0
H1206 H 0.37267 0.73032 0.92734 0.0
H1207 H 0.44467 0.70627 0.81201 0.0
H1208 H 0.41987 0.75827 0.82973 0.0
C1209 C 0.3282 0.33944 0.8964 0.0
C1210 C 0.336 0.33073 0.91253 0.0
C1211 C 0.33955 0.34464 0.88154 0.0
C1212 C 0.35906 0.34143 0.88252 0.0
C1213 C 0.36678 0.3326 0.89872 0.0
C1214 C 0.35537 0.3272 0.91347 0.0
C1215 C 0.37126 0.34753 0.86686 0.0
C1216 C 0.36749 0.36427 0.85702 0.0
C1217 C 0.37851 0.37014 0.84202 0.0
C1218 C 0.39409 0.3593 0.83739 0.0
C1219 C 0.39841 0.34255 0.84715 0.0
C1220 C 0.38667 0.33671 0.86168 0.0
C1221 C 0.4151 0.33111 0.84221 0.0
C1222 C 0.42084 0.32984 0.82345 0.0
C1223 C 0.4256 0.32146 0.85626 0.0
C1224 C 0.44118 0.31078 0.85168 0.0
C1225 C 0.4469 0.30957 0.83295 0.0
C1226 C 0.37347 0.38753 0.83122 0.0
C1227 C 0.35447 0.39192 0.82747 0.0
C1228 C 0.38741 0.39998 0.82475 0.0
C1229 C 0.38244 0.4165 0.81514 0.0
C1230 C 0.36344 0.42104 0.81199 0.0
C1231 C 0.34954 0.40848 0.81808 0.0
C1232 C 0.4366 0.31941 0.81894 0.0
H1233 H 0.31325 0.34202 0.89516 0.0
H1234 H 0.33295 0.351 0.86918 0.0
H1235 H 0.38173 0.33012 0.90018 0.0
H1236 H 0.36174 0.32054 0.92579 0.0
H1237 H 0.35609 0.37304 0.86132 0.0
H1238 H 0.38928 0.32347 0.86871 0.0
H1239 H 0.40284 0.36393 0.82611 0.0
H1240 H 0.41311 0.33681 0.81213 0.0
H1241 H 0.42196 0.32231 0.87092 0.0
H1242 H 0.44875 0.30342 0.86286 0.0
H1243 H 0.34332 0.38251 0.83174 0.0
H1244 H 0.40217 0.39722 0.82748 0.0
H1245 H 0.44084 0.31932 0.80444 0.0
H1246 H 0.33479 0.41148 0.81552 0.0
H1247 H 0.39342 0.42598 0.8106 0.0
Cu1248 Cu 0.28335 0.27068 0.01692 0.0
N1249 N 0.28168 0.29032 0.99941 0.0
N1250 N 0.29051 0.30736 0.97467 0.0
C1251 C 0.29506 0.29348 0.98686 0.0
C1252 C 0.27346 0.31319 0.97983 0.0
C1253 C 0.26807 0.30268 0.99513 0.0
O1254 O 0.28733 0.24837 1.00133 0.0
C1255 C 0.29751 0.29313 0.04498 0.0
O1256 O 0.28164 0.30096 0.03946 0.0
H1257 H 0.30786 0.28548 0.98658 0.0
H1258 H 0.255 0.30373 1.00228 0.0
N1259 N 0.26174 0.26573 0.03052 0.0
N1260 N 0.2449 0.25321 0.05348 0.0
C1261 C 0.26214 0.25563 0.04656 0.0
C1262 C 0.24355 0.27 0.0272 0.0
C1263 C 0.23313 0.26229 0.04138 0.0
C1264 C 0.27335 0.24519 0.98983 0.0
O1265 O 0.2588 0.25627 0.99024 0.0
H1266 H 0.27489 0.24991 0.05288 0.0
H1267 H 0.23817 0.27794 0.01528 0.0
O1268 O 0.30247 0.27837 0.03617 0.0
H1269 H 0.2651 0.32376 0.97267 0.0
H1270 H 0.21812 0.26353 0.04279 0.0
Cu1271 Cu 0.79659 0.27412 0.03025 0.0
N1272 N 0.77456 0.28168 0.0439 0.0
N1273 N 0.75559 0.29862 0.06133 0.0
C1274 C 0.77347 0.29588 0.05653 0.0
C1275 C 0.74501 0.28586 0.05133 0.0
C1276 C 0.75679 0.27538 0.04056 0.0
O1277 O 0.80696 0.26014 0.05354 0.0
C1278 C 0.79307 0.29778 0.99531 0.0
O1279 O 0.8111 0.30173 0.99761 0.0
H1280 H 0.78529 0.30458 0.06146 0.0
H1281 H 0.75267 0.26436 0.03054 0.0
N1282 N 0.81885 0.26677 0.01666 0.0
N1283 N 0.83785 0.25641 0.99468 0.0
C1284 C 0.81984 0.2593 0.99918 0.0
C1285 C 0.83674 0.26869 0.02333 0.0
C1286 C 0.84849 0.2623 1.00982 0.0
C1287 C 0.81421 0.26833 0.06818 0.0
O1288 O 0.81551 0.2868 0.06872 0.0
H1289 H 0.80771 0.25622 0.98992 0.0
H1290 H 0.84095 0.27459 0.03699 0.0
O1291 O 0.78498 0.28689 1.0068 0.0
H1292 H 0.72987 0.28438 0.05169 0.0
H1293 H 0.8637 0.26247 1.01081 0.0
Cu1294 Cu 0.7493 0.78489 0.0151 0.0
N1295 N 0.75195 0.8049 0.99828 0.0
N1296 N 0.76533 0.82135 0.9753 0.0
C1297 C 0.76444 0.80476 0.98452 0.0
C1298 C 0.75244 0.83222 0.98343 0.0
C1299 C 0.74422 0.82206 0.9976 0.0
O1300 O 0.75254 0.7626 0.99911 0.0
C1301 C 0.76328 0.80393 0.04612 0.0
O1302 O 0.74912 0.81418 0.04007 0.0
H1303 H 0.77264 0.79254 0.98143 0.0
H1304 H 0.73372 0.82699 1.00699 0.0
N1305 N 0.72574 0.78348 0.026 0.0
N1306 N 0.70503 0.77551 0.04762 0.0
C1307 C 0.72332 0.77692 0.04353 0.0
C1308 C 0.70832 0.78632 0.01861 0.0
C1309 C 0.69546 0.78125 0.03192 0.0
C1310 C 0.74027 0.74934 0.99714 0.0
O1311 O 0.72728 0.74766 1.00969 0.0
H1312 H 0.73479 0.77232 0.05277 0.0
H1313 H 0.70519 0.79101 1.00436 0.0
O1314 O 0.76737 0.78943 0.03641 0.0
H1315 H 0.74951 0.84669 0.97979 0.0
H1316 H 0.6803 0.78141 0.0301 0.0
Cu1317 Cu 0.27572 0.77245 0.01692 0.0
N1318 N 0.27251 0.79068 0.0355 0.0
N1319 N 0.26021 0.80361 0.06093 0.0
C1320 C 0.25956 0.78897 0.04871 0.0
C1321 C 0.27414 0.81507 0.05511 0.0
C1322 C 0.28182 0.80696 0.03948 0.0
O1323 O 0.27922 0.74933 0.03134 0.0
C1324 C 0.2465 0.78813 0.9948 0.0
O1325 O 0.25027 0.80278 1.00577 0.0
H1326 H 0.25003 0.77698 0.04946 0.0
H1327 H 0.29337 0.81256 0.0317 0.0
N1328 N 0.29637 0.77717 1.00222 0.0
N1329 N 0.31494 0.7715 0.97827 0.0
C1330 C 0.30435 0.76389 0.99168 0.0
C1331 C 0.30209 0.79378 0.99517 0.0
C1332 C 0.31368 0.79032 0.98044 0.0
C1333 C 0.29551 0.74655 0.03887 0.0
O1334 O 0.30952 0.75775 0.03452 0.0
H1335 H 0.30096 0.749 0.9926 0.0
H1336 H 0.29681 0.80736 0.99917 0.0
O1337 O 0.25459 0.77258 0.99843 0.0
H1338 H 0.27832 0.82849 0.06141 0.0
H1339 H 0.31971 0.80075 0.97128 0.0
Cu1340 Cu 0.03669 0.28353 0.27961 0.0
N1341 N 0.05233 0.28531 0.25922 0.0
N1342 N 0.07614 0.27766 0.24132 0.0
C1343 C 0.06782 0.27491 0.25781 0.0
C1344 C 0.06544 0.29023 0.23182 0.0
C1345 C 0.0508 0.29513 0.24305 0.0
O1346 O 0.05405 0.28024 0.30129 0.0
C1347 C 1.00805 0.26597 0.25949 0.0
O1348 O 1.01113 0.28129 0.24971 0.0
H1349 H 0.0725 0.26495 0.26843 0.0
H1350 H 0.03963 0.30477 0.23948 0.0
N1351 N 0.02285 0.30526 0.28302 0.0
N1352 N 0.99989 0.32277 0.29407 0.0
C1353 C 1.0059 0.3052 0.29074 0.0
C1354 C 0.02767 0.32352 0.28099 0.0
C1355 C 1.01341 0.3344 0.28771 0.0
C1356 C 0.05361 0.29008 0.31636 0.0
O1357 O 0.03855 0.29985 0.31951 0.0
H1358 H 0.99837 0.2924 0.29419 0.0
H1359 H 0.04089 0.32853 0.2757 0.0
O1360 O 0.01838 0.26319 0.27429 0.0
H1361 H 0.06796 0.29534 0.21777 0.0
H1362 H 1.01335 0.34963 0.2886 0.0
Cu1363 Cu 0.76293 0.02537 0.27972 0.0
N1364 N 0.78514 0.03991 0.281 0.0
N1365 N 0.80588 0.06213 0.273 0.0
C1366 C 0.78809 0.0555 0.27069 0.0
C1367 C 0.81449 0.05041 0.28534 0.0
C1368 C 0.80161 0.03676 0.29037 0.0
O1369 O 0.74302 0.04414 0.27799 0.0
C1370 C 0.77898 0.99693 0.26024 0.0
O1371 O 0.78965 0.99833 0.27573 0.0
H1372 H 0.7776 0.06143 0.26109 0.0
H1373 H 0.80422 0.02508 0.29978 0.0
N1374 N 0.76037 1.01053 0.30126 0.0
N1375 N 0.75091 0.98675 0.31939 0.0
C1376 C 0.75068 0.99407 0.30184 0.0
C1377 C 0.76692 1.01382 0.31905 0.0
C1378 C 0.76109 0.99918 0.33029 0.0
C1379 C 0.73068 0.04599 0.29042 0.0
O1380 O 0.72847 0.03254 0.3028 0.0
H1381 H 0.74354 0.98764 0.28961 0.0
H1382 H 0.77505 0.02616 0.32359 0.0
O1383 O 0.76491 1.00779 0.2584 0.0
H1384 H 0.82909 0.05154 0.29017 0.0
H1385 H 0.76362 0.99812 0.34539 0.0
Cu1386 Cu 1.00482 0.77544 0.26862 0.0
N1387 N 0.98947 0.79645 0.27085 0.0
N1388 N 0.96506 0.81487 0.26382 0.0
C1389 C 0.97289 0.79795 0.26122 0.0
C1390 C 0.97717 0.82451 0.27555 0.0
C1391 C 0.99218 0.813 0.28007 0.0
O1392 O 0.9871 0.75406 0.26811 0.0
C1393 C 0.03079 0.79397 0.2484 0.0
O1394 O 0.02901 0.80481 0.26328 0.0
H1395 H 0.96702 0.78706 0.25186 0.0
H1396 H 1.0044 0.81665 0.28897 0.0
N1397 N 0.02232 0.77207 0.28872 0.0
N1398 N 0.04714 0.75969 0.30405 0.0
C1399 C 0.03736 0.76093 0.28747 0.0
C1400 C 0.02271 0.7783 0.30673 0.0
C1401 C 0.03795 0.77045 0.31631 0.0
C1402 C 0.97973 0.75109 0.28398 0.0
O1403 O 0.98516 0.76159 0.29855 0.0
H1404 H 0.0407 0.75336 0.27476 0.0
H1405 H 1.01239 0.78742 0.3126 0.0
O1406 O 0.0204 0.77916 0.24676 0.0
H1407 H 0.97538 0.83886 0.28033 0.0
H1408 H 0.04189 0.77236 0.33111 0.0
Cu1409 Cu 0.26462 0.01784 0.26332 0.0
N1410 N 0.28901 0.02805 0.26508 0.0
N1411 N 0.3123 0.04596 0.27797 0.0
C1412 C 0.29381 0.04474 0.27321 0.0
C1413 C 0.3196 0.02963 0.27202 0.0
C1414 C 0.30517 0.0186 0.26408 0.0
O1415 O 0.2471 0.03817 0.2581 0.0
C1416 C 0.27197 1.00347 0.30033 0.0
O1417 O 0.2819 0.01901 0.30336 0.0
H1418 H 0.28375 0.05499 0.27744 0.0
H1419 H 0.30612 1.00409 0.25948 0.0
N1420 N 0.26179 1.00098 0.24317 0.0
N1421 N 0.25054 0.97612 0.22654 0.0
C1422 C 0.25133 0.98503 0.24342 0.0
C1423 C 0.26784 1.00236 0.22549 0.0
C1424 C 0.26091 0.987 0.21516 0.0
C1425 C 0.2439 0.05201 0.26893 0.0
O1426 O 0.2503 0.05175 0.28656 0.0
H1427 H 0.24423 0.98018 0.25576 0.0
H1428 H 0.27622 1.01395 0.22036 0.0
O1429 O 0.26123 1.00219 0.28554 0.0
H1430 H 0.33408 0.0255 0.27428 0.0
H1431 H 0.26276 0.98449 0.20029 0.0
Cu1432 Cu 0.02736 0.77016 0.77407 0.0
N1433 N 0.04014 0.74743 0.77171 0.0
N1434 N 0.06215 0.72801 0.76176 0.0
C1435 C 0.05572 0.74576 0.76172 0.0
C1436 C 0.04999 0.71797 0.77202 0.0
C1437 C 0.03646 0.73005 0.77829 0.0
O1438 O 0.04713 0.78972 0.77656 0.0
C1439 C 0.99625 0.75882 0.75339 0.0
O1440 O 0.99695 0.74691 0.76749 0.0
H1441 H 0.06202 0.75736 0.75424 0.0
H1442 H 0.02475 0.7264 0.78689 0.0
N1443 N 1.01292 0.77174 0.7956 0.0
N1444 N 0.98984 0.78145 0.81364 0.0
C1445 C 0.99729 0.78209 0.79646 0.0
C1446 C 0.01552 0.76429 0.81291 0.0
C1447 C 1.00133 0.7704 0.82414 0.0
C1448 C 0.05938 0.78605 0.78962 0.0
O1449 O 0.05677 0.77099 0.79992 0.0
H1450 H 0.99168 0.79025 0.78475 0.0
H1451 H 0.02695 0.7552 0.81713 0.0
O1452 O 1.00935 0.77127 0.75247 0.0
H1453 H 0.05091 0.70304 0.77485 0.0
H1454 H 0.9995 0.76691 0.83881 0.0
Cu1455 Cu 0.2908 0.02631 0.77957 0.0
N1456 N 0.31261 0.04149 0.78149 0.0
N1457 N 0.33224 0.06553 0.77536 0.0
C1458 C 0.31519 0.05739 0.77157 0.0
C1459 C 0.34074 0.05416 0.7882 0.0
C1460 C 0.32856 0.03943 0.79204 0.0
O1461 O 0.27049 0.04462 0.7771 0.0
C1462 C 0.3076 0.99738 0.76124 0.0
O1463 O 0.31847 0.9999 0.77649 0.0
H1464 H 0.30465 0.0629 0.76177 0.0
H1465 H 0.33125 0.02791 0.80163 0.0
N1466 N 0.28747 1.01186 0.80126 0.0
N1467 N 0.27582 0.9891 0.81934 0.0
C1468 C 0.27827 0.99511 0.80157 0.0
C1469 C 0.29124 0.01651 0.81947 0.0
C1470 C 0.28406 1.00247 0.83067 0.0
C1471 C 0.25642 0.04474 0.78772 0.0
O1472 O 0.25285 0.02976 0.79781 0.0
H1473 H 0.27257 0.98797 0.78901 0.0
H1474 H 0.29809 0.0295 0.82425 0.0
O1475 O 0.29355 1.00819 0.75882 0.0
H1476 H 0.35493 0.05595 0.79403 0.0
H1477 H 0.28461 1.00226 0.84595 0.0
Cu1478 Cu 0.04524 0.28933 0.7675 0.0
N1479 N 0.02947 0.31029 0.76505 0.0
N1480 N 1.00607 0.32775 0.7528 0.0
C1481 C 0.01535 0.31135 0.75183 0.0
C1482 C 0.0148 0.33748 0.76715 0.0
C1483 C 0.02915 0.32664 0.77476 0.0
O1484 O 0.0278 0.26781 0.76905 0.0
C1485 C 0.07233 0.30654 0.7482 0.0
O1486 O 0.06841 0.31845 0.7617 0.0
H1487 H 1.0122 0.30034 0.7415 0.0
H1488 H 0.03871 0.33046 0.78644 0.0
N1489 N 0.06098 0.28837 0.78936 0.0
N1490 N 0.08446 0.27728 0.80796 0.0
C1491 C 0.07586 0.27689 0.79064 0.0
C1492 C 0.06003 0.29642 0.80652 0.0
C1493 C 0.07448 0.28958 0.81805 0.0
C1494 C 0.01703 0.26971 0.78293 0.0
O1495 O 0.01923 0.28464 0.79387 0.0
H1496 H 0.08013 0.2682 0.77901 0.0
H1497 H 0.04928 0.30606 0.81058 0.0
O1498 O 0.06293 0.29103 0.74702 0.0
H1499 H 1.01094 0.35134 0.77195 0.0
H1500 H 0.07688 0.29283 0.83288 0.0
Cu1501 Cu 0.78867 0.02889 0.7728 0.0
N1502 N 0.79293 0.04449 0.79375 0.0
N1503 N 0.80444 0.06902 0.81055 0.0
C1504 C 0.80153 0.06146 0.79318 0.0
C1505 C 0.79749 0.05624 0.82257 0.0
C1506 C 0.79024 0.0411 0.81211 0.0
O1507 O 0.78915 0.04545 0.751 0.0
C1508 C 0.82072 1.0076 0.78474 0.0
O1509 O 0.82588 0.02271 0.79454 0.0
H1510 H 0.80644 0.06769 0.78034 0.0
H1511 H 0.78411 0.02828 0.8175 0.0
N1512 N 0.7652 0.0171 0.77352 0.0
N1513 N 0.74298 0.99529 0.76681 0.0
C1514 C 0.76132 1.00002 0.76595 0.0
C1515 C 0.74878 0.02347 0.77959 0.0
C1516 C 0.73497 1.00996 0.77546 0.0
C1517 C 0.77759 0.04404 0.73687 0.0
O1518 O 0.76689 0.02885 0.73501 0.0
H1519 H 0.77172 0.99146 0.75938 0.0
H1520 H 0.74689 0.03717 0.78594 0.0
O1521 O 0.8066 1.00843 0.7732 0.0
H1522 H 0.79797 0.05759 0.8378 0.0
H1523 H 0.72012 1.01122 0.77781 0.0
Cu1524 Cu 0.25533 0.76111 0.5137 0.0
N1525 N 0.27659 0.76567 0.52935 0.0
N1526 N 0.29381 0.77874 0.55315 0.0
C1527 C 0.27634 0.77505 0.5459 0.0
C1528 C 0.30556 0.77149 0.54063 0.0
C1529 C 0.29488 0.76332 0.52596 0.0
O1530 O 0.23448 0.76037 0.53074 0.0
C1531 C 0.26654 0.77971 0.48201 0.0
O1532 O 0.27776 0.76522 0.48196 0.0
H1533 H 0.26359 0.78001 0.55196 0.0
H1534 H 0.30007 0.75682 0.5134 0.0
N1535 N 0.25634 0.73802 0.5009 0.0
N1536 N 0.25043 0.71638 0.47833 0.0
C1537 C 0.24855 0.73449 0.48359 0.0
C1538 C 0.26343 0.72153 0.50684 0.0
C1539 C 0.25977 0.70808 0.4929 0.0
C1540 C 0.22159 0.74769 0.53014 0.0
O1541 O 0.21975 0.73668 0.51519 0.0
H1542 H 0.24117 0.74493 0.4752 0.0
H1543 H 0.27048 0.71939 0.52043 0.0
O1544 O 0.25476 0.78118 0.49502 0.0
H1545 H 0.32076 0.77238 0.54183 0.0
H1546 H 0.26368 0.69342 0.49341 0.0
Cu1547 Cu 0.7661 0.78111 0.5216 0.0
N1548 N 0.78642 0.78357 0.5058 0.0
N1549 N 0.80399 0.7771 0.48111 0.0
C1550 C 0.78707 0.77497 0.48885 0.0
C1551 C 0.81441 0.78762 0.49372 0.0
C1552 C 0.80351 0.7916 0.50895 0.0
O1553 O 0.74408 0.7793 0.50411 0.0
C1554 C 0.78443 0.74911 0.53813 0.0
O1555 O 0.79413 0.74877 0.52277 0.0
H1556 H 0.77546 0.76673 0.48262 0.0
H1557 H 0.80799 0.79906 0.52175 0.0
N1558 N 0.76382 0.80191 0.53766 0.0
N1559 N 0.75444 0.81819 0.5627 0.0
C1560 C 0.75629 0.80099 0.55478 0.0
C1561 C 0.76694 0.82035 0.53454 0.0
C1562 C 0.76113 0.83044 0.54995 0.0
C1563 C 0.73009 0.79024 0.50488 0.0
O1564 O 0.72815 0.80037 0.52021 0.0
H1565 H 0.75174 0.78792 0.56106 0.0
H1566 H 0.77229 0.82607 0.52166 0.0
O1567 O 0.77045 0.76006 0.53889 0.0
H1568 H 0.82912 0.79132 0.49257 0.0
H1569 H 0.76098 0.84563 0.55118 0.0
Cu1570 Cu 0.77214 0.279 0.51335 0.0
N1571 N 0.74961 0.27532 0.49913 0.0
N1572 N 0.72977 0.2626 0.47713 0.0
C1573 C 0.74791 0.26611 0.48242 0.0
C1574 C 0.71963 0.27 0.49098 0.0
C1575 C 0.73192 0.2777 0.50459 0.0
O1576 O 0.79222 0.28166 0.49545 0.0
C1577 C 0.78221 0.2567 0.54634 0.0
O1578 O 0.79658 0.26827 0.54926 0.0
H1579 H 0.75977 0.2611 0.47483 0.0
H1580 H 0.72821 0.28369 0.51798 0.0
N1581 N 0.77271 0.30136 0.52765 0.0
N1582 N 0.78398 0.32327 0.54826 0.0
C1583 C 0.78776 0.30775 0.53807 0.0
C1584 C 0.75903 0.31371 0.53074 0.0
C1585 C 0.76593 0.32725 0.54341 0.0
C1586 C 0.78886 0.29415 0.48293 0.0
O1587 O 0.773 0.30331 0.4832 0.0
H1588 H 0.80119 0.30087 0.53849 0.0
H1589 H 0.74499 0.31291 0.5244 0.0
O1590 O 0.77237 0.25782 0.53099 0.0
H1591 H 0.70446 0.26947 0.49147 0.0
H1592 H 0.75817 0.33908 0.54854 0.0
Cu1593 Cu 0.30408 0.27314 0.53285 0.0
N1594 N 0.30625 0.29516 0.54743 0.0
N1595 N 0.29845 0.31463 0.57069 0.0
C1596 C 0.29798 0.29677 0.56411 0.0
C1597 C 0.30734 0.32477 0.55758 0.0
C1598 C 0.31226 0.31267 0.54326 0.0
O1599 O 0.3041 0.25295 0.55153 0.0
C1600 C 0.28409 0.2877 0.50306 0.0
O1601 O 0.30026 0.29679 0.50248 0.0
H1602 H 0.29054 0.28525 0.57063 0.0
H1603 H 0.31882 0.31657 0.53031 0.0
N1604 N 0.32383 0.26896 0.5166 0.0
N1605 N 0.33888 0.25584 0.49282 0.0
C1606 C 0.32314 0.25576 0.50282 0.0
C1607 C 0.34063 0.27774 0.51534 0.0
C1608 C 0.35002 0.26955 0.50074 0.0
C1609 C 0.32031 0.24918 0.55875 0.0
O1610 O 0.33515 0.25791 0.55242 0.0
H1611 H 0.31129 0.2462 0.5003 0.0
H1612 H 0.34566 0.28927 0.52434 0.0
O1613 O 0.28167 0.27581 0.51623 0.0
H1614 H 0.30952 0.3399 0.55801 0.0
H1615 H 0.3638 0.2736 0.49608 0.0
Cu1616 Cu 0.79911 0.53353 0.77791 0.0
N1617 N 0.8201 0.5492 0.77434 0.0
N1618 N 0.83714 0.57153 0.76039 0.0
C1619 C 0.82045 0.56226 0.76068 0.0
C1620 C 0.84766 0.56414 0.7747 0.0
C1621 C 0.83712 0.55029 0.78325 0.0
O1622 O 0.77735 0.54977 0.77794 0.0
C1623 C 0.81426 0.50377 0.76104 0.0
O1624 O 0.82612 0.50809 0.77514 0.0
H1625 H 0.8084 0.56513 0.75144 0.0
H1626 H 0.84158 0.5416 0.79503 0.0
N1627 N 0.79887 0.5207 0.8008 0.0
N1628 N 0.78864 0.49902 0.82092 0.0
C1629 C 0.78808 0.5052 0.80298 0.0
C1630 C 0.80661 0.52466 0.81803 0.0
C1631 C 0.80032 0.51123 0.83051 0.0
C1632 C 0.77988 0.564 0.78889 0.0
O1633 O 0.79605 0.56621 0.79826 0.0
H1634 H 0.77972 0.49873 0.79153 0.0
H1635 H 0.81562 0.53673 0.82139 0.0
O1636 O 0.79972 0.51388 0.75863 0.0
H1637 H 0.86199 0.56829 0.77859 0.0
H1638 H 0.80351 0.51097 0.84556 0.0
Cu1639 Cu 0.29931 0.52744 0.76327 0.0
N1640 N 0.32063 0.51236 0.76402 0.0
N1641 N 0.33929 0.489 0.77385 0.0
C1642 C 0.32214 0.49674 0.77461 0.0
C1643 C 0.34884 0.50001 0.76191 0.0
C1644 C 0.33731 0.51449 0.75593 0.0
O1645 O 0.27831 0.50936 0.76476 0.0
C1646 C 0.31617 0.54945 0.7937 0.0
O1647 O 0.32911 0.53648 0.79423 0.0
H1648 H 0.31076 0.49122 0.78272 0.0
H1649 H 0.34093 0.52593 0.74667 0.0
N1650 N 0.29657 0.54107 0.74088 0.0
N1651 N 0.28472 0.5631 0.72154 0.0
C1652 C 0.28707 0.55728 0.73955 0.0
C1653 C 0.3006 0.53644 0.72307 0.0
C1654 C 0.2933 0.55003 0.71109 0.0
C1655 C 0.26403 0.50903 0.75331 0.0
O1656 O 0.26101 0.52361 0.74239 0.0
H1657 H 0.28119 0.56419 0.75157 0.0
H1658 H 0.30745 0.52363 0.71902 0.0
O1659 O 0.30144 0.54686 0.78309 0.0
H1660 H 0.36327 0.49802 0.75817 0.0
H1661 H 0.2933 0.54966 0.69582 0.0
Cu1662 Cu 0.26995 0.51629 0.27046 0.0
N1663 N 0.26786 0.50405 0.29375 0.0
N1664 N 0.25843 0.483 0.31499 0.0
C1665 C 0.25787 0.48807 0.29664 0.0
C1666 C 0.26948 0.49616 0.32395 0.0
C1667 C 0.2752 0.50917 0.31084 0.0
O1668 O 0.27285 0.49709 0.25082 0.0
C1669 C 0.23385 0.53243 0.27613 0.0
O1670 O 0.23048 0.51719 0.2859 0.0
H1671 H 0.25043 0.4803 0.2854 0.0
H1672 H 0.28394 0.52158 0.31357 0.0
N1673 N 0.29123 0.53209 0.26997 0.0
N1674 N 0.30929 0.55624 0.26088 0.0
C1675 C 0.29167 0.549 0.26143 0.0
C1676 C 0.30923 0.52844 0.27498 0.0
C1677 C 0.32042 0.54331 0.26932 0.0
C1678 C 0.28373 0.48351 0.25508 0.0
O1679 O 0.29183 0.48299 0.27202 0.0
H1680 H 0.2794 0.55535 0.25477 0.0
H1681 H 0.31395 0.51557 0.28157 0.0
O1682 O 0.24881 0.53339 0.26685 0.0
H1683 H 0.27289 0.49655 0.33897 0.0
H1684 H 0.33559 0.54435 0.27089 0.0
Cu1685 Cu 0.76638 0.53535 0.26928 0.0
N1686 N 0.78829 0.52152 0.273 0.0
N1687 N 0.80684 0.49933 0.28552 0.0
C1688 C 0.78905 0.50527 0.28269 0.0
C1689 C 0.81768 0.51216 0.27684 0.0
C1690 C 0.80619 0.52593 0.26922 0.0
O1691 O 0.74627 0.51633 0.26772 0.0
C1692 C 0.77549 0.5541 0.30437 0.0
O1693 O 0.78419 0.53852 0.30895 0.0
H1694 H 0.77674 0.49823 0.28794 0.0
H1695 H 0.81061 0.53857 0.26207 0.0
N1696 N 0.76609 0.54892 0.24677 0.0
N1697 N 0.75604 0.5706 0.22617 0.0
C1698 C 0.75765 0.56564 0.24448 0.0
C1699 C 0.77028 0.54319 0.22931 0.0
C1700 C 0.76406 0.55658 0.21653 0.0
C1701 C 0.73305 0.51619 0.25508 0.0
O1702 O 0.72986 0.53157 0.24535 0.0
H1703 H 0.75144 0.57328 0.25587 0.0
H1704 H 0.77634 0.52975 0.22603 0.0
O1705 O 0.76529 0.55439 0.2892 0.0
H1706 H 0.83288 0.51203 0.2767 0.0
H1707 H 0.76473 0.55572 0.20132 0.0
Cu1708 Cu 0.55577 0.2671 0.77633 0.0
N1709 N 0.53977 0.26452 0.79661 0.0
N1710 N 0.51467 0.27076 0.81351 0.0
C1711 C 0.52274 0.27253 0.79672 0.0
C1712 C 0.52714 0.26134 0.82455 0.0
C1713 C 0.54258 0.25735 0.81403 0.0
O1714 O 0.53806 0.27022 0.75464 0.0
C1715 C 0.58588 0.28292 0.79609 0.0
O1716 O 0.58437 0.26595 0.80321 0.0
H1717 H 0.51677 0.2804 0.78497 0.0
H1718 H 0.55516 0.25029 0.81896 0.0
N1719 N 0.5702 0.24576 0.77143 0.0
N1720 N 0.59149 0.22798 0.75767 0.0
C1721 C 0.58437 0.24538 0.75935 0.0
C1722 C 0.56851 0.22801 0.77785 0.0
C1723 C 0.58157 0.21697 0.76926 0.0
C1724 C 0.52861 0.25516 0.75054 0.0
O1725 O 0.53233 0.23979 0.76006 0.0
H1726 H 0.58906 0.25754 0.75157 0.0
H1727 H 0.55827 0.22337 0.78777 0.0
O1728 O 0.57401 0.2875 0.78297 0.0
H1729 H 0.52536 0.25791 0.83924 0.0
H1730 H 0.58363 0.20204 0.77135 0.0
Cu1731 Cu 0.52483 0.76483 0.75884 0.0
N1732 N 0.5395 0.74339 0.7564 0.0
N1733 N 0.56389 0.72501 0.764 0.0
C1734 C 0.55808 0.74272 0.76073 0.0
C1735 C 0.54838 0.71399 0.76125 0.0
C1736 C 0.53337 0.72535 0.75652 0.0
O1737 O 0.54172 0.78661 0.75904 0.0
C1738 C 0.49882 0.77215 0.78803 0.0
O1739 O 0.49906 0.78979 0.78253 0.0
H1740 H 0.56682 0.75506 0.76345 0.0
H1741 H 0.51875 0.72098 0.7552 0.0
N1742 N 0.50796 0.76803 0.73823 0.0
N1743 N 0.48361 0.78079 0.72234 0.0
C1744 C 0.49069 0.77533 0.7393 0.0
C1745 C 0.51176 0.76843 0.71978 0.0
C1746 C 0.49666 0.77617 0.7099 0.0
C1747 C 0.5552 0.78974 0.771 0.0
O1748 O 0.55585 0.78009 0.78676 0.0
H1749 H 0.48371 0.77742 0.75234 0.0
H1750 H 0.52509 0.76467 0.71411 0.0
O1751 O 0.51016 0.76063 0.78104 0.0
H1752 H 0.54763 0.699 0.76393 0.0
H1753 H 0.4959 0.77939 0.69498 0.0
Cu1754 Cu 0.50152 0.77561 0.28269 0.0
N1755 N 0.48532 0.77672 0.30302 0.0
N1756 N 0.4623 0.78762 0.32048 0.0
C1757 C 0.47076 0.78859 0.30383 0.0
C1758 C 0.4718 0.77458 0.3306 0.0
C1759 C 0.48595 0.76778 0.31974 0.0
O1760 O 0.48544 0.77769 0.25977 0.0
C1761 C 0.53151 0.78995 0.3028 0.0
O1762 O 0.52735 0.77402 0.31108 0.0
H1763 H 0.46674 0.79813 0.29258 0.0
H1764 H 0.49614 0.75729 0.32386 0.0
N1765 N 0.51397 0.75276 0.2798 0.0
N1766 N 0.53509 0.73332 0.26808 0.0
C1767 C 0.52991 0.75135 0.2703 0.0
C1768 C 0.50887 0.73494 0.28388 0.0
C1769 C 0.52192 0.72288 0.27664 0.0
C1770 C 0.47142 0.7662 0.25963 0.0
O1771 O 0.46927 0.75509 0.27414 0.0
H1772 H 0.53716 0.76335 0.26441 0.0
H1773 H 0.49632 0.73097 0.29111 0.0
O1774 O 0.52154 0.79449 0.28818 0.0
H1775 H 0.46872 0.77031 0.34479 0.0
H1776 H 0.52164 0.70765 0.27746 0.0
Cu1777 Cu 0.51636 0.27468 0.24782 0.0
N1778 N 0.49975 0.2542 0.24522 0.0
N1779 N 0.47881 0.23327 0.25544 0.0
C1780 C 0.49304 0.2453 0.26027 0.0
C1781 C 0.47634 0.23471 0.23654 0.0
C1782 C 0.48935 0.24764 0.23023 0.0
O1783 O 0.50013 0.29582 0.25307 0.0
C1784 C 0.54322 0.25245 0.26329 0.0
O1785 O 0.53856 0.24413 0.24712 0.0
H1786 H 0.49755 0.24876 0.27466 0.0
H1787 H 0.49026 0.25269 0.21597 0.0
N1788 N 0.52965 0.27956 0.22617 0.0
N1789 N 0.55259 0.29196 0.20937 0.0
C1790 C 0.54679 0.28783 0.22674 0.0
C1791 C 0.52437 0.27837 0.20774 0.0
C1792 C 0.53858 0.28598 0.19731 0.0
C1793 C 0.50067 0.31131 0.24409 0.0
O1794 O 0.51549 0.3153 0.23433 0.0
H1795 H 0.55452 0.2915 0.23975 0.0
H1796 H 0.51081 0.27336 0.20229 0.0
O1797 O 0.53501 0.26771 0.26737 0.0
H1798 H 0.46538 0.2276 0.22805 0.0
H1799 H 0.53816 0.28799 0.18217 0.0
C1800 C 0.24844 0.23544 0.10343 0.0
C1801 C 0.23211 0.22414 0.10471 0.0
C1802 C 0.25258 0.24472 0.08662 0.0
C1803 C 0.24042 0.2433 0.07051 0.0
H1804 H 0.25808 0.23717 0.11555 0.0
H1805 H 0.26522 0.25339 0.08634 0.0
S1806 S 0.196 0.21526 0.06635 0.0
N1807 N 0.20378 0.21194 0.08832 0.0
N1808 N 0.21165 0.22928 0.05673 0.0
C1809 C 0.22413 0.23194 0.07154 0.0
C1810 C 0.21998 0.22235 0.08861 0.0
C1811 C 0.82565 0.25452 0.11899 0.0
C1812 C 0.83416 0.23681 0.11731 0.0
C1813 C 0.81931 0.26457 0.10305 0.0
C1814 C 0.82085 0.25721 0.08473 0.0
H1815 H 0.82381 0.26072 0.13278 0.0
H1816 H 0.81296 0.27815 0.10513 0.0
S1817 S 0.8426 0.21194 0.07219 0.0
N1818 N 0.84446 0.2128 0.09548 0.0
N1819 N 0.83174 0.23135 0.06566 0.0
C1820 C 0.82908 0.23947 0.08274 0.0
C1821 C 0.83589 0.22936 0.09897 0.0
C1822 C 0.80205 0.81274 0.08426 0.0
C1823 C 0.79284 0.82391 0.09744 0.0
C1824 C 0.79237 0.80554 0.06791 0.0
C1825 C 0.7732 0.8093 0.0643 0.0
H1826 H 0.81693 0.81008 0.08628 0.0
H1827 H 0.80008 0.79761 0.05774 0.0
S1828 S 0.7422 0.83525 0.09613 0.0
N1829 N 0.76318 0.83654 0.10686 0.0
N1830 N 0.74501 0.82313 0.07653 0.0
C1831 C 0.76372 0.81957 0.078 0.0
C1832 C 0.77353 0.82685 0.09446 0.0
C1833 C 0.21744 0.80161 0.09048 0.0
C1834 C 0.22376 0.81041 0.10744 0.0
C1835 C 0.22941 0.7995 0.0754 0.0
C1836 C 0.24816 0.80619 0.07663 0.0
H1837 H 0.20314 0.7962 0.08887 0.0
H1838 H 0.22384 0.79276 0.06258 0.0
S1839 S 0.27161 0.83039 0.11795 0.0
N1840 N 0.24992 0.82626 0.12445 0.0
N1841 N 0.27257 0.82167 0.09637 0.0
C1842 C 0.25468 0.81499 0.09352 0.0
C1843 C 0.24247 0.81721 0.10886 0.0
C1844 C 0.21476 0.81155 0.95825 0.0
C1845 C 0.22089 0.80428 0.94107 0.0
C1846 C 0.22229 0.80529 0.97563 0.0
C1847 C 0.23605 0.79129 0.97661 0.0
H1848 H 0.20474 0.82287 0.95828 0.0
H1849 H 0.21781 0.81201 0.98843 0.0
S1850 S 0.25579 0.76652 0.9358 0.0
N1851 N 0.24068 0.78139 0.92615 0.0
N1852 N 0.25481 0.7696 0.95886 0.0
C1853 C 0.24159 0.78315 0.95959 0.0
C1854 C 0.23407 0.78969 0.94183 0.0
C1855 C 0.27331 0.22512 0.94091 0.0
C1856 C 0.25972 0.21052 0.94188 0.0
C1857 C 0.27977 0.23503 0.95723 0.0
C1858 C 0.27304 0.23051 0.97505 0.0
H1859 H 0.27784 0.22993 0.92732 0.0
H1860 H 0.2888 0.24732 0.95566 0.0
S1861 S 0.23981 0.19168 0.98565 0.0
N1862 N 0.24174 0.19051 0.96253 0.0
N1863 N 0.25364 0.20938 0.99301 0.0
C1864 C 0.26074 0.21499 0.9764 0.0
C1865 C 0.25416 0.2049 0.95986 0.0
C1866 C 0.84434 0.25074 0.94255 0.0
C1867 C 0.8592 0.2379 0.94189 0.0
C1868 C 0.83713 0.25644 0.95981 0.0
C1869 C 0.84462 0.24963 0.97704 0.0
H1870 H 0.83837 0.25663 0.92964 0.0
H1871 H 0.82592 0.26658 0.95973 0.0
S1872 S 0.88219 0.21443 0.98315 0.0
N1873 N 0.88009 0.21749 0.9601 0.0
N1874 N 0.8668 0.22857 0.99244 0.0
C1875 C 0.85921 0.23659 0.97661 0.0
C1876 C 0.86644 0.23064 0.95907 0.0
C1877 C 0.78379 0.84559 0.93229 0.0
C1878 C 0.80154 0.8375 0.93027 0.0
C1879 C 0.77212 0.84024 0.94694 0.0
C1880 C 0.77766 0.82659 0.96029 0.0
H1881 H 0.77891 0.85635 0.9226 0.0
H1882 H 0.75855 0.84678 0.9477 0.0
S1883 S 0.8229 0.80104 0.9613 0.0
N1884 N 0.82384 0.81464 0.94258 0.0
N1885 N 0.80259 0.80548 0.97069 0.0
C1886 C 0.79547 0.81844 0.95848 0.0
C1887 C 0.80722 0.8237 0.94338 0.0
C1888 C 0.10605 0.24754 0.21128 0.0
C1889 C 0.12224 0.24516 0.223 0.0
C1890 C 0.09128 0.25882 0.21702 0.0
C1891 C 0.09209 0.26773 0.23481 0.0
H1892 H 0.10483 0.24062 0.1976 0.0
H1893 H 0.07889 0.26012 0.20779 0.0
S1894 S 0.13148 0.26623 0.2705 0.0
N1895 N 0.1384 0.25297 0.25292 0.0
N1896 N 0.11046 0.27385 0.26385 0.0
C1897 C 0.10826 0.26559 0.24654 0.0
C1898 C 0.1234 0.25439 0.24059 0.0
C1899 C 0.81384 0.11092 0.25423 0.0
C1900 C 0.83028 0.10899 0.24394 0.0
C1901 C 0.80584 0.09552 0.26357 0.0
C1902 C 0.81416 0.07773 0.26328 0.0
H1903 H 0.80725 0.1245 0.25537 0.0
H1904 H 0.79326 0.09758 0.27138 0.0
S1905 S 0.85585 0.06439 0.23695 0.0
N1906 N 0.85345 0.0871 0.23271 0.0
N1907 N 0.8388 0.05856 0.25103 0.0
C1908 C 0.83032 0.07544 0.25288 0.0
C1909 C 0.83828 0.09096 0.24305 0.0
C1910 C 0.93204 0.84506 0.23498 0.0
C1911 C 0.9152 0.83423 0.23412 0.0
C1912 C 0.94812 0.83892 0.24512 0.0
C1913 C 0.94812 0.82158 0.25455 0.0
H1914 H 0.93295 0.85826 0.22747 0.0
H1915 H 0.96083 0.84752 0.24516 0.0
S1916 S 0.90763 0.78857 0.25835 0.0
N1917 N 0.89938 0.80585 0.24508 0.0
N1918 N 0.9299 0.79411 0.26336 0.0
C1919 C 0.93146 0.81072 0.25409 0.0
C1920 C 0.91496 0.81707 0.24406 0.0
C1921 C 0.21205 0.939 0.22592 0.0
C1922 C 0.21858 0.92532 0.21345 0.0
C1923 C 0.22252 0.95555 0.23004 0.0
C1924 C 0.23987 0.95916 0.22173 0.0
H1925 H 0.19887 0.93678 0.23277 0.0
H1926 H 0.21691 0.96567 0.23972 0.0
S1927 S 0.26294 0.92805 0.18769 0.0
N1928 N 0.24321 0.91675 0.19233 0.0
N1929 N 0.26305 0.94762 0.20041 0.0
C1930 C 0.24645 0.94569 0.20907 0.0
C1931 C 0.2358 0.92883 0.20488 0.0
C1932 C 0.09191 0.82853 0.79961 0.0
C1933 C 0.10817 0.81994 0.80724 0.0
C1934 C 0.07636 0.81755 0.7927 0.0
C1935 C 0.07661 0.79773 0.79353 0.0
H1936 H 0.09095 0.84374 0.79964 0.0
H1937 H 0.06378 0.82461 0.78765 0.0
S1938 S 0.11671 0.76876 0.81062 0.0
N1939 N 0.12416 0.79073 0.81388 0.0
N1940 N 0.09519 0.77015 0.80124 0.0
C1941 C 0.09321 0.78915 0.80034 0.0
C1942 C 0.10893 0.80024 0.80714 0.0
C1943 C 0.24853 0.09746 0.79318 0.0
C1944 C 0.23371 0.09827 0.80574 0.0
C1945 C 0.255 0.08015 0.78642 0.0
C1946 C 0.24702 0.06286 0.79205 0.0
H1947 H 0.25549 0.11032 0.78885 0.0
H1948 H 0.26691 0.08037 0.77738 0.0
S1949 S 0.20704 0.05724 0.82384 0.0
N1950 N 0.21071 0.08023 0.8229 0.0
N1951 N 0.22258 0.04783 0.81006 0.0
C1952 C 0.2316 0.06353 0.80392 0.0
C1953 C 0.22503 0.08116 0.81079 0.0
C1954 C 0.9878 0.23023 0.80294 0.0
C1955 C 0.96979 0.23828 0.80295 0.0
C1956 C 1.00302 0.23959 0.79467 0.0
C1957 C 1.00068 0.25724 0.78609 0.0
H1958 H 0.99044 0.21719 0.81036 0.0
H1959 H 0.0169 0.23363 0.79617 0.0
S1960 S 0.95622 0.28333 0.78034 0.0
N1961 N 0.95028 0.26395 0.79153 0.0
N1962 N 0.97897 0.28181 0.77704 0.0
C1963 C 0.98262 0.26485 0.78505 0.0
C1964 C 0.96715 0.2553 0.79317 0.0
C1965 C 0.8473 0.97047 0.81289 0.0
C1966 C 0.83986 0.9534 0.80539 0.0
C1967 C 0.84182 0.98788 0.80541 0.0
C1968 C 0.82865 0.98898 0.7901 0.0
H1969 H 0.85686 0.97045 0.82516 0.0
H1970 H 0.84744 1.00057 0.81223 0.0
S1971 S 0.80693 0.9482 0.76371 0.0
N1972 N 0.82016 0.93855 0.78057 0.0
N1973 N 0.80968 0.9712 0.76657 0.0
C1974 C 0.8219 0.97194 0.78179 0.0
C1975 C 0.8275 0.9542 0.78944 0.0
C1976 C 0.21864 0.08489 0.23451 0.0
C1977 C 0.22426 0.10297 0.2411 0.0
C1978 C 0.2245 0.06853 0.24396 0.0
C1979 C 0.23607 0.06953 0.26053 0.0
H1980 H 0.20967 0.08334 0.22188 0.0
H1981 H 0.22008 0.05495 0.2381 0.0
S1982 S 0.25555 0.11332 0.28321 0.0
N1983 N 0.24276 0.12077 0.2649 0.0
N1984 N 0.25331 0.09014 0.28288 0.0
C1985 C 0.2416 0.0875 0.26743 0.0
C1986 C 0.23583 0.10416 0.25768 0.0
C1987 C 0.2565 0.93936 0.81971 0.0
C1988 C 0.24366 0.93979 0.83434 0.0
C1989 C 0.26701 0.95547 0.81497 0.0
C1990 C 0.26525 0.9726 0.82477 0.0
H1991 H 0.25859 0.92641 0.81196 0.0
H1992 H 0.27674 0.95449 0.80366 0.0
S1993 S 0.23243 0.98185 0.86296 0.0
N1994 N 0.22893 0.95934 0.8577 0.0
N1995 N 0.24891 0.98939 0.84897 0.0
C1996 C 0.25237 0.97333 0.83927 0.0
C1997 C 0.24154 0.957 0.844 0.0
C1998 C 0.11773 0.23645 0.81208 0.0
C1999 C 0.13108 0.24259 0.82603 0.0
C2000 C 0.10256 0.24778 0.8064 0.0
C2001 C 0.10012 0.26581 0.81433 0.0
H2002 H 0.11888 0.22265 0.80566 0.0
H2003 H 0.09252 0.24221 0.79585 0.0
S2004 S 0.1321 0.28906 0.85037 0.0
N2005 N 0.14139 0.26818 0.8471 0.0
N2006 N 0.11311 0.28959 0.83624 0.0
C2007 C 0.11354 0.27221 0.82815 0.0
C2008 C 0.12894 0.2606 0.83402 0.0
C2009 C 0.83947 0.10266 0.83403 0.0
C2010 C 0.83718 0.11911 0.82326 0.0
C2011 C 0.82837 0.08648 0.83014 0.0
C2012 C 0.81481 0.08611 0.81517 0.0
H2013 H 0.84982 0.10237 0.84565 0.0
H2014 H 0.83069 0.07403 0.8386 0.0
S2015 S 0.80321 0.12552 0.7829 0.0
N2016 N 0.82023 0.13409 0.79715 0.0
N2017 N 0.79943 0.10365 0.7898 0.0
C2018 C 0.81234 0.10247 0.80436 0.0
C2019 C 0.82349 0.11899 0.80843 0.0
C2020 C 0.95778 0.81122 0.84204 0.0
C2021 C 0.94124 0.81176 0.83042 0.0
C2022 C 0.97346 0.80093 0.83672 0.0
C2023 C 0.9733 0.79102 0.81948 0.0
H2024 H 0.95881 0.81916 0.85515 0.0
H2025 H 0.986 0.80118 0.84588 0.0
S2026 S 0.93306 0.78605 0.78494 0.0
N2027 N 0.92526 0.79981 0.80167 0.0
N2028 N 0.95497 0.78126 0.79146 0.0
C2029 C 0.9568 0.79104 0.80797 0.0
C2030 C 0.94074 0.80121 0.81349 0.0
C2031 C 0.77367 0.95606 0.22502 0.0
C2032 C 0.79234 0.94997 0.22406 0.0
C2033 C 0.76931 0.97207 0.23585 0.0
C2034 C 0.7835 0.98233 0.24606 0.0
H2035 H 0.76236 0.94798 0.21801 0.0
H2036 H 0.75471 0.97582 0.23701 0.0
S2037 S 0.83476 0.97334 0.24595 0.0
N2038 N 0.82512 0.95631 0.23266 0.0
N2039 N 0.81714 0.98623 0.25279 0.0
C2040 C 0.80228 0.97687 0.24422 0.0
C2041 C 0.80664 0.96072 0.23329 0.0
C2042 C 0.06923 0.82233 0.226 0.0
C2043 C 0.07958 0.80871 0.21668 0.0
C2044 C 0.05279 0.81744 0.2351 0.0
C2045 C 0.04601 0.79869 0.2354 0.0
H2046 H 0.07418 0.83685 0.22672 0.0
H2047 H 0.04569 0.82844 0.24258 0.0
S2048 S 0.06758 0.7578 0.21228 0.0
N2049 N 0.08156 0.7758 0.20743 0.0
N2050 N 0.05059 0.7665 0.22478 0.0
C2051 C 0.05574 0.78501 0.22536 0.0
C2052 C 0.07256 0.79005 0.21597 0.0
C2053 C 0.96721 0.24598 0.22948 0.0
C2054 C 0.95853 0.23305 0.2414 0.0
C2055 C 0.98357 0.25587 0.23534 0.0
C2056 C 0.99201 0.25336 0.25344 0.0
H2057 H 0.96114 0.24868 0.21551 0.0
H2058 H 0.98941 0.26588 0.2256 0.0
S2059 S 0.97519 0.22051 0.28987 0.0
N2060 N 0.95983 0.21766 0.27194 0.0
N2061 N 0.99074 0.23635 0.28306 0.0
C2062 C 0.98387 0.23996 0.26533 0.0
C2063 C 0.9671 0.22978 0.25929 0.0
C2064 C 0.19575 0.71786 0.56537 0.0
C2065 C 0.19968 0.72725 0.58267 0.0
C2066 C 0.20176 0.72525 0.54828 0.0
C2067 C 0.21202 0.74237 0.54771 0.0
H2068 H 0.1884 0.70437 0.56506 0.0
H2069 H 0.19904 0.71697 0.53555 0.0
S2070 S 0.22377 0.77385 0.5887 0.0
N2071 N 0.21307 0.75548 0.59793 0.0
N2072 N 0.22396 0.76958 0.5658 0.0
C2073 C 0.2149 0.75258 0.56473 0.0
C2074 C 0.20883 0.74499 0.58219 0.0
C2075 C 0.81736 0.72119 0.5705 0.0
C2076 C 0.81236 0.72674 0.58869 0.0
C2077 C 0.80758 0.72769 0.55429 0.0
C2078 C 0.79226 0.73991 0.55556 0.0
H2079 H 0.82943 0.71235 0.56871 0.0
H2080 H 0.81251 0.72356 0.54064 0.0
S2081 S 0.77218 0.75684 0.60011 0.0
N2082 N 0.79011 0.74383 0.60715 0.0
N2083 N 0.77167 0.75605 0.57681 0.0
C2084 C 0.78648 0.74474 0.57375 0.0
C2085 C 0.79656 0.73821 0.59026 0.0
C2086 C 0.82848 0.3389 0.57511 0.0
C2087 C 0.82166 0.34733 0.59139 0.0
C2088 C 0.81608 0.33162 0.56085 0.0
C2089 C 0.79639 0.33225 0.56245 0.0
H2090 H 0.84349 0.33799 0.57337 0.0
H2091 H 0.822 0.32539 0.54849 0.0
S2092 S 0.77173 0.35197 0.60321 0.0
N2093 N 0.79425 0.35567 0.60866 0.0
N2094 N 0.77091 0.34141 0.58236 0.0
C2095 C 0.78949 0.34062 0.57883 0.0
C2096 C 0.80214 0.34825 0.59318 0.0
C2097 C 0.26642 0.34332 0.60013 0.0
C2098 C 0.26681 0.33363 0.61741 0.0
C2099 C 0.27733 0.33748 0.58513 0.0
C2100 C 0.28874 0.32153 0.58676 0.0
H2101 H 0.2576 0.35551 0.59822 0.0
H2102 H 0.2764 0.34513 0.57197 0.0
S2103 S 0.29491 0.29143 0.62902 0.0
N2104 N 0.27983 0.30753 0.63534 0.0
N2105 N 0.30008 0.29641 0.60707 0.0
C2106 C 0.28936 0.31183 0.60399 0.0
C2107 C 0.27848 0.31792 0.61933 0.0
C2108 C 0.24014 0.30459 0.4768 0.0
C2109 C 0.24601 0.30545 0.45801 0.0
C2110 C 0.25191 0.29737 0.49139 0.0
C2111 C 0.26997 0.29096 0.48766 0.0
H2112 H 0.22678 0.3104 0.48044 0.0
H2113 H 0.24735 0.29792 0.50578 0.0
S2114 S 0.29105 0.28765 0.4408 0.0
N2115 N 0.27017 0.29672 0.43636 0.0
N2116 N 0.29257 0.28448 0.46385 0.0
C2117 C 0.27555 0.2908 0.46889 0.0
C2118 C 0.26351 0.29769 0.45406 0.0
C2119 C 0.23688 0.71037 0.42685 0.0
C2120 C 0.22634 0.69343 0.4265 0.0
C2121 C 0.24502 0.71759 0.4438 0.0
C2122 C 0.24322 0.70794 0.46093 0.0
H2123 H 0.23831 0.71842 0.41403 0.0
H2124 H 0.25264 0.73091 0.44358 0.0
S2125 S 0.21772 0.66263 0.46742 0.0
N2126 N 0.215 0.66692 0.4446 0.0
N2127 N 0.2305 0.68039 0.47643 0.0
C2128 C 0.23322 0.6907 0.46067 0.0
C2129 C 0.2247 0.68349 0.44347 0.0
C2130 C 0.80821 0.74093 0.44239 0.0
C2131 C 0.82117 0.74934 0.4304 0.0
C2132 C 0.80278 0.75004 0.45887 0.0
C2133 C 0.81002 0.76801 0.46409 0.0
H2134 H 0.80237 0.72704 0.43913 0.0
H2135 H 0.793 0.7428 0.46774 0.0
S2136 S 0.84348 0.79667 0.43693 0.0
N2137 N 0.8406 0.77699 0.42451 0.0
N2138 N 0.83029 0.79419 0.45544 0.0
C2139 C 0.82291 0.77665 0.45217 0.0
C2140 C 0.82849 0.76732 0.43536 0.0
C2141 C 0.80587 0.30657 0.4349 0.0
C2142 C 0.82234 0.31734 0.43908 0.0
C2143 C 0.79586 0.29783 0.44918 0.0
C2144 C 0.80212 0.29909 0.46819 0.0
H2145 H 0.8003 0.30534 0.42049 0.0
H2146 H 0.78268 0.29064 0.4454 0.0
S2147 S 0.84446 0.32497 0.48697 0.0
N2148 N 0.84452 0.32843 0.46394 0.0
N2149 N 0.8259 0.31139 0.49059 0.0
C2150 C 0.81897 0.30895 0.47259 0.0
C2151 C 0.82907 0.31817 0.45808 0.0
C2152 C 0.09242 0.69836 0.73131 0.0
C2153 C 0.10927 0.70905 0.73093 0.0
C2154 C 0.07724 0.70433 0.74182 0.0
C2155 C 0.07828 0.72129 0.7522 0.0
H2156 H 0.09074 0.68553 0.72301 0.0
H2157 H 0.06438 0.69595 0.74135 0.0
S2158 S 0.11989 0.75322 0.75795 0.0
N2159 N 0.12661 0.7365 0.74352 0.0
N2160 N 0.09795 0.74785 0.76278 0.0
C2161 C 0.0952 0.73178 0.75246 0.0
C2162 C 0.11071 0.72563 0.74196 0.0
C2163 C 0.8589 0.61655 0.74259 0.0
C2164 C 0.85131 0.61762 0.72401 0.0
C2165 C 0.85443 0.60135 0.75431 0.0
C2166 C 0.84229 0.5866 0.74784 0.0
H2167 H 0.86805 0.62774 0.74823 0.0
H2168 H 0.86017 0.60138 0.76867 0.0
S2169 S 0.8207 0.58174 0.69942 0.0
N2170 N 0.83224 0.60211 0.6992 0.0
N2171 N 0.82424 0.57331 0.7209 0.0
C2172 C 0.83517 0.58724 0.72901 0.0
C2173 C 0.83957 0.6028 0.71719 0.0
C2174 C 0.97327 0.35891 0.72446 0.0
C2175 C 0.95814 0.34666 0.719 0.0
C2176 C 0.98881 0.35264 0.73539 0.0
C2177 C 0.99022 0.33375 0.74102 0.0
H2178 H 0.97316 0.37356 0.72029 0.0
H2179 H 0.99994 0.36266 0.73935 0.0
S2180 S 0.95485 0.29572 0.7306 0.0
N2181 N 0.94566 0.31457 0.72067 0.0
N2182 N 0.97534 0.30272 0.7401 0.0
C2183 C 0.97554 0.3212 0.73529 0.0
C2184 C 0.95945 0.32765 0.72456 0.0
C2185 C 0.25266 0.4564 0.75128 0.0
C2186 C 0.2383 0.45494 0.73707 0.0
C2187 C 0.26009 0.47399 0.75732 0.0
C2188 C 0.25356 0.49092 0.74933 0.0
H2189 H 0.25852 0.44378 0.75751 0.0
H2190 H 0.27161 0.47421 0.76778 0.0
S2191 S 0.21523 0.49493 0.71249 0.0
N2192 N 0.21725 0.47205 0.71576 0.0
N2193 N 0.23086 0.50503 0.72729 0.0
C2194 C 0.23854 0.48969 0.73576 0.0
C2195 C 0.23102 0.47176 0.72959 0.0
C2196 C 0.10588 0.29532 0.32895 0.0
C2197 C 0.10634 0.30729 0.34488 0.0
C2198 C 0.08878 0.2888 0.32054 0.0
C2199 C 0.07138 0.29411 0.32761 0.0
H2200 H 0.11886 0.29124 0.3227 0.0
H2201 H 0.08926 0.28019 0.3079 0.0
S2202 S 0.06491 0.32436 0.36977 0.0
N2203 N 0.08792 0.32357 0.36789 0.0
N2204 N 0.05584 0.31118 0.35232 0.0
C2205 C 0.07169 0.30541 0.34406 0.0
C2206 C 0.08912 0.31203 0.35262 0.0
C2207 C 0.2211 0.58427 0.2784 0.0
C2208 C 0.20605 0.5844 0.29072 0.0
C2209 C 0.22923 0.56734 0.27276 0.0
C2210 C 0.22274 0.54976 0.27928 0.0
H2211 H 0.227 0.59743 0.27346 0.0
H2212 H 0.24126 0.56816 0.26388 0.0
S2213 S 0.18277 0.54224 0.31074 0.0
N2214 N 0.18441 0.56534 0.30855 0.0
N2215 N 0.19933 0.53358 0.29771 0.0
C2216 C 0.20703 0.54965 0.29081 0.0
C2217 C 0.1988 0.56691 0.29658 0.0
C2218 C 0.9295 0.73338 0.28288 0.0
C2219 C 0.92941 0.72157 0.29881 0.0
C2220 C 0.94635 0.74144 0.27665 0.0
C2221 C 0.96359 0.73812 0.28631 0.0
H2222 H 0.91637 0.73702 0.27567 0.0
H2223 H 0.94568 0.75142 0.26515 0.0
S2224 S 0.9712 0.7077 0.32809 0.0
N2225 N 0.94831 0.70631 0.3234 0.0
N2226 N 0.97975 0.72165 0.31185 0.0
C2227 C 0.96379 0.72567 0.30161 0.0
C2228 C 0.94676 0.71732 0.30782 0.0
C2229 C 0.83489 0.45732 0.30131 0.0
C2230 C 0.82614 0.45169 0.3179 0.0
C2231 C 0.82851 0.47283 0.29083 0.0
C2232 C 0.81309 0.48334 0.29647 0.0
H2233 H 0.8467 0.44956 0.2963 0.0
H2234 H 0.83556 0.47653 0.27808 0.0
S2235 S 0.78634 0.47546 0.33975 0.0
N2236 N 0.8019 0.45846 0.34 0.0
N2237 N 0.78999 0.48768 0.32046 0.0
C2238 C 0.80436 0.47801 0.31318 0.0
C2239 C 0.81085 0.46218 0.32382 0.0
C2240 C 0.24527 0.59785 0.71841 0.0
C2241 C 0.24948 0.60859 0.70246 0.0
C2242 C 0.25684 0.58311 0.72452 0.0
C2243 C 0.27315 0.57848 0.71498 0.0
H2244 H 0.23273 0.60065 0.72607 0.0
H2245 H 0.25276 0.57504 0.73665 0.0
S2246 S 0.29127 0.60323 0.67334 0.0
N2247 N 0.27163 0.6142 0.67779 0.0
N2248 N 0.29341 0.58652 0.68934 0.0
C2249 C 0.27767 0.58926 0.69916 0.0
C2250 C 0.26585 0.60429 0.69291 0.0
C2251 C 0.2494 0.44139 0.34643 0.0
C2252 C 0.2314 0.43494 0.3401 0.0
C2253 C 0.25809 0.45709 0.33823 0.0
C2254 C 0.24916 0.46698 0.32334 0.0
H2255 H 0.25697 0.43406 0.35764 0.0
H2256 H 0.27204 0.46135 0.34337 0.0
S2257 S 0.20117 0.45707 0.3029 0.0
N2258 N 0.20445 0.4405 0.31888 0.0
N2259 N 0.22072 0.46996 0.30355 0.0
C2260 C 0.23101 0.46091 0.31713 0.0
C2261 C 0.22216 0.44493 0.32548 0.0
C2262 C 0.07846 0.72342 0.32661 0.0
C2263 C 0.09451 0.72404 0.31551 0.0
C2264 C 0.06321 0.73535 0.32304 0.0
C2265 C 0.06319 0.74809 0.30799 0.0
H2266 H 0.07755 0.71351 0.33809 0.0
H2267 H 0.05115 0.73434 0.33184 0.0
S2268 S 0.10165 0.75633 0.27521 0.0
N2269 N 0.10956 0.73959 0.28936 0.0
N2270 N 0.0804 0.76118 0.2822 0.0
C2271 C 0.07894 0.74892 0.29673 0.0
C2272 C 0.09469 0.73709 0.30057 0.0
C2273 C 0.78358 0.60667 0.31276 0.0
C2274 C 0.79713 0.60721 0.32775 0.0
C2275 C 0.77571 0.5895 0.30604 0.0
C2276 C 0.78105 0.57217 0.31409 0.0
H2277 H 0.77969 0.61954 0.30557 0.0
H2278 H 0.76605 0.58982 0.29386 0.0
S2279 S 0.81378 0.56637 0.35573 0.0
N2280 N 0.81392 0.58928 0.35188 0.0
N2281 N 0.7992 0.55703 0.33942 0.0
C2282 C 0.79364 0.5727 0.32996 0.0
C2283 C 0.80169 0.59019 0.33671 0.0
C2284 C 0.95616 0.34864 0.30602 0.0
C2285 C 0.94917 0.33804 0.32103 0.0
C2286 C 0.97285 0.34372 0.29745 0.0
C2287 C 0.98309 0.32794 0.30345 0.0
H2288 H 0.94874 0.36091 0.30092 0.0
H2289 H 0.97762 0.35214 0.28583 0.0
S2290 S 0.97114 0.29585 0.34253 0.0
N2291 N 0.95387 0.31108 0.34155 0.0
N2292 N 0.98548 0.30223 0.3259 0.0
C2293 C 0.97639 0.31738 0.31861 0.0
C2294 C 0.9594 0.32235 0.32729 0.0
C2295 C 0.83898 0.46082 0.74297 0.0
C2296 C 0.8279 0.45498 0.72712 0.0
C2297 C 0.83427 0.47652 0.75364 0.0
C2298 C 0.81823 0.48718 0.74902 0.0
H2299 H 0.85166 0.45338 0.74702 0.0
H2300 H 0.84349 0.4803 0.76564 0.0
S2301 S 0.78414 0.47745 0.70906 0.0
N2302 N 0.79989 0.46074 0.7074 0.0
N2303 N 0.791 0.4905 0.72754 0.0
C2304 C 0.80688 0.48145 0.73324 0.0
C2305 C 0.81174 0.46535 0.72226 0.0
C2306 C 0.11112 0.33579 0.72745 0.0
C2307 C 0.12293 0.32239 0.71975 0.0
C2308 C 0.09421 0.33042 0.73541 0.0
C2309 C 0.08839 0.31136 0.73621 0.0
H2310 H 0.11529 0.35055 0.72785 0.0
H2311 H 0.08596 0.34135 0.74165 0.0
S2312 S 0.11381 0.27087 0.71676 0.0
N2313 N 0.12729 0.28936 0.71223 0.0
N2314 N 0.09542 0.27911 0.72751 0.0
C2315 C 0.09961 0.29785 0.72767 0.0
C2316 C 0.11692 0.3034 0.71939 0.0
C2317 C 0.96785 0.75569 0.70667 0.0
C2318 C 0.95034 0.74874 0.7124 0.0
C2319 C 0.98248 0.76019 0.72004 0.0
C2320 C 0.98016 0.75731 0.73946 0.0
H2321 H 0.97037 0.75719 0.69178 0.0
H2322 H 0.99594 0.76497 0.7151 0.0
S2323 S 0.9368 0.73962 0.76144 0.0
N2324 N 0.93133 0.73979 0.7386 0.0
N2325 N 0.9587 0.74757 0.7636 0.0
C2326 C 0.96251 0.75079 0.74524 0.0
C2327 C 0.94764 0.74664 0.73174 0.0
C2328 C 0.75127 0.22312 0.57389 0.0
C2329 C 0.75782 0.22592 0.5927 0.0
C2330 C 0.75969 0.23253 0.55892 0.0
C2331 C 0.77519 0.24496 0.56211 0.0
H2332 H 0.73917 0.21401 0.57077 0.0
H2333 H 0.7537 0.23035 0.54478 0.0
S2334 S 0.7988 0.2556 0.6088 0.0
N2335 N 0.78146 0.24091 0.61364 0.0
N2336 N 0.79741 0.2585 0.5857 0.0
C2337 C 0.78235 0.24721 0.58086 0.0
C2338 C 0.77363 0.23776 0.59608 0.0
C2339 C 0.32121 0.2358 0.6102 0.0
C2340 C 0.33621 0.22308 0.61137 0.0
C2341 C 0.3146 0.24285 0.59269 0.0
C2342 C 0.32299 0.23762 0.57584 0.0
H2343 H 0.31501 0.24083 0.62296 0.0
H2344 H 0.30382 0.25346 0.59248 0.0
S2345 S 0.36201 0.20423 0.57109 0.0
N2346 N 0.35853 0.20493 0.59398 0.0
N2347 N 0.34638 0.21845 0.56128 0.0
C2348 C 0.33739 0.22435 0.57677 0.0
C2349 C 0.34393 0.21699 0.59447 0.0
C2350 C 0.31743 0.81516 0.58527 0.0
C2351 C 0.30808 0.81273 0.60225 0.0
C2352 C 0.3129 0.80384 0.56935 0.0
C2353 C 0.2987 0.78985 0.56977 0.0
H2354 H 0.32862 0.82562 0.5844 0.0
H2355 H 0.3204 0.80617 0.55656 0.0
S2356 S 0.27014 0.77769 0.6107 0.0
N2357 N 0.28392 0.79527 0.61841 0.0
N2358 N 0.27555 0.77396 0.58855 0.0
C2359 C 0.28918 0.78735 0.58658 0.0
C2360 C 0.29385 0.79877 0.6028 0.0
C2361 C 0.72178 0.81469 0.60331 0.0
C2362 C 0.72754 0.83 0.61499 0.0
C2363 C 0.73064 0.81093 0.58635 0.0
C2364 C 0.74557 0.82237 0.58026 0.0
H2365 H 0.71044 0.80539 0.60739 0.0
H2366 H 0.72556 0.79905 0.57783 0.0
S2367 S 0.76589 0.86438 0.60554 0.0
N2368 N 0.74889 0.85698 0.61898 0.0
N2369 N 0.76582 0.84957 0.58748 0.0
C2370 C 0.75144 0.83776 0.59178 0.0
C2371 C 0.7424 0.84162 0.60904 0.0
C2372 C 0.71596 0.79469 0.45269 0.0
C2373 C 0.70168 0.8082 0.45265 0.0
C2374 C 0.72427 0.78806 0.46965 0.0
C2375 C 0.71874 0.79472 0.48734 0.0
H2376 H 0.72104 0.78948 0.43947 0.0
H2377 H 0.73567 0.7782 0.4688 0.0
S2378 S 0.68115 0.82935 0.49506 0.0
N2379 N 0.68188 0.82747 0.47189 0.0
N2380 N 0.69712 0.8148 0.50365 0.0
C2381 C 0.70385 0.80759 0.48749 0.0
C2382 C 0.69544 0.81437 0.47022 0.0
C2383 C 0.72427 0.24425 0.42719 0.0
C2384 C 0.70943 0.23096 0.42821 0.0
C2385 C 0.73093 0.25444 0.44324 0.0
C2386 C 0.72291 0.25183 0.46087 0.0
H2387 H 0.73053 0.24711 0.4138 0.0
H2388 H 0.74219 0.26471 0.44179 0.0
S2389 S 0.68541 0.21711 0.47168 0.0
N2390 N 0.68813 0.21458 0.44878 0.0
N2391 N 0.70047 0.23388 0.47876 0.0
C2392 C 0.70844 0.23824 0.46222 0.0
C2393 C 0.70176 0.22777 0.44595 0.0
C2394 C 0.36518 0.22547 0.45935 0.0
C2395 C 0.35161 0.22123 0.44481 0.0
C2396 C 0.36095 0.23677 0.47492 0.0
C2397 C 0.34287 0.24401 0.47685 0.0
H2398 H 0.37924 0.21997 0.45878 0.0
H2399 H 0.37185 0.23969 0.48567 0.0
S2400 S 0.30228 0.23771 0.44283 0.0
N2401 N 0.31939 0.22605 0.43324 0.0
N2402 N 0.3113 0.24632 0.46295 0.0
C2403 C 0.32908 0.23972 0.46266 0.0
C2404 C 0.33346 0.22857 0.44657 0.0
C2405 C 0.27537 0.80042 0.43437 0.0
C2406 C 0.28101 0.81903 0.43888 0.0
C2407 C 0.26949 0.78806 0.44838 0.0
C2408 C 0.26858 0.79403 0.46727 0.0
H2409 H 0.27655 0.79507 0.42012 0.0
H2410 H 0.26634 0.77351 0.44455 0.0
S2411 S 0.28033 0.84176 0.48607 0.0
N2412 N 0.28438 0.84315 0.46331 0.0
N2413 N 0.27276 0.81997 0.48961 0.0
C2414 C 0.27308 0.81288 0.47178 0.0
C2415 C 0.27948 0.82538 0.45757 0.0
C2416 C 0.63826 0.22672 0.73466 0.0
C2417 C 0.63624 0.21106 0.72233 0.0
C2418 C 0.62352 0.23233 0.74598 0.0
C2419 C 0.60631 0.22233 0.74566 0.0
H2420 H 0.65147 0.2345 0.73591 0.0
H2421 H 0.62572 0.24431 0.7554 0.0
S2422 S 0.59274 0.18186 0.71453 0.0
N2423 N 0.61467 0.18686 0.70932 0.0
N2424 N 0.58745 0.19702 0.73119 0.0
C2425 C 0.60388 0.20698 0.7332 0.0
C2426 C 0.6187 0.20144 0.72141 0.0
C2427 C 0.34072 0.10356 0.73955 0.0
C2428 C 0.35371 0.11577 0.74905 0.0
C2429 C 0.33395 0.08718 0.74817 0.0
C2430 C 0.33975 0.08238 0.76675 0.0
H2431 H 0.33589 0.10659 0.72522 0.0
H2432 H 0.32422 0.07811 0.7401 0.0
S2433 S 0.37257 0.11057 0.7982 0.0
N2434 N 0.37166 0.12242 0.77823 0.0
N2435 N 0.35863 0.09195 0.79467 0.0
C2436 C 0.35261 0.09465 0.77649 0.0
C2437 C 0.35965 0.11125 0.7676 0.0
C2438 C 0.43876 0.79835 0.6993 0.0
C2439 C 0.43386 0.8132 0.71135 0.0
C2440 C 0.45511 0.78794 0.70286 0.0
C2441 C 0.467 0.79179 0.71875 0.0
H2442 H 0.42994 0.79484 0.68693 0.0
H2443 H 0.45837 0.77662 0.69327 0.0
S2444 S 0.46074 0.82949 0.75443 0.0
N2445 N 0.44234 0.83134 0.73968 0.0
N2446 N 0.47312 0.81197 0.74627 0.0
C2447 C 0.46234 0.8067 0.73084 0.0
C2448 C 0.44578 0.81737 0.72714 0.0
C2449 C 0.73231 0.95536 0.73289 0.0
C2450 C 0.71801 0.94519 0.74168 0.0
C2451 C 0.74012 0.97184 0.74106 0.0
C2452 C 0.73396 0.97883 0.75833 0.0
H2453 H 0.73749 0.95054 0.71956 0.0
H2454 H 0.75107 0.97922 0.73375 0.0
S2455 S 0.69736 0.95716 0.7874 0.0
N2456 N 0.69822 0.94309 0.76881 0.0
N2457 N 0.71296 0.9742 0.78413 0.0
C2458 C 0.71956 0.96895 0.7672 0.0
C2459 C 0.71158 0.95209 0.75889 0.0
C2460 C 0.57276 0.82537 0.30698 0.0
C2461 C 0.58067 0.82163 0.32511 0.0
C2462 C 0.55652 0.81557 0.2999 0.0
C2463 C 0.54775 0.80153 0.31062 0.0
H2464 H 0.57916 0.83594 0.29823 0.0
H2465 H 0.55106 0.81872 0.28582 0.0
S2466 S 0.56317 0.7863 0.35888 0.0
N2467 N 0.57868 0.80265 0.35337 0.0
N2468 N 0.54822 0.78477 0.34056 0.0
C2469 C 0.55551 0.79787 0.32885 0.0
C2470 C 0.57194 0.80775 0.33595 0.0
C2471 C 0.69891 0.08276 0.31109 0.0
C2472 C 0.70633 0.09992 0.3046 0.0
C2473 C 0.7063 0.0654 0.30568 0.0
C2474 C 0.72133 0.0644 0.29337 0.0
H2475 H 0.68772 0.08273 0.32102 0.0
H2476 H 0.70047 0.05268 0.31164 0.0
S2477 S 0.74471 0.10527 0.27097 0.0
N2478 N 0.72872 0.11482 0.28414 0.0
N2479 N 0.74264 0.08228 0.27396 0.0
C2480 C 0.72834 0.08145 0.28608 0.0
C2481 C 0.72089 0.09916 0.29174 0.0
C2482 C 0.43505 0.21732 0.27902 0.0
C2483 C 0.44227 0.20907 0.29572 0.0
C2484 C 0.44706 0.22454 0.26551 0.0
C2485 C 0.4667 0.22395 0.26835 0.0
H2486 H 0.42 0.2182 0.27638 0.0
H2487 H 0.44096 0.23116 0.25305 0.0
S2488 S 0.49267 0.20344 0.30944 0.0
N2489 N 0.47029 0.20045 0.31418 0.0
N2490 N 0.49283 0.21394 0.28873 0.0
C2491 C 0.47408 0.21548 0.28483 0.0
C2492 C 0.46188 0.20804 0.29852 0.0
C2493 C 0.27835 0.95152 0.31147 0.0
C2494 C 0.29173 0.95186 0.32664 0.0
C2495 C 0.27118 0.96823 0.30377 0.0
C2496 C 0.27709 0.98605 0.3109 0.0
H2497 H 0.27384 0.93823 0.30503 0.0
H2498 H 0.2615 0.96713 0.29161 0.0
S2499 S 0.31006 0.99458 0.35215 0.0
N2500 N 0.30919 0.97143 0.34973 0.0
N2501 N 0.29596 1.00283 0.33521 0.0
C2502 C 0.28978 0.98654 0.32669 0.0
C2503 C 0.29706 0.96949 0.33452 0.0
C2504 C 0.7751 0.09534 0.72202 0.0
C2505 C 0.76111 0.09503 0.70743 0.0
C2506 C 0.78119 0.07867 0.73067 0.0
C2507 C 0.77342 0.06097 0.7252 0.0
H2508 H 0.78111 0.10864 0.7271 0.0
H2509 H 0.7915 0.07982 0.74229 0.0
S2510 S 0.73715 0.05239 0.68681 0.0
N2511 N 0.74024 0.07549 0.68729 0.0
N2512 N 0.75177 0.04416 0.70331 0.0
C2513 C 0.76002 0.0604 0.71001 0.0
C2514 C 0.75385 0.07741 0.7012 0.0
C2515 C 0.71391 0.94841 0.3227 0.0
C2516 C 0.72145 0.93665 0.3369 0.0
C2517 C 0.72364 0.96465 0.317 0.0
C2518 C 0.74131 0.9698 0.32527 0.0
H2519 H 0.7002 0.94522 0.31616 0.0
H2520 H 0.71711 0.97344 0.30628 0.0
S2521 S 0.7681 0.94277 0.36164 0.0
N2522 N 0.74826 0.93062 0.35818 0.0
N2523 N 0.76651 0.96109 0.34746 0.0
C2524 C 0.74919 0.95796 0.3392 0.0
C2525 C 0.73929 0.94142 0.345 0.0
C2526 C 0.58462 0.248 0.29878 0.0
C2527 C 0.59005 0.22921 0.29606 0.0
C2528 C 0.569 0.25541 0.28869 0.0
C2529 C 0.5583 0.24422 0.27561 0.0
H2530 H 0.59284 0.25717 0.30832 0.0
H2531 H 0.5657 0.27011 0.29067 0.0
S2532 S 0.56518 0.19334 0.26569 0.0
N2533 N 0.58245 0.19914 0.28094 0.0
N2534 N 0.55319 0.21279 0.26215 0.0
C2535 C 0.5631 0.22514 0.2736 0.0
C2536 C 0.57895 0.2177 0.28376 0.0
C2537 C 0.32359 0.09292 0.30081 0.0
C2538 C 0.33537 0.08817 0.31642 0.0
C2539 C 0.31647 0.07909 0.28811 0.0
C2540 C 0.32093 0.06 0.29044 0.0
H2541 H 0.32006 0.10749 0.29824 0.0
H2542 H 0.3074 0.08333 0.27632 0.0
S2543 S 0.34959 0.03993 0.33003 0.0
N2544 N 0.35019 0.06287 0.33415 0.0
N2545 N 0.33674 0.03688 0.3103 0.0
C2546 C 0.33244 0.055 0.30614 0.0
C2547 C 0.33967 0.06908 0.31911 0.0
C2548 C 0.41477 0.81012 0.32039 0.0
C2549 C 0.41543 0.82058 0.33743 0.0
C2550 C 0.43017 0.79953 0.31486 0.0
C2551 C 0.4467 0.79866 0.32629 0.0
H2552 H 0.40213 0.80982 0.31138 0.0
H2553 H 0.42904 0.79164 0.30173 0.0
S2554 S 0.45675 0.82473 0.37106 0.0
N2555 N 0.43506 0.83058 0.36475 0.0
N2556 N 0.46346 0.80993 0.35465 0.0
C2557 C 0.44776 0.80917 0.34313 0.0
C2558 C 0.43228 0.82029 0.34862 0.0
C2559 C 0.33339 0.95642 0.74009 0.0
C2560 C 0.32031 0.94836 0.72691 0.0
C2561 C 0.32923 0.97257 0.75045 0.0
C2562 C 0.31174 0.98149 0.74823 0.0
H2563 H 0.34699 0.95007 0.74257 0.0
H2564 H 0.33985 0.9779 0.76058 0.0
S2565 S 0.27267 0.96636 0.71506 0.0
N2566 N 0.28923 0.95078 0.71173 0.0
N2567 N 0.28137 0.98127 0.73128 0.0
C2568 C 0.29867 0.97396 0.73465 0.0
C2569 C 0.30296 0.95739 0.72399 0.0
C2570 C 0.5867 0.81851 0.73968 0.0
C2571 C 0.60493 0.81481 0.74699 0.0
C2572 C 0.57071 0.81123 0.7482 0.0
C2573 C 0.57217 0.79997 0.76448 0.0
H2574 H 0.58475 0.82701 0.72715 0.0
H2575 H 0.55705 0.81409 0.74166 0.0
S2576 S 0.61666 0.78652 0.78965 0.0
N2577 N 0.6235 0.79933 0.77173 0.0
N2578 N 0.59348 0.78599 0.78795 0.0
C2579 C 0.5903 0.79669 0.77235 0.0
C2580 C 0.60664 0.804 0.76357 0.0
C2581 C 0.47768 0.25769 0.7346 0.0
C2582 C 0.47602 0.24251 0.72166 0.0
C2583 C 0.49535 0.26357 0.74243 0.0
C2584 C 0.51191 0.25452 0.73749 0.0
H2585 H 0.46517 0.26414 0.73975 0.0
H2586 H 0.49587 0.27411 0.75357 0.0
S2587 S 0.51559 0.21654 0.7018 0.0
N2588 N 0.49284 0.22061 0.70223 0.0
N2589 N 0.52578 0.2313 0.7173 0.0
C2590 C 0.51055 0.24051 0.72341 0.0
C2591 C 0.49269 0.2346 0.7154 0.0
C2592 C 0.6767 0.74465 0.0793 0.0
C2593 C 0.68505 0.74844 0.0973 0.0
C2594 C 0.68275 0.75409 0.06319 0.0
C2595 C 0.6976 0.76742 0.06446 0.0
H2596 H 0.6655 0.73417 0.07764 0.0
H2597 H 0.67624 0.75046 0.04956 0.0
S2598 S 0.72378 0.78289 0.10827 0.0
N2599 N 0.70861 0.76687 0.11544 0.0
N2600 N 0.71998 0.78449 0.0852 0.0
C2601 C 0.7058 0.7716 0.0824 0.0
C2602 C 0.69952 0.76217 0.09881 0.0
C2603 C 0.32058 0.71538 0.07442 0.0
C2604 C 0.30911 0.71635 0.09009 0.0
C2605 C 0.31541 0.72416 0.05734 0.0
C2606 C 0.29837 0.73381 0.05514 0.0
H2607 H 0.33416 0.70875 0.0757 0.0
H2608 H 0.3252 0.72407 0.04602 0.0
S2609 S 0.26265 0.7391 0.0914 0.0
N2610 N 0.27947 0.72681 0.10201 0.0
N2611 N 0.26955 0.74292 0.06976 0.0
C2612 C 0.28624 0.73389 0.07032 0.0
C2613 C 0.29168 0.72529 0.08785 0.0
C2614 C 0.30941 0.32496 0.08716 0.0
C2615 C 0.32681 0.31852 0.09431 0.0
C2616 C 0.30037 0.31663 0.07127 0.0
C2617 C 0.3082 0.30135 0.06168 0.0
H2618 H 0.30251 0.33646 0.09405 0.0
H2619 H 0.28695 0.32229 0.0666 0.0
S2620 S 0.35379 0.27924 0.0744 0.0
N2621 N 0.35184 0.29607 0.0904 0.0
N2622 N 0.33463 0.28017 0.06053 0.0
C2623 C 0.32562 0.29466 0.06864 0.0
C2624 C 0.33493 0.30325 0.08495 0.0
C2625 C 0.74764 0.32497 0.1063 0.0
C2626 C 0.73384 0.33806 0.10068 0.0
C2627 C 0.7552 0.31252 0.09323 0.0
C2628 C 0.74902 0.31252 0.07418 0.0
H2629 H 0.75212 0.3238 0.12102 0.0
H2630 H 0.7654 0.30232 0.09813 0.0
S2631 S 0.71543 0.34541 0.05154 0.0
N2632 N 0.71616 0.35158 0.07407 0.0
N2633 N 0.72981 0.32751 0.04987 0.0
C2634 C 0.7359 0.32591 0.06818 0.0
C2635 C 0.72846 0.33885 0.08134 0.0
C2636 C 0.77961 0.31313 0.9454 0.0
C2637 C 0.76116 0.31983 0.94695 0.0
C2638 C 0.78993 0.30628 0.96113 0.0
C2639 C 0.7821 0.30544 0.97899 0.0
H2640 H 0.78617 0.31305 0.93188 0.0
H2641 H 0.80403 0.30128 0.95921 0.0
S2642 S 0.73498 0.32199 0.99127 0.0
N2643 N 0.73607 0.32609 0.96843 0.0
N2644 N 0.75513 0.31224 0.99762 0.0
C2645 C 0.76372 0.31192 0.98084 0.0
C2646 C 0.75333 0.31931 0.96493 0.0
C2647 C 0.71891 0.71619 0.9594 0.0
C2648 C 0.72767 0.72183 0.94285 0.0
C2649 C 0.72392 0.72437 0.97701 0.0
C2650 C 0.73789 0.73865 0.97893 0.0
H2651 H 0.70785 0.70551 0.95869 0.0
H2652 H 0.71629 0.71983 0.98914 0.0
S2653 S 0.76565 0.75809 0.93998 0.0
N2654 N 0.75142 0.74226 0.92956 0.0
N2655 N 0.76099 0.7575 0.9626 0.0
C2656 C 0.74731 0.74391 0.96258 0.0
C2657 C 0.74217 0.73557 0.9446 0.0
C2658 C 0.34052 0.73487 0.95135 0.0
C2659 C 0.33633 0.7397 0.93245 0.0
C2660 C 0.33359 0.74544 0.96628 0.0
C2661 C 0.32263 0.76141 0.9628 0.0
H2662 H 0.34897 0.72267 0.95461 0.0
H2663 H 0.33684 0.74116 0.98066 0.0
S2664 S 0.30767 0.77998 0.91593 0.0
N2665 N 0.32051 0.76152 0.9111 0.0
N2666 N 0.30759 0.78138 0.93919 0.0
C2667 C 0.31845 0.76647 0.94401 0.0
C2668 C 0.32527 0.75559 0.92882 0.0
C2669 C 0.32404 0.30641 0.93478 0.0
C2670 C 0.32394 0.32508 0.92829 0.0
C2671 C 0.31291 0.30073 0.9497 0.0
C2672 C 0.30135 0.31353 0.95892 0.0
H2673 H 0.33267 0.29604 0.92813 0.0
H2674 H 0.31328 0.28612 0.95393 0.0
S2675 S 0.29705 0.36441 0.94799 0.0
N2676 N 0.31179 0.35653 0.93247 0.0
N2677 N 0.29121 0.34603 0.96081 0.0
C2678 C 0.30124 0.33231 0.95261 0.0
C2679 C 0.31246 0.33804 0.93727 0.0
C2680 C 0.58355 0.73151 0.24878 0.0
C2681 C 0.58205 0.71654 0.23562 0.0
C2682 C 0.56827 0.73667 0.25952 0.0
C2683 C 0.55089 0.72696 0.25772 0.0
H2684 H 0.59667 0.73934 0.25085 0.0
H2685 H 0.57003 0.74836 0.26936 0.0
S2686 S 0.53907 0.68751 0.2246 0.0
N2687 N 0.56133 0.69261 0.22088 0.0
N2688 N 0.53281 0.70213 0.24136 0.0
C2689 C 0.54916 0.71192 0.24474 0.0
C2690 C 0.56467 0.70676 0.23364 0.0
C2691 C 0.33642 0.58933 0.23021 0.0
C2692 C 0.32608 0.60608 0.23089 0.0
C2693 C 0.33108 0.57324 0.24029 0.0
C2694 C 0.31509 0.57318 0.25134 0.0
H2695 H 0.34856 0.58849 0.22152 0.0
H2696 H 0.33925 0.56059 0.23905 0.0
S2697 S 0.28423 0.61374 0.25951 0.0
N2698 N 0.29985 0.62188 0.24485 0.0
N2699 N 0.28967 0.59153 0.26336 0.0
C2700 C 0.30483 0.58986 0.25246 0.0
C2701 C 0.31034 0.60631 0.24236 0.0
C2702 C 0.4485 0.32162 0.23957 0.0
C2703 C 0.44781 0.33717 0.22736 0.0
C2704 C 0.46569 0.31419 0.24608 0.0
C2705 C 0.48298 0.32191 0.24054 0.0
H2706 H 0.4356 0.31477 0.24372 0.0
H2707 H 0.46535 0.3017 0.25477 0.0
S2708 S 0.48892 0.36386 0.2101 0.0
N2709 N 0.46593 0.36082 0.21095 0.0
N2710 N 0.49822 0.34713 0.22336 0.0
C2711 C 0.48248 0.33819 0.22924 0.0
C2712 C 0.46494 0.34574 0.2226 0.0
C2713 C 0.70516 0.48091 0.22411 0.0
C2714 C 0.71185 0.4634 0.23037 0.0
C2715 C 0.71129 0.49782 0.23289 0.0
C2716 C 0.72435 0.49796 0.24837 0.0
H2717 H 0.69563 0.48164 0.21184 0.0
H2718 H 0.70623 0.51092 0.227 0.0
S2719 S 0.74434 0.45558 0.27168 0.0
N2720 N 0.73085 0.44703 0.25406 0.0
N2721 N 0.74248 0.47871 0.27059 0.0
C2722 C 0.73037 0.48042 0.25541 0.0
C2723 C 0.72416 0.4632 0.24638 0.0
C2724 C 0.62829 0.29986 0.82619 0.0
C2725 C 0.63143 0.31853 0.82047 0.0
C2726 C 0.61367 0.28875 0.81807 0.0
C2727 C 0.60132 0.29567 0.80377 0.0
H2728 H 0.63735 0.29366 0.83702 0.0
H2729 H 0.61211 0.2745 0.8232 0.0
S2730 S 0.60334 0.34379 0.78367 0.0
N2731 N 0.62094 0.34362 0.79959 0.0
N2732 N 0.59336 0.32261 0.78418 0.0
C2733 C 0.60432 0.31432 0.79775 0.0
C2734 C 0.61939 0.32573 0.80608 0.0
C2735 C 0.75844 0.61069 0.79894 0.0
C2736 C 0.74218 0.60565 0.80852 0.0
C2737 C 0.76981 0.59699 0.79118 0.0
C2738 C 0.76516 0.57775 0.79231 0.0
H2739 H 0.76283 0.62534 0.79801 0.0
H2740 H 0.78281 0.60144 0.78497 0.0
S2741 S 0.72372 0.55695 0.81486 0.0
N2742 N 0.72167 0.57989 0.81804 0.0
N2743 N 0.74293 0.5542 0.80287 0.0
C2744 C 0.74841 0.57247 0.80077 0.0
C2745 C 0.73691 0.58642 0.80899 0.0
C2746 C 0.46918 0.73829 0.81607 0.0
C2747 C 0.45074 0.74461 0.81249 0.0
C2748 C 0.48476 0.74783 0.80888 0.0
C2749 C 0.4826 0.76428 0.79809 0.0
H2750 H 0.47163 0.72574 0.82436 0.0
H2751 H 0.49861 0.74207 0.81151 0.0
S2752 S 0.43737 0.78647 0.78408 0.0
N2753 N 0.43126 0.76814 0.79682 0.0
N2754 N 0.46054 0.7864 0.784 0.0
C2755 C 0.46431 0.77105 0.79477 0.0
C2756 C 0.4484 0.76115 0.8018 0.0
C2757 C 0.3643 0.44359 0.78475 0.0
C2758 C 0.35798 0.439 0.80274 0.0
C2759 C 0.35837 0.46007 0.77548 0.0
C2760 C 0.34598 0.47259 0.78391 0.0
H2761 H 0.37352 0.43414 0.7776 0.0
H2762 H 0.36316 0.46279 0.76144 0.0
S2763 S 0.32757 0.46821 0.83203 0.0
N2764 N 0.34001 0.44903 0.8293 0.0
N2765 N 0.32923 0.48009 0.8122 0.0
C2766 C 0.34021 0.46848 0.80224 0.0
C2767 C 0.34612 0.45168 0.81157 0.0
C2768 C 0.73611 0.61915 0.22122 0.0
C2769 C 0.72235 0.61688 0.20648 0.0
C2770 C 0.7473 0.60408 0.22729 0.0
C2771 C 0.7454 0.58619 0.21873 0.0
H2772 H 0.73823 0.6327 0.22817 0.0
H2773 H 0.75753 0.60638 0.23883 0.0
S2774 S 0.71082 0.57228 0.18049 0.0
N2775 N 0.70695 0.59487 0.18413 0.0
N2776 N 0.72831 0.56678 0.19532 0.0
C2777 C 0.73184 0.58368 0.20395 0.0
C2778 C 0.72027 0.59896 0.19788 0.0
C2779 C 0.74961 0.46311 0.82592 0.0
C2780 C 0.75679 0.45117 0.8401 0.0
C2781 C 0.75993 0.47886 0.82005 0.0
C2782 C 0.77793 0.4833 0.82803 0.0
H2783 H 0.73584 0.46028 0.81934 0.0
H2784 H 0.75373 0.48769 0.80917 0.0
S2785 S 0.80349 0.45593 0.86499 0.0
N2786 N 0.78321 0.44453 0.86168 0.0
N2787 N 0.80267 0.47405 0.8505 0.0
C2788 C 0.78526 0.4715 0.84227 0.0
C2789 C 0.7747 0.45546 0.84831 0.0
C2790 C 0.5977 0.70426 0.8 0.0
C2791 C 0.61484 0.7134 0.7962 0.0
C2792 C 0.58129 0.70752 0.78896 0.0
C2793 C 0.58132 0.72013 0.77372 0.0
H2794 H 0.59695 0.69445 0.81159 0.0
H2795 H 0.56836 0.70055 0.79277 0.0
S2796 S 0.62254 0.74711 0.75729 0.0
N2797 N 0.63082 0.73539 0.77579 0.0
N2798 N 0.60004 0.74122 0.75491 0.0
C2799 C 0.5984 0.7291 0.76953 0.0
C2800 C 0.61512 0.72579 0.78076 0.0
C2801 C 0.34255 0.58784 0.8221 0.0
C2802 C 0.33369 0.6045 0.81622 0.0
C2803 C 0.33614 0.5701 0.81549 0.0
C2804 C 0.32056 0.56817 0.80268 0.0
H2805 H 0.35471 0.58852 0.83177 0.0
H2806 H 0.34381 0.55781 0.82014 0.0
S2807 S 0.29214 0.60744 0.78309 0.0
N2808 N 0.30832 0.61795 0.797 0.0
N2809 N 0.29611 0.58465 0.78476 0.0
C2810 C 0.31116 0.5847 0.79715 0.0
C2811 C 0.31776 0.60281 0.80385 0.0
C2812 C 0.48032 0.29964 0.83997 0.0
C2813 C 0.46387 0.29854 0.82819 0.0
C2814 C 0.49669 0.29005 0.83544 0.0
C2815 C 0.49734 0.27917 0.81885 0.0
H2816 H 0.48074 0.30837 0.85257 0.0
H2817 H 0.50913 0.29165 0.84464 0.0
S2818 S 0.45785 0.26977 0.7843 0.0
N2819 N 0.449 0.28405 0.80003 0.0
N2820 N 0.47997 0.26668 0.79133 0.0
C2821 C 0.48098 0.27752 0.80721 0.0
C2822 C 0.46422 0.28703 0.81191 0.0
C2823 C 0.29494 0.43531 0.2365 0.0
C2824 C 0.30542 0.43927 0.22049 0.0
C2825 C 0.28682 0.44972 0.24688 0.0
C2826 C 0.28836 0.46865 0.24143 0.0
H2827 H 0.29357 0.42098 0.2415 0.0
H2828 H 0.27985 0.44609 0.25972 0.0
S2829 S 0.31335 0.48681 0.20031 0.0
N2830 N 0.31636 0.4638 0.19948 0.0
N2831 N 0.30037 0.49071 0.2187 0.0
C2832 C 0.29777 0.47282 0.2249 0.0
C2833 C 0.30642 0.45817 0.21447 0.0
C2834 C 0.5904 0.32951 0.21254 0.0
C2835 C 0.60153 0.32517 0.19719 0.0
C2836 C 0.57447 0.31858 0.21643 0.0
C2837 C 0.56902 0.30295 0.20507 0.0
H2838 H 0.59387 0.34162 0.22148 0.0
H2839 H 0.56617 0.32256 0.22824 0.0
S2840 S 0.59404 0.2847 0.16412 0.0
N2841 N 0.60653 0.30344 0.17121 0.0
N2842 N 0.57634 0.28313 0.17844 0.0
C2843 C 0.58005 0.29833 0.1898 0.0
C2844 C 0.59636 0.30937 0.18589 0.0
C2845 C 0.42484 0.75831 0.23414 0.0
C2846 C 0.4296 0.74697 0.21874 0.0
C2847 C 0.43878 0.76634 0.24638 0.0
C2848 C 0.45798 0.76374 0.24343 0.0
H2849 H 0.41025 0.75983 0.23759 0.0
H2850 H 0.4345 0.77358 0.25898 0.0
S2851 S 0.47794 0.73726 0.20399 0.0
N2852 N 0.45495 0.73504 0.20025 0.0
N2853 N 0.4811 0.75034 0.22326 0.0
C2854 C 0.46296 0.75369 0.22733 0.0
C2855 C 0.44878 0.74525 0.21498 0.0
loop_
_geom_bond_atom_site_label_1
_geom_bond_atom_site_label_2
_geom_bond_distance
_geom_bond_site_symmetry_2
_ccdc_geom_bond_type
C0 C1 1.386 . S
C0 C2 1.397 . S
C0 H24 0.931 . S
C1 C0 1.386 . S
C1 C5 1.397 . S
C2 C0 1.397 . S
C2 C3 1.384 . S
C2 H25 0.930 . S
C3 C2 1.384 . S
C3 C4 1.377 . S
C3 C6 1.481 . S
C4 C3 1.377 . S
C4 C5 1.389 . S
C4 H26 0.929 . S
C5 C1 1.397 . S
C5 C4 1.389 . S
C5 H27 0.931 . S
C6 C3 1.481 . S
C6 C7 1.387 . S
C6 C11 1.390 . S
C7 C6 1.387 . S
C7 C8 1.401 . S
C7 H28 0.930 . S
C8 C7 1.401 . S
C8 C9 1.376 . S
C8 C17 1.511 . S
C9 C8 1.376 . S
C9 C10 1.392 . S
C9 H30 0.931 . S
C10 C9 1.392 . S
C10 C11 1.361 . S
C10 C12 1.500 . S
C11 C6 1.390 . S
C11 C10 1.361 . S
C11 H29 0.931 . S
C12 C10 1.500 . S
C12 C13 1.371 . S
C12 C14 1.365 . S
C13 C12 1.371 . S
C13 C23 1.386 . S
C13 H31 0.931 . S
C14 C12 1.365 . S
C14 C15 1.409 . S
C14 H32 0.929 . S
C15 C14 1.409 . S
C15 C16 1.380 . S
C15 H33 0.930 . S
C16 C15 1.380 . S
C16 C23 1.357 . S
C17 C8 1.511 . S
C17 C18 1.341 . S
C17 C19 1.371 . S
C18 C17 1.341 . S
C18 C22 1.394 . S
C18 H34 0.930 . S
C19 C17 1.371 . S
C19 C20 1.392 . S
C19 H35 0.931 . S
C20 C19 1.392 . S
C20 C21 1.331 . S
C20 H38 0.932 . S
C21 C20 1.331 . S
C21 C22 1.336 . S
C22 C18 1.394 . S
C22 C21 1.336 . S
C22 H37 0.929 . S
C23 C13 1.386 . S
C23 C16 1.357 . S
C23 H36 0.928 . S
H24 C0 0.931 . S
H25 C2 0.930 . S
H26 C4 0.929 . S
H27 C5 0.931 . S
H28 C7 0.930 . S
H29 C11 0.931 . S
H30 C9 0.931 . S
H31 C13 0.931 . S
H32 C14 0.929 . S
H33 C15 0.930 . S
H34 C18 0.930 . S
H35 C19 0.931 . S
H36 C23 0.928 . S
H37 C22 0.929 . S
H38 C20 0.932 . S
C39 C40 1.386 . S
C39 C41 1.397 . S
C39 H63 0.931 . S
C40 C39 1.386 . S
C40 C44 1.397 . S
C41 C39 1.397 . S
C41 C42 1.384 . S
C41 H64 0.930 . S
C42 C41 1.384 . S
C42 C43 1.377 . S
C42 C45 1.481 . S
C43 C42 1.377 . S
C43 C44 1.389 . S
C43 H65 0.929 . S
C44 C40 1.397 . S
C44 C43 1.389 . S
C44 H66 0.931 . S
C45 C42 1.481 . S
C45 C46 1.387 . S
C45 C50 1.390 . S
C46 C45 1.387 . S
C46 C47 1.401 . S
C46 H67 0.930 . S
C47 C46 1.401 . S
C47 C48 1.376 . S
C47 C56 1.511 . S
C48 C47 1.376 . S
C48 C49 1.392 . S
C48 H69 0.931 . S
C49 C48 1.392 . S
C49 C50 1.361 . S
C49 C51 1.500 . S
C50 C45 1.390 . S
C50 C49 1.361 . S
C50 H68 0.931 . S
C51 C49 1.500 . S
C51 C52 1.371 . S
C51 C53 1.365 . S
C52 C51 1.371 . S
C52 C62 1.386 . S
C52 H70 0.931 . S
C53 C51 1.365 . S
C53 C54 1.409 . S
C53 H71 0.929 . S
C54 C53 1.409 . S
C54 C55 1.380 . S
C54 H72 0.930 . S
C55 C54 1.380 . S
C55 C62 1.357 . S
C56 C47 1.511 . S
C56 C57 1.341 . S
C56 C58 1.371 . S
C57 C56 1.341 . S
C57 C61 1.394 . S
C57 H73 0.930 . S
C58 C56 1.371 . S
C58 C59 1.392 . S
C58 H74 0.931 . S
C59 C58 1.392 . S
C59 C60 1.331 . S
C59 H77 0.932 . S
C60 C59 1.331 . S
C60 C61 1.336 . S
C61 C57 1.394 . S
C61 C60 1.336 . S
C61 H76 0.929 . S
C62 C52 1.386 . S
C62 C55 1.357 . S
C62 H75 0.928 . S
H63 C39 0.931 . S
H64 C41 0.930 . S
H65 C43 0.929 . S
H66 C44 0.931 . S
H67 C46 0.930 . S
H68 C50 0.931 . S
H69 C48 0.931 . S
H70 C52 0.931 . S
H71 C53 0.929 . S
H72 C54 0.930 . S
H73 C57 0.930 . S
H74 C58 0.931 . S
H75 C62 0.928 . S
H76 C61 0.929 . S
H77 C59 0.932 . S
C78 C79 1.386 . S
C78 C80 1.397 . S
C78 H102 0.931 . S
C79 C78 1.386 . S
C79 C83 1.397 . S
C80 C78 1.397 . S
C80 C81 1.384 . S
C80 H103 0.930 . S
C81 C80 1.384 . S
C81 C82 1.377 . S
C81 C84 1.481 . S
C82 C81 1.377 . S
C82 C83 1.389 . S
C82 H104 0.929 . S
C83 C79 1.397 . S
C83 C82 1.389 . S
C83 H105 0.931 . S
C84 C81 1.481 . S
C84 C85 1.387 . S
C84 C89 1.390 . S
C85 C84 1.387 . S
C85 C86 1.401 . S
C85 H106 0.930 . S
C86 C85 1.401 . S
C86 C87 1.376 . S
C86 C95 1.511 . S
C87 C86 1.376 . S
C87 C88 1.392 . S
C87 H108 0.931 . S
C88 C87 1.392 . S
C88 C89 1.361 . S
C88 C90 1.500 . S
C89 C84 1.390 . S
C89 C88 1.361 . S
C89 H107 0.931 . S
C90 C88 1.500 . S
C90 C91 1.371 . S
C90 C92 1.365 . S
C91 C90 1.371 . S
C91 C101 1.386 . S
C91 H109 0.931 . S
C92 C90 1.365 . S
C92 C93 1.409 . S
C92 H110 0.929 . S
C93 C92 1.409 . S
C93 C94 1.380 . S
C93 H111 0.930 . S
C94 C93 1.380 . S
C94 C101 1.357 . S
C95 C86 1.511 . S
C95 C96 1.341 . S
C95 C97 1.371 . S
C96 C95 1.341 . S
C96 C100 1.394 . S
C96 H112 0.930 . S
C97 C95 1.371 . S
C97 C98 1.392 . S
C97 H113 0.931 . S
C98 C97 1.392 . S
C98 C99 1.331 . S
C98 H116 0.932 . S
C99 C98 1.331 . S
C99 C100 1.336 . S
C100 C96 1.394 . S
C100 C99 1.336 . S
C100 H115 0.929 . S
C101 C91 1.386 . S
C101 C94 1.357 . S
C101 H114 0.928 . S
H102 C78 0.931 . S
H103 C80 0.930 . S
H104 C82 0.929 . S
H105 C83 0.931 . S
H106 C85 0.930 . S
H107 C89 0.931 . S
H108 C87 0.931 . S
H109 C91 0.931 . S
H110 C92 0.929 . S
H111 C93 0.930 . S
H112 C96 0.930 . S
H113 C97 0.931 . S
H114 C101 0.928 . S
H115 C100 0.929 . S
H116 C98 0.932 . S
C117 C118 1.386 . S
C117 C119 1.397 . S
C117 H141 0.931 . S
C118 C117 1.386 . S
C118 C122 1.397 . S
C119 C117 1.397 . S
C119 C120 1.384 . S
C119 H142 0.930 . S
C120 C119 1.384 . S
C120 C121 1.377 . S
C120 C123 1.481 . S
C121 C120 1.377 . S
C121 C122 1.389 . S
C121 H143 0.929 . S
C122 C118 1.397 . S
C122 C121 1.389 . S
C122 H144 0.931 . S
C123 C120 1.481 . S
C123 C124 1.387 . S
C123 C128 1.390 . S
C124 C123 1.387 . S
C124 C125 1.401 . S
C124 H145 0.930 . S
C125 C124 1.401 . S
C125 C126 1.376 . S
C125 C134 1.511 . S
C126 C125 1.376 . S
C126 C127 1.392 . S
C126 H147 0.931 . S
C127 C126 1.392 . S
C127 C128 1.361 . S
C127 C129 1.500 . S
C128 C123 1.390 . S
C128 C127 1.361 . S
C128 H146 0.931 . S
C129 C127 1.500 . S
C129 C130 1.371 . S
C129 C131 1.365 . S
C130 C129 1.371 . S
C130 C140 1.386 . S
C130 H148 0.931 . S
C131 C129 1.365 . S
C131 C132 1.409 . S
C131 H149 0.929 . S
C132 C131 1.409 . S
C132 C133 1.380 . S
C132 H150 0.930 . S
C133 C132 1.380 . S
C133 C140 1.357 . S
C134 C125 1.511 . S
C134 C135 1.341 . S
C134 C136 1.371 . S
C135 C134 1.341 . S
C135 C139 1.394 . S
C135 H151 0.930 . S
C136 C134 1.371 . S
C136 C137 1.392 . S
C136 H152 0.931 . S
C137 C136 1.392 . S
C137 C138 1.331 . S
C137 H155 0.932 . S
C138 C137 1.331 . S
C138 C139 1.336 . S
C139 C135 1.394 . S
C139 C138 1.336 . S
C139 H154 0.929 . S
C140 C130 1.386 . S
C140 C133 1.357 . S
C140 H153 0.928 . S
H141 C117 0.931 . S
H142 C119 0.930 . S
H143 C121 0.929 . S
H144 C122 0.931 . S
H145 C124 0.930 . S
H146 C128 0.931 . S
H147 C126 0.931 . S
H148 C130 0.931 . S
H149 C131 0.929 . S
H150 C132 0.930 . S
H151 C135 0.930 . S
H152 C136 0.931 . S
H153 C140 0.928 . S
H154 C139 0.929 . S
H155 C137 0.932 . S
C156 C157 1.386 . S
C156 C158 1.397 . S
C156 H180 0.931 . S
C157 C156 1.386 . S
C157 C161 1.397 . S
C158 C156 1.397 . S
C158 C159 1.384 . S
C158 H181 0.930 . S
C159 C158 1.384 . S
C159 C160 1.377 . S
C159 C162 1.481 . S
C160 C159 1.377 . S
C160 C161 1.389 . S
C160 H182 0.929 . S
C161 C157 1.397 . S
C161 C160 1.389 . S
C161 H183 0.931 . S
C162 C159 1.481 . S
C162 C163 1.387 . S
C162 C167 1.390 . S
C163 C162 1.387 . S
C163 C164 1.401 . S
C163 H184 0.930 . S
C164 C163 1.401 . S
C164 C165 1.376 . S
C164 C173 1.511 . S
C165 C164 1.376 . S
C165 C166 1.392 . S
C165 H186 0.931 . S
C166 C165 1.392 . S
C166 C167 1.361 . S
C166 C168 1.500 . S
C167 C162 1.390 . S
C167 C166 1.361 . S
C167 H185 0.931 . S
C168 C166 1.500 . S
C168 C169 1.371 . S
C168 C170 1.365 . S
C169 C168 1.371 . S
C169 C179 1.386 . S
C169 H187 0.931 . S
C170 C168 1.365 . S
C170 C171 1.409 . S
C170 H188 0.929 . S
C171 C170 1.409 . S
C171 C172 1.380 . S
C171 H189 0.930 . S
C172 C171 1.380 . S
C172 C179 1.357 . S
C173 C164 1.511 . S
C173 C174 1.341 . S
C173 C175 1.371 . S
C174 C173 1.341 . S
C174 C178 1.394 . S
C174 H190 0.930 . S
C175 C173 1.371 . S
C175 C176 1.392 . S
C175 H191 0.931 . S
C176 C175 1.392 . S
C176 C177 1.331 . S
C176 H194 0.932 . S
C177 C176 1.331 . S
C177 C178 1.336 . S
C178 C174 1.394 . S
C178 C177 1.336 . S
C178 H193 0.929 . S
C179 C169 1.386 . S
C179 C172 1.357 . S
C179 H192 0.928 . S
H180 C156 0.931 . S
H181 C158 0.930 . S
H182 C160 0.929 . S
H183 C161 0.931 . S
H184 C163 0.930 . S
H185 C167 0.931 . S
H186 C165 0.931 . S
H187 C169 0.931 . S
H188 C170 0.929 . S
H189 C171 0.930 . S
H190 C174 0.930 . S
H191 C175 0.931 . S
H192 C179 0.928 . S
H193 C178 0.929 . S
H194 C176 0.932 . S
C195 C196 1.386 . S
C195 C197 1.397 . S
C195 H219 0.931 . S
C196 C195 1.386 . S
C196 C200 1.397 . S
C197 C195 1.397 . S
C197 C198 1.384 . S
C197 H220 0.930 . S
C198 C197 1.384 . S
C198 C199 1.377 . S
C198 C201 1.481 . S
C199 C198 1.377 . S
C199 C200 1.389 . S
C199 H221 0.929 . S
C200 C196 1.397 . S
C200 C199 1.389 . S
C200 H222 0.931 . S
C201 C198 1.481 . S
C201 C202 1.387 . S
C201 C206 1.390 . S
C202 C201 1.387 . S
C202 C203 1.401 . S
C202 H223 0.930 . S
C203 C202 1.401 . S
C203 C204 1.376 . S
C203 C212 1.511 . S
C204 C203 1.376 . S
C204 C205 1.392 . S
C204 H225 0.931 . S
C205 C204 1.392 . S
C205 C206 1.361 . S
C205 C207 1.500 . S
C206 C201 1.390 . S
C206 C205 1.361 . S
C206 H224 0.931 . S
C207 C205 1.500 . S
C207 C208 1.371 . S
C207 C209 1.365 . S
C208 C207 1.371 . S
C208 C218 1.386 . S
C208 H226 0.931 . S
C209 C207 1.365 . S
C209 C210 1.409 . S
C209 H227 0.929 . S
C210 C209 1.409 . S
C210 C211 1.380 . S
C210 H228 0.930 . S
C211 C210 1.380 . S
C211 C218 1.357 . S
C212 C203 1.511 . S
C212 C213 1.341 . S
C212 C214 1.371 . S
C213 C212 1.341 . S
C213 C217 1.394 . S
C213 H229 0.930 . S
C214 C212 1.371 . S
C214 C215 1.392 . S
C214 H230 0.931 . S
C215 C214 1.392 . S
C215 C216 1.331 . S
C215 H233 0.932 . S
C216 C215 1.331 . S
C216 C217 1.336 . S
C217 C213 1.394 . S
C217 C216 1.336 . S
C217 H232 0.929 . S
C218 C208 1.386 . S
C218 C211 1.357 . S
C218 H231 0.928 . S
H219 C195 0.931 . S
H220 C197 0.930 . S
H221 C199 0.929 . S
H222 C200 0.931 . S
H223 C202 0.930 . S
H224 C206 0.931 . S
H225 C204 0.931 . S
H226 C208 0.931 . S
H227 C209 0.929 . S
H228 C210 0.930 . S
H229 C213 0.930 . S
H230 C214 0.931 . S
H231 C218 0.928 . S
H232 C217 0.929 . S
H233 C215 0.932 . S
C234 C235 1.386 . S
C234 C236 1.397 . S
C234 H258 0.931 . S
C235 C234 1.386 . S
C235 C239 1.397 . S
C236 C234 1.397 . S
C236 C237 1.384 . S
C236 H259 0.930 . S
C237 C236 1.384 . S
C237 C238 1.377 . S
C237 C240 1.481 . S
C238 C237 1.377 . S
C238 C239 1.389 . S
C238 H260 0.929 . S
C239 C235 1.397 . S
C239 C238 1.389 . S
C239 H261 0.931 . S
C240 C237 1.481 . S
C240 C241 1.387 . S
C240 C245 1.390 . S
C241 C240 1.387 . S
C241 C242 1.401 . S
C241 H262 0.930 . S
C242 C241 1.401 . S
C242 C243 1.376 . S
C242 C251 1.511 . S
C243 C242 1.376 . S
C243 C244 1.392 . S
C243 H264 0.931 . S
C244 C243 1.392 . S
C244 C245 1.361 . S
C244 C246 1.500 . S
C245 C240 1.390 . S
C245 C244 1.361 . S
C245 H263 0.931 . S
C246 C244 1.500 . S
C246 C247 1.371 . S
C246 C248 1.365 . S
C247 C246 1.371 . S
C247 C257 1.386 . S
C247 H265 0.931 . S
C248 C246 1.365 . S
C248 C249 1.409 . S
C248 H266 0.929 . S
C249 C248 1.409 . S
C249 C250 1.380 . S
C249 H267 0.930 . S
C250 C249 1.380 . S
C250 C257 1.357 . S
C251 C242 1.511 . S
C251 C252 1.341 . S
C251 C253 1.371 . S
C252 C251 1.341 . S
C252 C256 1.394 . S
C252 H268 0.930 . S
C253 C251 1.371 . S
C253 C254 1.392 . S
C253 H269 0.931 . S
C254 C253 1.392 . S
C254 C255 1.331 . S
C254 H272 0.932 . S
C255 C254 1.331 . S
C255 C256 1.336 . S
C256 C252 1.394 . S
C256 C255 1.336 . S
C256 H271 0.929 . S
C257 C247 1.386 . S
C257 C250 1.357 . S
C257 H270 0.928 . S
H258 C234 0.931 . S
H259 C236 0.930 . S
H260 C238 0.929 . S
H261 C239 0.931 . S
H262 C241 0.930 . S
H263 C245 0.931 . S
H264 C243 0.931 . S
H265 C247 0.931 . S
H266 C248 0.929 . S
H267 C249 0.930 . S
H268 C252 0.930 . S
H269 C253 0.931 . S
H270 C257 0.928 . S
H271 C256 0.929 . S
H272 C254 0.932 . S
C273 C274 1.386 . S
C273 C275 1.397 . S
C273 H297 0.931 . S
C274 C273 1.386 . S
C274 C278 1.397 . S
C275 C273 1.397 . S
C275 C276 1.384 . S
C275 H298 0.930 . S
C276 C275 1.384 . S
C276 C277 1.377 . S
C276 C279 1.481 . S
C277 C276 1.377 . S
C277 C278 1.389 . S
C277 H299 0.929 . S
C278 C274 1.397 . S
C278 C277 1.389 . S
C278 H300 0.931 . S
C279 C276 1.481 . S
C279 C280 1.387 . S
C279 C284 1.390 . S
C280 C279 1.387 . S
C280 C281 1.401 . S
C280 H301 0.930 . S
C281 C280 1.401 . S
C281 C282 1.376 . S
C281 C290 1.511 . S
C282 C281 1.376 . S
C282 C283 1.392 . S
C282 H303 0.931 . S
C283 C282 1.392 . S
C283 C284 1.361 . S
C283 C285 1.500 . S
C284 C279 1.390 . S
C284 C283 1.361 . S
C284 H302 0.931 . S
C285 C283 1.500 . S
C285 C286 1.371 . S
C285 C287 1.365 . S
C286 C285 1.371 . S
C286 C296 1.386 . S
C286 H304 0.931 . S
C287 C285 1.365 . S
C287 C288 1.409 . S
C287 H305 0.929 . S
C288 C287 1.409 . S
C288 C289 1.380 . S
C288 H306 0.930 . S
C289 C288 1.380 . S
C289 C296 1.357 . S
C290 C281 1.511 . S
C290 C291 1.341 . S
C290 C292 1.371 . S
C291 C290 1.341 . S
C291 C295 1.394 . S
C291 H307 0.930 . S
C292 C290 1.371 . S
C292 C293 1.392 . S
C292 H308 0.931 . S
C293 C292 1.392 . S
C293 C294 1.331 . S
C293 H311 0.932 . S
C294 C293 1.331 . S
C294 C295 1.336 . S
C295 C291 1.394 . S
C295 C294 1.336 . S
C295 H310 0.929 . S
C296 C286 1.386 . S
C296 C289 1.357 . S
C296 H309 0.928 . S
H297 C273 0.931 . S
H298 C275 0.930 . S
H299 C277 0.929 . S
H300 C278 0.931 . S
H301 C280 0.930 . S
H302 C284 0.931 . S
H303 C282 0.931 . S
H304 C286 0.931 . S
H305 C287 0.929 . S
H306 C288 0.930 . S
H307 C291 0.930 . S
H308 C292 0.931 . S
H309 C296 0.928 . S
H310 C295 0.929 . S
H311 C293 0.932 . S
C312 C313 1.386 . S
C312 C314 1.397 . S
C312 H336 0.931 . S
C313 C312 1.386 . S
C313 C317 1.397 . S
C314 C312 1.397 . S
C314 C315 1.384 . S
C314 H337 0.930 . S
C315 C314 1.384 . S
C315 C316 1.377 . S
C315 C318 1.481 . S
C316 C315 1.377 . S
C316 C317 1.389 . S
C316 H338 0.929 . S
C317 C313 1.397 . S
C317 C316 1.389 . S
C317 H339 0.931 . S
C318 C315 1.481 . S
C318 C319 1.387 . S
C318 C323 1.390 . S
C319 C318 1.387 . S
C319 C320 1.401 . S
C319 H340 0.930 . S
C320 C319 1.401 . S
C320 C321 1.376 . S
C320 C329 1.511 . S
C321 C320 1.376 . S
C321 C322 1.392 . S
C321 H342 0.931 . S
C322 C321 1.392 . S
C322 C323 1.361 . S
C322 C324 1.500 . S
C323 C318 1.390 . S
C323 C322 1.361 . S
C323 H341 0.931 . S
C324 C322 1.500 . S
C324 C325 1.371 . S
C324 C326 1.365 . S
C325 C324 1.371 . S
C325 C335 1.386 . S
C325 H343 0.931 . S
C326 C324 1.365 . S
C326 C327 1.409 . S
C326 H344 0.929 . S
C327 C326 1.409 . S
C327 C328 1.380 . S
C327 H345 0.930 . S
C328 C327 1.380 . S
C328 C335 1.357 . S
C329 C320 1.511 . S
C329 C330 1.341 . S
C329 C331 1.371 . S
C330 C329 1.341 . S
C330 C334 1.394 . S
C330 H346 0.930 . S
C331 C329 1.371 . S
C331 C332 1.392 . S
C331 H347 0.931 . S
C332 C331 1.392 . S
C332 C333 1.331 . S
C332 H350 0.932 . S
C333 C332 1.331 . S
C333 C334 1.336 . S
C334 C330 1.394 . S
C334 C333 1.336 . S
C334 H349 0.929 . S
C335 C325 1.386 . S
C335 C328 1.357 . S
C335 H348 0.928 . S
H336 C312 0.931 . S
H337 C314 0.930 . S
H338 C316 0.929 . S
H339 C317 0.931 . S
H340 C319 0.930 . S
H341 C323 0.931 . S
H342 C321 0.931 . S
H343 C325 0.931 . S
H344 C326 0.929 . S
H345 C327 0.930 . S
H346 C330 0.930 . S
H347 C331 0.931 . S
H348 C335 0.928 . S
H349 C334 0.929 . S
H350 C332 0.932 . S
C351 C352 1.386 . S
C351 C353 1.397 . S
C351 H375 0.931 . S
C352 C351 1.386 . S
C352 C356 1.397 . S
C353 C351 1.397 . S
C353 C354 1.384 . S
C353 H376 0.930 . S
C354 C353 1.384 . S
C354 C355 1.377 . S
C354 C357 1.481 . S
C355 C354 1.377 . S
C355 C356 1.389 . S
C355 H377 0.929 . S
C356 C352 1.397 . S
C356 C355 1.389 . S
C356 H378 0.931 . S
C357 C354 1.481 . S
C357 C358 1.387 . S
C357 C362 1.390 . S
C358 C357 1.387 . S
C358 C359 1.401 . S
C358 H379 0.930 . S
C359 C358 1.401 . S
C359 C360 1.376 . S
C359 C368 1.511 . S
C360 C359 1.376 . S
C360 C361 1.392 . S
C360 H381 0.931 . S
C361 C360 1.392 . S
C361 C362 1.361 . S
C361 C363 1.500 . S
C362 C357 1.390 . S
C362 C361 1.361 . S
C362 H380 0.931 . S
C363 C361 1.500 . S
C363 C364 1.371 . S
C363 C365 1.365 . S
C364 C363 1.371 . S
C364 C374 1.386 . S
C364 H382 0.931 . S
C365 C363 1.365 . S
C365 C366 1.409 . S
C365 H383 0.929 . S
C366 C365 1.409 . S
C366 C367 1.380 . S
C366 H384 0.930 . S
C367 C366 1.380 . S
C367 C374 1.357 . S
C368 C359 1.511 . S
C368 C369 1.341 . S
C368 C370 1.371 . S
C369 C368 1.341 . S
C369 C373 1.394 . S
C369 H385 0.930 . S
C370 C368 1.371 . S
C370 C371 1.392 . S
C370 H386 0.931 . S
C371 C370 1.392 . S
C371 C372 1.331 . S
C371 H389 0.932 . S
C372 C371 1.331 . S
C372 C373 1.336 . S
C373 C369 1.394 . S
C373 C372 1.336 . S
C373 H388 0.929 . S
C374 C364 1.386 . S
C374 C367 1.357 . S
C374 H387 0.928 . S
H375 C351 0.931 . S
H376 C353 0.930 . S
H377 C355 0.929 . S
H378 C356 0.931 . S
H379 C358 0.930 . S
H380 C362 0.931 . S
H381 C360 0.931 . S
H382 C364 0.931 . S
H383 C365 0.929 . S
H384 C366 0.930 . S
H385 C369 0.930 . S
H386 C370 0.931 . S
H387 C374 0.928 . S
H388 C373 0.929 . S
H389 C371 0.932 . S
C390 C391 1.386 . S
C390 C392 1.397 . S
C390 H414 0.931 . S
C391 C390 1.386 . S
C391 C395 1.397 . S
C392 C390 1.397 . S
C392 C393 1.384 . S
C392 H415 0.930 . S
C393 C392 1.384 . S
C393 C394 1.377 . S
C393 C396 1.481 . S
C394 C393 1.377 . S
C394 C395 1.389 . S
C394 H416 0.929 . S
C395 C391 1.397 . S
C395 C394 1.389 . S
C395 H417 0.931 . S
C396 C393 1.481 . S
C396 C397 1.387 . S
C396 C401 1.390 . S
C397 C396 1.387 . S
C397 C398 1.401 . S
C397 H418 0.930 . S
C398 C397 1.401 . S
C398 C399 1.376 . S
C398 C407 1.511 . S
C399 C398 1.376 . S
C399 C400 1.392 . S
C399 H420 0.931 . S
C400 C399 1.392 . S
C400 C401 1.361 . S
C400 C402 1.500 . S
C401 C396 1.390 . S
C401 C400 1.361 . S
C401 H419 0.931 . S
C402 C400 1.500 . S
C402 C403 1.371 . S
C402 C404 1.365 . S
C403 C402 1.371 . S
C403 C413 1.386 . S
C403 H421 0.931 . S
C404 C402 1.365 . S
C404 C405 1.409 . S
C404 H422 0.929 . S
C405 C404 1.409 . S
C405 C406 1.380 . S
C405 H423 0.930 . S
C406 C405 1.380 . S
C406 C413 1.357 . S
C407 C398 1.511 . S
C407 C408 1.341 . S
C407 C409 1.371 . S
C408 C407 1.341 . S
C408 C412 1.394 . S
C408 H424 0.930 . S
C409 C407 1.371 . S
C409 C410 1.392 . S
C409 H425 0.931 . S
C410 C409 1.392 . S
C410 C411 1.331 . S
C410 H428 0.932 . S
C411 C410 1.331 . S
C411 C412 1.336 . S
C412 C408 1.394 . S
C412 C411 1.336 . S
C412 H427 0.929 . S
C413 C403 1.386 . S
C413 C406 1.357 . S
C413 H426 0.928 . S
H414 C390 0.931 . S
H415 C392 0.930 . S
H416 C394 0.929 . S
H417 C395 0.931 . S
H418 C397 0.930 . S
H419 C401 0.931 . S
H420 C399 0.931 . S
H421 C403 0.931 . S
H422 C404 0.929 . S
H423 C405 0.930 . S
H424 C408 0.930 . S
H425 C409 0.931 . S
H426 C413 0.928 . S
H427 C412 0.929 . S
H428 C410 0.932 . S
C429 C430 1.386 . S
C429 C431 1.397 . S
C429 H453 0.931 . S
C430 C429 1.386 . S
C430 C434 1.397 . S
C431 C429 1.397 . S
C431 C432 1.384 . S
C431 H454 0.930 . S
C432 C431 1.384 . S
C432 C433 1.377 . S
C432 C435 1.481 . S
C433 C432 1.377 . S
C433 C434 1.389 . S
C433 H455 0.929 . S
C434 C430 1.397 . S
C434 C433 1.389 . S
C434 H456 0.931 . S
C435 C432 1.481 . S
C435 C436 1.387 . S
C435 C440 1.390 . S
C436 C435 1.387 . S
C436 C437 1.401 . S
C436 H457 0.930 . S
C437 C436 1.401 . S
C437 C438 1.376 . S
C437 C446 1.511 . S
C438 C437 1.376 . S
C438 C439 1.392 . S
C438 H459 0.931 . S
C439 C438 1.392 . S
C439 C440 1.361 . S
C439 C441 1.500 . S
C440 C435 1.390 . S
C440 C439 1.361 . S
C440 H458 0.931 . S
C441 C439 1.500 . S
C441 C442 1.371 . S
C441 C443 1.365 . S
C442 C441 1.371 . S
C442 C452 1.386 . S
C442 H460 0.931 . S
C443 C441 1.365 . S
C443 C444 1.409 . S
C443 H461 0.929 . S
C444 C443 1.409 . S
C444 C445 1.380 . S
C444 H462 0.930 . S
C445 C444 1.380 . S
C445 C452 1.357 . S
C446 C437 1.511 . S
C446 C447 1.341 . S
C446 C448 1.371 . S
C447 C446 1.341 . S
C447 C451 1.394 . S
C447 H463 0.930 . S
C448 C446 1.371 . S
C448 C449 1.392 . S
C448 H464 0.931 . S
C449 C448 1.392 . S
C449 C450 1.331 . S
C449 H467 0.932 . S
C450 C449 1.331 . S
C450 C451 1.336 . S
C451 C447 1.394 . S
C451 C450 1.336 . S
C451 H466 0.929 . S
C452 C442 1.386 . S
C452 C445 1.357 . S
C452 H465 0.928 . S
H453 C429 0.931 . S
H454 C431 0.930 . S
H455 C433 0.929 . S
H456 C434 0.931 . S
H457 C436 0.930 . S
H458 C440 0.931 . S
H459 C438 0.931 . S
H460 C442 0.931 . S
H461 C443 0.929 . S
H462 C444 0.930 . S
H463 C447 0.930 . S
H464 C448 0.931 . S
H465 C452 0.928 . S
H466 C451 0.929 . S
H467 C449 0.932 . S
C468 C469 1.386 . S
C468 C470 1.397 . S
C468 H492 0.931 . S
C469 C468 1.386 . S
C469 C473 1.397 . S
C470 C468 1.397 . S
C470 C471 1.384 . S
C470 H493 0.930 . S
C471 C470 1.384 . S
C471 C472 1.377 . S
C471 C474 1.481 . S
C472 C471 1.377 . S
C472 C473 1.389 . S
C472 H494 0.929 . S
C473 C469 1.397 . S
C473 C472 1.389 . S
C473 H495 0.931 . S
C474 C471 1.481 . S
C474 C475 1.387 . S
C474 C479 1.390 . S
C475 C474 1.387 . S
C475 C476 1.401 . S
C475 H496 0.930 . S
C476 C475 1.401 . S
C476 C477 1.376 . S
C476 C485 1.511 . S
C477 C476 1.376 . S
C477 C478 1.392 . S
C477 H498 0.931 . S
C478 C477 1.392 . S
C478 C479 1.361 . S
C478 C480 1.500 . S
C479 C474 1.390 . S
C479 C478 1.361 . S
C479 H497 0.931 . S
C480 C478 1.500 . S
C480 C481 1.371 . S
C480 C482 1.365 . S
C481 C480 1.371 . S
C481 C491 1.386 . S
C481 H499 0.931 . S
C482 C480 1.365 . S
C482 C483 1.409 . S
C482 H500 0.929 . S
C483 C482 1.409 . S
C483 C484 1.380 . S
C483 H501 0.930 . S
C484 C483 1.380 . S
C484 C491 1.357 . S
C485 C476 1.511 . S
C485 C486 1.341 . S
C485 C487 1.371 . S
C486 C485 1.341 . S
C486 C490 1.394 . S
C486 H502 0.930 . S
C487 C485 1.371 . S
C487 C488 1.392 . S
C487 H503 0.931 . S
C488 C487 1.392 . S
C488 C489 1.331 . S
C488 H506 0.932 . S
C489 C488 1.331 . S
C489 C490 1.336 . S
C490 C486 1.394 . S
C490 C489 1.336 . S
C490 H505 0.929 . S
C491 C481 1.386 . S
C491 C484 1.357 . S
C491 H504 0.928 . S
H492 C468 0.931 . S
H493 C470 0.930 . S
H494 C472 0.929 . S
H495 C473 0.931 . S
H496 C475 0.930 . S
H497 C479 0.931 . S
H498 C477 0.931 . S
H499 C481 0.931 . S
H500 C482 0.929 . S
H501 C483 0.930 . S
H502 C486 0.930 . S
H503 C487 0.931 . S
H504 C491 0.928 . S
H505 C490 0.929 . S
H506 C488 0.932 . S
C507 C508 1.386 . S
C507 C509 1.397 . S
C507 H531 0.931 . S
C508 C507 1.386 . S
C508 C512 1.397 . S
C509 C507 1.397 . S
C509 C510 1.384 . S
C509 H532 0.930 . S
C510 C509 1.384 . S
C510 C511 1.377 . S
C510 C513 1.481 . S
C511 C510 1.377 . S
C511 C512 1.389 . S
C511 H533 0.929 . S
C512 C508 1.397 . S
C512 C511 1.389 . S
C512 H534 0.931 . S
C513 C510 1.481 . S
C513 C514 1.387 . S
C513 C518 1.390 . S
C514 C513 1.387 . S
C514 C515 1.401 . S
C514 H535 0.930 . S
C515 C514 1.401 . S
C515 C516 1.376 . S
C515 C524 1.511 . S
C516 C515 1.376 . S
C516 C517 1.392 . S
C516 H537 0.931 . S
C517 C516 1.392 . S
C517 C518 1.361 . S
C517 C519 1.500 . S
C518 C513 1.390 . S
C518 C517 1.361 . S
C518 H536 0.931 . S
C519 C517 1.500 . S
C519 C520 1.371 . S
C519 C521 1.365 . S
C520 C519 1.371 . S
C520 C530 1.386 . S
C520 H538 0.931 . S
C521 C519 1.365 . S
C521 C522 1.409 . S
C521 H539 0.929 . S
C522 C521 1.409 . S
C522 C523 1.380 . S
C522 H540 0.930 . S
C523 C522 1.380 . S
C523 C530 1.357 . S
C524 C515 1.511 . S
C524 C525 1.341 . S
C524 C526 1.371 . S
C525 C524 1.341 . S
C525 C529 1.394 . S
C525 H541 0.930 . S
C526 C524 1.371 . S
C526 C527 1.392 . S
C526 H542 0.931 . S
C527 C526 1.392 . S
C527 C528 1.331 . S
C527 H545 0.932 . S
C528 C527 1.331 . S
C528 C529 1.336 . S
C529 C525 1.394 . S
C529 C528 1.336 . S
C529 H544 0.929 . S
C530 C520 1.386 . S
C530 C523 1.357 . S
C530 H543 0.928 . S
H531 C507 0.931 . S
H532 C509 0.930 . S
H533 C511 0.929 . S
H534 C512 0.931 . S
H535 C514 0.930 . S
H536 C518 0.931 . S
H537 C516 0.931 . S
H538 C520 0.931 . S
H539 C521 0.929 . S
H540 C522 0.930 . S
H541 C525 0.930 . S
H542 C526 0.931 . S
H543 C530 0.928 . S
H544 C529 0.929 . S
H545 C527 0.932 . S
C546 C547 1.386 . S
C546 C548 1.397 . S
C546 H570 0.931 . S
C547 C546 1.386 . S
C547 C551 1.397 . S
C548 C546 1.397 . S
C548 C549 1.384 . S
C548 H571 0.930 . S
C549 C548 1.384 . S
C549 C550 1.377 . S
C549 C552 1.481 . S
C550 C549 1.377 . S
C550 C551 1.389 . S
C550 H572 0.929 . S
C551 C547 1.397 . S
C551 C550 1.389 . S
C551 H573 0.931 . S
C552 C549 1.481 . S
C552 C553 1.387 . S
C552 C557 1.390 . S
C553 C552 1.387 . S
C553 C554 1.401 . S
C553 H574 0.930 . S
C554 C553 1.401 . S
C554 C555 1.376 . S
C554 C563 1.511 . S
C555 C554 1.376 . S
C555 C556 1.392 . S
C555 H576 0.931 . S
C556 C555 1.392 . S
C556 C557 1.361 . S
C556 C558 1.500 . S
C557 C552 1.390 . S
C557 C556 1.361 . S
C557 H575 0.931 . S
C558 C556 1.500 . S
C558 C559 1.371 . S
C558 C560 1.365 . S
C559 C558 1.371 . S
C559 C569 1.386 . S
C559 H577 0.931 . S
C560 C558 1.365 . S
C560 C561 1.409 . S
C560 H578 0.929 . S
C561 C560 1.409 . S
C561 C562 1.380 . S
C561 H579 0.930 . S
C562 C561 1.380 . S
C562 C569 1.357 . S
C563 C554 1.511 . S
C563 C564 1.341 . S
C563 C565 1.371 . S
C564 C563 1.341 . S
C564 C568 1.394 . S
C564 H580 0.930 . S
C565 C563 1.371 . S
C565 C566 1.392 . S
C565 H581 0.931 . S
C566 C565 1.392 . S
C566 C567 1.331 . S
C566 H584 0.932 . S
C567 C566 1.331 . S
C567 C568 1.336 . S
C568 C564 1.394 . S
C568 C567 1.336 . S
C568 H583 0.929 . S
C569 C559 1.386 . S
C569 C562 1.357 . S
C569 H582 0.928 . S
H570 C546 0.931 . S
H571 C548 0.930 . S
H572 C550 0.929 . S
H573 C551 0.931 . S
H574 C553 0.930 . S
H575 C557 0.931 . S
H576 C555 0.931 . S
H577 C559 0.931 . S
H578 C560 0.929 . S
H579 C561 0.930 . S
H580 C564 0.930 . S
H581 C565 0.931 . S
H582 C569 0.928 . S
H583 C568 0.929 . S
H584 C566 0.932 . S
C585 C586 1.386 . S
C585 C587 1.397 . S
C585 H609 0.931 . S
C586 C585 1.386 . S
C586 C590 1.397 . S
C587 C585 1.397 . S
C587 C588 1.384 . S
C587 H610 0.930 . S
C588 C587 1.384 . S
C588 C589 1.377 . S
C588 C591 1.481 . S
C589 C588 1.377 . S
C589 C590 1.389 . S
C589 H611 0.929 . S
C590 C586 1.397 . S
C590 C589 1.389 . S
C590 H612 0.931 . S
C591 C588 1.481 . S
C591 C592 1.387 . S
C591 C596 1.390 . S
C592 C591 1.387 . S
C592 C593 1.401 . S
C592 H613 0.930 . S
C593 C592 1.401 . S
C593 C594 1.376 . S
C593 C602 1.511 . S
C594 C593 1.376 . S
C594 C595 1.392 . S
C594 H615 0.931 . S
C595 C594 1.392 . S
C595 C596 1.361 . S
C595 C597 1.500 . S
C596 C591 1.390 . S
C596 C595 1.361 . S
C596 H614 0.931 . S
C597 C595 1.500 . S
C597 C598 1.371 . S
C597 C599 1.365 . S
C598 C597 1.371 . S
C598 C608 1.386 . S
C598 H616 0.931 . S
C599 C597 1.365 . S
C599 C600 1.409 . S
C599 H617 0.929 . S
C600 C599 1.409 . S
C600 C601 1.380 . S
C600 H618 0.930 . S
C601 C600 1.380 . S
C601 C608 1.357 . S
C602 C593 1.511 . S
C602 C603 1.341 . S
C602 C604 1.371 . S
C603 C602 1.341 . S
C603 C607 1.394 . S
C603 H619 0.930 . S
C604 C602 1.371 . S
C604 C605 1.392 . S
C604 H620 0.931 . S
C605 C604 1.392 . S
C605 C606 1.331 . S
C605 H623 0.932 . S
C606 C605 1.331 . S
C606 C607 1.336 . S
C607 C603 1.394 . S
C607 C606 1.336 . S
C607 H622 0.929 . S
C608 C598 1.386 . S
C608 C601 1.357 . S
C608 H621 0.928 . S
H609 C585 0.931 . S
H610 C587 0.930 . S
H611 C589 0.929 . S
H612 C590 0.931 . S
H613 C592 0.930 . S
H614 C596 0.931 . S
H615 C594 0.931 . S
H616 C598 0.931 . S
H617 C599 0.929 . S
H618 C600 0.930 . S
H619 C603 0.930 . S
H620 C604 0.931 . S
H621 C608 0.928 . S
H622 C607 0.929 . S
H623 C605 0.932 . S
C624 C625 1.386 . S
C624 C626 1.397 . S
C624 H648 0.931 . S
C625 C624 1.386 . S
C625 C629 1.397 . S
C626 C624 1.397 . S
C626 C627 1.384 . S
C626 H649 0.930 . S
C627 C626 1.384 . S
C627 C628 1.377 . S
C627 C630 1.481 . S
C628 C627 1.377 . S
C628 C629 1.389 . S
C628 H650 0.929 . S
C629 C625 1.397 . S
C629 C628 1.389 . S
C629 H651 0.931 . S
C630 C627 1.481 . S
C630 C631 1.387 . S
C630 C635 1.390 . S
C631 C630 1.387 . S
C631 C632 1.401 . S
C631 H652 0.930 . S
C632 C631 1.401 . S
C632 C633 1.376 . S
C632 C641 1.511 . S
C633 C632 1.376 . S
C633 C634 1.392 . S
C633 H654 0.931 . S
C634 C633 1.392 . S
C634 C635 1.361 . S
C634 C636 1.500 . S
C635 C630 1.390 . S
C635 C634 1.361 . S
C635 H653 0.931 . S
C636 C634 1.500 . S
C636 C637 1.371 . S
C636 C638 1.365 . S
C637 C636 1.371 . S
C637 C647 1.386 . S
C637 H655 0.931 . S
C638 C636 1.365 . S
C638 C639 1.409 . S
C638 H656 0.929 . S
C639 C638 1.409 . S
C639 C640 1.380 . S
C639 H657 0.930 . S
C640 C639 1.380 . S
C640 C647 1.357 . S
C641 C632 1.511 . S
C641 C642 1.341 . S
C641 C643 1.371 . S
C642 C641 1.341 . S
C642 C646 1.394 . S
C642 H658 0.930 . S
C643 C641 1.371 . S
C643 C644 1.392 . S
C643 H659 0.931 . S
C644 C643 1.392 . S
C644 C645 1.331 . S
C644 H662 0.932 . S
C645 C644 1.331 . S
C645 C646 1.336 . S
C646 C642 1.394 . S
C646 C645 1.336 . S
C646 H661 0.929 . S
C647 C637 1.386 . S
C647 C640 1.357 . S
C647 H660 0.928 . S
H648 C624 0.931 . S
H649 C626 0.930 . S
H650 C628 0.929 . S
H651 C629 0.931 . S
H652 C631 0.930 . S
H653 C635 0.931 . S
H654 C633 0.931 . S
H655 C637 0.931 . S
H656 C638 0.929 . S
H657 C639 0.930 . S
H658 C642 0.930 . S
H659 C643 0.931 . S
H660 C647 0.928 . S
H661 C646 0.929 . S
H662 C644 0.932 . S
C663 C664 1.386 . S
C663 C665 1.397 . S
C663 H687 0.931 . S
C664 C663 1.386 . S
C664 C668 1.397 . S
C665 C663 1.397 . S
C665 C666 1.384 . S
C665 H688 0.930 . S
C666 C665 1.384 . S
C666 C667 1.377 . S
C666 C669 1.481 . S
C667 C666 1.377 . S
C667 C668 1.389 . S
C667 H689 0.929 . S
C668 C664 1.397 . S
C668 C667 1.389 . S
C668 H690 0.931 . S
C669 C666 1.481 . S
C669 C670 1.387 . S
C669 C674 1.390 . S
C670 C669 1.387 . S
C670 C671 1.401 . S
C670 H691 0.930 . S
C671 C670 1.401 . S
C671 C672 1.376 . S
C671 C680 1.511 . S
C672 C671 1.376 . S
C672 C673 1.392 . S
C672 H693 0.931 . S
C673 C672 1.392 . S
C673 C674 1.361 . S
C673 C675 1.500 . S
C674 C669 1.390 . S
C674 C673 1.361 . S
C674 H692 0.931 . S
C675 C673 1.500 . S
C675 C676 1.371 . S
C675 C677 1.365 . S
C676 C675 1.371 . S
C676 C686 1.386 . S
C676 H694 0.931 . S
C677 C675 1.365 . S
C677 C678 1.409 . S
C677 H695 0.929 . S
C678 C677 1.409 . S
C678 C679 1.380 . S
C678 H696 0.930 . S
C679 C678 1.380 . S
C679 C686 1.357 . S
C680 C671 1.511 . S
C680 C681 1.341 . S
C680 C682 1.371 . S
C681 C680 1.341 . S
C681 C685 1.394 . S
C681 H697 0.930 . S
C682 C680 1.371 . S
C682 C683 1.392 . S
C682 H698 0.931 . S
C683 C682 1.392 . S
C683 C684 1.331 . S
C683 H701 0.932 . S
C684 C683 1.331 . S
C684 C685 1.336 . S
C685 C681 1.394 . S
C685 C684 1.336 . S
C685 H700 0.929 . S
C686 C676 1.386 . S
C686 C679 1.357 . S
C686 H699 0.928 . S
H687 C663 0.931 . S
H688 C665 0.930 . S
H689 C667 0.929 . S
H690 C668 0.931 . S
H691 C670 0.930 . S
H692 C674 0.931 . S
H693 C672 0.931 . S
H694 C676 0.931 . S
H695 C677 0.929 . S
H696 C678 0.930 . S
H697 C681 0.930 . S
H698 C682 0.931 . S
H699 C686 0.928 . S
H700 C685 0.929 . S
H701 C683 0.932 . S
C702 C703 1.386 . S
C702 C704 1.397 . S
C702 H726 0.931 . S
C703 C702 1.386 . S
C703 C707 1.397 . S
C704 C702 1.397 . S
C704 C705 1.384 . S
C704 H727 0.930 . S
C705 C704 1.384 . S
C705 C706 1.377 . S
C705 C708 1.481 . S
C706 C705 1.377 . S
C706 C707 1.389 . S
C706 H728 0.929 . S
C707 C703 1.397 . S
C707 C706 1.389 . S
C707 H729 0.931 . S
C708 C705 1.481 . S
C708 C709 1.387 . S
C708 C713 1.390 . S
C709 C708 1.387 . S
C709 C710 1.401 . S
C709 H730 0.930 . S
C710 C709 1.401 . S
C710 C711 1.376 . S
C710 C719 1.511 . S
C711 C710 1.376 . S
C711 C712 1.392 . S
C711 H732 0.931 . S
C712 C711 1.392 . S
C712 C713 1.361 . S
C712 C714 1.500 . S
C713 C708 1.390 . S
C713 C712 1.361 . S
C713 H731 0.931 . S
C714 C712 1.500 . S
C714 C715 1.371 . S
C714 C716 1.365 . S
C715 C714 1.371 . S
C715 C725 1.386 . S
C715 H733 0.931 . S
C716 C714 1.365 . S
C716 C717 1.409 . S
C716 H734 0.929 . S
C717 C716 1.409 . S
C717 C718 1.380 . S
C717 H735 0.930 . S
C718 C717 1.380 . S
C718 C725 1.357 . S
C719 C710 1.511 . S
C719 C720 1.341 . S
C719 C721 1.371 . S
C720 C719 1.341 . S
C720 C724 1.394 . S
C720 H736 0.930 . S
C721 C719 1.371 . S
C721 C722 1.392 . S
C721 H737 0.931 . S
C722 C721 1.392 . S
C722 C723 1.331 . S
C722 H740 0.932 . S
C723 C722 1.331 . S
C723 C724 1.336 . S
C724 C720 1.394 . S
C724 C723 1.336 . S
C724 H739 0.929 . S
C725 C715 1.386 . S
C725 C718 1.357 . S
C725 H738 0.928 . S
H726 C702 0.931 . S
H727 C704 0.930 . S
H728 C706 0.929 . S
H729 C707 0.931 . S
H730 C709 0.930 . S
H731 C713 0.931 . S
H732 C711 0.931 . S
H733 C715 0.931 . S
H734 C716 0.929 . S
H735 C717 0.930 . S
H736 C720 0.930 . S
H737 C721 0.931 . S
H738 C725 0.928 . S
H739 C724 0.929 . S
H740 C722 0.932 . S
C741 C742 1.386 . S
C741 C743 1.397 . S
C741 H765 0.931 . S
C742 C741 1.386 . S
C742 C746 1.397 . S
C743 C741 1.397 . S
C743 C744 1.384 . S
C743 H766 0.930 . S
C744 C743 1.384 . S
C744 C745 1.377 . S
C744 C747 1.481 . S
C745 C744 1.377 . S
C745 C746 1.389 . S
C745 H767 0.929 . S
C746 C742 1.397 . S
C746 C745 1.389 . S
C746 H768 0.931 . S
C747 C744 1.481 . S
C747 C748 1.387 . S
C747 C752 1.390 . S
C748 C747 1.387 . S
C748 C749 1.401 . S
C748 H769 0.930 . S
C749 C748 1.401 . S
C749 C750 1.376 . S
C749 C758 1.511 . S
C750 C749 1.376 . S
C750 C751 1.392 . S
C750 H771 0.931 . S
C751 C750 1.392 . S
C751 C752 1.361 . S
C751 C753 1.500 . S
C752 C747 1.390 . S
C752 C751 1.361 . S
C752 H770 0.931 . S
C753 C751 1.500 . S
C753 C754 1.371 . S
C753 C755 1.365 . S
C754 C753 1.371 . S
C754 C764 1.386 . S
C754 H772 0.931 . S
C755 C753 1.365 . S
C755 C756 1.409 . S
C755 H773 0.929 . S
C756 C755 1.409 . S
C756 C757 1.380 . S
C756 H774 0.930 . S
C757 C756 1.380 . S
C757 C764 1.357 . S
C758 C749 1.511 . S
C758 C759 1.341 . S
C758 C760 1.371 . S
C759 C758 1.341 . S
C759 C763 1.394 . S
C759 H775 0.930 . S
C760 C758 1.371 . S
C760 C761 1.392 . S
C760 H776 0.931 . S
C761 C760 1.392 . S
C761 C762 1.331 . S
C761 H779 0.932 . S
C762 C761 1.331 . S
C762 C763 1.336 . S
C763 C759 1.394 . S
C763 C762 1.336 . S
C763 H778 0.929 . S
C764 C754 1.386 . S
C764 C757 1.357 . S
C764 H777 0.928 . S
H765 C741 0.931 . S
H766 C743 0.930 . S
H767 C745 0.929 . S
H768 C746 0.931 . S
H769 C748 0.930 . S
H770 C752 0.931 . S
H771 C750 0.931 . S
H772 C754 0.931 . S
H773 C755 0.929 . S
H774 C756 0.930 . S
H775 C759 0.930 . S
H776 C760 0.931 . S
H777 C764 0.928 . S
H778 C763 0.929 . S
H779 C761 0.932 . S
C780 C781 1.386 . S
C780 C782 1.397 . S
C780 H804 0.931 . S
C781 C780 1.386 . S
C781 C785 1.397 . S
C782 C780 1.397 . S
C782 C783 1.384 . S
C782 H805 0.930 . S
C783 C782 1.384 . S
C783 C784 1.377 . S
C783 C786 1.481 . S
C784 C783 1.377 . S
C784 C785 1.389 . S
C784 H806 0.929 . S
C785 C781 1.397 . S
C785 C784 1.389 . S
C785 H807 0.931 . S
C786 C783 1.481 . S
C786 C787 1.387 . S
C786 C791 1.390 . S
C787 C786 1.387 . S
C787 C788 1.401 . S
C787 H808 0.930 . S
C788 C787 1.401 . S
C788 C789 1.376 . S
C788 C797 1.511 . S
C789 C788 1.376 . S
C789 C790 1.392 . S
C789 H810 0.931 . S
C790 C789 1.392 . S
C790 C791 1.361 . S
C790 C792 1.500 . S
C791 C786 1.390 . S
C791 C790 1.361 . S
C791 H809 0.931 . S
C792 C790 1.500 . S
C792 C793 1.371 . S
C792 C794 1.365 . S
C793 C792 1.371 . S
C793 C803 1.386 . S
C793 H811 0.931 . S
C794 C792 1.365 . S
C794 C795 1.409 . S
C794 H812 0.929 . S
C795 C794 1.409 . S
C795 C796 1.380 . S
C795 H813 0.930 . S
C796 C795 1.380 . S
C796 C803 1.357 . S
C797 C788 1.511 . S
C797 C798 1.341 . S
C797 C799 1.371 . S
C798 C797 1.341 . S
C798 C802 1.394 . S
C798 H814 0.930 . S
C799 C797 1.371 . S
C799 C800 1.392 . S
C799 H815 0.931 . S
C800 C799 1.392 . S
C800 C801 1.331 . S
C800 H818 0.932 . S
C801 C800 1.331 . S
C801 C802 1.336 . S
C802 C798 1.394 . S
C802 C801 1.336 . S
C802 H817 0.929 . S
C803 C793 1.386 . S
C803 C796 1.357 . S
C803 H816 0.928 . S
H804 C780 0.931 . S
H805 C782 0.930 . S
H806 C784 0.929 . S
H807 C785 0.931 . S
H808 C787 0.930 . S
H809 C791 0.931 . S
H810 C789 0.931 . S
H811 C793 0.931 . S
H812 C794 0.929 . S
H813 C795 0.930 . S
H814 C798 0.930 . S
H815 C799 0.931 . S
H816 C803 0.928 . S
H817 C802 0.929 . S
H818 C800 0.932 . S
C819 C820 1.386 . S
C819 C821 1.397 . S
C819 H843 0.931 . S
C820 C819 1.386 . S
C820 C824 1.397 . S
C821 C819 1.397 . S
C821 C822 1.384 . S
C821 H844 0.930 . S
C822 C821 1.384 . S
C822 C823 1.377 . S
C822 C825 1.481 . S
C823 C822 1.377 . S
C823 C824 1.389 . S
C823 H845 0.929 . S
C824 C820 1.397 . S
C824 C823 1.389 . S
C824 H846 0.931 . S
C825 C822 1.481 . S
C825 C826 1.387 . S
C825 C830 1.390 . S
C826 C825 1.387 . S
C826 C827 1.401 . S
C826 H847 0.930 . S
C827 C826 1.401 . S
C827 C828 1.376 . S
C827 C836 1.511 . S
C828 C827 1.376 . S
C828 C829 1.392 . S
C828 H849 0.931 . S
C829 C828 1.392 . S
C829 C830 1.361 . S
C829 C831 1.500 . S
C830 C825 1.390 . S
C830 C829 1.361 . S
C830 H848 0.931 . S
C831 C829 1.500 . S
C831 C832 1.371 . S
C831 C833 1.365 . S
C832 C831 1.371 . S
C832 C842 1.386 . S
C832 H850 0.931 . S
C833 C831 1.365 . S
C833 C834 1.409 . S
C833 H851 0.929 . S
C834 C833 1.409 . S
C834 C835 1.380 . S
C834 H852 0.930 . S
C835 C834 1.380 . S
C835 C842 1.357 . S
C836 C827 1.511 . S
C836 C837 1.341 . S
C836 C838 1.371 . S
C837 C836 1.341 . S
C837 C841 1.394 . S
C837 H853 0.930 . S
C838 C836 1.371 . S
C838 C839 1.392 . S
C838 H854 0.931 . S
C839 C838 1.392 . S
C839 C840 1.331 . S
C839 H857 0.932 . S
C840 C839 1.331 . S
C840 C841 1.336 . S
C841 C837 1.394 . S
C841 C840 1.336 . S
C841 H856 0.929 . S
C842 C832 1.386 . S
C842 C835 1.357 . S
C842 H855 0.928 . S
H843 C819 0.931 . S
H844 C821 0.930 . S
H845 C823 0.929 . S
H846 C824 0.931 . S
H847 C826 0.930 . S
H848 C830 0.931 . S
H849 C828 0.931 . S
H850 C832 0.931 . S
H851 C833 0.929 . S
H852 C834 0.930 . S
H853 C837 0.930 . S
H854 C838 0.931 . S
H855 C842 0.928 . S
H856 C841 0.929 . S
H857 C839 0.932 . S
C858 C859 1.386 . S
C858 C860 1.397 . S
C858 H882 0.931 . S
C859 C858 1.386 . S
C859 C863 1.397 . S
C860 C858 1.397 . S
C860 C861 1.384 . S
C860 H883 0.930 . S
C861 C860 1.384 . S
C861 C862 1.377 . S
C861 C864 1.481 . S
C862 C861 1.377 . S
C862 C863 1.389 . S
C862 H884 0.929 . S
C863 C859 1.397 . S
C863 C862 1.389 . S
C863 H885 0.931 . S
C864 C861 1.481 . S
C864 C865 1.387 . S
C864 C869 1.390 . S
C865 C864 1.387 . S
C865 C866 1.401 . S
C865 H886 0.930 . S
C866 C865 1.401 . S
C866 C867 1.376 . S
C866 C875 1.511 . S
C867 C866 1.376 . S
C867 C868 1.392 . S
C867 H888 0.931 . S
C868 C867 1.392 . S
C868 C869 1.361 . S
C868 C870 1.500 . S
C869 C864 1.390 . S
C869 C868 1.361 . S
C869 H887 0.931 . S
C870 C868 1.500 . S
C870 C871 1.371 . S
C870 C872 1.365 . S
C871 C870 1.371 . S
C871 C881 1.386 . S
C871 H889 0.931 . S
C872 C870 1.365 . S
C872 C873 1.409 . S
C872 H890 0.929 . S
C873 C872 1.409 . S
C873 C874 1.380 . S
C873 H891 0.930 . S
C874 C873 1.380 . S
C874 C881 1.357 . S
C875 C866 1.511 . S
C875 C876 1.341 . S
C875 C877 1.371 . S
C876 C875 1.341 . S
C876 C880 1.394 . S
C876 H892 0.930 . S
C877 C875 1.371 . S
C877 C878 1.392 . S
C877 H893 0.931 . S
C878 C877 1.392 . S
C878 C879 1.331 . S
C878 H896 0.932 . S
C879 C878 1.331 . S
C879 C880 1.336 . S
C880 C876 1.394 . S
C880 C879 1.336 . S
C880 H895 0.929 . S
C881 C871 1.386 . S
C881 C874 1.357 . S
C881 H894 0.928 . S
H882 C858 0.931 . S
H883 C860 0.930 . S
H884 C862 0.929 . S
H885 C863 0.931 . S
H886 C865 0.930 . S
H887 C869 0.931 . S
H888 C867 0.931 . S
H889 C871 0.931 . S
H890 C872 0.929 . S
H891 C873 0.930 . S
H892 C876 0.930 . S
H893 C877 0.931 . S
H894 C881 0.928 . S
H895 C880 0.929 . S
H896 C878 0.932 . S
C897 C898 1.386 . S
C897 C899 1.397 . S
C897 H921 0.931 . S
C898 C897 1.386 . S
C898 C902 1.397 . S
C899 C897 1.397 . S
C899 C900 1.384 . S
C899 H922 0.930 . S
C900 C899 1.384 . S
C900 C901 1.377 . S
C900 C903 1.481 . S
C901 C900 1.377 . S
C901 C902 1.389 . S
C901 H923 0.929 . S
C902 C898 1.397 . S
C902 C901 1.389 . S
C902 H924 0.931 . S
C903 C900 1.481 . S
C903 C904 1.387 . S
C903 C908 1.390 . S
C904 C903 1.387 . S
C904 C905 1.401 . S
C904 H925 0.930 . S
C905 C904 1.401 . S
C905 C906 1.376 . S
C905 C914 1.511 . S
C906 C905 1.376 . S
C906 C907 1.392 . S
C906 H927 0.931 . S
C907 C906 1.392 . S
C907 C908 1.361 . S
C907 C909 1.500 . S
C908 C903 1.390 . S
C908 C907 1.361 . S
C908 H926 0.931 . S
C909 C907 1.500 . S
C909 C910 1.371 . S
C909 C911 1.365 . S
C910 C909 1.371 . S
C910 C920 1.386 . S
C910 H928 0.931 . S
C911 C909 1.365 . S
C911 C912 1.409 . S
C911 H929 0.929 . S
C912 C911 1.409 . S
C912 C913 1.380 . S
C912 H930 0.930 . S
C913 C912 1.380 . S
C913 C920 1.357 . S
C914 C905 1.511 . S
C914 C915 1.341 . S
C914 C916 1.371 . S
C915 C914 1.341 . S
C915 C919 1.394 . S
C915 H931 0.930 . S
C916 C914 1.371 . S
C916 C917 1.392 . S
C916 H932 0.931 . S
C917 C916 1.392 . S
C917 C918 1.331 . S
C917 H935 0.932 . S
C918 C917 1.331 . S
C918 C919 1.336 . S
C919 C915 1.394 . S
C919 C918 1.336 . S
C919 H934 0.929 . S
C920 C910 1.386 . S
C920 C913 1.357 . S
C920 H933 0.928 . S
H921 C897 0.931 . S
H922 C899 0.930 . S
H923 C901 0.929 . S
H924 C902 0.931 . S
H925 C904 0.930 . S
H926 C908 0.931 . S
H927 C906 0.931 . S
H928 C910 0.931 . S
H929 C911 0.929 . S
H930 C912 0.930 . S
H931 C915 0.930 . S
H932 C916 0.931 . S
H933 C920 0.928 . S
H934 C919 0.929 . S
H935 C917 0.932 . S
C936 C937 1.386 . S
C936 C938 1.397 . S
C936 H960 0.931 . S
C937 C936 1.386 . S
C937 C941 1.397 . S
C938 C936 1.397 . S
C938 C939 1.384 . S
C938 H961 0.930 . S
C939 C938 1.384 . S
C939 C940 1.377 . S
C939 C942 1.481 . S
C940 C939 1.377 . S
C940 C941 1.389 . S
C940 H962 0.929 . S
C941 C937 1.397 . S
C941 C940 1.389 . S
C941 H963 0.931 . S
C942 C939 1.481 . S
C942 C943 1.387 . S
C942 C947 1.390 . S
C943 C942 1.387 . S
C943 C944 1.401 . S
C943 H964 0.930 . S
C944 C943 1.401 . S
C944 C945 1.376 . S
C944 C953 1.511 . S
C945 C944 1.376 . S
C945 C946 1.392 . S
C945 H966 0.931 . S
C946 C945 1.392 . S
C946 C947 1.361 . S
C946 C948 1.500 . S
C947 C942 1.390 . S
C947 C946 1.361 . S
C947 H965 0.931 . S
C948 C946 1.500 . S
C948 C949 1.371 . S
C948 C950 1.365 . S
C949 C948 1.371 . S
C949 C959 1.386 . S
C949 H967 0.931 . S
C950 C948 1.365 . S
C950 C951 1.409 . S
C950 H968 0.929 . S
C951 C950 1.409 . S
C951 C952 1.380 . S
C951 H969 0.930 . S
C952 C951 1.380 . S
C952 C959 1.357 . S
C953 C944 1.511 . S
C953 C954 1.341 . S
C953 C955 1.371 . S
C954 C953 1.341 . S
C954 C958 1.394 . S
C954 H970 0.930 . S
C955 C953 1.371 . S
C955 C956 1.392 . S
C955 H971 0.931 . S
C956 C955 1.392 . S
C956 C957 1.331 . S
C956 H974 0.932 . S
C957 C956 1.331 . S
C957 C958 1.336 . S
C958 C954 1.394 . S
C958 C957 1.336 . S
C958 H973 0.929 . S
C959 C949 1.386 . S
C959 C952 1.357 . S
C959 H972 0.928 . S
H960 C936 0.931 . S
H961 C938 0.930 . S
H962 C940 0.929 . S
H963 C941 0.931 . S
H964 C943 0.930 . S
H965 C947 0.931 . S
H966 C945 0.931 . S
H967 C949 0.931 . S
H968 C950 0.929 . S
H969 C951 0.930 . S
H970 C954 0.930 . S
H971 C955 0.931 . S
H972 C959 0.928 . S
H973 C958 0.929 . S
H974 C956 0.932 . S
C975 C976 1.386 . S
C975 C977 1.397 . S
C975 H999 0.931 . S
C976 C975 1.386 . S
C976 C980 1.397 . S
C977 C975 1.397 . S
C977 C978 1.384 . S
C977 H1000 0.930 . S
C978 C977 1.384 . S
C978 C979 1.377 . S
C978 C981 1.481 . S
C979 C978 1.377 . S
C979 C980 1.389 . S
C979 H1001 0.929 . S
C980 C976 1.397 . S
C980 C979 1.389 . S
C980 H1002 0.931 . S
C981 C978 1.481 . S
C981 C982 1.387 . S
C981 C986 1.390 . S
C982 C981 1.387 . S
C982 C983 1.401 . S
C982 H1003 0.930 . S
C983 C982 1.401 . S
C983 C984 1.376 . S
C983 C992 1.511 . S
C984 C983 1.376 . S
C984 C985 1.392 . S
C984 H1005 0.931 . S
C985 C984 1.392 . S
C985 C986 1.361 . S
C985 C987 1.500 . S
C986 C981 1.390 . S
C986 C985 1.361 . S
C986 H1004 0.931 . S
C987 C985 1.500 . S
C987 C988 1.371 . S
C987 C989 1.365 . S
C988 C987 1.371 . S
C988 C998 1.386 . S
C988 H1006 0.931 . S
C989 C987 1.365 . S
C989 C990 1.409 . S
C989 H1007 0.929 . S
C990 C989 1.409 . S
C990 C991 1.380 . S
C990 H1008 0.930 . S
C991 C990 1.380 . S
C991 C998 1.357 . S
C992 C983 1.511 . S
C992 C993 1.341 . S
C992 C994 1.371 . S
C993 C992 1.341 . S
C993 C997 1.394 . S
C993 H1009 0.930 . S
C994 C992 1.371 . S
C994 C995 1.392 . S
C994 H1010 0.931 . S
C995 C994 1.392 . S
C995 C996 1.331 . S
C995 H1013 0.932 . S
C996 C995 1.331 . S
C996 C997 1.336 . S
C997 C993 1.394 . S
C997 C996 1.336 . S
C997 H1012 0.929 . S
C998 C988 1.386 . S
C998 C991 1.357 . S
C998 H1011 0.928 . S
H999 C975 0.931 . S
H1000 C977 0.930 . S
H1001 C979 0.929 . S
H1002 C980 0.931 . S
H1003 C982 0.930 . S
H1004 C986 0.931 . S
H1005 C984 0.931 . S
H1006 C988 0.931 . S
H1007 C989 0.929 . S
H1008 C990 0.930 . S
H1009 C993 0.930 . S
H1010 C994 0.931 . S
H1011 C998 0.928 . S
H1012 C997 0.929 . S
H1013 C995 0.932 . S
C1014 C1015 1.386 . S
C1014 C1016 1.397 . S
C1014 H1038 0.931 . S
C1015 C1014 1.386 . S
C1015 C1019 1.397 . S
C1016 C1014 1.397 . S
C1016 C1017 1.384 . S
C1016 H1039 0.930 . S
C1017 C1016 1.384 . S
C1017 C1018 1.377 . S
C1017 C1020 1.481 . S
C1018 C1017 1.377 . S
C1018 C1019 1.389 . S
C1018 H1040 0.929 . S
C1019 C1015 1.397 . S
C1019 C1018 1.389 . S
C1019 H1041 0.931 . S
C1020 C1017 1.481 . S
C1020 C1021 1.387 . S
C1020 C1025 1.390 . S
C1021 C1020 1.387 . S
C1021 C1022 1.401 . S
C1021 H1042 0.930 . S
C1022 C1021 1.401 . S
C1022 C1023 1.376 . S
C1022 C1031 1.511 . S
C1023 C1022 1.376 . S
C1023 C1024 1.392 . S
C1023 H1044 0.931 . S
C1024 C1023 1.392 . S
C1024 C1025 1.361 . S
C1024 C1026 1.500 . S
C1025 C1020 1.390 . S
C1025 C1024 1.361 . S
C1025 H1043 0.931 . S
C1026 C1024 1.500 . S
C1026 C1027 1.371 . S
C1026 C1028 1.365 . S
C1027 C1026 1.371 . S
C1027 C1037 1.386 . S
C1027 H1045 0.931 . S
C1028 C1026 1.365 . S
C1028 C1029 1.409 . S
C1028 H1046 0.929 . S
C1029 C1028 1.409 . S
C1029 C1030 1.380 . S
C1029 H1047 0.930 . S
C1030 C1029 1.380 . S
C1030 C1037 1.357 . S
C1031 C1022 1.511 . S
C1031 C1032 1.341 . S
C1031 C1033 1.371 . S
C1032 C1031 1.341 . S
C1032 C1036 1.394 . S
C1032 H1048 0.930 . S
C1033 C1031 1.371 . S
C1033 C1034 1.392 . S
C1033 H1049 0.931 . S
C1034 C1033 1.392 . S
C1034 C1035 1.331 . S
C1034 H1052 0.932 . S
C1035 C1034 1.331 . S
C1035 C1036 1.336 . S
C1036 C1032 1.394 . S
C1036 C1035 1.336 . S
C1036 H1051 0.929 . S
C1037 C1027 1.386 . S
C1037 C1030 1.357 . S
C1037 H1050 0.928 . S
H1038 C1014 0.931 . S
H1039 C1016 0.930 . S
H1040 C1018 0.929 . S
H1041 C1019 0.931 . S
H1042 C1021 0.930 . S
H1043 C1025 0.931 . S
H1044 C1023 0.931 . S
H1045 C1027 0.931 . S
H1046 C1028 0.929 . S
H1047 C1029 0.930 . S
H1048 C1032 0.930 . S
H1049 C1033 0.931 . S
H1050 C1037 0.928 . S
H1051 C1036 0.929 . S
H1052 C1034 0.932 . S
C1053 C1054 1.386 . S
C1053 C1055 1.397 . S
C1053 H1077 0.931 . S
C1054 C1053 1.386 . S
C1054 C1058 1.397 . S
C1055 C1053 1.397 . S
C1055 C1056 1.384 . S
C1055 H1078 0.930 . S
C1056 C1055 1.384 . S
C1056 C1057 1.377 . S
C1056 C1059 1.481 . S
C1057 C1056 1.377 . S
C1057 C1058 1.389 . S
C1057 H1079 0.929 . S
C1058 C1054 1.397 . S
C1058 C1057 1.389 . S
C1058 H1080 0.931 . S
C1059 C1056 1.481 . S
C1059 C1060 1.387 . S
C1059 C1064 1.390 . S
C1060 C1059 1.387 . S
C1060 C1061 1.401 . S
C1060 H1081 0.930 . S
C1061 C1060 1.401 . S
C1061 C1062 1.376 . S
C1061 C1070 1.511 . S
C1062 C1061 1.376 . S
C1062 C1063 1.392 . S
C1062 H1083 0.931 . S
C1063 C1062 1.392 . S
C1063 C1064 1.361 . S
C1063 C1065 1.500 . S
C1064 C1059 1.390 . S
C1064 C1063 1.361 . S
C1064 H1082 0.931 . S
C1065 C1063 1.500 . S
C1065 C1066 1.371 . S
C1065 C1067 1.365 . S
C1066 C1065 1.371 . S
C1066 C1076 1.386 . S
C1066 H1084 0.931 . S
C1067 C1065 1.365 . S
C1067 C1068 1.409 . S
C1067 H1085 0.929 . S
C1068 C1067 1.409 . S
C1068 C1069 1.380 . S
C1068 H1086 0.930 . S
C1069 C1068 1.380 . S
C1069 C1076 1.357 . S
C1070 C1061 1.511 . S
C1070 C1071 1.341 . S
C1070 C1072 1.371 . S
C1071 C1070 1.341 . S
C1071 C1075 1.394 . S
C1071 H1087 0.930 . S
C1072 C1070 1.371 . S
C1072 C1073 1.392 . S
C1072 H1088 0.931 . S
C1073 C1072 1.392 . S
C1073 C1074 1.331 . S
C1073 H1091 0.932 . S
C1074 C1073 1.331 . S
C1074 C1075 1.336 . S
C1075 C1071 1.394 . S
C1075 C1074 1.336 . S
C1075 H1090 0.929 . S
C1076 C1066 1.386 . S
C1076 C1069 1.357 . S
C1076 H1089 0.928 . S
H1077 C1053 0.931 . S
H1078 C1055 0.930 . S
H1079 C1057 0.929 . S
H1080 C1058 0.931 . S
H1081 C1060 0.930 . S
H1082 C1064 0.931 . S
H1083 C1062 0.931 . S
H1084 C1066 0.931 . S
H1085 C1067 0.929 . S
H1086 C1068 0.930 . S
H1087 C1071 0.930 . S
H1088 C1072 0.931 . S
H1089 C1076 0.928 . S
H1090 C1075 0.929 . S
H1091 C1073 0.932 . S
C1092 C1093 1.386 . S
C1092 C1094 1.397 . S
C1092 H1116 0.931 . S
C1093 C1092 1.386 . S
C1093 C1097 1.397 . S
C1094 C1092 1.397 . S
C1094 C1095 1.384 . S
C1094 H1117 0.930 . S
C1095 C1094 1.384 . S
C1095 C1096 1.377 . S
C1095 C1098 1.481 . S
C1096 C1095 1.377 . S
C1096 C1097 1.389 . S
C1096 H1118 0.929 . S
C1097 C1093 1.397 . S
C1097 C1096 1.389 . S
C1097 H1119 0.931 . S
C1098 C1095 1.481 . S
C1098 C1099 1.387 . S
C1098 C1103 1.390 . S
C1099 C1098 1.387 . S
C1099 C1100 1.401 . S
C1099 H1120 0.930 . S
C1100 C1099 1.401 . S
C1100 C1101 1.376 . S
C1100 C1109 1.511 . S
C1101 C1100 1.376 . S
C1101 C1102 1.392 . S
C1101 H1122 0.931 . S
C1102 C1101 1.392 . S
C1102 C1103 1.361 . S
C1102 C1104 1.500 . S
C1103 C1098 1.390 . S
C1103 C1102 1.361 . S
C1103 H1121 0.931 . S
C1104 C1102 1.500 . S
C1104 C1105 1.371 . S
C1104 C1106 1.365 . S
C1105 C1104 1.371 . S
C1105 C1115 1.386 . S
C1105 H1123 0.931 . S
C1106 C1104 1.365 . S
C1106 C1107 1.409 . S
C1106 H1124 0.929 . S
C1107 C1106 1.409 . S
C1107 C1108 1.380 . S
C1107 H1125 0.930 . S
C1108 C1107 1.380 . S
C1108 C1115 1.357 . S
C1109 C1100 1.511 . S
C1109 C1110 1.341 . S
C1109 C1111 1.371 . S
C1110 C1109 1.341 . S
C1110 C1114 1.394 . S
C1110 H1126 0.930 . S
C1111 C1109 1.371 . S
C1111 C1112 1.392 . S
C1111 H1127 0.931 . S
C1112 C1111 1.392 . S
C1112 C1113 1.331 . S
C1112 H1130 0.932 . S
C1113 C1112 1.331 . S
C1113 C1114 1.336 . S
C1114 C1110 1.394 . S
C1114 C1113 1.336 . S
C1114 H1129 0.929 . S
C1115 C1105 1.386 . S
C1115 C1108 1.357 . S
C1115 H1128 0.928 . S
H1116 C1092 0.931 . S
H1117 C1094 0.930 . S
H1118 C1096 0.929 . S
H1119 C1097 0.931 . S
H1120 C1099 0.930 . S
H1121 C1103 0.931 . S
H1122 C1101 0.931 . S
H1123 C1105 0.931 . S
H1124 C1106 0.929 . S
H1125 C1107 0.930 . S
H1126 C1110 0.930 . S
H1127 C1111 0.931 . S
H1128 C1115 0.928 . S
H1129 C1114 0.929 . S
H1130 C1112 0.932 . S
C1131 C1132 1.386 . S
C1131 C1133 1.397 . S
C1131 H1155 0.931 . S
C1132 C1131 1.386 . S
C1132 C1136 1.397 . S
C1133 C1131 1.397 . S
C1133 C1134 1.384 . S
C1133 H1156 0.930 . S
C1134 C1133 1.384 . S
C1134 C1135 1.377 . S
C1134 C1137 1.481 . S
C1135 C1134 1.377 . S
C1135 C1136 1.389 . S
C1135 H1157 0.929 . S
C1136 C1132 1.397 . S
C1136 C1135 1.389 . S
C1136 H1158 0.931 . S
C1137 C1134 1.481 . S
C1137 C1138 1.387 . S
C1137 C1142 1.390 . S
C1138 C1137 1.387 . S
C1138 C1139 1.401 . S
C1138 H1159 0.930 . S
C1139 C1138 1.401 . S
C1139 C1140 1.376 . S
C1139 C1148 1.511 . S
C1140 C1139 1.376 . S
C1140 C1141 1.392 . S
C1140 H1161 0.931 . S
C1141 C1140 1.392 . S
C1141 C1142 1.361 . S
C1141 C1143 1.500 . S
C1142 C1137 1.390 . S
C1142 C1141 1.361 . S
C1142 H1160 0.931 . S
C1143 C1141 1.500 . S
C1143 C1144 1.371 . S
C1143 C1145 1.365 . S
C1144 C1143 1.371 . S
C1144 C1154 1.386 . S
C1144 H1162 0.931 . S
C1145 C1143 1.365 . S
C1145 C1146 1.409 . S
C1145 H1163 0.929 . S
C1146 C1145 1.409 . S
C1146 C1147 1.380 . S
C1146 H1164 0.930 . S
C1147 C1146 1.380 . S
C1147 C1154 1.357 . S
C1148 C1139 1.511 . S
C1148 C1149 1.341 . S
C1148 C1150 1.371 . S
C1149 C1148 1.341 . S
C1149 C1153 1.394 . S
C1149 H1165 0.930 . S
C1150 C1148 1.371 . S
C1150 C1151 1.392 . S
C1150 H1166 0.931 . S
C1151 C1150 1.392 . S
C1151 C1152 1.331 . S
C1151 H1169 0.932 . S
C1152 C1151 1.331 . S
C1152 C1153 1.336 . S
C1153 C1149 1.394 . S
C1153 C1152 1.336 . S
C1153 H1168 0.929 . S
C1154 C1144 1.386 . S
C1154 C1147 1.357 . S
C1154 H1167 0.928 . S
H1155 C1131 0.931 . S
H1156 C1133 0.930 . S
H1157 C1135 0.929 . S
H1158 C1136 0.931 . S
H1159 C1138 0.930 . S
H1160 C1142 0.931 . S
H1161 C1140 0.931 . S
H1162 C1144 0.931 . S
H1163 C1145 0.929 . S
H1164 C1146 0.930 . S
H1165 C1149 0.930 . S
H1166 C1150 0.931 . S
H1167 C1154 0.928 . S
H1168 C1153 0.929 . S
H1169 C1151 0.932 . S
C1170 C1171 1.386 . S
C1170 C1172 1.397 . S
C1170 H1194 0.931 . S
C1171 C1170 1.386 . S
C1171 C1175 1.397 . S
C1172 C1170 1.397 . S
C1172 C1173 1.384 . S
C1172 H1195 0.930 . S
C1173 C1172 1.384 . S
C1173 C1174 1.377 . S
C1173 C1176 1.481 . S
C1174 C1173 1.377 . S
C1174 C1175 1.389 . S
C1174 H1196 0.929 . S
C1175 C1171 1.397 . S
C1175 C1174 1.389 . S
C1175 H1197 0.931 . S
C1176 C1173 1.481 . S
C1176 C1177 1.387 . S
C1176 C1181 1.390 . S
C1177 C1176 1.387 . S
C1177 C1178 1.401 . S
C1177 H1198 0.930 . S
C1178 C1177 1.401 . S
C1178 C1179 1.376 . S
C1178 C1187 1.511 . S
C1179 C1178 1.376 . S
C1179 C1180 1.392 . S
C1179 H1200 0.931 . S
C1180 C1179 1.392 . S
C1180 C1181 1.361 . S
C1180 C1182 1.500 . S
C1181 C1176 1.390 . S
C1181 C1180 1.361 . S
C1181 H1199 0.931 . S
C1182 C1180 1.500 . S
C1182 C1183 1.371 . S
C1182 C1184 1.365 . S
C1183 C1182 1.371 . S
C1183 C1193 1.386 . S
C1183 H1201 0.931 . S
C1184 C1182 1.365 . S
C1184 C1185 1.409 . S
C1184 H1202 0.929 . S
C1185 C1184 1.409 . S
C1185 C1186 1.380 . S
C1185 H1203 0.930 . S
C1186 C1185 1.380 . S
C1186 C1193 1.357 . S
C1187 C1178 1.511 . S
C1187 C1188 1.341 . S
C1187 C1189 1.371 . S
C1188 C1187 1.341 . S
C1188 C1192 1.394 . S
C1188 H1204 0.930 . S
C1189 C1187 1.371 . S
C1189 C1190 1.392 . S
C1189 H1205 0.931 . S
C1190 C1189 1.392 . S
C1190 C1191 1.331 . S
C1190 H1208 0.932 . S
C1191 C1190 1.331 . S
C1191 C1192 1.336 . S
C1192 C1188 1.394 . S
C1192 C1191 1.336 . S
C1192 H1207 0.929 . S
C1193 C1183 1.386 . S
C1193 C1186 1.357 . S
C1193 H1206 0.928 . S
H1194 C1170 0.931 . S
H1195 C1172 0.930 . S
H1196 C1174 0.929 . S
H1197 C1175 0.931 . S
H1198 C1177 0.930 . S
H1199 C1181 0.931 . S
H1200 C1179 0.931 . S
H1201 C1183 0.931 . S
H1202 C1184 0.929 . S
H1203 C1185 0.930 . S
H1204 C1188 0.930 . S
H1205 C1189 0.931 . S
H1206 C1193 0.928 . S
H1207 C1192 0.929 . S
H1208 C1190 0.932 . S
C1209 C1210 1.386 . S
C1209 C1211 1.397 . S
C1209 H1233 0.931 . S
C1210 C1209 1.386 . S
C1210 C1214 1.397 . S
C1211 C1209 1.397 . S
C1211 C1212 1.384 . S
C1211 H1234 0.930 . S
C1212 C1211 1.384 . S
C1212 C1213 1.377 . S
C1212 C1215 1.481 . S
C1213 C1212 1.377 . S
C1213 C1214 1.389 . S
C1213 H1235 0.929 . S
C1214 C1210 1.397 . S
C1214 C1213 1.389 . S
C1214 H1236 0.931 . S
C1215 C1212 1.481 . S
C1215 C1216 1.387 . S
C1215 C1220 1.390 . S
C1216 C1215 1.387 . S
C1216 C1217 1.401 . S
C1216 H1237 0.930 . S
C1217 C1216 1.401 . S
C1217 C1218 1.376 . S
C1217 C1226 1.511 . S
C1218 C1217 1.376 . S
C1218 C1219 1.392 . S
C1218 H1239 0.931 . S
C1219 C1218 1.392 . S
C1219 C1220 1.361 . S
C1219 C1221 1.500 . S
C1220 C1215 1.390 . S
C1220 C1219 1.361 . S
C1220 H1238 0.931 . S
C1221 C1219 1.500 . S
C1221 C1222 1.371 . S
C1221 C1223 1.365 . S
C1222 C1221 1.371 . S
C1222 C1232 1.386 . S
C1222 H1240 0.931 . S
C1223 C1221 1.365 . S
C1223 C1224 1.409 . S
C1223 H1241 0.929 . S
C1224 C1223 1.409 . S
C1224 C1225 1.380 . S
C1224 H1242 0.930 . S
C1225 C1224 1.380 . S
C1225 C1232 1.357 . S
C1226 C1217 1.511 . S
C1226 C1227 1.341 . S
C1226 C1228 1.371 . S
C1227 C1226 1.341 . S
C1227 C1231 1.394 . S
C1227 H1243 0.930 . S
C1228 C1226 1.371 . S
C1228 C1229 1.392 . S
C1228 H1244 0.931 . S
C1229 C1228 1.392 . S
C1229 C1230 1.331 . S
C1229 H1247 0.932 . S
C1230 C1229 1.331 . S
C1230 C1231 1.336 . S
C1231 C1227 1.394 . S
C1231 C1230 1.336 . S
C1231 H1246 0.929 . S
C1232 C1222 1.386 . S
C1232 C1225 1.357 . S
C1232 H1245 0.928 . S
H1233 C1209 0.931 . S
H1234 C1211 0.930 . S
H1235 C1213 0.929 . S
H1236 C1214 0.931 . S
H1237 C1216 0.930 . S
H1238 C1220 0.931 . S
H1239 C1218 0.931 . S
H1240 C1222 0.931 . S
H1241 C1223 0.929 . S
H1242 C1224 0.930 . S
H1243 C1227 0.930 . S
H1244 C1228 0.931 . S
H1245 C1232 0.928 . S
H1246 C1231 0.929 . S
H1247 C1229 0.932 . S
Cu1248 N1249 1.999 . S
Cu1248 O1254 1.974 1_554 S
Cu1248 N1259 1.985 . S
Cu1248 O1268 1.959 . S
N1249 Cu1248 1.999 . S
N1249 C1251 1.263 1_554 S
N1249 C1253 1.389 . S
N1250 C1251 1.358 . S
N1250 C1252 1.400 . S
C1251 N1249 1.263 1_556 S
C1251 N1250 1.358 . S
C1251 H1257 0.930 . S
C1252 N1250 1.400 . S
C1252 C1253 1.351 1_556 S
C1252 H1269 0.930 . S
C1253 N1249 1.389 . S
C1253 C1252 1.351 1_554 S
C1253 H1258 0.930 . S
O1254 Cu1248 1.974 1_556 S
O1254 C1264 1.282 . S
C1255 O1256 1.261 . S
C1255 O1268 1.251 . S
O1256 C1255 1.261 . S
H1257 C1251 0.930 . S
H1258 C1253 0.930 . S
N1259 Cu1248 1.985 . S
N1259 C1261 1.335 . S
N1259 C1262 1.390 . S
N1260 C1261 1.345 . S
N1260 C1263 1.336 . S
C1261 N1259 1.335 . S
C1261 N1260 1.345 . S
C1261 H1266 0.930 . S
C1262 N1259 1.390 . S
C1262 C1263 1.346 . S
C1262 H1267 0.930 . S
C1263 N1260 1.336 . S
C1263 C1262 1.346 . S
C1263 H1270 0.929 . S
C1264 O1254 1.282 . S
C1264 O1265 1.216 . S
O1265 C1264 1.216 . S
H1266 C1261 0.930 . S
H1267 C1262 0.930 . S
O1268 Cu1248 1.959 . S
O1268 C1255 1.251 . S
H1269 C1252 0.930 . S
H1270 C1263 0.929 . S
Cu1271 N1272 1.999 . S
Cu1271 O1277 1.974 . S
Cu1271 N1282 1.985 1_554 S
Cu1271 O1291 1.959 1_554 S
N1272 Cu1271 1.999 . S
N1272 C1274 1.263 . S
N1272 C1276 1.389 . S
N1273 C1274 1.358 . S
N1273 C1275 1.400 . S
C1274 N1272 1.263 . S
C1274 N1273 1.358 . S
C1274 H1280 0.930 . S
C1275 N1273 1.400 . S
C1275 C1276 1.351 . S
C1275 H1292 0.930 . S
C1276 N1272 1.389 . S
C1276 C1275 1.351 . S
C1276 H1281 0.930 . S
O1277 Cu1271 1.974 . S
O1277 C1287 1.282 . S
C1278 O1279 1.261 . S
C1278 O1291 1.251 . S
O1279 C1278 1.261 . S
H1280 C1274 0.930 . S
H1281 C1276 0.930 . S
N1282 Cu1271 1.985 1_556 S
N1282 C1284 1.335 . S
N1282 C1285 1.390 . S
N1283 C1284 1.345 . S
N1283 C1286 1.336 . S
C1284 N1282 1.335 . S
C1284 N1283 1.345 . S
C1284 H1289 0.930 . S
C1285 N1282 1.390 . S
C1285 C1286 1.346 . S
C1285 H1290 0.930 1_556 S
C1286 N1283 1.336 . S
C1286 C1285 1.346 . S
C1286 H1293 0.929 . S
C1287 O1277 1.282 . S
C1287 O1288 1.216 . S
O1288 C1287 1.216 . S
H1289 C1284 0.930 . S
H1290 C1285 0.930 1_554 S
O1291 Cu1271 1.959 1_556 S
O1291 C1278 1.251 . S
H1292 C1275 0.930 . S
H1293 C1286 0.929 . S
Cu1294 N1295 1.960 1_554 S
Cu1294 O1300 1.925 1_554 S
Cu1294 N1305 2.024 . S
Cu1294 O1314 2.008 . S
N1295 Cu1294 1.960 1_556 S
N1295 C1297 1.263 . S
N1295 C1299 1.389 . S
N1296 C1297 1.358 . S
N1296 C1298 1.400 . S
C1297 N1295 1.263 . S
C1297 N1296 1.358 . S
C1297 H1303 0.930 . S
C1298 N1296 1.400 . S
C1298 C1299 1.351 . S
C1298 H1315 0.930 . S
C1299 N1295 1.389 . S
C1299 C1298 1.351 . S
C1299 H1304 0.979 . S
O1300 Cu1294 1.925 1_556 S
O1300 C1310 1.282 . S
C1301 O1302 1.261 . S
C1301 O1314 1.251 . S
O1302 C1301 1.261 . S
H1303 C1297 0.930 . S
H1304 C1299 0.979 . S
N1305 Cu1294 2.024 . S
N1305 C1307 1.335 . S
N1305 C1308 1.390 . S
N1306 C1307 1.345 . S
N1306 C1309 1.336 . S
C1307 N1305 1.335 . S
C1307 N1306 1.345 . S
C1307 H1312 0.930 . S
C1308 N1305 1.390 . S
C1308 C1309 1.346 . S
C1308 H1313 0.933 . S
C1309 N1306 1.336 . S
C1309 C1308 1.346 . S
C1309 H1316 0.929 . S
C1310 O1300 1.282 . S
C1310 O1311 1.216 . S
O1311 C1310 1.216 . S
H1312 C1307 0.930 . S
H1313 C1308 0.933 . S
O1314 Cu1294 2.008 . S
O1314 C1301 1.251 . S
H1315 C1298 0.930 . S
H1316 C1309 0.929 . S
Cu1317 N1318 2.034 . S
Cu1317 O1323 2.015 . S
Cu1317 N1328 1.953 1_554 S
Cu1317 O1337 1.919 1_554 S
N1318 Cu1317 2.034 . S
N1318 C1320 1.263 . S
N1318 C1322 1.389 . S
N1319 C1320 1.358 . S
N1319 C1321 1.400 . S
C1320 N1318 1.263 . S
C1320 N1319 1.358 . S
C1320 H1326 0.930 . S
C1321 N1319 1.400 . S
C1321 C1322 1.351 . S
C1321 H1338 0.930 . S
C1322 N1318 1.389 . S
C1322 C1321 1.351 . S
C1322 H1327 0.930 . S
O1323 Cu1317 2.015 . S
O1323 C1333 1.282 . S
C1324 O1325 1.261 . S
C1324 O1337 1.251 . S
O1325 C1324 1.261 . S
H1326 C1320 0.930 . S
H1327 C1322 0.930 . S
N1328 Cu1317 1.953 1_556 S
N1328 C1330 1.335 . S
N1328 C1331 1.390 . S
N1329 C1330 1.345 . S
N1329 C1332 1.336 . S
C1330 N1328 1.335 . S
C1330 N1329 1.345 . S
C1330 H1335 0.930 . S
C1331 N1328 1.390 . S
C1331 C1332 1.346 . S
C1331 H1336 0.930 1_556 S
C1332 N1329 1.336 . S
C1332 C1331 1.346 . S
C1332 H1339 0.929 . S
C1333 O1323 1.282 . S
C1333 O1334 1.216 . S
O1334 C1333 1.216 . S
H1335 C1330 0.930 . S
H1336 C1331 0.930 1_554 S
O1337 Cu1317 1.919 1_556 S
O1337 C1324 1.251 . S
H1338 C1321 0.930 . S
H1339 C1332 0.929 . S
Cu1340 N1341 1.999 . S
Cu1340 O1346 1.974 . S
Cu1340 N1351 1.985 1_455 S
Cu1340 O1360 1.959 1_455 S
N1341 Cu1340 1.999 . S
N1341 C1343 1.263 . S
N1341 C1345 1.389 . S
N1342 C1343 1.358 . S
N1342 C1344 1.400 . S
C1343 N1341 1.263 . S
C1343 N1342 1.358 . S
C1343 H1349 0.930 . S
C1344 N1342 1.400 . S
C1344 C1345 1.351 . S
C1344 H1361 0.930 . S
C1345 N1341 1.389 . S
C1345 C1344 1.351 . S
C1345 H1350 0.930 . S
O1346 Cu1340 1.974 . S
O1346 C1356 1.282 . S
C1347 O1348 1.261 . S
C1347 O1360 1.251 . S
O1348 C1347 1.261 . S
H1349 C1343 0.930 . S
H1350 C1345 0.930 . S
N1351 Cu1340 1.985 1_655 S
N1351 C1353 1.335 . S
N1351 C1354 1.382 1_655 S
N1352 C1353 1.345 . S
N1352 C1355 1.336 . S
C1353 N1351 1.335 . S
C1353 N1352 1.345 . S
C1353 H1358 0.930 . S
C1354 N1351 1.382 1_455 S
C1354 C1355 1.308 1_455 S
C1354 H1359 0.970 . S
C1355 N1352 1.336 . S
C1355 C1354 1.308 1_655 S
C1355 H1362 0.929 . S
C1356 O1346 1.282 . S
C1356 O1357 1.216 . S
O1357 C1356 1.216 . S
H1358 C1353 0.930 . S
H1359 C1354 0.970 . S
O1360 Cu1340 1.959 1_655 S
O1360 C1347 1.251 . S
H1361 C1344 0.930 . S
H1362 C1355 0.929 . S
Cu1363 N1364 1.999 . S
Cu1363 O1369 1.974 . S
Cu1363 N1374 1.985 1_545 S
Cu1363 O1383 1.959 1_545 S
N1364 Cu1363 1.999 . S
N1364 C1366 1.263 . S
N1364 C1368 1.389 . S
N1365 C1366 1.358 . S
N1365 C1367 1.400 . S
C1366 N1364 1.263 . S
C1366 N1365 1.358 . S
C1366 H1372 0.930 . S
C1367 N1365 1.400 . S
C1367 C1368 1.351 . S
C1367 H1384 0.930 . S
C1368 N1364 1.389 . S
C1368 C1367 1.351 . S
C1368 H1373 0.930 . S
O1369 Cu1363 1.974 . S
O1369 C1379 1.282 . S
C1370 O1371 1.261 . S
C1370 O1383 1.251 . S
O1371 C1370 1.261 . S
H1372 C1366 0.930 . S
H1373 C1368 0.930 . S
N1374 Cu1363 1.985 1_565 S
N1374 C1376 1.335 . S
N1374 C1377 1.390 . S
N1375 C1376 1.345 . S
N1375 C1378 1.336 . S
C1376 N1374 1.335 . S
C1376 N1375 1.345 . S
C1376 H1381 0.930 . S
C1377 N1374 1.390 . S
C1377 C1378 1.346 . S
C1377 H1382 0.930 1_565 S
C1378 N1375 1.336 . S
C1378 C1377 1.346 . S
C1378 H1385 0.929 . S
C1379 O1369 1.282 . S
C1379 O1380 1.216 . S
O1380 C1379 1.216 . S
H1381 C1376 0.930 . S
H1382 C1377 0.930 1_545 S
O1383 Cu1363 1.959 1_565 S
O1383 C1370 1.251 . S
H1384 C1367 0.930 . S
H1385 C1378 0.929 . S
Cu1386 N1387 1.999 . S
Cu1386 O1392 1.974 . S
Cu1386 N1397 1.985 1_655 S
Cu1386 O1406 1.959 1_655 S
N1387 Cu1386 1.999 . S
N1387 C1389 1.263 . S
N1387 C1391 1.389 . S
N1388 C1389 1.358 . S
N1388 C1390 1.400 . S
C1389 N1387 1.263 . S
C1389 N1388 1.358 . S
C1389 H1395 0.930 . S
C1390 N1388 1.400 . S
C1390 C1391 1.351 . S
C1390 H1407 0.930 . S
C1391 N1387 1.389 . S
C1391 C1390 1.351 . S
C1391 H1396 0.930 . S
O1392 Cu1386 1.974 . S
O1392 C1402 1.282 . S
C1393 O1394 1.261 . S
C1393 O1406 1.251 . S
O1394 C1393 1.261 . S
H1395 C1389 0.930 . S
H1396 C1391 0.930 . S
N1397 Cu1386 1.985 1_455 S
N1397 C1399 1.335 . S
N1397 C1400 1.390 . S
N1398 C1399 1.345 . S
N1398 C1401 1.336 . S
C1399 N1397 1.335 . S
C1399 N1398 1.345 . S
C1399 H1404 0.930 . S
C1400 N1397 1.390 . S
C1400 C1401 1.346 . S
C1400 H1405 0.930 . S
C1401 N1398 1.336 . S
C1401 C1400 1.346 . S
C1401 H1408 0.929 . S
C1402 O1392 1.282 . S
C1402 O1403 1.216 . S
O1403 C1402 1.216 . S
H1404 C1399 0.930 . S
H1405 C1400 0.930 . S
O1406 Cu1386 1.959 1_455 S
O1406 C1393 1.251 . S
H1407 C1390 0.930 . S
H1408 C1401 0.929 . S
Cu1409 N1410 1.982 1_565 S
Cu1409 O1415 1.952 1_565 S
Cu1409 N1420 2.002 . S
Cu1409 O1429 1.981 . S
N1410 Cu1409 1.982 1_545 S
N1410 C1412 1.263 . S
N1410 C1414 1.389 . S
N1411 C1412 1.358 . S
N1411 C1413 1.400 . S
C1412 N1410 1.263 . S
C1412 N1411 1.358 . S
C1412 H1418 0.930 . S
C1413 N1411 1.400 . S
C1413 C1414 1.351 . S
C1413 H1430 0.930 . S
C1414 N1410 1.389 . S
C1414 C1413 1.351 . S
C1414 H1419 0.930 . S
O1415 Cu1409 1.952 1_545 S
O1415 C1425 1.282 . S
C1416 O1417 1.261 . S
C1416 O1429 1.251 . S
O1417 C1416 1.261 . S
H1418 C1412 0.930 . S
H1419 C1414 0.930 . S
N1420 Cu1409 2.002 . S
N1420 C1422 1.335 . S
N1420 C1423 1.390 . S
N1421 C1422 1.345 . S
N1421 C1424 1.336 . S
C1422 N1420 1.335 . S
C1422 N1421 1.345 . S
C1422 H1427 0.930 . S
C1423 N1420 1.390 . S
C1423 C1424 1.346 . S
C1423 H1428 0.930 . S
C1424 N1421 1.336 . S
C1424 C1423 1.346 . S
C1424 H1431 0.929 . S
C1425 O1415 1.282 . S
C1425 O1426 1.216 . S
O1426 C1425 1.216 . S
H1427 C1422 0.930 . S
H1428 C1423 0.930 . S
O1429 Cu1409 1.981 . S
O1429 C1416 1.251 . S
H1430 C1413 0.930 . S
H1431 C1424 0.929 . S
Cu1432 N1433 1.999 . S
Cu1432 O1438 1.974 . S
Cu1432 N1443 1.985 1_455 S
Cu1432 O1452 1.959 1_455 S
N1433 Cu1432 1.999 . S
N1433 C1435 1.263 . S
N1433 C1437 1.389 . S
N1434 C1435 1.358 . S
N1434 C1436 1.400 . S
C1435 N1433 1.263 . S
C1435 N1434 1.358 . S
C1435 H1441 0.930 . S
C1436 N1434 1.400 . S
C1436 C1437 1.351 . S
C1436 H1453 0.930 . S
C1437 N1433 1.389 . S
C1437 C1436 1.351 . S
C1437 H1442 0.930 . S
O1438 Cu1432 1.974 . S
O1438 C1448 1.282 . S
C1439 O1440 1.261 . S
C1439 O1452 1.251 . S
O1440 C1439 1.261 . S
H1441 C1435 0.930 . S
H1442 C1437 0.930 . S
N1443 Cu1432 1.985 1_655 S
N1443 C1445 1.335 . S
N1443 C1446 1.390 . S
N1444 C1445 1.345 . S
N1444 C1447 1.336 . S
C1445 N1443 1.335 . S
C1445 N1444 1.345 . S
C1445 H1450 0.930 . S
C1446 N1443 1.390 . S
C1446 C1447 1.348 . S
C1446 H1451 0.929 1_655 S
C1447 N1444 1.336 . S
C1447 C1446 1.348 . S
C1447 H1454 0.929 . S
C1448 O1438 1.282 . S
C1448 O1449 1.216 . S
O1449 C1448 1.216 . S
H1450 C1445 0.930 . S
H1451 C1446 0.929 1_455 S
O1452 Cu1432 1.959 1_655 S
O1452 C1439 1.251 . S
H1453 C1436 0.930 . S
H1454 C1447 0.929 . S
Cu1455 N1456 1.999 . S
Cu1455 O1461 1.974 . S
Cu1455 N1466 1.985 1_545 S
Cu1455 O1475 1.959 1_545 S
N1456 Cu1455 1.999 . S
N1456 C1458 1.263 . S
N1456 C1460 1.389 . S
N1457 C1458 1.358 . S
N1457 C1459 1.400 . S
C1458 N1456 1.263 . S
C1458 N1457 1.358 . S
C1458 H1464 0.930 . S
C1459 N1457 1.400 . S
C1459 C1460 1.351 . S
C1459 H1476 0.930 . S
C1460 N1456 1.389 . S
C1460 C1459 1.351 . S
C1460 H1465 0.930 . S
O1461 Cu1455 1.974 . S
O1461 C1471 1.282 . S
C1462 O1463 1.261 . S
C1462 O1475 1.251 . S
O1463 C1462 1.261 . S
H1464 C1458 0.930 . S
H1465 C1460 0.930 . S
N1466 Cu1455 1.985 1_565 S
N1466 C1468 1.335 . S
N1466 C1469 1.390 1_565 S
N1467 C1468 1.345 . S
N1467 C1470 1.336 . S
C1468 N1466 1.335 . S
C1468 N1467 1.345 . S
C1468 H1473 0.930 . S
C1469 N1466 1.390 1_545 S
C1469 C1470 1.346 1_545 S
C1469 H1474 0.930 . S
C1470 N1467 1.336 . S
C1470 C1469 1.346 1_565 S
C1470 H1477 0.929 . S
C1471 O1461 1.282 . S
C1471 O1472 1.216 . S
O1472 C1471 1.216 . S
H1473 C1468 0.930 . S
H1474 C1469 0.930 . S
O1475 Cu1455 1.959 1_565 S
O1475 C1462 1.251 . S
H1476 C1459 0.930 . S
H1477 C1470 0.929 . S
Cu1478 N1479 1.999 . S
Cu1478 O1484 1.974 . S
Cu1478 N1489 1.985 . S
Cu1478 O1498 1.959 . S
N1479 Cu1478 1.999 . S
N1479 C1481 1.263 1_455 S
N1479 C1483 1.389 . S
N1480 C1481 1.358 . S
N1480 C1482 1.400 . S
C1481 N1479 1.263 1_655 S
C1481 N1480 1.358 . S
C1481 H1487 0.930 . S
C1482 N1480 1.400 . S
C1482 C1483 1.351 1_655 S
C1482 H1499 0.930 . S
C1483 N1479 1.389 . S
C1483 C1482 1.351 1_455 S
C1483 H1488 0.930 . S
O1484 Cu1478 1.974 . S
O1484 C1494 1.282 1_455 S
C1485 O1486 1.261 . S
C1485 O1498 1.251 . S
O1486 C1485 1.261 . S
H1487 C1481 0.930 . S
H1488 C1483 0.930 . S
N1489 Cu1478 1.985 . S
N1489 C1491 1.335 . S
N1489 C1492 1.390 . S
N1490 C1491 1.345 . S
N1490 C1493 1.336 . S
C1491 N1489 1.335 . S
C1491 N1490 1.345 . S
C1491 H1496 0.930 . S
C1492 N1489 1.390 . S
C1492 C1493 1.346 . S
C1492 H1497 0.930 . S
C1493 N1490 1.336 . S
C1493 C1492 1.346 . S
C1493 H1500 0.929 . S
C1494 O1484 1.282 1_655 S
C1494 O1495 1.216 1_655 S
O1495 C1494 1.216 1_455 S
H1496 C1491 0.930 . S
H1497 C1492 0.930 . S
O1498 Cu1478 1.959 . S
O1498 C1485 1.251 . S
H1499 C1482 0.930 . S
H1500 C1493 0.929 . S
Cu1501 N1502 1.999 . S
Cu1501 O1507 1.974 . S
Cu1501 N1512 2.023 . S
Cu1501 O1521 1.959 1_545 S
N1502 Cu1501 1.999 . S
N1502 C1504 1.263 . S
N1502 C1506 1.389 . S
N1503 C1504 1.358 . S
N1503 C1505 1.400 . S
C1504 N1502 1.263 . S
C1504 N1503 1.358 . S
C1504 H1510 0.930 . S
C1505 N1503 1.400 . S
C1505 C1506 1.351 . S
C1505 H1522 0.930 . S
C1506 N1502 1.389 . S
C1506 C1505 1.351 . S
C1506 H1511 0.930 . S
O1507 Cu1501 1.974 . S
O1507 C1517 1.282 . S
C1508 O1509 1.233 1_565 S
C1508 O1521 1.251 . S
O1509 C1508 1.233 1_545 S
H1510 C1504 0.930 . S
H1511 C1506 0.930 . S
N1512 Cu1501 2.023 . S
N1512 C1514 1.275 1_545 S
N1512 C1515 1.406 . S
N1513 C1514 1.345 . S
N1513 C1516 1.336 . S
C1514 N1512 1.275 1_565 S
C1514 N1513 1.345 . S
C1514 H1519 0.930 . S
C1515 N1512 1.406 . S
C1515 C1516 1.346 1_545 S
C1515 H1520 0.930 . S
C1516 N1513 1.336 . S
C1516 C1515 1.346 1_565 S
C1516 H1523 0.929 . S
C1517 O1507 1.282 . S
C1517 O1518 1.216 . S
O1518 C1517 1.216 . S
H1519 C1514 0.930 . S
H1520 C1515 0.930 . S
O1521 Cu1501 1.959 1_565 S
O1521 C1508 1.251 . S
H1522 C1505 0.930 . S
H1523 C1516 0.929 . S
Cu1524 N1525 1.999 . S
Cu1524 O1530 1.974 . S
Cu1524 N1535 1.985 . S
Cu1524 O1544 1.959 . S
N1525 Cu1524 1.999 . S
N1525 C1527 1.263 . S
N1525 C1529 1.389 . S
N1526 C1527 1.358 . S
N1526 C1528 1.400 . S
C1527 N1525 1.263 . S
C1527 N1526 1.358 . S
C1527 H1533 0.930 . S
C1528 N1526 1.400 . S
C1528 C1529 1.351 . S
C1528 H1545 0.930 . S
C1529 N1525 1.389 . S
C1529 C1528 1.351 . S
C1529 H1534 0.930 . S
O1530 Cu1524 1.974 . S
O1530 C1540 1.282 . S
C1531 O1532 1.261 . S
C1531 O1544 1.251 . S
O1532 C1531 1.261 . S
H1533 C1527 0.930 . S
H1534 C1529 0.930 . S
N1535 Cu1524 1.985 . S
N1535 C1537 1.335 . S
N1535 C1538 1.390 . S
N1536 C1537 1.345 . S
N1536 C1539 1.336 . S
C1537 N1535 1.335 . S
C1537 N1536 1.345 . S
C1537 H1542 0.930 . S
C1538 N1535 1.390 . S
C1538 C1539 1.346 . S
C1538 H1543 0.930 . S
C1539 N1536 1.336 . S
C1539 C1538 1.346 . S
C1539 H1546 0.929 . S
C1540 O1530 1.282 . S
C1540 O1541 1.216 . S
O1541 C1540 1.216 . S
H1542 C1537 0.930 . S
H1543 C1538 0.930 . S
O1544 Cu1524 1.959 . S
O1544 C1531 1.251 . S
H1545 C1528 0.930 . S
H1546 C1539 0.929 . S
Cu1547 N1548 1.999 . S
Cu1547 O1553 1.974 . S
Cu1547 N1558 1.985 . S
Cu1547 O1567 1.959 . S
N1548 Cu1547 1.999 . S
N1548 C1550 1.263 . S
N1548 C1552 1.389 . S
N1549 C1550 1.358 . S
N1549 C1551 1.400 . S
C1550 N1548 1.263 . S
C1550 N1549 1.358 . S
C1550 H1556 0.930 . S
C1551 N1549 1.400 . S
C1551 C1552 1.351 . S
C1551 H1568 0.930 . S
C1552 N1548 1.389 . S
C1552 C1551 1.351 . S
C1552 H1557 0.930 . S
O1553 Cu1547 1.974 . S
O1553 C1563 1.282 . S
C1554 O1555 1.261 . S
C1554 O1567 1.251 . S
O1555 C1554 1.261 . S
H1556 C1550 0.930 . S
H1557 C1552 0.930 . S
N1558 Cu1547 1.985 . S
N1558 C1560 1.335 . S
N1558 C1561 1.390 . S
N1559 C1560 1.345 . S
N1559 C1562 1.336 . S
C1560 N1558 1.335 . S
C1560 N1559 1.345 . S
C1560 H1565 0.930 . S
C1561 N1558 1.390 . S
C1561 C1562 1.346 . S
C1561 H1566 0.930 . S
C1562 N1559 1.336 . S
C1562 C1561 1.346 . S
C1562 H1569 0.929 . S
C1563 O1553 1.282 . S
C1563 O1564 1.216 . S
O1564 C1563 1.216 . S
H1565 C1560 0.930 . S
H1566 C1561 0.930 . S
O1567 Cu1547 1.959 . S
O1567 C1554 1.251 . S
H1568 C1551 0.930 . S
H1569 C1562 0.929 . S
Cu1570 N1571 1.999 . S
Cu1570 O1576 1.974 . S
Cu1570 N1581 1.985 . S
Cu1570 O1590 1.959 . S
N1571 Cu1570 1.999 . S
N1571 C1573 1.263 . S
N1571 C1575 1.389 . S
N1572 C1573 1.358 . S
N1572 C1574 1.400 . S
C1573 N1571 1.263 . S
C1573 N1572 1.358 . S
C1573 H1579 0.930 . S
C1574 N1572 1.400 . S
C1574 C1575 1.351 . S
C1574 H1591 0.930 . S
C1575 N1571 1.389 . S
C1575 C1574 1.351 . S
C1575 H1580 0.930 . S
O1576 Cu1570 1.974 . S
O1576 C1586 1.282 . S
C1577 O1578 1.261 . S
C1577 O1590 1.251 . S
O1578 C1577 1.261 . S
H1579 C1573 0.930 . S
H1580 C1575 0.930 . S
N1581 Cu1570 1.985 . S
N1581 C1583 1.335 . S
N1581 C1584 1.390 . S
N1582 C1583 1.345 . S
N1582 C1585 1.336 . S
C1583 N1581 1.335 . S
C1583 N1582 1.345 . S
C1583 H1588 0.930 . S
C1584 N1581 1.390 . S
C1584 C1585 1.346 . S
C1584 H1589 0.930 . S
C1585 N1582 1.336 . S
C1585 C1584 1.346 . S
C1585 H1592 0.929 . S
C1586 O1576 1.282 . S
C1586 O1587 1.216 . S
O1587 C1586 1.216 . S
H1588 C1583 0.930 . S
H1589 C1584 0.930 . S
O1590 Cu1570 1.959 . S
O1590 C1577 1.251 . S
H1591 C1574 0.930 . S
H1592 C1585 0.929 . S
Cu1593 N1594 1.999 . S
Cu1593 O1599 1.974 . S
Cu1593 N1604 1.985 . S
Cu1593 O1613 1.959 . S
N1594 Cu1593 1.999 . S
N1594 C1596 1.263 . S
N1594 C1598 1.389 . S
N1595 C1596 1.358 . S
N1595 C1597 1.400 . S
C1596 N1594 1.263 . S
C1596 N1595 1.358 . S
C1596 H1602 0.930 . S
C1597 N1595 1.400 . S
C1597 C1598 1.351 . S
C1597 H1614 0.930 . S
C1598 N1594 1.389 . S
C1598 C1597 1.351 . S
C1598 H1603 0.930 . S
O1599 Cu1593 1.974 . S
O1599 C1609 1.282 . S
C1600 O1601 1.261 . S
C1600 O1613 1.251 . S
O1601 C1600 1.261 . S
H1602 C1596 0.930 . S
H1603 C1598 0.930 . S
N1604 Cu1593 1.985 . S
N1604 C1606 1.335 . S
N1604 C1607 1.390 . S
N1605 C1606 1.345 . S
N1605 C1608 1.336 . S
C1606 N1604 1.335 . S
C1606 N1605 1.345 . S
C1606 H1611 0.930 . S
C1607 N1604 1.390 . S
C1607 C1608 1.346 . S
C1607 H1612 0.930 . S
C1608 N1605 1.336 . S
C1608 C1607 1.346 . S
C1608 H1615 0.929 . S
C1609 O1599 1.282 . S
C1609 O1610 1.216 . S
O1610 C1609 1.216 . S
H1611 C1606 0.930 . S
H1612 C1607 0.930 . S
O1613 Cu1593 1.959 . S
O1613 C1600 1.251 . S
H1614 C1597 0.930 . S
H1615 C1608 0.929 . S
Cu1616 N1617 1.999 . S
Cu1616 O1622 1.974 . S
Cu1616 N1627 1.985 . S
Cu1616 O1636 1.959 . S
N1617 Cu1616 1.999 . S
N1617 C1619 1.263 . S
N1617 C1621 1.389 . S
N1618 C1619 1.358 . S
N1618 C1620 1.400 . S
C1619 N1617 1.263 . S
C1619 N1618 1.358 . S
C1619 H1625 0.930 . S
C1620 N1618 1.400 . S
C1620 C1621 1.351 . S
C1620 H1637 0.930 . S
C1621 N1617 1.389 . S
C1621 C1620 1.351 . S
C1621 H1626 0.930 . S
O1622 Cu1616 1.974 . S
O1622 C1632 1.282 . S
C1623 O1624 1.261 . S
C1623 O1636 1.251 . S
O1624 C1623 1.261 . S
H1625 C1619 0.930 . S
H1626 C1621 0.930 . S
N1627 Cu1616 1.985 . S
N1627 C1629 1.335 . S
N1627 C1630 1.390 . S
N1628 C1629 1.345 . S
N1628 C1631 1.336 . S
C1629 N1627 1.335 . S
C1629 N1628 1.345 . S
C1629 H1634 0.930 . S
C1630 N1627 1.390 . S
C1630 C1631 1.346 . S
C1630 H1635 0.930 . S
C1631 N1628 1.336 . S
C1631 C1630 1.346 . S
C1631 H1638 0.929 . S
C1632 O1622 1.282 . S
C1632 O1633 1.216 . S
O1633 C1632 1.216 . S
H1634 C1629 0.930 . S
H1635 C1630 0.930 . S
O1636 Cu1616 1.959 . S
O1636 C1623 1.251 . S
H1637 C1620 0.930 . S
H1638 C1631 0.929 . S
Cu1639 N1640 1.999 . S
Cu1639 O1645 1.974 . S
Cu1639 N1650 1.985 . S
Cu1639 O1659 1.959 . S
N1640 Cu1639 1.999 . S
N1640 C1642 1.263 . S
N1640 C1644 1.389 . S
N1641 C1642 1.358 . S
N1641 C1643 1.400 . S
C1642 N1640 1.263 . S
C1642 N1641 1.358 . S
C1642 H1648 0.930 . S
C1643 N1641 1.400 . S
C1643 C1644 1.351 . S
C1643 H1660 0.930 . S
C1644 N1640 1.389 . S
C1644 C1643 1.351 . S
C1644 H1649 0.930 . S
O1645 Cu1639 1.974 . S
O1645 C1655 1.282 . S
C1646 O1647 1.261 . S
C1646 O1659 1.251 . S
O1647 C1646 1.261 . S
H1648 C1642 0.930 . S
H1649 C1644 0.930 . S
N1650 Cu1639 1.985 . S
N1650 C1652 1.335 . S
N1650 C1653 1.390 . S
N1651 C1652 1.345 . S
N1651 C1654 1.336 . S
C1652 N1650 1.335 . S
C1652 N1651 1.345 . S
C1652 H1657 0.930 . S
C1653 N1650 1.390 . S
C1653 C1654 1.346 . S
C1653 H1658 0.930 . S
C1654 N1651 1.336 . S
C1654 C1653 1.346 . S
C1654 H1661 0.929 . S
C1655 O1645 1.282 . S
C1655 O1656 1.216 . S
O1656 C1655 1.216 . S
H1657 C1652 0.930 . S
H1658 C1653 0.930 . S
O1659 Cu1639 1.959 . S
O1659 C1646 1.251 . S
H1660 C1643 0.930 . S
H1661 C1654 0.929 . S
Cu1662 N1663 1.999 . S
Cu1662 O1668 1.974 . S
Cu1662 N1673 1.985 . S
Cu1662 O1682 1.959 . S
N1663 Cu1662 1.999 . S
N1663 C1665 1.263 . S
N1663 C1667 1.389 . S
N1664 C1665 1.358 . S
N1664 C1666 1.400 . S
C1665 N1663 1.263 . S
C1665 N1664 1.358 . S
C1665 H1671 0.930 . S
C1666 N1664 1.400 . S
C1666 C1667 1.351 . S
C1666 H1683 0.930 . S
C1667 N1663 1.389 . S
C1667 C1666 1.351 . S
C1667 H1672 0.930 . S
O1668 Cu1662 1.974 . S
O1668 C1678 1.282 . S
C1669 O1670 1.261 . S
C1669 O1682 1.251 . S
O1670 C1669 1.261 . S
H1671 C1665 0.930 . S
H1672 C1667 0.930 . S
N1673 Cu1662 1.985 . S
N1673 C1675 1.335 . S
N1673 C1676 1.390 . S
N1674 C1675 1.345 . S
N1674 C1677 1.336 . S
C1675 N1673 1.335 . S
C1675 N1674 1.345 . S
C1675 H1680 0.930 . S
C1676 N1673 1.390 . S
C1676 C1677 1.346 . S
C1676 H1681 0.930 . S
C1677 N1674 1.336 . S
C1677 C1676 1.346 . S
C1677 H1684 0.929 . S
C1678 O1668 1.282 . S
C1678 O1679 1.216 . S
O1679 C1678 1.216 . S
H1680 C1675 0.930 . S
H1681 C1676 0.930 . S
O1682 Cu1662 1.959 . S
O1682 C1669 1.251 . S
H1683 C1666 0.930 . S
H1684 C1677 0.929 . S
Cu1685 N1686 1.999 . S
Cu1685 O1691 1.974 . S
Cu1685 N1696 1.985 . S
Cu1685 O1705 1.959 . S
N1686 Cu1685 1.999 . S
N1686 C1688 1.263 . S
N1686 C1690 1.389 . S
N1687 C1688 1.358 . S
N1687 C1689 1.400 . S
C1688 N1686 1.263 . S
C1688 N1687 1.358 . S
C1688 H1694 0.930 . S
C1689 N1687 1.400 . S
C1689 C1690 1.351 . S
C1689 H1706 0.930 . S
C1690 N1686 1.389 . S
C1690 C1689 1.351 . S
C1690 H1695 0.930 . S
O1691 Cu1685 1.974 . S
O1691 C1701 1.282 . S
C1692 O1693 1.261 . S
C1692 O1705 1.251 . S
O1693 C1692 1.261 . S
H1694 C1688 0.930 . S
H1695 C1690 0.930 . S
N1696 Cu1685 1.985 . S
N1696 C1698 1.335 . S
N1696 C1699 1.390 . S
N1697 C1698 1.345 . S
N1697 C1700 1.336 . S
C1698 N1696 1.335 . S
C1698 N1697 1.345 . S
C1698 H1703 0.930 . S
C1699 N1696 1.390 . S
C1699 C1700 1.346 . S
C1699 H1704 0.930 . S
C1700 N1697 1.336 . S
C1700 C1699 1.346 . S
C1700 H1707 0.929 . S
C1701 O1691 1.282 . S
C1701 O1702 1.216 . S
O1702 C1701 1.216 . S
H1703 C1698 0.930 . S
H1704 C1699 0.930 . S
O1705 Cu1685 1.959 . S
O1705 C1692 1.251 . S
H1706 C1689 0.930 . S
H1707 C1700 0.929 . S
Cu1708 N1709 1.999 . S
Cu1708 O1714 1.974 . S
Cu1708 N1719 1.985 . S
Cu1708 O1728 1.959 . S
N1709 Cu1708 1.999 . S
N1709 C1711 1.263 . S
N1709 C1713 1.389 . S
N1710 C1711 1.358 . S
N1710 C1712 1.400 . S
C1711 N1709 1.263 . S
C1711 N1710 1.358 . S
C1711 H1717 0.930 . S
C1712 N1710 1.400 . S
C1712 C1713 1.351 . S
C1712 H1729 0.930 . S
C1713 N1709 1.389 . S
C1713 C1712 1.351 . S
C1713 H1718 0.930 . S
O1714 Cu1708 1.974 . S
O1714 C1724 1.282 . S
C1715 O1716 1.261 . S
C1715 O1728 1.251 . S
O1716 C1715 1.261 . S
H1717 C1711 0.930 . S
H1718 C1713 0.930 . S
N1719 Cu1708 1.985 . S
N1719 C1721 1.335 . S
N1719 C1722 1.390 . S
N1720 C1721 1.345 . S
N1720 C1723 1.336 . S
C1721 N1719 1.335 . S
C1721 N1720 1.345 . S
C1721 H1726 0.930 . S
C1722 N1719 1.390 . S
C1722 C1723 1.346 . S
C1722 H1727 0.930 . S
C1723 N1720 1.336 . S
C1723 C1722 1.346 . S
C1723 H1730 0.929 . S
C1724 O1714 1.282 . S
C1724 O1725 1.216 . S
O1725 C1724 1.216 . S
H1726 C1721 0.930 . S
H1727 C1722 0.930 . S
O1728 Cu1708 1.959 . S
O1728 C1715 1.251 . S
H1729 C1712 0.930 . S
H1730 C1723 0.929 . S
Cu1731 N1732 1.999 . S
Cu1731 O1737 1.974 . S
Cu1731 N1742 1.985 . S
Cu1731 O1751 1.959 . S
N1732 Cu1731 1.999 . S
N1732 C1734 1.263 . S
N1732 C1736 1.389 . S
N1733 C1734 1.358 . S
N1733 C1735 1.400 . S
C1734 N1732 1.263 . S
C1734 N1733 1.358 . S
C1734 H1740 0.930 . S
C1735 N1733 1.400 . S
C1735 C1736 1.351 . S
C1735 H1752 0.930 . S
C1736 N1732 1.389 . S
C1736 C1735 1.351 . S
C1736 H1741 0.930 . S
O1737 Cu1731 1.974 . S
O1737 C1747 1.282 . S
C1738 O1739 1.261 . S
C1738 O1751 1.251 . S
O1739 C1738 1.261 . S
H1740 C1734 0.930 . S
H1741 C1736 0.930 . S
N1742 Cu1731 1.985 . S
N1742 C1744 1.335 . S
N1742 C1745 1.390 . S
N1743 C1744 1.345 . S
N1743 C1746 1.336 . S
C1744 N1742 1.335 . S
C1744 N1743 1.345 . S
C1744 H1749 0.930 . S
C1745 N1742 1.390 . S
C1745 C1746 1.346 . S
C1745 H1750 0.930 . S
C1746 N1743 1.336 . S
C1746 C1745 1.346 . S
C1746 H1753 0.929 . S
C1747 O1737 1.282 . S
C1747 O1748 1.216 . S
O1748 C1747 1.216 . S
H1749 C1744 0.930 . S
H1750 C1745 0.930 . S
O1751 Cu1731 1.959 . S
O1751 C1738 1.251 . S
H1752 C1735 0.930 . S
H1753 C1746 0.929 . S
Cu1754 N1755 1.999 . S
Cu1754 O1760 1.974 . S
Cu1754 N1765 1.985 . S
Cu1754 O1774 1.959 . S
N1755 Cu1754 1.999 . S
N1755 C1757 1.263 . S
N1755 C1759 1.389 . S
N1756 C1757 1.358 . S
N1756 C1758 1.400 . S
C1757 N1755 1.263 . S
C1757 N1756 1.358 . S
C1757 H1763 0.930 . S
C1758 N1756 1.400 . S
C1758 C1759 1.351 . S
C1758 H1775 0.930 . S
C1759 N1755 1.389 . S
C1759 C1758 1.351 . S
C1759 H1764 0.930 . S
O1760 Cu1754 1.974 . S
O1760 C1770 1.282 . S
C1761 O1762 1.261 . S
C1761 O1774 1.251 . S
O1762 C1761 1.261 . S
H1763 C1757 0.930 . S
H1764 C1759 0.930 . S
N1765 Cu1754 1.985 . S
N1765 C1767 1.335 . S
N1765 C1768 1.390 . S
N1766 C1767 1.345 . S
N1766 C1769 1.336 . S
C1767 N1765 1.335 . S
C1767 N1766 1.345 . S
C1767 H1772 0.930 . S
C1768 N1765 1.390 . S
C1768 C1769 1.346 . S
C1768 H1773 0.930 . S
C1769 N1766 1.336 . S
C1769 C1768 1.346 . S
C1769 H1776 0.929 . S
C1770 O1760 1.282 . S
C1770 O1771 1.216 . S
O1771 C1770 1.216 . S
H1772 C1767 0.930 . S
H1773 C1768 0.930 . S
O1774 Cu1754 1.959 . S
O1774 C1761 1.251 . S
H1775 C1758 0.930 . S
H1776 C1769 0.929 . S
Cu1777 N1778 1.999 . S
Cu1777 O1783 1.974 . S
Cu1777 N1788 1.985 . S
Cu1777 O1797 1.959 . S
N1778 Cu1777 1.999 . S
N1778 C1780 1.263 . S
N1778 C1782 1.389 . S
N1779 C1780 1.358 . S
N1779 C1781 1.400 . S
C1780 N1778 1.263 . S
C1780 N1779 1.358 . S
C1780 H1786 0.930 . S
C1781 N1779 1.400 . S
C1781 C1782 1.351 . S
C1781 H1798 0.930 . S
C1782 N1778 1.389 . S
C1782 C1781 1.351 . S
C1782 H1787 0.930 . S
O1783 Cu1777 1.974 . S
O1783 C1793 1.282 . S
C1784 O1785 1.261 . S
C1784 O1797 1.251 . S
O1785 C1784 1.261 . S
H1786 C1780 0.930 . S
H1787 C1782 0.930 . S
N1788 Cu1777 1.985 . S
N1788 C1790 1.335 . S
N1788 C1791 1.390 . S
N1789 C1790 1.345 . S
N1789 C1792 1.336 . S
C1790 N1788 1.335 . S
C1790 N1789 1.345 . S
C1790 H1795 0.930 . S
C1791 N1788 1.390 . S
C1791 C1792 1.346 . S
C1791 H1796 0.930 . S
C1792 N1789 1.336 . S
C1792 C1791 1.346 . S
C1792 H1799 0.929 . S
C1793 O1783 1.282 . S
C1793 O1794 1.216 . S
O1794 C1793 1.216 . S
H1795 C1790 0.930 . S
H1796 C1791 0.930 . S
O1797 Cu1777 1.959 . S
O1797 C1784 1.251 . S
H1798 C1781 0.930 . S
H1799 C1792 0.929 . S
C1800 C1801 1.369 . S
C1800 C1802 1.419 . S
C1800 H1804 0.930 . S
C1801 C1800 1.369 . S
C1801 C1810 1.429 . S
C1802 C1800 1.419 . S
C1802 C1803 1.363 . S
C1802 H1805 0.929 . S
C1803 C1802 1.363 . S
C1803 C1809 1.428 . S
H1804 C1800 0.930 . S
H1805 C1802 0.929 . S
S1806 N1807 1.613 . S
S1806 N1808 1.610 . S
N1807 S1806 1.613 . S
N1807 C1810 1.350 . S
N1808 S1806 1.610 . S
N1808 C1809 1.351 . S
C1809 C1803 1.428 . S
C1809 N1808 1.351 . S
C1809 C1810 1.434 . S
C1810 C1801 1.429 . S
C1810 N1807 1.350 . S
C1810 C1809 1.434 . S
C1811 C1812 1.369 . S
C1811 C1813 1.419 . S
C1811 H1815 0.930 . S
C1812 C1811 1.369 . S
C1812 C1821 1.429 . S
C1813 C1811 1.419 . S
C1813 C1814 1.363 . S
C1813 H1816 0.929 . S
C1814 C1813 1.363 . S
C1814 C1820 1.428 . S
H1815 C1811 0.930 . S
H1816 C1813 0.929 . S
S1817 N1818 1.613 . S
S1817 N1819 1.610 . S
N1818 S1817 1.613 . S
N1818 C1821 1.350 . S
N1819 S1817 1.610 . S
N1819 C1820 1.351 . S
C1820 C1814 1.428 . S
C1820 N1819 1.351 . S
C1820 C1821 1.434 . S
C1821 C1812 1.429 . S
C1821 N1818 1.350 . S
C1821 C1820 1.434 . S
C1822 C1823 1.369 . S
C1822 C1824 1.419 . S
C1822 H1826 0.930 . S
C1823 C1822 1.369 . S
C1823 C1832 1.429 . S
C1824 C1822 1.419 . S
C1824 C1825 1.363 . S
C1824 H1827 0.929 . S
C1825 C1824 1.363 . S
C1825 C1831 1.428 . S
H1826 C1822 0.930 . S
H1827 C1824 0.929 . S
S1828 N1829 1.613 . S
S1828 N1830 1.610 . S
N1829 S1828 1.613 . S
N1829 C1832 1.350 . S
N1830 S1828 1.610 . S
N1830 C1831 1.351 . S
C1831 C1825 1.428 . S
C1831 N1830 1.351 . S
C1831 C1832 1.434 . S
C1832 C1823 1.429 . S
C1832 N1829 1.350 . S
C1832 C1831 1.434 . S
C1833 C1834 1.369 . S
C1833 C1835 1.419 . S
C1833 H1837 0.930 . S
C1834 C1833 1.369 . S
C1834 C1843 1.429 . S
C1835 C1833 1.419 . S
C1835 C1836 1.363 . S
C1835 H1838 0.929 . S
C1836 C1835 1.363 . S
C1836 C1842 1.428 . S
H1837 C1833 0.930 . S
H1838 C1835 0.929 . S
S1839 N1840 1.613 . S
S1839 N1841 1.610 . S
N1840 S1839 1.613 . S
N1840 C1843 1.350 . S
N1841 S1839 1.610 . S
N1841 C1842 1.351 . S
C1842 C1836 1.428 . S
C1842 N1841 1.351 . S
C1842 C1843 1.434 . S
C1843 C1834 1.429 . S
C1843 N1840 1.350 . S
C1843 C1842 1.434 . S
C1844 C1845 1.369 . S
C1844 C1846 1.419 . S
C1844 H1848 0.930 . S
C1845 C1844 1.369 . S
C1845 C1854 1.429 . S
C1846 C1844 1.419 . S
C1846 C1847 1.363 . S
C1846 H1849 0.929 . S
C1847 C1846 1.363 . S
C1847 C1853 1.428 . S
H1848 C1844 0.930 . S
H1849 C1846 0.929 . S
S1850 N1851 1.613 . S
S1850 N1852 1.610 . S
N1851 S1850 1.613 . S
N1851 C1854 1.350 . S
N1852 S1850 1.610 . S
N1852 C1853 1.351 . S
C1853 C1847 1.428 . S
C1853 N1852 1.351 . S
C1853 C1854 1.434 . S
C1854 C1845 1.429 . S
C1854 N1851 1.350 . S
C1854 C1853 1.434 . S
C1855 C1856 1.369 . S
C1855 C1857 1.419 . S
C1855 H1859 0.930 . S
C1856 C1855 1.369 . S
C1856 C1865 1.429 . S
C1857 C1855 1.419 . S
C1857 C1858 1.363 . S
C1857 H1860 0.929 . S
C1858 C1857 1.363 . S
C1858 C1864 1.428 . S
H1859 C1855 0.930 . S
H1860 C1857 0.929 . S
S1861 N1862 1.613 . S
S1861 N1863 1.610 . S
N1862 S1861 1.613 . S
N1862 C1865 1.350 . S
N1863 S1861 1.610 . S
N1863 C1864 1.351 . S
C1864 C1858 1.428 . S
C1864 N1863 1.351 . S
C1864 C1865 1.434 . S
C1865 C1856 1.429 . S
C1865 N1862 1.350 . S
C1865 C1864 1.434 . S
C1866 C1867 1.369 . S
C1866 C1868 1.419 . S
C1866 H1870 0.930 . S
C1867 C1866 1.369 . S
C1867 C1876 1.429 . S
C1868 C1866 1.419 . S
C1868 C1869 1.363 . S
C1868 H1871 0.929 . S
C1869 C1868 1.363 . S
C1869 C1875 1.428 . S
H1870 C1866 0.930 . S
H1871 C1868 0.929 . S
S1872 N1873 1.613 . S
S1872 N1874 1.610 . S
N1873 S1872 1.613 . S
N1873 C1876 1.350 . S
N1874 S1872 1.610 . S
N1874 C1875 1.351 . S
C1875 C1869 1.428 . S
C1875 N1874 1.351 . S
C1875 C1876 1.434 . S
C1876 C1867 1.429 . S
C1876 N1873 1.350 . S
C1876 C1875 1.434 . S
C1877 C1878 1.369 . S
C1877 C1879 1.419 . S
C1877 H1881 0.930 . S
C1878 C1877 1.369 . S
C1878 C1887 1.429 . S
C1879 C1877 1.419 . S
C1879 C1880 1.363 . S
C1879 H1882 0.929 . S
C1880 C1879 1.363 . S
C1880 C1886 1.428 . S
H1881 C1877 0.930 . S
H1882 C1879 0.929 . S
S1883 N1884 1.613 . S
S1883 N1885 1.610 . S
N1884 S1883 1.613 . S
N1884 C1887 1.350 . S
N1885 S1883 1.610 . S
N1885 C1886 1.351 . S
C1886 C1880 1.428 . S
C1886 N1885 1.351 . S
C1886 C1887 1.434 . S
C1887 C1878 1.429 . S
C1887 N1884 1.350 . S
C1887 C1886 1.434 . S
C1888 C1889 1.369 . S
C1888 C1890 1.419 . S
C1888 H1892 0.930 . S
C1889 C1888 1.369 . S
C1889 C1898 1.429 . S
C1890 C1888 1.419 . S
C1890 C1891 1.363 . S
C1890 H1893 0.929 . S
C1891 C1890 1.363 . S
C1891 C1897 1.428 . S
H1892 C1888 0.930 . S
H1893 C1890 0.929 . S
S1894 N1895 1.613 . S
S1894 N1896 1.610 . S
N1895 S1894 1.613 . S
N1895 C1898 1.350 . S
N1896 S1894 1.610 . S
N1896 C1897 1.351 . S
C1897 C1891 1.428 . S
C1897 N1896 1.351 . S
C1897 C1898 1.434 . S
C1898 C1889 1.429 . S
C1898 N1895 1.350 . S
C1898 C1897 1.434 . S
C1899 C1900 1.369 . S
C1899 C1901 1.419 . S
C1899 H1903 0.930 . S
C1900 C1899 1.369 . S
C1900 C1909 1.429 . S
C1901 C1899 1.419 . S
C1901 C1902 1.363 . S
C1901 H1904 0.929 . S
C1902 C1901 1.363 . S
C1902 C1908 1.428 . S
H1903 C1899 0.930 . S
H1904 C1901 0.929 . S
S1905 N1906 1.613 . S
S1905 N1907 1.610 . S
N1906 S1905 1.613 . S
N1906 C1909 1.350 . S
N1907 S1905 1.610 . S
N1907 C1908 1.351 . S
C1908 C1902 1.428 . S
C1908 N1907 1.351 . S
C1908 C1909 1.434 . S
C1909 C1900 1.429 . S
C1909 N1906 1.350 . S
C1909 C1908 1.434 . S
C1910 C1911 1.369 . S
C1910 C1912 1.419 . S
C1910 H1914 0.930 . S
C1911 C1910 1.369 . S
C1911 C1920 1.429 . S
C1912 C1910 1.419 . S
C1912 C1913 1.363 . S
C1912 H1915 0.929 . S
C1913 C1912 1.363 . S
C1913 C1919 1.428 . S
H1914 C1910 0.930 . S
H1915 C1912 0.929 . S
S1916 N1917 1.613 . S
S1916 N1918 1.610 . S
N1917 S1916 1.613 . S
N1917 C1920 1.350 . S
N1918 S1916 1.610 . S
N1918 C1919 1.351 . S
C1919 C1913 1.428 . S
C1919 N1918 1.351 . S
C1919 C1920 1.434 . S
C1920 C1911 1.429 . S
C1920 N1917 1.350 . S
C1920 C1919 1.434 . S
C1921 C1922 1.369 . S
C1921 C1923 1.419 . S
C1921 H1925 0.930 . S
C1922 C1921 1.369 . S
C1922 C1931 1.429 . S
C1923 C1921 1.419 . S
C1923 C1924 1.363 . S
C1923 H1926 0.929 . S
C1924 C1923 1.363 . S
C1924 C1930 1.428 . S
H1925 C1921 0.930 . S
H1926 C1923 0.929 . S
S1927 N1928 1.613 . S
S1927 N1929 1.610 . S
N1928 S1927 1.613 . S
N1928 C1931 1.350 . S
N1929 S1927 1.610 . S
N1929 C1930 1.351 . S
C1930 C1924 1.428 . S
C1930 N1929 1.351 . S
C1930 C1931 1.434 . S
C1931 C1922 1.429 . S
C1931 N1928 1.350 . S
C1931 C1930 1.434 . S
C1932 C1933 1.369 . S
C1932 C1934 1.419 . S
C1932 H1936 0.930 . S
C1933 C1932 1.369 . S
C1933 C1942 1.429 . S
C1934 C1932 1.419 . S
C1934 C1935 1.363 . S
C1934 H1937 0.929 . S
C1935 C1934 1.363 . S
C1935 C1941 1.428 . S
H1936 C1932 0.930 . S
H1937 C1934 0.929 . S
S1938 N1939 1.613 . S
S1938 N1940 1.610 . S
N1939 S1938 1.613 . S
N1939 C1942 1.350 . S
N1940 S1938 1.610 . S
N1940 C1941 1.351 . S
C1941 C1935 1.428 . S
C1941 N1940 1.351 . S
C1941 C1942 1.434 . S
C1942 C1933 1.429 . S
C1942 N1939 1.350 . S
C1942 C1941 1.434 . S
C1943 C1944 1.369 . S
C1943 C1945 1.419 . S
C1943 H1947 0.930 . S
C1944 C1943 1.369 . S
C1944 C1953 1.429 . S
C1945 C1943 1.419 . S
C1945 C1946 1.363 . S
C1945 H1948 0.929 . S
C1946 C1945 1.363 . S
C1946 C1952 1.428 . S
H1947 C1943 0.930 . S
H1948 C1945 0.929 . S
S1949 N1950 1.613 . S
S1949 N1951 1.610 . S
N1950 S1949 1.613 . S
N1950 C1953 1.350 . S
N1951 S1949 1.610 . S
N1951 C1952 1.351 . S
C1952 C1946 1.428 . S
C1952 N1951 1.351 . S
C1952 C1953 1.434 . S
C1953 C1944 1.429 . S
C1953 N1950 1.350 . S
C1953 C1952 1.434 . S
C1954 C1955 1.369 . S
C1954 C1956 1.419 . S
C1954 H1958 0.930 . S
C1955 C1954 1.369 . S
C1955 C1964 1.429 . S
C1956 C1954 1.419 . S
C1956 C1957 1.363 . S
C1956 H1959 0.929 . S
C1957 C1956 1.363 . S
C1957 C1963 1.428 . S
H1958 C1954 0.930 . S
H1959 C1956 0.929 . S
S1960 N1961 1.613 . S
S1960 N1962 1.610 . S
N1961 S1960 1.613 . S
N1961 C1964 1.350 . S
N1962 S1960 1.610 . S
N1962 C1963 1.351 . S
C1963 C1957 1.428 . S
C1963 N1962 1.351 . S
C1963 C1964 1.434 . S
C1964 C1955 1.429 . S
C1964 N1961 1.350 . S
C1964 C1963 1.434 . S
C1965 C1966 1.369 . S
C1965 C1967 1.419 . S
C1965 H1969 0.930 . S
C1966 C1965 1.369 . S
C1966 C1975 1.429 . S
C1967 C1965 1.419 . S
C1967 C1968 1.363 . S
C1967 H1970 0.929 . S
C1968 C1967 1.363 . S
C1968 C1974 1.428 . S
H1969 C1965 0.930 . S
H1970 C1967 0.929 . S
S1971 N1972 1.613 . S
S1971 N1973 1.610 . S
N1972 S1971 1.613 . S
N1972 C1975 1.350 . S
N1973 S1971 1.610 . S
N1973 C1974 1.351 . S
C1974 C1968 1.428 . S
C1974 N1973 1.351 . S
C1974 C1975 1.434 . S
C1975 C1966 1.429 . S
C1975 N1972 1.350 . S
C1975 C1974 1.434 . S
C1976 C1977 1.369 . S
C1976 C1978 1.419 . S
C1976 H1980 0.930 . S
C1977 C1976 1.369 . S
C1977 C1986 1.429 . S
C1978 C1976 1.419 . S
C1978 C1979 1.363 . S
C1978 H1981 0.929 . S
C1979 C1978 1.363 . S
C1979 C1985 1.428 . S
H1980 C1976 0.930 . S
H1981 C1978 0.929 . S
S1982 N1983 1.613 . S
S1982 N1984 1.610 . S
N1983 S1982 1.613 . S
N1983 C1986 1.350 . S
N1984 S1982 1.610 . S
N1984 C1985 1.351 . S
C1985 C1979 1.428 . S
C1985 N1984 1.351 . S
C1985 C1986 1.434 . S
C1986 C1977 1.429 . S
C1986 N1983 1.350 . S
C1986 C1985 1.434 . S
C1987 C1988 1.369 . S
C1987 C1989 1.419 . S
C1987 H1991 0.930 . S
C1988 C1987 1.369 . S
C1988 C1997 1.429 . S
C1989 C1987 1.419 . S
C1989 C1990 1.363 . S
C1989 H1992 0.929 . S
C1990 C1989 1.363 . S
C1990 C1996 1.428 . S
H1991 C1987 0.930 . S
H1992 C1989 0.929 . S
S1993 N1994 1.613 . S
S1993 N1995 1.610 . S
N1994 S1993 1.613 . S
N1994 C1997 1.350 . S
N1995 S1993 1.610 . S
N1995 C1996 1.351 . S
C1996 C1990 1.428 . S
C1996 N1995 1.351 . S
C1996 C1997 1.434 . S
C1997 C1988 1.429 . S
C1997 N1994 1.350 . S
C1997 C1996 1.434 . S
C1998 C1999 1.369 . S
C1998 C2000 1.419 . S
C1998 H2002 0.930 . S
C1999 C1998 1.369 . S
C1999 C2008 1.429 . S
C2000 C1998 1.419 . S
C2000 C2001 1.363 . S
C2000 H2003 0.929 . S
C2001 C2000 1.363 . S
C2001 C2007 1.428 . S
H2002 C1998 0.930 . S
H2003 C2000 0.929 . S
S2004 N2005 1.613 . S
S2004 N2006 1.610 . S
N2005 S2004 1.613 . S
N2005 C2008 1.350 . S
N2006 S2004 1.610 . S
N2006 C2007 1.351 . S
C2007 C2001 1.428 . S
C2007 N2006 1.351 . S
C2007 C2008 1.434 . S
C2008 C1999 1.429 . S
C2008 N2005 1.350 . S
C2008 C2007 1.434 . S
C2009 C2010 1.369 . S
C2009 C2011 1.419 . S
C2009 H2013 0.930 . S
C2010 C2009 1.369 . S
C2010 C2019 1.429 . S
C2011 C2009 1.419 . S
C2011 C2012 1.363 . S
C2011 H2014 0.929 . S
C2012 C2011 1.363 . S
C2012 C2018 1.428 . S
H2013 C2009 0.930 . S
H2014 C2011 0.929 . S
S2015 N2016 1.613 . S
S2015 N2017 1.610 . S
N2016 S2015 1.613 . S
N2016 C2019 1.350 . S
N2017 S2015 1.610 . S
N2017 C2018 1.351 . S
C2018 C2012 1.428 . S
C2018 N2017 1.351 . S
C2018 C2019 1.434 . S
C2019 C2010 1.429 . S
C2019 N2016 1.350 . S
C2019 C2018 1.434 . S
C2020 C2021 1.369 . S
C2020 C2022 1.419 . S
C2020 H2024 0.930 . S
C2021 C2020 1.369 . S
C2021 C2030 1.429 . S
C2022 C2020 1.419 . S
C2022 C2023 1.363 . S
C2022 H2025 0.929 . S
C2023 C2022 1.363 . S
C2023 C2029 1.428 . S
H2024 C2020 0.930 . S
H2025 C2022 0.929 . S
S2026 N2027 1.613 . S
S2026 N2028 1.610 . S
N2027 S2026 1.613 . S
N2027 C2030 1.350 . S
N2028 S2026 1.610 . S
N2028 C2029 1.351 . S
C2029 C2023 1.428 . S
C2029 N2028 1.351 . S
C2029 C2030 1.434 . S
C2030 C2021 1.429 . S
C2030 N2027 1.350 . S
C2030 C2029 1.434 . S
C2031 C2032 1.369 . S
C2031 C2033 1.419 . S
C2031 H2035 0.930 . S
C2032 C2031 1.369 . S
C2032 C2041 1.429 . S
C2033 C2031 1.419 . S
C2033 C2034 1.363 . S
C2033 H2036 0.929 . S
C2034 C2033 1.363 . S
C2034 C2040 1.428 . S
H2035 C2031 0.930 . S
H2036 C2033 0.929 . S
S2037 N2038 1.613 . S
S2037 N2039 1.610 . S
N2038 S2037 1.613 . S
N2038 C2041 1.350 . S
N2039 S2037 1.610 . S
N2039 C2040 1.351 . S
C2040 C2034 1.428 . S
C2040 N2039 1.351 . S
C2040 C2041 1.434 . S
C2041 C2032 1.429 . S
C2041 N2038 1.350 . S
C2041 C2040 1.434 . S
C2042 C2043 1.369 . S
C2042 C2044 1.419 . S
C2042 H2046 0.930 . S
C2043 C2042 1.369 . S
C2043 C2052 1.429 . S
C2044 C2042 1.419 . S
C2044 C2045 1.363 . S
C2044 H2047 0.929 . S
C2045 C2044 1.363 . S
C2045 C2051 1.428 . S
H2046 C2042 0.930 . S
H2047 C2044 0.929 . S
S2048 N2049 1.613 . S
S2048 N2050 1.610 . S
N2049 S2048 1.613 . S
N2049 C2052 1.350 . S
N2050 S2048 1.610 . S
N2050 C2051 1.351 . S
C2051 C2045 1.428 . S
C2051 N2050 1.351 . S
C2051 C2052 1.434 . S
C2052 C2043 1.429 . S
C2052 N2049 1.350 . S
C2052 C2051 1.434 . S
C2053 C2054 1.369 . S
C2053 C2055 1.419 . S
C2053 H2057 0.930 . S
C2054 C2053 1.369 . S
C2054 C2063 1.429 . S
C2055 C2053 1.419 . S
C2055 C2056 1.363 . S
C2055 H2058 0.929 . S
C2056 C2055 1.363 . S
C2056 C2062 1.428 . S
H2057 C2053 0.930 . S
H2058 C2055 0.929 . S
S2059 N2060 1.613 . S
S2059 N2061 1.610 . S
N2060 S2059 1.613 . S
N2060 C2063 1.350 . S
N2061 S2059 1.610 . S
N2061 C2062 1.351 . S
C2062 C2056 1.428 . S
C2062 N2061 1.351 . S
C2062 C2063 1.434 . S
C2063 C2054 1.429 . S
C2063 N2060 1.350 . S
C2063 C2062 1.434 . S
C2064 C2065 1.369 . S
C2064 C2066 1.419 . S
C2064 H2068 0.930 . S
C2065 C2064 1.369 . S
C2065 C2074 1.429 . S
C2066 C2064 1.419 . S
C2066 C2067 1.363 . S
C2066 H2069 0.929 . S
C2067 C2066 1.363 . S
C2067 C2073 1.428 . S
H2068 C2064 0.930 . S
H2069 C2066 0.929 . S
S2070 N2071 1.613 . S
S2070 N2072 1.610 . S
N2071 S2070 1.613 . S
N2071 C2074 1.350 . S
N2072 S2070 1.610 . S
N2072 C2073 1.351 . S
C2073 C2067 1.428 . S
C2073 N2072 1.351 . S
C2073 C2074 1.434 . S
C2074 C2065 1.429 . S
C2074 N2071 1.350 . S
C2074 C2073 1.434 . S
C2075 C2076 1.369 . S
C2075 C2077 1.419 . S
C2075 H2079 0.930 . S
C2076 C2075 1.369 . S
C2076 C2085 1.429 . S
C2077 C2075 1.419 . S
C2077 C2078 1.363 . S
C2077 H2080 0.929 . S
C2078 C2077 1.363 . S
C2078 C2084 1.428 . S
H2079 C2075 0.930 . S
H2080 C2077 0.929 . S
S2081 N2082 1.613 . S
S2081 N2083 1.610 . S
N2082 S2081 1.613 . S
N2082 C2085 1.350 . S
N2083 S2081 1.610 . S
N2083 C2084 1.351 . S
C2084 C2078 1.428 . S
C2084 N2083 1.351 . S
C2084 C2085 1.434 . S
C2085 C2076 1.429 . S
C2085 N2082 1.350 . S
C2085 C2084 1.434 . S
C2086 C2087 1.369 . S
C2086 C2088 1.419 . S
C2086 H2090 0.930 . S
C2087 C2086 1.369 . S
C2087 C2096 1.429 . S
C2088 C2086 1.419 . S
C2088 C2089 1.363 . S
C2088 H2091 0.929 . S
C2089 C2088 1.363 . S
C2089 C2095 1.428 . S
H2090 C2086 0.930 . S
H2091 C2088 0.929 . S
S2092 N2093 1.613 . S
S2092 N2094 1.610 . S
N2093 S2092 1.613 . S
N2093 C2096 1.350 . S
N2094 S2092 1.610 . S
N2094 C2095 1.351 . S
C2095 C2089 1.428 . S
C2095 N2094 1.351 . S
C2095 C2096 1.434 . S
C2096 C2087 1.429 . S
C2096 N2093 1.350 . S
C2096 C2095 1.434 . S
C2097 C2098 1.369 . S
C2097 C2099 1.419 . S
C2097 H2101 0.930 . S
C2098 C2097 1.369 . S
C2098 C2107 1.429 . S
C2099 C2097 1.419 . S
C2099 C2100 1.363 . S
C2099 H2102 0.929 . S
C2100 C2099 1.363 . S
C2100 C2106 1.428 . S
H2101 C2097 0.930 . S
H2102 C2099 0.929 . S
S2103 N2104 1.613 . S
S2103 N2105 1.610 . S
N2104 S2103 1.613 . S
N2104 C2107 1.350 . S
N2105 S2103 1.610 . S
N2105 C2106 1.351 . S
C2106 C2100 1.428 . S
C2106 N2105 1.351 . S
C2106 C2107 1.434 . S
C2107 C2098 1.429 . S
C2107 N2104 1.350 . S
C2107 C2106 1.434 . S
C2108 C2109 1.369 . S
C2108 C2110 1.419 . S
C2108 H2112 0.930 . S
C2109 C2108 1.369 . S
C2109 C2118 1.429 . S
C2110 C2108 1.419 . S
C2110 C2111 1.363 . S
C2110 H2113 0.929 . S
C2111 C2110 1.363 . S
C2111 C2117 1.428 . S
H2112 C2108 0.930 . S
H2113 C2110 0.929 . S
S2114 N2115 1.613 . S
S2114 N2116 1.610 . S
N2115 S2114 1.613 . S
N2115 C2118 1.350 . S
N2116 S2114 1.610 . S
N2116 C2117 1.351 . S
C2117 C2111 1.428 . S
C2117 N2116 1.351 . S
C2117 C2118 1.434 . S
C2118 C2109 1.429 . S
C2118 N2115 1.350 . S
C2118 C2117 1.434 . S
C2119 C2120 1.369 . S
C2119 C2121 1.419 . S
C2119 H2123 0.930 . S
C2120 C2119 1.369 . S
C2120 C2129 1.429 . S
C2121 C2119 1.419 . S
C2121 C2122 1.363 . S
C2121 H2124 0.929 . S
C2122 C2121 1.363 . S
C2122 C2128 1.428 . S
H2123 C2119 0.930 . S
H2124 C2121 0.929 . S
S2125 N2126 1.613 . S
S2125 N2127 1.610 . S
N2126 S2125 1.613 . S
N2126 C2129 1.350 . S
N2127 S2125 1.610 . S
N2127 C2128 1.351 . S
C2128 C2122 1.428 . S
C2128 N2127 1.351 . S
C2128 C2129 1.434 . S
C2129 C2120 1.429 . S
C2129 N2126 1.350 . S
C2129 C2128 1.434 . S
C2130 C2131 1.369 . S
C2130 C2132 1.419 . S
C2130 H2134 0.930 . S
C2131 C2130 1.369 . S
C2131 C2140 1.429 . S
C2132 C2130 1.419 . S
C2132 C2133 1.363 . S
C2132 H2135 0.929 . S
C2133 C2132 1.363 . S
C2133 C2139 1.428 . S
H2134 C2130 0.930 . S
H2135 C2132 0.929 . S
S2136 N2137 1.613 . S
S2136 N2138 1.610 . S
N2137 S2136 1.613 . S
N2137 C2140 1.350 . S
N2138 S2136 1.610 . S
N2138 C2139 1.351 . S
C2139 C2133 1.428 . S
C2139 N2138 1.351 . S
C2139 C2140 1.434 . S
C2140 C2131 1.429 . S
C2140 N2137 1.350 . S
C2140 C2139 1.434 . S
C2141 C2142 1.369 . S
C2141 C2143 1.419 . S
C2141 H2145 0.930 . S
C2142 C2141 1.369 . S
C2142 C2151 1.429 . S
C2143 C2141 1.419 . S
C2143 C2144 1.363 . S
C2143 H2146 0.929 . S
C2144 C2143 1.363 . S
C2144 C2150 1.428 . S
H2145 C2141 0.930 . S
H2146 C2143 0.929 . S
S2147 N2148 1.613 . S
S2147 N2149 1.610 . S
N2148 S2147 1.613 . S
N2148 C2151 1.350 . S
N2149 S2147 1.610 . S
N2149 C2150 1.351 . S
C2150 C2144 1.428 . S
C2150 N2149 1.351 . S
C2150 C2151 1.434 . S
C2151 C2142 1.429 . S
C2151 N2148 1.350 . S
C2151 C2150 1.434 . S
C2152 C2153 1.369 . S
C2152 C2154 1.419 . S
C2152 H2156 0.930 . S
C2153 C2152 1.369 . S
C2153 C2162 1.429 . S
C2154 C2152 1.419 . S
C2154 C2155 1.363 . S
C2154 H2157 0.929 . S
C2155 C2154 1.363 . S
C2155 C2161 1.428 . S
H2156 C2152 0.930 . S
H2157 C2154 0.929 . S
S2158 N2159 1.613 . S
S2158 N2160 1.610 . S
N2159 S2158 1.613 . S
N2159 C2162 1.350 . S
N2160 S2158 1.610 . S
N2160 C2161 1.351 . S
C2161 C2155 1.428 . S
C2161 N2160 1.351 . S
C2161 C2162 1.434 . S
C2162 C2153 1.429 . S
C2162 N2159 1.350 . S
C2162 C2161 1.434 . S
C2163 C2164 1.369 . S
C2163 C2165 1.419 . S
C2163 H2167 0.930 . S
C2164 C2163 1.369 . S
C2164 C2173 1.429 . S
C2165 C2163 1.419 . S
C2165 C2166 1.363 . S
C2165 H2168 0.929 . S
C2166 C2165 1.363 . S
C2166 C2172 1.428 . S
H2167 C2163 0.930 . S
H2168 C2165 0.929 . S
S2169 N2170 1.613 . S
S2169 N2171 1.610 . S
N2170 S2169 1.613 . S
N2170 C2173 1.350 . S
N2171 S2169 1.610 . S
N2171 C2172 1.351 . S
C2172 C2166 1.428 . S
C2172 N2171 1.351 . S
C2172 C2173 1.434 . S
C2173 C2164 1.429 . S
C2173 N2170 1.350 . S
C2173 C2172 1.434 . S
C2174 C2175 1.369 . S
C2174 C2176 1.419 . S
C2174 H2178 0.930 . S
C2175 C2174 1.369 . S
C2175 C2184 1.429 . S
C2176 C2174 1.419 . S
C2176 C2177 1.363 . S
C2176 H2179 0.929 . S
C2177 C2176 1.363 . S
C2177 C2183 1.428 . S
H2178 C2174 0.930 . S
H2179 C2176 0.929 . S
S2180 N2181 1.613 . S
S2180 N2182 1.610 . S
N2181 S2180 1.613 . S
N2181 C2184 1.350 . S
N2182 S2180 1.610 . S
N2182 C2183 1.351 . S
C2183 C2177 1.428 . S
C2183 N2182 1.351 . S
C2183 C2184 1.434 . S
C2184 C2175 1.429 . S
C2184 N2181 1.350 . S
C2184 C2183 1.434 . S
C2185 C2186 1.369 . S
C2185 C2187 1.419 . S
C2185 H2189 0.930 . S
C2186 C2185 1.369 . S
C2186 C2195 1.429 . S
C2187 C2185 1.419 . S
C2187 C2188 1.363 . S
C2187 H2190 0.929 . S
C2188 C2187 1.363 . S
C2188 C2194 1.428 . S
H2189 C2185 0.930 . S
H2190 C2187 0.929 . S
S2191 N2192 1.613 . S
S2191 N2193 1.610 . S
N2192 S2191 1.613 . S
N2192 C2195 1.350 . S
N2193 S2191 1.610 . S
N2193 C2194 1.351 . S
C2194 C2188 1.428 . S
C2194 N2193 1.351 . S
C2194 C2195 1.434 . S
C2195 C2186 1.429 . S
C2195 N2192 1.350 . S
C2195 C2194 1.434 . S
C2196 C2197 1.369 . S
C2196 C2198 1.419 . S
C2196 H2200 0.930 . S
C2197 C2196 1.369 . S
C2197 C2206 1.429 . S
C2198 C2196 1.419 . S
C2198 C2199 1.363 . S
C2198 H2201 0.929 . S
C2199 C2198 1.363 . S
C2199 C2205 1.428 . S
H2200 C2196 0.930 . S
H2201 C2198 0.929 . S
S2202 N2203 1.613 . S
S2202 N2204 1.610 . S
N2203 S2202 1.613 . S
N2203 C2206 1.350 . S
N2204 S2202 1.610 . S
N2204 C2205 1.351 . S
C2205 C2199 1.428 . S
C2205 N2204 1.351 . S
C2205 C2206 1.434 . S
C2206 C2197 1.429 . S
C2206 N2203 1.350 . S
C2206 C2205 1.434 . S
C2207 C2208 1.369 . S
C2207 C2209 1.419 . S
C2207 H2211 0.930 . S
C2208 C2207 1.369 . S
C2208 C2217 1.429 . S
C2209 C2207 1.419 . S
C2209 C2210 1.363 . S
C2209 H2212 0.929 . S
C2210 C2209 1.363 . S
C2210 C2216 1.428 . S
H2211 C2207 0.930 . S
H2212 C2209 0.929 . S
S2213 N2214 1.613 . S
S2213 N2215 1.610 . S
N2214 S2213 1.613 . S
N2214 C2217 1.350 . S
N2215 S2213 1.610 . S
N2215 C2216 1.351 . S
C2216 C2210 1.428 . S
C2216 N2215 1.351 . S
C2216 C2217 1.434 . S
C2217 C2208 1.429 . S
C2217 N2214 1.350 . S
C2217 C2216 1.434 . S
C2218 C2219 1.369 . S
C2218 C2220 1.419 . S
C2218 H2222 0.930 . S
C2219 C2218 1.369 . S
C2219 C2228 1.429 . S
C2220 C2218 1.419 . S
C2220 C2221 1.363 . S
C2220 H2223 0.929 . S
C2221 C2220 1.363 . S
C2221 C2227 1.428 . S
H2222 C2218 0.930 . S
H2223 C2220 0.929 . S
S2224 N2225 1.613 . S
S2224 N2226 1.610 . S
N2225 S2224 1.613 . S
N2225 C2228 1.350 . S
N2226 S2224 1.610 . S
N2226 C2227 1.351 . S
C2227 C2221 1.428 . S
C2227 N2226 1.351 . S
C2227 C2228 1.434 . S
C2228 C2219 1.429 . S
C2228 N2225 1.350 . S
C2228 C2227 1.434 . S
C2229 C2230 1.369 . S
C2229 C2231 1.419 . S
C2229 H2233 0.930 . S
C2230 C2229 1.369 . S
C2230 C2239 1.429 . S
C2231 C2229 1.419 . S
C2231 C2232 1.363 . S
C2231 H2234 0.929 . S
C2232 C2231 1.363 . S
C2232 C2238 1.428 . S
H2233 C2229 0.930 . S
H2234 C2231 0.929 . S
S2235 N2236 1.613 . S
S2235 N2237 1.610 . S
N2236 S2235 1.613 . S
N2236 C2239 1.350 . S
N2237 S2235 1.610 . S
N2237 C2238 1.351 . S
C2238 C2232 1.428 . S
C2238 N2237 1.351 . S
C2238 C2239 1.434 . S
C2239 C2230 1.429 . S
C2239 N2236 1.350 . S
C2239 C2238 1.434 . S
C2240 C2241 1.369 . S
C2240 C2242 1.419 . S
C2240 H2244 0.930 . S
C2241 C2240 1.369 . S
C2241 C2250 1.429 . S
C2242 C2240 1.419 . S
C2242 C2243 1.363 . S
C2242 H2245 0.929 . S
C2243 C2242 1.363 . S
C2243 C2249 1.428 . S
H2244 C2240 0.930 . S
H2245 C2242 0.929 . S
S2246 N2247 1.613 . S
S2246 N2248 1.610 . S
N2247 S2246 1.613 . S
N2247 C2250 1.350 . S
N2248 S2246 1.610 . S
N2248 C2249 1.351 . S
C2249 C2243 1.428 . S
C2249 N2248 1.351 . S
C2249 C2250 1.434 . S
C2250 C2241 1.429 . S
C2250 N2247 1.350 . S
C2250 C2249 1.434 . S
C2251 C2252 1.369 . S
C2251 C2253 1.419 . S
C2251 H2255 0.930 . S
C2252 C2251 1.369 . S
C2252 C2261 1.429 . S
C2253 C2251 1.419 . S
C2253 C2254 1.363 . S
C2253 H2256 0.929 . S
C2254 C2253 1.363 . S
C2254 C2260 1.428 . S
H2255 C2251 0.930 . S
H2256 C2253 0.929 . S
S2257 N2258 1.613 . S
S2257 N2259 1.610 . S
N2258 S2257 1.613 . S
N2258 C2261 1.350 . S
N2259 S2257 1.610 . S
N2259 C2260 1.351 . S
C2260 C2254 1.428 . S
C2260 N2259 1.351 . S
C2260 C2261 1.434 . S
C2261 C2252 1.429 . S
C2261 N2258 1.350 . S
C2261 C2260 1.434 . S
C2262 C2263 1.369 . S
C2262 C2264 1.419 . S
C2262 H2266 0.930 . S
C2263 C2262 1.369 . S
C2263 C2272 1.429 . S
C2264 C2262 1.419 . S
C2264 C2265 1.363 . S
C2264 H2267 0.929 . S
C2265 C2264 1.363 . S
C2265 C2271 1.428 . S
H2266 C2262 0.930 . S
H2267 C2264 0.929 . S
S2268 N2269 1.613 . S
S2268 N2270 1.610 . S
N2269 S2268 1.613 . S
N2269 C2272 1.350 . S
N2270 S2268 1.610 . S
N2270 C2271 1.351 . S
C2271 C2265 1.428 . S
C2271 N2270 1.351 . S
C2271 C2272 1.434 . S
C2272 C2263 1.429 . S
C2272 N2269 1.350 . S
C2272 C2271 1.434 . S
C2273 C2274 1.369 . S
C2273 C2275 1.419 . S
C2273 H2277 0.930 . S
C2274 C2273 1.369 . S
C2274 C2283 1.429 . S
C2275 C2273 1.419 . S
C2275 C2276 1.363 . S
C2275 H2278 0.929 . S
C2276 C2275 1.363 . S
C2276 C2282 1.428 . S
H2277 C2273 0.930 . S
H2278 C2275 0.929 . S
S2279 N2280 1.613 . S
S2279 N2281 1.610 . S
N2280 S2279 1.613 . S
N2280 C2283 1.350 . S
N2281 S2279 1.610 . S
N2281 C2282 1.351 . S
C2282 C2276 1.428 . S
C2282 N2281 1.351 . S
C2282 C2283 1.434 . S
C2283 C2274 1.429 . S
C2283 N2280 1.350 . S
C2283 C2282 1.434 . S
C2284 C2285 1.369 . S
C2284 C2286 1.419 . S
C2284 H2288 0.930 . S
C2285 C2284 1.369 . S
C2285 C2294 1.429 . S
C2286 C2284 1.419 . S
C2286 C2287 1.363 . S
C2286 H2289 0.929 . S
C2287 C2286 1.363 . S
C2287 C2293 1.428 . S
H2288 C2284 0.930 . S
H2289 C2286 0.929 . S
S2290 N2291 1.613 . S
S2290 N2292 1.610 . S
N2291 S2290 1.613 . S
N2291 C2294 1.350 . S
N2292 S2290 1.610 . S
N2292 C2293 1.351 . S
C2293 C2287 1.428 . S
C2293 N2292 1.351 . S
C2293 C2294 1.434 . S
C2294 C2285 1.429 . S
C2294 N2291 1.350 . S
C2294 C2293 1.434 . S
C2295 C2296 1.369 . S
C2295 C2297 1.419 . S
C2295 H2299 0.930 . S
C2296 C2295 1.369 . S
C2296 C2305 1.429 . S
C2297 C2295 1.419 . S
C2297 C2298 1.363 . S
C2297 H2300 0.929 . S
C2298 C2297 1.363 . S
C2298 C2304 1.428 . S
H2299 C2295 0.930 . S
H2300 C2297 0.929 . S
S2301 N2302 1.613 . S
S2301 N2303 1.610 . S
N2302 S2301 1.613 . S
N2302 C2305 1.350 . S
N2303 S2301 1.610 . S
N2303 C2304 1.351 . S
C2304 C2298 1.428 . S
C2304 N2303 1.351 . S
C2304 C2305 1.434 . S
C2305 C2296 1.429 . S
C2305 N2302 1.350 . S
C2305 C2304 1.434 . S
C2306 C2307 1.369 . S
C2306 C2308 1.419 . S
C2306 H2310 0.930 . S
C2307 C2306 1.369 . S
C2307 C2316 1.429 . S
C2308 C2306 1.419 . S
C2308 C2309 1.363 . S
C2308 H2311 0.929 . S
C2309 C2308 1.363 . S
C2309 C2315 1.428 . S
H2310 C2306 0.930 . S
H2311 C2308 0.929 . S
S2312 N2313 1.613 . S
S2312 N2314 1.610 . S
N2313 S2312 1.613 . S
N2313 C2316 1.350 . S
N2314 S2312 1.610 . S
N2314 C2315 1.351 . S
C2315 C2309 1.428 . S
C2315 N2314 1.351 . S
C2315 C2316 1.434 . S
C2316 C2307 1.429 . S
C2316 N2313 1.350 . S
C2316 C2315 1.434 . S
C2317 C2318 1.369 . S
C2317 C2319 1.419 . S
C2317 H2321 0.930 . S
C2318 C2317 1.369 . S
C2318 C2327 1.429 . S
C2319 C2317 1.419 . S
C2319 C2320 1.363 . S
C2319 H2322 0.929 . S
C2320 C2319 1.363 . S
C2320 C2326 1.428 . S
H2321 C2317 0.930 . S
H2322 C2319 0.929 . S
S2323 N2324 1.613 . S
S2323 N2325 1.610 . S
N2324 S2323 1.613 . S
N2324 C2327 1.350 . S
N2325 S2323 1.610 . S
N2325 C2326 1.351 . S
C2326 C2320 1.428 . S
C2326 N2325 1.351 . S
C2326 C2327 1.434 . S
C2327 C2318 1.429 . S
C2327 N2324 1.350 . S
C2327 C2326 1.434 . S
C2328 C2329 1.369 . S
C2328 C2330 1.419 . S
C2328 H2332 0.930 . S
C2329 C2328 1.369 . S
C2329 C2338 1.429 . S
C2330 C2328 1.419 . S
C2330 C2331 1.363 . S
C2330 H2333 0.929 . S
C2331 C2330 1.363 . S
C2331 C2337 1.428 . S
H2332 C2328 0.930 . S
H2333 C2330 0.929 . S
S2334 N2335 1.613 . S
S2334 N2336 1.610 . S
N2335 S2334 1.613 . S
N2335 C2338 1.350 . S
N2336 S2334 1.610 . S
N2336 C2337 1.351 . S
C2337 C2331 1.428 . S
C2337 N2336 1.351 . S
C2337 C2338 1.434 . S
C2338 C2329 1.429 . S
C2338 N2335 1.350 . S
C2338 C2337 1.434 . S
C2339 C2340 1.369 . S
C2339 C2341 1.419 . S
C2339 H2343 0.930 . S
C2340 C2339 1.369 . S
C2340 C2349 1.429 . S
C2341 C2339 1.419 . S
C2341 C2342 1.363 . S
C2341 H2344 0.929 . S
C2342 C2341 1.363 . S
C2342 C2348 1.428 . S
H2343 C2339 0.930 . S
H2344 C2341 0.929 . S
S2345 N2346 1.613 . S
S2345 N2347 1.610 . S
N2346 S2345 1.613 . S
N2346 C2349 1.350 . S
N2347 S2345 1.610 . S
N2347 C2348 1.351 . S
C2348 C2342 1.428 . S
C2348 N2347 1.351 . S
C2348 C2349 1.434 . S
C2349 C2340 1.429 . S
C2349 N2346 1.350 . S
C2349 C2348 1.434 . S
C2350 C2351 1.369 . S
C2350 C2352 1.419 . S
C2350 H2354 0.930 . S
C2351 C2350 1.369 . S
C2351 C2360 1.429 . S
C2352 C2350 1.419 . S
C2352 C2353 1.363 . S
C2352 H2355 0.929 . S
C2353 C2352 1.363 . S
C2353 C2359 1.428 . S
H2354 C2350 0.930 . S
H2355 C2352 0.929 . S
S2356 N2357 1.613 . S
S2356 N2358 1.610 . S
N2357 S2356 1.613 . S
N2357 C2360 1.350 . S
N2358 S2356 1.610 . S
N2358 C2359 1.351 . S
C2359 C2353 1.428 . S
C2359 N2358 1.351 . S
C2359 C2360 1.434 . S
C2360 C2351 1.429 . S
C2360 N2357 1.350 . S
C2360 C2359 1.434 . S
C2361 C2362 1.369 . S
C2361 C2363 1.419 . S
C2361 H2365 0.930 . S
C2362 C2361 1.369 . S
C2362 C2371 1.429 . S
C2363 C2361 1.419 . S
C2363 C2364 1.363 . S
C2363 H2366 0.929 . S
C2364 C2363 1.363 . S
C2364 C2370 1.428 . S
H2365 C2361 0.930 . S
H2366 C2363 0.929 . S
S2367 N2368 1.613 . S
S2367 N2369 1.610 . S
N2368 S2367 1.613 . S
N2368 C2371 1.350 . S
N2369 S2367 1.610 . S
N2369 C2370 1.351 . S
C2370 C2364 1.428 . S
C2370 N2369 1.351 . S
C2370 C2371 1.434 . S
C2371 C2362 1.429 . S
C2371 N2368 1.350 . S
C2371 C2370 1.434 . S
C2372 C2373 1.369 . S
C2372 C2374 1.419 . S
C2372 H2376 0.930 . S
C2373 C2372 1.369 . S
C2373 C2382 1.429 . S
C2374 C2372 1.419 . S
C2374 C2375 1.363 . S
C2374 H2377 0.929 . S
C2375 C2374 1.363 . S
C2375 C2381 1.428 . S
H2376 C2372 0.930 . S
H2377 C2374 0.929 . S
S2378 N2379 1.613 . S
S2378 N2380 1.610 . S
N2379 S2378 1.613 . S
N2379 C2382 1.350 . S
N2380 S2378 1.610 . S
N2380 C2381 1.351 . S
C2381 C2375 1.428 . S
C2381 N2380 1.351 . S
C2381 C2382 1.434 . S
C2382 C2373 1.429 . S
C2382 N2379 1.350 . S
C2382 C2381 1.434 . S
C2383 C2384 1.369 . S
C2383 C2385 1.419 . S
C2383 H2387 0.930 . S
C2384 C2383 1.369 . S
C2384 C2393 1.429 . S
C2385 C2383 1.419 . S
C2385 C2386 1.363 . S
C2385 H2388 0.929 . S
C2386 C2385 1.363 . S
C2386 C2392 1.428 . S
H2387 C2383 0.930 . S
H2388 C2385 0.929 . S
S2389 N2390 1.613 . S
S2389 N2391 1.610 . S
N2390 S2389 1.613 . S
N2390 C2393 1.350 . S
N2391 S2389 1.610 . S
N2391 C2392 1.351 . S
C2392 C2386 1.428 . S
C2392 N2391 1.351 . S
C2392 C2393 1.434 . S
C2393 C2384 1.429 . S
C2393 N2390 1.350 . S
C2393 C2392 1.434 . S
C2394 C2395 1.369 . S
C2394 C2396 1.419 . S
C2394 H2398 0.930 . S
C2395 C2394 1.369 . S
C2395 C2404 1.429 . S
C2396 C2394 1.419 . S
C2396 C2397 1.363 . S
C2396 H2399 0.929 . S
C2397 C2396 1.363 . S
C2397 C2403 1.428 . S
H2398 C2394 0.930 . S
H2399 C2396 0.929 . S
S2400 N2401 1.613 . S
S2400 N2402 1.610 . S
N2401 S2400 1.613 . S
N2401 C2404 1.350 . S
N2402 S2400 1.610 . S
N2402 C2403 1.351 . S
C2403 C2397 1.428 . S
C2403 N2402 1.351 . S
C2403 C2404 1.434 . S
C2404 C2395 1.429 . S
C2404 N2401 1.350 . S
C2404 C2403 1.434 . S
C2405 C2406 1.369 . S
C2405 C2407 1.419 . S
C2405 H2409 0.930 . S
C2406 C2405 1.369 . S
C2406 C2415 1.429 . S
C2407 C2405 1.419 . S
C2407 C2408 1.363 . S
C2407 H2410 0.929 . S
C2408 C2407 1.363 . S
C2408 C2414 1.428 . S
H2409 C2405 0.930 . S
H2410 C2407 0.929 . S
S2411 N2412 1.613 . S
S2411 N2413 1.610 . S
N2412 S2411 1.613 . S
N2412 C2415 1.350 . S
N2413 S2411 1.610 . S
N2413 C2414 1.351 . S
C2414 C2408 1.428 . S
C2414 N2413 1.351 . S
C2414 C2415 1.434 . S
C2415 C2406 1.429 . S
C2415 N2412 1.350 . S
C2415 C2414 1.434 . S
C2416 C2417 1.369 . S
C2416 C2418 1.419 . S
C2416 H2420 0.930 . S
C2417 C2416 1.369 . S
C2417 C2426 1.429 . S
C2418 C2416 1.419 . S
C2418 C2419 1.363 . S
C2418 H2421 0.929 . S
C2419 C2418 1.363 . S
C2419 C2425 1.428 . S
H2420 C2416 0.930 . S
H2421 C2418 0.929 . S
S2422 N2423 1.613 . S
S2422 N2424 1.610 . S
N2423 S2422 1.613 . S
N2423 C2426 1.350 . S
N2424 S2422 1.610 . S
N2424 C2425 1.351 . S
C2425 C2419 1.428 . S
C2425 N2424 1.351 . S
C2425 C2426 1.434 . S
C2426 C2417 1.429 . S
C2426 N2423 1.350 . S
C2426 C2425 1.434 . S
C2427 C2428 1.369 . S
C2427 C2429 1.419 . S
C2427 H2431 0.930 . S
C2428 C2427 1.369 . S
C2428 C2437 1.429 . S
C2429 C2427 1.419 . S
C2429 C2430 1.363 . S
C2429 H2432 0.929 . S
C2430 C2429 1.363 . S
C2430 C2436 1.428 . S
H2431 C2427 0.930 . S
H2432 C2429 0.929 . S
S2433 N2434 1.613 . S
S2433 N2435 1.610 . S
N2434 S2433 1.613 . S
N2434 C2437 1.350 . S
N2435 S2433 1.610 . S
N2435 C2436 1.351 . S
C2436 C2430 1.428 . S
C2436 N2435 1.351 . S
C2436 C2437 1.434 . S
C2437 C2428 1.429 . S
C2437 N2434 1.350 . S
C2437 C2436 1.434 . S
C2438 C2439 1.369 . S
C2438 C2440 1.419 . S
C2438 H2442 0.930 . S
C2439 C2438 1.369 . S
C2439 C2448 1.429 . S
C2440 C2438 1.419 . S
C2440 C2441 1.363 . S
C2440 H2443 0.929 . S
C2441 C2440 1.363 . S
C2441 C2447 1.428 . S
H2442 C2438 0.930 . S
H2443 C2440 0.929 . S
S2444 N2445 1.613 . S
S2444 N2446 1.610 . S
N2445 S2444 1.613 . S
N2445 C2448 1.350 . S
N2446 S2444 1.610 . S
N2446 C2447 1.351 . S
C2447 C2441 1.428 . S
C2447 N2446 1.351 . S
C2447 C2448 1.434 . S
C2448 C2439 1.429 . S
C2448 N2445 1.350 . S
C2448 C2447 1.434 . S
C2449 C2450 1.369 . S
C2449 C2451 1.419 . S
C2449 H2453 0.930 . S
C2450 C2449 1.369 . S
C2450 C2459 1.429 . S
C2451 C2449 1.419 . S
C2451 C2452 1.363 . S
C2451 H2454 0.929 . S
C2452 C2451 1.363 . S
C2452 C2458 1.428 . S
H2453 C2449 0.930 . S
H2454 C2451 0.929 . S
S2455 N2456 1.613 . S
S2455 N2457 1.610 . S
N2456 S2455 1.613 . S
N2456 C2459 1.350 . S
N2457 S2455 1.610 . S
N2457 C2458 1.351 . S
C2458 C2452 1.428 . S
C2458 N2457 1.351 . S
C2458 C2459 1.434 . S
C2459 C2450 1.429 . S
C2459 N2456 1.350 . S
C2459 C2458 1.434 . S
C2460 C2461 1.369 . S
C2460 C2462 1.419 . S
C2460 H2464 0.930 . S
C2461 C2460 1.369 . S
C2461 C2470 1.429 . S
C2462 C2460 1.419 . S
C2462 C2463 1.363 . S
C2462 H2465 0.929 . S
C2463 C2462 1.363 . S
C2463 C2469 1.428 . S
H2464 C2460 0.930 . S
H2465 C2462 0.929 . S
S2466 N2467 1.613 . S
S2466 N2468 1.610 . S
N2467 S2466 1.613 . S
N2467 C2470 1.350 . S
N2468 S2466 1.610 . S
N2468 C2469 1.351 . S
C2469 C2463 1.428 . S
C2469 N2468 1.351 . S
C2469 C2470 1.434 . S
C2470 C2461 1.429 . S
C2470 N2467 1.350 . S
C2470 C2469 1.434 . S
C2471 C2472 1.369 . S
C2471 C2473 1.419 . S
C2471 H2475 0.930 . S
C2472 C2471 1.369 . S
C2472 C2481 1.429 . S
C2473 C2471 1.419 . S
C2473 C2474 1.363 . S
C2473 H2476 0.929 . S
C2474 C2473 1.363 . S
C2474 C2480 1.428 . S
H2475 C2471 0.930 . S
H2476 C2473 0.929 . S
S2477 N2478 1.613 . S
S2477 N2479 1.610 . S
N2478 S2477 1.613 . S
N2478 C2481 1.350 . S
N2479 S2477 1.610 . S
N2479 C2480 1.351 . S
C2480 C2474 1.428 . S
C2480 N2479 1.351 . S
C2480 C2481 1.434 . S
C2481 C2472 1.429 . S
C2481 N2478 1.350 . S
C2481 C2480 1.434 . S
C2482 C2483 1.369 . S
C2482 C2484 1.419 . S
C2482 H2486 0.930 . S
C2483 C2482 1.369 . S
C2483 C2492 1.429 . S
C2484 C2482 1.419 . S
C2484 C2485 1.363 . S
C2484 H2487 0.929 . S
C2485 C2484 1.363 . S
C2485 C2491 1.428 . S
H2486 C2482 0.930 . S
H2487 C2484 0.929 . S
S2488 N2489 1.613 . S
S2488 N2490 1.610 . S
N2489 S2488 1.613 . S
N2489 C2492 1.350 . S
N2490 S2488 1.610 . S
N2490 C2491 1.351 . S
C2491 C2485 1.428 . S
C2491 N2490 1.351 . S
C2491 C2492 1.434 . S
C2492 C2483 1.429 . S
C2492 N2489 1.350 . S
C2492 C2491 1.434 . S
C2493 C2494 1.369 . S
C2493 C2495 1.419 . S
C2493 H2497 0.930 . S
C2494 C2493 1.369 . S
C2494 C2503 1.429 . S
C2495 C2493 1.419 . S
C2495 C2496 1.363 . S
C2495 H2498 0.929 . S
C2496 C2495 1.363 . S
C2496 C2502 1.428 . S
H2497 C2493 0.930 . S
H2498 C2495 0.929 . S
S2499 N2500 1.613 . S
S2499 N2501 1.610 . S
N2500 S2499 1.613 . S
N2500 C2503 1.350 . S
N2501 S2499 1.610 . S
N2501 C2502 1.351 . S
C2502 C2496 1.428 . S
C2502 N2501 1.351 . S
C2502 C2503 1.434 . S
C2503 C2494 1.429 . S
C2503 N2500 1.350 . S
C2503 C2502 1.434 . S
C2504 C2505 1.369 . S
C2504 C2506 1.419 . S
C2504 H2508 0.930 . S
C2505 C2504 1.369 . S
C2505 C2514 1.429 . S
C2506 C2504 1.419 . S
C2506 C2507 1.363 . S
C2506 H2509 0.929 . S
C2507 C2506 1.363 . S
C2507 C2513 1.428 . S
H2508 C2504 0.930 . S
H2509 C2506 0.929 . S
S2510 N2511 1.613 . S
S2510 N2512 1.610 . S
N2511 S2510 1.613 . S
N2511 C2514 1.350 . S
N2512 S2510 1.610 . S
N2512 C2513 1.351 . S
C2513 C2507 1.428 . S
C2513 N2512 1.351 . S
C2513 C2514 1.434 . S
C2514 C2505 1.429 . S
C2514 N2511 1.350 . S
C2514 C2513 1.434 . S
C2515 C2516 1.369 . S
C2515 C2517 1.419 . S
C2515 H2519 0.930 . S
C2516 C2515 1.369 . S
C2516 C2525 1.429 . S
C2517 C2515 1.419 . S
C2517 C2518 1.363 . S
C2517 H2520 0.929 . S
C2518 C2517 1.363 . S
C2518 C2524 1.428 . S
H2519 C2515 0.930 . S
H2520 C2517 0.929 . S
S2521 N2522 1.613 . S
S2521 N2523 1.610 . S
N2522 S2521 1.613 . S
N2522 C2525 1.350 . S
N2523 S2521 1.610 . S
N2523 C2524 1.351 . S
C2524 C2518 1.428 . S
C2524 N2523 1.351 . S
C2524 C2525 1.434 . S
C2525 C2516 1.429 . S
C2525 N2522 1.350 . S
C2525 C2524 1.434 . S
C2526 C2527 1.369 . S
C2526 C2528 1.419 . S
C2526 H2530 0.930 . S
C2527 C2526 1.369 . S
C2527 C2536 1.429 . S
C2528 C2526 1.419 . S
C2528 C2529 1.363 . S
C2528 H2531 0.929 . S
C2529 C2528 1.363 . S
C2529 C2535 1.428 . S
H2530 C2526 0.930 . S
H2531 C2528 0.929 . S
S2532 N2533 1.613 . S
S2532 N2534 1.610 . S
N2533 S2532 1.613 . S
N2533 C2536 1.350 . S
N2534 S2532 1.610 . S
N2534 C2535 1.351 . S
C2535 C2529 1.428 . S
C2535 N2534 1.351 . S
C2535 C2536 1.434 . S
C2536 C2527 1.429 . S
C2536 N2533 1.350 . S
C2536 C2535 1.434 . S
C2537 C2538 1.369 . S
C2537 C2539 1.419 . S
C2537 H2541 0.930 . S
C2538 C2537 1.369 . S
C2538 C2547 1.429 . S
C2539 C2537 1.419 . S
C2539 C2540 1.363 . S
C2539 H2542 0.929 . S
C2540 C2539 1.363 . S
C2540 C2546 1.428 . S
H2541 C2537 0.930 . S
H2542 C2539 0.929 . S
S2543 N2544 1.613 . S
S2543 N2545 1.610 . S
N2544 S2543 1.613 . S
N2544 C2547 1.350 . S
N2545 S2543 1.610 . S
N2545 C2546 1.351 . S
C2546 C2540 1.428 . S
C2546 N2545 1.351 . S
C2546 C2547 1.434 . S
C2547 C2538 1.429 . S
C2547 N2544 1.350 . S
C2547 C2546 1.434 . S
C2548 C2549 1.369 . S
C2548 C2550 1.419 . S
C2548 H2552 0.930 . S
C2549 C2548 1.369 . S
C2549 C2558 1.429 . S
C2550 C2548 1.419 . S
C2550 C2551 1.363 . S
C2550 H2553 0.929 . S
C2551 C2550 1.363 . S
C2551 C2557 1.428 . S
H2552 C2548 0.930 . S
H2553 C2550 0.929 . S
S2554 N2555 1.613 . S
S2554 N2556 1.610 . S
N2555 S2554 1.613 . S
N2555 C2558 1.350 . S
N2556 S2554 1.610 . S
N2556 C2557 1.351 . S
C2557 C2551 1.428 . S
C2557 N2556 1.351 . S
C2557 C2558 1.434 . S
C2558 C2549 1.429 . S
C2558 N2555 1.350 . S
C2558 C2557 1.434 . S
C2559 C2560 1.369 . S
C2559 C2561 1.419 . S
C2559 H2563 0.930 . S
C2560 C2559 1.369 . S
C2560 C2569 1.429 . S
C2561 C2559 1.419 . S
C2561 C2562 1.363 . S
C2561 H2564 0.929 . S
C2562 C2561 1.363 . S
C2562 C2568 1.428 . S
H2563 C2559 0.930 . S
H2564 C2561 0.929 . S
S2565 N2566 1.613 . S
S2565 N2567 1.610 . S
N2566 S2565 1.613 . S
N2566 C2569 1.350 . S
N2567 S2565 1.610 . S
N2567 C2568 1.351 . S
C2568 C2562 1.428 . S
C2568 N2567 1.351 . S
C2568 C2569 1.434 . S
C2569 C2560 1.429 . S
C2569 N2566 1.350 . S
C2569 C2568 1.434 . S
C2570 C2571 1.369 . S
C2570 C2572 1.419 . S
C2570 H2574 0.930 . S
C2571 C2570 1.369 . S
C2571 C2580 1.429 . S
C2572 C2570 1.419 . S
C2572 C2573 1.363 . S
C2572 H2575 0.929 . S
C2573 C2572 1.363 . S
C2573 C2579 1.428 . S
H2574 C2570 0.930 . S
H2575 C2572 0.929 . S
S2576 N2577 1.613 . S
S2576 N2578 1.610 . S
N2577 S2576 1.613 . S
N2577 C2580 1.350 . S
N2578 S2576 1.610 . S
N2578 C2579 1.351 . S
C2579 C2573 1.428 . S
C2579 N2578 1.351 . S
C2579 C2580 1.434 . S
C2580 C2571 1.429 . S
C2580 N2577 1.350 . S
C2580 C2579 1.434 . S
C2581 C2582 1.369 . S
C2581 C2583 1.419 . S
C2581 H2585 0.930 . S
C2582 C2581 1.369 . S
C2582 C2591 1.429 . S
C2583 C2581 1.419 . S
C2583 C2584 1.363 . S
C2583 H2586 0.929 . S
C2584 C2583 1.363 . S
C2584 C2590 1.428 . S
H2585 C2581 0.930 . S
H2586 C2583 0.929 . S
S2587 N2588 1.613 . S
S2587 N2589 1.610 . S
N2588 S2587 1.613 . S
N2588 C2591 1.350 . S
N2589 S2587 1.610 . S
N2589 C2590 1.351 . S
C2590 C2584 1.428 . S
C2590 N2589 1.351 . S
C2590 C2591 1.434 . S
C2591 C2582 1.429 . S
C2591 N2588 1.350 . S
C2591 C2590 1.434 . S
C2592 C2593 1.369 . S
C2592 C2594 1.419 . S
C2592 H2596 0.930 . S
C2593 C2592 1.369 . S
C2593 C2602 1.429 . S
C2594 C2592 1.419 . S
C2594 C2595 1.363 . S
C2594 H2597 0.929 . S
C2595 C2594 1.363 . S
C2595 C2601 1.428 . S
H2596 C2592 0.930 . S
H2597 C2594 0.929 . S
S2598 N2599 1.613 . S
S2598 N2600 1.610 . S
N2599 S2598 1.613 . S
N2599 C2602 1.350 . S
N2600 S2598 1.610 . S
N2600 C2601 1.351 . S
C2601 C2595 1.428 . S
C2601 N2600 1.351 . S
C2601 C2602 1.434 . S
C2602 C2593 1.429 . S
C2602 N2599 1.350 . S
C2602 C2601 1.434 . S
C2603 C2604 1.369 . S
C2603 C2605 1.419 . S
C2603 H2607 0.930 . S
C2604 C2603 1.369 . S
C2604 C2613 1.429 . S
C2605 C2603 1.419 . S
C2605 C2606 1.363 . S
C2605 H2608 0.929 . S
C2606 C2605 1.363 . S
C2606 C2612 1.428 . S
H2607 C2603 0.930 . S
H2608 C2605 0.929 . S
S2609 N2610 1.613 . S
S2609 N2611 1.610 . S
N2610 S2609 1.613 . S
N2610 C2613 1.350 . S
N2611 S2609 1.610 . S
N2611 C2612 1.351 . S
C2612 C2606 1.428 . S
C2612 N2611 1.351 . S
C2612 C2613 1.434 . S
C2613 C2604 1.429 . S
C2613 N2610 1.350 . S
C2613 C2612 1.434 . S
C2614 C2615 1.369 . S
C2614 C2616 1.419 . S
C2614 H2618 0.930 . S
C2615 C2614 1.369 . S
C2615 C2624 1.429 . S
C2616 C2614 1.419 . S
C2616 C2617 1.363 . S
C2616 H2619 0.929 . S
C2617 C2616 1.363 . S
C2617 C2623 1.428 . S
H2618 C2614 0.930 . S
H2619 C2616 0.929 . S
S2620 N2621 1.613 . S
S2620 N2622 1.610 . S
N2621 S2620 1.613 . S
N2621 C2624 1.350 . S
N2622 S2620 1.610 . S
N2622 C2623 1.351 . S
C2623 C2617 1.428 . S
C2623 N2622 1.351 . S
C2623 C2624 1.434 . S
C2624 C2615 1.429 . S
C2624 N2621 1.350 . S
C2624 C2623 1.434 . S
C2625 C2626 1.369 . S
C2625 C2627 1.419 . S
C2625 H2629 0.930 . S
C2626 C2625 1.369 . S
C2626 C2635 1.429 . S
C2627 C2625 1.419 . S
C2627 C2628 1.363 . S
C2627 H2630 0.929 . S
C2628 C2627 1.363 . S
C2628 C2634 1.428 . S
H2629 C2625 0.930 . S
H2630 C2627 0.929 . S
S2631 N2632 1.613 . S
S2631 N2633 1.610 . S
N2632 S2631 1.613 . S
N2632 C2635 1.350 . S
N2633 S2631 1.610 . S
N2633 C2634 1.351 . S
C2634 C2628 1.428 . S
C2634 N2633 1.351 . S
C2634 C2635 1.434 . S
C2635 C2626 1.429 . S
C2635 N2632 1.350 . S
C2635 C2634 1.434 . S
C2636 C2637 1.369 . S
C2636 C2638 1.419 . S
C2636 H2640 0.930 . S
C2637 C2636 1.369 . S
C2637 C2646 1.429 . S
C2638 C2636 1.419 . S
C2638 C2639 1.363 . S
C2638 H2641 0.929 . S
C2639 C2638 1.363 . S
C2639 C2645 1.428 . S
H2640 C2636 0.930 . S
H2641 C2638 0.929 . S
S2642 N2643 1.613 . S
S2642 N2644 1.610 . S
N2643 S2642 1.613 . S
N2643 C2646 1.350 . S
N2644 S2642 1.610 . S
N2644 C2645 1.351 . S
C2645 C2639 1.428 . S
C2645 N2644 1.351 . S
C2645 C2646 1.434 . S
C2646 C2637 1.429 . S
C2646 N2643 1.350 . S
C2646 C2645 1.434 . S
C2647 C2648 1.369 . S
C2647 C2649 1.419 . S
C2647 H2651 0.930 . S
C2648 C2647 1.369 . S
C2648 C2657 1.429 . S
C2649 C2647 1.419 . S
C2649 C2650 1.363 . S
C2649 H2652 0.929 . S
C2650 C2649 1.363 . S
C2650 C2656 1.428 . S
H2651 C2647 0.930 . S
H2652 C2649 0.929 . S
S2653 N2654 1.613 . S
S2653 N2655 1.610 . S
N2654 S2653 1.613 . S
N2654 C2657 1.350 . S
N2655 S2653 1.610 . S
N2655 C2656 1.351 . S
C2656 C2650 1.428 . S
C2656 N2655 1.351 . S
C2656 C2657 1.434 . S
C2657 C2648 1.429 . S
C2657 N2654 1.350 . S
C2657 C2656 1.434 . S
C2658 C2659 1.369 . S
C2658 C2660 1.419 . S
C2658 H2662 0.930 . S
C2659 C2658 1.369 . S
C2659 C2668 1.429 . S
C2660 C2658 1.419 . S
C2660 C2661 1.363 . S
C2660 H2663 0.929 . S
C2661 C2660 1.363 . S
C2661 C2667 1.428 . S
H2662 C2658 0.930 . S
H2663 C2660 0.929 . S
S2664 N2665 1.613 . S
S2664 N2666 1.610 . S
N2665 S2664 1.613 . S
N2665 C2668 1.350 . S
N2666 S2664 1.610 . S
N2666 C2667 1.351 . S
C2667 C2661 1.428 . S
C2667 N2666 1.351 . S
C2667 C2668 1.434 . S
C2668 C2659 1.429 . S
C2668 N2665 1.350 . S
C2668 C2667 1.434 . S
C2669 C2670 1.369 . S
C2669 C2671 1.419 . S
C2669 H2673 0.930 . S
C2670 C2669 1.369 . S
C2670 C2679 1.429 . S
C2671 C2669 1.419 . S
C2671 C2672 1.363 . S
C2671 H2674 0.929 . S
C2672 C2671 1.363 . S
C2672 C2678 1.428 . S
H2673 C2669 0.930 . S
H2674 C2671 0.929 . S
S2675 N2676 1.613 . S
S2675 N2677 1.610 . S
N2676 S2675 1.613 . S
N2676 C2679 1.350 . S
N2677 S2675 1.610 . S
N2677 C2678 1.351 . S
C2678 C2672 1.428 . S
C2678 N2677 1.351 . S
C2678 C2679 1.434 . S
C2679 C2670 1.429 . S
C2679 N2676 1.350 . S
C2679 C2678 1.434 . S
C2680 C2681 1.369 . S
C2680 C2682 1.419 . S
C2680 H2684 0.930 . S
C2681 C2680 1.369 . S
C2681 C2690 1.429 . S
C2682 C2680 1.419 . S
C2682 C2683 1.363 . S
C2682 H2685 0.929 . S
C2683 C2682 1.363 . S
C2683 C2689 1.428 . S
H2684 C2680 0.930 . S
H2685 C2682 0.929 . S
S2686 N2687 1.613 . S
S2686 N2688 1.610 . S
N2687 S2686 1.613 . S
N2687 C2690 1.350 . S
N2688 S2686 1.610 . S
N2688 C2689 1.351 . S
C2689 C2683 1.428 . S
C2689 N2688 1.351 . S
C2689 C2690 1.434 . S
C2690 C2681 1.429 . S
C2690 N2687 1.350 . S
C2690 C2689 1.434 . S
C2691 C2692 1.369 . S
C2691 C2693 1.419 . S
C2691 H2695 0.930 . S
C2692 C2691 1.369 . S
C2692 C2701 1.429 . S
C2693 C2691 1.419 . S
C2693 C2694 1.363 . S
C2693 H2696 0.929 . S
C2694 C2693 1.363 . S
C2694 C2700 1.428 . S
H2695 C2691 0.930 . S
H2696 C2693 0.929 . S
S2697 N2698 1.613 . S
S2697 N2699 1.610 . S
N2698 S2697 1.613 . S
N2698 C2701 1.350 . S
N2699 S2697 1.610 . S
N2699 C2700 1.351 . S
C2700 C2694 1.428 . S
C2700 N2699 1.351 . S
C2700 C2701 1.434 . S
C2701 C2692 1.429 . S
C2701 N2698 1.350 . S
C2701 C2700 1.434 . S
C2702 C2703 1.369 . S
C2702 C2704 1.419 . S
C2702 H2706 0.930 . S
C2703 C2702 1.369 . S
C2703 C2712 1.429 . S
C2704 C2702 1.419 . S
C2704 C2705 1.363 . S
C2704 H2707 0.929 . S
C2705 C2704 1.363 . S
C2705 C2711 1.428 . S
H2706 C2702 0.930 . S
H2707 C2704 0.929 . S
S2708 N2709 1.613 . S
S2708 N2710 1.610 . S
N2709 S2708 1.613 . S
N2709 C2712 1.350 . S
N2710 S2708 1.610 . S
N2710 C2711 1.351 . S
C2711 C2705 1.428 . S
C2711 N2710 1.351 . S
C2711 C2712 1.434 . S
C2712 C2703 1.429 . S
C2712 N2709 1.350 . S
C2712 C2711 1.434 . S
C2713 C2714 1.369 . S
C2713 C2715 1.419 . S
C2713 H2717 0.930 . S
C2714 C2713 1.369 . S
C2714 C2723 1.429 . S
C2715 C2713 1.419 . S
C2715 C2716 1.363 . S
C2715 H2718 0.929 . S
C2716 C2715 1.363 . S
C2716 C2722 1.428 . S
H2717 C2713 0.930 . S
H2718 C2715 0.929 . S
S2719 N2720 1.613 . S
S2719 N2721 1.610 . S
N2720 S2719 1.613 . S
N2720 C2723 1.350 . S
N2721 S2719 1.610 . S
N2721 C2722 1.351 . S
C2722 C2716 1.428 . S
C2722 N2721 1.351 . S
C2722 C2723 1.434 . S
C2723 C2714 1.429 . S
C2723 N2720 1.350 . S
C2723 C2722 1.434 . S
C2724 C2725 1.369 . S
C2724 C2726 1.419 . S
C2724 H2728 0.930 . S
C2725 C2724 1.369 . S
C2725 C2734 1.429 . S
C2726 C2724 1.419 . S
C2726 C2727 1.363 . S
C2726 H2729 0.929 . S
C2727 C2726 1.363 . S
C2727 C2733 1.428 . S
H2728 C2724 0.930 . S
H2729 C2726 0.929 . S
S2730 N2731 1.613 . S
S2730 N2732 1.610 . S
N2731 S2730 1.613 . S
N2731 C2734 1.350 . S
N2732 S2730 1.610 . S
N2732 C2733 1.351 . S
C2733 C2727 1.428 . S
C2733 N2732 1.351 . S
C2733 C2734 1.434 . S
C2734 C2725 1.429 . S
C2734 N2731 1.350 . S
C2734 C2733 1.434 . S
C2735 C2736 1.369 . S
C2735 C2737 1.419 . S
C2735 H2739 0.930 . S
C2736 C2735 1.369 . S
C2736 C2745 1.429 . S
C2737 C2735 1.419 . S
C2737 C2738 1.363 . S
C2737 H2740 0.929 . S
C2738 C2737 1.363 . S
C2738 C2744 1.428 . S
H2739 C2735 0.930 . S
H2740 C2737 0.929 . S
S2741 N2742 1.613 . S
S2741 N2743 1.610 . S
N2742 S2741 1.613 . S
N2742 C2745 1.350 . S
N2743 S2741 1.610 . S
N2743 C2744 1.351 . S
C2744 C2738 1.428 . S
C2744 N2743 1.351 . S
C2744 C2745 1.434 . S
C2745 C2736 1.429 . S
C2745 N2742 1.350 . S
C2745 C2744 1.434 . S
C2746 C2747 1.369 . S
C2746 C2748 1.419 . S
C2746 H2750 0.930 . S
C2747 C2746 1.369 . S
C2747 C2756 1.429 . S
C2748 C2746 1.419 . S
C2748 C2749 1.363 . S
C2748 H2751 0.929 . S
C2749 C2748 1.363 . S
C2749 C2755 1.428 . S
H2750 C2746 0.930 . S
H2751 C2748 0.929 . S
S2752 N2753 1.613 . S
S2752 N2754 1.610 . S
N2753 S2752 1.613 . S
N2753 C2756 1.350 . S
N2754 S2752 1.610 . S
N2754 C2755 1.351 . S
C2755 C2749 1.428 . S
C2755 N2754 1.351 . S
C2755 C2756 1.434 . S
C2756 C2747 1.429 . S
C2756 N2753 1.350 . S
C2756 C2755 1.434 . S
C2757 C2758 1.369 . S
C2757 C2759 1.419 . S
C2757 H2761 0.930 . S
C2758 C2757 1.369 . S
C2758 C2767 1.429 . S
C2759 C2757 1.419 . S
C2759 C2760 1.363 . S
C2759 H2762 0.929 . S
C2760 C2759 1.363 . S
C2760 C2766 1.428 . S
H2761 C2757 0.930 . S
H2762 C2759 0.929 . S
S2763 N2764 1.613 . S
S2763 N2765 1.610 . S
N2764 S2763 1.613 . S
N2764 C2767 1.350 . S
N2765 S2763 1.610 . S
N2765 C2766 1.351 . S
C2766 C2760 1.428 . S
C2766 N2765 1.351 . S
C2766 C2767 1.434 . S
C2767 C2758 1.429 . S
C2767 N2764 1.350 . S
C2767 C2766 1.434 . S
C2768 C2769 1.369 . S
C2768 C2770 1.419 . S
C2768 H2772 0.930 . S
C2769 C2768 1.369 . S
C2769 C2778 1.429 . S
C2770 C2768 1.419 . S
C2770 C2771 1.363 . S
C2770 H2773 0.929 . S
C2771 C2770 1.363 . S
C2771 C2777 1.428 . S
H2772 C2768 0.930 . S
H2773 C2770 0.929 . S
S2774 N2775 1.613 . S
S2774 N2776 1.610 . S
N2775 S2774 1.613 . S
N2775 C2778 1.350 . S
N2776 S2774 1.610 . S
N2776 C2777 1.351 . S
C2777 C2771 1.428 . S
C2777 N2776 1.351 . S
C2777 C2778 1.434 . S
C2778 C2769 1.429 . S
C2778 N2775 1.350 . S
C2778 C2777 1.434 . S
C2779 C2780 1.369 . S
C2779 C2781 1.419 . S
C2779 H2783 0.930 . S
C2780 C2779 1.369 . S
C2780 C2789 1.429 . S
C2781 C2779 1.419 . S
C2781 C2782 1.363 . S
C2781 H2784 0.929 . S
C2782 C2781 1.363 . S
C2782 C2788 1.428 . S
H2783 C2779 0.930 . S
H2784 C2781 0.929 . S
S2785 N2786 1.613 . S
S2785 N2787 1.610 . S
N2786 S2785 1.613 . S
N2786 C2789 1.350 . S
N2787 S2785 1.610 . S
N2787 C2788 1.351 . S
C2788 C2782 1.428 . S
C2788 N2787 1.351 . S
C2788 C2789 1.434 . S
C2789 C2780 1.429 . S
C2789 N2786 1.350 . S
C2789 C2788 1.434 . S
C2790 C2791 1.369 . S
C2790 C2792 1.419 . S
C2790 H2794 0.930 . S
C2791 C2790 1.369 . S
C2791 C2800 1.429 . S
C2792 C2790 1.419 . S
C2792 C2793 1.363 . S
C2792 H2795 0.929 . S
C2793 C2792 1.363 . S
C2793 C2799 1.428 . S
H2794 C2790 0.930 . S
H2795 C2792 0.929 . S
S2796 N2797 1.613 . S
S2796 N2798 1.610 . S
N2797 S2796 1.613 . S
N2797 C2800 1.350 . S
N2798 S2796 1.610 . S
N2798 C2799 1.351 . S
C2799 C2793 1.428 . S
C2799 N2798 1.351 . S
C2799 C2800 1.434 . S
C2800 C2791 1.429 . S
C2800 N2797 1.350 . S
C2800 C2799 1.434 . S
C2801 C2802 1.369 . S
C2801 C2803 1.419 . S
C2801 H2805 0.930 . S
C2802 C2801 1.369 . S
C2802 C2811 1.429 . S
C2803 C2801 1.419 . S
C2803 C2804 1.363 . S
C2803 H2806 0.929 . S
C2804 C2803 1.363 . S
C2804 C2810 1.428 . S
H2805 C2801 0.930 . S
H2806 C2803 0.929 . S
S2807 N2808 1.613 . S
S2807 N2809 1.610 . S
N2808 S2807 1.613 . S
N2808 C2811 1.350 . S
N2809 S2807 1.610 . S
N2809 C2810 1.351 . S
C2810 C2804 1.428 . S
C2810 N2809 1.351 . S
C2810 C2811 1.434 . S
C2811 C2802 1.429 . S
C2811 N2808 1.350 . S
C2811 C2810 1.434 . S
C2812 C2813 1.369 . S
C2812 C2814 1.419 . S
C2812 H2816 0.930 . S
C2813 C2812 1.369 . S
C2813 C2822 1.429 . S
C2814 C2812 1.419 . S
C2814 C2815 1.363 . S
C2814 H2817 0.929 . S
C2815 C2814 1.363 . S
C2815 C2821 1.428 . S
H2816 C2812 0.930 . S
H2817 C2814 0.929 . S
S2818 N2819 1.613 . S
S2818 N2820 1.610 . S
N2819 S2818 1.613 . S
N2819 C2822 1.350 . S
N2820 S2818 1.610 . S
N2820 C2821 1.351 . S
C2821 C2815 1.428 . S
C2821 N2820 1.351 . S
C2821 C2822 1.434 . S
C2822 C2813 1.429 . S
C2822 N2819 1.350 . S
C2822 C2821 1.434 . S
C2823 C2824 1.369 . S
C2823 C2825 1.419 . S
C2823 H2827 0.930 . S
C2824 C2823 1.369 . S
C2824 C2833 1.429 . S
C2825 C2823 1.419 . S
C2825 C2826 1.363 . S
C2825 H2828 0.929 . S
C2826 C2825 1.363 . S
C2826 C2832 1.428 . S
H2827 C2823 0.930 . S
H2828 C2825 0.929 . S
S2829 N2830 1.613 . S
S2829 N2831 1.610 . S
N2830 S2829 1.613 . S
N2830 C2833 1.350 . S
N2831 S2829 1.610 . S
N2831 C2832 1.351 . S
C2832 C2826 1.428 . S
C2832 N2831 1.351 . S
C2832 C2833 1.434 . S
C2833 C2824 1.429 . S
C2833 N2830 1.350 . S
C2833 C2832 1.434 . S
C2834 C2835 1.369 . S
C2834 C2836 1.419 . S
C2834 H2838 0.930 . S
C2835 C2834 1.369 . S
C2835 C2844 1.429 . S
C2836 C2834 1.419 . S
C2836 C2837 1.363 . S
C2836 H2839 0.929 . S
C2837 C2836 1.363 . S
C2837 C2843 1.428 . S
H2838 C2834 0.930 . S
H2839 C2836 0.929 . S
S2840 N2841 1.613 . S
S2840 N2842 1.610 . S
N2841 S2840 1.613 . S
N2841 C2844 1.350 . S
N2842 S2840 1.610 . S
N2842 C2843 1.351 . S
C2843 C2837 1.428 . S
C2843 N2842 1.351 . S
C2843 C2844 1.434 . S
C2844 C2835 1.429 . S
C2844 N2841 1.350 . S
C2844 C2843 1.434 . S
C2845 C2846 1.369 . S
C2845 C2847 1.419 . S
C2845 H2849 0.930 . S
C2846 C2845 1.369 . S
C2846 C2855 1.429 . S
C2847 C2845 1.419 . S
C2847 C2848 1.363 . S
C2847 H2850 0.929 . S
C2848 C2847 1.363 . S
C2848 C2854 1.428 . S
H2849 C2845 0.930 . S
H2850 C2847 0.929 . S
S2851 N2852 1.613 . S
S2851 N2853 1.610 . S
N2852 S2851 1.613 . S
N2852 C2855 1.350 . S
N2853 S2851 1.610 . S
N2853 C2854 1.351 . S
C2854 C2848 1.428 . S
C2854 N2853 1.351 . S
C2854 C2855 1.434 . S
C2855 C2846 1.429 . S
C2855 N2852 1.350 . S
C2855 C2854 1.434 . S
C1803 N1260 1.474 . S
C1801 C1 1.532 . S
C1814 C1287 1.605 . S
C1812 C60 1.609 . S
C1823 C79 1.518 . S
C1825 C1301 1.511 . S
C1836 N1319 1.434 . S
C1834 C118 1.477 . S
C1845 C177 1.590 . S
C1847 C1324 1.591 . S
C1856 C196 1.519 . S
C1858 C1264 1.524 . S
C1867 C250 1.423 . S
C1869 N1283 1.381 . S
C1880 N1296 1.474 . S
C1878 C274 1.515 . S
C1891 N1342 1.423 . S
C1889 C16 1.459 . S
C1900 C55 1.559 . S
C1902 N1365 1.531 . S
C1911 C99 1.584 . S
C1913 N1388 1.576 . S
C1924 N1421 1.403 . S
C1922 C133 1.452 . S
C1933 C157 1.571 . S
C1935 C1448 1.558 . S
C1946 C1471 1.571 . S
C1944 C211 1.574 . S
C1955 C255 1.477 . S
C1957 C1494 1.480 . S
C1968 C1508 1.453 . S
C1966 C294 1.449 . S
C1977 C21 1.468 . S
C1979 C1425 1.467 . S
C1988 C172 1.509 . S
C1990 N1467 1.468 . S
C2001 N1490 1.436 . S
C1999 C216 1.480 . S
C2010 C235 1.472 . S
C2012 N1503 1.439 . S
C2023 N1444 1.428 . S
C2021 C289 1.477 . S
C2034 C1370 1.667 . S
C2032 C94 1.669 . S
C2043 C138 1.486 . S
C2045 C1393 1.481 . S
C2056 C1347 1.622 . S
C2054 C40 1.625 . S
C2067 C1540 1.486 . S
C2065 C313 1.489 . S
C2076 C372 1.611 . S
C2078 C1554 1.614 . S
C2087 C391 1.509 . S
C2089 N1582 1.463 . S
C2100 N1595 1.429 . S
C2098 C430 1.462 . S
C2109 C489 1.601 . S
C2111 C1600 1.604 . S
C2120 C508 1.518 . S
C2122 N1536 1.462 . S
C2131 C562 1.513 . S
C2133 N1549 1.486 . S
C2142 C586 1.481 . S
C2144 C1586 1.471 . S
C2155 N1434 1.429 . S
C2153 C328 1.459 . S
C2164 C367 1.532 . S
C2166 N1618 1.484 . S
C2177 N1480 1.457 . S
C2175 C411 1.480 . S
C2186 C445 1.507 . S
C2188 C1655 1.507 . S
C2197 C469 1.607 . S
C2199 C1356 1.602 . S
C2210 C1669 1.598 . S
C2208 C523 1.602 . S
C2219 C567 1.514 . S
C2221 C1402 1.504 . S
C2232 N1687 1.404 . S
C2230 C606 1.443 . S
C2241 C333 1.482 . S
C2243 N1651 1.432 . S
C2254 N1664 1.502 . S
C2252 C484 1.542 . S
C2263 C528 1.485 . S
C2265 N1398 1.437 . S
C2276 C1692 1.421 . S
C2274 C547 1.422 . S
C2285 C601 1.459 . S
C2287 N1352 1.410 . S
C2296 C406 1.574 . S
C2298 C1623 1.572 . S
C2307 C450 1.532 . S
C2309 C1485 1.525 . S
C2318 C352 1.616 . S
C2320 C1439 1.619 . S
C2329 C625 1.547 . S
C2331 C1577 1.548 . S
C2342 C1609 1.552 . S
C2340 C684 1.560 . S
C2351 C703 1.477 . S
C2353 N1526 1.446 . S
C2362 C742 1.451 . S
C2364 N1559 1.405 . S
C2373 C801 1.606 . S
C2375 C1563 1.600 . S
C2384 C820 1.559 . S
C2386 N1572 1.531 . S
C2397 N1605 1.355 . S
C2395 C874 1.400 . S
C2406 C898 1.521 . S
C2408 C1531 1.519 . S
C2419 N1720 1.440 . S
C2417 C640 1.489 . S
C2428 C679 1.493 . S
C2430 N1457 1.461 . S
C2441 N1743 1.385 . S
C2439 C723 1.448 . S
C2450 C757 1.492 . S
C2452 N1513 1.442 . S
C2461 C781 1.578 . S
C2463 C1761 1.577 . S
C2472 C835 1.663 . S
C2474 C1379 1.662 . S
C2485 N1779 1.359 . S
C2483 C879 1.406 . S
C2494 C918 1.495 . S
C2496 C1416 1.498 . S
C2507 C1517 1.510 . S
C2505 C645 1.511 . S
C2518 N1375 1.502 . S
C2516 C796 1.563 . S
C2527 C840 1.575 . S
C2529 C1784 1.572 . S
C2538 C859 1.391 . S
C2540 N1411 1.342 . S
C2551 N1756 1.487 . S
C2549 C913 1.517 . S
C2562 C1462 1.577 . S
C2560 C718 1.581 . S
C2573 C1747 1.537 . S
C2571 C762 1.537 . S
C2584 C1724 1.593 . S
C2582 C664 1.592 . S
C2593 C937 1.440 . S
C2595 N1306 1.392 . S
C2604 C996 1.578 . S
C2606 C1333 1.572 . S
C2617 C1255 1.547 . S
C2615 C1015 1.549 . S
C2628 N1273 1.376 . S
C2626 C1054 1.414 . S
C2639 C1278 1.606 . S
C2637 C1113 1.609 . S
C2650 C1310 1.556 . S
C2648 C1132 1.544 . S
C2661 N1329 1.478 . S
C2659 C1186 1.526 . S
C2670 C1210 1.544 . S
C2672 N1250 1.509 . S
C2681 C952 1.407 . S
C2683 N1766 1.358 . S
C2694 N1674 1.480 . S
C2692 C991 1.518 . S
C2705 C1793 1.603 . S
C2703 C1035 1.600 . S
C2716 C1701 1.373 . S
C2714 C1069 1.376 . S
C2725 C1093 1.601 . S
C2727 C1715 1.596 . S
C2738 C1632 1.581 . S
C2736 C1147 1.589 . S
C2749 C1738 1.605 . S
C2747 C1191 1.606 . S
C2758 C1230 1.493 . S
C2760 N1641 1.445 . S
C2771 N1697 1.359 . S
C2769 C957 1.409 . S
C2782 N1628 1.471 . S
C2780 C1108 1.510 . S
C2793 N1733 1.403 . S
C2791 C1152 1.429 . S
C2802 C1171 1.498 . S
C2804 C1646 1.495 . S
C2813 C1225 1.464 . S
C2815 N1710 1.433 . S
C2824 C1030 1.673 . S
C2826 C1678 1.667 . S
C2835 C1074 1.412 . S
C2837 N1789 1.372 . S
C2848 C1770 1.566 . S
C2846 C976 1.572 . S
