# Generated by pormake.
# Topology pth, (4,4)-cn, num edge types: 1
# Building blocks:
#     Node 0, Type 0, BuildingBlock: AZAVOO_clean_sbu_0, # of connection points: 4
#     Node 1, Type 0, BuildingBlock: AZAVOO_clean_sbu_0, # of connection points: 4
#     Node 2, Type 0, BuildingBlock: AZAVOO_clean_sbu_0, # of connection points: 4
#     Node 3, Type 1, BuildingBlock: NAHDIM_clean_linker_0, # of connection points: 4
#     Node 4, Type 1, BuildingBlock: NAHDIM_clean_linker_0, # of connection points: 4
#     Node 5, Type 1, BuildingBlock: NAHDIM_clean_linker_0, # of connection points: 4
#     Edge 6, Type (0, 1), BuildingBlock: MIFKUJ_clean_linker_0, # of connection points: 2
#     Edge 7, Type (0, 1), BuildingBlock: MIFKUJ_clean_linker_0, # of connection points: 2
#     Edge 8, Type (0, 1), BuildingBlock: MIFKUJ_clean_linker_0, # of connection points: 2
#     Edge 9, Type (0, 1), BuildingBlock: MIFKUJ_clean_linker_0, # of connection points: 2
#     Edge 10, Type (0, 1), BuildingBlock: MIFKUJ_clean_linker_0, # of connection points: 2
#     Edge 11, Type (0, 1), BuildingBlock: MIFKUJ_clean_linker_0, # of connection points: 2
#     Edge 12, Type (0, 1), BuildingBlock: MIFKUJ_clean_linker_0, # of connection points: 2
#     Edge 13, Type (0, 1), BuildingBlock: MIFKUJ_clean_linker_0, # of connection points: 2
#     Edge 14, Type (0, 1), BuildingBlock: MIFKUJ_clean_linker_0, # of connection points: 2
#     Edge 15, Type (0, 1), BuildingBlock: MIFKUJ_clean_linker_0, # of connection points: 2
#     Edge 16, Type (0, 1), BuildingBlock: MIFKUJ_clean_linker_0, # of connection points: 2
#     Edge 17, Type (0, 1), BuildingBlock: MIFKUJ_clean_linker_0, # of connection points: 2
# Relax obj value: 0.085
# Max RMSD: 0.220
# Mean RMSD: 0.131
data_MOF--net-pth--node1-AZAVOO_clean_sbu_0--node2-NAHDIM_clean_linker_0--edge1-MIFKUJ_clean_linker_0
_symmetry_space_group_name_H-M    P1
_symmetry_Int_Tables_number       1
_symmetry_cell_setting            triclinic
loop_
_symmetry_equiv_pos_as_xyz
'x, y, z'
_cell_length_a     38.195308
_cell_length_b     38.898683
_cell_length_c     96.338346
_cell_angle_alpha  90.531811
_cell_angle_beta   92.936452
_cell_angle_gamma 121.81415
loop_
_atom_site_label
_atom_site_type_symbol
_atom_site_fract_x
_atom_site_fract_y
_atom_site_fract_z
_atom_type_partial_charge
Mg0 Mg 0.12298 0.10285 0.0666 0.0
O1 O 0.06804 0.06658 0.0508 0.0
O2 O 0.05854 0.10884 0.03801 0.0
Mg3 Mg 0.10754 0.17317 0.04613 0.0
C4 C 0.04852 0.07306 0.04108 0.0
C5 C 0.12709 0.04498 0.08764 0.0
O6 O 0.1616 0.07903 0.09143 0.0
O7 O 0.08436 0.11715 0.08011 0.0
O8 O 0.07801 0.16119 0.0671 0.0
O9 O 0.16598 0.10781 0.05052 0.0
O10 O 0.14797 0.15246 0.05428 0.0
C11 C 0.07141 0.14117 0.07813 0.0
C12 C 0.168 0.14101 0.04726 0.0
O13 O 0.10404 0.04477 0.07762 0.0
Mg14 Mg 0.96969 0.03975 0.39231 0.0
O15 O 0.02586 0.05715 0.40715 0.0
O16 O 0.03731 0.10804 0.42153 0.0
Mg17 Mg 0.98837 0.12344 0.41577 0.0
C18 C 0.04648 0.08279 0.41721 0.0
C19 C 0.99592 0.97922 0.38321 0.0
O20 O 0.99889 0.97651 0.39676 0.0
O21 O 0.00893 0.09611 0.38035 0.0
O22 O 0.01541 0.14533 0.39448 0.0
O23 O 0.92603 0.99621 0.40727 0.0
O24 O 0.94781 0.06136 0.40707 0.0
C25 C 0.02155 0.13323 0.38299 0.0
C26 C 0.92704 0.02717 0.41283 0.0
O27 O 0.98499 0.00265 0.37833 0.0
Mg28 Mg -0.0 0.01386 0.7198 0.0
O29 O 0.03534 0.07078 0.73424 0.0
O30 O 0.98901 0.0733 0.74676 0.0
Mg31 Mg 0.92487 0.01794 0.74075 0.0
C32 C 0.02614 0.08791 0.7435 0.0
C33 C 0.0911 0.04653 0.71225 0.0
O34 O 0.09666 0.04724 0.72584 0.0
O35 O 0.97468 0.04414 0.70583 0.0
O36 O 0.92622 0.04087 0.71882 0.0
O37 O 0.0072 0.97776 0.73649 0.0
O38 O 0.95447 0.98613 0.73382 0.0
C39 C 0.9449 0.04947 0.70755 0.0
C40 C 0.97313 0.97197 0.74093 0.0
O41 O 0.05553 0.03565 0.70683 0.0
C42 C 0.92407 0.62375 0.30652 0.0
C43 C 0.96663 0.65599 0.302 0.0
C44 C 0.98338 0.64283 0.27953 0.0
C45 C 0.02603 0.65933 0.281 0.0
C46 C 0.04456 0.64374 0.27296 0.0
C47 C 0.0196 0.61045 0.26348 0.0
C48 C 0.97643 0.59406 0.26192 0.0
C49 C 0.95906 0.61124 0.26976 0.0
C50 C 0.09064 0.66234 0.27478 0.0
C51 C 0.94833 0.5577 0.25232 0.0
C52 C 0.04437 0.35739 0.29723 0.0
C53 C 0.03456 0.38158 0.28783 0.0
C54 C 0.06378 0.4504 0.2801 0.0
C55 C 0.02998 0.44055 0.27074 0.0
C56 C 0.02846 0.47054 0.26331 0.0
C57 C 0.06194 0.51118 0.26496 0.0
C58 C 0.09628 0.52123 0.2742 0.0
C59 C 0.09667 0.49062 0.2817 0.0
C60 C 0.99089 0.45865 0.25371 0.0
C61 C 0.13251 0.56423 0.27611 0.0
C62 C 0.10149 0.46324 0.18236 0.0
C63 C 0.06073 0.45025 0.18513 0.0
C64 C 0.05044 0.47803 0.18961 0.0
C65 C 0.08163 0.5196 0.19134 0.0
C66 C 0.12208 0.53307 0.18758 0.0
C67 C 0.1314 0.5046 0.18299 0.0
C68 C 0.00665 0.46269 0.19313 0.0
C69 C 0.15585 0.5772 0.18913 0.0
C70 C 0.94494 0.70704 0.18073 0.0
C71 C 0.98488 0.71075 0.17656 0.0
C72 C 0.99569 0.65443 0.17651 0.0
C73 C 0.97236 0.61255 0.17771 0.0
C74 C 0.9898 0.59215 0.184 0.0
C75 C 0.03197 0.61428 0.18883 0.0
C76 C 0.05658 0.6562 0.18656 0.0
C77 C 0.03809 0.67596 0.18048 0.0
C78 C 0.96274 0.54726 0.186 0.0
C79 C 0.10194 0.68037 0.19111 0.0
C80 C 0.03807 0.59089 0.25599 0.0
C81 C 0.04653 0.56519 0.26347 0.0
C82 C 0.0605 0.54284 0.25696 0.0
C83 C 0.06724 0.54675 0.24263 0.0
C84 C 0.08205 0.52524 0.23585 0.0
C85 C 0.08513 0.52645 0.22154 0.0
C86 C 0.07335 0.54909 0.21344 0.0
C87 C 0.07302 0.54772 0.19876 0.0
C88 C 0.06101 0.57044 0.191 0.0
C89 C 0.04882 0.59438 0.19756 0.0
C90 C 0.0489 0.59605 0.21226 0.0
C91 C 0.03652 0.61954 0.21922 0.0
C92 C 0.03447 0.61915 0.2336 0.0
C93 C 0.04362 0.59443 0.24155 0.0
C94 C 0.05775 0.57183 0.23483 0.0
C95 C 0.0606 0.57282 0.22018 0.0
C96 C 0.13727 0.40909 0.19603 0.0
C97 C 0.1011 0.40109 0.18593 0.0
O98 O 0.96505 0.65663 0.28761 0.0
O99 O 0.9762 0.67319 0.17176 0.0
O100 O 0.11288 0.43661 0.17914 0.0
O101 O 0.06556 0.42213 0.28777 0.0
H102 H 0.98904 0.64758 0.3059 0.0
H103 H 0.91503 0.59368 0.3019 0.0
H104 H 0.90049 0.63084 0.30298 0.0
H105 H 0.92462 0.62196 0.31803 0.0
H106 H 0.04465 0.6843 0.28848 0.0
H107 H 0.92611 0.59897 0.26873 0.0
H108 H 0.09719 0.64122 0.28031 0.0
H109 H 0.10628 0.69163 0.28089 0.0
H110 H 0.10403 0.66735 0.26449 0.0
H111 H 0.91525 0.54446 0.25422 0.0
H112 H 0.95582 0.53388 0.25359 0.0
H113 H 0.95276 0.56683 0.24136 0.0
H114 H 0.00338 0.37684 0.28895 0.0
H115 H 0.02154 0.34743 0.30551 0.0
H116 H 0.07161 0.37993 0.30427 0.0
H117 H 0.04661 0.31641 0.28364 0.0
H118 H 0.00449 0.40952 0.26918 0.0
H119 H 0.12268 0.49797 0.28889 0.0
H120 H 0.99934 0.4615 0.24275 0.0
H121 H 0.97948 0.47917 0.25561 0.0
H122 H 0.96534 0.42699 0.25503 0.0
H123 H 0.15803 0.56669 0.283 0.0
H124 H 0.12229 0.58355 0.2807 0.0
H125 H 0.14442 0.57629 0.26585 0.0
H126 H 0.07442 0.39231 0.19232 0.0
H127 H 0.03703 0.41838 0.18395 0.0
H128 H 0.16259 0.51435 0.18051 0.0
H129 H 0.00549 0.46454 0.20459 0.0
H130 H 0.98501 0.43076 0.18939 0.0
H131 H 0.99594 0.48185 0.18849 0.0
H132 H 0.18514 0.58312 0.18504 0.0
H133 H 0.16174 0.58715 0.2003 0.0
H134 H 0.14591 0.59579 0.18354 0.0
H135 H 0.0059 0.7211 0.18619 0.0
H136 H 0.95112 0.73698 0.18447 0.0
H137 H 0.93209 0.68568 0.18928 0.0
H138 H 0.92144 0.69543 0.1718 0.0
H139 H 0.93985 0.59617 0.17432 0.0
H140 H 0.05659 0.70824 0.17902 0.0
H141 H 0.96332 0.54098 0.1972 0.0
H142 H 0.97492 0.5311 0.18038 0.0
H143 H 0.93021 0.53479 0.1821 0.0
H144 H 0.11795 0.71105 0.18682 0.0
H145 H 0.11709 0.66419 0.18777 0.0
H146 H 0.10567 0.68372 0.20264 0.0
H147 H 0.04038 0.56115 0.27441 0.0
H148 H 0.09082 0.50672 0.24152 0.0
H149 H 0.09617 0.50875 0.21689 0.0
H150 H 0.0598 0.56843 0.17972 0.0
H151 H 0.02782 0.63821 0.21363 0.0
H152 H 0.0246 0.63769 0.23838 0.0
H153 H 0.16384 0.41392 0.19024 0.0
H154 H 0.12767 0.38358 0.20307 0.0
H155 H 0.14752 0.43671 0.20267 0.0
C156 C 0.3741 0.97892 0.63726 0.0
C157 C 0.38363 0.02065 0.633 0.0
C158 C 0.41092 0.03762 0.61045 0.0
C159 C 0.4323 0.07922 0.60848 0.0
C160 C 0.46616 0.09722 0.60014 0.0
C161 C 0.47891 0.07288 0.59385 0.0
C162 C 0.45706 0.03065 0.59585 0.0
C163 C 0.42282 0.01343 0.60401 0.0
C164 C 0.48843 0.1422 0.59814 0.0
C165 C 0.47018 0.00381 0.58957 0.0
C166 C 0.7626 0.24565 0.64278 0.0
C167 C 0.74163 0.206 0.63401 0.0
C168 C 0.70456 0.19285 0.61153 0.0
C169 C 0.68134 0.15041 0.61097 0.0
C170 C 0.6449 0.12887 0.60233 0.0
C171 C 0.63098 0.15037 0.59438 0.0
C172 C 0.6546 0.1933 0.59493 0.0
C173 C 0.69172 0.21393 0.60325 0.0
C174 C 0.62116 0.08318 0.6018 0.0
C175 C 0.64031 0.2175 0.587 0.0
C176 C 0.69362 0.15373 0.50718 0.0
C177 C 0.674 0.1161 0.51337 0.0
C178 C 0.63595 0.10116 0.51921 0.0
C179 C 0.61794 0.12503 0.51923 0.0
C180 C 0.63701 0.16231 0.51252 0.0
C181 C 0.67436 0.17581 0.50634 0.0
C182 C 0.61554 0.06033 0.52566 0.0
C183 C 0.61868 0.18848 0.51228 0.0
C184 C 0.28465 0.96977 0.50668 0.0
C185 C 0.31728 0.01261 0.50282 0.0
C186 C 0.38848 0.02991 0.50395 0.0
C187 C 0.40756 0.00772 0.50522 0.0
C188 C 0.44621 0.02418 0.5125 0.0
C189 C 0.46664 0.0643 0.51823 0.0
C190 C 0.44844 0.08772 0.51621 0.0
C191 C 0.40927 0.07008 0.5092 0.0
C192 C 0.46471 0.99838 0.51435 0.0
C193 C 0.47009 0.13118 0.5216 0.0
C194 C 0.516 0.09169 0.58563 0.0
C195 C 0.55469 0.1115 0.5929 0.0
C196 C 0.59102 0.12813 0.58593 0.0
C197 C 0.58879 0.12418 0.57125 0.0
C198 C 0.62455 0.13878 0.56393 0.0
C199 C 0.62209 0.13525 0.54949 0.0
C200 C 0.58372 0.11662 0.5418 0.0
C201 C 0.58089 0.11231 0.52711 0.0
C202 C 0.54247 0.09522 0.51975 0.0
C203 C 0.50637 0.08135 0.52668 0.0
C204 C 0.5084 0.08377 0.54141 0.0
C205 C 0.47255 0.06846 0.54877 0.0
C206 C 0.47493 0.07116 0.56324 0.0
C207 C 0.51323 0.08919 0.57092 0.0
C208 C 0.54977 0.10511 0.56372 0.0
C209 C 0.54729 0.10186 0.54896 0.0
C210 C 0.80123 0.21165 0.5091 0.0
C211 C 0.76395 0.168 0.50785 0.0
O212 O 0.37875 0.02067 0.61865 0.0
O213 O 0.35006 0.01193 0.49757 0.0
O214 O 0.73095 0.16934 0.50181 0.0
O215 O 0.73901 0.21418 0.62017 0.0
H216 H 0.4162 0.04345 0.63669 0.0
H217 H 0.39569 0.97192 0.63254 0.0
H218 H 0.34197 0.95512 0.63367 0.0
H219 H 0.37799 0.97836 0.64875 0.0
H220 H 0.42245 0.09745 0.61352 0.0
H221 H 0.4057 0.98118 0.60561 0.0
H222 H 0.51961 0.15722 0.6036 0.0
H223 H 0.47166 0.15587 0.60229 0.0
H224 H 0.49254 0.14842 0.58693 0.0
H225 H 0.4529 0.97264 0.59344 0.0
H226 H 0.50373 0.01691 0.59197 0.0
H227 H 0.46474 0.00189 0.57809 0.0
H228 H 0.71001 0.18678 0.63776 0.0
H229 H 0.76484 0.23976 0.65396 0.0
H230 H 0.74414 0.26006 0.6416 0.0
H231 H 0.79409 0.26709 0.63942 0.0
H232 H 0.69182 0.13417 0.61724 0.0
H233 H 0.71006 0.24674 0.60377 0.0
H234 H 0.61223 0.07117 0.59085 0.0
H235 H 0.59237 0.07161 0.60727 0.0
H236 H 0.63927 0.07126 0.60682 0.0
H237 H 0.6585 0.25009 0.59034 0.0
H238 H 0.60718 0.20546 0.58843 0.0
H239 H 0.64367 0.21499 0.57573 0.0
H240 H 0.75773 0.15681 0.5186 0.0
H241 H 0.68835 0.09838 0.51359 0.0
H242 H 0.68957 0.20452 0.50131 0.0
H243 H 0.61964 0.06461 0.53716 0.0
H244 H 0.62903 0.04246 0.52244 0.0
H245 H 0.58186 0.04266 0.52272 0.0
H246 H 0.6387 0.21779 0.50739 0.0
H247 H 0.6137 0.19466 0.52304 0.0
H248 H 0.58813 0.17218 0.50638 0.0
H249 H 0.32749 0.03215 0.51254 0.0
H250 H 0.25822 0.96953 0.51111 0.0
H251 H 0.29827 0.95886 0.51462 0.0
H252 H 0.27313 0.94863 0.49739 0.0
H253 H 0.39137 0.97691 0.50091 0.0
H254 H 0.39491 0.08762 0.50776 0.0
H255 H 0.47276 0.99775 0.52555 0.0
H256 H 0.49367 0.01177 0.50886 0.0
H257 H 0.44343 0.96678 0.51022 0.0
H258 H 0.45488 0.14693 0.51737 0.0
H259 H 0.50281 0.148 0.51887 0.0
H260 H 0.46998 0.13209 0.53311 0.0
H261 H 0.55656 0.11398 0.60418 0.0
H262 H 0.65489 0.15308 0.56928 0.0
H263 H 0.65076 0.14741 0.54445 0.0
H264 H 0.54064 0.09257 0.50848 0.0
H265 H 0.44219 0.05407 0.54343 0.0
H266 H 0.44634 0.05898 0.56834 0.0
H267 H 0.81226 0.22284 0.49867 0.0
H268 H 0.82689 0.21404 0.51586 0.0
H269 H 0.7923 0.23174 0.51395 0.0
C270 C 0.7086 0.62385 0.81084 0.0
C271 C 0.70629 0.6546 0.82013 0.0
C272 C 0.67643 0.63277 0.84238 0.0
C273 C 0.65405 0.65194 0.84301 0.0
C274 C 0.61985 0.63674 0.85114 0.0
C275 C 0.60776 0.60151 0.85868 0.0
C276 C 0.63122 0.58298 0.8584 0.0
C277 C 0.6658 0.59939 0.85042 0.0
C278 C 0.59619 0.65784 0.85147 0.0
C279 C 0.61906 0.54515 0.86619 0.0
C280 C 0.2755 0.41574 0.84731 0.0
C281 C 0.30662 0.40773 0.84099 0.0
C282 C 0.3771 0.46585 0.84191 0.0
C283 C 0.39874 0.44797 0.84688 0.0
C284 C 0.43793 0.47156 0.85384 0.0
C285 C 0.45565 0.51379 0.85584 0.0
C286 C 0.43479 0.53211 0.85016 0.0
C287 C 0.39585 0.50784 0.84311 0.0
C288 C 0.45991 0.45126 0.85941 0.0
C289 C 0.45303 0.57712 0.85197 0.0
C290 C 0.37506 0.47382 0.93847 0.0
C291 C 0.39978 0.45778 0.93614 0.0
C292 C 0.44045 0.48285 0.9323 0.0
C293 C 0.45641 0.5246 0.93065 0.0
C294 C 0.4326 0.54125 0.93404 0.0
C295 C 0.39225 0.51557 0.93807 0.0
C296 C 0.46558 0.46435 0.92928 0.0
C297 C 0.44889 0.58571 0.93261 0.0
C298 C 0.77799 0.73727 0.93971 0.0
C299 C 0.7502 0.74494 0.94844 0.0
C300 C 0.68306 0.68237 0.94775 0.0
C301 C 0.66976 0.64134 0.94683 0.0
C302 C 0.63211 0.61309 0.93964 0.0
C303 C 0.60701 0.62633 0.93351 0.0
C304 C 0.61928 0.66748 0.93512 0.0
C305 C 0.65721 0.6951 0.94225 0.0
C306 C 0.61971 0.56937 0.93823 0.0
C307 C 0.59265 0.68238 0.92907 0.0
C308 C 0.56929 0.58265 0.86617 0.0
C309 C 0.53183 0.55856 0.85834 0.0
C310 C 0.49445 0.53834 0.86472 0.0
C311 C 0.49425 0.54148 0.87934 0.0
C312 C 0.45724 0.52074 0.8861 0.0
C313 C 0.45738 0.52325 0.9005 0.0
C314 C 0.4945 0.54701 0.90872 0.0
C315 C 0.49493 0.5492 0.92339 0.0
C316 C 0.53201 0.57471 0.93123 0.0
C317 C 0.56907 0.5978 0.92476 0.0
C318 C 0.5695 0.59453 0.91012 0.0
C319 C 0.60643 0.61608 0.90331 0.0
C320 C 0.60649 0.61239 0.88892 0.0
C321 C 0.5696 0.58722 0.88077 0.0
C322 C 0.53196 0.566 0.88739 0.0
C323 C 0.532 0.56918 0.90209 0.0
C324 C 0.26695 0.40505 0.93066 0.0
C325 C 0.30802 0.41029 0.93591 0.0
O326 O 0.70794 0.64546 0.83393 0.0
O327 O 0.72082 0.70899 0.95402 0.0
O328 O 0.33446 0.44998 0.94085 0.0
O329 O 0.33814 0.44341 0.83594 0.0
H330 H 0.67622 0.65167 0.81712 0.0
H331 H 0.68189 0.59293 0.81238 0.0
H332 H 0.73748 0.6242 0.81342 0.0
H333 H 0.70748 0.63071 0.79971 0.0
H334 H 0.66325 0.67865 0.8371 0.0
H335 H 0.68369 0.58519 0.84995 0.0
H336 H 0.56564 0.63863 0.84574 0.0
H337 H 0.6127 0.68774 0.84663 0.0
H338 H 0.59064 0.66226 0.86237 0.0
H339 H 0.63866 0.53272 0.86401 0.0
H340 H 0.5863 0.52153 0.86332 0.0
H341 H 0.62186 0.55199 0.87754 0.0
H342 H 0.3186 0.39679 0.84952 0.0
H343 H 0.24976 0.3874 0.85132 0.0
H344 H 0.26267 0.42767 0.83946 0.0
H345 H 0.29096 0.43844 0.85612 0.0
H346 H 0.38496 0.41561 0.84538 0.0
H347 H 0.37912 0.52136 0.83899 0.0
H348 H 0.46177 0.45308 0.87095 0.0
H349 H 0.49199 0.46725 0.85606 0.0
H350 H 0.44387 0.4189 0.85586 0.0
H351 H 0.43312 0.58677 0.84678 0.0
H352 H 0.48382 0.59373 0.84759 0.0
H353 H 0.45754 0.58589 0.86322 0.0
H354 H 0.32067 0.40357 0.92681 0.0
H355 H 0.38716 0.42566 0.93704 0.0
H356 H 0.37314 0.5277 0.9402 0.0
H357 H 0.46714 0.46216 0.91786 0.0
H358 H 0.45187 0.43352 0.93336 0.0
H359 H 0.49766 0.48382 0.93392 0.0
H360 H 0.42708 0.59419 0.93613 0.0
H361 H 0.45466 0.59351 0.92156 0.0
H362 H 0.47879 0.60407 0.9388 0.0
H363 H 0.73524 0.75665 0.94137 0.0
H364 H 0.80198 0.76588 0.93527 0.0
H365 H 0.75922 0.71522 0.93098 0.0
H366 H 0.79333 0.72469 0.94613 0.0
H367 H 0.68967 0.63176 0.95135 0.0
H368 H 0.66661 0.72657 0.94352 0.0
H369 H 0.61673 0.56037 0.92705 0.0
H370 H 0.58907 0.54972 0.94247 0.0
H371 H 0.64242 0.5638 0.94374 0.0
H372 H 0.60499 0.71457 0.93214 0.0
H373 H 0.5608 0.66355 0.93252 0.0
H374 H 0.59069 0.67931 0.91754 0.0
H375 H 0.53177 0.55534 0.84714 0.0
H376 H 0.42769 0.50201 0.88037 0.0
H377 H 0.42787 0.50637 0.90506 0.0
H378 H 0.53197 0.57687 0.94247 0.0
H379 H 0.63579 0.6358 0.90903 0.0
H380 H 0.63582 0.62955 0.88424 0.0
H381 H 0.25258 0.41164 0.93921 0.0
H382 H 0.24529 0.37362 0.92643 0.0
H383 H 0.27218 0.42619 0.92222 0.0
H384 H 0.08001 0.1323 0.10602 0.0
H385 H 0.06645 0.16537 0.12482 0.0
H386 H 0.00916 0.20606 0.09504 0.0
H387 H 0.02352 0.17391 0.07617 0.0
H388 H 0.06955 0.2676 0.10928 0.0
H389 H 0.95468 0.14173 0.12112 0.0
H390 H 0.91564 0.06955 0.12656 0.0
H391 H 0.99751 0.09498 0.16269 0.0
H392 H 0.03745 0.16727 0.15736 0.0
H393 H 0.05201 0.38424 0.16215 0.0
H394 H 0.02999 0.33039 0.14433 0.0
H395 H 0.09434 0.28435 0.16797 0.0
H396 H 0.11601 0.33721 0.18585 0.0
H397 H 0.01986 0.22305 0.1562 0.0
H398 H 0.13982 0.34641 0.14177 0.0
H399 H 0.17888 0.41854 0.13619 0.0
H400 H 0.08527 0.39617 0.10444 0.0
H401 H 0.04538 0.32396 0.10998 0.0
C402 C 0.0633 0.14713 0.10351 0.0
C403 C 0.05345 0.15108 0.0896 0.0
C404 C 0.05544 0.16598 0.1143 0.0
C405 C 0.037 0.18847 0.11135 0.0
C406 C 0.02372 0.18918 0.09756 0.0
C407 C 0.03193 0.17074 0.08678 0.0
C408 C 0.03763 0.21623 0.12218 0.0
C409 C 0.05765 0.25756 0.11942 0.0
C410 C 0.0231 0.20344 0.13553 0.0
C411 C 0.99927 0.15994 0.13877 0.0
C412 C 0.9646 0.13191 0.13016 0.0
C413 C 0.94226 0.09097 0.13324 0.0
C414 C 0.95414 0.07767 0.14495 0.0
C415 C 0.98836 0.10532 0.15362 0.0
C416 C 0.01083 0.1463 0.15058 0.0
C417 C 0.06173 0.36282 0.16354 0.0
C418 C 0.08745 0.36659 0.17521 0.0
C419 C 0.04887 0.33191 0.15338 0.0
C420 C 0.06118 0.30384 0.15472 0.0
C421 C 0.08475 0.30591 0.16669 0.0
C422 C 0.09759 0.33675 0.17687 0.0
C423 C 0.05204 0.27405 0.14325 0.0
C424 C 0.03079 0.23263 0.14594 0.0
C425 C 0.06533 0.2866 0.12978 0.0
C426 C 0.08941 0.32993 0.1264 0.0
C427 C 0.12743 0.35695 0.13367 0.0
C428 C 0.14973 0.39783 0.13051 0.0
C429 C 0.1345 0.41195 0.12 0.0
C430 C 0.09699 0.3852 0.1126 0.0
C431 C 0.07453 0.3443 0.11575 0.0
H432 H 0.15182 0.44361 0.11756 0.0
H433 H 0.93679 0.04596 0.14731 0.0
H434 H 0.95725 0.076 0.43615 0.0
H435 H 0.91727 0.07939 0.45461 0.0
H436 H 0.80635 0.97653 0.43531 0.0
H437 H 0.84671 0.97221 0.41701 0.0
H438 H 0.81274 0.0578 0.43896 0.0
H439 H 0.82274 0.95755 0.46377 0.0
H440 H 0.85827 0.92539 0.47412 0.0
H441 H 0.93367 0.03028 0.50129 0.0
H442 H 0.89903 0.06337 0.49096 0.0
H443 H 0.71351 0.1091 0.4872 0.0
H444 H 0.72883 0.06643 0.47346 0.0
H445 H 0.84832 0.1202 0.49562 0.0
H446 H 0.83191 0.16035 0.5102 0.0
H447 H 0.82354 0.047 0.49007 0.0
H448 H 0.8292 0.15306 0.46237 0.0
H449 H 0.80137 0.19167 0.45146 0.0
H450 H 0.70571 0.08374 0.42917 0.0
H451 H 0.73275 0.04442 0.44008 0.0
C452 C 0.92455 0.05348 0.43608 0.0
C453 C 0.90485 0.02397 0.42522 0.0
C454 C 0.90183 0.05529 0.44663 0.0
C455 C 0.85898 0.02816 0.44628 0.0
C456 C 0.83948 0.99745 0.43578 0.0
C457 C 0.86248 0.99497 0.4254 0.0
C458 C 0.83456 0.0362 0.45569 0.0
C459 C 0.81399 0.05444 0.45011 0.0
C460 C 0.83754 0.03285 0.47022 0.0
C461 C 0.85842 0.01305 0.47651 0.0
C462 C 0.84714 0.97392 0.47187 0.0
C463 C 0.86707 0.95548 0.47775 0.0
C464 C 0.89825 0.9758 0.48834 0.0
C465 C 0.90951 0.01458 0.49309 0.0
C466 C 0.88968 0.03316 0.48723 0.0
C467 C 0.74311 0.11202 0.48921 0.0
C468 C 0.77246 0.1402 0.49937 0.0
C469 C 0.75182 0.08746 0.48129 0.0
C470 C 0.79038 0.09111 0.4831 0.0
C471 C 0.81857 0.11718 0.49382 0.0
C472 C 0.80941 0.14084 0.50201 0.0
C473 C 0.8027 0.06994 0.47339 0.0
C474 C 0.82118 0.04943 0.47889 0.0
C475 C 0.79882 0.07213 0.45876 0.0
C476 C 0.78265 0.09574 0.45216 0.0
C477 C 0.80208 0.13754 0.45521 0.0
C478 C 0.78647 0.15955 0.44902 0.0
C479 C 0.75171 0.14014 0.43966 0.0
C480 C 0.73257 0.09871 0.43644 0.0
C481 C 0.74802 0.07655 0.44262 0.0
H482 H 0.73967 0.15722 0.43489 0.0
H483 H 0.91365 0.96148 0.49288 0.0
H484 H 0.01027 0.94977 0.76103 0.0
H485 H 0.97815 0.908 0.78095 0.0
H486 H 0.86427 0.90147 0.76895 0.0
H487 H 0.89635 0.94394 0.7495 0.0
H488 H 0.87425 0.90592 0.79605 0.0
H489 H 0.88642 0.82692 0.75871 0.0
H490 H 0.92587 0.81149 0.743 0.0
H491 H 0.99352 0.80194 0.77819 0.0
H492 H 0.95471 0.81773 0.79409 0.0
H493 H 0.70275 0.71337 0.80592 0.0
H494 H 0.76008 0.77834 0.7991 0.0
H495 H 0.8464 0.75604 0.82155 0.0
H496 H 0.7888 0.69059 0.82835 0.0
H497 H 0.86571 0.77419 0.79531 0.0
H498 H 0.83624 0.834 0.83229 0.0
H499 H 0.79352 0.84677 0.84727 0.0
H500 H 0.75545 0.89063 0.81256 0.0
H501 H 0.79741 0.87755 0.7973 0.0
C502 C 0.97857 0.93981 0.76279 0.0
C503 C 0.95573 0.94983 0.75364 0.0
C504 C 0.96023 0.91593 0.77415 0.0
C505 C 0.91856 0.90105 0.77633 0.0
C506 C 0.89646 0.91263 0.76753 0.0
C507 C 0.91485 0.93683 0.75635 0.0
C508 C 0.89629 0.87066 0.78689 0.0
C509 C 0.8724 0.87711 0.79593 0.0
C510 C 0.89496 0.8336 0.78711 0.0
C511 C 0.9181 0.82398 0.77755 0.0
C512 C 0.90989 0.82176 0.76307 0.0
C513 C 0.9321 0.81292 0.75414 0.0
C514 C 0.96228 0.80588 0.75959 0.0
C515 C 0.97021 0.80751 0.77398 0.0
C516 C 0.94813 0.81639 0.78296 0.0
C517 C 0.73388 0.72275 0.80967 0.0
C518 C 0.74136 0.69706 0.8177 0.0
C519 C 0.76663 0.75999 0.80584 0.0
C520 C 0.80754 0.77229 0.80996 0.0
C521 C 0.81506 0.74726 0.81836 0.0
C522 C 0.78222 0.70999 0.82224 0.0
C523 C 0.84206 0.80866 0.80398 0.0
C524 C 0.86836 0.80337 0.7958 0.0
C525 C 0.84521 0.84656 0.80448 0.0
C526 C 0.81993 0.85463 0.81362 0.0
C527 C 0.81855 0.84611 0.82782 0.0
C528 C 0.79449 0.85345 0.83637 0.0
C529 C 0.77176 0.86947 0.83087 0.0
C530 C 0.7731 0.87824 0.81681 0.0
C531 C 0.79709 0.87094 0.80821 0.0
H532 H 0.75315 0.87512 0.83751 0.0
H533 H 0.97944 0.79904 0.75266 0.0
H534 H 0.16639 0.03632 0.11062 0.0
H535 H 0.14432 0.97522 0.12354 0.0
H536 H 0.03822 0.90786 0.09451 0.0
H537 H 0.05963 0.96908 0.08167 0.0
H538 H 0.01584 0.89262 0.12014 0.0
H539 H 0.12019 0.89404 0.09475 0.0
H540 H 0.18888 0.92243 0.08562 0.0
H541 H 0.24372 0.94208 0.12723 0.0
H542 H 0.1754 0.91433 0.13664 0.0
H543 H 0.95677 0.70436 0.14924 0.0
H544 H 0.98363 0.75708 0.13207 0.0
H545 H 0.08256 0.83856 0.16176 0.0
H546 H 0.05566 0.78609 0.17899 0.0
H547 H 0.10731 0.84224 0.13408 0.0
H548 H 0.00197 0.84536 0.159 0.0
H549 H 0.93241 0.81479 0.16765 0.0
H550 H 0.87869 0.78439 0.1257 0.0
H551 H 0.94796 0.81422 0.11682 0.0
C552 C 0.13849 0.00847 0.10692 0.0
C553 C 0.11472 0.00759 0.09513 0.0
C554 C 0.12605 0.97347 0.11427 0.0
C555 C 0.08986 0.93683 0.1099 0.0
C556 C 0.06628 0.93578 0.09805 0.0
C557 C 0.0786 0.97081 0.09073 0.0
C558 C 0.07547 0.9002 0.11813 0.0
C559 C 0.03563 0.88119 0.12295 0.0
C560 C 0.10148 0.88562 0.122 0.0
C561 C 0.14268 0.90243 0.11641 0.0
C562 C 0.14693 0.90474 0.10197 0.0
C563 C 0.1858 0.92065 0.09674 0.0
C564 C 0.22065 0.93414 0.10584 0.0
C565 C 0.21669 0.93166 0.1202 0.0
C566 C 0.17789 0.9158 0.12548 0.0
C567 C 0.98455 0.73337 0.15201 0.0
C568 C 0.00404 0.74132 0.16545 0.0
C569 C -0.00017 0.76336 0.14222 0.0
C570 C 0.03486 0.80172 0.14572 0.0
C571 C 0.05553 0.80909 0.15888 0.0
C572 C 0.04008 0.77921 0.16871 0.0
C573 C 0.04803 0.83517 0.13609 0.0
C574 C 0.08755 0.85355 0.13109 0.0
C575 C 0.02168 0.84904 0.13194 0.0
C576 C 0.98009 0.83161 0.13726 0.0
C577 C 0.9753 0.83187 0.15163 0.0
C578 C 0.93593 0.81472 0.15657 0.0
C579 C 0.90114 0.79756 0.14723 0.0
C580 C 0.90566 0.79764 0.13293 0.0
C581 C 0.94496 0.81467 0.12793 0.0
H582 H 0.87069 0.7843 0.15108 0.0
H583 H 0.25072 0.94644 0.10178 0.0
H584 H 0.09277 0.05519 0.40675 0.0
H585 H 0.14794 0.05099 0.41903 0.0
H586 H 0.13258 0.10307 0.45624 0.0
H587 H 0.07888 0.1092 0.44381 0.0
H588 H 0.21088 0.13155 0.45407 0.0
H589 H 0.08689 0.99677 0.44979 0.0
H590 H 0.02928 0.93824 0.43628 0.0
H591 H 0.11555 0.92457 0.41368 0.0
H592 H 0.17367 0.98332 0.42696 0.0
H593 H 0.28155 0.05612 0.50781 0.0
H594 H 0.244 0.07449 0.49129 0.0
H595 H 0.27184 0.02078 0.45756 0.0
H596 H 0.30834 0.00118 0.47417 0.0
H597 H 0.19364 0.99603 0.45562 0.0
H598 H 0.31785 0.12592 0.46212 0.0
H599 H 0.37533 0.18536 0.47528 0.0
H600 H 0.28949 0.20901 0.49355 0.0
H601 H 0.23143 0.14939 0.48066 0.0
C602 C 0.10141 0.06602 0.41752 0.0
C603 C 0.0813 0.08221 0.42437 0.0
C604 C 0.13285 0.06348 0.42455 0.0
C605 C 0.14382 0.07587 0.43867 0.0
C606 C 0.12463 0.09323 0.44537 0.0
C607 C 0.09384 0.09661 0.43827 0.0
C608 C 0.17387 0.0692 0.44668 0.0
C609 C 0.20696 0.10187 0.4545 0.0
C610 C 0.16951 0.03072 0.44693 0.0
C611 C 0.13458 0.9946 0.43928 0.0
C612 C 0.09354 0.98131 0.44192 0.0
C613 C 0.06081 0.94813 0.4343 0.0
C614 C 0.06875 0.92777 0.4241 0.0
C615 C 0.10945 0.9404 0.42157 0.0
C616 C 0.14229 0.97359 0.42915 0.0
C617 C 0.28034 0.04898 0.49684 0.0
C618 C 0.29864 0.02803 0.49225 0.0
C619 C 0.25899 0.05959 0.48739 0.0
C620 C 0.2557 0.04969 0.47313 0.0
C621 C 0.27427 0.02904 0.46849 0.0
C622 C 0.29536 0.01812 0.47797 0.0
C623 C 0.23028 0.05825 0.46326 0.0
C624 C 0.19797 0.02588 0.45509 0.0
C625 C 0.23536 0.097 0.46273 0.0
C626 C 0.27025 0.13298 0.47049 0.0
C627 C 0.3112 0.14362 0.46902 0.0
C628 C 0.34389 0.17738 0.47642 0.0
C629 C 0.33606 0.2009 0.48527 0.0
C630 C 0.29551 0.19075 0.4867 0.0
C631 C 0.2627 0.15701 0.47933 0.0
H632 H 0.36141 0.22702 0.49099 0.0
H633 H 0.04337 0.90218 0.41818 0.0
H634 H 0.10939 0.11824 0.74433 0.0
H635 H 0.16342 0.17313 0.75968 0.0
H636 H 0.07323 0.195 0.77577 0.0
H637 H 0.019 0.13973 0.76076 0.0
H638 H 0.19584 0.25249 0.76385 0.0
H639 H 0.09082 0.21398 0.81013 0.0
H640 H 0.03053 0.15432 0.81933 0.0
H641 H 0.06261 0.07615 0.79955 0.0
H642 H 0.1234 0.13535 0.7904 0.0
H643 H 0.27873 0.41386 0.81478 0.0
H644 H 0.23846 0.35971 0.79697 0.0
H645 H 0.24666 0.27486 0.82337 0.0
H646 H 0.28604 0.32874 0.84132 0.0
H647 H 0.17097 0.24426 0.81411 0.0
H648 H 0.29908 0.30608 0.79344 0.0
H649 H 0.36366 0.36136 0.78467 0.0
H650 H 0.29412 0.38554 0.75422 0.0
H651 H 0.22905 0.33076 0.76294 0.0
C652 C 0.10111 0.13501 0.75102 0.0
C653 C 0.05974 0.12421 0.75145 0.0
C654 C 0.13207 0.16643 0.75978 0.0
C655 C 0.12222 0.18762 0.76907 0.0
C656 C 0.08138 0.17844 0.76891 0.0
C657 C 0.05041 0.14687 0.76028 0.0
C658 C 0.15395 0.2179 0.77943 0.0
C659 C 0.19049 0.25077 0.77484 0.0
C660 C 0.14761 0.21487 0.79383 0.0
C661 C 0.11145 0.17911 0.79948 0.0
C662 C 0.08511 0.18407 0.8078 0.0
C663 C 0.05083 0.15033 0.813 0.0
C664 C 0.04268 0.11146 0.80999 0.0
C665 C 0.06888 0.10626 0.80183 0.0
C666 C 0.10323 0.1399 0.79663 0.0
C667 C 0.2724 0.38375 0.81666 0.0
C668 C 0.28567 0.3755 0.82939 0.0
C669 C 0.24958 0.35288 0.80647 0.0
C670 C 0.23983 0.31325 0.80877 0.0
C671 C 0.25384 0.30519 0.82136 0.0
C672 C 0.27645 0.33599 0.83158 0.0
C673 C 0.21242 0.2797 0.79851 0.0
C674 C 0.17658 0.24607 0.80313 0.0
C675 C 0.22012 0.28151 0.78423 0.0
C676 C 0.25915 0.3145 0.77893 0.0
C677 C 0.29753 0.32339 0.78495 0.0
C678 C 0.33424 0.3546 0.77997 0.0
C679 C 0.33299 0.377 0.76892 0.0
C680 C 0.29503 0.36818 0.76279 0.0
C681 C 0.25822 0.33701 0.76774 0.0
H682 H 0.36145 0.40115 0.76508 0.0
H683 H 0.0161 0.08538 0.81401 0.0
H684 H 0.9854 0.09112 0.68479 0.0
H685 H 0.95872 0.11571 0.6661 0.0
H686 H 0.84329 0.0644 0.68562 0.0
H687 H 0.86951 0.04047 0.70422 0.0
H688 H 0.83477 0.04842 0.65619 0.0
H689 H 0.91159 0.16044 0.69135 0.0
H690 H 0.97542 0.21083 0.70494 0.0
H691 H 0.03532 0.25873 0.66715 0.0
H692 H 0.97191 0.20822 0.65335 0.0
H693 H 0.72077 0.13924 0.64896 0.0
H694 H 0.76227 0.11001 0.65479 0.0
H695 H 0.85826 0.19697 0.62987 0.0
H696 H 0.81655 0.22663 0.62407 0.0
H697 H 0.88932 0.19564 0.65494 0.0
H698 H 0.80597 0.09666 0.62003 0.0
H699 H 0.74284 0.04687 0.60606 0.0
H700 H 0.69671 0.97377 0.6416 0.0
H701 H 0.75921 0.02343 0.65588 0.0
C702 C 0.95431 0.08503 0.68503 0.0
C703 C 0.92969 0.06416 0.69604 0.0
C704 C 0.93915 0.099 0.67437 0.0
C705 C 0.899 0.09166 0.67449 0.0
C706 C 0.87424 0.07011 0.68529 0.0
C707 C 0.88947 0.05678 0.69599 0.0
C708 C 0.88266 0.10794 0.66394 0.0
C709 C 0.84668 0.08059 0.6558 0.0
C710 C 0.89935 0.14996 0.66304 0.0
C711 C 0.93729 0.18027 0.67134 0.0
C712 C 0.9385 0.1815 0.68595 0.0
C713 C 0.97456 0.21011 0.69369 0.0
C714 C 0.00945 0.23787 0.68691 0.0
C715 C 0.00831 0.23714 0.67239 0.0
C716 C 0.97233 0.20854 0.6646 0.0
C717 C 0.75033 0.15158 0.64449 0.0
C718 C 0.76536 0.18502 0.63601 0.0
C719 C 0.77398 0.13473 0.64776 0.0
C720 C 0.81321 0.15094 0.64262 0.0
C721 C 0.82797 0.1838 0.63386 0.0
C722 C 0.80416 0.20063 0.63054 0.0
C723 C 0.83992 0.13594 0.6477 0.0
C724 C 0.87793 0.16351 0.65484 0.0
C725 C 0.82523 0.09406 0.64756 0.0
C726 C 0.78735 0.06396 0.63905 0.0
C727 C 0.78225 0.07014 0.62491 0.0
C728 C 0.74657 0.0419 0.61693 0.0
C729 C 0.71577 0.0072 0.62294 0.0
C730 C 0.72061 0.00066 0.63695 0.0
C731 C 0.75621 0.02883 0.64499 0.0
H732 H 0.68818 0.98536 0.61674 0.0
H733 H 0.03734 0.26001 0.69292 0.0
H734 H 0.01766 0.99252 0.04477 0.0
H735 H 0.96289 0.93478 0.03072 0.0
H736 H 0.94629 0.01561 0.00482 0.0
H737 H 0.00083 0.07373 0.01891 0.0
H738 H 0.87242 0.94913 0.01079 0.0
H739 H 0.00121 0.9763 0.99415 0.0
H740 H 0.07095 0.98708 0.99651 0.0
H741 H 0.02095 0.86816 0.0122 0.0
H742 H 0.95094 0.85689 0.01011 0.0
H743 H 0.77362 0.82476 0.94965 0.0
H744 H 0.8195 0.87744 0.96721 0.0
H745 H 0.83165 0.78953 0.99042 0.0
H746 H 0.78588 0.73667 0.97275 0.0
H747 H 0.90554 0.85667 0.98724 0.0
H748 H 0.77611 0.8273 0.00244 0.0
H749 H 0.70624 0.81616 0.00018 0.0
H750 H 0.75652 0.93808 0.98742 0.0
H751 H 0.82669 0.94979 0.98941 0.0
C752 C 0.00231 0.99815 0.03613 0.0
C753 C 0.01394 0.0379 0.03292 0.0
C754 C 0.97102 0.96503 0.02809 0.0
C755 C 0.95088 0.97093 0.01662 0.0
C756 C 0.96151 0.01041 0.01362 0.0
C757 C 0.99281 0.0436 0.02166 0.0
C758 C 0.91962 0.93602 0.0075 0.0
C759 C 0.87972 0.92913 0.00552 0.0
C760 C 0.92888 0.90929 0.00094 0.0
C761 C 0.97091 0.91592 0.00211 0.0
C762 C 0.00513 0.95257 0.9982 0.0
C763 C 0.0447 0.95875 -0.00053 0.0
C764 C 0.0504 0.92837 0.00454 0.0
C765 C 0.01651 0.89169 0.0083 0.0
C766 C 0.97687 0.88538 0.00707 0.0
C767 C 0.78557 0.81657 0.95861 0.0
C768 C 0.77574 0.77652 0.95994 0.0
C769 C 0.81171 0.84665 0.96865 0.0
C770 C 0.82861 0.83733 0.98022 0.0
C771 C 0.81876 0.79733 0.98161 0.0
C772 C 0.79252 0.76717 0.97157 0.0
C773 C 0.85832 0.86987 0.99042 0.0
C774 C 0.89803 0.8764 0.99259 0.0
C775 C 0.84881 0.89618 0.99716 0.0
C776 C 0.80665 0.8893 0.99596 0.0
C777 C 0.77225 0.85164 0.99904 0.0
C778 C 0.73259 0.84524 0.99783 0.0
C779 C 0.72693 0.87636 0.99362 0.0
C780 C 0.76095 0.91398 0.99066 0.0
C781 C 0.80068 0.92053 0.99184 0.0
H782 H 0.6962 0.87135 0.99269 0.0
H783 H 0.08105 0.93321 0.00551 0.0
H784 H 0.98877 0.97511 0.35478 0.0
H785 H 0.99337 0.92797 0.33918 0.0
H786 H 0.02192 0.8773 0.37441 0.0
H787 H 0.01783 0.92466 0.39012 0.0
H788 H 0.06804 0.8852 0.35181 0.0
H789 H 0.92467 0.83206 0.36088 0.0
H790 H 0.86208 0.8355 0.36141 0.0
H791 H 0.86335 0.85218 0.3174 0.0
H792 H 0.92628 0.84935 0.31665 0.0
H793 H 0.0048 0.68756 0.32763 0.0
H794 H 0.01868 0.74972 0.33947 0.0
H795 H 0.97043 0.77839 0.30289 0.0
H796 H 0.95474 0.71525 0.29126 0.0
H797 H 0.9386 0.78749 0.3242 0.0
H798 H 0.07668 0.83333 0.31407 0.0
H799 H 0.13993 0.83134 0.31295 0.0
H800 H 0.15091 0.83098 0.35752 0.0
H801 H 0.08737 0.83238 0.35892 0.0
C802 C 0.99645 0.95424 0.35922 0.0
C803 C 0.00237 0.95325 0.37371 0.0
C804 C 0.99905 0.92733 0.35028 0.0
C805 C 0.00742 0.89882 0.35567 0.0
C806 C 0.01534 0.89904 0.37006 0.0
C807 C 0.01276 0.92597 0.37902 0.0
C808 C 0.00502 0.86692 0.34642 0.0
C809 C 0.03974 0.8636 0.34582 0.0
C810 C 0.96843 0.83963 0.3383 0.0
C811 C 0.93038 0.84091 0.33874 0.0
C812 C 0.91174 0.83673 0.35134 0.0
C813 C 0.87619 0.83853 0.35168 0.0
C814 C 0.85881 0.84417 0.33946 0.0
C815 C 0.87688 0.84788 0.32686 0.0
C816 C 0.91246 0.84615 0.32647 0.0
C817 C 0.99788 0.70755 0.32205 0.0
C818 C 0.97948 0.69693 0.30844 0.0
C819 C 0.00603 0.74319 0.32878 0.0
C820 C 0.99636 0.76924 0.32199 0.0
C821 C 0.97846 0.75896 0.30831 0.0
C822 C 0.96976 0.72299 0.30163 0.0
C823 C 0.0016 0.80523 0.3296 0.0
C824 C 0.96727 0.80931 0.32997 0.0
C825 C 0.03872 0.83341 0.33737 0.0
C826 C 0.07704 0.83266 0.33659 0.0
C827 C 0.09239 0.83253 0.32364 0.0
C828 C 0.12834 0.83155 0.32295 0.0
C829 C 0.14937 0.83095 0.33515 0.0
C830 C 0.13456 0.83142 0.34807 0.0
C831 C 0.09861 0.83236 0.34882 0.0
H832 H 0.1772 0.8302 0.3346 0.0
H833 H 0.8313 0.84557 0.33974 0.0
H834 H 0.08699 0.03998 0.68385 0.0
H835 H 0.13909 0.04369 0.6692 0.0
H836 H 0.22236 0.07238 0.70543 0.0
H837 H 0.17042 0.06885 0.72023 0.0
H838 H 0.26165 0.11696 0.68202 0.0
H839 H 0.16701 0.9779 0.69369 0.0
H840 H 0.09809 0.91627 0.69508 0.0
H841 H 0.07659 0.912 0.65073 0.0
H842 H 0.14522 0.97395 0.6491 0.0
H843 H 0.39535 0.05699 0.65862 0.0
H844 H 0.34775 0.06883 0.67077 0.0
H845 H 0.2603 0.01868 0.63505 0.0
H846 H 0.30706 0.0052 0.62313 0.0
H847 H 0.22232 0.98812 0.65706 0.0
H848 H 0.31749 0.12315 0.64452 0.0
H849 H 0.38545 0.18542 0.64246 0.0
H850 H 0.40532 0.19926 0.68696 0.0
H851 H 0.33769 0.13673 0.68929 0.0
C852 C 0.11657 0.04762 0.68871 0.0
C853 C 0.12438 0.05365 0.70324 0.0
C854 C 0.14627 0.04968 0.68031 0.0
C855 C 0.18431 0.05778 0.68626 0.0
C856 C 0.19312 0.06601 0.70065 0.0
C857 C 0.16334 0.06381 0.70909 0.0
C858 C 0.21359 0.05468 0.67763 0.0
C859 C 0.25332 0.08878 0.67663 0.0
C860 C 0.20216 0.01816 0.67033 0.0
C861 C 0.16104 0.98077 0.67129 0.0
C862 C 0.14745 0.96398 0.68425 0.0
C863 C 0.10847 0.92897 0.68508 0.0
C864 C 0.08293 0.91029 0.67301 0.0
C865 C 0.09638 0.92653 0.66007 0.0
C866 C 0.13532 0.96157 0.65919 0.0
C867 C 0.3662 0.04908 0.65331 0.0
C868 C 0.35536 0.03104 0.63982 0.0
C869 C 0.3391 0.05604 0.66022 0.0
C870 C 0.30072 0.04542 0.65373 0.0
C871 C 0.28986 0.02745 0.64023 0.0
C872 C 0.31674 0.02001 0.63339 0.0
C873 C 0.27079 0.05046 0.66137 0.0
C874 C 0.23081 0.01658 0.66227 0.0
C875 C 0.28195 0.08734 0.66843 0.0
C876 C 0.32263 0.12503 0.66708 0.0
C877 C 0.33647 0.13929 0.65387 0.0
C878 C 0.37492 0.17467 0.65265 0.0
C879 C 0.39973 0.19623 0.66457 0.0
C880 C 0.38608 0.18251 0.67773 0.0
C881 C 0.34767 0.14712 0.67901 0.0
H882 H 0.42948 0.22362 0.6636 0.0
H883 H 0.05276 0.88319 0.67367 0.0
H884 H 0.20788 0.22185 0.046 0.0
H885 H 0.23752 0.26253 0.02591 0.0
H886 H 0.20777 0.15543 0.00176 0.0
H887 H 0.17907 0.11433 0.02226 0.0
H888 H 0.28341 0.22614 0.99525 0.0
H889 H 0.14221 0.18457 0.99911 0.0
H890 H 0.08291 0.17351 0.01181 0.0
H891 H 0.14363 0.30137 0.02094 0.0
H892 H 0.20367 0.31313 0.00853 0.0
H893 H 0.29418 0.33389 0.93311 0.0
H894 H 0.27471 0.2833 0.95091 0.0
H895 H 0.28501 0.36987 0.98175 0.0
H896 H 0.30324 0.41991 0.96397 0.0
H897 H 0.21395 0.30025 0.98254 0.0
H898 H 0.3572 0.34087 0.98011 0.0
H899 H 0.41763 0.35143 0.96825 0.0
H900 H 0.35281 0.22493 0.95623 0.0
H901 H 0.29175 0.21373 0.96786 0.0
C902 C 0.20828 0.20702 0.03648 0.0
C903 C 0.19073 0.16498 0.03556 0.0
C904 C 0.22524 0.23028 0.02503 0.0
C905 C 0.22393 0.21182 0.01229 0.0
C906 C 0.20883 0.17013 0.01152 0.0
C907 C 0.19243 0.14675 0.02316 0.0
C908 C 0.23461 0.23596 -0.00031 0.0
C909 C 0.26785 0.24184 0.99226 0.0
C910 C 0.2143 0.2565 0.9959 0.0
C911 C 0.17753 0.2497 0.00292 0.0
C912 C 0.14298 0.21032 0.00386 0.0
C913 C 0.10924 0.20392 0.01102 0.0
C914 C 0.10951 0.23672 0.01719 0.0
C915 C 0.14345 0.276 0.01616 0.0
C916 C 0.17733 0.28255 0.00904 0.0
C917 C 0.29296 0.34221 0.94376 0.0
C918 C 0.30093 0.38101 0.94722 0.0
C919 C 0.28193 0.31337 0.9539 0.0
C920 C 0.27879 0.32293 0.96769 0.0
C921 C 0.28737 0.36188 0.97119 0.0
C922 C 0.29808 0.39055 0.96105 0.0
C923 C 0.26392 0.29186 0.97836 0.0
C924 C 0.22941 0.28435 0.98537 0.0
C925 C 0.28298 0.26979 0.98166 0.0
C926 C 0.31975 0.27655 0.97472 0.0
C927 C 0.3557 0.31537 0.97483 0.0
C928 C 0.3901 0.32146 0.96817 0.0
C929 C 0.38902 0.28889 0.96145 0.0
C930 C 0.35358 0.25014 0.96141 0.0
C931 C 0.31908 0.2439 0.96804 0.0
H932 H 0.41567 0.29366 0.9563 0.0
H933 H 0.08341 0.2317 0.02275 0.0
H934 H 0.03491 0.20937 0.38224 0.0
H935 H 0.05174 0.25177 0.36224 0.0
H936 H 0.06712 0.16654 0.33849 0.0
H937 H 0.04876 0.12298 0.35839 0.0
H938 H 0.11042 0.29147 0.34542 0.0
H939 H 0.02599 0.15714 0.30568 0.0
H940 H 0.97316 0.08399 0.30467 0.0
H941 H 0.91883 0.10023 0.34013 0.0
H942 H 0.97103 0.17348 0.34124 0.0
H943 H 0.11782 0.39757 0.27685 0.0
H944 H 0.12987 0.35236 0.29832 0.0
H945 H 0.97674 0.25807 0.30023 0.0
H946 H 0.96095 0.30044 0.27883 0.0
H947 H 0.01323 0.22214 0.30416 0.0
H948 H 0.06328 0.3517 0.33001 0.0
H949 H 0.10705 0.42609 0.33343 0.0
H950 H 0.21555 0.42093 0.32903 0.0
H951 H 0.17224 0.34651 0.32552 0.0
C952 C 0.04259 0.19988 0.37287 0.0
C953 C 0.03967 0.16236 0.37183 0.0
C954 C 0.05242 0.22433 0.36143 0.0
C955 C 0.05987 0.21195 0.34878 0.0
C956 C 0.0606 0.17626 0.34808 0.0
C957 C 0.05017 0.15143 0.35947 0.0
C958 C 0.06209 0.23414 0.33609 0.0
C959 C 0.08952 0.27626 0.33631 0.0
C960 C 0.03442 0.2145 0.32428 0.0
C961 C 0.00271 0.17059 0.32364 0.0
C962 C 0.00271 0.14505 0.31324 0.0
C963 C 0.97289 0.1036 0.31265 0.0
C964 C 0.94277 0.08745 0.32237 0.0
C965 C 0.94228 0.11274 0.33265 0.0
C966 C 0.97198 0.15421 0.33327 0.0
C967 C 0.09189 0.37089 0.28086 0.0
C968 C 0.03765 0.35795 0.27743 0.0
C969 C 0.09895 0.3438 0.29473 0.0
C970 C 0.05477 0.30205 0.30233 0.0
C971 C 0.00239 0.2839 0.29574 0.0
C972 C 0.99218 0.30887 0.28196 0.0
C973 C 0.06048 0.27976 0.31367 0.0
C974 C 0.03468 0.23745 0.31313 0.0
C975 C 0.0886 0.29936 0.32537 0.0
C976 C 0.11458 0.34389 0.3272 0.0
C977 C 0.09647 0.36657 0.32967 0.0
C978 C 0.12116 0.40867 0.33165 0.0
C979 C 0.16405 0.42826 0.33136 0.0
C980 C 0.18232 0.40575 0.32917 0.0
C981 C 0.15773 0.36364 0.32719 0.0
H982 H 0.18312 0.46085 0.33289 0.0
H983 H 0.91974 0.05535 0.3219 0.0
loop_
_geom_bond_atom_site_label_1
_geom_bond_atom_site_label_2
_geom_bond_distance
_geom_bond_site_symmetry_2
_ccdc_geom_bond_type
Mg0 O1 2.028 . S
Mg0 O7 1.986 . S
Mg0 O9 2.114 . S
Mg0 O10 2.251 . S
Mg0 O13 2.010 . S
O1 Mg0 2.028 . S
O1 C4 1.250 . S
O2 Mg3 2.028 . S
O2 C4 1.248 . S
Mg3 O2 2.028 . S
Mg3 O8 2.032 . S
Mg3 O10 2.079 . S
C4 O1 1.250 . S
C4 O2 1.248 . S
C5 O6 1.264 . S
C5 O13 1.249 . S
O6 C5 1.264 . S
O7 Mg0 1.986 . S
O7 C11 1.246 . S
O8 Mg3 2.032 . S
O8 C11 1.259 . S
O9 Mg0 2.114 . S
O9 C12 1.252 . S
O10 Mg0 2.251 . S
O10 Mg3 2.079 . S
O10 C12 1.273 . S
C11 O7 1.246 . S
C11 O8 1.259 . S
C12 O9 1.252 . S
C12 O10 1.273 . S
O13 Mg0 2.010 . S
O13 C5 1.249 . S
Mg14 O15 2.028 1_655 S
Mg14 O21 1.986 1_655 S
Mg14 O23 2.114 . S
Mg14 O24 2.251 . S
Mg14 O27 2.010 1_545 S
O15 Mg14 2.028 1_455 S
O15 C18 1.250 . S
O16 Mg17 2.028 . S
O16 C18 1.248 . S
Mg17 O16 2.028 . S
Mg17 O22 2.032 . S
Mg17 O24 2.079 1_455 S
C18 O15 1.250 . S
C18 O16 1.248 . S
C19 O20 1.264 . S
C19 O27 1.249 . S
O20 C19 1.264 . S
O21 Mg14 1.986 1_455 S
O21 C25 1.246 . S
O22 Mg17 2.032 . S
O22 C25 1.259 . S
O23 Mg14 2.114 . S
O23 C26 1.252 . S
O24 Mg14 2.251 . S
O24 Mg17 2.079 1_655 S
O24 C26 1.273 . S
C25 O21 1.246 . S
C25 O22 1.259 . S
C26 O23 1.252 . S
C26 O24 1.273 . S
O27 Mg14 2.010 1_565 S
O27 C19 1.249 . S
Mg28 O29 2.028 . S
Mg28 O35 1.982 1_455 S
Mg28 O37 2.114 1_545 S
Mg28 O38 2.251 1_455 S
Mg28 O41 2.010 . S
O29 Mg28 2.028 . S
O29 C32 1.250 . S
O30 Mg31 2.028 1_455 S
O30 C32 1.248 . S
Mg31 O30 2.028 1_655 S
Mg31 O36 2.032 . S
Mg31 O38 2.079 . S
C32 O29 1.250 . S
C32 O30 1.248 . S
C33 O34 1.264 1_545 S
C33 O41 1.249 . S
O34 C33 1.264 1_565 S
O35 Mg28 1.982 1_655 S
O35 C39 1.252 . S
O36 Mg31 2.032 . S
O36 C39 1.259 . S
O37 Mg28 2.114 1_565 S
O37 C40 1.252 1_455 S
O38 Mg28 2.251 1_655 S
O38 Mg31 2.079 . S
O38 C40 1.273 1_545 S
C39 O35 1.252 . S
C39 O36 1.259 . S
C40 O37 1.252 1_655 S
C40 O38 1.273 1_565 S
O41 Mg28 2.010 . S
O41 C33 1.249 . S
C42 C43 1.560 1_655 S
C42 H103 0.959 . S
C42 H104 0.959 . S
C42 H105 0.960 . S
C43 C42 1.560 1_455 S
C43 O98 1.426 1_455 S
C43 H102 0.980 . S
C44 C45 1.407 . S
C44 C49 1.418 1_455 S
C44 O98 1.334 1_455 S
C45 C44 1.407 . S
C45 C46 1.360 . S
C45 H106 0.929 . S
C46 C45 1.360 . S
C46 C47 1.401 . S
C46 C50 1.527 . S
C47 C46 1.401 . S
C47 C48 1.405 1_455 S
C47 C80 1.587 . S
C48 C47 1.405 1_655 S
C48 C49 1.332 . S
C48 C51 1.496 . S
C49 C44 1.418 1_655 S
C49 C48 1.332 . S
C49 H107 0.929 . S
C50 C46 1.527 . S
C50 H108 0.959 . S
C50 H109 0.961 . S
C50 H110 0.961 . S
C51 C48 1.496 . S
C51 H111 0.960 . S
C51 H112 0.960 . S
C51 H113 0.961 . S
C52 C53 1.517 . S
C52 H115 0.961 . S
C52 H116 0.960 . S
C52 H117 0.959 . S
C53 C52 1.517 . S
C53 O101 1.468 . S
C53 H114 0.980 . S
C54 C55 1.349 . S
C54 C59 1.367 . S
C54 O101 1.408 . S
C55 C54 1.349 . S
C55 C56 1.407 . S
C55 H118 0.930 . S
C56 C55 1.407 . S
C56 C57 1.449 . S
C56 C60 1.535 1_455 S
C57 C56 1.449 . S
C57 C58 1.384 . S
C57 C82 1.553 . S
C58 C57 1.384 . S
C58 C59 1.364 . S
C58 C61 1.450 . S
C59 C54 1.367 . S
C59 C58 1.364 . S
C59 H119 0.931 . S
C60 C56 1.535 1_655 S
C60 H120 0.959 . S
C60 H121 0.961 . S
C60 H122 0.959 . S
C61 C58 1.450 . S
C61 H123 0.960 . S
C61 H124 0.960 . S
C61 H125 0.960 . S
C62 C63 1.309 . S
C62 C67 1.304 . S
C62 O100 1.435 . S
C63 C62 1.309 . S
C63 C64 1.476 . S
C63 H127 0.930 . S
C64 C63 1.476 . S
C64 C65 1.400 . S
C64 C68 1.567 1_455 S
C65 C64 1.400 . S
C65 C66 1.373 . S
C65 C87 1.432 . S
C66 C65 1.373 . S
C66 C67 1.339 . S
C66 C69 1.530 . S
C67 C62 1.304 . S
C67 C66 1.339 . S
C67 H128 0.930 . S
C68 C64 1.567 1_655 S
C68 H129 0.961 . S
C68 H130 0.960 . S
C68 H131 0.958 . S
C69 C66 1.530 . S
C69 H132 0.961 . S
C69 H133 0.960 . S
C69 H134 0.960 . S
C70 C71 1.530 . S
C70 H136 0.961 . S
C70 H137 0.961 1_455 S
C70 H138 0.959 1_455 S
C71 C70 1.530 . S
C71 O99 1.412 . S
C71 H135 0.980 . S
C72 C73 1.288 1_455 S
C72 C77 1.377 . S
C72 O99 1.393 . S
C73 C72 1.288 1_655 S
C73 C74 1.369 1_655 S
C73 H139 0.932 . S
C74 C73 1.369 1_455 S
C74 C75 1.398 . S
C74 C78 1.527 1_455 S
C75 C74 1.398 . S
C75 C76 1.380 . S
C75 C89 1.497 . S
C76 C75 1.380 . S
C76 C77 1.383 . S
C76 C79 1.603 . S
C77 C72 1.377 . S
C77 C76 1.383 . S
C77 H140 0.929 . S
C78 C74 1.527 1_655 S
C78 H141 0.961 . S
C78 H142 0.959 . S
C78 H143 0.959 . S
C79 C76 1.603 . S
C79 H144 0.960 . S
C79 H145 0.962 . S
C79 H146 0.961 . S
C80 C47 1.587 . S
C80 C81 1.360 . S
C80 C93 1.412 . S
C81 C80 1.360 . S
C81 C82 1.365 . S
C81 H147 0.929 . S
C82 C57 1.553 . S
C82 C81 1.365 . S
C82 C83 1.404 . S
C83 C82 1.404 . S
C83 C84 1.395 . S
C83 C94 1.451 . S
C84 C83 1.395 . S
C84 C85 1.322 . S
C84 H148 0.930 . S
C85 C84 1.322 . S
C85 C86 1.459 . S
C85 H149 0.929 . S
C86 C85 1.459 . S
C86 C87 1.445 . S
C86 C95 1.395 . S
C87 C65 1.432 . S
C87 C86 1.445 . S
C87 C88 1.370 . S
C88 C87 1.370 . S
C88 C89 1.438 . S
C88 H150 0.930 . S
C89 C75 1.497 . S
C89 C88 1.438 . S
C89 C90 1.360 . S
C90 C89 1.360 . S
C90 C91 1.401 . S
C90 C95 1.446 . S
C91 C90 1.401 . S
C91 C92 1.347 . S
C91 H151 0.929 . S
C92 C91 1.347 . S
C92 C93 1.455 . S
C92 H152 0.930 . S
C93 C80 1.412 . S
C93 C92 1.455 . S
C93 C94 1.331 . S
C94 C83 1.451 . S
C94 C93 1.331 . S
C94 C95 1.497 . S
C95 C86 1.395 . S
C95 C90 1.446 . S
C95 C94 1.497 . S
C96 C97 1.582 . S
C96 H153 0.962 . S
C96 H154 0.959 . S
C96 H155 0.958 . S
C97 C96 1.582 . S
C97 O100 1.458 . S
C97 H126 0.980 . S
O98 C43 1.426 1_655 S
O98 C44 1.334 1_655 S
O99 C71 1.412 . S
O99 C72 1.393 . S
O100 C62 1.435 . S
O100 C97 1.458 . S
O101 C53 1.468 . S
O101 C54 1.408 . S
H102 C43 0.980 . S
H103 C42 0.959 . S
H104 C42 0.959 . S
H105 C42 0.960 . S
H106 C45 0.929 . S
H107 C49 0.929 . S
H108 C50 0.959 . S
H109 C50 0.961 . S
H110 C50 0.961 . S
H111 C51 0.960 . S
H112 C51 0.960 . S
H113 C51 0.961 . S
H114 C53 0.980 . S
H115 C52 0.961 . S
H116 C52 0.960 . S
H117 C52 0.959 . S
H118 C55 0.930 . S
H119 C59 0.931 . S
H120 C60 0.959 . S
H121 C60 0.961 . S
H122 C60 0.959 . S
H123 C61 0.960 . S
H124 C61 0.960 . S
H125 C61 0.960 . S
H126 C97 0.980 . S
H127 C63 0.930 . S
H128 C67 0.930 . S
H129 C68 0.961 . S
H130 C68 0.960 . S
H131 C68 0.958 . S
H132 C69 0.961 . S
H133 C69 0.960 . S
H134 C69 0.960 . S
H135 C71 0.980 . S
H136 C70 0.961 . S
H137 C70 0.961 1_655 S
H138 C70 0.959 1_655 S
H139 C73 0.932 . S
H140 C77 0.929 . S
H141 C78 0.961 . S
H142 C78 0.959 . S
H143 C78 0.959 . S
H144 C79 0.960 . S
H145 C79 0.962 . S
H146 C79 0.961 . S
H147 C81 0.929 . S
H148 C84 0.930 . S
H149 C85 0.929 . S
H150 C88 0.930 . S
H151 C91 0.929 . S
H152 C92 0.930 . S
H153 C96 0.962 . S
H154 C96 0.959 . S
H155 C96 0.958 . S
C156 C157 1.560 . S
C156 H217 0.959 . S
C156 H218 0.959 . S
C156 H219 0.960 . S
C157 C156 1.560 . S
C157 O212 1.426 . S
C157 H216 0.980 . S
C158 C159 1.407 . S
C158 C163 1.418 . S
C158 O212 1.334 . S
C159 C158 1.407 . S
C159 C160 1.360 . S
C159 H220 0.929 . S
C160 C159 1.360 . S
C160 C161 1.401 . S
C160 C164 1.527 . S
C161 C160 1.401 . S
C161 C162 1.405 . S
C161 C194 1.587 . S
C162 C161 1.405 . S
C162 C163 1.332 . S
C162 C165 1.496 . S
C163 C158 1.418 . S
C163 C162 1.332 . S
C163 H221 0.929 . S
C164 C160 1.527 . S
C164 H222 0.959 . S
C164 H223 0.961 . S
C164 H224 0.961 . S
C165 C162 1.496 . S
C165 H225 0.960 1_545 S
C165 H226 0.960 . S
C165 H227 0.961 . S
C166 C167 1.517 . S
C166 H229 0.961 . S
C166 H230 0.960 . S
C166 H231 0.959 . S
C167 C166 1.517 . S
C167 O215 1.468 . S
C167 H228 0.980 . S
C168 C169 1.349 . S
C168 C173 1.367 . S
C168 O215 1.408 . S
C169 C168 1.349 . S
C169 C170 1.407 . S
C169 H232 0.930 . S
C170 C169 1.407 . S
C170 C171 1.449 . S
C170 C174 1.535 . S
C171 C170 1.449 . S
C171 C172 1.384 . S
C171 C196 1.553 . S
C172 C171 1.384 . S
C172 C173 1.364 . S
C172 C175 1.450 . S
C173 C168 1.367 . S
C173 C172 1.364 . S
C173 H233 0.931 . S
C174 C170 1.535 . S
C174 H234 0.959 . S
C174 H235 0.961 . S
C174 H236 0.959 . S
C175 C172 1.450 . S
C175 H237 0.960 . S
C175 H238 0.960 . S
C175 H239 0.960 . S
C176 C177 1.309 . S
C176 C181 1.304 . S
C176 O214 1.435 . S
C177 C176 1.309 . S
C177 C178 1.476 . S
C177 H241 0.930 . S
C178 C177 1.476 . S
C178 C179 1.400 . S
C178 C182 1.567 . S
C179 C178 1.400 . S
C179 C180 1.373 . S
C179 C201 1.432 . S
C180 C179 1.373 . S
C180 C181 1.339 . S
C180 C183 1.530 . S
C181 C176 1.304 . S
C181 C180 1.339 . S
C181 H242 0.930 . S
C182 C178 1.567 . S
C182 H243 0.961 . S
C182 H244 0.960 . S
C182 H245 0.958 . S
C183 C180 1.530 . S
C183 H246 0.961 . S
C183 H247 0.960 . S
C183 H248 0.960 . S
C184 C185 1.530 . S
C184 H250 0.961 . S
C184 H251 0.961 . S
C184 H252 0.959 . S
C185 C184 1.530 . S
C185 O213 1.412 . S
C185 H249 0.980 . S
C186 C187 1.288 . S
C186 C191 1.377 . S
C186 O213 1.393 . S
C187 C186 1.288 . S
C187 C188 1.369 . S
C187 H253 0.932 . S
C188 C187 1.369 . S
C188 C189 1.398 . S
C188 C192 1.527 . S
C189 C188 1.398 . S
C189 C190 1.380 . S
C189 C203 1.497 . S
C190 C189 1.380 . S
C190 C191 1.383 . S
C190 C193 1.603 . S
C191 C186 1.377 . S
C191 C190 1.383 . S
C191 H254 0.929 . S
C192 C188 1.527 . S
C192 H255 0.961 . S
C192 H256 0.959 . S
C192 H257 0.959 1_545 S
C193 C190 1.603 . S
C193 H258 0.960 . S
C193 H259 0.962 . S
C193 H260 0.961 . S
C194 C161 1.587 . S
C194 C195 1.360 . S
C194 C207 1.412 . S
C195 C194 1.360 . S
C195 C196 1.365 . S
C195 H261 0.929 . S
C196 C171 1.553 . S
C196 C195 1.365 . S
C196 C197 1.404 . S
C197 C196 1.404 . S
C197 C198 1.395 . S
C197 C208 1.451 . S
C198 C197 1.395 . S
C198 C199 1.322 . S
C198 H262 0.930 . S
C199 C198 1.322 . S
C199 C200 1.459 . S
C199 H263 0.929 . S
C200 C199 1.459 . S
C200 C201 1.445 . S
C200 C209 1.395 . S
C201 C179 1.432 . S
C201 C200 1.445 . S
C201 C202 1.370 . S
C202 C201 1.370 . S
C202 C203 1.438 . S
C202 H264 0.930 . S
C203 C189 1.497 . S
C203 C202 1.438 . S
C203 C204 1.360 . S
C204 C203 1.360 . S
C204 C205 1.401 . S
C204 C209 1.446 . S
C205 C204 1.401 . S
C205 C206 1.347 . S
C205 H265 0.929 . S
C206 C205 1.347 . S
C206 C207 1.455 . S
C206 H266 0.930 . S
C207 C194 1.412 . S
C207 C206 1.455 . S
C207 C208 1.331 . S
C208 C197 1.451 . S
C208 C207 1.331 . S
C208 C209 1.497 . S
C209 C200 1.395 . S
C209 C204 1.446 . S
C209 C208 1.497 . S
C210 C211 1.582 . S
C210 H267 0.962 . S
C210 H268 0.959 . S
C210 H269 0.958 . S
C211 C210 1.582 . S
C211 O214 1.458 . S
C211 H240 0.980 . S
O212 C157 1.426 . S
O212 C158 1.334 . S
O213 C185 1.412 . S
O213 C186 1.393 . S
O214 C176 1.435 . S
O214 C211 1.458 . S
O215 C167 1.468 . S
O215 C168 1.408 . S
H216 C157 0.980 . S
H217 C156 0.959 . S
H218 C156 0.959 . S
H219 C156 0.960 . S
H220 C159 0.929 . S
H221 C163 0.929 . S
H222 C164 0.959 . S
H223 C164 0.961 . S
H224 C164 0.961 . S
H225 C165 0.960 1_565 S
H226 C165 0.960 . S
H227 C165 0.961 . S
H228 C167 0.980 . S
H229 C166 0.961 . S
H230 C166 0.960 . S
H231 C166 0.959 . S
H232 C169 0.930 . S
H233 C173 0.931 . S
H234 C174 0.959 . S
H235 C174 0.961 . S
H236 C174 0.959 . S
H237 C175 0.960 . S
H238 C175 0.960 . S
H239 C175 0.960 . S
H240 C211 0.980 . S
H241 C177 0.930 . S
H242 C181 0.930 . S
H243 C182 0.961 . S
H244 C182 0.960 . S
H245 C182 0.958 . S
H246 C183 0.961 . S
H247 C183 0.960 . S
H248 C183 0.960 . S
H249 C185 0.980 . S
H250 C184 0.961 . S
H251 C184 0.961 . S
H252 C184 0.959 . S
H253 C187 0.932 . S
H254 C191 0.929 . S
H255 C192 0.961 . S
H256 C192 0.959 . S
H257 C192 0.959 1_565 S
H258 C193 0.960 . S
H259 C193 0.962 . S
H260 C193 0.961 . S
H261 C195 0.929 . S
H262 C198 0.930 . S
H263 C199 0.929 . S
H264 C202 0.930 . S
H265 C205 0.929 . S
H266 C206 0.930 . S
H267 C210 0.962 . S
H268 C210 0.959 . S
H269 C210 0.958 . S
C270 C271 1.560 . S
C270 H331 0.959 . S
C270 H332 0.959 . S
C270 H333 0.960 . S
C271 C270 1.560 . S
C271 O326 1.426 . S
C271 H330 0.980 . S
C272 C273 1.407 . S
C272 C277 1.418 . S
C272 O326 1.334 . S
C273 C272 1.407 . S
C273 C274 1.360 . S
C273 H334 0.929 . S
C274 C273 1.360 . S
C274 C275 1.401 . S
C274 C278 1.527 . S
C275 C274 1.401 . S
C275 C276 1.405 . S
C275 C308 1.587 . S
C276 C275 1.405 . S
C276 C277 1.332 . S
C276 C279 1.496 . S
C277 C272 1.418 . S
C277 C276 1.332 . S
C277 H335 0.929 . S
C278 C274 1.527 . S
C278 H336 0.959 . S
C278 H337 0.961 . S
C278 H338 0.961 . S
C279 C276 1.496 . S
C279 H339 0.960 . S
C279 H340 0.960 . S
C279 H341 0.961 . S
C280 C281 1.517 . S
C280 H343 0.961 . S
C280 H344 0.960 . S
C280 H345 0.959 . S
C281 C280 1.517 . S
C281 O329 1.468 . S
C281 H342 0.980 . S
C282 C283 1.349 . S
C282 C287 1.367 . S
C282 O329 1.408 . S
C283 C282 1.349 . S
C283 C284 1.407 . S
C283 H346 0.930 . S
C284 C283 1.407 . S
C284 C285 1.449 . S
C284 C288 1.535 . S
C285 C284 1.449 . S
C285 C286 1.384 . S
C285 C310 1.553 . S
C286 C285 1.384 . S
C286 C287 1.364 . S
C286 C289 1.450 . S
C287 C282 1.367 . S
C287 C286 1.364 . S
C287 H347 0.931 . S
C288 C284 1.535 . S
C288 H348 0.959 . S
C288 H349 0.961 . S
C288 H350 0.959 . S
C289 C286 1.450 . S
C289 H351 0.960 . S
C289 H352 0.960 . S
C289 H353 0.960 . S
C290 C291 1.309 . S
C290 C295 1.304 . S
C290 O328 1.435 . S
C291 C290 1.309 . S
C291 C292 1.476 . S
C291 H355 0.930 . S
C292 C291 1.476 . S
C292 C293 1.400 . S
C292 C296 1.567 . S
C293 C292 1.400 . S
C293 C294 1.373 . S
C293 C315 1.432 . S
C294 C293 1.373 . S
C294 C295 1.339 . S
C294 C297 1.530 . S
C295 C290 1.304 . S
C295 C294 1.339 . S
C295 H356 0.930 . S
C296 C292 1.567 . S
C296 H357 0.961 . S
C296 H358 0.960 . S
C296 H359 0.958 . S
C297 C294 1.530 . S
C297 H360 0.961 . S
C297 H361 0.960 . S
C297 H362 0.960 . S
C298 C299 1.530 . S
C298 H364 0.961 . S
C298 H365 0.961 . S
C298 H366 0.959 . S
C299 C298 1.530 . S
C299 O327 1.412 . S
C299 H363 0.980 . S
C300 C301 1.288 . S
C300 C305 1.377 . S
C300 O327 1.393 . S
C301 C300 1.288 . S
C301 C302 1.369 . S
C301 H367 0.932 . S
C302 C301 1.369 . S
C302 C303 1.398 . S
C302 C306 1.527 . S
C303 C302 1.398 . S
C303 C304 1.380 . S
C303 C317 1.497 . S
C304 C303 1.380 . S
C304 C305 1.383 . S
C304 C307 1.603 . S
C305 C300 1.377 . S
C305 C304 1.383 . S
C305 H368 0.929 . S
C306 C302 1.527 . S
C306 H369 0.961 . S
C306 H370 0.959 . S
C306 H371 0.959 . S
C307 C304 1.603 . S
C307 H372 0.960 . S
C307 H373 0.962 . S
C307 H374 0.961 . S
C308 C275 1.587 . S
C308 C309 1.360 . S
C308 C321 1.412 . S
C309 C308 1.360 . S
C309 C310 1.365 . S
C309 H375 0.929 . S
C310 C285 1.553 . S
C310 C309 1.365 . S
C310 C311 1.404 . S
C311 C310 1.404 . S
C311 C312 1.395 . S
C311 C322 1.451 . S
C312 C311 1.395 . S
C312 C313 1.322 . S
C312 H376 0.930 . S
C313 C312 1.322 . S
C313 C314 1.459 . S
C313 H377 0.929 . S
C314 C313 1.459 . S
C314 C315 1.445 . S
C314 C323 1.395 . S
C315 C293 1.432 . S
C315 C314 1.445 . S
C315 C316 1.370 . S
C316 C315 1.370 . S
C316 C317 1.438 . S
C316 H378 0.930 . S
C317 C303 1.497 . S
C317 C316 1.438 . S
C317 C318 1.360 . S
C318 C317 1.360 . S
C318 C319 1.401 . S
C318 C323 1.446 . S
C319 C318 1.401 . S
C319 C320 1.347 . S
C319 H379 0.929 . S
C320 C319 1.347 . S
C320 C321 1.455 . S
C320 H380 0.930 . S
C321 C308 1.412 . S
C321 C320 1.455 . S
C321 C322 1.331 . S
C322 C311 1.451 . S
C322 C321 1.331 . S
C322 C323 1.497 . S
C323 C314 1.395 . S
C323 C318 1.446 . S
C323 C322 1.497 . S
C324 C325 1.582 . S
C324 H381 0.962 . S
C324 H382 0.959 . S
C324 H383 0.958 . S
C325 C324 1.582 . S
C325 O328 1.458 . S
C325 H354 0.980 . S
O326 C271 1.426 . S
O326 C272 1.334 . S
O327 C299 1.412 . S
O327 C300 1.393 . S
O328 C290 1.435 . S
O328 C325 1.458 . S
O329 C281 1.468 . S
O329 C282 1.408 . S
H330 C271 0.980 . S
H331 C270 0.959 . S
H332 C270 0.959 . S
H333 C270 0.960 . S
H334 C273 0.929 . S
H335 C277 0.929 . S
H336 C278 0.959 . S
H337 C278 0.961 . S
H338 C278 0.961 . S
H339 C279 0.960 . S
H340 C279 0.960 . S
H341 C279 0.961 . S
H342 C281 0.980 . S
H343 C280 0.961 . S
H344 C280 0.960 . S
H345 C280 0.959 . S
H346 C283 0.930 . S
H347 C287 0.931 . S
H348 C288 0.959 . S
H349 C288 0.961 . S
H350 C288 0.959 . S
H351 C289 0.960 . S
H352 C289 0.960 . S
H353 C289 0.960 . S
H354 C325 0.980 . S
H355 C291 0.930 . S
H356 C295 0.930 . S
H357 C296 0.961 . S
H358 C296 0.960 . S
H359 C296 0.958 . S
H360 C297 0.961 . S
H361 C297 0.960 . S
H362 C297 0.960 . S
H363 C299 0.980 . S
H364 C298 0.961 . S
H365 C298 0.961 . S
H366 C298 0.959 . S
H367 C301 0.932 . S
H368 C305 0.929 . S
H369 C306 0.961 . S
H370 C306 0.959 . S
H371 C306 0.959 . S
H372 C307 0.960 . S
H373 C307 0.962 . S
H374 C307 0.961 . S
H375 C309 0.929 . S
H376 C312 0.930 . S
H377 C313 0.929 . S
H378 C316 0.930 . S
H379 C319 0.929 . S
H380 C320 0.930 . S
H381 C324 0.962 . S
H382 C324 0.959 . S
H383 C324 0.958 . S
H384 C402 0.951 . S
H385 C404 0.951 . S
H386 C406 0.950 . S
H387 C407 0.950 . S
H388 C409 0.950 . S
H389 C412 0.950 . S
H390 C413 0.950 . S
H391 C415 0.950 . S
H392 C416 0.950 . S
H393 C417 0.951 . S
H394 C419 0.951 . S
H395 C421 0.950 . S
H396 C422 0.950 . S
H397 C424 0.950 . S
H398 C427 0.950 . S
H399 C428 0.950 . S
H400 C430 0.950 . S
H401 C431 0.950 . S
C402 H384 0.951 . S
C402 C403 1.366 . S
C402 C404 1.388 . S
C403 C402 1.366 . S
C403 C407 1.385 . S
C404 H385 0.951 . S
C404 C402 1.388 . S
C404 C405 1.366 . S
C405 C404 1.366 . S
C405 C406 1.414 . S
C405 C408 1.499 . S
C406 H386 0.950 . S
C406 C405 1.414 . S
C406 C407 1.374 . S
C407 H387 0.950 . S
C407 C403 1.385 . S
C407 C406 1.374 . S
C408 C405 1.499 . S
C408 C409 1.373 . S
C408 C410 1.389 . S
C409 H388 0.950 . S
C409 C408 1.373 . S
C409 C425 1.377 . S
C410 C408 1.389 . S
C410 C411 1.524 . S
C410 C424 1.377 . S
C411 C410 1.524 . S
C411 C412 1.397 1_455 S
C411 C416 1.363 . S
C412 H389 0.950 . S
C412 C411 1.397 1_655 S
C412 C413 1.334 . S
C413 H390 0.950 . S
C413 C412 1.334 . S
C413 C414 1.287 . S
C414 C413 1.287 . S
C414 C415 1.524 1_655 S
C414 H433 0.913 . S
C415 H391 0.950 . S
C415 C414 1.524 1_455 S
C415 C416 1.415 . S
C416 H392 0.950 . S
C416 C411 1.363 . S
C416 C415 1.415 . S
C417 H393 0.951 . S
C417 C418 1.366 . S
C417 C419 1.388 . S
C418 C417 1.366 . S
C418 C422 1.385 . S
C419 H394 0.951 . S
C419 C417 1.388 . S
C419 C420 1.366 . S
C420 C419 1.366 . S
C420 C421 1.414 . S
C420 C423 1.499 . S
C421 H395 0.950 . S
C421 C420 1.414 . S
C421 C422 1.374 . S
C422 H396 0.950 . S
C422 C418 1.385 . S
C422 C421 1.374 . S
C423 C420 1.499 . S
C423 C424 1.373 . S
C423 C425 1.389 . S
C424 H397 0.950 . S
C424 C410 1.377 . S
C424 C423 1.373 . S
C425 C409 1.377 . S
C425 C423 1.389 . S
C425 C426 1.524 . S
C426 C425 1.524 . S
C426 C427 1.397 . S
C426 C431 1.363 . S
C427 H398 0.950 . S
C427 C426 1.397 . S
C427 C428 1.334 . S
C428 H399 0.950 . S
C428 C427 1.334 . S
C428 C429 1.287 . S
C429 C428 1.287 . S
C429 C430 1.524 . S
C429 H432 0.999 . S
C430 H400 0.950 . S
C430 C429 1.524 . S
C430 C431 1.415 . S
C431 H401 0.950 . S
C431 C426 1.363 . S
C431 C430 1.415 . S
H432 C429 0.999 . S
H433 C414 0.913 . S
H434 C452 0.951 . S
H435 C454 0.951 . S
H436 C456 0.950 . S
H437 C457 0.950 . S
H438 C459 0.950 . S
H439 C462 0.950 . S
H440 C463 0.950 . S
H441 C465 0.950 . S
H442 C466 0.950 . S
H443 C467 0.951 . S
H444 C469 0.951 . S
H445 C471 0.950 . S
H446 C472 0.950 . S
H447 C474 0.950 . S
H448 C477 0.950 . S
H449 C478 0.950 . S
H450 C480 0.950 . S
H451 C481 0.950 . S
C452 H434 0.951 . S
C452 C453 1.366 . S
C452 C454 1.388 . S
C453 C452 1.366 . S
C453 C457 1.385 . S
C454 H435 0.951 . S
C454 C452 1.388 . S
C454 C455 1.366 . S
C455 C454 1.366 . S
C455 C456 1.414 . S
C455 C458 1.499 . S
C456 H436 0.950 . S
C456 C455 1.414 . S
C456 C457 1.374 . S
C457 H437 0.950 . S
C457 C453 1.385 . S
C457 C456 1.374 . S
C458 C455 1.499 . S
C458 C459 1.373 . S
C458 C460 1.389 . S
C459 H438 0.950 . S
C459 C458 1.373 . S
C459 C475 1.377 . S
C460 C458 1.389 . S
C460 C461 1.524 . S
C460 C474 1.377 . S
C461 C460 1.524 . S
C461 C462 1.397 1_545 S
C461 C466 1.363 . S
C462 H439 0.950 . S
C462 C461 1.397 1_565 S
C462 C463 1.334 . S
C463 H440 0.950 . S
C463 C462 1.334 . S
C463 C464 1.287 . S
C464 C463 1.287 . S
C464 C465 1.524 1_565 S
C464 H483 0.913 . S
C465 H441 0.950 . S
C465 C464 1.524 1_545 S
C465 C466 1.415 . S
C466 H442 0.950 . S
C466 C461 1.363 . S
C466 C465 1.415 . S
C467 H443 0.951 . S
C467 C468 1.366 . S
C467 C469 1.388 . S
C468 C467 1.366 . S
C468 C472 1.385 . S
C469 H444 0.951 . S
C469 C467 1.388 . S
C469 C470 1.366 . S
C470 C469 1.366 . S
C470 C471 1.414 . S
C470 C473 1.499 . S
C471 H445 0.950 . S
C471 C470 1.414 . S
C471 C472 1.374 . S
C472 H446 0.950 . S
C472 C468 1.385 . S
C472 C471 1.374 . S
C473 C470 1.499 . S
C473 C474 1.373 . S
C473 C475 1.389 . S
C474 H447 0.950 . S
C474 C460 1.377 . S
C474 C473 1.373 . S
C475 C459 1.377 . S
C475 C473 1.389 . S
C475 C476 1.524 . S
C476 C475 1.524 . S
C476 C477 1.397 . S
C476 C481 1.363 . S
C477 H448 0.950 . S
C477 C476 1.397 . S
C477 C478 1.334 . S
C478 H449 0.950 . S
C478 C477 1.334 . S
C478 C479 1.287 . S
C479 C478 1.287 . S
C479 C480 1.524 . S
C479 H482 0.999 . S
C480 H450 0.950 . S
C480 C479 1.524 . S
C480 C481 1.415 . S
C481 H451 0.950 . S
C481 C476 1.363 . S
C481 C480 1.415 . S
H482 C479 0.999 . S
H483 C464 0.913 . S
H484 C502 0.951 1_455 S
H485 C504 0.951 . S
H486 C506 0.950 . S
H487 C507 0.950 . S
H488 C509 0.950 . S
H489 C512 0.950 . S
H490 C513 0.950 . S
H491 C515 0.950 . S
H492 C516 0.950 . S
H493 C517 0.951 . S
H494 C519 0.951 . S
H495 C521 0.950 . S
H496 C522 0.950 . S
H497 C524 0.950 . S
H498 C527 0.950 . S
H499 C528 0.950 . S
H500 C530 0.950 . S
H501 C531 0.950 . S
C502 H484 0.951 1_655 S
C502 C503 1.366 . S
C502 C504 1.388 . S
C503 C502 1.366 . S
C503 C507 1.385 . S
C504 H485 0.951 . S
C504 C502 1.388 . S
C504 C505 1.366 . S
C505 C504 1.366 . S
C505 C506 1.414 . S
C505 C508 1.499 . S
C506 H486 0.950 . S
C506 C505 1.414 . S
C506 C507 1.374 . S
C507 H487 0.950 . S
C507 C503 1.385 . S
C507 C506 1.374 . S
C508 C505 1.499 . S
C508 C509 1.373 . S
C508 C510 1.389 . S
C509 H488 0.950 . S
C509 C508 1.373 . S
C509 C525 1.377 . S
C510 C508 1.389 . S
C510 C511 1.524 . S
C510 C524 1.377 . S
C511 C510 1.524 . S
C511 C512 1.397 . S
C511 C516 1.363 . S
C512 H489 0.950 . S
C512 C511 1.397 . S
C512 C513 1.334 . S
C513 H490 0.950 . S
C513 C512 1.334 . S
C513 C514 1.287 . S
C514 C513 1.287 . S
C514 C515 1.524 . S
C514 H533 0.913 . S
C515 H491 0.950 . S
C515 C514 1.524 . S
C515 C516 1.415 . S
C516 H492 0.950 . S
C516 C511 1.363 . S
C516 C515 1.415 . S
C517 H493 0.951 . S
C517 C518 1.366 . S
C517 C519 1.388 . S
C518 C517 1.366 . S
C518 C522 1.385 . S
C519 H494 0.951 . S
C519 C517 1.388 . S
C519 C520 1.366 . S
C520 C519 1.366 . S
C520 C521 1.414 . S
C520 C523 1.499 . S
C521 H495 0.950 . S
C521 C520 1.414 . S
C521 C522 1.374 . S
C522 H496 0.950 . S
C522 C518 1.385 . S
C522 C521 1.374 . S
C523 C520 1.499 . S
C523 C524 1.373 . S
C523 C525 1.389 . S
C524 H497 0.950 . S
C524 C510 1.377 . S
C524 C523 1.373 . S
C525 C509 1.377 . S
C525 C523 1.389 . S
C525 C526 1.524 . S
C526 C525 1.524 . S
C526 C527 1.397 . S
C526 C531 1.363 . S
C527 H498 0.950 . S
C527 C526 1.397 . S
C527 C528 1.334 . S
C528 H499 0.950 . S
C528 C527 1.334 . S
C528 C529 1.287 . S
C529 C528 1.287 . S
C529 C530 1.524 . S
C529 H532 0.999 . S
C530 H500 0.950 . S
C530 C529 1.524 . S
C530 C531 1.415 . S
C531 H501 0.950 . S
C531 C526 1.363 . S
C531 C530 1.415 . S
H532 C529 0.999 . S
H533 C514 0.913 . S
H534 C552 0.951 1_545 S
H535 C554 0.951 . S
H536 C556 0.950 . S
H537 C557 0.950 . S
H538 C559 0.950 . S
H539 C562 0.950 . S
H540 C563 0.950 . S
H541 C565 0.950 . S
H542 C566 0.950 . S
H543 C567 0.951 . S
H544 C569 0.951 . S
H545 C571 0.950 . S
H546 C572 0.950 . S
H547 C574 0.950 . S
H548 C577 0.950 1_455 S
H549 C578 0.950 . S
H550 C580 0.950 . S
H551 C581 0.950 . S
C552 H534 0.951 1_565 S
C552 C553 1.366 . S
C552 C554 1.388 . S
C553 C552 1.366 . S
C553 C557 1.385 . S
C554 H535 0.951 . S
C554 C552 1.388 . S
C554 C555 1.366 . S
C555 C554 1.366 . S
C555 C556 1.414 . S
C555 C558 1.499 . S
C556 H536 0.950 . S
C556 C555 1.414 . S
C556 C557 1.374 . S
C557 H537 0.950 . S
C557 C553 1.385 . S
C557 C556 1.374 . S
C558 C555 1.499 . S
C558 C559 1.373 . S
C558 C560 1.389 . S
C559 H538 0.950 . S
C559 C558 1.373 . S
C559 C575 1.377 . S
C560 C558 1.389 . S
C560 C561 1.524 . S
C560 C574 1.377 . S
C561 C560 1.524 . S
C561 C562 1.397 . S
C561 C566 1.363 . S
C562 H539 0.950 . S
C562 C561 1.397 . S
C562 C563 1.334 . S
C563 H540 0.950 . S
C563 C562 1.334 . S
C563 C564 1.287 . S
C564 C563 1.287 . S
C564 C565 1.524 . S
C564 H583 0.913 . S
C565 H541 0.950 . S
C565 C564 1.524 . S
C565 C566 1.415 . S
C566 H542 0.950 . S
C566 C561 1.363 . S
C566 C565 1.415 . S
C567 H543 0.951 . S
C567 C568 1.366 . S
C567 C569 1.388 . S
C568 C567 1.366 . S
C568 C572 1.385 . S
C569 H544 0.951 . S
C569 C567 1.388 . S
C569 C570 1.366 . S
C570 C569 1.366 . S
C570 C571 1.414 . S
C570 C573 1.499 . S
C571 H545 0.950 . S
C571 C570 1.414 . S
C571 C572 1.374 . S
C572 H546 0.950 . S
C572 C568 1.385 . S
C572 C571 1.374 . S
C573 C570 1.499 . S
C573 C574 1.373 . S
C573 C575 1.389 . S
C574 H547 0.950 . S
C574 C560 1.377 . S
C574 C573 1.373 . S
C575 C559 1.377 . S
C575 C573 1.389 . S
C575 C576 1.524 1_455 S
C576 C575 1.524 1_655 S
C576 C577 1.397 . S
C576 C581 1.363 . S
C577 H548 0.950 1_655 S
C577 C576 1.397 . S
C577 C578 1.334 . S
C578 H549 0.950 . S
C578 C577 1.334 . S
C578 C579 1.287 . S
C579 C578 1.287 . S
C579 C580 1.524 . S
C579 H582 0.999 . S
C580 H550 0.950 . S
C580 C579 1.524 . S
C580 C581 1.415 . S
C581 H551 0.950 . S
C581 C576 1.363 . S
C581 C580 1.415 . S
H582 C579 0.999 . S
H583 C564 0.913 . S
H584 C602 0.951 . S
H585 C604 0.951 . S
H586 C606 0.950 . S
H587 C607 0.950 . S
H588 C609 0.950 . S
H589 C612 0.950 . S
H590 C613 0.950 . S
H591 C615 0.950 . S
H592 C616 0.950 . S
H593 C617 0.951 . S
H594 C619 0.951 . S
H595 C621 0.950 . S
H596 C622 0.950 . S
H597 C624 0.950 . S
H598 C627 0.950 . S
H599 C628 0.950 . S
H600 C630 0.950 . S
H601 C631 0.950 . S
C602 H584 0.951 . S
C602 C603 1.366 . S
C602 C604 1.388 . S
C603 C602 1.366 . S
C603 C607 1.385 . S
C604 H585 0.951 . S
C604 C602 1.388 . S
C604 C605 1.366 . S
C605 C604 1.366 . S
C605 C606 1.414 . S
C605 C608 1.499 . S
C606 H586 0.950 . S
C606 C605 1.414 . S
C606 C607 1.374 . S
C607 H587 0.950 . S
C607 C603 1.385 . S
C607 C606 1.374 . S
C608 C605 1.499 . S
C608 C609 1.373 . S
C608 C610 1.389 . S
C609 H588 0.950 . S
C609 C608 1.373 . S
C609 C625 1.377 . S
C610 C608 1.389 . S
C610 C611 1.524 . S
C610 C624 1.377 . S
C611 C610 1.524 . S
C611 C612 1.397 1_545 S
C611 C616 1.363 . S
C612 H589 0.950 . S
C612 C611 1.397 1_565 S
C612 C613 1.334 . S
C613 H590 0.950 . S
C613 C612 1.334 . S
C613 C614 1.287 . S
C614 C613 1.287 . S
C614 C615 1.524 . S
C614 H633 0.913 . S
C615 H591 0.950 . S
C615 C614 1.524 . S
C615 C616 1.415 1_565 S
C616 H592 0.950 . S
C616 C611 1.363 . S
C616 C615 1.415 1_545 S
C617 H593 0.951 . S
C617 C618 1.366 . S
C617 C619 1.388 . S
C618 C617 1.366 . S
C618 C622 1.385 . S
C619 H594 0.951 . S
C619 C617 1.388 . S
C619 C620 1.366 . S
C620 C619 1.366 . S
C620 C621 1.414 . S
C620 C623 1.499 . S
C621 H595 0.950 . S
C621 C620 1.414 . S
C621 C622 1.374 . S
C622 H596 0.950 . S
C622 C618 1.385 . S
C622 C621 1.374 . S
C623 C620 1.499 . S
C623 C624 1.373 . S
C623 C625 1.389 . S
C624 H597 0.950 . S
C624 C610 1.377 . S
C624 C623 1.373 . S
C625 C609 1.377 . S
C625 C623 1.389 . S
C625 C626 1.524 . S
C626 C625 1.524 . S
C626 C627 1.397 . S
C626 C631 1.363 . S
C627 H598 0.950 . S
C627 C626 1.397 . S
C627 C628 1.334 . S
C628 H599 0.950 . S
C628 C627 1.334 . S
C628 C629 1.287 . S
C629 C628 1.287 . S
C629 C630 1.524 . S
C629 H632 0.999 . S
C630 H600 0.950 . S
C630 C629 1.524 . S
C630 C631 1.415 . S
C631 H601 0.950 . S
C631 C626 1.363 . S
C631 C630 1.415 . S
H632 C629 0.999 . S
H633 C614 0.913 . S
H634 C652 0.951 . S
H635 C654 0.951 . S
H636 C656 0.950 . S
H637 C657 0.950 . S
H638 C659 0.950 . S
H639 C662 0.950 . S
H640 C663 0.950 . S
H641 C665 0.950 . S
H642 C666 0.950 . S
H643 C667 0.951 . S
H644 C669 0.951 . S
H645 C671 0.950 . S
H646 C672 0.950 . S
H647 C674 0.950 . S
H648 C677 0.950 . S
H649 C678 0.950 . S
H650 C680 0.950 . S
H651 C681 0.950 . S
C652 H634 0.951 . S
C652 C653 1.366 . S
C652 C654 1.388 . S
C653 C652 1.366 . S
C653 C657 1.385 . S
C654 H635 0.951 . S
C654 C652 1.388 . S
C654 C655 1.366 . S
C655 C654 1.366 . S
C655 C656 1.414 . S
C655 C658 1.499 . S
C656 H636 0.950 . S
C656 C655 1.414 . S
C656 C657 1.374 . S
C657 H637 0.950 . S
C657 C653 1.385 . S
C657 C656 1.374 . S
C658 C655 1.499 . S
C658 C659 1.373 . S
C658 C660 1.389 . S
C659 H638 0.950 . S
C659 C658 1.373 . S
C659 C675 1.377 . S
C660 C658 1.389 . S
C660 C661 1.524 . S
C660 C674 1.377 . S
C661 C660 1.524 . S
C661 C662 1.397 . S
C661 C666 1.363 . S
C662 H639 0.950 . S
C662 C661 1.397 . S
C662 C663 1.334 . S
C663 H640 0.950 . S
C663 C662 1.334 . S
C663 C664 1.287 . S
C664 C663 1.287 . S
C664 C665 1.524 . S
C664 H683 0.913 . S
C665 H641 0.950 . S
C665 C664 1.524 . S
C665 C666 1.415 . S
C666 H642 0.950 . S
C666 C661 1.363 . S
C666 C665 1.415 . S
C667 H643 0.951 . S
C667 C668 1.366 . S
C667 C669 1.388 . S
C668 C667 1.366 . S
C668 C672 1.385 . S
C669 H644 0.951 . S
C669 C667 1.388 . S
C669 C670 1.366 . S
C670 C669 1.366 . S
C670 C671 1.414 . S
C670 C673 1.499 . S
C671 H645 0.950 . S
C671 C670 1.414 . S
C671 C672 1.374 . S
C672 H646 0.950 . S
C672 C668 1.385 . S
C672 C671 1.374 . S
C673 C670 1.499 . S
C673 C674 1.373 . S
C673 C675 1.389 . S
C674 H647 0.950 . S
C674 C660 1.377 . S
C674 C673 1.373 . S
C675 C659 1.377 . S
C675 C673 1.389 . S
C675 C676 1.524 . S
C676 C675 1.524 . S
C676 C677 1.397 . S
C676 C681 1.363 . S
C677 H648 0.950 . S
C677 C676 1.397 . S
C677 C678 1.334 . S
C678 H649 0.950 . S
C678 C677 1.334 . S
C678 C679 1.287 . S
C679 C678 1.287 . S
C679 C680 1.524 . S
C679 H682 0.999 . S
C680 H650 0.950 . S
C680 C679 1.524 . S
C680 C681 1.415 . S
C681 H651 0.950 . S
C681 C676 1.363 . S
C681 C680 1.415 . S
H682 C679 0.999 . S
H683 C664 0.913 . S
H684 C702 0.945 1_455 S
H685 C704 0.951 . S
H686 C706 0.950 . S
H687 C707 0.950 . S
H688 C709 0.950 . S
H689 C712 0.950 . S
H690 C713 0.950 . S
H691 C715 0.950 . S
H692 C716 0.950 . S
H693 C717 0.951 . S
H694 C719 0.951 . S
H695 C721 0.950 . S
H696 C722 0.950 . S
H697 C724 0.950 . S
H698 C727 0.950 . S
H699 C728 0.950 . S
H700 C730 0.950 . S
H701 C731 0.950 . S
C702 H684 0.945 1_655 S
C702 C703 1.366 . S
C702 C704 1.388 . S
C703 C702 1.366 . S
C703 C707 1.385 . S
C704 H685 0.951 . S
C704 C702 1.388 . S
C704 C705 1.366 . S
C705 C704 1.366 . S
C705 C706 1.414 . S
C705 C708 1.499 . S
C706 H686 0.950 . S
C706 C705 1.414 . S
C706 C707 1.374 . S
C707 H687 0.950 . S
C707 C703 1.385 . S
C707 C706 1.374 . S
C708 C705 1.499 . S
C708 C709 1.373 . S
C708 C710 1.389 . S
C709 H688 0.950 . S
C709 C708 1.373 . S
C709 C725 1.377 . S
C710 C708 1.389 . S
C710 C711 1.524 . S
C710 C724 1.377 . S
C711 C710 1.524 . S
C711 C712 1.397 . S
C711 C716 1.363 . S
C712 H689 0.950 . S
C712 C711 1.397 . S
C712 C713 1.334 . S
C713 H690 0.950 . S
C713 C712 1.334 . S
C713 C714 1.287 . S
C714 C713 1.287 . S
C714 C715 1.524 . S
C714 H733 0.913 . S
C715 H691 0.950 . S
C715 C714 1.524 . S
C715 C716 1.415 . S
C716 H692 0.950 . S
C716 C711 1.363 . S
C716 C715 1.415 . S
C717 H693 0.951 . S
C717 C718 1.366 . S
C717 C719 1.388 . S
C718 C717 1.366 . S
C718 C722 1.385 . S
C719 H694 0.951 . S
C719 C717 1.388 . S
C719 C720 1.366 . S
C720 C719 1.366 . S
C720 C721 1.414 . S
C720 C723 1.499 . S
C721 H695 0.950 . S
C721 C720 1.414 . S
C721 C722 1.374 . S
C722 H696 0.950 . S
C722 C718 1.385 . S
C722 C721 1.374 . S
C723 C720 1.499 . S
C723 C724 1.373 . S
C723 C725 1.389 . S
C724 H697 0.950 . S
C724 C710 1.377 . S
C724 C723 1.373 . S
C725 C709 1.377 . S
C725 C723 1.389 . S
C725 C726 1.524 . S
C726 C725 1.524 . S
C726 C727 1.397 . S
C726 C731 1.363 1_545 S
C727 H698 0.950 . S
C727 C726 1.397 . S
C727 C728 1.334 1_545 S
C728 H699 0.950 . S
C728 C727 1.334 1_565 S
C728 C729 1.287 . S
C729 C728 1.287 . S
C729 C730 1.524 . S
C729 H732 0.999 . S
C730 H700 0.950 . S
C730 C729 1.524 . S
C730 C731 1.415 . S
C731 H701 0.950 . S
C731 C726 1.363 1_565 S
C731 C730 1.415 . S
H732 C729 0.999 . S
H733 C714 0.913 . S
H734 C752 0.951 . S
H735 C754 0.951 . S
H736 C756 0.950 . S
H737 C757 0.950 . S
H738 C759 0.950 . S
H739 C762 0.950 1_556 S
H740 C763 0.950 . S
H741 C765 0.950 . S
H742 C766 0.950 . S
H743 C767 0.951 . S
H744 C769 0.951 . S
H745 C771 0.950 . S
H746 C772 0.950 . S
H747 C774 0.950 . S
H748 C777 0.950 . S
H749 C778 0.950 . S
H750 C780 0.950 . S
H751 C781 0.968 . S
C752 H734 0.951 . S
C752 C753 1.366 1_565 S
C752 C754 1.388 . S
C753 C752 1.366 1_545 S
C753 C757 1.385 . S
C754 H735 0.951 . S
C754 C752 1.388 . S
C754 C755 1.366 . S
C755 C754 1.366 . S
C755 C756 1.414 . S
C755 C758 1.499 . S
C756 H736 0.950 . S
C756 C755 1.414 . S
C756 C757 1.374 1_565 S
C757 H737 0.950 . S
C757 C753 1.385 . S
C757 C756 1.374 1_545 S
C758 C755 1.499 . S
C758 C759 1.373 . S
C758 C760 1.389 . S
C759 H738 0.950 . S
C759 C758 1.373 . S
C759 C775 1.377 . S
C760 C758 1.389 . S
C760 C761 1.524 . S
C760 C774 1.377 1_554 S
C761 C760 1.524 . S
C761 C762 1.395 . S
C761 C766 1.363 . S
C762 H739 0.950 1_554 S
C762 C761 1.395 . S
C762 C763 1.335 1_654 S
C763 H740 0.950 . S
C763 C762 1.335 1_456 S
C763 C764 1.287 . S
C764 C763 1.287 . S
C764 C765 1.521 1_456 S
C764 H783 0.909 . S
C765 H741 0.950 . S
C765 C764 1.521 1_654 S
C765 C766 1.415 . S
C766 H742 0.950 . S
C766 C761 1.363 . S
C766 C765 1.415 . S
C767 H743 0.951 . S
C767 C768 1.366 . S
C767 C769 1.388 . S
C768 C767 1.366 . S
C768 C772 1.385 . S
C769 H744 0.951 . S
C769 C767 1.388 . S
C769 C770 1.366 . S
C770 C769 1.366 . S
C770 C771 1.414 . S
C770 C773 1.499 . S
C771 H745 0.950 . S
C771 C770 1.414 . S
C771 C772 1.374 . S
C772 H746 0.950 . S
C772 C768 1.385 . S
C772 C771 1.374 . S
C773 C770 1.499 . S
C773 C774 1.373 . S
C773 C775 1.389 1_556 S
C774 H747 0.950 . S
C774 C760 1.377 1_556 S
C774 C773 1.373 . S
C775 C759 1.377 . S
C775 C773 1.389 1_554 S
C775 C776 1.524 . S
C776 C775 1.524 . S
C776 C777 1.397 . S
C776 C781 1.363 . S
C777 H748 0.950 . S
C777 C776 1.397 . S
C777 C778 1.334 . S
C778 H749 0.950 . S
C778 C777 1.334 . S
C778 C779 1.287 . S
C779 C778 1.287 . S
C779 C780 1.524 . S
C779 H782 0.999 . S
C780 H750 0.950 . S
C780 C779 1.524 . S
C780 C781 1.415 . S
C781 H751 0.968 . S
C781 C776 1.363 . S
C781 C780 1.415 . S
H782 C779 0.999 . S
H783 C764 0.909 . S
H784 C802 0.951 . S
H785 C804 0.951 . S
H786 C806 0.950 1_455 S
H787 C807 0.950 . S
H788 C809 0.950 . S
H789 C812 0.950 . S
H790 C813 0.950 . S
H791 C815 0.950 . S
H792 C816 0.950 . S
H793 C817 0.951 . S
H794 C819 0.951 . S
H795 C821 0.950 . S
H796 C822 0.950 . S
H797 C824 0.950 . S
H798 C827 0.950 . S
H799 C828 0.950 . S
H800 C830 0.950 . S
H801 C831 0.950 . S
C802 H784 0.951 . S
C802 C803 1.366 . S
C802 C804 1.388 . S
C803 C802 1.366 . S
C803 C807 1.385 . S
C804 H785 0.951 . S
C804 C802 1.388 . S
C804 C805 1.366 . S
C805 C804 1.366 . S
C805 C806 1.414 . S
C805 C808 1.499 . S
C806 H786 0.950 1_655 S
C806 C805 1.414 . S
C806 C807 1.374 . S
C807 H787 0.950 . S
C807 C803 1.385 . S
C807 C806 1.374 . S
C808 C805 1.499 . S
C808 C809 1.373 1_655 S
C808 C810 1.389 . S
C809 H788 0.950 . S
C809 C808 1.373 1_455 S
C809 C825 1.377 . S
C810 C808 1.389 . S
C810 C811 1.524 . S
C810 C824 1.377 . S
C811 C810 1.524 . S
C811 C812 1.397 . S
C811 C816 1.363 . S
C812 H789 0.950 . S
C812 C811 1.397 . S
C812 C813 1.334 . S
C813 H790 0.950 . S
C813 C812 1.334 . S
C813 C814 1.287 . S
C814 C813 1.287 . S
C814 C815 1.524 . S
C814 H833 0.913 . S
C815 H791 0.950 . S
C815 C814 1.524 . S
C815 C816 1.415 . S
C816 H792 0.950 . S
C816 C811 1.363 . S
C816 C815 1.415 . S
C817 H793 0.951 . S
C817 C818 1.366 . S
C817 C819 1.388 . S
C818 C817 1.366 . S
C818 C822 1.385 . S
C819 H794 0.951 . S
C819 C817 1.388 . S
C819 C820 1.366 . S
C820 C819 1.366 . S
C820 C821 1.414 . S
C820 C823 1.499 . S
C821 H795 0.950 . S
C821 C820 1.414 . S
C821 C822 1.374 . S
C822 H796 0.950 . S
C822 C818 1.385 . S
C822 C821 1.374 . S
C823 C820 1.499 . S
C823 C824 1.373 1_455 S
C823 C825 1.389 . S
C824 H797 0.950 . S
C824 C810 1.377 . S
C824 C823 1.373 1_655 S
C825 C809 1.377 . S
C825 C823 1.389 . S
C825 C826 1.524 . S
C826 C825 1.524 . S
C826 C827 1.397 . S
C826 C831 1.363 . S
C827 H798 0.950 . S
C827 C826 1.397 . S
C827 C828 1.334 . S
C828 H799 0.950 . S
C828 C827 1.334 . S
C828 C829 1.287 . S
C829 C828 1.287 . S
C829 C830 1.524 . S
C829 H832 0.999 . S
C830 H800 0.950 . S
C830 C829 1.524 . S
C830 C831 1.415 . S
C831 H801 0.950 . S
C831 C826 1.363 . S
C831 C830 1.415 . S
H832 C829 0.999 . S
H833 C814 0.913 . S
H834 C852 0.951 . S
H835 C854 0.951 . S
H836 C856 0.950 . S
H837 C857 0.950 . S
H838 C859 0.950 . S
H839 C862 0.950 . S
H840 C863 0.950 . S
H841 C865 0.950 . S
H842 C866 0.950 . S
H843 C867 0.951 . S
H844 C869 0.951 . S
H845 C871 0.950 . S
H846 C872 0.950 . S
H847 C874 0.950 . S
H848 C877 0.950 . S
H849 C878 0.950 . S
H850 C880 0.950 . S
H851 C881 0.950 . S
C852 H834 0.951 . S
C852 C853 1.366 . S
C852 C854 1.388 . S
C853 C852 1.366 . S
C853 C857 1.385 . S
C854 H835 0.951 . S
C854 C852 1.388 . S
C854 C855 1.366 . S
C855 C854 1.366 . S
C855 C856 1.414 . S
C855 C858 1.499 . S
C856 H836 0.950 . S
C856 C855 1.414 . S
C856 C857 1.374 . S
C857 H837 0.950 . S
C857 C853 1.385 . S
C857 C856 1.374 . S
C858 C855 1.499 . S
C858 C859 1.373 . S
C858 C860 1.389 . S
C859 H838 0.950 . S
C859 C858 1.373 . S
C859 C875 1.377 . S
C860 C858 1.389 . S
C860 C861 1.524 1_545 S
C860 C874 1.377 . S
C861 C860 1.524 1_565 S
C861 C862 1.397 . S
C861 C866 1.363 . S
C862 H839 0.950 . S
C862 C861 1.397 . S
C862 C863 1.334 . S
C863 H840 0.950 . S
C863 C862 1.334 . S
C863 C864 1.287 . S
C864 C863 1.287 . S
C864 C865 1.524 . S
C864 H883 0.913 . S
C865 H841 0.950 . S
C865 C864 1.524 . S
C865 C866 1.415 . S
C866 H842 0.950 . S
C866 C861 1.363 . S
C866 C865 1.415 . S
C867 H843 0.951 . S
C867 C868 1.366 . S
C867 C869 1.388 . S
C868 C867 1.366 . S
C868 C872 1.385 . S
C869 H844 0.951 . S
C869 C867 1.388 . S
C869 C870 1.366 . S
C870 C869 1.366 . S
C870 C871 1.414 . S
C870 C873 1.499 . S
C871 H845 0.950 . S
C871 C870 1.414 . S
C871 C872 1.374 . S
C872 H846 0.950 . S
C872 C868 1.385 . S
C872 C871 1.374 . S
C873 C870 1.499 . S
C873 C874 1.373 . S
C873 C875 1.389 . S
C874 H847 0.950 . S
C874 C860 1.377 . S
C874 C873 1.373 . S
C875 C859 1.377 . S
C875 C873 1.389 . S
C875 C876 1.524 . S
C876 C875 1.524 . S
C876 C877 1.397 . S
C876 C881 1.363 . S
C877 H848 0.950 . S
C877 C876 1.397 . S
C877 C878 1.334 . S
C878 H849 0.950 . S
C878 C877 1.334 . S
C878 C879 1.287 . S
C879 C878 1.287 . S
C879 C880 1.524 . S
C879 H882 0.999 . S
C880 H850 0.950 . S
C880 C879 1.524 . S
C880 C881 1.415 . S
C881 H851 0.950 . S
C881 C876 1.363 . S
C881 C880 1.415 . S
H882 C879 0.999 . S
H883 C864 0.913 . S
H884 C902 0.951 . S
H885 C904 0.951 . S
H886 C906 0.950 . S
H887 C907 0.950 . S
H888 C909 0.950 . S
H889 C912 0.950 . S
H890 C913 0.950 . S
H891 C915 0.950 . S
H892 C916 0.950 . S
H893 C917 0.951 . S
H894 C919 0.951 . S
H895 C921 0.950 . S
H896 C922 0.950 . S
H897 C924 0.950 . S
H898 C927 0.950 . S
H899 C928 0.950 . S
H900 C930 0.950 . S
H901 C931 0.950 . S
C902 H884 0.951 . S
C902 C903 1.366 . S
C902 C904 1.388 . S
C903 C902 1.366 . S
C903 C907 1.385 . S
C904 H885 0.951 . S
C904 C902 1.388 . S
C904 C905 1.366 . S
C905 C904 1.366 . S
C905 C906 1.414 . S
C905 C908 1.499 . S
C906 H886 0.950 . S
C906 C905 1.414 . S
C906 C907 1.374 . S
C907 H887 0.950 . S
C907 C903 1.385 . S
C907 C906 1.374 . S
C908 C905 1.499 . S
C908 C909 1.338 1_554 S
C908 C910 1.389 . S
C909 H888 0.950 . S
C909 C908 1.338 1_556 S
C909 C925 1.413 . S
C910 C908 1.389 . S
C910 C911 1.524 . S
C910 C924 1.342 1_554 S
C911 C910 1.524 . S
C911 C912 1.397 . S
C911 C916 1.363 . S
C912 H889 0.950 . S
C912 C911 1.397 . S
C912 C913 1.334 . S
C913 H890 0.950 . S
C913 C912 1.334 . S
C913 C914 1.287 . S
C914 C913 1.287 . S
C914 C915 1.524 . S
C914 H933 0.913 . S
C915 H891 0.950 . S
C915 C914 1.524 . S
C915 C916 1.415 . S
C916 H892 0.950 . S
C916 C911 1.363 . S
C916 C915 1.415 . S
C917 H893 0.951 . S
C917 C918 1.366 . S
C917 C919 1.388 . S
C918 C917 1.366 . S
C918 C922 1.385 . S
C919 H894 0.951 . S
C919 C917 1.388 . S
C919 C920 1.366 . S
C920 C919 1.366 . S
C920 C921 1.414 . S
C920 C923 1.499 . S
C921 H895 0.950 . S
C921 C920 1.414 . S
C921 C922 1.374 . S
C922 H896 0.950 . S
C922 C918 1.385 . S
C922 C921 1.374 . S
C923 C920 1.499 . S
C923 C924 1.408 . S
C923 C925 1.389 . S
C924 H897 0.950 . S
C924 C910 1.342 1_556 S
C924 C923 1.408 . S
C925 C909 1.413 . S
C925 C923 1.389 . S
C925 C926 1.524 . S
C926 C925 1.524 . S
C926 C927 1.397 . S
C926 C931 1.363 . S
C927 H898 0.950 . S
C927 C926 1.397 . S
C927 C928 1.334 . S
C928 H899 0.950 . S
C928 C927 1.334 . S
C928 C929 1.287 . S
C929 C928 1.287 . S
C929 C930 1.524 . S
C929 H932 0.999 . S
C930 H900 0.950 . S
C930 C929 1.524 . S
C930 C931 1.415 . S
C931 H901 0.950 . S
C931 C926 1.363 . S
C931 C930 1.415 . S
H932 C929 0.999 . S
H933 C914 0.913 . S
H934 C952 0.965 . S
H935 C954 0.983 . S
H936 C956 0.950 . S
H937 C957 0.950 . S
H938 C959 0.950 . S
H939 C962 0.950 1_455 S
H940 C963 0.950 . S
H941 C965 0.950 . S
H942 C966 0.950 . S
H943 C967 0.951 . S
H944 C969 0.951 . S
H945 C971 0.950 . S
H946 C972 0.950 . S
H947 C974 0.950 1_655 S
H948 C977 0.950 . S
H949 C978 0.950 . S
H950 C980 0.950 . S
H951 C981 0.950 . S
C952 H934 0.965 . S
C952 C953 1.343 1_655 S
C952 C954 1.384 . S
C953 C952 1.343 1_455 S
C953 C957 1.385 . S
C954 H935 0.983 . S
C954 C952 1.384 . S
C954 C955 1.346 1_655 S
C955 C954 1.346 1_455 S
C955 C956 1.414 . S
C955 C958 1.499 . S
C956 H936 0.950 . S
C956 C955 1.414 . S
C956 C957 1.374 . S
C957 H937 0.950 . S
C957 C953 1.385 . S
C957 C956 1.374 . S
C958 C955 1.499 . S
C958 C959 1.373 . S
C958 C960 1.389 . S
C959 H938 0.950 . S
C959 C958 1.373 . S
C959 C975 1.377 . S
C960 C958 1.389 . S
C960 C961 1.524 1_455 S
C960 C974 1.377 . S
C961 C960 1.524 1_655 S
C961 C962 1.397 . S
C961 C966 1.363 . S
C962 H939 0.950 1_655 S
C962 C961 1.397 . S
C962 C963 1.334 . S
C963 H940 0.950 . S
C963 C962 1.334 . S
C963 C964 1.287 . S
C964 C963 1.287 . S
C964 C965 1.524 . S
C964 H983 0.913 . S
C965 H941 0.950 . S
C965 C964 1.524 . S
C965 C966 1.415 . S
C966 H942 0.950 . S
C966 C961 1.363 . S
C966 C965 1.415 . S
C967 H943 0.951 . S
C967 C968 1.366 . S
C967 C969 1.388 . S
C968 C967 1.366 . S
C968 C972 1.385 1_455 S
C969 H944 0.951 . S
C969 C967 1.388 . S
C969 C970 1.366 . S
C970 C969 1.366 . S
C970 C971 1.414 1_455 S
C970 C973 1.499 . S
C971 H945 0.950 . S
C971 C970 1.414 1_655 S
C971 C972 1.374 . S
C972 H946 0.950 . S
C972 C968 1.385 1_655 S
C972 C971 1.374 . S
C973 C970 1.499 . S
C973 C974 1.373 . S
C973 C975 1.389 . S
C974 H947 0.950 1_455 S
C974 C960 1.377 . S
C974 C973 1.373 . S
C975 C959 1.377 . S
C975 C973 1.389 . S
C975 C976 1.524 . S
C976 C975 1.524 . S
C976 C977 1.397 . S
C976 C981 1.363 . S
C977 H948 0.950 . S
C977 C976 1.397 . S
C977 C978 1.334 . S
C978 H949 0.950 . S
C978 C977 1.334 . S
C978 C979 1.287 . S
C979 C978 1.287 . S
C979 C980 1.524 . S
C979 H982 0.999 . S
C980 H950 0.950 . S
C980 C979 1.524 . S
C980 C981 1.415 . S
C981 H951 0.950 . S
C981 C976 1.363 . S
C981 C980 1.415 . S
H982 C979 0.999 . S
H983 C964 0.913 . S
C418 C97 1.060 . S
C403 C11 1.418 . S
C453 C26 1.567 . S
C468 C211 1.206 . S
C503 C40 1.172 . S
C518 C271 0.930 . S
C553 C5 1.089 1_565 S
C568 C71 1.013 . S
C618 C185 1.131 . S
C603 C18 1.412 . S
C653 C32 1.338 . S
C668 C281 0.843 . S
C718 C167 0.780 . S
C703 C39 1.193 . S
C753 C4 1.272 1_655 S
C768 C299 1.038 . S
C818 C43 0.921 . S
C803 C19 1.017 . S
C868 C157 0.854 . S
C853 C33 0.949 . S
C918 C325 1.098 . S
C903 C12 1.438 . S
C953 C25 1.327 . S
C968 C53 0.822 . S
