# Generated by pormake.
# Topology pyr, (3,6)-cn, num edge types: 1
# Building blocks:
#     Node 0, Type 0, BuildingBlock: BETDAH_clean_linker_0, # of connection points: 3
#     Node 1, Type 0, BuildingBlock: BETDAH_clean_linker_0, # of connection points: 3
#     Node 2, Type 0, BuildingBlock: BETDAH_clean_linker_0, # of connection points: 3
#     Node 3, Type 0, BuildingBlock: BETDAH_clean_linker_0, # of connection points: 3
#     Node 4, Type 0, BuildingBlock: BETDAH_clean_linker_0, # of connection points: 3
#     Node 5, Type 0, BuildingBlock: BETDAH_clean_linker_0, # of connection points: 3
#     Node 6, Type 0, BuildingBlock: BETDAH_clean_linker_0, # of connection points: 3
#     Node 7, Type 0, BuildingBlock: BETDAH_clean_linker_0, # of connection points: 3
#     Node 8, Type 1, BuildingBlock: MIDCAF_clean_sbu_0, # of connection points: 6
#     Node 9, Type 1, BuildingBlock: MIDCAF_clean_sbu_0, # of connection points: 6
#     Node 10, Type 1, BuildingBlock: MIDCAF_clean_sbu_0, # of connection points: 6
#     Node 11, Type 1, BuildingBlock: MIDCAF_clean_sbu_0, # of connection points: 6
#     Edge 12, Type (0, 1), BuildingBlock: UVAHIK_clean_linker_0, # of connection points: 2
#     Edge 13, Type (0, 1), BuildingBlock: UVAHIK_clean_linker_0, # of connection points: 2
#     Edge 14, Type (0, 1), BuildingBlock: UVAHIK_clean_linker_0, # of connection points: 2
#     Edge 15, Type (0, 1), BuildingBlock: UVAHIK_clean_linker_0, # of connection points: 2
#     Edge 16, Type (0, 1), BuildingBlock: UVAHIK_clean_linker_0, # of connection points: 2
#     Edge 17, Type (0, 1), BuildingBlock: UVAHIK_clean_linker_0, # of connection points: 2
#     Edge 18, Type (0, 1), BuildingBlock: UVAHIK_clean_linker_0, # of connection points: 2
#     Edge 19, Type (0, 1), BuildingBlock: UVAHIK_clean_linker_0, # of connection points: 2
#     Edge 20, Type (0, 1), BuildingBlock: UVAHIK_clean_linker_0, # of connection points: 2
#     Edge 21, Type (0, 1), BuildingBlock: UVAHIK_clean_linker_0, # of connection points: 2
#     Edge 22, Type (0, 1), BuildingBlock: UVAHIK_clean_linker_0, # of connection points: 2
#     Edge 23, Type (0, 1), BuildingBlock: UVAHIK_clean_linker_0, # of connection points: 2
#     Edge 24, Type (0, 1), BuildingBlock: UVAHIK_clean_linker_0, # of connection points: 2
#     Edge 25, Type (0, 1), BuildingBlock: UVAHIK_clean_linker_0, # of connection points: 2
#     Edge 26, Type (0, 1), BuildingBlock: UVAHIK_clean_linker_0, # of connection points: 2
#     Edge 27, Type (0, 1), BuildingBlock: UVAHIK_clean_linker_0, # of connection points: 2
#     Edge 28, Type (0, 1), BuildingBlock: UVAHIK_clean_linker_0, # of connection points: 2
#     Edge 29, Type (0, 1), BuildingBlock: UVAHIK_clean_linker_0, # of connection points: 2
#     Edge 30, Type (0, 1), BuildingBlock: UVAHIK_clean_linker_0, # of connection points: 2
#     Edge 31, Type (0, 1), BuildingBlock: UVAHIK_clean_linker_0, # of connection points: 2
#     Edge 32, Type (0, 1), BuildingBlock: UVAHIK_clean_linker_0, # of connection points: 2
#     Edge 33, Type (0, 1), BuildingBlock: UVAHIK_clean_linker_0, # of connection points: 2
#     Edge 34, Type (0, 1), BuildingBlock: UVAHIK_clean_linker_0, # of connection points: 2
#     Edge 35, Type (0, 1), BuildingBlock: UVAHIK_clean_linker_0, # of connection points: 2
# Relax obj value: 0.083
# Max RMSD: 0.181
# Mean RMSD: 0.135
data_MOF--net-pyr--node1-MIDCAF_clean_sbu_0--node2-BETDAH_clean_linker_0--edge1-UVAHIK_clean_linker_0
_symmetry_space_group_name_H-M    P1
_symmetry_Int_Tables_number       1
_symmetry_cell_setting            triclinic
loop_
_symmetry_equiv_pos_as_xyz
'x, y, z'
_cell_length_a     44.689588
_cell_length_b     45.436042
_cell_length_c     47.226049
_cell_angle_alpha  90.338635
_cell_angle_beta   90.71977
_cell_angle_gamma 96.668421
loop_
_atom_site_label
_atom_site_type_symbol
_atom_site_fract_x
_atom_site_fract_y
_atom_site_fract_z
_atom_type_partial_charge
H0 H 0.21643 0.17188 0.24685 0.0
H1 H 0.2105 0.20562 0.16215 0.0
H2 H 0.14159 0.21807 0.22174 0.0
C3 C 0.20507 0.18396 0.23111 0.0
C4 C 0.17761 0.19456 0.23797 0.0
C5 C 0.21748 0.18781 0.20389 0.0
C6 C 0.20225 0.20336 0.18358 0.0
C7 C 0.17524 0.21464 0.19019 0.0
C8 C 0.16292 0.21002 0.21721 0.0
N9 N 0.15799 0.22612 0.16836 0.0
C10 C 0.16016 0.25606 0.16157 0.0
H11 H 0.39455 0.82883 0.75348 0.0
H12 H 0.34309 0.90262 0.74058 0.0
H13 H 0.35344 0.84225 0.67257 0.0
C14 C 0.3805 0.84112 0.74026 0.0
C15 C 0.37449 0.83169 0.71214 0.0
C16 C 0.36947 0.86677 0.75103 0.0
C17 C 0.35206 0.88296 0.73294 0.0
C18 C 0.34698 0.87427 0.70453 0.0
C19 C 0.35825 0.84891 0.69438 0.0
N20 N 0.33225 0.89147 0.68498 0.0
C21 C 0.30646 0.90468 0.6907 0.0
H22 H 0.73849 0.34082 0.91621 0.0
H23 H 0.7205 0.38062 0.83593 0.0
H24 H 0.67911 0.29334 0.855 0.0
C25 C 0.72683 0.34017 0.89592 0.0
C26 C 0.70773 0.31458 0.88817 0.0
C27 C 0.73214 0.36405 0.87701 0.0
C28 C 0.71702 0.36237 0.85064 0.0
C29 C 0.69821 0.33665 0.8428 0.0
C30 C 0.69406 0.31286 0.86131 0.0
N31 N 0.68348 0.33379 0.81616 0.0
C32 C 0.67183 0.35722 0.80314 0.0
H33 H 0.81813 0.73021 0.40297 0.0
H34 H 0.89607 0.72199 0.35196 0.0
H35 H 0.83133 0.64633 0.36557 0.0
C36 C 0.83104 0.71712 0.38954 0.0
C37 C 0.82072 0.68711 0.38483 0.0
C38 C 0.85813 0.73015 0.37783 0.0
C39 C 0.87522 0.71247 0.36141 0.0
C40 C 0.8657 0.68216 0.3576 0.0
C41 C 0.83872 0.66958 0.36943 0.0
N42 N 0.88315 0.6638 0.34213 0.0
C43 C 0.89234 0.6706 0.31478 0.0
H44 H 0.96539 0.91124 0.89565 0.0
H45 H 0.93165 0.93814 0.97587 0.0
H46 H 0.9341 0.99672 0.90495 0.0
C47 C 0.95565 0.92728 0.90865 0.0
C48 C 0.95052 0.95456 0.89675 0.0
C49 C 0.94924 0.92094 0.9373 0.0
C50 C 0.93617 0.94205 0.95365 0.0
C51 C 0.93029 0.9691 0.9418 0.0
C52 C 0.93791 0.97542 0.91362 0.0
N53 N 0.92029 0.99152 0.95907 0.0
C54 C 0.89001 0.99283 0.96482 0.0
H55 H 0.63693 0.08943 0.4113 0.0
H56 H 0.62531 0.118 0.49719 0.0
H57 H 0.55562 0.12536 0.43526 0.0
C58 C 0.62368 0.09925 0.4271 0.0
C59 C 0.59493 0.10688 0.41975 0.0
C60 C 0.63482 0.10293 0.45506 0.0
C61 C 0.61712 0.11497 0.47554 0.0
C62 C 0.58901 0.12366 0.46831 0.0
C63 C 0.57776 0.11929 0.44055 0.0
N64 N 0.57124 0.13455 0.48974 0.0
C65 C 0.5667 0.16425 0.49178 0.0
H66 H 0.41279 0.6476 0.09831 0.0
H67 H 0.43005 0.56685 0.13946 0.0
H68 H 0.50049 0.63959 0.13371 0.0
C69 C 0.42812 0.63453 0.10923 0.0
C70 C 0.4577 0.64702 0.11499 0.0
C71 C 0.41785 0.6057 0.11797 0.0
C72 C 0.43754 0.58927 0.13286 0.0
C73 C 0.46743 0.60144 0.1382 0.0
C74 C 0.47741 0.63031 0.12944 0.0
N75 N 0.48798 0.58423 0.15122 0.0
C76 C 0.4876 0.5797 0.18019 0.0
H77 H 0.14176 0.41955 0.5917 0.0
H78 H 0.1066 0.49215 0.63356 0.0
H79 H 0.04596 0.41857 0.60216 0.0
C80 C 0.12261 0.42981 0.59928 0.0
C81 C 0.09327 0.41547 0.59515 0.0
C82 C 0.12751 0.45757 0.61275 0.0
C83 C 0.1029 0.47095 0.62267 0.0
C84 C 0.07348 0.45674 0.61886 0.0
C85 C 0.06874 0.42951 0.60453 0.0
N86 N 0.04849 0.46887 0.6304 0.0
C87 C 0.04912 0.47923 0.65813 0.0
Zn88 Zn 0.98714 0.08523 0.57908 0.0
Zn89 Zn 0.04974 0.00508 0.50881 0.0
Zn90 Zn 0.00401 0.04749 0.54428 0.0
C91 C 0.05552 0.06694 0.49326 0.0
C92 C 0.97799 0.00122 0.50874 0.0
O93 O 0.01447 0.03523 0.58903 0.0
O94 O 0.99679 0.06895 0.61605 0.0
C95 C 0.02563 0.11705 0.5426 0.0
O96 O 0.03394 0.07026 0.51071 0.0
O97 O 0.06683 0.0427 0.49103 0.0
O98 O 0.00611 0.00276 0.50879 0.0
O99 O 0.9664 0.02045 0.52346 0.0
O100 O 0.01305 0.12024 0.56597 0.0
O101 O 0.0236 0.09157 0.53034 0.0
O102 O 0.95386 0.04372 0.53761 0.0
O103 O 0.94453 0.08038 0.56588 0.0
C104 C 0.93524 0.06055 0.54794 0.0
O105 O 0.03298 0.0205 0.57073 0.0
O106 O 0.0647 0.99517 0.54651 0.0
C107 C 0.00934 0.04562 0.61378 0.0
C108 C 0.05405 0.00314 0.56968 0.0
Zn109 Zn 0.4954 0.05674 0.0392 0.0
Zn110 Zn 0.54483 0.99325 0.09746 0.0
Zn111 Zn 0.5201 0.02248 0.06623 0.0
C112 C 0.58824 0.0096 0.05939 0.0
C113 C 0.49999 0.95536 0.07438 0.0
O114 O 0.48939 0.04551 0.09472 0.0
O115 O 0.46014 0.0624 0.06214 0.0
C116 C 0.55381 0.07984 0.03867 0.0
O117 O 0.56969 0.02913 0.05602 0.0
O118 O 0.58067 0.98745 0.07478 0.0
O119 O 0.51219 0.95979 0.09849 0.0
O120 O 0.50306 0.97602 0.05572 0.0
O121 O 0.52851 0.08953 0.03764 0.0
O122 O 0.55573 0.05289 0.04612 0.0
O123 O 0.49254 0.9946 0.03372 0.0
O124 O 0.4866 0.03175 0.00531 0.0
C125 C 0.48359 0.00421 0.00976 0.0
O126 O 0.51142 0.03545 0.11118 0.0
O127 O 0.55118 0.0192 0.13118 0.0
C128 C 0.46547 0.05744 0.0878 0.0
C129 C 0.52922 0.03414 0.13278 0.0
Zn130 Zn 0.5342 0.56781 0.56918 0.0
Zn131 Zn 0.45032 0.49909 0.51432 0.0
Zn132 Zn 0.49556 0.52889 0.54234 0.0
C133 C 0.48857 0.45822 0.53692 0.0
C134 C 0.48271 0.53554 0.47574 0.0
O135 O 0.47309 0.55869 0.57098 0.0
O136 O 0.50817 0.58889 0.59342 0.0
C137 C 0.54484 0.50883 0.58324 0.0
O138 O 0.50273 0.48165 0.54854 0.0
O139 O 0.46589 0.46033 0.52109 0.0
O140 O 0.45782 0.51955 0.47785 0.0
O141 O 0.50068 0.53993 0.49723 0.0
O142 O 0.55438 0.53593 0.58647 0.0
O143 O 0.52199 0.50075 0.56704 0.0
O144 O 0.52593 0.55442 0.51194 0.0
O145 O 0.554 0.58884 0.53702 0.0
C146 C 0.54675 0.57656 0.51354 0.0
O147 O 0.45121 0.53818 0.55905 0.0
O148 O 0.41561 0.50937 0.53584 0.0
C149 C 0.4808 0.57984 0.58892 0.0
C150 C 0.42323 0.52857 0.55473 0.0
Zn151 Zn 0.0807 0.60923 0.98605 0.0
Zn152 Zn 0.01231 0.53902 0.05097 0.0
Zn153 Zn 0.04439 0.57116 0.01501 0.0
C154 C 0.06816 0.52447 0.06192 0.0
C155 C 0.99342 0.52058 0.99544 0.0
O156 O 0.03369 0.61812 0.0208 0.0
O157 O 0.06791 0.64767 0.99785 0.0
C158 C 0.11725 0.57784 0.01947 0.0
O159 O 0.07273 0.54274 0.04107 0.0
O160 O 0.04243 0.51986 0.07276 0.0
O161 O 0.98939 0.51501 0.02137 0.0
O162 O 0.01377 0.54134 0.98788 0.0
O163 O 0.11908 0.59778 0.00087 0.0
O164 O 0.0913 0.56548 0.02734 0.0
O165 O 0.03497 0.55815 0.97035 0.0
O166 O 0.06553 0.59265 0.94894 0.0
C167 C 0.04608 0.57015 0.94757 0.0
O168 O 0.01792 0.59985 0.0406 0.0
O169 O 0.99106 0.5692 0.06933 0.0
C170 C 0.04465 0.64432 0.01286 0.0
C171 C 0.99827 0.59504 0.06026 0.0
C172 C 0.1324 0.17975 0.26868 0.0
C173 C 0.16368 0.18777 0.26622 0.0
C174 C 0.11979 0.17105 0.29482 0.0
C175 C 0.13986 0.13747 0.36168 0.0
H176 H 0.06709 0.16451 0.39105 0.0
C177 C 0.09767 0.09782 0.47026 0.0
C178 C 0.06656 0.0907 0.47356 0.0
C179 C 0.10894 0.11414 0.44696 0.0
C180 C 0.08725 0.15644 0.38308 0.0
H181 H 0.20585 0.19424 0.28997 0.0
H182 H 0.18398 0.17843 0.33518 0.0
H183 H 0.08723 0.18357 0.34593 0.0
H184 H 0.02266 0.09587 0.45582 0.0
H185 H 0.04218 0.12351 0.4144 0.0
H186 H 0.13956 0.10946 0.39772 0.0
C187 C 0.16927 0.17864 0.31679 0.0
C188 C 0.09882 0.16747 0.35722 0.0
C189 C 0.18181 0.18762 0.2908 0.0
C190 C 0.04678 0.10157 0.45395 0.0
C191 C 0.05807 0.11735 0.43015 0.0
C192 C 0.12813 0.12616 0.3872 0.0
C193 C 0.13818 0.16988 0.31906 0.0
C194 C 0.12541 0.15826 0.34636 0.0
C195 C 0.0894 0.12291 0.42578 0.0
C196 C 0.10179 0.13563 0.39852 0.0
H197 H 0.11771 0.17915 0.25023 0.0
H198 H 0.0958 0.16419 0.29583 0.0
H199 H 0.16003 0.12944 0.35362 0.0
H200 H 0.11336 0.08958 0.4851 0.0
H201 H 0.13314 0.11884 0.44506 0.0
C202 C 0.38093 0.85657 0.80243 0.0
C203 C 0.37727 0.87705 0.78066 0.0
C204 C 0.39009 0.86627 0.82972 0.0
C205 C 0.38946 0.92818 0.87874 0.0
H206 H 0.46227 0.90415 0.91264 0.0
C207 C 0.45411 0.99773 0.96467 0.0
C208 C 0.46863 0.9846 0.98712 0.0
C209 C 0.44056 0.98075 0.94242 0.0
C210 C 0.44154 0.91058 0.9038 0.0
H211 H 0.38046 0.92404 0.77114 0.0
H212 H 0.39489 0.94071 0.81899 0.0
H213 H 0.44282 0.88172 0.86771 0.0
H214 H 0.47979 0.94297 0.00366 0.0
H215 H 0.45585 0.91272 0.96434 0.0
H216 H 0.38789 0.95697 0.91446 0.0
C217 C 0.39087 0.91713 0.81468 0.0
C218 C 0.43052 0.89785 0.87803 0.0
C219 C 0.38233 0.90749 0.78727 0.0
C220 C 0.46884 0.9537 0.98679 0.0
C221 C 0.45524 0.93647 0.96419 0.0
C222 C 0.40017 0.94055 0.90458 0.0
C223 C 0.39509 0.89663 0.83609 0.0
C224 C 0.40488 0.90723 0.86489 0.0
C225 C 0.44086 0.94991 0.94175 0.0
C226 C 0.42693 0.93271 0.91698 0.0
H227 H 0.37665 0.83295 0.7985 0.0
H228 H 0.39292 0.85003 0.84595 0.0
H229 H 0.36935 0.9354 0.8693 0.0
H230 H 0.45327 0.02145 0.96403 0.0
H231 H 0.43036 0.99205 0.92533 0.0
C232 C 0.67236 0.40174 0.7738 0.0
C233 C 0.65632 0.37848 0.78848 0.0
C234 C 0.65706 0.41891 0.75537 0.0
C235 C 0.59449 0.40638 0.70746 0.0
H236 H 0.60709 0.49092 0.69401 0.0
C237 C 0.5399 0.46414 0.61391 0.0
C238 C 0.55809 0.48783 0.60173 0.0
C239 C 0.55013 0.45021 0.6379 0.0
C240 C 0.60359 0.46722 0.69743 0.0
H241 H 0.61231 0.35578 0.7977 0.0
H242 H 0.58545 0.38562 0.76518 0.0
H243 H 0.62725 0.47095 0.73733 0.0
H244 H 0.60213 0.51355 0.60286 0.0
H245 H 0.62024 0.48873 0.64398 0.0
H246 H 0.57202 0.40233 0.66716 0.0
C247 C 0.60963 0.39065 0.7678 0.0
C248 C 0.61491 0.45593 0.72226 0.0
C249 C 0.6249 0.37369 0.7863 0.0
C250 C 0.58757 0.49548 0.61208 0.0
C251 C 0.59777 0.4816 0.63586 0.0
C252 C 0.58343 0.4176 0.68256 0.0
C253 C 0.62573 0.41257 0.75138 0.0
C254 C 0.61079 0.42538 0.72722 0.0
C255 C 0.57869 0.45978 0.64975 0.0
C256 C 0.5884 0.44804 0.67704 0.0
H257 H 0.69671 0.40558 0.7754 0.0
H258 H 0.66992 0.43564 0.74278 0.0
H259 H 0.59147 0.38264 0.71069 0.0
H260 H 0.517 0.45801 0.6064 0.0
H261 H 0.53505 0.43325 0.64811 0.0
C262 C 0.87768 0.66393 0.26492 0.0
C263 C 0.89943 0.67417 0.28532 0.0
C264 C 0.88511 0.66398 0.23632 0.0
C265 C 0.943 0.69141 0.1839 0.0
H266 H 0.91716 0.61591 0.14752 0.0
C267 C 0.00214 0.64019 0.09054 0.0
C268 C 0.98451 0.61923 0.07366 0.0
C269 C 0.98857 0.65567 0.11165 0.0
C270 C 0.924 0.63748 0.15693 0.0
H271 H 0.94543 0.69347 0.29259 0.0
H272 H 0.9588 0.69333 0.24234 0.0
H273 H 0.89955 0.62564 0.19442 0.0
H274 H 0.93911 0.60067 0.06252 0.0
H275 H 0.91525 0.6287 0.09823 0.0
H276 H 0.96853 0.70256 0.14644 0.0
C277 C 0.93589 0.68564 0.24825 0.0
C278 C 0.91391 0.64302 0.18398 0.0
C279 C 0.92838 0.68558 0.27694 0.0
C280 C 0.95306 0.61671 0.07549 0.0
C281 C 0.93949 0.63252 0.09612 0.0
C282 C 0.95317 0.68583 0.15664 0.0
C283 C 0.91452 0.67413 0.22771 0.0
C284 C 0.92352 0.66987 0.19795 0.0
C285 C 0.95725 0.65043 0.11578 0.0
C286 C 0.94398 0.65864 0.14299 0.0
H287 H 0.85518 0.65504 0.27116 0.0
H288 H 0.86803 0.65533 0.221 0.0
H289 H 0.95063 0.7124 0.1941 0.0
H290 H 0.0265 0.64225 0.08948 0.0
H291 H 0.0029 0.66938 0.12638 0.0
C292 C 0.25046 0.1464 0.20745 0.0
C293 C 0.24528 0.17408 0.19632 0.0
C294 C 0.27612 0.13323 0.20021 0.0
C295 C 0.35195 0.14839 0.16707 0.0
H296 H 0.34224 0.06313 0.15653 0.0
C297 C 0.45094 0.08456 0.13123 0.0
C298 C 0.44312 0.06481 0.10865 0.0
C299 C 0.42831 0.09658 0.14648 0.0
C300 C 0.34542 0.08697 0.15941 0.0
H301 H 0.26367 0.20954 0.16877 0.0
H302 H 0.30769 0.18597 0.15517 0.0
H303 H 0.29989 0.08763 0.17229 0.0
H304 H 0.40599 0.04097 0.08516 0.0
H305 H 0.36685 0.06111 0.1118 0.0
H306 H 0.39722 0.14763 0.1527 0.0
C307 C 0.2922 0.17476 0.17013 0.0
C308 C 0.32112 0.10107 0.16877 0.0
C309 C 0.26663 0.18812 0.17762 0.0
C310 C 0.41256 0.05597 0.10267 0.0
C311 C 0.39012 0.06754 0.118 0.0
C312 C 0.37629 0.13423 0.15756 0.0
C313 C 0.29728 0.14704 0.18125 0.0
C314 C 0.32386 0.13204 0.17245 0.0
C315 C 0.39759 0.08862 0.1396 0.0
C316 C 0.37318 0.10337 0.15318 0.0
H317 H 0.23441 0.13447 0.22145 0.0
H318 H 0.2793 0.11211 0.20958 0.0
H319 H 0.35515 0.1722 0.17002 0.0
H320 H 0.47439 0.09203 0.13594 0.0
H321 H 0.43483 0.1126 0.16314 0.0
C322 C 0.25126 0.89834 0.68743 0.0
C323 C 0.27823 0.91714 0.6905 0.0
C324 C 0.22419 0.91007 0.68203 0.0
C325 C 0.1967 0.97702 0.65152 0.0
H326 H 0.11893 0.93768 0.67375 0.0
C327 C 0.08648 0.01708 0.61174 0.0
C328 C 0.06951 0.99496 0.59559 0.0
C329 C 0.10904 0.00967 0.63032 0.0
C330 C 0.14052 0.94901 0.66761 0.0
H331 H 0.29857 0.96268 0.6912 0.0
H332 H 0.25116 0.98351 0.68267 0.0
H333 H 0.16501 0.92146 0.69365 0.0
H334 H 0.06104 0.94783 0.58736 0.0
H335 H 0.09946 0.93466 0.62081 0.0
H336 H 0.17207 0.00438 0.62533 0.0
C337 C 0.25072 0.95968 0.68396 0.0
C338 C 0.16694 0.93962 0.67879 0.0
C339 C 0.27782 0.94786 0.6892 0.0
C340 C 0.07357 0.96517 0.60001 0.0
C341 C 0.0956 0.95769 0.61904 0.0
C342 C 0.17029 0.98667 0.6407 0.0
C343 C 0.22362 0.9409 0.67959 0.0
C344 C 0.19543 0.95306 0.67042 0.0
C345 C 0.11446 0.97997 0.63338 0.0
C346 C 0.14197 0.9724 0.6482 0.0
H347 H 0.25129 0.8745 0.68792 0.0
H348 H 0.20403 0.89482 0.67835 0.0
H349 H 0.21809 0.98758 0.64404 0.0
H350 H 0.08411 0.04024 0.60819 0.0
H351 H 0.12326 0.02723 0.64118 0.0
C352 C 0.75999 0.39974 0.91177 0.0
C353 C 0.75559 0.38913 0.8838 0.0
C354 C 0.78566 0.41892 0.91913 0.0
C355 C 0.84563 0.47212 0.9065 0.0
H356 H 0.90136 0.41958 0.9351 0.0
C357 C 0.96474 0.51688 0.94906 0.0
C358 C 0.97226 0.50437 0.97496 0.0
C359 C 0.94012 0.50374 0.93291 0.0
C360 C 0.88612 0.43465 0.9273 0.0
H361 H 0.77356 0.3924 0.84123 0.0
H362 H 0.81809 0.42627 0.85427 0.0
H363 H 0.85159 0.39905 0.9181 0.0
H364 H 0.96101 0.46755 0.00345 0.0
H365 H 0.91824 0.44544 0.97618 0.0
H366 H 0.87959 0.50795 0.91697 0.0
C367 C 0.80157 0.41961 0.87029 0.0
C368 C 0.85773 0.42283 0.91751 0.0
C369 C 0.77604 0.40025 0.86292 0.0
C370 C 0.95584 0.47777 0.98358 0.0
C371 C 0.93132 0.46491 0.96774 0.0
C372 C 0.87407 0.4841 0.91669 0.0
C373 C 0.80702 0.42814 0.89858 0.0
C374 C 0.8372 0.44146 0.90748 0.0
C375 C 0.92269 0.47798 0.9425 0.0
C376 C 0.8944 0.46548 0.92777 0.0
H377 H 0.74436 0.39211 0.92823 0.0
H378 H 0.7897 0.42521 0.94114 0.0
H379 H 0.82997 0.48674 0.89862 0.0
H380 H 0.97671 0.53759 0.94209 0.0
H381 H 0.93424 0.51417 0.91338 0.0
C382 C 0.78601 0.64566 0.40611 0.0
C383 C 0.79073 0.67458 0.39529 0.0
C384 C 0.75754 0.63404 0.4155 0.0
C385 C 0.68813 0.65637 0.44362 0.0
H386 H 0.65086 0.57925 0.41817 0.0
C387 C 0.57028 0.61453 0.48079 0.0
C388 C 0.56595 0.58494 0.48937 0.0
C389 C 0.59492 0.62463 0.46417 0.0
C390 C 0.66101 0.60071 0.42569 0.0
H391 H 0.76899 0.71367 0.3853 0.0
H392 H 0.71972 0.69366 0.40246 0.0
H393 H 0.70092 0.59814 0.40143 0.0
H394 H 0.58276 0.54228 0.48678 0.0
H395 H 0.62646 0.55992 0.4587 0.0
H396 H 0.64928 0.65875 0.46881 0.0
C397 C 0.73809 0.68009 0.40375 0.0
C398 C 0.68966 0.61148 0.41608 0.0
C399 C 0.76636 0.69157 0.39408 0.0
C400 C 0.58544 0.56511 0.47979 0.0
C401 C 0.61051 0.57531 0.46374 0.0
C402 C 0.65978 0.64548 0.45356 0.0
C403 C 0.7334 0.65124 0.41449 0.0
C404 C 0.70337 0.63943 0.42491 0.0
C405 C 0.61626 0.6055 0.45675 0.0
C406 C 0.64574 0.61754 0.44466 0.0
H407 H 0.80437 0.63213 0.40768 0.0
H408 H 0.7545 0.61182 0.424 0.0
H409 H 0.69844 0.67784 0.45104 0.0
H410 H 0.55556 0.63019 0.48826 0.0
H411 H 0.59809 0.64781 0.45845 0.0
C412 C 0.1594 0.30964 0.17107 0.0
C413 C 0.15903 0.28607 0.15177 0.0
C414 C 0.15558 0.33815 0.16153 0.0
C415 C 0.15737 0.38583 0.09751 0.0
H416 H 0.10088 0.42704 0.13952 0.0
C417 C 0.1023 0.48597 0.05228 0.0
C418 C 0.09113 0.50565 0.0714 0.0
C419 C 0.11632 0.46186 0.06225 0.0
C420 C 0.11731 0.41639 0.12776 0.0
H421 H 0.15479 0.27339 0.10757 0.0
H422 H 0.14806 0.32314 0.09076 0.0
H423 H 0.11423 0.38008 0.15661 0.0
H424 H 0.08818 0.51736 0.1156 0.0
H425 H 0.1146 0.47695 0.13301 0.0
H426 H 0.1604 0.42219 0.06857 0.0
C427 C 0.15169 0.31991 0.11319 0.0
C428 C 0.12485 0.3892 0.13759 0.0
C429 C 0.15543 0.29141 0.12278 0.0
C430 C 0.09661 0.50244 0.10045 0.0
C431 C 0.1113 0.4789 0.11039 0.0
C432 C 0.15005 0.41329 0.08777 0.0
C433 C 0.15129 0.3436 0.13248 0.0
C434 C 0.14478 0.3734 0.12253 0.0
C435 C 0.1199 0.45728 0.09158 0.0
C436 C 0.12971 0.42895 0.10266 0.0
H437 H 0.16205 0.30591 0.19356 0.0
H438 H 0.15572 0.35591 0.17694 0.0
H439 H 0.173 0.37437 0.08548 0.0
H440 H 0.0979 0.48772 0.02978 0.0
H441 H 0.12242 0.44582 0.04697 0.0
C442 C 0.70056 0.26033 0.89867 0.0
C443 C 0.70117 0.28978 0.90814 0.0
C444 C 0.69064 0.23686 0.91641 0.0
C445 C 0.6404 0.2209 0.97598 0.0
H446 H 0.67426 0.14608 0.97847 0.0
C447 C 0.58591 0.12748 0.044 0.0
C448 C 0.58029 0.09982 0.03052 0.0
C449 C 0.6063 0.14963 0.03259 0.0
C450 C 0.66455 0.16683 0.9779 0.0
H451 H 0.69306 0.31781 0.94385 0.0
H452 H 0.67604 0.27673 0.97507 0.0
H453 H 0.69972 0.18751 0.95175 0.0
H454 H 0.59195 0.07283 0.99538 0.0
H455 H 0.6275 0.11186 0.9749 0.0
H456 H 0.60481 0.20028 0.00123 0.0
C457 C 0.68298 0.27183 0.95382 0.0
C458 C 0.6791 0.19051 0.96265 0.0
C459 C 0.69299 0.29531 0.93609 0.0
C460 C 0.59644 0.09396 0.00628 0.0
C461 C 0.61672 0.11629 0.99463 0.0
C462 C 0.62588 0.19732 0.99111 0.0
C463 C 0.6811 0.2424 0.94395 0.0
C464 C 0.66706 0.21774 0.96147 0.0
C465 C 0.62094 0.14471 0.00712 0.0
C466 C 0.63772 0.16999 0.99222 0.0
H467 H 0.70702 0.25548 0.87726 0.0
H468 H 0.68922 0.21446 0.90813 0.0
H469 H 0.63015 0.24135 0.9749 0.0
H470 H 0.57346 0.13239 0.06265 0.0
H471 H 0.60956 0.17107 0.04303 0.0
C472 C 0.89944 0.77104 0.38955 0.0
C473 C 0.86876 0.76181 0.384 0.0
C474 C 0.90876 0.79997 0.39877 0.0
C475 C 0.8839 0.85725 0.44138 0.0
H476 H 0.94737 0.91003 0.40708 0.0
C477 C 0.92975 0.9699 0.49351 0.0
C478 C 0.96098 0.97748 0.49159 0.0
C479 C 0.91538 0.94611 0.47743 0.0
C480 C 0.92982 0.89547 0.41717 0.0
H481 H 0.82424 0.77659 0.38176 0.0
H482 H 0.84055 0.82662 0.39915 0.0
H483 H 0.92971 0.86299 0.38402 0.0
H484 H 0.00168 0.96561 0.47171 0.0
H485 H 0.97742 0.92409 0.44569 0.0
H486 H 0.88526 0.88851 0.47552 0.0
C487 C 0.85717 0.81132 0.39638 0.0
C488 C 0.91965 0.86867 0.40379 0.0
C489 C 0.84791 0.78263 0.38662 0.0
C490 C 0.97747 0.96075 0.47361 0.0
C491 C 0.96342 0.93694 0.45821 0.0
C492 C 0.89458 0.88376 0.45517 0.0
C493 C 0.88755 0.82 0.403 0.0
C494 C 0.89686 0.84925 0.41596 0.0
C495 C 0.93218 0.92931 0.45963 0.0
C496 C 0.91808 0.90297 0.44349 0.0
H497 H 0.91609 0.75562 0.38804 0.0
H498 H 0.93235 0.80629 0.40388 0.0
H499 H 0.86637 0.84239 0.45119 0.0
H500 H 0.91661 0.98174 0.50779 0.0
H501 H 0.89122 0.94081 0.47907 0.0
C502 C 0.38281 0.77829 0.71866 0.0
C503 C 0.38442 0.80355 0.70138 0.0
C504 C 0.38981 0.75124 0.70784 0.0
C505 C 0.39046 0.70951 0.64188 0.0
H506 H 0.44791 0.66489 0.67958 0.0
C507 C 0.44606 0.61803 0.58552 0.0
C508 C 0.45818 0.59645 0.60165 0.0
C509 C 0.43147 0.63981 0.59877 0.0
C510 C 0.43118 0.67653 0.66905 0.0
H511 H 0.39619 0.82032 0.65951 0.0
H512 H 0.40751 0.77288 0.64053 0.0
H513 H 0.43508 0.71054 0.701 0.0
H514 H 0.46282 0.57876 0.64363 0.0
H515 H 0.43546 0.61557 0.66685 0.0
H516 H 0.38602 0.67552 0.61015 0.0
C517 C 0.40052 0.77409 0.66235 0.0
C518 C 0.4241 0.70289 0.68128 0.0
C519 C 0.39396 0.80122 0.67324 0.0
C520 C 0.45345 0.5953 0.63088 0.0
C521 C 0.43821 0.61666 0.64413 0.0
C522 C 0.39709 0.68287 0.62989 0.0
C523 C 0.39817 0.7488 0.67945 0.0
C524 C 0.40417 0.71991 0.6675 0.0
C525 C 0.42836 0.6401 0.62843 0.0
C526 C 0.41807 0.66631 0.64297 0.0
H527 H 0.37522 0.77913 0.7403 0.0
H528 H 0.3878 0.732 0.72143 0.0
H529 H 0.37463 0.72206 0.63107 0.0
H530 H 0.44997 0.61946 0.56294 0.0
H531 H 0.42462 0.65752 0.58587 0.0
C532 C 0.95297 0.94103 0.84508 0.0
C533 C 0.95972 0.96175 0.86715 0.0
C534 C 0.96204 0.94777 0.81733 0.0
C535 C 0.98629 0.0121 0.77152 0.0
H536 H 0.01232 0.95277 0.72092 0.0
C537 C 0.0293 0.04697 0.66294 0.0
C538 C 0.01611 0.0302 0.64007 0.0
C539 C 0.02771 0.03564 0.69034 0.0
C540 C 0.00503 0.96954 0.73479 0.0
H541 H 0.98208 0.00542 0.87753 0.0
H542 H 0.99829 0.01705 0.82945 0.0
H543 H 0.99799 0.93933 0.76947 0.0
H544 H 0.99314 0.98756 0.62731 0.0
H545 H 0.98973 0.9677 0.67555 0.0
H546 H 0.993 0.04224 0.7371 0.0
C547 C 0.9853 0.99585 0.83328 0.0
C548 C 0.99669 0.96184 0.76259 0.0
C549 C 0.97601 0.98921 0.86091 0.0
C550 C 0.00367 0.00082 0.64465 0.0
C551 C 0.00165 0.98953 0.67229 0.0
C552 C 0.99471 0.01978 0.74394 0.0
C553 C 0.97827 0.97533 0.81102 0.0
C554 C 0.98727 0.98309 0.78136 0.0
C555 C 0.0123 0.00747 0.69559 0.0
C556 C 0.00434 0.99871 0.7252 0.0
H557 H 0.94027 0.91974 0.8492 0.0
H558 H 0.95582 0.93157 0.80075 0.0
H559 H 0.97843 0.02892 0.78497 0.0
H560 H 0.03918 0.06964 0.65986 0.0
H561 H 0.03701 0.04969 0.70766 0.0
C562 C 0.55377 0.0865 0.3857 0.0
C563 C 0.58278 0.10145 0.39048 0.0
C564 C 0.54263 0.08104 0.35804 0.0
C565 C 0.55203 0.10878 0.28528 0.0
H566 H 0.5177 0.03016 0.2613 0.0
C567 C 0.5487 0.07042 0.16953 0.0
C568 C 0.52515 0.04979 0.15954 0.0
C569 C 0.54968 0.07989 0.19772 0.0
C570 C 0.52658 0.05241 0.26776 0.0
H571 H 0.62279 0.12242 0.37012 0.0
H572 H 0.60323 0.11337 0.32191 0.0
H573 H 0.53188 0.03951 0.31105 0.0
H574 H 0.48358 0.02342 0.17061 0.0
H575 H 0.48514 0.04001 0.22034 0.0
H576 H 0.54726 0.12169 0.24211 0.0
C577 C 0.58909 0.10584 0.3395 0.0
C578 C 0.53485 0.05771 0.29625 0.0
C579 C 0.60038 0.11086 0.36708 0.0
C580 C 0.50167 0.03981 0.17782 0.0
C581 C 0.50282 0.049 0.20629 0.0
C582 C 0.54361 0.10356 0.25693 0.0
C583 C 0.56008 0.09092 0.33464 0.0
C584 C 0.54839 0.08579 0.30515 0.0
C585 C 0.52734 0.06854 0.21675 0.0
C586 C 0.53153 0.07514 0.24762 0.0
H587 H 0.53986 0.0787 0.40336 0.0
H588 H 0.52022 0.06948 0.35496 0.0
H589 H 0.56185 0.13079 0.29161 0.0
H590 H 0.5673 0.07798 0.15588 0.0
H591 H 0.56908 0.09463 0.20499 0.0
C592 C 0.51328 0.56416 0.22281 0.0
C593 C 0.48898 0.57634 0.21039 0.0
C594 C 0.51586 0.56261 0.25224 0.0
C595 C 0.4899 0.5959 0.31791 0.0
H596 H 0.51636 0.52643 0.35332 0.0
C597 C 0.46798 0.5622 0.43328 0.0
C598 C 0.49026 0.54926 0.44834 0.0
C599 C 0.47255 0.57069 0.40525 0.0
C600 C 0.50956 0.54624 0.3437 0.0
H601 H 0.44803 0.59601 0.21807 0.0
H602 H 0.45203 0.59284 0.26974 0.0
H603 H 0.51296 0.52883 0.30188 0.0
H604 H 0.53517 0.53608 0.44675 0.0
H605 H 0.54324 0.5507 0.39718 0.0
H606 H 0.48537 0.6127 0.35995 0.0
C607 C 0.46945 0.58496 0.25695 0.0
C608 C 0.50748 0.54758 0.31423 0.0
C609 C 0.46695 0.58655 0.22748 0.0
C610 C 0.5179 0.54638 0.43553 0.0
C611 C 0.52234 0.55446 0.40721 0.0
C612 C 0.49178 0.59446 0.3474 0.0
C613 C 0.49412 0.57325 0.26968 0.0
C614 C 0.49728 0.57227 0.30099 0.0
C615 C 0.4993 0.56589 0.39162 0.0
C616 C 0.50129 0.56946 0.36057 0.0
H617 H 0.53054 0.55632 0.20977 0.0
H618 H 0.53526 0.55372 0.26132 0.0
H619 H 0.48253 0.6155 0.30837 0.0
H620 H 0.4465 0.56464 0.44289 0.0
H621 H 0.45434 0.57923 0.39372 0.0
C622 C 0.05027 0.51673 0.69618 0.0
C623 C 0.04927 0.48708 0.68769 0.0
C624 C 0.04943 0.52397 0.72496 0.0
C625 C 0.02564 0.49238 0.79411 0.0
H626 H 0.07527 0.56162 0.82365 0.0
C627 C 0.03525 0.52713 0.91387 0.0
C628 C 0.03791 0.55777 0.91921 0.0
C629 C 0.03459 0.51645 0.88588 0.0
C630 C 0.061 0.54237 0.81568 0.0
H631 H 0.04717 0.4417 0.70176 0.0
H632 H 0.04589 0.45424 0.75223 0.0
H633 H 0.0799 0.5472 0.77436 0.0
H634 H 0.03932 0.60104 0.89992 0.0
H635 H 0.03727 0.58253 0.85148 0.0
H636 H 0.00669 0.48773 0.83561 0.0
C637 C 0.04691 0.47191 0.73686 0.0
C638 C 0.0637 0.53412 0.78741 0.0
C639 C 0.04781 0.46474 0.70809 0.0
C640 C 0.03759 0.57731 0.89634 0.0
C641 C 0.03672 0.56672 0.8686 0.0
C642 C 0.02292 0.50068 0.82249 0.0
C643 C 0.04753 0.50161 0.74564 0.0
C644 C 0.04575 0.50929 0.77616 0.0
C645 C 0.03651 0.53632 0.863 0.0
C646 C 0.0402 0.5261 0.83342 0.0
H647 H 0.05138 0.53422 0.6806 0.0
H648 H 0.04963 0.54703 0.73099 0.0
H649 H 0.01136 0.47321 0.78602 0.0
H650 H 0.03565 0.51166 0.93119 0.0
H651 H 0.0343 0.49287 0.8822 0.0
C652 C 0.83991 0.97255 0.98198 0.0
C653 C 0.85935 0.99658 0.97218 0.0
C654 C 0.81074 0.97654 0.99049 0.0
C655 C 0.75159 0.02784 0.98549 0.0
H656 H 0.72023 0.98356 0.0507 0.0
C657 C 0.63494 0.03909 0.03956 0.0
C658 C 0.61823 0.01179 0.04582 0.0
C659 C 0.66454 0.04005 0.02942 0.0
C660 C 0.7286 0.99602 0.03237 0.0
H661 H 0.86407 0.04351 0.96326 0.0
H662 H 0.8131 0.05073 0.97834 0.0
H663 H 0.77142 0.97963 0.03555 0.0
H664 H 0.61912 0.96414 0.04536 0.0
H665 H 0.67018 0.96585 0.02813 0.0
H666 H 0.70837 0.04425 0.98264 0.0
C667 C 0.82005 0.0287 0.97918 0.0
C668 C 0.75794 0.99365 0.02357 0.0
C669 C 0.84924 0.02463 0.97066 0.0
C670 C 0.6314 0.9856 0.04102 0.0
C671 C 0.66076 0.98655 0.03121 0.0
C672 C 0.72211 0.03034 0.99445 0.0
C673 C 0.80047 0.00474 0.98949 0.0
C674 C 0.76969 0.00899 0.99965 0.0
C675 C 0.67797 0.01372 0.02582 0.0
C676 C 0.7101 0.01392 0.01765 0.0
H677 H 0.84734 0.95072 0.9833 0.0
H678 H 0.79619 0.95746 0.9978 0.0
H679 H 0.75982 0.03994 0.96694 0.0
H680 H 0.62572 0.05961 0.04374 0.0
H681 H 0.67732 0.06135 0.02554 0.0
C682 C 0.66794 0.07725 0.48773 0.0
C683 C 0.66469 0.09387 0.46313 0.0
C684 C 0.69615 0.0696 0.49603 0.0
C685 C 0.77505 0.06691 0.4708 0.0
H686 H 0.7925 0.06681 0.55134 0.0
C687 C 0.89196 0.04242 0.51462 0.0
C688 C 0.90309 0.05867 0.53866 0.0
C689 C 0.862 0.04303 0.50539 0.0
C690 C 0.78827 0.067 0.52872 0.0
H691 H 0.68845 0.11534 0.4278 0.0
H692 H 0.73792 0.10291 0.44267 0.0
H693 H 0.7431 0.07632 0.53491 0.0
H694 H 0.89124 0.08868 0.57163 0.0
H695 H 0.84042 0.09092 0.555 0.0
H696 H 0.82096 0.05946 0.46468 0.0
C697 C 0.7186 0.09502 0.45526 0.0
C698 C 0.75955 0.07196 0.51925 0.0
C699 C 0.69024 0.10232 0.44676 0.0
C700 C 0.88355 0.07554 0.55317 0.0
C701 C 0.85402 0.0766 0.54374 0.0
C702 C 0.80401 0.0624 0.48029 0.0
C703 C 0.72203 0.07874 0.48017 0.0
C704 C 0.7525 0.07221 0.49013 0.0
C705 C 0.84266 0.06039 0.51971 0.0
C706 C 0.81118 0.06274 0.50942 0.0
H707 H 0.64855 0.07001 0.50054 0.0
H708 H 0.69758 0.05644 0.51493 0.0
H709 H 0.77045 0.06638 0.44823 0.0
H710 H 0.90657 0.02999 0.50245 0.0
H711 H 0.85412 0.03006 0.4869 0.0
C712 C 0.37584 0.59611 0.083 0.0
C713 C 0.38661 0.59328 0.11075 0.0
C714 C 0.34537 0.58927 0.0766 0.0
C715 C 0.2728 0.55134 0.09797 0.0
H716 H 0.24294 0.61471 0.05511 0.0
C717 C 0.14733 0.56345 0.06144 0.0
C718 C 0.14543 0.57014 0.03248 0.0
C719 C 0.17547 0.5616 0.07437 0.0
C720 C 0.25095 0.59686 0.06711 0.0
H721 H 0.37448 0.57912 0.15323 0.0
H722 H 0.32051 0.56696 0.14189 0.0
H723 H 0.29498 0.62022 0.07184 0.0
H724 H 0.17092 0.57822 0.994 0.0
H725 H 0.21974 0.57525 0.0165 0.0
H726 H 0.22831 0.52794 0.09263 0.0
C727 C 0.33587 0.57458 0.12521 0.0
C728 C 0.2807 0.59996 0.07661 0.0
C729 C 0.36663 0.58146 0.13166 0.0
C730 C 0.17176 0.57323 0.01639 0.0
C731 C 0.19966 0.57153 0.02923 0.0
C732 C 0.24271 0.54825 0.08843 0.0
C733 C 0.32491 0.57948 0.09781 0.0
C734 C 0.29224 0.57689 0.09129 0.0
C735 C 0.20188 0.56674 0.05846 0.0
C736 C 0.23196 0.57068 0.07215 0.0
H737 H 0.39089 0.60468 0.0664 0.0
H738 H 0.33761 0.59259 0.05515 0.0
H739 H 0.28119 0.53334 0.10941 0.0
H740 H 0.12744 0.5617 0.07443 0.0
H741 H 0.17674 0.55803 0.09699 0.0
C742 C 0.16768 0.49933 0.60375 0.0
C743 C 0.15855 0.47214 0.61671 0.0
C744 C 0.19789 0.51152 0.60512 0.0
C745 C 0.27372 0.48791 0.61772 0.0
H746 H 0.29946 0.57196 0.61008 0.0
C747 C 0.39683 0.52657 0.60047 0.0
C748 C 0.39972 0.53781 0.57295 0.0
C749 C 0.36934 0.526 0.61439 0.0
C750 C 0.29255 0.54849 0.61266 0.0
H751 H 0.1729 0.43706 0.64247 0.0
H752 H 0.22525 0.45892 0.64629 0.0
H753 H 0.24629 0.55493 0.61828 0.0
H754 H 0.3781 0.56017 0.53948 0.0
H755 H 0.33034 0.56018 0.56417 0.0
H756 H 0.31984 0.4815 0.61186 0.0
C757 C 0.20964 0.47044 0.63407 0.0
C758 C 0.26209 0.53864 0.617 0.0
C759 C 0.17963 0.45798 0.63213 0.0
C760 C 0.37623 0.55157 0.56082 0.0
C761 C 0.34899 0.5516 0.57497 0.0
C762 C 0.3041 0.49779 0.61399 0.0
C763 C 0.21942 0.49698 0.61994 0.0
C764 C 0.25214 0.50811 0.61884 0.0
C765 C 0.34474 0.53713 0.60105 0.0
C766 C 0.31372 0.52807 0.61074 0.0
H767 H 0.15171 0.51048 0.59158 0.0
H768 H 0.20448 0.5317 0.59357 0.0
H769 H 0.26712 0.46424 0.61829 0.0
H770 H 0.41471 0.51562 0.61001 0.0
H771 H 0.36657 0.51477 0.63453 0.0
C772 C 0.93894 0.87732 0.97039 0.0
C773 C 0.95738 0.89283 0.95011 0.0
C774 C 0.94625 0.85038 0.98138 0.0
C775 C 0.98525 0.78716 0.96205 0.0
H776 H 0.98802 0.7694 0.04225 0.0
C777 C 1.00015 0.67041 0.00215 0.0
C778 C 0.02775 0.67004 0.01659 0.0
C779 C 0.98811 0.69718 0.99793 0.0
C780 C 0.98709 0.77408 0.01982 0.0
H781 H 0.99909 0.89269 0.92697 0.0
H782 H 0.01104 0.84544 0.9453 0.0
H783 H 0.97462 0.81787 0.02665 0.0
H784 H 0.06344 0.69671 0.03951 0.0
H785 H 0.04138 0.74341 0.03362 0.0
H786 H 0.99745 0.74347 0.95511 0.0
C787 C 0.99077 0.85401 0.95244 0.0
C788 C 0.97939 0.80169 0.0109 0.0
C789 C 0.98374 0.88104 0.94179 0.0
C790 C 0.04189 0.69644 0.02869 0.0
C791 C 0.02936 0.7231 0.02521 0.0
C792 C 0.99226 0.75945 0.97091 0.0
C793 C 0.97197 0.83821 0.9721 0.0
C794 C 0.97878 0.80862 0.98191 0.0
C795 C 0.00305 0.72388 0.00875 0.0
C796 C 0.99349 0.7527 0.99986 0.0
H797 H 0.91841 0.88555 0.97724 0.0
H798 H 0.9313 0.8386 0.99645 0.0
H799 H 0.9848 0.79182 0.93959 0.0
H800 H 0.9892 0.65043 0.99211 0.0
H801 H 0.96785 0.69724 0.9851 0.0
C802 C 0.47696 0.69958 0.12653 0.0
C803 C 0.46716 0.67781 0.10625 0.0
C804 C 0.48119 0.72947 0.11894 0.0
C805 C 0.45653 0.7799 0.06418 0.0
H806 H 0.51629 0.83691 0.10061 0.0
C807 C 0.4999 0.9088 0.04662 0.0
C808 C 0.48687 0.92496 0.06767 0.0
C809 C 0.49526 0.8778 0.04645 0.0
C810 C 0.49966 0.82108 0.09019 0.0
H811 H 0.45575 0.66962 0.06201 0.0
H812 H 0.46429 0.72165 0.04841 0.0
H813 H 0.51624 0.78414 0.11046 0.0
H814 H 0.45796 0.92182 0.10421 0.0
H815 H 0.44957 0.86758 0.10368 0.0
H816 H 0.4401 0.81732 0.04404 0.0
C817 C 0.46777 0.71593 0.07034 0.0
C818 C 0.49942 0.79095 0.09597 0.0
C819 C 0.46316 0.68615 0.07802 0.0
C820 C 0.46759 0.90981 0.08736 0.0
C821 C 0.46296 0.8789 0.08719 0.0
C822 C 0.45689 0.81008 0.05834 0.0
C823 C 0.47603 0.73806 0.09084 0.0
C824 C 0.47764 0.76997 0.08328 0.0
C825 C 0.47765 0.86276 0.06739 0.0
C826 C 0.47829 0.83079 0.07152 0.0
H827 H 0.47981 0.69363 0.1485 0.0
H828 H 0.4872 0.74587 0.13538 0.0
H829 H 0.43911 0.76447 0.05437 0.0
H830 H 0.51583 0.91995 0.03198 0.0
H831 H 0.50707 0.86558 0.03127 0.0
C832 C 0.06488 0.37762 0.56266 0.0
C833 C 0.08847 0.38536 0.58225 0.0
C834 C 0.06041 0.34911 0.55083 0.0
C835 C 0.09891 0.28197 0.53925 0.0
H836 H 0.01772 0.24149 0.53502 0.0
C837 C 0.06854 0.1561 0.54328 0.0
C838 C 0.04182 0.14349 0.53006 0.0
C839 C 0.07784 0.18635 0.54069 0.0
C840 C 0.04049 0.25267 0.53535 0.0
H841 H 0.1253 0.36897 0.60537 0.0
H842 H 0.11749 0.31941 0.58488 0.0
H843 H 0.02571 0.29324 0.54973 0.0
H844 H 0.00517 0.15143 0.5019 0.0
H845 H 0.02158 0.20446 0.49694 0.0
H846 H 0.11371 0.24089 0.52603 0.0
C847 C 0.1029 0.33552 0.57807 0.0
C848 C 0.04507 0.28234 0.54391 0.0
C849 C 0.10736 0.36395 0.58985 0.0
C850 C 0.02615 0.16074 0.51188 0.0
C851 C 0.03531 0.1911 0.50941 0.0
C852 C 0.09433 0.25225 0.53075 0.0
C853 C 0.07943 0.32775 0.55837 0.0
C854 C 0.07438 0.29716 0.54655 0.0
C855 C 0.06028 0.20447 0.52511 0.0
C856 C 0.06511 0.2371 0.52925 0.0
H857 H 0.05008 0.39369 0.55622 0.0
H858 H 0.04224 0.34389 0.53559 0.0
H859 H 0.12175 0.29292 0.54058 0.0
H860 H 0.08057 0.14319 0.55784 0.0
H861 H 0.09708 0.19593 0.55317 0.0
C862 C 0.53135 0.20137 0.4983 0.0
C863 C 0.56102 0.19455 0.49663 0.0
C864 C 0.52558 0.23039 0.50412 0.0
C865 C 0.55859 0.30179 0.53541 0.0
H866 H 0.49552 0.33278 0.49163 0.0
C867 C 0.52949 0.42456 0.54324 0.0
C868 C 0.49889 0.42843 0.5398 0.0
C869 C 0.53903 0.39627 0.53995 0.0
C870 C 0.51294 0.32443 0.50438 0.0
H871 H 0.60805 0.21202 0.50011 0.0
H872 H 0.59806 0.26311 0.51014 0.0
H873 H 0.50829 0.28331 0.48156 0.0
H874 H 0.45414 0.40539 0.53258 0.0
H875 H 0.47044 0.35662 0.52777 0.0
H876 H 0.5629 0.34303 0.55847 0.0
C877 C 0.57921 0.24609 0.50706 0.0
C878 C 0.52032 0.296 0.49851 0.0
C879 C 0.58495 0.21699 0.5011 0.0
C880 C 0.47795 0.40329 0.53499 0.0
C881 C 0.48736 0.37527 0.53193 0.0
C882 C 0.55106 0.33033 0.54144 0.0
C883 C 0.54942 0.25316 0.50851 0.0
C884 C 0.54293 0.28412 0.51416 0.0
C885 C 0.51809 0.37143 0.53327 0.0
C886 C 0.52775 0.34182 0.52629 0.0
H887 H 0.51258 0.18421 0.49531 0.0
H888 H 0.50238 0.23494 0.50553 0.0
H889 H 0.57608 0.29324 0.54792 0.0
H890 H 0.54618 0.44352 0.54681 0.0
H891 H 0.56288 0.39414 0.54125 0.0
loop_
_geom_bond_atom_site_label_1
_geom_bond_atom_site_label_2
_geom_bond_distance
_geom_bond_site_symmetry_2
_ccdc_geom_bond_type
H0 C3 0.929 . S
H1 C6 0.929 . S
H2 C8 0.930 . S
C3 H0 0.929 . S
C3 C4 1.398 . S
C3 C5 1.396 . S
C4 C3 1.398 . S
C4 C8 1.407 . S
C5 C3 1.396 . S
C5 C6 1.394 . S
C6 H1 0.929 . S
C6 C5 1.394 . S
C6 C7 1.382 . S
C7 C6 1.382 . S
C7 C8 1.392 . S
C7 N9 1.420 . S
C8 H2 0.930 . S
C8 C4 1.407 . S
C8 C7 1.392 . S
N9 C7 1.420 . S
N9 C10 1.244 . S
C10 N9 1.244 . S
H11 C14 0.929 . S
H12 C17 0.929 . S
H13 C19 0.930 . S
C14 H11 0.929 . S
C14 C15 1.398 . S
C14 C16 1.396 . S
C15 C14 1.398 . S
C15 C19 1.407 . S
C16 C14 1.396 . S
C16 C17 1.394 . S
C17 H12 0.929 . S
C17 C16 1.394 . S
C17 C18 1.382 . S
C18 C17 1.382 . S
C18 C19 1.392 . S
C18 N20 1.420 . S
C19 H13 0.930 . S
C19 C15 1.407 . S
C19 C18 1.392 . S
N20 C18 1.420 . S
N20 C21 1.244 . S
C21 N20 1.244 . S
H22 C25 0.929 . S
H23 C28 0.929 . S
H24 C30 0.930 . S
C25 H22 0.929 . S
C25 C26 1.398 . S
C25 C27 1.396 . S
C26 C25 1.398 . S
C26 C30 1.407 . S
C27 C25 1.396 . S
C27 C28 1.394 . S
C28 H23 0.929 . S
C28 C27 1.394 . S
C28 C29 1.382 . S
C29 C28 1.382 . S
C29 C30 1.392 . S
C29 N31 1.420 . S
C30 H24 0.930 . S
C30 C26 1.407 . S
C30 C29 1.392 . S
N31 C29 1.420 . S
N31 C32 1.244 . S
C32 N31 1.244 . S
H33 C36 0.929 . S
H34 C39 0.929 . S
H35 C41 0.930 . S
C36 H33 0.929 . S
C36 C37 1.398 . S
C36 C38 1.396 . S
C37 C36 1.398 . S
C37 C41 1.407 . S
C38 C36 1.396 . S
C38 C39 1.394 . S
C39 H34 0.929 . S
C39 C38 1.394 . S
C39 C40 1.382 . S
C40 C39 1.382 . S
C40 C41 1.392 . S
C40 N42 1.420 . S
C41 H35 0.930 . S
C41 C37 1.407 . S
C41 C40 1.392 . S
N42 C40 1.420 . S
N42 C43 1.244 . S
C43 N42 1.244 . S
H44 C47 0.929 . S
H45 C50 0.929 . S
H46 C52 0.930 1_545 S
C47 H44 0.929 . S
C47 C48 1.398 . S
C47 C49 1.396 . S
C48 C47 1.398 . S
C48 C52 1.407 . S
C49 C47 1.396 . S
C49 C50 1.394 . S
C50 H45 0.929 . S
C50 C49 1.394 . S
C50 C51 1.382 . S
C51 C50 1.382 . S
C51 C52 1.392 . S
C51 N53 1.420 . S
C52 H46 0.930 1_565 S
C52 C48 1.407 . S
C52 C51 1.392 . S
N53 C51 1.420 . S
N53 C54 1.244 . S
C54 N53 1.244 . S
H55 C58 0.929 . S
H56 C61 0.929 . S
H57 C63 0.930 . S
C58 H55 0.929 . S
C58 C59 1.398 . S
C58 C60 1.396 . S
C59 C58 1.398 . S
C59 C63 1.407 . S
C60 C58 1.396 . S
C60 C61 1.394 . S
C61 H56 0.929 . S
C61 C60 1.394 . S
C61 C62 1.382 . S
C62 C61 1.382 . S
C62 C63 1.392 . S
C62 N64 1.420 . S
C63 H57 0.930 . S
C63 C59 1.407 . S
C63 C62 1.392 . S
N64 C62 1.420 . S
N64 C65 1.244 . S
C65 N64 1.244 . S
H66 C69 0.929 . S
H67 C72 0.929 . S
H68 C74 0.930 . S
C69 H66 0.929 . S
C69 C70 1.398 . S
C69 C71 1.396 . S
C70 C69 1.398 . S
C70 C74 1.407 . S
C71 C69 1.396 . S
C71 C72 1.394 . S
C72 H67 0.929 . S
C72 C71 1.394 . S
C72 C73 1.382 . S
C73 C72 1.382 . S
C73 C74 1.392 . S
C73 N75 1.420 . S
C74 H68 0.930 . S
C74 C70 1.407 . S
C74 C73 1.392 . S
N75 C73 1.420 . S
N75 C76 1.244 . S
C76 N75 1.244 . S
H77 C80 0.929 . S
H78 C83 0.929 . S
H79 C85 0.930 . S
C80 H77 0.929 . S
C80 C81 1.398 . S
C80 C82 1.396 . S
C81 C80 1.398 . S
C81 C85 1.407 . S
C82 C80 1.396 . S
C82 C83 1.394 . S
C83 H78 0.929 . S
C83 C82 1.394 . S
C83 C84 1.382 . S
C84 C83 1.382 . S
C84 C85 1.392 . S
C84 N86 1.420 . S
C85 H79 0.930 . S
C85 C81 1.407 . S
C85 C84 1.392 . S
N86 C84 1.420 . S
N86 C87 1.244 . S
C87 N86 1.244 . S
Zn88 O94 1.920 . S
Zn88 O100 1.898 . S
Zn88 O103 1.905 . S
Zn89 O97 1.905 1_565 S
Zn89 O98 1.898 . S
Zn89 O106 1.920 . S
Zn90 O93 2.080 1_455 S
Zn90 O96 2.114 . S
Zn90 O99 2.120 1_445 S
Zn90 O101 2.120 . S
Zn90 O102 2.114 1_455 S
Zn90 O105 2.080 . S
C91 O96 1.166 . S
C91 O97 1.182 . S
C92 O98 1.167 1_655 S
C92 O99 1.299 . S
O93 Zn90 2.080 1_655 S
O93 C107 1.305 . S
O94 Zn88 1.920 . S
O94 C107 1.234 . S
C95 O100 1.167 1_455 S
C95 O101 1.299 . S
O96 Zn90 2.114 . S
O96 C91 1.166 . S
O97 Zn89 1.905 1_545 S
O97 C91 1.182 . S
O98 Zn89 1.898 . S
O98 C92 1.167 1_455 S
O99 Zn90 2.120 1_665 S
O99 C92 1.299 . S
O100 Zn88 1.898 . S
O100 C95 1.167 1_655 S
O101 Zn90 2.120 . S
O101 C95 1.299 . S
O102 Zn90 2.114 1_655 S
O102 C104 1.166 . S
O103 Zn88 1.905 . S
O103 C104 1.182 . S
C104 O102 1.166 . S
C104 O103 1.182 . S
O105 Zn90 2.080 . S
O105 C108 1.305 . S
O106 Zn89 1.920 . S
O106 C108 1.234 1_565 S
C107 O93 1.305 . S
C107 O94 1.234 . S
C108 O105 1.305 . S
C108 O106 1.234 1_545 S
Zn109 O115 1.920 . S
Zn109 O121 1.898 . S
Zn109 O124 1.905 . S
Zn110 O118 1.905 . S
Zn110 O119 1.898 . S
Zn110 O127 1.920 1_565 S
Zn111 O114 2.080 . S
Zn111 O117 2.114 . S
Zn111 O120 2.120 1_545 S
Zn111 O122 2.120 . S
Zn111 O123 2.114 . S
Zn111 O126 2.080 . S
C112 O117 1.166 . S
C112 O118 1.182 1_545 S
C113 O119 1.167 . S
C113 O120 1.299 . S
O114 Zn111 2.080 . S
O114 C128 1.305 . S
O115 Zn109 1.920 . S
O115 C128 1.234 . S
C116 O121 1.167 . S
C116 O122 1.299 . S
O117 Zn111 2.114 . S
O117 C112 1.166 . S
O118 Zn110 1.905 . S
O118 C112 1.182 1_565 S
O119 Zn110 1.898 . S
O119 C113 1.167 . S
O120 Zn111 2.120 1_565 S
O120 C113 1.299 . S
O121 Zn109 1.898 . S
O121 C116 1.167 . S
O122 Zn111 2.120 . S
O122 C116 1.299 . S
O123 Zn111 2.114 . S
O123 C125 1.166 . S
O124 Zn109 1.905 . S
O124 C125 1.182 . S
C125 O123 1.166 . S
C125 O124 1.182 . S
O126 Zn111 2.080 . S
O126 C129 1.305 . S
O127 Zn110 1.920 1_545 S
O127 C129 1.234 . S
C128 O114 1.305 . S
C128 O115 1.234 . S
C129 O126 1.305 . S
C129 O127 1.234 . S
Zn130 O136 1.920 . S
Zn130 O142 1.898 . S
Zn130 O145 1.905 . S
Zn131 O139 1.905 . S
Zn131 O140 1.898 . S
Zn131 O148 1.920 . S
Zn132 O135 2.080 . S
Zn132 O138 2.114 . S
Zn132 O141 2.120 . S
Zn132 O143 2.120 . S
Zn132 O144 2.114 . S
Zn132 O147 2.080 . S
C133 O138 1.166 . S
C133 O139 1.182 . S
C134 O140 1.167 . S
C134 O141 1.299 . S
O135 Zn132 2.080 . S
O135 C149 1.305 . S
O136 Zn130 1.920 . S
O136 C149 1.234 . S
C137 O142 1.167 . S
C137 O143 1.299 . S
O138 Zn132 2.114 . S
O138 C133 1.166 . S
O139 Zn131 1.905 . S
O139 C133 1.182 . S
O140 Zn131 1.898 . S
O140 C134 1.167 . S
O141 Zn132 2.120 . S
O141 C134 1.299 . S
O142 Zn130 1.898 . S
O142 C137 1.167 . S
O143 Zn132 2.120 . S
O143 C137 1.299 . S
O144 Zn132 2.114 . S
O144 C146 1.166 . S
O145 Zn130 1.905 . S
O145 C146 1.182 . S
C146 O144 1.166 . S
C146 O145 1.182 . S
O147 Zn132 2.080 . S
O147 C150 1.305 . S
O148 Zn131 1.920 . S
O148 C150 1.234 . S
C149 O135 1.305 . S
C149 O136 1.234 . S
C150 O147 1.305 . S
C150 O148 1.234 . S
Zn151 O157 1.920 . S
Zn151 O163 1.898 . S
Zn151 O166 1.905 . S
Zn152 O160 1.905 1_655 S
Zn152 O161 1.898 . S
Zn152 O169 1.920 . S
Zn153 O156 2.080 1_554 S
Zn153 O159 2.114 . S
Zn153 O162 2.130 1_455 S
Zn153 O164 2.120 . S
Zn153 O165 2.114 1_554 S
Zn153 O168 2.080 . S
C154 O159 1.166 . S
C154 O160 1.182 . S
C155 O161 1.140 1_556 S
C155 O162 1.297 1_556 S
O156 Zn153 2.080 1_556 S
O156 C170 1.305 . S
O157 Zn151 1.920 . S
O157 C170 1.234 . S
C158 O163 1.167 1_554 S
C158 O164 1.299 . S
O159 Zn153 2.114 . S
O159 C154 1.166 . S
O160 Zn152 1.905 1_455 S
O160 C154 1.182 . S
O161 Zn152 1.898 . S
O161 C155 1.140 1_554 S
O162 Zn153 2.130 1_655 S
O162 C155 1.297 1_554 S
O163 Zn151 1.898 . S
O163 C158 1.167 1_556 S
O164 Zn153 2.120 . S
O164 C158 1.299 . S
O165 Zn153 2.114 1_556 S
O165 C167 1.166 . S
O166 Zn151 1.905 . S
O166 C167 1.182 . S
C167 O165 1.166 . S
C167 O166 1.182 . S
O168 Zn153 2.080 . S
O168 C171 1.313 . S
O169 Zn152 1.920 . S
O169 C171 1.229 1_655 S
C170 O156 1.305 . S
C170 O157 1.234 . S
C171 O168 1.313 . S
C171 O169 1.229 1_455 S
C172 C173 1.349 . S
C172 C174 1.327 . S
C172 H197 0.950 . S
C173 C172 1.349 . S
C173 C189 1.349 . S
C174 C172 1.327 . S
C174 C193 1.429 . S
C174 H198 0.950 . S
C175 C192 1.574 . S
C175 C194 1.368 . S
C175 H199 0.949 . S
H176 C180 0.949 . S
C177 C178 1.349 . S
C177 C179 1.327 . S
C177 H200 0.950 . S
C178 C177 1.349 . S
C178 C190 1.349 . S
C179 C177 1.327 . S
C179 C195 1.429 . S
C179 H201 0.950 . S
C180 H176 0.949 . S
C180 C188 1.574 . S
C180 C196 1.368 . S
H181 C189 0.950 . S
H182 C187 0.950 . S
H183 C188 0.949 . S
H184 C190 0.950 . S
H185 C191 0.950 . S
H186 C192 0.949 . S
C187 H182 0.950 . S
C187 C189 1.327 . S
C187 C193 1.429 . S
C188 C180 1.574 . S
C188 H183 0.949 . S
C188 C194 1.368 . S
C189 C173 1.349 . S
C189 H181 0.950 . S
C189 C187 1.327 . S
C190 C178 1.349 . S
C190 H184 0.950 . S
C190 C191 1.327 . S
C191 H185 0.950 . S
C191 C190 1.327 . S
C191 C195 1.429 . S
C192 C175 1.574 . S
C192 H186 0.949 . S
C192 C196 1.368 . S
C193 C174 1.429 . S
C193 C187 1.429 . S
C193 C194 1.523 . S
C194 C175 1.368 . S
C194 C188 1.368 . S
C194 C193 1.523 . S
C195 C179 1.429 . S
C195 C191 1.429 . S
C195 C196 1.523 . S
C196 C180 1.368 . S
C196 C192 1.368 . S
C196 C195 1.523 . S
H197 C172 0.950 . S
H198 C174 0.950 . S
H199 C175 0.949 . S
H200 C177 0.950 . S
H201 C179 0.950 . S
C202 C203 1.349 . S
C202 C204 1.327 . S
C202 H227 0.950 . S
C203 C202 1.349 . S
C203 C219 1.349 . S
C204 C202 1.327 . S
C204 C223 1.429 . S
C204 H228 0.950 . S
C205 C222 1.574 . S
C205 C224 1.368 . S
C205 H229 0.949 . S
H206 C210 0.949 . S
C207 C208 1.349 . S
C207 C209 1.327 . S
C207 H230 0.950 1_565 S
C208 C207 1.349 . S
C208 C220 1.349 . S
C209 C207 1.327 . S
C209 C225 1.429 . S
C209 H231 0.950 . S
C210 H206 0.949 . S
C210 C218 1.574 . S
C210 C226 1.368 . S
H211 C219 0.950 . S
H212 C217 0.950 . S
H213 C218 0.949 . S
H214 C220 0.950 . S
H215 C221 0.950 . S
H216 C222 0.949 . S
C217 H212 0.950 . S
C217 C219 1.327 . S
C217 C223 1.429 . S
C218 C210 1.574 . S
C218 H213 0.949 . S
C218 C224 1.368 . S
C219 C203 1.349 . S
C219 H211 0.950 . S
C219 C217 1.327 . S
C220 C208 1.349 . S
C220 H214 0.950 . S
C220 C221 1.327 . S
C221 H215 0.950 . S
C221 C220 1.327 . S
C221 C225 1.429 . S
C222 C205 1.574 . S
C222 H216 0.949 . S
C222 C226 1.368 . S
C223 C204 1.429 . S
C223 C217 1.429 . S
C223 C224 1.523 . S
C224 C205 1.368 . S
C224 C218 1.368 . S
C224 C223 1.523 . S
C225 C209 1.429 . S
C225 C221 1.429 . S
C225 C226 1.523 . S
C226 C210 1.368 . S
C226 C222 1.368 . S
C226 C225 1.523 . S
H227 C202 0.950 . S
H228 C204 0.950 . S
H229 C205 0.949 . S
H230 C207 0.950 1_545 S
H231 C209 0.950 . S
C232 C233 1.349 . S
C232 C234 1.327 . S
C232 H257 0.950 . S
C233 C232 1.349 . S
C233 C249 1.349 . S
C234 C232 1.327 . S
C234 C253 1.429 . S
C234 H258 0.950 . S
C235 C252 1.574 . S
C235 C254 1.368 . S
C235 H259 0.949 . S
H236 C240 0.949 . S
C237 C238 1.349 . S
C237 C239 1.327 . S
C237 H260 0.950 . S
C238 C237 1.349 . S
C238 C250 1.349 . S
C239 C237 1.327 . S
C239 C255 1.429 . S
C239 H261 0.950 . S
C240 H236 0.949 . S
C240 C248 1.574 . S
C240 C256 1.368 . S
H241 C249 0.950 . S
H242 C247 0.950 . S
H243 C248 0.949 . S
H244 C250 0.950 . S
H245 C251 0.950 . S
H246 C252 0.949 . S
C247 H242 0.950 . S
C247 C249 1.327 . S
C247 C253 1.429 . S
C248 C240 1.574 . S
C248 H243 0.949 . S
C248 C254 1.368 . S
C249 C233 1.349 . S
C249 H241 0.950 . S
C249 C247 1.327 . S
C250 C238 1.349 . S
C250 H244 0.950 . S
C250 C251 1.327 . S
C251 H245 0.950 . S
C251 C250 1.327 . S
C251 C255 1.429 . S
C252 C235 1.574 . S
C252 H246 0.949 . S
C252 C256 1.368 . S
C253 C234 1.429 . S
C253 C247 1.429 . S
C253 C254 1.523 . S
C254 C235 1.368 . S
C254 C248 1.368 . S
C254 C253 1.523 . S
C255 C239 1.429 . S
C255 C251 1.429 . S
C255 C256 1.523 . S
C256 C240 1.368 . S
C256 C252 1.368 . S
C256 C255 1.523 . S
H257 C232 0.950 . S
H258 C234 0.950 . S
H259 C235 0.949 . S
H260 C237 0.950 . S
H261 C239 0.950 . S
C262 C263 1.349 . S
C262 C264 1.327 . S
C262 H287 0.950 . S
C263 C262 1.349 . S
C263 C279 1.349 . S
C264 C262 1.327 . S
C264 C283 1.429 . S
C264 H288 0.950 . S
C265 C282 1.574 . S
C265 C284 1.368 . S
C265 H289 0.949 . S
H266 C270 0.949 . S
C267 C268 1.349 1_455 S
C267 C269 1.327 1_455 S
C267 H290 0.950 . S
C268 C267 1.349 1_655 S
C268 C280 1.349 . S
C269 C267 1.327 1_655 S
C269 C285 1.429 . S
C269 H291 0.950 . S
C270 H266 0.949 . S
C270 C278 1.574 . S
C270 C286 1.368 . S
H271 C279 0.950 . S
H272 C277 0.950 . S
H273 C278 0.949 . S
H274 C280 0.950 . S
H275 C281 0.950 . S
H276 C282 0.949 . S
C277 H272 0.950 . S
C277 C279 1.327 . S
C277 C283 1.429 . S
C278 C270 1.574 . S
C278 H273 0.949 . S
C278 C284 1.368 . S
C279 C263 1.349 . S
C279 H271 0.950 . S
C279 C277 1.327 . S
C280 C268 1.349 . S
C280 H274 0.950 . S
C280 C281 1.327 . S
C281 H275 0.950 . S
C281 C280 1.327 . S
C281 C285 1.429 . S
C282 C265 1.574 . S
C282 H276 0.949 . S
C282 C286 1.368 . S
C283 C264 1.429 . S
C283 C277 1.429 . S
C283 C284 1.523 . S
C284 C265 1.368 . S
C284 C278 1.368 . S
C284 C283 1.523 . S
C285 C269 1.429 . S
C285 C281 1.429 . S
C285 C286 1.523 . S
C286 C270 1.368 . S
C286 C282 1.368 . S
C286 C285 1.523 . S
H287 C262 0.950 . S
H288 C264 0.950 . S
H289 C265 0.949 . S
H290 C267 0.950 . S
H291 C269 0.950 . S
C292 C293 1.349 . S
C292 C294 1.327 . S
C292 H317 0.950 . S
C293 C292 1.349 . S
C293 C309 1.349 . S
C294 C292 1.327 . S
C294 C313 1.429 . S
C294 H318 0.950 . S
C295 C312 1.574 . S
C295 C314 1.368 . S
C295 H319 0.949 . S
H296 C300 0.949 . S
C297 C298 1.349 . S
C297 C299 1.327 . S
C297 H320 0.950 . S
C298 C297 1.349 . S
C298 C310 1.349 . S
C299 C297 1.327 . S
C299 C315 1.429 . S
C299 H321 0.950 . S
C300 H296 0.949 . S
C300 C308 1.574 . S
C300 C316 1.368 . S
H301 C309 0.950 . S
H302 C307 0.950 . S
H303 C308 0.949 . S
H304 C310 0.950 . S
H305 C311 0.950 . S
H306 C312 0.949 . S
C307 H302 0.950 . S
C307 C309 1.327 . S
C307 C313 1.429 . S
C308 C300 1.574 . S
C308 H303 0.949 . S
C308 C314 1.368 . S
C309 C293 1.349 . S
C309 H301 0.950 . S
C309 C307 1.327 . S
C310 C298 1.349 . S
C310 H304 0.950 . S
C310 C311 1.327 . S
C311 H305 0.950 . S
C311 C310 1.327 . S
C311 C315 1.429 . S
C312 C295 1.574 . S
C312 H306 0.949 . S
C312 C316 1.368 . S
C313 C294 1.429 . S
C313 C307 1.429 . S
C313 C314 1.523 . S
C314 C295 1.368 . S
C314 C308 1.368 . S
C314 C313 1.523 . S
C315 C299 1.429 . S
C315 C311 1.429 . S
C315 C316 1.523 . S
C316 C300 1.368 . S
C316 C312 1.368 . S
C316 C315 1.523 . S
H317 C292 0.950 . S
H318 C294 0.950 . S
H319 C295 0.949 . S
H320 C297 0.950 . S
H321 C299 0.950 . S
C322 C323 1.349 . S
C322 C324 1.327 . S
C322 H347 0.950 . S
C323 C322 1.349 . S
C323 C339 1.349 . S
C324 C322 1.327 . S
C324 C343 1.429 . S
C324 H348 0.950 . S
C325 C342 1.574 . S
C325 C344 1.368 . S
C325 H349 0.949 . S
H326 C330 0.949 . S
C327 C328 1.349 1_545 S
C327 C329 1.327 1_545 S
C327 H350 0.950 . S
C328 C327 1.349 1_565 S
C328 C340 1.349 . S
C329 C327 1.327 1_565 S
C329 C345 1.429 . S
C329 H351 0.950 1_565 S
C330 H326 0.949 . S
C330 C338 1.574 . S
C330 C346 1.368 . S
H331 C339 0.950 . S
H332 C337 0.950 . S
H333 C338 0.949 . S
H334 C340 0.950 . S
H335 C341 0.950 . S
H336 C342 0.949 . S
C337 H332 0.950 . S
C337 C339 1.327 . S
C337 C343 1.429 . S
C338 C330 1.574 . S
C338 H333 0.949 . S
C338 C344 1.368 . S
C339 C323 1.349 . S
C339 H331 0.950 . S
C339 C337 1.327 . S
C340 C328 1.349 . S
C340 H334 0.950 . S
C340 C341 1.327 . S
C341 H335 0.950 . S
C341 C340 1.327 . S
C341 C345 1.429 . S
C342 C325 1.574 . S
C342 H336 0.949 . S
C342 C346 1.368 . S
C343 C324 1.429 . S
C343 C337 1.429 . S
C343 C344 1.523 . S
C344 C325 1.368 . S
C344 C338 1.368 . S
C344 C343 1.523 . S
C345 C329 1.429 . S
C345 C341 1.429 . S
C345 C346 1.523 . S
C346 C330 1.368 . S
C346 C342 1.368 . S
C346 C345 1.523 . S
H347 C322 0.950 . S
H348 C324 0.950 . S
H349 C325 0.949 . S
H350 C327 0.950 . S
H351 C329 0.950 1_545 S
C352 C353 1.349 . S
C352 C354 1.327 . S
C352 H377 0.950 . S
C353 C352 1.349 . S
C353 C369 1.349 . S
C354 C352 1.327 . S
C354 C373 1.429 . S
C354 H378 0.950 . S
C355 C372 1.574 . S
C355 C374 1.368 . S
C355 H379 0.949 . S
H356 C360 0.949 . S
C357 C358 1.349 . S
C357 C359 1.327 . S
C357 H380 0.950 . S
C358 C357 1.349 . S
C358 C370 1.349 . S
C359 C357 1.327 . S
C359 C375 1.429 . S
C359 H381 0.950 . S
C360 H356 0.949 . S
C360 C368 1.574 . S
C360 C376 1.368 . S
H361 C369 0.950 . S
H362 C367 0.950 . S
H363 C368 0.949 . S
H364 C370 0.950 1_554 S
H365 C371 0.950 . S
H366 C372 0.949 . S
C367 H362 0.950 . S
C367 C369 1.327 . S
C367 C373 1.429 . S
C368 C360 1.574 . S
C368 H363 0.949 . S
C368 C374 1.368 . S
C369 C353 1.349 . S
C369 H361 0.950 . S
C369 C367 1.327 . S
C370 C358 1.349 . S
C370 H364 0.950 1_556 S
C370 C371 1.327 . S
C371 H365 0.950 . S
C371 C370 1.327 . S
C371 C375 1.429 . S
C372 C355 1.574 . S
C372 H366 0.949 . S
C372 C376 1.368 . S
C373 C354 1.429 . S
C373 C367 1.429 . S
C373 C374 1.523 . S
C374 C355 1.368 . S
C374 C368 1.368 . S
C374 C373 1.523 . S
C375 C359 1.429 . S
C375 C371 1.429 . S
C375 C376 1.523 . S
C376 C360 1.368 . S
C376 C372 1.368 . S
C376 C375 1.523 . S
H377 C352 0.950 . S
H378 C354 0.950 . S
H379 C355 0.949 . S
H380 C357 0.950 . S
H381 C359 0.950 . S
C382 C383 1.349 . S
C382 C384 1.327 . S
C382 H407 0.950 . S
C383 C382 1.349 . S
C383 C399 1.349 . S
C384 C382 1.327 . S
C384 C403 1.429 . S
C384 H408 0.950 . S
C385 C402 1.574 . S
C385 C404 1.368 . S
C385 H409 0.949 . S
H386 C390 0.949 . S
C387 C388 1.349 . S
C387 C389 1.327 . S
C387 H410 0.950 . S
C388 C387 1.349 . S
C388 C400 1.349 . S
C389 C387 1.327 . S
C389 C405 1.429 . S
C389 H411 0.950 . S
C390 H386 0.949 . S
C390 C398 1.574 . S
C390 C406 1.368 . S
H391 C399 0.950 . S
H392 C397 0.950 . S
H393 C398 0.949 . S
H394 C400 0.950 . S
H395 C401 0.950 . S
H396 C402 0.949 . S
C397 H392 0.950 . S
C397 C399 1.327 . S
C397 C403 1.429 . S
C398 C390 1.574 . S
C398 H393 0.949 . S
C398 C404 1.368 . S
C399 C383 1.349 . S
C399 H391 0.950 . S
C399 C397 1.327 . S
C400 C388 1.349 . S
C400 H394 0.950 . S
C400 C401 1.327 . S
C401 H395 0.950 . S
C401 C400 1.327 . S
C401 C405 1.429 . S
C402 C385 1.574 . S
C402 H396 0.949 . S
C402 C406 1.368 . S
C403 C384 1.429 . S
C403 C397 1.429 . S
C403 C404 1.523 . S
C404 C385 1.368 . S
C404 C398 1.368 . S
C404 C403 1.523 . S
C405 C389 1.429 . S
C405 C401 1.429 . S
C405 C406 1.523 . S
C406 C390 1.368 . S
C406 C402 1.368 . S
C406 C405 1.523 . S
H407 C382 0.950 . S
H408 C384 0.950 . S
H409 C385 0.949 . S
H410 C387 0.950 . S
H411 C389 0.950 . S
C412 C413 1.349 . S
C412 C414 1.327 . S
C412 H437 0.950 . S
C413 C412 1.349 . S
C413 C429 1.349 . S
C414 C412 1.327 . S
C414 C433 1.429 . S
C414 H438 0.950 . S
C415 C432 1.574 . S
C415 C434 1.368 . S
C415 H439 0.949 . S
H416 C420 0.949 . S
C417 C418 1.349 . S
C417 C419 1.327 . S
C417 H440 0.950 . S
C418 C417 1.349 . S
C418 C430 1.349 . S
C419 C417 1.327 . S
C419 C435 1.429 . S
C419 H441 0.950 . S
C420 H416 0.949 . S
C420 C428 1.574 . S
C420 C436 1.368 . S
H421 C429 0.950 . S
H422 C427 0.950 . S
H423 C428 0.949 . S
H424 C430 0.950 . S
H425 C431 0.950 . S
H426 C432 0.949 . S
C427 H422 0.950 . S
C427 C429 1.327 . S
C427 C433 1.429 . S
C428 C420 1.574 . S
C428 H423 0.949 . S
C428 C434 1.368 . S
C429 C413 1.349 . S
C429 H421 0.950 . S
C429 C427 1.327 . S
C430 C418 1.349 . S
C430 H424 0.950 . S
C430 C431 1.327 . S
C431 H425 0.950 . S
C431 C430 1.327 . S
C431 C435 1.429 . S
C432 C415 1.574 . S
C432 H426 0.949 . S
C432 C436 1.368 . S
C433 C414 1.429 . S
C433 C427 1.429 . S
C433 C434 1.523 . S
C434 C415 1.368 . S
C434 C428 1.368 . S
C434 C433 1.523 . S
C435 C419 1.429 . S
C435 C431 1.429 . S
C435 C436 1.523 . S
C436 C420 1.368 . S
C436 C432 1.368 . S
C436 C435 1.523 . S
H437 C412 0.950 . S
H438 C414 0.950 . S
H439 C415 0.949 . S
H440 C417 0.950 . S
H441 C419 0.950 . S
C442 C443 1.349 . S
C442 C444 1.327 . S
C442 H467 0.950 . S
C443 C442 1.349 . S
C443 C459 1.349 . S
C444 C442 1.327 . S
C444 C463 1.429 . S
C444 H468 0.950 . S
C445 C462 1.574 . S
C445 C464 1.368 . S
C445 H469 0.949 . S
H446 C450 0.949 . S
C447 C448 1.349 . S
C447 C449 1.327 . S
C447 H470 0.950 . S
C448 C447 1.349 . S
C448 C460 1.349 . S
C449 C447 1.327 . S
C449 C465 1.429 1_554 S
C449 H471 0.950 . S
C450 H446 0.949 . S
C450 C458 1.574 . S
C450 C466 1.368 . S
H451 C459 0.950 . S
H452 C457 0.950 . S
H453 C458 0.949 . S
H454 C460 0.947 1_556 S
H455 C461 0.950 . S
H456 C462 0.949 . S
C457 H452 0.950 . S
C457 C459 1.327 . S
C457 C463 1.429 . S
C458 C450 1.574 . S
C458 H453 0.949 . S
C458 C464 1.368 . S
C459 C443 1.349 . S
C459 H451 0.950 . S
C459 C457 1.327 . S
C460 C448 1.349 . S
C460 H454 0.947 1_554 S
C460 C461 1.327 1_554 S
C461 H455 0.950 . S
C461 C460 1.327 1_556 S
C461 C465 1.429 . S
C462 C445 1.574 . S
C462 H456 0.949 . S
C462 C466 1.368 . S
C463 C444 1.429 . S
C463 C457 1.429 . S
C463 C464 1.523 . S
C464 C445 1.368 . S
C464 C458 1.368 . S
C464 C463 1.523 . S
C465 C449 1.429 1_556 S
C465 C461 1.429 . S
C465 C466 1.523 . S
C466 C450 1.368 . S
C466 C462 1.368 . S
C466 C465 1.523 . S
H467 C442 0.950 . S
H468 C444 0.950 . S
H469 C445 0.949 . S
H470 C447 0.950 . S
H471 C449 0.950 . S
C472 C473 1.349 . S
C472 C474 1.327 . S
C472 H497 0.950 . S
C473 C472 1.349 . S
C473 C489 1.349 . S
C474 C472 1.327 . S
C474 C493 1.429 . S
C474 H498 0.950 . S
C475 C492 1.574 . S
C475 C494 1.368 . S
C475 H499 0.949 . S
H476 C480 0.949 . S
C477 C478 1.349 . S
C477 C479 1.327 . S
C477 H500 0.950 . S
C478 C477 1.349 . S
C478 C490 1.349 . S
C479 C477 1.327 . S
C479 C495 1.429 . S
C479 H501 0.950 . S
C480 H476 0.949 . S
C480 C488 1.574 . S
C480 C496 1.368 . S
H481 C489 0.950 . S
H482 C487 0.950 . S
H483 C488 0.949 . S
H484 C490 0.950 1_455 S
H485 C491 0.950 . S
H486 C492 0.949 . S
C487 H482 0.950 . S
C487 C489 1.327 . S
C487 C493 1.429 . S
C488 C480 1.574 . S
C488 H483 0.949 . S
C488 C494 1.368 . S
C489 C473 1.349 . S
C489 H481 0.950 . S
C489 C487 1.327 . S
C490 C478 1.349 . S
C490 H484 0.950 1_655 S
C490 C491 1.327 . S
C491 H485 0.950 . S
C491 C490 1.327 . S
C491 C495 1.429 . S
C492 C475 1.574 . S
C492 H486 0.949 . S
C492 C496 1.368 . S
C493 C474 1.429 . S
C493 C487 1.429 . S
C493 C494 1.523 . S
C494 C475 1.368 . S
C494 C488 1.368 . S
C494 C493 1.523 . S
C495 C479 1.429 . S
C495 C491 1.429 . S
C495 C496 1.523 . S
C496 C480 1.368 . S
C496 C492 1.368 . S
C496 C495 1.523 . S
H497 C472 0.950 . S
H498 C474 0.950 . S
H499 C475 0.949 . S
H500 C477 0.950 . S
H501 C479 0.950 . S
C502 C503 1.349 . S
C502 C504 1.327 . S
C502 H527 0.950 . S
C503 C502 1.349 . S
C503 C519 1.349 . S
C504 C502 1.327 . S
C504 C523 1.429 . S
C504 H528 0.950 . S
C505 C522 1.574 . S
C505 C524 1.368 . S
C505 H529 0.949 . S
H506 C510 0.949 . S
C507 C508 1.349 . S
C507 C509 1.327 . S
C507 H530 0.950 . S
C508 C507 1.349 . S
C508 C520 1.349 . S
C509 C507 1.327 . S
C509 C525 1.429 . S
C509 H531 0.950 . S
C510 H506 0.949 . S
C510 C518 1.574 . S
C510 C526 1.368 . S
H511 C519 0.950 . S
H512 C517 0.950 . S
H513 C518 0.949 . S
H514 C520 0.950 . S
H515 C521 0.950 . S
H516 C522 0.949 . S
C517 H512 0.950 . S
C517 C519 1.327 . S
C517 C523 1.429 . S
C518 C510 1.574 . S
C518 H513 0.949 . S
C518 C524 1.368 . S
C519 C503 1.349 . S
C519 H511 0.950 . S
C519 C517 1.327 . S
C520 C508 1.349 . S
C520 H514 0.950 . S
C520 C521 1.327 . S
C521 H515 0.950 . S
C521 C520 1.327 . S
C521 C525 1.429 . S
C522 C505 1.574 . S
C522 H516 0.949 . S
C522 C526 1.368 . S
C523 C504 1.429 . S
C523 C517 1.429 . S
C523 C524 1.523 . S
C524 C505 1.368 . S
C524 C518 1.368 . S
C524 C523 1.523 . S
C525 C509 1.429 . S
C525 C521 1.429 . S
C525 C526 1.523 . S
C526 C510 1.368 . S
C526 C522 1.368 . S
C526 C525 1.523 . S
H527 C502 0.950 . S
H528 C504 0.950 . S
H529 C505 0.949 . S
H530 C507 0.950 . S
H531 C509 0.950 . S
C532 C533 1.349 . S
C532 C534 1.327 . S
C532 H557 0.950 . S
C533 C532 1.349 . S
C533 C549 1.349 1_565 S
C534 C532 1.327 . S
C534 C553 1.429 . S
C534 H558 0.950 . S
C535 C552 1.574 . S
C535 C554 1.368 1_545 S
C535 H559 0.949 1_655 S
H536 C540 0.949 . S
C537 C538 1.349 1_455 S
C537 C539 1.327 . S
C537 H560 0.950 . S
C538 C537 1.349 1_655 S
C538 C550 1.349 1_545 S
C539 C537 1.327 . S
C539 C555 1.429 1_455 S
C539 H561 0.950 . S
C540 H536 0.949 . S
C540 C548 1.574 . S
C540 C556 1.368 1_565 S
H541 C549 0.950 . S
H542 C547 0.949 . S
H543 C548 0.949 . S
H544 C550 0.950 . S
H545 C551 0.950 . S
H546 C552 0.949 1_455 S
C547 H542 0.949 . S
C547 C549 1.327 . S
C547 C553 1.429 1_545 S
C548 C540 1.574 . S
C548 H543 0.949 . S
C548 C554 1.368 . S
C549 C533 1.349 1_545 S
C549 H541 0.950 . S
C549 C547 1.327 . S
C550 C538 1.349 1_565 S
C550 H544 0.950 . S
C550 C551 1.327 . S
C551 H545 0.950 . S
C551 C550 1.327 . S
C551 C555 1.429 1_565 S
C552 C535 1.574 . S
C552 H546 0.949 1_655 S
C552 C556 1.368 . S
C553 C534 1.429 . S
C553 C547 1.429 1_565 S
C553 C554 1.523 . S
C554 C535 1.368 1_565 S
C554 C548 1.368 . S
C554 C553 1.523 . S
C555 C539 1.429 1_655 S
C555 C551 1.429 1_545 S
C555 C556 1.523 . S
C556 C540 1.368 1_545 S
C556 C552 1.368 . S
C556 C555 1.523 . S
H557 C532 0.950 . S
H558 C534 0.950 . S
H559 C535 0.949 1_455 S
H560 C537 0.950 . S
H561 C539 0.950 . S
C562 C563 1.349 . S
C562 C564 1.327 . S
C562 H587 0.950 . S
C563 C562 1.349 . S
C563 C579 1.349 . S
C564 C562 1.327 . S
C564 C583 1.429 . S
C564 H588 0.950 . S
C565 C582 1.574 . S
C565 C584 1.368 . S
C565 H589 0.949 . S
H566 C570 0.949 . S
C567 C568 1.349 . S
C567 C569 1.327 . S
C567 H590 0.950 . S
C568 C567 1.349 . S
C568 C580 1.349 . S
C569 C567 1.327 . S
C569 C585 1.429 . S
C569 H591 0.950 . S
C570 H566 0.949 . S
C570 C578 1.574 . S
C570 C586 1.368 . S
H571 C579 0.950 . S
H572 C577 0.950 . S
H573 C578 0.949 . S
H574 C580 0.950 . S
H575 C581 0.950 . S
H576 C582 0.949 . S
C577 H572 0.950 . S
C577 C579 1.327 . S
C577 C583 1.429 . S
C578 C570 1.574 . S
C578 H573 0.949 . S
C578 C584 1.368 . S
C579 C563 1.349 . S
C579 H571 0.950 . S
C579 C577 1.327 . S
C580 C568 1.349 . S
C580 H574 0.950 . S
C580 C581 1.327 . S
C581 H575 0.950 . S
C581 C580 1.327 . S
C581 C585 1.429 . S
C582 C565 1.574 . S
C582 H576 0.949 . S
C582 C586 1.368 . S
C583 C564 1.429 . S
C583 C577 1.429 . S
C583 C584 1.523 . S
C584 C565 1.368 . S
C584 C578 1.368 . S
C584 C583 1.523 . S
C585 C569 1.429 . S
C585 C581 1.429 . S
C585 C586 1.523 . S
C586 C570 1.368 . S
C586 C582 1.368 . S
C586 C585 1.523 . S
H587 C562 0.950 . S
H588 C564 0.950 . S
H589 C565 0.949 . S
H590 C567 0.950 . S
H591 C569 0.950 . S
C592 C593 1.349 . S
C592 C594 1.327 . S
C592 H617 0.950 . S
C593 C592 1.349 . S
C593 C609 1.349 . S
C594 C592 1.327 . S
C594 C613 1.429 . S
C594 H618 0.950 . S
C595 C612 1.574 . S
C595 C614 1.368 . S
C595 H619 0.949 . S
H596 C600 0.949 . S
C597 C598 1.349 . S
C597 C599 1.327 . S
C597 H620 0.950 . S
C598 C597 1.349 . S
C598 C610 1.349 . S
C599 C597 1.327 . S
C599 C615 1.429 . S
C599 H621 0.950 . S
C600 H596 0.949 . S
C600 C608 1.574 . S
C600 C616 1.368 . S
H601 C609 0.950 . S
H602 C607 0.950 . S
H603 C608 0.949 . S
H604 C610 0.950 . S
H605 C611 0.950 . S
H606 C612 0.949 . S
C607 H602 0.950 . S
C607 C609 1.327 . S
C607 C613 1.429 . S
C608 C600 1.574 . S
C608 H603 0.949 . S
C608 C614 1.368 . S
C609 C593 1.349 . S
C609 H601 0.950 . S
C609 C607 1.327 . S
C610 C598 1.349 . S
C610 H604 0.950 . S
C610 C611 1.327 . S
C611 H605 0.950 . S
C611 C610 1.327 . S
C611 C615 1.429 . S
C612 C595 1.574 . S
C612 H606 0.949 . S
C612 C616 1.368 . S
C613 C594 1.429 . S
C613 C607 1.429 . S
C613 C614 1.523 . S
C614 C595 1.368 . S
C614 C608 1.368 . S
C614 C613 1.523 . S
C615 C599 1.429 . S
C615 C611 1.429 . S
C615 C616 1.523 . S
C616 C600 1.368 . S
C616 C612 1.368 . S
C616 C615 1.523 . S
H617 C592 0.950 . S
H618 C594 0.950 . S
H619 C595 0.949 . S
H620 C597 0.950 . S
H621 C599 0.950 . S
C622 C623 1.349 . S
C622 C624 1.327 . S
C622 H647 0.950 . S
C623 C622 1.349 . S
C623 C639 1.349 . S
C624 C622 1.327 . S
C624 C643 1.429 . S
C624 H648 0.950 . S
C625 C642 1.574 . S
C625 C644 1.368 . S
C625 H649 0.949 . S
H626 C630 0.949 . S
C627 C628 1.349 . S
C627 C629 1.327 . S
C627 H650 0.950 . S
C628 C627 1.349 . S
C628 C640 1.349 . S
C629 C627 1.327 . S
C629 C645 1.429 . S
C629 H651 0.950 . S
C630 H626 0.949 . S
C630 C638 1.574 . S
C630 C646 1.368 . S
H631 C639 0.950 . S
H632 C637 0.950 . S
H633 C638 0.949 . S
H634 C640 0.950 . S
H635 C641 0.950 . S
H636 C642 0.949 . S
C637 H632 0.950 . S
C637 C639 1.327 . S
C637 C643 1.429 . S
C638 C630 1.574 . S
C638 H633 0.949 . S
C638 C644 1.368 . S
C639 C623 1.349 . S
C639 H631 0.950 . S
C639 C637 1.327 . S
C640 C628 1.349 . S
C640 H634 0.950 . S
C640 C641 1.327 . S
C641 H635 0.950 . S
C641 C640 1.327 . S
C641 C645 1.429 . S
C642 C625 1.574 . S
C642 H636 0.949 . S
C642 C646 1.368 . S
C643 C624 1.429 . S
C643 C637 1.429 . S
C643 C644 1.523 . S
C644 C625 1.368 . S
C644 C638 1.368 . S
C644 C643 1.523 . S
C645 C629 1.429 . S
C645 C641 1.429 . S
C645 C646 1.523 . S
C646 C630 1.368 . S
C646 C642 1.368 . S
C646 C645 1.523 . S
H647 C622 0.950 . S
H648 C624 0.950 . S
H649 C625 0.949 . S
H650 C627 0.950 . S
H651 C629 0.950 . S
C652 C653 1.349 1_554 S
C652 C654 1.327 . S
C652 H677 0.950 . S
C653 C652 1.349 1_556 S
C653 C669 1.349 1_565 S
C654 C652 1.327 . S
C654 C673 1.429 . S
C654 H678 0.950 . S
C655 C672 1.574 . S
C655 C674 1.368 1_545 S
C655 H679 0.949 1_554 S
H656 C660 0.949 . S
C657 C658 1.349 . S
C657 C659 1.327 . S
C657 H680 0.950 . S
C658 C657 1.349 . S
C658 C670 1.349 1_545 S
C659 C657 1.327 . S
C659 C675 1.429 . S
C659 H681 0.950 . S
C660 H656 0.949 . S
C660 C668 1.574 . S
C660 C676 1.349 1_565 S
H661 C669 0.950 . S
H662 C667 0.950 . S
H663 C668 0.949 . S
H664 C670 0.950 . S
H665 C671 0.950 . S
H666 C672 0.949 . S
C667 H662 0.950 . S
C667 C669 1.327 . S
C667 C673 1.429 1_546 S
C668 C660 1.574 . S
C668 H663 0.949 . S
C668 C674 1.368 . S
C669 C653 1.349 1_545 S
C669 H661 0.950 . S
C669 C667 1.327 . S
C670 C658 1.349 1_565 S
C670 H664 0.950 . S
C670 C671 1.327 . S
C671 H665 0.950 . S
C671 C670 1.327 . S
C671 C675 1.429 1_565 S
C672 C655 1.574 . S
C672 H666 0.949 . S
C672 C676 1.385 . S
C673 C654 1.429 . S
C673 C667 1.429 1_564 S
C673 C674 1.523 . S
C674 C655 1.368 1_565 S
C674 C668 1.368 . S
C674 C673 1.523 . S
C675 C659 1.429 . S
C675 C671 1.429 1_545 S
C675 C676 1.527 . S
C676 C660 1.349 1_545 S
C676 C672 1.385 . S
C676 C675 1.527 . S
H677 C652 0.950 . S
H678 C654 0.950 . S
H679 C655 0.949 1_556 S
H680 C657 0.950 . S
H681 C659 0.950 . S
C682 C683 1.349 . S
C682 C684 1.327 . S
C682 H707 0.950 . S
C683 C682 1.349 . S
C683 C699 1.349 . S
C684 C682 1.327 . S
C684 C703 1.429 . S
C684 H708 0.950 . S
C685 C702 1.574 . S
C685 C704 1.368 . S
C685 H709 0.949 . S
H686 C690 0.949 . S
C687 C688 1.349 . S
C687 C689 1.327 . S
C687 H710 0.950 . S
C688 C687 1.349 . S
C688 C700 1.349 . S
C689 C687 1.327 . S
C689 C705 1.429 . S
C689 H711 0.950 . S
C690 H686 0.949 . S
C690 C698 1.574 . S
C690 C706 1.368 . S
H691 C699 0.950 . S
H692 C697 0.950 . S
H693 C698 0.949 . S
H694 C700 0.950 . S
H695 C701 0.950 . S
H696 C702 0.949 . S
C697 H692 0.950 . S
C697 C699 1.327 . S
C697 C703 1.429 . S
C698 C690 1.574 . S
C698 H693 0.949 . S
C698 C704 1.368 . S
C699 C683 1.349 . S
C699 H691 0.950 . S
C699 C697 1.327 . S
C700 C688 1.349 . S
C700 H694 0.950 . S
C700 C701 1.327 . S
C701 H695 0.950 . S
C701 C700 1.327 . S
C701 C705 1.429 . S
C702 C685 1.574 . S
C702 H696 0.949 . S
C702 C706 1.368 . S
C703 C684 1.429 . S
C703 C697 1.429 . S
C703 C704 1.523 . S
C704 C685 1.368 . S
C704 C698 1.368 . S
C704 C703 1.523 . S
C705 C689 1.429 . S
C705 C701 1.429 . S
C705 C706 1.523 . S
C706 C690 1.368 . S
C706 C702 1.368 . S
C706 C705 1.523 . S
H707 C682 0.950 . S
H708 C684 0.950 . S
H709 C685 0.949 . S
H710 C687 0.950 . S
H711 C689 0.950 . S
C712 C713 1.349 . S
C712 C714 1.327 . S
C712 H737 0.950 . S
C713 C712 1.349 . S
C713 C729 1.349 . S
C714 C712 1.327 . S
C714 C733 1.429 . S
C714 H738 0.950 . S
C715 C732 1.574 . S
C715 C734 1.368 . S
C715 H739 0.949 . S
H716 C720 0.949 . S
C717 C718 1.349 . S
C717 C719 1.327 . S
C717 H740 0.950 . S
C718 C717 1.349 . S
C718 C730 1.349 . S
C719 C717 1.327 . S
C719 C735 1.429 . S
C719 H741 0.950 . S
C720 H716 0.949 . S
C720 C728 1.574 . S
C720 C736 1.368 . S
H721 C729 0.950 . S
H722 C727 0.950 . S
H723 C728 0.949 . S
H724 C730 0.950 . S
H725 C731 0.950 . S
H726 C732 0.949 . S
C727 H722 0.950 . S
C727 C729 1.327 . S
C727 C733 1.429 . S
C728 C720 1.574 . S
C728 H723 0.949 . S
C728 C734 1.368 . S
C729 C713 1.349 . S
C729 H721 0.950 . S
C729 C727 1.327 . S
C730 C718 1.349 . S
C730 H724 0.950 . S
C730 C731 1.327 . S
C731 H725 0.950 . S
C731 C730 1.327 . S
C731 C735 1.429 . S
C732 C715 1.574 . S
C732 H726 0.949 . S
C732 C736 1.368 . S
C733 C714 1.429 . S
C733 C727 1.429 . S
C733 C734 1.523 . S
C734 C715 1.368 . S
C734 C728 1.368 . S
C734 C733 1.523 . S
C735 C719 1.429 . S
C735 C731 1.429 . S
C735 C736 1.523 . S
C736 C720 1.368 . S
C736 C732 1.368 . S
C736 C735 1.523 . S
H737 C712 0.950 . S
H738 C714 0.950 . S
H739 C715 0.949 . S
H740 C717 0.950 . S
H741 C719 0.950 . S
C742 C743 1.349 . S
C742 C744 1.327 . S
C742 H767 0.950 . S
C743 C742 1.349 . S
C743 C759 1.349 . S
C744 C742 1.327 . S
C744 C763 1.429 . S
C744 H768 0.950 . S
C745 C762 1.574 . S
C745 C764 1.368 . S
C745 H769 0.949 . S
H746 C750 0.949 . S
C747 C748 1.349 . S
C747 C749 1.327 . S
C747 H770 0.950 . S
C748 C747 1.349 . S
C748 C760 1.349 . S
C749 C747 1.327 . S
C749 C765 1.429 . S
C749 H771 0.950 . S
C750 H746 0.949 . S
C750 C758 1.574 . S
C750 C766 1.368 . S
H751 C759 0.950 . S
H752 C757 0.950 . S
H753 C758 0.949 . S
H754 C760 0.950 . S
H755 C761 0.950 . S
H756 C762 0.949 . S
C757 H752 0.950 . S
C757 C759 1.327 . S
C757 C763 1.429 . S
C758 C750 1.574 . S
C758 H753 0.949 . S
C758 C764 1.368 . S
C759 C743 1.349 . S
C759 H751 0.950 . S
C759 C757 1.327 . S
C760 C748 1.349 . S
C760 H754 0.950 . S
C760 C761 1.327 . S
C761 H755 0.950 . S
C761 C760 1.327 . S
C761 C765 1.429 . S
C762 C745 1.574 . S
C762 H756 0.949 . S
C762 C766 1.368 . S
C763 C744 1.429 . S
C763 C757 1.429 . S
C763 C764 1.523 . S
C764 C745 1.368 . S
C764 C758 1.368 . S
C764 C763 1.523 . S
C765 C749 1.429 . S
C765 C761 1.429 . S
C765 C766 1.523 . S
C766 C750 1.368 . S
C766 C762 1.368 . S
C766 C765 1.523 . S
H767 C742 0.950 . S
H768 C744 0.950 . S
H769 C745 0.949 . S
H770 C747 0.950 . S
H771 C749 0.950 . S
C772 C773 1.349 . S
C772 C774 1.327 . S
C772 H797 0.950 . S
C773 C772 1.349 . S
C773 C789 1.349 . S
C774 C772 1.327 . S
C774 C793 1.429 . S
C774 H798 0.950 1_556 S
C775 C792 1.574 . S
C775 C794 1.368 1_455 S
C775 H799 0.949 . S
H776 C780 0.949 . S
C777 C778 1.349 . S
C777 C779 1.327 . S
C777 H800 0.950 . S
C778 C777 1.349 . S
C778 C790 1.349 1_556 S
C779 C777 1.327 . S
C779 C795 1.429 . S
C779 H801 0.950 . S
C780 H776 0.949 . S
C780 C788 1.573 . S
C780 C796 1.368 1_654 S
H781 C789 0.950 . S
H782 C787 0.950 1_455 S
H783 C788 0.947 . S
H784 C790 0.950 . S
H785 C791 0.950 1_655 S
H786 C792 0.949 . S
C787 H782 0.950 1_655 S
C787 C789 1.327 . S
C787 C793 1.429 . S
C788 C780 1.573 . S
C788 H783 0.947 . S
C788 C794 1.372 1_554 S
C789 C773 1.349 . S
C789 H781 0.950 . S
C789 C787 1.327 . S
C790 C778 1.349 1_554 S
C790 H784 0.950 . S
C790 C791 1.327 . S
C791 H785 0.950 1_455 S
C791 C790 1.327 . S
C791 C795 1.429 1_554 S
C792 C775 1.574 . S
C792 H786 0.949 . S
C792 C796 1.368 . S
C793 C774 1.429 . S
C793 C787 1.429 . S
C793 C794 1.523 . S
C794 C775 1.368 1_655 S
C794 C788 1.372 1_556 S
C794 C793 1.523 . S
C795 C779 1.429 . S
C795 C791 1.429 1_556 S
C795 C796 1.523 . S
C796 C780 1.368 1_456 S
C796 C792 1.368 . S
C796 C795 1.523 . S
H797 C772 0.950 . S
H798 C774 0.950 1_554 S
H799 C775 0.949 . S
H800 C777 0.950 . S
H801 C779 0.950 . S
C802 C803 1.349 . S
C802 C804 1.327 . S
C802 H827 0.950 . S
C803 C802 1.349 . S
C803 C819 1.349 . S
C804 C802 1.327 . S
C804 C823 1.429 . S
C804 H828 0.950 . S
C805 C822 1.574 . S
C805 C824 1.368 . S
C805 H829 0.949 . S
H806 C810 0.949 . S
C807 C808 1.349 . S
C807 C809 1.327 . S
C807 H830 0.950 . S
C808 C807 1.349 . S
C808 C820 1.349 . S
C809 C807 1.327 . S
C809 C825 1.429 . S
C809 H831 0.950 . S
C810 H806 0.949 . S
C810 C818 1.574 . S
C810 C826 1.368 . S
H811 C819 0.950 . S
H812 C817 0.950 . S
H813 C818 0.949 . S
H814 C820 0.950 . S
H815 C821 0.950 . S
H816 C822 0.949 . S
C817 H812 0.950 . S
C817 C819 1.327 . S
C817 C823 1.429 . S
C818 C810 1.574 . S
C818 H813 0.949 . S
C818 C824 1.368 . S
C819 C803 1.349 . S
C819 H811 0.950 . S
C819 C817 1.327 . S
C820 C808 1.349 . S
C820 H814 0.950 . S
C820 C821 1.327 . S
C821 H815 0.950 . S
C821 C820 1.327 . S
C821 C825 1.429 . S
C822 C805 1.574 . S
C822 H816 0.949 . S
C822 C826 1.368 . S
C823 C804 1.429 . S
C823 C817 1.429 . S
C823 C824 1.523 . S
C824 C805 1.368 . S
C824 C818 1.368 . S
C824 C823 1.523 . S
C825 C809 1.429 . S
C825 C821 1.429 . S
C825 C826 1.523 . S
C826 C810 1.368 . S
C826 C822 1.368 . S
C826 C825 1.523 . S
H827 C802 0.950 . S
H828 C804 0.950 . S
H829 C805 0.949 . S
H830 C807 0.950 . S
H831 C809 0.950 . S
C832 C833 1.349 . S
C832 C834 1.327 . S
C832 H857 0.950 . S
C833 C832 1.349 . S
C833 C849 1.349 . S
C834 C832 1.327 . S
C834 C853 1.429 . S
C834 H858 0.950 . S
C835 C852 1.574 . S
C835 C854 1.368 . S
C835 H859 0.949 . S
H836 C840 0.949 . S
C837 C838 1.349 . S
C837 C839 1.327 . S
C837 H860 0.950 . S
C838 C837 1.349 . S
C838 C850 1.349 . S
C839 C837 1.327 . S
C839 C855 1.429 . S
C839 H861 0.950 . S
C840 H836 0.949 . S
C840 C848 1.574 . S
C840 C856 1.368 . S
H841 C849 0.950 . S
H842 C847 0.950 . S
H843 C848 0.949 . S
H844 C850 0.950 1_655 S
H845 C851 0.950 1_655 S
H846 C852 0.949 . S
C847 H842 0.950 . S
C847 C849 1.327 . S
C847 C853 1.429 . S
C848 C840 1.574 . S
C848 H843 0.949 . S
C848 C854 1.368 . S
C849 C833 1.349 . S
C849 H841 0.950 . S
C849 C847 1.327 . S
C850 C838 1.349 . S
C850 H844 0.950 1_455 S
C850 C851 1.327 . S
C851 H845 0.950 1_455 S
C851 C850 1.327 . S
C851 C855 1.429 . S
C852 C835 1.574 . S
C852 H846 0.949 . S
C852 C856 1.368 . S
C853 C834 1.429 . S
C853 C847 1.429 . S
C853 C854 1.523 . S
C854 C835 1.368 . S
C854 C848 1.368 . S
C854 C853 1.523 . S
C855 C839 1.429 . S
C855 C851 1.429 . S
C855 C856 1.523 . S
C856 C840 1.368 . S
C856 C852 1.368 . S
C856 C855 1.523 . S
H857 C832 0.950 . S
H858 C834 0.950 . S
H859 C835 0.949 . S
H860 C837 0.950 . S
H861 C839 0.950 . S
C862 C863 1.349 . S
C862 C864 1.327 . S
C862 H887 0.950 . S
C863 C862 1.349 . S
C863 C879 1.349 . S
C864 C862 1.327 . S
C864 C883 1.429 . S
C864 H888 0.950 . S
C865 C882 1.574 . S
C865 C884 1.368 . S
C865 H889 0.949 . S
H866 C870 0.949 . S
C867 C868 1.349 . S
C867 C869 1.327 . S
C867 H890 0.950 . S
C868 C867 1.349 . S
C868 C880 1.349 . S
C869 C867 1.327 . S
C869 C885 1.429 . S
C869 H891 0.950 . S
C870 H866 0.949 . S
C870 C878 1.574 . S
C870 C886 1.368 . S
H871 C879 0.950 . S
H872 C877 0.950 . S
H873 C878 0.949 . S
H874 C880 0.950 . S
H875 C881 0.950 . S
H876 C882 0.949 . S
C877 H872 0.950 . S
C877 C879 1.327 . S
C877 C883 1.429 . S
C878 C870 1.574 . S
C878 H873 0.949 . S
C878 C884 1.368 . S
C879 C863 1.349 . S
C879 H871 0.950 . S
C879 C877 1.327 . S
C880 C868 1.349 . S
C880 H874 0.950 . S
C880 C881 1.327 . S
C881 H875 0.950 . S
C881 C880 1.327 . S
C881 C885 1.429 . S
C882 C865 1.574 . S
C882 H876 0.949 . S
C882 C886 1.368 . S
C883 C864 1.429 . S
C883 C877 1.429 . S
C883 C884 1.523 . S
C884 C865 1.368 . S
C884 C878 1.368 . S
C884 C883 1.523 . S
C885 C869 1.429 . S
C885 C881 1.429 . S
C885 C886 1.523 . S
C886 C870 1.368 . S
C886 C882 1.368 . S
C886 C885 1.523 . S
H887 C862 0.950 . S
H888 C864 0.950 . S
H889 C865 0.949 . S
H890 C867 0.950 . S
H891 C869 0.950 . S
C173 C4 1.755 . S
C178 C91 1.631 . S
C203 C16 1.882 . S
C208 C125 1.735 1_566 S
C238 C137 0.982 . S
C233 C32 1.028 . S
C263 C43 1.328 . S
C268 C171 1.222 1_655 S
C298 C128 1.924 . S
C293 C5 2.079 . S
C328 C108 1.218 1_565 S
C323 C21 1.291 . S
C358 C155 1.259 . S
C353 C27 1.353 . S
C388 C146 1.337 . S
C383 C37 1.403 . S
C413 C10 1.586 . S
C418 C154 1.484 . S
C448 C116 1.488 . S
C443 C26 1.621 . S
C473 C38 1.234 . S
C478 C92 1.140 . S
C503 C15 1.703 . S
C508 C149 1.602 . S
C538 C107 1.835 . S
C533 C48 1.967 . S
C563 C59 1.680 . S
C568 C129 1.578 . S
C593 C76 1.472 . S
C598 C134 1.380 . S
C623 C87 1.272 . S
C628 C167 1.227 . S
C653 C54 1.466 . S
C658 C112 1.399 . S
C688 C104 1.910 . S
C683 C60 2.046 . S
C718 C158 1.406 . S
C713 C71 1.454 . S
C748 C150 1.298 . S
C743 C82 1.396 . S
C773 C49 1.860 . S
C778 C170 1.760 . S
C808 C113 1.210 . S
C803 C70 1.306 . S
C838 C95 1.545 . S
C833 C81 1.680 . S
C863 C65 1.570 . S
C868 C133 1.477 . S
