# Generated by pormake.
# Topology nom, (4,4)-cn, num edge types: 1
# Building blocks:
#     Node 0, Type 0, BuildingBlock: MUDLON_clean_linker_0, # of connection points: 4
#     Node 1, Type 0, BuildingBlock: MUDLON_clean_linker_0, # of connection points: 4
#     Node 2, Type 0, BuildingBlock: MUDLON_clean_linker_0, # of connection points: 4
#     Node 3, Type 0, BuildingBlock: MUDLON_clean_linker_0, # of connection points: 4
#     Node 4, Type 0, BuildingBlock: MUDLON_clean_linker_0, # of connection points: 4
#     Node 5, Type 0, BuildingBlock: MUDLON_clean_linker_0, # of connection points: 4
#     Node 6, Type 1, BuildingBlock: KUFVIS_clean_sbu_0, # of connection points: 4
#     Node 7, Type 1, BuildingBlock: KUFVIS_clean_sbu_0, # of connection points: 4
#     Node 8, Type 1, BuildingBlock: KUFVIS_clean_sbu_0, # of connection points: 4
#     Node 9, Type 1, BuildingBlock: KUFVIS_clean_sbu_0, # of connection points: 4
#     Node 10, Type 1, BuildingBlock: KUFVIS_clean_sbu_0, # of connection points: 4
#     Node 11, Type 1, BuildingBlock: KUFVIS_clean_sbu_0, # of connection points: 4
#     Edge 12, Type (0, 1), BuildingBlock: OJICUG_clean_linker_0, # of connection points: 2
#     Edge 13, Type (0, 1), BuildingBlock: OJICUG_clean_linker_0, # of connection points: 2
#     Edge 14, Type (0, 1), BuildingBlock: OJICUG_clean_linker_0, # of connection points: 2
#     Edge 15, Type (0, 1), BuildingBlock: OJICUG_clean_linker_0, # of connection points: 2
#     Edge 16, Type (0, 1), BuildingBlock: OJICUG_clean_linker_0, # of connection points: 2
#     Edge 17, Type (0, 1), BuildingBlock: OJICUG_clean_linker_0, # of connection points: 2
#     Edge 18, Type (0, 1), BuildingBlock: OJICUG_clean_linker_0, # of connection points: 2
#     Edge 19, Type (0, 1), BuildingBlock: OJICUG_clean_linker_0, # of connection points: 2
#     Edge 20, Type (0, 1), BuildingBlock: OJICUG_clean_linker_0, # of connection points: 2
#     Edge 21, Type (0, 1), BuildingBlock: OJICUG_clean_linker_0, # of connection points: 2
#     Edge 22, Type (0, 1), BuildingBlock: OJICUG_clean_linker_0, # of connection points: 2
#     Edge 23, Type (0, 1), BuildingBlock: OJICUG_clean_linker_0, # of connection points: 2
#     Edge 24, Type (0, 1), BuildingBlock: OJICUG_clean_linker_0, # of connection points: 2
#     Edge 25, Type (0, 1), BuildingBlock: OJICUG_clean_linker_0, # of connection points: 2
#     Edge 26, Type (0, 1), BuildingBlock: OJICUG_clean_linker_0, # of connection points: 2
#     Edge 27, Type (0, 1), BuildingBlock: OJICUG_clean_linker_0, # of connection points: 2
#     Edge 28, Type (0, 1), BuildingBlock: OJICUG_clean_linker_0, # of connection points: 2
#     Edge 29, Type (0, 1), BuildingBlock: OJICUG_clean_linker_0, # of connection points: 2
#     Edge 30, Type (0, 1), BuildingBlock: OJICUG_clean_linker_0, # of connection points: 2
#     Edge 31, Type (0, 1), BuildingBlock: OJICUG_clean_linker_0, # of connection points: 2
#     Edge 32, Type (0, 1), BuildingBlock: OJICUG_clean_linker_0, # of connection points: 2
#     Edge 33, Type (0, 1), BuildingBlock: OJICUG_clean_linker_0, # of connection points: 2
#     Edge 34, Type (0, 1), BuildingBlock: OJICUG_clean_linker_0, # of connection points: 2
#     Edge 35, Type (0, 1), BuildingBlock: OJICUG_clean_linker_0, # of connection points: 2
# Relax obj value: 0.009
# Max RMSD: 0.108
# Mean RMSD: 0.063
data_MOF--net-nom--node1-KUFVIS_clean_sbu_0--node2-MUDLON_clean_linker_0--edge1-OJICUG_clean_linker_0
_symmetry_space_group_name_H-M    P1
_symmetry_Int_Tables_number       1
_symmetry_cell_setting            triclinic
loop_
_symmetry_equiv_pos_as_xyz
'x, y, z'
_cell_length_a     47.712749
_cell_length_b     49.110081
_cell_length_c     48.514065
_cell_angle_alpha  91.068529
_cell_angle_beta   90.561564
_cell_angle_gamma 120.60349
loop_
_atom_site_label
_atom_site_type_symbol
_atom_site_fract_x
_atom_site_fract_y
_atom_site_fract_z
_atom_type_partial_charge
H0 H 0.15858 0.54796 0.28847 0.0
N1 N 0.12742 0.5577 0.32921 0.0
H2 H 0.20644 0.5884 0.26428 0.0
H3 H 0.15018 0.62152 0.33056 0.0
H4 H 0.19852 0.66167 0.30744 0.0
H5 H 0.1141 0.5918 0.3665 0.0
H6 H 0.13653 0.60711 0.4135 0.0
H7 H 0.15977 0.53597 0.357 0.0
H8 H 0.18079 0.54949 0.40441 0.0
H9 H 0.08372 0.49706 0.33354 0.0
H10 H 0.09382 0.58574 0.31007 0.0
H11 H 0.02549 0.47019 0.32331 0.0
H12 H 0.03577 0.55878 0.29794 0.0
H13 H 0.85825 0.38813 0.25389 0.0
H14 H 0.83691 0.37904 0.20657 0.0
H15 H 0.87525 0.47957 0.19937 0.0
H16 H 0.8983 0.48837 0.24619 0.0
H17 H 0.87026 0.48732 0.28606 0.0
H18 H 0.82492 0.48343 0.31178 0.0
H19 H 0.80706 0.39521 0.34532 0.0
H20 H 0.85245 0.39909 0.31887 0.0
H21 H 0.93011 0.42285 0.27699 0.0
H22 H 0.98848 0.4521 0.28688 0.0
H23 H 0.98207 0.53319 0.31386 0.0
N24 N 0.88812 0.44245 0.28243 0.0
H25 H 0.92403 0.50428 0.3021 0.0
C26 C 0.15096 0.58155 0.31153 0.0
C27 C 0.16658 0.57273 0.29201 0.0
C28 C 0.19387 0.59576 0.27832 0.0
C29 C 0.20619 0.628 0.28433 0.0
C30 C 0.18951 0.63689 0.30268 0.0
C31 C 0.16188 0.6139 0.31591 0.0
C32 C 0.13587 0.56319 0.35818 0.0
C33 C 0.12852 0.58241 0.37476 0.0
C34 C 0.14115 0.5909 0.40175 0.0
C35 C 0.16097 0.57996 0.41274 0.0
C36 C 0.1664 0.55908 0.39651 0.0
C37 C 0.15417 0.55102 0.36949 0.0
C38 C 0.09326 0.54318 0.32217 0.0
C39 C 0.07332 0.51062 0.32576 0.0
C40 C 0.04002 0.49528 0.31964 0.0
C41 C 0.02571 0.51208 0.30925 0.0
C42 C 0.04573 0.545 0.30602 0.0
C43 C 0.07914 0.56048 0.31267 0.0
C44 C 0.87921 0.43871 0.25361 0.0
C45 C 0.86245 0.40816 0.24183 0.0
C46 C 0.85004 0.40306 0.21488 0.0
C47 C 0.85367 0.42849 0.19924 0.0
C48 C 0.87198 0.4594 0.2107 0.0
C49 C 0.88487 0.4645 0.2376 0.0
C50 C 0.86498 0.44351 0.30068 0.0
C51 C 0.85711 0.46744 0.2993 0.0
C52 C 0.83106 0.46518 0.31411 0.0
C53 C 0.81217 0.4389 0.33054 0.0
C54 C 0.82079 0.41554 0.33258 0.0
C55 C 0.84693 0.41788 0.31778 0.0
C56 C 0.92247 0.46097 0.28918 0.0
C57 C 0.94138 0.44696 0.28503 0.0
C58 C 0.97477 0.46373 0.29095 0.0
C59 C 0.9902 0.49499 0.30171 0.0
C60 C 0.97124 0.50928 0.30547 0.0
C61 C 0.93776 0.49256 0.29902 0.0
H62 H 0.48217 0.86858 0.47234 0.0
N63 N 0.46734 0.90942 0.45193 0.0
H64 H 0.44639 0.82056 0.49735 0.0
H65 H 0.40804 0.89387 0.47211 0.0
H66 H 0.37173 0.84559 0.49706 0.0
H67 H 0.41471 0.89936 0.42095 0.0
H68 H 0.40242 0.87972 0.37298 0.0
H69 H 0.50524 0.89998 0.41826 0.0
H70 H 0.49271 0.87947 0.37054 0.0
H71 H 0.52348 0.94397 0.47911 0.0
H72 H 0.44211 0.94803 0.44494 0.0
H73 H 0.55108 1.00042 0.49097 0.0
H74 H 0.47021 0.00492 0.4551 0.0
H75 H 0.62895 0.20154 0.51209 0.0
H76 H 0.63555 0.22331 0.55817 0.0
H77 H 0.56977 0.12964 0.58796 0.0
H78 H 0.56065 0.10839 0.54126 0.0
H79 H 0.54369 0.16215 0.49877 0.0
H80 H 0.54664 0.20729 0.47534 0.0
H81 H 0.62241 0.21275 0.42377 0.0
H82 H 0.61999 0.1681 0.44784 0.0
H83 H 0.60978 0.10528 0.47737 0.0
H84 H 0.57879 0.04827 0.46814 0.0
H85 H 0.48999 0.04688 0.48849 0.0
N86 N 0.58766 0.14248 0.4936 0.0
H87 H 0.5214 0.10438 0.49642 0.0
C88 C 0.44772 0.88461 0.47044 0.0
C89 C 0.45835 0.86399 0.47825 0.0
C90 C 0.43781 0.83652 0.49231 0.0
C91 C 0.40612 0.82913 0.4989 0.0
C92 C 0.39607 0.85074 0.49237 0.0
C93 C 0.4167 0.87826 0.4781 0.0
C94 C 0.46117 0.90149 0.42297 0.0
C95 C 0.43233 0.89606 0.40981 0.0
C96 C 0.4253 0.88478 0.38243 0.0
C97 C 0.44666 0.87816 0.36804 0.0
C98 C 0.47586 0.88442 0.38109 0.0
C99 C 0.48308 0.89616 0.40826 0.0
C100 C 0.48109 0.94192 0.46084 0.0
C101 C 0.5116 0.95715 0.47422 0.0
C102 C 0.52746 0.98952 0.48065 0.0
C103 C 0.51329 0.00758 0.47344 0.0
C104 C 0.48192 0.99189 0.46103 0.0
C105 C 0.46586 0.9593 0.45496 0.0
C106 C 0.59317 0.15349 0.52233 0.0
C107 C 0.61554 0.1856 0.52842 0.0
C108 C 0.61974 0.19802 0.55518 0.0
C109 C 0.60305 0.17843 0.57724 0.0
C110 C 0.58225 0.14582 0.57155 0.0
C111 C 0.57714 0.13351 0.54448 0.0
C112 C 0.58196 0.16203 0.47518 0.0
C113 C 0.56008 0.17228 0.48176 0.0
C114 C 0.56197 0.19821 0.46854 0.0
C115 C 0.58504 0.21364 0.44804 0.0
C116 C 0.6044 0.20121 0.43948 0.0
C117 C 0.60297 0.17569 0.4531 0.0
C118 C 0.568 0.10894 0.48767 0.0
C119 C 0.5836 0.09259 0.47967 0.0
C120 C 0.5658 0.05993 0.47471 0.0
C121 C 0.53182 0.04267 0.47799 0.0
C122 C 0.51604 0.0593 0.48555 0.0
C123 C 0.53394 0.09219 0.49016 0.0
H124 H 0.47184 0.65374 0.66715 0.0
N125 N 0.47316 0.60118 0.67552 0.0
H126 H 0.43081 0.65924 0.6416 0.0
H127 H 0.42447 0.55528 0.64206 0.0
H128 H 0.38467 0.56092 0.61495 0.0
H129 H 0.41448 0.55872 0.69717 0.0
H130 H 0.39682 0.5601 0.74388 0.0
H131 H 0.50941 0.6387 0.71749 0.0
H132 H 0.49206 0.64005 0.76468 0.0
H133 H 0.52761 0.62036 0.64809 0.0
H134 H 0.44762 0.53732 0.68282 0.0
H135 H 0.55235 0.5894 0.63399 0.0
H136 H 0.4727 0.5065 0.66987 0.0
H137 H 0.63066 0.50999 0.58894 0.0
H138 H 0.63807 0.49684 0.54172 0.0
H139 H 0.5388 0.41861 0.53885 0.0
H140 H 0.53185 0.43169 0.58633 0.0
H141 H 0.53251 0.41908 0.63627 0.0
H142 H 0.54236 0.3812 0.66058 0.0
H143 H 0.64473 0.45152 0.66787 0.0
H144 H 0.63458 0.48906 0.64358 0.0
H145 H 0.60663 0.53622 0.64032 0.0
H146 H 0.57988 0.56546 0.65395 0.0
H147 H 0.48633 0.4835 0.63211 0.0
N148 N 0.57913 0.47755 0.61998 0.0
H149 H 0.51346 0.45423 0.61955 0.0
C150 C 0.45153 0.60429 0.65648 0.0
C151 C 0.45309 0.63354 0.65542 0.0
C152 C 0.4296 0.63663 0.64068 0.0
C153 C 0.40405 0.61048 0.62625 0.0
C154 C 0.40342 0.58145 0.6263 0.0
C155 C 0.42661 0.57826 0.64151 0.0
C156 C 0.46342 0.59866 0.70387 0.0
C157 C 0.4318 0.57614 0.71189 0.0
C158 C 0.42173 0.57695 0.73868 0.0
C159 C 0.44299 0.6003 0.758 0.0
C160 C 0.47497 0.62203 0.75019 0.0
C161 C 0.48503 0.62114 0.72338 0.0
C162 C 0.48605 0.58148 0.66677 0.0
C163 C 0.51547 0.59546 0.65274 0.0
C164 C 0.52967 0.57773 0.64493 0.0
C165 C 0.51479 0.54545 0.6511 0.0
C166 C 0.48481 0.53122 0.66462 0.0
C167 C 0.47052 0.54898 0.6723 0.0
C168 C 0.58075 0.47207 0.59099 0.0
C169 C 0.61034 0.49046 0.57785 0.0
C170 C 0.61453 0.48281 0.55095 0.0
C171 C 0.58902 0.45667 0.53654 0.0
C172 C 0.55878 0.43909 0.5493 0.0
C173 C 0.55475 0.44657 0.57643 0.0
C174 C 0.5829 0.45689 0.63827 0.0
C175 C 0.55687 0.42652 0.64372 0.0
C176 C 0.56256 0.40493 0.6576 0.0
C177 C 0.59439 0.41332 0.66589 0.0
C178 C 0.62003 0.44425 0.66146 0.0
C179 C 0.61427 0.46578 0.64783 0.0
C180 C 0.56213 0.49324 0.62885 0.0
C181 C 0.58034 0.5246 0.63869 0.0
C182 C 0.56497 0.54132 0.6462 0.0
C183 C 0.53088 0.52704 0.64384 0.0
C184 C 0.51257 0.49524 0.63439 0.0
C185 C 0.52806 0.47846 0.62702 0.0
H186 H 0.17644 0.64835 0.78893 0.0
N187 N 0.12096 0.59603 0.77549 0.0
H188 H 0.22304 0.65296 0.81432 0.0
H189 H 0.12244 0.54803 0.80212 0.0
H190 H 0.16802 0.55251 0.82921 0.0
H191 H 0.12274 0.54785 0.74779 0.0
H192 H 0.14035 0.54863 0.70101 0.0
H193 H 0.13658 0.64096 0.73918 0.0
H194 H 0.15822 0.64391 0.6934 0.0
H195 H 0.0918 0.61999 0.80513 0.0
H196 H 0.07498 0.53261 0.76736 0.0
H197 H 0.03591 0.59266 0.82184 0.0
H198 H 0.01944 0.50541 0.78375 0.0
H199 H 0.85632 0.50413 0.87254 0.0
H200 H 0.83522 0.48403 0.91777 0.0
H201 H 0.8879 0.43371 0.9178 0.0
H202 H 0.90694 0.45239 0.87156 0.0
H203 H 0.88316 0.43063 0.82455 0.0
H204 H 0.83647 0.38683 0.80039 0.0
H205 H 0.78972 0.44269 0.79742 0.0
H206 H 0.83783 0.48702 0.81933 0.0
H207 H 0.94505 0.52662 0.86978 0.0
H208 H 1.00112 0.55154 0.85485 0.0
H209 H 0.96789 0.50591 0.7747 0.0
N210 N 0.88985 0.48762 0.83997 0.0
H211 H 0.91201 0.48116 0.78917 0.0
C212 C 0.14591 0.59805 0.79386 0.0
C213 C 0.17442 0.62745 0.79802 0.0
C214 C 0.201 0.63 0.81269 0.0
C215 C 0.19955 0.60311 0.82396 0.0
C216 C 0.17042 0.57369 0.82046 0.0
C217 C 0.14401 0.5711 0.80528 0.0
C218 C 0.12715 0.59397 0.74671 0.0
C219 C 0.12872 0.5682 0.73555 0.0
C220 C 0.13993 0.56918 0.70885 0.0
C221 C 0.15141 0.59657 0.69309 0.0
C222 C 0.14913 0.62207 0.70429 0.0
C223 C 0.13684 0.62056 0.73062 0.0
C224 C 0.08773 0.57873 0.78467 0.0
C225 C 0.07608 0.59497 0.8004 0.0
C226 C 0.04423 0.57927 0.81007 0.0
C227 C 0.0232 0.54684 0.80408 0.0
C228 C 0.03491 0.53048 0.78843 0.0
C229 C 0.06688 0.54616 0.77897 0.0
C230 C 0.88327 0.47998 0.86872 0.0
C231 C 0.86371 0.4892 0.88259 0.0
C232 C 0.85179 0.4777 0.9086 0.0
C233 C 0.85961 0.45698 0.92169 0.0
C234 C 0.88065 0.44899 0.90825 0.0
C235 C 0.89201 0.46002 0.88191 0.0
C236 C 0.86424 0.4624 0.82318 0.0
C237 C 0.86313 0.43358 0.81803 0.0
C238 C 0.83603 0.40832 0.80457 0.0
C239 C 0.80882 0.41079 0.79691 0.0
C240 C 0.81021 0.43978 0.80221 0.0
C241 C 0.83771 0.46527 0.8149 0.0
C242 C 0.92344 0.49985 0.83156 0.0
C243 C 0.94955 0.52098 0.84923 0.0
C244 C 0.9818 0.53573 0.84055 0.0
C245 C 0.98902 0.53031 0.81372 0.0
C246 C 0.96321 0.50986 0.79577 0.0
C247 C 0.93094 0.49535 0.80432 0.0
H248 H 0.53766 0.18335 0.95101 0.0
N249 N 0.53593 0.1292 0.94131 0.0
H250 H 0.58012 0.23051 0.97535 0.0
H251 H 0.58673 0.13295 0.97152 0.0
H252 H 0.62833 0.17926 0.99754 0.0
H253 H 0.59224 0.14063 0.91703 0.0
H254 H 0.6092 0.15999 0.87074 0.0
H255 H 0.49912 0.13226 0.90132 0.0
H256 H 0.51561 0.15107 0.85445 0.0
H257 H 0.48807 0.10069 0.97664 0.0
H258 H 0.55446 0.08565 0.92817 0.0
H259 H 0.46333 0.04686 0.99325 0.0
H260 H 0.52871 0.03128 0.94327 0.0
H261 H 0.37473 0.86286 0.0302 0.0
H262 H 0.37333 0.8438 0.07647 0.0
H263 H 0.47584 0.91277 0.08793 0.0
H264 H 0.47727 0.93026 0.04112 0.0
H265 H 0.46939 0.88288 0.00549 0.0
H266 H 0.46215 0.83496 0.98213 0.0
H267 H 0.37933 0.82529 0.93659 0.0
H268 H 0.38577 0.87258 0.96093 0.0
H269 H 0.40095 0.94015 0.99375 0.0
H270 H 0.42844 0.99475 0.97875 0.0
H271 H 0.52006 0.99656 0.97921 0.0
N272 N 0.4265 0.90423 0.00301 0.0
H273 H 0.49167 0.94118 0.99275 0.0
C274 C 0.55876 0.15458 0.9596 0.0
C275 C 0.55718 0.18226 0.96152 0.0
C276 C 0.58151 0.2092 0.97558 0.0
C277 C 0.60797 0.209 0.98846 0.0
C278 C 0.6088 0.18069 0.98744 0.0
C279 C 0.58468 0.15388 0.97291 0.0
C280 C 0.54425 0.13485 0.91261 0.0
C281 C 0.57507 0.14209 0.90331 0.0
C282 C 0.58473 0.15318 0.87674 0.0
C283 C 0.56386 0.15734 0.85887 0.0
C284 C 0.53247 0.14862 0.8678 0.0
C285 C 0.52284 0.13751 0.89442 0.0
C286 C 0.52272 0.09727 0.95083 0.0
C287 C 0.49712 0.08565 0.96941 0.0
C288 C 0.48282 0.05469 0.97868 0.0
C289 C 0.49353 0.03424 0.96931 0.0
C290 C 0.51983 0.04621 0.95114 0.0
C291 C 0.53445 0.07743 0.94218 0.0
C292 C 0.42587 0.89809 0.03209 0.0
C293 C 0.39672 0.87424 0.04296 0.0
C294 C 0.39601 0.86344 0.06952 0.0
C295 C 0.42454 0.87654 0.08613 0.0
C296 C 0.4535 0.90159 0.07566 0.0
C297 C 0.45427 0.91204 0.04886 0.0
C298 C 0.42773 0.88104 0.98518 0.0
C299 C 0.45006 0.87088 0.99013 0.0
C300 C 0.44589 0.8435 0.97684 0.0
C301 C 0.42004 0.82646 0.95781 0.0
C302 C 0.39946 0.83812 0.95116 0.0
C303 C 0.40317 0.86509 0.96493 0.0
C304 C 0.44418 0.93671 0.99461 0.0
C305 C 0.42697 0.95243 0.99059 0.0
C306 C 0.44288 0.98379 0.98224 0.0
C307 C 0.47672 1.00051 0.978 0.0
C308 C 0.494 0.98455 0.98197 0.0
C309 C 0.47786 0.9529 0.99001 0.0
H310 H 0.53048 0.38647 0.15624 0.0
N311 N 0.54215 0.44347 0.17135 0.0
H312 H 0.56558 0.37337 0.12967 0.0
H313 H 0.59689 0.48572 0.1444 0.0
H314 H 0.63263 0.47296 0.11817 0.0
H315 H 0.60123 0.48568 0.19535 0.0
H316 H 0.61913 0.48427 0.24228 0.0
H317 H 0.50583 0.4069 0.21155 0.0
H318 H 0.52327 0.4057 0.25897 0.0
H319 H 0.48788 0.42367 0.1419 0.0
H320 H 0.56852 0.5076 0.17948 0.0
H321 H 0.46307 0.45421 0.12765 0.0
H322 H 0.54314 0.53812 0.16671 0.0
H323 H 0.38692 0.5764 0.10584 0.0
H324 H 0.37858 0.59134 0.06103 0.0
H325 H 0.45339 0.57518 0.02862 0.0
H326 H 0.46439 0.56422 0.07469 0.0
H327 H 0.48027 0.62747 0.11916 0.0
H328 H 0.48015 0.67164 0.14325 0.0
H329 H 0.39877 0.60528 0.19117 0.0
H330 H 0.39887 0.56134 0.16658 0.0
H331 H 0.4073 0.50566 0.13683 0.0
H332 H 0.4353 0.47712 0.14778 0.0
H333 H 0.52764 0.56082 0.13109 0.0
N334 N 0.43325 0.56533 0.12255 0.0
H335 H 0.49914 0.58944 0.12129 0.0
C336 C 0.56109 0.43692 0.15232 0.0
C337 C 0.55243 0.40537 0.14747 0.0
C338 C 0.57264 0.39799 0.13251 0.0
C339 C 0.6021 0.42214 0.1221 0.0
C340 C 0.61001 0.45381 0.12579 0.0
C341 C 0.58969 0.46116 0.14084 0.0
C342 C 0.55209 0.44625 0.19993 0.0
C343 C 0.58389 0.46848 0.20919 0.0
C344 C 0.59409 0.4677 0.23614 0.0
C345 C 0.57272 0.44468 0.25438 0.0
C346 C 0.54052 0.42339 0.24535 0.0
C347 C 0.53038 0.4242 0.21839 0.0
C348 C 0.52966 0.46308 0.1621 0.0
C349 C 0.50015 0.44873 0.14712 0.0
C350 C 0.4859 0.46623 0.13925 0.0
C351 C 0.5007 0.49863 0.14646 0.0
C352 C 0.53102 0.5133 0.16067 0.0
C353 C 0.54549 0.49576 0.16825 0.0
C354 C 0.42664 0.5697 0.09423 0.0
C355 C 0.40167 0.57619 0.0891 0.0
C356 C 0.39658 0.58432 0.06299 0.0
C357 C 0.41513 0.58454 0.04048 0.0
C358 C 0.43908 0.5763 0.04528 0.0
C359 C 0.44518 0.56951 0.07188 0.0
C360 C 0.43951 0.59114 0.14117 0.0
C361 C 0.46325 0.62253 0.13557 0.0
C362 C 0.46297 0.64774 0.14925 0.0
C363 C 0.43901 0.64195 0.16875 0.0
C364 C 0.41706 0.61052 0.17583 0.0
C365 C 0.41737 0.5854 0.16215 0.0
C366 C 0.45103 0.54945 0.12813 0.0
C367 C 0.43358 0.51774 0.13551 0.0
C368 C 0.4497 0.50144 0.14154 0.0
C369 C 0.48384 0.51647 0.14006 0.0
C370 C 0.5014 0.5485 0.13272 0.0
C371 C 0.48516 0.56491 0.12696 0.0
Mn372 Mn 0.62798 0.38797 0.40075 0.0
Mn373 Mn 0.67092 0.46768 0.40736 0.0
C374 C 0.6129 0.41373 0.43251 0.0
C375 C 0.61824 0.33806 0.4125 0.0
C376 C 0.62394 0.43241 0.35953 0.0
O377 O 0.67097 0.39968 0.38255 0.0
O378 O 0.69849 0.45259 0.39018 0.0
C379 C 0.72089 0.47521 0.4484 0.0
N380 N 0.69639 0.48028 0.44081 0.0
C381 C 0.70262 0.5094 0.48311 0.0
C382 C 0.72803 0.50464 0.49132 0.0
C383 C 0.73714 0.4874 0.47391 0.0
C384 C 0.6874 0.4968 0.45742 0.0
H385 H 0.72794 0.46194 0.4351 0.0
C386 C 0.69668 0.42698 0.38118 0.0
O387 O 0.6083 0.34261 0.38897 0.0
O388 O 0.6347 0.36265 0.42877 0.0
N389 N 0.6471 0.48507 0.42412 0.0
C390 C 0.62059 0.48554 0.41405 0.0
C391 C 0.60752 0.50075 0.42951 0.0
C392 C 0.62193 0.51546 0.45504 0.0
C393 C 0.64931 0.51481 0.4649 0.0
C394 C 0.66132 0.49938 0.44855 0.0
H395 H 0.6094 0.47425 0.39445 0.0
O396 O 0.59175 0.38552 0.42321 0.0
O397 O 0.64196 0.42601 0.42265 0.0
O398 O 0.61464 0.40468 0.36788 0.0
O399 O 0.64518 0.45752 0.37252 0.0
C400 C 0.66478 0.52838 0.49051 0.0
C401 C 0.69137 0.52562 0.49965 0.0
H402 H 0.74051 0.51386 0.51104 0.0
H403 H 0.75662 0.48349 0.48016 0.0
H404 H 0.58633 0.50107 0.4218 0.0
H405 H 0.61164 0.52698 0.46699 0.0
H406 H 0.65606 0.54052 0.50358 0.0
H407 H 0.70268 0.53566 0.51961 0.0
Mn408 Mn 0.26966 0.65573 0.55056 0.0
Mn409 Mn 0.23222 0.5761 0.54486 0.0
C410 C 0.22892 0.62839 0.51755 0.0
C411 C 0.31208 0.70575 0.53892 0.0
C412 C 0.21904 0.61071 0.59069 0.0
O413 O 0.30058 0.64564 0.57149 0.0
O414 O 0.27549 0.59285 0.56327 0.0
C415 C 0.27603 0.57051 0.50538 0.0
N416 N 0.24569 0.56421 0.51208 0.0
C417 C 0.2229 0.5354 0.4692 0.0
C418 C 0.25388 0.54141 0.46191 0.0
C419 C 0.28056 0.5591 0.48006 0.0
C420 C 0.21986 0.54728 0.49475 0.0
H421 H 0.29662 0.58421 0.51923 0.0
C422 C 0.29911 0.61897 0.57326 0.0
O423 O 0.29597 0.70163 0.5614 0.0
O424 O 0.30406 0.68075 0.52369 0.0
N425 N 0.19018 0.55709 0.52713 0.0
C426 C 0.16232 0.55489 0.53659 0.0
C427 C 0.13352 0.53866 0.52052 0.0
C428 C 0.13362 0.52476 0.49498 0.0
C429 C 0.16253 0.52714 0.48577 0.0
C430 C 0.19042 0.54338 0.50277 0.0
H431 H 0.16212 0.56557 0.55619 0.0
O432 O 0.23643 0.65668 0.52566 0.0
O433 O 0.24554 0.61719 0.52898 0.0
O434 O 0.23704 0.63861 0.58191 0.0
O435 O 0.21635 0.58595 0.57897 0.0
C436 C 0.1649 0.51449 0.46018 0.0
C437 C 0.19507 0.51864 0.45189 0.0
H438 H 0.2575 0.5328 0.44233 0.0
H439 H 0.30457 0.56398 0.47451 0.0
H440 H 0.11132 0.53697 0.52775 0.0
H441 H 0.11143 0.51252 0.48252 0.0
H442 H 0.14377 0.50193 0.44653 0.0
H443 H 0.19668 0.50921 0.43199 0.0
Mn444 Mn 0.628 0.27602 0.71828 0.0
Mn445 Mn 0.67194 0.23953 0.7168 0.0
C446 C 0.61694 0.23742 0.68492 0.0
C447 C 0.62007 0.31733 0.7055 0.0
C448 C 0.61957 0.22507 0.75855 0.0
O449 O 0.66856 0.30594 0.74112 0.0
O450 O 0.69706 0.28077 0.73753 0.0
C451 C 0.72655 0.28416 0.68251 0.0
N452 N 0.70142 0.25436 0.68687 0.0
C453 C 0.7128 0.23434 0.64544 0.0
C454 C 0.73895 0.26479 0.64061 0.0
C455 C 0.74582 0.2898 0.65921 0.0
C456 C 0.69468 0.23007 0.66917 0.0
H457 H 0.73182 0.30349 0.69668 0.0
C458 C 0.69391 0.30404 0.74577 0.0
O459 O 0.6068 0.30112 0.72731 0.0
O460 O 0.63829 0.30985 0.69144 0.0
N461 N 0.65051 0.19974 0.69699 0.0
C462 C 0.62277 0.17251 0.70334 0.0
C463 C 0.61152 0.14557 0.68602 0.0
C464 C 0.62894 0.14686 0.66242 0.0
C465 C 0.65751 0.17511 0.65638 0.0
C466 C 0.66769 0.20113 0.67452 0.0
H467 H 0.60916 0.17143 0.72136 0.0
O468 O 0.59473 0.24399 0.69172 0.0
O469 O 0.64472 0.25333 0.69816 0.0
O470 O 0.61109 0.24411 0.74947 0.0
O471 O 0.64218 0.22194 0.74796 0.0
C472 C 0.6758 0.17869 0.63268 0.0
C473 C 0.70345 0.20828 0.62723 0.0
H474 H 0.75367 0.2693 0.62252 0.0
H475 H 0.76583 0.3134 0.65554 0.0
H476 H 0.58937 0.12389 0.69076 0.0
H477 H 0.61999 0.12613 0.64895 0.0
H478 H 0.66848 0.159 0.61825 0.0
H479 H 0.71697 0.21088 0.60869 0.0
Mn480 Mn 0.38082 0.6531 0.90378 0.0
Mn481 Mn 0.33903 0.57311 0.90456 0.0
C482 C 0.39483 0.62708 0.93533 0.0
C483 C 0.38901 0.70245 0.91771 0.0
C484 C 0.38865 0.61039 0.86142 0.0
O485 O 0.33868 0.64128 0.88305 0.0
O486 O 0.31227 0.58801 0.88547 0.0
C487 C 0.28529 0.56303 0.94096 0.0
N488 N 0.31073 0.55878 0.93529 0.0
C489 C 0.30135 0.52803 0.97585 0.0
C490 C 0.27492 0.53192 0.98203 0.0
C491 C 0.26691 0.54954 0.96452 0.0
C492 C 0.31856 0.54172 0.95191 0.0
H493 H 0.27912 0.57665 0.92761 0.0
C494 C 0.31391 0.61378 0.87822 0.0
O495 O 0.40027 0.69857 0.89467 0.0
O496 O 0.37228 0.67753 0.93232 0.0
N497 N 0.36203 0.5558 0.92275 0.0
C498 C 0.38996 0.55678 0.91523 0.0
C499 C 0.40237 0.54173 0.93141 0.0
C500 C 0.38589 0.52573 0.95505 0.0
C501 C 0.35711 0.52493 0.9623 0.0
C502 C 0.34577 0.54018 0.94528 0.0
H503 H 0.40281 0.56918 0.89715 0.0
O504 O 0.41611 0.65557 0.92817 0.0
O505 O 0.36623 0.61451 0.9234 0.0
O506 O 0.39629 0.63772 0.87095 0.0
O507 O 0.36752 0.58478 0.87241 0.0
C508 C 0.33972 0.51036 0.98616 0.0
C509 C 0.31184 0.51187 0.99291 0.0
H510 H 0.26087 0.52181 1.00033 0.0
H511 H 0.24666 0.5528 0.96924 0.0
H512 H 0.42468 0.54257 0.92574 0.0
H513 H 0.39573 0.51444 0.96763 0.0
H514 H 0.34793 0.49843 0.99974 0.0
H515 H 0.29903 0.50107 0.01157 0.0
Mn516 Mn 0.74159 0.38979 0.06368 0.0
Mn517 Mn 0.78246 0.35043 0.06591 0.0
C518 C 0.78358 0.40483 0.0955 0.0
C519 C 0.69809 0.39561 0.07732 0.0
C520 C 0.79261 0.39751 0.02192 0.0
O521 O 0.71143 0.3485 0.04244 0.0
O522 O 0.73909 0.32281 0.04773 0.0
C523 C 0.74067 0.3005 0.10452 0.0
N524 N 0.77043 0.32513 0.09796 0.0
C525 C 0.79455 0.32044 0.14007 0.0
C526 C 0.76421 0.29488 0.14718 0.0
C527 C 0.73715 0.28491 0.12935 0.0
C528 C 0.79662 0.33495 0.11499 0.0
H529 H 0.71977 0.29287 0.09095 0.0
C530 C 0.71426 0.32411 0.03924 0.0
O531 O 0.71327 0.4076 0.05465 0.0
O532 O 0.70769 0.37967 0.0916 0.0
N533 N 0.82461 0.37447 0.08337 0.0
C534 C 0.85171 0.40054 0.07418 0.0
C535 C 0.88073 0.41403 0.09001 0.0
C536 C 0.88162 0.40053 0.11504 0.0
C537 C 0.85349 0.37357 0.12397 0.0
C538 C 0.82536 0.36098 0.10719 0.0
H539 H 0.85115 0.41108 0.05501 0.0
O540 O 0.77457 0.42467 0.08853 0.0
O541 O 0.76768 0.37693 0.08364 0.0
O542 O 0.77325 0.40582 0.03167 0.0
O543 O 0.79705 0.37635 0.03256 0.0
C544 C 0.85211 0.35903 0.14908 0.0
C545 C 0.82265 0.33251 0.15714 0.0
H546 H 0.76135 0.28293 0.1664 0.0
H547 H 0.71362 0.26531 0.13477 0.0
H548 H 0.90233 0.43488 0.083 0.0
H549 H 0.90396 0.4112 0.12733 0.0
H550 H 0.87344 0.36833 0.16255 0.0
H551 H 0.82178 0.32182 0.17669 0.0
Mn552 Mn 0.38003 0.76826 0.23193 0.0
Mn553 Mn 0.46207 0.81265 0.23584 0.0
C554 C 0.40516 0.81024 0.26342 0.0
C555 C 0.33091 0.72462 0.24498 0.0
C556 C 0.42148 0.81719 0.18953 0.0
O557 O 0.39469 0.74043 0.21272 0.0
O558 O 0.44915 0.77025 0.21954 0.0
C559 C 0.47607 0.77698 0.27684 0.0
N560 N 0.47822 0.80444 0.26895 0.0
C561 C 0.50883 0.83188 0.31019 0.0
C562 C 0.50708 0.80394 0.31869 0.0
C563 C 0.49058 0.77636 0.30196 0.0
C564 C 0.49409 0.83113 0.28486 0.0
H565 H 0.46335 0.75571 0.26407 0.0
C566 C 0.42344 0.74479 0.21105 0.0
O567 O 0.33345 0.73804 0.22161 0.0
O568 O 0.35709 0.73594 0.26035 0.0
N569 N 0.47734 0.85391 0.2518 0.0
C570 C 0.47451 0.87813 0.2417 0.0
C571 C 0.48839 0.90703 0.25663 0.0
C572 C 0.50514 0.91076 0.28168 0.0
C573 C 0.50781 0.88553 0.29161 0.0
C574 C 0.49359 0.85733 0.2758 0.0
H575 H 0.46159 0.87537 0.22249 0.0
O576 O 0.37529 0.79971 0.25526 0.0
O577 O 0.41934 0.79609 0.25261 0.0
O578 O 0.39376 0.79757 0.19908 0.0
O579 O 0.44838 0.82366 0.20116 0.0
C580 C 0.52347 0.88706 0.31685 0.0
C581 C 0.52396 0.86025 0.32614 0.0
H582 H 0.51805 0.8033 0.33815 0.0
H583 H 0.48899 0.75466 0.30845 0.0
H584 H 0.48611 0.92635 0.24887 0.0
H585 H 0.51561 0.93301 0.29323 0.0
H586 H 0.53472 0.90857 0.32951 0.0
H587 H 0.53557 0.86155 0.34582 0.0
C588 C 0.26395 0.6705 0.29241 0.0
C589 C 0.23806 0.65221 0.27376 0.0
H590 H 0.31378 0.70724 0.29783 0.0
C591 C 0.24303 0.65709 0.24538 0.0
H592 H 0.26068 0.66693 0.31439 0.0
C593 C 0.27329 0.68059 0.23586 0.0
C594 C 0.29924 0.69891 0.25458 0.0
H595 H 0.22336 0.64314 0.23067 0.0
H596 H 0.27643 0.68436 0.21391 0.0
C597 C 0.29433 0.69338 0.28291 0.0
C598 C 0.60042 0.26957 0.45788 0.0
C599 C 0.5921 0.24493 0.43846 0.0
H600 H 0.61585 0.31843 0.46482 0.0
C601 C 0.59264 0.25107 0.41024 0.0
H602 H 0.60066 0.26553 0.47974 0.0
C603 C 0.60092 0.28133 0.40166 0.0
C604 C 0.60969 0.30608 0.42116 0.0
H605 H 0.58652 0.23245 0.39491 0.0
H606 H 0.60091 0.28547 0.37981 0.0
C607 C 0.60943 0.29989 0.44932 0.0
C608 C 0.34518 0.58717 0.61196 0.0
C609 C 0.37732 0.61302 0.61247 0.0
H610 H 0.29559 0.56885 0.59929 0.0
C611 C 0.38333 0.64137 0.60041 0.0
H612 H 0.3392 0.56523 0.62165 0.0
C613 C 0.3579 0.64371 0.58822 0.0
C614 C 0.32601 0.61759 0.58737 0.0
H615 H 0.40775 0.6617 0.60001 0.0
H616 H 0.36335 0.6657 0.5789 0.0
C617 C 0.31998 0.58933 0.59936 0.0
C618 C 0.76992 0.35189 0.79029 0.0
C619 C 0.77891 0.38321 0.78407 0.0
H620 H 0.7362 0.30238 0.78289 0.0
C621 C 0.75877 0.38788 0.76565 0.0
H622 H 0.78406 0.34704 0.80484 0.0
C623 C 0.73053 0.36214 0.75405 0.0
C624 C 0.72219 0.33108 0.7599 0.0
H625 H 0.76499 0.41138 0.75966 0.0
H626 H 0.7158 0.36655 0.73973 0.0
C627 C 0.7422 0.32616 0.778 0.0
C628 C 0.40431 0.77051 0.96565 0.0
C629 C 0.4125 0.79498 0.94717 0.0
H630 H 0.38975 0.72186 0.97071 0.0
C631 C 0.41235 0.7888 0.91879 0.0
H632 H 0.40398 0.77471 0.98762 0.0
C633 C 0.40478 0.75869 0.9091 0.0
C634 C 0.39634 0.73411 0.92762 0.0
H635 H 0.41845 0.80735 0.9042 0.0
H636 H 0.40525 0.75457 0.88715 0.0
C637 C 0.39595 0.74027 0.95596 0.0
C638 C 0.63153 0.39202 0.1216 0.0
C639 C 0.62547 0.41431 0.10937 0.0
H640 H 0.659 0.36864 0.12107 0.0
C641 C 0.64268 0.4296 0.08571 0.0
H642 H 0.61907 0.38016 0.14008 0.0
C643 C 0.66566 0.42292 0.07473 0.0
C644 C 0.67211 0.40108 0.08738 0.0
H645 H 0.6384 0.44674 0.07572 0.0
H646 H 0.67884 0.43534 0.05669 0.0
C647 C 0.65458 0.38554 0.11078 0.0
C648 C 0.38045 0.77022 0.49872 0.0
C649 C 0.38298 0.79782 0.5104 0.0
H650 H 0.35618 0.71968 0.49855 0.0
C651 C 0.36271 0.795 0.53235 0.0
H652 H 0.39542 0.77156 0.48156 0.0
C653 C 0.34029 0.76514 0.54228 0.0
C654 C 0.33738 0.73755 0.53014 0.0
H655 H 0.36423 0.81588 0.54181 0.0
H656 H 0.32474 0.76362 0.55902 0.0
C657 C 0.35784 0.74046 0.50838 0.0
C658 C 0.58217 0.36869 0.69765 0.0
C659 C 0.6014 0.38936 0.67707 0.0
H660 H 0.57333 0.32999 0.72319 0.0
C661 C 0.62716 0.38654 0.66649 0.0
H662 H 0.56223 0.37039 0.70624 0.0
C663 C 0.63333 0.36336 0.67595 0.0
C664 C 0.61411 0.34263 0.69646 0.0
H665 H 0.64215 0.40184 0.65036 0.0
H666 H 0.65311 0.36161 0.66706 0.0
C667 C 0.58864 0.34571 0.70742 0.0
C668 C 0.25066 0.63331 0.8536 0.0
C669 C 0.22869 0.60569 0.83833 0.0
H670 H 0.29492 0.65769 0.87777 0.0
C671 C 0.23535 0.5809 0.83628 0.0
H672 H 0.24618 0.65269 0.85621 0.0
C673 C 0.26296 0.58355 0.84924 0.0
C674 C 0.285 0.61129 0.86414 0.0
H675 H 0.21958 0.55955 0.82425 0.0
H676 H 0.2673 0.564 0.84724 0.0
C677 C 0.27863 0.63619 0.8661 0.0
C678 C 0.62932 0.261 0.01486 0.0
C679 C 0.63516 0.23853 0.00178 0.0
H680 H 0.64964 0.30575 0.03653 0.0
C681 C 0.66747 0.24499 0.00085 0.0
H682 H 0.60482 0.25678 0.01649 0.0
C683 C 0.69303 0.27279 0.01289 0.0
C684 C 0.68713 0.29522 0.02573 0.0
H685 H 0.67325 0.22883 0.99044 0.0
H686 H 0.71754 0.27687 0.01184 0.0
C687 C 0.65503 0.28912 0.02645 0.0
C688 C 0.46248 0.69757 0.18778 0.0
C689 C 0.43519 0.66826 0.17998 0.0
H690 H 0.48029 0.74459 0.20364 0.0
C691 C 0.40401 0.66449 0.18205 0.0
H692 H 0.48681 0.70121 0.18656 0.0
C693 C 0.40018 0.68935 0.19178 0.0
C694 C 0.42745 0.71866 0.19973 0.0
H695 H 0.38248 0.6424 0.17571 0.0
H696 H 0.37578 0.6855 0.19313 0.0
C697 C 0.45867 0.72244 0.1976 0.0
C698 C 0.78349 0.46184 0.35685 0.0
C699 C 0.7829 0.43542 0.34455 0.0
H700 H 0.75713 0.47996 0.378 0.0
C701 C 0.75378 0.40591 0.34487 0.0
H702 H 0.80559 0.48482 0.35733 0.0
C703 C 0.72583 0.40301 0.35685 0.0
C704 C 0.72631 0.42958 0.36878 0.0
H705 H 0.75234 0.38513 0.33527 0.0
H706 H 0.70377 0.38 0.35646 0.0
C707 C 0.75561 0.45897 0.36879 0.0
C708 C 0.16267 0.59814 0.46219 0.0
C709 C 0.17771 0.59178 0.44014 0.0
H710 H 0.1673 0.61496 0.50423 0.0
C711 C 0.20966 0.59783 0.44413 0.0
H712 H 0.13808 0.59369 0.45995 0.0
C713 C 0.22586 0.60927 0.4695 0.0
C714 C 0.2106 0.61498 0.4915 0.0
H715 H 0.22252 0.59424 0.42751 0.0
H716 H 0.25056 0.61395 0.47187 0.0
C717 C 0.1792 0.61008 0.48756 0.0
C718 C 0.58136 0.17887 0.62465 0.0
C719 C 0.60697 0.19228 0.60575 0.0
H720 H 0.56464 0.18243 0.66484 0.0
C721 C 0.63595 0.22017 0.61389 0.0
H722 H 0.5583 0.15797 0.61913 0.0
C723 C 0.63884 0.23465 0.63956 0.0
C724 C 0.61372 0.22078 0.6585 0.0
H725 H 0.65664 0.23112 0.60052 0.0
H726 H 0.66085 0.2569 0.64458 0.0
C727 C 0.58474 0.193 0.65078 0.0
C728 C 0.41027 0.57582 0.80022 0.0
C729 C 0.43111 0.60302 0.78557 0.0
H730 H 0.3808 0.55675 0.8356 0.0
C731 C 0.43915 0.63281 0.79677 0.0
H732 H 0.40396 0.55255 0.79235 0.0
C733 C 0.42594 0.63529 0.82165 0.0
C734 C 0.40435 0.60802 0.83592 0.0
H735 H 0.45482 0.65422 0.78586 0.0
H736 H 0.43214 0.65859 0.82934 0.0
C737 C 0.39708 0.57828 0.82509 0.0
C738 C 0.83605 0.45892 0.96764 0.0
C739 C 0.8443 0.44245 0.94836 0.0
H740 H 0.81292 0.45755 0.00567 0.0
C741 C 0.8362 0.4113 0.9542 0.0
H742 H 0.84249 0.48316 0.9644 0.0
C743 C 0.82004 0.39699 0.97833 0.0
C744 C 0.81089 0.41315 0.99696 0.0
H745 H 0.84143 0.39747 0.93978 0.0
H746 H 0.81383 0.37287 0.98199 0.0
C747 C 0.8192 0.44431 0.99144 0.0
C748 C 0.39661 0.85016 0.13002 0.0
C749 C 0.42435 0.86288 0.11347 0.0
H750 H 0.37382 0.82564 0.16673 0.0
C751 C 0.45142 0.86107 0.1227 0.0
H752 H 0.3755 0.85159 0.124 0.0
C753 C 0.45066 0.84673 0.14755 0.0
C754 C 0.42262 0.83333 0.16364 0.0
H755 H 0.47302 0.86995 0.11041 0.0
H756 H 0.47182 0.84547 0.1538 0.0
C757 C 0.39566 0.83535 0.15465 0.0
C758 C 0.60621 0.46868 0.29805 0.0
C759 C 0.58456 0.4417 0.28205 0.0
H760 H 0.63542 0.48702 0.33501 0.0
C761 C 0.57527 0.41167 0.29217 0.0
H762 H 0.61357 0.49215 0.29103 0.0
C763 C 0.58768 0.40868 0.31742 0.0
C764 C 0.60977 0.43565 0.33323 0.0
H765 H 0.55904 0.39038 0.28022 0.0
H766 H 0.58028 0.38514 0.32428 0.0
C767 C 0.61864 0.4657 0.32334 0.0
C768 C 0.42508 0.87263 0.3194 0.0
C769 C 0.43719 0.86197 0.34057 0.0
H770 H 0.40581 0.8647 0.27783 0.0
C771 C 0.43884 0.83453 0.3359 0.0
H772 H 0.42334 0.8936 0.32258 0.0
C773 C 0.42861 0.81806 0.31067 0.0
C774 C 0.4174 0.82913 0.28926 0.0
H775 H 0.44732 0.82534 0.35205 0.0
H776 H 0.42912 0.79637 0.30797 0.0
C777 C 0.41516 0.85624 0.2939 0.0
C778 C 0.57225 0.43696 0.4873 0.0
C779 C 0.59495 0.44632 0.50936 0.0
H780 H 0.56036 0.41953 0.44524 0.0
C781 C 0.62325 0.4447 0.50572 0.0
H782 H 0.55015 0.43781 0.48957 0.0
C783 C 0.6289 0.43425 0.48062 0.0
C784 C 0.6068 0.42584 0.45838 0.0
H785 H 0.6408 0.45096 0.5225 0.0
H786 H 0.65055 0.43253 0.47865 0.0
C787 C 0.57808 0.42663 0.462 0.0
C788 C 0.18423 0.58289 0.66106 0.0
C789 C 0.16756 0.59931 0.66607 0.0
H790 H 0.21293 0.57329 0.63322 0.0
C791 C 0.16773 0.61927 0.64541 0.0
H792 H 0.18577 0.56803 0.67645 0.0
C793 C 0.18473 0.6233 0.62102 0.0
C794 C 0.20103 0.60668 0.61628 0.0
H795 H 0.15471 0.63182 0.64791 0.0
H796 H 0.18472 0.63902 0.60566 0.0
C797 C 0.20024 0.58614 0.63632 0.0
C798 C 0.59594 0.16601 0.81576 0.0
C799 C 0.57571 0.17266 0.83186 0.0
H800 H 0.62534 0.17698 0.7801 0.0
C801 C 0.56851 0.19552 0.82275 0.0
H802 H 0.60159 0.14821 0.8219 0.0
C803 C 0.58201 0.21199 0.79861 0.0
C804 C 0.60315 0.20608 0.78304 0.0
H805 H 0.55335 0.20156 0.8348 0.0
H806 H 0.57656 0.22996 0.79261 0.0
C807 C 0.6095 0.1825 0.7917 0.0
C808 C 0.3798 0.5915 0.00551 0.0
C809 C 0.40984 0.59413 0.01258 0.0
H810 H 0.35266 0.60186 0.97664 0.0
C811 C 0.43498 0.60742 0.99319 0.0
H812 H 0.35926 0.5808 0.01902 0.0
C813 C 0.43002 0.61747 0.96768 0.0
C814 C 0.4 0.61471 0.96112 0.0
H815 H 0.45883 0.61092 0.99778 0.0
H816 H 0.44972 0.62769 0.95322 0.0
C817 C 0.37546 0.60269 0.98064 0.0
C818 C 0.80529 0.39557 0.16795 0.0
C819 C 0.83654 0.42239 0.172 0.0
H820 H 0.7644 0.36917 0.14043 0.0
C821 C 0.85039 0.44355 0.15024 0.0
H822 H 0.79331 0.37922 0.18438 0.0
C823 C 0.83334 0.43792 0.12511 0.0
C824 C 0.80265 0.41064 0.12112 0.0
H825 H 0.87443 0.46436 0.15254 0.0
H826 H 0.84427 0.45458 0.1087 0.0
C827 C 0.78859 0.3898 0.14281 0.0
loop_
_geom_bond_atom_site_label_1
_geom_bond_atom_site_label_2
_geom_bond_distance
_geom_bond_site_symmetry_2
_ccdc_geom_bond_type
H0 C27 0.929 . S
N1 C26 1.433 . S
N1 C32 1.435 . S
N1 C38 1.423 . S
H2 C28 0.930 . S
H3 C31 0.931 . S
H4 C30 0.929 . S
H5 C33 0.930 . S
H6 C34 0.932 . S
H7 C37 0.929 . S
H8 C36 0.931 . S
H9 C39 0.929 . S
H10 C43 0.932 . S
H11 C40 0.931 . S
H12 C42 0.929 . S
H13 C45 0.929 . S
H14 C46 0.930 . S
H15 C48 0.929 . S
H16 C49 0.931 . S
H17 C51 0.930 . S
H18 C52 0.932 . S
H19 C54 0.931 . S
H20 C55 0.929 . S
H21 C57 0.929 . S
H22 C58 0.931 . S
H23 C60 0.929 . S
N24 C44 1.433 . S
N24 C50 1.435 . S
N24 C56 1.423 . S
H25 C61 0.932 . S
C26 N1 1.433 . S
C26 C27 1.363 . S
C26 C31 1.370 . S
C27 H0 0.929 . S
C27 C26 1.363 . S
C27 C28 1.385 . S
C28 H2 0.930 . S
C28 C27 1.385 . S
C28 C29 1.357 . S
C29 C28 1.357 . S
C29 C30 1.406 . S
C30 H4 0.929 . S
C30 C29 1.406 . S
C30 C31 1.391 . S
C31 H3 0.931 . S
C31 C26 1.370 . S
C31 C30 1.391 . S
C32 N1 1.435 . S
C32 C33 1.358 . S
C32 C37 1.371 . S
C33 H5 0.930 . S
C33 C32 1.358 . S
C33 C34 1.405 . S
C34 H6 0.932 . S
C34 C33 1.405 . S
C34 C35 1.383 . S
C35 C34 1.383 . S
C35 C36 1.393 . S
C36 H8 0.931 . S
C36 C35 1.393 . S
C36 C37 1.382 . S
C37 H7 0.929 . S
C37 C32 1.371 . S
C37 C36 1.382 . S
C38 N1 1.423 . S
C38 C39 1.362 . S
C38 C43 1.388 . S
C39 H9 0.929 . S
C39 C38 1.362 . S
C39 C40 1.376 . S
C40 H11 0.931 . S
C40 C39 1.376 . S
C40 C41 1.396 . S
C41 C40 1.396 . S
C41 C42 1.348 . S
C41 C59 1.472 1_455 S
C42 H12 0.929 . S
C42 C41 1.348 . S
C42 C43 1.443 . S
C43 H10 0.932 . S
C43 C38 1.388 . S
C43 C42 1.443 . S
C44 N24 1.433 . S
C44 C45 1.363 . S
C44 C49 1.370 . S
C45 H13 0.929 . S
C45 C44 1.363 . S
C45 C46 1.385 . S
C46 H14 0.930 . S
C46 C45 1.385 . S
C46 C47 1.357 . S
C47 C46 1.357 . S
C47 C48 1.406 . S
C48 H15 0.929 . S
C48 C47 1.406 . S
C48 C49 1.391 . S
C49 H16 0.931 . S
C49 C44 1.370 . S
C49 C48 1.391 . S
C50 N24 1.435 . S
C50 C51 1.358 . S
C50 C55 1.371 . S
C51 H17 0.930 . S
C51 C50 1.358 . S
C51 C52 1.405 . S
C52 H18 0.932 . S
C52 C51 1.405 . S
C52 C53 1.383 . S
C53 C52 1.383 . S
C53 C54 1.393 . S
C54 H19 0.931 . S
C54 C53 1.393 . S
C54 C55 1.382 . S
C55 H20 0.929 . S
C55 C50 1.371 . S
C55 C54 1.382 . S
C56 N24 1.423 . S
C56 C57 1.362 . S
C56 C61 1.388 . S
C57 H21 0.929 . S
C57 C56 1.362 . S
C57 C58 1.376 . S
C58 H22 0.931 . S
C58 C57 1.376 . S
C58 C59 1.396 . S
C59 C41 1.472 1_655 S
C59 C58 1.396 . S
C59 C60 1.348 . S
C60 H23 0.929 . S
C60 C59 1.348 . S
C60 C61 1.443 . S
C61 H25 0.932 . S
C61 C56 1.388 . S
C61 C60 1.443 . S
H62 C89 0.929 . S
N63 C88 1.433 . S
N63 C94 1.435 . S
N63 C100 1.423 . S
H64 C90 0.930 . S
H65 C93 0.931 . S
H66 C92 0.929 . S
H67 C95 0.930 . S
H68 C96 0.932 . S
H69 C99 0.929 . S
H70 C98 0.931 . S
H71 C101 0.929 . S
H72 C105 0.932 . S
H73 C102 0.931 . S
H74 C104 0.929 1_545 S
H75 C107 0.929 . S
H76 C108 0.930 . S
H77 C110 0.929 . S
H78 C111 0.931 . S
H79 C113 0.930 . S
H80 C114 0.932 . S
H81 C116 0.931 . S
H82 C117 0.929 . S
H83 C119 0.929 . S
H84 C120 0.931 . S
H85 C122 0.929 . S
N86 C106 1.433 . S
N86 C112 1.435 . S
N86 C118 1.423 . S
H87 C123 0.932 . S
C88 N63 1.433 . S
C88 C89 1.363 . S
C88 C93 1.370 . S
C89 H62 0.929 . S
C89 C88 1.363 . S
C89 C90 1.385 . S
C90 H64 0.930 . S
C90 C89 1.385 . S
C90 C91 1.357 . S
C91 C90 1.357 . S
C91 C92 1.406 . S
C92 H66 0.929 . S
C92 C91 1.406 . S
C92 C93 1.391 . S
C93 H65 0.931 . S
C93 C88 1.370 . S
C93 C92 1.391 . S
C94 N63 1.435 . S
C94 C95 1.358 . S
C94 C99 1.371 . S
C95 H67 0.930 . S
C95 C94 1.358 . S
C95 C96 1.405 . S
C96 H68 0.932 . S
C96 C95 1.405 . S
C96 C97 1.383 . S
C97 C96 1.383 . S
C97 C98 1.393 . S
C98 H70 0.931 . S
C98 C97 1.393 . S
C98 C99 1.382 . S
C99 H69 0.929 . S
C99 C94 1.371 . S
C99 C98 1.382 . S
C100 N63 1.423 . S
C100 C101 1.362 . S
C100 C105 1.388 . S
C101 H71 0.929 . S
C101 C100 1.362 . S
C101 C102 1.376 . S
C102 H73 0.931 . S
C102 C101 1.376 . S
C102 C103 1.396 1_565 S
C103 C102 1.396 1_545 S
C103 C104 1.348 1_545 S
C103 C121 1.472 . S
C104 H74 0.929 1_565 S
C104 C103 1.348 1_565 S
C104 C105 1.443 . S
C105 H72 0.932 . S
C105 C100 1.388 . S
C105 C104 1.443 . S
C106 N86 1.433 . S
C106 C107 1.363 . S
C106 C111 1.370 . S
C107 H75 0.929 . S
C107 C106 1.363 . S
C107 C108 1.385 . S
C108 H76 0.930 . S
C108 C107 1.385 . S
C108 C109 1.357 . S
C109 C108 1.357 . S
C109 C110 1.406 . S
C110 H77 0.929 . S
C110 C109 1.406 . S
C110 C111 1.391 . S
C111 H78 0.931 . S
C111 C106 1.370 . S
C111 C110 1.391 . S
C112 N86 1.435 . S
C112 C113 1.358 . S
C112 C117 1.371 . S
C113 H79 0.930 . S
C113 C112 1.358 . S
C113 C114 1.405 . S
C114 H80 0.932 . S
C114 C113 1.405 . S
C114 C115 1.383 . S
C115 C114 1.383 . S
C115 C116 1.393 . S
C116 H81 0.931 . S
C116 C115 1.393 . S
C116 C117 1.382 . S
C117 H82 0.929 . S
C117 C112 1.371 . S
C117 C116 1.382 . S
C118 N86 1.423 . S
C118 C119 1.362 . S
C118 C123 1.388 . S
C119 H83 0.929 . S
C119 C118 1.362 . S
C119 C120 1.376 . S
C120 H84 0.931 . S
C120 C119 1.376 . S
C120 C121 1.396 . S
C121 C103 1.472 . S
C121 C120 1.396 . S
C121 C122 1.348 . S
C122 H85 0.929 . S
C122 C121 1.348 . S
C122 C123 1.443 . S
C123 H87 0.932 . S
C123 C118 1.388 . S
C123 C122 1.443 . S
H124 C151 0.929 . S
N125 C150 1.433 . S
N125 C156 1.435 . S
N125 C162 1.423 . S
H126 C152 0.930 . S
H127 C155 0.931 . S
H128 C154 0.929 . S
H129 C157 0.930 . S
H130 C158 0.932 . S
H131 C161 0.929 . S
H132 C160 0.931 . S
H133 C163 0.929 . S
H134 C167 0.932 . S
H135 C164 0.931 . S
H136 C166 0.929 . S
H137 C169 0.929 . S
H138 C170 0.930 . S
H139 C172 0.929 . S
H140 C173 0.931 . S
H141 C175 0.930 . S
H142 C176 0.932 . S
H143 C178 0.931 . S
H144 C179 0.929 . S
H145 C181 0.929 . S
H146 C182 0.931 . S
H147 C184 0.929 . S
N148 C168 1.433 . S
N148 C174 1.435 . S
N148 C180 1.423 . S
H149 C185 0.932 . S
C150 N125 1.433 . S
C150 C151 1.363 . S
C150 C155 1.370 . S
C151 H124 0.929 . S
C151 C150 1.363 . S
C151 C152 1.385 . S
C152 H126 0.930 . S
C152 C151 1.385 . S
C152 C153 1.357 . S
C153 C152 1.357 . S
C153 C154 1.406 . S
C154 H128 0.929 . S
C154 C153 1.406 . S
C154 C155 1.391 . S
C155 H127 0.931 . S
C155 C150 1.370 . S
C155 C154 1.391 . S
C156 N125 1.435 . S
C156 C157 1.358 . S
C156 C161 1.371 . S
C157 H129 0.930 . S
C157 C156 1.358 . S
C157 C158 1.405 . S
C158 H130 0.932 . S
C158 C157 1.405 . S
C158 C159 1.383 . S
C159 C158 1.383 . S
C159 C160 1.393 . S
C160 H132 0.931 . S
C160 C159 1.393 . S
C160 C161 1.382 . S
C161 H131 0.929 . S
C161 C156 1.371 . S
C161 C160 1.382 . S
C162 N125 1.423 . S
C162 C163 1.362 . S
C162 C167 1.388 . S
C163 H133 0.929 . S
C163 C162 1.362 . S
C163 C164 1.376 . S
C164 H135 0.931 . S
C164 C163 1.376 . S
C164 C165 1.396 . S
C165 C164 1.396 . S
C165 C166 1.348 . S
C165 C183 1.472 . S
C166 H136 0.929 . S
C166 C165 1.348 . S
C166 C167 1.443 . S
C167 H134 0.932 . S
C167 C162 1.388 . S
C167 C166 1.443 . S
C168 N148 1.433 . S
C168 C169 1.363 . S
C168 C173 1.370 . S
C169 H137 0.929 . S
C169 C168 1.363 . S
C169 C170 1.385 . S
C170 H138 0.930 . S
C170 C169 1.385 . S
C170 C171 1.357 . S
C171 C170 1.357 . S
C171 C172 1.406 . S
C172 H139 0.929 . S
C172 C171 1.406 . S
C172 C173 1.391 . S
C173 H140 0.931 . S
C173 C168 1.370 . S
C173 C172 1.391 . S
C174 N148 1.435 . S
C174 C175 1.358 . S
C174 C179 1.371 . S
C175 H141 0.930 . S
C175 C174 1.358 . S
C175 C176 1.405 . S
C176 H142 0.932 . S
C176 C175 1.405 . S
C176 C177 1.383 . S
C177 C176 1.383 . S
C177 C178 1.393 . S
C178 H143 0.931 . S
C178 C177 1.393 . S
C178 C179 1.382 . S
C179 H144 0.929 . S
C179 C174 1.371 . S
C179 C178 1.382 . S
C180 N148 1.423 . S
C180 C181 1.362 . S
C180 C185 1.388 . S
C181 H145 0.929 . S
C181 C180 1.362 . S
C181 C182 1.376 . S
C182 H146 0.931 . S
C182 C181 1.376 . S
C182 C183 1.396 . S
C183 C165 1.472 . S
C183 C182 1.396 . S
C183 C184 1.348 . S
C184 H147 0.929 . S
C184 C183 1.348 . S
C184 C185 1.443 . S
C185 H149 0.932 . S
C185 C180 1.388 . S
C185 C184 1.443 . S
H186 C213 0.929 . S
N187 C212 1.433 . S
N187 C218 1.435 . S
N187 C224 1.423 . S
H188 C214 0.930 . S
H189 C217 0.931 . S
H190 C216 0.929 . S
H191 C219 0.930 . S
H192 C220 0.932 . S
H193 C223 0.929 . S
H194 C222 0.931 . S
H195 C225 0.929 . S
H196 C229 0.932 . S
H197 C226 0.931 . S
H198 C228 0.929 . S
H199 C231 0.929 . S
H200 C232 0.930 . S
H201 C234 0.929 . S
H202 C235 0.931 . S
H203 C237 0.930 . S
H204 C238 0.932 . S
H205 C240 0.931 . S
H206 C241 0.929 . S
H207 C243 0.929 . S
H208 C244 0.931 . S
H209 C246 0.929 . S
N210 C230 1.433 . S
N210 C236 1.435 . S
N210 C242 1.423 . S
H211 C247 0.932 . S
C212 N187 1.433 . S
C212 C213 1.363 . S
C212 C217 1.370 . S
C213 H186 0.929 . S
C213 C212 1.363 . S
C213 C214 1.385 . S
C214 H188 0.930 . S
C214 C213 1.385 . S
C214 C215 1.357 . S
C215 C214 1.357 . S
C215 C216 1.406 . S
C216 H190 0.929 . S
C216 C215 1.406 . S
C216 C217 1.391 . S
C217 H189 0.931 . S
C217 C212 1.370 . S
C217 C216 1.391 . S
C218 N187 1.435 . S
C218 C219 1.358 . S
C218 C223 1.371 . S
C219 H191 0.930 . S
C219 C218 1.358 . S
C219 C220 1.405 . S
C220 H192 0.932 . S
C220 C219 1.405 . S
C220 C221 1.383 . S
C221 C220 1.383 . S
C221 C222 1.393 . S
C222 H194 0.931 . S
C222 C221 1.393 . S
C222 C223 1.382 . S
C223 H193 0.929 . S
C223 C218 1.371 . S
C223 C222 1.382 . S
C224 N187 1.423 . S
C224 C225 1.362 . S
C224 C229 1.388 . S
C225 H195 0.929 . S
C225 C224 1.362 . S
C225 C226 1.376 . S
C226 H197 0.931 . S
C226 C225 1.376 . S
C226 C227 1.396 . S
C227 C226 1.396 . S
C227 C228 1.348 . S
C227 C245 1.472 1_455 S
C228 H198 0.929 . S
C228 C227 1.348 . S
C228 C229 1.443 . S
C229 H196 0.932 . S
C229 C224 1.388 . S
C229 C228 1.443 . S
C230 N210 1.433 . S
C230 C231 1.363 . S
C230 C235 1.370 . S
C231 H199 0.929 . S
C231 C230 1.363 . S
C231 C232 1.385 . S
C232 H200 0.930 . S
C232 C231 1.385 . S
C232 C233 1.357 . S
C233 C232 1.357 . S
C233 C234 1.406 . S
C234 H201 0.929 . S
C234 C233 1.406 . S
C234 C235 1.391 . S
C235 H202 0.931 . S
C235 C230 1.370 . S
C235 C234 1.391 . S
C236 N210 1.435 . S
C236 C237 1.358 . S
C236 C241 1.371 . S
C237 H203 0.930 . S
C237 C236 1.358 . S
C237 C238 1.405 . S
C238 H204 0.932 . S
C238 C237 1.405 . S
C238 C239 1.383 . S
C239 C238 1.383 . S
C239 C240 1.393 . S
C240 H205 0.931 . S
C240 C239 1.393 . S
C240 C241 1.382 . S
C241 H206 0.929 . S
C241 C236 1.371 . S
C241 C240 1.382 . S
C242 N210 1.423 . S
C242 C243 1.362 . S
C242 C247 1.388 . S
C243 H207 0.929 . S
C243 C242 1.362 . S
C243 C244 1.376 . S
C244 H208 0.931 . S
C244 C243 1.376 . S
C244 C245 1.396 . S
C245 C227 1.472 1_655 S
C245 C244 1.396 . S
C245 C246 1.348 . S
C246 H209 0.929 . S
C246 C245 1.348 . S
C246 C247 1.443 . S
C247 H211 0.932 . S
C247 C242 1.388 . S
C247 C246 1.443 . S
H248 C275 0.929 . S
N249 C274 1.433 . S
N249 C280 1.435 . S
N249 C286 1.423 . S
H250 C276 0.930 . S
H251 C279 0.931 . S
H252 C278 0.929 . S
H253 C281 0.930 . S
H254 C282 0.932 . S
H255 C285 0.929 . S
H256 C284 0.931 . S
H257 C287 0.929 . S
H258 C291 0.932 . S
H259 C288 0.931 . S
H260 C290 0.929 . S
H261 C293 0.929 . S
H262 C294 0.930 . S
H263 C296 0.929 . S
H264 C297 0.931 . S
H265 C299 0.924 1_554 S
H266 C300 0.932 . S
H267 C302 0.931 . S
H268 C303 0.929 . S
H269 C305 0.929 . S
H270 C306 0.931 1_544 S
H271 C308 0.929 . S
N272 C292 1.433 . S
N272 C298 1.435 1_554 S
N272 C304 1.423 1_554 S
H273 C309 0.932 . S
C274 N249 1.433 . S
C274 C275 1.363 . S
C274 C279 1.370 . S
C275 H248 0.929 . S
C275 C274 1.363 . S
C275 C276 1.385 . S
C276 H250 0.930 . S
C276 C275 1.385 . S
C276 C277 1.357 1_556 S
C277 C276 1.357 1_554 S
C277 C278 1.406 . S
C278 H252 0.929 . S
C278 C277 1.406 . S
C278 C279 1.391 1_554 S
C279 H251 0.931 . S
C279 C274 1.370 . S
C279 C278 1.391 1_556 S
C280 N249 1.435 . S
C280 C281 1.358 . S
C280 C285 1.371 . S
C281 H253 0.930 . S
C281 C280 1.358 . S
C281 C282 1.405 . S
C282 H254 0.932 . S
C282 C281 1.405 . S
C282 C283 1.383 . S
C283 C282 1.383 . S
C283 C284 1.393 . S
C284 H256 0.931 . S
C284 C283 1.393 . S
C284 C285 1.382 . S
C285 H255 0.929 . S
C285 C280 1.371 . S
C285 C284 1.382 . S
C286 N249 1.423 . S
C286 C287 1.362 . S
C286 C291 1.388 . S
C287 H257 0.929 . S
C287 C286 1.362 . S
C287 C288 1.376 . S
C288 H259 0.931 . S
C288 C287 1.376 . S
C288 C289 1.396 . S
C289 C288 1.396 . S
C289 C290 1.348 . S
C289 C307 1.472 1_545 S
C290 H260 0.929 . S
C290 C289 1.348 . S
C290 C291 1.443 . S
C291 H258 0.932 . S
C291 C286 1.388 . S
C291 C290 1.443 . S
C292 N272 1.433 . S
C292 C293 1.363 . S
C292 C297 1.370 . S
C293 H261 0.929 . S
C293 C292 1.363 . S
C293 C294 1.385 . S
C294 H262 0.930 . S
C294 C293 1.385 . S
C294 C295 1.357 . S
C295 C294 1.357 . S
C295 C296 1.406 . S
C296 H263 0.929 . S
C296 C295 1.406 . S
C296 C297 1.391 . S
C297 H264 0.931 . S
C297 C292 1.370 . S
C297 C296 1.391 . S
C298 N272 1.435 1_556 S
C298 C299 1.361 . S
C298 C303 1.371 . S
C299 H265 0.924 1_556 S
C299 C298 1.361 . S
C299 C300 1.409 . S
C300 H266 0.932 . S
C300 C299 1.409 . S
C300 C301 1.383 . S
C301 C300 1.383 . S
C301 C302 1.393 . S
C302 H267 0.931 . S
C302 C301 1.393 . S
C302 C303 1.382 . S
C303 H268 0.929 . S
C303 C298 1.371 . S
C303 C302 1.382 . S
C304 N272 1.423 1_556 S
C304 C305 1.362 1_556 S
C304 C309 1.388 . S
C305 H269 0.929 . S
C305 C304 1.362 1_554 S
C305 C306 1.376 1_554 S
C306 H270 0.931 1_566 S
C306 C305 1.376 1_556 S
C306 C307 1.396 . S
C307 C289 1.472 1_565 S
C307 C306 1.396 . S
C307 C308 1.348 . S
C308 H271 0.929 . S
C308 C307 1.348 . S
C308 C309 1.443 . S
C309 H273 0.932 . S
C309 C304 1.388 . S
C309 C308 1.443 . S
H310 C337 0.929 . S
N311 C336 1.433 . S
N311 C342 1.435 . S
N311 C348 1.423 . S
H312 C338 0.930 . S
H313 C341 0.931 . S
H314 C340 0.929 . S
H315 C343 0.930 . S
H316 C344 0.932 . S
H317 C347 0.929 . S
H318 C346 0.931 . S
H319 C349 0.929 . S
H320 C353 0.932 . S
H321 C350 0.931 . S
H322 C352 0.929 . S
H323 C355 0.929 . S
H324 C356 0.930 . S
H325 C358 0.929 . S
H326 C359 0.931 . S
H327 C361 0.930 . S
H328 C362 0.932 . S
H329 C364 0.931 . S
H330 C365 0.929 . S
H331 C367 0.929 . S
H332 C368 0.931 . S
H333 C370 0.929 . S
N334 C354 1.433 . S
N334 C360 1.435 . S
N334 C366 1.423 . S
H335 C371 0.932 . S
C336 N311 1.433 . S
C336 C337 1.363 . S
C336 C341 1.370 . S
C337 H310 0.929 . S
C337 C336 1.363 . S
C337 C338 1.385 . S
C338 H312 0.930 . S
C338 C337 1.385 . S
C338 C339 1.357 . S
C339 C338 1.357 . S
C339 C340 1.406 . S
C340 H314 0.929 . S
C340 C339 1.406 . S
C340 C341 1.391 . S
C341 H313 0.931 . S
C341 C336 1.370 . S
C341 C340 1.391 . S
C342 N311 1.435 . S
C342 C343 1.358 . S
C342 C347 1.371 . S
C343 H315 0.930 . S
C343 C342 1.358 . S
C343 C344 1.405 . S
C344 H316 0.932 . S
C344 C343 1.405 . S
C344 C345 1.383 . S
C345 C344 1.383 . S
C345 C346 1.393 . S
C346 H318 0.931 . S
C346 C345 1.393 . S
C346 C347 1.382 . S
C347 H317 0.929 . S
C347 C342 1.371 . S
C347 C346 1.382 . S
C348 N311 1.423 . S
C348 C349 1.362 . S
C348 C353 1.388 . S
C349 H319 0.929 . S
C349 C348 1.362 . S
C349 C350 1.376 . S
C350 H321 0.931 . S
C350 C349 1.376 . S
C350 C351 1.396 . S
C351 C350 1.396 . S
C351 C352 1.348 . S
C351 C369 1.472 . S
C352 H322 0.929 . S
C352 C351 1.348 . S
C352 C353 1.443 . S
C353 H320 0.932 . S
C353 C348 1.388 . S
C353 C352 1.443 . S
C354 N334 1.433 . S
C354 C355 1.363 . S
C354 C359 1.370 . S
C355 H323 0.929 . S
C355 C354 1.363 . S
C355 C356 1.385 . S
C356 H324 0.930 . S
C356 C355 1.385 . S
C356 C357 1.357 . S
C357 C356 1.357 . S
C357 C358 1.406 . S
C358 H325 0.929 . S
C358 C357 1.406 . S
C358 C359 1.391 . S
C359 H326 0.931 . S
C359 C354 1.370 . S
C359 C358 1.391 . S
C360 N334 1.435 . S
C360 C361 1.358 . S
C360 C365 1.371 . S
C361 H327 0.930 . S
C361 C360 1.358 . S
C361 C362 1.405 . S
C362 H328 0.932 . S
C362 C361 1.405 . S
C362 C363 1.383 . S
C363 C362 1.383 . S
C363 C364 1.393 . S
C364 H329 0.931 . S
C364 C363 1.393 . S
C364 C365 1.382 . S
C365 H330 0.929 . S
C365 C360 1.371 . S
C365 C364 1.382 . S
C366 N334 1.423 . S
C366 C367 1.362 . S
C366 C371 1.388 . S
C367 H331 0.929 . S
C367 C366 1.362 . S
C367 C368 1.376 . S
C368 H332 0.931 . S
C368 C367 1.376 . S
C368 C369 1.396 . S
C369 C351 1.472 . S
C369 C368 1.396 . S
C369 C370 1.348 . S
C370 H333 0.929 . S
C370 C369 1.348 . S
C370 C371 1.443 . S
C371 H335 0.932 . S
C371 C366 1.388 . S
C371 C370 1.443 . S
Mn372 O377 2.095 . S
Mn372 O387 2.162 . S
Mn372 O388 2.297 . S
Mn372 O396 2.385 . S
Mn372 O397 2.209 . S
Mn372 O398 2.094 . S
Mn373 O378 2.121 . S
Mn373 N380 2.257 . S
Mn373 N389 2.282 . S
Mn373 O397 2.215 . S
Mn373 O399 2.117 . S
C374 O396 1.234 . S
C374 O397 1.283 . S
C375 O387 1.281 . S
C375 O388 1.236 . S
C376 O398 1.240 . S
C376 O399 1.264 . S
O377 Mn372 2.095 . S
O377 C386 1.250 . S
O378 Mn373 2.121 . S
O378 C386 1.258 . S
C379 N380 1.326 . S
C379 C383 1.460 . S
C379 H385 0.929 . S
N380 Mn373 2.257 . S
N380 C379 1.326 . S
N380 C384 1.362 . S
C381 C382 1.258 . S
C381 C384 1.431 . S
C381 C401 1.449 . S
C382 C381 1.258 . S
C382 C383 1.477 . S
C382 H402 0.931 . S
C383 C379 1.460 . S
C383 C382 1.477 . S
C383 H403 0.930 . S
C384 N380 1.362 . S
C384 C381 1.431 . S
C384 C394 1.476 . S
H385 C379 0.929 . S
C386 O377 1.250 . S
C386 O378 1.258 . S
O387 Mn372 2.162 . S
O387 C375 1.281 . S
O388 Mn372 2.297 . S
O388 C375 1.236 . S
N389 Mn373 2.282 . S
N389 C390 1.328 . S
N389 C394 1.318 . S
C390 N389 1.328 . S
C390 C391 1.457 . S
C390 H395 0.929 . S
C391 C390 1.457 . S
C391 C392 1.291 . S
C391 H404 0.931 . S
C392 C391 1.291 . S
C392 C393 1.373 . S
C392 H405 0.929 . S
C393 C392 1.373 . S
C393 C394 1.396 . S
C393 C400 1.403 . S
C394 C384 1.476 . S
C394 N389 1.318 . S
C394 C393 1.396 . S
H395 C390 0.929 . S
O396 Mn372 2.385 . S
O396 C374 1.234 . S
O397 Mn372 2.209 . S
O397 Mn373 2.215 . S
O397 C374 1.283 . S
O398 Mn372 2.094 . S
O398 C376 1.240 . S
O399 Mn373 2.117 . S
O399 C376 1.264 . S
C400 C393 1.403 . S
C400 C401 1.399 . S
C400 H406 0.929 . S
C401 C381 1.449 . S
C401 C400 1.399 . S
C401 H407 0.930 . S
H402 C382 0.931 . S
H403 C383 0.930 . S
H404 C391 0.931 . S
H405 C392 0.929 . S
H406 C400 0.929 . S
H407 C401 0.930 . S
Mn408 O413 2.095 . S
Mn408 O423 2.162 . S
Mn408 O424 2.297 . S
Mn408 O432 2.385 . S
Mn408 O433 2.209 . S
Mn408 O434 2.094 . S
Mn409 O414 2.121 . S
Mn409 N416 2.257 . S
Mn409 N425 2.282 . S
Mn409 O433 2.215 . S
Mn409 O435 2.117 . S
C410 O432 1.234 . S
C410 O433 1.283 . S
C411 O423 1.281 . S
C411 O424 1.236 . S
C412 O434 1.240 . S
C412 O435 1.264 . S
O413 Mn408 2.095 . S
O413 C422 1.250 . S
O414 Mn409 2.121 . S
O414 C422 1.258 . S
C415 N416 1.326 . S
C415 C419 1.460 . S
C415 H421 0.929 . S
N416 Mn409 2.257 . S
N416 C415 1.326 . S
N416 C420 1.362 . S
C417 C418 1.258 . S
C417 C420 1.431 . S
C417 C437 1.449 . S
C418 C417 1.258 . S
C418 C419 1.477 . S
C418 H438 0.931 . S
C419 C415 1.460 . S
C419 C418 1.477 . S
C419 H439 0.930 . S
C420 N416 1.362 . S
C420 C417 1.431 . S
C420 C430 1.476 . S
H421 C415 0.929 . S
C422 O413 1.250 . S
C422 O414 1.258 . S
O423 Mn408 2.162 . S
O423 C411 1.281 . S
O424 Mn408 2.297 . S
O424 C411 1.236 . S
N425 Mn409 2.282 . S
N425 C426 1.328 . S
N425 C430 1.318 . S
C426 N425 1.328 . S
C426 C427 1.457 . S
C426 H431 0.929 . S
C427 C426 1.457 . S
C427 C428 1.291 . S
C427 H440 0.931 . S
C428 C427 1.291 . S
C428 C429 1.373 . S
C428 H441 0.929 . S
C429 C428 1.373 . S
C429 C430 1.396 . S
C429 C436 1.403 . S
C430 C420 1.476 . S
C430 N425 1.318 . S
C430 C429 1.396 . S
H431 C426 0.929 . S
O432 Mn408 2.385 . S
O432 C410 1.234 . S
O433 Mn408 2.209 . S
O433 Mn409 2.215 . S
O433 C410 1.283 . S
O434 Mn408 2.094 . S
O434 C412 1.240 . S
O435 Mn409 2.117 . S
O435 C412 1.264 . S
C436 C429 1.403 . S
C436 C437 1.399 . S
C436 H442 0.929 . S
C437 C417 1.449 . S
C437 C436 1.399 . S
C437 H443 0.930 . S
H438 C418 0.931 . S
H439 C419 0.930 . S
H440 C427 0.931 . S
H441 C428 0.929 . S
H442 C436 0.929 . S
H443 C437 0.930 . S
Mn444 O449 2.095 . S
Mn444 O459 2.162 . S
Mn444 O460 2.297 . S
Mn444 O468 2.385 . S
Mn444 O469 2.209 . S
Mn444 O470 2.094 . S
Mn445 O450 2.121 . S
Mn445 N452 2.257 . S
Mn445 N461 2.282 . S
Mn445 O469 2.215 . S
Mn445 O471 2.117 . S
C446 O468 1.234 . S
C446 O469 1.283 . S
C447 O459 1.281 . S
C447 O460 1.236 . S
C448 O470 1.240 . S
C448 O471 1.264 . S
O449 Mn444 2.095 . S
O449 C458 1.250 . S
O450 Mn445 2.121 . S
O450 C458 1.258 . S
C451 N452 1.326 . S
C451 C455 1.460 . S
C451 H457 0.929 . S
N452 Mn445 2.257 . S
N452 C451 1.326 . S
N452 C456 1.362 . S
C453 C454 1.258 . S
C453 C456 1.431 . S
C453 C473 1.449 . S
C454 C453 1.258 . S
C454 C455 1.477 . S
C454 H474 0.931 . S
C455 C451 1.460 . S
C455 C454 1.477 . S
C455 H475 0.930 . S
C456 N452 1.362 . S
C456 C453 1.431 . S
C456 C466 1.476 . S
H457 C451 0.929 . S
C458 O449 1.250 . S
C458 O450 1.258 . S
O459 Mn444 2.162 . S
O459 C447 1.281 . S
O460 Mn444 2.297 . S
O460 C447 1.236 . S
N461 Mn445 2.282 . S
N461 C462 1.328 . S
N461 C466 1.318 . S
C462 N461 1.328 . S
C462 C463 1.457 . S
C462 H467 0.929 . S
C463 C462 1.457 . S
C463 C464 1.291 . S
C463 H476 0.931 . S
C464 C463 1.291 . S
C464 C465 1.373 . S
C464 H477 0.929 . S
C465 C464 1.373 . S
C465 C466 1.396 . S
C465 C472 1.403 . S
C466 C456 1.476 . S
C466 N461 1.318 . S
C466 C465 1.396 . S
H467 C462 0.929 . S
O468 Mn444 2.385 . S
O468 C446 1.234 . S
O469 Mn444 2.209 . S
O469 Mn445 2.215 . S
O469 C446 1.283 . S
O470 Mn444 2.094 . S
O470 C448 1.240 . S
O471 Mn445 2.117 . S
O471 C448 1.264 . S
C472 C465 1.403 . S
C472 C473 1.399 . S
C472 H478 0.929 . S
C473 C453 1.449 . S
C473 C472 1.399 . S
C473 H479 0.930 . S
H474 C454 0.931 . S
H475 C455 0.930 . S
H476 C463 0.931 . S
H477 C464 0.929 . S
H478 C472 0.929 . S
H479 C473 0.930 . S
Mn480 O485 2.095 . S
Mn480 O495 2.162 . S
Mn480 O496 2.297 . S
Mn480 O504 2.385 . S
Mn480 O505 2.209 . S
Mn480 O506 2.094 . S
Mn481 O486 2.121 . S
Mn481 N488 2.257 . S
Mn481 N497 2.282 . S
Mn481 O505 2.215 . S
Mn481 O507 2.117 . S
C482 O504 1.234 . S
C482 O505 1.283 . S
C483 O495 1.281 . S
C483 O496 1.236 . S
C484 O506 1.240 . S
C484 O507 1.264 . S
O485 Mn480 2.095 . S
O485 C494 1.250 . S
O486 Mn481 2.121 . S
O486 C494 1.258 . S
C487 N488 1.326 . S
C487 C491 1.460 . S
C487 H493 0.929 . S
N488 Mn481 2.257 . S
N488 C487 1.326 . S
N488 C492 1.362 . S
C489 C490 1.258 . S
C489 C492 1.431 . S
C489 C509 1.449 . S
C490 C489 1.258 . S
C490 C491 1.477 . S
C490 H510 0.931 . S
C491 C487 1.460 . S
C491 C490 1.477 . S
C491 H511 0.930 . S
C492 N488 1.362 . S
C492 C489 1.431 . S
C492 C502 1.476 . S
H493 C487 0.929 . S
C494 O485 1.250 . S
C494 O486 1.258 . S
O495 Mn480 2.162 . S
O495 C483 1.281 . S
O496 Mn480 2.297 . S
O496 C483 1.236 . S
N497 Mn481 2.282 . S
N497 C498 1.328 . S
N497 C502 1.318 . S
C498 N497 1.328 . S
C498 C499 1.457 . S
C498 H503 0.929 . S
C499 C498 1.457 . S
C499 C500 1.291 . S
C499 H512 0.931 . S
C500 C499 1.291 . S
C500 C501 1.373 . S
C500 H513 0.929 . S
C501 C500 1.373 . S
C501 C502 1.396 . S
C501 C508 1.403 . S
C502 C492 1.476 . S
C502 N497 1.318 . S
C502 C501 1.396 . S
H503 C498 0.929 . S
O504 Mn480 2.385 . S
O504 C482 1.234 . S
O505 Mn480 2.209 . S
O505 Mn481 2.215 . S
O505 C482 1.283 . S
O506 Mn480 2.094 . S
O506 C484 1.240 . S
O507 Mn481 2.117 . S
O507 C484 1.264 . S
C508 C501 1.403 . S
C508 C509 1.399 . S
C508 H514 0.929 . S
C509 C489 1.449 . S
C509 C508 1.399 . S
C509 H515 0.930 . S
H510 C490 0.931 . S
H511 C491 0.930 . S
H512 C499 0.931 . S
H513 C500 0.929 . S
H514 C508 0.929 . S
H515 C509 0.930 . S
Mn516 O521 2.095 . S
Mn516 O531 2.162 . S
Mn516 O532 2.297 . S
Mn516 O540 2.385 . S
Mn516 O541 2.209 . S
Mn516 O542 2.094 . S
Mn517 O522 2.121 . S
Mn517 N524 2.257 . S
Mn517 N533 2.282 . S
Mn517 O541 2.215 . S
Mn517 O543 2.117 . S
C518 O540 1.234 . S
C518 O541 1.283 . S
C519 O531 1.281 . S
C519 O532 1.236 . S
C520 O542 1.240 . S
C520 O543 1.264 . S
O521 Mn516 2.095 . S
O521 C530 1.250 . S
O522 Mn517 2.121 . S
O522 C530 1.258 . S
C523 N524 1.326 . S
C523 C527 1.460 . S
C523 H529 0.929 . S
N524 Mn517 2.257 . S
N524 C523 1.326 . S
N524 C528 1.362 . S
C525 C526 1.258 . S
C525 C528 1.431 . S
C525 C545 1.449 . S
C526 C525 1.258 . S
C526 C527 1.477 . S
C526 H546 0.931 . S
C527 C523 1.460 . S
C527 C526 1.477 . S
C527 H547 0.930 . S
C528 N524 1.362 . S
C528 C525 1.431 . S
C528 C538 1.476 . S
H529 C523 0.929 . S
C530 O521 1.250 . S
C530 O522 1.258 . S
O531 Mn516 2.162 . S
O531 C519 1.281 . S
O532 Mn516 2.297 . S
O532 C519 1.236 . S
N533 Mn517 2.282 . S
N533 C534 1.328 . S
N533 C538 1.318 . S
C534 N533 1.328 . S
C534 C535 1.457 . S
C534 H539 0.929 . S
C535 C534 1.457 . S
C535 C536 1.291 . S
C535 H548 0.931 . S
C536 C535 1.291 . S
C536 C537 1.373 . S
C536 H549 0.929 . S
C537 C536 1.373 . S
C537 C538 1.396 . S
C537 C544 1.403 . S
C538 C528 1.476 . S
C538 N533 1.318 . S
C538 C537 1.396 . S
H539 C534 0.929 . S
O540 Mn516 2.385 . S
O540 C518 1.234 . S
O541 Mn516 2.209 . S
O541 Mn517 2.215 . S
O541 C518 1.283 . S
O542 Mn516 2.094 . S
O542 C520 1.240 . S
O543 Mn517 2.117 . S
O543 C520 1.264 . S
C544 C537 1.403 . S
C544 C545 1.399 . S
C544 H550 0.929 . S
C545 C525 1.449 . S
C545 C544 1.399 . S
C545 H551 0.930 . S
H546 C526 0.931 . S
H547 C527 0.930 . S
H548 C535 0.931 . S
H549 C536 0.929 . S
H550 C544 0.929 . S
H551 C545 0.930 . S
Mn552 O557 2.095 . S
Mn552 O567 2.162 . S
Mn552 O568 2.297 . S
Mn552 O576 2.385 . S
Mn552 O577 2.209 . S
Mn552 O578 2.094 . S
Mn553 O558 2.121 . S
Mn553 N560 2.257 . S
Mn553 N569 2.282 . S
Mn553 O577 2.215 . S
Mn553 O579 2.117 . S
C554 O576 1.234 . S
C554 O577 1.283 . S
C555 O567 1.281 . S
C555 O568 1.236 . S
C556 O578 1.240 . S
C556 O579 1.264 . S
O557 Mn552 2.095 . S
O557 C566 1.250 . S
O558 Mn553 2.121 . S
O558 C566 1.258 . S
C559 N560 1.326 . S
C559 C563 1.460 . S
C559 H565 0.929 . S
N560 Mn553 2.257 . S
N560 C559 1.326 . S
N560 C564 1.362 . S
C561 C562 1.258 . S
C561 C564 1.431 . S
C561 C581 1.449 . S
C562 C561 1.258 . S
C562 C563 1.477 . S
C562 H582 0.931 . S
C563 C559 1.460 . S
C563 C562 1.477 . S
C563 H583 0.930 . S
C564 N560 1.362 . S
C564 C561 1.431 . S
C564 C574 1.476 . S
H565 C559 0.929 . S
C566 O557 1.250 . S
C566 O558 1.258 . S
O567 Mn552 2.162 . S
O567 C555 1.281 . S
O568 Mn552 2.297 . S
O568 C555 1.236 . S
N569 Mn553 2.282 . S
N569 C570 1.328 . S
N569 C574 1.318 . S
C570 N569 1.328 . S
C570 C571 1.457 . S
C570 H575 0.929 . S
C571 C570 1.457 . S
C571 C572 1.291 . S
C571 H584 0.931 . S
C572 C571 1.291 . S
C572 C573 1.373 . S
C572 H585 0.929 . S
C573 C572 1.373 . S
C573 C574 1.396 . S
C573 C580 1.403 . S
C574 C564 1.476 . S
C574 N569 1.318 . S
C574 C573 1.396 . S
H575 C570 0.929 . S
O576 Mn552 2.385 . S
O576 C554 1.234 . S
O577 Mn552 2.209 . S
O577 Mn553 2.215 . S
O577 C554 1.283 . S
O578 Mn552 2.094 . S
O578 C556 1.240 . S
O579 Mn553 2.117 . S
O579 C556 1.264 . S
C580 C573 1.403 . S
C580 C581 1.399 . S
C580 H586 0.929 . S
C581 C561 1.449 . S
C581 C580 1.399 . S
C581 H587 0.930 . S
H582 C562 0.931 . S
H583 C563 0.930 . S
H584 C571 0.931 . S
H585 C572 0.929 . S
H586 C580 0.929 . S
H587 C581 0.930 . S
C588 C589 1.387 . S
C588 H592 0.950 . S
C588 C597 1.390 . S
C589 C588 1.387 . S
C589 C591 1.387 . S
H590 C597 0.950 . S
C591 C589 1.387 . S
C591 C593 1.390 . S
C591 H595 0.950 . S
H592 C588 0.950 . S
C593 C591 1.390 . S
C593 C594 1.387 . S
C593 H596 0.950 . S
C594 C593 1.387 . S
C594 C597 1.387 . S
H595 C591 0.950 . S
H596 C593 0.950 . S
C597 C588 1.390 . S
C597 H590 0.950 . S
C597 C594 1.387 . S
C598 C599 1.387 . S
C598 H602 0.950 . S
C598 C607 1.390 . S
C599 C598 1.387 . S
C599 C601 1.387 . S
H600 C607 0.950 . S
C601 C599 1.387 . S
C601 C603 1.390 . S
C601 H605 0.950 . S
H602 C598 0.950 . S
C603 C601 1.390 . S
C603 C604 1.387 . S
C603 H606 0.950 . S
C604 C603 1.387 . S
C604 C607 1.387 . S
H605 C601 0.950 . S
H606 C603 0.950 . S
C607 C598 1.390 . S
C607 H600 0.950 . S
C607 C604 1.387 . S
C608 C609 1.387 . S
C608 H612 0.950 . S
C608 C617 1.390 . S
C609 C608 1.387 . S
C609 C611 1.387 . S
H610 C617 0.950 . S
C611 C609 1.387 . S
C611 C613 1.390 . S
C611 H615 0.950 . S
H612 C608 0.950 . S
C613 C611 1.390 . S
C613 C614 1.387 . S
C613 H616 0.950 . S
C614 C613 1.387 . S
C614 C617 1.387 . S
H615 C611 0.950 . S
H616 C613 0.950 . S
C617 C608 1.390 . S
C617 H610 0.950 . S
C617 C614 1.387 . S
C618 C619 1.387 . S
C618 H622 0.950 . S
C618 C627 1.390 . S
C619 C618 1.387 . S
C619 C621 1.387 . S
H620 C627 0.950 . S
C621 C619 1.387 . S
C621 C623 1.390 . S
C621 H625 0.950 . S
H622 C618 0.950 . S
C623 C621 1.390 . S
C623 C624 1.387 . S
C623 H626 0.950 . S
C624 C623 1.387 . S
C624 C627 1.387 . S
H625 C621 0.950 . S
H626 C623 0.950 . S
C627 C618 1.390 . S
C627 H620 0.950 . S
C627 C624 1.387 . S
C628 C629 1.387 . S
C628 H632 0.950 . S
C628 C637 1.390 . S
C629 C628 1.387 . S
C629 C631 1.387 . S
H630 C637 0.950 . S
C631 C629 1.387 . S
C631 C633 1.390 . S
C631 H635 0.950 . S
H632 C628 0.950 . S
C633 C631 1.390 . S
C633 C634 1.387 . S
C633 H636 0.950 . S
C634 C633 1.387 . S
C634 C637 1.387 . S
H635 C631 0.950 . S
H636 C633 0.950 . S
C637 C628 1.390 . S
C637 H630 0.950 . S
C637 C634 1.387 . S
C638 C639 1.387 . S
C638 H642 0.950 . S
C638 C647 1.390 . S
C639 C638 1.387 . S
C639 C641 1.387 . S
H640 C647 0.950 . S
C641 C639 1.387 . S
C641 C643 1.390 . S
C641 H645 0.950 . S
H642 C638 0.950 . S
C643 C641 1.390 . S
C643 C644 1.387 . S
C643 H646 0.950 . S
C644 C643 1.387 . S
C644 C647 1.387 . S
H645 C641 0.950 . S
H646 C643 0.950 . S
C647 C638 1.390 . S
C647 H640 0.950 . S
C647 C644 1.387 . S
C648 C649 1.387 . S
C648 H652 0.950 . S
C648 C657 1.390 . S
C649 C648 1.387 . S
C649 C651 1.387 . S
H650 C657 0.950 . S
C651 C649 1.387 . S
C651 C653 1.390 . S
C651 H655 0.950 . S
H652 C648 0.950 . S
C653 C651 1.390 . S
C653 C654 1.387 . S
C653 H656 0.950 . S
C654 C653 1.387 . S
C654 C657 1.387 . S
H655 C651 0.950 . S
H656 C653 0.950 . S
C657 C648 1.390 . S
C657 H650 0.950 . S
C657 C654 1.387 . S
C658 C659 1.387 . S
C658 H662 0.950 . S
C658 C667 1.390 . S
C659 C658 1.387 . S
C659 C661 1.387 . S
H660 C667 0.950 . S
C661 C659 1.387 . S
C661 C663 1.390 . S
C661 H665 0.950 . S
H662 C658 0.950 . S
C663 C661 1.390 . S
C663 C664 1.387 . S
C663 H666 0.950 . S
C664 C663 1.387 . S
C664 C667 1.387 . S
H665 C661 0.950 . S
H666 C663 0.950 . S
C667 C658 1.390 . S
C667 H660 0.950 . S
C667 C664 1.387 . S
C668 C669 1.387 . S
C668 H672 0.950 . S
C668 C677 1.390 . S
C669 C668 1.387 . S
C669 C671 1.387 . S
H670 C677 0.950 . S
C671 C669 1.387 . S
C671 C673 1.390 . S
C671 H675 0.950 . S
H672 C668 0.950 . S
C673 C671 1.390 . S
C673 C674 1.387 . S
C673 H676 0.950 . S
C674 C673 1.387 . S
C674 C677 1.387 . S
H675 C671 0.950 . S
H676 C673 0.950 . S
C677 C668 1.390 . S
C677 H670 0.950 . S
C677 C674 1.387 . S
C678 C679 1.387 . S
C678 H682 0.950 . S
C678 C687 1.390 . S
C679 C678 1.387 . S
C679 C681 1.387 . S
H680 C687 0.950 . S
C681 C679 1.387 . S
C681 C683 1.390 . S
C681 H685 0.950 . S
H682 C678 0.950 . S
C683 C681 1.390 . S
C683 C684 1.387 . S
C683 H686 0.950 . S
C684 C683 1.387 . S
C684 C687 1.387 . S
H685 C681 0.950 . S
H686 C683 0.950 . S
C687 C678 1.390 . S
C687 H680 0.950 . S
C687 C684 1.387 . S
C688 C689 1.387 . S
C688 H692 0.950 . S
C688 C697 1.390 . S
C689 C688 1.387 . S
C689 C691 1.387 . S
H690 C697 0.950 . S
C691 C689 1.387 . S
C691 C693 1.390 . S
C691 H695 0.950 . S
H692 C688 0.950 . S
C693 C691 1.390 . S
C693 C694 1.387 . S
C693 H696 0.950 . S
C694 C693 1.387 . S
C694 C697 1.387 . S
H695 C691 0.950 . S
H696 C693 0.950 . S
C697 C688 1.390 . S
C697 H690 0.950 . S
C697 C694 1.387 . S
C698 C699 1.387 . S
C698 H702 0.950 . S
C698 C707 1.390 . S
C699 C698 1.387 . S
C699 C701 1.387 . S
H700 C707 0.950 . S
C701 C699 1.387 . S
C701 C703 1.390 . S
C701 H705 0.950 . S
H702 C698 0.950 . S
C703 C701 1.390 . S
C703 C704 1.387 . S
C703 H706 0.950 . S
C704 C703 1.387 . S
C704 C707 1.387 . S
H705 C701 0.950 . S
H706 C703 0.950 . S
C707 C698 1.390 . S
C707 H700 0.950 . S
C707 C704 1.387 . S
C708 C709 1.387 . S
C708 H712 0.950 . S
C708 C717 1.390 . S
C709 C708 1.387 . S
C709 C711 1.387 . S
H710 C717 0.950 . S
C711 C709 1.387 . S
C711 C713 1.390 . S
C711 H715 0.950 . S
H712 C708 0.950 . S
C713 C711 1.390 . S
C713 C714 1.387 . S
C713 H716 0.950 . S
C714 C713 1.387 . S
C714 C717 1.387 . S
H715 C711 0.950 . S
H716 C713 0.950 . S
C717 C708 1.390 . S
C717 H710 0.950 . S
C717 C714 1.387 . S
C718 C719 1.387 . S
C718 H722 0.950 . S
C718 C727 1.390 . S
C719 C718 1.387 . S
C719 C721 1.387 . S
H720 C727 0.950 . S
C721 C719 1.387 . S
C721 C723 1.390 . S
C721 H725 0.950 . S
H722 C718 0.950 . S
C723 C721 1.390 . S
C723 C724 1.387 . S
C723 H726 0.950 . S
C724 C723 1.387 . S
C724 C727 1.387 . S
H725 C721 0.950 . S
H726 C723 0.950 . S
C727 C718 1.390 . S
C727 H720 0.950 . S
C727 C724 1.387 . S
C728 C729 1.387 . S
C728 H732 0.950 . S
C728 C737 1.390 . S
C729 C728 1.387 . S
C729 C731 1.387 . S
H730 C737 0.950 . S
C731 C729 1.387 . S
C731 C733 1.390 . S
C731 H735 0.950 . S
H732 C728 0.950 . S
C733 C731 1.390 . S
C733 C734 1.387 . S
C733 H736 0.950 . S
C734 C733 1.387 . S
C734 C737 1.387 . S
H735 C731 0.950 . S
H736 C733 0.950 . S
C737 C728 1.390 . S
C737 H730 0.950 . S
C737 C734 1.387 . S
C738 C739 1.387 . S
C738 H742 0.950 . S
C738 C747 1.390 . S
C739 C738 1.387 . S
C739 C741 1.387 . S
H740 C747 0.950 . S
C741 C739 1.387 . S
C741 C743 1.390 . S
C741 H745 0.950 . S
H742 C738 0.950 . S
C743 C741 1.390 . S
C743 C744 1.387 . S
C743 H746 0.950 . S
C744 C743 1.387 . S
C744 C747 1.387 . S
H745 C741 0.950 . S
H746 C743 0.950 . S
C747 C738 1.390 . S
C747 H740 0.950 . S
C747 C744 1.387 . S
C748 C749 1.387 . S
C748 H752 0.950 . S
C748 C757 1.390 . S
C749 C748 1.387 . S
C749 C751 1.387 . S
H750 C757 0.950 . S
C751 C749 1.387 . S
C751 C753 1.390 . S
C751 H755 0.950 . S
H752 C748 0.950 . S
C753 C751 1.390 . S
C753 C754 1.387 . S
C753 H756 0.950 . S
C754 C753 1.387 . S
C754 C757 1.387 . S
H755 C751 0.950 . S
H756 C753 0.950 . S
C757 C748 1.390 . S
C757 H750 0.950 . S
C757 C754 1.387 . S
C758 C759 1.387 . S
C758 H762 0.950 . S
C758 C767 1.390 . S
C759 C758 1.387 . S
C759 C761 1.387 . S
H760 C767 0.950 . S
C761 C759 1.387 . S
C761 C763 1.390 . S
C761 H765 0.950 . S
H762 C758 0.950 . S
C763 C761 1.390 . S
C763 C764 1.387 . S
C763 H766 0.950 . S
C764 C763 1.387 . S
C764 C767 1.387 . S
H765 C761 0.950 . S
H766 C763 0.950 . S
C767 C758 1.390 . S
C767 H760 0.950 . S
C767 C764 1.387 . S
C768 C769 1.387 . S
C768 H772 0.950 . S
C768 C777 1.390 . S
C769 C768 1.387 . S
C769 C771 1.387 . S
H770 C777 0.950 . S
C771 C769 1.387 . S
C771 C773 1.390 . S
C771 H775 0.950 . S
H772 C768 0.950 . S
C773 C771 1.390 . S
C773 C774 1.387 . S
C773 H776 0.950 . S
C774 C773 1.387 . S
C774 C777 1.387 . S
H775 C771 0.950 . S
H776 C773 0.950 . S
C777 C768 1.390 . S
C777 H770 0.950 . S
C777 C774 1.387 . S
C778 C779 1.387 . S
C778 H782 0.950 . S
C778 C787 1.390 . S
C779 C778 1.387 . S
C779 C781 1.387 . S
H780 C787 0.950 . S
C781 C779 1.387 . S
C781 C783 1.390 . S
C781 H785 0.950 . S
H782 C778 0.950 . S
C783 C781 1.390 . S
C783 C784 1.387 . S
C783 H786 0.950 . S
C784 C783 1.387 . S
C784 C787 1.387 . S
H785 C781 0.950 . S
H786 C783 0.950 . S
C787 C778 1.390 . S
C787 H780 0.950 . S
C787 C784 1.387 . S
C788 C789 1.387 . S
C788 H792 0.950 . S
C788 C797 1.390 . S
C789 C788 1.387 . S
C789 C791 1.387 . S
H790 C797 0.950 . S
C791 C789 1.387 . S
C791 C793 1.390 . S
C791 H795 0.950 . S
H792 C788 0.950 . S
C793 C791 1.390 . S
C793 C794 1.387 . S
C793 H796 0.950 . S
C794 C793 1.387 . S
C794 C797 1.387 . S
H795 C791 0.950 . S
H796 C793 0.950 . S
C797 C788 1.390 . S
C797 H790 0.950 . S
C797 C794 1.387 . S
C798 C799 1.387 . S
C798 H802 0.950 . S
C798 C807 1.390 . S
C799 C798 1.387 . S
C799 C801 1.387 . S
H800 C807 0.950 . S
C801 C799 1.387 . S
C801 C803 1.390 . S
C801 H805 0.950 . S
H802 C798 0.950 . S
C803 C801 1.390 . S
C803 C804 1.387 . S
C803 H806 0.950 . S
C804 C803 1.387 . S
C804 C807 1.387 . S
H805 C801 0.950 . S
H806 C803 0.950 . S
C807 C798 1.390 . S
C807 H800 0.950 . S
C807 C804 1.387 . S
C808 C809 1.412 . S
C808 H812 0.950 . S
C808 C817 1.390 . S
C809 C808 1.412 . S
C809 C811 1.387 . S
H810 C817 0.950 . S
C811 C809 1.387 . S
C811 C813 1.416 . S
C811 H815 0.926 1_556 S
H812 C808 0.950 . S
C813 C811 1.416 . S
C813 C814 1.387 . S
C813 H816 0.950 . S
C814 C813 1.387 . S
C814 C817 1.387 . S
H815 C811 0.926 1_554 S
H816 C813 0.950 . S
C817 C808 1.390 . S
C817 H810 0.950 . S
C817 C814 1.387 . S
C818 C819 1.387 . S
C818 H822 0.950 . S
C818 C827 1.390 . S
C819 C818 1.387 . S
C819 C821 1.387 . S
H820 C827 0.950 . S
C821 C819 1.387 . S
C821 C823 1.390 . S
C821 H825 0.950 . S
H822 C818 0.950 . S
C823 C821 1.390 . S
C823 C824 1.387 . S
C823 H826 0.950 . S
C824 C823 1.387 . S
C824 C827 1.387 . S
H825 C821 0.950 . S
H826 C823 0.950 . S
C827 C818 1.390 . S
C827 H820 0.950 . S
C827 C824 1.387 . S
C594 C555 1.693 . S
C589 C29 1.613 . S
C599 C115 1.647 . S
C604 C375 1.657 . S
C609 C153 1.584 . S
C614 C422 1.678 . S
C619 C239 1.552 . S
C624 C458 1.557 . S
C634 C483 1.621 . S
C629 C301 1.600 . S
C639 C339 1.783 . S
C644 C519 1.910 . S
C649 C91 1.615 . S
C654 C411 1.720 . S
C659 C177 1.589 . S
C664 C447 1.596 . S
C669 C215 1.534 . S
C674 C494 1.633 . S
C684 C530 1.920 . S
C679 C277 1.791 . S
C694 C566 1.640 . S
C689 C363 1.621 . S
C704 C386 1.618 . S
C699 C53 1.606 . S
C709 C35 1.541 . S
C714 C410 1.550 . S
C719 C109 1.402 . S
C724 C446 1.510 . S
C734 C484 1.494 . S
C729 C159 1.487 . S
C739 C233 1.581 . S
C744 C520 1.706 1_556 S
C754 C556 1.528 . S
C749 C295 1.376 . S
C764 C376 1.380 . S
C759 C345 1.373 . S
C774 C554 1.474 . S
C769 C97 1.471 . S
C779 C171 1.378 . S
C784 C374 1.490 . S
C794 C412 1.552 . S
C789 C221 1.534 . S
C799 C283 1.438 . S
C804 C448 1.440 . S
C809 C357 1.394 1_556 S
C814 C482 1.555 . S
C819 C47 1.607 . S
C824 C518 1.708 . S
