# Generated by pormake.
# Topology eea, (3,6)-cn, num edge types: 1
# Building blocks:
#     Node 0, Type 0, BuildingBlock: CUQRIR_clean_linker_1, # of connection points: 3
#     Node 1, Type 0, BuildingBlock: CUQRIR_clean_linker_1, # of connection points: 3
#     Node 2, Type 0, BuildingBlock: CUQRIR_clean_linker_1, # of connection points: 3
#     Node 3, Type 0, BuildingBlock: CUQRIR_clean_linker_1, # of connection points: 3
#     Node 4, Type 0, BuildingBlock: CUQRIR_clean_linker_1, # of connection points: 3
#     Node 5, Type 0, BuildingBlock: CUQRIR_clean_linker_1, # of connection points: 3
#     Node 6, Type 0, BuildingBlock: CUQRIR_clean_linker_1, # of connection points: 3
#     Node 7, Type 0, BuildingBlock: CUQRIR_clean_linker_1, # of connection points: 3
#     Node 8, Type 0, BuildingBlock: CUQRIR_clean_linker_1, # of connection points: 3
#     Node 9, Type 0, BuildingBlock: CUQRIR_clean_linker_1, # of connection points: 3
#     Node 10, Type 0, BuildingBlock: CUQRIR_clean_linker_1, # of connection points: 3
#     Node 11, Type 0, BuildingBlock: CUQRIR_clean_linker_1, # of connection points: 3
#     Node 12, Type 0, BuildingBlock: CUQRIR_clean_linker_1, # of connection points: 3
#     Node 13, Type 0, BuildingBlock: CUQRIR_clean_linker_1, # of connection points: 3
#     Node 14, Type 0, BuildingBlock: CUQRIR_clean_linker_1, # of connection points: 3
#     Node 15, Type 0, BuildingBlock: CUQRIR_clean_linker_1, # of connection points: 3
#     Node 16, Type 0, BuildingBlock: CUQRIR_clean_linker_1, # of connection points: 3
#     Node 17, Type 0, BuildingBlock: CUQRIR_clean_linker_1, # of connection points: 3
#     Node 18, Type 1, BuildingBlock: KUMJIN_clean_sbu_0, # of connection points: 6
#     Node 19, Type 1, BuildingBlock: KUMJIN_clean_sbu_0, # of connection points: 6
#     Node 20, Type 1, BuildingBlock: KUMJIN_clean_sbu_0, # of connection points: 6
#     Node 21, Type 1, BuildingBlock: KUMJIN_clean_sbu_0, # of connection points: 6
#     Node 22, Type 1, BuildingBlock: KUMJIN_clean_sbu_0, # of connection points: 6
#     Node 23, Type 1, BuildingBlock: KUMJIN_clean_sbu_0, # of connection points: 6
#     Node 24, Type 1, BuildingBlock: KUMJIN_clean_sbu_0, # of connection points: 6
#     Node 25, Type 1, BuildingBlock: KUMJIN_clean_sbu_0, # of connection points: 6
#     Node 26, Type 1, BuildingBlock: KUMJIN_clean_sbu_0, # of connection points: 6
#     Edge 27, Type (0, 1), BuildingBlock: CIFDUS_clean_linker_0, # of connection points: 2
#     Edge 28, Type (0, 1), BuildingBlock: CIFDUS_clean_linker_0, # of connection points: 2
#     Edge 29, Type (0, 1), BuildingBlock: CIFDUS_clean_linker_0, # of connection points: 2
#     Edge 30, Type (0, 1), BuildingBlock: CIFDUS_clean_linker_0, # of connection points: 2
#     Edge 31, Type (0, 1), BuildingBlock: CIFDUS_clean_linker_0, # of connection points: 2
#     Edge 32, Type (0, 1), BuildingBlock: CIFDUS_clean_linker_0, # of connection points: 2
#     Edge 33, Type (0, 1), BuildingBlock: CIFDUS_clean_linker_0, # of connection points: 2
#     Edge 34, Type (0, 1), BuildingBlock: CIFDUS_clean_linker_0, # of connection points: 2
#     Edge 35, Type (0, 1), BuildingBlock: CIFDUS_clean_linker_0, # of connection points: 2
#     Edge 36, Type (0, 1), BuildingBlock: CIFDUS_clean_linker_0, # of connection points: 2
#     Edge 37, Type (0, 1), BuildingBlock: CIFDUS_clean_linker_0, # of connection points: 2
#     Edge 38, Type (0, 1), BuildingBlock: CIFDUS_clean_linker_0, # of connection points: 2
#     Edge 39, Type (0, 1), BuildingBlock: CIFDUS_clean_linker_0, # of connection points: 2
#     Edge 40, Type (0, 1), BuildingBlock: CIFDUS_clean_linker_0, # of connection points: 2
#     Edge 41, Type (0, 1), BuildingBlock: CIFDUS_clean_linker_0, # of connection points: 2
#     Edge 42, Type (0, 1), BuildingBlock: CIFDUS_clean_linker_0, # of connection points: 2
#     Edge 43, Type (0, 1), BuildingBlock: CIFDUS_clean_linker_0, # of connection points: 2
#     Edge 44, Type (0, 1), BuildingBlock: CIFDUS_clean_linker_0, # of connection points: 2
#     Edge 45, Type (0, 1), BuildingBlock: CIFDUS_clean_linker_0, # of connection points: 2
#     Edge 46, Type (0, 1), BuildingBlock: CIFDUS_clean_linker_0, # of connection points: 2
#     Edge 47, Type (0, 1), BuildingBlock: CIFDUS_clean_linker_0, # of connection points: 2
#     Edge 48, Type (0, 1), BuildingBlock: CIFDUS_clean_linker_0, # of connection points: 2
#     Edge 49, Type (0, 1), BuildingBlock: CIFDUS_clean_linker_0, # of connection points: 2
#     Edge 50, Type (0, 1), BuildingBlock: CIFDUS_clean_linker_0, # of connection points: 2
#     Edge 51, Type (0, 1), BuildingBlock: CIFDUS_clean_linker_0, # of connection points: 2
#     Edge 52, Type (0, 1), BuildingBlock: CIFDUS_clean_linker_0, # of connection points: 2
#     Edge 53, Type (0, 1), BuildingBlock: CIFDUS_clean_linker_0, # of connection points: 2
#     Edge 54, Type (0, 1), BuildingBlock: CIFDUS_clean_linker_0, # of connection points: 2
#     Edge 55, Type (0, 1), BuildingBlock: CIFDUS_clean_linker_0, # of connection points: 2
#     Edge 56, Type (0, 1), BuildingBlock: CIFDUS_clean_linker_0, # of connection points: 2
#     Edge 57, Type (0, 1), BuildingBlock: CIFDUS_clean_linker_0, # of connection points: 2
#     Edge 58, Type (0, 1), BuildingBlock: CIFDUS_clean_linker_0, # of connection points: 2
#     Edge 59, Type (0, 1), BuildingBlock: CIFDUS_clean_linker_0, # of connection points: 2
#     Edge 60, Type (0, 1), BuildingBlock: CIFDUS_clean_linker_0, # of connection points: 2
#     Edge 61, Type (0, 1), BuildingBlock: CIFDUS_clean_linker_0, # of connection points: 2
#     Edge 62, Type (0, 1), BuildingBlock: CIFDUS_clean_linker_0, # of connection points: 2
#     Edge 63, Type (0, 1), BuildingBlock: CIFDUS_clean_linker_0, # of connection points: 2
#     Edge 64, Type (0, 1), BuildingBlock: CIFDUS_clean_linker_0, # of connection points: 2
#     Edge 65, Type (0, 1), BuildingBlock: CIFDUS_clean_linker_0, # of connection points: 2
#     Edge 66, Type (0, 1), BuildingBlock: CIFDUS_clean_linker_0, # of connection points: 2
#     Edge 67, Type (0, 1), BuildingBlock: CIFDUS_clean_linker_0, # of connection points: 2
#     Edge 68, Type (0, 1), BuildingBlock: CIFDUS_clean_linker_0, # of connection points: 2
#     Edge 69, Type (0, 1), BuildingBlock: CIFDUS_clean_linker_0, # of connection points: 2
#     Edge 70, Type (0, 1), BuildingBlock: CIFDUS_clean_linker_0, # of connection points: 2
#     Edge 71, Type (0, 1), BuildingBlock: CIFDUS_clean_linker_0, # of connection points: 2
#     Edge 72, Type (0, 1), BuildingBlock: CIFDUS_clean_linker_0, # of connection points: 2
#     Edge 73, Type (0, 1), BuildingBlock: CIFDUS_clean_linker_0, # of connection points: 2
#     Edge 74, Type (0, 1), BuildingBlock: CIFDUS_clean_linker_0, # of connection points: 2
#     Edge 75, Type (0, 1), BuildingBlock: CIFDUS_clean_linker_0, # of connection points: 2
#     Edge 76, Type (0, 1), BuildingBlock: CIFDUS_clean_linker_0, # of connection points: 2
#     Edge 77, Type (0, 1), BuildingBlock: CIFDUS_clean_linker_0, # of connection points: 2
#     Edge 78, Type (0, 1), BuildingBlock: CIFDUS_clean_linker_0, # of connection points: 2
#     Edge 79, Type (0, 1), BuildingBlock: CIFDUS_clean_linker_0, # of connection points: 2
#     Edge 80, Type (0, 1), BuildingBlock: CIFDUS_clean_linker_0, # of connection points: 2
# Relax obj value: 0.040
# Max RMSD: 0.214
# Mean RMSD: 0.153
data_MOF--net-eea--node1-KUMJIN_clean_sbu_0--node2-CUQRIR_clean_linker_1--edge1-CIFDUS_clean_linker_0
_symmetry_space_group_name_H-M    P1
_symmetry_Int_Tables_number       1
_symmetry_cell_setting            triclinic
loop_
_symmetry_equiv_pos_as_xyz
'x, y, z'
_cell_length_a     41.038129
_cell_length_b     43.9787
_cell_length_c     56.636442
_cell_angle_alpha  83.067103
_cell_angle_beta   89.704403
_cell_angle_gamma 118.91753
loop_
_atom_site_label
_atom_site_type_symbol
_atom_site_fract_x
_atom_site_fract_y
_atom_site_fract_z
_atom_type_partial_charge
C0 C 0.21285 0.11031 0.41454 0.0
N1 N 0.22999 0.14001 0.42496 0.0
N2 N 0.22581 0.08798 0.42218 0.0
C3 C 0.18293 0.10272 0.39729 0.0
C4 C 0.25172 0.10525 0.43735 0.0
N5 N 0.25447 0.13688 0.43891 0.0
C6 C 0.27319 0.09058 0.45149 0.0
H7 H 0.1553 0.08958 0.40746 0.0
H8 H 0.18268 0.08496 0.38493 0.0
H9 H 0.18686 0.12732 0.38668 0.0
H10 H 0.30279 0.11092 0.45166 0.0
H11 H 0.27212 0.06789 0.44414 0.0
H12 H 0.26104 0.08204 0.47022 0.0
C13 C 0.92123 0.13825 0.41392 0.0
N14 N 0.93456 0.164 0.42826 0.0
N15 N 0.88804 0.1106 0.42335 0.0
C16 C 0.94064 0.13985 0.39084 0.0
C17 C 0.88149 0.12057 0.44374 0.0
N18 N 0.90931 0.15279 0.44674 0.0
C19 C 0.84783 0.09849 0.46104 0.0
H20 H 0.95614 0.1672 0.38157 0.0
H21 H 0.92056 0.12298 0.37884 0.0
H22 H 0.96083 0.13024 0.39469 0.0
H23 H 0.85487 0.08311 0.47503 0.0
H24 H 0.82381 0.07999 0.45192 0.0
H25 H 0.83959 0.11518 0.46988 0.0
C26 C 0.88015 0.77361 0.3974 0.0
N27 N 0.89612 0.76025 0.41341 0.0
N28 N 0.84576 0.76564 0.40604 0.0
C29 C 0.89657 0.7919 0.37262 0.0
C30 C 0.8413 0.74724 0.42781 0.0
N31 N 0.87155 0.74337 0.4322 0.0
C32 C 0.8085 0.7355 0.44553 0.0
H33 H 0.87424 0.78796 0.36039 0.0
H34 H 0.91453 0.78218 0.3655 0.0
H35 H 0.91385 0.82047 0.37318 0.0
H36 H 0.78687 0.70851 0.44331 0.0
H37 H 0.796 0.75295 0.44257 0.0
H38 H 0.81697 0.73533 0.46409 0.0
C39 C 0.12943 0.25607 0.67099 0.0
N40 N 0.15792 0.26732 0.65419 0.0
N41 N 0.10139 0.2604 0.66184 0.0
C42 C 0.12866 0.24035 0.69621 0.0
C43 C 0.11355 0.27429 0.63881 0.0
N44 N 0.14792 0.27838 0.63405 0.0
C45 C 0.09064 0.28141 0.62052 0.0
H46 H 0.10931 0.24351 0.70816 0.0
H47 H 0.15705 0.25269 0.70278 0.0
H48 H 0.11878 0.21191 0.6967 0.0
H49 H 0.074 0.29191 0.62833 0.0
H50 H 0.07093 0.25642 0.61415 0.0
H51 H 0.10855 0.30048 0.60506 0.0
C52 C 0.80541 0.92003 0.64553 0.0
N53 N 0.79493 0.89428 0.63149 0.0
N54 N 0.80608 0.94892 0.63348 0.0
C55 C 0.81255 0.91613 0.67148 0.0
C56 C 0.79609 0.93989 0.61156 0.0
N57 N 0.78937 0.90682 0.61022 0.0
C58 C 0.79125 0.96294 0.5916 0.0
H59 H 0.82418 0.89806 0.67519 0.0
H60 H 0.78579 0.90517 0.68242 0.0
H61 H 0.83215 0.94169 0.67706 0.0
H62 H 0.80903 0.99107 0.5934 0.0
H63 H 0.76164 0.95681 0.59217 0.0
H64 H 0.79837 0.95792 0.57408 0.0
C65 C 0.11025 0.91021 0.66262 0.0
N66 N 0.09834 0.88371 0.64908 0.0
N67 N 0.14403 0.93749 0.65363 0.0
C68 C 0.08983 0.9089 0.6852 0.0
C69 C 0.15216 0.92643 0.6342 0.0
N70 N 0.12459 0.89405 0.63141 0.0
C71 C 0.18836 0.94609 0.61887 0.0
H72 H 0.0592 0.89413 0.68428 0.0
H73 H 0.09777 0.9357 0.68895 0.0
H74 H 0.09716 0.89528 0.70027 0.0
H75 H 0.21178 0.96214 0.62942 0.0
H76 H 0.18571 0.96378 0.60424 0.0
H77 H 0.19506 0.92788 0.61073 0.0
C78 C 0.84821 0.43137 0.74944 0.0
N79 N 0.86439 0.45802 0.76272 0.0
N80 N 0.85474 0.40471 0.75782 0.0
C81 C 0.82704 0.43159 0.72788 0.0
C82 C 0.87538 0.41621 0.77667 0.0
N83 N 0.88122 0.44847 0.77965 0.0
C84 C 0.88972 0.3959 0.79244 0.0
H85 H 0.79677 0.41424 0.73274 0.0
H86 H 0.8352 0.42103 0.71348 0.0
H87 H 0.8316 0.45816 0.72112 0.0
H88 H 0.9183 0.40327 0.78554 0.0
H89 H 0.87154 0.36723 0.79275 0.0
H90 H 0.89125 0.40236 0.8109 0.0
C91 C 0.57379 0.45308 0.74714 0.0
N92 N 0.59343 0.47655 0.76208 0.0
N93 N 0.54036 0.4277 0.75794 0.0
C94 C 0.5869 0.45578 0.72173 0.0
C95 C 0.54049 0.43687 0.78002 0.0
N96 N 0.57241 0.46672 0.78248 0.0
C97 C 0.51102 0.4149 0.80002 0.0
H98 H 0.60502 0.48358 0.71389 0.0
H99 H 0.56291 0.44341 0.71064 0.0
H100 H 0.60358 0.44211 0.72138 0.0
H101 H 0.49659 0.38677 0.79767 0.0
H102 H 0.49013 0.42404 0.80022 0.0
H103 H 0.52335 0.41756 0.81754 0.0
C104 C 0.55663 0.11003 0.72156 0.0
N105 N 0.5758 0.10202 0.73828 0.0
N106 N 0.52002 0.09455 0.72895 0.0
C107 C 0.57333 0.13184 0.69768 0.0
C108 C 0.51765 0.07706 0.75082 0.0
N109 N 0.55148 0.08133 0.75643 0.0
C110 C 0.48257 0.05768 0.76727 0.0
H111 H 0.58625 0.16002 0.69974 0.0
H112 H 0.55167 0.126 0.68467 0.0
H113 H 0.59545 0.12695 0.69071 0.0
H114 H 0.46335 0.03281 0.76059 0.0
H115 H 0.46823 0.07355 0.76732 0.0
H116 H 0.48806 0.05113 0.78579 0.0
C117 C 0.77373 0.55137 0.9991 0.0
N118 N 0.8023 0.56244 0.98245 0.0
N119 N 0.74718 0.55834 0.99029 0.0
C120 C 0.77197 0.53409 0.02402 0.0
C121 C 0.76035 0.57374 0.96758 0.0
N122 N 0.79394 0.57614 0.96272 0.0
C123 C 0.73989 0.58526 0.94976 0.0
H124 H 0.75997 0.50546 0.02387 0.0
H125 H 0.75397 0.53832 0.03641 0.0
H126 H 0.80032 0.54427 0.03057 0.0
H127 H 0.71749 0.58829 0.95822 0.0
H128 H 0.72671 0.56518 0.93765 0.0
H129 H 0.75972 0.61044 0.93878 0.0
C130 C 0.4854 0.25543 0.98144 0.0
N131 N 0.47147 0.22802 0.96864 0.0
N132 N 0.47758 0.28077 0.97184 0.0
C133 C 0.50973 0.25914 1.00189 0.0
C134 C 0.4585 0.26791 0.95274 0.0
N135 N 0.45534 0.23627 0.95048 0.0
C136 C 0.43983 0.28475 0.93761 0.0
H137 H 0.49187 0.24782 0.01883 0.0
H138 H 0.52959 0.28717 1.00281 0.0
H139 H 0.52569 0.24503 1.0001 0.0
H140 H 0.43269 0.30095 0.94786 0.0
H141 H 0.41392 0.26462 0.93094 0.0
H142 H 0.45913 0.30195 0.92203 0.0
C143 C 0.78267 0.2504 0.98612 0.0
N144 N 0.77245 0.22159 0.97494 0.0
N145 N 0.81402 0.27851 0.97489 0.0
C146 C 0.76245 0.25109 1.0081 0.0
C147 C 0.82273 0.26579 0.95672 0.0
N148 N 0.79779 0.23145 0.95672 0.0
C149 C 0.856 0.28719 0.939 0.0
H150 H 0.7401 0.25721 1.00266 0.0
H151 H 0.78139 0.27161 0.01858 0.0
H152 H 0.74948 0.22523 0.01958 0.0
H153 H 0.88014 0.30597 0.9479 0.0
H154 H 0.84884 0.30255 0.92507 0.0
H155 H 0.86424 0.27059 0.9301 0.0
C156 C 0.56044 0.77682 0.08172 0.0
N157 N 0.57074 0.80313 0.09535 0.0
N158 N 0.56208 0.74904 0.09377 0.0
C159 C 0.55306 0.77967 0.05577 0.0
C160 C 0.57393 0.75942 0.11514 0.0
N161 N 0.57955 0.79223 0.11609 0.0
C162 C 0.57842 0.73683 0.13562 0.0
H163 H 0.52255 0.76817 0.0542 0.0
H164 H 0.56291 0.76485 0.04604 0.0
H165 H 0.56713 0.80744 0.04724 0.0
H166 H 0.60755 0.74158 0.13471 0.0
H167 H 0.5593 0.7086 0.1348 0.0
H168 H 0.57274 0.74344 0.15293 0.0
C169 C 0.24775 0.78888 0.07681 0.0
N170 N 0.2595 0.81625 0.08964 0.0
N171 N 0.21547 0.7609 0.08708 0.0
C172 C 0.26772 0.78944 0.05424 0.0
C173 C 0.20789 0.77223 0.10649 0.0
N174 N 0.23437 0.80563 0.10812 0.0
C175 C 0.17377 0.75074 0.12355 0.0
H176 H 0.24859 0.77048 0.04292 0.0
H177 H 0.28936 0.782 0.05897 0.0
H178 H 0.28158 0.81609 0.04379 0.0
H179 H 0.17964 0.73403 0.13719 0.0
H180 H 0.14961 0.73332 0.11403 0.0
H181 H 0.16617 0.7674 0.1329 0.0
C182 C 0.21651 0.44111 0.05934 0.0
N183 N 0.2357 0.43325 0.07611 0.0
N184 N 0.18019 0.42673 0.0671 0.0
C185 C 0.23289 0.46161 0.03505 0.0
C186 C 0.17801 0.41005 0.08925 0.0
N187 N 0.21169 0.41376 0.09467 0.0
C188 C 0.14326 0.39173 0.10601 0.0
H189 H 0.25457 0.45597 0.02833 0.0
H190 H 0.24627 0.49006 0.03636 0.0
H191 H 0.21095 0.45527 0.0222 0.0
H192 H 0.12888 0.40763 0.10536 0.0
H193 H 0.14918 0.38653 0.12468 0.0
H194 H 0.12391 0.36619 0.10021 0.0
C195 C 0.43889 0.87511 0.33132 0.0
N196 N 0.46542 0.88368 0.31369 0.0
N197 N 0.40885 0.87575 0.32226 0.0
C198 C 0.4429 0.86693 0.35733 0.0
C199 C 0.4179 0.88483 0.29849 0.0
N200 N 0.45227 0.88924 0.29314 0.0
C201 C 0.39362 0.89057 0.2806 0.0
H202 H 0.41773 0.86089 0.36858 0.0
H203 H 0.4676 0.88966 0.36304 0.0
H204 H 0.44808 0.84425 0.36003 0.0
H205 H 0.37151 0.89402 0.28912 0.0
H206 H 0.37977 0.86734 0.27111 0.0
H207 H 0.41083 0.9139 0.26723 0.0
C208 C 0.14761 0.59079 0.31407 0.0
N209 N 0.13489 0.56358 0.30114 0.0
N210 N 0.13877 0.61541 0.30443 0.0
C211 C 0.17162 0.59498 0.33474 0.0
C212 C 0.12029 0.60227 0.2852 0.0
N213 N 0.11849 0.57119 0.28291 0.0
C214 C 0.10099 0.61825 0.26987 0.0
H215 H 0.15343 0.58301 0.35153 0.0
H216 H 0.19065 0.62313 0.33588 0.0
H217 H 0.18845 0.58169 0.33306 0.0
H218 H 0.12015 0.63554 0.25426 0.0
H219 H 0.09315 0.63415 0.27995 0.0
H220 H 0.07543 0.59761 0.26323 0.0
C221 C 0.4563 0.60037 0.32378 0.0
N222 N 0.43862 0.57201 0.31197 0.0
N223 N 0.48954 0.62474 0.31202 0.0
C224 C 0.44279 0.60282 0.34783 0.0
C225 C 0.491 0.61021 0.2925 0.0
N226 N 0.46049 0.57838 0.29249 0.0
C227 C 0.52214 0.62719 0.27304 0.0
H228 H 0.42636 0.61676 0.34532 0.0
H229 H 0.46666 0.61782 0.35841 0.0
H230 H 0.42463 0.57635 0.35789 0.0
H231 H 0.54247 0.61772 0.27682 0.0
H232 H 0.53674 0.65619 0.27191 0.0
H233 H 0.5112 0.61987 0.25553 0.0
Eu234 Eu 0.50598 0.99942 1.00373 0.0
C235 C 0.5817 0.11212 0.06916 0.0
C236 C 0.64681 0.12917 0.06162 0.0
C237 C 0.62961 0.17233 0.07084 0.0
C238 C 0.6087 0.10367 0.0632 0.0
C239 C 0.59191 0.1462 0.07397 0.0
C240 C 0.65704 0.16383 0.06463 0.0
C241 C 0.52776 0.12477 0.08791 0.0
N242 N 0.54571 0.08609 0.07252 0.0
C243 C 0.51915 0.09133 0.08311 0.0
C244 C 0.56418 0.15252 0.08286 0.0
Eu245 Eu 0.53262 0.03076 0.06225 0.0
N246 N 0.59782 0.06989 0.06061 0.0
C247 C 0.62377 0.05919 0.05846 0.0
C248 C 0.6735 0.11878 0.05794 0.0
C249 C 0.66192 0.08348 0.05688 0.0
H250 H 0.49095 0.06985 0.08693 0.0
H251 H 0.68235 0.07501 0.05455 0.0
H252 H 0.68614 0.18392 0.06308 0.0
H253 H 0.50635 0.1291 0.0955 0.0
H254 H 0.61525 0.0321 0.05727 0.0
H255 H 0.35721 0.95997 1.00879 0.0
H256 H 0.70305 0.13757 0.05656 0.0
H257 H 0.54779 0.95697 0.98417 0.0
H258 H 0.4245 1.00122 1.00755 0.0
H259 H 0.53062 0.89716 0.97587 0.0
H260 H 0.63797 0.19882 0.07408 0.0
H261 H 0.33488 0.89749 1.00552 0.0
H262 H 0.35005 0.85014 0.999 0.0
H263 H 0.57087 0.17834 0.08678 0.0
H264 H 0.39717 0.833 0.99004 0.0
N265 N 0.44062 0.96262 1.00372 0.0
C266 C 0.41541 0.9742 1.00581 0.0
C267 C 0.36458 0.91556 1.00479 0.0
C268 C 0.39057 0.90422 1.00145 0.0
C269 C 0.37709 0.95083 1.00657 0.0
C270 C 0.42894 0.92875 1.00078 0.0
H271 H 0.46448 0.85047 0.98098 0.0
N272 N 0.49204 0.9436 0.99437 0.0
C273 C 0.50924 0.90289 0.98164 0.0
C274 C 0.45542 0.91896 0.99594 0.0
C275 C 0.51885 0.93665 0.98622 0.0
C276 C 0.47187 0.87659 0.9846 0.0
C277 C 0.44434 0.88459 0.99141 0.0
O278 O 0.53764 0.01426 0.96926 0.0
O279 O 0.54802 0.04074 0.02316 0.0
O280 O 0.51612 0.06811 0.04141 0.0
O281 O 0.48992 0.04177 1.0076 0.0
O282 O 0.56922 0.02308 0.99847 0.0
O283 O 0.48734 0.01851 0.97208 0.0
O284 O 0.50566 0.01475 0.09837 0.0
O285 O 0.48964 0.9906 0.04268 0.0
O286 O 0.51251 0.95809 0.02736 0.0
O287 O 0.5496 0.98889 0.05644 0.0
O288 O 0.46958 1.00625 0.06934 0.0
O289 O 0.5543 1.00958 0.09119 0.0
C290 C 0.57801 0.04595 1.01294 0.0
C291 C 0.50299 1.00613 0.93538 0.0
C292 C 0.51282 1.01201 0.89202 0.0
C293 C 0.52255 0.02612 0.91363 0.0
C294 C 0.4834 0.9774 0.8927 0.0
C295 C 0.47369 0.97183 0.93552 0.0
C296 C 0.46411 0.95754 0.9143 0.0
C297 C 0.49809 0.06606 0.02178 0.0
C298 C 0.51395 0.02108 0.95779 0.0
C299 C 0.40622 0.85966 0.99316 0.0
C300 C 0.37939 0.86944 0.99822 0.0
C301 C 0.45987 0.9853 0.05347 0.0
C302 C 0.54541 0.02139 0.12959 0.0
C303 C 0.53902 0.99881 0.15103 0.0
C304 C 0.55096 1.01242 0.17272 0.0
C305 C 0.56974 0.04925 0.17209 0.0
C306 C 0.56526 0.05773 0.12957 0.0
C307 C 0.57727 0.07153 0.15069 0.0
C308 C 0.5339 0.9608 0.04521 0.0
C309 C 0.53024 1.00697 0.1075 0.0
H310 H 0.54534 0.05257 0.91361 0.0
H311 H 0.47452 0.96588 0.87646 0.0
H312 H 0.45811 0.95617 0.95198 0.0
H313 H 0.44135 0.93107 0.91455 0.0
H314 H 0.52465 0.9708 0.15058 0.0
H315 H 0.57806 0.06126 0.18816 0.0
H316 H 0.57111 0.07552 0.11333 0.0
H317 H 0.59192 0.09968 0.15054 0.0
Eu318 Eu 0.03277 0.53774 0.99363 0.0
C319 C 0.9039 0.48474 0.07177 0.0
C320 C 0.89279 0.53417 0.06976 0.0
C321 C 0.84107 0.4749 0.07992 0.0
C322 C 0.91712 0.5204 0.06722 0.0
C323 C 0.86597 0.4616 0.07902 0.0
C324 C 0.85447 0.51118 0.07527 0.0
C325 C 0.88118 0.41483 0.08692 0.0
N326 N 0.92883 0.47297 0.07109 0.0
C327 C 0.91854 0.43893 0.07978 0.0
C328 C 0.85461 0.42608 0.0861 0.0
Eu329 Eu 0.99087 0.51441 0.05638 0.0
N330 N 0.95434 0.54175 0.06228 0.0
C331 C 0.96957 0.57713 0.06204 0.0
C332 C 0.90798 0.57059 0.06783 0.0
C333 C 0.94664 0.59209 0.06458 0.0
H334 H 0.93912 0.43026 0.08039 0.0
H335 H 0.95878 0.62023 0.06372 0.0
H336 H 0.83523 0.52124 0.0769 0.0
H337 H 0.87292 0.38765 0.09306 0.0
H338 H 0.99933 0.59415 0.05918 0.0
H339 H 0.06983 0.43583 0.98331 0.0
H340 H 0.89027 0.58224 0.06969 0.0
H341 H 0.08082 0.62293 0.97147 0.0
H342 H 0.02772 0.45936 0.99053 0.0
H343 H 0.1454 0.66743 0.95665 0.0
H344 H 0.8117 0.45751 0.08509 0.0
H345 H 0.1373 0.47618 0.97353 0.0
H346 H 0.18984 0.53817 0.96401 0.0
H347 H 0.82572 0.40744 0.0918 0.0
H348 H 0.2105 0.6014 0.95668 0.0
N349 N 0.07088 0.51271 0.9856 0.0
C350 C 0.05699 0.47741 0.98617 0.0
C351 C 0.1189 0.48672 0.97666 0.0
C352 C 0.13251 0.52295 0.97444 0.0
C353 C 0.08083 0.46389 0.98209 0.0
C354 C 0.10736 0.53528 0.97882 0.0
H355 H 0.19398 0.64983 0.95347 0.0
N356 N 0.09336 0.58121 0.9777 0.0
C357 C 0.13845 0.64037 0.96187 0.0
C358 C 0.119 0.57071 0.97477 0.0
C359 C 0.10199 0.61519 0.9703 0.0
C360 C 0.1658 0.63034 0.96015 0.0
C361 C 0.15607 0.59501 0.96615 0.0
O362 O 0.01445 0.55969 0.96331 0.0
O363 O 0.98903 0.53468 0.01869 0.0
O364 O 0.94996 0.4721 0.03605 0.0
O365 O 0.98573 0.48018 1.00102 0.0
O366 O 0.01693 0.58008 0.9945 0.0
O367 O 0.01152 0.50942 0.96298 0.0
O368 O 1.00305 0.48975 0.08841 0.0
O369 O 0.03423 0.51744 0.03121 0.0
O370 O 0.07518 0.5788 0.01439 0.0
O371 O 0.03993 0.57085 0.0497 0.0
O372 O 0.00897 0.47322 0.05656 0.0
O373 O 0.01376 0.54316 0.08656 0.0
C374 C 0.99048 0.56356 1.01122 0.0
C375 C 0.01902 0.54386 0.92567 0.0
C376 C 1.00338 0.54102 0.88402 0.0
C377 C 0.99282 0.53009 0.90864 0.0
C378 C 0.04083 0.56611 0.87693 0.0
C379 C 0.05626 0.5681 0.91812 0.0
C380 C 0.06701 0.57921 0.89386 0.0
C381 C 0.95572 0.46168 0.01622 0.0
C382 C 0.00653 0.53398 0.95118 0.0
C383 C 0.18178 0.58311 0.96301 0.0
C384 C 0.17001 0.54711 0.96718 0.0
C385 C 0.03419 0.48942 0.0391 0.0
C386 C 1.00033 0.5097 0.12483 0.0
C387 C 0.02602 0.51843 0.14252 0.0
C388 C 0.01389 0.51239 0.16685 0.0
C389 C 0.97532 0.49673 0.17305 0.0
C390 C 0.96213 0.49433 0.13142 0.0
C391 C 0.94974 0.48771 0.15545 0.0
C392 C 0.07013 0.58888 0.03463 0.0
C393 C 0.01406 0.51682 0.09965 0.0
H394 H 0.96431 0.51072 0.9147 0.0
H395 H 0.05 0.57596 0.85829 0.0
H396 H 0.07689 0.57875 0.93091 0.0
H397 H 0.09572 0.59832 0.88814 0.0
H398 H 0.05548 0.52999 0.13725 0.0
H399 H 0.96487 0.49228 0.19144 0.0
H400 H 0.94196 0.48756 0.11804 0.0
H401 H 0.92021 0.47596 0.16045 0.0
Eu402 Eu 0.51101 0.49478 0.07108 0.0
C403 C 0.41751 0.5308 0.99886 0.0
C404 C 0.35955 0.47601 1.00114 0.0
C405 C 0.35898 0.53133 0.99369 0.0
C406 C 0.39859 0.49458 1.0025 0.0
C407 C 0.39807 0.54963 0.99376 0.0
C408 C 0.33975 0.49456 0.99736 0.0
C409 C 0.4576 0.60292 0.98684 0.0
N410 N 0.45521 0.54761 0.99891 0.0
C411 C 0.47557 0.58303 0.99188 0.0
C412 C 0.41863 0.5862 0.98815 0.0
Eu413 Eu 0.48353 0.51255 1.00982 0.0
N414 N 0.41858 0.4775 1.00622 0.0
C415 C 0.40168 0.44197 1.00657 0.0
C416 C 0.34176 0.43941 1.00297 0.0
C417 C 0.36304 0.4224 1.00522 0.0
H418 H 0.50573 0.596 0.99116 0.0
H419 H 0.34966 0.39415 1.00615 0.0
H420 H 0.30971 0.48075 0.99657 0.0
H421 H 0.47378 0.63109 0.98201 0.0
H422 H 0.41759 0.42835 1.00857 0.0
H423 H 0.65459 0.59982 0.07367 0.0
H424 H 0.31182 0.42417 1.00208 0.0
H425 H 0.47433 0.41002 0.09543 0.0
H426 H 0.58683 0.57435 0.07057 0.0
H427 H 0.4958 0.36756 0.10866 0.0
H428 H 0.34348 0.54533 0.99013 0.0
H429 H 0.68242 0.56098 0.08122 0.0
H430 H 0.67282 0.49976 0.09073 0.0
H431 H 0.40475 0.60163 0.98416 0.0
H432 H 0.62947 0.43639 0.10043 0.0
N433 N 0.57615 0.52154 0.07563 0.0
C434 C 0.59842 0.55704 0.07402 0.0
C435 C 0.65256 0.54963 0.07994 0.0
C436 C 0.62923 0.51324 0.08337 0.0
C437 C 0.63696 0.57163 0.07575 0.0
C438 C 0.59056 0.49985 0.0814 0.0
H439 H 0.56337 0.38695 0.10769 0.0
N440 N 0.52913 0.45282 0.0862 0.0
C441 C 0.51594 0.39465 0.10239 0.0
C442 C 0.56627 0.46433 0.08686 0.0
C443 C 0.50388 0.41879 0.09483 0.0
C444 C 0.5541 0.40568 0.10177 0.0
C445 C 0.57983 0.44103 0.09438 0.0
O446 O 0.47009 0.47956 0.10122 0.0
O447 O 0.46551 0.49126 0.04823 0.0
O448 O 0.48035 0.54981 0.03332 0.0
O449 O 0.52146 0.55103 0.06202 0.0
O450 O 0.45294 0.44828 0.07366 0.0
O451 O 0.52538 0.52223 0.10267 0.0
O452 O 0.4812 0.48412 0.97996 0.0
O453 O 0.5286 0.51604 0.03257 0.0
O454 O 0.51269 0.45464 0.0502 0.0
O455 O 0.48285 0.45973 0.01569 0.0
O456 O 0.54288 0.55803 1.00618 0.0
O457 O 0.51036 0.54063 0.97454 0.0
C458 C 0.4398 0.46121 0.0571 0.0
C459 C 0.49131 0.48983 0.13953 0.0
C460 C 0.47672 0.49067 0.18157 0.0
C461 C 0.4815 0.50472 0.15713 0.0
C462 C 0.48172 0.46121 0.18773 0.0
C463 C 0.4973 0.46138 0.14644 0.0
C464 C 0.49235 0.4471 0.17036 0.0
C465 C 0.50242 0.56453 0.05032 0.0
C466 C 0.49272 0.50256 0.11398 0.0
C467 C 0.61848 0.45393 0.09501 0.0
C468 C 0.64316 0.49 0.08948 0.0
C469 C 0.55528 0.54487 0.02305 0.0
C470 C 0.53372 0.51279 0.95155 0.0
C471 C 0.53252 0.50927 0.92699 0.0
C472 C 0.56379 0.51222 0.91374 0.0
C473 C 0.59606 0.51912 0.92595 0.0
C474 C 0.56569 0.51792 0.96305 0.0
C475 C 0.59668 0.52135 0.95033 0.0
C476 C 0.49731 0.44393 0.03013 0.0
C477 C 0.50238 0.51239 0.96512 0.0
H478 H 0.47776 0.52722 0.15166 0.0
H479 H 0.47707 0.4486 0.20599 0.0
H480 H 0.50516 0.4498 0.13332 0.0
H481 H 0.49634 0.42466 0.17547 0.0
H482 H 0.50713 0.50406 0.9185 0.0
H483 H 0.62136 0.5233 0.91678 0.0
H484 H 0.5668 0.51972 0.98185 0.0
H485 H 0.62156 0.52618 0.95939 0.0
Eu486 Eu 0.17989 0.34 0.34275 0.0
C487 C 0.25248 0.46479 0.39993 0.0
C488 C 0.3188 0.48672 0.39293 0.0
C489 C 0.29582 0.52708 0.39869 0.0
C490 C 0.28173 0.45884 0.39507 0.0
C491 C 0.25928 0.49875 0.40272 0.0
C492 C 0.32558 0.52106 0.39381 0.0
C493 C 0.1946 0.47327 0.41707 0.0
N494 N 0.21781 0.43666 0.40448 0.0
C495 C 0.18947 0.44006 0.41438 0.0
C496 C 0.22949 0.50286 0.41074 0.0
Eu497 Eu 0.21032 0.38151 0.39758 0.0
N498 N 0.27415 0.42528 0.39464 0.0
C499 C 0.30251 0.41738 0.39441 0.0
C500 C 0.34795 0.47901 0.39102 0.0
C501 C 0.33976 0.44411 0.39228 0.0
H502 H 0.16247 0.41716 0.41926 0.0
H503 H 0.3621 0.43776 0.39139 0.0
H504 H 0.35381 0.54291 0.3917 0.0
H505 H 0.17171 0.476 0.42406 0.0
H506 H 0.29657 0.39054 0.39513 0.0
H507 H 0.0303 0.29743 0.34811 0.0
H508 H 0.37681 0.49967 0.38928 0.0
H509 H 0.22303 0.29604 0.32855 0.0
H510 H 0.09724 0.3398 0.34602 0.0
H511 H 0.20716 0.23521 0.32394 0.0
H512 H 0.30155 0.55347 0.40036 0.0
H513 H 0.00915 0.23461 0.34702 0.0
H514 H 0.02554 0.18729 0.34311 0.0
H515 H 0.23353 0.52852 0.41309 0.0
H516 H 0.07356 0.17028 0.33674 0.0
N517 N 0.11457 0.3016 0.3439 0.0
C518 C 0.08877 0.31265 0.34525 0.0
C519 C 0.03875 0.25319 0.34591 0.0
C520 C 0.06526 0.24223 0.34349 0.0
C521 C 0.05059 0.28862 0.34649 0.0
C522 C 0.10348 0.26742 0.34233 0.0
H523 H 0.14128 0.18799 0.32934 0.0
N524 N 0.16683 0.28287 0.33708 0.0
C525 C 0.18533 0.24115 0.32828 0.0
C526 C 0.13043 0.25774 0.33896 0.0
C527 C 0.1942 0.27549 0.33081 0.0
C528 C 0.14811 0.21457 0.33139 0.0
C529 C 0.12004 0.22277 0.33641 0.0
O530 O 0.20971 0.35081 0.30806 0.0
O531 O 0.22423 0.38568 0.35849 0.0
O532 O 0.19267 0.41549 0.37399 0.0
O533 O 0.16185 0.38162 0.34406 0.0
O534 O 0.24225 0.36147 0.33654 0.0
O535 O 0.16029 0.35651 0.31046 0.0
O536 O 0.18598 0.36777 0.43432 0.0
O537 O 0.16645 0.33707 0.38135 0.0
O538 O 0.18936 0.30326 0.36973 0.0
O539 O 0.23202 0.34296 0.39276 0.0
O540 O 0.14724 0.35467 0.40705 0.0
O541 O 0.23664 0.36624 0.42675 0.0
C542 C 0.25294 0.38734 0.34861 0.0
C543 C 0.17419 0.34113 0.27452 0.0
C544 C 0.18043 0.34563 0.23103 0.0
C545 C 0.19129 0.36079 0.2522 0.0
C546 C 0.15234 0.31026 0.23277 0.0
C547 C 0.14631 0.30602 0.27575 0.0
C548 C 0.13558 0.29069 0.25496 0.0
C549 C 0.17164 0.40893 0.35562 0.0
C550 C 0.18615 0.35748 0.29632 0.0
C551 C 0.08208 0.19736 0.3384 0.0
C552 C 0.05474 0.20706 0.34197 0.0
C553 C 0.13701 0.33165 0.39261 0.0
C554 C 0.2293 0.3825 0.46383 0.0
C555 C 0.2248 0.36379 0.48671 0.0
C556 C 0.23771 0.3817 0.50677 0.0
C557 C 0.25545 0.41874 0.50302 0.0
C558 C 0.2482 0.4192 0.46078 0.0
C559 C 0.26113 0.43717 0.48023 0.0
C560 C 0.21526 0.31182 0.38525 0.0
C561 C 0.21307 0.36384 0.44333 0.0
H562 H 0.21311 0.38783 0.2514 0.0
H563 H 0.14257 0.29785 0.21694 0.0
H564 H 0.13277 0.29054 0.29272 0.0
H565 H 0.11388 0.2636 0.25602 0.0
H566 H 0.21111 0.33545 0.48864 0.0
H567 H 0.26435 0.43392 0.51768 0.0
H568 H 0.25254 0.43404 0.44343 0.0
H569 H 0.275 0.46556 0.4777 0.0
Eu570 Eu 0.71071 0.88658 0.33012 0.0
C571 C 0.57316 0.82765 0.40144 0.0
C572 C 0.55855 0.87503 0.39936 0.0
C573 C 0.50853 0.81448 0.40604 0.0
C574 C 0.58482 0.86319 0.39809 0.0
C575 C 0.53499 0.80289 0.40609 0.0
C576 C 0.52029 0.8505 0.40266 0.0
C577 C 0.55228 0.75734 0.41252 0.0
N578 N 0.59943 0.81734 0.40132 0.0
C579 C 0.58982 0.7829 0.40786 0.0
C580 C 0.52469 0.76731 0.41126 0.0
Eu581 Eu 0.66194 0.86206 0.391 0.0
N582 N 0.62197 0.88618 0.39491 0.0
C583 C 0.63496 0.92122 0.39483 0.0
C584 C 0.57161 0.9111 0.39805 0.0
C585 C 0.61 0.93421 0.39631 0.0
H586 H 0.61113 0.77515 0.40859 0.0
H587 H 0.6204 0.9621 0.39574 0.0
H588 H 0.49966 0.8591 0.4033 0.0
H589 H 0.54465 0.72998 0.41701 0.0
H590 H 0.66454 0.9394 0.39307 0.0
H591 H 0.75237 0.78742 0.32146 0.0
H592 H 0.55235 0.92126 0.39898 0.0
H593 H 0.75935 0.97284 0.31086 0.0
H594 H 0.70847 0.80959 0.32692 0.0
H595 H 0.82479 0.01855 0.29925 0.0
H596 H 0.47901 0.79585 0.40924 0.0
H597 H 0.82014 0.82879 0.31475 0.0
H598 H 0.87223 0.89123 0.30785 0.0
H599 H 0.49563 0.74745 0.41491 0.0
H600 H 0.89203 0.95431 0.30182 0.0
N601 N 0.75087 0.86306 0.32411 0.0
C602 C 0.7379 0.82804 0.32395 0.0
C603 C 0.80096 0.83872 0.31714 0.0
C604 C 0.81383 0.87477 0.31569 0.0
C605 C 0.76274 0.8153 0.32084 0.0
C606 C 0.78767 0.88628 0.31905 0.0
H607 H 0.87446 1.00203 0.29819 0.0
N608 N 0.77241 0.93148 0.31755 0.0
C609 C 0.81795 0.99144 0.30403 0.0
C610 C 0.79883 0.92165 0.31573 0.0
C611 C 0.78101 0.96559 0.31064 0.0
C612 C 0.8459 0.98201 0.30351 0.0
C613 C 0.83641 0.94666 0.30889 0.0
O614 O 0.69778 0.90912 0.29743 0.0
O615 O 0.66518 0.88341 0.35305 0.0
O616 O 0.62255 0.82522 0.36692 0.0
O617 O 0.66397 0.82835 0.33703 0.0
O618 O 0.69087 0.92695 0.32776 0.0
O619 O 0.69223 0.85752 0.29955 0.0
O620 O 0.6744 0.83848 0.42342 0.0
O621 O 0.70855 0.86592 0.36831 0.0
O622 O 0.74958 0.92683 0.35288 0.0
O623 O 0.70966 0.91938 0.38558 0.0
O624 O 0.68012 0.82078 0.39278 0.0
O625 O 0.67423 0.88744 0.4234 0.0
C626 C 0.66423 0.91064 0.34436 0.0
C627 C 0.70904 0.89228 0.26157 0.0
C628 C 0.70579 0.8852 0.21928 0.0
C629 C 0.68839 0.87632 0.24253 0.0
C630 C 0.74372 0.91078 0.21534 0.0
C631 C 0.74695 0.91731 0.25713 0.0
C632 C 0.76405 0.92664 0.23414 0.0
C633 C 0.63062 0.81258 0.34907 0.0
C634 C 0.69102 0.88299 0.28593 0.0
C635 C 0.86295 0.93548 0.30679 0.0
C636 C 0.85167 0.89957 0.31021 0.0
C637 C 0.70742 0.83753 0.37662 0.0
C638 C 0.65767 0.84916 0.46012 0.0
C639 C 0.6776 0.85683 0.48083 0.0
C640 C 0.65868 0.84271 0.50376 0.0
C641 C 0.61977 0.82014 0.50538 0.0
C642 C 0.61883 0.82755 0.46247 0.0
C643 C 0.60011 0.81292 0.48494 0.0
C644 C 0.74164 0.93731 0.37206 0.0
C645 C 0.67746 0.86238 0.43615 0.0
H646 H 0.65924 0.85656 0.24591 0.0
H647 H 0.75775 0.91846 0.19765 0.0
H648 H 0.76339 0.9298 0.27137 0.0
H649 H 0.79327 0.94614 0.23089 0.0
H650 H 0.70754 0.87409 0.47904 0.0
H651 H 0.60432 0.80797 0.52254 0.0
H652 H 0.60294 0.82166 0.44696 0.0
H653 H 0.57017 0.79583 0.48652 0.0
Eu654 Eu 0.17717 0.83386 0.40012 0.0
C655 C 0.10078 0.88356 0.321 0.0
C656 C 0.03731 0.8354 0.32563 0.0
C657 C 0.04934 0.89466 0.31181 0.0
C658 C 0.07594 0.84829 0.32737 0.0
C659 C 0.08789 0.90698 0.31236 0.0
C660 C 0.02407 0.85892 0.31849 0.0
C661 C 0.15218 0.95188 0.30271 0.0
N662 N 0.13779 0.89451 0.32155 0.0
C663 C 0.16351 0.92756 0.31133 0.0
C664 C 0.1142 0.94173 0.30365 0.0
Eu665 Eu 0.155 0.85245 0.33747 0.0
N666 N 0.08972 0.82628 0.33394 0.0
C667 C 0.06675 0.79078 0.33698 0.0
C668 C 0.01331 0.79916 0.33037 0.0
C669 C 0.02819 0.77672 0.33563 0.0
H670 H 0.19286 0.93524 0.31041 0.0
H671 H 0.00997 0.74861 0.3388 0.0
H672 H 0.99446 0.84958 0.31735 0.0
H673 H 0.1727 0.97835 0.29529 0.0
H674 H 0.07783 0.77315 0.34124 0.0
H675 H 0.31828 0.94349 0.40351 0.0
H676 H 0.98345 0.78822 0.32935 0.0
H677 H 0.14441 0.75046 0.42462 0.0
H678 H 0.25068 0.91558 0.39987 0.0
H679 H 0.16844 0.70983 0.43817 0.0
H680 H 0.03885 0.91233 0.30553 0.0
H681 H 0.34891 0.90712 0.4113 0.0
H682 H 0.34258 0.84707 0.42054 0.0
H683 H 0.10545 0.96053 0.29682 0.0
H684 H 0.3017 0.7832 0.42994 0.0
N685 N 0.24243 0.86341 0.40502 0.0
C686 C 0.26325 0.8991 0.40341 0.0
C687 C 0.31903 0.89458 0.40979 0.0
C688 C 0.29724 0.85803 0.41301 0.0
C689 C 0.30182 0.91518 0.40547 0.0
C690 C 0.25846 0.84306 0.41077 0.0
H691 H 0.2366 0.73181 0.43711 0.0
N692 N 0.19833 0.79431 0.41521 0.0
C693 C 0.18769 0.73713 0.43179 0.0
C694 C 0.23565 0.80728 0.41591 0.0
C695 C 0.17419 0.76014 0.42419 0.0
C696 C 0.22616 0.74961 0.43108 0.0
C697 C 0.2507 0.78526 0.42359 0.0
O698 O 0.14488 0.81019 0.4346 0.0
O699 O 0.13479 0.83462 0.37608 0.0
O700 O 0.16015 0.89715 0.35614 0.0
O701 O 0.18691 0.88999 0.39157 0.0
O702 O 0.11629 0.79226 0.40271 0.0
O703 O 0.18174 0.86612 0.42771 0.0
O704 O 0.19432 0.86961 0.30613 0.0
O705 O 0.19692 0.85124 0.36172 0.0
O706 O 0.17505 0.79138 0.38009 0.0
O707 O 0.14444 0.79612 0.34606 0.0
O708 O 0.21572 0.89422 0.33526 0.0
O709 O 0.14067 0.82381 0.30646 0.0
C710 C 0.10611 0.80727 0.38563 0.0
C711 C 0.17293 0.83916 0.4675 0.0
C712 C 0.16929 0.84589 0.50968 0.0
C713 C 0.15543 0.84459 0.48678 0.0
C714 C 0.20093 0.8415 0.51268 0.0
C715 C 0.20408 0.83455 0.47115 0.0
C716 C 0.2179 0.83564 0.49363 0.0
C717 C 0.1764 0.90803 0.37593 0.0
C718 C 0.15948 0.83964 0.44346 0.0
C719 C 0.28952 0.79973 0.42443 0.0
C720 C 0.31278 0.8361 0.41912 0.0
C721 C 0.22539 0.87915 0.35267 0.0
C722 C 0.17008 0.85728 0.2687 0.0
C723 C 0.18636 0.84906 0.25012 0.0
C724 C 0.1881 0.86352 0.22599 0.0
C725 C 0.17379 0.88695 0.22136 0.0
C726 C 0.15418 0.87886 0.26303 0.0
C727 C 0.15644 0.89389 0.23959 0.0
C728 C 0.15782 0.77966 0.36077 0.0
C729 C 0.17198 0.84534 0.294 0.0
H730 H 0.13114 0.8478 0.48385 0.0
H731 H 0.2133 0.84336 0.52965 0.0
H732 H 0.21797 0.83051 0.45656 0.0
H733 H 0.24223 0.83243 0.49623 0.0
H734 H 0.19735 0.83134 0.25467 0.0
H735 H 0.17602 0.90039 0.20365 0.0
H736 H 0.14051 0.8846 0.27674 0.0
H737 H 0.14501 0.91138 0.23554 0.0
Eu738 Eu 0.82974 0.65848 0.665 0.0
C739 C 0.9073 0.77851 0.72476 0.0
C740 C 0.96899 0.78426 0.72459 0.0
C741 C 0.96174 0.83565 0.72599 0.0
C742 C 0.92997 0.76356 0.72383 0.0
C743 C 0.92282 0.81459 0.72647 0.0
C744 C 0.9848 0.8205 0.72507 0.0
C745 C 0.86022 0.80574 0.73129 0.0
N746 N 0.86989 0.75743 0.72529 0.0
C747 C 0.84624 0.77014 0.7297 0.0
C748 C 0.89872 0.82821 0.72929 0.0
Eu749 Eu 0.84771 0.69761 0.72084 0.0
N750 N 0.91381 0.72857 0.72291 0.0
C751 C 0.93506 0.71229 0.72454 0.0
C752 C 0.9909 0.76785 0.72527 0.0
C753 C 0.97376 0.73161 0.72562 0.0
H754 H 0.81636 0.75283 0.73139 0.0
H755 H 0.99038 0.71853 0.72651 0.0
H756 H 0.01474 0.83688 0.72523 0.0
H757 H 0.84129 0.81579 0.73411 0.0
H758 H 0.92271 0.68446 0.7248 0.0
H759 H 0.69948 0.66083 0.64651 0.0
H760 H 0.02093 0.7828 0.72586 0.0
H761 H 0.84124 0.58557 0.66897 0.0
H762 H 0.76678 0.68528 0.64721 0.0
H763 H 0.8036 0.52212 0.68046 0.0
H764 H 0.9742 0.86348 0.72696 0.0
H765 H 0.65737 0.59757 0.65914 0.0
H766 H 0.64957 0.53841 0.67389 0.0
H767 H 0.90953 0.85577 0.73064 0.0
H768 H 0.67783 0.50095 0.68431 0.0
N769 N 0.7644 0.63688 0.66149 0.0
C770 C 0.74949 0.65781 0.65346 0.0
C771 C 0.68728 0.60821 0.65965 0.0
C772 C 0.70251 0.58653 0.66685 0.0
C773 C 0.71092 0.64392 0.65263 0.0
C774 C 0.74173 0.60169 0.66723 0.0
H775 H 0.73504 0.49459 0.68686 0.0
N776 N 0.79546 0.59564 0.67241 0.0
C777 C 0.79028 0.53827 0.67906 0.0
C778 C 0.75766 0.58061 0.67329 0.0
C779 C 0.81169 0.57465 0.67319 0.0
C780 C 0.75164 0.52284 0.68254 0.0
C781 C 0.73474 0.54384 0.67883 0.0
O782 O 0.85512 0.64612 0.63657 0.0
O783 O 0.86778 0.70358 0.68325 0.0
O784 O 0.829 0.72958 0.69523 0.0
O785 O 0.82755 0.7098 0.6584 0.0
O786 O 0.89345 0.68885 0.65945 0.0
O787 O 0.82194 0.67125 0.62742 0.0
O788 O 0.81931 0.69617 0.75404 0.0
O789 O 0.80723 0.65199 0.70305 0.0
O790 O 0.86046 0.63595 0.68671 0.0
O791 O 0.8562 0.64944 0.72472 0.0
O792 O 0.78644 0.67904 0.72052 0.0
O793 O 0.85363 0.67124 0.75445 0.0
C794 C 0.89922 0.71106 0.67398 0.0
C795 C 0.82542 0.63477 0.60076 0.0
C796 C 0.82319 0.62807 0.55837 0.0
C797 C 0.83435 0.64961 0.57661 0.0
C798 C 0.80317 0.59136 0.56499 0.0
C799 C 0.80439 0.59824 0.60674 0.0
C800 C 0.79351 0.57671 0.58892 0.0
C801 C 0.82447 0.73099 0.67202 0.0
C802 C 0.84092 0.65742 0.61947 0.0
C803 C 0.69577 0.529 0.67966 0.0
C804 C 0.67969 0.5503 0.67363 0.0
C805 C 0.77762 0.65231 0.70955 0.0
C806 C 0.8473 0.69157 0.78993 0.0
C807 C 0.84074 0.66651 0.80988 0.0
C808 C 0.85103 0.6766 0.83261 0.0
C809 C 0.86928 0.71276 0.83455 0.0
C810 C 0.86603 0.72731 0.79228 0.0
C811 C 0.87708 0.73776 0.8145 0.0
C812 C 0.86343 0.63209 0.70982 0.0
C813 C 0.83329 0.67947 0.76712 0.0
H814 H 0.84986 0.67791 0.57217 0.0
H815 H 0.795 0.57374 0.5517 0.0
H816 H 0.79708 0.58627 0.62516 0.0
H817 H 0.77788 0.54849 0.59369 0.0
H818 H 0.82725 0.63908 0.80752 0.0
H819 H 0.87678 0.72197 0.85161 0.0
H820 H 0.87169 0.74703 0.77705 0.0
H821 H 0.89109 0.76538 0.81632 0.0
Eu822 Eu 0.37035 0.20609 0.66225 0.0
C823 C 0.23763 0.14051 0.74115 0.0
C824 C 0.22126 0.18652 0.74069 0.0
C825 C 0.17345 0.12555 0.75118 0.0
C826 C 0.24789 0.17561 0.73723 0.0
C827 C 0.20054 0.11508 0.74887 0.0
C828 C 0.18379 0.16125 0.74704 0.0
C829 C 0.22068 0.07149 0.75376 0.0
N830 N 0.26455 0.13144 0.73894 0.0
C831 C 0.25708 0.09777 0.74614 0.0
C832 C 0.19212 0.08008 0.75477 0.0
Eu833 Eu 0.32505 0.17648 0.72421 0.0
N834 N 0.28437 0.19921 0.73138 0.0
C835 C 0.29664 0.23427 0.73074 0.0
C836 C 0.23332 0.22249 0.7384 0.0
C837 C 0.27129 0.24644 0.73383 0.0
H838 H 0.27911 0.09106 0.74523 0.0
H839 H 0.28107 0.27431 0.73256 0.0
H840 H 0.16285 0.16909 0.7495 0.0
H841 H 0.21467 0.04465 0.75879 0.0
H842 H 0.32579 0.25319 0.72704 0.0
H843 H 0.4127 0.11 0.64532 0.0
H844 H 0.21375 0.23197 0.74079 0.0
H845 H 0.41833 0.29381 0.64944 0.0
H846 H 0.36845 0.13048 0.65464 0.0
H847 H 0.48336 0.34061 0.63793 0.0
H848 H 0.1447 0.10638 0.75681 0.0
H849 H 0.48001 0.15251 0.63733 0.0
H850 H 0.53136 0.21525 0.63182 0.0
H851 H 0.16397 0.05973 0.76077 0.0
H852 H 0.55059 0.27795 0.62975 0.0
N853 N 0.41031 0.18403 0.65248 0.0
C854 C 0.39768 0.14937 0.65106 0.0
C855 C 0.46068 0.16169 0.64135 0.0
C856 C 0.47312 0.19743 0.64151 0.0
C857 C 0.4227 0.13763 0.64579 0.0
C858 C 0.44684 0.20797 0.64698 0.0
H859 H 0.53283 0.32494 0.63171 0.0
N860 N 0.43138 0.25244 0.65033 0.0
C861 C 0.47656 0.31334 0.64023 0.0
C862 C 0.4577 0.24324 0.64587 0.0
C863 C 0.43983 0.28687 0.64667 0.0
C864 C 0.50441 0.30438 0.63677 0.0
C865 C 0.49508 0.26897 0.63921 0.0
O866 O 0.35563 0.23188 0.63228 0.0
O867 O 0.32381 0.19832 0.68684 0.0
O868 O 0.28619 0.13536 0.70206 0.0
O869 O 0.32365 0.14854 0.66666 0.0
O870 O 0.35024 0.24547 0.66435 0.0
O871 O 0.35389 0.18248 0.62931 0.0
O872 O 0.33967 0.15311 0.75582 0.0
O873 O 0.36965 0.18207 0.69902 0.0
O874 O 0.41128 0.24055 0.68685 0.0
O875 O 0.37035 0.2348 0.71797 0.0
O876 O 0.34552 0.13691 0.72335 0.0
O877 O 0.3474 0.20546 0.75436 0.0
C878 C 0.32274 0.22614 0.68004 0.0
C879 C 0.36552 0.22186 0.5936 0.0
C880 C 0.3553 0.22341 0.55094 0.0
C881 C 0.34245 0.20861 0.57496 0.0
C882 C 0.39196 0.2517 0.54616 0.0
C883 C 0.40213 0.24942 0.58826 0.0
C884 C 0.41519 0.26423 0.56465 0.0
C885 C 0.2931 0.12801 0.68115 0.0
C886 C 0.35002 0.20836 0.6185 0.0
C887 C 0.52166 0.25858 0.63467 0.0
C888 C 0.51071 0.22287 0.63584 0.0
C889 C 0.37064 0.1543 0.70597 0.0
C890 C 0.33586 0.17209 0.7925 0.0
C891 C 0.36165 0.18173 0.81015 0.0
C892 C 0.34951 0.17531 0.83453 0.0
C893 C 0.31084 0.15839 0.84079 0.0
C894 C 0.29758 0.15537 0.7992 0.0
C895 C 0.28521 0.14842 0.82325 0.0
C896 C 0.40352 0.25146 0.70581 0.0
C897 C 0.34946 0.17988 0.76722 0.0
H898 H 0.31451 0.18676 0.57932 0.0
H899 H 0.40276 0.26459 0.52815 0.0
H900 H 0.42037 0.25994 0.6023 0.0
H901 H 0.44331 0.28587 0.56067 0.0
H902 H 0.39118 0.19428 0.80479 0.0
H903 H 0.30029 0.15363 0.85918 0.0
H904 H 0.27732 0.14785 0.78588 0.0
H905 H 0.2556 0.13566 0.82832 0.0
Eu906 Eu 0.85353 0.16486 0.73163 0.0
C907 C 0.75987 0.20914 0.66275 0.0
C908 C 0.69994 0.15656 0.66437 0.0
C909 C 0.70347 0.21377 0.65833 0.0
C910 C 0.73898 0.17306 0.66573 0.0
C911 C 0.74253 0.23 0.65846 0.0
C912 C 0.6822 0.17708 0.66126 0.0
C913 C 0.80388 0.28116 0.65266 0.0
N914 N 0.79746 0.22385 0.66278 0.0
C915 C 0.81972 0.25928 0.65685 0.0
C916 C 0.76507 0.26649 0.65378 0.0
Eu917 Eu 0.82242 0.18565 0.67241 0.0
N918 N 0.75709 0.15414 0.66869 0.0
C919 C 0.73817 0.11874 0.66838 0.0
C920 C 0.68009 0.12004 0.66554 0.0
C921 C 0.6994 0.10112 0.66712 0.0
H922 H 0.84975 0.27068 0.65625 0.0
H923 H 0.68444 0.07293 0.66755 0.0
H924 H 0.6522 0.16489 0.66046 0.0
H925 H 0.82159 0.30929 0.64863 0.0
H926 H 0.75259 0.10372 0.66979 0.0
H927 H 0.994 0.27004 0.74216 0.0
H928 H 0.65006 0.10633 0.66467 0.0
H929 H 0.81912 0.0776 0.74498 0.0
H930 H 0.92676 0.24389 0.7367 0.0
H931 H 0.8423 0.03545 0.75383 0.0
H932 H 0.68956 0.22933 0.65533 0.0
H933 H 0.02349 0.23238 0.74729 0.0
H934 H 0.01617 0.17181 0.7517 0.0
H935 H 0.75284 0.28347 0.65044 0.0
H936 H 0.97487 0.10797 0.75496 0.0
N937 N 0.91806 0.19193 0.73807 0.0
C938 C 0.93911 0.22707 0.73895 0.0
C939 C 0.99386 0.22071 0.74496 0.0
C940 C 0.97175 0.18446 0.74538 0.0
C941 C 0.97732 0.24204 0.74209 0.0
C942 C 0.93334 0.17065 0.74212 0.0
H943 H 0.90997 0.0569 0.75614 0.0
N944 N 0.87318 0.12258 0.74182 0.0
C945 C 0.86173 0.06334 0.75102 0.0
C946 C 0.91019 0.13484 0.74402 0.0
C947 C 0.84868 0.08734 0.74608 0.0
C948 C 0.89995 0.07555 0.75226 0.0
C949 C 0.92468 0.11169 0.74909 0.0
O950 O 0.81616 0.14028 0.76392 0.0
O951 O 0.80669 0.16264 0.71071 0.0
O952 O 0.82001 0.22105 0.69785 0.0
O953 O 0.86273 0.22088 0.72506 0.0
O954 O 0.795 0.11849 0.73454 0.0
O955 O 0.86328 0.19221 0.76304 0.0
O956 O 0.85145 0.21326 0.63744 0.0
O957 O 0.86887 0.1893 0.6937 0.0
O958 O 0.8617 0.13365 0.70541 0.0
O959 O 0.81768 0.13098 0.67846 0.0
O960 O 0.88181 0.23147 0.66767 0.0
O961 O 0.81931 0.15676 0.6429 0.0
C962 C 0.7811 0.13253 0.71938 0.0
C963 C 0.84034 0.15639 0.80075 0.0
C964 C 0.82934 0.15561 0.84356 0.0
C965 C 0.82797 0.1676 0.81944 0.0
C966 C 0.84367 0.13227 0.84833 0.0
C967 C 0.85519 0.13384 0.80608 0.0
C968 C 0.85681 0.12189 0.82976 0.0
C969 C 0.84322 0.23486 0.71455 0.0
C970 C 0.83484 0.1662 0.77588 0.0
C971 C 0.96315 0.12532 0.75131 0.0
C972 C 0.98666 0.16166 0.74946 0.0
C973 C 0.89498 0.21834 0.684 0.0
C974 C 0.82454 0.18548 0.60385 0.0
C975 C 0.84601 0.1897 0.58283 0.0
C976 C 0.83143 0.18966 0.56019 0.0
C977 C 0.79484 0.18471 0.55932 0.0
C978 C 0.78862 0.18132 0.60218 0.0
C979 C 0.77388 0.18082 0.58006 0.0
C980 C 0.8399 0.11952 0.68818 0.0
C981 C 0.83923 0.18478 0.62755 0.0
H982 H 0.81724 0.1856 0.81503 0.0
H983 H 0.84431 0.12144 0.86641 0.0
H984 H 0.86479 0.1249 0.79195 0.0
H985 H 0.86778 0.10401 0.83377 0.0
H986 H 0.87395 0.19328 0.58415 0.0
H987 H 0.78194 0.18328 0.54257 0.0
H988 H 0.7718 0.17812 0.61803 0.0
H989 H 0.7459 0.17714 0.57897 0.0
H990 H 0.3297 0.82853 0.08012 0.0
H991 H 0.26518 0.88089 0.08647 0.0
H992 H 0.32138 0.93791 0.07614 0.0
H993 H 0.38944 0.97323 0.06447 0.0
H994 H 0.45196 0.91997 0.0546 0.0
H995 H 0.3962 0.86324 0.0659 0.0
C996 C 0.32781 0.85238 0.07895 0.0
C997 C 0.2931 0.85021 0.0844 0.0
C998 C 0.35999 0.88504 0.07183 0.0
C999 C 0.29149 0.88158 0.08318 0.0
C1000 C 0.32364 0.91427 0.07687 0.0
C1001 C 0.39064 0.94912 0.06454 0.0
C1002 C 0.42479 0.95087 0.058 0.0
C1003 C 0.35808 0.91637 0.07106 0.0
C1004 C 0.426 0.91943 0.05867 0.0
C1005 C 0.39408 0.88692 0.06547 0.0
H1006 H 0.18532 0.48893 0.05169 0.0
H1007 H 0.11125 0.37751 0.05898 0.0
H1008 H 0.0588 0.3873 0.04879 0.0
H1009 H 0.0332 0.42773 0.04272 0.0
H1010 H 0.1076 0.53934 0.03433 0.0
H1011 H 0.16119 0.52962 0.03947 0.0
C1012 C 0.15789 0.46695 0.0503 0.0
C1013 C 0.15168 0.43259 0.05642 0.0
C1014 C 0.1281 0.47289 0.04444 0.0
C1015 C 0.11615 0.40413 0.05478 0.0
C1016 C 0.08633 0.40974 0.04897 0.0
C1017 C 0.0613 0.44981 0.04162 0.0
C1018 C 0.06673 0.48409 0.03808 0.0
C1019 C 0.09177 0.44399 0.04462 0.0
C1020 C 0.103 0.51271 0.03676 0.0
C1021 C 0.13354 0.50716 0.03983 0.0
H1022 H 0.5024 0.70263 0.07291 0.0
H1023 H 0.61123 0.72513 0.09482 0.0
H1024 H 0.60217 0.66986 0.08346 0.0
H1025 H 0.56291 0.6146 0.06838 0.0
H1026 H 0.45509 0.59213 0.04423 0.0
H1027 H 0.46425 0.64805 0.0549 0.0
C1028 C 0.52415 0.69545 0.07491 0.0
C1029 C 0.55717 0.71755 0.08514 0.0
C1030 C 0.5189 0.66368 0.06795 0.0
C1031 C 0.58527 0.7081 0.08757 0.0
C1032 C 0.58016 0.67662 0.08096 0.0
C1033 C 0.5413 0.62179 0.06548 0.0
C1034 C 0.50818 0.59895 0.05577 0.0
C1035 C 0.54694 0.65401 0.07142 0.0
C1036 C 0.48086 0.60918 0.05169 0.0
C1037 C 0.48605 0.64113 0.05786 0.0
H1038 H 0.85003 0.29904 0.01454 0.0
H1039 H 0.82615 0.33759 0.94714 0.0
H1040 H 0.86862 0.39826 0.95341 0.0
H1041 H 0.91485 0.44053 0.97764 0.0
H1042 H 0.93648 0.40167 0.04584 0.0
H1043 H 0.89265 0.34136 0.04004 0.0
C1044 C 0.85347 0.32084 1.00159 0.0
C1045 C 0.83471 0.31397 0.98053 0.0
C1046 C 0.87785 0.35566 1.00543 0.0
C1047 C 0.84017 0.34238 0.96353 0.0
C1048 C 0.86456 0.37701 0.96708 0.0
C1049 C 0.90976 0.41877 0.99119 0.0
C1050 C 0.92867 0.42548 1.01221 0.0
C1051 C 0.884 0.38402 0.98783 0.0
C1052 C 0.9218 0.39716 0.02971 0.0
C1053 C 0.89686 0.36263 0.02633 0.0
H1054 H 0.72612 0.60453 0.99924 0.0
H1055 H 0.69119 0.49437 1.00752 0.0
H1056 H 0.62838 0.48019 0.02236 0.0
H1057 H 0.58197 0.49935 0.02731 0.0
H1058 H 0.61556 0.6095 0.01495 0.0
H1059 H 0.68054 0.62395 1.00693 0.0
C1060 C 0.70462 0.57754 1.00456 0.0
C1061 C 0.71243 0.5504 1.00202 0.0
C1062 C 0.66854 0.5698 1.01192 0.0
C1063 C 0.68517 0.51544 1.00925 0.0
C1064 C 0.64944 0.50744 0.01752 0.0
C1065 C 0.60374 0.52651 0.02348 0.0
C1066 C 0.59449 0.55347 0.02205 0.0
C1067 C 0.64053 0.53439 0.01812 0.0
C1068 C 0.62247 0.58852 0.01632 0.0
C1069 C 0.65943 0.59671 1.01171 0.0
H1070 H 0.45435 0.18626 1.01064 0.0
H1071 H 0.49472 0.19837 0.93797 0.0
H1072 H 0.50363 0.14705 0.94745 0.0
H1073 H 0.50408 0.10107 0.97739 0.0
H1074 H 0.46809 0.09258 0.05066 0.0
H1075 H 0.45428 0.14049 0.0403 0.0
C1076 C 0.46524 0.17769 0.99694 0.0
C1077 C 0.474 0.19615 0.97367 0.0
C1078 C 0.47157 0.14906 1.00278 0.0
C1079 C 0.48738 0.18438 0.95593 0.0
C1080 C 0.4928 0.15524 0.96143 0.0
C1081 C 0.49289 0.10957 0.99099 0.0
C1082 C 0.4875 0.09356 0.01485 0.0
C1083 C 0.48554 0.13766 0.9849 0.0
C1084 C 0.47325 0.10496 0.03232 0.0
C1085 C 0.46508 0.1322 0.02635 0.0
H1086 H 0.7008 0.20555 0.98462 0.0
H1087 H 0.77146 0.15891 0.98027 0.0
H1088 H 0.71746 0.10041 0.99026 0.0
H1089 H 0.64962 0.06207 1.00105 0.0
H1090 H 0.58079 0.10956 1.01027 0.0
H1091 H 0.6343 0.16782 0.99839 0.0
C1092 C 0.70451 0.18265 0.98621 0.0
C1093 C 0.74029 0.18684 0.98128 0.0
C1094 C 0.67348 0.14907 0.9931 0.0
C1095 C 0.74427 0.15664 0.9831 0.0
C1096 C 0.71336 0.12309 0.98916 0.0
C1097 C 0.64649 0.08525 1.00052 0.0
C1098 C 0.61132 0.08141 1.00688 0.0
C1099 C 0.67777 0.11892 0.9942 0.0
C1100 C 0.60759 0.11168 1.00592 0.0
C1101 C 0.63822 0.14508 0.999 0.0
H1102 H 0.86996 0.61082 0.99188 0.0
H1103 H 0.80407 0.50249 0.98258 0.0
H1104 H 0.8556 0.49165 0.9941 0.0
H1105 H 0.91992 0.51383 1.00605 0.0
H1106 H 0.98858 0.62417 1.0098 0.0
H1107 H 0.93568 0.63396 1.00111 0.0
C1108 C 0.86768 0.58532 0.99141 0.0
C1109 C 0.8343 0.55778 0.98544 0.0
C1110 C 0.89755 0.57968 0.99757 0.0
C1111 C 0.8303 0.52414 0.98641 0.0
C1112 C 0.85947 0.51796 0.99323 0.0
C1113 C 0.92296 0.53985 1.00536 0.0
C1114 C 0.95745 0.56813 1.00932 0.0
C1115 C 0.89321 0.54556 0.9989 0.0
C1116 C 0.9618 0.60201 1.00736 0.0
C1117 C 0.93177 0.60762 1.00221 0.0
H1118 H 0.46573 0.29183 0.01609 0.0
H1119 H 0.51122 0.34441 0.94505 0.0
H1120 H 0.52187 0.40014 0.95677 0.0
H1121 H 0.51553 0.4334 0.98696 0.0
H1122 H 0.47183 0.38114 0.05834 0.0
H1123 H 0.46394 0.32615 0.04713 0.0
C1124 C 0.47857 0.31566 1.00338 0.0
C1125 C 0.48731 0.31403 0.97969 0.0
C1126 C 0.48496 0.34767 1.01036 0.0
C1127 C 0.50372 0.34502 0.96327 0.0
C1128 C 0.50988 0.37684 0.96999 0.0
C1129 C 0.50455 0.40996 1.00005 0.0
C1130 C 0.49472 0.41136 0.02355 0.0
C1131 C 0.50008 0.3784 0.9934 0.0
C1132 C 0.48056 0.38094 0.04037 0.0
C1133 C 0.47564 0.34937 0.03386 0.0
H1134 H 0.18229 0.7472 0.04564 0.0
H1135 H 0.19687 0.69807 0.1121 0.0
H1136 H 0.15267 0.64 0.10208 0.0
H1137 H 0.10786 0.60315 0.0748 0.0
H1138 H 0.09638 0.65224 1.00724 0.0
H1139 H 0.1417 0.71005 0.01683 0.0
C1140 C 0.17653 0.72369 0.05756 0.0
C1141 C 0.19311 0.72685 0.07948 0.0
C1142 C 0.1515 0.69034 0.05145 0.0
C1143 C 0.18451 0.6962 0.09512 0.0
C1144 C 0.15921 0.66305 0.0894 0.0
C1145 C 0.11561 0.62656 0.06216 0.0
C1146 C 0.09908 0.62347 0.04024 0.0
C1147 C 0.14216 0.65977 0.06772 0.0
C1148 C 0.10928 0.65391 0.02399 0.0
C1149 C 0.13499 0.68702 0.02957 0.0
H1150 H 0.26568 0.39126 0.0765 0.0
H1151 H 0.29243 0.49939 0.06977 0.0
H1152 H 0.35878 0.51833 0.0615 0.0
H1153 H 0.40894 0.50364 0.0565 0.0
H1154 H 0.38217 0.3952 0.06419 0.0
H1155 H 0.31595 0.37649 0.07203 0.0
C1156 C 0.28631 0.41886 0.07379 0.0
C1157 C 0.27476 0.444 0.07411 0.0
C1158 C 0.32412 0.42934 0.06898 0.0
C1159 C 0.30121 0.4798 0.0698 0.0
C1160 C 0.33892 0.49053 0.065 0.0
C1161 C 0.38845 0.47596 0.0595 0.0
C1162 C 0.39995 0.45071 0.0591 0.0
C1163 C 0.35066 0.4655 0.06443 0.0
C1164 C 0.37353 0.41494 0.06393 0.0
C1165 C 0.33584 0.40429 0.06854 0.0
H1166 H 0.51507 0.81009 0.0761 0.0
H1167 H 0.62477 0.86978 0.10019 0.0
H1168 H 0.62247 0.92429 0.08867 0.0
H1169 H 0.58958 0.95536 0.06979 0.0
H1170 H 0.4842 0.89376 0.04025 0.0
H1171 H 0.48506 0.8403 0.05503 0.0
C1172 C 0.53872 0.83507 0.07853 0.0
C1173 C 0.56987 0.8357 0.08911 0.0
C1174 C 0.53808 0.86625 0.07061 0.0
C1175 C 0.60001 0.86831 0.09259 0.0
C1176 C 0.59888 0.89959 0.08572 0.0
C1177 C 0.56686 0.93021 0.06666 0.0
C1178 C 0.53665 0.92889 0.05414 0.0
C1179 C 0.5681 0.89896 0.07448 0.0
C1180 C 0.50773 0.89597 0.04994 0.0
C1181 C 0.5081 0.86511 0.05841 0.0
H1182 H 1.00421 0.17485 0.41771 0.0
H1183 H 0.9427 0.22884 0.42852 0.0
H1184 H 0.99971 0.28548 0.4188 0.0
H1185 H 0.06739 0.32011 0.40585 0.0
H1186 H 0.12755 0.26557 0.39315 0.0
H1187 H 0.07127 0.20921 0.40423 0.0
C1188 C 1.00326 0.19902 0.41783 0.0
C1189 C 0.96905 0.19743 0.42406 0.0
C1190 C 0.03607 0.23159 0.41148 0.0
C1191 C 0.9686 0.22913 0.42442 0.0
C1192 C 1.00122 0.2616 0.41852 0.0
C1193 C 0.06804 0.29584 0.40537 0.0
C1194 C 0.10173 0.29724 0.398 0.0
C1195 C 0.03513 0.26324 0.41182 0.0
C1196 C 0.10213 0.26548 0.39807 0.0
C1197 C 0.06982 0.2331 0.40462 0.0
H1198 H 0.85501 0.82972 0.39119 0.0
H1199 H 0.77656 0.71944 0.39698 0.0
H1200 H 0.72637 0.73231 0.38618 0.0
H1201 H 0.70373 0.77481 0.38 0.0
H1202 H 0.78159 0.88541 0.37434 0.0
H1203 H 0.83339 0.87296 0.37999 0.0
C1204 C 0.82708 0.80876 0.3894 0.0
C1205 C 0.819 0.77376 0.395 0.0
C1206 C 0.79839 0.81648 0.38358 0.0
C1207 C 0.7829 0.74652 0.39286 0.0
C1208 C 0.75434 0.75388 0.38683 0.0
C1209 C 0.73217 0.7961 0.37967 0.0
C1210 C 0.73914 0.83085 0.37661 0.0
C1211 C 0.76153 0.7887 0.38299 0.0
C1212 C 0.77586 0.85843 0.37636 0.0
C1213 C 0.80536 0.85131 0.3797 0.0
H1214 H 0.23061 0.06842 0.37981 0.0
H1215 H 0.19295 0.02894 0.45368 0.0
H1216 H 0.17389 0.969 0.44606 0.0
H1217 H 0.1691 0.9281 0.41822 0.0
H1218 H 0.20547 0.96788 0.3441 0.0
H1219 H 0.22296 0.02714 0.35161 0.0
C1220 C 0.21762 0.04648 0.39405 0.0
C1221 C 0.21283 0.05273 0.41719 0.0
C1222 C 0.20634 1.01221 0.3894 0.0
C1223 C 0.19673 0.02443 0.43573 0.0
C1224 C 0.18588 0.99031 0.43136 0.0
C1225 C 0.18064 0.94978 0.40374 0.0
C1226 C 0.18532 0.94353 0.38052 0.0
C1227 C 0.19073 0.98389 0.40827 0.0
C1228 C 0.20041 0.97179 0.36191 0.0
C1229 C 0.21089 1.0058 0.36629 0.0
H1230 H 0.48307 0.67794 0.32722 0.0
H1231 H 0.56241 0.64323 0.31418 0.0
H1232 H 0.61355 0.69903 0.32266 0.0
H1233 H 0.63627 0.75851 0.33351 0.0
H1234 H 0.5562 0.7906 0.35113 0.0
H1235 H 0.50526 0.73556 0.34145 0.0
C1236 C 0.5115 0.6825 0.32654 0.0
C1237 C 0.51891 0.65666 0.31949 0.0
C1238 C 0.54085 0.71448 0.33216 0.0
C1239 C 0.556 0.663 0.31883 0.0
C1240 C 0.58529 0.6949 0.32382 0.0
C1241 C 0.60769 0.75351 0.33503 0.0
C1242 C 0.60023 0.77903 0.34258 0.0
C1243 C 0.57819 0.72107 0.33025 0.0
C1244 C 0.56287 0.77168 0.34508 0.0
C1245 C 0.53361 0.74007 0.33962 0.0
H1246 H 0.39369 0.92606 0.32987 0.0
H1247 H 0.35078 0.81454 0.34176 0.0
H1248 H 0.28947 0.80542 0.35583 0.0
H1249 H 0.24654 0.8293 0.35862 0.0
H1250 H 0.28907 0.94102 0.34418 0.0
H1251 H 0.35232 0.9504 0.33694 0.0
C1252 C 0.37095 0.89997 0.33614 0.0
C1253 C 0.37597 0.87093 0.33479 0.0
C1254 C 0.33586 0.89513 0.34322 0.0
C1255 C 0.34691 0.83703 0.34274 0.0
C1256 C 0.31203 0.83193 0.35053 0.0
C1257 C 0.26986 0.85569 0.35451 0.0
C1258 C 0.26357 0.88454 0.35225 0.0
C1259 C 0.30585 0.86074 0.34994 0.0
C1260 C 0.29364 0.91858 0.34621 0.0
C1261 C 0.32965 0.92391 0.34206 0.0
H1262 H 0.11633 0.52058 0.3425 0.0
H1263 H 0.16289 0.53729 0.27086 0.0
H1264 H 0.1756 0.48823 0.28066 0.0
H1265 H 0.17805 0.44347 0.31095 0.0
H1266 H 0.13397 0.42963 0.38299 0.0
H1267 H 0.11637 0.47487 0.37206 0.0
C1268 C 0.1292 0.51334 0.32909 0.0
C1269 C 0.13888 0.53255 0.30607 0.0
C1270 C 0.13735 0.48591 0.3351 0.0
C1271 C 0.15496 0.52267 0.28865 0.0
C1272 C 0.1625 0.49483 0.29433 0.0
C1273 C 0.16421 0.45021 0.3241 0.0
C1274 C 0.15792 0.43379 0.34787 0.0
C1275 C 0.15445 0.47665 0.31765 0.0
C1276 C 0.14004 0.44265 0.36479 0.0
C1277 C 0.12969 0.46831 0.35849 0.0
H1278 H 0.42091 0.50349 0.31887 0.0
H1279 H 0.374 0.57212 0.3204 0.0
H1280 H 0.31212 0.5215 0.3325 0.0
H1281 H 0.27084 0.45702 0.34229 0.0
H1282 H 0.31827 0.38878 0.33976 0.0
H1283 H 0.37985 0.43943 0.32782 0.0
C1284 C 0.39704 0.5073 0.32137 0.0
C1285 C 0.40204 0.54157 0.31845 0.0
C1286 C 0.36145 0.47796 0.32816 0.0
C1287 C 0.37087 0.54602 0.32255 0.0
C1288 C 0.33546 0.51705 0.32938 0.0
C1289 C 0.29479 0.45337 0.33935 0.0
C1290 C 0.29015 0.41916 0.34253 0.0
C1291 C 0.33032 0.4828 0.33227 0.0
C1292 C 0.32122 0.41482 0.33785 0.0
C1293 C 0.35647 0.4438 0.33098 0.0
H1294 H 0.52895 0.93779 0.32364 0.0
H1295 H 0.47804 0.8298 0.31246 0.0
H1296 H 0.53478 0.82757 0.3233 0.0
H1297 H 0.59867 0.85684 0.33558 0.0
H1298 H 0.65268 0.96668 0.34264 0.0
H1299 H 0.59505 0.96835 0.33353 0.0
C1300 C 0.53095 0.91419 0.32309 0.0
C1301 C 0.50026 0.8842 0.31679 0.0
C1302 C 0.56377 0.91348 0.32893 0.0
C1303 C 0.50204 0.85324 0.31675 0.0
C1304 C 0.53418 0.85195 0.32315 0.0
C1305 C 0.5975 0.88086 0.33575 0.0
C1306 C 0.62905 0.9112 0.34091 0.0
C1307 C 0.5651 0.88188 0.3294 0.0
C1308 C 0.62815 0.94283 0.33941 0.0
C1309 C 0.5954 0.94379 0.33408 0.0
H1310 H 0.12663 0.62697 0.34853 0.0
H1311 H 0.17132 0.67851 0.27715 0.0
H1312 H 0.18068 0.73412 0.2882 0.0
H1313 H 0.17398 0.76764 0.31785 0.0
H1314 H 0.13279 0.71738 0.38992 0.0
H1315 H 0.12478 0.66195 0.37924 0.0
C1316 C 0.13898 0.65057 0.33559 0.0
C1317 C 0.1478 0.64866 0.31198 0.0
C1318 C 0.14481 0.68261 0.34222 0.0
C1319 C 0.16368 0.67933 0.29529 0.0
C1320 C 0.16911 0.71109 0.30162 0.0
C1321 C 0.16332 0.7445 0.33118 0.0
C1322 C 0.15397 0.74645 0.35462 0.0
C1323 C 0.15927 0.71293 0.32493 0.0
C1324 C 0.14062 0.71655 0.37185 0.0
C1325 C 0.13583 0.68482 0.36569 0.0
H1326 H 0.85123 0.0967 0.38308 0.0
H1327 H 0.87376 0.04809 0.4467 0.0
H1328 H 0.82999 0.98976 0.4369 0.0
H1329 H 0.78312 0.95227 0.41079 0.0
H1330 H 0.76218 1.0008 0.34639 0.0
H1331 H 0.80733 0.05903 0.35556 0.0
C1332 C 0.8471 0.07326 0.39444 0.0
C1333 C 0.86595 0.07665 0.4155 0.0
C1334 C 0.82184 0.03971 0.38858 0.0
C1335 C 0.85971 0.04605 0.43036 0.0
C1336 C 0.83456 1.01274 0.4248 0.0
C1337 C 0.78862 0.97568 0.3988 0.0
C1338 C 0.76945 0.9723 0.3779 0.0
C1339 C 0.81505 1.00917 0.40411 0.0
C1340 C 0.7769 1.00274 0.36243 0.0
C1341 C 0.80263 0.03608 0.36773 0.0
H1342 H 0.96067 0.81923 0.40048 0.0
H1343 H 0.91262 0.70746 0.41918 0.0
H1344 H 0.97387 0.71203 0.41164 0.0
H1345 H 0.04102 0.74811 0.39903 0.0
H1346 H 0.08824 0.85979 0.37919 0.0
H1347 H 0.02719 0.85504 0.38692 0.0
C1348 C 0.96372 0.79593 0.40272 0.0
C1349 C 0.93242 0.76308 0.41038 0.0
C1350 C 0.99865 0.79876 0.39771 0.0
C1351 C 0.93656 0.73304 0.41364 0.0
C1352 C 0.97142 0.73565 0.40909 0.0
C1353 C 0.03771 0.77128 0.39622 0.0
C1354 C 0.06875 0.8041 0.38802 0.0
C1355 C 1.00261 0.76836 0.40098 0.0
C1356 C 0.06451 0.83413 0.38487 0.0
C1357 C 0.02971 0.83146 0.38953 0.0
H1358 H 0.28005 0.20899 0.4139 0.0
H1359 H 0.1629 0.13632 0.42993 0.0
H1360 H 0.14797 0.18332 0.41869 0.0
H1361 H 0.16789 0.24408 0.40188 0.0
H1362 H 0.28497 0.31918 0.38977 0.0
H1363 H 0.30063 0.27251 0.40219 0.0
C1364 C 0.25141 0.20375 0.41538 0.0
C1365 C 0.22244 0.16907 0.42203 0.0
C1366 C 0.24312 0.23125 0.40945 0.0
C1367 C 0.18545 0.16258 0.42407 0.0
C1368 C 0.17694 0.18946 0.41776 0.0
C1369 C 0.19683 0.25031 0.40215 0.0
C1370 C 0.22524 0.28483 0.3947 0.0
C1371 C 0.20547 0.22369 0.40991 0.0
C1372 C 0.26266 0.29268 0.39544 0.0
C1373 C 0.27156 0.26602 0.40248 0.0
H1374 H 0.61001 0.54214 0.74465 0.0
H1375 H 0.6587 0.47647 0.76466 0.0
H1376 H 0.72063 0.52423 0.74855 0.0
H1377 H 0.76096 0.5852 0.72822 0.0
H1378 H 0.71132 0.65052 0.70848 0.0
H1379 H 0.65002 0.6028 0.7246 0.0
C1380 C 0.63448 0.53882 0.74595 0.0
C1381 C 0.63028 0.50641 0.75645 0.0
C1382 C 0.6697 0.56618 0.73618 0.0
C1383 C 0.66174 0.50167 0.75728 0.0
C1384 C 0.69695 0.52881 0.74781 0.0
C1385 C 0.73654 0.58864 0.7271 0.0
C1386 C 0.74045 0.62104 0.7165 0.0
C1387 C 0.70129 0.56118 0.737 0.0
C1388 C 0.70882 0.62558 0.71603 0.0
C1389 C 0.67381 0.59839 0.72543 0.0
H1390 H 0.52367 0.15669 0.71616 0.0
H1391 H 0.45215 0.04541 0.71901 0.0
H1392 H 0.39889 0.05445 0.70983 0.0
H1393 H 0.37165 0.09375 0.70615 0.0
H1394 H 0.44359 0.20519 0.70312 0.0
H1395 H 0.49803 0.19675 0.70665 0.0
C1396 C 0.49664 0.13465 0.714 0.0
C1397 C 0.49137 0.10045 0.71854 0.0
C1398 C 0.46633 0.14015 0.7089 0.0
C1399 C 0.45634 0.07188 0.71595 0.0
C1400 C 0.42604 0.07707 0.71075 0.0
C1401 C 0.39941 0.11612 0.70582 0.0
C1402 C 0.40382 0.14999 0.70412 0.0
C1403 C 0.43047 0.11099 0.70806 0.0
C1404 C 0.43968 0.17893 0.70394 0.0
C1405 C 0.47077 0.17409 0.70614 0.0
H1406 H 0.90368 0.38465 0.74552 0.0
H1407 H 0.78723 0.35507 0.74659 0.0
H1408 H 0.77315 0.30058 0.73095 0.0
H1409 H 0.79399 0.2594 0.71953 0.0
H1410 H 0.91025 0.28818 0.72225 0.0
H1411 H 0.92442 0.34445 0.73418 0.0
C1412 C 0.87521 0.36609 0.74248 0.0
C1413 C 0.8465 0.37362 0.74735 0.0
C1414 C 0.86732 0.33449 0.73437 0.0
C1415 C 0.8098 0.34987 0.74279 0.0
C1416 C 0.80176 0.31864 0.73403 0.0
C1417 C 0.82238 0.27817 0.72263 0.0
C1418 C 0.85098 0.26951 0.72035 0.0
C1419 C 0.83026 0.31038 0.73009 0.0
C1420 C 0.88767 0.29397 0.72438 0.0
C1421 C 0.89584 0.32624 0.73108 0.0
H1422 H 0.178 1.0029 0.62936 0.0
H1423 H 0.16424 0.94493 0.699 0.0
H1424 H 0.20729 0.9992 0.71429 0.0
H1425 H 0.25206 0.06291 0.70711 0.0
H1426 H 0.27059 0.11945 0.63633 0.0
H1427 H 0.22372 0.06605 0.62196 0.0
C1428 C 0.18458 1.00218 0.64785 0.0
C1429 C 0.16762 0.96989 0.66304 0.0
C1430 C 0.21072 0.03326 0.65619 0.0
C1431 C 0.17618 0.96945 0.68705 0.0
C1432 C 0.20118 1.00046 0.69571 0.0
C1433 C 0.24543 0.0636 0.68866 0.0
C1434 C 0.26452 0.09523 0.67288 0.0
C1435 C 0.21897 0.0325 0.68039 0.0
C1436 C 0.25639 0.09545 0.64882 0.0
C1437 C 0.22947 0.06494 0.64061 0.0
H1438 H 0.06951 0.29829 0.6712 0.0
H1439 H 0.05081 0.19279 0.67526 0.0
H1440 H 0.98396 0.16944 0.68557 0.0
H1441 H 0.93029 0.17985 0.6875 0.0
H1442 H 0.94884 0.28573 0.68148 0.0
H1443 H 0.01642 0.3086 0.67733 0.0
C1444 C 0.05064 0.27025 0.67478 0.0
C1445 C 0.06434 0.24711 0.67231 0.0
C1446 C 0.0124 0.25733 0.6798 0.0
C1447 C 0.04034 0.21081 0.67711 0.0
C1448 C 1.00228 0.1976 0.68271 0.0
C1449 C 0.94924 0.20783 0.68595 0.0
C1450 C 0.93503 0.23119 0.68525 0.0
C1451 C 0.98785 0.22067 0.68324 0.0
C1452 C 0.95955 0.26745 0.68236 0.0
C1453 C 0.99803 0.28046 0.67997 0.0
H1454 H 0.83058 0.86477 0.61196 0.0
H1455 H 0.7491 0.84653 0.66774 0.0
H1456 H 0.75103 0.79393 0.68574 0.0
H1457 H 0.77999 0.75581 0.68729 0.0
H1458 H 0.85782 0.77133 0.62967 0.0
H1459 H 0.85322 0.82196 0.61056 0.0
C1460 C 0.81242 0.84856 0.62758 0.0
C1461 C 0.78997 0.85955 0.63866 0.0
C1462 C 0.81356 0.8182 0.6377 0.0
C1463 C 0.76687 0.83865 0.65911 0.0
C1464 C 0.76812 0.80872 0.66943 0.0
C1465 C 0.7957 0.77022 0.67048 0.0
C1466 C 0.81952 0.76017 0.66002 0.0
C1467 C 0.79213 0.79876 0.65925 0.0
C1468 C 0.83932 0.77864 0.63805 0.0
C1469 C 0.83673 0.80761 0.62713 0.0
H1470 H 0.02655 0.86992 0.65047 0.0
H1471 H 0.09528 0.82096 0.65996 0.0
H1472 H 0.03985 0.76302 0.66678 0.0
H1473 H 0.97129 0.72599 0.67059 0.0
H1474 H 0.90245 0.77523 0.66824 0.0
H1475 H 0.95781 0.83309 0.6588 0.0
C1476 C 0.02924 0.8465 0.65418 0.0
C1477 C 0.06508 0.84964 0.65373 0.0
C1478 C 0.99704 0.81331 0.65967 0.0
C1479 C 0.06819 0.81916 0.65883 0.0
C1480 C 0.03641 0.78603 0.66319 0.0
C1481 C 0.96854 0.74948 0.66818 0.0
C1482 C 0.93287 0.74635 0.67039 0.0
C1483 C 1.00066 0.78275 0.66358 0.0
C1484 C 0.92958 0.77691 0.66701 0.0
C1485 C 0.96129 0.81004 0.6615 0.0
H1486 H 0.16339 0.20909 0.66334 0.0
H1487 H 0.22686 0.32165 0.65475 0.0
H1488 H 0.28422 0.31902 0.6623 0.0
H1489 H 0.31599 0.28425 0.6716 0.0
H1490 H 0.25157 0.17132 0.68303 0.0
H1491 H 0.19459 0.17416 0.67508 0.0
C1492 C 0.19 0.23287 0.66291 0.0
C1493 C 0.19166 0.26555 0.65731 0.0
C1494 C 0.22232 0.23095 0.66837 0.0
C1495 C 0.22568 0.29637 0.65755 0.0
C1496 C 0.25818 0.29479 0.66238 0.0
C1497 C 0.28935 0.26035 0.67253 0.0
C1498 C 0.28779 0.2277 0.67815 0.0
C1499 C 0.25682 0.26221 0.66778 0.0
C1500 C 0.25331 0.19679 0.67915 0.0
C1501 C 0.22079 0.19839 0.67438 0.0
H1502 H 0.86295 0.99863 0.65412 0.0
H1503 H 0.75051 0.96442 0.63455 0.0
H1504 H 0.75123 0.01481 0.64923 0.0
H1505 H 0.78384 0.06856 0.66749 0.0
H1506 H 0.8946 0.10087 0.69031 0.0
H1507 H 0.89435 0.05092 0.67514 0.0
C1508 C 0.83854 1.00209 0.65345 0.0
C1509 C 0.80675 0.97806 0.64321 0.0
C1510 C 0.83886 0.03067 0.66256 0.0
C1511 C 0.77538 0.98293 0.6421 0.0
C1512 C 0.77575 1.01159 0.65058 0.0
C1513 C 0.80798 0.06476 0.66911 0.0
C1514 C 0.83932 0.08864 0.67977 0.0
C1515 C 0.80738 0.03571 0.66075 0.0
C1516 C 0.87011 0.08291 0.68212 0.0
C1517 C 0.87003 0.05439 0.6734 0.0
H1518 H 0.54869 0.38138 0.73457 0.0
H1519 H 0.46652 0.4062 0.76009 0.0
H1520 H 0.41653 0.3531 0.74721 0.0
H1521 H 0.39599 0.299 0.72898 0.0
H1522 H 0.47868 0.27739 0.69975 0.0
H1523 H 0.5285 0.32995 0.71322 0.0
C1524 C 0.51991 0.37547 0.73691 0.0
C1525 C 0.51135 0.39758 0.74855 0.0
C1526 C 0.49133 0.34535 0.72878 0.0
C1527 C 0.47379 0.38927 0.75165 0.0
C1528 C 0.44521 0.35899 0.74416 0.0
C1529 C 0.42491 0.30578 0.7256 0.0
C1530 C 0.4335 0.284 0.71362 0.0
C1531 C 0.45358 0.33663 0.73288 0.0
C1532 C 0.47121 0.29357 0.709 0.0
C1533 C 0.49977 0.32365 0.71672 0.0
H1534 H 0.60663 0.06075 0.73851 0.0
H1535 H 0.63208 0.16846 0.73278 0.0
H1536 H 0.69872 0.18817 0.72505 0.0
H1537 H 0.74949 0.17427 0.71995 0.0
H1538 H 0.72389 0.06624 0.72599 0.0
H1539 H 0.65749 0.04679 0.73383 0.0
C1540 C 0.62703 0.08842 0.73609 0.0
C1541 C 0.615 0.11322 0.73651 0.0
C1542 C 0.66501 0.09935 0.7315 0.0
C1543 C 0.64118 0.14912 0.73267 0.0
C1544 C 0.67908 0.16029 0.7282 0.0
C1545 C 0.72923 0.14653 0.72263 0.0
C1546 C 0.74114 0.12163 0.72178 0.0
C1547 C 0.69128 0.13561 0.72742 0.0
C1548 C 0.71498 0.08575 0.72613 0.0
C1549 C 0.67716 0.07466 0.73072 0.0
H1550 H 0.90209 0.50933 0.72664 0.0
H1551 H 0.82873 0.48089 0.78944 0.0
H1552 H 0.82531 0.53532 0.78035 0.0
H1553 H 0.83865 0.5883 0.75213 0.0
H1554 H 0.90991 0.61466 0.68821 0.0
H1555 H 0.91903 0.56422 0.7 0.0
C1556 C 0.88582 0.51552 0.73837 0.0
C1557 C 0.86559 0.4915 0.75858 0.0
C1558 C 0.88349 0.54639 0.73269 0.0
C1559 C 0.84455 0.49934 0.77385 0.0
C1560 C 0.84249 0.53029 0.76856 0.0
C1561 C 0.85683 0.58338 0.74111 0.0
C1562 C 0.87352 0.60511 0.71931 0.0
C1563 C 0.86125 0.55371 0.74774 0.0
C1564 C 0.89662 0.5982 0.70502 0.0
C1565 C 0.90177 0.5693 0.7117 0.0
H1566 H 0.51954 0.94609 0.28089 0.0
H1567 H 0.42872 0.86054 0.2529 0.0
H1568 H 0.45221 0.89034 0.21218 0.0
H1569 H 0.49307 0.94466 0.18567 0.0
H1570 H 0.59011 0.02595 0.21329 0.0
H1571 H 0.56961 0.99358 0.25314 0.0
C1572 C 0.50589 0.93322 0.2659 0.0
C1573 C 0.47205 0.90155 0.26986 0.0
C1574 C 0.52003 0.95018 0.24254 0.0
C1575 C 0.45436 0.8854 0.25019 0.0
C1576 C 0.46775 0.90246 0.22695 0.0
C1577 C 0.51066 0.95517 0.20003 0.0
C1578 C 0.54231 0.98896 0.19616 0.0
C1579 C 0.49975 0.93561 0.22298 0.0
C1580 C 0.56436 1.00122 0.21555 0.0
C1581 C 0.553 0.98243 0.23848 0.0
H1582 H 0.13698 0.59267 0.23648 0.0
H1583 H 0.06118 0.50472 0.28715 0.0
H1584 H 0.02329 0.47615 0.25477 0.0
H1585 H 0.00797 0.48027 0.2127 0.0
H1586 H 0.08182 0.57202 0.1632 0.0
H1587 H 0.12431 0.59489 0.19424 0.0
C1588 C 0.11254 0.56689 0.24022 0.0
C1589 C 0.10159 0.55074 0.26398 0.0
C1590 C 0.09029 0.55165 0.22174 0.0
C1591 C 0.0701 0.51737 0.2689 0.0
C1592 C 0.04829 0.50136 0.25043 0.0
C1593 C 0.03336 0.50525 0.20866 0.0
C1594 C 0.04135 0.52436 0.18551 0.0
C1595 C 0.05739 0.51891 0.22689 0.0
C1596 C 0.07491 0.55636 0.18062 0.0
C1597 C 0.09922 0.56969 0.19846 0.0
H1598 H 0.42859 0.56885 0.25058 0.0
H1599 H 0.4897 0.53588 0.29875 0.0
H1600 H 0.4998 0.50513 0.26868 0.0
H1601 H 0.49701 0.49325 0.22765 0.0
H1602 H 0.43387 0.52389 0.17902 0.0
H1603 H 0.41994 0.55098 0.20991 0.0
C1604 C 0.44292 0.55382 0.25458 0.0
C1605 C 0.4576 0.55367 0.27696 0.0
C1606 C 0.44933 0.53688 0.23689 0.0
C1607 C 0.47736 0.53533 0.28183 0.0
C1608 C 0.48355 0.51826 0.26454 0.0
C1609 C 0.47934 0.50493 0.22376 0.0
C1610 C 0.46679 0.50638 0.20069 0.0
C1611 C 0.47048 0.51961 0.24181 0.0
C1612 C 0.44483 0.52284 0.19625 0.0
C1613 C 0.4364 0.53806 0.21407 0.0
H1614 H 0.86722 0.46837 0.81981 0.0
H1615 H 0.95514 0.47742 0.77297 0.0
H1616 H 1.00141 0.50782 0.80102 0.0
H1617 H 0.01566 0.52715 0.84009 0.0
H1618 H 0.9284 0.52109 0.88668 0.0
H1619 H 0.88289 0.49362 0.85778 0.0
C1620 C 0.89666 0.47792 0.81564 0.0
C1621 C 0.90816 0.47117 0.79444 0.0
C1622 C 0.92295 0.49513 0.83199 0.0
C1623 C 0.94612 0.4828 0.78921 0.0
C1624 C 0.97237 0.49988 0.80527 0.0
C1625 C 0.98692 0.52065 0.84384 0.0
C1626 C 0.97573 0.52606 0.8658 0.0
C1627 C 0.96099 0.50557 0.82693 0.0
C1628 C 0.93795 0.51656 0.87028 0.0
C1629 C 0.91184 0.50112 0.85363 0.0
H1630 H 0.53906 0.49699 0.80354 0.0
H1631 H 0.62524 0.46835 0.81097 0.0
H1632 H 0.63025 0.47973 0.85256 0.0
H1633 H 0.60503 0.49128 0.8876 0.0
H1634 H 0.52186 0.52473 0.87949 0.0
H1635 H 0.51966 0.51652 0.83771 0.0
C1636 C 0.55975 0.49443 0.81414 0.0
C1637 C 0.58221 0.48238 0.80419 0.0
C1638 C 0.56201 0.50062 0.83812 0.0
C1639 C 0.60836 0.47835 0.81812 0.0
C1640 C 0.61072 0.48432 0.84199 0.0
C1641 C 0.58705 0.49791 0.87685 0.0
C1642 C 0.56339 0.50846 0.88746 0.0
C1643 C 0.58696 0.49458 0.85237 0.0
C1644 C 0.53972 0.51561 0.8726 0.0
C1645 C 0.53877 0.5114 0.8484 0.0
H1646 H 0.56302 0.11377 0.79474 0.0
H1647 H 0.55418 0.02201 0.76951 0.0
H1648 H 0.54706 0.99361 0.81066 0.0
H1649 H 0.53267 0.99149 0.85321 0.0
H1650 H 0.53458 0.08138 0.87796 0.0
H1651 H 0.55573 0.1142 0.83796 0.0
C1652 C 0.56115 0.08818 0.79848 0.0
C1653 C 0.55979 0.07008 0.77938 0.0
C1654 C 0.55489 0.07143 0.82212 0.0
C1655 C 0.55618 0.03654 0.78407 0.0
C1656 C 0.55147 0.02018 0.80756 0.0
C1657 C 0.53797 0.01835 0.84992 0.0
C1658 C 0.53142 0.03366 0.8686 0.0
C1659 C 0.54899 0.03676 0.82666 0.0
C1660 C 0.53942 0.06884 0.86406 0.0
C1661 C 0.5513 0.08762 0.84109 0.0
H1662 H 0.21299 0.33568 0.61783 0.0
H1663 H 0.1229 0.24191 0.59733 0.0
H1664 H 0.14386 0.26446 0.55519 0.0
H1665 H 0.18218 0.3147 0.52483 0.0
H1666 H 0.27912 0.40421 0.54567 0.0
H1667 H 0.26119 0.37911 0.58722 0.0
C1668 C 0.19924 0.31935 0.60429 0.0
C1669 C 0.16657 0.28719 0.61061 0.0
C1670 C 0.21195 0.33218 0.58018 0.0
C1671 C 0.14816 0.26682 0.59271 0.0
C1672 C 0.15997 0.27983 0.56867 0.0
C1673 C 0.20033 0.32855 0.53813 0.0
C1674 C 0.23103 0.36251 0.53168 0.0
C1675 C 0.19106 0.31315 0.56218 0.0
C1676 C 0.25392 0.37919 0.54977 0.0
C1677 C 0.24407 0.3646 0.57372 0.0
H1678 H 0.71775 0.8845 0.60443 0.0
H1679 H 0.81562 0.88764 0.57413 0.0
H1680 H 0.78337 0.86637 0.5382 0.0
H1681 H 0.72842 0.85177 0.51409 0.0
H1682 H 0.63353 0.85544 0.54405 0.0
H1683 H 0.66327 0.86924 0.58112 0.0
C1684 C 0.73143 0.87942 0.59017 0.0
C1685 C 0.76846 0.88658 0.59206 0.0
C1686 C 0.71341 0.86915 0.56925 0.0
C1687 C 0.78667 0.88117 0.5733 0.0
C1688 C 0.76841 0.86964 0.55263 0.0
C1689 C 0.71432 0.85571 0.52869 0.0
C1690 C 0.67841 0.85207 0.52615 0.0
C1691 C 0.73202 0.86444 0.55012 0.0
C1692 C 0.66067 0.85717 0.54545 0.0
C1693 C 0.67775 0.86527 0.56675 0.0
H1694 H 0.10991 0.90517 0.58627 0.0
H1695 H 0.14517 0.84441 0.63353 0.0
H1696 H 0.15653 0.81968 0.60009 0.0
H1697 H 0.16275 0.82019 0.55705 0.0
H1698 H 0.13739 0.88862 0.50888 0.0
H1699 H 0.11527 0.90495 0.54267 0.0
C1700 C 0.11888 0.88561 0.58913 0.0
C1701 C 0.1245 0.87488 0.61245 0.0
C1702 C 0.12781 0.87342 0.56951 0.0
C1703 C 0.13809 0.85105 0.61601 0.0
C1704 C 0.14549 0.83763 0.59677 0.0
C1705 C 0.15261 0.83884 0.5538 0.0
C1706 C 0.15224 0.85328 0.53022 0.0
C1707 C 0.14135 0.84931 0.57338 0.0
C1708 C 0.13781 0.87664 0.52665 0.0
C1709 C 0.1254 0.88631 0.54605 0.0
H1710 H 0.64769 0.80906 0.12859 0.0
H1711 H 0.55268 0.82123 0.14502 0.0
H1712 H 0.583 0.85118 0.17922 0.0
H1713 H 0.63658 0.87207 0.20516 0.0
H1714 H 0.73019 0.85733 0.18808 0.0
H1715 H 0.70033 0.82972 0.15371 0.0
C1716 C 0.63384 0.81847 0.13969 0.0
C1717 C 0.59821 0.81309 0.13453 0.0
C1718 C 0.65107 0.8348 0.15932 0.0
C1719 C 0.58029 0.82542 0.14874 0.0
C1720 C 0.59752 0.84222 0.16831 0.0
C1721 C 0.65021 0.86257 0.19396 0.0
C1722 C 0.6857 0.86693 0.19913 0.0
C1723 C 0.63281 0.84666 0.17398 0.0
C1724 C 0.70315 0.85472 0.18436 0.0
C1725 C 0.68609 0.83887 0.1647 0.0
H1726 H 0.2627 0.81294 0.15126 0.0
H1727 H 0.19665 0.84085 0.10417 0.0
H1728 H 0.17634 0.86134 0.13658 0.0
H1729 H 0.17157 0.86449 0.17882 0.0
H1730 H 0.24147 0.84154 0.22635 0.0
H1731 H 0.26474 0.82449 0.19354 0.0
C1732 C 0.24505 0.82481 0.14805 0.0
C1733 C 0.23188 0.82633 0.12525 0.0
C1734 C 0.23307 0.83611 0.16701 0.0
C1735 C 0.20794 0.84054 0.12138 0.0
C1736 C 0.19588 0.85165 0.14001 0.0
C1737 C 0.19283 0.85701 0.18224 0.0
C1738 C 0.20426 0.85447 0.2056 0.0
C1739 C 0.20748 0.84868 0.16304 0.0
C1740 C 0.23097 0.84314 0.20903 0.0
C1741 C 0.24485 0.83375 0.19008 0.0
H1742 H 0.22337 0.44597 0.13312 0.0
H1743 H 0.21478 0.35455 0.10748 0.0
H1744 H 0.20977 0.32665 0.14851 0.0
H1745 H 0.19797 0.32498 0.19137 0.0
H1746 H 0.19906 0.41424 0.21664 0.0
H1747 H 0.21747 0.44652 0.17643 0.0
C1748 C 0.22193 0.42054 0.13672 0.0
C1749 C 0.22022 0.40247 0.11754 0.0
C1750 C 0.21681 0.40402 0.16034 0.0
C1751 C 0.21713 0.36912 0.12207 0.0
C1752 C 0.21361 0.35302 0.14551 0.0
C1753 C 0.20236 0.35155 0.18814 0.0
C1754 C 0.19658 0.36685 0.20711 0.0
C1755 C 0.21176 0.36963 0.16476 0.0
C1756 C 0.20343 0.4017 0.20257 0.0
C1757 C 0.21373 0.42018 0.17947 0.0
H1758 H 0.77438 0.55571 0.92007 0.0
H1759 H 0.86215 0.63358 0.95527 0.0
H1760 H 0.89192 0.66894 0.91688 0.0
H1761 H 0.88722 0.68209 0.8741 0.0
H1762 H 0.7907 0.60961 0.84077 0.0
H1763 H 0.77046 0.56812 0.87708 0.0
C1764 C 0.80047 0.58011 0.91915 0.0
C1765 C 0.81635 0.59178 0.94043 0.0
C1766 C 0.81541 0.60178 0.89719 0.0
C1767 C 0.85008 0.62339 0.93919 0.0
C1768 C 0.86659 0.64404 0.9172 0.0
C1769 C 0.86157 0.65742 0.87465 0.0
C1770 C 0.84065 0.64965 0.85435 0.0
C1771 C 0.84854 0.63425 0.8962 0.0
C1772 C 0.80813 0.61668 0.85561 0.0
C1773 C 0.79611 0.59281 0.8766 0.0
H1774 H 0.47246 0.25778 0.90387 0.0
H1775 H 0.39759 0.16987 0.95493 0.0
H1776 H 0.35953 0.14084 0.92275 0.0
H1777 H 0.34415 0.14405 0.88065 0.0
H1778 H 0.41679 0.23586 0.83078 0.0
H1779 H 0.45918 0.2596 0.86171 0.0
C1780 C 0.44809 0.23199 0.90777 0.0
C1781 C 0.43757 0.21594 0.93159 0.0
C1782 C 0.42573 0.21643 0.88939 0.0
C1783 C 0.40621 0.18249 0.93666 0.0
C1784 C 0.38432 0.16619 0.9183 0.0
C1785 C 0.36921 0.16928 0.8765 0.0
C1786 C 0.37691 0.18805 0.85322 0.0
C1787 C 0.39314 0.18349 0.89468 0.0
C1788 C 0.4101 0.22038 0.84825 0.0
C1789 C 0.43435 0.23423 0.86604 0.0
H1790 H 0.76199 0.21375 0.91678 0.0
H1791 H 0.84253 0.20319 0.96014 0.0
H1792 H 0.85925 0.17801 0.92899 0.0
H1793 H 0.85541 0.16491 0.88814 0.0
H1794 H 0.7725 0.17237 0.8448 0.0
H1795 H 0.75309 0.19384 0.87681 0.0
C1796 C 0.78232 0.20486 0.91951 0.0
C1797 C 0.8007 0.20964 0.94072 0.0
C1798 C 0.79214 0.19092 0.90128 0.0
C1799 C 0.8277 0.19898 0.94404 0.0
C1800 C 0.8375 0.18504 0.92615 0.0
C1801 C 0.83244 0.1703 0.88569 0.0
C1802 C 0.81593 0.16717 0.86367 0.0
C1803 C 0.82056 0.18169 0.90446 0.0
C1804 C 0.78672 0.1753 0.8611 0.0
C1805 C 0.77517 0.18724 0.87958 0.0
H1806 H 0.23118 0.14868 0.47939 0.0
H1807 H 0.32867 0.17705 0.43399 0.0
H1808 H 0.36917 0.2077 0.4646 0.0
H1809 H 0.37619 0.22032 0.50564 0.0
H1810 H 0.27877 0.19494 0.55088 0.0
H1811 H 0.23881 0.16838 0.51928 0.0
C1812 C 0.26131 0.16246 0.47615 0.0
C1813 C 0.27726 0.16082 0.4547 0.0
C1814 C 0.28426 0.1796 0.494 0.0
C1815 C 0.31618 0.1783 0.45048 0.0
C1816 C 0.33916 0.19546 0.46802 0.0
C1817 C 0.34635 0.20986 0.50858 0.0
C1818 C 0.33082 0.20938 0.53099 0.0
C1819 C 0.32348 0.19541 0.4901 0.0
C1820 C 0.29178 0.19489 0.53422 0.0
C1821 C 0.26878 0.17999 0.51601 0.0
H1822 H 0.88443 0.19735 0.45376 0.0
H1823 H 0.93509 0.1398 0.48796 0.0
H1824 H 0.91836 0.14863 0.52726 0.0
H1825 H 0.88031 0.16485 0.55171 0.0
H1826 H 0.83212 0.22494 0.51671 0.0
H1827 H 0.85698 0.22329 0.47814 0.0
C1828 C 0.89355 0.18847 0.46978 0.0
C1829 C 0.91184 0.16877 0.46798 0.0
C1830 C 0.88313 0.19314 0.49227 0.0
C1831 C 0.92197 0.15591 0.48895 0.0
C1832 C 0.91179 0.16046 0.51141 0.0
C1833 C 0.87599 0.17837 0.53577 0.0
C1834 C 0.85306 0.19393 0.53733 0.0
C1835 C 0.89101 0.17787 0.51334 0.0
C1836 C 0.84823 0.21145 0.51622 0.0
C1837 C 0.86277 0.21084 0.49403 0.0
H1838 H 0.82509 0.67659 0.44852 0.0
H1839 H 0.92506 0.76702 0.46361 0.0
H1840 H 0.92122 0.73758 0.5042 0.0
H1841 H 0.88457 0.68864 0.53661 0.0
H1842 H 0.77927 0.60256 0.52162 0.0
H1843 H 0.78994 0.62754 0.47998 0.0
C1844 C 0.84633 0.68944 0.46067 0.0
C1845 C 0.87512 0.72378 0.45337 0.0
C1846 C 0.84252 0.67328 0.48415 0.0
C1847 C 0.9028 0.74042 0.46895 0.0
C1848 C 0.90022 0.72376 0.49219 0.0
C1849 C 0.86381 0.67537 0.52433 0.0
C1850 C 0.83114 0.64348 0.53258 0.0
C1851 C 0.86933 0.69068 0.50027 0.0
C1852 C 0.80507 0.62658 0.51603 0.0
C1853 C 0.81095 0.64101 0.4921 0.0
loop_
_geom_bond_atom_site_label_1
_geom_bond_atom_site_label_2
_geom_bond_distance
_geom_bond_site_symmetry_2
_ccdc_geom_bond_type
C0 N1 1.317 . S
C0 N2 1.348 . S
C0 C3 1.485 . S
N1 C0 1.317 . S
N1 N5 1.370 . S
N2 C0 1.348 . S
N2 C4 1.346 . S
C3 C0 1.485 . S
C3 H7 0.960 . S
C3 H8 0.961 . S
C3 H9 0.960 . S
C4 N2 1.346 . S
C4 N5 1.307 . S
C4 C6 1.486 . S
N5 N1 1.370 . S
N5 C4 1.307 . S
C6 C4 1.486 . S
C6 H10 0.960 . S
C6 H11 0.960 . S
C6 H12 0.959 . S
H7 C3 0.960 . S
H8 C3 0.961 . S
H9 C3 0.960 . S
H10 C6 0.960 . S
H11 C6 0.960 . S
H12 C6 0.959 . S
C13 N14 1.317 . S
C13 N15 1.348 . S
C13 C16 1.485 . S
N14 C13 1.317 . S
N14 N18 1.370 . S
N15 C13 1.348 . S
N15 C17 1.346 . S
C16 C13 1.485 . S
C16 H20 0.960 . S
C16 H21 0.961 . S
C16 H22 0.960 . S
C17 N15 1.346 . S
C17 N18 1.307 . S
C17 C19 1.486 . S
N18 N14 1.370 . S
N18 C17 1.307 . S
C19 C17 1.486 . S
C19 H23 0.960 . S
C19 H24 0.960 . S
C19 H25 0.959 . S
H20 C16 0.960 . S
H21 C16 0.961 . S
H22 C16 0.960 . S
H23 C19 0.960 . S
H24 C19 0.960 . S
H25 C19 0.959 . S
C26 N27 1.317 . S
C26 N28 1.348 . S
C26 C29 1.485 . S
N27 C26 1.317 . S
N27 N31 1.370 . S
N28 C26 1.348 . S
N28 C30 1.346 . S
C29 C26 1.485 . S
C29 H33 0.960 . S
C29 H34 0.961 . S
C29 H35 0.960 . S
C30 N28 1.346 . S
C30 N31 1.307 . S
C30 C32 1.486 . S
N31 N27 1.370 . S
N31 C30 1.307 . S
C32 C30 1.486 . S
C32 H36 0.960 . S
C32 H37 0.960 . S
C32 H38 0.959 . S
H33 C29 0.960 . S
H34 C29 0.961 . S
H35 C29 0.960 . S
H36 C32 0.960 . S
H37 C32 0.960 . S
H38 C32 0.959 . S
C39 N40 1.317 . S
C39 N41 1.348 . S
C39 C42 1.485 . S
N40 C39 1.317 . S
N40 N44 1.370 . S
N41 C39 1.348 . S
N41 C43 1.346 . S
C42 C39 1.485 . S
C42 H46 0.960 . S
C42 H47 0.961 . S
C42 H48 0.960 . S
C43 N41 1.346 . S
C43 N44 1.307 . S
C43 C45 1.486 . S
N44 N40 1.370 . S
N44 C43 1.307 . S
C45 C43 1.486 . S
C45 H49 0.960 . S
C45 H50 0.960 1_455 S
C45 H51 0.959 . S
H46 C42 0.960 . S
H47 C42 0.961 . S
H48 C42 0.960 . S
H49 C45 0.960 . S
H50 C45 0.960 1_655 S
H51 C45 0.959 . S
C52 N53 1.317 . S
C52 N54 1.348 . S
C52 C55 1.485 . S
N53 C52 1.317 . S
N53 N57 1.370 . S
N54 C52 1.348 . S
N54 C56 1.346 . S
C55 C52 1.485 . S
C55 H59 0.960 . S
C55 H60 0.961 . S
C55 H61 0.960 . S
C56 N54 1.346 . S
C56 N57 1.307 . S
C56 C58 1.486 . S
N57 N53 1.370 . S
N57 C56 1.307 . S
C58 C56 1.486 . S
C58 H62 0.960 . S
C58 H63 0.960 . S
C58 H64 0.959 . S
H59 C55 0.960 . S
H60 C55 0.961 . S
H61 C55 0.960 . S
H62 C58 0.960 . S
H63 C58 0.960 . S
H64 C58 0.959 . S
C65 N66 1.317 . S
C65 N67 1.348 . S
C65 C68 1.485 . S
N66 C65 1.317 . S
N66 N70 1.370 . S
N67 C65 1.348 . S
N67 C69 1.346 . S
C68 C65 1.485 . S
C68 H72 0.960 . S
C68 H73 0.961 . S
C68 H74 0.960 . S
C69 N67 1.346 . S
C69 N70 1.307 . S
C69 C71 1.486 . S
N70 N66 1.370 . S
N70 C69 1.307 . S
C71 C69 1.486 . S
C71 H75 0.960 . S
C71 H76 0.960 . S
C71 H77 0.959 . S
H72 C68 0.960 . S
H73 C68 0.961 . S
H74 C68 0.960 . S
H75 C71 0.960 . S
H76 C71 0.960 . S
H77 C71 0.959 . S
C78 N79 1.317 . S
C78 N80 1.348 . S
C78 C81 1.485 . S
N79 C78 1.317 . S
N79 N83 1.370 . S
N80 C78 1.348 . S
N80 C82 1.346 . S
C81 C78 1.485 . S
C81 H85 0.960 . S
C81 H86 0.961 . S
C81 H87 0.960 . S
C82 N80 1.346 . S
C82 N83 1.307 . S
C82 C84 1.486 . S
N83 N79 1.370 . S
N83 C82 1.307 . S
C84 C82 1.486 . S
C84 H88 0.960 . S
C84 H89 0.960 . S
C84 H90 0.959 . S
H85 C81 0.960 . S
H86 C81 0.961 . S
H87 C81 0.960 . S
H88 C84 0.960 . S
H89 C84 0.960 . S
H90 C84 0.959 . S
C91 N92 1.317 . S
C91 N93 1.348 . S
C91 C94 1.485 . S
N92 C91 1.317 . S
N92 N96 1.370 . S
N93 C91 1.348 . S
N93 C95 1.346 . S
C94 C91 1.485 . S
C94 H98 0.960 . S
C94 H99 0.961 . S
C94 H100 0.960 . S
C95 N93 1.346 . S
C95 N96 1.307 . S
C95 C97 1.486 . S
N96 N92 1.370 . S
N96 C95 1.307 . S
C97 C95 1.486 . S
C97 H101 0.960 . S
C97 H102 0.960 . S
C97 H103 0.959 . S
H98 C94 0.960 . S
H99 C94 0.961 . S
H100 C94 0.960 . S
H101 C97 0.960 . S
H102 C97 0.960 . S
H103 C97 0.959 . S
C104 N105 1.317 . S
C104 N106 1.348 . S
C104 C107 1.485 . S
N105 C104 1.317 . S
N105 N109 1.370 . S
N106 C104 1.348 . S
N106 C108 1.346 . S
C107 C104 1.485 . S
C107 H111 0.960 . S
C107 H112 0.961 . S
C107 H113 0.960 . S
C108 N106 1.346 . S
C108 N109 1.307 . S
C108 C110 1.486 . S
N109 N105 1.370 . S
N109 C108 1.307 . S
C110 C108 1.486 . S
C110 H114 0.960 . S
C110 H115 0.960 . S
C110 H116 0.959 . S
H111 C107 0.960 . S
H112 C107 0.961 . S
H113 C107 0.960 . S
H114 C110 0.960 . S
H115 C110 0.960 . S
H116 C110 0.959 . S
C117 N118 1.317 . S
C117 N119 1.348 . S
C117 C120 1.482 . S
N118 C117 1.317 . S
N118 N122 1.370 . S
N119 C117 1.348 . S
N119 C121 1.346 . S
C120 C117 1.482 . S
C120 H124 0.961 1_556 S
C120 H125 0.963 1_556 S
C120 H126 0.960 1_556 S
C121 N119 1.346 . S
C121 N122 1.307 . S
C121 C123 1.486 . S
N122 N118 1.370 . S
N122 C121 1.307 . S
C123 C121 1.486 . S
C123 H127 0.960 . S
C123 H128 0.960 . S
C123 H129 0.959 . S
H124 C120 0.961 1_554 S
H125 C120 0.963 1_554 S
H126 C120 0.960 1_554 S
H127 C123 0.960 . S
H128 C123 0.960 . S
H129 C123 0.959 . S
C130 N131 1.317 . S
C130 N132 1.348 . S
C130 C133 1.485 1_556 S
N131 C130 1.317 . S
N131 N135 1.370 . S
N132 C130 1.348 . S
N132 C134 1.346 . S
C133 C130 1.485 1_554 S
C133 H137 0.960 . S
C133 H138 0.961 . S
C133 H139 0.960 . S
C134 N132 1.346 . S
C134 N135 1.307 . S
C134 C136 1.486 . S
N135 N131 1.370 . S
N135 C134 1.307 . S
C136 C134 1.486 . S
C136 H140 0.960 . S
C136 H141 0.960 . S
C136 H142 0.959 . S
H137 C133 0.960 . S
H138 C133 0.961 . S
H139 C133 0.960 . S
H140 C136 0.960 . S
H141 C136 0.960 . S
H142 C136 0.959 . S
C143 N144 1.317 . S
C143 N145 1.348 . S
C143 C146 1.485 1_556 S
N144 C143 1.317 . S
N144 N148 1.370 . S
N145 C143 1.348 . S
N145 C147 1.346 . S
C146 C143 1.485 1_554 S
C146 H150 0.960 . S
C146 H151 0.961 . S
C146 H152 0.960 . S
C147 N145 1.346 . S
C147 N148 1.307 . S
C147 C149 1.486 . S
N148 N144 1.370 . S
N148 C147 1.307 . S
C149 C147 1.486 . S
C149 H153 0.960 . S
C149 H154 0.960 . S
C149 H155 0.959 . S
H150 C146 0.960 . S
H151 C146 0.961 . S
H152 C146 0.960 . S
H153 C149 0.960 . S
H154 C149 0.960 . S
H155 C149 0.959 . S
C156 N157 1.317 . S
C156 N158 1.348 . S
C156 C159 1.485 . S
N157 C156 1.317 . S
N157 N161 1.370 . S
N158 C156 1.348 . S
N158 C160 1.346 . S
C159 C156 1.485 . S
C159 H163 0.960 . S
C159 H164 0.961 . S
C159 H165 0.960 . S
C160 N158 1.346 . S
C160 N161 1.307 . S
C160 C162 1.486 . S
N161 N157 1.370 . S
N161 C160 1.307 . S
C162 C160 1.486 . S
C162 H166 0.960 . S
C162 H167 0.960 . S
C162 H168 0.959 . S
H163 C159 0.960 . S
H164 C159 0.961 . S
H165 C159 0.960 . S
H166 C162 0.960 . S
H167 C162 0.960 . S
H168 C162 0.959 . S
C169 N170 1.317 . S
C169 N171 1.348 . S
C169 C172 1.485 . S
N170 C169 1.317 . S
N170 N174 1.370 . S
N171 C169 1.348 . S
N171 C173 1.346 . S
C172 C169 1.485 . S
C172 H176 0.960 . S
C172 H177 0.961 . S
C172 H178 0.960 . S
C173 N171 1.346 . S
C173 N174 1.307 . S
C173 C175 1.486 . S
N174 N170 1.370 . S
N174 C173 1.307 . S
C175 C173 1.486 . S
C175 H179 0.960 . S
C175 H180 0.960 . S
C175 H181 0.959 . S
H176 C172 0.960 . S
H177 C172 0.961 . S
H178 C172 0.960 . S
H179 C175 0.960 . S
H180 C175 0.960 . S
H181 C175 0.959 . S
C182 N183 1.317 . S
C182 N184 1.348 . S
C182 C185 1.485 . S
N183 C182 1.317 . S
N183 N187 1.370 . S
N184 C182 1.348 . S
N184 C186 1.346 . S
C185 C182 1.485 . S
C185 H189 0.960 . S
C185 H190 0.961 . S
C185 H191 0.960 . S
C186 N184 1.346 . S
C186 N187 1.307 . S
C186 C188 1.486 . S
N187 N183 1.370 . S
N187 C186 1.307 . S
C188 C186 1.486 . S
C188 H192 0.960 . S
C188 H193 0.960 . S
C188 H194 0.959 . S
H189 C185 0.960 . S
H190 C185 0.961 . S
H191 C185 0.960 . S
H192 C188 0.960 . S
H193 C188 0.960 . S
H194 C188 0.959 . S
C195 N196 1.317 . S
C195 N197 1.348 . S
C195 C198 1.485 . S
N196 C195 1.317 . S
N196 N200 1.370 . S
N197 C195 1.348 . S
N197 C199 1.346 . S
C198 C195 1.485 . S
C198 H202 0.960 . S
C198 H203 0.961 . S
C198 H204 0.960 . S
C199 N197 1.346 . S
C199 N200 1.307 . S
C199 C201 1.486 . S
N200 N196 1.370 . S
N200 C199 1.307 . S
C201 C199 1.486 . S
C201 H205 0.960 . S
C201 H206 0.960 . S
C201 H207 0.959 . S
H202 C198 0.960 . S
H203 C198 0.961 . S
H204 C198 0.960 . S
H205 C201 0.960 . S
H206 C201 0.960 . S
H207 C201 0.959 . S
C208 N209 1.317 . S
C208 N210 1.348 . S
C208 C211 1.485 . S
N209 C208 1.317 . S
N209 N213 1.370 . S
N210 C208 1.348 . S
N210 C212 1.346 . S
C211 C208 1.485 . S
C211 H215 0.960 . S
C211 H216 0.961 . S
C211 H217 0.960 . S
C212 N210 1.346 . S
C212 N213 1.307 . S
C212 C214 1.486 . S
N213 N209 1.370 . S
N213 C212 1.307 . S
C214 C212 1.486 . S
C214 H218 0.960 . S
C214 H219 0.960 . S
C214 H220 0.959 . S
H215 C211 0.960 . S
H216 C211 0.961 . S
H217 C211 0.960 . S
H218 C214 0.960 . S
H219 C214 0.960 . S
H220 C214 0.959 . S
C221 N222 1.317 . S
C221 N223 1.348 . S
C221 C224 1.485 . S
N222 C221 1.317 . S
N222 N226 1.370 . S
N223 C221 1.348 . S
N223 C225 1.346 . S
C224 C221 1.485 . S
C224 H228 0.960 . S
C224 H229 0.961 . S
C224 H230 0.960 . S
C225 N223 1.346 . S
C225 N226 1.307 . S
C225 C227 1.486 . S
N226 N222 1.370 . S
N226 C225 1.307 . S
C227 C225 1.486 . S
C227 H231 0.960 . S
C227 H232 0.960 . S
C227 H233 0.959 . S
H228 C224 0.960 . S
H229 C224 0.961 . S
H230 C224 0.960 . S
H231 C227 0.960 . S
H232 C227 0.960 . S
H233 C227 0.959 . S
Eu234 N265 2.657 . S
Eu234 N272 2.609 . S
Eu234 O278 2.558 . S
Eu234 O279 2.612 1_566 S
Eu234 O281 2.339 1_565 S
Eu234 O282 2.563 1_565 S
Eu234 O283 2.419 1_565 S
Eu234 O285 2.380 1_556 S
Eu234 O286 2.432 1_556 S
Eu234 C298 2.848 1_565 S
C235 C238 1.429 . S
C235 C239 1.411 . S
C235 N242 1.377 . S
C236 C238 1.420 . S
C236 C240 1.423 . S
C236 C248 1.392 . S
C237 C239 1.420 . S
C237 C240 1.351 . S
C237 H260 0.931 . S
C238 C235 1.429 . S
C238 C236 1.420 . S
C238 N246 1.362 . S
C239 C235 1.411 . S
C239 C237 1.420 . S
C239 C244 1.395 . S
C240 C236 1.423 . S
C240 C237 1.351 . S
C240 H252 0.930 . S
C241 C243 1.400 . S
C241 C244 1.386 . S
C241 H253 0.930 . S
N242 C235 1.377 . S
N242 C243 1.321 . S
N242 Eu245 2.609 . S
C243 C241 1.400 . S
C243 N242 1.321 . S
C243 H250 0.930 . S
C244 C239 1.395 . S
C244 C241 1.386 . S
C244 H263 0.930 . S
Eu245 N242 2.609 . S
Eu245 N246 2.657 . S
Eu245 O279 2.380 . S
Eu245 O280 2.432 . S
Eu245 O284 2.558 . S
Eu245 O285 2.612 1_545 S
Eu245 O287 2.339 1_545 S
Eu245 O288 2.563 1_545 S
Eu245 O289 2.419 1_545 S
Eu245 C309 2.848 1_545 S
N246 C238 1.362 . S
N246 Eu245 2.657 . S
N246 C247 1.334 . S
C247 N246 1.334 . S
C247 C249 1.413 . S
C247 H254 0.929 . S
C248 C236 1.392 . S
C248 C249 1.367 . S
C248 H256 0.930 . S
C249 C247 1.413 . S
C249 C248 1.367 . S
C249 H251 0.930 . S
H250 C243 0.930 . S
H251 C249 0.930 . S
H252 C240 0.930 . S
H253 C241 0.930 . S
H254 C247 0.929 . S
H255 C269 0.930 . S
H256 C248 0.930 . S
H257 C275 0.930 . S
H258 C266 0.929 1_545 S
H259 C273 0.930 . S
H260 C237 0.931 . S
H261 C267 0.930 . S
H262 C300 0.930 . S
H263 C244 0.930 . S
H264 C299 0.931 . S
N265 Eu234 2.657 . S
N265 C266 1.334 . S
N265 C270 1.362 . S
C266 H258 0.929 1_565 S
C266 N265 1.334 . S
C266 C269 1.413 . S
C267 H261 0.930 . S
C267 C268 1.392 . S
C267 C269 1.367 . S
C268 C267 1.392 . S
C268 C270 1.420 . S
C268 C300 1.423 . S
C269 H255 0.930 . S
C269 C266 1.413 . S
C269 C267 1.367 . S
C270 N265 1.362 . S
C270 C268 1.420 . S
C270 C274 1.429 . S
H271 C276 0.930 . S
N272 Eu234 2.609 . S
N272 C274 1.377 . S
N272 C275 1.321 . S
C273 H259 0.930 . S
C273 C275 1.400 . S
C273 C276 1.386 . S
C274 C270 1.429 . S
C274 N272 1.377 . S
C274 C277 1.411 . S
C275 H257 0.930 . S
C275 N272 1.321 . S
C275 C273 1.400 . S
C276 H271 0.930 . S
C276 C273 1.386 . S
C276 C277 1.395 . S
C277 C274 1.411 . S
C277 C276 1.395 . S
C277 C299 1.420 . S
O278 Eu234 2.558 . S
O278 C298 1.257 1_565 S
O279 Eu234 2.612 1_544 S
O279 Eu245 2.380 . S
O279 C290 1.275 1_554 S
O280 Eu245 2.432 . S
O280 C297 1.264 . S
O281 Eu234 2.339 1_545 S
O281 C297 1.254 1_556 S
O282 Eu234 2.563 1_545 S
O282 C290 1.237 . S
O283 Eu234 2.419 1_545 S
O283 C298 1.249 . S
O284 Eu245 2.558 . S
O284 C309 1.257 1_545 S
O285 Eu234 2.380 1_554 S
O285 Eu245 2.612 1_565 S
O285 C301 1.276 . S
O286 Eu234 2.432 1_554 S
O286 C308 1.264 . S
O287 Eu245 2.339 1_565 S
O287 C308 1.254 . S
O288 Eu245 2.563 1_565 S
O288 C301 1.235 . S
O289 Eu245 2.419 1_565 S
O289 C309 1.249 . S
C290 O279 1.275 1_556 S
C290 O282 1.237 . S
C291 C293 1.393 . S
C291 C295 1.395 . S
C291 C298 1.492 . S
C292 C293 1.392 . S
C292 C294 1.386 . S
C293 C291 1.393 . S
C293 C292 1.392 . S
C293 H310 0.930 . S
C294 C292 1.386 . S
C294 C296 1.395 . S
C294 H311 0.930 . S
C295 C291 1.395 . S
C295 C296 1.379 . S
C295 H312 0.930 1_545 S
C296 C294 1.395 . S
C296 C295 1.379 . S
C296 H313 0.930 . S
C297 O280 1.264 . S
C297 O281 1.254 1_554 S
C298 Eu234 2.848 1_545 S
C298 O278 1.257 1_545 S
C298 O283 1.249 . S
C298 C291 1.492 . S
C299 H264 0.931 . S
C299 C277 1.420 . S
C299 C300 1.351 . S
C300 H262 0.930 . S
C300 C268 1.423 . S
C300 C299 1.351 . S
C301 O285 1.276 . S
C301 O288 1.235 . S
C302 C303 1.393 . S
C302 C306 1.395 . S
C302 C309 1.492 . S
C303 C302 1.393 . S
C303 C304 1.392 . S
C303 H314 0.930 . S
C304 C303 1.392 . S
C304 C305 1.386 . S
C305 C304 1.386 . S
C305 C307 1.395 . S
C305 H315 0.930 . S
C306 C302 1.395 . S
C306 C307 1.379 . S
C306 H316 0.930 1_565 S
C307 C305 1.395 . S
C307 C306 1.379 . S
C307 H317 0.930 . S
C308 O286 1.264 . S
C308 O287 1.254 . S
C309 Eu245 2.848 1_565 S
C309 O284 1.257 1_565 S
C309 O289 1.249 . S
C309 C302 1.492 . S
H310 C293 0.930 . S
H311 C294 0.930 . S
H312 C295 0.930 1_565 S
H313 C296 0.930 . S
H314 C303 0.930 . S
H315 C305 0.930 . S
H316 C306 0.930 1_545 S
H317 C307 0.930 . S
Eu318 N349 2.657 . S
Eu318 N356 2.609 . S
Eu318 O362 2.558 . S
Eu318 O363 2.612 1_456 S
Eu318 O365 2.339 1_455 S
Eu318 O366 2.563 1_455 S
Eu318 O367 2.419 . S
Eu318 O369 2.380 1_556 S
Eu318 O370 2.432 . S
Eu318 C382 2.848 . S
C319 C322 1.429 . S
C319 C323 1.411 . S
C319 N326 1.377 . S
C320 C322 1.420 . S
C320 C324 1.423 . S
C320 C332 1.392 . S
C321 C323 1.420 . S
C321 C324 1.351 . S
C321 H344 0.931 . S
C322 C319 1.429 . S
C322 C320 1.420 . S
C322 N330 1.362 . S
C323 C319 1.411 . S
C323 C321 1.420 . S
C323 C328 1.395 . S
C324 C320 1.423 . S
C324 C321 1.351 . S
C324 H336 0.930 . S
C325 C327 1.400 . S
C325 C328 1.386 . S
C325 H337 0.930 . S
N326 C319 1.377 . S
N326 C327 1.321 . S
N326 Eu329 2.609 . S
C327 C325 1.400 . S
C327 N326 1.321 . S
C327 H334 0.930 . S
C328 C323 1.395 . S
C328 C325 1.386 . S
C328 H347 0.930 . S
Eu329 N326 2.609 . S
Eu329 N330 2.657 . S
Eu329 O363 2.380 . S
Eu329 O364 2.432 . S
Eu329 O368 2.558 . S
Eu329 O369 2.612 1_655 S
Eu329 O371 2.339 1_655 S
Eu329 O372 2.563 1_655 S
Eu329 O373 2.419 . S
Eu329 C393 2.848 . S
N330 C322 1.362 . S
N330 Eu329 2.657 . S
N330 C331 1.334 . S
C331 N330 1.334 . S
C331 C333 1.413 . S
C331 H338 0.929 . S
C332 C320 1.392 . S
C332 C333 1.367 . S
C332 H340 0.930 . S
C333 C331 1.413 . S
C333 C332 1.367 . S
C333 H335 0.930 . S
H334 C327 0.930 . S
H335 C333 0.930 . S
H336 C324 0.930 . S
H337 C325 0.930 . S
H338 C331 0.929 . S
H339 C353 0.930 . S
H340 C332 0.930 . S
H341 C359 0.930 . S
H342 C350 0.929 . S
H343 C357 0.930 . S
H344 C321 0.931 . S
H345 C351 0.930 . S
H346 C384 0.930 . S
H347 C328 0.930 . S
H348 C383 0.931 . S
N349 Eu318 2.657 . S
N349 C350 1.334 . S
N349 C354 1.362 . S
C350 H342 0.929 . S
C350 N349 1.334 . S
C350 C353 1.413 . S
C351 H345 0.930 . S
C351 C352 1.392 . S
C351 C353 1.367 . S
C352 C351 1.392 . S
C352 C354 1.420 . S
C352 C384 1.423 . S
C353 H339 0.930 . S
C353 C350 1.413 . S
C353 C351 1.367 . S
C354 N349 1.362 . S
C354 C352 1.420 . S
C354 C358 1.429 . S
H355 C360 0.930 . S
N356 Eu318 2.609 . S
N356 C358 1.377 . S
N356 C359 1.321 . S
C357 H343 0.930 . S
C357 C359 1.400 . S
C357 C360 1.386 . S
C358 C354 1.429 . S
C358 N356 1.377 . S
C358 C361 1.411 . S
C359 H341 0.930 . S
C359 N356 1.321 . S
C359 C357 1.400 . S
C360 H355 0.930 . S
C360 C357 1.386 . S
C360 C361 1.395 . S
C361 C358 1.411 . S
C361 C360 1.395 . S
C361 C383 1.420 . S
O362 Eu318 2.558 . S
O362 C382 1.257 . S
O363 Eu318 2.612 1_654 S
O363 Eu329 2.380 . S
O363 C374 1.276 1_554 S
O364 Eu329 2.432 . S
O364 C381 1.264 . S
O365 Eu318 2.339 1_655 S
O365 C381 1.254 1_556 S
O366 Eu318 2.563 1_655 S
O366 C374 1.235 . S
O367 Eu318 2.419 . S
O367 C382 1.249 . S
O368 Eu329 2.558 . S
O368 C393 1.257 . S
O369 Eu318 2.380 1_554 S
O369 Eu329 2.612 1_455 S
O369 C385 1.276 . S
O370 Eu318 2.432 . S
O370 C392 1.264 1_556 S
O371 Eu329 2.339 1_455 S
O371 C392 1.254 . S
O372 Eu329 2.563 1_455 S
O372 C385 1.235 . S
O373 Eu329 2.419 . S
O373 C393 1.249 . S
C374 O363 1.276 1_556 S
C374 O366 1.235 . S
C375 C377 1.393 1_455 S
C375 C379 1.395 . S
C375 C382 1.492 . S
C376 C377 1.392 . S
C376 C378 1.386 1_655 S
C377 C375 1.393 1_655 S
C377 C376 1.392 . S
C377 H394 0.930 . S
C378 C376 1.386 1_455 S
C378 C380 1.395 . S
C378 H395 0.930 . S
C379 C375 1.395 . S
C379 C380 1.379 . S
C379 H396 0.930 . S
C380 C378 1.395 . S
C380 C379 1.379 . S
C380 H397 0.930 . S
C381 O364 1.264 . S
C381 O365 1.254 1_554 S
C382 Eu318 2.848 . S
C382 O362 1.257 . S
C382 O367 1.249 . S
C382 C375 1.492 . S
C383 H348 0.931 . S
C383 C361 1.420 . S
C383 C384 1.351 . S
C384 H346 0.930 . S
C384 C352 1.423 . S
C384 C383 1.351 . S
C385 O369 1.276 . S
C385 O372 1.235 . S
C386 C387 1.393 1_655 S
C386 C390 1.395 . S
C386 C393 1.492 . S
C387 C386 1.393 1_455 S
C387 C388 1.392 . S
C387 H398 0.930 . S
C388 C387 1.392 . S
C388 C389 1.386 . S
C389 C388 1.386 . S
C389 C391 1.395 1_455 S
C389 H399 0.930 . S
C390 C386 1.395 . S
C390 C391 1.379 . S
C390 H400 0.930 . S
C391 C389 1.395 1_655 S
C391 C390 1.379 . S
C391 H401 0.930 . S
C392 O370 1.264 1_554 S
C392 O371 1.254 . S
C393 Eu329 2.848 . S
C393 O368 1.257 . S
C393 O373 1.249 . S
C393 C386 1.492 . S
H394 C377 0.930 . S
H395 C378 0.930 . S
H396 C379 0.930 . S
H397 C380 0.930 . S
H398 C387 0.930 . S
H399 C389 0.930 . S
H400 C390 0.930 . S
H401 C391 0.930 . S
Eu402 N433 2.657 . S
Eu402 N440 2.609 . S
Eu402 O446 2.558 . S
Eu402 O447 2.612 . S
Eu402 O449 2.339 . S
Eu402 O450 2.563 . S
Eu402 O451 2.419 . S
Eu402 O453 2.380 . S
Eu402 O454 2.432 . S
Eu402 C466 2.848 . S
C403 C406 1.429 . S
C403 C407 1.411 . S
C403 N410 1.377 . S
C404 C406 1.420 . S
C404 C408 1.423 . S
C404 C416 1.392 . S
C405 C407 1.420 . S
C405 C408 1.351 . S
C405 H428 0.931 . S
C406 C403 1.429 . S
C406 C404 1.420 . S
C406 N414 1.362 . S
C407 C403 1.411 . S
C407 C405 1.420 . S
C407 C412 1.395 . S
C408 C404 1.423 . S
C408 C405 1.351 . S
C408 H420 0.930 . S
C409 C411 1.400 . S
C409 C412 1.386 . S
C409 H421 0.930 . S
N410 C403 1.377 . S
N410 C411 1.321 . S
N410 Eu413 2.609 . S
C411 C409 1.400 . S
C411 N410 1.321 . S
C411 H418 0.930 . S
C412 C407 1.395 . S
C412 C409 1.386 . S
C412 H431 0.930 . S
Eu413 N410 2.609 . S
Eu413 N414 2.657 . S
Eu413 O447 2.380 1_556 S
Eu413 O448 2.432 1_556 S
Eu413 O452 2.558 . S
Eu413 O453 2.612 1_556 S
Eu413 O455 2.339 1_556 S
Eu413 O456 2.563 . S
Eu413 O457 2.419 . S
Eu413 C477 2.848 . S
N414 C406 1.362 . S
N414 Eu413 2.657 . S
N414 C415 1.334 . S
C415 N414 1.334 . S
C415 C417 1.413 . S
C415 H422 0.929 1_556 S
C416 C404 1.392 . S
C416 C417 1.367 . S
C416 H424 0.930 . S
C417 C415 1.413 . S
C417 C416 1.367 . S
C417 H419 0.930 1_556 S
H418 C411 0.930 . S
H419 C417 0.930 1_554 S
H420 C408 0.930 . S
H421 C409 0.930 . S
H422 C415 0.929 1_554 S
H423 C437 0.930 . S
H424 C416 0.930 . S
H425 C443 0.930 . S
H426 C434 0.929 . S
H427 C441 0.930 . S
H428 C405 0.931 . S
H429 C435 0.930 . S
H430 C468 0.930 . S
H431 C412 0.930 . S
H432 C467 0.931 . S
N433 Eu402 2.657 . S
N433 C434 1.334 . S
N433 C438 1.362 . S
C434 H426 0.929 . S
C434 N433 1.334 . S
C434 C437 1.413 . S
C435 H429 0.930 . S
C435 C436 1.392 . S
C435 C437 1.367 . S
C436 C435 1.392 . S
C436 C438 1.420 . S
C436 C468 1.423 . S
C437 H423 0.930 . S
C437 C434 1.413 . S
C437 C435 1.367 . S
C438 N433 1.362 . S
C438 C436 1.420 . S
C438 C442 1.429 . S
H439 C444 0.930 . S
N440 Eu402 2.609 . S
N440 C442 1.377 . S
N440 C443 1.321 . S
C441 H427 0.930 . S
C441 C443 1.400 . S
C441 C444 1.386 . S
C442 C438 1.429 . S
C442 N440 1.377 . S
C442 C445 1.411 . S
C443 H425 0.930 . S
C443 N440 1.321 . S
C443 C441 1.400 . S
C444 H439 0.930 . S
C444 C441 1.386 . S
C444 C445 1.395 . S
C445 C442 1.411 . S
C445 C444 1.395 . S
C445 C467 1.420 . S
O446 Eu402 2.558 . S
O446 C466 1.257 . S
O447 Eu402 2.612 . S
O447 Eu413 2.380 1_554 S
O447 C458 1.276 . S
O448 Eu413 2.432 1_554 S
O448 C465 1.264 . S
O449 Eu402 2.339 . S
O449 C465 1.254 . S
O450 Eu402 2.563 . S
O450 C458 1.235 . S
O451 Eu402 2.419 . S
O451 C466 1.249 . S
O452 Eu413 2.558 . S
O452 C477 1.257 . S
O453 Eu402 2.380 . S
O453 Eu413 2.612 1_554 S
O453 C469 1.276 . S
O454 Eu402 2.432 . S
O454 C476 1.264 . S
O455 Eu413 2.339 1_554 S
O455 C476 1.254 . S
O456 Eu413 2.563 . S
O456 C469 1.235 1_556 S
O457 Eu413 2.419 . S
O457 C477 1.249 . S
C458 O447 1.276 . S
C458 O450 1.235 . S
C459 C461 1.393 . S
C459 C463 1.395 . S
C459 C466 1.492 . S
C460 C461 1.392 . S
C460 C462 1.386 . S
C461 C459 1.393 . S
C461 C460 1.392 . S
C461 H478 0.930 . S
C462 C460 1.386 . S
C462 C464 1.395 . S
C462 H479 0.930 . S
C463 C459 1.395 . S
C463 C464 1.379 . S
C463 H480 0.930 . S
C464 C462 1.395 . S
C464 C463 1.379 . S
C464 H481 0.930 . S
C465 O448 1.264 . S
C465 O449 1.254 . S
C466 Eu402 2.848 . S
C466 O446 1.257 . S
C466 O451 1.249 . S
C466 C459 1.492 . S
C467 H432 0.931 . S
C467 C445 1.420 . S
C467 C468 1.351 . S
C468 H430 0.930 . S
C468 C436 1.423 . S
C468 C467 1.351 . S
C469 O453 1.276 . S
C469 O456 1.235 1_554 S
C470 C471 1.393 . S
C470 C474 1.395 . S
C470 C477 1.492 . S
C471 C470 1.393 . S
C471 C472 1.392 . S
C471 H482 0.930 . S
C472 C471 1.392 . S
C472 C473 1.386 . S
C473 C472 1.386 . S
C473 C475 1.395 . S
C473 H483 0.930 . S
C474 C470 1.395 . S
C474 C475 1.379 . S
C474 H484 0.930 . S
C475 C473 1.395 . S
C475 C474 1.379 . S
C475 H485 0.930 . S
C476 O454 1.264 . S
C476 O455 1.254 . S
C477 Eu413 2.848 . S
C477 O452 1.257 . S
C477 O457 1.249 . S
C477 C470 1.492 . S
H478 C461 0.930 . S
H479 C462 0.930 . S
H480 C463 0.930 . S
H481 C464 0.930 . S
H482 C471 0.930 . S
H483 C473 0.930 . S
H484 C474 0.930 . S
H485 C475 0.930 . S
Eu486 N517 2.657 . S
Eu486 N524 2.609 . S
Eu486 O530 2.558 . S
Eu486 O531 2.612 . S
Eu486 O533 2.339 . S
Eu486 O534 2.563 . S
Eu486 O535 2.419 . S
Eu486 O537 2.380 . S
Eu486 O538 2.432 . S
Eu486 C550 2.848 . S
C487 C490 1.429 . S
C487 C491 1.411 . S
C487 N494 1.377 . S
C488 C490 1.420 . S
C488 C492 1.423 . S
C488 C500 1.392 . S
C489 C491 1.420 . S
C489 C492 1.351 . S
C489 H512 0.931 . S
C490 C487 1.429 . S
C490 C488 1.420 . S
C490 N498 1.362 . S
C491 C487 1.411 . S
C491 C489 1.420 . S
C491 C496 1.395 . S
C492 C488 1.423 . S
C492 C489 1.351 . S
C492 H504 0.930 . S
C493 C495 1.400 . S
C493 C496 1.386 . S
C493 H505 0.930 . S
N494 C487 1.377 . S
N494 C495 1.321 . S
N494 Eu497 2.609 . S
C495 C493 1.400 . S
C495 N494 1.321 . S
C495 H502 0.930 . S
C496 C491 1.395 . S
C496 C493 1.386 . S
C496 H515 0.930 . S
Eu497 N494 2.609 . S
Eu497 N498 2.657 . S
Eu497 O531 2.380 . S
Eu497 O532 2.432 . S
Eu497 O536 2.558 . S
Eu497 O537 2.612 . S
Eu497 O539 2.339 . S
Eu497 O540 2.563 . S
Eu497 O541 2.419 . S
Eu497 C561 2.848 . S
N498 C490 1.362 . S
N498 Eu497 2.657 . S
N498 C499 1.334 . S
C499 N498 1.334 . S
C499 C501 1.413 . S
C499 H506 0.929 . S
C500 C488 1.392 . S
C500 C501 1.367 . S
C500 H508 0.930 . S
C501 C499 1.413 . S
C501 C500 1.367 . S
C501 H503 0.930 . S
H502 C495 0.930 . S
H503 C501 0.930 . S
H504 C492 0.930 . S
H505 C493 0.930 . S
H506 C499 0.929 . S
H507 C521 0.930 . S
H508 C500 0.930 . S
H509 C527 0.930 . S
H510 C518 0.929 . S
H511 C525 0.930 . S
H512 C489 0.931 . S
H513 C519 0.930 . S
H514 C552 0.930 . S
H515 C496 0.930 . S
H516 C551 0.931 . S
N517 Eu486 2.657 . S
N517 C518 1.334 . S
N517 C522 1.362 . S
C518 H510 0.929 . S
C518 N517 1.334 . S
C518 C521 1.413 . S
C519 H513 0.930 . S
C519 C520 1.392 . S
C519 C521 1.367 . S
C520 C519 1.392 . S
C520 C522 1.420 . S
C520 C552 1.423 . S
C521 H507 0.930 . S
C521 C518 1.413 . S
C521 C519 1.367 . S
C522 N517 1.362 . S
C522 C520 1.420 . S
C522 C526 1.429 . S
H523 C528 0.930 . S
N524 Eu486 2.609 . S
N524 C526 1.377 . S
N524 C527 1.321 . S
C525 H511 0.930 . S
C525 C527 1.400 . S
C525 C528 1.386 . S
C526 C522 1.429 . S
C526 N524 1.377 . S
C526 C529 1.411 . S
C527 H509 0.930 . S
C527 N524 1.321 . S
C527 C525 1.400 . S
C528 H523 0.930 . S
C528 C525 1.386 . S
C528 C529 1.395 . S
C529 C526 1.411 . S
C529 C528 1.395 . S
C529 C551 1.420 . S
O530 Eu486 2.558 . S
O530 C550 1.257 . S
O531 Eu486 2.612 . S
O531 Eu497 2.380 . S
O531 C542 1.276 . S
O532 Eu497 2.432 . S
O532 C549 1.264 . S
O533 Eu486 2.339 . S
O533 C549 1.254 . S
O534 Eu486 2.563 . S
O534 C542 1.235 . S
O535 Eu486 2.419 . S
O535 C550 1.249 . S
O536 Eu497 2.558 . S
O536 C561 1.257 . S
O537 Eu486 2.380 . S
O537 Eu497 2.612 . S
O537 C553 1.276 . S
O538 Eu486 2.432 . S
O538 C560 1.264 . S
O539 Eu497 2.339 . S
O539 C560 1.254 . S
O540 Eu497 2.563 . S
O540 C553 1.235 . S
O541 Eu497 2.419 . S
O541 C561 1.249 . S
C542 O531 1.276 . S
C542 O534 1.235 . S
C543 C545 1.393 . S
C543 C547 1.395 . S
C543 C550 1.492 . S
C544 C545 1.392 . S
C544 C546 1.386 . S
C545 C543 1.393 . S
C545 C544 1.392 . S
C545 H562 0.930 . S
C546 C544 1.386 . S
C546 C548 1.395 . S
C546 H563 0.930 . S
C547 C543 1.395 . S
C547 C548 1.379 . S
C547 H564 0.930 . S
C548 C546 1.395 . S
C548 C547 1.379 . S
C548 H565 0.930 . S
C549 O532 1.264 . S
C549 O533 1.254 . S
C550 Eu486 2.848 . S
C550 O530 1.257 . S
C550 O535 1.249 . S
C550 C543 1.492 . S
C551 H516 0.931 . S
C551 C529 1.420 . S
C551 C552 1.351 . S
C552 H514 0.930 . S
C552 C520 1.423 . S
C552 C551 1.351 . S
C553 O537 1.276 . S
C553 O540 1.235 . S
C554 C555 1.393 . S
C554 C558 1.395 . S
C554 C561 1.492 . S
C555 C554 1.393 . S
C555 C556 1.392 . S
C555 H566 0.930 . S
C556 C555 1.392 . S
C556 C557 1.386 . S
C557 C556 1.386 . S
C557 C559 1.395 . S
C557 H567 0.930 . S
C558 C554 1.395 . S
C558 C559 1.379 . S
C558 H568 0.930 . S
C559 C557 1.395 . S
C559 C558 1.379 . S
C559 H569 0.930 . S
C560 O538 1.264 . S
C560 O539 1.254 . S
C561 Eu497 2.848 . S
C561 O536 1.257 . S
C561 O541 1.249 . S
C561 C554 1.492 . S
H562 C545 0.930 . S
H563 C546 0.930 . S
H564 C547 0.930 . S
H565 C548 0.930 . S
H566 C555 0.930 . S
H567 C557 0.930 . S
H568 C558 0.930 . S
H569 C559 0.930 . S
Eu570 N601 2.657 . S
Eu570 N608 2.609 . S
Eu570 O614 2.558 . S
Eu570 O615 2.612 . S
Eu570 O617 2.339 . S
Eu570 O618 2.563 . S
Eu570 O619 2.419 . S
Eu570 O621 2.380 . S
Eu570 O622 2.432 . S
Eu570 C634 2.848 . S
C571 C574 1.429 . S
C571 C575 1.411 . S
C571 N578 1.377 . S
C572 C574 1.420 . S
C572 C576 1.423 . S
C572 C584 1.392 . S
C573 C575 1.420 . S
C573 C576 1.351 . S
C573 H596 0.931 . S
C574 C571 1.429 . S
C574 C572 1.420 . S
C574 N582 1.362 . S
C575 C571 1.411 . S
C575 C573 1.420 . S
C575 C580 1.395 . S
C576 C572 1.423 . S
C576 C573 1.351 . S
C576 H588 0.930 . S
C577 C579 1.400 . S
C577 C580 1.386 . S
C577 H589 0.930 . S
N578 C571 1.377 . S
N578 C579 1.321 . S
N578 Eu581 2.609 . S
C579 C577 1.400 . S
C579 N578 1.321 . S
C579 H586 0.930 . S
C580 C575 1.395 . S
C580 C577 1.386 . S
C580 H599 0.930 . S
Eu581 N578 2.609 . S
Eu581 N582 2.657 . S
Eu581 O615 2.380 . S
Eu581 O616 2.432 . S
Eu581 O620 2.558 . S
Eu581 O621 2.612 . S
Eu581 O623 2.339 . S
Eu581 O624 2.563 . S
Eu581 O625 2.419 . S
Eu581 C645 2.848 . S
N582 C574 1.362 . S
N582 Eu581 2.657 . S
N582 C583 1.334 . S
C583 N582 1.334 . S
C583 C585 1.413 . S
C583 H590 0.929 . S
C584 C572 1.392 . S
C584 C585 1.367 . S
C584 H592 0.930 . S
C585 C583 1.413 . S
C585 C584 1.367 . S
C585 H587 0.930 . S
H586 C579 0.930 . S
H587 C585 0.930 . S
H588 C576 0.930 . S
H589 C577 0.930 . S
H590 C583 0.929 . S
H591 C605 0.930 . S
H592 C584 0.930 . S
H593 C611 0.930 . S
H594 C602 0.929 . S
H595 C609 0.930 . S
H596 C573 0.931 . S
H597 C603 0.930 . S
H598 C636 0.930 . S
H599 C580 0.930 . S
H600 C635 0.931 . S
N601 Eu570 2.657 . S
N601 C602 1.334 . S
N601 C606 1.362 . S
C602 H594 0.929 . S
C602 N601 1.334 . S
C602 C605 1.413 . S
C603 H597 0.930 . S
C603 C604 1.392 . S
C603 C605 1.367 . S
C604 C603 1.392 . S
C604 C606 1.420 . S
C604 C636 1.423 . S
C605 H591 0.930 . S
C605 C602 1.413 . S
C605 C603 1.367 . S
C606 N601 1.362 . S
C606 C604 1.420 . S
C606 C610 1.429 . S
H607 C612 0.930 . S
N608 Eu570 2.609 . S
N608 C610 1.377 . S
N608 C611 1.321 . S
C609 H595 0.930 . S
C609 C611 1.400 . S
C609 C612 1.386 . S
C610 C606 1.429 . S
C610 N608 1.377 . S
C610 C613 1.411 . S
C611 H593 0.930 . S
C611 N608 1.321 . S
C611 C609 1.400 . S
C612 H607 0.930 . S
C612 C609 1.386 . S
C612 C613 1.395 . S
C613 C610 1.411 . S
C613 C612 1.395 . S
C613 C635 1.420 . S
O614 Eu570 2.558 . S
O614 C634 1.257 . S
O615 Eu570 2.612 . S
O615 Eu581 2.380 . S
O615 C626 1.276 . S
O616 Eu581 2.432 . S
O616 C633 1.264 . S
O617 Eu570 2.339 . S
O617 C633 1.254 . S
O618 Eu570 2.563 . S
O618 C626 1.235 . S
O619 Eu570 2.419 . S
O619 C634 1.249 . S
O620 Eu581 2.558 . S
O620 C645 1.257 . S
O621 Eu570 2.380 . S
O621 Eu581 2.612 . S
O621 C637 1.276 . S
O622 Eu570 2.432 . S
O622 C644 1.264 . S
O623 Eu581 2.339 . S
O623 C644 1.254 . S
O624 Eu581 2.563 . S
O624 C637 1.235 . S
O625 Eu581 2.419 . S
O625 C645 1.249 . S
C626 O615 1.276 . S
C626 O618 1.235 . S
C627 C629 1.393 . S
C627 C631 1.395 . S
C627 C634 1.492 . S
C628 C629 1.392 . S
C628 C630 1.386 . S
C629 C627 1.393 . S
C629 C628 1.392 . S
C629 H646 0.930 . S
C630 C628 1.386 . S
C630 C632 1.395 . S
C630 H647 0.930 . S
C631 C627 1.395 . S
C631 C632 1.379 . S
C631 H648 0.930 . S
C632 C630 1.395 . S
C632 C631 1.379 . S
C632 H649 0.930 . S
C633 O616 1.264 . S
C633 O617 1.254 . S
C634 Eu570 2.848 . S
C634 O614 1.257 . S
C634 O619 1.249 . S
C634 C627 1.492 . S
C635 H600 0.931 . S
C635 C613 1.420 . S
C635 C636 1.351 . S
C636 H598 0.930 . S
C636 C604 1.423 . S
C636 C635 1.351 . S
C637 O621 1.276 . S
C637 O624 1.235 . S
C638 C639 1.393 . S
C638 C642 1.395 . S
C638 C645 1.492 . S
C639 C638 1.393 . S
C639 C640 1.392 . S
C639 H650 0.930 . S
C640 C639 1.392 . S
C640 C641 1.386 . S
C641 C640 1.386 . S
C641 C643 1.395 . S
C641 H651 0.930 . S
C642 C638 1.395 . S
C642 C643 1.379 . S
C642 H652 0.930 . S
C643 C641 1.395 . S
C643 C642 1.379 . S
C643 H653 0.930 . S
C644 O622 1.264 . S
C644 O623 1.254 . S
C645 Eu581 2.848 . S
C645 O620 1.257 . S
C645 O625 1.249 . S
C645 C638 1.492 . S
H646 C629 0.930 . S
H647 C630 0.930 . S
H648 C631 0.930 . S
H649 C632 0.930 . S
H650 C639 0.930 . S
H651 C641 0.930 . S
H652 C642 0.930 . S
H653 C643 0.930 . S
Eu654 N685 2.657 . S
Eu654 N692 2.609 . S
Eu654 O698 2.558 . S
Eu654 O699 2.612 . S
Eu654 O701 2.339 . S
Eu654 O702 2.563 . S
Eu654 O703 2.419 . S
Eu654 O705 2.380 . S
Eu654 O706 2.432 . S
Eu654 C718 2.848 . S
C655 C658 1.429 . S
C655 C659 1.411 . S
C655 N662 1.377 . S
C656 C658 1.420 . S
C656 C660 1.423 . S
C656 C668 1.392 . S
C657 C659 1.420 . S
C657 C660 1.351 . S
C657 H680 0.931 . S
C658 C655 1.429 . S
C658 C656 1.420 . S
C658 N666 1.362 . S
C659 C655 1.411 . S
C659 C657 1.420 . S
C659 C664 1.395 . S
C660 C656 1.423 . S
C660 C657 1.351 . S
C660 H672 0.930 1_455 S
C661 C663 1.400 . S
C661 C664 1.386 . S
C661 H673 0.930 . S
N662 C655 1.377 . S
N662 C663 1.321 . S
N662 Eu665 2.609 . S
C663 C661 1.400 . S
C663 N662 1.321 . S
C663 H670 0.930 . S
C664 C659 1.395 . S
C664 C661 1.386 . S
C664 H683 0.930 . S
Eu665 N662 2.609 . S
Eu665 N666 2.657 . S
Eu665 O699 2.380 . S
Eu665 O700 2.432 . S
Eu665 O704 2.558 . S
Eu665 O705 2.612 . S
Eu665 O707 2.339 . S
Eu665 O708 2.563 . S
Eu665 O709 2.419 . S
Eu665 C729 2.848 . S
N666 C658 1.362 . S
N666 Eu665 2.657 . S
N666 C667 1.334 . S
C667 N666 1.334 . S
C667 C669 1.413 . S
C667 H674 0.929 . S
C668 C656 1.392 . S
C668 C669 1.367 . S
C668 H676 0.930 1_455 S
C669 C667 1.413 . S
C669 C668 1.367 . S
C669 H671 0.930 . S
H670 C663 0.930 . S
H671 C669 0.930 . S
H672 C660 0.930 1_655 S
H673 C661 0.930 . S
H674 C667 0.929 . S
H675 C689 0.930 . S
H676 C668 0.930 1_655 S
H677 C695 0.930 . S
H678 C686 0.929 . S
H679 C693 0.930 . S
H680 C657 0.931 . S
H681 C687 0.930 . S
H682 C720 0.930 . S
H683 C664 0.930 . S
H684 C719 0.931 . S
N685 Eu654 2.657 . S
N685 C686 1.334 . S
N685 C690 1.362 . S
C686 H678 0.929 . S
C686 N685 1.334 . S
C686 C689 1.413 . S
C687 H681 0.930 . S
C687 C688 1.392 . S
C687 C689 1.367 . S
C688 C687 1.392 . S
C688 C690 1.420 . S
C688 C720 1.423 . S
C689 H675 0.930 . S
C689 C686 1.413 . S
C689 C687 1.367 . S
C690 N685 1.362 . S
C690 C688 1.420 . S
C690 C694 1.429 . S
H691 C696 0.930 . S
N692 Eu654 2.609 . S
N692 C694 1.377 . S
N692 C695 1.321 . S
C693 H679 0.930 . S
C693 C695 1.400 . S
C693 C696 1.386 . S
C694 C690 1.429 . S
C694 N692 1.377 . S
C694 C697 1.411 . S
C695 H677 0.930 . S
C695 N692 1.321 . S
C695 C693 1.400 . S
C696 H691 0.930 . S
C696 C693 1.386 . S
C696 C697 1.395 . S
C697 C694 1.411 . S
C697 C696 1.395 . S
C697 C719 1.420 . S
O698 Eu654 2.558 . S
O698 C718 1.257 . S
O699 Eu654 2.612 . S
O699 Eu665 2.380 . S
O699 C710 1.276 . S
O700 Eu665 2.432 . S
O700 C717 1.264 . S
O701 Eu654 2.339 . S
O701 C717 1.254 . S
O702 Eu654 2.563 . S
O702 C710 1.235 . S
O703 Eu654 2.419 . S
O703 C718 1.249 . S
O704 Eu665 2.558 . S
O704 C729 1.257 . S
O705 Eu654 2.380 . S
O705 Eu665 2.612 . S
O705 C721 1.276 . S
O706 Eu654 2.432 . S
O706 C728 1.264 . S
O707 Eu665 2.339 . S
O707 C728 1.254 . S
O708 Eu665 2.563 . S
O708 C721 1.235 . S
O709 Eu665 2.419 . S
O709 C729 1.249 . S
C710 O699 1.276 . S
C710 O702 1.235 . S
C711 C713 1.393 . S
C711 C715 1.395 . S
C711 C718 1.492 . S
C712 C713 1.392 . S
C712 C714 1.386 . S
C713 C711 1.393 . S
C713 C712 1.392 . S
C713 H730 0.930 . S
C714 C712 1.386 . S
C714 C716 1.395 . S
C714 H731 0.930 . S
C715 C711 1.395 . S
C715 C716 1.379 . S
C715 H732 0.930 . S
C716 C714 1.395 . S
C716 C715 1.379 . S
C716 H733 0.930 . S
C717 O700 1.264 . S
C717 O701 1.254 . S
C718 Eu654 2.848 . S
C718 O698 1.257 . S
C718 O703 1.249 . S
C718 C711 1.492 . S
C719 H684 0.931 . S
C719 C697 1.420 . S
C719 C720 1.351 . S
C720 H682 0.930 . S
C720 C688 1.423 . S
C720 C719 1.351 . S
C721 O705 1.276 . S
C721 O708 1.235 . S
C722 C723 1.393 . S
C722 C726 1.395 . S
C722 C729 1.492 . S
C723 C722 1.393 . S
C723 C724 1.392 . S
C723 H734 0.930 . S
C724 C723 1.392 . S
C724 C725 1.386 . S
C725 C724 1.386 . S
C725 C727 1.395 . S
C725 H735 0.930 . S
C726 C722 1.395 . S
C726 C727 1.379 . S
C726 H736 0.930 . S
C727 C725 1.395 . S
C727 C726 1.379 . S
C727 H737 0.930 . S
C728 O706 1.264 . S
C728 O707 1.254 . S
C729 Eu665 2.848 . S
C729 O704 1.257 . S
C729 O709 1.249 . S
C729 C722 1.492 . S
H730 C713 0.930 . S
H731 C714 0.930 . S
H732 C715 0.930 . S
H733 C716 0.930 . S
H734 C723 0.930 . S
H735 C725 0.930 . S
H736 C726 0.930 . S
H737 C727 0.930 . S
Eu738 N769 2.657 . S
Eu738 N776 2.609 . S
Eu738 O782 2.558 . S
Eu738 O783 2.612 . S
Eu738 O785 2.339 . S
Eu738 O786 2.563 . S
Eu738 O787 2.419 . S
Eu738 O789 2.380 . S
Eu738 O790 2.432 . S
Eu738 C802 2.848 . S
C739 C742 1.429 . S
C739 C743 1.411 . S
C739 N746 1.377 . S
C740 C742 1.420 . S
C740 C744 1.423 1_655 S
C740 C752 1.392 1_655 S
C741 C743 1.420 . S
C741 C744 1.335 1_655 S
C741 H764 0.931 . S
C742 C739 1.429 . S
C742 C740 1.420 . S
C742 N750 1.362 . S
C743 C739 1.411 . S
C743 C741 1.420 . S
C743 C748 1.395 . S
C744 C740 1.423 1_455 S
C744 C741 1.335 1_455 S
C744 H756 0.946 . S
C745 C747 1.400 . S
C745 C748 1.386 . S
C745 H757 0.930 . S
N746 C739 1.377 . S
N746 C747 1.321 . S
N746 Eu749 2.609 . S
C747 C745 1.400 . S
C747 N746 1.321 . S
C747 H754 0.930 . S
C748 C743 1.395 . S
C748 C745 1.386 . S
C748 H767 0.930 . S
Eu749 N746 2.609 . S
Eu749 N750 2.657 . S
Eu749 O783 2.380 . S
Eu749 O784 2.432 . S
Eu749 O788 2.558 . S
Eu749 O789 2.612 . S
Eu749 O791 2.339 . S
Eu749 O792 2.563 . S
Eu749 O793 2.419 . S
Eu749 C813 2.848 . S
N750 C742 1.362 . S
N750 Eu749 2.657 . S
N750 C751 1.334 . S
C751 N750 1.334 . S
C751 C753 1.413 . S
C751 H758 0.929 . S
C752 C740 1.392 1_455 S
C752 C753 1.367 1_455 S
C752 H760 0.930 . S
C753 C751 1.413 . S
C753 C752 1.367 1_655 S
C753 H755 0.930 1_655 S
H754 C747 0.930 . S
H755 C753 0.930 1_455 S
H756 C744 0.946 . S
H757 C745 0.930 . S
H758 C751 0.929 . S
H759 C773 0.930 . S
H760 C752 0.930 . S
H761 C779 0.930 . S
H762 C770 0.929 . S
H763 C777 0.930 . S
H764 C741 0.931 . S
H765 C771 0.930 . S
H766 C804 0.930 . S
H767 C748 0.930 . S
H768 C803 0.931 . S
N769 Eu738 2.657 . S
N769 C770 1.334 . S
N769 C774 1.362 . S
C770 H762 0.929 . S
C770 N769 1.334 . S
C770 C773 1.413 . S
C771 H765 0.930 . S
C771 C772 1.392 . S
C771 C773 1.367 . S
C772 C771 1.392 . S
C772 C774 1.420 . S
C772 C804 1.423 . S
C773 H759 0.930 . S
C773 C770 1.413 . S
C773 C771 1.367 . S
C774 N769 1.362 . S
C774 C772 1.420 . S
C774 C778 1.429 . S
H775 C780 0.930 . S
N776 Eu738 2.609 . S
N776 C778 1.377 . S
N776 C779 1.321 . S
C777 H763 0.930 . S
C777 C779 1.400 . S
C777 C780 1.386 . S
C778 C774 1.429 . S
C778 N776 1.377 . S
C778 C781 1.411 . S
C779 H761 0.930 . S
C779 N776 1.321 . S
C779 C777 1.400 . S
C780 H775 0.930 . S
C780 C777 1.386 . S
C780 C781 1.395 . S
C781 C778 1.411 . S
C781 C780 1.395 . S
C781 C803 1.420 . S
O782 Eu738 2.558 . S
O782 C802 1.257 . S
O783 Eu738 2.612 . S
O783 Eu749 2.380 . S
O783 C794 1.276 . S
O784 Eu749 2.432 . S
O784 C801 1.264 . S
O785 Eu738 2.339 . S
O785 C801 1.254 . S
O786 Eu738 2.563 . S
O786 C794 1.235 . S
O787 Eu738 2.419 . S
O787 C802 1.249 . S
O788 Eu749 2.558 . S
O788 C813 1.257 . S
O789 Eu738 2.380 . S
O789 Eu749 2.612 . S
O789 C805 1.276 . S
O790 Eu738 2.432 . S
O790 C812 1.264 . S
O791 Eu749 2.339 . S
O791 C812 1.254 . S
O792 Eu749 2.563 . S
O792 C805 1.235 . S
O793 Eu749 2.419 . S
O793 C813 1.249 . S
C794 O783 1.276 . S
C794 O786 1.235 . S
C795 C797 1.393 . S
C795 C799 1.395 . S
C795 C802 1.492 . S
C796 C797 1.392 . S
C796 C798 1.386 . S
C797 C795 1.393 . S
C797 C796 1.392 . S
C797 H814 0.930 . S
C798 C796 1.386 . S
C798 C800 1.395 . S
C798 H815 0.930 . S
C799 C795 1.395 . S
C799 C800 1.379 . S
C799 H816 0.930 . S
C800 C798 1.395 . S
C800 C799 1.379 . S
C800 H817 0.930 . S
C801 O784 1.264 . S
C801 O785 1.254 . S
C802 Eu738 2.848 . S
C802 O782 1.257 . S
C802 O787 1.249 . S
C802 C795 1.492 . S
C803 H768 0.931 . S
C803 C781 1.420 . S
C803 C804 1.351 . S
C804 H766 0.930 . S
C804 C772 1.423 . S
C804 C803 1.351 . S
C805 O789 1.276 . S
C805 O792 1.235 . S
C806 C807 1.393 . S
C806 C810 1.395 . S
C806 C813 1.492 . S
C807 C806 1.393 . S
C807 C808 1.392 . S
C807 H818 0.930 . S
C808 C807 1.392 . S
C808 C809 1.386 . S
C809 C808 1.386 . S
C809 C811 1.395 . S
C809 H819 0.930 . S
C810 C806 1.395 . S
C810 C811 1.379 . S
C810 H820 0.930 . S
C811 C809 1.395 . S
C811 C810 1.379 . S
C811 H821 0.930 . S
C812 O790 1.264 . S
C812 O791 1.254 . S
C813 Eu749 2.848 . S
C813 O788 1.257 . S
C813 O793 1.249 . S
C813 C806 1.492 . S
H814 C797 0.930 . S
H815 C798 0.930 . S
H816 C799 0.930 . S
H817 C800 0.930 . S
H818 C807 0.930 . S
H819 C809 0.930 . S
H820 C810 0.930 . S
H821 C811 0.930 . S
Eu822 N853 2.657 . S
Eu822 N860 2.609 . S
Eu822 O866 2.558 . S
Eu822 O867 2.612 . S
Eu822 O869 2.339 . S
Eu822 O870 2.563 . S
Eu822 O871 2.419 . S
Eu822 O873 2.380 . S
Eu822 O874 2.432 . S
Eu822 C886 2.848 . S
C823 C826 1.429 . S
C823 C827 1.411 . S
C823 N830 1.377 . S
C824 C826 1.420 . S
C824 C828 1.423 . S
C824 C836 1.392 . S
C825 C827 1.420 . S
C825 C828 1.351 . S
C825 H848 0.931 . S
C826 C823 1.429 . S
C826 C824 1.420 . S
C826 N834 1.362 . S
C827 C823 1.411 . S
C827 C825 1.420 . S
C827 C832 1.395 . S
C828 C824 1.423 . S
C828 C825 1.351 . S
C828 H840 0.930 . S
C829 C831 1.400 . S
C829 C832 1.386 . S
C829 H841 0.930 . S
N830 C823 1.377 . S
N830 C831 1.321 . S
N830 Eu833 2.609 . S
C831 C829 1.400 . S
C831 N830 1.321 . S
C831 H838 0.930 . S
C832 C827 1.395 . S
C832 C829 1.386 . S
C832 H851 0.930 . S
Eu833 N830 2.609 . S
Eu833 N834 2.657 . S
Eu833 O867 2.380 . S
Eu833 O868 2.432 . S
Eu833 O872 2.558 . S
Eu833 O873 2.612 . S
Eu833 O875 2.339 . S
Eu833 O876 2.563 . S
Eu833 O877 2.419 . S
Eu833 C897 2.848 . S
N834 C826 1.362 . S
N834 Eu833 2.657 . S
N834 C835 1.334 . S
C835 N834 1.334 . S
C835 C837 1.413 . S
C835 H842 0.929 . S
C836 C824 1.392 . S
C836 C837 1.367 . S
C836 H844 0.930 . S
C837 C835 1.413 . S
C837 C836 1.367 . S
C837 H839 0.930 . S
H838 C831 0.930 . S
H839 C837 0.930 . S
H840 C828 0.930 . S
H841 C829 0.930 . S
H842 C835 0.929 . S
H843 C857 0.930 . S
H844 C836 0.930 . S
H845 C863 0.930 . S
H846 C854 0.929 . S
H847 C861 0.930 . S
H848 C825 0.931 . S
H849 C855 0.930 . S
H850 C888 0.930 . S
H851 C832 0.930 . S
H852 C887 0.931 . S
N853 Eu822 2.657 . S
N853 C854 1.334 . S
N853 C858 1.362 . S
C854 H846 0.929 . S
C854 N853 1.334 . S
C854 C857 1.413 . S
C855 H849 0.930 . S
C855 C856 1.392 . S
C855 C857 1.367 . S
C856 C855 1.392 . S
C856 C858 1.420 . S
C856 C888 1.423 . S
C857 H843 0.930 . S
C857 C854 1.413 . S
C857 C855 1.367 . S
C858 N853 1.362 . S
C858 C856 1.420 . S
C858 C862 1.429 . S
H859 C864 0.930 . S
N860 Eu822 2.609 . S
N860 C862 1.377 . S
N860 C863 1.321 . S
C861 H847 0.930 . S
C861 C863 1.400 . S
C861 C864 1.386 . S
C862 C858 1.429 . S
C862 N860 1.377 . S
C862 C865 1.411 . S
C863 H845 0.930 . S
C863 N860 1.321 . S
C863 C861 1.400 . S
C864 H859 0.930 . S
C864 C861 1.386 . S
C864 C865 1.395 . S
C865 C862 1.411 . S
C865 C864 1.395 . S
C865 C887 1.420 . S
O866 Eu822 2.558 . S
O866 C886 1.257 . S
O867 Eu822 2.612 . S
O867 Eu833 2.380 . S
O867 C878 1.276 . S
O868 Eu833 2.432 . S
O868 C885 1.264 . S
O869 Eu822 2.339 . S
O869 C885 1.254 . S
O870 Eu822 2.563 . S
O870 C878 1.235 . S
O871 Eu822 2.419 . S
O871 C886 1.249 . S
O872 Eu833 2.558 . S
O872 C897 1.257 . S
O873 Eu822 2.380 . S
O873 Eu833 2.612 . S
O873 C889 1.276 . S
O874 Eu822 2.432 . S
O874 C896 1.264 . S
O875 Eu833 2.339 . S
O875 C896 1.254 . S
O876 Eu833 2.563 . S
O876 C889 1.235 . S
O877 Eu833 2.419 . S
O877 C897 1.249 . S
C878 O867 1.276 . S
C878 O870 1.235 . S
C879 C881 1.393 . S
C879 C883 1.395 . S
C879 C886 1.492 . S
C880 C881 1.392 . S
C880 C882 1.386 . S
C881 C879 1.393 . S
C881 C880 1.392 . S
C881 H898 0.930 . S
C882 C880 1.386 . S
C882 C884 1.395 . S
C882 H899 0.930 . S
C883 C879 1.395 . S
C883 C884 1.379 . S
C883 H900 0.930 . S
C884 C882 1.395 . S
C884 C883 1.379 . S
C884 H901 0.930 . S
C885 O868 1.264 . S
C885 O869 1.254 . S
C886 Eu822 2.848 . S
C886 O866 1.257 . S
C886 O871 1.249 . S
C886 C879 1.492 . S
C887 H852 0.931 . S
C887 C865 1.420 . S
C887 C888 1.351 . S
C888 H850 0.930 . S
C888 C856 1.423 . S
C888 C887 1.351 . S
C889 O873 1.276 . S
C889 O876 1.235 . S
C890 C891 1.393 . S
C890 C894 1.395 . S
C890 C897 1.492 . S
C891 C890 1.393 . S
C891 C892 1.392 . S
C891 H902 0.930 . S
C892 C891 1.392 . S
C892 C893 1.386 . S
C893 C892 1.386 . S
C893 C895 1.395 . S
C893 H903 0.930 . S
C894 C890 1.395 . S
C894 C895 1.379 . S
C894 H904 0.930 . S
C895 C893 1.395 . S
C895 C894 1.379 . S
C895 H905 0.930 . S
C896 O874 1.264 . S
C896 O875 1.254 . S
C897 Eu833 2.848 . S
C897 O872 1.257 . S
C897 O877 1.249 . S
C897 C890 1.492 . S
H898 C881 0.930 . S
H899 C882 0.930 . S
H900 C883 0.930 . S
H901 C884 0.930 . S
H902 C891 0.930 . S
H903 C893 0.930 . S
H904 C894 0.930 . S
H905 C895 0.930 . S
Eu906 N937 2.657 . S
Eu906 N944 2.609 . S
Eu906 O950 2.558 . S
Eu906 O951 2.612 . S
Eu906 O953 2.339 . S
Eu906 O954 2.563 . S
Eu906 O955 2.419 . S
Eu906 O957 2.380 . S
Eu906 O958 2.432 . S
Eu906 C970 2.848 . S
C907 C910 1.429 . S
C907 C911 1.411 . S
C907 N914 1.377 . S
C908 C910 1.420 . S
C908 C912 1.423 . S
C908 C920 1.392 . S
C909 C911 1.420 . S
C909 C912 1.351 . S
C909 H932 0.931 . S
C910 C907 1.429 . S
C910 C908 1.420 . S
C910 N918 1.362 . S
C911 C907 1.411 . S
C911 C909 1.420 . S
C911 C916 1.395 . S
C912 C908 1.423 . S
C912 C909 1.351 . S
C912 H924 0.930 . S
C913 C915 1.400 . S
C913 C916 1.386 . S
C913 H925 0.930 . S
N914 C907 1.377 . S
N914 C915 1.321 . S
N914 Eu917 2.609 . S
C915 C913 1.400 . S
C915 N914 1.321 . S
C915 H922 0.930 . S
C916 C911 1.395 . S
C916 C913 1.386 . S
C916 H935 0.930 . S
Eu917 N914 2.609 . S
Eu917 N918 2.657 . S
Eu917 O951 2.380 . S
Eu917 O952 2.432 . S
Eu917 O956 2.558 . S
Eu917 O957 2.612 . S
Eu917 O959 2.339 . S
Eu917 O960 2.563 . S
Eu917 O961 2.419 . S
Eu917 C981 2.848 . S
N918 C910 1.362 . S
N918 Eu917 2.657 . S
N918 C919 1.334 . S
C919 N918 1.334 . S
C919 C921 1.413 . S
C919 H926 0.929 . S
C920 C908 1.392 . S
C920 C921 1.367 . S
C920 H928 0.930 . S
C921 C919 1.413 . S
C921 C920 1.367 . S
C921 H923 0.930 . S
H922 C915 0.930 . S
H923 C921 0.930 . S
H924 C912 0.930 . S
H925 C913 0.930 . S
H926 C919 0.929 . S
H927 C941 0.930 . S
H928 C920 0.930 . S
H929 C947 0.930 . S
H930 C938 0.929 . S
H931 C945 0.930 . S
H932 C909 0.931 . S
H933 C939 0.930 1_455 S
H934 C972 0.930 . S
H935 C916 0.930 . S
H936 C971 0.931 . S
N937 Eu906 2.657 . S
N937 C938 1.334 . S
N937 C942 1.362 . S
C938 H930 0.929 . S
C938 N937 1.334 . S
C938 C941 1.413 . S
C939 H933 0.930 1_655 S
C939 C940 1.392 . S
C939 C941 1.367 . S
C940 C939 1.392 . S
C940 C942 1.420 . S
C940 C972 1.423 . S
C941 H927 0.930 . S
C941 C938 1.413 . S
C941 C939 1.367 . S
C942 N937 1.362 . S
C942 C940 1.420 . S
C942 C946 1.429 . S
H943 C948 0.930 . S
N944 Eu906 2.609 . S
N944 C946 1.377 . S
N944 C947 1.321 . S
C945 H931 0.930 . S
C945 C947 1.400 . S
C945 C948 1.386 . S
C946 C942 1.429 . S
C946 N944 1.377 . S
C946 C949 1.411 . S
C947 H929 0.930 . S
C947 N944 1.321 . S
C947 C945 1.400 . S
C948 H943 0.930 . S
C948 C945 1.386 . S
C948 C949 1.395 . S
C949 C946 1.411 . S
C949 C948 1.395 . S
C949 C971 1.420 . S
O950 Eu906 2.558 . S
O950 C970 1.257 . S
O951 Eu906 2.612 . S
O951 Eu917 2.380 . S
O951 C962 1.276 . S
O952 Eu917 2.432 . S
O952 C969 1.264 . S
O953 Eu906 2.339 . S
O953 C969 1.254 . S
O954 Eu906 2.563 . S
O954 C962 1.235 . S
O955 Eu906 2.419 . S
O955 C970 1.249 . S
O956 Eu917 2.558 . S
O956 C981 1.257 . S
O957 Eu906 2.380 . S
O957 Eu917 2.612 . S
O957 C973 1.276 . S
O958 Eu906 2.432 . S
O958 C980 1.264 . S
O959 Eu917 2.339 . S
O959 C980 1.254 . S
O960 Eu917 2.563 . S
O960 C973 1.235 . S
O961 Eu917 2.419 . S
O961 C981 1.249 . S
C962 O951 1.276 . S
C962 O954 1.235 . S
C963 C965 1.393 . S
C963 C967 1.395 . S
C963 C970 1.492 . S
C964 C965 1.392 . S
C964 C966 1.386 . S
C965 C963 1.393 . S
C965 C964 1.392 . S
C965 H982 0.930 . S
C966 C964 1.386 . S
C966 C968 1.395 . S
C966 H983 0.930 . S
C967 C963 1.395 . S
C967 C968 1.379 . S
C967 H984 0.930 . S
C968 C966 1.395 . S
C968 C967 1.379 . S
C968 H985 0.930 . S
C969 O952 1.264 . S
C969 O953 1.254 . S
C970 Eu906 2.848 . S
C970 O950 1.257 . S
C970 O955 1.249 . S
C970 C963 1.492 . S
C971 H936 0.931 . S
C971 C949 1.420 . S
C971 C972 1.351 . S
C972 H934 0.930 . S
C972 C940 1.423 . S
C972 C971 1.351 . S
C973 O957 1.276 . S
C973 O960 1.235 . S
C974 C975 1.393 . S
C974 C978 1.395 . S
C974 C981 1.492 . S
C975 C974 1.393 . S
C975 C976 1.392 . S
C975 H986 0.930 . S
C976 C975 1.392 . S
C976 C977 1.386 . S
C977 C976 1.386 . S
C977 C979 1.395 . S
C977 H987 0.930 . S
C978 C974 1.395 . S
C978 C979 1.379 . S
C978 H988 0.930 . S
C979 C977 1.395 . S
C979 C978 1.379 . S
C979 H989 0.930 . S
C980 O958 1.264 . S
C980 O959 1.254 . S
C981 Eu917 2.848 . S
C981 O956 1.257 . S
C981 O961 1.249 . S
C981 C974 1.492 . S
H982 C965 0.930 . S
H983 C966 0.930 . S
H984 C967 0.930 . S
H985 C968 0.930 . S
H986 C975 0.930 . S
H987 C977 0.930 . S
H988 C978 0.930 . S
H989 C979 0.930 . S
H990 C996 0.930 . S
H991 C999 0.930 . S
H992 C1000 0.930 . S
H993 C1001 0.930 . S
H994 C1004 0.930 . S
H995 C1005 0.930 . S
C996 H990 0.930 . S
C996 C997 1.355 . S
C996 C998 1.415 . S
C997 C996 1.355 . S
C997 C999 1.419 . S
C998 C996 1.415 . S
C998 C1003 1.425 . S
C998 C1005 1.409 . S
C999 H991 0.930 . S
C999 C997 1.419 . S
C999 C1000 1.362 . S
C1000 H992 0.930 . S
C1000 C999 1.362 . S
C1000 C1003 1.409 . S
C1001 H993 0.930 . S
C1001 C1002 1.355 . S
C1001 C1003 1.415 . S
C1002 C1001 1.355 . S
C1002 C1004 1.419 . S
C1003 C998 1.425 . S
C1003 C1000 1.409 . S
C1003 C1001 1.415 . S
C1004 H994 0.930 . S
C1004 C1002 1.419 . S
C1004 C1005 1.362 . S
C1005 H995 0.930 . S
C1005 C998 1.409 . S
C1005 C1004 1.362 . S
H1006 C1012 0.930 . S
H1007 C1015 0.930 . S
H1008 C1016 0.930 . S
H1009 C1017 0.930 . S
H1010 C1020 0.930 . S
H1011 C1021 0.930 . S
C1012 H1006 0.930 . S
C1012 C1013 1.355 . S
C1012 C1014 1.415 . S
C1013 C1012 1.355 . S
C1013 C1015 1.419 . S
C1014 C1012 1.415 . S
C1014 C1019 1.425 . S
C1014 C1021 1.409 . S
C1015 H1007 0.930 . S
C1015 C1013 1.419 . S
C1015 C1016 1.362 . S
C1016 H1008 0.930 . S
C1016 C1015 1.362 . S
C1016 C1019 1.409 . S
C1017 H1009 0.930 . S
C1017 C1018 1.355 . S
C1017 C1019 1.415 . S
C1018 C1017 1.355 . S
C1018 C1020 1.419 . S
C1019 C1014 1.425 . S
C1019 C1016 1.409 . S
C1019 C1017 1.415 . S
C1020 H1010 0.930 . S
C1020 C1018 1.419 . S
C1020 C1021 1.362 . S
C1021 H1011 0.930 . S
C1021 C1014 1.409 . S
C1021 C1020 1.362 . S
H1022 C1028 0.930 . S
H1023 C1031 0.930 . S
H1024 C1032 0.930 . S
H1025 C1033 0.930 . S
H1026 C1036 0.930 . S
H1027 C1037 0.930 . S
C1028 H1022 0.930 . S
C1028 C1029 1.355 . S
C1028 C1030 1.415 . S
C1029 C1028 1.355 . S
C1029 C1031 1.419 . S
C1030 C1028 1.415 . S
C1030 C1035 1.425 . S
C1030 C1037 1.409 . S
C1031 H1023 0.930 . S
C1031 C1029 1.419 . S
C1031 C1032 1.362 . S
C1032 H1024 0.930 . S
C1032 C1031 1.362 . S
C1032 C1035 1.409 . S
C1033 H1025 0.930 . S
C1033 C1034 1.355 . S
C1033 C1035 1.415 . S
C1034 C1033 1.355 . S
C1034 C1036 1.419 . S
C1035 C1030 1.425 . S
C1035 C1032 1.409 . S
C1035 C1033 1.415 . S
C1036 H1026 0.930 . S
C1036 C1034 1.419 . S
C1036 C1037 1.362 . S
C1037 H1027 0.930 . S
C1037 C1030 1.409 . S
C1037 C1036 1.362 . S
H1038 C1044 0.930 1_554 S
H1039 C1047 0.930 . S
H1040 C1048 0.930 . S
H1041 C1049 0.930 . S
H1042 C1052 0.930 . S
H1043 C1053 0.930 . S
C1044 H1038 0.930 1_556 S
C1044 C1045 1.355 . S
C1044 C1046 1.415 . S
C1045 C1044 1.355 . S
C1045 C1047 1.419 . S
C1046 C1044 1.415 . S
C1046 C1051 1.425 . S
C1046 C1053 1.409 1_556 S
C1047 H1039 0.930 . S
C1047 C1045 1.419 . S
C1047 C1048 1.362 . S
C1048 H1040 0.930 . S
C1048 C1047 1.362 . S
C1048 C1051 1.409 . S
C1049 H1041 0.930 . S
C1049 C1050 1.355 . S
C1049 C1051 1.415 . S
C1050 C1049 1.355 . S
C1050 C1052 1.419 1_556 S
C1051 C1046 1.425 . S
C1051 C1048 1.409 . S
C1051 C1049 1.415 . S
C1052 H1042 0.930 . S
C1052 C1050 1.419 1_554 S
C1052 C1053 1.362 . S
C1053 H1043 0.930 . S
C1053 C1046 1.409 1_554 S
C1053 C1052 1.362 . S
H1054 C1060 0.930 1_554 S
H1055 C1063 0.930 . S
H1056 C1064 0.930 . S
H1057 C1065 0.930 . S
H1058 C1068 0.930 . S
H1059 C1069 0.930 . S
C1060 H1054 0.930 1_556 S
C1060 C1061 1.355 . S
C1060 C1062 1.425 . S
C1061 C1060 1.355 . S
C1061 C1063 1.419 . S
C1062 C1060 1.425 . S
C1062 C1067 1.454 . S
C1062 C1069 1.372 1_556 S
C1063 H1055 0.930 . S
C1063 C1061 1.419 . S
C1063 C1064 1.362 . S
C1064 H1056 0.930 . S
C1064 C1063 1.362 . S
C1064 C1067 1.409 . S
C1065 H1057 0.930 . S
C1065 C1066 1.355 1_556 S
C1065 C1067 1.415 . S
C1066 C1065 1.355 1_554 S
C1066 C1068 1.419 . S
C1067 C1062 1.454 . S
C1067 C1064 1.409 . S
C1067 C1065 1.415 . S
C1068 H1058 0.930 . S
C1068 C1066 1.419 . S
C1068 C1069 1.362 . S
C1069 H1059 0.930 . S
C1069 C1062 1.372 1_554 S
C1069 C1068 1.362 . S
H1070 C1076 0.930 1_554 S
H1071 C1079 0.930 . S
H1072 C1080 0.930 . S
H1073 C1081 0.930 . S
H1074 C1084 0.930 . S
H1075 C1085 0.930 . S
C1076 H1070 0.930 1_556 S
C1076 C1077 1.355 . S
C1076 C1078 1.415 . S
C1077 C1076 1.355 . S
C1077 C1079 1.419 . S
C1078 C1076 1.415 . S
C1078 C1083 1.425 . S
C1078 C1085 1.409 1_556 S
C1079 H1071 0.930 . S
C1079 C1077 1.419 . S
C1079 C1080 1.362 . S
C1080 H1072 0.930 . S
C1080 C1079 1.362 . S
C1080 C1083 1.409 . S
C1081 H1073 0.930 . S
C1081 C1082 1.355 1_556 S
C1081 C1083 1.415 . S
C1082 C1081 1.355 1_554 S
C1082 C1084 1.419 . S
C1083 C1078 1.425 . S
C1083 C1080 1.409 . S
C1083 C1081 1.415 . S
C1084 H1074 0.930 . S
C1084 C1082 1.419 . S
C1084 C1085 1.362 . S
C1085 H1075 0.930 . S
C1085 C1078 1.409 1_554 S
C1085 C1084 1.362 . S
H1086 C1092 0.930 . S
H1087 C1095 0.930 . S
H1088 C1096 0.930 . S
H1089 C1097 0.930 . S
H1090 C1100 0.930 . S
H1091 C1101 0.930 . S
C1092 H1086 0.930 . S
C1092 C1093 1.355 . S
C1092 C1094 1.415 . S
C1093 C1092 1.355 . S
C1093 C1095 1.419 1_556 S
C1094 C1092 1.415 . S
C1094 C1099 1.393 1_556 S
C1094 C1101 1.409 . S
C1095 H1087 0.930 . S
C1095 C1093 1.419 1_554 S
C1095 C1096 1.362 . S
C1096 H1088 0.930 . S
C1096 C1095 1.362 . S
C1096 C1099 1.430 . S
C1097 H1089 0.930 . S
C1097 C1098 1.355 1_554 S
C1097 C1099 1.425 . S
C1098 C1097 1.355 1_556 S
C1098 C1100 1.419 . S
C1099 C1094 1.393 1_554 S
C1099 C1096 1.430 . S
C1099 C1097 1.425 . S
C1100 H1090 0.930 . S
C1100 C1098 1.419 . S
C1100 C1101 1.362 . S
C1101 H1091 0.930 . S
C1101 C1094 1.409 . S
C1101 C1100 1.362 . S
H1102 C1108 0.930 . S
H1103 C1111 0.930 . S
H1104 C1112 0.930 . S
H1105 C1113 0.930 . S
H1106 C1116 0.930 . S
H1107 C1117 0.930 . S
C1108 H1102 0.930 . S
C1108 C1109 1.355 . S
C1108 C1110 1.415 . S
C1109 C1108 1.355 . S
C1109 C1111 1.419 . S
C1110 C1108 1.415 . S
C1110 C1115 1.425 . S
C1110 C1117 1.409 1_556 S
C1111 H1103 0.930 . S
C1111 C1109 1.419 . S
C1111 C1112 1.362 . S
C1112 H1104 0.930 . S
C1112 C1111 1.362 . S
C1112 C1115 1.409 . S
C1113 H1105 0.930 . S
C1113 C1114 1.355 . S
C1113 C1115 1.415 . S
C1114 C1113 1.355 . S
C1114 C1116 1.419 1_556 S
C1115 C1110 1.425 . S
C1115 C1112 1.409 . S
C1115 C1113 1.415 . S
C1116 H1106 0.930 . S
C1116 C1114 1.419 1_554 S
C1116 C1117 1.362 . S
C1117 H1107 0.930 . S
C1117 C1110 1.409 1_554 S
C1117 C1116 1.362 . S
H1118 C1124 0.930 . S
H1119 C1127 0.930 . S
H1120 C1128 0.930 . S
H1121 C1129 0.930 . S
H1122 C1132 0.930 . S
H1123 C1133 0.930 . S
C1124 H1118 0.930 . S
C1124 C1125 1.355 1_554 S
C1124 C1126 1.415 . S
C1125 C1124 1.355 1_556 S
C1125 C1127 1.419 . S
C1126 C1124 1.415 . S
C1126 C1131 1.425 1_554 S
C1126 C1133 1.409 . S
C1127 H1119 0.930 . S
C1127 C1125 1.419 . S
C1127 C1128 1.362 . S
C1128 H1120 0.930 . S
C1128 C1127 1.362 . S
C1128 C1131 1.409 . S
C1129 H1121 0.930 . S
C1129 C1130 1.355 1_556 S
C1129 C1131 1.415 . S
C1130 C1129 1.355 1_554 S
C1130 C1132 1.419 . S
C1131 C1126 1.425 1_556 S
C1131 C1128 1.409 . S
C1131 C1129 1.415 . S
C1132 H1122 0.930 . S
C1132 C1130 1.419 . S
C1132 C1133 1.362 . S
C1133 H1123 0.930 . S
C1133 C1126 1.409 . S
C1133 C1132 1.362 . S
H1134 C1140 0.930 . S
H1135 C1143 0.930 . S
H1136 C1144 0.930 . S
H1137 C1145 0.930 . S
H1138 C1148 0.930 1_556 S
H1139 C1149 0.930 1_556 S
C1140 H1134 0.930 . S
C1140 C1141 1.355 . S
C1140 C1142 1.415 . S
C1141 C1140 1.355 . S
C1141 C1143 1.419 . S
C1142 C1140 1.415 . S
C1142 C1147 1.425 . S
C1142 C1149 1.409 . S
C1143 H1135 0.930 . S
C1143 C1141 1.419 . S
C1143 C1144 1.362 . S
C1144 H1136 0.930 . S
C1144 C1143 1.362 . S
C1144 C1147 1.409 . S
C1145 H1137 0.930 . S
C1145 C1146 1.355 . S
C1145 C1147 1.415 . S
C1146 C1145 1.355 . S
C1146 C1148 1.419 . S
C1147 C1142 1.425 . S
C1147 C1144 1.409 . S
C1147 C1145 1.415 . S
C1148 H1138 0.930 1_554 S
C1148 C1146 1.419 . S
C1148 C1149 1.362 . S
C1149 H1139 0.930 1_554 S
C1149 C1142 1.409 . S
C1149 C1148 1.362 . S
H1150 C1156 0.930 . S
H1151 C1159 0.930 . S
H1152 C1160 0.930 . S
H1153 C1161 0.930 . S
H1154 C1164 0.930 . S
H1155 C1165 0.930 . S
C1156 H1150 0.930 . S
C1156 C1157 1.355 . S
C1156 C1158 1.415 . S
C1157 C1156 1.355 . S
C1157 C1159 1.419 . S
C1158 C1156 1.415 . S
C1158 C1163 1.425 . S
C1158 C1165 1.409 . S
C1159 H1151 0.930 . S
C1159 C1157 1.419 . S
C1159 C1160 1.362 . S
C1160 H1152 0.930 . S
C1160 C1159 1.362 . S
C1160 C1163 1.409 . S
C1161 H1153 0.930 . S
C1161 C1162 1.355 . S
C1161 C1163 1.415 . S
C1162 C1161 1.355 . S
C1162 C1164 1.419 . S
C1163 C1158 1.425 . S
C1163 C1160 1.409 . S
C1163 C1161 1.415 . S
C1164 H1154 0.930 . S
C1164 C1162 1.419 . S
C1164 C1165 1.362 . S
C1165 H1155 0.930 . S
C1165 C1158 1.409 . S
C1165 C1164 1.362 . S
H1166 C1172 0.930 . S
H1167 C1175 0.930 . S
H1168 C1176 0.930 . S
H1169 C1177 0.930 . S
H1170 C1180 0.930 . S
H1171 C1181 0.930 . S
C1172 H1166 0.930 . S
C1172 C1173 1.355 . S
C1172 C1174 1.415 . S
C1173 C1172 1.355 . S
C1173 C1175 1.419 . S
C1174 C1172 1.415 . S
C1174 C1179 1.425 . S
C1174 C1181 1.409 . S
C1175 H1167 0.930 . S
C1175 C1173 1.419 . S
C1175 C1176 1.362 . S
C1176 H1168 0.930 . S
C1176 C1175 1.362 . S
C1176 C1179 1.409 . S
C1177 H1169 0.930 . S
C1177 C1178 1.355 . S
C1177 C1179 1.415 . S
C1178 C1177 1.355 . S
C1178 C1180 1.419 . S
C1179 C1174 1.425 . S
C1179 C1176 1.409 . S
C1179 C1177 1.415 . S
C1180 H1170 0.930 . S
C1180 C1178 1.419 . S
C1180 C1181 1.362 . S
C1181 H1171 0.930 . S
C1181 C1174 1.409 . S
C1181 C1180 1.362 . S
H1182 C1188 0.930 . S
H1183 C1191 0.930 . S
H1184 C1192 0.930 . S
H1185 C1193 0.930 . S
H1186 C1196 0.930 . S
H1187 C1197 0.930 . S
C1188 H1182 0.930 . S
C1188 C1189 1.355 . S
C1188 C1190 1.415 1_655 S
C1189 C1188 1.355 . S
C1189 C1191 1.419 . S
C1190 C1188 1.415 1_455 S
C1190 C1195 1.425 . S
C1190 C1197 1.409 . S
C1191 H1183 0.930 . S
C1191 C1189 1.419 . S
C1191 C1192 1.362 . S
C1192 H1184 0.930 . S
C1192 C1191 1.362 . S
C1192 C1195 1.409 1_655 S
C1193 H1185 0.930 . S
C1193 C1194 1.355 . S
C1193 C1195 1.415 . S
C1194 C1193 1.355 . S
C1194 C1196 1.419 . S
C1195 C1190 1.425 . S
C1195 C1192 1.409 1_455 S
C1195 C1193 1.415 . S
C1196 H1186 0.930 . S
C1196 C1194 1.419 . S
C1196 C1197 1.362 . S
C1197 H1187 0.930 . S
C1197 C1190 1.409 . S
C1197 C1196 1.362 . S
H1198 C1204 0.930 . S
H1199 C1207 0.930 . S
H1200 C1208 0.930 . S
H1201 C1209 0.930 . S
H1202 C1212 0.930 . S
H1203 C1213 0.930 . S
C1204 H1198 0.930 . S
C1204 C1205 1.355 . S
C1204 C1206 1.415 . S
C1205 C1204 1.355 . S
C1205 C1207 1.419 . S
C1206 C1204 1.415 . S
C1206 C1211 1.425 . S
C1206 C1213 1.409 . S
C1207 H1199 0.930 . S
C1207 C1205 1.419 . S
C1207 C1208 1.362 . S
C1208 H1200 0.930 . S
C1208 C1207 1.362 . S
C1208 C1211 1.409 . S
C1209 H1201 0.930 . S
C1209 C1210 1.355 . S
C1209 C1211 1.415 . S
C1210 C1209 1.355 . S
C1210 C1212 1.419 . S
C1211 C1206 1.425 . S
C1211 C1208 1.409 . S
C1211 C1209 1.415 . S
C1212 H1202 0.930 . S
C1212 C1210 1.419 . S
C1212 C1213 1.362 . S
C1213 H1203 0.930 . S
C1213 C1206 1.409 . S
C1213 C1212 1.362 . S
H1214 C1220 0.930 . S
H1215 C1223 0.930 . S
H1216 C1224 0.930 . S
H1217 C1225 0.930 . S
H1218 C1228 0.930 . S
H1219 C1229 0.930 . S
C1220 H1214 0.930 . S
C1220 C1221 1.355 . S
C1220 C1222 1.415 1_545 S
C1221 C1220 1.355 . S
C1221 C1223 1.419 . S
C1222 C1220 1.415 1_565 S
C1222 C1227 1.425 . S
C1222 C1229 1.409 . S
C1223 H1215 0.930 . S
C1223 C1221 1.419 . S
C1223 C1224 1.362 1_545 S
C1224 H1216 0.930 . S
C1224 C1223 1.362 1_565 S
C1224 C1227 1.409 . S
C1225 H1217 0.930 . S
C1225 C1226 1.355 . S
C1225 C1227 1.415 . S
C1226 C1225 1.355 . S
C1226 C1228 1.419 . S
C1227 C1222 1.425 . S
C1227 C1224 1.409 . S
C1227 C1225 1.415 . S
C1228 H1218 0.930 . S
C1228 C1226 1.419 . S
C1228 C1229 1.362 . S
C1229 H1219 0.930 . S
C1229 C1222 1.409 . S
C1229 C1228 1.362 . S
H1230 C1236 0.930 . S
H1231 C1239 0.930 . S
H1232 C1240 0.930 . S
H1233 C1241 0.930 . S
H1234 C1244 0.930 . S
H1235 C1245 0.930 . S
C1236 H1230 0.930 . S
C1236 C1237 1.355 . S
C1236 C1238 1.415 . S
C1237 C1236 1.355 . S
C1237 C1239 1.419 . S
C1238 C1236 1.415 . S
C1238 C1243 1.425 . S
C1238 C1245 1.409 . S
C1239 H1231 0.930 . S
C1239 C1237 1.419 . S
C1239 C1240 1.362 . S
C1240 H1232 0.930 . S
C1240 C1239 1.362 . S
C1240 C1243 1.409 . S
C1241 H1233 0.930 . S
C1241 C1242 1.355 . S
C1241 C1243 1.415 . S
C1242 C1241 1.355 . S
C1242 C1244 1.419 . S
C1243 C1238 1.425 . S
C1243 C1240 1.409 . S
C1243 C1241 1.415 . S
C1244 H1234 0.930 . S
C1244 C1242 1.419 . S
C1244 C1245 1.362 . S
C1245 H1235 0.930 . S
C1245 C1238 1.409 . S
C1245 C1244 1.362 . S
H1246 C1252 0.930 . S
H1247 C1255 0.930 . S
H1248 C1256 0.930 . S
H1249 C1257 0.930 . S
H1250 C1260 0.930 . S
H1251 C1261 0.930 . S
C1252 H1246 0.930 . S
C1252 C1253 1.355 . S
C1252 C1254 1.415 . S
C1253 C1252 1.355 . S
C1253 C1255 1.419 . S
C1254 C1252 1.415 . S
C1254 C1259 1.425 . S
C1254 C1261 1.409 . S
C1255 H1247 0.930 . S
C1255 C1253 1.419 . S
C1255 C1256 1.362 . S
C1256 H1248 0.930 . S
C1256 C1255 1.362 . S
C1256 C1259 1.409 . S
C1257 H1249 0.930 . S
C1257 C1258 1.355 . S
C1257 C1259 1.415 . S
C1258 C1257 1.355 . S
C1258 C1260 1.419 . S
C1259 C1254 1.425 . S
C1259 C1256 1.409 . S
C1259 C1257 1.415 . S
C1260 H1250 0.930 . S
C1260 C1258 1.419 . S
C1260 C1261 1.362 . S
C1261 H1251 0.930 . S
C1261 C1254 1.409 . S
C1261 C1260 1.362 . S
H1262 C1268 0.930 . S
H1263 C1271 0.930 . S
H1264 C1272 0.930 . S
H1265 C1273 0.930 . S
H1266 C1276 0.930 . S
H1267 C1277 0.930 . S
C1268 H1262 0.930 . S
C1268 C1269 1.355 . S
C1268 C1270 1.415 . S
C1269 C1268 1.355 . S
C1269 C1271 1.419 . S
C1270 C1268 1.415 . S
C1270 C1275 1.425 . S
C1270 C1277 1.409 . S
C1271 H1263 0.930 . S
C1271 C1269 1.419 . S
C1271 C1272 1.362 . S
C1272 H1264 0.930 . S
C1272 C1271 1.362 . S
C1272 C1275 1.409 . S
C1273 H1265 0.930 . S
C1273 C1274 1.355 . S
C1273 C1275 1.415 . S
C1274 C1273 1.355 . S
C1274 C1276 1.419 . S
C1275 C1270 1.425 . S
C1275 C1272 1.409 . S
C1275 C1273 1.415 . S
C1276 H1266 0.930 . S
C1276 C1274 1.419 . S
C1276 C1277 1.362 . S
C1277 H1267 0.930 . S
C1277 C1270 1.409 . S
C1277 C1276 1.362 . S
H1278 C1284 0.930 . S
H1279 C1287 0.930 . S
H1280 C1288 0.930 . S
H1281 C1289 0.930 . S
H1282 C1292 0.930 . S
H1283 C1293 0.930 . S
C1284 H1278 0.930 . S
C1284 C1285 1.355 . S
C1284 C1286 1.415 . S
C1285 C1284 1.355 . S
C1285 C1287 1.419 . S
C1286 C1284 1.415 . S
C1286 C1291 1.425 . S
C1286 C1293 1.409 . S
C1287 H1279 0.930 . S
C1287 C1285 1.419 . S
C1287 C1288 1.362 . S
C1288 H1280 0.930 . S
C1288 C1287 1.362 . S
C1288 C1291 1.409 . S
C1289 H1281 0.930 . S
C1289 C1290 1.355 . S
C1289 C1291 1.415 . S
C1290 C1289 1.355 . S
C1290 C1292 1.419 . S
C1291 C1286 1.425 . S
C1291 C1288 1.409 . S
C1291 C1289 1.415 . S
C1292 H1282 0.930 . S
C1292 C1290 1.419 . S
C1292 C1293 1.362 . S
C1293 H1283 0.930 . S
C1293 C1286 1.409 . S
C1293 C1292 1.362 . S
H1294 C1300 0.930 . S
H1295 C1303 0.930 . S
H1296 C1304 0.930 . S
H1297 C1305 0.930 . S
H1298 C1308 0.930 . S
H1299 C1309 0.930 . S
C1300 H1294 0.930 . S
C1300 C1301 1.355 . S
C1300 C1302 1.415 . S
C1301 C1300 1.355 . S
C1301 C1303 1.419 . S
C1302 C1300 1.415 . S
C1302 C1307 1.425 . S
C1302 C1309 1.409 . S
C1303 H1295 0.930 . S
C1303 C1301 1.419 . S
C1303 C1304 1.362 . S
C1304 H1296 0.930 . S
C1304 C1303 1.362 . S
C1304 C1307 1.409 . S
C1305 H1297 0.930 . S
C1305 C1306 1.355 . S
C1305 C1307 1.415 . S
C1306 C1305 1.355 . S
C1306 C1308 1.419 . S
C1307 C1302 1.425 . S
C1307 C1304 1.409 . S
C1307 C1305 1.415 . S
C1308 H1298 0.930 . S
C1308 C1306 1.419 . S
C1308 C1309 1.362 . S
C1309 H1299 0.930 . S
C1309 C1302 1.409 . S
C1309 C1308 1.362 . S
H1310 C1316 0.930 . S
H1311 C1319 0.930 . S
H1312 C1320 0.930 . S
H1313 C1321 0.930 . S
H1314 C1324 0.930 . S
H1315 C1325 0.930 . S
C1316 H1310 0.930 . S
C1316 C1317 1.355 . S
C1316 C1318 1.415 . S
C1317 C1316 1.355 . S
C1317 C1319 1.419 . S
C1318 C1316 1.415 . S
C1318 C1323 1.425 . S
C1318 C1325 1.409 . S
C1319 H1311 0.930 . S
C1319 C1317 1.419 . S
C1319 C1320 1.362 . S
C1320 H1312 0.930 . S
C1320 C1319 1.362 . S
C1320 C1323 1.409 . S
C1321 H1313 0.930 . S
C1321 C1322 1.355 . S
C1321 C1323 1.415 . S
C1322 C1321 1.355 . S
C1322 C1324 1.419 . S
C1323 C1318 1.425 . S
C1323 C1320 1.409 . S
C1323 C1321 1.415 . S
C1324 H1314 0.930 . S
C1324 C1322 1.419 . S
C1324 C1325 1.362 . S
C1325 H1315 0.930 . S
C1325 C1318 1.409 . S
C1325 C1324 1.362 . S
H1326 C1332 0.930 . S
H1327 C1335 0.930 . S
H1328 C1336 0.930 . S
H1329 C1337 0.930 . S
H1330 C1340 0.930 . S
H1331 C1341 0.930 . S
C1332 H1326 0.930 . S
C1332 C1333 1.355 . S
C1332 C1334 1.415 . S
C1333 C1332 1.355 . S
C1333 C1335 1.419 . S
C1334 C1332 1.415 . S
C1334 C1339 1.425 1_545 S
C1334 C1341 1.409 . S
C1335 H1327 0.930 . S
C1335 C1333 1.419 . S
C1335 C1336 1.362 1_545 S
C1336 H1328 0.930 . S
C1336 C1335 1.362 1_565 S
C1336 C1339 1.409 . S
C1337 H1329 0.930 . S
C1337 C1338 1.355 . S
C1337 C1339 1.415 . S
C1338 C1337 1.355 . S
C1338 C1340 1.419 . S
C1339 C1334 1.425 1_565 S
C1339 C1336 1.409 . S
C1339 C1337 1.415 . S
C1340 H1330 0.930 . S
C1340 C1338 1.419 . S
C1340 C1341 1.362 1_565 S
C1341 H1331 0.930 . S
C1341 C1334 1.409 . S
C1341 C1340 1.362 1_545 S
H1342 C1348 0.930 . S
H1343 C1351 0.930 . S
H1344 C1352 0.930 . S
H1345 C1353 0.930 . S
H1346 C1356 0.930 . S
H1347 C1357 0.930 . S
C1348 H1342 0.930 . S
C1348 C1349 1.355 1_455 S
C1348 C1350 1.415 . S
C1349 C1348 1.355 1_655 S
C1349 C1351 1.419 . S
C1350 C1348 1.415 . S
C1350 C1355 1.425 . S
C1350 C1357 1.409 . S
C1351 H1343 0.930 . S
C1351 C1349 1.419 . S
C1351 C1352 1.362 . S
C1352 H1344 0.930 . S
C1352 C1351 1.362 . S
C1352 C1355 1.409 1_655 S
C1353 H1345 0.930 . S
C1353 C1354 1.355 . S
C1353 C1355 1.415 . S
C1354 C1353 1.355 . S
C1354 C1356 1.419 . S
C1355 C1350 1.425 . S
C1355 C1352 1.409 1_455 S
C1355 C1353 1.415 . S
C1356 H1346 0.930 . S
C1356 C1354 1.419 . S
C1356 C1357 1.362 . S
C1357 H1347 0.930 . S
C1357 C1350 1.409 . S
C1357 C1356 1.362 . S
H1358 C1364 0.930 . S
H1359 C1367 0.930 . S
H1360 C1368 0.930 . S
H1361 C1369 0.930 . S
H1362 C1372 0.930 . S
H1363 C1373 0.930 . S
C1364 H1358 0.930 . S
C1364 C1365 1.355 . S
C1364 C1366 1.415 . S
C1365 C1364 1.355 . S
C1365 C1367 1.419 . S
C1366 C1364 1.415 . S
C1366 C1371 1.425 . S
C1366 C1373 1.409 . S
C1367 H1359 0.930 . S
C1367 C1365 1.419 . S
C1367 C1368 1.362 . S
C1368 H1360 0.930 . S
C1368 C1367 1.362 . S
C1368 C1371 1.409 . S
C1369 H1361 0.930 . S
C1369 C1370 1.355 . S
C1369 C1371 1.415 . S
C1370 C1369 1.355 . S
C1370 C1372 1.419 . S
C1371 C1366 1.425 . S
C1371 C1368 1.409 . S
C1371 C1369 1.415 . S
C1372 H1362 0.930 . S
C1372 C1370 1.419 . S
C1372 C1373 1.362 . S
C1373 H1363 0.930 . S
C1373 C1366 1.409 . S
C1373 C1372 1.362 . S
H1374 C1380 0.930 . S
H1375 C1383 0.930 . S
H1376 C1384 0.930 . S
H1377 C1385 0.930 . S
H1378 C1388 0.930 . S
H1379 C1389 0.930 . S
C1380 H1374 0.930 . S
C1380 C1381 1.355 . S
C1380 C1382 1.415 . S
C1381 C1380 1.355 . S
C1381 C1383 1.419 . S
C1382 C1380 1.415 . S
C1382 C1387 1.425 . S
C1382 C1389 1.409 . S
C1383 H1375 0.930 . S
C1383 C1381 1.419 . S
C1383 C1384 1.362 . S
C1384 H1376 0.930 . S
C1384 C1383 1.362 . S
C1384 C1387 1.409 . S
C1385 H1377 0.930 . S
C1385 C1386 1.355 . S
C1385 C1387 1.415 . S
C1386 C1385 1.355 . S
C1386 C1388 1.419 . S
C1387 C1382 1.425 . S
C1387 C1384 1.409 . S
C1387 C1385 1.415 . S
C1388 H1378 0.930 . S
C1388 C1386 1.419 . S
C1388 C1389 1.362 . S
C1389 H1379 0.930 . S
C1389 C1382 1.409 . S
C1389 C1388 1.362 . S
H1390 C1396 0.930 . S
H1391 C1399 0.930 . S
H1392 C1400 0.930 . S
H1393 C1401 0.930 . S
H1394 C1404 0.930 . S
H1395 C1405 0.930 . S
C1396 H1390 0.930 . S
C1396 C1397 1.355 . S
C1396 C1398 1.415 . S
C1397 C1396 1.355 . S
C1397 C1399 1.419 . S
C1398 C1396 1.415 . S
C1398 C1403 1.425 . S
C1398 C1405 1.409 . S
C1399 H1391 0.930 . S
C1399 C1397 1.419 . S
C1399 C1400 1.362 . S
C1400 H1392 0.930 . S
C1400 C1399 1.362 . S
C1400 C1403 1.409 . S
C1401 H1393 0.930 . S
C1401 C1402 1.355 . S
C1401 C1403 1.415 . S
C1402 C1401 1.355 . S
C1402 C1404 1.419 . S
C1403 C1398 1.425 . S
C1403 C1400 1.409 . S
C1403 C1401 1.415 . S
C1404 H1394 0.930 . S
C1404 C1402 1.419 . S
C1404 C1405 1.362 . S
C1405 H1395 0.930 . S
C1405 C1398 1.409 . S
C1405 C1404 1.362 . S
H1406 C1412 0.930 . S
H1407 C1415 0.930 . S
H1408 C1416 0.930 . S
H1409 C1417 0.930 . S
H1410 C1420 0.930 . S
H1411 C1421 0.930 . S
C1412 H1406 0.930 . S
C1412 C1413 1.355 . S
C1412 C1414 1.415 . S
C1413 C1412 1.355 . S
C1413 C1415 1.419 . S
C1414 C1412 1.415 . S
C1414 C1419 1.425 . S
C1414 C1421 1.409 . S
C1415 H1407 0.930 . S
C1415 C1413 1.419 . S
C1415 C1416 1.362 . S
C1416 H1408 0.930 . S
C1416 C1415 1.362 . S
C1416 C1419 1.409 . S
C1417 H1409 0.930 . S
C1417 C1418 1.355 . S
C1417 C1419 1.415 . S
C1418 C1417 1.355 . S
C1418 C1420 1.419 . S
C1419 C1414 1.425 . S
C1419 C1416 1.409 . S
C1419 C1417 1.415 . S
C1420 H1410 0.930 . S
C1420 C1418 1.419 . S
C1420 C1421 1.362 . S
C1421 H1411 0.930 . S
C1421 C1414 1.409 . S
C1421 C1420 1.362 . S
H1422 C1428 0.930 . S
H1423 C1431 0.930 . S
H1424 C1432 0.930 . S
H1425 C1433 0.930 . S
H1426 C1436 0.930 . S
H1427 C1437 0.930 . S
C1428 H1422 0.930 . S
C1428 C1429 1.355 . S
C1428 C1430 1.415 1_565 S
C1429 C1428 1.355 . S
C1429 C1431 1.419 . S
C1430 C1428 1.415 1_545 S
C1430 C1435 1.425 . S
C1430 C1437 1.409 . S
C1431 H1423 0.930 . S
C1431 C1429 1.419 . S
C1431 C1432 1.362 . S
C1432 H1424 0.930 . S
C1432 C1431 1.362 . S
C1432 C1435 1.409 1_565 S
C1433 H1425 0.930 . S
C1433 C1434 1.355 . S
C1433 C1435 1.415 . S
C1434 C1433 1.355 . S
C1434 C1436 1.419 . S
C1435 C1430 1.425 . S
C1435 C1432 1.409 1_545 S
C1435 C1433 1.415 . S
C1436 H1426 0.930 . S
C1436 C1434 1.419 . S
C1436 C1437 1.362 . S
C1437 H1427 0.930 . S
C1437 C1430 1.409 . S
C1437 C1436 1.362 . S
H1438 C1444 0.930 . S
H1439 C1447 0.930 . S
H1440 C1448 0.930 . S
H1441 C1449 0.930 . S
H1442 C1452 0.930 . S
H1443 C1453 0.930 . S
C1444 H1438 0.930 . S
C1444 C1445 1.355 . S
C1444 C1446 1.415 1_455 S
C1445 C1444 1.355 . S
C1445 C1447 1.419 1_455 S
C1446 C1444 1.415 1_655 S
C1446 C1451 1.425 . S
C1446 C1453 1.409 . S
C1447 H1439 0.930 . S
C1447 C1445 1.419 1_655 S
C1447 C1448 1.362 . S
C1448 H1440 0.930 . S
C1448 C1447 1.362 . S
C1448 C1451 1.409 . S
C1449 H1441 0.930 . S
C1449 C1450 1.355 . S
C1449 C1451 1.415 . S
C1450 C1449 1.355 . S
C1450 C1452 1.419 . S
C1451 C1446 1.425 . S
C1451 C1448 1.409 . S
C1451 C1449 1.415 . S
C1452 H1442 0.930 . S
C1452 C1450 1.419 . S
C1452 C1453 1.362 . S
C1453 H1443 0.930 . S
C1453 C1446 1.409 . S
C1453 C1452 1.362 . S
H1454 C1460 0.930 . S
H1455 C1463 0.930 . S
H1456 C1464 0.930 . S
H1457 C1465 0.930 . S
H1458 C1468 0.930 . S
H1459 C1469 0.930 . S
C1460 H1454 0.930 . S
C1460 C1461 1.355 . S
C1460 C1462 1.415 . S
C1461 C1460 1.355 . S
C1461 C1463 1.419 . S
C1462 C1460 1.415 . S
C1462 C1467 1.425 . S
C1462 C1469 1.409 . S
C1463 H1455 0.930 . S
C1463 C1461 1.419 . S
C1463 C1464 1.362 . S
C1464 H1456 0.930 . S
C1464 C1463 1.362 . S
C1464 C1467 1.409 . S
C1465 H1457 0.930 . S
C1465 C1466 1.355 . S
C1465 C1467 1.415 . S
C1466 C1465 1.355 . S
C1466 C1468 1.419 . S
C1467 C1462 1.425 . S
C1467 C1464 1.409 . S
C1467 C1465 1.415 . S
C1468 H1458 0.930 . S
C1468 C1466 1.419 . S
C1468 C1469 1.362 . S
C1469 H1459 0.930 . S
C1469 C1462 1.409 . S
C1469 C1468 1.362 . S
H1470 C1476 0.930 . S
H1471 C1479 0.930 . S
H1472 C1480 0.930 . S
H1473 C1481 0.930 . S
H1474 C1484 0.930 . S
H1475 C1485 0.930 . S
C1476 H1470 0.930 . S
C1476 C1477 1.355 . S
C1476 C1478 1.415 . S
C1477 C1476 1.355 . S
C1477 C1479 1.419 . S
C1478 C1476 1.415 . S
C1478 C1483 1.425 . S
C1478 C1485 1.409 1_455 S
C1479 H1471 0.930 . S
C1479 C1477 1.419 . S
C1479 C1480 1.362 . S
C1480 H1472 0.930 . S
C1480 C1479 1.362 . S
C1480 C1483 1.409 . S
C1481 H1473 0.930 . S
C1481 C1482 1.355 . S
C1481 C1483 1.415 1_655 S
C1482 C1481 1.355 . S
C1482 C1484 1.419 . S
C1483 C1478 1.425 . S
C1483 C1480 1.409 . S
C1483 C1481 1.415 1_455 S
C1484 H1474 0.930 . S
C1484 C1482 1.419 . S
C1484 C1485 1.362 . S
C1485 H1475 0.930 . S
C1485 C1478 1.409 1_655 S
C1485 C1484 1.362 . S
H1486 C1492 0.930 . S
H1487 C1495 0.930 . S
H1488 C1496 0.930 . S
H1489 C1497 0.930 . S
H1490 C1500 0.930 . S
H1491 C1501 0.930 . S
C1492 H1486 0.930 . S
C1492 C1493 1.355 . S
C1492 C1494 1.415 . S
C1493 C1492 1.355 . S
C1493 C1495 1.419 . S
C1494 C1492 1.415 . S
C1494 C1499 1.425 . S
C1494 C1501 1.409 . S
C1495 H1487 0.930 . S
C1495 C1493 1.419 . S
C1495 C1496 1.362 . S
C1496 H1488 0.930 . S
C1496 C1495 1.362 . S
C1496 C1499 1.409 . S
C1497 H1489 0.930 . S
C1497 C1498 1.355 . S
C1497 C1499 1.415 . S
C1498 C1497 1.355 . S
C1498 C1500 1.419 . S
C1499 C1494 1.425 . S
C1499 C1496 1.409 . S
C1499 C1497 1.415 . S
C1500 H1490 0.930 . S
C1500 C1498 1.419 . S
C1500 C1501 1.362 . S
C1501 H1491 0.930 . S
C1501 C1494 1.409 . S
C1501 C1500 1.362 . S
H1502 C1508 0.930 . S
H1503 C1511 0.930 . S
H1504 C1512 0.930 . S
H1505 C1513 0.930 . S
H1506 C1516 0.930 . S
H1507 C1517 0.930 . S
C1508 H1502 0.930 . S
C1508 C1509 1.355 . S
C1508 C1510 1.415 1_565 S
C1509 C1508 1.355 . S
C1509 C1511 1.419 . S
C1510 C1508 1.415 1_545 S
C1510 C1515 1.410 . S
C1510 C1517 1.409 . S
C1511 H1503 0.930 . S
C1511 C1509 1.419 . S
C1511 C1512 1.362 . S
C1512 H1504 0.930 . S
C1512 C1511 1.362 . S
C1512 C1515 1.390 1_565 S
C1513 H1505 0.930 . S
C1513 C1514 1.355 . S
C1513 C1515 1.449 . S
C1514 C1513 1.355 . S
C1514 C1516 1.419 . S
C1515 C1510 1.410 . S
C1515 C1512 1.390 1_545 S
C1515 C1513 1.449 . S
C1516 H1506 0.930 . S
C1516 C1514 1.419 . S
C1516 C1517 1.362 . S
C1517 H1507 0.930 . S
C1517 C1510 1.409 . S
C1517 C1516 1.362 . S
H1518 C1524 0.930 . S
H1519 C1527 0.930 . S
H1520 C1528 0.930 . S
H1521 C1529 0.930 . S
H1522 C1532 0.930 . S
H1523 C1533 0.930 . S
C1524 H1518 0.930 . S
C1524 C1525 1.355 . S
C1524 C1526 1.415 . S
C1525 C1524 1.355 . S
C1525 C1527 1.419 . S
C1526 C1524 1.415 . S
C1526 C1531 1.425 . S
C1526 C1533 1.409 . S
C1527 H1519 0.930 . S
C1527 C1525 1.419 . S
C1527 C1528 1.362 . S
C1528 H1520 0.930 . S
C1528 C1527 1.362 . S
C1528 C1531 1.409 . S
C1529 H1521 0.930 . S
C1529 C1530 1.355 . S
C1529 C1531 1.415 . S
C1530 C1529 1.355 . S
C1530 C1532 1.419 . S
C1531 C1526 1.425 . S
C1531 C1528 1.409 . S
C1531 C1529 1.415 . S
C1532 H1522 0.930 . S
C1532 C1530 1.419 . S
C1532 C1533 1.362 . S
C1533 H1523 0.930 . S
C1533 C1526 1.409 . S
C1533 C1532 1.362 . S
H1534 C1540 0.930 . S
H1535 C1543 0.930 . S
H1536 C1544 0.930 . S
H1537 C1545 0.930 . S
H1538 C1548 0.930 . S
H1539 C1549 0.930 . S
C1540 H1534 0.930 . S
C1540 C1541 1.355 . S
C1540 C1542 1.415 . S
C1541 C1540 1.355 . S
C1541 C1543 1.419 . S
C1542 C1540 1.415 . S
C1542 C1547 1.425 . S
C1542 C1549 1.409 . S
C1543 H1535 0.930 . S
C1543 C1541 1.419 . S
C1543 C1544 1.362 . S
C1544 H1536 0.930 . S
C1544 C1543 1.362 . S
C1544 C1547 1.409 . S
C1545 H1537 0.930 . S
C1545 C1546 1.355 . S
C1545 C1547 1.415 . S
C1546 C1545 1.355 . S
C1546 C1548 1.419 . S
C1547 C1542 1.425 . S
C1547 C1544 1.409 . S
C1547 C1545 1.415 . S
C1548 H1538 0.930 . S
C1548 C1546 1.419 . S
C1548 C1549 1.362 . S
C1549 H1539 0.930 . S
C1549 C1542 1.409 . S
C1549 C1548 1.362 . S
H1550 C1556 0.930 . S
H1551 C1559 0.930 . S
H1552 C1560 0.930 . S
H1553 C1561 0.930 . S
H1554 C1564 0.930 . S
H1555 C1565 0.930 . S
C1556 H1550 0.930 . S
C1556 C1557 1.355 . S
C1556 C1558 1.415 . S
C1557 C1556 1.355 . S
C1557 C1559 1.419 . S
C1558 C1556 1.415 . S
C1558 C1563 1.425 . S
C1558 C1565 1.409 . S
C1559 H1551 0.930 . S
C1559 C1557 1.419 . S
C1559 C1560 1.362 . S
C1560 H1552 0.930 . S
C1560 C1559 1.362 . S
C1560 C1563 1.409 . S
C1561 H1553 0.930 . S
C1561 C1562 1.355 . S
C1561 C1563 1.415 . S
C1562 C1561 1.355 . S
C1562 C1564 1.419 . S
C1563 C1558 1.425 . S
C1563 C1560 1.409 . S
C1563 C1561 1.415 . S
C1564 H1554 0.930 . S
C1564 C1562 1.419 . S
C1564 C1565 1.362 . S
C1565 H1555 0.930 . S
C1565 C1558 1.409 . S
C1565 C1564 1.362 . S
H1566 C1572 0.930 . S
H1567 C1575 0.930 . S
H1568 C1576 0.930 . S
H1569 C1577 0.930 . S
H1570 C1580 0.930 . S
H1571 C1581 0.930 . S
C1572 H1566 0.930 . S
C1572 C1573 1.355 . S
C1572 C1574 1.415 . S
C1573 C1572 1.355 . S
C1573 C1575 1.419 . S
C1574 C1572 1.415 . S
C1574 C1579 1.425 . S
C1574 C1581 1.409 . S
C1575 H1567 0.930 . S
C1575 C1573 1.419 . S
C1575 C1576 1.362 . S
C1576 H1568 0.930 . S
C1576 C1575 1.362 . S
C1576 C1579 1.409 . S
C1577 H1569 0.930 . S
C1577 C1578 1.355 . S
C1577 C1579 1.415 . S
C1578 C1577 1.355 . S
C1578 C1580 1.419 . S
C1579 C1574 1.425 . S
C1579 C1576 1.409 . S
C1579 C1577 1.415 . S
C1580 H1570 0.930 . S
C1580 C1578 1.419 . S
C1580 C1581 1.362 . S
C1581 H1571 0.930 . S
C1581 C1574 1.409 . S
C1581 C1580 1.362 . S
H1582 C1588 0.930 . S
H1583 C1591 0.930 . S
H1584 C1592 0.930 . S
H1585 C1593 0.930 . S
H1586 C1596 0.930 . S
H1587 C1597 0.930 . S
C1588 H1582 0.930 . S
C1588 C1589 1.355 . S
C1588 C1590 1.415 . S
C1589 C1588 1.355 . S
C1589 C1591 1.419 . S
C1590 C1588 1.415 . S
C1590 C1595 1.425 . S
C1590 C1597 1.409 . S
C1591 H1583 0.930 . S
C1591 C1589 1.419 . S
C1591 C1592 1.362 . S
C1592 H1584 0.930 . S
C1592 C1591 1.362 . S
C1592 C1595 1.409 . S
C1593 H1585 0.930 . S
C1593 C1594 1.355 . S
C1593 C1595 1.415 . S
C1594 C1593 1.355 . S
C1594 C1596 1.419 . S
C1595 C1590 1.425 . S
C1595 C1592 1.409 . S
C1595 C1593 1.415 . S
C1596 H1586 0.930 . S
C1596 C1594 1.419 . S
C1596 C1597 1.362 . S
C1597 H1587 0.930 . S
C1597 C1590 1.409 . S
C1597 C1596 1.362 . S
H1598 C1604 0.930 . S
H1599 C1607 0.930 . S
H1600 C1608 0.930 . S
H1601 C1609 0.930 . S
H1602 C1612 0.930 . S
H1603 C1613 0.930 . S
C1604 H1598 0.930 . S
C1604 C1605 1.355 . S
C1604 C1606 1.415 . S
C1605 C1604 1.355 . S
C1605 C1607 1.419 . S
C1606 C1604 1.415 . S
C1606 C1611 1.425 . S
C1606 C1613 1.409 . S
C1607 H1599 0.930 . S
C1607 C1605 1.419 . S
C1607 C1608 1.362 . S
C1608 H1600 0.930 . S
C1608 C1607 1.362 . S
C1608 C1611 1.409 . S
C1609 H1601 0.930 . S
C1609 C1610 1.355 . S
C1609 C1611 1.415 . S
C1610 C1609 1.355 . S
C1610 C1612 1.419 . S
C1611 C1606 1.425 . S
C1611 C1608 1.409 . S
C1611 C1609 1.415 . S
C1612 H1602 0.930 . S
C1612 C1610 1.419 . S
C1612 C1613 1.362 . S
C1613 H1603 0.930 . S
C1613 C1606 1.409 . S
C1613 C1612 1.362 . S
H1614 C1620 0.930 . S
H1615 C1623 0.930 . S
H1616 C1624 0.930 . S
H1617 C1625 0.930 . S
H1618 C1628 0.930 . S
H1619 C1629 0.930 . S
C1620 H1614 0.930 . S
C1620 C1621 1.355 . S
C1620 C1622 1.415 . S
C1621 C1620 1.355 . S
C1621 C1623 1.419 . S
C1622 C1620 1.415 . S
C1622 C1627 1.425 . S
C1622 C1629 1.409 . S
C1623 H1615 0.930 . S
C1623 C1621 1.419 . S
C1623 C1624 1.362 . S
C1624 H1616 0.930 . S
C1624 C1623 1.362 . S
C1624 C1627 1.409 . S
C1625 H1617 0.930 . S
C1625 C1626 1.355 . S
C1625 C1627 1.415 . S
C1626 C1625 1.355 . S
C1626 C1628 1.419 . S
C1627 C1622 1.425 . S
C1627 C1624 1.409 . S
C1627 C1625 1.415 . S
C1628 H1618 0.930 . S
C1628 C1626 1.419 . S
C1628 C1629 1.362 . S
C1629 H1619 0.930 . S
C1629 C1622 1.409 . S
C1629 C1628 1.362 . S
H1630 C1636 0.930 . S
H1631 C1639 0.930 . S
H1632 C1640 0.930 . S
H1633 C1641 0.930 . S
H1634 C1644 0.930 . S
H1635 C1645 0.930 . S
C1636 H1630 0.930 . S
C1636 C1637 1.355 . S
C1636 C1638 1.415 . S
C1637 C1636 1.355 . S
C1637 C1639 1.419 . S
C1638 C1636 1.415 . S
C1638 C1643 1.425 . S
C1638 C1645 1.409 . S
C1639 H1631 0.930 . S
C1639 C1637 1.419 . S
C1639 C1640 1.362 . S
C1640 H1632 0.930 . S
C1640 C1639 1.362 . S
C1640 C1643 1.409 . S
C1641 H1633 0.930 . S
C1641 C1642 1.355 . S
C1641 C1643 1.415 . S
C1642 C1641 1.355 . S
C1642 C1644 1.419 . S
C1643 C1638 1.425 . S
C1643 C1640 1.409 . S
C1643 C1641 1.415 . S
C1644 H1634 0.930 . S
C1644 C1642 1.419 . S
C1644 C1645 1.362 . S
C1645 H1635 0.930 . S
C1645 C1638 1.409 . S
C1645 C1644 1.362 . S
H1646 C1652 0.930 . S
H1647 C1655 0.930 . S
H1648 C1656 0.930 . S
H1649 C1657 0.930 . S
H1650 C1660 0.930 . S
H1651 C1661 0.930 . S
C1652 H1646 0.930 . S
C1652 C1653 1.355 . S
C1652 C1654 1.415 . S
C1653 C1652 1.355 . S
C1653 C1655 1.419 . S
C1654 C1652 1.415 . S
C1654 C1659 1.425 . S
C1654 C1661 1.409 . S
C1655 H1647 0.930 . S
C1655 C1653 1.419 . S
C1655 C1656 1.362 . S
C1656 H1648 0.930 . S
C1656 C1655 1.362 . S
C1656 C1659 1.409 . S
C1657 H1649 0.930 . S
C1657 C1658 1.355 . S
C1657 C1659 1.415 . S
C1658 C1657 1.355 . S
C1658 C1660 1.419 . S
C1659 C1654 1.425 . S
C1659 C1656 1.409 . S
C1659 C1657 1.415 . S
C1660 H1650 0.930 . S
C1660 C1658 1.419 . S
C1660 C1661 1.362 . S
C1661 H1651 0.930 . S
C1661 C1654 1.409 . S
C1661 C1660 1.362 . S
H1662 C1668 0.930 . S
H1663 C1671 0.930 . S
H1664 C1672 0.930 . S
H1665 C1673 0.930 . S
H1666 C1676 0.930 . S
H1667 C1677 0.930 . S
C1668 H1662 0.930 . S
C1668 C1669 1.355 . S
C1668 C1670 1.415 . S
C1669 C1668 1.355 . S
C1669 C1671 1.419 . S
C1670 C1668 1.415 . S
C1670 C1675 1.425 . S
C1670 C1677 1.409 . S
C1671 H1663 0.930 . S
C1671 C1669 1.419 . S
C1671 C1672 1.362 . S
C1672 H1664 0.930 . S
C1672 C1671 1.362 . S
C1672 C1675 1.409 . S
C1673 H1665 0.930 . S
C1673 C1674 1.355 . S
C1673 C1675 1.415 . S
C1674 C1673 1.355 . S
C1674 C1676 1.419 . S
C1675 C1670 1.425 . S
C1675 C1672 1.409 . S
C1675 C1673 1.415 . S
C1676 H1666 0.930 . S
C1676 C1674 1.419 . S
C1676 C1677 1.362 . S
C1677 H1667 0.930 . S
C1677 C1670 1.409 . S
C1677 C1676 1.362 . S
H1678 C1684 0.930 . S
H1679 C1687 0.930 . S
H1680 C1688 0.930 . S
H1681 C1689 0.930 . S
H1682 C1692 0.930 . S
H1683 C1693 0.930 . S
C1684 H1678 0.930 . S
C1684 C1685 1.355 . S
C1684 C1686 1.415 . S
C1685 C1684 1.355 . S
C1685 C1687 1.419 . S
C1686 C1684 1.415 . S
C1686 C1691 1.425 . S
C1686 C1693 1.409 . S
C1687 H1679 0.930 . S
C1687 C1685 1.419 . S
C1687 C1688 1.362 . S
C1688 H1680 0.930 . S
C1688 C1687 1.362 . S
C1688 C1691 1.409 . S
C1689 H1681 0.930 . S
C1689 C1690 1.355 . S
C1689 C1691 1.415 . S
C1690 C1689 1.355 . S
C1690 C1692 1.419 . S
C1691 C1686 1.425 . S
C1691 C1688 1.409 . S
C1691 C1689 1.415 . S
C1692 H1682 0.930 . S
C1692 C1690 1.419 . S
C1692 C1693 1.362 . S
C1693 H1683 0.930 . S
C1693 C1686 1.409 . S
C1693 C1692 1.362 . S
H1694 C1700 0.930 . S
H1695 C1703 0.930 . S
H1696 C1704 0.930 . S
H1697 C1705 0.930 . S
H1698 C1708 0.930 . S
H1699 C1709 0.930 . S
C1700 H1694 0.930 . S
C1700 C1701 1.355 . S
C1700 C1702 1.415 . S
C1701 C1700 1.355 . S
C1701 C1703 1.419 . S
C1702 C1700 1.415 . S
C1702 C1707 1.425 . S
C1702 C1709 1.409 . S
C1703 H1695 0.930 . S
C1703 C1701 1.419 . S
C1703 C1704 1.362 . S
C1704 H1696 0.930 . S
C1704 C1703 1.362 . S
C1704 C1707 1.409 . S
C1705 H1697 0.930 . S
C1705 C1706 1.355 . S
C1705 C1707 1.415 . S
C1706 C1705 1.355 . S
C1706 C1708 1.419 . S
C1707 C1702 1.425 . S
C1707 C1704 1.409 . S
C1707 C1705 1.415 . S
C1708 H1698 0.930 . S
C1708 C1706 1.419 . S
C1708 C1709 1.362 . S
C1709 H1699 0.930 . S
C1709 C1702 1.409 . S
C1709 C1708 1.362 . S
H1710 C1716 0.930 . S
H1711 C1719 0.930 . S
H1712 C1720 0.930 . S
H1713 C1721 0.930 . S
H1714 C1724 0.930 . S
H1715 C1725 0.930 . S
C1716 H1710 0.930 . S
C1716 C1717 1.355 . S
C1716 C1718 1.415 . S
C1717 C1716 1.355 . S
C1717 C1719 1.419 . S
C1718 C1716 1.415 . S
C1718 C1723 1.425 . S
C1718 C1725 1.409 . S
C1719 H1711 0.930 . S
C1719 C1717 1.419 . S
C1719 C1720 1.362 . S
C1720 H1712 0.930 . S
C1720 C1719 1.362 . S
C1720 C1723 1.409 . S
C1721 H1713 0.930 . S
C1721 C1722 1.355 . S
C1721 C1723 1.415 . S
C1722 C1721 1.355 . S
C1722 C1724 1.419 . S
C1723 C1718 1.425 . S
C1723 C1720 1.409 . S
C1723 C1721 1.415 . S
C1724 H1714 0.930 . S
C1724 C1722 1.419 . S
C1724 C1725 1.362 . S
C1725 H1715 0.930 . S
C1725 C1718 1.409 . S
C1725 C1724 1.362 . S
H1726 C1732 0.930 . S
H1727 C1735 0.930 . S
H1728 C1736 0.930 . S
H1729 C1737 0.930 . S
H1730 C1740 0.930 . S
H1731 C1741 0.930 . S
C1732 H1726 0.930 . S
C1732 C1733 1.355 . S
C1732 C1734 1.415 . S
C1733 C1732 1.355 . S
C1733 C1735 1.419 . S
C1734 C1732 1.415 . S
C1734 C1739 1.425 . S
C1734 C1741 1.409 . S
C1735 H1727 0.930 . S
C1735 C1733 1.419 . S
C1735 C1736 1.362 . S
C1736 H1728 0.930 . S
C1736 C1735 1.362 . S
C1736 C1739 1.409 . S
C1737 H1729 0.930 . S
C1737 C1738 1.355 . S
C1737 C1739 1.415 . S
C1738 C1737 1.355 . S
C1738 C1740 1.419 . S
C1739 C1734 1.425 . S
C1739 C1736 1.409 . S
C1739 C1737 1.415 . S
C1740 H1730 0.930 . S
C1740 C1738 1.419 . S
C1740 C1741 1.362 . S
C1741 H1731 0.930 . S
C1741 C1734 1.409 . S
C1741 C1740 1.362 . S
H1742 C1748 0.930 . S
H1743 C1751 0.930 . S
H1744 C1752 0.930 . S
H1745 C1753 0.930 . S
H1746 C1756 0.930 . S
H1747 C1757 0.930 . S
C1748 H1742 0.930 . S
C1748 C1749 1.355 . S
C1748 C1750 1.415 . S
C1749 C1748 1.355 . S
C1749 C1751 1.419 . S
C1750 C1748 1.415 . S
C1750 C1755 1.425 . S
C1750 C1757 1.409 . S
C1751 H1743 0.930 . S
C1751 C1749 1.419 . S
C1751 C1752 1.362 . S
C1752 H1744 0.930 . S
C1752 C1751 1.362 . S
C1752 C1755 1.409 . S
C1753 H1745 0.930 . S
C1753 C1754 1.355 . S
C1753 C1755 1.415 . S
C1754 C1753 1.355 . S
C1754 C1756 1.419 . S
C1755 C1750 1.425 . S
C1755 C1752 1.409 . S
C1755 C1753 1.415 . S
C1756 H1746 0.930 . S
C1756 C1754 1.419 . S
C1756 C1757 1.362 . S
C1757 H1747 0.930 . S
C1757 C1750 1.409 . S
C1757 C1756 1.362 . S
H1758 C1764 0.930 . S
H1759 C1767 0.930 . S
H1760 C1768 0.930 . S
H1761 C1769 0.930 . S
H1762 C1772 0.930 . S
H1763 C1773 0.930 . S
C1764 H1758 0.930 . S
C1764 C1765 1.355 . S
C1764 C1766 1.415 . S
C1765 C1764 1.355 . S
C1765 C1767 1.419 . S
C1766 C1764 1.415 . S
C1766 C1771 1.425 . S
C1766 C1773 1.409 . S
C1767 H1759 0.930 . S
C1767 C1765 1.419 . S
C1767 C1768 1.362 . S
C1768 H1760 0.930 . S
C1768 C1767 1.362 . S
C1768 C1771 1.409 . S
C1769 H1761 0.930 . S
C1769 C1770 1.355 . S
C1769 C1771 1.415 . S
C1770 C1769 1.355 . S
C1770 C1772 1.419 . S
C1771 C1766 1.425 . S
C1771 C1768 1.409 . S
C1771 C1769 1.415 . S
C1772 H1762 0.930 . S
C1772 C1770 1.419 . S
C1772 C1773 1.362 . S
C1773 H1763 0.930 . S
C1773 C1766 1.409 . S
C1773 C1772 1.362 . S
H1774 C1780 0.930 . S
H1775 C1783 0.930 . S
H1776 C1784 0.930 . S
H1777 C1785 0.930 . S
H1778 C1788 0.930 . S
H1779 C1789 0.930 . S
C1780 H1774 0.930 . S
C1780 C1781 1.355 . S
C1780 C1782 1.415 . S
C1781 C1780 1.355 . S
C1781 C1783 1.419 . S
C1782 C1780 1.415 . S
C1782 C1787 1.425 . S
C1782 C1789 1.409 . S
C1783 H1775 0.930 . S
C1783 C1781 1.419 . S
C1783 C1784 1.362 . S
C1784 H1776 0.930 . S
C1784 C1783 1.362 . S
C1784 C1787 1.409 . S
C1785 H1777 0.930 . S
C1785 C1786 1.355 . S
C1785 C1787 1.415 . S
C1786 C1785 1.355 . S
C1786 C1788 1.419 . S
C1787 C1782 1.425 . S
C1787 C1784 1.409 . S
C1787 C1785 1.415 . S
C1788 H1778 0.930 . S
C1788 C1786 1.419 . S
C1788 C1789 1.362 . S
C1789 H1779 0.930 . S
C1789 C1782 1.409 . S
C1789 C1788 1.362 . S
H1790 C1796 0.930 . S
H1791 C1799 0.930 . S
H1792 C1800 0.930 . S
H1793 C1801 0.930 . S
H1794 C1804 0.930 . S
H1795 C1805 0.930 . S
C1796 H1790 0.930 . S
C1796 C1797 1.355 . S
C1796 C1798 1.415 . S
C1797 C1796 1.355 . S
C1797 C1799 1.419 . S
C1798 C1796 1.415 . S
C1798 C1803 1.425 . S
C1798 C1805 1.409 . S
C1799 H1791 0.930 . S
C1799 C1797 1.419 . S
C1799 C1800 1.362 . S
C1800 H1792 0.930 . S
C1800 C1799 1.362 . S
C1800 C1803 1.409 . S
C1801 H1793 0.930 . S
C1801 C1802 1.355 . S
C1801 C1803 1.415 . S
C1802 C1801 1.355 . S
C1802 C1804 1.419 . S
C1803 C1798 1.425 . S
C1803 C1800 1.409 . S
C1803 C1801 1.415 . S
C1804 H1794 0.930 . S
C1804 C1802 1.419 . S
C1804 C1805 1.362 . S
C1805 H1795 0.930 . S
C1805 C1798 1.409 . S
C1805 C1804 1.362 . S
H1806 C1812 0.930 . S
H1807 C1815 0.930 . S
H1808 C1816 0.930 . S
H1809 C1817 0.930 . S
H1810 C1820 0.930 . S
H1811 C1821 0.930 . S
C1812 H1806 0.930 . S
C1812 C1813 1.355 . S
C1812 C1814 1.415 . S
C1813 C1812 1.355 . S
C1813 C1815 1.419 . S
C1814 C1812 1.415 . S
C1814 C1819 1.425 . S
C1814 C1821 1.409 . S
C1815 H1807 0.930 . S
C1815 C1813 1.419 . S
C1815 C1816 1.362 . S
C1816 H1808 0.930 . S
C1816 C1815 1.362 . S
C1816 C1819 1.409 . S
C1817 H1809 0.930 . S
C1817 C1818 1.355 . S
C1817 C1819 1.415 . S
C1818 C1817 1.355 . S
C1818 C1820 1.419 . S
C1819 C1814 1.425 . S
C1819 C1816 1.409 . S
C1819 C1817 1.415 . S
C1820 H1810 0.930 . S
C1820 C1818 1.419 . S
C1820 C1821 1.362 . S
C1821 H1811 0.930 . S
C1821 C1814 1.409 . S
C1821 C1820 1.362 . S
H1822 C1828 0.930 . S
H1823 C1831 0.930 . S
H1824 C1832 0.930 . S
H1825 C1833 0.930 . S
H1826 C1836 0.930 . S
H1827 C1837 0.930 . S
C1828 H1822 0.930 . S
C1828 C1829 1.355 . S
C1828 C1830 1.415 . S
C1829 C1828 1.355 . S
C1829 C1831 1.419 . S
C1830 C1828 1.415 . S
C1830 C1835 1.425 . S
C1830 C1837 1.409 . S
C1831 H1823 0.930 . S
C1831 C1829 1.419 . S
C1831 C1832 1.362 . S
C1832 H1824 0.930 . S
C1832 C1831 1.362 . S
C1832 C1835 1.409 . S
C1833 H1825 0.930 . S
C1833 C1834 1.355 . S
C1833 C1835 1.415 . S
C1834 C1833 1.355 . S
C1834 C1836 1.419 . S
C1835 C1830 1.425 . S
C1835 C1832 1.409 . S
C1835 C1833 1.415 . S
C1836 H1826 0.930 . S
C1836 C1834 1.419 . S
C1836 C1837 1.362 . S
C1837 H1827 0.930 . S
C1837 C1830 1.409 . S
C1837 C1836 1.362 . S
H1838 C1844 0.930 . S
H1839 C1847 0.930 . S
H1840 C1848 0.930 . S
H1841 C1849 0.930 . S
H1842 C1852 0.930 . S
H1843 C1853 0.930 . S
C1844 H1838 0.930 . S
C1844 C1845 1.355 . S
C1844 C1846 1.415 . S
C1845 C1844 1.355 . S
C1845 C1847 1.419 . S
C1846 C1844 1.415 . S
C1846 C1851 1.425 . S
C1846 C1853 1.409 . S
C1847 H1839 0.930 . S
C1847 C1845 1.419 . S
C1847 C1848 1.362 . S
C1848 H1840 0.930 . S
C1848 C1847 1.362 . S
C1848 C1851 1.409 . S
C1849 H1841 0.930 . S
C1849 C1850 1.355 . S
C1849 C1851 1.415 . S
C1850 C1849 1.355 . S
C1850 C1852 1.419 . S
C1851 C1846 1.425 . S
C1851 C1848 1.409 . S
C1851 C1849 1.415 . S
C1852 H1842 0.930 . S
C1852 C1850 1.419 . S
C1852 C1853 1.362 . S
C1853 H1843 0.930 . S
C1853 C1846 1.409 . S
C1853 C1852 1.362 . S
C997 N170 1.953 . S
C1002 C301 1.889 . S
C1013 N184 1.012 . S
C1018 C385 0.961 . S
C1029 N158 1.556 . S
C1034 C465 1.546 . S
C1045 N145 1.519 . S
C1050 C381 1.484 1_556 S
C1066 C469 0.991 . S
C1061 N119 0.986 . S
C1077 N131 1.893 . S
C1082 C297 1.841 . S
C1098 C290 1.534 . S
C1093 N144 1.625 . S
C1114 C374 1.401 . S
C1109 N118 1.386 . S
C1125 N132 1.430 . S
C1130 C476 1.429 . S
C1141 N171 1.420 . S
C1146 C392 1.418 . S
C1157 N183 1.336 . S
C1162 C458 1.293 . S
C1178 C308 1.584 . S
C1173 N157 1.599 . S
C1194 C553 1.887 . S
C1189 N14 1.952 . S
C1205 N28 1.017 . S
C1210 C637 0.955 . S
C1221 N2 1.540 . S
C1226 C717 1.503 . S
C1237 N223 1.521 . S
C1242 C633 1.497 . S
C1253 N197 1.003 . S
C1258 C721 0.902 . S
C1269 N209 1.869 . S
C1274 C549 1.822 . S
C1285 N222 1.630 . S
C1290 C542 1.583 . S
C1301 N196 1.411 . S
C1306 C626 1.387 . S
C1322 C728 1.438 . S
C1317 N210 1.436 . S
C1333 N15 1.418 . S
C1338 C644 1.414 . S
C1354 C710 1.293 . S
C1349 N27 1.321 . S
C1365 N1 1.582 . S
C1370 C560 1.546 . S
C1386 C805 1.852 . S
C1381 N92 1.916 . S
C1397 N106 1.001 . S
C1402 C889 0.980 . S
C1418 C969 1.528 . S
C1413 N80 1.560 . S
C1434 C885 1.530 . S
C1429 N67 1.540 . S
C1450 C973 0.959 . S
C1445 N41 1.000 . S
C1461 N53 1.910 . S
C1466 C801 1.881 . S
C1477 N66 1.635 . S
C1482 C794 1.563 . S
C1493 N40 1.360 . S
C1498 C878 1.357 . S
C1514 C980 1.453 . S
C1509 N54 1.456 . S
C1525 N93 1.438 . S
C1530 C896 1.440 . S
C1541 N105 1.367 . S
C1546 C962 1.352 . S
C1557 N79 1.585 . S
C1562 C812 1.528 . S
C1573 N200 1.273 . S
C1578 C304 1.151 . S
C1594 C388 1.524 . S
C1589 N213 1.716 . S
C1605 N226 1.494 . S
C1610 C460 1.383 . S
C1621 N83 1.526 . S
C1626 C376 1.411 . S
C1637 N96 1.709 . S
C1642 C472 1.494 . S
C1658 C292 1.245 . S
C1653 N109 1.320 . S
C1669 N44 1.259 . S
C1674 C556 1.191 . S
C1685 N57 1.746 . S
C1690 C640 1.539 . S
C1701 N70 1.517 . S
C1706 C712 1.402 . S
C1717 N161 1.534 . S
C1722 C628 1.372 . S
C1738 C724 1.596 . S
C1733 N174 1.728 . S
C1749 N187 1.319 . S
C1754 C544 1.247 . S
C1765 N122 1.294 . S
C1770 C808 1.183 . S
C1781 N135 1.717 . S
C1786 C892 1.533 . S
C1802 C964 1.435 . S
C1797 N148 1.516 . S
C1813 N5 1.538 . S
C1818 C880 1.451 . S
C1829 N18 1.700 . S
C1834 C976 1.489 . S
C1845 N31 1.329 . S
C1850 C796 1.205 . S
