# Generated by pormake.
# Topology pyr, (3,6)-cn, num edge types: 1
# Building blocks:
#     Node 0, Type 0, BuildingBlock: CUQRIR_clean_linker_1, # of connection points: 3
#     Node 1, Type 0, BuildingBlock: CUQRIR_clean_linker_1, # of connection points: 3
#     Node 2, Type 0, BuildingBlock: CUQRIR_clean_linker_1, # of connection points: 3
#     Node 3, Type 0, BuildingBlock: CUQRIR_clean_linker_1, # of connection points: 3
#     Node 4, Type 0, BuildingBlock: CUQRIR_clean_linker_1, # of connection points: 3
#     Node 5, Type 0, BuildingBlock: CUQRIR_clean_linker_1, # of connection points: 3
#     Node 6, Type 0, BuildingBlock: CUQRIR_clean_linker_1, # of connection points: 3
#     Node 7, Type 0, BuildingBlock: CUQRIR_clean_linker_1, # of connection points: 3
#     Node 8, Type 1, BuildingBlock: BETDIP_clean_sbu_0, # of connection points: 6
#     Node 9, Type 1, BuildingBlock: BETDIP_clean_sbu_0, # of connection points: 6
#     Node 10, Type 1, BuildingBlock: BETDIP_clean_sbu_0, # of connection points: 6
#     Node 11, Type 1, BuildingBlock: BETDIP_clean_sbu_0, # of connection points: 6
#     Edge 12, Type (0, 1), BuildingBlock: XIVTED_clean_linker_0, # of connection points: 2
#     Edge 13, Type (0, 1), BuildingBlock: XIVTED_clean_linker_0, # of connection points: 2
#     Edge 14, Type (0, 1), BuildingBlock: XIVTED_clean_linker_0, # of connection points: 2
#     Edge 15, Type (0, 1), BuildingBlock: XIVTED_clean_linker_0, # of connection points: 2
#     Edge 16, Type (0, 1), BuildingBlock: XIVTED_clean_linker_0, # of connection points: 2
#     Edge 17, Type (0, 1), BuildingBlock: XIVTED_clean_linker_0, # of connection points: 2
#     Edge 18, Type (0, 1), BuildingBlock: XIVTED_clean_linker_0, # of connection points: 2
#     Edge 19, Type (0, 1), BuildingBlock: XIVTED_clean_linker_0, # of connection points: 2
#     Edge 20, Type (0, 1), BuildingBlock: XIVTED_clean_linker_0, # of connection points: 2
#     Edge 21, Type (0, 1), BuildingBlock: XIVTED_clean_linker_0, # of connection points: 2
#     Edge 22, Type (0, 1), BuildingBlock: XIVTED_clean_linker_0, # of connection points: 2
#     Edge 23, Type (0, 1), BuildingBlock: XIVTED_clean_linker_0, # of connection points: 2
#     Edge 24, Type (0, 1), BuildingBlock: XIVTED_clean_linker_0, # of connection points: 2
#     Edge 25, Type (0, 1), BuildingBlock: XIVTED_clean_linker_0, # of connection points: 2
#     Edge 26, Type (0, 1), BuildingBlock: XIVTED_clean_linker_0, # of connection points: 2
#     Edge 27, Type (0, 1), BuildingBlock: XIVTED_clean_linker_0, # of connection points: 2
#     Edge 28, Type (0, 1), BuildingBlock: XIVTED_clean_linker_0, # of connection points: 2
#     Edge 29, Type (0, 1), BuildingBlock: XIVTED_clean_linker_0, # of connection points: 2
#     Edge 30, Type (0, 1), BuildingBlock: XIVTED_clean_linker_0, # of connection points: 2
#     Edge 31, Type (0, 1), BuildingBlock: XIVTED_clean_linker_0, # of connection points: 2
#     Edge 32, Type (0, 1), BuildingBlock: XIVTED_clean_linker_0, # of connection points: 2
#     Edge 33, Type (0, 1), BuildingBlock: XIVTED_clean_linker_0, # of connection points: 2
#     Edge 34, Type (0, 1), BuildingBlock: XIVTED_clean_linker_0, # of connection points: 2
#     Edge 35, Type (0, 1), BuildingBlock: XIVTED_clean_linker_0, # of connection points: 2
# Relax obj value: 0.207
# Max RMSD: 0.288
# Mean RMSD: 0.173
data_MOF--net-pyr--node1-BETDIP_clean_sbu_0--node2-CUQRIR_clean_linker_1--edge1-XIVTED_clean_linker_0
_symmetry_space_group_name_H-M    P1
_symmetry_Int_Tables_number       1
_symmetry_cell_setting            triclinic
loop_
_symmetry_equiv_pos_as_xyz
'x, y, z'
_cell_length_a     32.781956
_cell_length_b     37.054385
_cell_length_c     36.028468
_cell_angle_alpha  87.051552
_cell_angle_beta   94.166902
_cell_angle_gamma 107.39107
loop_
_atom_site_label
_atom_site_type_symbol
_atom_site_fract_x
_atom_site_fract_y
_atom_site_fract_z
_atom_type_partial_charge
C0 C 0.38672 0.35992 0.23733 0.0
N1 N 0.40391 0.33139 0.2463 0.0
N2 N 0.39291 0.37194 0.20141 0.0
C3 C 0.35596 0.37039 0.26082 0.0
C4 C 0.41512 0.34993 0.18906 0.0
N5 N 0.42192 0.32548 0.21625 0.0
C6 C 0.42616 0.34961 0.14936 0.0
H7 H 0.32268 0.35658 0.24988 0.0
H8 H 0.36142 0.40141 0.25928 0.0
H9 H 0.35942 0.36144 0.29041 0.0
H10 H 0.42843 0.37733 0.13503 0.0
H11 H 0.40076 0.32735 0.13448 0.0
H12 H 0.45688 0.34294 0.14827 0.0
C13 C 0.14275 0.78253 0.72465 0.0
N14 N 0.13944 0.8108 0.74532 0.0
N15 N 0.16695 0.7627 0.74324 0.0
C16 C 0.12415 0.77574 0.68532 0.0
C17 C 0.17749 0.77967 0.77652 0.0
N18 N 0.16061 0.80874 0.77778 0.0
C19 C 0.21022 0.77197 0.80495 0.0
H20 H 0.09205 0.78023 0.68258 0.0
H21 H 0.12152 0.74663 0.67713 0.0
H22 H 0.14489 0.79639 0.66608 0.0
H23 H 0.2395 0.77225 0.79114 0.0
H24 H 0.19695 0.74339 0.81784 0.0
H25 H 0.21934 0.79285 0.8273 0.0
C26 C 0.60107 0.36397 0.86395 0.0
N27 N 0.62636 0.35869 0.89449 0.0
N28 N 0.62078 0.39562 0.8434 0.0
C29 C 0.55642 0.33887 0.85501 0.0
C30 C 0.65924 0.40918 0.86264 0.0
N31 N 0.66284 0.38702 0.89337 0.0
C32 C 0.69334 0.44488 0.85199 0.0
H33 H 0.54616 0.34167 0.82532 0.0
H34 H 0.53395 0.34704 0.87206 0.0
H35 H 0.55428 0.30886 0.86198 0.0
H36 H 0.69753 0.46604 0.87376 0.0
H37 H 0.68571 0.45709 0.82462 0.0
H38 H 0.72436 0.43899 0.85043 0.0
C39 C 0.86477 0.70139 0.35602 0.0
N40 N 0.89923 0.72953 0.34349 0.0
N41 N 0.84174 0.71442 0.37927 0.0
C42 C 0.85363 0.66061 0.34547 0.0
C43 C 0.86288 0.75191 0.38009 0.0
N44 N 0.8983 0.76174 0.35955 0.0
C45 C 0.84839 0.77973 0.40101 0.0
H46 H 0.83718 0.65741 0.31728 0.0
H47 H 0.83244 0.64147 0.36542 0.0
H48 H 0.88291 0.65168 0.34466 0.0
H49 H 0.86531 0.78356 0.42899 0.0
H50 H 0.81339 0.76956 0.40438 0.0
H51 H 0.85592 0.80767 0.38617 0.0
C52 C 0.62983 0.82304 0.89989 0.0
N53 N 0.65637 0.81277 0.87838 0.0
N54 N 0.60885 0.84477 0.88006 0.0
C55 C 0.62798 0.81569 0.94128 0.0
C56 C 0.62335 0.84688 0.8455 0.0
N57 N 0.65211 0.82733 0.84437 0.0
C58 C 0.61456 0.87294 0.81458 0.0
H59 H 0.59505 0.81159 0.94988 0.0
H60 H 0.64964 0.84061 0.95573 0.0
H61 H 0.63807 0.79033 0.95 0.0
H62 H 0.64384 0.89708 0.81091 0.0
H63 H 0.58777 0.88387 0.82057 0.0
H64 H 0.60643 0.85775 0.78806 0.0
C65 C 0.90728 0.35869 0.44018 0.0
N66 N 0.91857 0.33579 0.41746 0.0
N67 N 0.88196 0.37727 0.42137 0.0
C68 C 0.91676 0.35983 0.4816 0.0
C69 C 0.87855 0.36482 0.38624 0.0
N70 N 0.90031 0.3393 0.38388 0.0
C71 C 0.84636 0.37114 0.35658 0.0
H72 H 0.89054 0.33841 0.49541 0.0
H73 H 0.91848 0.38806 0.49174 0.0
H74 H 0.94729 0.35336 0.48925 0.0
H75 H 0.84151 0.39926 0.35906 0.0
H76 H 0.81528 0.34906 0.35994 0.0
H77 H 0.85697 0.36911 0.32843 0.0
C78 C 0.35492 0.70233 0.26893 0.0
N79 N 0.39199 0.72861 0.28071 0.0
N80 N 0.33477 0.71587 0.23974 0.0
C81 C 0.33968 0.66244 0.28478 0.0
C82 C 0.36037 0.7516 0.23432 0.0
N83 N 0.39539 0.75979 0.25875 0.0
C84 C 0.35076 0.77882 0.20488 0.0
H85 H 0.35905 0.64564 0.27424 0.0
H86 H 0.30563 0.64834 0.2767 0.0
H87 H 0.34418 0.66232 0.31561 0.0
H88 H 0.31583 0.77177 0.19769 0.0
H89 H 0.36697 0.77695 0.17937 0.0
H90 H 0.36269 0.80836 0.21435 0.0
C91 C 0.10946 0.36309 0.77363 0.0
N92 N 0.1306 0.35923 0.74271 0.0
N93 N 0.12287 0.39924 0.78712 0.0
C94 C 0.07949 0.33035 0.79367 0.0
C95 C 0.15333 0.41706 0.7628 0.0
N96 N 0.1592 0.39329 0.73702 0.0
C97 C 0.1745 0.4592 0.76127 0.0
H98 H 0.04599 0.32827 0.78397 0.0
H99 H 0.08301 0.33461 0.82412 0.0
H100 H 0.08584 0.30337 0.78832 0.0
H101 H 0.20486 0.46608 0.77885 0.0
H102 H 0.15339 0.47457 0.7714 0.0
H103 H 0.18225 0.46936 0.73236 0.0
Tb104 Tb 0.99651 0.05128 0.55854 0.0
Tb105 Tb 0.07461 0.07088 0.52919 0.0
C106 C 0.91789 1.02698 0.57102 0.0
C107 C 0.89209 0.99643 0.59466 0.0
C108 C 0.84781 0.99015 0.59474 0.0
C109 C 0.82357 0.96335 0.61954 0.0
C110 C 0.84336 0.94252 0.64473 0.0
C111 C 0.88761 0.94809 0.6436 0.0
C112 C 0.91173 0.97483 0.61878 0.0
C113 C 0.04977 0.112 0.59457 0.0
C114 C 0.05938 1.01576 0.6001 0.0
C115 C 0.15308 0.0912 0.51588 0.0
C116 C 0.18187 0.11936 0.49219 0.0
C117 C 0.16556 0.13846 0.46295 0.0
C118 C 0.19323 0.16235 0.43833 0.0
C119 C 0.23762 0.16756 0.44267 0.0
C120 C 0.2539 0.14951 0.47293 0.0
C121 C 0.22615 0.12547 0.49744 0.0
C122 C 0.02039 1.01072 0.49361 0.0
C123 C 1.01263 0.11034 0.49114 0.0
O124 O 0.93459 1.01661 0.54316 0.0
O125 O 0.94549 0.05438 0.58883 0.0
O126 O 0.04674 0.10624 0.55959 0.0
O127 O 0.02303 0.08264 0.60946 0.0
O128 O 0.01848 1.01052 0.59241 0.0
O129 O 0.08756 0.04158 0.58117 0.0
O130 O 0.13773 0.10404 0.543 0.0
O131 O 0.12376 0.06475 0.49839 0.0
O132 O 0.02512 1.01592 0.52876 0.0
O133 O 0.04461 0.0411 0.47805 0.0
O134 O 0.05361 0.11451 0.49828 0.0
O135 O 0.98424 0.08273 0.508 0.0
H136 H 0.83217 1.00669 0.57635 0.0
H137 H 0.78966 0.96008 0.62 0.0
H138 H 0.90373 0.93221 0.6623 0.0
H139 H 0.94584 0.97924 0.6191 0.0
H140 H 0.1314 0.13414 0.45862 0.0
H141 H 0.17987 0.17636 0.41557 0.0
H142 H 0.28788 0.15278 0.47681 0.0
H143 H 0.23917 0.11083 0.5199 0.0
Tb144 Tb 0.57237 0.07749 0.10564 0.0
Tb145 Tb 0.47548 0.05344 0.08625 0.0
C146 C 0.65013 0.11474 0.10706 0.0
C147 C 0.68554 0.13051 0.1345 0.0
C148 C 0.71227 0.1673 0.12826 0.0
C149 C 0.74445 0.18425 0.15485 0.0
C150 C 0.75067 0.16456 0.18817 0.0
C151 C 0.72471 0.12706 0.1937 0.0
C152 C 0.69222 0.11023 0.16718 0.0
C153 C 0.53322 1.01685 0.14897 0.0
C154 C 0.51082 0.10576 0.15222 0.0
C155 C 0.3969 1.01958 0.0753 0.0
C156 C 0.36793 1.00167 0.0442 0.0
C157 C 0.32371 0.98969 0.04831 0.0
C158 C 0.29551 0.97299 1.0188 0.0
C159 C 0.31119 0.96803 0.98471 0.0
C160 C 0.3557 0.98033 0.98076 0.0
C161 C 0.38384 0.9971 1.01026 0.0
C162 C 0.51969 0.12043 0.05648 0.0
C163 C 0.53439 1.02282 0.03837 0.0
O164 O 0.61898 0.13031 0.10529 0.0
O165 O 0.63626 0.07778 0.10496 0.0
O166 O 0.51761 0.03515 0.12427 0.0
O167 O 0.57384 0.03477 0.15151 0.0
O168 O 0.54933 0.1141 0.1391 0.0
O169 O 0.47952 0.07595 0.14105 0.0
O170 O 0.4252 1.00279 0.08805 0.0
O171 O 0.41344 0.05623 0.07182 0.0
O172 O 0.53151 0.09074 0.06076 0.0
O173 O 0.48089 0.11182 0.06695 0.0
O174 O 0.49495 1.02137 0.04558 0.0
O175 O 0.56873 0.04484 0.05636 0.0
H176 H 0.70747 0.18336 0.10319 0.0
H177 H 0.76321 0.21334 0.14989 0.0
H178 H 0.72899 0.11092 0.21882 0.0
H179 H 0.67192 0.08172 0.17254 0.0
H180 H 0.31099 0.99334 0.07432 0.0
H181 H 0.26143 0.96423 1.02261 0.0
H182 H 0.36888 0.9764 0.95509 0.0
H183 H 0.41794 1.00639 1.00661 0.0
Tb184 Tb 0.50562 0.58552 0.57732 0.0
Tb185 Tb 0.49257 0.52056 0.53407 0.0
C186 C 0.49268 0.64137 0.60551 0.0
C187 C 0.45475 0.64571 0.62207 0.0
C188 C 0.4136 0.62976 0.60525 0.0
C189 C 0.37784 0.63501 0.62016 0.0
C190 C 0.38243 0.65596 0.65234 0.0
C191 C 0.42333 0.67068 0.67003 0.0
C192 C 0.45932 0.66569 0.65487 0.0
C193 C 0.53999 0.53594 0.61276 0.0
C194 C 0.4166 0.51633 0.58307 0.0
C195 C 0.50531 0.46345 0.50775 0.0
C196 C 0.54495 0.45552 0.49916 0.0
C197 C 0.5841 0.47413 0.51796 0.0
C198 C 0.62175 0.46676 0.50985 0.0
C199 C 0.62092 0.44019 0.48318 0.0
C200 C 0.58165 0.42143 0.46447 0.0
C201 C 0.54397 0.42922 0.47228 0.0
C202 C 0.46208 0.5732 0.49775 0.0
C203 C 0.58119 0.5882 0.52814 0.0
O204 O 0.48834 0.6354 0.56981 0.0
O205 O 0.51203 0.61928 0.62392 0.0
O206 O 0.50442 0.52837 0.59346 0.0
O207 O 0.55708 0.57242 0.61168 0.0
O208 O 0.43952 0.55141 0.59152 0.0
O209 O 0.43123 0.49731 0.55991 0.0
O210 O 0.5011 0.46695 0.54302 0.0
O211 O 0.495 0.48978 0.48714 0.0
O212 O 0.4962 0.57838 0.51841 0.0
O213 O 0.44432 0.53677 0.49661 0.0
O214 O 0.55998 0.55207 0.52325 0.0
O215 O 0.56473 0.60907 0.54781 0.0
H216 H 0.40903 0.61371 0.58019 0.0
H217 H 0.34658 0.62312 0.60623 0.0
H218 H 0.42765 0.68719 0.69475 0.0
H219 H 0.49073 0.67792 0.66839 0.0
H220 H 0.5856 0.49404 0.53933 0.0
H221 H 0.65139 0.4812 0.52509 0.0
H222 H 0.58017 0.40096 0.44362 0.0
H223 H 0.51408 0.41459 0.4575 0.0
Tb224 Tb 0.99921 0.59071 0.03721 0.0
Tb225 Tb 0.99778 0.52827 0.09016 0.0
C226 C 0.97738 0.63736 0.99299 0.0
C227 C 0.9456 0.65837 0.98947 0.0
C228 C 0.90309 0.64117 0.99876 0.0
C229 C 0.87196 0.65956 0.99008 0.0
C230 C 0.8829 0.69558 0.9724 0.0
C231 C 0.92587 0.7135 0.96493 0.0
C232 C 0.95692 0.69492 0.97324 0.0
C233 C 0.07437 0.59639 0.07311 0.0
C234 C 0.97142 0.59673 0.12207 0.0
C235 C 0.02176 0.48133 0.13243 0.0
C236 C 0.05883 0.46656 0.13337 0.0
C237 C 0.08389 0.46796 0.16678 0.0
C238 C 0.12293 0.46002 0.16754 0.0
C239 C 0.13762 0.45033 0.13488 0.0
C240 C 0.11166 0.44732 0.10168 0.0
C241 C 0.07264 0.45559 0.10086 0.0
C242 C 0.92208 0.52096 0.05424 0.0
C243 C 0.03165 0.52604 1.0063 0.0
O244 O 0.9621 0.60062 0.99056 0.0
O245 O 1.00819 0.64738 1.019 0.0
O246 O 0.03782 0.58467 0.08577 0.0
O247 O 0.06973 0.6077 0.03877 0.0
O248 O 0.97078 0.6087 0.08629 0.0
O249 O 0.98255 0.5654 0.13053 0.0
O250 O 0.03178 0.51738 0.13864 0.0
O251 O 0.99254 0.47143 0.10513 0.0
O252 O 0.9587 0.53339 0.04125 0.0
O253 O 0.92756 0.5114 0.08905 0.0
O254 O 0.0285 0.51222 0.04146 0.0
O255 O 0.02086 0.55736 0.99758 0.0
H256 H 0.89364 0.61303 1.01156 0.0
H257 H 0.83916 0.64536 0.99659 0.0
H258 H 0.93513 0.74116 0.95113 0.0
H259 H 0.98951 0.70857 0.96576 0.0
H260 H 0.07394 0.47653 0.19211 0.0
H261 H 0.14191 0.46187 0.19367 0.0
H262 H 0.12223 0.43991 0.07611 0.0
H263 H 0.05405 0.45452 0.07463 0.0
H264 H 0.341 0.26699 0.23606 0.0
H265 H 0.31664 0.21995 0.454 0.0
H266 H 0.42785 0.3325 0.31986 0.0
H267 H 0.22443 0.16549 0.36719 0.0
H268 H 0.36313 0.25641 0.4062 0.0
H269 H 0.30425 0.22335 0.28446 0.0
C270 C 0.35294 0.27135 0.2648 0.0
C271 C 0.38762 0.30269 0.27428 0.0
C272 C 0.33276 0.2364 0.3977 0.0
C273 C 0.34494 0.25415 0.33002 0.0
C274 C 0.30629 0.21559 0.42491 0.0
C275 C 0.26642 0.18999 0.41451 0.0
C276 C 0.31934 0.23127 0.35991 0.0
C277 C 0.25449 0.18546 0.37648 0.0
C278 C 0.33172 0.24686 0.29247 0.0
C279 C 0.40137 0.3082 0.31181 0.0
N280 N 0.28078 0.20591 0.35063 0.0
N281 N 0.37969 0.28427 0.33854 0.0
H282 H 0.216 0.8784 0.77008 0.0
H283 H 0.24003 0.90632 0.98878 0.0
H284 H 0.13473 0.80309 0.84742 0.0
H285 H 0.3146 0.98641 0.91002 0.0
H286 H 0.19513 0.8724 0.93711 0.0
H287 H 0.24611 0.9228 0.82002 0.0
C288 C 0.20366 0.87195 0.79747 0.0
C289 C 0.17265 0.83762 0.80492 0.0
C290 C 0.22104 0.89761 0.93111 0.0
C291 C 0.2078 0.88709 0.86241 0.0
C292 C 0.24662 0.91712 0.96065 0.0
C293 C 0.28149 0.94904 0.95373 0.0
C294 C 0.23052 0.90995 0.89436 0.0
C295 C 0.28868 0.96145 0.91664 0.0
C296 C 0.22107 0.89697 0.82606 0.0
C297 C 0.15843 0.82962 0.84093 0.0
N298 N 0.26368 0.94168 0.88835 0.0
N299 N 0.17648 0.85401 0.86857 0.0
H300 H 0.61142 0.46611 0.83716 0.0
H301 H 0.51277 0.45734 0.62539 0.0
H302 H 0.59323 0.36638 0.77424 0.0
H303 H 0.59032 0.56018 0.67606 0.0
H304 H 0.52992 0.42113 0.68104 0.0
H305 H 0.59093 0.49848 0.78081 0.0
C306 C 0.60262 0.45085 0.81155 0.0
C307 C 0.60414 0.41335 0.81074 0.0
C308 C 0.54317 0.45164 0.67985 0.0
C309 C 0.57981 0.45039 0.74542 0.0
C310 C 0.53334 0.47237 0.64803 0.0
C311 C 0.55012 0.51211 0.64557 0.0
C312 C 0.56909 0.47071 0.71008 0.0
C313 C 0.57659 0.52974 0.67618 0.0
C314 C 0.59103 0.4694 0.77924 0.0
C315 C 0.59214 0.39508 0.77647 0.0
N316 N 0.58477 0.50918 0.70689 0.0
N317 N 0.58042 0.41361 0.74537 0.0
H318 H 0.96393 0.69674 0.34223 0.0
H319 H 0.93404 0.65675 0.11905 0.0
H320 H 0.88039 0.7412 0.26886 0.0
H321 H 0.98786 0.59113 0.19941 0.0
H322 H 0.92133 0.69319 0.17046 0.0
H323 H 0.98153 0.6658 0.28908 0.0
C324 C 0.95077 0.70174 0.31469 0.0
C325 C 0.9218 0.72367 0.31082 0.0
C326 C 0.93594 0.67085 0.17703 0.0
C327 C 0.94076 0.68567 0.24802 0.0
C328 C 0.94328 0.64969 0.14732 0.0
C329 C 0.96199 0.61981 0.15385 0.0
C330 C 0.94798 0.66333 0.21457 0.0
C331 C 0.97307 0.61319 0.19198 0.0
C332 C 0.96015 0.68308 0.28409 0.0
C333 C 0.90421 0.72636 0.27386 0.0
N334 N 0.96625 0.63445 0.22011 0.0
N335 N 0.9138 0.70798 0.24458 0.0
H336 H 0.37953 0.26532 0.17584 0.0
H337 H 0.56466 0.17156 0.18132 0.0
H338 H 0.49345 0.31093 0.24605 0.0
H339 H 0.43139 0.10581 0.17038 0.0
H340 H 0.54297 0.22455 0.20272 0.0
H341 H 0.40133 0.2084 0.16842 0.0
C342 C 0.40931 0.26318 0.18945 0.0
C343 C 0.43512 0.29252 0.21119 0.0
C344 C 0.5187 0.19818 0.1963 0.0
C345 C 0.46034 0.22811 0.20301 0.0
C346 C 0.53098 0.16791 0.18419 0.0
C347 C 0.49979 0.13428 0.17357 0.0
C348 C 0.47499 0.19493 0.197 0.0
C349 C 0.45663 0.1312 0.17792 0.0
C350 C 0.42155 0.23076 0.18559 0.0
C351 C 0.47313 0.28868 0.22886 0.0
N352 N 0.44548 0.16139 0.18854 0.0
N353 N 0.48506 0.25713 0.22401 0.0
H354 H 0.07048 0.83315 0.75786 0.0
H355 H 0.14058 1.01099 0.61533 0.0
H356 H 0.18598 0.86305 0.69893 0.0
H357 H 1.01067 0.963 0.64777 0.0
H358 H 0.16214 0.96456 0.65636 0.0
H359 H 0.05207 0.88803 0.72752 0.0
C360 C 0.09197 0.85164 0.73876 0.0
C361 C 0.12941 0.84395 0.73034 0.0
C362 C 0.12896 0.96438 0.65469 0.0
C363 C 0.10933 0.90612 0.69613 0.0
C364 C 0.11665 0.99096 0.63136 0.0
C365 C 0.07365 0.99057 0.62775 0.0
C366 C 0.09812 0.93731 0.67469 0.0
C367 C 0.04408 0.96404 0.64937 0.0
C368 C 0.0816 0.88272 0.72149 0.0
C369 C 0.15665 0.86833 0.70564 0.0
N370 N 0.05681 0.93828 0.67178 0.0
N371 N 0.14607 0.89833 0.6893 0.0
H372 H 0.66049 0.40953 0.96358 0.0
H373 H 0.91413 0.50669 0.97949 0.0
H374 H 0.74541 0.3896 0.88696 0.0
H375 H 0.83964 0.4896 0.07613 0.0
H376 H 0.85065 0.4693 0.94334 0.0
H377 H 0.7232 0.44162 1.00467 0.0
C378 C 0.6923 0.41098 0.95597 0.0
C379 C 0.69774 0.39672 0.92189 0.0
C380 C 0.84807 0.47375 0.97244 0.0
C381 C 0.76981 0.43491 0.9678 0.0
C382 C 0.88432 0.49545 0.99308 0.0
C383 C 0.88243 0.50146 1.03105 0.0
C384 C 0.80904 0.45824 0.98949 0.0
C385 C 0.8427 0.48579 0.04699 0.0
C386 C 0.72813 0.42971 0.97914 0.0
C387 C 0.7398 0.40018 0.91296 0.0
N388 N 0.80766 0.46515 1.02619 0.0
N389 N 0.77404 0.41933 0.93532 0.0
H390 H 0.76616 0.66351 0.35452 0.0
H391 H 0.64572 0.6552 0.54199 0.0
H392 H 0.83258 0.71779 0.45364 0.0
H393 H 0.60927 0.56219 0.46729 0.0
H394 H 0.70956 0.68427 0.50649 0.0
H395 H 0.70412 0.63131 0.39133 0.0
C396 C 0.76792 0.66851 0.38401 0.0
C397 C 0.80505 0.69361 0.40077 0.0
C398 C 0.68765 0.65743 0.49794 0.0
C399 C 0.73302 0.65765 0.44313 0.0
C400 C 0.65105 0.64076 0.51825 0.0
C401 C 0.62175 0.60589 0.50802 0.0
C402 C 0.69485 0.63985 0.46629 0.0
C403 C 0.6308 0.58887 0.47666 0.0
C404 C 0.73232 0.65025 0.40503 0.0
C405 C 0.80471 0.69928 0.43919 0.0
N406 N 0.66597 0.60608 0.45684 0.0
N407 N 0.76943 0.68194 0.45877 0.0
H408 H 0.33083 0.33766 0.15086 0.0
H409 H 0.21293 0.49375 0.16735 0.0
H410 H 0.38993 0.44384 0.20349 0.0
H411 H 0.15938 0.39294 0.10409 0.0
H412 H 0.28149 0.47999 0.17384 0.0
H413 H 0.2725 0.36158 0.12507 0.0
C414 C 0.33214 0.36656 0.15582 0.0
C415 C 0.36505 0.389 0.17911 0.0
C416 C 0.25495 0.46106 0.15817 0.0
C417 C 0.29776 0.41609 0.15116 0.0
C418 C 0.21572 0.46876 0.1547 0.0
C419 C 0.18026 0.44406 0.13572 0.0
C420 C 0.2587 0.42818 0.14289 0.0
C421 C 0.18588 0.41261 0.11909 0.0
C422 C 0.29864 0.38009 0.14151 0.0
C423 C 0.36493 0.42586 0.18562 0.0
N424 N 0.2242 0.40527 0.12351 0.0
N425 N 0.33136 0.43811 0.17223 0.0
H426 H 0.5585 0.3387 0.93822 0.0
H427 H 0.59612 0.14227 1.01921 0.0
H428 H 0.66905 0.30657 0.91378 0.0
H429 H 0.49066 0.18195 0.04418 0.0
H430 H 0.62539 0.20155 0.9823 0.0
H431 H 0.53549 0.28196 0.97872 0.0
C432 C 0.57814 0.31977 0.9416 0.0
C433 C 0.61573 0.32758 0.92233 0.0
C434 C 0.59592 0.19731 0.99598 0.0
C435 C 0.58926 0.26141 0.96903 0.0
C436 C 0.57917 0.16337 1.01715 0.0
C437 C 0.54058 0.15667 0.03495 0.0
C438 C 0.57401 0.22501 0.99241 0.0
C439 C 0.52031 0.18539 1.03104 0.0
C440 C 0.56497 0.28717 0.96479 0.0
C441 C 0.64 0.3019 0.92819 0.0
N442 N 0.53701 0.21777 1.01037 0.0
N443 N 0.62628 0.26999 0.95065 0.0
H444 H 0.91502 0.83224 0.3254 0.0
H445 H 1.00141 0.93503 0.52158 0.0
H446 H 0.95373 0.77358 0.42083 0.0
H447 H 1.00354 0.99849 0.418 0.0
H448 H 0.98031 0.87593 0.48632 0.0
H449 H 0.94577 0.89255 0.35756 0.0
C450 C 0.93207 0.83198 0.35225 0.0
C451 C 0.93284 0.7968 0.36917 0.0
C452 C 0.98529 0.90274 0.47117 0.0
C453 C 0.96581 0.8672 0.40857 0.0
C454 C 0.99717 0.93682 0.49153 0.0
C455 C 1.00444 0.97273 0.47329 0.0
C456 C 0.9796 0.90361 0.43175 0.0
C457 C 0.99846 0.97208 0.43386 0.0
C458 C 0.94874 0.8667 0.37128 0.0
C459 C 0.95349 0.79941 0.40548 0.0
N460 N 0.98632 0.93873 0.41487 0.0
N461 N 0.96801 0.83313 0.42382 0.0
H462 H 0.21111 0.78178 0.68141 0.0
H463 H 0.3549 0.64918 0.72328 0.0
H464 H 0.17916 0.69632 0.76906 0.0
H465 H 0.32578 0.68407 0.61091 0.0
H466 H 0.29542 0.66938 0.74407 0.0
H467 H 0.2578 0.74948 0.65736 0.0
C468 C 0.21296 0.75553 0.69494 0.0
C469 C 0.19054 0.74117 0.72676 0.0
C470 C 0.3018 0.67199 0.71482 0.0
C471 C 0.24588 0.70526 0.70067 0.0
C472 C 0.33576 0.6608 0.70305 0.0
C473 C 0.34511 0.6651 0.6654 0.0
C474 C 0.27803 0.68836 0.68883 0.0
C475 C 0.31939 0.6801 0.64014 0.0
C476 C 0.24 0.73735 0.68147 0.0
C477 C 0.19592 0.70811 0.7444 0.0
N478 N 0.28738 0.6917 0.6524 0.0
N479 N 0.22365 0.69143 0.73143 0.0
H480 H 0.63686 0.80496 0.77328 0.0
H481 H 0.86792 0.93531 0.71823 0.0
H482 H 0.73607 0.86491 0.85177 0.0
H483 H 0.76219 0.89269 0.63784 0.0
H484 H 0.82452 0.89865 0.76716 0.0
H485 H 0.68668 0.82598 0.72318 0.0
C486 C 0.66952 0.82184 0.7799 0.0
C487 C 0.68274 0.83319 0.81639 0.0
C488 C 0.81091 0.89699 0.73877 0.0
C489 C 0.73949 0.85759 0.75986 0.0
C490 C 0.8358 0.91773 0.71073 0.0
C491 C 0.81857 0.9173 0.67387 0.0
C492 C 0.76839 0.87564 0.73001 0.0
C493 C 0.7765 0.89435 0.66598 0.0
C494 C 0.69781 0.83394 0.75148 0.0
C495 C 0.7251 0.85517 0.82397 0.0
N496 N 0.75272 0.87464 0.69388 0.0
N497 N 0.75192 0.86695 0.79588 0.0
H498 H 0.84597 0.27048 0.39516 0.0
H499 H 0.83019 0.21663 0.18189 0.0
H500 H 0.92468 0.34127 0.31333 0.0
H501 H 0.74073 0.1583 0.26319 0.0
H502 H 0.87434 0.2557 0.23126 0.0
H503 H 0.81724 0.22186 0.34906 0.0
C504 C 0.8578 0.27518 0.36749 0.0
C505 C 0.8878 0.30937 0.35778 0.0
C506 C 0.84533 0.23397 0.23826 0.0
C507 C 0.85422 0.25483 0.30449 0.0
C508 C 0.81999 0.21176 0.21011 0.0
C509 C 0.7813 0.1844 0.21824 0.0
C510 C 0.83193 0.22866 0.27477 0.0
C511 C 0.77031 0.17876 0.25547 0.0
C512 C 0.84123 0.24771 0.34111 0.0
C513 C 0.90162 0.31497 0.32153 0.0
N514 N 0.79526 0.20093 0.28221 0.0
N515 N 0.88435 0.28801 0.29589 0.0
H516 H 0.40033 0.75165 0.35228 0.0
H517 H 0.43158 0.55686 0.42534 0.0
H518 H 0.44181 0.68224 0.28053 0.0
H519 H 0.47949 0.65173 0.49703 0.0
H520 H 0.42437 0.60059 0.37337 0.0
H521 H 0.42153 0.71653 0.40688 0.0
C522 C 0.4159 0.73035 0.34798 0.0
C523 C 0.42029 0.72086 0.31137 0.0
C524 C 0.43641 0.61193 0.40048 0.0
C525 C 0.44166 0.67817 0.37408 0.0
C526 C 0.4403 0.58685 0.4304 0.0
C527 C 0.45612 0.60025 0.46611 0.0
C528 C 0.4471 0.6511 0.40595 0.0
C529 C 0.4671 0.63979 0.47029 0.0
C530 C 0.42718 0.70968 0.37923 0.0
C531 C 0.4388 0.69142 0.30797 0.0
N532 N 0.46185 0.6636 0.44094 0.0
N533 N 0.4476 0.67072 0.33846 0.0
H534 H 0.17329 0.45205 0.83661 0.0
H535 H 1.01294 0.44834 0.99355 0.0
H536 H 0.04229 0.38445 0.81656 0.0
H537 H 0.08321 0.55612 0.94659 0.0
H538 H 0.03273 0.41681 0.94156 0.0
H539 H 0.15133 0.48258 0.88731 0.0
C540 C 0.13976 0.44354 0.84216 0.0
C541 C 0.10996 0.41554 0.82025 0.0
C542 C 0.04406 0.44736 0.94263 0.0
C543 C 0.08449 0.44991 0.88225 0.0
C544 C 0.03294 0.4656 0.97275 0.0
C545 C 0.04618 0.50553 0.97542 0.0
C546 C 0.07032 0.46857 0.91482 0.0
C547 C 0.07187 0.52553 0.94652 0.0
C548 C 0.12727 0.46101 0.87193 0.0
C549 C 0.06723 0.40529 0.83179 0.0
N550 N 0.0834 0.50713 0.91837 0.0
N551 N 0.05616 0.42195 0.86163 0.0
H552 H 0.65015 0.9186 0.88507 0.0
H553 H 0.47631 0.96033 1.00767 0.0
H554 H 0.53358 0.83347 0.91189 0.0
H555 H 0.60711 1.03115 1.00239 0.0
H556 H 0.49044 0.91814 0.96322 0.0
H557 H 0.62807 0.96504 0.91811 0.0
C558 C 0.61948 0.91007 0.89751 0.0
C559 C 0.5934 0.87257 0.89587 0.0
C560 C 0.51584 0.9431 0.97164 0.0
C561 C 0.56821 0.9249 0.93424 0.0
C562 C 0.50781 0.96724 0.99685 0.0
C563 C 0.54075 0.99907 1.00901 0.0
C564 C 0.55691 0.9512 0.9583 0.0
C565 C 0.58092 1.00669 0.99414 0.0
C566 C 0.60699 0.93634 0.91652 0.0
C567 C 0.55426 0.86233 0.91272 0.0
N568 N 0.58787 0.98287 0.96968 0.0
N569 N 0.54281 0.88839 0.93151 0.0
H570 H 0.98811 0.32337 0.39172 0.0
H571 H 0.93102 0.11483 0.48101 0.0
H572 H 0.88645 0.27781 0.4656 0.0
H573 H 0.0615 0.17617 0.45797 0.0
H574 H 0.90944 0.17067 0.46152 0.0
H575 H 1.01211 0.2666 0.40462 0.0
C576 C 0.97153 0.30164 0.4112 0.0
C577 C 0.93618 0.3054 0.42851 0.0
C578 C 0.94273 0.17176 0.46041 0.0
C579 C 0.96178 0.24036 0.442 0.0
C580 C 0.95509 0.13978 0.4712 0.0
C581 C 0.99831 0.14092 0.4716 0.0
C582 C 0.97362 0.20507 0.44949 0.0
C583 C 0.02789 0.17412 0.45835 0.0
C584 C 0.98491 0.26935 0.41832 0.0
C585 C 0.91469 0.27631 0.45274 0.0
N586 N 1.01504 0.20509 0.44801 0.0
N587 N 0.9276 0.24483 0.45855 0.0
H588 H 0.25345 0.68412 0.26043 0.0
H589 H 0.15628 0.63117 0.05206 0.0
H590 H 0.33131 0.70326 0.16609 0.0
H591 H 0.0837 0.59413 0.1493 0.0
H592 H 0.22049 0.65844 0.09281 0.0
H593 H 0.19054 0.65205 0.22007 0.0
C594 C 0.25724 0.68117 0.23124 0.0
C595 C 0.2976 0.69592 0.21661 0.0
C596 C 0.19059 0.64414 0.10526 0.0
C597 C 0.22574 0.66001 0.1699 0.0
C598 C 0.15392 0.62851 0.08197 0.0
C599 C 0.11448 0.61033 0.09721 0.0
C600 C 0.18784 0.64194 0.14418 0.0
C601 C 0.11338 0.60779 0.13624 0.0
C602 C 0.22139 0.66303 0.20814 0.0
C603 C 0.30071 0.69216 0.1784 0.0
N604 N 0.1493 0.6236 0.15827 0.0
N605 N 0.26536 0.67472 0.15639 0.0
H606 H 0.24295 0.4202 0.75888 0.0
H607 H 0.34743 0.45461 0.56165 0.0
H608 H 0.15962 0.39249 0.65999 0.0
H609 H 0.39231 0.53285 0.65056 0.0
H610 H 0.28382 0.42189 0.59663 0.0
H611 H 0.30326 0.45001 0.72017 0.0
C612 C 0.23742 0.41974 0.72889 0.0
C613 C 0.1957 0.40358 0.71301 0.0
C614 C 0.3075 0.44633 0.60836 0.0
C615 C 0.2659 0.43794 0.66772 0.0
C616 C 0.34402 0.46511 0.58839 0.0
C617 C 0.37578 0.49699 0.60278 0.0
C618 C 0.30292 0.45846 0.64384 0.0
C619 C 0.36902 0.50878 0.63786 0.0
C620 C 0.27199 0.4371 0.70673 0.0
C621 C 0.19099 0.40408 0.67371 0.0
N622 N 0.33409 0.48939 0.65713 0.0
N623 N 0.22551 0.42079 0.65252 0.0
H624 H 0.66641 0.74822 0.85521 0.0
H625 H 0.8834 0.76885 0.98039 0.0
H626 H 0.72129 0.83983 0.92948 0.0
H627 H 0.80638 0.66293 0.93481 0.0
H628 H 0.8284 0.7981 0.9566 0.0
H629 H 0.72216 0.71904 0.87827 0.0
C630 C 0.69031 0.76197 0.87643 0.0
C631 C 0.68921 0.79584 0.8911 0.0
C632 C 0.82349 0.76842 0.95196 0.0
C633 C 0.75286 0.76345 0.91721 0.0
C634 C 0.85487 0.75179 0.96541 0.0
C635 C 0.84926 0.71342 0.9597 0.0
C636 C 0.78657 0.74663 0.93219 0.0
C637 C 0.81166 0.6925 0.94023 0.0
C638 C 0.72189 0.74544 0.88965 0.0
C639 C 0.72086 0.8132 0.91822 0.0
N640 N 0.78183 0.70942 0.92699 0.0
N641 N 0.75151 0.79683 0.93042 0.0
H642 H 0.4149 0.82321 0.29987 0.0
H643 H 0.47228 0.95306 0.12152 0.0
H644 H 0.45063 0.77777 0.20425 0.0
H645 H 0.54831 0.99486 0.22142 0.0
H646 H 0.44648 0.89015 0.15288 0.0
H647 H 0.44999 0.88785 0.2752 0.0
C648 C 0.43202 0.82668 0.27471 0.0
C649 C 0.43076 0.79452 0.25485 0.0
C650 C 0.46844 0.91326 0.16805 0.0
C651 C 0.46782 0.86884 0.2246 0.0
C652 C 0.48281 0.94934 0.15027 0.0
C653 C 0.51227 0.97969 0.16884 0.0
C654 C 0.4824 0.90741 0.20521 0.0
C655 C 0.52544 0.97252 0.20599 0.0
C656 C 0.45117 0.86367 0.26013 0.0
C657 C 0.45182 0.8014 0.22119 0.0
N658 N 0.51014 0.93752 0.22301 0.0
N659 N 0.46814 0.83735 0.20673 0.0
H660 H 0.05162 0.31166 0.72062 0.0
H661 H 0.12091 0.17686 0.58381 0.0
H662 H 0.18558 0.32753 0.70833 0.0
H663 H 1.01127 0.13666 0.65002 0.0
H664 H 0.14263 0.23676 0.61824 0.0
H665 H 0.03407 0.25365 0.6853 0.0
C666 C 0.07769 0.30315 0.71088 0.0
C667 C 0.12053 0.32536 0.7189 0.0
C668 C 0.11374 0.21488 0.62519 0.0
C669 C 0.09971 0.25777 0.67538 0.0
C670 C 0.10106 0.18046 0.60522 0.0
C671 C 0.06383 0.15074 0.61349 0.0
C672 C 0.08858 0.22084 0.65332 0.0
C673 C 0.04015 0.15802 0.64215 0.0
C674 C 0.06739 0.26973 0.69014 0.0
C675 C 0.15206 0.31243 0.70327 0.0
N676 N 0.05246 0.19179 0.66028 0.0
N677 N 0.14111 0.28008 0.68246 0.0
H678 H 0.87388 0.44782 0.41938 0.0
H679 H 0.6323 0.37062 0.47795 0.0
H680 H 0.81494 0.33306 0.45659 0.0
H681 H 0.70019 0.48985 0.47207 0.0
H682 H 0.69859 0.35653 0.46711 0.0
H683 H 0.81084 0.46481 0.43704 0.0
C684 C 0.84796 0.42657 0.43213 0.0
C685 C 0.84939 0.38927 0.43718 0.0
C686 C 0.69908 0.3858 0.46831 0.0
C687 C 0.77725 0.40773 0.45622 0.0
C688 C 0.66116 0.39383 0.47414 0.0
C689 C 0.66078 0.43143 0.47579 0.0
C690 C 0.73687 0.41559 0.46363 0.0
C691 C 0.69923 0.46044 0.4712 0.0
C692 C 0.81203 0.43605 0.44195 0.0
C693 C 0.81495 0.36224 0.45296 0.0
N694 N 0.73572 0.45193 0.4651 0.0
N695 N 0.78008 0.3719 0.46162 0.0
loop_
_geom_bond_atom_site_label_1
_geom_bond_atom_site_label_2
_geom_bond_distance
_geom_bond_site_symmetry_2
_ccdc_geom_bond_type
C0 N1 1.317 . S
C0 N2 1.348 . S
C0 C3 1.485 . S
N1 C0 1.317 . S
N1 N5 1.370 . S
N2 C0 1.348 . S
N2 C4 1.346 . S
C3 C0 1.485 . S
C3 H7 0.960 . S
C3 H8 0.961 . S
C3 H9 0.960 . S
C4 N2 1.346 . S
C4 N5 1.307 . S
C4 C6 1.486 . S
N5 N1 1.370 . S
N5 C4 1.307 . S
C6 C4 1.486 . S
C6 H10 0.960 . S
C6 H11 0.960 . S
C6 H12 0.959 . S
H7 C3 0.960 . S
H8 C3 0.961 . S
H9 C3 0.960 . S
H10 C6 0.960 . S
H11 C6 0.960 . S
H12 C6 0.959 . S
C13 N14 1.317 . S
C13 N15 1.348 . S
C13 C16 1.485 . S
N14 C13 1.317 . S
N14 N18 1.370 . S
N15 C13 1.348 . S
N15 C17 1.346 . S
C16 C13 1.485 . S
C16 H20 0.960 . S
C16 H21 0.961 . S
C16 H22 0.960 . S
C17 N15 1.346 . S
C17 N18 1.307 . S
C17 C19 1.486 . S
N18 N14 1.370 . S
N18 C17 1.307 . S
C19 C17 1.486 . S
C19 H23 0.960 . S
C19 H24 0.960 . S
C19 H25 0.959 . S
H20 C16 0.960 . S
H21 C16 0.961 . S
H22 C16 0.960 . S
H23 C19 0.960 . S
H24 C19 0.960 . S
H25 C19 0.959 . S
C26 N27 1.317 . S
C26 N28 1.348 . S
C26 C29 1.485 . S
N27 C26 1.317 . S
N27 N31 1.370 . S
N28 C26 1.348 . S
N28 C30 1.346 . S
C29 C26 1.485 . S
C29 H33 0.960 . S
C29 H34 0.961 . S
C29 H35 0.960 . S
C30 N28 1.346 . S
C30 N31 1.307 . S
C30 C32 1.486 . S
N31 N27 1.370 . S
N31 C30 1.307 . S
C32 C30 1.486 . S
C32 H36 0.960 . S
C32 H37 0.960 . S
C32 H38 0.959 . S
H33 C29 0.960 . S
H34 C29 0.961 . S
H35 C29 0.960 . S
H36 C32 0.960 . S
H37 C32 0.960 . S
H38 C32 0.959 . S
C39 N40 1.317 . S
C39 N41 1.348 . S
C39 C42 1.485 . S
N40 C39 1.317 . S
N40 N44 1.370 . S
N41 C39 1.348 . S
N41 C43 1.346 . S
C42 C39 1.485 . S
C42 H46 0.960 . S
C42 H47 0.961 . S
C42 H48 0.960 . S
C43 N41 1.346 . S
C43 N44 1.307 . S
C43 C45 1.486 . S
N44 N40 1.370 . S
N44 C43 1.307 . S
C45 C43 1.486 . S
C45 H49 0.960 . S
C45 H50 0.960 . S
C45 H51 0.959 . S
H46 C42 0.960 . S
H47 C42 0.961 . S
H48 C42 0.960 . S
H49 C45 0.960 . S
H50 C45 0.960 . S
H51 C45 0.959 . S
C52 N53 1.317 . S
C52 N54 1.348 . S
C52 C55 1.485 . S
N53 C52 1.317 . S
N53 N57 1.370 . S
N54 C52 1.348 . S
N54 C56 1.346 . S
C55 C52 1.485 . S
C55 H59 0.960 . S
C55 H60 0.961 . S
C55 H61 0.960 . S
C56 N54 1.346 . S
C56 N57 1.307 . S
C56 C58 1.486 . S
N57 N53 1.370 . S
N57 C56 1.307 . S
C58 C56 1.486 . S
C58 H62 0.960 . S
C58 H63 0.960 . S
C58 H64 0.959 . S
H59 C55 0.960 . S
H60 C55 0.961 . S
H61 C55 0.960 . S
H62 C58 0.960 . S
H63 C58 0.960 . S
H64 C58 0.959 . S
C65 N66 1.317 . S
C65 N67 1.348 . S
C65 C68 1.485 . S
N66 C65 1.317 . S
N66 N70 1.370 . S
N67 C65 1.348 . S
N67 C69 1.346 . S
C68 C65 1.485 . S
C68 H72 0.960 . S
C68 H73 0.961 . S
C68 H74 0.960 . S
C69 N67 1.346 . S
C69 N70 1.307 . S
C69 C71 1.486 . S
N70 N66 1.370 . S
N70 C69 1.307 . S
C71 C69 1.486 . S
C71 H75 0.960 . S
C71 H76 0.960 . S
C71 H77 0.959 . S
H72 C68 0.960 . S
H73 C68 0.961 . S
H74 C68 0.960 . S
H75 C71 0.960 . S
H76 C71 0.960 . S
H77 C71 0.959 . S
C78 N79 1.317 . S
C78 N80 1.348 . S
C78 C81 1.485 . S
N79 C78 1.317 . S
N79 N83 1.370 . S
N80 C78 1.348 . S
N80 C82 1.346 . S
C81 C78 1.485 . S
C81 H85 0.960 . S
C81 H86 0.961 . S
C81 H87 0.960 . S
C82 N80 1.346 . S
C82 N83 1.307 . S
C82 C84 1.486 . S
N83 N79 1.370 . S
N83 C82 1.307 . S
C84 C82 1.486 . S
C84 H88 0.960 . S
C84 H89 0.960 . S
C84 H90 0.959 . S
H85 C81 0.960 . S
H86 C81 0.961 . S
H87 C81 0.960 . S
H88 C84 0.960 . S
H89 C84 0.960 . S
H90 C84 0.959 . S
C91 N92 1.317 . S
C91 N93 1.348 . S
C91 C94 1.485 . S
N92 C91 1.317 . S
N92 N96 1.370 . S
N93 C91 1.348 . S
N93 C95 1.346 . S
C94 C91 1.485 . S
C94 H98 0.960 . S
C94 H99 0.961 . S
C94 H100 0.960 . S
C95 N93 1.346 . S
C95 N96 1.307 . S
C95 C97 1.486 . S
N96 N92 1.370 . S
N96 C95 1.307 . S
C97 C95 1.486 . S
C97 H101 0.960 . S
C97 H102 0.960 . S
C97 H103 0.959 . S
H98 C94 0.960 . S
H99 C94 0.961 . S
H100 C94 0.960 . S
H101 C97 0.960 . S
H102 C97 0.960 . S
H103 C97 0.959 . S
Tb104 C106 2.809 1_545 S
Tb104 O124 2.484 1_545 S
Tb104 O125 2.440 1_545 S
Tb104 O126 2.658 1_655 S
Tb104 O127 2.409 1_655 S
Tb104 O128 2.378 1_645 S
Tb104 O132 2.325 1_645 S
Tb104 O135 2.341 . S
Tb105 C115 2.809 . S
Tb105 O126 2.325 . S
Tb105 O129 2.341 1_545 S
Tb105 O130 2.484 . S
Tb105 O131 2.440 . S
Tb105 O132 2.658 1_545 S
Tb105 O133 2.409 1_545 S
Tb105 O134 2.378 . S
C106 Tb104 2.809 1_565 S
C106 C107 1.514 . S
C106 O124 1.248 . S
C106 O125 1.266 . S
C107 C106 1.514 . S
C107 C108 1.359 . S
C107 C112 1.348 . S
C108 C107 1.359 . S
C108 C109 1.380 . S
C108 H136 0.929 . S
C109 C108 1.380 . S
C109 C110 1.347 . S
C109 H137 0.931 . S
C110 C109 1.347 . S
C110 C111 1.369 . S
C111 C110 1.369 . S
C111 C112 1.408 . S
C111 H138 0.930 . S
C112 C107 1.348 . S
C112 C111 1.408 . S
C112 H139 0.930 . S
C113 O126 1.281 . S
C113 O127 1.254 . S
C114 O128 1.236 . S
C114 O129 1.266 . S
C115 Tb105 2.809 . S
C115 C116 1.514 . S
C115 O130 1.248 . S
C115 O131 1.266 . S
C116 C115 1.514 . S
C116 C117 1.359 . S
C116 C121 1.348 . S
C117 C116 1.359 . S
C117 C118 1.380 . S
C117 H140 0.929 . S
C118 C117 1.380 . S
C118 C119 1.347 . S
C118 H141 0.931 . S
C119 C118 1.347 . S
C119 C120 1.369 . S
C120 C119 1.369 . S
C120 C121 1.408 . S
C120 H142 0.930 . S
C121 C116 1.348 . S
C121 C120 1.408 . S
C121 H143 0.930 . S
C122 O132 1.281 . S
C122 O133 1.254 . S
C123 O134 1.236 . S
C123 O135 1.266 1_455 S
O124 Tb104 2.484 1_565 S
O124 C106 1.248 . S
O125 Tb104 2.440 1_565 S
O125 C106 1.266 . S
O126 Tb104 2.658 1_455 S
O126 Tb105 2.325 . S
O126 C113 1.281 . S
O127 Tb104 2.409 1_455 S
O127 C113 1.254 . S
O128 Tb104 2.378 1_465 S
O128 C114 1.236 . S
O129 Tb105 2.341 1_565 S
O129 C114 1.266 . S
O130 Tb105 2.484 . S
O130 C115 1.248 . S
O131 Tb105 2.440 . S
O131 C115 1.266 . S
O132 Tb104 2.325 1_465 S
O132 Tb105 2.658 1_565 S
O132 C122 1.281 . S
O133 Tb105 2.409 1_565 S
O133 C122 1.254 . S
O134 Tb105 2.378 . S
O134 C123 1.236 . S
O135 Tb104 2.341 . S
O135 C123 1.266 1_655 S
H136 C108 0.929 . S
H137 C109 0.931 . S
H138 C111 0.930 . S
H139 C112 0.930 . S
H140 C117 0.929 . S
H141 C118 0.931 . S
H142 C120 0.930 . S
H143 C121 0.930 . S
Tb144 C146 2.809 . S
Tb144 O164 2.484 . S
Tb144 O165 2.440 . S
Tb144 O166 2.658 1_545 S
Tb144 O167 2.409 1_545 S
Tb144 O168 2.378 . S
Tb144 O172 2.325 . S
Tb144 O175 2.343 1_545 S
Tb145 C155 2.809 1_544 S
Tb145 O166 2.325 1_545 S
Tb145 O169 2.341 . S
Tb145 O170 2.484 1_545 S
Tb145 O171 2.440 1_554 S
Tb145 O172 2.658 . S
Tb145 O173 2.409 1_554 S
Tb145 O174 2.378 . S
C146 Tb144 2.809 . S
C146 C147 1.514 . S
C146 O164 1.248 . S
C146 O165 1.266 . S
C147 C146 1.514 . S
C147 C148 1.359 . S
C147 C152 1.348 . S
C148 C147 1.359 . S
C148 C149 1.380 . S
C148 H176 0.929 . S
C149 C148 1.380 . S
C149 C150 1.347 . S
C149 H177 0.931 . S
C150 C149 1.347 . S
C150 C151 1.369 . S
C151 C150 1.369 . S
C151 C152 1.408 . S
C151 H178 0.930 . S
C152 C147 1.348 . S
C152 C151 1.408 . S
C152 H179 0.930 . S
C153 O166 1.281 . S
C153 O167 1.254 . S
C154 O168 1.236 . S
C154 O169 1.266 . S
C155 Tb145 2.809 1_566 S
C155 C156 1.514 . S
C155 O170 1.248 1_556 S
C155 O171 1.266 1_565 S
C156 C155 1.514 . S
C156 C157 1.359 . S
C156 C161 1.348 . S
C157 C156 1.359 . S
C157 C158 1.380 . S
C157 H180 0.929 . S
C158 C157 1.380 . S
C158 C159 1.347 . S
C158 H181 0.931 . S
C159 C158 1.347 . S
C159 C160 1.369 . S
C160 C159 1.369 . S
C160 C161 1.408 . S
C160 H182 0.930 . S
C161 C156 1.348 . S
C161 C160 1.408 . S
C161 H183 0.930 . S
C162 O172 1.281 . S
C162 O173 1.254 1_554 S
C163 O174 1.236 1_565 S
C163 O175 1.265 . S
O164 Tb144 2.484 . S
O164 C146 1.248 . S
O165 Tb144 2.440 . S
O165 C146 1.266 . S
O166 Tb144 2.658 1_565 S
O166 Tb145 2.325 1_565 S
O166 C153 1.281 . S
O167 Tb144 2.409 1_565 S
O167 C153 1.254 . S
O168 Tb144 2.378 . S
O168 C154 1.236 . S
O169 Tb145 2.341 . S
O169 C154 1.266 . S
O170 Tb145 2.484 1_565 S
O170 C155 1.248 1_554 S
O171 Tb145 2.440 1_556 S
O171 C155 1.266 1_545 S
O172 Tb144 2.325 . S
O172 Tb145 2.658 . S
O172 C162 1.281 . S
O173 Tb145 2.409 1_556 S
O173 C162 1.254 1_556 S
O174 Tb145 2.378 . S
O174 C163 1.236 1_545 S
O175 Tb144 2.343 1_565 S
O175 C163 1.265 . S
H176 C148 0.929 . S
H177 C149 0.931 . S
H178 C151 0.930 . S
H179 C152 0.930 . S
H180 C157 0.929 . S
H181 C158 0.931 . S
H182 C160 0.930 . S
H183 C161 0.930 . S
Tb184 C186 2.809 . S
Tb184 O204 2.484 . S
Tb184 O205 2.440 . S
Tb184 O206 2.658 . S
Tb184 O207 2.409 . S
Tb184 O208 2.378 . S
Tb184 O212 2.325 . S
Tb184 O215 2.341 . S
Tb185 C195 2.809 . S
Tb185 O206 2.325 . S
Tb185 O209 2.341 . S
Tb185 O210 2.484 . S
Tb185 O211 2.440 . S
Tb185 O212 2.658 . S
Tb185 O213 2.409 . S
Tb185 O214 2.378 . S
C186 Tb184 2.809 . S
C186 C187 1.514 . S
C186 O204 1.248 . S
C186 O205 1.266 . S
C187 C186 1.514 . S
C187 C188 1.359 . S
C187 C192 1.348 . S
C188 C187 1.359 . S
C188 C189 1.380 . S
C188 H216 0.929 . S
C189 C188 1.380 . S
C189 C190 1.347 . S
C189 H217 0.931 . S
C190 C189 1.347 . S
C190 C191 1.369 . S
C191 C190 1.369 . S
C191 C192 1.408 . S
C191 H218 0.930 . S
C192 C187 1.348 . S
C192 C191 1.408 . S
C192 H219 0.930 . S
C193 O206 1.281 . S
C193 O207 1.254 . S
C194 O208 1.236 . S
C194 O209 1.266 . S
C195 Tb185 2.809 . S
C195 C196 1.514 . S
C195 O210 1.248 . S
C195 O211 1.266 . S
C196 C195 1.514 . S
C196 C197 1.359 . S
C196 C201 1.348 . S
C197 C196 1.359 . S
C197 C198 1.380 . S
C197 H220 0.929 . S
C198 C197 1.380 . S
C198 C199 1.347 . S
C198 H221 0.931 . S
C199 C198 1.347 . S
C199 C200 1.369 . S
C200 C199 1.369 . S
C200 C201 1.408 . S
C200 H222 0.930 . S
C201 C196 1.348 . S
C201 C200 1.408 . S
C201 H223 0.930 . S
C202 O212 1.281 . S
C202 O213 1.254 . S
C203 O214 1.236 . S
C203 O215 1.266 . S
O204 Tb184 2.484 . S
O204 C186 1.248 . S
O205 Tb184 2.440 . S
O205 C186 1.266 . S
O206 Tb184 2.658 . S
O206 Tb185 2.325 . S
O206 C193 1.281 . S
O207 Tb184 2.409 . S
O207 C193 1.254 . S
O208 Tb184 2.378 . S
O208 C194 1.236 . S
O209 Tb185 2.341 . S
O209 C194 1.266 . S
O210 Tb185 2.484 . S
O210 C195 1.248 . S
O211 Tb185 2.440 . S
O211 C195 1.266 . S
O212 Tb184 2.325 . S
O212 Tb185 2.658 . S
O212 C202 1.281 . S
O213 Tb185 2.409 . S
O213 C202 1.254 . S
O214 Tb185 2.378 . S
O214 C203 1.236 . S
O215 Tb184 2.341 . S
O215 C203 1.266 . S
H216 C188 0.929 . S
H217 C189 0.931 . S
H218 C191 0.930 . S
H219 C192 0.930 . S
H220 C197 0.929 . S
H221 C198 0.931 . S
H222 C200 0.930 . S
H223 C201 0.930 . S
Tb224 C226 2.808 . S
Tb224 O244 2.484 . S
Tb224 O245 2.440 . S
Tb224 O246 2.659 1_656 S
Tb224 O247 2.409 1_656 S
Tb224 O248 2.378 1_556 S
Tb224 O252 2.324 . S
Tb224 O255 2.342 1_655 S
Tb225 C235 2.809 . S
Tb225 O246 2.325 . S
Tb225 O249 2.341 1_455 S
Tb225 O250 2.484 . S
Tb225 O251 2.440 . S
Tb225 O252 2.658 1_454 S
Tb225 O253 2.409 1_455 S
Tb225 O254 2.378 1_554 S
C226 Tb224 2.808 . S
C226 C227 1.514 . S
C226 O244 1.248 . S
C226 O245 1.266 . S
C227 C226 1.514 . S
C227 C228 1.359 . S
C227 C232 1.348 . S
C228 C227 1.359 . S
C228 C229 1.380 . S
C228 H256 0.929 . S
C229 C228 1.380 . S
C229 C230 1.347 . S
C229 H257 0.931 . S
C230 C229 1.347 . S
C230 C231 1.369 . S
C231 C230 1.369 . S
C231 C232 1.408 . S
C231 H258 0.930 . S
C232 C227 1.348 . S
C232 C231 1.408 . S
C232 H259 0.930 . S
C233 O246 1.281 . S
C233 O247 1.254 . S
C234 O248 1.236 . S
C234 O249 1.266 . S
C235 Tb225 2.809 . S
C235 C236 1.514 . S
C235 O250 1.248 . S
C235 O251 1.266 . S
C236 C235 1.514 . S
C236 C237 1.359 . S
C236 C241 1.348 . S
C237 C236 1.359 . S
C237 C238 1.380 . S
C237 H260 0.929 . S
C238 C237 1.380 . S
C238 C239 1.347 . S
C238 H261 0.931 . S
C239 C238 1.347 . S
C239 C240 1.369 . S
C240 C239 1.369 . S
C240 C241 1.408 . S
C240 H262 0.930 . S
C241 C236 1.348 . S
C241 C240 1.408 . S
C241 H263 0.930 . S
C242 O252 1.281 . S
C242 O253 1.254 1_556 S
C243 O254 1.236 . S
C243 O255 1.266 . S
O244 Tb224 2.484 . S
O244 C226 1.248 . S
O245 Tb224 2.440 . S
O245 C226 1.266 . S
O246 Tb224 2.659 1_454 S
O246 Tb225 2.325 . S
O246 C233 1.281 . S
O247 Tb224 2.409 1_454 S
O247 C233 1.254 . S
O248 Tb224 2.378 1_554 S
O248 C234 1.236 . S
O249 Tb225 2.341 1_655 S
O249 C234 1.266 . S
O250 Tb225 2.484 . S
O250 C235 1.248 . S
O251 Tb225 2.440 . S
O251 C235 1.266 . S
O252 Tb224 2.324 . S
O252 Tb225 2.658 1_656 S
O252 C242 1.281 . S
O253 Tb225 2.409 1_655 S
O253 C242 1.254 1_554 S
O254 Tb225 2.378 1_556 S
O254 C243 1.236 . S
O255 Tb224 2.342 1_455 S
O255 C243 1.266 . S
H256 C228 0.929 . S
H257 C229 0.931 . S
H258 C231 0.930 . S
H259 C232 0.930 . S
H260 C237 0.929 . S
H261 C238 0.931 . S
H262 C240 0.930 . S
H263 C241 0.930 . S
H264 C270 0.930 . S
H265 C274 0.930 . S
H266 C279 0.929 . S
H267 C277 0.929 . S
H268 C272 0.929 . S
H269 C278 0.929 . S
C270 H264 0.930 . S
C270 C271 1.367 . S
C270 C278 1.378 . S
C271 C270 1.367 . S
C271 C279 1.433 . S
C272 H268 0.929 . S
C272 C274 1.378 . S
C272 C276 1.350 . S
C273 C276 1.463 . S
C273 C278 1.350 . S
C273 N281 1.427 . S
C274 H265 0.930 . S
C274 C272 1.378 . S
C274 C275 1.367 . S
C275 C274 1.367 . S
C275 C277 1.433 . S
C276 C272 1.350 . S
C276 C273 1.463 . S
C276 N280 1.427 . S
C277 H267 0.929 . S
C277 C275 1.433 . S
C277 N280 1.384 . S
C278 H269 0.929 . S
C278 C270 1.378 . S
C278 C273 1.350 . S
C279 H266 0.929 . S
C279 C271 1.433 . S
C279 N281 1.384 . S
N280 C276 1.427 . S
N280 C277 1.384 . S
N281 C273 1.427 . S
N281 C279 1.384 . S
H282 C288 0.930 . S
H283 C292 0.930 . S
H284 C297 0.929 . S
H285 C295 0.929 . S
H286 C290 0.929 . S
H287 C296 0.929 . S
C288 H282 0.930 . S
C288 C289 1.367 . S
C288 C296 1.378 . S
C289 C288 1.367 . S
C289 C297 1.433 . S
C290 H286 0.929 . S
C290 C292 1.378 . S
C290 C294 1.350 . S
C291 C294 1.463 . S
C291 C296 1.350 . S
C291 N299 1.427 . S
C292 H283 0.930 . S
C292 C290 1.378 . S
C292 C293 1.367 . S
C293 C292 1.367 . S
C293 C295 1.433 . S
C294 C290 1.350 . S
C294 C291 1.463 . S
C294 N298 1.427 . S
C295 H285 0.929 . S
C295 C293 1.433 . S
C295 N298 1.384 . S
C296 H287 0.929 . S
C296 C288 1.378 . S
C296 C291 1.350 . S
C297 H284 0.929 . S
C297 C289 1.433 . S
C297 N299 1.384 . S
N298 C294 1.427 . S
N298 C295 1.384 . S
N299 C291 1.427 . S
N299 C297 1.384 . S
H300 C306 0.930 . S
H301 C310 0.930 . S
H302 C315 0.929 . S
H303 C313 0.929 . S
H304 C308 0.929 . S
H305 C314 0.929 . S
C306 H300 0.930 . S
C306 C307 1.367 . S
C306 C314 1.378 . S
C307 C306 1.367 . S
C307 C315 1.433 . S
C308 H304 0.929 . S
C308 C310 1.378 . S
C308 C312 1.350 . S
C309 C312 1.463 . S
C309 C314 1.350 . S
C309 N317 1.427 . S
C310 H301 0.930 . S
C310 C308 1.378 . S
C310 C311 1.367 . S
C311 C310 1.367 . S
C311 C313 1.433 . S
C312 C308 1.350 . S
C312 C309 1.463 . S
C312 N316 1.427 . S
C313 H303 0.929 . S
C313 C311 1.433 . S
C313 N316 1.384 . S
C314 H305 0.929 . S
C314 C306 1.378 . S
C314 C309 1.350 . S
C315 H302 0.929 . S
C315 C307 1.433 . S
C315 N317 1.384 . S
N316 C312 1.427 . S
N316 C313 1.384 . S
N317 C309 1.427 . S
N317 C315 1.384 . S
H318 C324 0.930 . S
H319 C328 0.930 . S
H320 C333 0.929 . S
H321 C331 0.929 . S
H322 C326 0.929 . S
H323 C332 0.929 . S
C324 H318 0.930 . S
C324 C325 1.367 . S
C324 C332 1.378 . S
C325 C324 1.367 . S
C325 C333 1.433 . S
C326 H322 0.929 . S
C326 C328 1.378 . S
C326 C330 1.350 . S
C327 C330 1.463 . S
C327 C332 1.350 . S
C327 N335 1.427 . S
C328 H319 0.930 . S
C328 C326 1.378 . S
C328 C329 1.367 . S
C329 C328 1.367 . S
C329 C331 1.433 . S
C330 C326 1.350 . S
C330 C327 1.463 . S
C330 N334 1.427 . S
C331 H321 0.929 . S
C331 C329 1.433 . S
C331 N334 1.384 . S
C332 H323 0.929 . S
C332 C324 1.378 . S
C332 C327 1.350 . S
C333 H320 0.929 . S
C333 C325 1.433 . S
C333 N335 1.384 . S
N334 C330 1.427 . S
N334 C331 1.384 . S
N335 C327 1.427 . S
N335 C333 1.384 . S
H336 C342 0.930 . S
H337 C346 0.930 . S
H338 C351 0.929 . S
H339 C349 0.929 . S
H340 C344 0.929 . S
H341 C350 0.929 . S
C342 H336 0.930 . S
C342 C343 1.367 . S
C342 C350 1.378 . S
C343 C342 1.367 . S
C343 C351 1.433 . S
C344 H340 0.929 . S
C344 C346 1.378 . S
C344 C348 1.350 . S
C345 C348 1.463 . S
C345 C350 1.350 . S
C345 N353 1.427 . S
C346 H337 0.930 . S
C346 C344 1.378 . S
C346 C347 1.367 . S
C347 C346 1.367 . S
C347 C349 1.433 . S
C348 C344 1.350 . S
C348 C345 1.463 . S
C348 N352 1.427 . S
C349 H339 0.929 . S
C349 C347 1.433 . S
C349 N352 1.384 . S
C350 H341 0.929 . S
C350 C342 1.378 . S
C350 C345 1.350 . S
C351 H338 0.929 . S
C351 C343 1.433 . S
C351 N353 1.384 . S
N352 C348 1.427 . S
N352 C349 1.384 . S
N353 C345 1.427 . S
N353 C351 1.384 . S
H354 C360 0.930 . S
H355 C364 0.930 . S
H356 C369 0.929 . S
H357 C367 0.929 . S
H358 C362 0.929 . S
H359 C368 0.929 . S
C360 H354 0.930 . S
C360 C361 1.367 . S
C360 C368 1.378 . S
C361 C360 1.367 . S
C361 C369 1.433 . S
C362 H358 0.929 . S
C362 C364 1.378 . S
C362 C366 1.350 . S
C363 C366 1.463 . S
C363 C368 1.350 . S
C363 N371 1.427 . S
C364 H355 0.930 . S
C364 C362 1.378 . S
C364 C365 1.367 . S
C365 C364 1.367 . S
C365 C367 1.433 . S
C366 C362 1.350 . S
C366 C363 1.463 . S
C366 N370 1.427 . S
C367 H357 0.929 . S
C367 C365 1.433 . S
C367 N370 1.384 . S
C368 H359 0.929 . S
C368 C360 1.378 . S
C368 C363 1.350 . S
C369 H356 0.929 . S
C369 C361 1.433 . S
C369 N371 1.384 . S
N370 C366 1.427 . S
N370 C367 1.384 . S
N371 C363 1.427 . S
N371 C369 1.384 . S
H372 C378 0.930 . S
H373 C382 0.930 . S
H374 C387 0.929 . S
H375 C385 0.929 1_554 S
H376 C380 0.929 . S
H377 C386 0.929 . S
C378 H372 0.930 . S
C378 C379 1.367 . S
C378 C386 1.378 . S
C379 C378 1.367 . S
C379 C387 1.433 . S
C380 H376 0.929 . S
C380 C382 1.378 . S
C380 C384 1.350 . S
C381 C384 1.463 . S
C381 C386 1.350 . S
C381 N389 1.427 . S
C382 H373 0.930 . S
C382 C380 1.378 . S
C382 C383 1.367 . S
C383 C382 1.367 . S
C383 C385 1.433 . S
C384 C380 1.350 . S
C384 C381 1.463 . S
C384 N388 1.427 . S
C385 H375 0.929 1_556 S
C385 C383 1.433 . S
C385 N388 1.384 . S
C386 H377 0.929 . S
C386 C378 1.378 . S
C386 C381 1.350 . S
C387 H374 0.929 . S
C387 C379 1.433 . S
C387 N389 1.384 . S
N388 C384 1.427 . S
N388 C385 1.384 . S
N389 C381 1.427 . S
N389 C387 1.384 . S
H390 C396 0.930 . S
H391 C400 0.930 . S
H392 C405 0.929 . S
H393 C403 0.929 . S
H394 C398 0.929 . S
H395 C404 0.929 . S
C396 H390 0.930 . S
C396 C397 1.367 . S
C396 C404 1.378 . S
C397 C396 1.367 . S
C397 C405 1.433 . S
C398 H394 0.929 . S
C398 C400 1.378 . S
C398 C402 1.350 . S
C399 C402 1.463 . S
C399 C404 1.350 . S
C399 N407 1.427 . S
C400 H391 0.930 . S
C400 C398 1.378 . S
C400 C401 1.367 . S
C401 C400 1.367 . S
C401 C403 1.433 . S
C402 C398 1.350 . S
C402 C399 1.463 . S
C402 N406 1.427 . S
C403 H393 0.929 . S
C403 C401 1.433 . S
C403 N406 1.384 . S
C404 H395 0.929 . S
C404 C396 1.378 . S
C404 C399 1.350 . S
C405 H392 0.929 . S
C405 C397 1.433 . S
C405 N407 1.384 . S
N406 C402 1.427 . S
N406 C403 1.384 . S
N407 C399 1.427 . S
N407 C405 1.384 . S
H408 C414 0.930 . S
H409 C418 0.930 . S
H410 C423 0.929 . S
H411 C421 0.929 . S
H412 C416 0.929 . S
H413 C422 0.929 . S
C414 H408 0.930 . S
C414 C415 1.367 . S
C414 C422 1.378 . S
C415 C414 1.367 . S
C415 C423 1.433 . S
C416 H412 0.929 . S
C416 C418 1.378 . S
C416 C420 1.350 . S
C417 C420 1.463 . S
C417 C422 1.350 . S
C417 N425 1.427 . S
C418 H409 0.930 . S
C418 C416 1.378 . S
C418 C419 1.367 . S
C419 C418 1.367 . S
C419 C421 1.433 . S
C420 C416 1.350 . S
C420 C417 1.463 . S
C420 N424 1.427 . S
C421 H411 0.929 . S
C421 C419 1.433 . S
C421 N424 1.384 . S
C422 H413 0.929 . S
C422 C414 1.378 . S
C422 C417 1.350 . S
C423 H410 0.929 . S
C423 C415 1.433 . S
C423 N425 1.384 . S
N424 C420 1.427 . S
N424 C421 1.384 . S
N425 C417 1.427 . S
N425 C423 1.384 . S
H426 C432 0.930 . S
H427 C436 0.930 . S
H428 C441 0.929 . S
H429 C439 0.929 . S
H430 C434 0.929 . S
H431 C440 0.929 . S
C432 H426 0.930 . S
C432 C433 1.367 . S
C432 C440 1.378 . S
C433 C432 1.367 . S
C433 C441 1.433 . S
C434 H430 0.929 . S
C434 C436 1.378 . S
C434 C438 1.350 . S
C435 C438 1.463 . S
C435 C440 1.350 . S
C435 N443 1.427 . S
C436 H427 0.930 . S
C436 C434 1.378 . S
C436 C437 1.367 . S
C437 C436 1.367 . S
C437 C439 1.433 . S
C438 C434 1.350 . S
C438 C435 1.463 . S
C438 N442 1.427 . S
C439 H429 0.929 . S
C439 C437 1.433 . S
C439 N442 1.384 . S
C440 H431 0.929 . S
C440 C432 1.378 . S
C440 C435 1.350 . S
C441 H428 0.929 . S
C441 C433 1.433 . S
C441 N443 1.384 . S
N442 C438 1.427 . S
N442 C439 1.384 . S
N443 C435 1.427 . S
N443 C441 1.384 . S
H444 C450 0.930 . S
H445 C454 0.930 . S
H446 C459 0.929 . S
H447 C457 0.929 1_455 S
H448 C452 0.929 . S
H449 C458 0.929 . S
C450 H444 0.930 . S
C450 C451 1.367 . S
C450 C458 1.378 . S
C451 C450 1.367 . S
C451 C459 1.433 . S
C452 H448 0.929 . S
C452 C454 1.378 . S
C452 C456 1.350 . S
C453 C456 1.463 . S
C453 C458 1.350 . S
C453 N461 1.427 . S
C454 H445 0.930 . S
C454 C452 1.378 . S
C454 C455 1.367 . S
C455 C454 1.367 . S
C455 C457 1.433 . S
C456 C452 1.350 . S
C456 C453 1.463 . S
C456 N460 1.427 . S
C457 H447 0.929 1_655 S
C457 C455 1.433 . S
C457 N460 1.384 . S
C458 H449 0.929 . S
C458 C450 1.378 . S
C458 C453 1.350 . S
C459 H446 0.929 . S
C459 C451 1.433 . S
C459 N461 1.384 . S
N460 C456 1.427 . S
N460 C457 1.384 . S
N461 C453 1.427 . S
N461 C459 1.384 . S
H462 C468 0.930 . S
H463 C472 0.930 . S
H464 C477 0.929 . S
H465 C475 0.929 . S
H466 C470 0.929 . S
H467 C476 0.929 . S
C468 H462 0.930 . S
C468 C469 1.367 . S
C468 C476 1.378 . S
C469 C468 1.367 . S
C469 C477 1.433 . S
C470 H466 0.929 . S
C470 C472 1.378 . S
C470 C474 1.350 . S
C471 C474 1.463 . S
C471 C476 1.350 . S
C471 N479 1.427 . S
C472 H463 0.930 . S
C472 C470 1.378 . S
C472 C473 1.367 . S
C473 C472 1.367 . S
C473 C475 1.433 . S
C474 C470 1.350 . S
C474 C471 1.463 . S
C474 N478 1.427 . S
C475 H465 0.929 . S
C475 C473 1.433 . S
C475 N478 1.384 . S
C476 H467 0.929 . S
C476 C468 1.378 . S
C476 C471 1.350 . S
C477 H464 0.929 . S
C477 C469 1.433 . S
C477 N479 1.384 . S
N478 C474 1.427 . S
N478 C475 1.384 . S
N479 C471 1.427 . S
N479 C477 1.384 . S
H480 C486 0.930 . S
H481 C490 0.930 . S
H482 C495 0.929 . S
H483 C493 0.929 . S
H484 C488 0.929 . S
H485 C494 0.929 . S
C486 H480 0.930 . S
C486 C487 1.367 . S
C486 C494 1.378 . S
C487 C486 1.367 . S
C487 C495 1.433 . S
C488 H484 0.929 . S
C488 C490 1.378 . S
C488 C492 1.350 . S
C489 C492 1.463 . S
C489 C494 1.350 . S
C489 N497 1.427 . S
C490 H481 0.930 . S
C490 C488 1.378 . S
C490 C491 1.367 . S
C491 C490 1.367 . S
C491 C493 1.433 . S
C492 C488 1.350 . S
C492 C489 1.463 . S
C492 N496 1.427 . S
C493 H483 0.929 . S
C493 C491 1.433 . S
C493 N496 1.384 . S
C494 H485 0.929 . S
C494 C486 1.378 . S
C494 C489 1.350 . S
C495 H482 0.929 . S
C495 C487 1.433 . S
C495 N497 1.384 . S
N496 C492 1.427 . S
N496 C493 1.384 . S
N497 C489 1.427 . S
N497 C495 1.384 . S
H498 C504 0.930 . S
H499 C508 0.930 . S
H500 C513 0.929 . S
H501 C511 0.929 . S
H502 C506 0.929 . S
H503 C512 0.929 . S
C504 H498 0.930 . S
C504 C505 1.367 . S
C504 C512 1.378 . S
C505 C504 1.367 . S
C505 C513 1.433 . S
C506 H502 0.929 . S
C506 C508 1.378 . S
C506 C510 1.350 . S
C507 C510 1.463 . S
C507 C512 1.350 . S
C507 N515 1.427 . S
C508 H499 0.930 . S
C508 C506 1.378 . S
C508 C509 1.367 . S
C509 C508 1.367 . S
C509 C511 1.433 . S
C510 C506 1.350 . S
C510 C507 1.463 . S
C510 N514 1.427 . S
C511 H501 0.929 . S
C511 C509 1.433 . S
C511 N514 1.384 . S
C512 H503 0.929 . S
C512 C504 1.378 . S
C512 C507 1.350 . S
C513 H500 0.929 . S
C513 C505 1.433 . S
C513 N515 1.384 . S
N514 C510 1.427 . S
N514 C511 1.384 . S
N515 C507 1.427 . S
N515 C513 1.384 . S
H516 C522 0.930 . S
H517 C526 0.930 . S
H518 C531 0.929 . S
H519 C529 0.929 . S
H520 C524 0.929 . S
H521 C530 0.929 . S
C522 H516 0.930 . S
C522 C523 1.367 . S
C522 C530 1.378 . S
C523 C522 1.367 . S
C523 C531 1.433 . S
C524 H520 0.929 . S
C524 C526 1.378 . S
C524 C528 1.350 . S
C525 C528 1.463 . S
C525 C530 1.350 . S
C525 N533 1.427 . S
C526 H517 0.930 . S
C526 C524 1.378 . S
C526 C527 1.367 . S
C527 C526 1.367 . S
C527 C529 1.433 . S
C528 C524 1.350 . S
C528 C525 1.463 . S
C528 N532 1.427 . S
C529 H519 0.929 . S
C529 C527 1.433 . S
C529 N532 1.384 . S
C530 H521 0.929 . S
C530 C522 1.378 . S
C530 C525 1.350 . S
C531 H518 0.929 . S
C531 C523 1.433 . S
C531 N533 1.384 . S
N532 C528 1.427 . S
N532 C529 1.384 . S
N533 C525 1.427 . S
N533 C531 1.384 . S
H534 C540 0.930 . S
H535 C544 0.930 . S
H536 C549 0.929 . S
H537 C547 0.929 . S
H538 C542 0.929 . S
H539 C548 0.929 . S
C540 H534 0.930 . S
C540 C541 1.367 . S
C540 C548 1.378 . S
C541 C540 1.367 . S
C541 C549 1.433 . S
C542 H538 0.929 . S
C542 C544 1.378 . S
C542 C546 1.350 . S
C543 C546 1.463 . S
C543 C548 1.350 . S
C543 N551 1.427 . S
C544 H535 0.930 . S
C544 C542 1.378 . S
C544 C545 1.367 . S
C545 C544 1.367 . S
C545 C547 1.433 . S
C546 C542 1.350 . S
C546 C543 1.463 . S
C546 N550 1.427 . S
C547 H537 0.929 . S
C547 C545 1.433 . S
C547 N550 1.384 . S
C548 H539 0.929 . S
C548 C540 1.378 . S
C548 C543 1.350 . S
C549 H536 0.929 . S
C549 C541 1.433 . S
C549 N551 1.384 . S
N550 C546 1.427 . S
N550 C547 1.384 . S
N551 C543 1.427 . S
N551 C549 1.384 . S
H552 C558 0.930 . S
H553 C562 0.930 . S
H554 C567 0.929 . S
H555 C565 0.929 1_545 S
H556 C560 0.933 . S
H557 C566 0.929 . S
C558 H552 0.930 . S
C558 C559 1.367 . S
C558 C566 1.378 . S
C559 C558 1.367 . S
C559 C567 1.433 . S
C560 H556 0.933 . S
C560 C562 1.378 1_556 S
C560 C564 1.350 . S
C561 C564 1.463 . S
C561 C566 1.350 . S
C561 N569 1.427 . S
C562 H553 0.930 . S
C562 C560 1.378 1_554 S
C562 C563 1.367 . S
C563 C562 1.367 . S
C563 C565 1.433 1_554 S
C564 C560 1.350 . S
C564 C561 1.463 . S
C564 N568 1.427 . S
C565 H555 0.929 1_565 S
C565 C563 1.433 1_556 S
C565 N568 1.384 . S
C566 H557 0.929 . S
C566 C558 1.378 . S
C566 C561 1.350 . S
C567 H554 0.929 . S
C567 C559 1.433 . S
C567 N569 1.384 . S
N568 C564 1.427 . S
N568 C565 1.384 . S
N569 C561 1.427 . S
N569 C567 1.384 . S
H570 C576 0.930 . S
H571 C580 0.930 . S
H572 C585 0.929 . S
H573 C583 0.929 . S
H574 C578 0.929 . S
H575 C584 0.929 1_455 S
C576 H570 0.930 . S
C576 C577 1.367 . S
C576 C584 1.378 . S
C577 C576 1.367 . S
C577 C585 1.433 . S
C578 H574 0.929 . S
C578 C580 1.378 . S
C578 C582 1.350 . S
C579 C582 1.463 . S
C579 C584 1.350 . S
C579 N587 1.427 . S
C580 H571 0.930 . S
C580 C578 1.378 . S
C580 C581 1.367 . S
C581 C580 1.367 . S
C581 C583 1.433 1_655 S
C582 C578 1.350 . S
C582 C579 1.463 . S
C582 N586 1.427 1_655 S
C583 H573 0.929 . S
C583 C581 1.433 1_455 S
C583 N586 1.384 . S
C584 H575 0.929 1_655 S
C584 C576 1.378 . S
C584 C579 1.350 . S
C585 H572 0.929 . S
C585 C577 1.433 . S
C585 N587 1.384 . S
N586 C582 1.427 1_455 S
N586 C583 1.384 . S
N587 C579 1.427 . S
N587 C585 1.384 . S
H588 C594 0.930 . S
H589 C598 0.930 . S
H590 C603 0.929 . S
H591 C601 0.929 . S
H592 C596 0.929 . S
H593 C602 0.929 . S
C594 H588 0.930 . S
C594 C595 1.367 . S
C594 C602 1.378 . S
C595 C594 1.367 . S
C595 C603 1.433 . S
C596 H592 0.929 . S
C596 C598 1.378 . S
C596 C600 1.350 . S
C597 C600 1.463 . S
C597 C602 1.350 . S
C597 N605 1.427 . S
C598 H589 0.930 . S
C598 C596 1.378 . S
C598 C599 1.367 . S
C599 C598 1.367 . S
C599 C601 1.433 . S
C600 C596 1.350 . S
C600 C597 1.463 . S
C600 N604 1.427 . S
C601 H591 0.929 . S
C601 C599 1.433 . S
C601 N604 1.384 . S
C602 H593 0.929 . S
C602 C594 1.378 . S
C602 C597 1.350 . S
C603 H590 0.929 . S
C603 C595 1.433 . S
C603 N605 1.384 . S
N604 C600 1.427 . S
N604 C601 1.384 . S
N605 C597 1.427 . S
N605 C603 1.384 . S
H606 C612 0.930 . S
H607 C616 0.930 . S
H608 C621 0.929 . S
H609 C619 0.929 . S
H610 C614 0.929 . S
H611 C620 0.929 . S
C612 H606 0.930 . S
C612 C613 1.367 . S
C612 C620 1.378 . S
C613 C612 1.367 . S
C613 C621 1.433 . S
C614 H610 0.929 . S
C614 C616 1.378 . S
C614 C618 1.350 . S
C615 C618 1.463 . S
C615 C620 1.350 . S
C615 N623 1.427 . S
C616 H607 0.930 . S
C616 C614 1.378 . S
C616 C617 1.367 . S
C617 C616 1.367 . S
C617 C619 1.433 . S
C618 C614 1.350 . S
C618 C615 1.463 . S
C618 N622 1.427 . S
C619 H609 0.929 . S
C619 C617 1.433 . S
C619 N622 1.384 . S
C620 H611 0.929 . S
C620 C612 1.378 . S
C620 C615 1.350 . S
C621 H608 0.929 . S
C621 C613 1.433 . S
C621 N623 1.384 . S
N622 C618 1.427 . S
N622 C619 1.384 . S
N623 C615 1.427 . S
N623 C621 1.384 . S
H624 C630 0.930 . S
H625 C634 0.930 . S
H626 C639 0.929 . S
H627 C637 0.929 . S
H628 C632 0.929 . S
H629 C638 0.929 . S
C630 H624 0.930 . S
C630 C631 1.367 . S
C630 C638 1.378 . S
C631 C630 1.367 . S
C631 C639 1.433 . S
C632 H628 0.929 . S
C632 C634 1.378 . S
C632 C636 1.350 . S
C633 C636 1.463 . S
C633 C638 1.350 . S
C633 N641 1.427 . S
C634 H625 0.930 . S
C634 C632 1.378 . S
C634 C635 1.367 . S
C635 C634 1.367 . S
C635 C637 1.433 . S
C636 C632 1.350 . S
C636 C633 1.463 . S
C636 N640 1.427 . S
C637 H627 0.929 . S
C637 C635 1.433 . S
C637 N640 1.384 . S
C638 H629 0.929 . S
C638 C630 1.378 . S
C638 C633 1.350 . S
C639 H626 0.929 . S
C639 C631 1.433 . S
C639 N641 1.384 . S
N640 C636 1.427 . S
N640 C637 1.384 . S
N641 C633 1.427 . S
N641 C639 1.384 . S
H642 C648 0.930 . S
H643 C652 0.930 . S
H644 C657 0.929 . S
H645 C655 0.929 . S
H646 C650 0.929 . S
H647 C656 0.929 . S
C648 H642 0.930 . S
C648 C649 1.367 . S
C648 C656 1.378 . S
C649 C648 1.367 . S
C649 C657 1.433 . S
C650 H646 0.929 . S
C650 C652 1.378 . S
C650 C654 1.350 . S
C651 C654 1.463 . S
C651 C656 1.350 . S
C651 N659 1.427 . S
C652 H643 0.930 . S
C652 C650 1.378 . S
C652 C653 1.367 . S
C653 C652 1.367 . S
C653 C655 1.433 . S
C654 C650 1.350 . S
C654 C651 1.463 . S
C654 N658 1.427 . S
C655 H645 0.929 . S
C655 C653 1.433 . S
C655 N658 1.384 . S
C656 H647 0.929 . S
C656 C648 1.378 . S
C656 C651 1.350 . S
C657 H644 0.929 . S
C657 C649 1.433 . S
C657 N659 1.384 . S
N658 C654 1.427 . S
N658 C655 1.384 . S
N659 C651 1.427 . S
N659 C657 1.384 . S
H660 C666 0.930 . S
H661 C670 0.930 . S
H662 C675 0.929 . S
H663 C673 0.929 . S
H664 C668 0.929 . S
H665 C674 0.929 . S
C666 H660 0.930 . S
C666 C667 1.367 . S
C666 C674 1.378 . S
C667 C666 1.367 . S
C667 C675 1.433 . S
C668 H664 0.929 . S
C668 C670 1.378 . S
C668 C672 1.350 . S
C669 C672 1.463 . S
C669 C674 1.350 . S
C669 N677 1.427 . S
C670 H661 0.930 . S
C670 C668 1.378 . S
C670 C671 1.367 . S
C671 C670 1.367 . S
C671 C673 1.433 . S
C672 C668 1.350 . S
C672 C669 1.463 . S
C672 N676 1.427 . S
C673 H663 0.929 . S
C673 C671 1.433 . S
C673 N676 1.384 . S
C674 H665 0.929 . S
C674 C666 1.378 . S
C674 C669 1.350 . S
C675 H662 0.929 . S
C675 C667 1.433 . S
C675 N677 1.384 . S
N676 C672 1.427 . S
N676 C673 1.384 . S
N677 C669 1.427 . S
N677 C675 1.384 . S
H678 C684 0.930 . S
H679 C688 0.930 . S
H680 C693 0.929 . S
H681 C691 0.929 . S
H682 C686 0.929 . S
H683 C692 0.929 . S
C684 H678 0.930 . S
C684 C685 1.367 . S
C684 C692 1.378 . S
C685 C684 1.367 . S
C685 C693 1.433 . S
C686 H682 0.929 . S
C686 C688 1.378 . S
C686 C690 1.350 . S
C687 C690 1.463 . S
C687 C692 1.350 . S
C687 N695 1.427 . S
C688 H679 0.930 . S
C688 C686 1.378 . S
C688 C689 1.367 . S
C689 C688 1.367 . S
C689 C691 1.433 . S
C690 C686 1.350 . S
C690 C687 1.463 . S
C690 N694 1.427 . S
C691 H681 0.929 . S
C691 C689 1.433 . S
C691 N694 1.384 . S
C692 H683 0.929 . S
C692 C684 1.378 . S
C692 C687 1.350 . S
C693 H680 0.929 . S
C693 C685 1.433 . S
C693 N695 1.384 . S
N694 C690 1.427 . S
N694 C691 1.384 . S
N695 C687 1.427 . S
N695 C693 1.384 . S
C271 N1 1.041 . S
C275 C119 1.083 . S
C289 N18 1.080 . S
C293 C159 1.125 . S
C311 C193 1.872 . S
C307 N28 1.892 . S
C325 N40 2.812 . S
C329 C234 2.814 . S
C347 C154 1.695 . S
C343 N5 1.672 . S
C365 C114 1.778 . S
C361 N14 1.679 . S
C383 C242 1.693 . S
C379 N31 1.703 . S
C401 C203 1.567 . S
C397 N41 1.605 . S
C415 N2 1.110 . S
C419 C239 1.127 . S
C437 C162 2.209 1_556 S
C433 N27 2.255 . S
C451 N44 2.514 . S
C455 C122 2.537 1_655 S
C469 N15 1.163 . S
C473 C190 1.198 . S
C491 C110 1.630 . S
C487 N57 1.682 . S
C505 N70 0.867 . S
C509 C150 0.907 . S
C523 N79 2.145 . S
C527 C202 2.204 . S
C541 N93 2.563 . S
C545 C243 2.492 . S
C559 N54 1.280 . S
C563 C163 1.328 . S
C581 C123 2.351 1_655 S
C577 N66 2.336 . S
C599 C233 1.202 . S
C595 N80 1.205 . S
C617 C194 1.758 . S
C613 N96 1.814 . S
C631 N53 1.232 . S
C635 C230 1.262 . S
C653 C153 1.731 . S
C649 N83 1.705 . S
C671 C113 2.495 . S
C667 N92 2.633 . S
C685 N67 1.473 . S
C689 C199 1.499 . S
