# Generated by pormake.
# Topology pto, (3,4)-cn, num edge types: 1
# Building blocks:
#     Node 0, Type 0, BuildingBlock: QEWDON_clean_linker_0, # of connection points: 3
#     Node 1, Type 0, BuildingBlock: QEWDON_clean_linker_0, # of connection points: 3
#     Node 2, Type 0, BuildingBlock: QEWDON_clean_linker_0, # of connection points: 3
#     Node 3, Type 0, BuildingBlock: QEWDON_clean_linker_0, # of connection points: 3
#     Node 4, Type 0, BuildingBlock: QEWDON_clean_linker_0, # of connection points: 3
#     Node 5, Type 0, BuildingBlock: QEWDON_clean_linker_0, # of connection points: 3
#     Node 6, Type 0, BuildingBlock: QEWDON_clean_linker_0, # of connection points: 3
#     Node 7, Type 0, BuildingBlock: QEWDON_clean_linker_0, # of connection points: 3
#     Node 8, Type 1, BuildingBlock: NAWXER_clean_sbu_0, # of connection points: 4
#     Node 9, Type 1, BuildingBlock: NAWXER_clean_sbu_0, # of connection points: 4
#     Node 10, Type 1, BuildingBlock: NAWXER_clean_sbu_0, # of connection points: 4
#     Node 11, Type 1, BuildingBlock: NAWXER_clean_sbu_0, # of connection points: 4
#     Node 12, Type 1, BuildingBlock: NAWXER_clean_sbu_0, # of connection points: 4
#     Node 13, Type 1, BuildingBlock: NAWXER_clean_sbu_0, # of connection points: 4
#     Edge 14, Type (0, 1), BuildingBlock: XIVTED_clean_linker_0, # of connection points: 2
#     Edge 15, Type (0, 1), BuildingBlock: XIVTED_clean_linker_0, # of connection points: 2
#     Edge 16, Type (0, 1), BuildingBlock: XIVTED_clean_linker_0, # of connection points: 2
#     Edge 17, Type (0, 1), BuildingBlock: XIVTED_clean_linker_0, # of connection points: 2
#     Edge 18, Type (0, 1), BuildingBlock: XIVTED_clean_linker_0, # of connection points: 2
#     Edge 19, Type (0, 1), BuildingBlock: XIVTED_clean_linker_0, # of connection points: 2
#     Edge 20, Type (0, 1), BuildingBlock: XIVTED_clean_linker_0, # of connection points: 2
#     Edge 21, Type (0, 1), BuildingBlock: XIVTED_clean_linker_0, # of connection points: 2
#     Edge 22, Type (0, 1), BuildingBlock: XIVTED_clean_linker_0, # of connection points: 2
#     Edge 23, Type (0, 1), BuildingBlock: XIVTED_clean_linker_0, # of connection points: 2
#     Edge 24, Type (0, 1), BuildingBlock: XIVTED_clean_linker_0, # of connection points: 2
#     Edge 25, Type (0, 1), BuildingBlock: XIVTED_clean_linker_0, # of connection points: 2
#     Edge 26, Type (0, 1), BuildingBlock: XIVTED_clean_linker_0, # of connection points: 2
#     Edge 27, Type (0, 1), BuildingBlock: XIVTED_clean_linker_0, # of connection points: 2
#     Edge 28, Type (0, 1), BuildingBlock: XIVTED_clean_linker_0, # of connection points: 2
#     Edge 29, Type (0, 1), BuildingBlock: XIVTED_clean_linker_0, # of connection points: 2
#     Edge 30, Type (0, 1), BuildingBlock: XIVTED_clean_linker_0, # of connection points: 2
#     Edge 31, Type (0, 1), BuildingBlock: XIVTED_clean_linker_0, # of connection points: 2
#     Edge 32, Type (0, 1), BuildingBlock: XIVTED_clean_linker_0, # of connection points: 2
#     Edge 33, Type (0, 1), BuildingBlock: XIVTED_clean_linker_0, # of connection points: 2
#     Edge 34, Type (0, 1), BuildingBlock: XIVTED_clean_linker_0, # of connection points: 2
#     Edge 35, Type (0, 1), BuildingBlock: XIVTED_clean_linker_0, # of connection points: 2
#     Edge 36, Type (0, 1), BuildingBlock: XIVTED_clean_linker_0, # of connection points: 2
#     Edge 37, Type (0, 1), BuildingBlock: XIVTED_clean_linker_0, # of connection points: 2
# Relax obj value: 0.023
# Max RMSD: 0.215
# Mean RMSD: 0.076
data_MOF--net-pto--node1-NAWXER_clean_sbu_0--node2-QEWDON_clean_linker_0--edge1-XIVTED_clean_linker_0
_symmetry_space_group_name_H-M    P1
_symmetry_Int_Tables_number       1
_symmetry_cell_setting            triclinic
loop_
_symmetry_equiv_pos_as_xyz
'x, y, z'
_cell_length_a     40.16121
_cell_length_b     41.756281
_cell_length_c     39.764686
_cell_angle_alpha  97.841965
_cell_angle_beta   107.14015
_cell_angle_gamma 100.21463
loop_
_atom_site_label
_atom_site_type_symbol
_atom_site_fract_x
_atom_site_fract_y
_atom_site_fract_z
_atom_type_partial_charge
H0 H 0.30159 0.33127 0.24117 0.0
C1 C 0.30202 0.30665 0.24683 0.0
C2 C 0.32121 0.28705 0.23185 0.0
C3 C 0.28374 0.2946 0.26941 0.0
H4 H 0.3376 0.24043 0.22912 0.0
C5 C 0.32225 0.25539 0.23995 0.0
C6 C 0.30413 0.24309 0.26241 0.0
C7 C 0.28464 0.26269 0.27659 0.0
C8 C 0.26426 0.31515 0.28652 0.0
H9 H 0.2707 0.25333 0.29407 0.0
C10 C 0.2414 0.33286 0.26667 0.0
C11 C 0.22075 0.34967 0.28259 0.0
C12 C 0.26724 0.31578 0.32281 0.0
H13 H 0.28517 0.30302 0.33898 0.0
C14 C 0.24702 0.33275 0.33864 0.0
H15 H 0.2387 0.33263 0.2387 0.0
C16 C 0.22364 0.34936 0.3186 0.0
H17 H 0.20816 0.36245 0.33137 0.0
H18 H 0.24941 0.33294 0.3665 0.0
H19 H 0.39477 0.86433 0.7658 0.0
C20 C 0.37927 0.84191 0.76961 0.0
C21 C 0.39683 0.8204 0.78872 0.0
C22 C 0.34162 0.83498 0.7565 0.0
H23 H 0.38995 0.77559 0.80964 0.0
C24 C 0.37647 0.79191 0.79439 0.0
C25 C 0.33898 0.78498 0.78202 0.0
C26 C 0.32174 0.80645 0.76273 0.0
C27 C 0.32259 0.85837 0.73829 0.0
H28 H 0.29275 0.80153 0.75342 0.0
C29 C 0.32918 0.86843 0.70802 0.0
C30 C 0.30912 0.88895 0.68957 0.0
C31 C 0.29648 0.8697 0.75054 0.0
H32 H 0.29113 0.86245 0.77392 0.0
C33 C 0.27713 0.89054 0.73285 0.0
H34 H 0.34886 0.85929 0.69811 0.0
C35 C 0.28324 0.90003 0.70252 0.0
H36 H 0.26789 0.91633 0.68934 0.0
H37 H 0.25719 0.89926 0.74259 0.0
H38 H 0.96146 0.81363 0.39859 0.0
C39 C 0.94071 0.82029 0.37824 0.0
C40 C 0.93028 0.80301 0.34256 0.0
C41 C 0.92411 0.84534 0.3882 0.0
H42 H 0.896 0.79972 0.28837 0.0
C43 C 0.90496 0.81305 0.316 0.0
C44 C 0.88933 0.83902 0.32502 0.0
C45 C 0.89848 0.85485 0.36111 0.0
C46 C 0.932 0.85921 0.42713 0.0
H47 H 0.88474 0.87356 0.36802 0.0
C48 C 0.93338 0.89288 0.43985 0.0
C49 C 0.94209 0.90531 0.47696 0.0
C50 C 0.93825 0.83819 0.45211 0.0
H51 H 0.93604 0.81194 0.44342 0.0
C52 C 0.947 0.8505 0.48871 0.0
H53 H 0.9284 0.9095 0.42121 0.0
C54 C 0.94913 0.88382 0.50113 0.0
H55 H 0.95529 0.89261 0.52969 0.0
H56 H 0.95178 0.83403 0.50751 0.0
H57 H 0.94659 0.39942 0.03011 0.0
C58 C 0.937 0.38051 0.0057 0.0
C59 C 0.95537 0.38145 0.98087 0.0
C60 C 0.90641 0.35517 0.99928 0.0
H61 H 0.95772 0.35803 0.9305 0.0
C62 C 0.94301 0.35714 0.94939 0.0
C63 C 0.91176 0.33224 0.94168 0.0
C64 C 0.89354 0.33121 0.96703 0.0
C65 C 0.88923 0.35368 0.02734 0.0
H66 H 0.86969 0.31191 0.96188 0.0
C67 C 0.85424 0.35837 0.02131 0.0
C68 C 0.84006 0.36085 0.0498 0.0
C69 C 0.90939 0.35036 0.06159 0.0
H70 H 0.93642 0.34687 0.06674 0.0
C71 C 0.89507 0.3519 0.08955 0.0
H72 H 0.83883 0.36155 0.99508 0.0
C73 C 0.86076 0.35733 0.08383 0.0
H74 H 0.85027 0.35859 0.10603 0.0
H75 H 0.91078 0.34925 0.11585 0.0
H76 H 0.99313 0.80323 0.87019 0.0
C77 C 0.96705 0.79779 0.87366 0.0
C78 C 0.95016 0.76485 0.87187 0.0
C79 C 0.95072 0.82388 0.88001 0.0
H80 H 0.90351 0.7328 0.87559 0.0
C81 C 0.91633 0.75814 0.87638 0.0
C82 C 0.8998 0.78423 0.88337 0.0
C83 C 0.91714 0.81699 0.88462 0.0
C84 C 0.96982 0.85862 0.88425 0.0
H85 H 0.90555 0.83756 0.89122 0.0
C86 C 0.95354 0.87992 0.86371 0.0
C87 C 0.97178 0.91301 0.86774 0.0
C88 C 0.00441 0.87061 0.90918 0.0
H89 H 0.01731 0.85462 0.92541 0.0
C90 C 0.02235 0.90353 0.91386 0.0
H91 H 0.92719 0.87031 0.84386 0.0
C92 C 0.00622 0.92464 0.8934 0.0
H93 H 0.02071 0.95014 0.89782 0.0
H94 H 0.04886 0.91273 0.93343 0.0
H95 H 0.90104 0.30046 0.38517 0.0
C96 C 0.87463 0.30418 0.37208 0.0
C97 C 0.87067 0.33505 0.36321 0.0
C98 C 0.84453 0.27789 0.36333 0.0
H99 H 0.83361 0.36294 0.33826 0.0
C100 C 0.83633 0.33917 0.34533 0.0
C101 C 0.8062 0.3123 0.33427 0.0
C102 C 0.81067 0.28193 0.34429 0.0
C103 C 0.84812 0.24474 0.37033 0.0
H104 H 0.78831 0.26051 0.33548 0.0
C105 C 0.83734 0.23302 0.39782 0.0
C106 C 0.83556 0.19962 0.40142 0.0
C107 C 0.85818 0.22343 0.34674 0.0
H108 H 0.86611 0.23208 0.32514 0.0
C109 C 0.85655 0.19042 0.34991 0.0
H110 H 0.83041 0.2502 0.41615 0.0
C111 C 0.84489 0.17843 0.37659 0.0
H112 H 0.84277 0.15235 0.37718 0.0
H113 H 0.86363 0.17384 0.33114 0.0
H114 H 0.36005 0.29422 0.73982 0.0
C115 C 0.33925 0.30583 0.74439 0.0
C116 C 0.33472 0.30882 0.77822 0.0
C117 C 0.31846 0.31907 0.71709 0.0
H118 H 0.30548 0.32753 0.81088 0.0
C119 C 0.30858 0.32479 0.78455 0.0
C120 C 0.28809 0.33908 0.75801 0.0
C121 C 0.29284 0.33561 0.72412 0.0
C122 C 0.32562 0.3176 0.68234 0.0
H123 H 0.27747 0.34676 0.70359 0.0
C124 C 0.33312 0.2888 0.66614 0.0
C125 C 0.34259 0.288 0.63473 0.0
C126 C 0.32698 0.34551 0.66616 0.0
H127 H 0.32195 0.36825 0.67821 0.0
C128 C 0.33601 0.34474 0.63478 0.0
H129 H 0.33209 0.26709 0.67828 0.0
C130 C 0.34398 0.31628 0.61922 0.0
H131 H 0.35083 0.31624 0.59482 0.0
H132 H 0.33715 0.36641 0.62264 0.0
H133 H 0.40497 0.79326 0.22623 0.0
C134 C 0.38792 0.77661 0.23618 0.0
C135 C 0.38431 0.78707 0.26983 0.0
C136 C 0.36818 0.74553 0.21463 0.0
H137 H 0.35624 0.77497 0.30672 0.0
C138 C 0.36075 0.76614 0.28187 0.0
C139 C 0.34036 0.73537 0.26043 0.0
C140 C 0.34505 0.72489 0.22741 0.0
C141 C 0.36918 0.73553 0.17761 0.0
H142 H 0.32983 0.70082 0.21112 0.0
C143 C 0.40158 0.74162 0.16998 0.0
C144 C 0.40211 0.73158 0.13487 0.0
C145 C 0.33725 0.71988 0.14943 0.0
H146 H 0.31174 0.7156 0.1541 0.0
C147 C 0.3377 0.70998 0.11468 0.0
H148 H 0.42643 0.75338 0.19141 0.0
C149 C 0.36986 0.71566 0.1074 0.0
H150 H 0.36942 0.7081 0.08007 0.0
H151 H 0.31295 0.69804 0.09325 0.0
C152 C 0.04426 0.52267 0.33595 0.0
C153 C 0.13199 0.60588 0.31224 0.0
O154 O 0.07273 0.54129 0.35875 0.0
Zn155 Zn 0.08761 0.56652 0.32591 0.0
O156 O 0.03471 0.52664 0.30336 0.0
Zn157 Zn 0.05365 0.55786 0.27127 0.0
O158 O 0.05764 0.52469 0.23441 0.0
O159 O 0.09678 0.52948 0.28851 0.0
O160 O 0.10393 0.59302 0.28488 0.0
O161 O 0.13383 0.59781 0.34236 0.0
O162 O 0.05102 0.59812 0.31578 0.0
O163 O 0.019 0.58483 0.25825 0.0
C164 C 0.08393 0.5161 0.25499 0.0
C165 C 0.02655 0.60287 0.28912 0.0
C166 C 0.12175 0.53385 0.90906 0.0
C167 C 0.19319 0.60318 0.85511 0.0
O168 O 0.15297 0.55218 0.92456 0.0
Zn169 Zn 0.15886 0.56691 0.88225 0.0
O170 O 0.10692 0.53024 0.87504 0.0
Zn171 Zn 0.11936 0.54765 0.83074 0.0
O172 O 0.12312 0.50807 0.80111 0.0
O173 O 0.1668 0.52399 0.85296 0.0
O174 O 0.16414 0.58519 0.83179 0.0
O175 O 0.20084 0.60019 0.88772 0.0
O176 O 0.11693 0.59324 0.86744 0.0
O177 O 0.07974 0.56836 0.81333 0.0
C178 C 0.15168 0.50383 0.82266 0.0
C179 C 0.08863 0.59141 0.84097 0.0
C180 C 0.34069 0.98974 0.48369 0.0
C181 C 0.33848 0.05972 0.39464 0.0
O182 O 0.31409 0.99125 0.45752 0.0
Zn183 Zn 0.33918 0.0237 0.43794 0.0
O184 O 0.37183 0.00725 0.48789 0.0
Zn185 Zn 0.39557 0.04215 0.46172 0.0
O186 O 0.41491 0.08194 0.49927 0.0
O187 O 0.35584 0.06699 0.47979 0.0
O188 O 0.37016 0.06248 0.41629 0.0
O189 O 0.3122 0.03972 0.3977 0.0
O190 O 0.37077 0.99725 0.41514 0.0
O191 O 0.42789 0.01934 0.44547 0.0
C192 C 0.38495 0.08682 0.50078 0.0
C193 C 0.40392 0.99782 0.42033 0.0
C194 C 0.71137 0.8362 0.0908 0.0
C195 C 0.62411 0.83189 0.97409 0.0
O196 O 0.697 0.8064 0.07308 0.0
Zn197 Zn 0.65976 0.78211 0.02109 0.0
O198 O 0.70352 0.86045 0.07651 0.0
Zn199 Zn 0.66866 0.83441 0.03186 0.0
O200 O 0.62707 0.80817 0.04926 0.0
O201 O 0.62344 0.75456 0.03342 0.0
O202 O 0.64211 0.85747 0.9981 0.0
O203 O 0.6284 0.80304 0.97944 0.0
O204 O 0.68792 0.7602 0.99808 0.0
O205 O 0.70114 0.81463 0.00347 0.0
C206 C 0.61263 0.77782 0.04803 0.0
C207 C 0.70584 0.78595 0.99245 0.0
C208 C 0.87401 0.06633 0.71041 0.0
C209 C 0.82164 0.12805 0.62056 0.0
O210 O 0.8411 0.06129 0.69191 0.0
Zn211 Zn 0.84608 0.098 0.66715 0.0
O212 O 0.89662 0.09066 0.70735 0.0
Zn213 Zn 0.89762 0.12953 0.67764 0.0
O214 O 0.91311 0.16949 0.71405 0.0
O215 O 0.85981 0.14067 0.70973 0.0
O216 O 0.85528 0.13953 0.63645 0.0
O217 O 0.80496 0.104 0.63011 0.0
O218 O 0.87659 0.08248 0.63431 0.0
O219 O 0.92895 0.11821 0.65096 0.0
C220 C 0.88614 0.16589 0.72486 0.0
C221 C 0.90717 0.09204 0.63049 0.0
C222 C 0.58501 0.30623 0.13297 0.0
C223 C 0.50242 0.29646 0.01211 0.0
O224 O 0.56832 0.27929 0.11046 0.0
Zn225 Zn 0.54163 0.29935 0.07275 0.0
O226 O 0.57886 0.33387 0.12537 0.0
Zn227 Zn 0.54731 0.35249 0.08303 0.0
O228 O 0.5143 0.3704 0.10403 0.0
O229 O 0.50369 0.3157 0.09397 0.0
O230 O 0.51423 0.32638 0.03016 0.0
O231 O 0.51087 0.27244 0.02665 0.0
O232 O 0.58373 0.32782 0.05875 0.0
O233 O 0.58531 0.38133 0.07282 0.0
C234 C 0.49566 0.34268 0.10481 0.0
C235 C 0.59783 0.35825 0.06016 0.0
H236 H 0.14882 0.33995 0.26853 0.0
H237 H 0.15265 0.52354 0.25719 0.0
H238 H 0.23819 0.4024 0.25259 0.0
H239 H 0.05266 0.45093 0.22485 0.0
H240 H 0.18348 0.47894 0.24956 0.0
H241 H 0.11146 0.37811 0.2468 0.0
C242 C 0.16024 0.36138 0.2596 0.0
C243 C 0.19653 0.36837 0.26252 0.0
C244 C 0.15466 0.4727 0.24309 0.0
C245 C 0.15446 0.4124 0.23854 0.0
C246 C 0.13713 0.49814 0.2474 0.0
C247 C 0.10023 0.49065 0.24148 0.0
C248 C 0.13526 0.43953 0.23408 0.0
C249 C 0.08117 0.4575 0.22935 0.0
C250 C 0.13897 0.38308 0.24714 0.0
C251 C 0.21026 0.39632 0.25071 0.0
N252 N 0.09906 0.43297 0.22685 0.0
N253 N 0.1894 0.41779 0.23996 0.0
H254 H 0.27741 0.74005 0.73898 0.0
H255 H 0.25685 0.6457 0.89677 0.0
H256 H 0.3528 0.76554 0.84674 0.0
H257 H 0.18281 0.61779 0.78828 0.0
H258 H 0.29332 0.68871 0.87835 0.0
H259 H 0.24287 0.69434 0.75604 0.0
C260 C 0.28667 0.73603 0.7662 0.0
C261 C 0.31808 0.75657 0.79142 0.0
C262 C 0.26916 0.67309 0.85853 0.0
C263 C 0.27885 0.70432 0.81113 0.0
C264 C 0.24833 0.6485 0.86905 0.0
C265 C 0.21664 0.62817 0.84409 0.0
C266 C 0.25819 0.67749 0.82282 0.0
C267 C 0.20699 0.63292 0.80849 0.0
C268 C 0.26707 0.70986 0.7759 0.0
C269 C 0.32905 0.75004 0.82625 0.0
N270 N 0.22759 0.65716 0.79897 0.0
N271 N 0.30943 0.72457 0.83508 0.0
H272 H 0.9432 0.7556 0.38288 0.0
H273 H 0.9906 0.63493 0.23895 0.0
H274 H 0.94659 0.78065 0.28186 0.0
H275 H 0.0225 0.63353 0.35221 0.0
H276 H 0.96574 0.68343 0.25067 0.0
H277 H 0.96439 0.70609 0.36865 0.0
C278 C 0.9488 0.751 0.35786 0.0
C279 C 0.94359 0.77283 0.33383 0.0
C280 C 0.9781 0.67234 0.27284 0.0
C281 C 0.96693 0.71521 0.31688 0.0
C282 C 0.99203 0.64459 0.26616 0.0
C283 C 0.00871 0.63026 0.29467 0.0
C284 C 0.98042 0.6854 0.30816 0.0
C285 C 0.01007 0.64388 0.32945 0.0
C286 C 0.96062 0.72247 0.34963 0.0
C287 C 0.95009 0.76459 0.30119 0.0
N288 N 0.99608 0.67059 0.33518 0.0
N289 N 0.96142 0.73641 0.29365 0.0
H290 H 0.02389 0.37796 0.98657 0.0
H291 H 0.05218 0.53065 0.90142 0.0
H292 H 0.95527 0.44671 0.98385 0.0
H293 H 0.14485 0.50044 0.96309 0.0
H294 H 0.01602 0.49934 0.93112 0.0
H295 H 0.06971 0.42149 0.97945 0.0
C296 C 0.01902 0.40257 0.98552 0.0
C297 C 0.98598 0.40899 0.98571 0.0
C298 C 0.04438 0.49999 0.93865 0.0
C299 C 0.03733 0.45814 0.97648 0.0
C300 C 0.0649 0.51759 0.92153 0.0
C301 C 0.10132 0.51777 0.92976 0.0
C302 C 0.06018 0.48158 0.9633 0.0
C303 C 0.11675 0.50076 0.95613 0.0
C304 C 0.04506 0.42731 0.98147 0.0
C305 C 0.98056 0.44101 0.98393 0.0
N306 N 0.09586 0.48261 0.97149 0.0
N307 N 0.00568 0.46426 0.97852 0.0
H308 H 0.25098 0.19386 0.26615 0.0
H309 H 0.38919 0.09981 0.37643 0.0
H310 H 0.3646 0.21926 0.28418 0.0
H311 H 0.27482 0.06948 0.35242 0.0
H312 H 0.37995 0.14007 0.33759 0.0
H313 H 0.25827 0.1448 0.29233 0.0
C314 C 0.27742 0.18891 0.27532 0.0
C315 C 0.30729 0.21085 0.27332 0.0
C316 C 0.35681 0.12441 0.34049 0.0
C317 C 0.31587 0.15482 0.30341 0.0
C318 C 0.36207 0.1014 0.36273 0.0
C319 C 0.33274 0.08146 0.36802 0.0
C320 C 0.32197 0.1278 0.32358 0.0
C321 C 0.29822 0.08445 0.34929 0.0
C322 C 0.28155 0.16086 0.29017 0.0
C323 C 0.34083 0.20297 0.28508 0.0
N324 N 0.29381 0.10748 0.32822 0.0
N325 N 0.34427 0.17583 0.30001 0.0
H326 H 0.43966 0.8783 0.83314 0.0
H327 H 0.59249 0.78505 0.91244 0.0
H328 H 0.44294 0.7803 0.78545 0.0
H329 H 0.59385 0.88483 0.95979 0.0
H330 H 0.54291 0.7869 0.8604 0.0
H331 H 0.5011 0.88561 0.87345 0.0
C332 C 0.45374 0.85874 0.83045 0.0
C333 C 0.43618 0.82851 0.80629 0.0
C334 C 0.55421 0.80859 0.88193 0.0
C335 C 0.50592 0.83633 0.85264 0.0
C336 C 0.58252 0.8075 0.91176 0.0
C337 C 0.59699 0.83464 0.94078 0.0
C338 C 0.53977 0.83686 0.88116 0.0
C339 C 0.58331 0.86324 0.93812 0.0
C340 C 0.48866 0.86278 0.85366 0.0
C341 C 0.45543 0.80382 0.80407 0.0
N342 N 0.55506 0.86343 0.90907 0.0
N343 N 0.48904 0.80809 0.8273 0.0
H344 H 0.88969 0.93885 0.45431 0.0
H345 H 0.97367 0.0853 0.62884 0.0
H346 H 0.99357 0.95002 0.53271 0.0
H347 H 0.86108 0.05287 0.56815 0.0
H348 H 0.98613 0.04566 0.58497 0.0
H349 H 0.88426 0.99107 0.48651 0.0
C350 C 0.91174 0.95276 0.47775 0.0
C351 C 0.94191 0.93998 0.49118 0.0
C352 C 0.95878 0.04763 0.58108 0.0
C353 C 0.93577 0.99933 0.52833 0.0
C354 C 0.9517 0.07027 0.606 0.0
C355 C 0.91628 0.07192 0.60237 0.0
C356 C 0.93024 0.027 0.55218 0.0
C357 C 0.88875 0.05193 0.57228 0.0
C358 C 0.90852 0.98238 0.4963 0.0
C359 C 0.96964 0.95887 0.52183 0.0
N360 N 0.89628 0.0302 0.54849 0.0
N361 N 0.96575 0.98742 0.53962 0.0
H362 H 0.82083 0.40657 0.09194 0.0
H363 H 0.6151 0.31979 0.01005 0.0
H364 H 0.7771 0.32957 0.99638 0.0
H365 H 0.65484 0.41231 0.08729 0.0
H366 H 0.67325 0.3258 0.00109 0.0
H367 H 0.7602 0.41195 0.08792 0.0
C368 C 0.7984 0.391 0.0699 0.0
C369 C 0.80389 0.36726 0.04471 0.0
C370 C 0.66919 0.34514 0.01954 0.0
C371 C 0.73441 0.37317 0.04001 0.0
C372 C 0.63597 0.34172 0.02467 0.0
C373 C 0.6303 0.36547 0.04967 0.0
C374 C 0.69728 0.37218 0.04013 0.0
C375 C 0.65813 0.39346 0.06774 0.0
C376 C 0.76382 0.39421 0.0675 0.0
C377 C 0.77401 0.34811 0.01638 0.0
N378 N 0.6907 0.39574 0.06313 0.0
N379 N 0.74049 0.35111 0.01512 0.0
H380 H 0.3726 0.90963 0.67734 0.0
H381 H 0.27805 0.95374 0.48734 0.0
H382 H 0.25814 0.89062 0.62696 0.0
H383 H 0.3923 0.98008 0.54155 0.0
H384 H 0.2706 0.92484 0.53505 0.0
H385 H 0.3807 0.9297 0.62455 0.0
C386 C 0.34919 0.90935 0.65503 0.0
C387 C 0.31466 0.8988 0.65675 0.0
C388 C 0.29732 0.93676 0.53638 0.0
C389 C 0.32367 0.92193 0.59639 0.0
C390 C 0.3016 0.95322 0.50908 0.0
C391 C 0.33582 0.96962 0.51055 0.0
C392 C 0.32748 0.93667 0.56539 0.0
C393 C 0.36536 0.968 0.53939 0.0
C394 C 0.3538 0.92097 0.62498 0.0
C395 C 0.28526 0.89915 0.6271 0.0
N396 N 0.36049 0.95202 0.56574 0.0
N397 N 0.29044 0.91068 0.59827 0.0
H398 H 0.81816 0.81287 0.30532 0.0
H399 H 0.76622 0.89031 0.12869 0.0
H400 H 0.89632 0.8805 0.27889 0.0
H401 H 0.71218 0.79444 0.13756 0.0
H402 H 0.80813 0.89661 0.18984 0.0
H403 H 0.77221 0.8165 0.25032 0.0
C404 C 0.82529 0.82916 0.28829 0.0
C405 C 0.86072 0.84663 0.29647 0.0
C406 C 0.78689 0.87436 0.17834 0.0
C407 C 0.80886 0.85049 0.23355 0.0
C408 C 0.76301 0.87078 0.14361 0.0
C409 C 0.73598 0.84167 0.128 0.0
C410 C 0.78303 0.84899 0.19771 0.0
C411 C 0.73293 0.8171 0.14842 0.0
C412 C 0.79928 0.83101 0.25686 0.0
C413 C 0.86905 0.86697 0.27342 0.0
N414 N 0.75609 0.82135 0.1822 0.0
N415 N 0.84328 0.86826 0.24278 0.0
H416 H 0.90938 0.34424 0.87529 0.0
H417 H 0.84806 0.15586 0.77089 0.0
H418 H 0.88603 0.2643 0.92915 0.0
H419 H 0.92245 0.23091 0.74811 0.0
H420 H 0.84872 0.19611 0.82246 0.0
H421 H 0.89972 0.30354 0.82119 0.0
C422 C 0.90198 0.31809 0.8757 0.0
C423 C 0.89939 0.30767 0.90717 0.0
C424 C 0.86472 0.20368 0.806 0.0
C425 C 0.88764 0.26096 0.84488 0.0
C426 C 0.86429 0.18086 0.77656 0.0
C427 C 0.88533 0.1901 0.75527 0.0
C428 C 0.88565 0.2361 0.81359 0.0
C429 C 0.90601 0.22271 0.76392 0.0
C430 C 0.89646 0.29492 0.84477 0.0
C431 C 0.8885 0.27345 0.9056 0.0
N432 N 0.90549 0.24459 0.79229 0.0
N433 N 0.88326 0.25122 0.87499 0.0
H434 H 0.3203 0.2546 0.16731 0.0
H435 H 0.48353 0.38833 0.15455 0.0
H436 H 0.36731 0.34764 0.24311 0.0
H437 H 0.43823 0.29111 0.08635 0.0
H438 H 0.43608 0.37863 0.18213 0.0
H439 H 0.35796 0.27225 0.13205 0.0
C440 C 0.33849 0.27888 0.17639 0.0
C441 C 0.34105 0.2995 0.20838 0.0
C442 C 0.43638 0.35966 0.16081 0.0
C443 C 0.38464 0.31996 0.16825 0.0
C444 C 0.46329 0.36526 0.14499 0.0
C445 C 0.46503 0.34031 0.1185 0.0
C446 C 0.41107 0.32905 0.1497 0.0
C447 C 0.43826 0.31084 0.1071 0.0
C448 C 0.35998 0.28903 0.15623 0.0
C449 C 0.3646 0.33099 0.21859 0.0
N450 N 0.41264 0.30599 0.12288 0.0
N451 N 0.38588 0.34014 0.19882 0.0
H452 H 0.01912 0.76526 0.90827 0.0
H453 H 0.0214 0.59165 0.79626 0.0
H454 H 0.92482 0.70375 0.82594 0.0
H455 H 0.10602 0.64745 0.89215 0.0
H456 H 0.98604 0.63297 0.80349 0.0
H457 H 0.0519 0.72281 0.89974 0.0
C458 C 0.00534 0.74275 0.88828 0.0
C459 C 0.9693 0.7381 0.86758 0.0
C460 C 0.01235 0.63602 0.82288 0.0
C461 C 0.0067 0.68907 0.85768 0.0
C462 C 0.03258 0.61257 0.8187 0.0
C463 C 0.06674 0.61608 0.84362 0.0
C464 C 0.02659 0.6632 0.85201 0.0
C465 C 0.07983 0.64359 0.87227 0.0
C466 C 0.02402 0.71841 0.8835 0.0
C467 C 0.95259 0.7082 0.8425 0.0
N468 N 0.05982 0.66601 0.87559 0.0
N469 N 0.97151 0.68481 0.83804 0.0
H470 H 0.92667 0.32997 0.33927 0.0
H471 H 0.02799 0.52113 0.3984 0.0
H472 H 0.88575 0.40066 0.396 0.0
H473 H 0.01255 0.46125 0.29531 0.0
H474 H 0.98941 0.47453 0.41117 0.0
H475 H 0.97344 0.37562 0.33746 0.0
C476 C 0.92813 0.35502 0.35215 0.0
C477 C 0.90239 0.36166 0.36777 0.0
C478 C 0.99484 0.47171 0.38595 0.0
C479 C 0.95563 0.41376 0.3658 0.0
C480 C 0.0168 0.4981 0.37872 0.0
C481 C 0.02308 0.49497 0.34566 0.0
C482 C 0.98025 0.44187 0.36038 0.0
C483 C 0.00799 0.46473 0.32095 0.0
C484 C 0.95457 0.381 0.35085 0.0
C485 C 0.90512 0.39464 0.38361 0.0
N486 N 0.98747 0.43929 0.32889 0.0
N487 N 0.93129 0.41958 0.38219 0.0
H488 H 0.22168 0.34451 0.7159 0.0
H489 H 0.20883 0.48615 0.86595 0.0
H490 H 0.30144 0.38321 0.82049 0.0
H491 H 0.13332 0.4595 0.75816 0.0
H492 H 0.23926 0.44405 0.85037 0.0
H493 H 0.18578 0.38252 0.73121 0.0
C494 C 0.23161 0.36084 0.74207 0.0
C495 C 0.26461 0.36042 0.767 0.0
C496 C 0.21601 0.44724 0.83002 0.0
C497 C 0.22359 0.40371 0.7847 0.0
C498 C 0.19852 0.47136 0.83892 0.0
C499 C 0.16857 0.47663 0.81324 0.0
C500 C 0.20371 0.42806 0.79506 0.0
C501 C 0.15639 0.45637 0.77876 0.0
C502 C 0.21104 0.38243 0.75081 0.0
C503 C 0.27592 0.38199 0.80061 0.0
N504 N 0.17415 0.43304 0.77058 0.0
N505 N 0.25553 0.40267 0.80836 0.0
H506 H 0.34099 0.72153 0.32655 0.0
H507 H 0.13278 0.63133 0.25304 0.0
H508 H 0.27228 0.70648 0.21668 0.0
H509 H 0.20073 0.63094 0.3597 0.0
H510 H 0.18363 0.6634 0.24199 0.0
H511 H 0.29025 0.69206 0.34155 0.0
C512 C 0.31532 0.71193 0.3056 0.0
C513 C 0.31097 0.71616 0.27022 0.0
C514 C 0.18758 0.65644 0.26789 0.0
C515 C 0.25299 0.68285 0.2872 0.0
C516 C 0.15842 0.63815 0.27431 0.0
C517 C 0.16248 0.62818 0.3073 0.0
C518 C 0.22133 0.66498 0.29459 0.0
C519 C 0.19641 0.63806 0.33385 0.0
C520 C 0.28645 0.69512 0.31416 0.0
C521 C 0.27715 0.70325 0.24413 0.0
N522 N 0.22467 0.65582 0.32686 0.0
N523 N 0.24958 0.68731 0.25317 0.0
H524 H 0.90123 0.91772 0.84418 0.0
H525 H 0.94325 0.06823 0.74763 0.0
H526 H 0.00538 0.9586 0.83802 0.0
H527 H 0.83525 0.01359 0.72832 0.0
H528 H 0.96586 0.03105 0.78589 0.0
H529 H 0.87597 0.95466 0.80587 0.0
C530 C 0.91878 0.93431 0.83472 0.0
C531 C 0.95561 0.93514 0.84461 0.0
C532 C 0.93719 0.02708 0.77333 0.0
C533 C 0.92692 0.97771 0.80127 0.0
C534 C 0.92417 0.04843 0.75149 0.0
C535 C 0.88721 0.04402 0.73458 0.0
C536 C 0.91321 0.00104 0.77865 0.0
C537 C 0.86395 0.01784 0.74074 0.0
C538 C 0.90433 0.95546 0.81299 0.0
C539 C 0.97704 0.95748 0.83185 0.0
N540 N 0.87735 0.99728 0.76236 0.0
N541 N 0.96241 0.97785 0.811 0.0
H542 H 0.79495 0.34958 0.28167 0.0
H543 H 0.59973 0.25476 0.16772 0.0
H544 H 0.73729 0.27926 0.32702 0.0
H545 H 0.63696 0.3597 0.17399 0.0
H546 H 0.65174 0.25775 0.22095 0.0
H547 H 0.73887 0.34905 0.23662 0.0
C548 C 0.77063 0.33448 0.28286 0.0
C549 C 0.77132 0.31451 0.30871 0.0
C550 C 0.64802 0.28006 0.21071 0.0
C551 C 0.70689 0.31269 0.25548 0.0
C552 C 0.61858 0.27836 0.18037 0.0
C553 C 0.61406 0.30698 0.16635 0.0
C554 C 0.67332 0.31034 0.22626 0.0
C555 C 0.63925 0.33698 0.18382 0.0
C556 C 0.73857 0.33396 0.25669 0.0
C557 C 0.7385 0.29459 0.30739 0.0
N558 N 0.66802 0.33776 0.21248 0.0
N559 N 0.70766 0.29381 0.28088 0.0
H560 H 0.3059 0.2236 0.62314 0.0
H561 H 0.43537 0.14537 0.53338 0.0
H562 H 0.39813 0.28331 0.6088 0.0
H563 H 0.32892 0.09374 0.52393 0.0
H564 H 0.42733 0.1944 0.56932 0.0
H565 H 0.31917 0.17389 0.5949 0.0
C566 C 0.32911 0.22621 0.61426 0.0
C567 C 0.35085 0.25763 0.61816 0.0
C568 C 0.40589 0.17221 0.55951 0.0
C569 C 0.36616 0.20082 0.58567 0.0
C570 C 0.41054 0.14422 0.53922 0.0
C571 C 0.38267 0.11557 0.52545 0.0
C572 C 0.37334 0.17125 0.56634 0.0
C573 C 0.35099 0.11542 0.53369 0.0
C574 C 0.33658 0.19785 0.59799 0.0
C575 C 0.38041 0.25957 0.60585 0.0
N576 N 0.34719 0.1428 0.55351 0.0
N577 N 0.38722 0.23154 0.59014 0.0
H578 H 0.45477 0.78888 0.15569 0.0
H579 H 0.57107 0.71685 0.04386 0.0
H580 H 0.42629 0.68869 0.09453 0.0
H581 H 0.58776 0.82118 0.08733 0.0
H582 H 0.52205 0.70491 0.0682 0.0
H583 H 0.50814 0.79985 0.13728 0.0
C584 C 0.45999 0.76911 0.13873 0.0
C585 C 0.43598 0.73791 0.1264 0.0
C586 C 0.53649 0.73041 0.07247 0.0
C587 C 0.49671 0.75029 0.10508 0.0
C588 C 0.56452 0.73725 0.05861 0.0
C589 C 0.58345 0.77009 0.06337 0.0
C590 C 0.52739 0.75656 0.09143 0.0
C591 C 0.57377 0.7955 0.08281 0.0
C592 C 0.49028 0.77543 0.12803 0.0
C593 C 0.44385 0.71324 0.10422 0.0
N594 N 0.5464 0.78821 0.09609 0.0
N595 N 0.47347 0.71997 0.09422 0.0
H596 H 0.85453 0.14832 0.43444 0.0
H597 H 0.82257 0.1909 0.60895 0.0
H598 H 0.79095 0.2217 0.4368 0.0
H599 H 0.78844 0.08808 0.55518 0.0
H600 H 0.81571 0.20716 0.55058 0.0
H601 H 0.83712 0.12878 0.48288 0.0
C602 C 0.83648 0.16014 0.4444 0.0
C603 C 0.82431 0.18692 0.43084 0.0
C604 C 0.80848 0.18112 0.55153 0.0
C605 C 0.80567 0.16515 0.48791 0.0
C606 C 0.81216 0.17187 0.58465 0.0
C607 C 0.80559 0.13817 0.58661 0.0
C608 C 0.79972 0.15642 0.52067 0.0
C609 C 0.79314 0.11433 0.55459 0.0
C610 C 0.82673 0.14892 0.47233 0.0
C611 C 0.80198 0.20165 0.44657 0.0
N612 N 0.79171 0.12387 0.52295 0.0
N613 N 0.79398 0.19101 0.47475 0.0
H614 H 0.4074 0.32288 0.79728 0.0
H615 H 0.44226 0.24709 0.97519 0.0
H616 H 0.32025 0.27374 0.82805 0.0
H617 H 0.51089 0.33394 0.96379 0.0
H618 H 0.40131 0.24384 0.91412 0.0
H619 H 0.44984 0.3133 0.85101 0.0
C620 C 0.3972 0.30945 0.81498 0.0
C621 C 0.36026 0.29919 0.80831 0.0
C622 C 0.42561 0.26327 0.92499 0.0
C623 C 0.40872 0.28843 0.86997 0.0
C624 C 0.44897 0.26501 0.95955 0.0
C625 C 0.4797 0.29094 0.97436 0.0
C626 C 0.43378 0.28715 0.90515 0.0
C627 C 0.48723 0.31375 0.95333 0.0
C628 C 0.42143 0.30422 0.84574 0.0
C629 C 0.34856 0.28232 0.83247 0.0
N630 N 0.46446 0.31131 0.91979 0.0
N631 N 0.37276 0.27756 0.86243 0.0
H632 H 0.38324 0.84444 0.24441 0.0
H633 H 0.45456 0.9615 0.43967 0.0
H634 H 0.42132 0.80798 0.34182 0.0
H635 H 0.3733 0.97672 0.34852 0.0
H636 H 0.4607 0.91273 0.40138 0.0
H637 H 0.39887 0.9008 0.28014 0.0
C638 C 0.39586 0.84844 0.27323 0.0
C639 C 0.40069 0.82154 0.29028 0.0
C640 C 0.44213 0.92727 0.38973 0.0
C641 C 0.41829 0.88575 0.33119 0.0
C642 C 0.43877 0.95506 0.41142 0.0
C643 C 0.41317 0.97275 0.39712 0.0
C644 C 0.42025 0.91781 0.35354 0.0
C645 C 0.39308 0.96341 0.36052 0.0
C646 C 0.40451 0.88053 0.29359 0.0
C647 C 0.41679 0.82809 0.32776 0.0
N648 N 0.39693 0.93649 0.34 0.0
N649 N 0.4247 0.85954 0.34708 0.0
H650 H 0.87993 0.74083 0.924 0.0
H651 H 0.73291 0.83154 0.95868 0.0
H652 H 0.84341 0.81446 0.86495 0.0
H653 H 0.73706 0.73384 0.98127 0.0
H654 H 0.77607 0.82708 0.92702 0.0
H655 H 0.82932 0.73788 0.94667 0.0
C656 C 0.86096 0.7559 0.91518 0.0
C657 C 0.8663 0.77826 0.89282 0.0
C658 C 0.76737 0.80651 0.93869 0.0
C659 C 0.80895 0.77563 0.91958 0.0
C660 C 0.74293 0.80914 0.95699 0.0
C661 C 0.73153 0.78308 0.97279 0.0
C662 C 0.78105 0.77788 0.93667 0.0
C663 C 0.74517 0.75451 0.96947 0.0
C664 C 0.8322 0.75436 0.92838 0.0
C665 C 0.84096 0.79747 0.88282 0.0
N666 N 0.76956 0.75279 0.95209 0.0
N667 N 0.81373 0.79606 0.89666 0.0
loop_
_geom_bond_atom_site_label_1
_geom_bond_atom_site_label_2
_geom_bond_distance
_geom_bond_site_symmetry_2
_ccdc_geom_bond_type
H0 C1 0.949 . S
C1 H0 0.949 . S
C1 C2 1.395 . S
C1 C3 1.391 . S
C2 C1 1.395 . S
C2 C5 1.390 . S
C3 C1 1.391 . S
C3 C7 1.387 . S
C3 C8 1.491 . S
H4 C5 0.950 . S
C5 C2 1.390 . S
C5 H4 0.950 . S
C5 C6 1.378 . S
C6 C5 1.378 . S
C6 C7 1.409 . S
C7 C3 1.387 . S
C7 C6 1.409 . S
C7 H9 0.951 . S
C8 C3 1.491 . S
C8 C10 1.382 . S
C8 C12 1.404 . S
H9 C7 0.951 . S
C10 C8 1.382 . S
C10 C11 1.390 . S
C10 H15 0.949 . S
C11 C10 1.390 . S
C11 C16 1.399 . S
C12 C8 1.404 . S
C12 H13 0.950 . S
C12 C14 1.375 . S
H13 C12 0.950 . S
C14 C12 1.375 . S
C14 C16 1.382 . S
C14 H18 0.950 . S
H15 C10 0.949 . S
C16 C11 1.399 . S
C16 C14 1.382 . S
C16 H17 0.952 . S
H17 C16 0.952 . S
H18 C14 0.950 . S
H19 C20 0.949 . S
C20 H19 0.949 . S
C20 C21 1.395 . S
C20 C22 1.391 . S
C21 C20 1.395 . S
C21 C24 1.390 . S
C22 C20 1.391 . S
C22 C26 1.387 . S
C22 C27 1.491 . S
H23 C24 0.950 . S
C24 C21 1.390 . S
C24 H23 0.950 . S
C24 C25 1.378 . S
C25 C24 1.378 . S
C25 C26 1.409 . S
C26 C22 1.387 . S
C26 C25 1.409 . S
C26 H28 0.951 . S
C27 C22 1.491 . S
C27 C29 1.382 . S
C27 C31 1.404 . S
H28 C26 0.951 . S
C29 C27 1.382 . S
C29 C30 1.390 . S
C29 H34 0.949 . S
C30 C29 1.390 . S
C30 C35 1.399 . S
C31 C27 1.404 . S
C31 H32 0.950 . S
C31 C33 1.375 . S
H32 C31 0.950 . S
C33 C31 1.375 . S
C33 C35 1.382 . S
C33 H37 0.950 . S
H34 C29 0.949 . S
C35 C30 1.399 . S
C35 C33 1.382 . S
C35 H36 0.952 . S
H36 C35 0.952 . S
H37 C33 0.950 . S
H38 C39 0.949 . S
C39 H38 0.949 . S
C39 C40 1.395 . S
C39 C41 1.391 . S
C40 C39 1.395 . S
C40 C43 1.390 . S
C41 C39 1.391 . S
C41 C45 1.387 . S
C41 C46 1.491 . S
H42 C43 0.950 . S
C43 C40 1.390 . S
C43 H42 0.950 . S
C43 C44 1.378 . S
C44 C43 1.378 . S
C44 C45 1.409 . S
C45 C41 1.387 . S
C45 C44 1.409 . S
C45 H47 0.951 . S
C46 C41 1.491 . S
C46 C48 1.382 . S
C46 C50 1.404 . S
H47 C45 0.951 . S
C48 C46 1.382 . S
C48 C49 1.390 . S
C48 H53 0.949 . S
C49 C48 1.390 . S
C49 C54 1.399 . S
C50 C46 1.404 . S
C50 H51 0.950 . S
C50 C52 1.375 . S
H51 C50 0.950 . S
C52 C50 1.375 . S
C52 C54 1.382 . S
C52 H56 0.950 . S
H53 C48 0.949 . S
C54 C49 1.399 . S
C54 C52 1.382 . S
C54 H55 0.952 . S
H55 C54 0.952 . S
H56 C52 0.950 . S
H57 C58 0.949 1_554 S
C58 H57 0.949 1_556 S
C58 C59 1.395 . S
C58 C60 1.391 . S
C59 C58 1.395 . S
C59 C62 1.390 . S
C60 C58 1.391 . S
C60 C64 1.387 . S
C60 C65 1.491 1_556 S
H61 C62 0.950 . S
C62 C59 1.390 . S
C62 H61 0.950 . S
C62 C63 1.378 . S
C63 C62 1.378 . S
C63 C64 1.409 . S
C64 C60 1.387 . S
C64 C63 1.409 . S
C64 H66 0.951 . S
C65 C60 1.491 1_554 S
C65 C67 1.382 . S
C65 C69 1.404 . S
H66 C64 0.951 . S
C67 C65 1.382 . S
C67 C68 1.390 . S
C67 H72 0.949 . S
C68 C67 1.390 . S
C68 C73 1.399 . S
C69 C65 1.404 . S
C69 H70 0.950 . S
C69 C71 1.375 . S
H70 C69 0.950 . S
C71 C69 1.375 . S
C71 C73 1.382 . S
C71 H75 0.950 . S
H72 C67 0.949 . S
C73 C68 1.399 . S
C73 C71 1.382 . S
C73 H74 0.952 . S
H74 C73 0.952 . S
H75 C71 0.950 . S
H76 C77 0.949 1_455 S
C77 H76 0.949 1_655 S
C77 C78 1.395 . S
C77 C79 1.391 . S
C78 C77 1.395 . S
C78 C81 1.390 . S
C79 C77 1.391 . S
C79 C83 1.387 . S
C79 C84 1.491 . S
H80 C81 0.950 . S
C81 C78 1.390 . S
C81 H80 0.950 . S
C81 C82 1.378 . S
C82 C81 1.378 . S
C82 C83 1.409 . S
C83 C79 1.387 . S
C83 C82 1.409 . S
C83 H85 0.951 . S
C84 C79 1.491 . S
C84 C86 1.382 . S
C84 C88 1.404 . S
H85 C83 0.951 . S
C86 C84 1.382 . S
C86 C87 1.390 . S
C86 H91 0.949 . S
C87 C86 1.390 . S
C87 C92 1.399 . S
C88 C84 1.404 . S
C88 H89 0.950 . S
C88 C90 1.375 . S
H89 C88 0.950 . S
C90 C88 1.375 . S
C90 C92 1.382 . S
C90 H94 0.950 . S
H91 C86 0.949 . S
C92 C87 1.399 . S
C92 C90 1.382 . S
C92 H93 0.952 . S
H93 C92 0.952 . S
H94 C90 0.950 . S
H95 C96 0.949 . S
C96 H95 0.949 . S
C96 C97 1.395 . S
C96 C98 1.391 . S
C97 C96 1.395 . S
C97 C100 1.390 . S
C98 C96 1.391 . S
C98 C102 1.387 . S
C98 C103 1.491 . S
H99 C100 0.950 . S
C100 C97 1.390 . S
C100 H99 0.950 . S
C100 C101 1.378 . S
C101 C100 1.378 . S
C101 C102 1.409 . S
C102 C98 1.387 . S
C102 C101 1.409 . S
C102 H104 0.951 . S
C103 C98 1.491 . S
C103 C105 1.382 . S
C103 C107 1.404 . S
H104 C102 0.951 . S
C105 C103 1.382 . S
C105 C106 1.390 . S
C105 H110 0.949 . S
C106 C105 1.390 . S
C106 C111 1.399 . S
C107 C103 1.404 . S
C107 H108 0.950 . S
C107 C109 1.375 . S
H108 C107 0.950 . S
C109 C107 1.375 . S
C109 C111 1.382 . S
C109 H113 0.950 . S
H110 C105 0.949 . S
C111 C106 1.399 . S
C111 C109 1.382 . S
C111 H112 0.952 . S
H112 C111 0.952 . S
H113 C109 0.950 . S
H114 C115 0.949 . S
C115 H114 0.949 . S
C115 C116 1.395 . S
C115 C117 1.391 . S
C116 C115 1.395 . S
C116 C119 1.390 . S
C117 C115 1.391 . S
C117 C121 1.387 . S
C117 C122 1.491 . S
H118 C119 0.950 . S
C119 C116 1.390 . S
C119 H118 0.950 . S
C119 C120 1.378 . S
C120 C119 1.378 . S
C120 C121 1.409 . S
C121 C117 1.387 . S
C121 C120 1.409 . S
C121 H123 0.951 . S
C122 C117 1.491 . S
C122 C124 1.382 . S
C122 C126 1.404 . S
H123 C121 0.951 . S
C124 C122 1.382 . S
C124 C125 1.390 . S
C124 H129 0.949 . S
C125 C124 1.390 . S
C125 C130 1.399 . S
C126 C122 1.404 . S
C126 H127 0.950 . S
C126 C128 1.375 . S
H127 C126 0.950 . S
C128 C126 1.375 . S
C128 C130 1.382 . S
C128 H132 0.950 . S
H129 C124 0.949 . S
C130 C125 1.399 . S
C130 C128 1.382 . S
C130 H131 0.952 . S
H131 C130 0.952 . S
H132 C128 0.950 . S
H133 C134 0.949 . S
C134 H133 0.949 . S
C134 C135 1.395 . S
C134 C136 1.391 . S
C135 C134 1.395 . S
C135 C138 1.390 . S
C136 C134 1.391 . S
C136 C140 1.387 . S
C136 C141 1.491 . S
H137 C138 0.950 . S
C138 C135 1.390 . S
C138 H137 0.950 . S
C138 C139 1.378 . S
C139 C138 1.378 . S
C139 C140 1.409 . S
C140 C136 1.387 . S
C140 C139 1.409 . S
C140 H142 0.951 . S
C141 C136 1.491 . S
C141 C143 1.382 . S
C141 C145 1.404 . S
H142 C140 0.951 . S
C143 C141 1.382 . S
C143 C144 1.390 . S
C143 H148 0.949 . S
C144 C143 1.390 . S
C144 C149 1.399 . S
C145 C141 1.404 . S
C145 H146 0.950 . S
C145 C147 1.375 . S
H146 C145 0.950 . S
C147 C145 1.375 . S
C147 C149 1.382 . S
C147 H151 0.950 . S
H148 C143 0.949 . S
C149 C144 1.399 . S
C149 C147 1.382 . S
C149 H150 0.952 . S
H150 C149 0.952 . S
H151 C147 0.950 . S
C152 O154 1.247 1_655 S
C152 O156 1.258 . S
C153 O160 1.247 . S
C153 O161 1.258 . S
O154 C152 1.247 1_455 S
O154 Zn155 2.028 . S
Zn155 O154 2.028 . S
Zn155 O159 2.035 . S
Zn155 O161 2.035 . S
Zn155 O162 2.028 . S
O156 C152 1.258 . S
O156 Zn157 2.035 1_655 S
Zn157 O156 2.035 1_455 S
Zn157 O158 2.028 . S
Zn157 O160 2.028 . S
Zn157 O163 2.035 1_455 S
O158 Zn157 2.028 . S
O158 C164 1.247 . S
O159 Zn155 2.035 . S
O159 C164 1.258 . S
O160 C153 1.247 . S
O160 Zn157 2.028 . S
O161 C153 1.258 . S
O161 Zn155 2.035 . S
O162 Zn155 2.028 . S
O162 C165 1.247 . S
O163 Zn157 2.035 1_655 S
O163 C165 1.258 1_655 S
C164 O158 1.247 . S
C164 O159 1.258 . S
C165 O162 1.247 . S
C165 O163 1.258 1_455 S
C166 O168 1.247 . S
C166 O170 1.258 . S
C167 O174 1.247 . S
C167 O175 1.258 . S
O168 C166 1.247 . S
O168 Zn169 2.028 . S
Zn169 O168 2.028 . S
Zn169 O173 2.035 . S
Zn169 O175 2.035 . S
Zn169 O176 2.028 . S
O170 C166 1.258 . S
O170 Zn171 2.035 . S
Zn171 O170 2.035 . S
Zn171 O172 2.028 . S
Zn171 O174 2.028 . S
Zn171 O177 2.035 . S
O172 Zn171 2.028 . S
O172 C178 1.247 . S
O173 Zn169 2.035 . S
O173 C178 1.258 . S
O174 C167 1.247 . S
O174 Zn171 2.028 . S
O175 C167 1.258 . S
O175 Zn169 2.035 . S
O176 Zn169 2.028 . S
O176 C179 1.247 . S
O177 Zn171 2.035 . S
O177 C179 1.258 . S
C178 O172 1.247 . S
C178 O173 1.258 . S
C179 O176 1.247 . S
C179 O177 1.258 . S
C180 O182 1.247 . S
C180 O184 1.258 . S
C181 O188 1.247 . S
C181 O189 1.258 . S
O182 C180 1.247 . S
O182 Zn183 2.028 1_565 S
Zn183 O182 2.028 1_545 S
Zn183 O187 2.035 . S
Zn183 O189 2.035 . S
Zn183 O190 2.028 1_545 S
O184 C180 1.258 . S
O184 Zn185 2.035 1_565 S
Zn185 O184 2.035 1_545 S
Zn185 O186 2.028 . S
Zn185 O188 2.028 . S
Zn185 O191 2.051 . S
O186 Zn185 2.028 . S
O186 C192 1.247 . S
O187 Zn183 2.035 . S
O187 C192 1.258 . S
O188 C181 1.247 . S
O188 Zn185 2.028 . S
O189 C181 1.258 . S
O189 Zn183 2.035 . S
O190 Zn183 2.028 1_565 S
O190 C193 1.247 . S
O191 Zn185 2.051 . S
O191 C193 1.247 1_545 S
C192 O186 1.247 . S
C192 O187 1.258 . S
C193 O190 1.247 . S
C193 O191 1.247 1_565 S
C194 O196 1.247 . S
C194 O198 1.258 . S
C195 O202 1.247 . S
C195 O203 1.258 . S
O196 C194 1.247 . S
O196 Zn197 2.028 1_554 S
Zn197 O196 2.028 1_556 S
Zn197 O201 2.035 1_556 S
Zn197 O203 2.035 . S
Zn197 O204 2.028 . S
O198 C194 1.258 . S
O198 Zn199 2.035 . S
Zn199 O198 2.035 . S
Zn199 O200 2.028 . S
Zn199 O202 2.028 1_554 S
Zn199 O205 2.035 1_554 S
O200 Zn199 2.028 . S
O200 C206 1.247 . S
O201 Zn197 2.035 1_554 S
O201 C206 1.258 . S
O202 C195 1.247 . S
O202 Zn199 2.028 1_556 S
O203 C195 1.258 . S
O203 Zn197 2.035 . S
O204 Zn197 2.028 . S
O204 C207 1.247 . S
O205 Zn199 2.035 1_556 S
O205 C207 1.258 . S
C206 O200 1.247 . S
C206 O201 1.258 . S
C207 O204 1.247 . S
C207 O205 1.258 . S
C208 O210 1.247 1_455 S
C208 O212 1.258 . S
C209 O216 1.247 1_655 S
C209 O217 1.258 . S
O210 C208 1.247 1_655 S
O210 Zn211 2.028 . S
Zn211 O210 2.028 . S
Zn211 O215 2.035 . S
Zn211 O217 2.035 . S
Zn211 O218 2.028 . S
O212 C208 1.258 . S
O212 Zn213 2.035 . S
Zn213 O212 2.035 . S
Zn213 O214 2.028 . S
Zn213 O216 2.028 . S
Zn213 O219 2.035 . S
O214 Zn213 2.028 . S
O214 C220 1.247 1_455 S
O215 Zn211 2.035 . S
O215 C220 1.258 . S
O216 C209 1.247 1_455 S
O216 Zn213 2.028 . S
O217 C209 1.258 . S
O217 Zn211 2.035 . S
O218 Zn211 2.028 . S
O218 C221 1.248 . S
O219 Zn213 2.035 . S
O219 C221 1.257 1_455 S
C220 O214 1.247 1_655 S
C220 O215 1.258 . S
C221 O218 1.248 . S
C221 O219 1.257 1_655 S
C222 O224 1.247 . S
C222 O226 1.258 . S
C223 O230 1.247 . S
C223 O231 1.258 . S
O224 C222 1.247 . S
O224 Zn225 2.028 . S
Zn225 O224 2.028 . S
Zn225 O229 2.035 . S
Zn225 O231 2.035 . S
Zn225 O232 2.028 . S
O226 C222 1.258 . S
O226 Zn227 2.035 . S
Zn227 O226 2.035 . S
Zn227 O228 2.028 . S
Zn227 O230 2.028 . S
Zn227 O233 2.035 . S
O228 Zn227 2.028 . S
O228 C234 1.247 . S
O229 Zn225 2.035 . S
O229 C234 1.258 . S
O230 C223 1.247 . S
O230 Zn227 2.028 . S
O231 C223 1.258 . S
O231 Zn225 2.035 . S
O232 Zn225 2.028 . S
O232 C235 1.247 . S
O233 Zn227 2.035 . S
O233 C235 1.258 . S
C234 O228 1.247 . S
C234 O229 1.258 . S
C235 O232 1.247 . S
C235 O233 1.258 . S
H236 C242 0.930 . S
H237 C246 0.930 . S
H238 C251 0.929 . S
H239 C249 0.929 . S
H240 C244 0.929 . S
H241 C250 0.929 . S
C242 H236 0.930 . S
C242 C243 1.367 . S
C242 C250 1.378 . S
C243 C242 1.367 . S
C243 C251 1.433 . S
C244 H240 0.929 . S
C244 C246 1.378 . S
C244 C248 1.350 . S
C245 C248 1.463 . S
C245 C250 1.350 . S
C245 N253 1.427 . S
C246 H237 0.930 . S
C246 C244 1.378 . S
C246 C247 1.367 . S
C247 C246 1.367 . S
C247 C249 1.433 . S
C248 C244 1.350 . S
C248 C245 1.463 . S
C248 N252 1.427 . S
C249 H239 0.929 . S
C249 C247 1.433 . S
C249 N252 1.384 . S
C250 H241 0.929 . S
C250 C242 1.378 . S
C250 C245 1.350 . S
C251 H238 0.929 . S
C251 C243 1.433 . S
C251 N253 1.384 . S
N252 C248 1.427 . S
N252 C249 1.384 . S
N253 C245 1.427 . S
N253 C251 1.384 . S
H254 C260 0.930 . S
H255 C264 0.930 . S
H256 C269 0.929 . S
H257 C267 0.929 . S
H258 C262 0.929 . S
H259 C268 0.929 . S
C260 H254 0.930 . S
C260 C261 1.367 . S
C260 C268 1.378 . S
C261 C260 1.367 . S
C261 C269 1.433 . S
C262 H258 0.929 . S
C262 C264 1.378 . S
C262 C266 1.350 . S
C263 C266 1.463 . S
C263 C268 1.350 . S
C263 N271 1.427 . S
C264 H255 0.930 . S
C264 C262 1.378 . S
C264 C265 1.367 . S
C265 C264 1.367 . S
C265 C267 1.433 . S
C266 C262 1.350 . S
C266 C263 1.463 . S
C266 N270 1.427 . S
C267 H257 0.929 . S
C267 C265 1.433 . S
C267 N270 1.384 . S
C268 H259 0.929 . S
C268 C260 1.378 . S
C268 C263 1.350 . S
C269 H256 0.929 . S
C269 C261 1.433 . S
C269 N271 1.384 . S
N270 C266 1.427 . S
N270 C267 1.384 . S
N271 C263 1.427 . S
N271 C269 1.384 . S
H272 C278 0.930 . S
H273 C282 0.930 . S
H274 C287 0.929 . S
H275 C285 0.929 1_455 S
H276 C280 0.929 . S
H277 C286 0.929 . S
C278 H272 0.930 . S
C278 C279 1.367 . S
C278 C286 1.378 . S
C279 C278 1.367 . S
C279 C287 1.433 . S
C280 H276 0.929 . S
C280 C282 1.378 . S
C280 C284 1.350 . S
C281 C284 1.463 . S
C281 C286 1.350 . S
C281 N289 1.427 . S
C282 H273 0.930 . S
C282 C280 1.378 . S
C282 C283 1.367 . S
C283 C282 1.367 . S
C283 C285 1.433 . S
C284 C280 1.350 . S
C284 C281 1.463 . S
C284 N288 1.427 . S
C285 H275 0.929 1_655 S
C285 C283 1.433 . S
C285 N288 1.384 . S
C286 H277 0.929 . S
C286 C278 1.378 . S
C286 C281 1.350 . S
C287 H274 0.929 . S
C287 C279 1.433 . S
C287 N289 1.384 . S
N288 C284 1.427 . S
N288 C285 1.384 . S
N289 C281 1.427 . S
N289 C287 1.384 . S
H290 C296 0.930 1_454 S
H291 C300 0.930 . S
H292 C305 0.929 . S
H293 C303 0.929 . S
H294 C298 0.908 1_655 S
H295 C304 0.929 . S
C296 H290 0.930 1_656 S
C296 C297 1.367 . S
C296 C304 1.378 1_655 S
C297 C296 1.367 . S
C297 C305 1.433 . S
C298 H294 0.908 1_455 S
C298 C300 1.378 . S
C298 C302 1.350 . S
C299 C302 1.463 . S
C299 C304 1.350 . S
C299 N307 1.427 1_455 S
C300 H291 0.930 . S
C300 C298 1.378 . S
C300 C301 1.367 . S
C301 C300 1.367 . S
C301 C303 1.433 . S
C302 C298 1.350 . S
C302 C299 1.463 . S
C302 N306 1.427 . S
C303 H293 0.929 . S
C303 C301 1.433 . S
C303 N306 1.384 . S
C304 H295 0.929 . S
C304 C296 1.378 1_455 S
C304 C299 1.350 . S
C305 H292 0.929 . S
C305 C297 1.433 . S
C305 N307 1.384 . S
N306 C302 1.427 . S
N306 C303 1.384 . S
N307 C299 1.427 1_655 S
N307 C305 1.384 . S
H308 C314 0.930 . S
H309 C318 0.930 . S
H310 C323 0.929 . S
H311 C321 0.929 . S
H312 C316 0.929 . S
H313 C322 0.929 . S
C314 H308 0.930 . S
C314 C315 1.367 . S
C314 C322 1.378 . S
C315 C314 1.367 . S
C315 C323 1.433 . S
C316 H312 0.929 . S
C316 C318 1.378 . S
C316 C320 1.350 . S
C317 C320 1.463 . S
C317 C322 1.350 . S
C317 N325 1.427 . S
C318 H309 0.930 . S
C318 C316 1.378 . S
C318 C319 1.367 . S
C319 C318 1.367 . S
C319 C321 1.433 . S
C320 C316 1.350 . S
C320 C317 1.463 . S
C320 N324 1.427 . S
C321 H311 0.929 . S
C321 C319 1.433 . S
C321 N324 1.384 . S
C322 H313 0.929 . S
C322 C314 1.378 . S
C322 C317 1.350 . S
C323 H310 0.929 . S
C323 C315 1.433 . S
C323 N325 1.384 . S
N324 C320 1.427 . S
N324 C321 1.384 . S
N325 C317 1.427 . S
N325 C323 1.384 . S
H326 C332 0.930 . S
H327 C336 0.930 . S
H328 C341 0.929 . S
H329 C339 0.929 . S
H330 C334 0.929 . S
H331 C340 0.929 . S
C332 H326 0.930 . S
C332 C333 1.367 . S
C332 C340 1.378 . S
C333 C332 1.367 . S
C333 C341 1.433 . S
C334 H330 0.929 . S
C334 C336 1.378 . S
C334 C338 1.350 . S
C335 C338 1.463 . S
C335 C340 1.350 . S
C335 N343 1.427 . S
C336 H327 0.930 . S
C336 C334 1.378 . S
C336 C337 1.367 . S
C337 C336 1.367 . S
C337 C339 1.433 . S
C338 C334 1.350 . S
C338 C335 1.463 . S
C338 N342 1.427 . S
C339 H329 0.929 . S
C339 C337 1.433 . S
C339 N342 1.384 . S
C340 H331 0.929 . S
C340 C332 1.378 . S
C340 C335 1.350 . S
C341 H328 0.929 . S
C341 C333 1.433 . S
C341 N343 1.384 . S
N342 C338 1.427 . S
N342 C339 1.384 . S
N343 C335 1.427 . S
N343 C341 1.384 . S
H344 C350 0.930 . S
H345 C354 0.930 . S
H346 C359 0.929 . S
H347 C357 0.929 . S
H348 C352 0.929 1_455 S
H349 C358 0.929 . S
C350 H344 0.930 . S
C350 C351 1.367 . S
C350 C358 1.378 1_565 S
C351 C350 1.367 . S
C351 C359 1.433 . S
C352 H348 0.929 1_655 S
C352 C354 1.378 1_655 S
C352 C356 1.350 . S
C353 C356 1.463 . S
C353 C358 1.350 . S
C353 N361 1.427 1_545 S
C354 H345 0.930 . S
C354 C352 1.378 1_455 S
C354 C355 1.367 1_455 S
C355 C354 1.367 1_655 S
C355 C357 1.433 . S
C356 C352 1.350 . S
C356 C353 1.463 . S
C356 N360 1.427 . S
C357 H347 0.929 . S
C357 C355 1.433 . S
C357 N360 1.384 . S
C358 H349 0.929 . S
C358 C350 1.378 1_545 S
C358 C353 1.350 . S
C359 H346 0.929 . S
C359 C351 1.433 . S
C359 N361 1.384 . S
N360 C356 1.427 . S
N360 C357 1.384 . S
N361 C353 1.427 1_565 S
N361 C359 1.384 . S
H362 C368 0.930 . S
H363 C372 0.930 . S
H364 C377 0.929 . S
H365 C375 0.929 . S
H366 C370 0.929 . S
H367 C376 0.929 . S
C368 H362 0.930 . S
C368 C369 1.367 . S
C368 C376 1.378 . S
C369 C368 1.367 . S
C369 C377 1.433 . S
C370 H366 0.929 . S
C370 C372 1.378 . S
C370 C374 1.350 . S
C371 C374 1.463 . S
C371 C376 1.350 . S
C371 N379 1.427 . S
C372 H363 0.930 . S
C372 C370 1.378 . S
C372 C373 1.367 . S
C373 C372 1.367 . S
C373 C375 1.433 . S
C374 C370 1.350 . S
C374 C371 1.463 . S
C374 N378 1.427 . S
C375 H365 0.929 . S
C375 C373 1.433 . S
C375 N378 1.384 . S
C376 H367 0.929 . S
C376 C368 1.378 . S
C376 C371 1.350 . S
C377 H364 0.929 . S
C377 C369 1.433 . S
C377 N379 1.384 . S
N378 C374 1.427 . S
N378 C375 1.384 . S
N379 C371 1.427 . S
N379 C377 1.384 . S
H380 C386 0.930 . S
H381 C390 0.930 . S
H382 C395 0.929 . S
H383 C393 0.929 . S
H384 C388 0.929 . S
H385 C394 0.929 . S
C386 H380 0.930 . S
C386 C387 1.367 . S
C386 C394 1.378 . S
C387 C386 1.367 . S
C387 C395 1.433 . S
C388 H384 0.929 . S
C388 C390 1.378 . S
C388 C392 1.350 . S
C389 C392 1.463 . S
C389 C394 1.350 . S
C389 N397 1.427 . S
C390 H381 0.930 . S
C390 C388 1.378 . S
C390 C391 1.367 . S
C391 C390 1.367 . S
C391 C393 1.433 . S
C392 C388 1.350 . S
C392 C389 1.463 . S
C392 N396 1.427 . S
C393 H383 0.929 . S
C393 C391 1.433 . S
C393 N396 1.384 . S
C394 H385 0.929 . S
C394 C386 1.378 . S
C394 C389 1.350 . S
C395 H382 0.929 . S
C395 C387 1.433 . S
C395 N397 1.384 . S
N396 C392 1.427 . S
N396 C393 1.384 . S
N397 C389 1.427 . S
N397 C395 1.384 . S
H398 C404 0.930 . S
H399 C408 0.930 . S
H400 C413 0.929 . S
H401 C411 0.929 . S
H402 C406 0.929 . S
H403 C412 0.929 . S
C404 H398 0.930 . S
C404 C405 1.367 . S
C404 C412 1.378 . S
C405 C404 1.367 . S
C405 C413 1.433 . S
C406 H402 0.929 . S
C406 C408 1.378 . S
C406 C410 1.350 . S
C407 C410 1.463 . S
C407 C412 1.350 . S
C407 N415 1.427 . S
C408 H399 0.930 . S
C408 C406 1.378 . S
C408 C409 1.367 . S
C409 C408 1.367 . S
C409 C411 1.433 . S
C410 C406 1.350 . S
C410 C407 1.463 . S
C410 N414 1.427 . S
C411 H401 0.929 . S
C411 C409 1.433 . S
C411 N414 1.384 . S
C412 H403 0.929 . S
C412 C404 1.378 . S
C412 C407 1.350 . S
C413 H400 0.929 . S
C413 C405 1.433 . S
C413 N415 1.384 . S
N414 C410 1.427 . S
N414 C411 1.384 . S
N415 C407 1.427 . S
N415 C413 1.384 . S
H416 C422 0.930 . S
H417 C426 0.930 . S
H418 C431 0.929 . S
H419 C429 0.929 . S
H420 C424 0.929 . S
H421 C430 0.929 . S
C422 H416 0.930 . S
C422 C423 1.367 . S
C422 C430 1.378 . S
C423 C422 1.367 . S
C423 C431 1.433 . S
C424 H420 0.929 . S
C424 C426 1.378 . S
C424 C428 1.350 . S
C425 C428 1.463 . S
C425 C430 1.350 . S
C425 N433 1.427 . S
C426 H417 0.930 . S
C426 C424 1.378 . S
C426 C427 1.367 . S
C427 C426 1.367 . S
C427 C429 1.433 . S
C428 C424 1.350 . S
C428 C425 1.463 . S
C428 N432 1.427 . S
C429 H419 0.929 . S
C429 C427 1.433 . S
C429 N432 1.384 . S
C430 H421 0.929 . S
C430 C422 1.378 . S
C430 C425 1.350 . S
C431 H418 0.929 . S
C431 C423 1.433 . S
C431 N433 1.384 . S
N432 C428 1.427 . S
N432 C429 1.384 . S
N433 C425 1.427 . S
N433 C431 1.384 . S
H434 C440 0.930 . S
H435 C444 0.930 . S
H436 C449 0.929 . S
H437 C447 0.929 . S
H438 C442 0.929 . S
H439 C448 0.929 . S
C440 H434 0.930 . S
C440 C441 1.367 . S
C440 C448 1.378 . S
C441 C440 1.367 . S
C441 C449 1.433 . S
C442 H438 0.929 . S
C442 C444 1.378 . S
C442 C446 1.350 . S
C443 C446 1.463 . S
C443 C448 1.350 . S
C443 N451 1.427 . S
C444 H435 0.930 . S
C444 C442 1.378 . S
C444 C445 1.367 . S
C445 C444 1.367 . S
C445 C447 1.433 . S
C446 C442 1.350 . S
C446 C443 1.463 . S
C446 N450 1.427 . S
C447 H437 0.929 . S
C447 C445 1.433 . S
C447 N450 1.384 . S
C448 H439 0.929 . S
C448 C440 1.378 . S
C448 C443 1.350 . S
C449 H436 0.929 . S
C449 C441 1.433 . S
C449 N451 1.384 . S
N450 C446 1.427 . S
N450 C447 1.384 . S
N451 C443 1.427 . S
N451 C449 1.384 . S
H452 C458 0.930 . S
H453 C462 0.930 . S
H454 C467 0.929 . S
H455 C465 0.929 . S
H456 C460 0.929 . S
H457 C466 0.929 . S
C458 H452 0.930 . S
C458 C459 1.367 . S
C458 C466 1.378 . S
C459 C458 1.367 . S
C459 C467 1.433 . S
C460 H456 0.929 . S
C460 C462 1.378 . S
C460 C464 1.350 . S
C461 C464 1.463 . S
C461 C466 1.350 . S
C461 N469 1.427 . S
C462 H453 0.930 . S
C462 C460 1.378 . S
C462 C463 1.367 . S
C463 C462 1.367 . S
C463 C465 1.433 . S
C464 C460 1.350 . S
C464 C461 1.463 . S
C464 N468 1.427 . S
C465 H455 0.929 . S
C465 C463 1.433 . S
C465 N468 1.384 . S
C466 H457 0.929 . S
C466 C458 1.378 . S
C466 C461 1.350 . S
C467 H454 0.929 . S
C467 C459 1.433 . S
C467 N469 1.384 . S
N468 C464 1.427 . S
N468 C465 1.384 . S
N469 C461 1.427 . S
N469 C467 1.384 . S
H470 C476 0.930 . S
H471 C480 0.930 1_455 S
H472 C485 0.929 . S
H473 C483 0.929 . S
H474 C478 0.929 . S
H475 C484 0.929 . S
C476 H470 0.930 . S
C476 C477 1.367 . S
C476 C484 1.378 . S
C477 C476 1.367 . S
C477 C485 1.433 . S
C478 H474 0.929 . S
C478 C480 1.378 . S
C478 C482 1.350 . S
C479 C482 1.463 . S
C479 C484 1.350 . S
C479 N487 1.427 . S
C480 H471 0.930 1_655 S
C480 C478 1.378 . S
C480 C481 1.367 . S
C481 C480 1.367 . S
C481 C483 1.433 . S
C482 C478 1.350 . S
C482 C479 1.463 . S
C482 N486 1.427 . S
C483 H473 0.929 . S
C483 C481 1.433 . S
C483 N486 1.384 . S
C484 H475 0.929 . S
C484 C476 1.378 . S
C484 C479 1.350 . S
C485 H472 0.929 . S
C485 C477 1.433 . S
C485 N487 1.384 . S
N486 C482 1.427 . S
N486 C483 1.384 . S
N487 C479 1.427 . S
N487 C485 1.384 . S
H488 C494 0.930 . S
H489 C498 0.930 . S
H490 C503 0.929 . S
H491 C501 0.929 . S
H492 C496 0.929 . S
H493 C502 0.929 . S
C494 H488 0.930 . S
C494 C495 1.367 . S
C494 C502 1.378 . S
C495 C494 1.367 . S
C495 C503 1.433 . S
C496 H492 0.929 . S
C496 C498 1.378 . S
C496 C500 1.350 . S
C497 C500 1.463 . S
C497 C502 1.350 . S
C497 N505 1.427 . S
C498 H489 0.930 . S
C498 C496 1.378 . S
C498 C499 1.367 . S
C499 C498 1.367 . S
C499 C501 1.433 . S
C500 C496 1.350 . S
C500 C497 1.463 . S
C500 N504 1.427 . S
C501 H491 0.929 . S
C501 C499 1.433 . S
C501 N504 1.384 . S
C502 H493 0.929 . S
C502 C494 1.378 . S
C502 C497 1.350 . S
C503 H490 0.929 . S
C503 C495 1.433 . S
C503 N505 1.384 . S
N504 C500 1.427 . S
N504 C501 1.384 . S
N505 C497 1.427 . S
N505 C503 1.384 . S
H506 C512 0.930 . S
H507 C516 0.930 . S
H508 C521 0.929 . S
H509 C519 0.929 . S
H510 C514 0.929 . S
H511 C520 0.929 . S
C512 H506 0.930 . S
C512 C513 1.367 . S
C512 C520 1.378 . S
C513 C512 1.367 . S
C513 C521 1.433 . S
C514 H510 0.929 . S
C514 C516 1.378 . S
C514 C518 1.350 . S
C515 C518 1.463 . S
C515 C520 1.350 . S
C515 N523 1.427 . S
C516 H507 0.930 . S
C516 C514 1.378 . S
C516 C517 1.367 . S
C517 C516 1.367 . S
C517 C519 1.433 . S
C518 C514 1.350 . S
C518 C515 1.463 . S
C518 N522 1.427 . S
C519 H509 0.929 . S
C519 C517 1.433 . S
C519 N522 1.384 . S
C520 H511 0.929 . S
C520 C512 1.378 . S
C520 C515 1.350 . S
C521 H508 0.929 . S
C521 C513 1.433 . S
C521 N523 1.384 . S
N522 C518 1.427 . S
N522 C519 1.384 . S
N523 C515 1.427 . S
N523 C521 1.384 . S
H524 C530 0.930 . S
H525 C534 0.930 . S
H526 C539 0.929 . S
H527 C537 0.936 1_655 S
H528 C532 0.929 . S
H529 C538 0.929 . S
C530 H524 0.930 . S
C530 C531 1.367 . S
C530 C538 1.378 . S
C531 C530 1.367 . S
C531 C539 1.433 1_655 S
C532 H528 0.929 . S
C532 C534 1.378 . S
C532 C536 1.350 . S
C533 C536 1.462 1_665 S
C533 C538 1.350 . S
C533 N541 1.428 1_665 S
C534 H525 0.930 . S
C534 C532 1.378 . S
C534 C535 1.367 . S
C535 C534 1.367 . S
C535 C537 1.430 . S
C536 C532 1.350 . S
C536 C533 1.462 1_445 S
C536 N540 1.427 1_455 S
C537 H527 0.936 1_455 S
C537 C535 1.430 . S
C537 N540 1.381 1_455 S
C538 H529 0.929 . S
C538 C530 1.378 . S
C538 C533 1.350 . S
C539 H526 0.929 . S
C539 C531 1.433 1_455 S
C539 N541 1.384 1_565 S
N540 C536 1.427 1_655 S
N540 C537 1.381 1_655 S
N541 C533 1.428 1_445 S
N541 C539 1.384 1_545 S
H542 C548 0.930 . S
H543 C552 0.930 . S
H544 C557 0.929 . S
H545 C555 0.929 . S
H546 C550 0.929 . S
H547 C556 0.929 . S
C548 H542 0.930 . S
C548 C549 1.367 . S
C548 C556 1.378 . S
C549 C548 1.367 . S
C549 C557 1.433 . S
C550 H546 0.929 . S
C550 C552 1.378 . S
C550 C554 1.350 . S
C551 C554 1.463 . S
C551 C556 1.350 . S
C551 N559 1.427 . S
C552 H543 0.930 . S
C552 C550 1.378 . S
C552 C553 1.367 . S
C553 C552 1.367 . S
C553 C555 1.433 . S
C554 C550 1.350 . S
C554 C551 1.463 . S
C554 N558 1.427 . S
C555 H545 0.929 . S
C555 C553 1.433 . S
C555 N558 1.384 . S
C556 H547 0.929 . S
C556 C548 1.378 . S
C556 C551 1.350 . S
C557 H544 0.929 . S
C557 C549 1.433 . S
C557 N559 1.384 . S
N558 C554 1.427 . S
N558 C555 1.384 . S
N559 C551 1.427 . S
N559 C557 1.384 . S
H560 C566 0.930 . S
H561 C570 0.930 . S
H562 C575 0.929 . S
H563 C573 0.929 . S
H564 C568 0.929 . S
H565 C574 0.929 . S
C566 H560 0.930 . S
C566 C567 1.367 . S
C566 C574 1.378 . S
C567 C566 1.367 . S
C567 C575 1.433 . S
C568 H564 0.929 . S
C568 C570 1.378 . S
C568 C572 1.350 . S
C569 C572 1.463 . S
C569 C574 1.350 . S
C569 N577 1.427 . S
C570 H561 0.930 . S
C570 C568 1.378 . S
C570 C571 1.367 . S
C571 C570 1.367 . S
C571 C573 1.433 . S
C572 C568 1.350 . S
C572 C569 1.463 . S
C572 N576 1.427 . S
C573 H563 0.929 . S
C573 C571 1.433 . S
C573 N576 1.384 . S
C574 H565 0.929 . S
C574 C566 1.378 . S
C574 C569 1.350 . S
C575 H562 0.929 . S
C575 C567 1.433 . S
C575 N577 1.384 . S
N576 C572 1.427 . S
N576 C573 1.384 . S
N577 C569 1.427 . S
N577 C575 1.384 . S
H578 C584 0.930 . S
H579 C588 0.930 . S
H580 C593 0.929 . S
H581 C591 0.929 . S
H582 C586 0.929 . S
H583 C592 0.929 . S
C584 H578 0.930 . S
C584 C585 1.367 . S
C584 C592 1.378 . S
C585 C584 1.367 . S
C585 C593 1.433 . S
C586 H582 0.929 . S
C586 C588 1.378 . S
C586 C590 1.350 . S
C587 C590 1.463 . S
C587 C592 1.350 . S
C587 N595 1.427 . S
C588 H579 0.930 . S
C588 C586 1.378 . S
C588 C589 1.367 . S
C589 C588 1.367 . S
C589 C591 1.433 . S
C590 C586 1.350 . S
C590 C587 1.463 . S
C590 N594 1.427 . S
C591 H581 0.929 . S
C591 C589 1.433 . S
C591 N594 1.384 . S
C592 H583 0.929 . S
C592 C584 1.378 . S
C592 C587 1.350 . S
C593 H580 0.929 . S
C593 C585 1.433 . S
C593 N595 1.384 . S
N594 C590 1.427 . S
N594 C591 1.384 . S
N595 C587 1.427 . S
N595 C593 1.384 . S
H596 C602 0.930 . S
H597 C606 0.930 . S
H598 C611 0.929 . S
H599 C609 0.929 . S
H600 C604 0.929 . S
H601 C610 0.929 . S
C602 H596 0.930 . S
C602 C603 1.367 . S
C602 C610 1.378 . S
C603 C602 1.367 . S
C603 C611 1.433 . S
C604 H600 0.929 . S
C604 C606 1.378 . S
C604 C608 1.350 . S
C605 C608 1.463 . S
C605 C610 1.350 . S
C605 N613 1.427 . S
C606 H597 0.930 . S
C606 C604 1.378 . S
C606 C607 1.367 . S
C607 C606 1.367 . S
C607 C609 1.433 . S
C608 C604 1.350 . S
C608 C605 1.463 . S
C608 N612 1.427 . S
C609 H599 0.929 . S
C609 C607 1.433 . S
C609 N612 1.384 . S
C610 H601 0.929 . S
C610 C602 1.378 . S
C610 C605 1.350 . S
C611 H598 0.929 . S
C611 C603 1.433 . S
C611 N613 1.384 . S
N612 C608 1.427 . S
N612 C609 1.384 . S
N613 C605 1.427 . S
N613 C611 1.384 . S
H614 C620 0.930 . S
H615 C624 0.930 . S
H616 C629 0.929 . S
H617 C627 0.929 1_554 S
H618 C622 0.929 . S
H619 C628 0.929 . S
C620 H614 0.930 . S
C620 C621 1.367 . S
C620 C628 1.378 . S
C621 C620 1.367 . S
C621 C629 1.433 . S
C622 H618 0.929 . S
C622 C624 1.378 1_556 S
C622 C626 1.350 . S
C623 C626 1.463 . S
C623 C628 1.350 . S
C623 N631 1.427 . S
C624 H615 0.930 . S
C624 C622 1.378 1_554 S
C624 C625 1.367 . S
C625 C624 1.367 . S
C625 C627 1.433 1_554 S
C626 C622 1.350 . S
C626 C623 1.463 . S
C626 N630 1.427 . S
C627 H617 0.929 1_556 S
C627 C625 1.433 1_556 S
C627 N630 1.384 . S
C628 H619 0.929 . S
C628 C620 1.378 . S
C628 C623 1.350 . S
C629 H616 0.929 . S
C629 C621 1.433 . S
C629 N631 1.384 . S
N630 C626 1.427 . S
N630 C627 1.384 . S
N631 C623 1.427 . S
N631 C629 1.384 . S
H632 C638 0.930 . S
H633 C642 0.930 . S
H634 C647 0.929 . S
H635 C645 0.929 . S
H636 C640 0.929 . S
H637 C646 0.929 . S
C638 H632 0.930 . S
C638 C639 1.367 . S
C638 C646 1.378 . S
C639 C638 1.367 . S
C639 C647 1.433 . S
C640 H636 0.929 . S
C640 C642 1.378 . S
C640 C644 1.350 . S
C641 C644 1.463 . S
C641 C646 1.350 . S
C641 N649 1.427 . S
C642 H633 0.930 . S
C642 C640 1.378 . S
C642 C643 1.367 . S
C643 C642 1.367 . S
C643 C645 1.433 . S
C644 C640 1.350 . S
C644 C641 1.463 . S
C644 N648 1.427 . S
C645 H635 0.929 . S
C645 C643 1.433 . S
C645 N648 1.384 . S
C646 H637 0.929 . S
C646 C638 1.378 . S
C646 C641 1.350 . S
C647 H634 0.929 . S
C647 C639 1.433 . S
C647 N649 1.384 . S
N648 C644 1.427 . S
N648 C645 1.384 . S
N649 C641 1.427 . S
N649 C647 1.384 . S
H650 C656 0.930 . S
H651 C660 0.930 . S
H652 C665 0.929 . S
H653 C663 0.929 . S
H654 C658 0.929 . S
H655 C664 0.929 . S
C656 H650 0.930 . S
C656 C657 1.367 . S
C656 C664 1.378 . S
C657 C656 1.367 . S
C657 C665 1.433 . S
C658 H654 0.929 . S
C658 C660 1.378 . S
C658 C662 1.350 . S
C659 C662 1.463 . S
C659 C664 1.350 . S
C659 N667 1.427 . S
C660 H651 0.930 . S
C660 C658 1.378 . S
C660 C661 1.367 . S
C661 C660 1.367 . S
C661 C663 1.433 . S
C662 C658 1.350 . S
C662 C659 1.463 . S
C662 N666 1.427 . S
C663 H653 0.929 . S
C663 C661 1.433 . S
C663 N666 1.384 . S
C664 H655 0.929 . S
C664 C656 1.378 . S
C664 C659 1.350 . S
C665 H652 0.929 . S
C665 C657 1.433 . S
C665 N667 1.384 . S
N666 C662 1.427 . S
N666 C663 1.384 . S
N667 C659 1.427 . S
N667 C665 1.384 . S
C247 C164 1.479 . S
C243 C11 1.353 . S
C265 C167 1.770 . S
C261 C25 1.741 . S
C283 C165 1.282 1_655 S
C279 C40 1.238 . S
C301 C166 1.349 . S
C297 C59 1.287 . S
C319 C181 1.831 . S
C315 C6 1.822 . S
C337 C195 1.861 . S
C333 C21 1.806 . S
C351 C49 1.498 . S
C355 C221 1.597 . S
C373 C235 1.511 . S
C369 C68 1.398 . S
C391 C180 1.813 . S
C387 C30 1.594 . S
C405 C44 1.647 . S
C409 C194 1.641 . S
C427 C220 1.601 . S
C423 C63 1.600 . S
C445 C234 1.672 . S
C441 C2 1.653 . S
C459 C78 1.760 1_455 S
C463 C179 1.772 . S
C481 C152 1.650 . S
C477 C97 1.573 . S
C495 C120 1.661 . S
C499 C178 1.672 . S
C513 C139 1.606 . S
C517 C153 1.618 . S
C535 C208 1.462 . S
C531 C87 1.380 . S
C553 C222 1.581 . S
C549 C101 1.538 . S
C571 C192 1.597 . S
C567 C125 1.492 . S
C585 C144 1.659 . S
C589 C206 1.708 . S
C607 C209 1.719 . S
C603 C106 1.493 . S
C625 C223 1.614 . S
C621 C116 1.585 . S
C643 C193 1.671 . S
C639 C135 1.645 . S
C657 C82 1.824 . S
C661 C207 1.801 . S
