# Generated by pormake.
# Topology anh, (6,3)-cn, num edge types: 1
# Building blocks:
#     Node 0, Type 0, BuildingBlock: GEDQOX_clean_sbu_0, # of connection points: 6
#     Node 1, Type 0, BuildingBlock: GEDQOX_clean_sbu_0, # of connection points: 6
#     Node 2, Type 0, BuildingBlock: GEDQOX_clean_sbu_0, # of connection points: 6
#     Node 3, Type 1, BuildingBlock: QEWDON_clean_linker_0, # of connection points: 3
#     Node 4, Type 1, BuildingBlock: QEWDON_clean_linker_0, # of connection points: 3
#     Node 5, Type 1, BuildingBlock: QEWDON_clean_linker_0, # of connection points: 3
#     Node 6, Type 1, BuildingBlock: QEWDON_clean_linker_0, # of connection points: 3
#     Node 7, Type 1, BuildingBlock: QEWDON_clean_linker_0, # of connection points: 3
#     Node 8, Type 1, BuildingBlock: QEWDON_clean_linker_0, # of connection points: 3
#     Edge 9, Type (0, 1), BuildingBlock: ZUJKAS_clean_linker_0, # of connection points: 2
#     Edge 10, Type (0, 1), BuildingBlock: ZUJKAS_clean_linker_0, # of connection points: 2
#     Edge 11, Type (0, 1), BuildingBlock: ZUJKAS_clean_linker_0, # of connection points: 2
#     Edge 12, Type (0, 1), BuildingBlock: ZUJKAS_clean_linker_0, # of connection points: 2
#     Edge 13, Type (0, 1), BuildingBlock: ZUJKAS_clean_linker_0, # of connection points: 2
#     Edge 14, Type (0, 1), BuildingBlock: ZUJKAS_clean_linker_0, # of connection points: 2
#     Edge 15, Type (0, 1), BuildingBlock: ZUJKAS_clean_linker_0, # of connection points: 2
#     Edge 16, Type (0, 1), BuildingBlock: ZUJKAS_clean_linker_0, # of connection points: 2
#     Edge 17, Type (0, 1), BuildingBlock: ZUJKAS_clean_linker_0, # of connection points: 2
#     Edge 18, Type (0, 1), BuildingBlock: ZUJKAS_clean_linker_0, # of connection points: 2
#     Edge 19, Type (0, 1), BuildingBlock: ZUJKAS_clean_linker_0, # of connection points: 2
#     Edge 20, Type (0, 1), BuildingBlock: ZUJKAS_clean_linker_0, # of connection points: 2
#     Edge 21, Type (0, 1), BuildingBlock: ZUJKAS_clean_linker_0, # of connection points: 2
#     Edge 22, Type (0, 1), BuildingBlock: ZUJKAS_clean_linker_0, # of connection points: 2
#     Edge 23, Type (0, 1), BuildingBlock: ZUJKAS_clean_linker_0, # of connection points: 2
#     Edge 24, Type (0, 1), BuildingBlock: ZUJKAS_clean_linker_0, # of connection points: 2
#     Edge 25, Type (0, 1), BuildingBlock: ZUJKAS_clean_linker_0, # of connection points: 2
#     Edge 26, Type (0, 1), BuildingBlock: ZUJKAS_clean_linker_0, # of connection points: 2
# Relax obj value: 0.105
# Max RMSD: 0.167
# Mean RMSD: 0.123
data_MOF--net-anh--node1-GEDQOX_clean_sbu_0--node2-QEWDON_clean_linker_0--edge1-ZUJKAS_clean_linker_0
_symmetry_space_group_name_H-M    P1
_symmetry_Int_Tables_number       1
_symmetry_cell_setting            triclinic
loop_
_symmetry_equiv_pos_as_xyz
'x, y, z'
_cell_length_a     40.979293
_cell_length_b     39.982433
_cell_length_c     62.480597
_cell_angle_alpha  97.225205
_cell_angle_beta   93.625976
_cell_angle_gamma 106.16547
loop_
_atom_site_label
_atom_site_type_symbol
_atom_site_fract_x
_atom_site_fract_y
_atom_site_fract_z
_atom_type_partial_charge
Nd0 Nd 0.09902 0.59701 0.14787 0.0
Nd1 Nd 0.08041 0.51945 0.15174 0.0
C2 C 0.12466 0.66056 0.13748 0.0
C3 C 0.1584 0.68672 0.14016 0.0
C4 C 0.16551 0.71254 0.12654 0.0
C5 C 0.19744 0.73778 0.12905 0.0
C6 C 0.22281 0.73768 0.14532 0.0
C7 C 0.21562 0.71128 0.15873 0.0
C8 C 0.18375 0.68595 0.1561 0.0
C9 C 0.09141 0.58219 0.18909 0.0
C10 C 0.16135 0.55775 0.15148 0.0
C11 C 1.05624 0.45599 0.16262 0.0
C12 C 1.02355 0.43198 0.16662 0.0
C13 C 0.9987 0.44462 0.17666 0.0
C14 C 0.9679 0.42112 0.18033 0.0
C15 C 0.96135 0.38467 0.17383 0.0
C16 C 0.98626 0.37224 0.16367 0.0
C17 C 1.01709 0.3957 0.16015 0.0
C18 C 0.08791 0.53485 0.11053 0.0
C19 C 1.01837 0.55824 0.14661 0.0
O20 O 0.12155 0.63157 0.12423 0.0
O21 O 0.11008 0.6549 0.15525 0.0
O22 O 0.08068 0.60632 0.18141 0.0
O23 O 0.10677 0.56779 0.17557 0.0
O24 O 0.15175 0.58518 0.14653 0.0
O25 O 0.1388 0.52975 0.15646 0.0
O26 O 0.06913 0.48451 0.1768 0.0
O27 O 1.05955 0.46153 0.14259 0.0
O28 O 0.0985 0.51032 0.11789 0.0
O29 O 0.07282 0.54888 0.12437 0.0
O30 O 1.02826 0.53261 0.15419 0.0
O31 O 1.04087 0.58437 0.13974 0.0
H32 H 0.14632 0.71323 0.11398 0.0
H33 H 0.20227 0.75729 0.11819 0.0
H34 H 0.23433 0.7106 0.17158 0.0
H35 H 0.17877 0.66596 0.16666 0.0
H36 H 1.00305 0.4726 0.18162 0.0
H37 H 0.94902 0.43148 0.18795 0.0
H38 H 0.98208 0.34431 0.15867 0.0
H39 H 1.03596 0.38548 0.15239 0.0
Nd40 Nd 0.57682 0.03689 0.51178 0.0
Nd41 Nd 0.6509 0.05533 0.50125 0.0
C42 C 0.51758 0.0119 0.52724 0.0
C43 C 0.4912 0.9778 0.52478 0.0
C44 C 0.46126 0.97488 0.53494 0.0
C45 C 0.43556 0.94276 0.53217 0.0
C46 C 0.43944 0.91291 0.51919 0.0
C47 C 0.46982 0.91599 0.50924 0.0
C48 C 0.49539 0.94818 0.51195 0.0
C49 C 0.58516 0.04004 0.46886 0.0
C50 C 0.6147 0.97349 0.50286 0.0
C51 C 0.70995 0.08058 0.48564 0.0
C52 C 0.73279 0.11496 0.48251 0.0
C53 C 0.7203 0.14002 0.47346 0.0
C54 C 0.74264 0.17253 0.4709 0.0
C55 C 0.77776 0.18068 0.47755 0.0
C56 C 0.79008 0.1555 0.48658 0.0
C57 C 0.76783 0.12297 0.48897 0.0
C58 C 0.64214 0.0518 0.54412 0.0
C59 C 0.6133 0.11828 0.51091 0.0
O60 O 0.54702 0.01348 0.53739 0.0
O61 O 0.52077 0.02756 0.51002 0.0
O62 O 0.56203 0.0506 0.47864 0.0
O63 O 0.60148 0.02642 0.48127 0.0
O64 O 0.58977 0.98411 0.51125 0.0
O65 O 0.64011 0.99539 0.49513 0.0
O66 O 0.68068 0.06879 0.47354 0.0
O67 O 0.70752 0.07483 0.5057 0.0
O68 O 0.66504 0.04076 0.53433 0.0
O69 O 0.6262 0.06575 0.53171 0.0
O70 O 0.63632 0.10726 0.50038 0.0
O71 O 0.5903 0.09664 0.52048 0.0
H72 H 0.45757 0.99758 0.54481 0.0
H73 H 0.41234 0.94155 0.53979 0.0
H74 H 0.47389 0.89351 0.49937 0.0
H75 H 0.51833 0.95006 0.50389 0.0
H76 H 0.6933 0.1346 0.46848 0.0
H77 H 0.73236 0.19154 0.46408 0.0
H78 H 0.81705 0.16084 0.49163 0.0
H79 H 0.77801 0.10401 0.49595 0.0
Nd80 Nd 0.57884 0.54012 0.81926 0.0
Nd81 Nd 0.64865 0.56762 0.84472 0.0
C82 C 0.52538 0.52992 0.79064 0.0
C83 C 0.50386 0.55155 0.78439 0.0
C84 C 0.48124 0.54046 0.76543 0.0
C85 C 0.45995 0.56059 0.75981 0.0
C86 C 0.4611 0.59214 0.77309 0.0
C87 C 0.48462 0.60355 0.79179 0.0
C88 C 0.5058 0.58342 0.79738 0.0
C89 C 0.57839 0.54201 0.86332 0.0
C90 C 0.61272 0.62602 0.83549 0.0
C91 C 0.70378 0.57437 0.87084 0.0
C92 C 0.72766 0.55307 0.86906 0.0
C93 C 0.75215 0.55514 0.88622 0.0
C94 C 0.77562 0.53565 0.88369 0.0
C95 C 0.77486 0.51413 0.86391 0.0
C96 C 0.74939 0.51118 0.8471 0.0
C97 C 0.72593 0.53038 0.84968 0.0
C98 C 0.64892 0.56579 0.80077 0.0
C99 C 0.61471 0.48137 0.82856 0.0
O100 O 0.55692 0.53994 0.7859 0.0
O101 O 0.523 0.52122 0.8101 0.0
O102 O 0.55804 0.51692 0.84933 0.0
O103 O 0.5965 0.56563 0.85399 0.0
O104 O 0.59235 0.60075 0.82087 0.0
O105 O 0.63396 0.61894 0.84985 0.0
O106 O 0.67311 0.55765 0.87502 0.0
O107 O 0.7034 0.59355 0.85537 0.0
O108 O 0.66905 0.59105 0.81468 0.0
O109 O 0.63118 0.54207 0.81016 0.0
O110 O 0.63656 0.50691 0.84223 0.0
O111 O 0.59161 0.48792 0.81538 0.0
H112 H 0.47973 0.51604 0.75514 0.0
H113 H 0.44234 0.55128 0.74521 0.0
H114 H 0.4858 0.62737 0.80258 0.0
H115 H 0.5232 0.59236 0.81209 0.0
H116 H 0.7536 0.57231 0.90133 0.0
H117 H 0.79525 0.53859 0.89682 0.0
H118 H 0.74815 0.49461 0.83177 0.0
H119 H 0.70686 0.52815 0.83633 0.0
H120 H 0.5998 0.10237 0.23994 0.0
C121 C 0.58151 0.07873 0.23126 0.0
C122 C 0.56748 0.0504 0.24237 0.0
C123 C 0.57022 0.07755 0.20935 0.0
H124 H 0.53174 0.99859 0.2396 0.0
C125 C 0.54284 0.0204 0.23111 0.0
C126 C 0.53125 0.01882 0.20931 0.0
C127 C 0.54529 0.04736 0.19851 0.0
C128 C 0.58254 0.10851 0.19799 0.0
H129 H 0.53659 0.04613 0.1816 0.0
C130 C 0.61751 0.12714 0.19958 0.0
C131 C 0.62883 0.15547 0.18793 0.0
C132 C 0.55902 0.11925 0.18511 0.0
H133 H 0.53192 0.1059 0.1839 0.0
C134 C 0.57012 0.14753 0.17379 0.0
H135 H 0.63594 0.11892 0.20927 0.0
C136 C 0.60477 0.16545 0.17508 0.0
H137 H 0.61274 0.18744 0.16619 0.0
H138 H 0.55178 0.15558 0.16396 0.0
H139 H 0.59657 0.57085 0.55983 0.0
C140 C 0.59906 0.54509 0.55401 0.0
C141 C 0.60981 0.52563 0.56887 0.0
C142 C 0.59035 0.53092 0.53187 0.0
H143 H 0.61838 0.47576 0.57276 0.0
C144 C 0.6114 0.49155 0.56137 0.0
C145 C 0.60316 0.47697 0.53945 0.0
C146 C 0.59347 0.49707 0.5247 0.0
C147 C 0.57495 0.54983 0.51669 0.0
H148 H 0.58714 0.48571 0.50775 0.0
C149 C 0.58542 0.58704 0.51841 0.0
C150 C 0.56861 0.60429 0.50495 0.0
C151 C 0.54791 0.53044 0.50098 0.0
H152 H 0.53841 0.50205 0.4995 0.0
C153 C 0.53187 0.5474 0.48736 0.0
H154 H 0.6061 0.6026 0.53037 0.0
C155 C 0.54198 0.58398 0.48934 0.0
H156 H 0.52893 0.59648 0.4786 0.0
H157 H 0.51112 0.53209 0.47538 0.0
H158 H 0.16375 0.66814 0.89642 0.0
C159 C 0.14624 0.64402 0.88767 0.0
C160 C 0.13355 0.61521 0.89852 0.0
C161 C 0.13639 0.64163 0.86548 0.0
H162 H 0.09857 0.5635 0.89616 0.0
C163 C 0.11013 0.58454 0.88721 0.0
C164 C 0.09903 0.58222 0.86519 0.0
C165 C 0.11318 0.61067 0.85426 0.0
C166 C 0.14954 0.67182 0.854 0.0
H167 H 0.10514 0.6094 0.83723 0.0
C168 C 0.17344 0.67046 0.83911 0.0
C169 C 0.18634 0.69899 0.82791 0.0
C170 C 0.13817 0.7018 0.85773 0.0
H171 H 0.11963 0.70317 0.86918 0.0
C172 C 0.15042 0.73006 0.84647 0.0
H173 H 0.18271 0.64751 0.83686 0.0
C174 C 0.1744 0.72876 0.83166 0.0
H175 H 0.18356 0.75102 0.82316 0.0
H176 H 0.14141 0.75308 0.84927 0.0
H177 H 1.05777 0.55704 0.42411 0.0
C178 C 0.08264 0.5729 0.4318 0.0
C179 C 0.10881 0.58674 0.41899 0.0
C180 C 0.08768 0.58138 0.45457 0.0
H181 H 0.16122 0.61853 0.41994 0.0
C182 C 0.1404 0.60845 0.42942 0.0
C183 C 0.14545 0.61825 0.45198 0.0
C184 C 0.11927 0.60403 0.46449 0.0
C185 C 1.05927 0.56888 0.46799 0.0
H186 H 0.1231 0.61153 0.48196 0.0
C187 C 1.03858 0.53359 0.46437 0.0
C188 C 1.01261 0.52191 0.47779 0.0
C189 C 1.05292 0.59249 0.48477 0.0
H190 H 0.06787 0.61993 0.48767 0.0
C191 C 1.02697 0.58111 0.49786 0.0
H192 H 1.04339 0.51502 0.45164 0.0
C193 C 1.00704 0.54607 0.49451 0.0
H194 H 0.98698 0.5379 0.50488 0.0
H195 H 1.02229 0.59955 0.51069 0.0
H196 H 0.59738 0.02104 0.77905 0.0
C197 C 0.60426 0.04866 0.78587 0.0
C198 C 0.61713 0.07421 0.77262 0.0
C199 C 0.59927 0.05868 0.80758 0.0
H200 H 0.63305 0.12965 0.77057 0.0
C201 C 0.62477 0.11001 0.78112 0.0
C202 C 0.61944 0.12071 0.80253 0.0
C203 C 0.60721 0.09493 0.81575 0.0
C204 C 0.58372 0.03155 0.8213 0.0
H205 H 0.60371 0.10326 0.83241 0.0
C206 C 0.59131 0.99896 0.81988 0.0
C207 C 0.57547 0.97321 0.83248 0.0
C208 C 0.56019 0.03791 0.83561 0.0
H209 H 0.55295 0.06208 0.83677 0.0
C210 C 0.54504 0.01287 0.84836 0.0
H211 H 0.60921 0.99346 0.8089 0.0
C212 C 0.55258 0.98083 0.84686 0.0
H213 H 0.54053 0.96202 0.8571 0.0
H214 H 0.52713 0.01823 0.85937 0.0
H215 H 0.56706 0.54754 0.10234 0.0
C216 C 0.59314 0.55158 0.10894 0.0
C217 C 0.61878 0.55671 0.09474 0.0
C218 C 0.60077 0.55087 0.13118 0.0
H219 H 0.67199 0.56316 0.09145 0.0
C220 C 0.65264 0.56063 0.10269 0.0
C221 C 0.66169 0.55958 0.12457 0.0
C222 C 0.63563 0.55504 0.13879 0.0
C223 C 0.57209 0.54352 0.14585 0.0
H224 H 0.64294 0.55528 0.15575 0.0
C225 C 0.53991 0.55036 0.14132 0.0
C226 C 0.51276 0.54025 0.15455 0.0
C227 C 0.57613 0.52732 0.16421 0.0
H228 H 0.59911 0.52018 0.16816 0.0
C229 C 0.55014 0.51877 0.17765 0.0
H230 H 0.53553 0.56284 0.12748 0.0
C231 C 0.51893 0.52503 0.17291 0.0
H232 H 0.49935 0.51772 0.18373 0.0
H233 H 0.55402 0.50651 0.19172 0.0
H234 H 0.21639 0.61124 0.14329 0.0
H235 H 0.27591 0.61087 0.14132 0.0
H236 H 0.25013 0.5053 0.15688 0.0
H237 H 0.19066 0.5053 0.15864 0.0
H238 H 0.32481 0.60285 0.17123 0.0
H239 H 0.29785 0.49361 0.1028 0.0
H240 H 0.2665 0.51564 0.11044 0.0
H241 H 0.27381 0.48204 0.12516 0.0
C242 C 0.22326 0.58785 0.14627 0.0
C243 C 0.19825 0.5582 0.15101 0.0
C244 C 0.25752 0.5877 0.14516 0.0
C245 C 0.26785 0.55781 0.14851 0.0
C246 C 0.24304 0.52847 0.15366 0.0
H247 H 0.4514 0.49108 0.15533 0.0
H248 H 0.39415 0.49808 0.15283 0.0
C249 C 0.20885 0.52861 0.15484 0.0
C250 C 0.3044 0.5573 0.14688 0.0
H251 H 0.35357 0.51054 0.12177 0.0
C252 C 0.33108 0.58284 0.16025 0.0
C253 C 0.31308 0.5314 0.13252 0.0
C254 C 0.28637 0.50432 0.11675 0.0
C255 C 0.36554 0.58227 0.16034 0.0
C256 C 0.37411 0.55585 0.14632 0.0
C257 C 0.34746 0.53085 0.1326 0.0
C258 C 0.40987 0.55199 0.14667 0.0
C259 C 0.39223 0.60918 0.1762 0.0
C260 C 0.43851 0.57951 0.14337 0.0
C261 C 0.47182 0.57554 0.14485 0.0
C262 C 0.47739 0.54393 0.14968 0.0
C263 C 0.44845 0.51605 0.15194 0.0
C264 C 0.41542 0.51999 0.15044 0.0
H265 H 0.38061 0.62192 0.18929 0.0
H266 H 0.41042 0.59696 0.18374 0.0
H267 H 0.40685 0.63006 0.16747 0.0
H268 H 0.43522 0.60425 0.13983 0.0
H269 H 0.49329 0.5976 0.14299 0.0
H270 H 0.82813 0.22366 0.50754 0.0
H271 H 0.86817 0.2802 0.50379 0.0
H272 H 0.822 0.27241 0.43867 0.0
H273 H 0.78142 0.21597 0.44248 0.0
H274 H 0.91579 0.29542 0.47561 0.0
H275 H 0.82182 0.37021 0.46431 0.0
H276 H 0.81047 0.32772 0.47333 0.0
H277 H 0.81437 0.33087 0.44509 0.0
C278 C 0.82649 0.23399 0.49242 0.0
C279 C 0.80158 0.2154 0.47532 0.0
C280 C 0.84935 0.26634 0.49031 0.0
C281 C 0.84786 0.28082 0.47106 0.0
C282 C 0.82314 0.26222 0.45387 0.0
H283 H 0.97924 0.48037 0.4401 0.0
H284 H 0.94044 0.42013 0.43608 0.0
C285 C 0.80002 0.22993 0.45604 0.0
C286 C 0.8728 0.31499 0.469 0.0
H287 H 0.87959 0.39972 0.46129 0.0
C288 C 0.90783 0.31816 0.47241 0.0
C289 C 0.86244 0.34469 0.46474 0.0
C290 C 0.82525 0.34344 0.46184 0.0
C291 C 0.9327 0.35028 0.472 0.0
C292 C 0.9223 0.38003 0.46816 0.0
C293 C 0.8874 0.37672 0.46411 0.0
C294 C 0.94714 0.41544 0.47008 0.0
C295 C 0.96996 0.35233 0.47589 0.0
C296 C 0.96369 0.43254 0.49048 0.0
C297 C 0.98554 0.46679 0.49282 0.0
C298 C 0.99137 0.4846 0.47478 0.0
C299 C 0.97539 0.46714 0.45423 0.0
C300 C 0.95316 0.43289 0.45194 0.0
H301 H 0.974 0.32581 0.47359 0.0
H302 H 0.98521 0.36859 0.46481 0.0
H303 H 0.97971 0.36499 0.4928 0.0
H304 H 0.95911 0.41962 0.50471 0.0
H305 H 0.99768 0.47951 0.50882 0.0
H306 H 0.64937 0.68556 0.86317 0.0
H307 H 0.64734 0.74612 0.86251 0.0
H308 H 0.5715 0.71039 0.80716 0.0
H309 H 0.57353 0.65003 0.8075 0.0
H310 H 0.62502 0.7714 0.80305 0.0
H311 H 0.56838 0.78493 0.8811 0.0
H312 H 0.6067 0.77142 0.88223 0.0
H313 H 0.56845 0.74278 0.86685 0.0
C314 C 0.63218 0.69055 0.85088 0.0
C315 C 0.61146 0.66281 0.83548 0.0
C316 C 0.631 0.72518 0.85057 0.0
C317 C 0.60904 0.73273 0.83491 0.0
C318 C 0.58862 0.70518 0.8194 0.0
H319 H 0.52906 0.90882 0.83125 0.0
H320 H 0.5399 0.85186 0.83145 0.0
C321 C 0.58973 0.67061 0.81971 0.0
C322 C 0.60702 0.76922 0.83462 0.0
H323 H 0.58239 0.83497 0.86334 0.0
C324 C 0.61589 0.78543 0.81627 0.0
C325 C 0.59482 0.78732 0.85181 0.0
C326 C 0.58375 0.77074 0.87157 0.0
C327 C 0.61268 0.81916 0.81461 0.0
C328 C 0.60052 0.83724 0.83182 0.0
C329 C 0.59192 0.82114 0.85023 0.0
C330 C 0.59448 0.87196 0.83059 0.0
C331 C 0.62127 0.83476 0.79419 0.0
C332 C 0.62157 0.90228 0.82986 0.0
C333 C 0.61547 0.93512 0.82985 0.0
C334 C 0.58217 0.93821 0.83073 0.0
C335 C 0.5551 0.90756 0.83096 0.0
C336 C 0.56121 0.87491 0.83099 0.0
H337 H 0.624 0.81483 0.78087 0.0
H338 H 0.60127 0.84648 0.78859 0.0
H339 H 0.6458 0.85604 0.7976 0.0
H340 H 0.64752 0.90069 0.82983 0.0
H341 H 0.63692 0.95821 0.82988 0.0
H342 H 0.96386 0.51052 0.16053 0.0
H343 H 0.90368 0.51011 0.15872 0.0
H344 H 0.92851 0.60462 0.12923 0.0
H345 H 0.98838 0.60505 0.13078 0.0
H346 H 0.87145 0.55877 0.17644 0.0
H347 H 0.85011 0.5411 0.08685 0.0
H348 H 0.88722 0.53467 0.1009 0.0
H349 H 0.88553 0.57838 0.09799 0.0
C350 C 0.95657 0.53119 0.15356 0.0
C351 C 0.98134 0.55768 0.14565 0.0
C352 C 0.92199 0.53097 0.15259 0.0
C353 C 0.911 0.557 0.14349 0.0
C354 C 0.9358 0.5837 0.13589 0.0
H355 H 0.71998 0.60644 0.11511 0.0
H356 H 0.77912 0.60536 0.12128 0.0
C357 C 0.9703 0.58401 0.1369 0.0
C358 C 0.87389 0.5565 0.14201 0.0
H359 H 0.80677 0.55596 0.10613 0.0
C360 C 0.85727 0.55791 0.16103 0.0
C361 C 0.85495 0.55533 0.12197 0.0
C362 C 0.87019 0.55194 0.10074 0.0
C363 C 0.82306 0.55939 0.16063 0.0
C364 C 0.80426 0.5587 0.14059 0.0
C365 C 0.82081 0.55673 0.12158 0.0
C366 C 0.76787 0.56079 0.13879 0.0
C367 C 0.80785 0.56297 0.18186 0.0
C368 C 0.74111 0.53657 0.14685 0.0
C369 C 0.70691 0.53736 0.14346 0.0
C370 C 0.69838 0.56208 0.13164 0.0
C371 C 0.72533 0.58686 0.12418 0.0
C372 C 0.75936 0.5862 0.12767 0.0
H373 H 0.82795 0.57325 0.19578 0.0
H374 H 0.79136 0.58079 0.18178 0.0
H375 H 0.79197 0.53668 0.18447 0.0
H376 H 0.74641 0.51611 0.15507 0.0
H377 H 0.68694 0.51749 0.14915 0.0
H378 H 0.39753 0.88278 0.5485 0.0
H379 H 0.34948 0.82894 0.54166 0.0
H380 H 0.36995 0.81264 0.47492 0.0
H381 H 0.4175 0.86662 0.48143 0.0
H382 H 0.29195 0.81617 0.51155 0.0
H383 H 0.36035 0.71575 0.49404 0.0
H384 H 0.38152 0.75984 0.5077 0.0
H385 H 0.37233 0.75154 0.47867 0.0
C386 C 0.39183 0.86776 0.53235 0.0
C387 C 0.41146 0.8791 0.51551 0.0
C388 C 0.36451 0.83687 0.52853 0.0
C389 C 0.3565 0.81652 0.50788 0.0
C390 C 0.37621 0.82749 0.49111 0.0
H391 H 0.17487 0.6803 0.438 0.0
H392 H 0.22593 0.72678 0.45428 0.0
C393 C 0.40342 0.85841 0.49488 0.0
C394 C 0.32605 0.78523 0.50335 0.0
H395 H 0.30013 0.6976 0.48281 0.0
C396 C 0.29377 0.79014 0.50558 0.0
C397 C 0.32848 0.75122 0.49578 0.0
C398 C 0.36255 0.74409 0.49409 0.0
C399 C 0.26378 0.76231 0.49937 0.0
C400 C 0.26617 0.72882 0.49062 0.0
C401 C 0.29843 0.72341 0.48941 0.0
C402 C 0.23549 0.70008 0.48098 0.0
C403 C 0.22966 0.76907 0.50176 0.0
C404 C 0.22429 0.66939 0.49047 0.0
C405 C 0.19497 0.64261 0.48115 0.0
C406 C 0.17687 0.64597 0.46204 0.0
C407 C 0.18851 0.67668 0.45255 0.0
C408 C 0.2175 0.70341 0.46192 0.0
H409 H 0.23207 0.7932 0.51344 0.0
H410 H 0.21879 0.77266 0.48578 0.0
H411 H 0.21143 0.74636 0.50725 0.0
H412 H 0.23801 0.66634 0.50514 0.0
H413 H 0.18665 0.61919 0.48875 0.0
H414 H 0.57054 0.42101 0.80586 0.0
H415 H 0.57404 0.36078 0.80454 0.0
H416 H 0.66743 0.39846 0.84752 0.0
H417 H 0.66381 0.45876 0.84929 0.0
H418 H 0.6233 0.33297 0.79009 0.0
H419 H 0.61208 0.31934 0.87682 0.0
H420 H 0.60257 0.35492 0.86499 0.0
H421 H 0.64614 0.35643 0.8724 0.0
C422 C 0.59176 0.41653 0.81514 0.0
C423 C 0.61679 0.44476 0.82777 0.0
C424 C 0.59371 0.38204 0.81436 0.0
C425 C 0.62069 0.37497 0.8262 0.0
C426 C 0.64592 0.40311 0.83867 0.0
H427 H 0.67234 0.17744 0.79715 0.0
H428 H 0.67496 0.2398 0.80451 0.0
C429 C 0.64391 0.43764 0.83955 0.0
C430 C 0.62289 0.33825 0.82477 0.0
H431 H 0.62527 0.27292 0.85478 0.0
C432 C 0.62374 0.31986 0.80424 0.0
C433 C 0.62312 0.32102 0.84323 0.0
C434 C 0.62061 0.33877 0.86559 0.0
C435 C 0.62486 0.28481 0.80162 0.0
C436 C 0.62591 0.26783 0.82011 0.0
C437 C 0.62489 0.28612 0.84066 0.0
C438 C 0.6266 0.2306 0.81821 0.0
C439 C 0.62396 0.266 0.77897 0.0
C440 C 0.59948 0.20487 0.82455 0.0
C441 C 0.59807 0.16921 0.82053 0.0
C442 C 0.62378 0.15866 0.81009 0.0
C443 C 0.65189 0.18471 0.80491 0.0
C444 C 0.65336 0.22033 0.80904 0.0
H445 H 0.61458 0.27954 0.76647 0.0
H446 H 0.65015 0.26539 0.77585 0.0
H447 H 0.60731 0.23842 0.77705 0.0
H448 H 0.57863 0.21221 0.83175 0.0
H449 H 0.57596 0.14981 0.82457 0.0
H450 H 0.56262 0.91974 0.5125 0.0
H451 H 0.56101 0.85831 0.51261 0.0
H452 H 0.66274 0.88015 0.49283 0.0
H453 H 0.6646 0.94203 0.49244 0.0
H454 H 0.57579 0.81061 0.47367 0.0
H455 H 0.65993 0.82964 0.55055 0.0
H456 H 0.6362 0.86021 0.54537 0.0
H457 H 0.67248 0.85919 0.53102 0.0
C458 C 0.58471 0.91166 0.5081 0.0
C459 C 0.61375 0.93596 0.50241 0.0
C460 C 0.58371 0.87646 0.50821 0.0
C461 C 0.61183 0.8648 0.5029 0.0
C462 C 0.64087 0.88877 0.49714 0.0
H463 H 0.63228 0.65175 0.50687 0.0
H464 H 0.64557 0.71552 0.5061 0.0
C465 C 0.64181 0.92406 0.49684 0.0
C466 C 0.61008 0.82726 0.503 0.0
H467 H 0.6349 0.77136 0.53324 0.0
C468 C 0.58891 0.802 0.48658 0.0
C469 C 0.62746 0.81621 0.51977 0.0
C470 C 0.65029 0.84254 0.5378 0.0
C471 C 0.58419 0.76585 0.48665 0.0
C472 C 0.60029 0.75458 0.50399 0.0
C473 C 0.62239 0.77995 0.52005 0.0
C474 C 0.59305 0.71659 0.50612 0.0
C475 C 0.56201 0.7401 0.46807 0.0
C476 C 0.55939 0.69631 0.50726 0.0
C477 C 0.55181 0.66012 0.5076 0.0
C478 C 0.57777 0.64337 0.50712 0.0
C479 C 0.61178 0.66396 0.50724 0.0
C480 C 0.61935 0.70032 0.50672 0.0
H481 H 0.5608 0.75262 0.45326 0.0
H482 H 0.57159 0.71689 0.46414 0.0
H483 H 0.53562 0.73077 0.47263 0.0
H484 H 0.5388 0.70841 0.50752 0.0
H485 H 0.52545 0.64506 0.50794 0.0
H486 H 0.81267 0.51904 0.82991 0.0
H487 H 0.8641 0.5012 0.82564 0.0
H488 H 0.85153 0.45444 0.88437 0.0
H489 H 0.80044 0.47408 0.88922 0.0
H490 H 0.91038 0.49559 0.88748 0.0
H491 H 0.89576 0.41962 0.80658 0.0
H492 H 0.88363 0.45838 0.80315 0.0
H493 H 0.85935 0.42721 0.81902 0.0
C494 C 0.8203 0.50406 0.84158 0.0
C495 C 0.80271 0.498 0.85992 0.0
C496 C 0.84958 0.49339 0.83898 0.0
C497 C 0.8615 0.47565 0.85438 0.0
C498 C 0.84275 0.46781 0.87215 0.0
H499 H 0.08312 0.51204 0.86992 0.0
H500 H 1.02555 0.47068 0.86435 0.0
C501 C 0.81372 0.47916 0.87499 0.0
C502 C 0.89656 0.47195 0.85397 0.0
H503 H 0.95406 0.4625 0.81811 0.0
C504 C 0.91968 0.48687 0.87254 0.0
C505 C 0.90897 0.46021 0.83462 0.0
C506 C 0.88537 0.4401 0.81486 0.0
C507 C 0.95496 0.49442 0.87153 0.0
C508 C 0.96738 0.48698 0.85141 0.0
C509 C 0.94438 0.46863 0.83343 0.0
C510 C 1.00301 0.50483 0.84818 0.0
C511 C 0.97881 0.51356 0.89148 0.0
C512 C 1.00956 0.53659 0.83969 0.0
C513 C 1.0421 0.56054 0.84322 0.0
C514 C 0.06867 0.55295 0.85522 0.0
C515 C 1.06296 0.51905 0.86113 0.0
C516 C 1.03021 0.49522 0.85779 0.0
H517 H 0.96489 0.51784 0.90579 0.0
H518 H 0.99641 0.49811 0.89557 0.0
H519 H 0.99457 0.53955 0.88825 0.0
H520 H 0.98875 0.54445 0.83229 0.0
H521 H 1.04535 0.5863 0.83847 0.0
H522 H 0.2348 0.8079 0.14278 0.0
H523 H 0.28921 0.85407 0.14967 0.0
H524 H 0.3406 0.77762 0.16388 0.0
H525 H 0.28653 0.73089 0.15594 0.0
H526 H 0.32944 0.87487 0.18755 0.0
H527 H 0.40263 0.83032 0.12375 0.0
H528 H 0.35697 0.81225 0.12331 0.0
H529 H 0.38548 0.79747 0.14038 0.0
C530 C 0.25775 0.80067 0.14685 0.0
C531 C 0.25622 0.76557 0.14872 0.0
C532 C 0.28883 0.82719 0.15095 0.0
C533 C 0.31907 0.81926 0.157 0.0
C534 C 0.31774 0.78427 0.15877 0.0
H535 H 0.52193 0.94846 0.21039 0.0
H536 H 0.47091 0.89965 0.19632 0.0
C537 C 0.28667 0.75765 0.15454 0.0
C538 C 0.35145 0.84802 0.16289 0.0
H539 H 0.43424 0.87685 0.15144 0.0
C540 C 0.35225 0.87542 0.17952 0.0
C541 C 0.38126 0.84862 0.15246 0.0
C542 C 0.38156 0.82077 0.13385 0.0
C543 C 0.38212 0.90313 0.18622 0.0
C544 C 0.4119 0.90364 0.17588 0.0
C545 C 0.41127 0.87629 0.15929 0.0
C546 C 0.44394 0.93244 0.18234 0.0
C547 C 0.38183 0.93139 0.20461 0.0
C548 C 0.44587 0.96675 0.17859 0.0
C549 C 0.47486 0.99462 0.18661 0.0
C550 C 0.50242 0.98862 0.19854 0.0
C551 C 0.50094 0.95392 0.20147 0.0
C552 C 0.47195 0.92604 0.19336 0.0
H553 H 0.35904 0.92355 0.21361 0.0
H554 H 0.40516 0.93761 0.21617 0.0
H555 H 0.38152 0.95579 0.19797 0.0
H556 H 0.42454 0.9721 0.16996 0.0
H557 H 0.47506 0.02105 0.18425 0.0
H558 H 0.57389 0.15192 0.53387 0.0
H559 H 0.57262 0.21273 0.53469 0.0
H560 H 0.65029 0.2299 0.4905 0.0
H561 H 0.6523 0.16917 0.48994 0.0
H562 H 0.66316 0.2841 0.52362 0.0
H563 H 0.52892 0.25313 0.4885 0.0
H564 H 0.53267 0.23234 0.51198 0.0
H565 H 0.55153 0.22027 0.48802 0.0
C566 C 0.59069 0.16853 0.52427 0.0
C567 C 0.61307 0.15551 0.51175 0.0
C568 C 0.58973 0.20329 0.52463 0.0
C569 C 0.61076 0.22571 0.51225 0.0
C570 C 0.63358 0.21301 0.50002 0.0
H571 H 0.6325 0.45055 0.50538 0.0
H572 H 0.63493 0.38963 0.4961 0.0
C573 C 0.6347 0.17826 0.49974 0.0
C574 C 0.60958 0.26267 0.51267 0.0
H575 H 0.5549 0.31236 0.50632 0.0
C576 C 0.6396 0.29029 0.51951 0.0
C577 C 0.57888 0.2708 0.50716 0.0
C578 C 0.54627 0.24256 0.49828 0.0
C579 C 0.63938 0.32568 0.52201 0.0
C580 C 0.60838 0.33364 0.5174 0.0
C581 C 0.57861 0.30614 0.5099 0.0
C582 C 0.60581 0.37009 0.52194 0.0
C583 C 0.67192 0.35431 0.53042 0.0
C584 C 0.58799 0.37898 0.53916 0.0
C585 C 0.58666 0.41351 0.54447 0.0
C586 C 0.60289 0.4399 0.53256 0.0
C587 C 0.61976 0.43074 0.51481 0.0
C588 C 0.62134 0.39609 0.5096 0.0
H589 H 0.69279 0.34352 0.53577 0.0
H590 H 0.68051 0.37025 0.51742 0.0
H591 H 0.66738 0.3722 0.54427 0.0
H592 H 0.57567 0.35928 0.54879 0.0
H593 H 0.57306 0.41967 0.55804 0.0
H594 H 0.39305 0.56454 0.75988 0.0
H595 H 0.35001 0.59593 0.75923 0.0
H596 H 0.42861 0.69496 0.77657 0.0
H597 H 0.47211 0.66363 0.77704 0.0
H598 H 0.38095 0.68293 0.80543 0.0
H599 H 0.31531 0.65863 0.72255 0.0
H600 H 0.31955 0.61883 0.73125 0.0
H601 H 0.35725 0.65324 0.72807 0.0
C602 C 0.40139 0.59306 0.76275 0.0
C603 C 0.43599 0.61158 0.7687 0.0
C604 C 0.3767 0.61102 0.76229 0.0
C605 C 0.38613 0.64781 0.76762 0.0
C606 C 0.42084 0.66656 0.77226 0.0
H607 H 0.24285 0.75289 0.82357 0.0
H608 H 0.29222 0.74848 0.80463 0.0
C609 C 0.4456 0.64861 0.77271 0.0
C610 C 0.35953 0.66551 0.7722 0.0
H611 H 0.28213 0.67075 0.7519 0.0
C612 C 0.35976 0.6812 0.7936 0.0
C613 C 0.3319 0.66296 0.75675 0.0
C614 C 0.33112 0.6478 0.73332 0.0
C615 C 0.33186 0.69191 0.80044 0.0
C616 C 0.30334 0.6877 0.78525 0.0
C617 C 0.30402 0.67398 0.76351 0.0
C618 C 0.27112 0.69296 0.79237 0.0
C619 C 0.33218 0.70507 0.82424 0.0
C620 C 0.24199 0.66386 0.79039 0.0
C621 C 0.21347 0.66645 0.80077 0.0
C622 C 0.21367 0.69815 0.81351 0.0
C623 C 0.24183 0.72805 0.81396 0.0
C624 C 0.27024 0.72551 0.80332 0.0
H625 H 0.35323 0.70022 0.83434 0.0
H626 H 0.33574 0.73387 0.82652 0.0
H627 H 0.30762 0.69214 0.83033 0.0
H628 H 0.24201 0.63855 0.78183 0.0
H629 H 0.1918 0.64319 0.79957 0.0
H630 H 0.92815 0.38361 0.21052 0.0
H631 H 0.87438 0.34167 0.21648 0.0
H632 H 0.86662 0.28788 0.15121 0.0
H633 H 0.92045 0.32931 0.14528 0.0
H634 H 0.8114 0.3284 0.1961 0.0
H635 H 0.85103 0.20639 0.18494 0.0
H636 H 0.88134 0.24965 0.18826 0.0
H637 H 0.85833 0.22969 0.16216 0.0
C638 C 0.91494 0.36281 0.19746 0.0
C639 C 0.92862 0.35958 0.17748 0.0
C640 C 0.88434 0.33878 0.20092 0.0
C641 C 0.86685 0.31113 0.18446 0.0
C642 C 0.88019 0.30827 0.16438 0.0
H643 H 0.66538 0.17317 0.15403 0.0
H644 H 0.72459 0.20972 0.15553 0.0
C645 C 0.91088 0.33207 0.16098 0.0
C646 C 0.8338 0.28631 0.18784 0.0
H647 H 0.79051 0.19879 0.18294 0.0
C648 C 0.80702 0.3001 0.19357 0.0
C649 C 0.82811 0.24933 0.18465 0.0
C650 C 0.85635 0.2329 0.17989 0.0
C651 C 0.77437 0.27787 0.19525 0.0
C652 C 0.76841 0.24103 0.19111 0.0
C653 C 0.79529 0.22714 0.18602 0.0
C654 C 0.73372 0.21672 0.19049 0.0
C655 C 0.746 0.29373 0.20069 0.0
C656 C 0.71965 0.20813 0.20967 0.0
C657 C 0.68583 0.18713 0.20887 0.0
C658 C 0.66561 0.17479 0.18887 0.0
C659 C 0.68024 0.18268 0.16968 0.0
C660 C 0.71404 0.20337 0.17049 0.0
H661 H 0.75455 0.32297 0.20279 0.0
H662 H 0.72449 0.28391 0.18762 0.0
H663 H 0.73615 0.28538 0.21591 0.0
H664 H 0.73461 0.21829 0.22524 0.0
H665 H 0.67512 0.18158 0.2239 0.0
H666 H 0.06976 0.5878 0.09415 0.0
H667 H 0.08414 0.60982 0.06014 0.0
H668 H 0.13607 0.53081 0.04535 0.0
H669 H 0.12303 0.50969 0.07987 0.0
H670 H 0.17266 0.59465 0.03669 0.0
H671 H 1.03828 0.5636 0.00082 0.0
H672 H 1.04725 0.59219 0.02633 0.0
H673 H 1.04972 0.54777 0.02516 0.0
C674 C 0.08428 0.57517 0.08365 0.0
C675 C 0.09527 0.54703 0.08958 0.0
C676 C 0.09228 0.58762 0.06416 0.0
C677 C 0.11069 0.57159 0.05004 0.0
C678 C 0.12176 0.54351 0.05599 0.0
H679 H 0.15751 0.57005 0.91956 0.0
H680 H 0.15775 0.56578 0.95831 0.0
C681 C 0.11414 0.53133 0.07562 0.0
C682 C 0.11837 0.58396 0.02902 0.0
H683 H 0.08087 0.59509 0.98112 0.0
C684 C 0.1526 0.59481 0.02455 0.0
C685 C 0.09214 0.58415 0.0132 0.0
C686 C 1.05479 0.57099 0.01648 0.0
C687 C 0.16126 0.60563 0.00461 0.0
C688 C 0.13503 0.60557 0.98883 0.0
C689 C 0.10092 0.59548 0.99344 0.0
C690 C 0.14178 0.61259 0.96663 0.0
C691 C 0.19831 0.61683 0.00045 0.0
C692 C 0.13349 0.64079 0.95864 0.0
C693 C 0.13361 0.64341 0.93653 0.0
C694 C 0.14144 0.61749 0.92215 0.0
C695 C 0.15156 0.59041 0.9304 0.0
C696 C 0.15181 0.58803 0.95249 0.0
H697 H 0.21563 0.62335 0.01575 0.0
H698 H 0.20405 0.59498 0.99005 0.0
H699 H 0.20376 0.64006 0.99176 0.0
H700 H 0.12535 0.65976 0.96932 0.0
H701 H 0.12528 0.66424 0.93047 0.0
H702 H 0.62859 0.01443 0.44452 0.0
H703 H 0.63752 0.0201 0.40646 0.0
H704 H 0.56414 0.07909 0.40411 0.0
H705 H 0.55545 0.07387 0.442 0.0
H706 H 0.58842 0.99539 0.37126 0.0
H707 H 0.64398 0.13957 0.37722 0.0
H708 H 0.64227 0.11688 0.40056 0.0
H709 H 0.60535 0.12809 0.39015 0.0
C710 C 0.61467 0.0289 0.43589 0.0
C711 C 0.59135 0.04373 0.44615 0.0
C712 C 0.61982 0.03216 0.41422 0.0
C713 C 0.60197 0.05059 0.40259 0.0
C714 C 0.57882 0.06552 0.41291 0.0
H715 H 0.52401 0.03103 0.2728 0.0
H716 H 0.53815 0.03121 0.31129 0.0
C717 C 0.57361 0.0622 0.4345 0.0
C718 C 0.6052 0.05194 0.37919 0.0
H719 H 0.61808 0.10851 0.3418 0.0
C720 C 0.59555 0.02011 0.36484 0.0
C721 C 0.61495 0.08419 0.37083 0.0
C722 C 0.62757 0.11911 0.38552 0.0
C723 C 0.59325 0.01973 0.34231 0.0
C724 C 0.60042 0.052 0.33397 0.0
C725 C 0.61222 0.08381 0.34827 0.0
C726 C 0.5926 0.05302 0.31065 0.0
C727 C 0.58219 0.98477 0.32759 0.0
C728 C 0.61851 0.06628 0.29766 0.0
C729 C 0.61051 0.06601 0.27547 0.0
C730 C 0.57646 0.05261 0.26604 0.0
C731 C 0.55059 0.04057 0.27939 0.0
C732 C 0.55859 0.04075 0.30141 0.0
H733 H 0.58704 0.96338 0.33591 0.0
H734 H 0.55435 0.97782 0.32264 0.0
H735 H 0.59567 0.98607 0.31271 0.0
H736 H 0.6449 0.07618 0.3046 0.0
H737 H 0.63097 0.0755 0.26561 0.0
H738 H 0.62046 0.50979 0.76921 0.0
H739 H 0.61577 0.50972 0.72995 0.0
H740 H 0.66353 0.62206 0.74006 0.0
H741 H 0.66988 0.6218 0.77925 0.0
H742 H 0.58266 0.5393 0.70512 0.0
H743 H 0.72043 0.59287 0.69646 0.0
H744 H 0.70522 0.57937 0.72136 0.0
H745 H 0.70497 0.62186 0.71471 0.0
C746 C 0.63026 0.53436 0.76299 0.0
C747 C 0.64595 0.56571 0.77715 0.0
C748 C 0.62748 0.53436 0.74058 0.0
C749 C 0.63992 0.56578 0.73195 0.0
C750 C 0.65477 0.5973 0.74621 0.0
H751 H 0.57659 0.56418 0.5944 0.0
H752 H 0.58508 0.57988 0.63388 0.0
C753 C 0.65819 0.59718 0.7686 0.0
C754 C 0.63667 0.56541 0.70808 0.0
H755 H 0.68206 0.58726 0.66534 0.0
C756 C 0.60442 0.54974 0.69642 0.0
C757 C 0.66511 0.57882 0.69667 0.0
C758 C 0.70092 0.59384 0.70791 0.0
C759 C 0.59989 0.54641 0.67371 0.0
C760 C 0.62818 0.56052 0.66234 0.0
C761 C 0.6603 0.57683 0.67405 0.0
C762 C 0.62574 0.55571 0.63824 0.0
C763 C 0.56514 0.52631 0.66217 0.0
C764 C 0.64741 0.53926 0.6274 0.0
C765 C 0.64345 0.5314 0.60483 0.0
C766 C 0.61734 0.53929 0.59252 0.0
C767 C 0.59693 0.55764 0.60331 0.0
C768 C 0.60136 0.5661 0.62595 0.0
H769 H 0.54915 0.5094 0.67266 0.0
H770 H 0.55156 0.54523 0.65763 0.0
H771 H 0.56738 0.50933 0.64717 0.0
H772 H 0.66674 0.53136 0.63645 0.0
H773 H 0.6603 0.51818 0.59706 0.0
H774 H 0.67765 0.02661 0.57331 0.0
H775 H 0.6701 0.02503 0.61172 0.0
H776 H 0.58658 0.0703 0.60512 0.0
H777 H 0.59468 0.07282 0.56677 0.0
H778 H 0.63085 0.10348 0.63977 0.0
H779 H 0.59829 0.9597 0.64055 0.0
H780 H 0.63764 0.97643 0.62916 0.0
H781 H 0.5982 0.97848 0.61575 0.0
C782 C 0.65755 0.03603 0.58003 0.0
C783 C 0.63675 0.04985 0.5671 0.0
C784 C 0.65304 0.0348 0.60193 0.0
C785 C 0.62735 0.04692 0.61122 0.0
C786 C 0.60641 0.06056 0.59826 0.0
H787 H 0.56939 0.02756 0.74241 0.0
H788 H 0.57125 0.01882 0.70297 0.0
C789 C 0.61105 0.06201 0.57638 0.0
C790 C 0.62386 0.04754 0.63476 0.0
H791 H 0.61418 0.99643 0.67518 0.0
C792 C 0.62692 0.08001 0.64747 0.0
C793 C 0.61826 0.01683 0.64477 0.0
C794 C 0.61254 0.98084 0.63182 0.0
C795 C 0.62552 0.08281 0.66996 0.0
C796 C 0.6218 0.05246 0.68014 0.0
C797 C 0.61764 0.01976 0.66738 0.0
C798 C 0.62214 0.0544 0.70401 0.0
C799 C 0.6277 0.11828 0.68259 0.0
C800 C 0.65066 0.07608 0.71766 0.0
C801 C 0.64962 0.08115 0.74009 0.0
C802 C 0.62019 0.06425 0.74931 0.0
C803 C 0.59247 0.04074 0.73574 0.0
C804 C 0.59344 0.03587 0.71323 0.0
H805 H 0.62071 0.13604 0.67196 0.0
H806 H 0.61065 0.11554 0.69579 0.0
H807 H 0.65432 0.13102 0.68999 0.0
H808 H 0.67339 0.08991 0.71091 0.0
H809 H 0.67149 0.09907 0.75022 0.0
H810 H 0.62101 0.59207 0.89414 0.0
H811 H 0.62431 0.59367 0.93354 0.0
H812 H 0.54198 0.49702 0.92561 0.0
H813 H 0.53905 0.49491 0.88613 0.0
H814 H 0.57545 0.59637 0.96161 0.0
H815 H 0.61487 0.47464 0.96381 0.0
H816 H 0.61586 0.4959 0.93994 0.0
H817 H 0.57617 0.46855 0.9467 0.0
C818 C 0.60367 0.57112 0.9008 0.0
C819 C 0.57986 0.54327 0.8871 0.0
C820 C 0.60555 0.57209 0.9233 0.0
C821 C 0.58373 0.54521 0.93251 0.0
C822 C 0.55956 0.51765 0.91885 0.0
H823 H 0.56653 0.51025 0.0672 0.0
H824 H 0.55528 0.50818 0.02795 0.0
C825 C 0.55776 0.51658 0.89632 0.0
C826 C 0.58615 0.54636 0.95643 0.0
H827 H 0.60249 0.50162 -0.00298 0.0
C828 C 0.58137 0.57566 0.96936 0.0
C829 C 0.59385 0.5193 0.96651 0.0
C830 C 0.6008 0.48796 0.95358 0.0
C831 C 0.58396 0.57856 0.99208 0.0
C832 C 0.5919 0.55164 0.00214 0.0
C833 C 0.59623 0.52213 0.98924 0.0
C834 C 0.59727 0.55423 0.02606 0.0
C835 C 0.57791 0.61028 0.00515 0.0
C836 C 0.62455 0.58081 0.03798 0.0
C837 C 0.631 0.58206 0.06034 0.0
C838 C 0.61031 0.5567 0.07124 0.0
C839 C 0.58264 0.5304 0.05931 0.0
C840 C 0.57632 0.52907 0.03689 0.0
H841 H 0.56358 0.62363 0.99513 0.0
H842 H 0.56354 0.60272 0.01913 0.0
H843 H 0.60289 0.62947 0.01159 0.0
H844 H 0.64135 0.60016 0.0299 0.0
H845 H 0.65241 0.60273 0.06911 0.0
H846 H 1.0387 0.58445 0.21265 0.0
H847 H 1.03429 0.57616 0.25062 0.0
H848 H 0.13293 0.55687 0.25398 0.0
H849 H 0.13598 0.56238 0.21544 0.0
H850 H 0.09474 0.51762 0.27779 0.0
H851 H 0.08153 0.6518 0.29809 0.0
H852 H 1.04699 0.62407 0.27926 0.0
H853 H 0.08991 0.63537 0.27148 0.0
C854 C 1.05923 0.57809 0.22152 0.0
C855 C 0.08792 0.57459 0.21139 0.0
C856 C 1.05685 0.57364 0.24323 0.0
C857 C 0.08386 0.56724 0.25547 0.0
C858 C 0.11188 0.56215 0.24499 0.0
H859 H 0.13455 0.63332 0.39136 0.0
H860 H 0.12728 0.62428 0.35219 0.0
C861 C 0.11371 0.5654 0.22303 0.0
C862 C 0.08372 0.56744 0.2793 0.0
H863 H 0.07546 0.61697 0.32615 0.0
C864 C 0.09064 0.5394 0.2884 0.0
C865 C 0.07875 0.59606 0.29323 0.0
C866 C 0.07425 0.62866 0.28505 0.0
C867 C 0.09345 0.53952 0.31096 0.0
C868 C 0.08767 0.56777 0.3248 0.0
C869 C 0.07974 0.59521 0.31561 0.0
C870 C 0.09275 0.57149 0.34889 0.0
C871 C 0.10409 0.5102 0.31969 0.0
C872 C 0.07589 0.54479 0.36038 0.0
C873 C 0.08121 0.54934 0.38309 0.0
C874 C 0.10284 0.58105 0.39478 0.0
C875 C 0.11872 0.608 0.38312 0.0
C876 C 0.11413 0.6031 0.36056 0.0
H877 H 0.1165 0.49638 0.30761 0.0
H878 H 0.12208 0.52034 0.33465 0.0
H879 H 0.08113 0.49054 0.32366 0.0
H880 H 1.05845 0.52053 0.35185 0.0
H881 H 0.0685 0.52795 0.39142 0.0
loop_
_geom_bond_atom_site_label_1
_geom_bond_atom_site_label_2
_geom_bond_distance
_geom_bond_site_symmetry_2
_ccdc_geom_bond_type
Nd0 C2 2.836 . S
Nd0 O20 2.500 . S
Nd0 O21 2.492 . S
Nd0 O22 2.487 . S
Nd0 O23 2.682 . S
Nd0 O24 2.410 . S
Nd0 O29 2.414 . S
Nd0 O31 2.423 . S
Nd1 C11 2.836 1_455 S
Nd1 O23 2.414 . S
Nd1 O25 2.424 . S
Nd1 O26 2.500 1_455 S
Nd1 O27 2.492 1_455 S
Nd1 O28 2.487 . S
Nd1 O29 2.682 . S
Nd1 O30 2.410 1_455 S
C2 Nd0 2.836 . S
C2 C3 1.498 . S
C2 O20 1.258 . S
C2 O21 1.239 . S
C3 C2 1.498 . S
C3 C4 1.366 . S
C3 C8 1.407 . S
C4 C3 1.366 . S
C4 C5 1.392 . S
C4 H32 0.930 . S
C5 C4 1.392 . S
C5 C6 1.398 . S
C5 H33 0.929 . S
C6 C5 1.398 . S
C6 C7 1.352 . S
C7 C6 1.352 . S
C7 C8 1.384 . S
C7 H34 0.930 . S
C8 C3 1.407 . S
C8 C7 1.384 . S
C8 H35 0.929 . S
C9 O22 1.241 . S
C9 O23 1.273 . S
C10 O24 1.251 . S
C10 O25 1.268 . S
C11 Nd1 2.836 1_655 S
C11 C12 1.498 . S
C11 O26 1.258 . S
C11 O27 1.239 . S
C12 C11 1.498 . S
C12 C13 1.366 . S
C12 C17 1.407 . S
C13 C12 1.366 . S
C13 C14 1.392 . S
C13 H36 0.930 . S
C14 C13 1.392 . S
C14 C15 1.398 . S
C14 H37 0.929 . S
C15 C14 1.398 . S
C15 C16 1.352 . S
C16 C15 1.352 . S
C16 C17 1.384 . S
C16 H38 0.930 . S
C17 C12 1.407 . S
C17 C16 1.384 . S
C17 H39 0.929 . S
C18 O28 1.241 . S
C18 O29 1.273 . S
C19 O30 1.251 . S
C19 O31 1.268 1_655 S
O20 Nd0 2.500 . S
O20 C2 1.258 . S
O21 Nd0 2.492 . S
O21 C2 1.239 . S
O22 Nd0 2.487 . S
O22 C9 1.241 . S
O23 Nd0 2.682 . S
O23 Nd1 2.414 . S
O23 C9 1.273 . S
O24 Nd0 2.410 . S
O24 C10 1.251 . S
O25 Nd1 2.424 . S
O25 C10 1.268 . S
O26 Nd1 2.500 1_655 S
O26 C11 1.258 . S
O27 Nd1 2.492 1_655 S
O27 C11 1.239 . S
O28 Nd1 2.487 . S
O28 C18 1.241 . S
O29 Nd0 2.414 . S
O29 Nd1 2.682 . S
O29 C18 1.273 . S
O30 Nd1 2.410 1_655 S
O30 C19 1.251 . S
O31 Nd0 2.423 . S
O31 C19 1.268 1_455 S
H32 C4 0.930 . S
H33 C5 0.929 . S
H34 C7 0.930 . S
H35 C8 0.929 . S
H36 C13 0.930 . S
H37 C14 0.929 . S
H38 C16 0.930 . S
H39 C17 0.929 . S
Nd40 C42 2.836 1_545 S
Nd40 O60 2.500 1_545 S
Nd40 O61 2.492 1_545 S
Nd40 O62 2.487 . S
Nd40 O63 2.682 . S
Nd40 O64 2.410 1_545 S
Nd40 O69 2.414 . S
Nd40 O71 2.424 . S
Nd41 C51 2.836 . S
Nd41 O63 2.414 . S
Nd41 O65 2.424 . S
Nd41 O66 2.500 . S
Nd41 O67 2.492 . S
Nd41 O68 2.487 . S
Nd41 O69 2.682 . S
Nd41 O70 2.410 . S
C42 Nd40 2.836 1_565 S
C42 C43 1.498 . S
C42 O60 1.258 . S
C42 O61 1.239 . S
C43 C42 1.498 . S
C43 C44 1.366 . S
C43 C48 1.407 . S
C44 C43 1.366 . S
C44 C45 1.392 . S
C44 H72 0.930 . S
C45 C44 1.392 . S
C45 C46 1.398 . S
C45 H73 0.929 . S
C46 C45 1.398 . S
C46 C47 1.352 . S
C47 C46 1.352 . S
C47 C48 1.384 . S
C47 H74 0.930 . S
C48 C43 1.407 . S
C48 C47 1.384 . S
C48 H75 0.929 . S
C49 O62 1.241 . S
C49 O63 1.273 . S
C50 O64 1.251 . S
C50 O65 1.268 1_565 S
C51 Nd41 2.836 . S
C51 C52 1.498 . S
C51 O66 1.258 . S
C51 O67 1.239 . S
C52 C51 1.498 . S
C52 C53 1.366 . S
C52 C57 1.407 . S
C53 C52 1.366 . S
C53 C54 1.392 . S
C53 H76 0.930 . S
C54 C53 1.392 . S
C54 C55 1.398 . S
C54 H77 0.929 . S
C55 C54 1.398 . S
C55 C56 1.352 . S
C56 C55 1.352 . S
C56 C57 1.384 . S
C56 H78 0.930 . S
C57 C52 1.407 . S
C57 C56 1.384 . S
C57 H79 0.929 . S
C58 O68 1.241 . S
C58 O69 1.273 . S
C59 O70 1.251 . S
C59 O71 1.268 . S
O60 Nd40 2.500 1_565 S
O60 C42 1.258 . S
O61 Nd40 2.492 1_565 S
O61 C42 1.239 . S
O62 Nd40 2.487 . S
O62 C49 1.241 . S
O63 Nd40 2.682 . S
O63 Nd41 2.414 . S
O63 C49 1.273 . S
O64 Nd40 2.410 1_565 S
O64 C50 1.251 . S
O65 Nd41 2.424 . S
O65 C50 1.268 1_545 S
O66 Nd41 2.500 . S
O66 C51 1.258 . S
O67 Nd41 2.492 . S
O67 C51 1.239 . S
O68 Nd41 2.487 . S
O68 C58 1.241 . S
O69 Nd40 2.414 . S
O69 Nd41 2.682 . S
O69 C58 1.273 . S
O70 Nd41 2.410 . S
O70 C59 1.251 . S
O71 Nd40 2.424 . S
O71 C59 1.268 . S
H72 C44 0.930 . S
H73 C45 0.929 . S
H74 C47 0.930 . S
H75 C48 0.929 . S
H76 C53 0.930 . S
H77 C54 0.929 . S
H78 C56 0.930 . S
H79 C57 0.929 . S
Nd80 C82 2.836 . S
Nd80 O100 2.500 . S
Nd80 O101 2.492 . S
Nd80 O102 2.487 . S
Nd80 O103 2.682 . S
Nd80 O104 2.410 . S
Nd80 O109 2.414 . S
Nd80 O111 2.424 . S
Nd81 C91 2.836 . S
Nd81 O103 2.414 . S
Nd81 O105 2.424 . S
Nd81 O106 2.500 . S
Nd81 O107 2.492 . S
Nd81 O108 2.487 . S
Nd81 O109 2.682 . S
Nd81 O110 2.410 . S
C82 Nd80 2.836 . S
C82 C83 1.498 . S
C82 O100 1.258 . S
C82 O101 1.239 . S
C83 C82 1.498 . S
C83 C84 1.366 . S
C83 C88 1.407 . S
C84 C83 1.366 . S
C84 C85 1.392 . S
C84 H112 0.930 . S
C85 C84 1.392 . S
C85 C86 1.398 . S
C85 H113 0.929 . S
C86 C85 1.398 . S
C86 C87 1.352 . S
C87 C86 1.352 . S
C87 C88 1.384 . S
C87 H114 0.930 . S
C88 C83 1.407 . S
C88 C87 1.384 . S
C88 H115 0.929 . S
C89 O102 1.241 . S
C89 O103 1.273 . S
C90 O104 1.251 . S
C90 O105 1.268 . S
C91 Nd81 2.836 . S
C91 C92 1.498 . S
C91 O106 1.258 . S
C91 O107 1.239 . S
C92 C91 1.498 . S
C92 C93 1.366 . S
C92 C97 1.407 . S
C93 C92 1.366 . S
C93 C94 1.392 . S
C93 H116 0.930 . S
C94 C93 1.392 . S
C94 C95 1.398 . S
C94 H117 0.929 . S
C95 C94 1.398 . S
C95 C96 1.352 . S
C96 C95 1.352 . S
C96 C97 1.384 . S
C96 H118 0.930 . S
C97 C92 1.407 . S
C97 C96 1.384 . S
C97 H119 0.929 . S
C98 O108 1.241 . S
C98 O109 1.273 . S
C99 O110 1.251 . S
C99 O111 1.268 . S
O100 Nd80 2.500 . S
O100 C82 1.258 . S
O101 Nd80 2.492 . S
O101 C82 1.239 . S
O102 Nd80 2.487 . S
O102 C89 1.241 . S
O103 Nd80 2.682 . S
O103 Nd81 2.414 . S
O103 C89 1.273 . S
O104 Nd80 2.410 . S
O104 C90 1.251 . S
O105 Nd81 2.424 . S
O105 C90 1.268 . S
O106 Nd81 2.500 . S
O106 C91 1.258 . S
O107 Nd81 2.492 . S
O107 C91 1.239 . S
O108 Nd81 2.487 . S
O108 C98 1.241 . S
O109 Nd80 2.414 . S
O109 Nd81 2.682 . S
O109 C98 1.273 . S
O110 Nd81 2.410 . S
O110 C99 1.251 . S
O111 Nd80 2.424 . S
O111 C99 1.268 . S
H112 C84 0.930 . S
H113 C85 0.929 . S
H114 C87 0.930 . S
H115 C88 0.929 . S
H116 C93 0.930 . S
H117 C94 0.929 . S
H118 C96 0.930 . S
H119 C97 0.929 . S
H120 C121 0.949 . S
C121 H120 0.949 . S
C121 C122 1.395 . S
C121 C123 1.391 . S
C122 C121 1.395 . S
C122 C125 1.390 . S
C123 C121 1.391 . S
C123 C127 1.387 . S
C123 C128 1.491 . S
H124 C125 0.950 . S
C125 C122 1.390 . S
C125 H124 0.950 . S
C125 C126 1.378 . S
C126 C125 1.378 . S
C126 C127 1.409 . S
C127 C123 1.387 . S
C127 C126 1.409 . S
C127 H129 0.951 . S
C128 C123 1.491 . S
C128 C130 1.382 . S
C128 C132 1.404 . S
H129 C127 0.951 . S
C130 C128 1.382 . S
C130 C131 1.390 . S
C130 H135 0.949 . S
C131 C130 1.390 . S
C131 C136 1.399 . S
C132 C128 1.404 . S
C132 H133 0.950 . S
C132 C134 1.375 . S
H133 C132 0.950 . S
C134 C132 1.375 . S
C134 C136 1.382 . S
C134 H138 0.950 . S
H135 C130 0.949 . S
C136 C131 1.399 . S
C136 C134 1.382 . S
C136 H137 0.952 . S
H137 C136 0.952 . S
H138 C134 0.950 . S
H139 C140 0.949 . S
C140 H139 0.949 . S
C140 C141 1.395 . S
C140 C142 1.391 . S
C141 C140 1.395 . S
C141 C144 1.390 . S
C142 C140 1.391 . S
C142 C146 1.387 . S
C142 C147 1.491 . S
H143 C144 0.950 . S
C144 C141 1.390 . S
C144 H143 0.950 . S
C144 C145 1.378 . S
C145 C144 1.378 . S
C145 C146 1.409 . S
C146 C142 1.387 . S
C146 C145 1.409 . S
C146 H148 0.951 . S
C147 C142 1.491 . S
C147 C149 1.382 . S
C147 C151 1.404 . S
H148 C146 0.951 . S
C149 C147 1.382 . S
C149 C150 1.390 . S
C149 H154 0.949 . S
C150 C149 1.390 . S
C150 C155 1.399 . S
C151 C147 1.404 . S
C151 H152 0.950 . S
C151 C153 1.375 . S
H152 C151 0.950 . S
C153 C151 1.375 . S
C153 C155 1.382 . S
C153 H157 0.950 . S
H154 C149 0.949 . S
C155 C150 1.399 . S
C155 C153 1.382 . S
C155 H156 0.952 . S
H156 C155 0.952 . S
H157 C153 0.950 . S
H158 C159 0.949 . S
C159 H158 0.949 . S
C159 C160 1.395 . S
C159 C161 1.391 . S
C160 C159 1.395 . S
C160 C163 1.390 . S
C161 C159 1.391 . S
C161 C165 1.387 . S
C161 C166 1.491 . S
H162 C163 0.950 . S
C163 C160 1.390 . S
C163 H162 0.950 . S
C163 C164 1.378 . S
C164 C163 1.378 . S
C164 C165 1.409 . S
C165 C161 1.387 . S
C165 C164 1.409 . S
C165 H167 0.951 . S
C166 C161 1.491 . S
C166 C168 1.382 . S
C166 C170 1.404 . S
H167 C165 0.951 . S
C168 C166 1.382 . S
C168 C169 1.390 . S
C168 H173 0.949 . S
C169 C168 1.390 . S
C169 C174 1.399 . S
C170 C166 1.404 . S
C170 H171 0.950 . S
C170 C172 1.375 . S
H171 C170 0.950 . S
C172 C170 1.375 . S
C172 C174 1.382 . S
C172 H176 0.950 . S
H173 C168 0.949 . S
C174 C169 1.399 . S
C174 C172 1.382 . S
C174 H175 0.952 . S
H175 C174 0.952 . S
H176 C172 0.950 . S
H177 C178 0.948 . S
C178 H177 0.948 . S
C178 C179 1.396 1_655 S
C178 C180 1.391 1_655 S
C179 C178 1.396 1_455 S
C179 C182 1.390 . S
C180 C178 1.391 1_455 S
C180 C184 1.387 . S
C180 C185 1.491 1_455 S
H181 C182 0.950 . S
C182 C179 1.390 . S
C182 H181 0.950 . S
C182 C183 1.378 . S
C183 C182 1.378 . S
C183 C184 1.409 . S
C184 C180 1.387 . S
C184 C183 1.409 . S
C184 H186 0.951 . S
C185 C180 1.491 1_655 S
C185 C187 1.382 . S
C185 C189 1.404 . S
H186 C184 0.951 . S
C187 C185 1.382 . S
C187 C188 1.390 . S
C187 H192 0.949 . S
C188 C187 1.390 . S
C188 C193 1.399 . S
C189 C185 1.404 . S
C189 H190 0.950 . S
C189 C191 1.375 . S
H190 C189 0.950 . S
C191 C189 1.375 . S
C191 C193 1.382 . S
C191 H195 0.950 . S
H192 C187 0.949 . S
C193 C188 1.399 . S
C193 C191 1.382 . S
C193 H194 0.952 . S
H194 C193 0.952 . S
H195 C191 0.950 . S
H196 C197 0.949 1_565 S
C197 H196 0.949 1_545 S
C197 C198 1.395 . S
C197 C199 1.391 . S
C198 C197 1.395 . S
C198 C201 1.390 . S
C199 C197 1.391 . S
C199 C203 1.387 . S
C199 C204 1.491 1_545 S
H200 C201 0.950 . S
C201 C198 1.390 . S
C201 H200 0.950 . S
C201 C202 1.378 . S
C202 C201 1.378 . S
C202 C203 1.409 . S
C203 C199 1.387 . S
C203 C202 1.409 . S
C203 H205 0.951 . S
C204 C199 1.491 1_565 S
C204 C206 1.382 . S
C204 C208 1.404 . S
H205 C203 0.951 . S
C206 C204 1.382 . S
C206 C207 1.390 . S
C206 H211 0.949 . S
C207 C206 1.390 . S
C207 C212 1.399 . S
C208 C204 1.404 . S
C208 H209 0.950 1_565 S
C208 C210 1.375 . S
H209 C208 0.950 1_545 S
C210 C208 1.375 . S
C210 C212 1.382 . S
C210 H214 0.950 . S
H211 C206 0.949 . S
C212 C207 1.399 . S
C212 C210 1.382 . S
C212 H213 0.952 . S
H213 C212 0.952 . S
H214 C210 0.950 . S
H215 C216 0.949 . S
C216 H215 0.949 . S
C216 C217 1.395 . S
C216 C218 1.391 . S
C217 C216 1.395 . S
C217 C220 1.390 . S
C218 C216 1.391 . S
C218 C222 1.387 . S
C218 C223 1.491 . S
H219 C220 0.950 . S
C220 C217 1.390 . S
C220 H219 0.950 . S
C220 C221 1.378 . S
C221 C220 1.378 . S
C221 C222 1.409 . S
C222 C218 1.387 . S
C222 C221 1.409 . S
C222 H224 0.951 . S
C223 C218 1.491 . S
C223 C225 1.382 . S
C223 C227 1.404 . S
H224 C222 0.951 . S
C225 C223 1.382 . S
C225 C226 1.390 . S
C225 H230 0.949 . S
C226 C225 1.390 . S
C226 C231 1.399 . S
C227 C223 1.404 . S
C227 H228 0.950 . S
C227 C229 1.375 . S
H228 C227 0.950 . S
C229 C227 1.375 . S
C229 C231 1.382 . S
C229 H233 0.950 . S
H230 C225 0.949 . S
C231 C226 1.399 . S
C231 C229 1.382 . S
C231 H232 0.952 . S
H232 C231 0.952 . S
H233 C229 0.950 . S
H234 C242 0.929 . S
H235 C244 0.930 . S
H236 C246 0.930 . S
H237 C249 0.929 . S
H238 C252 0.930 . S
H239 C254 0.960 . S
H240 C254 0.960 . S
H241 C254 0.960 . S
C242 H234 0.929 . S
C242 C243 1.377 . S
C242 C244 1.384 . S
C243 C242 1.377 . S
C243 C249 1.390 . S
C244 H235 0.930 . S
C244 C242 1.384 . S
C244 C245 1.372 . S
C245 C244 1.372 . S
C245 C246 1.400 . S
C245 C250 1.490 . S
C246 H236 0.930 . S
C246 C245 1.400 . S
C246 C249 1.386 . S
H247 C263 0.930 . S
H248 C264 0.931 . S
C249 H237 0.929 . S
C249 C243 1.390 . S
C249 C246 1.386 . S
C250 C245 1.490 . S
C250 C252 1.395 . S
C250 C253 1.403 . S
H251 C257 0.930 . S
C252 H238 0.930 . S
C252 C250 1.395 . S
C252 C255 1.403 . S
C253 C250 1.403 . S
C253 C254 1.524 . S
C253 C257 1.400 . S
C254 H239 0.960 . S
C254 H240 0.960 . S
C254 H241 0.960 . S
C254 C253 1.524 . S
C255 C252 1.403 . S
C255 C256 1.392 . S
C255 C259 1.495 . S
C256 C255 1.392 . S
C256 C257 1.385 . S
C256 C258 1.478 . S
C257 H251 0.930 . S
C257 C253 1.400 . S
C257 C256 1.385 . S
C258 C256 1.478 . S
C258 C260 1.381 . S
C258 C264 1.383 . S
C259 C255 1.495 . S
C259 H265 0.959 . S
C259 H266 0.961 . S
C259 H267 0.960 . S
C260 C258 1.381 . S
C260 C261 1.394 . S
C260 H268 0.930 . S
C261 C260 1.394 . S
C261 C262 1.383 . S
C261 H269 0.929 . S
C262 C261 1.383 . S
C262 C263 1.377 . S
C263 H247 0.930 . S
C263 C262 1.377 . S
C263 C264 1.379 . S
C264 H248 0.931 . S
C264 C258 1.383 . S
C264 C263 1.379 . S
H265 C259 0.959 . S
H266 C259 0.961 . S
H267 C259 0.960 . S
H268 C260 0.930 . S
H269 C261 0.929 . S
H270 C278 0.929 . S
H271 C280 0.930 . S
H272 C282 0.930 . S
H273 C285 0.929 . S
H274 C288 0.930 . S
H275 C290 0.960 . S
H276 C290 0.960 . S
H277 C290 0.960 . S
C278 H270 0.929 . S
C278 C279 1.377 . S
C278 C280 1.384 . S
C279 C278 1.377 . S
C279 C285 1.390 . S
C280 H271 0.930 . S
C280 C278 1.384 . S
C280 C281 1.372 . S
C281 C280 1.372 . S
C281 C282 1.400 . S
C281 C286 1.490 . S
C282 H272 0.930 . S
C282 C281 1.400 . S
C282 C285 1.386 . S
H283 C299 0.930 . S
H284 C300 0.931 . S
C285 H273 0.929 . S
C285 C279 1.390 . S
C285 C282 1.386 . S
C286 C281 1.490 . S
C286 C288 1.395 . S
C286 C289 1.403 . S
H287 C293 0.930 . S
C288 H274 0.930 . S
C288 C286 1.395 . S
C288 C291 1.403 . S
C289 C286 1.403 . S
C289 C290 1.524 . S
C289 C293 1.400 . S
C290 H275 0.960 . S
C290 H276 0.960 . S
C290 H277 0.960 . S
C290 C289 1.524 . S
C291 C288 1.403 . S
C291 C292 1.392 . S
C291 C295 1.495 . S
C292 C291 1.392 . S
C292 C293 1.385 . S
C292 C294 1.478 . S
C293 H287 0.930 . S
C293 C289 1.400 . S
C293 C292 1.385 . S
C294 C292 1.478 . S
C294 C296 1.381 . S
C294 C300 1.383 . S
C295 C291 1.495 . S
C295 H301 0.959 . S
C295 H302 0.961 . S
C295 H303 0.960 . S
C296 C294 1.381 . S
C296 C297 1.394 . S
C296 H304 0.930 . S
C297 C296 1.394 . S
C297 C298 1.383 . S
C297 H305 0.929 . S
C298 C297 1.383 . S
C298 C299 1.377 . S
C299 H283 0.930 . S
C299 C298 1.377 . S
C299 C300 1.379 . S
C300 H284 0.931 . S
C300 C294 1.383 . S
C300 C299 1.379 . S
H301 C295 0.959 . S
H302 C295 0.961 . S
H303 C295 0.960 . S
H304 C296 0.930 . S
H305 C297 0.929 . S
H306 C314 0.929 . S
H307 C316 0.930 . S
H308 C318 0.930 . S
H309 C321 0.929 . S
H310 C324 0.930 . S
H311 C326 0.960 . S
H312 C326 0.960 . S
H313 C326 0.960 . S
C314 H306 0.929 . S
C314 C315 1.377 . S
C314 C316 1.384 . S
C315 C314 1.377 . S
C315 C321 1.390 . S
C316 H307 0.930 . S
C316 C314 1.384 . S
C316 C317 1.372 . S
C317 C316 1.372 . S
C317 C318 1.400 . S
C317 C322 1.490 . S
C318 H308 0.930 . S
C318 C317 1.400 . S
C318 C321 1.386 . S
H319 C335 0.930 . S
H320 C336 0.931 . S
C321 H309 0.929 . S
C321 C315 1.390 . S
C321 C318 1.386 . S
C322 C317 1.490 . S
C322 C324 1.395 . S
C322 C325 1.403 . S
H323 C329 0.930 . S
C324 H310 0.930 . S
C324 C322 1.395 . S
C324 C327 1.403 . S
C325 C322 1.403 . S
C325 C326 1.524 . S
C325 C329 1.400 . S
C326 H311 0.960 . S
C326 H312 0.960 . S
C326 H313 0.960 . S
C326 C325 1.524 . S
C327 C324 1.403 . S
C327 C328 1.392 . S
C327 C331 1.495 . S
C328 C327 1.392 . S
C328 C329 1.385 . S
C328 C330 1.478 . S
C329 H323 0.930 . S
C329 C325 1.400 . S
C329 C328 1.385 . S
C330 C328 1.478 . S
C330 C332 1.381 . S
C330 C336 1.383 . S
C331 C327 1.495 . S
C331 H337 0.959 . S
C331 H338 0.961 . S
C331 H339 0.960 . S
C332 C330 1.381 . S
C332 C333 1.394 . S
C332 H340 0.930 . S
C333 C332 1.394 . S
C333 C334 1.383 . S
C333 H341 0.929 . S
C334 C333 1.383 . S
C334 C335 1.377 . S
C335 H319 0.930 . S
C335 C334 1.377 . S
C335 C336 1.379 . S
C336 H320 0.931 . S
C336 C330 1.383 . S
C336 C335 1.379 . S
H337 C331 0.959 . S
H338 C331 0.961 . S
H339 C331 0.960 . S
H340 C332 0.930 . S
H341 C333 0.929 . S
H342 C350 0.929 . S
H343 C352 0.930 . S
H344 C354 0.930 . S
H345 C357 0.929 . S
H346 C360 0.930 . S
H347 C362 0.960 . S
H348 C362 0.960 . S
H349 C362 0.960 . S
C350 H342 0.929 . S
C350 C351 1.377 . S
C350 C352 1.384 . S
C351 C350 1.377 . S
C351 C357 1.390 . S
C352 H343 0.930 . S
C352 C350 1.384 . S
C352 C353 1.372 . S
C353 C352 1.372 . S
C353 C354 1.400 . S
C353 C358 1.490 . S
C354 H344 0.930 . S
C354 C353 1.400 . S
C354 C357 1.386 . S
H355 C371 0.930 . S
H356 C372 0.931 . S
C357 H345 0.929 . S
C357 C351 1.390 . S
C357 C354 1.386 . S
C358 C353 1.490 . S
C358 C360 1.395 . S
C358 C361 1.403 . S
H359 C365 0.930 . S
C360 H346 0.930 . S
C360 C358 1.395 . S
C360 C363 1.403 . S
C361 C358 1.403 . S
C361 C362 1.524 . S
C361 C365 1.400 . S
C362 H347 0.960 . S
C362 H348 0.960 . S
C362 H349 0.960 . S
C362 C361 1.524 . S
C363 C360 1.403 . S
C363 C364 1.392 . S
C363 C367 1.495 . S
C364 C363 1.392 . S
C364 C365 1.385 . S
C364 C366 1.478 . S
C365 H359 0.930 . S
C365 C361 1.400 . S
C365 C364 1.385 . S
C366 C364 1.478 . S
C366 C368 1.381 . S
C366 C372 1.383 . S
C367 C363 1.495 . S
C367 H373 0.959 . S
C367 H374 0.961 . S
C367 H375 0.960 . S
C368 C366 1.381 . S
C368 C369 1.394 . S
C368 H376 0.930 . S
C369 C368 1.394 . S
C369 C370 1.383 . S
C369 H377 0.929 . S
C370 C369 1.383 . S
C370 C371 1.377 . S
C371 H355 0.930 . S
C371 C370 1.377 . S
C371 C372 1.379 . S
C372 H356 0.931 . S
C372 C366 1.383 . S
C372 C371 1.379 . S
H373 C367 0.959 . S
H374 C367 0.961 . S
H375 C367 0.960 . S
H376 C368 0.930 . S
H377 C369 0.929 . S
H378 C386 0.929 . S
H379 C388 0.930 . S
H380 C390 0.930 . S
H381 C393 0.929 . S
H382 C396 0.930 . S
H383 C398 0.960 . S
H384 C398 0.960 . S
H385 C398 0.960 . S
C386 H378 0.929 . S
C386 C387 1.377 . S
C386 C388 1.384 . S
C387 C386 1.377 . S
C387 C393 1.390 . S
C388 H379 0.930 . S
C388 C386 1.384 . S
C388 C389 1.372 . S
C389 C388 1.372 . S
C389 C390 1.400 . S
C389 C394 1.490 . S
C390 H380 0.930 . S
C390 C389 1.400 . S
C390 C393 1.386 . S
H391 C407 0.930 . S
H392 C408 0.931 . S
C393 H381 0.929 . S
C393 C387 1.390 . S
C393 C390 1.386 . S
C394 C389 1.490 . S
C394 C396 1.395 . S
C394 C397 1.403 . S
H395 C401 0.930 . S
C396 H382 0.930 . S
C396 C394 1.395 . S
C396 C399 1.403 . S
C397 C394 1.403 . S
C397 C398 1.524 . S
C397 C401 1.400 . S
C398 H383 0.960 . S
C398 H384 0.960 . S
C398 H385 0.960 . S
C398 C397 1.524 . S
C399 C396 1.403 . S
C399 C400 1.392 . S
C399 C403 1.495 . S
C400 C399 1.392 . S
C400 C401 1.385 . S
C400 C402 1.478 . S
C401 H395 0.930 . S
C401 C397 1.400 . S
C401 C400 1.385 . S
C402 C400 1.478 . S
C402 C404 1.381 . S
C402 C408 1.383 . S
C403 C399 1.495 . S
C403 H409 0.959 . S
C403 H410 0.961 . S
C403 H411 0.960 . S
C404 C402 1.381 . S
C404 C405 1.394 . S
C404 H412 0.930 . S
C405 C404 1.394 . S
C405 C406 1.383 . S
C405 H413 0.929 . S
C406 C405 1.383 . S
C406 C407 1.377 . S
C407 H391 0.930 . S
C407 C406 1.377 . S
C407 C408 1.379 . S
C408 H392 0.931 . S
C408 C402 1.383 . S
C408 C407 1.379 . S
H409 C403 0.959 . S
H410 C403 0.961 . S
H411 C403 0.960 . S
H412 C404 0.930 . S
H413 C405 0.929 . S
H414 C422 0.929 . S
H415 C424 0.930 . S
H416 C426 0.930 . S
H417 C429 0.929 . S
H418 C432 0.930 . S
H419 C434 0.960 . S
H420 C434 0.960 . S
H421 C434 0.960 . S
C422 H414 0.929 . S
C422 C423 1.377 . S
C422 C424 1.384 . S
C423 C422 1.377 . S
C423 C429 1.390 . S
C424 H415 0.930 . S
C424 C422 1.384 . S
C424 C425 1.372 . S
C425 C424 1.372 . S
C425 C426 1.400 . S
C425 C430 1.490 . S
C426 H416 0.930 . S
C426 C425 1.400 . S
C426 C429 1.386 . S
H427 C443 0.930 . S
H428 C444 0.931 . S
C429 H417 0.929 . S
C429 C423 1.390 . S
C429 C426 1.386 . S
C430 C425 1.490 . S
C430 C432 1.395 . S
C430 C433 1.403 . S
H431 C437 0.930 . S
C432 H418 0.930 . S
C432 C430 1.395 . S
C432 C435 1.403 . S
C433 C430 1.403 . S
C433 C434 1.524 . S
C433 C437 1.400 . S
C434 H419 0.960 . S
C434 H420 0.960 . S
C434 H421 0.960 . S
C434 C433 1.524 . S
C435 C432 1.403 . S
C435 C436 1.392 . S
C435 C439 1.495 . S
C436 C435 1.392 . S
C436 C437 1.385 . S
C436 C438 1.478 . S
C437 H431 0.930 . S
C437 C433 1.400 . S
C437 C436 1.385 . S
C438 C436 1.478 . S
C438 C440 1.381 . S
C438 C444 1.383 . S
C439 C435 1.495 . S
C439 H445 0.959 . S
C439 H446 0.961 . S
C439 H447 0.960 . S
C440 C438 1.381 . S
C440 C441 1.394 . S
C440 H448 0.930 . S
C441 C440 1.394 . S
C441 C442 1.383 . S
C441 H449 0.929 . S
C442 C441 1.383 . S
C442 C443 1.377 . S
C443 H427 0.930 . S
C443 C442 1.377 . S
C443 C444 1.379 . S
C444 H428 0.931 . S
C444 C438 1.383 . S
C444 C443 1.379 . S
H445 C439 0.959 . S
H446 C439 0.961 . S
H447 C439 0.960 . S
H448 C440 0.930 . S
H449 C441 0.929 . S
H450 C458 0.929 . S
H451 C460 0.930 . S
H452 C462 0.930 . S
H453 C465 0.929 . S
H454 C468 0.930 . S
H455 C470 0.960 . S
H456 C470 0.960 . S
H457 C470 0.960 . S
C458 H450 0.929 . S
C458 C459 1.377 . S
C458 C460 1.384 . S
C459 C458 1.377 . S
C459 C465 1.390 . S
C460 H451 0.930 . S
C460 C458 1.384 . S
C460 C461 1.372 . S
C461 C460 1.372 . S
C461 C462 1.400 . S
C461 C466 1.490 . S
C462 H452 0.930 . S
C462 C461 1.400 . S
C462 C465 1.386 . S
H463 C479 0.930 . S
H464 C480 0.931 . S
C465 H453 0.929 . S
C465 C459 1.390 . S
C465 C462 1.386 . S
C466 C461 1.490 . S
C466 C468 1.395 . S
C466 C469 1.403 . S
H467 C473 0.930 . S
C468 H454 0.930 . S
C468 C466 1.395 . S
C468 C471 1.403 . S
C469 C466 1.403 . S
C469 C470 1.524 . S
C469 C473 1.400 . S
C470 H455 0.960 . S
C470 H456 0.960 . S
C470 H457 0.960 . S
C470 C469 1.524 . S
C471 C468 1.403 . S
C471 C472 1.392 . S
C471 C475 1.495 . S
C472 C471 1.392 . S
C472 C473 1.385 . S
C472 C474 1.478 . S
C473 H467 0.930 . S
C473 C469 1.400 . S
C473 C472 1.385 . S
C474 C472 1.478 . S
C474 C476 1.381 . S
C474 C480 1.383 . S
C475 C471 1.495 . S
C475 H481 0.959 . S
C475 H482 0.961 . S
C475 H483 0.960 . S
C476 C474 1.381 . S
C476 C477 1.394 . S
C476 H484 0.930 . S
C477 C476 1.394 . S
C477 C478 1.383 . S
C477 H485 0.929 . S
C478 C477 1.383 . S
C478 C479 1.377 . S
C479 H463 0.930 . S
C479 C478 1.377 . S
C479 C480 1.379 . S
C480 H464 0.931 . S
C480 C474 1.383 . S
C480 C479 1.379 . S
H481 C475 0.959 . S
H482 C475 0.961 . S
H483 C475 0.960 . S
H484 C476 0.930 . S
H485 C477 0.929 . S
H486 C494 0.929 . S
H487 C496 0.930 . S
H488 C498 0.930 . S
H489 C501 0.929 . S
H490 C504 0.930 . S
H491 C506 0.960 . S
H492 C506 0.960 . S
H493 C506 0.960 . S
C494 H486 0.929 . S
C494 C495 1.377 . S
C494 C496 1.384 . S
C495 C494 1.377 . S
C495 C501 1.390 . S
C496 H487 0.930 . S
C496 C494 1.384 . S
C496 C497 1.372 . S
C497 C496 1.372 . S
C497 C498 1.400 . S
C497 C502 1.490 . S
C498 H488 0.930 . S
C498 C497 1.400 . S
C498 C501 1.386 . S
H499 C515 0.930 1_455 S
H500 C516 0.931 . S
C501 H489 0.929 . S
C501 C495 1.390 . S
C501 C498 1.386 . S
C502 C497 1.490 . S
C502 C504 1.395 . S
C502 C505 1.403 . S
H503 C509 0.930 . S
C504 H490 0.930 . S
C504 C502 1.395 . S
C504 C507 1.403 . S
C505 C502 1.403 . S
C505 C506 1.524 . S
C505 C509 1.400 . S
C506 H491 0.960 . S
C506 H492 0.960 . S
C506 H493 0.960 . S
C506 C505 1.524 . S
C507 C504 1.403 . S
C507 C508 1.392 . S
C507 C511 1.495 . S
C508 C507 1.392 . S
C508 C509 1.385 . S
C508 C510 1.478 . S
C509 H503 0.930 . S
C509 C505 1.400 . S
C509 C508 1.385 . S
C510 C508 1.478 . S
C510 C512 1.381 . S
C510 C516 1.383 . S
C511 C507 1.495 . S
C511 H517 0.959 . S
C511 H518 0.961 . S
C511 H519 0.960 . S
C512 C510 1.381 . S
C512 C513 1.394 1_655 S
C512 H520 0.930 . S
C513 C512 1.394 1_455 S
C513 C514 1.383 . S
C513 H521 0.929 . S
C514 C513 1.383 . S
C514 C515 1.377 1_455 S
C515 H499 0.930 1_655 S
C515 C514 1.377 1_655 S
C515 C516 1.379 . S
C516 H500 0.931 . S
C516 C510 1.383 . S
C516 C515 1.379 . S
H517 C511 0.959 . S
H518 C511 0.961 . S
H519 C511 0.960 . S
H520 C512 0.930 . S
H521 C513 0.929 . S
H522 C530 0.929 . S
H523 C532 0.930 . S
H524 C534 0.930 . S
H525 C537 0.929 . S
H526 C540 0.930 . S
H527 C542 0.960 . S
H528 C542 0.960 . S
H529 C542 0.960 . S
C530 H522 0.929 . S
C530 C531 1.377 . S
C530 C532 1.384 . S
C531 C530 1.377 . S
C531 C537 1.390 . S
C532 H523 0.930 . S
C532 C530 1.384 . S
C532 C533 1.372 . S
C533 C532 1.372 . S
C533 C534 1.400 . S
C533 C538 1.490 . S
C534 H524 0.930 . S
C534 C533 1.400 . S
C534 C537 1.386 . S
H535 C551 0.930 . S
H536 C552 0.931 . S
C537 H525 0.929 . S
C537 C531 1.390 . S
C537 C534 1.386 . S
C538 C533 1.490 . S
C538 C540 1.395 . S
C538 C541 1.403 . S
H539 C545 0.930 . S
C540 H526 0.930 . S
C540 C538 1.395 . S
C540 C543 1.403 . S
C541 C538 1.403 . S
C541 C542 1.524 . S
C541 C545 1.400 . S
C542 H527 0.960 . S
C542 H528 0.960 . S
C542 H529 0.960 . S
C542 C541 1.524 . S
C543 C540 1.403 . S
C543 C544 1.392 . S
C543 C547 1.495 . S
C544 C543 1.392 . S
C544 C545 1.385 . S
C544 C546 1.478 . S
C545 H539 0.930 . S
C545 C541 1.400 . S
C545 C544 1.385 . S
C546 C544 1.478 . S
C546 C548 1.381 . S
C546 C552 1.383 . S
C547 C543 1.495 . S
C547 H553 0.959 . S
C547 H554 0.961 . S
C547 H555 0.960 . S
C548 C546 1.381 . S
C548 C549 1.394 1_565 S
C548 H556 0.930 . S
C549 C548 1.394 1_545 S
C549 C550 1.383 . S
C549 H557 0.929 . S
C550 C549 1.383 . S
C550 C551 1.377 1_545 S
C551 H535 0.930 . S
C551 C550 1.377 1_565 S
C551 C552 1.379 . S
C552 H536 0.931 . S
C552 C546 1.383 . S
C552 C551 1.379 . S
H553 C547 0.959 . S
H554 C547 0.961 . S
H555 C547 0.960 . S
H556 C548 0.930 . S
H557 C549 0.929 . S
H558 C566 0.929 . S
H559 C568 0.930 . S
H560 C570 0.930 . S
H561 C573 0.929 . S
H562 C576 0.930 . S
H563 C578 0.960 . S
H564 C578 0.960 . S
H565 C578 0.960 . S
C566 H558 0.929 . S
C566 C567 1.377 . S
C566 C568 1.384 . S
C567 C566 1.377 . S
C567 C573 1.390 . S
C568 H559 0.930 . S
C568 C566 1.384 . S
C568 C569 1.372 . S
C569 C568 1.372 . S
C569 C570 1.400 . S
C569 C574 1.490 . S
C570 H560 0.930 . S
C570 C569 1.400 . S
C570 C573 1.386 . S
H571 C587 0.930 . S
H572 C588 0.931 . S
C573 H561 0.929 . S
C573 C567 1.390 . S
C573 C570 1.386 . S
C574 C569 1.490 . S
C574 C576 1.395 . S
C574 C577 1.403 . S
H575 C581 0.930 . S
C576 H562 0.930 . S
C576 C574 1.395 . S
C576 C579 1.403 . S
C577 C574 1.403 . S
C577 C578 1.524 . S
C577 C581 1.400 . S
C578 H563 0.960 . S
C578 H564 0.960 . S
C578 H565 0.960 . S
C578 C577 1.524 . S
C579 C576 1.403 . S
C579 C580 1.392 . S
C579 C583 1.495 . S
C580 C579 1.392 . S
C580 C581 1.385 . S
C580 C582 1.478 . S
C581 H575 0.930 . S
C581 C577 1.400 . S
C581 C580 1.385 . S
C582 C580 1.478 . S
C582 C584 1.381 . S
C582 C588 1.383 . S
C583 C579 1.495 . S
C583 H589 0.959 . S
C583 H590 0.961 . S
C583 H591 0.960 . S
C584 C582 1.381 . S
C584 C585 1.394 . S
C584 H592 0.930 . S
C585 C584 1.394 . S
C585 C586 1.383 . S
C585 H593 0.929 . S
C586 C585 1.383 . S
C586 C587 1.377 . S
C587 H571 0.930 . S
C587 C586 1.377 . S
C587 C588 1.379 . S
C588 H572 0.931 . S
C588 C582 1.383 . S
C588 C587 1.379 . S
H589 C583 0.959 . S
H590 C583 0.961 . S
H591 C583 0.960 . S
H592 C584 0.930 . S
H593 C585 0.929 . S
H594 C602 0.929 . S
H595 C604 0.930 . S
H596 C606 0.930 . S
H597 C609 0.929 . S
H598 C612 0.930 . S
H599 C614 0.960 . S
H600 C614 0.960 . S
H601 C614 0.960 . S
C602 H594 0.929 . S
C602 C603 1.377 . S
C602 C604 1.384 . S
C603 C602 1.377 . S
C603 C609 1.390 . S
C604 H595 0.930 . S
C604 C602 1.384 . S
C604 C605 1.372 . S
C605 C604 1.372 . S
C605 C606 1.400 . S
C605 C610 1.490 . S
C606 H596 0.930 . S
C606 C605 1.400 . S
C606 C609 1.386 . S
H607 C623 0.930 . S
H608 C624 0.931 . S
C609 H597 0.929 . S
C609 C603 1.390 . S
C609 C606 1.386 . S
C610 C605 1.490 . S
C610 C612 1.395 . S
C610 C613 1.403 . S
H611 C617 0.930 . S
C612 H598 0.930 . S
C612 C610 1.395 . S
C612 C615 1.403 . S
C613 C610 1.403 . S
C613 C614 1.524 . S
C613 C617 1.400 . S
C614 H599 0.960 . S
C614 H600 0.960 . S
C614 H601 0.960 . S
C614 C613 1.524 . S
C615 C612 1.403 . S
C615 C616 1.392 . S
C615 C619 1.495 . S
C616 C615 1.392 . S
C616 C617 1.385 . S
C616 C618 1.478 . S
C617 H611 0.930 . S
C617 C613 1.400 . S
C617 C616 1.385 . S
C618 C616 1.478 . S
C618 C620 1.381 . S
C618 C624 1.383 . S
C619 C615 1.495 . S
C619 H625 0.959 . S
C619 H626 0.961 . S
C619 H627 0.960 . S
C620 C618 1.381 . S
C620 C621 1.394 . S
C620 H628 0.930 . S
C621 C620 1.394 . S
C621 C622 1.383 . S
C621 H629 0.929 . S
C622 C621 1.383 . S
C622 C623 1.377 . S
C623 H607 0.930 . S
C623 C622 1.377 . S
C623 C624 1.379 . S
C624 H608 0.931 . S
C624 C618 1.383 . S
C624 C623 1.379 . S
H625 C619 0.959 . S
H626 C619 0.961 . S
H627 C619 0.960 . S
H628 C620 0.930 . S
H629 C621 0.929 . S
H630 C638 0.929 . S
H631 C640 0.930 . S
H632 C642 0.930 . S
H633 C645 0.929 . S
H634 C648 0.930 . S
H635 C650 0.960 . S
H636 C650 0.960 . S
H637 C650 0.960 . S
C638 H630 0.929 . S
C638 C639 1.377 . S
C638 C640 1.384 . S
C639 C638 1.377 . S
C639 C645 1.390 . S
C640 H631 0.930 . S
C640 C638 1.384 . S
C640 C641 1.372 . S
C641 C640 1.372 . S
C641 C642 1.400 . S
C641 C646 1.490 . S
C642 H632 0.930 . S
C642 C641 1.400 . S
C642 C645 1.386 . S
H643 C659 0.930 . S
H644 C660 0.931 . S
C645 H633 0.929 . S
C645 C639 1.390 . S
C645 C642 1.386 . S
C646 C641 1.490 . S
C646 C648 1.395 . S
C646 C649 1.403 . S
H647 C653 0.930 . S
C648 H634 0.930 . S
C648 C646 1.395 . S
C648 C651 1.403 . S
C649 C646 1.403 . S
C649 C650 1.524 . S
C649 C653 1.400 . S
C650 H635 0.960 . S
C650 H636 0.960 . S
C650 H637 0.960 . S
C650 C649 1.524 . S
C651 C648 1.403 . S
C651 C652 1.392 . S
C651 C655 1.495 . S
C652 C651 1.392 . S
C652 C653 1.385 . S
C652 C654 1.478 . S
C653 H647 0.930 . S
C653 C649 1.400 . S
C653 C652 1.385 . S
C654 C652 1.478 . S
C654 C656 1.381 . S
C654 C660 1.383 . S
C655 C651 1.495 . S
C655 H661 0.959 . S
C655 H662 0.961 . S
C655 H663 0.960 . S
C656 C654 1.381 . S
C656 C657 1.394 . S
C656 H664 0.930 . S
C657 C656 1.394 . S
C657 C658 1.383 . S
C657 H665 0.929 . S
C658 C657 1.383 . S
C658 C659 1.377 . S
C659 H643 0.930 . S
C659 C658 1.377 . S
C659 C660 1.379 . S
C660 H644 0.931 . S
C660 C654 1.383 . S
C660 C659 1.379 . S
H661 C655 0.959 . S
H662 C655 0.961 . S
H663 C655 0.960 . S
H664 C656 0.930 . S
H665 C657 0.929 . S
H666 C674 0.929 . S
H667 C676 0.930 . S
H668 C678 0.930 . S
H669 C681 0.929 . S
H670 C684 0.930 . S
H671 C686 0.960 . S
H672 C686 0.960 . S
H673 C686 0.960 . S
C674 H666 0.929 . S
C674 C675 1.377 . S
C674 C676 1.384 . S
C675 C674 1.377 . S
C675 C681 1.390 . S
C676 H667 0.930 . S
C676 C674 1.384 . S
C676 C677 1.372 . S
C677 C676 1.372 . S
C677 C678 1.400 . S
C677 C682 1.490 . S
C678 H668 0.930 . S
C678 C677 1.400 . S
C678 C681 1.386 . S
H679 C695 0.930 . S
H680 C696 0.931 . S
C681 H669 0.929 . S
C681 C675 1.390 . S
C681 C678 1.386 . S
C682 C677 1.490 . S
C682 C684 1.395 . S
C682 C685 1.403 . S
H683 C689 0.930 . S
C684 H670 0.930 . S
C684 C682 1.395 . S
C684 C687 1.403 . S
C685 C682 1.403 . S
C685 C686 1.524 1_455 S
C685 C689 1.400 1_554 S
C686 H671 0.960 . S
C686 H672 0.960 . S
C686 H673 0.960 . S
C686 C685 1.524 1_655 S
C687 C684 1.403 . S
C687 C688 1.392 1_554 S
C687 C691 1.487 1_554 S
C688 C687 1.392 1_556 S
C688 C689 1.385 . S
C688 C690 1.478 . S
C689 H683 0.930 . S
C689 C685 1.400 1_556 S
C689 C688 1.385 . S
C690 C688 1.478 . S
C690 C692 1.381 . S
C690 C696 1.383 . S
C691 C687 1.487 1_556 S
C691 H697 0.943 1_556 S
C691 H698 0.969 . S
C691 H699 0.976 . S
C692 C690 1.381 . S
C692 C693 1.394 . S
C692 H700 0.930 . S
C693 C692 1.394 . S
C693 C694 1.383 . S
C693 H701 0.929 . S
C694 C693 1.383 . S
C694 C695 1.377 . S
C695 H679 0.930 . S
C695 C694 1.377 . S
C695 C696 1.379 . S
C696 H680 0.931 . S
C696 C690 1.383 . S
C696 C695 1.379 . S
H697 C691 0.943 1_554 S
H698 C691 0.969 . S
H699 C691 0.976 . S
H700 C692 0.930 . S
H701 C693 0.929 . S
H702 C710 0.929 . S
H703 C712 0.930 . S
H704 C714 0.930 . S
H705 C717 0.929 . S
H706 C720 0.930 . S
H707 C722 0.960 . S
H708 C722 0.960 . S
H709 C722 0.960 . S
C710 H702 0.929 . S
C710 C711 1.377 . S
C710 C712 1.384 . S
C711 C710 1.377 . S
C711 C717 1.390 . S
C712 H703 0.930 . S
C712 C710 1.384 . S
C712 C713 1.372 . S
C713 C712 1.372 . S
C713 C714 1.400 . S
C713 C718 1.490 . S
C714 H704 0.930 . S
C714 C713 1.400 . S
C714 C717 1.386 . S
H715 C731 0.930 . S
H716 C732 0.931 . S
C717 H705 0.929 . S
C717 C711 1.390 . S
C717 C714 1.386 . S
C718 C713 1.490 . S
C718 C720 1.395 . S
C718 C721 1.403 . S
H719 C725 0.930 . S
C720 H706 0.930 . S
C720 C718 1.395 . S
C720 C723 1.403 . S
C721 C718 1.403 . S
C721 C722 1.524 . S
C721 C725 1.400 . S
C722 H707 0.960 . S
C722 H708 0.960 . S
C722 H709 0.960 . S
C722 C721 1.524 . S
C723 C720 1.403 . S
C723 C724 1.392 . S
C723 C727 1.495 1_545 S
C724 C723 1.392 . S
C724 C725 1.385 . S
C724 C726 1.478 . S
C725 H719 0.930 . S
C725 C721 1.400 . S
C725 C724 1.385 . S
C726 C724 1.478 . S
C726 C728 1.381 . S
C726 C732 1.383 . S
C727 C723 1.495 1_565 S
C727 H733 0.959 . S
C727 H734 0.961 . S
C727 H735 0.960 . S
C728 C726 1.381 . S
C728 C729 1.394 . S
C728 H736 0.930 . S
C729 C728 1.394 . S
C729 C730 1.383 . S
C729 H737 0.929 . S
C730 C729 1.383 . S
C730 C731 1.377 . S
C731 H715 0.930 . S
C731 C730 1.377 . S
C731 C732 1.379 . S
C732 H716 0.931 . S
C732 C726 1.383 . S
C732 C731 1.379 . S
H733 C727 0.959 . S
H734 C727 0.961 . S
H735 C727 0.960 . S
H736 C728 0.930 . S
H737 C729 0.929 . S
H738 C746 0.929 . S
H739 C748 0.930 . S
H740 C750 0.930 . S
H741 C753 0.929 . S
H742 C756 0.930 . S
H743 C758 0.960 . S
H744 C758 0.960 . S
H745 C758 0.960 . S
C746 H738 0.929 . S
C746 C747 1.377 . S
C746 C748 1.384 . S
C747 C746 1.377 . S
C747 C753 1.390 . S
C748 H739 0.930 . S
C748 C746 1.384 . S
C748 C749 1.372 . S
C749 C748 1.372 . S
C749 C750 1.400 . S
C749 C754 1.490 . S
C750 H740 0.930 . S
C750 C749 1.400 . S
C750 C753 1.386 . S
H751 C767 0.930 . S
H752 C768 0.931 . S
C753 H741 0.929 . S
C753 C747 1.390 . S
C753 C750 1.386 . S
C754 C749 1.490 . S
C754 C756 1.395 . S
C754 C757 1.403 . S
H755 C761 0.930 . S
C756 H742 0.930 . S
C756 C754 1.395 . S
C756 C759 1.403 . S
C757 C754 1.403 . S
C757 C758 1.524 . S
C757 C761 1.400 . S
C758 H743 0.960 . S
C758 H744 0.960 . S
C758 H745 0.960 . S
C758 C757 1.524 . S
C759 C756 1.403 . S
C759 C760 1.392 . S
C759 C763 1.495 . S
C760 C759 1.392 . S
C760 C761 1.385 . S
C760 C762 1.478 . S
C761 H755 0.930 . S
C761 C757 1.400 . S
C761 C760 1.385 . S
C762 C760 1.478 . S
C762 C764 1.381 . S
C762 C768 1.383 . S
C763 C759 1.495 . S
C763 H769 0.959 . S
C763 H770 0.961 . S
C763 H771 0.960 . S
C764 C762 1.381 . S
C764 C765 1.394 . S
C764 H772 0.930 . S
C765 C764 1.394 . S
C765 C766 1.383 . S
C765 H773 0.929 . S
C766 C765 1.383 . S
C766 C767 1.377 . S
C767 H751 0.930 . S
C767 C766 1.377 . S
C767 C768 1.379 . S
C768 H752 0.931 . S
C768 C762 1.383 . S
C768 C767 1.379 . S
H769 C763 0.959 . S
H770 C763 0.961 . S
H771 C763 0.960 . S
H772 C764 0.930 . S
H773 C765 0.929 . S
H774 C782 0.929 . S
H775 C784 0.930 . S
H776 C786 0.930 . S
H777 C789 0.929 . S
H778 C792 0.930 . S
H779 C794 0.960 . S
H780 C794 0.960 . S
H781 C794 0.960 . S
C782 H774 0.929 . S
C782 C783 1.377 . S
C782 C784 1.384 . S
C783 C782 1.377 . S
C783 C789 1.390 . S
C784 H775 0.930 . S
C784 C782 1.384 . S
C784 C785 1.372 . S
C785 C784 1.372 . S
C785 C786 1.400 . S
C785 C790 1.490 . S
C786 H776 0.930 . S
C786 C785 1.400 . S
C786 C789 1.386 . S
H787 C803 0.930 . S
H788 C804 0.931 . S
C789 H777 0.929 . S
C789 C783 1.390 . S
C789 C786 1.386 . S
C790 C785 1.490 . S
C790 C792 1.395 . S
C790 C793 1.403 . S
H791 C797 0.930 . S
C792 H778 0.930 . S
C792 C790 1.395 . S
C792 C795 1.403 . S
C793 C790 1.403 . S
C793 C794 1.524 1_545 S
C793 C797 1.400 . S
C794 H779 0.960 . S
C794 H780 0.960 . S
C794 H781 0.960 . S
C794 C793 1.524 1_565 S
C795 C792 1.403 . S
C795 C796 1.392 . S
C795 C799 1.495 . S
C796 C795 1.392 . S
C796 C797 1.385 . S
C796 C798 1.478 . S
C797 H791 0.930 . S
C797 C793 1.400 . S
C797 C796 1.385 . S
C798 C796 1.478 . S
C798 C800 1.381 . S
C798 C804 1.383 . S
C799 C795 1.495 . S
C799 H805 0.959 . S
C799 H806 0.961 . S
C799 H807 0.960 . S
C800 C798 1.381 . S
C800 C801 1.394 . S
C800 H808 0.930 . S
C801 C800 1.394 . S
C801 C802 1.383 . S
C801 H809 0.929 . S
C802 C801 1.383 . S
C802 C803 1.377 . S
C803 H787 0.930 . S
C803 C802 1.377 . S
C803 C804 1.379 . S
C804 H788 0.931 . S
C804 C798 1.383 . S
C804 C803 1.379 . S
H805 C799 0.959 . S
H806 C799 0.961 . S
H807 C799 0.960 . S
H808 C800 0.930 . S
H809 C801 0.929 . S
H810 C818 0.929 . S
H811 C820 0.930 . S
H812 C822 0.930 . S
H813 C825 0.929 . S
H814 C828 0.930 . S
H815 C830 0.960 . S
H816 C830 0.960 . S
H817 C830 0.960 . S
C818 H810 0.929 . S
C818 C819 1.377 . S
C818 C820 1.384 . S
C819 C818 1.377 . S
C819 C825 1.390 . S
C820 H811 0.930 . S
C820 C818 1.384 . S
C820 C821 1.372 . S
C821 C820 1.372 . S
C821 C822 1.400 . S
C821 C826 1.490 . S
C822 H812 0.930 . S
C822 C821 1.400 . S
C822 C825 1.386 . S
H823 C839 0.930 . S
H824 C840 0.931 . S
C825 H813 0.929 . S
C825 C819 1.390 . S
C825 C822 1.386 . S
C826 C821 1.490 . S
C826 C828 1.395 . S
C826 C829 1.403 . S
H827 C833 0.941 . S
C828 H814 0.930 . S
C828 C826 1.395 . S
C828 C831 1.403 . S
C829 C826 1.403 . S
C829 C830 1.524 . S
C829 C833 1.385 1_556 S
C830 H815 0.960 . S
C830 H816 0.960 . S
C830 H817 0.960 . S
C830 C829 1.524 . S
C831 C828 1.403 . S
C831 C832 1.392 1_556 S
C831 C835 1.495 1_556 S
C832 C831 1.392 1_554 S
C832 C833 1.390 . S
C832 C834 1.478 . S
C833 H827 0.941 . S
C833 C829 1.385 1_554 S
C833 C832 1.390 . S
C834 C832 1.478 . S
C834 C836 1.381 . S
C834 C840 1.383 . S
C835 C831 1.495 1_554 S
C835 H841 0.959 1_554 S
C835 H842 0.961 . S
C835 H843 0.960 . S
C836 C834 1.381 . S
C836 C837 1.394 . S
C836 H844 0.930 . S
C837 C836 1.394 . S
C837 C838 1.383 . S
C837 H845 0.929 . S
C838 C837 1.383 . S
C838 C839 1.377 . S
C839 H823 0.930 . S
C839 C838 1.377 . S
C839 C840 1.379 . S
C840 H824 0.931 . S
C840 C834 1.383 . S
C840 C839 1.379 . S
H841 C835 0.959 1_556 S
H842 C835 0.961 . S
H843 C835 0.960 . S
H844 C836 0.930 . S
H845 C837 0.929 . S
H846 C854 0.929 1_655 S
H847 C856 0.930 1_655 S
H848 C858 0.930 . S
H849 C861 0.929 . S
H850 C864 0.930 . S
H851 C866 0.960 . S
H852 C866 0.971 . S
H853 C866 0.960 . S
C854 H846 0.929 1_455 S
C854 C855 1.377 . S
C854 C856 1.384 . S
C855 C854 1.377 . S
C855 C861 1.390 . S
C856 H847 0.930 1_455 S
C856 C854 1.384 . S
C856 C857 1.372 . S
C857 C856 1.372 . S
C857 C858 1.400 . S
C857 C862 1.490 . S
C858 H848 0.930 . S
C858 C857 1.400 . S
C858 C861 1.386 . S
H859 C875 0.930 . S
H860 C876 0.931 . S
C861 H849 0.929 . S
C861 C855 1.390 . S
C861 C858 1.386 . S
C862 C857 1.490 . S
C862 C864 1.395 . S
C862 C865 1.403 . S
H863 C869 0.930 . S
C864 H850 0.930 . S
C864 C862 1.395 . S
C864 C867 1.403 . S
C865 C862 1.403 . S
C865 C866 1.524 . S
C865 C869 1.400 . S
C866 H851 0.960 . S
C866 H852 0.971 . S
C866 H853 0.960 . S
C866 C865 1.524 . S
C867 C864 1.403 . S
C867 C868 1.392 . S
C867 C871 1.495 . S
C868 C867 1.392 . S
C868 C869 1.385 . S
C868 C870 1.478 . S
C869 H863 0.930 . S
C869 C865 1.400 . S
C869 C868 1.385 . S
C870 C868 1.478 . S
C870 C872 1.377 1_455 S
C870 C876 1.383 . S
C871 C867 1.495 . S
C871 H877 0.959 . S
C871 H878 0.961 . S
C871 H879 0.960 . S
C872 C870 1.377 1_655 S
C872 C873 1.395 . S
C872 H880 0.934 . S
C873 C872 1.395 . S
C873 C874 1.383 1_655 S
C873 H881 0.929 . S
C874 C873 1.383 1_455 S
C874 C875 1.377 . S
C875 H859 0.930 . S
C875 C874 1.377 . S
C875 C876 1.379 . S
C876 H860 0.931 . S
C876 C870 1.383 . S
C876 C875 1.379 . S
H877 C871 0.959 . S
H878 C871 0.961 . S
H879 C871 0.960 . S
H880 C872 0.934 . S
H881 C873 0.929 . S
C243 C10 3.267 . S
C262 C226 3.171 . S
C279 C55 1.306 . S
C298 C188 1.258 . S
C315 C90 1.986 . S
C334 C207 1.944 . S
C351 C19 2.875 . S
C370 C221 2.853 . S
C406 C183 1.106 . S
C387 C46 1.103 . S
C442 C202 1.862 . S
C423 C99 1.889 . S
C459 C50 1.999 . S
C478 C150 1.906 . S
C495 C95 0.328 . S
C514 C164 0.313 . S
C531 C6 1.105 . S
C550 C126 1.072 . S
C586 C145 1.827 . S
C567 C59 1.864 . S
C622 C169 0.554 . S
C603 C86 0.392 . S
C639 C15 1.294 . S
C658 C131 1.210 . S
C694 C160 1.388 . S
C675 C18 1.338 . S
C711 C49 1.577 . S
C730 C122 1.558 . S
C747 C98 1.512 . S
C766 C141 1.516 . S
C802 C198 1.523 . S
C783 C58 1.478 . S
C838 C217 1.759 . S
C819 C89 1.673 . S
C855 C9 1.565 . S
C874 C179 1.567 . S
