# Generated by pormake.
# Topology eea, (3,6)-cn, num edge types: 1
# Building blocks:
#     Node 0, Type 0, BuildingBlock: CUQRIR_clean_linker_1, # of connection points: 3
#     Node 1, Type 0, BuildingBlock: CUQRIR_clean_linker_1, # of connection points: 3
#     Node 2, Type 0, BuildingBlock: CUQRIR_clean_linker_1, # of connection points: 3
#     Node 3, Type 0, BuildingBlock: CUQRIR_clean_linker_1, # of connection points: 3
#     Node 4, Type 0, BuildingBlock: CUQRIR_clean_linker_1, # of connection points: 3
#     Node 5, Type 0, BuildingBlock: CUQRIR_clean_linker_1, # of connection points: 3
#     Node 6, Type 0, BuildingBlock: CUQRIR_clean_linker_1, # of connection points: 3
#     Node 7, Type 0, BuildingBlock: CUQRIR_clean_linker_1, # of connection points: 3
#     Node 8, Type 0, BuildingBlock: CUQRIR_clean_linker_1, # of connection points: 3
#     Node 9, Type 0, BuildingBlock: CUQRIR_clean_linker_1, # of connection points: 3
#     Node 10, Type 0, BuildingBlock: CUQRIR_clean_linker_1, # of connection points: 3
#     Node 11, Type 0, BuildingBlock: CUQRIR_clean_linker_1, # of connection points: 3
#     Node 12, Type 0, BuildingBlock: CUQRIR_clean_linker_1, # of connection points: 3
#     Node 13, Type 0, BuildingBlock: CUQRIR_clean_linker_1, # of connection points: 3
#     Node 14, Type 0, BuildingBlock: CUQRIR_clean_linker_1, # of connection points: 3
#     Node 15, Type 0, BuildingBlock: CUQRIR_clean_linker_1, # of connection points: 3
#     Node 16, Type 0, BuildingBlock: CUQRIR_clean_linker_1, # of connection points: 3
#     Node 17, Type 0, BuildingBlock: CUQRIR_clean_linker_1, # of connection points: 3
#     Node 18, Type 1, BuildingBlock: CUWYAW_clean_sbu_0, # of connection points: 6
#     Node 19, Type 1, BuildingBlock: CUWYAW_clean_sbu_0, # of connection points: 6
#     Node 20, Type 1, BuildingBlock: CUWYAW_clean_sbu_0, # of connection points: 6
#     Node 21, Type 1, BuildingBlock: CUWYAW_clean_sbu_0, # of connection points: 6
#     Node 22, Type 1, BuildingBlock: CUWYAW_clean_sbu_0, # of connection points: 6
#     Node 23, Type 1, BuildingBlock: CUWYAW_clean_sbu_0, # of connection points: 6
#     Node 24, Type 1, BuildingBlock: CUWYAW_clean_sbu_0, # of connection points: 6
#     Node 25, Type 1, BuildingBlock: CUWYAW_clean_sbu_0, # of connection points: 6
#     Node 26, Type 1, BuildingBlock: CUWYAW_clean_sbu_0, # of connection points: 6
#     Edge 27, Type (0, 1), BuildingBlock: KIFKEQ_clean_linker_1, # of connection points: 2
#     Edge 28, Type (0, 1), BuildingBlock: KIFKEQ_clean_linker_1, # of connection points: 2
#     Edge 29, Type (0, 1), BuildingBlock: KIFKEQ_clean_linker_1, # of connection points: 2
#     Edge 30, Type (0, 1), BuildingBlock: KIFKEQ_clean_linker_1, # of connection points: 2
#     Edge 31, Type (0, 1), BuildingBlock: KIFKEQ_clean_linker_1, # of connection points: 2
#     Edge 32, Type (0, 1), BuildingBlock: KIFKEQ_clean_linker_1, # of connection points: 2
#     Edge 33, Type (0, 1), BuildingBlock: KIFKEQ_clean_linker_1, # of connection points: 2
#     Edge 34, Type (0, 1), BuildingBlock: KIFKEQ_clean_linker_1, # of connection points: 2
#     Edge 35, Type (0, 1), BuildingBlock: KIFKEQ_clean_linker_1, # of connection points: 2
#     Edge 36, Type (0, 1), BuildingBlock: KIFKEQ_clean_linker_1, # of connection points: 2
#     Edge 37, Type (0, 1), BuildingBlock: KIFKEQ_clean_linker_1, # of connection points: 2
#     Edge 38, Type (0, 1), BuildingBlock: KIFKEQ_clean_linker_1, # of connection points: 2
#     Edge 39, Type (0, 1), BuildingBlock: KIFKEQ_clean_linker_1, # of connection points: 2
#     Edge 40, Type (0, 1), BuildingBlock: KIFKEQ_clean_linker_1, # of connection points: 2
#     Edge 41, Type (0, 1), BuildingBlock: KIFKEQ_clean_linker_1, # of connection points: 2
#     Edge 42, Type (0, 1), BuildingBlock: KIFKEQ_clean_linker_1, # of connection points: 2
#     Edge 43, Type (0, 1), BuildingBlock: KIFKEQ_clean_linker_1, # of connection points: 2
#     Edge 44, Type (0, 1), BuildingBlock: KIFKEQ_clean_linker_1, # of connection points: 2
#     Edge 45, Type (0, 1), BuildingBlock: KIFKEQ_clean_linker_1, # of connection points: 2
#     Edge 46, Type (0, 1), BuildingBlock: KIFKEQ_clean_linker_1, # of connection points: 2
#     Edge 47, Type (0, 1), BuildingBlock: KIFKEQ_clean_linker_1, # of connection points: 2
#     Edge 48, Type (0, 1), BuildingBlock: KIFKEQ_clean_linker_1, # of connection points: 2
#     Edge 49, Type (0, 1), BuildingBlock: KIFKEQ_clean_linker_1, # of connection points: 2
#     Edge 50, Type (0, 1), BuildingBlock: KIFKEQ_clean_linker_1, # of connection points: 2
#     Edge 51, Type (0, 1), BuildingBlock: KIFKEQ_clean_linker_1, # of connection points: 2
#     Edge 52, Type (0, 1), BuildingBlock: KIFKEQ_clean_linker_1, # of connection points: 2
#     Edge 53, Type (0, 1), BuildingBlock: KIFKEQ_clean_linker_1, # of connection points: 2
#     Edge 54, Type (0, 1), BuildingBlock: KIFKEQ_clean_linker_1, # of connection points: 2
#     Edge 55, Type (0, 1), BuildingBlock: KIFKEQ_clean_linker_1, # of connection points: 2
#     Edge 56, Type (0, 1), BuildingBlock: KIFKEQ_clean_linker_1, # of connection points: 2
#     Edge 57, Type (0, 1), BuildingBlock: KIFKEQ_clean_linker_1, # of connection points: 2
#     Edge 58, Type (0, 1), BuildingBlock: KIFKEQ_clean_linker_1, # of connection points: 2
#     Edge 59, Type (0, 1), BuildingBlock: KIFKEQ_clean_linker_1, # of connection points: 2
#     Edge 60, Type (0, 1), BuildingBlock: KIFKEQ_clean_linker_1, # of connection points: 2
#     Edge 61, Type (0, 1), BuildingBlock: KIFKEQ_clean_linker_1, # of connection points: 2
#     Edge 62, Type (0, 1), BuildingBlock: KIFKEQ_clean_linker_1, # of connection points: 2
#     Edge 63, Type (0, 1), BuildingBlock: KIFKEQ_clean_linker_1, # of connection points: 2
#     Edge 64, Type (0, 1), BuildingBlock: KIFKEQ_clean_linker_1, # of connection points: 2
#     Edge 65, Type (0, 1), BuildingBlock: KIFKEQ_clean_linker_1, # of connection points: 2
#     Edge 66, Type (0, 1), BuildingBlock: KIFKEQ_clean_linker_1, # of connection points: 2
#     Edge 67, Type (0, 1), BuildingBlock: KIFKEQ_clean_linker_1, # of connection points: 2
#     Edge 68, Type (0, 1), BuildingBlock: KIFKEQ_clean_linker_1, # of connection points: 2
#     Edge 69, Type (0, 1), BuildingBlock: KIFKEQ_clean_linker_1, # of connection points: 2
#     Edge 70, Type (0, 1), BuildingBlock: KIFKEQ_clean_linker_1, # of connection points: 2
#     Edge 71, Type (0, 1), BuildingBlock: KIFKEQ_clean_linker_1, # of connection points: 2
#     Edge 72, Type (0, 1), BuildingBlock: KIFKEQ_clean_linker_1, # of connection points: 2
#     Edge 73, Type (0, 1), BuildingBlock: KIFKEQ_clean_linker_1, # of connection points: 2
#     Edge 74, Type (0, 1), BuildingBlock: KIFKEQ_clean_linker_1, # of connection points: 2
#     Edge 75, Type (0, 1), BuildingBlock: KIFKEQ_clean_linker_1, # of connection points: 2
#     Edge 76, Type (0, 1), BuildingBlock: KIFKEQ_clean_linker_1, # of connection points: 2
#     Edge 77, Type (0, 1), BuildingBlock: KIFKEQ_clean_linker_1, # of connection points: 2
#     Edge 78, Type (0, 1), BuildingBlock: KIFKEQ_clean_linker_1, # of connection points: 2
#     Edge 79, Type (0, 1), BuildingBlock: KIFKEQ_clean_linker_1, # of connection points: 2
#     Edge 80, Type (0, 1), BuildingBlock: KIFKEQ_clean_linker_1, # of connection points: 2
# Relax obj value: 0.105
# Max RMSD: 0.247
# Mean RMSD: 0.179
data_MOF--net-eea--node1-CUWYAW_clean_sbu_0--node2-CUQRIR_clean_linker_1--edge1-KIFKEQ_clean_linker_1
_symmetry_space_group_name_H-M    P1
_symmetry_Int_Tables_number       1
_symmetry_cell_setting            triclinic
loop_
_symmetry_equiv_pos_as_xyz
'x, y, z'
_cell_length_a     49.741364
_cell_length_b     50.369477
_cell_length_c     67.203854
_cell_angle_alpha  87.091718
_cell_angle_beta   93.086441
_cell_angle_gamma 119.10137
loop_
_atom_site_label
_atom_site_type_symbol
_atom_site_fract_x
_atom_site_fract_y
_atom_site_fract_z
_atom_type_partial_charge
C0 C 0.20625 0.11756 0.40351 0.0
N1 N 0.21867 0.14157 0.41574 0.0
N2 N 0.21626 0.09752 0.40905 0.0
C3 C 0.18556 0.11442 0.3856 0.0
C4 C 0.23525 0.11024 0.42507 0.0
N5 N 0.23696 0.13714 0.42902 0.0
C6 C 0.25035 0.09534 0.43773 0.0
H7 H 0.16147 0.10407 0.39047 0.0
H8 H 0.18683 0.09961 0.37444 0.0
H9 H 0.1918 0.137 0.37857 0.0
H10 H 0.27428 0.10428 0.43289 0.0
H11 H 0.23786 0.07032 0.43619 0.0
H12 H 0.25136 0.10064 0.45367 0.0
C13 C 0.90939 0.12986 0.40905 0.0
N14 N 0.92471 0.15134 0.42295 0.0
N15 N 0.88725 0.10393 0.4175 0.0
C16 C 0.91717 0.13349 0.38741 0.0
C17 C 0.88963 0.11025 0.43704 0.0
N18 N 0.9126 0.1389 0.44047 0.0
C19 C 0.86789 0.08922 0.45252 0.0
H20 H 0.9084 0.11109 0.3805 0.0
H21 H 0.94244 0.14692 0.38571 0.0
H22 H 0.90639 0.14589 0.37936 0.0
H23 H 0.84633 0.07127 0.4456 0.0
H24 H 0.86203 0.1021 0.46277 0.0
H25 H 0.87933 0.07819 0.46148 0.0
C26 C 0.88092 0.75561 0.39957 0.0
N27 N 0.89846 0.74876 0.41266 0.0
N28 N 0.85281 0.74616 0.40679 0.0
C29 C 0.89126 0.77235 0.37989 0.0
C30 C 0.8537 0.73317 0.42473 0.0
N31 N 0.88131 0.7343 0.42821 0.0
C32 C 0.82932 0.72328 0.44001 0.0
H33 H 0.90232 0.79716 0.38224 0.0
H34 H 0.87126 0.7661 0.36936 0.0
H35 H 0.90813 0.76724 0.37324 0.0
H36 H 0.82104 0.69906 0.44432 0.0
H37 H 0.8094 0.72596 0.43434 0.0
H38 H 0.8394 0.73679 0.45362 0.0
C39 C 0.13321 0.27188 0.63959 0.0
N40 N 0.15684 0.2824 0.62712 0.0
N41 N 0.11344 0.28211 0.63358 0.0
C42 C 0.12919 0.25135 0.65753 0.0
C43 C 0.12588 0.29921 0.61695 0.0
N44 N 0.15255 0.29965 0.61313 0.0
C45 C 0.11023 0.31235 0.60313 0.0
H46 H 0.11784 0.22746 0.6527 0.0
H47 H 0.11459 0.25347 0.66857 0.0
H48 H 0.15187 0.25674 0.66464 0.0
H49 H 0.12226 0.33739 0.60459 0.0
H50 H 0.08568 0.30319 0.60656 0.0
H51 H 0.11177 0.30753 0.58742 0.0
C52 C 0.80832 0.91707 0.63823 0.0
N53 N 0.80318 0.89662 0.62411 0.0
N54 N 0.80884 0.94242 0.62988 0.0
C55 C 0.81502 0.91321 0.65996 0.0
C56 C 0.80398 0.93665 0.61015 0.0
N57 N 0.80093 0.90904 0.60661 0.0
C58 C 0.79989 0.95697 0.59449 0.0
H59 H 0.79295 0.90098 0.66777 0.0
H60 H 0.82934 0.93555 0.66692 0.0
H61 H 0.82708 0.89959 0.66194 0.0
H62 H 0.79158 0.97132 0.60104 0.0
H63 H 0.78334 0.94343 0.58249 0.0
H64 H 0.8224 0.97203 0.58769 0.0
C65 C 0.12255 0.92168 0.63493 0.0
N66 N 0.1076 0.89883 0.62189 0.0
N67 N 0.14583 0.94635 0.62595 0.0
C68 C 0.11435 0.92008 0.65635 0.0
C69 C 0.1442 0.93761 0.60696 0.0
N70 N 0.12095 0.90892 0.60449 0.0
C71 C 0.16512 0.9571 0.59066 0.0
H72 H 0.09761 0.92854 0.65722 0.0
H73 H 0.13505 0.93448 0.66568 0.0
H74 H 0.10355 0.89651 0.66254 0.0
H75 H 0.18482 0.95261 0.59027 0.0
H76 H 0.17407 0.9816 0.59328 0.0
H77 H 0.1529 0.95159 0.57591 0.0
C78 C 0.8691 0.44662 0.73678 0.0
N79 N 0.87706 0.46945 0.74962 0.0
N80 N 0.87141 0.42307 0.7459 0.0
C81 C 0.86154 0.44847 0.71495 0.0
C82 C 0.88098 0.4325 0.7648 0.0
N83 N 0.88451 0.4606 0.76701 0.0
C84 C 0.88624 0.41404 0.78134 0.0
H85 H 0.83628 0.43888 0.71275 0.0
H86 H 0.86895 0.43528 0.70612 0.0
H87 H 0.87286 0.47243 0.70933 0.0
H88 H 0.91078 0.41967 0.78175 0.0
H89 H 0.87161 0.38934 0.77897 0.0
H90 H 0.88123 0.4194 0.79603 0.0
C91 C 0.58286 0.45792 0.74377 0.0
N92 N 0.59726 0.48086 0.75684 0.0
N93 N 0.55432 0.43763 0.74982 0.0
C94 C 0.59549 0.45641 0.72425 0.0
C95 C 0.55162 0.44903 0.76692 0.0
N96 N 0.57751 0.47541 0.77115 0.0
C97 C 0.52425 0.43362 0.78004 0.0
H98 H 0.57665 0.44281 0.71341 0.0
H99 H 0.61004 0.44539 0.72685 0.0
H100 H 0.60982 0.47953 0.71772 0.0
H101 H 0.53158 0.43721 0.79602 0.0
H102 H 0.51097 0.40886 0.77744 0.0
H103 H 0.50896 0.44367 0.77662 0.0
C104 C 0.55219 0.08986 0.73858 0.0
N105 N 0.56932 0.08187 0.75131 0.0
N106 N 0.53001 0.09141 0.74846 0.0
C107 C 0.55928 0.09955 0.71707 0.0
C108 C 0.53434 0.08442 0.76758 0.0
N109 N 0.55842 0.07901 0.76937 0.0
C110 C 0.51471 0.08241 0.78449 0.0
H111 H 0.58452 0.11252 0.71513 0.0
H112 H 0.54894 0.11377 0.71148 0.0
H113 H 0.54977 0.07899 0.70793 0.0
H114 H 0.49157 0.07812 0.77892 0.0
H115 H 0.52608 0.10424 0.79237 0.0
H116 H 0.51217 0.06406 0.79535 0.0
C117 C 0.80276 0.61513 0.97042 0.0
N118 N 0.82456 0.61974 0.95739 0.0
N119 N 0.77883 0.61648 0.96081 0.0
C120 C 0.80318 0.60553 0.99198 0.0
C121 C 0.78669 0.62176 0.94149 0.0
N122 N 0.81435 0.62343 0.93936 0.0
C123 C 0.76736 0.62573 0.92485 0.0
H124 H 0.81237 0.58937 0.99367 0.0
H125 H 0.77996 0.59476 0.99831 0.0
H126 H 0.81865 0.62588 1.00069 0.0
H127 H 0.75263 0.63435 0.93061 0.0
H128 H 0.75214 0.6034 0.9181 0.0
H129 H 0.7821 0.64169 0.91311 0.0
C130 C 0.47051 0.24699 0.9711 0.0
N131 N 0.46571 0.2268 0.95686 0.0
N132 N 0.47034 0.2721 0.9629 0.0
C133 C 0.47788 0.24332 0.99273 0.0
C134 C 0.46542 0.26648 0.94317 0.0
N135 N 0.46301 0.2392 0.93946 0.0
C136 C 0.46109 0.28679 0.92762 0.0
H137 H 0.45603 0.23035 1.00069 0.0
H138 H 0.49164 0.26571 0.99974 0.0
H139 H 0.49079 0.23049 0.99446 0.0
H140 H 0.4835 0.30192 0.92073 0.0
H141 H 0.45278 0.30106 0.9343 0.0
H142 H 0.44445 0.27321 0.91567 0.0
C143 C 0.78069 0.25317 0.96696 0.0
N144 N 0.76885 0.22905 0.95478 0.0
N145 N 0.80933 0.2743 0.96148 0.0
C146 C 0.76504 0.25531 0.98485 0.0
C147 C 0.81447 0.26218 0.94553 0.0
N148 N 0.79008 0.23452 0.94159 0.0
C149 C 0.84222 0.27862 0.93278 0.0
H150 H 0.74947 0.26454 0.97998 0.0
H151 H 0.78208 0.27066 0.99601 0.0
H152 H 0.75097 0.23251 0.9919 0.0
H153 H 0.85937 0.27131 0.9376 0.0
H154 H 0.85308 0.3036 0.93427 0.0
H155 H 0.83585 0.27313 0.91685 0.0
C156 C 0.54077 0.78008 0.06927 0.0
N157 N 0.5522 0.80394 0.08157 0.0
N158 N 0.55012 0.75984 0.07562 0.0
C159 C 0.52138 0.77708 0.05069 0.0
C160 C 0.56767 0.77225 0.09223 0.0
N161 N 0.56919 0.79923 0.09577 0.0
C162 C 0.58096 0.75667 0.10594 0.0
H163 H 0.49692 0.76664 0.05477 0.0
H164 H 0.52354 0.76238 0.03985 0.0
H165 H 0.52807 0.79972 0.04359 0.0
H166 H 0.60548 0.76555 0.10249 0.0
H167 H 0.56858 0.73173 0.10399 0.0
H168 H 0.57984 0.76135 0.12174 0.0
C169 C 0.24064 0.79234 0.07551 0.0
N170 N 0.25625 0.81361 0.08949 0.0
N171 N 0.21838 0.76642 0.08393 0.0
C172 C 0.24827 0.79615 0.05384 0.0
C173 C 0.22104 0.77257 0.10353 0.0
N174 N 0.24421 0.80108 0.10699 0.0
C175 C 0.19965 0.75143 0.11911 0.0
H176 H 0.23924 0.77382 0.04679 0.0
H177 H 0.27354 0.8094 0.05209 0.0
H178 H 0.23767 0.80885 0.04598 0.0
H179 H 0.21116 0.7401 0.12764 0.0
H180 H 0.17781 0.73375 0.1123 0.0
H181 H 0.19436 0.76428 0.12974 0.0
C182 C 0.21554 0.42263 0.06993 0.0
N183 N 0.23512 0.41809 0.0826 0.0
N184 N 0.19133 0.42019 0.0797 0.0
C185 C 0.22008 0.42961 0.04794 0.0
C186 C 0.19674 0.41386 0.09882 0.0
N187 N 0.22334 0.41262 0.10057 0.0
C188 C 0.17805 0.41232 0.11619 0.0
H189 H 0.23358 0.45457 0.04539 0.0
H190 H 0.19755 0.42127 0.03978 0.0
H191 H 0.23292 0.41905 0.04196 0.0
H192 H 0.17924 0.39703 0.12827 0.0
H193 H 0.15363 0.40428 0.11174 0.0
H194 H 0.18767 0.43543 0.12219 0.0
C195 C 0.46786 0.95196 0.30674 0.0
N196 N 0.48983 0.95498 0.29432 0.0
N197 N 0.44706 0.95821 0.29692 0.0
C198 C 0.46531 0.94087 0.32813 0.0
C199 C 0.4572 0.96529 0.27812 0.0
N200 N 0.48332 0.96367 0.27658 0.0
C201 C 0.44001 0.97099 0.26084 0.0
H202 H 0.44908 0.91608 0.32888 0.0
H203 H 0.45602 0.95224 0.33712 0.0
H204 H 0.48801 0.94523 0.33466 0.0
H205 H 0.42441 0.97894 0.26606 0.0
H206 H 0.42603 0.94949 0.25284 0.0
H207 H 0.45637 0.98806 0.25021 0.0
C208 C 0.13913 0.58592 0.30416 0.0
N209 N 0.13369 0.56537 0.29006 0.0
N210 N 0.13789 0.61049 0.29598 0.0
C211 C 0.14791 0.58302 0.32561 0.0
C212 C 0.13164 0.60418 0.27638 0.0
N213 N 0.12954 0.57699 0.2727 0.0
C214 C 0.12485 0.62333 0.26116 0.0
H215 H 0.16199 0.60568 0.33222 0.0
H216 H 0.16101 0.57036 0.32701 0.0
H217 H 0.12664 0.57022 0.33418 0.0
H218 H 0.14623 0.63878 0.25329 0.0
H219 H 0.1166 0.63727 0.26834 0.0
H220 H 0.10717 0.60888 0.24996 0.0
C221 C 0.45257 0.58936 0.30073 0.0
N222 N 0.43902 0.5658 0.28813 0.0
N223 N 0.47786 0.61297 0.29258 0.0
C224 C 0.43986 0.58995 0.32041 0.0
C225 C 0.47906 0.60272 0.27454 0.0
N226 N 0.45539 0.5743 0.27178 0.0
C227 C 0.50442 0.61961 0.26004 0.0
H228 H 0.41444 0.57565 0.32016 0.0
H229 H 0.44607 0.6135 0.32413 0.0
H230 H 0.44963 0.58064 0.33225 0.0
H231 H 0.50802 0.60365 0.25121 0.0
H232 H 0.52637 0.63503 0.26792 0.0
H233 H 0.49786 0.63336 0.24952 0.0
C234 C 0.54989 0.04313 0.07547 0.0
Eu235 Eu 0.52767 0.03107 0.03901 0.0
C236 C 0.54449 0.02996 0.09577 0.0
C237 C 0.56115 0.04859 0.11165 0.0
C238 C 0.55704 0.03675 0.13114 0.0
C239 C 0.53616 1.00594 0.13512 0.0
C240 C 0.5194 0.98726 0.11909 0.0
C241 C 0.52357 0.99919 0.09952 0.0
C242 C 0.5125 0.06787 0.01566 0.0
C243 C 0.45433 0.9819 0.03713 0.0
C244 C 0.4788 0.99419 0.96316 0.0
Eu245 Eu 0.49753 1.00519 1.00027 0.0
C246 C 0.49367 1.00161 0.94374 0.0
C247 C 0.48709 0.97801 0.93087 0.0
C248 C 0.50141 0.98415 0.91261 0.0
C249 C 0.52245 1.01415 0.90673 0.0
C250 C 0.52926 0.03777 0.9198 0.0
C251 C 0.51511 0.03155 0.93817 0.0
C252 C 0.51142 0.96765 0.02354 0.0
C253 C 0.57118 0.05486 1.00204 0.0
O254 O 0.55864 0.03022 0.06281 0.0
O255 O 0.52986 0.05073 0.06764 0.0
O256 O 0.53777 0.07743 0.02633 0.0
O257 O 0.49573 0.03959 0.01829 0.0
O258 O 0.48043 0.99269 0.04789 0.0
O259 O 0.45455 0.98814 0.01778 0.0
O260 O 0.47939 1.01645 0.97277 0.0
O261 O 0.48421 0.97572 0.97485 0.0
O262 O 0.48647 0.9588 0.01262 0.0
O263 O 0.52891 0.99596 0.02119 0.0
O264 O 0.54547 0.04146 0.99104 0.0
O265 O 0.57092 0.0511 0.02158 0.0
H266 H 0.57736 0.07242 0.10897 0.0
H267 H 0.56983 0.05192 0.14313 0.0
H268 H 0.50327 0.96341 0.12165 0.0
H269 H 0.5106 0.98447 0.08735 0.0
H270 H 0.47091 0.9547 0.93499 0.0
H271 H 0.49598 0.96533 0.90312 0.0
H272 H 0.54501 0.06118 0.91568 0.0
H273 H 0.52087 0.05019 0.94792 0.0
C274 C 1.0008 0.53424 0.07801 0.0
Eu275 Eu 1.00242 0.52544 0.04017 0.0
C276 C 0.01469 0.53244 0.09761 0.0
C277 C 0.03529 0.52086 0.09999 0.0
C278 C 0.04818 0.51968 0.11891 0.0
C279 C 0.04062 0.53003 0.13573 0.0
C280 C 0.02 0.54169 0.13309 0.0
C281 C 0.00719 0.54282 0.11426 0.0
C282 C 0.96046 0.47721 0.01902 0.0
C283 C 0.04844 0.49814 0.03182 0.0
C284 C 0.02339 0.51768 0.96 0.0
Eu285 Eu 0.02064 0.52433 0.99795 0.0
C286 C 1.00658 0.51529 0.94081 0.0
C287 C 0.99609 0.53592 0.93477 0.0
C288 C 0.98213 0.53413 0.91582 0.0
C289 C 0.9785 0.51173 0.90259 0.0
C290 C 0.98819 0.49061 0.90902 0.0
C291 C 1.00213 0.49245 0.92787 0.0
C292 C 0.06239 0.57207 0.0196 0.0
C293 C 0.97374 0.55006 1.00571 0.0
O294 O 0.01868 0.55551 0.06548 0.0
O295 O 0.98263 0.50858 0.06936 0.0
O296 O 0.95324 0.49114 0.0317 0.0
O297 O 0.98934 0.48838 0.01877 0.0
O298 O 0.0383 0.50987 0.04478 0.0
O299 O 0.04187 0.498 0.01257 0.0
O300 O 0.01052 0.49482 0.97275 0.0
O301 O 0.03692 0.54406 0.96853 0.0
O302 O 0.0698 0.55797 1.0072 0.0
O303 O 0.03357 0.56128 0.01932 0.0
O304 O 0.98224 0.53608 0.99342 0.0
O305 O 0.98203 0.55247 0.02481 0.0
H306 H 0.0414 0.51278 0.08727 0.0
H307 H 0.06382 0.51041 0.12038 0.0
H308 H 0.01412 0.55049 0.14554 0.0
H309 H 0.99148 0.55201 0.11269 0.0
H310 H 0.99917 0.55374 0.94452 0.0
H311 H 0.97501 0.55079 0.91134 0.0
H312 H 0.98515 0.47265 0.89942 0.0
H313 H 0.00988 0.47621 0.93224 0.0
C314 C 0.48437 0.50486 0.95925 0.0
Eu315 Eu 0.49271 0.51104 0.99781 0.0
C316 C 0.50044 0.50556 0.94117 0.0
C317 C 0.49247 0.51535 0.92302 0.0
C318 C 0.50727 0.51679 0.90555 0.0
C319 C 0.53051 0.50847 0.90576 0.0
C320 C 0.53849 0.4986 0.92404 0.0
C321 C 0.52368 0.49727 0.94161 0.0
C322 C 0.49938 0.55904 0.01819 0.0
C323 C 0.56614 0.53697 0.01053 0.0
C324 C 0.52754 0.53545 0.08052 0.0
Eu325 Eu 0.51614 0.51569 0.04429 0.0
C326 C 0.51297 0.52878 0.10022 0.0
C327 C 0.52325 0.51648 0.11616 0.0
C328 C 0.51183 0.51323 0.13529 0.0
C329 C 0.49002 0.52247 0.13899 0.0
C330 C 0.47925 0.53409 0.12288 0.0
C331 C 0.49053 0.5372 0.1038 0.0
C332 C 0.5025 0.46128 0.02864 0.0
C333 C 0.44234 0.48137 0.03166 0.0
O334 O 0.47663 0.48186 0.97197 0.0
O335 O 0.49439 0.5308 0.96799 0.0
O336 O 0.47799 0.54567 1.00453 0.0
O337 O 0.51675 0.54726 0.01981 0.0
O338 O 0.54333 0.52488 0.99695 0.0
O339 O 0.56179 0.53871 0.02961 0.0
O340 O 0.51538 0.5453 0.0662 0.0
O341 O 0.53672 0.51698 0.07419 0.0
O342 O 0.51231 0.46818 0.04702 0.0
O343 O 0.50041 0.48323 0.02059 0.0
O344 O 0.46452 0.49505 0.04537 0.0
O345 O 0.44731 0.48184 0.01239 0.0
H346 H 0.47463 0.52186 0.92233 0.0
H347 H 0.50005 0.52397 0.89178 0.0
H348 H 0.55642 0.49223 0.92481 0.0
H349 H 0.53041 0.48987 0.95549 0.0
H350 H 0.54067 0.50999 0.11396 0.0
H351 H 0.52041 0.50383 0.14723 0.0
H352 H 0.46295 0.542 0.1251 0.0
H353 H 0.48224 0.54709 0.09199 0.0
C354 C 0.21573 0.38461 0.40905 0.0
Eu355 Eu 0.19507 0.37025 0.37252 0.0
C356 C 0.20957 0.37467 0.43001 0.0
C357 C 0.21603 0.39664 0.44416 0.0
C358 C 0.21206 0.38853 0.46436 0.0
C359 C 0.2016 0.35821 0.47081 0.0
C360 C 0.19494 0.3361 0.45658 0.0
C361 C 0.19881 0.34425 0.43628 0.0
C362 C 0.18079 0.40622 0.34761 0.0
C363 C 0.12209 0.32009 0.36985 0.0
C364 C 0.15035 0.33235 0.29622 0.0
Eu365 Eu 0.16708 0.34335 0.33363 0.0
C366 C 0.16572 0.34105 0.27694 0.0
C367 C 0.16184 0.31814 0.26424 0.0
C368 C 0.17613 0.32551 0.24592 0.0
C369 C 0.19438 0.35606 0.23975 0.0
C370 C 0.1987 0.37905 0.2527 0.0
C371 C 0.1846 0.37162 0.27115 0.0
C372 C 0.17981 0.30636 0.35817 0.0
C373 C 0.24077 0.39294 0.33681 0.0
O374 O 0.2236 0.36916 0.39787 0.0
O375 O 0.19742 0.39328 0.39973 0.0
O376 O 0.20579 0.41607 0.35858 0.0
O377 O 0.16395 0.37802 0.35056 0.0
O378 O 0.14768 0.33215 0.38113 0.0
O379 O 0.12302 0.32515 0.35032 0.0
O380 O 0.14864 0.35343 0.30583 0.0
O381 O 0.15707 0.31483 0.308 0.0
O382 O 0.15551 0.29727 0.34656 0.0
O383 O 0.19747 0.3347 0.35583 0.0
O384 O 0.21574 0.37931 0.32519 0.0
O385 O 0.23919 0.38955 0.35633 0.0
H386 H 0.22456 0.42025 0.43959 0.0
H387 H 0.21773 0.40613 0.47497 0.0
H388 H 0.18653 0.31251 0.46112 0.0
H389 H 0.19363 0.3269 0.42556 0.0
H390 H 0.14769 0.29441 0.26849 0.0
H391 H 0.17277 0.30719 0.23657 0.0
H392 H 0.21231 0.40281 0.24839 0.0
H393 H 0.18828 0.3898 0.28076 0.0
C394 C 0.67098 0.86762 0.41126 0.0
Eu395 Eu 0.67159 0.86152 0.37293 0.0
C396 C 0.6887 0.86926 0.43004 0.0
C397 C 0.6969 0.84684 0.43586 0.0
C398 C 0.71199 0.84818 0.45435 0.0
C399 C 0.71937 0.87207 0.46732 0.0
C400 C 0.71149 0.89463 0.46125 0.0
C401 C 0.69631 0.89319 0.44288 0.0
C402 C 0.62938 0.81427 0.35107 0.0
C403 C 0.71739 0.83507 0.36296 0.0
C404 C 0.69388 0.86026 0.29204 0.0
Eu405 Eu 0.68989 0.86315 0.33041 0.0
C406 C 0.67713 0.85903 0.27285 0.0
C407 C 0.68529 0.88563 0.26114 0.0
C408 C 0.6718 0.88421 0.24212 0.0
C409 C 0.64997 0.85611 0.23428 0.0
C410 C 0.64131 0.82959 0.2462 0.0
C411 C 0.65476 0.83101 0.26521 0.0
C412 C 0.73163 0.90948 0.35315 0.0
C413 C 0.6411 0.88614 0.33967 0.0
O414 O 0.68349 0.89066 0.39859 0.0
O415 O 0.65646 0.84148 0.40249 0.0
O416 O 0.62244 0.82698 0.36478 0.0
O417 O 0.65827 0.82576 0.35037 0.0
O418 O 0.70933 0.84838 0.37609 0.0
O419 O 0.70909 0.83426 0.34396 0.0
O420 O 0.6818 0.83639 0.30408 0.0
O421 O 0.70648 0.88576 0.30158 0.0
O422 O 0.73903 0.89592 0.34035 0.0
O423 O 0.70283 0.89874 0.35288 0.0
O424 O 0.65105 0.87439 0.32665 0.0
O425 O 0.64862 0.88697 0.35885 0.0
H426 H 0.69144 0.82814 0.42623 0.0
H427 H 0.71799 0.83061 0.45846 0.0
H428 H 0.71639 0.91312 0.47093 0.0
H429 H 0.69005 0.91062 0.43881 0.0
H430 H 0.70264 0.90756 0.26649 0.0
H431 H 0.67877 0.90512 0.23346 0.0
H432 H 0.62496 0.8075 0.24056 0.0
H433 H 0.6482 0.81001 0.27369 0.0
C434 C 0.15013 0.84252 0.29219 0.0
Eu435 Eu 0.15844 0.84899 0.3307 0.0
C436 C 0.16623 0.84175 0.27451 0.0
C437 C 0.16283 0.85545 0.25656 0.0
C438 C 0.17744 0.85506 0.23943 0.0
C439 C 0.1958 0.84084 0.23982 0.0
C440 C 0.19941 0.8273 0.25792 0.0
C441 C 0.18488 0.82786 0.27513 0.0
C442 C 0.16492 0.89693 0.35107 0.0
C443 C 0.232 0.87545 0.34307 0.0
C444 C 0.19427 0.87352 0.4132 0.0
Eu445 Eu 0.18235 0.85389 0.37699 0.0
C446 C 0.17994 0.86608 0.43297 0.0
C447 C 0.19309 0.85707 0.4491 0.0
C448 C 0.18181 0.85329 0.46829 0.0
C449 C 0.15729 0.85877 0.47186 0.0
C450 C 0.14356 0.86686 0.45554 0.0
C451 C 0.15468 0.87041 0.43637 0.0
C452 C 0.16911 0.79957 0.36138 0.0
C453 C 0.10845 0.81927 0.36486 0.0
O454 O 0.14069 0.81952 0.30506 0.0
O455 O 0.16142 0.86877 0.30074 0.0
O456 O 0.14351 0.88348 0.33743 0.0
O457 O 0.18244 0.88532 0.35259 0.0
O458 O 0.20908 0.86273 0.32962 0.0
O459 O 0.22772 0.87754 0.36208 0.0
O460 O 0.18144 0.88309 0.39915 0.0
O461 O 0.20397 0.85565 0.40656 0.0
O462 O 0.1791 0.80664 0.37971 0.0
O463 O 0.16669 0.82135 0.35333 0.0
O464 O 0.13078 0.83293 0.37847 0.0
O465 O 0.11318 0.81986 0.34554 0.0
H466 H 0.14859 0.86632 0.25573 0.0
H467 H 0.17375 0.86533 0.22575 0.0
H468 H 0.21362 0.81642 0.25882 0.0
H469 H 0.18818 0.81742 0.28885 0.0
H470 H 0.21263 0.85366 0.44696 0.0
H471 H 0.19268 0.84655 0.48039 0.0
H472 H 0.125 0.87175 0.45764 0.0
H473 H 0.14399 0.87751 0.42434 0.0
C474 C 0.89416 0.71096 0.74264 0.0
Eu475 Eu 0.86505 0.70186 0.70828 0.0
C476 C 0.89314 0.69552 0.76188 0.0
C477 C 0.91764 0.70977 0.77571 0.0
C478 C 0.91525 0.69822 0.79524 0.0
C479 C 0.88823 0.67222 0.80125 0.0
C480 C 0.86443 0.65691 0.78696 0.0
C481 C 0.86685 0.66854 0.76739 0.0
C482 C 0.84451 0.73669 0.68674 0.0
C483 C 0.79311 0.64903 0.70292 0.0
C484 C 0.81238 0.6694 0.62716 0.0
Eu485 Eu 0.83541 0.67525 0.66332 0.0
C486 C 0.82584 0.67926 0.60734 0.0
C487 C 0.81447 0.65849 0.59189 0.0
C488 C 0.82852 0.66623 0.57347 0.0
C489 C 0.85416 0.69499 0.5701 0.0
C490 C 0.86527 0.71599 0.58552 0.0
C491 C 0.85137 0.70812 0.60404 0.0
C492 C 0.85555 0.64006 0.68467 0.0
C493 C 0.90816 0.72683 0.66879 0.0
O494 O 0.90205 0.70168 0.72718 0.0
O495 O 0.87144 0.71684 0.73864 0.0
O496 O 0.85548 0.74231 0.70495 0.0
O497 O 0.8452 0.71334 0.68188 0.0
O498 O 0.81781 0.66278 0.71502 0.0
O499 O 0.79374 0.65314 0.68312 0.0
O500 O 0.81491 0.69049 0.63898 0.0
O501 O 0.81772 0.6489 0.63646 0.0
O502 O 0.84417 0.63461 0.66655 0.0
O503 O 0.85628 0.66413 0.6896 0.0
O504 O 0.8845 0.71059 0.65645 0.0
O505 O 0.9062 0.72572 0.68851 0.0
H506 H 0.93811 0.7306 0.77164 0.0
H507 H 0.93412 0.71024 0.80584 0.0
H508 H 0.84324 0.63698 0.79117 0.0
H509 H 0.8477 0.65729 0.75684 0.0
H510 H 0.79497 0.63605 0.59418 0.0
H511 H 0.81915 0.64974 0.56179 0.0
H512 H 0.88507 0.73826 0.58337 0.0
H513 H 0.8609 0.72439 0.61585 0.0
C514 C 0.33941 0.20443 0.74275 0.0
Eu515 Eu 0.34154 0.19668 0.70481 0.0
C516 C 0.35569 0.20489 0.76193 0.0
C517 C 0.36388 0.18239 0.76748 0.0
C518 C 0.37822 0.18295 0.78615 0.0
C519 C 0.38486 0.20615 0.79954 0.0
C520 C 0.37685 0.22873 0.79377 0.0
C521 C 0.36243 0.22806 0.77522 0.0
C522 C 0.30047 0.14776 0.68404 0.0
C523 C 0.3882 0.16996 0.69758 0.0
C524 C 0.36352 0.18576 0.62537 0.0
Eu525 Eu 0.36008 0.19409 0.66296 0.0
C526 C 0.35126 0.18826 0.60532 0.0
C527 C 0.37081 0.19681 0.58922 0.0
C528 C 0.35956 0.19715 0.56977 0.0
C529 C 0.3284 0.18881 0.56597 0.0
C530 C 0.30903 0.18132 0.58225 0.0
C531 C 0.32036 0.18102 0.60178 0.0
C532 C 0.40129 0.24307 0.68386 0.0
C533 C 0.31311 0.22045 0.6696 0.0
O534 O 0.35425 0.22681 0.73 0.0
O535 O 0.32341 0.17827 0.73415 0.0
O536 O 0.29262 0.16241 0.69571 0.0
O537 O 0.32933 0.15883 0.68434 0.0
O538 O 0.37972 0.18423 0.70972 0.0
O539 O 0.37953 0.16684 0.67861 0.0
O540 O 0.34474 0.16443 0.63755 0.0
O541 O 0.3818 0.21112 0.63429 0.0
O542 O 0.40902 0.22875 0.67184 0.0
O543 O 0.37243 0.23184 0.6836 0.0
O544 O 0.32258 0.207 0.65753 0.0
O545 O 0.3207 0.22293 0.68882 0.0
H546 H 0.35909 0.1643 0.75747 0.0
H547 H 0.38434 0.16539 0.79003 0.0
H548 H 0.38119 0.24668 0.80379 0.0
H549 H 0.35622 0.24556 0.77132 0.0
H550 H 0.39475 0.20266 0.59165 0.0
H551 H 0.37525 0.20359 0.55765 0.0
H552 H 0.28489 0.17463 0.57984 0.0
H553 H 0.30487 0.17448 0.61403 0.0
C554 C 0.81677 0.173 0.62771 0.0
Eu555 Eu 0.8252 0.17831 0.66631 0.0
C556 C 0.83276 0.17392 0.60946 0.0
C557 C 0.83146 0.19146 0.59292 0.0
C558 C 0.84525 0.19224 0.57513 0.0
C559 C 0.86064 0.17533 0.57332 0.0
C560 C 0.86246 0.15817 0.59009 0.0
C561 C 0.84867 0.15747 0.60797 0.0
C562 C 0.83049 0.22536 0.68717 0.0
C563 C 0.89897 0.2055 0.67837 0.0
C564 C 0.86183 0.20319 0.74867 0.0
Eu565 Eu 0.84984 0.18374 0.7124 0.0
C566 C 0.84747 0.19534 0.76839 0.0
C567 C 0.86532 0.1966 0.78558 0.0
C568 C 0.85326 0.19266 0.80454 0.0
C569 C 0.82313 0.18763 0.80671 0.0
C570 C 0.80493 0.18534 0.78944 0.0
C571 C 0.81689 0.189 0.77048 0.0
C572 C 0.83765 0.12978 0.69658 0.0
C573 C 0.7759 0.14701 0.7006 0.0
O574 O 0.80858 0.14967 0.64021 0.0
O575 O 0.82689 0.19877 0.63671 0.0
O576 O 0.80836 0.21099 0.67412 0.0
O577 O 0.84895 0.21487 0.68811 0.0
O578 O 0.87595 0.19226 0.66504 0.0
O579 O 0.89486 0.2082 0.6973 0.0
O580 O 0.84881 0.21276 0.73473 0.0
O581 O 0.87155 0.18542 0.74193 0.0
O582 O 0.8477 0.13687 0.71489 0.0
O583 O 0.8346 0.15129 0.68872 0.0
O584 O 0.79826 0.16222 0.71391 0.0
O585 O 0.78057 0.14708 0.68132 0.0
H586 H 0.8195 0.2045 0.59371 0.0
H587 H 0.84382 0.2062 0.56277 0.0
H588 H 0.87387 0.14465 0.58926 0.0
H589 H 0.85017 0.14382 0.62051 0.0
H590 H 0.88896 0.20159 0.78436 0.0
H591 H 0.86799 0.19483 0.81752 0.0
H592 H 0.78153 0.18113 0.79059 0.0
H593 H 0.80245 0.18767 0.7575 0.0
H594 H 0.31312 0.8314 0.10542 0.0
H595 H 0.26114 0.86006 0.0654 0.0
H596 H 0.36117 0.87478 0.09419 0.0
H597 H 0.30878 0.9041 0.05446 0.0
H598 H 0.44409 0.96458 0.07671 0.0
H599 H 0.39594 0.92771 0.09182 0.0
H600 H 0.34938 0.91313 0.03399 0.0
H601 H 0.3971 0.95055 0.01911 0.0
C602 C 0.31207 0.84768 0.09468 0.0
C603 C 0.28358 0.84249 0.08624 0.0
C604 C 0.33957 0.87254 0.08816 0.0
C605 C 0.33915 0.89292 0.07309 0.0
C606 C 0.31028 0.88861 0.06567 0.0
C607 C 0.2829 0.86363 0.07208 0.0
C608 C 0.4235 0.95373 0.06725 0.0
C609 C 0.42462 0.96068 0.04664 0.0
C610 C 0.39582 0.93236 0.07592 0.0
C611 C 0.36846 0.91721 0.06423 0.0
C612 C 0.36963 0.92458 0.04366 0.0
C613 C 0.3972 0.94601 0.03503 0.0
H614 H 0.12934 0.38758 0.07928 0.0
H615 H 0.20545 0.47528 0.06414 0.0
H616 H 0.09301 0.4058 0.06814 0.0
H617 H 0.16941 0.49306 0.05211 0.0
H618 H 0.09056 0.49297 0.01069 0.0
H619 H 0.12459 0.47281 0.02241 0.0
H620 H 0.08507 0.45375 0.08047 0.0
H621 H 0.05122 0.47452 0.06891 0.0
C622 C 0.13813 0.4107 0.07355 0.0
C623 C 0.16994 0.43017 0.07255 0.0
C624 C 0.11753 0.42105 0.0672 0.0
C625 C 0.12863 0.45074 0.05933 0.0
C626 C 0.16044 0.47001 0.05804 0.0
C627 C 0.18095 0.45987 0.06478 0.0
C628 C 0.08902 0.48437 0.02593 0.0
C629 C 0.06835 0.48534 0.03893 0.0
C630 C 0.10851 0.47296 0.0326 0.0
C631 C 0.10722 0.46178 0.05225 0.0
C632 C 0.08621 0.46216 0.0652 0.0
C633 C 0.0671 0.47418 0.05864 0.0
H634 H 0.49341 0.71224 0.06991 0.0
H635 H 0.58962 0.74302 0.0626 0.0
H636 H 0.48035 0.66271 0.0569 0.0
H637 H 0.57703 0.69412 0.04883 0.0
H638 H 0.54842 0.59476 0.0426 0.0
H639 H 0.55987 0.64266 0.05713 0.0
H640 H 0.47771 0.63711 0.02796 0.0
H641 H 0.46554 0.58839 0.01442 0.0
C642 C 0.51166 0.70834 0.06523 0.0
C643 C 0.54244 0.73119 0.06716 0.0
C644 C 0.5043 0.68008 0.05772 0.0
C645 C 0.5276 0.67418 0.05179 0.0
C646 C 0.55845 0.69744 0.05358 0.0
C647 C 0.56575 0.72554 0.06129 0.0
C648 C 0.53257 0.60357 0.03958 0.0
C649 C 0.50591 0.58765 0.02755 0.0
C650 C 0.53933 0.63129 0.04769 0.0
C651 C 0.51984 0.64405 0.0437 0.0
C652 C 0.49307 0.62792 0.03168 0.0
C653 C 0.48616 0.60003 0.02377 0.0
H654 H 0.7984 0.32084 0.96723 0.0
H655 H 0.86708 0.2924 0.97567 0.0
H656 H 0.83481 0.37073 0.98044 0.0
H657 H 0.90346 0.34172 0.98941 0.0
H658 H 0.97179 0.44223 0.99452 0.0
H659 H 0.9348 0.39355 0.98039 0.0
H660 H 0.86128 0.39709 0.00956 0.0
H661 H 0.8982 0.44628 0.02296 0.0
C662 C 0.82124 0.32527 0.97221 0.0
C663 C 0.83005 0.30295 0.97048 0.0
C664 C 0.84214 0.35378 0.97981 0.0
C665 C 0.87232 0.36053 0.98595 0.0
C666 C 0.88077 0.33777 0.98448 0.0
C667 C 0.85991 0.3094 0.97677 0.0
C668 C 0.94768 0.4327 0.99774 0.0
C669 C 0.93793 0.44812 0.00983 0.0
C670 C 0.92643 0.40459 0.9898 0.0
C671 C 0.89489 0.39105 0.99388 0.0
C672 C 0.88521 0.40681 1.00583 0.0
C673 C 0.90644 0.435 0.01364 0.0
H674 H 0.76343 0.64184 0.98934 0.0
H675 H 0.72719 0.56732 0.94922 0.0
H676 H 0.71167 0.62341 1.00205 0.0
H677 H 0.67577 0.54834 0.96192 0.0
H678 H 0.58422 0.54207 0.97232 0.0
H679 H 0.63608 0.56276 0.96071 0.0
H680 H 0.67217 0.58079 0.02138 0.0
H681 H 0.61999 0.56065 0.03312 0.0
C682 C 0.74422 0.62153 0.98332 0.0
C683 C 0.74875 0.60609 0.96822 0.0
C684 C 0.7148 0.61086 0.99061 0.0
C685 C 0.68962 0.58454 0.98287 0.0
C686 C 0.69453 0.56902 0.96789 0.0
C687 C 0.72381 0.57975 0.96063 0.0
C688 C 0.60311 0.5504 0.98326 0.0
C689 C 0.59789 0.54953 1.00369 0.0
C690 C 0.63289 0.56217 0.97658 0.0
C691 C 0.6582 0.57321 0.99014 0.0
C692 C 0.65311 0.57269 0.01056 0.0
C693 C 0.62322 0.56097 0.01729 0.0
H694 H 0.50744 0.21419 0.94223 0.0
H695 H 0.4287 0.17793 0.97928 0.0
H696 H 0.51725 0.17236 0.95337 0.0
H697 H 0.43817 0.13605 0.99054 0.0
H698 H 0.45571 0.05475 0.99931 0.0
H699 H 0.44142 0.0899 0.9812 0.0
H700 H 0.53565 0.16172 0.98659 0.0
H701 H 0.54973 0.12682 1.00469 0.0
C702 C 0.49173 0.19666 0.95229 0.0
C703 C 0.46732 0.19905 0.95989 0.0
C704 C 0.49746 0.17294 0.95885 0.0
C705 C 0.47865 0.15099 0.97301 0.0
C706 C 0.45298 0.15238 0.97955 0.0
C707 C 0.44751 0.17628 0.97314 0.0
C708 C 0.47334 0.078 0.99647 0.0
C709 C 0.50377 0.08813 1.00357 0.0
C710 C 0.46517 0.09813 0.98614 0.0
C711 C 0.4874 0.12863 0.9824 0.0
C712 C 0.51802 0.13834 0.98897 0.0
C713 C 0.52605 0.11839 0.9995 0.0
H714 H 0.7119 0.22278 0.9515 0.0
H715 H 0.76133 0.17333 0.96433 0.0
H716 H 0.66358 0.17758 0.96063 0.0
H717 H 0.71316 0.12798 0.97383 0.0
H718 H 0.57867 0.08272 0.96505 0.0
H719 H 0.62632 0.12268 0.95084 0.0
H720 H 0.6777 0.11683 1.0031 0.0
H721 H 0.6301 0.07719 0.01746 0.0
C722 C 0.71215 0.20192 0.95592 0.0
C723 C 0.74008 0.20129 0.95714 0.0
C724 C 0.68461 0.17608 0.96113 0.0
C725 C 0.68453 0.14919 0.96806 0.0
C726 C 0.71247 0.14838 0.96868 0.0
C727 C 0.73994 0.17412 0.9631 0.0
C728 C 0.60016 0.08964 0.97342 0.0
C729 C 0.60049 0.07674 0.99245 0.0
C730 C 0.62744 0.11268 0.9653 0.0
C731 C 0.65582 0.12298 0.97584 0.0
C732 C 0.65629 0.10925 0.99452 0.0
C733 C 0.62896 0.08661 1.00279 0.0
H734 H 0.83282 0.5762 0.94213 0.0
H735 H 0.87255 0.65025 0.98269 0.0
H736 H 0.8717 0.56171 0.95293 0.0
H737 H 0.91213 0.63642 0.99346 0.0
H738 H 0.95775 0.55489 0.96675 0.0
H739 H 0.92535 0.57579 0.9534 0.0
H740 H 0.91293 0.59524 0.01308 0.0
H741 H 0.94613 0.57513 0.02644 0.0
C742 C 0.85056 0.58982 0.95297 0.0
C743 C 0.85007 0.61431 0.96159 0.0
C744 C 0.87278 0.5816 0.9592 0.0
C745 C 0.89492 0.59781 0.97416 0.0
C746 C 0.89509 0.62317 0.98215 0.0
C747 C 0.87275 0.63128 0.97594 0.0
C748 C 0.94823 0.56374 0.97705 0.0
C749 C 0.9544 0.5632 0.99769 0.0
C750 C 0.92957 0.57564 0.96937 0.0
C751 C 0.91651 0.58713 0.98216 0.0
C752 C 0.92303 0.587 1.00279 0.0
C753 C 0.94185 0.57523 0.01047 0.0
H754 H 0.44013 0.27459 0.99435 0.0
H755 H 0.51133 0.33022 0.95349 0.0
H756 H 0.44731 0.32034 0.01042 0.0
H757 H 0.51858 0.37607 0.96931 0.0
H758 H 0.50019 0.45153 0.98883 0.0
H759 H 0.49162 0.40531 0.97296 0.0
H760 H 0.48541 0.36204 0.03099 0.0
H761 H 0.49326 0.40813 0.0467 0.0
C762 C 0.45746 0.29667 0.98895 0.0
C763 C 0.47513 0.29898 0.9727 0.0
C764 C 0.46161 0.32285 0.9981 0.0
C765 C 0.48344 0.35193 0.9911 0.0
C766 C 0.50122 0.35411 0.97488 0.0
C767 C 0.49716 0.32792 0.96584 0.0
C768 C 0.49638 0.43194 0.99812 0.0
C769 C 0.49682 0.43322 0.01894 0.0
C770 C 0.49193 0.40559 0.98907 0.0
C771 C 0.48775 0.37988 1.00069 0.0
C772 C 0.48813 0.38124 0.02157 0.0
C773 C 0.49279 0.40768 0.03059 0.0
H774 H 0.21307 0.71098 0.09056 0.0
H775 H 0.17445 0.75951 0.05618 0.0
H776 H 0.17484 0.66323 0.07535 0.0
H777 H 0.13581 0.7118 0.041 0.0
H778 H 0.12402 0.59351 0.02505 0.0
H779 H 0.16197 0.64061 0.04073 0.0
H780 H 0.08984 0.6613 0.05263 0.0
H781 H 0.05175 0.61387 0.03714 0.0
C782 C 0.19636 0.71127 0.07967 0.0
C783 C 0.1966 0.73869 0.0744 0.0
C784 C 0.17456 0.68408 0.07095 0.0
C785 C 0.15224 0.68373 0.05701 0.0
C786 C 0.15252 0.71129 0.05181 0.0
C787 C 0.17467 0.73856 0.06032 0.0
C788 C 0.11626 0.60805 0.0311 0.0
C789 C 0.08495 0.60005 0.02984 0.0
C790 C 0.13797 0.63496 0.04014 0.0
C791 C 0.12893 0.65475 0.04785 0.0
C792 C 0.09755 0.64667 0.04666 0.0
C793 C 0.07573 0.61946 0.0379 0.0
H794 H 0.26002 0.38069 0.08536 0.0
H795 H 0.27923 0.47205 0.06955 0.0
H796 H 0.31034 0.39209 0.07278 0.0
H797 H 0.32856 0.48312 0.05627 0.0
H798 H 0.39061 0.47511 0.01134 0.0
H799 H 0.3397 0.45705 0.02504 0.0
H800 H 0.37153 0.43538 0.08131 0.0
H801 H 0.42256 0.45397 0.06784 0.0
C802 C 0.27528 0.40327 0.07951 0.0
C803 C 0.266 0.42552 0.07826 0.0
C804 C 0.30374 0.40968 0.07216 0.0
C805 C 0.32279 0.43824 0.0632 0.0
C806 C 0.31392 0.46076 0.06274 0.0
C807 C 0.28594 0.45453 0.0704 0.0
C808 C 0.38654 0.46593 0.02648 0.0
C809 C 0.41051 0.46613 0.03858 0.0
C810 C 0.35755 0.45576 0.03433 0.0
C811 C 0.35196 0.44503 0.05422 0.0
C812 C 0.37534 0.44347 0.06592 0.0
C813 C 0.40448 0.45422 0.05823 0.0
H814 H 0.5958 0.86046 0.07136 0.0
H815 H 0.50014 0.80666 0.08489 0.0
H816 H 0.58722 0.9029 0.05991 0.0
H817 H 0.49136 0.84914 0.07452 0.0
H818 H 0.47628 0.90669 0.02593 0.0
H819 H 0.48751 0.86979 0.04322 0.0
H820 H 0.57428 0.94225 0.06534 0.0
H821 H 0.5632 0.9796 0.0471 0.0
C822 C 0.57315 0.85825 0.07244 0.0
C823 C 0.54854 0.83054 0.07884 0.0
C824 C 0.56816 0.88247 0.06595 0.0
C825 C 0.53843 0.87938 0.0659 0.0
C826 C 0.51438 0.85217 0.07377 0.0
C827 C 0.51933 0.82793 0.07993 0.0
C828 C 0.49776 0.91489 0.03452 0.0
C829 C 0.51891 0.94608 0.03507 0.0
C830 C 0.5041 0.89364 0.04468 0.0
C831 C 0.5317 0.90287 0.05595 0.0
C832 C 0.55287 0.93424 0.05672 0.0
C833 C 0.54652 0.95567 0.04636 0.0
H834 H 0.98168 0.17057 0.43922 0.0
H835 H 0.92892 0.19685 0.39813 0.0
H836 H 0.02942 0.21401 0.42761 0.0
H837 H 0.97627 0.24078 0.38668 0.0
H838 H 0.06525 0.28685 0.35148 0.0
H839 H 0.0175 0.24934 0.36647 0.0
H840 H 0.06312 0.26744 0.42465 0.0
H841 H 0.11114 0.30444 0.40954 0.0
C842 C 0.98037 0.18633 0.42816 0.0
C843 C 0.95174 0.18044 0.41955 0.0
C844 C 0.00769 0.21121 0.4214 0.0
C845 C 0.00697 0.23086 0.40589 0.0
C846 C 0.97798 0.22587 0.39825 0.0
C847 C 0.95078 0.20095 0.40496 0.0
C848 C 0.06511 0.28306 0.36749 0.0
C849 C 0.09223 0.29877 0.37922 0.0
C850 C 0.03754 0.26158 0.37617 0.0
C851 C 0.03615 0.25516 0.39688 0.0
C852 C 0.0632 0.27134 0.40865 0.0
C853 C 0.0908 0.29279 0.39996 0.0
H854 H 0.86234 0.80203 0.41275 0.0
H855 H 0.7981 0.71633 0.38729 0.0
H856 H 0.8282 0.82289 0.40241 0.0
H857 H 0.76344 0.73685 0.37684 0.0
H858 H 0.73271 0.80006 0.34149 0.0
H859 H 0.76457 0.77722 0.35253 0.0
H860 H 0.77625 0.8147 0.41076 0.0
H861 H 0.74456 0.83775 0.39978 0.0
C862 C 0.84073 0.78781 0.40493 0.0
C863 C 0.83251 0.75784 0.40066 0.0
C864 C 0.82119 0.79953 0.39914 0.0
C865 C 0.79317 0.78142 0.38889 0.0
C866 C 0.78502 0.75132 0.3846 0.0
C867 C 0.80459 0.73955 0.39056 0.0
C868 C 0.74205 0.80343 0.35665 0.0
C869 C 0.73627 0.82087 0.36972 0.0
C870 C 0.76008 0.79015 0.36299 0.0
C871 C 0.77285 0.79424 0.38247 0.0
C872 C 0.76689 0.81145 0.39559 0.0
C873 C 0.74868 0.82455 0.38931 0.0
H874 H 0.25529 0.08122 0.39456 0.0
H875 H 0.15945 0.04964 0.4041 0.0
H876 H 0.24241 0.03233 0.38065 0.0
H877 H 0.14614 1.00017 0.3908 0.0
H878 H 0.13064 0.92589 0.34774 0.0
H879 H 0.14279 0.9746 0.36137 0.0
H880 H 0.22577 0.98087 0.38964 0.0
H881 H 0.21422 0.9329 0.37516 0.0
C882 C 0.23144 0.06359 0.39369 0.0
C883 C 0.20832 0.069 0.40029 0.0
C884 C 0.22399 0.03551 0.38589 0.0
C885 C 0.19319 1.01204 0.38468 0.0
C886 C 0.17004 0.01772 0.39121 0.0
C887 C 0.17756 0.04595 0.39887 0.0
C888 C 0.15142 0.93768 0.35692 0.0
C889 C 0.17139 0.9255 0.36046 0.0
C890 C 0.15833 0.96556 0.36486 0.0
C891 C 0.18534 0.98188 0.37662 0.0
C892 C 0.20504 0.96932 0.38039 0.0
C893 C 0.19824 0.94158 0.37231 0.0
H894 H 0.50463 0.62336 0.32966 0.0
H895 H 0.49882 0.66864 0.27471 0.0
H896 H 0.54078 0.67276 0.34382 0.0
H897 H 0.53654 0.7178 0.28841 0.0
H898 H 0.6372 0.78643 0.31959 0.0
H899 H 0.59968 0.73786 0.30498 0.0
H900 H 0.53374 0.72693 0.34814 0.0
H901 H 0.57059 0.776 0.36219 0.0
C902 C 0.51096 0.64384 0.32066 0.0
C903 C 0.49887 0.6421 0.30107 0.0
C904 C 0.53179 0.67202 0.32869 0.0
C905 C 0.54152 0.69895 0.31712 0.0
C906 C 0.52959 0.69729 0.29754 0.0
C907 C 0.50817 0.6692 0.2897 0.0
C908 C 0.61461 0.77384 0.3258 0.0
C909 C 0.60682 0.78515 0.34195 0.0
C910 C 0.5932 0.74607 0.31747 0.0
C911 C 0.56393 0.72873 0.32552 0.0
C912 C 0.5562 0.73988 0.34174 0.0
C913 C 0.57728 0.76798 0.34971 0.0
H914 H 0.39637 0.90942 0.28388 0.0
H915 H 0.42926 0.98405 0.32367 0.0
H916 H 0.344 0.8899 0.29514 0.0
H917 H 0.37664 0.96511 0.33492 0.0
H918 H 0.2857 0.90082 0.36565 0.0
H919 H 0.33803 0.92223 0.35413 0.0
H920 H 0.3026 0.90198 0.29346 0.0
H921 H 0.25039 0.87993 0.30491 0.0
C922 C 0.39203 0.92177 0.29487 0.0
C923 C 0.41632 0.94816 0.30291 0.0
C924 C 0.3622 0.91075 0.30129 0.0
C925 C 0.35616 0.92602 0.31588 0.0
C926 C 0.38064 0.95268 0.32381 0.0
C927 C 0.41056 0.96364 0.31736 0.0
C928 C 0.28906 0.9009 0.34986 0.0
C929 C 0.26382 0.8885 0.33623 0.0
C930 C 0.31907 0.91339 0.34325 0.0
C931 C 0.32444 0.91378 0.32289 0.0
C932 C 0.29921 0.90162 0.30927 0.0
C933 C 0.26925 0.88906 0.31586 0.0
H934 H 0.17442 0.5522 0.27447 0.0
H935 H 0.09783 0.51716 0.31332 0.0
H936 H 0.1842 0.51016 0.28513 0.0
H937 H 0.10723 0.47504 0.32406 0.0
H938 H 0.12377 0.39313 0.33173 0.0
H939 H 0.10932 0.42837 0.3139 0.0
H940 H 0.20387 0.49977 0.31817 0.0
H941 H 0.21811 0.46481 0.33602 0.0
C942 C 0.15919 0.53492 0.28486 0.0
C943 C 0.13541 0.53769 0.29311 0.0
C944 C 0.16488 0.51107 0.29111 0.0
C945 C 0.14663 0.48937 0.30557 0.0
C946 C 0.12157 0.49118 0.31281 0.0
C947 C 0.11617 0.51523 0.30672 0.0
C948 C 0.14144 0.41629 0.32866 0.0
C949 C 0.17201 0.42632 0.33541 0.0
C950 C 0.13318 0.43646 0.31851 0.0
C951 C 0.15545 0.46689 0.31459 0.0
C952 C 0.1862 0.47645 0.32072 0.0
C953 C 0.19433 0.45647 0.33109 0.0
H954 H 0.38331 0.54371 0.26932 0.0
H955 H 0.43399 0.52357 0.31586 0.0
H956 H 0.33546 0.49903 0.27968 0.0
H957 H 0.38688 0.47816 0.32587 0.0
H958 H 0.29525 0.42866 0.35658 0.0
H959 H 0.34313 0.46749 0.34298 0.0
H960 H 0.30338 0.44556 0.28331 0.0
H961 H 0.25464 0.40712 0.29713 0.0
C962 C 0.38417 0.52908 0.28142 0.0
C963 C 0.41208 0.53688 0.29186 0.0
C964 C 0.35684 0.50345 0.28739 0.0
C965 C 0.35697 0.48498 0.30388 0.0
C966 C 0.3855 0.49211 0.31349 0.0
C967 C 0.41261 0.51788 0.30766 0.0
C968 C 0.29665 0.4318 0.34053 0.0
C969 C 0.27091 0.41461 0.32801 0.0
C970 C 0.32439 0.45409 0.33265 0.0
C971 C 0.32751 0.45983 0.31194 0.0
C972 C 0.30191 0.44216 0.29933 0.0
C973 C 0.27396 0.41988 0.30726 0.0
H974 H 0.47868 0.89961 0.308 0.0
H975 H 0.55114 0.98768 0.28959 0.0
H976 H 0.51693 0.88417 0.31888 0.0
H977 H 0.58965 0.97176 0.29961 0.0
H978 H 0.63653 0.90713 0.30217 0.0
H979 H 0.60067 0.9249 0.28971 0.0
H980 H 0.56249 0.90872 0.34806 0.0
H981 H 0.59875 0.8916 0.36072 0.0
C982 C 0.50286 0.91554 0.30622 0.0
C983 C 0.5122 0.94497 0.29837 0.0
C984 C 0.52463 0.90673 0.31236 0.0
C985 C 0.55609 0.92697 0.31027 0.0
C986 C 0.56544 0.95586 0.30138 0.0
C987 C 0.54357 0.96488 0.29558 0.0
C988 C 0.6206 0.90755 0.31236 0.0
C989 C 0.62032 0.89793 0.33241 0.0
C990 C 0.60027 0.91783 0.30524 0.0
C991 C 0.57893 0.91801 0.31795 0.0
C992 C 0.57876 0.90862 0.338 0.0
C993 C 0.59952 0.89897 0.34523 0.0
H994 H 0.10938 0.61291 0.32839 0.0
H995 H 0.17678 0.66871 0.28538 0.0
H996 H 0.11633 0.65863 0.34436 0.0
H997 H 0.1838 0.71455 0.30111 0.0
H998 H 0.16413 0.78878 0.32159 0.0
H999 H 0.15589 0.74263 0.30576 0.0
H1000 H 0.15504 0.7014 0.36386 0.0
H1001 H 0.16263 0.74741 0.37952 0.0
C1002 C 0.12585 0.63503 0.3225 0.0
C1003 C 0.14254 0.63739 0.30569 0.0
C1004 C 0.12986 0.6612 0.33158 0.0
C1005 C 0.15055 0.69031 0.32397 0.0
C1006 C 0.16732 0.69255 0.30717 0.0
C1007 C 0.16341 0.66638 0.29819 0.0
C1008 C 0.16165 0.76967 0.3309 0.0
C1009 C 0.16355 0.77151 0.35173 0.0
C1010 C 0.15734 0.74335 0.32188 0.0
C1011 C 0.15474 0.71822 0.33354 0.0
C1012 C 0.15654 0.72012 0.35443 0.0
C1013 C 0.16105 0.74653 0.36341 0.0
H1014 H 0.84299 0.09663 0.38992 0.0
H1015 H 0.8825 0.04871 0.42406 0.0
H1016 H 0.80445 0.04876 0.37488 0.0
H1017 H 0.84439 1.00079 0.40894 0.0
H1018 H 0.79337 0.93117 0.35833 0.0
H1019 H 0.83127 0.97823 0.3741 0.0
H1020 H 0.75885 0.99802 0.38694 0.0
H1021 H 0.72082 0.95063 0.37139 0.0
C1022 C 0.84343 0.07577 0.39403 0.0
C1023 C 0.86558 0.07612 0.40801 0.0
C1024 C 0.82135 0.04842 0.3856 0.0
C1025 C 0.82135 0.02098 0.39076 0.0
C1026 C 0.8439 0.02155 0.40458 0.0
C1027 C 0.86562 0.04882 0.41323 0.0
C1028 C 0.78553 0.94549 0.36463 0.0
C1029 C 0.75416 0.93728 0.36359 0.0
C1030 C 0.80722 0.97238 0.37371 0.0
C1031 C 0.79808 0.99192 0.38168 0.0
C1032 C 0.76662 0.98358 0.38076 0.0
C1033 C 0.74485 0.95639 0.37197 0.0
H1034 H 0.92344 0.71171 0.41351 0.0
H1035 H 0.94484 0.80538 0.40667 0.0
H1036 H 0.97526 0.72558 0.40237 0.0
H1037 H 0.99579 0.81907 0.39479 0.0
H1038 H 0.05637 0.8136 0.34536 0.0
H1039 H 1.00554 0.79445 0.35954 0.0
H1040 H 0.03835 0.77087 0.41469 0.0
H1041 H 0.08936 0.79066 0.40081 0.0
C1042 C 0.93954 0.73528 0.41003 0.0
C1043 C 0.93031 0.75748 0.41056 0.0
C1044 C 0.96886 0.74314 0.40352 0.0
C1045 C 0.98893 0.7732 0.39731 0.0
C1046 C 0.98037 0.79565 0.39914 0.0
C1047 C 0.95143 0.7879 0.40597 0.0
C1048 C 0.05255 0.80382 0.36036 0.0
C1049 C 0.07674 0.80373 0.37202 0.0
C1050 C 0.02363 0.79305 0.36848 0.0
C1051 C 0.01835 0.78138 0.38818 0.0
C1052 C 0.042 0.77972 0.39947 0.0
C1053 C 0.07108 0.7911 0.39152 0.0
H1054 H 0.16713 0.14501 0.41995 0.0
H1055 H 0.26253 0.19797 0.40559 0.0
H1056 H 0.15881 0.18793 0.41004 0.0
H1057 H 0.2544 0.24082 0.39464 0.0
H1058 H 0.23142 0.31813 0.38194 0.0
H1059 H 0.2421 0.28062 0.40034 0.0
H1060 H 0.15468 0.20855 0.37875 0.0
H1061 H 0.14389 0.24558 0.36126 0.0
C1062 C 0.18638 0.16619 0.41494 0.0
C1063 C 0.21536 0.16841 0.41343 0.0
C1064 C 0.18168 0.19068 0.40904 0.0
C1065 C 0.20577 0.21777 0.40106 0.0
C1066 C 0.23532 0.22051 0.40077 0.0
C1067 C 0.24006 0.19604 0.40699 0.0
C1068 C 0.2145 0.29426 0.38137 0.0
C1069 C 0.18689 0.2848 0.37009 0.0
C1070 C 0.22061 0.27274 0.39182 0.0
C1071 C 0.19918 0.24142 0.39121 0.0
C1072 C 0.17149 0.23235 0.38007 0.0
C1073 C 0.16541 0.25368 0.36979 0.0
H1074 H 0.61174 0.5402 0.7567 0.0
H1075 H 0.65035 0.48088 0.75084 0.0
H1076 H 0.66001 0.58369 0.74504 0.0
H1077 H 0.69779 0.52379 0.73838 0.0
H1078 H 0.74414 0.59989 0.68577 0.0
H1079 H 0.69774 0.56081 0.70189 0.0
H1080 H 0.72855 0.60855 0.75703 0.0
H1081 H 0.77553 0.64733 0.74117 0.0
C1082 C 0.63082 0.53666 0.75344 0.0
C1083 C 0.6273 0.5072 0.75452 0.0
C1084 C 0.65824 0.56139 0.74659 0.0
C1085 C 0.68233 0.55689 0.74052 0.0
C1086 C 0.67943 0.52777 0.74275 0.0
C1087 C 0.65239 0.50331 0.74992 0.0
C1088 C 0.74094 0.6023 0.70126 0.0
C1089 C 0.76361 0.62678 0.71215 0.0
C1090 C 0.71444 0.57986 0.71049 0.0
C1091 C 0.70964 0.58176 0.73067 0.0
C1092 C 0.7317 0.60666 0.74144 0.0
C1093 C 0.75857 0.62877 0.73234 0.0
H1094 H 0.48597 0.06681 0.71974 0.0
H1095 H 0.52831 0.14036 0.76063 0.0
H1096 H 0.45 0.08473 0.70765 0.0
H1097 H 0.49315 0.15902 0.74844 0.0
H1098 H 0.40609 0.16607 0.73634 0.0
H1099 H 0.43962 0.14584 0.74882 0.0
H1100 H 0.44991 0.12652 0.68862 0.0
H1101 H 0.41578 0.14585 0.67621 0.0
C1102 C 0.48751 0.08693 0.72597 0.0
C1103 C 0.50948 0.10226 0.74105 0.0
C1104 C 0.46715 0.09728 0.71909 0.0
C1105 C 0.46868 0.12326 0.72715 0.0
C1106 C 0.49098 0.13864 0.74219 0.0
C1107 C 0.51117 0.12816 0.7491 0.0
C1108 C 0.41544 0.15742 0.72579 0.0
C1109 C 0.40828 0.15757 0.70529 0.0
C1110 C 0.43478 0.14598 0.73292 0.0
C1111 C 0.44746 0.13462 0.71969 0.0
C1112 C 0.44015 0.13467 0.69922 0.0
C1113 C 0.42071 0.14594 0.69211 0.0
H1114 H 0.82198 0.38522 0.72323 0.0
H1115 H 0.90796 0.39704 0.74932 0.0
H1116 H 0.81255 0.33811 0.70866 0.0
H1117 H 0.89713 0.34822 0.7371 0.0
H1118 H 0.88572 0.27265 0.69839 0.0
H1119 H 0.89584 0.32068 0.71168 0.0
H1120 H 0.79768 0.28829 0.71249 0.0
H1121 H 0.7882 0.24142 0.6974 0.0
C1122 C 0.83879 0.37756 0.72594 0.0
C1123 C 0.86569 0.39485 0.73744 0.0
C1124 C 0.83314 0.3501 0.71792 0.0
C1125 C 0.85386 0.33865 0.72167 0.0
C1126 C 0.88071 0.35608 0.73338 0.0
C1127 C 0.88675 0.38397 0.74082 0.0
C1128 C 0.86639 0.27593 0.70145 0.0
C1129 C 0.8362 0.25344 0.69682 0.0
C1130 C 0.8721 0.30349 0.70928 0.0
C1131 C 0.84767 0.30895 0.71334 0.0
C1132 C 0.81733 0.28574 0.70917 0.0
C1133 C 0.81173 0.25857 0.70072 0.0
H1134 H 0.13421 0.98312 0.64784 0.0
H1135 H 0.20768 0.97412 0.62361 0.0
H1136 H 0.17159 0.03106 0.66245 0.0
H1137 H 0.24506 0.02356 0.63605 0.0
H1138 H 0.3101 0.10093 0.67511 0.0
H1139 H 0.27272 0.05182 0.66209 0.0
H1140 H 0.20402 0.08133 0.65756 0.0
H1141 H 0.24104 0.12937 0.6722 0.0
C1142 C 0.15844 0.99154 0.64559 0.0
C1143 C 0.16801 0.97486 0.6346 0.0
C1144 C 0.18 0.01943 0.65363 0.0
C1145 C 0.21176 0.03183 0.65044 0.0
C1146 C 0.22112 1.01494 0.63929 0.0
C1147 C 0.1996 0.9867 0.63178 0.0
C1148 C 0.28695 0.09677 0.6713 0.0
C1149 C 0.27837 0.11882 0.67473 0.0
C1150 C 0.26541 0.0686 0.66365 0.0
C1151 C 0.2349 0.06206 0.65865 0.0
C1152 C 0.2268 0.08477 0.66165 0.0
C1153 C 0.24814 0.11258 0.66985 0.0
H1154 H 0.092 0.31595 0.64916 0.0
H1155 H 0.0671 0.22494 0.63318 0.0
H1156 H 0.0394 0.29802 0.6602 0.0
H1157 H 0.01464 0.20671 0.64416 0.0
H1158 H 0.95252 0.24342 0.69834 0.0
H1159 H 1.00501 0.26271 0.68752 0.0
H1160 H 0.96971 0.21457 0.63261 0.0
H1161 H 0.91722 0.19513 0.64334 0.0
C1162 C 0.07513 0.29211 0.64817 0.0
C1163 C 0.08313 0.27164 0.64053 0.0
C1164 C 0.04527 0.28184 0.65447 0.0
C1165 C 0.02305 0.25102 0.65296 0.0
C1166 C 0.03127 0.23062 0.6453 0.0
C1167 C 0.06114 0.24087 0.6392 0.0
C1168 C 0.95593 0.23694 0.68396 0.0
C1169 C 0.93072 0.21766 0.67173 0.0
C1170 C 0.98596 0.24815 0.67774 0.0
C1171 C 0.99131 0.24004 0.65928 0.0
C1172 C 0.96615 0.22091 0.647 0.0
C1173 C 0.93613 0.20994 0.65312 0.0
H1174 H 0.76293 0.84933 0.64615 0.0
H1175 H 0.84268 0.87978 0.61069 0.0
H1176 H 0.76847 0.80573 0.65867 0.0
H1177 H 0.84903 0.8365 0.62344 0.0
H1178 H 0.84577 0.74733 0.6461 0.0
H1179 H 0.83058 0.78133 0.62727 0.0
H1180 H 0.80563 0.80348 0.6822 0.0
H1181 H 0.81991 0.76913 0.70061 0.0
C1182 C 0.78121 0.84612 0.6407 0.0
C1183 C 0.8024 0.86776 0.62754 0.0
C1184 C 0.78465 0.8214 0.64798 0.0
C1185 C 0.80959 0.81785 0.6424 0.0
C1186 C 0.8295 0.83838 0.62803 0.0
C1187 C 0.8259 0.86312 0.62067 0.0
C1188 C 0.83601 0.7587 0.65394 0.0
C1189 C 0.83324 0.75499 0.67473 0.0
C1190 C 0.82779 0.77857 0.64324 0.0
C1191 C 0.81652 0.79499 0.65314 0.0
C1192 C 0.81351 0.7908 0.67394 0.0
C1193 C 0.8219 0.77123 0.68456 0.0
H1194 H 0.10244 0.85191 0.64564 0.0
H1195 H 0.05106 0.88188 0.60607 0.0
H1196 H 0.05453 0.80677 0.65532 0.0
H1197 H 1.00286 0.83709 0.61574 0.0
H1198 H 0.92158 0.74361 0.62936 0.0
H1199 H 0.97053 0.78197 0.61582 0.0
H1200 H 0.0119 0.79824 0.67523 0.0
H1201 H 0.96345 0.7598 0.68869 0.0
C1202 C 0.08076 0.84848 0.63889 0.0
C1203 C 0.08013 0.8703 0.62536 0.0
C1204 C 0.05334 0.82283 0.64447 0.0
C1205 C 0.02469 0.81843 0.63655 0.0
C1206 C 0.02441 0.83956 0.62208 0.0
C1207 C 0.0519 0.86522 0.61654 0.0
C1208 C 0.9412 0.75511 0.63952 0.0
C1209 C 0.93839 0.74855 0.66017 0.0
C1210 C 0.96926 0.77727 0.63175 0.0
C1211 C 0.99527 0.79328 0.64441 0.0
C1212 C 0.99258 0.78613 0.66496 0.0
C1213 C 0.96459 0.76415 0.67273 0.0
H1214 H 0.15343 0.2282 0.62318 0.0
H1215 H 0.21604 0.32212 0.63519 0.0
H1216 H 0.19447 0.21537 0.63131 0.0
H1217 H 0.25741 0.30957 0.64362 0.0
H1218 H 0.29787 0.25929 0.68671 0.0
H1219 H 0.26264 0.27707 0.67313 0.0
H1220 H 0.24735 0.22612 0.62003 0.0
H1221 H 0.28257 0.20841 0.63344 0.0
C1222 C 0.17629 0.24608 0.62719 0.0
C1223 C 0.18197 0.27601 0.62864 0.0
C1224 C 0.1997 0.23887 0.6318 0.0
C1225 C 0.229 0.26149 0.6382 0.0
C1226 C 0.23494 0.29173 0.63885 0.0
C1227 C 0.21155 0.29896 0.63393 0.0
C1228 C 0.28715 0.25204 0.67209 0.0
C1229 C 0.29286 0.23232 0.66121 0.0
C1230 C 0.26723 0.26243 0.66426 0.0
C1231 C 0.25239 0.25297 0.64554 0.0
C1232 C 0.25845 0.23365 0.63453 0.0
C1233 C 0.27865 0.22358 0.64223 0.0
H1234 H 0.84907 1.00089 0.6205 0.0
H1235 H 0.77809 0.94428 0.66125 0.0
H1236 H 0.85549 0.04639 0.63645 0.0
H1237 H 0.78468 0.98963 0.67754 0.0
H1238 H 0.83068 0.07716 0.71431 0.0
H1239 H 0.8236 0.03158 0.69823 0.0
H1240 H 0.82677 0.07455 0.64047 0.0
H1241 H 0.83424 0.12019 0.65668 0.0
C1242 C 0.8348 0.99829 0.63285 0.0
C1243 C 0.81309 0.96915 0.63966 0.0
C1244 C 0.8384 0.02426 0.64197 0.0
C1245 C 0.82057 0.02167 0.65826 0.0
C1246 C 0.79903 0.99244 0.66518 0.0
C1247 C 0.79525 0.96648 0.65591 0.0
C1248 C 0.82971 0.07676 0.69818 0.0
C1249 C 0.83258 0.10204 0.68671 0.0
C1250 C 0.82551 0.05062 0.68896 0.0
C1251 C 0.82451 0.04934 0.66805 0.0
C1252 C 0.82758 0.0748 0.6566 0.0
C1253 C 0.83146 0.10081 0.66584 0.0
H1254 H 0.56228 0.38991 0.74272 0.0
H1255 H 0.49693 0.42276 0.73623 0.0
H1256 H 0.52487 0.3421 0.72761 0.0
H1257 H 0.45959 0.37565 0.72023 0.0
H1258 H 0.46372 0.27284 0.68194 0.0
H1259 H 0.50048 0.32002 0.69761 0.0
H1260 H 0.42576 0.32366 0.72514 0.0
H1261 H 0.38897 0.27733 0.70839 0.0
C1262 C 0.53987 0.38682 0.73781 0.0
C1263 C 0.53231 0.40977 0.74055 0.0
C1264 C 0.51843 0.35956 0.72904 0.0
C1265 C 0.48902 0.35479 0.72255 0.0
C1266 C 0.48167 0.37807 0.7253 0.0
C1267 C 0.50304 0.40517 0.73432 0.0
C1268 C 0.45518 0.28376 0.69133 0.0
C1269 C 0.42346 0.27129 0.69401 0.0
C1270 C 0.47631 0.31076 0.70049 0.0
C1271 C 0.46632 0.32586 0.7128 0.0
C1272 C 0.43446 0.3131 0.71557 0.0
C1273 C 0.41329 0.28628 0.70616 0.0
H1274 H 0.62465 0.11687 0.76867 0.0
H1275 H 0.57809 0.05076 0.72325 0.0
H1276 H 0.6743 0.12696 0.7568 0.0
H1277 H 0.62788 0.0607 0.71109 0.0
H1278 H 0.72072 0.12626 0.67955 0.0
H1279 H 0.66948 0.10415 0.69338 0.0
H1280 H 0.70895 0.10684 0.7526 0.0
H1281 H 0.75984 0.12932 0.73897 0.0
C1282 C 0.62518 0.10376 0.75657 0.0
C1283 C 0.5978 0.08302 0.74687 0.0
C1284 C 0.65354 0.10958 0.74966 0.0
C1285 C 0.65503 0.09476 0.73288 0.0
C1286 C 0.62748 0.07277 0.72386 0.0
C1287 C 0.59909 0.0669 0.73085 0.0
C1288 C 0.71833 0.12169 0.69547 0.0
C1289 C 0.74437 0.13004 0.70817 0.0
C1290 C 0.68899 0.1089 0.7034 0.0
C1291 C 0.68524 0.10409 0.72413 0.0
C1292 C 0.71114 0.11083 0.73663 0.0
C1293 C 0.74032 0.1237 0.72876 0.0
H1294 H 0.92305 0.52798 0.7512 0.0
H1295 H 0.82609 0.4722 0.73811 0.0
H1296 H 0.91994 0.57334 0.73887 0.0
H1297 H 0.82306 0.51713 0.72529 0.0
H1298 H 0.85544 0.59023 0.67209 0.0
H1299 H 0.86154 0.5515 0.69174 0.0
H1300 H 0.87806 0.60252 0.74488 0.0
H1301 H 0.87104 0.64153 0.72507 0.0
C1302 C 0.90094 0.52562 0.74633 0.0
C1303 C 0.87474 0.49671 0.74564 0.0
C1304 C 0.89918 0.55148 0.73923 0.0
C1305 C 0.87123 0.54863 0.73123 0.0
C1306 C 0.84481 0.51991 0.73151 0.0
C1307 C 0.84653 0.49427 0.73874 0.0
C1308 C 0.86065 0.5935 0.68793 0.0
C1309 C 0.86287 0.61903 0.69702 0.0
C1310 C 0.8641 0.57126 0.69915 0.0
C1311 C 0.87017 0.57404 0.71976 0.0
C1312 C 0.87352 0.60002 0.72894 0.0
C1313 C 0.86965 0.62234 0.71764 0.0
H1314 H 0.46507 0.91873 0.25084 0.0
H1315 H 0.53129 1.01229 0.26076 0.0
H1316 H 0.48104 0.92427 0.21624 0.0
H1317 H 0.54746 0.01838 0.22628 0.0
H1318 H 0.57955 0.01792 0.16524 0.0
H1319 H 0.57082 1.00353 0.20049 0.0
H1320 H 0.47296 0.95255 0.18759 0.0
H1321 H 0.48161 0.96711 0.15244 0.0
C1322 C 0.48378 0.94017 0.24565 0.0
C1323 C 0.49738 0.96503 0.25823 0.0
C1324 C 0.4927 0.9435 0.22591 0.0
C1325 C 0.51537 0.97182 0.2185 0.0
C1326 C 0.53022 0.99617 0.23159 0.0
C1327 C 0.52112 0.9928 0.25127 0.0
C1328 C 0.55618 1.0035 0.16992 0.0
C1329 C 0.53123 0.99397 0.15606 0.0
C1330 C 0.55122 0.9952 0.1901 0.0
C1331 C 0.52122 0.97705 0.19684 0.0
C1332 C 0.4964 0.96623 0.18284 0.0
C1333 C 0.50135 0.97461 0.16267 0.0
H1334 H 0.15947 0.59915 0.2386 0.0
H1335 H 0.08046 0.52283 0.26403 0.0
H1336 H 0.13886 0.58196 0.20513 0.0
H1337 H 0.05989 0.50449 0.2305 0.0
H1338 H 0.01268 0.51595 0.17171 0.0
H1339 H 0.0365 0.52149 0.20483 0.0
H1340 H 0.12375 0.54708 0.17892 0.0
H1341 H 0.10011 0.54304 0.14564 0.0
C1342 C 0.13811 0.57804 0.23691 0.0
C1343 C 0.12135 0.56241 0.25374 0.0
C1344 C 0.12627 0.56805 0.21775 0.0
C1345 C 0.09737 0.54201 0.21499 0.0
C1346 C 0.08188 0.52498 0.23201 0.0
C1347 C 0.09377 0.53513 0.25121 0.0
C1348 C 0.03696 0.52277 0.17303 0.0
C1349 C 0.05453 0.52956 0.15593 0.0
C1350 C 0.05058 0.52548 0.19211 0.0
C1351 C 0.08219 0.5349 0.19468 0.0
C1352 C 0.09946 0.54019 0.17756 0.0
C1353 C 0.08581 0.53757 0.15843 0.0
H1354 H 0.42905 0.57878 0.23693 0.0
H1355 H 0.4727 0.5321 0.26757 0.0
H1356 H 0.43289 0.55939 0.20511 0.0
H1357 H 0.47681 0.51242 0.23579 0.0
H1358 H 0.52455 0.53476 0.17401 0.0
H1359 H 0.50982 0.53937 0.20705 0.0
H1360 H 0.41821 0.51482 0.18411 0.0
H1361 H 0.43265 0.50945 0.15101 0.0
C1362 C 0.43834 0.5633 0.23682 0.0
C1363 C 0.45016 0.55644 0.25453 0.0
C1364 C 0.4407 0.55228 0.21867 0.0
C1365 C 0.45539 0.53452 0.21787 0.0
C1366 C 0.46562 0.52625 0.23587 0.0
C1367 C 0.46294 0.53709 0.25405 0.0
C1368 C 0.50101 0.52951 0.17602 0.0
C1369 C 0.47993 0.52194 0.15967 0.0
C1370 C 0.49255 0.5322 0.19504 0.0
C1371 C 0.46285 0.52758 0.19824 0.0
C1372 C 0.44139 0.51889 0.1821 0.0
C1373 C 0.44976 0.51596 0.16309 0.0
H1374 H 0.94361 0.50085 0.77415 0.0
H1375 H 0.85416 0.45804 0.79957 0.0
H1376 H 0.96764 0.52068 0.80665 0.0
H1377 H 0.87783 0.47635 0.83251 0.0
H1378 H 0.92944 0.52011 0.88991 0.0
H1379 H 0.90726 0.5158 0.85603 0.0
H1380 H 0.97569 0.49546 0.83504 0.0
H1381 H 0.99845 0.50114 0.86839 0.0
C1382 C 0.92912 0.49668 0.78668 0.0
C1383 C 0.89718 0.47846 0.78449 0.0
C1384 C 0.94279 0.50749 0.80536 0.0
C1385 C 0.92476 0.49961 0.82235 0.0
C1386 C 0.89248 0.4831 0.8198 0.0
C1387 C 0.87883 0.47265 0.80099 0.0
C1388 C 0.94001 0.51524 0.87796 0.0
C1389 C 0.96554 0.51065 0.88193 0.0
C1390 C 0.92715 0.51253 0.85857 0.0
C1391 C 0.93965 0.50533 0.84272 0.0
C1392 C 0.96566 0.50154 0.84671 0.0
C1393 C 0.97846 0.50428 0.86598 0.0
H1394 H 0.55216 0.50929 0.78019 0.0
H1395 H 0.61223 0.47529 0.80322 0.0
H1396 H 0.54678 0.52218 0.81376 0.0
H1397 H 0.60745 0.48839 0.83709 0.0
H1398 H 0.54631 0.46717 0.89268 0.0
H1399 H 0.56568 0.46627 0.86027 0.0
H1400 H 0.56823 0.55131 0.84335 0.0
H1401 H 0.5488 0.55214 0.87572 0.0
C1402 C 0.56538 0.50598 0.79244 0.0
C1403 C 0.583 0.49185 0.78918 0.0
C1404 C 0.5622 0.51312 0.81173 0.0
C1405 C 0.57639 0.50603 0.82829 0.0
C1406 C 0.59583 0.4938 0.82477 0.0
C1407 C 0.5991 0.48682 0.80538 0.0
C1408 C 0.55156 0.48599 0.88221 0.0
C1409 C 0.54556 0.50952 0.8868 0.0
C1410 C 0.56278 0.48553 0.86358 0.0
C1411 C 0.56839 0.50863 0.84903 0.0
C1412 C 0.56369 0.53284 0.85398 0.0
C1413 C 0.55246 0.53328 0.87258 0.0
H1414 H 0.58689 0.11469 0.8003 0.0
H1415 H 0.55117 0.02387 0.77964 0.0
H1416 H 0.58654 0.09652 0.8347 0.0
H1417 H 0.55092 1.00517 0.8141 0.0
H1418 H 0.49409 0.98744 0.87167 0.0
H1419 H 0.51377 1.00155 0.83839 0.0
H1420 H 0.6007 0.07099 0.86243 0.0
H1421 H 0.58113 0.05641 0.8961 0.0
C1422 C 0.58052 0.09104 0.80319 0.0
C1423 C 0.56902 0.07055 0.78759 0.0
C1424 C 0.58021 0.08055 0.82284 0.0
C1425 C 0.56813 0.04928 0.82715 0.0
C1426 C 0.55992 0.02932 0.81124 0.0
C1427 C 0.5604 0.03995 0.79156 0.0
C1428 C 0.51773 1.00511 0.87004 0.0
C1429 C 0.53591 0.02091 0.88663 0.0
C1430 C 0.52908 1.01315 0.85087 0.0
C1431 C 0.55886 0.03734 0.84775 0.0
C1432 C 0.5776 0.05236 0.86437 0.0
C1433 C 0.56628 0.04415 0.88362 0.0
H1434 H 0.18183 0.35699 0.59854 0.0
H1435 H 0.15699 0.26474 0.5861 0.0
H1436 H 0.19866 0.37275 0.56431 0.0
H1437 H 0.173 0.27988 0.55172 0.0
H1438 H 0.21886 0.32112 0.49255 0.0
H1439 H 0.21333 0.30873 0.52829 0.0
H1440 H 0.16976 0.36423 0.53317 0.0
H1441 H 0.17556 0.37674 0.49771 0.0
C1442 C 0.18074 0.34033 0.58849 0.0
C1443 C 0.16834 0.30982 0.59473 0.0
C1444 C 0.18999 0.34915 0.5689 0.0
C1445 C 0.18667 0.32745 0.55518 0.0
C1446 C 0.1761 0.2972 0.56191 0.0
C1447 C 0.16702 0.28849 0.58156 0.0
C1448 C 0.208 0.33052 0.50131 0.0
C1449 C 0.19772 0.34997 0.49236 0.0
C1450 C 0.20492 0.32352 0.52176 0.0
C1451 C 0.19143 0.33576 0.53364 0.0
C1452 C 0.18101 0.35504 0.52459 0.0
C1453 C 0.18417 0.36209 0.50423 0.0
H1454 H 0.83723 0.92625 0.5752 0.0
H1455 H 0.74684 0.86204 0.59485 0.0
H1456 H 0.82017 0.913 0.54052 0.0
H1457 H 0.72902 0.84904 0.56016 0.0
H1458 H 0.70744 0.82538 0.49463 0.0
H1459 H 0.73022 0.82871 0.52825 0.0
H1460 H 0.78786 0.92548 0.51885 0.0
H1461 H 0.76592 0.92194 0.48526 0.0
C1462 C 0.81394 0.9085 0.57201 0.0
C1463 C 0.79335 0.89495 0.58752 0.0
C1464 C 0.80396 0.90121 0.55219 0.0
C1465 C 0.773 0.88039 0.54745 0.0
C1466 C 0.75303 0.86505 0.5632 0.0
C1467 C 0.76317 0.8723 0.58307 0.0
C1468 C 0.7254 0.84725 0.49964 0.0
C1469 C 0.73471 0.87343 0.48726 0.0
C1470 C 0.73826 0.8492 0.51898 0.0
C1471 C 0.76094 0.87735 0.52634 0.0
C1472 C 0.77082 0.90331 0.51368 0.0
C1473 C 0.75792 0.90138 0.49445 0.0
H1474 H 0.08927 0.90737 0.57047 0.0
H1475 H 0.14457 0.87205 0.6 0.0
H1476 H 0.09381 0.88827 0.53864 0.0
H1477 H 0.14919 0.85258 0.56837 0.0
H1478 H 0.19359 0.87745 0.50596 0.0
H1479 H 0.17873 0.88144 0.53903 0.0
H1480 H 0.0841 0.84434 0.51805 0.0
H1481 H 0.09879 0.83955 0.48486 0.0
C1482 C 0.10134 0.89439 0.57016 0.0
C1483 C 0.11641 0.89085 0.58748 0.0
C1484 C 0.10407 0.88354 0.55202 0.0
C1485 C 0.1222 0.86922 0.55092 0.0
C1486 C 0.13541 0.86385 0.56866 0.0
C1487 C 0.13251 0.87458 0.58677 0.0
C1488 C 0.16945 0.86931 0.50841 0.0
C1489 C 0.14747 0.85826 0.49258 0.0
C1490 C 0.16092 0.87166 0.52745 0.0
C1491 C 0.13021 0.86322 0.53121 0.0
C1492 C 0.108 0.85132 0.51559 0.0
C1493 C 0.1165 0.8487 0.49654 0.0
H1494 H 0.53956 0.81288 0.12241 0.0
H1495 H 0.62806 0.82365 0.10915 0.0
H1496 H 0.55922 0.83301 0.15567 0.0
H1497 H 0.64777 0.84282 0.14246 0.0
H1498 H 0.68089 0.88792 0.20106 0.0
H1499 H 0.6618 0.88151 0.16652 0.0
H1500 H 0.57229 0.81222 0.18543 0.0
H1501 H 0.59098 0.81961 0.22003 0.0
C1502 C 0.56348 0.82038 0.12651 0.0
C1503 C 0.58238 0.81677 0.1134 0.0
C1504 C 0.57465 0.83148 0.1456 0.0
C1505 C 0.60498 0.83916 0.1519 0.0
C1506 C 0.6244 0.83739 0.13815 0.0
C1507 C 0.61318 0.82632 0.11911 0.0
C1508 C 0.65693 0.87183 0.19792 0.0
C1509 C 0.63754 0.85414 0.21338 0.0
C1510 C 0.64607 0.86792 0.17806 0.0
C1511 C 0.61555 0.84621 0.17312 0.0
C1512 C 0.59584 0.82939 0.18864 0.0
C1513 C 0.60668 0.83332 0.2085 0.0
H1514 H 0.23173 0.84557 0.11491 0.0
H1515 H 0.26694 0.78854 0.14114 0.0
H1516 H 0.22524 0.859 0.14813 0.0
H1517 H 0.26168 0.80248 0.17451 0.0
H1518 H 0.19956 0.79246 0.2261 0.0
H1519 H 0.21882 0.78847 0.19451 0.0
H1520 H 0.24403 0.88198 0.17957 0.0
H1521 H 0.22423 0.88573 0.21116 0.0
C1522 C 0.23944 0.83711 0.12788 0.0
C1523 C 0.25001 0.81627 0.12559 0.0
C1524 C 0.23558 0.84458 0.14695 0.0
C1525 C 0.24236 0.83139 0.16416 0.0
C1526 C 0.25546 0.81252 0.1617 0.0
C1527 C 0.25905 0.80493 0.14263 0.0
C1528 C 0.20969 0.81235 0.21625 0.0
C1529 C 0.21014 0.83935 0.22119 0.0
C1530 C 0.22089 0.81012 0.19807 0.0
C1531 C 0.23309 0.83491 0.18432 0.0
C1532 C 0.2344 0.86224 0.18956 0.0
C1533 C 0.22304 0.8644 0.20772 0.0
H1534 H 0.25154 0.45255 0.12961 0.0
H1535 H 0.22159 0.36069 0.11322 0.0
H1536 H 0.25309 0.43824 0.16478 0.0
H1537 H 0.22391 0.3461 0.14828 0.0
H1538 H 0.16714 0.32709 0.20516 0.0
H1539 H 0.18584 0.34116 0.1717 0.0
H1540 H 0.26925 0.41732 0.19424 0.0
H1541 H 0.25064 0.40281 0.22818 0.0
C1542 C 0.24711 0.4297 0.13357 0.0
C1543 C 0.23655 0.40766 0.11891 0.0
C1544 C 0.24782 0.42139 0.15368 0.0
C1545 C 0.23791 0.39084 0.15936 0.0
C1546 C 0.2311 0.36969 0.1444 0.0
C1547 C 0.23027 0.37805 0.12432 0.0
C1548 C 0.18986 0.34634 0.20318 0.0
C1549 C 0.20732 0.36377 0.21947 0.0
C1550 C 0.20068 0.3544 0.1839 0.0
C1551 C 0.22921 0.38024 0.18027 0.0
C1552 C 0.24714 0.39733 0.19655 0.0
C1553 C 0.23636 0.38912 0.21596 0.0
H1554 H 0.87254 0.66468 0.93065 0.0
H1555 H 0.79006 0.58942 0.90688 0.0
H1556 H 0.8962 0.67408 0.89815 0.0
H1557 H 0.81257 0.59943 0.87418 0.0
H1558 H 0.86306 0.61478 0.81826 0.0
H1559 H 0.84999 0.60023 0.85313 0.0
H1560 H 0.88858 0.69497 0.86711 0.0
H1561 H 0.90202 0.70933 0.83259 0.0
C1562 C 0.85968 0.65007 0.91843 0.0
C1563 C 0.82936 0.62687 0.92095 0.0
C1564 C 0.87301 0.6555 0.89983 0.0
C1565 C 0.85613 0.6378 0.88343 0.0
C1566 C 0.82637 0.61343 0.88642 0.0
C1567 C 0.81323 0.60794 0.90503 0.0
C1568 C 0.86905 0.63243 0.82889 0.0
C1569 C 0.88351 0.66317 0.82267 0.0
C1570 C 0.86154 0.62413 0.84884 0.0
C1571 C 0.86808 0.64641 0.86294 0.0
C1572 C 0.88367 0.67719 0.8568 0.0
C1573 C 0.89133 0.68546 0.83694 0.0
H1574 H 0.40954 0.19213 0.927 0.0
H1575 H 0.50021 0.25752 0.90847 0.0
H1576 H 0.39262 0.18003 0.8921 0.0
H1577 H 0.48407 0.24517 0.87358 0.0
H1578 H 0.43065 0.25553 0.81833 0.0
H1579 H 0.45191 0.25804 0.85202 0.0
H1580 H 0.39482 0.16091 0.85989 0.0
H1581 H 0.37271 0.15859 0.82615 0.0
C1582 C 0.42614 0.20283 0.91542 0.0
C1583 C 0.45612 0.22556 0.92024 0.0
C1584 C 0.41653 0.19609 0.89542 0.0
C1585 C 0.43682 0.21205 0.87993 0.0
C1586 C 0.46762 0.23292 0.88505 0.0
C1587 C 0.47707 0.2397 0.90498 0.0
C1588 C 0.42262 0.23466 0.82721 0.0
C1589 C 0.39975 0.20691 0.81955 0.0
C1590 C 0.43514 0.23602 0.84649 0.0
C1591 C 0.42522 0.20964 0.85875 0.0
C1592 C 0.40288 0.1817 0.85094 0.0
C1593 C 0.3904 0.18033 0.83153 0.0
H1594 H 0.82763 0.21308 0.9322 0.0
H1595 H 0.7458 0.21682 0.91246 0.0
H1596 H 0.83077 0.19572 0.89967 0.0
H1597 H 0.74763 0.19792 0.87994 0.0
H1598 H 0.79229 0.21634 0.81841 0.0
H1599 H 0.77835 0.21987 0.85191 0.0
H1600 H 0.81349 0.16028 0.87431 0.0
H1601 H 0.82827 0.15759 0.84072 0.0
C1602 C 0.80969 0.20908 0.92099 0.0
C1603 C 0.78668 0.2165 0.92467 0.0
C1604 C 0.81134 0.19901 0.90231 0.0
C1605 C 0.78974 0.19583 0.88688 0.0
C1606 C 0.76512 0.20078 0.89124 0.0
C1607 C 0.76367 0.2111 0.90995 0.0
C1608 C 0.79655 0.20355 0.83043 0.0
C1609 C 0.8116 0.18685 0.82689 0.0
C1610 C 0.7884 0.20545 0.84972 0.0
C1611 C 0.79483 0.19047 0.86602 0.0
C1612 C 0.80867 0.17264 0.86228 0.0
C1613 C 0.81711 0.17101 0.843 0.0
H1614 H 0.29758 0.16756 0.43771 0.0
H1615 H 0.20899 0.14439 0.45971 0.0
H1616 H 0.32162 0.1862 0.47046 0.0
H1617 H 0.2324 0.16189 0.49283 0.0
H1618 H 0.28715 0.20641 0.54987 0.0
H1619 H 0.26664 0.20103 0.51546 0.0
H1620 H 0.32082 0.15927 0.50076 0.0
H1621 H 0.34126 0.16485 0.53475 0.0
C1622 C 0.2835 0.16731 0.44954 0.0
C1623 C 0.25163 0.15474 0.44639 0.0
C1624 C 0.29706 0.17753 0.46834 0.0
C1625 C 0.27887 0.17492 0.48446 0.0
C1626 C 0.24718 0.16439 0.4808 0.0
C1627 C 0.23371 0.15445 0.46188 0.0
C1628 C 0.29465 0.19614 0.53923 0.0
C1629 C 0.31605 0.18629 0.54505 0.0
C1630 C 0.28294 0.19309 0.51951 0.0
C1631 C 0.29232 0.18005 0.50521 0.0
C1632 C 0.31369 0.17023 0.51113 0.0
C1633 C 0.32539 0.17334 0.53072 0.0
H1634 H 0.90334 0.18595 0.44735 0.0
H1635 H 0.9314 0.12439 0.47556 0.0
H1636 H 0.89595 0.20028 0.48013 0.0
H1637 H 0.92345 0.1378 0.50835 0.0
H1638 H 0.91477 0.17498 0.56657 0.0
H1639 H 0.93507 0.1732 0.53461 0.0
H1640 H 0.85642 0.17299 0.50394 0.0
H1641 H 0.83618 0.17461 0.53565 0.0
C1642 C 0.90908 0.17643 0.46065 0.0
C1643 C 0.91803 0.15421 0.45903 0.0
C1644 C 0.90431 0.18413 0.47943 0.0
C1645 C 0.90843 0.16972 0.49698 0.0
C1646 C 0.9201 0.14949 0.49529 0.0
C1647 C 0.92481 0.14184 0.47652 0.0
C1648 C 0.90177 0.17449 0.55301 0.0
C1649 C 0.87378 0.175 0.55382 0.0
C1650 C 0.9135 0.17359 0.53464 0.0
C1651 C 0.89759 0.17321 0.51657 0.0
C1652 C 0.8698 0.17403 0.51743 0.0
C1653 C 0.85809 0.17488 0.53572 0.0
H1654 H 0.92235 0.77589 0.45325 0.0
H1655 H 0.86203 0.68009 0.4466 0.0
H1656 H 0.92576 0.76795 0.48939 0.0
H1657 H 0.86416 0.67176 0.48253 0.0
H1658 H 0.87104 0.74715 0.54774 0.0
H1659 H 0.88834 0.75753 0.51363 0.0
H1660 H 0.88802 0.67152 0.51388 0.0
H1661 H 0.86984 0.6609 0.5479 0.0
C1662 C 0.91094 0.75297 0.45954 0.0
C1663 C 0.89196 0.72853 0.44737 0.0
C1664 C 0.91237 0.74841 0.48021 0.0
C1665 C 0.89465 0.7193 0.489 0.0
C1666 C 0.87828 0.69447 0.47643 0.0
C1667 C 0.87704 0.6991 0.45582 0.0
C1668 C 0.87525 0.73076 0.54063 0.0
C1669 C 0.86863 0.70303 0.55037 0.0
C1670 C 0.8854 0.73676 0.52107 0.0
C1671 C 0.88943 0.71527 0.51085 0.0
C1672 C 0.88462 0.68834 0.52111 0.0
C1673 C 0.87418 0.68222 0.5406 0.0
loop_
_geom_bond_atom_site_label_1
_geom_bond_atom_site_label_2
_geom_bond_distance
_geom_bond_site_symmetry_2
_ccdc_geom_bond_type
C0 N1 1.317 . S
C0 N2 1.348 . S
C0 C3 1.485 . S
N1 C0 1.317 . S
N1 N5 1.370 . S
N2 C0 1.348 . S
N2 C4 1.346 . S
C3 C0 1.485 . S
C3 H7 0.960 . S
C3 H8 0.961 . S
C3 H9 0.960 . S
C4 N2 1.346 . S
C4 N5 1.307 . S
C4 C6 1.486 . S
N5 N1 1.370 . S
N5 C4 1.307 . S
C6 C4 1.486 . S
C6 H10 0.960 . S
C6 H11 0.960 . S
C6 H12 0.959 . S
H7 C3 0.960 . S
H8 C3 0.961 . S
H9 C3 0.960 . S
H10 C6 0.960 . S
H11 C6 0.960 . S
H12 C6 0.959 . S
C13 N14 1.317 . S
C13 N15 1.348 . S
C13 C16 1.485 . S
N14 C13 1.317 . S
N14 N18 1.370 . S
N15 C13 1.348 . S
N15 C17 1.346 . S
C16 C13 1.485 . S
C16 H20 0.960 . S
C16 H21 0.961 . S
C16 H22 0.960 . S
C17 N15 1.346 . S
C17 N18 1.307 . S
C17 C19 1.486 . S
N18 N14 1.370 . S
N18 C17 1.307 . S
C19 C17 1.486 . S
C19 H23 0.960 . S
C19 H24 0.960 . S
C19 H25 0.959 . S
H20 C16 0.960 . S
H21 C16 0.961 . S
H22 C16 0.960 . S
H23 C19 0.960 . S
H24 C19 0.960 . S
H25 C19 0.959 . S
C26 N27 1.317 . S
C26 N28 1.348 . S
C26 C29 1.485 . S
N27 C26 1.317 . S
N27 N31 1.370 . S
N28 C26 1.348 . S
N28 C30 1.346 . S
C29 C26 1.485 . S
C29 H33 0.960 . S
C29 H34 0.961 . S
C29 H35 0.960 . S
C30 N28 1.346 . S
C30 N31 1.307 . S
C30 C32 1.486 . S
N31 N27 1.370 . S
N31 C30 1.307 . S
C32 C30 1.486 . S
C32 H36 0.960 . S
C32 H37 0.960 . S
C32 H38 0.959 . S
H33 C29 0.960 . S
H34 C29 0.961 . S
H35 C29 0.960 . S
H36 C32 0.960 . S
H37 C32 0.960 . S
H38 C32 0.959 . S
C39 N40 1.317 . S
C39 N41 1.348 . S
C39 C42 1.485 . S
N40 C39 1.317 . S
N40 N44 1.370 . S
N41 C39 1.348 . S
N41 C43 1.346 . S
C42 C39 1.485 . S
C42 H46 0.960 . S
C42 H47 0.961 . S
C42 H48 0.960 . S
C43 N41 1.346 . S
C43 N44 1.307 . S
C43 C45 1.486 . S
N44 N40 1.370 . S
N44 C43 1.307 . S
C45 C43 1.486 . S
C45 H49 0.960 . S
C45 H50 0.960 . S
C45 H51 0.959 . S
H46 C42 0.960 . S
H47 C42 0.961 . S
H48 C42 0.960 . S
H49 C45 0.960 . S
H50 C45 0.960 . S
H51 C45 0.959 . S
C52 N53 1.317 . S
C52 N54 1.348 . S
C52 C55 1.485 . S
N53 C52 1.317 . S
N53 N57 1.370 . S
N54 C52 1.348 . S
N54 C56 1.346 . S
C55 C52 1.485 . S
C55 H59 0.960 . S
C55 H60 0.961 . S
C55 H61 0.960 . S
C56 N54 1.346 . S
C56 N57 1.307 . S
C56 C58 1.486 . S
N57 N53 1.370 . S
N57 C56 1.307 . S
C58 C56 1.486 . S
C58 H62 0.960 . S
C58 H63 0.960 . S
C58 H64 0.959 . S
H59 C55 0.960 . S
H60 C55 0.961 . S
H61 C55 0.960 . S
H62 C58 0.960 . S
H63 C58 0.960 . S
H64 C58 0.959 . S
C65 N66 1.317 . S
C65 N67 1.348 . S
C65 C68 1.485 . S
N66 C65 1.317 . S
N66 N70 1.370 . S
N67 C65 1.348 . S
N67 C69 1.346 . S
C68 C65 1.485 . S
C68 H72 0.960 . S
C68 H73 0.961 . S
C68 H74 0.960 . S
C69 N67 1.346 . S
C69 N70 1.307 . S
C69 C71 1.486 . S
N70 N66 1.370 . S
N70 C69 1.307 . S
C71 C69 1.486 . S
C71 H75 0.960 . S
C71 H76 0.960 . S
C71 H77 0.959 . S
H72 C68 0.960 . S
H73 C68 0.961 . S
H74 C68 0.960 . S
H75 C71 0.960 . S
H76 C71 0.960 . S
H77 C71 0.959 . S
C78 N79 1.317 . S
C78 N80 1.348 . S
C78 C81 1.485 . S
N79 C78 1.317 . S
N79 N83 1.370 . S
N80 C78 1.348 . S
N80 C82 1.346 . S
C81 C78 1.485 . S
C81 H85 0.960 . S
C81 H86 0.961 . S
C81 H87 0.960 . S
C82 N80 1.346 . S
C82 N83 1.307 . S
C82 C84 1.486 . S
N83 N79 1.370 . S
N83 C82 1.307 . S
C84 C82 1.486 . S
C84 H88 0.960 . S
C84 H89 0.960 . S
C84 H90 0.959 . S
H85 C81 0.960 . S
H86 C81 0.961 . S
H87 C81 0.960 . S
H88 C84 0.960 . S
H89 C84 0.960 . S
H90 C84 0.959 . S
C91 N92 1.317 . S
C91 N93 1.348 . S
C91 C94 1.485 . S
N92 C91 1.317 . S
N92 N96 1.370 . S
N93 C91 1.348 . S
N93 C95 1.346 . S
C94 C91 1.485 . S
C94 H98 0.960 . S
C94 H99 0.961 . S
C94 H100 0.960 . S
C95 N93 1.346 . S
C95 N96 1.307 . S
C95 C97 1.486 . S
N96 N92 1.370 . S
N96 C95 1.307 . S
C97 C95 1.486 . S
C97 H101 0.960 . S
C97 H102 0.960 . S
C97 H103 0.959 . S
H98 C94 0.960 . S
H99 C94 0.961 . S
H100 C94 0.960 . S
H101 C97 0.960 . S
H102 C97 0.960 . S
H103 C97 0.959 . S
C104 N105 1.317 . S
C104 N106 1.348 . S
C104 C107 1.485 . S
N105 C104 1.317 . S
N105 N109 1.370 . S
N106 C104 1.348 . S
N106 C108 1.346 . S
C107 C104 1.485 . S
C107 H111 0.960 . S
C107 H112 0.961 . S
C107 H113 0.960 . S
C108 N106 1.346 . S
C108 N109 1.307 . S
C108 C110 1.486 . S
N109 N105 1.370 . S
N109 C108 1.307 . S
C110 C108 1.486 . S
C110 H114 0.960 . S
C110 H115 0.960 . S
C110 H116 0.959 . S
H111 C107 0.960 . S
H112 C107 0.961 . S
H113 C107 0.960 . S
H114 C110 0.960 . S
H115 C110 0.960 . S
H116 C110 0.959 . S
C117 N118 1.317 . S
C117 N119 1.348 . S
C117 C120 1.485 . S
N118 C117 1.317 . S
N118 N122 1.370 . S
N119 C117 1.348 . S
N119 C121 1.346 . S
C120 C117 1.485 . S
C120 H124 0.960 . S
C120 H125 0.961 . S
C120 H126 0.960 . S
C121 N119 1.346 . S
C121 N122 1.307 . S
C121 C123 1.486 . S
N122 N118 1.370 . S
N122 C121 1.307 . S
C123 C121 1.486 . S
C123 H127 0.960 . S
C123 H128 0.960 . S
C123 H129 0.959 . S
H124 C120 0.960 . S
H125 C120 0.961 . S
H126 C120 0.960 . S
H127 C123 0.960 . S
H128 C123 0.960 . S
H129 C123 0.959 . S
C130 N131 1.317 . S
C130 N132 1.348 . S
C130 C133 1.485 1_556 S
N131 C130 1.317 . S
N131 N135 1.370 . S
N132 C130 1.348 . S
N132 C134 1.346 . S
C133 C130 1.485 1_554 S
C133 H137 0.960 . S
C133 H138 0.961 . S
C133 H139 0.960 . S
C134 N132 1.346 . S
C134 N135 1.307 . S
C134 C136 1.486 . S
N135 N131 1.370 . S
N135 C134 1.307 . S
C136 C134 1.486 . S
C136 H140 0.960 . S
C136 H141 0.960 . S
C136 H142 0.959 . S
H137 C133 0.960 . S
H138 C133 0.961 . S
H139 C133 0.960 . S
H140 C136 0.960 . S
H141 C136 0.960 . S
H142 C136 0.959 . S
C143 N144 1.317 . S
C143 N145 1.348 . S
C143 C146 1.485 1_556 S
N144 C143 1.317 . S
N144 N148 1.370 . S
N145 C143 1.348 . S
N145 C147 1.346 . S
C146 C143 1.485 1_554 S
C146 H150 0.960 . S
C146 H151 0.961 . S
C146 H152 0.960 . S
C147 N145 1.346 . S
C147 N148 1.307 . S
C147 C149 1.486 . S
N148 N144 1.370 . S
N148 C147 1.307 . S
C149 C147 1.486 . S
C149 H153 0.960 . S
C149 H154 0.960 . S
C149 H155 0.959 . S
H150 C146 0.960 . S
H151 C146 0.961 . S
H152 C146 0.960 . S
H153 C149 0.960 . S
H154 C149 0.960 . S
H155 C149 0.959 . S
C156 N157 1.317 . S
C156 N158 1.348 . S
C156 C159 1.485 . S
N157 C156 1.317 . S
N157 N161 1.370 . S
N158 C156 1.348 . S
N158 C160 1.346 . S
C159 C156 1.485 . S
C159 H163 0.960 . S
C159 H164 0.994 . S
C159 H165 0.960 . S
C160 N158 1.346 . S
C160 N161 1.307 . S
C160 C162 1.486 . S
N161 N157 1.370 . S
N161 C160 1.307 . S
C162 C160 1.486 . S
C162 H166 0.960 . S
C162 H167 0.960 . S
C162 H168 0.959 . S
H163 C159 0.960 . S
H164 C159 0.994 . S
H165 C159 0.960 . S
H166 C162 0.960 . S
H167 C162 0.960 . S
H168 C162 0.959 . S
C169 N170 1.317 . S
C169 N171 1.348 . S
C169 C172 1.485 . S
N170 C169 1.317 . S
N170 N174 1.370 . S
N171 C169 1.348 . S
N171 C173 1.346 . S
C172 C169 1.485 . S
C172 H176 0.960 . S
C172 H177 0.961 . S
C172 H178 0.960 . S
C173 N171 1.346 . S
C173 N174 1.307 . S
C173 C175 1.486 . S
N174 N170 1.370 . S
N174 C173 1.307 . S
C175 C173 1.486 . S
C175 H179 0.960 . S
C175 H180 0.960 . S
C175 H181 0.959 . S
H176 C172 0.960 . S
H177 C172 0.961 . S
H178 C172 0.960 . S
H179 C175 0.960 . S
H180 C175 0.960 . S
H181 C175 0.959 . S
C182 N183 1.317 . S
C182 N184 1.348 . S
C182 C185 1.485 . S
N183 C182 1.317 . S
N183 N187 1.370 . S
N184 C182 1.348 . S
N184 C186 1.346 . S
C185 C182 1.485 . S
C185 H189 0.960 . S
C185 H190 0.961 . S
C185 H191 0.960 . S
C186 N184 1.346 . S
C186 N187 1.307 . S
C186 C188 1.486 . S
N187 N183 1.370 . S
N187 C186 1.307 . S
C188 C186 1.486 . S
C188 H192 0.960 . S
C188 H193 0.960 . S
C188 H194 0.959 . S
H189 C185 0.960 . S
H190 C185 0.961 . S
H191 C185 0.960 . S
H192 C188 0.960 . S
H193 C188 0.960 . S
H194 C188 0.959 . S
C195 N196 1.317 . S
C195 N197 1.348 . S
C195 C198 1.485 . S
N196 C195 1.317 . S
N196 N200 1.370 . S
N197 C195 1.348 . S
N197 C199 1.346 . S
C198 C195 1.485 . S
C198 H202 0.960 . S
C198 H203 0.961 . S
C198 H204 0.960 . S
C199 N197 1.346 . S
C199 N200 1.307 . S
C199 C201 1.486 . S
N200 N196 1.370 . S
N200 C199 1.307 . S
C201 C199 1.486 . S
C201 H205 0.960 . S
C201 H206 0.960 . S
C201 H207 0.959 . S
H202 C198 0.960 . S
H203 C198 0.961 . S
H204 C198 0.960 . S
H205 C201 0.960 . S
H206 C201 0.960 . S
H207 C201 0.959 . S
C208 N209 1.317 . S
C208 N210 1.348 . S
C208 C211 1.485 . S
N209 C208 1.317 . S
N209 N213 1.370 . S
N210 C208 1.348 . S
N210 C212 1.346 . S
C211 C208 1.485 . S
C211 H215 0.960 . S
C211 H216 0.961 . S
C211 H217 0.960 . S
C212 N210 1.346 . S
C212 N213 1.307 . S
C212 C214 1.486 . S
N213 N209 1.370 . S
N213 C212 1.307 . S
C214 C212 1.486 . S
C214 H218 0.960 . S
C214 H219 0.960 . S
C214 H220 0.959 . S
H215 C211 0.960 . S
H216 C211 0.961 . S
H217 C211 0.960 . S
H218 C214 0.960 . S
H219 C214 0.960 . S
H220 C214 0.959 . S
C221 N222 1.317 . S
C221 N223 1.348 . S
C221 C224 1.485 . S
N222 C221 1.317 . S
N222 N226 1.370 . S
N223 C221 1.348 . S
N223 C225 1.346 . S
C224 C221 1.485 . S
C224 H228 0.960 . S
C224 H229 0.961 . S
C224 H230 0.960 . S
C225 N223 1.346 . S
C225 N226 1.307 . S
C225 C227 1.486 . S
N226 N222 1.370 . S
N226 C225 1.307 . S
C227 C225 1.486 . S
C227 H231 0.960 . S
C227 H232 0.960 . S
C227 H233 0.959 . S
H228 C224 0.960 . S
H229 C224 0.961 . S
H230 C224 0.960 . S
H231 C227 0.960 . S
H232 C227 0.960 . S
H233 C227 0.959 . S
C234 Eu235 2.835 1_565 S
C234 C236 1.500 . S
C234 O254 1.257 . S
C234 O255 1.260 1_565 S
Eu235 C234 2.835 1_545 S
Eu235 O254 2.473 1_545 S
Eu235 O255 2.480 . S
Eu235 O256 2.430 . S
Eu235 O257 2.670 . S
Eu235 O258 2.394 1_545 S
Eu235 O263 2.355 1_545 S
Eu235 O265 2.374 . S
C236 C234 1.500 . S
C236 C237 1.377 . S
C236 C241 1.377 . S
C237 C236 1.377 . S
C237 C238 1.395 . S
C237 H266 0.931 1_565 S
C238 C237 1.395 . S
C238 C239 1.383 . S
C238 H267 0.931 . S
C239 C238 1.383 . S
C239 C240 1.394 . S
C240 C239 1.394 . S
C240 C241 1.378 . S
C240 H268 0.931 . S
C241 C236 1.377 . S
C241 C240 1.378 . S
C241 H269 0.931 . S
C242 O256 1.259 . S
C242 O257 1.270 . S
C243 O258 1.251 . S
C243 O259 1.251 . S
C244 Eu245 2.835 1_545 S
C244 C246 1.500 . S
C244 O260 1.257 . S
C244 O261 1.260 1_545 S
Eu245 C244 2.835 1_565 S
Eu245 O257 2.355 1_566 S
Eu245 O259 2.374 1_556 S
Eu245 O260 2.473 1_565 S
Eu245 O261 2.480 . S
Eu245 O262 2.430 . S
Eu245 O263 2.670 1_556 S
Eu245 O264 2.394 1_565 S
C246 C244 1.500 . S
C246 C247 1.377 . S
C246 C251 1.377 . S
C247 C246 1.377 . S
C247 C248 1.395 . S
C247 H270 0.931 1_545 S
C248 C247 1.395 . S
C248 C249 1.383 . S
C248 H271 0.931 . S
C249 C248 1.383 . S
C249 C250 1.394 . S
C250 C249 1.394 . S
C250 C251 1.378 . S
C250 H272 0.931 . S
C251 C246 1.377 . S
C251 C250 1.378 . S
C251 H273 0.931 . S
C252 O262 1.259 1_554 S
C252 O263 1.270 . S
C253 O264 1.251 1_554 S
C253 O265 1.251 . S
O254 C234 1.257 . S
O254 Eu235 2.473 1_565 S
O255 C234 1.260 1_545 S
O255 Eu235 2.480 . S
O256 Eu235 2.430 . S
O256 C242 1.259 . S
O257 Eu235 2.670 . S
O257 C242 1.270 . S
O257 Eu245 2.355 1_544 S
O258 Eu235 2.394 1_565 S
O258 C243 1.251 . S
O259 C243 1.251 . S
O259 Eu245 2.374 1_554 S
O260 C244 1.257 . S
O260 Eu245 2.473 1_545 S
O261 C244 1.260 1_565 S
O261 Eu245 2.480 . S
O262 Eu245 2.430 . S
O262 C252 1.259 1_556 S
O263 Eu235 2.355 1_565 S
O263 Eu245 2.670 1_554 S
O263 C252 1.270 . S
O264 Eu245 2.394 1_545 S
O264 C253 1.251 1_556 S
O265 Eu235 2.374 . S
O265 C253 1.251 . S
H266 C237 0.931 1_545 S
H267 C238 0.931 . S
H268 C240 0.931 . S
H269 C241 0.931 . S
H270 C247 0.931 1_565 S
H271 C248 0.931 . S
H272 C250 0.931 . S
H273 C251 0.931 . S
C274 Eu275 2.835 1_455 S
C274 C276 1.500 . S
C274 O294 1.257 . S
C274 O295 1.260 1_455 S
Eu275 C274 2.835 1_655 S
Eu275 O294 2.473 1_655 S
Eu275 O295 2.480 . S
Eu275 O296 2.430 . S
Eu275 O297 2.670 1_554 S
Eu275 O298 2.394 1_655 S
Eu275 O303 2.355 1_655 S
Eu275 O305 2.374 . S
C276 C274 1.500 . S
C276 C277 1.377 . S
C276 C281 1.377 . S
C277 C276 1.377 . S
C277 C278 1.395 . S
C277 H306 0.931 1_455 S
C278 C277 1.395 . S
C278 C279 1.383 . S
C278 H307 0.931 . S
C279 C278 1.383 . S
C279 C280 1.394 . S
C280 C279 1.394 . S
C280 C281 1.378 . S
C280 H308 0.931 . S
C281 C276 1.377 . S
C281 C280 1.378 . S
C281 H309 0.931 . S
C282 O296 1.259 . S
C282 O297 1.270 1_554 S
C283 O298 1.251 . S
C283 O299 1.251 . S
C284 Eu285 2.835 . S
C284 C286 1.500 1_455 S
C284 O300 1.257 1_455 S
C284 O301 1.260 . S
Eu285 C284 2.835 . S
Eu285 O297 2.355 1_455 S
Eu285 O299 2.374 1_556 S
Eu285 O300 2.473 1_455 S
Eu285 O301 2.480 . S
Eu285 O302 2.430 . S
Eu285 O303 2.670 1_556 S
Eu285 O304 2.394 1_455 S
C286 C284 1.500 1_655 S
C286 C287 1.377 1_655 S
C286 C291 1.377 . S
C287 C286 1.377 1_455 S
C287 C288 1.395 . S
C287 H310 0.931 . S
C288 C287 1.395 . S
C288 C289 1.383 1_455 S
C288 H311 0.931 . S
C289 C288 1.383 1_655 S
C289 C290 1.394 . S
C290 C289 1.394 . S
C290 C291 1.378 . S
C290 H312 0.931 . S
C291 C286 1.377 . S
C291 C290 1.378 . S
C291 H313 0.931 . S
C292 O302 1.259 1_554 S
C292 O303 1.270 . S
C293 O304 1.251 . S
C293 O305 1.251 1_556 S
O294 C274 1.257 . S
O294 Eu275 2.473 1_455 S
O295 C274 1.260 1_655 S
O295 Eu275 2.480 . S
O296 Eu275 2.430 . S
O296 C282 1.259 . S
O297 Eu275 2.670 1_556 S
O297 C282 1.270 1_556 S
O297 Eu285 2.355 1_655 S
O298 Eu275 2.394 1_455 S
O298 C283 1.251 . S
O299 C283 1.251 . S
O299 Eu285 2.374 1_554 S
O300 C284 1.257 1_655 S
O300 Eu285 2.473 1_655 S
O301 C284 1.260 . S
O301 Eu285 2.480 . S
O302 Eu285 2.430 . S
O302 C292 1.259 1_556 S
O303 Eu275 2.355 1_455 S
O303 Eu285 2.670 1_554 S
O303 C292 1.270 . S
O304 Eu285 2.394 1_655 S
O304 C293 1.251 . S
O305 Eu275 2.374 . S
O305 C293 1.251 1_554 S
H306 C277 0.931 1_655 S
H307 C278 0.931 . S
H308 C280 0.931 . S
H309 C281 0.931 . S
H310 C287 0.931 . S
H311 C288 0.931 . S
H312 C290 0.931 . S
H313 C291 0.931 . S
C314 Eu315 2.835 . S
C314 C316 1.500 . S
C314 O334 1.257 . S
C314 O335 1.260 . S
Eu315 C314 2.835 . S
Eu315 O334 2.473 . S
Eu315 O335 2.480 . S
Eu315 O336 2.431 . S
Eu315 O337 2.670 1_556 S
Eu315 O338 2.394 . S
Eu315 O343 2.355 1_556 S
Eu315 O345 2.374 1_556 S
C316 C314 1.500 . S
C316 C317 1.377 . S
C316 C321 1.377 . S
C317 C316 1.377 . S
C317 C318 1.395 . S
C317 H346 0.931 . S
C318 C317 1.395 . S
C318 C319 1.383 . S
C318 H347 0.931 . S
C319 C318 1.383 . S
C319 C320 1.394 . S
C320 C319 1.394 . S
C320 C321 1.378 . S
C320 H348 0.931 . S
C321 C316 1.377 . S
C321 C320 1.378 . S
C321 H349 0.931 . S
C322 O336 1.254 1_554 S
C322 O337 1.270 . S
C323 O338 1.251 1_554 S
C323 O339 1.251 . S
C324 Eu325 2.835 . S
C324 C326 1.500 . S
C324 O340 1.257 . S
C324 O341 1.260 . S
Eu325 C324 2.835 . S
Eu325 O337 2.355 . S
Eu325 O339 2.374 . S
Eu325 O340 2.473 . S
Eu325 O341 2.480 . S
Eu325 O342 2.430 . S
Eu325 O343 2.670 . S
Eu325 O344 2.394 . S
C326 C324 1.500 . S
C326 C327 1.377 . S
C326 C331 1.377 . S
C327 C326 1.377 . S
C327 C328 1.395 . S
C327 H350 0.931 . S
C328 C327 1.395 . S
C328 C329 1.383 . S
C328 H351 0.931 . S
C329 C328 1.383 . S
C329 C330 1.394 . S
C330 C329 1.394 . S
C330 C331 1.378 . S
C330 H352 0.931 . S
C331 C326 1.377 . S
C331 C330 1.378 . S
C331 H353 0.931 . S
C332 O342 1.259 . S
C332 O343 1.270 . S
C333 O344 1.251 . S
C333 O345 1.251 . S
O334 C314 1.257 . S
O334 Eu315 2.473 . S
O335 C314 1.260 . S
O335 Eu315 2.480 . S
O336 Eu315 2.431 . S
O336 C322 1.254 1_556 S
O337 Eu315 2.670 1_554 S
O337 C322 1.270 . S
O337 Eu325 2.355 . S
O338 Eu315 2.394 . S
O338 C323 1.251 1_556 S
O339 C323 1.251 . S
O339 Eu325 2.374 . S
O340 C324 1.257 . S
O340 Eu325 2.473 . S
O341 C324 1.260 . S
O341 Eu325 2.480 . S
O342 Eu325 2.430 . S
O342 C332 1.259 . S
O343 Eu315 2.355 1_554 S
O343 Eu325 2.670 . S
O343 C332 1.270 . S
O344 Eu325 2.394 . S
O344 C333 1.251 . S
O345 Eu315 2.374 1_554 S
O345 C333 1.251 . S
H346 C317 0.931 . S
H347 C318 0.931 . S
H348 C320 0.931 . S
H349 C321 0.931 . S
H350 C327 0.931 . S
H351 C328 0.931 . S
H352 C330 0.931 . S
H353 C331 0.931 . S
C354 Eu355 2.835 . S
C354 C356 1.500 . S
C354 O374 1.257 . S
C354 O375 1.260 . S
Eu355 C354 2.835 . S
Eu355 O374 2.473 . S
Eu355 O375 2.480 . S
Eu355 O376 2.430 . S
Eu355 O377 2.670 . S
Eu355 O378 2.394 . S
Eu355 O383 2.355 . S
Eu355 O385 2.374 . S
C356 C354 1.500 . S
C356 C357 1.377 . S
C356 C361 1.377 . S
C357 C356 1.377 . S
C357 C358 1.395 . S
C357 H386 0.931 . S
C358 C357 1.395 . S
C358 C359 1.383 . S
C358 H387 0.931 . S
C359 C358 1.383 . S
C359 C360 1.394 . S
C360 C359 1.394 . S
C360 C361 1.378 . S
C360 H388 0.931 . S
C361 C356 1.377 . S
C361 C360 1.378 . S
C361 H389 0.931 . S
C362 O376 1.259 . S
C362 O377 1.270 . S
C363 O378 1.251 . S
C363 O379 1.251 . S
C364 Eu365 2.835 . S
C364 C366 1.500 . S
C364 O380 1.257 . S
C364 O381 1.260 . S
Eu365 C364 2.835 . S
Eu365 O377 2.355 . S
Eu365 O379 2.374 . S
Eu365 O380 2.473 . S
Eu365 O381 2.480 . S
Eu365 O382 2.430 . S
Eu365 O383 2.670 . S
Eu365 O384 2.394 . S
C366 C364 1.500 . S
C366 C367 1.377 . S
C366 C371 1.377 . S
C367 C366 1.377 . S
C367 C368 1.395 . S
C367 H390 0.931 . S
C368 C367 1.395 . S
C368 C369 1.383 . S
C368 H391 0.931 . S
C369 C368 1.383 . S
C369 C370 1.394 . S
C370 C369 1.394 . S
C370 C371 1.378 . S
C370 H392 0.931 . S
C371 C366 1.377 . S
C371 C370 1.378 . S
C371 H393 0.931 . S
C372 O382 1.259 . S
C372 O383 1.270 . S
C373 O384 1.251 . S
C373 O385 1.251 . S
O374 C354 1.257 . S
O374 Eu355 2.473 . S
O375 C354 1.260 . S
O375 Eu355 2.480 . S
O376 Eu355 2.430 . S
O376 C362 1.259 . S
O377 Eu355 2.670 . S
O377 C362 1.270 . S
O377 Eu365 2.355 . S
O378 Eu355 2.394 . S
O378 C363 1.251 . S
O379 C363 1.251 . S
O379 Eu365 2.374 . S
O380 C364 1.257 . S
O380 Eu365 2.473 . S
O381 C364 1.260 . S
O381 Eu365 2.480 . S
O382 Eu365 2.430 . S
O382 C372 1.259 . S
O383 Eu355 2.355 . S
O383 Eu365 2.670 . S
O383 C372 1.270 . S
O384 Eu365 2.394 . S
O384 C373 1.251 . S
O385 Eu355 2.374 . S
O385 C373 1.251 . S
H386 C357 0.931 . S
H387 C358 0.931 . S
H388 C360 0.931 . S
H389 C361 0.931 . S
H390 C367 0.931 . S
H391 C368 0.931 . S
H392 C370 0.931 . S
H393 C371 0.931 . S
C394 Eu395 2.835 . S
C394 C396 1.500 . S
C394 O414 1.257 . S
C394 O415 1.260 . S
Eu395 C394 2.835 . S
Eu395 O414 2.473 . S
Eu395 O415 2.480 . S
Eu395 O416 2.430 . S
Eu395 O417 2.670 . S
Eu395 O418 2.394 . S
Eu395 O423 2.355 . S
Eu395 O425 2.374 . S
C396 C394 1.500 . S
C396 C397 1.377 . S
C396 C401 1.377 . S
C397 C396 1.377 . S
C397 C398 1.395 . S
C397 H426 0.931 . S
C398 C397 1.395 . S
C398 C399 1.383 . S
C398 H427 0.931 . S
C399 C398 1.383 . S
C399 C400 1.394 . S
C400 C399 1.394 . S
C400 C401 1.378 . S
C400 H428 0.931 . S
C401 C396 1.377 . S
C401 C400 1.378 . S
C401 H429 0.931 . S
C402 O416 1.259 . S
C402 O417 1.270 . S
C403 O418 1.251 . S
C403 O419 1.251 . S
C404 Eu405 2.835 . S
C404 C406 1.500 . S
C404 O420 1.257 . S
C404 O421 1.260 . S
Eu405 C404 2.835 . S
Eu405 O417 2.355 . S
Eu405 O419 2.374 . S
Eu405 O420 2.473 . S
Eu405 O421 2.480 . S
Eu405 O422 2.430 . S
Eu405 O423 2.670 . S
Eu405 O424 2.394 . S
C406 C404 1.500 . S
C406 C407 1.377 . S
C406 C411 1.377 . S
C407 C406 1.377 . S
C407 C408 1.395 . S
C407 H430 0.931 . S
C408 C407 1.395 . S
C408 C409 1.383 . S
C408 H431 0.931 . S
C409 C408 1.383 . S
C409 C410 1.394 . S
C410 C409 1.394 . S
C410 C411 1.378 . S
C410 H432 0.931 . S
C411 C406 1.377 . S
C411 C410 1.378 . S
C411 H433 0.931 . S
C412 O422 1.259 . S
C412 O423 1.270 . S
C413 O424 1.251 . S
C413 O425 1.251 . S
O414 C394 1.257 . S
O414 Eu395 2.473 . S
O415 C394 1.260 . S
O415 Eu395 2.480 . S
O416 Eu395 2.430 . S
O416 C402 1.259 . S
O417 Eu395 2.670 . S
O417 C402 1.270 . S
O417 Eu405 2.355 . S
O418 Eu395 2.394 . S
O418 C403 1.251 . S
O419 C403 1.251 . S
O419 Eu405 2.374 . S
O420 C404 1.257 . S
O420 Eu405 2.473 . S
O421 C404 1.260 . S
O421 Eu405 2.480 . S
O422 Eu405 2.430 . S
O422 C412 1.259 . S
O423 Eu395 2.355 . S
O423 Eu405 2.670 . S
O423 C412 1.270 . S
O424 Eu405 2.394 . S
O424 C413 1.251 . S
O425 Eu395 2.374 . S
O425 C413 1.251 . S
H426 C397 0.931 . S
H427 C398 0.931 . S
H428 C400 0.931 . S
H429 C401 0.931 . S
H430 C407 0.931 . S
H431 C408 0.931 . S
H432 C410 0.931 . S
H433 C411 0.931 . S
C434 Eu435 2.835 . S
C434 C436 1.500 . S
C434 O454 1.257 . S
C434 O455 1.260 . S
Eu435 C434 2.835 . S
Eu435 O454 2.473 . S
Eu435 O455 2.480 . S
Eu435 O456 2.430 . S
Eu435 O457 2.670 . S
Eu435 O458 2.394 . S
Eu435 O463 2.355 . S
Eu435 O465 2.374 . S
C436 C434 1.500 . S
C436 C437 1.377 . S
C436 C441 1.377 . S
C437 C436 1.377 . S
C437 C438 1.395 . S
C437 H466 0.931 . S
C438 C437 1.395 . S
C438 C439 1.383 . S
C438 H467 0.931 . S
C439 C438 1.383 . S
C439 C440 1.394 . S
C440 C439 1.394 . S
C440 C441 1.378 . S
C440 H468 0.931 . S
C441 C436 1.377 . S
C441 C440 1.378 . S
C441 H469 0.931 . S
C442 O456 1.259 . S
C442 O457 1.270 . S
C443 O458 1.251 . S
C443 O459 1.251 . S
C444 Eu445 2.835 . S
C444 C446 1.500 . S
C444 O460 1.257 . S
C444 O461 1.260 . S
Eu445 C444 2.835 . S
Eu445 O457 2.355 . S
Eu445 O459 2.374 . S
Eu445 O460 2.473 . S
Eu445 O461 2.480 . S
Eu445 O462 2.430 . S
Eu445 O463 2.670 . S
Eu445 O464 2.394 . S
C446 C444 1.500 . S
C446 C447 1.377 . S
C446 C451 1.377 . S
C447 C446 1.377 . S
C447 C448 1.395 . S
C447 H470 0.931 . S
C448 C447 1.395 . S
C448 C449 1.383 . S
C448 H471 0.931 . S
C449 C448 1.383 . S
C449 C450 1.394 . S
C450 C449 1.394 . S
C450 C451 1.378 . S
C450 H472 0.931 . S
C451 C446 1.377 . S
C451 C450 1.378 . S
C451 H473 0.931 . S
C452 O462 1.259 . S
C452 O463 1.270 . S
C453 O464 1.251 . S
C453 O465 1.251 . S
O454 C434 1.257 . S
O454 Eu435 2.473 . S
O455 C434 1.260 . S
O455 Eu435 2.480 . S
O456 Eu435 2.430 . S
O456 C442 1.259 . S
O457 Eu435 2.670 . S
O457 C442 1.270 . S
O457 Eu445 2.355 . S
O458 Eu435 2.394 . S
O458 C443 1.251 . S
O459 C443 1.251 . S
O459 Eu445 2.374 . S
O460 C444 1.257 . S
O460 Eu445 2.473 . S
O461 C444 1.260 . S
O461 Eu445 2.480 . S
O462 Eu445 2.430 . S
O462 C452 1.259 . S
O463 Eu435 2.355 . S
O463 Eu445 2.670 . S
O463 C452 1.270 . S
O464 Eu445 2.394 . S
O464 C453 1.251 . S
O465 Eu435 2.374 . S
O465 C453 1.251 . S
H466 C437 0.931 . S
H467 C438 0.931 . S
H468 C440 0.931 . S
H469 C441 0.931 . S
H470 C447 0.931 . S
H471 C448 0.931 . S
H472 C450 0.931 . S
H473 C451 0.931 . S
C474 Eu475 2.835 . S
C474 C476 1.500 . S
C474 O494 1.257 . S
C474 O495 1.260 . S
Eu475 C474 2.835 . S
Eu475 O494 2.473 . S
Eu475 O495 2.480 . S
Eu475 O496 2.430 . S
Eu475 O497 2.670 . S
Eu475 O498 2.394 . S
Eu475 O503 2.355 . S
Eu475 O505 2.374 . S
C476 C474 1.500 . S
C476 C477 1.377 . S
C476 C481 1.377 . S
C477 C476 1.377 . S
C477 C478 1.395 . S
C477 H506 0.931 . S
C478 C477 1.395 . S
C478 C479 1.383 . S
C478 H507 0.931 . S
C479 C478 1.383 . S
C479 C480 1.394 . S
C480 C479 1.394 . S
C480 C481 1.378 . S
C480 H508 0.931 . S
C481 C476 1.377 . S
C481 C480 1.378 . S
C481 H509 0.931 . S
C482 O496 1.259 . S
C482 O497 1.270 . S
C483 O498 1.251 . S
C483 O499 1.251 . S
C484 Eu485 2.835 . S
C484 C486 1.500 . S
C484 O500 1.257 . S
C484 O501 1.260 . S
Eu485 C484 2.835 . S
Eu485 O497 2.355 . S
Eu485 O499 2.374 . S
Eu485 O500 2.473 . S
Eu485 O501 2.480 . S
Eu485 O502 2.430 . S
Eu485 O503 2.670 . S
Eu485 O504 2.394 . S
C486 C484 1.500 . S
C486 C487 1.377 . S
C486 C491 1.377 . S
C487 C486 1.377 . S
C487 C488 1.395 . S
C487 H510 0.931 . S
C488 C487 1.395 . S
C488 C489 1.383 . S
C488 H511 0.931 . S
C489 C488 1.383 . S
C489 C490 1.394 . S
C490 C489 1.394 . S
C490 C491 1.378 . S
C490 H512 0.931 . S
C491 C486 1.377 . S
C491 C490 1.378 . S
C491 H513 0.931 . S
C492 O502 1.259 . S
C492 O503 1.270 . S
C493 O504 1.251 . S
C493 O505 1.251 . S
O494 C474 1.257 . S
O494 Eu475 2.473 . S
O495 C474 1.260 . S
O495 Eu475 2.480 . S
O496 Eu475 2.430 . S
O496 C482 1.259 . S
O497 Eu475 2.670 . S
O497 C482 1.270 . S
O497 Eu485 2.355 . S
O498 Eu475 2.394 . S
O498 C483 1.251 . S
O499 C483 1.251 . S
O499 Eu485 2.374 . S
O500 C484 1.257 . S
O500 Eu485 2.473 . S
O501 C484 1.260 . S
O501 Eu485 2.480 . S
O502 Eu485 2.430 . S
O502 C492 1.259 . S
O503 Eu475 2.355 . S
O503 Eu485 2.670 . S
O503 C492 1.270 . S
O504 Eu485 2.394 . S
O504 C493 1.251 . S
O505 Eu475 2.374 . S
O505 C493 1.251 . S
H506 C477 0.931 . S
H507 C478 0.931 . S
H508 C480 0.931 . S
H509 C481 0.931 . S
H510 C487 0.931 . S
H511 C488 0.931 . S
H512 C490 0.931 . S
H513 C491 0.931 . S
C514 Eu515 2.835 . S
C514 C516 1.500 . S
C514 O534 1.257 . S
C514 O535 1.260 . S
Eu515 C514 2.835 . S
Eu515 O534 2.473 . S
Eu515 O535 2.480 . S
Eu515 O536 2.430 . S
Eu515 O537 2.670 . S
Eu515 O538 2.394 . S
Eu515 O543 2.355 . S
Eu515 O545 2.374 . S
C516 C514 1.500 . S
C516 C517 1.377 . S
C516 C521 1.377 . S
C517 C516 1.377 . S
C517 C518 1.395 . S
C517 H546 0.931 . S
C518 C517 1.395 . S
C518 C519 1.383 . S
C518 H547 0.931 . S
C519 C518 1.383 . S
C519 C520 1.394 . S
C520 C519 1.394 . S
C520 C521 1.378 . S
C520 H548 0.931 . S
C521 C516 1.377 . S
C521 C520 1.378 . S
C521 H549 0.931 . S
C522 O536 1.259 . S
C522 O537 1.270 . S
C523 O538 1.251 . S
C523 O539 1.251 . S
C524 Eu525 2.835 . S
C524 C526 1.500 . S
C524 O540 1.257 . S
C524 O541 1.260 . S
Eu525 C524 2.835 . S
Eu525 O537 2.355 . S
Eu525 O539 2.374 . S
Eu525 O540 2.473 . S
Eu525 O541 2.480 . S
Eu525 O542 2.430 . S
Eu525 O543 2.670 . S
Eu525 O544 2.394 . S
C526 C524 1.500 . S
C526 C527 1.377 . S
C526 C531 1.377 . S
C527 C526 1.377 . S
C527 C528 1.395 . S
C527 H550 0.931 . S
C528 C527 1.395 . S
C528 C529 1.383 . S
C528 H551 0.931 . S
C529 C528 1.383 . S
C529 C530 1.394 . S
C530 C529 1.394 . S
C530 C531 1.378 . S
C530 H552 0.931 . S
C531 C526 1.377 . S
C531 C530 1.378 . S
C531 H553 0.931 . S
C532 O542 1.259 . S
C532 O543 1.270 . S
C533 O544 1.251 . S
C533 O545 1.251 . S
O534 C514 1.257 . S
O534 Eu515 2.473 . S
O535 C514 1.260 . S
O535 Eu515 2.480 . S
O536 Eu515 2.430 . S
O536 C522 1.259 . S
O537 Eu515 2.670 . S
O537 C522 1.270 . S
O537 Eu525 2.355 . S
O538 Eu515 2.394 . S
O538 C523 1.251 . S
O539 C523 1.251 . S
O539 Eu525 2.374 . S
O540 C524 1.257 . S
O540 Eu525 2.473 . S
O541 C524 1.260 . S
O541 Eu525 2.480 . S
O542 Eu525 2.430 . S
O542 C532 1.259 . S
O543 Eu515 2.355 . S
O543 Eu525 2.670 . S
O543 C532 1.270 . S
O544 Eu525 2.394 . S
O544 C533 1.251 . S
O545 Eu515 2.374 . S
O545 C533 1.251 . S
H546 C517 0.931 . S
H547 C518 0.931 . S
H548 C520 0.931 . S
H549 C521 0.931 . S
H550 C527 0.931 . S
H551 C528 0.931 . S
H552 C530 0.931 . S
H553 C531 0.931 . S
C554 Eu555 2.835 . S
C554 C556 1.500 . S
C554 O574 1.257 . S
C554 O575 1.260 . S
Eu555 C554 2.835 . S
Eu555 O574 2.473 . S
Eu555 O575 2.480 . S
Eu555 O576 2.430 . S
Eu555 O577 2.670 . S
Eu555 O578 2.394 . S
Eu555 O583 2.355 . S
Eu555 O585 2.374 . S
C556 C554 1.500 . S
C556 C557 1.377 . S
C556 C561 1.377 . S
C557 C556 1.377 . S
C557 C558 1.395 . S
C557 H586 0.931 . S
C558 C557 1.395 . S
C558 C559 1.383 . S
C558 H587 0.931 . S
C559 C558 1.383 . S
C559 C560 1.394 . S
C560 C559 1.394 . S
C560 C561 1.378 . S
C560 H588 0.931 . S
C561 C556 1.377 . S
C561 C560 1.378 . S
C561 H589 0.931 . S
C562 O576 1.259 . S
C562 O577 1.270 . S
C563 O578 1.251 . S
C563 O579 1.251 . S
C564 Eu565 2.835 . S
C564 C566 1.500 . S
C564 O580 1.257 . S
C564 O581 1.260 . S
Eu565 C564 2.835 . S
Eu565 O577 2.355 . S
Eu565 O579 2.374 . S
Eu565 O580 2.473 . S
Eu565 O581 2.480 . S
Eu565 O582 2.430 . S
Eu565 O583 2.670 . S
Eu565 O584 2.394 . S
C566 C564 1.500 . S
C566 C567 1.377 . S
C566 C571 1.377 . S
C567 C566 1.377 . S
C567 C568 1.395 . S
C567 H590 0.931 . S
C568 C567 1.395 . S
C568 C569 1.383 . S
C568 H591 0.931 . S
C569 C568 1.383 . S
C569 C570 1.394 . S
C570 C569 1.394 . S
C570 C571 1.378 . S
C570 H592 0.931 . S
C571 C566 1.377 . S
C571 C570 1.378 . S
C571 H593 0.931 . S
C572 O582 1.259 . S
C572 O583 1.270 . S
C573 O584 1.251 . S
C573 O585 1.251 . S
O574 C554 1.257 . S
O574 Eu555 2.473 . S
O575 C554 1.260 . S
O575 Eu555 2.480 . S
O576 Eu555 2.430 . S
O576 C562 1.259 . S
O577 Eu555 2.670 . S
O577 C562 1.270 . S
O577 Eu565 2.355 . S
O578 Eu555 2.394 . S
O578 C563 1.251 . S
O579 C563 1.251 . S
O579 Eu565 2.374 . S
O580 C564 1.257 . S
O580 Eu565 2.473 . S
O581 C564 1.260 . S
O581 Eu565 2.480 . S
O582 Eu565 2.430 . S
O582 C572 1.259 . S
O583 Eu555 2.355 . S
O583 Eu565 2.670 . S
O583 C572 1.270 . S
O584 Eu565 2.394 . S
O584 C573 1.251 . S
O585 Eu555 2.374 . S
O585 C573 1.251 . S
H586 C557 0.931 . S
H587 C558 0.931 . S
H588 C560 0.931 . S
H589 C561 0.931 . S
H590 C567 0.931 . S
H591 C568 0.931 . S
H592 C570 0.931 . S
H593 C571 0.931 . S
H594 C602 0.950 . S
H595 C607 0.950 . S
H596 C604 0.950 . S
H597 C606 0.950 . S
H598 C608 0.950 . S
H599 C610 0.950 . S
H600 C612 0.950 . S
H601 C613 0.950 . S
C602 H594 0.950 . S
C602 C603 1.386 . S
C602 C604 1.391 . S
C603 C602 1.386 . S
C603 C607 1.393 . S
C604 H596 0.950 . S
C604 C602 1.391 . S
C604 C605 1.400 . S
C605 C604 1.400 . S
C605 C606 1.398 . S
C605 C611 1.491 . S
C606 H597 0.950 . S
C606 C605 1.398 . S
C606 C607 1.391 . S
C607 H595 0.950 . S
C607 C603 1.393 . S
C607 C606 1.391 . S
C608 H598 0.950 . S
C608 C609 1.386 . S
C608 C610 1.391 . S
C609 C608 1.386 . S
C609 C613 1.393 . S
C610 H599 0.950 . S
C610 C608 1.391 . S
C610 C611 1.400 . S
C611 C605 1.491 . S
C611 C610 1.400 . S
C611 C612 1.398 . S
C612 H600 0.950 . S
C612 C611 1.398 . S
C612 C613 1.391 . S
C613 H601 0.950 . S
C613 C609 1.393 . S
C613 C612 1.391 . S
H614 C622 0.950 . S
H615 C627 0.950 . S
H616 C624 0.950 . S
H617 C626 0.950 . S
H618 C628 0.950 . S
H619 C630 0.950 . S
H620 C632 0.950 . S
H621 C633 0.950 . S
C622 H614 0.950 . S
C622 C623 1.386 . S
C622 C624 1.391 . S
C623 C622 1.386 . S
C623 C627 1.393 . S
C624 H616 0.950 . S
C624 C622 1.391 . S
C624 C625 1.400 . S
C625 C624 1.400 . S
C625 C626 1.398 . S
C625 C631 1.491 . S
C626 H617 0.950 . S
C626 C625 1.398 . S
C626 C627 1.391 . S
C627 H615 0.950 . S
C627 C623 1.393 . S
C627 C626 1.391 . S
C628 H618 0.950 . S
C628 C629 1.386 . S
C628 C630 1.391 . S
C629 C628 1.386 . S
C629 C633 1.393 . S
C630 H619 0.950 . S
C630 C628 1.391 . S
C630 C631 1.400 . S
C631 C625 1.491 . S
C631 C630 1.400 . S
C631 C632 1.398 . S
C632 H620 0.950 . S
C632 C631 1.398 . S
C632 C633 1.391 . S
C633 H621 0.950 . S
C633 C629 1.393 . S
C633 C632 1.391 . S
H634 C642 0.950 . S
H635 C647 0.950 . S
H636 C644 0.950 . S
H637 C646 0.950 . S
H638 C648 0.950 . S
H639 C650 0.950 . S
H640 C652 0.950 . S
H641 C653 0.950 . S
C642 H634 0.950 . S
C642 C643 1.386 . S
C642 C644 1.391 . S
C643 C642 1.386 . S
C643 C647 1.393 . S
C644 H636 0.950 . S
C644 C642 1.391 . S
C644 C645 1.400 . S
C645 C644 1.400 . S
C645 C646 1.398 . S
C645 C651 1.491 . S
C646 H637 0.950 . S
C646 C645 1.398 . S
C646 C647 1.391 . S
C647 H635 0.950 . S
C647 C643 1.393 . S
C647 C646 1.391 . S
C648 H638 0.950 . S
C648 C649 1.386 . S
C648 C650 1.391 . S
C649 C648 1.386 . S
C649 C653 1.393 . S
C650 H639 0.950 . S
C650 C648 1.391 . S
C650 C651 1.400 . S
C651 C645 1.491 . S
C651 C650 1.400 . S
C651 C652 1.398 . S
C652 H640 0.950 . S
C652 C651 1.398 . S
C652 C653 1.391 . S
C653 H641 0.950 . S
C653 C649 1.393 . S
C653 C652 1.391 . S
H654 C662 0.950 . S
H655 C667 0.950 . S
H656 C664 0.962 . S
H657 C666 0.950 . S
H658 C668 0.950 . S
H659 C670 0.950 . S
H660 C672 0.950 1_554 S
H661 C673 0.950 . S
C662 H654 0.950 . S
C662 C663 1.386 . S
C662 C664 1.391 . S
C663 C662 1.386 . S
C663 C667 1.393 . S
C664 H656 0.962 . S
C664 C662 1.391 . S
C664 C665 1.400 . S
C665 C664 1.400 . S
C665 C666 1.398 . S
C665 C671 1.491 . S
C666 H657 0.950 . S
C666 C665 1.398 . S
C666 C667 1.391 . S
C667 H655 0.950 . S
C667 C663 1.393 . S
C667 C666 1.391 . S
C668 H658 0.950 . S
C668 C669 1.386 . S
C668 C670 1.391 . S
C669 C668 1.386 . S
C669 C673 1.393 1_556 S
C670 H659 0.950 . S
C670 C668 1.391 . S
C670 C671 1.400 . S
C671 C665 1.491 . S
C671 C670 1.400 . S
C671 C672 1.398 . S
C672 H660 0.950 1_556 S
C672 C671 1.398 . S
C672 C673 1.391 1_556 S
C673 H661 0.950 . S
C673 C669 1.393 1_554 S
C673 C672 1.391 1_554 S
H674 C682 0.950 . S
H675 C687 0.950 . S
H676 C684 0.950 . S
H677 C686 0.950 . S
H678 C688 0.950 . S
H679 C690 0.950 . S
H680 C692 0.959 . S
H681 C693 0.950 . S
C682 H674 0.950 . S
C682 C683 1.386 . S
C682 C684 1.391 . S
C683 C682 1.386 . S
C683 C687 1.393 . S
C684 H676 0.950 . S
C684 C682 1.391 . S
C684 C685 1.400 . S
C685 C684 1.400 . S
C685 C686 1.398 . S
C685 C691 1.491 . S
C686 H677 0.950 . S
C686 C685 1.398 . S
C686 C687 1.391 . S
C687 H675 0.950 . S
C687 C683 1.393 . S
C687 C686 1.391 . S
C688 H678 0.950 . S
C688 C689 1.386 . S
C688 C690 1.391 . S
C689 C688 1.386 . S
C689 C693 1.393 1_556 S
C690 H679 0.950 . S
C690 C688 1.391 . S
C690 C691 1.400 . S
C691 C685 1.491 . S
C691 C690 1.400 . S
C691 C692 1.381 1_556 S
C692 H680 0.959 . S
C692 C691 1.381 1_554 S
C692 C693 1.399 . S
C693 H681 0.950 . S
C693 C689 1.393 1_554 S
C693 C692 1.399 . S
H694 C702 0.950 . S
H695 C707 0.950 . S
H696 C704 0.950 . S
H697 C706 0.950 . S
H698 C708 0.957 . S
H699 C710 0.950 . S
H700 C712 0.950 . S
H701 C713 0.950 . S
C702 H694 0.950 . S
C702 C703 1.386 . S
C702 C704 1.391 . S
C703 C702 1.386 . S
C703 C707 1.393 . S
C704 H696 0.950 . S
C704 C702 1.391 . S
C704 C705 1.400 . S
C705 C704 1.400 . S
C705 C706 1.398 . S
C705 C711 1.491 . S
C706 H697 0.950 . S
C706 C705 1.398 . S
C706 C707 1.391 . S
C707 H695 0.950 . S
C707 C703 1.393 . S
C707 C706 1.391 . S
C708 H698 0.957 . S
C708 C709 1.387 . S
C708 C710 1.385 1_554 S
C709 C708 1.387 . S
C709 C713 1.393 1_554 S
C710 H699 0.950 . S
C710 C708 1.385 1_556 S
C710 C711 1.400 . S
C711 C705 1.491 . S
C711 C710 1.400 . S
C711 C712 1.398 . S
C712 H700 0.950 . S
C712 C711 1.398 . S
C712 C713 1.391 . S
C713 H701 0.950 . S
C713 C709 1.393 1_556 S
C713 C712 1.391 . S
H714 C722 0.950 1_554 S
H715 C727 0.950 . S
H716 C724 0.950 1_554 S
H717 C726 0.950 . S
H718 C728 0.950 . S
H719 C730 0.950 . S
H720 C732 0.950 . S
H721 C733 0.950 . S
C722 H714 0.950 1_556 S
C722 C723 1.386 . S
C722 C724 1.391 . S
C723 C722 1.386 . S
C723 C727 1.393 . S
C724 H716 0.950 1_556 S
C724 C722 1.391 . S
C724 C725 1.400 . S
C725 C724 1.400 . S
C725 C726 1.398 . S
C725 C731 1.491 . S
C726 H717 0.950 . S
C726 C725 1.398 . S
C726 C727 1.391 . S
C727 H715 0.950 . S
C727 C723 1.393 . S
C727 C726 1.391 . S
C728 H718 0.950 . S
C728 C729 1.386 . S
C728 C730 1.391 . S
C729 C728 1.386 . S
C729 C733 1.393 1_556 S
C730 H719 0.950 . S
C730 C728 1.391 . S
C730 C731 1.400 . S
C731 C725 1.491 . S
C731 C730 1.400 . S
C731 C732 1.398 1_556 S
C732 H720 0.950 . S
C732 C731 1.398 1_554 S
C732 C733 1.391 . S
C733 H721 0.950 . S
C733 C729 1.393 1_554 S
C733 C732 1.391 . S
H734 C742 0.950 . S
H735 C747 0.950 . S
H736 C744 0.950 . S
H737 C746 0.950 . S
H738 C748 0.950 . S
H739 C750 0.950 . S
H740 C752 0.950 . S
H741 C753 0.950 . S
C742 H734 0.950 . S
C742 C743 1.386 . S
C742 C744 1.391 . S
C743 C742 1.386 . S
C743 C747 1.393 . S
C744 H736 0.950 . S
C744 C742 1.391 . S
C744 C745 1.400 . S
C745 C744 1.400 . S
C745 C746 1.398 . S
C745 C751 1.491 . S
C746 H737 0.950 . S
C746 C745 1.398 . S
C746 C747 1.391 . S
C747 H735 0.950 . S
C747 C743 1.393 . S
C747 C746 1.391 . S
C748 H738 0.950 . S
C748 C749 1.386 . S
C748 C750 1.391 . S
C749 C748 1.386 . S
C749 C753 1.393 . S
C750 H739 0.950 . S
C750 C748 1.391 . S
C750 C751 1.400 . S
C751 C745 1.491 . S
C751 C750 1.400 . S
C751 C752 1.398 . S
C752 H740 0.950 . S
C752 C751 1.398 . S
C752 C753 1.391 . S
C753 H741 0.950 . S
C753 C749 1.393 . S
C753 C752 1.391 . S
H754 C762 0.950 . S
H755 C767 0.950 . S
H756 C764 0.950 . S
H757 C766 0.950 . S
H758 C768 0.950 . S
H759 C770 0.950 . S
H760 C772 0.950 . S
H761 C773 0.950 . S
C762 H754 0.950 . S
C762 C763 1.386 1_554 S
C762 C764 1.391 . S
C763 C762 1.386 1_556 S
C763 C767 1.393 . S
C764 H756 0.950 . S
C764 C762 1.391 . S
C764 C765 1.400 1_554 S
C765 C764 1.400 1_556 S
C765 C766 1.398 . S
C765 C771 1.491 1_556 S
C766 H757 0.950 . S
C766 C765 1.398 . S
C766 C767 1.391 . S
C767 H755 0.950 . S
C767 C763 1.393 . S
C767 C766 1.391 . S
C768 H758 0.950 . S
C768 C769 1.386 1_556 S
C768 C770 1.391 . S
C769 C768 1.386 1_554 S
C769 C773 1.393 . S
C770 H759 0.950 . S
C770 C768 1.391 . S
C770 C771 1.400 1_556 S
C771 C765 1.491 1_554 S
C771 C770 1.400 1_554 S
C771 C772 1.398 . S
C772 H760 0.950 . S
C772 C771 1.398 . S
C772 C773 1.391 . S
C773 H761 0.950 . S
C773 C769 1.393 . S
C773 C772 1.391 . S
H774 C782 0.950 . S
H775 C787 0.950 . S
H776 C784 0.950 . S
H777 C786 0.950 . S
H778 C788 0.950 1_556 S
H779 C790 0.958 . S
H780 C792 0.950 . S
H781 C793 0.950 . S
C782 H774 0.950 . S
C782 C783 1.386 . S
C782 C784 1.391 . S
C783 C782 1.386 . S
C783 C787 1.393 . S
C784 H776 0.950 . S
C784 C782 1.391 . S
C784 C785 1.400 . S
C785 C784 1.400 . S
C785 C786 1.398 . S
C785 C791 1.491 . S
C786 H777 0.950 . S
C786 C785 1.398 . S
C786 C787 1.391 . S
C787 H775 0.950 . S
C787 C783 1.393 . S
C787 C786 1.391 . S
C788 H778 0.950 1_554 S
C788 C789 1.386 . S
C788 C790 1.391 . S
C789 C788 1.386 . S
C789 C793 1.393 . S
C790 H779 0.958 . S
C790 C788 1.391 . S
C790 C791 1.400 . S
C791 C785 1.491 . S
C791 C790 1.400 . S
C791 C792 1.398 . S
C792 H780 0.950 . S
C792 C791 1.398 . S
C792 C793 1.391 . S
C793 H781 0.950 . S
C793 C789 1.393 . S
C793 C792 1.391 . S
H794 C802 0.950 . S
H795 C807 0.950 . S
H796 C804 0.950 . S
H797 C806 0.950 . S
H798 C808 0.950 . S
H799 C810 0.950 . S
H800 C812 0.950 . S
H801 C813 0.950 . S
C802 H794 0.950 . S
C802 C803 1.386 . S
C802 C804 1.391 . S
C803 C802 1.386 . S
C803 C807 1.393 . S
C804 H796 0.950 . S
C804 C802 1.391 . S
C804 C805 1.400 . S
C805 C804 1.400 . S
C805 C806 1.398 . S
C805 C811 1.491 . S
C806 H797 0.950 . S
C806 C805 1.398 . S
C806 C807 1.391 . S
C807 H795 0.950 . S
C807 C803 1.393 . S
C807 C806 1.391 . S
C808 H798 0.950 . S
C808 C809 1.386 . S
C808 C810 1.391 . S
C809 C808 1.386 . S
C809 C813 1.393 . S
C810 H799 0.950 . S
C810 C808 1.391 . S
C810 C811 1.400 . S
C811 C805 1.491 . S
C811 C810 1.400 . S
C811 C812 1.398 . S
C812 H800 0.950 . S
C812 C811 1.398 . S
C812 C813 1.391 . S
C813 H801 0.950 . S
C813 C809 1.393 . S
C813 C812 1.391 . S
H814 C822 0.950 . S
H815 C827 0.950 . S
H816 C824 0.950 . S
H817 C826 0.950 . S
H818 C828 0.950 . S
H819 C830 0.950 . S
H820 C832 0.950 . S
H821 C833 0.950 . S
C822 H814 0.950 . S
C822 C823 1.386 . S
C822 C824 1.391 . S
C823 C822 1.386 . S
C823 C827 1.393 . S
C824 H816 0.950 . S
C824 C822 1.391 . S
C824 C825 1.400 . S
C825 C824 1.400 . S
C825 C826 1.398 . S
C825 C831 1.491 . S
C826 H817 0.950 . S
C826 C825 1.398 . S
C826 C827 1.391 . S
C827 H815 0.950 . S
C827 C823 1.393 . S
C827 C826 1.391 . S
C828 H818 0.950 . S
C828 C829 1.386 . S
C828 C830 1.391 . S
C829 C828 1.386 . S
C829 C833 1.393 . S
C830 H819 0.950 . S
C830 C828 1.391 . S
C830 C831 1.400 . S
C831 C825 1.491 . S
C831 C830 1.400 . S
C831 C832 1.398 . S
C832 H820 0.950 . S
C832 C831 1.398 . S
C832 C833 1.391 . S
C833 H821 0.950 . S
C833 C829 1.393 . S
C833 C832 1.391 . S
H834 C842 0.950 . S
H835 C847 0.950 . S
H836 C844 0.950 . S
H837 C846 0.950 . S
H838 C848 0.950 . S
H839 C850 0.950 . S
H840 C852 0.950 . S
H841 C853 0.950 . S
C842 H834 0.950 . S
C842 C843 1.386 . S
C842 C844 1.391 . S
C843 C842 1.386 . S
C843 C847 1.393 . S
C844 H836 0.950 . S
C844 C842 1.391 . S
C844 C845 1.400 . S
C845 C844 1.400 . S
C845 C846 1.398 . S
C845 C851 1.491 1_655 S
C846 H837 0.950 . S
C846 C845 1.398 . S
C846 C847 1.391 . S
C847 H835 0.950 . S
C847 C843 1.393 . S
C847 C846 1.391 . S
C848 H838 0.950 . S
C848 C849 1.386 . S
C848 C850 1.391 . S
C849 C848 1.386 . S
C849 C853 1.393 . S
C850 H839 0.950 . S
C850 C848 1.391 . S
C850 C851 1.400 . S
C851 C845 1.491 1_455 S
C851 C850 1.400 . S
C851 C852 1.398 . S
C852 H840 0.950 . S
C852 C851 1.398 . S
C852 C853 1.391 . S
C853 H841 0.950 . S
C853 C849 1.393 . S
C853 C852 1.391 . S
H854 C862 0.950 . S
H855 C867 0.950 . S
H856 C864 0.950 . S
H857 C866 0.950 . S
H858 C868 0.950 . S
H859 C870 0.950 . S
H860 C872 0.950 . S
H861 C873 0.950 . S
C862 H854 0.950 . S
C862 C863 1.386 . S
C862 C864 1.391 . S
C863 C862 1.386 . S
C863 C867 1.393 . S
C864 H856 0.950 . S
C864 C862 1.391 . S
C864 C865 1.400 . S
C865 C864 1.400 . S
C865 C866 1.398 . S
C865 C871 1.491 . S
C866 H857 0.950 . S
C866 C865 1.398 . S
C866 C867 1.391 . S
C867 H855 0.950 . S
C867 C863 1.393 . S
C867 C866 1.391 . S
C868 H858 0.950 . S
C868 C869 1.386 . S
C868 C870 1.391 . S
C869 C868 1.386 . S
C869 C873 1.393 . S
C870 H859 0.950 . S
C870 C868 1.391 . S
C870 C871 1.400 . S
C871 C865 1.491 . S
C871 C870 1.400 . S
C871 C872 1.398 . S
C872 H860 0.950 . S
C872 C871 1.398 . S
C872 C873 1.391 . S
C873 H861 0.950 . S
C873 C869 1.393 . S
C873 C872 1.391 . S
H874 C882 0.950 . S
H875 C887 0.950 . S
H876 C884 0.950 . S
H877 C886 0.950 . S
H878 C888 0.950 . S
H879 C890 0.950 . S
H880 C892 0.950 . S
H881 C893 0.950 . S
C882 H874 0.950 . S
C882 C883 1.386 . S
C882 C884 1.391 . S
C883 C882 1.386 . S
C883 C887 1.393 . S
C884 H876 0.950 . S
C884 C882 1.391 . S
C884 C885 1.400 . S
C885 C884 1.400 . S
C885 C886 1.398 . S
C885 C891 1.491 1_545 S
C886 H877 0.950 . S
C886 C885 1.398 . S
C886 C887 1.391 . S
C887 H875 0.950 . S
C887 C883 1.393 . S
C887 C886 1.391 . S
C888 H878 0.950 . S
C888 C889 1.386 . S
C888 C890 1.391 . S
C889 C888 1.386 . S
C889 C893 1.393 . S
C890 H879 0.950 . S
C890 C888 1.391 . S
C890 C891 1.400 . S
C891 C885 1.491 1_565 S
C891 C890 1.400 . S
C891 C892 1.398 . S
C892 H880 0.950 . S
C892 C891 1.398 . S
C892 C893 1.391 . S
C893 H881 0.950 . S
C893 C889 1.393 . S
C893 C892 1.391 . S
H894 C902 0.950 . S
H895 C907 0.950 . S
H896 C904 0.950 . S
H897 C906 0.950 . S
H898 C908 0.950 . S
H899 C910 0.950 . S
H900 C912 0.950 . S
H901 C913 0.950 . S
C902 H894 0.950 . S
C902 C903 1.386 . S
C902 C904 1.391 . S
C903 C902 1.386 . S
C903 C907 1.393 . S
C904 H896 0.950 . S
C904 C902 1.391 . S
C904 C905 1.400 . S
C905 C904 1.400 . S
C905 C906 1.398 . S
C905 C911 1.491 . S
C906 H897 0.950 . S
C906 C905 1.398 . S
C906 C907 1.391 . S
C907 H895 0.950 . S
C907 C903 1.393 . S
C907 C906 1.391 . S
C908 H898 0.950 . S
C908 C909 1.386 . S
C908 C910 1.391 . S
C909 C908 1.386 . S
C909 C913 1.393 . S
C910 H899 0.950 . S
C910 C908 1.391 . S
C910 C911 1.400 . S
C911 C905 1.491 . S
C911 C910 1.400 . S
C911 C912 1.398 . S
C912 H900 0.950 . S
C912 C911 1.398 . S
C912 C913 1.391 . S
C913 H901 0.950 . S
C913 C909 1.393 . S
C913 C912 1.391 . S
H914 C922 0.950 . S
H915 C927 0.950 . S
H916 C924 0.950 . S
H917 C926 0.950 . S
H918 C928 0.950 . S
H919 C930 0.950 . S
H920 C932 0.950 . S
H921 C933 0.950 . S
C922 H914 0.950 . S
C922 C923 1.386 . S
C922 C924 1.391 . S
C923 C922 1.386 . S
C923 C927 1.393 . S
C924 H916 0.950 . S
C924 C922 1.391 . S
C924 C925 1.400 . S
C925 C924 1.400 . S
C925 C926 1.398 . S
C925 C931 1.491 . S
C926 H917 0.950 . S
C926 C925 1.398 . S
C926 C927 1.391 . S
C927 H915 0.950 . S
C927 C923 1.393 . S
C927 C926 1.391 . S
C928 H918 0.950 . S
C928 C929 1.386 . S
C928 C930 1.391 . S
C929 C928 1.386 . S
C929 C933 1.393 . S
C930 H919 0.950 . S
C930 C928 1.391 . S
C930 C931 1.400 . S
C931 C925 1.491 . S
C931 C930 1.400 . S
C931 C932 1.398 . S
C932 H920 0.950 . S
C932 C931 1.398 . S
C932 C933 1.391 . S
C933 H921 0.950 . S
C933 C929 1.393 . S
C933 C932 1.391 . S
H934 C942 0.950 . S
H935 C947 0.950 . S
H936 C944 0.950 . S
H937 C946 0.950 . S
H938 C948 0.950 . S
H939 C950 0.950 . S
H940 C952 0.950 . S
H941 C953 0.950 . S
C942 H934 0.950 . S
C942 C943 1.386 . S
C942 C944 1.391 . S
C943 C942 1.386 . S
C943 C947 1.393 . S
C944 H936 0.950 . S
C944 C942 1.391 . S
C944 C945 1.400 . S
C945 C944 1.400 . S
C945 C946 1.398 . S
C945 C951 1.491 . S
C946 H937 0.950 . S
C946 C945 1.398 . S
C946 C947 1.391 . S
C947 H935 0.950 . S
C947 C943 1.393 . S
C947 C946 1.391 . S
C948 H938 0.950 . S
C948 C949 1.386 . S
C948 C950 1.391 . S
C949 C948 1.386 . S
C949 C953 1.393 . S
C950 H939 0.950 . S
C950 C948 1.391 . S
C950 C951 1.400 . S
C951 C945 1.491 . S
C951 C950 1.400 . S
C951 C952 1.398 . S
C952 H940 0.950 . S
C952 C951 1.398 . S
C952 C953 1.391 . S
C953 H941 0.950 . S
C953 C949 1.393 . S
C953 C952 1.391 . S
H954 C962 0.950 . S
H955 C967 0.950 . S
H956 C964 0.950 . S
H957 C966 0.950 . S
H958 C968 0.950 . S
H959 C970 0.950 . S
H960 C972 0.950 . S
H961 C973 0.950 . S
C962 H954 0.950 . S
C962 C963 1.386 . S
C962 C964 1.391 . S
C963 C962 1.386 . S
C963 C967 1.393 . S
C964 H956 0.950 . S
C964 C962 1.391 . S
C964 C965 1.400 . S
C965 C964 1.400 . S
C965 C966 1.398 . S
C965 C971 1.491 . S
C966 H957 0.950 . S
C966 C965 1.398 . S
C966 C967 1.391 . S
C967 H955 0.950 . S
C967 C963 1.393 . S
C967 C966 1.391 . S
C968 H958 0.950 . S
C968 C969 1.386 . S
C968 C970 1.391 . S
C969 C968 1.386 . S
C969 C973 1.393 . S
C970 H959 0.950 . S
C970 C968 1.391 . S
C970 C971 1.400 . S
C971 C965 1.491 . S
C971 C970 1.400 . S
C971 C972 1.398 . S
C972 H960 0.950 . S
C972 C971 1.398 . S
C972 C973 1.391 . S
C973 H961 0.950 . S
C973 C969 1.393 . S
C973 C972 1.391 . S
H974 C982 0.950 . S
H975 C987 0.950 . S
H976 C984 0.950 . S
H977 C986 0.950 . S
H978 C988 0.950 . S
H979 C990 0.950 . S
H980 C992 0.950 . S
H981 C993 0.950 . S
C982 H974 0.950 . S
C982 C983 1.386 . S
C982 C984 1.391 . S
C983 C982 1.386 . S
C983 C987 1.393 . S
C984 H976 0.950 . S
C984 C982 1.391 . S
C984 C985 1.400 . S
C985 C984 1.400 . S
C985 C986 1.398 . S
C985 C991 1.491 . S
C986 H977 0.950 . S
C986 C985 1.398 . S
C986 C987 1.391 . S
C987 H975 0.950 . S
C987 C983 1.393 . S
C987 C986 1.391 . S
C988 H978 0.950 . S
C988 C989 1.386 . S
C988 C990 1.391 . S
C989 C988 1.386 . S
C989 C993 1.393 . S
C990 H979 0.950 . S
C990 C988 1.391 . S
C990 C991 1.400 . S
C991 C985 1.491 . S
C991 C990 1.400 . S
C991 C992 1.398 . S
C992 H980 0.950 . S
C992 C991 1.398 . S
C992 C993 1.391 . S
C993 H981 0.950 . S
C993 C989 1.393 . S
C993 C992 1.391 . S
H994 C1002 0.950 . S
H995 C1007 0.950 . S
H996 C1004 0.950 . S
H997 C1006 0.950 . S
H998 C1008 0.950 . S
H999 C1010 0.950 . S
H1000 C1012 0.950 . S
H1001 C1013 0.950 . S
C1002 H994 0.950 . S
C1002 C1003 1.386 . S
C1002 C1004 1.391 . S
C1003 C1002 1.386 . S
C1003 C1007 1.393 . S
C1004 H996 0.950 . S
C1004 C1002 1.391 . S
C1004 C1005 1.400 . S
C1005 C1004 1.400 . S
C1005 C1006 1.398 . S
C1005 C1011 1.491 . S
C1006 H997 0.950 . S
C1006 C1005 1.398 . S
C1006 C1007 1.391 . S
C1007 H995 0.950 . S
C1007 C1003 1.393 . S
C1007 C1006 1.391 . S
C1008 H998 0.950 . S
C1008 C1009 1.386 . S
C1008 C1010 1.391 . S
C1009 C1008 1.386 . S
C1009 C1013 1.393 . S
C1010 H999 0.950 . S
C1010 C1008 1.391 . S
C1010 C1011 1.400 . S
C1011 C1005 1.491 . S
C1011 C1010 1.400 . S
C1011 C1012 1.398 . S
C1012 H1000 0.950 . S
C1012 C1011 1.398 . S
C1012 C1013 1.391 . S
C1013 H1001 0.950 . S
C1013 C1009 1.393 . S
C1013 C1012 1.391 . S
H1014 C1022 0.950 . S
H1015 C1027 0.950 . S
H1016 C1024 0.950 . S
H1017 C1026 0.950 . S
H1018 C1028 0.950 . S
H1019 C1030 0.950 . S
H1020 C1032 0.950 . S
H1021 C1033 0.950 . S
C1022 H1014 0.950 . S
C1022 C1023 1.386 . S
C1022 C1024 1.391 . S
C1023 C1022 1.386 . S
C1023 C1027 1.393 . S
C1024 H1016 0.950 . S
C1024 C1022 1.391 . S
C1024 C1025 1.400 . S
C1025 C1024 1.400 . S
C1025 C1026 1.398 . S
C1025 C1031 1.491 1_545 S
C1026 H1017 0.950 . S
C1026 C1025 1.398 . S
C1026 C1027 1.391 . S
C1027 H1015 0.950 . S
C1027 C1023 1.393 . S
C1027 C1026 1.391 . S
C1028 H1018 0.950 . S
C1028 C1029 1.386 . S
C1028 C1030 1.391 . S
C1029 C1028 1.386 . S
C1029 C1033 1.393 . S
C1030 H1019 0.950 . S
C1030 C1028 1.391 . S
C1030 C1031 1.400 . S
C1031 C1025 1.491 1_565 S
C1031 C1030 1.400 . S
C1031 C1032 1.398 . S
C1032 H1020 0.950 . S
C1032 C1031 1.398 . S
C1032 C1033 1.391 . S
C1033 H1021 0.950 . S
C1033 C1029 1.393 . S
C1033 C1032 1.391 . S
H1034 C1042 0.950 . S
H1035 C1047 0.950 . S
H1036 C1044 0.950 . S
H1037 C1046 0.934 1_455 S
H1038 C1048 0.950 . S
H1039 C1050 0.950 . S
H1040 C1052 0.950 . S
H1041 C1053 0.950 . S
C1042 H1034 0.950 . S
C1042 C1043 1.386 . S
C1042 C1044 1.391 . S
C1043 C1042 1.386 . S
C1043 C1047 1.393 . S
C1044 H1036 0.950 . S
C1044 C1042 1.391 . S
C1044 C1045 1.384 1_655 S
C1045 C1044 1.384 1_455 S
C1045 C1046 1.368 1_455 S
C1045 C1051 1.521 . S
C1046 H1037 0.934 1_655 S
C1046 C1045 1.368 1_655 S
C1046 C1047 1.424 . S
C1047 H1035 0.950 . S
C1047 C1043 1.393 . S
C1047 C1046 1.424 . S
C1048 H1038 0.950 . S
C1048 C1049 1.386 . S
C1048 C1050 1.391 . S
C1049 C1048 1.386 . S
C1049 C1053 1.393 . S
C1050 H1039 0.950 . S
C1050 C1048 1.391 . S
C1050 C1051 1.400 . S
C1051 C1045 1.521 . S
C1051 C1050 1.400 . S
C1051 C1052 1.398 . S
C1052 H1040 0.950 . S
C1052 C1051 1.398 . S
C1052 C1053 1.391 . S
C1053 H1041 0.950 . S
C1053 C1049 1.393 . S
C1053 C1052 1.391 . S
H1054 C1062 0.950 . S
H1055 C1067 0.950 . S
H1056 C1064 0.950 . S
H1057 C1066 0.950 . S
H1058 C1068 0.950 . S
H1059 C1070 0.950 . S
H1060 C1072 0.950 . S
H1061 C1073 0.950 . S
C1062 H1054 0.950 . S
C1062 C1063 1.386 . S
C1062 C1064 1.391 . S
C1063 C1062 1.386 . S
C1063 C1067 1.393 . S
C1064 H1056 0.950 . S
C1064 C1062 1.391 . S
C1064 C1065 1.400 . S
C1065 C1064 1.400 . S
C1065 C1066 1.398 . S
C1065 C1071 1.491 . S
C1066 H1057 0.950 . S
C1066 C1065 1.398 . S
C1066 C1067 1.391 . S
C1067 H1055 0.950 . S
C1067 C1063 1.393 . S
C1067 C1066 1.391 . S
C1068 H1058 0.950 . S
C1068 C1069 1.386 . S
C1068 C1070 1.391 . S
C1069 C1068 1.386 . S
C1069 C1073 1.393 . S
C1070 H1059 0.950 . S
C1070 C1068 1.391 . S
C1070 C1071 1.400 . S
C1071 C1065 1.491 . S
C1071 C1070 1.400 . S
C1071 C1072 1.398 . S
C1072 H1060 0.950 . S
C1072 C1071 1.398 . S
C1072 C1073 1.391 . S
C1073 H1061 0.950 . S
C1073 C1069 1.393 . S
C1073 C1072 1.391 . S
H1074 C1082 0.950 . S
H1075 C1087 0.950 . S
H1076 C1084 0.950 . S
H1077 C1086 0.950 . S
H1078 C1088 0.950 . S
H1079 C1090 0.950 . S
H1080 C1092 0.950 . S
H1081 C1093 0.950 . S
C1082 H1074 0.950 . S
C1082 C1083 1.386 . S
C1082 C1084 1.391 . S
C1083 C1082 1.386 . S
C1083 C1087 1.393 . S
C1084 H1076 0.950 . S
C1084 C1082 1.391 . S
C1084 C1085 1.400 . S
C1085 C1084 1.400 . S
C1085 C1086 1.398 . S
C1085 C1091 1.491 . S
C1086 H1077 0.950 . S
C1086 C1085 1.398 . S
C1086 C1087 1.391 . S
C1087 H1075 0.950 . S
C1087 C1083 1.393 . S
C1087 C1086 1.391 . S
C1088 H1078 0.950 . S
C1088 C1089 1.386 . S
C1088 C1090 1.391 . S
C1089 C1088 1.386 . S
C1089 C1093 1.393 . S
C1090 H1079 0.950 . S
C1090 C1088 1.391 . S
C1090 C1091 1.400 . S
C1091 C1085 1.491 . S
C1091 C1090 1.400 . S
C1091 C1092 1.398 . S
C1092 H1080 0.950 . S
C1092 C1091 1.398 . S
C1092 C1093 1.391 . S
C1093 H1081 0.950 . S
C1093 C1089 1.393 . S
C1093 C1092 1.391 . S
H1094 C1102 0.950 . S
H1095 C1107 0.950 . S
H1096 C1104 0.950 . S
H1097 C1106 0.950 . S
H1098 C1108 0.950 . S
H1099 C1110 0.950 . S
H1100 C1112 0.950 . S
H1101 C1113 0.950 . S
C1102 H1094 0.950 . S
C1102 C1103 1.386 . S
C1102 C1104 1.391 . S
C1103 C1102 1.386 . S
C1103 C1107 1.393 . S
C1104 H1096 0.950 . S
C1104 C1102 1.391 . S
C1104 C1105 1.400 . S
C1105 C1104 1.400 . S
C1105 C1106 1.398 . S
C1105 C1111 1.491 . S
C1106 H1097 0.950 . S
C1106 C1105 1.398 . S
C1106 C1107 1.391 . S
C1107 H1095 0.950 . S
C1107 C1103 1.393 . S
C1107 C1106 1.391 . S
C1108 H1098 0.950 . S
C1108 C1109 1.386 . S
C1108 C1110 1.391 . S
C1109 C1108 1.386 . S
C1109 C1113 1.393 . S
C1110 H1099 0.950 . S
C1110 C1108 1.391 . S
C1110 C1111 1.400 . S
C1111 C1105 1.491 . S
C1111 C1110 1.400 . S
C1111 C1112 1.398 . S
C1112 H1100 0.950 . S
C1112 C1111 1.398 . S
C1112 C1113 1.391 . S
C1113 H1101 0.950 . S
C1113 C1109 1.393 . S
C1113 C1112 1.391 . S
H1114 C1122 0.950 . S
H1115 C1127 0.950 . S
H1116 C1124 0.950 . S
H1117 C1126 0.950 . S
H1118 C1128 0.950 . S
H1119 C1130 0.950 . S
H1120 C1132 0.950 . S
H1121 C1133 0.950 . S
C1122 H1114 0.950 . S
C1122 C1123 1.386 . S
C1122 C1124 1.391 . S
C1123 C1122 1.386 . S
C1123 C1127 1.393 . S
C1124 H1116 0.950 . S
C1124 C1122 1.391 . S
C1124 C1125 1.400 . S
C1125 C1124 1.400 . S
C1125 C1126 1.398 . S
C1125 C1131 1.491 . S
C1126 H1117 0.950 . S
C1126 C1125 1.398 . S
C1126 C1127 1.391 . S
C1127 H1115 0.950 . S
C1127 C1123 1.393 . S
C1127 C1126 1.391 . S
C1128 H1118 0.950 . S
C1128 C1129 1.386 . S
C1128 C1130 1.391 . S
C1129 C1128 1.386 . S
C1129 C1133 1.393 . S
C1130 H1119 0.950 . S
C1130 C1128 1.391 . S
C1130 C1131 1.400 . S
C1131 C1125 1.491 . S
C1131 C1130 1.400 . S
C1131 C1132 1.398 . S
C1132 H1120 0.950 . S
C1132 C1131 1.398 . S
C1132 C1133 1.391 . S
C1133 H1121 0.950 . S
C1133 C1129 1.393 . S
C1133 C1132 1.391 . S
H1134 C1142 0.950 . S
H1135 C1147 0.950 . S
H1136 C1144 0.950 1_545 S
H1137 C1146 0.950 . S
H1138 C1148 0.950 . S
H1139 C1150 0.950 . S
H1140 C1152 0.950 . S
H1141 C1153 0.950 . S
C1142 H1134 0.950 . S
C1142 C1143 1.386 . S
C1142 C1144 1.391 . S
C1143 C1142 1.386 . S
C1143 C1147 1.393 . S
C1144 H1136 0.950 1_565 S
C1144 C1142 1.391 . S
C1144 C1145 1.400 1_565 S
C1145 C1144 1.400 1_545 S
C1145 C1146 1.398 1_545 S
C1145 C1151 1.491 . S
C1146 H1137 0.950 . S
C1146 C1145 1.398 1_565 S
C1146 C1147 1.391 . S
C1147 H1135 0.950 . S
C1147 C1143 1.393 . S
C1147 C1146 1.391 . S
C1148 H1138 0.950 . S
C1148 C1149 1.386 . S
C1148 C1150 1.391 . S
C1149 C1148 1.386 . S
C1149 C1153 1.393 . S
C1150 H1139 0.950 . S
C1150 C1148 1.391 . S
C1150 C1151 1.400 . S
C1151 C1145 1.491 . S
C1151 C1150 1.400 . S
C1151 C1152 1.398 . S
C1152 H1140 0.950 . S
C1152 C1151 1.398 . S
C1152 C1153 1.391 . S
C1153 H1141 0.950 . S
C1153 C1149 1.393 . S
C1153 C1152 1.391 . S
H1154 C1162 0.950 . S
H1155 C1167 0.950 . S
H1156 C1164 0.950 . S
H1157 C1166 0.950 . S
H1158 C1168 0.950 . S
H1159 C1170 0.950 . S
H1160 C1172 0.950 . S
H1161 C1173 0.950 . S
C1162 H1154 0.950 . S
C1162 C1163 1.386 . S
C1162 C1164 1.391 1_455 S
C1163 C1162 1.386 . S
C1163 C1167 1.393 . S
C1164 H1156 0.950 . S
C1164 C1162 1.391 1_655 S
C1164 C1165 1.400 . S
C1165 C1164 1.400 . S
C1165 C1166 1.398 1_655 S
C1165 C1171 1.491 . S
C1166 H1157 0.950 . S
C1166 C1165 1.398 1_455 S
C1166 C1167 1.391 . S
C1167 H1155 0.950 . S
C1167 C1163 1.393 . S
C1167 C1166 1.391 . S
C1168 H1158 0.950 . S
C1168 C1169 1.386 . S
C1168 C1170 1.391 . S
C1169 C1168 1.386 . S
C1169 C1173 1.393 . S
C1170 H1159 0.950 . S
C1170 C1168 1.391 . S
C1170 C1171 1.400 . S
C1171 C1165 1.491 . S
C1171 C1170 1.400 . S
C1171 C1172 1.398 . S
C1172 H1160 0.950 . S
C1172 C1171 1.398 . S
C1172 C1173 1.391 . S
C1173 H1161 0.950 . S
C1173 C1169 1.393 . S
C1173 C1172 1.391 . S
H1174 C1182 0.950 . S
H1175 C1187 0.950 . S
H1176 C1184 0.950 . S
H1177 C1186 0.950 . S
H1178 C1188 0.950 . S
H1179 C1190 0.950 . S
H1180 C1192 0.950 . S
H1181 C1193 0.950 . S
C1182 H1174 0.950 . S
C1182 C1183 1.386 . S
C1182 C1184 1.391 . S
C1183 C1182 1.386 . S
C1183 C1187 1.393 . S
C1184 H1176 0.950 . S
C1184 C1182 1.391 . S
C1184 C1185 1.400 . S
C1185 C1184 1.400 . S
C1185 C1186 1.398 . S
C1185 C1191 1.491 . S
C1186 H1177 0.950 . S
C1186 C1185 1.398 . S
C1186 C1187 1.391 . S
C1187 H1175 0.950 . S
C1187 C1183 1.393 . S
C1187 C1186 1.391 . S
C1188 H1178 0.950 . S
C1188 C1189 1.386 . S
C1188 C1190 1.391 . S
C1189 C1188 1.386 . S
C1189 C1193 1.393 . S
C1190 H1179 0.950 . S
C1190 C1188 1.391 . S
C1190 C1191 1.400 . S
C1191 C1185 1.491 . S
C1191 C1190 1.400 . S
C1191 C1192 1.398 . S
C1192 H1180 0.950 . S
C1192 C1191 1.398 . S
C1192 C1193 1.391 . S
C1193 H1181 0.950 . S
C1193 C1189 1.393 . S
C1193 C1192 1.391 . S
H1194 C1202 0.950 . S
H1195 C1207 0.950 . S
H1196 C1204 0.950 . S
H1197 C1206 0.950 . S
H1198 C1208 0.950 . S
H1199 C1210 0.950 . S
H1200 C1212 0.950 . S
H1201 C1213 0.950 . S
C1202 H1194 0.950 . S
C1202 C1203 1.386 . S
C1202 C1204 1.391 . S
C1203 C1202 1.386 . S
C1203 C1207 1.393 . S
C1204 H1196 0.950 . S
C1204 C1202 1.391 . S
C1204 C1205 1.400 . S
C1205 C1204 1.400 . S
C1205 C1206 1.398 . S
C1205 C1211 1.491 . S
C1206 H1197 0.950 . S
C1206 C1205 1.398 . S
C1206 C1207 1.391 . S
C1207 H1195 0.950 . S
C1207 C1203 1.393 . S
C1207 C1206 1.391 . S
C1208 H1198 0.950 . S
C1208 C1209 1.386 . S
C1208 C1210 1.391 . S
C1209 C1208 1.386 . S
C1209 C1213 1.393 . S
C1210 H1199 0.950 . S
C1210 C1208 1.391 . S
C1210 C1211 1.400 1_655 S
C1211 C1205 1.491 . S
C1211 C1210 1.400 1_455 S
C1211 C1212 1.398 . S
C1212 H1200 0.950 . S
C1212 C1211 1.398 . S
C1212 C1213 1.391 1_455 S
C1213 H1201 0.950 . S
C1213 C1209 1.393 . S
C1213 C1212 1.391 1_655 S
H1214 C1222 0.950 . S
H1215 C1227 0.950 . S
H1216 C1224 0.950 . S
H1217 C1226 0.950 . S
H1218 C1228 0.950 . S
H1219 C1230 0.950 . S
H1220 C1232 0.950 . S
H1221 C1233 0.950 . S
C1222 H1214 0.950 . S
C1222 C1223 1.386 . S
C1222 C1224 1.391 . S
C1223 C1222 1.386 . S
C1223 C1227 1.393 . S
C1224 H1216 0.950 . S
C1224 C1222 1.391 . S
C1224 C1225 1.400 . S
C1225 C1224 1.400 . S
C1225 C1226 1.398 . S
C1225 C1231 1.491 . S
C1226 H1217 0.950 . S
C1226 C1225 1.398 . S
C1226 C1227 1.391 . S
C1227 H1215 0.950 . S
C1227 C1223 1.393 . S
C1227 C1226 1.391 . S
C1228 H1218 0.950 . S
C1228 C1229 1.386 . S
C1228 C1230 1.391 . S
C1229 C1228 1.386 . S
C1229 C1233 1.393 . S
C1230 H1219 0.950 . S
C1230 C1228 1.391 . S
C1230 C1231 1.400 . S
C1231 C1225 1.491 . S
C1231 C1230 1.400 . S
C1231 C1232 1.398 . S
C1232 H1220 0.950 . S
C1232 C1231 1.398 . S
C1232 C1233 1.391 . S
C1233 H1221 0.950 . S
C1233 C1229 1.393 . S
C1233 C1232 1.391 . S
H1234 C1242 0.950 . S
H1235 C1247 0.950 . S
H1236 C1244 0.950 . S
H1237 C1246 0.950 . S
H1238 C1248 0.950 . S
H1239 C1250 0.950 . S
H1240 C1252 0.950 . S
H1241 C1253 0.950 . S
C1242 H1234 0.950 . S
C1242 C1243 1.386 . S
C1242 C1244 1.391 . S
C1243 C1242 1.386 . S
C1243 C1247 1.393 . S
C1244 H1236 0.950 . S
C1244 C1242 1.391 . S
C1244 C1245 1.400 . S
C1245 C1244 1.400 . S
C1245 C1246 1.398 . S
C1245 C1251 1.491 1_565 S
C1246 H1237 0.950 . S
C1246 C1245 1.398 . S
C1246 C1247 1.391 . S
C1247 H1235 0.950 . S
C1247 C1243 1.393 . S
C1247 C1246 1.391 . S
C1248 H1238 0.950 . S
C1248 C1249 1.386 . S
C1248 C1250 1.391 . S
C1249 C1248 1.386 . S
C1249 C1253 1.393 . S
C1250 H1239 0.950 . S
C1250 C1248 1.391 . S
C1250 C1251 1.400 . S
C1251 C1245 1.491 1_545 S
C1251 C1250 1.400 . S
C1251 C1252 1.398 . S
C1252 H1240 0.950 . S
C1252 C1251 1.398 . S
C1252 C1253 1.391 . S
C1253 H1241 0.950 . S
C1253 C1249 1.393 . S
C1253 C1252 1.391 . S
H1254 C1262 0.950 . S
H1255 C1267 0.950 . S
H1256 C1264 0.950 . S
H1257 C1266 0.950 . S
H1258 C1268 0.950 . S
H1259 C1270 0.950 . S
H1260 C1272 0.950 . S
H1261 C1273 0.950 . S
C1262 H1254 0.950 . S
C1262 C1263 1.386 . S
C1262 C1264 1.391 . S
C1263 C1262 1.386 . S
C1263 C1267 1.393 . S
C1264 H1256 0.950 . S
C1264 C1262 1.391 . S
C1264 C1265 1.400 . S
C1265 C1264 1.400 . S
C1265 C1266 1.398 . S
C1265 C1271 1.491 . S
C1266 H1257 0.950 . S
C1266 C1265 1.398 . S
C1266 C1267 1.391 . S
C1267 H1255 0.950 . S
C1267 C1263 1.393 . S
C1267 C1266 1.391 . S
C1268 H1258 0.950 . S
C1268 C1269 1.386 . S
C1268 C1270 1.391 . S
C1269 C1268 1.386 . S
C1269 C1273 1.393 . S
C1270 H1259 0.950 . S
C1270 C1268 1.391 . S
C1270 C1271 1.400 . S
C1271 C1265 1.491 . S
C1271 C1270 1.400 . S
C1271 C1272 1.398 . S
C1272 H1260 0.950 . S
C1272 C1271 1.398 . S
C1272 C1273 1.391 . S
C1273 H1261 0.950 . S
C1273 C1269 1.393 . S
C1273 C1272 1.391 . S
H1274 C1282 0.950 . S
H1275 C1287 0.950 . S
H1276 C1284 0.950 . S
H1277 C1286 0.950 . S
H1278 C1288 0.950 . S
H1279 C1290 0.950 . S
H1280 C1292 0.950 . S
H1281 C1293 0.950 . S
C1282 H1274 0.950 . S
C1282 C1283 1.386 . S
C1282 C1284 1.391 . S
C1283 C1282 1.386 . S
C1283 C1287 1.393 . S
C1284 H1276 0.950 . S
C1284 C1282 1.391 . S
C1284 C1285 1.400 . S
C1285 C1284 1.400 . S
C1285 C1286 1.398 . S
C1285 C1291 1.491 . S
C1286 H1277 0.950 . S
C1286 C1285 1.398 . S
C1286 C1287 1.391 . S
C1287 H1275 0.950 . S
C1287 C1283 1.393 . S
C1287 C1286 1.391 . S
C1288 H1278 0.950 . S
C1288 C1289 1.386 . S
C1288 C1290 1.391 . S
C1289 C1288 1.386 . S
C1289 C1293 1.393 . S
C1290 H1279 0.950 . S
C1290 C1288 1.391 . S
C1290 C1291 1.400 . S
C1291 C1285 1.491 . S
C1291 C1290 1.400 . S
C1291 C1292 1.398 . S
C1292 H1280 0.950 . S
C1292 C1291 1.398 . S
C1292 C1293 1.391 . S
C1293 H1281 0.950 . S
C1293 C1289 1.393 . S
C1293 C1292 1.391 . S
H1294 C1302 0.950 . S
H1295 C1307 0.950 . S
H1296 C1304 0.950 . S
H1297 C1306 0.950 . S
H1298 C1308 0.950 . S
H1299 C1310 0.950 . S
H1300 C1312 0.950 . S
H1301 C1313 0.950 . S
C1302 H1294 0.950 . S
C1302 C1303 1.386 . S
C1302 C1304 1.391 . S
C1303 C1302 1.386 . S
C1303 C1307 1.393 . S
C1304 H1296 0.950 . S
C1304 C1302 1.391 . S
C1304 C1305 1.400 . S
C1305 C1304 1.400 . S
C1305 C1306 1.398 . S
C1305 C1311 1.491 . S
C1306 H1297 0.950 . S
C1306 C1305 1.398 . S
C1306 C1307 1.391 . S
C1307 H1295 0.950 . S
C1307 C1303 1.393 . S
C1307 C1306 1.391 . S
C1308 H1298 0.950 . S
C1308 C1309 1.386 . S
C1308 C1310 1.391 . S
C1309 C1308 1.386 . S
C1309 C1313 1.393 . S
C1310 H1299 0.950 . S
C1310 C1308 1.391 . S
C1310 C1311 1.400 . S
C1311 C1305 1.491 . S
C1311 C1310 1.400 . S
C1311 C1312 1.398 . S
C1312 H1300 0.950 . S
C1312 C1311 1.398 . S
C1312 C1313 1.391 . S
C1313 H1301 0.950 . S
C1313 C1309 1.393 . S
C1313 C1312 1.391 . S
H1314 C1322 0.950 . S
H1315 C1327 0.950 . S
H1316 C1324 0.950 . S
H1317 C1326 0.950 . S
H1318 C1328 0.950 . S
H1319 C1330 0.950 . S
H1320 C1332 0.950 . S
H1321 C1333 0.950 . S
C1322 H1314 0.950 . S
C1322 C1323 1.386 . S
C1322 C1324 1.391 . S
C1323 C1322 1.386 . S
C1323 C1327 1.393 . S
C1324 H1316 0.950 . S
C1324 C1322 1.391 . S
C1324 C1325 1.400 . S
C1325 C1324 1.400 . S
C1325 C1326 1.398 . S
C1325 C1331 1.491 . S
C1326 H1317 0.950 . S
C1326 C1325 1.398 . S
C1326 C1327 1.391 . S
C1327 H1315 0.950 . S
C1327 C1323 1.393 . S
C1327 C1326 1.391 . S
C1328 H1318 0.950 . S
C1328 C1329 1.386 . S
C1328 C1330 1.391 . S
C1329 C1328 1.386 . S
C1329 C1333 1.393 . S
C1330 H1319 0.950 . S
C1330 C1328 1.391 . S
C1330 C1331 1.400 . S
C1331 C1325 1.491 . S
C1331 C1330 1.400 . S
C1331 C1332 1.398 . S
C1332 H1320 0.950 . S
C1332 C1331 1.398 . S
C1332 C1333 1.391 . S
C1333 H1321 0.950 . S
C1333 C1329 1.393 . S
C1333 C1332 1.391 . S
H1334 C1342 0.950 . S
H1335 C1347 0.950 . S
H1336 C1344 0.950 . S
H1337 C1346 0.950 . S
H1338 C1348 0.950 . S
H1339 C1350 0.950 . S
H1340 C1352 0.950 . S
H1341 C1353 0.950 . S
C1342 H1334 0.950 . S
C1342 C1343 1.386 . S
C1342 C1344 1.391 . S
C1343 C1342 1.386 . S
C1343 C1347 1.393 . S
C1344 H1336 0.950 . S
C1344 C1342 1.391 . S
C1344 C1345 1.400 . S
C1345 C1344 1.400 . S
C1345 C1346 1.398 . S
C1345 C1351 1.491 . S
C1346 H1337 0.950 . S
C1346 C1345 1.398 . S
C1346 C1347 1.391 . S
C1347 H1335 0.950 . S
C1347 C1343 1.393 . S
C1347 C1346 1.391 . S
C1348 H1338 0.950 . S
C1348 C1349 1.386 . S
C1348 C1350 1.391 . S
C1349 C1348 1.386 . S
C1349 C1353 1.393 . S
C1350 H1339 0.950 . S
C1350 C1348 1.391 . S
C1350 C1351 1.400 . S
C1351 C1345 1.491 . S
C1351 C1350 1.400 . S
C1351 C1352 1.398 . S
C1352 H1340 0.950 . S
C1352 C1351 1.398 . S
C1352 C1353 1.391 . S
C1353 H1341 0.950 . S
C1353 C1349 1.393 . S
C1353 C1352 1.391 . S
H1354 C1362 0.950 . S
H1355 C1367 0.950 . S
H1356 C1364 0.950 . S
H1357 C1366 0.950 . S
H1358 C1368 0.950 . S
H1359 C1370 0.950 . S
H1360 C1372 0.950 . S
H1361 C1373 0.950 . S
C1362 H1354 0.950 . S
C1362 C1363 1.386 . S
C1362 C1364 1.391 . S
C1363 C1362 1.386 . S
C1363 C1367 1.393 . S
C1364 H1356 0.950 . S
C1364 C1362 1.391 . S
C1364 C1365 1.400 . S
C1365 C1364 1.400 . S
C1365 C1366 1.398 . S
C1365 C1371 1.491 . S
C1366 H1357 0.950 . S
C1366 C1365 1.398 . S
C1366 C1367 1.391 . S
C1367 H1355 0.950 . S
C1367 C1363 1.393 . S
C1367 C1366 1.391 . S
C1368 H1358 0.950 . S
C1368 C1369 1.386 . S
C1368 C1370 1.391 . S
C1369 C1368 1.386 . S
C1369 C1373 1.393 . S
C1370 H1359 0.950 . S
C1370 C1368 1.391 . S
C1370 C1371 1.400 . S
C1371 C1365 1.491 . S
C1371 C1370 1.400 . S
C1371 C1372 1.398 . S
C1372 H1360 0.950 . S
C1372 C1371 1.398 . S
C1372 C1373 1.391 . S
C1373 H1361 0.950 . S
C1373 C1369 1.393 . S
C1373 C1372 1.391 . S
H1374 C1382 0.950 . S
H1375 C1387 0.950 . S
H1376 C1384 0.950 . S
H1377 C1386 0.950 . S
H1378 C1388 0.950 . S
H1379 C1390 0.950 . S
H1380 C1392 0.950 . S
H1381 C1393 0.950 . S
C1382 H1374 0.950 . S
C1382 C1383 1.386 . S
C1382 C1384 1.391 . S
C1383 C1382 1.386 . S
C1383 C1387 1.393 . S
C1384 H1376 0.950 . S
C1384 C1382 1.391 . S
C1384 C1385 1.400 . S
C1385 C1384 1.400 . S
C1385 C1386 1.398 . S
C1385 C1391 1.491 . S
C1386 H1377 0.950 . S
C1386 C1385 1.398 . S
C1386 C1387 1.391 . S
C1387 H1375 0.950 . S
C1387 C1383 1.393 . S
C1387 C1386 1.391 . S
C1388 H1378 0.950 . S
C1388 C1389 1.386 . S
C1388 C1390 1.391 . S
C1389 C1388 1.386 . S
C1389 C1393 1.393 . S
C1390 H1379 0.950 . S
C1390 C1388 1.391 . S
C1390 C1391 1.400 . S
C1391 C1385 1.491 . S
C1391 C1390 1.400 . S
C1391 C1392 1.398 . S
C1392 H1380 0.950 . S
C1392 C1391 1.398 . S
C1392 C1393 1.391 . S
C1393 H1381 0.950 . S
C1393 C1389 1.393 . S
C1393 C1392 1.391 . S
H1394 C1402 0.950 . S
H1395 C1407 0.950 . S
H1396 C1404 0.950 . S
H1397 C1406 0.950 . S
H1398 C1408 0.950 . S
H1399 C1410 0.950 . S
H1400 C1412 0.950 . S
H1401 C1413 0.950 . S
C1402 H1394 0.950 . S
C1402 C1403 1.386 . S
C1402 C1404 1.391 . S
C1403 C1402 1.386 . S
C1403 C1407 1.393 . S
C1404 H1396 0.950 . S
C1404 C1402 1.391 . S
C1404 C1405 1.400 . S
C1405 C1404 1.400 . S
C1405 C1406 1.398 . S
C1405 C1411 1.491 . S
C1406 H1397 0.950 . S
C1406 C1405 1.398 . S
C1406 C1407 1.391 . S
C1407 H1395 0.950 . S
C1407 C1403 1.393 . S
C1407 C1406 1.391 . S
C1408 H1398 0.950 . S
C1408 C1409 1.386 . S
C1408 C1410 1.391 . S
C1409 C1408 1.386 . S
C1409 C1413 1.393 . S
C1410 H1399 0.950 . S
C1410 C1408 1.391 . S
C1410 C1411 1.400 . S
C1411 C1405 1.491 . S
C1411 C1410 1.400 . S
C1411 C1412 1.398 . S
C1412 H1400 0.950 . S
C1412 C1411 1.398 . S
C1412 C1413 1.391 . S
C1413 H1401 0.950 . S
C1413 C1409 1.393 . S
C1413 C1412 1.391 . S
H1414 C1422 0.950 . S
H1415 C1427 0.950 . S
H1416 C1424 0.950 . S
H1417 C1426 0.950 . S
H1418 C1428 0.950 . S
H1419 C1430 0.950 . S
H1420 C1432 0.950 . S
H1421 C1433 0.950 . S
C1422 H1414 0.950 . S
C1422 C1423 1.386 . S
C1422 C1424 1.391 . S
C1423 C1422 1.386 . S
C1423 C1427 1.393 . S
C1424 H1416 0.950 . S
C1424 C1422 1.391 . S
C1424 C1425 1.400 . S
C1425 C1424 1.400 . S
C1425 C1426 1.398 . S
C1425 C1431 1.491 . S
C1426 H1417 0.950 . S
C1426 C1425 1.398 . S
C1426 C1427 1.391 . S
C1427 H1415 0.950 . S
C1427 C1423 1.393 . S
C1427 C1426 1.391 . S
C1428 H1418 0.950 . S
C1428 C1429 1.386 . S
C1428 C1430 1.391 . S
C1429 C1428 1.386 . S
C1429 C1433 1.393 . S
C1430 H1419 0.950 . S
C1430 C1428 1.391 . S
C1430 C1431 1.400 . S
C1431 C1425 1.491 . S
C1431 C1430 1.400 . S
C1431 C1432 1.398 . S
C1432 H1420 0.950 . S
C1432 C1431 1.398 . S
C1432 C1433 1.391 . S
C1433 H1421 0.950 . S
C1433 C1429 1.393 . S
C1433 C1432 1.391 . S
H1434 C1442 0.950 . S
H1435 C1447 0.950 . S
H1436 C1444 0.950 . S
H1437 C1446 0.950 . S
H1438 C1448 0.950 . S
H1439 C1450 0.950 . S
H1440 C1452 0.950 . S
H1441 C1453 0.950 . S
C1442 H1434 0.950 . S
C1442 C1443 1.386 . S
C1442 C1444 1.391 . S
C1443 C1442 1.386 . S
C1443 C1447 1.393 . S
C1444 H1436 0.950 . S
C1444 C1442 1.391 . S
C1444 C1445 1.400 . S
C1445 C1444 1.400 . S
C1445 C1446 1.398 . S
C1445 C1451 1.491 . S
C1446 H1437 0.950 . S
C1446 C1445 1.398 . S
C1446 C1447 1.391 . S
C1447 H1435 0.950 . S
C1447 C1443 1.393 . S
C1447 C1446 1.391 . S
C1448 H1438 0.950 . S
C1448 C1449 1.386 . S
C1448 C1450 1.391 . S
C1449 C1448 1.386 . S
C1449 C1453 1.393 . S
C1450 H1439 0.950 . S
C1450 C1448 1.391 . S
C1450 C1451 1.400 . S
C1451 C1445 1.491 . S
C1451 C1450 1.400 . S
C1451 C1452 1.398 . S
C1452 H1440 0.950 . S
C1452 C1451 1.398 . S
C1452 C1453 1.391 . S
C1453 H1441 0.950 . S
C1453 C1449 1.393 . S
C1453 C1452 1.391 . S
H1454 C1462 0.950 . S
H1455 C1467 0.950 . S
H1456 C1464 0.950 . S
H1457 C1466 0.950 . S
H1458 C1468 0.950 . S
H1459 C1470 0.950 . S
H1460 C1472 0.950 . S
H1461 C1473 0.950 . S
C1462 H1454 0.950 . S
C1462 C1463 1.386 . S
C1462 C1464 1.391 . S
C1463 C1462 1.386 . S
C1463 C1467 1.393 . S
C1464 H1456 0.950 . S
C1464 C1462 1.391 . S
C1464 C1465 1.400 . S
C1465 C1464 1.400 . S
C1465 C1466 1.398 . S
C1465 C1471 1.491 . S
C1466 H1457 0.950 . S
C1466 C1465 1.398 . S
C1466 C1467 1.391 . S
C1467 H1455 0.950 . S
C1467 C1463 1.393 . S
C1467 C1466 1.391 . S
C1468 H1458 0.950 . S
C1468 C1469 1.386 . S
C1468 C1470 1.391 . S
C1469 C1468 1.386 . S
C1469 C1473 1.393 . S
C1470 H1459 0.950 . S
C1470 C1468 1.391 . S
C1470 C1471 1.400 . S
C1471 C1465 1.491 . S
C1471 C1470 1.400 . S
C1471 C1472 1.398 . S
C1472 H1460 0.950 . S
C1472 C1471 1.398 . S
C1472 C1473 1.391 . S
C1473 H1461 0.950 . S
C1473 C1469 1.393 . S
C1473 C1472 1.391 . S
H1474 C1482 0.950 . S
H1475 C1487 0.950 . S
H1476 C1484 0.950 . S
H1477 C1486 0.950 . S
H1478 C1488 0.950 . S
H1479 C1490 0.950 . S
H1480 C1492 0.950 . S
H1481 C1493 0.950 . S
C1482 H1474 0.950 . S
C1482 C1483 1.386 . S
C1482 C1484 1.391 . S
C1483 C1482 1.386 . S
C1483 C1487 1.393 . S
C1484 H1476 0.950 . S
C1484 C1482 1.391 . S
C1484 C1485 1.400 . S
C1485 C1484 1.400 . S
C1485 C1486 1.398 . S
C1485 C1491 1.491 . S
C1486 H1477 0.950 . S
C1486 C1485 1.398 . S
C1486 C1487 1.391 . S
C1487 H1475 0.950 . S
C1487 C1483 1.393 . S
C1487 C1486 1.391 . S
C1488 H1478 0.950 . S
C1488 C1489 1.386 . S
C1488 C1490 1.391 . S
C1489 C1488 1.386 . S
C1489 C1493 1.393 . S
C1490 H1479 0.950 . S
C1490 C1488 1.391 . S
C1490 C1491 1.400 . S
C1491 C1485 1.491 . S
C1491 C1490 1.400 . S
C1491 C1492 1.398 . S
C1492 H1480 0.950 . S
C1492 C1491 1.398 . S
C1492 C1493 1.391 . S
C1493 H1481 0.950 . S
C1493 C1489 1.393 . S
C1493 C1492 1.391 . S
H1494 C1502 0.950 . S
H1495 C1507 0.950 . S
H1496 C1504 0.950 . S
H1497 C1506 0.950 . S
H1498 C1508 0.950 . S
H1499 C1510 0.950 . S
H1500 C1512 0.950 . S
H1501 C1513 0.950 . S
C1502 H1494 0.950 . S
C1502 C1503 1.386 . S
C1502 C1504 1.391 . S
C1503 C1502 1.386 . S
C1503 C1507 1.393 . S
C1504 H1496 0.950 . S
C1504 C1502 1.391 . S
C1504 C1505 1.400 . S
C1505 C1504 1.400 . S
C1505 C1506 1.398 . S
C1505 C1511 1.491 . S
C1506 H1497 0.950 . S
C1506 C1505 1.398 . S
C1506 C1507 1.391 . S
C1507 H1495 0.950 . S
C1507 C1503 1.393 . S
C1507 C1506 1.391 . S
C1508 H1498 0.950 . S
C1508 C1509 1.386 . S
C1508 C1510 1.391 . S
C1509 C1508 1.386 . S
C1509 C1513 1.393 . S
C1510 H1499 0.950 . S
C1510 C1508 1.391 . S
C1510 C1511 1.400 . S
C1511 C1505 1.491 . S
C1511 C1510 1.400 . S
C1511 C1512 1.398 . S
C1512 H1500 0.950 . S
C1512 C1511 1.398 . S
C1512 C1513 1.391 . S
C1513 H1501 0.950 . S
C1513 C1509 1.393 . S
C1513 C1512 1.391 . S
H1514 C1522 0.950 . S
H1515 C1527 0.950 . S
H1516 C1524 0.950 . S
H1517 C1526 0.950 . S
H1518 C1528 0.950 . S
H1519 C1530 0.950 . S
H1520 C1532 0.950 . S
H1521 C1533 0.950 . S
C1522 H1514 0.950 . S
C1522 C1523 1.386 . S
C1522 C1524 1.391 . S
C1523 C1522 1.386 . S
C1523 C1527 1.393 . S
C1524 H1516 0.950 . S
C1524 C1522 1.391 . S
C1524 C1525 1.400 . S
C1525 C1524 1.400 . S
C1525 C1526 1.398 . S
C1525 C1531 1.491 . S
C1526 H1517 0.950 . S
C1526 C1525 1.398 . S
C1526 C1527 1.391 . S
C1527 H1515 0.950 . S
C1527 C1523 1.393 . S
C1527 C1526 1.391 . S
C1528 H1518 0.950 . S
C1528 C1529 1.386 . S
C1528 C1530 1.391 . S
C1529 C1528 1.386 . S
C1529 C1533 1.393 . S
C1530 H1519 0.950 . S
C1530 C1528 1.391 . S
C1530 C1531 1.400 . S
C1531 C1525 1.491 . S
C1531 C1530 1.400 . S
C1531 C1532 1.398 . S
C1532 H1520 0.950 . S
C1532 C1531 1.398 . S
C1532 C1533 1.391 . S
C1533 H1521 0.950 . S
C1533 C1529 1.393 . S
C1533 C1532 1.391 . S
H1534 C1542 0.950 . S
H1535 C1547 0.950 . S
H1536 C1544 0.950 . S
H1537 C1546 0.950 . S
H1538 C1548 0.950 . S
H1539 C1550 0.950 . S
H1540 C1552 0.950 . S
H1541 C1553 0.950 . S
C1542 H1534 0.950 . S
C1542 C1543 1.386 . S
C1542 C1544 1.391 . S
C1543 C1542 1.386 . S
C1543 C1547 1.393 . S
C1544 H1536 0.950 . S
C1544 C1542 1.391 . S
C1544 C1545 1.400 . S
C1545 C1544 1.400 . S
C1545 C1546 1.398 . S
C1545 C1551 1.491 . S
C1546 H1537 0.950 . S
C1546 C1545 1.398 . S
C1546 C1547 1.391 . S
C1547 H1535 0.950 . S
C1547 C1543 1.393 . S
C1547 C1546 1.391 . S
C1548 H1538 0.950 . S
C1548 C1549 1.386 . S
C1548 C1550 1.391 . S
C1549 C1548 1.386 . S
C1549 C1553 1.393 . S
C1550 H1539 0.950 . S
C1550 C1548 1.391 . S
C1550 C1551 1.400 . S
C1551 C1545 1.491 . S
C1551 C1550 1.400 . S
C1551 C1552 1.398 . S
C1552 H1540 0.950 . S
C1552 C1551 1.398 . S
C1552 C1553 1.391 . S
C1553 H1541 0.950 . S
C1553 C1549 1.393 . S
C1553 C1552 1.391 . S
H1554 C1562 0.950 . S
H1555 C1567 0.950 . S
H1556 C1564 0.950 . S
H1557 C1566 0.950 . S
H1558 C1568 0.950 . S
H1559 C1570 0.950 . S
H1560 C1572 0.950 . S
H1561 C1573 0.950 . S
C1562 H1554 0.950 . S
C1562 C1563 1.386 . S
C1562 C1564 1.391 . S
C1563 C1562 1.386 . S
C1563 C1567 1.393 . S
C1564 H1556 0.950 . S
C1564 C1562 1.391 . S
C1564 C1565 1.400 . S
C1565 C1564 1.400 . S
C1565 C1566 1.398 . S
C1565 C1571 1.491 . S
C1566 H1557 0.950 . S
C1566 C1565 1.398 . S
C1566 C1567 1.391 . S
C1567 H1555 0.950 . S
C1567 C1563 1.393 . S
C1567 C1566 1.391 . S
C1568 H1558 0.950 . S
C1568 C1569 1.386 . S
C1568 C1570 1.391 . S
C1569 C1568 1.386 . S
C1569 C1573 1.393 . S
C1570 H1559 0.950 . S
C1570 C1568 1.391 . S
C1570 C1571 1.400 . S
C1571 C1565 1.491 . S
C1571 C1570 1.400 . S
C1571 C1572 1.398 . S
C1572 H1560 0.950 . S
C1572 C1571 1.398 . S
C1572 C1573 1.391 . S
C1573 H1561 0.950 . S
C1573 C1569 1.393 . S
C1573 C1572 1.391 . S
H1574 C1582 0.950 . S
H1575 C1587 0.950 . S
H1576 C1584 0.950 . S
H1577 C1586 0.950 . S
H1578 C1588 0.950 . S
H1579 C1590 0.950 . S
H1580 C1592 0.950 . S
H1581 C1593 0.950 . S
C1582 H1574 0.950 . S
C1582 C1583 1.386 . S
C1582 C1584 1.391 . S
C1583 C1582 1.386 . S
C1583 C1587 1.393 . S
C1584 H1576 0.950 . S
C1584 C1582 1.391 . S
C1584 C1585 1.400 . S
C1585 C1584 1.400 . S
C1585 C1586 1.398 . S
C1585 C1591 1.491 . S
C1586 H1577 0.950 . S
C1586 C1585 1.398 . S
C1586 C1587 1.391 . S
C1587 H1575 0.950 . S
C1587 C1583 1.393 . S
C1587 C1586 1.391 . S
C1588 H1578 0.950 . S
C1588 C1589 1.386 . S
C1588 C1590 1.391 . S
C1589 C1588 1.386 . S
C1589 C1593 1.393 . S
C1590 H1579 0.950 . S
C1590 C1588 1.391 . S
C1590 C1591 1.400 . S
C1591 C1585 1.491 . S
C1591 C1590 1.400 . S
C1591 C1592 1.398 . S
C1592 H1580 0.950 . S
C1592 C1591 1.398 . S
C1592 C1593 1.391 . S
C1593 H1581 0.950 . S
C1593 C1589 1.393 . S
C1593 C1592 1.391 . S
H1594 C1602 0.950 . S
H1595 C1607 0.950 . S
H1596 C1604 0.950 . S
H1597 C1606 0.950 . S
H1598 C1608 0.950 . S
H1599 C1610 0.950 . S
H1600 C1612 0.950 . S
H1601 C1613 0.950 . S
C1602 H1594 0.950 . S
C1602 C1603 1.386 . S
C1602 C1604 1.391 . S
C1603 C1602 1.386 . S
C1603 C1607 1.393 . S
C1604 H1596 0.950 . S
C1604 C1602 1.391 . S
C1604 C1605 1.400 . S
C1605 C1604 1.400 . S
C1605 C1606 1.398 . S
C1605 C1611 1.491 . S
C1606 H1597 0.950 . S
C1606 C1605 1.398 . S
C1606 C1607 1.391 . S
C1607 H1595 0.950 . S
C1607 C1603 1.393 . S
C1607 C1606 1.391 . S
C1608 H1598 0.950 . S
C1608 C1609 1.386 . S
C1608 C1610 1.391 . S
C1609 C1608 1.386 . S
C1609 C1613 1.393 . S
C1610 H1599 0.950 . S
C1610 C1608 1.391 . S
C1610 C1611 1.400 . S
C1611 C1605 1.491 . S
C1611 C1610 1.400 . S
C1611 C1612 1.398 . S
C1612 H1600 0.950 . S
C1612 C1611 1.398 . S
C1612 C1613 1.391 . S
C1613 H1601 0.950 . S
C1613 C1609 1.393 . S
C1613 C1612 1.391 . S
H1614 C1622 0.950 . S
H1615 C1627 0.950 . S
H1616 C1624 0.950 . S
H1617 C1626 0.950 . S
H1618 C1628 0.950 . S
H1619 C1630 0.950 . S
H1620 C1632 0.950 . S
H1621 C1633 0.950 . S
C1622 H1614 0.950 . S
C1622 C1623 1.386 . S
C1622 C1624 1.391 . S
C1623 C1622 1.386 . S
C1623 C1627 1.393 . S
C1624 H1616 0.950 . S
C1624 C1622 1.391 . S
C1624 C1625 1.400 . S
C1625 C1624 1.400 . S
C1625 C1626 1.398 . S
C1625 C1631 1.491 . S
C1626 H1617 0.950 . S
C1626 C1625 1.398 . S
C1626 C1627 1.391 . S
C1627 H1615 0.950 . S
C1627 C1623 1.393 . S
C1627 C1626 1.391 . S
C1628 H1618 0.950 . S
C1628 C1629 1.386 . S
C1628 C1630 1.391 . S
C1629 C1628 1.386 . S
C1629 C1633 1.393 . S
C1630 H1619 0.950 . S
C1630 C1628 1.391 . S
C1630 C1631 1.400 . S
C1631 C1625 1.491 . S
C1631 C1630 1.400 . S
C1631 C1632 1.398 . S
C1632 H1620 0.950 . S
C1632 C1631 1.398 . S
C1632 C1633 1.391 . S
C1633 H1621 0.950 . S
C1633 C1629 1.393 . S
C1633 C1632 1.391 . S
H1634 C1642 0.950 . S
H1635 C1647 0.950 . S
H1636 C1644 0.950 . S
H1637 C1646 0.950 . S
H1638 C1648 0.950 . S
H1639 C1650 0.950 . S
H1640 C1652 0.950 . S
H1641 C1653 0.950 . S
C1642 H1634 0.950 . S
C1642 C1643 1.386 . S
C1642 C1644 1.391 . S
C1643 C1642 1.386 . S
C1643 C1647 1.393 . S
C1644 H1636 0.950 . S
C1644 C1642 1.391 . S
C1644 C1645 1.400 . S
C1645 C1644 1.400 . S
C1645 C1646 1.398 . S
C1645 C1651 1.491 . S
C1646 H1637 0.950 . S
C1646 C1645 1.398 . S
C1646 C1647 1.391 . S
C1647 H1635 0.950 . S
C1647 C1643 1.393 . S
C1647 C1646 1.391 . S
C1648 H1638 0.950 . S
C1648 C1649 1.386 . S
C1648 C1650 1.391 . S
C1649 C1648 1.386 . S
C1649 C1653 1.393 . S
C1650 H1639 0.950 . S
C1650 C1648 1.391 . S
C1650 C1651 1.400 . S
C1651 C1645 1.491 . S
C1651 C1650 1.400 . S
C1651 C1652 1.398 . S
C1652 H1640 0.950 . S
C1652 C1651 1.398 . S
C1652 C1653 1.391 . S
C1653 H1641 0.950 . S
C1653 C1649 1.393 . S
C1653 C1652 1.391 . S
H1654 C1662 0.950 . S
H1655 C1667 0.950 . S
H1656 C1664 0.950 . S
H1657 C1666 0.950 . S
H1658 C1668 0.950 . S
H1659 C1670 0.950 . S
H1660 C1672 0.950 . S
H1661 C1673 0.950 . S
C1662 H1654 0.950 . S
C1662 C1663 1.386 . S
C1662 C1664 1.391 . S
C1663 C1662 1.386 . S
C1663 C1667 1.393 . S
C1664 H1656 0.950 . S
C1664 C1662 1.391 . S
C1664 C1665 1.400 . S
C1665 C1664 1.400 . S
C1665 C1666 1.398 . S
C1665 C1671 1.491 . S
C1666 H1657 0.950 . S
C1666 C1665 1.398 . S
C1666 C1667 1.391 . S
C1667 H1655 0.950 . S
C1667 C1663 1.393 . S
C1667 C1666 1.391 . S
C1668 H1658 0.950 . S
C1668 C1669 1.386 . S
C1668 C1670 1.391 . S
C1669 C1668 1.386 . S
C1669 C1673 1.393 . S
C1670 H1659 0.950 . S
C1670 C1668 1.391 . S
C1670 C1671 1.400 . S
C1671 C1665 1.491 . S
C1671 C1670 1.400 . S
C1671 C1672 1.398 . S
C1672 H1660 0.950 . S
C1672 C1671 1.398 . S
C1672 C1673 1.391 . S
C1673 H1661 0.950 . S
C1673 C1669 1.393 . S
C1673 C1672 1.391 . S
C603 N170 2.085 . S
C609 C243 2.099 . S
C623 N184 1.141 . S
C629 C283 1.124 . S
C643 N158 1.681 . S
C649 C322 1.652 . S
C663 N145 1.563 . S
C669 C282 1.530 1_556 S
C689 C323 0.848 1_556 S
C683 N119 0.840 . S
C703 N131 1.838 . S
C709 C242 1.869 . S
C729 C253 1.743 1_556 S
C723 N144 1.755 . S
C749 C293 1.639 . S
C743 N118 1.664 . S
C763 N132 1.556 . S
C769 C332 1.564 . S
C783 N171 1.475 . S
C789 C292 1.449 . S
C803 N183 1.320 . S
C809 C333 1.334 . S
C829 C252 1.453 . S
C823 N157 1.475 . S
C849 C363 2.091 . S
C843 N14 2.073 . S
C863 N28 1.150 . S
C869 C403 1.140 . S
C883 N2 1.667 . S
C889 C442 1.648 . S
C903 N223 1.556 . S
C909 C402 1.516 . S
C923 N197 0.838 . S
C929 C443 0.823 . S
C943 N209 1.846 . S
C949 C362 1.865 . S
C963 N222 1.763 . S
C969 C373 1.757 . S
C983 N196 1.664 . S
C989 C413 1.639 . S
C1009 C452 1.564 . S
C1003 N210 1.554 . S
C1023 N15 1.482 . S
C1029 C412 1.461 . S
C1049 C453 1.329 . S
C1043 N27 1.319 . S
C1063 N1 1.470 . S
C1069 C372 1.442 . S
C1089 C483 2.085 . S
C1083 N92 2.075 . S
C1103 N106 1.142 . S
C1109 C523 1.137 . S
C1129 C562 1.657 . S
C1123 N80 1.681 . S
C1149 C522 1.537 . S
C1143 N67 1.560 . S
C1169 C563 0.822 . S
C1163 N41 0.838 . S
C1183 N53 1.846 . S
C1189 C482 1.856 . S
C1203 N66 1.753 . S
C1209 C493 1.748 . S
C1223 N40 1.663 . S
C1229 C533 1.645 . S
C1249 C572 1.547 . S
C1243 N54 1.555 . S
C1263 N93 1.480 . S
C1269 C532 1.452 . S
C1283 N105 1.324 . S
C1289 C573 1.332 . S
C1303 N79 1.475 . S
C1309 C492 1.454 . S
C1323 N200 1.021 . S
C1329 C239 1.040 . S
C1349 C279 2.024 . S
C1343 N213 1.993 . S
C1363 N226 1.573 . S
C1369 C329 1.598 . S
C1383 N83 1.803 . S
C1389 C289 1.799 . S
C1403 N96 1.807 . S
C1409 C319 1.856 . S
C1429 C249 1.181 . S
C1423 N109 1.173 . S
C1443 N44 1.038 . S
C1449 C359 1.042 . S
C1463 N57 1.994 . S
C1469 C399 2.021 . S
C1483 N70 1.573 . S
C1489 C449 1.597 . S
C1503 N161 1.792 . S
C1509 C409 1.805 . S
C1529 C439 1.856 . S
C1523 N174 1.808 . S
C1543 N187 1.171 . S
C1549 C369 1.183 . S
C1563 N122 1.037 . S
C1569 C479 1.042 . S
C1583 N135 1.982 . S
C1589 C519 2.025 . S
C1609 C569 1.591 . S
C1603 N148 1.582 . S
C1623 N5 1.803 . S
C1629 C529 1.796 . S
C1643 N18 1.804 . S
C1649 C559 1.855 . S
C1663 N31 1.176 . S
C1669 C489 1.176 . S
