# Generated by pormake.
# Topology ptr, (4,4)-cn, num edge types: 1
# Building blocks:
#     Node 0, Type 0, BuildingBlock: QUQFOY_clean_sbu_1, # of connection points: 4
#     Node 1, Type 0, BuildingBlock: QUQFOY_clean_sbu_1, # of connection points: 4
#     Node 2, Type 0, BuildingBlock: QUQFOY_clean_sbu_1, # of connection points: 4
#     Node 3, Type 0, BuildingBlock: QUQFOY_clean_sbu_1, # of connection points: 4
#     Node 4, Type 0, BuildingBlock: QUQFOY_clean_sbu_1, # of connection points: 4
#     Node 5, Type 0, BuildingBlock: QUQFOY_clean_sbu_1, # of connection points: 4
#     Node 6, Type 0, BuildingBlock: QUQFOY_clean_sbu_1, # of connection points: 4
#     Node 7, Type 0, BuildingBlock: QUQFOY_clean_sbu_1, # of connection points: 4
#     Node 8, Type 0, BuildingBlock: QUQFOY_clean_sbu_1, # of connection points: 4
#     Node 9, Type 0, BuildingBlock: QUQFOY_clean_sbu_1, # of connection points: 4
#     Node 10, Type 0, BuildingBlock: QUQFOY_clean_sbu_1, # of connection points: 4
#     Node 11, Type 0, BuildingBlock: QUQFOY_clean_sbu_1, # of connection points: 4
#     Node 12, Type 0, BuildingBlock: QUQFOY_clean_sbu_1, # of connection points: 4
#     Node 13, Type 0, BuildingBlock: QUQFOY_clean_sbu_1, # of connection points: 4
#     Node 14, Type 0, BuildingBlock: QUQFOY_clean_sbu_1, # of connection points: 4
#     Node 15, Type 0, BuildingBlock: QUQFOY_clean_sbu_1, # of connection points: 4
#     Node 16, Type 0, BuildingBlock: QUQFOY_clean_sbu_1, # of connection points: 4
#     Node 17, Type 0, BuildingBlock: QUQFOY_clean_sbu_1, # of connection points: 4
#     Node 18, Type 1, BuildingBlock: MUDLON_clean_linker_0, # of connection points: 4
#     Node 19, Type 1, BuildingBlock: MUDLON_clean_linker_0, # of connection points: 4
#     Node 20, Type 1, BuildingBlock: MUDLON_clean_linker_0, # of connection points: 4
#     Node 21, Type 1, BuildingBlock: MUDLON_clean_linker_0, # of connection points: 4
#     Node 22, Type 1, BuildingBlock: MUDLON_clean_linker_0, # of connection points: 4
#     Node 23, Type 1, BuildingBlock: MUDLON_clean_linker_0, # of connection points: 4
#     Node 24, Type 1, BuildingBlock: MUDLON_clean_linker_0, # of connection points: 4
#     Node 25, Type 1, BuildingBlock: MUDLON_clean_linker_0, # of connection points: 4
#     Node 26, Type 1, BuildingBlock: MUDLON_clean_linker_0, # of connection points: 4
#     Node 27, Type 1, BuildingBlock: MUDLON_clean_linker_0, # of connection points: 4
#     Node 28, Type 1, BuildingBlock: MUDLON_clean_linker_0, # of connection points: 4
#     Node 29, Type 1, BuildingBlock: MUDLON_clean_linker_0, # of connection points: 4
#     Node 30, Type 1, BuildingBlock: MUDLON_clean_linker_0, # of connection points: 4
#     Node 31, Type 1, BuildingBlock: MUDLON_clean_linker_0, # of connection points: 4
#     Node 32, Type 1, BuildingBlock: MUDLON_clean_linker_0, # of connection points: 4
#     Node 33, Type 1, BuildingBlock: MUDLON_clean_linker_0, # of connection points: 4
#     Node 34, Type 1, BuildingBlock: MUDLON_clean_linker_0, # of connection points: 4
#     Node 35, Type 1, BuildingBlock: MUDLON_clean_linker_0, # of connection points: 4
#     Edge 36, Type (0, 1), BuildingBlock: CIFDUS_clean_linker_0, # of connection points: 2
#     Edge 37, Type (0, 1), BuildingBlock: CIFDUS_clean_linker_0, # of connection points: 2
#     Edge 38, Type (0, 1), BuildingBlock: CIFDUS_clean_linker_0, # of connection points: 2
#     Edge 39, Type (0, 1), BuildingBlock: CIFDUS_clean_linker_0, # of connection points: 2
#     Edge 40, Type (0, 1), BuildingBlock: CIFDUS_clean_linker_0, # of connection points: 2
#     Edge 41, Type (0, 1), BuildingBlock: CIFDUS_clean_linker_0, # of connection points: 2
#     Edge 42, Type (0, 1), BuildingBlock: CIFDUS_clean_linker_0, # of connection points: 2
#     Edge 43, Type (0, 1), BuildingBlock: CIFDUS_clean_linker_0, # of connection points: 2
#     Edge 44, Type (0, 1), BuildingBlock: CIFDUS_clean_linker_0, # of connection points: 2
#     Edge 45, Type (0, 1), BuildingBlock: CIFDUS_clean_linker_0, # of connection points: 2
#     Edge 46, Type (0, 1), BuildingBlock: CIFDUS_clean_linker_0, # of connection points: 2
#     Edge 47, Type (0, 1), BuildingBlock: CIFDUS_clean_linker_0, # of connection points: 2
#     Edge 48, Type (0, 1), BuildingBlock: CIFDUS_clean_linker_0, # of connection points: 2
#     Edge 49, Type (0, 1), BuildingBlock: CIFDUS_clean_linker_0, # of connection points: 2
#     Edge 50, Type (0, 1), BuildingBlock: CIFDUS_clean_linker_0, # of connection points: 2
#     Edge 51, Type (0, 1), BuildingBlock: CIFDUS_clean_linker_0, # of connection points: 2
#     Edge 52, Type (0, 1), BuildingBlock: CIFDUS_clean_linker_0, # of connection points: 2
#     Edge 53, Type (0, 1), BuildingBlock: CIFDUS_clean_linker_0, # of connection points: 2
#     Edge 54, Type (0, 1), BuildingBlock: CIFDUS_clean_linker_0, # of connection points: 2
#     Edge 55, Type (0, 1), BuildingBlock: CIFDUS_clean_linker_0, # of connection points: 2
#     Edge 56, Type (0, 1), BuildingBlock: CIFDUS_clean_linker_0, # of connection points: 2
#     Edge 57, Type (0, 1), BuildingBlock: CIFDUS_clean_linker_0, # of connection points: 2
#     Edge 58, Type (0, 1), BuildingBlock: CIFDUS_clean_linker_0, # of connection points: 2
#     Edge 59, Type (0, 1), BuildingBlock: CIFDUS_clean_linker_0, # of connection points: 2
#     Edge 60, Type (0, 1), BuildingBlock: CIFDUS_clean_linker_0, # of connection points: 2
#     Edge 61, Type (0, 1), BuildingBlock: CIFDUS_clean_linker_0, # of connection points: 2
#     Edge 62, Type (0, 1), BuildingBlock: CIFDUS_clean_linker_0, # of connection points: 2
#     Edge 63, Type (0, 1), BuildingBlock: CIFDUS_clean_linker_0, # of connection points: 2
#     Edge 64, Type (0, 1), BuildingBlock: CIFDUS_clean_linker_0, # of connection points: 2
#     Edge 65, Type (0, 1), BuildingBlock: CIFDUS_clean_linker_0, # of connection points: 2
#     Edge 66, Type (0, 1), BuildingBlock: CIFDUS_clean_linker_0, # of connection points: 2
#     Edge 67, Type (0, 1), BuildingBlock: CIFDUS_clean_linker_0, # of connection points: 2
#     Edge 68, Type (0, 1), BuildingBlock: CIFDUS_clean_linker_0, # of connection points: 2
#     Edge 69, Type (0, 1), BuildingBlock: CIFDUS_clean_linker_0, # of connection points: 2
#     Edge 70, Type (0, 1), BuildingBlock: CIFDUS_clean_linker_0, # of connection points: 2
#     Edge 71, Type (0, 1), BuildingBlock: CIFDUS_clean_linker_0, # of connection points: 2
#     Edge 72, Type (0, 1), BuildingBlock: CIFDUS_clean_linker_0, # of connection points: 2
#     Edge 73, Type (0, 1), BuildingBlock: CIFDUS_clean_linker_0, # of connection points: 2
#     Edge 74, Type (0, 1), BuildingBlock: CIFDUS_clean_linker_0, # of connection points: 2
#     Edge 75, Type (0, 1), BuildingBlock: CIFDUS_clean_linker_0, # of connection points: 2
#     Edge 76, Type (0, 1), BuildingBlock: CIFDUS_clean_linker_0, # of connection points: 2
#     Edge 77, Type (0, 1), BuildingBlock: CIFDUS_clean_linker_0, # of connection points: 2
#     Edge 78, Type (0, 1), BuildingBlock: CIFDUS_clean_linker_0, # of connection points: 2
#     Edge 79, Type (0, 1), BuildingBlock: CIFDUS_clean_linker_0, # of connection points: 2
#     Edge 80, Type (0, 1), BuildingBlock: CIFDUS_clean_linker_0, # of connection points: 2
#     Edge 81, Type (0, 1), BuildingBlock: CIFDUS_clean_linker_0, # of connection points: 2
#     Edge 82, Type (0, 1), BuildingBlock: CIFDUS_clean_linker_0, # of connection points: 2
#     Edge 83, Type (0, 1), BuildingBlock: CIFDUS_clean_linker_0, # of connection points: 2
#     Edge 84, Type (0, 1), BuildingBlock: CIFDUS_clean_linker_0, # of connection points: 2
#     Edge 85, Type (0, 1), BuildingBlock: CIFDUS_clean_linker_0, # of connection points: 2
#     Edge 86, Type (0, 1), BuildingBlock: CIFDUS_clean_linker_0, # of connection points: 2
#     Edge 87, Type (0, 1), BuildingBlock: CIFDUS_clean_linker_0, # of connection points: 2
#     Edge 88, Type (0, 1), BuildingBlock: CIFDUS_clean_linker_0, # of connection points: 2
#     Edge 89, Type (0, 1), BuildingBlock: CIFDUS_clean_linker_0, # of connection points: 2
#     Edge 90, Type (0, 1), BuildingBlock: CIFDUS_clean_linker_0, # of connection points: 2
#     Edge 91, Type (0, 1), BuildingBlock: CIFDUS_clean_linker_0, # of connection points: 2
#     Edge 92, Type (0, 1), BuildingBlock: CIFDUS_clean_linker_0, # of connection points: 2
#     Edge 93, Type (0, 1), BuildingBlock: CIFDUS_clean_linker_0, # of connection points: 2
#     Edge 94, Type (0, 1), BuildingBlock: CIFDUS_clean_linker_0, # of connection points: 2
#     Edge 95, Type (0, 1), BuildingBlock: CIFDUS_clean_linker_0, # of connection points: 2
#     Edge 96, Type (0, 1), BuildingBlock: CIFDUS_clean_linker_0, # of connection points: 2
#     Edge 97, Type (0, 1), BuildingBlock: CIFDUS_clean_linker_0, # of connection points: 2
#     Edge 98, Type (0, 1), BuildingBlock: CIFDUS_clean_linker_0, # of connection points: 2
#     Edge 99, Type (0, 1), BuildingBlock: CIFDUS_clean_linker_0, # of connection points: 2
#     Edge 100, Type (0, 1), BuildingBlock: CIFDUS_clean_linker_0, # of connection points: 2
#     Edge 101, Type (0, 1), BuildingBlock: CIFDUS_clean_linker_0, # of connection points: 2
#     Edge 102, Type (0, 1), BuildingBlock: CIFDUS_clean_linker_0, # of connection points: 2
#     Edge 103, Type (0, 1), BuildingBlock: CIFDUS_clean_linker_0, # of connection points: 2
#     Edge 104, Type (0, 1), BuildingBlock: CIFDUS_clean_linker_0, # of connection points: 2
#     Edge 105, Type (0, 1), BuildingBlock: CIFDUS_clean_linker_0, # of connection points: 2
#     Edge 106, Type (0, 1), BuildingBlock: CIFDUS_clean_linker_0, # of connection points: 2
#     Edge 107, Type (0, 1), BuildingBlock: CIFDUS_clean_linker_0, # of connection points: 2
# Relax obj value: 0.012
# Max RMSD: 0.037
# Mean RMSD: 0.035
data_MOF--net-ptr--node1-QUQFOY_clean_sbu_1--node2-MUDLON_clean_linker_0--edge1-CIFDUS_clean_linker_0
_symmetry_space_group_name_H-M    P1
_symmetry_Int_Tables_number       1
_symmetry_cell_setting            triclinic
loop_
_symmetry_equiv_pos_as_xyz
'x, y, z'
_cell_length_a     97.583942
_cell_length_b     97.59125
_cell_length_c     58.565408
_cell_angle_alpha  89.967141
_cell_angle_beta   90.089046
_cell_angle_gamma 119.99344
loop_
_atom_site_label
_atom_site_type_symbol
_atom_site_fract_x
_atom_site_fract_y
_atom_site_fract_z
_atom_type_partial_charge
O0 O 0.01961 0.39425 0.04434 0.0
Cd1 Cd 0.02316 0.38176 0.01862 0.0
Cd2 Cd 0.99176 0.36951 0.01481 0.0
O3 O 0.99362 0.37957 0.04658 0.0
O4 O 0.04447 0.38422 0.02455 0.0
O5 O 0.02217 0.36133 0.0274 0.0
C6 C 0.03739 0.36935 0.02946 0.0
C7 C 0.97322 0.34317 0.0064 0.0
C8 C 1.00666 0.39071 0.05428 0.0
C9 C 0.01204 0.39017 0.97663 0.0
O10 O 0.99889 0.38456 0.98698 0.0
O11 O 0.02324 0.38873 0.98518 0.0
O12 O 0.96913 0.35381 0.00826 0.0
O13 O 0.98781 0.34731 0.01053 0.0
O14 O 0.62883 0.63296 0.05296 0.0
Cd15 Cd 0.6368 0.64742 0.02459 0.0
Cd16 Cd 0.65443 0.63255 0.01872 0.0
O17 O 0.64504 0.6234 0.05057 0.0
O18 O 0.63276 0.66525 0.03058 0.0
O19 O 0.65678 0.6684 0.02779 0.0
C20 C 0.64789 0.67448 0.03168 0.0
C21 C 0.68074 0.63957 0.01065 0.0
C22 C 0.63416 0.62444 0.06101 0.0
C23 C 0.62959 0.62732 0.98293 0.0
O24 O 0.63951 0.6237 0.99085 0.0
O25 O 0.62711 0.63735 0.99325 0.0
O26 O 0.66982 0.62506 0.01336 0.0
O27 O 0.6769 0.65036 0.01329 0.0
O28 O 0.3947 0.01364 0.98444 0.0
Cd29 Cd 0.3878 0.02123 0.01289 0.0
Cd30 Cd 0.3695 0.98918 0.01936 0.0
O31 O 0.37859 0.98792 0.98798 0.0
O32 O 0.39268 0.04324 0.00559 0.0
O33 O 0.36835 0.02336 0.01096 0.0
C34 C 0.37765 0.03807 0.00584 0.0
C35 C 0.34249 0.97334 0.02743 0.0
C36 C 0.38932 0.99963 0.97701 0.0
C37 C 0.39465 0.00842 0.05496 0.0
O38 O 0.38415 0.99499 0.04747 0.0
O39 O 0.39783 0.02097 0.04411 0.0
O40 O 0.35178 0.96751 0.02671 0.0
O41 O 0.34843 0.98816 0.0226 0.0
O42 O 1.004 0.62338 0.98453 0.0
Cd43 Cd 0.99741 0.63134 0.01295 0.0
Cd44 Cd 0.02944 0.64896 0.01764 0.0
O45 O 0.02946 0.64107 0.9849 0.0
O46 O 0.97559 0.62722 0.00612 0.0
O47 O 0.9962 0.65128 0.01034 0.0
C48 C 0.98135 0.64234 0.00562 0.0
C49 C 0.04748 0.67513 0.02815 0.0
C50 C 0.0176 0.62953 0.97532 0.0
C51 C 0.01071 0.62333 0.05284 0.0
O52 O 0.02397 0.63286 0.04383 0.0
O53 O 0.99796 0.62165 0.04428 0.0
O54 O 0.0519 0.66488 0.02469 0.0
O55 O 0.03278 0.67074 0.02463 0.0
O56 O 0.39765 0.38513 0.98816 0.0
Cd57 Cd 0.38988 0.36994 0.01586 0.0
Cd58 Cd 0.37307 0.38599 0.02461 0.0
O59 O 0.38284 0.39608 0.99344 0.0
O60 O 0.39734 0.3546 0.00972 0.0
O61 O 0.37202 0.34747 0.01082 0.0
C62 C 0.38277 0.34364 0.0077 0.0
C63 C 0.34673 0.37911 0.03165 0.0
C64 C 0.39302 0.39462 0.98179 0.0
C65 C 0.39749 0.38926 0.05934 0.0
O66 O 0.38784 0.39363 0.05275 0.0
O67 O 0.39941 0.37937 0.04761 0.0
O68 O 0.35788 0.39364 0.03033 0.0
O69 O 0.35043 0.36825 0.02862 0.0
O70 O 0.62662 0.99923 0.04805 0.0
Cd71 Cd 0.63424 0.99274 0.01905 0.0
Cd72 Cd 0.65155 0.02564 0.01462 0.0
O73 O 0.64286 0.02508 0.0468 0.0
O74 O 0.62777 0.97003 0.02403 0.0
O75 O 0.65277 0.98908 0.02235 0.0
C76 C 0.64255 0.97429 0.02548 0.0
C77 C 0.67724 0.0457 0.00491 0.0
C78 C 0.63195 0.01293 0.05672 0.0
C79 C 0.62603 0.00664 0.97961 0.0
O80 O 0.63543 0.01992 0.98862 0.0
O81 O 0.62465 0.99393 0.9878 0.0
O82 O 0.66596 0.04862 0.00871 0.0
O83 O 0.67417 0.0313 0.00754 0.0
O84 O 0.69381 0.73269 0.37345 0.0
Cd85 Cd 0.69686 0.72139 0.34586 0.0
Cd86 Cd 0.66476 0.70622 0.34717 0.0
O87 O 0.6681 0.71753 0.37853 0.0
O88 O 0.71971 0.72772 0.34753 0.0
O89 O 0.7005 0.70305 0.35222 0.0
C90 C 0.71547 0.71323 0.35217 0.0
C91 C 0.64915 0.6789 0.34182 0.0
C92 C 0.68139 0.72898 0.38494 0.0
C93 C 0.68085 0.72712 0.30651 0.0
O94 O 0.66815 0.71944 0.31792 0.0
O95 O 0.69373 0.72842 0.31386 0.0
O96 O 0.64283 0.68765 0.34487 0.0
O97 O 0.66439 0.68559 0.34317 0.0
O98 O 0.29657 0.9648 0.38494 0.0
Cd99 Cd 0.30376 0.97985 0.35694 0.0
Cd100 Cd 0.31976 0.9638 0.34844 0.0
O101 O 0.31167 0.9541 0.38033 0.0
O102 O 0.2951 0.99414 0.3634 0.0
O103 O 0.32073 1.00278 0.36157 0.0
C104 C 0.3094 0.00575 0.36499 0.0
C105 C 0.34654 0.97635 0.33864 0.0
C106 C 0.30148 0.95563 0.39186 0.0
C107 C 0.29503 0.95957 0.31448 0.0
O108 O 0.30395 0.95448 0.32172 0.0
O109 O 0.29418 0.97046 0.32519 0.0
O110 O 0.33815 0.96115 0.34021 0.0
O111 O 0.33981 0.98452 0.34353 0.0
O112 O 0.06476 0.35377 0.32356 0.0
Cd113 Cd 0.05536 0.35978 0.35068 0.0
Cd114 Cd 0.03879 0.32772 0.35747 0.0
O115 O 0.04791 0.32813 0.32533 0.0
O116 O 0.05757 0.38084 0.34362 0.0
O117 O 0.03448 0.35861 0.3453 0.0
C118 C 0.04239 0.37365 0.34123 0.0
C119 C 0.0126 0.30802 0.36509 0.0
C120 C 0.05918 0.33995 0.3153 0.0
C121 C 0.06309 0.34823 0.39319 0.0
O122 O 0.05398 0.33443 0.3853 0.0
O123 O 0.0646 0.36033 0.3827 0.0
O124 O 0.02375 0.30473 0.36259 0.0
O125 O 0.01619 0.32261 0.36288 0.0
O126 O 0.6682 0.95399 0.31863 0.0
Cd127 Cd 0.66038 0.96058 0.34724 0.0
Cd128 Cd 0.6922 0.97927 0.35388 0.0
O129 O 0.69377 0.97079 0.32229 0.0
O130 O 0.63829 0.95545 0.33999 0.0
O131 O 0.65799 0.97987 0.34566 0.0
C132 C 0.6433 0.97045 0.3405 0.0
C133 C 0.70771 0.00626 0.36241 0.0
C134 C 0.68228 0.95986 0.31122 0.0
C135 C 0.67346 0.95353 0.38873 0.0
O136 O 0.68683 0.96408 0.38118 0.0
O137 O 0.66079 0.9506 0.37839 0.0
O138 O 0.71374 0.99715 0.36148 0.0
O139 O 0.69284 1.00013 0.35776 0.0
O140 O 0.06209 0.71517 0.32104 0.0
Cd141 Cd 0.0544 0.70088 0.34955 0.0
Cd142 Cd 0.03335 0.71123 0.35129 0.0
O143 O 0.04211 0.71967 0.31886 0.0
O144 O 0.05901 0.6833 0.34436 0.0
O145 O 0.03477 0.6797 0.34658 0.0
C146 C 0.04391 0.67387 0.34303 0.0
C147 C 1.00624 0.6979 0.35959 0.0
C148 C 0.05481 0.72107 0.31061 0.0
C149 C 0.05808 0.72141 0.38897 0.0
O150 O 0.0475 0.72318 0.37891 0.0
O151 O 0.06226 0.71193 0.38094 0.0
O152 O 0.01381 0.71286 0.35531 0.0
O153 O 0.01389 0.69031 0.35798 0.0
O154 O 0.29306 0.33247 0.38087 0.0
Cd155 Cd 0.30312 0.32878 0.35224 0.0
Cd156 Cd 0.32077 0.36012 0.35503 0.0
O157 O 0.3122 0.35678 0.38815 0.0
O158 O 0.29899 0.30654 0.35432 0.0
O159 O 0.32288 0.32763 0.35684 0.0
C160 C 0.31397 0.31244 0.35779 0.0
C161 C 0.34768 0.37491 0.34589 0.0
C162 C 0.29939 0.34447 0.39395 0.0
C163 C 0.29709 0.34629 0.31653 0.0
O164 O 0.30539 0.3582 0.32924 0.0
O165 O 0.29596 0.333 0.321 0.0
O166 O 0.33982 0.38173 0.35187 0.0
O167 O 0.34038 0.35963 0.34614 0.0
O168 O 0.35597 0.06183 0.71227 0.0
Cd169 Cd 0.35936 0.05077 0.68472 0.0
Cd170 Cd 0.32734 0.03349 0.68649 0.0
O171 O 0.33061 0.04492 0.7177 0.0
O172 O 0.38107 0.05372 0.68795 0.0
O173 O 0.35918 0.03043 0.69067 0.0
C174 C 0.37443 0.03873 0.69199 0.0
C175 C 0.30927 0.00646 0.68144 0.0
C176 C 0.34342 0.0571 0.72393 0.0
C177 C 0.34274 0.05512 0.64563 0.0
O178 O 0.33033 0.0465 0.65721 0.0
O179 O 0.35618 0.05779 0.65273 0.0
O180 O 0.30461 0.01653 0.68489 0.0
O181 O 0.3243 0.01159 0.68225 0.0
O182 O 0.95884 0.2994 0.71324 0.0
Cd183 Cd 0.96994 0.31403 0.6856 0.0
Cd184 Cd 0.98418 0.29668 0.68468 0.0
O185 O 0.97466 0.28948 0.71692 0.0
O186 O 0.96702 0.33278 0.68958 0.0
O187 O 0.99031 0.33418 0.69177 0.0
C188 C 0.98202 0.34112 0.69343 0.0
C189 C 0.01106 0.30744 0.67641 0.0
C190 C 0.96324 0.29102 0.72426 0.0
C191 C 0.96198 0.29223 0.6462 0.0
O192 O 0.96899 0.28638 0.65745 0.0
O193 O 0.96227 0.30471 0.65319 0.0
O194 O 1.00206 0.29247 0.68001 0.0
O195 O 1.00489 0.31641 0.6786 0.0
O196 O 0.73024 0.68973 0.65516 0.0
Cd197 Cd 0.72057 0.69301 0.68444 0.0
Cd198 Cd 0.70404 0.6601 0.68175 0.0
O199 O 0.71514 0.66397 0.65029 0.0
O200 O 0.72793 0.71607 0.68297 0.0
O201 O 0.70272 0.69774 0.68036 0.0
C202 C 0.71348 0.71251 0.67944 0.0
C203 C 0.67734 0.64106 0.68664 0.0
C204 C 0.72618 0.67733 0.64343 0.0
C205 C 0.72605 0.67567 0.7222 0.0
O206 O 0.71745 0.66325 0.71059 0.0
O207 O 0.72831 0.68905 0.71552 0.0
O208 O 0.68789 0.63715 0.68246 0.0
O209 O 0.68179 0.65595 0.68685 0.0
O210 O 0.34289 0.29354 0.64957 0.0
Cd211 Cd 0.33687 0.30103 0.67914 0.0
Cd212 Cd 0.36933 0.31974 0.68105 0.0
O213 O 0.36823 0.31159 0.64826 0.0
O214 O 0.31356 0.2924 0.67655 0.0
O215 O 0.33083 0.31802 0.67582 0.0
C216 C 0.31631 0.3067 0.67444 0.0
C217 C 0.38637 0.3464 0.69031 0.0
C218 C 0.35617 0.29987 0.63937 0.0
C219 C 0.35335 0.29454 0.71712 0.0
O220 O 0.36607 0.30408 0.70688 0.0
O221 O 0.34012 0.29258 0.71017 0.0
O222 O 0.39167 0.33702 0.68541 0.0
O223 O 0.37127 0.34079 0.68909 0.0
O224 O 0.73015 0.04745 0.65623 0.0
Cd225 Cd 0.71924 0.0332 0.6842 0.0
Cd226 Cd 0.7042 0.04998 0.68428 0.0
O227 O 0.7145 0.05753 0.65246 0.0
O228 O 0.72222 0.01453 0.6799 0.0
O229 O 0.69872 0.0128 0.67968 0.0
C230 C 0.7071 0.006 0.67725 0.0
C231 C 0.67739 0.04151 0.69032 0.0
C232 C 0.72591 0.05596 0.64524 0.0
C233 C 0.72664 0.05514 0.72334 0.0
O234 O 0.71874 0.06011 0.71232 0.0
O235 O 0.7274 0.04323 0.71612 0.0
O236 O 0.68762 0.05618 0.68676 0.0
O237 O 0.68229 0.03142 0.68965 0.0
O238 O 0.96305 0.66497 0.71564 0.0
Cd239 Cd 0.97001 0.65831 0.6863 0.0
Cd240 Cd 0.98302 0.69172 0.6793 0.0
O241 O 0.97392 0.69084 0.71146 0.0
O242 O 0.96243 0.63561 0.69333 0.0
O243 O 0.98771 0.65323 0.68906 0.0
C244 C 0.97696 0.63893 0.69399 0.0
C245 C 0.00881 0.71166 0.67025 0.0
C246 C 0.96578 0.67834 0.72309 0.0
C247 C 0.95912 0.66916 0.64501 0.0
O248 O 0.96723 0.68325 0.65244 0.0
O249 O 0.9593 0.65776 0.65531 0.0
O250 O 0.99741 0.71463 0.67261 0.0
O251 O 1.00568 0.69729 0.6736 0.0
H252 H 0.25192 0.37601 0.17209 0.0
N253 N 0.23312 0.35473 0.14172 0.0
H254 H 0.26336 0.37145 0.20627 0.0
H255 H 0.22522 0.32586 0.15963 0.0
H256 H 0.23551 0.32095 0.1947 0.0
H257 H 0.22971 0.32953 0.1171 0.0
H258 H 0.24891 0.32995 0.08965 0.0
H259 H 0.25778 0.38007 0.12441 0.0
H260 H 0.27726 0.38072 0.09785 0.0
H261 H 0.22499 0.37668 0.13566 0.0
H262 H 0.20561 0.32627 0.13922 0.0
H263 H 0.19839 0.37286 0.13138 0.0
H264 H 0.17893 0.32224 0.13674 0.0
H265 H 0.12458 0.36281 0.15501 0.0
H266 H 0.11459 0.36558 0.1915 0.0
H267 H 0.09907 0.31667 0.20704 0.0
H268 H 0.10869 0.31381 0.16966 0.0
H269 H 0.09588 0.31623 0.11465 0.0
H270 H 0.08196 0.32319 0.08638 0.0
H271 H 0.11928 0.37213 0.09033 0.0
H272 H 0.13358 0.3647 0.11704 0.0
H273 H 0.14911 0.3622 0.15229 0.0
H274 H 0.17583 0.36652 0.1518 0.0
H275 H 0.15932 0.32261 0.11494 0.0
N276 N 0.12221 0.33564 0.13712 0.0
H277 H 0.13228 0.31788 0.11701 0.0
C278 C 0.2375 0.35133 0.16356 0.0
C279 C 0.24812 0.36397 0.17724 0.0
C280 C 0.25459 0.36128 0.19686 0.0
C281 C 0.25039 0.34578 0.20349 0.0
C282 C 0.23926 0.33306 0.19007 0.0
C283 C 0.23306 0.33582 0.17016 0.0
C284 C 0.24236 0.35483 0.1226 0.0
C285 C 0.23985 0.34075 0.11239 0.0
C286 C 0.25094 0.34102 0.0969 0.0
C287 C 0.26474 0.35536 0.09152 0.0
C288 C 0.2667 0.36947 0.1011 0.0
C289 C 0.2556 0.36917 0.11638 0.0
C290 C 0.21729 0.35184 0.13815 0.0
C291 C 0.21493 0.36478 0.13566 0.0
C292 C 0.19966 0.36253 0.13346 0.0
C293 C 0.18631 0.34722 0.13405 0.0
C294 C 0.18881 0.33421 0.13598 0.0
C295 C 0.20413 0.33649 0.13775 0.0
C296 C 0.1173 0.33798 0.15938 0.0
C297 C 0.11904 0.35262 0.16609 0.0
C298 C 0.11342 0.35425 0.18722 0.0
C299 C 0.10601 0.34136 0.2023 0.0
C300 C 0.10451 0.3268 0.19574 0.0
C301 C 0.1101 0.32515 0.17449 0.0
C302 C 0.11562 0.33991 0.11818 0.0
C303 C 0.10118 0.32838 0.10893 0.0
C304 C 0.09313 0.33247 0.093 0.0
C305 C 0.09922 0.34833 0.08628 0.0
C306 C 0.11416 0.35977 0.09481 0.0
C307 C 0.12236 0.35558 0.11035 0.0
C308 C 0.13852 0.33948 0.13504 0.0
C309 C 0.15114 0.35344 0.14416 0.0
C310 C 0.16659 0.356 0.14362 0.0
C311 C 0.16991 0.34487 0.13347 0.0
C312 C 0.1573 0.33128 0.12344 0.0
C313 C 0.14182 0.32861 0.12436 0.0
H314 H 0.71359 0.79296 0.14406 0.0
N315 N 0.69062 0.7979 0.12966 0.0
H316 H 0.71493 0.78101 0.18009 0.0
H317 H 0.67009 0.79019 0.16565 0.0
H318 H 0.67159 0.77883 0.20197 0.0
H319 H 0.65979 0.77414 0.1299 0.0
H320 H 0.6484 0.75057 0.10585 0.0
H321 H 0.70347 0.79357 0.09241 0.0
H322 H 0.69202 0.77031 0.0675 0.0
H323 H 0.71449 0.82639 0.12008 0.0
H324 H 0.66455 0.80144 0.13439 0.0
H325 H 0.71441 0.85132 0.11835 0.0
H326 H 0.66445 0.82645 0.13435 0.0
H327 H 0.71076 0.92948 0.15087 0.0
H328 H 0.70614 0.93932 0.18666 0.0
H329 H 0.66397 0.89401 0.19771 0.0
H330 H 0.66835 0.88465 0.16122 0.0
H331 H 0.66247 0.89645 0.1243 0.0
H332 H 0.65512 0.91125 0.0983 0.0
H333 H 0.70229 0.93426 0.06979 0.0
H334 H 0.70966 0.91984 0.09672 0.0
H335 H 0.71457 0.89502 0.14329 0.0
H336 H 0.71343 0.86953 0.14245 0.0
H337 H 0.6663 0.84806 0.11376 0.0
N338 N 0.69243 0.90168 0.13117 0.0
H339 H 0.6673 0.87359 0.116 0.0
C340 C 0.69188 0.79262 0.15216 0.0
C341 C 0.70452 0.79009 0.15682 0.0
C342 C 0.70527 0.78328 0.17745 0.0
C343 C 0.69334 0.77888 0.194 0.0
C344 C 0.68086 0.78182 0.18951 0.0
C345 C 0.68008 0.78854 0.16878 0.0
C346 C 0.68254 0.78558 0.11298 0.0
C347 C 0.66678 0.77354 0.11604 0.0
C348 C 0.66027 0.76004 0.10217 0.0
C349 C 0.66936 0.75838 0.08485 0.0
C350 C 0.68479 0.77098 0.08096 0.0
C351 C 0.6913 0.78439 0.09495 0.0
C352 C 0.68967 0.81213 0.12775 0.0
C353 C 0.70351 0.82636 0.12301 0.0
C354 C 0.70344 0.84063 0.12229 0.0
C355 C 0.68948 0.84109 0.1267 0.0
C356 C 0.67543 0.82666 0.1308 0.0
C357 C 0.67549 0.8123 0.13112 0.0
C358 C 0.69004 0.90635 0.1535 0.0
C359 C 0.70063 0.92166 0.1612 0.0
C360 C 0.69798 0.92721 0.18174 0.0
C361 C 0.68468 0.91747 0.19525 0.0
C362 C 0.67421 0.90195 0.18767 0.0
C363 C 0.67679 0.89648 0.16692 0.0
C364 C 0.6867 0.90717 0.11256 0.0
C365 C 0.67111 0.9044 0.1121 0.0
C366 C 0.66692 0.91289 0.09711 0.0
C367 C 0.67818 0.92421 0.08212 0.0
C368 C 0.6934 0.92595 0.08144 0.0
C369 C 0.6976 0.91757 0.09659 0.0
C370 C 0.6912 0.88633 0.12943 0.0
C371 C 0.70402 0.8848 0.13676 0.0
C372 C 0.70336 0.87019 0.13606 0.0
C373 C 0.68985 0.85662 0.12767 0.0
C374 C 0.67687 0.85815 0.12046 0.0
C375 C 0.67748 0.87283 0.12149 0.0
H376 H 0.12472 0.77239 0.15405 0.0
N377 N 0.11919 0.79554 0.13835 0.0
H378 H 0.11485 0.75766 0.18974 0.0
H379 H 0.10484 0.8016 0.17207 0.0
H380 H 0.09525 0.78725 0.20816 0.0
H381 H 0.08959 0.78415 0.12467 0.0
H382 H 0.07477 0.7628 0.09761 0.0
H383 H 0.13184 0.78224 0.10992 0.0
H384 H 0.11746 0.76163 0.08173 0.0
H385 H 0.14798 0.79698 0.14075 0.0
H386 H 0.12548 0.82487 0.13096 0.0
H387 H 0.17395 0.82074 0.1376 0.0
H388 H 0.15126 0.84887 0.12946 0.0
H389 H 0.24635 0.89127 0.15676 0.0
H390 H 0.26003 0.90088 0.19308 0.0
H391 H 0.2293 0.91952 0.2097 0.0
H392 H 0.2162 0.91049 0.17259 0.0
H393 H 0.23848 0.92604 0.12408 0.0
H394 H 0.26112 0.9381 0.09845 0.0
H395 H 0.25669 0.89221 0.08738 0.0
H396 H 0.23465 0.88053 0.11431 0.0
H397 H 0.21699 0.86812 0.15859 0.0
H398 H 0.19209 0.84331 0.15662 0.0
H399 H 0.17397 0.86451 0.10931 0.0
N400 N 0.22335 0.89653 0.13932 0.0
H401 H 0.19858 0.8897 0.11293 0.0
C402 C 0.11546 0.78809 0.16046 0.0
C403 C 0.11852 0.77585 0.16594 0.0
C404 C 0.11286 0.76744 0.18639 0.0
C405 C 0.10409 0.77114 0.20175 0.0
C406 C 0.10166 0.78385 0.19654 0.0
C407 C 0.10727 0.79219 0.17609 0.0
C408 C 0.11182 0.78492 0.11934 0.0
C409 C 0.09578 0.77944 0.11501 0.0
C410 C 0.08734 0.76724 0.09939 0.0
C411 C 0.09482 0.7603 0.08739 0.0
C412 C 0.11116 0.76638 0.09094 0.0
C413 C 0.11952 0.77841 0.10693 0.0
C414 C 0.13475 0.80914 0.13561 0.0
C415 C 0.14862 0.80822 0.1377 0.0
C416 C 0.16353 0.82193 0.13624 0.0
C417 C 0.1649 0.83691 0.13319 0.0
C418 C 0.15089 0.83765 0.13118 0.0
C419 C 0.13606 0.82393 0.13221 0.0
C420 C 0.23034 0.90035 0.16185 0.0
C421 C 0.24252 0.89738 0.16823 0.0
C422 C 0.25026 0.90279 0.18917 0.0
C423 C 0.24589 0.91113 0.20436 0.0
C424 C 0.23324 0.91347 0.19828 0.0
C425 C 0.22561 0.90818 0.17721 0.0
C426 C 0.23482 0.90243 0.12105 0.0
C427 C 0.24225 0.91858 0.11575 0.0
C428 C 0.25518 0.92542 0.10095 0.0
C429 C 0.26091 0.91621 0.09074 0.0
C430 C 0.25288 0.8998 0.09519 0.0
C431 C 0.24009 0.893 0.11037 0.0
C432 C 0.20956 0.88102 0.13632 0.0
C433 C 0.20768 0.86751 0.14785 0.0
C434 C 0.19337 0.85315 0.14647 0.0
C435 C 0.18072 0.85179 0.13308 0.0
C436 C 0.18312 0.8651 0.12043 0.0
C437 C 0.19728 0.87952 0.12223 0.0
H438 H 0.37891 0.25026 0.86575 0.0
N439 N 0.35695 0.23014 0.89421 0.0
H440 H 0.37498 0.26146 0.83086 0.0
H441 H 0.32852 0.22109 0.87374 0.0
H442 H 0.32431 0.23127 0.83793 0.0
H443 H 0.33171 0.22811 0.91705 0.0
H444 H 0.33251 0.24747 0.94449 0.0
H445 H 0.38251 0.25391 0.91291 0.0
H446 H 0.38358 0.27369 0.93929 0.0
H447 H 0.37848 0.22114 0.89673 0.0
H448 H 0.32832 0.20332 0.90013 0.0
H449 H 0.37402 0.1943 0.90111 0.0
H450 H 0.32354 0.17633 0.90309 0.0
H451 H 0.35957 0.11788 0.88049 0.0
H452 H 0.35827 0.10441 0.84495 0.0
H453 H 0.30917 0.09146 0.8371 0.0
H454 H 0.31046 0.10443 0.87351 0.0
H455 H 0.31965 0.08956 0.92085 0.0
H456 H 0.33064 0.07678 0.94422 0.0
H457 H 0.37521 0.12082 0.94731 0.0
H458 H 0.36437 0.13309 0.92249 0.0
H459 H 0.3601 0.14369 0.88184 0.0
H460 H 0.36521 0.17075 0.88118 0.0
H461 H 0.32509 0.15734 0.92558 0.0
N462 N 0.33489 0.11813 0.90227 0.0
H463 H 0.31956 0.12996 0.92499 0.0
C464 C 0.35408 0.23468 0.87212 0.0
C465 C 0.36699 0.24593 0.85951 0.0
C466 C 0.36466 0.25225 0.83946 0.0
C467 C 0.34928 0.24727 0.83128 0.0
C468 C 0.33633 0.2356 0.84373 0.0
C469 C 0.3387 0.22951 0.86409 0.0
C470 C 0.3571 0.23954 0.91319 0.0
C471 C 0.34305 0.23777 0.92246 0.0
C472 C 0.34355 0.249 0.93792 0.0
C473 C 0.35811 0.2623 0.94415 0.0
C474 C 0.37214 0.26355 0.93542 0.0
C475 C 0.3716 0.25227 0.92023 0.0
C476 C 0.35378 0.21422 0.89784 0.0
C477 C 0.36648 0.21137 0.89833 0.0
C478 C 0.36386 0.19597 0.90061 0.0
C479 C 0.34838 0.18296 0.9022 0.0
C480 C 0.33565 0.18596 0.90216 0.0
C481 C 0.33833 0.20143 0.90018 0.0
C482 C 0.33502 0.11206 0.87979 0.0
C483 C 0.34855 0.11226 0.87107 0.0
C484 C 0.3478 0.1046 0.85057 0.0
C485 C 0.33357 0.09672 0.8381 0.0
C486 C 0.32024 0.09712 0.84642 0.0
C487 C 0.32098 0.10467 0.86708 0.0
C488 C 0.34105 0.11227 0.91989 0.0
C489 C 0.3317 0.09652 0.92698 0.0
C490 C 0.33805 0.08924 0.94049 0.0
C491 C 0.35395 0.09764 0.94769 0.0
C492 C 0.36305 0.11378 0.94173 0.0
C493 C 0.35676 0.12096 0.92775 0.0
C494 C 0.33923 0.13464 0.90324 0.0
C495 C 0.35235 0.1465 0.8914 0.0
C496 C 0.35537 0.16212 0.89125 0.0
C497 C 0.34553 0.16638 0.90322 0.0
C498 C 0.33275 0.15455 0.91572 0.0
C499 C 0.32964 0.13889 0.91562 0.0
H500 H 0.76691 0.13439 0.87177 0.0
N501 N 0.79042 0.13381 0.89375 0.0
H502 H 0.75451 0.12123 0.83587 0.0
H503 H 0.80058 0.11832 0.86563 0.0
H504 H 0.78864 0.10553 0.82933 0.0
H505 H 0.78361 0.10336 0.9008 0.0
H506 H 0.76451 0.08492 0.92816 0.0
H507 H 0.77882 0.14132 0.92966 0.0
H508 H 0.76071 0.12331 0.95847 0.0
H509 H 0.80112 0.16467 0.89603 0.0
H510 H 0.81621 0.13014 0.89842 0.0
H511 H 0.82847 0.18596 0.90042 0.0
H512 H 0.84382 0.15133 0.90114 0.0
H513 H 0.90635 0.24637 0.88381 0.0
H514 H 0.91947 0.25915 0.84834 0.0
H515 H 0.92889 0.22105 0.83496 0.0
H516 H 0.91632 0.20872 0.87126 0.0
H517 H 0.9326 0.23045 0.92112 0.0
H518 H 0.94622 0.25248 0.94746 0.0
H519 H 0.90389 0.25609 0.95269 0.0
H520 H 0.89082 0.23473 0.92498 0.0
H521 H 0.87951 0.22121 0.8828 0.0
H522 H 0.85209 0.20015 0.88127 0.0
H523 H 0.86357 0.17091 0.92359 0.0
N524 N 0.90432 0.21965 0.90242 0.0
H525 H 0.89134 0.19184 0.92364 0.0
C526 C 0.78473 0.1275 0.87126 0.0
C527 C 0.77182 0.1283 0.86237 0.0
C528 C 0.76479 0.12078 0.84182 0.0
C529 C 0.77056 0.11229 0.82963 0.0
C530 C 0.78376 0.11179 0.83837 0.0
C531 C 0.79075 0.11929 0.85902 0.0
C532 C 0.7823 0.12366 0.91284 0.0
C533 C 0.77877 0.10782 0.91346 0.0
C534 C 0.76789 0.09728 0.92935 0.0
C535 C 0.76063 0.10244 0.94531 0.0
C536 C 0.76551 0.11869 0.94597 0.0
C537 C 0.77606 0.1291 0.92974 0.0
C538 C 0.8067 0.14592 0.89652 0.0
C539 C 0.81045 0.16175 0.89724 0.0
C540 C 0.82614 0.17391 0.89955 0.0
C541 C 0.83856 0.17052 0.90086 0.0
C542 C 0.83468 0.1545 0.90043 0.0
C543 C 0.81889 0.14232 0.89852 0.0
C544 C 0.91051 0.22661 0.88033 0.0
C545 C 0.91118 0.24072 0.87324 0.0
C546 C 0.91862 0.24798 0.85277 0.0
C547 C 0.92537 0.24122 0.83874 0.0
C548 C 0.92413 0.22679 0.84551 0.0
C549 C 0.91682 0.21962 0.86612 0.0
C550 C 0.9107 0.23081 0.92112 0.0
C551 C 0.9262 0.23584 0.9283 0.0
C552 C 0.93394 0.24845 0.94352 0.0
C553 C 0.92627 0.25627 0.95236 0.0
C554 C 0.91038 0.25067 0.94599 0.0
C555 C 0.90274 0.23821 0.93034 0.0
C556 C 0.88763 0.20803 0.90308 0.0
C557 C 0.8762 0.21028 0.89169 0.0
C558 C 0.86036 0.19818 0.89105 0.0
C559 C 0.85544 0.18363 0.9022 0.0
C560 C 0.86685 0.18171 0.91431 0.0
C561 C 0.88274 0.19374 0.91462 0.0
H562 H 0.79458 0.69595 0.88152 0.0
N563 N 0.79324 0.66815 0.89265 0.0
H564 H 0.78415 0.70123 0.84668 0.0
H565 H 0.78337 0.65029 0.85536 0.0
H566 H 0.77354 0.65566 0.81998 0.0
H567 H 0.76676 0.64246 0.90492 0.0
H568 H 0.74729 0.64055 0.93275 0.0
H569 H 0.79728 0.69143 0.92235 0.0
H570 H 0.77789 0.68969 0.95066 0.0
H571 H 0.82033 0.69694 0.8924 0.0
H572 H 0.80199 0.64707 0.90228 0.0
H573 H 0.84741 0.70169 0.89582 0.0
H574 H 0.82888 0.65163 0.90665 0.0
H575 H 0.92151 0.7135 0.87335 0.0
H576 H 0.93391 0.71448 0.83665 0.0
H577 H 0.91224 0.66348 0.83775 0.0
H578 H 0.901 0.66286 0.87501 0.0
H579 H 0.88902 0.6586 0.91925 0.0
H580 H 0.9008 0.64729 0.944 0.0
H581 H 0.9455 0.69117 0.94094 0.0
H582 H 0.9332 0.7027 0.9176 0.0
H583 H 0.89436 0.70624 0.9191 0.0
H584 H 0.86731 0.7018 0.92019 0.0
H585 H 0.85095 0.65804 0.88315 0.0
N586 N 0.90445 0.68828 0.8995 0.0
H587 H 0.87762 0.66225 0.88292 0.0
C588 C 0.78957 0.67262 0.87105 0.0
C589 C 0.79016 0.68719 0.86806 0.0
C590 C 0.78424 0.69022 0.84804 0.0
C591 C 0.77774 0.67877 0.8306 0.0
C592 C 0.77806 0.66459 0.83325 0.0
C593 C 0.78384 0.66154 0.85331 0.0
C594 C 0.78339 0.66701 0.91163 0.0
C595 C 0.76938 0.6527 0.91524 0.0
C596 C 0.7583 0.65165 0.93122 0.0
C597 C 0.76099 0.66498 0.94401 0.0
C598 C 0.77537 0.67925 0.94095 0.0
C599 C 0.78651 0.68025 0.92491 0.0
C600 C 0.80919 0.6716 0.89686 0.0
C601 C 0.82215 0.68705 0.89563 0.0
C602 C 0.83764 0.68973 0.89773 0.0
C603 C 0.84042 0.67702 0.90126 0.0
C604 C 0.82728 0.66168 0.90341 0.0
C605 C 0.81189 0.65903 0.90114 0.0
C606 C 0.91016 0.68816 0.8768 0.0
C607 C 0.91937 0.70256 0.86548 0.0
C608 C 0.92639 0.70306 0.84443 0.0
C609 C 0.92418 0.68906 0.8341 0.0
C610 C 0.91452 0.67456 0.84527 0.0
C611 C 0.90777 0.67413 0.86647 0.0
C612 C 0.9102 0.68167 0.91663 0.0
C613 C 0.90121 0.66597 0.92438 0.0
C614 C 0.90811 0.65939 0.93837 0.0
C615 C 0.92426 0.66816 0.94444 0.0
C616 C 0.93301 0.68401 0.93716 0.0
C617 C 0.92602 0.69066 0.92364 0.0
C618 C 0.88817 0.68469 0.90094 0.0
C619 C 0.88486 0.69562 0.91146 0.0
C620 C 0.86941 0.69312 0.91187 0.0
C621 C 0.85686 0.67956 0.90171 0.0
C622 C 0.8602 0.6685 0.89147 0.0
C623 C 0.87561 0.67099 0.89113 0.0
H624 H 0.7719 0.65679 0.48214 0.0
N625 N 0.79868 0.68433 0.47085 0.0
H626 H 0.75653 0.6517 0.51717 0.0
H627 H 0.80689 0.70238 0.50794 0.0
H628 H 0.792 0.69719 0.54354 0.0
H629 H 0.79844 0.71004 0.45711 0.0
H630 H 0.78096 0.71177 0.42882 0.0
H631 H 0.77901 0.6606 0.44194 0.0
H632 H 0.76131 0.66211 0.41338 0.0
H633 H 0.79635 0.65528 0.47364 0.0
H634 H 0.82844 0.70451 0.45958 0.0
H635 H 0.81827 0.64992 0.47163 0.0
H636 H 0.85036 0.69924 0.45634 0.0
H637 H 0.88063 0.63999 0.50122 0.0
H638 H 0.89361 0.64316 0.53834 0.0
H639 H 0.92604 0.69225 0.52247 0.0
H640 H 0.91285 0.68916 0.48625 0.0
H641 H 0.90543 0.69087 0.44853 0.0
H642 H 0.92672 0.6985 0.42122 0.0
H643 H 0.91557 0.64972 0.4167 0.0
H644 H 0.89511 0.64254 0.44567 0.0
H645 H 0.85948 0.64299 0.4514 0.0
H646 H 0.83731 0.648 0.44887 0.0
H647 H 0.86631 0.69376 0.48029 0.0
N648 N 0.88814 0.66171 0.46869 0.0
H649 H 0.88839 0.68894 0.48174 0.0
C650 C 0.79047 0.68009 0.49239 0.0
C651 C 0.77641 0.66561 0.49551 0.0
C652 C 0.76767 0.66267 0.51566 0.0
C653 C 0.77289 0.67412 0.53311 0.0
C654 C 0.7874 0.68826 0.53027 0.0
C655 C 0.79603 0.69121 0.51008 0.0
C656 C 0.78998 0.68525 0.45161 0.0
C657 C 0.79061 0.69964 0.44722 0.0
C658 C 0.78062 0.70058 0.431 0.0
C659 C 0.76968 0.68706 0.41881 0.0
C660 C 0.76949 0.6727 0.42262 0.0
C661 C 0.77962 0.67182 0.43883 0.0
C662 C 0.81086 0.68037 0.46703 0.0
C663 C 0.80809 0.66489 0.46975 0.0
C664 C 0.82067 0.66184 0.46844 0.0
C665 C 0.83623 0.67418 0.4641 0.0
C666 C 0.83869 0.6895 0.4603 0.0
C667 C 0.82616 0.69253 0.46188 0.0
C668 C 0.89566 0.66423 0.49081 0.0
C669 C 0.89046 0.65144 0.50593 0.0
C670 C 0.89797 0.65326 0.52703 0.0
C671 C 0.9109 0.66797 0.53344 0.0
C672 C 0.91598 0.6808 0.51832 0.0
C673 C 0.90845 0.679 0.49735 0.0
C674 C 0.89884 0.66613 0.44953 0.0
C675 C 0.90752 0.6818 0.44165 0.0
C676 C 0.91966 0.68612 0.42571 0.0
C677 C 0.92318 0.67481 0.41679 0.0
C678 C 0.91366 0.65892 0.4236 0.0
C679 C 0.90177 0.6547 0.43994 0.0
C680 C 0.87559 0.66545 0.46688 0.0
C681 C 0.86103 0.65414 0.45755 0.0
C682 C 0.84833 0.657 0.4563 0.0
C683 C 0.8499 0.67128 0.46446 0.0
C684 C 0.86464 0.68272 0.4735 0.0
C685 C 0.87734 0.6799 0.47456 0.0
H686 H 0.36224 0.12206 0.48545 0.0
N687 N 0.33442 0.12078 0.47432 0.0
H688 H 0.36767 0.112 0.5205 0.0
H689 H 0.31689 0.11161 0.51196 0.0
H690 H 0.32241 0.10207 0.54753 0.0
H691 H 0.30933 0.09334 0.46374 0.0
H692 H 0.30802 0.07336 0.43747 0.0
H693 H 0.35767 0.12497 0.44441 0.0
H694 H 0.3565 0.10506 0.4175 0.0
H695 H 0.36137 0.14836 0.48634 0.0
H696 H 0.31708 0.12968 0.45024 0.0
H697 H 0.36586 0.17504 0.48166 0.0
H698 H 0.32201 0.15646 0.44382 0.0
H699 H 0.37269 0.26023 0.47695 0.0
H700 H 0.37113 0.27271 0.51223 0.0
H701 H 0.33108 0.22829 0.53355 0.0
H702 H 0.33218 0.21627 0.49793 0.0
H703 H 0.32265 0.22627 0.46186 0.0
H704 H 0.31223 0.23824 0.43569 0.0
H705 H 0.35584 0.25877 0.39731 0.0
H706 H 0.36631 0.2469 0.42404 0.0
H707 H 0.37523 0.2233 0.4599 0.0
H708 H 0.372 0.19679 0.4593 0.0
H709 H 0.32121 0.17664 0.46269 0.0
N710 N 0.35284 0.23116 0.46221 0.0
H711 H 0.32462 0.20302 0.46162 0.0
C712 C 0.33905 0.11742 0.49607 0.0
C713 C 0.35357 0.11786 0.49901 0.0
C714 C 0.3567 0.11218 0.51915 0.0
C715 C 0.34538 0.106 0.53674 0.0
C716 C 0.33124 0.10641 0.53414 0.0
C717 C 0.32811 0.11201 0.51398 0.0
C718 C 0.33352 0.11056 0.45595 0.0
C719 C 0.31953 0.09608 0.45329 0.0
C720 C 0.31883 0.0847 0.43819 0.0
C721 C 0.33216 0.08756 0.42528 0.0
C722 C 0.34607 0.1024 0.42733 0.0
C723 C 0.34674 0.11383 0.44254 0.0
C724 C 0.33869 0.13689 0.46895 0.0
C725 C 0.35271 0.14997 0.477 0.0
C726 C 0.35535 0.16536 0.47409 0.0
C727 C 0.34421 0.16809 0.46259 0.0
C728 C 0.33067 0.15496 0.45338 0.0
C729 C 0.3279 0.13959 0.45674 0.0
C730 C 0.35273 0.23729 0.48466 0.0
C731 C 0.36373 0.25316 0.48942 0.0
C732 C 0.36282 0.26026 0.50967 0.0
C733 C 0.35091 0.25156 0.52583 0.0
C734 C 0.34022 0.23548 0.52137 0.0
C735 C 0.34099 0.22847 0.50097 0.0
C736 C 0.34532 0.23567 0.44487 0.0
C737 C 0.32984 0.23299 0.44751 0.0
C738 C 0.32387 0.23988 0.43246 0.0
C739 C 0.33323 0.2496 0.41444 0.0
C740 C 0.3484 0.25157 0.41119 0.0
C741 C 0.35435 0.24467 0.42627 0.0
C742 C 0.35026 0.21524 0.461 0.0
C743 C 0.36341 0.2131 0.46025 0.0
C744 C 0.36151 0.19789 0.46013 0.0
C745 C 0.34632 0.18438 0.46113 0.0
C746 C 0.33311 0.18661 0.4615 0.0
C747 C 0.33504 0.20182 0.46115 0.0
H748 H 0.78559 0.10259 0.48816 0.0
N749 N 0.78621 0.12834 0.46833 0.0
H750 H 0.7724 0.08981 0.52355 0.0
H751 H 0.77364 0.13905 0.49896 0.0
H752 H 0.76108 0.12679 0.53528 0.0
H753 H 0.75706 0.11426 0.45152 0.0
H754 H 0.74437 0.0908 0.42753 0.0
H755 H 0.80152 0.11516 0.44526 0.0
H756 H 0.7893 0.09251 0.41981 0.0
H757 H 0.81184 0.12762 0.48649 0.0
H758 H 0.79799 0.15632 0.44783 0.0
H759 H 0.83921 0.14905 0.48629 0.0
H760 H 0.82559 0.17774 0.44668 0.0
H761 H 0.91612 0.20877 0.50351 0.0
H762 H 0.92713 0.22139 0.54018 0.0
H763 H 0.90412 0.24926 0.53297 0.0
H764 H 0.89395 0.23713 0.49571 0.0
H765 H 0.89662 0.23873 0.45291 0.0
H766 H 0.91588 0.25837 0.42646 0.0
H767 H 0.94354 0.23496 0.43021 0.0
H768 H 0.92393 0.21522 0.45572 0.0
H769 H 0.88927 0.18504 0.46704 0.0
H770 H 0.8619 0.16349 0.4633 0.0
H771 H 0.8457 0.1972 0.47053 0.0
N772 N 0.89941 0.21544 0.47447 0.0
H773 H 0.87313 0.21863 0.47324 0.0
C774 C 0.78044 0.12175 0.49075 0.0
C775 C 0.78038 0.10803 0.4984 0.0
C776 C 0.77289 0.10077 0.51883 0.0
C777 C 0.7655 0.10715 0.53233 0.0
C778 C 0.76629 0.1213 0.52513 0.0
C779 C 0.77362 0.12846 0.50452 0.0
C780 C 0.78022 0.11658 0.45033 0.0
C781 C 0.76421 0.10971 0.44428 0.0
C782 C 0.75698 0.09628 0.4304 0.0
C783 C 0.76569 0.08949 0.42175 0.0
C784 C 0.78203 0.09705 0.42658 0.0
C785 C 0.78917 0.11027 0.44096 0.0
C786 C 0.80275 0.14041 0.46734 0.0
C787 C 0.81468 0.1385 0.47781 0.0
C788 C 0.83044 0.15078 0.47747 0.0
C789 C 0.83471 0.16523 0.4665 0.0
C790 C 0.82277 0.16694 0.45562 0.0
C791 C 0.80699 0.15466 0.45609 0.0
C792 C 0.90407 0.22183 0.49709 0.0
C793 C 0.91332 0.21746 0.51007 0.0
C794 C 0.91953 0.22467 0.53108 0.0
C795 C 0.9165 0.23636 0.53972 0.0
C796 C 0.90689 0.24047 0.52681 0.0
C797 C 0.90083 0.23336 0.5056 0.0
C798 C 0.90883 0.22545 0.45606 0.0
C799 C 0.90661 0.23763 0.44746 0.0
C800 C 0.91776 0.24896 0.43254 0.0
C801 C 0.93139 0.24838 0.42616 0.0
C802 C 0.93312 0.23572 0.43423 0.0
C803 C 0.92194 0.2244 0.44891 0.0
C804 C 0.88324 0.20337 0.47053 0.0
C805 C 0.87977 0.18773 0.46751 0.0
C806 C 0.8641 0.17543 0.46561 0.0
C807 C 0.85148 0.17851 0.46688 0.0
C808 C 0.85505 0.19434 0.46928 0.0
C809 C 0.87078 0.20666 0.47101 0.0
H810 H 0.02393 0.57654 0.20974 0.0
N811 N 0.99826 0.55342 0.23226 0.0
H812 H 0.02353 0.58879 0.17363 0.0
H813 H 0.974 0.54363 0.20355 0.0
H814 H 0.97355 0.55513 0.16663 0.0
H815 H 0.9843 0.56837 0.24972 0.0
H816 H 0.99586 0.59154 0.27442 0.0
H817 H 0.02731 0.56626 0.25366 0.0
H818 H 0.03862 0.58872 0.27959 0.0
H819 H 0.02381 0.55051 0.22006 0.0
H820 H 0.97681 0.52537 0.24806 0.0
H821 H 0.02589 0.52659 0.22281 0.0
H822 H 0.97819 0.50115 0.24949 0.0
H823 H 0.02335 0.45308 0.20924 0.0
H824 H 0.02191 0.43954 0.17387 0.0
H825 H 0.97146 0.42167 0.17081 0.0
H826 H 0.97296 0.43443 0.20743 0.0
H827 H 0.98173 0.42632 0.26118 0.0
H828 H 0.99176 0.41454 0.2885 0.0
H829 H 0.03964 0.45083 0.27225 0.0
H830 H 0.02925 0.46319 0.24659 0.0
H831 H 0.01675 0.47652 0.20617 0.0
H832 H 0.01772 0.50191 0.20697 0.0
H833 H 0.9883 0.48723 0.26735 0.0
N834 N 0.99836 0.4508 0.23373 0.0
H835 H 0.98639 0.4614 0.26526 0.0
C836 C 0.9989 0.55928 0.20944 0.0
C837 C 0.01293 0.57174 0.20032 0.0
C838 C 0.01267 0.57867 0.17952 0.0
C839 C 0.99844 0.57311 0.16716 0.0
C840 C 0.98464 0.56004 0.17584 0.0
C841 C 0.98488 0.55329 0.1968 0.0
C842 C 1.00478 0.56544 0.24982 0.0
C843 C 0.99608 0.57263 0.25651 0.0
C844 C 1.00274 0.58588 0.27079 0.0
C845 C 0.01829 0.59219 0.27912 0.0
C846 C 0.02675 0.58448 0.27322 0.0
C847 C 0.02017 0.5714 0.25853 0.0
C848 C 1.00021 0.53975 0.23429 0.0
C849 C 0.01396 0.53984 0.22695 0.0
C850 C 0.01503 0.52604 0.22827 0.0
C851 C 1.00225 0.51177 0.23652 0.0
C852 C 0.9885 0.51186 0.24366 0.0
C853 C 0.98758 0.52569 0.2427 0.0
C854 C 0.99815 0.44452 0.2113 0.0
C855 C 0.01195 0.44619 0.20112 0.0
C856 C 0.01112 0.43856 0.18055 0.0
C857 C 0.99653 0.42934 0.16933 0.0
C858 C 0.98286 0.42831 0.17911 0.0
C859 C 0.98368 0.43574 0.19992 0.0
C860 C 1.00472 0.44542 0.25162 0.0
C861 C 0.99437 0.43186 0.26396 0.0
C862 C 1.00019 0.42503 0.27933 0.0
C863 C 0.0166 0.43142 0.28235 0.0
C864 C 0.02695 0.44551 0.27064 0.0
C865 C 0.02105 0.45255 0.25567 0.0
C866 C 1.00118 0.4668 0.23546 0.0
C867 C 0.01048 0.4787 0.2196 0.0
C868 C 0.01116 0.4934 0.22022 0.0
C869 C 1.00286 0.49671 0.237 0.0
C870 C 0.99443 0.48508 0.25367 0.0
C871 C 0.99348 0.47031 0.25273 0.0
H872 H 0.59706 0.56626 0.22236 0.0
N873 N 0.56863 0.55782 0.23904 0.0
H874 H 0.60875 0.5803 0.18672 0.0
H875 H 0.5533 0.56466 0.20537 0.0
H876 H 0.56452 0.57791 0.16939 0.0
H877 H 0.56104 0.58118 0.24226 0.0
H878 H 0.57315 0.60379 0.2681 0.0
H879 H 0.58647 0.56117 0.27526 0.0
H880 H 0.59831 0.58351 0.30186 0.0
H881 H 0.56432 0.5289 0.24293 0.0
H882 H 0.53884 0.55428 0.23909 0.0
H883 H 0.53941 0.50386 0.24377 0.0
H884 H 0.5138 0.52932 0.23808 0.0
H885 H 0.45739 0.42533 0.21916 0.0
H886 H 0.44291 0.41418 0.18363 0.0
H887 H 0.44547 0.45879 0.16852 0.0
H888 H 0.45943 0.46957 0.20462 0.0
H889 H 0.44312 0.4611 0.24137 0.0
H890 H 0.42111 0.44912 0.26821 0.0
H891 H 0.44176 0.42358 0.29971 0.0
H892 H 0.4636 0.4354 0.27224 0.0
H893 H 0.4947 0.46103 0.22028 0.0
H894 H 0.51906 0.4865 0.22083 0.0
H895 H 0.49484 0.50689 0.25688 0.0
N896 N 0.46655 0.4537 0.23672 0.0
H897 H 0.47033 0.48166 0.25475 0.0
C898 C 0.57429 0.56424 0.21657 0.0
C899 C 0.58986 0.5686 0.21067 0.0
C900 C 0.59649 0.57658 0.19023 0.0
C901 C 0.58762 0.58033 0.17511 0.0
C902 C 0.57182 0.5755 0.18075 0.0
C903 C 0.56527 0.56767 0.20132 0.0
C904 C 0.5729 0.56948 0.25682 0.0
C905 C 0.56886 0.58141 0.25554 0.0
C906 C 0.57583 0.59437 0.27042 0.0
C907 C 0.58691 0.59564 0.28697 0.0
C908 C 0.59011 0.58314 0.28906 0.0
C909 C 0.5832 0.57024 0.27409 0.0
C910 C 0.55351 0.54344 0.2406 0.0
C911 C 0.55329 0.52902 0.24208 0.0
C912 C 0.53898 0.51469 0.24226 0.0
C913 C 0.52441 0.51437 0.2405 0.0
C914 C 0.52467 0.52895 0.23958 0.0
C915 C 0.53905 0.54333 0.23988 0.0
C916 C 0.45957 0.44825 0.21445 0.0
C917 C 0.45497 0.43272 0.20799 0.0
C918 C 0.44675 0.42641 0.18761 0.0
C919 C 0.44298 0.43556 0.1731 0.0
C920 C 0.44795 0.45131 0.17938 0.0
C921 C 0.45608 0.45757 0.19991 0.0
C922 C 0.45505 0.44913 0.25483 0.0
C923 C 0.44308 0.45316 0.25431 0.0
C924 C 0.43049 0.44631 0.26977 0.0
C925 C 0.42957 0.43526 0.28606 0.0
C926 C 0.44196 0.43185 0.28719 0.0
C927 C 0.45454 0.43872 0.27171 0.0
C928 C 0.48064 0.4692 0.2376 0.0
C929 C 0.49465 0.47103 0.2282 0.0
C930 C 0.50865 0.48564 0.22879 0.0
C931 C 0.50916 0.49889 0.23926 0.0
C932 C 0.49501 0.4971 0.24848 0.0
C933 C 0.48088 0.48249 0.24747 0.0
H934 H 0.55627 0.98701 0.20956 0.0
N935 N 0.56609 0.01425 0.23394 0.0
H936 H 0.56724 0.98433 0.17377 0.0
H937 H 0.58851 0.03726 0.20915 0.0
H938 H 0.60087 0.03463 0.17462 0.0
H939 H 0.59388 0.02908 0.25461 0.0
H940 H 0.60557 0.0176 0.27919 0.0
H941 H 0.54997 0.98484 0.25337 0.0
H942 H 0.56111 0.97333 0.27941 0.0
H943 H 0.53639 0.99095 0.22041 0.0
H944 H 0.56204 0.0369 0.25193 0.0
H945 H 0.51244 0.99276 0.22017 0.0
H946 H 0.53784 0.03845 0.25317 0.0
H947 H 0.46063 1.00193 0.19594 0.0
H948 H 0.44917 1.00247 0.15897 0.0
H949 H 0.45129 0.04629 0.17788 0.0
H950 H 0.46292 0.0457 0.2147 0.0
H951 H 0.46401 0.03579 0.26881 0.0
H952 H 0.44121 0.02417 0.2947 0.0
H953 H 0.42013 0.98121 0.25467 0.0
H954 H 0.44295 0.99274 0.2294 0.0
H955 H 0.46835 0.99535 0.23756 0.0
H956 H 0.49173 0.99255 0.24055 0.0
H957 H 0.52145 0.04281 0.229 0.0
N958 N 0.46791 0.02314 0.23086 0.0
H959 H 0.49796 0.04556 0.22733 0.0
C960 C 0.57121 0.01248 0.21162 0.0
C961 C 0.56549 0.99756 0.20148 0.0
C962 C 0.57215 0.996 0.1812 0.0
C963 C 0.58513 0.00923 0.17107 0.0
C964 C 0.5907 0.02416 0.18134 0.0
C965 C 0.5837 0.02574 0.20121 0.0
C966 C 0.57109 0.0079 0.25226 0.0
C967 C 0.58659 0.01701 0.26043 0.0
C968 C 0.59322 0.01037 0.27463 0.0
C969 C 0.58439 0.99441 0.28139 0.0
C970 C 0.56845 0.98554 0.27425 0.0
C971 C 0.56192 0.99216 0.2596 0.0
C972 C 0.55121 0.01399 0.23582 0.0
C973 C 0.5369 1.0014 0.2275 0.0
C974 C 0.52306 1.00239 0.22761 0.0
C975 C 0.52311 0.01586 0.23637 0.0
C976 C 0.53732 0.02807 0.24567 0.0
C977 C 0.55118 0.02715 0.24524 0.0
C978 C 0.46265 0.02384 0.20807 0.0
C979 C 0.45881 0.01174 0.19201 0.0
C980 C 0.45215 0.01202 0.17094 0.0
C981 C 0.44922 0.02439 0.1655 0.0
C982 C 0.45354 0.03669 0.18138 0.0
C983 C 0.46014 0.03637 0.20243 0.0
C984 C 0.45529 0.01519 0.24725 0.0
C985 C 0.45458 0.02376 0.26596 0.0
C986 C 0.44148 0.01715 0.28057 0.0
C987 C 0.42877 1.00177 0.27672 0.0
C988 C 0.42976 0.993 0.25836 0.0
C989 C 0.44285 0.99962 0.24379 0.0
C990 C 0.48138 0.02079 0.23257 0.0
C991 C 0.47986 0.00581 0.23595 0.0
C992 C 0.49334 1.0042 0.23743 0.0
C993 C 0.50863 0.01746 0.2352 0.0
C994 C 0.51 0.03235 0.23143 0.0
C995 C 0.49656 0.03396 0.23025 0.0
H996 H 0.42522 0.97725 0.81528 0.0
N997 N 0.45353 0.99727 0.79822 0.0
H998 H 0.41373 0.9796 0.85115 0.0
H999 H 0.46918 0.01923 0.8322 0.0
H1000 H 0.45815 0.02124 0.86825 0.0
H1001 H 0.46001 0.02797 0.79618 0.0
H1002 H 0.44809 0.0385 0.77008 0.0
H1003 H 0.43592 0.98298 0.76171 0.0
H1004 H 0.42412 0.99353 0.73501 0.0
H1005 H 0.45967 0.97381 0.79382 0.0
H1006 H 0.48252 0.0246 0.79739 0.0
H1007 H 0.48542 0.97546 0.79152 0.0
H1008 H 0.50827 0.02644 0.79719 0.0
H1009 H 0.55579 0.97898 0.81917 0.0
H1010 H 0.56643 0.97516 0.85492 0.0
H1011 H 0.58973 0.02561 0.86735 0.0
H1012 H 0.57798 0.02892 0.83249 0.0
H1013 H 0.58501 0.03379 0.78659 0.0
H1014 H 0.60545 0.03684 0.75977 0.0
H1015 H 0.57974 0.9864 0.74725 0.0
H1016 H 0.55953 0.98357 0.77485 0.0
H1017 H 0.53267 0.98158 0.81415 0.0
H1018 H 0.50687 0.97955 0.81223 0.0
H1019 H 0.52785 0.02495 0.77813 0.0
N1020 N 0.56087 0.00677 0.80165 0.0
H1021 H 0.55388 0.02735 0.78201 0.0
C1022 C 0.44808 0.99792 0.82093 0.0
C1023 C 0.43252 0.98674 0.82698 0.0
C1024 C 0.42599 0.98809 0.84754 0.0
C1025 C 0.43496 1.00068 0.86263 0.0
C1026 C 0.45077 0.01156 0.8569 0.0
C1027 C 0.45721 0.01029 0.83624 0.0
C1028 C 0.44887 0.00463 0.78086 0.0
C1029 C 0.4525 0.02047 0.78259 0.0
C1030 C 0.44564 0.02649 0.76757 0.0
C1031 C 0.43501 0.01684 0.75049 0.0
C1032 C 0.43203 1.00123 0.74817 0.0
C1033 C 0.43888 0.99522 0.76323 0.0
C1034 C 0.46907 0.99898 0.79617 0.0
C1035 C 0.47029 0.98533 0.79433 0.0
C1036 C 0.48509 0.98633 0.79328 0.0
C1037 C 0.49917 1.00109 0.79452 0.0
C1038 C 0.49786 0.01483 0.7959 0.0
C1039 C 0.48302 0.01381 0.79637 0.0
C1040 C 0.56582 1.00418 0.82357 0.0
C1041 C 0.5628 0.98909 0.83005 0.0
C1042 C 0.56915 0.987 0.85032 0.0
C1043 C 0.57901 1.00005 0.86424 0.0
C1044 C 0.58191 0.01516 0.85757 0.0
C1045 C 0.57528 0.01715 0.83756 0.0
C1046 C 0.57081 0.00851 0.78253 0.0
C1047 C 0.58362 0.02349 0.77756 0.0
C1048 C 0.59527 0.02517 0.76216 0.0
C1049 C 0.59434 0.01185 0.75131 0.0
C1050 C 0.58097 0.99689 0.7555 0.0
C1051 C 0.56932 0.99524 0.77104 0.0
C1052 C 0.54529 0.00471 0.79842 0.0
C1053 C 0.53174 0.99111 0.8063 0.0
C1054 C 0.51686 0.98991 0.80492 0.0
C1055 C 0.51504 1.00211 0.79507 0.0
C1056 C 0.52865 0.01545 0.78637 0.0
C1057 C 0.54358 0.01678 0.78828 0.0
H1058 H 0.99697 0.56175 0.81617 0.0
N1059 N 0.0251 0.56566 0.80054 0.0
H1060 H 0.99271 0.57169 0.85214 0.0
H1061 H 0.04558 0.57873 0.83472 0.0
H1062 H 0.04134 0.58829 0.87122 0.0
H1063 H 0.0433 0.59493 0.78567 0.0
H1064 H 0.03648 0.60942 0.75841 0.0
H1065 H 0.99845 0.55283 0.77381 0.0
H1066 H 0.99174 0.56693 0.74538 0.0
H1067 H 0.99939 0.53732 0.81337 0.0
H1068 H 0.04487 0.55829 0.7804 0.0
H1069 H 0.99739 0.51138 0.81169 0.0
H1070 H 0.04261 0.53229 0.77736 0.0
H1071 H 0.99346 0.44833 0.82755 0.0
H1072 H 0.99021 0.43509 0.86404 0.0
H1073 H 0.03915 0.44655 0.8614 0.0
H1074 H 0.04172 0.45853 0.82387 0.0
H1075 H 0.0367 0.45665 0.76814 0.0
H1076 H 0.02774 0.43506 0.74038 0.0
H1077 H 0.97977 0.41618 0.76447 0.0
H1078 H 0.98872 0.438 0.7912 0.0
H1079 H 0.99387 0.46431 0.79265 0.0
H1080 H 0.99421 0.48949 0.79 0.0
H1081 H 0.04477 0.51444 0.80152 0.0
N1082 N 0.01956 0.46043 0.80007 0.0
H1083 H 0.04431 0.48925 0.80304 0.0
C1084 C 0.02167 0.56959 0.82275 0.0
C1085 C 1.00667 0.56739 0.82819 0.0
C1086 C 1.00423 0.57304 0.84884 0.0
C1087 C 0.01672 0.58094 0.86455 0.0
C1088 C 0.03154 0.58256 0.85937 0.0
C1089 C 0.03397 0.57696 0.83866 0.0
C1090 C 0.02149 0.57285 0.78168 0.0
C1091 C 0.03215 0.58872 0.77659 0.0
C1092 C 0.02822 0.59695 0.76086 0.0
C1093 C 0.0135 0.58943 0.74956 0.0
C1094 C 1.00306 0.57324 0.75398 0.0
C1095 C 0.00695 0.56506 0.77003 0.0
C1096 C 0.02251 0.54986 0.79743 0.0
C1097 C 0.00887 0.53633 0.8055 0.0
C1098 C 0.00768 0.52142 0.80432 0.0
C1099 C 0.01996 0.51967 0.79473 0.0
C1100 C 0.03312 0.53315 0.78549 0.0
C1101 C 0.03439 0.54803 0.78698 0.0
C1102 C 0.01777 0.4541 0.82278 0.0
C1103 C 1.00341 0.44781 0.8347 0.0
C1104 C 1.00166 0.44042 0.85584 0.0
C1105 C 0.01436 0.43953 0.86581 0.0
C1106 C 0.02893 0.44652 0.85414 0.0
C1107 C 0.03052 0.45358 0.83279 0.0
C1108 C 0.01348 0.44899 0.7818 0.0
C1109 C 0.02421 0.44802 0.76697 0.0
C1110 C 0.01908 0.43557 0.75132 0.0
C1111 C 1.00303 0.42371 0.7503 0.0
C1112 C 0.99218 0.42514 0.76451 0.0
C1113 C 0.99733 0.43765 0.78002 0.0
C1114 C 0.01916 0.47493 0.79772 0.0
C1115 C 1.00504 0.4752 0.79427 0.0
C1116 C 1.00524 0.48967 0.79297 0.0
C1117 C 0.01954 0.50413 0.79536 0.0
C1118 C 0.03358 0.50367 0.79898 0.0
C1119 C 0.03336 0.48927 0.80004 0.0
H1120 H 0.47163 0.45634 0.83595 0.0
N1121 N 0.45629 0.46551 0.80518 0.0
H1122 H 0.46093 0.4422 0.87145 0.0
H1123 H 0.42908 0.45853 0.82486 0.0
H1124 H 0.41786 0.44359 0.86 0.0
H1125 H 0.43804 0.46508 0.77112 0.0
H1126 H 0.42336 0.44367 0.74362 0.0
H1127 H 0.45964 0.43951 0.79894 0.0
H1128 H 0.44502 0.41812 0.77183 0.0
H1129 H 0.48334 0.46376 0.79925 0.0
H1130 H 0.46572 0.49618 0.80557 0.0
H1131 H 0.51027 0.48575 0.79828 0.0
H1132 H 0.49272 0.51854 0.80291 0.0
H1133 H 0.57838 0.54174 0.84125 0.0
H1134 H 0.5903 0.55468 0.8775 0.0
H1135 H 0.58467 0.59437 0.85823 0.0
H1136 H 0.57199 0.58089 0.82271 0.0
H1137 H 0.5642 0.574 0.78216 0.0
H1138 H 0.58221 0.5927 0.75339 0.0
H1139 H 0.61284 0.57283 0.76122 0.0
H1140 H 0.59477 0.55431 0.78958 0.0
H1141 H 0.55738 0.52717 0.78169 0.0
H1142 H 0.52978 0.50642 0.77809 0.0
H1143 H 0.51614 0.5329 0.8227 0.0
N1144 N 0.56925 0.55324 0.807 0.0
H1145 H 0.54361 0.55405 0.82463 0.0
C1146 C 0.45122 0.45875 0.82768 0.0
C1147 C 0.46006 0.454 0.84119 0.0
C1148 C 0.45379 0.44564 0.86149 0.0
C1149 C 0.43844 0.44157 0.86862 0.0
C1150 C 0.4298 0.44667 0.85533 0.0
C1151 C 0.43616 0.45519 0.83518 0.0
C1152 C 0.45001 0.45402 0.78696 0.0
C1153 C 0.43988 0.45502 0.77093 0.0
C1154 C 0.4314 0.44272 0.75541 0.0
C1155 C 0.43293 0.42912 0.75561 0.0
C1156 C 0.4437 0.42849 0.77098 0.0
C1157 C 0.45213 0.44078 0.78653 0.0
C1158 C 0.47242 0.47829 0.80283 0.0
C1159 C 0.48522 0.47563 0.80017 0.0
C1160 C 0.50074 0.48836 0.79932 0.0
C1161 C 0.50388 0.50411 0.80052 0.0
C1162 C 0.49094 0.50667 0.80243 0.0
C1163 C 0.47545 0.4939 0.80374 0.0
C1164 C 0.57451 0.56039 0.82919 0.0
C1165 C 0.57949 0.5531 0.84511 0.0
C1166 C 0.58646 0.56062 0.86569 0.0
C1167 C 0.58877 0.57576 0.87068 0.0
C1168 C 0.58306 0.58273 0.85509 0.0
C1169 C 0.57591 0.57508 0.83461 0.0
C1170 C 0.57824 0.56282 0.78793 0.0
C1171 C 0.57467 0.57357 0.7773 0.0
C1172 C 0.58501 0.58427 0.76099 0.0
C1173 C 0.599 0.58428 0.75496 0.0
C1174 C 0.60209 0.57302 0.76508 0.0
C1175 C 0.59183 0.56245 0.78136 0.0
C1176 C 0.55265 0.54208 0.80359 0.0
C1177 C 0.54835 0.52858 0.79033 0.0
C1178 C 0.53254 0.51661 0.78858 0.0
C1179 C 0.52057 0.51768 0.80048 0.0
C1180 C 0.52487 0.53157 0.8131 0.0
C1181 C 0.5407 0.54372 0.81442 0.0
H1182 H 0.68435 0.90986 0.54875 0.0
N1183 N 0.65967 0.88403 0.56908 0.0
H1184 H 0.68374 0.92175 0.51262 0.0
H1185 H 0.63609 0.87278 0.53871 0.0
H1186 H 0.63562 0.8841 0.50156 0.0
H1187 H 0.64564 0.89899 0.58642 0.0
H1188 H 0.65725 0.92237 0.61061 0.0
H1189 H 0.68853 0.89669 0.59109 0.0
H1190 H 0.69979 0.9192 0.61689 0.0
H1191 H 0.68416 0.88325 0.54702 0.0
H1192 H 0.64514 0.85727 0.59305 0.0
H1193 H 0.68941 0.86145 0.5464 0.0
H1194 H 0.651 0.83566 0.59394 0.0
H1195 H 0.70526 0.79184 0.54121 0.0
H1196 H 0.70187 0.77713 0.50594 0.0
H1197 H 0.65341 0.7669 0.50149 0.0
H1198 H 0.65678 0.781 0.53733 0.0
H1199 H 0.66098 0.7642 0.57187 0.0
H1200 H 0.66253 0.74699 0.60049 0.0
H1201 H 0.70315 0.7874 0.63067 0.0
H1202 H 0.70231 0.80419 0.60046 0.0
H1203 H 0.70431 0.82575 0.56213 0.0
H1204 H 0.69931 0.84779 0.56555 0.0
H1205 H 0.64931 0.81448 0.57358 0.0
N1206 N 0.68348 0.79504 0.56391 0.0
H1207 H 0.65482 0.79263 0.57187 0.0
C1208 C 0.66013 0.89048 0.54663 0.0
C1209 C 0.67365 0.90414 0.53861 0.0
C1210 C 0.67332 0.91086 0.5177 0.0
C1211 C 0.6596 0.90395 0.50402 0.0
C1212 C 0.64629 0.88996 0.51176 0.0
C1213 C 0.64656 0.88336 0.53288 0.0
C1214 C 0.66606 0.89596 0.58687 0.0
C1215 C 0.65739 0.90323 0.59334 0.0
C1216 C 0.66408 0.91662 0.60736 0.0
C1217 C 0.67962 0.92295 0.61579 0.0
C1218 C 0.68797 0.91504 0.61036 0.0
C1219 C 0.68141 0.90188 0.5958 0.0
C1220 C 0.66399 0.87182 0.56981 0.0
C1221 C 0.67676 0.8729 0.55719 0.0
C1222 C 0.67989 0.86038 0.55711 0.0
C1223 C 0.67063 0.84659 0.57007 0.0
C1224 C 0.65821 0.84583 0.58329 0.0
C1225 C 0.65492 0.85826 0.58303 0.0
C1226 C 0.68141 0.78774 0.54178 0.0
C1227 C 0.69399 0.78658 0.53241 0.0
C1228 C 0.692 0.77819 0.51218 0.0
C1229 C 0.67735 0.77082 0.50069 0.0
C1230 C 0.6648 0.77224 0.50994 0.0
C1231 C 0.66678 0.78053 0.53034 0.0
C1232 C 0.68183 0.78546 0.58364 0.0
C1233 C 0.67015 0.76938 0.58473 0.0
C1234 C 0.67099 0.75953 0.6014 0.0
C1235 C 0.68325 0.76561 0.61777 0.0
C1236 C 0.69391 0.78205 0.6179 0.0
C1237 C 0.69333 0.79178 0.60085 0.0
C1238 C 0.67994 0.80762 0.56635 0.0
C1239 C 0.6923 0.82329 0.56475 0.0
C1240 C 0.68935 0.83587 0.5665 0.0
C1241 C 0.67383 0.83307 0.5695 0.0
C1242 C 0.66144 0.81724 0.57148 0.0
C1243 C 0.6645 0.80465 0.57017 0.0
H1244 H 0.2641 0.89324 0.55047 0.0
N1245 N 0.23678 0.8868 0.56929 0.0
H1246 H 0.27595 0.90799 0.51536 0.0
H1247 H 0.22236 0.89666 0.53802 0.0
H1248 H 0.23364 0.91057 0.50255 0.0
H1249 H 0.23349 0.9128 0.57577 0.0
H1250 H 0.24827 0.93414 0.60295 0.0
H1251 H 0.2545 0.88674 0.60373 0.0
H1252 H 0.26924 0.908 0.63137 0.0
H1253 H 0.22761 0.8562 0.56951 0.0
H1254 H 0.20949 0.8883 0.5735 0.0
H1255 H 0.20068 0.83371 0.57065 0.0
H1256 H 0.18258 0.86613 0.57275 0.0
H1257 H 0.12496 0.77117 0.54853 0.0
H1258 H 0.11488 0.75532 0.51377 0.0
H1259 H 0.10561 0.7907 0.48504 0.0
H1260 H 0.1153 0.80622 0.52022 0.0
H1261 H 0.0973 0.79686 0.5682 0.0
H1262 H 0.07699 0.77889 0.59469 0.0
H1263 H 0.10769 0.76127 0.61651 0.0
H1264 H 0.1279 0.77925 0.58935 0.0
H1265 H 0.15138 0.79811 0.54449 0.0
H1266 H 0.17839 0.8194 0.5491 0.0
H1267 H 0.16198 0.84502 0.59053 0.0
N1268 N 0.12445 0.7983 0.55838 0.0
H1269 H 0.13475 0.82408 0.58418 0.0
C1270 C 0.24231 0.89364 0.54694 0.0
C1271 C 0.25734 0.89682 0.53987 0.0
C1272 C 0.26406 0.90523 0.51973 0.0
C1273 C 0.25581 0.91059 0.50605 0.0
C1274 C 0.2405 0.90692 0.51281 0.0
C1275 C 0.23389 0.8987 0.53309 0.0
C1276 C 0.24286 0.8981 0.58776 0.0
C1277 C 0.24089 0.91142 0.58824 0.0
C1278 C 0.2494 0.92367 0.60385 0.0
C1279 C 0.26008 0.92288 0.61925 0.0
C1280 C 0.26132 0.90912 0.61953 0.0
C1281 C 0.25279 0.89688 0.60394 0.0
C1282 C 0.22065 0.87394 0.57109 0.0
C1283 C 0.21778 0.85837 0.57049 0.0
C1284 C 0.20231 0.84552 0.5709 0.0
C1285 C 0.18921 0.84791 0.57149 0.0
C1286 C 0.1922 0.86362 0.57261 0.0
C1287 C 0.2077 0.87645 0.57272 0.0
C1288 C 0.12077 0.78986 0.53697 0.0
C1289 C 0.1209 0.77557 0.53467 0.0
C1290 C 0.11521 0.76656 0.5147 0.0
C1291 C 0.10926 0.77164 0.49669 0.0
C1292 C 0.10982 0.78628 0.49873 0.0
C1293 C 0.11549 0.79526 0.51869 0.0
C1294 C 0.11405 0.7894 0.57687 0.0
C1295 C 0.09975 0.78935 0.57909 0.0
C1296 C 0.08817 0.77908 0.59432 0.0
C1297 C 0.09064 0.76856 0.60782 0.0
C1298 C 0.1053 0.76906 0.60621 0.0
C1299 C 0.11692 0.7794 0.59086 0.0
C1300 C 0.14082 0.8095 0.56375 0.0
C1301 C 0.15348 0.80823 0.55464 0.0
C1302 C 0.16912 0.8205 0.55751 0.0
C1303 C 0.1726 0.83422 0.57002 0.0
C1304 C 0.15992 0.83497 0.58021 0.0
C1305 C 0.14428 0.82286 0.5769 0.0
H1306 H 0.21353 0.30285 0.53468 0.0
N1307 N 0.2215 0.32483 0.56668 0.0
H1308 H 0.22658 0.30539 0.49812 0.0
H1309 H 0.24573 0.35204 0.54892 0.0
H1310 H 0.25826 0.35509 0.51181 0.0
H1311 H 0.24283 0.3506 0.59104 0.0
H1312 H 0.2627 0.35135 0.61768 0.0
H1313 H 0.22295 0.30036 0.58316 0.0
H1314 H 0.24276 0.30089 0.60906 0.0
H1315 H 0.19384 0.307 0.58723 0.0
H1316 H 0.22203 0.35238 0.55511 0.0
H1317 H 0.17188 0.31211 0.5908 0.0
H1318 H 0.1999 0.35712 0.55682 0.0
H1319 H 0.12327 0.32357 0.53357 0.0
H1320 H 0.11015 0.32269 0.49795 0.0
H1321 H 0.109 0.36478 0.5177 0.0
H1322 H 0.1229 0.36597 0.55307 0.0
H1323 H 0.12786 0.35895 0.60625 0.0
H1324 H 0.10554 0.34892 0.63289 0.0
H1325 H 0.08219 0.30489 0.59541 0.0
H1326 H 0.10457 0.31488 0.56933 0.0
H1327 H 0.12952 0.31635 0.56871 0.0
H1328 H 0.15217 0.3124 0.5699 0.0
H1329 H 0.18328 0.36294 0.57677 0.0
N1330 N 0.13018 0.34487 0.56877 0.0
H1331 H 0.16043 0.36675 0.57371 0.0
C1332 C 0.22845 0.32725 0.5443 0.0
C1333 C 0.22318 0.3143 0.52959 0.0
C1334 C 0.23065 0.31584 0.50864 0.0
C1335 C 0.24351 0.33049 0.5018 0.0
C1336 C 0.24859 0.34357 0.51653 0.0
C1337 C 0.24125 0.34192 0.53766 0.0
C1338 C 0.23142 0.32538 0.58527 0.0
C1339 C 0.24259 0.3397 0.59541 0.0
C1340 C 0.25401 0.3401 0.61046 0.0
C1341 C 0.25444 0.32619 0.61555 0.0
C1342 C 0.24271 0.31181 0.60601 0.0
C1343 C 0.23136 0.31145 0.59112 0.0
C1344 C 0.20953 0.32913 0.57067 0.0
C1345 C 0.19529 0.31809 0.58098 0.0
C1346 C 0.18264 0.32098 0.58268 0.0
C1347 C 0.18382 0.33493 0.57368 0.0
C1348 C 0.19842 0.34629 0.56416 0.0
C1349 C 0.21117 0.34351 0.56293 0.0
C1350 C 0.12429 0.345 0.54613 0.0
C1351 C 0.1206 0.33286 0.53018 0.0
C1352 C 0.11284 0.33224 0.50978 0.0
C1353 C 0.1083 0.34355 0.50494 0.0
C1354 C 0.11244 0.35595 0.5206 0.0
C1355 C 0.12037 0.35665 0.54089 0.0
C1356 C 0.11797 0.33771 0.58589 0.0
C1357 C 0.11806 0.34701 0.60417 0.0
C1358 C 0.10523 0.34131 0.6192 0.0
C1359 C 0.09199 0.32613 0.61622 0.0
C1360 C 0.09224 0.31655 0.59843 0.0
C1361 C 0.10508 0.32227 0.58344 0.0
C1362 C 0.14327 0.34194 0.57065 0.0
C1363 C 0.14119 0.32661 0.57022 0.0
C1364 C 0.15428 0.32436 0.57127 0.0
C1365 C 0.16978 0.33734 0.5734 0.0
C1366 C 0.17169 0.35263 0.57458 0.0
C1367 C 0.15861 0.35486 0.57303 0.0
H1368 H 0.98358 0.38253 0.0864 0.0
H1369 H 0.03031 0.41971 0.06767 0.0
H1370 H 0.03094 0.4352 0.10073 0.0
H1371 H 0.01836 0.43823 0.13494 0.0
H1372 H 0.97253 0.40016 0.1556 0.0
H1373 H 0.97127 0.38529 0.12152 0.0
C1374 C 0.99388 0.39404 0.08954 0.0
C1375 C 0.00687 0.39992 0.07455 0.0
C1376 C 0.9943 0.40282 0.10884 0.0
C1377 C 0.02018 0.41482 0.07897 0.0
C1378 C 0.02054 0.42373 0.09785 0.0
C1379 C 0.00815 0.4266 0.13225 0.0
C1380 C 0.99557 0.42045 0.14802 0.0
C1381 C 0.0077 0.41782 0.11296 0.0
C1382 C 0.98231 0.40545 0.1437 0.0
C1383 C 0.98162 0.39681 0.12426 0.0
H1384 H 0.61296 0.62597 0.08955 0.0
H1385 H 0.63976 0.60211 0.08027 0.0
H1386 H 0.6276 0.58625 0.11439 0.0
H1387 H 0.60896 0.57875 0.14644 0.0
H1388 H 0.58308 0.60349 0.15643 0.0
H1389 H 0.59504 0.6191 0.1222 0.0
C1390 C 0.61619 0.61733 0.09498 0.0
C1391 C 0.62726 0.61525 0.08227 0.0
C1392 C 0.60919 0.60825 0.11465 0.0
C1393 C 0.63131 0.60401 0.08969 0.0
C1394 C 0.62433 0.59489 0.10919 0.0
C1395 C 0.60604 0.58766 0.14131 0.0
C1396 C 0.59499 0.58978 0.15404 0.0
C1397 C 0.61321 0.59687 0.12177 0.0
C1398 C 0.59124 0.60128 0.1468 0.0
C1399 C 0.5982 0.61036 0.1273 0.0
H1400 H 0.4202 0.03419 0.07414 0.0
H1401 H 0.38852 0.98411 0.08381 0.0
H1402 H 0.40271 0.98463 0.11827 0.0
H1403 H 0.42392 0.99915 0.14597 0.0
H1404 H 0.45596 0.0491 0.13659 0.0
H1405 H 0.44178 0.04877 0.10193 0.0
C1406 C 0.41637 0.02341 0.08381 0.0
C1407 C 0.40328 0.00915 0.07628 0.0
C1408 C 0.42466 0.02373 0.10372 0.0
C1409 C 0.39855 0.99528 0.08907 0.0
C1410 C 0.40667 0.99553 0.10884 0.0
C1411 C 0.42795 0.00994 0.13619 0.0
C1412 C 0.44103 0.02411 0.14387 0.0
C1413 C 0.41976 0.00966 0.1163 0.0
C1414 C 0.44585 0.03804 0.1312 0.0
C1415 C 0.43777 0.03785 0.11132 0.0
H1416 H 0.41033 0.02192 0.94785 0.0
H1417 H 0.38342 0.9714 0.95838 0.0
H1418 H 0.39523 0.96725 0.9242 0.0
H1419 H 0.41363 0.97801 0.89171 0.0
H1420 H 0.43968 0.02854 0.88075 0.0
H1421 H 0.42799 0.03257 0.91494 0.0
C1422 C 0.40699 0.00997 0.9427 0.0
C1423 C 0.396 0.99701 0.95576 0.0
C1424 C 0.41381 0.00766 0.92302 0.0
C1425 C 0.39182 0.98162 0.94868 0.0
C1426 C 0.3986 0.97923 0.92914 0.0
C1427 C 0.41666 0.98991 0.89665 0.0
C1428 C 0.42769 1.00294 0.88366 0.0
C1429 C 0.40966 0.99217 0.91622 0.0
C1430 C 0.43154 0.01827 0.8906 0.0
C1431 C 0.42474 0.02061 0.91008 0.0
H1432 H 0.9975 0.40622 0.9628 0.0
H1433 H 0.03194 0.39342 0.94167 0.0
H1434 H 0.03547 0.40727 0.9054 0.0
H1435 H 0.02837 0.42254 0.87956 0.0
H1436 H 0.99584 0.43755 0.90248 0.0
H1437 H 0.99173 0.423 0.93794 0.0
C1438 C 1.00574 0.40643 0.95021 0.0
C1439 C 0.01435 0.3987 0.95481 0.0
C1440 C 0.00798 0.41473 0.92966 0.0
C1441 C 0.02518 0.39928 0.93852 0.0
C1442 C 0.02718 0.40718 0.91778 0.0
C1443 C 0.02059 0.42294 0.89239 0.0
C1444 C 0.01236 0.43114 0.88801 0.0
C1445 C 0.01864 0.41495 0.91317 0.0
C1446 C 1.00209 0.4311 0.90491 0.0
C1447 C 0.99981 0.42288 0.92538 0.0
H1448 H 0.63449 0.60816 0.95466 0.0
H1449 H 0.60439 0.6284 0.96393 0.0
H1450 H 0.58897 0.61415 0.93025 0.0
H1451 H 0.58369 0.59539 0.89867 0.0
H1452 H 0.61473 0.57621 0.88909 0.0
H1453 H 0.62986 0.59035 0.92267 0.0
C1454 C 0.62458 0.60951 0.94935 0.0
C1455 C 0.6206 0.61932 0.96191 0.0
C1456 C 0.61579 0.60132 0.93002 0.0
C1457 C 0.60775 0.62096 0.9546 0.0
C1458 C 0.59889 0.61277 0.93537 0.0
C1459 C 0.59384 0.5944 0.90378 0.0
C1460 C 0.59787 0.58453 0.89138 0.0
C1461 C 0.60276 0.60284 0.92299 0.0
C1462 C 0.61102 0.58334 0.89852 0.0
C1463 C 0.61983 0.59157 0.91764 0.0
H1464 H 0.99662 0.6017 0.95505 0.0
H1465 H 0.04344 0.64215 0.94724 0.0
H1466 H 0.04724 0.63072 0.9124 0.0
H1467 H 0.0373 0.60927 0.88417 0.0
H1468 H 0.9909 0.56833 0.89284 0.0
H1469 H 0.98686 0.58004 0.92716 0.0
C1470 C 0.00763 0.60807 0.94569 0.0
C1471 C 0.01971 0.6228 0.95377 0.0
C1472 C 0.00982 0.60134 0.9258 0.0
C1473 C 0.03395 0.6308 0.94147 0.0
C1474 C 0.03614 0.62426 0.92152 0.0
C1475 C 0.02637 0.60279 0.89371 0.0
C1476 C 0.01444 0.5879 0.88586 0.0
C1477 C 0.02419 0.60951 0.9136 0.0
C1478 C 1.00023 0.57987 0.89825 0.0
C1479 C 0.99793 0.58653 0.91798 0.0
H1480 H 0.41277 0.39276 0.95061 0.0
H1481 H 0.38895 0.41882 0.96644 0.0
H1482 H 0.40108 0.43576 0.93329 0.0
H1483 H 0.41881 0.44353 0.90019 0.0
H1484 H 0.44164 0.41665 0.88339 0.0
H1485 H 0.42981 0.39999 0.91679 0.0
C1486 C 0.41019 0.40212 0.94682 0.0
C1487 C 0.39996 0.40449 0.96109 0.0
C1488 C 0.41717 0.41182 0.92765 0.0
C1489 C 0.39674 0.41666 0.95578 0.0
C1490 C 0.40371 0.42641 0.93683 0.0
C1491 C 0.4211 0.43393 0.90364 0.0
C1492 C 0.43124 0.4315 0.88924 0.0
C1493 C 0.41398 0.42413 0.92267 0.0
C1494 C 0.43419 0.4191 0.89434 0.0
C1495 C 0.4273 0.40943 0.91337 0.0
H1496 H 0.61571 0.98656 0.94287 0.0
H1497 H 0.61411 0.02604 0.9731 0.0
H1498 H 0.59845 0.02667 0.9411 0.0
H1499 H 0.58585 0.01662 0.90423 0.0
H1500 H 0.58976 0.97908 0.87146 0.0
H1501 H 0.60338 0.97679 0.90491 0.0
C1502 C 0.61183 0.99521 0.94244 0.0
C1503 C 0.61608 0.00625 0.96027 0.0
C1504 C 0.60316 0.99582 0.92357 0.0
C1505 C 0.6111 0.01749 0.95946 0.0
C1506 C 0.6021 0.01785 0.9412 0.0
C1507 C 0.58982 0.00805 0.90414 0.0
C1508 C 0.58673 0.99811 0.88511 0.0
C1509 C 0.59823 0.0072 0.92304 0.0
C1510 C 0.59166 0.98678 0.88587 0.0
C1511 C 0.59963 0.98554 0.90497 0.0
H1512 H 0.61645 0.99121 0.09016 0.0
H1513 H 0.63086 0.03907 0.07003 0.0
H1514 H 0.61716 0.04193 0.10293 0.0
H1515 H 0.60042 0.03059 0.13656 0.0
H1516 H 0.58845 0.98371 0.15915 0.0
H1517 H 0.60138 0.9806 0.12575 0.0
C1518 C 0.61664 1.00228 0.09306 0.0
C1519 C 0.62461 0.01488 0.07764 0.0
C1520 C 0.60895 1.00396 0.11225 0.0
C1521 C 0.62488 0.02921 0.08171 0.0
C1522 C 0.61697 0.03083 0.10046 0.0
C1523 C 0.60081 0.01976 0.13457 0.0
C1524 C 0.59319 0.00738 0.15053 0.0
C1525 C 0.6089 0.01825 0.11578 0.0
C1526 C 0.59371 0.99335 0.14702 0.0
C1527 C 0.60132 0.99159 0.12799 0.0
H1528 H 0.98671 0.60752 0.08361 0.0
H1529 H 0.03416 0.61808 0.06742 0.0
H1530 H 0.03428 0.60302 0.10047 0.0
H1531 H 0.02115 0.587 0.13413 0.0
H1532 H 0.97445 0.57793 0.15223 0.0
H1533 H 0.97372 0.59184 0.11811 0.0
C1534 C 0.99705 0.60648 0.0873 0.0
C1535 C 0.01039 0.61396 0.07302 0.0
C1536 C 0.99717 0.59794 0.10664 0.0
C1537 C 0.02373 0.61255 0.07815 0.0
C1538 C 0.02382 0.60389 0.09705 0.0
C1539 C 0.01085 0.58817 0.13083 0.0
C1540 C 0.99788 0.5813 0.14588 0.0
C1541 C 0.01065 0.5966 0.11149 0.0
C1542 C 0.98453 0.58276 0.14086 0.0
C1543 C 0.98414 0.59088 0.1214 0.0
H1544 H 0.39614 0.41027 0.08865 0.0
H1545 H 0.42044 0.38409 0.07733 0.0
H1546 H 0.43681 0.39633 0.11102 0.0
H1547 H 0.44455 0.41475 0.14336 0.0
H1548 H 0.41961 0.44022 0.15536 0.0
H1549 H 0.40349 0.42824 0.12145 0.0
C1550 C 0.40498 0.40718 0.09355 0.0
C1551 C 0.407 0.39624 0.08038 0.0
C1552 C 0.41439 0.41427 0.11296 0.0
C1553 C 0.41855 0.39243 0.08709 0.0
C1554 C 0.42797 0.39946 0.10636 0.0
C1555 C 0.4355 0.41759 0.13873 0.0
C1556 C 0.43341 0.42847 0.15199 0.0
C1557 C 0.42603 0.41043 0.11938 0.0
C1558 C 0.42175 0.43215 0.14535 0.0
C1559 C 0.41239 0.42518 0.12604 0.0
H1560 H 0.6589 0.72285 0.41769 0.0
H1561 H 0.70689 0.75669 0.39842 0.0
H1562 H 0.70958 0.77271 0.43171 0.0
H1563 H 0.69857 0.77728 0.46632 0.0
H1564 H 0.65115 0.74304 0.48725 0.0
H1565 H 0.64792 0.72733 0.45312 0.0
C1566 C 0.66994 0.73373 0.42077 0.0
C1567 C 0.68266 0.73848 0.4055 0.0
C1568 C 0.67151 0.74294 0.44021 0.0
C1569 C 0.69689 0.75263 0.40985 0.0
C1570 C 0.69846 0.76187 0.42891 0.0
C1571 C 0.68756 0.7663 0.46363 0.0
C1572 C 0.67516 0.76142 0.47949 0.0
C1573 C 0.68589 0.75712 0.44424 0.0
C1574 C 0.66086 0.74729 0.47526 0.0
C1575 C 0.65904 0.73819 0.4558 0.0
H1576 H 0.28226 0.95839 0.42293 0.0
H1577 H 0.30546 0.93157 0.40833 0.0
H1578 H 0.2933 0.91521 0.44206 0.0
H1579 H 0.27551 0.90804 0.47513 0.0
H1580 H 0.25335 0.93576 0.49049 0.0
H1581 H 0.26541 0.95195 0.45678 0.0
C1582 C 0.28471 0.949 0.42712 0.0
C1583 C 0.29474 0.94622 0.41301 0.0
C1584 C 0.27772 0.93964 0.44657 0.0
C1585 C 0.29782 0.93403 0.41886 0.0
C1586 C 0.29083 0.92461 0.43813 0.0
C1587 C 0.27343 0.91772 0.4713 0.0
C1588 C 0.26335 0.92049 0.48537 0.0
C1589 C 0.28069 0.92726 0.45205 0.0
C1590 C 0.26071 0.93302 0.4798 0.0
C1591 C 0.26774 0.94243 0.46059 0.0
H1592 H 0.0614 0.32505 0.42096 0.0
H1593 H 0.08601 0.37579 0.41267 0.0
H1594 H 0.10226 0.37884 0.44616 0.0
H1595 H 0.10991 0.36706 0.47733 0.0
H1596 H 0.0845 0.31632 0.48615 0.0
H1597 H 0.06843 0.31337 0.45268 0.0
C1598 C 0.07028 0.3368 0.42647 0.0
C1599 C 0.07245 0.35016 0.4142 0.0
C1600 C 0.0796 0.33848 0.44574 0.0
C1601 C 0.08402 0.36528 0.42174 0.0
C1602 C 0.09337 0.36704 0.44089 0.0
C1603 C 0.10077 0.35535 0.4721 0.0
C1604 C 0.0986 0.34194 0.48427 0.0
C1605 C 0.09131 0.35372 0.45297 0.0
C1606 C 0.08677 0.32687 0.47693 0.0
C1607 C 0.07743 0.32516 0.45786 0.0
H1608 H 0.08701 0.36068 0.295 0.0
H1609 H 0.04656 0.31381 0.28777 0.0
H1610 H 0.05758 0.30997 0.25252 0.0
H1611 H 0.0784 0.32018 0.22323 0.0
H1612 H 0.11936 0.36664 0.2315 0.0
H1613 H 0.10834 0.3704 0.26671 0.0
C1614 C 0.08058 0.34963 0.2857 0.0
C1615 C 0.06593 0.33759 0.29398 0.0
C1616 C 0.08705 0.34743 0.26557 0.0
C1617 C 0.05785 0.32328 0.28182 0.0
C1618 C 0.06414 0.32108 0.26163 0.0
C1619 C 0.08505 0.33104 0.23288 0.0
C1620 C 0.09966 0.34315 0.22454 0.0
C1621 C 0.07872 0.33308 0.25332 0.0
C1622 C 0.10796 0.35723 0.23721 0.0
C1623 C 0.10171 0.35937 0.25745 0.0
H1624 H 0.706 0.75068 0.28386 0.0
H1625 H 0.65518 0.72128 0.28071 0.0
H1626 H 0.65458 0.73461 0.24577 0.0
H1627 H 0.66842 0.75457 0.21609 0.0
H1628 H 0.7191 0.78493 0.22023 0.0
H1629 H 0.7198 0.77114 0.25459 0.0
C1630 C 0.6948 0.74713 0.27547 0.0
C1631 C 0.68067 0.73495 0.28489 0.0
C1632 C 0.6945 0.75502 0.25553 0.0
C1633 C 0.66624 0.73062 0.27388 0.0
C1634 C 0.66588 0.73825 0.25388 0.0
C1635 C 0.67961 0.75835 0.22465 0.0
C1636 C 0.69368 0.77081 0.21546 0.0
C1637 C 0.67992 0.75051 0.24461 0.0
C1638 C 0.70809 0.77527 0.22664 0.0
C1639 C 0.70851 0.76743 0.2464 0.0
H1640 H 0.28709 0.93133 0.29475 0.0
H1641 H 0.28118 0.97209 0.28745 0.0
H1642 H 0.26539 0.96067 0.25297 0.0
H1643 H 0.25375 0.9394 0.22448 0.0
H1644 H 0.25837 0.89793 0.2331 0.0
H1645 H 0.27434 0.90947 0.26729 0.0
C1646 C 0.28238 0.93774 0.28559 0.0
C1647 C 0.28541 0.9526 0.29361 0.0
C1648 C 0.27311 0.93101 0.26596 0.0
C1649 C 0.27904 0.96064 0.28167 0.0
C1650 C 0.27001 0.95412 0.26193 0.0
C1651 C 0.258 0.93272 0.234 0.0
C1652 C 0.25487 0.9178 0.22602 0.0
C1653 C 0.26698 0.93931 0.25391 0.0
C1654 C 0.26079 0.90954 0.23849 0.0
C1655 C 0.26986 0.91609 0.25817 0.0
H1656 H 0.66063 0.93911 0.28088 0.0
H1657 H 0.71088 0.96633 0.29381 0.0
H1658 H 0.71598 0.95528 0.25965 0.0
H1659 H 0.70621 0.93765 0.22645 0.0
H1660 H 0.65604 0.91149 0.21239 0.0
H1661 H 0.65091 0.92205 0.24697 0.0
C1662 C 0.67271 0.94266 0.27624 0.0
C1663 C 0.68534 0.95354 0.28997 0.0
C1664 C 0.67558 0.93631 0.25648 0.0
C1665 C 0.70091 0.95802 0.28358 0.0
C1666 C 0.70385 0.95167 0.26406 0.0
C1667 C 0.69415 0.93437 0.23074 0.0
C1668 C 0.68156 0.9237 0.21671 0.0
C1669 C 0.69128 0.94079 0.2504 0.0
C1670 C 0.66599 0.91941 0.22296 0.0
C1671 C 0.66303 0.92558 0.24267 0.0
H1672 H 0.08355 0.72983 0.29184 0.0
H1673 H 0.04132 0.73283 0.28128 0.0
H1674 H 0.05281 0.74845 0.24674 0.0
H1675 H 0.07485 0.76134 0.21965 0.0
H1676 H 0.11739 0.75906 0.23091 0.0
H1677 H 0.10566 0.7429 0.26492 0.0
C1678 C 0.0768 0.73383 0.28196 0.0
C1679 C 0.06156 0.73011 0.2892 0.0
C1680 C 0.08353 0.74293 0.26222 0.0
C1681 C 0.05306 0.73549 0.27617 0.0
C1682 C 0.05963 0.74445 0.25641 0.0
C1683 C 0.08165 0.75748 0.22967 0.0
C1684 C 0.09703 0.76148 0.2227 0.0
C1685 C 0.07489 0.74831 0.24935 0.0
C1686 C 0.10549 0.75605 0.23569 0.0
C1687 C 0.09882 0.74686 0.25523 0.0
H1688 H 0.2852 0.32735 0.27888 0.0
H1689 H 0.289 0.36897 0.3108 0.0
H1690 H 0.27414 0.37187 0.27955 0.0
H1691 H 0.26014 0.36275 0.24326 0.0
H1692 H 0.25837 0.32262 0.20925 0.0
H1693 H 0.27185 0.31873 0.2415 0.0
C1694 C 0.28275 0.33703 0.27898 0.0
C1695 C 0.28823 0.34792 0.29716 0.0
C1696 C 0.2744 0.33883 0.26068 0.0
C1697 C 0.28503 0.36047 0.29696 0.0
C1698 C 0.27647 0.36212 0.27913 0.0
C1699 C 0.26285 0.35326 0.24263 0.0
C1700 C 0.25813 0.34302 0.22365 0.0
C1701 C 0.27116 0.35142 0.26085 0.0
C1702 C 0.26149 0.33055 0.22369 0.0
C1703 C 0.26939 0.32839 0.24207 0.0
H1704 H 0.26821 0.32669 0.40351 0.0
H1705 H 0.31268 0.36161 0.43286 0.0
H1706 H 0.29935 0.36042 0.46885 0.0
H1707 H 0.27515 0.34884 0.49215 0.0
H1708 H 0.23042 0.31551 0.46129 0.0
H1709 H 0.24386 0.31654 0.42584 0.0
C1710 C 0.275 0.33402 0.4178 0.0
C1711 C 0.29143 0.34411 0.41562 0.0
C1712 C 0.26723 0.3335 0.4382 0.0
C1713 C 0.30002 0.35374 0.43414 0.0
C1714 C 0.29241 0.35304 0.45471 0.0
C1715 C 0.26825 0.34199 0.47761 0.0
C1716 C 0.25174 0.33196 0.47968 0.0
C1717 C 0.27601 0.34292 0.45695 0.0
C1718 C 0.24315 0.32303 0.46057 0.0
C1719 C 0.25081 0.3237 0.44014 0.0
H1720 H 0.64824 0.9357 0.4168 0.0
H1721 H 0.69766 0.95092 0.40696 0.0
H1722 H 0.69746 0.93631 0.44076 0.0
H1723 H 0.68352 0.91948 0.47328 0.0
H1724 H 0.63465 0.90571 0.48526 0.0
H1725 H 0.6343 0.91906 0.45021 0.0
C1726 C 0.65894 0.93577 0.42204 0.0
C1727 C 0.67294 0.94444 0.40934 0.0
C1728 C 0.65884 0.9275 0.44182 0.0
C1729 C 0.68673 0.94446 0.41645 0.0
C1730 C 0.68664 0.93606 0.43578 0.0
C1731 C 0.67281 0.91952 0.46847 0.0
C1732 C 0.65916 0.91157 0.4821 0.0
C1733 C 0.6728 0.92763 0.44867 0.0
C1734 C 0.6453 0.91148 0.47505 0.0
C1735 C 0.64512 0.91926 0.45507 0.0
H1736 H 0.08469 0.72555 0.41117 0.0
H1737 H 0.04844 0.7386 0.41379 0.0
H1738 H 0.06102 0.75508 0.44705 0.0
H1739 H 0.08228 0.76605 0.47527 0.0
H1740 H 0.11906 0.75384 0.47279 0.0
H1741 H 0.10622 0.73668 0.43986 0.0
C1742 C 0.07951 0.73193 0.41909 0.0
C1743 C 0.06563 0.73082 0.40987 0.0
C1744 C 0.0869 0.74158 0.43826 0.0
C1745 C 0.05913 0.73925 0.42037 0.0
C1746 C 0.06631 0.74871 0.43944 0.0
C1747 C 0.08763 0.75981 0.46737 0.0
C1748 C 0.10169 0.76135 0.47642 0.0
C1749 C 0.08024 0.75006 0.44842 0.0
C1750 C 0.1082 0.75282 0.46628 0.0
C1751 C 0.10088 0.74304 0.44738 0.0
H1752 H 0.32 0.04962 0.75545 0.0
H1753 H 0.36782 0.08534 0.73851 0.0
H1754 H 0.36872 0.10088 0.77154 0.0
H1755 H 0.35607 0.10453 0.80516 0.0
H1756 H 0.30878 0.06835 0.82354 0.0
H1757 H 0.30745 0.0531 0.78978 0.0
C1758 C 0.33062 0.06079 0.75899 0.0
C1759 C 0.34382 0.06623 0.74445 0.0
C1760 C 0.33114 0.06972 0.77819 0.0
C1761 C 0.35749 0.08077 0.74938 0.0
C1762 C 0.35802 0.08973 0.76827 0.0
C1763 C 0.34551 0.09324 0.80198 0.0
C1764 C 0.33256 0.08768 0.817 0.0
C1765 C 0.34494 0.08432 0.78281 0.0
C1766 C 0.31887 0.07313 0.81217 0.0
C1767 C 0.31814 0.06429 0.79293 0.0
H1768 H 0.97033 0.27379 0.75387 0.0
H1769 H 0.93652 0.28929 0.74183 0.0
H1770 H 0.92171 0.27499 0.77558 0.0
H1771 H 0.91808 0.25786 0.80828 0.0
H1772 H 0.95246 0.24328 0.82149 0.0
H1773 H 0.96703 0.25711 0.78728 0.0
C1774 C 0.95974 0.27407 0.75864 0.0
C1775 C 0.95459 0.28263 0.74525 0.0
C1776 C 0.95125 0.26584 0.77819 0.0
C1777 C 0.94083 0.28286 0.75178 0.0
C1778 C 0.9323 0.27464 0.77108 0.0
C1779 C 0.92885 0.25782 0.80387 0.0
C1780 C 0.93407 0.24944 0.81754 0.0
C1781 C 0.93738 0.26608 0.78441 0.0
C1782 C 0.94793 0.24934 0.81117 0.0
C1783 C 0.95638 0.25739 0.79168 0.0
H1784 H 0.75208 0.69879 0.74452 0.0
H1785 H 0.71689 0.64918 0.7475 0.0
H1786 H 0.72958 0.64594 0.78127 0.0
H1787 H 0.75072 0.6569 0.80962 0.0
H1788 H 0.7869 0.70611 0.80614 0.0
H1789 H 0.77365 0.70982 0.77319 0.0
C1790 C 0.74714 0.68731 0.75268 0.0
C1791 C 0.73355 0.67425 0.74344 0.0
C1792 C 0.75468 0.68543 0.77199 0.0
C1793 C 0.72738 0.65942 0.75413 0.0
C1794 C 0.73462 0.65754 0.77348 0.0
C1795 C 0.75589 0.66841 0.8015 0.0
C1796 C 0.76989 0.68116 0.81032 0.0
C1797 C 0.74835 0.6704 0.78241 0.0
C1798 C 0.77609 0.69609 0.79987 0.0
C1799 C 0.76855 0.69821 0.78094 0.0
H1800 H 0.72863 0.65417 0.62053 0.0
H1801 H 0.74307 0.7038 0.61795 0.0
H1802 H 0.75839 0.70701 0.58358 0.0
H1803 H 0.76808 0.69602 0.55463 0.0
H1804 H 0.75505 0.64679 0.5577 0.0
H1805 H 0.73864 0.6431 0.59122 0.0
C1806 C 0.73504 0.66565 0.61233 0.0
C1807 C 0.7347 0.67872 0.62184 0.0
C1808 C 0.74412 0.66751 0.59266 0.0
C1809 C 0.74318 0.69355 0.6111 0.0
C1810 C 0.75196 0.69541 0.59141 0.0
C1811 C 0.76185 0.68451 0.56277 0.0
C1812 C 0.76295 0.67175 0.55367 0.0
C1813 C 0.75264 0.68253 0.58219 0.0
C1814 C 0.75437 0.65682 0.56417 0.0
C1815 C 0.74503 0.65471 0.58343 0.0
H1816 H 0.36573 0.08104 0.62315 0.0
H1817 H 0.31625 0.04543 0.62002 0.0
H1818 H 0.31287 0.05788 0.58609 0.0
H1819 H 0.32365 0.07902 0.55776 0.0
H1820 H 0.37275 0.1155 0.56127 0.0
H1821 H 0.37661 0.10247 0.59436 0.0
C1822 C 0.35425 0.07595 0.61491 0.0
C1823 C 0.34127 0.06232 0.62415 0.0
C1824 C 0.35229 0.08334 0.59551 0.0
C1825 C 0.32644 0.05594 0.61336 0.0
C1826 C 0.32447 0.06306 0.59394 0.0
C1827 C 0.33517 0.08428 0.56591 0.0
C1828 C 0.34784 0.09831 0.5571 0.0
C1829 C 0.33725 0.07684 0.58503 0.0
C1830 C 0.36279 0.10466 0.56758 0.0
C1831 C 0.36499 0.09725 0.58657 0.0
H1832 H 0.94949 0.26128 0.63563 0.0
H1833 H 0.95456 0.30498 0.60984 0.0
H1834 H 0.94066 0.29152 0.57474 0.0
H1835 H 0.92798 0.26751 0.55092 0.0
H1836 H 0.92139 0.2235 0.57832 0.0
H1837 H 0.93516 0.237 0.61313 0.0
C1838 C 0.94758 0.26787 0.62231 0.0
C1839 C 0.95319 0.28413 0.62521 0.0
C1840 C 0.93937 0.26003 0.60243 0.0
C1841 C 0.95037 0.29246 0.60799 0.0
C1842 C 0.94245 0.28477 0.58792 0.0
C1843 C 0.92928 0.26077 0.56462 0.0
C1844 C 0.92378 0.24449 0.56171 0.0
C1845 C 0.93697 0.26856 0.5849 0.0
C1846 C 0.92581 0.23609 0.57971 0.0
C1847 C 0.9336 0.24378 0.59975 0.0
H1848 H 0.33264 0.27742 0.61296 0.0
H1849 H 0.38345 0.30681 0.61691 0.0
H1850 H 0.38631 0.29442 0.58246 0.0
H1851 H 0.37448 0.27463 0.55194 0.0
H1852 H 0.3236 0.24621 0.54693 0.0
H1853 H 0.32077 0.25858 0.58132 0.0
C1854 C 0.34435 0.28117 0.60626 0.0
C1855 C 0.3578 0.29301 0.61761 0.0
C1856 C 0.34594 0.27403 0.58637 0.0
C1857 C 0.37287 0.29776 0.60855 0.0
C1858 C 0.37453 0.29063 0.58887 0.0
C1859 C 0.36275 0.27125 0.55814 0.0
C1860 C 0.3493 0.25933 0.54682 0.0
C1861 C 0.36116 0.27867 0.57772 0.0
C1862 C 0.33422 0.25503 0.55547 0.0
C1863 C 0.33256 0.26223 0.57507 0.0
H1864 H 0.719 0.07317 0.61529 0.0
H1865 H 0.75311 0.05824 0.62869 0.0
H1866 H 0.76853 0.07312 0.59567 0.0
H1867 H 0.77263 0.09062 0.5633 0.0
H1868 H 0.73785 0.10444 0.54848 0.0
H1869 H 0.72273 0.09012 0.58204 0.0
C1870 C 0.72979 0.07313 0.61097 0.0
C1871 C 0.73484 0.06457 0.62453 0.0
C1872 C 0.73863 0.08168 0.59182 0.0
C1873 C 0.74886 0.06466 0.61858 0.0
C1874 C 0.75775 0.07322 0.59971 0.0
C1875 C 0.76166 0.09039 0.56719 0.0
C1876 C 0.7565 0.09872 0.55326 0.0
C1877 C 0.75276 0.08179 0.58623 0.0
C1878 C 0.74236 0.09845 0.55902 0.0
C1879 C 0.73358 0.09011 0.57813 0.0
H1880 H 0.95047 0.68883 0.62508 0.0
H1881 H 0.94554 0.64255 0.61823 0.0
H1882 H 0.92985 0.63788 0.5835 0.0
H1883 H 0.91825 0.64735 0.55437 0.0
H1884 H 0.92244 0.69327 0.56247 0.0
H1885 H 0.93779 0.69768 0.59728 0.0
C1886 C 0.94599 0.67771 0.616 0.0
C1887 C 0.9493 0.66611 0.6242 0.0
C1888 C 0.93687 0.67506 0.59619 0.0
C1889 C 0.9432 0.6517 0.61233 0.0
C1890 C 0.93424 0.64903 0.59243 0.0
C1891 C 0.92232 0.65823 0.56391 0.0
C1892 C 0.91929 0.67002 0.55558 0.0
C1893 C 0.93105 0.66066 0.58414 0.0
C1894 C 0.92484 0.68411 0.56814 0.0
C1895 C 0.93356 0.68662 0.58815 0.0
H1896 H 0.95656 0.6992 0.73681 0.0
H1897 H 0.95988 0.65887 0.75938 0.0
H1898 H 0.9479 0.65902 0.79586 0.0
H1899 H 0.93623 0.6703 0.82112 0.0
H1900 H 0.93049 0.70908 0.79748 0.0
H1901 H 0.94394 0.71003 0.76195 0.0
C1902 C 0.95476 0.69054 0.74982 0.0
C1903 C 0.95916 0.67908 0.74545 0.0
C1904 C 0.94744 0.69041 0.77058 0.0
C1905 C 0.95656 0.66779 0.76231 0.0
C1906 C 0.94971 0.66786 0.78318 0.0
C1907 C 0.93764 0.67882 0.80812 0.0
C1908 C 0.93225 0.68957 0.81216 0.0
C1909 C 0.94497 0.67902 0.78742 0.0
C1910 C 0.93467 0.70078 0.79516 0.0
C1911 C 0.94229 0.70127 0.77469 0.0
H1912 H 0.3323 0.28102 0.75232 0.0
H1913 H 0.37628 0.28725 0.72568 0.0
H1914 H 0.37826 0.27231 0.75757 0.0
H1915 H 0.36787 0.25783 0.79315 0.0
H1916 H 0.32529 0.25365 0.82222 0.0
H1917 H 0.32217 0.26691 0.78899 0.0
C1918 C 0.34227 0.27905 0.7535 0.0
C1919 C 0.35413 0.28529 0.73665 0.0
C1920 C 0.34355 0.27068 0.77224 0.0
C1921 C 0.36704 0.28271 0.73849 0.0
C1922 C 0.36817 0.27411 0.7567 0.0
C1923 C 0.35799 0.25996 0.7925 0.0
C1924 C 0.34689 0.2547 0.81041 0.0
C1925 C 0.35658 0.26815 0.77376 0.0
C1926 C 0.33394 0.25726 0.80867 0.0
C1927 C 0.33221 0.26503 0.78971 0.0
H1928 H 0.73298 0.0842 0.73752 0.0
H1929 H 0.7401 0.0454 0.75604 0.0
H1930 H 0.75453 0.05972 0.79031 0.0
H1931 H 0.76469 0.08311 0.81536 0.0
H1932 H 0.75836 0.12223 0.79558 0.0
H1933 H 0.74394 0.10784 0.76157 0.0
C1934 C 0.73763 0.07882 0.74906 0.0
C1935 C 0.73535 0.06368 0.74424 0.0
C1936 C 0.74605 0.08717 0.76855 0.0
C1937 C 0.74165 0.05701 0.75931 0.0
C1938 C 0.74991 0.0652 0.77892 0.0
C1939 C 0.76036 0.0886 0.80347 0.0
C1940 C 0.76256 0.10374 0.80821 0.0
C1941 C 0.75217 0.0803 0.78373 0.0
C1942 C 0.75663 0.11051 0.79267 0.0
C1943 C 0.74844 0.10231 0.77312 0.0
H1944 H 0.06899 0.38031 0.02577 0.0
H1945 H 0.02608 0.34222 0.05439 0.0
H1946 H 0.04135 0.33203 0.07381 0.0
H1947 H 0.06696 0.33524 0.08511 0.0
H1948 H 0.1098 0.37223 0.05432 0.0
H1949 H 0.09444 0.38168 0.03368 0.0
C1950 C 0.06296 0.36968 0.03607 0.0
C1951 C 0.04643 0.36211 0.03878 0.0
C1952 C 0.07181 0.36382 0.04707 0.0
C1953 C 0.03879 0.34826 0.05199 0.0
C1954 C 0.04752 0.34248 0.0632 0.0
C1955 C 0.07301 0.34513 0.07349 0.0
C1956 C 0.08966 0.35308 0.07168 0.0
C1957 C 0.06407 0.35032 0.06118 0.0
C1958 C 0.0971 0.36607 0.05669 0.0
C1959 C 0.0883 0.37144 0.04467 0.0
H1960 H 0.63225 0.6907 0.03886 0.0
H1961 H 0.67887 0.69595 0.04075 0.0
H1962 H 0.6897 0.72262 0.05625 0.0
H1963 H 0.68561 0.74362 0.07187 0.0
H1964 H 0.63911 0.73865 0.06935 0.0
H1965 H 0.62857 0.71262 0.05175 0.0
C1966 C 0.64482 0.69772 0.04244 0.0
C1967 C 0.6547 0.69126 0.03875 0.0
C1968 C 0.65097 0.71304 0.05149 0.0
C1969 C 0.67097 0.70059 0.04342 0.0
C1970 C 0.67717 0.71584 0.05238 0.0
C1971 C 0.67323 0.73704 0.06706 0.0
C1972 C 0.66319 0.74315 0.07212 0.0
C1973 C 0.66724 0.72209 0.05682 0.0
C1974 C 0.6471 0.7342 0.06606 0.0
C1975 C 0.64106 0.71932 0.05587 0.0
H1976 H 0.32923 0.94461 0.04794 0.0
H1977 H 0.31849 0.98014 0.02462 0.0
H1978 H 0.29175 0.96483 0.04029 0.0
H1979 H 0.27198 0.94208 0.06241 0.0
H1980 H 0.28399 0.908 0.08867 0.0
H1981 H 0.30941 0.92176 0.06943 0.0
C1982 C 0.321 0.94894 0.04604 0.0
C1983 C 0.32587 0.96351 0.03512 0.0
C1984 C 0.3058 0.94029 0.05557 0.0
C1985 C 0.31506 0.96898 0.03298 0.0
C1986 C 0.29977 0.96023 0.04196 0.0
C1987 C 0.28014 0.93766 0.06408 0.0
C1988 C 0.27589 0.92393 0.07713 0.0
C1989 C 0.2951 0.946 0.05365 0.0
C1990 C 0.28663 0.9183 0.0785 0.0
C1991 C 0.30133 0.92628 0.06768 0.0
H1992 H 0.39299 0.06589 0.98286 0.0
H1993 H 0.34795 0.03348 0.01324 0.0
H1994 H 0.33705 0.04983 0.99973 0.0
H1995 H 0.34002 0.07267 0.97785 0.0
H1996 H 0.38447 0.10339 0.94424 0.0
H1997 H 0.39595 0.08868 0.9611 0.0
C1998 C 0.38083 0.06248 0.98675 0.0
C1999 C 0.37131 0.04849 0.99909 0.0
C2000 C 0.37453 0.0717 0.97842 0.0
C2001 C 0.35553 0.04417 0.00375 0.0
C2002 C 0.34929 0.05352 0.99601 0.0
C2003 C 0.35219 0.07614 0.974 0.0
C2004 C 0.36126 0.08926 0.95967 0.0
C2005 C 0.35862 0.06719 0.98303 0.0
C2006 C 0.37716 0.09364 0.9555 0.0
C2007 C 0.38374 0.08508 0.96495 0.0
H2008 H 0.97485 0.31606 0.01003 0.0
H2009 H 0.94597 0.33434 0.98308 0.0
H2010 H 0.92854 0.30898 0.96489 0.0
H2011 H 0.92274 0.28243 0.95403 0.0
H2012 H 0.95015 0.26314 0.98342 0.0
H2013 H 0.96694 0.2881 0.00291 0.0
C2014 C 0.96464 0.31442 1.00037 0.0
C2015 C 0.96181 0.32714 0.99778 0.0
C2016 C 0.95449 0.29968 0.99011 0.0
C2017 C 0.94844 0.32477 0.98539 0.0
C2018 C 0.93848 0.31027 0.97488 0.0
C2019 C 0.93209 0.28342 0.96512 0.0
C2020 C 0.93521 0.27082 0.96676 0.0
C2021 C 0.94153 0.29772 0.9768 0.0
C2022 C 0.94764 0.27267 0.98112 0.0
C2023 C 0.95724 0.28696 0.99249 0.0
H2024 H 0.70394 0.66705 0.99166 0.0
H2025 H 0.69343 0.62036 0.01247 0.0
H2026 H 0.71818 0.62478 0.99577 0.0
H2027 H 0.74162 0.64088 0.97241 0.0
H2028 H 0.75159 0.68698 0.94946 0.0
H2029 H 0.72857 0.68399 0.97027 0.0
C2030 C 0.7072 0.65796 0.99286 0.0
C2031 C 0.69677 0.64335 0.00318 0.0
C2032 C 0.72137 0.66045 0.98274 0.0
C2033 C 0.70116 0.63167 0.00449 0.0
C2034 C 0.71532 0.63417 0.99491 0.0
C2035 C 0.7388 0.65031 0.97199 0.0
C2036 C 0.74828 0.66407 0.95917 0.0
C2037 C 0.72531 0.64834 0.98349 0.0
C2038 C 0.74461 0.6763 0.95929 0.0
C2039 C 0.73134 0.67454 0.97104 0.0
H2040 H 0.95365 0.62756 0.98225 0.0
H2041 H 0.98698 0.67252 0.01207 0.0
H2042 H 0.97152 0.68413 0.99746 0.0
H2043 H 0.94918 0.68176 0.97482 0.0
H2044 H 0.91761 0.63731 0.94172 0.0
H2045 H 0.93143 0.62523 0.95962 0.0
C2046 C 0.95745 0.63986 0.98579 0.0
C2047 C 0.97143 0.64915 0.99831 0.0
C2048 C 0.94876 0.64657 0.97679 0.0
C2049 C 0.97628 0.66511 0.00247 0.0
C2050 C 0.96744 0.67176 0.9941 0.0
C2051 C 0.94534 0.66946 0.97129 0.0
C2052 C 0.93222 0.66057 0.95682 0.0
C2053 C 0.95378 0.66266 0.98093 0.0
C2054 C 0.92736 0.64451 0.95307 0.0
C2055 C 0.93541 0.63757 0.96312 0.0
H2056 H 0.35634 0.32138 0.98547 0.0
H2057 H 0.40062 0.32976 0.01413 0.0
H2058 H 0.39597 0.30442 0.99926 0.0
H2059 H 0.38042 0.28092 0.97573 0.0
H2060 H 0.3374 0.27369 0.94373 0.0
H2061 H 0.34019 0.29713 0.96284 0.0
C2062 C 0.36483 0.31752 0.98874 0.0
C2063 C 0.37882 0.32745 1.00085 0.0
C2064 C 0.36231 0.3031 0.97951 0.0
C2065 C 0.3898 0.32237 0.00476 0.0
C2066 C 0.38715 0.30788 0.99625 0.0
C2067 C 0.37165 0.28445 0.97281 0.0
C2068 C 0.35879 0.27549 0.95805 0.0
C2069 C 0.37364 0.29833 0.98314 0.0
C2070 C 0.34735 0.28013 0.95513 0.0
C2071 C 0.34902 0.29369 0.96589 0.0
H2072 H 0.7045 0.04461 0.99761 0.0
H2073 H 0.68469 0.07539 0.99237 0.0
H2074 H 0.70883 0.09568 0.97456 0.0
H2075 H 0.73457 0.104 0.95788 0.0
H2076 H 0.75562 0.07438 0.96448 0.0
H2077 H 0.7319 0.0543 0.98396 0.0
C2078 C 0.70555 0.05582 0.99277 0.0
C2079 C 0.6927 0.05837 0.99621 0.0
C2080 C 0.71961 0.06761 0.98252 0.0
C2081 C 0.69432 0.07302 0.98993 0.0
C2082 C 0.70813 0.08467 0.97965 0.0
C2083 C 0.73429 0.09339 0.96407 0.0
C2084 C 0.747 0.09082 0.95951 0.0
C2085 C 0.72075 0.08201 0.97556 0.0
C2086 C 0.74599 0.07667 0.96728 0.0
C2087 C 0.73242 0.06518 0.97858 0.0
H2088 H 0.67185 0.98021 0.0387 0.0
H2089 H 0.62408 0.94217 0.02762 0.0
H2090 H 0.63114 0.92315 0.0425 0.0
H2091 H 0.65039 0.91748 0.06097 0.0
H2092 H 0.69775 0.95581 0.07403 0.0
H2093 H 0.69142 0.97434 0.05566 0.0
C2094 C 0.66303 0.96773 0.03925 0.0
C2095 C 0.64744 0.96267 0.03212 0.0
C2096 C 0.66709 0.95684 0.04824 0.0
C2097 C 0.63616 0.94644 0.03307 0.0
C2098 C 0.64017 0.93553 0.04163 0.0
C2099 C 0.65935 0.92988 0.05982 0.0
C2100 C 0.67454 0.93513 0.06895 0.0
C2101 C 0.65552 0.94063 0.04969 0.0
C2102 C 0.68603 0.95127 0.06688 0.0
C2103 C 0.68238 0.96196 0.05655 0.0
H2104 H 0.04445 0.70153 0.02971 0.0
H2105 H 0.0759 0.68417 0.04804 0.0
H2106 H 0.09357 0.7091 0.06703 0.0
H2107 H 0.09914 0.73496 0.08087 0.0
H2108 H 0.06892 0.75342 0.0605 0.0
H2109 H 0.0517 0.72889 0.0402 0.0
C2110 C 0.05524 0.70328 0.03769 0.0
C2111 C 0.05876 0.69094 0.03758 0.0
C2112 C 0.06552 0.71778 0.04846 0.0
C2113 C 0.07288 0.69345 0.04783 0.0
C2114 C 0.08299 0.7077 0.05879 0.0
C2115 C 0.08904 0.73389 0.07157 0.0
C2116 C 0.08534 0.74611 0.07261 0.0
C2117 C 0.07932 0.71986 0.0595 0.0
C2118 C 0.07195 0.74416 0.06061 0.0
C2119 C 0.0621 0.73013 0.04881 0.0
H2120 H 0.32352 0.35241 0.05209 0.0
H2121 H 0.3336 0.39757 0.02476 0.0
H2122 H 0.30811 0.39321 0.03834 0.0
H2123 H 0.28408 0.37776 0.06077 0.0
H2124 H 0.27499 0.33376 0.09144 0.0
H2125 H 0.29856 0.33621 0.07317 0.0
C2126 C 0.31999 0.36116 0.04881 0.0
C2127 C 0.33046 0.37532 0.03753 0.0
C2128 C 0.30546 0.35879 0.0573 0.0
C2129 C 0.32581 0.38662 0.03355 0.0
C2130 C 0.31123 0.38414 0.04132 0.0
C2131 C 0.28722 0.36868 0.06352 0.0
C2132 C 0.27777 0.35568 0.07773 0.0
C2133 C 0.30115 0.37047 0.05372 0.0
C2134 C 0.28187 0.34384 0.08047 0.0
C2135 C 0.29549 0.34531 0.0702 0.0
H2136 H 0.7106 0.68596 0.37267 0.0
H2137 H 0.74742 0.73107 0.34766 0.0
H2138 H 0.76753 0.72614 0.36402 0.0
H2139 H 0.77464 0.71031 0.38856 0.0
H2140 H 0.73798 0.66576 0.41524 0.0
H2141 H 0.71795 0.66899 0.39471 0.0
C2142 C 0.72303 0.69458 0.37046 0.0
C2143 C 0.72746 0.70893 0.35911 0.0
C2144 C 0.7346 0.6918 0.38032 0.0
C2145 C 0.74364 0.71998 0.35646 0.0
C2146 C 0.75518 0.71719 0.36585 0.0
C2147 C 0.76228 0.70126 0.38978 0.0
C2148 C 0.75784 0.6879 0.40363 0.0
C2149 C 0.75079 0.70336 0.37836 0.0
C2150 C 0.74178 0.67612 0.40462 0.0
C2151 C 0.73028 0.67803 0.39302 0.0
H2152 H 0.33666 0.03055 0.38205 0.0
H2153 H 0.28868 0.01661 0.3631 0.0
H2154 H 0.29212 0.0415 0.3778 0.0
H2155 H 0.3079 0.0662 0.39874 0.0
H2156 H 0.35529 0.0796 0.42024 0.0
H2157 H 0.3531 0.05628 0.40131 0.0
C2158 C 0.32706 0.03308 0.38086 0.0
C2159 C 0.3124 0.02167 0.37162 0.0
C2160 C 0.329 0.04734 0.38984 0.0
C2161 C 0.30004 0.02511 0.37029 0.0
C2162 C 0.30199 0.03935 0.3787 0.0
C2163 C 0.31778 0.06405 0.39929 0.0
C2164 C 0.33167 0.07461 0.41114 0.0
C2165 C 0.31627 0.05038 0.38899 0.0
C2166 C 0.34448 0.07179 0.41113 0.0
C2167 C 0.34319 0.05834 0.40048 0.0
H2168 H 0.98983 0.31101 0.38785 0.0
H2169 H 0.99936 0.27658 0.35673 0.0
H2170 H 0.97411 0.25515 0.37057 0.0
H2171 H 0.95042 0.24607 0.39398 0.0
H2172 H 0.94197 0.28028 0.42837 0.0
H2173 H 0.9653 0.30179 0.41023 0.0
C2174 C 0.98624 0.29882 0.38382 0.0
C2175 C 0.99647 0.29539 0.37135 0.0
C2176 C 0.97187 0.28648 0.39245 0.0
C2177 C 0.99174 0.27954 0.36642 0.0
C2178 C 0.9773 0.26726 0.37434 0.0
C2179 C 0.95365 0.25822 0.39761 0.0
C2180 C 0.94442 0.26143 0.41278 0.0
C2181 C 0.96746 0.27057 0.38784 0.0
C2182 C 0.94866 0.27732 0.41664 0.0
C2183 C 0.96215 0.28969 0.40644 0.0
H2184 H 0.05417 0.40552 0.33954 0.0
H2185 H 0.01298 0.36092 0.32231 0.0
H2186 H 1.00124 0.37483 0.30315 0.0
H2187 H 1.00359 0.39945 0.28878 0.0
H2188 H 0.04389 0.44425 0.30828 0.0
H2189 H 0.05516 0.4304 0.32859 0.0
C2190 C 0.04255 0.39885 0.3318 0.0
C2191 C 0.03452 0.38219 0.33224 0.0
C2192 C 0.0358 0.40694 0.3209 0.0
C2193 C 0.01942 0.37374 0.32229 0.0
C2194 C 0.01272 0.38169 0.31121 0.0
C2195 C 0.01465 0.40631 0.29789 0.0
C2196 C 0.02287 0.42299 0.29662 0.0
C2197 C 0.02093 0.39828 0.31008 0.0
C2198 C 0.03739 0.43145 0.30831 0.0
C2199 C 0.04382 0.42352 0.32016 0.0
H2200 H 0.61706 0.66187 0.33713 0.0
H2201 H 0.65911 0.65812 0.33041 0.0
H2202 H 0.64339 0.63166 0.31418 0.0
H2203 H 0.61818 0.61061 0.29884 0.0
H2204 H 0.57603 0.61418 0.30585 0.0
H2205 H 0.59139 0.63975 0.32478 0.0
C2206 C 0.62278 0.6552 0.3324 0.0
C2207 C 0.63929 0.66207 0.33489 0.0
C2208 C 0.61368 0.64002 0.32284 0.0
C2209 C 0.64645 0.65319 0.32869 0.0
C2210 C 0.63747 0.63805 0.3193 0.0
C2211 C 0.61223 0.61677 0.30493 0.0
C2212 C 0.59593 0.61043 0.3007 0.0
C2213 C 0.62113 0.63148 0.31587 0.0
C2214 C 0.58858 0.61883 0.30845 0.0
C2215 C 0.59735 0.63345 0.3194 0.0
H2216 H 0.36378 0.96223 0.32864 0.0
H2217 H 0.36632 0.00767 0.32889 0.0
H2218 H 0.3924 0.01973 0.31097 0.0
H2219 H 0.41359 0.01696 0.29269 0.0
H2220 H 0.411 0.97149 0.29272 0.0
H2221 H 0.38578 0.95986 0.3129 0.0
C2222 C 0.37008 0.97481 0.32498 0.0
C2223 C 0.36303 0.984 0.33 0.0
C2224 C 0.38502 0.98164 0.31451 0.0
C2225 C 0.37144 1.00029 0.32521 0.0
C2226 C 0.38635 0.0072 0.31488 0.0
C2227 C 0.40768 0.00457 0.29747 0.0
C2228 C 0.41418 0.9951 0.29098 0.0
C2229 C 0.39314 0.99794 0.30911 0.0
C2230 C 0.40618 0.97901 0.29711 0.0
C2231 C 0.39177 0.97236 0.30876 0.0
H2232 H 0.61564 0.9551 0.31707 0.0
H2233 H 0.64739 0.99983 0.34893 0.0
H2234 H 0.63094 0.01064 0.33558 0.0
H2235 H 0.60841 0.0078 0.31311 0.0
H2236 H 0.57847 0.96382 0.27778 0.0
H2237 H 0.59297 0.9522 0.29496 0.0
C2238 C 0.61887 0.96716 0.32133 0.0
C2239 C 0.63273 0.97665 0.33399 0.0
C2240 C 0.60961 0.97343 0.31305 0.0
C2241 C 0.63682 0.9923 0.33915 0.0
C2242 C 0.62741 0.99848 0.33152 0.0
C2243 C 0.60505 0.99571 0.30896 0.0
C2244 C 0.59227 0.98683 0.29396 0.0
C2245 C 0.61393 0.98924 0.3181 0.0
C2246 C 0.58798 0.97099 0.28949 0.0
C2247 C 0.59643 0.96433 0.29912 0.0
H2248 H 0.05909 0.66102 0.32056 0.0
H2249 H 0.0137 0.64937 0.34865 0.0
H2250 H 1.0021 0.62257 0.33317 0.0
H2251 H 1.00451 0.603 0.30975 0.0
H2252 H 0.04943 0.61586 0.27839 0.0
H2253 H 0.06157 0.64133 0.2976 0.0
C2254 C 0.04671 0.65254 0.32358 0.0
C2255 C 0.03729 0.65718 0.33579 0.0
C2256 C 0.04001 0.63731 0.31403 0.0
C2257 C 0.02122 0.64611 0.33929 0.0
C2258 C 0.01457 0.63079 0.33041 0.0
C2259 C 0.01694 0.61136 0.30693 0.0
C2260 C 0.02593 0.60732 0.29247 0.0
C2261 C 0.02379 0.62635 0.31735 0.0
C2262 C 0.04214 0.61833 0.28964 0.0
C2263 C 0.04912 0.63306 0.30047 0.0
H2264 H 0.36543 0.40693 0.34122 0.0
H2265 H 0.3669 0.36389 0.33086 0.0
H2266 H 0.3928 0.37892 0.31277 0.0
H2267 H 0.41404 0.40393 0.29721 0.0
H2268 H 0.41261 0.44699 0.30747 0.0
H2269 H 0.38765 0.43227 0.32811 0.0
C2270 C 0.37149 0.40084 0.33526 0.0
C2271 C 0.36415 0.38427 0.33731 0.0
C2272 C 0.38633 0.40954 0.32462 0.0
C2273 C 0.37222 0.37662 0.32948 0.0
C2274 C 0.38703 0.3852 0.31905 0.0
C2275 C 0.40846 0.41018 0.30435 0.0
C2276 C 0.41521 0.42657 0.30064 0.0
C2277 C 0.39407 0.40163 0.31617 0.0
C2278 C 0.4076 0.43436 0.30974 0.0
C2279 C 0.39334 0.42596 0.32164 0.0
H2280 H 0.29789 0.28051 0.36439 0.0
H2281 H 0.34476 0.32143 0.36727 0.0
H2282 H 0.35504 0.30531 0.38349 0.0
H2283 H 0.3503 0.2802 0.40004 0.0
H2284 H 0.30344 0.23926 0.3974 0.0
H2285 H 0.29359 0.25483 0.37807 0.0
C2286 C 0.3104 0.28587 0.36827 0.0
C2287 C 0.3205 0.3022 0.36472 0.0
C2288 C 0.31621 0.27657 0.3779 0.0
C2289 C 0.33668 0.30892 0.36986 0.0
C2290 C 0.34258 0.29971 0.37922 0.0
C2291 C 0.338 0.27456 0.39481 0.0
C2292 C 0.32762 0.25857 0.40034 0.0
C2293 C 0.33239 0.2836 0.38376 0.0
C2294 C 0.31166 0.25159 0.39371 0.0
C2295 C 0.30602 0.26047 0.38256 0.0
H2296 H 0.73606 0.01961 0.38397 0.0
H2297 H 0.70111 0.03032 0.35785 0.0
H2298 H 0.71666 0.05746 0.37216 0.0
H2299 H 0.73967 0.07776 0.39338 0.0
H2300 H 0.77297 0.06571 0.42275 0.0
H2301 H 0.75885 0.03974 0.4052 0.0
C2302 C 0.73189 0.02791 0.3812 0.0
C2303 C 0.71745 0.02295 0.36982 0.0
C2304 C 0.74067 0.04334 0.38996 0.0
C2305 C 0.71217 0.03383 0.3666 0.0
C2306 C 0.72106 0.04935 0.37477 0.0
C2307 C 0.74383 0.06947 0.39615 0.0
C2308 C 0.75752 0.07395 0.40945 0.0
C2309 C 0.73524 0.05417 0.38676 0.0
C2310 C 0.76277 0.06296 0.41227 0.0
C2311 C 0.75456 0.04794 0.40244 0.0
H2312 H 0.98502 0.7082 0.35594 0.0
H2313 H 0.99061 0.67017 0.38314 0.0
H2314 H 0.96508 0.65926 0.40238 0.0
H2315 H 0.94255 0.66198 0.41437 0.0
H2316 H 0.93587 0.69888 0.38499 0.0
H2317 H 0.9606 0.70888 0.36408 0.0
C2318 C 0.98055 0.6974 0.36583 0.0
C2319 C 0.98978 0.69009 0.36826 0.0
C2320 C 0.9658 0.69113 0.37678 0.0
C2321 C 0.98375 0.67603 0.38096 0.0
C2322 C 0.96918 0.66983 0.39209 0.0
C2323 C 0.94617 0.67195 0.40298 0.0
C2324 C 0.93729 0.67974 0.40173 0.0
C2325 C 0.96026 0.67747 0.39051 0.0
C2326 C 0.94256 0.69284 0.38699 0.0
C2327 C 0.95669 0.69853 0.3748 0.0
H2328 H 0.40638 0.05345 0.69794 0.0
H2329 H 0.36386 0.00798 0.7041 0.0
H2330 H 0.37905 0.99696 0.72139 0.0
H2331 H 0.40396 1.0008 0.73765 0.0
H2332 H 0.44648 0.04626 0.73151 0.0
H2333 H 0.43169 0.05672 0.71152 0.0
C2334 C 0.40045 0.04107 0.70279 0.0
C2335 C 0.38396 0.0316 0.69981 0.0
C2336 C 0.40923 0.03485 0.713 0.0
C2337 C 0.37651 0.01557 0.7062 0.0
C2338 C 0.38519 0.00926 0.71619 0.0
C2339 C 0.41009 0.01291 0.73155 0.0
C2340 C 0.42633 0.02274 0.73626 0.0
C2341 C 0.4015 0.01887 0.72007 0.0
C2342 C 0.43396 0.03848 0.72848 0.0
C2343 C 0.42552 0.04446 0.71695 0.0
H2344 H 0.96825 0.35945 0.69515 0.0
H2345 H 0.01192 0.3601 0.70993 0.0
H2346 H 0.02263 0.38615 0.72755 0.0
H2347 H 0.01872 0.4076 0.74175 0.0
H2348 H 0.97531 0.40732 0.72612 0.0
H2349 H 0.96536 0.3822 0.70607 0.0
C2350 C 0.98018 0.36536 0.70198 0.0
C2351 C 0.9892 0.35774 0.70137 0.0
C2352 C 0.98626 0.38033 0.71221 0.0
C2353 C 1.00469 0.36565 0.71018 0.0
C2354 C 0.01081 0.38054 0.72036 0.0
C2355 C 0.00722 0.40228 0.73354 0.0
C2356 C 0.99775 0.40936 0.73574 0.0
C2357 C 1.00158 0.38785 0.72188 0.0
C2358 C 0.98277 0.40204 0.72518 0.0
C2359 C 0.97708 0.38769 0.71358 0.0
H2360 H 0.65516 0.64503 0.70943 0.0
H2361 H 0.66323 0.60938 0.67913 0.0
H2362 H 0.63858 0.58858 0.69545 0.0
H2363 H 0.6163 0.58048 0.72167 0.0
H2364 H 0.60895 0.61598 0.75405 0.0
H2365 H 0.63141 0.63675 0.73319 0.0
C2366 C 0.65135 0.63271 0.70602 0.0
C2367 C 0.6611 0.62878 0.69321 0.0
C2368 C 0.6373 0.62074 0.71598 0.0
C2369 C 0.65602 0.61275 0.68905 0.0
C2370 C 0.64193 0.60082 0.69844 0.0
C2371 C 0.61955 0.59276 0.72407 0.0
C2372 C 0.61103 0.59663 0.73963 0.0
C2373 C 0.63274 0.60468 0.71251 0.0
C2374 C 0.6152 0.6126 0.74212 0.0
C2375 C 0.62816 0.62453 0.73033 0.0
H2376 H 0.68442 0.70966 0.67142 0.0
H2377 H 0.73454 0.74333 0.67025 0.0
H2378 H 0.7295 0.76286 0.65237 0.0
H2379 H 0.71137 0.76948 0.63352 0.0
H2380 H 0.661 0.73692 0.63646 0.0
H2381 H 0.66574 0.71785 0.65678 0.0
C2382 C 0.69421 0.72135 0.66758 0.0
C2383 C 0.70985 0.72491 0.67201 0.0
C2384 C 0.69124 0.73268 0.65723 0.0
C2385 C 0.72238 0.74018 0.66702 0.0
C2386 C 0.71952 0.75138 0.65666 0.0
C2387 C 0.70129 0.75846 0.63911 0.0
C2388 C 0.68582 0.75474 0.63304 0.0
C2389 C 0.70405 0.74765 0.65121 0.0
C2390 C 0.67309 0.7401 0.64023 0.0
C2391 C 0.67577 0.72917 0.65206 0.0
H2392 H 0.31555 0.9837 0.66632 0.0
H2393 H 0.27707 0.99227 0.68042 0.0
H2394 H 0.25829 0.9667 0.66389 0.0
H2395 H 0.25299 0.94279 0.64265 0.0
H2396 H 0.29159 0.93465 0.62744 0.0
H2397 H 0.30996 0.95892 0.64743 0.0
C2398 C 0.30303 0.97988 0.66611 0.0
C2399 C 0.29778 0.98998 0.6745 0.0
C2400 C 0.29226 0.96521 0.65623 0.0
C2401 C 0.28149 0.9848 0.67402 0.0
C2402 C 0.27071 0.97017 0.66449 0.0
C2403 C 0.26541 0.9463 0.64378 0.0
C2404 C 0.27085 0.93688 0.63345 0.0
C2405 C 0.27601 0.96044 0.65504 0.0
C2406 C 0.28698 0.94152 0.63541 0.0
C2407 C 0.29755 0.9555 0.64671 0.0
H2408 H 0.02672 0.29131 0.66871 0.0
H2409 H 0.03241 0.33807 0.66532 0.0
H2410 H 0.05838 0.34816 0.64774 0.0
H2411 H 0.0785 0.34328 0.63055 0.0
H2412 H 0.07282 0.29653 0.6339 0.0
H2413 H 0.04777 0.28687 0.65409 0.0
C2414 C 0.0337 0.30376 0.66438 0.0
C2415 C 0.02755 0.31389 0.66824 0.0
C2416 C 0.04857 0.30946 0.65402 0.0
C2417 C 0.03681 0.32998 0.66253 0.0
C2418 C 0.05166 0.33576 0.65239 0.0
C2419 C 0.07197 0.33105 0.63609 0.0
C2420 C 0.07754 0.32064 0.63054 0.0
C2421 C 0.05754 0.32555 0.64767 0.0
C2422 C 0.06872 0.30476 0.63759 0.0
C2423 C 0.05441 0.29924 0.64923 0.0
H2424 H 0.3181 0.33271 0.65391 0.0
H2425 H 0.28495 0.28715 0.68225 0.0
H2426 H 0.26285 0.29007 0.66888 0.0
H2427 H 0.25291 0.30437 0.64627 0.0
H2428 H 0.28593 0.34892 0.61506 0.0
H2429 H 0.30796 0.34782 0.63295 0.0
C2430 C 0.30604 0.32356 0.6575 0.0
C2431 C 0.30319 0.3097 0.66899 0.0
C2432 C 0.29331 0.32512 0.64917 0.0
C2433 C 0.28748 0.29789 0.67333 0.0
C2434 C 0.27482 0.29954 0.66566 0.0
C2435 C 0.26491 0.31387 0.64335 0.0
C2436 C 0.26766 0.32662 0.62907 0.0
C2437 C 0.27759 0.3129 0.65304 0.0
C2438 C 0.28334 0.339 0.62607 0.0
C2439 C 0.29601 0.33831 0.63613 0.0
H2440 H 0.72158 0.99199 0.65613 0.0
H2441 H 0.67617 0.98256 0.68128 0.0
H2442 H 0.6639 0.95552 0.66635 0.0
H2443 H 0.66593 0.93505 0.64464 0.0
H2444 H 0.71104 0.94602 0.61569 0.0
H2445 H 0.72356 0.97166 0.63427 0.0
C2446 C 0.70903 0.98396 0.6586 0.0
C2447 C 0.69982 0.98926 0.6699 0.0
C2448 C 0.70198 0.96864 0.64934 0.0
C2449 C 0.68353 0.97877 0.67265 0.0
C2450 C 0.67651 0.96332 0.6641 0.0
C2451 C 0.67848 0.94303 0.64213 0.0
C2452 C 0.6874 0.93832 0.62864 0.0
C2453 C 0.68559 0.9582 0.65207 0.0
C2454 C 0.70377 0.94891 0.62628 0.0
C2455 C 0.71098 0.96377 0.63671 0.0
H2456 H 0.03322 0.70847 0.65343 0.0
H2457 H 0.01996 0.74337 0.67001 0.0
H2458 H 0.04479 0.76421 0.65422 0.0
H2459 H 0.06937 0.77236 0.63331 0.0
H2460 H 0.08209 0.73743 0.61441 0.0
H2461 H 0.0587 0.71696 0.63401 0.0
C2462 C 0.03587 0.72067 0.65384 0.0
C2463 C 0.02467 0.72431 0.66278 0.0
C2464 C 0.05011 0.73264 0.6443 0.0
C2465 C 0.02828 0.74018 0.6631 0.0
C2466 C 0.0425 0.75214 0.65407 0.0
C2467 C 0.06705 0.76028 0.63344 0.0
C2468 C 0.07748 0.7565 0.62217 0.0
C2469 C 0.05334 0.74847 0.64418 0.0
C2470 C 0.07441 0.7408 0.62307 0.0
C2471 C 0.06092 0.72901 0.63411 0.0
H2472 H 1.00563 0.64021 0.69241 0.0
H2473 H 0.95727 0.6108 0.71438 0.0
H2474 H 0.96406 0.59245 0.73224 0.0
H2475 H 0.98406 0.58596 0.7446 0.0
H2476 H 0.0322 0.61426 0.72095 0.0
H2477 H 0.02515 0.63182 0.70105 0.0
C2478 C 0.99655 0.62969 0.70088 0.0
C2479 C 0.981 0.627 0.7022 0.0
C2480 C 1.00051 0.61904 0.71109 0.0
C2481 C 0.96935 0.61322 0.71309 0.0
C2482 C 0.97323 0.60271 0.72342 0.0
C2483 C 0.99299 0.5957 0.73465 0.0
C2484 C 0.00873 0.59882 0.73471 0.0
C2485 C 0.98882 0.60565 0.72291 0.0
C2486 C 0.02007 0.61173 0.72184 0.0
C2487 C 0.01604 0.62176 0.71028 0.0
H2488 H 0.3789 0.36798 0.70707 0.0
H2489 H 0.41854 0.36134 0.69253 0.0
H2490 H 0.43655 0.38677 0.71005 0.0
H2491 H 0.44093 0.41012 0.7318 0.0
H2492 H 0.40129 0.41654 0.74734 0.0
H2493 H 0.38354 0.39223 0.72684 0.0
C2494 C 0.39149 0.37219 0.70748 0.0
C2495 C 0.39731 0.36267 0.69861 0.0
C2496 C 0.40184 0.38682 0.71784 0.0
C2497 C 0.41369 0.36834 0.69931 0.0
C2498 C 0.42403 0.3829 0.70938 0.0
C2499 C 0.42841 0.40622 0.73065 0.0
C2500 C 0.42248 0.41514 0.7412 0.0
C2501 C 0.41821 0.39209 0.7191 0.0
C2502 C 0.40625 0.41002 0.7392 0.0
C2503 C 0.39604 0.39603 0.72762 0.0
H2504 H 0.65526 0.01396 0.71026 0.0
H2505 H 0.66255 0.05862 0.6848 0.0
H2506 H 0.63669 0.05258 0.69927 0.0
H2507 H 0.61303 0.03571 0.72188 0.0
H2508 H 0.60652 0.9919 0.7498 0.0
H2509 H 0.63071 0.9963 0.73114 0.0
C2510 C 0.65108 0.02225 0.70757 0.0
C2511 C 0.66088 0.03676 0.69657 0.0
C2512 C 0.6363 0.01887 0.71644 0.0
C2513 C 0.6553 0.04741 0.69333 0.0
C2514 C 0.64051 0.04398 0.70163 0.0
C2515 C 0.61687 0.02709 0.7239 0.0
C2516 C 0.60793 0.01355 0.73743 0.0
C2517 C 0.63108 0.02993 0.7137 0.0
C2518 C 0.61298 1.00236 0.73933 0.0
C2519 C 0.62694 0.00494 0.72883 0.0
loop_
_geom_bond_atom_site_label_1
_geom_bond_atom_site_label_2
_geom_bond_distance
_geom_bond_site_symmetry_2
_ccdc_geom_bond_type
O0 Cd1 2.223 . S
O0 C8 1.315 . S
Cd1 O0 2.223 . S
Cd1 O4 2.297 . S
Cd1 O5 2.439 . S
Cd1 O11 2.240 1_554 S
Cd2 O3 2.208 1_655 S
Cd2 O10 2.223 1_554 S
Cd2 O12 2.297 1_554 S
Cd2 O13 2.457 . S
O3 Cd2 2.208 1_455 S
O3 C8 1.281 . S
O4 Cd1 2.297 . S
O4 C6 1.247 . S
O5 Cd1 2.439 . S
O5 C6 1.208 . S
C6 O4 1.247 . S
C6 O5 1.208 . S
C7 O12 1.247 . S
C7 O13 1.189 1_556 S
C8 O0 1.315 . S
C8 O3 1.281 . S
C9 O10 1.315 . S
C9 O11 1.280 1_655 S
O10 Cd2 2.223 1_556 S
O10 C9 1.315 . S
O11 Cd1 2.240 1_556 S
O11 C9 1.280 1_455 S
O12 Cd2 2.297 1_556 S
O12 C7 1.247 . S
O13 Cd2 2.457 . S
O13 C7 1.189 1_554 S
O14 Cd15 2.223 . S
O14 C22 1.315 . S
Cd15 O14 2.223 . S
Cd15 O18 2.297 . S
Cd15 O19 2.439 . S
Cd15 O25 2.240 1_554 S
Cd16 O17 2.240 . S
Cd16 O24 2.223 1_554 S
Cd16 O26 2.297 1_554 S
Cd16 O27 2.457 . S
O17 Cd16 2.240 . S
O17 C22 1.279 . S
O18 Cd15 2.297 . S
O18 C20 1.247 . S
O19 Cd15 2.439 . S
O19 C20 1.208 . S
C20 O18 1.247 . S
C20 O19 1.208 . S
C21 O26 1.247 . S
C21 O27 1.188 1_556 S
C22 O14 1.315 . S
C22 O17 1.279 . S
C23 O24 1.315 . S
C23 O25 1.279 . S
O24 Cd16 2.223 1_556 S
O24 C23 1.315 . S
O25 Cd15 2.240 1_556 S
O25 C23 1.279 . S
O26 Cd16 2.297 1_556 S
O26 C21 1.247 . S
O27 Cd16 2.457 . S
O27 C21 1.188 1_554 S
O28 Cd29 2.223 1_556 S
O28 C36 1.315 . S
Cd29 O28 2.223 1_554 S
Cd29 O32 2.297 1_554 S
Cd29 O33 2.457 . S
Cd29 O39 2.240 . S
Cd30 O31 2.212 1_564 S
Cd30 O38 2.223 . S
Cd30 O40 2.297 . S
Cd30 O41 2.439 . S
O31 Cd30 2.212 1_546 S
O31 C36 1.281 . S
O32 Cd29 2.297 1_556 S
O32 C34 1.247 . S
O33 Cd29 2.457 . S
O33 C34 1.188 1_554 S
C34 O32 1.247 . S
C34 O33 1.188 1_556 S
C35 O40 1.247 . S
C35 O41 1.208 . S
C36 O28 1.315 . S
C36 O31 1.281 . S
C37 O38 1.320 . S
C37 O39 1.274 1_565 S
O38 Cd30 2.223 . S
O38 C37 1.320 . S
O39 Cd29 2.240 . S
O39 C37 1.274 1_545 S
O40 Cd30 2.297 . S
O40 C35 1.247 . S
O41 Cd30 2.439 . S
O41 C35 1.208 . S
O42 Cd43 2.223 1_556 S
O42 C50 1.314 . S
Cd43 O42 2.223 1_554 S
Cd43 O46 2.297 1_554 S
Cd43 O47 2.457 . S
Cd43 O53 2.196 1_655 S
Cd44 O45 2.240 1_554 S
Cd44 O52 2.223 . S
Cd44 O54 2.297 . S
Cd44 O55 2.439 . S
O45 Cd44 2.240 1_556 S
O45 C50 1.279 1_455 S
O46 Cd43 2.297 1_556 S
O46 C48 1.247 . S
O47 Cd43 2.457 . S
O47 C48 1.188 1_554 S
C48 O46 1.247 . S
C48 O47 1.188 1_556 S
C49 O54 1.247 . S
C49 O55 1.208 . S
C50 O42 1.314 . S
C50 O45 1.279 1_655 S
C51 O52 1.315 . S
C51 O53 1.331 . S
O52 Cd44 2.223 . S
O52 C51 1.315 . S
O53 Cd43 2.196 1_455 S
O53 C51 1.331 . S
O54 Cd44 2.297 . S
O54 C49 1.247 . S
O55 Cd44 2.439 . S
O55 C49 1.208 . S
O56 Cd57 2.223 1_556 S
O56 C64 1.315 . S
Cd57 O56 2.223 1_554 S
Cd57 O60 2.297 1_554 S
Cd57 O61 2.457 . S
Cd57 O67 2.240 . S
Cd58 O59 2.240 1_554 S
Cd58 O66 2.223 . S
Cd58 O68 2.297 . S
Cd58 O69 2.439 . S
O59 Cd58 2.240 1_556 S
O59 C64 1.279 . S
O60 Cd57 2.297 1_556 S
O60 C62 1.247 . S
O61 Cd57 2.457 . S
O61 C62 1.189 1_554 S
C62 O60 1.247 . S
C62 O61 1.189 1_556 S
C63 O68 1.247 . S
C63 O69 1.208 . S
C64 O56 1.315 . S
C64 O59 1.279 . S
C65 O66 1.315 . S
C65 O67 1.279 . S
O66 Cd58 2.223 . S
O66 C65 1.315 . S
O67 Cd57 2.240 . S
O67 C65 1.279 . S
O68 Cd58 2.297 . S
O68 C63 1.247 . S
O69 Cd58 2.439 . S
O69 C63 1.208 . S
O70 Cd71 2.223 . S
O70 C78 1.320 . S
Cd71 O70 2.223 . S
Cd71 O74 2.297 . S
Cd71 O75 2.439 . S
Cd71 O81 2.202 1_564 S
Cd72 O73 2.240 . S
Cd72 O80 2.223 1_554 S
Cd72 O82 2.297 1_554 S
Cd72 O83 2.456 . S
O73 Cd72 2.240 . S
O73 C78 1.279 1_545 S
O74 Cd71 2.297 . S
O74 C76 1.247 . S
O75 Cd71 2.439 . S
O75 C76 1.208 . S
C76 O74 1.247 . S
C76 O75 1.208 . S
C77 O82 1.247 . S
C77 O83 1.189 1_556 S
C78 O70 1.320 . S
C78 O73 1.279 1_565 S
C79 O80 1.315 . S
C79 O81 1.323 . S
O80 Cd72 2.223 1_556 S
O80 C79 1.315 . S
O81 Cd71 2.202 1_546 S
O81 C79 1.323 . S
O82 Cd72 2.297 1_556 S
O82 C77 1.247 . S
O83 Cd72 2.456 . S
O83 C77 1.189 1_554 S
O84 Cd85 2.223 . S
O84 C92 1.315 . S
Cd85 O84 2.223 . S
Cd85 O88 2.297 . S
Cd85 O89 2.439 . S
Cd85 O95 2.240 . S
Cd86 O87 2.240 . S
Cd86 O94 2.223 . S
Cd86 O96 2.297 . S
Cd86 O97 2.439 . S
O87 Cd86 2.240 . S
O87 C92 1.279 . S
O88 Cd85 2.297 . S
O88 C90 1.247 . S
O89 Cd85 2.439 . S
O89 C90 1.208 . S
C90 O88 1.247 . S
C90 O89 1.208 . S
C91 O96 1.247 . S
C91 O97 1.208 . S
C92 O84 1.315 . S
C92 O87 1.279 . S
C93 O94 1.315 . S
C93 O95 1.279 . S
O94 Cd86 2.223 . S
O94 C93 1.315 . S
O95 Cd85 2.240 . S
O95 C93 1.279 . S
O96 Cd86 2.297 . S
O96 C91 1.247 . S
O97 Cd86 2.439 . S
O97 C91 1.208 . S
O98 Cd99 2.223 . S
O98 C106 1.315 . S
Cd99 O98 2.223 . S
Cd99 O102 2.297 1_565 S
Cd99 O103 2.439 1_565 S
Cd99 O109 2.240 . S
Cd100 O101 2.240 . S
Cd100 O108 2.223 . S
Cd100 O110 2.297 . S
Cd100 O111 2.439 . S
O101 Cd100 2.240 . S
O101 C106 1.279 . S
O102 Cd99 2.297 1_545 S
O102 C104 1.247 . S
O103 Cd99 2.439 1_545 S
O103 C104 1.208 . S
C104 O102 1.247 . S
C104 O103 1.208 . S
C105 O110 1.247 . S
C105 O111 1.208 . S
C106 O98 1.315 . S
C106 O101 1.279 . S
C107 O108 1.315 . S
C107 O109 1.279 . S
O108 Cd100 2.223 . S
O108 C107 1.315 . S
O109 Cd99 2.240 . S
O109 C107 1.279 . S
O110 Cd100 2.297 . S
O110 C105 1.247 . S
O111 Cd100 2.439 . S
O111 C105 1.208 . S
O112 Cd113 2.223 . S
O112 C120 1.315 . S
Cd113 O112 2.223 . S
Cd113 O116 2.297 . S
Cd113 O117 2.439 . S
Cd113 O123 2.240 . S
Cd114 O115 2.240 . S
Cd114 O122 2.223 . S
Cd114 O124 2.297 . S
Cd114 O125 2.478 . S
O115 Cd114 2.240 . S
O115 C120 1.279 . S
O116 Cd113 2.297 . S
O116 C118 1.247 . S
O117 Cd113 2.439 . S
O117 C118 1.208 . S
C118 O116 1.247 . S
C118 O117 1.208 . S
C119 O124 1.247 1_655 S
C119 O125 1.214 1_655 S
C120 O112 1.315 . S
C120 O115 1.279 . S
C121 O122 1.315 . S
C121 O123 1.279 . S
O122 Cd114 2.223 . S
O122 C121 1.315 . S
O123 Cd113 2.240 . S
O123 C121 1.279 . S
O124 Cd114 2.297 . S
O124 C119 1.247 1_455 S
O125 Cd114 2.478 . S
O125 C119 1.214 1_455 S
O126 Cd127 2.223 . S
O126 C134 1.315 . S
Cd127 O126 2.223 . S
Cd127 O130 2.297 . S
Cd127 O131 2.439 . S
Cd127 O137 2.240 . S
Cd128 O129 2.240 . S
Cd128 O136 2.223 . S
Cd128 O138 2.297 1_565 S
Cd128 O139 2.439 1_565 S
O129 Cd128 2.240 . S
O129 C134 1.279 . S
O130 Cd127 2.297 . S
O130 C132 1.247 . S
O131 Cd127 2.439 . S
O131 C132 1.208 . S
C132 O130 1.247 . S
C132 O131 1.208 . S
C133 O138 1.247 . S
C133 O139 1.208 . S
C134 O126 1.315 . S
C134 O129 1.279 . S
C135 O136 1.315 . S
C135 O137 1.279 . S
O136 Cd128 2.223 . S
O136 C135 1.315 . S
O137 Cd127 2.240 . S
O137 C135 1.279 . S
O138 Cd128 2.297 1_545 S
O138 C133 1.247 . S
O139 Cd128 2.439 1_545 S
O139 C133 1.208 . S
O140 Cd141 2.223 . S
O140 C148 1.315 . S
Cd141 O140 2.223 . S
Cd141 O144 2.297 . S
Cd141 O145 2.439 . S
Cd141 O151 2.240 . S
Cd142 O143 2.240 . S
Cd142 O150 2.223 . S
Cd142 O152 2.297 . S
Cd142 O153 2.452 . S
O143 Cd142 2.240 . S
O143 C148 1.279 . S
O144 Cd141 2.297 . S
O144 C146 1.247 . S
O145 Cd141 2.439 . S
O145 C146 1.208 . S
C146 O144 1.247 . S
C146 O145 1.208 . S
C147 O152 1.247 1_655 S
C147 O153 1.179 1_655 S
C148 O140 1.315 . S
C148 O143 1.279 . S
C149 O150 1.315 . S
C149 O151 1.279 . S
O150 Cd142 2.223 . S
O150 C149 1.315 . S
O151 Cd141 2.240 . S
O151 C149 1.279 . S
O152 Cd142 2.297 . S
O152 C147 1.247 1_455 S
O153 Cd142 2.452 . S
O153 C147 1.179 1_455 S
O154 Cd155 2.223 . S
O154 C162 1.315 . S
Cd155 O154 2.223 . S
Cd155 O158 2.297 . S
Cd155 O159 2.439 . S
Cd155 O165 2.240 . S
Cd156 O157 2.240 . S
Cd156 O164 2.223 . S
Cd156 O166 2.297 . S
Cd156 O167 2.439 . S
O157 Cd156 2.240 . S
O157 C162 1.279 . S
O158 Cd155 2.297 . S
O158 C160 1.247 . S
O159 Cd155 2.439 . S
O159 C160 1.208 . S
C160 O158 1.247 . S
C160 O159 1.208 . S
C161 O166 1.247 . S
C161 O167 1.208 . S
C162 O154 1.315 . S
C162 O157 1.279 . S
C163 O164 1.315 . S
C163 O165 1.279 . S
O164 Cd156 2.223 . S
O164 C163 1.315 . S
O165 Cd155 2.240 . S
O165 C163 1.279 . S
O166 Cd156 2.297 . S
O166 C161 1.247 . S
O167 Cd156 2.439 . S
O167 C161 1.208 . S
O168 Cd169 2.223 . S
O168 C176 1.315 . S
Cd169 O168 2.223 . S
Cd169 O172 2.297 . S
Cd169 O173 2.439 . S
Cd169 O179 2.240 . S
Cd170 O171 2.240 . S
Cd170 O178 2.223 . S
Cd170 O180 2.297 . S
Cd170 O181 2.470 . S
O171 Cd170 2.240 . S
O171 C176 1.279 . S
O172 Cd169 2.297 . S
O172 C174 1.247 . S
O173 Cd169 2.439 . S
O173 C174 1.208 . S
C174 O172 1.247 . S
C174 O173 1.208 . S
C175 O180 1.247 1_565 S
C175 O181 1.213 1_565 S
C176 O168 1.315 . S
C176 O171 1.279 . S
C177 O178 1.315 . S
C177 O179 1.279 . S
O178 Cd170 2.223 . S
O178 C177 1.315 . S
O179 Cd169 2.240 . S
O179 C177 1.279 . S
O180 Cd170 2.297 . S
O180 C175 1.247 1_545 S
O181 Cd170 2.470 . S
O181 C175 1.213 1_545 S
O182 Cd183 2.223 . S
O182 C190 1.315 . S
Cd183 O182 2.223 . S
Cd183 O186 2.297 . S
Cd183 O187 2.439 . S
Cd183 O193 2.240 . S
Cd184 O185 2.240 . S
Cd184 O192 2.223 . S
Cd184 O194 2.297 1_655 S
Cd184 O195 2.439 1_655 S
O185 Cd184 2.240 . S
O185 C190 1.279 . S
O186 Cd183 2.297 . S
O186 C188 1.247 . S
O187 Cd183 2.439 . S
O187 C188 1.208 . S
C188 O186 1.247 . S
C188 O187 1.208 . S
C189 O194 1.247 . S
C189 O195 1.208 . S
C190 O182 1.315 . S
C190 O185 1.279 . S
C191 O192 1.315 . S
C191 O193 1.279 . S
O192 Cd184 2.223 . S
O192 C191 1.315 . S
O193 Cd183 2.240 . S
O193 C191 1.279 . S
O194 Cd184 2.297 1_455 S
O194 C189 1.247 . S
O195 Cd184 2.439 1_455 S
O195 C189 1.208 . S
O196 Cd197 2.223 . S
O196 C204 1.315 . S
Cd197 O196 2.223 . S
Cd197 O200 2.297 . S
Cd197 O201 2.439 . S
Cd197 O207 2.240 . S
Cd198 O199 2.240 . S
Cd198 O206 2.223 . S
Cd198 O208 2.297 . S
Cd198 O209 2.439 . S
O199 Cd198 2.240 . S
O199 C204 1.279 . S
O200 Cd197 2.297 . S
O200 C202 1.247 . S
O201 Cd197 2.439 . S
O201 C202 1.208 . S
C202 O200 1.247 . S
C202 O201 1.208 . S
C203 O208 1.247 . S
C203 O209 1.208 . S
C204 O196 1.315 . S
C204 O199 1.279 . S
C205 O206 1.315 . S
C205 O207 1.279 . S
O206 Cd198 2.223 . S
O206 C205 1.315 . S
O207 Cd197 2.240 . S
O207 C205 1.279 . S
O208 Cd198 2.297 . S
O208 C203 1.247 . S
O209 Cd198 2.439 . S
O209 C203 1.208 . S
O210 Cd211 2.223 . S
O210 C218 1.315 . S
Cd211 O210 2.223 . S
Cd211 O214 2.297 . S
Cd211 O215 2.439 . S
Cd211 O221 2.240 . S
Cd212 O213 2.240 . S
Cd212 O220 2.223 . S
Cd212 O222 2.297 . S
Cd212 O223 2.439 . S
O213 Cd212 2.240 . S
O213 C218 1.279 . S
O214 Cd211 2.297 . S
O214 C216 1.247 . S
O215 Cd211 2.439 . S
O215 C216 1.208 . S
C216 O214 1.247 . S
C216 O215 1.208 . S
C217 O222 1.247 . S
C217 O223 1.208 . S
C218 O210 1.315 . S
C218 O213 1.279 . S
C219 O220 1.315 . S
C219 O221 1.279 . S
O220 Cd212 2.223 . S
O220 C219 1.315 . S
O221 Cd211 2.240 . S
O221 C219 1.279 . S
O222 Cd212 2.297 . S
O222 C217 1.247 . S
O223 Cd212 2.439 . S
O223 C217 1.208 . S
O224 Cd225 2.223 . S
O224 C232 1.315 . S
Cd225 O224 2.223 . S
Cd225 O228 2.297 . S
Cd225 O229 2.450 . S
Cd225 O235 2.240 . S
Cd226 O227 2.240 . S
Cd226 O234 2.223 . S
Cd226 O236 2.297 . S
Cd226 O237 2.439 . S
O227 Cd226 2.240 . S
O227 C232 1.279 . S
O228 Cd225 2.297 . S
O228 C230 1.247 1_545 S
O229 Cd225 2.450 . S
O229 C230 1.184 1_545 S
C230 O228 1.247 1_565 S
C230 O229 1.184 1_565 S
C231 O236 1.247 . S
C231 O237 1.208 . S
C232 O224 1.315 . S
C232 O227 1.279 . S
C233 O234 1.315 . S
C233 O235 1.279 . S
O234 Cd226 2.223 . S
O234 C233 1.315 . S
O235 Cd225 2.240 . S
O235 C233 1.279 . S
O236 Cd226 2.297 . S
O236 C231 1.247 . S
O237 Cd226 2.439 . S
O237 C231 1.208 . S
O238 Cd239 2.223 . S
O238 C246 1.315 . S
Cd239 O238 2.223 . S
Cd239 O242 2.297 . S
Cd239 O243 2.439 . S
Cd239 O249 2.240 . S
Cd240 O241 2.240 . S
Cd240 O248 2.223 . S
Cd240 O250 2.297 1_655 S
Cd240 O251 2.439 1_655 S
O241 Cd240 2.240 . S
O241 C246 1.279 . S
O242 Cd239 2.297 . S
O242 C244 1.247 . S
O243 Cd239 2.439 . S
O243 C244 1.208 . S
C244 O242 1.247 . S
C244 O243 1.208 . S
C245 O250 1.247 . S
C245 O251 1.208 . S
C246 O238 1.315 . S
C246 O241 1.279 . S
C247 O248 1.315 . S
C247 O249 1.279 . S
O248 Cd240 2.223 . S
O248 C247 1.315 . S
O249 Cd239 2.240 . S
O249 C247 1.279 . S
O250 Cd240 2.297 1_455 S
O250 C245 1.247 . S
O251 Cd240 2.439 1_455 S
O251 C245 1.208 . S
H252 C279 0.929 . S
N253 C278 1.433 . S
N253 C284 1.435 . S
N253 C290 1.423 . S
H254 C280 0.930 . S
H255 C283 0.931 . S
H256 C282 0.929 . S
H257 C285 0.930 . S
H258 C286 0.932 . S
H259 C289 0.929 . S
H260 C288 0.931 . S
H261 C291 0.929 . S
H262 C295 0.932 . S
H263 C292 0.931 . S
H264 C294 0.929 . S
H265 C297 0.929 . S
H266 C298 0.930 . S
H267 C300 0.929 . S
H268 C301 0.931 . S
H269 C303 0.930 . S
H270 C304 0.932 . S
H271 C306 0.931 . S
H272 C307 0.929 . S
H273 C309 0.929 . S
H274 C310 0.931 . S
H275 C312 0.929 . S
N276 C296 1.433 . S
N276 C302 1.435 . S
N276 C308 1.423 . S
H277 C313 0.932 . S
C278 N253 1.433 . S
C278 C279 1.363 . S
C278 C283 1.370 . S
C279 H252 0.929 . S
C279 C278 1.363 . S
C279 C280 1.385 . S
C280 H254 0.930 . S
C280 C279 1.385 . S
C280 C281 1.357 . S
C281 C280 1.357 . S
C281 C282 1.406 . S
C282 H256 0.929 . S
C282 C281 1.406 . S
C282 C283 1.391 . S
C283 H255 0.931 . S
C283 C278 1.370 . S
C283 C282 1.391 . S
C284 N253 1.435 . S
C284 C285 1.358 . S
C284 C289 1.371 . S
C285 H257 0.930 . S
C285 C284 1.358 . S
C285 C286 1.405 . S
C286 H258 0.932 . S
C286 C285 1.405 . S
C286 C287 1.383 . S
C287 C286 1.383 . S
C287 C288 1.393 . S
C288 H260 0.931 . S
C288 C287 1.393 . S
C288 C289 1.382 . S
C289 H259 0.929 . S
C289 C284 1.371 . S
C289 C288 1.382 . S
C290 N253 1.423 . S
C290 C291 1.362 . S
C290 C295 1.388 . S
C291 H261 0.929 . S
C291 C290 1.362 . S
C291 C292 1.376 . S
C292 H263 0.931 . S
C292 C291 1.376 . S
C292 C293 1.396 . S
C293 C292 1.396 . S
C293 C294 1.348 . S
C293 C311 1.472 . S
C294 H264 0.929 . S
C294 C293 1.348 . S
C294 C295 1.443 . S
C295 H262 0.932 . S
C295 C290 1.388 . S
C295 C294 1.443 . S
C296 N276 1.433 . S
C296 C297 1.363 . S
C296 C301 1.370 . S
C297 H265 0.929 . S
C297 C296 1.363 . S
C297 C298 1.385 . S
C298 H266 0.930 . S
C298 C297 1.385 . S
C298 C299 1.357 . S
C299 C298 1.357 . S
C299 C300 1.406 . S
C300 H267 0.929 . S
C300 C299 1.406 . S
C300 C301 1.391 . S
C301 H268 0.931 . S
C301 C296 1.370 . S
C301 C300 1.391 . S
C302 N276 1.435 . S
C302 C303 1.358 . S
C302 C307 1.371 . S
C303 H269 0.930 . S
C303 C302 1.358 . S
C303 C304 1.405 . S
C304 H270 0.932 . S
C304 C303 1.405 . S
C304 C305 1.383 . S
C305 C304 1.383 . S
C305 C306 1.393 . S
C306 H271 0.931 . S
C306 C305 1.393 . S
C306 C307 1.382 . S
C307 H272 0.929 . S
C307 C302 1.371 . S
C307 C306 1.382 . S
C308 N276 1.423 . S
C308 C309 1.362 . S
C308 C313 1.388 . S
C309 H273 0.929 . S
C309 C308 1.362 . S
C309 C310 1.376 . S
C310 H274 0.931 . S
C310 C309 1.376 . S
C310 C311 1.396 . S
C311 C293 1.472 . S
C311 C310 1.396 . S
C311 C312 1.348 . S
C312 H275 0.929 . S
C312 C311 1.348 . S
C312 C313 1.443 . S
C313 H277 0.932 . S
C313 C308 1.388 . S
C313 C312 1.443 . S
H314 C341 0.929 . S
N315 C340 1.433 . S
N315 C346 1.435 . S
N315 C352 1.423 . S
H316 C342 0.930 . S
H317 C345 0.931 . S
H318 C344 0.929 . S
H319 C347 0.930 . S
H320 C348 0.932 . S
H321 C351 0.929 . S
H322 C350 0.931 . S
H323 C353 0.929 . S
H324 C357 0.932 . S
H325 C354 0.931 . S
H326 C356 0.929 . S
H327 C359 0.929 . S
H328 C360 0.930 . S
H329 C362 0.929 . S
H330 C363 0.931 . S
H331 C365 0.930 . S
H332 C366 0.932 . S
H333 C368 0.931 . S
H334 C369 0.929 . S
H335 C371 0.929 . S
H336 C372 0.931 . S
H337 C374 0.929 . S
N338 C358 1.433 . S
N338 C364 1.435 . S
N338 C370 1.423 . S
H339 C375 0.932 . S
C340 N315 1.433 . S
C340 C341 1.363 . S
C340 C345 1.370 . S
C341 H314 0.929 . S
C341 C340 1.363 . S
C341 C342 1.385 . S
C342 H316 0.930 . S
C342 C341 1.385 . S
C342 C343 1.357 . S
C343 C342 1.357 . S
C343 C344 1.406 . S
C344 H318 0.929 . S
C344 C343 1.406 . S
C344 C345 1.391 . S
C345 H317 0.931 . S
C345 C340 1.370 . S
C345 C344 1.391 . S
C346 N315 1.435 . S
C346 C347 1.358 . S
C346 C351 1.371 . S
C347 H319 0.930 . S
C347 C346 1.358 . S
C347 C348 1.405 . S
C348 H320 0.932 . S
C348 C347 1.405 . S
C348 C349 1.383 . S
C349 C348 1.383 . S
C349 C350 1.393 . S
C350 H322 0.931 . S
C350 C349 1.393 . S
C350 C351 1.382 . S
C351 H321 0.929 . S
C351 C346 1.371 . S
C351 C350 1.382 . S
C352 N315 1.423 . S
C352 C353 1.362 . S
C352 C357 1.388 . S
C353 H323 0.929 . S
C353 C352 1.362 . S
C353 C354 1.376 . S
C354 H325 0.931 . S
C354 C353 1.376 . S
C354 C355 1.396 . S
C355 C354 1.396 . S
C355 C356 1.348 . S
C355 C373 1.472 . S
C356 H326 0.929 . S
C356 C355 1.348 . S
C356 C357 1.443 . S
C357 H324 0.932 . S
C357 C352 1.388 . S
C357 C356 1.443 . S
C358 N338 1.433 . S
C358 C359 1.363 . S
C358 C363 1.370 . S
C359 H327 0.929 . S
C359 C358 1.363 . S
C359 C360 1.385 . S
C360 H328 0.930 . S
C360 C359 1.385 . S
C360 C361 1.357 . S
C361 C360 1.357 . S
C361 C362 1.406 . S
C362 H329 0.929 . S
C362 C361 1.406 . S
C362 C363 1.391 . S
C363 H330 0.931 . S
C363 C358 1.370 . S
C363 C362 1.391 . S
C364 N338 1.435 . S
C364 C365 1.358 . S
C364 C369 1.371 . S
C365 H331 0.930 . S
C365 C364 1.358 . S
C365 C366 1.405 . S
C366 H332 0.932 . S
C366 C365 1.405 . S
C366 C367 1.383 . S
C367 C366 1.383 . S
C367 C368 1.393 . S
C368 H333 0.931 . S
C368 C367 1.393 . S
C368 C369 1.382 . S
C369 H334 0.929 . S
C369 C364 1.371 . S
C369 C368 1.382 . S
C370 N338 1.423 . S
C370 C371 1.362 . S
C370 C375 1.388 . S
C371 H335 0.929 . S
C371 C370 1.362 . S
C371 C372 1.376 . S
C372 H336 0.931 . S
C372 C371 1.376 . S
C372 C373 1.396 . S
C373 C355 1.472 . S
C373 C372 1.396 . S
C373 C374 1.348 . S
C374 H337 0.929 . S
C374 C373 1.348 . S
C374 C375 1.443 . S
C375 H339 0.932 . S
C375 C370 1.388 . S
C375 C374 1.443 . S
H376 C403 0.929 . S
N377 C402 1.433 . S
N377 C408 1.435 . S
N377 C414 1.423 . S
H378 C404 0.930 . S
H379 C407 0.931 . S
H380 C406 0.929 . S
H381 C409 0.930 . S
H382 C410 0.932 . S
H383 C413 0.929 . S
H384 C412 0.931 . S
H385 C415 0.929 . S
H386 C419 0.932 . S
H387 C416 0.931 . S
H388 C418 0.929 . S
H389 C421 0.929 . S
H390 C422 0.930 . S
H391 C424 0.929 . S
H392 C425 0.931 . S
H393 C427 0.930 . S
H394 C428 0.932 . S
H395 C430 0.931 . S
H396 C431 0.929 . S
H397 C433 0.929 . S
H398 C434 0.931 . S
H399 C436 0.929 . S
N400 C420 1.433 . S
N400 C426 1.435 . S
N400 C432 1.423 . S
H401 C437 0.932 . S
C402 N377 1.433 . S
C402 C403 1.363 . S
C402 C407 1.370 . S
C403 H376 0.929 . S
C403 C402 1.363 . S
C403 C404 1.385 . S
C404 H378 0.930 . S
C404 C403 1.385 . S
C404 C405 1.357 . S
C405 C404 1.357 . S
C405 C406 1.406 . S
C406 H380 0.929 . S
C406 C405 1.406 . S
C406 C407 1.391 . S
C407 H379 0.931 . S
C407 C402 1.370 . S
C407 C406 1.391 . S
C408 N377 1.435 . S
C408 C409 1.358 . S
C408 C413 1.371 . S
C409 H381 0.930 . S
C409 C408 1.358 . S
C409 C410 1.405 . S
C410 H382 0.932 . S
C410 C409 1.405 . S
C410 C411 1.383 . S
C411 C410 1.383 . S
C411 C412 1.393 . S
C412 H384 0.931 . S
C412 C411 1.393 . S
C412 C413 1.382 . S
C413 H383 0.929 . S
C413 C408 1.371 . S
C413 C412 1.382 . S
C414 N377 1.423 . S
C414 C415 1.362 . S
C414 C419 1.388 . S
C415 H385 0.929 . S
C415 C414 1.362 . S
C415 C416 1.376 . S
C416 H387 0.931 . S
C416 C415 1.376 . S
C416 C417 1.396 . S
C417 C416 1.396 . S
C417 C418 1.348 . S
C417 C435 1.472 . S
C418 H388 0.929 . S
C418 C417 1.348 . S
C418 C419 1.443 . S
C419 H386 0.932 . S
C419 C414 1.388 . S
C419 C418 1.443 . S
C420 N400 1.433 . S
C420 C421 1.363 . S
C420 C425 1.370 . S
C421 H389 0.929 . S
C421 C420 1.363 . S
C421 C422 1.385 . S
C422 H390 0.930 . S
C422 C421 1.385 . S
C422 C423 1.357 . S
C423 C422 1.357 . S
C423 C424 1.406 . S
C424 H391 0.929 . S
C424 C423 1.406 . S
C424 C425 1.391 . S
C425 H392 0.931 . S
C425 C420 1.370 . S
C425 C424 1.391 . S
C426 N400 1.435 . S
C426 C427 1.358 . S
C426 C431 1.371 . S
C427 H393 0.930 . S
C427 C426 1.358 . S
C427 C428 1.405 . S
C428 H394 0.932 . S
C428 C427 1.405 . S
C428 C429 1.383 . S
C429 C428 1.383 . S
C429 C430 1.393 . S
C430 H395 0.931 . S
C430 C429 1.393 . S
C430 C431 1.382 . S
C431 H396 0.929 . S
C431 C426 1.371 . S
C431 C430 1.382 . S
C432 N400 1.423 . S
C432 C433 1.362 . S
C432 C437 1.388 . S
C433 H397 0.929 . S
C433 C432 1.362 . S
C433 C434 1.376 . S
C434 H398 0.931 . S
C434 C433 1.376 . S
C434 C435 1.396 . S
C435 C417 1.472 . S
C435 C434 1.396 . S
C435 C436 1.348 . S
C436 H399 0.929 . S
C436 C435 1.348 . S
C436 C437 1.443 . S
C437 H401 0.932 . S
C437 C432 1.388 . S
C437 C436 1.443 . S
H438 C465 0.929 . S
N439 C464 1.433 . S
N439 C470 1.435 . S
N439 C476 1.423 . S
H440 C466 0.930 . S
H441 C469 0.931 . S
H442 C468 0.929 . S
H443 C471 0.930 . S
H444 C472 0.932 . S
H445 C475 0.929 . S
H446 C474 0.931 . S
H447 C477 0.929 . S
H448 C481 0.932 . S
H449 C478 0.931 . S
H450 C480 0.929 . S
H451 C483 0.929 . S
H452 C484 0.930 . S
H453 C486 0.929 . S
H454 C487 0.931 . S
H455 C489 0.930 . S
H456 C490 0.932 . S
H457 C492 0.931 . S
H458 C493 0.929 . S
H459 C495 0.929 . S
H460 C496 0.931 . S
H461 C498 0.929 . S
N462 C482 1.433 . S
N462 C488 1.435 . S
N462 C494 1.423 . S
H463 C499 0.932 . S
C464 N439 1.433 . S
C464 C465 1.363 . S
C464 C469 1.370 . S
C465 H438 0.929 . S
C465 C464 1.363 . S
C465 C466 1.385 . S
C466 H440 0.930 . S
C466 C465 1.385 . S
C466 C467 1.357 . S
C467 C466 1.357 . S
C467 C468 1.406 . S
C468 H442 0.929 . S
C468 C467 1.406 . S
C468 C469 1.391 . S
C469 H441 0.931 . S
C469 C464 1.370 . S
C469 C468 1.391 . S
C470 N439 1.435 . S
C470 C471 1.358 . S
C470 C475 1.371 . S
C471 H443 0.930 . S
C471 C470 1.358 . S
C471 C472 1.405 . S
C472 H444 0.932 . S
C472 C471 1.405 . S
C472 C473 1.383 . S
C473 C472 1.383 . S
C473 C474 1.393 . S
C474 H446 0.931 . S
C474 C473 1.393 . S
C474 C475 1.382 . S
C475 H445 0.929 . S
C475 C470 1.371 . S
C475 C474 1.382 . S
C476 N439 1.423 . S
C476 C477 1.362 . S
C476 C481 1.388 . S
C477 H447 0.929 . S
C477 C476 1.362 . S
C477 C478 1.376 . S
C478 H449 0.931 . S
C478 C477 1.376 . S
C478 C479 1.396 . S
C479 C478 1.396 . S
C479 C480 1.348 . S
C479 C497 1.472 . S
C480 H450 0.929 . S
C480 C479 1.348 . S
C480 C481 1.443 . S
C481 H448 0.932 . S
C481 C476 1.388 . S
C481 C480 1.443 . S
C482 N462 1.433 . S
C482 C483 1.363 . S
C482 C487 1.370 . S
C483 H451 0.929 . S
C483 C482 1.363 . S
C483 C484 1.385 . S
C484 H452 0.930 . S
C484 C483 1.385 . S
C484 C485 1.357 . S
C485 C484 1.357 . S
C485 C486 1.406 . S
C486 H453 0.929 . S
C486 C485 1.406 . S
C486 C487 1.391 . S
C487 H454 0.931 . S
C487 C482 1.370 . S
C487 C486 1.391 . S
C488 N462 1.435 . S
C488 C489 1.358 . S
C488 C493 1.371 . S
C489 H455 0.930 . S
C489 C488 1.358 . S
C489 C490 1.405 . S
C490 H456 0.932 . S
C490 C489 1.405 . S
C490 C491 1.383 . S
C491 C490 1.383 . S
C491 C492 1.393 . S
C492 H457 0.931 . S
C492 C491 1.393 . S
C492 C493 1.382 . S
C493 H458 0.929 . S
C493 C488 1.371 . S
C493 C492 1.382 . S
C494 N462 1.423 . S
C494 C495 1.362 . S
C494 C499 1.388 . S
C495 H459 0.929 . S
C495 C494 1.362 . S
C495 C496 1.376 . S
C496 H460 0.931 . S
C496 C495 1.376 . S
C496 C497 1.396 . S
C497 C479 1.472 . S
C497 C496 1.396 . S
C497 C498 1.348 . S
C498 H461 0.929 . S
C498 C497 1.348 . S
C498 C499 1.443 . S
C499 H463 0.932 . S
C499 C494 1.388 . S
C499 C498 1.443 . S
H500 C527 0.929 . S
N501 C526 1.433 . S
N501 C532 1.435 . S
N501 C538 1.423 . S
H502 C528 0.930 . S
H503 C531 0.931 . S
H504 C530 0.929 . S
H505 C533 0.930 . S
H506 C534 0.932 . S
H507 C537 0.929 . S
H508 C536 0.931 . S
H509 C539 0.929 . S
H510 C543 0.932 . S
H511 C540 0.931 . S
H512 C542 0.929 . S
H513 C545 0.929 . S
H514 C546 0.930 . S
H515 C548 0.929 . S
H516 C549 0.931 . S
H517 C551 0.930 . S
H518 C552 0.932 . S
H519 C554 0.931 . S
H520 C555 0.929 . S
H521 C557 0.929 . S
H522 C558 0.931 . S
H523 C560 0.929 . S
N524 C544 1.433 . S
N524 C550 1.435 . S
N524 C556 1.423 . S
H525 C561 0.932 . S
C526 N501 1.433 . S
C526 C527 1.363 . S
C526 C531 1.370 . S
C527 H500 0.929 . S
C527 C526 1.363 . S
C527 C528 1.385 . S
C528 H502 0.930 . S
C528 C527 1.385 . S
C528 C529 1.357 . S
C529 C528 1.357 . S
C529 C530 1.406 . S
C530 H504 0.929 . S
C530 C529 1.406 . S
C530 C531 1.391 . S
C531 H503 0.931 . S
C531 C526 1.370 . S
C531 C530 1.391 . S
C532 N501 1.435 . S
C532 C533 1.358 . S
C532 C537 1.371 . S
C533 H505 0.930 . S
C533 C532 1.358 . S
C533 C534 1.405 . S
C534 H506 0.932 . S
C534 C533 1.405 . S
C534 C535 1.383 . S
C535 C534 1.383 . S
C535 C536 1.393 . S
C536 H508 0.931 . S
C536 C535 1.393 . S
C536 C537 1.382 . S
C537 H507 0.929 . S
C537 C532 1.371 . S
C537 C536 1.382 . S
C538 N501 1.423 . S
C538 C539 1.362 . S
C538 C543 1.388 . S
C539 H509 0.929 . S
C539 C538 1.362 . S
C539 C540 1.376 . S
C540 H511 0.931 . S
C540 C539 1.376 . S
C540 C541 1.396 . S
C541 C540 1.396 . S
C541 C542 1.348 . S
C541 C559 1.472 . S
C542 H512 0.929 . S
C542 C541 1.348 . S
C542 C543 1.443 . S
C543 H510 0.932 . S
C543 C538 1.388 . S
C543 C542 1.443 . S
C544 N524 1.433 . S
C544 C545 1.363 . S
C544 C549 1.370 . S
C545 H513 0.929 . S
C545 C544 1.363 . S
C545 C546 1.385 . S
C546 H514 0.930 . S
C546 C545 1.385 . S
C546 C547 1.357 . S
C547 C546 1.357 . S
C547 C548 1.406 . S
C548 H515 0.929 . S
C548 C547 1.406 . S
C548 C549 1.391 . S
C549 H516 0.931 . S
C549 C544 1.370 . S
C549 C548 1.391 . S
C550 N524 1.435 . S
C550 C551 1.358 . S
C550 C555 1.371 . S
C551 H517 0.930 . S
C551 C550 1.358 . S
C551 C552 1.405 . S
C552 H518 0.932 . S
C552 C551 1.405 . S
C552 C553 1.383 . S
C553 C552 1.383 . S
C553 C554 1.393 . S
C554 H519 0.931 . S
C554 C553 1.393 . S
C554 C555 1.382 . S
C555 H520 0.929 . S
C555 C550 1.371 . S
C555 C554 1.382 . S
C556 N524 1.423 . S
C556 C557 1.362 . S
C556 C561 1.388 . S
C557 H521 0.929 . S
C557 C556 1.362 . S
C557 C558 1.376 . S
C558 H522 0.931 . S
C558 C557 1.376 . S
C558 C559 1.396 . S
C559 C541 1.472 . S
C559 C558 1.396 . S
C559 C560 1.348 . S
C560 H523 0.929 . S
C560 C559 1.348 . S
C560 C561 1.443 . S
C561 H525 0.932 . S
C561 C556 1.388 . S
C561 C560 1.443 . S
H562 C589 0.929 . S
N563 C588 1.433 . S
N563 C594 1.435 . S
N563 C600 1.423 . S
H564 C590 0.930 . S
H565 C593 0.931 . S
H566 C592 0.929 . S
H567 C595 0.930 . S
H568 C596 0.932 . S
H569 C599 0.929 . S
H570 C598 0.931 . S
H571 C601 0.929 . S
H572 C605 0.932 . S
H573 C602 0.931 . S
H574 C604 0.929 . S
H575 C607 0.929 . S
H576 C608 0.930 . S
H577 C610 0.929 . S
H578 C611 0.931 . S
H579 C613 0.930 . S
H580 C614 0.932 . S
H581 C616 0.931 . S
H582 C617 0.929 . S
H583 C619 0.929 . S
H584 C620 0.931 . S
H585 C622 0.929 . S
N586 C606 1.433 . S
N586 C612 1.435 . S
N586 C618 1.423 . S
H587 C623 0.932 . S
C588 N563 1.433 . S
C588 C589 1.363 . S
C588 C593 1.370 . S
C589 H562 0.929 . S
C589 C588 1.363 . S
C589 C590 1.385 . S
C590 H564 0.930 . S
C590 C589 1.385 . S
C590 C591 1.357 . S
C591 C590 1.357 . S
C591 C592 1.406 . S
C592 H566 0.929 . S
C592 C591 1.406 . S
C592 C593 1.391 . S
C593 H565 0.931 . S
C593 C588 1.370 . S
C593 C592 1.391 . S
C594 N563 1.435 . S
C594 C595 1.358 . S
C594 C599 1.371 . S
C595 H567 0.930 . S
C595 C594 1.358 . S
C595 C596 1.405 . S
C596 H568 0.932 . S
C596 C595 1.405 . S
C596 C597 1.383 . S
C597 C596 1.383 . S
C597 C598 1.393 . S
C598 H570 0.931 . S
C598 C597 1.393 . S
C598 C599 1.382 . S
C599 H569 0.929 . S
C599 C594 1.371 . S
C599 C598 1.382 . S
C600 N563 1.423 . S
C600 C601 1.362 . S
C600 C605 1.388 . S
C601 H571 0.929 . S
C601 C600 1.362 . S
C601 C602 1.376 . S
C602 H573 0.931 . S
C602 C601 1.376 . S
C602 C603 1.396 . S
C603 C602 1.396 . S
C603 C604 1.348 . S
C603 C621 1.472 . S
C604 H574 0.929 . S
C604 C603 1.348 . S
C604 C605 1.443 . S
C605 H572 0.932 . S
C605 C600 1.388 . S
C605 C604 1.443 . S
C606 N586 1.433 . S
C606 C607 1.363 . S
C606 C611 1.370 . S
C607 H575 0.929 . S
C607 C606 1.363 . S
C607 C608 1.385 . S
C608 H576 0.930 . S
C608 C607 1.385 . S
C608 C609 1.357 . S
C609 C608 1.357 . S
C609 C610 1.406 . S
C610 H577 0.929 . S
C610 C609 1.406 . S
C610 C611 1.391 . S
C611 H578 0.931 . S
C611 C606 1.370 . S
C611 C610 1.391 . S
C612 N586 1.435 . S
C612 C613 1.358 . S
C612 C617 1.371 . S
C613 H579 0.930 . S
C613 C612 1.358 . S
C613 C614 1.405 . S
C614 H580 0.932 . S
C614 C613 1.405 . S
C614 C615 1.383 . S
C615 C614 1.383 . S
C615 C616 1.393 . S
C616 H581 0.931 . S
C616 C615 1.393 . S
C616 C617 1.382 . S
C617 H582 0.929 . S
C617 C612 1.371 . S
C617 C616 1.382 . S
C618 N586 1.423 . S
C618 C619 1.362 . S
C618 C623 1.388 . S
C619 H583 0.929 . S
C619 C618 1.362 . S
C619 C620 1.376 . S
C620 H584 0.931 . S
C620 C619 1.376 . S
C620 C621 1.396 . S
C621 C603 1.472 . S
C621 C620 1.396 . S
C621 C622 1.348 . S
C622 H585 0.929 . S
C622 C621 1.348 . S
C622 C623 1.443 . S
C623 H587 0.932 . S
C623 C618 1.388 . S
C623 C622 1.443 . S
H624 C651 0.929 . S
N625 C650 1.433 . S
N625 C656 1.435 . S
N625 C662 1.423 . S
H626 C652 0.930 . S
H627 C655 0.931 . S
H628 C654 0.929 . S
H629 C657 0.930 . S
H630 C658 0.932 . S
H631 C661 0.929 . S
H632 C660 0.931 . S
H633 C663 0.929 . S
H634 C667 0.932 . S
H635 C664 0.931 . S
H636 C666 0.929 . S
H637 C669 0.929 . S
H638 C670 0.930 . S
H639 C672 0.929 . S
H640 C673 0.931 . S
H641 C675 0.930 . S
H642 C676 0.932 . S
H643 C678 0.931 . S
H644 C679 0.929 . S
H645 C681 0.929 . S
H646 C682 0.931 . S
H647 C684 0.929 . S
N648 C668 1.433 . S
N648 C674 1.435 . S
N648 C680 1.423 . S
H649 C685 0.932 . S
C650 N625 1.433 . S
C650 C651 1.363 . S
C650 C655 1.370 . S
C651 H624 0.929 . S
C651 C650 1.363 . S
C651 C652 1.385 . S
C652 H626 0.930 . S
C652 C651 1.385 . S
C652 C653 1.357 . S
C653 C652 1.357 . S
C653 C654 1.406 . S
C654 H628 0.929 . S
C654 C653 1.406 . S
C654 C655 1.391 . S
C655 H627 0.931 . S
C655 C650 1.370 . S
C655 C654 1.391 . S
C656 N625 1.435 . S
C656 C657 1.358 . S
C656 C661 1.371 . S
C657 H629 0.930 . S
C657 C656 1.358 . S
C657 C658 1.405 . S
C658 H630 0.932 . S
C658 C657 1.405 . S
C658 C659 1.383 . S
C659 C658 1.383 . S
C659 C660 1.393 . S
C660 H632 0.931 . S
C660 C659 1.393 . S
C660 C661 1.382 . S
C661 H631 0.929 . S
C661 C656 1.371 . S
C661 C660 1.382 . S
C662 N625 1.423 . S
C662 C663 1.362 . S
C662 C667 1.388 . S
C663 H633 0.929 . S
C663 C662 1.362 . S
C663 C664 1.376 . S
C664 H635 0.931 . S
C664 C663 1.376 . S
C664 C665 1.396 . S
C665 C664 1.396 . S
C665 C666 1.348 . S
C665 C683 1.472 . S
C666 H636 0.929 . S
C666 C665 1.348 . S
C666 C667 1.443 . S
C667 H634 0.932 . S
C667 C662 1.388 . S
C667 C666 1.443 . S
C668 N648 1.433 . S
C668 C669 1.363 . S
C668 C673 1.370 . S
C669 H637 0.929 . S
C669 C668 1.363 . S
C669 C670 1.385 . S
C670 H638 0.930 . S
C670 C669 1.385 . S
C670 C671 1.357 . S
C671 C670 1.357 . S
C671 C672 1.406 . S
C672 H639 0.929 . S
C672 C671 1.406 . S
C672 C673 1.391 . S
C673 H640 0.931 . S
C673 C668 1.370 . S
C673 C672 1.391 . S
C674 N648 1.435 . S
C674 C675 1.358 . S
C674 C679 1.371 . S
C675 H641 0.930 . S
C675 C674 1.358 . S
C675 C676 1.405 . S
C676 H642 0.932 . S
C676 C675 1.405 . S
C676 C677 1.383 . S
C677 C676 1.383 . S
C677 C678 1.393 . S
C678 H643 0.931 . S
C678 C677 1.393 . S
C678 C679 1.382 . S
C679 H644 0.929 . S
C679 C674 1.371 . S
C679 C678 1.382 . S
C680 N648 1.423 . S
C680 C681 1.362 . S
C680 C685 1.388 . S
C681 H645 0.929 . S
C681 C680 1.362 . S
C681 C682 1.376 . S
C682 H646 0.931 . S
C682 C681 1.376 . S
C682 C683 1.396 . S
C683 C665 1.472 . S
C683 C682 1.396 . S
C683 C684 1.348 . S
C684 H647 0.929 . S
C684 C683 1.348 . S
C684 C685 1.443 . S
C685 H649 0.932 . S
C685 C680 1.388 . S
C685 C684 1.443 . S
H686 C713 0.929 . S
N687 C712 1.433 . S
N687 C718 1.435 . S
N687 C724 1.423 . S
H688 C714 0.930 . S
H689 C717 0.931 . S
H690 C716 0.929 . S
H691 C719 0.930 . S
H692 C720 0.932 . S
H693 C723 0.929 . S
H694 C722 0.931 . S
H695 C725 0.929 . S
H696 C729 0.932 . S
H697 C726 0.931 . S
H698 C728 0.929 . S
H699 C731 0.929 . S
H700 C732 0.930 . S
H701 C734 0.929 . S
H702 C735 0.931 . S
H703 C737 0.930 . S
H704 C738 0.932 . S
H705 C740 0.931 . S
H706 C741 0.929 . S
H707 C743 0.929 . S
H708 C744 0.931 . S
H709 C746 0.929 . S
N710 C730 1.433 . S
N710 C736 1.435 . S
N710 C742 1.423 . S
H711 C747 0.932 . S
C712 N687 1.433 . S
C712 C713 1.363 . S
C712 C717 1.370 . S
C713 H686 0.929 . S
C713 C712 1.363 . S
C713 C714 1.385 . S
C714 H688 0.930 . S
C714 C713 1.385 . S
C714 C715 1.357 . S
C715 C714 1.357 . S
C715 C716 1.406 . S
C716 H690 0.929 . S
C716 C715 1.406 . S
C716 C717 1.391 . S
C717 H689 0.931 . S
C717 C712 1.370 . S
C717 C716 1.391 . S
C718 N687 1.435 . S
C718 C719 1.358 . S
C718 C723 1.371 . S
C719 H691 0.930 . S
C719 C718 1.358 . S
C719 C720 1.405 . S
C720 H692 0.932 . S
C720 C719 1.405 . S
C720 C721 1.383 . S
C721 C720 1.383 . S
C721 C722 1.393 . S
C722 H694 0.931 . S
C722 C721 1.393 . S
C722 C723 1.382 . S
C723 H693 0.929 . S
C723 C718 1.371 . S
C723 C722 1.382 . S
C724 N687 1.423 . S
C724 C725 1.362 . S
C724 C729 1.388 . S
C725 H695 0.929 . S
C725 C724 1.362 . S
C725 C726 1.376 . S
C726 H697 0.931 . S
C726 C725 1.376 . S
C726 C727 1.396 . S
C727 C726 1.396 . S
C727 C728 1.348 . S
C727 C745 1.472 . S
C728 H698 0.929 . S
C728 C727 1.348 . S
C728 C729 1.443 . S
C729 H696 0.932 . S
C729 C724 1.388 . S
C729 C728 1.443 . S
C730 N710 1.433 . S
C730 C731 1.363 . S
C730 C735 1.370 . S
C731 H699 0.929 . S
C731 C730 1.363 . S
C731 C732 1.385 . S
C732 H700 0.930 . S
C732 C731 1.385 . S
C732 C733 1.357 . S
C733 C732 1.357 . S
C733 C734 1.406 . S
C734 H701 0.929 . S
C734 C733 1.406 . S
C734 C735 1.391 . S
C735 H702 0.931 . S
C735 C730 1.370 . S
C735 C734 1.391 . S
C736 N710 1.435 . S
C736 C737 1.358 . S
C736 C741 1.371 . S
C737 H703 0.930 . S
C737 C736 1.358 . S
C737 C738 1.405 . S
C738 H704 0.932 . S
C738 C737 1.405 . S
C738 C739 1.383 . S
C739 C738 1.383 . S
C739 C740 1.393 . S
C740 H705 0.931 . S
C740 C739 1.393 . S
C740 C741 1.382 . S
C741 H706 0.929 . S
C741 C736 1.371 . S
C741 C740 1.382 . S
C742 N710 1.423 . S
C742 C743 1.362 . S
C742 C747 1.388 . S
C743 H707 0.929 . S
C743 C742 1.362 . S
C743 C744 1.376 . S
C744 H708 0.931 . S
C744 C743 1.376 . S
C744 C745 1.396 . S
C745 C727 1.472 . S
C745 C744 1.396 . S
C745 C746 1.348 . S
C746 H709 0.929 . S
C746 C745 1.348 . S
C746 C747 1.443 . S
C747 H711 0.932 . S
C747 C742 1.388 . S
C747 C746 1.443 . S
H748 C775 0.929 . S
N749 C774 1.433 . S
N749 C780 1.435 . S
N749 C786 1.423 . S
H750 C776 0.930 . S
H751 C779 0.931 . S
H752 C778 0.929 . S
H753 C781 0.930 . S
H754 C782 0.932 . S
H755 C785 0.929 . S
H756 C784 0.931 . S
H757 C787 0.929 . S
H758 C791 0.932 . S
H759 C788 0.931 . S
H760 C790 0.929 . S
H761 C793 0.929 . S
H762 C794 0.930 . S
H763 C796 0.929 . S
H764 C797 0.931 . S
H765 C799 0.930 . S
H766 C800 0.932 . S
H767 C802 0.931 . S
H768 C803 0.929 . S
H769 C805 0.929 . S
H770 C806 0.931 . S
H771 C808 0.929 . S
N772 C792 1.433 . S
N772 C798 1.435 . S
N772 C804 1.423 . S
H773 C809 0.932 . S
C774 N749 1.433 . S
C774 C775 1.363 . S
C774 C779 1.370 . S
C775 H748 0.929 . S
C775 C774 1.363 . S
C775 C776 1.385 . S
C776 H750 0.930 . S
C776 C775 1.385 . S
C776 C777 1.357 . S
C777 C776 1.357 . S
C777 C778 1.406 . S
C778 H752 0.929 . S
C778 C777 1.406 . S
C778 C779 1.391 . S
C779 H751 0.931 . S
C779 C774 1.370 . S
C779 C778 1.391 . S
C780 N749 1.435 . S
C780 C781 1.358 . S
C780 C785 1.371 . S
C781 H753 0.930 . S
C781 C780 1.358 . S
C781 C782 1.405 . S
C782 H754 0.932 . S
C782 C781 1.405 . S
C782 C783 1.383 . S
C783 C782 1.383 . S
C783 C784 1.393 . S
C784 H756 0.931 . S
C784 C783 1.393 . S
C784 C785 1.382 . S
C785 H755 0.929 . S
C785 C780 1.371 . S
C785 C784 1.382 . S
C786 N749 1.423 . S
C786 C787 1.362 . S
C786 C791 1.388 . S
C787 H757 0.929 . S
C787 C786 1.362 . S
C787 C788 1.376 . S
C788 H759 0.931 . S
C788 C787 1.376 . S
C788 C789 1.396 . S
C789 C788 1.396 . S
C789 C790 1.348 . S
C789 C807 1.472 . S
C790 H760 0.929 . S
C790 C789 1.348 . S
C790 C791 1.443 . S
C791 H758 0.932 . S
C791 C786 1.388 . S
C791 C790 1.443 . S
C792 N772 1.433 . S
C792 C793 1.363 . S
C792 C797 1.370 . S
C793 H761 0.929 . S
C793 C792 1.363 . S
C793 C794 1.385 . S
C794 H762 0.930 . S
C794 C793 1.385 . S
C794 C795 1.357 . S
C795 C794 1.357 . S
C795 C796 1.406 . S
C796 H763 0.929 . S
C796 C795 1.406 . S
C796 C797 1.391 . S
C797 H764 0.931 . S
C797 C792 1.370 . S
C797 C796 1.391 . S
C798 N772 1.435 . S
C798 C799 1.358 . S
C798 C803 1.371 . S
C799 H765 0.930 . S
C799 C798 1.358 . S
C799 C800 1.405 . S
C800 H766 0.932 . S
C800 C799 1.405 . S
C800 C801 1.383 . S
C801 C800 1.383 . S
C801 C802 1.393 . S
C802 H767 0.931 . S
C802 C801 1.393 . S
C802 C803 1.382 . S
C803 H768 0.929 . S
C803 C798 1.371 . S
C803 C802 1.382 . S
C804 N772 1.423 . S
C804 C805 1.362 . S
C804 C809 1.388 . S
C805 H769 0.929 . S
C805 C804 1.362 . S
C805 C806 1.376 . S
C806 H770 0.931 . S
C806 C805 1.376 . S
C806 C807 1.396 . S
C807 C789 1.472 . S
C807 C806 1.396 . S
C807 C808 1.348 . S
C808 H771 0.929 . S
C808 C807 1.348 . S
C808 C809 1.443 . S
C809 H773 0.932 . S
C809 C804 1.388 . S
C809 C808 1.443 . S
H810 C837 0.929 . S
N811 C836 1.433 . S
N811 C842 1.435 . S
N811 C848 1.423 . S
H812 C838 0.930 . S
H813 C841 0.931 1_655 S
H814 C840 0.929 . S
H815 C843 0.930 1_655 S
H816 C844 0.932 1_655 S
H817 C847 0.929 . S
H818 C846 0.931 . S
H819 C849 0.929 . S
H820 C853 0.932 . S
H821 C850 0.931 . S
H822 C852 0.929 . S
H823 C855 0.929 . S
H824 C856 0.930 . S
H825 C858 0.929 . S
H826 C859 0.931 1_655 S
H827 C861 0.930 1_655 S
H828 C862 0.932 1_655 S
H829 C864 0.931 . S
H830 C865 0.929 . S
H831 C867 0.929 . S
H832 C868 0.931 . S
H833 C870 0.929 . S
N834 C854 1.433 . S
N834 C860 1.435 . S
N834 C866 1.423 . S
H835 C871 0.932 . S
C836 N811 1.433 . S
C836 C837 1.363 . S
C836 C841 1.370 . S
C837 H810 0.929 . S
C837 C836 1.363 . S
C837 C838 1.385 . S
C838 H812 0.930 . S
C838 C837 1.385 . S
C838 C839 1.357 . S
C839 C838 1.357 . S
C839 C840 1.406 1_455 S
C840 H814 0.929 . S
C840 C839 1.406 1_655 S
C840 C841 1.391 1_655 S
C841 H813 0.931 1_455 S
C841 C836 1.370 . S
C841 C840 1.391 1_455 S
C842 N811 1.435 . S
C842 C843 1.358 . S
C842 C847 1.371 . S
C843 H815 0.930 1_455 S
C843 C842 1.358 . S
C843 C844 1.405 . S
C844 H816 0.932 1_455 S
C844 C843 1.405 . S
C844 C845 1.383 . S
C845 C844 1.383 . S
C845 C846 1.393 . S
C846 H818 0.931 . S
C846 C845 1.393 . S
C846 C847 1.382 . S
C847 H817 0.929 . S
C847 C842 1.371 . S
C847 C846 1.382 . S
C848 N811 1.423 . S
C848 C849 1.362 . S
C848 C853 1.388 . S
C849 H819 0.929 . S
C849 C848 1.362 . S
C849 C850 1.376 . S
C850 H821 0.931 . S
C850 C849 1.376 . S
C850 C851 1.396 . S
C851 C850 1.396 . S
C851 C852 1.348 . S
C851 C869 1.472 . S
C852 H822 0.929 . S
C852 C851 1.348 . S
C852 C853 1.443 . S
C853 H820 0.932 . S
C853 C848 1.388 . S
C853 C852 1.443 . S
C854 N834 1.433 . S
C854 C855 1.363 . S
C854 C859 1.370 . S
C855 H823 0.929 . S
C855 C854 1.363 . S
C855 C856 1.385 . S
C856 H824 0.930 . S
C856 C855 1.385 . S
C856 C857 1.357 . S
C857 C856 1.357 . S
C857 C858 1.406 1_455 S
C858 H825 0.929 . S
C858 C857 1.406 1_655 S
C858 C859 1.391 1_655 S
C859 H826 0.931 1_455 S
C859 C854 1.370 . S
C859 C858 1.391 1_455 S
C860 N834 1.435 . S
C860 C861 1.358 . S
C860 C865 1.371 . S
C861 H827 0.930 1_455 S
C861 C860 1.358 . S
C861 C862 1.405 . S
C862 H828 0.932 1_455 S
C862 C861 1.405 . S
C862 C863 1.383 . S
C863 C862 1.383 . S
C863 C864 1.393 . S
C864 H829 0.931 . S
C864 C863 1.393 . S
C864 C865 1.382 . S
C865 H830 0.929 . S
C865 C860 1.371 . S
C865 C864 1.382 . S
C866 N834 1.423 . S
C866 C867 1.362 . S
C866 C871 1.388 . S
C867 H831 0.929 . S
C867 C866 1.362 . S
C867 C868 1.376 . S
C868 H832 0.931 . S
C868 C867 1.376 . S
C868 C869 1.396 . S
C869 C851 1.472 . S
C869 C868 1.396 . S
C869 C870 1.348 . S
C870 H833 0.929 . S
C870 C869 1.348 . S
C870 C871 1.443 . S
C871 H835 0.932 . S
C871 C866 1.388 . S
C871 C870 1.443 . S
H872 C899 0.929 . S
N873 C898 1.433 . S
N873 C904 1.435 . S
N873 C910 1.423 . S
H874 C900 0.930 . S
H875 C903 0.931 . S
H876 C902 0.929 . S
H877 C905 0.930 . S
H878 C906 0.932 . S
H879 C909 0.929 . S
H880 C908 0.931 . S
H881 C911 0.929 . S
H882 C915 0.932 . S
H883 C912 0.931 . S
H884 C914 0.929 . S
H885 C917 0.929 . S
H886 C918 0.930 . S
H887 C920 0.929 . S
H888 C921 0.931 . S
H889 C923 0.930 . S
H890 C924 0.932 . S
H891 C926 0.931 . S
H892 C927 0.929 . S
H893 C929 0.929 . S
H894 C930 0.931 . S
H895 C932 0.929 . S
N896 C916 1.433 . S
N896 C922 1.435 . S
N896 C928 1.423 . S
H897 C933 0.932 . S
C898 N873 1.433 . S
C898 C899 1.363 . S
C898 C903 1.370 . S
C899 H872 0.929 . S
C899 C898 1.363 . S
C899 C900 1.385 . S
C900 H874 0.930 . S
C900 C899 1.385 . S
C900 C901 1.357 . S
C901 C900 1.357 . S
C901 C902 1.406 . S
C902 H876 0.929 . S
C902 C901 1.406 . S
C902 C903 1.391 . S
C903 H875 0.931 . S
C903 C898 1.370 . S
C903 C902 1.391 . S
C904 N873 1.435 . S
C904 C905 1.358 . S
C904 C909 1.371 . S
C905 H877 0.930 . S
C905 C904 1.358 . S
C905 C906 1.405 . S
C906 H878 0.932 . S
C906 C905 1.405 . S
C906 C907 1.383 . S
C907 C906 1.383 . S
C907 C908 1.393 . S
C908 H880 0.931 . S
C908 C907 1.393 . S
C908 C909 1.382 . S
C909 H879 0.929 . S
C909 C904 1.371 . S
C909 C908 1.382 . S
C910 N873 1.423 . S
C910 C911 1.362 . S
C910 C915 1.388 . S
C911 H881 0.929 . S
C911 C910 1.362 . S
C911 C912 1.376 . S
C912 H883 0.931 . S
C912 C911 1.376 . S
C912 C913 1.396 . S
C913 C912 1.396 . S
C913 C914 1.348 . S
C913 C931 1.472 . S
C914 H884 0.929 . S
C914 C913 1.348 . S
C914 C915 1.443 . S
C915 H882 0.932 . S
C915 C910 1.388 . S
C915 C914 1.443 . S
C916 N896 1.433 . S
C916 C917 1.363 . S
C916 C921 1.370 . S
C917 H885 0.929 . S
C917 C916 1.363 . S
C917 C918 1.385 . S
C918 H886 0.930 . S
C918 C917 1.385 . S
C918 C919 1.357 . S
C919 C918 1.357 . S
C919 C920 1.406 . S
C920 H887 0.929 . S
C920 C919 1.406 . S
C920 C921 1.391 . S
C921 H888 0.931 . S
C921 C916 1.370 . S
C921 C920 1.391 . S
C922 N896 1.435 . S
C922 C923 1.358 . S
C922 C927 1.371 . S
C923 H889 0.930 . S
C923 C922 1.358 . S
C923 C924 1.405 . S
C924 H890 0.932 . S
C924 C923 1.405 . S
C924 C925 1.383 . S
C925 C924 1.383 . S
C925 C926 1.393 . S
C926 H891 0.931 . S
C926 C925 1.393 . S
C926 C927 1.382 . S
C927 H892 0.929 . S
C927 C922 1.371 . S
C927 C926 1.382 . S
C928 N896 1.423 . S
C928 C929 1.362 . S
C928 C933 1.388 . S
C929 H893 0.929 . S
C929 C928 1.362 . S
C929 C930 1.376 . S
C930 H894 0.931 . S
C930 C929 1.376 . S
C930 C931 1.396 . S
C931 C913 1.472 . S
C931 C930 1.396 . S
C931 C932 1.348 . S
C932 H895 0.929 . S
C932 C931 1.348 . S
C932 C933 1.443 . S
C933 H897 0.932 . S
C933 C928 1.388 . S
C933 C932 1.443 . S
H934 C961 0.929 . S
N935 C960 1.433 . S
N935 C966 1.435 . S
N935 C972 1.423 . S
H936 C962 0.930 . S
H937 C965 0.931 . S
H938 C964 0.929 . S
H939 C967 0.930 . S
H940 C968 0.932 . S
H941 C971 0.929 . S
H942 C970 0.931 . S
H943 C973 0.929 . S
H944 C977 0.932 1_545 S
H945 C974 0.931 . S
H946 C976 0.980 . S
H947 C979 0.929 . S
H948 C980 0.930 . S
H949 C982 0.929 . S
H950 C983 0.931 . S
H951 C985 0.930 . S
H952 C986 0.932 . S
H953 C988 0.931 . S
H954 C989 0.929 . S
H955 C991 0.929 . S
H956 C992 0.931 . S
H957 C994 0.940 . S
N958 C978 1.433 . S
N958 C984 1.435 . S
N958 C990 1.423 . S
H959 C995 0.932 1_545 S
C960 N935 1.433 . S
C960 C961 1.363 . S
C960 C965 1.370 1_565 S
C961 H934 0.929 . S
C961 C960 1.363 . S
C961 C962 1.385 . S
C962 H936 0.930 . S
C962 C961 1.385 . S
C962 C963 1.357 1_565 S
C963 C962 1.357 1_545 S
C963 C964 1.406 . S
C964 H938 0.929 . S
C964 C963 1.406 . S
C964 C965 1.391 . S
C965 H937 0.931 . S
C965 C960 1.370 1_545 S
C965 C964 1.391 . S
C966 N935 1.435 . S
C966 C967 1.358 1_565 S
C966 C971 1.371 . S
C967 H939 0.930 . S
C967 C966 1.358 1_545 S
C967 C968 1.405 . S
C968 H940 0.932 . S
C968 C967 1.405 . S
C968 C969 1.383 1_545 S
C969 C968 1.383 1_565 S
C969 C970 1.393 . S
C970 H942 0.931 . S
C970 C969 1.393 . S
C970 C971 1.382 . S
C971 H941 0.929 . S
C971 C966 1.371 . S
C971 C970 1.382 . S
C972 N935 1.423 . S
C972 C973 1.362 . S
C972 C977 1.388 . S
C973 H943 0.929 . S
C973 C972 1.362 . S
C973 C974 1.376 . S
C974 H945 0.931 . S
C974 C973 1.376 . S
C974 C975 1.396 . S
C975 C974 1.396 . S
C975 C976 1.348 . S
C975 C993 1.472 . S
C976 H946 0.980 . S
C976 C975 1.348 . S
C976 C977 1.443 . S
C977 H944 0.932 1_565 S
C977 C972 1.388 . S
C977 C976 1.443 . S
C978 N958 1.433 . S
C978 C979 1.363 . S
C978 C983 1.370 1_565 S
C979 H947 0.929 . S
C979 C978 1.363 . S
C979 C980 1.385 . S
C980 H948 0.930 . S
C980 C979 1.385 . S
C980 C981 1.357 1_565 S
C981 C980 1.357 1_545 S
C981 C982 1.406 . S
C982 H949 0.929 . S
C982 C981 1.406 . S
C982 C983 1.391 . S
C983 H950 0.931 . S
C983 C978 1.370 1_545 S
C983 C982 1.391 . S
C984 N958 1.435 . S
C984 C985 1.358 1_565 S
C984 C989 1.371 . S
C985 H951 0.930 . S
C985 C984 1.358 1_545 S
C985 C986 1.405 . S
C986 H952 0.932 . S
C986 C985 1.405 . S
C986 C987 1.383 1_545 S
C987 C986 1.383 1_565 S
C987 C988 1.393 . S
C988 H953 0.931 . S
C988 C987 1.393 . S
C988 C989 1.382 . S
C989 H954 0.929 . S
C989 C984 1.371 . S
C989 C988 1.382 . S
C990 N958 1.423 . S
C990 C991 1.362 . S
C990 C995 1.388 . S
C991 H955 0.929 . S
C991 C990 1.362 . S
C991 C992 1.376 . S
C992 H956 0.931 . S
C992 C991 1.376 . S
C992 C993 1.396 . S
C993 C975 1.472 . S
C993 C992 1.396 . S
C993 C994 1.348 . S
C994 H957 0.940 . S
C994 C993 1.348 . S
C994 C995 1.443 . S
C995 H959 0.932 1_565 S
C995 C990 1.388 . S
C995 C994 1.443 . S
H996 C1023 0.929 . S
N997 C1022 1.433 . S
N997 C1028 1.435 . S
N997 C1034 1.395 1_545 S
H998 C1024 0.930 . S
H999 C1027 0.931 . S
H1000 C1026 0.929 . S
H1001 C1029 0.930 . S
H1002 C1030 0.932 . S
H1003 C1033 0.929 . S
H1004 C1032 0.931 1_565 S
H1005 C1035 0.929 . S
H1006 C1039 0.932 . S
H1007 C1036 0.931 . S
H1008 C1038 0.929 . S
H1009 C1041 0.929 . S
H1010 C1042 0.930 . S
H1011 C1044 0.929 . S
H1012 C1045 0.931 . S
H1013 C1047 0.930 . S
H1014 C1048 0.932 . S
H1015 C1050 0.931 1_565 S
H1016 C1051 0.929 . S
H1017 C1053 0.929 . S
H1018 C1054 0.931 . S
H1019 C1056 0.929 . S
N1020 C1040 1.433 . S
N1020 C1046 1.435 . S
N1020 C1052 1.442 1_545 S
H1021 C1057 0.932 . S
C1022 N997 1.433 . S
C1022 C1023 1.363 1_545 S
C1022 C1027 1.370 . S
C1023 H996 0.929 . S
C1023 C1022 1.363 1_565 S
C1023 C1024 1.385 . S
C1024 H998 0.930 . S
C1024 C1023 1.385 . S
C1024 C1025 1.357 1_565 S
C1025 C1024 1.357 1_545 S
C1025 C1026 1.406 . S
C1026 H1000 0.929 . S
C1026 C1025 1.406 . S
C1026 C1027 1.391 . S
C1027 H999 0.931 . S
C1027 C1022 1.370 . S
C1027 C1026 1.391 . S
C1028 N997 1.435 . S
C1028 C1029 1.358 . S
C1028 C1033 1.371 1_545 S
C1029 H1001 0.930 . S
C1029 C1028 1.358 . S
C1029 C1030 1.405 . S
C1030 H1002 0.932 . S
C1030 C1029 1.405 . S
C1030 C1031 1.383 . S
C1031 C1030 1.383 . S
C1031 C1032 1.393 . S
C1032 H1004 0.931 1_545 S
C1032 C1031 1.393 . S
C1032 C1033 1.382 1_545 S
C1033 H1003 0.929 . S
C1033 C1028 1.371 1_565 S
C1033 C1032 1.382 1_565 S
C1034 N997 1.395 1_565 S
C1034 C1035 1.402 . S
C1034 C1039 1.376 1_565 S
C1035 H1005 0.929 . S
C1035 C1034 1.402 . S
C1035 C1036 1.376 . S
C1036 H1007 0.931 . S
C1036 C1035 1.376 . S
C1036 C1037 1.396 . S
C1037 C1036 1.396 . S
C1037 C1038 1.348 1_565 S
C1037 C1055 1.472 . S
C1038 H1008 0.929 . S
C1038 C1037 1.348 1_545 S
C1038 C1039 1.443 . S
C1039 H1006 0.932 . S
C1039 C1034 1.376 1_545 S
C1039 C1038 1.443 . S
C1040 N1020 1.433 . S
C1040 C1041 1.363 1_545 S
C1040 C1045 1.370 . S
C1041 H1009 0.929 . S
C1041 C1040 1.363 1_565 S
C1041 C1042 1.385 . S
C1042 H1010 0.930 . S
C1042 C1041 1.385 . S
C1042 C1043 1.357 1_565 S
C1043 C1042 1.357 1_545 S
C1043 C1044 1.406 . S
C1044 H1011 0.929 . S
C1044 C1043 1.406 . S
C1044 C1045 1.391 . S
C1045 H1012 0.931 . S
C1045 C1040 1.370 . S
C1045 C1044 1.391 . S
C1046 N1020 1.435 . S
C1046 C1047 1.358 . S
C1046 C1051 1.371 1_545 S
C1047 H1013 0.930 . S
C1047 C1046 1.358 . S
C1047 C1048 1.405 . S
C1048 H1014 0.932 . S
C1048 C1047 1.405 . S
C1048 C1049 1.383 . S
C1049 C1048 1.383 . S
C1049 C1050 1.393 . S
C1050 H1015 0.931 1_545 S
C1050 C1049 1.393 . S
C1050 C1051 1.382 1_545 S
C1051 H1016 0.929 . S
C1051 C1046 1.371 1_565 S
C1051 C1050 1.382 1_565 S
C1052 N1020 1.442 1_565 S
C1052 C1053 1.378 . S
C1052 C1057 1.352 1_565 S
C1053 H1017 0.929 . S
C1053 C1052 1.378 . S
C1053 C1054 1.376 . S
C1054 H1018 0.931 . S
C1054 C1053 1.376 . S
C1054 C1055 1.396 . S
C1055 C1037 1.472 . S
C1055 C1054 1.396 . S
C1055 C1056 1.348 1_565 S
C1056 H1019 0.929 . S
C1056 C1055 1.348 1_545 S
C1056 C1057 1.443 . S
C1057 H1021 0.932 . S
C1057 C1052 1.352 1_545 S
C1057 C1056 1.443 . S
H1058 C1085 0.929 . S
N1059 C1084 1.433 . S
N1059 C1090 1.435 . S
N1059 C1096 1.423 . S
H1060 C1086 0.930 . S
H1061 C1089 0.931 . S
H1062 C1088 0.929 . S
H1063 C1091 0.930 . S
H1064 C1092 0.932 . S
H1065 C1095 0.929 . S
H1066 C1094 0.931 . S
H1067 C1097 0.929 . S
H1068 C1101 0.932 1_455 S
H1069 C1098 0.931 . S
H1070 C1100 0.976 . S
H1071 C1103 0.929 . S
H1072 C1104 0.930 . S
H1073 C1106 0.929 . S
H1074 C1107 0.931 . S
H1075 C1109 0.930 . S
H1076 C1110 0.932 . S
H1077 C1112 0.931 . S
H1078 C1113 0.929 . S
H1079 C1115 0.929 . S
H1080 C1116 0.931 . S
H1081 C1118 0.939 . S
N1082 C1102 1.433 . S
N1082 C1108 1.435 . S
N1082 C1114 1.423 . S
H1083 C1119 0.932 1_455 S
C1084 N1059 1.433 . S
C1084 C1085 1.363 . S
C1084 C1089 1.370 1_655 S
C1085 H1058 0.929 . S
C1085 C1084 1.363 . S
C1085 C1086 1.385 . S
C1086 H1060 0.930 . S
C1086 C1085 1.385 . S
C1086 C1087 1.357 1_655 S
C1087 C1086 1.357 1_455 S
C1087 C1088 1.406 . S
C1088 H1062 0.929 . S
C1088 C1087 1.406 . S
C1088 C1089 1.391 . S
C1089 H1061 0.931 . S
C1089 C1084 1.370 1_455 S
C1089 C1088 1.391 . S
C1090 N1059 1.435 . S
C1090 C1091 1.358 1_655 S
C1090 C1095 1.371 . S
C1091 H1063 0.930 . S
C1091 C1090 1.358 1_455 S
C1091 C1092 1.405 . S
C1092 H1064 0.932 . S
C1092 C1091 1.405 . S
C1092 C1093 1.383 1_455 S
C1093 C1092 1.383 1_655 S
C1093 C1094 1.393 . S
C1094 H1066 0.931 . S
C1094 C1093 1.393 . S
C1094 C1095 1.382 . S
C1095 H1065 0.929 . S
C1095 C1090 1.371 . S
C1095 C1094 1.382 . S
C1096 N1059 1.423 . S
C1096 C1097 1.362 . S
C1096 C1101 1.388 . S
C1097 H1067 0.929 . S
C1097 C1096 1.362 . S
C1097 C1098 1.376 . S
C1098 H1069 0.931 . S
C1098 C1097 1.376 . S
C1098 C1099 1.396 . S
C1099 C1098 1.396 . S
C1099 C1100 1.348 . S
C1099 C1117 1.472 . S
C1100 H1070 0.976 . S
C1100 C1099 1.348 . S
C1100 C1101 1.443 . S
C1101 H1068 0.932 1_655 S
C1101 C1096 1.388 . S
C1101 C1100 1.443 . S
C1102 N1082 1.433 . S
C1102 C1103 1.363 . S
C1102 C1107 1.370 1_655 S
C1103 H1071 0.929 . S
C1103 C1102 1.363 . S
C1103 C1104 1.385 . S
C1104 H1072 0.930 . S
C1104 C1103 1.385 . S
C1104 C1105 1.357 1_655 S
C1105 C1104 1.357 1_455 S
C1105 C1106 1.406 . S
C1106 H1073 0.929 . S
C1106 C1105 1.406 . S
C1106 C1107 1.391 . S
C1107 H1074 0.931 . S
C1107 C1102 1.370 1_455 S
C1107 C1106 1.391 . S
C1108 N1082 1.435 . S
C1108 C1109 1.358 1_655 S
C1108 C1113 1.371 . S
C1109 H1075 0.930 . S
C1109 C1108 1.358 1_455 S
C1109 C1110 1.405 . S
C1110 H1076 0.932 . S
C1110 C1109 1.405 . S
C1110 C1111 1.383 1_455 S
C1111 C1110 1.383 1_655 S
C1111 C1112 1.393 . S
C1112 H1077 0.931 . S
C1112 C1111 1.393 . S
C1112 C1113 1.382 . S
C1113 H1078 0.929 . S
C1113 C1108 1.371 . S
C1113 C1112 1.382 . S
C1114 N1082 1.423 . S
C1114 C1115 1.362 . S
C1114 C1119 1.388 . S
C1115 H1079 0.929 . S
C1115 C1114 1.362 . S
C1115 C1116 1.376 . S
C1116 H1080 0.931 . S
C1116 C1115 1.376 . S
C1116 C1117 1.396 . S
C1117 C1099 1.472 . S
C1117 C1116 1.396 . S
C1117 C1118 1.348 . S
C1118 H1081 0.939 . S
C1118 C1117 1.348 . S
C1118 C1119 1.443 . S
C1119 H1083 0.932 1_655 S
C1119 C1114 1.388 . S
C1119 C1118 1.443 . S
H1120 C1147 0.929 . S
N1121 C1146 1.433 . S
N1121 C1152 1.435 . S
N1121 C1158 1.423 . S
H1122 C1148 0.930 . S
H1123 C1151 0.931 . S
H1124 C1150 0.929 . S
H1125 C1153 0.930 . S
H1126 C1154 0.932 . S
H1127 C1157 0.929 . S
H1128 C1156 0.931 . S
H1129 C1159 0.929 . S
H1130 C1163 0.932 . S
H1131 C1160 0.931 . S
H1132 C1162 0.929 . S
H1133 C1165 0.929 . S
H1134 C1166 0.930 . S
H1135 C1168 0.929 . S
H1136 C1169 0.931 . S
H1137 C1171 0.930 . S
H1138 C1172 0.932 . S
H1139 C1174 0.931 . S
H1140 C1175 0.929 . S
H1141 C1177 0.929 . S
H1142 C1178 0.931 . S
H1143 C1180 0.929 . S
N1144 C1164 1.433 . S
N1144 C1170 1.435 . S
N1144 C1176 1.423 . S
H1145 C1181 0.932 . S
C1146 N1121 1.433 . S
C1146 C1147 1.363 . S
C1146 C1151 1.370 . S
C1147 H1120 0.929 . S
C1147 C1146 1.363 . S
C1147 C1148 1.385 . S
C1148 H1122 0.930 . S
C1148 C1147 1.385 . S
C1148 C1149 1.357 . S
C1149 C1148 1.357 . S
C1149 C1150 1.406 . S
C1150 H1124 0.929 . S
C1150 C1149 1.406 . S
C1150 C1151 1.391 . S
C1151 H1123 0.931 . S
C1151 C1146 1.370 . S
C1151 C1150 1.391 . S
C1152 N1121 1.435 . S
C1152 C1153 1.358 . S
C1152 C1157 1.371 . S
C1153 H1125 0.930 . S
C1153 C1152 1.358 . S
C1153 C1154 1.405 . S
C1154 H1126 0.932 . S
C1154 C1153 1.405 . S
C1154 C1155 1.383 . S
C1155 C1154 1.383 . S
C1155 C1156 1.393 . S
C1156 H1128 0.931 . S
C1156 C1155 1.393 . S
C1156 C1157 1.382 . S
C1157 H1127 0.929 . S
C1157 C1152 1.371 . S
C1157 C1156 1.382 . S
C1158 N1121 1.423 . S
C1158 C1159 1.362 . S
C1158 C1163 1.388 . S
C1159 H1129 0.929 . S
C1159 C1158 1.362 . S
C1159 C1160 1.376 . S
C1160 H1131 0.931 . S
C1160 C1159 1.376 . S
C1160 C1161 1.396 . S
C1161 C1160 1.396 . S
C1161 C1162 1.348 . S
C1161 C1179 1.472 . S
C1162 H1132 0.929 . S
C1162 C1161 1.348 . S
C1162 C1163 1.443 . S
C1163 H1130 0.932 . S
C1163 C1158 1.388 . S
C1163 C1162 1.443 . S
C1164 N1144 1.433 . S
C1164 C1165 1.363 . S
C1164 C1169 1.370 . S
C1165 H1133 0.929 . S
C1165 C1164 1.363 . S
C1165 C1166 1.385 . S
C1166 H1134 0.930 . S
C1166 C1165 1.385 . S
C1166 C1167 1.357 . S
C1167 C1166 1.357 . S
C1167 C1168 1.406 . S
C1168 H1135 0.929 . S
C1168 C1167 1.406 . S
C1168 C1169 1.391 . S
C1169 H1136 0.931 . S
C1169 C1164 1.370 . S
C1169 C1168 1.391 . S
C1170 N1144 1.435 . S
C1170 C1171 1.358 . S
C1170 C1175 1.371 . S
C1171 H1137 0.930 . S
C1171 C1170 1.358 . S
C1171 C1172 1.405 . S
C1172 H1138 0.932 . S
C1172 C1171 1.405 . S
C1172 C1173 1.383 . S
C1173 C1172 1.383 . S
C1173 C1174 1.393 . S
C1174 H1139 0.931 . S
C1174 C1173 1.393 . S
C1174 C1175 1.382 . S
C1175 H1140 0.929 . S
C1175 C1170 1.371 . S
C1175 C1174 1.382 . S
C1176 N1144 1.423 . S
C1176 C1177 1.362 . S
C1176 C1181 1.388 . S
C1177 H1141 0.929 . S
C1177 C1176 1.362 . S
C1177 C1178 1.376 . S
C1178 H1142 0.931 . S
C1178 C1177 1.376 . S
C1178 C1179 1.396 . S
C1179 C1161 1.472 . S
C1179 C1178 1.396 . S
C1179 C1180 1.348 . S
C1180 H1143 0.929 . S
C1180 C1179 1.348 . S
C1180 C1181 1.443 . S
C1181 H1145 0.932 . S
C1181 C1176 1.388 . S
C1181 C1180 1.443 . S
H1182 C1209 0.929 . S
N1183 C1208 1.433 . S
N1183 C1214 1.435 . S
N1183 C1220 1.423 . S
H1184 C1210 0.930 . S
H1185 C1213 0.931 . S
H1186 C1212 0.929 . S
H1187 C1215 0.930 . S
H1188 C1216 0.932 . S
H1189 C1219 0.929 . S
H1190 C1218 0.931 . S
H1191 C1221 0.929 . S
H1192 C1225 0.932 . S
H1193 C1222 0.931 . S
H1194 C1224 0.929 . S
H1195 C1227 0.929 . S
H1196 C1228 0.930 . S
H1197 C1230 0.929 . S
H1198 C1231 0.931 . S
H1199 C1233 0.930 . S
H1200 C1234 0.932 . S
H1201 C1236 0.931 . S
H1202 C1237 0.929 . S
H1203 C1239 0.929 . S
H1204 C1240 0.931 . S
H1205 C1242 0.929 . S
N1206 C1226 1.433 . S
N1206 C1232 1.435 . S
N1206 C1238 1.423 . S
H1207 C1243 0.932 . S
C1208 N1183 1.433 . S
C1208 C1209 1.363 . S
C1208 C1213 1.370 . S
C1209 H1182 0.929 . S
C1209 C1208 1.363 . S
C1209 C1210 1.385 . S
C1210 H1184 0.930 . S
C1210 C1209 1.385 . S
C1210 C1211 1.357 . S
C1211 C1210 1.357 . S
C1211 C1212 1.406 . S
C1212 H1186 0.929 . S
C1212 C1211 1.406 . S
C1212 C1213 1.391 . S
C1213 H1185 0.931 . S
C1213 C1208 1.370 . S
C1213 C1212 1.391 . S
C1214 N1183 1.435 . S
C1214 C1215 1.358 . S
C1214 C1219 1.371 . S
C1215 H1187 0.930 . S
C1215 C1214 1.358 . S
C1215 C1216 1.405 . S
C1216 H1188 0.932 . S
C1216 C1215 1.405 . S
C1216 C1217 1.383 . S
C1217 C1216 1.383 . S
C1217 C1218 1.393 . S
C1218 H1190 0.931 . S
C1218 C1217 1.393 . S
C1218 C1219 1.382 . S
C1219 H1189 0.929 . S
C1219 C1214 1.371 . S
C1219 C1218 1.382 . S
C1220 N1183 1.423 . S
C1220 C1221 1.362 . S
C1220 C1225 1.388 . S
C1221 H1191 0.929 . S
C1221 C1220 1.362 . S
C1221 C1222 1.376 . S
C1222 H1193 0.931 . S
C1222 C1221 1.376 . S
C1222 C1223 1.396 . S
C1223 C1222 1.396 . S
C1223 C1224 1.348 . S
C1223 C1241 1.472 . S
C1224 H1194 0.929 . S
C1224 C1223 1.348 . S
C1224 C1225 1.443 . S
C1225 H1192 0.932 . S
C1225 C1220 1.388 . S
C1225 C1224 1.443 . S
C1226 N1206 1.433 . S
C1226 C1227 1.363 . S
C1226 C1231 1.370 . S
C1227 H1195 0.929 . S
C1227 C1226 1.363 . S
C1227 C1228 1.385 . S
C1228 H1196 0.930 . S
C1228 C1227 1.385 . S
C1228 C1229 1.357 . S
C1229 C1228 1.357 . S
C1229 C1230 1.406 . S
C1230 H1197 0.929 . S
C1230 C1229 1.406 . S
C1230 C1231 1.391 . S
C1231 H1198 0.931 . S
C1231 C1226 1.370 . S
C1231 C1230 1.391 . S
C1232 N1206 1.435 . S
C1232 C1233 1.358 . S
C1232 C1237 1.371 . S
C1233 H1199 0.930 . S
C1233 C1232 1.358 . S
C1233 C1234 1.405 . S
C1234 H1200 0.932 . S
C1234 C1233 1.405 . S
C1234 C1235 1.383 . S
C1235 C1234 1.383 . S
C1235 C1236 1.393 . S
C1236 H1201 0.931 . S
C1236 C1235 1.393 . S
C1236 C1237 1.382 . S
C1237 H1202 0.929 . S
C1237 C1232 1.371 . S
C1237 C1236 1.382 . S
C1238 N1206 1.423 . S
C1238 C1239 1.362 . S
C1238 C1243 1.388 . S
C1239 H1203 0.929 . S
C1239 C1238 1.362 . S
C1239 C1240 1.376 . S
C1240 H1204 0.931 . S
C1240 C1239 1.376 . S
C1240 C1241 1.396 . S
C1241 C1223 1.472 . S
C1241 C1240 1.396 . S
C1241 C1242 1.348 . S
C1242 H1205 0.929 . S
C1242 C1241 1.348 . S
C1242 C1243 1.443 . S
C1243 H1207 0.932 . S
C1243 C1238 1.388 . S
C1243 C1242 1.443 . S
H1244 C1271 0.929 . S
N1245 C1270 1.433 . S
N1245 C1276 1.435 . S
N1245 C1282 1.423 . S
H1246 C1272 0.930 . S
H1247 C1275 0.931 . S
H1248 C1274 0.929 . S
H1249 C1277 0.930 . S
H1250 C1278 0.932 . S
H1251 C1281 0.929 . S
H1252 C1280 0.931 . S
H1253 C1283 0.929 . S
H1254 C1287 0.932 . S
H1255 C1284 0.931 . S
H1256 C1286 0.929 . S
H1257 C1289 0.929 . S
H1258 C1290 0.930 . S
H1259 C1292 0.929 . S
H1260 C1293 0.931 . S
H1261 C1295 0.930 . S
H1262 C1296 0.932 . S
H1263 C1298 0.931 . S
H1264 C1299 0.929 . S
H1265 C1301 0.929 . S
H1266 C1302 0.931 . S
H1267 C1304 0.929 . S
N1268 C1288 1.433 . S
N1268 C1294 1.435 . S
N1268 C1300 1.423 . S
H1269 C1305 0.932 . S
C1270 N1245 1.433 . S
C1270 C1271 1.363 . S
C1270 C1275 1.370 . S
C1271 H1244 0.929 . S
C1271 C1270 1.363 . S
C1271 C1272 1.385 . S
C1272 H1246 0.930 . S
C1272 C1271 1.385 . S
C1272 C1273 1.357 . S
C1273 C1272 1.357 . S
C1273 C1274 1.406 . S
C1274 H1248 0.929 . S
C1274 C1273 1.406 . S
C1274 C1275 1.391 . S
C1275 H1247 0.931 . S
C1275 C1270 1.370 . S
C1275 C1274 1.391 . S
C1276 N1245 1.435 . S
C1276 C1277 1.358 . S
C1276 C1281 1.371 . S
C1277 H1249 0.930 . S
C1277 C1276 1.358 . S
C1277 C1278 1.405 . S
C1278 H1250 0.932 . S
C1278 C1277 1.405 . S
C1278 C1279 1.383 . S
C1279 C1278 1.383 . S
C1279 C1280 1.393 . S
C1280 H1252 0.931 . S
C1280 C1279 1.393 . S
C1280 C1281 1.382 . S
C1281 H1251 0.929 . S
C1281 C1276 1.371 . S
C1281 C1280 1.382 . S
C1282 N1245 1.423 . S
C1282 C1283 1.362 . S
C1282 C1287 1.388 . S
C1283 H1253 0.929 . S
C1283 C1282 1.362 . S
C1283 C1284 1.376 . S
C1284 H1255 0.931 . S
C1284 C1283 1.376 . S
C1284 C1285 1.396 . S
C1285 C1284 1.396 . S
C1285 C1286 1.348 . S
C1285 C1303 1.472 . S
C1286 H1256 0.929 . S
C1286 C1285 1.348 . S
C1286 C1287 1.443 . S
C1287 H1254 0.932 . S
C1287 C1282 1.388 . S
C1287 C1286 1.443 . S
C1288 N1268 1.433 . S
C1288 C1289 1.363 . S
C1288 C1293 1.370 . S
C1289 H1257 0.929 . S
C1289 C1288 1.363 . S
C1289 C1290 1.385 . S
C1290 H1258 0.930 . S
C1290 C1289 1.385 . S
C1290 C1291 1.357 . S
C1291 C1290 1.357 . S
C1291 C1292 1.406 . S
C1292 H1259 0.929 . S
C1292 C1291 1.406 . S
C1292 C1293 1.391 . S
C1293 H1260 0.931 . S
C1293 C1288 1.370 . S
C1293 C1292 1.391 . S
C1294 N1268 1.435 . S
C1294 C1295 1.358 . S
C1294 C1299 1.371 . S
C1295 H1261 0.930 . S
C1295 C1294 1.358 . S
C1295 C1296 1.405 . S
C1296 H1262 0.932 . S
C1296 C1295 1.405 . S
C1296 C1297 1.383 . S
C1297 C1296 1.383 . S
C1297 C1298 1.393 . S
C1298 H1263 0.931 . S
C1298 C1297 1.393 . S
C1298 C1299 1.382 . S
C1299 H1264 0.929 . S
C1299 C1294 1.371 . S
C1299 C1298 1.382 . S
C1300 N1268 1.423 . S
C1300 C1301 1.362 . S
C1300 C1305 1.388 . S
C1301 H1265 0.929 . S
C1301 C1300 1.362 . S
C1301 C1302 1.376 . S
C1302 H1266 0.931 . S
C1302 C1301 1.376 . S
C1302 C1303 1.396 . S
C1303 C1285 1.472 . S
C1303 C1302 1.396 . S
C1303 C1304 1.348 . S
C1304 H1267 0.929 . S
C1304 C1303 1.348 . S
C1304 C1305 1.443 . S
C1305 H1269 0.932 . S
C1305 C1300 1.388 . S
C1305 C1304 1.443 . S
H1306 C1333 0.929 . S
N1307 C1332 1.433 . S
N1307 C1338 1.435 . S
N1307 C1344 1.423 . S
H1308 C1334 0.930 . S
H1309 C1337 0.931 . S
H1310 C1336 0.929 . S
H1311 C1339 0.930 . S
H1312 C1340 0.932 . S
H1313 C1343 0.929 . S
H1314 C1342 0.931 . S
H1315 C1345 0.929 . S
H1316 C1349 0.932 . S
H1317 C1346 0.931 . S
H1318 C1348 0.929 . S
H1319 C1351 0.929 . S
H1320 C1352 0.930 . S
H1321 C1354 0.929 . S
H1322 C1355 0.931 . S
H1323 C1357 0.930 . S
H1324 C1358 0.932 . S
H1325 C1360 0.931 . S
H1326 C1361 0.929 . S
H1327 C1363 0.929 . S
H1328 C1364 0.931 . S
H1329 C1366 0.929 . S
N1330 C1350 1.433 . S
N1330 C1356 1.435 . S
N1330 C1362 1.423 . S
H1331 C1367 0.932 . S
C1332 N1307 1.433 . S
C1332 C1333 1.363 . S
C1332 C1337 1.370 . S
C1333 H1306 0.929 . S
C1333 C1332 1.363 . S
C1333 C1334 1.385 . S
C1334 H1308 0.930 . S
C1334 C1333 1.385 . S
C1334 C1335 1.357 . S
C1335 C1334 1.357 . S
C1335 C1336 1.406 . S
C1336 H1310 0.929 . S
C1336 C1335 1.406 . S
C1336 C1337 1.391 . S
C1337 H1309 0.931 . S
C1337 C1332 1.370 . S
C1337 C1336 1.391 . S
C1338 N1307 1.435 . S
C1338 C1339 1.358 . S
C1338 C1343 1.371 . S
C1339 H1311 0.930 . S
C1339 C1338 1.358 . S
C1339 C1340 1.405 . S
C1340 H1312 0.932 . S
C1340 C1339 1.405 . S
C1340 C1341 1.383 . S
C1341 C1340 1.383 . S
C1341 C1342 1.393 . S
C1342 H1314 0.931 . S
C1342 C1341 1.393 . S
C1342 C1343 1.382 . S
C1343 H1313 0.929 . S
C1343 C1338 1.371 . S
C1343 C1342 1.382 . S
C1344 N1307 1.423 . S
C1344 C1345 1.362 . S
C1344 C1349 1.388 . S
C1345 H1315 0.929 . S
C1345 C1344 1.362 . S
C1345 C1346 1.376 . S
C1346 H1317 0.931 . S
C1346 C1345 1.376 . S
C1346 C1347 1.396 . S
C1347 C1346 1.396 . S
C1347 C1348 1.348 . S
C1347 C1365 1.472 . S
C1348 H1318 0.929 . S
C1348 C1347 1.348 . S
C1348 C1349 1.443 . S
C1349 H1316 0.932 . S
C1349 C1344 1.388 . S
C1349 C1348 1.443 . S
C1350 N1330 1.433 . S
C1350 C1351 1.363 . S
C1350 C1355 1.370 . S
C1351 H1319 0.929 . S
C1351 C1350 1.363 . S
C1351 C1352 1.385 . S
C1352 H1320 0.930 . S
C1352 C1351 1.385 . S
C1352 C1353 1.357 . S
C1353 C1352 1.357 . S
C1353 C1354 1.406 . S
C1354 H1321 0.929 . S
C1354 C1353 1.406 . S
C1354 C1355 1.391 . S
C1355 H1322 0.931 . S
C1355 C1350 1.370 . S
C1355 C1354 1.391 . S
C1356 N1330 1.435 . S
C1356 C1357 1.358 . S
C1356 C1361 1.371 . S
C1357 H1323 0.930 . S
C1357 C1356 1.358 . S
C1357 C1358 1.405 . S
C1358 H1324 0.932 . S
C1358 C1357 1.405 . S
C1358 C1359 1.383 . S
C1359 C1358 1.383 . S
C1359 C1360 1.393 . S
C1360 H1325 0.931 . S
C1360 C1359 1.393 . S
C1360 C1361 1.382 . S
C1361 H1326 0.929 . S
C1361 C1356 1.371 . S
C1361 C1360 1.382 . S
C1362 N1330 1.423 . S
C1362 C1363 1.362 . S
C1362 C1367 1.388 . S
C1363 H1327 0.929 . S
C1363 C1362 1.362 . S
C1363 C1364 1.376 . S
C1364 H1328 0.931 . S
C1364 C1363 1.376 . S
C1364 C1365 1.396 . S
C1365 C1347 1.472 . S
C1365 C1364 1.396 . S
C1365 C1366 1.348 . S
C1366 H1329 0.929 . S
C1366 C1365 1.348 . S
C1366 C1367 1.443 . S
C1367 H1331 0.932 . S
C1367 C1362 1.388 . S
C1367 C1366 1.443 . S
H1368 C1374 0.931 1_655 S
H1369 C1377 0.930 . S
H1370 C1378 0.930 . S
H1371 C1379 0.930 . S
H1372 C1382 0.930 . S
H1373 C1383 0.930 . S
C1374 H1368 0.931 1_455 S
C1374 C1375 1.359 . S
C1374 C1376 1.409 . S
C1375 C1374 1.359 . S
C1375 C1377 1.419 . S
C1376 C1374 1.409 . S
C1376 C1381 1.425 . S
C1376 C1383 1.409 1_455 S
C1377 H1369 0.930 . S
C1377 C1375 1.419 . S
C1377 C1378 1.362 . S
C1378 H1370 0.930 . S
C1378 C1377 1.362 . S
C1378 C1381 1.409 . S
C1379 H1371 0.930 . S
C1379 C1380 1.355 . S
C1379 C1381 1.415 . S
C1380 C1379 1.355 . S
C1380 C1382 1.419 1_455 S
C1381 C1376 1.425 . S
C1381 C1378 1.409 . S
C1381 C1379 1.415 . S
C1382 H1372 0.930 . S
C1382 C1380 1.419 1_655 S
C1382 C1383 1.362 . S
C1383 H1373 0.930 . S
C1383 C1376 1.409 1_655 S
C1383 C1382 1.362 . S
H1384 C1390 0.930 . S
H1385 C1393 0.930 . S
H1386 C1394 0.930 . S
H1387 C1395 0.930 . S
H1388 C1398 0.930 . S
H1389 C1399 0.930 . S
C1390 H1384 0.930 . S
C1390 C1391 1.355 . S
C1390 C1392 1.415 . S
C1391 C1390 1.355 . S
C1391 C1393 1.419 . S
C1392 C1390 1.415 . S
C1392 C1397 1.425 . S
C1392 C1399 1.409 . S
C1393 H1385 0.930 . S
C1393 C1391 1.419 . S
C1393 C1394 1.362 . S
C1394 H1386 0.930 . S
C1394 C1393 1.362 . S
C1394 C1397 1.409 . S
C1395 H1387 0.930 . S
C1395 C1396 1.355 . S
C1395 C1397 1.415 . S
C1396 C1395 1.355 . S
C1396 C1398 1.419 . S
C1397 C1392 1.425 . S
C1397 C1394 1.409 . S
C1397 C1395 1.415 . S
C1398 H1388 0.930 . S
C1398 C1396 1.419 . S
C1398 C1399 1.362 . S
C1399 H1389 0.930 . S
C1399 C1392 1.409 . S
C1399 C1398 1.362 . S
H1400 C1406 0.930 . S
H1401 C1409 0.930 . S
H1402 C1410 0.930 . S
H1403 C1411 0.930 1_565 S
H1404 C1414 0.930 . S
H1405 C1415 0.930 . S
C1406 H1400 0.930 . S
C1406 C1407 1.355 . S
C1406 C1408 1.415 . S
C1407 C1406 1.355 . S
C1407 C1409 1.419 1_545 S
C1408 C1406 1.415 . S
C1408 C1413 1.425 . S
C1408 C1415 1.409 . S
C1409 H1401 0.930 . S
C1409 C1407 1.419 1_565 S
C1409 C1410 1.362 . S
C1410 H1402 0.930 . S
C1410 C1409 1.362 . S
C1410 C1413 1.409 1_565 S
C1411 H1403 0.930 1_545 S
C1411 C1412 1.355 . S
C1411 C1413 1.415 . S
C1412 C1411 1.355 . S
C1412 C1414 1.419 . S
C1413 C1408 1.425 . S
C1413 C1410 1.409 1_545 S
C1413 C1411 1.415 . S
C1414 H1404 0.930 . S
C1414 C1412 1.419 . S
C1414 C1415 1.362 . S
C1415 H1405 0.930 . S
C1415 C1408 1.409 . S
C1415 C1414 1.362 . S
H1416 C1422 0.930 . S
H1417 C1425 0.930 . S
H1418 C1426 0.930 . S
H1419 C1427 0.930 . S
H1420 C1430 0.930 . S
H1421 C1431 0.930 . S
C1422 H1416 0.930 . S
C1422 C1423 1.355 . S
C1422 C1424 1.415 . S
C1423 C1422 1.355 . S
C1423 C1425 1.419 1_545 S
C1424 C1422 1.415 . S
C1424 C1429 1.425 1_545 S
C1424 C1431 1.409 . S
C1425 H1417 0.930 . S
C1425 C1423 1.419 1_565 S
C1425 C1426 1.362 . S
C1426 H1418 0.930 . S
C1426 C1425 1.362 . S
C1426 C1429 1.409 . S
C1427 H1419 0.930 . S
C1427 C1428 1.355 1_565 S
C1427 C1429 1.415 . S
C1428 C1427 1.355 1_545 S
C1428 C1430 1.419 . S
C1429 C1424 1.425 1_565 S
C1429 C1426 1.409 . S
C1429 C1427 1.415 . S
C1430 H1420 0.930 . S
C1430 C1428 1.419 . S
C1430 C1431 1.362 . S
C1431 H1421 0.930 . S
C1431 C1424 1.409 . S
C1431 C1430 1.362 . S
H1432 C1438 0.930 . S
H1433 C1441 0.930 . S
H1434 C1442 0.930 . S
H1435 C1443 0.930 . S
H1436 C1446 0.930 . S
H1437 C1447 0.930 . S
C1438 H1432 0.930 . S
C1438 C1439 1.355 1_655 S
C1438 C1440 1.415 . S
C1439 C1438 1.355 1_455 S
C1439 C1441 1.419 . S
C1440 C1438 1.415 . S
C1440 C1445 1.425 1_655 S
C1440 C1447 1.409 . S
C1441 H1433 0.930 . S
C1441 C1439 1.419 . S
C1441 C1442 1.362 . S
C1442 H1434 0.930 . S
C1442 C1441 1.362 . S
C1442 C1445 1.409 . S
C1443 H1435 0.930 . S
C1443 C1444 1.355 . S
C1443 C1445 1.415 . S
C1444 C1443 1.355 . S
C1444 C1446 1.419 1_455 S
C1445 C1440 1.425 1_455 S
C1445 C1442 1.409 . S
C1445 C1443 1.415 . S
C1446 H1436 0.930 . S
C1446 C1444 1.419 1_655 S
C1446 C1447 1.362 . S
C1447 H1437 0.930 . S
C1447 C1440 1.409 . S
C1447 C1446 1.362 . S
H1448 C1454 0.930 . S
H1449 C1457 0.930 . S
H1450 C1458 0.930 . S
H1451 C1459 0.930 . S
H1452 C1462 0.930 . S
H1453 C1463 0.930 . S
C1454 H1448 0.930 . S
C1454 C1455 1.355 . S
C1454 C1456 1.415 . S
C1455 C1454 1.355 . S
C1455 C1457 1.419 . S
C1456 C1454 1.415 . S
C1456 C1461 1.425 . S
C1456 C1463 1.409 . S
C1457 H1449 0.930 . S
C1457 C1455 1.419 . S
C1457 C1458 1.362 . S
C1458 H1450 0.930 . S
C1458 C1457 1.362 . S
C1458 C1461 1.409 . S
C1459 H1451 0.930 . S
C1459 C1460 1.355 . S
C1459 C1461 1.415 . S
C1460 C1459 1.355 . S
C1460 C1462 1.419 . S
C1461 C1456 1.425 . S
C1461 C1458 1.409 . S
C1461 C1459 1.415 . S
C1462 H1452 0.930 . S
C1462 C1460 1.419 . S
C1462 C1463 1.362 . S
C1463 H1453 0.930 . S
C1463 C1456 1.409 . S
C1463 C1462 1.362 . S
H1464 C1470 0.930 . S
H1465 C1473 0.930 . S
H1466 C1474 0.930 . S
H1467 C1475 0.930 . S
H1468 C1478 0.930 . S
H1469 C1479 0.930 . S
C1470 H1464 0.930 . S
C1470 C1471 1.355 1_655 S
C1470 C1472 1.415 . S
C1471 C1470 1.355 1_455 S
C1471 C1473 1.419 . S
C1472 C1470 1.415 . S
C1472 C1477 1.425 1_655 S
C1472 C1479 1.409 . S
C1473 H1465 0.930 . S
C1473 C1471 1.419 . S
C1473 C1474 1.362 . S
C1474 H1466 0.930 . S
C1474 C1473 1.362 . S
C1474 C1477 1.409 . S
C1475 H1467 0.930 . S
C1475 C1476 1.355 . S
C1475 C1477 1.415 . S
C1476 C1475 1.355 . S
C1476 C1478 1.419 1_455 S
C1477 C1472 1.425 1_455 S
C1477 C1474 1.409 . S
C1477 C1475 1.415 . S
C1478 H1468 0.930 . S
C1478 C1476 1.419 1_655 S
C1478 C1479 1.362 . S
C1479 H1469 0.930 . S
C1479 C1472 1.409 . S
C1479 C1478 1.362 . S
H1480 C1486 0.930 . S
H1481 C1489 0.930 . S
H1482 C1490 0.930 . S
H1483 C1491 0.930 . S
H1484 C1494 0.930 . S
H1485 C1495 0.930 . S
C1486 H1480 0.930 . S
C1486 C1487 1.355 . S
C1486 C1488 1.415 . S
C1487 C1486 1.355 . S
C1487 C1489 1.419 . S
C1488 C1486 1.415 . S
C1488 C1493 1.425 . S
C1488 C1495 1.409 . S
C1489 H1481 0.930 . S
C1489 C1487 1.419 . S
C1489 C1490 1.362 . S
C1490 H1482 0.930 . S
C1490 C1489 1.362 . S
C1490 C1493 1.409 . S
C1491 H1483 0.930 . S
C1491 C1492 1.355 . S
C1491 C1493 1.415 . S
C1492 C1491 1.355 . S
C1492 C1494 1.419 . S
C1493 C1488 1.425 . S
C1493 C1490 1.409 . S
C1493 C1491 1.415 . S
C1494 H1484 0.930 . S
C1494 C1492 1.419 . S
C1494 C1495 1.362 . S
C1495 H1485 0.930 . S
C1495 C1488 1.409 . S
C1495 C1494 1.362 . S
H1496 C1502 0.930 . S
H1497 C1505 0.930 . S
H1498 C1506 0.930 . S
H1499 C1507 0.930 . S
H1500 C1510 0.945 . S
H1501 C1511 0.982 . S
C1502 H1496 0.930 . S
C1502 C1503 1.355 . S
C1502 C1504 1.415 . S
C1503 C1502 1.355 . S
C1503 C1505 1.419 . S
C1504 C1502 1.415 . S
C1504 C1509 1.425 . S
C1504 C1511 1.397 1_545 S
C1505 H1497 0.930 . S
C1505 C1503 1.419 . S
C1505 C1506 1.362 . S
C1506 H1498 0.930 . S
C1506 C1505 1.362 . S
C1506 C1509 1.409 . S
C1507 H1499 0.930 . S
C1507 C1508 1.355 . S
C1507 C1509 1.415 . S
C1508 C1507 1.355 . S
C1508 C1510 1.377 1_545 S
C1509 C1504 1.425 . S
C1509 C1506 1.409 . S
C1509 C1507 1.415 . S
C1510 H1500 0.945 . S
C1510 C1508 1.377 1_565 S
C1510 C1511 1.358 . S
C1511 H1501 0.982 . S
C1511 C1504 1.397 1_565 S
C1511 C1510 1.358 . S
H1512 C1518 0.965 . S
H1513 C1521 0.930 . S
H1514 C1522 0.930 . S
H1515 C1523 0.930 . S
H1516 C1526 0.935 . S
H1517 C1527 0.930 . S
C1518 H1512 0.965 . S
C1518 C1519 1.346 1_565 S
C1518 C1520 1.391 1_565 S
C1519 C1518 1.346 1_545 S
C1519 C1521 1.419 . S
C1520 C1518 1.391 1_545 S
C1520 C1525 1.425 . S
C1520 C1527 1.409 1_545 S
C1521 H1513 0.930 . S
C1521 C1519 1.419 . S
C1521 C1522 1.362 . S
C1522 H1514 0.930 . S
C1522 C1521 1.362 . S
C1522 C1525 1.409 . S
C1523 H1515 0.930 . S
C1523 C1524 1.355 . S
C1523 C1525 1.415 . S
C1524 C1523 1.355 . S
C1524 C1526 1.401 1_545 S
C1525 C1520 1.425 . S
C1525 C1522 1.409 . S
C1525 C1523 1.415 . S
C1526 H1516 0.935 . S
C1526 C1524 1.401 1_565 S
C1526 C1527 1.375 . S
C1527 H1517 0.930 . S
C1527 C1520 1.409 1_565 S
C1527 C1526 1.375 . S
H1528 C1534 0.930 . S
H1529 C1537 0.930 . S
H1530 C1538 0.930 . S
H1531 C1539 0.930 . S
H1532 C1542 0.930 . S
H1533 C1543 0.930 . S
C1534 H1528 0.930 . S
C1534 C1535 1.355 1_655 S
C1534 C1536 1.415 . S
C1535 C1534 1.355 1_455 S
C1535 C1537 1.419 . S
C1536 C1534 1.415 . S
C1536 C1541 1.425 1_655 S
C1536 C1543 1.409 . S
C1537 H1529 0.930 . S
C1537 C1535 1.419 . S
C1537 C1538 1.362 . S
C1538 H1530 0.930 . S
C1538 C1537 1.362 . S
C1538 C1541 1.409 . S
C1539 H1531 0.930 . S
C1539 C1540 1.355 . S
C1539 C1541 1.415 . S
C1540 C1539 1.355 . S
C1540 C1542 1.419 1_455 S
C1541 C1536 1.425 1_455 S
C1541 C1538 1.409 . S
C1541 C1539 1.415 . S
C1542 H1532 0.930 . S
C1542 C1540 1.419 1_655 S
C1542 C1543 1.362 . S
C1543 H1533 0.930 . S
C1543 C1536 1.409 . S
C1543 C1542 1.362 . S
H1544 C1550 0.930 . S
H1545 C1553 0.930 . S
H1546 C1554 0.930 . S
H1547 C1555 0.930 . S
H1548 C1558 0.930 . S
H1549 C1559 0.930 . S
C1550 H1544 0.930 . S
C1550 C1551 1.355 . S
C1550 C1552 1.415 . S
C1551 C1550 1.355 . S
C1551 C1553 1.419 . S
C1552 C1550 1.415 . S
C1552 C1557 1.425 . S
C1552 C1559 1.409 . S
C1553 H1545 0.930 . S
C1553 C1551 1.419 . S
C1553 C1554 1.362 . S
C1554 H1546 0.930 . S
C1554 C1553 1.362 . S
C1554 C1557 1.409 . S
C1555 H1547 0.930 . S
C1555 C1556 1.355 . S
C1555 C1557 1.415 . S
C1556 C1555 1.355 . S
C1556 C1558 1.419 . S
C1557 C1552 1.425 . S
C1557 C1554 1.409 . S
C1557 C1555 1.415 . S
C1558 H1548 0.930 . S
C1558 C1556 1.419 . S
C1558 C1559 1.362 . S
C1559 H1549 0.930 . S
C1559 C1552 1.409 . S
C1559 C1558 1.362 . S
H1560 C1566 0.930 . S
H1561 C1569 0.930 . S
H1562 C1570 0.930 . S
H1563 C1571 0.930 . S
H1564 C1574 0.930 . S
H1565 C1575 0.930 . S
C1566 H1560 0.930 . S
C1566 C1567 1.355 . S
C1566 C1568 1.415 . S
C1567 C1566 1.355 . S
C1567 C1569 1.419 . S
C1568 C1566 1.415 . S
C1568 C1573 1.425 . S
C1568 C1575 1.409 . S
C1569 H1561 0.930 . S
C1569 C1567 1.419 . S
C1569 C1570 1.362 . S
C1570 H1562 0.930 . S
C1570 C1569 1.362 . S
C1570 C1573 1.409 . S
C1571 H1563 0.930 . S
C1571 C1572 1.355 . S
C1571 C1573 1.415 . S
C1572 C1571 1.355 . S
C1572 C1574 1.419 . S
C1573 C1568 1.425 . S
C1573 C1570 1.409 . S
C1573 C1571 1.415 . S
C1574 H1564 0.930 . S
C1574 C1572 1.419 . S
C1574 C1575 1.362 . S
C1575 H1565 0.930 . S
C1575 C1568 1.409 . S
C1575 C1574 1.362 . S
H1576 C1582 0.930 . S
H1577 C1585 0.930 . S
H1578 C1586 0.930 . S
H1579 C1587 0.930 . S
H1580 C1590 0.930 . S
H1581 C1591 0.930 . S
C1582 H1576 0.930 . S
C1582 C1583 1.355 . S
C1582 C1584 1.415 . S
C1583 C1582 1.355 . S
C1583 C1585 1.419 . S
C1584 C1582 1.415 . S
C1584 C1589 1.425 . S
C1584 C1591 1.409 . S
C1585 H1577 0.930 . S
C1585 C1583 1.419 . S
C1585 C1586 1.362 . S
C1586 H1578 0.930 . S
C1586 C1585 1.362 . S
C1586 C1589 1.409 . S
C1587 H1579 0.930 . S
C1587 C1588 1.355 . S
C1587 C1589 1.415 . S
C1588 C1587 1.355 . S
C1588 C1590 1.419 . S
C1589 C1584 1.425 . S
C1589 C1586 1.409 . S
C1589 C1587 1.415 . S
C1590 H1580 0.930 . S
C1590 C1588 1.419 . S
C1590 C1591 1.362 . S
C1591 H1581 0.930 . S
C1591 C1584 1.409 . S
C1591 C1590 1.362 . S
H1592 C1598 0.930 . S
H1593 C1601 0.930 . S
H1594 C1602 0.930 . S
H1595 C1603 0.930 . S
H1596 C1606 0.930 . S
H1597 C1607 0.930 . S
C1598 H1592 0.930 . S
C1598 C1599 1.355 . S
C1598 C1600 1.415 . S
C1599 C1598 1.355 . S
C1599 C1601 1.419 . S
C1600 C1598 1.415 . S
C1600 C1605 1.425 . S
C1600 C1607 1.409 . S
C1601 H1593 0.930 . S
C1601 C1599 1.419 . S
C1601 C1602 1.362 . S
C1602 H1594 0.930 . S
C1602 C1601 1.362 . S
C1602 C1605 1.409 . S
C1603 H1595 0.930 . S
C1603 C1604 1.355 . S
C1603 C1605 1.415 . S
C1604 C1603 1.355 . S
C1604 C1606 1.419 . S
C1605 C1600 1.425 . S
C1605 C1602 1.409 . S
C1605 C1603 1.415 . S
C1606 H1596 0.930 . S
C1606 C1604 1.419 . S
C1606 C1607 1.362 . S
C1607 H1597 0.930 . S
C1607 C1600 1.409 . S
C1607 C1606 1.362 . S
H1608 C1614 0.930 . S
H1609 C1617 0.930 . S
H1610 C1618 0.930 . S
H1611 C1619 0.930 . S
H1612 C1622 0.930 . S
H1613 C1623 0.930 . S
C1614 H1608 0.930 . S
C1614 C1615 1.355 . S
C1614 C1616 1.415 . S
C1615 C1614 1.355 . S
C1615 C1617 1.419 . S
C1616 C1614 1.415 . S
C1616 C1621 1.425 . S
C1616 C1623 1.409 . S
C1617 H1609 0.930 . S
C1617 C1615 1.419 . S
C1617 C1618 1.362 . S
C1618 H1610 0.930 . S
C1618 C1617 1.362 . S
C1618 C1621 1.409 . S
C1619 H1611 0.930 . S
C1619 C1620 1.355 . S
C1619 C1621 1.415 . S
C1620 C1619 1.355 . S
C1620 C1622 1.419 . S
C1621 C1616 1.425 . S
C1621 C1618 1.409 . S
C1621 C1619 1.415 . S
C1622 H1612 0.930 . S
C1622 C1620 1.419 . S
C1622 C1623 1.362 . S
C1623 H1613 0.930 . S
C1623 C1616 1.409 . S
C1623 C1622 1.362 . S
H1624 C1630 0.930 . S
H1625 C1633 0.930 . S
H1626 C1634 0.930 . S
H1627 C1635 0.930 . S
H1628 C1638 0.930 . S
H1629 C1639 0.930 . S
C1630 H1624 0.930 . S
C1630 C1631 1.355 . S
C1630 C1632 1.415 . S
C1631 C1630 1.355 . S
C1631 C1633 1.419 . S
C1632 C1630 1.415 . S
C1632 C1637 1.425 . S
C1632 C1639 1.409 . S
C1633 H1625 0.930 . S
C1633 C1631 1.419 . S
C1633 C1634 1.362 . S
C1634 H1626 0.930 . S
C1634 C1633 1.362 . S
C1634 C1637 1.409 . S
C1635 H1627 0.930 . S
C1635 C1636 1.355 . S
C1635 C1637 1.415 . S
C1636 C1635 1.355 . S
C1636 C1638 1.419 . S
C1637 C1632 1.425 . S
C1637 C1634 1.409 . S
C1637 C1635 1.415 . S
C1638 H1628 0.930 . S
C1638 C1636 1.419 . S
C1638 C1639 1.362 . S
C1639 H1629 0.930 . S
C1639 C1632 1.409 . S
C1639 C1638 1.362 . S
H1640 C1646 0.930 . S
H1641 C1649 0.930 . S
H1642 C1650 0.930 . S
H1643 C1651 0.930 . S
H1644 C1654 0.930 . S
H1645 C1655 0.930 . S
C1646 H1640 0.930 . S
C1646 C1647 1.355 . S
C1646 C1648 1.415 . S
C1647 C1646 1.355 . S
C1647 C1649 1.419 . S
C1648 C1646 1.415 . S
C1648 C1653 1.425 . S
C1648 C1655 1.409 . S
C1649 H1641 0.930 . S
C1649 C1647 1.419 . S
C1649 C1650 1.362 . S
C1650 H1642 0.930 . S
C1650 C1649 1.362 . S
C1650 C1653 1.409 . S
C1651 H1643 0.930 . S
C1651 C1652 1.355 . S
C1651 C1653 1.415 . S
C1652 C1651 1.355 . S
C1652 C1654 1.419 . S
C1653 C1648 1.425 . S
C1653 C1650 1.409 . S
C1653 C1651 1.415 . S
C1654 H1644 0.930 . S
C1654 C1652 1.419 . S
C1654 C1655 1.362 . S
C1655 H1645 0.930 . S
C1655 C1648 1.409 . S
C1655 C1654 1.362 . S
H1656 C1662 0.930 . S
H1657 C1665 0.930 . S
H1658 C1666 0.930 . S
H1659 C1667 0.930 . S
H1660 C1670 0.930 . S
H1661 C1671 0.930 . S
C1662 H1656 0.930 . S
C1662 C1663 1.355 . S
C1662 C1664 1.415 . S
C1663 C1662 1.355 . S
C1663 C1665 1.419 . S
C1664 C1662 1.415 . S
C1664 C1669 1.425 . S
C1664 C1671 1.409 . S
C1665 H1657 0.930 . S
C1665 C1663 1.419 . S
C1665 C1666 1.362 . S
C1666 H1658 0.930 . S
C1666 C1665 1.362 . S
C1666 C1669 1.409 . S
C1667 H1659 0.930 . S
C1667 C1668 1.355 . S
C1667 C1669 1.415 . S
C1668 C1667 1.355 . S
C1668 C1670 1.419 . S
C1669 C1664 1.425 . S
C1669 C1666 1.409 . S
C1669 C1667 1.415 . S
C1670 H1660 0.930 . S
C1670 C1668 1.419 . S
C1670 C1671 1.362 . S
C1671 H1661 0.930 . S
C1671 C1664 1.409 . S
C1671 C1670 1.362 . S
H1672 C1678 0.930 . S
H1673 C1681 0.930 . S
H1674 C1682 0.930 . S
H1675 C1683 0.930 . S
H1676 C1686 0.930 . S
H1677 C1687 0.930 . S
C1678 H1672 0.930 . S
C1678 C1679 1.355 . S
C1678 C1680 1.415 . S
C1679 C1678 1.355 . S
C1679 C1681 1.419 . S
C1680 C1678 1.415 . S
C1680 C1685 1.425 . S
C1680 C1687 1.409 . S
C1681 H1673 0.930 . S
C1681 C1679 1.419 . S
C1681 C1682 1.362 . S
C1682 H1674 0.930 . S
C1682 C1681 1.362 . S
C1682 C1685 1.409 . S
C1683 H1675 0.930 . S
C1683 C1684 1.355 . S
C1683 C1685 1.415 . S
C1684 C1683 1.355 . S
C1684 C1686 1.419 . S
C1685 C1680 1.425 . S
C1685 C1682 1.409 . S
C1685 C1683 1.415 . S
C1686 H1676 0.930 . S
C1686 C1684 1.419 . S
C1686 C1687 1.362 . S
C1687 H1677 0.930 . S
C1687 C1680 1.409 . S
C1687 C1686 1.362 . S
H1688 C1694 0.930 . S
H1689 C1697 0.930 . S
H1690 C1698 0.930 . S
H1691 C1699 0.930 . S
H1692 C1702 0.930 . S
H1693 C1703 0.930 . S
C1694 H1688 0.930 . S
C1694 C1695 1.355 . S
C1694 C1696 1.415 . S
C1695 C1694 1.355 . S
C1695 C1697 1.419 . S
C1696 C1694 1.415 . S
C1696 C1701 1.425 . S
C1696 C1703 1.409 . S
C1697 H1689 0.930 . S
C1697 C1695 1.419 . S
C1697 C1698 1.362 . S
C1698 H1690 0.930 . S
C1698 C1697 1.362 . S
C1698 C1701 1.409 . S
C1699 H1691 0.930 . S
C1699 C1700 1.355 . S
C1699 C1701 1.415 . S
C1700 C1699 1.355 . S
C1700 C1702 1.419 . S
C1701 C1696 1.425 . S
C1701 C1698 1.409 . S
C1701 C1699 1.415 . S
C1702 H1692 0.930 . S
C1702 C1700 1.419 . S
C1702 C1703 1.362 . S
C1703 H1693 0.930 . S
C1703 C1696 1.409 . S
C1703 C1702 1.362 . S
H1704 C1710 0.930 . S
H1705 C1713 0.930 . S
H1706 C1714 0.930 . S
H1707 C1715 0.930 . S
H1708 C1718 0.930 . S
H1709 C1719 0.930 . S
C1710 H1704 0.930 . S
C1710 C1711 1.355 . S
C1710 C1712 1.415 . S
C1711 C1710 1.355 . S
C1711 C1713 1.419 . S
C1712 C1710 1.415 . S
C1712 C1717 1.425 . S
C1712 C1719 1.409 . S
C1713 H1705 0.930 . S
C1713 C1711 1.419 . S
C1713 C1714 1.362 . S
C1714 H1706 0.930 . S
C1714 C1713 1.362 . S
C1714 C1717 1.409 . S
C1715 H1707 0.930 . S
C1715 C1716 1.355 . S
C1715 C1717 1.415 . S
C1716 C1715 1.355 . S
C1716 C1718 1.419 . S
C1717 C1712 1.425 . S
C1717 C1714 1.409 . S
C1717 C1715 1.415 . S
C1718 H1708 0.930 . S
C1718 C1716 1.419 . S
C1718 C1719 1.362 . S
C1719 H1709 0.930 . S
C1719 C1712 1.409 . S
C1719 C1718 1.362 . S
H1720 C1726 0.930 . S
H1721 C1729 0.930 . S
H1722 C1730 0.930 . S
H1723 C1731 0.930 . S
H1724 C1734 0.930 . S
H1725 C1735 0.930 . S
C1726 H1720 0.930 . S
C1726 C1727 1.355 . S
C1726 C1728 1.415 . S
C1727 C1726 1.355 . S
C1727 C1729 1.419 . S
C1728 C1726 1.415 . S
C1728 C1733 1.425 . S
C1728 C1735 1.409 . S
C1729 H1721 0.930 . S
C1729 C1727 1.419 . S
C1729 C1730 1.362 . S
C1730 H1722 0.930 . S
C1730 C1729 1.362 . S
C1730 C1733 1.409 . S
C1731 H1723 0.930 . S
C1731 C1732 1.355 . S
C1731 C1733 1.415 . S
C1732 C1731 1.355 . S
C1732 C1734 1.419 . S
C1733 C1728 1.425 . S
C1733 C1730 1.409 . S
C1733 C1731 1.415 . S
C1734 H1724 0.930 . S
C1734 C1732 1.419 . S
C1734 C1735 1.362 . S
C1735 H1725 0.930 . S
C1735 C1728 1.409 . S
C1735 C1734 1.362 . S
H1736 C1742 0.930 . S
H1737 C1745 0.930 . S
H1738 C1746 0.930 . S
H1739 C1747 0.930 . S
H1740 C1750 0.930 . S
H1741 C1751 0.930 . S
C1742 H1736 0.930 . S
C1742 C1743 1.355 . S
C1742 C1744 1.415 . S
C1743 C1742 1.355 . S
C1743 C1745 1.419 . S
C1744 C1742 1.415 . S
C1744 C1749 1.425 . S
C1744 C1751 1.409 . S
C1745 H1737 0.930 . S
C1745 C1743 1.419 . S
C1745 C1746 1.362 . S
C1746 H1738 0.930 . S
C1746 C1745 1.362 . S
C1746 C1749 1.409 . S
C1747 H1739 0.930 . S
C1747 C1748 1.355 . S
C1747 C1749 1.415 . S
C1748 C1747 1.355 . S
C1748 C1750 1.419 . S
C1749 C1744 1.425 . S
C1749 C1746 1.409 . S
C1749 C1747 1.415 . S
C1750 H1740 0.930 . S
C1750 C1748 1.419 . S
C1750 C1751 1.362 . S
C1751 H1741 0.930 . S
C1751 C1744 1.409 . S
C1751 C1750 1.362 . S
H1752 C1758 0.930 . S
H1753 C1761 0.930 . S
H1754 C1762 0.930 . S
H1755 C1763 0.930 . S
H1756 C1766 0.930 . S
H1757 C1767 0.930 . S
C1758 H1752 0.930 . S
C1758 C1759 1.355 . S
C1758 C1760 1.415 . S
C1759 C1758 1.355 . S
C1759 C1761 1.419 . S
C1760 C1758 1.415 . S
C1760 C1765 1.425 . S
C1760 C1767 1.409 . S
C1761 H1753 0.930 . S
C1761 C1759 1.419 . S
C1761 C1762 1.362 . S
C1762 H1754 0.930 . S
C1762 C1761 1.362 . S
C1762 C1765 1.409 . S
C1763 H1755 0.930 . S
C1763 C1764 1.355 . S
C1763 C1765 1.415 . S
C1764 C1763 1.355 . S
C1764 C1766 1.419 . S
C1765 C1760 1.425 . S
C1765 C1762 1.409 . S
C1765 C1763 1.415 . S
C1766 H1756 0.930 . S
C1766 C1764 1.419 . S
C1766 C1767 1.362 . S
C1767 H1757 0.930 . S
C1767 C1760 1.409 . S
C1767 C1766 1.362 . S
H1768 C1774 0.930 . S
H1769 C1777 0.930 . S
H1770 C1778 0.930 . S
H1771 C1779 0.930 . S
H1772 C1782 0.930 . S
H1773 C1783 0.930 . S
C1774 H1768 0.930 . S
C1774 C1775 1.355 . S
C1774 C1776 1.415 . S
C1775 C1774 1.355 . S
C1775 C1777 1.419 . S
C1776 C1774 1.415 . S
C1776 C1781 1.425 . S
C1776 C1783 1.409 . S
C1777 H1769 0.930 . S
C1777 C1775 1.419 . S
C1777 C1778 1.362 . S
C1778 H1770 0.930 . S
C1778 C1777 1.362 . S
C1778 C1781 1.409 . S
C1779 H1771 0.930 . S
C1779 C1780 1.355 . S
C1779 C1781 1.415 . S
C1780 C1779 1.355 . S
C1780 C1782 1.419 . S
C1781 C1776 1.425 . S
C1781 C1778 1.409 . S
C1781 C1779 1.415 . S
C1782 H1772 0.930 . S
C1782 C1780 1.419 . S
C1782 C1783 1.362 . S
C1783 H1773 0.930 . S
C1783 C1776 1.409 . S
C1783 C1782 1.362 . S
H1784 C1790 0.930 . S
H1785 C1793 0.930 . S
H1786 C1794 0.930 . S
H1787 C1795 0.930 . S
H1788 C1798 0.930 . S
H1789 C1799 0.930 . S
C1790 H1784 0.930 . S
C1790 C1791 1.355 . S
C1790 C1792 1.415 . S
C1791 C1790 1.355 . S
C1791 C1793 1.419 . S
C1792 C1790 1.415 . S
C1792 C1797 1.425 . S
C1792 C1799 1.409 . S
C1793 H1785 0.930 . S
C1793 C1791 1.419 . S
C1793 C1794 1.362 . S
C1794 H1786 0.930 . S
C1794 C1793 1.362 . S
C1794 C1797 1.409 . S
C1795 H1787 0.930 . S
C1795 C1796 1.355 . S
C1795 C1797 1.415 . S
C1796 C1795 1.355 . S
C1796 C1798 1.419 . S
C1797 C1792 1.425 . S
C1797 C1794 1.409 . S
C1797 C1795 1.415 . S
C1798 H1788 0.930 . S
C1798 C1796 1.419 . S
C1798 C1799 1.362 . S
C1799 H1789 0.930 . S
C1799 C1792 1.409 . S
C1799 C1798 1.362 . S
H1800 C1806 0.930 . S
H1801 C1809 0.930 . S
H1802 C1810 0.930 . S
H1803 C1811 0.930 . S
H1804 C1814 0.930 . S
H1805 C1815 0.930 . S
C1806 H1800 0.930 . S
C1806 C1807 1.355 . S
C1806 C1808 1.415 . S
C1807 C1806 1.355 . S
C1807 C1809 1.419 . S
C1808 C1806 1.415 . S
C1808 C1813 1.425 . S
C1808 C1815 1.409 . S
C1809 H1801 0.930 . S
C1809 C1807 1.419 . S
C1809 C1810 1.362 . S
C1810 H1802 0.930 . S
C1810 C1809 1.362 . S
C1810 C1813 1.409 . S
C1811 H1803 0.930 . S
C1811 C1812 1.355 . S
C1811 C1813 1.415 . S
C1812 C1811 1.355 . S
C1812 C1814 1.419 . S
C1813 C1808 1.425 . S
C1813 C1810 1.409 . S
C1813 C1811 1.415 . S
C1814 H1804 0.930 . S
C1814 C1812 1.419 . S
C1814 C1815 1.362 . S
C1815 H1805 0.930 . S
C1815 C1808 1.409 . S
C1815 C1814 1.362 . S
H1816 C1822 0.930 . S
H1817 C1825 0.930 . S
H1818 C1826 0.930 . S
H1819 C1827 0.930 . S
H1820 C1830 0.930 . S
H1821 C1831 0.930 . S
C1822 H1816 0.930 . S
C1822 C1823 1.355 . S
C1822 C1824 1.415 . S
C1823 C1822 1.355 . S
C1823 C1825 1.419 . S
C1824 C1822 1.415 . S
C1824 C1829 1.425 . S
C1824 C1831 1.409 . S
C1825 H1817 0.930 . S
C1825 C1823 1.419 . S
C1825 C1826 1.362 . S
C1826 H1818 0.930 . S
C1826 C1825 1.362 . S
C1826 C1829 1.409 . S
C1827 H1819 0.930 . S
C1827 C1828 1.355 . S
C1827 C1829 1.415 . S
C1828 C1827 1.355 . S
C1828 C1830 1.419 . S
C1829 C1824 1.425 . S
C1829 C1826 1.409 . S
C1829 C1827 1.415 . S
C1830 H1820 0.930 . S
C1830 C1828 1.419 . S
C1830 C1831 1.362 . S
C1831 H1821 0.930 . S
C1831 C1824 1.409 . S
C1831 C1830 1.362 . S
H1832 C1838 0.930 . S
H1833 C1841 0.930 . S
H1834 C1842 0.930 . S
H1835 C1843 0.930 . S
H1836 C1846 0.930 . S
H1837 C1847 0.930 . S
C1838 H1832 0.930 . S
C1838 C1839 1.355 . S
C1838 C1840 1.415 . S
C1839 C1838 1.355 . S
C1839 C1841 1.419 . S
C1840 C1838 1.415 . S
C1840 C1845 1.425 . S
C1840 C1847 1.409 . S
C1841 H1833 0.930 . S
C1841 C1839 1.419 . S
C1841 C1842 1.362 . S
C1842 H1834 0.930 . S
C1842 C1841 1.362 . S
C1842 C1845 1.409 . S
C1843 H1835 0.930 . S
C1843 C1844 1.355 . S
C1843 C1845 1.415 . S
C1844 C1843 1.355 . S
C1844 C1846 1.419 . S
C1845 C1840 1.425 . S
C1845 C1842 1.409 . S
C1845 C1843 1.415 . S
C1846 H1836 0.930 . S
C1846 C1844 1.419 . S
C1846 C1847 1.362 . S
C1847 H1837 0.930 . S
C1847 C1840 1.409 . S
C1847 C1846 1.362 . S
H1848 C1854 0.930 . S
H1849 C1857 0.930 . S
H1850 C1858 0.930 . S
H1851 C1859 0.930 . S
H1852 C1862 0.930 . S
H1853 C1863 0.930 . S
C1854 H1848 0.930 . S
C1854 C1855 1.355 . S
C1854 C1856 1.415 . S
C1855 C1854 1.355 . S
C1855 C1857 1.419 . S
C1856 C1854 1.415 . S
C1856 C1861 1.425 . S
C1856 C1863 1.409 . S
C1857 H1849 0.930 . S
C1857 C1855 1.419 . S
C1857 C1858 1.362 . S
C1858 H1850 0.930 . S
C1858 C1857 1.362 . S
C1858 C1861 1.409 . S
C1859 H1851 0.930 . S
C1859 C1860 1.355 . S
C1859 C1861 1.415 . S
C1860 C1859 1.355 . S
C1860 C1862 1.419 . S
C1861 C1856 1.425 . S
C1861 C1858 1.409 . S
C1861 C1859 1.415 . S
C1862 H1852 0.930 . S
C1862 C1860 1.419 . S
C1862 C1863 1.362 . S
C1863 H1853 0.930 . S
C1863 C1856 1.409 . S
C1863 C1862 1.362 . S
H1864 C1870 0.930 . S
H1865 C1873 0.930 . S
H1866 C1874 0.930 . S
H1867 C1875 0.930 . S
H1868 C1878 0.930 . S
H1869 C1879 0.930 . S
C1870 H1864 0.930 . S
C1870 C1871 1.355 . S
C1870 C1872 1.415 . S
C1871 C1870 1.355 . S
C1871 C1873 1.419 . S
C1872 C1870 1.415 . S
C1872 C1877 1.425 . S
C1872 C1879 1.409 . S
C1873 H1865 0.930 . S
C1873 C1871 1.419 . S
C1873 C1874 1.362 . S
C1874 H1866 0.930 . S
C1874 C1873 1.362 . S
C1874 C1877 1.409 . S
C1875 H1867 0.930 . S
C1875 C1876 1.355 . S
C1875 C1877 1.415 . S
C1876 C1875 1.355 . S
C1876 C1878 1.419 . S
C1877 C1872 1.425 . S
C1877 C1874 1.409 . S
C1877 C1875 1.415 . S
C1878 H1868 0.930 . S
C1878 C1876 1.419 . S
C1878 C1879 1.362 . S
C1879 H1869 0.930 . S
C1879 C1872 1.409 . S
C1879 C1878 1.362 . S
H1880 C1886 0.930 . S
H1881 C1889 0.930 . S
H1882 C1890 0.930 . S
H1883 C1891 0.930 . S
H1884 C1894 0.930 . S
H1885 C1895 0.930 . S
C1886 H1880 0.930 . S
C1886 C1887 1.355 . S
C1886 C1888 1.415 . S
C1887 C1886 1.355 . S
C1887 C1889 1.419 . S
C1888 C1886 1.415 . S
C1888 C1893 1.425 . S
C1888 C1895 1.409 . S
C1889 H1881 0.930 . S
C1889 C1887 1.419 . S
C1889 C1890 1.362 . S
C1890 H1882 0.930 . S
C1890 C1889 1.362 . S
C1890 C1893 1.409 . S
C1891 H1883 0.930 . S
C1891 C1892 1.355 . S
C1891 C1893 1.415 . S
C1892 C1891 1.355 . S
C1892 C1894 1.419 . S
C1893 C1888 1.425 . S
C1893 C1890 1.409 . S
C1893 C1891 1.415 . S
C1894 H1884 0.930 . S
C1894 C1892 1.419 . S
C1894 C1895 1.362 . S
C1895 H1885 0.930 . S
C1895 C1888 1.409 . S
C1895 C1894 1.362 . S
H1896 C1902 0.930 . S
H1897 C1905 0.930 . S
H1898 C1906 0.930 . S
H1899 C1907 0.930 . S
H1900 C1910 0.930 . S
H1901 C1911 0.930 . S
C1902 H1896 0.930 . S
C1902 C1903 1.355 . S
C1902 C1904 1.415 . S
C1903 C1902 1.355 . S
C1903 C1905 1.419 . S
C1904 C1902 1.415 . S
C1904 C1909 1.425 . S
C1904 C1911 1.409 . S
C1905 H1897 0.930 . S
C1905 C1903 1.419 . S
C1905 C1906 1.362 . S
C1906 H1898 0.930 . S
C1906 C1905 1.362 . S
C1906 C1909 1.409 . S
C1907 H1899 0.930 . S
C1907 C1908 1.355 . S
C1907 C1909 1.415 . S
C1908 C1907 1.355 . S
C1908 C1910 1.419 . S
C1909 C1904 1.425 . S
C1909 C1906 1.409 . S
C1909 C1907 1.415 . S
C1910 H1900 0.930 . S
C1910 C1908 1.419 . S
C1910 C1911 1.362 . S
C1911 H1901 0.930 . S
C1911 C1904 1.409 . S
C1911 C1910 1.362 . S
H1912 C1918 0.930 . S
H1913 C1921 0.930 . S
H1914 C1922 0.930 . S
H1915 C1923 0.930 . S
H1916 C1926 0.930 . S
H1917 C1927 0.930 . S
C1918 H1912 0.930 . S
C1918 C1919 1.355 . S
C1918 C1920 1.415 . S
C1919 C1918 1.355 . S
C1919 C1921 1.419 . S
C1920 C1918 1.415 . S
C1920 C1925 1.425 . S
C1920 C1927 1.409 . S
C1921 H1913 0.930 . S
C1921 C1919 1.419 . S
C1921 C1922 1.362 . S
C1922 H1914 0.930 . S
C1922 C1921 1.362 . S
C1922 C1925 1.409 . S
C1923 H1915 0.930 . S
C1923 C1924 1.355 . S
C1923 C1925 1.415 . S
C1924 C1923 1.355 . S
C1924 C1926 1.419 . S
C1925 C1920 1.425 . S
C1925 C1922 1.409 . S
C1925 C1923 1.415 . S
C1926 H1916 0.930 . S
C1926 C1924 1.419 . S
C1926 C1927 1.362 . S
C1927 H1917 0.930 . S
C1927 C1920 1.409 . S
C1927 C1926 1.362 . S
H1928 C1934 0.930 . S
H1929 C1937 0.930 . S
H1930 C1938 0.930 . S
H1931 C1939 0.930 . S
H1932 C1942 0.930 . S
H1933 C1943 0.930 . S
C1934 H1928 0.930 . S
C1934 C1935 1.355 . S
C1934 C1936 1.415 . S
C1935 C1934 1.355 . S
C1935 C1937 1.419 . S
C1936 C1934 1.415 . S
C1936 C1941 1.425 . S
C1936 C1943 1.409 . S
C1937 H1929 0.930 . S
C1937 C1935 1.419 . S
C1937 C1938 1.362 . S
C1938 H1930 0.930 . S
C1938 C1937 1.362 . S
C1938 C1941 1.409 . S
C1939 H1931 0.930 . S
C1939 C1940 1.355 . S
C1939 C1941 1.415 . S
C1940 C1939 1.355 . S
C1940 C1942 1.419 . S
C1941 C1936 1.425 . S
C1941 C1938 1.409 . S
C1941 C1939 1.415 . S
C1942 H1932 0.930 . S
C1942 C1940 1.419 . S
C1942 C1943 1.362 . S
C1943 H1933 0.930 . S
C1943 C1936 1.409 . S
C1943 C1942 1.362 . S
H1944 C1950 0.930 . S
H1945 C1953 0.930 . S
H1946 C1954 0.930 . S
H1947 C1955 0.930 . S
H1948 C1958 0.930 . S
H1949 C1959 0.930 . S
C1950 H1944 0.930 . S
C1950 C1951 1.355 . S
C1950 C1952 1.415 . S
C1951 C1950 1.355 . S
C1951 C1953 1.419 . S
C1952 C1950 1.415 . S
C1952 C1957 1.425 . S
C1952 C1959 1.409 . S
C1953 H1945 0.930 . S
C1953 C1951 1.419 . S
C1953 C1954 1.362 . S
C1954 H1946 0.930 . S
C1954 C1953 1.362 . S
C1954 C1957 1.409 . S
C1955 H1947 0.930 . S
C1955 C1956 1.355 . S
C1955 C1957 1.415 . S
C1956 C1955 1.355 . S
C1956 C1958 1.419 . S
C1957 C1952 1.425 . S
C1957 C1954 1.409 . S
C1957 C1955 1.415 . S
C1958 H1948 0.930 . S
C1958 C1956 1.419 . S
C1958 C1959 1.362 . S
C1959 H1949 0.930 . S
C1959 C1952 1.409 . S
C1959 C1958 1.362 . S
H1960 C1966 0.930 . S
H1961 C1969 0.930 . S
H1962 C1970 0.930 . S
H1963 C1971 0.930 . S
H1964 C1974 0.930 . S
H1965 C1975 0.930 . S
C1966 H1960 0.930 . S
C1966 C1967 1.355 . S
C1966 C1968 1.415 . S
C1967 C1966 1.355 . S
C1967 C1969 1.419 . S
C1968 C1966 1.415 . S
C1968 C1973 1.425 . S
C1968 C1975 1.409 . S
C1969 H1961 0.930 . S
C1969 C1967 1.419 . S
C1969 C1970 1.362 . S
C1970 H1962 0.930 . S
C1970 C1969 1.362 . S
C1970 C1973 1.409 . S
C1971 H1963 0.930 . S
C1971 C1972 1.355 . S
C1971 C1973 1.415 . S
C1972 C1971 1.355 . S
C1972 C1974 1.419 . S
C1973 C1968 1.425 . S
C1973 C1970 1.409 . S
C1973 C1971 1.415 . S
C1974 H1964 0.930 . S
C1974 C1972 1.419 . S
C1974 C1975 1.362 . S
C1975 H1965 0.930 . S
C1975 C1968 1.409 . S
C1975 C1974 1.362 . S
H1976 C1982 0.930 . S
H1977 C1985 0.930 . S
H1978 C1986 0.930 . S
H1979 C1987 0.930 . S
H1980 C1990 0.930 . S
H1981 C1991 0.930 . S
C1982 H1976 0.930 . S
C1982 C1983 1.355 . S
C1982 C1984 1.415 . S
C1983 C1982 1.355 . S
C1983 C1985 1.419 . S
C1984 C1982 1.415 . S
C1984 C1989 1.425 . S
C1984 C1991 1.409 . S
C1985 H1977 0.930 . S
C1985 C1983 1.419 . S
C1985 C1986 1.362 . S
C1986 H1978 0.930 . S
C1986 C1985 1.362 . S
C1986 C1989 1.409 . S
C1987 H1979 0.930 . S
C1987 C1988 1.355 . S
C1987 C1989 1.415 . S
C1988 C1987 1.355 . S
C1988 C1990 1.419 . S
C1989 C1984 1.425 . S
C1989 C1986 1.409 . S
C1989 C1987 1.415 . S
C1990 H1980 0.930 . S
C1990 C1988 1.419 . S
C1990 C1991 1.362 . S
C1991 H1981 0.930 . S
C1991 C1984 1.409 . S
C1991 C1990 1.362 . S
H1992 C1998 0.930 . S
H1993 C2001 0.930 1_554 S
H1994 C2002 0.930 1_554 S
H1995 C2003 0.930 . S
H1996 C2006 0.930 . S
H1997 C2007 0.930 . S
C1998 H1992 0.930 . S
C1998 C1999 1.355 . S
C1998 C2000 1.415 . S
C1999 C1998 1.355 . S
C1999 C2001 1.419 . S
C2000 C1998 1.415 . S
C2000 C2005 1.425 . S
C2000 C2007 1.409 . S
C2001 H1993 0.930 1_556 S
C2001 C1999 1.419 . S
C2001 C2002 1.362 . S
C2002 H1994 0.930 1_556 S
C2002 C2001 1.362 . S
C2002 C2005 1.409 . S
C2003 H1995 0.930 . S
C2003 C2004 1.355 . S
C2003 C2005 1.415 . S
C2004 C2003 1.355 . S
C2004 C2006 1.419 . S
C2005 C2000 1.425 . S
C2005 C2002 1.409 . S
C2005 C2003 1.415 . S
C2006 H1996 0.930 . S
C2006 C2004 1.419 . S
C2006 C2007 1.362 . S
C2007 H1997 0.930 . S
C2007 C2000 1.409 . S
C2007 C2006 1.362 . S
H2008 C2014 0.922 1_554 S
H2009 C2017 0.930 . S
H2010 C2018 0.930 . S
H2011 C2019 0.930 . S
H2012 C2022 0.930 . S
H2013 C2023 0.930 . S
C2014 H2008 0.922 1_556 S
C2014 C2015 1.355 . S
C2014 C2016 1.415 . S
C2015 C2014 1.355 . S
C2015 C2017 1.419 . S
C2016 C2014 1.415 . S
C2016 C2021 1.425 . S
C2016 C2023 1.409 . S
C2017 H2009 0.930 . S
C2017 C2015 1.419 . S
C2017 C2018 1.362 . S
C2018 H2010 0.930 . S
C2018 C2017 1.362 . S
C2018 C2021 1.409 . S
C2019 H2011 0.930 . S
C2019 C2020 1.355 . S
C2019 C2021 1.415 . S
C2020 C2019 1.355 . S
C2020 C2022 1.419 . S
C2021 C2016 1.425 . S
C2021 C2018 1.409 . S
C2021 C2019 1.415 . S
C2022 H2012 0.930 . S
C2022 C2020 1.419 . S
C2022 C2023 1.362 . S
C2023 H2013 0.930 . S
C2023 C2016 1.409 . S
C2023 C2022 1.362 . S
H2024 C2030 0.930 . S
H2025 C2033 0.930 1_554 S
H2026 C2034 0.930 1_554 S
H2027 C2035 0.930 . S
H2028 C2038 0.930 . S
H2029 C2039 0.930 . S
C2030 H2024 0.930 . S
C2030 C2031 1.355 . S
C2030 C2032 1.415 . S
C2031 C2030 1.355 . S
C2031 C2033 1.419 . S
C2032 C2030 1.415 . S
C2032 C2037 1.425 . S
C2032 C2039 1.409 . S
C2033 H2025 0.930 1_556 S
C2033 C2031 1.419 . S
C2033 C2034 1.362 . S
C2034 H2026 0.930 1_556 S
C2034 C2033 1.362 . S
C2034 C2037 1.409 . S
C2035 H2027 0.930 . S
C2035 C2036 1.355 . S
C2035 C2037 1.415 . S
C2036 C2035 1.355 . S
C2036 C2038 1.419 . S
C2037 C2032 1.425 . S
C2037 C2034 1.409 . S
C2037 C2035 1.415 . S
C2038 H2028 0.930 . S
C2038 C2036 1.419 . S
C2038 C2039 1.362 . S
C2039 H2029 0.930 . S
C2039 C2032 1.409 . S
C2039 C2038 1.362 . S
H2040 C2046 0.930 . S
H2041 C2049 0.930 1_554 S
H2042 C2050 0.930 1_554 S
H2043 C2051 0.930 . S
H2044 C2054 0.930 . S
H2045 C2055 0.930 . S
C2046 H2040 0.930 . S
C2046 C2047 1.355 . S
C2046 C2048 1.415 . S
C2047 C2046 1.355 . S
C2047 C2049 1.419 . S
C2048 C2046 1.415 . S
C2048 C2053 1.425 . S
C2048 C2055 1.409 . S
C2049 H2041 0.930 1_556 S
C2049 C2047 1.419 . S
C2049 C2050 1.362 . S
C2050 H2042 0.930 1_556 S
C2050 C2049 1.362 . S
C2050 C2053 1.409 . S
C2051 H2043 0.930 . S
C2051 C2052 1.355 . S
C2051 C2053 1.415 . S
C2052 C2051 1.355 . S
C2052 C2054 1.419 . S
C2053 C2048 1.425 . S
C2053 C2050 1.409 . S
C2053 C2051 1.415 . S
C2054 H2044 0.930 . S
C2054 C2052 1.419 . S
C2054 C2055 1.362 . S
C2055 H2045 0.930 . S
C2055 C2048 1.409 . S
C2055 C2054 1.362 . S
H2056 C2062 0.930 . S
H2057 C2065 0.930 1_554 S
H2058 C2066 0.930 1_554 S
H2059 C2067 0.930 . S
H2060 C2070 0.930 . S
H2061 C2071 0.930 . S
C2062 H2056 0.930 . S
C2062 C2063 1.355 . S
C2062 C2064 1.415 . S
C2063 C2062 1.355 . S
C2063 C2065 1.419 . S
C2064 C2062 1.415 . S
C2064 C2069 1.425 . S
C2064 C2071 1.409 . S
C2065 H2057 0.930 1_556 S
C2065 C2063 1.419 . S
C2065 C2066 1.362 . S
C2066 H2058 0.930 1_556 S
C2066 C2065 1.362 . S
C2066 C2069 1.409 . S
C2067 H2059 0.930 . S
C2067 C2068 1.355 . S
C2067 C2069 1.415 . S
C2068 C2067 1.355 . S
C2068 C2070 1.419 . S
C2069 C2064 1.425 . S
C2069 C2066 1.409 . S
C2069 C2067 1.415 . S
C2070 H2060 0.930 . S
C2070 C2068 1.419 . S
C2070 C2071 1.362 . S
C2071 H2061 0.930 . S
C2071 C2064 1.409 . S
C2071 C2070 1.362 . S
H2072 C2078 0.930 . S
H2073 C2081 0.930 . S
H2074 C2082 0.930 . S
H2075 C2083 0.930 . S
H2076 C2086 0.930 . S
H2077 C2087 0.930 . S
C2078 H2072 0.930 . S
C2078 C2079 1.355 . S
C2078 C2080 1.415 . S
C2079 C2078 1.355 . S
C2079 C2081 1.419 . S
C2080 C2078 1.415 . S
C2080 C2085 1.425 . S
C2080 C2087 1.409 . S
C2081 H2073 0.930 . S
C2081 C2079 1.419 . S
C2081 C2082 1.362 . S
C2082 H2074 0.930 . S
C2082 C2081 1.362 . S
C2082 C2085 1.409 . S
C2083 H2075 0.930 . S
C2083 C2084 1.355 . S
C2083 C2085 1.415 . S
C2084 C2083 1.355 . S
C2084 C2086 1.419 . S
C2085 C2080 1.425 . S
C2085 C2082 1.409 . S
C2085 C2083 1.415 . S
C2086 H2076 0.930 . S
C2086 C2084 1.419 . S
C2086 C2087 1.362 . S
C2087 H2077 0.930 . S
C2087 C2080 1.409 . S
C2087 C2086 1.362 . S
H2088 C2094 0.930 . S
H2089 C2097 0.930 . S
H2090 C2098 0.930 . S
H2091 C2099 0.930 . S
H2092 C2102 0.930 . S
H2093 C2103 0.930 . S
C2094 H2088 0.930 . S
C2094 C2095 1.355 . S
C2094 C2096 1.415 . S
C2095 C2094 1.355 . S
C2095 C2097 1.419 . S
C2096 C2094 1.415 . S
C2096 C2101 1.425 . S
C2096 C2103 1.409 . S
C2097 H2089 0.930 . S
C2097 C2095 1.419 . S
C2097 C2098 1.362 . S
C2098 H2090 0.930 . S
C2098 C2097 1.362 . S
C2098 C2101 1.409 . S
C2099 H2091 0.930 . S
C2099 C2100 1.355 . S
C2099 C2101 1.415 . S
C2100 C2099 1.355 . S
C2100 C2102 1.419 . S
C2101 C2096 1.425 . S
C2101 C2098 1.409 . S
C2101 C2099 1.415 . S
C2102 H2092 0.930 . S
C2102 C2100 1.419 . S
C2102 C2103 1.362 . S
C2103 H2093 0.930 . S
C2103 C2096 1.409 . S
C2103 C2102 1.362 . S
H2104 C2110 0.930 . S
H2105 C2113 0.930 . S
H2106 C2114 0.930 . S
H2107 C2115 0.930 . S
H2108 C2118 0.930 . S
H2109 C2119 0.930 . S
C2110 H2104 0.930 . S
C2110 C2111 1.355 . S
C2110 C2112 1.415 . S
C2111 C2110 1.355 . S
C2111 C2113 1.419 . S
C2112 C2110 1.415 . S
C2112 C2117 1.425 . S
C2112 C2119 1.409 . S
C2113 H2105 0.930 . S
C2113 C2111 1.419 . S
C2113 C2114 1.362 . S
C2114 H2106 0.930 . S
C2114 C2113 1.362 . S
C2114 C2117 1.409 . S
C2115 H2107 0.930 . S
C2115 C2116 1.355 . S
C2115 C2117 1.415 . S
C2116 C2115 1.355 . S
C2116 C2118 1.419 . S
C2117 C2112 1.425 . S
C2117 C2114 1.409 . S
C2117 C2115 1.415 . S
C2118 H2108 0.930 . S
C2118 C2116 1.419 . S
C2118 C2119 1.362 . S
C2119 H2109 0.930 . S
C2119 C2112 1.409 . S
C2119 C2118 1.362 . S
H2120 C2126 0.930 . S
H2121 C2129 0.930 . S
H2122 C2130 0.930 . S
H2123 C2131 0.930 . S
H2124 C2134 0.930 . S
H2125 C2135 0.930 . S
C2126 H2120 0.930 . S
C2126 C2127 1.355 . S
C2126 C2128 1.415 . S
C2127 C2126 1.355 . S
C2127 C2129 1.419 . S
C2128 C2126 1.415 . S
C2128 C2133 1.425 . S
C2128 C2135 1.409 . S
C2129 H2121 0.930 . S
C2129 C2127 1.419 . S
C2129 C2130 1.362 . S
C2130 H2122 0.930 . S
C2130 C2129 1.362 . S
C2130 C2133 1.409 . S
C2131 H2123 0.930 . S
C2131 C2132 1.355 . S
C2131 C2133 1.415 . S
C2132 C2131 1.355 . S
C2132 C2134 1.419 . S
C2133 C2128 1.425 . S
C2133 C2130 1.409 . S
C2133 C2131 1.415 . S
C2134 H2124 0.930 . S
C2134 C2132 1.419 . S
C2134 C2135 1.362 . S
C2135 H2125 0.930 . S
C2135 C2128 1.409 . S
C2135 C2134 1.362 . S
H2136 C2142 0.930 . S
H2137 C2145 0.930 . S
H2138 C2146 0.930 . S
H2139 C2147 0.930 . S
H2140 C2150 0.930 . S
H2141 C2151 0.930 . S
C2142 H2136 0.930 . S
C2142 C2143 1.355 . S
C2142 C2144 1.415 . S
C2143 C2142 1.355 . S
C2143 C2145 1.419 . S
C2144 C2142 1.415 . S
C2144 C2149 1.425 . S
C2144 C2151 1.409 . S
C2145 H2137 0.930 . S
C2145 C2143 1.419 . S
C2145 C2146 1.362 . S
C2146 H2138 0.930 . S
C2146 C2145 1.362 . S
C2146 C2149 1.409 . S
C2147 H2139 0.930 . S
C2147 C2148 1.355 . S
C2147 C2149 1.415 . S
C2148 C2147 1.355 . S
C2148 C2150 1.419 . S
C2149 C2144 1.425 . S
C2149 C2146 1.409 . S
C2149 C2147 1.415 . S
C2150 H2140 0.930 . S
C2150 C2148 1.419 . S
C2150 C2151 1.362 . S
C2151 H2141 0.930 . S
C2151 C2144 1.409 . S
C2151 C2150 1.362 . S
H2152 C2158 0.930 . S
H2153 C2161 0.930 . S
H2154 C2162 0.930 . S
H2155 C2163 0.930 . S
H2156 C2166 0.930 . S
H2157 C2167 0.930 . S
C2158 H2152 0.930 . S
C2158 C2159 1.355 . S
C2158 C2160 1.415 . S
C2159 C2158 1.355 . S
C2159 C2161 1.419 . S
C2160 C2158 1.415 . S
C2160 C2165 1.425 . S
C2160 C2167 1.409 . S
C2161 H2153 0.930 . S
C2161 C2159 1.419 . S
C2161 C2162 1.362 . S
C2162 H2154 0.930 . S
C2162 C2161 1.362 . S
C2162 C2165 1.409 . S
C2163 H2155 0.930 . S
C2163 C2164 1.355 . S
C2163 C2165 1.415 . S
C2164 C2163 1.355 . S
C2164 C2166 1.419 . S
C2165 C2160 1.425 . S
C2165 C2162 1.409 . S
C2165 C2163 1.415 . S
C2166 H2156 0.930 . S
C2166 C2164 1.419 . S
C2166 C2167 1.362 . S
C2167 H2157 0.930 . S
C2167 C2160 1.409 . S
C2167 C2166 1.362 . S
H2168 C2174 0.930 . S
H2169 C2177 0.930 . S
H2170 C2178 0.930 . S
H2171 C2179 0.930 . S
H2172 C2182 0.930 . S
H2173 C2183 0.930 . S
C2174 H2168 0.930 . S
C2174 C2175 1.355 . S
C2174 C2176 1.415 . S
C2175 C2174 1.355 . S
C2175 C2177 1.419 . S
C2176 C2174 1.415 . S
C2176 C2181 1.425 . S
C2176 C2183 1.409 . S
C2177 H2169 0.930 . S
C2177 C2175 1.419 . S
C2177 C2178 1.362 . S
C2178 H2170 0.930 . S
C2178 C2177 1.362 . S
C2178 C2181 1.409 . S
C2179 H2171 0.930 . S
C2179 C2180 1.355 . S
C2179 C2181 1.415 . S
C2180 C2179 1.355 . S
C2180 C2182 1.419 . S
C2181 C2176 1.425 . S
C2181 C2178 1.409 . S
C2181 C2179 1.415 . S
C2182 H2172 0.930 . S
C2182 C2180 1.419 . S
C2182 C2183 1.362 . S
C2183 H2173 0.930 . S
C2183 C2176 1.409 . S
C2183 C2182 1.362 . S
H2184 C2190 0.930 . S
H2185 C2193 0.930 . S
H2186 C2194 0.930 1_655 S
H2187 C2195 0.946 . S
H2188 C2198 0.930 . S
H2189 C2199 0.930 . S
C2190 H2184 0.930 . S
C2190 C2191 1.355 . S
C2190 C2192 1.415 . S
C2191 C2190 1.355 . S
C2191 C2193 1.419 . S
C2192 C2190 1.415 . S
C2192 C2197 1.425 . S
C2192 C2199 1.409 . S
C2193 H2185 0.930 . S
C2193 C2191 1.419 . S
C2193 C2194 1.362 . S
C2194 H2186 0.930 1_455 S
C2194 C2193 1.362 . S
C2194 C2197 1.409 . S
C2195 H2187 0.946 . S
C2195 C2196 1.355 . S
C2195 C2197 1.415 . S
C2196 C2195 1.355 . S
C2196 C2198 1.419 . S
C2197 C2192 1.425 . S
C2197 C2194 1.409 . S
C2197 C2195 1.415 . S
C2198 H2188 0.930 . S
C2198 C2196 1.419 . S
C2198 C2199 1.362 . S
C2199 H2189 0.930 . S
C2199 C2192 1.409 . S
C2199 C2198 1.362 . S
H2200 C2206 0.930 . S
H2201 C2209 0.930 . S
H2202 C2210 0.930 . S
H2203 C2211 0.930 . S
H2204 C2214 0.930 . S
H2205 C2215 0.930 . S
C2206 H2200 0.930 . S
C2206 C2207 1.355 . S
C2206 C2208 1.415 . S
C2207 C2206 1.355 . S
C2207 C2209 1.419 . S
C2208 C2206 1.415 . S
C2208 C2213 1.425 . S
C2208 C2215 1.409 . S
C2209 H2201 0.930 . S
C2209 C2207 1.419 . S
C2209 C2210 1.362 . S
C2210 H2202 0.930 . S
C2210 C2209 1.362 . S
C2210 C2213 1.409 . S
C2211 H2203 0.930 . S
C2211 C2212 1.355 . S
C2211 C2213 1.415 . S
C2212 C2211 1.355 . S
C2212 C2214 1.419 . S
C2213 C2208 1.425 . S
C2213 C2210 1.409 . S
C2213 C2211 1.415 . S
C2214 H2204 0.930 . S
C2214 C2212 1.419 . S
C2214 C2215 1.362 . S
C2215 H2205 0.930 . S
C2215 C2208 1.409 . S
C2215 C2214 1.362 . S
H2216 C2222 0.930 . S
H2217 C2225 0.930 . S
H2218 C2226 0.930 1_545 S
H2219 C2227 0.932 1_545 S
H2220 C2230 0.930 . S
H2221 C2231 0.930 . S
C2222 H2216 0.930 . S
C2222 C2223 1.355 . S
C2222 C2224 1.415 . S
C2223 C2222 1.355 . S
C2223 C2225 1.419 . S
C2224 C2222 1.415 . S
C2224 C2229 1.425 . S
C2224 C2231 1.409 . S
C2225 H2217 0.930 . S
C2225 C2223 1.419 . S
C2225 C2226 1.362 . S
C2226 H2218 0.930 1_565 S
C2226 C2225 1.362 . S
C2226 C2229 1.409 . S
C2227 H2219 0.932 1_565 S
C2227 C2228 1.355 . S
C2227 C2229 1.415 . S
C2228 C2227 1.355 . S
C2228 C2230 1.419 . S
C2229 C2224 1.425 . S
C2229 C2226 1.409 . S
C2229 C2227 1.415 . S
C2230 H2220 0.930 . S
C2230 C2228 1.419 . S
C2230 C2231 1.362 . S
C2231 H2221 0.930 . S
C2231 C2224 1.409 . S
C2231 C2230 1.362 . S
H2232 C2238 0.930 . S
H2233 C2241 0.930 . S
H2234 C2242 0.930 . S
H2235 C2243 0.930 . S
H2236 C2246 0.930 . S
H2237 C2247 0.930 . S
C2238 H2232 0.930 . S
C2238 C2239 1.355 . S
C2238 C2240 1.415 . S
C2239 C2238 1.355 . S
C2239 C2241 1.419 . S
C2240 C2238 1.415 . S
C2240 C2245 1.425 . S
C2240 C2247 1.409 . S
C2241 H2233 0.930 . S
C2241 C2239 1.419 . S
C2241 C2242 1.362 . S
C2242 H2234 0.930 . S
C2242 C2241 1.362 . S
C2242 C2245 1.409 . S
C2243 H2235 0.930 . S
C2243 C2244 1.355 . S
C2243 C2245 1.415 . S
C2244 C2243 1.355 . S
C2244 C2246 1.419 . S
C2245 C2240 1.425 . S
C2245 C2242 1.409 . S
C2245 C2243 1.415 . S
C2246 H2236 0.930 . S
C2246 C2244 1.419 . S
C2246 C2247 1.362 . S
C2247 H2237 0.930 . S
C2247 C2240 1.409 . S
C2247 C2246 1.362 . S
H2248 C2254 0.930 . S
H2249 C2257 0.930 . S
H2250 C2258 0.930 1_655 S
H2251 C2259 0.935 . S
H2252 C2262 0.930 . S
H2253 C2263 0.930 . S
C2254 H2248 0.930 . S
C2254 C2255 1.355 . S
C2254 C2256 1.415 . S
C2255 C2254 1.355 . S
C2255 C2257 1.419 . S
C2256 C2254 1.415 . S
C2256 C2261 1.425 . S
C2256 C2263 1.409 . S
C2257 H2249 0.930 . S
C2257 C2255 1.419 . S
C2257 C2258 1.362 . S
C2258 H2250 0.930 1_455 S
C2258 C2257 1.362 . S
C2258 C2261 1.409 . S
C2259 H2251 0.935 . S
C2259 C2260 1.355 . S
C2259 C2261 1.415 . S
C2260 C2259 1.355 . S
C2260 C2262 1.419 . S
C2261 C2256 1.425 . S
C2261 C2258 1.409 . S
C2261 C2259 1.415 . S
C2262 H2252 0.930 . S
C2262 C2260 1.419 . S
C2262 C2263 1.362 . S
C2263 H2253 0.930 . S
C2263 C2256 1.409 . S
C2263 C2262 1.362 . S
H2264 C2270 0.930 . S
H2265 C2273 0.930 . S
H2266 C2274 0.930 . S
H2267 C2275 0.930 . S
H2268 C2278 0.930 . S
H2269 C2279 0.930 . S
C2270 H2264 0.930 . S
C2270 C2271 1.355 . S
C2270 C2272 1.415 . S
C2271 C2270 1.355 . S
C2271 C2273 1.419 . S
C2272 C2270 1.415 . S
C2272 C2277 1.425 . S
C2272 C2279 1.409 . S
C2273 H2265 0.930 . S
C2273 C2271 1.419 . S
C2273 C2274 1.362 . S
C2274 H2266 0.930 . S
C2274 C2273 1.362 . S
C2274 C2277 1.409 . S
C2275 H2267 0.930 . S
C2275 C2276 1.355 . S
C2275 C2277 1.415 . S
C2276 C2275 1.355 . S
C2276 C2278 1.419 . S
C2277 C2272 1.425 . S
C2277 C2274 1.409 . S
C2277 C2275 1.415 . S
C2278 H2268 0.930 . S
C2278 C2276 1.419 . S
C2278 C2279 1.362 . S
C2279 H2269 0.930 . S
C2279 C2272 1.409 . S
C2279 C2278 1.362 . S
H2280 C2286 0.930 . S
H2281 C2289 0.930 . S
H2282 C2290 0.930 . S
H2283 C2291 0.930 . S
H2284 C2294 0.930 . S
H2285 C2295 0.930 . S
C2286 H2280 0.930 . S
C2286 C2287 1.355 . S
C2286 C2288 1.415 . S
C2287 C2286 1.355 . S
C2287 C2289 1.419 . S
C2288 C2286 1.415 . S
C2288 C2293 1.425 . S
C2288 C2295 1.409 . S
C2289 H2281 0.930 . S
C2289 C2287 1.419 . S
C2289 C2290 1.362 . S
C2290 H2282 0.930 . S
C2290 C2289 1.362 . S
C2290 C2293 1.409 . S
C2291 H2283 0.930 . S
C2291 C2292 1.355 . S
C2291 C2293 1.415 . S
C2292 C2291 1.355 . S
C2292 C2294 1.419 . S
C2293 C2288 1.425 . S
C2293 C2290 1.409 . S
C2293 C2291 1.415 . S
C2294 H2284 0.930 . S
C2294 C2292 1.419 . S
C2294 C2295 1.362 . S
C2295 H2285 0.930 . S
C2295 C2288 1.409 . S
C2295 C2294 1.362 . S
H2296 C2302 0.930 . S
H2297 C2305 0.930 . S
H2298 C2306 0.930 . S
H2299 C2307 0.930 . S
H2300 C2310 0.930 . S
H2301 C2311 0.930 . S
C2302 H2296 0.930 . S
C2302 C2303 1.355 . S
C2302 C2304 1.415 . S
C2303 C2302 1.355 . S
C2303 C2305 1.419 . S
C2304 C2302 1.415 . S
C2304 C2309 1.425 . S
C2304 C2311 1.409 . S
C2305 H2297 0.930 . S
C2305 C2303 1.419 . S
C2305 C2306 1.362 . S
C2306 H2298 0.930 . S
C2306 C2305 1.362 . S
C2306 C2309 1.409 . S
C2307 H2299 0.930 . S
C2307 C2308 1.355 . S
C2307 C2309 1.415 . S
C2308 C2307 1.355 . S
C2308 C2310 1.419 . S
C2309 C2304 1.425 . S
C2309 C2306 1.409 . S
C2309 C2307 1.415 . S
C2310 H2300 0.930 . S
C2310 C2308 1.419 . S
C2310 C2311 1.362 . S
C2311 H2301 0.930 . S
C2311 C2304 1.409 . S
C2311 C2310 1.362 . S
H2312 C2318 0.930 . S
H2313 C2321 0.930 . S
H2314 C2322 0.930 . S
H2315 C2323 0.930 . S
H2316 C2326 0.930 . S
H2317 C2327 0.930 . S
C2318 H2312 0.930 . S
C2318 C2319 1.355 . S
C2318 C2320 1.415 . S
C2319 C2318 1.355 . S
C2319 C2321 1.419 . S
C2320 C2318 1.415 . S
C2320 C2325 1.425 . S
C2320 C2327 1.409 . S
C2321 H2313 0.930 . S
C2321 C2319 1.419 . S
C2321 C2322 1.362 . S
C2322 H2314 0.930 . S
C2322 C2321 1.362 . S
C2322 C2325 1.409 . S
C2323 H2315 0.930 . S
C2323 C2324 1.355 . S
C2323 C2325 1.415 . S
C2324 C2323 1.355 . S
C2324 C2326 1.419 . S
C2325 C2320 1.425 . S
C2325 C2322 1.409 . S
C2325 C2323 1.415 . S
C2326 H2316 0.930 . S
C2326 C2324 1.419 . S
C2326 C2327 1.362 . S
C2327 H2317 0.930 . S
C2327 C2320 1.409 . S
C2327 C2326 1.362 . S
H2328 C2334 0.930 . S
H2329 C2337 0.930 . S
H2330 C2338 0.930 1_565 S
H2331 C2339 0.912 1_565 S
H2332 C2342 0.930 . S
H2333 C2343 0.930 . S
C2334 H2328 0.930 . S
C2334 C2335 1.355 . S
C2334 C2336 1.415 . S
C2335 C2334 1.355 . S
C2335 C2337 1.419 . S
C2336 C2334 1.415 . S
C2336 C2341 1.425 . S
C2336 C2343 1.409 . S
C2337 H2329 0.930 . S
C2337 C2335 1.419 . S
C2337 C2338 1.362 . S
C2338 H2330 0.930 1_545 S
C2338 C2337 1.362 . S
C2338 C2341 1.409 . S
C2339 H2331 0.912 1_545 S
C2339 C2340 1.355 . S
C2339 C2341 1.415 . S
C2340 C2339 1.355 . S
C2340 C2342 1.419 . S
C2341 C2336 1.425 . S
C2341 C2338 1.409 . S
C2341 C2339 1.415 . S
C2342 H2332 0.930 . S
C2342 C2340 1.419 . S
C2342 C2343 1.362 . S
C2343 H2333 0.930 . S
C2343 C2336 1.409 . S
C2343 C2342 1.362 . S
H2344 C2350 0.930 . S
H2345 C2353 0.889 1_455 S
H2346 C2354 0.948 . S
H2347 C2355 0.930 1_455 S
H2348 C2358 0.930 . S
H2349 C2359 0.930 . S
C2350 H2344 0.930 . S
C2350 C2351 1.355 . S
C2350 C2352 1.415 . S
C2351 C2350 1.355 . S
C2351 C2353 1.419 . S
C2352 C2350 1.415 . S
C2352 C2357 1.425 . S
C2352 C2359 1.409 . S
C2353 H2345 0.889 1_655 S
C2353 C2351 1.419 . S
C2353 C2354 1.370 1_655 S
C2354 H2346 0.948 . S
C2354 C2353 1.370 1_455 S
C2354 C2357 1.385 1_455 S
C2355 H2347 0.930 1_655 S
C2355 C2356 1.355 . S
C2355 C2357 1.415 . S
C2356 C2355 1.355 . S
C2356 C2358 1.419 . S
C2357 C2352 1.425 . S
C2357 C2354 1.385 1_655 S
C2357 C2355 1.415 . S
C2358 H2348 0.930 . S
C2358 C2356 1.419 . S
C2358 C2359 1.362 . S
C2359 H2349 0.930 . S
C2359 C2352 1.409 . S
C2359 C2358 1.362 . S
H2360 C2366 0.930 . S
H2361 C2369 0.930 . S
H2362 C2370 0.930 . S
H2363 C2371 0.930 . S
H2364 C2374 0.930 . S
H2365 C2375 0.930 . S
C2366 H2360 0.930 . S
C2366 C2367 1.355 . S
C2366 C2368 1.415 . S
C2367 C2366 1.355 . S
C2367 C2369 1.419 . S
C2368 C2366 1.415 . S
C2368 C2373 1.425 . S
C2368 C2375 1.409 . S
C2369 H2361 0.930 . S
C2369 C2367 1.419 . S
C2369 C2370 1.362 . S
C2370 H2362 0.930 . S
C2370 C2369 1.362 . S
C2370 C2373 1.409 . S
C2371 H2363 0.930 . S
C2371 C2372 1.355 . S
C2371 C2373 1.415 . S
C2372 C2371 1.355 . S
C2372 C2374 1.419 . S
C2373 C2368 1.425 . S
C2373 C2370 1.409 . S
C2373 C2371 1.415 . S
C2374 H2364 0.930 . S
C2374 C2372 1.419 . S
C2374 C2375 1.362 . S
C2375 H2365 0.930 . S
C2375 C2368 1.409 . S
C2375 C2374 1.362 . S
H2376 C2382 0.930 . S
H2377 C2385 0.930 . S
H2378 C2386 0.930 . S
H2379 C2387 0.930 . S
H2380 C2390 0.930 . S
H2381 C2391 0.930 . S
C2382 H2376 0.930 . S
C2382 C2383 1.355 . S
C2382 C2384 1.415 . S
C2383 C2382 1.355 . S
C2383 C2385 1.419 . S
C2384 C2382 1.415 . S
C2384 C2389 1.425 . S
C2384 C2391 1.409 . S
C2385 H2377 0.930 . S
C2385 C2383 1.419 . S
C2385 C2386 1.362 . S
C2386 H2378 0.930 . S
C2386 C2385 1.362 . S
C2386 C2389 1.409 . S
C2387 H2379 0.930 . S
C2387 C2388 1.355 . S
C2387 C2389 1.415 . S
C2388 C2387 1.355 . S
C2388 C2390 1.419 . S
C2389 C2384 1.425 . S
C2389 C2386 1.409 . S
C2389 C2387 1.415 . S
C2390 H2380 0.930 . S
C2390 C2388 1.419 . S
C2390 C2391 1.362 . S
C2391 H2381 0.930 . S
C2391 C2384 1.409 . S
C2391 C2390 1.362 . S
H2392 C2398 0.930 . S
H2393 C2401 0.930 . S
H2394 C2402 0.930 . S
H2395 C2403 0.930 . S
H2396 C2406 0.930 . S
H2397 C2407 0.930 . S
C2398 H2392 0.930 . S
C2398 C2399 1.355 . S
C2398 C2400 1.415 . S
C2399 C2398 1.355 . S
C2399 C2401 1.419 . S
C2400 C2398 1.415 . S
C2400 C2405 1.425 . S
C2400 C2407 1.409 . S
C2401 H2393 0.930 . S
C2401 C2399 1.419 . S
C2401 C2402 1.362 . S
C2402 H2394 0.930 . S
C2402 C2401 1.362 . S
C2402 C2405 1.409 . S
C2403 H2395 0.930 . S
C2403 C2404 1.355 . S
C2403 C2405 1.415 . S
C2404 C2403 1.355 . S
C2404 C2406 1.419 . S
C2405 C2400 1.425 . S
C2405 C2402 1.409 . S
C2405 C2403 1.415 . S
C2406 H2396 0.930 . S
C2406 C2404 1.419 . S
C2406 C2407 1.362 . S
C2407 H2397 0.930 . S
C2407 C2400 1.409 . S
C2407 C2406 1.362 . S
H2408 C2414 0.930 . S
H2409 C2417 0.930 . S
H2410 C2418 0.930 . S
H2411 C2419 0.930 . S
H2412 C2422 0.930 . S
H2413 C2423 0.930 . S
C2414 H2408 0.930 . S
C2414 C2415 1.355 . S
C2414 C2416 1.415 . S
C2415 C2414 1.355 . S
C2415 C2417 1.419 . S
C2416 C2414 1.415 . S
C2416 C2421 1.425 . S
C2416 C2423 1.409 . S
C2417 H2409 0.930 . S
C2417 C2415 1.419 . S
C2417 C2418 1.362 . S
C2418 H2410 0.930 . S
C2418 C2417 1.362 . S
C2418 C2421 1.409 . S
C2419 H2411 0.930 . S
C2419 C2420 1.355 . S
C2419 C2421 1.415 . S
C2420 C2419 1.355 . S
C2420 C2422 1.419 . S
C2421 C2416 1.425 . S
C2421 C2418 1.409 . S
C2421 C2419 1.415 . S
C2422 H2412 0.930 . S
C2422 C2420 1.419 . S
C2422 C2423 1.362 . S
C2423 H2413 0.930 . S
C2423 C2416 1.409 . S
C2423 C2422 1.362 . S
H2424 C2430 0.930 . S
H2425 C2433 0.930 . S
H2426 C2434 0.930 . S
H2427 C2435 0.930 . S
H2428 C2438 0.930 . S
H2429 C2439 0.930 . S
C2430 H2424 0.930 . S
C2430 C2431 1.355 . S
C2430 C2432 1.415 . S
C2431 C2430 1.355 . S
C2431 C2433 1.419 . S
C2432 C2430 1.415 . S
C2432 C2437 1.425 . S
C2432 C2439 1.409 . S
C2433 H2425 0.930 . S
C2433 C2431 1.419 . S
C2433 C2434 1.362 . S
C2434 H2426 0.930 . S
C2434 C2433 1.362 . S
C2434 C2437 1.409 . S
C2435 H2427 0.930 . S
C2435 C2436 1.355 . S
C2435 C2437 1.415 . S
C2436 C2435 1.355 . S
C2436 C2438 1.419 . S
C2437 C2432 1.425 . S
C2437 C2434 1.409 . S
C2437 C2435 1.415 . S
C2438 H2428 0.930 . S
C2438 C2436 1.419 . S
C2438 C2439 1.362 . S
C2439 H2429 0.930 . S
C2439 C2432 1.409 . S
C2439 C2438 1.362 . S
H2440 C2446 0.930 . S
H2441 C2449 0.930 . S
H2442 C2450 0.930 . S
H2443 C2451 0.930 . S
H2444 C2454 0.930 . S
H2445 C2455 0.930 . S
C2446 H2440 0.930 . S
C2446 C2447 1.355 . S
C2446 C2448 1.415 . S
C2447 C2446 1.355 . S
C2447 C2449 1.419 . S
C2448 C2446 1.415 . S
C2448 C2453 1.425 . S
C2448 C2455 1.409 . S
C2449 H2441 0.930 . S
C2449 C2447 1.419 . S
C2449 C2450 1.362 . S
C2450 H2442 0.930 . S
C2450 C2449 1.362 . S
C2450 C2453 1.409 . S
C2451 H2443 0.930 . S
C2451 C2452 1.355 . S
C2451 C2453 1.415 . S
C2452 C2451 1.355 . S
C2452 C2454 1.419 . S
C2453 C2448 1.425 . S
C2453 C2450 1.409 . S
C2453 C2451 1.415 . S
C2454 H2444 0.930 . S
C2454 C2452 1.419 . S
C2454 C2455 1.362 . S
C2455 H2445 0.930 . S
C2455 C2448 1.409 . S
C2455 C2454 1.362 . S
H2456 C2462 0.930 . S
H2457 C2465 0.930 . S
H2458 C2466 0.930 . S
H2459 C2467 0.930 . S
H2460 C2470 0.930 . S
H2461 C2471 0.930 . S
C2462 H2456 0.930 . S
C2462 C2463 1.355 . S
C2462 C2464 1.415 . S
C2463 C2462 1.355 . S
C2463 C2465 1.419 . S
C2464 C2462 1.415 . S
C2464 C2469 1.425 . S
C2464 C2471 1.409 . S
C2465 H2457 0.930 . S
C2465 C2463 1.419 . S
C2465 C2466 1.362 . S
C2466 H2458 0.930 . S
C2466 C2465 1.362 . S
C2466 C2469 1.409 . S
C2467 H2459 0.930 . S
C2467 C2468 1.355 . S
C2467 C2469 1.415 . S
C2468 C2467 1.355 . S
C2468 C2470 1.419 . S
C2469 C2464 1.425 . S
C2469 C2466 1.409 . S
C2469 C2467 1.415 . S
C2470 H2460 0.930 . S
C2470 C2468 1.419 . S
C2470 C2471 1.362 . S
C2471 H2461 0.930 . S
C2471 C2464 1.409 . S
C2471 C2470 1.362 . S
H2472 C2478 0.931 . S
H2473 C2481 0.930 . S
H2474 C2482 0.930 . S
H2475 C2483 0.930 . S
H2476 C2486 0.930 . S
H2477 C2487 0.930 . S
C2478 H2472 0.931 . S
C2478 C2479 1.355 . S
C2478 C2480 1.415 . S
C2479 C2478 1.355 . S
C2479 C2481 1.419 . S
C2480 C2478 1.415 . S
C2480 C2485 1.425 . S
C2480 C2487 1.409 1_655 S
C2481 H2473 0.930 . S
C2481 C2479 1.419 . S
C2481 C2482 1.362 . S
C2482 H2474 0.930 . S
C2482 C2481 1.362 . S
C2482 C2485 1.409 . S
C2483 H2475 0.930 . S
C2483 C2484 1.355 . S
C2483 C2485 1.415 . S
C2484 C2483 1.355 . S
C2484 C2486 1.419 1_655 S
C2485 C2480 1.425 . S
C2485 C2482 1.409 . S
C2485 C2483 1.415 . S
C2486 H2476 0.930 . S
C2486 C2484 1.419 1_455 S
C2486 C2487 1.362 . S
C2487 H2477 0.930 . S
C2487 C2480 1.409 1_455 S
C2487 C2486 1.362 . S
H2488 C2494 0.930 . S
H2489 C2497 0.930 . S
H2490 C2498 0.930 . S
H2491 C2499 0.930 . S
H2492 C2502 0.930 . S
H2493 C2503 0.930 . S
C2494 H2488 0.930 . S
C2494 C2495 1.355 . S
C2494 C2496 1.415 . S
C2495 C2494 1.355 . S
C2495 C2497 1.419 . S
C2496 C2494 1.415 . S
C2496 C2501 1.425 . S
C2496 C2503 1.409 . S
C2497 H2489 0.930 . S
C2497 C2495 1.419 . S
C2497 C2498 1.362 . S
C2498 H2490 0.930 . S
C2498 C2497 1.362 . S
C2498 C2501 1.409 . S
C2499 H2491 0.930 . S
C2499 C2500 1.355 . S
C2499 C2501 1.415 . S
C2500 C2499 1.355 . S
C2500 C2502 1.419 . S
C2501 C2496 1.425 . S
C2501 C2498 1.409 . S
C2501 C2499 1.415 . S
C2502 H2492 0.930 . S
C2502 C2500 1.419 . S
C2502 C2503 1.362 . S
C2503 H2493 0.930 . S
C2503 C2496 1.409 . S
C2503 C2502 1.362 . S
H2504 C2510 0.930 . S
H2505 C2513 0.930 . S
H2506 C2514 0.930 . S
H2507 C2515 0.930 . S
H2508 C2518 0.930 . S
H2509 C2519 0.930 . S
C2510 H2504 0.930 . S
C2510 C2511 1.355 . S
C2510 C2512 1.415 . S
C2511 C2510 1.355 . S
C2511 C2513 1.419 . S
C2512 C2510 1.415 . S
C2512 C2517 1.425 . S
C2512 C2519 1.409 . S
C2513 H2505 0.930 . S
C2513 C2511 1.419 . S
C2513 C2514 1.362 . S
C2514 H2506 0.930 . S
C2514 C2513 1.362 . S
C2514 C2517 1.409 . S
C2515 H2507 0.930 . S
C2515 C2516 1.355 . S
C2515 C2517 1.415 . S
C2516 C2515 1.355 . S
C2516 C2518 1.419 . S
C2517 C2512 1.425 . S
C2517 C2514 1.409 . S
C2517 C2515 1.415 . S
C2518 H2508 0.930 . S
C2518 C2516 1.419 . S
C2518 C2519 1.362 . S
C2519 H2509 0.930 . S
C2519 C2512 1.409 . S
C2519 C2518 1.362 . S
C1375 C8 1.554 . S
C1380 C857 1.472 . S
C1391 C22 1.566 . S
C1396 C901 1.491 . S
C1412 C981 1.541 . S
C1407 C37 1.546 1_545 S
C1423 C36 1.574 . S
C1428 C1025 1.510 . S
C1439 C9 1.570 1_455 S
C1444 C1105 1.512 . S
C1455 C23 1.565 . S
C1460 C1167 1.464 . S
C1471 C50 1.564 1_455 S
C1476 C1087 1.465 . S
C1492 C1149 1.473 . S
C1487 C64 1.553 . S
C1508 C1043 1.487 . S
C1503 C79 1.545 . S
C1519 C78 1.552 1_545 S
C1524 C963 1.471 . S
C1540 C839 1.534 . S
C1535 C51 1.538 . S
C1551 C65 1.574 . S
C1556 C919 1.508 . S
C1567 C92 1.544 . S
C1572 C1229 1.489 . S
C1583 C106 1.575 . S
C1588 C1273 1.513 . S
C1604 C1353 1.464 . S
C1599 C121 1.566 . S
C1615 C120 1.548 . S
C1620 C299 1.542 . S
C1631 C93 1.538 . S
C1636 C343 1.523 . S
C1647 C107 1.570 . S
C1652 C423 1.514 . S
C1663 C134 1.575 . S
C1668 C361 1.521 . S
C1679 C148 1.575 . S
C1684 C405 1.480 . S
C1700 C281 1.519 . S
C1695 C163 1.537 . S
C1716 C1335 1.480 . S
C1711 C162 1.576 . S
C1732 C1211 1.541 . S
C1727 C135 1.547 . S
C1748 C1291 1.546 . S
C1743 C149 1.547 . S
C1759 C176 1.538 . S
C1764 C485 1.532 . S
C1775 C190 1.538 . S
C1780 C547 1.510 . S
C1791 C205 1.545 . S
C1796 C591 1.487 . S
C1807 C204 1.546 . S
C1812 C653 1.487 . S
C1828 C715 1.508 . S
C1823 C177 1.537 . S
C1844 C795 1.539 . S
C1839 C191 1.554 . S
C1860 C733 1.484 . S
C1855 C218 1.558 . S
C1876 C777 1.529 . S
C1871 C232 1.538 . S
C1887 C247 1.558 . S
C1892 C671 1.552 . S
C1908 C609 1.524 . S
C1903 C246 1.538 . S
C1919 C219 1.549 . S
C1924 C467 1.541 . S
C1940 C529 1.533 . S
C1935 C233 1.560 . S
C1956 C305 1.473 . S
C1951 C6 1.510 . S
C1967 C20 1.509 . S
C1972 C349 1.475 . S
C1988 C429 1.451 . S
C1983 C35 1.507 . S
C2004 C491 1.423 . S
C1999 C34 1.474 . S
C2020 C553 1.495 . S
C2015 C7 1.492 . S
C2036 C597 1.433 . S
C2031 C21 1.461 . S
C2047 C48 1.481 . S
C2052 C615 1.435 . S
C2063 C62 1.478 . S
C2068 C473 1.424 . S
C2079 C77 1.456 . S
C2084 C535 1.452 . S
C2095 C76 1.456 . S
C2100 C367 1.451 . S
C2116 C411 1.473 . S
C2111 C49 1.461 . S
C2127 C63 1.468 . S
C2132 C287 1.426 . S
C2148 C659 1.431 . S
C2143 C90 1.464 . S
C2159 C104 1.456 . S
C2164 C721 1.444 . S
C2175 C119 1.456 . S
C2180 C801 1.444 . S
C2196 C863 1.465 . S
C2191 C118 1.510 . S
C2207 C91 1.485 . S
C2212 C907 1.438 . S
C2223 C105 1.509 . S
C2228 C987 1.481 . S
C2239 C132 1.488 . S
C2244 C969 1.427 . S
C2255 C146 1.502 . S
C2260 C845 1.441 . S
C2276 C925 1.492 . S
C2271 C161 1.509 . S
C2287 C160 1.510 . S
C2292 C739 1.487 . S
C2303 C133 1.497 . S
C2308 C783 1.434 . S
C2324 C677 1.493 . S
C2319 C147 1.484 . S
C2340 C1031 1.480 . S
C2335 C174 1.510 . S
C2351 C188 1.510 . S
C2356 C1111 1.475 . S
C2367 C203 1.457 . S
C2372 C1173 1.440 . S
C2388 C1235 1.485 . S
C2383 C202 1.470 . S
C2404 C1279 1.480 . S
C2399 C175 1.470 . S
C2415 C189 1.510 . S
C2420 C1359 1.478 . S
C2431 C216 1.473 . S
C2436 C1341 1.424 . S
C2447 C230 1.509 . S
C2452 C1217 1.481 . S
C2468 C1297 1.441 . S
C2463 C245 1.456 . S
C2484 C1093 1.483 . S
C2479 C244 1.468 . S
C2500 C1155 1.424 . S
C2495 C217 1.481 . S
C2511 C231 1.478 . S
C2516 C1049 1.433 . S
