# Generated by pormake.
# Topology pth, (4,4)-cn, num edge types: 1
# Building blocks:
#     Node 0, Type 0, BuildingBlock: GALJAG_clean_sbu_0, # of connection points: 4
#     Node 1, Type 0, BuildingBlock: GALJAG_clean_sbu_0, # of connection points: 4
#     Node 2, Type 0, BuildingBlock: GALJAG_clean_sbu_0, # of connection points: 4
#     Node 3, Type 1, BuildingBlock: NAWXER_clean_linker_0, # of connection points: 4
#     Node 4, Type 1, BuildingBlock: NAWXER_clean_linker_0, # of connection points: 4
#     Node 5, Type 1, BuildingBlock: NAWXER_clean_linker_0, # of connection points: 4
#     Edge 6, Type (0, 1), BuildingBlock: XUDNAN_clean_linker_2, # of connection points: 2
#     Edge 7, Type (0, 1), BuildingBlock: XUDNAN_clean_linker_2, # of connection points: 2
#     Edge 8, Type (0, 1), BuildingBlock: XUDNAN_clean_linker_2, # of connection points: 2
#     Edge 9, Type (0, 1), BuildingBlock: XUDNAN_clean_linker_2, # of connection points: 2
#     Edge 10, Type (0, 1), BuildingBlock: XUDNAN_clean_linker_2, # of connection points: 2
#     Edge 11, Type (0, 1), BuildingBlock: XUDNAN_clean_linker_2, # of connection points: 2
#     Edge 12, Type (0, 1), BuildingBlock: XUDNAN_clean_linker_2, # of connection points: 2
#     Edge 13, Type (0, 1), BuildingBlock: XUDNAN_clean_linker_2, # of connection points: 2
#     Edge 14, Type (0, 1), BuildingBlock: XUDNAN_clean_linker_2, # of connection points: 2
#     Edge 15, Type (0, 1), BuildingBlock: XUDNAN_clean_linker_2, # of connection points: 2
#     Edge 16, Type (0, 1), BuildingBlock: XUDNAN_clean_linker_2, # of connection points: 2
#     Edge 17, Type (0, 1), BuildingBlock: XUDNAN_clean_linker_2, # of connection points: 2
# Relax obj value: 0.002
# Max RMSD: 0.036
# Mean RMSD: 0.021
data_MOF--net-pth--node1-GALJAG_clean_sbu_0--node2-NAWXER_clean_linker_0--edge1-XUDNAN_clean_linker_2
_symmetry_space_group_name_H-M    P1
_symmetry_Int_Tables_number       1
_symmetry_cell_setting            triclinic
loop_
_symmetry_equiv_pos_as_xyz
'x, y, z'
_cell_length_a     29.403743
_cell_length_b     29.414452
_cell_length_c     63.518744
_cell_angle_alpha  90.196191
_cell_angle_beta   90.145936
_cell_angle_gamma 119.99121
loop_
_atom_site_label
_atom_site_type_symbol
_atom_site_fract_x
_atom_site_fract_y
_atom_site_fract_z
_atom_type_partial_charge
In0 In 0.98793 1.00088 0.04969 0.0
O1 O 0.94105 0.03906 0.06077 0.0
O2 O 0.01354 0.06163 0.07622 0.0
C3 C 0.92577 0.94388 0.01715 0.0
C4 C 0.07428 0.0692 0.02838 0.0
C5 C 0.97689 0.92456 0.07652 0.0
O6 O 0.9093 0.96024 0.03201 0.0
O7 O 0.97345 0.95663 0.01854 0.0
O8 O 0.02115 0.9581 0.06941 0.0
O9 O 0.9393 0.92983 0.07011 0.0
C10 C 0.97349 0.06669 0.07491 0.0
O11 O 0.0721 0.03159 0.03881 0.0
O12 O 0.03305 0.07249 0.02887 0.0
In13 In 0.02282 0.02177 0.38377 0.0
O14 O 0.07749 0.08735 0.36148 0.0
O15 O 1.001 0.07585 0.36633 0.0
C16 C 0.10215 0.04411 0.41107 0.0
C17 C 0.94203 0.99997 0.41009 0.0
C18 C 0.00628 0.94584 0.35538 0.0
O19 O 0.09897 0.07902 0.40076 0.0
O20 O 0.06522 0.99795 0.40768 0.0
O21 O 0.04117 0.96107 0.36947 0.0
O22 O 0.97933 0.96831 0.35576 0.0
C23 C 0.04458 0.10165 0.35718 0.0
O24 O 0.94448 0.965 0.39945 0.0
O25 O 0.98035 0.04558 0.4076 0.0
In26 In 0.004 0.98047 0.71796 0.0
O27 O 0.97434 0.90054 0.73281 0.0
O28 O 0.92993 0.93877 0.73798 0.0
C29 C 0.07943 0.97434 0.69584 0.0
C30 C 0.93552 0.97872 0.68891 0.0
C31 C 0.05802 0.05231 0.74852 0.0
O32 O 0.04494 0.93688 0.70642 0.0
O33 O 0.07647 0.01566 0.69649 0.0
O34 O 0.05155 0.06589 0.73041 0.0
O35 O 0.03734 0.00354 0.75097 0.0
C36 C 0.93455 0.89883 0.74116 0.0
O37 O 0.95791 0.01596 0.70203 0.0
O38 O 0.94903 0.94443 0.69019 0.0
C39 C 0.00242 0.35508 0.25413 0.0
C40 C 0.04975 0.37271 0.26531 0.0
C41 C 0.99409 0.39001 0.24209 0.0
C42 C 0.03312 0.44313 0.24086 0.0
C43 C 0.08814 0.42622 0.26443 0.0
C44 C 0.07973 0.4611 0.25243 0.0
C45 C 0.02535 0.48051 0.22798 0.0
C46 C 0.02663 0.36048 0.18333 0.0
C47 C 0.98286 0.33652 0.1697 0.0
C48 C 0.03697 0.40497 0.19518 0.0
C49 C 0.00295 0.42557 0.19406 0.0
C50 C 0.95019 0.35861 0.16811 0.0
C51 C 0.95996 0.40225 0.18018 0.0
C52 C 0.01201 0.47253 0.20631 0.0
C53 C 0.02623 0.67819 0.18215 0.0
C54 C 0.98291 0.6589 0.16839 0.0
C55 C 0.03488 0.64366 0.19432 0.0
C56 C 1.00024 0.58922 0.19302 0.0
C57 C 0.94901 0.60435 0.16681 0.0
C58 C 0.95777 0.5699 0.17892 0.0
C59 C 0.00869 0.55199 0.2058 0.0
C60 C 0.96242 0.63742 0.25083 0.0
C61 C 0.00491 0.67626 0.26253 0.0
C62 C 0.96733 0.59916 0.2397 0.0
C63 C 0.0147 0.59852 0.24007 0.0
C64 C 0.05199 0.67462 0.26333 0.0
C65 C 0.05665 0.63576 0.25232 0.0
C66 C 0.01964 0.55868 0.22759 0.0
H67 H 0.97214 0.31411 0.25442 0.0
H68 H 0.95731 0.37551 0.23365 0.0
H69 H 0.12458 0.44124 0.27316 0.0
H70 H 0.11 0.50208 0.25194 0.0
H71 H 0.05275 0.34473 0.18502 0.0
H72 H 0.07162 0.42324 0.2051 0.0
H73 H 0.91713 0.34261 0.15733 0.0
H74 H 0.93354 0.41775 0.17868 0.0
H75 H 0.05299 0.72 0.18373 0.0
H76 H 0.06878 0.65953 0.20466 0.0
H77 H 0.91582 0.5882 0.15608 0.0
H78 H 0.93087 0.52807 0.17745 0.0
H79 H 0.92507 0.63632 0.25031 0.0
H80 H 0.934 0.56996 0.23074 0.0
H81 H 0.08565 0.704 0.27204 0.0
H82 H 0.09342 0.63564 0.2529 0.0
N83 N 0.02847 0.52324 0.23781 0.0
N84 N 0.00457 0.50889 0.19613 0.0
C85 C 0.68924 0.03868 0.5157 0.0
C86 C 0.66985 1.00048 0.4996 0.0
C87 C 0.65476 0.04695 0.52814 0.0
C88 C 0.60026 0.01679 0.52484 0.0
C89 C 0.61542 0.97198 0.49583 0.0
C90 C 0.58108 0.9802 0.50826 0.0
C91 C 0.56245 0.02206 0.53856 0.0
C92 C 0.64708 0.96252 0.57903 0.0
C93 C 0.67085 0.99199 0.59741 0.0
C94 C 0.61202 0.9712 0.56725 0.0
C95 C 0.60148 0.01117 0.57295 0.0
C96 C 0.65925 0.03124 0.60335 0.0
C97 C 0.62501 0.0407 0.59125 0.0
C98 C 0.56336 0.02007 0.56084 0.0
C99 C 0.34837 0.97014 0.58396 0.0
C100 C 0.35728 1.00057 0.60223 0.0
C101 C 0.38985 0.97972 0.57063 0.0
C102 C 0.44112 0.0199 0.57531 0.0
C103 C 0.40838 0.04154 0.60669 0.0
C104 C 0.45011 0.0507 0.59346 0.0
C105 C 0.48555 0.02647 0.56223 0.0
C106 C 0.39743 0.08295 0.52255 0.0
C107 C 0.37408 0.05304 0.50427 0.0
C108 C 0.43321 0.07522 0.53433 0.0
C109 C 0.44615 0.03718 0.52815 0.0
C110 C 0.38712 0.015 0.49813 0.0
C111 C 0.42305 0.00742 0.50987 0.0
C112 C 0.48551 0.02994 0.54006 0.0
H113 H 0.73095 0.06131 0.51901 0.0
H114 H 0.67059 0.07626 0.54055 0.0
H115 H 0.59925 0.94315 0.48326 0.0
H116 H 0.53926 0.95692 0.50523 0.0
H117 H 0.65533 0.93243 0.57366 0.0
H118 H 0.59284 0.94618 0.55376 0.0
H119 H 0.67569 0.05404 0.6176 0.0
H120 H 0.61667 0.07103 0.59625 0.0
H121 H 0.30932 0.93843 0.58013 0.0
H122 H 0.38207 0.95466 0.55698 0.0
H123 H 0.41631 0.06522 0.62079 0.0
H124 H 0.48948 0.08148 0.59747 0.0
H125 H 0.38803 0.11238 0.52776 0.0
H126 H 0.45138 0.09963 0.54807 0.0
H127 H 0.37042 0.99185 0.48397 0.0
H128 H 0.43277 0.97819 0.50468 0.0
N129 N 0.5236 0.02699 0.52911 0.0
N130 N 0.52479 0.02236 0.57176 0.0
C131 C 0.34797 0.32134 0.8564 0.0
C132 C 0.31672 0.32893 0.84158 0.0
C133 C 0.38911 0.3641 0.86682 0.0
C134 C 0.39946 0.41529 0.86283 0.0
C135 C 0.32839 0.38044 0.83711 0.0
C136 C 0.36954 0.42321 0.84758 0.0
C137 C 0.44236 0.46087 0.87399 0.0
C138 C 0.32252 0.35811 0.922 0.0
C139 C 0.34377 0.3409 0.93791 0.0
C140 C 0.35549 0.39929 0.90866 0.0
C141 C 0.41034 0.4234 0.91073 0.0
C142 C 0.39862 0.36684 0.94048 0.0
C143 C 0.43142 0.40753 0.92707 0.0
C144 C 0.44676 0.4651 0.8962 0.0
C145 C 0.63266 0.68698 0.9061 0.0
C146 C 0.65374 0.67963 0.92475 0.0
C147 C 0.59035 0.64441 0.89609 0.0
C148 C 0.56967 0.5933 0.90411 0.0
C149 C 0.63142 0.62919 0.93342 0.0
C150 C 0.5899 0.58637 0.92315 0.0
C151 C 0.5266 0.54708 0.89303 0.0
C152 C 0.66055 0.61296 0.84796 0.0
C153 C 0.65305 0.63613 0.82996 0.0
C154 C 0.6186 0.58227 0.86124 0.0
C155 C 0.56832 0.57448 0.85693 0.0
C156 C 0.60259 0.628 0.82556 0.0
C157 C 0.56044 0.59697 0.83884 0.0
C158 C 0.52386 0.54098 0.87088 0.0
H159 H 0.34087 0.28229 0.85985 0.0
H160 H 0.41277 0.35715 0.87803 0.0
H161 H 0.30501 0.38766 0.82586 0.0
H162 H 0.37737 0.4625 0.84407 0.0
H163 H 0.28048 0.33909 0.91956 0.0
H164 H 0.33809 0.41183 0.89661 0.0
H165 H 0.4164 0.35569 0.95289 0.0
H166 H 0.47355 0.42597 0.92922 0.0
H167 H 0.64876 0.72576 0.89934 0.0
H168 H 0.57406 0.65159 0.88203 0.0
H169 H 0.64708 0.6227 0.94784 0.0
H170 H 0.57433 0.54763 0.92987 0.0
H171 H 0.69899 0.61879 0.85186 0.0
H172 H 0.62541 0.56434 0.87485 0.0
H173 H 0.59554 0.64487 0.81166 0.0
H174 H 0.5218 0.59085 0.8351 0.0
N175 N 0.48129 0.49882 0.86221 0.0
N176 N 0.48844 0.50833 0.90478 0.0
H177 H 0.04718 0.15289 0.09671 0.0
H178 H 0.87968 0.05827 0.085 0.0
H179 H 0.86382 0.11446 0.10942 0.0
H180 H 0.041 0.18111 0.15174 0.0
H181 H 0.09411 0.24799 0.1502 0.0
H182 H 0.09237 0.19889 0.13264 0.0
H183 H 0.09745 0.25525 0.1005 0.0
H184 H 0.09958 0.30465 0.11795 0.0
H185 H 0.04981 0.2764 0.09773 0.0
H186 H 0.86602 0.17903 0.13569 0.0
H187 H 0.886 0.2534 0.15917 0.0
H188 H 0.05296 0.31147 0.15132 0.0
C189 C 0.00719 0.14394 0.09941 0.0
C190 C 0.96453 0.1011 0.08915 0.0
C191 C 0.91282 0.09096 0.09274 0.0
C192 C 0.90344 0.12245 0.10664 0.0
C193 C 0.9463 0.16433 0.11657 0.0
C194 C 0.99721 0.17565 0.11291 0.0
C195 C 0.03637 0.2248 0.12469 0.0
C196 C 0.06781 0.21243 0.14077 0.0
C197 C 0.07295 0.26782 0.1093 0.0
C198 C 0.99947 0.23926 0.13555 0.0
C199 C 0.94772 0.2034 0.13087 0.0
C200 C 0.90643 0.2078 0.13925 0.0
C201 C 0.91831 0.25057 0.15246 0.0
C202 C 0.97116 0.2892 0.15691 0.0
C203 C 0.01214 0.28277 0.14846 0.0
H204 H 0.92514 0.07091 0.43164 0.0
H205 H 0.85781 0.90409 0.41962 0.0
H206 H 0.78198 0.88588 0.44206 0.0
H207 H 0.88421 0.06047 0.48604 0.0
H208 H 0.87024 0.11341 0.48408 0.0
H209 H 0.92 0.11308 0.46769 0.0
H210 H 0.87267 0.12003 0.43442 0.0
H211 H 0.82281 0.1204 0.45069 0.0
H212 H 0.80452 0.07213 0.43002 0.0
H213 H 0.71284 0.88615 0.46521 0.0
H214 H 0.65477 0.90463 0.48714 0.0
H215 H 0.76643 0.0716 0.48339 0.0
C216 C 0.89463 0.0305 0.43385 0.0
C217 C 0.89738 0.98883 0.42396 0.0
C218 C 0.85649 0.93656 0.42709 0.0
C219 C 0.81333 0.92586 0.43981 0.0
C220 C 0.8117 0.96788 0.44925 0.0
C221 C 0.85124 0.01916 0.44642 0.0
C222 C 0.83935 0.05728 0.45787 0.0
C223 C 0.88093 0.08785 0.47493 0.0
C224 C 0.83454 0.09465 0.44232 0.0
C225 C 0.78679 0.01945 0.46752 0.0
C226 C 0.77164 0.96808 0.46241 0.0
C227 C 0.72427 0.92623 0.46928 0.0
C228 C 0.69139 0.93718 0.48162 0.0
C229 C 0.70585 0.9896 0.48692 0.0
C230 C 0.75445 0.03111 0.47982 0.0
H231 H 0.84518 0.88519 0.76053 0.0
H232 H 0.93831 0.81016 0.75011 0.0
H233 H 0.8754 0.73417 0.77107 0.0
H234 H 0.80999 0.84306 0.81396 0.0
H235 H 0.74444 0.83286 0.81154 0.0
H236 H 0.79638 0.88112 0.79544 0.0
H237 H 0.74178 0.83605 0.76188 0.0
H238 H 0.6897 0.78755 0.77787 0.0
H239 H 0.71821 0.76723 0.75741 0.0
H240 H 0.80354 0.66712 0.79345 0.0
H241 H 0.72704 0.61303 0.81597 0.0
H242 H 0.68029 0.7313 0.812 0.0
C243 C 0.85226 0.85272 0.76264 0.0
C244 C 0.89661 0.85352 0.75371 0.0
C245 C 0.90457 0.81035 0.75682 0.0
C246 C 0.86906 0.767 0.76868 0.0
C247 C 0.82574 0.76741 0.77728 0.0
C248 C 0.81713 0.80906 0.77443 0.0
C249 C 0.76768 0.79974 0.78556 0.0
C250 C 0.78041 0.84168 0.80264 0.0
C251 C 0.72694 0.7975 0.76973 0.0
C252 C 0.74998 0.74641 0.79516 0.0
C253 C 0.78407 0.72853 0.79017 0.0
C254 C 0.77655 0.68068 0.79747 0.0
C255 C 0.73316 0.65038 0.81033 0.0
C256 C 0.6978 0.66801 0.81577 0.0
C257 C 0.7063 0.71655 0.80792 0.0
H258 H 0.05069 0.90213 0.09269 0.0
H259 H 0.88422 0.85085 0.09326 0.0
H260 H 0.86844 0.77893 0.11727 0.0
H261 H 0.03584 0.77328 0.09302 0.0
H262 H 0.09142 0.79112 0.11008 0.0
H263 H 0.09028 0.83967 0.09323 0.0
H264 H 0.10486 0.89928 0.12563 0.0
H265 H 0.10598 0.85086 0.14259 0.0
H266 H 0.06038 0.87368 0.14757 0.0
H267 H 0.86977 0.71196 0.14058 0.0
H268 H 0.8884 0.65338 0.16203 0.0
H269 H 0.05378 0.74667 0.14651 0.0
C270 C 0.01101 0.87583 0.09794 0.0
C271 C 0.96868 0.8821 0.09112 0.0
C272 C 0.91727 0.84684 0.09828 0.0
C273 C 0.90786 0.80585 0.11194 0.0
C274 C 0.95027 0.80061 0.11835 0.0
C275 C 1.00085 0.83453 0.11164 0.0
C276 C 0.03916 0.81943 0.12078 0.0
C277 C 0.06573 0.80501 0.10323 0.0
C278 C 0.08 0.86344 0.13499 0.0
C279 C 1.00207 0.77165 0.13354 0.0
C280 C 0.95103 0.76164 0.1319 0.0
C281 C 0.90957 0.71932 0.14199 0.0
C282 C 0.9205 0.6861 0.15403 0.0
C283 C 0.97246 0.6953 0.15589 0.0
C284 C 0.01375 0.73892 0.14557 0.0
H285 H 0.12273 0.97453 0.43162 0.0
H286 H 0.18113 0.14102 0.42319 0.0
H287 H 0.25575 0.16146 0.44694 0.0
H288 H 0.15865 0.98127 0.48668 0.0
H289 H 0.1773 0.93173 0.48409 0.0
H290 H 0.12753 0.93028 0.46705 0.0
H291 H 0.18054 0.93093 0.43441 0.0
H292 H 0.23051 0.93247 0.45134 0.0
H293 H 0.24786 0.98249 0.43168 0.0
H294 H 0.32475 0.16371 0.4711 0.0
H295 H 0.38437 0.14771 0.49329 0.0
H296 H 0.2812 0.97969 0.4858 0.0
C297 C 0.15104 0.01528 0.43489 0.0
C298 C 0.14611 0.05624 0.42564 0.0
C299 C 0.18416 0.10906 0.43015 0.0
C300 C 0.22661 0.12104 0.44363 0.0
C301 C 0.23047 0.07975 0.45242 0.0
C302 C 0.19377 0.02793 0.44822 0.0
C303 C 0.20779 0.99094 0.45923 0.0
C304 C 0.16529 0.95653 0.47521 0.0
C305 C 0.21724 0.95723 0.4432 0.0
C306 C 0.25829 0.03005 0.47018 0.0
C307 C 0.27051 0.08105 0.46615 0.0
C308 C 0.31546 0.12393 0.47444 0.0
C309 C 0.34894 0.11444 0.48712 0.0
C310 C 0.33743 0.06247 0.49133 0.0
C311 C 0.29133 0.01986 0.48274 0.0
H312 H 0.13218 0.15747 0.74549 0.0
H313 H 0.05309 0.03041 0.79013 0.0
H314 H 0.10738 0.08893 0.8189 0.0
H315 H 0.25907 0.20831 0.76768 0.0
H316 H 0.27949 0.27632 0.76316 0.0
H317 H 0.23116 0.22625 0.74617 0.0
H318 H 0.1663 0.25947 0.75413 0.0
H319 H 0.21457 0.30982 0.7711 0.0
H320 H 0.15017 0.26465 0.78107 0.0
H321 H 0.17257 0.15865 0.8425 0.0
H322 H 0.24571 0.23605 0.85967 0.0
H323 H 0.28568 0.31812 0.79992 0.0
C324 C 0.12574 0.14242 0.76139 0.0
C325 C 0.08822 0.08953 0.76563 0.0
C326 C 0.08157 0.07082 0.78655 0.0
C327 C 0.11212 0.10377 0.80302 0.0
C328 C 0.1494 0.15537 0.79832 0.0
C329 C 0.15644 0.17478 0.77807 0.0
C330 C 0.2015 0.231 0.77725 0.0
C331 C 0.2454 0.23572 0.76271 0.0
C332 C 0.18195 0.26845 0.77049 0.0
C333 C 0.21893 0.23973 0.80014 0.0
C334 C 0.18801 0.19566 0.812 0.0
C335 C 0.19704 0.1935 0.8334 0.0
C336 C 0.23897 0.23753 0.84298 0.0
C337 C 0.27168 0.28312 0.83116 0.0
C338 C 0.26108 0.28414 0.80945 0.0
H339 H 0.91141 0.05373 0.67546 0.0
H340 H 0.86468 0.88897 0.66934 0.0
H341 H 0.79203 0.87489 0.64587 0.0
H342 H 0.78164 0.03741 0.675 0.0
H343 H 0.79917 0.09457 0.65919 0.0
H344 H 0.84769 0.09243 0.67588 0.0
H345 H 0.9086 0.11124 0.64375 0.0
H346 H 0.86036 0.11373 0.627 0.0
H347 H 0.88404 0.06934 0.62084 0.0
H348 H 0.72226 0.87685 0.62472 0.0
H349 H 0.66307 0.89615 0.60428 0.0
H350 H 0.75824 0.06136 0.62095 0.0
C351 C 0.88585 0.01481 0.66913 0.0
C352 C 0.89358 0.9724 0.67426 0.0
C353 C 0.85962 0.92208 0.66557 0.0
C354 C 0.81808 0.91358 0.65228 0.0
C355 C 0.8113 0.95595 0.64757 0.0
C356 C 0.84448 0.00574 0.65545 0.0
C357 C 0.82891 0.0445 0.64724 0.0
C358 C 0.81343 0.06864 0.66541 0.0
C359 C 0.87311 0.08722 0.63391 0.0
C360 C 0.78163 0.00847 0.63373 0.0
C361 C 0.77207 0.95754 0.63436 0.0
C362 C 0.72981 0.91677 0.62378 0.0
C363 C 0.69662 0.92834 0.612 0.0
C364 C 0.70616 0.98053 0.61052 0.0
C365 C 0.74936 0.02099 0.62171 0.0
H366 H 0.82051 0.8738 0.0186 0.0
H367 H 0.95495 0.93838 0.977 0.0
H368 H 0.89869 0.88065 0.94817 0.0
H369 H 0.76739 0.7419 1.00063 0.0
H370 H 0.69985 0.7255 0.00322 0.0
H371 H 0.74947 0.77516 0.01994 0.0
H372 H 0.72196 0.84189 0.0076 0.0
H373 H 0.67214 0.79238 0.99086 0.0
H374 H 0.72085 0.85409 0.97986 0.0
H375 H 0.8277 0.81605 0.92395 0.0
H376 H 0.74873 0.74345 0.90692 0.0
H377 H 0.66249 0.71582 0.96517 0.0
C378 C 0.83779 0.87624 0.00331 0.0
C379 C 0.89174 0.9109 0.99982 0.0
C380 C 0.91353 0.91219 0.97985 0.0
C381 C 0.8819 0.87971 0.96341 0.0
C382 C 0.82884 0.8456 0.96737 0.0
C383 C 0.80705 0.84317 0.98689 0.0
C384 C 0.7499 0.80038 0.98747 0.0
C385 C 0.74117 0.75825 0.00378 0.0
C386 C 0.71411 0.82359 0.99169 0.0
C387 C 0.74292 0.77915 0.96522 0.0
C388 C 0.7887 0.80632 0.95379 0.0
C389 C 0.79169 0.79439 0.93276 0.0
C390 C 0.74677 0.75332 0.92322 0.0
C391 C 0.69995 0.72424 0.93481 0.0
C392 C 0.69805 0.73738 0.95605 0.0
H393 H 0.04798 0.88062 0.35495 0.0
H394 H 0.94775 0.92197 0.31939 0.0
H395 H 0.93748 0.85835 0.29168 0.0
H396 H 0.11421 0.8633 0.31107 0.0
H397 H 0.11558 0.80763 0.32212 0.0
H398 H 0.11522 0.8564 0.33924 0.0
H399 H 0.03236 0.7843 0.35797 0.0
H400 H 0.03267 0.73527 0.341 0.0
H401 H 0.97488 0.74159 0.34258 0.0
H402 H 0.94086 0.79308 0.26729 0.0
H403 H 0.95257 0.72606 0.24877 0.0
H404 H 0.04645 0.72286 0.30109 0.0
C405 C 0.02381 0.87618 0.34134 0.0
C406 C 0.99876 0.9063 0.33925 0.0
C407 C 0.9672 0.89921 0.3213 0.0
C408 C 0.96127 0.8633 0.30546 0.0
C409 C 0.98675 0.83446 0.30791 0.0
C410 C 0.01696 0.84004 0.32548 0.0
C411 C 0.03928 0.80345 0.3244 0.0
C412 C 0.09966 0.83457 0.32419 0.0
C413 C 0.01854 0.7638 0.34256 0.0
C414 C 0.01725 0.77678 0.30338 0.0
C415 C 0.9873 0.79548 0.29412 0.0
C416 C 0.96366 0.77763 0.27451 0.0
C417 C 0.97029 0.73919 0.26418 0.0
C418 C 0.99988 0.7184 0.27352 0.0
C419 C 0.02387 0.73795 0.29338 0.0
H420 H 0.16374 0.05149 0.67428 0.0
H421 H 0.08367 0.88522 0.68885 0.0
H422 H 0.14689 0.8746 0.66696 0.0
H423 H 0.19349 0.03985 0.62064 0.0
H424 H 0.2574 0.09811 0.62112 0.0
H425 H 0.20648 0.09324 0.63826 0.0
H426 H 0.26722 0.11138 0.67059 0.0
H427 H 0.31839 0.11639 0.65354 0.0
H428 H 0.29592 0.07053 0.67504 0.0
H429 H 0.21571 0.88074 0.6425 0.0
H430 H 0.28919 0.90427 0.61801 0.0
H431 H 0.32721 0.067 0.6199 0.0
C432 C 0.15972 0.01294 0.67291 0.0
C433 C 0.11876 0.96913 0.68323 0.0
C434 C 0.11479 0.91933 0.68111 0.0
C435 C 0.15046 0.91287 0.6687 0.0
C436 C 0.19017 0.95667 0.65863 0.0
C437 C 0.19536 0.00584 0.66069 0.0
C438 C 0.24172 0.04632 0.64814 0.0
C439 C 0.22367 0.0708 0.63102 0.0
C440 C 0.28327 0.08865 0.6627 0.0
C441 C 0.26139 0.01206 0.63857 0.0
C442 C 0.23087 0.96045 0.6448 0.0
C443 C 0.2401 0.92105 0.63759 0.0
C444 C 0.28169 0.93472 0.62362 0.0
C445 C 0.31374 0.98736 0.61711 0.0
C446 C 0.30358 0.02654 0.62481 0.0
H447 H 0.0908 0.15741 0.00738 0.0
H448 H 0.16263 0.0629 0.02123 0.0
H449 H 0.23911 0.12191 0.99948 0.0
H450 H 0.13257 0.18586 0.9538 0.0
H451 H 0.14473 0.25228 0.95482 0.0
H452 H 0.09584 0.203 0.97164 0.0
H453 H 0.14235 0.26051 0.00442 0.0
H454 H 0.19123 0.3101 0.9877 0.0
H455 H 0.21097 0.28304 0.0089 0.0
H456 H 0.3063 0.18949 0.97543 0.0
H457 H 0.36159 0.26306 0.95194 0.0
H458 H 0.24758 0.31577 0.95481 0.0
C459 C 0.12269 0.14921 0.00588 0.0
C460 C 0.12081 0.10554 0.01596 0.0
C461 C 0.16333 0.09619 0.01367 0.0
C462 C 0.20686 0.12941 1.00132 0.0
C463 C 0.20733 0.17192 0.99148 0.0
C464 C 0.16656 0.18214 0.99373 0.0
C465 C 0.17699 0.23068 0.9816 0.0
C466 C 0.13503 0.21712 0.96445 0.0
C467 C 0.18061 0.27362 0.99655 0.0
C468 C 0.22987 0.24599 0.97206 0.0
C469 C 0.24657 0.21149 0.97793 0.0
C470 C 0.29388 0.21706 0.9709 0.0
C471 C 0.32518 0.25925 0.95765 0.0
C472 C 0.30934 0.2957 0.95164 0.0
C473 C 0.26078 0.28855 0.95894 0.0
H474 H 0.97783 0.13601 0.34459 0.0
H475 H 0.13667 0.16492 0.33664 0.0
H476 H 0.15531 0.23728 0.31212 0.0
H477 H 0.95772 0.1606 0.29087 0.0
H478 H 0.92041 0.19183 0.29781 0.0
H479 H 0.91973 0.14252 0.31475 0.0
H480 H 0.95061 0.20793 0.34613 0.0
H481 H 0.9513 0.25742 0.3293 0.0
H482 H 0.00966 0.27078 0.34368 0.0
H483 H 0.15658 0.30679 0.28863 0.0
H484 H 0.1403 0.36784 0.26766 0.0
H485 H 0.98063 0.29346 0.29114 0.0
C486 C 0.01656 0.15757 0.3377 0.0
C487 C 0.05588 0.14494 0.34252 0.0
C488 C 0.106 0.17399 0.33316 0.0
C489 C 0.11694 0.21511 0.31923 0.0
C490 C 0.07727 0.22655 0.3148 0.0
C491 C 0.02807 0.19859 0.32374 0.0
C492 C 0.99232 0.21869 0.31637 0.0
C493 C 0.94474 0.17585 0.30423 0.0
C494 C 0.97498 0.23998 0.33498 0.0
C495 C 0.02913 0.26245 0.30192 0.0
C496 C 0.07794 0.26638 0.30124 0.0
C497 C 0.11853 0.30413 0.28907 0.0
C498 C 0.10899 0.33881 0.27731 0.0
C499 C 0.05924 0.33554 0.27777 0.0
C500 C 0.01889 0.29664 0.29025 0.0
loop_
_geom_bond_atom_site_label_1
_geom_bond_atom_site_label_2
_geom_bond_distance
_geom_bond_site_symmetry_2
_ccdc_geom_bond_type
In0 O1 2.294 1_455 S
In0 O2 2.326 . S
In0 O6 2.266 1_445 S
In0 O7 2.326 1_445 S
In0 O8 2.266 1_545 S
In0 O9 2.326 1_445 S
In0 O11 2.294 . S
In0 O12 2.326 . S
O1 In0 2.294 1_655 S
O1 C10 1.240 1_655 S
O2 In0 2.326 . S
O2 C10 1.252 . S
C3 O6 1.252 . S
C3 O7 1.260 . S
C4 O11 1.240 . S
C4 O12 1.252 . S
C5 O8 1.236 1_655 S
C5 O9 1.286 . S
O6 In0 2.266 1_665 S
O6 C3 1.252 . S
O7 In0 2.326 1_665 S
O7 C3 1.260 . S
O8 In0 2.266 1_565 S
O8 C5 1.236 1_455 S
O9 In0 2.326 1_665 S
O9 C5 1.286 . S
C10 O1 1.240 1_455 S
C10 O2 1.252 . S
O11 In0 2.294 . S
O11 C4 1.240 . S
O12 In0 2.326 . S
O12 C4 1.252 . S
In13 O14 2.294 . S
In13 O15 2.326 1_455 S
In13 O19 2.266 . S
In13 O20 2.326 1_545 S
In13 O21 2.266 1_445 S
In13 O22 2.326 1_545 S
In13 O24 2.294 1_445 S
In13 O25 2.326 1_455 S
O14 In13 2.294 . S
O14 C23 1.240 1_455 S
O15 In13 2.326 1_655 S
O15 C23 1.252 . S
C16 O19 1.252 1_565 S
C16 O20 1.260 . S
C17 O24 1.240 1_545 S
C17 O25 1.252 . S
C18 O21 1.252 1_455 S
C18 O22 1.260 . S
O19 In13 2.266 . S
O19 C16 1.252 1_545 S
O20 In13 2.326 1_565 S
O20 C16 1.260 . S
O21 In13 2.266 1_665 S
O21 C18 1.252 1_655 S
O22 In13 2.326 1_565 S
O22 C18 1.260 . S
C23 O14 1.240 1_655 S
C23 O15 1.252 . S
O24 In13 2.294 1_665 S
O24 C17 1.240 1_565 S
O25 In13 2.326 1_655 S
O25 C17 1.252 . S
In26 O27 2.280 1_445 S
In26 O28 2.328 1_445 S
In26 O32 2.253 1_545 S
In26 O33 2.328 . S
In26 O34 2.280 . S
In26 O35 2.323 . S
In26 O37 2.308 1_455 S
In26 O38 2.324 1_445 S
O27 In26 2.280 1_665 S
O27 C36 1.240 . S
O28 In26 2.328 1_665 S
O28 C36 1.252 . S
C29 O32 1.252 1_545 S
C29 O33 1.260 . S
C30 O37 1.240 1_565 S
C30 O38 1.252 . S
C31 O34 1.252 . S
C31 O35 1.260 . S
O32 In26 2.253 1_565 S
O32 C29 1.252 1_565 S
O33 In26 2.328 . S
O33 C29 1.260 . S
O34 In26 2.280 . S
O34 C31 1.252 . S
O35 In26 2.323 . S
O35 C31 1.260 . S
C36 O27 1.240 . S
C36 O28 1.252 . S
O37 In26 2.308 1_655 S
O37 C30 1.240 1_545 S
O38 In26 2.324 1_665 S
O38 C30 1.252 . S
C39 C40 1.384 1_655 S
C39 C41 1.384 . S
C39 H67 0.931 . S
C40 C39 1.384 1_455 S
C40 C43 1.382 . S
C41 C39 1.384 . S
C41 C42 1.381 1_655 S
C41 H68 0.930 . S
C42 C41 1.381 1_455 S
C42 C44 1.381 . S
C42 C45 1.487 . S
C43 C40 1.382 . S
C43 C44 1.387 . S
C43 H69 0.930 . S
C44 C42 1.381 . S
C44 C43 1.387 . S
C44 H70 0.931 . S
C45 C42 1.487 . S
C45 C52 1.400 . S
C45 N83 1.343 . S
C46 C47 1.384 . S
C46 C48 1.384 . S
C46 H71 0.931 . S
C47 C46 1.384 . S
C47 C50 1.382 1_455 S
C48 C46 1.384 . S
C48 C49 1.382 1_455 S
C48 H72 0.930 . S
C49 C48 1.382 1_655 S
C49 C51 1.381 . S
C49 C52 1.492 1_655 S
C50 C47 1.382 1_655 S
C50 C51 1.387 . S
C50 H73 0.930 . S
C51 C49 1.381 . S
C51 C50 1.387 . S
C51 H74 0.931 . S
C52 C45 1.400 . S
C52 C49 1.492 1_455 S
C52 N84 1.337 1_455 S
C53 C54 1.384 . S
C53 C55 1.384 . S
C53 H75 0.931 . S
C54 C53 1.384 . S
C54 C57 1.382 1_455 S
C55 C53 1.384 . S
C55 C56 1.382 1_455 S
C55 H76 0.930 . S
C56 C55 1.382 1_655 S
C56 C58 1.381 . S
C56 C59 1.482 1_655 S
C57 C54 1.382 1_655 S
C57 C58 1.387 . S
C57 H77 0.930 . S
C58 C56 1.381 . S
C58 C57 1.387 . S
C58 H78 0.931 . S
C59 C56 1.482 1_455 S
C59 C66 1.400 . S
C59 N84 1.348 1_455 S
C60 C61 1.384 1_655 S
C60 C62 1.384 . S
C60 H79 0.931 . S
C61 C60 1.384 1_455 S
C61 C64 1.382 . S
C62 C60 1.384 . S
C62 C63 1.381 1_655 S
C62 H80 0.930 . S
C63 C62 1.381 1_455 S
C63 C65 1.381 . S
C63 C66 1.487 . S
C64 C61 1.382 . S
C64 C65 1.387 . S
C64 H81 0.930 . S
C65 C63 1.381 . S
C65 C64 1.387 . S
C65 H82 0.931 . S
C66 C59 1.400 . S
C66 C63 1.487 . S
C66 N83 1.343 . S
H67 C39 0.931 . S
H68 C41 0.930 . S
H69 C43 0.930 . S
H70 C44 0.931 . S
H71 C46 0.931 . S
H72 C48 0.930 . S
H73 C50 0.930 . S
H74 C51 0.931 . S
H75 C53 0.931 . S
H76 C55 0.930 . S
H77 C57 0.930 . S
H78 C58 0.931 . S
H79 C60 0.931 . S
H80 C62 0.930 . S
H81 C64 0.930 . S
H82 C65 0.931 . S
N83 C45 1.343 . S
N83 C66 1.343 . S
N84 C52 1.337 1_655 S
N84 C59 1.348 1_655 S
C85 C86 1.384 . S
C85 C87 1.384 . S
C85 H113 0.931 . S
C86 C85 1.384 . S
C86 C89 1.382 1_545 S
C87 C85 1.384 . S
C87 C88 1.379 1_545 S
C87 H114 0.930 . S
C88 C87 1.379 1_565 S
C88 C90 1.388 . S
C88 C91 1.482 1_565 S
C89 C86 1.382 1_565 S
C89 C90 1.387 . S
C89 H115 0.930 . S
C90 C88 1.388 . S
C90 C89 1.387 . S
C90 H116 0.931 . S
C91 C88 1.482 1_545 S
C91 C98 1.399 . S
C91 N129 1.343 1_545 S
C92 C93 1.384 1_565 S
C92 C94 1.384 . S
C92 H117 0.931 . S
C93 C92 1.384 1_545 S
C93 C96 1.382 . S
C94 C92 1.384 . S
C94 C95 1.381 1_565 S
C94 H118 0.930 . S
C95 C94 1.381 1_545 S
C95 C97 1.381 . S
C95 C98 1.487 . S
C96 C93 1.382 . S
C96 C97 1.387 . S
C96 H119 0.930 . S
C97 C95 1.381 . S
C97 C96 1.387 . S
C97 H120 0.931 . S
C98 C91 1.399 . S
C98 C95 1.487 . S
C98 N130 1.343 . S
C99 C100 1.384 1_565 S
C99 C101 1.384 . S
C99 H121 0.931 . S
C100 C99 1.384 1_545 S
C100 C103 1.382 . S
C101 C99 1.384 . S
C101 C102 1.381 1_565 S
C101 H122 0.930 . S
C102 C101 1.381 1_545 S
C102 C104 1.381 . S
C102 C105 1.487 . S
C103 C100 1.382 . S
C103 C104 1.387 . S
C103 H123 0.930 . S
C104 C102 1.381 . S
C104 C103 1.387 . S
C104 H124 0.931 . S
C105 C102 1.487 . S
C105 C112 1.399 . S
C105 N130 1.343 . S
C106 C107 1.384 . S
C106 C108 1.384 . S
C106 H125 0.931 . S
C107 C106 1.384 . S
C107 C110 1.382 1_545 S
C108 C106 1.384 . S
C108 C109 1.371 1_545 S
C108 H126 0.930 . S
C109 C108 1.371 1_565 S
C109 C111 1.387 . S
C109 C112 1.492 1_565 S
C110 C107 1.382 1_565 S
C110 C111 1.387 . S
C110 H127 0.930 . S
C111 C109 1.387 . S
C111 C110 1.387 . S
C111 H128 0.931 . S
C112 C105 1.399 . S
C112 C109 1.492 1_545 S
C112 N129 1.343 1_545 S
H113 C85 0.931 . S
H114 C87 0.930 . S
H115 C89 0.930 . S
H116 C90 0.931 . S
H117 C92 0.931 . S
H118 C94 0.930 . S
H119 C96 0.930 . S
H120 C97 0.931 . S
H121 C99 0.931 . S
H122 C101 0.930 . S
H123 C103 0.930 . S
H124 C104 0.931 . S
H125 C106 0.931 . S
H126 C108 0.930 . S
H127 C110 0.930 . S
H128 C111 0.931 . S
N129 C91 1.343 1_565 S
N129 C112 1.343 1_565 S
N130 C98 1.343 . S
N130 C105 1.343 . S
C131 C132 1.384 . S
C131 C133 1.384 . S
C131 H159 0.931 . S
C132 C131 1.384 . S
C132 C135 1.382 . S
C133 C131 1.384 . S
C133 C134 1.381 . S
C133 H160 0.930 . S
C134 C133 1.381 . S
C134 C136 1.381 . S
C134 C137 1.487 . S
C135 C132 1.382 . S
C135 C136 1.387 . S
C135 H161 0.930 . S
C136 C134 1.381 . S
C136 C135 1.387 . S
C136 H162 0.931 . S
C137 C134 1.487 . S
C137 C144 1.399 . S
C137 N175 1.343 . S
C138 C139 1.384 . S
C138 C140 1.384 . S
C138 H163 0.931 . S
C139 C138 1.384 . S
C139 C142 1.382 . S
C140 C138 1.384 . S
C140 C141 1.381 . S
C140 H164 0.930 . S
C141 C140 1.381 . S
C141 C143 1.381 . S
C141 C144 1.487 . S
C142 C139 1.382 . S
C142 C143 1.387 . S
C142 H165 0.930 . S
C143 C141 1.381 . S
C143 C142 1.387 . S
C143 H166 0.931 . S
C144 C137 1.399 . S
C144 C141 1.487 . S
C144 N176 1.343 . S
C145 C146 1.384 . S
C145 C147 1.384 . S
C145 H167 0.931 . S
C146 C145 1.384 . S
C146 C149 1.382 . S
C147 C145 1.384 . S
C147 C148 1.381 . S
C147 H168 0.930 . S
C148 C147 1.381 . S
C148 C150 1.381 . S
C148 C151 1.487 . S
C149 C146 1.382 . S
C149 C150 1.387 . S
C149 H169 0.930 . S
C150 C148 1.381 . S
C150 C149 1.387 . S
C150 H170 0.931 . S
C151 C148 1.487 . S
C151 C158 1.399 . S
C151 N176 1.343 . S
C152 C153 1.384 . S
C152 C154 1.384 . S
C152 H171 0.931 . S
C153 C152 1.384 . S
C153 C156 1.382 . S
C154 C152 1.384 . S
C154 C155 1.381 . S
C154 H172 0.930 . S
C155 C154 1.381 . S
C155 C157 1.381 . S
C155 C158 1.487 . S
C156 C153 1.382 . S
C156 C157 1.387 . S
C156 H173 0.930 . S
C157 C155 1.381 . S
C157 C156 1.387 . S
C157 H174 0.931 . S
C158 C151 1.399 . S
C158 C155 1.487 . S
C158 N175 1.343 . S
H159 C131 0.931 . S
H160 C133 0.930 . S
H161 C135 0.930 . S
H162 C136 0.931 . S
H163 C138 0.931 . S
H164 C140 0.930 . S
H165 C142 0.930 . S
H166 C143 0.931 . S
H167 C145 0.931 . S
H168 C147 0.930 . S
H169 C149 0.930 . S
H170 C150 0.931 . S
H171 C152 0.931 . S
H172 C154 0.930 . S
H173 C156 0.930 . S
H174 C157 0.931 . S
N175 C137 1.343 . S
N175 C158 1.343 . S
N176 C144 1.343 . S
N176 C151 1.343 . S
H177 C189 0.930 . S
H178 C191 0.930 . S
H179 C192 0.930 . S
H180 C196 0.959 . S
H181 C196 0.959 . S
H182 C196 0.961 . S
H183 C197 0.960 . S
H184 C197 0.961 . S
H185 C197 0.959 . S
H186 C200 0.929 . S
H187 C201 0.931 . S
H188 C203 0.930 . S
C189 H177 0.930 . S
C189 C190 1.399 . S
C189 C194 1.399 . S
C190 C189 1.399 . S
C190 C191 1.376 1_455 S
C191 H178 0.930 . S
C191 C190 1.376 1_655 S
C191 C192 1.388 . S
C192 H179 0.930 . S
C192 C191 1.388 . S
C192 C193 1.390 . S
C193 C192 1.390 . S
C193 C194 1.394 1_655 S
C193 C199 1.465 . S
C194 C189 1.399 . S
C194 C193 1.394 1_455 S
C194 C195 1.516 . S
C195 C194 1.516 . S
C195 C196 1.502 . S
C195 C197 1.561 . S
C195 C198 1.526 . S
C196 H180 0.959 . S
C196 H181 0.959 . S
C196 H182 0.961 . S
C196 C195 1.502 . S
C197 H183 0.960 . S
C197 H184 0.961 . S
C197 H185 0.959 . S
C197 C195 1.561 . S
C198 C195 1.526 . S
C198 C199 1.396 1_455 S
C198 C203 1.390 . S
C199 C193 1.465 . S
C199 C198 1.396 1_655 S
C199 C200 1.399 . S
C200 H186 0.929 . S
C200 C199 1.399 . S
C200 C201 1.385 . S
C201 H187 0.931 . S
C201 C200 1.385 . S
C201 C202 1.389 . S
C202 C201 1.389 . S
C202 C203 1.387 1_655 S
C203 H188 0.930 . S
C203 C198 1.390 . S
C203 C202 1.387 1_455 S
H204 C216 0.930 . S
H205 C218 0.930 . S
H206 C219 0.930 . S
H207 C223 0.959 . S
H208 C223 0.959 . S
H209 C223 0.961 . S
H210 C224 0.960 . S
H211 C224 0.961 . S
H212 C224 0.959 . S
H213 C227 0.929 . S
H214 C228 0.931 . S
H215 C230 0.930 . S
C216 H204 0.930 . S
C216 C217 1.399 . S
C216 C221 1.399 . S
C217 C216 1.399 . S
C217 C218 1.376 1_545 S
C218 H205 0.930 . S
C218 C217 1.376 1_565 S
C218 C219 1.388 . S
C219 H206 0.930 . S
C219 C218 1.388 . S
C219 C220 1.390 . S
C220 C219 1.390 . S
C220 C221 1.394 1_565 S
C220 C226 1.465 . S
C221 C216 1.399 . S
C221 C220 1.394 1_545 S
C221 C222 1.516 . S
C222 C221 1.516 . S
C222 C223 1.502 . S
C222 C224 1.561 . S
C222 C225 1.526 . S
C223 H207 0.959 . S
C223 H208 0.959 . S
C223 H209 0.961 . S
C223 C222 1.502 . S
C224 H210 0.960 . S
C224 H211 0.961 . S
C224 H212 0.959 . S
C224 C222 1.561 . S
C225 C222 1.526 . S
C225 C226 1.396 1_545 S
C225 C230 1.390 . S
C226 C220 1.465 . S
C226 C225 1.396 1_565 S
C226 C227 1.399 . S
C227 H213 0.929 . S
C227 C226 1.399 . S
C227 C228 1.385 . S
C228 H214 0.931 . S
C228 C227 1.385 . S
C228 C229 1.401 . S
C229 C228 1.401 . S
C229 C230 1.384 1_565 S
C230 H215 0.930 . S
C230 C225 1.390 . S
C230 C229 1.384 1_545 S
H231 C243 0.930 . S
H232 C245 0.930 . S
H233 C246 0.930 . S
H234 C250 0.959 . S
H235 C250 0.959 . S
H236 C250 0.961 . S
H237 C251 0.960 . S
H238 C251 0.961 . S
H239 C251 0.959 . S
H240 C254 0.929 . S
H241 C255 0.931 . S
H242 C257 0.930 . S
C243 H231 0.930 . S
C243 C244 1.399 . S
C243 C248 1.399 . S
C244 C243 1.399 . S
C244 C245 1.376 . S
C245 H232 0.930 . S
C245 C244 1.376 . S
C245 C246 1.388 . S
C246 H233 0.930 . S
C246 C245 1.388 . S
C246 C247 1.390 . S
C247 C246 1.390 . S
C247 C248 1.394 . S
C247 C253 1.465 . S
C248 C243 1.399 . S
C248 C247 1.394 . S
C248 C249 1.516 . S
C249 C248 1.516 . S
C249 C250 1.502 . S
C249 C251 1.561 . S
C249 C252 1.526 . S
C250 H234 0.959 . S
C250 H235 0.959 . S
C250 H236 0.961 . S
C250 C249 1.502 . S
C251 H237 0.960 . S
C251 H238 0.961 . S
C251 H239 0.959 . S
C251 C249 1.561 . S
C252 C249 1.526 . S
C252 C253 1.396 . S
C252 C257 1.390 . S
C253 C247 1.465 . S
C253 C252 1.396 . S
C253 C254 1.399 . S
C254 H240 0.929 . S
C254 C253 1.399 . S
C254 C255 1.385 . S
C255 H241 0.931 . S
C255 C254 1.385 . S
C255 C256 1.389 . S
C256 C255 1.389 . S
C256 C257 1.387 . S
C257 H242 0.930 . S
C257 C252 1.390 . S
C257 C256 1.387 . S
H258 C270 0.930 . S
H259 C272 0.930 . S
H260 C273 0.930 . S
H261 C277 0.959 . S
H262 C277 0.959 . S
H263 C277 0.961 . S
H264 C278 0.960 . S
H265 C278 0.961 . S
H266 C278 0.959 . S
H267 C281 0.929 . S
H268 C282 0.931 . S
H269 C284 0.930 . S
C270 H258 0.930 . S
C270 C271 1.399 1_455 S
C270 C275 1.399 . S
C271 C270 1.399 1_655 S
C271 C272 1.376 . S
C272 H259 0.930 . S
C272 C271 1.376 . S
C272 C273 1.388 . S
C273 H260 0.930 . S
C273 C272 1.388 . S
C273 C274 1.390 . S
C274 C273 1.390 . S
C274 C275 1.394 1_655 S
C274 C280 1.465 . S
C275 C270 1.399 . S
C275 C274 1.394 1_455 S
C275 C276 1.516 . S
C276 C275 1.516 . S
C276 C277 1.502 . S
C276 C278 1.561 . S
C276 C279 1.526 . S
C277 H261 0.959 . S
C277 H262 0.959 . S
C277 H263 0.961 . S
C277 C276 1.502 . S
C278 H264 0.960 . S
C278 H265 0.961 . S
C278 H266 0.959 . S
C278 C276 1.561 . S
C279 C276 1.526 . S
C279 C280 1.396 1_455 S
C279 C284 1.390 . S
C280 C274 1.465 . S
C280 C279 1.396 1_655 S
C280 C281 1.399 . S
C281 H267 0.929 . S
C281 C280 1.399 . S
C281 C282 1.385 . S
C282 H268 0.931 . S
C282 C281 1.385 . S
C282 C283 1.389 . S
C283 C282 1.389 . S
C283 C284 1.387 1_655 S
C284 H269 0.930 . S
C284 C279 1.390 . S
C284 C283 1.387 1_455 S
H285 C297 0.930 . S
H286 C299 0.930 . S
H287 C300 0.930 . S
H288 C304 0.959 . S
H289 C304 0.959 . S
H290 C304 0.961 . S
H291 C305 0.960 . S
H292 C305 0.961 . S
H293 C305 0.959 . S
H294 C308 0.929 . S
H295 C309 0.931 . S
H296 C311 0.930 . S
C297 H285 0.930 . S
C297 C298 1.399 1_565 S
C297 C302 1.399 . S
C298 C297 1.399 1_545 S
C298 C299 1.376 . S
C299 H286 0.930 . S
C299 C298 1.376 . S
C299 C300 1.388 . S
C300 H287 0.930 . S
C300 C299 1.388 . S
C300 C301 1.390 . S
C301 C300 1.390 . S
C301 C302 1.394 1_545 S
C301 C307 1.465 . S
C302 C297 1.399 . S
C302 C301 1.394 1_565 S
C302 C303 1.516 . S
C303 C302 1.516 . S
C303 C304 1.502 . S
C303 C305 1.561 . S
C303 C306 1.526 . S
C304 H288 0.959 . S
C304 H289 0.959 . S
C304 H290 0.961 . S
C304 C303 1.502 . S
C305 H291 0.960 . S
C305 H292 0.961 . S
C305 H293 0.959 . S
C305 C303 1.561 . S
C306 C303 1.526 . S
C306 C307 1.396 1_565 S
C306 C311 1.390 . S
C307 C301 1.465 . S
C307 C306 1.396 1_545 S
C307 C308 1.399 . S
C308 H294 0.929 . S
C308 C307 1.399 . S
C308 C309 1.385 . S
C309 H295 0.931 . S
C309 C308 1.385 . S
C309 C310 1.389 . S
C310 C309 1.389 . S
C310 C311 1.387 1_545 S
C311 H296 0.930 . S
C311 C306 1.390 . S
C311 C310 1.387 1_565 S
H312 C324 0.930 . S
H313 C326 0.930 . S
H314 C327 0.930 . S
H315 C331 0.959 . S
H316 C331 0.959 . S
H317 C331 0.961 . S
H318 C332 0.960 . S
H319 C332 0.961 . S
H320 C332 0.959 . S
H321 C335 0.929 . S
H322 C336 0.931 . S
H323 C338 0.930 . S
C324 H312 0.930 . S
C324 C325 1.399 . S
C324 C329 1.399 . S
C325 C324 1.399 . S
C325 C326 1.376 . S
C326 H313 0.930 . S
C326 C325 1.376 . S
C326 C327 1.388 . S
C327 H314 0.930 . S
C327 C326 1.388 . S
C327 C328 1.390 . S
C328 C327 1.390 . S
C328 C329 1.394 . S
C328 C334 1.465 . S
C329 C324 1.399 . S
C329 C328 1.394 . S
C329 C330 1.516 . S
C330 C329 1.516 . S
C330 C331 1.502 . S
C330 C332 1.561 . S
C330 C333 1.526 . S
C331 H315 0.959 . S
C331 H316 0.959 . S
C331 H317 0.961 . S
C331 C330 1.502 . S
C332 H318 0.960 . S
C332 H319 0.961 . S
C332 H320 0.959 . S
C332 C330 1.561 . S
C333 C330 1.526 . S
C333 C334 1.396 . S
C333 C338 1.390 . S
C334 C328 1.465 . S
C334 C333 1.396 . S
C334 C335 1.399 . S
C335 H321 0.929 . S
C335 C334 1.399 . S
C335 C336 1.385 . S
C336 H322 0.931 . S
C336 C335 1.385 . S
C336 C337 1.389 . S
C337 C336 1.389 . S
C337 C338 1.387 . S
C338 H323 0.930 . S
C338 C333 1.390 . S
C338 C337 1.387 . S
H339 C351 0.930 . S
H340 C353 0.930 . S
H341 C354 0.930 . S
H342 C358 0.959 . S
H343 C358 0.959 . S
H344 C358 0.961 . S
H345 C359 0.960 . S
H346 C359 0.961 . S
H347 C359 0.959 . S
H348 C362 0.929 . S
H349 C363 0.931 . S
H350 C365 0.930 . S
C351 H339 0.930 . S
C351 C352 1.399 1_545 S
C351 C356 1.399 . S
C352 C351 1.399 1_565 S
C352 C353 1.376 . S
C353 H340 0.930 . S
C353 C352 1.376 . S
C353 C354 1.388 . S
C354 H341 0.930 . S
C354 C353 1.388 . S
C354 C355 1.390 . S
C355 C354 1.390 . S
C355 C356 1.394 1_565 S
C355 C361 1.465 . S
C356 C351 1.399 . S
C356 C355 1.394 1_545 S
C356 C357 1.516 . S
C357 C356 1.516 . S
C357 C358 1.502 . S
C357 C359 1.561 . S
C357 C360 1.526 . S
C358 H342 0.959 . S
C358 H343 0.959 . S
C358 H344 0.961 . S
C358 C357 1.502 . S
C359 H345 0.960 . S
C359 H346 0.961 . S
C359 H347 0.959 . S
C359 C357 1.561 . S
C360 C357 1.526 . S
C360 C361 1.396 1_545 S
C360 C365 1.390 . S
C361 C355 1.465 . S
C361 C360 1.396 1_565 S
C361 C362 1.399 . S
C362 H348 0.929 . S
C362 C361 1.399 . S
C362 C363 1.385 . S
C363 H349 0.931 . S
C363 C362 1.385 . S
C363 C364 1.389 . S
C364 C363 1.389 . S
C364 C365 1.387 1_565 S
C365 H350 0.930 . S
C365 C360 1.390 . S
C365 C364 1.387 1_545 S
H366 C378 0.930 . S
H367 C380 0.930 . S
H368 C381 0.930 . S
H369 C385 0.959 1_556 S
H370 C385 0.959 . S
H371 C385 0.961 . S
H372 C386 0.960 . S
H373 C386 0.961 . S
H374 C386 0.959 . S
H375 C389 0.929 . S
H376 C390 0.931 . S
H377 C392 0.930 . S
C378 H366 0.930 . S
C378 C379 1.399 . S
C378 C383 1.399 1_554 S
C379 C378 1.399 . S
C379 C380 1.376 1_554 S
C380 H367 0.930 . S
C380 C379 1.376 1_556 S
C380 C381 1.388 . S
C381 H368 0.930 . S
C381 C380 1.388 . S
C381 C382 1.390 . S
C382 C381 1.390 . S
C382 C383 1.394 . S
C382 C388 1.465 . S
C383 C378 1.399 1_556 S
C383 C382 1.394 . S
C383 C384 1.516 . S
C384 C383 1.516 . S
C384 C385 1.502 1_556 S
C384 C386 1.561 1_556 S
C384 C387 1.526 . S
C385 H369 0.959 1_554 S
C385 H370 0.959 . S
C385 H371 0.961 . S
C385 C384 1.502 1_554 S
C386 H372 0.960 . S
C386 H373 0.961 . S
C386 H374 0.959 . S
C386 C384 1.561 1_554 S
C387 C384 1.526 . S
C387 C388 1.396 . S
C387 C392 1.390 . S
C388 C382 1.465 . S
C388 C387 1.396 . S
C388 C389 1.399 . S
C389 H375 0.929 . S
C389 C388 1.399 . S
C389 C390 1.385 . S
C390 H376 0.931 . S
C390 C389 1.385 . S
C390 C391 1.389 . S
C391 C390 1.389 . S
C391 C392 1.387 . S
C392 H377 0.930 . S
C392 C387 1.390 . S
C392 C391 1.387 . S
H393 C405 0.930 . S
H394 C407 0.930 . S
H395 C408 0.930 . S
H396 C412 0.959 . S
H397 C412 0.959 . S
H398 C412 0.961 . S
H399 C413 0.960 . S
H400 C413 0.961 . S
H401 C413 0.959 . S
H402 C416 0.929 . S
H403 C417 0.931 . S
H404 C419 0.930 . S
C405 H393 0.930 . S
C405 C406 1.399 . S
C405 C410 1.399 . S
C406 C405 1.399 . S
C406 C407 1.376 1_455 S
C407 H394 0.930 . S
C407 C406 1.376 1_655 S
C407 C408 1.388 . S
C408 H395 0.930 . S
C408 C407 1.388 . S
C408 C409 1.390 . S
C409 C408 1.390 . S
C409 C410 1.394 1_655 S
C409 C415 1.465 . S
C410 C405 1.399 . S
C410 C409 1.394 1_455 S
C410 C411 1.516 . S
C411 C410 1.516 . S
C411 C412 1.502 . S
C411 C413 1.561 1_455 S
C411 C414 1.526 . S
C412 H396 0.959 . S
C412 H397 0.959 . S
C412 H398 0.961 . S
C412 C411 1.502 . S
C413 H399 0.960 . S
C413 H400 0.961 . S
C413 H401 0.959 . S
C413 C411 1.561 1_655 S
C414 C411 1.526 . S
C414 C415 1.396 1_455 S
C414 C419 1.390 . S
C415 C409 1.465 . S
C415 C414 1.396 1_655 S
C415 C416 1.399 . S
C416 H402 0.929 . S
C416 C415 1.399 . S
C416 C417 1.385 . S
C417 H403 0.931 . S
C417 C416 1.385 . S
C417 C418 1.382 1_655 S
C418 C417 1.382 1_455 S
C418 C419 1.388 . S
C419 H404 0.930 . S
C419 C414 1.390 . S
C419 C418 1.388 . S
H420 C432 0.930 . S
H421 C434 0.930 . S
H422 C435 0.930 . S
H423 C439 0.959 . S
H424 C439 0.959 . S
H425 C439 0.961 . S
H426 C440 0.960 . S
H427 C440 0.961 . S
H428 C440 0.959 . S
H429 C443 0.929 . S
H430 C444 0.931 . S
H431 C446 0.930 . S
C432 H420 0.930 . S
C432 C433 1.399 . S
C432 C437 1.399 . S
C433 C432 1.399 . S
C433 C434 1.376 1_545 S
C434 H421 0.930 . S
C434 C433 1.376 1_565 S
C434 C435 1.388 . S
C435 H422 0.930 . S
C435 C434 1.388 . S
C435 C436 1.390 . S
C436 C435 1.390 . S
C436 C437 1.394 1_565 S
C436 C442 1.465 . S
C437 C432 1.399 . S
C437 C436 1.394 1_545 S
C437 C438 1.516 . S
C438 C437 1.516 . S
C438 C439 1.502 . S
C438 C440 1.561 . S
C438 C441 1.526 . S
C439 H423 0.959 . S
C439 H424 0.959 . S
C439 H425 0.961 . S
C439 C438 1.502 . S
C440 H426 0.960 . S
C440 H427 0.961 . S
C440 H428 0.959 . S
C440 C438 1.561 . S
C441 C438 1.526 . S
C441 C442 1.396 1_545 S
C441 C446 1.390 . S
C442 C436 1.465 . S
C442 C441 1.396 1_565 S
C442 C443 1.399 . S
C443 H429 0.929 . S
C443 C442 1.399 . S
C443 C444 1.385 . S
C444 H430 0.931 . S
C444 C443 1.385 . S
C444 C445 1.389 . S
C445 C444 1.389 . S
C445 C446 1.387 1_565 S
C446 H431 0.930 . S
C446 C441 1.390 . S
C446 C445 1.387 1_545 S
H447 C459 0.930 . S
H448 C461 0.930 . S
H449 C462 0.930 . S
H450 C466 0.959 . S
H451 C466 0.959 . S
H452 C466 0.961 1_554 S
H453 C467 0.960 . S
H454 C467 0.961 . S
H455 C467 0.959 . S
H456 C470 0.929 . S
H457 C471 0.931 . S
H458 C473 0.930 . S
C459 H447 0.930 . S
C459 C460 1.399 . S
C459 C464 1.399 1_554 S
C460 C459 1.399 . S
C460 C461 1.376 1_554 S
C461 H448 0.930 . S
C461 C460 1.376 1_556 S
C461 C462 1.388 . S
C462 H449 0.930 . S
C462 C461 1.388 . S
C462 C463 1.390 . S
C463 C462 1.390 . S
C463 C464 1.394 . S
C463 C469 1.465 . S
C464 C459 1.399 1_556 S
C464 C463 1.394 . S
C464 C465 1.516 . S
C465 C464 1.516 . S
C465 C466 1.502 . S
C465 C467 1.561 1_556 S
C465 C468 1.526 . S
C466 H450 0.959 . S
C466 H451 0.959 . S
C466 H452 0.961 1_556 S
C466 C465 1.502 . S
C467 H453 0.960 . S
C467 H454 0.961 . S
C467 H455 0.959 . S
C467 C465 1.561 1_554 S
C468 C465 1.526 . S
C468 C469 1.396 . S
C468 C473 1.390 . S
C469 C463 1.465 . S
C469 C468 1.396 . S
C469 C470 1.399 . S
C470 H456 0.929 . S
C470 C469 1.399 . S
C470 C471 1.385 . S
C471 H457 0.931 . S
C471 C470 1.385 . S
C471 C472 1.389 . S
C472 C471 1.389 . S
C472 C473 1.387 . S
C473 H458 0.930 . S
C473 C468 1.390 . S
C473 C472 1.387 . S
H474 C486 0.930 . S
H475 C488 0.930 . S
H476 C489 0.930 . S
H477 C493 0.959 . S
H478 C493 0.959 . S
H479 C493 0.961 . S
H480 C494 0.960 . S
H481 C494 0.961 . S
H482 C494 0.959 . S
H483 C497 0.929 . S
H484 C498 0.931 . S
H485 C500 0.930 . S
C486 H474 0.930 . S
C486 C487 1.399 1_655 S
C486 C491 1.399 . S
C487 C486 1.399 1_455 S
C487 C488 1.376 . S
C488 H475 0.930 . S
C488 C487 1.376 . S
C488 C489 1.388 . S
C489 H476 0.930 . S
C489 C488 1.388 . S
C489 C490 1.390 . S
C490 C489 1.390 . S
C490 C491 1.394 1_455 S
C490 C496 1.465 . S
C491 C486 1.399 . S
C491 C490 1.394 1_655 S
C491 C492 1.516 . S
C492 C491 1.516 . S
C492 C493 1.502 . S
C492 C494 1.561 . S
C492 C495 1.526 . S
C493 H477 0.959 . S
C493 H478 0.959 . S
C493 H479 0.961 . S
C493 C492 1.502 . S
C494 H480 0.960 . S
C494 H481 0.961 . S
C494 H482 0.959 . S
C494 C492 1.561 . S
C495 C492 1.526 . S
C495 C496 1.396 1_655 S
C495 C500 1.390 . S
C496 C490 1.465 . S
C496 C495 1.396 1_455 S
C496 C497 1.399 . S
C497 H483 0.929 . S
C497 C496 1.399 . S
C497 C498 1.385 . S
C498 H484 0.931 . S
C498 C497 1.385 . S
C498 C499 1.389 . S
C499 C498 1.389 . S
C499 C500 1.387 1_455 S
C500 H485 0.930 . S
C500 C495 1.390 . S
C500 C499 1.387 1_655 S
C202 C47 1.509 1_655 S
C190 C10 1.512 . S
C217 C17 1.509 . S
C229 C86 1.507 1_565 S
C244 C36 1.511 . S
C256 C153 1.520 . S
C271 C5 1.508 . S
C283 C54 1.511 1_655 S
C310 C107 1.521 . S
C298 C16 1.514 1_545 S
C325 C31 1.515 . S
C337 C132 1.508 . S
C364 C93 1.514 1_565 S
C352 C30 1.516 . S
C379 C3 1.515 . S
C391 C146 1.509 . S
C418 C61 1.516 . S
C406 C18 1.515 . S
C445 C100 1.520 1_565 S
C433 C29 1.514 . S
C472 C139 1.509 . S
C460 C4 1.515 . S
C487 C23 1.511 1_455 S
C499 C40 1.510 . S
