# Generated by pormake.
# Topology ptr, (4,4)-cn, num edge types: 1
# Building blocks:
#     Node 0, Type 0, BuildingBlock: TATPOV_clean_sbu_0, # of connection points: 4
#     Node 1, Type 0, BuildingBlock: TATPOV_clean_sbu_0, # of connection points: 4
#     Node 2, Type 0, BuildingBlock: TATPOV_clean_sbu_0, # of connection points: 4
#     Node 3, Type 0, BuildingBlock: TATPOV_clean_sbu_0, # of connection points: 4
#     Node 4, Type 0, BuildingBlock: TATPOV_clean_sbu_0, # of connection points: 4
#     Node 5, Type 0, BuildingBlock: TATPOV_clean_sbu_0, # of connection points: 4
#     Node 6, Type 0, BuildingBlock: TATPOV_clean_sbu_0, # of connection points: 4
#     Node 7, Type 0, BuildingBlock: TATPOV_clean_sbu_0, # of connection points: 4
#     Node 8, Type 0, BuildingBlock: TATPOV_clean_sbu_0, # of connection points: 4
#     Node 9, Type 0, BuildingBlock: TATPOV_clean_sbu_0, # of connection points: 4
#     Node 10, Type 0, BuildingBlock: TATPOV_clean_sbu_0, # of connection points: 4
#     Node 11, Type 0, BuildingBlock: TATPOV_clean_sbu_0, # of connection points: 4
#     Node 12, Type 0, BuildingBlock: TATPOV_clean_sbu_0, # of connection points: 4
#     Node 13, Type 0, BuildingBlock: TATPOV_clean_sbu_0, # of connection points: 4
#     Node 14, Type 0, BuildingBlock: TATPOV_clean_sbu_0, # of connection points: 4
#     Node 15, Type 0, BuildingBlock: TATPOV_clean_sbu_0, # of connection points: 4
#     Node 16, Type 0, BuildingBlock: TATPOV_clean_sbu_0, # of connection points: 4
#     Node 17, Type 0, BuildingBlock: TATPOV_clean_sbu_0, # of connection points: 4
#     Node 18, Type 1, BuildingBlock: KUFVIS_clean_linker_0, # of connection points: 4
#     Node 19, Type 1, BuildingBlock: KUFVIS_clean_linker_0, # of connection points: 4
#     Node 20, Type 1, BuildingBlock: KUFVIS_clean_linker_0, # of connection points: 4
#     Node 21, Type 1, BuildingBlock: KUFVIS_clean_linker_0, # of connection points: 4
#     Node 22, Type 1, BuildingBlock: KUFVIS_clean_linker_0, # of connection points: 4
#     Node 23, Type 1, BuildingBlock: KUFVIS_clean_linker_0, # of connection points: 4
#     Node 24, Type 1, BuildingBlock: KUFVIS_clean_linker_0, # of connection points: 4
#     Node 25, Type 1, BuildingBlock: KUFVIS_clean_linker_0, # of connection points: 4
#     Node 26, Type 1, BuildingBlock: KUFVIS_clean_linker_0, # of connection points: 4
#     Node 27, Type 1, BuildingBlock: KUFVIS_clean_linker_0, # of connection points: 4
#     Node 28, Type 1, BuildingBlock: KUFVIS_clean_linker_0, # of connection points: 4
#     Node 29, Type 1, BuildingBlock: KUFVIS_clean_linker_0, # of connection points: 4
#     Node 30, Type 1, BuildingBlock: KUFVIS_clean_linker_0, # of connection points: 4
#     Node 31, Type 1, BuildingBlock: KUFVIS_clean_linker_0, # of connection points: 4
#     Node 32, Type 1, BuildingBlock: KUFVIS_clean_linker_0, # of connection points: 4
#     Node 33, Type 1, BuildingBlock: KUFVIS_clean_linker_0, # of connection points: 4
#     Node 34, Type 1, BuildingBlock: KUFVIS_clean_linker_0, # of connection points: 4
#     Node 35, Type 1, BuildingBlock: KUFVIS_clean_linker_0, # of connection points: 4
#     Edge 36, Type (0, 1), BuildingBlock: UVAHIK_clean_linker_0, # of connection points: 2
#     Edge 37, Type (0, 1), BuildingBlock: UVAHIK_clean_linker_0, # of connection points: 2
#     Edge 38, Type (0, 1), BuildingBlock: UVAHIK_clean_linker_0, # of connection points: 2
#     Edge 39, Type (0, 1), BuildingBlock: UVAHIK_clean_linker_0, # of connection points: 2
#     Edge 40, Type (0, 1), BuildingBlock: UVAHIK_clean_linker_0, # of connection points: 2
#     Edge 41, Type (0, 1), BuildingBlock: UVAHIK_clean_linker_0, # of connection points: 2
#     Edge 42, Type (0, 1), BuildingBlock: UVAHIK_clean_linker_0, # of connection points: 2
#     Edge 43, Type (0, 1), BuildingBlock: UVAHIK_clean_linker_0, # of connection points: 2
#     Edge 44, Type (0, 1), BuildingBlock: UVAHIK_clean_linker_0, # of connection points: 2
#     Edge 45, Type (0, 1), BuildingBlock: UVAHIK_clean_linker_0, # of connection points: 2
#     Edge 46, Type (0, 1), BuildingBlock: UVAHIK_clean_linker_0, # of connection points: 2
#     Edge 47, Type (0, 1), BuildingBlock: UVAHIK_clean_linker_0, # of connection points: 2
#     Edge 48, Type (0, 1), BuildingBlock: UVAHIK_clean_linker_0, # of connection points: 2
#     Edge 49, Type (0, 1), BuildingBlock: UVAHIK_clean_linker_0, # of connection points: 2
#     Edge 50, Type (0, 1), BuildingBlock: UVAHIK_clean_linker_0, # of connection points: 2
#     Edge 51, Type (0, 1), BuildingBlock: UVAHIK_clean_linker_0, # of connection points: 2
#     Edge 52, Type (0, 1), BuildingBlock: UVAHIK_clean_linker_0, # of connection points: 2
#     Edge 53, Type (0, 1), BuildingBlock: UVAHIK_clean_linker_0, # of connection points: 2
#     Edge 54, Type (0, 1), BuildingBlock: UVAHIK_clean_linker_0, # of connection points: 2
#     Edge 55, Type (0, 1), BuildingBlock: UVAHIK_clean_linker_0, # of connection points: 2
#     Edge 56, Type (0, 1), BuildingBlock: UVAHIK_clean_linker_0, # of connection points: 2
#     Edge 57, Type (0, 1), BuildingBlock: UVAHIK_clean_linker_0, # of connection points: 2
#     Edge 58, Type (0, 1), BuildingBlock: UVAHIK_clean_linker_0, # of connection points: 2
#     Edge 59, Type (0, 1), BuildingBlock: UVAHIK_clean_linker_0, # of connection points: 2
#     Edge 60, Type (0, 1), BuildingBlock: UVAHIK_clean_linker_0, # of connection points: 2
#     Edge 61, Type (0, 1), BuildingBlock: UVAHIK_clean_linker_0, # of connection points: 2
#     Edge 62, Type (0, 1), BuildingBlock: UVAHIK_clean_linker_0, # of connection points: 2
#     Edge 63, Type (0, 1), BuildingBlock: UVAHIK_clean_linker_0, # of connection points: 2
#     Edge 64, Type (0, 1), BuildingBlock: UVAHIK_clean_linker_0, # of connection points: 2
#     Edge 65, Type (0, 1), BuildingBlock: UVAHIK_clean_linker_0, # of connection points: 2
#     Edge 66, Type (0, 1), BuildingBlock: UVAHIK_clean_linker_0, # of connection points: 2
#     Edge 67, Type (0, 1), BuildingBlock: UVAHIK_clean_linker_0, # of connection points: 2
#     Edge 68, Type (0, 1), BuildingBlock: UVAHIK_clean_linker_0, # of connection points: 2
#     Edge 69, Type (0, 1), BuildingBlock: UVAHIK_clean_linker_0, # of connection points: 2
#     Edge 70, Type (0, 1), BuildingBlock: UVAHIK_clean_linker_0, # of connection points: 2
#     Edge 71, Type (0, 1), BuildingBlock: UVAHIK_clean_linker_0, # of connection points: 2
#     Edge 72, Type (0, 1), BuildingBlock: UVAHIK_clean_linker_0, # of connection points: 2
#     Edge 73, Type (0, 1), BuildingBlock: UVAHIK_clean_linker_0, # of connection points: 2
#     Edge 74, Type (0, 1), BuildingBlock: UVAHIK_clean_linker_0, # of connection points: 2
#     Edge 75, Type (0, 1), BuildingBlock: UVAHIK_clean_linker_0, # of connection points: 2
#     Edge 76, Type (0, 1), BuildingBlock: UVAHIK_clean_linker_0, # of connection points: 2
#     Edge 77, Type (0, 1), BuildingBlock: UVAHIK_clean_linker_0, # of connection points: 2
#     Edge 78, Type (0, 1), BuildingBlock: UVAHIK_clean_linker_0, # of connection points: 2
#     Edge 79, Type (0, 1), BuildingBlock: UVAHIK_clean_linker_0, # of connection points: 2
#     Edge 80, Type (0, 1), BuildingBlock: UVAHIK_clean_linker_0, # of connection points: 2
#     Edge 81, Type (0, 1), BuildingBlock: UVAHIK_clean_linker_0, # of connection points: 2
#     Edge 82, Type (0, 1), BuildingBlock: UVAHIK_clean_linker_0, # of connection points: 2
#     Edge 83, Type (0, 1), BuildingBlock: UVAHIK_clean_linker_0, # of connection points: 2
#     Edge 84, Type (0, 1), BuildingBlock: UVAHIK_clean_linker_0, # of connection points: 2
#     Edge 85, Type (0, 1), BuildingBlock: UVAHIK_clean_linker_0, # of connection points: 2
#     Edge 86, Type (0, 1), BuildingBlock: UVAHIK_clean_linker_0, # of connection points: 2
#     Edge 87, Type (0, 1), BuildingBlock: UVAHIK_clean_linker_0, # of connection points: 2
#     Edge 88, Type (0, 1), BuildingBlock: UVAHIK_clean_linker_0, # of connection points: 2
#     Edge 89, Type (0, 1), BuildingBlock: UVAHIK_clean_linker_0, # of connection points: 2
#     Edge 90, Type (0, 1), BuildingBlock: UVAHIK_clean_linker_0, # of connection points: 2
#     Edge 91, Type (0, 1), BuildingBlock: UVAHIK_clean_linker_0, # of connection points: 2
#     Edge 92, Type (0, 1), BuildingBlock: UVAHIK_clean_linker_0, # of connection points: 2
#     Edge 93, Type (0, 1), BuildingBlock: UVAHIK_clean_linker_0, # of connection points: 2
#     Edge 94, Type (0, 1), BuildingBlock: UVAHIK_clean_linker_0, # of connection points: 2
#     Edge 95, Type (0, 1), BuildingBlock: UVAHIK_clean_linker_0, # of connection points: 2
#     Edge 96, Type (0, 1), BuildingBlock: UVAHIK_clean_linker_0, # of connection points: 2
#     Edge 97, Type (0, 1), BuildingBlock: UVAHIK_clean_linker_0, # of connection points: 2
#     Edge 98, Type (0, 1), BuildingBlock: UVAHIK_clean_linker_0, # of connection points: 2
#     Edge 99, Type (0, 1), BuildingBlock: UVAHIK_clean_linker_0, # of connection points: 2
#     Edge 100, Type (0, 1), BuildingBlock: UVAHIK_clean_linker_0, # of connection points: 2
#     Edge 101, Type (0, 1), BuildingBlock: UVAHIK_clean_linker_0, # of connection points: 2
#     Edge 102, Type (0, 1), BuildingBlock: UVAHIK_clean_linker_0, # of connection points: 2
#     Edge 103, Type (0, 1), BuildingBlock: UVAHIK_clean_linker_0, # of connection points: 2
#     Edge 104, Type (0, 1), BuildingBlock: UVAHIK_clean_linker_0, # of connection points: 2
#     Edge 105, Type (0, 1), BuildingBlock: UVAHIK_clean_linker_0, # of connection points: 2
#     Edge 106, Type (0, 1), BuildingBlock: UVAHIK_clean_linker_0, # of connection points: 2
#     Edge 107, Type (0, 1), BuildingBlock: UVAHIK_clean_linker_0, # of connection points: 2
# Relax obj value: 0.070
# Max RMSD: 0.192
# Mean RMSD: 0.120
data_MOF--net-ptr--node1-TATPOV_clean_sbu_0--node2-KUFVIS_clean_linker_0--edge1-UVAHIK_clean_linker_0
_symmetry_space_group_name_H-M    P1
_symmetry_Int_Tables_number       1
_symmetry_cell_setting            triclinic
loop_
_symmetry_equiv_pos_as_xyz
'x, y, z'
_cell_length_a     101.23409
_cell_length_b     102.60893
_cell_length_c     60.864016
_cell_angle_alpha  89.584058
_cell_angle_beta   90.964232
_cell_angle_gamma 121.34614
loop_
_atom_site_label
_atom_site_type_symbol
_atom_site_fract_x
_atom_site_fract_y
_atom_site_fract_z
_atom_type_partial_charge
Zn0 Zn 0.97136 0.35781 0.02231 0.0
Zn1 Zn 0.99976 0.36294 0.01795 0.0
O2 O 0.98505 0.33924 0.01869 0.0
O3 O 0.96173 0.33512 0.02382 0.0
O4 O 0.02124 0.36584 0.01694 0.0
O5 O 0.97757 0.37071 0.04951 0.0
O6 O 1.00125 0.37549 0.04556 0.0
C7 C 0.97056 0.32998 0.02119 0.0
C8 C 0.98641 0.37433 0.98262 0.0
O9 O 0.9977 0.37321 0.98983 0.0
O10 O 0.97391 0.36833 0.99319 0.0
C11 C 0.02392 0.35636 0.00775 0.0
O12 O 0.01254 0.34443 0.99761 0.0
C13 C 0.99159 0.37758 0.05578 0.0
Zn14 Zn 0.63977 0.61816 0.99189 0.0
Zn15 Zn 0.64351 0.64417 0.00567 0.0
O16 O 0.66603 0.64834 0.00207 0.0
O17 O 0.66241 0.62612 0.99221 0.0
O18 O 0.64724 0.66501 0.01396 0.0
O19 O 0.62726 0.60802 0.01882 0.0
O20 O 0.63128 0.62987 0.03147 0.0
C21 C 0.67152 0.64 0.99713 0.0
C22 C 0.62495 0.62839 0.96306 0.0
O23 O 0.6294 0.63861 0.97789 0.0
O24 O 0.62886 0.61853 0.96426 0.0
C25 C 0.63615 0.66711 0.01768 0.0
O26 O 0.62189 0.65537 0.01683 0.0
C27 C 0.62534 0.61549 0.03358 0.0
Zn28 Zn 0.36345 0.97679 0.01983 0.0
Zn29 Zn 0.36748 0.00429 0.01505 0.0
O30 O 0.34349 0.98949 0.01713 0.0
O31 O 0.34049 0.96679 0.02114 0.0
O32 O 0.37002 0.02515 0.01036 0.0
O33 O 0.37341 0.97845 0.991 0.0
O34 O 0.37758 1.00165 0.98731 0.0
C35 C 0.33466 0.97506 0.01931 0.0
C36 C 0.38342 0.99767 0.05333 0.0
O37 O 0.38068 0.00695 0.04313 0.0
O38 O 0.37702 0.98395 0.04691 0.0
C39 C 0.36142 0.02915 0.01943 0.0
O40 O 0.35058 0.01958 0.03279 0.0
C41 C 0.37896 0.99074 0.98021 0.0
Zn42 Zn 0.03857 0.64393 0.0227 0.0
Zn43 Zn 0.01286 0.64413 0.0145 0.0
O44 O 0.03049 0.66708 0.01757 0.0
O45 O 0.05188 0.66666 0.02188 0.0
O46 O 0.99404 0.64583 0.00767 0.0
O47 O 0.03503 0.63168 0.99522 0.0
O48 O 0.01412 0.63248 0.98763 0.0
C49 C 0.0452 0.67415 0.01986 0.0
C50 C 0.01557 0.62791 0.0555 0.0
O51 O 0.00732 0.63083 0.04271 0.0
O52 O 0.02964 0.633 0.05124 0.0
C53 C 0.98737 0.64914 0.02227 0.0
O54 O 0.99245 0.65101 0.0427 0.0
C55 C 0.02354 0.62823 0.98273 0.0
Zn56 Zn 0.3652 0.38975 0.03076 0.0
Zn57 Zn 0.36426 0.36465 0.01806 0.0
O58 O 0.34099 0.35851 0.0198 0.0
O59 O 0.34225 0.37987 0.02873 0.0
O60 O 0.36329 0.34483 0.01046 0.0
O61 O 0.37811 0.40051 0.00436 0.0
O62 O 0.37636 0.37941 0.99261 0.0
C63 C 0.33427 0.36588 0.02371 0.0
C64 C 0.38102 0.38165 0.06121 0.0
O65 O 0.37771 0.37149 0.04661 0.0
O66 O 0.37594 0.39056 0.05927 0.0
C67 C 0.35229 0.33184 0.01669 0.0
O68 O 0.34097 0.33107 0.02798 0.0
C69 C 0.38125 0.39358 0.99019 0.0
Zn70 Zn 0.64535 0.0354 0.00625 0.0
Zn71 Zn 0.64563 0.0099 0.01162 0.0
O72 O 0.66891 0.02766 0.00992 0.0
O73 O 0.66825 0.04873 0.00846 0.0
O74 O 0.64636 0.9904 0.0152 0.0
O75 O 0.63248 0.03051 0.03318 0.0
O76 O 0.63368 0.00994 0.039 0.0
C77 C 0.67595 0.04222 0.00931 0.0
C78 C 0.62959 0.01451 0.97128 0.0
O79 O 0.63232 0.00589 0.98326 0.0
O80 O 0.63485 0.02823 0.97677 0.0
C81 C 0.65879 0.99022 0.01779 0.0
O82 O 0.6721 0.0032 0.01827 0.0
C83 C 0.62907 0.01887 0.04468 0.0
Zn84 Zn 0.64306 0.69798 0.33896 0.0
Zn85 Zn 0.67067 0.70106 0.34349 0.0
O86 O 0.65472 0.67755 0.34182 0.0
O87 O 0.63185 0.67517 0.34032 0.0
O88 O 0.69126 0.70223 0.34718 0.0
O89 O 0.64707 0.71041 0.36639 0.0
O90 O 0.6697 0.71246 0.37084 0.0
C91 C 0.63999 0.6691 0.34102 0.0
C92 C 0.66352 0.71519 0.30388 0.0
O93 O 0.6732 0.71346 0.31525 0.0
O94 O 0.6496 0.70894 0.30989 0.0
C95 C 0.69395 0.69301 0.33719 0.0
O96 O 0.6833 0.68278 0.32387 0.0
C97 C 0.65959 0.71544 0.37721 0.0
Zn98 Zn 0.31065 0.94921 0.34633 0.0
Zn99 Zn 0.31239 0.97499 0.35372 0.0
O100 O 0.33553 0.98043 0.35388 0.0
O101 O 0.33305 0.95784 0.35221 0.0
O102 O 0.31396 0.99527 0.35982 0.0
O103 O 0.29547 0.93894 0.37037 0.0
O104 O 0.29856 0.96114 0.3791 0.0
C105 C 0.34159 0.97216 0.354 0.0
C106 C 0.29839 0.95738 0.31046 0.0
O107 O 0.30067 0.96795 0.32372 0.0
O108 O 0.3028 0.94826 0.3156 0.0
C109 C 0.31595 0.00482 0.34482 0.0
O110 O 0.31733 1.00171 0.32439 0.0
C111 C 0.29238 0.94686 0.38268 0.0
Zn112 Zn 0.03536 0.31286 0.35064 0.0
Zn113 Zn 0.03559 0.33846 0.34732 0.0
O114 O 0.01246 0.32127 0.35252 0.0
O115 O 0.0126 0.29989 0.35416 0.0
O116 O 0.03386 0.35733 0.34429 0.0
O117 O 0.04393 0.31538 0.32075 0.0
O118 O 0.04508 0.33733 0.31761 0.0
C119 C 0.00525 0.30675 0.35443 0.0
C120 C 0.05561 0.33499 0.38265 0.0
O121 O 0.05103 0.34322 0.37347 0.0
O122 O 0.05017 0.32139 0.37625 0.0
C123 C 0.04522 0.3707 0.34051 0.0
O124 O 0.0591 0.37277 0.3386 0.0
C125 C 0.04747 0.32723 0.30976 0.0
Zn126 Zn 0.69818 0.97399 0.36085 0.0
Zn127 Zn 0.67151 0.97304 0.35464 0.0
O128 O 0.68869 0.99615 0.35644 0.0
O129 O 0.71073 0.99688 0.35961 0.0
O130 O 0.65184 0.97361 0.35021 0.0
O131 O 0.69361 0.96137 0.33332 0.0
O132 O 0.67203 0.96127 0.3275 0.0
C133 C 0.70344 0.0038 0.35802 0.0
C134 C 0.67642 0.95769 0.39501 0.0
O135 O 0.66759 0.96024 0.38292 0.0
O136 O 0.69041 0.96312 0.38984 0.0
C137 C 0.65013 0.98366 0.35969 0.0
O138 O 0.66116 0.99354 0.37291 0.0
C139 C 0.68153 0.95731 0.32181 0.0
Zn140 Zn 0.02815 0.72608 0.35243 0.0
Zn141 Zn 0.03014 0.70224 0.3417 0.0
O142 O 0.00617 0.69355 0.34344 0.0
O143 O 0.00523 0.71402 0.35101 0.0
O144 O 0.03168 0.68373 0.33428 0.0
O145 O 0.03927 0.73693 0.32512 0.0
O146 O 0.04103 0.71717 0.31572 0.0
C147 C 0.99837 0.69992 0.34672 0.0
C148 C 0.04582 0.72082 0.38407 0.0
O149 O 0.04324 0.7103 0.3705 0.0
O150 O 0.03994 0.72894 0.38068 0.0
C151 C 0.02308 0.6708 0.34325 0.0
O152 O 0.01273 0.66928 0.35745 0.0
C153 C 0.04362 0.73054 0.3118 0.0
Zn154 Zn 0.31268 0.36554 0.33667 0.0
Zn155 Zn 0.31259 0.33998 0.3413 0.0
O156 O 0.33583 0.35778 0.3409 0.0
O157 O 0.33555 0.37904 0.3395 0.0
O158 O 0.31487 0.32149 0.34466 0.0
O159 O 0.29919 0.36009 0.36309 0.0
O160 O 0.29975 0.33912 0.36809 0.0
C161 C 0.34307 0.37236 0.34055 0.0
C162 C 0.29746 0.34517 0.30068 0.0
O163 O 0.29982 0.33619 0.31242 0.0
O164 O 0.30272 0.35878 0.30681 0.0
C165 C 0.30372 0.30777 0.34664 0.0
O166 O 0.28947 0.30493 0.34643 0.0
C167 C 0.29516 0.34803 0.37391 0.0
Zn168 Zn 0.3058 0.02715 0.67024 0.0
Zn169 Zn 0.3335 0.0314 0.67817 0.0
O170 O 0.31846 0.00764 0.67603 0.0
O171 O 0.29536 0.00445 0.67143 0.0
O172 O 0.35455 0.03373 0.6837 0.0
O173 O 0.30763 0.03885 0.69758 0.0
O174 O 0.33042 0.04188 0.70511 0.0
C175 C 0.30381 0.99882 0.67384 0.0
C176 C 0.32728 0.04538 0.63716 0.0
O177 O 0.33669 0.04403 0.64979 0.0
O178 O 0.31303 0.03845 0.64162 0.0
C179 C 0.35827 0.02515 0.67403 0.0
O180 O 0.34836 0.01478 0.66016 0.0
C181 C 0.31948 0.04405 0.70999 0.0
Zn182 Zn 0.97189 0.28199 0.65466 0.0
Zn183 Zn 0.97619 0.30824 0.66875 0.0
O184 O 0.99842 0.31191 0.66454 0.0
O185 O 0.99447 0.28963 0.65435 0.0
O186 O 0.98083 0.32936 0.67745 0.0
O187 O 0.95965 0.27204 0.68188 0.0
O188 O 0.96407 0.294 0.6947 0.0
C189 C 1.00372 0.30348 0.65925 0.0
C190 C 0.95724 0.29275 0.62628 0.0
O191 O 0.96197 0.30302 0.64111 0.0
O192 O 0.96082 0.28265 0.62739 0.0
C193 C 0.97082 0.33331 0.6761 0.0
O194 O 0.95667 0.32322 0.66955 0.0
C195 C 0.95802 0.2796 0.69681 0.0
Zn196 Zn 0.70217 0.64507 0.68514 0.0
Zn197 Zn 0.70362 0.67174 0.68362 0.0
O198 O 0.68021 0.65519 0.68818 0.0
O199 O 0.67938 0.6333 0.68927 0.0
O200 O 0.70383 0.69171 0.68072 0.0
O201 O 0.70996 0.64765 0.65461 0.0
O202 O 0.71306 0.67057 0.654 0.0
C203 C 0.67253 0.64066 0.68983 0.0
C204 C 0.72285 0.66653 0.71812 0.0
O205 O 0.71841 0.67515 0.70994 0.0
O206 O 0.71743 0.6532 0.71053 0.0
C207 C 0.69377 0.69392 0.68934 0.0
O208 O 0.68288 0.68307 0.70134 0.0
C209 C 0.71438 0.66015 0.64486 0.0
Zn210 Zn 0.37051 0.31376 0.68155 0.0
Zn211 Zn 0.34304 0.31145 0.67809 0.0
O212 O 0.35966 0.33476 0.67913 0.0
O213 O 0.38228 0.3366 0.67958 0.0
O214 O 0.32285 0.31125 0.67509 0.0
O215 O 0.36528 0.30069 0.65445 0.0
O216 O 0.34294 0.29937 0.6509 0.0
C217 C 0.37441 0.34295 0.67933 0.0
C218 C 0.35053 0.2975 0.71758 0.0
O219 O 0.34078 0.29928 0.70647 0.0
O220 O 0.36431 0.30338 0.7111 0.0
C221 C 0.32109 0.32126 0.68457 0.0
O222 O 0.33235 0.33154 0.69711 0.0
C223 C 0.35256 0.29582 0.64423 0.0
Zn224 Zn 0.69928 0.05696 0.7003 0.0
Zn225 Zn 0.69845 0.03242 0.68549 0.0
O226 O 0.67501 0.02563 0.68794 0.0
O227 O 0.6763 0.04674 0.6985 0.0
O228 O 0.69817 0.01331 0.67597 0.0
O229 O 0.71193 0.06869 0.6742 0.0
O230 O 0.71009 0.04795 0.66066 0.0
C231 C 0.6683 0.03288 0.69276 0.0
C232 C 0.71537 0.04829 0.72917 0.0
O233 O 0.71203 0.03857 0.71388 0.0
O234 O 0.71021 0.05718 0.72827 0.0
C235 C 0.68939 1.0004 0.68491 0.0
O236 O 0.67984 0.99929 0.70019 0.0
C237 C 0.71489 0.06215 0.65916 0.0
Zn238 Zn 0.97768 0.69623 0.67714 0.0
Zn239 Zn 0.9755 0.66942 0.68081 0.0
O240 O 0.99932 0.68549 0.6806 0.0
O241 O 1.00067 0.70759 0.68039 0.0
O242 O 0.9739 0.64889 0.68395 0.0
O243 O 0.96419 0.69148 0.70347 0.0
O244 O 0.96348 0.66981 0.70773 0.0
C245 C 0.00737 0.70007 0.68089 0.0
C246 C 0.96172 0.67684 0.64059 0.0
O247 O 0.96333 0.66726 0.65199 0.0
O248 O 0.96771 0.69048 0.64711 0.0
C249 C 0.98371 0.64589 0.67652 0.0
O250 O 0.99576 0.65653 0.66593 0.0
C251 C 0.95961 0.6792 0.71397 0.0
H252 H 0.20479 0.32067 0.10951 0.0
H253 H 0.17441 0.33023 0.07317 0.0
H254 H 0.17643 0.33259 0.14449 0.0
H255 H 0.15419 0.32968 0.14304 0.0
H256 H 0.13181 0.35021 0.11099 0.0
H257 H 0.16318 0.34313 0.07438 0.0
C258 C 0.19562 0.32317 0.10946 0.0
C259 C 0.19056 0.3256 0.12936 0.0
C260 C 0.19003 0.32512 0.08937 0.0
C261 C 0.17867 0.32911 0.08901 0.0
C262 C 0.17308 0.33157 0.10886 0.0
C263 C 0.17957 0.33007 0.12894 0.0
C264 C 0.16106 0.33617 0.10891 0.0
C265 C 0.15291 0.33492 0.12837 0.0
C266 C 0.14292 0.34054 0.12937 0.0
C267 C 0.14005 0.34647 0.11047 0.0
C268 C 0.14695 0.3469 0.09062 0.0
C269 C 0.15762 0.34204 0.08983 0.0
H270 H 0.65755 0.8774 0.12017 0.0
H271 H 0.6675 0.84883 0.0816 0.0
H272 H 0.66271 0.84303 0.15223 0.0
H273 H 0.68041 0.83676 0.14809 0.0
H274 H 0.67582 0.79748 0.11628 0.0
H275 H 0.65875 0.82298 0.08359 0.0
C276 C 0.65945 0.86793 0.11927 0.0
C277 C 0.66009 0.86082 0.13857 0.0
C278 C 0.6619 0.86353 0.09881 0.0
C279 C 0.66514 0.85178 0.09749 0.0
C280 C 0.66561 0.84417 0.11675 0.0
C281 C 0.66286 0.8488 0.1372 0.0
C282 C 0.66914 0.83164 0.11591 0.0
C283 C 0.6765 0.82915 0.13407 0.0
C284 C 0.67875 0.81675 0.13457 0.0
C285 C 0.67454 0.80734 0.11604 0.0
C286 C 0.6677 0.80974 0.09757 0.0
C287 C 0.66472 0.8217 0.09759 0.0
H288 H 0.20896 0.90083 0.11329 0.0
H289 H 0.16869 0.86652 0.07861 0.0
H290 H 0.17464 0.86222 0.14862 0.0
H291 H 0.14952 0.84948 0.14887 0.0
H292 H 0.11426 0.80906 0.11712 0.0
H293 H 0.15391 0.84105 0.08038 0.0
C294 C 0.19786 0.89017 0.11342 0.0
C295 C 0.1924 0.88227 0.1331 0.0
C296 C 0.18946 0.88444 0.09382 0.0
C297 C 0.17514 0.8706 0.09392 0.0
C298 C 0.16921 0.86236 0.11376 0.0
C299 C 0.17823 0.86839 0.13327 0.0
C300 C 0.15379 0.84762 0.11432 0.0
C301 C 0.14533 0.84268 0.13405 0.0
C302 C 0.13125 0.82877 0.13503 0.0
C303 C 0.12501 0.81999 0.11607 0.0
C304 C 0.13301 0.82445 0.09627 0.0
C305 C 0.14753 0.83811 0.09551 0.0
H306 H 0.3449 0.12856 0.90743 0.0
H307 H 0.35324 0.16838 0.94176 0.0
H308 H 0.32977 0.15656 0.87805 0.0
H309 H 0.33809 0.18033 0.87472 0.0
H310 H 0.33701 0.21521 0.911 0.0
H311 H 0.34322 0.18251 0.94591 0.0
C312 C 0.34377 0.13851 0.90813 0.0
C313 C 0.33704 0.14182 0.89047 0.0
C314 C 0.34926 0.14787 0.92667 0.0
C315 C 0.34837 0.16108 0.9275 0.0
C316 C 0.34156 0.16483 0.90984 0.0
C317 C 0.3357 0.15475 0.89152 0.0
C318 C 0.3405 0.17902 0.91029 0.0
C319 C 0.33833 0.18519 0.89051 0.0
C320 C 0.33642 0.19782 0.89074 0.0
C321 C 0.33769 0.20499 0.91072 0.0
C322 C 0.34047 0.1997 0.93036 0.0
C323 C 0.34161 0.18662 0.9303 0.0
H324 H 0.81077 0.1097 0.9073 0.0
H325 H 0.83996 0.15269 0.93925 0.0
H326 H 0.84908 0.14545 0.8726 0.0
H327 H 0.85649 0.17044 0.87045 0.0
H328 H 0.89497 0.20908 0.902 0.0
H329 H 0.86652 0.16869 0.93952 0.0
C330 C 0.82108 0.12101 0.90721 0.0
C331 C 0.82956 0.12646 0.88789 0.0
C332 C 0.82486 0.13027 0.92585 0.0
C333 C 0.83746 0.14539 0.92509 0.0
C334 C 0.84648 0.15114 0.90597 0.0
C335 C 0.84238 0.14144 0.88745 0.0
C336 C 0.85983 0.1673 0.90503 0.0
C337 C 0.86356 0.17554 0.88506 0.0
C338 C 0.87617 0.19061 0.88389 0.0
C339 C 0.88511 0.19749 0.9028 0.0
C340 C 0.88158 0.18971 0.92281 0.0
C341 C 0.86895 0.17466 0.92399 0.0
H342 H 0.80855 0.69088 0.91172 0.0
H343 H 0.83139 0.67179 0.94737 0.0
H344 H 0.84366 0.68686 0.88012 0.0
H345 H 0.84681 0.66721 0.8791 0.0
H346 H 0.88032 0.66016 0.91171 0.0
H347 H 0.85696 0.6775 0.94848 0.0
C348 C 0.81755 0.68813 0.91252 0.0
C349 C 0.82573 0.68934 0.89359 0.0
C350 C 0.81973 0.68209 0.932 0.0
C351 C 0.83037 0.67716 0.9326 0.0
C352 C 0.83926 0.67878 0.91392 0.0
C353 C 0.83695 0.68521 0.89465 0.0
C354 C 0.85031 0.67312 0.91385 0.0
C355 C 0.85308 0.66787 0.89403 0.0
C356 C 0.86403 0.66343 0.89304 0.0
C357 C 0.87162 0.6633 0.91234 0.0
C358 C 0.86893 0.66809 0.93232 0.0
C359 C 0.85847 0.67323 0.9331 0.0
H360 H 0.87137 0.65135 0.44552 0.0
H361 H 0.83748 0.65577 0.40888 0.0
H362 H 0.84032 0.65994 0.47992 0.0
H363 H 0.81631 0.65279 0.47792 0.0
H364 H 0.78962 0.66861 0.4455 0.0
H365 H 0.82652 0.66951 0.41077 0.0
C366 C 0.86139 0.65263 0.44527 0.0
C367 C 0.85591 0.65465 0.46508 0.0
C368 C 0.85496 0.65322 0.42505 0.0
C369 C 0.84253 0.65572 0.42464 0.0
C370 C 0.83674 0.65796 0.44441 0.0
C371 C 0.84389 0.65769 0.46451 0.0
C372 C 0.82344 0.6607 0.4443 0.0
C373 C 0.81438 0.65768 0.46333 0.0
C374 C 0.80244 0.66075 0.46382 0.0
C375 C 0.7989 0.66625 0.44506 0.0
C376 C 0.80741 0.66917 0.42594 0.0
C377 C 0.81975 0.66659 0.42553 0.0
H378 H 0.32127 0.20667 0.45146 0.0
H379 H 0.33239 0.17868 0.41369 0.0
H380 H 0.32899 0.17434 0.48467 0.0
H381 H 0.34606 0.1677 0.48127 0.0
H382 H 0.34363 0.12939 0.44971 0.0
H383 H 0.32589 0.15388 0.41589 0.0
C384 C 0.32369 0.19755 0.45085 0.0
C385 C 0.32522 0.1912 0.47037 0.0
C386 C 0.32601 0.19291 0.43049 0.0
C387 C 0.33007 0.18172 0.42954 0.0
C388 C 0.33129 0.17473 0.44906 0.0
C389 C 0.32861 0.17958 0.46938 0.0
C390 C 0.33543 0.16258 0.44859 0.0
C391 C 0.34262 0.16024 0.46714 0.0
C392 C 0.34534 0.14813 0.46793 0.0
C393 C 0.34195 0.139 0.44926 0.0
C394 C 0.33537 0.14129 0.43038 0.0
C395 C 0.33174 0.1528 0.43019 0.0
H396 H 0.86603 0.23324 0.44877 0.0
H397 H 0.8404 0.18856 0.42053 0.0
H398 H 0.82671 0.19792 0.48264 0.0
H399 H 0.82071 0.17354 0.48844 0.0
H400 H 0.78511 0.13241 0.45765 0.0
H401 H 0.81356 0.17157 0.41787 0.0
C402 C 0.85604 0.22172 0.44926 0.0
C403 C 0.84662 0.21676 0.46775 0.0
C404 C 0.85375 0.21167 0.43223 0.0
C405 C 0.84161 0.19639 0.43335 0.0
C406 C 0.83151 0.19118 0.4514 0.0
C407 C 0.83417 0.20158 0.46852 0.0
C408 C 0.81873 0.1748 0.45297 0.0
C409 C 0.81448 0.16751 0.47366 0.0
C410 C 0.80242 0.15222 0.47545 0.0
C411 C 0.79461 0.14415 0.45642 0.0
C412 C 0.79867 0.15101 0.43576 0.0
C413 C 0.81071 0.16631 0.43396 0.0
H414 H 0.03123 0.47518 0.23711 0.0
H415 H 0.02013 0.50255 0.27654 0.0
H416 H 0.02091 0.50624 0.20545 0.0
H417 H 1.00312 0.51205 0.21105 0.0
H418 H 0.0062 0.55047 0.24339 0.0
H419 H 0.02736 0.52792 0.27369 0.0
C420 C 0.0285 0.48408 0.23823 0.0
C421 C 0.02605 0.49009 0.21902 0.0
C422 C 0.02653 0.48861 0.2589 0.0
C423 C 0.02211 0.49951 0.26046 0.0
C424 C 0.02008 0.50623 0.24122 0.0
C425 C 0.02217 0.50133 0.22055 0.0
C426 C 0.01566 0.51814 0.2424 0.0
C427 C 0.00717 0.51978 0.22493 0.0
C428 C 1.00382 0.53147 0.22506 0.0
C429 C 0.00835 0.54115 0.24329 0.0
C430 C 0.01657 0.53976 0.26087 0.0
C431 C 0.02041 0.52842 0.26038 0.0
H432 H 0.47702 0.44371 0.24189 0.0
H433 H 0.5052 0.48694 0.27348 0.0
H434 H 0.51347 0.48056 0.2059 0.0
H435 H 0.52042 0.50516 0.20403 0.0
H436 H 0.55815 0.54466 0.2351 0.0
H437 H 0.53134 0.50407 0.27295 0.0
C438 C 0.48693 0.45527 0.24139 0.0
C439 C 0.49476 0.46109 0.22165 0.0
C440 C 0.4908 0.46443 0.26012 0.0
C441 C 0.50278 0.4798 0.25916 0.0
C442 C 0.51131 0.48591 0.23969 0.0
C443 C 0.50715 0.4763 0.22102 0.0
C444 C 0.52419 0.50231 0.23859 0.0
C445 C 0.52748 0.51047 0.21857 0.0
C446 C 0.53969 0.52573 0.21723 0.0
C447 C 0.54858 0.53293 0.23604 0.0
C448 C 0.54549 0.52524 0.25606 0.0
C449 C 0.53335 0.50996 0.2574 0.0
H450 H 0.4712 0.02087 0.24488 0.0
H451 H 0.49552 0.00292 0.27932 0.0
H452 H 0.50598 0.01755 0.2115 0.0
H453 H 0.51242 1.00092 0.20911 0.0
H454 H 0.54354 0.9907 0.24174 0.0
H455 H 0.51843 0.0052 0.28005 0.0
C456 C 0.48037 0.01836 0.24532 0.0
C457 C 0.48815 0.01954 0.22601 0.0
C458 C 0.48327 0.01279 0.26474 0.0
C459 C 0.49404 0.00799 0.26458 0.0
C460 C 0.50248 0.00945 0.2454 0.0
C461 C 0.49958 0.0157 0.22639 0.0
C462 C 0.51373 0.00394 0.24473 0.0
C463 C 0.51772 1.00037 0.22435 0.0
C464 C 0.52869 0.99597 0.22313 0.0
C465 C 0.53489 0.9939 0.24254 0.0
C466 C 0.53089 0.9968 0.26303 0.0
C467 C 0.52072 1.00227 0.26412 0.0
H468 H 0.53926 0.9887 0.77769 0.0
H469 H 0.50862 0.99854 0.74252 0.0
H470 H 0.51083 0.99992 0.81389 0.0
H471 H 0.48815 0.99602 0.81273 0.0
H472 H 0.46491 0.01634 0.7827 0.0
H473 H 0.49728 0.01145 0.74489 0.0
C474 C 0.53008 0.9912 0.77797 0.0
C475 C 0.52499 0.99325 0.79808 0.0
C476 C 0.52443 0.99339 0.75809 0.0
C477 C 0.51298 0.99726 0.75819 0.0
C478 C 0.50736 0.99932 0.7783 0.0
C479 C 0.51397 0.99766 0.79814 0.0
C480 C 0.49505 0.00353 0.77891 0.0
C481 C 0.48673 1.00151 0.79847 0.0
C482 C 0.47641 0.00669 0.80012 0.0
C483 C 0.47338 0.01292 0.7817 0.0
C484 C 0.48053 0.01419 0.76174 0.0
C485 C 0.49151 0.00975 0.76034 0.0
H486 H 0.98807 0.53939 0.7837 0.0
H487 H 0.98629 0.50262 0.7484 0.0
H488 H 1.00224 0.51166 0.81645 0.0
H489 H 0.99373 0.48772 0.81837 0.0
H490 H 1.00259 0.45674 0.78496 0.0
H491 H 0.99757 0.48933 0.74727 0.0
C492 C 0.98966 0.52972 0.78351 0.0
C493 C 0.99479 0.52591 0.80252 0.0
C494 C 0.98702 0.52161 0.76399 0.0
C495 C 0.98901 0.50903 0.76352 0.0
C496 C 0.99419 0.5048 0.78259 0.0
C497 C 0.99756 0.51386 0.80179 0.0
C498 C 0.99606 0.49109 0.78283 0.0
C499 C 0.99605 0.48408 0.80304 0.0
C500 C 0.99898 0.47216 0.80388 0.0
C501 C 1.00101 0.46643 0.78438 0.0
C502 C 0.99999 0.47226 0.76404 0.0
C503 C 0.99777 0.48471 0.7632 0.0
H504 H 0.53328 0.56787 0.78635 0.0
H505 H 0.50805 0.52371 0.75642 0.0
H506 H 0.49427 0.53154 0.81954 0.0
H507 H 0.4884 0.50681 0.8237 0.0
H508 H 0.4528 0.46666 0.79081 0.0
H509 H 0.48104 0.50719 0.75345 0.0
C510 C 0.5234 0.55627 0.78651 0.0
C511 C 0.514 0.55086 0.80501 0.0
C512 C 0.52124 0.54659 0.76903 0.0
C513 C 0.50922 0.53125 0.76967 0.0
C514 C 0.49912 0.5256 0.78771 0.0
C515 C 0.5017 0.53559 0.80538 0.0
C516 C 0.48633 0.50921 0.78851 0.0
C517 C 0.48214 0.50124 0.8087 0.0
C518 C 0.47014 0.48587 0.8096 0.0
C519 C 0.46224 0.47846 0.79024 0.0
C520 C 0.46619 0.48605 0.77008 0.0
C521 C 0.47824 0.50138 0.76914 0.0
H522 H 0.69072 0.80234 0.57238 0.0
H523 H 0.68127 0.8303 0.61328 0.0
H524 H 0.68087 0.83417 0.54229 0.0
H525 H 0.66345 0.84029 0.54891 0.0
H526 H 0.66788 0.879 0.58222 0.0
H527 H 0.68864 0.85561 0.61096 0.0
C528 C 0.68831 0.81143 0.57394 0.0
C529 C 0.6857 0.81761 0.55503 0.0
C530 C 0.68698 0.8161 0.5949 0.0
C531 C 0.6828 0.82716 0.597 0.0
C532 C 0.68054 0.83399 0.57808 0.0
C533 C 0.68218 0.82907 0.55715 0.0
C534 C 0.67643 0.84609 0.57987 0.0
C535 C 0.66782 0.84798 0.56284 0.0
C536 C 0.66483 0.85989 0.56342 0.0
C537 C 0.66975 0.86951 0.58176 0.0
C538 C 0.67804 0.86784 0.59897 0.0
C539 C 0.68159 0.8563 0.59796 0.0
H540 H 0.13878 0.77442 0.57537 0.0
H541 H 0.16812 0.81478 0.61289 0.0
H542 H 0.17592 0.8133 0.54349 0.0
H543 H 0.18204 0.83743 0.54541 0.0
H544 H 0.22003 0.87542 0.57853 0.0
H545 H 0.19415 0.83287 0.61251 0.0
C546 C 0.14896 0.78581 0.57619 0.0
C547 C 0.15673 0.79303 0.55689 0.0
C548 C 0.15327 0.79342 0.59643 0.0
C549 C 0.16545 0.80875 0.59739 0.0
C550 C 0.1738 0.81626 0.5783 0.0
C551 C 0.1695 0.80803 0.55826 0.0
C552 C 0.18647 0.83279 0.57881 0.0
C553 C 0.18932 0.842 0.55996 0.0
C554 C 0.20142 0.85732 0.5597 0.0
C555 C 0.21052 0.86364 0.57863 0.0
C556 C 0.20779 0.85496 0.59766 0.0
C557 C 0.19585 0.83953 0.59781 0.0
H558 H 0.14197 0.35806 0.57194 0.0
H559 H 0.163 0.33626 0.60503 0.0
H560 H 0.1772 0.35464 0.53954 0.0
H561 H 0.18024 0.33508 0.53625 0.0
H562 H 0.21094 0.32395 0.56838 0.0
H563 H 0.18775 0.34072 0.60675 0.0
C564 C 0.15076 0.35502 0.57232 0.0
C565 C 0.15928 0.35695 0.55347 0.0
C566 C 0.15226 0.34786 0.59104 0.0
C567 C 0.16256 0.34251 0.59092 0.0
C568 C 0.17183 0.34487 0.5724 0.0
C569 C 0.17021 0.35243 0.55393 0.0
C570 C 0.18251 0.33878 0.57165 0.0
C571 C 0.18575 0.33451 0.5513 0.0
C572 C 0.19612 0.32936 0.54998 0.0
C573 C 0.20266 0.32761 0.56932 0.0
C574 C 0.19945 0.33136 0.5898 0.0
C575 C 0.18966 0.33727 0.59093 0.0
C576 C 0.9864 0.39309 0.08177 0.0
C577 C 0.99685 0.38934 0.07327 0.0
C578 C 0.99149 0.40544 0.09601 0.0
C579 C 0.02156 0.43004 0.13546 0.0
H580 H 0.00784 0.45822 0.12218 0.0
C581 C 0.03811 0.48079 0.19265 0.0
C582 C 0.02608 0.48325 0.19765 0.0
C583 C 0.03661 0.47144 0.17502 0.0
C584 C 0.01169 0.45043 0.12625 0.0
H585 H 0.02079 0.3953 0.07395 0.0
H586 H 0.02964 0.41679 0.09943 0.0
H587 H 1.00091 0.43698 0.09738 0.0
H588 H 1.00339 0.4785 0.18755 0.0
H589 H 1.00058 0.46198 0.15704 0.0
H590 H 0.03176 0.44299 0.1648 0.0
C591 C 0.01751 0.41017 0.09473 0.0
C592 C 0.00775 0.43828 0.11199 0.0
C593 C 0.01244 0.39787 0.08019 0.0
C594 C 0.01292 0.47695 0.18388 0.0
C595 C 0.01134 0.46745 0.16639 0.0
C596 C 0.02536 0.44209 0.14988 0.0
C597 C 0.00713 0.41428 0.10235 0.0
C598 C 0.01243 0.42782 0.11663 0.0
C599 C 0.02296 0.46418 0.16215 0.0
C600 C 0.02027 0.45232 0.14565 0.0
H601 H 0.9743 0.38679 0.0769 0.0
H602 H 0.98318 0.40817 0.10196 0.0
H603 H 0.02524 0.42209 0.13949 0.0
H604 H 0.04842 0.48561 0.20297 0.0
H605 H 0.04597 0.46951 0.17193 0.0
C606 C 0.60934 0.59129 0.05443 0.0
C607 C 0.61556 0.60711 0.05262 0.0
C608 C 0.59944 0.58298 0.07148 0.0
C609 C 0.58814 0.58654 0.12703 0.0
H610 H 0.55271 0.54627 0.11441 0.0
C611 C 0.54737 0.54943 0.19564 0.0
C612 C 0.54385 0.53425 0.19618 0.0
C613 C 0.55395 0.55845 0.17705 0.0
C614 C 0.56258 0.55746 0.11822 0.0
H615 H 0.61636 0.62662 0.0676 0.0
H616 H 0.59899 0.61201 0.09763 0.0
H617 H 0.56884 0.56221 0.08442 0.0
H618 H 0.54363 0.51634 0.17728 0.0
H619 H 0.55519 0.5321 0.14474 0.0
H620 H 0.58212 0.58168 0.16086 0.0
C621 C 0.60187 0.6061 0.08575 0.0
C622 C 0.57183 0.5666 0.10105 0.0
C623 C 0.6118 0.61447 0.06856 0.0
C624 C 0.54613 0.52797 0.17725 0.0
C625 C 0.55277 0.53702 0.15863 0.0
C626 C 0.5789 0.5774 0.14421 0.0
C627 C 0.59547 0.59023 0.08725 0.0
C628 C 0.58488 0.58114 0.1053 0.0
C629 C 0.55719 0.5525 0.15858 0.0
C630 C 0.56614 0.56266 0.14005 0.0
H631 H 0.61202 0.58522 0.04255 0.0
H632 H 0.595 0.57085 0.07241 0.0
H633 H 0.59819 0.59761 0.13088 0.0
H634 H 0.54552 0.55449 0.20992 0.0
H635 H 0.55688 0.57021 0.17737 0.0
C636 C 0.40068 0.99346 0.07824 0.0
C637 C 0.39525 0.00297 0.07124 0.0
C638 C 0.41282 0.99862 0.09346 0.0
C639 C 0.43227 0.02387 0.13912 0.0
H640 H 0.46605 0.0181 0.12448 0.0
C641 C 0.47898 0.03423 0.20388 0.0
C642 C 0.4827 0.0228 0.20502 0.0
C643 C 0.47093 0.03521 0.18565 0.0
C644 C 0.4567 0.01973 0.12892 0.0
H645 H 0.39808 0.02527 0.07539 0.0
H646 H 0.41917 0.03414 0.10284 0.0
H647 H 0.44614 0.01298 0.09694 0.0
H648 H 0.48151 0.00392 0.18749 0.0
H649 H 0.46737 0.00544 0.15596 0.0
H650 H 0.44221 0.02972 0.17148 0.0
C651 C 0.41404 0.02275 0.09609 0.0
C652 C 0.44535 0.01688 0.11309 0.0
C653 C 0.40198 0.01766 0.08045 0.0
C654 C 0.47901 0.01298 0.18698 0.0
C655 C 0.47086 0.01388 0.16886 0.0
C656 C 0.44353 0.02653 0.15511 0.0
C657 C 0.41974 0.01334 0.10237 0.0
C658 C 0.43283 0.01856 0.1182 0.0
C659 C 0.4663 0.02472 0.16821 0.0
C660 C 0.45568 0.0241 0.15038 0.0
H661 H 0.39583 0.98209 0.07154 0.0
H662 H 0.41683 0.99105 0.09829 0.0
H663 H 0.42268 0.02516 0.14349 0.0
H664 H 0.4818 0.04205 0.21748 0.0
H665 H 0.46793 0.04392 0.18553 0.0
C666 C 0.38869 0.9801 0.95234 0.0
C667 C 0.38803 0.99257 0.96032 0.0
C668 C 0.39845 0.98194 0.93516 0.0
C669 C 0.4207 0.00714 0.8894 0.0
H670 H 0.44442 0.98736 0.89572 0.0
C671 C 0.46815 0.0184 0.82839 0.0
C672 C 0.46847 0.00565 0.82089 0.0
C673 C 0.45913 0.01717 0.84627 0.0
C674 C 0.43778 0.99283 0.8936 0.0
H675 H 0.39675 0.0167 0.95592 0.0
H676 H 0.41389 0.01992 0.92577 0.0
H677 H 0.42662 0.98453 0.92447 0.0
H678 H 0.4601 0.98177 0.82666 0.0
H679 H 0.44418 0.97952 0.85799 0.0
H680 H 0.43175 0.01535 0.85847 0.0
C681 C 0.40677 0.00869 0.93286 0.0
C682 C 0.42757 0.99122 0.91007 0.0
C683 C 0.39696 0.00685 0.95013 0.0
C684 C 0.46013 0.99178 0.83223 0.0
C685 C 0.45102 0.99052 0.85014 0.0
C686 C 0.43088 0.00874 0.87292 0.0
C687 C 0.40782 0.9963 0.92548 0.0
C688 C 0.41886 0.9983 0.90811 0.0
C689 C 0.45016 0.00313 0.85704 0.0
C690 C 0.43953 1.00159 0.87481 0.0
H691 H 0.38187 0.96889 0.95965 0.0
H692 H 0.39873 0.97209 0.92954 0.0
H693 H 0.41402 0.01258 0.88728 0.0
H694 H 0.47465 0.02929 0.8201 0.0
H695 H 0.45903 0.02719 0.85148 0.0
C696 C 0.97573 0.38548 0.95633 0.0
C697 C 0.98805 0.38365 0.96295 0.0
C698 C 0.97746 0.39534 0.93924 0.0
C699 C 0.0073 0.42874 0.90856 0.0
H700 H 0.97272 0.41882 0.86931 0.0
C701 C 0.01154 0.4626 0.82964 0.0
C702 C 0.99928 0.46492 0.82489 0.0
C703 C 0.01086 0.45375 0.84761 0.0
C704 C 0.98241 0.42183 0.88033 0.0
H705 H 0.01177 0.39049 0.95624 0.0
H706 H 0.0147 0.40751 0.92587 0.0
H707 H 0.97024 0.40037 0.89681 0.0
H708 H 0.97697 0.46032 0.8356 0.0
H709 H 0.97572 0.44475 0.86715 0.0
H710 H 0.01954 0.45013 0.89158 0.0
C711 C 1.00377 0.4015 0.9343 0.0
C712 C 0.98102 0.41125 0.89609 0.0
C713 C 1.00205 0.39163 0.95157 0.0
C714 C 0.98661 0.45878 0.83901 0.0
C715 C 0.98584 0.44976 0.85688 0.0
C716 C 0.00874 0.43929 0.89262 0.0
C717 C 0.99153 0.40359 0.92811 0.0
C718 C 0.99339 0.41459 0.91054 0.0
C719 C 0.99781 0.44689 0.86107 0.0
C720 C 0.99627 0.43598 0.87845 0.0
H721 H 0.96478 0.37958 0.96473 0.0
H722 H 0.96786 0.39681 0.93522 0.0
H723 H 0.01699 0.43181 0.91961 0.0
H724 H 0.02145 0.46726 0.81899 0.0
H725 H 0.02021 0.45168 0.85035 0.0
C726 C 0.6017 0.62922 0.9507 0.0
C727 C 0.61365 0.62659 0.94588 0.0
C728 C 0.58914 0.62437 0.9361 0.0
C729 C 0.57584 0.61246 0.87917 0.0
H730 H 0.53647 0.58207 0.90381 0.0
C731 C 0.5207 0.55549 0.84511 0.0
C732 C 0.51872 0.56085 0.82475 0.0
C733 C 0.52944 0.56577 0.86194 0.0
C734 C 0.54733 0.59068 0.89676 0.0
H735 H 0.62242 0.61781 0.92153 0.0
H736 H 0.60086 0.6099 0.8957 0.0
H737 H 0.55879 0.59738 0.92823 0.0
H738 H 0.52266 0.58093 0.80701 0.0
H739 H 0.53797 0.59887 0.83634 0.0
H740 H 0.56469 0.6054 0.84769 0.0
C741 C 0.60106 0.61551 0.91083 0.0
C742 C 0.56005 0.5995 0.91071 0.0
C743 C 0.61338 0.62001 0.9256 0.0
C744 C 0.52422 0.5765 0.82241 0.0
C745 C 0.53301 0.58677 0.83916 0.0
C746 C 0.56309 0.60383 0.86527 0.0
C747 C 0.58858 0.61719 0.91623 0.0
C748 C 0.57454 0.61011 0.90197 0.0
C749 C 0.53636 0.58158 0.85867 0.0
C750 C 0.54882 0.59251 0.87385 0.0
H751 H 0.60156 0.63412 0.96634 0.0
H752 H 0.57967 0.62581 0.94059 0.0
H753 H 0.58688 0.62058 0.87204 0.0
H754 H 0.51671 0.54352 0.84738 0.0
H755 H 0.53186 0.56142 0.87676 0.0
C756 C 0.03179 0.61471 0.95749 0.0
C757 C 0.02078 0.6185 0.9632 0.0
C758 C 0.02889 0.60462 0.94026 0.0
C759 C 0.00441 0.58698 0.89076 0.0
H760 H 0.01611 0.55677 0.89924 0.0
C761 C 0.98587 0.53807 0.82917 0.0
C762 C 0.99713 0.53475 0.82296 0.0
C763 C 0.98853 0.54771 0.8469 0.0
C764 C 0.01292 0.56522 0.89653 0.0
H765 H 0.99819 0.61487 0.95487 0.0
H766 H 0.99307 0.59711 0.92477 0.0
H767 H 0.02119 0.57506 0.92841 0.0
H768 H 0.01978 0.53853 0.83096 0.0
H769 H 0.02449 0.55547 0.86212 0.0
H770 H 0.99614 0.57716 0.85888 0.0
C771 C 1.00402 0.60208 0.93358 0.0
C772 C 0.01583 0.57572 0.91323 0.0
C773 C 0.00694 0.61223 0.95086 0.0
C774 C 0.01087 0.5408 0.83547 0.0
C775 C 0.01355 0.55051 0.85327 0.0
C776 C 1.00148 0.57648 0.87407 0.0
C777 C 0.01489 0.598 0.92827 0.0
C778 C 0.01163 0.58675 0.91054 0.0
C779 C 1.00252 0.55432 0.8589 0.0
C780 C 0.00569 0.56546 0.87675 0.0
H781 H 0.04264 0.6194 0.96651 0.0
H782 H 0.03765 0.60199 0.93634 0.0
H783 H 1.00124 0.59545 0.88799 0.0
H784 H 0.97505 0.53335 0.82006 0.0
H785 H 0.97963 0.55009 0.85111 0.0
C786 C 0.39617 0.39568 0.95622 0.0
C787 C 0.39122 0.40239 0.97152 0.0
C788 C 0.40626 0.40447 0.93942 0.0
C789 C 0.43471 0.44459 0.92463 0.0
H790 H 0.42716 0.42924 0.86492 0.0
C791 C 0.46178 0.48336 0.84876 0.0
C792 C 0.46526 0.47736 0.83063 0.0
C793 C 0.45466 0.47425 0.86717 0.0
C794 C 0.42962 0.43363 0.88157 0.0
H795 H 0.39279 0.42357 0.98083 0.0
H796 H 0.41011 0.43868 0.95161 0.0
H797 H 0.41069 0.41286 0.89427 0.0
H798 H 0.46515 0.45757 0.81817 0.0
H799 H 0.45297 0.44176 0.85037 0.0
H800 H 0.45349 0.46544 0.91189 0.0
C801 C 0.40647 0.42674 0.95277 0.0
C802 C 0.42014 0.42422 0.89839 0.0
C803 C 0.39641 0.41799 0.96944 0.0
C804 C 0.46237 0.46241 0.83181 0.0
C805 C 0.45533 0.45334 0.85019 0.0
C806 C 0.44419 0.45399 0.90783 0.0
C807 C 0.41164 0.42014 0.93766 0.0
C808 C 0.42243 0.42967 0.92006 0.0
C809 C 0.45095 0.45898 0.86781 0.0
C810 C 0.44165 0.44869 0.88604 0.0
H811 H 0.39243 0.38371 0.95739 0.0
H812 H 0.41008 0.39907 0.92806 0.0
H813 H 0.43694 0.44904 0.94124 0.0
H814 H 0.46378 0.49481 0.84821 0.0
H815 H 0.45136 0.47894 0.88039 0.0
C816 C 0.62158 0.01777 0.93377 0.0
C817 C 0.619 0.0084 0.95211 0.0
C818 C 0.61034 0.01321 0.91716 0.0
C819 C 0.56976 0.99426 0.90934 0.0
H820 H 0.57711 0.99246 0.8474 0.0
C821 C 0.5368 1.00225 0.83592 0.0
C822 C 0.53209 0.99156 0.81874 0.0
C823 C 0.54558 1.00187 0.85369 0.0
C824 C 0.57486 0.99282 0.86466 0.0
H825 H 0.60284 0.98682 0.96736 0.0
H826 H 0.58285 0.97904 0.93846 0.0
H827 H 0.59679 0.99605 0.87472 0.0
H828 H 0.53183 0.97134 0.80777 0.0
H829 H 0.54761 0.97109 0.83831 0.0
H830 H 0.54816 0.99185 0.89915 0.0
C831 C 0.59372 0.98976 0.93686 0.0
C832 C 0.5861 0.99488 0.88021 0.0
C833 C 0.60517 0.99414 0.95322 0.0
C834 C 0.53559 0.97997 0.82043 0.0
C835 C 0.54455 0.97976 0.83793 0.0
C836 C 0.55865 0.99255 0.89372 0.0
C837 C 0.59616 0.99939 0.91889 0.0
C838 C 0.58367 0.99569 0.90265 0.0
C839 C 0.54994 0.99091 0.85443 0.0
C840 C 0.56116 0.99189 0.87124 0.0
H841 H 0.63211 0.02885 0.93261 0.0
H842 H 0.61242 0.02083 0.90348 0.0
H843 H 0.56774 0.99504 0.92657 0.0
H844 H 0.53443 0.01139 0.8351 0.0
H845 H 0.54967 0.01063 0.86622 0.0
C846 C 0.61317 1.00181 0.07586 0.0
C847 C 0.61902 0.01549 0.06397 0.0
C848 C 0.60286 0.9985 0.0931 0.0
C849 C 0.58922 0.01721 0.13084 0.0
H850 H 0.55274 0.9768 0.13646 0.0
C851 C 0.54002 0.00719 0.18662 0.0
C852 C 0.53515 0.9952 0.20176 0.0
C853 C 0.54905 0.00832 0.16877 0.0
C854 C 0.56292 0.98811 0.13512 0.0
H855 H 0.61873 0.03646 0.06112 0.0
H856 H 0.60082 0.03064 0.09067 0.0
H857 H 0.57186 0.98155 0.10847 0.0
H858 H 0.5348 0.97431 0.20902 0.0
H859 H 0.5506 0.9763 0.17775 0.0
H860 H 0.58029 0.02384 0.15721 0.0
C861 C 0.60429 0.02254 0.08702 0.0
C862 C 0.57391 0.99082 0.11921 0.0
C863 C 0.61453 0.02583 0.06992 0.0
C864 C 0.53853 0.98376 0.19773 0.0
C865 C 0.54751 0.98486 0.17978 0.0
C866 C 0.57824 0.01453 0.14657 0.0
C867 C 0.59827 0.00883 0.09881 0.0
C868 C 0.5871 0.00547 0.11672 0.0
C869 C 0.55333 0.99746 0.1656 0.0
C870 C 0.56487 1.00002 0.14873 0.0
H871 H 0.61637 0.99359 0.07165 0.0
H872 H 0.59852 0.98789 0.102 0.0
H873 H 0.59941 0.02853 0.12975 0.0
H874 H 0.5377 0.01623 0.18932 0.0
H875 H 0.55315 0.01803 0.15786 0.0
C876 C 0.99403 0.60414 0.07257 0.0
C877 C 0.00875 0.61745 0.07435 0.0
C878 C 0.98897 0.59281 0.08879 0.0
C879 C 0.99512 0.58545 0.14602 0.0
H880 H 0.9868 0.54603 0.12593 0.0
C881 C 0.98662 0.53979 0.2081 0.0
C882 C 0.99725 0.53502 0.20545 0.0
C883 C 0.98359 0.54706 0.19097 0.0
C884 C 0.98893 0.55692 0.13175 0.0
H885 H 0.02931 0.62976 0.09489 0.0
H886 H 0.02022 0.61034 0.12355 0.0
H887 H 0.98978 0.56529 0.09905 0.0
H888 H 0.01188 0.53282 0.18205 0.0
H889 H 0.00638 0.54529 0.15197 0.0
H890 H 0.99481 0.5774 0.17862 0.0
C891 C 0.01269 0.60854 0.10957 0.0
C892 C 0.99052 0.56788 0.11641 0.0
C893 C 0.01789 0.61964 0.09318 0.0
C894 C 1.00357 0.53628 0.18459 0.0
C895 C 1.00046 0.54348 0.16737 0.0
C896 C 0.99329 0.57444 0.16133 0.0
C897 C 0.99838 0.59483 0.10727 0.0
C898 C 0.99405 0.58239 0.12341 0.0
C899 C 0.991 0.54957 0.17072 0.0
C900 C 0.99057 0.56019 0.15437 0.0
H901 H 0.98685 0.6021 0.05808 0.0
H902 H 0.97787 0.58235 0.08668 0.0
H903 H 0.99784 0.59655 0.15183 0.0
H904 H 0.98134 0.53874 0.22387 0.0
H905 H 0.97604 0.55139 0.1939 0.0
C906 C 0.40501 0.38271 0.0749 0.0
C907 C 0.39248 0.38463 0.07884 0.0
C908 C 0.41752 0.38849 0.08977 0.0
C909 C 0.42992 0.40127 0.14643 0.0
H910 H 0.46927 0.43219 0.12232 0.0
C911 C 0.48278 0.43574 0.20255 0.0
C912 C 0.48854 0.45151 0.20147 0.0
C913 C 0.47325 0.42599 0.18578 0.0
C914 C 0.45841 0.42347 0.12921 0.0
H915 H 0.38272 0.39319 0.10195 0.0
H916 H 0.40426 0.40272 0.1283 0.0
H917 H 0.44715 0.41674 0.09759 0.0
H918 H 0.49002 0.46955 0.18089 0.0
H919 H 0.47367 0.45252 0.15131 0.0
H920 H 0.44097 0.40819 0.17804 0.0
C921 C 0.40452 0.39696 0.11361 0.0
C922 C 0.4458 0.41458 0.1151 0.0
C923 C 0.39221 0.39152 0.09854 0.0
C924 C 0.48586 0.45748 0.1822 0.0
C925 C 0.47643 0.44772 0.16528 0.0
C926 C 0.44257 0.40994 0.16048 0.0
C927 C 0.4175 0.39592 0.10905 0.0
C928 C 0.43135 0.40366 0.12364 0.0
C929 C 0.46947 0.43182 0.16741 0.0
C930 C 0.45685 0.42137 0.15207 0.0
H931 H 0.40559 0.37759 0.05973 0.0
H932 H 0.42739 0.38752 0.08595 0.0
H933 H 0.4189 0.39294 0.1534 0.0
H934 H 0.48489 0.43081 0.217 0.0
H935 H 0.46824 0.4138 0.18766 0.0
C936 C 0.67694 0.7326 0.40775 0.0
C937 C 0.66273 0.72569 0.39621 0.0
C938 C 0.68013 0.74321 0.42449 0.0
C939 C 0.66089 0.7568 0.46155 0.0
H940 H 0.70168 0.79329 0.4661 0.0
C941 C 0.67252 0.80582 0.51915 0.0
C942 C 0.68537 0.8109 0.53333 0.0
C943 C 0.67061 0.79672 0.50095 0.0
C944 C 0.69025 0.78313 0.46506 0.0
H945 H 0.64066 0.7244 0.39353 0.0
H946 H 0.64627 0.74289 0.42222 0.0
H947 H 0.69652 0.77403 0.43836 0.0
H948 H 0.70687 0.81145 0.53868 0.0
H949 H 0.70358 0.79561 0.50685 0.0
H950 H 0.65458 0.7659 0.48812 0.0
C951 C 0.6549 0.74001 0.41869 0.0
C952 C 0.68731 0.77204 0.44927 0.0
C953 C 0.65171 0.72942 0.40209 0.0
C954 C 0.6968 0.80759 0.52809 0.0
C955 C 0.69494 0.79858 0.50981 0.0
C956 C 0.66379 0.7679 0.47719 0.0
C957 C 0.66918 0.74713 0.43003 0.0
C958 C 0.67257 0.75874 0.44728 0.0
C959 C 0.68157 0.79262 0.49648 0.0
C960 C 0.67849 0.78121 0.47912 0.0
H961 H 0.6857 0.73 0.40364 0.0
H962 H 0.69117 0.74832 0.43309 0.0
H963 H 0.64949 0.74658 0.46082 0.0
H964 H 0.66349 0.80811 0.52285 0.0
H965 H 0.6603 0.79248 0.49076 0.0
C966 C 0.2777 0.94728 0.41553 0.0
C967 C 0.28106 0.93911 0.40046 0.0
C968 C 0.26669 0.93955 0.43188 0.0
C969 C 0.23352 0.90131 0.44585 0.0
H970 H 0.24449 0.91455 0.50637 0.0
C971 C 0.20699 0.86084 0.51944 0.0
C972 C 0.20545 0.86666 0.5394 0.0
C973 C 0.21352 0.87044 0.50132 0.0
C974 C 0.24106 0.91084 0.48953 0.0
H975 H 0.27541 0.9164 0.39078 0.0
H976 H 0.25647 0.90313 0.41908 0.0
H977 H 0.2614 0.93046 0.47701 0.0
H978 H 0.20829 0.88675 0.55553 0.0
H979 H 0.21955 0.9035 0.52384 0.0
H980 H 0.21341 0.88149 0.45836 0.0
C981 C 0.26215 0.91544 0.41819 0.0
C982 C 0.25078 0.91997 0.4727 0.0
C983 C 0.27316 0.92311 0.40207 0.0
C984 C 0.20959 0.88202 0.54043 0.0
C985 C 0.21608 0.89161 0.52232 0.0
C986 C 0.22379 0.8922 0.46265 0.0
C987 C 0.25874 0.92353 0.43326 0.0
C988 C 0.24734 0.91509 0.45075 0.0
C989 C 0.21858 0.88605 0.50278 0.0
C990 C 0.22765 0.89666 0.48473 0.0
H991 H 0.28356 0.9596 0.4147 0.0
H992 H 0.26429 0.94608 0.4433 0.0
H993 H 0.23043 0.89738 0.42902 0.0
H994 H 0.20404 0.84909 0.51821 0.0
H995 H 0.2154 0.8658 0.4866 0.0
C996 C 0.07566 0.33333 0.40468 0.0
C997 C 0.06824 0.34137 0.39945 0.0
C998 C 0.08814 0.33933 0.41938 0.0
C999 C 0.10526 0.36343 0.46683 0.0
H1000 H 0.14118 0.36141 0.45132 0.0
C1001 C 0.15104 0.37284 0.53243 0.0
C1002 C 0.1549 0.3615 0.53259 0.0
C1003 C 0.14355 0.37465 0.51416 0.0
C1004 C 0.13125 0.36205 0.45596 0.0
H1005 H 0.06806 0.36203 0.40596 0.0
H1006 H 0.08983 0.37239 0.43253 0.0
H1007 H 0.12142 0.35626 0.42348 0.0
H1008 H 0.15475 0.34381 0.51315 0.0
H1009 H 0.14175 0.34688 0.48149 0.0
H1010 H 0.11453 0.36828 0.49962 0.0
C1011 C 0.08595 0.36148 0.42481 0.0
C1012 C 0.11998 0.35917 0.43998 0.0
C1013 C 0.07351 0.35555 0.40967 0.0
C1014 C 0.15214 0.35279 0.51349 0.0
C1015 C 0.14462 0.35455 0.49528 0.0
C1016 C 0.11648 0.36617 0.48292 0.0
C1017 C 0.09348 0.35348 0.42954 0.0
C1018 C 0.10664 0.35935 0.44542 0.0
C1019 C 0.13973 0.36514 0.49566 0.0
C1020 C 0.12937 0.36501 0.47784 0.0
H1021 H 0.07199 0.32241 0.39712 0.0
H1022 H 0.09354 0.33279 0.423 0.0
H1023 H 0.09504 0.36355 0.47149 0.0
H1024 H 0.15319 0.37987 0.54682 0.0
H1025 H 0.14025 0.38313 0.51485 0.0
C1026 C 0.05493 0.31685 0.27871 0.0
C1027 C 0.05535 0.32941 0.28858 0.0
C1028 C 0.06397 0.3188 0.26056 0.0
C1029 C 0.09976 0.34764 0.23396 0.0
H1030 H 0.08572 0.31674 0.18845 0.0
C1031 C 0.13524 0.3532 0.15693 0.0
C1032 C 0.13496 0.34006 0.14984 0.0
C1033 C 0.12603 0.35246 0.17428 0.0
C1034 C 0.08986 0.32537 0.20118 0.0
H1035 H 0.06507 0.35382 0.28645 0.0
H1036 H 0.08086 0.35726 0.25427 0.0
H1037 H 0.06762 0.3149 0.21594 0.0
H1038 H 0.12533 0.31596 0.1558 0.0
H1039 H 0.10919 0.31463 0.18635 0.0
H1040 H 0.12202 0.35813 0.21899 0.0
C1041 C 0.07364 0.3459 0.26092 0.0
C1042 C 0.07948 0.32436 0.21689 0.0
C1043 C 0.0645 0.34393 0.27919 0.0
C1044 C 0.1258 0.32627 0.16104 0.0
C1045 C 0.11647 0.32549 0.17832 0.0
C1046 C 0.11014 0.3487 0.21812 0.0
C1047 C 0.07368 0.33337 0.25167 0.0
C1048 C 0.08434 0.33536 0.23367 0.0
C1049 C 0.11626 0.33853 0.18482 0.0
C1050 C 0.10534 0.33747 0.20172 0.0
H1051 H 0.04796 0.30548 0.28545 0.0
H1052 H 0.06381 0.30891 0.25409 0.0
H1053 H 0.10396 0.35618 0.24682 0.0
H1054 H 0.14226 0.36399 0.14857 0.0
H1055 H 0.12608 0.36268 0.17883 0.0
C1056 C 0.65763 0.72437 0.26923 0.0
C1057 C 0.66858 0.7258 0.28501 0.0
C1058 C 0.66147 0.73576 0.25362 0.0
C1059 C 0.69382 0.77071 0.22834 0.0
H1060 H 0.66105 0.77898 0.21717 0.0
C1061 C 0.69254 0.80534 0.15399 0.0
C1062 C 0.68365 0.81225 0.15507 0.0
C1063 C 0.69373 0.79751 0.17206 0.0
C1064 C 0.6705 0.77712 0.22034 0.0
H1065 H 0.69241 0.73992 0.29612 0.0
H1066 H 0.69908 0.76008 0.26901 0.0
H1067 H 0.65703 0.75938 0.24317 0.0
H1068 H 0.67058 0.81783 0.17692 0.0
H1069 H 0.67338 0.80495 0.20873 0.0
H1070 H 0.70739 0.78877 0.20571 0.0
C1071 C 0.68755 0.75004 0.26855 0.0
C1072 C 0.66805 0.76558 0.23499 0.0
C1073 C 0.68375 0.73848 0.28407 0.0
C1074 C 0.67746 0.8126 0.17539 0.0
C1075 C 0.67885 0.80496 0.19358 0.0
C1076 C 0.69633 0.78239 0.21373 0.0
C1077 C 0.67629 0.74903 0.2536 0.0
C1078 C 0.67952 0.76197 0.23882 0.0
C1079 C 0.68627 0.79661 0.1918 0.0
C1080 C 0.68459 0.78558 0.20926 0.0
H1081 H 0.6459 0.71463 0.26937 0.0
H1082 H 0.65264 0.73434 0.2419 0.0
H1083 H 0.70292 0.76827 0.23093 0.0
H1084 H 0.69782 0.80519 0.13874 0.0
H1085 H 0.6996 0.79131 0.16998 0.0
C1086 C 0.27647 0.95648 0.28941 0.0
C1087 C 0.28913 0.95439 0.29011 0.0
C1088 C 0.26582 0.9506 0.27184 0.0
C1089 C 0.26001 0.93628 0.21508 0.0
H1090 H 0.21771 0.90753 0.23191 0.0
C1091 C 0.21721 0.892 0.1537 0.0
C1092 C 0.20195 0.8888 0.15322 0.0
C1093 C 0.22728 0.90054 0.17085 0.0
C1094 C 0.2294 0.91568 0.22687 0.0
H1095 H 0.3012 0.94551 0.27246 0.0
H1096 H 0.28296 0.93573 0.24155 0.0
H1097 H 0.23691 0.92342 0.25993 0.0
H1098 H 0.185 0.89149 0.17041 0.0
H1099 H 0.2027 0.90671 0.20044 0.0
H1100 H 0.25268 0.92868 0.18211 0.0
C1101 C 0.28111 0.94171 0.25461 0.0
C1102 C 0.24037 0.9248 0.24292 0.0
C1103 C 0.29154 0.94728 0.2723 0.0
C1104 C 0.1967 0.89371 0.17064 0.0
C1105 C 0.20685 0.90244 0.18775 0.0
C1106 C 0.24904 0.92731 0.19904 0.0
C1107 C 0.2679 0.94288 0.25452 0.0
C1108 C 0.25585 0.93493 0.23722 0.0
C1109 C 0.22239 0.90628 0.18775 0.0
C1110 C 0.23368 0.9166 0.20478 0.0
H1111 H 0.27428 0.9618 0.30304 0.0
H1112 H 0.25575 0.95172 0.27206 0.0
H1113 H 0.27184 0.94412 0.21023 0.0
H1114 H 0.22147 0.88827 0.14042 0.0
H1115 H 0.23901 0.90286 0.17062 0.0
C1116 C 0.66462 0.94179 0.28978 0.0
C1117 C 0.67815 0.9471 0.30265 0.0
C1118 C 0.66112 0.93132 0.27272 0.0
C1119 C 0.6695 0.90217 0.25424 0.0
H1120 H 0.65569 0.9076 0.19702 0.0
C1121 C 0.67031 0.8706 0.17652 0.0
C1122 C 0.65901 0.86694 0.16008 0.0
C1123 C 0.67092 0.87879 0.19518 0.0
C1124 C 0.65926 0.90572 0.21301 0.0
H1125 H 0.69874 0.94577 0.30726 0.0
H1126 H 0.69265 0.92767 0.27765 0.0
H1127 H 0.66015 0.92537 0.22664 0.0
H1128 H 0.63882 0.86803 0.15098 0.0
H1129 H 0.63964 0.88202 0.18374 0.0
H1130 H 0.66871 0.88258 0.24067 0.0
C1131 C 0.68464 0.93141 0.2809 0.0
C1132 C 0.66186 0.91596 0.22997 0.0
C1133 C 0.68819 0.94191 0.29779 0.0
C1134 C 0.64778 0.87086 0.16328 0.0
C1135 C 0.64832 0.87897 0.18197 0.0
C1136 C 0.66683 0.89189 0.23734 0.0
C1137 C 0.671 0.92586 0.26831 0.0
C1138 C 0.66723 0.91443 0.25068 0.0
C1139 C 0.66016 0.88342 0.19786 0.0
C1140 C 0.66187 0.89364 0.2164 0.0
H1141 H 0.65663 0.94553 0.2931 0.0
H1142 H 0.65049 0.92721 0.26333 0.0
H1143 H 0.67339 0.90053 0.27015 0.0
H1144 H 0.67922 0.86788 0.17438 0.0
H1145 H 0.68029 0.88213 0.20694 0.0
C1146 C 0.04792 0.74895 0.282 0.0
C1147 C 0.05188 0.73903 0.29199 0.0
C1148 C 0.05658 0.75834 0.2647 0.0
C1149 C 0.09508 0.77966 0.24434 0.0
H1150 H 0.07616 0.78059 0.18892 0.0
C1151 C 0.13086 0.81729 0.17129 0.0
C1152 C 0.12372 0.82215 0.15617 0.0
C1153 C 0.12251 0.80778 0.18876 0.0
C1154 C 0.08163 0.78075 0.20444 0.0
H1155 H 0.06785 0.73098 0.29164 0.0
H1156 H 0.08344 0.74791 0.26154 0.0
H1157 H 0.06056 0.76181 0.21662 0.0
H1158 H 0.10268 0.82178 0.14792 0.0
H1159 H 0.0883 0.80605 0.17923 0.0
H1160 H 0.11599 0.799 0.23279 0.0
C1161 C 0.07345 0.74817 0.26704 0.0
C1162 C 0.07269 0.76983 0.22016 0.0
C1163 C 0.06451 0.73845 0.28407 0.0
C1164 C 0.10841 0.81819 0.15951 0.0
C1165 C 0.10014 0.80896 0.17724 0.0
C1166 C 0.10399 0.79081 0.22879 0.0
C1167 C 0.06959 0.75826 0.25736 0.0
C1168 C 0.07933 0.76919 0.24022 0.0
C1169 C 0.10687 0.80313 0.19163 0.0
C1170 C 0.09738 0.79154 0.2086 0.0
H1171 H 0.03822 0.74961 0.28781 0.0
H1172 H 0.05343 0.76607 0.25754 0.0
H1173 H 0.10039 0.7795 0.25987 0.0
H1174 H 0.1426 0.81999 0.16874 0.0
H1175 H 0.1281 0.80345 0.19924 0.0
C1176 C 0.2727 0.32599 0.28212 0.0
C1177 C 0.28711 0.33963 0.28123 0.0
C1178 C 0.26132 0.32271 0.26601 0.0
C1179 C 0.25137 0.34341 0.22482 0.0
H1180 H 0.21904 0.30274 0.20735 0.0
C1181 C 0.20244 0.33553 0.16687 0.0
C1182 C 0.19785 0.3245 0.15025 0.0
C1183 C 0.21149 0.33582 0.18473 0.0
C1184 C 0.22805 0.31421 0.21188 0.0
H1185 H 0.3015 0.3599 0.26205 0.0
H1186 H 0.2822 0.35376 0.2332 0.0
H1187 H 0.23958 0.30597 0.23229 0.0
H1188 H 0.19809 0.30433 0.14043 0.0
H1189 H 0.21447 0.30534 0.17065 0.0
H1190 H 0.24048 0.35176 0.20358 0.0
C1191 C 0.27924 0.3459 0.2468 0.0
C1192 C 0.23977 0.31605 0.22645 0.0
C1193 C 0.29042 0.34933 0.26313 0.0
C1194 C 0.20171 0.31322 0.15267 0.0
C1195 C 0.21097 0.31367 0.17027 0.0
C1196 C 0.23984 0.34159 0.21004 0.0
C1197 C 0.26428 0.33292 0.24852 0.0
C1198 C 0.25169 0.3307 0.23298 0.0
C1199 C 0.21639 0.32525 0.18623 0.0
C1200 C 0.22802 0.32698 0.20324 0.0
H1201 H 0.26982 0.31843 0.2961 0.0
H1202 H 0.24997 0.31263 0.26802 0.0
H1203 H 0.26005 0.35489 0.22985 0.0
H1204 H 0.19971 0.34441 0.1656 0.0
H1205 H 0.21503 0.34466 0.19701 0.0
C1206 C 0.27798 0.33007 0.40344 0.0
C1207 C 0.2842 0.34404 0.3922 0.0
C1208 C 0.26664 0.32604 0.41939 0.0
C1209 C 0.23698 0.33454 0.43607 0.0
H1210 H 0.24 0.31943 0.49331 0.0
C1211 C 0.20621 0.33839 0.51214 0.0
C1212 C 0.20144 0.32715 0.52848 0.0
C1213 C 0.21398 0.33791 0.49368 0.0
C1214 C 0.23878 0.32335 0.47726 0.0
H1215 H 0.28365 0.36488 0.38946 0.0
H1216 H 0.26411 0.35789 0.41707 0.0
H1217 H 0.25859 0.32345 0.46507 0.0
H1218 H 0.19997 0.30596 0.53746 0.0
H1219 H 0.21338 0.30502 0.50509 0.0
H1220 H 0.21737 0.3347 0.44827 0.0
C1221 C 0.26776 0.34994 0.41337 0.0
C1222 C 0.24947 0.32568 0.46111 0.0
C1223 C 0.27909 0.35399 0.39763 0.0
C1224 C 0.20371 0.3149 0.52527 0.0
C1225 C 0.21146 0.3144 0.50679 0.0
C1226 C 0.22627 0.33216 0.45216 0.0
C1227 C 0.26124 0.33585 0.42421 0.0
C1228 C 0.24891 0.33166 0.44053 0.0
C1229 C 0.2171 0.32615 0.49111 0.0
C1230 C 0.22725 0.32687 0.47312 0.0
H1231 H 0.28164 0.32214 0.39962 0.0
H1232 H 0.26182 0.31511 0.42753 0.0
H1233 H 0.23608 0.33888 0.4202 0.0
H1234 H 0.2048 0.34807 0.51425 0.0
H1235 H 0.21829 0.34724 0.48206 0.0
C1236 C 0.65523 0.93428 0.41323 0.0
C1237 C 0.67027 0.9472 0.41394 0.0
C1238 C 0.65044 0.92299 0.42944 0.0
C1239 C 0.65808 0.91551 0.48564 0.0
H1240 H 0.64706 0.87526 0.46529 0.0
C1241 C 0.64815 0.8691 0.54721 0.0
C1242 C 0.65829 0.86377 0.54411 0.0
C1243 C 0.64533 0.87668 0.53032 0.0
C1244 C 0.64994 0.88639 0.47119 0.0
H1245 H 0.69177 0.95886 0.43266 0.0
H1246 H 0.68319 0.93949 0.46137 0.0
H1247 H 0.65035 0.89476 0.43861 0.0
H1248 H 0.67217 0.86089 0.52013 0.0
H1249 H 0.66696 0.87383 0.49047 0.0
H1250 H 0.65813 0.9074 0.5181 0.0
C1251 C 0.6752 0.93797 0.44817 0.0
C1252 C 0.65173 0.89749 0.45598 0.0
C1253 C 0.68011 0.94903 0.43174 0.0
C1254 C 0.66425 0.86478 0.52304 0.0
C1255 C 0.6613 0.87225 0.50605 0.0
C1256 C 0.65604 0.90436 0.50084 0.0
C1257 C 0.66047 0.92466 0.44689 0.0
C1258 C 0.65621 0.91227 0.46305 0.0
C1259 C 0.65242 0.87891 0.50987 0.0
C1260 C 0.65231 0.8898 0.49376 0.0
H1261 H 0.64747 0.93251 0.39956 0.0
H1262 H 0.63902 0.91283 0.42815 0.0
H1263 H 0.66154 0.92681 0.4915 0.0
H1264 H 0.64315 0.86825 0.56314 0.0
H1265 H 0.63822 0.88147 0.5336 0.0
C1266 C 0.05608 0.73269 0.42081 0.0
C1267 C 0.05692 0.72485 0.40261 0.0
C1268 C 0.06791 0.73892 0.43665 0.0
C1269 C 0.1034 0.73998 0.45704 0.0
H1270 H 0.11301 0.77943 0.47877 0.0
C1271 C 0.14266 0.76945 0.53317 0.0
C1272 C 0.15014 0.78542 0.53526 0.0
C1273 C 0.13338 0.76197 0.51475 0.0
C1274 C 0.11076 0.76857 0.47264 0.0
H1275 H 0.07047 0.71673 0.38722 0.0
H1276 H 0.09144 0.72798 0.41465 0.0
H1277 H 0.09231 0.76607 0.45211 0.0
H1278 H 0.15491 0.80609 0.51836 0.0
H1279 H 0.13955 0.79317 0.4858 0.0
H1280 H 0.12228 0.74279 0.47721 0.0
C1281 C 0.0815 0.72912 0.41689 0.0
C1282 C 0.09859 0.76071 0.45761 0.0
C1283 C 0.06948 0.72266 0.40117 0.0
C1284 C 0.14934 0.7938 0.51745 0.0
C1285 C 0.14026 0.78633 0.49887 0.0
C1286 C 0.11575 0.74795 0.47198 0.0
C1287 C 0.08107 0.73773 0.43449 0.0
C1288 C 0.09453 0.74618 0.44989 0.0
C1289 C 0.13154 0.77028 0.49775 0.0
C1290 C 0.11947 0.76229 0.48021 0.0
H1291 H 0.04645 0.73441 0.4225 0.0
H1292 H 0.0669 0.745 0.45034 0.0
H1293 H 0.10063 0.72882 0.45148 0.0
H1294 H 0.14333 0.76263 0.5463 0.0
H1295 H 0.12693 0.74961 0.51456 0.0
C1296 C 0.33431 0.06112 0.74215 0.0
C1297 C 0.32064 0.05326 0.72944 0.0
C1298 C 0.33545 0.07059 0.75952 0.0
C1299 C 0.3115 0.07839 0.79641 0.0
H1300 H 0.34919 0.11773 0.8044 0.0
C1301 C 0.32379 0.11588 0.87317 0.0
C1302 C 0.33206 0.13183 0.87073 0.0
C1303 C 0.32137 0.10641 0.85529 0.0
C1304 C 0.33851 0.10686 0.80222 0.0
H1305 H 0.29736 0.04904 0.72533 0.0
H1306 H 0.29942 0.06549 0.75523 0.0
H1307 H 0.34747 0.10076 0.77512 0.0
H1308 H 0.34363 0.15033 0.84744 0.0
H1309 H 0.33916 0.13372 0.81595 0.0
H1310 H 0.30244 0.08455 0.82324 0.0
C1311 C 0.30922 0.06427 0.75204 0.0
C1312 C 0.33762 0.09703 0.78565 0.0
C1313 C 0.30808 0.05487 0.73475 0.0
C1314 C 0.33715 0.13808 0.84976 0.0
C1315 C 0.33477 0.12857 0.83182 0.0
C1316 C 0.31239 0.0882 0.81295 0.0
C1317 C 0.32293 0.07233 0.76456 0.0
C1318 C 0.3241 0.08267 0.78255 0.0
C1319 C 0.32717 0.11264 0.83451 0.0
C1320 C 0.32592 0.10254 0.81612 0.0
H1321 H 0.3442 0.06015 0.7385 0.0
H1322 H 0.34613 0.07651 0.76902 0.0
H1323 H 0.30096 0.06736 0.79462 0.0
H1324 H 0.31965 0.11075 0.88913 0.0
H1325 H 0.31556 0.09422 0.85803 0.0
C1326 C 0.94202 0.25544 0.71775 0.0
C1327 C 0.94858 0.27132 0.71617 0.0
C1328 C 0.93263 0.24726 0.73531 0.0
C1329 C 0.92369 0.25117 0.79218 0.0
H1330 H 0.88733 0.21121 0.78117 0.0
C1331 C 0.88462 0.21468 0.86279 0.0
C1332 C 0.88052 0.19932 0.86297 0.0
C1333 C 0.891 0.22366 0.84411 0.0
C1334 C 0.89748 0.22231 0.78453 0.0
H1335 H 0.95044 0.29106 0.73208 0.0
H1336 H 0.93395 0.27668 0.76299 0.0
H1337 H 0.90249 0.22693 0.75036 0.0
H1338 H 0.87918 0.18111 0.8434 0.0
H1339 H 0.89038 0.19681 0.81068 0.0
H1340 H 0.91889 0.24643 0.82636 0.0
C1341 C 0.93619 0.27062 0.75052 0.0
C1342 C 0.90617 0.23132 0.76689 0.0
C1343 C 0.94561 0.27886 0.73281 0.0
C1344 C 0.88213 0.19289 0.84367 0.0
C1345 C 0.88856 0.2019 0.82495 0.0
C1346 C 0.915 0.24215 0.80983 0.0
C1347 C 0.9295 0.2547 0.75185 0.0
C1348 C 0.91952 0.24576 0.77052 0.0
C1349 C 0.89344 0.2175 0.82516 0.0
C1350 C 0.90192 0.22751 0.80624 0.0
H1351 H 0.94408 0.24922 0.70532 0.0
H1352 H 0.92795 0.23507 0.73604 0.0
H1353 H 0.934 0.26215 0.79555 0.0
H1354 H 0.88327 0.21987 0.87734 0.0
H1355 H 0.8943 0.23553 0.84466 0.0
C1356 C 0.74046 0.68612 0.74637 0.0
C1357 C 0.73512 0.67218 0.73543 0.0
C1358 C 0.75252 0.69141 0.76204 0.0
C1359 C 0.78549 0.68747 0.77853 0.0
H1360 H 0.78008 0.69831 0.83711 0.0
C1361 C 0.8178 0.68327 0.85403 0.0
C1362 C 0.8208 0.69279 0.87226 0.0
C1363 C 0.81002 0.68423 0.83548 0.0
C1364 C 0.782 0.69568 0.82071 0.0
H1365 H 0.73834 0.65292 0.73243 0.0
H1366 H 0.75923 0.66216 0.75937 0.0
H1367 H 0.76096 0.69349 0.80836 0.0
H1368 H 0.81913 0.71165 0.88457 0.0
H1369 H 0.80579 0.71352 0.85198 0.0
H1370 H 0.80636 0.68939 0.7908 0.0
C1371 C 0.75419 0.66905 0.75584 0.0
C1372 C 0.77099 0.69287 0.80426 0.0
C1373 C 0.74209 0.66369 0.74052 0.0
C1374 C 0.81682 0.70403 0.87087 0.0
C1375 C 0.80908 0.70503 0.85226 0.0
C1376 C 0.79656 0.6904 0.79488 0.0
C1377 C 0.75961 0.68298 0.76672 0.0
C1378 C 0.77238 0.68827 0.7832 0.0
C1379 C 0.80511 0.69479 0.83463 0.0
C1380 C 0.79472 0.69408 0.81638 0.0
H1381 H 0.73536 0.69294 0.74282 0.0
H1382 H 0.75646 0.70219 0.77024 0.0
H1383 H 0.78699 0.68419 0.76231 0.0
H1384 H 0.82051 0.67436 0.85467 0.0
H1385 H 0.80704 0.67602 0.82239 0.0
C1386 C 0.71666 0.65035 0.60884 0.0
C1387 C 0.72202 0.66263 0.62355 0.0
C1388 C 0.72527 0.65151 0.59048 0.0
C1389 C 0.76464 0.66852 0.57397 0.0
H1390 H 0.74771 0.65623 0.515 0.0
C1391 C 0.80156 0.66996 0.50115 0.0
C1392 C 0.79408 0.65932 0.48417 0.0
C1393 C 0.79304 0.67075 0.5184 0.0
C1394 C 0.75258 0.65944 0.53144 0.0
H1395 H 0.74029 0.68589 0.63038 0.0
H1396 H 0.75569 0.6878 0.59835 0.0
H1397 H 0.73204 0.65794 0.54349 0.0
H1398 H 0.77213 0.64072 0.47212 0.0
H1399 H 0.7573 0.64136 0.50286 0.0
H1400 H 0.78487 0.66931 0.56243 0.0
C1401 C 0.74469 0.67738 0.60097 0.0
C1402 C 0.74364 0.6606 0.54766 0.0
C1403 C 0.73585 0.67634 0.61912 0.0
C1404 C 0.77811 0.64896 0.48519 0.0
C1405 C 0.76962 0.64954 0.50261 0.0
C1406 C 0.77351 0.6671 0.55785 0.0
C1407 C 0.73958 0.66486 0.58676 0.0
C1408 C 0.74956 0.66507 0.56908 0.0
C1409 C 0.77688 0.66076 0.51911 0.0
C1410 C 0.76755 0.66242 0.53638 0.0
H1411 H 0.70604 0.63964 0.61198 0.0
H1412 H 0.72112 0.64168 0.57984 0.0
H1413 H 0.76937 0.67176 0.5905 0.0
H1414 H 0.81386 0.67824 0.5004 0.0
H1415 H 0.79907 0.67966 0.53057 0.0
C1416 C 0.32249 0.05464 0.6017 0.0
C1417 C 0.33287 0.05628 0.61859 0.0
C1418 C 0.32658 0.06619 0.58627 0.0
C1419 C 0.35905 0.10213 0.56342 0.0
H1420 H 0.32568 0.109 0.5492 0.0
C1421 C 0.3591 0.13711 0.48849 0.0
C1422 C 0.34978 0.14358 0.48881 0.0
C1423 C 0.35993 0.12916 0.5067 0.0
C1424 C 0.33528 0.10752 0.55323 0.0
H1425 H 0.35602 0.07099 0.63184 0.0
H1426 H 0.36314 0.0914 0.60497 0.0
H1427 H 0.3214 0.08926 0.57513 0.0
H1428 H 0.3355 0.14824 0.50956 0.0
H1429 H 0.33763 0.13515 0.54163 0.0
H1430 H 0.37301 0.12067 0.54165 0.0
C1431 C 0.35187 0.08107 0.60356 0.0
C1432 C 0.3327 0.09592 0.56784 0.0
C1433 C 0.3478 0.06938 0.61894 0.0
C1434 C 0.34273 0.14337 0.50862 0.0
C1435 C 0.34375 0.13561 0.52694 0.0
C1436 C 0.36168 0.11385 0.54881 0.0
C1437 C 0.34109 0.07981 0.58748 0.0
C1438 C 0.34442 0.09283 0.57278 0.0
C1439 C 0.35166 0.1277 0.52583 0.0
C1440 C 0.34973 0.11655 0.54326 0.0
H1441 H 0.31096 0.0446 0.60083 0.0
H1442 H 0.31817 0.06459 0.57369 0.0
H1443 H 0.36835 0.10009 0.56689 0.0
H1444 H 0.36501 0.13737 0.47367 0.0
H1445 H 0.36621 0.12332 0.50516 0.0
C1446 C 0.93439 0.2943 0.61382 0.0
C1447 C 0.9461 0.2913 0.60906 0.0
C1448 C 0.92197 0.28983 0.59906 0.0
C1449 C 0.90886 0.27826 0.54189 0.0
H1450 H 0.86902 0.24865 0.5661 0.0
C1451 C 0.8575 0.24274 0.48445 0.0
C1452 C 0.85153 0.22702 0.48722 0.0
C1453 C 0.86633 0.25307 0.50112 0.0
C1454 C 0.88002 0.25704 0.55915 0.0
H1455 H 0.9546 0.28227 0.5847 0.0
H1456 H 0.9333 0.275 0.55867 0.0
H1457 H 0.89127 0.26358 0.59078 0.0
H1458 H 0.84877 0.20972 0.51051 0.0
H1459 H 0.86399 0.22773 0.53971 0.0
H1460 H 0.89792 0.2713 0.51027 0.0
C1461 C 0.93357 0.28061 0.57383 0.0
C1462 C 0.89271 0.26565 0.57326 0.0
C1463 C 0.94574 0.28474 0.58873 0.0
C1464 C 0.85313 0.22174 0.50788 0.0
C1465 C 0.86191 0.23209 0.52462 0.0
C1466 C 0.89616 0.26982 0.52783 0.0
C1467 C 0.92132 0.28267 0.57913 0.0
C1468 C 0.90736 0.27596 0.56468 0.0
C1469 C 0.86926 0.2479 0.52098 0.0
C1470 C 0.88172 0.25876 0.53625 0.0
H1471 H 0.93432 0.2992 0.62949 0.0
H1472 H 0.91267 0.29155 0.60349 0.0
H1473 H 0.92003 0.28614 0.53488 0.0
H1474 H 0.85624 0.24712 0.46881 0.0
H1475 H 0.87162 0.26518 0.498 0.0
C1476 C 0.33413 0.27845 0.6147 0.0
C1477 C 0.3485 0.28493 0.62577 0.0
C1478 C 0.32995 0.26712 0.59873 0.0
C1479 C 0.33848 0.23782 0.58198 0.0
H1480 H 0.32087 0.23908 0.52556 0.0
C1481 C 0.33665 0.20266 0.50716 0.0
C1482 C 0.32458 0.19785 0.49163 0.0
C1483 C 0.33771 0.21157 0.52516 0.0
C1484 C 0.32549 0.23835 0.54139 0.0
H1485 H 0.36989 0.28484 0.62821 0.0
H1486 H 0.3626 0.26523 0.60051 0.0
H1487 H 0.32639 0.25844 0.55317 0.0
H1488 H 0.30351 0.1976 0.48362 0.0
H1489 H 0.30512 0.21282 0.51532 0.0
H1490 H 0.33766 0.21779 0.57028 0.0
C1491 C 0.35449 0.26874 0.60434 0.0
C1492 C 0.3287 0.24951 0.55717 0.0
C1493 C 0.35871 0.28009 0.62011 0.0
C1494 C 0.31305 0.2013 0.49522 0.0
C1495 C 0.31404 0.21012 0.51328 0.0
C1496 C 0.33517 0.22661 0.56627 0.0
C1497 C 0.33999 0.26196 0.59369 0.0
C1498 C 0.33548 0.24951 0.57749 0.0
C1499 C 0.32665 0.21578 0.52811 0.0
C1500 C 0.32887 0.22686 0.54562 0.0
H1501 H 0.32599 0.28188 0.61868 0.0
H1502 H 0.31869 0.26209 0.59078 0.0
H1503 H 0.34345 0.23736 0.59766 0.0
H1504 H 0.3458 0.20032 0.50467 0.0
H1505 H 0.34767 0.21582 0.53608 0.0
C1506 C 0.72935 0.08695 0.63912 0.0
C1507 C 0.72442 0.07137 0.64042 0.0
C1508 C 0.73883 0.09599 0.62214 0.0
C1509 C 0.76622 0.09829 0.58089 0.0
H1510 H 0.75821 0.12784 0.55362 0.0
C1511 C 0.79386 0.12949 0.49974 0.0
C1512 C 0.79733 0.14457 0.49708 0.0
C1513 C 0.78665 0.12128 0.51869 0.0
C1514 C 0.76079 0.11984 0.56131 0.0
H1515 H 0.72555 0.05308 0.62471 0.0
H1516 H 0.74204 0.06893 0.59474 0.0
H1517 H 0.74157 0.11154 0.5828 0.0
H1518 H 0.7968 0.16318 0.51272 0.0
H1519 H 0.78438 0.1489 0.54612 0.0
H1520 H 0.78537 0.10653 0.55914 0.0
C1521 C 0.73866 0.07413 0.60711 0.0
C1522 C 0.75119 0.11044 0.57799 0.0
C1523 C 0.72913 0.06503 0.62417 0.0
C1524 C 0.79429 0.15159 0.51435 0.0
C1525 C 0.78702 0.14335 0.53333 0.0
C1526 C 0.77583 0.10771 0.56416 0.0
C1527 C 0.74363 0.08973 0.60594 0.0
C1528 C 0.75377 0.09954 0.58797 0.0
C1529 C 0.78273 0.12797 0.53544 0.0
C1530 C 0.7732 0.11857 0.55415 0.0
H1531 H 0.72602 0.09227 0.65137 0.0
H1532 H 0.7426 0.108 0.62192 0.0
H1533 H 0.76866 0.09017 0.58848 0.0
H1534 H 0.79624 0.12384 0.48677 0.0
H1535 H 0.78346 0.10945 0.51971 0.0
C1536 C 0.95448 0.68225 0.60388 0.0
C1537 C 0.95141 0.67193 0.62108 0.0
C1538 C 0.94347 0.67887 0.58729 0.0
C1539 C 0.90547 0.64791 0.56423 0.0
H1540 H 0.90414 0.68275 0.54218 0.0
C1541 C 0.86846 0.6438 0.48863 0.0
C1542 C 0.8635 0.65424 0.48607 0.0
C1543 C 0.87765 0.64475 0.50662 0.0
C1544 C 0.90407 0.67281 0.5484 0.0
H1545 H 0.93467 0.64977 0.63415 0.0
H1546 H 0.9151 0.64405 0.60573 0.0
H1547 H 0.92334 0.68653 0.56963 0.0
H1548 H 0.86339 0.67318 0.50146 0.0
H1549 H 0.8786 0.67425 0.53356 0.0
H1550 H 0.88562 0.6341 0.54382 0.0
C1551 C 0.92616 0.6546 0.60457 0.0
C1552 C 0.9154 0.67503 0.56387 0.0
C1553 C 0.93738 0.65785 0.6209 0.0
C1554 C 0.867 0.66495 0.50284 0.0
C1555 C 0.87598 0.66572 0.52111 0.0
C1556 C 0.89392 0.64565 0.54904 0.0
C1557 C 0.9289 0.66527 0.58786 0.0
C1558 C 0.91647 0.66266 0.57173 0.0
C1559 C 0.88187 0.65596 0.52288 0.0
C1560 C 0.8932 0.6581 0.54063 0.0
H1561 H 0.96527 0.69316 0.60358 0.0
H1562 H 0.94628 0.68715 0.57432 0.0
H1563 H 0.90589 0.63808 0.56976 0.0
H1564 H 0.86568 0.63515 0.47629 0.0
H1565 H 0.88197 0.63707 0.50715 0.0
C1566 C 0.94332 0.66191 0.74461 0.0
C1567 C 0.94883 0.67543 0.73243 0.0
C1568 C 0.9323 0.65807 0.76097 0.0
C1569 C 0.90202 0.66552 0.77785 0.0
H1570 H 0.90785 0.65357 0.83604 0.0
C1571 C 0.87248 0.67079 0.85421 0.0
C1572 C 0.86894 0.66053 0.87168 0.0
C1573 C 0.87987 0.66989 0.83561 0.0
C1574 C 0.90583 0.65657 0.81976 0.0
H1575 H 0.94725 0.69563 0.72824 0.0
H1576 H 0.92819 0.68894 0.75659 0.0
H1577 H 0.92581 0.65728 0.80702 0.0
H1578 H 0.86927 0.64056 0.88265 0.0
H1579 H 0.88197 0.63882 0.84998 0.0
H1580 H 0.88219 0.66503 0.79054 0.0
C1581 C 0.93222 0.68122 0.75336 0.0
C1582 C 0.91618 0.65874 0.80316 0.0
C1583 C 0.94327 0.68511 0.73722 0.0
C1584 C 0.87205 0.64875 0.86955 0.0
C1585 C 0.87939 0.64781 0.8509 0.0
C1586 C 0.89163 0.66326 0.79437 0.0
C1587 C 0.92649 0.6676 0.76526 0.0
C1588 C 0.91459 0.66361 0.78219 0.0
C1589 C 0.88382 0.65866 0.834 0.0
C1590 C 0.89362 0.65911 0.81568 0.0
H1591 H 0.94734 0.6542 0.74131 0.0
H1592 H 0.92808 0.6475 0.76992 0.0
H1593 H 0.90035 0.669 0.7617 0.0
H1594 H 0.87042 0.68011 0.85548 0.0
H1595 H 0.88325 0.67855 0.82306 0.0
C1596 C 0.33109 0.27377 0.73713 0.0
C1597 C 0.34567 0.28731 0.73687 0.0
C1598 C 0.32761 0.26284 0.75354 0.0
C1599 C 0.33693 0.25708 0.80919 0.0
H1600 H 0.32872 0.21747 0.79016 0.0
C1601 C 0.32305 0.20921 0.87061 0.0
C1602 C 0.33358 0.20415 0.87034 0.0
C1603 C 0.32223 0.21767 0.8532 0.0
C1604 C 0.33091 0.22845 0.79564 0.0
H1605 H 0.3677 0.30042 0.75403 0.0
H1606 H 0.36133 0.28165 0.78323 0.0
H1607 H 0.33123 0.23631 0.76273 0.0
H1608 H 0.35064 0.20303 0.85071 0.0
H1609 H 0.34885 0.21755 0.81981 0.0
H1610 H 0.33666 0.24933 0.84203 0.0
C1611 C 0.35274 0.27938 0.77057 0.0
C1612 C 0.33224 0.23915 0.78003 0.0
C1613 C 0.35636 0.2901 0.7539 0.0
C1614 C 0.34238 0.20671 0.8514 0.0
C1615 C 0.3414 0.21505 0.83377 0.0
C1616 C 0.33529 0.2463 0.82477 0.0
C1617 C 0.3385 0.2655 0.77022 0.0
C1618 C 0.33548 0.25363 0.7867 0.0
C1619 C 0.33171 0.22105 0.8349 0.0
C1620 C 0.33247 0.23196 0.81815 0.0
H1621 H 0.32272 0.27128 0.72404 0.0
H1622 H 0.31653 0.25223 0.75303 0.0
H1623 H 0.33948 0.26819 0.81469 0.0
H1624 H 0.31585 0.20712 0.88474 0.0
H1625 H 0.3145 0.22198 0.85431 0.0
C1626 C 0.73937 0.04893 0.74173 0.0
C1627 C 0.72694 0.05086 0.74641 0.0
C1628 C 0.752 0.05437 0.75634 0.0
C1629 C 0.76491 0.06651 0.81323 0.0
H1630 H 0.8042 0.09722 0.78871 0.0
C1631 C 0.81763 0.101 0.86928 0.0
C1632 C 0.82358 0.11678 0.86782 0.0
C1633 C 0.80818 0.09117 0.85253 0.0
C1634 C 0.79335 0.08856 0.79573 0.0
H1635 H 0.71747 0.05906 0.77057 0.0
H1636 H 0.7392 0.06803 0.79641 0.0
H1637 H 0.78186 0.08199 0.76425 0.0
H1638 H 0.82555 0.13478 0.84667 0.0
H1639 H 0.80925 0.11761 0.81717 0.0
H1640 H 0.77615 0.07333 0.84471 0.0
C1641 C 0.7393 0.06251 0.78136 0.0
C1642 C 0.78062 0.07978 0.78176 0.0
C1643 C 0.72688 0.05739 0.76657 0.0
C1644 C 0.82121 0.12269 0.84824 0.0
C1645 C 0.81182 0.11284 0.83137 0.0
C1646 C 0.77767 0.07509 0.82714 0.0
C1647 C 0.75219 0.06148 0.77609 0.0
C1648 C 0.76618 0.06897 0.79045 0.0
C1649 C 0.80462 0.09694 0.83384 0.0
C1650 C 0.79192 0.08646 0.8186 0.0
H1651 H 0.73979 0.04407 0.7262 0.0
H1652 H 0.76178 0.0534 0.75197 0.0
H1653 H 0.75391 0.05825 0.82032 0.0
H1654 H 0.81947 0.09614 0.88403 0.0
H1655 H 0.803 0.07898 0.85469 0.0
C1656 C 0.05201 0.37134 0.01906 0.0
C1657 C 0.03938 0.35805 0.00993 0.0
C1658 C 0.06626 0.37244 0.02257 0.0
C1659 C 0.08873 0.35378 0.00978 0.0
H1660 H 0.10899 0.37179 0.06543 0.0
C1661 C 0.13047 0.34033 0.05695 0.0
C1662 C 0.14168 0.3516 0.07096 0.0
C1663 C 0.1207 0.34332 0.04416 0.0
C1664 C 0.10372 0.367 0.04958 0.0
H1665 H 0.03202 0.33565 0.99676 0.0
H1666 H 0.05665 0.33739 0.00342 0.0
H1667 H 0.08643 0.37267 0.05402 0.0
H1668 H 0.15252 0.37517 0.08113 0.0
H1669 H 0.13591 0.38063 0.05825 0.0
H1670 H 0.10579 0.34753 0.00598 0.0
C1671 C 0.0557 0.34712 0.00749 0.0
C1672 C 0.09071 0.3675 0.04301 0.0
C1673 C 0.04149 0.34607 0.0038 0.0
C1674 C 0.14407 0.36636 0.07024 0.0
C1675 C 0.13438 0.36938 0.05741 0.0
C1676 C 0.10174 0.3532 0.01645 0.0
C1677 C 0.06822 0.36022 0.01725 0.0
C1678 C 0.08288 0.36073 0.02316 0.0
C1679 C 0.12201 0.35765 0.04523 0.0
C1680 C 0.1093 0.35966 0.03657 0.0
H1681 H 0.05083 0.38085 0.02377 0.0
H1682 H 0.07569 0.38284 0.0297 0.0
H1683 H 0.08317 0.34864 0.99422 0.0
H1684 H 0.12821 0.32879 0.05759 0.0
H1685 H 0.11128 0.33401 0.03503 0.0
C1686 C 0.6271 0.68476 0.02856 0.0
C1687 C 0.63919 0.68265 0.02242 0.0
C1688 C 0.62993 0.69938 0.03298 0.0
C1689 C 0.66179 0.73847 0.04775 0.0
H1690 H 0.63141 0.74949 0.03308 0.0
C1691 C 0.67458 0.7983 0.06745 0.0
C1692 C 0.66303 0.79868 0.07933 0.0
C1693 C 0.67128 0.78514 0.05603 0.0
C1694 C 0.64 0.74657 0.0373 0.0
H1695 H 0.66373 0.69436 0.01574 0.0
H1696 H 0.66863 0.71982 0.02303 0.0
H1697 H 0.62662 0.72442 0.02253 0.0
H1698 H 0.63881 0.78603 0.08764 0.0
H1699 H 0.6329 0.76299 0.06748 0.0
H1700 H 0.67509 0.76048 0.06268 0.0
C1701 C 0.65698 0.71017 0.02489 0.0
C1702 C 0.63724 0.73217 0.03135 0.0
C1703 C 0.65416 0.69554 0.02061 0.0
C1704 C 0.64782 0.78612 0.07815 0.0
C1705 C 0.64449 0.7729 0.06673 0.0
C1706 C 0.66458 0.75285 0.05356 0.0
C1707 C 0.64492 0.7123 0.03126 0.0
C1708 C 0.64805 0.72787 0.03667 0.0
C1709 C 0.65636 0.77201 0.05644 0.0
C1710 C 0.65369 0.75708 0.04856 0.0
H1711 H 0.61543 0.67509 0.03017 0.0
H1712 H 0.62039 0.7005 0.03817 0.0
H1713 H 0.67026 0.73552 0.05256 0.0
H1714 H 0.68645 0.80777 0.06844 0.0
H1715 H 0.68062 0.78495 0.04793 0.0
C1716 C 0.30826 0.95171 0.0171 0.0
C1717 C 0.31757 0.96765 0.01951 0.0
C1718 C 0.2922 0.94431 0.01821 0.0
C1719 C 0.26197 0.94804 0.04332 0.0
H1720 H 0.23501 0.91178 0.00882 0.0
C1721 C 0.2004 0.90801 0.07134 0.0
C1722 C 0.19686 0.89289 0.07352 0.0
C1723 C 0.21242 0.91823 0.05779 0.0
C1724 C 0.24235 0.9219 0.01855 0.0
H1725 H 0.3172 0.98836 0.02439 0.0
H1726 H 0.28892 0.9753 0.02667 0.0
H1727 H 0.26204 0.92831 -0.00142 0.0
H1728 H 0.20206 0.87621 0.06197 0.0
H1729 H 0.22307 0.89396 0.03838 0.0
H1730 H 0.24265 0.9413 0.06401 0.0
C1731 C 0.29419 0.96859 0.02388 0.0
C1732 C 0.25784 0.93138 0.01268 0.0
C1733 C 0.31036 0.97607 0.02254 0.0
C1734 C 0.2044 0.88775 0.06023 0.0
C1735 C 0.21652 0.898 0.04679 0.0
C1736 C 0.24651 0.93855 0.04923 0.0
C1737 C 0.28495 0.9526 0.0219 0.0
C1738 C 0.26796 0.94426 0.02546 0.0
C1739 C 0.22125 0.91357 0.04641 0.0
C1740 C 0.23662 0.92508 0.03736 0.0
H1741 H 0.31339 0.94485 0.01461 0.0
H1742 H 0.2855 0.93198 0.01699 0.0
H1743 H 0.26947 0.95778 0.05364 0.0
H1744 H 0.19481 0.91225 0.08165 0.0
H1745 H 0.21551 0.93005 0.0575 0.0
C1746 C 0.35222 0.0476 0.02174 0.0
C1747 C 0.36309 0.0441 0.0142 0.0
C1748 C 0.35328 0.06133 0.01586 0.0
C1749 C 0.37002 0.09133 0.97314 0.0
H1750 H 0.35712 0.11243 0.01179 0.0
C1751 C 0.36968 0.14372 0.94192 0.0
C1752 C 0.35561 0.14303 0.94485 0.0
C1753 C 0.37326 0.1344 0.95431 0.0
C1754 C 0.36076 0.10667 0.00081 0.0
H1755 H 0.38392 0.05261 0.9952 0.0
H1756 H 0.38595 0.07664 0.98532 0.0
H1757 H 0.35816 0.09051 0.02548 0.0
H1758 H 0.33468 0.13284 0.96379 0.0
H1759 H 0.34091 0.11659 0.98564 0.0
H1760 H 0.37234 0.10722 0.94837 0.0
C1761 C 0.37639 0.06863 0.99538 0.0
C1762 C 0.36131 0.09406 0.00862 0.0
C1763 C 0.37528 0.05486 0.00115 0.0
C1764 C 0.34577 0.13382 0.96162 0.0
C1765 C 0.34932 0.12444 0.97401 0.0
C1766 C 0.36954 0.10394 0.9654 0.0
C1767 C 0.36528 0.07197 0.00239 0.0
C1768 C 0.36575 0.08609 0.99478 0.0
C1769 C 0.36275 0.12407 0.96972 0.0
C1770 C 0.36474 0.11168 0.97902 0.0
H1771 H 0.34266 0.03958 0.03179 0.0
H1772 H 0.34439 0.06336 0.02135 0.0
H1773 H 0.3732 0.08536 0.96183 0.0
H1774 H 0.37731 0.15054 0.9288 0.0
H1775 H 0.38383 0.13461 0.95087 0.0
C1776 C 0.94785 0.30326 0.02333 0.0
C1777 C 0.96367 0.31324 0.01921 0.0
C1778 C 0.94068 0.2877 0.01868 0.0
C1779 C 0.94452 0.26224 0.98114 0.0
H1780 H 0.90943 0.23064 0.01299 0.0
C1781 C 0.90706 0.20345 0.94229 0.0
C1782 C 0.89116 0.19804 0.94224 0.0
C1783 C 0.91712 0.21501 0.95679 0.0
C1784 C 0.91921 0.23932 0.00391 0.0
H1785 H 0.98455 0.31447 0.00821 0.0
H1786 H 0.972 0.28721 0.00016 0.0
H1787 H 0.92535 0.25603 0.02922 0.0
H1788 H 0.87311 0.19966 0.95804 0.0
H1789 H 0.89065 0.22002 0.98328 0.0
H1790 H 0.9381 0.24589 0.95544 0.0
C1791 C 0.96512 0.29151 0.00674 0.0
C1792 C 0.92834 0.25387 0.01321 0.0
C1793 C 0.97233 0.30713 0.01146 0.0
C1794 C 0.88531 0.20351 0.95806 0.0
C1795 C 0.8954 0.2152 0.97246 0.0
C1796 C 0.93541 0.24774 0.97185 0.0
C1797 C 0.94911 0.28168 0.00977 0.0
C1798 C 0.94087 0.26562 0.00168 0.0
C1799 C 0.91151 0.22158 0.9713 0.0
C1800 C 0.92241 0.23618 0.98286 0.0
H1801 H 0.94082 0.30755 0.02941 0.0
H1802 H 0.92832 0.28055 0.02102 0.0
H1803 H 0.9539 0.27104 0.9716 0.0
H1804 H 0.91181 0.19943 0.9301 0.0
H1805 H 0.92941 0.21939 0.95577 0.0
C1806 C 0.69384 0.63609 0.99447 0.0
C1807 C 0.68845 0.64616 0.99707 0.0
C1808 C 0.70963 0.64153 0.99359 0.0
C1809 C 0.74385 0.65478 0.00161 0.0
H1810 H 0.768 0.68885 0.96267 0.0
C1811 C 0.80803 0.69175 0.95806 0.0
C1812 C 0.80921 0.67953 0.95036 0.0
C1813 C 0.79514 0.68904 0.96992 0.0
C1814 C 0.76159 0.67953 0.97402 0.0
H1815 H 0.6956 0.66991 0.00127 0.0
H1816 H 0.72339 0.6795 -0.00038 0.0
H1817 H 0.7418 0.68187 0.97161 0.0
H1818 H 0.79848 0.65499 0.95031 0.0
H1819 H 0.7759 0.65016 0.971 0.0
H1820 H 0.7635 0.65213 0.00341 0.0
C1821 C 0.71525 0.66734 -0.00182 0.0
C1822 C 0.74651 0.67552 0.97912 0.0
C1823 C 0.69934 0.66185 -0.00081 0.0
C1824 C 0.79795 0.66461 0.95636 0.0
C1825 C 0.78497 0.66187 0.96814 0.0
C1826 C 0.75895 0.6588 0.99652 0.0
C1827 C 0.72056 0.65722 0.99524 0.0
C1828 C 0.7373 0.66285 0.99251 0.0
C1829 C 0.78308 0.67404 0.97416 0.0
C1830 C 0.76789 0.67101 0.98223 0.0
H1831 H 0.68583 0.62391 0.99284 0.0
H1832 H 0.71324 0.63342 0.99094 0.0
H1833 H 0.73716 0.64511 0.01231 0.0
H1834 H 0.81657 0.70336 0.95355 0.0
H1835 H 0.79424 0.69869 0.97473 0.0
C1836 C 0.96628 0.65392 0.03252 0.0
C1837 C 0.9745 0.65154 0.0162 0.0
C1838 C 0.95446 0.65665 0.0268 0.0
C1839 C 0.94051 0.67039 0.98098 0.0
H1840 H 0.90139 0.64989 0.01132 0.0
C1841 C 0.87518 0.65455 0.96075 0.0
C1842 C 0.87825 0.66841 0.95151 0.0
C1843 C 0.88656 0.65381 0.97309 0.0
C1844 C 0.91228 0.65576 0.00276 0.0
H1845 H 0.9766 0.65006 0.98103 0.0
H1846 H 0.95604 0.65485 0.97108 0.0
H1847 H 0.92205 0.64553 0.0229 0.0
H1848 H 0.89524 0.69248 0.94873 0.0
H1849 H 0.91512 0.69133 0.97066 0.0
H1850 H 0.93069 0.6803 0.96047 0.0
C1851 C 0.95881 0.65471 0.98832 0.0
C1852 C 0.92414 0.65333 0.00947 0.0
C1853 C 0.97053 0.65186 0.99403 0.0
C1854 C 0.89249 0.68173 0.95611 0.0
C1855 C 0.90394 0.681 0.96835 0.0
C1856 C 0.92872 0.67291 0.97441 0.0
C1857 C 0.95067 0.65721 0.00462 0.0
C1858 C 0.93832 0.66042 -0.00159 0.0
C1859 C 0.90133 0.66691 0.97617 0.0
C1860 C 0.91437 0.66548 0.985 0.0
H1861 H 0.96901 0.65376 0.04976 0.0
H1862 H 0.94849 0.65862 0.03975 0.0
H1863 H 0.95135 0.67618 0.97229 0.0
H1864 H 0.86441 0.64407 0.95693 0.0
H1865 H 0.88418 0.64276 0.97869 0.0
C1866 C 0.33882 0.30331 0.0144 0.0
C1867 C 0.35228 0.31769 0.01161 0.0
C1868 C 0.33871 0.28992 0.00965 0.0
C1869 C 0.36045 0.27596 0.97879 0.0
H1870 H 0.33409 0.23859 0.01083 0.0
C1871 C 0.35799 0.22084 0.95547 0.0
C1872 C 0.34294 0.20893 0.95023 0.0
C1873 C 0.36036 0.23333 0.96787 0.0
C1874 C 0.34155 0.24895 0.00181 0.0
H1875 H 0.37631 0.32927 0.00209 0.0
H1876 H 0.37631 0.30598 0.99444 0.0
H1877 H 0.33603 0.26232 0.02223 0.0
H1878 H 0.31861 0.20017 0.95493 0.0
H1879 H 0.32268 0.22174 0.97719 0.0
H1880 H 0.36592 0.26257 0.95837 0.0
C1881 C 0.36566 0.30498 -0.00027 0.0
C1882 C 0.34258 0.26256 0.0082 0.0
C1883 C 0.3657 0.31837 0.00421 0.0
C1884 C 0.33032 0.20904 0.95925 0.0
C1885 C 0.33268 0.22146 0.97184 0.0
C1886 C 0.35956 0.26242 0.9726 0.0
C1887 C 0.35213 0.29054 0.00224 0.0
C1888 C 0.35185 0.27622 0.99654 0.0
C1889 C 0.34769 0.2341 0.97531 0.0
C1890 C 0.34993 0.24871 0.98381 0.0
H1891 H 0.32825 0.30236 0.01997 0.0
H1892 H 0.32798 0.27911 0.0114 0.0
H1893 H 0.36748 0.28609 0.96909 0.0
H1894 H 0.36787 0.22115 0.94827 0.0
H1895 H 0.37206 0.24283 0.97048 0.0
C1896 C 0.7022 0.04551 0.00402 0.0
C1897 C 0.69307 0.0518 0.00857 0.0
C1898 C 0.71818 0.05505 0.00095 0.0
C1899 C 0.74587 0.09405 0.98282 0.0
H1900 H 0.7772 0.08528 0.00173 0.0
C1901 C 0.80784 0.13218 0.95353 0.0
C1902 C 0.81434 0.12415 0.94491 0.0
C1903 C 0.79494 0.12478 0.96712 0.0
C1904 C 0.76859 0.08789 0.99627 0.0
H1905 H 0.69377 0.07295 0.01495 0.0
H1906 H 0.72142 0.08939 0.00978 0.0
H1907 H 0.75051 0.06886 0.01378 0.0
H1908 H 0.81357 0.10265 0.94567 0.0
H1909 H 0.79098 0.08967 0.96878 0.0
H1910 H 0.76354 0.11257 0.96457 0.0
C1911 C 0.71626 0.07717 0.0081 0.0
C1912 C 0.7533 0.07845 0.00317 0.0
C1913 C 0.70038 0.06771 0.01112 0.0
C1914 C 0.80866 0.10907 0.95187 0.0
C1915 C 0.79573 0.10165 0.96528 0.0
C1916 C 0.76106 0.10337 0.97582 0.0
C1917 C 0.72529 0.07102 0.0024 0.0
C1918 C 0.74175 0.08136 0.99633 0.0
C1919 C 0.78825 0.10919 0.97224 0.0
C1920 C 0.77261 0.10034 0.9822 0.0
H1921 H 0.69694 0.03331 0.00199 0.0
H1922 H 0.72483 0.04997 0.99647 0.0
H1923 H 0.73721 0.09646 0.97692 0.0
H1924 H 0.81197 0.14381 0.94848 0.0
H1925 H 0.78973 0.13107 0.97267 0.0
C1926 C 0.64425 0.96153 0.0205 0.0
C1927 C 0.65835 0.9756 0.02069 0.0
C1928 C 0.64396 0.94786 0.02394 0.0
C1929 C 0.66898 0.93102 0.02483 0.0
H1930 H 0.63792 0.90163 0.06422 0.0
C1931 C 0.67503 0.88582 0.07379 0.0
C1932 C 0.66156 0.87213 0.07948 0.0
C1933 C 0.67408 0.89683 0.06132 0.0
C1934 C 0.64649 0.90952 0.0528 0.0
H1935 H 0.68324 0.98624 0.0243 0.0
H1936 H 0.6827 0.96254 0.0306 0.0
H1937 H 0.6372 0.92406 0.05321 0.0
H1938 H 0.63668 0.85876 0.07569 0.0
H1939 H 0.63497 0.87772 0.05325 0.0
H1940 H 0.67853 0.91663 0.02502 0.0
C1941 C 0.67186 0.96199 0.02748 0.0
C1942 C 0.64609 0.92245 0.04651 0.0
C1943 C 0.67215 0.97563 0.02403 0.0
C1944 C 0.64724 0.86912 0.07112 0.0
C1945 C 0.64627 0.8801 0.05861 0.0
C1946 C 0.66939 0.91808 0.03116 0.0
C1947 C 0.65776 0.94792 0.02765 0.0
C1948 C 0.65747 0.93351 0.03273 0.0
C1949 C 0.65961 0.89439 0.05444 0.0
C1950 C 0.65828 0.90726 0.0455 0.0
H1951 H 0.63341 0.96107 0.01786 0.0
H1952 H 0.63289 0.93724 0.02369 0.0
H1953 H 0.67778 0.93917 0.01389 0.0
H1954 H 0.68615 0.88853 0.08056 0.0
H1955 H 0.68458 0.90772 0.05861 0.0
C1956 C 0.07088 0.69848 0.01919 0.0
C1957 C 0.0547 0.69106 0.02072 0.0
C1958 C 0.08019 0.71427 0.02166 0.0
C1959 C 0.08005 0.75041 0.02336 0.0
H1960 H 0.1161 0.76356 0.06103 0.0
C1961 C 0.11072 0.80694 0.0719 0.0
C1962 C 0.12646 0.81362 0.07753 0.0
C1963 C 0.10315 0.79365 0.05921 0.0
C1964 C 0.10632 0.76022 0.05004 0.0
H1965 H 0.03558 0.69458 0.02522 0.0
H1966 H 0.05192 0.72227 0.03 0.0
H1967 H 0.10021 0.73693 0.05067 0.0
H1968 H 0.14698 0.81253 0.07257 0.0
H1969 H 0.13386 0.78948 0.04984 0.0
H1970 H 0.08601 0.77376 0.02338 0.0
C1971 C 0.05738 0.71581 0.02661 0.0
C1972 C 0.09712 0.74486 0.04415 0.0
C1973 C 0.04801 0.69994 0.02398 0.0
C1974 C 0.13485 0.80764 0.06841 0.0
C1975 C 0.12727 0.79432 0.05567 0.0
C1976 C 0.08929 0.76583 0.02928 0.0
C1977 C 0.07361 0.72312 0.02591 0.0
C1978 C 0.08377 0.7397 0.03095 0.0
C1979 C 0.11117 0.78676 0.05184 0.0
C1980 C 0.10243 0.77089 0.04295 0.0
H1981 H 0.07645 0.69205 0.01637 0.0
H1982 H 0.09261 0.71953 0.02052 0.0
H1983 H 0.06996 0.74686 0.01294 0.0
H1984 H 0.104 0.81137 0.0787 0.0
H1985 H 0.09076 0.78818 0.05669 0.0
C1986 C 0.31056 0.36757 0.02155 0.0
C1987 C 0.31717 0.35845 0.02238 0.0
C1988 C 0.29455 0.361 0.0215 0.0
C1989 C 0.25948 0.32729 0.04078 0.0
H1990 H 0.23944 0.34541 0.00901 0.0
C1991 C 0.19899 0.31188 0.0651 0.0
C1992 C 0.19793 0.32475 0.06935 0.0
C1993 C 0.21087 0.31313 0.05216 0.0
C1994 C 0.24482 0.34018 0.01797 0.0
H1995 H 0.31205 0.33514 0.02317 0.0
H1996 H 0.28385 0.32356 0.0234 0.0
H1997 H 0.26595 0.35295 0.00027 0.0
H1998 H 0.20751 0.34861 0.06185 0.0
H1999 H 0.2283 0.35091 0.03934 0.0
H2000 H 0.23878 0.31514 0.0593 0.0
C2001 C 0.29119 0.33587 0.02276 0.0
C2002 C 0.26002 0.34449 0.01295 0.0
C2003 C 0.30731 0.34249 0.02258 0.0
C2004 C 0.20794 0.33847 0.05854 0.0
C2005 C 0.21993 0.33977 0.04572 0.0
C2006 C 0.24432 0.32302 0.04586 0.0
C2007 C 0.28464 0.34509 0.02241 0.0
C2008 C 0.2677 0.33847 0.02481 0.0
C2009 C 0.22205 0.32732 0.0434 0.0
C2010 C 0.23695 0.32976 0.035 0.0
H2011 H 0.31777 0.3799 0.02124 0.0
H2012 H 0.28996 0.36846 0.02157 0.0
H2013 H 0.26508 0.32254 0.05038 0.0
H2014 H 0.19143 0.30119 0.07338 0.0
H2015 H 0.21192 0.30322 0.05027 0.0
C2016 C 0.71012 0.68113 0.33406 0.0
C2017 C 0.70855 0.69322 0.34135 0.0
C2018 C 0.72349 0.68081 0.33904 0.0
C2019 C 0.75624 0.69675 0.37904 0.0
H2020 H 0.77156 0.67763 0.34071 0.0
C2021 C 0.80639 0.69035 0.40788 0.0
C2022 C 0.803 0.67526 0.40702 0.0
C2023 C 0.79776 0.69484 0.39527 0.0
C2024 C 0.76744 0.68304 0.35155 0.0
H2025 H 0.7201 0.71479 0.35884 0.0
H2026 H 0.74359 0.71447 0.36703 0.0
H2027 H 0.75066 0.68124 0.32788 0.0
H2028 H 0.78873 0.65327 0.39144 0.0
H2029 H 0.77372 0.66109 0.36909 0.0
H2030 H 0.77282 0.69836 0.40278 0.0
C2031 C 0.73432 0.70499 0.35795 0.0
C2032 C 0.7554 0.68504 0.34427 0.0
C2033 C 0.72087 0.70523 0.35316 0.0
C2034 C 0.79177 0.66507 0.39195 0.0
C2035 C 0.78313 0.66955 0.37929 0.0
C2036 C 0.76833 0.69487 0.3862 0.0
C2037 C 0.73572 0.69265 0.35128 0.0
C2038 C 0.74945 0.69169 0.35808 0.0
C2039 C 0.7855 0.68426 0.38168 0.0
C2040 C 0.77394 0.6878 0.3727 0.0
H2041 H 0.70083 0.67166 0.32498 0.0
H2042 H 0.72399 0.671 0.33389 0.0
H2043 H 0.75183 0.70162 0.39036 0.0
H2044 H 0.81481 0.69831 0.4197 0.0
H2045 H 0.80003 0.70631 0.39723 0.0
C2046 C 0.3182 0.02952 0.33355 0.0
C2047 C 0.31652 0.01922 0.35023 0.0
C2048 C 0.31872 0.04308 0.3386 0.0
C2049 C 0.30918 0.06179 0.38253 0.0
H2050 H 0.33897 0.09919 0.35328 0.0
C2051 C 0.3435 0.12944 0.40241 0.0
C2052 C 0.33156 0.13052 0.4119 0.0
C2053 C 0.3402 0.11652 0.39034 0.0
C2054 C 0.33055 0.08885 0.36158 0.0
H2055 H 0.31407 0.01518 0.38536 0.0
H2056 H 0.3152 0.03886 0.39419 0.0
H2057 H 0.33635 0.0751 0.34256 0.0
H2058 H 0.30678 0.11948 0.41511 0.0
H2059 H 0.30087 0.09694 0.39348 0.0
H2060 H 0.30389 0.07561 0.40226 0.0
C2061 C 0.31586 0.03637 0.37713 0.0
C2062 C 0.32895 0.07499 0.3553 0.0
C2063 C 0.31533 0.02281 0.37208 0.0
C2064 C 0.31616 0.119 0.40767 0.0
C2065 C 0.31283 0.106 0.3956 0.0
C2066 C 0.31079 0.07565 0.38882 0.0
C2067 C 0.31756 0.0467 0.36046 0.0
C2068 C 0.31845 0.0613 0.36598 0.0
C2069 C 0.32485 0.10433 0.38758 0.0
C2070 C 0.32169 0.08941 0.37871 0.0
H2071 H 0.31909 0.02712 0.31652 0.0
H2072 H 0.31986 0.05066 0.3253 0.0
H2073 H 0.30079 0.05147 0.39089 0.0
H2074 H 0.35548 0.13808 0.40578 0.0
H2075 H 0.34978 0.11565 0.38464 0.0
C2076 C 0.98 0.2832 0.34626 0.0
C2077 C 0.98827 0.29755 0.35647 0.0
C2078 C 0.96417 0.27357 0.34961 0.0
C2079 C 0.92951 0.27169 0.37428 0.0
H2080 H 0.91522 0.22859 0.37747 0.0
C2081 C 0.86731 0.22857 0.40045 0.0
C2082 C 0.86562 0.21722 0.41512 0.0
C2083 C 0.88098 0.23713 0.38869 0.0
C2084 C 0.91898 0.24058 0.37681 0.0
H2085 H 0.98647 0.31333 0.37776 0.0
H2086 H 0.95891 0.29621 0.3847 0.0
H2087 H 0.94162 0.24661 0.36729 0.0
H2088 H 0.87649 0.2055 0.42866 0.0
H2089 H 0.90047 0.22056 0.40876 0.0
H2090 H 0.90719 0.26574 0.38552 0.0
C2091 C 0.96448 0.2925 0.37347 0.0
C2092 C 0.93416 0.25098 0.37055 0.0
C2093 C 0.98031 0.30233 0.36962 0.0
C2094 C 0.87742 0.21396 0.417 0.0
C2095 C 0.8912 0.22268 0.40557 0.0
C2096 C 0.9144 0.26131 0.38094 0.0
C2097 C 0.95624 0.27784 0.36381 0.0
C2098 C 0.93972 0.26673 0.36936 0.0
C2099 C 0.89339 0.23476 0.39183 0.0
C2100 C 0.90896 0.2456 0.38257 0.0
H2101 H 0.98583 0.27934 0.33576 0.0
H2102 H 0.95824 0.26266 0.34124 0.0
H2103 H 0.9332 0.28365 0.37322 0.0
H2104 H 0.8584 0.23139 0.39903 0.0
H2105 H 0.88203 0.24603 0.37788 0.0
C2106 C 0.05523 0.39838 0.33265 0.0
C2107 C 0.04277 0.38371 0.3376 0.0
C2108 C 0.05288 0.41054 0.32915 0.0
C2109 C 0.02237 0.41856 0.31318 0.0
H2110 H 0.05316 0.45982 0.33096 0.0
C2111 C 0.01521 0.4687 0.2881 0.0
C2112 C 0.02835 0.48077 0.27818 0.0
C2113 C 0.01639 0.45782 0.30067 0.0
C2114 C 0.04444 0.44837 0.32587 0.0
H2115 H 0.01806 0.37047 0.34322 0.0
H2116 H 0.01399 0.39167 0.3373 0.0
H2117 H 0.05631 0.43865 0.342 0.0
H2118 H 0.05308 0.49151 0.27462 0.0
H2119 H 0.05526 0.4728 0.29674 0.0
H2120 H 0.01071 0.42827 0.29656 0.0
C2121 C 0.02557 0.39375 0.33583 0.0
C2122 C 0.04627 0.43622 0.33214 0.0
C2123 C 0.02793 0.38158 0.33933 0.0
C2124 C 0.04284 0.48247 0.28249 0.0
C2125 C 0.04404 0.47167 0.2951 0.0
C2126 C 0.02054 0.4307 0.30693 0.0
C2127 C 0.038 0.40837 0.33052 0.0
C2128 C 0.03541 0.42118 0.32552 0.0
C2129 C 0.03074 0.45883 0.30354 0.0
C2130 C 0.03169 0.44581 0.31283 0.0
H2131 H 0.06682 0.40046 0.33116 0.0
H2132 H 0.0627 0.42156 0.32479 0.0
H2133 H 0.01386 0.40719 0.30752 0.0
H2134 H 1.00388 0.46699 0.28465 0.0
H2135 H 0.00594 0.44821 0.3072 0.0
C2136 C 0.64032 0.645 0.33482 0.0
C2137 C 0.63216 0.65222 0.33994 0.0
C2138 C 0.63242 0.62916 0.3316 0.0
C2139 C 0.59448 0.59314 0.33983 0.0
H2140 H 0.60397 0.58068 0.28534 0.0
C2141 C 0.54993 0.54092 0.28938 0.0
C2142 C 0.55514 0.53387 0.27524 0.0
C2143 C 0.56045 0.55309 0.30277 0.0
C2144 C 0.60133 0.58378 0.30091 0.0
H2145 H 0.60941 0.64833 0.34681 0.0
H2146 H 0.59575 0.62093 0.34119 0.0
H2147 H 0.62074 0.60659 0.29863 0.0
H2148 H 0.57507 0.53312 0.26494 0.0
H2149 H 0.59342 0.55395 0.28895 0.0
H2150 H 0.57474 0.57044 0.3417 0.0
C2151 C 0.60822 0.6274 0.33973 0.0
C2152 C 0.61099 0.59871 0.30852 0.0
C2153 C 0.61607 0.64318 0.34276 0.0
C2154 C 0.57079 0.53829 0.27598 0.0
C2155 C 0.5813 0.55037 0.28947 0.0
C2156 C 0.58483 0.57817 0.33226 0.0
C2157 C 0.61623 0.62021 0.33368 0.0
C2158 C 0.60743 0.60371 0.32772 0.0
C2159 C 0.57639 0.55843 0.30221 0.0
C2160 C 0.58789 0.57341 0.31236 0.0
H2161 H 0.65272 0.65163 0.33258 0.0
H2162 H 0.63894 0.62394 0.32711 0.0
H2163 H 0.59155 0.59657 0.35488 0.0
H2164 H 0.53796 0.53789 0.2887 0.0
H2165 H 0.55622 0.55906 0.31217 0.0
C2166 C 0.36884 0.99374 0.347 0.0
C2167 C 0.35857 0.97888 0.35459 0.0
C2168 C 0.38448 0.9987 0.34376 0.0
C2169 C 0.40739 0.9819 0.32963 0.0
H2170 H 0.44307 0.02235 0.33963 0.0
C2171 C 0.4658 0.99678 0.2953 0.0
C2172 C 0.47367 0.01078 0.28418 0.0
C2173 C 0.45391 0.99372 0.3098 0.0
C2174 C 0.43322 0.011 0.33663 0.0
H2175 H 0.35691 0.95813 0.36668 0.0
H2176 H 0.38398 0.9668 0.36126 0.0
H2177 H 0.41783 0.01592 0.35353 0.0
H2178 H 0.47643 0.03314 0.28134 0.0
H2179 H 0.45549 0.02769 0.3058 0.0
H2180 H 0.42229 0.97706 0.31182 0.0
C2181 C 0.37998 0.9745 0.35729 0.0
C2182 C 0.41877 0.00735 0.34463 0.0
C2183 C 0.36446 0.96956 0.36045 0.0
C2184 C 0.47038 0.02213 0.28941 0.0
C2185 C 0.45842 0.01903 0.30365 0.0
C2186 C 0.42172 0.98558 0.32146 0.0
C2187 C 0.39004 0.98887 0.34811 0.0
C2188 C 0.40568 0.99278 0.34104 0.0
C2189 C 0.44956 0.00455 0.3133 0.0
C2190 C 0.43483 1.00023 0.32457 0.0
H2191 H 0.36464 1.00117 0.34234 0.0
H2192 H 0.39196 0.00985 0.33663 0.0
H2193 H 0.39748 0.97065 0.32622 0.0
H2194 H 0.46807 0.98781 0.29169 0.0
H2195 H 0.44765 0.98258 0.31742 0.0
C2196 C 0.62339 0.97306 0.34367 0.0
C2197 C 0.63623 0.98468 0.35525 0.0
C2198 C 0.61052 0.97433 0.33894 0.0
C2199 C 0.59966 1.00287 0.33004 0.0
H2200 H 0.55772 0.96843 0.33498 0.0
C2201 C 0.54871 0.0071 0.29589 0.0
C2202 C 0.53835 0.99463 0.28273 0.0
C2203 C 0.55903 0.00592 0.31026 0.0
C2204 C 0.56935 0.97817 0.33341 0.0
H2205 H 0.64551 0.00668 0.37113 0.0
H2206 H 0.62315 0.00896 0.36259 0.0
H2207 H 0.57931 0.9662 0.3484 0.0
H2208 H 0.52974 0.97089 0.27545 0.0
H2209 H 0.54762 0.96881 0.30013 0.0
H2210 H 0.58991 0.01463 0.31407 0.0
C2211 C 0.62304 0.99887 0.35723 0.0
C2212 C 0.58172 0.97686 0.34112 0.0
C2213 C 0.63583 0.99752 0.36218 0.0
C2214 C 0.53759 0.98066 0.28552 0.0
C2215 C 0.54786 0.97948 0.29976 0.0
C2216 C 0.58732 0.00413 0.3221 0.0
C2217 C 0.61027 0.98733 0.34546 0.0
C2218 C 0.59703 0.98911 0.33914 0.0
C2219 C 0.55917 0.99226 0.31166 0.0
C2220 C 0.572 0.99168 0.32323 0.0
H2221 H 0.62331 0.96301 0.33812 0.0
H2222 H 0.60093 0.96532 0.32965 0.0
H2223 H 0.61134 0.01248 0.32811 0.0
H2224 H 0.5496 0.01803 0.2939 0.0
H2225 H 0.56737 0.01592 0.31949 0.0
C2226 C 0.01379 0.64287 0.34539 0.0
C2227 C 0.02469 0.65758 0.33791 0.0
C2228 C 0.01517 0.63035 0.34027 0.0
C2229 C 0.03392 0.61778 0.30068 0.0
H2230 H 0.02017 0.58396 0.34125 0.0
C2231 C 0.03607 0.56506 0.27637 0.0
C2232 C 0.02183 0.55134 0.27847 0.0
C2233 C 0.03889 0.57821 0.28744 0.0
C2234 C 0.02408 0.59333 0.32976 0.0
H2235 H 0.0458 0.67067 0.31949 0.0
H2236 H 0.04842 0.64895 0.31096 0.0
H2237 H 0.0202 0.60677 0.35251 0.0
H2238 H 0.99973 0.5403 0.29458 0.0
H2239 H 0.00473 0.56311 0.31439 0.0
H2240 H 0.03766 0.60428 0.27788 0.0
C2241 C 0.03858 0.64698 0.32041 0.0
C2242 C 0.02401 0.60639 0.33614 0.0
C2243 C 0.03712 0.65949 0.32538 0.0
C2244 C 0.01096 0.55067 0.29317 0.0
C2245 C 0.0138 0.56377 0.30437 0.0
C2246 C 0.03411 0.60479 0.29438 0.0
C2247 C 0.02757 0.6322 0.32766 0.0
C2248 C 0.02869 0.61871 0.32155 0.0
C2249 C 0.0275 0.57787 0.30081 0.0
C2250 C 0.02898 0.5923 0.30871 0.0
H2251 H 1.00403 0.64096 0.35501 0.0
H2252 H 0.00629 0.61916 0.34584 0.0
H2253 H 0.03736 0.62686 0.2888 0.0
H2254 H 0.04448 0.56593 0.26472 0.0
H2255 H 0.04964 0.58884 0.28456 0.0
C2256 C 0.36779 0.39768 0.33946 0.0
C2257 C 0.36023 0.38166 0.34027 0.0
C2258 C 0.3838 0.40663 0.3373 0.0
C2259 C 0.41873 0.42427 0.33991 0.0
H2260 H 0.43594 0.40999 0.29659 0.0
C2261 C 0.4782 0.44373 0.28792 0.0
C2262 C 0.48097 0.45775 0.27966 0.0
C2263 C 0.46566 0.43493 0.30157 0.0
C2264 C 0.43147 0.41407 0.30909 0.0
H2265 H 0.36377 0.36256 0.34044 0.0
H2266 H 0.39188 0.37826 0.33693 0.0
H2267 H 0.4096 0.39316 0.3086 0.0
H2268 H 0.47367 0.47415 0.28055 0.0
H2269 H 0.45169 0.45877 0.30446 0.0
H2270 H 0.44049 0.44548 0.33949 0.0
C2271 C 0.3853 0.38386 0.33761 0.0
C2272 C 0.4163 0.40437 0.31601 0.0
C2273 C 0.3692 0.37485 0.33972 0.0
C2274 C 0.47186 0.46346 0.28691 0.0
C2275 C 0.45925 0.4546 0.30055 0.0
C2276 C 0.4339 0.43402 0.33287 0.0
C2277 C 0.39278 0.39986 0.33598 0.0
C2278 C 0.40959 0.40945 0.33112 0.0
C2279 C 0.45558 0.43992 0.30714 0.0
C2280 C 0.44034 0.42912 0.31704 0.0
H2281 H 0.36129 0.40336 0.33988 0.0
H2282 H 0.38905 0.41887 0.33575 0.0
H2283 H 0.41403 0.42848 0.35188 0.0
H2284 H 0.4851 0.43912 0.28256 0.0
H2285 H 0.46334 0.42381 0.30674 0.0
C2286 C 0.32204 0.29818 0.34981 0.0
C2287 C 0.30681 0.2952 0.34976 0.0
C2288 C 0.32499 0.28643 0.35351 0.0
C2289 C 0.30617 0.24405 0.35476 0.0
H2290 H 0.3402 0.25281 0.39437 0.0
C2291 C 0.31006 0.19821 0.40486 0.0
C2292 C 0.32466 0.20072 0.41085 0.0
C2293 C 0.30876 0.20886 0.39201 0.0
C2294 C 0.33085 0.25019 0.38289 0.0
H2295 H 0.28273 0.2774 0.35324 0.0
H2296 H 0.28788 0.257 0.36 0.0
H2297 H 0.33618 0.27328 0.3831 0.0
H2298 H 0.34931 0.21582 0.4072 0.0
H2299 H 0.34713 0.23434 0.38421 0.0
H2300 H 0.30058 0.22082 0.35514 0.0
C2301 C 0.29755 0.26838 0.35686 0.0
C2302 C 0.32851 0.26196 0.37645 0.0
C2303 C 0.2946 0.28013 0.35313 0.0
C2304 C 0.33793 0.21349 0.4024 0.0
C2305 C 0.33665 0.2242 0.38957 0.0
C2306 C 0.3085 0.23225 0.36122 0.0
C2307 C 0.3128 0.27139 0.35729 0.0
C2308 C 0.31598 0.25902 0.36261 0.0
C2309 C 0.32207 0.22235 0.38505 0.0
C2310 C 0.32072 0.23511 0.37568 0.0
H2311 H 0.33173 0.30963 0.34714 0.0
H2312 H 0.33686 0.28916 0.35341 0.0
H2313 H 0.29657 0.2414 0.34375 0.0
H2314 H 0.29968 0.18862 0.41163 0.0
H2315 H 0.29736 0.20707 0.38907 0.0
C2316 C 0.72846 0.02893 0.35812 0.0
C2317 C 0.7122 0.02074 0.35878 0.0
C2318 C 0.73696 0.04479 0.36039 0.0
C2319 C 0.75261 0.07922 0.35711 0.0
H2320 H 0.7409 0.09506 0.40575 0.0
C2321 C 0.77467 0.13757 0.41292 0.0
C2322 C 0.79004 0.14152 0.41654 0.0
C2323 C 0.76464 0.12488 0.4 0.0
C2324 C 0.7442 0.09099 0.39175 0.0
H2325 H 0.69213 0.02295 0.36163 0.0
H2326 H 0.70704 0.05075 0.36568 0.0
H2327 H 0.72398 0.06871 0.39429 0.0
H2328 H 0.80729 0.13596 0.40879 0.0
H2329 H 0.78988 0.11377 0.38627 0.0
H2330 H 0.7731 0.10141 0.35506 0.0
C2331 C 0.71318 0.04481 0.36352 0.0
C2332 C 0.73446 0.07581 0.3852 0.0
C2333 C 0.70463 0.02889 0.36112 0.0
C2334 C 0.79556 0.1333 0.40578 0.0
C2335 C 0.78553 0.12054 0.39295 0.0
C2336 C 0.76235 0.09443 0.36362 0.0
C2337 C 0.72946 0.05293 0.36346 0.0
C2338 C 0.73873 0.06961 0.36819 0.0
C2339 C 0.76976 0.11576 0.39073 0.0
C2340 C 0.75845 0.10041 0.38141 0.0
H2341 H 0.7347 0.02306 0.35628 0.0
H2342 H 0.74947 0.05061 0.36057 0.0
H2343 H 0.75612 0.07487 0.34368 0.0
H2344 H 0.77013 0.14363 0.42139 0.0
H2345 H 0.75267 0.12171 0.39831 0.0
C2346 C 0.97207 0.67664 0.3535 0.0
C2347 C 0.9813 0.69143 0.34503 0.0
C2348 C 0.956 0.67012 0.35517 0.0
C2349 C 0.92879 0.6834 0.36118 0.0
H2350 H 0.89684 0.64067 0.35633 0.0
C2351 C 0.86859 0.66497 0.38993 0.0
C2352 C 0.86273 0.65278 0.40482 0.0
C2353 C 0.88039 0.66755 0.37561 0.0
C2354 C 0.90562 0.65265 0.35773 0.0
H2355 H 0.98092 0.71037 0.3297 0.0
H2356 H 0.95311 0.69892 0.33192 0.0
H2357 H 0.92329 0.64912 0.34532 0.0
H2358 H 0.86302 0.63254 0.41431 0.0
H2359 H 0.88375 0.63717 0.38988 0.0
H2360 H 0.91162 0.68701 0.37445 0.0
C2361 C 0.95817 0.69251 0.33805 0.0
C2362 C 0.92078 0.65747 0.35147 0.0
C2363 C 0.97411 0.69905 0.33669 0.0
C2364 C 0.86749 0.64216 0.40317 0.0
C2365 C 0.87937 0.6448 0.38905 0.0
C2366 C 0.91376 0.67862 0.36748 0.0
C2367 C 0.94897 0.67827 0.34816 0.0
C2368 C 0.93257 0.67291 0.35333 0.0
C2369 C 0.88663 0.65805 0.37607 0.0
C2370 C 0.90197 0.66315 0.36614 0.0
H2371 H 0.97735 0.67054 0.36004 0.0
H2372 H 0.94924 0.65912 0.36307 0.0
H2373 H 0.93761 0.69533 0.36334 0.0
H2374 H 0.86511 0.67331 0.39077 0.0
H2375 H 0.88538 0.67761 0.36531 0.0
C2376 C 0.37616 0.01517 0.67133 0.0
C2377 C 0.37336 0.02646 0.67874 0.0
C2378 C 0.39012 0.01601 0.67638 0.0
C2379 C 0.42303 0.03401 0.71626 0.0
H2380 H 0.44097 0.01787 0.67712 0.0
C2381 C 0.47704 0.03395 0.74351 0.0
C2382 C 0.4753 0.01946 0.74265 0.0
C2383 C 0.46725 0.03707 0.73115 0.0
C2384 C 0.43611 0.02245 0.68819 0.0
H2385 H 0.38331 0.04776 0.69671 0.0
H2386 H 0.40781 0.04947 0.70505 0.0
H2387 H 0.41845 0.01902 0.66494 0.0
H2388 H 0.46293 0.99734 0.72691 0.0
H2389 H 0.44589 1.00281 0.705 0.0
H2390 H 0.44052 0.0373 0.73957 0.0
C2391 C 0.39906 0.03972 0.69579 0.0
C2392 C 0.42314 0.02304 0.68129 0.0
C2393 C 0.38502 0.0388 0.69091 0.0
C2394 C 0.46469 0.00869 0.72752 0.0
C2395 C 0.45485 0.01181 0.71512 0.0
C2396 C 0.43603 0.03355 0.72306 0.0
C2397 C 0.40175 0.02824 0.68883 0.0
C2398 C 0.41627 0.02863 0.69537 0.0
C2399 C 0.45546 0.02574 0.71775 0.0
C2400 C 0.44264 0.02761 0.70924 0.0
H2401 H 0.36742 0.00547 0.66197 0.0
H2402 H 0.39159 0.00681 0.67102 0.0
H2403 H 0.41795 0.03809 0.7278 0.0
H2404 H 0.48502 0.04237 0.75527 0.0
H2405 H 0.46822 0.04802 0.73322 0.0
C2406 C 0.96395 0.35342 0.68043 0.0
C2407 C 0.97513 0.3492 0.68128 0.0
C2408 C 0.96798 0.36839 0.68525 0.0
C2409 C 0.99781 0.40304 0.71461 0.0
H2410 H 0.9787 0.4224 0.68369 0.0
C2411 C 0.01285 0.4626 0.74035 0.0
C2412 C 0.99998 0.46393 0.74428 0.0
C2413 C 0.01129 0.45053 0.72772 0.0
C2414 C 0.98413 0.41715 0.6925 0.0
H2415 H 0.99941 0.35755 0.68755 0.0
H2416 H 0.00646 0.38364 0.69573 0.0
H2417 H 0.97296 0.39718 0.67211 0.0
H2418 H 0.9757 0.45445 0.73684 0.0
H2419 H 0.9729 0.43336 0.71472 0.0
H2420 H 0.00871 0.42275 0.73529 0.0
C2421 C 0.99451 0.37533 0.69166 0.0
C2422 C 0.9808 0.40266 0.68592 0.0
C2423 C 0.99047 0.36036 0.68689 0.0
C2424 C 0.98586 0.45384 0.73367 0.0
C2425 C 0.98426 0.44168 0.72112 0.0
C2426 C 1.00115 0.41749 0.72115 0.0
C2427 C 0.9833 0.37954 0.69101 0.0
C2428 C 0.98746 0.39534 0.69706 0.0
C2429 C 0.99678 0.43943 0.71898 0.0
C2430 C 0.99426 0.4247 0.71034 0.0
H2431 H 0.95202 0.34514 0.67619 0.0
H2432 H 0.95899 0.37112 0.6849 0.0
H2433 H 1.00296 0.3977 0.72387 0.0
H2434 H 0.02381 0.47015 0.74858 0.0
H2435 H 0.02126 0.44937 0.72598 0.0
C2436 C 0.64681 0.61799 0.68087 0.0
C2437 C 0.65556 0.63199 0.6919 0.0
C2438 C 0.63096 0.60868 0.68437 0.0
C2439 C 0.59719 0.60717 0.71152 0.0
H2440 H 0.58176 0.56378 0.71166 0.0
C2441 C 0.5446 0.54888 0.75251 0.0
C2442 C 0.53308 0.55257 0.75183 0.0
C2443 C 0.55832 0.55769 0.74099 0.0
C2444 C 0.58584 0.57585 0.71187 0.0
H2445 H 0.65463 0.64751 0.71475 0.0
H2446 H 0.62702 0.6309 0.72194 0.0
H2447 H 0.60814 0.58154 0.70113 0.0
H2448 H 0.52628 0.56764 0.73773 0.0
H2449 H 0.54978 0.58248 0.71639 0.0
H2450 H 0.57523 0.60149 0.72398 0.0
C2451 C 0.63223 0.62725 0.70998 0.0
C2452 C 0.601 0.58611 0.70541 0.0
C2453 C 0.64808 0.63678 0.70598 0.0
C2454 C 0.53498 0.5645 0.73823 0.0
C2455 C 0.54857 0.57315 0.72637 0.0
C2456 C 0.5821 0.59691 0.7184 0.0
C2457 C 0.6235 0.61289 0.69955 0.0
C2458 C 0.60698 0.60196 0.7053 0.0
C2459 C 0.56072 0.57029 0.72832 0.0
C2460 C 0.57625 0.58109 0.71892 0.0
H2461 H 0.65229 0.61414 0.66966 0.0
H2462 H 0.62465 0.59803 0.67539 0.0
H2463 H 0.6012 0.61922 0.71134 0.0
H2464 H 0.54351 0.53994 0.76333 0.0
H2465 H 0.56739 0.55517 0.74325 0.0
C2466 C 0.70593 0.72038 0.67351 0.0
C2467 C 0.6938 0.70822 0.68501 0.0
C2468 C 0.70557 0.73356 0.66867 0.0
C2469 C 0.6783 0.74673 0.66022 0.0
H2470 H 0.71523 0.78705 0.66336 0.0
C2471 C 0.67703 0.79898 0.62785 0.0
C2472 C 0.68934 0.80842 0.614 0.0
C2473 C 0.6779 0.7884 0.64161 0.0
C2474 C 0.7048 0.77588 0.6623 0.0
H2475 H 0.67186 0.70055 0.70075 0.0
H2476 H 0.67121 0.72348 0.69218 0.0
H2477 H 0.71612 0.76503 0.6767 0.0
H2478 H 0.71257 0.81506 0.60478 0.0
H2479 H 0.71414 0.79676 0.62851 0.0
H2480 H 0.66711 0.75738 0.64502 0.0
C2481 C 0.68098 0.72279 0.68683 0.0
C2482 C 0.70533 0.76325 0.66995 0.0
C2483 C 0.6814 0.70967 0.69183 0.0
C2484 C 0.70295 0.80796 0.61543 0.0
C2485 C 0.70383 0.79744 0.6291 0.0
C2486 C 0.6778 0.75933 0.65242 0.0
C2487 C 0.693 0.73486 0.67506 0.0
C2488 C 0.69216 0.74848 0.66864 0.0
C2489 C 0.6911 0.78708 0.64174 0.0
C2490 C 0.69112 0.77406 0.65294 0.0
H2491 H 0.71566 0.71967 0.66801 0.0
H2492 H 0.71494 0.74257 0.65937 0.0
H2493 H 0.66798 0.7355 0.65877 0.0
H2494 H 0.66635 0.79901 0.62689 0.0
H2495 H 0.66797 0.7808 0.65141 0.0
C2496 C 0.28039 0.97276 0.67726 0.0
C2497 C 0.29639 0.98197 0.67375 0.0
C2498 C 0.27282 0.95692 0.67549 0.0
C2499 C 0.27527 0.92747 0.64633 0.0
H2500 H 0.24023 0.90033 0.68238 0.0
C2501 C 0.23324 0.86664 0.61697 0.0
C2502 C 0.21776 0.8628 0.61698 0.0
C2503 C 0.24436 0.87868 0.62999 0.0
C2504 C 0.24999 0.90772 0.67217 0.0
H2505 H 0.31709 0.98166 0.66633 0.0
H2506 H 0.30372 0.95378 0.66287 0.0
H2507 H 0.25745 0.92685 0.69365 0.0
H2508 H 0.2015 0.86775 0.63143 0.0
H2509 H 0.22077 0.88875 0.65415 0.0
H2510 H 0.26743 0.90871 0.62421 0.0
C2511 C 0.29709 0.95894 0.66705 0.0
C2512 C 0.25988 0.92292 0.67865 0.0
C2513 C 0.30475 0.97488 0.66911 0.0
C2514 C 0.21332 0.87029 0.63157 0.0
C2515 C 0.22443 0.88239 0.6445 0.0
C2516 C 0.26536 0.9123 0.6398 0.0
C2517 C 0.28099 0.9498 0.66996 0.0
C2518 C 0.27233 0.9331 0.66542 0.0
C2519 C 0.24022 0.88725 0.64302 0.0
C2520 C 0.25229 0.90235 0.65226 0.0
H2521 H 0.27359 0.97782 0.681 0.0
H2522 H 0.2604 0.95029 0.67753 0.0
H2523 H 0.28465 0.93502 0.63564 0.0
H2524 H 0.23695 0.86117 0.60553 0.0
H2525 H 0.25634 0.88189 0.62874 0.0
C2526 C 0.02593 0.29953 0.65505 0.0
C2527 C 0.02062 0.30956 0.65873 0.0
C2528 C 0.04171 0.30496 0.65377 0.0
C2529 C 0.07597 0.31798 0.66102 0.0
H2530 H 0.10001 0.35319 0.62388 0.0
C2531 C 0.14016 0.35651 0.61805 0.0
C2532 C 0.14144 0.3446 0.60924 0.0
C2533 C 0.12721 0.35335 0.63013 0.0
C2534 C 0.09363 0.34354 0.63472 0.0
H2535 H 0.02789 0.33322 0.6644 0.0
H2536 H 0.05562 0.34277 0.66207 0.0
H2537 H 0.07381 0.34587 0.63342 0.0
H2538 H 0.1308 0.3201 0.60744 0.0
H2539 H 0.10808 0.31448 0.62848 0.0
H2540 H 0.09565 0.31537 0.66168 0.0
C2541 C 0.04745 0.33066 0.66009 0.0
C2542 C 0.07855 0.33933 0.64017 0.0
C2543 C 0.03157 0.32519 0.66148 0.0
C2544 C 0.13018 0.32947 0.61431 0.0
C2545 C 0.11714 0.32629 0.62631 0.0
C2546 C 0.09107 0.3222 0.65557 0.0
C2547 C 0.05268 0.32059 0.65608 0.0
C2548 C 0.06939 0.32628 0.65293 0.0
C2549 C 0.11517 0.33819 0.63349 0.0
C2550 C 0.09997 0.33483 0.64193 0.0
H2551 H 0.01787 0.2874 0.6529 0.0
H2552 H 0.04527 0.2969 0.65029 0.0
H2553 H 0.06932 0.30801 0.67122 0.0
H2554 H 0.14872 0.36828 0.61432 0.0
H2555 H 0.12625 0.36279 0.63584 0.0
C2556 C 0.30646 0.33478 0.68725 0.0
C2557 C 0.30695 0.32194 0.68059 0.0
C2558 C 0.2935 0.33588 0.68251 0.0
C2559 C 0.25199 0.31335 0.66754 0.0
H2560 H 0.2595 0.35053 0.63926 0.0
C2561 C 0.20674 0.31577 0.61263 0.0
C2562 C 0.20737 0.32965 0.60935 0.0
C2563 C 0.21731 0.31495 0.62668 0.0
C2564 C 0.2571 0.3402 0.64763 0.0
H2565 H 0.29397 0.29998 0.66424 0.0
H2566 H 0.27128 0.30184 0.65616 0.0
H2567 H 0.28123 0.34881 0.65311 0.0
H2568 H 0.21872 0.35326 0.61956 0.0
H2569 H 0.237 0.35178 0.64484 0.0
H2570 H 0.22788 0.30466 0.66197 0.0
C2571 C 0.28095 0.31106 0.66506 0.0
C2572 C 0.26962 0.33919 0.65546 0.0
C2573 C 0.29399 0.31004 0.66957 0.0
C2574 C 0.21793 0.3424 0.6219 0.0
C2575 C 0.22854 0.34158 0.6361 0.0
C2576 C 0.23945 0.31441 0.65994 0.0
C2577 C 0.28063 0.32408 0.67124 0.0
C2578 C 0.26723 0.32563 0.66501 0.0
C2579 C 0.22879 0.32799 0.63794 0.0
C2580 C 0.24184 0.32771 0.64933 0.0
H2581 H 0.31623 0.34417 0.69577 0.0
H2582 H 0.29356 0.34601 0.68762 0.0
H2583 H 0.24977 0.30284 0.67516 0.0
H2584 H 0.19873 0.30578 0.60308 0.0
H2585 H 0.21713 0.30431 0.62741 0.0
C2586 C 0.70218 0.9884 0.66544 0.0
C2587 C 0.69021 0.98686 0.67869 0.0
C2588 C 0.70306 0.97564 0.65994 0.0
C2589 C 0.68784 0.93491 0.67545 0.0
H2590 H 0.70033 0.93241 0.61654 0.0
C2591 C 0.67315 0.87887 0.63179 0.0
C2592 C 0.68374 0.87936 0.6167 0.0
C2593 C 0.67638 0.89203 0.64319 0.0
C2594 C 0.6971 0.93302 0.63321 0.0
H2595 H 0.6697 0.97063 0.69644 0.0
H2596 H 0.67093 0.94838 0.68633 0.0
H2597 H 0.70068 0.95524 0.62791 0.0
H2598 H 0.70626 0.89366 0.60245 0.0
H2599 H 0.7121 0.91667 0.62263 0.0
H2600 H 0.68365 0.91233 0.68028 0.0
C2601 C 0.67991 0.95947 0.68061 0.0
C2602 C 0.69728 0.94616 0.63976 0.0
C2603 C 0.67912 0.97225 0.68627 0.0
C2604 C 0.69809 0.89293 0.6144 0.0
C2605 C 0.70129 0.90614 0.62566 0.0
C2606 C 0.68753 0.9217 0.66881 0.0
C2607 C 0.6919 0.96097 0.66738 0.0
C2608 C 0.6925 0.94725 0.66089 0.0
C2609 C 0.69018 0.906 0.63943 0.0
C2610 C 0.69202 0.92054 0.64753 0.0
H2611 H 0.71099 0.9995 0.65947 0.0
H2612 H 0.7126 0.97733 0.65001 0.0
H2613 H 0.68436 0.9354 0.69199 0.0
H2614 H 0.66185 0.86862 0.63337 0.0
H2615 H 0.66753 0.89153 0.65352 0.0
C2616 C 0.03291 0.72455 0.68251 0.0
C2617 C 0.02453 0.70855 0.68053 0.0
C2618 C 0.04889 0.73298 0.67979 0.0
C2619 C 0.08372 0.74899 0.6799 0.0
H2620 H 0.09793 0.73707 0.62952 0.0
C2621 C 0.14049 0.77053 0.62062 0.0
C2622 C 0.1437 0.78529 0.61572 0.0
C2623 C 0.12829 0.76096 0.63436 0.0
C2624 C 0.09431 0.74045 0.64394 0.0
H2625 H 0.02659 0.68881 0.67526 0.0
H2626 H 0.05469 0.7036 0.67071 0.0
H2627 H 0.07194 0.72012 0.64278 0.0
H2628 H 0.13752 0.80208 0.62265 0.0
H2629 H 0.11613 0.78538 0.64674 0.0
H2630 H 0.10594 0.76971 0.68027 0.0
C2631 C 0.04876 0.70961 0.67405 0.0
C2632 C 0.07935 0.73068 0.65159 0.0
C2633 C 0.03268 0.70112 0.67678 0.0
C2634 C 0.13537 0.7908 0.62635 0.0
C2635 C 0.1231 0.7812 0.64009 0.0
C2636 C 0.09868 0.75882 0.67216 0.0
C2637 C 0.05702 0.72568 0.67507 0.0
C2638 C 0.0737 0.73498 0.66931 0.0
C2639 C 0.11898 0.76594 0.64342 0.0
C2640 C 0.10402 0.75481 0.65377 0.0
H2641 H 0.02706 0.73069 0.68549 0.0
H2642 H 0.05474 0.74531 0.68039 0.0
H2643 H 0.07986 0.75256 0.69386 0.0
H2644 H 0.14681 0.76605 0.61266 0.0
H2645 H 0.12563 0.74939 0.63695 0.0
C2646 C 0.99372 0.62805 0.67522 0.0
C2647 C 0.98182 0.6307 0.68038 0.0
C2648 C 0.99223 0.61395 0.67981 0.0
C2649 C 0.97066 0.58028 0.71585 0.0
H2650 H 0.98896 0.56303 0.6796 0.0
C2651 C 0.96823 0.52602 0.74373 0.0
C2652 C 0.98271 0.52727 0.74442 0.0
C2653 C 0.96594 0.53608 0.73095 0.0
C2654 C 0.98377 0.56769 0.68987 0.0
H2655 H 0.95877 0.62036 0.69369 0.0
H2656 H 0.95604 0.59574 0.70128 0.0
H2657 H 0.98927 0.58595 0.66738 0.0
H2658 H 0.00579 0.53921 0.73128 0.0
H2659 H 1.00184 0.55676 0.70879 0.0
H2660 H 0.96543 0.56231 0.73854 0.0
C2661 C 0.9667 0.60465 0.69415 0.0
C2662 C 0.98401 0.58088 0.68293 0.0
C2663 C 0.96823 0.61877 0.6897 0.0
C2664 C 0.99442 0.5378 0.73059 0.0
C2665 C 0.99216 0.54793 0.71784 0.0
C2666 C 0.97036 0.56711 0.72271 0.0
C2667 C 0.97877 0.6021 0.68957 0.0
C2668 C 0.97763 0.58747 0.69598 0.0
C2669 C 0.97815 0.54771 0.71881 0.0
C2670 C 0.97706 0.56072 0.70997 0.0
H2671 H 0.00436 0.63698 0.66805 0.0
H2672 H 1.00186 0.61252 0.67631 0.0
H2673 H 0.96591 0.58514 0.7266 0.0
H2674 H 0.95913 0.51815 0.75456 0.0
H2675 H 0.95491 0.53539 0.73174 0.0
C2676 C 0.39873 0.36866 0.67902 0.0
C2677 C 0.38253 0.35984 0.68065 0.0
C2678 C 0.40672 0.38441 0.68255 0.0
C2679 C 0.42119 0.41877 0.68366 0.0
H2680 H 0.40918 0.43071 0.73637 0.0
C2681 C 0.44193 0.47301 0.74773 0.0
C2682 C 0.45748 0.47732 0.75038 0.0
C2683 C 0.43211 0.46105 0.73357 0.0
C2684 C 0.41255 0.42775 0.7213 0.0
H2685 H 0.36197 0.36083 0.68626 0.0
H2686 H 0.37598 0.38842 0.69244 0.0
H2687 H 0.39285 0.40505 0.72198 0.0
H2688 H 0.47524 0.47319 0.73972 0.0
H2689 H 0.45815 0.4522 0.71508 0.0
H2690 H 0.4412 0.44137 0.68349 0.0
C2691 C 0.38248 0.38306 0.68861 0.0
C2692 C 0.40314 0.41297 0.71304 0.0
C2693 C 0.37445 0.36727 0.68497 0.0
C2694 C 0.46335 0.47024 0.73754 0.0
C2695 C 0.4535 0.45818 0.72348 0.0
C2696 C 0.4306 0.4336 0.69191 0.0
C2697 C 0.39875 0.39177 0.68786 0.0
C2698 C 0.40754 0.40815 0.69447 0.0
C2699 C 0.4376 0.45299 0.72208 0.0
C2700 C 0.42659 0.43816 0.71117 0.0
H2701 H 0.40534 0.36335 0.67563 0.0
H2702 H 0.41924 0.39069 0.6821 0.0
H2703 H 0.42479 0.4155 0.66911 0.0
H2704 H 0.43715 0.47822 0.75773 0.0
H2705 H 0.42002 0.45756 0.73258 0.0
C2706 C 0.64478 0.03487 0.691 0.0
C2707 C 0.65122 0.02558 0.69143 0.0
C2708 C 0.6288 0.02848 0.69086 0.0
C2709 C 0.5944 0.01257 0.68186 0.0
H2710 H 0.57246 0.9827 0.72735 0.0
C2711 C 0.53297 0.98018 0.73308 0.0
C2712 C 0.53224 0.99316 0.73788 0.0
C2713 C 0.54485 0.98139 0.72015 0.0
C2714 C 0.57821 0.99075 0.71414 0.0
H2715 H 0.6458 1.00218 0.69146 0.0
H2716 H 0.61761 0.9909 0.69157 0.0
H2717 H 0.5987 0.98975 0.71856 0.0
H2718 H 0.5424 0.01723 0.73137 0.0
H2719 H 0.56314 0.01944 0.70881 0.0
H2720 H 0.57412 0.01402 0.67805 0.0
C2721 C 0.62509 0.0032 0.69129 0.0
C2722 C 0.59332 0.9948 0.70914 0.0
C2723 C 0.6412 0.00964 0.69118 0.0
C2724 C 0.54257 0.00701 0.72761 0.0
C2725 C 0.55453 0.00826 0.71477 0.0
C2726 C 0.57926 0.00849 0.68682 0.0
C2727 C 0.61873 0.01259 0.69129 0.0
C2728 C 0.60179 0.00616 0.69349 0.0
C2729 C 0.55632 0.99564 0.71193 0.0
C2730 C 0.57115 0.99789 0.70355 0.0
H2731 H 0.65211 0.04719 0.69102 0.0
H2732 H 0.62436 0.03607 0.69122 0.0
H2733 H 0.60053 0.02117 0.66942 0.0
H2734 H 0.52519 0.96939 0.74097 0.0
H2735 H 0.54564 0.97136 0.71786 0.0
loop_
_geom_bond_atom_site_label_1
_geom_bond_atom_site_label_2
_geom_bond_distance
_geom_bond_site_symmetry_2
_ccdc_geom_bond_type
Zn0 O3 2.031 1_554 S
Zn0 O5 2.049 . S
Zn0 O10 2.067 1_554 S
Zn1 O2 1.962 1_455 S
Zn1 O4 1.986 . S
Zn1 O6 1.996 1_455 S
Zn1 O9 1.943 1_554 S
O2 Zn1 1.962 1_655 S
O2 C7 1.254 . S
O3 Zn0 2.031 1_556 S
O3 C7 1.269 1_556 S
O4 Zn1 1.986 . S
O4 C11 1.262 . S
O5 Zn0 2.049 . S
O5 C13 1.260 . S
O6 Zn1 1.996 1_655 S
O6 C13 1.257 . S
C7 O2 1.254 . S
C7 O3 1.269 1_554 S
C8 O9 1.249 . S
C8 O10 1.270 1_455 S
O9 Zn1 1.943 1_556 S
O9 C8 1.249 . S
O10 Zn0 2.067 1_556 S
O10 C8 1.270 1_655 S
C11 O4 1.262 . S
C11 O12 1.232 . S
O12 C11 1.232 . S
C13 O5 1.260 . S
C13 O6 1.257 . S
Zn14 O17 2.031 1_554 S
Zn14 O19 2.049 . S
Zn14 O24 2.067 1_554 S
Zn15 O16 1.962 . S
Zn15 O18 1.986 . S
Zn15 O20 1.996 . S
Zn15 O23 1.943 1_554 S
O16 Zn15 1.962 . S
O16 C21 1.254 . S
O17 Zn14 2.031 1_556 S
O17 C21 1.269 1_556 S
O18 Zn15 1.986 . S
O18 C25 1.262 . S
O19 Zn14 2.049 . S
O19 C27 1.260 . S
O20 Zn15 1.996 . S
O20 C27 1.257 . S
C21 O16 1.254 . S
C21 O17 1.269 1_554 S
C22 O23 1.249 . S
C22 O24 1.270 . S
O23 Zn15 1.943 1_556 S
O23 C22 1.249 . S
O24 Zn14 2.067 1_556 S
O24 C22 1.270 . S
C25 O18 1.262 . S
C25 O26 1.232 . S
O26 C25 1.232 . S
C27 O19 1.260 . S
C27 O20 1.257 . S
Zn28 O31 2.031 . S
Zn28 O33 2.049 1_554 S
Zn28 O38 2.067 . S
Zn29 O30 1.962 1_545 S
Zn29 O32 1.986 1_554 S
Zn29 O34 1.996 1_544 S
Zn29 O37 1.943 . S
O30 Zn29 1.962 1_565 S
O30 C35 1.254 . S
O31 Zn28 2.031 . S
O31 C35 1.269 . S
O32 Zn29 1.986 1_556 S
O32 C39 1.261 . S
O33 Zn28 2.049 1_556 S
O33 C41 1.260 . S
O34 Zn29 1.996 1_566 S
O34 C41 1.257 . S
C35 O30 1.254 . S
C35 O31 1.269 . S
C36 O37 1.249 . S
C36 O38 1.270 1_545 S
O37 Zn29 1.943 . S
O37 C36 1.249 . S
O38 Zn28 2.067 . S
O38 C36 1.270 1_565 S
C39 O32 1.261 . S
C39 O40 1.233 1_556 S
O40 C39 1.233 1_554 S
C41 O33 1.260 . S
C41 O34 1.257 . S
Zn42 O45 2.031 . S
Zn42 O47 2.049 1_554 S
Zn42 O52 2.067 . S
Zn43 O44 1.962 1_655 S
Zn43 O46 1.986 1_554 S
Zn43 O48 1.996 1_654 S
Zn43 O51 1.943 . S
O44 Zn43 1.962 1_455 S
O44 C49 1.254 . S
O45 Zn42 2.031 . S
O45 C49 1.269 . S
O46 Zn43 1.986 1_556 S
O46 C53 1.242 1_556 S
O47 Zn42 2.049 1_556 S
O47 C55 1.260 . S
O48 Zn43 1.996 1_456 S
O48 C55 1.257 . S
C49 O44 1.254 . S
C49 O45 1.269 . S
C50 O51 1.249 . S
C50 O52 1.270 1_655 S
O51 Zn43 1.943 . S
O51 C50 1.249 . S
O52 Zn42 2.067 . S
O52 C50 1.270 1_455 S
C53 O46 1.242 1_554 S
C53 O54 1.262 . S
O54 C53 1.262 . S
C55 O47 1.260 . S
C55 O48 1.257 . S
Zn56 O59 2.031 . S
Zn56 O61 2.049 1_554 S
Zn56 O66 2.067 . S
Zn57 O58 1.962 . S
Zn57 O60 1.986 1_554 S
Zn57 O62 1.996 1_554 S
Zn57 O65 1.943 . S
O58 Zn57 1.962 . S
O58 C63 1.254 . S
O59 Zn56 2.031 . S
O59 C63 1.269 . S
O60 Zn57 1.986 1_556 S
O60 C67 1.262 1_556 S
O61 Zn56 2.049 1_556 S
O61 C69 1.260 . S
O62 Zn57 1.996 1_556 S
O62 C69 1.257 . S
C63 O58 1.254 . S
C63 O59 1.269 . S
C64 O65 1.249 . S
C64 O66 1.270 . S
O65 Zn57 1.943 . S
O65 C64 1.249 . S
O66 Zn56 2.067 . S
O66 C64 1.270 . S
C67 O60 1.262 1_554 S
C67 O68 1.232 . S
O68 C67 1.232 . S
C69 O61 1.260 . S
C69 O62 1.257 . S
Zn70 O73 2.006 1_554 S
Zn70 O75 2.049 . S
Zn70 O80 2.067 1_554 S
Zn71 O72 1.962 1_565 S
Zn71 O74 1.986 . S
Zn71 O76 1.996 1_565 S
Zn71 O79 1.926 1_554 S
O72 Zn71 1.962 1_545 S
O72 C77 1.254 . S
O73 Zn70 2.006 1_556 S
O73 C77 1.255 1_556 S
O74 Zn71 1.986 . S
O74 C81 1.262 . S
O75 Zn70 2.049 . S
O75 C83 1.260 . S
O76 Zn71 1.996 1_545 S
O76 C83 1.257 . S
C77 O72 1.254 . S
C77 O73 1.255 1_554 S
C78 O79 1.259 . S
C78 O80 1.270 1_565 S
O79 Zn71 1.926 1_556 S
O79 C78 1.259 . S
O80 Zn70 2.067 1_556 S
O80 C78 1.270 1_545 S
C81 O74 1.262 . S
C81 O82 1.232 . S
O82 C81 1.232 . S
C83 O75 1.260 . S
C83 O76 1.257 . S
Zn84 O87 2.031 . S
Zn84 O89 2.049 . S
Zn84 O94 2.067 . S
Zn85 O86 1.962 . S
Zn85 O88 1.986 . S
Zn85 O90 1.996 . S
Zn85 O93 1.943 . S
O86 Zn85 1.962 . S
O86 C91 1.254 . S
O87 Zn84 2.031 . S
O87 C91 1.269 . S
O88 Zn85 1.986 . S
O88 C95 1.262 . S
O89 Zn84 2.049 . S
O89 C97 1.260 . S
O90 Zn85 1.996 . S
O90 C97 1.257 . S
C91 O86 1.254 . S
C91 O87 1.269 . S
C92 O93 1.249 . S
C92 O94 1.270 . S
O93 Zn85 1.943 . S
O93 C92 1.249 . S
O94 Zn84 2.067 . S
O94 C92 1.270 . S
C95 O88 1.262 . S
C95 O96 1.232 . S
O96 C95 1.232 . S
C97 O89 1.260 . S
C97 O90 1.257 . S
Zn98 O101 2.031 . S
Zn98 O103 2.049 . S
Zn98 O108 2.067 . S
Zn99 O100 1.962 . S
Zn99 O102 1.986 1_565 S
Zn99 O104 1.996 . S
Zn99 O107 1.943 . S
O100 Zn99 1.962 . S
O100 C105 1.254 . S
O101 Zn98 2.031 . S
O101 C105 1.269 . S
O102 Zn99 1.986 1_545 S
O102 C109 1.262 . S
O103 Zn98 2.049 . S
O103 C111 1.260 . S
O104 Zn99 1.996 . S
O104 C111 1.257 . S
C105 O100 1.254 . S
C105 O101 1.269 . S
C106 O107 1.249 . S
C106 O108 1.270 . S
O107 Zn99 1.943 . S
O107 C106 1.249 . S
O108 Zn98 2.067 . S
O108 C106 1.270 . S
C109 O102 1.262 . S
C109 O110 1.232 . S
O110 C109 1.232 . S
C111 O103 1.260 . S
C111 O104 1.257 . S
Zn112 O115 2.031 . S
Zn112 O117 2.049 . S
Zn112 O122 2.067 . S
Zn113 O114 1.962 1_455 S
Zn113 O116 1.986 . S
Zn113 O118 1.996 . S
Zn113 O121 1.943 . S
O114 Zn113 1.962 1_655 S
O114 C119 1.254 . S
O115 Zn112 2.031 . S
O115 C119 1.269 1_455 S
O116 Zn113 1.986 . S
O116 C123 1.262 . S
O117 Zn112 2.049 . S
O117 C125 1.260 . S
O118 Zn113 1.996 . S
O118 C125 1.257 . S
C119 O114 1.254 . S
C119 O115 1.269 1_655 S
C120 O121 1.249 . S
C120 O122 1.270 . S
O121 Zn113 1.943 . S
O121 C120 1.249 . S
O122 Zn112 2.067 . S
O122 C120 1.270 . S
C123 O116 1.262 . S
C123 O124 1.232 . S
O124 C123 1.232 . S
C125 O117 1.260 . S
C125 O118 1.257 . S
Zn126 O129 2.031 . S
Zn126 O131 2.049 . S
Zn126 O136 2.067 . S
Zn127 O128 1.962 1_565 S
Zn127 O130 1.986 . S
Zn127 O132 1.996 . S
Zn127 O135 1.943 . S
O128 Zn127 1.962 1_545 S
O128 C133 1.254 . S
O129 Zn126 2.031 . S
O129 C133 1.269 1_565 S
O130 Zn127 1.986 . S
O130 C137 1.262 . S
O131 Zn126 2.049 . S
O131 C139 1.260 . S
O132 Zn127 1.996 . S
O132 C139 1.257 . S
C133 O128 1.254 . S
C133 O129 1.269 1_545 S
C134 O135 1.249 . S
C134 O136 1.270 . S
O135 Zn127 1.943 . S
O135 C134 1.249 . S
O136 Zn126 2.067 . S
O136 C134 1.270 . S
C137 O130 1.262 . S
C137 O138 1.232 . S
O138 C137 1.232 . S
C139 O131 1.260 . S
C139 O132 1.257 . S
Zn140 O143 2.031 . S
Zn140 O145 2.049 . S
Zn140 O150 2.067 . S
Zn141 O142 1.962 1_455 S
Zn141 O144 1.986 . S
Zn141 O146 1.996 . S
Zn141 O149 1.943 . S
O142 Zn141 1.962 1_655 S
O142 C147 1.254 . S
O143 Zn140 2.031 . S
O143 C147 1.269 1_455 S
O144 Zn141 1.986 . S
O144 C151 1.262 . S
O145 Zn140 2.049 . S
O145 C153 1.260 . S
O146 Zn141 1.996 . S
O146 C153 1.257 . S
C147 O142 1.254 . S
C147 O143 1.269 1_655 S
C148 O149 1.249 . S
C148 O150 1.270 . S
O149 Zn141 1.943 . S
O149 C148 1.249 . S
O150 Zn140 2.067 . S
O150 C148 1.270 . S
C151 O144 1.262 . S
C151 O152 1.232 . S
O152 C151 1.232 . S
C153 O145 1.260 . S
C153 O146 1.257 . S
Zn154 O157 2.031 . S
Zn154 O159 2.049 . S
Zn154 O164 2.067 . S
Zn155 O156 1.962 . S
Zn155 O158 1.986 . S
Zn155 O160 1.996 . S
Zn155 O163 1.943 . S
O156 Zn155 1.962 . S
O156 C161 1.254 . S
O157 Zn154 2.031 . S
O157 C161 1.269 . S
O158 Zn155 1.986 . S
O158 C165 1.262 . S
O159 Zn154 2.049 . S
O159 C167 1.260 . S
O160 Zn155 1.996 . S
O160 C167 1.257 . S
C161 O156 1.254 . S
C161 O157 1.269 . S
C162 O163 1.249 . S
C162 O164 1.270 . S
O163 Zn155 1.943 . S
O163 C162 1.249 . S
O164 Zn154 2.067 . S
O164 C162 1.270 . S
C165 O158 1.262 . S
C165 O166 1.232 . S
O166 C165 1.232 . S
C167 O159 1.260 . S
C167 O160 1.257 . S
Zn168 O171 2.031 . S
Zn168 O173 2.049 . S
Zn168 O178 2.067 . S
Zn169 O170 1.962 1_545 S
Zn169 O172 1.986 . S
Zn169 O174 1.996 . S
Zn169 O177 1.943 . S
O170 Zn169 1.962 1_565 S
O170 C175 1.254 . S
O171 Zn168 2.031 . S
O171 C175 1.269 1_545 S
O172 Zn169 1.986 . S
O172 C179 1.262 . S
O173 Zn168 2.049 . S
O173 C181 1.260 . S
O174 Zn169 1.996 . S
O174 C181 1.257 . S
C175 O170 1.254 . S
C175 O171 1.269 1_565 S
C176 O177 1.249 . S
C176 O178 1.270 . S
O177 Zn169 1.943 . S
O177 C176 1.249 . S
O178 Zn168 2.067 . S
O178 C176 1.270 . S
C179 O172 1.262 . S
C179 O180 1.232 . S
O180 C179 1.232 . S
C181 O173 1.260 . S
C181 O174 1.257 . S
Zn182 O185 2.031 . S
Zn182 O187 2.049 . S
Zn182 O192 2.067 . S
Zn183 O184 1.962 1_655 S
Zn183 O186 1.986 . S
Zn183 O188 1.996 . S
Zn183 O191 1.943 . S
O184 Zn183 1.962 1_455 S
O184 C189 1.254 . S
O185 Zn182 2.031 . S
O185 C189 1.269 1_655 S
O186 Zn183 1.986 . S
O186 C193 1.262 . S
O187 Zn182 2.049 . S
O187 C195 1.260 . S
O188 Zn183 1.996 . S
O188 C195 1.257 . S
C189 O184 1.254 . S
C189 O185 1.269 1_455 S
C190 O191 1.249 . S
C190 O192 1.270 . S
O191 Zn183 1.943 . S
O191 C190 1.249 . S
O192 Zn182 2.067 . S
O192 C190 1.270 . S
C193 O186 1.262 . S
C193 O194 1.232 . S
O194 C193 1.232 . S
C195 O187 1.260 . S
C195 O188 1.257 . S
Zn196 O199 2.031 . S
Zn196 O201 2.049 . S
Zn196 O206 2.067 . S
Zn197 O198 1.962 . S
Zn197 O200 1.986 . S
Zn197 O202 1.996 . S
Zn197 O205 1.943 . S
O198 Zn197 1.962 . S
O198 C203 1.254 . S
O199 Zn196 2.031 . S
O199 C203 1.269 . S
O200 Zn197 1.986 . S
O200 C207 1.262 . S
O201 Zn196 2.049 . S
O201 C209 1.260 . S
O202 Zn197 1.996 . S
O202 C209 1.257 . S
C203 O198 1.254 . S
C203 O199 1.269 . S
C204 O205 1.249 . S
C204 O206 1.270 . S
O205 Zn197 1.943 . S
O205 C204 1.249 . S
O206 Zn196 2.067 . S
O206 C204 1.270 . S
C207 O200 1.262 . S
C207 O208 1.232 . S
O208 C207 1.232 . S
C209 O201 1.260 . S
C209 O202 1.257 . S
Zn210 O213 2.031 . S
Zn210 O215 2.049 . S
Zn210 O220 2.067 . S
Zn211 O212 1.962 . S
Zn211 O214 1.986 . S
Zn211 O216 1.996 . S
Zn211 O219 1.943 . S
O212 Zn211 1.962 . S
O212 C217 1.254 . S
O213 Zn210 2.031 . S
O213 C217 1.269 . S
O214 Zn211 1.986 . S
O214 C221 1.262 . S
O215 Zn210 2.049 . S
O215 C223 1.260 . S
O216 Zn211 1.996 . S
O216 C223 1.257 . S
C217 O212 1.254 . S
C217 O213 1.269 . S
C218 O219 1.249 . S
C218 O220 1.270 . S
O219 Zn211 1.943 . S
O219 C218 1.249 . S
O220 Zn210 2.067 . S
O220 C218 1.270 . S
C221 O214 1.262 . S
C221 O222 1.232 . S
O222 C221 1.232 . S
C223 O215 1.260 . S
C223 O216 1.257 . S
Zn224 O227 2.031 . S
Zn224 O229 2.049 . S
Zn224 O234 2.067 . S
Zn225 O226 1.962 . S
Zn225 O228 1.928 1_545 S
Zn225 O230 1.996 . S
Zn225 O233 1.943 . S
O226 Zn225 1.962 . S
O226 C231 1.254 . S
O227 Zn224 2.031 . S
O227 C231 1.269 . S
O228 Zn225 1.928 1_565 S
O228 C235 1.314 . S
O229 Zn224 2.049 . S
O229 C237 1.260 . S
O230 Zn225 1.996 . S
O230 C237 1.257 . S
C231 O226 1.254 . S
C231 O227 1.269 . S
C232 O233 1.249 . S
C232 O234 1.270 . S
O233 Zn225 1.943 . S
O233 C232 1.249 . S
O234 Zn224 2.067 . S
O234 C232 1.270 . S
C235 O228 1.314 . S
C235 O236 1.232 . S
O236 C235 1.232 . S
C237 O229 1.260 . S
C237 O230 1.257 . S
Zn238 O241 2.031 . S
Zn238 O243 2.049 . S
Zn238 O248 2.067 . S
Zn239 O240 1.962 1_655 S
Zn239 O242 1.986 . S
Zn239 O244 1.996 . S
Zn239 O247 1.943 . S
O240 Zn239 1.962 1_455 S
O240 C245 1.254 . S
O241 Zn238 2.031 . S
O241 C245 1.269 1_655 S
O242 Zn239 1.986 . S
O242 C249 1.262 . S
O243 Zn238 2.049 . S
O243 C251 1.260 . S
O244 Zn239 1.996 . S
O244 C251 1.257 . S
C245 O240 1.254 . S
C245 O241 1.269 1_455 S
C246 O247 1.249 . S
C246 O248 1.270 . S
O247 Zn239 1.943 . S
O247 C246 1.249 . S
O248 Zn238 2.067 . S
O248 C246 1.270 . S
C249 O242 1.262 . S
C249 O250 1.232 . S
O250 C249 1.232 . S
C251 O243 1.260 . S
C251 O244 1.257 . S
H252 C258 0.930 . S
H253 C261 0.931 . S
H254 C263 0.931 . S
H255 C265 0.930 . S
H256 C267 0.930 . S
H257 C269 0.931 . S
C258 H252 0.930 . S
C258 C259 1.380 . S
C258 C260 1.394 . S
C259 C258 1.380 . S
C259 C263 1.382 . S
C260 C258 1.394 . S
C260 C261 1.400 . S
C261 H253 0.931 . S
C261 C260 1.400 . S
C261 C262 1.375 . S
C262 C261 1.375 . S
C262 C263 1.415 . S
C262 C264 1.501 . S
C263 H254 0.931 . S
C263 C259 1.382 . S
C263 C262 1.415 . S
C264 C262 1.501 . S
C264 C265 1.384 . S
C264 C269 1.408 . S
C265 H255 0.930 . S
C265 C264 1.384 . S
C265 C266 1.389 . S
C266 C265 1.389 . S
C266 C267 1.405 . S
C267 H256 0.930 . S
C267 C266 1.405 . S
C267 C268 1.364 . S
C268 C267 1.364 . S
C268 C269 1.400 . S
C269 H257 0.931 . S
C269 C264 1.408 . S
C269 C268 1.400 . S
H270 C276 0.930 . S
H271 C279 0.931 . S
H272 C281 0.931 . S
H273 C283 0.930 . S
H274 C285 0.930 . S
H275 C287 0.931 . S
C276 H270 0.930 . S
C276 C277 1.380 . S
C276 C278 1.394 . S
C277 C276 1.380 . S
C277 C281 1.382 . S
C278 C276 1.394 . S
C278 C279 1.400 . S
C279 H271 0.931 . S
C279 C278 1.400 . S
C279 C280 1.375 . S
C280 C279 1.375 . S
C280 C281 1.415 . S
C280 C282 1.501 . S
C281 H272 0.931 . S
C281 C277 1.382 . S
C281 C280 1.415 . S
C282 C280 1.501 . S
C282 C283 1.384 . S
C282 C287 1.408 . S
C283 H273 0.930 . S
C283 C282 1.384 . S
C283 C284 1.389 . S
C284 C283 1.389 . S
C284 C285 1.405 . S
C285 H274 0.930 . S
C285 C284 1.405 . S
C285 C286 1.364 . S
C286 C285 1.364 . S
C286 C287 1.400 . S
C287 H275 0.931 . S
C287 C282 1.408 . S
C287 C286 1.400 . S
H288 C294 0.930 . S
H289 C297 0.931 . S
H290 C299 0.931 . S
H291 C301 0.930 . S
H292 C303 0.930 . S
H293 C305 0.931 . S
C294 H288 0.930 . S
C294 C295 1.380 . S
C294 C296 1.394 . S
C295 C294 1.380 . S
C295 C299 1.382 . S
C296 C294 1.394 . S
C296 C297 1.400 . S
C297 H289 0.931 . S
C297 C296 1.400 . S
C297 C298 1.375 . S
C298 C297 1.375 . S
C298 C299 1.415 . S
C298 C300 1.501 . S
C299 H290 0.931 . S
C299 C295 1.382 . S
C299 C298 1.415 . S
C300 C298 1.501 . S
C300 C301 1.384 . S
C300 C305 1.408 . S
C301 H291 0.930 . S
C301 C300 1.384 . S
C301 C302 1.389 . S
C302 C301 1.389 . S
C302 C303 1.405 . S
C303 H292 0.930 . S
C303 C302 1.405 . S
C303 C304 1.364 . S
C304 C303 1.364 . S
C304 C305 1.400 . S
C305 H293 0.931 . S
C305 C300 1.408 . S
C305 C304 1.400 . S
H306 C312 0.930 . S
H307 C315 0.931 . S
H308 C317 0.931 . S
H309 C319 0.930 . S
H310 C321 0.930 . S
H311 C323 0.931 . S
C312 H306 0.930 . S
C312 C313 1.380 . S
C312 C314 1.394 . S
C313 C312 1.380 . S
C313 C317 1.382 . S
C314 C312 1.394 . S
C314 C315 1.400 . S
C315 H307 0.931 . S
C315 C314 1.400 . S
C315 C316 1.375 . S
C316 C315 1.375 . S
C316 C317 1.415 . S
C316 C318 1.501 . S
C317 H308 0.931 . S
C317 C313 1.382 . S
C317 C316 1.415 . S
C318 C316 1.501 . S
C318 C319 1.384 . S
C318 C323 1.408 . S
C319 H309 0.930 . S
C319 C318 1.384 . S
C319 C320 1.389 . S
C320 C319 1.389 . S
C320 C321 1.405 . S
C321 H310 0.930 . S
C321 C320 1.405 . S
C321 C322 1.364 . S
C322 C321 1.364 . S
C322 C323 1.400 . S
C323 H311 0.931 . S
C323 C318 1.408 . S
C323 C322 1.400 . S
H324 C330 0.930 . S
H325 C333 0.931 . S
H326 C335 0.931 . S
H327 C337 0.930 . S
H328 C339 0.930 . S
H329 C341 0.931 . S
C330 H324 0.930 . S
C330 C331 1.380 . S
C330 C332 1.394 . S
C331 C330 1.380 . S
C331 C335 1.382 . S
C332 C330 1.394 . S
C332 C333 1.400 . S
C333 H325 0.931 . S
C333 C332 1.400 . S
C333 C334 1.375 . S
C334 C333 1.375 . S
C334 C335 1.415 . S
C334 C336 1.501 . S
C335 H326 0.931 . S
C335 C331 1.382 . S
C335 C334 1.415 . S
C336 C334 1.501 . S
C336 C337 1.384 . S
C336 C341 1.408 . S
C337 H327 0.930 . S
C337 C336 1.384 . S
C337 C338 1.389 . S
C338 C337 1.389 . S
C338 C339 1.405 . S
C339 H328 0.930 . S
C339 C338 1.405 . S
C339 C340 1.364 . S
C340 C339 1.364 . S
C340 C341 1.400 . S
C341 H329 0.931 . S
C341 C336 1.408 . S
C341 C340 1.400 . S
H342 C348 0.930 . S
H343 C351 0.931 . S
H344 C353 0.931 . S
H345 C355 0.930 . S
H346 C357 0.930 . S
H347 C359 0.931 . S
C348 H342 0.930 . S
C348 C349 1.380 . S
C348 C350 1.394 . S
C349 C348 1.380 . S
C349 C353 1.382 . S
C350 C348 1.394 . S
C350 C351 1.400 . S
C351 H343 0.931 . S
C351 C350 1.400 . S
C351 C352 1.375 . S
C352 C351 1.375 . S
C352 C353 1.415 . S
C352 C354 1.501 . S
C353 H344 0.931 . S
C353 C349 1.382 . S
C353 C352 1.415 . S
C354 C352 1.501 . S
C354 C355 1.384 . S
C354 C359 1.408 . S
C355 H345 0.930 . S
C355 C354 1.384 . S
C355 C356 1.389 . S
C356 C355 1.389 . S
C356 C357 1.405 . S
C357 H346 0.930 . S
C357 C356 1.405 . S
C357 C358 1.364 . S
C358 C357 1.364 . S
C358 C359 1.400 . S
C359 H347 0.931 . S
C359 C354 1.408 . S
C359 C358 1.400 . S
H360 C366 0.930 . S
H361 C369 0.931 . S
H362 C371 0.931 . S
H363 C373 0.930 . S
H364 C375 0.930 . S
H365 C377 0.931 . S
C366 H360 0.930 . S
C366 C367 1.380 . S
C366 C368 1.394 . S
C367 C366 1.380 . S
C367 C371 1.382 . S
C368 C366 1.394 . S
C368 C369 1.400 . S
C369 H361 0.931 . S
C369 C368 1.400 . S
C369 C370 1.375 . S
C370 C369 1.375 . S
C370 C371 1.415 . S
C370 C372 1.501 . S
C371 H362 0.931 . S
C371 C367 1.382 . S
C371 C370 1.415 . S
C372 C370 1.501 . S
C372 C373 1.384 . S
C372 C377 1.408 . S
C373 H363 0.930 . S
C373 C372 1.384 . S
C373 C374 1.389 . S
C374 C373 1.389 . S
C374 C375 1.405 . S
C375 H364 0.930 . S
C375 C374 1.405 . S
C375 C376 1.364 . S
C376 C375 1.364 . S
C376 C377 1.400 . S
C377 H365 0.931 . S
C377 C372 1.408 . S
C377 C376 1.400 . S
H378 C384 0.930 . S
H379 C387 0.931 . S
H380 C389 0.931 . S
H381 C391 0.930 . S
H382 C393 0.930 . S
H383 C395 0.931 . S
C384 H378 0.930 . S
C384 C385 1.380 . S
C384 C386 1.394 . S
C385 C384 1.380 . S
C385 C389 1.382 . S
C386 C384 1.394 . S
C386 C387 1.400 . S
C387 H379 0.931 . S
C387 C386 1.400 . S
C387 C388 1.375 . S
C388 C387 1.375 . S
C388 C389 1.415 . S
C388 C390 1.501 . S
C389 H380 0.931 . S
C389 C385 1.382 . S
C389 C388 1.415 . S
C390 C388 1.501 . S
C390 C391 1.384 . S
C390 C395 1.408 . S
C391 H381 0.930 . S
C391 C390 1.384 . S
C391 C392 1.389 . S
C392 C391 1.389 . S
C392 C393 1.405 . S
C393 H382 0.930 . S
C393 C392 1.405 . S
C393 C394 1.364 . S
C394 C393 1.364 . S
C394 C395 1.400 . S
C395 H383 0.931 . S
C395 C390 1.408 . S
C395 C394 1.400 . S
H396 C402 0.930 . S
H397 C405 0.931 . S
H398 C407 0.931 . S
H399 C409 0.930 . S
H400 C411 0.930 . S
H401 C413 0.931 . S
C402 H396 0.930 . S
C402 C403 1.380 . S
C402 C404 1.394 . S
C403 C402 1.380 . S
C403 C407 1.382 . S
C404 C402 1.394 . S
C404 C405 1.400 . S
C405 H397 0.931 . S
C405 C404 1.400 . S
C405 C406 1.375 . S
C406 C405 1.375 . S
C406 C407 1.415 . S
C406 C408 1.501 . S
C407 H398 0.931 . S
C407 C403 1.382 . S
C407 C406 1.415 . S
C408 C406 1.501 . S
C408 C409 1.384 . S
C408 C413 1.408 . S
C409 H399 0.930 . S
C409 C408 1.384 . S
C409 C410 1.389 . S
C410 C409 1.389 . S
C410 C411 1.405 . S
C411 H400 0.930 . S
C411 C410 1.405 . S
C411 C412 1.364 . S
C412 C411 1.364 . S
C412 C413 1.400 . S
C413 H401 0.931 . S
C413 C408 1.408 . S
C413 C412 1.400 . S
H414 C420 0.967 . S
H415 C423 0.931 . S
H416 C425 0.931 . S
H417 C427 0.930 . S
H418 C429 0.896 . S
H419 C431 0.941 . S
C420 H414 0.967 . S
C420 C421 1.378 . S
C420 C422 1.394 1_655 S
C421 C420 1.378 . S
C421 C425 1.382 . S
C422 C420 1.394 1_455 S
C422 C423 1.400 . S
C423 H415 0.931 . S
C423 C422 1.400 . S
C423 C424 1.375 . S
C424 C423 1.375 . S
C424 C425 1.415 1_455 S
C424 C426 1.501 . S
C425 H416 0.931 . S
C425 C421 1.382 . S
C425 C424 1.415 1_655 S
C426 C424 1.501 . S
C426 C427 1.384 . S
C426 C431 1.421 . S
C427 H417 0.930 . S
C427 C426 1.384 . S
C427 C428 1.434 . S
C428 C427 1.434 . S
C428 C429 1.403 . S
C429 H418 0.896 . S
C429 C428 1.403 . S
C429 C430 1.379 . S
C430 C429 1.379 . S
C430 C431 1.388 . S
C431 H419 0.941 . S
C431 C426 1.421 . S
C431 C430 1.388 . S
H432 C438 0.930 . S
H433 C441 0.931 . S
H434 C443 0.931 . S
H435 C445 0.930 . S
H436 C447 0.930 . S
H437 C449 0.931 . S
C438 H432 0.930 . S
C438 C439 1.380 . S
C438 C440 1.394 . S
C439 C438 1.380 . S
C439 C443 1.382 . S
C440 C438 1.394 . S
C440 C441 1.400 . S
C441 H433 0.931 . S
C441 C440 1.400 . S
C441 C442 1.375 . S
C442 C441 1.375 . S
C442 C443 1.415 . S
C442 C444 1.501 . S
C443 H434 0.931 . S
C443 C439 1.382 . S
C443 C442 1.415 . S
C444 C442 1.501 . S
C444 C445 1.384 . S
C444 C449 1.408 . S
C445 H435 0.930 . S
C445 C444 1.384 . S
C445 C446 1.389 . S
C446 C445 1.389 . S
C446 C447 1.405 . S
C447 H436 0.930 . S
C447 C446 1.405 . S
C447 C448 1.364 . S
C448 C447 1.364 . S
C448 C449 1.400 . S
C449 H437 0.931 . S
C449 C444 1.408 . S
C449 C448 1.400 . S
H450 C456 0.974 . S
H451 C459 0.931 . S
H452 C461 0.931 . S
H453 C463 0.930 . S
H454 C465 0.930 . S
H455 C467 0.916 . S
C456 H450 0.974 . S
C456 C457 1.371 . S
C456 C458 1.365 1_545 S
C457 C456 1.371 . S
C457 C461 1.382 . S
C458 C456 1.365 1_565 S
C458 C459 1.400 . S
C459 H451 0.931 . S
C459 C458 1.400 . S
C459 C460 1.375 . S
C460 C459 1.375 . S
C460 C461 1.415 1_565 S
C460 C462 1.501 . S
C461 H452 0.931 . S
C461 C457 1.382 . S
C461 C460 1.415 1_545 S
C462 C460 1.501 . S
C462 C463 1.384 . S
C462 C467 1.393 . S
C463 H453 0.930 . S
C463 C462 1.384 . S
C463 C464 1.389 . S
C464 C463 1.389 . S
C464 C465 1.405 . S
C465 H454 0.930 . S
C465 C464 1.405 . S
C465 C466 1.390 . S
C466 C465 1.390 . S
C466 C467 1.397 . S
C467 H455 0.916 . S
C467 C462 1.393 . S
C467 C466 1.397 . S
H468 C474 0.964 . S
H469 C477 0.931 . S
H470 C479 0.923 . S
H471 C481 0.930 . S
H472 C483 0.945 . S
H473 C485 0.931 . S
C474 H468 0.964 . S
C474 C475 1.376 1_545 S
C474 C476 1.412 1_545 S
C475 C474 1.376 1_565 S
C475 C479 1.401 . S
C476 C474 1.412 1_565 S
C476 C477 1.362 . S
C477 H469 0.931 . S
C477 C476 1.362 . S
C477 C478 1.375 . S
C478 C477 1.375 . S
C478 C479 1.408 . S
C478 C480 1.501 . S
C479 H470 0.923 . S
C479 C475 1.401 . S
C479 C478 1.408 . S
C480 C478 1.501 . S
C480 C481 1.384 . S
C480 C485 1.408 1_565 S
C481 H471 0.930 . S
C481 C480 1.384 . S
C481 C482 1.389 . S
C482 C481 1.389 . S
C482 C483 1.415 . S
C483 H472 0.945 . S
C483 C482 1.415 . S
C483 C484 1.368 1_565 S
C484 C483 1.368 1_545 S
C484 C485 1.400 . S
C485 H473 0.931 . S
C485 C480 1.408 1_545 S
C485 C484 1.400 . S
H486 C492 0.971 . S
H487 C495 0.931 . S
H488 C497 0.934 . S
H489 C499 0.930 . S
H490 C501 0.930 . S
H491 C503 0.931 . S
C492 H486 0.971 . S
C492 C493 1.372 . S
C492 C494 1.370 1_655 S
C493 C492 1.372 . S
C493 C497 1.357 1_655 S
C494 C492 1.370 1_455 S
C494 C495 1.409 . S
C495 H487 0.931 . S
C495 C494 1.409 . S
C495 C496 1.375 . S
C496 C495 1.375 . S
C496 C497 1.418 . S
C496 C498 1.501 . S
C497 H488 0.934 . S
C497 C493 1.357 1_455 S
C497 C496 1.418 . S
C498 C496 1.501 . S
C498 C499 1.384 . S
C498 C503 1.408 1_455 S
C499 H489 0.930 . S
C499 C498 1.384 . S
C499 C500 1.389 . S
C500 C499 1.389 . S
C500 C501 1.405 . S
C501 H490 0.930 . S
C501 C500 1.405 . S
C501 C502 1.364 1_455 S
C502 C501 1.364 1_655 S
C502 C503 1.400 . S
C503 H491 0.931 . S
C503 C498 1.408 1_655 S
C503 C502 1.400 . S
H504 C510 0.930 . S
H505 C513 0.931 . S
H506 C515 0.931 . S
H507 C517 0.930 . S
H508 C519 0.930 . S
H509 C521 0.931 . S
C510 H504 0.930 . S
C510 C511 1.380 . S
C510 C512 1.394 . S
C511 C510 1.380 . S
C511 C515 1.382 . S
C512 C510 1.394 . S
C512 C513 1.400 . S
C513 H505 0.931 . S
C513 C512 1.400 . S
C513 C514 1.375 . S
C514 C513 1.375 . S
C514 C515 1.415 . S
C514 C516 1.501 . S
C515 H506 0.931 . S
C515 C511 1.382 . S
C515 C514 1.415 . S
C516 C514 1.501 . S
C516 C517 1.384 . S
C516 C521 1.408 . S
C517 H507 0.930 . S
C517 C516 1.384 . S
C517 C518 1.389 . S
C518 C517 1.389 . S
C518 C519 1.405 . S
C519 H508 0.930 . S
C519 C518 1.405 . S
C519 C520 1.364 . S
C520 C519 1.364 . S
C520 C521 1.400 . S
C521 H509 0.931 . S
C521 C516 1.408 . S
C521 C520 1.400 . S
H522 C528 0.930 . S
H523 C531 0.931 . S
H524 C533 0.931 . S
H525 C535 0.930 . S
H526 C537 0.930 . S
H527 C539 0.931 . S
C528 H522 0.930 . S
C528 C529 1.380 . S
C528 C530 1.394 . S
C529 C528 1.380 . S
C529 C533 1.382 . S
C530 C528 1.394 . S
C530 C531 1.400 . S
C531 H523 0.931 . S
C531 C530 1.400 . S
C531 C532 1.375 . S
C532 C531 1.375 . S
C532 C533 1.415 . S
C532 C534 1.501 . S
C533 H524 0.931 . S
C533 C529 1.382 . S
C533 C532 1.415 . S
C534 C532 1.501 . S
C534 C535 1.384 . S
C534 C539 1.408 . S
C535 H525 0.930 . S
C535 C534 1.384 . S
C535 C536 1.389 . S
C536 C535 1.389 . S
C536 C537 1.405 . S
C537 H526 0.930 . S
C537 C536 1.405 . S
C537 C538 1.364 . S
C538 C537 1.364 . S
C538 C539 1.400 . S
C539 H527 0.931 . S
C539 C534 1.408 . S
C539 C538 1.400 . S
H540 C546 0.930 . S
H541 C549 0.931 . S
H542 C551 0.931 . S
H543 C553 0.930 . S
H544 C555 0.930 . S
H545 C557 0.931 . S
C546 H540 0.930 . S
C546 C547 1.380 . S
C546 C548 1.394 . S
C547 C546 1.380 . S
C547 C551 1.382 . S
C548 C546 1.394 . S
C548 C549 1.400 . S
C549 H541 0.931 . S
C549 C548 1.400 . S
C549 C550 1.375 . S
C550 C549 1.375 . S
C550 C551 1.415 . S
C550 C552 1.501 . S
C551 H542 0.931 . S
C551 C547 1.382 . S
C551 C550 1.415 . S
C552 C550 1.501 . S
C552 C553 1.384 . S
C552 C557 1.408 . S
C553 H543 0.930 . S
C553 C552 1.384 . S
C553 C554 1.389 . S
C554 C553 1.389 . S
C554 C555 1.405 . S
C555 H544 0.930 . S
C555 C554 1.405 . S
C555 C556 1.364 . S
C556 C555 1.364 . S
C556 C557 1.400 . S
C557 H545 0.931 . S
C557 C552 1.408 . S
C557 C556 1.400 . S
H558 C564 0.930 . S
H559 C567 0.931 . S
H560 C569 0.931 . S
H561 C571 0.930 . S
H562 C573 0.930 . S
H563 C575 0.931 . S
C564 H558 0.930 . S
C564 C565 1.380 . S
C564 C566 1.394 . S
C565 C564 1.380 . S
C565 C569 1.382 . S
C566 C564 1.394 . S
C566 C567 1.400 . S
C567 H559 0.931 . S
C567 C566 1.400 . S
C567 C568 1.375 . S
C568 C567 1.375 . S
C568 C569 1.415 . S
C568 C570 1.501 . S
C569 H560 0.931 . S
C569 C565 1.382 . S
C569 C568 1.415 . S
C570 C568 1.501 . S
C570 C571 1.384 . S
C570 C575 1.408 . S
C571 H561 0.930 . S
C571 C570 1.384 . S
C571 C572 1.389 . S
C572 C571 1.389 . S
C572 C573 1.405 . S
C573 H562 0.930 . S
C573 C572 1.405 . S
C573 C574 1.364 . S
C574 C573 1.364 . S
C574 C575 1.400 . S
C575 H563 0.931 . S
C575 C570 1.408 . S
C575 C574 1.400 . S
C576 C577 1.349 . S
C576 C578 1.327 . S
C576 H601 0.950 . S
C577 C576 1.349 . S
C577 C593 1.349 1_655 S
C578 C576 1.327 . S
C578 C597 1.429 . S
C578 H602 0.950 . S
C579 C596 1.574 . S
C579 C598 1.368 1_455 S
C579 H603 0.949 . S
H580 C584 0.949 . S
C581 C582 1.349 1_455 S
C581 C583 1.327 . S
C581 H604 0.950 . S
C582 C581 1.349 1_655 S
C582 C594 1.349 . S
C583 C581 1.327 . S
C583 C599 1.429 1_455 S
C583 H605 0.950 . S
C584 H580 0.949 . S
C584 C592 1.574 . S
C584 C600 1.368 . S
H585 C593 0.950 . S
H586 C591 0.950 . S
H587 C592 0.949 . S
H588 C594 0.950 . S
H589 C595 0.950 . S
H590 C596 0.949 . S
C591 H586 0.950 . S
C591 C593 1.327 . S
C591 C597 1.429 1_455 S
C592 C584 1.574 . S
C592 H587 0.949 . S
C592 C598 1.368 . S
C593 C577 1.349 1_455 S
C593 H585 0.950 . S
C593 C591 1.327 . S
C594 C582 1.349 . S
C594 H588 0.950 . S
C594 C595 1.327 . S
C595 H589 0.950 . S
C595 C594 1.327 . S
C595 C599 1.429 . S
C596 C579 1.574 . S
C596 H590 0.949 . S
C596 C600 1.368 1_455 S
C597 C578 1.429 . S
C597 C591 1.429 1_655 S
C597 C598 1.523 . S
C598 C579 1.368 1_655 S
C598 C592 1.368 . S
C598 C597 1.523 . S
C599 C583 1.429 1_655 S
C599 C595 1.429 . S
C599 C600 1.523 . S
C600 C584 1.368 . S
C600 C596 1.368 1_655 S
C600 C599 1.523 . S
H601 C576 0.950 . S
H602 C578 0.950 . S
H603 C579 0.949 . S
H604 C581 0.950 . S
H605 C583 0.950 . S
C606 C607 1.349 . S
C606 C608 1.327 . S
C606 H631 0.950 . S
C607 C606 1.349 . S
C607 C623 1.349 . S
C608 C606 1.327 . S
C608 C627 1.429 . S
C608 H632 0.950 . S
C609 C626 1.574 . S
C609 C628 1.368 . S
C609 H633 0.949 . S
H610 C614 0.949 . S
C611 C612 1.349 . S
C611 C613 1.327 . S
C611 H634 0.950 . S
C612 C611 1.349 . S
C612 C624 1.349 . S
C613 C611 1.327 . S
C613 C629 1.429 . S
C613 H635 0.950 . S
C614 H610 0.949 . S
C614 C622 1.574 . S
C614 C630 1.368 . S
H615 C623 0.950 . S
H616 C621 0.950 . S
H617 C622 0.949 . S
H618 C624 0.950 . S
H619 C625 0.950 . S
H620 C626 0.949 . S
C621 H616 0.950 . S
C621 C623 1.327 . S
C621 C627 1.429 . S
C622 C614 1.574 . S
C622 H617 0.949 . S
C622 C628 1.368 . S
C623 C607 1.349 . S
C623 H615 0.950 . S
C623 C621 1.327 . S
C624 C612 1.349 . S
C624 H618 0.950 . S
C624 C625 1.327 . S
C625 H619 0.950 . S
C625 C624 1.327 . S
C625 C629 1.429 . S
C626 C609 1.574 . S
C626 H620 0.949 . S
C626 C630 1.368 . S
C627 C608 1.429 . S
C627 C621 1.429 . S
C627 C628 1.523 . S
C628 C609 1.368 . S
C628 C622 1.368 . S
C628 C627 1.523 . S
C629 C613 1.429 . S
C629 C625 1.429 . S
C629 C630 1.523 . S
C630 C614 1.368 . S
C630 C626 1.368 . S
C630 C629 1.523 . S
H631 C606 0.950 . S
H632 C608 0.950 . S
H633 C609 0.949 . S
H634 C611 0.950 . S
H635 C613 0.950 . S
C636 C637 1.349 1_565 S
C636 C638 1.327 . S
C636 H661 0.950 . S
C637 C636 1.349 1_545 S
C637 C653 1.349 . S
C638 C636 1.327 . S
C638 C657 1.429 1_565 S
C638 H662 0.950 . S
C639 C656 1.574 . S
C639 C658 1.368 . S
C639 H663 0.949 . S
H640 C644 0.949 . S
C641 C642 1.349 . S
C641 C643 1.327 . S
C641 H664 0.950 . S
C642 C641 1.349 . S
C642 C654 1.349 1_545 S
C643 C641 1.327 . S
C643 C659 1.429 . S
C643 H665 0.950 . S
C644 H640 0.949 . S
C644 C652 1.574 . S
C644 C660 1.368 1_565 S
H645 C653 0.950 . S
H646 C651 0.950 . S
H647 C652 0.949 . S
H648 C654 0.950 . S
H649 C655 0.950 . S
H650 C656 0.949 . S
C651 H646 0.950 . S
C651 C653 1.327 . S
C651 C657 1.429 . S
C652 C644 1.574 . S
C652 H647 0.949 . S
C652 C658 1.368 1_565 S
C653 C637 1.349 . S
C653 H645 0.950 . S
C653 C651 1.327 . S
C654 C642 1.349 1_565 S
C654 H648 0.950 . S
C654 C655 1.327 . S
C655 H649 0.950 . S
C655 C654 1.327 . S
C655 C659 1.429 1_565 S
C656 C639 1.574 . S
C656 H650 0.949 . S
C656 C660 1.368 . S
C657 C638 1.429 1_545 S
C657 C651 1.429 . S
C657 C658 1.523 . S
C658 C639 1.368 . S
C658 C652 1.368 1_545 S
C658 C657 1.523 . S
C659 C643 1.429 . S
C659 C655 1.429 1_545 S
C659 C660 1.523 . S
C660 C644 1.368 1_545 S
C660 C656 1.368 . S
C660 C659 1.523 . S
H661 C636 0.950 . S
H662 C638 0.950 . S
H663 C639 0.949 . S
H664 C641 0.950 . S
H665 C643 0.950 . S
C666 C667 1.349 . S
C666 C668 1.327 . S
C666 H691 0.950 . S
C667 C666 1.349 . S
C667 C683 1.349 1_565 S
C668 C666 1.327 . S
C668 C687 1.429 . S
C668 H692 0.950 . S
C669 C686 1.574 . S
C669 C688 1.368 1_545 S
C669 H693 0.949 . S
H670 C674 0.949 . S
C671 C672 1.349 1_545 S
C671 C673 1.327 . S
C671 H694 0.950 . S
C672 C671 1.349 1_565 S
C672 C684 1.349 . S
C673 C671 1.327 . S
C673 C689 1.429 1_545 S
C673 H695 0.950 . S
C674 H670 0.949 . S
C674 C682 1.574 . S
C674 C690 1.368 . S
H675 C683 0.950 . S
H676 C681 0.950 . S
H677 C682 0.949 . S
H678 C684 0.950 . S
H679 C685 0.950 . S
H680 C686 0.949 . S
C681 H676 0.950 . S
C681 C683 1.327 . S
C681 C687 1.429 1_545 S
C682 C674 1.574 . S
C682 H677 0.949 . S
C682 C688 1.368 . S
C683 C667 1.349 1_545 S
C683 H675 0.950 . S
C683 C681 1.327 . S
C684 C672 1.349 . S
C684 H678 0.950 . S
C684 C685 1.327 . S
C685 H679 0.950 . S
C685 C684 1.327 . S
C685 C689 1.429 . S
C686 C669 1.574 . S
C686 H680 0.949 . S
C686 C690 1.368 1_545 S
C687 C668 1.429 . S
C687 C681 1.429 1_565 S
C687 C688 1.523 . S
C688 C669 1.368 1_565 S
C688 C682 1.368 . S
C688 C687 1.523 . S
C689 C673 1.429 1_565 S
C689 C685 1.429 . S
C689 C690 1.523 . S
C690 C674 1.368 . S
C690 C686 1.368 1_565 S
C690 C689 1.523 . S
H691 C666 0.950 . S
H692 C668 0.950 . S
H693 C669 0.949 . S
H694 C671 0.950 . S
H695 C673 0.950 . S
C696 C697 1.349 1_655 S
C696 C698 1.327 . S
C696 H721 0.950 . S
C697 C696 1.349 1_455 S
C697 C713 1.349 . S
C698 C696 1.327 . S
C698 C717 1.429 1_655 S
C698 H722 0.950 . S
C699 C716 1.574 . S
C699 C718 1.368 . S
C699 H723 0.949 . S
H700 C704 0.949 . S
C701 C702 1.349 . S
C701 C703 1.327 . S
C701 H724 0.950 . S
C702 C701 1.349 . S
C702 C714 1.349 1_455 S
C703 C701 1.327 . S
C703 C719 1.429 . S
C703 H725 0.950 . S
C704 H700 0.949 . S
C704 C712 1.574 . S
C704 C720 1.368 1_655 S
H705 C713 0.950 . S
H706 C711 0.950 . S
H707 C712 0.949 . S
H708 C714 0.950 . S
H709 C715 0.950 . S
H710 C716 0.949 . S
C711 H706 0.950 . S
C711 C713 1.327 . S
C711 C717 1.429 . S
C712 C704 1.574 . S
C712 H707 0.949 . S
C712 C718 1.368 1_655 S
C713 C697 1.349 . S
C713 H705 0.950 . S
C713 C711 1.327 . S
C714 C702 1.349 1_655 S
C714 H708 0.950 . S
C714 C715 1.327 . S
C715 H709 0.950 . S
C715 C714 1.327 . S
C715 C719 1.429 1_655 S
C716 C699 1.574 . S
C716 H710 0.949 . S
C716 C720 1.368 . S
C717 C698 1.429 1_455 S
C717 C711 1.429 . S
C717 C718 1.523 . S
C718 C699 1.368 . S
C718 C712 1.368 1_455 S
C718 C717 1.523 . S
C719 C703 1.429 . S
C719 C715 1.429 1_455 S
C719 C720 1.523 . S
C720 C704 1.368 1_455 S
C720 C716 1.368 . S
C720 C719 1.523 . S
H721 C696 0.950 . S
H722 C698 0.950 . S
H723 C699 0.949 . S
H724 C701 0.950 . S
H725 C703 0.950 . S
C726 C727 1.349 . S
C726 C728 1.327 . S
C726 H751 0.950 . S
C727 C726 1.349 . S
C727 C743 1.349 . S
C728 C726 1.327 . S
C728 C747 1.429 . S
C728 H752 0.950 . S
C729 C746 1.574 . S
C729 C748 1.368 . S
C729 H753 0.949 . S
H730 C734 0.949 . S
C731 C732 1.349 . S
C731 C733 1.327 . S
C731 H754 0.950 . S
C732 C731 1.349 . S
C732 C744 1.349 . S
C733 C731 1.327 . S
C733 C749 1.429 . S
C733 H755 0.950 . S
C734 H730 0.949 . S
C734 C742 1.574 . S
C734 C750 1.368 . S
H735 C743 0.950 . S
H736 C741 0.950 . S
H737 C742 0.949 . S
H738 C744 0.950 . S
H739 C745 0.950 . S
H740 C746 0.949 . S
C741 H736 0.950 . S
C741 C743 1.327 . S
C741 C747 1.429 . S
C742 C734 1.574 . S
C742 H737 0.949 . S
C742 C748 1.368 . S
C743 C727 1.349 . S
C743 H735 0.950 . S
C743 C741 1.327 . S
C744 C732 1.349 . S
C744 H738 0.950 . S
C744 C745 1.327 . S
C745 H739 0.950 . S
C745 C744 1.327 . S
C745 C749 1.429 . S
C746 C729 1.574 . S
C746 H740 0.949 . S
C746 C750 1.368 . S
C747 C728 1.429 . S
C747 C741 1.429 . S
C747 C748 1.523 . S
C748 C729 1.368 . S
C748 C742 1.368 . S
C748 C747 1.523 . S
C749 C733 1.429 . S
C749 C745 1.429 . S
C749 C750 1.523 . S
C750 C734 1.368 . S
C750 C746 1.368 . S
C750 C749 1.523 . S
H751 C726 0.950 . S
H752 C728 0.950 . S
H753 C729 0.949 . S
H754 C731 0.950 . S
H755 C733 0.950 . S
C756 C757 1.349 . S
C756 C758 1.327 . S
C756 H781 0.950 . S
C757 C756 1.349 . S
C757 C773 1.349 1_455 S
C758 C756 1.327 . S
C758 C777 1.429 . S
C758 H782 0.950 . S
C759 C776 1.574 . S
C759 C778 1.368 1_655 S
C759 H783 0.949 . S
H760 C764 0.949 . S
C761 C762 1.341 . S
C761 C763 1.327 . S
C761 H784 0.950 . S
C762 C761 1.341 . S
C762 C774 1.354 1_655 S
C763 C761 1.327 . S
C763 C779 1.429 1_655 S
C763 H785 0.950 . S
C764 H760 0.949 . S
C764 C772 1.574 . S
C764 C780 1.368 . S
H765 C773 0.950 . S
H766 C771 0.950 . S
H767 C772 0.949 . S
H768 C774 0.950 . S
H769 C775 0.950 . S
H770 C776 0.949 . S
C771 H766 0.950 . S
C771 C773 1.327 . S
C771 C777 1.429 1_655 S
C772 C764 1.574 . S
C772 H767 0.949 . S
C772 C778 1.368 . S
C773 C757 1.349 1_655 S
C773 H765 0.950 . S
C773 C771 1.327 . S
C774 C762 1.354 1_455 S
C774 H768 0.950 . S
C774 C775 1.327 . S
C775 H769 0.950 . S
C775 C774 1.327 . S
C775 C779 1.429 . S
C776 C759 1.574 . S
C776 H770 0.949 . S
C776 C780 1.368 1_655 S
C777 C758 1.429 . S
C777 C771 1.429 1_455 S
C777 C778 1.523 . S
C778 C759 1.368 1_455 S
C778 C772 1.368 . S
C778 C777 1.523 . S
C779 C763 1.429 1_455 S
C779 C775 1.429 . S
C779 C780 1.523 . S
C780 C764 1.368 . S
C780 C776 1.368 1_455 S
C780 C779 1.523 . S
H781 C756 0.950 . S
H782 C758 0.950 . S
H783 C759 0.949 . S
H784 C761 0.950 . S
H785 C763 0.950 . S
C786 C787 1.349 . S
C786 C788 1.327 . S
C786 H811 0.950 . S
C787 C786 1.349 . S
C787 C803 1.349 . S
C788 C786 1.327 . S
C788 C807 1.429 . S
C788 H812 0.950 . S
C789 C806 1.574 . S
C789 C808 1.368 . S
C789 H813 0.949 . S
H790 C794 0.949 . S
C791 C792 1.349 . S
C791 C793 1.327 . S
C791 H814 0.950 . S
C792 C791 1.349 . S
C792 C804 1.349 . S
C793 C791 1.327 . S
C793 C809 1.429 . S
C793 H815 0.950 . S
C794 H790 0.949 . S
C794 C802 1.574 . S
C794 C810 1.368 . S
H795 C803 0.950 . S
H796 C801 0.950 . S
H797 C802 0.949 . S
H798 C804 0.950 . S
H799 C805 0.950 . S
H800 C806 0.949 . S
C801 H796 0.950 . S
C801 C803 1.327 . S
C801 C807 1.429 . S
C802 C794 1.574 . S
C802 H797 0.949 . S
C802 C808 1.368 . S
C803 C787 1.349 . S
C803 H795 0.950 . S
C803 C801 1.327 . S
C804 C792 1.349 . S
C804 H798 0.950 . S
C804 C805 1.327 . S
C805 H799 0.950 . S
C805 C804 1.327 . S
C805 C809 1.429 . S
C806 C789 1.574 . S
C806 H800 0.949 . S
C806 C810 1.368 . S
C807 C788 1.429 . S
C807 C801 1.429 . S
C807 C808 1.523 . S
C808 C789 1.368 . S
C808 C802 1.368 . S
C808 C807 1.523 . S
C809 C793 1.429 . S
C809 C805 1.429 . S
C809 C810 1.523 . S
C810 C794 1.368 . S
C810 C806 1.368 . S
C810 C809 1.523 . S
H811 C786 0.950 . S
H812 C788 0.950 . S
H813 C789 0.949 . S
H814 C791 0.950 . S
H815 C793 0.950 . S
C816 C817 1.349 . S
C816 C818 1.327 . S
C816 H841 0.950 . S
C817 C816 1.349 . S
C817 C833 1.349 1_565 S
C818 C816 1.327 . S
C818 C837 1.429 . S
C818 H842 0.950 . S
C819 C836 1.574 . S
C819 C838 1.368 1_545 S
C819 H843 0.949 . S
H820 C824 0.949 . S
C821 C822 1.345 1_545 S
C821 C823 1.327 . S
C821 H844 0.950 . S
C822 C821 1.345 1_565 S
C822 C834 1.356 . S
C823 C821 1.327 . S
C823 C839 1.429 1_545 S
C823 H845 0.950 . S
C824 H820 0.949 . S
C824 C832 1.574 . S
C824 C840 1.368 . S
H825 C833 0.950 . S
H826 C831 0.950 . S
H827 C832 0.949 . S
H828 C834 0.950 . S
H829 C835 0.950 . S
H830 C836 0.949 . S
C831 H826 0.950 . S
C831 C833 1.327 . S
C831 C837 1.429 1_545 S
C832 C824 1.574 . S
C832 H827 0.949 . S
C832 C838 1.368 . S
C833 C817 1.349 1_545 S
C833 H825 0.950 . S
C833 C831 1.327 . S
C834 C822 1.356 . S
C834 H828 0.950 . S
C834 C835 1.327 . S
C835 H829 0.950 . S
C835 C834 1.327 . S
C835 C839 1.429 . S
C836 C819 1.574 . S
C836 H830 0.949 . S
C836 C840 1.368 1_545 S
C837 C818 1.429 . S
C837 C831 1.429 1_565 S
C837 C838 1.523 . S
C838 C819 1.368 1_565 S
C838 C832 1.368 . S
C838 C837 1.523 . S
C839 C823 1.429 1_565 S
C839 C835 1.429 . S
C839 C840 1.523 . S
C840 C824 1.368 . S
C840 C836 1.368 1_565 S
C840 C839 1.523 . S
H841 C816 0.950 . S
H842 C818 0.950 . S
H843 C819 0.949 . S
H844 C821 0.950 . S
H845 C823 0.950 . S
C846 C847 1.349 1_565 S
C846 C848 1.327 . S
C846 H871 0.950 . S
C847 C846 1.349 1_545 S
C847 C863 1.349 . S
C848 C846 1.327 . S
C848 C867 1.429 1_565 S
C848 H872 0.950 . S
C849 C866 1.574 . S
C849 C868 1.368 . S
C849 H873 0.949 . S
H850 C854 0.949 . S
C851 C852 1.342 1_545 S
C851 C853 1.327 . S
C851 H874 0.950 . S
C852 C851 1.342 1_565 S
C852 C864 1.363 . S
C853 C851 1.327 . S
C853 C869 1.429 . S
C853 H875 0.950 . S
C854 H850 0.949 . S
C854 C862 1.574 . S
C854 C870 1.368 1_565 S
H855 C863 0.950 . S
H856 C861 0.950 . S
H857 C862 0.949 . S
H858 C864 0.950 . S
H859 C865 0.950 . S
H860 C866 0.949 . S
C861 H856 0.950 . S
C861 C863 1.327 . S
C861 C867 1.429 . S
C862 C854 1.574 . S
C862 H857 0.949 . S
C862 C868 1.368 1_565 S
C863 C847 1.349 . S
C863 H855 0.950 . S
C863 C861 1.327 . S
C864 C852 1.363 . S
C864 H858 0.950 . S
C864 C865 1.327 . S
C865 H859 0.950 . S
C865 C864 1.327 . S
C865 C869 1.429 1_565 S
C866 C849 1.574 . S
C866 H860 0.949 . S
C866 C870 1.368 . S
C867 C848 1.429 1_545 S
C867 C861 1.429 . S
C867 C868 1.523 . S
C868 C849 1.368 . S
C868 C862 1.368 1_545 S
C868 C867 1.523 . S
C869 C853 1.429 . S
C869 C865 1.429 1_545 S
C869 C870 1.523 . S
C870 C854 1.368 1_545 S
C870 C866 1.368 . S
C870 C869 1.523 . S
H871 C846 0.950 . S
H872 C848 0.950 . S
H873 C849 0.949 . S
H874 C851 0.950 . S
H875 C853 0.950 . S
C876 C877 1.388 . S
C876 C878 1.306 . S
C876 H901 0.938 1_655 S
C877 C876 1.388 . S
C877 C893 1.349 . S
C878 C876 1.306 . S
C878 C897 1.430 . S
C878 H902 0.945 1_655 S
C879 C896 1.574 . S
C879 C898 1.368 . S
C879 H903 0.949 . S
H880 C884 0.949 . S
C881 C882 1.346 . S
C881 C883 1.327 . S
C881 H904 0.950 . S
C882 C881 1.346 . S
C882 C894 1.350 1_655 S
C883 C881 1.327 . S
C883 C899 1.449 . S
C883 H905 0.950 . S
C884 H880 0.949 . S
C884 C892 1.609 . S
C884 C900 1.368 1_455 S
H885 C893 0.950 . S
H886 C891 0.950 . S
H887 C892 0.968 . S
H888 C894 0.950 . S
H889 C895 0.950 . S
H890 C896 0.949 . S
C891 H886 0.950 . S
C891 C893 1.327 . S
C891 C897 1.429 . S
C892 C884 1.609 . S
C892 H887 0.968 . S
C892 C898 1.318 1_455 S
C893 C877 1.349 . S
C893 H885 0.950 . S
C893 C891 1.327 . S
C894 C882 1.350 1_455 S
C894 H888 0.950 . S
C894 C895 1.327 . S
C895 H889 0.950 . S
C895 C894 1.327 . S
C895 C899 1.372 1_455 S
C896 C879 1.574 . S
C896 H890 0.949 . S
C896 C900 1.368 . S
C897 C878 1.430 . S
C897 C891 1.429 . S
C897 C898 1.523 . S
C898 C879 1.368 . S
C898 C892 1.318 1_655 S
C898 C897 1.523 . S
C899 C883 1.449 . S
C899 C895 1.372 1_655 S
C899 C900 1.562 . S
C900 C884 1.368 1_655 S
C900 C896 1.368 . S
C900 C899 1.562 . S
H901 C876 0.938 1_455 S
H902 C878 0.945 1_455 S
H903 C879 0.949 . S
H904 C881 0.950 . S
H905 C883 0.950 . S
C906 C907 1.349 . S
C906 C908 1.327 . S
C906 H931 0.950 . S
C907 C906 1.349 . S
C907 C923 1.349 . S
C908 C906 1.327 . S
C908 C927 1.429 . S
C908 H932 0.950 . S
C909 C926 1.574 . S
C909 C928 1.368 . S
C909 H933 0.949 . S
H910 C914 0.949 . S
C911 C912 1.349 . S
C911 C913 1.327 . S
C911 H934 0.950 . S
C912 C911 1.349 . S
C912 C924 1.349 . S
C913 C911 1.327 . S
C913 C929 1.429 . S
C913 H935 0.950 . S
C914 H910 0.949 . S
C914 C922 1.574 . S
C914 C930 1.368 . S
H915 C923 0.950 . S
H916 C921 0.950 . S
H917 C922 0.949 . S
H918 C924 0.950 . S
H919 C925 0.950 . S
H920 C926 0.949 . S
C921 H916 0.950 . S
C921 C923 1.327 . S
C921 C927 1.429 . S
C922 C914 1.574 . S
C922 H917 0.949 . S
C922 C928 1.368 . S
C923 C907 1.349 . S
C923 H915 0.950 . S
C923 C921 1.327 . S
C924 C912 1.349 . S
C924 H918 0.950 . S
C924 C925 1.327 . S
C925 H919 0.950 . S
C925 C924 1.327 . S
C925 C929 1.429 . S
C926 C909 1.574 . S
C926 H920 0.949 . S
C926 C930 1.368 . S
C927 C908 1.429 . S
C927 C921 1.429 . S
C927 C928 1.523 . S
C928 C909 1.368 . S
C928 C922 1.368 . S
C928 C927 1.523 . S
C929 C913 1.429 . S
C929 C925 1.429 . S
C929 C930 1.523 . S
C930 C914 1.368 . S
C930 C926 1.368 . S
C930 C929 1.523 . S
H931 C906 0.950 . S
H932 C908 0.950 . S
H933 C909 0.949 . S
H934 C911 0.950 . S
H935 C913 0.950 . S
C936 C937 1.349 . S
C936 C938 1.327 . S
C936 H961 0.950 . S
C937 C936 1.349 . S
C937 C953 1.349 . S
C938 C936 1.327 . S
C938 C957 1.429 . S
C938 H962 0.950 . S
C939 C956 1.574 . S
C939 C958 1.368 . S
C939 H963 0.949 . S
H940 C944 0.949 . S
C941 C942 1.349 . S
C941 C943 1.327 . S
C941 H964 0.950 . S
C942 C941 1.349 . S
C942 C954 1.349 . S
C943 C941 1.327 . S
C943 C959 1.429 . S
C943 H965 0.950 . S
C944 H940 0.949 . S
C944 C952 1.574 . S
C944 C960 1.368 . S
H945 C953 0.950 . S
H946 C951 0.950 . S
H947 C952 0.949 . S
H948 C954 0.950 . S
H949 C955 0.950 . S
H950 C956 0.949 . S
C951 H946 0.950 . S
C951 C953 1.327 . S
C951 C957 1.429 . S
C952 C944 1.574 . S
C952 H947 0.949 . S
C952 C958 1.368 . S
C953 C937 1.349 . S
C953 H945 0.950 . S
C953 C951 1.327 . S
C954 C942 1.349 . S
C954 H948 0.950 . S
C954 C955 1.327 . S
C955 H949 0.950 . S
C955 C954 1.327 . S
C955 C959 1.429 . S
C956 C939 1.574 . S
C956 H950 0.949 . S
C956 C960 1.368 . S
C957 C938 1.429 . S
C957 C951 1.429 . S
C957 C958 1.523 . S
C958 C939 1.368 . S
C958 C952 1.368 . S
C958 C957 1.523 . S
C959 C943 1.429 . S
C959 C955 1.429 . S
C959 C960 1.523 . S
C960 C944 1.368 . S
C960 C956 1.368 . S
C960 C959 1.523 . S
H961 C936 0.950 . S
H962 C938 0.950 . S
H963 C939 0.949 . S
H964 C941 0.950 . S
H965 C943 0.950 . S
C966 C967 1.349 . S
C966 C968 1.327 . S
C966 H991 0.950 . S
C967 C966 1.349 . S
C967 C983 1.349 . S
C968 C966 1.327 . S
C968 C987 1.429 . S
C968 H992 0.950 . S
C969 C986 1.574 . S
C969 C988 1.368 . S
C969 H993 0.949 . S
H970 C974 0.949 . S
C971 C972 1.349 . S
C971 C973 1.327 . S
C971 H994 0.950 . S
C972 C971 1.349 . S
C972 C984 1.349 . S
C973 C971 1.327 . S
C973 C989 1.429 . S
C973 H995 0.950 . S
C974 H970 0.949 . S
C974 C982 1.574 . S
C974 C990 1.368 . S
H975 C983 0.950 . S
H976 C981 0.950 . S
H977 C982 0.949 . S
H978 C984 0.950 . S
H979 C985 0.950 . S
H980 C986 0.949 . S
C981 H976 0.950 . S
C981 C983 1.327 . S
C981 C987 1.429 . S
C982 C974 1.574 . S
C982 H977 0.949 . S
C982 C988 1.368 . S
C983 C967 1.349 . S
C983 H975 0.950 . S
C983 C981 1.327 . S
C984 C972 1.349 . S
C984 H978 0.950 . S
C984 C985 1.327 . S
C985 H979 0.950 . S
C985 C984 1.327 . S
C985 C989 1.429 . S
C986 C969 1.574 . S
C986 H980 0.949 . S
C986 C990 1.368 . S
C987 C968 1.429 . S
C987 C981 1.429 . S
C987 C988 1.523 . S
C988 C969 1.368 . S
C988 C982 1.368 . S
C988 C987 1.523 . S
C989 C973 1.429 . S
C989 C985 1.429 . S
C989 C990 1.523 . S
C990 C974 1.368 . S
C990 C986 1.368 . S
C990 C989 1.523 . S
H991 C966 0.950 . S
H992 C968 0.950 . S
H993 C969 0.949 . S
H994 C971 0.950 . S
H995 C973 0.950 . S
C996 C997 1.349 . S
C996 C998 1.327 . S
C996 H1021 0.950 . S
C997 C996 1.349 . S
C997 C1013 1.349 . S
C998 C996 1.327 . S
C998 C1017 1.429 . S
C998 H1022 0.950 . S
C999 C1016 1.574 . S
C999 C1018 1.368 . S
C999 H1023 0.949 . S
H1000 C1004 0.949 . S
C1001 C1002 1.349 . S
C1001 C1003 1.327 . S
C1001 H1024 0.950 . S
C1002 C1001 1.349 . S
C1002 C1014 1.349 . S
C1003 C1001 1.327 . S
C1003 C1019 1.429 . S
C1003 H1025 0.950 . S
C1004 H1000 0.949 . S
C1004 C1012 1.574 . S
C1004 C1020 1.368 . S
H1005 C1013 0.950 . S
H1006 C1011 0.950 . S
H1007 C1012 0.949 . S
H1008 C1014 0.950 . S
H1009 C1015 0.950 . S
H1010 C1016 0.949 . S
C1011 H1006 0.950 . S
C1011 C1013 1.327 . S
C1011 C1017 1.429 . S
C1012 C1004 1.574 . S
C1012 H1007 0.949 . S
C1012 C1018 1.368 . S
C1013 C997 1.349 . S
C1013 H1005 0.950 . S
C1013 C1011 1.327 . S
C1014 C1002 1.349 . S
C1014 H1008 0.950 . S
C1014 C1015 1.327 . S
C1015 H1009 0.950 . S
C1015 C1014 1.327 . S
C1015 C1019 1.429 . S
C1016 C999 1.574 . S
C1016 H1010 0.949 . S
C1016 C1020 1.368 . S
C1017 C998 1.429 . S
C1017 C1011 1.429 . S
C1017 C1018 1.523 . S
C1018 C999 1.368 . S
C1018 C1012 1.368 . S
C1018 C1017 1.523 . S
C1019 C1003 1.429 . S
C1019 C1015 1.429 . S
C1019 C1020 1.523 . S
C1020 C1004 1.368 . S
C1020 C1016 1.368 . S
C1020 C1019 1.523 . S
H1021 C996 0.950 . S
H1022 C998 0.950 . S
H1023 C999 0.949 . S
H1024 C1001 0.950 . S
H1025 C1003 0.950 . S
C1026 C1027 1.349 . S
C1026 C1028 1.327 . S
C1026 H1051 0.950 . S
C1027 C1026 1.349 . S
C1027 C1043 1.349 . S
C1028 C1026 1.327 . S
C1028 C1047 1.429 . S
C1028 H1052 0.950 . S
C1029 C1046 1.574 . S
C1029 C1048 1.368 . S
C1029 H1053 0.949 . S
H1030 C1034 0.949 . S
C1031 C1032 1.349 . S
C1031 C1033 1.327 . S
C1031 H1054 0.950 . S
C1032 C1031 1.349 . S
C1032 C1044 1.349 . S
C1033 C1031 1.327 . S
C1033 C1049 1.429 . S
C1033 H1055 0.950 . S
C1034 H1030 0.949 . S
C1034 C1042 1.574 . S
C1034 C1050 1.368 . S
H1035 C1043 0.950 . S
H1036 C1041 0.950 . S
H1037 C1042 0.949 . S
H1038 C1044 0.950 . S
H1039 C1045 0.950 . S
H1040 C1046 0.949 . S
C1041 H1036 0.950 . S
C1041 C1043 1.327 . S
C1041 C1047 1.429 . S
C1042 C1034 1.574 . S
C1042 H1037 0.949 . S
C1042 C1048 1.368 . S
C1043 C1027 1.349 . S
C1043 H1035 0.950 . S
C1043 C1041 1.327 . S
C1044 C1032 1.349 . S
C1044 H1038 0.950 . S
C1044 C1045 1.327 . S
C1045 H1039 0.950 . S
C1045 C1044 1.327 . S
C1045 C1049 1.429 . S
C1046 C1029 1.574 . S
C1046 H1040 0.949 . S
C1046 C1050 1.368 . S
C1047 C1028 1.429 . S
C1047 C1041 1.429 . S
C1047 C1048 1.523 . S
C1048 C1029 1.368 . S
C1048 C1042 1.368 . S
C1048 C1047 1.523 . S
C1049 C1033 1.429 . S
C1049 C1045 1.429 . S
C1049 C1050 1.523 . S
C1050 C1034 1.368 . S
C1050 C1046 1.368 . S
C1050 C1049 1.523 . S
H1051 C1026 0.950 . S
H1052 C1028 0.950 . S
H1053 C1029 0.949 . S
H1054 C1031 0.950 . S
H1055 C1033 0.950 . S
C1056 C1057 1.349 . S
C1056 C1058 1.327 . S
C1056 H1081 0.950 . S
C1057 C1056 1.349 . S
C1057 C1073 1.349 . S
C1058 C1056 1.327 . S
C1058 C1077 1.429 . S
C1058 H1082 0.950 . S
C1059 C1076 1.574 . S
C1059 C1078 1.368 . S
C1059 H1083 0.949 . S
H1060 C1064 0.949 . S
C1061 C1062 1.349 . S
C1061 C1063 1.327 . S
C1061 H1084 0.950 . S
C1062 C1061 1.349 . S
C1062 C1074 1.349 . S
C1063 C1061 1.327 . S
C1063 C1079 1.429 . S
C1063 H1085 0.950 . S
C1064 H1060 0.949 . S
C1064 C1072 1.574 . S
C1064 C1080 1.368 . S
H1065 C1073 0.950 . S
H1066 C1071 0.950 . S
H1067 C1072 0.949 . S
H1068 C1074 0.950 . S
H1069 C1075 0.950 . S
H1070 C1076 0.949 . S
C1071 H1066 0.950 . S
C1071 C1073 1.327 . S
C1071 C1077 1.429 . S
C1072 C1064 1.574 . S
C1072 H1067 0.949 . S
C1072 C1078 1.368 . S
C1073 C1057 1.349 . S
C1073 H1065 0.950 . S
C1073 C1071 1.327 . S
C1074 C1062 1.349 . S
C1074 H1068 0.950 . S
C1074 C1075 1.327 . S
C1075 H1069 0.950 . S
C1075 C1074 1.327 . S
C1075 C1079 1.429 . S
C1076 C1059 1.574 . S
C1076 H1070 0.949 . S
C1076 C1080 1.368 . S
C1077 C1058 1.429 . S
C1077 C1071 1.429 . S
C1077 C1078 1.523 . S
C1078 C1059 1.368 . S
C1078 C1072 1.368 . S
C1078 C1077 1.523 . S
C1079 C1063 1.429 . S
C1079 C1075 1.429 . S
C1079 C1080 1.523 . S
C1080 C1064 1.368 . S
C1080 C1076 1.368 . S
C1080 C1079 1.523 . S
H1081 C1056 0.950 . S
H1082 C1058 0.950 . S
H1083 C1059 0.949 . S
H1084 C1061 0.950 . S
H1085 C1063 0.950 . S
C1086 C1087 1.349 . S
C1086 C1088 1.327 . S
C1086 H1111 0.950 . S
C1087 C1086 1.349 . S
C1087 C1103 1.349 . S
C1088 C1086 1.327 . S
C1088 C1107 1.429 . S
C1088 H1112 0.950 . S
C1089 C1106 1.574 . S
C1089 C1108 1.368 . S
C1089 H1113 0.949 . S
H1090 C1094 0.949 . S
C1091 C1092 1.349 . S
C1091 C1093 1.327 . S
C1091 H1114 0.950 . S
C1092 C1091 1.349 . S
C1092 C1104 1.349 . S
C1093 C1091 1.327 . S
C1093 C1109 1.429 . S
C1093 H1115 0.950 . S
C1094 H1090 0.949 . S
C1094 C1102 1.574 . S
C1094 C1110 1.368 . S
H1095 C1103 0.950 . S
H1096 C1101 0.950 . S
H1097 C1102 0.949 . S
H1098 C1104 0.950 . S
H1099 C1105 0.950 . S
H1100 C1106 0.949 . S
C1101 H1096 0.950 . S
C1101 C1103 1.327 . S
C1101 C1107 1.429 . S
C1102 C1094 1.574 . S
C1102 H1097 0.949 . S
C1102 C1108 1.368 . S
C1103 C1087 1.349 . S
C1103 H1095 0.950 . S
C1103 C1101 1.327 . S
C1104 C1092 1.349 . S
C1104 H1098 0.950 . S
C1104 C1105 1.327 . S
C1105 H1099 0.950 . S
C1105 C1104 1.327 . S
C1105 C1109 1.429 . S
C1106 C1089 1.574 . S
C1106 H1100 0.949 . S
C1106 C1110 1.368 . S
C1107 C1088 1.429 . S
C1107 C1101 1.429 . S
C1107 C1108 1.523 . S
C1108 C1089 1.368 . S
C1108 C1102 1.368 . S
C1108 C1107 1.523 . S
C1109 C1093 1.429 . S
C1109 C1105 1.429 . S
C1109 C1110 1.523 . S
C1110 C1094 1.368 . S
C1110 C1106 1.368 . S
C1110 C1109 1.523 . S
H1111 C1086 0.950 . S
H1112 C1088 0.950 . S
H1113 C1089 0.949 . S
H1114 C1091 0.950 . S
H1115 C1093 0.950 . S
C1116 C1117 1.349 . S
C1116 C1118 1.327 . S
C1116 H1141 0.950 . S
C1117 C1116 1.349 . S
C1117 C1133 1.349 . S
C1118 C1116 1.327 . S
C1118 C1137 1.429 . S
C1118 H1142 0.950 . S
C1119 C1136 1.574 . S
C1119 C1138 1.368 . S
C1119 H1143 0.949 . S
H1120 C1124 0.949 . S
C1121 C1122 1.349 . S
C1121 C1123 1.327 . S
C1121 H1144 0.950 . S
C1122 C1121 1.349 . S
C1122 C1134 1.349 . S
C1123 C1121 1.327 . S
C1123 C1139 1.429 . S
C1123 H1145 0.950 . S
C1124 H1120 0.949 . S
C1124 C1132 1.574 . S
C1124 C1140 1.368 . S
H1125 C1133 0.950 . S
H1126 C1131 0.950 . S
H1127 C1132 0.949 . S
H1128 C1134 0.950 . S
H1129 C1135 0.950 . S
H1130 C1136 0.949 . S
C1131 H1126 0.950 . S
C1131 C1133 1.327 . S
C1131 C1137 1.429 . S
C1132 C1124 1.574 . S
C1132 H1127 0.949 . S
C1132 C1138 1.368 . S
C1133 C1117 1.349 . S
C1133 H1125 0.950 . S
C1133 C1131 1.327 . S
C1134 C1122 1.349 . S
C1134 H1128 0.950 . S
C1134 C1135 1.327 . S
C1135 H1129 0.950 . S
C1135 C1134 1.327 . S
C1135 C1139 1.429 . S
C1136 C1119 1.574 . S
C1136 H1130 0.949 . S
C1136 C1140 1.368 . S
C1137 C1118 1.429 . S
C1137 C1131 1.429 . S
C1137 C1138 1.523 . S
C1138 C1119 1.368 . S
C1138 C1132 1.368 . S
C1138 C1137 1.523 . S
C1139 C1123 1.429 . S
C1139 C1135 1.429 . S
C1139 C1140 1.523 . S
C1140 C1124 1.368 . S
C1140 C1136 1.368 . S
C1140 C1139 1.523 . S
H1141 C1116 0.950 . S
H1142 C1118 0.950 . S
H1143 C1119 0.949 . S
H1144 C1121 0.950 . S
H1145 C1123 0.950 . S
C1146 C1147 1.349 . S
C1146 C1148 1.327 . S
C1146 H1171 0.950 . S
C1147 C1146 1.349 . S
C1147 C1163 1.349 . S
C1148 C1146 1.327 . S
C1148 C1167 1.429 . S
C1148 H1172 0.950 . S
C1149 C1166 1.574 . S
C1149 C1168 1.368 . S
C1149 H1173 0.949 . S
H1150 C1154 0.949 . S
C1151 C1152 1.349 . S
C1151 C1153 1.327 . S
C1151 H1174 0.950 . S
C1152 C1151 1.349 . S
C1152 C1164 1.349 . S
C1153 C1151 1.327 . S
C1153 C1169 1.429 . S
C1153 H1175 0.950 . S
C1154 H1150 0.949 . S
C1154 C1162 1.574 . S
C1154 C1170 1.368 . S
H1155 C1163 0.950 . S
H1156 C1161 0.950 . S
H1157 C1162 0.949 . S
H1158 C1164 0.950 . S
H1159 C1165 0.950 . S
H1160 C1166 0.949 . S
C1161 H1156 0.950 . S
C1161 C1163 1.327 . S
C1161 C1167 1.429 . S
C1162 C1154 1.574 . S
C1162 H1157 0.949 . S
C1162 C1168 1.368 . S
C1163 C1147 1.349 . S
C1163 H1155 0.950 . S
C1163 C1161 1.327 . S
C1164 C1152 1.349 . S
C1164 H1158 0.950 . S
C1164 C1165 1.327 . S
C1165 H1159 0.950 . S
C1165 C1164 1.327 . S
C1165 C1169 1.429 . S
C1166 C1149 1.574 . S
C1166 H1160 0.949 . S
C1166 C1170 1.368 . S
C1167 C1148 1.429 . S
C1167 C1161 1.429 . S
C1167 C1168 1.523 . S
C1168 C1149 1.368 . S
C1168 C1162 1.368 . S
C1168 C1167 1.523 . S
C1169 C1153 1.429 . S
C1169 C1165 1.429 . S
C1169 C1170 1.523 . S
C1170 C1154 1.368 . S
C1170 C1166 1.368 . S
C1170 C1169 1.523 . S
H1171 C1146 0.950 . S
H1172 C1148 0.950 . S
H1173 C1149 0.949 . S
H1174 C1151 0.950 . S
H1175 C1153 0.950 . S
C1176 C1177 1.349 . S
C1176 C1178 1.327 . S
C1176 H1201 0.950 . S
C1177 C1176 1.349 . S
C1177 C1193 1.349 . S
C1178 C1176 1.327 . S
C1178 C1197 1.429 . S
C1178 H1202 0.950 . S
C1179 C1196 1.574 . S
C1179 C1198 1.368 . S
C1179 H1203 0.949 . S
H1180 C1184 0.949 . S
C1181 C1182 1.349 . S
C1181 C1183 1.327 . S
C1181 H1204 0.950 . S
C1182 C1181 1.349 . S
C1182 C1194 1.349 . S
C1183 C1181 1.327 . S
C1183 C1199 1.429 . S
C1183 H1205 0.950 . S
C1184 H1180 0.949 . S
C1184 C1192 1.574 . S
C1184 C1200 1.368 . S
H1185 C1193 0.950 . S
H1186 C1191 0.950 . S
H1187 C1192 0.949 . S
H1188 C1194 0.950 . S
H1189 C1195 0.950 . S
H1190 C1196 0.949 . S
C1191 H1186 0.950 . S
C1191 C1193 1.327 . S
C1191 C1197 1.429 . S
C1192 C1184 1.574 . S
C1192 H1187 0.949 . S
C1192 C1198 1.368 . S
C1193 C1177 1.349 . S
C1193 H1185 0.950 . S
C1193 C1191 1.327 . S
C1194 C1182 1.349 . S
C1194 H1188 0.950 . S
C1194 C1195 1.327 . S
C1195 H1189 0.950 . S
C1195 C1194 1.327 . S
C1195 C1199 1.429 . S
C1196 C1179 1.574 . S
C1196 H1190 0.949 . S
C1196 C1200 1.368 . S
C1197 C1178 1.429 . S
C1197 C1191 1.429 . S
C1197 C1198 1.523 . S
C1198 C1179 1.368 . S
C1198 C1192 1.368 . S
C1198 C1197 1.523 . S
C1199 C1183 1.429 . S
C1199 C1195 1.429 . S
C1199 C1200 1.523 . S
C1200 C1184 1.368 . S
C1200 C1196 1.368 . S
C1200 C1199 1.523 . S
H1201 C1176 0.950 . S
H1202 C1178 0.950 . S
H1203 C1179 0.949 . S
H1204 C1181 0.950 . S
H1205 C1183 0.950 . S
C1206 C1207 1.349 . S
C1206 C1208 1.327 . S
C1206 H1231 0.950 . S
C1207 C1206 1.349 . S
C1207 C1223 1.349 . S
C1208 C1206 1.327 . S
C1208 C1227 1.429 . S
C1208 H1232 0.950 . S
C1209 C1226 1.574 . S
C1209 C1228 1.368 . S
C1209 H1233 0.949 . S
H1210 C1214 0.949 . S
C1211 C1212 1.349 . S
C1211 C1213 1.327 . S
C1211 H1234 0.950 . S
C1212 C1211 1.349 . S
C1212 C1224 1.349 . S
C1213 C1211 1.327 . S
C1213 C1229 1.429 . S
C1213 H1235 0.950 . S
C1214 H1210 0.949 . S
C1214 C1222 1.574 . S
C1214 C1230 1.368 . S
H1215 C1223 0.950 . S
H1216 C1221 0.950 . S
H1217 C1222 0.949 . S
H1218 C1224 0.950 . S
H1219 C1225 0.950 . S
H1220 C1226 0.949 . S
C1221 H1216 0.950 . S
C1221 C1223 1.327 . S
C1221 C1227 1.429 . S
C1222 C1214 1.574 . S
C1222 H1217 0.949 . S
C1222 C1228 1.368 . S
C1223 C1207 1.349 . S
C1223 H1215 0.950 . S
C1223 C1221 1.327 . S
C1224 C1212 1.349 . S
C1224 H1218 0.950 . S
C1224 C1225 1.327 . S
C1225 H1219 0.950 . S
C1225 C1224 1.327 . S
C1225 C1229 1.429 . S
C1226 C1209 1.574 . S
C1226 H1220 0.949 . S
C1226 C1230 1.368 . S
C1227 C1208 1.429 . S
C1227 C1221 1.429 . S
C1227 C1228 1.523 . S
C1228 C1209 1.368 . S
C1228 C1222 1.368 . S
C1228 C1227 1.523 . S
C1229 C1213 1.429 . S
C1229 C1225 1.429 . S
C1229 C1230 1.523 . S
C1230 C1214 1.368 . S
C1230 C1226 1.368 . S
C1230 C1229 1.523 . S
H1231 C1206 0.950 . S
H1232 C1208 0.950 . S
H1233 C1209 0.949 . S
H1234 C1211 0.950 . S
H1235 C1213 0.950 . S
C1236 C1237 1.349 . S
C1236 C1238 1.327 . S
C1236 H1261 0.950 . S
C1237 C1236 1.349 . S
C1237 C1253 1.349 . S
C1238 C1236 1.327 . S
C1238 C1257 1.429 . S
C1238 H1262 0.950 . S
C1239 C1256 1.574 . S
C1239 C1258 1.368 . S
C1239 H1263 0.949 . S
H1240 C1244 0.949 . S
C1241 C1242 1.349 . S
C1241 C1243 1.327 . S
C1241 H1264 0.950 . S
C1242 C1241 1.349 . S
C1242 C1254 1.349 . S
C1243 C1241 1.327 . S
C1243 C1259 1.429 . S
C1243 H1265 0.950 . S
C1244 H1240 0.949 . S
C1244 C1252 1.574 . S
C1244 C1260 1.368 . S
H1245 C1253 0.950 . S
H1246 C1251 0.950 . S
H1247 C1252 0.949 . S
H1248 C1254 0.950 . S
H1249 C1255 0.950 . S
H1250 C1256 0.949 . S
C1251 H1246 0.950 . S
C1251 C1253 1.327 . S
C1251 C1257 1.429 . S
C1252 C1244 1.574 . S
C1252 H1247 0.949 . S
C1252 C1258 1.368 . S
C1253 C1237 1.349 . S
C1253 H1245 0.950 . S
C1253 C1251 1.327 . S
C1254 C1242 1.349 . S
C1254 H1248 0.950 . S
C1254 C1255 1.327 . S
C1255 H1249 0.950 . S
C1255 C1254 1.327 . S
C1255 C1259 1.429 . S
C1256 C1239 1.574 . S
C1256 H1250 0.949 . S
C1256 C1260 1.368 . S
C1257 C1238 1.429 . S
C1257 C1251 1.429 . S
C1257 C1258 1.523 . S
C1258 C1239 1.368 . S
C1258 C1252 1.368 . S
C1258 C1257 1.523 . S
C1259 C1243 1.429 . S
C1259 C1255 1.429 . S
C1259 C1260 1.523 . S
C1260 C1244 1.368 . S
C1260 C1256 1.368 . S
C1260 C1259 1.523 . S
H1261 C1236 0.950 . S
H1262 C1238 0.950 . S
H1263 C1239 0.949 . S
H1264 C1241 0.950 . S
H1265 C1243 0.950 . S
C1266 C1267 1.349 . S
C1266 C1268 1.327 . S
C1266 H1291 0.950 . S
C1267 C1266 1.349 . S
C1267 C1283 1.349 . S
C1268 C1266 1.327 . S
C1268 C1287 1.429 . S
C1268 H1292 0.950 . S
C1269 C1286 1.574 . S
C1269 C1288 1.368 . S
C1269 H1293 0.949 . S
H1270 C1274 0.949 . S
C1271 C1272 1.349 . S
C1271 C1273 1.327 . S
C1271 H1294 0.950 . S
C1272 C1271 1.349 . S
C1272 C1284 1.349 . S
C1273 C1271 1.327 . S
C1273 C1289 1.429 . S
C1273 H1295 0.950 . S
C1274 H1270 0.949 . S
C1274 C1282 1.574 . S
C1274 C1290 1.368 . S
H1275 C1283 0.950 . S
H1276 C1281 0.950 . S
H1277 C1282 0.949 . S
H1278 C1284 0.950 . S
H1279 C1285 0.950 . S
H1280 C1286 0.949 . S
C1281 H1276 0.950 . S
C1281 C1283 1.327 . S
C1281 C1287 1.429 . S
C1282 C1274 1.574 . S
C1282 H1277 0.949 . S
C1282 C1288 1.368 . S
C1283 C1267 1.349 . S
C1283 H1275 0.950 . S
C1283 C1281 1.327 . S
C1284 C1272 1.349 . S
C1284 H1278 0.950 . S
C1284 C1285 1.327 . S
C1285 H1279 0.950 . S
C1285 C1284 1.327 . S
C1285 C1289 1.429 . S
C1286 C1269 1.574 . S
C1286 H1280 0.949 . S
C1286 C1290 1.368 . S
C1287 C1268 1.429 . S
C1287 C1281 1.429 . S
C1287 C1288 1.523 . S
C1288 C1269 1.368 . S
C1288 C1282 1.368 . S
C1288 C1287 1.523 . S
C1289 C1273 1.429 . S
C1289 C1285 1.429 . S
C1289 C1290 1.523 . S
C1290 C1274 1.368 . S
C1290 C1286 1.368 . S
C1290 C1289 1.523 . S
H1291 C1266 0.950 . S
H1292 C1268 0.950 . S
H1293 C1269 0.949 . S
H1294 C1271 0.950 . S
H1295 C1273 0.950 . S
C1296 C1297 1.349 . S
C1296 C1298 1.327 . S
C1296 H1321 0.950 . S
C1297 C1296 1.349 . S
C1297 C1313 1.349 . S
C1298 C1296 1.327 . S
C1298 C1317 1.429 . S
C1298 H1322 0.950 . S
C1299 C1316 1.574 . S
C1299 C1318 1.368 . S
C1299 H1323 0.949 . S
H1300 C1304 0.949 . S
C1301 C1302 1.349 . S
C1301 C1303 1.327 . S
C1301 H1324 0.950 . S
C1302 C1301 1.349 . S
C1302 C1314 1.349 . S
C1303 C1301 1.327 . S
C1303 C1319 1.429 . S
C1303 H1325 0.950 . S
C1304 H1300 0.949 . S
C1304 C1312 1.574 . S
C1304 C1320 1.368 . S
H1305 C1313 0.950 . S
H1306 C1311 0.950 . S
H1307 C1312 0.949 . S
H1308 C1314 0.950 . S
H1309 C1315 0.950 . S
H1310 C1316 0.949 . S
C1311 H1306 0.950 . S
C1311 C1313 1.327 . S
C1311 C1317 1.429 . S
C1312 C1304 1.574 . S
C1312 H1307 0.949 . S
C1312 C1318 1.368 . S
C1313 C1297 1.349 . S
C1313 H1305 0.950 . S
C1313 C1311 1.327 . S
C1314 C1302 1.349 . S
C1314 H1308 0.950 . S
C1314 C1315 1.327 . S
C1315 H1309 0.950 . S
C1315 C1314 1.327 . S
C1315 C1319 1.429 . S
C1316 C1299 1.574 . S
C1316 H1310 0.949 . S
C1316 C1320 1.368 . S
C1317 C1298 1.429 . S
C1317 C1311 1.429 . S
C1317 C1318 1.523 . S
C1318 C1299 1.368 . S
C1318 C1312 1.368 . S
C1318 C1317 1.523 . S
C1319 C1303 1.429 . S
C1319 C1315 1.429 . S
C1319 C1320 1.523 . S
C1320 C1304 1.368 . S
C1320 C1316 1.368 . S
C1320 C1319 1.523 . S
H1321 C1296 0.950 . S
H1322 C1298 0.950 . S
H1323 C1299 0.949 . S
H1324 C1301 0.950 . S
H1325 C1303 0.950 . S
C1326 C1327 1.349 . S
C1326 C1328 1.327 . S
C1326 H1351 0.950 . S
C1327 C1326 1.349 . S
C1327 C1343 1.349 . S
C1328 C1326 1.327 . S
C1328 C1347 1.429 . S
C1328 H1352 0.950 . S
C1329 C1346 1.574 . S
C1329 C1348 1.368 . S
C1329 H1353 0.949 . S
H1330 C1334 0.949 . S
C1331 C1332 1.349 . S
C1331 C1333 1.327 . S
C1331 H1354 0.950 . S
C1332 C1331 1.349 . S
C1332 C1344 1.349 . S
C1333 C1331 1.327 . S
C1333 C1349 1.429 . S
C1333 H1355 0.950 . S
C1334 H1330 0.949 . S
C1334 C1342 1.574 . S
C1334 C1350 1.368 . S
H1335 C1343 0.950 . S
H1336 C1341 0.950 . S
H1337 C1342 0.949 . S
H1338 C1344 0.950 . S
H1339 C1345 0.950 . S
H1340 C1346 0.949 . S
C1341 H1336 0.950 . S
C1341 C1343 1.327 . S
C1341 C1347 1.429 . S
C1342 C1334 1.574 . S
C1342 H1337 0.949 . S
C1342 C1348 1.368 . S
C1343 C1327 1.349 . S
C1343 H1335 0.950 . S
C1343 C1341 1.327 . S
C1344 C1332 1.349 . S
C1344 H1338 0.950 . S
C1344 C1345 1.327 . S
C1345 H1339 0.950 . S
C1345 C1344 1.327 . S
C1345 C1349 1.429 . S
C1346 C1329 1.574 . S
C1346 H1340 0.949 . S
C1346 C1350 1.368 . S
C1347 C1328 1.429 . S
C1347 C1341 1.429 . S
C1347 C1348 1.523 . S
C1348 C1329 1.368 . S
C1348 C1342 1.368 . S
C1348 C1347 1.523 . S
C1349 C1333 1.429 . S
C1349 C1345 1.429 . S
C1349 C1350 1.523 . S
C1350 C1334 1.368 . S
C1350 C1346 1.368 . S
C1350 C1349 1.523 . S
H1351 C1326 0.950 . S
H1352 C1328 0.950 . S
H1353 C1329 0.949 . S
H1354 C1331 0.950 . S
H1355 C1333 0.950 . S
C1356 C1357 1.349 . S
C1356 C1358 1.327 . S
C1356 H1381 0.950 . S
C1357 C1356 1.349 . S
C1357 C1373 1.349 . S
C1358 C1356 1.327 . S
C1358 C1377 1.429 . S
C1358 H1382 0.950 . S
C1359 C1376 1.574 . S
C1359 C1378 1.368 . S
C1359 H1383 0.949 . S
H1360 C1364 0.949 . S
C1361 C1362 1.349 . S
C1361 C1363 1.327 . S
C1361 H1384 0.950 . S
C1362 C1361 1.349 . S
C1362 C1374 1.349 . S
C1363 C1361 1.327 . S
C1363 C1379 1.429 . S
C1363 H1385 0.950 . S
C1364 H1360 0.949 . S
C1364 C1372 1.574 . S
C1364 C1380 1.368 . S
H1365 C1373 0.950 . S
H1366 C1371 0.950 . S
H1367 C1372 0.949 . S
H1368 C1374 0.950 . S
H1369 C1375 0.950 . S
H1370 C1376 0.949 . S
C1371 H1366 0.950 . S
C1371 C1373 1.327 . S
C1371 C1377 1.429 . S
C1372 C1364 1.574 . S
C1372 H1367 0.949 . S
C1372 C1378 1.368 . S
C1373 C1357 1.349 . S
C1373 H1365 0.950 . S
C1373 C1371 1.327 . S
C1374 C1362 1.349 . S
C1374 H1368 0.950 . S
C1374 C1375 1.327 . S
C1375 H1369 0.950 . S
C1375 C1374 1.327 . S
C1375 C1379 1.429 . S
C1376 C1359 1.574 . S
C1376 H1370 0.949 . S
C1376 C1380 1.368 . S
C1377 C1358 1.429 . S
C1377 C1371 1.429 . S
C1377 C1378 1.523 . S
C1378 C1359 1.368 . S
C1378 C1372 1.368 . S
C1378 C1377 1.523 . S
C1379 C1363 1.429 . S
C1379 C1375 1.429 . S
C1379 C1380 1.523 . S
C1380 C1364 1.368 . S
C1380 C1376 1.368 . S
C1380 C1379 1.523 . S
H1381 C1356 0.950 . S
H1382 C1358 0.950 . S
H1383 C1359 0.949 . S
H1384 C1361 0.950 . S
H1385 C1363 0.950 . S
C1386 C1387 1.349 . S
C1386 C1388 1.327 . S
C1386 H1411 0.950 . S
C1387 C1386 1.349 . S
C1387 C1403 1.349 . S
C1388 C1386 1.327 . S
C1388 C1407 1.429 . S
C1388 H1412 0.950 . S
C1389 C1406 1.574 . S
C1389 C1408 1.368 . S
C1389 H1413 0.949 . S
H1390 C1394 0.949 . S
C1391 C1392 1.349 . S
C1391 C1393 1.327 . S
C1391 H1414 0.950 . S
C1392 C1391 1.349 . S
C1392 C1404 1.349 . S
C1393 C1391 1.327 . S
C1393 C1409 1.429 . S
C1393 H1415 0.950 . S
C1394 H1390 0.949 . S
C1394 C1402 1.574 . S
C1394 C1410 1.368 . S
H1395 C1403 0.950 . S
H1396 C1401 0.950 . S
H1397 C1402 0.949 . S
H1398 C1404 0.950 . S
H1399 C1405 0.950 . S
H1400 C1406 0.949 . S
C1401 H1396 0.950 . S
C1401 C1403 1.327 . S
C1401 C1407 1.429 . S
C1402 C1394 1.574 . S
C1402 H1397 0.949 . S
C1402 C1408 1.368 . S
C1403 C1387 1.349 . S
C1403 H1395 0.950 . S
C1403 C1401 1.327 . S
C1404 C1392 1.349 . S
C1404 H1398 0.950 . S
C1404 C1405 1.327 . S
C1405 H1399 0.950 . S
C1405 C1404 1.327 . S
C1405 C1409 1.429 . S
C1406 C1389 1.574 . S
C1406 H1400 0.949 . S
C1406 C1410 1.368 . S
C1407 C1388 1.429 . S
C1407 C1401 1.429 . S
C1407 C1408 1.523 . S
C1408 C1389 1.368 . S
C1408 C1402 1.368 . S
C1408 C1407 1.523 . S
C1409 C1393 1.429 . S
C1409 C1405 1.429 . S
C1409 C1410 1.523 . S
C1410 C1394 1.368 . S
C1410 C1406 1.368 . S
C1410 C1409 1.523 . S
H1411 C1386 0.950 . S
H1412 C1388 0.950 . S
H1413 C1389 0.949 . S
H1414 C1391 0.950 . S
H1415 C1393 0.950 . S
C1416 C1417 1.349 . S
C1416 C1418 1.327 . S
C1416 H1441 0.950 . S
C1417 C1416 1.349 . S
C1417 C1433 1.349 . S
C1418 C1416 1.327 . S
C1418 C1437 1.429 . S
C1418 H1442 0.950 . S
C1419 C1436 1.574 . S
C1419 C1438 1.368 . S
C1419 H1443 0.949 . S
H1420 C1424 0.949 . S
C1421 C1422 1.349 . S
C1421 C1423 1.327 . S
C1421 H1444 0.950 . S
C1422 C1421 1.349 . S
C1422 C1434 1.349 . S
C1423 C1421 1.327 . S
C1423 C1439 1.429 . S
C1423 H1445 0.950 . S
C1424 H1420 0.949 . S
C1424 C1432 1.574 . S
C1424 C1440 1.368 . S
H1425 C1433 0.950 . S
H1426 C1431 0.950 . S
H1427 C1432 0.949 . S
H1428 C1434 0.950 . S
H1429 C1435 0.950 . S
H1430 C1436 0.949 . S
C1431 H1426 0.950 . S
C1431 C1433 1.327 . S
C1431 C1437 1.429 . S
C1432 C1424 1.574 . S
C1432 H1427 0.949 . S
C1432 C1438 1.368 . S
C1433 C1417 1.349 . S
C1433 H1425 0.950 . S
C1433 C1431 1.327 . S
C1434 C1422 1.349 . S
C1434 H1428 0.950 . S
C1434 C1435 1.327 . S
C1435 H1429 0.950 . S
C1435 C1434 1.327 . S
C1435 C1439 1.429 . S
C1436 C1419 1.574 . S
C1436 H1430 0.949 . S
C1436 C1440 1.368 . S
C1437 C1418 1.429 . S
C1437 C1431 1.429 . S
C1437 C1438 1.523 . S
C1438 C1419 1.368 . S
C1438 C1432 1.368 . S
C1438 C1437 1.523 . S
C1439 C1423 1.429 . S
C1439 C1435 1.429 . S
C1439 C1440 1.523 . S
C1440 C1424 1.368 . S
C1440 C1436 1.368 . S
C1440 C1439 1.523 . S
H1441 C1416 0.950 . S
H1442 C1418 0.950 . S
H1443 C1419 0.949 . S
H1444 C1421 0.950 . S
H1445 C1423 0.950 . S
C1446 C1447 1.349 . S
C1446 C1448 1.327 . S
C1446 H1471 0.950 . S
C1447 C1446 1.349 . S
C1447 C1463 1.349 . S
C1448 C1446 1.327 . S
C1448 C1467 1.429 . S
C1448 H1472 0.950 . S
C1449 C1466 1.574 . S
C1449 C1468 1.368 . S
C1449 H1473 0.949 . S
H1450 C1454 0.949 . S
C1451 C1452 1.349 . S
C1451 C1453 1.327 . S
C1451 H1474 0.950 . S
C1452 C1451 1.349 . S
C1452 C1464 1.349 . S
C1453 C1451 1.327 . S
C1453 C1469 1.429 . S
C1453 H1475 0.950 . S
C1454 H1450 0.949 . S
C1454 C1462 1.574 . S
C1454 C1470 1.368 . S
H1455 C1463 0.950 . S
H1456 C1461 0.950 . S
H1457 C1462 0.949 . S
H1458 C1464 0.950 . S
H1459 C1465 0.950 . S
H1460 C1466 0.949 . S
C1461 H1456 0.950 . S
C1461 C1463 1.327 . S
C1461 C1467 1.429 . S
C1462 C1454 1.574 . S
C1462 H1457 0.949 . S
C1462 C1468 1.368 . S
C1463 C1447 1.349 . S
C1463 H1455 0.950 . S
C1463 C1461 1.327 . S
C1464 C1452 1.349 . S
C1464 H1458 0.950 . S
C1464 C1465 1.327 . S
C1465 H1459 0.950 . S
C1465 C1464 1.327 . S
C1465 C1469 1.429 . S
C1466 C1449 1.574 . S
C1466 H1460 0.949 . S
C1466 C1470 1.368 . S
C1467 C1448 1.429 . S
C1467 C1461 1.429 . S
C1467 C1468 1.523 . S
C1468 C1449 1.368 . S
C1468 C1462 1.368 . S
C1468 C1467 1.523 . S
C1469 C1453 1.429 . S
C1469 C1465 1.429 . S
C1469 C1470 1.523 . S
C1470 C1454 1.368 . S
C1470 C1466 1.368 . S
C1470 C1469 1.523 . S
H1471 C1446 0.950 . S
H1472 C1448 0.950 . S
H1473 C1449 0.949 . S
H1474 C1451 0.950 . S
H1475 C1453 0.950 . S
C1476 C1477 1.349 . S
C1476 C1478 1.327 . S
C1476 H1501 0.950 . S
C1477 C1476 1.349 . S
C1477 C1493 1.349 . S
C1478 C1476 1.327 . S
C1478 C1497 1.429 . S
C1478 H1502 0.950 . S
C1479 C1496 1.574 . S
C1479 C1498 1.368 . S
C1479 H1503 0.949 . S
H1480 C1484 0.949 . S
C1481 C1482 1.349 . S
C1481 C1483 1.327 . S
C1481 H1504 0.950 . S
C1482 C1481 1.349 . S
C1482 C1494 1.349 . S
C1483 C1481 1.327 . S
C1483 C1499 1.429 . S
C1483 H1505 0.950 . S
C1484 H1480 0.949 . S
C1484 C1492 1.574 . S
C1484 C1500 1.368 . S
H1485 C1493 0.950 . S
H1486 C1491 0.950 . S
H1487 C1492 0.949 . S
H1488 C1494 0.950 . S
H1489 C1495 0.950 . S
H1490 C1496 0.949 . S
C1491 H1486 0.950 . S
C1491 C1493 1.327 . S
C1491 C1497 1.429 . S
C1492 C1484 1.574 . S
C1492 H1487 0.949 . S
C1492 C1498 1.368 . S
C1493 C1477 1.349 . S
C1493 H1485 0.950 . S
C1493 C1491 1.327 . S
C1494 C1482 1.349 . S
C1494 H1488 0.950 . S
C1494 C1495 1.327 . S
C1495 H1489 0.950 . S
C1495 C1494 1.327 . S
C1495 C1499 1.429 . S
C1496 C1479 1.574 . S
C1496 H1490 0.949 . S
C1496 C1500 1.368 . S
C1497 C1478 1.429 . S
C1497 C1491 1.429 . S
C1497 C1498 1.523 . S
C1498 C1479 1.368 . S
C1498 C1492 1.368 . S
C1498 C1497 1.523 . S
C1499 C1483 1.429 . S
C1499 C1495 1.429 . S
C1499 C1500 1.523 . S
C1500 C1484 1.368 . S
C1500 C1496 1.368 . S
C1500 C1499 1.523 . S
H1501 C1476 0.950 . S
H1502 C1478 0.950 . S
H1503 C1479 0.949 . S
H1504 C1481 0.950 . S
H1505 C1483 0.950 . S
C1506 C1507 1.349 . S
C1506 C1508 1.327 . S
C1506 H1531 0.950 . S
C1507 C1506 1.349 . S
C1507 C1523 1.349 . S
C1508 C1506 1.327 . S
C1508 C1527 1.429 . S
C1508 H1532 0.950 . S
C1509 C1526 1.574 . S
C1509 C1528 1.368 . S
C1509 H1533 0.949 . S
H1510 C1514 0.949 . S
C1511 C1512 1.349 . S
C1511 C1513 1.327 . S
C1511 H1534 0.950 . S
C1512 C1511 1.349 . S
C1512 C1524 1.349 . S
C1513 C1511 1.327 . S
C1513 C1529 1.429 . S
C1513 H1535 0.950 . S
C1514 H1510 0.949 . S
C1514 C1522 1.574 . S
C1514 C1530 1.368 . S
H1515 C1523 0.950 . S
H1516 C1521 0.950 . S
H1517 C1522 0.949 . S
H1518 C1524 0.950 . S
H1519 C1525 0.950 . S
H1520 C1526 0.949 . S
C1521 H1516 0.950 . S
C1521 C1523 1.327 . S
C1521 C1527 1.429 . S
C1522 C1514 1.574 . S
C1522 H1517 0.949 . S
C1522 C1528 1.368 . S
C1523 C1507 1.349 . S
C1523 H1515 0.950 . S
C1523 C1521 1.327 . S
C1524 C1512 1.349 . S
C1524 H1518 0.950 . S
C1524 C1525 1.327 . S
C1525 H1519 0.950 . S
C1525 C1524 1.327 . S
C1525 C1529 1.429 . S
C1526 C1509 1.574 . S
C1526 H1520 0.949 . S
C1526 C1530 1.368 . S
C1527 C1508 1.429 . S
C1527 C1521 1.429 . S
C1527 C1528 1.523 . S
C1528 C1509 1.368 . S
C1528 C1522 1.368 . S
C1528 C1527 1.523 . S
C1529 C1513 1.429 . S
C1529 C1525 1.429 . S
C1529 C1530 1.523 . S
C1530 C1514 1.368 . S
C1530 C1526 1.368 . S
C1530 C1529 1.523 . S
H1531 C1506 0.950 . S
H1532 C1508 0.950 . S
H1533 C1509 0.949 . S
H1534 C1511 0.950 . S
H1535 C1513 0.950 . S
C1536 C1537 1.349 . S
C1536 C1538 1.327 . S
C1536 H1561 0.950 . S
C1537 C1536 1.349 . S
C1537 C1553 1.349 . S
C1538 C1536 1.327 . S
C1538 C1557 1.429 . S
C1538 H1562 0.950 . S
C1539 C1556 1.574 . S
C1539 C1558 1.368 . S
C1539 H1563 0.949 . S
H1540 C1544 0.949 . S
C1541 C1542 1.349 . S
C1541 C1543 1.327 . S
C1541 H1564 0.950 . S
C1542 C1541 1.349 . S
C1542 C1554 1.349 . S
C1543 C1541 1.327 . S
C1543 C1559 1.429 . S
C1543 H1565 0.950 . S
C1544 H1540 0.949 . S
C1544 C1552 1.574 . S
C1544 C1560 1.368 . S
H1545 C1553 0.950 . S
H1546 C1551 0.950 . S
H1547 C1552 0.949 . S
H1548 C1554 0.950 . S
H1549 C1555 0.950 . S
H1550 C1556 0.949 . S
C1551 H1546 0.950 . S
C1551 C1553 1.327 . S
C1551 C1557 1.429 . S
C1552 C1544 1.574 . S
C1552 H1547 0.949 . S
C1552 C1558 1.368 . S
C1553 C1537 1.349 . S
C1553 H1545 0.950 . S
C1553 C1551 1.327 . S
C1554 C1542 1.349 . S
C1554 H1548 0.950 . S
C1554 C1555 1.327 . S
C1555 H1549 0.950 . S
C1555 C1554 1.327 . S
C1555 C1559 1.429 . S
C1556 C1539 1.574 . S
C1556 H1550 0.949 . S
C1556 C1560 1.368 . S
C1557 C1538 1.429 . S
C1557 C1551 1.429 . S
C1557 C1558 1.523 . S
C1558 C1539 1.368 . S
C1558 C1552 1.368 . S
C1558 C1557 1.523 . S
C1559 C1543 1.429 . S
C1559 C1555 1.429 . S
C1559 C1560 1.523 . S
C1560 C1544 1.368 . S
C1560 C1556 1.368 . S
C1560 C1559 1.523 . S
H1561 C1536 0.950 . S
H1562 C1538 0.950 . S
H1563 C1539 0.949 . S
H1564 C1541 0.950 . S
H1565 C1543 0.950 . S
C1566 C1567 1.349 . S
C1566 C1568 1.327 . S
C1566 H1591 0.950 . S
C1567 C1566 1.349 . S
C1567 C1583 1.349 . S
C1568 C1566 1.327 . S
C1568 C1587 1.429 . S
C1568 H1592 0.950 . S
C1569 C1586 1.574 . S
C1569 C1588 1.368 . S
C1569 H1593 0.949 . S
H1570 C1574 0.949 . S
C1571 C1572 1.349 . S
C1571 C1573 1.327 . S
C1571 H1594 0.950 . S
C1572 C1571 1.349 . S
C1572 C1584 1.349 . S
C1573 C1571 1.327 . S
C1573 C1589 1.429 . S
C1573 H1595 0.950 . S
C1574 H1570 0.949 . S
C1574 C1582 1.574 . S
C1574 C1590 1.368 . S
H1575 C1583 0.950 . S
H1576 C1581 0.950 . S
H1577 C1582 0.949 . S
H1578 C1584 0.950 . S
H1579 C1585 0.950 . S
H1580 C1586 0.949 . S
C1581 H1576 0.950 . S
C1581 C1583 1.327 . S
C1581 C1587 1.429 . S
C1582 C1574 1.574 . S
C1582 H1577 0.949 . S
C1582 C1588 1.368 . S
C1583 C1567 1.349 . S
C1583 H1575 0.950 . S
C1583 C1581 1.327 . S
C1584 C1572 1.349 . S
C1584 H1578 0.950 . S
C1584 C1585 1.327 . S
C1585 H1579 0.950 . S
C1585 C1584 1.327 . S
C1585 C1589 1.429 . S
C1586 C1569 1.574 . S
C1586 H1580 0.949 . S
C1586 C1590 1.368 . S
C1587 C1568 1.429 . S
C1587 C1581 1.429 . S
C1587 C1588 1.523 . S
C1588 C1569 1.368 . S
C1588 C1582 1.368 . S
C1588 C1587 1.523 . S
C1589 C1573 1.429 . S
C1589 C1585 1.429 . S
C1589 C1590 1.523 . S
C1590 C1574 1.368 . S
C1590 C1586 1.368 . S
C1590 C1589 1.523 . S
H1591 C1566 0.950 . S
H1592 C1568 0.950 . S
H1593 C1569 0.949 . S
H1594 C1571 0.950 . S
H1595 C1573 0.950 . S
C1596 C1597 1.349 . S
C1596 C1598 1.327 . S
C1596 H1621 0.950 . S
C1597 C1596 1.349 . S
C1597 C1613 1.349 . S
C1598 C1596 1.327 . S
C1598 C1617 1.429 . S
C1598 H1622 0.950 . S
C1599 C1616 1.574 . S
C1599 C1618 1.368 . S
C1599 H1623 0.949 . S
H1600 C1604 0.949 . S
C1601 C1602 1.349 . S
C1601 C1603 1.327 . S
C1601 H1624 0.950 . S
C1602 C1601 1.349 . S
C1602 C1614 1.349 . S
C1603 C1601 1.327 . S
C1603 C1619 1.429 . S
C1603 H1625 0.950 . S
C1604 H1600 0.949 . S
C1604 C1612 1.574 . S
C1604 C1620 1.368 . S
H1605 C1613 0.950 . S
H1606 C1611 0.950 . S
H1607 C1612 0.949 . S
H1608 C1614 0.950 . S
H1609 C1615 0.950 . S
H1610 C1616 0.949 . S
C1611 H1606 0.950 . S
C1611 C1613 1.327 . S
C1611 C1617 1.429 . S
C1612 C1604 1.574 . S
C1612 H1607 0.949 . S
C1612 C1618 1.368 . S
C1613 C1597 1.349 . S
C1613 H1605 0.950 . S
C1613 C1611 1.327 . S
C1614 C1602 1.349 . S
C1614 H1608 0.950 . S
C1614 C1615 1.327 . S
C1615 H1609 0.950 . S
C1615 C1614 1.327 . S
C1615 C1619 1.429 . S
C1616 C1599 1.574 . S
C1616 H1610 0.949 . S
C1616 C1620 1.368 . S
C1617 C1598 1.429 . S
C1617 C1611 1.429 . S
C1617 C1618 1.523 . S
C1618 C1599 1.368 . S
C1618 C1612 1.368 . S
C1618 C1617 1.523 . S
C1619 C1603 1.429 . S
C1619 C1615 1.429 . S
C1619 C1620 1.523 . S
C1620 C1604 1.368 . S
C1620 C1616 1.368 . S
C1620 C1619 1.523 . S
H1621 C1596 0.950 . S
H1622 C1598 0.950 . S
H1623 C1599 0.949 . S
H1624 C1601 0.950 . S
H1625 C1603 0.950 . S
C1626 C1627 1.349 . S
C1626 C1628 1.327 . S
C1626 H1651 0.950 . S
C1627 C1626 1.349 . S
C1627 C1643 1.349 . S
C1628 C1626 1.327 . S
C1628 C1647 1.429 . S
C1628 H1652 0.950 . S
C1629 C1646 1.574 . S
C1629 C1648 1.368 . S
C1629 H1653 0.949 . S
H1630 C1634 0.949 . S
C1631 C1632 1.349 . S
C1631 C1633 1.327 . S
C1631 H1654 0.950 . S
C1632 C1631 1.349 . S
C1632 C1644 1.349 . S
C1633 C1631 1.327 . S
C1633 C1649 1.429 . S
C1633 H1655 0.950 . S
C1634 H1630 0.949 . S
C1634 C1642 1.574 . S
C1634 C1650 1.368 . S
H1635 C1643 0.950 . S
H1636 C1641 0.950 . S
H1637 C1642 0.949 . S
H1638 C1644 0.950 . S
H1639 C1645 0.950 . S
H1640 C1646 0.949 . S
C1641 H1636 0.950 . S
C1641 C1643 1.327 . S
C1641 C1647 1.429 . S
C1642 C1634 1.574 . S
C1642 H1637 0.949 . S
C1642 C1648 1.368 . S
C1643 C1627 1.349 . S
C1643 H1635 0.950 . S
C1643 C1641 1.327 . S
C1644 C1632 1.349 . S
C1644 H1638 0.950 . S
C1644 C1645 1.327 . S
C1645 H1639 0.950 . S
C1645 C1644 1.327 . S
C1645 C1649 1.429 . S
C1646 C1629 1.574 . S
C1646 H1640 0.949 . S
C1646 C1650 1.368 . S
C1647 C1628 1.429 . S
C1647 C1641 1.429 . S
C1647 C1648 1.523 . S
C1648 C1629 1.368 . S
C1648 C1642 1.368 . S
C1648 C1647 1.523 . S
C1649 C1633 1.429 . S
C1649 C1645 1.429 . S
C1649 C1650 1.523 . S
C1650 C1634 1.368 . S
C1650 C1646 1.368 . S
C1650 C1649 1.523 . S
H1651 C1626 0.950 . S
H1652 C1628 0.950 . S
H1653 C1629 0.949 . S
H1654 C1631 0.950 . S
H1655 C1633 0.950 . S
C1656 C1657 1.349 . S
C1656 C1658 1.327 . S
C1656 H1681 0.950 . S
C1657 C1656 1.349 . S
C1657 C1673 1.349 . S
C1658 C1656 1.327 . S
C1658 C1677 1.429 . S
C1658 H1682 0.950 . S
C1659 C1676 1.574 . S
C1659 C1678 1.368 . S
C1659 H1683 0.949 . S
H1660 C1664 0.949 . S
C1661 C1662 1.349 . S
C1661 C1663 1.327 . S
C1661 H1684 0.950 . S
C1662 C1661 1.349 . S
C1662 C1674 1.349 . S
C1663 C1661 1.327 . S
C1663 C1679 1.429 . S
C1663 H1685 0.950 . S
C1664 H1660 0.949 . S
C1664 C1672 1.574 . S
C1664 C1680 1.368 . S
H1665 C1673 0.950 . S
H1666 C1671 0.950 . S
H1667 C1672 0.949 . S
H1668 C1674 0.950 . S
H1669 C1675 0.950 . S
H1670 C1676 0.949 . S
C1671 H1666 0.950 . S
C1671 C1673 1.327 . S
C1671 C1677 1.429 . S
C1672 C1664 1.574 . S
C1672 H1667 0.949 . S
C1672 C1678 1.368 . S
C1673 C1657 1.349 . S
C1673 H1665 0.950 . S
C1673 C1671 1.327 . S
C1674 C1662 1.349 . S
C1674 H1668 0.950 . S
C1674 C1675 1.327 . S
C1675 H1669 0.950 . S
C1675 C1674 1.327 . S
C1675 C1679 1.429 . S
C1676 C1659 1.574 . S
C1676 H1670 0.949 . S
C1676 C1680 1.368 . S
C1677 C1658 1.429 . S
C1677 C1671 1.429 . S
C1677 C1678 1.523 . S
C1678 C1659 1.368 . S
C1678 C1672 1.368 . S
C1678 C1677 1.523 . S
C1679 C1663 1.429 . S
C1679 C1675 1.429 . S
C1679 C1680 1.523 . S
C1680 C1664 1.368 . S
C1680 C1676 1.368 . S
C1680 C1679 1.523 . S
H1681 C1656 0.950 . S
H1682 C1658 0.950 . S
H1683 C1659 0.949 . S
H1684 C1661 0.950 . S
H1685 C1663 0.950 . S
C1686 C1687 1.349 . S
C1686 C1688 1.327 . S
C1686 H1711 0.950 . S
C1687 C1686 1.349 . S
C1687 C1703 1.349 . S
C1688 C1686 1.327 . S
C1688 C1707 1.429 . S
C1688 H1712 0.950 . S
C1689 C1706 1.574 . S
C1689 C1708 1.368 . S
C1689 H1713 0.949 . S
H1690 C1694 0.949 . S
C1691 C1692 1.349 . S
C1691 C1693 1.327 . S
C1691 H1714 0.950 . S
C1692 C1691 1.349 . S
C1692 C1704 1.349 . S
C1693 C1691 1.327 . S
C1693 C1709 1.429 . S
C1693 H1715 0.950 . S
C1694 H1690 0.949 . S
C1694 C1702 1.574 . S
C1694 C1710 1.368 . S
H1695 C1703 0.950 . S
H1696 C1701 0.950 . S
H1697 C1702 0.949 . S
H1698 C1704 0.950 . S
H1699 C1705 0.950 . S
H1700 C1706 0.949 . S
C1701 H1696 0.950 . S
C1701 C1703 1.327 . S
C1701 C1707 1.429 . S
C1702 C1694 1.574 . S
C1702 H1697 0.949 . S
C1702 C1708 1.368 . S
C1703 C1687 1.349 . S
C1703 H1695 0.950 . S
C1703 C1701 1.327 . S
C1704 C1692 1.349 . S
C1704 H1698 0.950 . S
C1704 C1705 1.327 . S
C1705 H1699 0.950 . S
C1705 C1704 1.327 . S
C1705 C1709 1.429 . S
C1706 C1689 1.574 . S
C1706 H1700 0.949 . S
C1706 C1710 1.368 . S
C1707 C1688 1.429 . S
C1707 C1701 1.429 . S
C1707 C1708 1.523 . S
C1708 C1689 1.368 . S
C1708 C1702 1.368 . S
C1708 C1707 1.523 . S
C1709 C1693 1.429 . S
C1709 C1705 1.429 . S
C1709 C1710 1.523 . S
C1710 C1694 1.368 . S
C1710 C1706 1.368 . S
C1710 C1709 1.523 . S
H1711 C1686 0.950 . S
H1712 C1688 0.950 . S
H1713 C1689 0.949 . S
H1714 C1691 0.950 . S
H1715 C1693 0.950 . S
C1716 C1717 1.349 . S
C1716 C1718 1.327 . S
C1716 H1741 0.950 . S
C1717 C1716 1.349 . S
C1717 C1733 1.349 . S
C1718 C1716 1.327 . S
C1718 C1737 1.429 . S
C1718 H1742 0.950 . S
C1719 C1736 1.574 . S
C1719 C1738 1.368 . S
C1719 H1743 0.949 . S
H1720 C1724 0.949 . S
C1721 C1722 1.349 . S
C1721 C1723 1.327 . S
C1721 H1744 0.950 . S
C1722 C1721 1.349 . S
C1722 C1734 1.349 . S
C1723 C1721 1.327 . S
C1723 C1739 1.429 . S
C1723 H1745 0.950 . S
C1724 H1720 0.949 . S
C1724 C1732 1.574 . S
C1724 C1740 1.368 . S
H1725 C1733 0.950 . S
H1726 C1731 0.950 . S
H1727 C1732 0.949 . S
H1728 C1734 0.950 . S
H1729 C1735 0.950 . S
H1730 C1736 0.949 . S
C1731 H1726 0.950 . S
C1731 C1733 1.327 . S
C1731 C1737 1.429 . S
C1732 C1724 1.574 . S
C1732 H1727 0.949 . S
C1732 C1738 1.368 . S
C1733 C1717 1.349 . S
C1733 H1725 0.950 . S
C1733 C1731 1.327 . S
C1734 C1722 1.349 . S
C1734 H1728 0.950 . S
C1734 C1735 1.327 . S
C1735 H1729 0.950 . S
C1735 C1734 1.327 . S
C1735 C1739 1.429 . S
C1736 C1719 1.574 . S
C1736 H1730 0.949 . S
C1736 C1740 1.368 . S
C1737 C1718 1.429 . S
C1737 C1731 1.429 . S
C1737 C1738 1.523 . S
C1738 C1719 1.368 . S
C1738 C1732 1.368 . S
C1738 C1737 1.523 . S
C1739 C1723 1.429 . S
C1739 C1735 1.429 . S
C1739 C1740 1.523 . S
C1740 C1724 1.368 . S
C1740 C1736 1.368 . S
C1740 C1739 1.523 . S
H1741 C1716 0.950 . S
H1742 C1718 0.950 . S
H1743 C1719 0.949 . S
H1744 C1721 0.950 . S
H1745 C1723 0.950 . S
C1746 C1747 1.349 1_554 S
C1746 C1748 1.327 1_554 S
C1746 H1771 0.950 . S
C1747 C1746 1.349 1_556 S
C1747 C1763 1.349 . S
C1748 C1746 1.327 1_556 S
C1748 C1767 1.429 . S
C1748 H1772 0.950 1_556 S
C1749 C1766 1.574 . S
C1749 C1768 1.368 . S
C1749 H1773 0.949 . S
H1750 C1754 0.949 . S
C1751 C1752 1.349 . S
C1751 C1753 1.327 . S
C1751 H1774 0.950 . S
C1752 C1751 1.349 . S
C1752 C1764 1.349 . S
C1753 C1751 1.327 . S
C1753 C1769 1.429 . S
C1753 H1775 0.950 . S
C1754 H1750 0.949 . S
C1754 C1762 1.574 . S
C1754 C1770 1.368 . S
H1755 C1763 0.950 . S
H1756 C1761 0.950 . S
H1757 C1762 0.949 . S
H1758 C1764 0.950 . S
H1759 C1765 0.950 . S
H1760 C1766 0.949 . S
C1761 H1756 0.950 . S
C1761 C1763 1.327 . S
C1761 C1767 1.429 . S
C1762 C1754 1.574 . S
C1762 H1757 0.949 . S
C1762 C1768 1.368 . S
C1763 C1747 1.349 . S
C1763 H1755 0.950 . S
C1763 C1761 1.327 . S
C1764 C1752 1.349 . S
C1764 H1758 0.950 . S
C1764 C1765 1.327 . S
C1765 H1759 0.950 . S
C1765 C1764 1.327 . S
C1765 C1769 1.429 . S
C1766 C1749 1.574 . S
C1766 H1760 0.949 . S
C1766 C1770 1.368 . S
C1767 C1748 1.429 . S
C1767 C1761 1.429 . S
C1767 C1768 1.523 . S
C1768 C1749 1.368 . S
C1768 C1762 1.368 . S
C1768 C1767 1.523 . S
C1769 C1753 1.429 . S
C1769 C1765 1.429 . S
C1769 C1770 1.523 . S
C1770 C1754 1.368 . S
C1770 C1766 1.368 . S
C1770 C1769 1.523 . S
H1771 C1746 0.950 . S
H1772 C1748 0.950 1_554 S
H1773 C1749 0.949 . S
H1774 C1751 0.950 . S
H1775 C1753 0.950 . S
C1776 C1777 1.349 . S
C1776 C1778 1.327 . S
C1776 H1801 0.950 1_556 S
C1777 C1776 1.349 . S
C1777 C1793 1.349 . S
C1778 C1776 1.327 . S
C1778 C1797 1.429 . S
C1778 H1802 0.950 . S
C1779 C1796 1.574 . S
C1779 C1798 1.368 . S
C1779 H1803 0.949 . S
H1780 C1784 0.949 . S
C1781 C1782 1.349 . S
C1781 C1783 1.327 . S
C1781 H1804 0.950 . S
C1782 C1781 1.349 . S
C1782 C1794 1.349 . S
C1783 C1781 1.327 . S
C1783 C1799 1.429 . S
C1783 H1805 0.950 . S
C1784 H1780 0.949 . S
C1784 C1792 1.574 . S
C1784 C1800 1.368 . S
H1785 C1793 0.950 . S
H1786 C1791 0.950 . S
H1787 C1792 0.949 . S
H1788 C1794 0.950 . S
H1789 C1795 0.950 . S
H1790 C1796 0.949 . S
C1791 H1786 0.950 . S
C1791 C1793 1.327 . S
C1791 C1797 1.429 . S
C1792 C1784 1.574 . S
C1792 H1787 0.949 . S
C1792 C1798 1.368 . S
C1793 C1777 1.349 . S
C1793 H1785 0.950 . S
C1793 C1791 1.327 . S
C1794 C1782 1.349 . S
C1794 H1788 0.950 . S
C1794 C1795 1.327 . S
C1795 H1789 0.950 . S
C1795 C1794 1.327 . S
C1795 C1799 1.429 . S
C1796 C1779 1.574 . S
C1796 H1790 0.949 . S
C1796 C1800 1.368 . S
C1797 C1778 1.429 . S
C1797 C1791 1.429 . S
C1797 C1798 1.523 . S
C1798 C1779 1.368 . S
C1798 C1792 1.368 . S
C1798 C1797 1.523 . S
C1799 C1783 1.429 . S
C1799 C1795 1.429 . S
C1799 C1800 1.523 . S
C1800 C1784 1.368 . S
C1800 C1796 1.368 . S
C1800 C1799 1.523 . S
H1801 C1776 0.950 1_554 S
H1802 C1778 0.950 . S
H1803 C1779 0.949 . S
H1804 C1781 0.950 . S
H1805 C1783 0.950 . S
C1806 C1807 1.349 . S
C1806 C1808 1.327 . S
C1806 H1831 0.950 . S
C1807 C1806 1.349 . S
C1807 C1823 1.349 1_556 S
C1808 C1806 1.327 . S
C1808 C1827 1.429 . S
C1808 H1832 0.950 . S
C1809 C1826 1.574 . S
C1809 C1828 1.368 . S
C1809 H1833 0.949 . S
H1810 C1814 0.949 . S
C1811 C1812 1.349 . S
C1811 C1813 1.327 . S
C1811 H1834 0.950 . S
C1812 C1811 1.349 . S
C1812 C1824 1.349 . S
C1813 C1811 1.327 . S
C1813 C1829 1.429 . S
C1813 H1835 0.950 . S
C1814 H1810 0.949 . S
C1814 C1822 1.574 . S
C1814 C1830 1.368 . S
H1815 C1823 0.950 . S
H1816 C1821 0.932 1_554 S
H1817 C1822 0.949 . S
H1818 C1824 0.950 . S
H1819 C1825 0.950 . S
H1820 C1826 0.949 . S
C1821 H1816 0.932 1_556 S
C1821 C1823 1.315 1_556 S
C1821 C1827 1.459 . S
C1822 C1814 1.574 . S
C1822 H1817 0.949 . S
C1822 C1828 1.368 . S
C1823 C1807 1.349 1_554 S
C1823 H1815 0.950 . S
C1823 C1821 1.315 1_554 S
C1824 C1812 1.349 . S
C1824 H1818 0.950 . S
C1824 C1825 1.327 . S
C1825 H1819 0.950 . S
C1825 C1824 1.327 . S
C1825 C1829 1.429 . S
C1826 C1809 1.574 . S
C1826 H1820 0.949 . S
C1826 C1830 1.368 . S
C1827 C1808 1.429 . S
C1827 C1821 1.459 . S
C1827 C1828 1.523 . S
C1828 C1809 1.368 . S
C1828 C1822 1.368 . S
C1828 C1827 1.523 . S
C1829 C1813 1.429 . S
C1829 C1825 1.429 . S
C1829 C1830 1.523 . S
C1830 C1814 1.368 . S
C1830 C1826 1.368 . S
C1830 C1829 1.523 . S
H1831 C1806 0.950 . S
H1832 C1808 0.950 . S
H1833 C1809 0.949 . S
H1834 C1811 0.950 . S
H1835 C1813 0.950 . S
C1836 C1837 1.349 1_554 S
C1836 C1838 1.310 1_554 S
C1836 H1861 0.950 . S
C1837 C1836 1.349 1_556 S
C1837 C1853 1.349 . S
C1838 C1836 1.310 1_556 S
C1838 C1857 1.480 . S
C1838 H1862 0.916 1_556 S
C1839 C1856 1.574 . S
C1839 C1858 1.368 . S
C1839 H1863 0.949 . S
H1840 C1844 0.949 . S
C1841 C1842 1.349 . S
C1841 C1843 1.327 . S
C1841 H1864 0.950 . S
C1842 C1841 1.349 . S
C1842 C1854 1.349 . S
C1843 C1841 1.327 . S
C1843 C1859 1.429 . S
C1843 H1865 0.950 . S
C1844 H1840 0.949 . S
C1844 C1852 1.574 . S
C1844 C1860 1.368 . S
H1845 C1853 0.950 . S
H1846 C1851 0.950 . S
H1847 C1852 0.949 . S
H1848 C1854 0.950 . S
H1849 C1855 0.950 . S
H1850 C1856 0.949 . S
C1851 H1846 0.950 . S
C1851 C1853 1.327 . S
C1851 C1857 1.429 . S
C1852 C1844 1.574 . S
C1852 H1847 0.949 . S
C1852 C1858 1.368 . S
C1853 C1837 1.349 . S
C1853 H1845 0.950 . S
C1853 C1851 1.327 . S
C1854 C1842 1.349 . S
C1854 H1848 0.950 . S
C1854 C1855 1.327 . S
C1855 H1849 0.950 . S
C1855 C1854 1.327 . S
C1855 C1859 1.429 . S
C1856 C1839 1.574 . S
C1856 H1850 0.949 . S
C1856 C1860 1.368 . S
C1857 C1838 1.480 . S
C1857 C1851 1.429 . S
C1857 C1858 1.523 . S
C1858 C1839 1.368 . S
C1858 C1852 1.368 . S
C1858 C1857 1.523 . S
C1859 C1843 1.429 . S
C1859 C1855 1.429 . S
C1859 C1860 1.523 . S
C1860 C1844 1.368 . S
C1860 C1856 1.368 . S
C1860 C1859 1.523 . S
H1861 C1836 0.950 . S
H1862 C1838 0.916 1_554 S
H1863 C1839 0.949 . S
H1864 C1841 0.950 . S
H1865 C1843 0.950 . S
C1866 C1867 1.349 . S
C1866 C1868 1.327 . S
C1866 H1891 0.950 1_556 S
C1867 C1866 1.349 . S
C1867 C1883 1.349 . S
C1868 C1866 1.327 . S
C1868 C1887 1.429 . S
C1868 H1892 0.950 . S
C1869 C1886 1.574 . S
C1869 C1888 1.368 . S
C1869 H1893 0.949 . S
H1870 C1874 0.949 . S
C1871 C1872 1.349 . S
C1871 C1873 1.327 . S
C1871 H1894 0.950 . S
C1872 C1871 1.349 . S
C1872 C1884 1.349 . S
C1873 C1871 1.327 . S
C1873 C1889 1.429 . S
C1873 H1895 0.950 . S
C1874 H1870 0.949 . S
C1874 C1882 1.574 . S
C1874 C1890 1.368 . S
H1875 C1883 0.950 . S
H1876 C1881 0.950 . S
H1877 C1882 0.949 . S
H1878 C1884 0.950 . S
H1879 C1885 0.950 . S
H1880 C1886 0.949 . S
C1881 H1876 0.950 . S
C1881 C1883 1.327 . S
C1881 C1887 1.429 . S
C1882 C1874 1.574 . S
C1882 H1877 0.949 . S
C1882 C1888 1.368 . S
C1883 C1867 1.349 . S
C1883 H1875 0.950 . S
C1883 C1881 1.327 . S
C1884 C1872 1.349 . S
C1884 H1878 0.950 . S
C1884 C1885 1.327 . S
C1885 H1879 0.950 . S
C1885 C1884 1.327 . S
C1885 C1889 1.429 . S
C1886 C1869 1.574 . S
C1886 H1880 0.949 . S
C1886 C1890 1.368 . S
C1887 C1868 1.429 . S
C1887 C1881 1.429 . S
C1887 C1888 1.523 . S
C1888 C1869 1.368 . S
C1888 C1882 1.368 . S
C1888 C1887 1.523 . S
C1889 C1873 1.429 . S
C1889 C1885 1.429 . S
C1889 C1890 1.523 . S
C1890 C1874 1.368 . S
C1890 C1886 1.368 . S
C1890 C1889 1.523 . S
H1891 C1866 0.950 1_554 S
H1892 C1868 0.950 . S
H1893 C1869 0.949 . S
H1894 C1871 0.950 . S
H1895 C1873 0.950 . S
C1896 C1897 1.349 1_554 S
C1896 C1898 1.327 1_554 S
C1896 H1921 0.950 . S
C1897 C1896 1.349 1_556 S
C1897 C1913 1.349 . S
C1898 C1896 1.327 1_556 S
C1898 C1917 1.429 . S
C1898 H1922 0.950 1_556 S
C1899 C1916 1.574 . S
C1899 C1918 1.368 . S
C1899 H1923 0.949 . S
H1900 C1904 0.949 . S
C1901 C1902 1.349 . S
C1901 C1903 1.327 . S
C1901 H1924 0.950 . S
C1902 C1901 1.349 . S
C1902 C1914 1.349 . S
C1903 C1901 1.327 . S
C1903 C1919 1.429 . S
C1903 H1925 0.950 . S
C1904 H1900 0.949 . S
C1904 C1912 1.574 . S
C1904 C1920 1.368 . S
H1905 C1913 0.950 . S
H1906 C1911 0.950 . S
H1907 C1912 0.949 . S
H1908 C1914 0.950 . S
H1909 C1915 0.950 . S
H1910 C1916 0.949 . S
C1911 H1906 0.950 . S
C1911 C1913 1.327 . S
C1911 C1917 1.429 . S
C1912 C1904 1.574 . S
C1912 H1907 0.949 . S
C1912 C1918 1.368 . S
C1913 C1897 1.349 . S
C1913 H1905 0.950 . S
C1913 C1911 1.327 . S
C1914 C1902 1.349 . S
C1914 H1908 0.950 . S
C1914 C1915 1.327 . S
C1915 H1909 0.950 . S
C1915 C1914 1.327 . S
C1915 C1919 1.429 . S
C1916 C1899 1.574 . S
C1916 H1910 0.949 . S
C1916 C1920 1.368 . S
C1917 C1898 1.429 . S
C1917 C1911 1.429 . S
C1917 C1918 1.523 . S
C1918 C1899 1.368 . S
C1918 C1912 1.368 . S
C1918 C1917 1.523 . S
C1919 C1903 1.429 . S
C1919 C1915 1.429 . S
C1919 C1920 1.523 . S
C1920 C1904 1.368 . S
C1920 C1916 1.368 . S
C1920 C1919 1.523 . S
H1921 C1896 0.950 . S
H1922 C1898 0.950 1_554 S
H1923 C1899 0.949 . S
H1924 C1901 0.950 . S
H1925 C1903 0.950 . S
C1926 C1927 1.349 . S
C1926 C1928 1.327 . S
C1926 H1951 0.950 . S
C1927 C1926 1.349 . S
C1927 C1943 1.349 . S
C1928 C1926 1.327 . S
C1928 C1947 1.429 . S
C1928 H1952 0.950 . S
C1929 C1946 1.574 . S
C1929 C1948 1.368 . S
C1929 H1953 0.949 . S
H1930 C1934 0.949 . S
C1931 C1932 1.349 . S
C1931 C1933 1.327 . S
C1931 H1954 0.950 . S
C1932 C1931 1.349 . S
C1932 C1944 1.349 . S
C1933 C1931 1.327 . S
C1933 C1949 1.429 . S
C1933 H1955 0.950 . S
C1934 H1930 0.949 . S
C1934 C1942 1.574 . S
C1934 C1950 1.368 . S
H1935 C1943 0.950 . S
H1936 C1941 0.950 . S
H1937 C1942 0.949 . S
H1938 C1944 0.950 . S
H1939 C1945 0.950 . S
H1940 C1946 0.949 . S
C1941 H1936 0.950 . S
C1941 C1943 1.327 . S
C1941 C1947 1.429 . S
C1942 C1934 1.574 . S
C1942 H1937 0.949 . S
C1942 C1948 1.368 . S
C1943 C1927 1.349 . S
C1943 H1935 0.950 . S
C1943 C1941 1.327 . S
C1944 C1932 1.349 . S
C1944 H1938 0.950 . S
C1944 C1945 1.327 . S
C1945 H1939 0.950 . S
C1945 C1944 1.327 . S
C1945 C1949 1.429 . S
C1946 C1929 1.574 . S
C1946 H1940 0.949 . S
C1946 C1950 1.368 . S
C1947 C1928 1.429 . S
C1947 C1941 1.429 . S
C1947 C1948 1.523 . S
C1948 C1929 1.368 . S
C1948 C1942 1.368 . S
C1948 C1947 1.523 . S
C1949 C1933 1.429 . S
C1949 C1945 1.429 . S
C1949 C1950 1.523 . S
C1950 C1934 1.368 . S
C1950 C1946 1.368 . S
C1950 C1949 1.523 . S
H1951 C1926 0.950 . S
H1952 C1928 0.950 . S
H1953 C1929 0.949 . S
H1954 C1931 0.950 . S
H1955 C1933 0.950 . S
C1956 C1957 1.349 . S
C1956 C1958 1.327 . S
C1956 H1981 0.950 . S
C1957 C1956 1.349 . S
C1957 C1973 1.349 . S
C1958 C1956 1.327 . S
C1958 C1977 1.429 . S
C1958 H1982 0.950 . S
C1959 C1976 1.574 . S
C1959 C1978 1.368 . S
C1959 H1983 0.949 . S
H1960 C1964 0.949 . S
C1961 C1962 1.349 . S
C1961 C1963 1.327 . S
C1961 H1984 0.950 . S
C1962 C1961 1.349 . S
C1962 C1974 1.349 . S
C1963 C1961 1.327 . S
C1963 C1979 1.429 . S
C1963 H1985 0.950 . S
C1964 H1960 0.949 . S
C1964 C1972 1.574 . S
C1964 C1980 1.368 . S
H1965 C1973 0.950 . S
H1966 C1971 0.950 . S
H1967 C1972 0.949 . S
H1968 C1974 0.950 . S
H1969 C1975 0.950 . S
H1970 C1976 0.949 . S
C1971 H1966 0.950 . S
C1971 C1973 1.327 . S
C1971 C1977 1.429 . S
C1972 C1964 1.574 . S
C1972 H1967 0.949 . S
C1972 C1978 1.368 . S
C1973 C1957 1.349 . S
C1973 H1965 0.950 . S
C1973 C1971 1.327 . S
C1974 C1962 1.349 . S
C1974 H1968 0.950 . S
C1974 C1975 1.327 . S
C1975 H1969 0.950 . S
C1975 C1974 1.327 . S
C1975 C1979 1.429 . S
C1976 C1959 1.574 . S
C1976 H1970 0.949 . S
C1976 C1980 1.368 . S
C1977 C1958 1.429 . S
C1977 C1971 1.429 . S
C1977 C1978 1.523 . S
C1978 C1959 1.368 . S
C1978 C1972 1.368 . S
C1978 C1977 1.523 . S
C1979 C1963 1.429 . S
C1979 C1975 1.429 . S
C1979 C1980 1.523 . S
C1980 C1964 1.368 . S
C1980 C1976 1.368 . S
C1980 C1979 1.523 . S
H1981 C1956 0.950 . S
H1982 C1958 0.950 . S
H1983 C1959 0.949 . S
H1984 C1961 0.950 . S
H1985 C1963 0.950 . S
C1986 C1987 1.349 . S
C1986 C1988 1.327 . S
C1986 H2011 0.950 . S
C1987 C1986 1.349 . S
C1987 C2003 1.349 . S
C1988 C1986 1.327 . S
C1988 C2007 1.429 . S
C1988 H2012 0.950 . S
C1989 C2006 1.574 . S
C1989 C2008 1.368 . S
C1989 H2013 0.949 . S
H1990 C1994 0.949 . S
C1991 C1992 1.349 . S
C1991 C1993 1.327 . S
C1991 H2014 0.950 . S
C1992 C1991 1.349 . S
C1992 C2004 1.349 . S
C1993 C1991 1.327 . S
C1993 C2009 1.429 . S
C1993 H2015 0.950 . S
C1994 H1990 0.949 . S
C1994 C2002 1.574 . S
C1994 C2010 1.368 . S
H1995 C2003 0.950 . S
H1996 C2001 0.950 . S
H1997 C2002 0.949 . S
H1998 C2004 0.950 . S
H1999 C2005 0.950 . S
H2000 C2006 0.949 . S
C2001 H1996 0.950 . S
C2001 C2003 1.327 . S
C2001 C2007 1.429 . S
C2002 C1994 1.574 . S
C2002 H1997 0.949 . S
C2002 C2008 1.368 . S
C2003 C1987 1.349 . S
C2003 H1995 0.950 . S
C2003 C2001 1.327 . S
C2004 C1992 1.349 . S
C2004 H1998 0.950 . S
C2004 C2005 1.327 . S
C2005 H1999 0.950 . S
C2005 C2004 1.327 . S
C2005 C2009 1.429 . S
C2006 C1989 1.574 . S
C2006 H2000 0.949 . S
C2006 C2010 1.368 . S
C2007 C1988 1.429 . S
C2007 C2001 1.429 . S
C2007 C2008 1.523 . S
C2008 C1989 1.368 . S
C2008 C2002 1.368 . S
C2008 C2007 1.523 . S
C2009 C1993 1.429 . S
C2009 C2005 1.429 . S
C2009 C2010 1.523 . S
C2010 C1994 1.368 . S
C2010 C2006 1.368 . S
C2010 C2009 1.523 . S
H2011 C1986 0.950 . S
H2012 C1988 0.950 . S
H2013 C1989 0.949 . S
H2014 C1991 0.950 . S
H2015 C1993 0.950 . S
C2016 C2017 1.349 . S
C2016 C2018 1.327 . S
C2016 H2041 0.950 . S
C2017 C2016 1.349 . S
C2017 C2033 1.349 . S
C2018 C2016 1.327 . S
C2018 C2037 1.429 . S
C2018 H2042 0.950 . S
C2019 C2036 1.574 . S
C2019 C2038 1.368 . S
C2019 H2043 0.949 . S
H2020 C2024 0.949 . S
C2021 C2022 1.349 . S
C2021 C2023 1.327 . S
C2021 H2044 0.950 . S
C2022 C2021 1.349 . S
C2022 C2034 1.349 . S
C2023 C2021 1.327 . S
C2023 C2039 1.429 . S
C2023 H2045 0.950 . S
C2024 H2020 0.949 . S
C2024 C2032 1.574 . S
C2024 C2040 1.368 . S
H2025 C2033 0.950 . S
H2026 C2031 0.950 . S
H2027 C2032 0.949 . S
H2028 C2034 0.950 . S
H2029 C2035 0.950 . S
H2030 C2036 0.949 . S
C2031 H2026 0.950 . S
C2031 C2033 1.327 . S
C2031 C2037 1.429 . S
C2032 C2024 1.574 . S
C2032 H2027 0.949 . S
C2032 C2038 1.368 . S
C2033 C2017 1.349 . S
C2033 H2025 0.950 . S
C2033 C2031 1.327 . S
C2034 C2022 1.349 . S
C2034 H2028 0.950 . S
C2034 C2035 1.327 . S
C2035 H2029 0.950 . S
C2035 C2034 1.327 . S
C2035 C2039 1.429 . S
C2036 C2019 1.574 . S
C2036 H2030 0.949 . S
C2036 C2040 1.368 . S
C2037 C2018 1.429 . S
C2037 C2031 1.429 . S
C2037 C2038 1.523 . S
C2038 C2019 1.368 . S
C2038 C2032 1.368 . S
C2038 C2037 1.523 . S
C2039 C2023 1.429 . S
C2039 C2035 1.429 . S
C2039 C2040 1.523 . S
C2040 C2024 1.368 . S
C2040 C2036 1.368 . S
C2040 C2039 1.523 . S
H2041 C2016 0.950 . S
H2042 C2018 0.950 . S
H2043 C2019 0.949 . S
H2044 C2021 0.950 . S
H2045 C2023 0.950 . S
C2046 C2047 1.349 . S
C2046 C2048 1.327 . S
C2046 H2071 0.950 . S
C2047 C2046 1.349 . S
C2047 C2063 1.349 . S
C2048 C2046 1.327 . S
C2048 C2067 1.429 . S
C2048 H2072 0.950 . S
C2049 C2066 1.574 . S
C2049 C2068 1.368 . S
C2049 H2073 0.949 . S
H2050 C2054 0.949 . S
C2051 C2052 1.349 . S
C2051 C2053 1.327 . S
C2051 H2074 0.950 . S
C2052 C2051 1.349 . S
C2052 C2064 1.349 . S
C2053 C2051 1.327 . S
C2053 C2069 1.429 . S
C2053 H2075 0.950 . S
C2054 H2050 0.949 . S
C2054 C2062 1.574 . S
C2054 C2070 1.368 . S
H2055 C2063 0.950 . S
H2056 C2061 0.950 . S
H2057 C2062 0.949 . S
H2058 C2064 0.950 . S
H2059 C2065 0.950 . S
H2060 C2066 0.949 . S
C2061 H2056 0.950 . S
C2061 C2063 1.327 . S
C2061 C2067 1.429 . S
C2062 C2054 1.574 . S
C2062 H2057 0.949 . S
C2062 C2068 1.368 . S
C2063 C2047 1.349 . S
C2063 H2055 0.950 . S
C2063 C2061 1.327 . S
C2064 C2052 1.349 . S
C2064 H2058 0.950 . S
C2064 C2065 1.327 . S
C2065 H2059 0.950 . S
C2065 C2064 1.327 . S
C2065 C2069 1.429 . S
C2066 C2049 1.574 . S
C2066 H2060 0.949 . S
C2066 C2070 1.368 . S
C2067 C2048 1.429 . S
C2067 C2061 1.429 . S
C2067 C2068 1.523 . S
C2068 C2049 1.368 . S
C2068 C2062 1.368 . S
C2068 C2067 1.523 . S
C2069 C2053 1.429 . S
C2069 C2065 1.429 . S
C2069 C2070 1.523 . S
C2070 C2054 1.368 . S
C2070 C2066 1.368 . S
C2070 C2069 1.523 . S
H2071 C2046 0.950 . S
H2072 C2048 0.950 . S
H2073 C2049 0.949 . S
H2074 C2051 0.950 . S
H2075 C2053 0.950 . S
C2076 C2077 1.349 . S
C2076 C2078 1.327 . S
C2076 H2101 0.950 . S
C2077 C2076 1.349 . S
C2077 C2093 1.349 . S
C2078 C2076 1.327 . S
C2078 C2097 1.429 . S
C2078 H2102 0.950 . S
C2079 C2096 1.574 . S
C2079 C2098 1.368 . S
C2079 H2103 0.949 . S
H2080 C2084 0.949 . S
C2081 C2082 1.349 . S
C2081 C2083 1.327 . S
C2081 H2104 0.950 . S
C2082 C2081 1.349 . S
C2082 C2094 1.349 . S
C2083 C2081 1.327 . S
C2083 C2099 1.429 . S
C2083 H2105 0.950 . S
C2084 H2080 0.949 . S
C2084 C2092 1.574 . S
C2084 C2100 1.368 . S
H2085 C2093 0.950 . S
H2086 C2091 0.950 . S
H2087 C2092 0.949 . S
H2088 C2094 0.950 . S
H2089 C2095 0.950 . S
H2090 C2096 0.949 . S
C2091 H2086 0.950 . S
C2091 C2093 1.327 . S
C2091 C2097 1.429 . S
C2092 C2084 1.574 . S
C2092 H2087 0.949 . S
C2092 C2098 1.368 . S
C2093 C2077 1.349 . S
C2093 H2085 0.950 . S
C2093 C2091 1.327 . S
C2094 C2082 1.349 . S
C2094 H2088 0.950 . S
C2094 C2095 1.327 . S
C2095 H2089 0.950 . S
C2095 C2094 1.327 . S
C2095 C2099 1.429 . S
C2096 C2079 1.574 . S
C2096 H2090 0.949 . S
C2096 C2100 1.368 . S
C2097 C2078 1.429 . S
C2097 C2091 1.429 . S
C2097 C2098 1.523 . S
C2098 C2079 1.368 . S
C2098 C2092 1.368 . S
C2098 C2097 1.523 . S
C2099 C2083 1.429 . S
C2099 C2095 1.429 . S
C2099 C2100 1.523 . S
C2100 C2084 1.368 . S
C2100 C2096 1.368 . S
C2100 C2099 1.523 . S
H2101 C2076 0.950 . S
H2102 C2078 0.950 . S
H2103 C2079 0.949 . S
H2104 C2081 0.950 . S
H2105 C2083 0.950 . S
C2106 C2107 1.349 . S
C2106 C2108 1.327 . S
C2106 H2131 0.950 . S
C2107 C2106 1.349 . S
C2107 C2123 1.349 . S
C2108 C2106 1.327 . S
C2108 C2127 1.429 . S
C2108 H2132 0.950 . S
C2109 C2126 1.574 . S
C2109 C2128 1.368 . S
C2109 H2133 0.949 . S
H2110 C2114 0.949 . S
C2111 C2112 1.356 1_655 S
C2111 C2113 1.267 1_655 S
C2111 H2134 0.973 . S
C2112 C2111 1.356 1_455 S
C2112 C2124 1.349 . S
C2113 C2111 1.267 1_455 S
C2113 C2129 1.459 . S
C2113 H2135 0.958 1_455 S
C2114 H2110 0.949 . S
C2114 C2122 1.574 . S
C2114 C2130 1.368 . S
H2115 C2123 0.950 . S
H2116 C2121 0.950 . S
H2117 C2122 0.949 . S
H2118 C2124 0.950 . S
H2119 C2125 0.950 . S
H2120 C2126 0.949 1_655 S
C2121 H2116 0.950 . S
C2121 C2123 1.327 . S
C2121 C2127 1.429 . S
C2122 C2114 1.574 . S
C2122 H2117 0.949 . S
C2122 C2128 1.368 . S
C2123 C2107 1.349 . S
C2123 H2115 0.950 . S
C2123 C2121 1.327 . S
C2124 C2112 1.349 . S
C2124 H2118 0.950 . S
C2124 C2125 1.327 . S
C2125 H2119 0.950 . S
C2125 C2124 1.327 . S
C2125 C2129 1.429 . S
C2126 C2109 1.574 . S
C2126 H2120 0.949 1_455 S
C2126 C2130 1.368 . S
C2127 C2108 1.429 . S
C2127 C2121 1.429 . S
C2127 C2128 1.523 . S
C2128 C2109 1.368 . S
C2128 C2122 1.368 . S
C2128 C2127 1.523 . S
C2129 C2113 1.459 . S
C2129 C2125 1.429 . S
C2129 C2130 1.523 . S
C2130 C2114 1.368 . S
C2130 C2126 1.368 . S
C2130 C2129 1.523 . S
H2131 C2106 0.950 . S
H2132 C2108 0.950 . S
H2133 C2109 0.949 . S
H2134 C2111 0.973 . S
H2135 C2113 0.958 1_655 S
C2136 C2137 1.349 . S
C2136 C2138 1.327 . S
C2136 H2161 0.950 . S
C2137 C2136 1.349 . S
C2137 C2153 1.349 . S
C2138 C2136 1.327 . S
C2138 C2157 1.429 . S
C2138 H2162 0.950 . S
C2139 C2156 1.574 . S
C2139 C2158 1.368 . S
C2139 H2163 0.949 . S
H2140 C2144 0.949 . S
C2141 C2142 1.349 . S
C2141 C2143 1.327 . S
C2141 H2164 0.950 . S
C2142 C2141 1.349 . S
C2142 C2154 1.349 . S
C2143 C2141 1.327 . S
C2143 C2159 1.429 . S
C2143 H2165 0.950 . S
C2144 H2140 0.949 . S
C2144 C2152 1.574 . S
C2144 C2160 1.368 . S
H2145 C2153 0.950 . S
H2146 C2151 0.950 . S
H2147 C2152 0.949 . S
H2148 C2154 0.950 . S
H2149 C2155 0.950 . S
H2150 C2156 0.949 . S
C2151 H2146 0.950 . S
C2151 C2153 1.327 . S
C2151 C2157 1.429 . S
C2152 C2144 1.574 . S
C2152 H2147 0.949 . S
C2152 C2158 1.368 . S
C2153 C2137 1.349 . S
C2153 H2145 0.950 . S
C2153 C2151 1.327 . S
C2154 C2142 1.349 . S
C2154 H2148 0.950 . S
C2154 C2155 1.327 . S
C2155 H2149 0.950 . S
C2155 C2154 1.327 . S
C2155 C2159 1.429 . S
C2156 C2139 1.574 . S
C2156 H2150 0.949 . S
C2156 C2160 1.368 . S
C2157 C2138 1.429 . S
C2157 C2151 1.429 . S
C2157 C2158 1.523 . S
C2158 C2139 1.368 . S
C2158 C2152 1.368 . S
C2158 C2157 1.523 . S
C2159 C2143 1.429 . S
C2159 C2155 1.429 . S
C2159 C2160 1.523 . S
C2160 C2144 1.368 . S
C2160 C2156 1.368 . S
C2160 C2159 1.523 . S
H2161 C2136 0.950 . S
H2162 C2138 0.950 . S
H2163 C2139 0.949 . S
H2164 C2141 0.950 . S
H2165 C2143 0.950 . S
C2166 C2167 1.349 . S
C2166 C2168 1.327 . S
C2166 H2191 0.950 1_565 S
C2167 C2166 1.349 . S
C2167 C2183 1.349 . S
C2168 C2166 1.327 . S
C2168 C2187 1.429 . S
C2168 H2192 0.950 1_565 S
C2169 C2186 1.574 . S
C2169 C2188 1.368 . S
C2169 H2193 0.949 . S
H2170 C2174 0.949 . S
C2171 C2172 1.349 . S
C2171 C2173 1.327 . S
C2171 H2194 0.950 . S
C2172 C2171 1.349 . S
C2172 C2184 1.349 1_565 S
C2173 C2171 1.327 . S
C2173 C2189 1.429 . S
C2173 H2195 0.950 . S
C2174 H2170 0.949 . S
C2174 C2182 1.553 . S
C2174 C2190 1.368 1_545 S
H2175 C2183 0.950 . S
H2176 C2181 0.950 . S
H2177 C2182 0.981 . S
H2178 C2184 0.950 . S
H2179 C2185 0.950 . S
H2180 C2186 0.949 . S
C2181 H2176 0.950 . S
C2181 C2183 1.327 . S
C2181 C2187 1.429 . S
C2182 C2174 1.553 . S
C2182 H2177 0.981 . S
C2182 C2188 1.357 1_545 S
C2183 C2167 1.349 . S
C2183 H2175 0.950 . S
C2183 C2181 1.327 . S
C2184 C2172 1.349 1_545 S
C2184 H2178 0.950 . S
C2184 C2185 1.327 . S
C2185 H2179 0.950 . S
C2185 C2184 1.327 . S
C2185 C2189 1.429 1_545 S
C2186 C2169 1.574 . S
C2186 H2180 0.949 . S
C2186 C2190 1.368 . S
C2187 C2168 1.429 . S
C2187 C2181 1.429 . S
C2187 C2188 1.523 . S
C2188 C2169 1.368 . S
C2188 C2182 1.357 1_565 S
C2188 C2187 1.523 . S
C2189 C2173 1.429 . S
C2189 C2185 1.429 1_565 S
C2189 C2190 1.523 . S
C2190 C2174 1.368 1_565 S
C2190 C2186 1.368 . S
C2190 C2189 1.523 . S
H2191 C2166 0.950 1_545 S
H2192 C2168 0.950 1_545 S
H2193 C2169 0.949 . S
H2194 C2171 0.950 . S
H2195 C2173 0.950 . S
C2196 C2197 1.349 . S
C2196 C2198 1.327 . S
C2196 H2221 0.950 . S
C2197 C2196 1.349 . S
C2197 C2213 1.349 . S
C2198 C2196 1.327 . S
C2198 C2217 1.429 . S
C2198 H2222 0.950 . S
C2199 C2216 1.574 . S
C2199 C2218 1.368 1_545 S
C2199 H2223 0.949 . S
H2200 C2204 0.949 . S
C2201 C2202 1.326 1_545 S
C2201 C2203 1.327 . S
C2201 H2224 0.950 . S
C2202 C2201 1.326 1_565 S
C2202 C2214 1.421 . S
C2203 C2201 1.327 . S
C2203 C2219 1.429 1_545 S
C2203 H2225 0.950 . S
C2204 H2200 0.949 . S
C2204 C2212 1.574 . S
C2204 C2220 1.368 . S
H2205 C2213 0.950 1_545 S
H2206 C2211 0.954 . S
H2207 C2212 0.949 . S
H2208 C2214 0.950 . S
H2209 C2215 0.950 . S
H2210 C2216 0.949 . S
C2211 H2206 0.954 . S
C2211 C2213 1.324 1_545 S
C2211 C2217 1.427 1_545 S
C2212 C2204 1.574 . S
C2212 H2207 0.949 . S
C2212 C2218 1.368 . S
C2213 C2197 1.349 . S
C2213 H2205 0.950 1_565 S
C2213 C2211 1.324 1_565 S
C2214 C2202 1.421 . S
C2214 H2208 0.950 . S
C2214 C2215 1.327 . S
C2215 H2209 0.950 . S
C2215 C2214 1.327 . S
C2215 C2219 1.429 . S
C2216 C2199 1.574 . S
C2216 H2210 0.949 . S
C2216 C2220 1.368 1_545 S
C2217 C2198 1.429 . S
C2217 C2211 1.427 1_565 S
C2217 C2218 1.523 . S
C2218 C2199 1.368 1_565 S
C2218 C2212 1.368 . S
C2218 C2217 1.523 . S
C2219 C2203 1.429 1_565 S
C2219 C2215 1.429 . S
C2219 C2220 1.523 . S
C2220 C2204 1.368 . S
C2220 C2216 1.368 1_565 S
C2220 C2219 1.523 . S
H2221 C2196 0.950 . S
H2222 C2198 0.950 . S
H2223 C2199 0.949 . S
H2224 C2201 0.950 . S
H2225 C2203 0.950 . S
C2226 C2227 1.356 . S
C2226 C2228 1.332 1_455 S
C2226 H2251 0.938 1_455 S
C2227 C2226 1.356 . S
C2227 C2243 1.349 . S
C2228 C2226 1.332 1_655 S
C2228 C2247 1.429 1_655 S
C2228 H2252 0.950 . S
C2229 C2246 1.574 . S
C2229 C2248 1.368 . S
C2229 H2253 0.949 . S
H2230 C2234 0.949 . S
C2231 C2232 1.354 1_455 S
C2231 C2233 1.327 . S
C2231 H2254 0.950 . S
C2232 C2231 1.354 1_655 S
C2232 C2244 1.341 . S
C2233 C2231 1.327 . S
C2233 C2249 1.429 . S
C2233 H2255 0.950 . S
C2234 H2230 0.949 . S
C2234 C2242 1.574 . S
C2234 C2250 1.368 1_655 S
H2235 C2243 0.950 . S
H2236 C2241 0.950 . S
H2237 C2242 0.949 . S
H2238 C2244 0.950 . S
H2239 C2245 0.950 . S
H2240 C2246 0.949 . S
C2241 H2236 0.950 . S
C2241 C2243 1.327 . S
C2241 C2247 1.429 . S
C2242 C2234 1.574 . S
C2242 H2237 0.949 . S
C2242 C2248 1.368 1_655 S
C2243 C2227 1.349 . S
C2243 H2235 0.950 . S
C2243 C2241 1.327 . S
C2244 C2232 1.341 . S
C2244 H2238 0.950 . S
C2244 C2245 1.327 . S
C2245 H2239 0.950 . S
C2245 C2244 1.327 . S
C2245 C2249 1.429 1_655 S
C2246 C2229 1.574 . S
C2246 H2240 0.949 . S
C2246 C2250 1.368 . S
C2247 C2228 1.429 1_455 S
C2247 C2241 1.429 . S
C2247 C2248 1.523 . S
C2248 C2229 1.368 . S
C2248 C2242 1.368 1_455 S
C2248 C2247 1.523 . S
C2249 C2233 1.429 . S
C2249 C2245 1.429 1_455 S
C2249 C2250 1.523 . S
C2250 C2234 1.368 1_455 S
C2250 C2246 1.368 . S
C2250 C2249 1.523 . S
H2251 C2226 0.938 1_655 S
H2252 C2228 0.950 . S
H2253 C2229 0.949 . S
H2254 C2231 0.950 . S
H2255 C2233 0.950 . S
C2256 C2257 1.349 . S
C2256 C2258 1.327 . S
C2256 H2281 0.950 . S
C2257 C2256 1.349 . S
C2257 C2273 1.349 . S
C2258 C2256 1.327 . S
C2258 C2277 1.429 . S
C2258 H2282 0.950 . S
C2259 C2276 1.574 . S
C2259 C2278 1.368 . S
C2259 H2283 0.949 . S
H2260 C2264 0.949 . S
C2261 C2262 1.349 . S
C2261 C2263 1.327 . S
C2261 H2284 0.950 . S
C2262 C2261 1.349 . S
C2262 C2274 1.349 . S
C2263 C2261 1.327 . S
C2263 C2279 1.429 . S
C2263 H2285 0.950 . S
C2264 H2260 0.949 . S
C2264 C2272 1.574 . S
C2264 C2280 1.368 . S
H2265 C2273 0.950 . S
H2266 C2271 0.950 . S
H2267 C2272 0.949 . S
H2268 C2274 0.950 . S
H2269 C2275 0.950 . S
H2270 C2276 0.949 . S
C2271 H2266 0.950 . S
C2271 C2273 1.327 . S
C2271 C2277 1.429 . S
C2272 C2264 1.574 . S
C2272 H2267 0.949 . S
C2272 C2278 1.368 . S
C2273 C2257 1.349 . S
C2273 H2265 0.950 . S
C2273 C2271 1.327 . S
C2274 C2262 1.349 . S
C2274 H2268 0.950 . S
C2274 C2275 1.327 . S
C2275 H2269 0.950 . S
C2275 C2274 1.327 . S
C2275 C2279 1.429 . S
C2276 C2259 1.574 . S
C2276 H2270 0.949 . S
C2276 C2280 1.368 . S
C2277 C2258 1.429 . S
C2277 C2271 1.429 . S
C2277 C2278 1.523 . S
C2278 C2259 1.368 . S
C2278 C2272 1.368 . S
C2278 C2277 1.523 . S
C2279 C2263 1.429 . S
C2279 C2275 1.429 . S
C2279 C2280 1.523 . S
C2280 C2264 1.368 . S
C2280 C2276 1.368 . S
C2280 C2279 1.523 . S
H2281 C2256 0.950 . S
H2282 C2258 0.950 . S
H2283 C2259 0.949 . S
H2284 C2261 0.950 . S
H2285 C2263 0.950 . S
C2286 C2287 1.349 . S
C2286 C2288 1.327 . S
C2286 H2311 0.950 . S
C2287 C2286 1.349 . S
C2287 C2303 1.349 . S
C2288 C2286 1.327 . S
C2288 C2307 1.429 . S
C2288 H2312 0.950 . S
C2289 C2306 1.574 . S
C2289 C2308 1.368 . S
C2289 H2313 0.949 . S
H2290 C2294 0.949 . S
C2291 C2292 1.349 . S
C2291 C2293 1.327 . S
C2291 H2314 0.950 . S
C2292 C2291 1.349 . S
C2292 C2304 1.349 . S
C2293 C2291 1.327 . S
C2293 C2309 1.429 . S
C2293 H2315 0.950 . S
C2294 H2290 0.949 . S
C2294 C2302 1.574 . S
C2294 C2310 1.368 . S
H2295 C2303 0.950 . S
H2296 C2301 0.950 . S
H2297 C2302 0.949 . S
H2298 C2304 0.950 . S
H2299 C2305 0.950 . S
H2300 C2306 0.949 . S
C2301 H2296 0.950 . S
C2301 C2303 1.327 . S
C2301 C2307 1.429 . S
C2302 C2294 1.574 . S
C2302 H2297 0.949 . S
C2302 C2308 1.368 . S
C2303 C2287 1.349 . S
C2303 H2295 0.950 . S
C2303 C2301 1.327 . S
C2304 C2292 1.349 . S
C2304 H2298 0.950 . S
C2304 C2305 1.327 . S
C2305 H2299 0.950 . S
C2305 C2304 1.327 . S
C2305 C2309 1.429 . S
C2306 C2289 1.574 . S
C2306 H2300 0.949 . S
C2306 C2310 1.368 . S
C2307 C2288 1.429 . S
C2307 C2301 1.429 . S
C2307 C2308 1.523 . S
C2308 C2289 1.368 . S
C2308 C2302 1.368 . S
C2308 C2307 1.523 . S
C2309 C2293 1.429 . S
C2309 C2305 1.429 . S
C2309 C2310 1.523 . S
C2310 C2294 1.368 . S
C2310 C2306 1.368 . S
C2310 C2309 1.523 . S
H2311 C2286 0.950 . S
H2312 C2288 0.950 . S
H2313 C2289 0.949 . S
H2314 C2291 0.950 . S
H2315 C2293 0.950 . S
C2316 C2317 1.349 . S
C2316 C2318 1.327 . S
C2316 H2341 0.950 . S
C2317 C2316 1.349 . S
C2317 C2333 1.349 . S
C2318 C2316 1.327 . S
C2318 C2337 1.429 . S
C2318 H2342 0.950 . S
C2319 C2336 1.574 . S
C2319 C2338 1.368 . S
C2319 H2343 0.949 . S
H2320 C2324 0.949 . S
C2321 C2322 1.349 . S
C2321 C2323 1.327 . S
C2321 H2344 0.950 . S
C2322 C2321 1.349 . S
C2322 C2334 1.349 . S
C2323 C2321 1.327 . S
C2323 C2339 1.429 . S
C2323 H2345 0.950 . S
C2324 H2320 0.949 . S
C2324 C2332 1.574 . S
C2324 C2340 1.368 . S
H2325 C2333 0.950 . S
H2326 C2331 0.950 . S
H2327 C2332 0.949 . S
H2328 C2334 0.950 . S
H2329 C2335 0.950 . S
H2330 C2336 0.949 . S
C2331 H2326 0.950 . S
C2331 C2333 1.327 . S
C2331 C2337 1.429 . S
C2332 C2324 1.574 . S
C2332 H2327 0.949 . S
C2332 C2338 1.368 . S
C2333 C2317 1.349 . S
C2333 H2325 0.950 . S
C2333 C2331 1.327 . S
C2334 C2322 1.349 . S
C2334 H2328 0.950 . S
C2334 C2335 1.327 . S
C2335 H2329 0.950 . S
C2335 C2334 1.327 . S
C2335 C2339 1.429 . S
C2336 C2319 1.574 . S
C2336 H2330 0.949 . S
C2336 C2340 1.368 . S
C2337 C2318 1.429 . S
C2337 C2331 1.429 . S
C2337 C2338 1.523 . S
C2338 C2319 1.368 . S
C2338 C2332 1.368 . S
C2338 C2337 1.523 . S
C2339 C2323 1.429 . S
C2339 C2335 1.429 . S
C2339 C2340 1.523 . S
C2340 C2324 1.368 . S
C2340 C2336 1.368 . S
C2340 C2339 1.523 . S
H2341 C2316 0.950 . S
H2342 C2318 0.950 . S
H2343 C2319 0.949 . S
H2344 C2321 0.950 . S
H2345 C2323 0.950 . S
C2346 C2347 1.349 . S
C2346 C2348 1.327 . S
C2346 H2371 0.950 . S
C2347 C2346 1.349 . S
C2347 C2363 1.349 . S
C2348 C2346 1.327 . S
C2348 C2367 1.429 . S
C2348 H2372 0.950 . S
C2349 C2366 1.574 . S
C2349 C2368 1.368 . S
C2349 H2373 0.949 . S
H2350 C2354 0.949 . S
C2351 C2352 1.349 . S
C2351 C2353 1.327 . S
C2351 H2374 0.950 . S
C2352 C2351 1.349 . S
C2352 C2364 1.349 . S
C2353 C2351 1.327 . S
C2353 C2369 1.429 . S
C2353 H2375 0.950 . S
C2354 H2350 0.949 . S
C2354 C2362 1.574 . S
C2354 C2370 1.368 . S
H2355 C2363 0.950 . S
H2356 C2361 0.950 . S
H2357 C2362 0.949 . S
H2358 C2364 0.950 . S
H2359 C2365 0.950 . S
H2360 C2366 0.949 . S
C2361 H2356 0.950 . S
C2361 C2363 1.327 . S
C2361 C2367 1.429 . S
C2362 C2354 1.574 . S
C2362 H2357 0.949 . S
C2362 C2368 1.368 . S
C2363 C2347 1.349 . S
C2363 H2355 0.950 . S
C2363 C2361 1.327 . S
C2364 C2352 1.349 . S
C2364 H2358 0.950 . S
C2364 C2365 1.327 . S
C2365 H2359 0.950 . S
C2365 C2364 1.327 . S
C2365 C2369 1.429 . S
C2366 C2349 1.574 . S
C2366 H2360 0.949 . S
C2366 C2370 1.368 . S
C2367 C2348 1.429 . S
C2367 C2361 1.429 . S
C2367 C2368 1.523 . S
C2368 C2349 1.368 . S
C2368 C2362 1.368 . S
C2368 C2367 1.523 . S
C2369 C2353 1.429 . S
C2369 C2365 1.429 . S
C2369 C2370 1.523 . S
C2370 C2354 1.368 . S
C2370 C2366 1.368 . S
C2370 C2369 1.523 . S
H2371 C2346 0.950 . S
H2372 C2348 0.950 . S
H2373 C2349 0.949 . S
H2374 C2351 0.950 . S
H2375 C2353 0.950 . S
C2376 C2377 1.349 . S
C2376 C2378 1.327 . S
C2376 H2401 0.950 . S
C2377 C2376 1.349 . S
C2377 C2393 1.349 . S
C2378 C2376 1.327 . S
C2378 C2397 1.429 . S
C2378 H2402 0.950 . S
C2379 C2396 1.574 . S
C2379 C2398 1.368 . S
C2379 H2403 0.949 . S
H2380 C2384 0.949 1_565 S
C2381 C2382 1.349 . S
C2381 C2383 1.327 . S
C2381 H2404 0.950 . S
C2382 C2381 1.349 . S
C2382 C2394 1.349 1_545 S
C2383 C2381 1.327 . S
C2383 C2399 1.429 . S
C2383 H2405 0.950 . S
C2384 H2380 0.949 1_545 S
C2384 C2392 1.574 . S
C2384 C2400 1.368 . S
H2385 C2393 0.950 . S
H2386 C2391 0.950 . S
H2387 C2392 0.933 1_565 S
H2388 C2394 0.950 . S
H2389 C2395 0.979 . S
H2390 C2396 0.949 . S
C2391 H2386 0.950 . S
C2391 C2393 1.327 . S
C2391 C2397 1.429 . S
C2392 C2384 1.574 . S
C2392 H2387 0.933 1_545 S
C2392 C2398 1.368 . S
C2393 C2377 1.349 . S
C2393 H2385 0.950 . S
C2393 C2391 1.327 . S
C2394 C2382 1.349 1_565 S
C2394 H2388 0.950 . S
C2394 C2395 1.377 . S
C2395 H2389 0.979 . S
C2395 C2394 1.377 . S
C2395 C2399 1.356 1_565 S
C2396 C2379 1.574 . S
C2396 H2390 0.949 . S
C2396 C2400 1.368 . S
C2397 C2378 1.429 . S
C2397 C2391 1.429 . S
C2397 C2398 1.523 . S
C2398 C2379 1.368 . S
C2398 C2392 1.368 . S
C2398 C2397 1.523 . S
C2399 C2383 1.429 . S
C2399 C2395 1.356 1_545 S
C2399 C2400 1.523 . S
C2400 C2384 1.368 . S
C2400 C2396 1.368 . S
C2400 C2399 1.523 . S
H2401 C2376 0.950 . S
H2402 C2378 0.950 . S
H2403 C2379 0.949 . S
H2404 C2381 0.950 . S
H2405 C2383 0.950 . S
C2406 C2407 1.349 . S
C2406 C2408 1.327 . S
C2406 H2431 0.950 . S
C2407 C2406 1.349 . S
C2407 C2423 1.349 . S
C2408 C2406 1.327 . S
C2408 C2427 1.429 . S
C2408 H2432 0.950 . S
C2409 C2426 1.578 1_655 S
C2409 C2428 1.368 . S
C2409 H2433 0.949 1_655 S
H2410 C2414 0.949 . S
C2411 C2412 1.349 1_455 S
C2411 C2413 1.327 . S
C2411 H2434 0.950 . S
C2412 C2411 1.349 1_655 S
C2412 C2424 1.349 . S
C2413 C2411 1.327 . S
C2413 C2429 1.429 1_455 S
C2413 H2435 0.950 . S
C2414 H2410 0.949 . S
C2414 C2422 1.574 . S
C2414 C2430 1.368 . S
H2415 C2423 0.959 . S
H2416 C2421 0.950 1_455 S
H2417 C2422 0.949 . S
H2418 C2424 0.950 . S
H2419 C2425 0.950 . S
H2420 C2426 0.953 . S
C2421 H2416 0.950 1_655 S
C2421 C2423 1.327 . S
C2421 C2427 1.429 . S
C2422 C2414 1.574 . S
C2422 H2417 0.949 . S
C2422 C2428 1.368 . S
C2423 C2407 1.349 . S
C2423 H2415 0.959 . S
C2423 C2421 1.327 . S
C2424 C2412 1.349 . S
C2424 H2418 0.950 . S
C2424 C2425 1.327 . S
C2425 H2419 0.950 . S
C2425 C2424 1.327 . S
C2425 C2429 1.429 . S
C2426 C2409 1.578 1_455 S
C2426 H2420 0.953 . S
C2426 C2430 1.360 1_455 S
C2427 C2408 1.429 . S
C2427 C2421 1.429 . S
C2427 C2428 1.523 . S
C2428 C2409 1.368 . S
C2428 C2422 1.368 . S
C2428 C2427 1.523 . S
C2429 C2413 1.429 1_655 S
C2429 C2425 1.429 . S
C2429 C2430 1.523 . S
C2430 C2414 1.368 . S
C2430 C2426 1.360 1_655 S
C2430 C2429 1.523 . S
H2431 C2406 0.950 . S
H2432 C2408 0.950 . S
H2433 C2409 0.949 1_455 S
H2434 C2411 0.950 . S
H2435 C2413 0.950 . S
C2436 C2437 1.349 . S
C2436 C2438 1.327 . S
C2436 H2461 0.950 . S
C2437 C2436 1.349 . S
C2437 C2453 1.349 . S
C2438 C2436 1.327 . S
C2438 C2457 1.429 . S
C2438 H2462 0.950 . S
C2439 C2456 1.574 . S
C2439 C2458 1.368 . S
C2439 H2463 0.949 . S
H2440 C2444 0.949 . S
C2441 C2442 1.349 . S
C2441 C2443 1.327 . S
C2441 H2464 0.950 . S
C2442 C2441 1.349 . S
C2442 C2454 1.349 . S
C2443 C2441 1.327 . S
C2443 C2459 1.429 . S
C2443 H2465 0.950 . S
C2444 H2440 0.949 . S
C2444 C2452 1.574 . S
C2444 C2460 1.368 . S
H2445 C2453 0.950 . S
H2446 C2451 0.950 . S
H2447 C2452 0.949 . S
H2448 C2454 0.950 . S
H2449 C2455 0.950 . S
H2450 C2456 0.949 . S
C2451 H2446 0.950 . S
C2451 C2453 1.327 . S
C2451 C2457 1.429 . S
C2452 C2444 1.574 . S
C2452 H2447 0.949 . S
C2452 C2458 1.368 . S
C2453 C2437 1.349 . S
C2453 H2445 0.950 . S
C2453 C2451 1.327 . S
C2454 C2442 1.349 . S
C2454 H2448 0.950 . S
C2454 C2455 1.327 . S
C2455 H2449 0.950 . S
C2455 C2454 1.327 . S
C2455 C2459 1.429 . S
C2456 C2439 1.574 . S
C2456 H2450 0.949 . S
C2456 C2460 1.368 . S
C2457 C2438 1.429 . S
C2457 C2451 1.429 . S
C2457 C2458 1.523 . S
C2458 C2439 1.368 . S
C2458 C2452 1.368 . S
C2458 C2457 1.523 . S
C2459 C2443 1.429 . S
C2459 C2455 1.429 . S
C2459 C2460 1.523 . S
C2460 C2444 1.368 . S
C2460 C2456 1.368 . S
C2460 C2459 1.523 . S
H2461 C2436 0.950 . S
H2462 C2438 0.950 . S
H2463 C2439 0.949 . S
H2464 C2441 0.950 . S
H2465 C2443 0.950 . S
C2466 C2467 1.349 . S
C2466 C2468 1.327 . S
C2466 H2491 0.950 . S
C2467 C2466 1.349 . S
C2467 C2483 1.349 . S
C2468 C2466 1.327 . S
C2468 C2487 1.429 . S
C2468 H2492 0.950 . S
C2469 C2486 1.574 . S
C2469 C2488 1.368 . S
C2469 H2493 0.949 . S
H2470 C2474 0.949 . S
C2471 C2472 1.349 . S
C2471 C2473 1.327 . S
C2471 H2494 0.950 . S
C2472 C2471 1.349 . S
C2472 C2484 1.349 . S
C2473 C2471 1.327 . S
C2473 C2489 1.429 . S
C2473 H2495 0.950 . S
C2474 H2470 0.949 . S
C2474 C2482 1.574 . S
C2474 C2490 1.368 . S
H2475 C2483 0.950 . S
H2476 C2481 0.950 . S
H2477 C2482 0.949 . S
H2478 C2484 0.950 . S
H2479 C2485 0.950 . S
H2480 C2486 0.949 . S
C2481 H2476 0.950 . S
C2481 C2483 1.327 . S
C2481 C2487 1.429 . S
C2482 C2474 1.574 . S
C2482 H2477 0.949 . S
C2482 C2488 1.368 . S
C2483 C2467 1.349 . S
C2483 H2475 0.950 . S
C2483 C2481 1.327 . S
C2484 C2472 1.349 . S
C2484 H2478 0.950 . S
C2484 C2485 1.327 . S
C2485 H2479 0.950 . S
C2485 C2484 1.327 . S
C2485 C2489 1.429 . S
C2486 C2469 1.574 . S
C2486 H2480 0.949 . S
C2486 C2490 1.368 . S
C2487 C2468 1.429 . S
C2487 C2481 1.429 . S
C2487 C2488 1.523 . S
C2488 C2469 1.368 . S
C2488 C2482 1.368 . S
C2488 C2487 1.523 . S
C2489 C2473 1.429 . S
C2489 C2485 1.429 . S
C2489 C2490 1.523 . S
C2490 C2474 1.368 . S
C2490 C2486 1.368 . S
C2490 C2489 1.523 . S
H2491 C2466 0.950 . S
H2492 C2468 0.950 . S
H2493 C2469 0.949 . S
H2494 C2471 0.950 . S
H2495 C2473 0.950 . S
C2496 C2497 1.349 . S
C2496 C2498 1.327 . S
C2496 H2521 0.950 . S
C2497 C2496 1.349 . S
C2497 C2513 1.349 . S
C2498 C2496 1.327 . S
C2498 C2517 1.429 . S
C2498 H2522 0.950 . S
C2499 C2516 1.574 . S
C2499 C2518 1.368 . S
C2499 H2523 0.949 . S
H2500 C2504 0.949 . S
C2501 C2502 1.349 . S
C2501 C2503 1.327 . S
C2501 H2524 0.950 . S
C2502 C2501 1.349 . S
C2502 C2514 1.349 . S
C2503 C2501 1.327 . S
C2503 C2519 1.429 . S
C2503 H2525 0.950 . S
C2504 H2500 0.949 . S
C2504 C2512 1.574 . S
C2504 C2520 1.368 . S
H2505 C2513 0.950 . S
H2506 C2511 0.950 . S
H2507 C2512 0.949 . S
H2508 C2514 0.950 . S
H2509 C2515 0.950 . S
H2510 C2516 0.949 . S
C2511 H2506 0.950 . S
C2511 C2513 1.327 . S
C2511 C2517 1.429 . S
C2512 C2504 1.574 . S
C2512 H2507 0.949 . S
C2512 C2518 1.368 . S
C2513 C2497 1.349 . S
C2513 H2505 0.950 . S
C2513 C2511 1.327 . S
C2514 C2502 1.349 . S
C2514 H2508 0.950 . S
C2514 C2515 1.327 . S
C2515 H2509 0.950 . S
C2515 C2514 1.327 . S
C2515 C2519 1.429 . S
C2516 C2499 1.574 . S
C2516 H2510 0.949 . S
C2516 C2520 1.368 . S
C2517 C2498 1.429 . S
C2517 C2511 1.429 . S
C2517 C2518 1.523 . S
C2518 C2499 1.368 . S
C2518 C2512 1.368 . S
C2518 C2517 1.523 . S
C2519 C2503 1.429 . S
C2519 C2515 1.429 . S
C2519 C2520 1.523 . S
C2520 C2504 1.368 . S
C2520 C2516 1.368 . S
C2520 C2519 1.523 . S
H2521 C2496 0.950 . S
H2522 C2498 0.950 . S
H2523 C2499 0.949 . S
H2524 C2501 0.950 . S
H2525 C2503 0.950 . S
C2526 C2527 1.349 . S
C2526 C2528 1.327 . S
C2526 H2551 0.950 . S
C2527 C2526 1.349 . S
C2527 C2543 1.349 . S
C2528 C2526 1.327 . S
C2528 C2547 1.429 . S
C2528 H2552 0.950 . S
C2529 C2546 1.574 . S
C2529 C2548 1.368 . S
C2529 H2553 0.949 . S
H2530 C2534 0.949 . S
C2531 C2532 1.349 . S
C2531 C2533 1.327 . S
C2531 H2554 0.950 . S
C2532 C2531 1.349 . S
C2532 C2544 1.349 . S
C2533 C2531 1.327 . S
C2533 C2549 1.429 . S
C2533 H2555 0.950 . S
C2534 H2530 0.949 . S
C2534 C2542 1.574 . S
C2534 C2550 1.368 . S
H2535 C2543 0.950 . S
H2536 C2541 0.950 . S
H2537 C2542 0.949 . S
H2538 C2544 0.950 . S
H2539 C2545 0.950 . S
H2540 C2546 0.949 . S
C2541 H2536 0.950 . S
C2541 C2543 1.327 . S
C2541 C2547 1.429 . S
C2542 C2534 1.574 . S
C2542 H2537 0.949 . S
C2542 C2548 1.368 . S
C2543 C2527 1.349 . S
C2543 H2535 0.950 . S
C2543 C2541 1.327 . S
C2544 C2532 1.349 . S
C2544 H2538 0.950 . S
C2544 C2545 1.327 . S
C2545 H2539 0.950 . S
C2545 C2544 1.327 . S
C2545 C2549 1.429 . S
C2546 C2529 1.574 . S
C2546 H2540 0.949 . S
C2546 C2550 1.368 . S
C2547 C2528 1.429 . S
C2547 C2541 1.429 . S
C2547 C2548 1.523 . S
C2548 C2529 1.368 . S
C2548 C2542 1.368 . S
C2548 C2547 1.523 . S
C2549 C2533 1.429 . S
C2549 C2545 1.429 . S
C2549 C2550 1.523 . S
C2550 C2534 1.368 . S
C2550 C2546 1.368 . S
C2550 C2549 1.523 . S
H2551 C2526 0.950 . S
H2552 C2528 0.950 . S
H2553 C2529 0.949 . S
H2554 C2531 0.950 . S
H2555 C2533 0.950 . S
C2556 C2557 1.349 . S
C2556 C2558 1.327 . S
C2556 H2581 0.950 . S
C2557 C2556 1.349 . S
C2557 C2573 1.349 . S
C2558 C2556 1.327 . S
C2558 C2577 1.429 . S
C2558 H2582 0.950 . S
C2559 C2576 1.574 . S
C2559 C2578 1.368 . S
C2559 H2583 0.949 . S
H2560 C2564 0.949 . S
C2561 C2562 1.349 . S
C2561 C2563 1.327 . S
C2561 H2584 0.950 . S
C2562 C2561 1.349 . S
C2562 C2574 1.349 . S
C2563 C2561 1.327 . S
C2563 C2579 1.429 . S
C2563 H2585 0.950 . S
C2564 H2560 0.949 . S
C2564 C2572 1.574 . S
C2564 C2580 1.368 . S
H2565 C2573 0.950 . S
H2566 C2571 0.950 . S
H2567 C2572 0.949 . S
H2568 C2574 0.950 . S
H2569 C2575 0.950 . S
H2570 C2576 0.949 . S
C2571 H2566 0.950 . S
C2571 C2573 1.327 . S
C2571 C2577 1.429 . S
C2572 C2564 1.574 . S
C2572 H2567 0.949 . S
C2572 C2578 1.368 . S
C2573 C2557 1.349 . S
C2573 H2565 0.950 . S
C2573 C2571 1.327 . S
C2574 C2562 1.349 . S
C2574 H2568 0.950 . S
C2574 C2575 1.327 . S
C2575 H2569 0.950 . S
C2575 C2574 1.327 . S
C2575 C2579 1.429 . S
C2576 C2559 1.574 . S
C2576 H2570 0.949 . S
C2576 C2580 1.368 . S
C2577 C2558 1.429 . S
C2577 C2571 1.429 . S
C2577 C2578 1.523 . S
C2578 C2559 1.368 . S
C2578 C2572 1.368 . S
C2578 C2577 1.523 . S
C2579 C2563 1.429 . S
C2579 C2575 1.429 . S
C2579 C2580 1.523 . S
C2580 C2564 1.368 . S
C2580 C2576 1.368 . S
C2580 C2579 1.523 . S
H2581 C2556 0.950 . S
H2582 C2558 0.950 . S
H2583 C2559 0.949 . S
H2584 C2561 0.950 . S
H2585 C2563 0.950 . S
C2586 C2587 1.349 . S
C2586 C2588 1.327 . S
C2586 H2611 0.950 . S
C2587 C2586 1.349 . S
C2587 C2603 1.349 . S
C2588 C2586 1.327 . S
C2588 C2607 1.429 . S
C2588 H2612 0.950 . S
C2589 C2606 1.574 . S
C2589 C2608 1.368 . S
C2589 H2613 0.949 . S
H2590 C2594 0.949 . S
C2591 C2592 1.349 . S
C2591 C2593 1.327 . S
C2591 H2614 0.950 . S
C2592 C2591 1.349 . S
C2592 C2604 1.349 . S
C2593 C2591 1.327 . S
C2593 C2609 1.429 . S
C2593 H2615 0.950 . S
C2594 H2590 0.949 . S
C2594 C2602 1.574 . S
C2594 C2610 1.368 . S
H2595 C2603 0.950 . S
H2596 C2601 0.950 . S
H2597 C2602 0.949 . S
H2598 C2604 0.950 . S
H2599 C2605 0.950 . S
H2600 C2606 0.949 . S
C2601 H2596 0.950 . S
C2601 C2603 1.327 . S
C2601 C2607 1.429 . S
C2602 C2594 1.574 . S
C2602 H2597 0.949 . S
C2602 C2608 1.368 . S
C2603 C2587 1.349 . S
C2603 H2595 0.950 . S
C2603 C2601 1.327 . S
C2604 C2592 1.349 . S
C2604 H2598 0.950 . S
C2604 C2605 1.327 . S
C2605 H2599 0.950 . S
C2605 C2604 1.327 . S
C2605 C2609 1.429 . S
C2606 C2589 1.574 . S
C2606 H2600 0.949 . S
C2606 C2610 1.368 . S
C2607 C2588 1.429 . S
C2607 C2601 1.429 . S
C2607 C2608 1.523 . S
C2608 C2589 1.368 . S
C2608 C2602 1.368 . S
C2608 C2607 1.523 . S
C2609 C2593 1.429 . S
C2609 C2605 1.429 . S
C2609 C2610 1.523 . S
C2610 C2594 1.368 . S
C2610 C2606 1.368 . S
C2610 C2609 1.523 . S
H2611 C2586 0.950 . S
H2612 C2588 0.950 . S
H2613 C2589 0.949 . S
H2614 C2591 0.950 . S
H2615 C2593 0.950 . S
C2616 C2617 1.349 . S
C2616 C2618 1.327 . S
C2616 H2641 0.950 . S
C2617 C2616 1.349 . S
C2617 C2633 1.349 . S
C2618 C2616 1.327 . S
C2618 C2637 1.429 . S
C2618 H2642 0.950 . S
C2619 C2636 1.574 . S
C2619 C2638 1.368 . S
C2619 H2643 0.949 . S
H2620 C2624 0.949 . S
C2621 C2622 1.349 . S
C2621 C2623 1.327 . S
C2621 H2644 0.950 . S
C2622 C2621 1.349 . S
C2622 C2634 1.349 . S
C2623 C2621 1.327 . S
C2623 C2639 1.429 . S
C2623 H2645 0.950 . S
C2624 H2620 0.949 . S
C2624 C2632 1.574 . S
C2624 C2640 1.368 . S
H2625 C2633 0.950 . S
H2626 C2631 0.950 . S
H2627 C2632 0.949 . S
H2628 C2634 0.950 . S
H2629 C2635 0.950 . S
H2630 C2636 0.949 . S
C2631 H2626 0.950 . S
C2631 C2633 1.327 . S
C2631 C2637 1.429 . S
C2632 C2624 1.574 . S
C2632 H2627 0.949 . S
C2632 C2638 1.368 . S
C2633 C2617 1.349 . S
C2633 H2625 0.950 . S
C2633 C2631 1.327 . S
C2634 C2622 1.349 . S
C2634 H2628 0.950 . S
C2634 C2635 1.327 . S
C2635 H2629 0.950 . S
C2635 C2634 1.327 . S
C2635 C2639 1.429 . S
C2636 C2619 1.574 . S
C2636 H2630 0.949 . S
C2636 C2640 1.368 . S
C2637 C2618 1.429 . S
C2637 C2631 1.429 . S
C2637 C2638 1.523 . S
C2638 C2619 1.368 . S
C2638 C2632 1.368 . S
C2638 C2637 1.523 . S
C2639 C2623 1.429 . S
C2639 C2635 1.429 . S
C2639 C2640 1.523 . S
C2640 C2624 1.368 . S
C2640 C2636 1.368 . S
C2640 C2639 1.523 . S
H2641 C2616 0.950 . S
H2642 C2618 0.950 . S
H2643 C2619 0.949 . S
H2644 C2621 0.950 . S
H2645 C2623 0.950 . S
C2646 C2647 1.349 . S
C2646 C2648 1.327 . S
C2646 H2671 0.950 . S
C2647 C2646 1.349 . S
C2647 C2663 1.349 . S
C2648 C2646 1.327 . S
C2648 C2667 1.429 . S
C2648 H2672 0.894 1_655 S
C2649 C2666 1.574 . S
C2649 C2668 1.368 . S
C2649 H2673 0.949 . S
H2650 C2654 1.027 . S
C2651 C2652 1.412 . S
C2651 C2653 1.327 . S
C2651 H2674 0.950 . S
C2652 C2651 1.412 . S
C2652 C2664 1.332 1_655 S
C2653 C2651 1.327 . S
C2653 C2669 1.429 . S
C2653 H2675 0.950 . S
C2654 H2650 1.027 . S
C2654 C2662 1.523 1_455 S
C2654 C2670 1.339 1_455 S
H2655 C2663 0.950 . S
H2656 C2661 0.950 . S
H2657 C2662 0.949 1_455 S
H2658 C2664 0.950 . S
H2659 C2665 0.950 . S
H2660 C2666 0.949 . S
C2661 H2656 0.950 . S
C2661 C2663 1.327 . S
C2661 C2667 1.429 . S
C2662 C2654 1.523 1_655 S
C2662 H2657 0.949 1_655 S
C2662 C2668 1.368 . S
C2663 C2647 1.349 . S
C2663 H2655 0.950 . S
C2663 C2661 1.327 . S
C2664 C2652 1.332 1_455 S
C2664 H2658 0.950 . S
C2664 C2665 1.327 . S
C2665 H2659 0.950 . S
C2665 C2664 1.327 . S
C2665 C2669 1.429 1_455 S
C2666 C2649 1.574 . S
C2666 H2660 0.949 . S
C2666 C2670 1.368 . S
C2667 C2648 1.429 . S
C2667 C2661 1.429 . S
C2667 C2668 1.523 . S
C2668 C2649 1.368 . S
C2668 C2662 1.368 . S
C2668 C2667 1.523 . S
C2669 C2653 1.429 . S
C2669 C2665 1.429 1_655 S
C2669 C2670 1.523 . S
C2670 C2654 1.339 1_655 S
C2670 C2666 1.368 . S
C2670 C2669 1.523 . S
H2671 C2646 0.950 . S
H2672 C2648 0.894 1_455 S
H2673 C2649 0.949 . S
H2674 C2651 0.950 . S
H2675 C2653 0.950 . S
C2676 C2677 1.349 . S
C2676 C2678 1.327 . S
C2676 H2701 0.950 . S
C2677 C2676 1.349 . S
C2677 C2693 1.349 . S
C2678 C2676 1.327 . S
C2678 C2697 1.429 . S
C2678 H2702 0.950 . S
C2679 C2696 1.574 . S
C2679 C2698 1.368 . S
C2679 H2703 0.949 . S
H2680 C2684 0.949 . S
C2681 C2682 1.349 . S
C2681 C2683 1.327 . S
C2681 H2704 0.950 . S
C2682 C2681 1.349 . S
C2682 C2694 1.349 . S
C2683 C2681 1.327 . S
C2683 C2699 1.429 . S
C2683 H2705 0.950 . S
C2684 H2680 0.949 . S
C2684 C2692 1.574 . S
C2684 C2700 1.368 . S
H2685 C2693 0.950 . S
H2686 C2691 0.950 . S
H2687 C2692 0.949 . S
H2688 C2694 0.950 . S
H2689 C2695 0.950 . S
H2690 C2696 0.949 . S
C2691 H2686 0.950 . S
C2691 C2693 1.327 . S
C2691 C2697 1.429 . S
C2692 C2684 1.574 . S
C2692 H2687 0.949 . S
C2692 C2698 1.368 . S
C2693 C2677 1.349 . S
C2693 H2685 0.950 . S
C2693 C2691 1.327 . S
C2694 C2682 1.349 . S
C2694 H2688 0.950 . S
C2694 C2695 1.327 . S
C2695 H2689 0.950 . S
C2695 C2694 1.327 . S
C2695 C2699 1.429 . S
C2696 C2679 1.574 . S
C2696 H2690 0.949 . S
C2696 C2700 1.368 . S
C2697 C2678 1.429 . S
C2697 C2691 1.429 . S
C2697 C2698 1.523 . S
C2698 C2679 1.368 . S
C2698 C2692 1.368 . S
C2698 C2697 1.523 . S
C2699 C2683 1.429 . S
C2699 C2695 1.429 . S
C2699 C2700 1.523 . S
C2700 C2684 1.368 . S
C2700 C2696 1.368 . S
C2700 C2699 1.523 . S
H2701 C2676 0.950 . S
H2702 C2678 0.950 . S
H2703 C2679 0.949 . S
H2704 C2681 0.950 . S
H2705 C2683 0.950 . S
C2706 C2707 1.349 . S
C2706 C2708 1.327 . S
C2706 H2731 0.950 . S
C2707 C2706 1.349 . S
C2707 C2723 1.349 . S
C2708 C2706 1.327 . S
C2708 C2727 1.429 . S
C2708 H2732 0.950 . S
C2709 C2726 1.574 . S
C2709 C2728 1.368 1_565 S
C2709 H2733 0.949 . S
H2710 C2714 0.949 . S
C2711 C2712 1.346 . S
C2711 C2713 1.327 . S
C2711 H2734 0.950 . S
C2712 C2711 1.346 . S
C2712 C2724 1.350 1_565 S
C2713 C2711 1.327 . S
C2713 C2729 1.429 1_565 S
C2713 H2735 0.950 . S
C2714 H2710 0.949 . S
C2714 C2722 1.574 . S
C2714 C2730 1.368 . S
H2715 C2723 0.950 1_565 S
H2716 C2721 0.950 1_565 S
H2717 C2722 0.949 . S
H2718 C2724 0.950 . S
H2719 C2725 0.950 . S
H2720 C2726 0.949 . S
C2721 H2716 0.950 1_545 S
C2721 C2723 1.327 . S
C2721 C2727 1.429 . S
C2722 C2714 1.574 . S
C2722 H2717 0.949 . S
C2722 C2728 1.368 . S
C2723 C2707 1.349 . S
C2723 H2715 0.950 1_545 S
C2723 C2721 1.327 . S
C2724 C2712 1.350 1_545 S
C2724 H2718 0.950 . S
C2724 C2725 1.327 . S
C2725 H2719 0.950 . S
C2725 C2724 1.327 . S
C2725 C2729 1.429 . S
C2726 C2709 1.574 . S
C2726 H2720 0.949 . S
C2726 C2730 1.368 1_565 S
C2727 C2708 1.429 . S
C2727 C2721 1.429 . S
C2727 C2728 1.523 . S
C2728 C2709 1.368 1_545 S
C2728 C2722 1.368 . S
C2728 C2727 1.523 . S
C2729 C2713 1.429 1_545 S
C2729 C2725 1.429 . S
C2729 C2730 1.523 . S
C2730 C2714 1.368 . S
C2730 C2726 1.368 1_545 S
C2730 C2729 1.523 . S
H2731 C2706 0.950 . S
H2732 C2708 0.950 . S
H2733 C2709 0.949 . S
H2734 C2711 0.950 . S
H2735 C2713 0.950 . S
C577 C13 1.482 . S
C582 C421 1.547 . S
C607 C27 1.367 . S
C612 C446 1.436 . S
C642 C457 1.531 . S
C637 C36 1.457 . S
C667 C41 1.456 . S
C672 C482 1.528 . S
C697 C8 1.566 . S
C702 C500 1.651 . S
C727 C22 1.456 . S
C732 C511 1.523 . S
C757 C55 1.480 . S
C762 C493 1.551 . S
C792 C518 1.425 . S
C787 C69 1.362 . S
C822 C475 1.538 . S
C817 C78 1.464 . S
C847 C83 1.451 . S
C852 C464 1.506 . S
C882 C428 1.623 1_655 S
C877 C50 1.566 . S
C907 C64 1.439 . S
C912 C439 1.516 . S
C937 C97 1.527 . S
C942 C529 1.602 . S
C967 C111 1.391 . S
C972 C554 1.466 . S
C1002 C565 1.572 . S
C997 C120 1.514 . S
C1027 C125 1.482 . S
C1032 C266 1.561 . S
C1057 C92 1.644 . S
C1062 C284 1.709 . S
C1087 C106 1.484 . S
C1092 C295 1.547 . S
C1117 C139 1.485 . S
C1122 C277 1.560 . S
C1147 C153 1.383 . S
C1152 C302 1.444 . S
C1182 C259 1.570 . S
C1177 C162 1.496 . S
C1212 C572 1.570 . S
C1207 C167 1.489 . S
C1242 C536 1.676 . S
C1237 C134 1.609 . S
C1272 C547 1.544 . S
C1267 C148 1.472 . S
C1297 C181 1.510 . S
C1302 C313 1.580 . S
C1327 C195 1.386 . S
C1332 C338 1.451 . S
C1357 C204 1.517 . S
C1362 C349 1.578 . S
C1387 C209 1.499 . S
C1392 C374 1.584 . S
C1422 C392 1.712 . S
C1417 C176 1.649 . S
C1452 C403 1.552 . S
C1447 C190 1.492 . S
C1482 C385 1.596 . S
C1477 C223 1.514 . S
C1512 C410 1.458 . S
C1507 C237 1.389 . S
C1537 C246 1.485 . S
C1542 C367 1.555 . S
C1572 C356 1.536 . S
C1567 C251 1.462 . S
C1597 C218 1.612 . S
C1602 C320 1.682 . S
C1632 C331 1.546 . S
C1627 C232 1.471 . S
C1662 C268 1.288 . S
C1657 C11 1.346 . S
C1687 C25 1.212 . S
C1692 C286 1.163 . S
C1722 C296 1.268 . S
C1717 C35 1.327 . S
C1752 C314 1.263 . S
C1747 C39 1.322 . S
C1782 C340 1.366 . S
C1777 C7 1.438 1_556 S
C1812 C350 1.242 . S
C1807 C21 1.303 1_556 S
C1837 C53 1.371 1_556 S
C1842 C358 1.311 . S
C1867 C67 1.240 1_556 S
C1872 C322 1.174 . S
C1897 C77 1.329 1_556 S
C1902 C332 1.262 . S
C1927 C81 1.376 . S
C1932 C278 1.315 . S
C1962 C304 1.362 . S
C1957 C49 1.451 . S
C1987 C63 1.334 . S
C1992 C260 1.265 . S
C2022 C376 1.272 . S
C2017 C95 1.335 . S
C2047 C109 1.264 . S
C2052 C394 1.211 . S
C2077 C119 1.391 . S
C2082 C404 1.328 . S
C2112 C422 1.199 . S
C2107 C123 1.257 . S
C2137 C91 1.431 . S
C2142 C448 1.359 . S
C2167 C105 1.263 . S
C2172 C458 1.213 . S
C2197 C137 1.309 . S
C2202 C466 1.232 . S
C2227 C151 1.172 . S
C2232 C430 1.115 1_655 S
C2262 C440 1.291 . S
C2257 C161 1.355 . S
C2287 C165 1.363 . S
C2292 C386 1.293 . S
C2317 C133 1.489 . S
C2322 C412 1.396 . S
C2352 C368 1.324 . S
C2347 C147 1.395 . S
C2382 C484 1.245 . S
C2377 C179 1.306 . S
C2407 C193 1.156 . S
C2412 C502 1.106 . S
C2437 C203 1.329 . S
C2442 C512 1.271 . S
C2472 C530 1.254 . S
C2467 C207 1.317 . S
C2502 C556 1.396 . S
C2497 C175 1.471 . S
C2527 C189 1.370 . S
C2532 C566 1.307 . S
C2557 C221 1.370 . S
C2562 C574 1.289 . S
C2587 C235 1.290 . S
C2592 C538 1.218 . S
C2622 C548 1.334 . S
C2617 C245 1.403 . S
C2652 C494 1.161 1_655 S
C2647 C249 1.256 . S
C2682 C520 1.367 . S
C2677 C217 1.455 . S
C2707 C231 1.290 . S
C2712 C476 1.266 . S
