# Generated by pormake.
# Topology pyr, (3,6)-cn, num edge types: 1
# Building blocks:
#     Node 0, Type 0, BuildingBlock: MIDCAF_clean_linker_0, # of connection points: 3
#     Node 1, Type 0, BuildingBlock: MIDCAF_clean_linker_0, # of connection points: 3
#     Node 2, Type 0, BuildingBlock: MIDCAF_clean_linker_0, # of connection points: 3
#     Node 3, Type 0, BuildingBlock: MIDCAF_clean_linker_0, # of connection points: 3
#     Node 4, Type 0, BuildingBlock: MIDCAF_clean_linker_0, # of connection points: 3
#     Node 5, Type 0, BuildingBlock: MIDCAF_clean_linker_0, # of connection points: 3
#     Node 6, Type 0, BuildingBlock: MIDCAF_clean_linker_0, # of connection points: 3
#     Node 7, Type 0, BuildingBlock: MIDCAF_clean_linker_0, # of connection points: 3
#     Node 8, Type 1, BuildingBlock: FUNLAD_clean_sbu_0, # of connection points: 6
#     Node 9, Type 1, BuildingBlock: FUNLAD_clean_sbu_0, # of connection points: 6
#     Node 10, Type 1, BuildingBlock: FUNLAD_clean_sbu_0, # of connection points: 6
#     Node 11, Type 1, BuildingBlock: FUNLAD_clean_sbu_0, # of connection points: 6
#     Edge 12, Type (0, 1), BuildingBlock: XIVTED_clean_linker_0, # of connection points: 2
#     Edge 13, Type (0, 1), BuildingBlock: XIVTED_clean_linker_0, # of connection points: 2
#     Edge 14, Type (0, 1), BuildingBlock: XIVTED_clean_linker_0, # of connection points: 2
#     Edge 15, Type (0, 1), BuildingBlock: XIVTED_clean_linker_0, # of connection points: 2
#     Edge 16, Type (0, 1), BuildingBlock: XIVTED_clean_linker_0, # of connection points: 2
#     Edge 17, Type (0, 1), BuildingBlock: XIVTED_clean_linker_0, # of connection points: 2
#     Edge 18, Type (0, 1), BuildingBlock: XIVTED_clean_linker_0, # of connection points: 2
#     Edge 19, Type (0, 1), BuildingBlock: XIVTED_clean_linker_0, # of connection points: 2
#     Edge 20, Type (0, 1), BuildingBlock: XIVTED_clean_linker_0, # of connection points: 2
#     Edge 21, Type (0, 1), BuildingBlock: XIVTED_clean_linker_0, # of connection points: 2
#     Edge 22, Type (0, 1), BuildingBlock: XIVTED_clean_linker_0, # of connection points: 2
#     Edge 23, Type (0, 1), BuildingBlock: XIVTED_clean_linker_0, # of connection points: 2
#     Edge 24, Type (0, 1), BuildingBlock: XIVTED_clean_linker_0, # of connection points: 2
#     Edge 25, Type (0, 1), BuildingBlock: XIVTED_clean_linker_0, # of connection points: 2
#     Edge 26, Type (0, 1), BuildingBlock: XIVTED_clean_linker_0, # of connection points: 2
#     Edge 27, Type (0, 1), BuildingBlock: XIVTED_clean_linker_0, # of connection points: 2
#     Edge 28, Type (0, 1), BuildingBlock: XIVTED_clean_linker_0, # of connection points: 2
#     Edge 29, Type (0, 1), BuildingBlock: XIVTED_clean_linker_0, # of connection points: 2
#     Edge 30, Type (0, 1), BuildingBlock: XIVTED_clean_linker_0, # of connection points: 2
#     Edge 31, Type (0, 1), BuildingBlock: XIVTED_clean_linker_0, # of connection points: 2
#     Edge 32, Type (0, 1), BuildingBlock: XIVTED_clean_linker_0, # of connection points: 2
#     Edge 33, Type (0, 1), BuildingBlock: XIVTED_clean_linker_0, # of connection points: 2
#     Edge 34, Type (0, 1), BuildingBlock: XIVTED_clean_linker_0, # of connection points: 2
#     Edge 35, Type (0, 1), BuildingBlock: XIVTED_clean_linker_0, # of connection points: 2
# Relax obj value: 0.056
# Max RMSD: 0.064
# Mean RMSD: 0.028
data_MOF--net-pry--node1-FUNLAD_clean_sbu_0--node2-MIDCAF_clean_linker_0--edge1-XIVTED_clean_linker_0
_symmetry_space_group_name_H-M    P1
_symmetry_Int_Tables_number       1
_symmetry_cell_setting            triclinic
loop_
_symmetry_equiv_pos_as_xyz
'x, y, z'
_cell_length_a     44.080313
_cell_length_b     46.716095
_cell_length_c     46.851467
_cell_angle_alpha  90.105921
_cell_angle_beta   90.105964
_cell_angle_gamma 85.346054
loop_
_atom_site_label
_atom_site_type_symbol
_atom_site_fract_x
_atom_site_fract_y
_atom_site_fract_z
_atom_type_partial_charge
C0 C 0.09177 0.14777 0.26999 0.0
C1 C 0.10468 0.12112 0.28012 0.0
C2 C 0.1288 0.10705 0.26464 0.0
C3 C 0.13975 0.11922 0.23981 0.0
H4 H 0.21345 0.1111 0.18529 0.0
H5 H 0.25925 0.08907 0.16244 0.0
H6 H 0.24495 0.14746 0.09138 0.0
H7 H 0.19985 0.16993 0.11444 0.0
H8 H 0.15401 0.22149 0.11903 0.0
H9 H 0.13123 0.2649 0.09707 0.0
H10 H 0.06167 0.27151 0.16208 0.0
H11 H 0.08501 0.22794 0.18471 0.0
H12 H 0.09206 0.1804 0.23785 0.0
H13 H 0.07297 0.15911 0.2812 0.0
H14 H 0.13962 0.08673 0.27195 0.0
H15 H 0.15844 0.10763 0.22867 0.0
N16 N 0.164 0.14556 0.19013 0.0
N17 N 0.16118 0.18082 0.15462 0.0
N18 N 0.12496 0.18301 0.19137 0.0
C19 C 0.17532 0.15655 0.16591 0.0
C20 C 0.13609 0.19428 0.16705 0.0
C21 C 0.13883 0.15854 0.20305 0.0
C22 C 0.2029 0.14244 0.15184 0.0
C23 C 0.22005 0.11925 0.16478 0.0
C24 C 0.24628 0.10648 0.15157 0.0
C25 C 0.25598 0.1165 0.12505 0.0
C26 C 0.2386 0.13947 0.11202 0.0
C27 C 0.21251 0.15229 0.12524 0.0
C28 C 0.12142 0.22097 0.15378 0.0
C29 C 0.13383 0.23201 0.1288 0.0
C30 C 0.12057 0.25696 0.11595 0.0
C31 C 0.09441 0.27174 0.12758 0.0
C32 C 0.08195 0.26084 0.15262 0.0
C33 C 0.09527 0.23575 0.16555 0.0
C34 C 0.12685 0.14583 0.22957 0.0
C35 C 0.10263 0.15992 0.245 0.0
C36 C 0.27211 0.9242 0.64225 0.0
C37 C 0.25502 0.90818 0.62351 0.0
C38 C 0.26475 0.87911 0.61882 0.0
C39 C 0.29097 0.86657 0.63206 0.0
H40 H 0.35541 0.802 0.61986 0.0
H41 H 0.37842 0.7586 0.59797 0.0
H42 H 0.4515 0.75586 0.65967 0.0
H43 H 0.42803 0.79948 0.6822 0.0
H44 H 0.4199 0.84696 0.73604 0.0
H45 H 0.43917 0.8691 0.77901 0.0
H46 H 0.37558 0.94326 0.76627 0.0
H47 H 0.35659 0.92149 0.72336 0.0
H48 H 0.31087 0.92456 0.66992 0.0
H49 H 0.26569 0.94673 0.64614 0.0
H50 H 0.25193 0.8658 0.60513 0.0
H51 H 0.29766 0.84414 0.62784 0.0
N52 N 0.34969 0.84429 0.65376 0.0
N53 N 0.3874 0.84379 0.68921 0.0
N54 N 0.34843 0.88127 0.68758 0.0
C55 C 0.37535 0.83147 0.66579 0.0
C56 C 0.37398 0.86877 0.70026 0.0
C57 C 0.33608 0.86911 0.6644 0.0
C58 C 0.38982 0.8045 0.6529 0.0
C59 C 0.3764 0.79232 0.62892 0.0
C60 C 0.38977 0.7674 0.61612 0.0
C61 C 0.41701 0.75376 0.6268 0.0
C62 C 0.43039 0.76568 0.65095 0.0
C63 C 0.41698 0.79078 0.66383 0.0
C64 C 0.3866 0.88232 0.7261 0.0
C65 C 0.41012 0.86805 0.74229 0.0
C66 C 0.42106 0.88068 0.76707 0.0
C67 C 0.40895 0.90801 0.77617 0.0
C68 C 0.38573 0.92238 0.75977 0.0
C69 C 0.37468 0.90972 0.73517 0.0
C70 C 0.30805 0.8826 0.65071 0.0
C71 C 0.29818 0.91152 0.65581 0.0
C72 C 0.59508 0.34383 0.99017 0.0
C73 C 0.56736 0.33557 0.97929 0.0
C74 C 0.54721 0.35629 0.96605 0.0
C75 C 0.5556 0.38413 0.96184 0.0
H76 H 0.537 0.44743 0.90521 0.0
H77 H 0.51878 0.45882 0.85724 0.0
H78 H 0.59756 0.5058 0.84193 0.0
H79 H 0.61593 0.49459 0.89004 0.0
H80 H 0.66225 0.49996 0.9487 0.0
H81 H 0.71525 0.50913 0.95784 0.0
H82 H 0.73219 0.42402 0.99305 0.0
H83 H 0.67932 0.41481 0.9843 0.0
H84 H 0.62563 0.37694 0.99347 0.0
H85 H 0.6108 0.32841 1.00096 0.0
H86 H 0.52572 0.35057 0.95737 0.0
H87 H 0.54013 0.39915 0.95029 0.0
N88 N 0.58066 0.43423 0.93993 0.0
N89 N 0.62007 0.46476 0.93668 0.0
N90 N 0.62314 0.427 0.96981 0.0
C91 C 0.59259 0.45703 0.9276 0.0
C92 C 0.63534 0.45 0.95798 0.0
C93 C 0.59562 0.41916 0.96108 0.0
C94 C 0.57831 0.46956 0.90133 0.0
C95 C 0.55023 0.46067 0.8919 0.0
C96 C 0.53979 0.46708 0.86435 0.0
C97 C 0.55707 0.48266 0.8457 0.0
C98 C 0.58377 0.49371 0.85587 0.0
C99 C 0.59432 0.48723 0.88346 0.0
C100 C 0.66657 0.45664 0.9657 0.0
C101 C 0.6772 0.4833 0.95864 0.0
C102 C 0.70746 0.48861 0.96393 0.0
C103 C 0.72774 0.46719 0.97594 0.0
C104 C 0.71702 0.44077 0.98351 0.0
C105 C 0.68669 0.43562 0.97867 0.0
C106 C 0.58432 0.39183 0.9708 0.0
C107 C 0.60346 0.37172 0.98605 0.0
C108 C 0.79567 0.58449 0.48648 0.0
C109 C 0.78475 0.55794 0.4796 0.0
C110 C 0.80482 0.53614 0.46796 0.0
C111 C 0.83503 0.54119 0.46225 0.0
H112 H 0.89546 0.52518 0.39466 0.0
H113 H 0.91011 0.51284 0.3458 0.0
H114 H 0.98379 0.56824 0.35155 0.0
H115 H 0.96998 0.57976 0.40044 0.0
H116 H 0.973 0.62334 0.45027 0.0
H117 H 0.98875 0.67167 0.4562 0.0
H118 H 0.90383 0.69717 0.4985 0.0
H119 H 0.88771 0.64887 0.49224 0.0
H120 H 0.83352 0.61035 0.48622 0.0
H121 H 0.78066 0.60155 0.49571 0.0
H122 H 0.79689 0.5155 0.46238 0.0
H123 H 0.84977 0.52424 0.45252 0.0
N124 N 0.89119 0.55929 0.43828 0.0
N125 N 0.93084 0.58965 0.43978 0.0
N126 N 0.88962 0.5975 0.471 0.0
C127 C 0.91828 0.56679 0.42813 0.0
C128 C 0.91686 0.60504 0.46127 0.0
C129 C 0.87685 0.57439 0.45989 0.0
C130 C 0.93107 0.55401 0.40133 0.0
C131 C 0.91526 0.53417 0.38577 0.0
C132 C 0.92351 0.52726 0.35765 0.0
C133 C 0.94766 0.54009 0.34451 0.0
C134 C 0.96509 0.5579 0.36093 0.0
C135 C 0.95698 0.56468 0.38904 0.0
C136 C 0.92883 0.63234 0.4703 0.0
C137 C 0.95785 0.63906 0.4613 0.0
C138 C 0.967 0.66675 0.46484 0.0
C139 C 0.94731 0.6883 0.47739 0.0
C140 C 0.91924 0.68107 0.48827 0.0
C141 C 0.91011 0.65333 0.48486 0.0
C142 C 0.84584 0.56801 0.46851 0.0
C143 C 0.82599 0.58941 0.48123 0.0
C144 C 0.76562 0.91812 0.87155 0.0
C145 C 0.75665 0.90851 0.89847 0.0
C146 C 0.77487 0.88631 0.91184 0.0
C147 C 0.80108 0.87381 0.89854 0.0
H148 H 0.87899 0.81887 0.91242 0.0
H149 H 0.90185 0.7759 0.93531 0.0
H150 H 0.93242 0.74265 0.85313 0.0
H151 H 0.91074 0.78676 0.83043 0.0
H152 H 0.91885 0.84481 0.78353 0.0
H153 H 0.93719 0.866 0.73982 0.0
H154 H 0.86926 0.93738 0.74872 0.0
H155 H 0.85116 0.91657 0.79236 0.0
H156 H 0.7979 0.91343 0.8374 0.0
H157 H 0.75199 0.93493 0.86043 0.0
H158 H 0.76906 0.87868 0.93278 0.0
H159 H 0.81439 0.85673 0.90958 0.0
N160 N 0.85253 0.84565 0.86889 0.0
N161 N 0.88705 0.84258 0.83068 0.0
N162 N 0.84756 0.87957 0.83214 0.0
C163 C 0.87724 0.83213 0.8559 0.0
C164 C 0.8724 0.86653 0.81875 0.0
C165 C 0.83741 0.86923 0.85717 0.0
C166 C 0.89287 0.80623 0.86954 0.0
C167 C 0.89072 0.80246 0.8992 0.0
C168 C 0.90367 0.77755 0.91235 0.0
C169 C 0.9187 0.75526 0.8962 0.0
C170 C 0.92136 0.75931 0.86648 0.0
C171 C 0.90882 0.78459 0.85335 0.0
C172 C 0.88349 0.8789 0.79168 0.0
C173 C 0.90779 0.86502 0.7762 0.0
C174 C 0.91824 0.87712 0.75101 0.0
C175 C 0.90481 0.9035 0.74073 0.0
C176 C 0.88048 0.91728 0.75616 0.0
C177 C 0.86994 0.90515 0.78119 0.0
C178 C 0.80992 0.8832 0.8715 0.0
C179 C 0.79193 0.90566 0.85824 0.0
C180 C 0.62561 0.10391 0.26009 0.0
C181 C 0.60193 0.11808 0.24411 0.0
C182 C 0.58918 0.14496 0.25382 0.0
C183 C 0.59981 0.15727 0.27891 0.0
H184 H 0.59812 0.23687 0.33253 0.0
H185 H 0.57727 0.28124 0.35553 0.0
H186 H 0.6096 0.24815 0.43721 0.0
H187 H 0.63158 0.20499 0.41405 0.0
H188 H 0.7087 0.17865 0.39718 0.0
H189 H 0.75458 0.15715 0.41971 0.0
H190 H 0.74374 0.07753 0.37504 0.0
H191 H 0.69842 0.09964 0.35143 0.0
H192 H 0.6547 0.10457 0.29655 0.0
H193 H 0.63627 0.08339 0.25311 0.0
H194 H 0.57072 0.15638 0.24219 0.0
H195 H 0.58941 0.17795 0.28572 0.0
N196 N 0.62127 0.18038 0.33306 0.0
N197 N 0.65734 0.17843 0.37011 0.0
N198 N 0.66064 0.14323 0.33442 0.0
C199 C 0.63208 0.19153 0.35764 0.0
C200 C 0.67185 0.15441 0.35866 0.0
C201 C 0.63542 0.15601 0.32139 0.0
C202 C 0.61682 0.21754 0.37138 0.0
C203 C 0.6006 0.23916 0.35541 0.0
C204 C 0.58854 0.26457 0.3687 0.0
C205 C 0.592 0.26873 0.39835 0.0
C206 C 0.60721 0.24642 0.41429 0.0
C207 C 0.61966 0.2214 0.40099 0.0
C208 C 0.69977 0.14088 0.37249 0.0
C209 C 0.71604 0.15653 0.39215 0.0
C210 C 0.74236 0.14407 0.40528 0.0
C211 C 0.75299 0.11542 0.39948 0.0
C212 C 0.73664 0.09974 0.3798 0.0
C213 C 0.71048 0.11238 0.36634 0.0
C214 C 0.62363 0.14311 0.29481 0.0
C215 C 0.63634 0.11625 0.285 0.0
C216 C 0.3072 0.53501 0.05745 0.0
C217 C 0.28724 0.55659 0.04529 0.0
C218 C 0.2983 0.58293 0.03794 0.0
C219 C 0.32867 0.58781 0.04312 0.0
H220 H 0.39143 0.64641 0.03038 0.0
H221 H 0.40933 0.69355 0.02189 0.0
H222 H 0.4963 0.66533 0.05932 0.0
H223 H 0.47824 0.61838 0.06841 0.0
H224 H 0.47739 0.57415 0.11831 0.0
H225 H 0.49461 0.56293 0.16662 0.0
H226 H 0.41458 0.51752 0.18119 0.0
H227 H 0.3972 0.52855 0.13275 0.0
H228 H 0.35213 0.52323 0.07311 0.0
H229 H 0.29915 0.51454 0.06341 0.0
H230 H 0.28339 0.59982 0.02832 0.0
H231 H 0.33635 0.60855 0.03766 0.0
N232 N 0.39277 0.59519 0.0521 0.0
N233 N 0.4348 0.58731 0.08249 0.0
N234 N 0.3943 0.55809 0.08596 0.0
C235 C 0.42054 0.60233 0.06093 0.0
C236 C 0.42195 0.56522 0.09517 0.0
C237 C 0.3797 0.57281 0.06425 0.0
C238 C 0.4332 0.62876 0.05053 0.0
C239 C 0.41459 0.65003 0.03627 0.0
C240 C 0.4249 0.67708 0.03132 0.0
C241 C 0.45408 0.68333 0.04038 0.0
C242 C 0.47344 0.66139 0.05272 0.0
C243 C 0.46311 0.63442 0.05778 0.0
C244 C 0.43553 0.55279 0.12179 0.0
C245 C 0.46366 0.56129 0.13154 0.0
C246 C 0.47353 0.55498 0.15928 0.0
C247 C 0.45564 0.53988 0.17781 0.0
C248 C 0.42885 0.52922 0.16735 0.0
C249 C 0.41887 0.53561 0.13957 0.0
C250 C 0.34844 0.56659 0.05621 0.0
C251 C 0.33745 0.54004 0.06309 0.0
C252 C 0.09069 0.34405 0.53517 0.0
C253 C 0.06275 0.33673 0.54628 0.0
C254 C 0.04324 0.35815 0.55924 0.0
C255 C 0.05243 0.38581 0.56288 0.0
H256 H 0.04127 0.44474 0.62436 0.0
H257 H 0.02808 0.45647 0.67335 0.0
H258 H 0.1014 0.51239 0.67777 0.0
H259 H 0.11541 0.49987 0.62879 0.0
H260 H 0.15968 0.50136 0.57016 0.0
H261 H 0.21223 0.51061 0.55947 0.0
H262 H 0.22858 0.42485 0.52541 0.0
H263 H 0.17604 0.41555 0.53576 0.0
H264 H 0.12213 0.37632 0.53107 0.0
H265 H 0.10596 0.32805 0.52464 0.0
H266 H 0.02161 0.35314 0.56808 0.0
H267 H 0.03741 0.40144 0.57419 0.0
N268 N 0.07967 0.43516 0.58432 0.0
N269 N 0.11903 0.46587 0.58507 0.0
N270 N 0.12021 0.42777 0.55225 0.0
C271 C 0.09228 0.4581 0.59576 0.0
C272 C 0.133 0.45096 0.56316 0.0
C273 C 0.09329 0.41996 0.56252 0.0
C274 C 0.07993 0.47078 0.62277 0.0
C275 C 0.05432 0.45997 0.63549 0.0
C276 C 0.04657 0.46686 0.66366 0.0
C277 C 0.06406 0.48492 0.67971 0.0
C278 C 0.08795 0.4978 0.66619 0.0
C279 C 0.09583 0.49079 0.63801 0.0
C280 C 0.1637 0.45769 0.55391 0.0
C281 C 0.17436 0.48459 0.56008 0.0
C282 C 0.20438 0.48994 0.55388 0.0
C283 C 0.22442 0.46836 0.54182 0.0
C284 C 0.2136 0.44175 0.53496 0.0
C285 C 0.18346 0.43654 0.54071 0.0
C286 C 0.08129 0.39265 0.55357 0.0
C287 C 0.09984 0.37178 0.53868 0.0
C288 C 0.03037 0.03087 0.46012 0.0
N289 N 0.01242 0.07294 0.53796 0.0
C290 C 0.04017 0.08303 0.5339 0.0
C291 C 0.04494 0.11131 0.5407 0.0
C292 C 0.02088 0.12957 0.55164 0.0
C293 C 0.99272 0.11839 0.55659 0.0
C294 C 0.98898 0.08975 0.54963 0.0
Zn295 Zn 0.0064 0.0334 0.52158 0.0
C296 C 0.94805 0.03261 0.48979 0.0
N297 N 0.99719 0.95215 0.48323 0.0
C298 C 0.02068 0.9353 0.4717 0.0
C299 C 0.96944 0.94205 0.48725 0.0
C300 C 0.96473 0.91373 0.48058 0.0
C301 C 0.98886 0.89543 0.46984 0.0
C302 C 0.01702 0.90662 0.46489 0.0
Zn303 Zn 1.00319 0.99169 0.49959 0.0
O304 O 0.02613 0.0465 0.48226 0.0
C305 C 0.06152 0.99243 0.53143 0.0
O306 O 0.02306 1.00509 0.46085 0.0
H307 H 0.95121 0.95559 0.49691 0.0
H308 H 0.05835 0.06951 0.52415 0.0
H309 H 0.04258 0.94377 0.46878 0.0
O310 O 0.04998 0.01753 0.53742 0.0
O311 O 0.04686 0.97649 0.51533 0.0
H312 H 0.96709 0.08129 0.55258 0.0
O313 O 0.98343 0.9786 0.53886 0.0
O314 O 0.98656 0.01997 0.56035 0.0
O315 O 0.95965 0.00755 0.48374 0.0
O316 O 0.96267 0.04857 0.5059 0.0
C317 C 0.9792 0.99419 0.56102 0.0
H318 H 0.06685 0.11914 0.53606 0.0
H319 H 0.97366 0.13177 0.56515 0.0
H320 H 0.94282 0.90589 0.48522 0.0
H321 H 0.03613 0.89321 0.45647 0.0
C322 C 0.56213 0.99019 0.99089 0.0
N323 N 0.51515 0.07166 0.9851 0.0
C324 C 0.5428 0.08155 0.99031 0.0
C325 C 0.54782 0.10997 0.98449 0.0
C326 C 0.52414 0.12852 0.97329 0.0
C327 C 0.49616 0.11748 0.967 0.0
C328 C 0.49215 0.08875 0.97308 0.0
Zn329 Zn 0.50812 0.03204 1.00042 0.0
C330 C 0.48025 0.9943 0.95977 0.0
N331 N 0.49558 0.9506 0.03656 0.0
C332 C 0.51892 0.93286 0.04715 0.0
C333 C 0.46792 0.94087 0.03102 0.0
C334 C 0.46346 0.91192 0.03425 0.0
C335 C 0.48774 0.8927 0.0431 0.0
C336 C 0.51544 0.90359 0.05067 0.0
Zn337 Zn 0.50265 0.99044 0.02167 0.0
O338 O 0.55174 0.01572 0.98523 0.0
C339 C 0.53051 0.02817 0.06234 0.0
O340 O 0.54633 0.9746 1.00619 0.0
H341 H 0.44975 0.95522 0.02236 0.0
H342 H 0.56064 0.06775 1.00026 0.0
H343 H 0.54077 0.94105 0.05125 0.0
O344 O 0.52739 0.04396 0.04027 0.0
O345 O 0.52225 1.0027 0.06119 0.0
H346 H 0.47033 0.08041 0.9692 0.0
O347 O 0.45905 1.00688 0.03699 0.0
O348 O 0.46449 0.0479 0.01579 0.0
O349 O 0.48329 0.9786 0.9819 0.0
O350 O 0.48863 0.01971 0.96085 0.0
C351 C 0.44871 0.03241 0.03124 0.0
H352 H 0.56958 0.11765 0.99013 0.0
H353 H 0.47741 0.13105 0.95812 0.0
H354 H 0.44157 0.90446 0.02871 0.0
H355 H 0.53474 0.88943 0.05751 0.0
C356 C 0.51926 0.45607 0.49262 0.0
N357 N 0.51994 0.49265 0.57501 0.0
C358 C 0.50636 0.47149 0.58879 0.0
C359 C 0.50969 0.46822 0.61834 0.0
C360 C 0.5272 0.48689 0.6337 0.0
C361 C 0.5421 0.50752 0.6186 0.0
C362 C 0.53794 0.5102 0.58928 0.0
Zn363 Zn 0.51034 0.503 0.5335 0.0
C364 C 0.56508 0.52281 0.50409 0.0
N365 N 0.49012 0.53108 0.44883 0.0
C366 C 0.47173 0.51381 0.43466 0.0
C367 C 0.50407 0.55195 0.43496 0.0
C368 C 0.50078 0.55515 0.4054 0.0
C369 C 0.48292 0.53672 0.39013 0.0
C370 C 0.4676 0.51644 0.40533 0.0
Zn371 Zn 0.4998 0.52067 0.49031 0.0
O372 O 0.52177 0.46013 0.51936 0.0
C373 C 0.44507 0.50083 0.51975 0.0
O374 O 0.51042 0.47718 0.47672 0.0
H375 H 0.51875 0.56532 0.44661 0.0
H376 H 0.49198 0.45789 0.57707 0.0
H377 H 0.46113 0.49709 0.4459 0.0
O378 O 0.46435 0.49391 0.53924 0.0
O379 O 0.45383 0.51256 0.49712 0.0
H380 H 0.54824 0.52716 0.57812 0.0
O381 O 0.48928 0.56376 0.50437 0.0
O382 O 0.49881 0.54628 0.54715 0.0
O383 O 0.546 0.52907 0.48427 0.0
O384 O 0.55612 0.51178 0.527 0.0
C385 C 0.49081 0.5676 0.53123 0.0
H386 H 0.49767 0.45208 0.62914 0.0
H387 H 0.55637 0.52196 0.6294 0.0
H388 H 0.51313 0.571 0.39454 0.0
H389 H 0.45305 0.50222 0.39459 0.0
C390 C 0.99209 0.56928 0.9925 0.0
N391 N 0.99047 0.53341 0.07493 0.0
C392 C 1.00286 0.55532 0.08876 0.0
C393 C 0.99763 0.5597 0.11796 0.0
C394 C 0.97925 0.54152 0.13276 0.0
C395 C 0.96617 0.51966 0.11772 0.0
C396 C 0.97224 0.51587 0.0888 0.0
Zn397 Zn 1.00129 0.52258 0.0338 0.0
C398 C 0.94715 0.5021 1.00327 0.0
N399 N 0.02314 0.49395 0.94961 0.0
C400 C 0.04153 0.51128 0.93567 0.0
C401 C 0.01054 0.4721 0.93587 0.0
C402 C 0.01566 0.46761 0.90668 0.0
C403 C 0.03413 0.48563 0.89177 0.0
C404 C 0.04748 0.50739 0.90673 0.0
Zn405 Zn 0.01228 0.50491 0.99069 0.0
O406 O 0.98961 0.56518 0.01921 0.0
C407 C 0.06643 0.52544 0.02118 0.0
O408 O 1.00126 0.54825 0.97658 0.0
H409 H 0.99587 0.45867 0.94735 0.0
H410 H 0.01743 0.5689 0.07735 0.0
H411 H 0.05084 0.5289 0.94676 0.0
O412 O 0.04697 0.53223 0.04051 0.0
O413 O 0.05793 0.51366 0.99841 0.0
H414 H 0.96314 0.49817 0.07767 0.0
O415 O 0.0231 0.46198 1.0053 0.0
O416 O 0.01307 0.47955 0.04797 0.0
O417 O 0.96647 0.49589 0.98369 0.0
O418 O 0.95577 0.51324 0.02633 0.0
C419 C 0.02142 0.45822 0.03214 0.0
H420 H 0.00804 0.57687 0.12889 0.0
H421 H 0.95233 0.50485 0.12844 0.0
H422 H 0.00507 0.4505 0.89584 0.0
H423 H 0.06142 0.52206 0.89594 0.0
H424 H 0.08759 0.14791 0.33064 0.0
H425 H 0.04365 1.00401 0.40871 0.0
H426 H 0.09591 0.0644 0.29059 0.0
H427 H 0.04442 0.08619 0.45085 0.0
H428 H 0.06166 0.02573 0.36494 0.0
H429 H 0.06998 0.12587 0.37428 0.0
C430 C 0.08553 0.12497 0.33091 0.0
C431 C 0.09332 0.10805 0.30678 0.0
C432 C 0.05796 0.03899 0.38379 0.0
C433 C 0.07334 0.08251 0.35699 0.0
C434 C 0.04769 0.02658 0.40883 0.0
C435 C 0.04248 0.04324 0.4336 0.0
C436 C 0.06293 0.06835 0.38338 0.0
C437 C 0.04811 0.07242 0.43236 0.0
C438 C 0.07567 0.11234 0.35595 0.0
C439 C 0.09057 0.07831 0.3087 0.0
N440 N 0.0579 0.08401 0.40773 0.0
N441 N 0.08079 0.06655 0.33326 0.0
H442 H 0.41991 0.96443 0.78575 0.0
H443 H 0.46318 0.94002 0.95072 0.0
H444 H 0.42293 0.88211 0.82773 0.0
H445 H 0.47055 0.02066 0.90747 0.0
H446 H 0.44608 0.91934 0.90628 0.0
H447 H 0.43631 0.98603 0.83026 0.0
C448 C 0.42394 0.95088 0.80433 0.0
C449 C 0.41997 0.92133 0.80289 0.0
C450 C 0.45138 0.94157 0.90644 0.0
C451 C 0.4389 0.94604 0.85405 0.0
C452 C 0.46109 0.95348 0.9319 0.0
C453 C 0.4684 0.9822 0.93294 0.0
C454 C 0.44877 0.95841 0.88162 0.0
C455 C 0.4652 0.99845 0.90773 0.0
C456 C 0.43345 0.96324 0.82972 0.0
C457 C 0.42599 0.90486 0.82763 0.0
N458 N 0.45564 0.98634 0.88314 0.0
N459 N 0.43501 0.91743 0.85212 0.0
H460 H 0.55691 0.52963 0.81053 0.0
H461 H 0.53143 0.4395 0.66875 0.0
H462 H 0.53982 0.43998 0.81099 0.0
H463 H 0.52678 0.53219 0.67089 0.0
H464 H 0.53575 0.43894 0.7208 0.0
H465 H 0.54751 0.53089 0.75898 0.0
C466 C 0.55098 0.51029 0.79979 0.0
C467 C 0.54902 0.48472 0.81503 0.0
C468 C 0.53369 0.45939 0.70983 0.0
C469 C 0.5385 0.48587 0.7562 0.0
C470 C 0.53113 0.45972 0.68013 0.0
C471 C 0.52907 0.48591 0.66534 0.0
C472 C 0.53435 0.48541 0.72484 0.0
C473 C 0.52907 0.51145 0.68127 0.0
C474 C 0.54554 0.51101 0.77043 0.0
C475 C 0.54116 0.46026 0.80012 0.0
N476 N 0.53185 0.51054 0.7101 0.0
N477 N 0.53641 0.46139 0.77151 0.0
H478 H 0.90437 0.5401 0.30265 0.0
H479 H 0.02222 0.5484 0.17396 0.0
H480 H 1.00179 0.53584 0.31483 0.0
H481 H 0.9263 0.53946 0.16254 0.0
H482 H 0.01502 0.54718 0.22578 0.0
H483 H 0.91202 0.54134 0.25129 0.0
C484 C 0.92744 0.53891 0.29456 0.0
C485 C 0.95248 0.53774 0.3132 0.0
C486 C 0.99555 0.54558 0.21192 0.0
C487 C 0.96135 0.54005 0.25418 0.0
C488 C 0.99959 0.54658 0.18239 0.0
C489 C 0.97481 0.54395 0.164 0.0
C490 C 0.96651 0.54209 0.22305 0.0
C491 C 0.94605 0.54125 0.17599 0.0
C492 C 0.93177 0.53995 0.26516 0.0
C493 C 0.98179 0.53704 0.30132 0.0
N494 N 0.94271 0.54034 0.20474 0.0
N495 N 0.98541 0.53833 0.27256 0.0
H496 H 0.27763 0.05946 0.12322 0.0
H497 H 0.42235 0.0874 0.02674 0.0
H498 H 0.29888 0.1434 0.09484 0.0
H499 H 0.40823 1.00507 0.06393 0.0
H500 H 0.37533 0.10754 0.04908 0.0
H501 H 0.32387 0.03859 0.09988 0.0
C502 C 0.29204 0.07357 0.11224 0.0
C503 C 0.28416 0.10331 0.11104 0.0
C504 C 0.38245 0.08505 0.05233 0.0
C505 C 0.33707 0.07939 0.08384 0.0
C506 C 0.4093 0.07349 0.03948 0.0
C507 C 0.41936 0.04447 0.04348 0.0
C508 C 0.36536 0.06751 0.06928 0.0
C509 C 0.40142 0.02755 0.06029 0.0
C510 C 0.31838 0.06157 0.09875 0.0
C511 C 0.30362 0.12034 0.09602 0.0
N512 N 0.37534 0.03932 0.07257 0.0
N513 N 0.32906 0.10816 0.08305 0.0
H514 H 0.23404 0.89747 0.56938 0.0
H515 H 0.09278 0.01572 0.57516 0.0
H516 H 0.21235 0.94971 0.64392 0.0
H517 H 0.09756 0.94411 0.51655 0.0
H518 H 0.14046 0.99612 0.59707 0.0
H519 H 0.18769 0.91837 0.54649 0.0
C520 C 0.21954 0.91318 0.5811 0.0
C521 C 0.22724 0.92156 0.60887 0.0
C522 C 0.13108 0.98474 0.57939 0.0
C523 C 0.17429 0.94618 0.58224 0.0
C524 C 0.10394 0.99597 0.56677 0.0
C525 C 0.0911 0.9815 0.544 0.0
C526 C 0.14575 0.95904 0.56895 0.0
C527 C 0.10656 0.95593 0.53411 0.0
C528 C 0.19312 0.92523 0.56786 0.0
C529 C 0.20775 0.94272 0.62243 0.0
N530 N 0.1331 0.94557 0.54658 0.0
N531 N 0.18225 0.95428 0.60899 0.0
H532 H 0.77719 0.43239 0.95915 0.0
H533 H 0.89853 0.52497 0.03399 0.0
H534 H 0.75196 0.51293 1.00134 0.0
H535 H 0.92215 0.46763 0.96367 0.0
H536 H 0.84498 0.51659 0.0272 0.0
H537 H 0.83098 0.44075 0.96552 0.0
C538 C 0.78305 0.45176 0.96987 0.0
C539 C 0.76023 0.47201 0.9798 0.0
C540 C 0.8619 0.5059 0.01324 0.0
C541 C 0.82144 0.48161 0.98721 0.0
C542 C 0.89246 0.51055 0.01716 0.0
C543 C 0.9148 0.49697 0.99933 0.0
C544 C 0.85365 0.48718 0.99165 0.0
C545 C 0.90562 0.4786 0.97781 0.0
C546 C 0.81365 0.45659 0.97332 0.0
C547 C 0.76893 0.4969 0.99327 0.0
N548 N 0.87571 0.47408 0.97467 0.0
N549 N 0.79889 0.50092 0.99678 0.0
H550 H 0.73541 0.59264 0.46225 0.0
H551 H 0.6133 0.50021 0.53562 0.0
H552 H 0.76029 0.51279 0.50561 0.0
H553 H 0.5906 0.55711 0.46489 0.0
H554 H 0.66689 0.50884 0.52983 0.0
H555 H 0.68157 0.58429 0.46806 0.0
C556 C 0.72947 0.57345 0.47316 0.0
C557 C 0.7522 0.55336 0.48353 0.0
C558 C 0.65017 0.51938 0.51556 0.0
C559 C 0.69093 0.54376 0.49027 0.0
C560 C 0.61958 0.51457 0.5189 0.0
C561 C 0.59748 0.52795 0.50067 0.0
C562 C 0.65868 0.53806 0.49414 0.0
C563 C 0.60693 0.54628 0.47932 0.0
C564 C 0.69884 0.56862 0.47628 0.0
C565 C 0.74339 0.52869 0.4972 0.0
N566 N 0.63685 0.55095 0.47674 0.0
N567 N 0.71339 0.52465 0.50034 0.0
H568 H 0.06965 0.32146 0.15309 0.0
H569 H 0.04205 0.40751 1.00581 0.0
H570 H 0.088 0.28351 0.07021 0.0
H571 H 0.02034 0.44389 0.08876 0.0
H572 H 0.05777 0.36155 0.02876 0.0
H573 H 0.0499 0.36593 0.12975 0.0
C574 C 0.06928 0.32232 0.12999 0.0
C575 C 0.08073 0.29859 0.11368 0.0
C576 C 0.04945 0.37957 0.04192 0.0
C577 C 0.05843 0.34982 0.08669 0.0
C578 C 0.04045 0.40584 0.02881 0.0
C579 C 0.02991 0.42972 0.04532 0.0
C580 C 0.04798 0.37709 0.07181 0.0
C581 C 0.02837 0.42618 0.07509 0.0
C582 C 0.05816 0.34784 0.11665 0.0
C583 C 0.07997 0.3013 0.08376 0.0
N584 N 0.03737 0.40048 0.08732 0.0
N585 N 0.06915 0.3264 0.07129 0.0
H586 H 0.60646 0.28909 0.96661 0.0
H587 H 0.48372 0.17408 0.98719 0.0
H588 H 0.5132 0.31247 0.99052 0.0
H589 H 0.57407 0.15368 0.95368 0.0
H590 H 0.49337 0.22487 0.98805 0.0
H591 H 0.59493 0.23911 0.96299 0.0
C592 C 0.58362 0.28364 0.97148 0.0
C593 C 0.5608 0.30496 0.97909 0.0
C594 C 0.51099 0.20929 0.98031 0.0
C595 C 0.54725 0.24774 0.97438 0.0
C596 C 0.5054 0.18032 0.97956 0.0
C597 C 0.5282 0.15957 0.9705 0.0
C598 C 0.53961 0.21754 0.97205 0.0
C599 C 0.55602 0.16888 0.96127 0.0
C600 C 0.57696 0.25512 0.96908 0.0
C601 C 0.53143 0.29672 0.98447 0.0
N602 N 0.56101 0.19713 0.96247 0.0
N603 N 0.52549 0.26871 0.98206 0.0
H604 H 1.00199 0.71034 0.489 0.0
H605 H 0.94017 0.87064 0.447 0.0
H606 H 0.90971 0.73516 0.46273 0.0
H607 H 0.02836 0.84969 0.48517 0.0
H608 H 0.93091 0.81987 0.44787 0.0
H609 H 0.01403 0.7604 0.48399 0.0
C610 C 0.98427 0.72634 0.48228 0.0
C611 C 0.95475 0.71864 0.4765 0.0
C612 C 0.95238 0.82632 0.4559 0.0
C613 C 0.96838 0.77572 0.47048 0.0
C614 C 0.95769 0.8553 0.45537 0.0
C615 C 0.98495 0.86443 0.46627 0.0
C616 C 0.97449 0.80626 0.46744 0.0
C617 C 0.00708 0.84357 0.4764 0.0
C618 C 0.99114 0.75485 0.47942 0.0
C619 C 0.93262 0.74021 0.46792 0.0
N620 N 1.00127 0.81545 0.47696 0.0
N621 N 0.93991 0.76771 0.46511 0.0
H622 H 0.44456 0.70514 0.65207 0.0
H623 H 0.4694 0.61799 0.50489 0.0
H624 H 0.42124 0.74136 0.56946 0.0
H625 H 0.49297 0.58238 0.58771 0.0
H626 H 0.45364 0.664 0.52782 0.0
H627 H 0.46473 0.66082 0.62861 0.0
C628 C 0.44393 0.70393 0.62899 0.0
C629 C 0.43095 0.72709 0.6128 0.0
C630 C 0.46238 0.64613 0.54095 0.0
C631 C 0.45376 0.67607 0.5857 0.0
C632 C 0.47142 0.61984 0.52785 0.0
C633 C 0.48245 0.59617 0.54435 0.0
C634 C 0.46435 0.64883 0.57081 0.0
C635 C 0.48452 0.59994 0.57406 0.0
C636 C 0.45529 0.6785 0.61559 0.0
C637 C 0.43049 0.72397 0.58292 0.0
N638 N 0.47549 0.62565 0.58629 0.0
N639 N 0.44159 0.69898 0.57039 0.0
H640 H 0.92237 0.8768 0.69029 0.0
H641 H 0.96563 0.02101 0.61242 0.0
H642 H 0.91271 0.96036 0.73016 0.0
H643 H 0.96528 0.93884 0.5702 0.0
H644 H 0.94747 0.9992 0.6561 0.0
H645 H 0.93994 0.89897 0.64672 0.0
C646 C 0.9241 0.89978 0.68999 0.0
C647 C 0.91597 0.91667 0.71405 0.0
C648 C 0.9513 0.98597 0.63724 0.0
C649 C 0.93594 0.94236 0.66393 0.0
C650 C 0.96165 0.99843 0.61226 0.0
C651 C 0.96703 0.98179 0.5875 0.0
C652 C 0.94641 0.95658 0.6376 0.0
C653 C 0.96147 0.95259 0.58868 0.0
C654 C 0.93395 0.91249 0.66498 0.0
C655 C 0.91833 0.94647 0.7121 0.0
N656 N 0.9516 0.94096 0.61326 0.0
N657 N 0.92813 0.95831 0.68758 0.0
H658 H 0.58659 0.14458 0.19314 0.0
H659 H 0.54126 1.00129 0.11421 0.0
H660 H 0.59235 0.06147 0.23371 0.0
H661 H 0.54635 0.0828 0.07198 0.0
H662 H 0.55857 0.02284 0.15855 0.0
H663 H 0.56974 0.12245 0.14916 0.0
C664 C 0.58412 0.12171 0.1929 0.0
C665 C 0.59095 0.10492 0.21727 0.0
C666 C 0.55598 0.03596 0.13953 0.0
C667 C 0.57184 0.07926 0.16668 0.0
C668 C 0.54612 0.02365 0.11419 0.0
C669 C 0.54231 0.0402 0.08924 0.0
C670 C 0.56192 0.0651 0.14004 0.0
C671 C 0.54893 0.06912 0.0906 0.0
C672 C 0.57469 0.10901 0.16767 0.0
C673 C 0.58771 0.07525 0.21541 0.0
N674 N 0.55827 0.08061 0.1155 0.0
N675 N 0.57835 0.06341 0.19064 0.0
H676 H 0.45434 0.49327 0.21326 0.0
H677 H 0.47977 0.58386 0.35477 0.0
H678 H 0.47318 0.58248 0.21246 0.0
H679 H 0.48259 0.49123 0.35324 0.0
H680 H 0.47597 0.58413 0.30268 0.0
H681 H 0.46293 0.49225 0.26493 0.0
C682 C 0.46047 0.51255 0.22395 0.0
C683 C 0.46317 0.53794 0.20859 0.0
C684 C 0.4775 0.56375 0.3138 0.0
C685 C 0.47277 0.53706 0.26755 0.0
C686 C 0.47977 0.56359 0.34352 0.0
C687 C 0.48119 0.53752 0.35849 0.0
C688 C 0.4765 0.53768 0.29894 0.0
C689 C 0.4808 0.51191 0.34272 0.0
C690 C 0.46545 0.51197 0.25338 0.0
C691 C 0.47128 0.56233 0.22344 0.0
N692 N 0.47834 0.51265 0.31386 0.0
N693 N 0.47557 0.56135 0.25212 0.0
H694 H 0.10769 0.48559 0.72122 0.0
H695 H 0.99087 0.47857 0.85089 0.0
H696 H 0.0102 0.48931 0.70979 0.0
H697 H 0.08686 0.48765 0.86156 0.0
H698 H 0.99768 0.47932 0.79904 0.0
H699 H 0.10047 0.48502 0.77267 0.0
C700 C 0.0847 0.4868 0.72949 0.0
C701 C 0.05951 0.48761 0.71104 0.0
C702 C 0.01725 0.48106 0.81274 0.0
C703 C 0.05113 0.4861 0.77017 0.0
C704 C 0.01344 0.48033 0.8423 0.0
C705 C 0.03834 0.48311 0.8605 0.0
C706 C 0.04621 0.48444 0.80136 0.0
C707 C 0.06701 0.48575 0.84827 0.0
C708 C 0.08062 0.48614 0.75894 0.0
C709 C 0.03031 0.48837 0.72315 0.0
N710 N 0.07014 0.48639 0.81948 0.0
N711 N 0.02693 0.48747 0.75196 0.0
H712 H 0.73344 0.96509 0.89925 0.0
H713 H 0.58914 0.93542 0.99567 0.0
H714 H 0.71492 0.88112 0.92973 0.0
H715 H 0.6024 0.01788 0.95834 0.0
H716 H 0.63667 0.91581 0.97379 0.0
H717 H 0.68676 0.9853 0.92228 0.0
C718 C 0.71954 0.95084 0.91064 0.0
C719 C 0.72829 0.92129 0.91249 0.0
C720 C 0.62923 0.93822 0.97042 0.0
C721 C 0.67484 0.94445 0.93931 0.0
C722 C 0.6021 0.94947 0.98299 0.0
C723 C 0.59166 0.97837 0.97882 0.0
C724 C 0.64622 0.95595 0.95357 0.0
C725 C 0.60948 0.99548 0.96211 0.0
C726 C 0.69294 0.96245 0.92395 0.0
C727 C 0.70947 0.90406 0.92802 0.0
N728 N 0.63583 0.98402 0.95009 0.0
N729 N 0.68372 0.91588 0.94078 0.0
H730 H 0.77335 0.12461 0.45417 0.0
H731 H 0.91722 0.00968 0.44559 0.0
H732 H 0.79688 0.07571 0.37786 0.0
H733 H 0.91133 0.08024 0.50547 0.0
H734 H 0.86919 0.02893 0.42407 0.0
H735 H 0.82018 0.10414 0.47656 0.0
C736 C 0.78833 0.10973 0.44197 0.0
C737 C 0.78101 0.10217 0.41384 0.0
C738 C 0.87842 0.04015 0.44194 0.0
C739 C 0.83451 0.07802 0.43989 0.0
C740 C 0.90575 0.02913 0.45434 0.0
C741 C 0.91837 0.04341 0.47735 0.0
C742 C 0.86331 0.06543 0.45287 0.0
C743 C 0.90251 0.06858 0.4877 0.0
C744 C 0.81503 0.09792 0.45491 0.0
C745 C 0.80115 0.08203 0.39963 0.0
N746 N 0.87577 0.07873 0.47545 0.0
N747 N 0.8269 0.07066 0.41281 0.0
H748 H 0.26306 0.51089 0.01985 0.0
H749 H 0.09128 0.56057 0.06027 0.0
H750 H 0.23774 0.59166 0.06158 0.0
H751 H 0.11518 0.50201 0.991 0.0
H752 H 0.14527 0.56853 0.06603 0.0
H753 H 0.20898 0.50337 0.014 0.0
C754 C 0.24606 0.52699 0.02779 0.0
C755 C 0.25474 0.55195 0.04111 0.0
C756 C 0.1386 0.554 0.04955 0.0
C757 C 0.19312 0.54344 0.03477 0.0
C758 C 0.10787 0.54937 0.04633 0.0
C759 C 0.09876 0.53065 0.0251 0.0
C760 C 0.16033 0.53942 0.03175 0.0
C761 C 0.12119 0.51673 1.00756 0.0
C762 C 0.2153 0.52277 0.02435 0.0
C763 C 0.2319 0.57225 0.05093 0.0
N764 N 0.15096 0.52126 0.01139 0.0
N765 N 0.20209 0.56747 0.04774 0.0
H766 H 0.2483 0.514 0.5161 0.0
H767 H 0.42 0.46577 0.55848 0.0
H768 H 0.27413 0.43377 0.55843 0.0
H769 H 0.39648 0.52408 0.48904 0.0
H770 H 0.36607 0.45752 0.56356 0.0
H771 H 0.30232 0.52193 0.51064 0.0
C772 C 0.26539 0.49809 0.52422 0.0
C773 C 0.25687 0.47316 0.53761 0.0
C774 C 0.3728 0.47207 0.5472 0.0
C775 C 0.31841 0.48216 0.53175 0.0
C776 C 0.4035 0.47687 0.54436 0.0
C777 C 0.41271 0.4956 0.52328 0.0
C778 C 0.35117 0.48647 0.52914 0.0
C779 C 0.39039 0.50937 0.50551 0.0
C780 C 0.29612 0.50254 0.52101 0.0
C781 C 0.27983 0.45313 0.5477 0.0
N782 N 0.36062 0.50466 0.50895 0.0
N783 N 0.30958 0.45815 0.54474 0.0
H784 H 0.96961 0.71926 0.88217 0.0
H785 H 0.95736 0.61479 0.01599 0.0
H786 H 0.89566 0.72819 0.9428 0.0
H787 H 0.00627 0.5886 0.93936 0.0
H788 H 0.94036 0.66036 0.99286 0.0
H789 H 0.98848 0.67464 0.9058 0.0
C790 C 0.95718 0.71194 0.9003 0.0
C791 C 0.9309 0.72791 0.91038 0.0
C792 C 0.95489 0.64465 0.98117 0.0
C793 C 0.95306 0.67696 0.93804 0.0
C794 C 0.96475 0.6187 0.99441 0.0
C795 C 0.9832 0.59777 0.97959 0.0
C796 C 0.96391 0.64995 0.95303 0.0
C797 C 0.99194 0.60404 0.95157 0.0
C798 C 0.96815 0.68649 0.91389 0.0
C799 C 0.91634 0.71727 0.93444 0.0
N800 N 0.9823 0.62955 0.93925 0.0
N801 N 0.92766 0.69265 0.94744 0.0
H802 H 0.48468 0.71183 0.08103 0.0
H803 H 0.46167 0.86272 1.00096 0.0
H804 H 0.4437 0.72313 0.99761 0.0
H805 H 0.5077 0.85131 0.08202 0.0
H806 H 0.45627 0.8113 0.99896 0.0
H807 H 0.49559 0.76216 0.0809 0.0
C808 C 0.4784 0.72476 0.06246 0.0
C809 C 0.4632 0.71319 0.03928 0.0
C810 C 0.46758 0.81996 0.0172 0.0
C811 C 0.47507 0.77109 0.03932 0.0
C812 C 0.47044 0.84938 0.01849 0.0
C813 C 0.48477 0.86136 0.04192 0.0
C814 C 0.47908 0.80227 0.03953 0.0
C815 C 0.49647 0.84294 0.0636 0.0
C816 C 0.48443 0.75359 0.06253 0.0
C817 C 0.45508 0.7312 0.0161 0.0
N818 N 0.4932 0.81428 0.06196 0.0
N819 N 0.46098 0.75927 0.01678 0.0
H820 H 0.00791 0.31493 0.53488 0.0
H821 H 0.06977 0.15402 0.57451 0.0
H822 H 0.10042 0.28962 0.56007 0.0
H823 H 0.9814 0.17556 0.53694 0.0
H824 H 0.07913 0.20477 0.57417 0.0
H825 H 0.99583 0.26483 0.53934 0.0
C826 C 0.02567 0.29882 0.54125 0.0
C827 C 0.05527 0.30639 0.54689 0.0
C828 C 0.0576 0.19845 0.56615 0.0
C829 C 0.0416 0.24926 0.55227 0.0
C830 C 0.05224 0.16949 0.56637 0.0
C831 C 0.02489 0.16053 0.55549 0.0
C832 C 0.03545 0.21868 0.55495 0.0
C833 C 1.00274 0.18154 0.54569 0.0
C834 C 0.01878 0.27028 0.54379 0.0
C835 C 0.07745 0.28467 0.555 0.0
N836 N 0.00861 0.20966 0.54543 0.0
N837 N 0.07014 0.25715 0.55751 0.0
H838 H 0.61696 0.2958 0.4441 0.0
H839 H 0.50351 0.43695 0.43982 0.0
H840 H 0.54102 0.30514 0.38547 0.0
H841 H 0.55441 0.41034 0.5153 0.0
H842 H 0.52004 0.39104 0.4172 0.0
H843 H 0.59756 0.33984 0.46799 0.0
C844 C 0.59603 0.30681 0.43631 0.0
C845 C 0.58053 0.29622 0.41271 0.0
C846 C 0.52743 0.39517 0.43877 0.0
C847 C 0.55867 0.3476 0.4398 0.0
C848 C 0.51807 0.4214 0.45171 0.0
C849 C 0.5276 0.42753 0.47954 0.0
C850 C 0.54695 0.37506 0.45352 0.0
C851 C 0.5464 0.40651 0.49388 0.0
C852 C 0.58508 0.33216 0.44997 0.0
C853 C 0.55406 0.31238 0.40328 0.0
N854 N 0.5557 0.38135 0.48061 0.0
N855 N 0.54407 0.33725 0.41676 0.0
loop_
_geom_bond_atom_site_label_1
_geom_bond_atom_site_label_2
_geom_bond_distance
_geom_bond_site_symmetry_2
_ccdc_geom_bond_type
C0 C1 1.384 . S
C0 H13 0.947 . S
C0 C35 1.382 . S
C1 C0 1.384 . S
C1 C2 1.378 . S
C2 C1 1.378 . S
C2 C3 1.378 . S
C2 H14 0.952 . S
C3 C2 1.378 . S
C3 H15 0.950 . S
C3 C34 1.383 . S
H4 C23 0.947 . S
H5 C24 0.946 . S
H6 C26 0.953 . S
H7 C27 0.945 . S
H8 C29 0.952 . S
H9 C30 0.949 . S
H10 C32 0.950 . S
H11 C33 0.948 . S
H12 C35 0.951 . S
H13 C0 0.947 . S
H14 C2 0.952 . S
H15 C3 0.950 . S
N16 C19 1.382 . S
N16 C21 1.363 . S
N17 C19 1.371 . S
N17 C20 1.372 . S
N18 C20 1.361 . S
N18 C21 1.377 . S
C19 N16 1.382 . S
C19 N17 1.371 . S
C19 C22 1.480 . S
C20 N17 1.372 . S
C20 N18 1.361 . S
C20 C28 1.457 . S
C21 N16 1.363 . S
C21 N18 1.377 . S
C21 C34 1.479 . S
C22 C19 1.480 . S
C22 C23 1.383 . S
C22 C27 1.385 . S
C23 H4 0.947 . S
C23 C22 1.383 . S
C23 C24 1.388 . S
C24 H5 0.946 . S
C24 C23 1.388 . S
C24 C25 1.384 . S
C25 C24 1.384 . S
C25 C26 1.377 . S
C26 H6 0.953 . S
C26 C25 1.377 . S
C26 C27 1.369 . S
C27 H7 0.945 . S
C27 C22 1.385 . S
C27 C26 1.369 . S
C28 C20 1.457 . S
C28 C29 1.372 . S
C28 C33 1.364 . S
C29 H8 0.952 . S
C29 C28 1.372 . S
C29 C30 1.389 . S
C30 H9 0.949 . S
C30 C29 1.389 . S
C30 C31 1.387 . S
C31 C30 1.387 . S
C31 C32 1.372 . S
C32 H10 0.950 . S
C32 C31 1.372 . S
C32 C33 1.379 . S
C33 H11 0.948 . S
C33 C28 1.364 . S
C33 C32 1.379 . S
C34 C3 1.383 . S
C34 C21 1.479 . S
C34 C35 1.398 . S
C35 C0 1.382 . S
C35 H12 0.951 . S
C35 C34 1.398 . S
C36 C37 1.384 . S
C36 H49 0.947 . S
C36 C71 1.382 . S
C37 C36 1.384 . S
C37 C38 1.378 . S
C38 C37 1.378 . S
C38 C39 1.378 . S
C38 H50 0.952 . S
C39 C38 1.378 . S
C39 H51 0.950 . S
C39 C70 1.383 . S
H40 C59 0.947 . S
H41 C60 0.946 . S
H42 C62 0.953 . S
H43 C63 0.945 . S
H44 C65 0.952 . S
H45 C66 0.949 . S
H46 C68 0.950 . S
H47 C69 0.948 . S
H48 C71 0.951 . S
H49 C36 0.947 . S
H50 C38 0.952 . S
H51 C39 0.950 . S
N52 C55 1.382 . S
N52 C57 1.363 . S
N53 C55 1.371 . S
N53 C56 1.372 . S
N54 C56 1.361 . S
N54 C57 1.377 . S
C55 N52 1.382 . S
C55 N53 1.371 . S
C55 C58 1.480 . S
C56 N53 1.372 . S
C56 N54 1.361 . S
C56 C64 1.457 . S
C57 N52 1.363 . S
C57 N54 1.377 . S
C57 C70 1.479 . S
C58 C55 1.480 . S
C58 C59 1.383 . S
C58 C63 1.385 . S
C59 H40 0.947 . S
C59 C58 1.383 . S
C59 C60 1.388 . S
C60 H41 0.946 . S
C60 C59 1.388 . S
C60 C61 1.384 . S
C61 C60 1.384 . S
C61 C62 1.377 . S
C62 H42 0.953 . S
C62 C61 1.377 . S
C62 C63 1.369 . S
C63 H43 0.945 . S
C63 C58 1.385 . S
C63 C62 1.369 . S
C64 C56 1.457 . S
C64 C65 1.372 . S
C64 C69 1.364 . S
C65 H44 0.952 . S
C65 C64 1.372 . S
C65 C66 1.389 . S
C66 H45 0.949 . S
C66 C65 1.389 . S
C66 C67 1.387 . S
C67 C66 1.387 . S
C67 C68 1.372 . S
C68 H46 0.950 . S
C68 C67 1.372 . S
C68 C69 1.379 . S
C69 H47 0.948 . S
C69 C64 1.364 . S
C69 C68 1.379 . S
C70 C39 1.383 . S
C70 C57 1.479 . S
C70 C71 1.398 . S
C71 C36 1.382 . S
C71 H48 0.951 . S
C71 C70 1.398 . S
C72 C73 1.384 . S
C72 H85 0.947 . S
C72 C107 1.382 . S
C73 C72 1.384 . S
C73 C74 1.378 . S
C74 C73 1.378 . S
C74 C75 1.378 . S
C74 H86 0.952 . S
C75 C74 1.378 . S
C75 H87 0.950 . S
C75 C106 1.383 . S
H76 C95 0.947 . S
H77 C96 0.946 . S
H78 C98 0.953 . S
H79 C99 0.945 . S
H80 C101 0.952 . S
H81 C102 0.949 . S
H82 C104 0.950 . S
H83 C105 0.948 . S
H84 C107 0.951 . S
H85 C72 0.947 . S
H86 C74 0.952 . S
H87 C75 0.950 . S
N88 C91 1.382 . S
N88 C93 1.363 . S
N89 C91 1.371 . S
N89 C92 1.372 . S
N90 C92 1.361 . S
N90 C93 1.377 . S
C91 N88 1.382 . S
C91 N89 1.371 . S
C91 C94 1.480 . S
C92 N89 1.372 . S
C92 N90 1.361 . S
C92 C100 1.457 . S
C93 N88 1.363 . S
C93 N90 1.377 . S
C93 C106 1.479 . S
C94 C91 1.480 . S
C94 C95 1.383 . S
C94 C99 1.385 . S
C95 H76 0.947 . S
C95 C94 1.383 . S
C95 C96 1.388 . S
C96 H77 0.946 . S
C96 C95 1.388 . S
C96 C97 1.384 . S
C97 C96 1.384 . S
C97 C98 1.377 . S
C98 H78 0.953 . S
C98 C97 1.377 . S
C98 C99 1.369 . S
C99 H79 0.945 . S
C99 C94 1.385 . S
C99 C98 1.369 . S
C100 C92 1.457 . S
C100 C101 1.372 . S
C100 C105 1.364 . S
C101 H80 0.952 . S
C101 C100 1.372 . S
C101 C102 1.389 . S
C102 H81 0.949 . S
C102 C101 1.389 . S
C102 C103 1.387 . S
C103 C102 1.387 . S
C103 C104 1.372 . S
C104 H82 0.950 . S
C104 C103 1.372 . S
C104 C105 1.379 . S
C105 H83 0.948 . S
C105 C100 1.364 . S
C105 C104 1.379 . S
C106 C75 1.383 . S
C106 C93 1.479 . S
C106 C107 1.398 . S
C107 C72 1.382 . S
C107 H84 0.951 . S
C107 C106 1.398 . S
C108 C109 1.384 . S
C108 H121 0.947 . S
C108 C143 1.382 . S
C109 C108 1.384 . S
C109 C110 1.378 . S
C110 C109 1.378 . S
C110 C111 1.378 . S
C110 H122 0.952 . S
C111 C110 1.378 . S
C111 H123 0.950 . S
C111 C142 1.383 . S
H112 C131 0.947 . S
H113 C132 0.946 . S
H114 C134 0.953 . S
H115 C135 0.945 . S
H116 C137 0.952 . S
H117 C138 0.949 . S
H118 C140 0.950 . S
H119 C141 0.948 . S
H120 C143 0.951 . S
H121 C108 0.947 . S
H122 C110 0.952 . S
H123 C111 0.950 . S
N124 C127 1.382 . S
N124 C129 1.363 . S
N125 C127 1.371 . S
N125 C128 1.372 . S
N126 C128 1.361 . S
N126 C129 1.377 . S
C127 N124 1.382 . S
C127 N125 1.371 . S
C127 C130 1.480 . S
C128 N125 1.372 . S
C128 N126 1.361 . S
C128 C136 1.457 . S
C129 N124 1.363 . S
C129 N126 1.377 . S
C129 C142 1.479 . S
C130 C127 1.480 . S
C130 C131 1.383 . S
C130 C135 1.385 . S
C131 H112 0.947 . S
C131 C130 1.383 . S
C131 C132 1.388 . S
C132 H113 0.946 . S
C132 C131 1.388 . S
C132 C133 1.384 . S
C133 C132 1.384 . S
C133 C134 1.377 . S
C134 H114 0.953 . S
C134 C133 1.377 . S
C134 C135 1.369 . S
C135 H115 0.945 . S
C135 C130 1.385 . S
C135 C134 1.369 . S
C136 C128 1.457 . S
C136 C137 1.372 . S
C136 C141 1.364 . S
C137 H116 0.952 . S
C137 C136 1.372 . S
C137 C138 1.389 . S
C138 H117 0.949 . S
C138 C137 1.389 . S
C138 C139 1.387 . S
C139 C138 1.387 . S
C139 C140 1.372 . S
C140 H118 0.950 . S
C140 C139 1.372 . S
C140 C141 1.379 . S
C141 H119 0.948 . S
C141 C136 1.364 . S
C141 C140 1.379 . S
C142 C111 1.383 . S
C142 C129 1.479 . S
C142 C143 1.398 . S
C143 C108 1.382 . S
C143 H120 0.951 . S
C143 C142 1.398 . S
C144 C145 1.384 . S
C144 H157 0.947 . S
C144 C179 1.382 . S
C145 C144 1.384 . S
C145 C146 1.378 . S
C146 C145 1.378 . S
C146 C147 1.378 . S
C146 H158 0.952 . S
C147 C146 1.378 . S
C147 H159 0.950 . S
C147 C178 1.383 . S
H148 C167 0.947 . S
H149 C168 0.946 . S
H150 C170 0.953 . S
H151 C171 0.945 . S
H152 C173 0.952 . S
H153 C174 0.949 . S
H154 C176 0.950 . S
H155 C177 0.948 . S
H156 C179 0.951 . S
H157 C144 0.947 . S
H158 C146 0.952 . S
H159 C147 0.950 . S
N160 C163 1.382 . S
N160 C165 1.363 . S
N161 C163 1.371 . S
N161 C164 1.372 . S
N162 C164 1.361 . S
N162 C165 1.377 . S
C163 N160 1.382 . S
C163 N161 1.371 . S
C163 C166 1.480 . S
C164 N161 1.372 . S
C164 N162 1.361 . S
C164 C172 1.457 . S
C165 N160 1.363 . S
C165 N162 1.377 . S
C165 C178 1.479 . S
C166 C163 1.480 . S
C166 C167 1.383 . S
C166 C171 1.385 . S
C167 H148 0.947 . S
C167 C166 1.383 . S
C167 C168 1.388 . S
C168 H149 0.946 . S
C168 C167 1.388 . S
C168 C169 1.384 . S
C169 C168 1.384 . S
C169 C170 1.377 . S
C170 H150 0.953 . S
C170 C169 1.377 . S
C170 C171 1.369 . S
C171 H151 0.945 . S
C171 C166 1.385 . S
C171 C170 1.369 . S
C172 C164 1.457 . S
C172 C173 1.372 . S
C172 C177 1.364 . S
C173 H152 0.952 . S
C173 C172 1.372 . S
C173 C174 1.389 . S
C174 H153 0.949 . S
C174 C173 1.389 . S
C174 C175 1.387 . S
C175 C174 1.387 . S
C175 C176 1.372 . S
C176 H154 0.950 . S
C176 C175 1.372 . S
C176 C177 1.379 . S
C177 H155 0.948 . S
C177 C172 1.364 . S
C177 C176 1.379 . S
C178 C147 1.383 . S
C178 C165 1.479 . S
C178 C179 1.398 . S
C179 C144 1.382 . S
C179 H156 0.951 . S
C179 C178 1.398 . S
C180 C181 1.384 . S
C180 H193 0.947 . S
C180 C215 1.382 . S
C181 C180 1.384 . S
C181 C182 1.378 . S
C182 C181 1.378 . S
C182 C183 1.378 . S
C182 H194 0.952 . S
C183 C182 1.378 . S
C183 H195 0.950 . S
C183 C214 1.383 . S
H184 C203 0.947 . S
H185 C204 0.946 . S
H186 C206 0.953 . S
H187 C207 0.945 . S
H188 C209 0.952 . S
H189 C210 0.949 . S
H190 C212 0.950 . S
H191 C213 0.948 . S
H192 C215 0.951 . S
H193 C180 0.947 . S
H194 C182 0.952 . S
H195 C183 0.950 . S
N196 C199 1.382 . S
N196 C201 1.363 . S
N197 C199 1.371 . S
N197 C200 1.372 . S
N198 C200 1.361 . S
N198 C201 1.377 . S
C199 N196 1.382 . S
C199 N197 1.371 . S
C199 C202 1.480 . S
C200 N197 1.372 . S
C200 N198 1.361 . S
C200 C208 1.457 . S
C201 N196 1.363 . S
C201 N198 1.377 . S
C201 C214 1.479 . S
C202 C199 1.480 . S
C202 C203 1.383 . S
C202 C207 1.385 . S
C203 H184 0.947 . S
C203 C202 1.383 . S
C203 C204 1.388 . S
C204 H185 0.946 . S
C204 C203 1.388 . S
C204 C205 1.384 . S
C205 C204 1.384 . S
C205 C206 1.377 . S
C206 H186 0.953 . S
C206 C205 1.377 . S
C206 C207 1.369 . S
C207 H187 0.945 . S
C207 C202 1.385 . S
C207 C206 1.369 . S
C208 C200 1.457 . S
C208 C209 1.372 . S
C208 C213 1.364 . S
C209 H188 0.952 . S
C209 C208 1.372 . S
C209 C210 1.389 . S
C210 H189 0.949 . S
C210 C209 1.389 . S
C210 C211 1.387 . S
C211 C210 1.387 . S
C211 C212 1.372 . S
C212 H190 0.950 . S
C212 C211 1.372 . S
C212 C213 1.379 . S
C213 H191 0.948 . S
C213 C208 1.364 . S
C213 C212 1.379 . S
C214 C183 1.383 . S
C214 C201 1.479 . S
C214 C215 1.398 . S
C215 C180 1.382 . S
C215 H192 0.951 . S
C215 C214 1.398 . S
C216 C217 1.384 . S
C216 H229 0.947 . S
C216 C251 1.382 . S
C217 C216 1.384 . S
C217 C218 1.378 . S
C218 C217 1.378 . S
C218 C219 1.378 . S
C218 H230 0.952 . S
C219 C218 1.378 . S
C219 H231 0.950 . S
C219 C250 1.383 . S
H220 C239 0.947 . S
H221 C240 0.946 . S
H222 C242 0.953 . S
H223 C243 0.945 . S
H224 C245 0.952 . S
H225 C246 0.949 . S
H226 C248 0.950 . S
H227 C249 0.948 . S
H228 C251 0.951 . S
H229 C216 0.947 . S
H230 C218 0.952 . S
H231 C219 0.950 . S
N232 C235 1.382 . S
N232 C237 1.363 . S
N233 C235 1.371 . S
N233 C236 1.372 . S
N234 C236 1.361 . S
N234 C237 1.377 . S
C235 N232 1.382 . S
C235 N233 1.371 . S
C235 C238 1.480 . S
C236 N233 1.372 . S
C236 N234 1.361 . S
C236 C244 1.457 . S
C237 N232 1.363 . S
C237 N234 1.377 . S
C237 C250 1.479 . S
C238 C235 1.480 . S
C238 C239 1.383 . S
C238 C243 1.385 . S
C239 H220 0.947 . S
C239 C238 1.383 . S
C239 C240 1.388 . S
C240 H221 0.946 . S
C240 C239 1.388 . S
C240 C241 1.384 . S
C241 C240 1.384 . S
C241 C242 1.377 . S
C242 H222 0.953 . S
C242 C241 1.377 . S
C242 C243 1.369 . S
C243 H223 0.945 . S
C243 C238 1.385 . S
C243 C242 1.369 . S
C244 C236 1.457 . S
C244 C245 1.372 . S
C244 C249 1.364 . S
C245 H224 0.952 . S
C245 C244 1.372 . S
C245 C246 1.389 . S
C246 H225 0.949 . S
C246 C245 1.389 . S
C246 C247 1.387 . S
C247 C246 1.387 . S
C247 C248 1.372 . S
C248 H226 0.950 . S
C248 C247 1.372 . S
C248 C249 1.379 . S
C249 H227 0.948 . S
C249 C244 1.364 . S
C249 C248 1.379 . S
C250 C219 1.383 . S
C250 C237 1.479 . S
C250 C251 1.398 . S
C251 C216 1.382 . S
C251 H228 0.951 . S
C251 C250 1.398 . S
C252 C253 1.384 . S
C252 H265 0.947 . S
C252 C287 1.382 . S
C253 C252 1.384 . S
C253 C254 1.378 . S
C254 C253 1.378 . S
C254 C255 1.378 . S
C254 H266 0.952 . S
C255 C254 1.378 . S
C255 H267 0.950 . S
C255 C286 1.383 . S
H256 C275 0.947 . S
H257 C276 0.946 . S
H258 C278 0.953 . S
H259 C279 0.945 . S
H260 C281 0.952 . S
H261 C282 0.949 . S
H262 C284 0.950 . S
H263 C285 0.948 . S
H264 C287 0.951 . S
H265 C252 0.947 . S
H266 C254 0.952 . S
H267 C255 0.950 . S
N268 C271 1.382 . S
N268 C273 1.363 . S
N269 C271 1.371 . S
N269 C272 1.372 . S
N270 C272 1.361 . S
N270 C273 1.377 . S
C271 N268 1.382 . S
C271 N269 1.371 . S
C271 C274 1.480 . S
C272 N269 1.372 . S
C272 N270 1.361 . S
C272 C280 1.457 . S
C273 N268 1.363 . S
C273 N270 1.377 . S
C273 C286 1.479 . S
C274 C271 1.480 . S
C274 C275 1.383 . S
C274 C279 1.385 . S
C275 H256 0.947 . S
C275 C274 1.383 . S
C275 C276 1.388 . S
C276 H257 0.946 . S
C276 C275 1.388 . S
C276 C277 1.384 . S
C277 C276 1.384 . S
C277 C278 1.377 . S
C278 H258 0.953 . S
C278 C277 1.377 . S
C278 C279 1.369 . S
C279 H259 0.945 . S
C279 C274 1.385 . S
C279 C278 1.369 . S
C280 C272 1.457 . S
C280 C281 1.372 . S
C280 C285 1.364 . S
C281 H260 0.952 . S
C281 C280 1.372 . S
C281 C282 1.389 . S
C282 H261 0.949 . S
C282 C281 1.389 . S
C282 C283 1.387 . S
C283 C282 1.387 . S
C283 C284 1.372 . S
C284 H262 0.950 . S
C284 C283 1.372 . S
C284 C285 1.379 . S
C285 H263 0.948 . S
C285 C280 1.364 . S
C285 C284 1.379 . S
C286 C255 1.383 . S
C286 C273 1.479 . S
C286 C287 1.398 . S
C287 C252 1.382 . S
C287 H264 0.951 . S
C287 C286 1.398 . S
C288 O304 1.251 . S
C288 O306 1.254 1_545 S
N289 C290 1.333 . S
N289 C294 1.307 . S
N289 Zn295 2.020 . S
C290 N289 1.333 . S
C290 C291 1.379 . S
C290 H308 0.952 . S
C291 C290 1.379 . S
C291 C292 1.390 . S
C291 H318 0.949 . S
C292 C291 1.390 . S
C292 C293 1.357 . S
C293 C292 1.357 . S
C293 C294 1.370 . S
C293 H319 0.950 . S
C294 N289 1.307 . S
C294 C293 1.370 . S
C294 H312 0.948 1_455 S
Zn295 N289 2.020 . S
Zn295 O304 2.039 . S
Zn295 O310 2.034 . S
Zn295 O314 2.025 1_455 S
Zn295 O316 2.024 1_455 S
C296 O315 1.246 1_545 S
C296 O316 1.249 . S
N297 C298 1.307 . S
N297 C299 1.333 . S
N297 Zn303 2.020 . S
C298 N297 1.307 . S
C298 C302 1.370 . S
C298 H309 0.948 1_655 S
C299 N297 1.333 . S
C299 C300 1.379 . S
C299 H307 0.952 . S
C300 C299 1.379 . S
C300 C301 1.390 . S
C300 H320 0.949 . S
C301 C300 1.390 . S
C301 C302 1.357 . S
C302 C298 1.370 . S
C302 C301 1.357 . S
C302 H321 0.967 . S
Zn303 N297 2.020 . S
Zn303 O306 2.025 1_655 S
Zn303 O311 2.024 1_655 S
Zn303 O313 2.039 . S
Zn303 O315 2.034 . S
O304 C288 1.251 . S
O304 Zn295 2.039 . S
C305 O310 1.246 1_565 S
C305 O311 1.249 . S
O306 C288 1.254 1_565 S
O306 Zn303 2.025 1_455 S
H307 C299 0.952 . S
H308 C290 0.952 . S
H309 C298 0.948 1_455 S
O310 Zn295 2.034 . S
O310 C305 1.246 1_545 S
O311 Zn303 2.024 1_455 S
O311 C305 1.249 . S
H312 C294 0.948 1_655 S
O313 Zn303 2.039 . S
O313 C317 1.251 . S
O314 Zn295 2.025 1_655 S
O314 C317 1.254 1_545 S
O315 C296 1.246 1_565 S
O315 Zn303 2.034 . S
O316 Zn295 2.024 1_655 S
O316 C296 1.249 . S
C317 O313 1.251 . S
C317 O314 1.254 1_565 S
H318 C291 0.949 . S
H319 C293 0.950 . S
H320 C300 0.949 . S
H321 C302 0.967 . S
C322 O338 1.251 1_565 S
C322 O340 1.254 . S
N323 C324 1.333 . S
N323 C328 1.307 . S
N323 Zn329 2.020 . S
C324 N323 1.333 . S
C324 C325 1.379 . S
C324 H342 0.952 . S
C325 C324 1.379 . S
C325 C326 1.390 . S
C325 H352 0.949 . S
C326 C325 1.390 . S
C326 C327 1.357 . S
C327 C326 1.357 . S
C327 C328 1.370 . S
C327 H353 0.950 . S
C328 N323 1.307 . S
C328 C327 1.370 . S
C328 H346 0.948 . S
Zn329 N323 2.020 . S
Zn329 O338 2.039 . S
Zn329 O344 2.034 1_556 S
Zn329 O348 2.025 1_556 S
Zn329 O350 2.024 . S
C330 O349 1.246 . S
C330 O350 1.249 1_565 S
N331 C332 1.307 . S
N331 C333 1.333 . S
N331 Zn337 2.020 . S
C332 N331 1.307 . S
C332 C336 1.370 . S
C332 H343 0.948 . S
C333 N331 1.333 . S
C333 C334 1.379 . S
C333 H341 0.952 . S
C334 C333 1.379 . S
C334 C335 1.390 . S
C334 H354 0.949 . S
C335 C334 1.390 . S
C335 C336 1.357 . S
C336 C332 1.370 . S
C336 C335 1.357 . S
C336 H355 0.950 . S
Zn337 N331 2.020 . S
Zn337 O340 2.025 1_554 S
Zn337 O345 2.024 . S
Zn337 O347 2.039 . S
Zn337 O349 2.034 1_554 S
O338 C322 1.251 1_545 S
O338 Zn329 2.039 . S
C339 O344 1.246 . S
C339 O345 1.249 1_545 S
O340 C322 1.254 . S
O340 Zn337 2.025 1_556 S
H341 C333 0.952 . S
H342 C324 0.952 . S
H343 C332 0.948 . S
O344 Zn329 2.034 1_554 S
O344 C339 1.246 . S
O345 Zn337 2.024 . S
O345 C339 1.249 1_565 S
H346 C328 0.948 . S
O347 Zn337 2.039 . S
O347 C351 1.251 1_565 S
O348 Zn329 2.025 1_554 S
O348 C351 1.254 . S
O349 C330 1.246 . S
O349 Zn337 2.034 1_556 S
O350 Zn329 2.024 . S
O350 C330 1.249 1_545 S
C351 O347 1.251 1_545 S
C351 O348 1.254 . S
H352 C325 0.949 . S
H353 C327 0.950 . S
H354 C334 0.949 . S
H355 C336 0.950 . S
C356 O372 1.251 . S
C356 O374 1.254 . S
N357 C358 1.333 . S
N357 C362 1.307 . S
N357 Zn363 2.020 . S
C358 N357 1.333 . S
C358 C359 1.379 . S
C358 H376 0.952 . S
C359 C358 1.379 . S
C359 C360 1.390 . S
C359 H386 0.949 . S
C360 C359 1.390 . S
C360 C361 1.357 . S
C361 C360 1.357 . S
C361 C362 1.370 . S
C361 H387 0.950 . S
C362 N357 1.307 . S
C362 C361 1.370 . S
C362 H380 0.948 . S
Zn363 N357 2.020 . S
Zn363 O372 2.039 . S
Zn363 O378 2.034 . S
Zn363 O382 2.025 . S
Zn363 O384 2.024 . S
C364 O383 1.246 . S
C364 O384 1.249 . S
N365 C366 1.307 . S
N365 C367 1.333 . S
N365 Zn371 2.020 . S
C366 N365 1.307 . S
C366 C370 1.370 . S
C366 H377 0.948 . S
C367 N365 1.333 . S
C367 C368 1.379 . S
C367 H375 0.952 . S
C368 C367 1.379 . S
C368 C369 1.390 . S
C368 H388 0.949 . S
C369 C368 1.390 . S
C369 C370 1.357 . S
C370 C366 1.370 . S
C370 C369 1.357 . S
C370 H389 0.950 . S
Zn371 N365 2.020 . S
Zn371 O374 2.025 . S
Zn371 O379 2.024 . S
Zn371 O381 2.039 . S
Zn371 O383 2.034 . S
O372 C356 1.251 . S
O372 Zn363 2.039 . S
C373 O378 1.246 . S
C373 O379 1.249 . S
O374 C356 1.254 . S
O374 Zn371 2.025 . S
H375 C367 0.952 . S
H376 C358 0.952 . S
H377 C366 0.948 . S
O378 Zn363 2.034 . S
O378 C373 1.246 . S
O379 Zn371 2.024 . S
O379 C373 1.249 . S
H380 C362 0.948 . S
O381 Zn371 2.039 . S
O381 C385 1.251 . S
O382 Zn363 2.025 . S
O382 C385 1.254 . S
O383 C364 1.246 . S
O383 Zn371 2.034 . S
O384 Zn363 2.024 . S
O384 C364 1.249 . S
C385 O381 1.251 . S
C385 O382 1.254 . S
H386 C359 0.949 . S
H387 C361 0.950 . S
H388 C368 0.949 . S
H389 C370 0.950 . S
C390 O406 1.251 1_556 S
C390 O408 1.254 . S
N391 C392 1.333 . S
N391 C396 1.307 . S
N391 Zn397 2.020 . S
C392 N391 1.333 . S
C392 C393 1.379 . S
C392 H410 0.952 . S
C393 C392 1.379 . S
C393 C394 1.390 . S
C393 H420 0.949 . S
C394 C393 1.390 . S
C394 C395 1.357 . S
C395 C394 1.357 . S
C395 C396 1.370 . S
C395 H421 0.950 . S
C396 N391 1.307 . S
C396 C395 1.370 . S
C396 H414 0.948 . S
Zn397 N391 2.020 . S
Zn397 O406 2.039 . S
Zn397 O412 2.034 1_655 S
Zn397 O416 2.025 1_655 S
Zn397 O418 2.024 . S
C398 O417 1.246 . S
C398 O418 1.249 1_556 S
N399 C400 1.307 . S
N399 C401 1.333 . S
N399 Zn405 2.020 . S
C400 N399 1.307 . S
C400 C404 1.370 . S
C400 H411 0.948 . S
C401 N399 1.333 . S
C401 C402 1.379 . S
C401 H409 0.952 . S
C402 C401 1.379 . S
C402 C403 1.390 . S
C402 H422 0.949 . S
C403 C402 1.390 . S
C403 C404 1.357 . S
C404 C400 1.370 . S
C404 C403 1.357 . S
C404 H423 0.950 . S
Zn405 N399 2.020 . S
Zn405 O408 2.025 1_455 S
Zn405 O413 2.024 . S
Zn405 O415 2.039 . S
Zn405 O417 2.034 1_455 S
O406 C390 1.251 1_554 S
O406 Zn397 2.039 . S
C407 O412 1.246 . S
C407 O413 1.249 1_554 S
O408 C390 1.254 . S
O408 Zn405 2.025 1_655 S
H409 C401 0.952 . S
H410 C392 0.952 . S
H411 C400 0.948 . S
O412 Zn397 2.034 1_455 S
O412 C407 1.246 . S
O413 Zn405 2.024 . S
O413 C407 1.249 1_556 S
H414 C396 0.948 . S
O415 Zn405 2.039 . S
O415 C419 1.251 1_556 S
O416 Zn397 2.025 1_455 S
O416 C419 1.254 . S
O417 C398 1.246 . S
O417 Zn405 2.034 1_655 S
O418 Zn397 2.024 . S
O418 C398 1.249 1_554 S
C419 O415 1.251 1_554 S
C419 O416 1.254 . S
H420 C393 0.949 . S
H421 C395 0.950 . S
H422 C402 0.949 . S
H423 C404 0.950 . S
H424 C430 0.930 . S
H425 C434 0.930 1_565 S
H426 C439 0.929 . S
H427 C437 0.929 . S
H428 C432 0.929 . S
H429 C438 0.929 . S
C430 H424 0.930 . S
C430 C431 1.367 . S
C430 C438 1.378 . S
C431 C430 1.367 . S
C431 C439 1.433 . S
C432 H428 0.929 . S
C432 C434 1.378 . S
C432 C436 1.350 . S
C433 C436 1.463 . S
C433 C438 1.350 . S
C433 N441 1.427 . S
C434 H425 0.930 1_545 S
C434 C432 1.378 . S
C434 C435 1.367 . S
C435 C434 1.367 . S
C435 C437 1.433 . S
C436 C432 1.350 . S
C436 C433 1.463 . S
C436 N440 1.427 . S
C437 H427 0.929 . S
C437 C435 1.433 . S
C437 N440 1.384 . S
C438 H429 0.929 . S
C438 C430 1.378 . S
C438 C433 1.350 . S
C439 H426 0.929 . S
C439 C431 1.433 . S
C439 N441 1.384 . S
N440 C436 1.427 . S
N440 C437 1.384 . S
N441 C433 1.427 . S
N441 C439 1.384 . S
H442 C448 0.930 . S
H443 C452 0.930 . S
H444 C457 0.929 . S
H445 C455 0.929 1_545 S
H446 C450 0.929 . S
H447 C456 0.929 . S
C448 H442 0.930 . S
C448 C449 1.367 . S
C448 C456 1.378 . S
C449 C448 1.367 . S
C449 C457 1.433 . S
C450 H446 0.929 . S
C450 C452 1.378 . S
C450 C454 1.350 . S
C451 C454 1.463 . S
C451 C456 1.350 . S
C451 N459 1.427 . S
C452 H443 0.930 . S
C452 C450 1.378 . S
C452 C453 1.367 . S
C453 C452 1.367 . S
C453 C455 1.433 . S
C454 C450 1.350 . S
C454 C451 1.463 . S
C454 N458 1.427 . S
C455 H445 0.929 1_565 S
C455 C453 1.433 . S
C455 N458 1.384 . S
C456 H447 0.929 . S
C456 C448 1.378 . S
C456 C451 1.350 . S
C457 H444 0.929 . S
C457 C449 1.433 . S
C457 N459 1.384 . S
N458 C454 1.427 . S
N458 C455 1.384 . S
N459 C451 1.427 . S
N459 C457 1.384 . S
H460 C466 0.930 . S
H461 C470 0.930 . S
H462 C475 0.929 . S
H463 C473 0.929 . S
H464 C468 0.929 . S
H465 C474 0.929 . S
C466 H460 0.930 . S
C466 C467 1.367 . S
C466 C474 1.378 . S
C467 C466 1.367 . S
C467 C475 1.433 . S
C468 H464 0.929 . S
C468 C470 1.378 . S
C468 C472 1.350 . S
C469 C472 1.463 . S
C469 C474 1.350 . S
C469 N477 1.427 . S
C470 H461 0.930 . S
C470 C468 1.378 . S
C470 C471 1.367 . S
C471 C470 1.367 . S
C471 C473 1.433 . S
C472 C468 1.350 . S
C472 C469 1.463 . S
C472 N476 1.427 . S
C473 H463 0.929 . S
C473 C471 1.433 . S
C473 N476 1.384 . S
C474 H465 0.929 . S
C474 C466 1.378 . S
C474 C469 1.350 . S
C475 H462 0.929 . S
C475 C467 1.433 . S
C475 N477 1.384 . S
N476 C472 1.427 . S
N476 C473 1.384 . S
N477 C469 1.427 . S
N477 C475 1.384 . S
H478 C484 0.930 . S
H479 C488 0.930 . S
H480 C493 0.929 . S
H481 C491 0.929 . S
H482 C486 0.929 . S
H483 C492 0.929 . S
C484 H478 0.930 . S
C484 C485 1.367 . S
C484 C492 1.378 . S
C485 C484 1.367 . S
C485 C493 1.433 . S
C486 H482 0.929 . S
C486 C488 1.378 . S
C486 C490 1.350 . S
C487 C490 1.463 . S
C487 C492 1.350 . S
C487 N495 1.427 . S
C488 H479 0.930 . S
C488 C486 1.378 . S
C488 C489 1.367 . S
C489 C488 1.367 . S
C489 C491 1.433 . S
C490 C486 1.350 . S
C490 C487 1.463 . S
C490 N494 1.427 . S
C491 H481 0.929 . S
C491 C489 1.433 . S
C491 N494 1.384 . S
C492 H483 0.929 . S
C492 C484 1.378 . S
C492 C487 1.350 . S
C493 H480 0.929 . S
C493 C485 1.433 . S
C493 N495 1.384 . S
N494 C490 1.427 . S
N494 C491 1.384 . S
N495 C487 1.427 . S
N495 C493 1.384 . S
H496 C502 0.930 . S
H497 C506 0.930 . S
H498 C511 0.929 . S
H499 C509 0.929 1_565 S
H500 C504 0.929 . S
H501 C510 0.929 . S
C502 H496 0.930 . S
C502 C503 1.367 . S
C502 C510 1.378 . S
C503 C502 1.367 . S
C503 C511 1.433 . S
C504 H500 0.929 . S
C504 C506 1.378 . S
C504 C508 1.350 . S
C505 C508 1.463 . S
C505 C510 1.350 . S
C505 N513 1.427 . S
C506 H497 0.930 . S
C506 C504 1.378 . S
C506 C507 1.367 . S
C507 C506 1.367 . S
C507 C509 1.433 . S
C508 C504 1.350 . S
C508 C505 1.463 . S
C508 N512 1.427 . S
C509 H499 0.929 1_545 S
C509 C507 1.433 . S
C509 N512 1.384 . S
C510 H501 0.929 . S
C510 C502 1.378 . S
C510 C505 1.350 . S
C511 H498 0.929 . S
C511 C503 1.433 . S
C511 N513 1.384 . S
N512 C508 1.427 . S
N512 C509 1.384 . S
N513 C505 1.427 . S
N513 C511 1.384 . S
H514 C520 0.930 . S
H515 C524 0.930 . S
H516 C529 0.929 . S
H517 C527 0.929 . S
H518 C522 0.929 . S
H519 C528 0.929 . S
C520 H514 0.930 . S
C520 C521 1.367 . S
C520 C528 1.378 . S
C521 C520 1.367 . S
C521 C529 1.433 . S
C522 H518 0.929 . S
C522 C524 1.378 . S
C522 C526 1.350 . S
C523 C526 1.463 . S
C523 C528 1.350 . S
C523 N531 1.427 . S
C524 H515 0.930 . S
C524 C522 1.378 . S
C524 C525 1.367 . S
C525 C524 1.367 . S
C525 C527 1.433 . S
C526 C522 1.350 . S
C526 C523 1.463 . S
C526 N530 1.427 . S
C527 H517 0.929 . S
C527 C525 1.433 . S
C527 N530 1.384 . S
C528 H519 0.929 . S
C528 C520 1.378 . S
C528 C523 1.350 . S
C529 H516 0.929 . S
C529 C521 1.433 . S
C529 N531 1.384 . S
N530 C526 1.427 . S
N530 C527 1.384 . S
N531 C523 1.427 . S
N531 C529 1.384 . S
H532 C538 0.930 . S
H533 C542 0.930 1_554 S
H534 C547 0.929 . S
H535 C545 0.929 . S
H536 C540 0.929 . S
H537 C546 0.929 . S
C538 H532 0.930 . S
C538 C539 1.367 . S
C538 C546 1.378 . S
C539 C538 1.367 . S
C539 C547 1.433 . S
C540 H536 0.929 . S
C540 C542 1.378 . S
C540 C544 1.350 . S
C541 C544 1.463 . S
C541 C546 1.350 . S
C541 N549 1.427 . S
C542 H533 0.930 1_556 S
C542 C540 1.378 . S
C542 C543 1.367 . S
C543 C542 1.367 . S
C543 C545 1.433 . S
C544 C540 1.350 . S
C544 C541 1.463 . S
C544 N548 1.427 . S
C545 H535 0.929 . S
C545 C543 1.433 . S
C545 N548 1.384 . S
C546 H537 0.929 . S
C546 C538 1.378 . S
C546 C541 1.350 . S
C547 H534 0.929 . S
C547 C539 1.433 . S
C547 N549 1.384 . S
N548 C544 1.427 . S
N548 C545 1.384 . S
N549 C541 1.427 . S
N549 C547 1.384 . S
H550 C556 0.930 . S
H551 C560 0.930 . S
H552 C565 0.929 . S
H553 C563 0.929 . S
H554 C558 0.929 . S
H555 C564 0.929 . S
C556 H550 0.930 . S
C556 C557 1.367 . S
C556 C564 1.378 . S
C557 C556 1.367 . S
C557 C565 1.433 . S
C558 H554 0.929 . S
C558 C560 1.378 . S
C558 C562 1.350 . S
C559 C562 1.463 . S
C559 C564 1.350 . S
C559 N567 1.427 . S
C560 H551 0.930 . S
C560 C558 1.378 . S
C560 C561 1.367 . S
C561 C560 1.367 . S
C561 C563 1.433 . S
C562 C558 1.350 . S
C562 C559 1.463 . S
C562 N566 1.427 . S
C563 H553 0.929 . S
C563 C561 1.433 . S
C563 N566 1.384 . S
C564 H555 0.929 . S
C564 C556 1.378 . S
C564 C559 1.350 . S
C565 H552 0.929 . S
C565 C557 1.433 . S
C565 N567 1.384 . S
N566 C562 1.427 . S
N566 C563 1.384 . S
N567 C559 1.427 . S
N567 C565 1.384 . S
H568 C574 0.930 . S
H569 C578 0.930 . S
H570 C583 0.929 . S
H571 C581 0.929 . S
H572 C576 0.929 . S
H573 C582 0.929 . S
C574 H568 0.930 . S
C574 C575 1.367 . S
C574 C582 1.378 . S
C575 C574 1.367 . S
C575 C583 1.433 . S
C576 H572 0.929 . S
C576 C578 1.378 . S
C576 C580 1.350 . S
C577 C580 1.463 . S
C577 C582 1.350 . S
C577 N585 1.427 . S
C578 H569 0.930 . S
C578 C576 1.378 . S
C578 C579 1.367 . S
C579 C578 1.367 . S
C579 C581 1.433 . S
C580 C576 1.350 . S
C580 C577 1.463 . S
C580 N584 1.427 . S
C581 H571 0.929 . S
C581 C579 1.433 . S
C581 N584 1.384 . S
C582 H573 0.929 . S
C582 C574 1.378 . S
C582 C577 1.350 . S
C583 H570 0.929 . S
C583 C575 1.433 . S
C583 N585 1.384 . S
N584 C580 1.427 . S
N584 C581 1.384 . S
N585 C577 1.427 . S
N585 C583 1.384 . S
H586 C592 0.930 . S
H587 C596 0.930 . S
H588 C601 0.929 . S
H589 C599 0.929 . S
H590 C594 0.929 . S
H591 C600 0.929 . S
C592 H586 0.930 . S
C592 C593 1.367 . S
C592 C600 1.378 . S
C593 C592 1.367 . S
C593 C601 1.433 . S
C594 H590 0.929 . S
C594 C596 1.378 . S
C594 C598 1.350 . S
C595 C598 1.463 . S
C595 C600 1.350 . S
C595 N603 1.427 . S
C596 H587 0.930 . S
C596 C594 1.378 . S
C596 C597 1.367 . S
C597 C596 1.367 . S
C597 C599 1.433 . S
C598 C594 1.350 . S
C598 C595 1.463 . S
C598 N602 1.427 . S
C599 H589 0.929 . S
C599 C597 1.433 . S
C599 N602 1.384 . S
C600 H591 0.929 . S
C600 C592 1.378 . S
C600 C595 1.350 . S
C601 H588 0.929 . S
C601 C593 1.433 . S
C601 N603 1.384 . S
N602 C598 1.427 . S
N602 C599 1.384 . S
N603 C595 1.427 . S
N603 C601 1.384 . S
H604 C610 0.930 . S
H605 C614 0.930 . S
H606 C619 0.929 . S
H607 C617 0.929 . S
H608 C612 0.929 . S
H609 C618 0.929 . S
C610 H604 0.930 . S
C610 C611 1.367 . S
C610 C618 1.378 . S
C611 C610 1.367 . S
C611 C619 1.433 . S
C612 H608 0.929 . S
C612 C614 1.378 . S
C612 C616 1.350 . S
C613 C616 1.463 . S
C613 C618 1.350 . S
C613 N621 1.427 . S
C614 H605 0.930 . S
C614 C612 1.378 . S
C614 C615 1.367 . S
C615 C614 1.367 . S
C615 C617 1.433 . S
C616 C612 1.350 . S
C616 C613 1.463 . S
C616 N620 1.427 . S
C617 H607 0.929 . S
C617 C615 1.433 . S
C617 N620 1.384 . S
C618 H609 0.929 . S
C618 C610 1.378 . S
C618 C613 1.350 . S
C619 H606 0.929 . S
C619 C611 1.433 . S
C619 N621 1.384 . S
N620 C616 1.427 . S
N620 C617 1.384 . S
N621 C613 1.427 . S
N621 C619 1.384 . S
H622 C628 0.930 . S
H623 C632 0.930 . S
H624 C637 0.929 . S
H625 C635 0.929 . S
H626 C630 0.929 . S
H627 C636 0.929 . S
C628 H622 0.930 . S
C628 C629 1.367 . S
C628 C636 1.378 . S
C629 C628 1.367 . S
C629 C637 1.433 . S
C630 H626 0.929 . S
C630 C632 1.378 . S
C630 C634 1.350 . S
C631 C634 1.463 . S
C631 C636 1.350 . S
C631 N639 1.427 . S
C632 H623 0.930 . S
C632 C630 1.378 . S
C632 C633 1.367 . S
C633 C632 1.367 . S
C633 C635 1.433 . S
C634 C630 1.350 . S
C634 C631 1.463 . S
C634 N638 1.427 . S
C635 H625 0.929 . S
C635 C633 1.433 . S
C635 N638 1.384 . S
C636 H627 0.929 . S
C636 C628 1.378 . S
C636 C631 1.350 . S
C637 H624 0.929 . S
C637 C629 1.433 . S
C637 N639 1.384 . S
N638 C634 1.427 . S
N638 C635 1.384 . S
N639 C631 1.427 . S
N639 C637 1.384 . S
H640 C646 0.930 . S
H641 C650 0.930 1_545 S
H642 C655 0.929 . S
H643 C653 0.929 . S
H644 C648 0.929 . S
H645 C654 0.929 . S
C646 H640 0.930 . S
C646 C647 1.367 . S
C646 C654 1.378 . S
C647 C646 1.367 . S
C647 C655 1.433 . S
C648 H644 0.929 . S
C648 C650 1.378 . S
C648 C652 1.350 . S
C649 C652 1.463 . S
C649 C654 1.350 . S
C649 N657 1.427 . S
C650 H641 0.930 1_565 S
C650 C648 1.378 . S
C650 C651 1.367 . S
C651 C650 1.367 . S
C651 C653 1.433 . S
C652 C648 1.350 . S
C652 C649 1.463 . S
C652 N656 1.427 . S
C653 H643 0.929 . S
C653 C651 1.433 . S
C653 N656 1.384 . S
C654 H645 0.929 . S
C654 C646 1.378 . S
C654 C649 1.350 . S
C655 H642 0.929 . S
C655 C647 1.433 . S
C655 N657 1.384 . S
N656 C652 1.427 . S
N656 C653 1.384 . S
N657 C649 1.427 . S
N657 C655 1.384 . S
H658 C664 0.930 . S
H659 C668 0.930 1_565 S
H660 C673 0.929 . S
H661 C671 0.929 . S
H662 C666 0.929 . S
H663 C672 0.929 . S
C664 H658 0.930 . S
C664 C665 1.367 . S
C664 C672 1.378 . S
C665 C664 1.367 . S
C665 C673 1.433 . S
C666 H662 0.929 . S
C666 C668 1.378 . S
C666 C670 1.350 . S
C667 C670 1.463 . S
C667 C672 1.350 . S
C667 N675 1.427 . S
C668 H659 0.930 1_545 S
C668 C666 1.378 . S
C668 C669 1.367 . S
C669 C668 1.367 . S
C669 C671 1.433 . S
C670 C666 1.350 . S
C670 C667 1.463 . S
C670 N674 1.427 . S
C671 H661 0.929 . S
C671 C669 1.433 . S
C671 N674 1.384 . S
C672 H663 0.929 . S
C672 C664 1.378 . S
C672 C667 1.350 . S
C673 H660 0.929 . S
C673 C665 1.433 . S
C673 N675 1.384 . S
N674 C670 1.427 . S
N674 C671 1.384 . S
N675 C667 1.427 . S
N675 C673 1.384 . S
H676 C682 0.930 . S
H677 C686 0.930 . S
H678 C691 0.929 . S
H679 C689 0.929 . S
H680 C684 0.929 . S
H681 C690 0.929 . S
C682 H676 0.930 . S
C682 C683 1.367 . S
C682 C690 1.378 . S
C683 C682 1.367 . S
C683 C691 1.433 . S
C684 H680 0.929 . S
C684 C686 1.378 . S
C684 C688 1.350 . S
C685 C688 1.463 . S
C685 C690 1.350 . S
C685 N693 1.427 . S
C686 H677 0.930 . S
C686 C684 1.378 . S
C686 C687 1.367 . S
C687 C686 1.367 . S
C687 C689 1.433 . S
C688 C684 1.350 . S
C688 C685 1.463 . S
C688 N692 1.427 . S
C689 H679 0.929 . S
C689 C687 1.433 . S
C689 N692 1.384 . S
C690 H681 0.929 . S
C690 C682 1.378 . S
C690 C685 1.350 . S
C691 H678 0.929 . S
C691 C683 1.433 . S
C691 N693 1.384 . S
N692 C688 1.427 . S
N692 C689 1.384 . S
N693 C685 1.427 . S
N693 C691 1.384 . S
H694 C700 0.930 . S
H695 C704 0.930 . S
H696 C709 0.929 . S
H697 C707 0.929 . S
H698 C702 0.929 . S
H699 C708 0.929 . S
C700 H694 0.930 . S
C700 C701 1.367 . S
C700 C708 1.378 . S
C701 C700 1.367 . S
C701 C709 1.433 . S
C702 H698 0.929 . S
C702 C704 1.378 . S
C702 C706 1.350 . S
C703 C706 1.463 . S
C703 C708 1.350 . S
C703 N711 1.427 . S
C704 H695 0.930 . S
C704 C702 1.378 . S
C704 C705 1.367 . S
C705 C704 1.367 . S
C705 C707 1.433 . S
C706 C702 1.350 . S
C706 C703 1.463 . S
C706 N710 1.427 . S
C707 H697 0.929 . S
C707 C705 1.433 . S
C707 N710 1.384 . S
C708 H699 0.929 . S
C708 C700 1.378 . S
C708 C703 1.350 . S
C709 H696 0.929 . S
C709 C701 1.433 . S
C709 N711 1.384 . S
N710 C706 1.427 . S
N710 C707 1.384 . S
N711 C703 1.427 . S
N711 C709 1.384 . S
H712 C718 0.930 . S
H713 C722 0.930 1_554 S
H714 C727 0.929 . S
H715 C725 0.929 1_545 S
H716 C720 0.929 . S
H717 C726 0.929 . S
C718 H712 0.930 . S
C718 C719 1.367 . S
C718 C726 1.378 . S
C719 C718 1.367 . S
C719 C727 1.433 . S
C720 H716 0.929 . S
C720 C722 1.378 . S
C720 C724 1.350 . S
C721 C724 1.463 . S
C721 C726 1.350 . S
C721 N729 1.427 . S
C722 H713 0.930 1_556 S
C722 C720 1.378 . S
C722 C723 1.367 . S
C723 C722 1.367 . S
C723 C725 1.433 . S
C724 C720 1.350 . S
C724 C721 1.463 . S
C724 N728 1.427 . S
C725 H715 0.929 1_565 S
C725 C723 1.433 . S
C725 N728 1.384 . S
C726 H717 0.929 . S
C726 C718 1.378 . S
C726 C721 1.350 . S
C727 H714 0.929 . S
C727 C719 1.433 . S
C727 N729 1.384 . S
N728 C724 1.427 . S
N728 C725 1.384 . S
N729 C721 1.427 . S
N729 C727 1.384 . S
H730 C736 0.930 . S
H731 C740 0.930 . S
H732 C745 0.929 . S
H733 C743 0.929 . S
H734 C738 0.929 . S
H735 C744 0.929 . S
C736 H730 0.930 . S
C736 C737 1.367 . S
C736 C744 1.378 . S
C737 C736 1.367 . S
C737 C745 1.433 . S
C738 H734 0.929 . S
C738 C740 1.378 . S
C738 C742 1.350 . S
C739 C742 1.463 . S
C739 C744 1.350 . S
C739 N747 1.427 . S
C740 H731 0.930 . S
C740 C738 1.378 . S
C740 C741 1.367 . S
C741 C740 1.367 . S
C741 C743 1.433 . S
C742 C738 1.350 . S
C742 C739 1.463 . S
C742 N746 1.427 . S
C743 H733 0.929 . S
C743 C741 1.433 . S
C743 N746 1.384 . S
C744 H735 0.929 . S
C744 C736 1.378 . S
C744 C739 1.350 . S
C745 H732 0.929 . S
C745 C737 1.433 . S
C745 N747 1.384 . S
N746 C742 1.427 . S
N746 C743 1.384 . S
N747 C739 1.427 . S
N747 C745 1.384 . S
H748 C754 0.930 . S
H749 C758 0.930 . S
H750 C763 0.929 . S
H751 C761 0.929 . S
H752 C756 0.929 . S
H753 C762 0.929 . S
C754 H748 0.930 . S
C754 C755 1.367 . S
C754 C762 1.378 . S
C755 C754 1.367 . S
C755 C763 1.433 . S
C756 H752 0.929 . S
C756 C758 1.378 . S
C756 C760 1.350 . S
C757 C760 1.463 . S
C757 C762 1.350 . S
C757 N765 1.427 . S
C758 H749 0.930 . S
C758 C756 1.378 . S
C758 C759 1.367 . S
C759 C758 1.367 . S
C759 C761 1.433 . S
C760 C756 1.350 . S
C760 C757 1.463 . S
C760 N764 1.427 . S
C761 H751 0.929 . S
C761 C759 1.433 . S
C761 N764 1.384 . S
C762 H753 0.929 . S
C762 C754 1.378 . S
C762 C757 1.350 . S
C763 H750 0.929 . S
C763 C755 1.433 . S
C763 N765 1.384 . S
N764 C760 1.427 . S
N764 C761 1.384 . S
N765 C757 1.427 . S
N765 C763 1.384 . S
H766 C772 0.930 . S
H767 C776 0.930 . S
H768 C781 0.929 . S
H769 C779 0.929 . S
H770 C774 0.929 . S
H771 C780 0.929 . S
C772 H766 0.930 . S
C772 C773 1.367 . S
C772 C780 1.378 . S
C773 C772 1.367 . S
C773 C781 1.433 . S
C774 H770 0.929 . S
C774 C776 1.378 . S
C774 C778 1.350 . S
C775 C778 1.463 . S
C775 C780 1.350 . S
C775 N783 1.427 . S
C776 H767 0.930 . S
C776 C774 1.378 . S
C776 C777 1.367 . S
C777 C776 1.367 . S
C777 C779 1.433 . S
C778 C774 1.350 . S
C778 C775 1.463 . S
C778 N782 1.427 . S
C779 H769 0.929 . S
C779 C777 1.433 . S
C779 N782 1.384 . S
C780 H771 0.929 . S
C780 C772 1.378 . S
C780 C775 1.350 . S
C781 H768 0.929 . S
C781 C773 1.433 . S
C781 N783 1.384 . S
N782 C778 1.427 . S
N782 C779 1.384 . S
N783 C775 1.427 . S
N783 C781 1.384 . S
H784 C790 0.930 . S
H785 C794 0.930 . S
H786 C799 0.929 . S
H787 C797 0.929 1_455 S
H788 C792 0.929 . S
H789 C798 0.929 . S
C790 H784 0.930 . S
C790 C791 1.367 . S
C790 C798 1.378 . S
C791 C790 1.367 . S
C791 C799 1.433 . S
C792 H788 0.929 . S
C792 C794 1.378 . S
C792 C796 1.350 . S
C793 C796 1.463 . S
C793 C798 1.350 . S
C793 N801 1.427 . S
C794 H785 0.930 . S
C794 C792 1.378 . S
C794 C795 1.367 . S
C795 C794 1.367 . S
C795 C797 1.433 . S
C796 C792 1.350 . S
C796 C793 1.463 . S
C796 N800 1.427 . S
C797 H787 0.929 1_655 S
C797 C795 1.433 . S
C797 N800 1.384 . S
C798 H789 0.929 . S
C798 C790 1.378 . S
C798 C793 1.350 . S
C799 H786 0.929 . S
C799 C791 1.433 . S
C799 N801 1.384 . S
N800 C796 1.427 . S
N800 C797 1.384 . S
N801 C793 1.427 . S
N801 C799 1.384 . S
H802 C808 0.930 . S
H803 C812 0.930 . S
H804 C817 0.929 . S
H805 C815 0.929 . S
H806 C810 0.929 . S
H807 C816 0.929 . S
C808 H802 0.930 . S
C808 C809 1.367 . S
C808 C816 1.378 . S
C809 C808 1.367 . S
C809 C817 1.433 . S
C810 H806 0.929 . S
C810 C812 1.378 . S
C810 C814 1.350 . S
C811 C814 1.463 . S
C811 C816 1.350 . S
C811 N819 1.427 . S
C812 H803 0.930 . S
C812 C810 1.378 . S
C812 C813 1.367 . S
C813 C812 1.367 . S
C813 C815 1.433 . S
C814 C810 1.350 . S
C814 C811 1.463 . S
C814 N818 1.427 . S
C815 H805 0.929 . S
C815 C813 1.433 . S
C815 N818 1.384 . S
C816 H807 0.929 . S
C816 C808 1.378 . S
C816 C811 1.350 . S
C817 H804 0.929 . S
C817 C809 1.433 . S
C817 N819 1.384 . S
N818 C814 1.427 . S
N818 C815 1.384 . S
N819 C811 1.427 . S
N819 C817 1.384 . S
H820 C826 0.930 . S
H821 C830 0.930 . S
H822 C835 0.929 . S
H823 C833 0.942 . S
H824 C828 0.929 . S
H825 C834 0.929 . S
C826 H820 0.930 . S
C826 C827 1.367 . S
C826 C834 1.378 . S
C827 C826 1.367 . S
C827 C835 1.433 . S
C828 H824 0.929 . S
C828 C830 1.378 . S
C828 C832 1.350 . S
C829 C832 1.463 . S
C829 C834 1.350 . S
C829 N837 1.427 . S
C830 H821 0.930 . S
C830 C828 1.378 . S
C830 C831 1.367 . S
C831 C830 1.367 . S
C831 C833 1.433 . S
C832 C828 1.350 . S
C832 C829 1.463 . S
C832 N836 1.427 . S
C833 H823 0.942 . S
C833 C831 1.433 . S
C833 N836 1.384 . S
C834 H825 0.929 . S
C834 C826 1.378 . S
C834 C829 1.350 . S
C835 H822 0.929 . S
C835 C827 1.433 . S
C835 N837 1.384 . S
N836 C832 1.427 . S
N836 C833 1.384 . S
N837 C829 1.427 . S
N837 C835 1.384 . S
H838 C844 0.930 . S
H839 C848 0.930 . S
H840 C853 0.929 . S
H841 C851 0.929 . S
H842 C846 0.929 . S
H843 C852 0.929 . S
C844 H838 0.930 . S
C844 C845 1.367 . S
C844 C852 1.378 . S
C845 C844 1.367 . S
C845 C853 1.433 . S
C846 H842 0.929 . S
C846 C848 1.378 . S
C846 C850 1.350 . S
C847 C850 1.463 . S
C847 C852 1.350 . S
C847 N855 1.427 . S
C848 H839 0.930 . S
C848 C846 1.378 . S
C848 C849 1.367 . S
C849 C848 1.367 . S
C849 C851 1.433 . S
C850 C846 1.350 . S
C850 C847 1.463 . S
C850 N854 1.427 . S
C851 H841 0.929 . S
C851 C849 1.433 . S
C851 N854 1.384 . S
C852 H843 0.929 . S
C852 C844 1.378 . S
C852 C847 1.350 . S
C853 H840 0.929 . S
C853 C845 1.433 . S
C853 N855 1.384 . S
N854 C850 1.427 . S
N854 C851 1.384 . S
N855 C847 1.427 . S
N855 C853 1.384 . S
C431 C1 2.298 . S
C435 C288 2.333 . S
C449 C67 2.273 . S
C453 C330 2.310 . S
C471 C360 1.011 . S
C467 C97 0.996 . S
C485 C133 1.080 . S
C489 C394 1.076 . S
C507 C351 1.877 . S
C503 C25 1.839 . S
C525 C305 1.873 . S
C521 C37 1.842 . S
C543 C398 1.382 . S
C539 C103 1.333 . S
C561 C364 1.434 . S
C557 C109 1.420 . S
C575 C31 2.194 . S
C579 C419 2.232 . S
C597 C326 1.149 . S
C593 C73 1.122 . S
C611 C139 1.166 . S
C615 C301 1.174 . S
C629 C61 2.155 . S
C633 C385 2.195 . S
C651 C317 2.344 . S
C647 C175 2.339 . S
C665 C181 2.258 . S
C669 C339 2.294 . S
C683 C247 1.030 . S
C687 C369 1.027 . S
C701 C277 1.078 . S
C705 C403 1.070 . S
C719 C145 1.866 . S
C723 C322 1.873 . S
C741 C296 1.876 . S
C737 C211 1.844 . S
C759 C407 1.365 . S
C755 C217 1.360 . S
C777 C373 1.454 . S
C773 C283 1.449 . S
C791 C169 2.229 . S
C795 C390 2.227 . S
C813 C335 1.142 . S
C809 C241 1.141 . S
C831 C292 1.168 . S
C827 C253 1.152 . S
C845 C205 2.158 . S
C849 C356 2.202 . S
