# Generated by pormake.
# Topology zzz, (3,6)-cn, num edge types: 1
# Building blocks:
#     Node 0, Type 0, BuildingBlock: BETDAH_clean_linker_0, # of connection points: 3
#     Node 1, Type 0, BuildingBlock: BETDAH_clean_linker_0, # of connection points: 3
#     Node 2, Type 0, BuildingBlock: BETDAH_clean_linker_0, # of connection points: 3
#     Node 3, Type 0, BuildingBlock: BETDAH_clean_linker_0, # of connection points: 3
#     Node 4, Type 0, BuildingBlock: BETDAH_clean_linker_0, # of connection points: 3
#     Node 5, Type 0, BuildingBlock: BETDAH_clean_linker_0, # of connection points: 3
#     Node 6, Type 0, BuildingBlock: BETDAH_clean_linker_0, # of connection points: 3
#     Node 7, Type 0, BuildingBlock: BETDAH_clean_linker_0, # of connection points: 3
#     Node 8, Type 1, BuildingBlock: JUFBIX_clean_sbu_0, # of connection points: 6
#     Node 9, Type 1, BuildingBlock: JUFBIX_clean_sbu_0, # of connection points: 6
#     Node 10, Type 1, BuildingBlock: JUFBIX_clean_sbu_0, # of connection points: 6
#     Node 11, Type 1, BuildingBlock: JUFBIX_clean_sbu_0, # of connection points: 6
#     Edge 12, Type (0, 1), BuildingBlock: XUDNAN_clean_linker_2, # of connection points: 2
#     Edge 13, Type (0, 1), BuildingBlock: XUDNAN_clean_linker_2, # of connection points: 2
#     Edge 14, Type (0, 1), BuildingBlock: XUDNAN_clean_linker_2, # of connection points: 2
#     Edge 15, Type (0, 1), BuildingBlock: XUDNAN_clean_linker_2, # of connection points: 2
#     Edge 16, Type (0, 1), BuildingBlock: XUDNAN_clean_linker_2, # of connection points: 2
#     Edge 17, Type (0, 1), BuildingBlock: XUDNAN_clean_linker_2, # of connection points: 2
#     Edge 18, Type (0, 1), BuildingBlock: XUDNAN_clean_linker_2, # of connection points: 2
#     Edge 19, Type (0, 1), BuildingBlock: XUDNAN_clean_linker_2, # of connection points: 2
#     Edge 20, Type (0, 1), BuildingBlock: XUDNAN_clean_linker_2, # of connection points: 2
#     Edge 21, Type (0, 1), BuildingBlock: XUDNAN_clean_linker_2, # of connection points: 2
#     Edge 22, Type (0, 1), BuildingBlock: XUDNAN_clean_linker_2, # of connection points: 2
#     Edge 23, Type (0, 1), BuildingBlock: XUDNAN_clean_linker_2, # of connection points: 2
#     Edge 24, Type (0, 1), BuildingBlock: XUDNAN_clean_linker_2, # of connection points: 2
#     Edge 25, Type (0, 1), BuildingBlock: XUDNAN_clean_linker_2, # of connection points: 2
#     Edge 26, Type (0, 1), BuildingBlock: XUDNAN_clean_linker_2, # of connection points: 2
#     Edge 27, Type (0, 1), BuildingBlock: XUDNAN_clean_linker_2, # of connection points: 2
#     Edge 28, Type (0, 1), BuildingBlock: XUDNAN_clean_linker_2, # of connection points: 2
#     Edge 29, Type (0, 1), BuildingBlock: XUDNAN_clean_linker_2, # of connection points: 2
#     Edge 30, Type (0, 1), BuildingBlock: XUDNAN_clean_linker_2, # of connection points: 2
#     Edge 31, Type (0, 1), BuildingBlock: XUDNAN_clean_linker_2, # of connection points: 2
#     Edge 32, Type (0, 1), BuildingBlock: XUDNAN_clean_linker_2, # of connection points: 2
#     Edge 33, Type (0, 1), BuildingBlock: XUDNAN_clean_linker_2, # of connection points: 2
#     Edge 34, Type (0, 1), BuildingBlock: XUDNAN_clean_linker_2, # of connection points: 2
#     Edge 35, Type (0, 1), BuildingBlock: XUDNAN_clean_linker_2, # of connection points: 2
# Relax obj value: 0.120
# Max RMSD: 0.176
# Mean RMSD: 0.085
data_MOF--net-zzz--node1-JUFBIX_clean_sbu_0--node2-BETDAH_clean_linker_0--edge1-XUDNAN_clean_linker_2
_symmetry_space_group_name_H-M    P1
_symmetry_Int_Tables_number       1
_symmetry_cell_setting            triclinic
loop_
_symmetry_equiv_pos_as_xyz
'x, y, z'
_cell_length_a     51.898181
_cell_length_b     51.628233
_cell_length_c     17.685748
_cell_angle_alpha  81.294921
_cell_angle_beta   89.88175
_cell_angle_gamma 91.483631
loop_
_atom_site_label
_atom_site_type_symbol
_atom_site_fract_x
_atom_site_fract_y
_atom_site_fract_z
_atom_type_partial_charge
H0 H 0.86186 0.52345 0.26359 0.0
H1 H 0.78903 0.51636 0.1526 0.0
H2 H 0.79153 0.52663 0.38987 0.0
C3 C 0.84098 0.52403 0.26525 0.0
C4 C 0.82857 0.5262 0.33417 0.0
C5 C 0.82696 0.52045 0.19984 0.0
C6 C 0.79988 0.51953 0.20281 0.0
C7 C 0.78704 0.52215 0.27147 0.0
C8 C 0.8015 0.52517 0.33682 0.0
N9 N 0.75974 0.52089 0.27824 0.0
C10 C 0.74259 0.52308 0.21737 0.0
H11 H 0.00835 0.83357 0.24285 0.0
H12 H 0.01346 0.76011 0.15856 0.0
H13 H 0.98998 0.76198 0.39203 0.0
C14 C 1.00652 0.81236 0.25241 0.0
C15 C 0.99824 0.79965 0.32401 0.0
C16 C 0.01247 0.7984 0.1929 0.0
C17 C 0.00926 0.77098 0.20472 0.0
C18 C 1.00119 0.75774 0.27698 0.0
C19 C 0.99615 0.77217 0.33659 0.0
N20 N 0.99804 0.73002 0.29202 0.0
C21 C 0.99732 0.71369 0.23621 0.0
H22 H 0.68595 1.0054 0.17969 0.0
H23 H 0.75745 0.01518 0.05426 0.0
H24 H 0.75709 0.99064 0.29888 0.0
C25 C 0.70682 1.00489 0.17872 0.0
C26 C 0.71976 0.99698 0.24709 0.0
C27 C 0.72003 0.01185 0.10918 0.0
C28 C 0.74709 0.01029 0.10795 0.0
C29 C 0.76058 1.00277 0.17688 0.0
C30 C 0.74676 0.9965 0.24612 0.0
N31 N 0.7879 1.00123 0.17959 0.0
C32 C 0.80444 1.00358 0.11666 0.0
H33 H 0.5297 0.65624 0.21419 0.0
H34 H 0.53202 0.73213 0.07453 0.0
H35 H 0.54045 0.72538 0.31926 0.0
C36 C 0.53242 0.67735 0.20912 0.0
C37 C 0.53528 0.68886 0.27524 0.0
C38 C 0.53121 0.69269 0.13682 0.0
C39 C 0.53304 0.7202 0.13032 0.0
C40 C 0.53701 0.73201 0.19641 0.0
C41 C 0.53801 0.71623 0.26838 0.0
N42 N 0.5408 0.75951 0.19326 0.0
C43 C 0.53129 0.77874 0.13733 0.0
H44 H 0.15851 0.5146 0.2831 0.0
H45 H 0.23079 0.51483 0.39981 0.0
H46 H 0.22807 0.5 0.16633 0.0
C47 C 0.17936 0.51358 0.2821 0.0
C48 C 0.19158 0.5077 0.21642 0.0
C49 C 0.1933 0.51613 0.34833 0.0
C50 C 0.22013 0.51323 0.34818 0.0
C51 C 0.23291 0.5078 0.28206 0.0
C52 C 0.21842 0.50471 0.21673 0.0
N53 N 0.2601 0.50485 0.27994 0.0
C54 C 0.27643 0.50838 0.34016 0.0
H55 H 0.02682 0.17672 0.31536 0.0
H56 H 0.02867 0.24852 0.40982 0.0
H57 H 0.05053 0.24828 0.17408 0.0
C58 C 0.02958 0.19785 0.30796 0.0
C59 C 0.03783 0.21096 0.23671 0.0
C60 C 0.02561 0.21114 0.37018 0.0
C61 C 0.03144 0.23815 0.36172 0.0
C62 C 0.04074 0.25164 0.291 0.0
C63 C 0.04372 0.23792 0.22862 0.0
N64 N 0.04725 0.27887 0.28074 0.0
C65 C 0.04709 0.29403 0.33945 0.0
H66 H 0.34402 0.01821 0.41813 0.0
H67 H 0.27042 0.00749 0.53079 0.0
H68 H 0.27505 0.01922 0.2839 0.0
C69 C 0.32316 0.01702 0.41447 0.0
C70 C 0.31149 0.01873 0.34275 0.0
C71 C 0.30864 0.01281 0.48204 0.0
C72 C 0.28162 0.01114 0.47834 0.0
C73 C 0.26935 0.01413 0.40635 0.0
C74 C 0.28445 0.01775 0.339 0.0
N75 N 0.24206 0.01298 0.39895 0.0
C76 C 0.22437 0.01164 0.4589 0.0
H77 H 0.51799 0.35231 0.38974 0.0
H78 H 0.50969 0.27623 0.52715 0.0
H79 H 0.49747 0.28529 0.28407 0.0
C80 C 0.51532 0.33123 0.39388 0.0
C81 C 0.50874 0.32064 0.3281 0.0
C82 C 0.51537 0.31558 0.46603 0.0
C83 C 0.51031 0.28838 0.47155 0.0
C84 C 0.50437 0.27733 0.4053 0.0
C85 C 0.50312 0.29366 0.33437 0.0
N86 N 0.49718 0.25046 0.40826 0.0
C87 C 0.50585 0.22991 0.46148 0.0
Co88 Co 0.02061 0.01143 0.84013 0.0
C89 C 0.96708 1.0039 0.83358 0.0
Co90 Co 1.00695 0.99954 0.73196 0.0
C91 C 0.04216 0.04803 0.93162 0.0
C92 C 0.02303 0.01535 3e-05 0.0
N93 N 0.03077 0.02443 0.92784 0.0
N94 N 0.04101 0.05443 0.00258 0.0
C95 C 0.0291 0.03387 0.04598 0.0
H96 H 0.04888 0.0614 0.88202 0.0
H97 H 0.01171 0.99751 0.01677 0.0
C98 C 0.06048 1.00729 0.73869 0.0
N99 N 0.99639 0.98578 0.64568 0.0
C100 C 1.0055 0.96349 0.62586 0.0
C101 C 0.97502 0.99061 0.60324 0.0
N102 N 0.99016 0.95341 0.57553 0.0
C103 C 0.97115 0.97073 0.55992 0.0
C104 C 0.00828 0.05247 0.72221 0.0
O105 O 0.05531 0.01316 0.8043 0.0
O106 O 0.04211 1.00056 0.69747 0.0
O107 O 1.00307 0.03451 0.68221 0.0
O108 O 0.01578 0.04619 0.79065 0.0
O109 O 0.97208 0.99871 0.76716 0.0
H110 H 0.96192 1.00621 0.60846 0.0
H111 H 0.02219 0.95385 0.6523 0.0
O112 O 0.98561 0.00968 0.87544 0.0
O113 O 0.02544 0.97641 0.88865 0.0
O114 O 0.0107 0.96483 0.78266 0.0
C115 C 0.01926 0.95848 0.84968 0.0
H116 H 0.02354 0.03314 0.10531 0.0
H117 H 0.9545 0.96815 0.52484 0.0
Co118 Co 0.50752 0.01064 0.8426 0.0
C119 C 0.51205 0.9557 0.86249 0.0
Co120 Co 0.5219 0.99468 0.74138 0.0
C121 C 0.46865 0.02864 0.9395 0.0
C122 C 0.50345 0.0182 -7e-05 0.0
N123 N 0.49318 0.02147 0.9292 0.0
N124 N 0.46309 0.02923 0.01376 0.0
C125 C 0.48503 0.02288 0.05188 0.0
H126 H 0.45441 0.03124 0.89458 0.0
H127 H 0.52247 0.01092 0.01394 0.0
C128 C 0.51742 0.04967 0.72196 0.0
N129 N 0.53703 0.98342 0.65736 0.0
C130 C 0.55967 0.99314 0.62608 0.0
C131 C 0.53211 0.96165 0.6258 0.0
N132 N 0.56969 0.97792 0.57845 0.0
C133 C 0.55217 0.95824 0.57706 0.0
C134 C 0.46952 0.99695 0.74144 0.0
O135 O 0.50889 0.04573 0.79037 0.0
O136 O 0.52401 0.03019 0.6905 0.0
O137 O 0.48817 0.99058 0.70191 0.0
O138 O 0.47395 1.00589 0.80324 0.0
O139 O 0.51993 0.95955 0.79352 0.0
H140 H 0.51602 0.94814 0.6414 0.0
H141 H 0.56932 0.01038 0.64161 0.0
O142 O 0.50596 0.97524 0.89421 0.0
O143 O 0.54201 0.0154 0.87999 0.0
O144 O 0.55507 0.99851 0.78106 0.0
C145 C 0.56036 0.00818 0.84086 0.0
H146 H 0.48718 0.02035 0.11341 0.0
H147 H 0.55448 0.94158 0.54735 0.0
Co148 Co 0.52505 0.50443 0.80414 0.0
C149 C 0.49865 0.47124 0.91899 0.0
Co150 Co 0.48252 0.50555 0.79369 0.0
C151 C 0.57396 0.51064 0.87628 0.0
C152 C 0.57893 0.49718 0.76879 0.0
N153 N 0.5607 0.50387 0.81626 0.0
N154 N 0.59965 0.50865 0.86815 0.0
C155 C 0.60291 0.49998 0.80076 0.0
H156 H 0.56492 0.51683 0.92554 0.0
H157 H 0.57509 0.49095 0.7141 0.0
C158 C 0.50854 0.539 0.67961 0.0
N159 N 0.44691 0.50642 0.784 0.0
C160 C 0.43222 0.50791 0.72045 0.0
C161 C 0.43007 0.50739 0.8416 0.0
N162 N 0.40693 0.51009 0.73627 0.0
C163 C 0.40557 0.50968 0.81253 0.0
C164 C 0.50248 0.54356 0.87265 0.0
O165 O 0.52872 0.52941 0.71253 0.0
O166 O 0.48648 0.53027 0.70417 0.0
O167 O 0.48161 0.53394 0.85023 0.0
O168 O 0.5236 0.53295 0.86069 0.0
O169 O 0.47899 0.48088 0.88369 0.0
H170 H 0.43536 0.50702 0.90088 0.0
H171 H 0.44003 0.50834 0.66345 0.0
O172 O 0.52101 0.47956 0.89569 0.0
O173 O 0.52582 0.47585 0.74716 0.0
O174 O 0.48362 0.47716 0.73751 0.0
C175 C 0.50469 0.46631 0.7257 0.0
H176 H 0.62131 0.49661 0.77551 0.0
H177 H 0.3881 0.51109 0.84503 0.0
Co178 Co 0.01057 0.52465 0.78275 0.0
C179 C 0.04416 0.49371 0.88103 0.0
Co180 Co 0.00844 0.48191 0.77766 0.0
C181 C 1.00751 0.5679 0.86562 0.0
C182 C 0.01627 0.58163 0.74799 0.0
N183 N 0.01193 0.55952 0.79817 0.0
N184 N 0.00852 0.59425 0.85975 0.0
C185 C 0.01428 0.60305 0.78585 0.0
H186 H 1.00349 0.55484 0.91841 0.0
H187 H 0.02011 0.58216 0.68763 0.0
C188 C 0.97455 0.5125 0.68052 0.0
N189 N 1.0064 0.44665 0.76295 0.0
C190 C 0.02264 0.43359 0.72299 0.0
C191 C 0.9861 0.42987 0.78005 0.0
N192 N 0.01309 0.40969 0.7135 0.0
C193 C 0.99016 0.40725 0.74998 0.0
C194 C 0.97328 0.49574 0.87823 0.0
O195 O 0.98513 0.53209 0.70517 0.0
O196 O 0.98267 0.48962 0.70297 0.0
O197 O 0.98198 0.47588 0.85328 0.0
O198 O 0.98359 0.51811 0.85577 0.0
O199 O 0.03419 0.47451 0.85297 0.0
H200 H 0.96872 0.43417 0.809 0.0
H201 H 0.04044 0.44201 0.69715 0.0
O202 O 0.0358 0.51665 0.86027 0.0
O203 O 0.03768 0.53089 0.70941 0.0
O204 O 0.03498 0.48874 0.70324 0.0
C205 C 0.046 0.511 0.68361 0.0
H206 H 0.01603 0.62347 0.76051 0.0
H207 H 0.97681 0.39068 0.75266 0.0
H208 H 0.17431 0.99972 0.43662 0.0
H209 H 0.22776 0.02233 0.60417 0.0
H210 H 0.19158 0.02286 0.69612 0.0
H211 H 0.12262 0.03963 0.47872 0.0
H212 H 0.0976 0.01599 0.46461 0.0
H213 H 0.12775 0.01645 0.41382 0.0
H214 H 0.13376 0.9675 0.46821 0.0
H215 H 0.10357 0.96688 0.519 0.0
H216 H 0.1326 0.95718 0.57024 0.0
H217 H 0.14908 0.02213 0.76772 0.0
H218 H 0.10407 0.01979 0.81438 0.0
H219 H 0.07835 0.99748 0.59926 0.0
C220 C 0.17832 1.00454 0.49302 0.0
C221 C 0.20364 0.01085 0.51411 0.0
C222 C 0.20839 0.01731 0.58767 0.0
C223 C 0.18798 0.01768 0.63998 0.0
C224 C 0.16306 0.01151 0.61745 0.0
C225 C 0.15819 1.00498 0.54574 0.0
C226 C 0.12966 0.9996 0.53506 0.0
C227 C 0.11877 0.01908 0.46915 0.0
C228 C 0.12461 0.9711 0.5224 0.0
C229 C 0.11916 1.00429 0.61171 0.0
C230 C 0.13872 0.01109 0.65849 0.0
C231 C 0.13365 0.01672 0.73163 0.0
C232 C 0.10798 0.01535 0.75761 0.0
C233 C 0.08759 0.00841 0.71066 0.0
C234 C 0.09343 1.00277 0.63676 0.0
H235 H 0.48259 0.19988 0.58437 0.0
H236 H 0.54722 0.20393 0.42726 0.0
H237 H 0.55847 0.15863 0.48148 0.0
H238 H 0.5146 0.15924 0.7484 0.0
H239 H 0.48534 0.14089 0.77793 0.0
H240 H 0.48381 0.17441 0.73163 0.0
H241 H 0.45332 0.15972 0.62946 0.0
H242 H 0.455 0.12617 0.67483 0.0
H243 H 0.46349 0.13487 0.5752 0.0
H244 H 0.55949 0.11161 0.54101 0.0
H245 H 0.55311 0.06686 0.61181 0.0
H246 H 0.4892 0.0932 0.73648 0.0
C247 C 0.49953 0.19138 0.56323 0.0
C248 C 0.51439 0.2053 0.50266 0.0
C249 C 0.53596 0.19355 0.47458 0.0
C250 C 0.54239 0.16784 0.50477 0.0
C251 C 0.5271 0.15428 0.56341 0.0
C252 C 0.50635 0.16571 0.59337 0.0
C253 C 0.49259 0.14637 0.65448 0.0
C254 C 0.49419 0.15579 0.73276 0.0
C255 C 0.46444 0.1415 0.63212 0.0
C256 C 0.50849 0.12217 0.65291 0.0
C257 C 0.5282 0.12719 0.59961 0.0
C258 C 0.54441 0.10755 0.58385 0.0
C259 C 0.54054 0.08217 0.62399 0.0
C260 C 0.52082 0.07663 0.67999 0.0
C261 C 0.50469 0.09698 0.69483 0.0
H262 H 0.32376 0.48817 0.37076 0.0
H263 H 0.26656 0.5377 0.45012 0.0
H264 H 0.29438 0.54408 0.55963 0.0
H265 H 0.34339 0.45643 0.55562 0.0
H266 H 0.37702 0.45583 0.53051 0.0
H267 H 0.35279 0.45537 0.45796 0.0
H268 H 0.37444 0.49644 0.37825 0.0
H269 H 0.39874 0.49704 0.45065 0.0
H270 H 0.37984 0.52559 0.42136 0.0
H271 H 0.32759 0.54407 0.66167 0.0
H272 H 0.36462 0.53864 0.74919 0.0
H273 H 0.40126 0.48985 0.60328 0.0
C274 C 0.31725 0.50039 0.41132 0.0
C275 C 0.29308 0.51236 0.40296 0.0
C276 C 0.28499 0.52826 0.45635 0.0
C277 C 0.30068 0.53203 0.51845 0.0
C278 C 0.32443 0.51989 0.52566 0.0
C279 C 0.33279 0.50449 0.47346 0.0
C280 C 0.35915 0.49367 0.49484 0.0
C281 C 0.358 0.46354 0.51068 0.0
C282 C 0.37923 0.5038 0.43256 0.0
C283 C 0.36419 0.50523 0.5675 0.0
C284 C 0.34386 0.52024 0.58414 0.0
C285 C 0.34365 0.53242 0.64917 0.0
C286 C 0.36471 0.52909 0.69879 0.0
C287 C 0.3858 0.51377 0.68322 0.0
C288 C 0.38555 0.50189 0.61621 0.0
H289 H 1.00595 0.3084 0.41618 0.0
H290 H 0.08902 0.31649 0.39497 0.0
H291 H 0.08978 0.3459 0.49373 0.0
H292 H 0.99462 0.37461 0.43831 0.0
H293 H 0.96872 0.36656 0.50657 0.0
H294 H 0.97504 0.34531 0.43722 0.0
H295 H 0.97966 0.30614 0.5464 0.0
H296 H 0.97339 0.32732 0.61613 0.0
H297 H 1.00239 0.30867 0.62206 0.0
H298 H 0.081 0.3759 0.59098 0.0
H299 H 0.06353 0.40392 0.67955 0.0
H300 H 0.98612 0.37617 0.63623 0.0
C301 C 0.02425 0.31626 0.43307 0.0
C302 C 0.04746 0.31034 0.39888 0.0
C303 C 0.07111 0.32091 0.42127 0.0
C304 C 0.07169 0.33756 0.47716 0.0
C305 C 0.04842 0.34327 0.50987 0.0
C306 C 0.02514 0.33289 0.48877 0.0
C307 C 1.00284 0.34265 0.53106 0.0
C308 C 0.98421 0.35821 0.47493 0.0
C309 C 0.98875 0.31983 0.58193 0.0
C310 C 0.01715 0.36034 0.57868 0.0
C311 C 0.04342 0.3604 0.56585 0.0
C312 C 0.06046 0.37589 0.60173 0.0
C313 C 0.05036 0.39185 0.65167 0.0
C314 C 0.02347 0.39221 0.66533 0.0
C315 C 1.00679 0.37603 0.62846 0.0
H316 H 0.85484 0.01344 0.13836 0.0
H317 H 0.79979 0.99518 0.96922 0.0
H318 H 0.83552 0.99405 0.87598 0.0
H319 H 0.89812 0.05525 0.00708 0.0
H320 H 0.9267 0.04361 0.05757 0.0
H321 H 0.89669 0.04405 0.10866 0.0
H322 H 0.90039 0.99448 0.15923 0.0
H323 H 0.93032 0.99388 0.10797 0.0
H324 H 0.90411 0.97178 0.09214 0.0
H325 H 0.87789 0.99337 0.80349 0.0
H326 H 0.92285 0.994 0.75661 0.0
H327 H 0.95 0.01273 0.97447 0.0
C328 C 0.85038 0.00953 0.08126 0.0
C329 C 0.82476 1.0046 0.0601 0.0
C330 C 0.81942 0.9992 0.98571 0.0
C331 C 0.83956 0.99848 0.93271 0.0
C332 C 0.86481 1.00322 0.95542 0.0
C333 C 0.87023 0.00875 0.02792 0.0
C334 C 0.89897 0.01253 0.0389 0.0
C335 C 0.9055 0.04052 0.05392 0.0
C336 C 0.90903 0.99194 0.10337 0.0
C337 C 0.90897 0.00808 0.96152 0.0
C338 C 0.88901 1.00277 0.91406 0.0
C339 C 0.89363 0.99762 0.84013 0.0
C340 C 0.91927 0.99798 0.81404 0.0
C341 C 0.94003 1.00344 0.86172 0.0
C342 C 0.93464 0.00855 0.93642 0.0
H343 H 0.55247 0.80798 0.00963 0.0
H344 H 0.48885 0.80323 0.17045 0.0
H345 H 0.47528 0.8473 0.11175 0.0
H346 H 0.56891 0.87381 0.00985 0.0
H347 H 0.5765 0.88166 0.90936 0.0
H348 H 0.57968 0.84864 0.95768 0.0
H349 H 0.54911 0.83143 0.85977 0.0
H350 H 0.54608 0.86442 0.81051 0.0
H351 H 0.51766 0.84519 0.84375 0.0
H352 H 0.47224 0.89371 0.0482 0.0
H353 H 0.47704 0.93819 0.97439 0.0
H354 H 0.54107 0.91276 0.84836 0.0
C355 C 0.53524 0.816 0.03059 0.0
C356 C 0.52135 0.80227 0.09355 0.0
C357 C 0.49937 0.81343 0.12134 0.0
C358 C 0.49162 0.83845 0.08858 0.0
C359 C 0.50599 0.85189 0.02763 0.0
C360 C 0.52707 0.84094 -0.00215 0.0
C361 C 0.53976 0.86015 0.93424 0.0
C362 C 0.56788 0.86643 0.95401 0.0
C363 C 0.53804 0.84967 0.85751 0.0
C364 C 0.52297 0.88379 0.93447 0.0
C365 C 0.50366 0.87857 0.98902 0.0
C366 C 0.48694 0.89787 0.00426 0.0
C367 C 0.48991 0.92311 0.96241 0.0
C368 C 0.50923 0.92881 0.90526 0.0
C369 C 0.52583 0.90879 0.89079 0.0
H370 H 0.73038 0.49355 0.10611 0.0
H371 H 0.70731 0.5602 0.21 0.0
H372 H 0.66871 0.56482 0.12757 0.0
H373 H 0.70811 0.51855 0.91126 0.0
H374 H 0.69719 0.48666 0.893 0.0
H375 H 0.72379 0.48957 0.95681 0.0
H376 H 0.69979 0.45813 0.06357 0.0
H377 H 0.67308 0.45524 0.00029 0.0
H378 H 0.66777 0.46575 0.09159 0.0
H379 H 0.63126 0.56023 0.0417 0.0
H380 H 0.5982 0.54822 0.95211 0.0
H381 H 0.64553 0.48509 0.90033 0.0
C382 C 0.71735 0.50934 0.11018 0.0
C383 C 0.72168 0.52674 0.16343 0.0
C384 C 0.70424 0.54692 0.16871 0.0
C385 C 0.68231 0.54964 0.12234 0.0
C386 C 0.67825 0.53203 0.07084 0.0
C387 C 0.69536 0.5124 0.06384 0.0
C388 C 0.68596 0.49568 0.00533 0.0
C389 C 0.70489 0.49775 0.93757 0.0
C390 C 0.68138 0.467 0.04244 0.0
C391 C 0.66076 0.50874 0.9815 0.0
C392 C 0.65671 0.52963 0.02018 0.0
C393 C 0.63432 0.54406 0.01055 0.0
C394 C 0.61557 0.53699 0.95997 0.0
C395 C 0.61932 0.51577 0.91922 0.0
C396 C 0.64234 0.50161 0.92992 0.0
H397 H 0.02352 0.71216 0.10297 0.0
H398 H 0.96541 0.67166 0.25666 0.0
H399 H 0.96115 0.63704 0.17438 0.0
H400 H 0.99449 0.69744 0.92595 0.0
H401 H 0.02497 0.69293 0.88134 0.0
H402 H 0.02297 0.7149 0.95105 0.0
H403 H 0.05861 0.6895 0.03095 0.0
H404 H 0.06069 0.66745 0.96156 0.0
H405 H 0.05445 0.65467 0.06066 0.0
H406 H 0.96422 0.60627 0.07893 0.0
H407 H 0.97383 0.58132 0.97442 0.0
H408 H 0.0298 0.64152 0.88024 0.0
C409 C 0.00981 0.69604 0.11857 0.0
C410 C 0.99467 0.69435 0.18555 0.0
C411 C 0.97704 0.67311 0.20515 0.0
C412 C 0.97452 0.65343 0.15887 0.0
C413 C 0.98977 0.65543 0.09318 0.0
C414 C 1.00703 0.67619 0.07272 0.0
C415 C 0.02137 0.67327 -0.00028 0.0
C416 C 0.0156 0.69599 0.93573 0.0
C417 C 0.0505 0.67109 0.01412 0.0
C418 C 0.00958 0.64757 0.98272 0.0
C419 C 0.99143 0.63766 0.03753 0.0
C420 C 0.97837 0.61386 0.0356 0.0
C421 C 0.98408 0.59974 0.97627 0.0
C422 C 1.00264 0.60942 0.91937 0.0
C423 C 0.01537 0.63379 0.9225 0.0
H424 H 0.98985 0.17099 0.39079 0.0
H425 H 0.04269 0.21525 0.51531 0.0
H426 H 0.03662 0.1819 0.63008 0.0
H427 H 0.94883 0.13774 0.55684 0.0
H428 H 0.94802 0.10757 0.5171 0.0
H429 H 0.94942 0.1386 0.45456 0.0
H430 H 0.99012 0.12393 0.38922 0.0
H431 H 0.98923 0.09318 0.4521 0.0
H432 H 0.01784 0.11396 0.44659 0.0
H433 H 0.03177 0.1402 0.72149 0.0
H434 H 0.02969 0.09391 0.78082 0.0
H435 H 0.98474 0.07436 0.58962 0.0
C436 C 0.99958 0.1741 0.44291 0.0
C437 C 0.01687 0.19567 0.44395 0.0
C438 C 0.02909 0.19911 0.51331 0.0
C439 C 0.02582 0.18016 0.57873 0.0
C440 C 0.01033 0.15797 0.57356 0.0
C441 C 0.99728 0.15495 0.50732 0.0
C442 C 0.98586 0.12748 0.51089 0.0
C443 C 0.95627 0.12788 0.50981 0.0
C444 C 0.99641 0.11385 0.44589 0.0
C445 C 0.9956 0.11505 0.58802 0.0
C446 C 0.00891 0.13318 0.62433 0.0
C447 C 0.02104 0.12597 0.69414 0.0
C448 C 0.01983 0.09955 0.72721 0.0
C449 C 1.00712 0.0805 0.6896 0.0
C450 C 0.99453 0.08849 0.6197 0.0
H451 H 0.34052 0.04702 0.54002 0.0
H452 H 0.31182 0.96669 0.578 0.0
H453 H 0.3489 0.95413 0.6621 0.0
H454 H 0.40145 0.03379 0.51317 0.0
H455 H 0.41663 0.05889 0.55968 0.0
H456 H 0.38482 0.06351 0.52101 0.0
H457 H 0.36678 0.07071 0.6526 0.0
H458 H 0.3988 0.0672 0.69147 0.0
H459 H 0.37256 0.04684 0.73593 0.0
H460 H 0.39389 0.94872 0.71445 0.0
H461 H 0.44003 0.9523 0.74956 0.0
H462 H 0.43913 0.03628 0.67881 0.0
C463 C 0.34125 0.02717 0.57025 0.0
C464 C 0.32313 0.00789 0.55432 0.0
C465 C 0.32514 0.98181 0.59155 0.0
C466 C 0.34632 0.97449 0.63857 0.0
C467 C 0.36502 0.99362 0.64836 0.0
C468 C 0.36227 0.01964 0.61708 0.0
C469 C 0.38635 0.03583 0.62817 0.0
C470 C 0.39798 0.04874 0.55092 0.0
C471 C 0.38078 0.05635 0.68017 0.0
C472 C 0.4035 0.01473 0.66747 0.0
C473 C 0.39088 0.99051 0.67889 0.0
C474 C 0.40371 0.96768 0.70759 0.0
C475 C 0.42989 0.9698 0.72647 0.0
C476 C 0.44278 0.99451 0.71646 0.0
C477 C 0.42944 0.01721 0.68713 0.0
H478 H 0.5498 0.35344 0.49816 0.0
H479 H 0.48024 0.31015 0.58193 0.0
H480 H 0.47208 0.34272 0.66724 0.0
H481 H 0.56676 0.37891 0.68478 0.0
H482 H 0.57811 0.40981 0.6325 0.0
H483 H 0.58151 0.38008 0.5919 0.0
H484 H 0.55738 0.4013 0.47118 0.0
H485 H 0.5531 0.43074 0.51204 0.0
H486 H 0.52545 0.41339 0.48099 0.0
H487 H 0.46604 0.38447 0.71827 0.0
H488 H 0.46673 0.42902 0.75262 0.0
H489 H 0.54113 0.44525 0.64083 0.0
C490 C 0.53357 0.35018 0.53738 0.0
C491 C 0.51576 0.32917 0.53411 0.0
C492 C 0.49439 0.32577 0.58472 0.0
C493 C 0.48947 0.34436 0.63277 0.0
C494 C 0.50638 0.3659 0.63046 0.0
C495 C 0.52848 0.36851 0.58593 0.0
C496 C 0.54224 0.39465 0.58874 0.0
C497 C 0.56873 0.39062 0.62677 0.0
C498 C 0.54467 0.41097 0.50848 0.0
C499 C 0.52377 0.40685 0.63876 0.0
C500 C 0.50322 0.38991 0.66208 0.0
C501 C 0.48236 0.39763 0.70217 0.0
C502 C 0.48277 0.4231 0.72046 0.0
C503 C 0.504 0.44051 0.69935 0.0
C504 C 0.52481 0.43221 0.65826 0.0
H505 H 0.15389 0.54916 0.36439 0.0
H506 H 0.19906 0.48752 0.48972 0.0
H507 H 0.16811 0.48361 0.59707 0.0
H508 H 0.12989 0.57743 0.53773 0.0
H509 H 0.0988 0.58356 0.49435 0.0
H510 H 0.12736 0.58559 0.43528 0.0
H511 H 0.10647 0.55203 0.35741 0.0
H512 H 0.07814 0.54937 0.41702 0.0
H513 H 0.09564 0.52042 0.4063 0.0
H514 H 0.12839 0.47933 0.67528 0.0
H515 H 0.08469 0.47917 0.73016 0.0
H516 H 0.06492 0.54464 0.55828 0.0
C517 C 0.15773 0.53555 0.41574 0.0
C518 C 0.1789 0.5187 0.41908 0.0
C519 C 0.18323 0.5009 0.48656 0.0
C520 C 0.16565 0.49844 0.54759 0.0
C521 C 0.14413 0.51423 0.54054 0.0
C522 C 0.14039 0.53292 0.47718 0.0
C523 C 0.11441 0.54556 0.48064 0.0
C524 C 0.11783 0.57477 0.48743 0.0
C525 C 0.0977 0.54159 0.41124 0.0
C526 C 0.10357 0.53008 0.55385 0.0
C527 C 0.12115 0.51221 0.5875 0.0
C528 C 0.11474 0.4937 0.65077 0.0
C529 C 0.08982 0.49356 0.68089 0.0
C530 C 0.07167 0.51193 0.64823 0.0
C531 C 0.07868 0.53068 0.58462 0.0
H532 H 0.04723 0.83903 0.16961 0.0
H533 H 0.99442 0.79329 0.04995 0.0
H534 H 0.99741 0.82752 0.93607 0.0
H535 H 0.01621 0.89415 0.12308 0.0
H536 H 0.04359 0.91662 0.1143 0.0
H537 H 0.04541 0.88552 0.17482 0.0
H538 H 0.0856 0.87384 0.10101 0.0
H539 H 0.08446 0.90533 0.04116 0.0
H540 H 0.08442 0.87577 -0.00156 0.0
H541 H 0.99835 0.87023 0.8481 0.0
H542 H 0.99736 0.91694 0.79282 0.0
H543 H 0.04541 0.93673 0.97744 0.0
C544 C 0.03714 0.83574 0.1182 0.0
C545 C 0.02057 0.81359 0.11838 0.0
C546 C 1.00751 0.80993 0.05058 0.0
C547 C 0.009 0.82939 0.98584 0.0
C548 C 0.02363 0.85222 0.99025 0.0
C549 C 0.0377 0.85533 0.05469 0.0
C550 C 0.04772 0.88329 0.05181 0.0
C551 C 0.03761 0.89559 0.12 0.0
C552 C 0.07731 0.88463 0.04783 0.0
C553 C 0.03608 0.89579 0.97741 0.0
C554 C 0.02291 0.87743 0.94164 0.0
C555 C 0.00903 0.88465 0.87486 0.0
C556 C 0.00849 0.91128 0.84413 0.0
C557 C 0.02133 0.93045 0.88098 0.0
C558 C 0.03551 0.9225 0.94797 0.0
H559 H 0.67901 0.04403 0.09158 0.0
H560 H 0.72422 0.9933 0.97234 0.0
H561 H 0.68949 0.99274 0.87713 0.0
H562 H 0.62487 0.00799 0.09015 0.0
H563 H 0.6023 0.03424 0.0801 0.0
H564 H 0.63313 0.03849 0.12321 0.0
H565 H 0.64347 0.07979 0.02423 0.0
H566 H 0.61226 0.07625 0.98182 0.0
H567 H 0.64096 0.078 0.92349 0.0
H568 H 0.64705 0.99011 0.81235 0.0
H569 H 0.60128 0.98681 0.77898 0.0
H570 H 0.58165 0.03522 0.95017 0.0
C571 C 0.68203 0.03367 0.04354 0.0
C572 C 0.7043 0.01867 0.03925 0.0
C573 C 0.70754 1.00523 0.97608 0.0
C574 C 0.68777 1.00465 0.92215 0.0
C575 C 0.66501 0.01762 0.93246 0.0
C576 C 0.66217 0.03215 0.99124 0.0
C577 C 0.63453 0.04043 -0.00173 0.0
C578 C 0.62305 0.02963 0.0776 0.0
C579 C 0.6327 0.0704 0.98088 0.0
C580 C 0.62196 0.02741 0.9362 0.0
C581 C 0.64 0.0149 0.8978 0.0
C582 C 0.63287 1.00023 0.84113 0.0
C583 C 0.60673 0.99837 0.82295 0.0
C584 C 0.5878 0.01079 0.86203 0.0
C585 C 0.59563 0.02558 0.91923 0.0
H586 H 0.56071 0.65565 0.08942 0.0
H587 H 0.48955 0.69687 0.0425 0.0
H588 H 0.47512 0.66403 0.96181 0.0
H589 H 0.56682 0.63174 0.89811 0.0
H590 H 0.57942 0.60107 0.94347 0.0
H591 H 0.58586 0.63064 0.98363 0.0
H592 H 0.56696 0.60776 0.11313 0.0
H593 H 0.55972 0.57849 0.07279 0.0
H594 H 0.53445 0.59442 0.11686 0.0
H595 H 0.46546 0.62247 0.90707 0.0
H596 H 0.46379 0.57885 0.86564 0.0
H597 H 0.54168 0.56506 0.94824 0.0
C598 C 0.54265 0.65839 0.059 0.0
C599 C 0.52635 0.6789 0.07075 0.0
C600 C 0.50248 0.68159 0.03244 0.0
C601 C 0.49408 0.66288 0.98728 0.0
C602 C 0.50998 0.64193 0.98059 0.0
C603 C 0.53408 0.63997 0.01382 0.0
C604 C 0.54657 0.61453 0.00355 0.0
C605 C 0.57112 0.61982 0.95422 0.0
C606 C 0.55224 0.59783 0.0812 0.0
C607 C 0.5254 0.60203 0.96164 0.0
C608 C 0.50446 0.61811 0.9488 0.0
C609 C 0.48194 0.60996 0.91547 0.0
C610 C 0.48107 0.58503 0.89296 0.0
C611 C 0.50261 0.56857 0.90374 0.0
C612 C 0.52496 0.57725 0.93885 0.0
H613 H 0.86589 0.55041 0.12711 0.0
H614 H 0.82222 0.47784 0.12572 0.0
H615 H 0.85463 0.46358 0.03857 0.0
H616 H 0.89076 0.55764 0.92563 0.0
H617 H 0.92134 0.57052 0.95334 0.0
H618 H 0.89236 0.57641 0.00364 0.0
H619 H 0.91361 0.55654 0.13109 0.0
H620 H 0.94228 0.54985 0.08095 0.0
H621 H 0.92534 0.52363 0.14161 0.0
H622 H 0.89531 0.45481 0.96746 0.0
H623 H 0.93782 0.45484 0.90357 0.0
H624 H 0.95452 0.53306 0.95535 0.0
C625 C 0.86268 0.53197 0.10591 0.0
C626 C 0.84154 0.51529 0.13213 0.0
C627 C 0.83808 0.49106 0.10484 0.0
C628 C 0.85652 0.48273 0.05609 0.0
C629 C 0.87803 0.49903 0.03495 0.0
C630 C 0.88085 0.52342 0.05767 0.0
C631 C 0.90644 0.5365 0.03187 0.0
C632 C 0.90248 0.56176 0.97522 0.0
C633 C 0.92287 0.54193 0.10048 0.0
C634 C 0.91791 0.5154 0.99277 0.0
C635 C 0.90131 0.49393 0.99486 0.0
C636 C 0.9083 0.47167 0.9646 0.0
C637 C 0.93259 0.47173 0.92926 0.0
C638 C 0.94947 0.49392 0.92465 0.0
C639 C 0.94204 0.51581 0.9578 0.0
H640 H 1.00297 0.17584 0.19575 0.0
H641 H 0.07926 0.20936 0.1397 0.0
H642 H 0.08712 0.17458 0.06026 0.0
H643 H 0.02225 0.11325 0.23298 0.0
H644 H 0.99396 0.09824 0.1972 0.0
H645 H 0.99165 0.12903 0.23207 0.0
H646 H 0.97273 0.15059 0.10298 0.0
H647 H 0.97425 0.11964 0.06801 0.0
H648 H 0.9897 0.14849 0.01517 0.0
H649 H 0.08822 0.13217 0.00085 0.0
H650 H 0.08241 0.08716 0.96825 0.0
H651 H 1.00735 0.08035 0.07745 0.0
C652 C 0.02103 0.17638 0.16462 0.0
C653 C 0.04049 0.19529 0.17347 0.0
C654 C 0.06396 0.19528 0.13261 0.0
C655 C 0.06861 0.17548 0.0879 0.0
C656 C 0.04957 0.156 0.0849 0.0
C657 C 0.02613 0.15654 0.12187 0.0
C658 C 0.0101 0.13185 0.11911 0.0
C659 C 1.00417 0.11725 0.20013 0.0
C660 C 0.98523 0.13802 0.07358 0.0
C661 C 0.02839 0.11684 0.0767 0.0
C662 C 0.05084 0.13119 0.05571 0.0
C663 C 0.07065 0.12089 0.01678 0.0
C664 C 0.06731 0.09538 -0.00116 0.0
C665 C 0.04468 0.08033 0.02172 0.0
C666 C 0.02504 0.09133 0.06073 0.0
H667 H 0.35429 0.99075 0.32615 0.0
H668 H 0.30732 0.05161 0.20478 0.0
H669 H 0.34003 0.05922 0.10046 0.0
H670 H 0.41236 0.02486 0.29274 0.0
H671 H 0.43113 0.99657 0.28392 0.0
H672 H 0.40224 0.99297 0.34125 0.0
H673 H 0.3838 0.95842 0.26225 0.0
H674 H 0.41284 0.96159 0.20524 0.0
H675 H 0.38195 0.96642 0.15962 0.0
H676 H 0.38061 0.06236 0.01474 0.0
H677 H 0.42423 0.06068 0.95763 0.0
H678 H 0.44457 1.00006 0.14319 0.0
C679 C 0.35064 1.00549 0.27717 0.0
C680 C 0.32832 0.02072 0.27375 0.0
C681 C 0.32418 0.03956 0.20826 0.0
C682 C 0.34273 0.04409 0.14905 0.0
C683 C 0.36518 0.02954 0.15638 0.0
C684 C 0.369 0.01049 0.21885 0.0
C685 C 0.39543 0.99894 0.21745 0.0
C686 C 0.41121 1.00363 0.288 0.0
C687 C 0.39337 0.9696 0.21071 0.0
C688 C 0.40627 0.0148 0.14518 0.0
C689 C 0.38852 0.03208 0.10975 0.0
C690 C 0.39456 0.04883 0.04208 0.0
C691 C 0.41932 0.04781 0.01012 0.0
C692 C 0.43782 0.03053 0.04665 0.0
C693 C 0.43102 0.01384 0.11482 0.0
H694 H 0.54086 0.36043 0.25951 0.0
H695 H 0.4664 0.32238 0.23659 0.0
H696 H 0.45586 0.35697 0.1295 0.0
H697 H 0.52019 0.42524 0.22584 0.0
H698 H 0.54809 0.43862 0.17117 0.0
H699 H 0.55089 0.40984 0.24188 0.0
H700 H 0.56933 0.38421 0.13972 0.0
H701 H 0.56704 0.41307 0.06893 0.0
H702 H 0.55161 0.38272 0.05284 0.0
H703 H 0.45158 0.3979 0.0354 0.0
H704 H 0.45603 0.43932 0.94627 0.0
H705 H 0.5341 0.45033 0.02578 0.0
C706 C 0.52257 0.35915 0.23078 0.0
C707 C 0.50447 0.33867 0.25587 0.0
C708 C 0.48067 0.33765 0.21739 0.0
C709 C 0.47444 0.35734 0.15707 0.0
C710 C 0.49235 0.37771 0.13542 0.0
C711 C 0.51616 0.37849 0.16991 0.0
C712 C 0.53178 0.40275 0.13618 0.0
C713 C 0.5381 0.42014 0.19743 0.0
C714 C 0.55639 0.39523 0.09708 0.0
C715 C 0.51284 0.41573 0.07821 0.0
C716 C 0.49015 0.40104 0.07933 0.0
C717 C 0.46936 0.40942 0.03329 0.0
C718 C 0.47202 0.43312 0.98332 0.0
C719 C 0.49542 0.44809 0.97904 0.0
C720 C 0.51601 0.43929 0.02765 0.0
H721 H 0.15453 0.53919 0.14736 0.0
H722 H 0.19085 0.46484 0.14197 0.0
H723 H 0.15715 0.45297 0.05312 0.0
H724 H 0.09148 0.51542 0.15508 0.0
H725 H 0.07822 0.54325 0.09532 0.0
H726 H 0.10688 0.54735 0.14988 0.0
H727 H 0.13166 0.56737 0.02648 0.0
H728 H 0.10289 0.56392 0.9717 0.0
H729 H 0.13238 0.54958 0.94632 0.0
H730 H 0.11638 0.44748 0.97668 0.0
H731 H 0.0751 0.45096 0.90659 0.0
H732 H 0.06591 0.529 0.96426 0.0
C733 C 0.15576 0.52071 0.12574 0.0
C734 C 0.17531 0.50296 0.15091 0.0
C735 C 0.17623 0.47885 0.12224 0.0
C736 C 0.15705 0.47188 0.07245 0.0
C737 C 0.13731 0.48937 0.0516 0.0
C738 C 0.13687 0.51351 0.07626 0.0
C739 C 0.11308 0.52836 0.04864 0.0
C740 C 0.09644 0.53391 0.11627 0.0
C741 C 0.12045 0.55381 0.99508 0.0
C742 C 0.0999 0.50865 0.00561 0.0
C743 C 0.11409 0.48625 0.00794 0.0
C744 C 0.10527 0.46505 0.97388 0.0
C745 C 0.08168 0.4671 0.93485 0.0
C746 C 0.06724 0.49022 0.9301 0.0
C747 C 0.07647 0.51107 0.96676 0.0
H748 H 0.97043 0.8442 0.30942 0.0
H749 H 0.01503 0.79266 0.4727 0.0
H750 H 0.01432 0.82544 0.56146 0.0
H751 H 1.00438 0.90028 0.32956 0.0
H752 H 0.97747 0.9219 0.31865 0.0
H753 H 0.97661 0.89255 0.27533 0.0
H754 H 0.93391 0.87722 0.34646 0.0
H755 H 0.93432 0.90681 0.38906 0.0
H756 H 0.93219 0.87531 0.44899 0.0
H757 H 0.01406 0.86635 0.62314 0.0
H758 H 0.01227 0.91066 0.65717 0.0
H759 H 0.97008 0.93656 0.44883 0.0
C760 C 0.97945 0.83949 0.36481 0.0
C761 C 0.99278 0.81588 0.38438 0.0
C762 C 1.0044 0.81044 0.45712 0.0
C763 C 1.00424 0.82904 0.50755 0.0
C764 C 0.99222 0.85281 0.48432 0.0
C765 C 0.97974 0.85791 0.41499 0.0
C766 C 0.97056 0.88583 0.39975 0.0
C767 C 0.983 0.90102 0.32652 0.0
C768 C 0.94099 0.88631 0.39586 0.0
C769 C 0.98044 0.89597 0.47042 0.0
C770 C 0.99263 0.87656 0.51885 0.0
C771 C 1.00436 0.8816 0.58595 0.0
C772 C 1.0035 0.90705 0.60426 0.0
C773 C 0.99117 0.92735 0.55537 0.0
C774 C 0.97941 0.92152 0.48778 0.0
H775 H 0.67634 0.96584 0.26617 0.0
H776 H 0.72712 0.01357 0.38621 0.0
H777 H 0.69534 0.01006 0.4923 0.0
H778 H 0.62126 0.99692 0.30157 0.0
H779 H 0.60011 0.96834 0.31141 0.0
H780 H 0.6288 0.96961 0.25363 0.0
H781 H 0.64423 0.92655 0.33326 0.0
H782 H 0.61532 0.92481 0.39067 0.0
H783 H 0.64646 0.92408 0.43581 0.0
H784 H 0.65539 1.00655 0.57539 0.0
H785 H 0.61189 1.00185 0.63197 0.0
H786 H 0.58615 0.95901 0.45167 0.0
C787 C 0.6811 0.97496 0.3158 0.0
C788 C 0.7042 0.98997 0.31816 0.0
C789 C 0.70973 1.00168 0.38382 0.0
C790 C 0.69169 0.99992 0.44398 0.0
C791 C 0.66839 0.98628 0.43747 0.0
C792 C 0.66322 0.97375 0.37529 0.0
C793 C 0.63581 0.96284 0.37738 0.0
C794 C 0.62061 0.97517 0.30684 0.0
C795 C 0.63545 0.93278 0.38475 0.0
C796 C 0.62605 0.9717 0.44964 0.0
C797 C 0.64519 0.98492 0.48392 0.0
C798 C 0.64036 0.99603 0.54932 0.0
C799 C 0.6154 0.99351 0.58052 0.0
C800 C 0.59537 0.98019 0.54601 0.0
C801 C 0.601 0.96902 0.47995 0.0
H802 H 0.56023 0.64339 0.32718 0.0
H803 H 0.50262 0.69568 0.3906 0.0
H804 H 0.49085 0.6633 0.50377 0.0
H805 H 0.5249 0.58542 0.37355 0.0
H806 H 0.55114 0.5655 0.41249 0.0
H807 H 0.55748 0.59382 0.34152 0.0
H808 H 0.58956 0.6127 0.43242 0.0
H809 H 0.58373 0.58416 0.50328 0.0
H810 H 0.57922 0.61643 0.52746 0.0
H811 H 0.48069 0.62309 0.59619 0.0
H812 H 0.47736 0.57996 0.67745 0.0
H813 H 0.54353 0.55402 0.56157 0.0
C814 C 0.54567 0.64827 0.36629 0.0
C815 C 0.53241 0.67208 0.35068 0.0
C816 C 0.51327 0.67776 0.40235 0.0
C817 C 0.50633 0.65939 0.46631 0.0
C818 C 0.51905 0.63568 0.47839 0.0
C819 C 0.53878 0.6303 0.43111 0.0
C820 C 0.54874 0.60293 0.45588 0.0
C821 C 0.54535 0.58592 0.39205 0.0
C822 C 0.57699 0.60414 0.48129 0.0
C823 C 0.53097 0.59347 0.5231 0.0
C824 C 0.51387 0.61267 0.53441 0.0
C825 C 0.49428 0.60809 0.58892 0.0
C826 C 0.49237 0.58343 0.63415 0.0
C827 C 0.51016 0.56372 0.62552 0.0
C828 C 0.52981 0.56884 0.5695 0.0
H829 H 0.87341 0.55456 0.34863 0.0
H830 H 0.82017 0.49785 0.47593 0.0
H831 H 0.85055 0.49193 0.58376 0.0
H832 H 0.92846 0.52078 0.39759 0.0
H833 H 0.94917 0.54876 0.40597 0.0
H834 H 0.92163 0.55239 0.34404 0.0
H835 H 0.90447 0.5888 0.41516 0.0
H836 H 0.9322 0.58559 0.4768 0.0
H837 H 0.9002 0.58238 0.51754 0.0
H838 H 0.88897 0.48622 0.66647 0.0
H839 H 0.9318 0.48436 0.72667 0.0
H840 H 0.96072 0.54555 0.54933 0.0
C841 C 0.86787 0.54141 0.40006 0.0
C842 C 0.84433 0.52673 0.40402 0.0
C843 C 0.83782 0.50963 0.47205 0.0
C844 C 0.85506 0.50602 0.53341 0.0
C845 C 0.87857 0.51988 0.5262 0.0
C846 C 0.88485 0.53761 0.46189 0.0
C847 C 0.91221 0.54846 0.46634 0.0
C848 C 0.92884 0.54222 0.39953 0.0
C849 C 0.91226 0.57807 0.46915 0.0
C850 C 0.92067 0.53327 0.54195 0.0
C851 C 0.90085 0.51698 0.57539 0.0
C852 C 0.90444 0.49928 0.64178 0.0
C853 C 0.92886 0.4982 0.67508 0.0
C854 C 0.94936 0.51486 0.64249 0.0
C855 C 0.94518 0.5329 0.57568 0.0
loop_
_geom_bond_atom_site_label_1
_geom_bond_atom_site_label_2
_geom_bond_distance
_geom_bond_site_symmetry_2
_ccdc_geom_bond_type
H0 C3 0.929 . S
H1 C6 0.929 . S
H2 C8 0.930 . S
C3 H0 0.929 . S
C3 C4 1.398 . S
C3 C5 1.396 . S
C4 C3 1.398 . S
C4 C8 1.407 . S
C5 C3 1.396 . S
C5 C6 1.394 . S
C6 H1 0.929 . S
C6 C5 1.394 . S
C6 C7 1.382 . S
C7 C6 1.382 . S
C7 C8 1.392 . S
C7 N9 1.420 . S
C8 H2 0.930 . S
C8 C4 1.407 . S
C8 C7 1.392 . S
N9 C7 1.420 . S
N9 C10 1.244 . S
C10 N9 1.244 . S
H11 C14 0.929 . S
H12 C17 0.929 . S
H13 C19 0.930 . S
C14 H11 0.929 . S
C14 C15 1.398 . S
C14 C16 1.396 . S
C15 C14 1.398 . S
C15 C19 1.407 . S
C16 C14 1.396 . S
C16 C17 1.394 . S
C17 H12 0.929 . S
C17 C16 1.394 . S
C17 C18 1.382 . S
C18 C17 1.382 . S
C18 C19 1.392 . S
C18 N20 1.420 . S
C19 H13 0.930 . S
C19 C15 1.407 . S
C19 C18 1.392 . S
N20 C18 1.420 . S
N20 C21 1.244 . S
C21 N20 1.244 . S
H22 C25 0.929 . S
H23 C28 0.929 1_556 S
H24 C30 0.930 . S
C25 H22 0.929 . S
C25 C26 1.392 1_565 S
C25 C27 1.397 1_565 S
C26 C25 1.392 1_545 S
C26 C30 1.412 . S
C27 C25 1.397 1_545 S
C27 C28 1.396 . S
C28 H23 0.929 1_554 S
C28 C27 1.396 . S
C28 C29 1.382 . S
C29 C28 1.382 . S
C29 C30 1.392 . S
C29 N31 1.420 . S
C30 H24 0.930 . S
C30 C26 1.412 . S
C30 C29 1.392 . S
N31 C29 1.420 . S
N31 C32 1.228 1_545 S
C32 N31 1.228 1_565 S
H33 C36 0.929 . S
H34 C39 0.929 . S
H35 C41 0.930 . S
C36 H33 0.929 . S
C36 C37 1.398 . S
C36 C38 1.396 . S
C37 C36 1.398 . S
C37 C41 1.407 . S
C38 C36 1.396 . S
C38 C39 1.394 . S
C39 H34 0.929 . S
C39 C38 1.394 . S
C39 C40 1.382 . S
C40 C39 1.382 . S
C40 C41 1.392 . S
C40 N42 1.420 . S
C41 H35 0.930 . S
C41 C37 1.407 . S
C41 C40 1.392 . S
N42 C40 1.420 . S
N42 C43 1.244 . S
C43 N42 1.244 . S
H44 C47 0.929 . S
H45 C50 0.929 . S
H46 C52 0.930 . S
C47 H44 0.929 . S
C47 C48 1.398 . S
C47 C49 1.396 . S
C48 C47 1.398 . S
C48 C52 1.407 . S
C49 C47 1.396 . S
C49 C50 1.394 . S
C50 H45 0.929 . S
C50 C49 1.394 . S
C50 C51 1.382 . S
C51 C50 1.382 . S
C51 C52 1.392 . S
C51 N53 1.420 . S
C52 H46 0.930 . S
C52 C48 1.407 . S
C52 C51 1.392 . S
N53 C51 1.420 . S
N53 C54 1.244 . S
C54 N53 1.244 . S
H55 C58 0.929 . S
H56 C61 0.929 . S
H57 C63 0.930 . S
C58 H55 0.929 . S
C58 C59 1.398 . S
C58 C60 1.396 . S
C59 C58 1.398 . S
C59 C63 1.407 . S
C60 C58 1.396 . S
C60 C61 1.394 . S
C61 H56 0.929 . S
C61 C60 1.394 . S
C61 C62 1.382 . S
C62 C61 1.382 . S
C62 C63 1.392 . S
C62 N64 1.420 . S
C63 H57 0.930 . S
C63 C59 1.407 . S
C63 C62 1.392 . S
N64 C62 1.420 . S
N64 C65 1.244 . S
C65 N64 1.244 . S
H66 C69 0.929 . S
H67 C72 0.929 . S
H68 C74 0.930 . S
C69 H66 0.929 . S
C69 C70 1.399 1_565 S
C69 C71 1.390 1_565 S
C70 C69 1.399 1_545 S
C70 C74 1.418 . S
C71 C69 1.390 1_545 S
C71 C72 1.400 . S
C72 H67 0.929 . S
C72 C71 1.400 . S
C72 C73 1.382 . S
C73 C72 1.382 . S
C73 C74 1.392 . S
C73 N75 1.420 . S
C74 H68 0.930 . S
C74 C70 1.418 . S
C74 C73 1.392 . S
N75 C73 1.420 . S
N75 C76 1.239 1_545 S
C76 N75 1.239 1_565 S
H77 C80 0.929 . S
H78 C83 0.929 . S
H79 C85 0.930 . S
C80 H77 0.929 . S
C80 C81 1.398 . S
C80 C82 1.396 . S
C81 C80 1.398 . S
C81 C85 1.407 . S
C82 C80 1.396 . S
C82 C83 1.394 . S
C83 H78 0.929 . S
C83 C82 1.394 . S
C83 C84 1.382 . S
C84 C83 1.382 . S
C84 C85 1.392 . S
C84 N86 1.420 . S
C85 H79 0.930 . S
C85 C81 1.407 . S
C85 C84 1.392 . S
N86 C84 1.420 . S
N86 C87 1.244 . S
C87 N86 1.244 . S
Co88 N93 2.057 . S
Co88 O105 2.021 . S
Co88 O108 2.062 . S
Co88 O112 2.117 1_455 S
Co88 O113 2.020 1_545 S
C89 O109 1.259 1_545 S
C89 O112 1.258 . S
Co90 N99 2.057 . S
Co90 O106 2.117 1_655 S
Co90 O107 2.020 1_665 S
Co90 O109 2.021 . S
Co90 O114 2.062 . S
C91 N93 1.316 . S
C91 N94 1.347 1_556 S
C91 H96 0.931 . S
C92 N93 1.375 1_655 S
C92 C95 1.350 1_656 S
C92 H97 0.930 . S
N93 Co88 2.057 . S
N93 C91 1.316 . S
N93 C92 1.375 1_455 S
N94 C91 1.347 1_554 S
N94 C95 1.373 . S
C95 C92 1.350 1_454 S
C95 N94 1.373 . S
C95 H116 0.931 1_455 S
H96 C91 0.931 . S
H97 C92 0.930 . S
C98 O105 1.259 1_565 S
C98 O106 1.258 . S
N99 Co90 2.057 . S
N99 C100 1.316 . S
N99 C101 1.375 1_655 S
C100 N99 1.316 . S
C100 N102 1.347 . S
C100 H111 0.931 . S
C101 N99 1.375 1_455 S
C101 C103 1.350 . S
C101 H110 0.930 . S
N102 C100 1.347 . S
N102 C103 1.373 1_655 S
C103 C101 1.350 . S
C103 N102 1.373 1_455 S
C103 H117 0.931 . S
C104 O107 1.256 . S
C104 O108 1.255 . S
O105 Co88 2.021 . S
O105 C98 1.259 1_545 S
O106 Co90 2.117 1_455 S
O106 C98 1.258 . S
O107 Co90 2.020 1_445 S
O107 C104 1.256 . S
O108 Co88 2.062 . S
O108 C104 1.255 . S
O109 C89 1.259 1_565 S
O109 Co90 2.021 . S
H110 C101 0.930 . S
H111 C100 0.931 . S
O112 Co88 2.117 1_655 S
O112 C89 1.258 . S
O113 Co88 2.020 1_565 S
O113 C115 1.256 . S
O114 Co90 2.062 . S
O114 C115 1.255 1_655 S
C115 O113 1.256 . S
C115 O114 1.255 1_455 S
H116 C95 0.931 1_655 S
H117 C103 0.931 . S
Co118 N123 2.057 1_545 S
Co118 O135 2.021 . S
Co118 O138 2.067 . S
Co118 O142 2.117 1_545 S
Co118 O143 2.020 . S
C119 O139 1.259 . S
C119 O142 1.258 . S
Co120 N129 2.057 1_565 S
Co120 O136 2.117 1_565 S
Co120 O137 2.020 . S
Co120 O139 2.021 . S
Co120 O144 2.065 . S
C121 N123 1.316 1_545 S
C121 N124 1.347 1_556 S
C121 H126 0.931 . S
C122 N123 1.375 1_554 S
C122 C125 1.350 . S
C122 H127 0.930 . S
N123 Co118 2.057 1_565 S
N123 C121 1.316 1_565 S
N123 C122 1.375 1_556 S
N124 C121 1.347 1_554 S
N124 C125 1.373 1_545 S
C125 C122 1.350 . S
C125 N124 1.373 1_565 S
C125 H146 0.931 . S
H126 C121 0.931 . S
H127 C122 0.930 . S
C128 O135 1.259 . S
C128 O136 1.258 . S
N129 Co120 2.057 1_545 S
N129 C130 1.316 1_545 S
N129 C131 1.375 . S
C130 N129 1.316 1_565 S
C130 N132 1.347 . S
C130 H141 0.931 . S
C131 N129 1.375 . S
C131 C133 1.350 . S
C131 H140 0.930 . S
N132 C130 1.347 . S
N132 C133 1.373 1_565 S
C133 C131 1.350 . S
C133 N132 1.373 1_545 S
C133 H147 0.931 . S
C134 O137 1.256 . S
C134 O138 1.245 1_565 S
O135 Co118 2.021 . S
O135 C128 1.259 . S
O136 Co120 2.117 1_545 S
O136 C128 1.258 . S
O137 Co120 2.020 . S
O137 C134 1.256 . S
O138 Co118 2.067 . S
O138 C134 1.245 1_545 S
O139 C119 1.259 . S
O139 Co120 2.021 . S
H140 C131 0.930 . S
H141 C130 0.931 . S
O142 Co118 2.117 1_565 S
O142 C119 1.258 . S
O143 Co118 2.020 . S
O143 C145 1.256 . S
O144 Co120 2.065 . S
O144 C145 1.249 1_565 S
C145 O143 1.256 . S
C145 O144 1.249 1_545 S
H146 C125 0.931 . S
H147 C133 0.931 . S
Co148 N153 2.057 . S
Co148 O165 2.021 . S
Co148 O168 2.062 . S
Co148 O172 2.117 . S
Co148 O173 2.020 . S
C149 O169 1.259 . S
C149 O172 1.258 . S
Co150 N159 2.057 . S
Co150 O166 2.117 . S
Co150 O167 2.020 . S
Co150 O169 2.021 . S
Co150 O174 2.062 . S
C151 N153 1.316 . S
C151 N154 1.347 . S
C151 H156 0.931 . S
C152 N153 1.375 . S
C152 C155 1.350 . S
C152 H157 0.930 . S
N153 Co148 2.057 . S
N153 C151 1.316 . S
N153 C152 1.375 . S
N154 C151 1.347 . S
N154 C155 1.373 . S
C155 C152 1.350 . S
C155 N154 1.373 . S
C155 H176 0.931 . S
H156 C151 0.931 . S
H157 C152 0.930 . S
C158 O165 1.259 . S
C158 O166 1.258 . S
N159 Co150 2.057 . S
N159 C160 1.316 . S
N159 C161 1.375 . S
C160 N159 1.316 . S
C160 N162 1.347 . S
C160 H171 0.931 . S
C161 N159 1.375 . S
C161 C163 1.350 . S
C161 H170 0.930 . S
N162 C160 1.347 . S
N162 C163 1.373 . S
C163 C161 1.350 . S
C163 N162 1.373 . S
C163 H177 0.931 . S
C164 O167 1.256 . S
C164 O168 1.255 . S
O165 Co148 2.021 . S
O165 C158 1.259 . S
O166 Co150 2.117 . S
O166 C158 1.258 . S
O167 Co150 2.020 . S
O167 C164 1.256 . S
O168 Co148 2.062 . S
O168 C164 1.255 . S
O169 C149 1.259 . S
O169 Co150 2.021 . S
H170 C161 0.930 . S
H171 C160 0.931 . S
O172 Co148 2.117 . S
O172 C149 1.258 . S
O173 Co148 2.020 . S
O173 C175 1.256 . S
O174 Co150 2.062 . S
O174 C175 1.255 . S
C175 O173 1.256 . S
C175 O174 1.255 . S
H176 C155 0.931 . S
H177 C163 0.931 . S
Co178 N183 2.057 . S
Co178 O195 2.021 1_455 S
Co178 O198 2.062 1_455 S
Co178 O202 2.117 . S
Co178 O203 2.020 . S
C179 O199 1.259 . S
C179 O202 1.258 . S
Co180 N189 2.057 . S
Co180 O196 2.117 1_455 S
Co180 O197 2.020 1_455 S
Co180 O199 2.021 . S
Co180 O204 2.062 . S
C181 N183 1.316 1_655 S
C181 N184 1.348 . S
C181 H186 0.931 . S
C182 N183 1.375 . S
C182 C185 1.350 . S
C182 H187 0.930 . S
N183 Co178 2.057 . S
N183 C181 1.316 1_455 S
N183 C182 1.375 . S
N184 C181 1.348 . S
N184 C185 1.368 1_655 S
C185 C182 1.350 . S
C185 N184 1.368 1_455 S
C185 H206 0.931 . S
H186 C181 0.931 . S
H187 C182 0.930 . S
C188 O195 1.259 . S
C188 O196 1.258 . S
N189 Co180 2.057 . S
N189 C190 1.316 . S
N189 C191 1.375 1_455 S
C190 N189 1.316 . S
C190 N192 1.347 . S
C190 H201 0.931 . S
C191 N189 1.375 1_655 S
C191 C193 1.350 . S
C191 H200 0.930 . S
N192 C190 1.347 . S
N192 C193 1.373 1_455 S
C193 C191 1.350 . S
C193 N192 1.373 1_655 S
C193 H207 0.931 . S
C194 O197 1.256 . S
C194 O198 1.255 . S
O195 Co178 2.021 1_655 S
O195 C188 1.259 . S
O196 Co180 2.117 1_655 S
O196 C188 1.258 . S
O197 Co180 2.020 1_655 S
O197 C194 1.256 . S
O198 Co178 2.062 1_655 S
O198 C194 1.255 . S
O199 C179 1.259 . S
O199 Co180 2.021 . S
H200 C191 0.930 . S
H201 C190 0.931 . S
O202 Co178 2.117 . S
O202 C179 1.258 . S
O203 Co178 2.020 . S
O203 C205 1.256 . S
O204 Co180 2.062 . S
O204 C205 1.255 . S
C205 O203 1.256 . S
C205 O204 1.255 . S
H206 C185 0.931 . S
H207 C193 0.931 . S
H208 C220 0.930 . S
H209 C222 0.930 . S
H210 C223 0.930 . S
H211 C227 0.959 . S
H212 C227 0.959 . S
H213 C227 0.961 . S
H214 C228 0.960 . S
H215 C228 0.961 . S
H216 C228 0.959 . S
H217 C231 0.929 . S
H218 C232 0.931 . S
H219 C234 0.930 . S
C220 H208 0.930 . S
C220 C221 1.393 1_565 S
C220 C225 1.399 . S
C221 C220 1.393 1_545 S
C221 C222 1.384 . S
C222 H209 0.930 . S
C222 C221 1.384 . S
C222 C223 1.388 . S
C223 H210 0.930 . S
C223 C222 1.388 . S
C223 C224 1.390 . S
C224 C223 1.390 . S
C224 C225 1.394 1_545 S
C224 C230 1.465 . S
C225 C220 1.399 . S
C225 C224 1.394 1_565 S
C225 C226 1.516 . S
C226 C225 1.516 . S
C226 C227 1.502 . S
C226 C228 1.561 . S
C226 C229 1.526 . S
C227 H211 0.959 . S
C227 H212 0.959 . S
C227 H213 0.961 . S
C227 C226 1.502 . S
C228 H214 0.960 . S
C228 H215 0.961 . S
C228 H216 0.959 . S
C228 C226 1.561 . S
C229 C226 1.526 . S
C229 C230 1.396 1_565 S
C229 C234 1.390 . S
C230 C224 1.465 . S
C230 C229 1.396 1_545 S
C230 C231 1.399 . S
C231 H217 0.929 . S
C231 C230 1.399 . S
C231 C232 1.385 . S
C232 H218 0.931 . S
C232 C231 1.385 . S
C232 C233 1.389 1_545 S
C233 C232 1.389 1_565 S
C233 C234 1.387 . S
C234 H219 0.930 . S
C234 C229 1.390 . S
C234 C233 1.387 . S
H235 C247 0.930 . S
H236 C249 0.930 . S
H237 C250 0.930 . S
H238 C254 0.959 . S
H239 C254 0.959 . S
H240 C254 0.961 . S
H241 C255 0.960 . S
H242 C255 0.961 . S
H243 C255 0.959 . S
H244 C258 0.929 . S
H245 C259 0.931 . S
H246 C261 0.930 . S
C247 H235 0.930 . S
C247 C248 1.399 . S
C247 C252 1.399 . S
C248 C247 1.399 . S
C248 C249 1.376 . S
C249 H236 0.930 . S
C249 C248 1.376 . S
C249 C250 1.388 . S
C250 H237 0.930 . S
C250 C249 1.388 . S
C250 C251 1.390 . S
C251 C250 1.390 . S
C251 C252 1.394 . S
C251 C257 1.465 . S
C252 C247 1.399 . S
C252 C251 1.394 . S
C252 C253 1.516 . S
C253 C252 1.516 . S
C253 C254 1.502 . S
C253 C255 1.561 . S
C253 C256 1.526 . S
C254 H238 0.959 . S
C254 H239 0.959 . S
C254 H240 0.961 . S
C254 C253 1.502 . S
C255 H241 0.960 . S
C255 H242 0.961 . S
C255 H243 0.959 . S
C255 C253 1.561 . S
C256 C253 1.526 . S
C256 C257 1.396 . S
C256 C261 1.390 . S
C257 C251 1.465 . S
C257 C256 1.396 . S
C257 C258 1.399 . S
C258 H244 0.929 . S
C258 C257 1.399 . S
C258 C259 1.385 . S
C259 H245 0.931 . S
C259 C258 1.385 . S
C259 C260 1.389 . S
C260 C259 1.389 . S
C260 C261 1.387 . S
C261 H246 0.930 . S
C261 C256 1.390 . S
C261 C260 1.387 . S
H262 C274 0.930 . S
H263 C276 0.930 . S
H264 C277 0.930 . S
H265 C281 0.959 . S
H266 C281 0.959 . S
H267 C281 0.961 . S
H268 C282 0.960 . S
H269 C282 0.961 . S
H270 C282 0.959 . S
H271 C285 0.929 . S
H272 C286 0.931 . S
H273 C288 0.930 . S
C274 H262 0.930 . S
C274 C275 1.399 . S
C274 C279 1.399 . S
C275 C274 1.399 . S
C275 C276 1.376 . S
C276 H263 0.930 . S
C276 C275 1.376 . S
C276 C277 1.388 . S
C277 H264 0.930 . S
C277 C276 1.388 . S
C277 C278 1.390 . S
C278 C277 1.390 . S
C278 C279 1.394 . S
C278 C284 1.465 . S
C279 C274 1.399 . S
C279 C278 1.394 . S
C279 C280 1.516 . S
C280 C279 1.516 . S
C280 C281 1.502 . S
C280 C282 1.561 . S
C280 C283 1.526 . S
C281 H265 0.959 . S
C281 H266 0.959 . S
C281 H267 0.961 . S
C281 C280 1.502 . S
C282 H268 0.960 . S
C282 H269 0.961 . S
C282 H270 0.959 . S
C282 C280 1.561 . S
C283 C280 1.526 . S
C283 C284 1.396 . S
C283 C288 1.390 . S
C284 C278 1.465 . S
C284 C283 1.396 . S
C284 C285 1.399 . S
C285 H271 0.929 . S
C285 C284 1.399 . S
C285 C286 1.385 . S
C286 H272 0.931 . S
C286 C285 1.385 . S
C286 C287 1.389 . S
C287 C286 1.389 . S
C287 C288 1.387 . S
C288 H273 0.930 . S
C288 C283 1.390 . S
C288 C287 1.387 . S
H289 C301 0.930 . S
H290 C303 0.930 . S
H291 C304 0.930 . S
H292 C308 0.959 . S
H293 C308 0.959 . S
H294 C308 0.961 . S
H295 C309 0.960 . S
H296 C309 0.963 1_655 S
H297 C309 0.959 . S
H298 C312 0.929 . S
H299 C313 0.931 . S
H300 C315 0.930 1_655 S
C301 H289 0.930 . S
C301 C302 1.399 . S
C301 C306 1.399 . S
C302 C301 1.399 . S
C302 C303 1.376 . S
C303 H290 0.930 . S
C303 C302 1.376 . S
C303 C304 1.388 . S
C304 H291 0.930 . S
C304 C303 1.388 . S
C304 C305 1.390 . S
C305 C304 1.390 . S
C305 C306 1.394 . S
C305 C311 1.465 . S
C306 C301 1.399 . S
C306 C305 1.394 . S
C306 C307 1.516 . S
C307 C306 1.516 . S
C307 C308 1.502 1_455 S
C307 C309 1.561 . S
C307 C310 1.526 . S
C308 H292 0.959 . S
C308 H293 0.959 . S
C308 H294 0.961 . S
C308 C307 1.502 1_655 S
C309 H295 0.960 . S
C309 H296 0.963 1_455 S
C309 H297 0.959 . S
C309 C307 1.561 . S
C310 C307 1.526 . S
C310 C311 1.396 . S
C310 C315 1.390 . S
C311 C305 1.465 . S
C311 C310 1.396 . S
C311 C312 1.399 . S
C312 H298 0.929 . S
C312 C311 1.399 . S
C312 C313 1.385 . S
C313 H299 0.931 . S
C313 C312 1.385 . S
C313 C314 1.389 . S
C314 C313 1.389 . S
C314 C315 1.387 . S
C315 H300 0.930 1_455 S
C315 C310 1.390 . S
C315 C314 1.387 . S
H316 C328 0.930 1_554 S
H317 C330 0.930 . S
H318 C331 0.930 . S
H319 C335 0.959 . S
H320 C335 0.959 . S
H321 C335 0.961 . S
H322 C336 0.960 . S
H323 C336 0.961 . S
H324 C336 0.959 . S
H325 C339 0.929 . S
H326 C340 0.931 . S
H327 C342 0.930 . S
C328 H316 0.930 1_556 S
C328 C329 1.399 1_565 S
C328 C333 1.399 . S
C329 C328 1.399 1_545 S
C329 C330 1.376 . S
C330 H317 0.930 . S
C330 C329 1.376 . S
C330 C331 1.388 . S
C331 H318 0.930 . S
C331 C330 1.388 . S
C331 C332 1.390 . S
C332 C331 1.390 . S
C332 C333 1.394 1_545 S
C332 C338 1.465 . S
C333 C328 1.399 . S
C333 C332 1.394 1_565 S
C333 C334 1.516 . S
C334 C333 1.516 . S
C334 C335 1.502 1_556 S
C334 C336 1.561 . S
C334 C337 1.526 . S
C335 H319 0.959 . S
C335 H320 0.959 . S
C335 H321 0.961 . S
C335 C334 1.502 1_554 S
C336 H322 0.960 . S
C336 H323 0.961 . S
C336 H324 0.959 . S
C336 C334 1.561 . S
C337 C334 1.526 . S
C337 C338 1.396 1_565 S
C337 C342 1.390 . S
C338 C332 1.465 . S
C338 C337 1.396 1_545 S
C338 C339 1.399 . S
C339 H325 0.929 . S
C339 C338 1.399 . S
C339 C340 1.385 . S
C340 H326 0.931 . S
C340 C339 1.385 . S
C340 C341 1.389 . S
C341 C340 1.389 . S
C341 C342 1.387 1_545 S
C342 H327 0.930 . S
C342 C337 1.390 . S
C342 C341 1.387 1_565 S
H343 C355 0.930 . S
H344 C357 0.930 . S
H345 C358 0.930 . S
H346 C362 0.959 . S
H347 C362 0.959 . S
H348 C362 0.961 . S
H349 C363 0.960 . S
H350 C363 0.961 . S
H351 C363 0.959 . S
H352 C366 0.929 1_554 S
H353 C367 0.931 . S
H354 C369 0.930 . S
C355 H343 0.930 . S
C355 C356 1.399 1_556 S
C355 C360 1.399 . S
C356 C355 1.399 1_554 S
C356 C357 1.376 . S
C357 H344 0.930 . S
C357 C356 1.376 . S
C357 C358 1.388 . S
C358 H345 0.930 . S
C358 C357 1.388 . S
C358 C359 1.390 1_554 S
C359 C358 1.390 1_556 S
C359 C360 1.394 . S
C359 C365 1.465 . S
C360 C355 1.399 . S
C360 C359 1.394 . S
C360 C361 1.516 . S
C361 C360 1.516 . S
C361 C362 1.502 . S
C361 C363 1.561 . S
C361 C364 1.526 . S
C362 H346 0.959 . S
C362 H347 0.959 . S
C362 H348 0.961 . S
C362 C361 1.502 . S
C363 H349 0.960 . S
C363 H350 0.961 . S
C363 H351 0.959 . S
C363 C361 1.561 . S
C364 C361 1.526 . S
C364 C365 1.396 . S
C364 C369 1.390 . S
C365 C359 1.465 . S
C365 C364 1.396 . S
C365 C366 1.399 . S
C366 H352 0.929 1_556 S
C366 C365 1.399 . S
C366 C367 1.385 . S
C367 H353 0.931 . S
C367 C366 1.385 . S
C367 C368 1.389 . S
C368 C367 1.389 . S
C368 C369 1.387 . S
C369 H354 0.930 . S
C369 C364 1.390 . S
C369 C368 1.387 . S
H370 C382 0.930 . S
H371 C384 0.930 . S
H372 C385 0.930 . S
H373 C389 0.959 . S
H374 C389 0.959 . S
H375 C389 0.961 . S
H376 C390 0.960 . S
H377 C390 0.961 . S
H378 C390 0.959 . S
H379 C393 0.929 . S
H380 C394 0.931 . S
H381 C396 0.930 . S
C382 H370 0.930 . S
C382 C383 1.399 . S
C382 C387 1.399 . S
C383 C382 1.399 . S
C383 C384 1.376 . S
C384 H371 0.930 . S
C384 C383 1.376 . S
C384 C385 1.388 1_554 S
C385 H372 0.930 . S
C385 C384 1.388 1_556 S
C385 C386 1.390 1_556 S
C386 C385 1.390 1_554 S
C386 C387 1.394 . S
C386 C392 1.465 1_554 S
C387 C382 1.399 . S
C387 C386 1.394 . S
C387 C388 1.516 . S
C388 C387 1.516 . S
C388 C389 1.502 . S
C388 C390 1.561 . S
C388 C391 1.526 1_554 S
C389 H373 0.959 . S
C389 H374 0.959 . S
C389 H375 0.961 . S
C389 C388 1.502 . S
C390 H376 0.960 . S
C390 H377 0.961 . S
C390 H378 0.959 . S
C390 C388 1.561 . S
C391 C388 1.526 1_556 S
C391 C392 1.396 . S
C391 C396 1.390 . S
C392 C386 1.465 1_556 S
C392 C391 1.396 . S
C392 C393 1.399 . S
C393 H379 0.929 . S
C393 C392 1.399 . S
C393 C394 1.385 . S
C394 H380 0.931 . S
C394 C393 1.385 . S
C394 C395 1.389 . S
C395 C394 1.389 . S
C395 C396 1.387 . S
C396 H381 0.930 . S
C396 C391 1.390 . S
C396 C395 1.387 . S
H397 C409 0.930 . S
H398 C411 0.930 . S
H399 C412 0.930 . S
H400 C416 0.959 1_556 S
H401 C416 0.959 . S
H402 C416 0.961 . S
H403 C417 0.960 . S
H404 C417 0.961 . S
H405 C417 0.959 . S
H406 C420 0.929 . S
H407 C421 0.931 . S
H408 C423 0.930 1_455 S
C409 H397 0.930 . S
C409 C410 1.399 . S
C409 C414 1.399 . S
C410 C409 1.399 . S
C410 C411 1.376 1_554 S
C411 H398 0.930 . S
C411 C410 1.376 1_556 S
C411 C412 1.388 . S
C412 H399 0.930 . S
C412 C411 1.388 . S
C412 C413 1.390 . S
C413 C412 1.390 . S
C413 C414 1.394 1_556 S
C413 C419 1.465 . S
C414 C409 1.399 . S
C414 C413 1.394 1_554 S
C414 C415 1.516 . S
C415 C414 1.516 . S
C415 C416 1.502 1_655 S
C415 C417 1.561 . S
C415 C418 1.526 1_554 S
C416 H400 0.959 1_554 S
C416 H401 0.959 . S
C416 H402 0.961 . S
C416 C415 1.502 1_455 S
C417 H403 0.960 . S
C417 H404 0.961 . S
C417 H405 0.959 . S
C417 C415 1.561 . S
C418 C415 1.526 1_556 S
C418 C419 1.396 . S
C418 C423 1.390 . S
C419 C413 1.465 . S
C419 C418 1.396 . S
C419 C420 1.399 . S
C420 H406 0.929 . S
C420 C419 1.399 . S
C420 C421 1.385 . S
C421 H407 0.931 . S
C421 C420 1.385 . S
C421 C422 1.389 . S
C422 C421 1.389 . S
C422 C423 1.387 . S
C423 H408 0.930 1_655 S
C423 C418 1.390 . S
C423 C422 1.387 . S
H424 C436 0.930 . S
H425 C438 0.930 . S
H426 C439 0.930 . S
H427 C443 0.959 . S
H428 C443 0.959 . S
H429 C443 0.961 . S
H430 C444 0.960 . S
H431 C444 0.961 1_655 S
H432 C444 0.959 . S
H433 C447 0.929 . S
H434 C448 0.931 . S
H435 C450 0.930 1_655 S
C436 H424 0.930 . S
C436 C437 1.399 . S
C436 C441 1.399 . S
C437 C436 1.399 . S
C437 C438 1.376 . S
C438 H425 0.930 . S
C438 C437 1.376 . S
C438 C439 1.388 . S
C439 H426 0.930 . S
C439 C438 1.388 . S
C439 C440 1.390 . S
C440 C439 1.390 . S
C440 C441 1.394 . S
C440 C446 1.465 . S
C441 C436 1.399 . S
C441 C440 1.394 . S
C441 C442 1.516 . S
C442 C441 1.516 . S
C442 C443 1.502 1_455 S
C442 C444 1.561 . S
C442 C445 1.526 . S
C443 H427 0.959 . S
C443 H428 0.959 . S
C443 H429 0.961 . S
C443 C442 1.502 1_655 S
C444 H430 0.960 . S
C444 H431 0.961 1_455 S
C444 H432 0.959 . S
C444 C442 1.561 . S
C445 C442 1.526 . S
C445 C446 1.396 . S
C445 C450 1.390 . S
C446 C440 1.465 . S
C446 C445 1.396 . S
C446 C447 1.399 . S
C447 H433 0.929 . S
C447 C446 1.399 . S
C447 C448 1.385 . S
C448 H434 0.931 . S
C448 C447 1.385 . S
C448 C449 1.389 . S
C449 C448 1.389 . S
C449 C450 1.387 . S
C450 H435 0.930 1_455 S
C450 C445 1.390 . S
C450 C449 1.387 . S
H451 C463 0.930 . S
H452 C465 0.930 . S
H453 C466 0.930 . S
H454 C470 0.959 . S
H455 C470 0.959 . S
H456 C470 0.961 . S
H457 C471 0.960 . S
H458 C471 0.961 . S
H459 C471 0.959 . S
H460 C474 0.929 . S
H461 C475 0.931 . S
H462 C477 0.930 . S
C463 H451 0.930 . S
C463 C464 1.399 1_545 S
C463 C468 1.399 . S
C464 C463 1.399 1_565 S
C464 C465 1.376 . S
C465 H452 0.930 . S
C465 C464 1.376 . S
C465 C466 1.388 . S
C466 H453 0.930 . S
C466 C465 1.388 . S
C466 C467 1.390 . S
C467 C466 1.390 . S
C467 C468 1.394 1_565 S
C467 C473 1.465 . S
C468 C463 1.399 . S
C468 C467 1.394 1_545 S
C468 C469 1.516 . S
C469 C468 1.516 . S
C469 C470 1.502 . S
C469 C471 1.561 . S
C469 C472 1.526 . S
C470 H454 0.959 . S
C470 H455 0.959 . S
C470 H456 0.961 . S
C470 C469 1.502 . S
C471 H457 0.960 . S
C471 H458 0.961 . S
C471 H459 0.959 . S
C471 C469 1.561 . S
C472 C469 1.526 . S
C472 C473 1.396 1_545 S
C472 C477 1.390 . S
C473 C467 1.465 . S
C473 C472 1.396 1_565 S
C473 C474 1.399 . S
C474 H460 0.929 . S
C474 C473 1.399 . S
C474 C475 1.385 . S
C475 H461 0.931 . S
C475 C474 1.385 . S
C475 C476 1.389 . S
C476 C475 1.389 . S
C476 C477 1.387 1_565 S
C477 H462 0.930 . S
C477 C472 1.390 . S
C477 C476 1.387 1_545 S
H478 C490 0.930 . S
H479 C492 0.930 . S
H480 C493 0.930 . S
H481 C497 0.959 . S
H482 C497 0.959 . S
H483 C497 0.961 . S
H484 C498 0.960 . S
H485 C498 0.961 . S
H486 C498 0.959 . S
H487 C501 0.929 . S
H488 C502 0.931 . S
H489 C504 0.930 . S
C490 H478 0.930 . S
C490 C491 1.399 . S
C490 C495 1.399 . S
C491 C490 1.399 . S
C491 C492 1.376 . S
C492 H479 0.930 . S
C492 C491 1.376 . S
C492 C493 1.388 . S
C493 H480 0.930 . S
C493 C492 1.388 . S
C493 C494 1.390 . S
C494 C493 1.390 . S
C494 C495 1.394 . S
C494 C500 1.465 . S
C495 C490 1.399 . S
C495 C494 1.394 . S
C495 C496 1.516 . S
C496 C495 1.516 . S
C496 C497 1.502 . S
C496 C498 1.561 . S
C496 C499 1.526 . S
C497 H481 0.959 . S
C497 H482 0.959 . S
C497 H483 0.961 . S
C497 C496 1.502 . S
C498 H484 0.960 . S
C498 H485 0.961 . S
C498 H486 0.959 . S
C498 C496 1.561 . S
C499 C496 1.526 . S
C499 C500 1.396 . S
C499 C504 1.390 . S
C500 C494 1.465 . S
C500 C499 1.396 . S
C500 C501 1.399 . S
C501 H487 0.929 . S
C501 C500 1.399 . S
C501 C502 1.385 . S
C502 H488 0.931 . S
C502 C501 1.385 . S
C502 C503 1.389 . S
C503 C502 1.389 . S
C503 C504 1.387 . S
C504 H489 0.930 . S
C504 C499 1.390 . S
C504 C503 1.387 . S
H505 C517 0.930 . S
H506 C519 0.930 . S
H507 C520 0.930 . S
H508 C524 0.959 . S
H509 C524 0.959 . S
H510 C524 0.961 . S
H511 C525 0.960 . S
H512 C525 0.961 . S
H513 C525 0.959 . S
H514 C528 0.929 . S
H515 C529 0.931 . S
H516 C531 0.930 . S
C517 H505 0.930 . S
C517 C518 1.399 . S
C517 C522 1.399 . S
C518 C517 1.399 . S
C518 C519 1.376 . S
C519 H506 0.930 . S
C519 C518 1.376 . S
C519 C520 1.388 . S
C520 H507 0.930 . S
C520 C519 1.388 . S
C520 C521 1.390 . S
C521 C520 1.390 . S
C521 C522 1.394 . S
C521 C527 1.465 . S
C522 C517 1.399 . S
C522 C521 1.394 . S
C522 C523 1.516 . S
C523 C522 1.516 . S
C523 C524 1.502 . S
C523 C525 1.561 . S
C523 C526 1.526 . S
C524 H508 0.959 . S
C524 H509 0.959 . S
C524 H510 0.961 . S
C524 C523 1.502 . S
C525 H511 0.960 . S
C525 H512 0.961 . S
C525 H513 0.959 . S
C525 C523 1.561 . S
C526 C523 1.526 . S
C526 C527 1.396 . S
C526 C531 1.390 . S
C527 C521 1.465 . S
C527 C526 1.396 . S
C527 C528 1.399 . S
C528 H514 0.929 . S
C528 C527 1.399 . S
C528 C529 1.385 . S
C529 H515 0.931 . S
C529 C528 1.385 . S
C529 C530 1.389 . S
C530 C529 1.389 . S
C530 C531 1.387 . S
C531 H516 0.930 . S
C531 C526 1.390 . S
C531 C530 1.387 . S
H532 C544 0.930 . S
H533 C546 0.930 . S
H534 C547 0.930 . S
H535 C551 0.959 . S
H536 C551 0.959 1_556 S
H537 C551 0.961 . S
H538 C552 0.960 . S
H539 C552 0.961 . S
H540 C552 0.959 1_655 S
H541 C555 0.929 . S
H542 C556 0.931 . S
H543 C558 0.930 . S
C544 H532 0.930 . S
C544 C545 1.399 . S
C544 C549 1.399 1_554 S
C545 C544 1.399 . S
C545 C546 1.376 . S
C546 H533 0.930 . S
C546 C545 1.376 . S
C546 C547 1.388 1_554 S
C547 H534 0.930 . S
C547 C546 1.388 1_556 S
C547 C548 1.390 . S
C548 C547 1.390 . S
C548 C549 1.394 . S
C548 C554 1.465 . S
C549 C544 1.399 1_556 S
C549 C548 1.394 . S
C549 C550 1.516 1_655 S
C550 C549 1.516 1_455 S
C550 C551 1.502 1_556 S
C550 C552 1.561 . S
C550 C553 1.526 1_455 S
C551 H535 0.959 . S
C551 H536 0.959 1_554 S
C551 H537 0.961 . S
C551 C550 1.502 1_554 S
C552 H538 0.960 . S
C552 H539 0.961 . S
C552 H540 0.959 1_455 S
C552 C550 1.561 . S
C553 C550 1.526 1_655 S
C553 C554 1.396 . S
C553 C558 1.390 1_655 S
C554 C548 1.465 . S
C554 C553 1.396 . S
C554 C555 1.399 . S
C555 H541 0.929 . S
C555 C554 1.399 . S
C555 C556 1.385 . S
C556 H542 0.931 . S
C556 C555 1.385 . S
C556 C557 1.343 1_655 S
C557 C556 1.343 1_455 S
C557 C558 1.406 . S
C558 H543 0.930 . S
C558 C553 1.390 1_455 S
C558 C557 1.406 . S
H559 C571 0.930 . S
H560 C573 0.930 . S
H561 C574 0.930 . S
H562 C578 0.959 . S
H563 C578 0.959 . S
H564 C578 0.961 . S
H565 C579 0.960 . S
H566 C579 0.961 . S
H567 C579 0.959 . S
H568 C582 0.929 . S
H569 C583 0.931 . S
H570 C585 0.930 . S
C571 H559 0.930 . S
C571 C572 1.399 1_545 S
C571 C576 1.399 . S
C572 C571 1.399 1_565 S
C572 C573 1.376 . S
C573 H560 0.930 . S
C573 C572 1.376 . S
C573 C574 1.388 . S
C574 H561 0.930 . S
C574 C573 1.388 . S
C574 C575 1.390 . S
C575 C574 1.390 . S
C575 C576 1.394 1_565 S
C575 C581 1.465 . S
C576 C571 1.399 . S
C576 C575 1.394 1_545 S
C576 C577 1.516 . S
C577 C576 1.516 . S
C577 C578 1.502 1_556 S
C577 C579 1.561 . S
C577 C580 1.526 . S
C578 H562 0.959 . S
C578 H563 0.959 . S
C578 H564 0.961 . S
C578 C577 1.502 1_554 S
C579 H565 0.960 . S
C579 H566 0.961 . S
C579 H567 0.959 . S
C579 C577 1.561 . S
C580 C577 1.526 . S
C580 C581 1.396 1_545 S
C580 C585 1.390 . S
C581 C575 1.465 . S
C581 C580 1.396 1_565 S
C581 C582 1.399 . S
C582 H568 0.929 . S
C582 C581 1.399 . S
C582 C583 1.385 . S
C583 H569 0.931 . S
C583 C582 1.385 . S
C583 C584 1.389 1_565 S
C584 C583 1.389 1_545 S
C584 C585 1.387 . S
C585 H570 0.930 . S
C585 C580 1.390 . S
C585 C584 1.387 . S
H586 C598 0.930 . S
H587 C600 0.930 . S
H588 C601 0.930 . S
H589 C605 0.959 1_556 S
H590 C605 0.959 . S
H591 C605 0.961 . S
H592 C606 0.960 . S
H593 C606 0.961 . S
H594 C606 0.959 . S
H595 C609 0.929 . S
H596 C610 0.931 . S
H597 C612 0.930 . S
C598 H586 0.930 . S
C598 C599 1.399 . S
C598 C603 1.399 . S
C599 C598 1.399 . S
C599 C600 1.376 1_554 S
C600 H587 0.930 . S
C600 C599 1.376 1_556 S
C600 C601 1.388 . S
C601 H588 0.930 . S
C601 C600 1.388 . S
C601 C602 1.390 . S
C602 C601 1.390 . S
C602 C603 1.394 1_556 S
C602 C608 1.465 . S
C603 C598 1.399 . S
C603 C602 1.394 1_554 S
C603 C604 1.516 . S
C604 C603 1.516 . S
C604 C605 1.502 . S
C604 C606 1.561 . S
C604 C607 1.526 1_554 S
C605 H589 0.959 1_554 S
C605 H590 0.959 . S
C605 H591 0.961 . S
C605 C604 1.502 . S
C606 H592 0.960 . S
C606 H593 0.961 . S
C606 H594 0.959 . S
C606 C604 1.561 . S
C607 C604 1.526 1_556 S
C607 C608 1.396 . S
C607 C612 1.390 . S
C608 C602 1.465 . S
C608 C607 1.396 . S
C608 C609 1.399 . S
C609 H595 0.929 . S
C609 C608 1.399 . S
C609 C610 1.385 . S
C610 H596 0.931 . S
C610 C609 1.385 . S
C610 C611 1.389 . S
C611 C610 1.389 . S
C611 C612 1.387 . S
C612 H597 0.930 . S
C612 C607 1.390 . S
C612 C611 1.387 . S
H613 C625 0.930 . S
H614 C627 0.930 . S
H615 C628 0.930 . S
H616 C632 0.959 . S
H617 C632 0.959 . S
H618 C632 0.961 . S
H619 C633 0.960 . S
H620 C633 0.961 . S
H621 C633 0.959 1_554 S
H622 C636 0.929 . S
H623 C637 0.931 . S
H624 C639 0.930 . S
C625 H613 0.930 . S
C625 C626 1.399 . S
C625 C630 1.399 . S
C626 C625 1.399 . S
C626 C627 1.376 . S
C627 H614 0.930 . S
C627 C626 1.376 . S
C627 C628 1.388 . S
C628 H615 0.930 . S
C628 C627 1.388 . S
C628 C629 1.390 . S
C629 C628 1.390 . S
C629 C630 1.394 . S
C629 C635 1.465 . S
C630 C625 1.399 . S
C630 C629 1.394 . S
C630 C631 1.516 1_554 S
C631 C630 1.516 1_556 S
C631 C632 1.502 . S
C631 C633 1.561 . S
C631 C634 1.526 . S
C632 H616 0.959 . S
C632 H617 0.959 . S
C632 H618 0.961 . S
C632 C631 1.502 . S
C633 H619 0.960 . S
C633 H620 0.961 . S
C633 H621 0.959 1_556 S
C633 C631 1.561 . S
C634 C631 1.526 . S
C634 C635 1.396 1_556 S
C634 C639 1.390 . S
C635 C629 1.465 . S
C635 C634 1.396 1_554 S
C635 C636 1.399 . S
C636 H622 0.929 . S
C636 C635 1.399 . S
C636 C637 1.385 1_554 S
C637 H623 0.931 . S
C637 C636 1.385 1_556 S
C637 C638 1.389 . S
C638 C637 1.389 . S
C638 C639 1.387 . S
C639 H624 0.930 . S
C639 C634 1.390 . S
C639 C638 1.387 . S
H640 C652 0.930 . S
H641 C654 0.930 . S
H642 C655 0.930 . S
H643 C659 0.959 . S
H644 C659 0.959 . S
H645 C659 0.961 . S
H646 C660 0.960 . S
H647 C660 0.961 . S
H648 C660 0.959 . S
H649 C663 0.929 . S
H650 C664 0.931 . S
H651 C666 0.930 . S
C652 H640 0.930 . S
C652 C653 1.399 . S
C652 C657 1.399 . S
C653 C652 1.399 . S
C653 C654 1.376 . S
C654 H641 0.930 . S
C654 C653 1.376 . S
C654 C655 1.388 . S
C655 H642 0.930 . S
C655 C654 1.388 . S
C655 C656 1.390 . S
C656 C655 1.390 . S
C656 C657 1.394 . S
C656 C662 1.465 . S
C657 C652 1.399 . S
C657 C656 1.394 . S
C657 C658 1.516 . S
C658 C657 1.516 . S
C658 C659 1.502 . S
C658 C660 1.561 . S
C658 C661 1.526 . S
C659 H643 0.959 . S
C659 H644 0.959 . S
C659 H645 0.961 . S
C659 C658 1.502 . S
C660 H646 0.960 . S
C660 H647 0.961 . S
C660 H648 0.959 . S
C660 C658 1.561 . S
C661 C658 1.526 . S
C661 C662 1.396 . S
C661 C666 1.390 . S
C662 C656 1.465 . S
C662 C661 1.396 . S
C662 C663 1.399 . S
C663 H649 0.929 . S
C663 C662 1.399 . S
C663 C664 1.385 . S
C664 H650 0.931 . S
C664 C663 1.385 . S
C664 C665 1.389 . S
C665 C664 1.389 . S
C665 C666 1.387 . S
C666 H651 0.930 . S
C666 C661 1.390 . S
C666 C665 1.387 . S
H667 C679 0.930 . S
H668 C681 0.930 . S
H669 C682 0.930 . S
H670 C686 0.959 . S
H671 C686 0.959 . S
H672 C686 0.961 . S
H673 C687 0.960 . S
H674 C687 0.961 . S
H675 C687 0.959 . S
H676 C690 0.929 . S
H677 C691 0.931 . S
H678 C693 0.930 . S
C679 H667 0.930 . S
C679 C680 1.399 1_565 S
C679 C684 1.399 . S
C680 C679 1.399 1_545 S
C680 C681 1.376 . S
C681 H668 0.930 . S
C681 C680 1.376 . S
C681 C682 1.388 . S
C682 H669 0.930 . S
C682 C681 1.388 . S
C682 C683 1.390 . S
C683 C682 1.390 . S
C683 C684 1.394 1_545 S
C683 C689 1.465 . S
C684 C679 1.399 . S
C684 C683 1.394 1_565 S
C684 C685 1.516 . S
C685 C684 1.516 . S
C685 C686 1.502 . S
C685 C687 1.561 . S
C685 C688 1.526 . S
C686 H670 0.959 . S
C686 H671 0.959 . S
C686 H672 0.961 . S
C686 C685 1.502 . S
C687 H673 0.960 . S
C687 H674 0.961 . S
C687 H675 0.959 . S
C687 C685 1.561 . S
C688 C685 1.526 . S
C688 C689 1.396 1_565 S
C688 C693 1.390 . S
C689 C683 1.465 . S
C689 C688 1.396 1_545 S
C689 C690 1.399 . S
C690 H676 0.929 . S
C690 C689 1.399 . S
C690 C691 1.385 . S
C691 H677 0.931 . S
C691 C690 1.385 . S
C691 C692 1.389 . S
C692 C691 1.389 . S
C692 C693 1.387 1_545 S
C693 H678 0.930 . S
C693 C688 1.390 . S
C693 C692 1.387 1_565 S
H694 C706 0.930 . S
H695 C708 0.930 . S
H696 C709 0.930 . S
H697 C713 0.959 . S
H698 C713 0.959 . S
H699 C713 0.961 . S
H700 C714 0.960 . S
H701 C714 0.961 1_556 S
H702 C714 0.959 . S
H703 C717 0.929 . S
H704 C718 0.931 . S
H705 C720 0.930 1_556 S
C706 H694 0.930 . S
C706 C707 1.399 . S
C706 C711 1.399 . S
C707 C706 1.399 . S
C707 C708 1.376 . S
C708 H695 0.930 . S
C708 C707 1.376 . S
C708 C709 1.388 . S
C709 H696 0.930 . S
C709 C708 1.388 . S
C709 C710 1.390 . S
C710 C709 1.390 . S
C710 C711 1.394 . S
C710 C716 1.465 . S
C711 C706 1.399 . S
C711 C710 1.394 . S
C711 C712 1.516 . S
C712 C711 1.516 . S
C712 C713 1.502 . S
C712 C714 1.561 . S
C712 C715 1.526 . S
C713 H697 0.959 . S
C713 H698 0.959 . S
C713 H699 0.961 . S
C713 C712 1.502 . S
C714 H700 0.960 . S
C714 H701 0.961 1_554 S
C714 H702 0.959 . S
C714 C712 1.561 . S
C715 C712 1.526 . S
C715 C716 1.396 . S
C715 C720 1.390 . S
C716 C710 1.465 . S
C716 C715 1.396 . S
C716 C717 1.399 . S
C717 H703 0.929 . S
C717 C716 1.399 . S
C717 C718 1.385 . S
C718 H704 0.931 . S
C718 C717 1.385 . S
C718 C719 1.389 1_554 S
C719 C718 1.389 1_556 S
C719 C720 1.387 1_556 S
C720 H705 0.930 1_554 S
C720 C715 1.390 . S
C720 C719 1.387 1_554 S
H721 C733 0.930 . S
H722 C735 0.930 . S
H723 C736 0.930 . S
H724 C740 0.959 . S
H725 C740 0.959 . S
H726 C740 0.961 . S
H727 C741 0.960 . S
H728 C741 0.961 . S
H729 C741 0.959 . S
H730 C744 0.929 . S
H731 C745 0.931 . S
H732 C747 0.930 . S
C733 H721 0.930 . S
C733 C734 1.399 . S
C733 C738 1.399 . S
C734 C733 1.399 . S
C734 C735 1.376 . S
C735 H722 0.930 . S
C735 C734 1.376 . S
C735 C736 1.388 . S
C736 H723 0.930 . S
C736 C735 1.388 . S
C736 C737 1.390 . S
C737 C736 1.390 . S
C737 C738 1.394 . S
C737 C743 1.465 . S
C738 C733 1.399 . S
C738 C737 1.394 . S
C738 C739 1.516 . S
C739 C738 1.516 . S
C739 C740 1.502 . S
C739 C741 1.561 . S
C739 C742 1.526 . S
C740 H724 0.959 . S
C740 H725 0.959 . S
C740 H726 0.961 . S
C740 C739 1.502 . S
C741 H727 0.960 . S
C741 H728 0.961 . S
C741 H729 0.959 . S
C741 C739 1.561 . S
C742 C739 1.526 . S
C742 C743 1.396 . S
C742 C747 1.390 . S
C743 C737 1.465 . S
C743 C742 1.396 . S
C743 C744 1.399 . S
C744 H730 0.929 . S
C744 C743 1.399 . S
C744 C745 1.385 1_554 S
C745 H731 0.931 . S
C745 C744 1.385 1_556 S
C745 C746 1.389 . S
C746 C745 1.389 . S
C746 C747 1.387 1_556 S
C747 H732 0.930 . S
C747 C742 1.390 . S
C747 C746 1.387 1_554 S
H748 C760 0.930 . S
H749 C762 0.930 . S
H750 C763 0.930 . S
H751 C767 0.959 . S
H752 C767 0.959 . S
H753 C767 0.961 . S
H754 C768 0.960 . S
H755 C768 0.961 . S
H756 C768 0.959 . S
H757 C771 0.929 1_455 S
H758 C772 0.931 1_455 S
H759 C774 0.930 . S
C760 H748 0.930 . S
C760 C761 1.399 . S
C760 C765 1.399 . S
C761 C760 1.399 . S
C761 C762 1.376 . S
C762 H749 0.930 . S
C762 C761 1.376 . S
C762 C763 1.388 . S
C763 H750 0.930 . S
C763 C762 1.388 . S
C763 C764 1.390 . S
C764 C763 1.390 . S
C764 C765 1.394 . S
C764 C770 1.465 . S
C765 C760 1.399 . S
C765 C764 1.394 . S
C765 C766 1.516 . S
C766 C765 1.516 . S
C766 C767 1.502 . S
C766 C768 1.561 . S
C766 C769 1.526 . S
C767 H751 0.959 . S
C767 H752 0.959 . S
C767 H753 0.961 . S
C767 C766 1.502 . S
C768 H754 0.960 . S
C768 H755 0.961 . S
C768 H756 0.959 . S
C768 C766 1.561 . S
C769 C766 1.526 . S
C769 C770 1.396 . S
C769 C774 1.390 . S
C770 C764 1.465 . S
C770 C769 1.396 . S
C770 C771 1.399 . S
C771 H757 0.929 1_655 S
C771 C770 1.399 . S
C771 C772 1.385 . S
C772 H758 0.931 1_655 S
C772 C771 1.385 . S
C772 C773 1.389 . S
C773 C772 1.389 . S
C773 C774 1.387 . S
C774 H759 0.930 . S
C774 C769 1.390 . S
C774 C773 1.387 . S
H775 C787 0.930 . S
H776 C789 0.930 . S
H777 C790 0.930 . S
H778 C794 0.959 . S
H779 C794 0.959 . S
H780 C794 0.961 . S
H781 C795 0.960 . S
H782 C795 0.957 1_565 S
H783 C795 0.959 . S
H784 C798 0.929 . S
H785 C799 0.931 . S
H786 C801 0.930 . S
C787 H775 0.930 . S
C787 C788 1.399 1_565 S
C787 C792 1.399 . S
C788 C787 1.399 1_545 S
C788 C789 1.376 . S
C789 H776 0.930 . S
C789 C788 1.376 . S
C789 C790 1.388 . S
C790 H777 0.930 . S
C790 C789 1.388 . S
C790 C791 1.390 . S
C791 C790 1.390 . S
C791 C792 1.394 1_545 S
C791 C797 1.465 . S
C792 C787 1.399 . S
C792 C791 1.394 1_565 S
C792 C793 1.516 . S
C793 C792 1.516 . S
C793 C794 1.502 . S
C793 C795 1.561 1_565 S
C793 C796 1.526 . S
C794 H778 0.959 . S
C794 H779 0.959 . S
C794 H780 0.961 . S
C794 C793 1.502 . S
C795 H781 0.960 . S
C795 H782 0.957 1_545 S
C795 H783 0.959 . S
C795 C793 1.561 1_545 S
C796 C793 1.526 . S
C796 C797 1.396 1_565 S
C796 C801 1.390 . S
C797 C791 1.465 . S
C797 C796 1.396 1_545 S
C797 C798 1.399 . S
C798 H784 0.929 . S
C798 C797 1.399 . S
C798 C799 1.385 . S
C799 H785 0.931 . S
C799 C798 1.385 . S
C799 C800 1.389 1_545 S
C800 C799 1.389 1_565 S
C800 C801 1.387 . S
C801 H786 0.930 . S
C801 C796 1.390 . S
C801 C800 1.387 . S
H802 C814 0.930 . S
H803 C816 0.930 . S
H804 C817 0.930 . S
H805 C821 0.959 . S
H806 C821 0.959 . S
H807 C821 0.961 . S
H808 C822 0.960 . S
H809 C822 0.961 . S
H810 C822 0.959 . S
H811 C825 0.929 . S
H812 C826 0.931 . S
H813 C828 0.930 . S
C814 H802 0.930 . S
C814 C815 1.399 . S
C814 C819 1.399 . S
C815 C814 1.399 . S
C815 C816 1.376 . S
C816 H803 0.930 . S
C816 C815 1.376 . S
C816 C817 1.388 . S
C817 H804 0.930 . S
C817 C816 1.388 . S
C817 C818 1.390 . S
C818 C817 1.390 . S
C818 C819 1.394 . S
C818 C824 1.465 . S
C819 C814 1.399 . S
C819 C818 1.394 . S
C819 C820 1.516 . S
C820 C819 1.516 . S
C820 C821 1.502 . S
C820 C822 1.561 . S
C820 C823 1.526 . S
C821 H805 0.959 . S
C821 H806 0.959 . S
C821 H807 0.961 . S
C821 C820 1.502 . S
C822 H808 0.960 . S
C822 H809 0.961 . S
C822 H810 0.959 . S
C822 C820 1.561 . S
C823 C820 1.526 . S
C823 C824 1.396 . S
C823 C828 1.390 . S
C824 C818 1.465 . S
C824 C823 1.396 . S
C824 C825 1.399 . S
C825 H811 0.929 . S
C825 C824 1.399 . S
C825 C826 1.385 . S
C826 H812 0.931 . S
C826 C825 1.385 . S
C826 C827 1.389 . S
C827 C826 1.389 . S
C827 C828 1.387 . S
C828 H813 0.930 . S
C828 C823 1.390 . S
C828 C827 1.387 . S
H829 C841 0.930 . S
H830 C843 0.930 . S
H831 C844 0.930 . S
H832 C848 0.959 . S
H833 C848 0.959 . S
H834 C848 0.961 . S
H835 C849 0.960 . S
H836 C849 0.961 . S
H837 C849 0.959 . S
H838 C852 0.929 . S
H839 C853 0.931 . S
H840 C855 0.930 . S
C841 H829 0.930 . S
C841 C842 1.399 . S
C841 C846 1.399 . S
C842 C841 1.399 . S
C842 C843 1.376 . S
C843 H830 0.930 . S
C843 C842 1.376 . S
C843 C844 1.388 . S
C844 H831 0.930 . S
C844 C843 1.388 . S
C844 C845 1.390 . S
C845 C844 1.390 . S
C845 C846 1.394 . S
C845 C851 1.465 . S
C846 C841 1.399 . S
C846 C845 1.394 . S
C846 C847 1.516 . S
C847 C846 1.516 . S
C847 C848 1.502 . S
C847 C849 1.561 . S
C847 C850 1.526 . S
C848 H832 0.959 . S
C848 H833 0.959 . S
C848 H834 0.961 . S
C848 C847 1.502 . S
C849 H835 0.960 . S
C849 H836 0.961 . S
C849 H837 0.959 . S
C849 C847 1.561 . S
C850 C847 1.526 . S
C850 C851 1.396 . S
C850 C855 1.390 . S
C851 C845 1.465 . S
C851 C850 1.396 . S
C851 C852 1.399 . S
C852 H838 0.929 . S
C852 C851 1.399 . S
C852 C853 1.385 . S
C853 H839 0.931 . S
C853 C852 1.385 . S
C853 C854 1.389 . S
C854 C853 1.389 . S
C854 C855 1.387 . S
C855 H840 0.930 . S
C855 C850 1.390 . S
C855 C854 1.387 . S
C221 C76 1.638 1_545 S
C233 C98 1.666 . S
C260 C128 1.793 . S
C248 C87 1.788 . S
C287 N162 1.330 . S
C275 C54 1.388 . S
C314 N192 1.410 . S
C302 C65 1.424 . S
C341 C89 1.677 . S
C329 C32 1.643 1_546 S
C356 C43 1.773 . S
C368 C119 1.805 . S
C383 C10 1.379 . S
C395 N154 1.402 . S
C410 C21 1.415 . S
C422 N184 1.441 . S
C449 C104 0.332 . S
C437 C60 0.595 . S
C476 C134 0.767 . S
C464 C71 0.840 1_565 S
C503 C175 1.021 . S
C491 C82 1.067 . S
C518 C49 0.586 . S
C530 C205 0.536 . S
C545 C16 0.642 . S
C557 C115 0.348 . S
C584 C145 0.733 . S
C572 C27 0.828 1_566 S
C611 C164 1.053 . S
C599 C38 1.027 . S
C626 C5 0.519 . S
C638 C194 0.636 . S
C653 C59 1.431 . S
C665 N94 1.470 . S
C680 C70 1.436 . S
C692 N124 1.454 . S
C719 C149 1.653 . S
C707 C81 1.615 . S
C746 C179 1.586 . S
C734 C48 1.569 . S
C761 C15 1.424 . S
C773 N102 1.443 . S
C800 N132 1.397 . S
C788 C26 1.407 . S
C827 C158 1.657 . S
C815 C37 1.588 . S
C842 C4 1.563 . S
C854 C188 1.585 . S
