# Generated by pormake.
# Topology llk, (3,12)-cn, num edge types: 1
# Building blocks:
#     Node 0, Type 0, BuildingBlock: BETDAH_clean_linker_0, # of connection points: 3
#     Node 1, Type 0, BuildingBlock: BETDAH_clean_linker_0, # of connection points: 3
#     Node 2, Type 0, BuildingBlock: BETDAH_clean_linker_0, # of connection points: 3
#     Node 3, Type 0, BuildingBlock: BETDAH_clean_linker_0, # of connection points: 3
#     Node 4, Type 0, BuildingBlock: BETDAH_clean_linker_0, # of connection points: 3
#     Node 5, Type 0, BuildingBlock: BETDAH_clean_linker_0, # of connection points: 3
#     Node 6, Type 0, BuildingBlock: BETDAH_clean_linker_0, # of connection points: 3
#     Node 7, Type 0, BuildingBlock: BETDAH_clean_linker_0, # of connection points: 3
#     Node 8, Type 0, BuildingBlock: BETDAH_clean_linker_0, # of connection points: 3
#     Node 9, Type 0, BuildingBlock: BETDAH_clean_linker_0, # of connection points: 3
#     Node 10, Type 0, BuildingBlock: BETDAH_clean_linker_0, # of connection points: 3
#     Node 11, Type 0, BuildingBlock: BETDAH_clean_linker_0, # of connection points: 3
#     Node 12, Type 0, BuildingBlock: BETDAH_clean_linker_0, # of connection points: 3
#     Node 13, Type 0, BuildingBlock: BETDAH_clean_linker_0, # of connection points: 3
#     Node 14, Type 0, BuildingBlock: BETDAH_clean_linker_0, # of connection points: 3
#     Node 15, Type 0, BuildingBlock: BETDAH_clean_linker_0, # of connection points: 3
#     Node 16, Type 0, BuildingBlock: BETDAH_clean_linker_0, # of connection points: 3
#     Node 17, Type 0, BuildingBlock: BETDAH_clean_linker_0, # of connection points: 3
#     Node 18, Type 0, BuildingBlock: BETDAH_clean_linker_0, # of connection points: 3
#     Node 19, Type 0, BuildingBlock: BETDAH_clean_linker_0, # of connection points: 3
#     Node 20, Type 0, BuildingBlock: BETDAH_clean_linker_0, # of connection points: 3
#     Node 21, Type 0, BuildingBlock: BETDAH_clean_linker_0, # of connection points: 3
#     Node 22, Type 0, BuildingBlock: BETDAH_clean_linker_0, # of connection points: 3
#     Node 23, Type 0, BuildingBlock: BETDAH_clean_linker_0, # of connection points: 3
#     Node 24, Type 1, BuildingBlock: QEWDON_clean_sbu_0, # of connection points: 12
#     Node 25, Type 1, BuildingBlock: QEWDON_clean_sbu_0, # of connection points: 12
#     Node 26, Type 1, BuildingBlock: QEWDON_clean_sbu_0, # of connection points: 12
#     Node 27, Type 1, BuildingBlock: QEWDON_clean_sbu_0, # of connection points: 12
#     Node 28, Type 1, BuildingBlock: QEWDON_clean_sbu_0, # of connection points: 12
#     Node 29, Type 1, BuildingBlock: QEWDON_clean_sbu_0, # of connection points: 12
#     Edge 30, Type (0, 1), BuildingBlock: TEMPAE_clean_linker_10, # of connection points: 2
#     Edge 31, Type (0, 1), BuildingBlock: TEMPAE_clean_linker_10, # of connection points: 2
#     Edge 32, Type (0, 1), BuildingBlock: TEMPAE_clean_linker_10, # of connection points: 2
#     Edge 33, Type (0, 1), BuildingBlock: TEMPAE_clean_linker_10, # of connection points: 2
#     Edge 34, Type (0, 1), BuildingBlock: TEMPAE_clean_linker_10, # of connection points: 2
#     Edge 35, Type (0, 1), BuildingBlock: TEMPAE_clean_linker_10, # of connection points: 2
#     Edge 36, Type (0, 1), BuildingBlock: TEMPAE_clean_linker_10, # of connection points: 2
#     Edge 37, Type (0, 1), BuildingBlock: TEMPAE_clean_linker_10, # of connection points: 2
#     Edge 38, Type (0, 1), BuildingBlock: TEMPAE_clean_linker_10, # of connection points: 2
#     Edge 39, Type (0, 1), BuildingBlock: TEMPAE_clean_linker_10, # of connection points: 2
#     Edge 40, Type (0, 1), BuildingBlock: TEMPAE_clean_linker_10, # of connection points: 2
#     Edge 41, Type (0, 1), BuildingBlock: TEMPAE_clean_linker_10, # of connection points: 2
#     Edge 42, Type (0, 1), BuildingBlock: TEMPAE_clean_linker_10, # of connection points: 2
#     Edge 43, Type (0, 1), BuildingBlock: TEMPAE_clean_linker_10, # of connection points: 2
#     Edge 44, Type (0, 1), BuildingBlock: TEMPAE_clean_linker_10, # of connection points: 2
#     Edge 45, Type (0, 1), BuildingBlock: TEMPAE_clean_linker_10, # of connection points: 2
#     Edge 46, Type (0, 1), BuildingBlock: TEMPAE_clean_linker_10, # of connection points: 2
#     Edge 47, Type (0, 1), BuildingBlock: TEMPAE_clean_linker_10, # of connection points: 2
#     Edge 48, Type (0, 1), BuildingBlock: TEMPAE_clean_linker_10, # of connection points: 2
#     Edge 49, Type (0, 1), BuildingBlock: TEMPAE_clean_linker_10, # of connection points: 2
#     Edge 50, Type (0, 1), BuildingBlock: TEMPAE_clean_linker_10, # of connection points: 2
#     Edge 51, Type (0, 1), BuildingBlock: TEMPAE_clean_linker_10, # of connection points: 2
#     Edge 52, Type (0, 1), BuildingBlock: TEMPAE_clean_linker_10, # of connection points: 2
#     Edge 53, Type (0, 1), BuildingBlock: TEMPAE_clean_linker_10, # of connection points: 2
#     Edge 54, Type (0, 1), BuildingBlock: TEMPAE_clean_linker_10, # of connection points: 2
#     Edge 55, Type (0, 1), BuildingBlock: TEMPAE_clean_linker_10, # of connection points: 2
#     Edge 56, Type (0, 1), BuildingBlock: TEMPAE_clean_linker_10, # of connection points: 2
#     Edge 57, Type (0, 1), BuildingBlock: TEMPAE_clean_linker_10, # of connection points: 2
#     Edge 58, Type (0, 1), BuildingBlock: TEMPAE_clean_linker_10, # of connection points: 2
#     Edge 59, Type (0, 1), BuildingBlock: TEMPAE_clean_linker_10, # of connection points: 2
#     Edge 60, Type (0, 1), BuildingBlock: TEMPAE_clean_linker_10, # of connection points: 2
#     Edge 61, Type (0, 1), BuildingBlock: TEMPAE_clean_linker_10, # of connection points: 2
#     Edge 62, Type (0, 1), BuildingBlock: TEMPAE_clean_linker_10, # of connection points: 2
#     Edge 63, Type (0, 1), BuildingBlock: TEMPAE_clean_linker_10, # of connection points: 2
#     Edge 64, Type (0, 1), BuildingBlock: TEMPAE_clean_linker_10, # of connection points: 2
#     Edge 65, Type (0, 1), BuildingBlock: TEMPAE_clean_linker_10, # of connection points: 2
#     Edge 66, Type (0, 1), BuildingBlock: TEMPAE_clean_linker_10, # of connection points: 2
#     Edge 67, Type (0, 1), BuildingBlock: TEMPAE_clean_linker_10, # of connection points: 2
#     Edge 68, Type (0, 1), BuildingBlock: TEMPAE_clean_linker_10, # of connection points: 2
#     Edge 69, Type (0, 1), BuildingBlock: TEMPAE_clean_linker_10, # of connection points: 2
#     Edge 70, Type (0, 1), BuildingBlock: TEMPAE_clean_linker_10, # of connection points: 2
#     Edge 71, Type (0, 1), BuildingBlock: TEMPAE_clean_linker_10, # of connection points: 2
#     Edge 72, Type (0, 1), BuildingBlock: TEMPAE_clean_linker_10, # of connection points: 2
#     Edge 73, Type (0, 1), BuildingBlock: TEMPAE_clean_linker_10, # of connection points: 2
#     Edge 74, Type (0, 1), BuildingBlock: TEMPAE_clean_linker_10, # of connection points: 2
#     Edge 75, Type (0, 1), BuildingBlock: TEMPAE_clean_linker_10, # of connection points: 2
#     Edge 76, Type (0, 1), BuildingBlock: TEMPAE_clean_linker_10, # of connection points: 2
#     Edge 77, Type (0, 1), BuildingBlock: TEMPAE_clean_linker_10, # of connection points: 2
#     Edge 78, Type (0, 1), BuildingBlock: TEMPAE_clean_linker_10, # of connection points: 2
#     Edge 79, Type (0, 1), BuildingBlock: TEMPAE_clean_linker_10, # of connection points: 2
#     Edge 80, Type (0, 1), BuildingBlock: TEMPAE_clean_linker_10, # of connection points: 2
#     Edge 81, Type (0, 1), BuildingBlock: TEMPAE_clean_linker_10, # of connection points: 2
#     Edge 82, Type (0, 1), BuildingBlock: TEMPAE_clean_linker_10, # of connection points: 2
#     Edge 83, Type (0, 1), BuildingBlock: TEMPAE_clean_linker_10, # of connection points: 2
#     Edge 84, Type (0, 1), BuildingBlock: TEMPAE_clean_linker_10, # of connection points: 2
#     Edge 85, Type (0, 1), BuildingBlock: TEMPAE_clean_linker_10, # of connection points: 2
#     Edge 86, Type (0, 1), BuildingBlock: TEMPAE_clean_linker_10, # of connection points: 2
#     Edge 87, Type (0, 1), BuildingBlock: TEMPAE_clean_linker_10, # of connection points: 2
#     Edge 88, Type (0, 1), BuildingBlock: TEMPAE_clean_linker_10, # of connection points: 2
#     Edge 89, Type (0, 1), BuildingBlock: TEMPAE_clean_linker_10, # of connection points: 2
#     Edge 90, Type (0, 1), BuildingBlock: TEMPAE_clean_linker_10, # of connection points: 2
#     Edge 91, Type (0, 1), BuildingBlock: TEMPAE_clean_linker_10, # of connection points: 2
#     Edge 92, Type (0, 1), BuildingBlock: TEMPAE_clean_linker_10, # of connection points: 2
#     Edge 93, Type (0, 1), BuildingBlock: TEMPAE_clean_linker_10, # of connection points: 2
#     Edge 94, Type (0, 1), BuildingBlock: TEMPAE_clean_linker_10, # of connection points: 2
#     Edge 95, Type (0, 1), BuildingBlock: TEMPAE_clean_linker_10, # of connection points: 2
#     Edge 96, Type (0, 1), BuildingBlock: TEMPAE_clean_linker_10, # of connection points: 2
#     Edge 97, Type (0, 1), BuildingBlock: TEMPAE_clean_linker_10, # of connection points: 2
#     Edge 98, Type (0, 1), BuildingBlock: TEMPAE_clean_linker_10, # of connection points: 2
#     Edge 99, Type (0, 1), BuildingBlock: TEMPAE_clean_linker_10, # of connection points: 2
#     Edge 100, Type (0, 1), BuildingBlock: TEMPAE_clean_linker_10, # of connection points: 2
#     Edge 101, Type (0, 1), BuildingBlock: TEMPAE_clean_linker_10, # of connection points: 2
# Relax obj value: 0.093
# Max RMSD: 0.167
# Mean RMSD: 0.132
data_MOF--net-llk--node1-QEWDON_clean_sbu_0--node2-BETDAH_clean_linker_0--edge1-TEMPAE_clean_linker_10
_symmetry_space_group_name_H-M    P1
_symmetry_Int_Tables_number       1
_symmetry_cell_setting            triclinic
loop_
_symmetry_equiv_pos_as_xyz
'x, y, z'
_cell_length_a     46.617372
_cell_length_b     48.498826
_cell_length_c     48.222713
_cell_angle_alpha  90.063897
_cell_angle_beta   89.992974
_cell_angle_gamma 89.58359
loop_
_atom_site_label
_atom_site_type_symbol
_atom_site_fract_x
_atom_site_fract_y
_atom_site_fract_z
_atom_type_partial_charge
H0 H 0.05115 0.2554 0.35724 0.0
H1 H 0.05891 0.30231 0.28213 0.0
H2 H 0.06125 0.21365 0.27899 0.0
C3 C 0.05461 0.25609 0.33502 0.0
C4 C 0.05674 0.23129 0.32002 0.0
C5 C 0.05524 0.28176 0.32154 0.0
C6 C 0.05824 0.28256 0.29255 0.0
C7 C 0.06042 0.258 0.2771 0.0
C8 C 0.05963 0.23252 0.29096 0.0
N9 N 0.06309 0.25818 0.24767 0.0
C10 C 0.06374 0.28204 0.23155 0.0
H11 H 0.67468 0.10773 0.19028 0.0
H12 H 0.73828 0.104 0.25479 0.0
H13 H 0.76292 0.09169 0.17 0.0
C14 C 0.69682 0.10578 0.19688 0.0
C15 C 0.71793 0.09991 0.17701 0.0
C16 C 0.70369 0.10661 0.22523 0.0
C17 C 0.73264 0.10379 0.2331 0.0
C18 C 0.75419 0.09901 0.21324 0.0
C19 C 0.74663 0.09688 0.18523 0.0
N20 N 0.78325 0.09452 0.22102 0.0
C21 C 0.79191 0.09003 0.24827 0.0
H22 H -0.00154 0.67722 0.26616 0.0
H23 H 0.02041 0.75502 0.30299 0.0
H24 H 0.01604 0.74712 0.21424 0.0
C25 C 0.00378 0.69882 0.26392 0.0
C26 C 0.00621 0.71015 0.23728 0.0
C27 C 0.00916 0.7147 0.2877 0.0
C28 C 0.01617 0.74268 0.28472 0.0
C29 C 0.01817 0.75448 0.25811 0.0
C30 C 0.0135 0.73807 0.23463 0.0
N31 N 0.02566 0.78252 0.25416 0.0
C32 C 0.02243 0.80271 0.2744 0.0
H33 H 0.23106 0.97777 0.32145 0.0
H34 H 0.28898 0.98571 0.2526 0.0
H35 H 0.19856 0.97838 0.23811 0.0
C36 C 0.2347 0.9798 0.29938 0.0
C37 C 0.21112 0.97915 0.28127 0.0
C38 C 0.26282 0.98337 0.28959 0.0
C39 C 0.26753 0.98309 0.26071 0.0
C40 C 0.24429 0.98014 0.24223 0.0
C41 C 0.21628 0.97898 0.25262 0.0
N42 N 0.24802 0.97887 0.21304 0.0
C43 C 0.2744 0.97854 0.19965 0.0
H44 H 0.99011 0.75747 0.67678 0.0
H45 H 0.00978 0.71234 0.75104 0.0
H46 H 0.01659 0.80075 0.75028 0.0
C47 C -0.0042 0.75737 0.69858 0.0
C48 C 0.00241 0.78232 0.71183 0.0
C49 C -0.00153 0.73209 0.71254 0.0
C50 C 0.00749 0.73185 0.74035 0.0
C51 C 0.014 0.75668 0.75406 0.0
C52 C 0.0114 0.78172 0.73968 0.0
N53 N 0.02391 0.75723 0.78196 0.0
C54 C 0.02688 0.73399 0.79867 0.0
H55 H 0.29434 0.01196 0.68718 0.0
H56 H 0.31838 0.98261 0.76741 0.0
H57 H 0.22915 0.98777 0.74558 0.0
C58 C 0.28814 0.00382 0.70719 0.0
C59 C 0.25896 8e-05 0.71336 0.0
C60 C 0.30962 0.99683 0.72634 0.0
C61 C 0.30173 0.98813 0.75284 0.0
C62 C 0.27267 0.98553 0.76016 0.0
C63 C 0.25142 0.99101 0.74018 0.0
N64 N 0.26453 0.97695 0.78725 0.0
C65 C 0.28437 0.97492 0.80875 0.0
H66 H 0.9832 0.34967 0.73172 0.0
H67 H 0.96595 0.2754 0.6863 0.0
H68 H 0.956 0.27692 0.77501 0.0
C69 C 0.97624 0.32839 0.73136 0.0
C70 C 0.96949 0.31522 0.75642 0.0
C71 C 0.97498 0.31423 0.70596 0.0
C72 C 0.96719 0.28629 0.70583 0.0
C73 C 0.96036 0.27274 0.73077 0.0
C74 C 0.96151 0.28734 0.75588 0.0
N75 N 0.95196 0.24462 0.73135 0.0
C76 C 0.9543 0.22673 0.70886 0.0
H77 H 0.79614 0.08552 0.71526 0.0
H78 H 0.73537 0.11879 0.77358 0.0
H79 H 0.82095 0.09744 0.80018 0.0
C80 C 0.79092 0.09249 0.73606 0.0
C81 C 0.81161 0.08999 0.75701 0.0
C82 C 0.76349 0.1031 0.74157 0.0
C83 C 0.75661 0.11088 0.76887 0.0
C84 C 0.77744 0.10901 0.79002 0.0
C85 C 0.8051 0.0992 0.78382 0.0
N86 N 0.77079 0.11612 0.8178 0.0
C87 C 0.74462 0.10947 0.82968 0.0
H88 H 0.31396 0.26207 0.04132 0.0
H89 H 0.23259 0.30322 0.04671 0.0
H90 H 0.2371 0.21441 0.04949 0.0
C91 C 0.29082 0.2611 0.04335 0.0
C92 C 0.27765 0.23539 0.04577 0.0
C93 C 0.27478 0.28558 0.04326 0.0
C94 C 0.24489 0.28427 0.0462 0.0
C95 C 0.23108 0.25852 0.04809 0.0
C96 C 0.24764 0.23419 0.04792 0.0
N97 N 0.20072 0.25642 0.04988 0.0
C98 C 0.18219 0.27855 0.04524 0.0
H99 H 0.3036 0.77495 0.06197 0.0
H100 H 0.22085 0.74279 0.08271 0.0
H101 H 0.22842 0.82672 0.05569 0.0
C102 C 0.28071 0.77793 0.06437 0.0
C103 C 0.26844 0.80385 0.05822 0.0
C104 C 0.26373 0.75555 0.07273 0.0
C105 C 0.23408 0.75965 0.07569 0.0
C106 C 0.2213 0.78524 0.06934 0.0
C107 C 0.23858 0.80731 0.06111 0.0
N108 N 0.191 0.78865 0.06954 0.0
C109 C 0.17295 0.76636 0.06524 0.0
H110 H 0.81885 0.34537 0.00691 0.0
H111 H 0.76801 0.27588 0.98249 0.0
H112 H 0.85989 0.26853 0.98563 0.0
C113 C 0.81741 0.32404 0.00042 0.0
C114 C 0.8427 0.30847 0.99694 0.0
C115 C 0.79033 0.3126 0.99531 0.0
C116 C 0.7887 0.28481 0.98696 0.0
C117 C 0.81387 0.2689 0.98347 0.0
C118 C 0.84065 0.28092 0.98828 0.0
N119 N 0.81321 0.24091 0.97479 0.0
C120 C 0.7885 0.22512 0.97307 0.0
H121 H 0.76519 0.67454 0.96688 0.0
H122 H 0.72593 0.75434 0.95855 0.0
H123 H 0.81765 0.74705 0.96209 0.0
C124 C 0.7671 0.69661 0.96406 0.0
C125 C 0.79452 0.70848 0.96335 0.0
C126 C 0.74217 0.71299 0.96255 0.0
C127 C 0.74497 0.74169 0.96063 0.0
C128 C 0.77212 0.75409 0.96141 0.0
C129 C 0.79677 0.73739 0.96213 0.0
N130 N 0.77511 0.78324 0.96227 0.0
C131 C 0.75206 0.80099 0.96718 0.0
H132 H 0.49402 0.76509 0.81367 0.0
H133 H 0.49348 0.8075 0.73561 0.0
H134 H 0.4932 0.71876 0.73763 0.0
C135 C 0.49385 0.76457 0.79121 0.0
C136 C 0.49338 0.73896 0.77765 0.0
C137 C 0.49366 0.78944 0.77631 0.0
C138 C 0.49398 0.78844 0.74724 0.0
C139 C 0.49423 0.76299 0.73314 0.0
C140 C 0.49334 0.73834 0.74846 0.0
N141 N 0.49541 0.76173 0.70367 0.0
C142 C 0.50076 0.78472 0.6872 0.0
H143 H 0.22494 0.55674 0.72899 0.0
H144 H 0.29633 0.56195 0.78492 0.0
H145 H 0.31042 0.56263 0.69662 0.0
C146 C 0.24786 0.55785 0.73254 0.0
C147 C 0.26638 0.55824 0.70965 0.0
C148 C 0.25831 0.55817 0.75979 0.0
C149 C 0.28795 0.56154 0.76401 0.0
C150 C 0.30675 0.56388 0.74113 0.0
C151 C 0.2958 0.56206 0.71409 0.0
N152 N 0.33682 0.56724 0.74454 0.0
C153 C 0.35089 0.56372 0.76969 0.0
H154 H 0.45398 0.15618 0.75501 0.0
H155 H 0.44488 0.23354 0.79844 0.0
H156 H 0.45684 0.23247 0.71006 0.0
C157 C 0.45205 0.17847 0.7549 0.0
C158 C 0.4549 0.19256 0.72965 0.0
C159 C 0.44873 0.19303 0.78003 0.0
C160 C 0.44778 0.22208 0.77936 0.0
C161 C 0.45074 0.23639 0.75417 0.0
C162 C 0.45408 0.22148 0.72944 0.0
N163 N 0.45116 0.26569 0.7531 0.0
C164 C 0.45618 0.28255 0.77598 0.0
H165 H 0.70551 0.52046 0.84918 0.0
H166 H 0.76584 0.53501 0.7839 0.0
H167 H 0.6764 0.52533 0.7646 0.0
C168 C 0.70999 0.52366 0.82736 0.0
C169 C 0.68741 0.5229 0.8081 0.0
C170 C 0.73829 0.52817 0.81884 0.0
C171 C 0.74409 0.53117 0.79046 0.0
C172 C 0.7219 0.52986 0.77075 0.0
C173 C 0.69359 0.52577 0.77972 0.0
N174 N 0.72737 0.53305 0.74192 0.0
C175 C 0.7548 0.53537 0.73074 0.0
H176 H 0.50837 0.26435 0.18282 0.0
H177 H 0.51672 0.22375 0.26134 0.0
H178 H 0.50408 0.31174 0.25813 0.0
C179 C 0.50851 0.26532 0.20527 0.0
C180 C 0.50565 0.29102 0.21843 0.0
C181 C 0.51262 0.241 0.22055 0.0
C182 C 0.51333 0.24244 0.24961 0.0
C183 C 0.50988 0.26793 0.26331 0.0
C184 C 0.50599 0.29208 0.24758 0.0
N185 N 0.51094 0.2701 0.29272 0.0
C186 C 0.51407 0.24771 0.31059 0.0
H187 H 0.75697 0.49035 0.17643 0.0
H188 H 0.78619 0.50988 0.25867 0.0
H189 H 0.69776 0.49057 0.24474 0.0
C190 C 0.7528 0.49305 0.19835 0.0
C191 C 0.7246 0.49012 0.20817 0.0
C192 C 0.77539 0.50021 0.21634 0.0
C193 C 0.76936 0.50352 0.24476 0.0
C194 C 0.74146 0.49956 0.2551 0.0
C195 C 0.71928 0.49316 0.23669 0.0
N196 N 0.73483 0.50235 0.28375 0.0
C197 C 0.75529 0.50549 0.30448 0.0
H198 H 0.5816 0.83961 0.23505 0.0
H199 H 0.58798 0.76222 0.19209 0.0
H200 H 0.58165 0.76366 0.28112 0.0
C201 C 0.58342 0.81731 0.23559 0.0
C202 C 0.58193 0.80358 0.26118 0.0
C203 C 0.58523 0.8025 0.2106 0.0
C204 C 0.58627 0.77357 0.21134 0.0
C205 C 0.58512 0.7594 0.23673 0.0
C206 C 0.5829 0.77455 0.26155 0.0
N207 N 0.58576 0.73006 0.23795 0.0
C208 C 0.58234 0.71283 0.21499 0.0
H209 H 0.32309 0.61764 0.17681 0.0
H210 H 0.25742 0.60649 0.23804 0.0
H211 H 0.34532 0.6149 0.2632 0.0
C212 C 0.31652 0.61669 0.19835 0.0
C213 C 0.33754 0.61705 0.21912 0.0
C214 C 0.28769 0.61193 0.20481 0.0
C215 C 0.27952 0.61049 0.23283 0.0
C216 C 0.30011 0.61248 0.25407 0.0
C217 C 0.32917 0.61531 0.24703 0.0
N218 N 0.29251 0.60993 0.28251 0.0
C219 C 0.26531 0.60257 0.29176 0.0
H220 H 0.85522 0.76355 0.49123 0.0
H221 H 0.77565 0.80761 0.48157 0.0
H222 H 0.7843 0.72496 0.44984 0.0
C223 C 0.83341 0.76445 0.48345 0.0
C224 C 0.82194 0.7415 0.46977 0.0
C225 C 0.81683 0.78831 0.48784 0.0
C226 C 0.78851 0.7893 0.47793 0.0
C227 C 0.7767 0.7664 0.46413 0.0
C228 C 0.7935 0.74263 0.46024 0.0
N229 N 0.74795 0.76634 0.45434 0.0
C230 C 0.72909 0.78852 0.45699 0.0
H231 H 0.84303 0.26418 0.47634 0.0
H232 H 0.76623 0.22652 0.50663 0.0
H233 H 0.7809 0.31274 0.52119 0.0
C234 C 0.82246 0.26602 0.48671 0.0
C235 C 0.81435 0.29128 0.49854 0.0
C236 C 0.80582 0.24239 0.49049 0.0
C237 C 0.77888 0.24485 0.50331 0.0
C238 C 0.76946 0.27056 0.51373 0.0
C239 C 0.78742 0.29353 0.51149 0.0
N240 N 0.74314 0.27357 0.52838 0.0
C241 C 0.72368 0.25228 0.53185 0.0
H242 H 0.25408 0.84213 0.5447 0.0
H243 H 0.20287 0.77128 0.56346 0.0
H244 H 0.29486 0.76585 0.56844 0.0
C245 C 0.25267 0.82057 0.55042 0.0
C246 C 0.27789 0.80548 0.55574 0.0
C247 C 0.22555 0.80843 0.55309 0.0
C248 C 0.22372 0.78074 0.56139 0.0
C249 C 0.24881 0.76536 0.56695 0.0
C250 C 0.27567 0.77793 0.56441 0.0
N251 N 0.24784 0.73724 0.57504 0.0
C252 C 0.22479 0.72003 0.56958 0.0
H253 H 0.25832 0.1563 0.50037 0.0
H254 H 0.21565 0.23518 0.50018 0.0
H255 H 0.30746 0.23035 0.49122 0.0
C256 C 0.25937 0.1786 0.49955 0.0
C257 C 0.28606 0.19128 0.49602 0.0
C258 C 0.23391 0.19417 0.5014 0.0
C259 C 0.23519 0.22303 0.49878 0.0
C260 C 0.2618 0.23611 0.49491 0.0
C261 C 0.28702 0.22013 0.49367 0.0
N262 N 0.26422 0.26522 0.49261 0.0
C263 C 0.24126 0.28366 0.49089 0.0
Zn264 Zn 0.92888 0.98681 0.43886 0.0
Zn265 Zn 0.93576 0.0499 0.45842 0.0
O266 O 0.95594 0.01345 0.45703 0.0
H267 H 0.97142 0.00794 0.46917 0.0
C268 C 0.91726 0.94864 0.57723 0.0
O269 O 0.90277 0.9681 0.59018 0.0
Zn270 Zn 0.05304 0.04998 0.544 0.0
Zn271 Zn 0.04886 0.98517 0.55102 0.0
O272 O 0.02468 0.01983 0.55244 0.0
H273 H 0.00894 0.0213 0.56539 0.0
Zn274 Zn 0.96027 0.9917 0.57747 0.0
O275 O 0.95531 0.01686 0.54398 0.0
Zn276 Zn 0.95501 0.05488 0.55907 0.0
H277 H 0.95853 0.01172 0.52486 0.0
Zn278 Zn 0.03088 0.96728 0.46168 0.0
O279 O 0.02925 0.00549 0.47868 0.0
H280 H 0.02052 0.00943 0.49643 0.0
Zn281 Zn 0.03452 0.03279 0.44797 0.0
C282 C 0.07082 0.94265 0.50119 0.0
O283 O 0.0775 0.96874 0.50427 0.0
O284 O 0.89468 0.0065 0.42037 0.0
O285 O 0.89743 0.04894 0.43774 0.0
O286 O 0.08862 0.99421 0.56598 0.0
O287 O 0.09156 0.03985 0.56236 0.0
O288 O 0.95284 0.01109 0.61532 0.0
O289 O 0.94629 0.05391 0.59986 0.0
C290 C 0.98608 0.07466 0.43502 0.0
O291 O 0.04196 0.96818 0.42038 0.0
O292 O 0.04507 0.01324 0.41207 0.0
O293 O 0.03247 0.94957 0.5688 0.0
C294 C 0.88496 0.03105 0.42251 0.0
O295 O 0.94722 0.95359 0.4182 0.0
C296 C 0.01093 0.08761 0.56482 0.0
O297 O 0.94325 0.95298 0.57072 0.0
C298 C 0.10208 0.01661 0.57 0.0
O299 O 0.0508 0.93634 0.48451 0.0
C300 C 0.9186 0.07491 0.51402 0.0
O301 O 0.95945 0.07857 0.4388 0.0
O302 O -0.00309 0.05237 0.44422 0.0
C303 C 0.94682 0.03644 0.6196 0.0
O304 O 0.03783 0.08528 0.56118 0.0
O305 O -0.0049 0.06918 0.55414 0.0
C306 C 0.07005 0.06467 0.48401 0.0
O307 O 0.92402 0.0768 0.53978 0.0
O308 O 0.93417 0.05922 0.49915 0.0
C309 C 0.04703 0.98819 0.40404 0.0
O310 O 0.06543 0.05957 0.45856 0.0
O311 O 0.05489 0.0525 0.50212 0.0
C312 C 0.01967 0.95157 0.59201 0.0
O313 O 0.01552 0.97617 0.60279 0.0
C314 C 0.96729 0.95786 0.40091 0.0
O315 O 0.97593 0.98325 0.39674 0.0
Zn316 Zn 0.46571 0.04436 0.04045 0.0
Zn317 Zn 0.46645 0.05836 0.97464 0.0
O318 O 0.47512 0.02867 0.00282 0.0
H319 H 0.48391 0.01078 0.00023 0.0
C320 C 0.57891 0.11102 0.0755 0.0
O321 O 0.59734 0.12258 0.0586 0.0
Zn322 Zn 0.54952 0.96949 0.94459 0.0
Zn323 Zn 0.55745 0.98006 0.0096 0.0
O324 O 0.53541 0.99321 0.97563 0.0
H325 H 0.52501 0.01035 0.97343 0.0
Zn326 Zn 0.58031 0.07287 0.03014 0.0
O327 O 0.55028 0.0623 0.00203 0.0
Zn328 Zn 0.56848 0.06686 0.96465 0.0
H329 H 0.53365 0.05127 0.00614 0.0
Zn330 Zn 0.48416 0.95178 0.02161 0.0
O331 O 0.49789 0.95265 0.98173 0.0
H332 H 0.4942 0.95179 0.0014 0.0
Zn333 Zn 0.46236 0.96001 0.96002 0.0
C334 C 0.52876 0.916 0.04677 0.0
O335 O 0.53218 0.90761 0.02106 0.0
O336 O 0.43781 0.07676 0.0364 0.0
O337 O 0.43973 0.08742 0.99151 0.0
O338 O 0.58052 0.94425 0.00374 0.0
O339 O 0.57419 0.93763 0.9586 0.0
O340 O 0.61544 0.09093 0.01227 0.0
O341 O 0.60743 0.08669 0.96698 0.0
C342 C 0.44377 0.01632 0.93909 0.0
O343 O 0.4421 0.93952 0.0241 0.0
O344 O 0.42815 0.94195 0.98005 0.0
O345 O 0.57917 0.00841 0.03346 0.0
C346 C 0.42969 0.09131 0.01587 0.0
O347 O 0.45216 0.01795 0.07125 0.0
C348 C 0.58176 0.01743 0.92628 0.0
O349 O 0.56746 0.08842 0.06835 0.0
C350 C 0.58504 0.93032 0.98177 0.0
O351 O 0.51055 0.93495 0.05197 0.0
C352 C 0.51495 0.08695 0.94269 0.0
O353 O 0.44553 0.04228 0.94195 0.0
O354 O 0.45692 0.00104 0.95643 0.0
C355 C 0.62285 0.09507 0.98722 0.0
O356 O 0.57592 0.99245 0.92052 0.0
O357 O 0.56951 0.02871 0.94702 0.0
C358 C 0.49379 0.94387 0.91066 0.0
O359 O 0.54199 0.08931 0.94084 0.0
O360 O 0.50479 0.07304 0.9627 0.0
C361 C 0.42318 0.9359 0.00541 0.0
O362 O 0.46912 0.94468 0.92202 0.0
O363 O 0.51563 0.9535 0.92319 0.0
C364 C 0.60432 0.01507 0.02594 0.0
O365 O 0.61454 0.00518 0.00253 0.0
C366 C 0.43209 0.0015 0.06496 0.0
O367 O 0.42393 -6e-05 0.03893 0.0
Zn368 Zn 0.956 0.48437 0.95645 0.0
Zn369 Zn 0.96526 0.54982 0.96164 0.0
O370 O 0.98681 0.51406 0.95733 0.0
H371 H 0.0068 0.51094 0.96171 0.0
C372 C -0.00474 0.44323 0.02743 0.0
O373 O -0.00109 0.46406 0.01045 0.0
Zn374 Zn 0.08081 0.55686 0.05012 0.0
Zn375 Zn 0.08849 0.49455 0.07366 0.0
O376 O 0.06054 0.52038 0.05341 0.0
H377 H 0.04442 0.51467 0.04226 0.0
Zn378 Zn -0.00339 0.4878 0.06799 0.0
O379 O 0.98546 0.51675 0.03928 0.0
Zn380 Zn 0.98036 0.55016 0.06293 0.0
H381 H 0.97459 0.51252 0.02278 0.0
Zn382 Zn 0.07599 0.49348 0.94766 0.0
O383 O 0.07082 0.52404 0.97561 0.0
H384 H 0.07622 0.52241 0.99485 0.0
Zn385 Zn 0.068 0.55706 0.95077 0.0
C386 C 0.07789 0.44879 0.98878 0.0
O387 O 0.0714 0.46915 0.00568 0.0
O388 O 0.91563 0.50062 0.94962 0.0
O389 O 0.92411 0.54569 0.9492 0.0
O390 O 0.12575 0.51345 0.08652 0.0
O391 O 0.12096 0.55405 0.0656 0.0
O392 O 0.97216 0.49404 0.10326 0.0
O393 O 0.96146 0.53865 0.09925 0.0
C394 C 0.00972 0.58015 0.93316 0.0
O395 O 0.10331 0.50632 0.91668 0.0
O396 O 0.09344 0.55136 0.9167 0.0
O397 O 0.07588 0.45819 0.09377 0.0
C398 C 0.90719 0.5254 0.94602 0.0
O399 O 0.96308 0.44869 0.93321 0.0
C400 C 0.03425 0.58531 0.07739 0.0
O401 O -0.0043 0.44757 0.05341 0.0
C402 C 0.13539 0.5372 0.08037 0.0
O403 O 0.08044 0.45364 0.96298 0.0
C404 C 0.95141 0.57683 0.01679 0.0
O405 O 0.9829 0.5788 0.93732 0.0
O406 O 0.02578 0.56185 0.94401 0.0
C407 C 0.95955 0.51574 0.11213 0.0
O408 O 0.06103 0.58553 0.07302 0.0
O409 O 0.01992 0.56565 0.06699 0.0
C410 C 0.08507 0.59164 0.99667 0.0
O411 O 0.95427 0.57688 0.04303 0.0
O412 O 0.96677 0.56043 0.00235 0.0
C413 C 0.10698 0.53048 0.90694 0.0
O414 O 0.08152 0.59113 0.97056 0.0
O415 O 0.08055 0.56955 0.01018 0.0
C416 C 0.08164 0.45621 0.11949 0.0
O417 O 0.09382 0.47721 0.13192 0.0
C418 C 0.98549 0.44359 0.91905 0.0
O419 O 0.0068 0.46116 0.91965 0.0
Zn420 Zn 0.45394 0.47093 0.99308 0.0
Zn421 Zn 0.46505 0.47195 0.05787 0.0
O422 O 0.47033 0.4944 0.02346 0.0
H423 H 0.48297 0.50988 0.02108 0.0
C424 C 0.51179 0.41529 0.92718 0.0
O425 O 0.50396 0.44134 0.92591 0.0
Zn426 Zn 0.54327 0.55743 0.03655 0.0
Zn427 Zn 0.52417 0.55941 0.97361 0.0
O428 O 0.53086 0.53271 0.00573 0.0
H429 H 0.53355 0.51301 0.00422 0.0
Zn430 Zn 0.55013 0.4339 0.97396 0.0
O431 O 0.52977 0.449 0.00799 0.0
Zn432 Zn 0.55919 0.45405 0.03835 0.0
H433 H 0.51027 0.45587 0.00811 0.0
Zn434 Zn 0.43145 0.58557 0.98188 0.0
O435 O 0.46272 0.57206 0.00792 0.0
H436 H 0.48094 0.56427 0.00234 0.0
Zn437 Zn 0.44545 0.56993 0.04608 0.0
C438 C 0.45862 0.59904 0.92671 0.0
O439 O 0.47198 0.57531 0.92975 0.0
O440 O 0.42213 0.44602 0.00778 0.0
O441 O 0.43264 0.44427 0.05287 0.0
O442 O 0.55043 0.59365 0.97701 0.0
O443 O 0.5659 0.58859 0.02034 0.0
O444 O 0.59147 0.42291 0.98346 0.0
O445 O 0.59813 0.43696 0.027 0.0
C446 C 0.44862 0.52258 0.08389 0.0
O447 O 0.39656 0.59976 0.00394 0.0
O448 O 0.40493 0.58628 0.04737 0.0
O449 O 0.5244 0.54246 0.93407 0.0
C450 C 0.41717 0.43725 0.03218 0.0
O451 O 0.4484 0.48773 0.95409 0.0
C452 C 0.57448 0.51101 0.06302 0.0
O453 O 0.52971 0.40775 0.94563 0.0
C454 C 0.56635 0.60113 0.99712 0.0
O455 O 0.44148 0.60727 0.94558 0.0
C456 C 0.51857 0.43853 0.07884 0.0
O457 O 0.45492 0.49766 0.08945 0.0
O458 O 0.44861 0.53058 0.05884 0.0
C459 C 0.60727 0.42511 0.0049 0.0
O460 O 0.56957 0.53688 0.06275 0.0
O461 O 0.5605 0.49536 0.04672 0.0
C462 C 0.49647 0.5895 0.07186 0.0
O463 O 0.54459 0.43431 0.07224 0.0
O464 O 0.50364 0.45416 0.06336 0.0
C465 C 0.3891 0.59828 0.02935 0.0
O466 O 0.46935 0.59209 0.07226 0.0
O467 O 0.50719 0.5729 0.05411 0.0
C468 C 0.52581 0.5167 0.92935 0.0
O469 O 0.52451 0.49946 0.95029 0.0
C470 C 0.43657 0.5113 0.95204 0.0
O471 O 0.42923 0.52455 0.97478 0.0
Zn472 Zn 0.96429 0.48285 0.46761 0.0
Zn473 Zn 0.9594 0.54884 0.47149 0.0
O474 O 0.9878 0.51765 0.47315 0.0
H475 H 0.00607 0.51819 0.4826 0.0
C476 C 0.9509 0.44308 0.54604 0.0
O477 O 0.96376 0.45874 0.52771 0.0
Zn478 Zn 0.06756 0.55454 0.5456 0.0
Zn479 Zn 0.08199 0.48992 0.5463 0.0
O480 O 0.04904 0.5178 0.54502 0.0
H481 H 0.02958 0.51408 0.53928 0.0
Zn482 Zn 0.96318 0.48956 0.58203 0.0
O483 O 0.95778 0.51663 0.55028 0.0
Zn484 Zn 0.96292 0.55157 0.57094 0.0
H485 H 0.94497 0.51363 0.53484 0.0
Zn486 Zn 0.08069 0.49166 0.43697 0.0
O487 O 0.06847 0.51929 0.4665 0.0
H488 H 0.06393 0.51515 0.48559 0.0
Zn489 Zn 0.06122 0.55491 0.4464 0.0
C490 C 0.12046 0.45342 0.46452 0.0
O491 O 0.13109 0.47705 0.47284 0.0
O492 O 0.92415 0.49051 0.45133 0.0
O493 O 0.92221 0.53626 0.45319 0.0
O494 O 0.12136 0.50729 0.5568 0.0
O495 O 0.10808 0.55137 0.55929 0.0
O496 O 0.94392 0.50401 0.61779 0.0
O497 O 0.94289 0.54876 0.60838 0.0
C498 C 0.00156 0.58128 0.44173 0.0
O499 O 0.0978 0.51133 0.40281 0.0
O500 O 0.08006 0.55377 0.40815 0.0
O501 O 0.07096 0.45347 0.56599 0.0
C502 C 0.9111 0.51318 0.44658 0.0
O503 O 0.9843 0.44789 0.4517 0.0
C504 C 0.02033 0.5784 0.57902 0.0
O505 O 0.94978 0.45086 0.57118 0.0
C506 C 0.12699 0.53248 0.56199 0.0
O507 O 0.09836 0.45369 0.44904 0.0
C508 C 0.94243 0.58185 0.52373 0.0
O509 O 0.97545 0.58018 0.44912 0.0
O510 O 0.01837 0.56162 0.44841 0.0
C511 C 0.93662 0.52857 0.62418 0.0
O512 O 0.04629 0.58037 0.57142 0.0
O513 O 0.00552 0.55829 0.57033 0.0
C514 C 0.08297 0.58562 0.49274 0.0
O515 O 0.94383 0.58219 0.55003 0.0
O516 O 0.95332 0.56127 0.51102 0.0
C517 C 0.09492 0.53616 0.39445 0.0
O518 O 0.08153 0.58538 0.46647 0.0
O519 O 0.06869 0.56764 0.50598 0.0
C520 C 0.04936 0.43945 0.55844 0.0
O521 O 0.03468 0.44735 0.53655 0.0
C522 C 0.00646 0.44938 0.43642 0.0
O523 O 0.018 0.4736 0.43189 0.0
Zn524 Zn 0.48388 0.97827 0.43634 0.0
Zn525 Zn 0.46767 0.0403 0.45876 0.0
O526 O 0.50082 0.01426 0.45126 0.0
H527 H 0.51953 0.01554 0.45974 0.0
C528 C 0.45664 0.92035 0.54461 0.0
O529 O 0.47854 0.9156 0.5281 0.0
Zn530 Zn 0.5821 0.06571 0.54708 0.0
Zn531 Zn 0.59477 0.00471 0.57205 0.0
O532 O 0.56944 0.0262 0.54568 0.0
H533 H 0.55722 0.01833 0.5316 0.0
Zn534 Zn 0.48899 0.96997 0.56648 0.0
O535 O 0.49098 0.00092 0.53793 0.0
Zn536 Zn 0.48518 0.0355 0.55987 0.0
H537 H 0.49943 0.9996 0.51967 0.0
Zn538 Zn 0.57806 0.00556 0.42941 0.0
O539 O 0.57603 0.03145 0.46282 0.0
H540 H 0.57772 0.01712 0.44901 0.0
Zn541 Zn 0.56502 0.06773 0.44598 0.0
C542 C 0.59788 0.95312 0.45595 0.0
O543 O 0.5871 0.96412 0.47862 0.0
O544 O 0.44151 0.98331 0.42503 0.0
O545 O 0.43204 0.02645 0.43848 0.0
O546 O 0.62571 0.0291 0.58995 0.0
O547 O 0.61947 0.06971 0.56887 0.0
O548 O 0.48698 0.9836 0.60703 0.0
O549 O 0.47439 0.02719 0.59937 0.0
C550 C 0.50148 0.08606 0.43928 0.0
O551 O 0.58835 0.02631 0.3935 0.0
O552 O 0.57824 0.06947 0.40595 0.0
O553 O 0.57848 0.97095 0.5939 0.0
C554 C 0.42466 0.00405 0.42656 0.0
O555 O 0.50714 0.95286 0.40889 0.0
C556 C 0.52831 0.07882 0.57202 0.0
O557 O 0.45703 0.94105 0.56076 0.0
C558 C 0.6329 0.05412 0.58597 0.0
O559 O 0.59617 0.96637 0.43328 0.0
C560 C 0.45096 0.06102 0.51634 0.0
O561 O 0.47598 0.07778 0.44297 0.0
O562 O 0.52182 0.07058 0.44777 0.0
C563 C 0.47794 0.00687 0.61581 0.0
O564 O 0.55337 0.08815 0.56872 0.0
O565 O 0.52177 0.0564 0.56002 0.0
C566 C 0.59168 0.09773 0.49216 0.0
O567 O 0.45555 0.06006 0.54231 0.0
O568 O 0.46377 0.04379 0.50057 0.0
C569 C 0.58704 0.05199 0.38806 0.0
O570 O 0.58582 0.0978 0.46642 0.0
O571 O 0.58186 0.07836 0.50707 0.0
C572 C 0.55935 0.9554 0.5836 0.0
O573 O 0.54953 0.96082 0.55863 0.0
C574 C 0.52395 0.93319 0.41569 0.0
O575 O 0.52904 0.92862 0.4421 0.0
C576 C 0.20471 0.15725 0.52373 0.0
C577 C 0.20626 0.1796 0.50532 0.0
C578 C 0.1808 0.1399 0.5241 0.0
C579 C 0.15769 0.14526 0.50583 0.0
C580 C 0.15803 0.16914 0.48892 0.0
C581 C 0.18241 0.18602 0.48878 0.0
C582 C 0.1813 0.11469 0.54248 0.0
C583 C 0.13353 0.17579 0.46951 0.0
C584 C 0.1183 0.08409 0.47583 0.0
C585 C 0.09307 0.08393 0.49155 0.0
C586 C 0.13965 0.10365 0.48072 0.0
C587 C 0.1354 0.12392 0.50151 0.0
C588 C 0.11001 0.12372 0.51766 0.0
C589 C 0.08913 0.10358 0.5125 0.0
C590 C 0.16663 0.1028 0.46335 0.0
C591 C 0.10448 0.14525 0.53966 0.0
H592 H 0.22284 0.15258 0.53706 0.0
H593 H 0.18343 0.20326 0.47454 0.0
H594 H 0.16068 0.11256 0.55371 0.0
H595 H 0.18416 0.09598 0.52947 0.0
H596 H 0.19901 0.11534 0.55788 0.0
H597 H 0.13504 0.19701 0.46099 0.0
H598 H 0.1337 0.16101 0.45192 0.0
H599 H 0.11264 0.17364 0.4803 0.0
H600 H 0.12127 0.06891 0.45952 0.0
H601 H 0.0692 0.10402 0.52392 0.0
H602 H 0.18578 0.10144 0.47696 0.0
H603 H 0.16842 0.12208 0.45114 0.0
H604 H 0.16704 0.08504 0.44878 0.0
H605 H 0.12293 0.14647 0.55412 0.0
H606 H 0.08476 0.14095 0.55181 0.0
H607 H 0.10211 0.16578 0.52975 0.0
C608 C 0.84718 0.2105 0.49612 0.0
C609 C 0.81932 0.21496 0.48607 0.0
C610 C 0.86014 0.18454 0.49485 0.0
C611 C 0.84485 0.16221 0.48326 0.0
C612 C 0.81714 0.16666 0.47197 0.0
C613 C 0.80448 0.19305 0.47381 0.0
C614 C 0.88966 0.18079 0.50741 0.0
C615 C 0.80039 0.14347 0.45902 0.0
C616 C 0.89736 0.10355 0.4759 0.0
C617 C 0.8952 0.09188 0.50235 0.0
C618 C 0.87839 0.12459 0.46758 0.0
C619 C 0.85714 0.1341 0.48635 0.0
C620 C 0.85289 0.1201 0.51173 0.0
C621 C 0.8721 0.09922 0.51946 0.0
C622 C 0.88322 0.13861 0.44009 0.0
C623 C 0.83029 0.12933 0.53225 0.0
H624 H 0.85854 0.22717 0.50621 0.0
H625 H 0.78294 0.19645 0.46599 0.0
H626 H 0.88838 0.16693 0.52566 0.0
H627 H 0.90443 0.17106 0.4922 0.0
H628 H 0.89914 0.20062 0.51424 0.0
H629 H 0.78375 0.15142 0.44454 0.0
H630 H 0.81471 0.129 0.44765 0.0
H631 H 0.78944 0.13168 0.47558 0.0
H632 H 0.91514 0.09797 0.46263 0.0
H633 H 0.87007 0.08978 0.53975 0.0
H634 H 0.89673 0.15708 0.4433 0.0
H635 H 0.86263 0.14553 0.4308 0.0
H636 H 0.8945 0.12475 0.42523 0.0
H637 H 0.83715 0.14885 0.5422 0.0
H638 H 0.82681 0.11377 0.54878 0.0
H639 H 0.8096 0.13339 0.52163 0.0
C640 C 0.84431 0.80732 0.52799 0.0
C641 C 0.82927 0.81188 0.5032 0.0
C642 C 0.85787 0.82904 0.54189 0.0
C643 C 0.85652 0.85594 0.5306 0.0
C644 C 0.84076 0.8608 0.50593 0.0
C645 C 0.82718 0.8387 0.49259 0.0
C646 C 0.87412 0.82312 0.56834 0.0
C647 C 0.83899 0.88917 0.49316 0.0
C648 C 0.8742 0.91815 0.57523 0.0
C649 C 0.90254 0.92357 0.56722 0.0
C650 C 0.85911 0.89585 0.56392 0.0
C651 C 0.8726 0.87876 0.54392 0.0
C652 C 0.90141 0.88374 0.53623 0.0
C653 C 0.91609 0.90597 0.5481 0.0
C654 C 0.82857 0.89091 0.57295 0.0
C655 C 0.91651 0.86602 0.51488 0.0
H656 H 0.84559 0.78665 0.53646 0.0
H657 H 0.81569 0.84222 0.47335 0.0
H658 H 0.89727 0.82731 0.56525 0.0
H659 H 0.86648 0.83693 0.58519 0.0
H660 H 0.87175 0.80139 0.57519 0.0
H661 H 0.82492 0.88971 0.47457 0.0
H662 H 0.83068 0.90426 0.50854 0.0
H663 H 0.86076 0.89598 0.48704 0.0
H664 H 0.86362 0.93159 0.59008 0.0
H665 H 0.93796 0.91001 0.54174 0.0
H666 H 0.82619 0.86942 0.58043 0.0
H667 H 0.81389 0.89354 0.55502 0.0
H668 H 0.82166 0.90524 0.58969 0.0
H669 H 0.91634 0.84411 0.52143 0.0
H670 H 0.9391 0.87234 0.51154 0.0
H671 H 0.90494 0.86731 0.4948 0.0
C672 C 0.17618 0.82565 0.56544 0.0
C673 C 0.19943 0.82504 0.54698 0.0
C674 C 0.15252 0.84322 0.56076 0.0
C675 C 0.15219 0.86039 0.53702 0.0
C676 C 0.17523 0.85914 0.51791 0.0
C677 C 0.19852 0.84151 0.52313 0.0
C678 C 0.12832 0.844 0.58156 0.0
C679 C 0.1756 0.87689 0.49218 0.0
C680 C 0.08518 0.89309 0.50662 0.0
C681 C 0.08879 0.92083 0.51407 0.0
C682 C 0.10473 0.87276 0.51542 0.0
C683 C 0.12833 0.88034 0.53216 0.0
C684 C 0.13092 0.90796 0.54137 0.0
C685 C 0.11114 0.92789 0.53216 0.0
C686 C 0.10114 0.84353 0.50526 0.0
C687 C 0.15555 0.91679 0.55959 0.0
H688 H 0.17691 0.81305 0.58399 0.0
H689 H 0.21627 0.84076 0.5086 0.0
H690 H 0.12766 0.86445 0.59188 0.0
H691 H 0.10741 0.84122 0.57098 0.0
H692 H 0.13073 0.82784 0.59773 0.0
H693 H 0.19472 0.87281 0.479 0.0
H694 H 0.15605 0.87321 0.47963 0.0
H695 H 0.17552 0.899 0.49813 0.0
H696 H 0.06783 0.88739 0.49285 0.0
H697 H 0.1139 0.9492 0.53831 0.0
H698 H 0.1038 0.8287 0.52259 0.0
H699 H 0.11799 0.83874 0.48969 0.0
H700 H 0.07984 0.84025 0.49552 0.0
H701 H 0.15727 0.90313 0.57796 0.0
H702 H 0.15316 0.93844 0.56683 0.0
H703 H 0.17598 0.91493 0.54791 0.0
C704 C 0.50264 0.20842 0.18161 0.0
C705 C 0.51832 0.21474 0.20556 0.0
C706 C 0.5116 0.18735 0.16364 0.0
C707 C 0.53662 0.17191 0.17003 0.0
C708 C 0.55083 0.17628 0.1956 0.0
C709 C 0.54161 0.19782 0.21304 0.0
C710 C 0.49569 0.1833 0.13667 0.0
C711 C 0.57711 0.15973 0.20353 0.0
C712 C 0.5521 0.1125 0.12065 0.0
C713 C 0.57028 0.12522 0.10139 0.0
C714 C 0.54209 0.1269 0.14409 0.0
C715 C 0.55018 0.1547 0.14805 0.0
C716 C 0.56952 0.16718 0.1293 0.0
C717 C 0.57945 0.15223 0.10633 0.0
C718 C 0.52206 0.11271 0.16399 0.0
C719 C 0.5787 0.19681 0.13273 0.0
H720 H 0.48417 0.221 0.17612 0.0
H721 H 0.55381 0.20251 0.23157 0.0
H722 H 0.50913 0.19073 0.11924 0.0
H723 H 0.49147 0.16113 0.13303 0.0
H724 H 0.47495 0.19471 0.13626 0.0
H725 H 0.58188 0.16145 0.22604 0.0
H726 H 0.57442 0.13764 0.19817 0.0
H727 H 0.59591 0.16743 0.19182 0.0
H728 H 0.54526 0.09146 0.11716 0.0
H729 H 0.59371 0.16214 0.09171 0.0
H730 H 0.50002 0.12106 0.16133 0.0
H731 H 0.52854 0.11672 0.18576 0.0
H732 H 0.5215 0.09007 0.16052 0.0
H733 H 0.55975 0.21066 0.13077 0.0
H734 H 0.59488 0.203 0.11705 0.0
H735 H 0.58791 0.20004 0.15368 0.0
C736 C 0.80895 0.51568 0.17862 0.0
C737 C 0.805 0.50469 0.20528 0.0
C738 C 0.83638 0.51809 0.16699 0.0
C739 C 0.86077 0.51046 0.18277 0.0
C740 C 0.85721 0.50096 0.21028 0.0
C741 C 0.8294 0.49767 0.22102 0.0
C742 C 0.83913 0.52796 0.1374 0.0
C743 C 0.88271 0.49355 0.22815 0.0
C744 C 0.92399 0.4882 0.13862 0.0
C745 C 0.93834 0.51324 0.13483 0.0
C746 C 0.89949 0.48667 0.15541 0.0
C747 C 0.8896 0.51058 0.16944 0.0
C748 C 0.90555 0.53528 0.16771 0.0
C749 C 0.92949 0.53645 0.15003 0.0
C750 C 0.88288 0.46006 0.15619 0.0
C751 C 0.89644 0.5609 0.18326 0.0
H752 H 0.79055 0.52222 0.16654 0.0
H753 H 0.82687 0.48899 0.24155 0.0
H754 H 0.85266 0.54664 0.13655 0.0
H755 H 0.84985 0.51184 0.12464 0.0
H756 H 0.81801 0.53289 0.12788 0.0
H757 H 0.87667 0.49127 0.25032 0.0
H758 H 0.89219 0.47377 0.22094 0.0
H759 H 0.89955 0.50951 0.22646 0.0
H760 H 0.93061 0.4702 0.12683 0.0
H761 H 0.94072 0.55574 0.1474 0.0
H762 H 0.86192 0.46306 0.14563 0.0
H763 H 0.87834 0.45399 0.17789 0.0
H764 H 0.89452 0.44285 0.1458 0.0
H765 H 0.8775 0.57031 0.17295 0.0
H766 H 0.91378 0.57649 0.18391 0.0
H767 H 0.89011 0.55573 0.20482 0.0
C768 C 0.59966 0.84116 0.17913 0.0
C769 C 0.5835 0.81731 0.18373 0.0
C770 C 0.5955 0.85715 0.15518 0.0
C771 C 0.57435 0.84932 0.13569 0.0
C772 C 0.55904 0.8245 0.13958 0.0
C773 C 0.56391 0.80873 0.1635 0.0
C774 C 0.61266 0.88316 0.1515 0.0
C775 C 0.53613 0.81551 0.11944 0.0
C776 C 0.53287 0.90453 0.097 0.0
C777 C 0.54304 0.90121 0.06983 0.0
C778 C 0.5436 0.88834 0.11872 0.0
C779 C 0.56545 0.86863 0.11329 0.0
C780 C 0.57699 0.86622 0.08621 0.0
C781 C 0.56544 0.8824 0.0647 0.0
C782 C 0.53054 0.89145 0.14725 0.0
C783 C 0.60084 0.84599 0.07978 0.0
H784 H 0.6151 0.84763 0.19459 0.0
H785 H 0.55122 0.79043 0.16707 0.0
H786 H 0.62074 0.88476 0.12992 0.0
H787 H 0.59868 0.90137 0.15538 0.0
H788 H 0.63116 0.88406 0.16598 0.0
H789 H 0.52809 0.7945 0.12408 0.0
H790 H 0.51778 0.83019 0.12036 0.0
H791 H 0.54448 0.81574 0.09791 0.0
H792 H 0.51559 0.91904 0.10116 0.0
H793 H 0.57359 0.87993 0.04378 0.0
H794 H 0.54751 0.89543 0.16283 0.0
H795 H 0.51979 0.87199 0.15323 0.0
H796 H 0.51453 0.9085 0.14825 0.0
H797 H 0.61879 0.8486 0.09463 0.0
H798 H 0.60921 0.84847 0.05835 0.0
H799 H 0.59289 0.82462 0.08215 0.0
C800 C 0.23809 0.61205 0.18433 0.0
C801 C 0.26714 0.60459 0.18242 0.0
C802 C 0.21804 0.60211 0.16515 0.0
C803 C 0.2274 0.58475 0.14327 0.0
C804 C 0.25686 0.57849 0.14022 0.0
C805 C 0.27631 0.58813 0.16003 0.0
C806 C 0.18669 0.60914 0.16904 0.0
C807 C 0.2677 0.56071 0.11664 0.0
C808 C 0.17305 0.53345 0.11691 0.0
C809 C 0.16187 0.54721 0.09372 0.0
C810 C 0.19489 0.54524 0.13284 0.0
C811 C 0.2061 0.57118 0.12511 0.0
C812 C 0.19613 0.58441 0.1008 0.0
C813 C 0.17396 0.57234 0.08548 0.0
C814 C 0.20501 0.53053 0.1587 0.0
C815 C 0.20788 0.61185 0.09164 0.0
H816 H 0.23087 0.62513 0.20122 0.0
H817 H 0.29855 0.58169 0.15848 0.0
H818 H 0.17771 0.61808 0.14971 0.0
H819 H 0.17453 0.59006 0.17354 0.0
H820 H 0.1831 0.62398 0.18628 0.0
H821 H 0.29145 0.55857 0.11668 0.0
H822 H 0.25823 0.53984 0.11803 0.0
H823 H 0.2609 0.56971 0.09652 0.0
H824 H 0.16377 0.51409 0.12348 0.0
H825 H 0.16552 0.58307 0.06749 0.0
H826 H 0.20009 0.54335 0.17721 0.0
H827 H 0.2286 0.52748 0.15804 0.0
H828 H 0.19472 0.51011 0.16133 0.0
H829 H 0.19907 0.62842 0.10511 0.0
H830 H 0.20201 0.61666 0.06983 0.0
H831 H 0.23157 0.61223 0.09365 0.0
C832 C 0.50849 0.83909 0.7817 0.0
C833 C 0.49301 0.81627 0.79138 0.0
C834 C 0.50922 0.86382 0.79689 0.0
C835 C 0.49499 0.86539 0.82275 0.0
C836 C 0.47857 0.84283 0.83215 0.0
C837 C 0.47735 0.81881 0.81612 0.0
C838 C 0.5255 0.88808 0.78549 0.0
C839 C 0.46285 0.84373 0.85956 0.0
C840 C 0.52055 0.90996 0.88191 0.0
C841 C 0.49737 0.92824 0.88473 0.0
C842 C 0.52103 0.89034 0.86054 0.0
C843 C 0.49828 0.88981 0.84105 0.0
C844 C 0.47642 0.91021 0.8422 0.0
C845 C 0.47583 0.92879 0.8645 0.0
C846 C 0.5444 0.86861 0.86048 0.0
C847 C 0.45246 0.91139 0.82119 0.0
H848 H 0.52065 0.83748 0.76261 0.0
H849 H 0.46435 0.80181 0.82327 0.0
H850 H 0.51193 0.90697 0.78635 0.0
H851 H 0.54476 0.89192 0.79838 0.0
H852 H 0.53249 0.88465 0.76372 0.0
H853 H 0.45192 0.82401 0.86431 0.0
H854 H 0.4781 0.8483 0.8766 0.0
H855 H 0.44652 0.86046 0.85927 0.0
H856 H 0.53712 0.90949 0.8977 0.0
H857 H 0.45802 0.94318 0.86656 0.0
H858 H 0.55384 0.86639 0.83949 0.0
H859 H 0.53506 0.84839 0.86617 0.0
H860 H 0.56184 0.87341 0.87538 0.0
H861 H 0.45884 0.90227 0.80098 0.0
H862 H 0.44549 0.93305 0.81769 0.0
H863 H 0.43375 0.89988 0.82926 0.0
C864 C 0.24069 0.56777 0.80851 0.0
C865 C 0.23789 0.55371 0.7832 0.0
C866 C 0.22037 0.56441 0.82983 0.0
C867 C 0.19637 0.54716 0.82545 0.0
C868 C 0.19364 0.53271 0.80014 0.0
C869 C 0.21469 0.53566 0.77969 0.0
C870 C 0.22445 0.57945 0.85694 0.0
C871 C 0.16822 0.51438 0.79443 0.0
C872 C 0.15313 0.51673 0.88447 0.0
C873 C 0.12949 0.53475 0.88576 0.0
C874 C 0.17565 0.52124 0.86576 0.0
C875 C 0.17406 0.54381 0.84724 0.0
C876 C 0.15016 0.56202 0.84833 0.0
C877 C 0.1284 0.55754 0.86795 0.0
C878 C 0.20111 0.5018 0.86578 0.0
C879 C 0.14727 0.58583 0.82836 0.0
H880 H 0.25843 0.58176 0.81151 0.0
H881 H 0.21275 0.52384 0.76071 0.0
H882 H 0.2067 0.59447 0.8601 0.0
H883 H 0.22378 0.56464 0.87446 0.0
H884 H 0.24512 0.59069 0.85771 0.0
H885 H 0.16864 0.50562 0.77313 0.0
H886 H 0.16783 0.4971 0.80946 0.0
H887 H 0.14797 0.52625 0.79711 0.0
H888 H 0.15439 0.49939 0.89859 0.0
H889 H 0.11033 0.57164 0.8691 0.0
H890 H 0.22132 0.51363 0.86761 0.0
H891 H 0.20206 0.49033 0.84589 0.0
H892 H 0.20017 0.48664 0.883 0.0
H893 H 0.16605 0.59961 0.83019 0.0
H894 H 0.12746 0.59817 0.83203 0.0
H895 H 0.14688 0.57794 0.80675 0.0
C896 C 0.46481 0.18854 0.82947 0.0
C897 C 0.44914 0.178 0.80702 0.0
C898 C 0.46904 0.17302 0.85365 0.0
C899 C 0.45767 0.14609 0.85542 0.0
C900 C 0.44004 0.13609 0.83378 0.0
C901 C 0.43596 0.15218 0.80983 0.0
C902 C 0.4878 0.1846 0.87632 0.0
C903 C 0.42722 0.10763 0.83502 0.0
C904 C 0.5088 0.0988 0.89331 0.0
C905 C 0.49711 0.09824 0.92006 0.0
C906 C 0.49507 0.11283 0.87173 0.0
C907 C 0.46897 0.12696 0.87702 0.0
C908 C 0.45602 0.12502 0.90358 0.0
C909 C 0.47029 0.11052 0.9249 0.0
C910 C 0.50956 0.11393 0.8437 0.0
C911 C 0.42814 0.13962 0.91003 0.0
H912 H 0.47532 0.2083 0.82759 0.0
H913 H 0.42324 0.1441 0.7929 0.0
H914 H 0.478 0.18109 0.89696 0.0
H915 H 0.50891 0.17387 0.87606 0.0
H916 H 0.49151 0.20706 0.8737 0.0
H917 H 0.41003 0.10487 0.81933 0.0
H918 H 0.44425 0.09201 0.83106 0.0
H919 H 0.41827 0.10348 0.85591 0.0
H920 H 0.52935 0.08889 0.8894 0.0
H921 H 0.46128 0.11016 0.9456 0.0
H922 H 0.51675 0.13528 0.83948 0.0
H923 H 0.49427 0.10816 0.82709 0.0
H924 H 0.52852 0.09997 0.84245 0.0
H925 H 0.43234 0.16185 0.91349 0.0
H926 H 0.41787 0.13123 0.92901 0.0
H927 H 0.41289 0.13795 0.89246 0.0
C928 C 0.75729 0.54404 0.8648 0.0
C929 C 0.76166 0.52993 0.83968 0.0
C930 C 0.779 0.5454 0.88488 0.0
C931 C 0.80578 0.5326 0.87956 0.0
C932 C 0.81047 0.51863 0.85413 0.0
C933 C 0.7883 0.51735 0.83457 0.0
C934 C 0.77327 0.5604 0.9118 0.0
C935 C 0.83887 0.50487 0.84763 0.0
C936 C 0.87398 0.55311 0.91652 0.0
C937 C 0.87862 0.53017 0.93367 0.0
C938 C 0.84955 0.55487 0.89964 0.0
C939 C 0.82907 0.5335 0.9005 0.0
C940 C 0.8325 0.51147 0.91946 0.0
C941 C 0.85742 0.50993 0.93566 0.0
C942 C 0.84681 0.57845 0.87936 0.0
C943 C 0.81081 0.48858 0.92134 0.0
H944 H 0.7369 0.55421 0.86871 0.0
H945 H 0.79172 0.50612 0.81539 0.0
H946 H 0.77639 0.54614 0.92953 0.0
H947 H 0.78877 0.57745 0.91441 0.0
H948 H 0.75118 0.56909 0.91281 0.0
H949 H 0.83931 0.49565 0.82653 0.0
H950 H 0.85648 0.52006 0.84922 0.0
H951 H 0.84332 0.48836 0.86297 0.0
H952 H 0.89037 0.56876 0.9148 0.0
H953 H 0.86085 0.49228 0.94907 0.0
H954 H 0.82523 0.58812 0.88086 0.0
H955 H 0.84923 0.57051 0.85789 0.0
H956 H 0.86326 0.59454 0.88285 0.0
H957 H 0.78876 0.4972 0.92286 0.0
H958 H 0.81475 0.47496 0.93948 0.0
H959 H 0.81181 0.47583 0.90225 0.0
C960 C 0.70817 0.67431 0.95257 0.0
C961 C 0.7133 0.70018 0.96457 0.0
C962 C 0.68214 0.66066 0.95684 0.0
C963 C 0.66038 0.67353 0.97285 0.0
C964 C 0.66469 0.7003 0.98361 0.0
C965 C 0.69123 0.71315 0.97969 0.0
C966 C 0.67848 0.63192 0.9453 0.0
C967 C 0.6417 0.71491 0.00024 0.0
C968 C 0.58756 0.63926 0.96883 0.0
C969 C 0.58821 0.62261 0.9926 0.0
C970 C 0.6103 0.65711 0.96277 0.0
C971 C 0.63442 0.65777 0.98058 0.0
C972 C 0.63464 0.64184 0.00515 0.0
C973 C 0.61139 0.62472 0.01102 0.0
C974 C 0.60896 0.67449 0.93684 0.0
C975 C 0.66012 0.6417 0.02453 0.0
H976 H 0.72476 0.66439 0.94029 0.0
H977 H 0.69496 0.73295 0.9894 0.0
H978 H 0.67613 0.61706 0.96262 0.0
H979 H 0.65869 0.63081 0.93262 0.0
H980 H 0.69698 0.62531 0.93231 0.0
H981 H 0.64709 0.73681 0.00427 0.0
H982 H 0.62084 0.71411 0.98919 0.0
H983 H 0.63885 0.70439 0.02045 0.0
H984 H 0.56959 0.63791 0.95464 0.0
H985 H 0.6121 0.61196 0.02945 0.0
H986 H 0.62471 0.66658 0.92148 0.0
H987 H 0.61478 0.69613 0.94158 0.0
H988 H 0.58732 0.67428 0.92719 0.0
H989 H 0.67924 0.63343 0.01352 0.0
H990 H 0.65639 0.62897 0.04331 0.0
H991 H 0.66521 0.663 0.0312 0.0
C992 C 0.30492 0.72421 0.08543 0.0
C993 C 0.27676 0.72746 0.0756 0.0
C994 C 0.31967 0.69907 0.08242 0.0
C995 C 0.30567 0.67642 0.06994 0.0
C996 C 0.27619 0.6785 0.06335 0.0
C997 C 0.26219 0.7041 0.0658 0.0
C998 C 0.35099 0.69752 0.09031 0.0
C999 C 0.25999 0.65438 0.05151 0.0
C1000 C 0.35354 0.63587 0.0214 0.0
C1001 C 0.36393 0.61475 0.03859 0.0
C1002 C 0.33376 0.65539 0.03118 0.0
C1003 C 0.32318 0.65325 0.05862 0.0
C1004 C 0.33161 0.6306 0.07536 0.0
C1005 C 0.3524 0.61189 0.06534 0.0
C1006 C 0.32571 0.67935 0.01263 0.0
C1007 C 0.31981 0.6266 0.10421 0.0
H1008 H 0.31602 0.74174 0.09418 0.0
H1009 H 0.24038 0.70603 0.0583 0.0
H1010 H 0.35508 0.67925 0.10357 0.0
H1011 H 0.36423 0.69515 0.07131 0.0
H1012 H 0.35816 0.71624 0.10158 0.0
H1013 H 0.23652 0.65672 0.0549 0.0
H1014 H 0.26381 0.65313 0.02884 0.0
H1015 H 0.26737 0.63469 0.06091 0.0
H1016 H 0.36222 0.63831 0.0007 0.0
H1017 H 0.36009 0.59546 0.07867 0.0
H1018 H 0.33237 0.69901 0.02244 0.0
H1019 H 0.30213 0.6803 0.00978 0.0
H1020 H 0.33589 0.67792 0.99184 0.0
H1021 H 0.33447 0.63622 0.11948 0.0
H1022 H 0.31848 0.60433 0.10928 0.0
H1023 H 0.29817 0.63598 0.10669 0.0
C1024 C 0.31263 0.31387 0.02087 0.0
C1025 C 0.29006 0.31211 0.04 0.0
C1026 C 0.33095 0.33653 0.02062 0.0
C1027 C 0.32601 0.35851 0.03935 0.0
C1028 C 0.30192 0.35794 0.05725 0.0
C1029 C 0.28429 0.33454 0.05756 0.0
C1030 C 0.35643 0.33626 0.00122 0.0
C1031 C 0.29549 0.38148 0.07683 0.0
C1032 C 0.39339 0.39819 0.05656 0.0
C1033 C 0.3925 0.41891 0.03639 0.0
C1034 C 0.37106 0.37905 0.05872 0.0
C1035 C 0.34708 0.38126 0.04077 0.0
C1036 C 0.34524 0.40333 0.02171 0.0
C1037 C 0.3682 0.42166 0.01945 0.0
C1038 C 0.37405 0.35547 0.07896 0.0
C1039 C 0.31964 0.40688 0.00282 0.0
H1040 H 0.31666 0.2969 0.0067 0.0
H1041 H 0.26683 0.33331 0.07234 0.0
H1042 H 0.35597 0.35474 0.98772 0.0
H1043 H 0.37661 0.33695 0.01341 0.0
H1044 H 0.35702 0.31761 0.98781 0.0
H1045 H 0.274 0.37956 0.08656 0.0
H1046 H 0.31187 0.38191 0.0935 0.0
H1047 H 0.29655 0.40148 0.06573 0.0
H1048 H 0.41214 0.39615 0.0697 0.0
H1049 H 0.36727 0.43804 0.00418 0.0
H1050 H 0.37772 0.336 0.06732 0.0
H1051 H 0.35407 0.35298 0.09115 0.0
H1052 H 0.39221 0.35845 0.09354 0.0
H1053 H 0.32006 0.39069 0.98656 0.0
H1054 H 0.31943 0.42733 0.99247 0.0
H1055 H 0.29938 0.40449 0.01463 0.0
C1056 C 0.73886 0.31936 0.00989 0.0
C1057 C 0.76402 0.33006 -0.00175 0.0
C1058 C 0.71404 0.33577 0.01266 0.0
C1059 C 0.71445 0.36363 0.00384 0.0
C1060 C 0.73989 0.37469 0.99257 0.0
C1061 C 0.76421 0.35774 0.98965 0.0
C1062 C 0.68719 0.32312 0.02448 0.0
C1063 C 0.74124 0.40428 0.98293 0.0
C1064 C 0.64405 0.39588 0.981 0.0
C1065 C 0.63584 0.4113 0.00443 0.0
C1066 C 0.66953 0.38041 0.98063 0.0
C1067 C 0.68762 0.3805 0.00415 0.0
C1068 C 0.68001 0.39657 0.02764 0.0
C1069 C 0.65411 0.41171 0.02757 0.0
C1070 C 0.67676 0.3635 0.95519 0.0
C1071 C 0.69906 0.39749 0.05292 0.0
H1072 H 0.73858 0.29816 0.01694 0.0
H1073 H 0.7833 0.36613 0.98012 0.0
H1074 H 0.67938 0.33548 0.04235 0.0
H1075 H 0.66998 0.32332 0.00859 0.0
H1076 H 0.69071 0.30152 0.03141 0.0
H1077 H 0.76331 0.41039 0.97693 0.0
H1078 H 0.72694 0.40723 0.96477 0.0
H1079 H 0.73353 0.41835 -0.00048 0.0
H1080 H 0.63021 0.39533 0.96296 0.0
H1081 H 0.64803 0.42354 0.04575 0.0
H1082 H 0.67855 0.34138 0.96083 0.0
H1083 H 0.69783 0.36982 0.94672 0.0
H1084 H 0.66039 0.36571 0.93859 0.0
H1085 H 0.70147 0.37649 0.06176 0.0
H1086 H 0.6904 0.41142 0.06923 0.0
H1087 H 0.7208 0.40458 0.04704 0.0
C1088 C 0.97134 0.70288 0.67872 0.0
C1089 C -0.00538 0.70603 0.69688 0.0
C1090 C 0.97007 0.68042 0.66038 0.0
C1091 C -0.0072 0.66093 0.66001 0.0
C1092 C 0.01541 0.66311 0.67951 0.0
C1093 C 0.01597 0.68559 0.6978 0.0
C1094 C 0.94538 0.67855 0.64024 0.0
C1095 C 0.04016 0.64283 0.67973 0.0
C1096 C -0.00769 0.59314 0.62059 0.0
C1097 C 0.00828 0.60004 0.59707 0.0
C1098 C 0.9853 0.61318 0.64059 0.0
C1099 C -0.00481 0.64051 0.63711 0.0
C1100 C 0.01035 0.64774 0.61275 0.0
C1101 C 0.01669 0.62738 0.59303 0.0
C1102 C 0.96879 0.6048 0.6661 0.0
C1103 C 0.02151 0.67657 0.60828 0.0
H1104 H 0.95461 0.71853 0.67822 0.0
H1105 H 0.03411 0.68806 0.71162 0.0
H1106 H 0.95286 0.68423 0.61918 0.0
H1107 H 0.93725 0.65713 0.63912 0.0
H1108 H 0.9274 0.69256 0.64604 0.0
H1109 H 0.05449 0.64583 0.69787 0.0
H1110 H 0.03215 0.62136 0.68 0.0
H1111 H 0.05303 0.64534 0.66054 0.0
H1112 H 0.98716 0.57177 0.62434 0.0
H1113 H 0.02935 0.63261 0.57493 0.0
H1114 H 0.9498 0.61847 0.66886 0.0
H1115 H 0.98244 0.60719 0.68478 0.0
H1116 H 0.96144 0.58309 0.66498 0.0
H1117 H 0.00396 0.69192 0.61087 0.0
H1118 H 0.03112 0.67922 0.58738 0.0
H1119 H 0.03812 0.68121 0.62406 0.0
C1120 C 0.34778 0.98755 0.69143 0.0
C1121 C 0.34022 0.99704 0.71788 0.0
C1122 C 0.37602 0.98899 0.68197 0.0
C1123 C 0.39755 0.99961 0.6997 0.0
C1124 C 0.39053 0.00739 0.72719 0.0
C1125 C 0.36179 0.00634 0.73587 0.0
C1126 C 0.38242 0.98028 0.65245 0.0
C1127 C 0.41283 0.01788 0.74718 0.0
C1128 C 0.46559 0.98551 0.66147 0.0
C1129 C 0.46576 0.00872 0.64408 0.0
C1130 C 0.44595 0.98378 0.68343 0.0
C1131 C 0.42605 0.00553 0.68757 0.0
C1132 C 0.42954 0.03066 0.67318 0.0
C1133 C 0.44941 0.03197 0.65151 0.0
C1134 C 0.44411 0.95736 0.69978 0.0
C1135 C 0.40944 0.05475 0.67781 0.0
H1136 H 0.33141 0.97932 0.67782 0.0
H1137 H 0.35619 0.0135 0.75649 0.0
H1138 H 0.39061 0.99811 0.64049 0.0
H1139 H 0.39927 0.96403 0.65221 0.0
H1140 H 0.36321 0.97219 0.64162 0.0
H1141 H 0.40751 0.01178 0.76877 0.0
H1142 H 0.43466 0.01012 0.74209 0.0
H1143 H 0.41308 0.04074 0.74648 0.0
H1144 H 0.47886 0.96773 0.65649 0.0
H1145 H 0.44993 0.05031 0.6387 0.0
H1146 H 0.42775 0.94379 0.69029 0.0
H1147 H 0.43758 0.96153 0.72153 0.0
H1148 H 0.46494 0.94607 0.69975 0.0
H1149 H 0.38818 0.05004 0.66864 0.0
H1150 H 0.41758 0.07383 0.66809 0.0
H1151 H 0.40633 0.05858 0.70027 0.0
C1152 C 0.00061 0.31654 0.66017 0.0
C1153 C 0.98238 0.32883 0.67985 0.0
C1154 C 0.0104 0.3315 0.63712 0.0
C1155 C 0.00184 0.35938 0.63382 0.0
C1156 C 0.9821 0.37132 0.65273 0.0
C1157 C 0.97258 0.35588 0.67545 0.0
C1158 C 0.03112 0.31793 0.61721 0.0
C1159 C 0.97222 0.40092 0.64983 0.0
C1160 C 0.0523 0.41111 0.60156 0.0
C1161 C 0.039 0.41654 0.57605 0.0
C1162 C 0.04099 0.39173 0.62003 0.0
C1163 C 0.01587 0.37716 0.61274 0.0
C1164 C 0.00316 0.38144 0.58642 0.0
C1165 C 0.0148 0.40121 0.5684 0.0
C1166 C 0.05519 0.38782 0.64793 0.0
C1167 C 0.97672 0.36586 0.5777 0.0
H1168 H 0.00829 0.29564 0.66344 0.0
H1169 H 0.95796 0.36527 0.69024 0.0
H1170 H 0.02503 0.32247 0.59544 0.0
H1171 H 0.05293 0.32631 0.62058 0.0
H1172 H 0.03207 0.29521 0.62004 0.0
H1173 H 0.95518 0.40642 0.66501 0.0
H1174 H 0.99068 0.41489 0.65308 0.0
H1175 H 0.96392 0.40474 0.62861 0.0
H1176 H 0.07107 0.42271 0.60762 0.0
H1177 H 0.00453 0.40508 0.54861 0.0
H1178 H 0.05991 0.36567 0.65156 0.0
H1179 H 0.04041 0.39481 0.6646 0.0
H1180 H 0.07551 0.39953 0.64975 0.0
H1181 H 0.97137 0.36922 0.5555 0.0
H1182 H 0.95818 0.3726 0.59049 0.0
H1183 H 0.97975 0.34344 0.58126 0.0
C1184 C 0.71446 0.09368 0.7225 0.0
C1185 C 0.74213 0.10409 0.71869 0.0
C1186 C 0.69618 0.08946 0.69974 0.0
C1187 C 0.70595 0.09559 0.6726 0.0
C1188 C 0.73305 0.10795 0.6689 0.0
C1189 C 0.7507 0.11227 0.69202 0.0
C1190 C 0.66714 0.07675 0.70459 0.0
C1191 C 0.74435 0.11473 0.64038 0.0
C1192 C 0.67573 0.04924 0.61656 0.0
C1193 C 0.65459 0.06615 0.60468 0.0
C1194 C 0.69332 0.05901 0.63795 0.0
C1195 C 0.68928 0.08619 0.64808 0.0
C1196 C 0.66867 0.10371 0.63548 0.0
C1197 C 0.65172 0.09352 0.61372 0.0
C1198 C 0.71551 0.03985 0.65043 0.0
C1199 C 0.66362 0.13274 0.64582 0.0
H1200 H 0.70771 0.08728 0.743 0.0
H1201 H 0.77187 0.12088 0.68903 0.0
H1202 H 0.65033 0.08817 0.69295 0.0
H1203 H 0.6673 0.05519 0.69685 0.0
H1204 H 0.66127 0.07654 0.72692 0.0
H1205 H 0.76405 0.12745 0.64129 0.0
H1206 H 0.74951 0.0953 0.62919 0.0
H1207 H 0.72791 0.12588 0.62802 0.0
H1208 H 0.678 0.02806 0.60961 0.0
H1209 H 0.63504 0.10646 0.60493 0.0
H1210 H 0.7098 0.03531 0.67228 0.0
H1211 H 0.73685 0.04983 0.65055 0.0
H1212 H 0.71726 0.02003 0.63895 0.0
H1213 H 0.65746 0.13232 0.66804 0.0
H1214 H 0.6465 0.1436 0.63401 0.0
H1215 H 0.68368 0.14479 0.64423 0.0
C1216 C 0.06558 0.31089 0.36332 0.0
C1217 C 0.05149 0.3076 0.33784 0.0
C1218 C 0.06062 0.33423 0.37992 0.0
C1219 C 0.04111 0.35481 0.37085 0.0
C1220 C 0.02746 0.35201 0.34477 0.0
C1221 C 0.03281 0.32844 0.32858 0.0
C1222 C 0.07575 0.33658 0.40744 0.0
C1223 C 0.00651 0.3735 0.33434 0.0
C1224 C 0.00253 0.39947 0.42396 0.0
C1225 C 0.0171 0.42457 0.42154 0.0
C1226 C 0.01054 0.37647 0.408 0.0
C1227 C 0.03378 0.37854 0.38922 0.0
C1228 C 0.04927 0.40348 0.38743 0.0
C1229 C 0.04073 0.42622 0.4036 0.0
C1230 C -0.00641 0.35018 0.41069 0.0
C1231 C 0.07435 0.4064 0.36787 0.0
H1232 H 0.08038 0.29505 0.3704 0.0
H1233 H 0.02161 0.32591 0.30905 0.0
H1234 H 0.08737 0.35643 0.40862 0.0
H1235 H 0.05979 0.33651 0.4245 0.0
H1236 H 0.09128 0.31945 0.41092 0.0
H1237 H -0.0011 0.36901 0.31299 0.0
H1238 H 0.98764 0.37452 0.34835 0.0
H1239 H 0.0166 0.39415 0.33449 0.0
H1240 H 0.98434 0.39793 0.43786 0.0
H1241 H 0.05222 0.44548 0.40172 0.0
H1242 H 0.00813 0.33269 0.41574 0.0
H1243 H 0.9831 0.34532 0.39063 0.0
H1244 H 0.97678 0.35164 0.42698 0.0
H1245 H 0.09031 0.38973 0.37158 0.0
H1246 H 0.08519 0.42661 0.37014 0.0
H1247 H 0.06684 0.4043 0.34614 0.0
C1248 C 0.65526 0.09142 0.242 0.0
C1249 C 0.68068 0.10618 0.24672 0.0
C1250 C 0.6359 0.08629 0.26357 0.0
C1251 C 0.64264 0.09507 0.29071 0.0
C1252 C 0.66701 0.11168 0.29531 0.0
C1253 C 0.68542 0.11751 0.27313 0.0
C1254 C 0.60928 0.06972 0.25767 0.0
C1255 C 0.67474 0.12162 0.32402 0.0
C1256 C 0.59025 0.08751 0.35057 0.0
C1257 C 0.59903 0.06209 0.36169 0.0
C1258 C 0.60377 0.09839 0.327 0.0
C1259 C 0.62676 0.08362 0.31467 0.0
C1260 C 0.63538 0.05779 0.32566 0.0
C1261 C 0.62115 0.04719 0.34881 0.0
C1262 C 0.59319 0.12546 0.31524 0.0
C1263 C 0.66033 0.04173 0.31354 0.0
H1264 H 0.65114 0.0823 0.22191 0.0
H1265 H 0.70433 0.12982 0.27687 0.0
H1266 H 0.61215 0.04847 0.26574 0.0
H1267 H 0.59043 0.07898 0.26833 0.0
H1268 H 0.60466 0.06846 0.2351 0.0
H1269 H 0.69305 0.13615 0.32378 0.0
H1270 H 0.65605 0.132 0.33385 0.0
H1271 H 0.68062 0.10368 0.33717 0.0
H1272 H 0.5729 0.09892 0.36034 0.0
H1273 H 0.62821 0.0277 0.35753 0.0
H1274 H 0.611 0.13808 0.307 0.0
H1275 H 0.58149 0.13779 0.33103 0.0
H1276 H 0.57826 0.12121 0.29786 0.0
H1277 H 0.656 0.03668 0.2915 0.0
H1278 H 0.66461 0.0222 0.32489 0.0
H1279 H 0.68001 0.05446 0.31414 0.0
C1280 C 0.03231 0.70387 0.3334 0.0
C1281 C 0.00902 0.70107 0.31523 0.0
C1282 C 0.03455 0.68745 0.35733 0.0
C1283 C 0.01306 0.66776 0.36298 0.0
C1284 C 0.98876 0.66595 0.34546 0.0
C1285 C 0.98699 0.68272 0.3219 0.0
C1286 C 0.06047 0.69031 0.37583 0.0
C1287 C 0.96526 0.64531 0.35078 0.0
C1288 C 0.02651 0.60052 0.40064 0.0
C1289 C 0.01098 0.60491 0.42506 0.0
C1290 C 0.02926 0.62162 0.38094 0.0
C1291 C 0.01636 0.64771 0.38609 0.0
C1292 C 0.00276 0.65284 0.41183 0.0
C1293 C -0.00011 0.63122 0.43089 0.0
C1294 C 0.04378 0.61527 0.35365 0.0
C1295 C 0.9892 0.68045 0.41837 0.0
H1296 H 0.04947 0.71793 0.32823 0.0
H1297 H 0.96876 0.68082 0.30809 0.0
H1298 H 0.05396 0.69091 0.39796 0.0
H1299 H 0.07478 0.67215 0.37303 0.0
H1300 H 0.07287 0.70919 0.37103 0.0
H1301 H 0.94742 0.64714 0.3356 0.0
H1302 H 0.9742 0.62407 0.34961 0.0
H1303 H 0.95637 0.64817 0.37193 0.0
H1304 H 0.03423 0.57997 0.39582 0.0
H1305 H 0.98773 0.63454 0.4498 0.0
H1306 H 0.06109 0.63032 0.34971 0.0
H1307 H 0.02805 0.61721 0.33647 0.0
H1308 H 0.05311 0.59414 0.35311 0.0
H1309 H 0.00336 0.69753 0.4118 0.0
H1310 H 0.9845 0.68272 0.44085 0.0
H1311 H 0.96874 0.68259 0.40679 0.0
C1312 C 0.31462 0.9787 0.30477 0.0
C1313 C 0.28658 0.98821 0.30988 0.0
C1314 C 0.33664 0.98276 0.32426 0.0
C1315 C 0.33031 0.99576 0.34991 0.0
C1316 C 0.30221 0.00549 0.35518 0.0
C1317 C 0.28097 0.00226 0.3349 0.0
C1318 C 0.36664 0.97295 0.31749 0.0
C1319 C 0.29437 0.01885 0.38251 0.0
C1320 C 0.38174 0.97923 0.40881 0.0
C1321 C 0.39798 0.00337 0.4102 0.0
C1322 C 0.35886 0.97693 0.39004 0.0
C1323 C 0.35298 0.99882 0.37142 0.0
C1324 C 0.36906 0.02344 0.37309 0.0
C1325 C 0.39103 0.0256 0.39287 0.0
C1326 C 0.34138 0.95084 0.38976 0.0
C1327 C 0.36412 0.0469 0.35305 0.0
H1328 H 0.31938 0.9677 0.28575 0.0
H1329 H 0.25981 0.01073 0.33886 0.0
H1330 H 0.38214 0.98995 0.32058 0.0
H1331 H 0.37292 0.956 0.33172 0.0
H1332 H 0.36854 0.96537 0.29581 0.0
H1333 H 0.27124 0.02441 0.38372 0.0
H1334 H 0.29956 0.00462 0.39984 0.0
H1335 H 0.30714 0.03779 0.38568 0.0
H1336 H 0.38721 0.96203 0.4222 0.0
H1337 H 0.40396 0.04409 0.39361 0.0
H1338 H 0.34496 0.9396 0.37001 0.0
H1339 H 0.31816 0.95594 0.391 0.0
H1340 H 0.34701 0.93688 0.40721 0.0
H1341 H 0.36858 0.03974 0.3316 0.0
H1342 H 0.37799 0.06489 0.35758 0.0
H1343 H 0.3414 0.05377 0.35367 0.0
C1344 C 0.03594 0.18379 0.32454 0.0
C1345 C 0.05399 0.20441 0.33487 0.0
C1346 C 0.02956 0.16029 0.3404 0.0
C1347 C 0.04147 0.15729 0.36729 0.0
C1348 C 0.06135 0.17703 0.37699 0.0
C1349 C 0.06732 0.20034 0.3607 0.0
C1350 C 0.00835 0.13972 0.32916 0.0
C1351 C 0.07481 0.17454 0.40536 0.0
C1352 C 0.99194 0.12294 0.41895 0.0
C1353 C 0.00288 0.09595 0.4202 0.0
C1354 C 0.00493 0.14313 0.40256 0.0
C1355 C 0.02954 0.13628 0.3867 0.0
C1356 C 0.04142 0.10931 0.38861 0.0
C1357 C 0.02796 0.08943 0.40545 0.0
C1358 C 0.99163 0.17163 0.40151 0.0
C1359 C 0.0676 0.10114 0.37206 0.0
H1360 H 0.02544 0.18674 0.3047 0.0
H1361 H 0.08175 0.2159 0.36863 0.0
H1362 H 0.01632 0.11835 0.33233 0.0
H1363 H 0.98777 0.14182 0.34056 0.0
H1364 H 0.00408 0.14286 0.30672 0.0
H1365 H 0.093 0.18897 0.40809 0.0
H1366 H 0.05846 0.17924 0.42144 0.0
H1367 H 0.08262 0.1532 0.40905 0.0
H1368 H 0.97269 0.12823 0.43048 0.0
H1369 H 0.03637 0.06858 0.40613 0.0
H1370 H 0.98392 0.17603 0.38019 0.0
H1371 H 0.00788 0.1874 0.40674 0.0
H1372 H 0.97326 0.17394 0.41603 0.0
H1373 H 0.06212 0.10071 0.34967 0.0
H1374 H 0.07596 0.08047 0.37805 0.0
H1375 H 0.08486 0.11652 0.37484 0.0
C1376 C 0.8305 0.08293 0.2821 0.0
C1377 C 0.80122 0.08423 0.2762 0.0
C1378 C 0.84016 0.07568 0.30867 0.0
C1379 C 0.81993 0.06967 0.32976 0.0
C1380 C 0.79021 0.07181 0.32398 0.0
C1381 C 0.78118 0.0789 0.29709 0.0
C1382 C 0.87204 0.07363 0.31394 0.0
C1383 C 0.76802 0.06598 0.34596 0.0
C1384 C 0.85133 0.02145 0.38341 0.0
C1385 C 0.86207 0.0401 0.40305 0.0
C1386 C 0.83566 0.03067 0.36037 0.0
C1387 C 0.83026 0.05923 0.35703 0.0
C1388 C 0.83837 0.07782 0.37824 0.0
C1389 C 0.85428 0.06805 0.40101 0.0
C1390 C 0.82716 0.01006 0.3384 0.0
C1391 C 0.83241 0.10835 0.37591 0.0
H1392 H 0.84587 0.08708 0.26576 0.0
H1393 H 0.75847 0.0798 0.29237 0.0
H1394 H 0.87801 0.08688 0.33177 0.0
H1395 H 0.87791 0.05209 0.31941 0.0
H1396 H 0.88489 0.0799 0.29563 0.0
H1397 H 0.74594 0.07117 0.33891 0.0
H1398 H 0.76879 0.04382 0.35159 0.0
H1399 H 0.77274 0.07792 0.36505 0.0
H1400 H 0.8568 0.99974 0.38494 0.0
H1401 H 0.86205 0.08262 0.41626 0.0
H1402 H 0.84079 0.01291 0.31977 0.0
H1403 H 0.80456 0.01338 0.33199 0.0
H1404 H 0.8297 0.98844 0.34564 0.0
H1405 H 0.84914 0.1179 0.36274 0.0
H1406 H 0.83285 0.11855 0.39653 0.0
H1407 H 0.81129 0.11244 0.36609 0.0
C1408 C -0.00699 0.84172 0.28984 0.0
C1409 C 0.01712 0.8249 0.29361 0.0
C1410 C 0.9872 0.86361 0.30803 0.0
C1411 C 0.00604 0.86866 0.33051 0.0
C1412 C 0.03067 0.85174 0.3342 0.0
C1413 C 0.03592 0.82992 0.3156 0.0
C1414 C 0.96078 0.8812 0.30333 0.0
C1415 C 0.05121 0.85655 0.35788 0.0
C1416 C -0.00151 0.93986 0.36257 0.0
C1417 C 0.9795 0.93475 0.38451 0.0
C1418 C 0.00848 0.91834 0.34554 0.0
C1419 C -0.00088 0.89108 0.35054 0.0
C1420 C 0.9809 0.88564 0.37335 0.0
C1421 C 0.97131 0.90754 0.39005 0.0
C1422 C 0.02815 0.92492 0.32159 0.0
C1423 C 0.97057 0.85683 0.37946 0.0
H1424 H 0.97864 0.83769 0.27263 0.0
H1425 H 0.05463 0.81677 0.31827 0.0
H1426 H 0.94625 0.8797 0.32148 0.0
H1427 H 0.96691 0.90317 0.3012 0.0
H1428 H 0.94877 0.87496 0.28447 0.0
H1429 H 0.06976 0.84204 0.35739 0.0
H1430 H 0.05939 0.87796 0.35718 0.0
H1431 H 0.03984 0.8541 0.37793 0.0
H1432 H 0.00491 0.96082 0.35814 0.0
H1433 H 0.95684 0.90336 0.40711 0.0
H1434 H 0.01764 0.91941 0.30172 0.0
H1435 H 0.04814 0.91247 0.3231 0.0
H1436 H 0.03397 0.94709 0.32092 0.0
H1437 H 0.95635 0.84979 0.36246 0.0
H1438 H 0.95851 0.85571 0.39929 0.0
H1439 H 0.98899 0.84226 0.38047 0.0
C1440 C 0.17585 0.99455 0.31725 0.0
C1441 C 0.18137 0.97986 0.29272 0.0
C1442 C 0.14901 0.9938 0.33007 0.0
C1443 C 0.12629 0.97935 0.31723 0.0
C1444 C 0.13095 0.96609 0.29142 0.0
C1445 C 0.15862 0.96601 0.27975 0.0
C1446 C 0.14541 0.00783 0.35793 0.0
C1447 C 0.10727 0.95135 0.27623 0.0
C1448 C 0.07526 0.95751 0.3728 0.0
C1449 C 0.06008 0.98228 0.37677 0.0
C1450 C 0.09489 0.95474 0.35097 0.0
C1451 C 0.0987 0.97699 0.33241 0.0
C1452 C 0.07989 -1e-05 0.33364 0.0
C1453 C 0.06116 0.00271 0.35626 0.0
C1454 C 0.11373 0.92934 0.34971 0.0
C1455 C 0.08148 0.0229 0.3126 0.0
H1456 H 0.19274 0.00645 0.32687 0.0
H1457 H 0.16239 0.9546 0.26075 0.0
H1458 H 0.12998 0.02523 0.35615 0.0
H1459 H 0.13669 0.99312 0.37335 0.0
H1460 H 0.16594 0.01603 0.36608 0.0
H1461 H 0.10901 0.95509 0.25357 0.0
H1462 H 0.10966 0.92881 0.27949 0.0
H1463 H 0.08557 0.95784 0.28323 0.0
H1464 H 0.07389 0.94128 0.38816 0.0
H1465 H 0.04867 0.02151 0.35871 0.0
H1466 H 0.13627 0.93501 0.35433 0.0
H1467 H 0.11324 0.92037 0.32858 0.0
H1468 H 0.10692 0.91329 0.36471 0.0
H1469 H 0.09903 0.03717 0.31824 0.0
H1470 H 0.06115 0.03498 0.31187 0.0
H1471 H 0.08614 0.01451 0.29163 0.0
C1472 C 0.97945 0.81399 0.67693 0.0
C1473 C 0.00174 0.80854 0.69578 0.0
C1474 C 0.97992 0.8374 0.6598 0.0
C1475 C 0.00322 0.85586 0.66159 0.0
C1476 C 0.02538 0.85091 0.6811 0.0
C1477 C 0.02438 0.82733 0.69794 0.0
C1478 C 0.95582 0.84204 0.63936 0.0
C1479 C 0.05059 0.87012 0.68365 0.0
C1480 C 0.02314 0.90063 0.59996 0.0
C1481 C 0.01277 0.92657 0.60829 0.0
C1482 C 0.01953 0.8773 0.61679 0.0
C1483 C 0.00502 0.87992 0.64249 0.0
C1484 C -0.00651 0.90583 0.65048 0.0
C1485 C -0.00245 0.92885 0.6333 0.0
C1486 C 0.03215 0.85004 0.60751 0.0
C1487 C 0.97773 0.90945 0.67761 0.0
H1488 H 0.96171 0.79974 0.67537 0.0
H1489 H 0.04188 0.82311 0.71214 0.0
H1490 H 0.94626 0.86284 0.64235 0.0
H1491 H 0.96435 0.84118 0.61789 0.0
H1492 H 0.93863 0.82643 0.64141 0.0
H1493 H 0.06543 0.86398 0.70062 0.0
H1494 H 0.06277 0.87036 0.66388 0.0
H1495 H 0.04296 0.89149 0.6876 0.0
H1496 H 0.03494 0.89867 0.58067 0.0
H1497 H 0.98929 0.94878 0.63981 0.0
H1498 H 0.01544 0.83388 0.60769 0.0
H1499 H 0.04922 0.84348 0.62216 0.0
H1500 H 0.04154 0.85114 0.58636 0.0
H1501 H 0.96022 0.89416 0.6793 0.0
H1502 H 0.96839 0.93047 0.6799 0.0
H1503 H -0.00733 0.90566 0.69512 0.0
C1504 C 0.24347 0.99835 0.66341 0.0
C1505 C 0.23697 0.00467 0.69122 0.0
C1506 C 0.22345 0.00268 0.64214 0.0
C1507 C 0.1957 0.01258 0.64878 0.0
C1508 C 0.18882 0.01897 0.6767 0.0
C1509 C 0.20962 0.01525 0.69753 0.0
C1510 C 0.2318 0.99592 0.61261 0.0
C1511 C 0.15922 0.02899 0.68468 0.0
C1512 C 0.14488 0.03891 0.59256 0.0
C1513 C 0.12828 0.01541 0.58749 0.0
C1514 C 0.16747 0.0382 0.61195 0.0
C1515 C 0.17312 0.01362 0.62695 0.0
C1516 C 0.15694 0.9897 0.62132 0.0
C1517 C 0.13503 0.99082 0.60153 0.0
C1518 C 0.18495 0.06383 0.61673 0.0
C1519 C 0.16206 0.96309 0.63691 0.0
H1520 H 0.26414 0.98945 0.65814 0.0
H1521 H 0.20438 0.02058 0.71876 0.0
H1522 H 0.21991 0.97751 0.60545 0.0
H1523 H 0.22595 0.01322 0.59862 0.0
H1524 H 0.25514 0.99164 0.61048 0.0
H1525 H 0.15756 0.03401 0.70711 0.0
H1526 H 0.1534 0.04761 0.67253 0.0
H1527 H 0.14322 0.01289 0.67968 0.0
H1528 H 0.13993 0.05795 0.58176 0.0
H1529 H 0.12238 0.9725 0.59791 0.0
H1530 H 0.20813 0.05906 0.61431 0.0
H1531 H 0.1817 0.07131 0.63826 0.0
H1532 H 0.17907 0.08069 0.60217 0.0
H1533 H 0.18457 0.95607 0.63417 0.0
H1534 H 0.14764 0.94631 0.62992 0.0
H1535 H 0.15861 0.96651 0.65943 0.0
C1536 C 0.95897 0.17877 0.69301 0.0
C1537 C 0.95785 0.20689 0.68677 0.0
C1538 C 0.96472 0.1592 0.67222 0.0
C1539 C 0.96948 0.16814 0.64463 0.0
C1540 C 0.96723 0.19657 0.63816 0.0
C1541 C 0.96146 0.21568 0.6594 0.0
C1542 C 0.96684 0.12909 0.67994 0.0
C1543 C 0.97209 0.20692 0.60903 0.0
C1544 C 0.01908 0.12368 0.60082 0.0
C1545 C -0.00025 0.10884 0.58432 0.0
C1546 C 0.00944 0.14314 0.62026 0.0
C1547 C 0.97966 0.1481 0.62331 0.0
C1548 C 0.95998 0.13359 0.60644 0.0
C1549 C 0.9703 0.11421 0.58704 0.0
C1550 C 0.0312 0.1581 0.63784 0.0
C1551 C 0.92808 0.13858 0.60882 0.0
H1552 H 0.95604 0.17212 0.71429 0.0
H1553 H 0.96042 0.2375 0.65467 0.0
H1554 H 0.95275 0.1167 0.66633 0.0
H1555 H 0.98913 0.12159 0.67672 0.0
H1556 H 0.96079 0.12534 0.70187 0.0
H1557 H 0.96707 0.22925 0.60696 0.0
H1558 H -0.00517 0.20348 0.6031 0.0
H1559 H 0.95869 0.19528 0.59412 0.0
H1560 H 0.04193 0.11983 0.59889 0.0
H1561 H 0.95529 0.10336 0.57402 0.0
H1562 H 0.02749 0.15348 0.66008 0.0
H1563 H 0.02871 0.18071 0.63517 0.0
H1564 H 0.05362 0.15222 0.63254 0.0
H1565 H 0.92111 0.13651 0.63071 0.0
H1566 H 0.91552 0.12407 0.59584 0.0
H1567 H 0.92292 0.15996 0.60224 0.0
C1568 C 0.86531 0.09102 0.75425 0.0
C1569 C 0.83949 0.07704 0.74998 0.0
C1570 C 0.89034 0.08269 0.74018 0.0
C1571 C 0.88895 0.06056 0.72102 0.0
C1572 C 0.86386 0.04431 0.71967 0.0
C1573 C 0.83957 0.05257 0.73455 0.0
C1574 C 0.9173 0.09925 0.74398 0.0
C1575 C 0.86133 0.0203 0.69984 0.0
C1576 C 0.91883 0.0686 0.64921 0.0
C1577 C 0.93693 0.04551 0.64725 0.0
C1578 C 0.90481 0.07509 0.67399 0.0
C1579 C 0.90972 0.05855 0.69775 0.0
C1580 C 0.93048 0.0371 0.69673 0.0
C1581 C 0.94342 0.03038 0.67124 0.0
C1582 C 0.88311 0.09844 0.67402 0.0
C1583 C 0.93808 0.02025 0.72197 0.0
H1584 H 0.86546 0.10965 0.76671 0.0
H1585 H 0.81973 0.04129 0.73206 0.0
H1586 H 0.93675 0.08755 0.73755 0.0
H1587 H 0.91579 0.11839 0.73147 0.0
H1588 H 0.91967 0.10554 0.76601 0.0
H1589 H 0.84069 0.00924 0.70218 0.0
H1590 H 0.86294 0.0278 0.67815 0.0
H1591 H 0.87908 0.00538 0.70326 0.0
H1592 H 0.91402 0.08061 0.63082 0.0
H1593 H 0.95801 0.01291 0.67 0.0
H1594 H 0.88976 0.11452 0.68899 0.0
H1595 H 0.86176 0.09082 0.68057 0.0
H1596 H 0.88078 0.10821 0.65332 0.0
H1597 H 0.93307 0.03136 0.74154 0.0
H1598 H 0.96126 0.01476 0.7218 0.0
H1599 H 0.92593 0.00067 0.72162 0.0
C1600 C 0.31877 0.95605 0.18296 0.0
C1601 C 0.3001 0.97875 0.18312 0.0
C1602 C 0.34276 0.95549 0.16528 0.0
C1603 C 0.34783 0.97814 0.14746 0.0
C1604 C 0.32902 0.00125 0.14798 0.0
C1605 C 0.30534 0.00124 0.16588 0.0
C1606 C 0.36237 0.93059 0.16533 0.0
C1607 C 0.33362 0.02581 0.12929 0.0
C1608 C 0.41906 0.99621 0.11499 0.0
C1609 C 0.41397 0.98961 0.08708 0.0
C1610 C 0.39854 0.99057 0.13546 0.0
C1611 C 0.37243 0.97796 0.12781 0.0
C1612 C 0.3684 0.9689 0.10017 0.0
C1613 C 0.38925 0.97483 0.08012 0.0
C1614 C 0.40383 0.00023 0.16478 0.0
C1615 C 0.34108 0.95495 0.09127 0.0
H1616 H 0.31437 0.93862 0.19634 0.0
H1617 H 0.2906 0.01865 0.16606 0.0
H1618 H 0.36158 0.92023 0.14483 0.0
H1619 H 0.38489 0.93699 0.1688 0.0
H1620 H 0.35639 0.91543 0.18156 0.0
H1621 H 0.3172 0.04222 0.13252 0.0
H1622 H 0.35512 0.03471 0.13307 0.0
H1623 H 0.3329 0.01921 0.10726 0.0
H1624 H 0.43828 0.00733 0.12064 0.0
H1625 H 0.38531 0.96934 0.05867 0.0
H1626 H 0.3975 0.98419 0.17992 0.0
H1627 H 0.39053 0.01884 0.16898 0.0
H1628 H 0.42669 0.00554 0.1683 0.0
H1629 H 0.3359 0.93782 0.10558 0.0
H1630 H 0.34257 0.94668 0.06983 0.0
H1631 H 0.32302 0.96996 0.09213 0.0
C1632 C 0.04075 0.32356 0.21166 0.0
C1633 C 0.06478 0.30631 0.21415 0.0
C1634 C 0.04164 0.34735 0.195 0.0
C1635 C 0.06724 0.35398 0.18065 0.0
C1636 C 0.0914 0.33619 0.18285 0.0
C1637 C 0.08986 0.31253 0.19961 0.0
C1638 C 0.01538 0.36563 0.1931 0.0
C1639 C 0.11908 0.34246 0.16795 0.0
C1640 C 0.06631 0.40652 0.12166 0.0
C1641 C 0.07633 0.43029 0.13508 0.0
C1642 C 0.06282 0.3816 0.13621 0.0
C1643 C 0.06944 0.38042 0.1649 0.0
C1644 C 0.079 0.40449 0.17861 0.0
C1645 C 0.08233 0.42904 0.16358 0.0
C1646 C 0.05272 0.35643 0.12071 0.0
C1647 C 0.08622 0.40423 0.20915 0.0
H1648 H 0.02133 0.31854 0.22291 0.0
H1649 H 0.10837 0.299 0.20155 0.0
H1650 H 0.02014 0.38621 0.20197 0.0
H1651 H 0.00936 0.36878 0.17106 0.0
H1652 H -0.00327 0.35687 0.20431 0.0
H1653 H 0.13546 0.32595 0.1708 0.0
H1654 H 0.11503 0.3451 0.14544 0.0
H1655 H 0.12798 0.36215 0.17577 0.0
H1656 H 0.06163 0.40724 0.09965 0.0
H1657 H 0.08998 0.44726 0.17422 0.0
H1658 H 0.03509 0.34622 0.13216 0.0
H1659 H 0.07063 0.34134 0.11896 0.0
H1660 H 0.0451 0.36153 0.09948 0.0
H1661 H 0.06747 0.39719 0.22134 0.0
H1662 H 0.09267 0.42486 0.21689 0.0
H1663 H 0.10403 0.38945 0.21309 0.0
C1664 C 0.71137 0.06391 0.14131 0.0
C1665 C 0.70865 0.09162 0.14903 0.0
C1666 C 0.69638 0.05353 0.11844 0.0
C1667 C 0.67893 0.07155 0.10251 0.0
C1668 C 0.67808 0.10009 0.10895 0.0
C1669 C 0.69257 0.10969 0.13251 0.0
C1670 C 0.69724 0.02287 0.1129 0.0
C1671 C 0.66036 0.12041 0.09249 0.0
C1672 C 0.65038 0.03935 0.03625 0.0
C1673 C 0.62271 0.03163 0.0445 0.0
C1674 C 0.66862 0.0535 0.05444 0.0
C1675 C 0.65904 0.05976 0.08162 0.0
C1676 C 0.63081 0.05278 0.08972 0.0
C1677 C 0.61302 0.03883 0.07107 0.0
C1678 C 0.69841 0.06073 0.0447 0.0
C1679 C 0.61969 0.05913 0.11848 0.0
H1680 H 0.72344 0.04991 0.15449 0.0
H1681 H 0.69034 0.13111 0.1387 0.0
H1682 H 0.67552 0.01413 0.11595 0.0
H1683 H 0.70355 0.0188 0.09112 0.0
H1684 H 0.71248 0.01184 0.12678 0.0
H1685 H 0.67184 0.14031 0.09054 0.0
H1686 H 0.65515 0.11276 0.07146 0.0
H1687 H 0.64005 0.12467 0.10374 0.0
H1688 H 0.65799 0.03405 0.01567 0.0
H1689 H 0.59164 0.03304 0.07758 0.0
H1690 H 0.71332 0.04352 0.04969 0.0
H1691 H 0.70648 0.07963 0.05493 0.0
H1692 H 0.69896 0.06375 0.02187 0.0
H1693 H 0.63372 0.04924 0.13425 0.0
H1694 H 0.59737 0.05188 0.12162 0.0
H1695 H 0.62012 0.08169 0.12222 0.0
C1696 C 0.01522 0.66573 0.21228 0.0
C1697 C 0.00305 0.69226 0.2124 0.0
C1698 C 0.01424 0.64906 0.18859 0.0
C1699 C 0.00107 0.65925 0.16418 0.0
C1700 C 0.98762 0.6855 0.16443 0.0
C1701 C 0.98881 0.70176 0.18856 0.0
C1702 C 0.02892 0.62119 0.18922 0.0
C1703 C 0.97294 0.69681 0.13893 0.0
C1704 C 0.0385 0.63033 0.1013 0.0
C1705 C 0.02174 0.60715 0.09524 0.0
C1706 C 0.03082 0.64862 0.12249 0.0
C1707 C 0.00541 0.64398 0.13775 0.0
C1708 C 0.98688 0.62225 0.12991 0.0
C1709 C -0.00465 0.60396 0.10869 0.0
C1710 C 0.05111 0.67166 0.12993 0.0
C1711 C 0.95927 0.61693 0.14523 0.0
H1712 H 0.02662 0.65832 0.23042 0.0
H1713 H 0.97891 0.72205 0.18865 0.0
H1714 H 0.0143 0.60506 0.18126 0.0
H1715 H 0.04805 0.62147 0.17551 0.0
H1716 H 0.03594 0.61531 0.21043 0.0
H1717 H 0.95987 0.71547 0.14364 0.0
H1718 H 0.98931 0.70234 0.12323 0.0
H1719 H 0.9589 0.68097 0.12951 0.0
H1720 H 0.0586 0.63343 0.09045 0.0
H1721 H 0.98209 0.58646 0.10377 0.0
H1722 H 0.07018 0.67222 0.11617 0.0
H1723 H 0.05873 0.66914 0.15159 0.0
H1724 H 0.03981 0.69181 0.12865 0.0
H1725 H 0.9639 0.60402 0.16371 0.0
H1726 H 0.94375 0.6057 0.13198 0.0
H1727 H 0.94913 0.63641 0.15248 0.0
C1728 C 0.33387 0.96272 0.82166 0.0
C1729 C 0.30769 0.97534 0.8284 0.0
C1730 C 0.3581 0.96629 0.83855 0.0
C1731 C 0.35582 0.98263 0.86281 0.0
C1732 C 0.32895 0.99439 0.87024 0.0
C1733 C 0.30519 0.99076 0.85275 0.0
C1734 C 0.38632 0.95344 0.82997 0.0
C1735 C 0.32554 0.01154 0.89619 0.0
C1736 C 0.41064 0.98015 0.92094 0.0
C1737 C 0.42513 0.00501 0.91704 0.0
C1738 C 0.38903 0.9717 0.90259 0.0
C1739 C 0.38168 0.9887 0.8798 0.0
C1740 C 0.39753 0.01299 0.87472 0.0
C1741 C 0.41893 0.02094 0.8935 0.0
C1742 C 0.37285 0.94559 0.90887 0.0
C1743 C 0.39086 0.0314 0.85028 0.0
H1744 H 0.33564 0.95077 0.80271 0.0
H1745 H 0.28485 0.00058 0.85774 0.0
H1746 H 0.40184 0.96991 0.82485 0.0
H1747 H 0.39558 0.94132 0.84734 0.0
H1748 H 0.38407 0.93974 0.81163 0.0
H1749 H 0.30291 0.01791 0.89982 0.0
H1750 H 0.33321 0.99975 0.91449 0.0
H1751 H 0.33886 0.03034 0.8946 0.0
H1752 H 0.41485 0.96808 0.93921 0.0
H1753 H 0.43016 0.04018 0.89027 0.0
H1754 H 0.36727 0.93431 0.88962 0.0
H1755 H 0.35254 0.95099 0.91966 0.0
H1756 H 0.38544 0.93158 0.92252 0.0
H1757 H 0.38925 0.01907 0.83096 0.0
H1758 H 0.40739 0.04751 0.84731 0.0
H1759 H 0.36981 0.04173 0.85358 0.0
C1760 C 0.95972 0.35769 0.78448 0.0
C1761 C 0.97103 0.33086 0.78294 0.0
C1762 C 0.96262 0.37363 0.80857 0.0
C1763 C 0.97725 0.36254 0.83181 0.0
C1764 C 0.98812 0.33521 0.83069 0.0
C1765 C 0.98483 0.31965 0.80625 0.0
C1766 C 0.95047 0.40259 0.80896 0.0
C1767 C 0.00385 0.32269 0.85501 0.0
C1768 C 0.00751 0.41755 0.8794 0.0
C1769 C 0.98571 0.4201 0.8993 0.0
C1770 C 0.00581 0.39781 0.85812 0.0
C1771 C 0.98178 0.38013 0.85678 0.0
C1772 C 0.96067 0.38141 0.87785 0.0
C1773 C 0.96286 0.40141 0.89881 0.0
C1774 C 0.02892 0.39696 0.8362 0.0
C1775 C 0.9349 0.36273 0.87744 0.0
H1776 H 0.94866 0.3663 0.76667 0.0
H1777 H -0.00619 0.299 0.8051 0.0
H1778 H 0.93536 0.40507 0.82658 0.0
H1779 H 0.96802 0.41762 0.81201 0.0
H1780 H 0.93898 0.40785 0.78946 0.0
H1781 H 0.00939 0.30064 0.8515 0.0
H1782 H 0.02394 0.33421 0.85885 0.0
H1783 H 0.99063 0.32437 0.87407 0.0
H1784 H 0.02537 0.43174 0.8797 0.0
H1785 H 0.94606 0.40299 0.91428 0.0
H1786 H 0.02001 0.40447 0.81623 0.0
H1787 H 0.03651 0.37548 0.83285 0.0
H1788 H 0.0476 0.40994 0.84177 0.0
H1789 H 0.92054 0.36878 0.8601 0.0
H1790 H 0.92249 0.36385 0.89709 0.0
H1791 H 0.9416 0.34103 0.87385 0.0
C1792 C 0.69548 0.09186 0.82587 0.0
C1793 C 0.71868 0.09969 0.84237 0.0
C1794 C 0.67124 0.07957 0.8378 0.0
C1795 C 0.67051 0.07504 0.86681 0.0
C1796 C 0.69381 0.08363 0.88355 0.0
C1797 C 0.71771 0.09585 0.87105 0.0
C1798 C 0.64695 0.07053 0.81929 0.0
C1799 C 0.69432 0.0786 0.91445 0.0
C1800 C 0.60102 0.06066 0.90509 0.0
C1801 C 0.60321 0.03222 0.90951 0.0
C1802 C 0.62214 0.07482 0.89017 0.0
C1803 C 0.64617 0.06011 0.87968 0.0
C1804 C 0.648 0.0312 0.88334 0.0
C1805 C 0.62639 0.01759 0.89807 0.0
C1806 C 0.61856 0.10543 0.88559 0.0
C1807 C 0.67314 0.01471 0.87232 0.0
H1808 H 0.69659 0.09469 0.80359 0.0
H1809 H 0.73598 0.10169 0.88363 0.0
H1810 H 0.64429 0.04786 0.82079 0.0
H1811 H 0.62655 0.08018 0.82624 0.0
H1812 H 0.65063 0.07603 0.79722 0.0
H1813 H 0.70924 0.09276 0.92519 0.0
H1814 H 0.67271 0.08096 0.92374 0.0
H1815 H 0.70172 0.05717 0.91841 0.0
H1816 H 0.58271 0.07182 0.91308 0.0
H1817 H 0.6281 0.99552 0.90136 0.0
H1818 H 0.61099 0.10908 0.8641 0.0
H1819 H 0.63924 0.11629 0.88806 0.0
H1820 H 0.60258 0.11465 0.90003 0.0
H1821 H 0.67649 0.01919 0.85 0.0
H1822 H 0.67014 0.99215 0.87488 0.0
H1823 H 0.69296 0.02075 0.88345 0.0
C1824 C 0.00943 0.68947 0.8159 0.0
C1825 C 0.0294 0.71075 0.81722 0.0
C1826 C 0.01028 0.66772 0.83511 0.0
C1827 C 0.03159 0.66743 0.85612 0.0
C1828 C 0.05239 0.68856 0.85686 0.0
C1829 C 0.051 0.71009 0.83736 0.0
C1830 C 0.98789 0.64545 0.8334 0.0
C1831 C 0.07552 0.68885 0.87875 0.0
C1832 C 0.00829 0.62961 0.92088 0.0
C1833 C 0.02083 0.60356 0.91703 0.0
C1834 C 0.01302 0.65105 0.90202 0.0
C1835 C 0.03045 0.6462 0.87844 0.0
C1836 C 0.04442 0.6203 0.87521 0.0
C1837 C 0.03969 0.5993 0.89482 0.0
C1838 C -0.0022 0.6783 0.90643 0.0
C1839 C 0.0633 0.61434 0.85046 0.0
H1840 H -0.00721 0.69013 0.80019 0.0
H1841 H 0.06644 0.72669 0.83821 0.0
H1842 H -0.00161 0.62486 0.83255 0.0
H1843 H 0.97427 0.64599 0.85227 0.0
H1844 H 0.97384 0.64782 0.81493 0.0
H1845 H 0.09093 0.70595 0.87566 0.0
H1846 H 0.06564 0.69107 0.89958 0.0
H1847 H 0.08751 0.66901 0.87856 0.0
H1848 H -0.00626 0.63288 0.93814 0.0
H1849 H 0.04907 0.57903 0.89168 0.0
H1850 H 0.98124 0.68121 0.89015 0.0
H1851 H 0.01315 0.69558 0.90465 0.0
H1852 H 0.98714 0.67952 0.92702 0.0
H1853 H 0.05315 0.62178 0.83102 0.0
H1854 H 0.06797 0.59197 0.84818 0.0
H1855 H 0.08388 0.6254 0.85294 0.0
C1856 C 0.13492 0.30177 0.04643 0.0
C1857 C 0.164 0.30197 0.03929 0.0
C1858 C 0.11707 0.32443 0.04014 0.0
C1859 C 0.12888 0.34766 0.02662 0.0
C1860 C 0.15844 0.34788 0.01975 0.0
C1861 C 0.17557 0.32486 0.02592 0.0
C1862 C 0.08559 0.32326 0.04733 0.0
C1863 C 0.17199 0.3724 0.00571 0.0
C1864 C 0.08743 0.39847 0.98242 0.0
C1865 C 0.08614 0.42151 -6e-05 0.0
C1866 C 0.09925 0.37344 0.99164 0.0
C1867 C 0.11059 0.37165 0.01882 0.0
C1868 C 0.10771 0.39433 0.03716 0.0
C1869 C 0.09518 0.41893 0.02757 0.0
C1870 C 0.10122 0.34947 0.97171 0.0
C1871 C 0.11959 0.39322 0.06628 0.0
H1872 H 0.12609 0.28381 0.05664 0.0
H1873 H 0.198 0.32477 0.02008 0.0
H1874 H 0.07888 0.34209 0.05874 0.0
H1875 H 0.07275 0.3225 0.02797 0.0
H1876 H 0.08034 0.30493 0.0601 0.0
H1877 H 0.19553 0.36981 0.00308 0.0
H1878 H 0.16222 0.37555 0.98497 0.0
H1879 H 0.16789 0.39138 0.01801 0.0
H1880 H 0.08001 0.40025 0.96118 0.0
H1881 H 0.09407 0.43665 0.04125 0.0
H1882 H 0.09443 0.33013 0.98197 0.0
H1883 H 0.12382 0.34661 0.96501 0.0
H1884 H 0.08777 0.35278 0.95296 0.0
H1885 H 0.11006 0.37575 0.07779 0.0
H1886 H 0.11535 0.41255 0.07801 0.0
H1887 H 0.14312 0.38966 0.06556 0.0
C1888 C 0.12964 0.73722 0.06547 0.0
C1889 C 0.15837 0.74119 0.05836 0.0
C1890 C 0.11556 0.71277 0.05796 0.0
C1891 C 0.13076 0.69214 0.04298 0.0
C1892 C 0.16005 0.69608 0.03634 0.0
C1893 C 0.17342 0.7207 0.04399 0.0
C1894 C 0.08425 0.70971 0.0652 0.0
C1895 C 0.17712 0.67457 0.02062 0.0
C1896 C 0.10588 0.61806 0.03681 0.0
C1897 C 0.09426 0.6177 0.01005 0.0
C1898 C 0.11653 0.64247 0.04847 0.0
C1899 C 0.11599 0.66706 0.03272 0.0
C1900 C 0.10336 0.66712 0.00605 0.0
C1901 C 0.09262 0.64249 0.99508 0.0
C1902 C 0.12907 0.6418 0.07733 0.0
C1903 C 0.10208 0.693 0.9887 0.0
H1904 H 0.1181 0.7533 0.07655 0.0
H1905 H 0.19564 0.7241 0.03837 0.0
H1906 H 0.07105 0.7179 0.04788 0.0
H1907 H 0.0783 0.68784 0.06841 0.0
H1908 H 0.07867 0.72163 0.08416 0.0
H1909 H 0.19987 0.68062 0.0177 0.0
H1910 H 0.17664 0.65463 0.03186 0.0
H1911 H 0.16735 0.67116 -7e-05 0.0
H1912 H 0.10751 0.5992 0.04836 0.0
H1913 H 0.08341 0.64259 0.97444 0.0
H1914 H 0.11888 0.65803 0.09033 0.0
H1915 H 0.15235 0.64628 0.0764 0.0
H1916 H 0.12611 0.62151 0.08758 0.0
H1917 H 0.09137 0.70982 0.00048 0.0
H1918 H 0.09037 0.68989 0.96889 0.0
H1919 H 0.12417 0.69991 0.98386 0.0
C1920 C 0.28967 0.1886 0.02664 0.0
C1921 C 0.296 0.21032 0.04477 0.0
C1922 C 0.30976 0.16737 0.02184 0.0
C1923 C 0.33681 0.16828 0.0352 0.0
C1924 C 0.34267 0.18944 0.05453 0.0
C1925 C 0.32202 0.20992 0.05939 0.0
C1926 C 0.30251 0.14462 0.0017 0.0
C1927 C 0.37127 0.19121 0.06916 0.0
C1928 C 0.38603 0.10628 0.0415 0.0
C1929 C 0.40587 0.11105 0.02017 0.0
C1930 C 0.36265 0.12405 0.04576 0.0
C1931 C 0.35944 0.14757 0.02874 0.0
C1932 C 0.37922 0.15238 0.00695 0.0
C1933 C 0.40206 0.1338 0.00269 0.0
C1934 C 0.34162 0.11784 0.06873 0.0
C1935 C 0.37675 0.17755 0.98869 0.0
H1936 H 0.26963 0.18889 0.01522 0.0
H1937 H 0.32673 0.22643 0.07383 0.0
H1938 H 0.31606 0.14647 0.98289 0.0
H1939 H 0.30718 0.12418 0.01106 0.0
H1940 H 0.27963 0.14531 0.9953 0.0
H1941 H 0.37225 0.20889 0.08378 0.0
H1942 H 0.37561 0.17197 0.08088 0.0
H1943 H 0.38868 0.19344 0.05364 0.0
H1944 H 0.38852 0.08835 0.05471 0.0
H1945 H 0.41728 0.1374 0.9861 0.0
H1946 H 0.31935 0.11828 0.06059 0.0
H1947 H 0.34301 0.13389 0.08506 0.0
H1948 H 0.34571 0.09741 0.07841 0.0
H1949 H 0.35516 0.1786 0.97908 0.0
H1950 H 0.39315 0.17766 0.97197 0.0
H1951 H 0.37932 0.19642 0.00146 0.0
C1952 C 0.894 0.31728 0.98337 0.0
C1953 C 0.87103 0.32157 0.00178 0.0
C1954 C 0.91947 0.33244 0.9859 0.0
C1955 C 0.92168 0.35268 0.00694 0.0
C1956 C 0.89922 0.35594 0.02648 0.0
C1957 C 0.87441 0.34007 0.02388 0.0
C1958 C 0.94331 0.32776 0.9652 0.0
C1959 C 0.90051 0.37748 0.04912 0.0
C1960 C 0.98656 0.3926 0.03073 0.0
C1961 C 0.98184 0.41779 0.01724 0.0
C1962 C 0.96892 0.36985 0.02528 0.0
C1963 C 0.94545 0.37294 0.00685 0.0
C1964 C 0.942 0.39777 0.99175 0.0
C1965 C 0.96052 0.41978 0.9969 0.0
C1966 C 0.97414 0.34329 0.04079 0.0
C1967 C 0.91695 0.40218 0.97233 0.0
H1968 H 0.89164 0.303 0.96623 0.0
H1969 H 0.85714 0.34288 0.03868 0.0
H1970 H 0.94259 0.34416 0.9492 0.0
H1971 H 0.9646 0.32871 0.97545 0.0
H1972 H 0.94126 0.30753 0.95458 0.0
H1973 H 0.88156 0.37681 0.06308 0.0
H1974 H 0.92011 0.37455 0.06182 0.0
H1975 H 0.9016 0.39833 0.03973 0.0
H1976 H 0.00321 0.39105 0.04636 0.0
H1977 H 0.95655 0.43941 0.98689 0.0
H1978 H 0.97008 0.32521 0.02726 0.0
H1979 H 0.95923 0.3421 0.05866 0.0
H1980 H -0.00356 0.34198 0.04885 0.0
H1981 H 0.91579 0.3852 0.95699 0.0
H1982 H 0.9183 0.42205 0.96098 0.0
H1983 H 0.89664 0.40211 0.98435 0.0
C1984 C 0.70217 0.80678 0.98301 0.0
C1985 C 0.72726 0.81824 0.9722 0.0
C1986 C 0.67732 0.82295 0.98653 0.0
C1987 C 0.6779 0.85124 0.97937 0.0
C1988 C 0.70363 0.86301 0.96928 0.0
C1989 C 0.72803 0.84625 0.96564 0.0
C1990 C 0.65031 0.80959 0.99714 0.0
C1991 C 0.70526 0.89322 0.96193 0.0
C1992 C 0.611 0.89113 0.95875 0.0
C1993 C 0.60579 0.90702 0.98258 0.0
C1994 C 0.63355 0.87183 0.95793 0.0
C1995 C 0.65147 0.86849 0.98141 0.0
C1996 C 0.64528 0.88325 0.00607 0.0
C1997 C 0.62245 0.90226 0.00638 0.0
C1998 C 0.63901 0.85594 0.93148 0.0
C1999 C 0.66372 0.88013 0.03163 0.0
H2000 H 0.70181 0.78512 0.98841 0.0
H2001 H 0.74762 0.85498 0.95743 0.0
H2002 H 0.64078 0.82189 0.01427 0.0
H2003 H 0.63421 0.8088 0.98022 0.0
H2004 H 0.6543 0.78827 0.00466 0.0
H2005 H 0.72722 0.89942 0.95569 0.0
H2006 H 0.69034 0.89785 0.94459 0.0
H2007 H 0.69845 0.90601 0.97989 0.0
H2008 H 0.59806 0.8944 0.94035 0.0
H2009 H 0.6185 0.91426 0.02499 0.0
H2010 H 0.64129 0.8336 0.93597 0.0
H2011 H 0.65943 0.86284 0.92202 0.0
H2012 H 0.62152 0.85887 0.91609 0.0
H2013 H 0.66708 0.85803 0.03666 0.0
H2014 H 0.65413 0.89058 0.04997 0.0
H2015 H 0.68513 0.88917 0.02764 0.0
C2016 C 0.84341 0.69788 0.98277 0.0
C2017 C 0.82043 0.69045 0.9656 0.0
C2018 C 0.86632 0.67955 0.98762 0.0
C2019 C 0.86609 0.65304 0.97528 0.0
C2020 C 0.84374 0.64594 0.95683 0.0
C2021 C 0.82131 0.66479 0.95206 0.0
C2022 C 0.89002 0.68802 0.00712 0.0
C2023 C 0.84285 0.61798 0.94313 0.0
C2024 C 0.93436 0.60972 0.98027 0.0
C2025 C 0.92896 0.59434 0.00422 0.0
C2026 C 0.91379 0.62841 0.96993 0.0
C2027 C 0.88738 0.63181 0.98414 0.0
C2028 C 0.88159 0.61563 0.00789 0.0
C2029 C 0.90254 0.59726 0.01774 0.0
C2030 C 0.92098 0.64535 0.94467 0.0
C2031 C 0.85353 0.61824 0.02339 0.0
H2032 H 0.84291 0.71754 0.99348 0.0
H2033 H 0.80399 0.65912 0.93823 0.0
H2034 H 0.88877 0.67566 0.02643 0.0
H2035 H 0.91127 0.68386 -0.00242 0.0
H2036 H 0.88865 0.71022 0.01273 0.0
H2037 H 0.82543 0.61654 0.9275 0.0
H2038 H 0.86365 0.61346 0.93287 0.0
H2039 H 0.83947 0.60181 0.95904 0.0
H2040 H 0.95514 0.60817 0.97045 0.0
H2041 H 0.89838 0.58532 0.03629 0.0
H2042 H 0.9272 0.66638 0.95133 0.0
H2043 H 0.90218 0.64744 0.93071 0.0
H2044 H 0.93909 0.6362 0.93276 0.0
H2045 H 0.85136 0.63931 0.03216 0.0
H2046 H 0.85183 0.60313 0.0406 0.0
H2047 H 0.83526 0.61511 0.009 0.0
C2048 C 0.31062 0.82094 0.0308 0.0
C2049 C 0.28691 0.82675 0.04788 0.0
C2050 C 0.32995 0.84159 0.02315 0.0
C2051 C 0.32497 0.86912 0.03177 0.0
C2052 C 0.29999 0.87557 0.04729 0.0
C2053 C 0.28155 0.85426 0.05555 0.0
C2054 C 0.35645 0.83363 0.00685 0.0
C2055 C 0.29309 0.90463 0.0564 0.0
C2056 C 0.3933 0.9101 0.03956 0.0
C2057 C 0.39594 0.92226 0.01327 0.0
C2058 C 0.36946 0.89403 0.04638 0.0
C2059 C 0.34745 0.8902 0.02658 0.0
C2060 C 0.34886 0.90415 0.00082 0.0
C2061 C 0.37324 0.91982 0.99434 0.0
C2062 C 0.36856 0.88004 0.07433 0.0
C2063 C 0.32501 0.90183 0.97982 0.0
H2064 H 0.31448 0.80004 0.02371 0.0
H2065 H 0.26339 0.85918 0.06874 0.0
H2066 H 0.35768 0.84588 0.9875 0.0
H2067 H 0.3759 0.83827 0.01924 0.0
H2068 H 0.35689 0.81139 0.0013 0.0
H2069 H 0.26952 0.90809 0.05707 0.0
H2070 H 0.3014 0.90777 0.0777 0.0
H2071 H 0.30275 0.92029 0.04256 0.0
H2072 H 0.41046 0.91218 0.05456 0.0
H2073 H 0.37477 0.92965 0.97423 0.0
H2074 H 0.36918 0.85732 0.07148 0.0
H2075 H 0.34824 0.88528 0.08514 0.0
H2076 H 0.38676 0.88609 0.08784 0.0
H2077 H 0.32458 0.88061 0.97123 0.0
H2078 H 0.32762 0.91656 0.96239 0.0
H2079 H 0.30397 0.90571 0.98994 0.0
C2080 C 0.76897 0.17932 0.96324 0.0
C2081 C 0.76451 0.20657 0.97175 0.0
C2082 C 0.74641 0.16029 0.96348 0.0
C2083 C 0.71875 0.16897 0.97219 0.0
C2084 C 0.71411 0.19685 0.98005 0.0
C2085 C 0.73717 0.21535 0.97986 0.0
C2086 C 0.75234 0.13105 0.9543 0.0
C2087 C 0.68492 0.20696 0.98926 0.0
C2088 C 0.65309 0.12519 0.9566 0.0
C2089 C 0.64874 0.112 0.9821 0.0
C2090 C 0.67609 0.14345 0.95278 0.0
C2091 C 0.69512 0.14864 0.97505 0.0
C2092 C 0.69114 0.13497 0.00065 0.0
C2093 C 0.66805 0.11692 0.00383 0.0
C2094 C 0.6799 0.15725 0.92501 0.0
C2095 C 0.7112 0.13956 0.02479 0.0
H2096 H 0.79025 0.17276 0.9568 0.0
H2097 H 0.73389 0.23653 0.98642 0.0
H2098 H 0.74104 0.11594 0.96758 0.0
H2099 H 0.7445 0.12848 0.93275 0.0
H2100 H 0.77564 0.1261 0.95454 0.0
H2101 H 0.68451 0.22954 0.99323 0.0
H2102 H 0.66865 0.2021 0.97321 0.0
H2103 H 0.67853 0.19617 0.00855 0.0
H2104 H 0.63812 0.12177 0.93984 0.0
H2105 H 0.66486 0.10692 0.02361 0.0
H2106 H 0.69848 0.14774 0.91416 0.0
H2107 H 0.68446 0.17953 0.92759 0.0
H2108 H 0.66066 0.15508 0.91165 0.0
H2109 H 0.73305 0.13222 0.01919 0.0
H2110 H 0.70418 0.12864 0.0438 0.0
H2111 H 0.71268 0.16188 0.02961 0.0
C2112 C 0.50916 0.71076 0.81842 0.0
C2113 C 0.49199 0.71335 0.79464 0.0
C2114 C 0.50468 0.68955 0.83764 0.0
C2115 C 0.48264 0.67017 0.83293 0.0
C2116 C 0.46658 0.67148 0.80799 0.0
C2117 C 0.47148 0.69306 0.78909 0.0
C2118 C 0.52258 0.68875 0.86375 0.0
C2119 C 0.44372 0.65055 0.80164 0.0
C2120 C 0.48313 0.60786 0.88115 0.0
C2121 C 0.4636 0.61626 0.90172 0.0
C2122 C 0.48894 0.62471 0.8581 0.0
C2123 C 0.47478 0.65051 0.85546 0.0
C2124 C 0.45442 0.65867 0.87574 0.0
C2125 C 0.44906 0.64148 0.89853 0.0
C2126 C 0.51021 0.61483 0.83664 0.0
C2127 C 0.43884 0.68602 0.87379 0.0
H2128 H 0.52549 0.72604 0.82252 0.0
H2129 H 0.45825 0.69486 0.77069 0.0
H2130 H 0.50869 0.69284 0.88201 0.0
H2131 H 0.53229 0.66798 0.86652 0.0
H2132 H 0.54002 0.70424 0.86349 0.0
H2133 H 0.43132 0.65588 0.7827 0.0
H2134 H 0.45402 0.63013 0.79847 0.0
H2135 H 0.42861 0.64864 0.8193 0.0
H2136 H 0.49415 0.58822 0.88317 0.0
H2137 H 0.43372 0.64807 0.91412 0.0
H2138 H 0.52513 0.63152 0.83067 0.0
H2139 H 0.49847 0.60846 0.81771 0.0
H2140 H 0.52302 0.59699 0.84419 0.0
H2141 H 0.45454 0.70309 0.87476 0.0
H2142 H 0.42294 0.68892 0.89072 0.0
H2143 H 0.42753 0.68763 0.85361 0.0
C2144 C 0.35261 0.54074 0.81483 0.0
C2145 C 0.36515 0.55851 0.79566 0.0
C2146 C 0.36634 0.53474 0.83998 0.0
C2147 C 0.39332 0.5467 0.84587 0.0
C2148 C 0.4061 0.56466 0.82635 0.0
C2149 C 0.39167 0.57052 0.80143 0.0
C2150 C 0.35204 0.51544 0.86019 0.0
C2151 C 0.43465 0.57813 0.83173 0.0
C2152 C 0.41166 0.5463 0.92238 0.0
C2153 C 0.42846 0.52229 0.9245 0.0
C2154 C 0.40162 0.55555 0.89657 0.0
C2155 C 0.40789 0.54001 0.87246 0.0
C2156 C 0.42606 0.51657 0.87427 0.0
C2157 C 0.43622 0.50803 0.90027 0.0
C2158 C 0.38358 0.58148 0.8952 0.0
C2159 C 0.43398 0.50001 0.84883 0.0
H2160 H 0.33211 0.53142 0.81008 0.0
H2161 H 0.40121 0.58434 0.78642 0.0
H2162 H 0.36617 0.49736 0.86417 0.0
H2163 H 0.34857 0.52608 0.88032 0.0
H2164 H 0.33103 0.50795 0.85248 0.0
H2165 H 0.44602 0.58247 0.812 0.0
H2166 H 0.43087 0.59805 0.84252 0.0
H2167 H 0.44888 0.56528 0.84496 0.0
H2168 H 0.40585 0.55764 0.94095 0.0
H2169 H 0.44958 0.48969 0.90167 0.0
H2170 H 0.36161 0.57639 0.88807 0.0
H2171 H 0.39289 0.59597 0.8799 0.0
H2172 H 0.38206 0.59208 0.91559 0.0
H2173 H 0.41441 0.49066 0.83983 0.0
H2174 H 0.44964 0.48328 0.85351 0.0
H2175 H 0.4433 0.51373 0.83284 0.0
C2176 C 0.44673 0.30131 0.82281 0.0
C2177 C 0.4629 0.30126 0.79839 0.0
C2178 C 0.45314 0.3197 0.84453 0.0
C2179 C 0.47629 0.3383 0.84161 0.0
C2180 C 0.49261 0.33817 0.81679 0.0
C2181 C 0.48566 0.31962 0.79546 0.0
C2182 C 0.43523 0.31919 0.87059 0.0
C2183 C 0.5175 0.35752 0.81283 0.0
C2184 C 0.48101 0.40304 0.88626 0.0
C2185 C 0.50133 0.39516 0.90627 0.0
C2186 C 0.47211 0.38455 0.86551 0.0
C2187 C 0.48393 0.35756 0.8646 0.0
C2188 C 0.50406 0.34934 0.88503 0.0
C2189 C 0.51244 0.36817 0.90562 0.0
C2190 C 0.45046 0.3941 0.84424 0.0
C2191 C 0.51731 0.32084 0.88475 0.0
H2192 H 0.42909 0.287 0.82491 0.0
H2193 H 0.49808 0.31946 0.77643 0.0
H2194 H 0.44899 0.3142 0.88869 0.0
H2195 H 0.42566 0.33987 0.87439 0.0
H2196 H 0.4177 0.30384 0.86943 0.0
H2197 H 0.52787 0.35496 0.79223 0.0
H2198 H 0.51007 0.3792 0.81494 0.0
H2199 H 0.53384 0.35385 0.82916 0.0
H2200 H 0.47222 0.42379 0.88659 0.0
H2201 H 0.52816 0.36184 0.92093 0.0
H2202 H 0.43201 0.37978 0.8437 0.0
H2203 H 0.46036 0.39385 0.82332 0.0
H2204 H 0.44231 0.41526 0.84856 0.0
H2205 H 0.50029 0.30498 0.88503 0.0
H2206 H 0.53182 0.31728 0.90269 0.0
H2207 H 0.52978 0.31783 0.86536 0.0
C2208 C 0.63845 0.50115 0.80626 0.0
C2209 C 0.65756 0.51987 0.81837 0.0
C2210 C 0.61135 0.49633 0.81817 0.0
C2211 C 0.60359 0.51027 0.84292 0.0
C2212 C 0.62237 0.53011 0.85439 0.0
C2213 C 0.64887 0.53483 0.84181 0.0
C2214 C 0.59177 0.47559 0.80477 0.0
C2215 C 0.61502 0.54577 0.88063 0.0
C2216 C 0.53401 0.52391 0.87885 0.0
C2217 C 0.53793 0.50763 0.90257 0.0
C2218 C 0.553 0.52173 0.85637 0.0
C2219 C 0.57687 0.50365 0.85835 0.0
C2220 C 0.5782 0.48431 0.8803 0.0
C2221 C 0.5584 0.48633 0.90213 0.0
C2222 C 0.54956 0.54119 0.83224 0.0
C2223 C 0.60282 0.46411 0.88282 0.0
H2224 H 0.64503 0.48956 0.78808 0.0
H2225 H 0.66325 0.54988 0.85079 0.0
H2226 H 0.59591 0.45497 0.81392 0.0
H2227 H 0.56883 0.48085 0.80815 0.0
H2228 H 0.59585 0.47409 0.78212 0.0
H2229 H 0.63228 0.56013 0.887 0.0
H2230 H 0.59502 0.55793 0.87759 0.0
H2231 H 0.61122 0.53112 0.89788 0.0
H2232 H 0.51759 0.53987 0.87879 0.0
H2233 H 0.56118 0.47333 0.92022 0.0
H2234 H 0.55742 0.53165 0.81271 0.0
H2235 H 0.56234 0.56002 0.83615 0.0
H2236 H 0.52676 0.54744 0.8295 0.0
H2237 H 0.60762 0.45442 0.8625 0.0
H2238 H 0.59823 0.44763 0.89815 0.0
H2239 H 0.6223 0.47525 0.88965 0.0
C2240 C 0.52177 0.31906 0.17796 0.0
C2241 C 0.50392 0.3165 0.20123 0.0
C2242 C 0.51964 0.34181 0.16022 0.0
C2243 C 0.49944 0.363 0.16601 0.0
C2244 C 0.4818 0.361 0.18985 0.0
C2245 C 0.4842 0.3377 0.20719 0.0
C2246 C 0.53908 0.34309 0.13516 0.0
C2247 C 0.46037 0.38338 0.19693 0.0
C2248 C 0.52221 0.42748 0.12869 0.0
C2249 C 0.50711 0.42504 0.10375 0.0
C2250 C 0.5176 0.40908 0.15061 0.0
C2251 C 0.49784 0.38731 0.14715 0.0
C2252 C 0.48067 0.38632 0.12287 0.0
C2253 C 0.48537 0.40544 0.10143 0.0
C2254 C 0.53609 0.41132 0.1762 0.0
C2255 C 0.45944 0.36342 0.11834 0.0
H2256 H 0.53756 0.30314 0.17355 0.0
H2257 H 0.47029 0.33584 0.22509 0.0
H2258 H 0.52609 0.34518 0.11599 0.0
H2259 H 0.55306 0.36145 0.13655 0.0
H2260 H 0.55296 0.32447 0.13314 0.0
H2261 H 0.44903 0.37928 0.21675 0.0
H2262 H 0.47134 0.40355 0.19853 0.0
H2263 H 0.44424 0.38524 0.18012 0.0
H2264 H 0.53889 0.44283 0.13045 0.0
H2265 H 0.47388 0.40349 0.08198 0.0
H2266 H 0.55388 0.39604 0.17488 0.0
H2267 H 0.52357 0.40673 0.19518 0.0
H2268 H 0.5456 0.43216 0.17827 0.0
H2269 H 0.47114 0.34356 0.11582 0.0
H2270 H 0.44606 0.3669 0.0996 0.0
H2271 H 0.44518 0.36136 0.13662 0.0
C2272 C 0.67518 0.50147 0.19106 0.0
C2273 C 0.70055 0.48597 0.18829 0.0
C2274 C 0.65379 0.50071 0.17062 0.0
C2275 C 0.65791 0.48419 0.14669 0.0
C2276 C 0.68261 0.4672 0.14455 0.0
C2277 C 0.70366 0.46829 0.16538 0.0
C2278 C 0.62753 0.51885 0.17387 0.0
C2279 C 0.68737 0.44885 0.11965 0.0
C2280 C 0.59254 0.47868 0.09975 0.0
C2281 C 0.59726 0.50058 0.08151 0.0
C2282 C 0.61287 0.47181 0.12023 0.0
C2283 C 0.63822 0.48762 0.12261 0.0
C2284 C 0.64359 0.50895 0.1033 0.0
C2285 C 0.62299 0.5152 0.0831 0.0
C2286 C 0.60614 0.44888 0.14026 0.0
C2287 C 0.67039 0.52621 0.10488 0.0
H2288 H 0.67261 0.51532 0.20854 0.0
H2289 H 0.72292 0.45578 0.16338 0.0
H2290 H 0.62794 0.5355 0.15811 0.0
H2291 H 0.6078 0.50668 0.17033 0.0
H2292 H 0.62626 0.52847 0.19476 0.0
H2293 H 0.70603 0.43474 0.12244 0.0
H2294 H 0.66797 0.43637 0.11553 0.0
H2295 H 0.6912 0.46175 0.10104 0.0
H2296 H 0.57227 0.46811 0.09923 0.0
H2297 H 0.62659 0.53224 0.06899 0.0
H2298 H 0.5946 0.45764 0.15841 0.0
H2299 H 0.62586 0.43844 0.14789 0.0
H2300 H 0.59207 0.43323 0.13051 0.0
H2301 H 0.67009 0.53862 0.12423 0.0
H2302 H 0.67237 0.54048 0.08698 0.0
H2303 H 0.68973 0.51276 0.10556 0.0
C2304 C 0.57267 0.70366 0.16542 0.0
C2305 C 0.577 0.69385 0.19237 0.0
C2306 C 0.56431 0.68572 0.14398 0.0
C2307 C 0.55997 0.65739 0.14979 0.0
C2308 C 0.56585 0.64725 0.17679 0.0
C2309 C 0.57427 0.66566 0.19778 0.0
C2310 C 0.55824 0.69746 0.11559 0.0
C2311 C 0.56139 0.6173 0.18398 0.0
C2312 C 0.49936 0.62288 0.11096 0.0
C2313 C 0.51379 0.60638 0.09138 0.0
C2314 C 0.51422 0.63935 0.12987 0.0
C2315 C 0.54454 0.63965 0.12937 0.0
C2316 C 0.55946 0.62313 0.10969 0.0
C2317 C 0.54389 0.60654 0.09096 0.0
C2318 C 0.49732 0.65636 0.15058 0.0
C2319 C 0.59179 0.62304 0.10839 0.0
H2320 H 0.57479 0.72551 0.16126 0.0
H2321 H 0.57769 0.65815 0.21871 0.0
H2322 H 0.56801 0.68427 0.09926 0.0
H2323 H 0.53474 0.69787 0.11197 0.0
H2324 H 0.56648 0.71878 0.11334 0.0
H2325 H 0.57055 0.61195 0.20457 0.0
H2326 H 0.53807 0.61284 0.18433 0.0
H2327 H 0.57129 0.60373 0.16806 0.0
H2328 H 0.47613 0.62288 0.11171 0.0
H2329 H 0.55524 0.59385 0.07603 0.0
H2330 H 0.50327 0.6784 0.149 0.0
H2331 H 0.50247 0.64947 0.17195 0.0
H2332 H 0.47381 0.65473 0.14748 0.0
H2333 H 0.59969 0.64433 0.10522 0.0
H2334 H 0.60016 0.60971 0.09142 0.0
H2335 H 0.60074 0.61562 0.12837 0.0
C2336 C 0.38012 0.58671 0.21639 0.0
C2337 C 0.36756 0.61232 0.21034 0.0
C2338 C 0.40077 0.57516 0.19862 0.0
C2339 C 0.40924 0.58993 0.17469 0.0
C2340 C 0.40018 0.61766 0.17129 0.0
C2341 C 0.37923 0.62854 0.18917 0.0
C2342 C 0.40981 0.54555 0.20312 0.0
C2343 C 0.40911 0.63449 0.14651 0.0
C2344 C 0.45941 0.55233 0.12481 0.0
C2345 C 0.4396 0.54139 0.10604 0.0
C2346 C 0.45016 0.5694 0.1467 0.0
C2347 C 0.4204 0.57437 0.15036 0.0
C2348 C 0.40048 0.56333 0.13115 0.0
C2349 C 0.41044 0.54736 0.10894 0.0
C2350 C 0.47207 0.58169 0.16603 0.0
C2351 C 0.3685 0.56755 0.13454 0.0
H2352 H 0.37108 0.57412 0.23274 0.0
H2353 H 0.36961 0.64844 0.18458 0.0
H2354 H 0.39723 0.53206 0.18911 0.0
H2355 H 0.43281 0.54247 0.19815 0.0
H2356 H 0.40596 0.53885 0.22482 0.0
H2357 H 0.40989 0.65676 0.15185 0.0
H2358 H 0.43034 0.62787 0.13845 0.0
H2359 H 0.39307 0.63192 0.12971 0.0
H2360 H 0.48204 0.54766 0.12224 0.0
H2361 H 0.39531 0.53869 0.09429 0.0
H2362 H 0.4719 0.57045 0.18603 0.0
H2363 H 0.46682 0.60361 0.17048 0.0
H2364 H 0.49411 0.58041 0.1573 0.0
H2365 H 0.35599 0.5577 0.11766 0.0
H2366 H 0.36326 0.58987 0.13485 0.0
H2367 H 0.36137 0.5588 0.15463 0.0
C2368 C 0.80674 0.54454 0.73449 0.0
C2369 C 0.78302 0.53687 0.71852 0.0
C2370 C 0.83439 0.54509 0.72283 0.0
C2371 C 0.83814 0.53797 0.69456 0.0
C2372 C 0.81398 0.53061 0.67835 0.0
C2373 C 0.78668 0.53008 0.6906 0.0
C2374 C 0.85956 0.55293 0.74079 0.0
C2375 C 0.817 0.52297 0.64811 0.0
C2376 C 0.90193 0.55839 0.65053 0.0
C2377 C 0.91615 0.53294 0.64741 0.0
C2378 C 0.87754 0.5609 0.66749 0.0
C2379 C 0.86723 0.53747 0.68175 0.0
C2380 C 0.88307 0.51247 0.68076 0.0
C2381 C 0.90733 0.51051 0.66361 0.0
C2382 C 0.86151 0.58805 0.66824 0.0
C2383 C 0.87312 0.48711 0.69603 0.0
H2384 H 0.80378 0.54996 0.7561 0.0
H2385 H 0.76818 0.52418 0.67837 0.0
H2386 H 0.87516 0.53557 0.74175 0.0
H2387 H 0.87091 0.57075 0.73159 0.0
H2388 H 0.85295 0.55837 0.76226 0.0
H2389 H 0.79602 0.51838 0.63827 0.0
H2390 H 0.82723 0.54007 0.63656 0.0
H2391 H 0.83113 0.50458 0.64598 0.0
H2392 H 0.90866 0.57596 0.63833 0.0
H2393 H 0.91835 0.49084 0.66167 0.0
H2394 H 0.85485 0.59324 0.68971 0.0
H2395 H 0.84176 0.58639 0.65553 0.0
H2396 H 0.87462 0.60521 0.65992 0.0
H2397 H 0.86714 0.4923 0.71768 0.0
H2398 H 0.88982 0.47065 0.69637 0.0
H2399 H 0.85373 0.47883 0.6857 0.0
C2400 C 0.49122 0.83332 0.67508 0.0
C2401 C 0.50737 0.80917 0.6714 0.0
C2402 C 0.49828 0.8576 0.66076 0.0
C2403 C 0.5221 0.85756 0.64249 0.0
C2404 C 0.5382 0.83294 0.63855 0.0
C2405 C 0.53063 0.809 0.65313 0.0
C2406 C 0.48043 0.88331 0.6653 0.0
C2407 C 0.56348 0.83195 0.61899 0.0
C2408 C 0.52877 0.91318 0.58721 0.0
C2409 C 0.54895 0.93097 0.59913 0.0
C2410 C 0.51958 0.88938 0.60114 0.0
C2411 C 0.53062 0.88331 0.62782 0.0
C2412 C 0.5506 0.90144 0.64019 0.0
C2413 C 0.55952 0.925 0.62572 0.0
C2414 C 0.49794 0.87089 0.58724 0.0
C2415 C 0.56291 0.8957 0.66859 0.0
H2416 H 0.47323 0.83327 0.68935 0.0
H2417 H 0.54306 0.7902 0.65042 0.0
H2418 H 0.49413 0.90017 0.67328 0.0
H2419 H 0.47125 0.89038 0.64529 0.0
H2420 H 0.46261 0.87994 0.68019 0.0
H2421 H 0.57359 0.81116 0.61804 0.0
H2422 H 0.55648 0.83787 0.59781 0.0
H2423 H 0.57989 0.84704 0.62565 0.0
H2424 H 0.52037 0.91766 0.56676 0.0
H2425 H 0.57503 0.93864 0.63518 0.0
H2426 H 0.47643 0.87491 0.5963 0.0
H2427 H 0.50317 0.84879 0.59058 0.0
H2428 H 0.49671 0.87467 0.56457 0.0
H2429 H 0.54535 0.89369 0.68397 0.0
H2430 H 0.57765 0.91218 0.67564 0.0
H2431 H 0.57487 0.87583 0.66832 0.0
C2432 C 0.23295 0.53302 0.67869 0.0
C2433 C 0.25432 0.55301 0.68163 0.0
C2434 C 0.21725 0.53061 0.65419 0.0
C2435 C 0.22395 0.54775 0.63138 0.0
C2436 C 0.2475 0.56602 0.63316 0.0
C2437 C 0.26224 0.56872 0.6585 0.0
C2438 C 0.19205 0.51113 0.65361 0.0
C2439 C 0.25639 0.58383 0.60908 0.0
C2440 C 0.17899 0.52283 0.57169 0.0
C2441 C 0.15471 0.53978 0.57477 0.0
C2442 C 0.20376 0.52751 0.58758 0.0
C2443 C 0.20354 0.54874 0.60775 0.0
C2444 C 0.18007 0.56737 0.60904 0.0
C2445 C 0.15608 0.56283 0.59227 0.0
C2446 C 0.22939 0.50869 0.58409 0.0
C2447 C 0.17918 0.59069 0.62981 0.0
H2448 H 0.22752 0.52002 0.69618 0.0
H2449 H 0.27903 0.58395 0.66046 0.0
H2450 H 0.17191 0.5229 0.64983 0.0
H2451 H 0.19456 0.49605 0.63649 0.0
H2452 H 0.18965 0.49952 0.67331 0.0
H2453 H 0.28012 0.58559 0.60833 0.0
H2454 H 0.24873 0.57571 0.58889 0.0
H2455 H 0.24758 0.60494 0.61204 0.0
H2456 H 0.17833 0.50543 0.55757 0.0
H2457 H 0.13756 0.57632 0.59439 0.0
H2458 H 0.22934 0.49277 0.60058 0.0
H2459 H 0.24963 0.52048 0.58602 0.0
H2460 H 0.22911 0.49804 0.56368 0.0
H2461 H 0.17977 0.58224 0.6512 0.0
H2462 H 0.15963 0.60373 0.62762 0.0
H2463 H 0.19824 0.60397 0.62719 0.0
C2464 C 0.44037 0.1622 0.69006 0.0
C2465 C 0.46163 0.17702 0.70399 0.0
C2466 C 0.4471 0.14622 0.6665 0.0
C2467 C 0.47589 0.14476 0.65703 0.0
C2468 C 0.49727 0.16026 0.67086 0.0
C2469 C 0.48983 0.1763 0.69409 0.0
C2470 C 0.42314 0.13157 0.65166 0.0
C2471 C 0.52818 0.15946 0.66149 0.0
C2472 C 0.50586 0.08253 0.61845 0.0
C2473 C 0.50889 0.09296 0.59157 0.0
C2474 C 0.49375 0.09874 0.63967 0.0
C2475 C 0.48437 0.12598 0.63378 0.0
C2476 C 0.48571 0.13589 0.60618 0.0
C2477 C 0.49838 0.11937 0.58545 0.0
C2478 C 0.49251 0.08733 0.66875 0.0
C2479 C 0.47511 0.16442 0.59888 0.0
H2480 H 0.41847 0.16309 0.69761 0.0
H2481 H 0.5062 0.18782 0.70497 0.0
H2482 H 0.41369 0.14579 0.63607 0.0
H2483 H 0.43066 0.11282 0.64059 0.0
H2484 H 0.40581 0.12579 0.66631 0.0
H2485 H 0.54196 0.17348 0.67381 0.0
H2486 H 0.5368 0.13815 0.6634 0.0
H2487 H 0.52967 0.16536 0.63932 0.0
H2488 H 0.51465 0.06234 0.62328 0.0
H2489 H 0.50113 0.12751 0.56469 0.0
H2490 H 0.47036 0.08924 0.67702 0.0
H2491 H 0.50669 0.09947 0.68255 0.0
H2492 H 0.49932 0.06536 0.6697 0.0
H2493 H 0.45268 0.16721 0.6061 0.0
H2494 H 0.47596 0.16838 0.57621 0.0
H2495 H 0.48837 0.18005 0.60963 0.0
C2496 C 0.80515 0.50932 0.32066 0.0
C2497 C 0.77587 0.50805 0.32664 0.0
C2498 C 0.82544 0.51106 0.34205 0.0
C2499 C 0.81608 0.51139 0.37002 0.0
C2500 C 0.78637 0.51035 0.37607 0.0
C2501 C 0.76655 0.50869 0.35419 0.0
C2502 C 0.85691 0.51216 0.33472 0.0
C2503 C 0.7756 0.51059 0.40559 0.0
C2504 C 0.87248 0.48763 0.4215 0.0
C2505 C 0.88402 0.51279 0.43041 0.0
C2506 C 0.84945 0.4869 0.40281 0.0
C2507 C 0.83762 0.51193 0.39278 0.0
C2508 C 0.84803 0.53738 0.40289 0.0
C2509 C 0.87109 0.53751 0.42162 0.0
C2510 C 0.8388 0.45932 0.39271 0.0
C2511 C 0.83581 0.56449 0.39283 0.0
H2512 H 0.8123 0.50872 0.2993 0.0
H2513 H 0.74377 0.50764 0.35863 0.0
H2514 H 0.86672 0.53085 0.34387 0.0
H2515 H 0.86825 0.49401 0.34358 0.0
H2516 H 0.86056 0.51241 0.31195 0.0
H2517 H 0.7518 0.51063 0.40674 0.0
H2518 H 0.78389 0.4922 0.41676 0.0
H2519 H 0.78372 0.52902 0.41666 0.0
H2520 H 0.88212 0.46839 0.42832 0.0
H2521 H 0.87967 0.55706 0.42851 0.0
H2522 H 0.84422 0.45676 0.37044 0.0
H2523 H 0.81512 0.45826 0.39455 0.0
H2524 H 0.84842 0.44184 0.40441 0.0
H2525 H 0.84129 0.56734 0.37063 0.0
H2526 H 0.84426 0.58231 0.40471 0.0
H2527 H 0.81208 0.56455 0.39446 0.0
C2528 C 0.59417 0.84314 0.29255 0.0
C2529 C 0.57732 0.81991 0.28702 0.0
C2530 C 0.58789 0.86075 0.31496 0.0
C2531 C 0.56383 0.85534 0.332 0.0
C2532 C 0.54737 0.83135 0.32712 0.0
C2533 C 0.55443 0.81383 0.30481 0.0
C2534 C 0.6064 0.88571 0.31979 0.0
C2535 C 0.52141 0.82491 0.3446 0.0
C2536 C 0.55463 0.89276 0.40122 0.0
C2537 C 0.53557 0.91417 0.39412 0.0
C2538 C 0.56431 0.87366 0.38124 0.0
C2539 C 0.5546 0.87585 0.35348 0.0
C2540 C 0.53571 0.89766 0.34613 0.0
C2541 C 0.52655 0.91656 0.36645 0.0
C2542 C 0.58446 0.85081 0.39 0.0
C2543 C 0.52473 0.90077 0.31682 0.0
H2544 H 0.61202 0.8478 0.27896 0.0
H2545 H 0.54117 0.79607 0.30046 0.0
H2546 H 0.59387 0.90472 0.31528 0.0
H2547 H 0.61312 0.88675 0.34183 0.0
H2548 H 0.62587 0.88555 0.3065 0.0
H2549 H 0.51207 0.80453 0.33941 0.0
H2550 H 0.52712 0.82509 0.36692 0.0
H2551 H 0.50473 0.84103 0.34139 0.0
H2552 H 0.56179 0.89072 0.42251 0.0
H2553 H 0.5118 0.93296 0.36068 0.0
H2554 H 0.60313 0.8496 0.37577 0.0
H2555 H 0.57325 0.83075 0.38884 0.0
H2556 H 0.59232 0.85374 0.41152 0.0
H2557 H 0.54298 0.90308 0.30227 0.0
H2558 H 0.51018 0.91886 0.31444 0.0
H2559 H 0.51295 0.88194 0.31061 0.0
C2560 C 0.2356 0.58909 0.33136 0.0
C2561 C 0.23801 0.59412 0.30296 0.0
C2562 C 0.20963 0.58013 0.34284 0.0
C2563 C 0.18553 0.57612 0.32538 0.0
C2564 C 0.18788 0.58147 0.29659 0.0
C2565 C 0.21422 0.59042 0.28568 0.0
C2566 C 0.20809 0.57469 0.37364 0.0
C2567 C 0.16272 0.57748 0.27734 0.0
C2568 C 0.13178 0.52746 0.35758 0.0
C2569 C 0.11337 0.54596 0.37138 0.0
C2570 C 0.15421 0.53699 0.34077 0.0
C2571 C 0.15828 0.56572 0.33756 0.0
C2572 C 0.13818 0.5844 0.3493 0.0
C2573 C 0.116 0.57431 0.36611 0.0
C2574 C 0.17492 0.51633 0.32835 0.0
C2575 C 0.14142 0.61517 0.34607 0.0
H2576 H 0.25415 0.59197 0.34461 0.0
H2577 H 0.21618 0.59433 0.26365 0.0
H2578 H 0.1909 0.58752 0.38313 0.0
H2579 H 0.20257 0.55278 0.37737 0.0
H2580 H 0.22863 0.57918 0.38435 0.0
H2581 H 0.16782 0.58334 0.25564 0.0
H2582 H 0.15602 0.55558 0.27762 0.0
H2583 H 0.14413 0.58998 0.28453 0.0
H2584 H 0.12981 0.5055 0.36122 0.0
H2585 H 0.10191 0.58885 0.37654 0.0
H2586 H 0.19552 0.51703 0.33985 0.0
H2587 H 0.17955 0.52145 0.3064 0.0
H2588 H 0.16658 0.49495 0.32935 0.0
H2589 H 0.15941 0.62232 0.35925 0.0
H2590 H 0.12167 0.62654 0.35234 0.0
H2591 H 0.14663 0.62055 0.32431 0.0
C2592 C 0.51721 0.23079 0.35861 0.0
C2593 C 0.51642 0.22524 0.33015 0.0
C2594 C 0.51753 0.2092 0.37804 0.0
C2595 C 0.51703 0.18152 0.36864 0.0
C2596 C 0.51728 0.17594 0.33977 0.0
C2597 C 0.51683 0.19793 0.32085 0.0
C2598 C 0.51736 0.21598 0.40859 0.0
C2599 C 0.51662 0.1468 0.32875 0.0
C2600 C 0.53372 0.12178 0.41761 0.0
C2601 C 0.50619 0.11179 0.42319 0.0
C2602 C 0.53778 0.14479 0.40032 0.0
C2603 C 0.5136 0.15846 0.38875 0.0
C2604 C 0.48571 0.14925 0.39538 0.0
C2605 C 0.48237 0.12609 0.41238 0.0
C2606 C 0.56797 0.15434 0.39468 0.0
C2607 C 0.45928 0.16351 0.38404 0.0
H2608 H 0.51695 0.25203 0.36567 0.0
H2609 H 0.51619 0.19365 0.29881 0.0
H2610 H 0.49735 0.20825 0.41821 0.0
H2611 H 0.5356 0.2055 0.41904 0.0
H2612 H 0.51883 0.23851 0.41251 0.0
H2613 H 0.52386 0.14571 0.30682 0.0
H2614 H 0.53026 0.13282 0.34139 0.0
H2615 H 0.49432 0.13903 0.32977 0.0
H2616 H 0.55216 0.11154 0.42645 0.0
H2617 H 0.46088 0.11892 0.41679 0.0
H2618 H 0.57324 0.17126 0.40927 0.0
H2619 H 0.57033 0.16239 0.37331 0.0
H2620 H 0.58388 0.13746 0.39788 0.0
H2621 H 0.45999 0.18592 0.38864 0.0
H2622 H 0.43914 0.15503 0.39281 0.0
H2623 H 0.45862 0.16117 0.36116 0.0
C2624 C 0.71879 0.83815 0.46112 0.0
C2625 C 0.70894 0.81111 0.45898 0.0
C2626 C 0.69936 0.86039 0.46194 0.0
C2627 C 0.66948 0.85529 0.4604 0.0
C2628 C 0.65955 0.82777 0.45885 0.0
C2629 C 0.67951 0.80597 0.45803 0.0
C2630 C 0.71083 0.88936 0.46397 0.0
C2631 C 0.62807 0.821 0.45685 0.0
C2632 C 0.62 0.91398 0.48252 0.0
C2633 C 0.61395 0.92665 0.45702 0.0
C2634 C 0.6374 0.89024 0.48389 0.0
C2635 C 0.64895 0.87892 0.45919 0.0
C2636 C 0.64189 0.89091 0.43332 0.0
C2637 C 0.62452 0.91464 0.43254 0.0
C2638 C 0.64389 0.87755 0.51177 0.0
C2639 C 0.65342 0.87919 0.40649 0.0
H2640 H 0.74167 0.84194 0.46179 0.0
H2641 H 0.67207 0.78489 0.45626 0.0
H2642 H 0.70491 0.90113 0.44507 0.0
H2643 H 0.70102 0.90018 0.48194 0.0
H2644 H 0.73453 0.88971 0.46629 0.0
H2645 H 0.62348 0.80099 0.46707 0.0
H2646 H 0.61414 0.83712 0.46623 0.0
H2647 H 0.62225 0.81888 0.43465 0.0
H2648 H 0.61173 0.92296 0.50152 0.0
H2649 H 0.61966 0.92405 0.4127 0.0
H2650 H 0.66731 0.87825 0.5158 0.0
H2651 H 0.63755 0.85554 0.51178 0.0
H2652 H 0.63254 0.8883 0.52897 0.0
H2653 H 0.67693 0.88247 0.40546 0.0
H2654 H 0.64336 0.88896 0.38804 0.0
H2655 H 0.64977 0.85663 0.40556 0.0
C2656 C 0.71315 0.2032 0.53897 0.0
C2657 C 0.70348 0.23004 0.53378 0.0
C2658 C 0.69421 0.18087 0.53732 0.0
C2659 C 0.66513 0.18573 0.53014 0.0
C2660 C 0.65505 0.21315 0.52666 0.0
C2661 C 0.67447 0.23505 0.52844 0.0
C2662 C 0.70576 0.15199 0.54133 0.0
C2663 C 0.62423 0.21924 0.51909 0.0
C2664 C 0.62897 0.133 0.48451 0.0
C2665 C 0.61075 0.11944 0.50312 0.0
C2666 C 0.647 0.15417 0.49328 0.0
C2667 C 0.64672 0.16235 0.52144 0.0
C2668 C 0.62849 0.14876 0.54049 0.0
C2669 C 0.61081 0.12721 0.53112 0.0
C2670 C 0.66612 0.16801 0.47222 0.0
C2671 C 0.6275 0.15719 0.57059 0.0
H2672 H 0.73571 0.19956 0.54322 0.0
H2673 H 0.66718 0.25598 0.52454 0.0
H2674 H 0.69134 0.13996 0.55496 0.0
H2675 H 0.7067 0.14129 0.52099 0.0
H2676 H 0.72764 0.15192 0.55047 0.0
H2677 H 0.61889 0.24151 0.52115 0.0
H2678 H 0.62036 0.21295 0.49728 0.0
H2679 H 0.60943 0.20726 0.53237 0.0
H2680 H 0.62926 0.12698 0.46285 0.0
H2681 H 0.5966 0.11699 0.54551 0.0
H2682 H 0.68887 0.16651 0.47884 0.0
H2683 H 0.66055 0.19025 0.47075 0.0
H2684 H 0.66417 0.15874 0.45123 0.0
H2685 H 0.64852 0.15273 0.58044 0.0
H2686 H 0.61048 0.14623 0.58224 0.0
H2687 H 0.62364 0.17972 0.57244 0.0
C2688 C 0.82782 0.69081 0.47689 0.0
C2689 C 0.83923 0.71581 0.46766 0.0
C2690 C 0.84548 0.66754 0.48044 0.0
C2691 C 0.87516 0.66939 0.47448 0.0
C2692 C 0.88619 0.69379 0.46262 0.0
C2693 C 0.8681 0.71683 0.45953 0.0
C2694 C 0.83285 0.64179 0.49289 0.0
C2695 C 0.91753 0.69626 0.45523 0.0
C2696 C 0.92187 0.62924 0.52436 0.0
C2697 C 0.92801 0.60511 0.50934 0.0
C2698 C 0.90552 0.6506 0.5128 0.0
C2699 C 0.89512 0.64797 0.48536 0.0
C2700 C 0.90244 0.62437 0.4695 0.0
C2701 C 0.91866 0.6031 0.4818 0.0
C2702 C 0.89847 0.67555 0.53043 0.0
C2703 C 0.89215 0.62094 0.44005 0.0
H2704 H 0.80553 0.68995 0.48321 0.0
H2705 H 0.87683 0.73604 0.45189 0.0
H2706 H 0.84011 0.62326 0.48127 0.0
H2707 H 0.84041 0.63954 0.5146 0.0
H2708 H 0.80902 0.64238 0.49296 0.0
H2709 H 0.9216 0.71431 0.44166 0.0
H2710 H 0.93032 0.6987 0.47448 0.0
H2711 H 0.92531 0.67733 0.44461 0.0
H2712 H 0.92929 0.63123 0.54557 0.0
H2713 H 0.9231 0.58462 0.47012 0.0
H2714 H 0.87494 0.67692 0.53373 0.0
H2715 H 0.90515 0.69466 0.51968 0.0
H2716 H 0.90914 0.67482 0.55102 0.0
H2717 H 0.86939 0.61445 0.44025 0.0
H2718 H 0.90485 0.60504 0.42874 0.0
H2719 H 0.89335 0.64066 0.42849 0.0
C2720 C 0.31114 0.83658 0.52976 0.0
C2721 C 0.30633 0.81881 0.55222 0.0
C2722 C 0.3368 0.8513 0.52734 0.0
C2723 C 0.35838 0.84796 0.54771 0.0
C2724 C 0.35429 0.82907 0.56972 0.0
C2725 C 0.32825 0.81478 0.57177 0.0
C2726 C 0.3403 0.87127 0.50359 0.0
C2727 C 0.37692 0.82481 0.59172 0.0
C2728 C 0.43259 0.87604 0.5315 0.0
C2729 C 0.43174 0.90155 0.54522 0.0
C2730 C 0.40905 0.8581 0.53245 0.0
C2731 C 0.38406 0.86601 0.54725 0.0
C2732 C 0.38316 0.8917 0.56118 0.0
C2733 C 0.40701 0.90907 0.56008 0.0
C2734 C 0.41086 0.83073 0.51759 0.0
C2735 C 0.35685 0.90102 0.57703 0.0
H2736 H 0.29458 0.83933 0.51421 0.0
H2737 H 0.32469 0.80121 0.58926 0.0
H2738 H 0.34134 0.89263 0.51177 0.0
H2739 H 0.3607 0.86712 0.49245 0.0
H2740 H 0.32233 0.87012 0.48851 0.0
H2741 H 0.37175 0.80738 0.60574 0.0
H2742 H 0.39812 0.8208 0.58201 0.0
H2743 H 0.37891 0.84381 0.60438 0.0
H2744 H 0.45171 0.86999 0.52018 0.0
H2745 H 0.40613 0.92874 0.57076 0.0
H2746 H 0.39405 0.82968 0.50135 0.0
H2747 H 0.40681 0.81369 0.53238 0.0
H2748 H 0.43211 0.8273 0.5077 0.0
H2749 H 0.33817 0.90231 0.56281 0.0
H2750 H 0.35976 0.92146 0.58703 0.0
H2751 H 0.35155 0.88575 0.59333 0.0
C2752 C 0.21927 0.32068 0.46336 0.0
C2753 C 0.22016 0.30543 0.48791 0.0
C2754 C 0.201 0.34367 0.46077 0.0
C2755 C 0.18329 0.35157 0.48337 0.0
C2756 C 0.18356 0.33558 0.50798 0.0
C2757 C 0.20216 0.31266 0.50999 0.0
C2758 C 0.20122 0.35998 0.43412 0.0
C2759 C 0.16468 0.34304 0.53231 0.0
C2760 C 0.1623 0.42744 0.48428 0.0
C2761 C 0.13522 0.42709 0.47159 0.0
C2762 C 0.1777 0.40292 0.48916 0.0
C2763 C 0.16564 0.37731 0.48147 0.0
C2764 C 0.13767 0.3767 0.47002 0.0
C2765 C 0.12293 0.40159 0.46489 0.0
C2766 C 0.20737 0.40453 0.50159 0.0
C2767 C 0.12366 0.34988 0.46215 0.0
H2768 H 0.23338 0.31498 0.44638 0.0
H2769 H 0.20304 0.30075 0.529 0.0
H2770 H 0.17921 0.36127 0.42544 0.0
H2771 H 0.20835 0.38136 0.43831 0.0
H2772 H 0.21564 0.3507 0.41826 0.0
H2773 H 0.16619 0.32764 0.54929 0.0
H2774 H 0.1709 0.36348 0.54061 0.0
H2775 H 0.14198 0.34471 0.52554 0.0
H2776 H 0.17195 0.44698 0.4897 0.0
H2777 H 0.1019 0.40104 0.45528 0.0
H2778 H 0.22347 0.39747 0.48613 0.0
H2779 H 0.20913 0.39067 0.5198 0.0
H2780 H 0.21289 0.4258 0.5082 0.0
H2781 H 0.13172 0.34327 0.44152 0.0
H2782 H 0.09997 0.35213 0.46102 0.0
H2783 H 0.12889 0.33329 0.47717 0.0
C2784 C 0.31572 0.15199 0.51403 0.0
C2785 C 0.31268 0.17407 0.49545 0.0
C2786 C 0.33994 0.13474 0.51343 0.0
C2787 C 0.36203 0.13975 0.49396 0.0
C2788 C 0.35933 0.16211 0.47523 0.0
C2789 C 0.33466 0.17903 0.47619 0.0
C2790 C 0.34197 0.11125 0.53393 0.0
C2791 C 0.38253 0.16816 0.45432 0.0
C2792 C 0.43205 0.10884 0.51875 0.0
C2793 C 0.43193 0.08302 0.50564 0.0
C2794 C 0.41066 0.12854 0.51331 0.0
C2795 C 0.38837 0.12214 0.49451 0.0
C2796 C 0.38935 0.09687 0.47965 0.0
C2797 C 0.4112 0.07754 0.48545 0.0
C2798 C 0.41073 0.15527 0.52942 0.0
C2799 C 0.36607 0.08922 0.45938 0.0
H2800 H 0.29914 0.1483 0.52932 0.0
H2801 H 0.33237 0.19589 0.46161 0.0
H2802 H 0.34527 0.09146 0.52277 0.0
H2803 H 0.36073 0.11424 0.54773 0.0
H2804 H 0.32244 0.10953 0.547 0.0
H2805 H 0.37693 0.18593 0.4408 0.0
H2806 H 0.40294 0.17271 0.46518 0.0
H2807 H 0.38646 0.1498 0.44107 0.0
H2808 H 0.44824 0.11318 0.53429 0.0
H2809 H 0.41075 0.05744 0.47576 0.0
H2810 H 0.39367 0.15475 0.54545 0.0
H2811 H 0.40607 0.17298 0.51557 0.0
H2812 H 0.43159 0.15883 0.53994 0.0
H2813 H 0.34642 0.0836 0.471 0.0
H2814 H 0.37246 0.07142 0.44616 0.0
H2815 H 0.36054 0.10695 0.44582 0.0
C2816 C 0.82779 0.34145 0.49821 0.0
C2817 C 0.83582 0.31368 0.50085 0.0
C2818 C 0.84771 0.36254 0.50291 0.0
C2819 C 0.87628 0.3556 0.51031 0.0
C2820 C 0.88479 0.32764 0.51192 0.0
C2821 C 0.86444 0.30707 0.50744 0.0
C2822 C 0.83792 0.39222 0.50111 0.0
C2823 C 0.91506 0.31942 0.51973 0.0
C2824 C 0.93327 0.41116 0.50907 0.0
C2825 C 0.93386 0.41915 0.53703 0.0
C2826 C 0.91475 0.39033 0.49996 0.0
C2827 C 0.89644 0.37735 0.51931 0.0
C2828 C 0.89752 0.38485 0.54765 0.0
C2829 C 0.91625 0.4056 0.55616 0.0
C2830 C 0.91451 0.38246 0.46966 0.0
C2831 C 0.87851 0.3713 0.56897 0.0
H2832 H 0.80582 0.3467 0.49291 0.0
H2833 H 0.8708 0.28571 0.51021 0.0
H2834 H 0.83867 0.40176 0.52203 0.0
H2835 H 0.85254 0.40411 0.48755 0.0
H2836 H 0.81571 0.39421 0.49295 0.0
H2837 H 0.91899 0.29694 0.51717 0.0
H2838 H 0.93081 0.33075 0.50689 0.0
H2839 H 0.91917 0.32498 0.5417 0.0
H2840 H 0.94688 0.42151 0.49419 0.0
H2841 H 0.91661 0.4116 0.57781 0.0
H2842 H 0.89279 0.38591 0.46087 0.0
H2843 H 0.91957 0.36018 0.46733 0.0
H2844 H 0.93021 0.39445 0.45733 0.0
H2845 H 0.88203 0.37955 0.59019 0.0
H2846 H 0.88258 0.34874 0.56929 0.0
H2847 H 0.85564 0.37448 0.56337 0.0
C2848 C 0.20815 0.6724 0.56459 0.0
C2849 C 0.20263 0.70068 0.56249 0.0
C2850 C 0.18787 0.65313 0.55556 0.0
C2851 C 0.16159 0.66253 0.54405 0.0
C2852 C 0.15565 0.69121 0.5428 0.0
C2853 C 0.17637 0.71002 0.552 0.0
C2854 C 0.19516 0.6228 0.55716 0.0
C2855 C 0.12788 0.70205 0.53077 0.0
C2856 C 0.12516 0.61692 0.49088 0.0
C2857 C 0.10307 0.60493 0.50645 0.0
C2858 C 0.14436 0.63555 0.50293 0.0
C2859 C 0.14141 0.64254 0.53129 0.0
C2860 C 0.11926 0.6305 0.54718 0.0
C2861 C 0.10032 0.61195 0.53448 0.0
C2862 C 0.16781 0.64776 0.48526 0.0
C2863 C 0.11541 0.63738 0.5775 0.0
H2864 H 0.22865 0.66535 0.57267 0.0
H2865 H 0.17228 0.73199 0.55038 0.0
H2866 H 0.17641 0.61082 0.56428 0.0
H2867 H 0.20101 0.61516 0.5362 0.0
H2868 H 0.21345 0.6187 0.57135 0.0
H2869 H 0.12568 0.72475 0.53317 0.0
H2870 H 0.12682 0.69693 0.50837 0.0
H2871 H 0.10934 0.69204 0.54097 0.0
H2872 H 0.12761 0.61163 0.46916 0.0
H2873 H 0.0831 0.60335 0.54638 0.0
H2874 H 0.1891 0.64262 0.49422 0.0
H2875 H 0.16579 0.67057 0.48502 0.0
H2876 H 0.16719 0.64015 0.46353 0.0
H2877 H 0.13577 0.6337 0.58887 0.0
H2878 H 0.09822 0.62501 0.58733 0.0
H2879 H 0.10994 0.65957 0.57981 0.0
loop_
_geom_bond_atom_site_label_1
_geom_bond_atom_site_label_2
_geom_bond_distance
_geom_bond_site_symmetry_2
_ccdc_geom_bond_type
H0 C3 0.929 . S
H1 C6 0.929 . S
H2 C8 0.930 . S
C3 H0 0.929 . S
C3 C4 1.398 . S
C3 C5 1.396 . S
C4 C3 1.398 . S
C4 C8 1.407 . S
C5 C3 1.396 . S
C5 C6 1.394 . S
C6 H1 0.929 . S
C6 C5 1.394 . S
C6 C7 1.382 . S
C7 C6 1.382 . S
C7 C8 1.392 . S
C7 N9 1.420 . S
C8 H2 0.930 . S
C8 C4 1.407 . S
C8 C7 1.392 . S
N9 C7 1.420 . S
N9 C10 1.244 . S
C10 N9 1.244 . S
H11 C14 0.929 . S
H12 C17 0.929 . S
H13 C19 0.930 . S
C14 H11 0.929 . S
C14 C15 1.398 . S
C14 C16 1.396 . S
C15 C14 1.398 . S
C15 C19 1.407 . S
C16 C14 1.396 . S
C16 C17 1.394 . S
C17 H12 0.929 . S
C17 C16 1.394 . S
C17 C18 1.382 . S
C18 C17 1.382 . S
C18 C19 1.392 . S
C18 N20 1.420 . S
C19 H13 0.930 . S
C19 C15 1.407 . S
C19 C18 1.392 . S
N20 C18 1.420 . S
N20 C21 1.244 . S
C21 N20 1.244 . S
H22 C25 0.929 . S
H23 C28 0.929 . S
H24 C30 0.930 . S
C25 H22 0.929 . S
C25 C26 1.398 . S
C25 C27 1.396 . S
C26 C25 1.398 . S
C26 C30 1.407 . S
C27 C25 1.396 . S
C27 C28 1.394 . S
C28 H23 0.929 . S
C28 C27 1.394 . S
C28 C29 1.382 . S
C29 C28 1.382 . S
C29 C30 1.392 . S
C29 N31 1.420 . S
C30 H24 0.930 . S
C30 C26 1.407 . S
C30 C29 1.392 . S
N31 C29 1.420 . S
N31 C32 1.244 . S
C32 N31 1.244 . S
H33 C36 0.929 . S
H34 C39 0.929 . S
H35 C41 0.930 . S
C36 H33 0.929 . S
C36 C37 1.402 . S
C36 C38 1.396 . S
C37 C36 1.402 . S
C37 C41 1.401 1_545 S
C38 C36 1.396 . S
C38 C39 1.394 1_545 S
C39 H34 0.929 . S
C39 C38 1.394 1_565 S
C39 C40 1.382 . S
C40 C39 1.382 . S
C40 C41 1.392 . S
C40 N42 1.420 . S
C41 H35 0.930 . S
C41 C37 1.401 1_565 S
C41 C40 1.392 . S
N42 C40 1.420 . S
N42 C43 1.244 1_565 S
C43 N42 1.244 1_545 S
H44 C47 0.935 . S
H45 C50 0.929 . S
H46 C52 0.930 . S
C47 H44 0.935 . S
C47 C48 1.395 1_655 S
C47 C49 1.394 1_655 S
C48 C47 1.395 1_455 S
C48 C52 1.407 . S
C49 C47 1.394 1_455 S
C49 C50 1.394 . S
C50 H45 0.929 . S
C50 C49 1.394 . S
C50 C51 1.382 . S
C51 C50 1.382 . S
C51 C52 1.392 . S
C51 N53 1.420 . S
C52 H46 0.930 . S
C52 C48 1.407 . S
C52 C51 1.392 . S
N53 C51 1.420 . S
N53 C54 1.244 1_455 S
C54 N53 1.244 1_655 S
H55 C58 0.929 . S
H56 C61 0.929 . S
H57 C63 0.930 . S
C58 H55 0.929 . S
C58 C59 1.398 . S
C58 C60 1.396 . S
C59 C58 1.398 . S
C59 C63 1.407 . S
C60 C58 1.396 . S
C60 C61 1.394 . S
C61 H56 0.929 . S
C61 C60 1.394 . S
C61 C62 1.382 . S
C62 C61 1.382 . S
C62 C63 1.392 . S
C62 N64 1.420 . S
C63 H57 0.930 . S
C63 C59 1.407 . S
C63 C62 1.392 . S
N64 C62 1.420 . S
N64 C65 1.244 . S
C65 N64 1.244 . S
H66 C69 0.929 . S
H67 C72 0.929 . S
H68 C74 0.930 . S
C69 H66 0.929 . S
C69 C70 1.398 . S
C69 C71 1.396 . S
C70 C69 1.398 . S
C70 C74 1.407 . S
C71 C69 1.396 . S
C71 C72 1.394 . S
C72 H67 0.929 . S
C72 C71 1.394 . S
C72 C73 1.382 . S
C73 C72 1.382 . S
C73 C74 1.392 . S
C73 N75 1.420 . S
C74 H68 0.930 . S
C74 C70 1.407 . S
C74 C73 1.392 . S
N75 C73 1.420 . S
N75 C76 1.244 . S
C76 N75 1.244 . S
H77 C80 0.929 . S
H78 C83 0.929 . S
H79 C85 0.930 . S
C80 H77 0.929 . S
C80 C81 1.398 . S
C80 C82 1.396 . S
C81 C80 1.398 . S
C81 C85 1.407 . S
C82 C80 1.396 . S
C82 C83 1.394 . S
C83 H78 0.929 . S
C83 C82 1.394 . S
C83 C84 1.382 . S
C84 C83 1.382 . S
C84 C85 1.392 . S
C84 N86 1.420 . S
C85 H79 0.930 . S
C85 C81 1.407 . S
C85 C84 1.392 . S
N86 C84 1.420 . S
N86 C87 1.244 . S
C87 N86 1.244 . S
H88 C91 0.929 . S
H89 C94 0.929 . S
H90 C96 0.930 . S
C91 H88 0.929 . S
C91 C92 1.398 . S
C91 C93 1.396 . S
C92 C91 1.398 . S
C92 C96 1.407 . S
C93 C91 1.396 . S
C93 C94 1.394 . S
C94 H89 0.929 . S
C94 C93 1.394 . S
C94 C95 1.382 . S
C95 C94 1.382 . S
C95 C96 1.392 . S
C95 N97 1.420 . S
C96 H90 0.930 . S
C96 C92 1.407 . S
C96 C95 1.392 . S
N97 C95 1.420 . S
N97 C98 1.244 . S
C98 N97 1.244 . S
H99 C102 0.929 . S
H100 C105 0.929 . S
H101 C107 0.930 . S
C102 H99 0.929 . S
C102 C103 1.398 . S
C102 C104 1.396 . S
C103 C102 1.398 . S
C103 C107 1.407 . S
C104 C102 1.396 . S
C104 C105 1.394 . S
C105 H100 0.929 . S
C105 C104 1.394 . S
C105 C106 1.382 . S
C106 C105 1.382 . S
C106 C107 1.392 . S
C106 N108 1.420 . S
C107 H101 0.930 . S
C107 C103 1.407 . S
C107 C106 1.392 . S
N108 C106 1.420 . S
N108 C109 1.244 . S
C109 N108 1.244 . S
H110 C113 0.929 . S
H111 C116 0.929 . S
H112 C118 0.930 . S
C113 H110 0.929 . S
C113 C114 1.398 1_554 S
C113 C115 1.396 1_554 S
C114 C113 1.398 1_556 S
C114 C118 1.407 . S
C115 C113 1.396 1_556 S
C115 C116 1.394 . S
C116 H111 0.929 . S
C116 C115 1.394 . S
C116 C117 1.382 . S
C117 C116 1.382 . S
C117 C118 1.392 . S
C117 N119 1.420 . S
C118 H112 0.930 . S
C118 C114 1.407 . S
C118 C117 1.392 . S
N119 C117 1.420 . S
N119 C120 1.244 1_556 S
C120 N119 1.244 1_554 S
H121 C124 0.938 . S
H122 C127 0.929 . S
H123 C129 0.930 . S
C124 H121 0.938 . S
C124 C125 1.395 1_556 S
C124 C126 1.392 1_556 S
C125 C124 1.395 1_554 S
C125 C129 1.407 . S
C126 C124 1.392 1_554 S
C126 C127 1.394 . S
C127 H122 0.929 . S
C127 C126 1.394 . S
C127 C128 1.382 . S
C128 C127 1.382 . S
C128 C129 1.392 . S
C128 N130 1.420 . S
C129 H123 0.930 . S
C129 C125 1.407 . S
C129 C128 1.392 . S
N130 C128 1.420 . S
N130 C131 1.244 . S
C131 N130 1.244 . S
H132 C135 0.929 . S
H133 C138 0.929 . S
H134 C140 0.930 . S
C135 H132 0.929 . S
C135 C136 1.398 . S
C135 C137 1.396 . S
C136 C135 1.398 . S
C136 C140 1.407 . S
C137 C135 1.396 . S
C137 C138 1.394 . S
C138 H133 0.929 . S
C138 C137 1.394 . S
C138 C139 1.382 . S
C139 C138 1.382 . S
C139 C140 1.392 . S
C139 N141 1.420 . S
C140 H134 0.930 . S
C140 C136 1.407 . S
C140 C139 1.392 . S
N141 C139 1.420 . S
N141 C142 1.244 . S
C142 N141 1.244 . S
H143 C146 0.929 . S
H144 C149 0.929 . S
H145 C151 0.930 . S
C146 H143 0.929 . S
C146 C147 1.398 . S
C146 C148 1.396 . S
C147 C146 1.398 . S
C147 C151 1.407 . S
C148 C146 1.396 . S
C148 C149 1.394 . S
C149 H144 0.929 . S
C149 C148 1.394 . S
C149 C150 1.382 . S
C150 C149 1.382 . S
C150 C151 1.392 . S
C150 N152 1.420 . S
C151 H145 0.930 . S
C151 C147 1.407 . S
C151 C150 1.392 . S
N152 C150 1.420 . S
N152 C153 1.244 . S
C153 N152 1.244 . S
H154 C157 0.929 . S
H155 C160 0.929 . S
H156 C162 0.930 . S
C157 H154 0.929 . S
C157 C158 1.398 . S
C157 C159 1.396 . S
C158 C157 1.398 . S
C158 C162 1.407 . S
C159 C157 1.396 . S
C159 C160 1.394 . S
C160 H155 0.929 . S
C160 C159 1.394 . S
C160 C161 1.382 . S
C161 C160 1.382 . S
C161 C162 1.392 . S
C161 N163 1.420 . S
C162 H156 0.930 . S
C162 C158 1.407 . S
C162 C161 1.392 . S
N163 C161 1.420 . S
N163 C164 1.244 . S
C164 N163 1.244 . S
H165 C168 0.929 . S
H166 C171 0.929 . S
H167 C173 0.930 . S
C168 H165 0.929 . S
C168 C169 1.398 . S
C168 C170 1.396 . S
C169 C168 1.398 . S
C169 C173 1.407 . S
C170 C168 1.396 . S
C170 C171 1.394 . S
C171 H166 0.929 . S
C171 C170 1.394 . S
C171 C172 1.382 . S
C172 C171 1.382 . S
C172 C173 1.392 . S
C172 N174 1.420 . S
C173 H167 0.930 . S
C173 C169 1.407 . S
C173 C172 1.392 . S
N174 C172 1.420 . S
N174 C175 1.244 . S
C175 N174 1.244 . S
H176 C179 0.929 . S
H177 C182 0.929 . S
H178 C184 0.930 . S
C179 H176 0.929 . S
C179 C180 1.398 . S
C179 C181 1.396 . S
C180 C179 1.398 . S
C180 C184 1.407 . S
C181 C179 1.396 . S
C181 C182 1.394 . S
C182 H177 0.929 . S
C182 C181 1.394 . S
C182 C183 1.382 . S
C183 C182 1.382 . S
C183 C184 1.392 . S
C183 N185 1.420 . S
C184 H178 0.930 . S
C184 C180 1.407 . S
C184 C183 1.392 . S
N185 C183 1.420 . S
N185 C186 1.244 . S
C186 N185 1.244 . S
H187 C190 0.929 . S
H188 C193 0.929 . S
H189 C195 0.930 . S
C190 H187 0.929 . S
C190 C191 1.398 . S
C190 C192 1.396 . S
C191 C190 1.398 . S
C191 C195 1.407 . S
C192 C190 1.396 . S
C192 C193 1.394 . S
C193 H188 0.929 . S
C193 C192 1.394 . S
C193 C194 1.382 . S
C194 C193 1.382 . S
C194 C195 1.392 . S
C194 N196 1.420 . S
C195 H189 0.930 . S
C195 C191 1.407 . S
C195 C194 1.392 . S
N196 C194 1.420 . S
N196 C197 1.244 . S
C197 N196 1.244 . S
H198 C201 0.929 . S
H199 C204 0.929 . S
H200 C206 0.930 . S
C201 H198 0.929 . S
C201 C202 1.398 . S
C201 C203 1.396 . S
C202 C201 1.398 . S
C202 C206 1.407 . S
C203 C201 1.396 . S
C203 C204 1.394 . S
C204 H199 0.929 . S
C204 C203 1.394 . S
C204 C205 1.382 . S
C205 C204 1.382 . S
C205 C206 1.392 . S
C205 N207 1.420 . S
C206 H200 0.930 . S
C206 C202 1.407 . S
C206 C205 1.392 . S
N207 C205 1.420 . S
N207 C208 1.244 . S
C208 N207 1.244 . S
H209 C212 0.929 . S
H210 C215 0.929 . S
H211 C217 0.930 . S
C212 H209 0.929 . S
C212 C213 1.398 . S
C212 C214 1.396 . S
C213 C212 1.398 . S
C213 C217 1.407 . S
C214 C212 1.396 . S
C214 C215 1.394 . S
C215 H210 0.929 . S
C215 C214 1.394 . S
C215 C216 1.382 . S
C216 C215 1.382 . S
C216 C217 1.392 . S
C216 N218 1.420 . S
C217 H211 0.930 . S
C217 C213 1.407 . S
C217 C216 1.392 . S
N218 C216 1.420 . S
N218 C219 1.244 . S
C219 N218 1.244 . S
H220 C223 0.929 . S
H221 C226 0.929 . S
H222 C228 0.930 . S
C223 H220 0.929 . S
C223 C224 1.398 . S
C223 C225 1.396 . S
C224 C223 1.398 . S
C224 C228 1.407 . S
C225 C223 1.396 . S
C225 C226 1.394 . S
C226 H221 0.929 . S
C226 C225 1.394 . S
C226 C227 1.382 . S
C227 C226 1.382 . S
C227 C228 1.392 . S
C227 N229 1.420 . S
C228 H222 0.930 . S
C228 C224 1.407 . S
C228 C227 1.392 . S
N229 C227 1.420 . S
N229 C230 1.244 . S
C230 N229 1.244 . S
H231 C234 0.929 . S
H232 C237 0.929 . S
H233 C239 0.930 . S
C234 H231 0.929 . S
C234 C235 1.398 . S
C234 C236 1.396 . S
C235 C234 1.398 . S
C235 C239 1.407 . S
C236 C234 1.396 . S
C236 C237 1.394 . S
C237 H232 0.929 . S
C237 C236 1.394 . S
C237 C238 1.382 . S
C238 C237 1.382 . S
C238 C239 1.392 . S
C238 N240 1.420 . S
C239 H233 0.930 . S
C239 C235 1.407 . S
C239 C238 1.392 . S
N240 C238 1.420 . S
N240 C241 1.244 . S
C241 N240 1.244 . S
H242 C245 0.929 . S
H243 C248 0.929 . S
H244 C250 0.930 . S
C245 H242 0.929 . S
C245 C246 1.398 . S
C245 C247 1.396 . S
C246 C245 1.398 . S
C246 C250 1.407 . S
C247 C245 1.396 . S
C247 C248 1.394 . S
C248 H243 0.929 . S
C248 C247 1.394 . S
C248 C249 1.382 . S
C249 C248 1.382 . S
C249 C250 1.392 . S
C249 N251 1.420 . S
C250 H244 0.930 . S
C250 C246 1.407 . S
C250 C249 1.392 . S
N251 C249 1.420 . S
N251 C252 1.244 . S
C252 N251 1.244 . S
H253 C256 0.929 . S
H254 C259 0.929 . S
H255 C261 0.930 . S
C256 H253 0.929 . S
C256 C257 1.398 . S
C256 C258 1.396 . S
C257 C256 1.398 . S
C257 C261 1.407 . S
C258 C256 1.396 . S
C258 C259 1.394 . S
C259 H254 0.929 . S
C259 C258 1.394 . S
C259 C260 1.382 . S
C260 C259 1.382 . S
C260 C261 1.392 . S
C260 N262 1.420 . S
C261 H255 0.930 . S
C261 C257 1.407 . S
C261 C260 1.392 . S
N262 C260 1.420 . S
N262 C263 1.244 . S
C263 N262 1.244 . S
Zn264 O266 1.933 1_665 S
Zn264 O284 1.985 . S
Zn264 O295 1.955 1_655 S
Zn265 O266 1.911 1_655 S
Zn265 O285 1.970 . S
Zn265 O301 1.945 1_655 S
Zn265 O308 1.981 . S
O266 Zn264 1.933 1_445 S
O266 Zn265 1.911 1_455 S
O266 H267 0.841 . S
H267 O266 0.841 . S
C268 O269 1.246 . S
C268 O297 1.276 . S
O269 C268 1.246 . S
Zn270 O272 1.911 . S
Zn270 O287 1.970 . S
Zn270 O304 1.945 . S
Zn270 O311 1.981 . S
Zn271 O272 1.933 1_565 S
Zn271 O286 1.985 . S
Zn271 O293 1.955 . S
O272 Zn270 1.911 . S
O272 Zn271 1.933 1_545 S
O272 H273 0.841 . S
H273 O272 0.841 . S
Zn274 O275 1.933 1_565 S
Zn274 O288 1.985 . S
Zn274 O297 1.955 . S
O275 Zn274 1.933 1_545 S
O275 Zn276 1.911 . S
O275 H277 0.841 . S
Zn276 O275 1.911 . S
Zn276 O289 1.970 . S
Zn276 O305 1.981 1_655 S
Zn276 O307 1.945 . S
H277 O275 0.841 . S
Zn278 O279 1.933 1_565 S
Zn278 O291 1.985 . S
Zn278 O299 1.955 . S
O279 Zn278 1.933 1_545 S
O279 H280 0.841 . S
O279 Zn281 1.911 . S
H280 O279 0.841 . S
Zn281 O279 1.911 . S
Zn281 O292 1.970 . S
Zn281 O302 1.981 . S
Zn281 O310 1.945 . S
C282 O283 1.246 . S
C282 O299 1.276 . S
O283 C282 1.246 . S
O284 Zn264 1.985 . S
O284 C294 1.245 1_565 S
O285 Zn265 1.970 . S
O285 C294 1.263 . S
O286 Zn271 1.985 . S
O286 C298 1.245 1_565 S
O287 Zn270 1.970 . S
O287 C298 1.263 . S
O288 Zn274 1.985 . S
O288 C303 1.245 1_565 S
O289 Zn276 1.970 . S
O289 C303 1.263 . S
C290 O301 1.262 . S
C290 O302 1.245 . S
O291 Zn278 1.985 . S
O291 C309 1.245 1_565 S
O292 Zn281 1.970 . S
O292 C309 1.263 . S
O293 Zn271 1.955 . S
O293 C312 1.276 . S
C294 O284 1.245 1_545 S
C294 O285 1.263 . S
O295 Zn264 1.955 1_455 S
O295 C314 1.276 . S
C296 O304 1.262 . S
C296 O305 1.245 . S
O297 C268 1.276 . S
O297 Zn274 1.955 . S
C298 O286 1.245 1_545 S
C298 O287 1.263 . S
O299 Zn278 1.955 . S
O299 C282 1.276 . S
C300 O307 1.262 . S
C300 O308 1.245 . S
O301 Zn265 1.945 1_455 S
O301 C290 1.262 . S
O302 Zn281 1.981 . S
O302 C290 1.245 . S
C303 O288 1.245 1_545 S
C303 O289 1.263 . S
O304 Zn270 1.945 . S
O304 C296 1.262 . S
O305 Zn276 1.981 1_455 S
O305 C296 1.245 . S
C306 O310 1.262 . S
C306 O311 1.245 . S
O307 Zn276 1.945 . S
O307 C300 1.262 . S
O308 Zn265 1.981 . S
O308 C300 1.245 . S
C309 O291 1.245 1_545 S
C309 O292 1.263 . S
O310 Zn281 1.945 . S
O310 C306 1.262 . S
O311 Zn270 1.981 . S
O311 C306 1.245 . S
C312 O293 1.276 . S
C312 O313 1.246 . S
O313 C312 1.246 . S
C314 O295 1.276 . S
C314 O315 1.246 . S
O315 C314 1.246 . S
Zn316 O318 1.933 . S
Zn316 O336 1.985 . S
Zn316 O347 1.955 . S
Zn317 O318 1.911 1_556 S
Zn317 O337 1.970 . S
Zn317 O353 1.945 . S
Zn317 O360 1.981 . S
O318 Zn316 1.933 . S
O318 Zn317 1.911 1_554 S
O318 H319 0.841 . S
H319 O318 0.841 . S
C320 O321 1.246 . S
C320 O349 1.276 . S
O321 C320 1.246 . S
Zn322 O324 1.911 1_556 S
Zn322 O339 1.970 . S
Zn322 O356 1.945 . S
Zn322 O363 1.981 . S
Zn323 O324 1.933 . S
Zn323 O338 1.985 . S
Zn323 O345 1.955 . S
O324 Zn322 1.911 1_554 S
O324 Zn323 1.933 . S
O324 H325 0.841 1_565 S
H325 O324 0.841 1_545 S
Zn326 O327 1.933 . S
Zn326 O340 1.985 . S
Zn326 O349 1.955 . S
O327 Zn326 1.933 . S
O327 Zn328 1.911 1_554 S
O327 H329 0.841 . S
Zn328 O327 1.911 1_556 S
Zn328 O341 1.970 . S
Zn328 O357 1.981 . S
Zn328 O359 1.945 . S
H329 O327 0.841 . S
Zn330 O331 1.933 . S
Zn330 O343 1.985 . S
Zn330 O351 1.955 . S
O331 Zn330 1.933 . S
O331 H332 0.841 . S
O331 Zn333 1.911 1_554 S
H332 O331 0.841 . S
Zn333 O331 1.911 1_556 S
Zn333 O344 1.970 . S
Zn333 O354 1.981 1_565 S
Zn333 O362 1.945 . S
C334 O335 1.246 . S
C334 O351 1.276 . S
O335 C334 1.246 . S
O336 Zn316 1.985 . S
O336 C346 1.245 . S
O337 Zn317 1.970 . S
O337 C346 1.263 1_556 S
O338 Zn323 1.985 . S
O338 C350 1.245 . S
O339 Zn322 1.970 . S
O339 C350 1.263 1_556 S
O340 Zn326 1.985 . S
O340 C355 1.245 . S
O341 Zn328 1.970 . S
O341 C355 1.263 1_556 S
C342 O353 1.262 . S
C342 O354 1.245 . S
O343 Zn330 1.985 . S
O343 C361 1.245 . S
O344 Zn333 1.970 . S
O344 C361 1.263 1_556 S
O345 Zn323 1.955 . S
O345 C364 1.276 1_565 S
C346 O336 1.245 . S
C346 O337 1.263 1_554 S
O347 Zn316 1.955 . S
O347 C366 1.276 . S
C348 O356 1.262 1_545 S
C348 O357 1.245 . S
O349 C320 1.276 . S
O349 Zn326 1.955 . S
C350 O338 1.245 . S
C350 O339 1.263 1_554 S
O351 Zn330 1.955 . S
O351 C334 1.276 . S
C352 O359 1.262 . S
C352 O360 1.245 . S
O353 Zn317 1.945 . S
O353 C342 1.262 . S
O354 Zn333 1.981 1_545 S
O354 C342 1.245 . S
C355 O340 1.245 . S
C355 O341 1.263 1_554 S
O356 Zn322 1.945 . S
O356 C348 1.262 1_565 S
O357 Zn328 1.981 . S
O357 C348 1.245 . S
C358 O362 1.262 . S
C358 O363 1.245 . S
O359 Zn328 1.945 . S
O359 C352 1.262 . S
O360 Zn317 1.981 . S
O360 C352 1.245 . S
C361 O343 1.245 . S
C361 O344 1.263 1_554 S
O362 Zn333 1.945 . S
O362 C358 1.262 . S
O363 Zn322 1.981 . S
O363 C358 1.245 . S
C364 O345 1.276 1_545 S
C364 O365 1.246 . S
O365 C364 1.246 . S
C366 O347 1.276 . S
C366 O367 1.246 . S
O367 C366 1.246 . S
Zn368 O370 1.933 . S
Zn368 O388 1.985 . S
Zn368 O399 1.955 . S
Zn369 O370 1.911 . S
Zn369 O389 1.970 . S
Zn369 O405 1.945 . S
Zn369 O412 1.981 . S
O370 Zn368 1.933 . S
O370 Zn369 1.911 . S
O370 H371 0.841 1_655 S
H371 O370 0.841 1_455 S
C372 O373 1.246 1_554 S
C372 O401 1.276 . S
O373 C372 1.246 1_556 S
Zn374 O376 1.911 . S
Zn374 O391 1.970 . S
Zn374 O408 1.945 . S
Zn374 O415 1.981 . S
Zn375 O376 1.933 . S
Zn375 O390 1.985 . S
Zn375 O397 1.955 . S
O376 Zn374 1.911 . S
O376 Zn375 1.933 . S
O376 H377 0.841 . S
H377 O376 0.841 . S
Zn378 O379 1.933 . S
Zn378 O392 1.985 . S
Zn378 O401 1.955 . S
O379 Zn378 1.933 . S
O379 Zn380 1.911 . S
O379 H381 0.841 . S
Zn380 O379 1.911 . S
Zn380 O393 1.970 . S
Zn380 O409 1.981 . S
Zn380 O411 1.945 . S
H381 O379 0.841 . S
Zn382 O383 1.933 . S
Zn382 O395 1.985 . S
Zn382 O403 1.955 . S
O383 Zn382 1.933 . S
O383 H384 0.841 . S
O383 Zn385 1.911 . S
H384 O383 0.841 . S
Zn385 O383 1.911 . S
Zn385 O396 1.970 . S
Zn385 O406 1.981 . S
Zn385 O414 1.945 . S
C386 O387 1.246 . S
C386 O403 1.276 1_554 S
O387 C386 1.246 . S
O388 Zn368 1.985 . S
O388 C398 1.245 . S
O389 Zn369 1.970 . S
O389 C398 1.263 . S
O390 Zn375 1.985 . S
O390 C402 1.245 . S
O391 Zn374 1.970 . S
O391 C402 1.263 . S
O392 Zn378 1.985 . S
O392 C407 1.245 . S
O393 Zn380 1.970 . S
O393 C407 1.263 . S
C394 O405 1.262 1_455 S
C394 O406 1.245 . S
O395 Zn382 1.985 . S
O395 C413 1.245 . S
O396 Zn385 1.970 . S
O396 C413 1.263 . S
O397 Zn375 1.955 . S
O397 C416 1.276 . S
C398 O388 1.245 . S
C398 O389 1.263 . S
O399 Zn368 1.955 . S
O399 C418 1.276 1_655 S
C400 O408 1.262 . S
C400 O409 1.245 1_455 S
O401 C372 1.276 . S
O401 Zn378 1.955 . S
C402 O390 1.245 . S
C402 O391 1.263 . S
O403 Zn382 1.955 . S
O403 C386 1.276 1_556 S
C404 O411 1.262 . S
C404 O412 1.245 1_554 S
O405 Zn369 1.945 . S
O405 C394 1.262 1_655 S
O406 Zn385 1.981 . S
O406 C394 1.245 . S
C407 O392 1.245 . S
C407 O393 1.263 . S
O408 Zn374 1.945 . S
O408 C400 1.262 . S
O409 Zn380 1.981 . S
O409 C400 1.245 1_655 S
C410 O414 1.262 1_554 S
C410 O415 1.245 . S
O411 Zn380 1.945 . S
O411 C404 1.262 . S
O412 Zn369 1.981 . S
O412 C404 1.245 1_556 S
C413 O395 1.245 . S
C413 O396 1.263 . S
O414 Zn385 1.945 . S
O414 C410 1.262 1_556 S
O415 Zn374 1.981 . S
O415 C410 1.245 . S
C416 O397 1.276 . S
C416 O417 1.246 1_455 S
O417 C416 1.246 1_655 S
C418 O399 1.276 1_455 S
C418 O419 1.246 . S
O419 C418 1.246 . S
Zn420 O422 1.933 1_556 S
Zn420 O440 1.985 . S
Zn420 O451 1.955 . S
Zn421 O422 1.911 . S
Zn421 O441 1.970 . S
Zn421 O457 1.945 . S
Zn421 O464 1.981 . S
O422 Zn420 1.933 1_554 S
O422 Zn421 1.911 . S
O422 H423 0.841 . S
H423 O422 0.841 . S
C424 O425 1.246 . S
C424 O453 1.276 . S
O425 C424 1.246 . S
Zn426 O428 1.911 . S
Zn426 O443 1.970 . S
Zn426 O460 1.945 . S
Zn426 O467 1.981 . S
Zn427 O428 1.933 1_556 S
Zn427 O442 1.985 . S
Zn427 O449 1.955 . S
O428 Zn426 1.911 . S
O428 Zn427 1.933 1_554 S
O428 H429 0.841 . S
H429 O428 0.841 . S
Zn430 O431 1.933 1_556 S
Zn430 O444 1.985 . S
Zn430 O453 1.955 . S
O431 Zn430 1.933 1_554 S
O431 Zn432 1.911 . S
O431 H433 0.841 . S
Zn432 O431 1.911 . S
Zn432 O445 1.970 . S
Zn432 O461 1.981 . S
Zn432 O463 1.945 . S
H433 O431 0.841 . S
Zn434 O435 1.933 1_556 S
Zn434 O447 1.985 . S
Zn434 O455 1.955 . S
O435 Zn434 1.933 1_554 S
O435 H436 0.841 . S
O435 Zn437 1.911 . S
H436 O435 0.841 . S
Zn437 O435 1.911 . S
Zn437 O448 1.970 . S
Zn437 O458 1.981 . S
Zn437 O466 1.945 . S
C438 O439 1.246 . S
C438 O455 1.276 . S
O439 C438 1.246 . S
O440 Zn420 1.985 . S
O440 C450 1.245 1_556 S
O441 Zn421 1.970 . S
O441 C450 1.263 . S
O442 Zn427 1.985 . S
O442 C454 1.245 1_556 S
O443 Zn426 1.970 . S
O443 C454 1.263 . S
O444 Zn430 1.985 . S
O444 C459 1.245 1_556 S
O445 Zn432 1.970 . S
O445 C459 1.263 . S
C446 O457 1.262 . S
C446 O458 1.245 . S
O447 Zn434 1.985 . S
O447 C465 1.245 1_556 S
O448 Zn437 1.970 . S
O448 C465 1.263 . S
O449 Zn427 1.955 . S
O449 C468 1.276 . S
C450 O440 1.245 1_554 S
C450 O441 1.263 . S
O451 Zn420 1.955 . S
O451 C470 1.276 . S
C452 O460 1.262 . S
C452 O461 1.245 . S
O453 C424 1.276 . S
O453 Zn430 1.955 . S
C454 O442 1.245 1_554 S
C454 O443 1.263 . S
O455 Zn434 1.955 . S
O455 C438 1.276 . S
C456 O463 1.262 . S
C456 O464 1.245 . S
O457 Zn421 1.945 . S
O457 C446 1.262 . S
O458 Zn437 1.981 . S
O458 C446 1.245 . S
C459 O444 1.245 1_554 S
C459 O445 1.263 . S
O460 Zn426 1.945 . S
O460 C452 1.262 . S
O461 Zn432 1.981 . S
O461 C452 1.245 . S
C462 O466 1.262 . S
C462 O467 1.245 . S
O463 Zn432 1.945 . S
O463 C456 1.262 . S
O464 Zn421 1.981 . S
O464 C456 1.245 . S
C465 O447 1.245 1_554 S
C465 O448 1.263 . S
O466 Zn437 1.945 . S
O466 C462 1.262 . S
O467 Zn426 1.981 . S
O467 C462 1.245 . S
C468 O449 1.276 . S
C468 O469 1.246 . S
O469 C468 1.246 . S
C470 O451 1.276 . S
C470 O471 1.246 . S
O471 C470 1.246 . S
Zn472 O474 1.933 . S
Zn472 O492 1.985 . S
Zn472 O503 1.966 . S
Zn473 O474 1.911 . S
Zn473 O493 1.970 . S
Zn473 O509 1.945 . S
Zn473 O516 1.981 . S
O474 Zn472 1.933 . S
O474 Zn473 1.911 . S
O474 H475 0.841 1_655 S
H475 O474 0.841 1_455 S
C476 O477 1.246 . S
C476 O505 1.276 . S
O477 C476 1.246 . S
Zn478 O480 1.911 . S
Zn478 O495 1.970 . S
Zn478 O512 1.945 . S
Zn478 O519 1.981 . S
Zn479 O480 1.933 . S
Zn479 O494 1.985 . S
Zn479 O501 1.955 . S
O480 Zn478 1.911 . S
O480 Zn479 1.933 . S
O480 H481 0.841 . S
H481 O480 0.841 . S
Zn482 O483 1.933 . S
Zn482 O496 1.985 . S
Zn482 O505 1.955 . S
O483 Zn482 1.933 . S
O483 Zn484 1.911 . S
O483 H485 0.841 . S
Zn484 O483 1.911 . S
Zn484 O497 1.970 . S
Zn484 O513 1.981 1_655 S
Zn484 O515 1.945 . S
H485 O483 0.841 . S
Zn486 O487 1.933 . S
Zn486 O499 1.985 . S
Zn486 O507 1.955 . S
O487 Zn486 1.933 . S
O487 H488 0.841 . S
O487 Zn489 1.911 . S
H488 O487 0.841 . S
Zn489 O487 1.911 . S
Zn489 O500 1.970 . S
Zn489 O510 1.981 . S
Zn489 O518 1.945 . S
C490 O491 1.246 . S
C490 O507 1.276 . S
O491 C490 1.246 . S
O492 Zn472 1.985 . S
O492 C502 1.245 . S
O493 Zn473 1.970 . S
O493 C502 1.263 . S
O494 Zn479 1.985 . S
O494 C506 1.245 . S
O495 Zn478 1.970 . S
O495 C506 1.263 . S
O496 Zn482 1.985 . S
O496 C511 1.245 . S
O497 Zn484 1.970 . S
O497 C511 1.263 . S
C498 O509 1.262 1_455 S
C498 O510 1.245 . S
O499 Zn486 1.985 . S
O499 C517 1.245 . S
O500 Zn489 1.970 . S
O500 C517 1.263 . S
O501 Zn479 1.955 . S
O501 C520 1.276 . S
C502 O492 1.245 . S
C502 O493 1.263 . S
O503 Zn472 1.966 . S
O503 C522 1.241 1_655 S
C504 O512 1.262 . S
C504 O513 1.245 . S
O505 C476 1.276 . S
O505 Zn482 1.955 . S
C506 O494 1.245 . S
C506 O495 1.263 . S
O507 Zn486 1.955 . S
O507 C490 1.276 . S
C508 O515 1.262 . S
C508 O516 1.245 . S
O509 Zn473 1.945 . S
O509 C498 1.262 1_655 S
O510 Zn489 1.981 . S
O510 C498 1.245 . S
C511 O496 1.245 . S
C511 O497 1.263 . S
O512 Zn478 1.945 . S
O512 C504 1.262 . S
O513 Zn484 1.981 1_455 S
O513 C504 1.245 . S
C514 O518 1.262 . S
C514 O519 1.245 . S
O515 Zn484 1.945 . S
O515 C508 1.262 . S
O516 Zn473 1.981 . S
O516 C508 1.245 . S
C517 O499 1.245 . S
C517 O500 1.263 . S
O518 Zn489 1.945 . S
O518 C514 1.262 . S
O519 Zn478 1.981 . S
O519 C514 1.245 . S
C520 O501 1.276 . S
C520 O521 1.246 . S
O521 C520 1.246 . S
C522 O503 1.241 1_455 S
C522 O523 1.246 . S
O523 C522 1.246 . S
Zn524 O526 1.933 1_565 S
Zn524 O544 1.985 . S
Zn524 O555 1.955 . S
Zn525 O526 1.911 . S
Zn525 O545 1.970 . S
Zn525 O561 1.945 . S
Zn525 O568 1.981 . S
O526 Zn524 1.933 1_545 S
O526 Zn525 1.911 . S
O526 H527 0.841 . S
H527 O526 0.841 . S
C528 O529 1.246 . S
C528 O557 1.276 . S
O529 C528 1.246 . S
Zn530 O532 1.911 . S
Zn530 O547 1.970 . S
Zn530 O564 1.945 . S
Zn530 O571 1.981 . S
Zn531 O532 1.933 1_565 S
Zn531 O546 1.985 . S
Zn531 O553 1.955 . S
O532 Zn530 1.911 . S
O532 Zn531 1.933 1_545 S
O532 H533 0.841 . S
H533 O532 0.841 . S
Zn534 O535 1.933 1_565 S
Zn534 O548 1.985 . S
Zn534 O557 1.955 . S
O535 Zn534 1.933 1_545 S
O535 Zn536 1.911 . S
O535 H537 0.841 . S
Zn536 O535 1.911 . S
Zn536 O549 1.970 . S
Zn536 O565 1.981 . S
Zn536 O567 1.945 . S
H537 O535 0.841 . S
Zn538 O539 1.933 1_565 S
Zn538 O551 1.986 . S
Zn538 O559 1.955 . S
O539 Zn538 1.933 1_545 S
O539 H540 0.841 . S
O539 Zn541 1.911 . S
H540 O539 0.841 . S
Zn541 O539 1.911 . S
Zn541 O552 1.970 . S
Zn541 O562 1.981 . S
Zn541 O570 1.945 . S
C542 O543 1.246 . S
C542 O559 1.276 . S
O543 C542 1.246 . S
O544 Zn524 1.985 . S
O544 C554 1.245 1_565 S
O545 Zn525 1.970 . S
O545 C554 1.263 . S
O546 Zn531 1.985 . S
O546 C558 1.245 1_565 S
O547 Zn530 1.970 . S
O547 C558 1.263 . S
O548 Zn534 1.985 . S
O548 C563 1.245 1_565 S
O549 Zn536 1.970 . S
O549 C563 1.263 . S
C550 O561 1.262 . S
C550 O562 1.245 . S
O551 Zn538 1.986 . S
O551 C569 1.241 1_565 S
O552 Zn541 1.970 . S
O552 C569 1.263 . S
O553 Zn531 1.955 . S
O553 C572 1.276 . S
C554 O544 1.245 1_545 S
C554 O545 1.263 . S
O555 Zn524 1.955 . S
O555 C574 1.276 . S
C556 O564 1.262 . S
C556 O565 1.245 . S
O557 C528 1.276 . S
O557 Zn534 1.955 . S
C558 O546 1.245 1_545 S
C558 O547 1.263 . S
O559 Zn538 1.955 . S
O559 C542 1.276 . S
C560 O567 1.262 . S
C560 O568 1.245 . S
O561 Zn525 1.945 . S
O561 C550 1.262 . S
O562 Zn541 1.981 . S
O562 C550 1.245 . S
C563 O548 1.245 1_545 S
C563 O549 1.263 . S
O564 Zn530 1.945 . S
O564 C556 1.262 . S
O565 Zn536 1.981 . S
O565 C556 1.245 . S
C566 O570 1.262 . S
C566 O571 1.245 . S
O567 Zn536 1.945 . S
O567 C560 1.262 . S
O568 Zn525 1.981 . S
O568 C560 1.245 . S
C569 O551 1.241 1_545 S
C569 O552 1.263 . S
O570 Zn541 1.945 . S
O570 C566 1.262 . S
O571 Zn530 1.981 . S
O571 C566 1.245 . S
C572 O553 1.276 . S
C572 O573 1.246 . S
O573 C572 1.246 . S
C574 O555 1.276 . S
C574 O575 1.246 . S
O575 C574 1.246 . S
C576 C577 1.391 . S
C576 C578 1.394 . S
C576 H592 0.931 . S
C577 C576 1.391 . S
C577 C581 1.376 . S
C578 C576 1.394 . S
C578 C579 1.369 . S
C578 C582 1.531 . S
C579 C578 1.369 . S
C579 C580 1.410 . S
C579 C587 1.503 . S
C580 C579 1.410 . S
C580 C581 1.392 . S
C580 C583 1.511 . S
C581 C577 1.376 . S
C581 C580 1.392 . S
C581 H593 0.929 . S
C582 C578 1.531 . S
C582 H594 0.960 . S
C582 H595 0.962 . S
C582 H596 0.960 . S
C583 C580 1.511 . S
C583 H597 0.961 . S
C583 H598 0.961 . S
C583 H599 0.961 . S
C584 C585 1.370 . S
C584 C586 1.363 . S
C584 H600 0.931 . S
C585 C584 1.370 . S
C585 C589 1.408 . S
C586 C584 1.363 . S
C586 C587 1.370 . S
C586 C590 1.524 . S
C587 C579 1.503 . S
C587 C586 1.370 . S
C587 C588 1.403 . S
C588 C587 1.403 . S
C588 C589 1.404 . S
C588 C591 1.539 . S
C589 C585 1.408 . S
C589 C588 1.404 . S
C589 H601 0.930 . S
C590 C586 1.524 . S
C590 H602 0.956 . S
C590 H603 0.961 . S
C590 H604 0.961 . S
C591 C588 1.539 . S
C591 H605 0.958 . S
C591 H606 0.961 . S
C591 H607 0.960 . S
H592 C576 0.931 . S
H593 C581 0.929 . S
H594 C582 0.960 . S
H595 C582 0.962 . S
H596 C582 0.960 . S
H597 C583 0.961 . S
H598 C583 0.961 . S
H599 C583 0.961 . S
H600 C584 0.931 . S
H601 C589 0.930 . S
H602 C590 0.956 . S
H603 C590 0.961 . S
H604 C590 0.961 . S
H605 C591 0.958 . S
H606 C591 0.961 . S
H607 C591 0.960 . S
C608 C609 1.391 . S
C608 C610 1.394 . S
C608 H624 0.931 . S
C609 C608 1.391 . S
C609 C613 1.376 . S
C610 C608 1.394 . S
C610 C611 1.369 . S
C610 C614 1.531 . S
C611 C610 1.369 . S
C611 C612 1.410 . S
C611 C619 1.503 . S
C612 C611 1.410 . S
C612 C613 1.392 . S
C612 C615 1.511 . S
C613 C609 1.376 . S
C613 C612 1.392 . S
C613 H625 0.929 . S
C614 C610 1.531 . S
C614 H626 0.960 . S
C614 H627 0.962 . S
C614 H628 0.960 . S
C615 C612 1.511 . S
C615 H629 0.961 . S
C615 H630 0.961 . S
C615 H631 0.961 . S
C616 C617 1.370 . S
C616 C618 1.363 . S
C616 H632 0.931 . S
C617 C616 1.370 . S
C617 C621 1.408 . S
C618 C616 1.363 . S
C618 C619 1.370 . S
C618 C622 1.524 . S
C619 C611 1.503 . S
C619 C618 1.370 . S
C619 C620 1.403 . S
C620 C619 1.403 . S
C620 C621 1.404 . S
C620 C623 1.539 . S
C621 C617 1.408 . S
C621 C620 1.404 . S
C621 H633 0.930 . S
C622 C618 1.524 . S
C622 H634 0.956 . S
C622 H635 0.961 . S
C622 H636 0.961 . S
C623 C620 1.539 . S
C623 H637 0.958 . S
C623 H638 0.961 . S
C623 H639 0.960 . S
H624 C608 0.931 . S
H625 C613 0.929 . S
H626 C614 0.960 . S
H627 C614 0.962 . S
H628 C614 0.960 . S
H629 C615 0.961 . S
H630 C615 0.961 . S
H631 C615 0.961 . S
H632 C616 0.931 . S
H633 C621 0.930 . S
H634 C622 0.956 . S
H635 C622 0.961 . S
H636 C622 0.961 . S
H637 C623 0.958 . S
H638 C623 0.961 . S
H639 C623 0.960 . S
C640 C641 1.391 . S
C640 C642 1.394 . S
C640 H656 0.931 . S
C641 C640 1.391 . S
C641 C645 1.376 . S
C642 C640 1.394 . S
C642 C643 1.369 . S
C642 C646 1.531 . S
C643 C642 1.369 . S
C643 C644 1.410 . S
C643 C651 1.503 . S
C644 C643 1.410 . S
C644 C645 1.392 . S
C644 C647 1.511 . S
C645 C641 1.376 . S
C645 C644 1.392 . S
C645 H657 0.929 . S
C646 C642 1.531 . S
C646 H658 0.960 . S
C646 H659 0.962 . S
C646 H660 0.960 . S
C647 C644 1.511 . S
C647 H661 0.961 . S
C647 H662 0.961 . S
C647 H663 0.961 . S
C648 C649 1.370 . S
C648 C650 1.363 . S
C648 H664 0.931 . S
C649 C648 1.370 . S
C649 C653 1.408 . S
C650 C648 1.363 . S
C650 C651 1.370 . S
C650 C654 1.524 . S
C651 C643 1.503 . S
C651 C650 1.370 . S
C651 C652 1.403 . S
C652 C651 1.403 . S
C652 C653 1.404 . S
C652 C655 1.539 . S
C653 C649 1.408 . S
C653 C652 1.404 . S
C653 H665 0.930 . S
C654 C650 1.524 . S
C654 H666 0.956 . S
C654 H667 0.961 . S
C654 H668 0.961 . S
C655 C652 1.539 . S
C655 H669 0.958 . S
C655 H670 0.961 . S
C655 H671 0.960 . S
H656 C640 0.931 . S
H657 C645 0.929 . S
H658 C646 0.960 . S
H659 C646 0.962 . S
H660 C646 0.960 . S
H661 C647 0.961 . S
H662 C647 0.961 . S
H663 C647 0.961 . S
H664 C648 0.931 . S
H665 C653 0.930 . S
H666 C654 0.956 . S
H667 C654 0.961 . S
H668 C654 0.961 . S
H669 C655 0.958 . S
H670 C655 0.961 . S
H671 C655 0.960 . S
C672 C673 1.391 . S
C672 C674 1.394 . S
C672 H688 0.931 . S
C673 C672 1.391 . S
C673 C677 1.376 . S
C674 C672 1.394 . S
C674 C675 1.369 . S
C674 C678 1.531 . S
C675 C674 1.369 . S
C675 C676 1.410 . S
C675 C683 1.503 . S
C676 C675 1.410 . S
C676 C677 1.392 . S
C676 C679 1.511 . S
C677 C673 1.376 . S
C677 C676 1.392 . S
C677 H689 0.929 . S
C678 C674 1.531 . S
C678 H690 0.960 . S
C678 H691 0.962 . S
C678 H692 0.960 . S
C679 C676 1.511 . S
C679 H693 0.961 . S
C679 H694 0.961 . S
C679 H695 0.961 . S
C680 C681 1.370 . S
C680 C682 1.363 . S
C680 H696 0.931 . S
C681 C680 1.370 . S
C681 C685 1.408 . S
C682 C680 1.363 . S
C682 C683 1.370 . S
C682 C686 1.524 . S
C683 C675 1.503 . S
C683 C682 1.370 . S
C683 C684 1.403 . S
C684 C683 1.403 . S
C684 C685 1.404 . S
C684 C687 1.539 . S
C685 C681 1.408 . S
C685 C684 1.404 . S
C685 H697 0.930 . S
C686 C682 1.524 . S
C686 H698 0.956 . S
C686 H699 0.961 . S
C686 H700 0.961 . S
C687 C684 1.539 . S
C687 H701 0.958 . S
C687 H702 0.961 . S
C687 H703 0.960 . S
H688 C672 0.931 . S
H689 C677 0.929 . S
H690 C678 0.960 . S
H691 C678 0.962 . S
H692 C678 0.960 . S
H693 C679 0.961 . S
H694 C679 0.961 . S
H695 C679 0.961 . S
H696 C680 0.931 . S
H697 C685 0.930 . S
H698 C686 0.956 . S
H699 C686 0.961 . S
H700 C686 0.961 . S
H701 C687 0.958 . S
H702 C687 0.961 . S
H703 C687 0.960 . S
C704 C705 1.391 . S
C704 C706 1.394 . S
C704 H720 0.931 . S
C705 C704 1.391 . S
C705 C709 1.376 . S
C706 C704 1.394 . S
C706 C707 1.369 . S
C706 C710 1.531 . S
C707 C706 1.369 . S
C707 C708 1.410 . S
C707 C715 1.503 . S
C708 C707 1.410 . S
C708 C709 1.392 . S
C708 C711 1.511 . S
C709 C705 1.376 . S
C709 C708 1.392 . S
C709 H721 0.929 . S
C710 C706 1.531 . S
C710 H722 0.960 . S
C710 H723 0.962 . S
C710 H724 0.960 . S
C711 C708 1.511 . S
C711 H725 0.961 . S
C711 H726 0.961 . S
C711 H727 0.961 . S
C712 C713 1.370 . S
C712 C714 1.363 . S
C712 H728 0.931 . S
C713 C712 1.370 . S
C713 C717 1.408 . S
C714 C712 1.363 . S
C714 C715 1.370 . S
C714 C718 1.524 . S
C715 C707 1.503 . S
C715 C714 1.370 . S
C715 C716 1.403 . S
C716 C715 1.403 . S
C716 C717 1.404 . S
C716 C719 1.539 . S
C717 C713 1.408 . S
C717 C716 1.404 . S
C717 H729 0.930 . S
C718 C714 1.524 . S
C718 H730 0.956 . S
C718 H731 0.961 . S
C718 H732 0.961 . S
C719 C716 1.539 . S
C719 H733 0.958 . S
C719 H734 0.961 . S
C719 H735 0.960 . S
H720 C704 0.931 . S
H721 C709 0.929 . S
H722 C710 0.960 . S
H723 C710 0.962 . S
H724 C710 0.960 . S
H725 C711 0.961 . S
H726 C711 0.961 . S
H727 C711 0.961 . S
H728 C712 0.931 . S
H729 C717 0.930 . S
H730 C718 0.956 . S
H731 C718 0.961 . S
H732 C718 0.961 . S
H733 C719 0.958 . S
H734 C719 0.961 . S
H735 C719 0.960 . S
C736 C737 1.391 . S
C736 C738 1.394 . S
C736 H752 0.931 . S
C737 C736 1.391 . S
C737 C741 1.376 . S
C738 C736 1.394 . S
C738 C739 1.369 . S
C738 C742 1.531 . S
C739 C738 1.369 . S
C739 C740 1.410 . S
C739 C747 1.503 . S
C740 C739 1.410 . S
C740 C741 1.392 . S
C740 C743 1.511 . S
C741 C737 1.376 . S
C741 C740 1.392 . S
C741 H753 0.929 . S
C742 C738 1.531 . S
C742 H754 0.960 . S
C742 H755 0.962 . S
C742 H756 0.960 . S
C743 C740 1.511 . S
C743 H757 0.961 . S
C743 H758 0.961 . S
C743 H759 0.961 . S
C744 C745 1.370 . S
C744 C746 1.363 . S
C744 H760 0.931 . S
C745 C744 1.370 . S
C745 C749 1.408 . S
C746 C744 1.363 . S
C746 C747 1.370 . S
C746 C750 1.524 . S
C747 C739 1.503 . S
C747 C746 1.370 . S
C747 C748 1.403 . S
C748 C747 1.403 . S
C748 C749 1.404 . S
C748 C751 1.539 . S
C749 C745 1.408 . S
C749 C748 1.404 . S
C749 H761 0.930 . S
C750 C746 1.524 . S
C750 H762 0.956 . S
C750 H763 0.961 . S
C750 H764 0.961 . S
C751 C748 1.539 . S
C751 H765 0.958 . S
C751 H766 0.961 . S
C751 H767 0.960 . S
H752 C736 0.931 . S
H753 C741 0.929 . S
H754 C742 0.960 . S
H755 C742 0.962 . S
H756 C742 0.960 . S
H757 C743 0.961 . S
H758 C743 0.961 . S
H759 C743 0.961 . S
H760 C744 0.931 . S
H761 C749 0.930 . S
H762 C750 0.956 . S
H763 C750 0.961 . S
H764 C750 0.961 . S
H765 C751 0.958 . S
H766 C751 0.961 . S
H767 C751 0.960 . S
C768 C769 1.391 . S
C768 C770 1.394 . S
C768 H784 0.931 . S
C769 C768 1.391 . S
C769 C773 1.376 . S
C770 C768 1.394 . S
C770 C771 1.369 . S
C770 C774 1.531 . S
C771 C770 1.369 . S
C771 C772 1.410 . S
C771 C779 1.503 . S
C772 C771 1.410 . S
C772 C773 1.392 . S
C772 C775 1.511 . S
C773 C769 1.376 . S
C773 C772 1.392 . S
C773 H785 0.929 . S
C774 C770 1.531 . S
C774 H786 0.960 . S
C774 H787 0.962 . S
C774 H788 0.960 . S
C775 C772 1.511 . S
C775 H789 0.961 . S
C775 H790 0.961 . S
C775 H791 0.961 . S
C776 C777 1.370 . S
C776 C778 1.363 . S
C776 H792 0.931 . S
C777 C776 1.370 . S
C777 C781 1.408 . S
C778 C776 1.363 . S
C778 C779 1.370 . S
C778 C782 1.524 . S
C779 C771 1.503 . S
C779 C778 1.370 . S
C779 C780 1.403 . S
C780 C779 1.403 . S
C780 C781 1.404 . S
C780 C783 1.539 . S
C781 C777 1.408 . S
C781 C780 1.404 . S
C781 H793 0.930 . S
C782 C778 1.524 . S
C782 H794 0.956 . S
C782 H795 0.961 . S
C782 H796 0.961 . S
C783 C780 1.539 . S
C783 H797 0.958 . S
C783 H798 0.961 . S
C783 H799 0.960 . S
H784 C768 0.931 . S
H785 C773 0.929 . S
H786 C774 0.960 . S
H787 C774 0.962 . S
H788 C774 0.960 . S
H789 C775 0.961 . S
H790 C775 0.961 . S
H791 C775 0.961 . S
H792 C776 0.931 . S
H793 C781 0.930 . S
H794 C782 0.956 . S
H795 C782 0.961 . S
H796 C782 0.961 . S
H797 C783 0.958 . S
H798 C783 0.961 . S
H799 C783 0.960 . S
C800 C801 1.391 . S
C800 C802 1.394 . S
C800 H816 0.931 . S
C801 C800 1.391 . S
C801 C805 1.376 . S
C802 C800 1.394 . S
C802 C803 1.369 . S
C802 C806 1.531 . S
C803 C802 1.369 . S
C803 C804 1.410 . S
C803 C811 1.503 . S
C804 C803 1.410 . S
C804 C805 1.392 . S
C804 C807 1.511 . S
C805 C801 1.376 . S
C805 C804 1.392 . S
C805 H817 0.929 . S
C806 C802 1.531 . S
C806 H818 0.960 . S
C806 H819 0.962 . S
C806 H820 0.960 . S
C807 C804 1.511 . S
C807 H821 0.961 . S
C807 H822 0.961 . S
C807 H823 0.961 . S
C808 C809 1.370 . S
C808 C810 1.363 . S
C808 H824 0.931 . S
C809 C808 1.370 . S
C809 C813 1.408 . S
C810 C808 1.363 . S
C810 C811 1.370 . S
C810 C814 1.524 . S
C811 C803 1.503 . S
C811 C810 1.370 . S
C811 C812 1.403 . S
C812 C811 1.403 . S
C812 C813 1.404 . S
C812 C815 1.539 . S
C813 C809 1.408 . S
C813 C812 1.404 . S
C813 H825 0.930 . S
C814 C810 1.524 . S
C814 H826 0.956 . S
C814 H827 0.961 . S
C814 H828 0.961 . S
C815 C812 1.539 . S
C815 H829 0.958 . S
C815 H830 0.961 . S
C815 H831 0.960 . S
H816 C800 0.931 . S
H817 C805 0.929 . S
H818 C806 0.960 . S
H819 C806 0.962 . S
H820 C806 0.960 . S
H821 C807 0.961 . S
H822 C807 0.961 . S
H823 C807 0.961 . S
H824 C808 0.931 . S
H825 C813 0.930 . S
H826 C814 0.956 . S
H827 C814 0.961 . S
H828 C814 0.961 . S
H829 C815 0.958 . S
H830 C815 0.961 . S
H831 C815 0.960 . S
C832 C833 1.391 . S
C832 C834 1.394 . S
C832 H848 0.931 . S
C833 C832 1.391 . S
C833 C837 1.376 . S
C834 C832 1.394 . S
C834 C835 1.369 . S
C834 C838 1.531 . S
C835 C834 1.369 . S
C835 C836 1.410 . S
C835 C843 1.503 . S
C836 C835 1.410 . S
C836 C837 1.392 . S
C836 C839 1.511 . S
C837 C833 1.376 . S
C837 C836 1.392 . S
C837 H849 0.929 . S
C838 C834 1.531 . S
C838 H850 0.960 . S
C838 H851 0.962 . S
C838 H852 0.960 . S
C839 C836 1.511 . S
C839 H853 0.961 . S
C839 H854 0.961 . S
C839 H855 0.961 . S
C840 C841 1.370 . S
C840 C842 1.363 . S
C840 H856 0.931 . S
C841 C840 1.370 . S
C841 C845 1.408 . S
C842 C840 1.363 . S
C842 C843 1.370 . S
C842 C846 1.524 . S
C843 C835 1.503 . S
C843 C842 1.370 . S
C843 C844 1.403 . S
C844 C843 1.403 . S
C844 C845 1.404 . S
C844 C847 1.539 . S
C845 C841 1.408 . S
C845 C844 1.404 . S
C845 H857 0.930 . S
C846 C842 1.524 . S
C846 H858 0.956 . S
C846 H859 0.961 . S
C846 H860 0.961 . S
C847 C844 1.539 . S
C847 H861 0.958 . S
C847 H862 0.961 . S
C847 H863 0.960 . S
H848 C832 0.931 . S
H849 C837 0.929 . S
H850 C838 0.960 . S
H851 C838 0.962 . S
H852 C838 0.960 . S
H853 C839 0.961 . S
H854 C839 0.961 . S
H855 C839 0.961 . S
H856 C840 0.931 . S
H857 C845 0.930 . S
H858 C846 0.956 . S
H859 C846 0.961 . S
H860 C846 0.961 . S
H861 C847 0.958 . S
H862 C847 0.961 . S
H863 C847 0.960 . S
C864 C865 1.391 . S
C864 C866 1.394 . S
C864 H880 0.931 . S
C865 C864 1.391 . S
C865 C869 1.376 . S
C866 C864 1.394 . S
C866 C867 1.369 . S
C866 C870 1.531 . S
C867 C866 1.369 . S
C867 C868 1.410 . S
C867 C875 1.503 . S
C868 C867 1.410 . S
C868 C869 1.392 . S
C868 C871 1.511 . S
C869 C865 1.376 . S
C869 C868 1.392 . S
C869 H881 0.929 . S
C870 C866 1.531 . S
C870 H882 0.960 . S
C870 H883 0.962 . S
C870 H884 0.960 . S
C871 C868 1.511 . S
C871 H885 0.961 . S
C871 H886 0.961 . S
C871 H887 0.961 . S
C872 C873 1.370 . S
C872 C874 1.363 . S
C872 H888 0.931 . S
C873 C872 1.370 . S
C873 C877 1.408 . S
C874 C872 1.363 . S
C874 C875 1.370 . S
C874 C878 1.524 . S
C875 C867 1.503 . S
C875 C874 1.370 . S
C875 C876 1.403 . S
C876 C875 1.403 . S
C876 C877 1.404 . S
C876 C879 1.539 . S
C877 C873 1.408 . S
C877 C876 1.404 . S
C877 H889 0.930 . S
C878 C874 1.524 . S
C878 H890 0.956 . S
C878 H891 0.961 . S
C878 H892 0.961 . S
C879 C876 1.539 . S
C879 H893 0.958 . S
C879 H894 0.961 . S
C879 H895 0.960 . S
H880 C864 0.931 . S
H881 C869 0.929 . S
H882 C870 0.960 . S
H883 C870 0.962 . S
H884 C870 0.960 . S
H885 C871 0.961 . S
H886 C871 0.961 . S
H887 C871 0.961 . S
H888 C872 0.931 . S
H889 C877 0.930 . S
H890 C878 0.956 . S
H891 C878 0.961 . S
H892 C878 0.961 . S
H893 C879 0.958 . S
H894 C879 0.961 . S
H895 C879 0.960 . S
C896 C897 1.391 . S
C896 C898 1.394 . S
C896 H912 0.931 . S
C897 C896 1.391 . S
C897 C901 1.376 . S
C898 C896 1.394 . S
C898 C899 1.369 . S
C898 C902 1.531 . S
C899 C898 1.369 . S
C899 C900 1.410 . S
C899 C907 1.503 . S
C900 C899 1.410 . S
C900 C901 1.392 . S
C900 C903 1.511 . S
C901 C897 1.376 . S
C901 C900 1.392 . S
C901 H913 0.929 . S
C902 C898 1.531 . S
C902 H914 0.960 . S
C902 H915 0.962 . S
C902 H916 0.960 . S
C903 C900 1.511 . S
C903 H917 0.961 . S
C903 H918 0.961 . S
C903 H919 0.961 . S
C904 C905 1.370 . S
C904 C906 1.363 . S
C904 H920 0.931 . S
C905 C904 1.370 . S
C905 C909 1.408 . S
C906 C904 1.363 . S
C906 C907 1.370 . S
C906 C910 1.524 . S
C907 C899 1.503 . S
C907 C906 1.370 . S
C907 C908 1.403 . S
C908 C907 1.403 . S
C908 C909 1.404 . S
C908 C911 1.539 . S
C909 C905 1.408 . S
C909 C908 1.404 . S
C909 H921 0.930 . S
C910 C906 1.524 . S
C910 H922 0.956 . S
C910 H923 0.961 . S
C910 H924 0.961 . S
C911 C908 1.539 . S
C911 H925 0.958 . S
C911 H926 0.961 . S
C911 H927 0.960 . S
H912 C896 0.931 . S
H913 C901 0.929 . S
H914 C902 0.960 . S
H915 C902 0.962 . S
H916 C902 0.960 . S
H917 C903 0.961 . S
H918 C903 0.961 . S
H919 C903 0.961 . S
H920 C904 0.931 . S
H921 C909 0.930 . S
H922 C910 0.956 . S
H923 C910 0.961 . S
H924 C910 0.961 . S
H925 C911 0.958 . S
H926 C911 0.961 . S
H927 C911 0.960 . S
C928 C929 1.391 . S
C928 C930 1.394 . S
C928 H944 0.931 . S
C929 C928 1.391 . S
C929 C933 1.376 . S
C930 C928 1.394 . S
C930 C931 1.369 . S
C930 C934 1.531 . S
C931 C930 1.369 . S
C931 C932 1.410 . S
C931 C939 1.503 . S
C932 C931 1.410 . S
C932 C933 1.392 . S
C932 C935 1.511 . S
C933 C929 1.376 . S
C933 C932 1.392 . S
C933 H945 0.929 . S
C934 C930 1.531 . S
C934 H946 0.960 . S
C934 H947 0.962 . S
C934 H948 0.960 . S
C935 C932 1.511 . S
C935 H949 0.961 . S
C935 H950 0.961 . S
C935 H951 0.961 . S
C936 C937 1.370 . S
C936 C938 1.363 . S
C936 H952 0.931 . S
C937 C936 1.370 . S
C937 C941 1.408 . S
C938 C936 1.363 . S
C938 C939 1.370 . S
C938 C942 1.524 . S
C939 C931 1.503 . S
C939 C938 1.370 . S
C939 C940 1.403 . S
C940 C939 1.403 . S
C940 C941 1.404 . S
C940 C943 1.539 . S
C941 C937 1.408 . S
C941 C940 1.404 . S
C941 H953 0.930 . S
C942 C938 1.524 . S
C942 H954 0.956 . S
C942 H955 0.961 . S
C942 H956 0.961 . S
C943 C940 1.539 . S
C943 H957 0.958 . S
C943 H958 0.961 . S
C943 H959 0.960 . S
H944 C928 0.931 . S
H945 C933 0.929 . S
H946 C934 0.960 . S
H947 C934 0.962 . S
H948 C934 0.960 . S
H949 C935 0.961 . S
H950 C935 0.961 . S
H951 C935 0.961 . S
H952 C936 0.931 . S
H953 C941 0.930 . S
H954 C942 0.956 . S
H955 C942 0.961 . S
H956 C942 0.961 . S
H957 C943 0.958 . S
H958 C943 0.961 . S
H959 C943 0.960 . S
C960 C961 1.391 1_556 S
C960 C962 1.394 . S
C960 H976 0.931 . S
C961 C960 1.391 1_554 S
C961 C965 1.376 . S
C962 C960 1.394 . S
C962 C963 1.369 1_556 S
C962 C966 1.531 . S
C963 C962 1.369 1_554 S
C963 C964 1.410 . S
C963 C971 1.503 . S
C964 C963 1.410 . S
C964 C965 1.392 . S
C964 C967 1.511 . S
C965 C961 1.376 . S
C965 C964 1.392 . S
C965 H977 0.929 . S
C966 C962 1.531 . S
C966 H978 0.960 . S
C966 H979 0.962 . S
C966 H980 0.960 . S
C967 C964 1.511 . S
C967 H981 0.961 . S
C967 H982 0.961 . S
C967 H983 0.961 . S
C968 C969 1.370 1_556 S
C968 C970 1.363 . S
C968 H984 0.931 . S
C969 C968 1.370 1_554 S
C969 C973 1.408 . S
C970 C968 1.363 . S
C970 C971 1.370 1_556 S
C970 C974 1.524 . S
C971 C963 1.503 . S
C971 C970 1.370 1_554 S
C971 C972 1.403 . S
C972 C971 1.403 . S
C972 C973 1.404 . S
C972 C975 1.539 . S
C973 C969 1.408 . S
C973 C972 1.404 . S
C973 H985 0.930 . S
C974 C970 1.524 . S
C974 H986 0.956 . S
C974 H987 0.961 . S
C974 H988 0.961 . S
C975 C972 1.539 . S
C975 H989 0.958 . S
C975 H990 0.961 . S
C975 H991 0.960 . S
H976 C960 0.931 . S
H977 C965 0.929 . S
H978 C966 0.960 . S
H979 C966 0.962 . S
H980 C966 0.960 . S
H981 C967 0.961 . S
H982 C967 0.961 . S
H983 C967 0.961 . S
H984 C968 0.931 . S
H985 C973 0.930 . S
H986 C974 0.956 . S
H987 C974 0.961 . S
H988 C974 0.961 . S
H989 C975 0.958 . S
H990 C975 0.961 . S
H991 C975 0.960 . S
C992 C993 1.391 . S
C992 C994 1.394 . S
C992 H1008 0.931 . S
C993 C992 1.391 . S
C993 C997 1.376 1_554 S
C994 C992 1.394 . S
C994 C995 1.369 . S
C994 C998 1.531 . S
C995 C994 1.369 . S
C995 C996 1.410 1_554 S
C995 C1003 1.503 . S
C996 C995 1.410 1_556 S
C996 C997 1.392 . S
C996 C999 1.511 . S
C997 C993 1.376 1_556 S
C997 C996 1.392 . S
C997 H1009 0.929 . S
C998 C994 1.531 . S
C998 H1010 0.960 . S
C998 H1011 0.962 . S
C998 H1012 0.960 . S
C999 C996 1.511 . S
C999 H1013 0.961 . S
C999 H1014 0.961 . S
C999 H1015 0.961 . S
C1000 C1001 1.370 1_556 S
C1000 C1002 1.363 . S
C1000 H1016 0.931 . S
C1001 C1000 1.370 1_554 S
C1001 C1005 1.408 . S
C1002 C1000 1.363 . S
C1002 C1003 1.370 1_556 S
C1002 C1006 1.524 . S
C1003 C995 1.503 . S
C1003 C1002 1.370 1_554 S
C1003 C1004 1.403 . S
C1004 C1003 1.403 . S
C1004 C1005 1.404 . S
C1004 C1007 1.539 . S
C1005 C1001 1.408 . S
C1005 C1004 1.404 . S
C1005 H1017 0.930 . S
C1006 C1002 1.524 . S
C1006 H1018 0.956 . S
C1006 H1019 0.961 . S
C1006 H1020 0.961 . S
C1007 C1004 1.539 . S
C1007 H1021 0.958 . S
C1007 H1022 0.961 . S
C1007 H1023 0.960 . S
H1008 C992 0.931 . S
H1009 C997 0.929 . S
H1010 C998 0.960 . S
H1011 C998 0.962 . S
H1012 C998 0.960 . S
H1013 C999 0.961 . S
H1014 C999 0.961 . S
H1015 C999 0.961 . S
H1016 C1000 0.931 . S
H1017 C1005 0.930 . S
H1018 C1006 0.956 . S
H1019 C1006 0.961 . S
H1020 C1006 0.961 . S
H1021 C1007 0.958 . S
H1022 C1007 0.961 . S
H1023 C1007 0.960 . S
C1024 C1025 1.391 . S
C1024 C1026 1.394 . S
C1024 H1040 0.931 . S
C1025 C1024 1.391 . S
C1025 C1029 1.376 . S
C1026 C1024 1.394 . S
C1026 C1027 1.369 . S
C1026 C1030 1.531 1_554 S
C1027 C1026 1.369 . S
C1027 C1028 1.410 . S
C1027 C1035 1.503 . S
C1028 C1027 1.410 . S
C1028 C1029 1.392 . S
C1028 C1031 1.511 . S
C1029 C1025 1.376 . S
C1029 C1028 1.392 . S
C1029 H1041 0.929 . S
C1030 C1026 1.531 1_556 S
C1030 H1042 0.960 . S
C1030 H1043 0.962 1_556 S
C1030 H1044 0.960 . S
C1031 C1028 1.511 . S
C1031 H1045 0.961 . S
C1031 H1046 0.961 . S
C1031 H1047 0.961 1_554 S
C1032 C1033 1.370 . S
C1032 C1034 1.363 . S
C1032 H1048 0.931 . S
C1033 C1032 1.370 . S
C1033 C1037 1.408 1_554 S
C1034 C1032 1.363 . S
C1034 C1035 1.370 . S
C1034 C1038 1.524 . S
C1035 C1027 1.503 . S
C1035 C1034 1.370 . S
C1035 C1036 1.403 1_554 S
C1036 C1035 1.403 1_556 S
C1036 C1037 1.404 . S
C1036 C1039 1.539 . S
C1037 C1033 1.408 1_556 S
C1037 C1036 1.404 . S
C1037 H1049 0.930 . S
C1038 C1034 1.524 . S
C1038 H1050 0.956 . S
C1038 H1051 0.961 . S
C1038 H1052 0.961 . S
C1039 C1036 1.539 . S
C1039 H1053 0.958 . S
C1039 H1054 0.961 . S
C1039 H1055 0.960 . S
H1040 C1024 0.931 . S
H1041 C1029 0.929 . S
H1042 C1030 0.960 . S
H1043 C1030 0.962 1_554 S
H1044 C1030 0.960 . S
H1045 C1031 0.961 . S
H1046 C1031 0.961 . S
H1047 C1031 0.961 1_556 S
H1048 C1032 0.931 . S
H1049 C1037 0.930 . S
H1050 C1038 0.956 . S
H1051 C1038 0.961 . S
H1052 C1038 0.961 . S
H1053 C1039 0.958 . S
H1054 C1039 0.961 . S
H1055 C1039 0.960 . S
C1056 C1057 1.391 . S
C1056 C1058 1.394 . S
C1056 H1072 0.931 . S
C1057 C1056 1.391 . S
C1057 C1061 1.376 1_554 S
C1058 C1056 1.394 . S
C1058 C1059 1.369 . S
C1058 C1062 1.531 . S
C1059 C1058 1.369 . S
C1059 C1060 1.410 1_554 S
C1059 C1067 1.503 . S
C1060 C1059 1.410 1_556 S
C1060 C1061 1.392 . S
C1060 C1063 1.511 . S
C1061 C1057 1.376 1_556 S
C1061 C1060 1.392 . S
C1061 H1073 0.929 . S
C1062 C1058 1.531 . S
C1062 H1074 0.960 . S
C1062 H1075 0.962 . S
C1062 H1076 0.960 . S
C1063 C1060 1.511 . S
C1063 H1077 0.961 . S
C1063 H1078 0.961 . S
C1063 H1079 0.961 . S
C1064 C1065 1.370 1_556 S
C1064 C1066 1.363 . S
C1064 H1080 0.931 . S
C1065 C1064 1.370 1_554 S
C1065 C1069 1.408 . S
C1066 C1064 1.363 . S
C1066 C1067 1.370 1_556 S
C1066 C1070 1.524 . S
C1067 C1059 1.503 . S
C1067 C1066 1.370 1_554 S
C1067 C1068 1.403 . S
C1068 C1067 1.403 . S
C1068 C1069 1.404 . S
C1068 C1071 1.539 . S
C1069 C1065 1.408 . S
C1069 C1068 1.404 . S
C1069 H1081 0.930 . S
C1070 C1066 1.524 . S
C1070 H1082 0.956 . S
C1070 H1083 0.961 . S
C1070 H1084 0.961 . S
C1071 C1068 1.539 . S
C1071 H1085 0.958 . S
C1071 H1086 0.961 . S
C1071 H1087 0.960 . S
H1072 C1056 0.931 . S
H1073 C1061 0.929 . S
H1074 C1062 0.960 . S
H1075 C1062 0.962 . S
H1076 C1062 0.960 . S
H1077 C1063 0.961 . S
H1078 C1063 0.961 . S
H1079 C1063 0.961 . S
H1080 C1064 0.931 . S
H1081 C1069 0.930 . S
H1082 C1070 0.956 . S
H1083 C1070 0.961 . S
H1084 C1070 0.961 . S
H1085 C1071 0.958 . S
H1086 C1071 0.961 . S
H1087 C1071 0.960 . S
C1088 C1089 1.391 1_655 S
C1088 C1090 1.394 . S
C1088 H1104 0.931 . S
C1089 C1088 1.391 1_455 S
C1089 C1093 1.376 . S
C1090 C1088 1.394 . S
C1090 C1091 1.369 1_655 S
C1090 C1094 1.531 . S
C1091 C1090 1.369 1_455 S
C1091 C1092 1.410 . S
C1091 C1099 1.503 . S
C1092 C1091 1.410 . S
C1092 C1093 1.392 . S
C1092 C1095 1.511 . S
C1093 C1089 1.376 . S
C1093 C1092 1.392 . S
C1093 H1105 0.929 . S
C1094 C1090 1.531 . S
C1094 H1106 0.960 . S
C1094 H1107 0.962 . S
C1094 H1108 0.960 . S
C1095 C1092 1.511 . S
C1095 H1109 0.961 . S
C1095 H1110 0.961 . S
C1095 H1111 0.961 . S
C1096 C1097 1.370 . S
C1096 C1098 1.363 . S
C1096 H1112 0.931 . S
C1097 C1096 1.370 . S
C1097 C1101 1.408 . S
C1098 C1096 1.363 . S
C1098 C1099 1.370 . S
C1098 C1102 1.524 . S
C1099 C1091 1.503 . S
C1099 C1098 1.370 . S
C1099 C1100 1.403 . S
C1100 C1099 1.403 . S
C1100 C1101 1.404 . S
C1100 C1103 1.539 . S
C1101 C1097 1.408 . S
C1101 C1100 1.404 . S
C1101 H1113 0.930 . S
C1102 C1098 1.524 . S
C1102 H1114 0.956 1_455 S
C1102 H1115 0.961 . S
C1102 H1116 0.961 . S
C1103 C1100 1.539 . S
C1103 H1117 0.959 1_455 S
C1103 H1118 0.961 . S
C1103 H1119 0.959 . S
H1104 C1088 0.931 . S
H1105 C1093 0.929 . S
H1106 C1094 0.960 . S
H1107 C1094 0.962 . S
H1108 C1094 0.960 . S
H1109 C1095 0.961 . S
H1110 C1095 0.961 . S
H1111 C1095 0.961 . S
H1112 C1096 0.931 . S
H1113 C1101 0.930 . S
H1114 C1102 0.956 1_655 S
H1115 C1102 0.961 . S
H1116 C1102 0.961 . S
H1117 C1103 0.959 1_655 S
H1118 C1103 0.961 . S
H1119 C1103 0.959 . S
C1120 C1121 1.391 1_565 S
C1120 C1122 1.394 . S
C1120 H1136 0.931 . S
C1121 C1120 1.391 1_545 S
C1121 C1125 1.376 . S
C1122 C1120 1.394 . S
C1122 C1123 1.369 1_565 S
C1122 C1126 1.531 . S
C1123 C1122 1.369 1_545 S
C1123 C1124 1.410 . S
C1123 C1131 1.503 . S
C1124 C1123 1.410 . S
C1124 C1125 1.392 . S
C1124 C1127 1.511 . S
C1125 C1121 1.376 . S
C1125 C1124 1.392 . S
C1125 H1137 0.929 . S
C1126 C1122 1.531 . S
C1126 H1138 0.960 . S
C1126 H1139 0.962 . S
C1126 H1140 0.960 . S
C1127 C1124 1.511 . S
C1127 H1141 0.961 . S
C1127 H1142 0.961 . S
C1127 H1143 0.961 . S
C1128 C1129 1.370 . S
C1128 C1130 1.365 . S
C1128 H1144 0.931 1_545 S
C1129 C1128 1.370 . S
C1129 C1133 1.408 . S
C1130 C1128 1.365 . S
C1130 C1131 1.392 . S
C1130 C1134 1.502 1_545 S
C1131 C1123 1.503 . S
C1131 C1130 1.392 . S
C1131 C1132 1.403 . S
C1132 C1131 1.403 . S
C1132 C1133 1.404 . S
C1132 C1135 1.539 . S
C1133 C1129 1.408 . S
C1133 C1132 1.404 . S
C1133 H1145 0.930 . S
C1134 C1130 1.502 1_565 S
C1134 H1146 0.956 . S
C1134 H1147 0.961 . S
C1134 H1148 0.961 . S
C1135 C1132 1.539 . S
C1135 H1149 0.958 . S
C1135 H1150 0.961 . S
C1135 H1151 0.960 . S
H1136 C1120 0.931 . S
H1137 C1125 0.929 . S
H1138 C1126 0.960 . S
H1139 C1126 0.962 . S
H1140 C1126 0.960 . S
H1141 C1127 0.961 . S
H1142 C1127 0.961 . S
H1143 C1127 0.961 . S
H1144 C1128 0.931 1_565 S
H1145 C1133 0.930 . S
H1146 C1134 0.956 . S
H1147 C1134 0.961 . S
H1148 C1134 0.961 . S
H1149 C1135 0.958 . S
H1150 C1135 0.961 . S
H1151 C1135 0.960 . S
C1152 C1153 1.391 . S
C1152 C1154 1.394 . S
C1152 H1168 0.931 . S
C1153 C1152 1.391 . S
C1153 C1157 1.376 . S
C1154 C1152 1.394 . S
C1154 C1155 1.369 . S
C1154 C1158 1.531 . S
C1155 C1154 1.369 . S
C1155 C1156 1.410 1_455 S
C1155 C1163 1.503 . S
C1156 C1155 1.410 1_655 S
C1156 C1157 1.392 1_655 S
C1156 C1159 1.511 . S
C1157 C1153 1.376 . S
C1157 C1156 1.392 1_455 S
C1157 H1169 0.929 1_455 S
C1158 C1154 1.531 . S
C1158 H1170 0.960 . S
C1158 H1171 0.962 . S
C1158 H1172 0.960 . S
C1159 C1156 1.511 . S
C1159 H1173 0.961 . S
C1159 H1174 0.961 . S
C1159 H1175 0.961 . S
C1160 C1161 1.370 . S
C1160 C1162 1.363 . S
C1160 H1176 0.931 . S
C1161 C1160 1.370 . S
C1161 C1165 1.408 1_455 S
C1162 C1160 1.363 . S
C1162 C1163 1.370 . S
C1162 C1166 1.524 . S
C1163 C1155 1.503 . S
C1163 C1162 1.370 . S
C1163 C1164 1.403 1_455 S
C1164 C1163 1.403 1_655 S
C1164 C1165 1.404 . S
C1164 C1167 1.539 . S
C1165 C1161 1.408 1_655 S
C1165 C1164 1.404 . S
C1165 H1177 0.930 . S
C1166 C1162 1.524 . S
C1166 H1178 0.956 . S
C1166 H1179 0.961 . S
C1166 H1180 0.961 . S
C1167 C1164 1.539 . S
C1167 H1181 0.958 . S
C1167 H1182 0.961 . S
C1167 H1183 0.960 . S
H1168 C1152 0.931 . S
H1169 C1157 0.929 1_655 S
H1170 C1158 0.960 . S
H1171 C1158 0.962 . S
H1172 C1158 0.960 . S
H1173 C1159 0.961 . S
H1174 C1159 0.961 . S
H1175 C1159 0.961 . S
H1176 C1160 0.931 . S
H1177 C1165 0.930 . S
H1178 C1166 0.956 . S
H1179 C1166 0.961 . S
H1180 C1166 0.961 . S
H1181 C1167 0.958 . S
H1182 C1167 0.961 . S
H1183 C1167 0.960 . S
C1184 C1185 1.391 . S
C1184 C1186 1.394 . S
C1184 H1200 0.931 . S
C1185 C1184 1.391 . S
C1185 C1189 1.376 . S
C1186 C1184 1.394 . S
C1186 C1187 1.369 . S
C1186 C1190 1.531 . S
C1187 C1186 1.369 . S
C1187 C1188 1.410 . S
C1187 C1195 1.503 . S
C1188 C1187 1.410 . S
C1188 C1189 1.392 . S
C1188 C1191 1.511 . S
C1189 C1185 1.376 . S
C1189 C1188 1.392 . S
C1189 H1201 0.929 . S
C1190 C1186 1.531 . S
C1190 H1202 0.960 . S
C1190 H1203 0.962 1_545 S
C1190 H1204 0.960 . S
C1191 C1188 1.511 . S
C1191 H1205 0.961 . S
C1191 H1206 0.961 . S
C1191 H1207 0.961 . S
C1192 C1193 1.370 . S
C1192 C1194 1.363 . S
C1192 H1208 0.931 1_545 S
C1193 C1192 1.370 . S
C1193 C1197 1.408 . S
C1194 C1192 1.363 . S
C1194 C1195 1.370 . S
C1194 C1198 1.524 1_545 S
C1195 C1187 1.503 . S
C1195 C1194 1.370 . S
C1195 C1196 1.403 . S
C1196 C1195 1.403 . S
C1196 C1197 1.404 . S
C1196 C1199 1.539 . S
C1197 C1193 1.408 . S
C1197 C1196 1.404 . S
C1197 H1209 0.930 . S
C1198 C1194 1.524 1_565 S
C1198 H1210 0.956 . S
C1198 H1211 0.961 . S
C1198 H1212 0.961 . S
C1199 C1196 1.539 . S
C1199 H1213 0.958 . S
C1199 H1214 0.961 . S
C1199 H1215 0.960 . S
H1200 C1184 0.931 . S
H1201 C1189 0.929 . S
H1202 C1190 0.960 . S
H1203 C1190 0.962 1_565 S
H1204 C1190 0.960 . S
H1205 C1191 0.961 . S
H1206 C1191 0.961 . S
H1207 C1191 0.961 . S
H1208 C1192 0.931 1_565 S
H1209 C1197 0.930 . S
H1210 C1198 0.956 . S
H1211 C1198 0.961 . S
H1212 C1198 0.961 . S
H1213 C1199 0.958 . S
H1214 C1199 0.961 . S
H1215 C1199 0.960 . S
C1216 C1217 1.391 . S
C1216 C1218 1.394 . S
C1216 H1232 0.931 . S
C1217 C1216 1.391 . S
C1217 C1221 1.376 . S
C1218 C1216 1.394 . S
C1218 C1219 1.369 . S
C1218 C1222 1.531 . S
C1219 C1218 1.369 . S
C1219 C1220 1.410 . S
C1219 C1227 1.503 . S
C1220 C1219 1.410 . S
C1220 C1221 1.392 . S
C1220 C1223 1.511 . S
C1221 C1217 1.376 . S
C1221 C1220 1.392 . S
C1221 H1233 0.929 . S
C1222 C1218 1.531 . S
C1222 H1234 0.960 . S
C1222 H1235 0.962 . S
C1222 H1236 0.960 . S
C1223 C1220 1.511 . S
C1223 H1237 0.961 . S
C1223 H1238 0.961 . S
C1223 H1239 0.961 . S
C1224 C1225 1.370 . S
C1224 C1226 1.363 . S
C1224 H1240 0.931 1_455 S
C1225 C1224 1.370 . S
C1225 C1229 1.408 . S
C1226 C1224 1.363 . S
C1226 C1227 1.370 . S
C1226 C1230 1.524 1_455 S
C1227 C1219 1.503 . S
C1227 C1226 1.370 . S
C1227 C1228 1.403 . S
C1228 C1227 1.403 . S
C1228 C1229 1.404 . S
C1228 C1231 1.539 . S
C1229 C1225 1.408 . S
C1229 C1228 1.404 . S
C1229 H1241 0.930 . S
C1230 C1226 1.524 1_655 S
C1230 H1242 0.956 . S
C1230 H1243 0.961 . S
C1230 H1244 0.961 . S
C1231 C1228 1.539 . S
C1231 H1245 0.958 . S
C1231 H1246 0.961 . S
C1231 H1247 0.960 . S
H1232 C1216 0.931 . S
H1233 C1221 0.929 . S
H1234 C1222 0.960 . S
H1235 C1222 0.962 . S
H1236 C1222 0.960 . S
H1237 C1223 0.961 . S
H1238 C1223 0.961 . S
H1239 C1223 0.961 . S
H1240 C1224 0.931 1_655 S
H1241 C1229 0.930 . S
H1242 C1230 0.956 . S
H1243 C1230 0.961 . S
H1244 C1230 0.961 . S
H1245 C1231 0.958 . S
H1246 C1231 0.961 . S
H1247 C1231 0.960 . S
C1248 C1249 1.391 . S
C1248 C1250 1.394 . S
C1248 H1264 0.931 . S
C1249 C1248 1.391 . S
C1249 C1253 1.376 . S
C1250 C1248 1.394 . S
C1250 C1251 1.369 . S
C1250 C1254 1.531 . S
C1251 C1250 1.369 . S
C1251 C1252 1.410 . S
C1251 C1259 1.503 . S
C1252 C1251 1.410 . S
C1252 C1253 1.392 . S
C1252 C1255 1.511 . S
C1253 C1249 1.376 . S
C1253 C1252 1.392 . S
C1253 H1265 0.929 . S
C1254 C1250 1.531 . S
C1254 H1266 0.960 . S
C1254 H1267 0.962 . S
C1254 H1268 0.960 . S
C1255 C1252 1.511 . S
C1255 H1269 0.961 . S
C1255 H1270 0.961 . S
C1255 H1271 0.961 . S
C1256 C1257 1.370 . S
C1256 C1258 1.363 . S
C1256 H1272 0.931 . S
C1257 C1256 1.370 . S
C1257 C1261 1.408 1_545 S
C1258 C1256 1.363 . S
C1258 C1259 1.370 . S
C1258 C1262 1.524 . S
C1259 C1251 1.503 . S
C1259 C1258 1.370 . S
C1259 C1260 1.403 1_545 S
C1260 C1259 1.403 1_565 S
C1260 C1261 1.404 . S
C1260 C1263 1.539 . S
C1261 C1257 1.408 1_565 S
C1261 C1260 1.404 . S
C1261 H1273 0.930 . S
C1262 C1258 1.524 . S
C1262 H1274 0.956 . S
C1262 H1275 0.961 . S
C1262 H1276 0.961 . S
C1263 C1260 1.539 . S
C1263 H1277 0.958 . S
C1263 H1278 0.961 . S
C1263 H1279 0.960 . S
H1264 C1248 0.931 . S
H1265 C1253 0.929 . S
H1266 C1254 0.960 . S
H1267 C1254 0.962 . S
H1268 C1254 0.960 . S
H1269 C1255 0.961 . S
H1270 C1255 0.961 . S
H1271 C1255 0.961 . S
H1272 C1256 0.931 . S
H1273 C1261 0.930 . S
H1274 C1262 0.956 . S
H1275 C1262 0.961 . S
H1276 C1262 0.961 . S
H1277 C1263 0.958 . S
H1278 C1263 0.961 . S
H1279 C1263 0.960 . S
C1280 C1281 1.391 . S
C1280 C1282 1.394 . S
C1280 H1296 0.931 . S
C1281 C1280 1.391 . S
C1281 C1285 1.376 1_455 S
C1282 C1280 1.394 . S
C1282 C1283 1.369 . S
C1282 C1286 1.531 . S
C1283 C1282 1.369 . S
C1283 C1284 1.410 1_455 S
C1283 C1291 1.503 . S
C1284 C1283 1.410 1_655 S
C1284 C1285 1.392 . S
C1284 C1287 1.511 . S
C1285 C1281 1.376 1_655 S
C1285 C1284 1.392 . S
C1285 H1297 0.929 . S
C1286 C1282 1.531 . S
C1286 H1298 0.960 . S
C1286 H1299 0.962 . S
C1286 H1300 0.960 . S
C1287 C1284 1.511 . S
C1287 H1301 0.961 . S
C1287 H1302 0.961 . S
C1287 H1303 0.961 . S
C1288 C1289 1.370 . S
C1288 C1290 1.363 . S
C1288 H1304 0.931 . S
C1289 C1288 1.370 . S
C1289 C1293 1.408 . S
C1290 C1288 1.363 . S
C1290 C1291 1.370 . S
C1290 C1294 1.524 . S
C1291 C1283 1.503 . S
C1291 C1290 1.370 . S
C1291 C1292 1.403 . S
C1292 C1291 1.403 . S
C1292 C1293 1.404 . S
C1292 C1295 1.539 . S
C1293 C1289 1.408 . S
C1293 C1292 1.404 . S
C1293 H1305 0.930 . S
C1294 C1290 1.524 . S
C1294 H1306 0.956 . S
C1294 H1307 0.961 . S
C1294 H1308 0.961 . S
C1295 C1292 1.539 . S
C1295 H1309 0.958 . S
C1295 H1310 0.952 1_455 S
C1295 H1311 0.960 . S
H1296 C1280 0.931 . S
H1297 C1285 0.929 . S
H1298 C1286 0.960 . S
H1299 C1286 0.962 . S
H1300 C1286 0.960 . S
H1301 C1287 0.961 . S
H1302 C1287 0.961 . S
H1303 C1287 0.961 . S
H1304 C1288 0.931 . S
H1305 C1293 0.930 . S
H1306 C1294 0.956 . S
H1307 C1294 0.961 . S
H1308 C1294 0.961 . S
H1309 C1295 0.958 . S
H1310 C1295 0.952 1_655 S
H1311 C1295 0.960 . S
C1312 C1313 1.391 1_565 S
C1312 C1314 1.394 . S
C1312 H1328 0.931 . S
C1313 C1312 1.391 1_545 S
C1313 C1317 1.376 . S
C1314 C1312 1.394 . S
C1314 C1315 1.369 1_565 S
C1314 C1318 1.531 . S
C1315 C1314 1.369 1_545 S
C1315 C1316 1.410 . S
C1315 C1323 1.503 . S
C1316 C1315 1.410 . S
C1316 C1317 1.392 . S
C1316 C1319 1.511 . S
C1317 C1313 1.376 . S
C1317 C1316 1.392 . S
C1317 H1329 0.929 . S
C1318 C1314 1.531 . S
C1318 H1330 0.960 . S
C1318 H1331 0.962 . S
C1318 H1332 0.960 . S
C1319 C1316 1.511 . S
C1319 H1333 0.961 . S
C1319 H1334 0.961 . S
C1319 H1335 0.961 . S
C1320 C1321 1.370 1_565 S
C1320 C1322 1.363 . S
C1320 H1336 0.931 . S
C1321 C1320 1.370 1_545 S
C1321 C1325 1.408 . S
C1322 C1320 1.363 . S
C1322 C1323 1.370 1_565 S
C1322 C1326 1.524 . S
C1323 C1315 1.503 . S
C1323 C1322 1.370 1_545 S
C1323 C1324 1.403 . S
C1324 C1323 1.403 . S
C1324 C1325 1.404 . S
C1324 C1327 1.539 . S
C1325 C1321 1.408 . S
C1325 C1324 1.404 . S
C1325 H1337 0.930 . S
C1326 C1322 1.524 . S
C1326 H1338 0.956 . S
C1326 H1339 0.961 . S
C1326 H1340 0.961 . S
C1327 C1324 1.539 . S
C1327 H1341 0.958 . S
C1327 H1342 0.961 . S
C1327 H1343 0.960 . S
H1328 C1312 0.931 . S
H1329 C1317 0.929 . S
H1330 C1318 0.960 . S
H1331 C1318 0.962 . S
H1332 C1318 0.960 . S
H1333 C1319 0.961 . S
H1334 C1319 0.961 . S
H1335 C1319 0.961 . S
H1336 C1320 0.931 . S
H1337 C1325 0.930 . S
H1338 C1326 0.956 . S
H1339 C1326 0.961 . S
H1340 C1326 0.961 . S
H1341 C1327 0.958 . S
H1342 C1327 0.961 . S
H1343 C1327 0.960 . S
C1344 C1345 1.391 . S
C1344 C1346 1.394 . S
C1344 H1360 0.931 . S
C1345 C1344 1.391 . S
C1345 C1349 1.376 . S
C1346 C1344 1.394 . S
C1346 C1347 1.369 . S
C1346 C1350 1.531 . S
C1347 C1346 1.369 . S
C1347 C1348 1.410 . S
C1347 C1355 1.503 . S
C1348 C1347 1.410 . S
C1348 C1349 1.392 . S
C1348 C1351 1.511 . S
C1349 C1345 1.376 . S
C1349 C1348 1.392 . S
C1349 H1361 0.929 . S
C1350 C1346 1.531 . S
C1350 H1362 0.960 . S
C1350 H1363 0.962 . S
C1350 H1364 0.960 . S
C1351 C1348 1.511 . S
C1351 H1365 0.961 . S
C1351 H1366 0.961 . S
C1351 H1367 0.961 . S
C1352 C1353 1.370 . S
C1352 C1354 1.363 . S
C1352 H1368 0.931 . S
C1353 C1352 1.370 . S
C1353 C1357 1.408 . S
C1354 C1352 1.363 . S
C1354 C1355 1.370 . S
C1354 C1358 1.524 1_455 S
C1355 C1347 1.503 . S
C1355 C1354 1.370 . S
C1355 C1356 1.403 . S
C1356 C1355 1.403 . S
C1356 C1357 1.404 . S
C1356 C1359 1.539 . S
C1357 C1353 1.408 . S
C1357 C1356 1.404 . S
C1357 H1369 0.930 . S
C1358 C1354 1.524 1_655 S
C1358 H1370 0.956 . S
C1358 H1371 0.961 . S
C1358 H1372 0.961 . S
C1359 C1356 1.539 . S
C1359 H1373 0.958 . S
C1359 H1374 0.961 . S
C1359 H1375 0.960 . S
H1360 C1344 0.931 . S
H1361 C1349 0.929 . S
H1362 C1350 0.960 . S
H1363 C1350 0.962 . S
H1364 C1350 0.960 . S
H1365 C1351 0.961 . S
H1366 C1351 0.961 . S
H1367 C1351 0.961 . S
H1368 C1352 0.931 . S
H1369 C1357 0.930 . S
H1370 C1358 0.956 . S
H1371 C1358 0.961 . S
H1372 C1358 0.961 . S
H1373 C1359 0.958 . S
H1374 C1359 0.961 . S
H1375 C1359 0.960 . S
C1376 C1377 1.391 . S
C1376 C1378 1.394 . S
C1376 H1392 0.931 . S
C1377 C1376 1.391 . S
C1377 C1381 1.376 . S
C1378 C1376 1.394 . S
C1378 C1379 1.369 . S
C1378 C1382 1.531 . S
C1379 C1378 1.369 . S
C1379 C1380 1.410 . S
C1379 C1387 1.503 . S
C1380 C1379 1.410 . S
C1380 C1381 1.392 . S
C1380 C1383 1.511 1_545 S
C1381 C1377 1.376 . S
C1381 C1380 1.392 . S
C1381 H1393 0.928 1_545 S
C1382 C1378 1.531 . S
C1382 H1394 0.960 . S
C1382 H1395 0.962 . S
C1382 H1396 0.960 . S
C1383 C1380 1.511 1_565 S
C1383 H1397 0.961 . S
C1383 H1398 0.961 . S
C1383 H1399 0.961 . S
C1384 C1385 1.370 . S
C1384 C1386 1.363 . S
C1384 H1400 0.931 . S
C1385 C1384 1.370 . S
C1385 C1389 1.408 . S
C1386 C1384 1.363 . S
C1386 C1387 1.370 . S
C1386 C1390 1.524 . S
C1387 C1379 1.503 . S
C1387 C1386 1.370 . S
C1387 C1388 1.403 . S
C1388 C1387 1.403 . S
C1388 C1389 1.404 . S
C1388 C1391 1.539 . S
C1389 C1385 1.408 . S
C1389 C1388 1.404 . S
C1389 H1401 0.930 . S
C1390 C1386 1.524 . S
C1390 H1402 0.956 . S
C1390 H1403 0.961 1_545 S
C1390 H1404 0.947 1_545 S
C1391 C1388 1.539 . S
C1391 H1405 0.958 . S
C1391 H1406 0.961 . S
C1391 H1407 0.960 . S
H1392 C1376 0.931 . S
H1393 C1381 0.928 1_565 S
H1394 C1382 0.960 . S
H1395 C1382 0.962 . S
H1396 C1382 0.960 . S
H1397 C1383 0.961 . S
H1398 C1383 0.961 . S
H1399 C1383 0.961 . S
H1400 C1384 0.931 . S
H1401 C1389 0.930 . S
H1402 C1390 0.956 . S
H1403 C1390 0.961 1_565 S
H1404 C1390 0.947 1_565 S
H1405 C1391 0.958 . S
H1406 C1391 0.961 . S
H1407 C1391 0.960 . S
C1408 C1409 1.391 . S
C1408 C1410 1.394 . S
C1408 H1424 0.934 . S
C1409 C1408 1.391 . S
C1409 C1413 1.376 . S
C1410 C1408 1.394 . S
C1410 C1411 1.369 . S
C1410 C1414 1.531 1_455 S
C1411 C1410 1.369 . S
C1411 C1412 1.410 . S
C1411 C1419 1.503 . S
C1412 C1411 1.410 . S
C1412 C1413 1.392 . S
C1412 C1415 1.511 . S
C1413 C1409 1.376 . S
C1413 C1412 1.392 . S
C1413 H1425 0.929 . S
C1414 C1410 1.531 1_655 S
C1414 H1426 0.960 . S
C1414 H1427 0.962 1_655 S
C1414 H1428 0.960 . S
C1415 C1412 1.511 . S
C1415 H1429 0.961 . S
C1415 H1430 0.961 . S
C1415 H1431 0.961 . S
C1416 C1417 1.370 . S
C1416 C1418 1.363 . S
C1416 H1432 0.931 . S
C1417 C1416 1.370 . S
C1417 C1421 1.408 . S
C1418 C1416 1.363 . S
C1418 C1419 1.370 . S
C1418 C1422 1.524 . S
C1419 C1411 1.503 . S
C1419 C1418 1.370 . S
C1419 C1420 1.403 . S
C1420 C1419 1.403 . S
C1420 C1421 1.404 . S
C1420 C1423 1.539 1_455 S
C1421 C1417 1.408 . S
C1421 C1420 1.404 . S
C1421 H1433 0.930 . S
C1422 C1418 1.524 . S
C1422 H1434 0.956 . S
C1422 H1435 0.961 . S
C1422 H1436 0.961 . S
C1423 C1420 1.539 1_655 S
C1423 H1437 0.958 . S
C1423 H1438 0.961 . S
C1423 H1439 0.960 . S
H1424 C1408 0.934 . S
H1425 C1413 0.929 . S
H1426 C1414 0.960 . S
H1427 C1414 0.962 1_455 S
H1428 C1414 0.960 . S
H1429 C1415 0.961 . S
H1430 C1415 0.961 . S
H1431 C1415 0.961 . S
H1432 C1416 0.931 . S
H1433 C1421 0.930 . S
H1434 C1422 0.956 . S
H1435 C1422 0.961 . S
H1436 C1422 0.961 . S
H1437 C1423 0.958 . S
H1438 C1423 0.961 . S
H1439 C1423 0.960 . S
C1440 C1441 1.391 . S
C1440 C1442 1.394 . S
C1440 H1456 0.931 . S
C1441 C1440 1.391 . S
C1441 C1445 1.376 1_545 S
C1442 C1440 1.394 . S
C1442 C1443 1.369 . S
C1442 C1446 1.531 . S
C1443 C1442 1.369 . S
C1443 C1444 1.410 . S
C1443 C1451 1.503 . S
C1444 C1443 1.410 . S
C1444 C1445 1.392 1_545 S
C1444 C1447 1.511 1_545 S
C1445 C1441 1.376 1_565 S
C1445 C1444 1.392 1_565 S
C1445 H1457 0.929 . S
C1446 C1442 1.531 . S
C1446 H1458 0.960 . S
C1446 H1459 0.962 . S
C1446 H1460 0.960 . S
C1447 C1444 1.511 1_565 S
C1447 H1461 0.961 . S
C1447 H1462 0.961 . S
C1447 H1463 0.961 1_565 S
C1448 C1449 1.370 1_565 S
C1448 C1450 1.363 . S
C1448 H1464 0.931 . S
C1449 C1448 1.370 1_545 S
C1449 C1453 1.408 . S
C1450 C1448 1.363 . S
C1450 C1451 1.370 1_565 S
C1450 C1454 1.524 . S
C1451 C1443 1.503 . S
C1451 C1450 1.370 1_545 S
C1451 C1452 1.403 . S
C1452 C1451 1.403 . S
C1452 C1453 1.404 . S
C1452 C1455 1.539 . S
C1453 C1449 1.408 . S
C1453 C1452 1.404 . S
C1453 H1465 0.930 . S
C1454 C1450 1.524 . S
C1454 H1466 0.956 . S
C1454 H1467 0.961 . S
C1454 H1468 0.961 . S
C1455 C1452 1.539 . S
C1455 H1469 0.958 . S
C1455 H1470 0.961 . S
C1455 H1471 0.960 . S
H1456 C1440 0.931 . S
H1457 C1445 0.929 . S
H1458 C1446 0.960 . S
H1459 C1446 0.962 . S
H1460 C1446 0.960 . S
H1461 C1447 0.961 . S
H1462 C1447 0.961 . S
H1463 C1447 0.961 1_545 S
H1464 C1448 0.931 . S
H1465 C1453 0.930 . S
H1466 C1454 0.956 . S
H1467 C1454 0.961 . S
H1468 C1454 0.961 . S
H1469 C1455 0.958 . S
H1470 C1455 0.961 . S
H1471 C1455 0.960 . S
C1472 C1473 1.391 1_655 S
C1472 C1474 1.394 . S
C1472 H1488 0.931 . S
C1473 C1472 1.391 1_455 S
C1473 C1477 1.376 . S
C1474 C1472 1.394 . S
C1474 C1475 1.369 1_655 S
C1474 C1478 1.531 . S
C1475 C1474 1.369 1_455 S
C1475 C1476 1.410 . S
C1475 C1483 1.503 . S
C1476 C1475 1.410 . S
C1476 C1477 1.392 . S
C1476 C1479 1.511 . S
C1477 C1473 1.376 . S
C1477 C1476 1.392 . S
C1477 H1489 0.929 . S
C1478 C1474 1.531 . S
C1478 H1490 0.960 . S
C1478 H1491 0.962 . S
C1478 H1492 0.960 . S
C1479 C1476 1.511 . S
C1479 H1493 0.961 . S
C1479 H1494 0.961 . S
C1479 H1495 0.961 . S
C1480 C1481 1.370 . S
C1480 C1482 1.363 . S
C1480 H1496 0.931 . S
C1481 C1480 1.370 . S
C1481 C1485 1.408 . S
C1482 C1480 1.363 . S
C1482 C1483 1.370 . S
C1482 C1486 1.524 1_455 S
C1483 C1475 1.503 . S
C1483 C1482 1.370 . S
C1483 C1484 1.403 . S
C1484 C1483 1.403 . S
C1484 C1485 1.404 . S
C1484 C1487 1.539 . S
C1485 C1481 1.408 . S
C1485 C1484 1.404 . S
C1485 H1497 0.930 . S
C1486 C1482 1.524 1_655 S
C1486 H1498 0.956 . S
C1486 H1499 0.961 1_655 S
C1486 H1500 0.961 . S
C1487 C1484 1.539 . S
C1487 H1501 0.958 . S
C1487 H1502 0.961 . S
C1487 H1503 0.960 . S
H1488 C1472 0.931 . S
H1489 C1477 0.929 . S
H1490 C1478 0.960 . S
H1491 C1478 0.962 . S
H1492 C1478 0.960 . S
H1493 C1479 0.961 . S
H1494 C1479 0.961 . S
H1495 C1479 0.961 . S
H1496 C1480 0.931 . S
H1497 C1485 0.930 . S
H1498 C1486 0.956 . S
H1499 C1486 0.961 1_455 S
H1500 C1486 0.961 . S
H1501 C1487 0.958 . S
H1502 C1487 0.961 . S
H1503 C1487 0.960 . S
C1504 C1505 1.391 1_565 S
C1504 C1506 1.394 . S
C1504 H1520 0.931 . S
C1505 C1504 1.391 1_545 S
C1505 C1509 1.376 . S
C1506 C1504 1.394 . S
C1506 C1507 1.369 1_565 S
C1506 C1510 1.531 . S
C1507 C1506 1.369 1_545 S
C1507 C1508 1.410 . S
C1507 C1515 1.503 . S
C1508 C1507 1.410 . S
C1508 C1509 1.392 . S
C1508 C1511 1.511 . S
C1509 C1505 1.376 . S
C1509 C1508 1.392 . S
C1509 H1521 0.929 . S
C1510 C1506 1.531 . S
C1510 H1522 0.960 . S
C1510 H1523 0.962 . S
C1510 H1524 0.960 . S
C1511 C1508 1.511 . S
C1511 H1525 0.961 . S
C1511 H1526 0.961 . S
C1511 H1527 0.961 . S
C1512 C1513 1.370 . S
C1512 C1514 1.363 . S
C1512 H1528 0.931 . S
C1513 C1512 1.370 . S
C1513 C1517 1.408 1_545 S
C1514 C1512 1.363 . S
C1514 C1515 1.370 . S
C1514 C1518 1.524 . S
C1515 C1507 1.503 . S
C1515 C1514 1.370 . S
C1515 C1516 1.403 1_545 S
C1516 C1515 1.403 1_565 S
C1516 C1517 1.404 . S
C1516 C1519 1.539 . S
C1517 C1513 1.408 1_565 S
C1517 C1516 1.404 . S
C1517 H1529 0.930 . S
C1518 C1514 1.524 . S
C1518 H1530 0.956 . S
C1518 H1531 0.961 . S
C1518 H1532 0.961 . S
C1519 C1516 1.539 . S
C1519 H1533 0.958 . S
C1519 H1534 0.961 . S
C1519 H1535 0.960 . S
H1520 C1504 0.931 . S
H1521 C1509 0.929 . S
H1522 C1510 0.960 . S
H1523 C1510 0.962 . S
H1524 C1510 0.960 . S
H1525 C1511 0.961 . S
H1526 C1511 0.961 . S
H1527 C1511 0.961 . S
H1528 C1512 0.931 . S
H1529 C1517 0.930 . S
H1530 C1518 0.956 . S
H1531 C1518 0.961 . S
H1532 C1518 0.961 . S
H1533 C1519 0.958 . S
H1534 C1519 0.961 . S
H1535 C1519 0.960 . S
C1536 C1537 1.391 . S
C1536 C1538 1.394 . S
C1536 H1552 0.931 . S
C1537 C1536 1.391 . S
C1537 C1541 1.376 . S
C1538 C1536 1.394 . S
C1538 C1539 1.369 . S
C1538 C1542 1.531 . S
C1539 C1538 1.369 . S
C1539 C1540 1.430 . S
C1539 C1547 1.503 . S
C1540 C1539 1.430 . S
C1540 C1541 1.394 . S
C1540 C1543 1.490 1_455 S
C1541 C1537 1.376 . S
C1541 C1540 1.394 . S
C1541 H1553 0.929 1_455 S
C1542 C1538 1.531 . S
C1542 H1554 0.960 . S
C1542 H1555 0.962 . S
C1542 H1556 0.960 . S
C1543 C1540 1.490 1_655 S
C1543 H1557 0.961 . S
C1543 H1558 0.961 . S
C1543 H1559 0.961 . S
C1544 C1545 1.370 . S
C1544 C1546 1.363 . S
C1544 H1560 0.931 . S
C1545 C1544 1.370 . S
C1545 C1549 1.408 . S
C1546 C1544 1.363 . S
C1546 C1547 1.370 . S
C1546 C1550 1.524 . S
C1547 C1539 1.503 . S
C1547 C1546 1.370 . S
C1547 C1548 1.403 . S
C1548 C1547 1.403 . S
C1548 C1549 1.404 . S
C1548 C1551 1.539 1_455 S
C1549 C1545 1.408 . S
C1549 C1548 1.404 . S
C1549 H1561 0.931 . S
C1550 C1546 1.524 . S
C1550 H1562 0.956 . S
C1550 H1563 0.961 . S
C1550 H1564 0.961 . S
C1551 C1548 1.539 1_655 S
C1551 H1565 0.958 1_655 S
C1551 H1566 0.961 . S
C1551 H1567 0.960 . S
H1552 C1536 0.931 . S
H1553 C1541 0.929 1_655 S
H1554 C1542 0.960 . S
H1555 C1542 0.962 . S
H1556 C1542 0.960 . S
H1557 C1543 0.961 . S
H1558 C1543 0.961 . S
H1559 C1543 0.961 . S
H1560 C1544 0.931 . S
H1561 C1549 0.931 . S
H1562 C1550 0.956 . S
H1563 C1550 0.961 . S
H1564 C1550 0.961 . S
H1565 C1551 0.958 1_455 S
H1566 C1551 0.961 . S
H1567 C1551 0.960 . S
C1568 C1569 1.391 . S
C1568 C1570 1.394 . S
C1568 H1584 0.931 . S
C1569 C1568 1.391 . S
C1569 C1573 1.376 . S
C1570 C1568 1.394 . S
C1570 C1571 1.369 . S
C1570 C1574 1.531 . S
C1571 C1570 1.369 . S
C1571 C1572 1.410 . S
C1571 C1579 1.503 . S
C1572 C1571 1.410 . S
C1572 C1573 1.392 . S
C1572 C1575 1.511 1_545 S
C1573 C1569 1.376 . S
C1573 C1572 1.392 . S
C1573 H1585 0.929 . S
C1574 C1570 1.531 . S
C1574 H1586 0.960 . S
C1574 H1587 0.962 . S
C1574 H1588 0.960 . S
C1575 C1572 1.511 1_565 S
C1575 H1589 0.961 . S
C1575 H1590 0.961 1_565 S
C1575 H1591 0.961 . S
C1576 C1577 1.370 . S
C1576 C1578 1.363 . S
C1576 H1592 0.931 . S
C1577 C1576 1.370 . S
C1577 C1581 1.408 . S
C1578 C1576 1.363 . S
C1578 C1579 1.370 . S
C1578 C1582 1.524 . S
C1579 C1571 1.503 . S
C1579 C1578 1.370 . S
C1579 C1580 1.403 . S
C1580 C1579 1.403 . S
C1580 C1581 1.404 . S
C1580 C1583 1.539 1_545 S
C1581 C1577 1.408 . S
C1581 C1580 1.404 . S
C1581 H1593 0.930 1_545 S
C1582 C1578 1.524 . S
C1582 H1594 0.956 . S
C1582 H1595 0.961 . S
C1582 H1596 0.961 . S
C1583 C1580 1.539 1_565 S
C1583 H1597 0.958 . S
C1583 H1598 0.961 . S
C1583 H1599 0.960 . S
H1584 C1568 0.931 . S
H1585 C1573 0.929 . S
H1586 C1574 0.960 . S
H1587 C1574 0.962 . S
H1588 C1574 0.960 . S
H1589 C1575 0.961 . S
H1590 C1575 0.961 1_545 S
H1591 C1575 0.961 . S
H1592 C1576 0.931 . S
H1593 C1581 0.930 1_565 S
H1594 C1582 0.956 . S
H1595 C1582 0.961 . S
H1596 C1582 0.961 . S
H1597 C1583 0.958 . S
H1598 C1583 0.961 . S
H1599 C1583 0.960 . S
C1600 C1601 1.391 . S
C1600 C1602 1.394 . S
C1600 H1616 0.931 . S
C1601 C1600 1.391 . S
C1601 C1605 1.376 1_565 S
C1602 C1600 1.394 . S
C1602 C1603 1.369 . S
C1602 C1606 1.531 . S
C1603 C1602 1.369 . S
C1603 C1604 1.409 1_565 S
C1603 C1611 1.500 1_565 S
C1604 C1603 1.409 1_545 S
C1604 C1605 1.393 . S
C1604 C1607 1.512 . S
C1605 C1601 1.376 1_545 S
C1605 C1604 1.393 . S
C1605 H1617 0.929 . S
C1606 C1602 1.531 . S
C1606 H1618 0.960 . S
C1606 H1619 0.962 1_565 S
C1606 H1620 0.960 . S
C1607 C1604 1.512 . S
C1607 H1621 0.961 . S
C1607 H1622 0.961 . S
C1607 H1623 0.961 1_545 S
C1608 C1609 1.370 . S
C1608 C1610 1.363 . S
C1608 H1624 0.931 . S
C1609 C1608 1.370 . S
C1609 C1613 1.408 1_545 S
C1610 C1608 1.363 . S
C1610 C1611 1.401 . S
C1610 C1614 1.524 . S
C1611 C1603 1.500 1_545 S
C1611 C1610 1.401 . S
C1611 C1612 1.375 1_545 S
C1612 C1611 1.375 1_565 S
C1612 C1613 1.404 . S
C1612 C1615 1.539 . S
C1613 C1609 1.408 1_565 S
C1613 C1612 1.404 . S
C1613 H1625 0.930 . S
C1614 C1610 1.524 . S
C1614 H1626 0.956 . S
C1614 H1627 0.961 . S
C1614 H1628 0.961 . S
C1615 C1612 1.539 . S
C1615 H1629 0.958 . S
C1615 H1630 0.961 . S
C1615 H1631 0.960 . S
H1616 C1600 0.931 . S
H1617 C1605 0.929 . S
H1618 C1606 0.960 . S
H1619 C1606 0.962 1_545 S
H1620 C1606 0.960 . S
H1621 C1607 0.961 . S
H1622 C1607 0.961 . S
H1623 C1607 0.961 1_565 S
H1624 C1608 0.931 . S
H1625 C1613 0.930 . S
H1626 C1614 0.956 . S
H1627 C1614 0.961 . S
H1628 C1614 0.961 . S
H1629 C1615 0.958 . S
H1630 C1615 0.961 . S
H1631 C1615 0.960 . S
C1632 C1633 1.391 . S
C1632 C1634 1.394 . S
C1632 H1648 0.931 1_455 S
C1633 C1632 1.391 . S
C1633 C1637 1.376 . S
C1634 C1632 1.394 . S
C1634 C1635 1.369 . S
C1634 C1638 1.531 1_455 S
C1635 C1634 1.369 . S
C1635 C1636 1.410 . S
C1635 C1643 1.503 . S
C1636 C1635 1.410 . S
C1636 C1637 1.392 . S
C1636 C1639 1.511 . S
C1637 C1633 1.376 . S
C1637 C1636 1.392 . S
C1637 H1649 0.929 . S
C1638 C1634 1.531 1_655 S
C1638 H1650 0.960 . S
C1638 H1651 0.962 . S
C1638 H1652 0.960 . S
C1639 C1636 1.511 . S
C1639 H1653 0.961 . S
C1639 H1654 0.961 . S
C1639 H1655 0.961 . S
C1640 C1641 1.358 1_655 S
C1640 C1642 1.356 1_655 S
C1640 H1656 0.952 . S
C1641 C1640 1.358 1_455 S
C1641 C1645 1.408 . S
C1642 C1640 1.356 1_455 S
C1642 C1643 1.370 . S
C1642 C1646 1.524 1_455 S
C1643 C1635 1.503 . S
C1643 C1642 1.370 . S
C1643 C1644 1.403 . S
C1644 C1643 1.403 . S
C1644 C1645 1.404 . S
C1644 C1647 1.539 . S
C1645 C1641 1.408 . S
C1645 C1644 1.404 . S
C1645 H1657 0.930 . S
C1646 C1642 1.524 1_655 S
C1646 H1658 0.956 . S
C1646 H1659 0.961 1_655 S
C1646 H1660 0.961 . S
C1647 C1644 1.539 . S
C1647 H1661 0.958 . S
C1647 H1662 0.961 . S
C1647 H1663 0.960 . S
H1648 C1632 0.931 1_655 S
H1649 C1637 0.929 . S
H1650 C1638 0.960 . S
H1651 C1638 0.962 . S
H1652 C1638 0.960 . S
H1653 C1639 0.961 . S
H1654 C1639 0.961 . S
H1655 C1639 0.961 . S
H1656 C1640 0.952 . S
H1657 C1645 0.930 . S
H1658 C1646 0.956 . S
H1659 C1646 0.961 1_455 S
H1660 C1646 0.961 . S
H1661 C1647 0.958 . S
H1662 C1647 0.961 . S
H1663 C1647 0.960 . S
C1664 C1665 1.391 . S
C1664 C1666 1.394 . S
C1664 H1680 0.931 . S
C1665 C1664 1.391 . S
C1665 C1669 1.376 . S
C1666 C1664 1.394 . S
C1666 C1667 1.369 . S
C1666 C1670 1.531 1_545 S
C1667 C1666 1.369 . S
C1667 C1668 1.410 . S
C1667 C1675 1.503 . S
C1668 C1667 1.410 . S
C1668 C1669 1.392 . S
C1668 C1671 1.511 . S
C1669 C1665 1.376 . S
C1669 C1668 1.392 . S
C1669 H1681 0.929 . S
C1670 C1666 1.531 1_565 S
C1670 H1682 0.960 . S
C1670 H1683 0.962 1_565 S
C1670 H1684 0.960 . S
C1671 C1668 1.511 . S
C1671 H1685 0.961 . S
C1671 H1686 0.961 . S
C1671 H1687 0.961 . S
C1672 C1673 1.370 . S
C1672 C1674 1.363 . S
C1672 H1688 0.931 . S
C1673 C1672 1.370 . S
C1673 C1677 1.408 . S
C1674 C1672 1.363 . S
C1674 C1675 1.370 . S
C1674 C1678 1.524 . S
C1675 C1667 1.503 . S
C1675 C1674 1.370 . S
C1675 C1676 1.403 . S
C1676 C1675 1.403 . S
C1676 C1677 1.404 . S
C1676 C1679 1.539 1_545 S
C1677 C1673 1.408 . S
C1677 C1676 1.404 . S
C1677 H1689 0.922 1_545 S
C1678 C1674 1.524 . S
C1678 H1690 0.956 . S
C1678 H1691 0.961 . S
C1678 H1692 0.961 . S
C1679 C1676 1.539 1_565 S
C1679 H1693 0.958 . S
C1679 H1694 0.961 . S
C1679 H1695 0.956 1_565 S
H1680 C1664 0.931 . S
H1681 C1669 0.929 . S
H1682 C1670 0.960 . S
H1683 C1670 0.962 1_545 S
H1684 C1670 0.960 . S
H1685 C1671 0.961 . S
H1686 C1671 0.961 . S
H1687 C1671 0.961 . S
H1688 C1672 0.931 . S
H1689 C1677 0.922 1_565 S
H1690 C1678 0.956 . S
H1691 C1678 0.961 . S
H1692 C1678 0.961 . S
H1693 C1679 0.958 . S
H1694 C1679 0.961 . S
H1695 C1679 0.956 1_545 S
C1696 C1697 1.391 . S
C1696 C1698 1.394 . S
C1696 H1712 0.931 . S
C1697 C1696 1.391 . S
C1697 C1701 1.376 1_455 S
C1698 C1696 1.394 . S
C1698 C1699 1.369 . S
C1698 C1702 1.531 . S
C1699 C1698 1.369 . S
C1699 C1700 1.410 1_455 S
C1699 C1707 1.503 . S
C1700 C1699 1.410 1_655 S
C1700 C1701 1.392 . S
C1700 C1703 1.511 . S
C1701 C1697 1.376 1_655 S
C1701 C1700 1.392 . S
C1701 H1713 0.929 . S
C1702 C1698 1.531 . S
C1702 H1714 0.960 . S
C1702 H1715 0.962 . S
C1702 H1716 0.960 . S
C1703 C1700 1.511 . S
C1703 H1717 0.961 . S
C1703 H1718 0.961 . S
C1703 H1719 0.961 . S
C1704 C1705 1.370 . S
C1704 C1706 1.363 . S
C1704 H1720 0.931 . S
C1705 C1704 1.370 . S
C1705 C1709 1.408 1_455 S
C1706 C1704 1.363 . S
C1706 C1707 1.370 . S
C1706 C1710 1.524 . S
C1707 C1699 1.503 . S
C1707 C1706 1.370 . S
C1707 C1708 1.403 1_455 S
C1708 C1707 1.403 1_655 S
C1708 C1709 1.404 . S
C1708 C1711 1.539 . S
C1709 C1705 1.408 1_655 S
C1709 C1708 1.404 . S
C1709 H1721 0.930 . S
C1710 C1706 1.524 . S
C1710 H1722 0.956 . S
C1710 H1723 0.961 . S
C1710 H1724 0.961 . S
C1711 C1708 1.539 . S
C1711 H1725 0.958 . S
C1711 H1726 0.961 . S
C1711 H1727 0.960 . S
H1712 C1696 0.931 . S
H1713 C1701 0.929 . S
H1714 C1702 0.960 . S
H1715 C1702 0.962 . S
H1716 C1702 0.960 . S
H1717 C1703 0.961 . S
H1718 C1703 0.961 . S
H1719 C1703 0.961 . S
H1720 C1704 0.931 . S
H1721 C1709 0.930 . S
H1722 C1710 0.956 . S
H1723 C1710 0.961 . S
H1724 C1710 0.961 . S
H1725 C1711 0.958 . S
H1726 C1711 0.961 . S
H1727 C1711 0.960 . S
C1728 C1729 1.391 . S
C1728 C1730 1.394 . S
C1728 H1744 0.937 . S
C1729 C1728 1.391 . S
C1729 C1733 1.376 . S
C1730 C1728 1.394 . S
C1730 C1731 1.369 . S
C1730 C1734 1.531 . S
C1731 C1730 1.369 . S
C1731 C1732 1.410 . S
C1731 C1739 1.503 . S
C1732 C1731 1.410 . S
C1732 C1733 1.392 . S
C1732 C1735 1.511 . S
C1733 C1729 1.376 . S
C1733 C1732 1.392 . S
C1733 H1745 0.929 . S
C1734 C1730 1.531 . S
C1734 H1746 0.960 . S
C1734 H1747 0.962 1_545 S
C1734 H1748 0.960 . S
C1735 C1732 1.511 . S
C1735 H1749 0.961 . S
C1735 H1750 0.961 . S
C1735 H1751 0.961 . S
C1736 C1737 1.370 1_565 S
C1736 C1738 1.363 . S
C1736 H1752 0.931 . S
C1737 C1736 1.370 1_545 S
C1737 C1741 1.408 . S
C1738 C1736 1.363 . S
C1738 C1739 1.370 1_565 S
C1738 C1742 1.524 . S
C1739 C1731 1.503 . S
C1739 C1738 1.370 1_545 S
C1739 C1740 1.403 . S
C1740 C1739 1.403 . S
C1740 C1741 1.404 . S
C1740 C1743 1.539 . S
C1741 C1737 1.408 . S
C1741 C1740 1.404 . S
C1741 H1753 0.930 . S
C1742 C1738 1.524 . S
C1742 H1754 0.956 . S
C1742 H1755 0.961 . S
C1742 H1756 0.961 . S
C1743 C1740 1.539 . S
C1743 H1757 0.958 . S
C1743 H1758 0.961 . S
C1743 H1759 0.960 . S
H1744 C1728 0.937 . S
H1745 C1733 0.929 . S
H1746 C1734 0.960 . S
H1747 C1734 0.962 1_565 S
H1748 C1734 0.960 . S
H1749 C1735 0.961 . S
H1750 C1735 0.961 . S
H1751 C1735 0.961 . S
H1752 C1736 0.931 . S
H1753 C1741 0.930 . S
H1754 C1742 0.956 . S
H1755 C1742 0.961 . S
H1756 C1742 0.961 . S
H1757 C1743 0.958 . S
H1758 C1743 0.961 . S
H1759 C1743 0.960 . S
C1760 C1761 1.391 . S
C1760 C1762 1.394 . S
C1760 H1776 0.934 . S
C1761 C1760 1.391 . S
C1761 C1765 1.376 . S
C1762 C1760 1.394 . S
C1762 C1763 1.369 . S
C1762 C1766 1.531 1_455 S
C1763 C1762 1.369 . S
C1763 C1764 1.410 . S
C1763 C1771 1.503 . S
C1764 C1763 1.410 . S
C1764 C1765 1.392 . S
C1764 C1767 1.511 . S
C1765 C1761 1.376 . S
C1765 C1764 1.392 . S
C1765 H1777 0.929 . S
C1766 C1762 1.531 1_655 S
C1766 H1778 0.960 . S
C1766 H1779 0.962 1_655 S
C1766 H1780 0.960 . S
C1767 C1764 1.511 . S
C1767 H1781 0.961 . S
C1767 H1782 0.961 . S
C1767 H1783 0.961 . S
C1768 C1769 1.370 . S
C1768 C1770 1.363 . S
C1768 H1784 0.931 . S
C1769 C1768 1.370 . S
C1769 C1773 1.408 1_455 S
C1770 C1768 1.363 . S
C1770 C1771 1.370 . S
C1770 C1774 1.524 . S
C1771 C1763 1.503 . S
C1771 C1770 1.370 . S
C1771 C1772 1.403 1_455 S
C1772 C1771 1.403 1_655 S
C1772 C1773 1.404 . S
C1772 C1775 1.539 . S
C1773 C1769 1.408 1_655 S
C1773 C1772 1.404 . S
C1773 H1785 0.930 . S
C1774 C1770 1.524 . S
C1774 H1786 0.956 . S
C1774 H1787 0.961 . S
C1774 H1788 0.961 . S
C1775 C1772 1.539 . S
C1775 H1789 0.958 . S
C1775 H1790 0.961 . S
C1775 H1791 0.960 . S
H1776 C1760 0.934 . S
H1777 C1765 0.929 . S
H1778 C1766 0.960 . S
H1779 C1766 0.962 1_455 S
H1780 C1766 0.960 . S
H1781 C1767 0.961 . S
H1782 C1767 0.961 . S
H1783 C1767 0.961 . S
H1784 C1768 0.931 . S
H1785 C1773 0.930 . S
H1786 C1774 0.956 . S
H1787 C1774 0.961 . S
H1788 C1774 0.961 . S
H1789 C1775 0.958 . S
H1790 C1775 0.961 . S
H1791 C1775 0.960 . S
C1792 C1793 1.391 . S
C1792 C1794 1.394 . S
C1792 H1808 0.931 . S
C1793 C1792 1.391 . S
C1793 C1797 1.376 . S
C1794 C1792 1.394 . S
C1794 C1795 1.369 . S
C1794 C1798 1.531 . S
C1795 C1794 1.369 . S
C1795 C1796 1.410 . S
C1795 C1803 1.503 . S
C1796 C1795 1.410 . S
C1796 C1797 1.392 . S
C1796 C1799 1.511 . S
C1797 C1793 1.376 . S
C1797 C1796 1.392 . S
C1797 H1809 0.929 . S
C1798 C1794 1.531 . S
C1798 H1810 0.960 1_545 S
C1798 H1811 0.962 . S
C1798 H1812 0.960 1_545 S
C1799 C1796 1.511 . S
C1799 H1813 0.961 . S
C1799 H1814 0.961 . S
C1799 H1815 0.961 . S
C1800 C1801 1.370 . S
C1800 C1802 1.363 . S
C1800 H1816 0.931 . S
C1801 C1800 1.370 . S
C1801 C1805 1.408 . S
C1802 C1800 1.363 . S
C1802 C1803 1.370 . S
C1802 C1806 1.524 . S
C1803 C1795 1.503 . S
C1803 C1802 1.370 . S
C1803 C1804 1.403 . S
C1804 C1803 1.403 . S
C1804 C1805 1.404 . S
C1804 C1807 1.539 1_545 S
C1805 C1801 1.408 . S
C1805 C1804 1.404 . S
C1805 H1817 0.930 1_545 S
C1806 C1802 1.524 . S
C1806 H1818 0.956 . S
C1806 H1819 0.961 . S
C1806 H1820 0.961 . S
C1807 C1804 1.539 1_565 S
C1807 H1821 0.958 . S
C1807 H1822 0.961 . S
C1807 H1823 0.960 . S
H1808 C1792 0.931 . S
H1809 C1797 0.929 . S
H1810 C1798 0.960 1_565 S
H1811 C1798 0.962 . S
H1812 C1798 0.960 1_565 S
H1813 C1799 0.961 . S
H1814 C1799 0.961 . S
H1815 C1799 0.961 . S
H1816 C1800 0.931 . S
H1817 C1805 0.930 1_565 S
H1818 C1806 0.956 . S
H1819 C1806 0.961 . S
H1820 C1806 0.961 . S
H1821 C1807 0.958 . S
H1822 C1807 0.961 . S
H1823 C1807 0.960 . S
C1824 C1825 1.369 1_655 S
C1824 C1826 1.394 . S
C1824 H1840 0.931 . S
C1825 C1824 1.369 1_455 S
C1825 C1829 1.403 . S
C1826 C1824 1.394 . S
C1826 C1827 1.369 1_655 S
C1826 C1830 1.531 . S
C1827 C1826 1.369 1_455 S
C1827 C1828 1.410 . S
C1827 C1835 1.503 . S
C1828 C1827 1.410 . S
C1828 C1829 1.392 . S
C1828 C1831 1.511 . S
C1829 C1825 1.403 . S
C1829 C1828 1.392 . S
C1829 H1841 0.929 . S
C1830 C1826 1.531 . S
C1830 H1842 0.960 . S
C1830 H1843 0.962 . S
C1830 H1844 0.960 . S
C1831 C1828 1.511 . S
C1831 H1845 0.961 . S
C1831 H1846 0.961 . S
C1831 H1847 0.961 . S
C1832 C1833 1.370 1_655 S
C1832 C1834 1.363 . S
C1832 H1848 0.931 . S
C1833 C1832 1.370 1_455 S
C1833 C1837 1.408 . S
C1834 C1832 1.363 . S
C1834 C1835 1.370 1_655 S
C1834 C1838 1.524 . S
C1835 C1827 1.503 . S
C1835 C1834 1.370 1_455 S
C1835 C1836 1.403 . S
C1836 C1835 1.403 . S
C1836 C1837 1.404 . S
C1836 C1839 1.539 . S
C1837 C1833 1.408 . S
C1837 C1836 1.404 . S
C1837 H1849 0.930 . S
C1838 C1834 1.524 . S
C1838 H1850 0.956 . S
C1838 H1851 0.961 . S
C1838 H1852 0.961 . S
C1839 C1836 1.539 . S
C1839 H1853 0.958 . S
C1839 H1854 0.961 . S
C1839 H1855 0.960 . S
H1840 C1824 0.931 . S
H1841 C1829 0.929 . S
H1842 C1830 0.960 . S
H1843 C1830 0.962 . S
H1844 C1830 0.960 . S
H1845 C1831 0.961 . S
H1846 C1831 0.961 . S
H1847 C1831 0.961 . S
H1848 C1832 0.931 . S
H1849 C1837 0.930 . S
H1850 C1838 0.956 . S
H1851 C1838 0.961 . S
H1852 C1838 0.961 . S
H1853 C1839 0.958 . S
H1854 C1839 0.961 . S
H1855 C1839 0.960 . S
C1856 C1857 1.391 . S
C1856 C1858 1.394 . S
C1856 H1872 0.931 . S
C1857 C1856 1.391 . S
C1857 C1861 1.376 1_554 S
C1858 C1856 1.394 . S
C1858 C1859 1.369 . S
C1858 C1862 1.531 . S
C1859 C1858 1.369 . S
C1859 C1860 1.410 1_554 S
C1859 C1867 1.503 . S
C1860 C1859 1.410 1_556 S
C1860 C1861 1.392 . S
C1860 C1863 1.511 . S
C1861 C1857 1.376 1_556 S
C1861 C1860 1.392 . S
C1861 H1873 0.929 . S
C1862 C1858 1.531 . S
C1862 H1874 0.960 . S
C1862 H1875 0.962 . S
C1862 H1876 0.960 . S
C1863 C1860 1.511 . S
C1863 H1877 0.961 . S
C1863 H1878 0.961 . S
C1863 H1879 0.961 . S
C1864 C1865 1.370 . S
C1864 C1866 1.363 . S
C1864 H1880 0.931 1_554 S
C1865 C1864 1.370 . S
C1865 C1869 1.408 . S
C1866 C1864 1.363 . S
C1866 C1867 1.370 . S
C1866 C1870 1.524 1_554 S
C1867 C1859 1.503 . S
C1867 C1866 1.370 . S
C1867 C1868 1.403 . S
C1868 C1867 1.403 . S
C1868 C1869 1.404 . S
C1868 C1871 1.539 . S
C1869 C1865 1.408 . S
C1869 C1868 1.404 . S
C1869 H1881 0.930 . S
C1870 C1866 1.524 1_556 S
C1870 H1882 0.956 1_556 S
C1870 H1883 0.961 . S
C1870 H1884 0.961 . S
C1871 C1868 1.539 . S
C1871 H1885 0.958 . S
C1871 H1886 0.961 . S
C1871 H1887 0.960 . S
H1872 C1856 0.931 . S
H1873 C1861 0.929 . S
H1874 C1862 0.960 . S
H1875 C1862 0.962 . S
H1876 C1862 0.960 . S
H1877 C1863 0.961 . S
H1878 C1863 0.961 . S
H1879 C1863 0.961 . S
H1880 C1864 0.931 1_556 S
H1881 C1869 0.930 . S
H1882 C1870 0.956 1_554 S
H1883 C1870 0.961 . S
H1884 C1870 0.961 . S
H1885 C1871 0.958 . S
H1886 C1871 0.961 . S
H1887 C1871 0.960 . S
C1888 C1889 1.391 . S
C1888 C1890 1.394 . S
C1888 H1904 0.931 . S
C1889 C1888 1.391 . S
C1889 C1893 1.376 1_554 S
C1890 C1888 1.394 . S
C1890 C1891 1.369 . S
C1890 C1894 1.531 . S
C1891 C1890 1.369 . S
C1891 C1892 1.410 1_554 S
C1891 C1899 1.503 . S
C1892 C1891 1.410 1_556 S
C1892 C1893 1.392 . S
C1892 C1895 1.511 . S
C1893 C1889 1.376 1_556 S
C1893 C1892 1.392 . S
C1893 H1905 0.929 . S
C1894 C1890 1.531 . S
C1894 H1906 0.960 . S
C1894 H1907 0.962 . S
C1894 H1908 0.960 . S
C1895 C1892 1.511 . S
C1895 H1909 0.961 . S
C1895 H1910 0.961 . S
C1895 H1911 0.961 . S
C1896 C1897 1.370 . S
C1896 C1898 1.363 . S
C1896 H1912 0.931 . S
C1897 C1896 1.370 . S
C1897 C1901 1.408 1_554 S
C1898 C1896 1.363 . S
C1898 C1899 1.370 . S
C1898 C1902 1.524 . S
C1899 C1891 1.503 . S
C1899 C1898 1.370 . S
C1899 C1900 1.403 1_554 S
C1900 C1899 1.403 1_556 S
C1900 C1901 1.404 . S
C1900 C1903 1.539 . S
C1901 C1897 1.408 1_556 S
C1901 C1900 1.404 . S
C1901 H1913 0.930 . S
C1902 C1898 1.524 . S
C1902 H1914 0.956 . S
C1902 H1915 0.961 . S
C1902 H1916 0.961 . S
C1903 C1900 1.539 . S
C1903 H1917 0.958 . S
C1903 H1918 0.961 . S
C1903 H1919 0.960 . S
H1904 C1888 0.931 . S
H1905 C1893 0.929 . S
H1906 C1894 0.960 . S
H1907 C1894 0.962 . S
H1908 C1894 0.960 . S
H1909 C1895 0.961 . S
H1910 C1895 0.961 . S
H1911 C1895 0.961 . S
H1912 C1896 0.931 . S
H1913 C1901 0.930 . S
H1914 C1902 0.956 . S
H1915 C1902 0.961 . S
H1916 C1902 0.961 . S
H1917 C1903 0.958 . S
H1918 C1903 0.961 . S
H1919 C1903 0.960 . S
C1920 C1921 1.391 1_556 S
C1920 C1922 1.394 . S
C1920 H1936 0.931 . S
C1921 C1920 1.391 1_554 S
C1921 C1925 1.376 . S
C1922 C1920 1.394 . S
C1922 C1923 1.369 1_556 S
C1922 C1926 1.531 . S
C1923 C1922 1.369 1_554 S
C1923 C1924 1.410 . S
C1923 C1931 1.503 . S
C1924 C1923 1.410 . S
C1924 C1925 1.392 . S
C1924 C1927 1.511 . S
C1925 C1921 1.376 . S
C1925 C1924 1.392 . S
C1925 H1937 0.929 . S
C1926 C1922 1.531 . S
C1926 H1938 0.960 . S
C1926 H1939 0.962 . S
C1926 H1940 0.960 . S
C1927 C1924 1.511 . S
C1927 H1941 0.961 . S
C1927 H1942 0.961 . S
C1927 H1943 0.961 . S
C1928 C1929 1.370 . S
C1928 C1930 1.363 . S
C1928 H1944 0.931 . S
C1929 C1928 1.370 . S
C1929 C1933 1.408 1_554 S
C1930 C1928 1.363 . S
C1930 C1931 1.370 . S
C1930 C1934 1.524 . S
C1931 C1923 1.503 . S
C1931 C1930 1.370 . S
C1931 C1932 1.403 1_554 S
C1932 C1931 1.403 1_556 S
C1932 C1933 1.404 . S
C1932 C1935 1.539 . S
C1933 C1929 1.408 1_556 S
C1933 C1932 1.404 . S
C1933 H1945 0.930 . S
C1934 C1930 1.524 . S
C1934 H1946 0.956 . S
C1934 H1947 0.961 . S
C1934 H1948 0.961 . S
C1935 C1932 1.539 . S
C1935 H1949 0.958 . S
C1935 H1950 0.961 . S
C1935 H1951 0.960 . S
H1936 C1920 0.931 . S
H1937 C1925 0.929 . S
H1938 C1926 0.960 . S
H1939 C1926 0.962 . S
H1940 C1926 0.960 . S
H1941 C1927 0.961 . S
H1942 C1927 0.961 . S
H1943 C1927 0.961 . S
H1944 C1928 0.931 . S
H1945 C1933 0.930 . S
H1946 C1934 0.956 . S
H1947 C1934 0.961 . S
H1948 C1934 0.961 . S
H1949 C1935 0.958 . S
H1950 C1935 0.961 . S
H1951 C1935 0.960 . S
C1952 C1953 1.391 . S
C1952 C1954 1.394 . S
C1952 H1968 0.931 . S
C1953 C1952 1.391 . S
C1953 C1957 1.376 1_556 S
C1954 C1952 1.394 . S
C1954 C1955 1.369 . S
C1954 C1958 1.531 . S
C1955 C1954 1.369 . S
C1955 C1956 1.410 1_556 S
C1955 C1963 1.503 . S
C1956 C1955 1.410 1_554 S
C1956 C1957 1.392 . S
C1956 C1959 1.511 . S
C1957 C1953 1.376 1_554 S
C1957 C1956 1.392 . S
C1957 H1969 0.929 . S
C1958 C1954 1.531 . S
C1958 H1970 0.960 . S
C1958 H1971 0.962 . S
C1958 H1972 0.960 . S
C1959 C1956 1.511 . S
C1959 H1973 0.961 . S
C1959 H1974 0.961 . S
C1959 H1975 0.961 . S
C1960 C1961 1.370 1_554 S
C1960 C1962 1.363 . S
C1960 H1976 0.931 . S
C1961 C1960 1.370 1_556 S
C1961 C1965 1.408 . S
C1962 C1960 1.363 . S
C1962 C1963 1.370 1_554 S
C1962 C1966 1.524 . S
C1963 C1955 1.503 . S
C1963 C1962 1.370 1_556 S
C1963 C1964 1.403 . S
C1964 C1963 1.403 . S
C1964 C1965 1.404 . S
C1964 C1967 1.539 . S
C1965 C1961 1.408 . S
C1965 C1964 1.404 . S
C1965 H1977 0.930 . S
C1966 C1962 1.524 . S
C1966 H1978 0.956 . S
C1966 H1979 0.961 . S
C1966 H1980 0.961 . S
C1967 C1964 1.539 . S
C1967 H1981 0.958 . S
C1967 H1982 0.961 . S
C1967 H1983 0.960 . S
H1968 C1952 0.931 . S
H1969 C1957 0.929 . S
H1970 C1958 0.960 . S
H1971 C1958 0.962 . S
H1972 C1958 0.960 . S
H1973 C1959 0.961 . S
H1974 C1959 0.961 . S
H1975 C1959 0.961 . S
H1976 C1960 0.931 . S
H1977 C1965 0.930 . S
H1978 C1966 0.956 . S
H1979 C1966 0.961 . S
H1980 C1966 0.961 . S
H1981 C1967 0.958 . S
H1982 C1967 0.961 . S
H1983 C1967 0.960 . S
C1984 C1985 1.385 1_556 S
C1984 C1986 1.390 1_556 S
C1984 H2000 0.941 . S
C1985 C1984 1.385 1_554 S
C1985 C1989 1.376 . S
C1986 C1984 1.390 1_554 S
C1986 C1987 1.369 . S
C1986 C1990 1.531 1_554 S
C1987 C1986 1.369 . S
C1987 C1988 1.410 . S
C1987 C1995 1.503 . S
C1988 C1987 1.410 . S
C1988 C1989 1.392 . S
C1988 C1991 1.511 . S
C1989 C1985 1.376 . S
C1989 C1988 1.392 . S
C1989 H2001 0.929 . S
C1990 C1986 1.531 1_556 S
C1990 H2002 0.960 1_556 S
C1990 H2003 0.962 . S
C1990 H2004 0.960 . S
C1991 C1988 1.511 . S
C1991 H2005 0.961 . S
C1991 H2006 0.961 . S
C1991 H2007 0.961 . S
C1992 C1993 1.370 1_556 S
C1992 C1994 1.363 . S
C1992 H2008 0.931 . S
C1993 C1992 1.370 1_554 S
C1993 C1997 1.408 . S
C1994 C1992 1.363 . S
C1994 C1995 1.370 1_556 S
C1994 C1998 1.524 . S
C1995 C1987 1.503 . S
C1995 C1994 1.370 1_554 S
C1995 C1996 1.403 . S
C1996 C1995 1.403 . S
C1996 C1997 1.404 . S
C1996 C1999 1.539 . S
C1997 C1993 1.408 . S
C1997 C1996 1.404 . S
C1997 H2009 0.930 . S
C1998 C1994 1.524 . S
C1998 H2010 0.956 . S
C1998 H2011 0.961 . S
C1998 H2012 0.961 . S
C1999 C1996 1.539 . S
C1999 H2013 0.958 . S
C1999 H2014 0.961 . S
C1999 H2015 0.960 . S
H2000 C1984 0.941 . S
H2001 C1989 0.929 . S
H2002 C1990 0.960 1_554 S
H2003 C1990 0.962 . S
H2004 C1990 0.960 . S
H2005 C1991 0.961 . S
H2006 C1991 0.961 . S
H2007 C1991 0.961 . S
H2008 C1992 0.931 . S
H2009 C1997 0.930 . S
H2010 C1998 0.956 . S
H2011 C1998 0.961 . S
H2012 C1998 0.961 . S
H2013 C1999 0.958 . S
H2014 C1999 0.961 . S
H2015 C1999 0.960 . S
C2016 C2017 1.391 . S
C2016 C2018 1.394 . S
C2016 H2032 0.931 . S
C2017 C2016 1.391 . S
C2017 C2021 1.376 1_554 S
C2018 C2016 1.394 . S
C2018 C2019 1.369 . S
C2018 C2022 1.531 . S
C2019 C2018 1.369 . S
C2019 C2020 1.410 1_554 S
C2019 C2027 1.503 . S
C2020 C2019 1.410 1_556 S
C2020 C2021 1.392 . S
C2020 C2023 1.511 . S
C2021 C2017 1.376 1_556 S
C2021 C2020 1.392 . S
C2021 H2033 0.929 . S
C2022 C2018 1.531 . S
C2022 H2034 0.960 . S
C2022 H2035 0.962 . S
C2022 H2036 0.960 . S
C2023 C2020 1.511 . S
C2023 H2037 0.961 . S
C2023 H2038 0.961 . S
C2023 H2039 0.961 1_556 S
C2024 C2025 1.370 . S
C2024 C2026 1.363 . S
C2024 H2040 0.931 . S
C2025 C2024 1.370 . S
C2025 C2029 1.408 1_556 S
C2026 C2024 1.363 . S
C2026 C2027 1.370 1_556 S
C2026 C2030 1.524 . S
C2027 C2019 1.503 . S
C2027 C2026 1.370 1_554 S
C2027 C2028 1.403 . S
C2028 C2027 1.403 . S
C2028 C2029 1.404 . S
C2028 C2031 1.539 . S
C2029 C2025 1.408 1_554 S
C2029 C2028 1.404 . S
C2029 H2041 0.930 . S
C2030 C2026 1.524 . S
C2030 H2042 0.956 . S
C2030 H2043 0.961 . S
C2030 H2044 0.961 . S
C2031 C2028 1.539 . S
C2031 H2045 0.958 . S
C2031 H2046 0.961 . S
C2031 H2047 0.960 . S
H2032 C2016 0.931 . S
H2033 C2021 0.929 . S
H2034 C2022 0.960 . S
H2035 C2022 0.962 . S
H2036 C2022 0.960 . S
H2037 C2023 0.961 . S
H2038 C2023 0.961 . S
H2039 C2023 0.961 1_554 S
H2040 C2024 0.931 . S
H2041 C2029 0.930 . S
H2042 C2030 0.956 . S
H2043 C2030 0.961 . S
H2044 C2030 0.961 . S
H2045 C2031 0.958 . S
H2046 C2031 0.961 . S
H2047 C2031 0.960 . S
C2048 C2049 1.387 1_556 S
C2048 C2050 1.394 . S
C2048 H2064 0.934 . S
C2049 C2048 1.387 1_554 S
C2049 C2053 1.376 . S
C2050 C2048 1.394 . S
C2050 C2051 1.369 1_556 S
C2050 C2054 1.531 . S
C2051 C2050 1.369 1_554 S
C2051 C2052 1.410 . S
C2051 C2059 1.503 . S
C2052 C2051 1.410 . S
C2052 C2053 1.392 . S
C2052 C2055 1.511 . S
C2053 C2049 1.376 . S
C2053 C2052 1.392 . S
C2053 H2065 0.929 . S
C2054 C2050 1.531 . S
C2054 H2066 0.960 . S
C2054 H2067 0.962 1_556 S
C2054 H2068 0.960 . S
C2055 C2052 1.511 . S
C2055 H2069 0.961 . S
C2055 H2070 0.961 . S
C2055 H2071 0.961 . S
C2056 C2057 1.370 . S
C2056 C2058 1.363 . S
C2056 H2072 0.931 . S
C2057 C2056 1.370 . S
C2057 C2061 1.408 1_554 S
C2058 C2056 1.363 . S
C2058 C2059 1.370 . S
C2058 C2062 1.524 . S
C2059 C2051 1.503 . S
C2059 C2058 1.370 . S
C2059 C2060 1.403 1_554 S
C2060 C2059 1.403 1_556 S
C2060 C2061 1.404 . S
C2060 C2063 1.539 . S
C2061 C2057 1.408 1_556 S
C2061 C2060 1.404 . S
C2061 H2073 0.930 . S
C2062 C2058 1.524 . S
C2062 H2074 0.956 . S
C2062 H2075 0.961 . S
C2062 H2076 0.961 . S
C2063 C2060 1.539 . S
C2063 H2077 0.958 . S
C2063 H2078 0.961 . S
C2063 H2079 0.960 . S
H2064 C2048 0.934 . S
H2065 C2053 0.929 . S
H2066 C2054 0.960 . S
H2067 C2054 0.962 1_554 S
H2068 C2054 0.960 . S
H2069 C2055 0.961 . S
H2070 C2055 0.961 . S
H2071 C2055 0.961 . S
H2072 C2056 0.931 . S
H2073 C2061 0.930 . S
H2074 C2062 0.956 . S
H2075 C2062 0.961 . S
H2076 C2062 0.961 . S
H2077 C2063 0.958 . S
H2078 C2063 0.961 . S
H2079 C2063 0.960 . S
C2080 C2081 1.391 . S
C2080 C2082 1.394 . S
C2080 H2096 0.931 . S
C2081 C2080 1.391 . S
C2081 C2085 1.376 . S
C2082 C2080 1.394 . S
C2082 C2083 1.369 . S
C2082 C2086 1.531 . S
C2083 C2082 1.369 . S
C2083 C2084 1.410 . S
C2083 C2091 1.503 . S
C2084 C2083 1.410 . S
C2084 C2085 1.392 . S
C2084 C2087 1.511 . S
C2085 C2081 1.376 . S
C2085 C2084 1.392 . S
C2085 H2097 0.929 . S
C2086 C2082 1.531 . S
C2086 H2098 0.960 . S
C2086 H2099 0.962 1_554 S
C2086 H2100 0.960 . S
C2087 C2084 1.511 . S
C2087 H2101 0.961 . S
C2087 H2102 0.961 . S
C2087 H2103 0.961 . S
C2088 C2089 1.370 1_556 S
C2088 C2090 1.363 . S
C2088 H2104 0.931 . S
C2089 C2088 1.370 1_554 S
C2089 C2093 1.408 . S
C2090 C2088 1.363 . S
C2090 C2091 1.370 1_556 S
C2090 C2094 1.524 . S
C2091 C2083 1.503 . S
C2091 C2090 1.370 1_554 S
C2091 C2092 1.403 . S
C2092 C2091 1.403 . S
C2092 C2093 1.404 . S
C2092 C2095 1.539 . S
C2093 C2089 1.408 . S
C2093 C2092 1.404 . S
C2093 H2105 0.930 . S
C2094 C2090 1.524 . S
C2094 H2106 0.956 . S
C2094 H2107 0.961 . S
C2094 H2108 0.961 . S
C2095 C2092 1.539 . S
C2095 H2109 0.958 . S
C2095 H2110 0.961 . S
C2095 H2111 0.960 . S
H2096 C2080 0.931 . S
H2097 C2085 0.929 . S
H2098 C2086 0.960 . S
H2099 C2086 0.962 1_556 S
H2100 C2086 0.960 . S
H2101 C2087 0.961 . S
H2102 C2087 0.961 . S
H2103 C2087 0.961 . S
H2104 C2088 0.931 . S
H2105 C2093 0.930 . S
H2106 C2094 0.956 . S
H2107 C2094 0.961 . S
H2108 C2094 0.961 . S
H2109 C2095 0.958 . S
H2110 C2095 0.961 . S
H2111 C2095 0.960 . S
C2112 C2113 1.391 . S
C2112 C2114 1.394 . S
C2112 H2128 0.931 . S
C2113 C2112 1.391 . S
C2113 C2117 1.376 . S
C2114 C2112 1.394 . S
C2114 C2115 1.369 . S
C2114 C2118 1.531 . S
C2115 C2114 1.369 . S
C2115 C2116 1.410 . S
C2115 C2123 1.503 . S
C2116 C2115 1.410 . S
C2116 C2117 1.392 . S
C2116 C2119 1.511 . S
C2117 C2113 1.376 . S
C2117 C2116 1.392 . S
C2117 H2129 0.929 . S
C2118 C2114 1.531 . S
C2118 H2130 0.960 . S
C2118 H2131 0.962 . S
C2118 H2132 0.960 . S
C2119 C2116 1.511 . S
C2119 H2133 0.961 . S
C2119 H2134 0.961 . S
C2119 H2135 0.961 . S
C2120 C2121 1.370 . S
C2120 C2122 1.363 . S
C2120 H2136 0.931 . S
C2121 C2120 1.370 . S
C2121 C2125 1.408 . S
C2122 C2120 1.363 . S
C2122 C2123 1.370 . S
C2122 C2126 1.524 . S
C2123 C2115 1.503 . S
C2123 C2122 1.370 . S
C2123 C2124 1.403 . S
C2124 C2123 1.403 . S
C2124 C2125 1.404 . S
C2124 C2127 1.539 . S
C2125 C2121 1.408 . S
C2125 C2124 1.404 . S
C2125 H2137 0.930 . S
C2126 C2122 1.524 . S
C2126 H2138 0.956 . S
C2126 H2139 0.961 . S
C2126 H2140 0.961 . S
C2127 C2124 1.539 . S
C2127 H2141 0.958 . S
C2127 H2142 0.961 . S
C2127 H2143 0.960 . S
H2128 C2112 0.931 . S
H2129 C2117 0.929 . S
H2130 C2118 0.960 . S
H2131 C2118 0.962 . S
H2132 C2118 0.960 . S
H2133 C2119 0.961 . S
H2134 C2119 0.961 . S
H2135 C2119 0.961 . S
H2136 C2120 0.931 . S
H2137 C2125 0.930 . S
H2138 C2126 0.956 . S
H2139 C2126 0.961 . S
H2140 C2126 0.961 . S
H2141 C2127 0.958 . S
H2142 C2127 0.961 . S
H2143 C2127 0.960 . S
C2144 C2145 1.391 . S
C2144 C2146 1.394 . S
C2144 H2160 0.931 . S
C2145 C2144 1.391 . S
C2145 C2149 1.376 . S
C2146 C2144 1.394 . S
C2146 C2147 1.369 . S
C2146 C2150 1.531 . S
C2147 C2146 1.369 . S
C2147 C2148 1.410 . S
C2147 C2155 1.503 . S
C2148 C2147 1.410 . S
C2148 C2149 1.392 . S
C2148 C2151 1.511 . S
C2149 C2145 1.376 . S
C2149 C2148 1.392 . S
C2149 H2161 0.929 . S
C2150 C2146 1.531 . S
C2150 H2162 0.960 . S
C2150 H2163 0.962 . S
C2150 H2164 0.960 . S
C2151 C2148 1.511 . S
C2151 H2165 0.961 . S
C2151 H2166 0.961 . S
C2151 H2167 0.961 . S
C2152 C2153 1.370 . S
C2152 C2154 1.363 . S
C2152 H2168 0.931 . S
C2153 C2152 1.370 . S
C2153 C2157 1.408 . S
C2154 C2152 1.363 . S
C2154 C2155 1.370 . S
C2154 C2158 1.524 . S
C2155 C2147 1.503 . S
C2155 C2154 1.370 . S
C2155 C2156 1.403 . S
C2156 C2155 1.403 . S
C2156 C2157 1.404 . S
C2156 C2159 1.539 . S
C2157 C2153 1.408 . S
C2157 C2156 1.404 . S
C2157 H2169 0.930 . S
C2158 C2154 1.524 . S
C2158 H2170 0.956 . S
C2158 H2171 0.961 . S
C2158 H2172 0.961 . S
C2159 C2156 1.539 . S
C2159 H2173 0.958 . S
C2159 H2174 0.961 . S
C2159 H2175 0.960 . S
H2160 C2144 0.931 . S
H2161 C2149 0.929 . S
H2162 C2150 0.960 . S
H2163 C2150 0.962 . S
H2164 C2150 0.960 . S
H2165 C2151 0.961 . S
H2166 C2151 0.961 . S
H2167 C2151 0.961 . S
H2168 C2152 0.931 . S
H2169 C2157 0.930 . S
H2170 C2158 0.956 . S
H2171 C2158 0.961 . S
H2172 C2158 0.961 . S
H2173 C2159 0.958 . S
H2174 C2159 0.961 . S
H2175 C2159 0.960 . S
C2176 C2177 1.391 . S
C2176 C2178 1.394 . S
C2176 H2192 0.931 . S
C2177 C2176 1.391 . S
C2177 C2181 1.376 . S
C2178 C2176 1.394 . S
C2178 C2179 1.369 . S
C2178 C2182 1.531 . S
C2179 C2178 1.369 . S
C2179 C2180 1.410 . S
C2179 C2187 1.503 . S
C2180 C2179 1.410 . S
C2180 C2181 1.392 . S
C2180 C2183 1.511 . S
C2181 C2177 1.376 . S
C2181 C2180 1.392 . S
C2181 H2193 0.929 . S
C2182 C2178 1.531 . S
C2182 H2194 0.960 . S
C2182 H2195 0.962 . S
C2182 H2196 0.960 . S
C2183 C2180 1.511 . S
C2183 H2197 0.961 . S
C2183 H2198 0.961 . S
C2183 H2199 0.961 . S
C2184 C2185 1.370 . S
C2184 C2186 1.363 . S
C2184 H2200 0.931 . S
C2185 C2184 1.370 . S
C2185 C2189 1.408 . S
C2186 C2184 1.363 . S
C2186 C2187 1.370 . S
C2186 C2190 1.524 . S
C2187 C2179 1.503 . S
C2187 C2186 1.370 . S
C2187 C2188 1.403 . S
C2188 C2187 1.403 . S
C2188 C2189 1.404 . S
C2188 C2191 1.539 . S
C2189 C2185 1.408 . S
C2189 C2188 1.404 . S
C2189 H2201 0.930 . S
C2190 C2186 1.524 . S
C2190 H2202 0.956 . S
C2190 H2203 0.961 . S
C2190 H2204 0.961 . S
C2191 C2188 1.539 . S
C2191 H2205 0.958 . S
C2191 H2206 0.961 . S
C2191 H2207 0.960 . S
H2192 C2176 0.931 . S
H2193 C2181 0.929 . S
H2194 C2182 0.960 . S
H2195 C2182 0.962 . S
H2196 C2182 0.960 . S
H2197 C2183 0.961 . S
H2198 C2183 0.961 . S
H2199 C2183 0.961 . S
H2200 C2184 0.931 . S
H2201 C2189 0.930 . S
H2202 C2190 0.956 . S
H2203 C2190 0.961 . S
H2204 C2190 0.961 . S
H2205 C2191 0.958 . S
H2206 C2191 0.961 . S
H2207 C2191 0.960 . S
C2208 C2209 1.391 . S
C2208 C2210 1.394 . S
C2208 H2224 0.931 . S
C2209 C2208 1.391 . S
C2209 C2213 1.376 . S
C2210 C2208 1.394 . S
C2210 C2211 1.369 . S
C2210 C2214 1.531 . S
C2211 C2210 1.369 . S
C2211 C2212 1.410 . S
C2211 C2219 1.503 . S
C2212 C2211 1.410 . S
C2212 C2213 1.392 . S
C2212 C2215 1.511 . S
C2213 C2209 1.376 . S
C2213 C2212 1.392 . S
C2213 H2225 0.929 . S
C2214 C2210 1.531 . S
C2214 H2226 0.960 . S
C2214 H2227 0.962 . S
C2214 H2228 0.960 . S
C2215 C2212 1.511 . S
C2215 H2229 0.961 . S
C2215 H2230 0.961 . S
C2215 H2231 0.961 . S
C2216 C2217 1.370 . S
C2216 C2218 1.363 . S
C2216 H2232 0.931 . S
C2217 C2216 1.370 . S
C2217 C2221 1.408 . S
C2218 C2216 1.363 . S
C2218 C2219 1.370 . S
C2218 C2222 1.524 . S
C2219 C2211 1.503 . S
C2219 C2218 1.370 . S
C2219 C2220 1.403 . S
C2220 C2219 1.403 . S
C2220 C2221 1.404 . S
C2220 C2223 1.539 . S
C2221 C2217 1.408 . S
C2221 C2220 1.404 . S
C2221 H2233 0.930 . S
C2222 C2218 1.524 . S
C2222 H2234 0.956 . S
C2222 H2235 0.961 . S
C2222 H2236 0.961 . S
C2223 C2220 1.539 . S
C2223 H2237 0.958 . S
C2223 H2238 0.961 . S
C2223 H2239 0.960 . S
H2224 C2208 0.931 . S
H2225 C2213 0.929 . S
H2226 C2214 0.960 . S
H2227 C2214 0.962 . S
H2228 C2214 0.960 . S
H2229 C2215 0.961 . S
H2230 C2215 0.961 . S
H2231 C2215 0.961 . S
H2232 C2216 0.931 . S
H2233 C2221 0.930 . S
H2234 C2222 0.956 . S
H2235 C2222 0.961 . S
H2236 C2222 0.961 . S
H2237 C2223 0.958 . S
H2238 C2223 0.961 . S
H2239 C2223 0.960 . S
C2240 C2241 1.391 . S
C2240 C2242 1.394 . S
C2240 H2256 0.931 . S
C2241 C2240 1.391 . S
C2241 C2245 1.376 . S
C2242 C2240 1.394 . S
C2242 C2243 1.369 . S
C2242 C2246 1.531 . S
C2243 C2242 1.369 . S
C2243 C2244 1.410 . S
C2243 C2251 1.503 . S
C2244 C2243 1.410 . S
C2244 C2245 1.392 . S
C2244 C2247 1.511 . S
C2245 C2241 1.376 . S
C2245 C2244 1.392 . S
C2245 H2257 0.929 . S
C2246 C2242 1.531 . S
C2246 H2258 0.960 . S
C2246 H2259 0.962 . S
C2246 H2260 0.960 . S
C2247 C2244 1.511 . S
C2247 H2261 0.961 . S
C2247 H2262 0.961 . S
C2247 H2263 0.961 . S
C2248 C2249 1.370 . S
C2248 C2250 1.363 . S
C2248 H2264 0.931 . S
C2249 C2248 1.370 . S
C2249 C2253 1.408 . S
C2250 C2248 1.363 . S
C2250 C2251 1.370 . S
C2250 C2254 1.524 . S
C2251 C2243 1.503 . S
C2251 C2250 1.370 . S
C2251 C2252 1.403 . S
C2252 C2251 1.403 . S
C2252 C2253 1.404 . S
C2252 C2255 1.539 . S
C2253 C2249 1.408 . S
C2253 C2252 1.404 . S
C2253 H2265 0.930 . S
C2254 C2250 1.524 . S
C2254 H2266 0.956 . S
C2254 H2267 0.961 . S
C2254 H2268 0.961 . S
C2255 C2252 1.539 . S
C2255 H2269 0.958 . S
C2255 H2270 0.961 . S
C2255 H2271 0.960 . S
H2256 C2240 0.931 . S
H2257 C2245 0.929 . S
H2258 C2246 0.960 . S
H2259 C2246 0.962 . S
H2260 C2246 0.960 . S
H2261 C2247 0.961 . S
H2262 C2247 0.961 . S
H2263 C2247 0.961 . S
H2264 C2248 0.931 . S
H2265 C2253 0.930 . S
H2266 C2254 0.956 . S
H2267 C2254 0.961 . S
H2268 C2254 0.961 . S
H2269 C2255 0.958 . S
H2270 C2255 0.961 . S
H2271 C2255 0.960 . S
C2272 C2273 1.391 . S
C2272 C2274 1.394 . S
C2272 H2288 0.931 . S
C2273 C2272 1.391 . S
C2273 C2277 1.376 . S
C2274 C2272 1.394 . S
C2274 C2275 1.369 . S
C2274 C2278 1.531 . S
C2275 C2274 1.369 . S
C2275 C2276 1.410 . S
C2275 C2283 1.503 . S
C2276 C2275 1.410 . S
C2276 C2277 1.392 . S
C2276 C2279 1.511 . S
C2277 C2273 1.376 . S
C2277 C2276 1.392 . S
C2277 H2289 0.929 . S
C2278 C2274 1.531 . S
C2278 H2290 0.960 . S
C2278 H2291 0.962 . S
C2278 H2292 0.960 . S
C2279 C2276 1.511 . S
C2279 H2293 0.961 . S
C2279 H2294 0.961 . S
C2279 H2295 0.961 . S
C2280 C2281 1.370 . S
C2280 C2282 1.363 . S
C2280 H2296 0.931 . S
C2281 C2280 1.370 . S
C2281 C2285 1.408 . S
C2282 C2280 1.363 . S
C2282 C2283 1.370 . S
C2282 C2286 1.524 . S
C2283 C2275 1.503 . S
C2283 C2282 1.370 . S
C2283 C2284 1.403 . S
C2284 C2283 1.403 . S
C2284 C2285 1.404 . S
C2284 C2287 1.539 . S
C2285 C2281 1.408 . S
C2285 C2284 1.404 . S
C2285 H2297 0.930 . S
C2286 C2282 1.524 . S
C2286 H2298 0.956 . S
C2286 H2299 0.961 . S
C2286 H2300 0.961 . S
C2287 C2284 1.539 . S
C2287 H2301 0.958 . S
C2287 H2302 0.961 . S
C2287 H2303 0.960 . S
H2288 C2272 0.931 . S
H2289 C2277 0.929 . S
H2290 C2278 0.960 . S
H2291 C2278 0.962 . S
H2292 C2278 0.960 . S
H2293 C2279 0.961 . S
H2294 C2279 0.961 . S
H2295 C2279 0.961 . S
H2296 C2280 0.931 . S
H2297 C2285 0.930 . S
H2298 C2286 0.956 . S
H2299 C2286 0.961 . S
H2300 C2286 0.961 . S
H2301 C2287 0.958 . S
H2302 C2287 0.961 . S
H2303 C2287 0.960 . S
C2304 C2305 1.391 . S
C2304 C2306 1.394 . S
C2304 H2320 0.931 . S
C2305 C2304 1.391 . S
C2305 C2309 1.376 . S
C2306 C2304 1.394 . S
C2306 C2307 1.369 . S
C2306 C2310 1.531 . S
C2307 C2306 1.369 . S
C2307 C2308 1.410 . S
C2307 C2315 1.503 . S
C2308 C2307 1.410 . S
C2308 C2309 1.392 . S
C2308 C2311 1.511 . S
C2309 C2305 1.376 . S
C2309 C2308 1.392 . S
C2309 H2321 0.929 . S
C2310 C2306 1.531 . S
C2310 H2322 0.960 . S
C2310 H2323 0.962 . S
C2310 H2324 0.960 . S
C2311 C2308 1.511 . S
C2311 H2325 0.961 . S
C2311 H2326 0.961 . S
C2311 H2327 0.961 . S
C2312 C2313 1.370 . S
C2312 C2314 1.363 . S
C2312 H2328 0.931 . S
C2313 C2312 1.370 . S
C2313 C2317 1.408 . S
C2314 C2312 1.363 . S
C2314 C2315 1.370 . S
C2314 C2318 1.524 . S
C2315 C2307 1.503 . S
C2315 C2314 1.370 . S
C2315 C2316 1.403 . S
C2316 C2315 1.403 . S
C2316 C2317 1.404 . S
C2316 C2319 1.539 . S
C2317 C2313 1.408 . S
C2317 C2316 1.404 . S
C2317 H2329 0.930 . S
C2318 C2314 1.524 . S
C2318 H2330 0.956 . S
C2318 H2331 0.961 . S
C2318 H2332 0.961 . S
C2319 C2316 1.539 . S
C2319 H2333 0.958 . S
C2319 H2334 0.961 . S
C2319 H2335 0.960 . S
H2320 C2304 0.931 . S
H2321 C2309 0.929 . S
H2322 C2310 0.960 . S
H2323 C2310 0.962 . S
H2324 C2310 0.960 . S
H2325 C2311 0.961 . S
H2326 C2311 0.961 . S
H2327 C2311 0.961 . S
H2328 C2312 0.931 . S
H2329 C2317 0.930 . S
H2330 C2318 0.956 . S
H2331 C2318 0.961 . S
H2332 C2318 0.961 . S
H2333 C2319 0.958 . S
H2334 C2319 0.961 . S
H2335 C2319 0.960 . S
C2336 C2337 1.391 . S
C2336 C2338 1.394 . S
C2336 H2352 0.931 . S
C2337 C2336 1.391 . S
C2337 C2341 1.376 . S
C2338 C2336 1.394 . S
C2338 C2339 1.369 . S
C2338 C2342 1.531 . S
C2339 C2338 1.369 . S
C2339 C2340 1.410 . S
C2339 C2347 1.503 . S
C2340 C2339 1.410 . S
C2340 C2341 1.392 . S
C2340 C2343 1.511 . S
C2341 C2337 1.376 . S
C2341 C2340 1.392 . S
C2341 H2353 0.929 . S
C2342 C2338 1.531 . S
C2342 H2354 0.960 . S
C2342 H2355 0.962 . S
C2342 H2356 0.960 . S
C2343 C2340 1.511 . S
C2343 H2357 0.961 . S
C2343 H2358 0.961 . S
C2343 H2359 0.961 . S
C2344 C2345 1.370 . S
C2344 C2346 1.363 . S
C2344 H2360 0.931 . S
C2345 C2344 1.370 . S
C2345 C2349 1.408 . S
C2346 C2344 1.363 . S
C2346 C2347 1.370 . S
C2346 C2350 1.524 . S
C2347 C2339 1.503 . S
C2347 C2346 1.370 . S
C2347 C2348 1.403 . S
C2348 C2347 1.403 . S
C2348 C2349 1.404 . S
C2348 C2351 1.539 . S
C2349 C2345 1.408 . S
C2349 C2348 1.404 . S
C2349 H2361 0.930 . S
C2350 C2346 1.524 . S
C2350 H2362 0.956 . S
C2350 H2363 0.961 . S
C2350 H2364 0.961 . S
C2351 C2348 1.539 . S
C2351 H2365 0.958 . S
C2351 H2366 0.961 . S
C2351 H2367 0.960 . S
H2352 C2336 0.931 . S
H2353 C2341 0.929 . S
H2354 C2342 0.960 . S
H2355 C2342 0.962 . S
H2356 C2342 0.960 . S
H2357 C2343 0.961 . S
H2358 C2343 0.961 . S
H2359 C2343 0.961 . S
H2360 C2344 0.931 . S
H2361 C2349 0.930 . S
H2362 C2350 0.956 . S
H2363 C2350 0.961 . S
H2364 C2350 0.961 . S
H2365 C2351 0.958 . S
H2366 C2351 0.961 . S
H2367 C2351 0.960 . S
C2368 C2369 1.391 . S
C2368 C2370 1.394 . S
C2368 H2384 0.931 . S
C2369 C2368 1.391 . S
C2369 C2373 1.376 . S
C2370 C2368 1.394 . S
C2370 C2371 1.369 . S
C2370 C2374 1.531 . S
C2371 C2370 1.369 . S
C2371 C2372 1.410 . S
C2371 C2379 1.503 . S
C2372 C2371 1.410 . S
C2372 C2373 1.392 . S
C2372 C2375 1.511 . S
C2373 C2369 1.376 . S
C2373 C2372 1.392 . S
C2373 H2385 0.929 . S
C2374 C2370 1.531 . S
C2374 H2386 0.960 . S
C2374 H2387 0.962 . S
C2374 H2388 0.960 . S
C2375 C2372 1.511 . S
C2375 H2389 0.961 . S
C2375 H2390 0.961 . S
C2375 H2391 0.961 . S
C2376 C2377 1.370 . S
C2376 C2378 1.363 . S
C2376 H2392 0.931 . S
C2377 C2376 1.370 . S
C2377 C2381 1.408 . S
C2378 C2376 1.363 . S
C2378 C2379 1.370 . S
C2378 C2382 1.524 . S
C2379 C2371 1.503 . S
C2379 C2378 1.370 . S
C2379 C2380 1.403 . S
C2380 C2379 1.403 . S
C2380 C2381 1.404 . S
C2380 C2383 1.539 . S
C2381 C2377 1.408 . S
C2381 C2380 1.404 . S
C2381 H2393 0.930 . S
C2382 C2378 1.524 . S
C2382 H2394 0.956 . S
C2382 H2395 0.961 . S
C2382 H2396 0.961 . S
C2383 C2380 1.539 . S
C2383 H2397 0.958 . S
C2383 H2398 0.961 . S
C2383 H2399 0.960 . S
H2384 C2368 0.931 . S
H2385 C2373 0.929 . S
H2386 C2374 0.960 . S
H2387 C2374 0.962 . S
H2388 C2374 0.960 . S
H2389 C2375 0.961 . S
H2390 C2375 0.961 . S
H2391 C2375 0.961 . S
H2392 C2376 0.931 . S
H2393 C2381 0.930 . S
H2394 C2382 0.956 . S
H2395 C2382 0.961 . S
H2396 C2382 0.961 . S
H2397 C2383 0.958 . S
H2398 C2383 0.961 . S
H2399 C2383 0.960 . S
C2400 C2401 1.391 . S
C2400 C2402 1.394 . S
C2400 H2416 0.931 . S
C2401 C2400 1.391 . S
C2401 C2405 1.376 . S
C2402 C2400 1.394 . S
C2402 C2403 1.369 . S
C2402 C2406 1.531 . S
C2403 C2402 1.369 . S
C2403 C2404 1.410 . S
C2403 C2411 1.503 . S
C2404 C2403 1.410 . S
C2404 C2405 1.392 . S
C2404 C2407 1.511 . S
C2405 C2401 1.376 . S
C2405 C2404 1.392 . S
C2405 H2417 0.929 . S
C2406 C2402 1.531 . S
C2406 H2418 0.960 . S
C2406 H2419 0.962 . S
C2406 H2420 0.960 . S
C2407 C2404 1.511 . S
C2407 H2421 0.961 . S
C2407 H2422 0.961 . S
C2407 H2423 0.961 . S
C2408 C2409 1.370 . S
C2408 C2410 1.363 . S
C2408 H2424 0.931 . S
C2409 C2408 1.370 . S
C2409 C2413 1.408 . S
C2410 C2408 1.363 . S
C2410 C2411 1.370 . S
C2410 C2414 1.524 . S
C2411 C2403 1.503 . S
C2411 C2410 1.370 . S
C2411 C2412 1.403 . S
C2412 C2411 1.403 . S
C2412 C2413 1.404 . S
C2412 C2415 1.539 . S
C2413 C2409 1.408 . S
C2413 C2412 1.404 . S
C2413 H2425 0.930 . S
C2414 C2410 1.524 . S
C2414 H2426 0.956 . S
C2414 H2427 0.961 . S
C2414 H2428 0.961 . S
C2415 C2412 1.539 . S
C2415 H2429 0.958 . S
C2415 H2430 0.961 . S
C2415 H2431 0.960 . S
H2416 C2400 0.931 . S
H2417 C2405 0.929 . S
H2418 C2406 0.960 . S
H2419 C2406 0.962 . S
H2420 C2406 0.960 . S
H2421 C2407 0.961 . S
H2422 C2407 0.961 . S
H2423 C2407 0.961 . S
H2424 C2408 0.931 . S
H2425 C2413 0.930 . S
H2426 C2414 0.956 . S
H2427 C2414 0.961 . S
H2428 C2414 0.961 . S
H2429 C2415 0.958 . S
H2430 C2415 0.961 . S
H2431 C2415 0.960 . S
C2432 C2433 1.391 . S
C2432 C2434 1.394 . S
C2432 H2448 0.931 . S
C2433 C2432 1.391 . S
C2433 C2437 1.376 . S
C2434 C2432 1.394 . S
C2434 C2435 1.369 . S
C2434 C2438 1.531 . S
C2435 C2434 1.369 . S
C2435 C2436 1.410 . S
C2435 C2443 1.503 . S
C2436 C2435 1.410 . S
C2436 C2437 1.392 . S
C2436 C2439 1.511 . S
C2437 C2433 1.376 . S
C2437 C2436 1.392 . S
C2437 H2449 0.929 . S
C2438 C2434 1.531 . S
C2438 H2450 0.960 . S
C2438 H2451 0.962 . S
C2438 H2452 0.960 . S
C2439 C2436 1.511 . S
C2439 H2453 0.961 . S
C2439 H2454 0.961 . S
C2439 H2455 0.961 . S
C2440 C2441 1.370 . S
C2440 C2442 1.363 . S
C2440 H2456 0.931 . S
C2441 C2440 1.370 . S
C2441 C2445 1.408 . S
C2442 C2440 1.363 . S
C2442 C2443 1.370 . S
C2442 C2446 1.524 . S
C2443 C2435 1.503 . S
C2443 C2442 1.370 . S
C2443 C2444 1.403 . S
C2444 C2443 1.403 . S
C2444 C2445 1.404 . S
C2444 C2447 1.539 . S
C2445 C2441 1.408 . S
C2445 C2444 1.404 . S
C2445 H2457 0.930 . S
C2446 C2442 1.524 . S
C2446 H2458 0.956 . S
C2446 H2459 0.961 . S
C2446 H2460 0.961 . S
C2447 C2444 1.539 . S
C2447 H2461 0.958 . S
C2447 H2462 0.961 . S
C2447 H2463 0.960 . S
H2448 C2432 0.931 . S
H2449 C2437 0.929 . S
H2450 C2438 0.960 . S
H2451 C2438 0.962 . S
H2452 C2438 0.960 . S
H2453 C2439 0.961 . S
H2454 C2439 0.961 . S
H2455 C2439 0.961 . S
H2456 C2440 0.931 . S
H2457 C2445 0.930 . S
H2458 C2446 0.956 . S
H2459 C2446 0.961 . S
H2460 C2446 0.961 . S
H2461 C2447 0.958 . S
H2462 C2447 0.961 . S
H2463 C2447 0.960 . S
C2464 C2465 1.391 . S
C2464 C2466 1.394 . S
C2464 H2480 0.931 . S
C2465 C2464 1.391 . S
C2465 C2469 1.376 . S
C2466 C2464 1.394 . S
C2466 C2467 1.369 . S
C2466 C2470 1.531 . S
C2467 C2466 1.369 . S
C2467 C2468 1.410 . S
C2467 C2475 1.503 . S
C2468 C2467 1.410 . S
C2468 C2469 1.392 . S
C2468 C2471 1.511 . S
C2469 C2465 1.376 . S
C2469 C2468 1.392 . S
C2469 H2481 0.929 . S
C2470 C2466 1.531 . S
C2470 H2482 0.960 . S
C2470 H2483 0.962 . S
C2470 H2484 0.960 . S
C2471 C2468 1.511 . S
C2471 H2485 0.961 . S
C2471 H2486 0.961 . S
C2471 H2487 0.961 . S
C2472 C2473 1.370 . S
C2472 C2474 1.363 . S
C2472 H2488 0.931 . S
C2473 C2472 1.370 . S
C2473 C2477 1.408 . S
C2474 C2472 1.363 . S
C2474 C2475 1.370 . S
C2474 C2478 1.524 . S
C2475 C2467 1.503 . S
C2475 C2474 1.370 . S
C2475 C2476 1.403 . S
C2476 C2475 1.403 . S
C2476 C2477 1.404 . S
C2476 C2479 1.539 . S
C2477 C2473 1.408 . S
C2477 C2476 1.404 . S
C2477 H2489 0.930 . S
C2478 C2474 1.524 . S
C2478 H2490 0.956 . S
C2478 H2491 0.961 . S
C2478 H2492 0.961 . S
C2479 C2476 1.539 . S
C2479 H2493 0.958 . S
C2479 H2494 0.961 . S
C2479 H2495 0.960 . S
H2480 C2464 0.931 . S
H2481 C2469 0.929 . S
H2482 C2470 0.960 . S
H2483 C2470 0.962 . S
H2484 C2470 0.960 . S
H2485 C2471 0.961 . S
H2486 C2471 0.961 . S
H2487 C2471 0.961 . S
H2488 C2472 0.931 . S
H2489 C2477 0.930 . S
H2490 C2478 0.956 . S
H2491 C2478 0.961 . S
H2492 C2478 0.961 . S
H2493 C2479 0.958 . S
H2494 C2479 0.961 . S
H2495 C2479 0.960 . S
C2496 C2497 1.391 . S
C2496 C2498 1.394 . S
C2496 H2512 0.931 . S
C2497 C2496 1.391 . S
C2497 C2501 1.376 . S
C2498 C2496 1.394 . S
C2498 C2499 1.369 . S
C2498 C2502 1.531 . S
C2499 C2498 1.369 . S
C2499 C2500 1.410 . S
C2499 C2507 1.503 . S
C2500 C2499 1.410 . S
C2500 C2501 1.392 . S
C2500 C2503 1.511 . S
C2501 C2497 1.376 . S
C2501 C2500 1.392 . S
C2501 H2513 0.929 . S
C2502 C2498 1.531 . S
C2502 H2514 0.960 . S
C2502 H2515 0.962 . S
C2502 H2516 0.960 . S
C2503 C2500 1.511 . S
C2503 H2517 0.961 . S
C2503 H2518 0.961 . S
C2503 H2519 0.961 . S
C2504 C2505 1.370 . S
C2504 C2506 1.363 . S
C2504 H2520 0.931 . S
C2505 C2504 1.370 . S
C2505 C2509 1.408 . S
C2506 C2504 1.363 . S
C2506 C2507 1.370 . S
C2506 C2510 1.524 . S
C2507 C2499 1.503 . S
C2507 C2506 1.370 . S
C2507 C2508 1.403 . S
C2508 C2507 1.403 . S
C2508 C2509 1.404 . S
C2508 C2511 1.539 . S
C2509 C2505 1.408 . S
C2509 C2508 1.404 . S
C2509 H2521 0.930 . S
C2510 C2506 1.524 . S
C2510 H2522 0.956 . S
C2510 H2523 0.961 . S
C2510 H2524 0.961 . S
C2511 C2508 1.539 . S
C2511 H2525 0.958 . S
C2511 H2526 0.961 . S
C2511 H2527 0.960 . S
H2512 C2496 0.931 . S
H2513 C2501 0.929 . S
H2514 C2502 0.960 . S
H2515 C2502 0.962 . S
H2516 C2502 0.960 . S
H2517 C2503 0.961 . S
H2518 C2503 0.961 . S
H2519 C2503 0.961 . S
H2520 C2504 0.931 . S
H2521 C2509 0.930 . S
H2522 C2510 0.956 . S
H2523 C2510 0.961 . S
H2524 C2510 0.961 . S
H2525 C2511 0.958 . S
H2526 C2511 0.961 . S
H2527 C2511 0.960 . S
C2528 C2529 1.391 . S
C2528 C2530 1.394 . S
C2528 H2544 0.931 . S
C2529 C2528 1.391 . S
C2529 C2533 1.376 . S
C2530 C2528 1.394 . S
C2530 C2531 1.369 . S
C2530 C2534 1.531 . S
C2531 C2530 1.369 . S
C2531 C2532 1.410 . S
C2531 C2539 1.503 . S
C2532 C2531 1.410 . S
C2532 C2533 1.392 . S
C2532 C2535 1.511 . S
C2533 C2529 1.376 . S
C2533 C2532 1.392 . S
C2533 H2545 0.929 . S
C2534 C2530 1.531 . S
C2534 H2546 0.960 . S
C2534 H2547 0.962 . S
C2534 H2548 0.960 . S
C2535 C2532 1.511 . S
C2535 H2549 0.961 . S
C2535 H2550 0.961 . S
C2535 H2551 0.961 . S
C2536 C2537 1.370 . S
C2536 C2538 1.363 . S
C2536 H2552 0.931 . S
C2537 C2536 1.370 . S
C2537 C2541 1.408 . S
C2538 C2536 1.363 . S
C2538 C2539 1.370 . S
C2538 C2542 1.524 . S
C2539 C2531 1.503 . S
C2539 C2538 1.370 . S
C2539 C2540 1.403 . S
C2540 C2539 1.403 . S
C2540 C2541 1.404 . S
C2540 C2543 1.539 . S
C2541 C2537 1.408 . S
C2541 C2540 1.404 . S
C2541 H2553 0.930 . S
C2542 C2538 1.524 . S
C2542 H2554 0.956 . S
C2542 H2555 0.961 . S
C2542 H2556 0.961 . S
C2543 C2540 1.539 . S
C2543 H2557 0.958 . S
C2543 H2558 0.961 . S
C2543 H2559 0.960 . S
H2544 C2528 0.931 . S
H2545 C2533 0.929 . S
H2546 C2534 0.960 . S
H2547 C2534 0.962 . S
H2548 C2534 0.960 . S
H2549 C2535 0.961 . S
H2550 C2535 0.961 . S
H2551 C2535 0.961 . S
H2552 C2536 0.931 . S
H2553 C2541 0.930 . S
H2554 C2542 0.956 . S
H2555 C2542 0.961 . S
H2556 C2542 0.961 . S
H2557 C2543 0.958 . S
H2558 C2543 0.961 . S
H2559 C2543 0.960 . S
C2560 C2561 1.391 . S
C2560 C2562 1.394 . S
C2560 H2576 0.931 . S
C2561 C2560 1.391 . S
C2561 C2565 1.376 . S
C2562 C2560 1.394 . S
C2562 C2563 1.369 . S
C2562 C2566 1.531 . S
C2563 C2562 1.369 . S
C2563 C2564 1.410 . S
C2563 C2571 1.503 . S
C2564 C2563 1.410 . S
C2564 C2565 1.392 . S
C2564 C2567 1.511 . S
C2565 C2561 1.376 . S
C2565 C2564 1.392 . S
C2565 H2577 0.929 . S
C2566 C2562 1.531 . S
C2566 H2578 0.960 . S
C2566 H2579 0.962 . S
C2566 H2580 0.960 . S
C2567 C2564 1.511 . S
C2567 H2581 0.961 . S
C2567 H2582 0.961 . S
C2567 H2583 0.961 . S
C2568 C2569 1.370 . S
C2568 C2570 1.363 . S
C2568 H2584 0.931 . S
C2569 C2568 1.370 . S
C2569 C2573 1.408 . S
C2570 C2568 1.363 . S
C2570 C2571 1.370 . S
C2570 C2574 1.524 . S
C2571 C2563 1.503 . S
C2571 C2570 1.370 . S
C2571 C2572 1.403 . S
C2572 C2571 1.403 . S
C2572 C2573 1.404 . S
C2572 C2575 1.539 . S
C2573 C2569 1.408 . S
C2573 C2572 1.404 . S
C2573 H2585 0.930 . S
C2574 C2570 1.524 . S
C2574 H2586 0.956 . S
C2574 H2587 0.961 . S
C2574 H2588 0.961 . S
C2575 C2572 1.539 . S
C2575 H2589 0.958 . S
C2575 H2590 0.961 . S
C2575 H2591 0.960 . S
H2576 C2560 0.931 . S
H2577 C2565 0.929 . S
H2578 C2566 0.960 . S
H2579 C2566 0.962 . S
H2580 C2566 0.960 . S
H2581 C2567 0.961 . S
H2582 C2567 0.961 . S
H2583 C2567 0.961 . S
H2584 C2568 0.931 . S
H2585 C2573 0.930 . S
H2586 C2574 0.956 . S
H2587 C2574 0.961 . S
H2588 C2574 0.961 . S
H2589 C2575 0.958 . S
H2590 C2575 0.961 . S
H2591 C2575 0.960 . S
C2592 C2593 1.391 . S
C2592 C2594 1.394 . S
C2592 H2608 0.931 . S
C2593 C2592 1.391 . S
C2593 C2597 1.376 . S
C2594 C2592 1.394 . S
C2594 C2595 1.369 . S
C2594 C2598 1.531 . S
C2595 C2594 1.369 . S
C2595 C2596 1.410 . S
C2595 C2603 1.503 . S
C2596 C2595 1.410 . S
C2596 C2597 1.392 . S
C2596 C2599 1.511 . S
C2597 C2593 1.376 . S
C2597 C2596 1.392 . S
C2597 H2609 0.929 . S
C2598 C2594 1.531 . S
C2598 H2610 0.960 . S
C2598 H2611 0.962 . S
C2598 H2612 0.960 . S
C2599 C2596 1.511 . S
C2599 H2613 0.961 . S
C2599 H2614 0.961 . S
C2599 H2615 0.961 . S
C2600 C2601 1.370 . S
C2600 C2602 1.363 . S
C2600 H2616 0.931 . S
C2601 C2600 1.370 . S
C2601 C2605 1.408 . S
C2602 C2600 1.363 . S
C2602 C2603 1.370 . S
C2602 C2606 1.524 . S
C2603 C2595 1.503 . S
C2603 C2602 1.370 . S
C2603 C2604 1.403 . S
C2604 C2603 1.403 . S
C2604 C2605 1.404 . S
C2604 C2607 1.539 . S
C2605 C2601 1.408 . S
C2605 C2604 1.404 . S
C2605 H2617 0.930 . S
C2606 C2602 1.524 . S
C2606 H2618 0.956 . S
C2606 H2619 0.961 . S
C2606 H2620 0.961 . S
C2607 C2604 1.539 . S
C2607 H2621 0.958 . S
C2607 H2622 0.961 . S
C2607 H2623 0.960 . S
H2608 C2592 0.931 . S
H2609 C2597 0.929 . S
H2610 C2598 0.960 . S
H2611 C2598 0.962 . S
H2612 C2598 0.960 . S
H2613 C2599 0.961 . S
H2614 C2599 0.961 . S
H2615 C2599 0.961 . S
H2616 C2600 0.931 . S
H2617 C2605 0.930 . S
H2618 C2606 0.956 . S
H2619 C2606 0.961 . S
H2620 C2606 0.961 . S
H2621 C2607 0.958 . S
H2622 C2607 0.961 . S
H2623 C2607 0.960 . S
C2624 C2625 1.391 . S
C2624 C2626 1.394 . S
C2624 H2640 0.931 . S
C2625 C2624 1.391 . S
C2625 C2629 1.376 . S
C2626 C2624 1.394 . S
C2626 C2627 1.369 . S
C2626 C2630 1.531 . S
C2627 C2626 1.369 . S
C2627 C2628 1.410 . S
C2627 C2635 1.503 . S
C2628 C2627 1.410 . S
C2628 C2629 1.392 . S
C2628 C2631 1.511 . S
C2629 C2625 1.376 . S
C2629 C2628 1.392 . S
C2629 H2641 0.929 . S
C2630 C2626 1.531 . S
C2630 H2642 0.960 . S
C2630 H2643 0.962 . S
C2630 H2644 0.960 . S
C2631 C2628 1.511 . S
C2631 H2645 0.961 . S
C2631 H2646 0.961 . S
C2631 H2647 0.961 . S
C2632 C2633 1.370 . S
C2632 C2634 1.363 . S
C2632 H2648 0.931 . S
C2633 C2632 1.370 . S
C2633 C2637 1.408 . S
C2634 C2632 1.363 . S
C2634 C2635 1.370 . S
C2634 C2638 1.524 . S
C2635 C2627 1.503 . S
C2635 C2634 1.370 . S
C2635 C2636 1.403 . S
C2636 C2635 1.403 . S
C2636 C2637 1.404 . S
C2636 C2639 1.539 . S
C2637 C2633 1.408 . S
C2637 C2636 1.404 . S
C2637 H2649 0.930 . S
C2638 C2634 1.524 . S
C2638 H2650 0.956 . S
C2638 H2651 0.961 . S
C2638 H2652 0.961 . S
C2639 C2636 1.539 . S
C2639 H2653 0.958 . S
C2639 H2654 0.961 . S
C2639 H2655 0.960 . S
H2640 C2624 0.931 . S
H2641 C2629 0.929 . S
H2642 C2630 0.960 . S
H2643 C2630 0.962 . S
H2644 C2630 0.960 . S
H2645 C2631 0.961 . S
H2646 C2631 0.961 . S
H2647 C2631 0.961 . S
H2648 C2632 0.931 . S
H2649 C2637 0.930 . S
H2650 C2638 0.956 . S
H2651 C2638 0.961 . S
H2652 C2638 0.961 . S
H2653 C2639 0.958 . S
H2654 C2639 0.961 . S
H2655 C2639 0.960 . S
C2656 C2657 1.391 . S
C2656 C2658 1.394 . S
C2656 H2672 0.931 . S
C2657 C2656 1.391 . S
C2657 C2661 1.376 . S
C2658 C2656 1.394 . S
C2658 C2659 1.369 . S
C2658 C2662 1.531 . S
C2659 C2658 1.369 . S
C2659 C2660 1.410 . S
C2659 C2667 1.503 . S
C2660 C2659 1.410 . S
C2660 C2661 1.392 . S
C2660 C2663 1.511 . S
C2661 C2657 1.376 . S
C2661 C2660 1.392 . S
C2661 H2673 0.929 . S
C2662 C2658 1.531 . S
C2662 H2674 0.960 . S
C2662 H2675 0.962 . S
C2662 H2676 0.960 . S
C2663 C2660 1.511 . S
C2663 H2677 0.961 . S
C2663 H2678 0.961 . S
C2663 H2679 0.961 . S
C2664 C2665 1.370 . S
C2664 C2666 1.363 . S
C2664 H2680 0.931 . S
C2665 C2664 1.370 . S
C2665 C2669 1.408 . S
C2666 C2664 1.363 . S
C2666 C2667 1.370 . S
C2666 C2670 1.524 . S
C2667 C2659 1.503 . S
C2667 C2666 1.370 . S
C2667 C2668 1.403 . S
C2668 C2667 1.403 . S
C2668 C2669 1.404 . S
C2668 C2671 1.539 . S
C2669 C2665 1.408 . S
C2669 C2668 1.404 . S
C2669 H2681 0.930 . S
C2670 C2666 1.524 . S
C2670 H2682 0.956 . S
C2670 H2683 0.961 . S
C2670 H2684 0.961 . S
C2671 C2668 1.539 . S
C2671 H2685 0.958 . S
C2671 H2686 0.961 . S
C2671 H2687 0.960 . S
H2672 C2656 0.931 . S
H2673 C2661 0.929 . S
H2674 C2662 0.960 . S
H2675 C2662 0.962 . S
H2676 C2662 0.960 . S
H2677 C2663 0.961 . S
H2678 C2663 0.961 . S
H2679 C2663 0.961 . S
H2680 C2664 0.931 . S
H2681 C2669 0.930 . S
H2682 C2670 0.956 . S
H2683 C2670 0.961 . S
H2684 C2670 0.961 . S
H2685 C2671 0.958 . S
H2686 C2671 0.961 . S
H2687 C2671 0.960 . S
C2688 C2689 1.391 . S
C2688 C2690 1.394 . S
C2688 H2704 0.931 . S
C2689 C2688 1.391 . S
C2689 C2693 1.376 . S
C2690 C2688 1.394 . S
C2690 C2691 1.369 . S
C2690 C2694 1.531 . S
C2691 C2690 1.369 . S
C2691 C2692 1.410 . S
C2691 C2699 1.503 . S
C2692 C2691 1.410 . S
C2692 C2693 1.392 . S
C2692 C2695 1.511 . S
C2693 C2689 1.376 . S
C2693 C2692 1.392 . S
C2693 H2705 0.929 . S
C2694 C2690 1.531 . S
C2694 H2706 0.960 . S
C2694 H2707 0.962 . S
C2694 H2708 0.960 . S
C2695 C2692 1.511 . S
C2695 H2709 0.961 . S
C2695 H2710 0.961 . S
C2695 H2711 0.961 . S
C2696 C2697 1.370 . S
C2696 C2698 1.363 . S
C2696 H2712 0.931 . S
C2697 C2696 1.370 . S
C2697 C2701 1.408 . S
C2698 C2696 1.363 . S
C2698 C2699 1.370 . S
C2698 C2702 1.524 . S
C2699 C2691 1.503 . S
C2699 C2698 1.370 . S
C2699 C2700 1.403 . S
C2700 C2699 1.403 . S
C2700 C2701 1.404 . S
C2700 C2703 1.539 . S
C2701 C2697 1.408 . S
C2701 C2700 1.404 . S
C2701 H2713 0.930 . S
C2702 C2698 1.524 . S
C2702 H2714 0.956 . S
C2702 H2715 0.961 . S
C2702 H2716 0.961 . S
C2703 C2700 1.539 . S
C2703 H2717 0.958 . S
C2703 H2718 0.961 . S
C2703 H2719 0.960 . S
H2704 C2688 0.931 . S
H2705 C2693 0.929 . S
H2706 C2694 0.960 . S
H2707 C2694 0.962 . S
H2708 C2694 0.960 . S
H2709 C2695 0.961 . S
H2710 C2695 0.961 . S
H2711 C2695 0.961 . S
H2712 C2696 0.931 . S
H2713 C2701 0.930 . S
H2714 C2702 0.956 . S
H2715 C2702 0.961 . S
H2716 C2702 0.961 . S
H2717 C2703 0.958 . S
H2718 C2703 0.961 . S
H2719 C2703 0.960 . S
C2720 C2721 1.391 . S
C2720 C2722 1.394 . S
C2720 H2736 0.931 . S
C2721 C2720 1.391 . S
C2721 C2725 1.376 . S
C2722 C2720 1.394 . S
C2722 C2723 1.369 . S
C2722 C2726 1.531 . S
C2723 C2722 1.369 . S
C2723 C2724 1.410 . S
C2723 C2731 1.503 . S
C2724 C2723 1.410 . S
C2724 C2725 1.392 . S
C2724 C2727 1.511 . S
C2725 C2721 1.376 . S
C2725 C2724 1.392 . S
C2725 H2737 0.929 . S
C2726 C2722 1.531 . S
C2726 H2738 0.960 . S
C2726 H2739 0.962 . S
C2726 H2740 0.960 . S
C2727 C2724 1.511 . S
C2727 H2741 0.961 . S
C2727 H2742 0.961 . S
C2727 H2743 0.961 . S
C2728 C2729 1.370 . S
C2728 C2730 1.363 . S
C2728 H2744 0.931 . S
C2729 C2728 1.370 . S
C2729 C2733 1.408 . S
C2730 C2728 1.363 . S
C2730 C2731 1.370 . S
C2730 C2734 1.524 . S
C2731 C2723 1.503 . S
C2731 C2730 1.370 . S
C2731 C2732 1.403 . S
C2732 C2731 1.403 . S
C2732 C2733 1.404 . S
C2732 C2735 1.539 . S
C2733 C2729 1.408 . S
C2733 C2732 1.404 . S
C2733 H2745 0.930 . S
C2734 C2730 1.524 . S
C2734 H2746 0.956 . S
C2734 H2747 0.961 . S
C2734 H2748 0.961 . S
C2735 C2732 1.539 . S
C2735 H2749 0.958 . S
C2735 H2750 0.961 . S
C2735 H2751 0.960 . S
H2736 C2720 0.931 . S
H2737 C2725 0.929 . S
H2738 C2726 0.960 . S
H2739 C2726 0.962 . S
H2740 C2726 0.960 . S
H2741 C2727 0.961 . S
H2742 C2727 0.961 . S
H2743 C2727 0.961 . S
H2744 C2728 0.931 . S
H2745 C2733 0.930 . S
H2746 C2734 0.956 . S
H2747 C2734 0.961 . S
H2748 C2734 0.961 . S
H2749 C2735 0.958 . S
H2750 C2735 0.961 . S
H2751 C2735 0.960 . S
C2752 C2753 1.391 . S
C2752 C2754 1.394 . S
C2752 H2768 0.931 . S
C2753 C2752 1.391 . S
C2753 C2757 1.376 . S
C2754 C2752 1.394 . S
C2754 C2755 1.369 . S
C2754 C2758 1.531 . S
C2755 C2754 1.369 . S
C2755 C2756 1.410 . S
C2755 C2763 1.503 . S
C2756 C2755 1.410 . S
C2756 C2757 1.392 . S
C2756 C2759 1.511 . S
C2757 C2753 1.376 . S
C2757 C2756 1.392 . S
C2757 H2769 0.929 . S
C2758 C2754 1.531 . S
C2758 H2770 0.960 . S
C2758 H2771 0.962 . S
C2758 H2772 0.960 . S
C2759 C2756 1.511 . S
C2759 H2773 0.961 . S
C2759 H2774 0.961 . S
C2759 H2775 0.961 . S
C2760 C2761 1.370 . S
C2760 C2762 1.363 . S
C2760 H2776 0.931 . S
C2761 C2760 1.370 . S
C2761 C2765 1.408 . S
C2762 C2760 1.363 . S
C2762 C2763 1.370 . S
C2762 C2766 1.524 . S
C2763 C2755 1.503 . S
C2763 C2762 1.370 . S
C2763 C2764 1.403 . S
C2764 C2763 1.403 . S
C2764 C2765 1.404 . S
C2764 C2767 1.539 . S
C2765 C2761 1.408 . S
C2765 C2764 1.404 . S
C2765 H2777 0.930 . S
C2766 C2762 1.524 . S
C2766 H2778 0.956 . S
C2766 H2779 0.961 . S
C2766 H2780 0.961 . S
C2767 C2764 1.539 . S
C2767 H2781 0.958 . S
C2767 H2782 0.961 . S
C2767 H2783 0.960 . S
H2768 C2752 0.931 . S
H2769 C2757 0.929 . S
H2770 C2758 0.960 . S
H2771 C2758 0.962 . S
H2772 C2758 0.960 . S
H2773 C2759 0.961 . S
H2774 C2759 0.961 . S
H2775 C2759 0.961 . S
H2776 C2760 0.931 . S
H2777 C2765 0.930 . S
H2778 C2766 0.956 . S
H2779 C2766 0.961 . S
H2780 C2766 0.961 . S
H2781 C2767 0.958 . S
H2782 C2767 0.961 . S
H2783 C2767 0.960 . S
C2784 C2785 1.391 . S
C2784 C2786 1.394 . S
C2784 H2800 0.931 . S
C2785 C2784 1.391 . S
C2785 C2789 1.376 . S
C2786 C2784 1.394 . S
C2786 C2787 1.369 . S
C2786 C2790 1.531 . S
C2787 C2786 1.369 . S
C2787 C2788 1.410 . S
C2787 C2795 1.503 . S
C2788 C2787 1.410 . S
C2788 C2789 1.392 . S
C2788 C2791 1.511 . S
C2789 C2785 1.376 . S
C2789 C2788 1.392 . S
C2789 H2801 0.929 . S
C2790 C2786 1.531 . S
C2790 H2802 0.960 . S
C2790 H2803 0.962 . S
C2790 H2804 0.960 . S
C2791 C2788 1.511 . S
C2791 H2805 0.961 . S
C2791 H2806 0.961 . S
C2791 H2807 0.961 . S
C2792 C2793 1.370 . S
C2792 C2794 1.363 . S
C2792 H2808 0.931 . S
C2793 C2792 1.370 . S
C2793 C2797 1.408 . S
C2794 C2792 1.363 . S
C2794 C2795 1.370 . S
C2794 C2798 1.524 . S
C2795 C2787 1.503 . S
C2795 C2794 1.370 . S
C2795 C2796 1.403 . S
C2796 C2795 1.403 . S
C2796 C2797 1.404 . S
C2796 C2799 1.539 . S
C2797 C2793 1.408 . S
C2797 C2796 1.404 . S
C2797 H2809 0.930 . S
C2798 C2794 1.524 . S
C2798 H2810 0.956 . S
C2798 H2811 0.961 . S
C2798 H2812 0.961 . S
C2799 C2796 1.539 . S
C2799 H2813 0.958 . S
C2799 H2814 0.961 . S
C2799 H2815 0.960 . S
H2800 C2784 0.931 . S
H2801 C2789 0.929 . S
H2802 C2790 0.960 . S
H2803 C2790 0.962 . S
H2804 C2790 0.960 . S
H2805 C2791 0.961 . S
H2806 C2791 0.961 . S
H2807 C2791 0.961 . S
H2808 C2792 0.931 . S
H2809 C2797 0.930 . S
H2810 C2798 0.956 . S
H2811 C2798 0.961 . S
H2812 C2798 0.961 . S
H2813 C2799 0.958 . S
H2814 C2799 0.961 . S
H2815 C2799 0.960 . S
C2816 C2817 1.391 . S
C2816 C2818 1.394 . S
C2816 H2832 0.931 . S
C2817 C2816 1.391 . S
C2817 C2821 1.376 . S
C2818 C2816 1.394 . S
C2818 C2819 1.369 . S
C2818 C2822 1.531 . S
C2819 C2818 1.369 . S
C2819 C2820 1.410 . S
C2819 C2827 1.503 . S
C2820 C2819 1.410 . S
C2820 C2821 1.392 . S
C2820 C2823 1.511 . S
C2821 C2817 1.376 . S
C2821 C2820 1.392 . S
C2821 H2833 0.929 . S
C2822 C2818 1.531 . S
C2822 H2834 0.960 . S
C2822 H2835 0.962 . S
C2822 H2836 0.960 . S
C2823 C2820 1.511 . S
C2823 H2837 0.961 . S
C2823 H2838 0.961 . S
C2823 H2839 0.961 . S
C2824 C2825 1.370 . S
C2824 C2826 1.363 . S
C2824 H2840 0.931 . S
C2825 C2824 1.370 . S
C2825 C2829 1.408 . S
C2826 C2824 1.363 . S
C2826 C2827 1.370 . S
C2826 C2830 1.524 . S
C2827 C2819 1.503 . S
C2827 C2826 1.370 . S
C2827 C2828 1.403 . S
C2828 C2827 1.403 . S
C2828 C2829 1.404 . S
C2828 C2831 1.539 . S
C2829 C2825 1.408 . S
C2829 C2828 1.404 . S
C2829 H2841 0.930 . S
C2830 C2826 1.524 . S
C2830 H2842 0.956 . S
C2830 H2843 0.961 . S
C2830 H2844 0.961 . S
C2831 C2828 1.539 . S
C2831 H2845 0.958 . S
C2831 H2846 0.961 . S
C2831 H2847 0.960 . S
H2832 C2816 0.931 . S
H2833 C2821 0.929 . S
H2834 C2822 0.960 . S
H2835 C2822 0.962 . S
H2836 C2822 0.960 . S
H2837 C2823 0.961 . S
H2838 C2823 0.961 . S
H2839 C2823 0.961 . S
H2840 C2824 0.931 . S
H2841 C2829 0.930 . S
H2842 C2830 0.956 . S
H2843 C2830 0.961 . S
H2844 C2830 0.961 . S
H2845 C2831 0.958 . S
H2846 C2831 0.961 . S
H2847 C2831 0.960 . S
C2848 C2849 1.391 . S
C2848 C2850 1.394 . S
C2848 H2864 0.931 . S
C2849 C2848 1.391 . S
C2849 C2853 1.376 . S
C2850 C2848 1.394 . S
C2850 C2851 1.369 . S
C2850 C2854 1.531 . S
C2851 C2850 1.369 . S
C2851 C2852 1.410 . S
C2851 C2859 1.503 . S
C2852 C2851 1.410 . S
C2852 C2853 1.392 . S
C2852 C2855 1.511 . S
C2853 C2849 1.376 . S
C2853 C2852 1.392 . S
C2853 H2865 0.929 . S
C2854 C2850 1.531 . S
C2854 H2866 0.960 . S
C2854 H2867 0.962 . S
C2854 H2868 0.960 . S
C2855 C2852 1.511 . S
C2855 H2869 0.961 . S
C2855 H2870 0.961 . S
C2855 H2871 0.961 . S
C2856 C2857 1.370 . S
C2856 C2858 1.363 . S
C2856 H2872 0.931 . S
C2857 C2856 1.370 . S
C2857 C2861 1.408 . S
C2858 C2856 1.363 . S
C2858 C2859 1.370 . S
C2858 C2862 1.524 . S
C2859 C2851 1.503 . S
C2859 C2858 1.370 . S
C2859 C2860 1.403 . S
C2860 C2859 1.403 . S
C2860 C2861 1.404 . S
C2860 C2863 1.539 . S
C2861 C2857 1.408 . S
C2861 C2860 1.404 . S
C2861 H2873 0.930 . S
C2862 C2858 1.524 . S
C2862 H2874 0.956 . S
C2862 H2875 0.961 . S
C2862 H2876 0.961 . S
C2863 C2860 1.539 . S
C2863 H2877 0.958 . S
C2863 H2878 0.961 . S
C2863 H2879 0.960 . S
H2864 C2848 0.931 . S
H2865 C2853 0.929 . S
H2866 C2854 0.960 . S
H2867 C2854 0.962 . S
H2868 C2854 0.960 . S
H2869 C2855 0.961 . S
H2870 C2855 0.961 . S
H2871 C2855 0.961 . S
H2872 C2856 0.931 . S
H2873 C2861 0.930 . S
H2874 C2862 0.956 . S
H2875 C2862 0.961 . S
H2876 C2862 0.961 . S
H2877 C2863 0.958 . S
H2878 C2863 0.961 . S
H2879 C2863 0.960 . S
C585 C306 1.236 . S
C577 C258 1.271 . S
C609 C236 1.608 . S
C617 C300 1.521 . S
C649 C268 1.666 . S
C641 C225 1.735 . S
C673 C247 1.448 . S
C681 C282 1.368 . S
C713 C320 1.852 . S
C705 C181 1.987 . S
C745 C407 1.361 . S
C737 C192 1.378 . S
C769 C203 2.016 . S
C777 C334 1.927 . S
C809 C402 1.325 . S
C801 C214 1.330 . S
C833 C137 2.119 . S
C841 C358 2.007 . S
C873 C413 1.621 . S
C865 C148 1.645 . S
C897 C159 2.050 . S
C905 C352 1.979 . S
C929 C170 1.014 . S
C937 C398 1.000 . S
C969 C454 1.021 . S
C961 C126 1.032 . S
C993 C104 1.701 . S
C1001 C465 1.678 . S
C1025 C93 1.411 . S
C1033 C450 1.393 . S
C1065 C459 1.447 . S
C1057 C115 1.453 1_554 S
C1089 C49 1.545 . S
C1097 C504 1.501 . S
C1121 C60 0.663 . S
C1129 C563 0.677 . S
C1153 C71 1.683 . S
C1161 C520 1.584 . S
C1185 C82 1.330 . S
C1193 C558 1.295 . S
C1225 C522 1.717 . S
C1217 C5 1.799 . S
C1257 C569 0.823 . S
C1249 C16 0.817 . S
C1281 C27 1.635 . S
C1289 C498 1.545 . S
C1321 C554 0.901 . S
C1313 C38 0.930 . S
C1353 C290 1.661 . S
C1345 C4 1.699 . S
C1377 C21 1.137 . S
C1385 C294 1.241 . S
C1409 C32 1.441 . S
C1417 C314 1.452 . S
C1441 C37 0.990 . S
C1449 C309 0.991 . S
C1473 C48 1.765 . S
C1481 C312 1.696 . S
C1513 C298 1.255 . S
C1505 C59 1.283 . S
C1537 C76 1.425 . S
C1545 C296 1.405 . S
C1577 C303 1.283 . S
C1569 C81 1.284 . S
C1609 C366 1.352 . S
C1601 C43 1.349 1_565 S
C1633 C10 1.749 . S
C1641 C416 1.742 . S
C1673 C364 1.404 . S
C1665 C15 1.414 . S
C1705 C400 1.898 . S
C1697 C26 1.987 . S
C1729 C65 1.063 . S
C1737 C342 1.065 . S
C1769 C418 1.851 . S
C1761 C70 1.937 . S
C1801 C348 1.390 . S
C1793 C87 1.407 . S
C1833 C394 1.592 . S
C1825 C54 1.528 1_455 S
C1865 C386 1.412 . S
C1857 C98 1.335 . S
C1889 C109 1.229 . S
C1897 C410 1.260 . S
C1929 C346 1.358 . S
C1921 C92 1.298 . S
C1961 C372 1.290 1_556 S
C1953 C114 1.250 . S
C1985 C131 0.916 . S
C1993 C350 0.971 . S
C2017 C125 1.345 . S
C2025 C404 1.356 1_556 S
C2057 C361 1.575 . S
C2049 C103 1.556 . S
C2089 C355 1.295 . S
C2081 C120 1.198 . S
C2121 C438 1.941 . S
C2113 C136 2.006 . S
C2153 C470 1.437 . S
C2145 C153 1.416 . S
C2177 C164 1.670 . S
C2185 C424 1.749 . S
C2217 C468 1.132 . S
C2209 C169 1.117 . S
C2249 C456 1.937 . S
C2241 C180 1.949 . S
C2273 C191 1.341 . S
C2281 C452 1.378 . S
C2305 C208 1.656 . S
C2313 C462 1.758 . S
C2345 C446 1.399 . S
C2337 C213 1.430 . S
C2377 C511 1.240 . S
C2369 C175 1.198 . S
C2401 C142 1.521 . S
C2409 C572 1.555 . S
C2441 C506 1.268 . S
C2433 C147 1.229 . S
C2473 C556 1.728 . S
C2465 C158 1.767 . S
C2505 C502 1.015 . S
C2497 C197 1.019 . S
C2529 C202 1.625 . S
C2537 C574 1.616 . S
C2569 C517 1.311 . S
C2561 C219 1.211 . S
C2601 C550 1.342 . S
C2593 C186 1.267 . S
C2633 C542 1.544 . S
C2625 C230 1.547 . S
C2657 C241 1.627 . S
C2665 C566 1.623 . S
C2697 C508 1.572 . S
C2689 C224 1.592 . S
C2721 C246 1.725 . S
C2729 C528 1.647 . S
C2761 C490 1.262 . S
C2753 C263 1.220 . S
C2793 C560 1.489 . S
C2785 C257 1.486 . S
C2825 C476 1.565 . S
C2817 C235 1.611 . S
C2849 C252 1.181 . S
C2857 C514 1.229 . S
