# Generated by pormake.
# Topology ctn, (3,4)-cn, num edge types: 1
# Building blocks:
#     Node 0, Type 0, BuildingBlock: KAKCAD_clean_linker_0, # of connection points: 3
#     Node 1, Type 0, BuildingBlock: KAKCAD_clean_linker_0, # of connection points: 3
#     Node 2, Type 0, BuildingBlock: KAKCAD_clean_linker_0, # of connection points: 3
#     Node 3, Type 0, BuildingBlock: KAKCAD_clean_linker_0, # of connection points: 3
#     Node 4, Type 0, BuildingBlock: KAKCAD_clean_linker_0, # of connection points: 3
#     Node 5, Type 0, BuildingBlock: KAKCAD_clean_linker_0, # of connection points: 3
#     Node 6, Type 0, BuildingBlock: KAKCAD_clean_linker_0, # of connection points: 3
#     Node 7, Type 0, BuildingBlock: KAKCAD_clean_linker_0, # of connection points: 3
#     Node 8, Type 0, BuildingBlock: KAKCAD_clean_linker_0, # of connection points: 3
#     Node 9, Type 0, BuildingBlock: KAKCAD_clean_linker_0, # of connection points: 3
#     Node 10, Type 0, BuildingBlock: KAKCAD_clean_linker_0, # of connection points: 3
#     Node 11, Type 0, BuildingBlock: KAKCAD_clean_linker_0, # of connection points: 3
#     Node 12, Type 0, BuildingBlock: KAKCAD_clean_linker_0, # of connection points: 3
#     Node 13, Type 0, BuildingBlock: KAKCAD_clean_linker_0, # of connection points: 3
#     Node 14, Type 0, BuildingBlock: KAKCAD_clean_linker_0, # of connection points: 3
#     Node 15, Type 0, BuildingBlock: KAKCAD_clean_linker_0, # of connection points: 3
#     Node 16, Type 1, BuildingBlock: QUQFOY_clean_sbu_1, # of connection points: 4
#     Node 17, Type 1, BuildingBlock: QUQFOY_clean_sbu_1, # of connection points: 4
#     Node 18, Type 1, BuildingBlock: QUQFOY_clean_sbu_1, # of connection points: 4
#     Node 19, Type 1, BuildingBlock: QUQFOY_clean_sbu_1, # of connection points: 4
#     Node 20, Type 1, BuildingBlock: QUQFOY_clean_sbu_1, # of connection points: 4
#     Node 21, Type 1, BuildingBlock: QUQFOY_clean_sbu_1, # of connection points: 4
#     Node 22, Type 1, BuildingBlock: QUQFOY_clean_sbu_1, # of connection points: 4
#     Node 23, Type 1, BuildingBlock: QUQFOY_clean_sbu_1, # of connection points: 4
#     Node 24, Type 1, BuildingBlock: QUQFOY_clean_sbu_1, # of connection points: 4
#     Node 25, Type 1, BuildingBlock: QUQFOY_clean_sbu_1, # of connection points: 4
#     Node 26, Type 1, BuildingBlock: QUQFOY_clean_sbu_1, # of connection points: 4
#     Node 27, Type 1, BuildingBlock: QUQFOY_clean_sbu_1, # of connection points: 4
#     Edge 28, Type (0, 1), BuildingBlock: OJICUG_clean_linker_0, # of connection points: 2
#     Edge 29, Type (0, 1), BuildingBlock: OJICUG_clean_linker_0, # of connection points: 2
#     Edge 30, Type (0, 1), BuildingBlock: OJICUG_clean_linker_0, # of connection points: 2
#     Edge 31, Type (0, 1), BuildingBlock: OJICUG_clean_linker_0, # of connection points: 2
#     Edge 32, Type (0, 1), BuildingBlock: OJICUG_clean_linker_0, # of connection points: 2
#     Edge 33, Type (0, 1), BuildingBlock: OJICUG_clean_linker_0, # of connection points: 2
#     Edge 34, Type (0, 1), BuildingBlock: OJICUG_clean_linker_0, # of connection points: 2
#     Edge 35, Type (0, 1), BuildingBlock: OJICUG_clean_linker_0, # of connection points: 2
#     Edge 36, Type (0, 1), BuildingBlock: OJICUG_clean_linker_0, # of connection points: 2
#     Edge 37, Type (0, 1), BuildingBlock: OJICUG_clean_linker_0, # of connection points: 2
#     Edge 38, Type (0, 1), BuildingBlock: OJICUG_clean_linker_0, # of connection points: 2
#     Edge 39, Type (0, 1), BuildingBlock: OJICUG_clean_linker_0, # of connection points: 2
#     Edge 40, Type (0, 1), BuildingBlock: OJICUG_clean_linker_0, # of connection points: 2
#     Edge 41, Type (0, 1), BuildingBlock: OJICUG_clean_linker_0, # of connection points: 2
#     Edge 42, Type (0, 1), BuildingBlock: OJICUG_clean_linker_0, # of connection points: 2
#     Edge 43, Type (0, 1), BuildingBlock: OJICUG_clean_linker_0, # of connection points: 2
#     Edge 44, Type (0, 1), BuildingBlock: OJICUG_clean_linker_0, # of connection points: 2
#     Edge 45, Type (0, 1), BuildingBlock: OJICUG_clean_linker_0, # of connection points: 2
#     Edge 46, Type (0, 1), BuildingBlock: OJICUG_clean_linker_0, # of connection points: 2
#     Edge 47, Type (0, 1), BuildingBlock: OJICUG_clean_linker_0, # of connection points: 2
#     Edge 48, Type (0, 1), BuildingBlock: OJICUG_clean_linker_0, # of connection points: 2
#     Edge 49, Type (0, 1), BuildingBlock: OJICUG_clean_linker_0, # of connection points: 2
#     Edge 50, Type (0, 1), BuildingBlock: OJICUG_clean_linker_0, # of connection points: 2
#     Edge 51, Type (0, 1), BuildingBlock: OJICUG_clean_linker_0, # of connection points: 2
#     Edge 52, Type (0, 1), BuildingBlock: OJICUG_clean_linker_0, # of connection points: 2
#     Edge 53, Type (0, 1), BuildingBlock: OJICUG_clean_linker_0, # of connection points: 2
#     Edge 54, Type (0, 1), BuildingBlock: OJICUG_clean_linker_0, # of connection points: 2
#     Edge 55, Type (0, 1), BuildingBlock: OJICUG_clean_linker_0, # of connection points: 2
#     Edge 56, Type (0, 1), BuildingBlock: OJICUG_clean_linker_0, # of connection points: 2
#     Edge 57, Type (0, 1), BuildingBlock: OJICUG_clean_linker_0, # of connection points: 2
#     Edge 58, Type (0, 1), BuildingBlock: OJICUG_clean_linker_0, # of connection points: 2
#     Edge 59, Type (0, 1), BuildingBlock: OJICUG_clean_linker_0, # of connection points: 2
#     Edge 60, Type (0, 1), BuildingBlock: OJICUG_clean_linker_0, # of connection points: 2
#     Edge 61, Type (0, 1), BuildingBlock: OJICUG_clean_linker_0, # of connection points: 2
#     Edge 62, Type (0, 1), BuildingBlock: OJICUG_clean_linker_0, # of connection points: 2
#     Edge 63, Type (0, 1), BuildingBlock: OJICUG_clean_linker_0, # of connection points: 2
#     Edge 64, Type (0, 1), BuildingBlock: OJICUG_clean_linker_0, # of connection points: 2
#     Edge 65, Type (0, 1), BuildingBlock: OJICUG_clean_linker_0, # of connection points: 2
#     Edge 66, Type (0, 1), BuildingBlock: OJICUG_clean_linker_0, # of connection points: 2
#     Edge 67, Type (0, 1), BuildingBlock: OJICUG_clean_linker_0, # of connection points: 2
#     Edge 68, Type (0, 1), BuildingBlock: OJICUG_clean_linker_0, # of connection points: 2
#     Edge 69, Type (0, 1), BuildingBlock: OJICUG_clean_linker_0, # of connection points: 2
#     Edge 70, Type (0, 1), BuildingBlock: OJICUG_clean_linker_0, # of connection points: 2
#     Edge 71, Type (0, 1), BuildingBlock: OJICUG_clean_linker_0, # of connection points: 2
#     Edge 72, Type (0, 1), BuildingBlock: OJICUG_clean_linker_0, # of connection points: 2
#     Edge 73, Type (0, 1), BuildingBlock: OJICUG_clean_linker_0, # of connection points: 2
#     Edge 74, Type (0, 1), BuildingBlock: OJICUG_clean_linker_0, # of connection points: 2
#     Edge 75, Type (0, 1), BuildingBlock: OJICUG_clean_linker_0, # of connection points: 2
# Relax obj value: 0.036
# Max RMSD: 0.146
# Mean RMSD: 0.065
data_MOF--net-ctn--node1-QUQFOY_clean_sbu_1--node2-KAKCAD_clean_linker_0--edge1-OJICUG_clean_linker_0
_symmetry_space_group_name_H-M    P1
_symmetry_Int_Tables_number       1
_symmetry_cell_setting            triclinic
loop_
_symmetry_equiv_pos_as_xyz
'x, y, z'
_cell_length_a     52.852268
_cell_length_b     52.785393
_cell_length_c     52.873022
_cell_angle_alpha  93.091977
_cell_angle_beta   90.481288
_cell_angle_gamma 95.002263
loop_
_atom_site_label
_atom_site_type_symbol
_atom_site_fract_x
_atom_site_fract_y
_atom_site_fract_z
_atom_type_partial_charge
C0 C 0.01894 0.12215 0.96984 0.0
C1 C 0.02081 0.1481 0.97759 0.0
C2 C 0.02428 0.104 0.98694 0.0
C3 C 0.03098 0.11154 0.01215 0.0
C4 C 0.03296 0.13749 0.01987 0.0
C5 C 0.02818 0.15569 0.00263 0.0
C6 C 0.0351 0.09226 0.03058 0.0
C7 C 0.05309 0.07464 0.02587 0.0
C8 C 0.05673 0.05598 0.04312 0.0
C9 C 0.04209 0.05501 0.06509 0.0
C10 C 0.02305 0.0717 0.06948 0.0
C11 C 0.02009 0.09069 0.05231 0.0
C12 C 0.005 0.0678 0.0907 0.0
C13 C 0.99732 0.04299 0.09764 0.0
C14 C 0.9946 0.08843 0.10358 0.0
C15 C 0.9768 0.08425 0.12272 0.0
C16 C 0.96925 0.05936 0.12963 0.0
C17 C 0.07447 0.03628 0.03746 0.0
C18 C 0.07381 0.02328 0.01356 0.0
C19 C 0.09119 0.02942 0.05619 0.0
C20 C 0.10697 0.00991 0.05111 0.0
C21 C 0.1062 0.99673 0.02724 0.0
C22 C 0.0894 0.00365 0.00854 0.0
C23 C 0.98005 0.03888 0.11701 0.0
H24 H 0.01325 0.11596 0.9506 0.0
H25 H 0.02254 0.08403 0.98068 0.0
H26 H 0.03814 0.14365 0.03925 0.0
H27 H 0.02952 0.17562 0.00901 0.0
H28 H 0.06434 0.07558 0.00883 0.0
H29 H 0.00528 0.1035 0.05501 0.0
H30 H 0.04495 0.0405 0.0783 0.0
H31 H 0.00432 0.0265 0.08787 0.0
H32 H 0.00021 0.10783 0.09896 0.0
H33 H 0.96881 0.10052 0.13187 0.0
H34 H 0.06074 0.02786 -0.00106 0.0
H35 H 0.09215 0.03927 0.07474 0.0
H36 H 0.97535 0.01946 0.12213 0.0
H37 H 0.08798 0.99363 0.9901 0.0
H38 H 0.11998 0.00537 0.06579 0.0
C39 C 0.37474 0.77521 0.27498 0.0
C40 C 0.38811 0.75407 0.27989 0.0
C41 C 0.35119 0.77186 0.26247 0.0
C42 C 0.34058 0.74732 0.25476 0.0
C43 C 0.35466 0.72638 0.25827 0.0
C44 C 0.37821 0.72972 0.27066 0.0
C45 C 0.31408 0.74328 0.24513 0.0
C46 C 0.30518 0.75855 0.22665 0.0
C47 C 0.27975 0.75502 0.21807 0.0
C48 C 0.26332 0.73602 0.22846 0.0
C49 C 0.27209 0.72037 0.24668 0.0
C50 C 0.29743 0.72426 0.255 0.0
C51 C 0.25503 0.6994 0.2564 0.0
C52 C 0.22964 0.70299 0.26212 0.0
C53 C 0.26388 0.67534 0.25925 0.0
C54 C 0.24755 0.65516 0.26711 0.0
C55 C 0.222 0.6586 0.27214 0.0
C56 C 0.27066 0.77036 0.19755 0.0
C57 C 0.28004 0.79597 0.19569 0.0
C58 C 0.25321 0.75918 0.17901 0.0
C59 C 0.24586 0.77305 0.15887 0.0
C60 C 0.25616 0.79816 0.15656 0.0
C61 C 0.27307 0.80964 0.17523 0.0
C62 C 0.21327 0.68277 0.26987 0.0
H63 H 0.38176 0.79419 0.28205 0.0
H64 H 0.34067 0.78831 0.26009 0.0
H65 H 0.3471 0.7073 0.25205 0.0
H66 H 0.38831 0.71313 0.27372 0.0
H67 H 0.31835 0.77264 0.21848 0.0
H68 H 0.3041 0.71276 0.26964 0.0
H69 H 0.2437 0.73308 0.2221 0.0
H70 H 0.22238 0.72142 0.26053 0.0
H71 H 0.28326 0.67188 0.25466 0.0
H72 H 0.25469 0.63665 0.26839 0.0
H73 H 0.29305 0.80541 0.20985 0.0
H74 H 0.24593 0.7394 0.17943 0.0
H75 H 0.19373 0.68601 0.27397 0.0
H76 H 0.2812 0.82906 0.17375 0.0
H77 H 0.23309 0.76374 0.14441 0.0
C78 C 0.992 0.49652 0.15952 0.0
C79 C 0.01785 0.49227 0.15841 0.0
C80 C 0.97623 0.49119 0.13829 0.0
C81 C 0.98598 0.48155 0.11545 0.0
C82 C 0.01166 0.47646 0.11459 0.0
C83 C 0.02744 0.48171 0.13591 0.0
C84 C 0.96959 0.47775 0.09241 0.0
C85 C 0.95306 0.49611 0.08655 0.0
C86 C 0.93759 0.49302 0.06465 0.0
C87 C 0.93903 0.47115 0.04846 0.0
C88 C 0.95601 0.453 0.05365 0.0
C89 C 0.97097 0.45628 0.07583 0.0
C90 C 0.95923 0.43139 0.0352 0.0
C91 C 0.93809 0.4175 0.02334 0.0
C92 C 0.98374 0.42516 0.02866 0.0
C93 C 0.98707 0.40574 0.01037 0.0
C94 C 0.96597 0.39208 -0.00177 0.0
C95 C 0.92083 0.51312 0.05822 0.0
C96 C 0.90884 0.52712 0.07735 0.0
C97 C 0.91703 0.51883 0.03288 0.0
C98 C 0.90152 0.53776 0.0268 0.0
C99 C 0.88977 0.552 0.04591 0.0
C100 C 0.89372 0.54645 0.0713 0.0
C101 C 0.94143 0.39796 0.00508 0.0
H102 H 0.98401 0.50425 0.17678 0.0
H103 H 0.95641 0.49481 0.13969 0.0
H104 H 0.0198 0.46925 0.09719 0.0
H105 H 0.04734 0.47844 0.13451 0.0
H106 H 0.95298 0.51332 0.09866 0.0
H107 H 0.98362 0.442 0.08025 0.0
H108 H 0.92734 0.46844 0.03144 0.0
H109 H 0.91899 0.42177 0.02815 0.0
H110 H 0.0004 0.4357 0.03728 0.0
H111 H 0.0062 0.40144 0.0057 0.0
H112 H 0.91098 0.5231 0.09708 0.0
H113 H 0.92624 0.50889 0.01759 0.0
H114 H 0.92483 0.38784 0.99592 0.0
H115 H 0.88529 0.55711 0.08661 0.0
H116 H 0.89857 0.54095 0.00698 0.0
C117 C 0.72045 0.72257 0.17743 0.0
C118 C 0.74368 0.72264 0.16466 0.0
C119 C 0.71852 0.737 0.20013 0.0
C120 C 0.73984 0.75168 0.21075 0.0
C121 C 0.76342 0.75054 0.19876 0.0
C122 C 0.76531 0.73622 0.17593 0.0
C123 C 0.73693 0.76981 0.23285 0.0
C124 C 0.72009 0.76342 0.25245 0.0
C125 C 0.71499 0.78163 0.27171 0.0
C126 C 0.72758 0.80619 0.27157 0.0
C127 C 0.74467 0.81282 0.25241 0.0
C128 C 0.74926 0.79453 0.23314 0.0
C129 C 0.75692 0.83919 0.25196 0.0
C130 C 0.74293 0.86021 0.25768 0.0
C131 C 0.78272 0.84351 0.246 0.0
C132 C 0.79436 0.86828 0.24604 0.0
C133 C 0.78046 0.88928 0.25206 0.0
C134 C 0.69467 0.77619 0.29048 0.0
C135 C 0.67161 0.76245 0.28283 0.0
C136 C 0.69692 0.78731 0.31529 0.0
C137 C 0.67595 0.78673 0.3312 0.0
C138 C 0.65253 0.77449 0.32283 0.0
C139 C 0.65078 0.76148 0.29895 0.0
C140 C 0.75461 0.885 0.2578 0.0
H141 H 0.70352 0.71192 0.16951 0.0
H142 H 0.70002 0.73754 0.20868 0.0
H143 H 0.7803 0.76131 0.20664 0.0
H144 H 0.78348 0.73677 0.16658 0.0
H145 H 0.71066 0.74437 0.2525 0.0
H146 H 0.76148 0.8 0.21764 0.0
H147 H 0.72355 0.82053 0.28605 0.0
H148 H 0.72288 0.85754 0.26186 0.0
H149 H 0.79405 0.82771 0.2418 0.0
H150 H 0.81443 0.87096 0.24193 0.0
H151 H 0.66905 0.75386 0.26382 0.0
H152 H 0.71457 0.79749 0.32204 0.0
H153 H 0.74335 0.90082 0.26219 0.0
H154 H 0.63281 0.75209 0.29203 0.0
H155 H 0.67774 0.79671 0.34966 0.0
C156 C 0.97529 0.9931 0.40264 0.0
C157 C 0.98401 0.0005 0.37887 0.0
C158 C 0.99237 0.98724 0.42128 0.0
C159 C 0.01857 0.9886 0.41658 0.0
C160 C 0.02728 0.99562 0.39268 0.0
C161 C 0.01019 0.0015 0.37403 0.0
C162 C 0.03675 0.98396 0.43704 0.0
C163 C 0.03117 0.96428 0.45352 0.0
C164 C 0.0469 0.96147 0.47462 0.0
C165 C 0.06893 0.97823 0.47849 0.0
C166 C 0.07517 -0.00248 0.46176 0.0
C167 C 0.05897 0.00028 0.44114 0.0
C168 C 0.09796 0.01561 0.46649 0.0
C169 C 0.1036 0.02634 0.49099 0.0
C170 C 0.11391 0.02268 0.44646 0.0
C171 C 0.13501 0.04026 0.45083 0.0
C172 C 0.1405 0.05118 0.47529 0.0
C173 C 0.03966 0.94204 0.49334 0.0
C174 C 0.01398 0.93593 0.49897 0.0
C175 C 0.05826 0.93016 0.50644 0.0
C176 C 0.05138 0.91322 0.52515 0.0
C177 C 0.02567 0.90729 0.5309 0.0
C178 C 0.00709 0.91858 0.51721 0.0
C179 C 0.12465 0.04394 0.49535 0.0
H180 H 0.95521 0.99177 0.40685 0.0
H181 H 0.98506 0.98221 0.43959 0.0
H182 H 0.04735 0.99667 0.38843 0.0
H183 H 0.01753 0.00729 0.35596 0.0
H184 H 0.01442 0.9512 0.44987 0.0
H185 H 0.0631 0.01594 0.42895 0.0
H186 H 0.0811 0.97666 0.49481 0.0
H187 H 0.0915 0.02147 0.50675 0.0
H188 H 0.11009 0.01457 0.4274 0.0
H189 H 0.14678 0.04563 0.43497 0.0
H190 H -0.00096 0.94488 0.48969 0.0
H191 H 0.07823 0.93397 0.50237 0.0
H192 H 0.12856 0.05183 0.51446 0.0
H193 H 0.98705 0.91407 0.5205 0.0
H194 H 0.0663 0.90512 0.53534 0.0
C195 C 0.12502 0.7261 0.74222 0.0
C196 C 0.12782 0.73584 0.71809 0.0
C197 C 0.14621 0.72275 0.75704 0.0
C198 C 0.17076 0.72906 0.74817 0.0
C199 C 0.17382 0.73793 0.72372 0.0
C200 C 0.15245 0.74146 0.70882 0.0
C201 C 0.19262 0.72852 0.76568 0.0
C202 C 0.21313 0.71411 0.75973 0.0
C203 C 0.23242 0.71199 0.77791 0.0
C204 C 0.23094 0.72476 0.80186 0.0
C205 C 0.21085 0.73959 0.80767 0.0
C206 C 0.19187 0.74146 0.78947 0.0
C207 C 0.20912 0.75257 0.83301 0.0
C208 C 0.21248 0.73944 0.85503 0.0
C209 C 0.20361 0.77811 0.83527 0.0
C210 C 0.20167 0.79038 0.85909 0.0
C211 C 0.20499 0.77732 0.88121 0.0
C212 C 0.2531 0.695 0.77315 0.0
C213 C 0.24786 0.67065 0.76116 0.0
C214 C 0.27763 0.70189 0.78323 0.0
C215 C 0.29575 0.68417 0.78326 0.0
C216 C 0.28991 0.65937 0.77276 0.0
C217 C 0.26617 0.65302 0.76086 0.0
C218 C 0.21036 0.75167 0.87892 0.0
H219 H 0.10637 0.72191 0.75012 0.0
H220 H 0.1434 0.71583 0.77583 0.0
H221 H 0.19263 0.74303 0.71659 0.0
H222 H 0.15517 0.74883 0.69022 0.0
H223 H 0.21364 0.70407 0.74135 0.0
H224 H 0.176 0.7525 0.79409 0.0
H225 H 0.24523 0.72285 0.81629 0.0
H226 H 0.21638 0.7196 0.85377 0.0
H227 H 0.2012 0.78872 0.81856 0.0
H228 H 0.19811 0.8103 0.86014 0.0
H229 H 0.22915 0.66462 0.75339 0.0
H230 H 0.28253 0.7207 0.79204 0.0
H231 H 0.21275 0.74099 0.89557 0.0
H232 H 0.2612 0.63393 0.75275 0.0
H233 H 0.31406 0.68958 0.79226 0.0
C234 C 0.94317 0.65968 0.51897 0.0
C235 C 0.93739 0.65827 0.54477 0.0
C236 C 0.94029 0.63788 0.50271 0.0
C237 C 0.93156 0.61426 0.51195 0.0
C238 C 0.92503 0.61302 0.53758 0.0
C239 C 0.92789 0.63481 0.55381 0.0
C240 C 0.93005 0.59081 0.49513 0.0
C241 C 0.94972 0.58638 0.47823 0.0
C242 C 0.94876 0.56389 0.46271 0.0
C243 C 0.92782 0.54581 0.46409 0.0
C244 C 0.90806 0.55001 0.48088 0.0
C245 C 0.90927 0.5725 0.49637 0.0
C246 C 0.88611 0.53087 0.48229 0.0
C247 C 0.87358 0.52054 0.46007 0.0
C248 C 0.87758 0.52285 0.50588 0.0
C249 C 0.85694 0.50464 0.50722 0.0
C250 C 0.84434 0.49438 0.48501 0.0
C251 C 0.96957 0.55934 0.44499 0.0
C252 C 0.97928 0.57872 0.42967 0.0
C253 C 0.97963 0.53554 0.44302 0.0
C254 C -0.00112 0.53112 0.42583 0.0
C255 C 0.00823 0.55038 0.41019 0.0
C256 C -0.00162 0.57426 0.41239 0.0
C257 C 0.85277 0.50253 0.46143 0.0
H258 H 0.95073 0.67746 0.5115 0.0
H259 H 0.94514 0.63945 0.48296 0.0
H260 H 0.91841 0.59506 0.54528 0.0
H261 H 0.92302 0.63321 0.57356 0.0
H262 H 0.96618 0.6001 0.47764 0.0
H263 H 0.89377 0.57594 0.50903 0.0
H264 H 0.9269 0.52843 0.45208 0.0
H265 H 0.87974 0.52658 0.44168 0.0
H266 H 0.88707 0.53045 0.52325 0.0
H267 H 0.85066 0.49877 0.52562 0.0
H268 H 0.97175 0.59719 0.43072 0.0
H269 H 0.97264 0.52036 0.45482 0.0
H270 H 0.84345 0.49474 0.44403 0.0
H271 H 0.00545 0.58951 0.40072 0.0
H272 H 0.00607 0.51251 0.4244 0.0
C273 C 0.81334 0.77668 0.897 0.0
C274 C 0.78941 0.77072 0.90773 0.0
C275 C 0.81641 0.79432 0.87826 0.0
C276 C 0.79548 0.80589 0.86891 0.0
C277 C 0.77162 0.80021 0.87988 0.0
C278 C 0.76875 0.78331 0.89928 0.0
C279 C 0.79828 0.82299 0.84726 0.0
C280 C 0.81669 0.8194 0.82867 0.0
C281 C 0.81912 0.83493 0.80797 0.0
C282 C 0.80198 0.85344 0.80503 0.0
C283 C 0.78325 0.85736 0.8232 0.0
C284 C 0.78212 0.84255 0.84459 0.0
C285 C 0.7648 0.87679 0.81995 0.0
C286 C 0.77218 0.89991 0.80883 0.0
C287 C 0.73958 0.87242 0.82816 0.0
C288 C 0.72251 0.89097 0.82611 0.0
C289 C 0.73009 0.91398 0.81523 0.0
C290 C 0.8398 0.8318 0.78959 0.0
C291 C 0.86456 0.82903 0.79827 0.0
C292 C 0.83502 0.83149 0.76341 0.0
C293 C 0.85457 0.82812 0.74625 0.0
C294 C 0.87931 0.8251 0.75493 0.0
C295 C 0.8841 0.82575 0.78114 0.0
C296 C 0.75489 0.91823 0.80629 0.0
H297 H 0.8298 0.76735 0.90251 0.0
H298 H 0.83529 0.79859 0.871 0.0
H299 H 0.75484 0.80829 0.87319 0.0
H300 H 0.75012 0.78005 0.90741 0.0
H301 H 0.82893 0.80408 0.82979 0.0
H302 H 0.76875 0.84652 0.85936 0.0
H303 H 0.80335 0.86482 0.78858 0.0
H304 H 0.79147 0.90421 0.80264 0.0
H305 H 0.73295 0.85466 0.83623 0.0
H306 H 0.70337 0.8874 0.83307 0.0
H307 H 0.86887 0.82961 0.81838 0.0
H308 H 0.81607 0.83331 0.75617 0.0
H309 H 0.76112 0.93607 0.79812 0.0
H310 H 0.90301 0.82388 0.78845 0.0
H311 H 0.85015 0.82731 0.72616 0.0
C312 C 0.31495 0.28164 0.3904 0.0
C313 C 0.29134 0.27056 0.3981 0.0
C314 C 0.31636 0.29788 0.37033 0.0
C315 C 0.29421 0.30313 0.35736 0.0
C316 C 0.27062 0.29197 0.36516 0.0
C317 C 0.2692 0.27599 0.38537 0.0
C318 C 0.29556 0.31967 0.33542 0.0
C319 C 0.31526 0.3184 0.31788 0.0
C320 C 0.31601 0.33318 0.29657 0.0
C321 C 0.29652 0.34902 0.29253 0.0
C322 C 0.27678 0.35086 0.31003 0.0
C323 C 0.27674 0.33633 0.33157 0.0
C324 C 0.25652 0.36832 0.30634 0.0
C325 C 0.26218 0.39214 0.29596 0.0
C326 C 0.23152 0.36177 0.31425 0.0
C327 C 0.2131 0.37911 0.31314 0.0
C328 C 0.21909 0.40308 0.30349 0.0
C329 C 0.33714 0.33176 0.27847 0.0
C330 C 0.36234 0.33287 0.28738 0.0
C331 C 0.33226 0.32869 0.25229 0.0
C332 C 0.35216 0.32606 0.23539 0.0
C333 C 0.37738 0.32663 0.24431 0.0
C334 C 0.38226 0.33043 0.27048 0.0
C335 C 0.24357 0.40925 0.29436 0.0
H336 H 0.33229 0.2779 0.40006 0.0
H337 H 0.33481 0.30643 0.36508 0.0
H338 H 0.25321 0.29511 0.35531 0.0
H339 H 0.25078 0.26737 0.39064 0.0
H340 H 0.32969 0.30534 0.32035 0.0
H341 H 0.26225 0.33831 0.34572 0.0
H342 H 0.29688 0.36001 0.27579 0.0
H343 H 0.28123 0.39805 0.28999 0.0
H344 H 0.22622 0.34338 0.3217 0.0
H345 H 0.19425 0.37397 0.32016 0.0
H346 H 0.36665 0.33561 0.30746 0.0
H347 H 0.31298 0.32754 0.24494 0.0
H348 H 0.24863 0.42781 0.28712 0.0
H349 H 0.40148 0.33143 0.27797 0.0
H350 H 0.34765 0.32275 0.2154 0.0
C351 C 0.49031 0.00474 0.65982 0.0
C352 C 0.51643 0.00147 0.65969 0.0
C353 C 0.47568 9e-05 0.63768 0.0
C354 C 0.48686 0.99207 0.61497 0.0
C355 C 0.51286 0.9882 0.615 0.0
C356 C 0.52748 0.99282 0.63714 0.0
C357 C 0.47171 0.9884 0.59112 0.0
C358 C 0.4546 0.00611 0.58484 0.0
C359 C 0.44138 0.00348 0.56159 0.0
C360 C 0.44504 0.9827 0.54471 0.0
C361 C 0.46187 0.96475 0.55081 0.0
C362 C 0.47506 0.9677 0.57406 0.0
C363 C 0.46622 0.94325 0.53267 0.0
C364 C 0.44568 0.92888 0.52028 0.0
C365 C 0.49105 0.93705 0.52759 0.0
C366 C 0.49529 0.91692 0.5104 0.0
C367 C 0.47477 0.9025 0.49803 0.0
C368 C 0.42439 0.02287 0.55446 0.0
C369 C 0.40592 0.03097 0.57127 0.0
C370 C 0.42641 0.03317 0.53057 0.0
C371 C 0.40997 0.05086 0.5234 0.0
C372 C 0.39088 0.05844 0.53983 0.0
C373 C 0.38923 0.04849 0.56398 0.0
C374 C 0.44991 0.90862 0.50319 0.0
H375 H 0.48119 0.01103 0.67703 0.0
H376 H 0.45561 0.00283 0.63834 0.0
H377 H 0.5221 0.98235 0.59771 0.0
H378 H 0.54762 0.99046 0.63637 0.0
H379 H 0.45234 0.02253 0.59757 0.0
H380 H 0.48782 0.95368 0.57898 0.0
H381 H 0.43498 0.98067 0.52666 0.0
H382 H 0.42634 0.93316 0.52399 0.0
H383 H 0.50724 0.94796 0.53671 0.0
H384 H 0.51463 0.91249 0.50695 0.0
H385 H 0.40393 0.02321 0.58978 0.0
H386 H 0.44081 0.02759 0.51744 0.0
H387 H 0.43377 0.89793 0.49377 0.0
H388 H 0.37459 0.05364 0.57701 0.0
H389 H 0.4122 0.05856 0.50489 0.0
C390 C 0.23989 0.2656 0.66249 0.0
C391 C 0.24153 0.23917 0.66087 0.0
C392 C 0.23766 0.27854 0.68591 0.0
C393 C 0.23698 0.26537 0.70831 0.0
C394 C 0.23874 0.23891 0.70681 0.0
C395 C 0.2412 0.22592 0.68326 0.0
C396 C 0.23403 0.27954 0.73293 0.0
C397 C 0.21537 0.27114 0.75009 0.0
C398 C 0.21026 0.28646 0.77177 0.0
C399 C 0.22471 0.30997 0.77641 0.0
C400 C 0.24372 0.31835 0.7597 0.0
C401 C 0.24833 0.30293 0.73811 0.0
C402 C 0.25763 0.34394 0.76372 0.0
C403 C 0.24471 0.36522 0.77138 0.0
C404 C 0.28373 0.34746 0.75875 0.0
C405 C 0.29647 0.37177 0.76068 0.0
C406 C 0.28344 0.39308 0.76776 0.0
C407 C 0.18815 0.27965 0.78812 0.0
C408 C 0.165 0.26883 0.77728 0.0
C409 C 0.18906 0.28668 0.81422 0.0
C410 C 0.16697 0.28505 0.82855 0.0
C411 C 0.14369 0.2757 0.81725 0.0
C412 C 0.14301 0.2667 0.79179 0.0
C413 C 0.25754 0.38955 0.77349 0.0
H414 H 0.24032 0.27633 0.64558 0.0
H415 H 0.23602 0.29888 0.68643 0.0
H416 H 0.23833 0.22834 0.72383 0.0
H417 H 0.2423 0.2055 0.68248 0.0
H418 H 0.20415 0.2532 0.74595 0.0
H419 H 0.26248 0.30959 0.7247 0.0
H420 H 0.22064 0.32228 0.79265 0.0
H421 H 0.22451 0.36321 0.77498 0.0
H422 H 0.2943 0.33142 0.75322 0.0
H423 H 0.31658 0.37391 0.75661 0.0
H424 H 0.16339 0.26348 0.75724 0.0
H425 H 0.20666 0.29447 0.82337 0.0
H426 H 0.24703 0.4057 0.77883 0.0
H427 H 0.12516 0.25962 0.78268 0.0
H428 H 0.16787 0.29194 0.84824 0.0
C429 C 0.86907 0.27928 0.76009 0.0
C430 C 0.88215 0.25796 0.76511 0.0
C431 C 0.84621 0.2763 0.74633 0.0
C432 C 0.83602 0.25196 0.73748 0.0
C433 C 0.84998 0.23093 0.74094 0.0
C434 C 0.87285 0.23391 0.75454 0.0
C435 C 0.80975 0.248 0.72727 0.0
C436 C 0.80133 0.26305 0.70838 0.0
C437 C 0.77602 0.25953 0.69936 0.0
C438 C 0.75922 0.24083 0.70983 0.0
C439 C 0.76759 0.22544 0.72848 0.0
C440 C 0.7928 0.22928 0.73716 0.0
C441 C 0.75027 0.20497 0.73868 0.0
C442 C 0.72513 0.20917 0.74493 0.0
C443 C 0.75893 0.18098 0.74231 0.0
C444 C 0.74285 0.16161 0.75201 0.0
C445 C 0.71772 0.16577 0.75823 0.0
C446 C 0.76745 0.27461 0.67839 0.0
C447 C 0.77715 0.30009 0.67625 0.0
C448 C 0.75023 0.26332 0.65971 0.0
C449 C 0.74342 0.27694 0.63916 0.0
C450 C 0.75403 0.30191 0.63661 0.0
C451 C 0.77072 0.3135 0.65541 0.0
C452 C 0.709 0.18973 0.7546 0.0
H453 H 0.87566 0.29804 0.76811 0.0
H454 H 0.83573 0.29279 0.74397 0.0
H455 H 0.84269 0.21201 0.73392 0.0
H456 H 0.88278 0.21722 0.75761 0.0
H457 H 0.81476 0.27695 0.7003 0.0
H458 H 0.79915 0.21801 0.75215 0.0
H459 H 0.73967 0.23796 0.70325 0.0
H460 H 0.71803 0.22756 0.74263 0.0
H461 H 0.77807 0.17703 0.73727 0.0
H462 H 0.74996 0.1432 0.75413 0.0
H463 H 0.78998 0.30964 0.6905 0.0
H464 H 0.7427 0.24364 0.66036 0.0
H465 H 0.68977 0.19354 0.75946 0.0
H466 H 0.77905 0.33283 0.65378 0.0
H467 H 0.73077 0.26755 0.62464 0.0
C468 C 0.53175 0.62793 0.48186 0.0
C469 C 0.53258 0.65357 0.49055 0.0
C470 C 0.53607 0.6092 0.49864 0.0
C471 C 0.54073 0.6158 0.52445 0.0
C472 C 0.542 0.64151 0.53307 0.0
C473 C 0.53823 0.66033 0.51615 0.0
C474 C 0.5425 0.59559 0.54245 0.0
C475 C 0.55954 0.57696 0.53816 0.0
C476 C 0.55944 0.55602 0.55351 0.0
C477 C 0.54237 0.55444 0.57372 0.0
C478 C 0.52499 0.57289 0.57819 0.0
C479 C 0.52542 0.59359 0.56254 0.0
C480 C 0.50533 0.56949 0.59803 0.0
C481 C 0.49447 0.54499 0.60281 0.0
C482 C 0.49701 0.59051 0.61212 0.0
C483 C 0.47844 0.58702 0.63063 0.0
C484 C 0.46804 0.5624 0.63577 0.0
C485 C 0.57566 0.53485 0.54733 0.0
C486 C 0.58037 0.52761 0.52195 0.0
C487 C 0.58557 0.52091 0.56651 0.0
C488 C 0.59928 0.49996 0.56042 0.0
C489 C 0.60388 0.49271 0.53499 0.0
C490 C 0.59452 0.5071 0.5159 0.0
C491 C 0.47642 0.54147 0.6216 0.0
H492 H 0.52734 0.62239 0.46218 0.0
H493 H 0.5348 0.58945 0.49166 0.0
H494 H 0.54555 0.64695 0.55292 0.0
H495 H 0.53873 0.68002 0.52321 0.0
H496 H 0.57268 0.57879 0.52261 0.0
H497 H 0.51156 0.60745 0.565 0.0
H498 H 0.54202 0.53833 0.58556 0.0
H499 H 0.4998 0.52833 0.59198 0.0
H500 H 0.50502 0.60968 0.60908 0.0
H501 H 0.47231 0.60366 0.64088 0.0
H502 H 0.57275 0.53746 0.50655 0.0
H503 H 0.58273 0.5261 0.5863 0.0
H504 H 0.46944 0.52214 0.62524 0.0
H505 H 0.59819 0.5027 0.49611 0.0
H506 H 0.60599 0.48934 0.5757 0.0
C507 C 0.51176 0.51512 0.89233 0.0
C508 C 0.49769 0.4973 0.8759 0.0
C509 C 0.52921 0.50713 0.90953 0.0
C510 C 0.53276 0.48114 0.91077 0.0
C511 C 0.51881 0.46333 0.89424 0.0
C512 C 0.50152 0.47135 0.87689 0.0
C513 C 0.55034 0.47262 0.92989 0.0
C514 C 0.5423 0.45271 0.94529 0.0
C515 C 0.55805 0.4458 0.96485 0.0
C516 C 0.58235 0.45857 0.96843 0.0
C517 C 0.59064 0.47865 0.95324 0.0
C518 C 0.57453 0.48542 0.93392 0.0
C519 C 0.61484 0.49435 0.95914 0.0
C520 C 0.62142 0.50193 0.98439 0.0
C521 C 0.63038 0.50369 0.93964 0.0
C522 C 0.65129 0.52125 0.94522 0.0
C523 C 0.65701 0.52981 0.9704 0.0
C524 C 0.54828 0.42683 0.98286 0.0
C525 C 0.52392 0.42809 0.99299 0.0
C526 C 0.56338 0.40801 0.99075 0.0
C527 C 0.55416 0.39065 0.00829 0.0
C528 C 0.52972 0.39189 0.01836 0.0
C529 C 0.51478 0.41088 0.01056 0.0
C530 C 0.64231 0.5194 0.98995 0.0
H531 H 0.50929 0.53525 0.89186 0.0
H532 H 0.53953 0.52124 0.92225 0.0
H533 H 0.52126 0.4432 0.89475 0.0
H534 H 0.49074 0.45716 0.86461 0.0
H535 H 0.52341 0.44311 0.94259 0.0
H536 H 0.58047 0.50126 0.92249 0.0
H537 H 0.59442 0.45354 0.9837 0.0
H538 H 0.60976 0.49532 -0.00014 0.0
H539 H 0.62596 0.49794 0.92001 0.0
H540 H 0.66224 0.52897 0.92975 0.0
H541 H 0.51207 0.44275 0.98772 0.0
H542 H 0.5822 0.40655 0.98316 0.0
H543 H 0.64652 0.52533 0.00958 0.0
H544 H 0.4961 0.41274 0.01833 0.0
H545 H 0.56604 0.37607 0.01369 0.0
C546 C 0.64814 0.22584 0.19863 0.0
C547 C 0.64025 0.25029 0.19552 0.0
C548 C 0.67043 0.22282 0.21215 0.0
C549 C 0.68509 0.24422 0.22286 0.0
C550 C 0.67838 0.26866 0.21787 0.0
C551 C 0.65619 0.27168 0.20428 0.0
C552 C 0.70459 0.24125 0.24248 0.0
C553 C 0.72362 0.22452 0.23866 0.0
C554 C 0.74113 0.22128 0.25822 0.0
C555 C 0.73939 0.23524 0.28152 0.0
C556 C 0.72008 0.25159 0.28583 0.0
C557 C 0.70272 0.25422 0.26613 0.0
C558 C 0.71747 0.26543 0.31095 0.0
C559 C 0.72482 0.25502 0.33357 0.0
C560 C 0.70719 0.28916 0.31256 0.0
C561 C 0.70398 0.30185 0.33594 0.0
C562 C 0.71205 0.29189 0.35852 0.0
C563 C 0.76008 0.20205 0.25539 0.0
C564 C 0.7533 0.17797 0.24332 0.0
C565 C 0.7842 0.20663 0.2671 0.0
C566 C 0.80022 0.18707 0.2685 0.0
C567 C 0.79275 0.16269 0.2577 0.0
C568 C 0.76957 0.15851 0.24434 0.0
C569 C 0.72254 0.26825 0.35695 0.0
H570 H 0.63639 0.209 0.19172 0.0
H571 H 0.67517 0.20378 0.21578 0.0
H572 H 0.68952 0.28547 0.22581 0.0
H573 H 0.65063 0.29075 0.20228 0.0
H574 H 0.72476 0.21412 0.22052 0.0
H575 H 0.6869 0.26567 0.26935 0.0
H576 H 0.75282 0.23287 0.29657 0.0
H577 H 0.73225 0.23656 0.33343 0.0
H578 H 0.7017 0.29824 0.29574 0.0
H579 H 0.69514 0.31959 0.3361 0.0
H580 H 0.73483 0.17364 0.23433 0.0
H581 H 0.79037 0.22513 0.27599 0.0
H582 H 0.7294 0.25994 0.37368 0.0
H583 H 0.76337 0.13978 0.23599 0.0
H584 H 0.81817 0.19077 0.27866 0.0
C585 C 0.42663 0.13088 0.04406 0.0
C586 C 0.44961 0.13922 0.05661 0.0
C587 C 0.42453 0.10824 0.02901 0.0
C588 C 0.44543 0.09365 0.02612 0.0
C589 C 0.46835 0.10193 0.03879 0.0
C590 C 0.4704 0.12447 0.05394 0.0
C591 C 0.44347 0.07009 0.00956 0.0
C592 C 0.46265 0.06549 0.99217 0.0
C593 C 0.46065 0.04352 0.97586 0.0
C594 C 0.43922 0.02598 0.97725 0.0
C595 C 0.41983 0.03041 0.99448 0.0
C596 C 0.42216 0.05246 0.01064 0.0
C597 C 0.3969 0.01231 0.99528 0.0
C598 C 0.37273 0.02136 -0.00274 0.0
C599 C 0.39897 0.98593 0.99404 0.0
C600 C 0.3773 0.96893 0.99495 0.0
C601 C 0.35314 0.978 0.99713 0.0
C602 C 0.48024 0.03971 0.95648 0.0
C603 C 0.47305 0.03116 0.93162 0.0
C604 C 0.50613 0.04572 0.96233 0.0
C605 C 0.52438 0.04399 0.94352 0.0
C606 C 0.51707 0.03615 0.91851 0.0
C607 C 0.49127 0.02932 0.91287 0.0
C608 C 0.35108 0.00438 -0.00179 0.0
H609 H 0.41028 0.14184 0.04593 0.0
H610 H 0.4067 0.10237 0.01925 0.0
H611 H 0.48468 0.09093 0.03701 0.0
H612 H 0.48844 0.13061 0.06318 0.0
H613 H 0.4787 0.07958 0.99069 0.0
H614 H 0.40751 0.05577 0.02437 0.0
H615 H 0.43744 0.00904 0.96461 0.0
H616 H 0.37053 0.04159 -0.00208 0.0
H617 H 0.41737 0.97842 0.9927 0.0
H618 H 0.37945 0.94868 0.99381 0.0
H619 H 0.45324 0.02662 0.92642 0.0
H620 H 0.51227 0.05207 0.9814 0.0
H621 H 0.33274 0.01194 0.00016 0.0
H622 H 0.4851 0.02284 0.89384 0.0
H623 H 0.54409 0.04953 0.94842 0.0
O624 O 0.2255 0.83625 0.99144 0.0
Cd625 Cd 0.23653 0.86015 0.02236 0.0
Cd626 Cd 0.20768 0.89327 0.99667 0.0
O627 O 0.20017 0.86115 0.97317 0.0
O628 O 0.2556 0.8387 0.04393 0.0
O629 O 0.2207 0.85561 0.05664 0.0
C630 C 0.23943 0.84241 0.0615 0.0
C631 C 0.17513 0.91935 0.00535 0.0
C632 C 0.21017 0.84016 0.97372 0.0
C633 C 0.26321 0.90867 0.00484 0.0
O634 O 0.24259 0.91333 0.99435 0.0
O635 O 0.26423 0.88901 0.01742 0.0
O636 O 0.18518 0.9177 0.9833 0.0
O637 O 0.18292 0.90524 0.02252 0.0
O638 O 0.15802 0.55684 0.31058 0.0
Cd639 Cd 0.13646 0.5237 0.31794 0.0
Cd640 Cd 0.10432 0.53866 0.28225 0.0
O641 O 0.13352 0.56654 0.2792 0.0
O642 O 0.15911 0.5007 0.33342 0.0
O643 O 0.14111 0.49274 0.29539 0.0
C644 C 0.15585 0.48612 0.31306 0.0
C645 C 0.08224 0.5248 0.24495 0.0
C646 C 0.15333 0.57129 0.29299 0.0
C647 C 0.08508 0.53424 0.33558 0.0
O648 O 0.08135 0.54072 0.3132 0.0
O649 O 0.10594 0.52583 0.34167 0.0
O650 O 0.08057 0.54713 0.25544 0.0
O651 O 0.09714 0.51015 0.25538 0.0
O652 O 0.75655 0.68952 0.9929 0.0
Cd653 Cd 0.74983 0.66352 0.02021 0.0
Cd654 Cd 0.78541 0.63976 0.99531 0.0
O655 O 0.79151 0.67419 0.97851 0.0
O656 O 0.73022 0.68112 0.04658 0.0
O657 O 0.76814 0.66807 0.05388 0.0
C658 C 0.7487 0.67908 0.06218 0.0
C659 C 0.81903 0.62103 0.01286 0.0
C660 C 0.77588 0.69116 0.97883 0.0
C661 C 0.73319 0.61335 0.99399 0.0
O662 O 0.75489 0.61437 0.98374 0.0
O663 O 0.72797 0.63052 0.01037 0.0
O664 O 0.81623 0.62165 0.98866 0.0
O665 O 0.80312 0.63196 0.0273 0.0
O666 O 0.91247 0.01346 0.28052 0.0
Cd667 Cd 0.88803 0.0172 0.25069 0.0
Cd668 Cd 0.8594 0.03543 0.28684 0.0
O669 O 0.89085 0.03329 0.30975 0.0
O670 O 0.90789 0.0091 0.22007 0.0
O671 O 0.89488 0.04728 0.22899 0.0
C672 C 0.90682 0.03233 0.21418 0.0
C673 C 0.84388 0.07391 0.2786 0.0
C674 C 0.91034 0.02215 0.30321 0.0
C675 C 0.83848 0.9871 0.26099 0.0
O676 O 0.83595 0.00247 0.27996 0.0
O677 O 0.85708 0.9908 0.24619 0.0
O678 O 0.8395 0.06353 0.29989 0.0
O679 O 0.85755 0.06256 0.26214 0.0
O680 O 0.26253 0.19932 0.49192 0.0
Cd681 Cd 0.25072 0.17439 0.51903 0.0
Cd682 Cd 0.28153 0.14395 0.49206 0.0
O683 O 0.28888 0.17567 0.47136 0.0
O684 O 0.23245 0.19593 0.54335 0.0
O685 O 0.26641 0.17715 0.55414 0.0
C686 C 0.24862 0.19144 0.56053 0.0
C687 C 0.31515 0.12255 0.50615 0.0
C688 C 0.27836 0.19636 0.47429 0.0
C689 C 0.22642 0.1254 0.49478 0.0
O690 O 0.24792 0.12165 0.48546 0.0
O691 O 0.22375 0.14508 0.50904 0.0
O692 O 0.30798 0.12085 0.48272 0.0
O693 O 0.30357 0.13718 0.52172 0.0
O694 O 0.41786 0.51475 0.7858 0.0
Cd695 Cd 0.39099 0.52001 0.75865 0.0
Cd696 Cd 0.36681 0.53788 0.79806 0.0
O697 O 0.40074 0.5361 0.81722 0.0
O698 O 0.40772 0.51213 0.726 0.0
O699 O 0.39695 0.55063 0.73754 0.0
C700 C 0.40711 0.53571 0.7212 0.0
C701 C 0.34951 0.5757 0.79081 0.0
C702 C 0.41877 0.52391 0.80853 0.0
C703 C 0.34306 0.49008 0.77367 0.0
O704 O 0.34327 0.50467 0.7936 0.0
O705 O 0.35927 0.49447 0.75649 0.0
O706 O 0.34782 0.56598 0.81272 0.0
O707 O 0.36176 0.56421 0.77323 0.0
O708 O 0.72544 0.3447 0.47164 0.0
Cd709 Cd 0.7357 0.3673 0.50384 0.0
Cd710 Cd 0.70516 0.39967 0.4834 0.0
O711 O 0.70042 0.37123 0.45545 0.0
O712 O 0.75529 0.34574 0.52484 0.0
O713 O 0.71933 0.36065 0.53742 0.0
C714 C 0.7385 0.34798 0.54213 0.0
C715 C 0.67074 0.41842 0.50061 0.0
C716 C 0.71084 0.35045 0.45403 0.0
C717 C 0.75893 0.41924 0.49044 0.0
O718 O 0.73749 0.42366 0.4816 0.0
O719 O 0.76176 0.39832 0.50045 0.0
O720 O 0.67712 0.42122 0.47741 0.0
O721 O 0.68339 0.40402 0.51405 0.0
O722 O 0.66027 0.06562 0.80631 0.0
Cd723 Cd 0.64218 0.03163 0.81665 0.0
Cd724 Cd 0.60399 0.0454 0.78367 0.0
O725 O 0.63113 0.07497 0.77902 0.0
O726 O 0.66834 0.01355 0.83364 0.0
O727 O 0.64972 -0.00058 0.79724 0.0
C728 C 0.6658 0.99652 0.81518 0.0
C729 C 0.57974 0.03156 0.74771 0.0
C730 C 0.65249 0.08018 0.7901 0.0
C731 C 0.59076 0.03772 0.8384 0.0
O732 O 0.58404 0.04397 0.81668 0.0
O733 O 0.61315 0.03175 0.84235 0.0
O734 O 0.57708 0.05304 0.75962 0.0
O735 O 0.59666 0.01774 0.75605 0.0
O736 O 0.96962 0.29249 0.92038 0.0
Cd737 Cd 0.97602 0.26157 0.8966 0.0
Cd738 Cd 0.00464 0.29567 0.87162 0.0
O739 O -0.00213 0.31907 0.90285 0.0
O740 O 0.96613 0.23057 0.91532 0.0
O741 O 0.00577 0.24236 0.9049 0.0
C742 C 0.98987 0.22666 0.91585 0.0
C743 C 0.046 0.28949 0.86012 0.0
C744 C 0.98181 0.3143 0.92009 0.0
C745 C 0.95948 0.27093 0.84363 0.0
O746 O 0.97688 0.28915 0.84388 0.0
O747 O 0.95699 0.25676 0.8623 0.0
O748 O 0.03625 0.31048 0.85595 0.0
O749 O 0.03227 0.27202 0.87117 0.0
O750 O 0.48163 0.79767 0.42866 0.0
Cd751 Cd 0.48804 0.76542 0.40685 0.0
Cd752 Cd 0.51516 0.79794 0.37912 0.0
O753 O 0.50877 0.82343 0.40874 0.0
O754 O 0.47827 0.73592 0.42767 0.0
O755 O 0.51782 0.74661 0.41621 0.0
C756 C 0.50194 0.73178 0.42819 0.0
C757 C 0.55631 0.79118 0.36751 0.0
C758 C 0.49322 0.81957 0.42661 0.0
C759 C 0.46969 0.77096 0.35365 0.0
O760 O 0.48679 0.78929 0.35232 0.0
O761 O 0.46804 0.75808 0.37329 0.0
O762 O 0.54627 0.81161 0.36187 0.0
O763 O 0.54299 0.77461 0.38009 0.0
O764 O 0.96972 0.78519 0.6844 0.0
Cd765 Cd 0.99383 0.76941 0.65871 0.0
Cd766 Cd 0.97234 0.8016 0.62647 0.0
O767 O 0.95327 0.81125 0.65884 0.0
O768 O 0.01327 0.74732 0.67936 0.0
O769 O 0.03167 0.7795 0.65932 0.0
C770 C 0.03376 0.76047 0.67332 0.0
C771 C 0.99046 0.83412 0.60288 0.0
C772 C 0.95458 0.80203 0.68045 0.0
C773 C 0.9652 0.74625 0.61193 0.0
O774 O 0.96014 0.76834 0.6063 0.0
O775 O 0.97831 0.74324 0.63158 0.0
O776 O 0.96619 0.82917 0.6038 0.0
O777 O 0.00473 0.82071 0.61574 0.0
O778 O 0.47089 0.28672 0.1784 0.0
Cd779 Cd 0.49501 0.26834 0.15469 0.0
Cd780 Cd 0.47084 0.29235 0.11852 0.0
O781 O 0.45036 0.30509 0.1489 0.0
O782 O 0.51873 0.25324 0.17763 0.0
O783 O 0.53164 0.28107 0.14965 0.0
C784 C 0.53718 0.26586 0.16682 0.0
C785 C 0.48863 0.32155 0.09095 0.0
C786 C 0.45358 0.30048 0.172 0.0
C787 C 0.46762 0.2357 0.11293 0.0
O788 O 0.4618 0.25598 0.10335 0.0
O789 O 0.48034 0.23676 0.13345 0.0
O790 O 0.46462 0.31461 0.09052 0.0
O791 O 0.50268 0.31218 0.1076 0.0
C792 C 0.22159 0.78704 0.92558 0.0
C793 C 0.20393 0.79089 0.90645 0.0
H794 H 0.2372 0.79938 0.96207 0.0
C795 C 0.18637 0.80909 0.91101 0.0
H796 H 0.2355 0.7733 0.92264 0.0
C797 C 0.18754 0.82426 0.9335 0.0
C798 C 0.20615 0.82139 0.952 0.0
H799 H 0.17211 0.81209 0.89691 0.0
H800 H 0.17438 0.83879 0.93601 0.0
C801 C 0.22262 0.80206 0.94819 0.0
C802 C 0.02485 0.55326 0.36636 0.0
C803 C 0.02773 0.54548 0.3911 0.0
H804 H 0.04053 0.55562 0.32946 0.0
C805 C 0.0493 0.53323 0.39739 0.0
H806 H 0.00821 0.5624 0.36091 0.0
C807 C 0.06793 0.5293 0.37934 0.0
C808 C 0.06517 0.53739 0.35464 0.0
H809 H 0.05199 0.52715 0.4164 0.0
H810 H 0.08454 0.52012 0.38478 0.0
C811 C 0.04332 0.54921 0.34832 0.0
C812 C 0.76226 0.73643 0.92886 0.0
C813 C 0.78581 0.75091 0.92689 0.0
H814 H 0.74065 0.70669 0.9473 0.0
C815 C 0.80598 0.74565 0.94292 0.0
H816 H 0.74637 0.73909 0.91654 0.0
C817 C 0.80287 0.72608 0.95972 0.0
C818 C 0.7793 0.71203 0.96158 0.0
H819 H 0.82423 0.75662 0.94266 0.0
H820 H 0.81877 0.72216 0.97153 0.0
C821 C 0.75894 0.71757 0.94633 0.0
C822 C 0.94539 0.02141 0.36593 0.0
C823 C 0.9658 0.00711 0.35926 0.0
H824 H 0.91201 0.03758 0.35351 0.0
C825 C 0.96842 -0.00119 0.3338 0.0
H826 H 0.94309 0.02847 0.38532 0.0
C827 C 0.95074 0.00421 0.31552 0.0
C828 C 0.93001 0.01802 0.32229 0.0
H829 H 0.98379 0.98755 0.32807 0.0
H830 H 0.95309 0.99711 0.29615 0.0
C831 C 0.92769 0.0268 0.34766 0.0
C832 C 0.2609 0.20811 0.63061 0.0
C833 C 0.24284 0.22569 0.63567 0.0
H834 H 0.27718 0.18357 0.60267 0.0
C835 C 0.22637 0.23119 0.61614 0.0
H836 H 0.27389 0.20363 0.64535 0.0
C837 C 0.22819 0.2198 0.59192 0.0
C838 C 0.24662 0.20269 0.58658 0.0
H839 H 0.21203 0.2444 0.61959 0.0
H840 H 0.21527 0.22468 0.57731 0.0
C841 C 0.26286 0.19678 0.6062 0.0
C842 C 0.45106 0.57371 0.67902 0.0
C843 C 0.44942 0.55813 0.65646 0.0
H844 H 0.43826 0.57902 0.71722 0.0
C845 C 0.43106 0.53707 0.65464 0.0
H846 H 0.46502 0.58994 0.68133 0.0
C847 C 0.41648 0.53042 0.6755 0.0
C848 C 0.41917 0.54523 0.69829 0.0
H849 H 0.42846 0.52515 0.63735 0.0
H850 H 0.40351 0.51332 0.67401 0.0
C851 C 0.43581 0.56745 0.69966 0.0
C852 C 0.72495 0.31855 0.60493 0.0
C853 C 0.74964 0.3149 0.61318 0.0
H854 H 0.70199 0.33252 0.57591 0.0
C855 C 0.77041 0.32261 0.59827 0.0
H856 H 0.70869 0.31264 0.6162 0.0
C857 C 0.7666 0.3333 0.57518 0.0
C858 C 0.74197 0.33698 0.5668 0.0
H859 H 0.78959 0.31975 0.6042 0.0
H860 H 0.78301 0.33878 0.56391 0.0
C861 C 0.72116 0.32988 0.582 0.0
C862 C 0.52909 0.03114 0.69689 0.0
C863 C 0.53236 0.00849 0.68262 0.0
H864 H 0.5415 0.05616 0.72842 0.0
C865 C 0.55137 0.99322 0.68999 0.0
H866 H 0.5149 0.04352 0.69146 0.0
C867 C 0.56681 0.00054 0.71123 0.0
C868 C 0.56357 0.02331 0.72535 0.0
H869 H 0.5542 0.97556 0.67941 0.0
H870 H 0.5813 0.98844 0.71651 0.0
C871 C 0.54451 0.03847 0.71797 0.0
C872 C 0.90462 0.24234 0.80216 0.0
C873 C 0.90363 0.26028 0.78356 0.0
H874 H 0.92297 0.23158 0.83553 0.0
C875 C 0.92213 0.28111 0.784 0.0
H876 H 0.89042 0.22629 0.80263 0.0
C877 C 0.94084 0.28425 0.80306 0.0
C878 C 0.94125 0.2667 0.82213 0.0
H879 H 0.92194 0.29514 0.7698 0.0
H880 H 0.95456 0.30075 0.80321 0.0
C881 C 0.92318 0.2455 0.8212 0.0
C882 C 0.49855 0.88431 0.46162 0.0
C883 C 0.47937 0.88125 0.47971 0.0
H884 H 0.5179 0.86731 0.43062 0.0
C885 C 0.46476 0.85775 0.48024 0.0
H886 H 0.50993 0.90231 0.4606 0.0
C887 C 0.46933 0.83765 0.46309 0.0
C888 C 0.48849 0.84072 0.44495 0.0
H889 H 0.45001 0.8548 0.49415 0.0
H890 H 0.45778 0.81974 0.46403 0.0
C891 C 0.50302 0.86429 0.44437 0.0
C892 C 0.1021 0.25741 0.83372 0.0
C893 C 0.11975 0.27846 0.83083 0.0
H894 H 0.06486 0.24438 0.84604 0.0
C895 C 0.11359 0.30286 0.83904 0.0
H896 H 0.1065 0.23845 0.82737 0.0
C897 C 0.08973 0.30634 0.84905 0.0
C898 C 0.07185 0.2854 0.85156 0.0
H899 H 0.12687 0.31938 0.83673 0.0
H900 H 0.08515 0.32547 0.85452 0.0
C901 C 0.0784 0.26081 0.84439 0.0
C902 C 0.50114 0.67086 0.46243 0.0
C903 C 0.52554 0.67296 0.4734 0.0
H904 H 0.47447 0.68812 0.43967 0.0
C905 C 0.54259 0.69399 0.46863 0.0
H906 H 0.48769 0.6548 0.46602 0.0
C907 C 0.53525 0.71278 0.45311 0.0
C908 C 0.51054 0.71107 0.44277 0.0
H909 H 0.5615 0.69589 0.47697 0.0
H910 H 0.54861 0.729 0.44986 0.0
C911 C 0.4936 0.6899 0.44747 0.0
C912 C 0.90188 0.83374 0.71429 0.0
C913 C 0.89985 0.82057 0.73668 0.0
H914 H 0.92092 0.83846 0.67912 0.0
C915 C 0.9171 0.80243 0.74116 0.0
H916 H 0.88918 0.84815 0.71049 0.0
C917 C 0.93548 0.79704 0.72331 0.0
C918 C 0.93696 0.80961 0.70053 0.0
H919 H 0.9159 0.79177 0.75811 0.0
H920 H 0.94803 0.78248 0.72706 0.0
C921 C 0.92021 0.82831 0.6964 0.0
C922 C 0.03197 0.86855 0.55556 0.0
C923 C 0.01807 0.8895 0.55102 0.0
H924 H 0.03435 0.83478 0.57603 0.0
C925 C 0.99624 0.89295 0.56545 0.0
H926 H 0.04871 0.86502 0.54471 0.0
C927 C 0.98771 0.87521 0.58275 0.0
C928 C 0.0012 0.85402 0.58666 0.0
H929 H 0.98547 0.90923 0.56326 0.0
H930 H 0.97039 0.87798 0.59297 0.0
C931 C 0.02375 0.85113 0.57344 0.0
C932 C 0.08305 0.7238 0.70356 0.0
C933 C 0.10485 0.74104 0.70357 0.0
H934 H 0.04368 0.71649 0.69412 0.0
C935 C 0.10364 0.76414 0.6917 0.0
H936 H 0.08349 0.70564 0.7121 0.0
C937 C 0.0807 0.77034 0.68113 0.0
C938 C 0.05864 0.75359 0.68242 0.0
H939 H 0.12008 0.77789 0.69155 0.0
H940 H 0.08006 0.78857 0.67277 0.0
C941 C 0.06023 0.73004 0.69324 0.0
C942 C 0.93737 0.70513 0.55582 0.0
C943 C 0.94287 0.68077 0.5625 0.0
H944 H 0.93993 0.74503 0.5663 0.0
C945 C 0.9548 0.67808 0.58591 0.0
H946 H 0.92797 0.70771 0.53797 0.0
C947 C 0.96156 0.69932 0.60209 0.0
C948 C 0.95656 0.72377 0.59525 0.0
H949 H 0.95963 0.65961 0.59143 0.0
H950 H 0.97111 0.69655 0.61981 0.0
C951 C 0.94411 0.72645 0.57208 0.0
C952 C 0.78899 0.93297 0.27317 0.0
C953 C 0.79321 0.91547 0.25298 0.0
H954 H 0.79989 0.96949 0.29154 0.0
C955 C 0.8107 0.92272 0.23429 0.0
H956 H 0.7757 0.92786 0.28793 0.0
C957 C 0.82455 0.94648 0.23636 0.0
C958 C 0.82126 0.96354 0.25719 0.0
H959 H 0.814 0.90982 0.21826 0.0
H960 H 0.83838 0.95114 0.22195 0.0
C961 C 0.80289 0.95679 0.27527 0.0
C962 C 0.81531 0.12489 0.24271 0.0
C963 C 0.80777 0.14109 0.26264 0.0
H964 H 0.83332 0.09107 0.23217 0.0
C965 C 0.81328 0.13575 0.28772 0.0
H966 H 0.8112 0.12867 0.22323 0.0
C967 C 0.82539 0.1141 0.29286 0.0
C968 C 0.83268 0.09767 0.27299 0.0
H969 H 0.80743 0.14787 0.3034 0.0
H970 H 0.82884 0.11009 0.31241 0.0
C971 C 0.82798 0.1035 0.24784 0.0
C972 C 0.30778 0.96413 0.98563 0.0
C973 C 0.33019 0.96002 -0.0013 0.0
H974 H 0.26902 0.95111 0.97727 0.0
C975 C 0.33045 0.93882 0.0136 0.0
H976 H 0.30712 0.98014 0.97374 0.0
C977 C 0.30872 0.9221 0.01549 0.0
C978 C 0.28624 0.92627 0.00255 0.0
H979 H 0.34733 0.93536 0.02418 0.0
H980 H 0.30952 0.90602 0.02727 0.0
C981 C 0.286 0.94743 0.98756 0.0
C982 C 0.19171 0.43031 0.32903 0.0
C983 C 0.2007 0.42254 0.30522 0.0
H984 H 0.17054 0.45682 0.35013 0.0
C985 C 0.1934 0.43463 0.28365 0.0
H986 H 0.19727 0.42134 0.34592 0.0
C987 C 0.17763 0.45457 0.28596 0.0
C988 C 0.16961 0.4631 0.30997 0.0
H989 H 0.2002 0.42888 0.26512 0.0
H990 H 0.17265 0.46402 0.26917 0.0
C991 C 0.17654 0.45062 0.33142 0.0
C992 C 0.18605 0.06678 0.46877 0.0
C993 C 0.16248 0.07032 0.47991 0.0
H994 H 0.22478 0.08134 0.46477 0.0
C995 C 0.16002 0.09226 0.49562 0.0
H996 H 0.18855 0.04993 0.45676 0.0
C997 C 0.18073 0.11021 0.50027 0.0
C998 C 0.20439 0.10659 0.48933 0.0
H999 H 0.14199 0.09569 0.50417 0.0
H1000 H 0.17817 0.12688 0.51252 0.0
C1001 C 0.20681 0.08472 0.47346 0.0
C1002 C 0.67559 0.14017 0.75815 0.0
C1003 C 0.70051 0.14482 0.76772 0.0
H1004 H 0.64091 0.11616 0.7577 0.0
C1005 C 0.70919 0.12872 0.78561 0.0
H1006 H 0.66846 0.1521 0.74415 0.0
C1007 C 0.69344 0.10801 0.79335 0.0
C1008 C 0.66871 0.10297 0.78327 0.0
H1009 H 0.72823 0.13205 0.79355 0.0
H1010 H 0.7008 0.09574 0.8069 0.0
C1011 C 0.65987 0.11946 0.76582 0.0
C1012 C 0.36289 0.07331 0.50617 0.0
C1013 C 0.37213 0.07573 0.53127 0.0
H1014 H 0.33798 0.08623 0.47862 0.0
C1015 C 0.36287 0.09429 0.54803 0.0
H1016 H 0.36915 0.05891 0.49285 0.0
C1017 C 0.34458 0.10983 0.5399 0.0
C1018 C 0.33533 0.1072 0.51482 0.0
H1019 H 0.3698 0.09688 0.56741 0.0
H1020 H 0.33763 0.1238 0.55327 0.0
C1021 C 0.34484 0.08891 0.49803 0.0
C1022 C 0.61381 0.45616 0.50529 0.0
C1023 C 0.61886 0.47072 0.52817 0.0
H1024 H 0.6265 0.42819 0.47859 0.0
C1025 C 0.6393 0.46503 0.54354 0.0
H1026 H 0.59774 0.45922 0.49334 0.0
C1027 C 0.65511 0.44633 0.53548 0.0
C1028 C 0.65109 0.43346 0.5117 0.0
H1029 H 0.64401 0.47586 0.56116 0.0
H1030 H 0.67147 0.44325 0.54703 0.0
C1031 C 0.63002 0.43807 0.49695 0.0
C1032 C 0.7118 0.33339 0.38425 0.0
C1033 C 0.71032 0.30658 0.38331 0.0
H1034 H 0.71231 0.36795 0.40725 0.0
C1035 C 0.70785 0.29422 0.40631 0.0
H1036 H 0.71458 0.34389 0.36734 0.0
C1037 C 0.70773 0.30834 0.42949 0.0
C1038 C 0.70907 0.33499 0.43004 0.0
H1039 H 0.70608 0.27367 0.40655 0.0
H1040 H 0.70647 0.29847 0.44693 0.0
C1041 C 0.7107 0.34734 0.40724 0.0
C1042 C 0.53028 0.04541 0.87446 0.0
C1043 C 0.53608 0.03624 0.89808 0.0
H1044 H 0.54293 0.05311 0.83722 0.0
C1045 C 0.56016 0.02767 0.90206 0.0
H1046 H 0.51208 0.05262 0.87095 0.0
C1047 C 0.57805 0.02821 0.88274 0.0
C1048 C 0.57215 0.03728 0.85908 0.0
H1049 H 0.56509 0.02031 0.92001 0.0
H1050 H 0.59642 0.02137 0.8863 0.0
C1051 C 0.54807 0.04587 0.85517 0.0
C1052 C 0.30546 0.23282 0.41939 0.0
C1053 C 0.28963 0.25283 0.41891 0.0
H1054 H 0.31429 0.19916 0.43724 0.0
C1055 C 0.27123 0.25504 0.43771 0.0
H1056 H 0.31971 0.2306 0.40501 0.0
C1057 C 0.26819 0.23718 0.45621 0.0
C1058 C 0.28333 0.21655 0.45615 0.0
H1059 H 0.25897 0.27046 0.43793 0.0
H1060 H 0.25347 0.23918 0.47012 0.0
C1061 C 0.30226 0.21477 0.43776 0.0
C1062 C 0.4612 0.52283 0.86656 0.0
C1063 C 0.47857 0.50559 0.85819 0.0
H1064 H 0.42862 0.54217 0.85746 0.0
C1065 C 0.477 0.49562 0.83302 0.0
H1066 H 0.46188 0.53068 0.88593 0.0
C1067 C 0.45807 0.50224 0.8167 0.0
C1068 C 0.44014 0.51884 0.82526 0.0
H1069 H 0.49034 0.48255 0.82598 0.0
H1070 H 0.45716 0.49386 0.79752 0.0
C1071 C 0.44211 0.52933 0.85028 0.0
C1072 C 0.7251 0.71246 0.12125 0.0
C1073 C 0.74482 0.71031 0.1388 0.0
H1074 H 0.71091 0.70436 0.08353 0.0
C1075 C 0.76584 0.69736 0.13102 0.0
H1076 H 0.70888 0.72275 0.12638 0.0
C1077 C 0.76714 0.68698 0.10618 0.0
C1078 C 0.74745 0.68937 0.08866 0.0
H1079 H 0.78126 0.69522 0.14414 0.0
H1080 H 0.7836 0.67721 0.10068 0.0
C1081 C 0.72638 0.70208 0.09655 0.0
C1082 C 0.93419 0.03188 0.14892 0.0
C1083 C 0.9506 0.05442 0.15014 0.0
H1084 H 0.90775 0.00716 0.16851 0.0
C1085 C 0.95006 0.07114 0.17179 0.0
H1086 H 0.93327 0.01896 0.13227 0.0
C1087 C 0.9345 0.06475 0.19219 0.0
C1088 C 0.91974 0.04132 0.19147 0.0
H1089 H 0.96249 0.08858 0.17354 0.0
H1090 H 0.93516 0.07739 0.20907 0.0
C1091 C 0.91931 0.0252 0.16954 0.0
C1092 C 0.27205 0.81897 0.11815 0.0
C1093 C 0.25146 0.81128 0.13329 0.0
H1094 H 0.2842 0.83453 0.08337 0.0
C1095 C 0.22665 0.81465 0.12518 0.0
H1096 H 0.29131 0.8163 0.12396 0.0
C1097 C 0.22255 0.82555 0.10208 0.0
C1098 C 0.24319 0.83242 0.08658 0.0
H1099 H 0.21052 0.80872 0.13663 0.0
H1100 H 0.2033 0.82786 0.09602 0.0
C1101 C 0.26794 0.82919 0.09489 0.0
C1102 C 0.05282 0.48448 0.18887 0.0
C1103 C 0.03492 0.50035 0.18024 0.0
H1104 H 0.08189 0.47967 0.21636 0.0
C1105 C 0.03336 0.52438 0.19252 0.0
H1106 H 0.05435 0.46582 0.17972 0.0
C1107 C 0.04907 0.5323 0.21322 0.0
C1108 C 0.06666 0.51635 0.22224 0.0
H1109 H 0.02007 0.53719 0.18601 0.0
H1110 H 0.04718 0.55093 0.22229 0.0
C1111 C 0.0685 0.49237 0.20982 0.0
C1112 C 0.42914 0.77785 0.29536 0.0
C1113 C 0.41079 0.75706 0.29685 0.0
H1114 H 0.46242 0.79845 0.31201 0.0
C1115 C 0.41312 0.73998 0.31605 0.0
H1116 H 0.42795 0.79119 0.28063 0.0
C1117 C 0.43277 0.74408 0.33393 0.0
C1118 C 0.45059 0.76536 0.33306 0.0
H1119 H 0.39912 0.72397 0.31796 0.0
H1120 H 0.43354 0.73089 0.34886 0.0
C1121 C 0.44893 0.78192 0.31326 0.0
C1122 C 0.9549 0.34869 0.97724 0.0
C1123 C 0.96971 0.37216 0.9781 0.0
H1124 H 0.94718 0.31191 0.95834 0.0
C1125 C 0.98828 0.37653 0.9596 0.0
H1126 H 0.94058 0.34473 0.99137 0.0
C1127 C 0.99209 0.3578 0.94073 0.0
C1128 C 0.97746 0.33422 0.93996 0.0
H1129 H -0.00026 0.39458 0.95957 0.0
H1130 H 0.00659 0.36182 0.92679 0.0
C1131 C 0.95878 0.32987 0.9584 0.0
C1132 C 0.62289 0.80315 0.34323 0.0
C1133 C 0.62925 0.77828 0.33725 0.0
H1134 H 0.59459 0.82668 0.35731 0.0
C1135 C 0.61218 0.75754 0.34293 0.0
H1136 H 0.63565 0.81944 0.33875 0.0
C1137 C 0.58883 0.76168 0.35398 0.0
C1138 C 0.582 0.78661 0.35881 0.0
H1139 H 0.61672 0.73821 0.33837 0.0
H1140 H 0.57569 0.74542 0.3577 0.0
C1141 C 0.59937 0.80728 0.35368 0.0
C1142 C 0.03081 0.18817 0.95515 0.0
C1143 C 0.01374 0.16719 0.96007 0.0
H1144 H 0.03676 0.22329 0.93663 0.0
C1145 C 0.9893 0.16514 0.94918 0.0
H1146 H 0.04978 0.19005 0.96337 0.0
C1147 C 0.98169 0.18429 0.93436 0.0
C1148 C -0.0014 0.20551 0.92973 0.0
H1149 H 0.97581 0.14915 0.95288 0.0
H1150 H 0.96248 0.18262 0.92676 0.0
C1151 C 0.0234 0.20705 0.93982 0.0
C1152 C 0.41755 0.30674 0.23323 0.0
C1153 C 0.3983 0.32199 0.2265 0.0
H1154 H 0.45019 0.28821 0.22146 0.0
C1155 C 0.39857 0.33168 0.20223 0.0
H1156 H 0.41778 0.29868 0.25162 0.0
C1157 C 0.41705 0.32543 0.18478 0.0
C1158 C 0.43576 0.30945 0.19126 0.0
H1159 H 0.3843 0.34386 0.19659 0.0
H1160 H 0.41634 0.33271 0.16605 0.0
C1161 C 0.43611 0.30062 0.21585 0.0
C1162 C 0.53514 0.36577 0.05624 0.0
C1163 C 0.5196 0.37344 0.03682 0.0
H1164 H 0.53755 0.3434 0.08871 0.0
C1165 C 0.49401 0.36364 0.03533 0.0
H1166 H 0.55487 0.37317 0.05807 0.0
C1167 C 0.48408 0.34692 0.05298 0.0
C1168 C 0.4995 0.3394 0.07249 0.0
H1169 H 0.48163 0.36873 0.02035 0.0
H1170 H 0.46426 0.33978 0.0512 0.0
C1171 C 0.52519 0.34887 0.07389 0.0
C1172 C 0.59355 0.23837 0.19589 0.0
C1173 C 0.61414 0.25346 0.18641 0.0
H1174 H 0.55332 0.23069 0.19742 0.0
C1175 C 0.60929 0.27272 0.1701 0.0
H1176 H 0.59659 0.22373 0.20891 0.0
C1177 C 0.58429 0.27685 0.16355 0.0
C1178 C 0.56375 0.26196 0.17344 0.0
H1179 H 0.62482 0.28465 0.16251 0.0
H1180 H 0.58107 0.29181 0.15097 0.0
C1181 C 0.56869 0.2426 0.18955 0.0
C1182 C 0.46476 0.16516 0.09558 0.0
C1183 C 0.45225 0.16357 0.07196 0.0
H1184 H 0.47917 0.18912 0.12717 0.0
C1185 C 0.44332 0.1856 0.0626 0.0
H1186 H 0.4715 0.14838 0.10338 0.0
C1187 C 0.44767 0.209 0.07623 0.0
C1188 C 0.46094 0.21074 0.09949 0.0
H1189 H 0.43376 0.18491 0.04435 0.0
H1190 H 0.44116 0.22579 0.06823 0.0
C1191 C 0.46902 0.18849 0.10923 0.0
C1192 C 0.31297 0.42603 0.74867 0.0
C1193 C 0.2969 0.4189 0.76854 0.0
H1194 H 0.33974 0.4542 0.73449 0.0
C1195 C 0.29444 0.43625 0.78929 0.0
H1196 H 0.31485 0.4132 0.73223 0.0
C1197 C 0.30873 0.45989 0.79064 0.0
C1198 C 0.32558 0.4666 0.77117 0.0
H1199 H 0.28216 0.43119 0.80487 0.0
H1200 H 0.30712 0.47256 0.80725 0.0
C1201 C 0.32709 0.44962 0.74993 0.0
C1202 C 0.31437 0.62334 0.75648 0.0
C1203 C 0.30732 0.63944 0.77672 0.0
H1204 H 0.33391 0.59077 0.74504 0.0
C1205 C 0.3156 0.63538 0.80137 0.0
H1206 H 0.30818 0.62614 0.73732 0.0
C1207 C 0.32985 0.61499 0.80586 0.0
C1208 C 0.33651 0.59856 0.78572 0.0
H1209 H 0.3102 0.6474 0.81733 0.0
H1210 H 0.33532 0.61186 0.82516 0.0
C1211 C 0.32913 0.60323 0.7609 0.0
C1212 C 0.80005 0.47764 0.47268 0.0
C1213 C 0.82245 0.47518 0.48643 0.0
H1214 H 0.76226 0.46195 0.46333 0.0
C1215 C 0.82386 0.45428 0.50153 0.0
H1216 H 0.79847 0.49373 0.46106 0.0
C1217 C 0.80324 0.43602 0.50275 0.0
C1218 C 0.78075 0.4385 0.48909 0.0
H1219 H 0.84103 0.45188 0.51215 0.0
H1220 H 0.8049 0.42004 0.5145 0.0
C1221 C 0.77933 0.45953 0.4741 0.0
C1222 C 0.70369 0.94243 0.7919 0.0
C1223 C 0.71268 0.93426 0.81487 0.0
H1224 H 0.68109 0.96841 0.77398 0.0
C1225 C 0.70555 0.94602 0.83779 0.0
H1226 H 0.70906 0.93351 0.77404 0.0
C1227 C 0.69014 0.96616 0.83778 0.0
C1228 C 0.68114 0.97449 0.81485 0.0
H1229 H 0.71238 0.93997 0.85568 0.0
H1230 H 0.68526 0.97522 0.85574 0.0
C1231 C 0.68771 0.96223 0.7919 0.0
C1232 C 0.67197 0.5707 0.99388 0.0
C1233 C 0.6769 0.55092 0.97627 0.0
H1234 H 0.68566 0.6058 0.01311 0.0
C1235 C 0.70048 0.55193 0.96409 0.0
H1236 H 0.65379 0.57076 0.00319 0.0
C1237 C 0.71886 0.57225 0.96968 0.0
C1238 C 0.71389 0.59194 0.98744 0.0
H1239 H 0.70481 0.5369 0.95048 0.0
H1240 H 0.73694 0.57246 0.96017 0.0
C1241 C 0.69021 0.59093 -0.0006 0.0
C1242 C 0.21115 0.61921 0.29577 0.0
C1243 C 0.2042 0.6367 0.2784 0.0
H1244 H 0.20043 0.58481 0.31419 0.0
C1245 C 0.18037 0.63271 0.26625 0.0
H1246 H 0.22937 0.62194 0.3055 0.0
C1247 C 0.16389 0.61152 0.27112 0.0
C1248 C 0.17083 0.59389 0.28835 0.0
H1249 H 0.17466 0.64569 0.25252 0.0
H1250 H 0.14574 0.60894 0.26124 0.0
C1251 C 0.19455 0.59803 0.30079 0.0
C1252 C 0.85125 0.57639 0.05343 0.0
C1253 C 0.87302 0.57202 0.03918 0.0
H1254 H 0.81735 0.59584 0.05652 0.0
C1255 C 0.87799 0.58615 0.01765 0.0
H1256 H 0.84653 0.56576 0.06994 0.0
C1257 C 0.86085 0.60283 0.00964 0.0
C1258 C 0.83873 0.60636 0.02336 0.0
H1259 H 0.8949 0.58402 0.00661 0.0
H1260 H 0.86471 0.61265 0.99243 0.0
C1261 C 0.83443 0.5936 0.04573 0.0
C1262 C 0.13453 0.97392 -0.00223 0.0
C1263 C 0.12315 0.97618 0.02161 0.0
H1264 H 0.15953 0.95414 0.97395 0.0
C1265 C 0.12835 0.95889 0.03993 0.0
H1266 H 0.13132 0.98714 0.98335 0.0
C1267 C 0.14486 0.94002 0.03462 0.0
C1268 C 0.15637 0.93802 0.01083 0.0
H1269 H 0.11961 0.95988 0.05837 0.0
H1270 H 0.14876 0.92717 0.04918 0.0
C1271 C 0.15084 0.95502 0.99242 0.0
loop_
_geom_bond_atom_site_label_1
_geom_bond_atom_site_label_2
_geom_bond_distance
_geom_bond_site_symmetry_2
_ccdc_geom_bond_type
C0 C1 1.386 . S
C0 C2 1.397 . S
C0 H24 0.931 . S
C1 C0 1.386 . S
C1 C5 1.397 . S
C2 C0 1.397 . S
C2 C3 1.384 . S
C2 H25 0.930 . S
C3 C2 1.384 . S
C3 C4 1.377 . S
C3 C6 1.481 . S
C4 C3 1.377 . S
C4 C5 1.389 . S
C4 H26 0.929 . S
C5 C1 1.397 . S
C5 C4 1.389 . S
C5 H27 0.931 . S
C6 C3 1.481 . S
C6 C7 1.387 . S
C6 C11 1.390 . S
C7 C6 1.387 . S
C7 C8 1.401 . S
C7 H28 0.930 . S
C8 C7 1.401 . S
C8 C9 1.376 . S
C8 C17 1.511 . S
C9 C8 1.376 . S
C9 C10 1.392 . S
C9 H30 0.931 . S
C10 C9 1.392 . S
C10 C11 1.361 . S
C10 C12 1.500 . S
C11 C6 1.390 . S
C11 C10 1.361 . S
C11 H29 0.931 . S
C12 C10 1.500 . S
C12 C13 1.371 . S
C12 C14 1.365 . S
C13 C12 1.371 . S
C13 C23 1.386 . S
C13 H31 0.931 . S
C14 C12 1.365 . S
C14 C15 1.409 . S
C14 H32 0.929 . S
C15 C14 1.409 . S
C15 C16 1.380 . S
C15 H33 0.930 . S
C16 C15 1.380 . S
C16 C23 1.357 . S
C17 C8 1.511 . S
C17 C18 1.341 . S
C17 C19 1.371 . S
C18 C17 1.341 . S
C18 C22 1.394 . S
C18 H34 0.930 . S
C19 C17 1.371 . S
C19 C20 1.392 . S
C19 H35 0.931 . S
C20 C19 1.392 . S
C20 C21 1.331 . S
C20 H38 0.932 . S
C21 C20 1.331 . S
C21 C22 1.336 . S
C22 C18 1.394 . S
C22 C21 1.336 . S
C22 H37 0.929 . S
C23 C13 1.386 . S
C23 C16 1.357 . S
C23 H36 0.928 . S
H24 C0 0.931 . S
H25 C2 0.930 . S
H26 C4 0.929 . S
H27 C5 0.931 . S
H28 C7 0.930 . S
H29 C11 0.931 . S
H30 C9 0.931 . S
H31 C13 0.931 . S
H32 C14 0.929 . S
H33 C15 0.930 . S
H34 C18 0.930 . S
H35 C19 0.931 . S
H36 C23 0.928 . S
H37 C22 0.929 . S
H38 C20 0.932 . S
C39 C40 1.386 . S
C39 C41 1.397 . S
C39 H63 0.931 . S
C40 C39 1.386 . S
C40 C44 1.397 . S
C41 C39 1.397 . S
C41 C42 1.384 . S
C41 H64 0.930 . S
C42 C41 1.384 . S
C42 C43 1.377 . S
C42 C45 1.481 . S
C43 C42 1.377 . S
C43 C44 1.389 . S
C43 H65 0.929 . S
C44 C40 1.397 . S
C44 C43 1.389 . S
C44 H66 0.931 . S
C45 C42 1.481 . S
C45 C46 1.387 . S
C45 C50 1.390 . S
C46 C45 1.387 . S
C46 C47 1.401 . S
C46 H67 0.930 . S
C47 C46 1.401 . S
C47 C48 1.376 . S
C47 C56 1.511 . S
C48 C47 1.376 . S
C48 C49 1.392 . S
C48 H69 0.931 . S
C49 C48 1.392 . S
C49 C50 1.361 . S
C49 C51 1.500 . S
C50 C45 1.390 . S
C50 C49 1.361 . S
C50 H68 0.931 . S
C51 C49 1.500 . S
C51 C52 1.371 . S
C51 C53 1.365 . S
C52 C51 1.371 . S
C52 C62 1.386 . S
C52 H70 0.931 . S
C53 C51 1.365 . S
C53 C54 1.409 . S
C53 H71 0.929 . S
C54 C53 1.409 . S
C54 C55 1.380 . S
C54 H72 0.930 . S
C55 C54 1.380 . S
C55 C62 1.357 . S
C56 C47 1.511 . S
C56 C57 1.341 . S
C56 C58 1.371 . S
C57 C56 1.341 . S
C57 C61 1.394 . S
C57 H73 0.930 . S
C58 C56 1.371 . S
C58 C59 1.392 . S
C58 H74 0.931 . S
C59 C58 1.392 . S
C59 C60 1.331 . S
C59 H77 0.932 . S
C60 C59 1.331 . S
C60 C61 1.336 . S
C61 C57 1.394 . S
C61 C60 1.336 . S
C61 H76 0.929 . S
C62 C52 1.386 . S
C62 C55 1.357 . S
C62 H75 0.928 . S
H63 C39 0.931 . S
H64 C41 0.930 . S
H65 C43 0.929 . S
H66 C44 0.931 . S
H67 C46 0.930 . S
H68 C50 0.931 . S
H69 C48 0.931 . S
H70 C52 0.931 . S
H71 C53 0.929 . S
H72 C54 0.930 . S
H73 C57 0.930 . S
H74 C58 0.931 . S
H75 C62 0.928 . S
H76 C61 0.929 . S
H77 C59 0.932 . S
C78 C79 1.386 . S
C78 C80 1.397 . S
C78 H102 0.931 . S
C79 C78 1.386 . S
C79 C83 1.397 . S
C80 C78 1.397 . S
C80 C81 1.384 . S
C80 H103 0.930 . S
C81 C80 1.384 . S
C81 C82 1.377 . S
C81 C84 1.481 . S
C82 C81 1.377 . S
C82 C83 1.389 . S
C82 H104 0.929 . S
C83 C79 1.397 . S
C83 C82 1.389 . S
C83 H105 0.931 . S
C84 C81 1.481 . S
C84 C85 1.387 . S
C84 C89 1.390 . S
C85 C84 1.387 . S
C85 C86 1.401 . S
C85 H106 0.930 . S
C86 C85 1.401 . S
C86 C87 1.376 . S
C86 C95 1.511 . S
C87 C86 1.376 . S
C87 C88 1.392 . S
C87 H108 0.931 . S
C88 C87 1.392 . S
C88 C89 1.361 . S
C88 C90 1.500 . S
C89 C84 1.390 . S
C89 C88 1.361 . S
C89 H107 0.931 . S
C90 C88 1.500 . S
C90 C91 1.371 . S
C90 C92 1.365 . S
C91 C90 1.371 . S
C91 C101 1.386 . S
C91 H109 0.931 . S
C92 C90 1.365 . S
C92 C93 1.409 . S
C92 H110 0.929 . S
C93 C92 1.409 . S
C93 C94 1.380 . S
C93 H111 0.930 . S
C94 C93 1.380 . S
C94 C101 1.357 . S
C95 C86 1.511 . S
C95 C96 1.341 . S
C95 C97 1.371 . S
C96 C95 1.341 . S
C96 C100 1.394 . S
C96 H112 0.930 . S
C97 C95 1.371 . S
C97 C98 1.392 . S
C97 H113 0.931 . S
C98 C97 1.392 . S
C98 C99 1.331 . S
C98 H116 0.932 . S
C99 C98 1.331 . S
C99 C100 1.336 . S
C100 C96 1.394 . S
C100 C99 1.336 . S
C100 H115 0.929 . S
C101 C91 1.386 . S
C101 C94 1.357 . S
C101 H114 0.928 . S
H102 C78 0.931 . S
H103 C80 0.930 . S
H104 C82 0.929 . S
H105 C83 0.931 . S
H106 C85 0.930 . S
H107 C89 0.931 . S
H108 C87 0.931 . S
H109 C91 0.931 . S
H110 C92 0.929 . S
H111 C93 0.930 . S
H112 C96 0.930 . S
H113 C97 0.931 . S
H114 C101 0.928 . S
H115 C100 0.929 . S
H116 C98 0.932 . S
C117 C118 1.386 . S
C117 C119 1.397 . S
C117 H141 0.931 . S
C118 C117 1.386 . S
C118 C122 1.397 . S
C119 C117 1.397 . S
C119 C120 1.384 . S
C119 H142 0.930 . S
C120 C119 1.384 . S
C120 C121 1.377 . S
C120 C123 1.481 . S
C121 C120 1.377 . S
C121 C122 1.389 . S
C121 H143 0.929 . S
C122 C118 1.397 . S
C122 C121 1.389 . S
C122 H144 0.931 . S
C123 C120 1.481 . S
C123 C124 1.387 . S
C123 C128 1.390 . S
C124 C123 1.387 . S
C124 C125 1.401 . S
C124 H145 0.930 . S
C125 C124 1.401 . S
C125 C126 1.376 . S
C125 C134 1.511 . S
C126 C125 1.376 . S
C126 C127 1.392 . S
C126 H147 0.931 . S
C127 C126 1.392 . S
C127 C128 1.361 . S
C127 C129 1.500 . S
C128 C123 1.390 . S
C128 C127 1.361 . S
C128 H146 0.931 . S
C129 C127 1.500 . S
C129 C130 1.371 . S
C129 C131 1.365 . S
C130 C129 1.371 . S
C130 C140 1.386 . S
C130 H148 0.931 . S
C131 C129 1.365 . S
C131 C132 1.409 . S
C131 H149 0.929 . S
C132 C131 1.409 . S
C132 C133 1.380 . S
C132 H150 0.930 . S
C133 C132 1.380 . S
C133 C140 1.357 . S
C134 C125 1.511 . S
C134 C135 1.341 . S
C134 C136 1.371 . S
C135 C134 1.341 . S
C135 C139 1.394 . S
C135 H151 0.930 . S
C136 C134 1.371 . S
C136 C137 1.392 . S
C136 H152 0.931 . S
C137 C136 1.392 . S
C137 C138 1.331 . S
C137 H155 0.932 . S
C138 C137 1.331 . S
C138 C139 1.336 . S
C139 C135 1.394 . S
C139 C138 1.336 . S
C139 H154 0.929 . S
C140 C130 1.386 . S
C140 C133 1.357 . S
C140 H153 0.928 . S
H141 C117 0.931 . S
H142 C119 0.930 . S
H143 C121 0.929 . S
H144 C122 0.931 . S
H145 C124 0.930 . S
H146 C128 0.931 . S
H147 C126 0.931 . S
H148 C130 0.931 . S
H149 C131 0.929 . S
H150 C132 0.930 . S
H151 C135 0.930 . S
H152 C136 0.931 . S
H153 C140 0.928 . S
H154 C139 0.929 . S
H155 C137 0.932 . S
C156 C157 1.388 . S
C156 C158 1.401 . S
C156 H180 0.924 1_455 S
C157 C156 1.388 . S
C157 C161 1.397 . S
C158 C156 1.401 . S
C158 C159 1.384 . S
C158 H181 0.930 . S
C159 C158 1.384 . S
C159 C160 1.377 . S
C159 C162 1.481 . S
C160 C159 1.377 . S
C160 C161 1.389 . S
C160 H182 0.929 . S
C161 C157 1.397 . S
C161 C160 1.389 . S
C161 H183 0.931 . S
C162 C159 1.481 . S
C162 C163 1.387 . S
C162 C167 1.390 . S
C163 C162 1.387 . S
C163 C164 1.401 . S
C163 H184 0.930 . S
C164 C163 1.401 . S
C164 C165 1.376 . S
C164 C173 1.511 . S
C165 C164 1.376 . S
C165 C166 1.392 . S
C165 H186 0.931 . S
C166 C165 1.392 . S
C166 C167 1.361 . S
C166 C168 1.500 . S
C167 C162 1.390 . S
C167 C166 1.361 . S
C167 H185 0.931 . S
C168 C166 1.500 . S
C168 C169 1.371 . S
C168 C170 1.365 . S
C169 C168 1.371 . S
C169 C179 1.386 1_565 S
C169 H187 0.931 . S
C170 C168 1.365 . S
C170 C171 1.409 1_565 S
C170 H188 0.929 . S
C171 C170 1.409 1_545 S
C171 C172 1.380 . S
C171 H189 0.930 . S
C172 C171 1.380 . S
C172 C179 1.357 . S
C173 C164 1.511 . S
C173 C174 1.341 . S
C173 C175 1.371 . S
C174 C173 1.341 . S
C174 C178 1.394 . S
C174 H190 0.930 . S
C175 C173 1.371 . S
C175 C176 1.392 . S
C175 H191 0.931 . S
C176 C175 1.392 . S
C176 C177 1.331 . S
C176 H194 0.932 . S
C177 C176 1.331 . S
C177 C178 1.336 . S
C178 C174 1.394 . S
C178 C177 1.336 . S
C178 H193 0.929 . S
C179 C169 1.386 1_545 S
C179 C172 1.357 . S
C179 H192 0.928 . S
H180 C156 0.924 1_655 S
H181 C158 0.930 . S
H182 C160 0.929 . S
H183 C161 0.931 . S
H184 C163 0.930 . S
H185 C167 0.931 . S
H186 C165 0.931 . S
H187 C169 0.931 . S
H188 C170 0.929 . S
H189 C171 0.930 . S
H190 C174 0.930 . S
H191 C175 0.931 . S
H192 C179 0.928 . S
H193 C178 0.929 . S
H194 C176 0.932 . S
C195 C196 1.386 . S
C195 C197 1.397 . S
C195 H219 0.931 . S
C196 C195 1.386 . S
C196 C200 1.397 . S
C197 C195 1.397 . S
C197 C198 1.384 . S
C197 H220 0.930 . S
C198 C197 1.384 . S
C198 C199 1.377 . S
C198 C201 1.481 . S
C199 C198 1.377 . S
C199 C200 1.389 . S
C199 H221 0.929 . S
C200 C196 1.397 . S
C200 C199 1.389 . S
C200 H222 0.931 . S
C201 C198 1.481 . S
C201 C202 1.387 . S
C201 C206 1.390 . S
C202 C201 1.387 . S
C202 C203 1.401 . S
C202 H223 0.930 . S
C203 C202 1.401 . S
C203 C204 1.376 . S
C203 C212 1.511 . S
C204 C203 1.376 . S
C204 C205 1.392 . S
C204 H225 0.931 . S
C205 C204 1.392 . S
C205 C206 1.361 . S
C205 C207 1.500 . S
C206 C201 1.390 . S
C206 C205 1.361 . S
C206 H224 0.931 . S
C207 C205 1.500 . S
C207 C208 1.371 . S
C207 C209 1.365 . S
C208 C207 1.371 . S
C208 C218 1.386 . S
C208 H226 0.931 . S
C209 C207 1.365 . S
C209 C210 1.409 . S
C209 H227 0.929 . S
C210 C209 1.409 . S
C210 C211 1.380 . S
C210 H228 0.930 . S
C211 C210 1.380 . S
C211 C218 1.357 . S
C212 C203 1.511 . S
C212 C213 1.341 . S
C212 C214 1.371 . S
C213 C212 1.341 . S
C213 C217 1.394 . S
C213 H229 0.930 . S
C214 C212 1.371 . S
C214 C215 1.392 . S
C214 H230 0.931 . S
C215 C214 1.392 . S
C215 C216 1.331 . S
C215 H233 0.932 . S
C216 C215 1.331 . S
C216 C217 1.336 . S
C217 C213 1.394 . S
C217 C216 1.336 . S
C217 H232 0.929 . S
C218 C208 1.386 . S
C218 C211 1.357 . S
C218 H231 0.928 . S
H219 C195 0.931 . S
H220 C197 0.930 . S
H221 C199 0.929 . S
H222 C200 0.931 . S
H223 C202 0.930 . S
H224 C206 0.931 . S
H225 C204 0.931 . S
H226 C208 0.931 . S
H227 C209 0.929 . S
H228 C210 0.930 . S
H229 C213 0.930 . S
H230 C214 0.931 . S
H231 C218 0.928 . S
H232 C217 0.929 . S
H233 C215 0.932 . S
C234 C235 1.386 . S
C234 C236 1.397 . S
C234 H258 0.931 . S
C235 C234 1.386 . S
C235 C239 1.397 . S
C236 C234 1.397 . S
C236 C237 1.384 . S
C236 H259 0.930 . S
C237 C236 1.384 . S
C237 C238 1.377 . S
C237 C240 1.481 . S
C238 C237 1.377 . S
C238 C239 1.389 . S
C238 H260 0.929 . S
C239 C235 1.397 . S
C239 C238 1.389 . S
C239 H261 0.931 . S
C240 C237 1.481 . S
C240 C241 1.387 . S
C240 C245 1.390 . S
C241 C240 1.387 . S
C241 C242 1.401 . S
C241 H262 0.930 . S
C242 C241 1.401 . S
C242 C243 1.376 . S
C242 C251 1.511 . S
C243 C242 1.376 . S
C243 C244 1.392 . S
C243 H264 0.931 . S
C244 C243 1.392 . S
C244 C245 1.361 . S
C244 C246 1.500 . S
C245 C240 1.390 . S
C245 C244 1.361 . S
C245 H263 0.931 . S
C246 C244 1.500 . S
C246 C247 1.371 . S
C246 C248 1.365 . S
C247 C246 1.371 . S
C247 C257 1.386 . S
C247 H265 0.931 . S
C248 C246 1.365 . S
C248 C249 1.409 . S
C248 H266 0.929 . S
C249 C248 1.409 . S
C249 C250 1.380 . S
C249 H267 0.930 . S
C250 C249 1.380 . S
C250 C257 1.357 . S
C251 C242 1.511 . S
C251 C252 1.341 . S
C251 C253 1.371 . S
C252 C251 1.341 . S
C252 C256 1.394 . S
C252 H268 0.930 . S
C253 C251 1.371 . S
C253 C254 1.392 . S
C253 H269 0.931 . S
C254 C253 1.392 . S
C254 C255 1.331 . S
C254 H272 0.932 . S
C255 C254 1.331 . S
C255 C256 1.336 . S
C256 C252 1.394 . S
C256 C255 1.336 . S
C256 H271 0.929 . S
C257 C247 1.386 . S
C257 C250 1.357 . S
C257 H270 0.928 . S
H258 C234 0.931 . S
H259 C236 0.930 . S
H260 C238 0.929 . S
H261 C239 0.931 . S
H262 C241 0.930 . S
H263 C245 0.931 . S
H264 C243 0.931 . S
H265 C247 0.931 . S
H266 C248 0.929 . S
H267 C249 0.930 . S
H268 C252 0.930 . S
H269 C253 0.931 . S
H270 C257 0.928 . S
H271 C256 0.929 . S
H272 C254 0.932 . S
C273 C274 1.386 . S
C273 C275 1.397 . S
C273 H297 0.931 . S
C274 C273 1.386 . S
C274 C278 1.397 . S
C275 C273 1.397 . S
C275 C276 1.384 . S
C275 H298 0.930 . S
C276 C275 1.384 . S
C276 C277 1.377 . S
C276 C279 1.481 . S
C277 C276 1.377 . S
C277 C278 1.389 . S
C277 H299 0.929 . S
C278 C274 1.397 . S
C278 C277 1.389 . S
C278 H300 0.931 . S
C279 C276 1.481 . S
C279 C280 1.387 . S
C279 C284 1.390 . S
C280 C279 1.387 . S
C280 C281 1.401 . S
C280 H301 0.930 . S
C281 C280 1.401 . S
C281 C282 1.376 . S
C281 C290 1.511 . S
C282 C281 1.376 . S
C282 C283 1.392 . S
C282 H303 0.931 . S
C283 C282 1.392 . S
C283 C284 1.361 . S
C283 C285 1.500 . S
C284 C279 1.390 . S
C284 C283 1.361 . S
C284 H302 0.931 . S
C285 C283 1.500 . S
C285 C286 1.371 . S
C285 C287 1.365 . S
C286 C285 1.371 . S
C286 C296 1.386 . S
C286 H304 0.931 . S
C287 C285 1.365 . S
C287 C288 1.409 . S
C287 H305 0.929 . S
C288 C287 1.409 . S
C288 C289 1.380 . S
C288 H306 0.930 . S
C289 C288 1.380 . S
C289 C296 1.357 . S
C290 C281 1.511 . S
C290 C291 1.341 . S
C290 C292 1.371 . S
C291 C290 1.341 . S
C291 C295 1.394 . S
C291 H307 0.930 . S
C292 C290 1.371 . S
C292 C293 1.392 . S
C292 H308 0.931 . S
C293 C292 1.392 . S
C293 C294 1.331 . S
C293 H311 0.932 . S
C294 C293 1.331 . S
C294 C295 1.336 . S
C295 C291 1.394 . S
C295 C294 1.336 . S
C295 H310 0.929 . S
C296 C286 1.386 . S
C296 C289 1.357 . S
C296 H309 0.928 . S
H297 C273 0.931 . S
H298 C275 0.930 . S
H299 C277 0.929 . S
H300 C278 0.931 . S
H301 C280 0.930 . S
H302 C284 0.931 . S
H303 C282 0.931 . S
H304 C286 0.931 . S
H305 C287 0.929 . S
H306 C288 0.930 . S
H307 C291 0.930 . S
H308 C292 0.931 . S
H309 C296 0.928 . S
H310 C295 0.929 . S
H311 C293 0.932 . S
C312 C313 1.386 . S
C312 C314 1.397 . S
C312 H336 0.931 . S
C313 C312 1.386 . S
C313 C317 1.397 . S
C314 C312 1.397 . S
C314 C315 1.384 . S
C314 H337 0.930 . S
C315 C314 1.384 . S
C315 C316 1.377 . S
C315 C318 1.481 . S
C316 C315 1.377 . S
C316 C317 1.389 . S
C316 H338 0.929 . S
C317 C313 1.397 . S
C317 C316 1.389 . S
C317 H339 0.931 . S
C318 C315 1.481 . S
C318 C319 1.387 . S
C318 C323 1.390 . S
C319 C318 1.387 . S
C319 C320 1.401 . S
C319 H340 0.930 . S
C320 C319 1.401 . S
C320 C321 1.376 . S
C320 C329 1.511 . S
C321 C320 1.376 . S
C321 C322 1.392 . S
C321 H342 0.931 . S
C322 C321 1.392 . S
C322 C323 1.361 . S
C322 C324 1.500 . S
C323 C318 1.390 . S
C323 C322 1.361 . S
C323 H341 0.931 . S
C324 C322 1.500 . S
C324 C325 1.371 . S
C324 C326 1.365 . S
C325 C324 1.371 . S
C325 C335 1.386 . S
C325 H343 0.931 . S
C326 C324 1.365 . S
C326 C327 1.409 . S
C326 H344 0.929 . S
C327 C326 1.409 . S
C327 C328 1.380 . S
C327 H345 0.930 . S
C328 C327 1.380 . S
C328 C335 1.357 . S
C329 C320 1.511 . S
C329 C330 1.341 . S
C329 C331 1.371 . S
C330 C329 1.341 . S
C330 C334 1.394 . S
C330 H346 0.930 . S
C331 C329 1.371 . S
C331 C332 1.392 . S
C331 H347 0.931 . S
C332 C331 1.392 . S
C332 C333 1.331 . S
C332 H350 0.932 . S
C333 C332 1.331 . S
C333 C334 1.336 . S
C334 C330 1.394 . S
C334 C333 1.336 . S
C334 H349 0.929 . S
C335 C325 1.386 . S
C335 C328 1.357 . S
C335 H348 0.928 . S
H336 C312 0.931 . S
H337 C314 0.930 . S
H338 C316 0.929 . S
H339 C317 0.931 . S
H340 C319 0.930 . S
H341 C323 0.931 . S
H342 C321 0.931 . S
H343 C325 0.931 . S
H344 C326 0.929 . S
H345 C327 0.930 . S
H346 C330 0.930 . S
H347 C331 0.931 . S
H348 C335 0.928 . S
H349 C334 0.929 . S
H350 C332 0.932 . S
C351 C352 1.386 . S
C351 C353 1.397 . S
C351 H375 0.931 . S
C352 C351 1.386 . S
C352 C356 1.397 . S
C353 C351 1.397 . S
C353 C354 1.384 . S
C353 H376 0.930 . S
C354 C353 1.384 . S
C354 C355 1.377 . S
C354 C357 1.481 . S
C355 C354 1.377 . S
C355 C356 1.389 . S
C355 H377 0.929 . S
C356 C352 1.397 . S
C356 C355 1.389 . S
C356 H378 0.931 . S
C357 C354 1.481 . S
C357 C358 1.387 . S
C357 C362 1.390 . S
C358 C357 1.387 . S
C358 C359 1.401 . S
C358 H379 0.930 . S
C359 C358 1.401 . S
C359 C360 1.376 . S
C359 C368 1.511 . S
C360 C359 1.376 . S
C360 C361 1.392 . S
C360 H381 0.931 . S
C361 C360 1.392 . S
C361 C362 1.361 . S
C361 C363 1.500 . S
C362 C357 1.390 . S
C362 C361 1.361 . S
C362 H380 0.931 . S
C363 C361 1.500 . S
C363 C364 1.371 . S
C363 C365 1.365 . S
C364 C363 1.371 . S
C364 C374 1.386 . S
C364 H382 0.931 . S
C365 C363 1.365 . S
C365 C366 1.409 . S
C365 H383 0.929 . S
C366 C365 1.409 . S
C366 C367 1.380 . S
C366 H384 0.930 . S
C367 C366 1.380 . S
C367 C374 1.357 . S
C368 C359 1.511 . S
C368 C369 1.341 . S
C368 C370 1.371 . S
C369 C368 1.341 . S
C369 C373 1.394 . S
C369 H385 0.930 . S
C370 C368 1.371 . S
C370 C371 1.392 . S
C370 H386 0.931 . S
C371 C370 1.392 . S
C371 C372 1.331 . S
C371 H389 0.932 . S
C372 C371 1.331 . S
C372 C373 1.336 . S
C373 C369 1.394 . S
C373 C372 1.336 . S
C373 H388 0.929 1_565 S
C374 C364 1.386 . S
C374 C367 1.357 . S
C374 H387 0.928 . S
H375 C351 0.931 . S
H376 C353 0.930 . S
H377 C355 0.929 . S
H378 C356 0.931 . S
H379 C358 0.930 . S
H380 C362 0.931 . S
H381 C360 0.931 . S
H382 C364 0.931 . S
H383 C365 0.929 . S
H384 C366 0.930 . S
H385 C369 0.930 . S
H386 C370 0.931 . S
H387 C374 0.928 . S
H388 C373 0.929 1_545 S
H389 C371 0.932 . S
C390 C391 1.386 . S
C390 C392 1.397 . S
C390 H414 0.931 . S
C391 C390 1.386 . S
C391 C395 1.397 . S
C392 C390 1.397 . S
C392 C393 1.384 . S
C392 H415 0.930 . S
C393 C392 1.384 . S
C393 C394 1.377 . S
C393 C396 1.481 . S
C394 C393 1.377 . S
C394 C395 1.389 . S
C394 H416 0.929 . S
C395 C391 1.397 . S
C395 C394 1.389 . S
C395 H417 0.931 . S
C396 C393 1.481 . S
C396 C397 1.387 . S
C396 C401 1.390 . S
C397 C396 1.387 . S
C397 C398 1.401 . S
C397 H418 0.930 . S
C398 C397 1.401 . S
C398 C399 1.376 . S
C398 C407 1.511 . S
C399 C398 1.376 . S
C399 C400 1.392 . S
C399 H420 0.931 . S
C400 C399 1.392 . S
C400 C401 1.361 . S
C400 C402 1.500 . S
C401 C396 1.390 . S
C401 C400 1.361 . S
C401 H419 0.931 . S
C402 C400 1.500 . S
C402 C403 1.371 . S
C402 C404 1.365 . S
C403 C402 1.371 . S
C403 C413 1.386 . S
C403 H421 0.931 . S
C404 C402 1.365 . S
C404 C405 1.409 . S
C404 H422 0.929 . S
C405 C404 1.409 . S
C405 C406 1.380 . S
C405 H423 0.930 . S
C406 C405 1.380 . S
C406 C413 1.357 . S
C407 C398 1.511 . S
C407 C408 1.341 . S
C407 C409 1.371 . S
C408 C407 1.341 . S
C408 C412 1.394 . S
C408 H424 0.930 . S
C409 C407 1.371 . S
C409 C410 1.392 . S
C409 H425 0.931 . S
C410 C409 1.392 . S
C410 C411 1.331 . S
C410 H428 0.932 . S
C411 C410 1.331 . S
C411 C412 1.336 . S
C412 C408 1.394 . S
C412 C411 1.336 . S
C412 H427 0.929 . S
C413 C403 1.386 . S
C413 C406 1.357 . S
C413 H426 0.928 . S
H414 C390 0.931 . S
H415 C392 0.930 . S
H416 C394 0.929 . S
H417 C395 0.931 . S
H418 C397 0.930 . S
H419 C401 0.931 . S
H420 C399 0.931 . S
H421 C403 0.931 . S
H422 C404 0.929 . S
H423 C405 0.930 . S
H424 C408 0.930 . S
H425 C409 0.931 . S
H426 C413 0.928 . S
H427 C412 0.929 . S
H428 C410 0.932 . S
C429 C430 1.386 . S
C429 C431 1.397 . S
C429 H453 0.931 . S
C430 C429 1.386 . S
C430 C434 1.397 . S
C431 C429 1.397 . S
C431 C432 1.384 . S
C431 H454 0.930 . S
C432 C431 1.384 . S
C432 C433 1.377 . S
C432 C435 1.481 . S
C433 C432 1.377 . S
C433 C434 1.389 . S
C433 H455 0.929 . S
C434 C430 1.397 . S
C434 C433 1.389 . S
C434 H456 0.931 . S
C435 C432 1.481 . S
C435 C436 1.387 . S
C435 C440 1.390 . S
C436 C435 1.387 . S
C436 C437 1.401 . S
C436 H457 0.930 . S
C437 C436 1.401 . S
C437 C438 1.376 . S
C437 C446 1.511 . S
C438 C437 1.376 . S
C438 C439 1.392 . S
C438 H459 0.931 . S
C439 C438 1.392 . S
C439 C440 1.361 . S
C439 C441 1.500 . S
C440 C435 1.390 . S
C440 C439 1.361 . S
C440 H458 0.931 . S
C441 C439 1.500 . S
C441 C442 1.371 . S
C441 C443 1.365 . S
C442 C441 1.371 . S
C442 C452 1.386 . S
C442 H460 0.931 . S
C443 C441 1.365 . S
C443 C444 1.409 . S
C443 H461 0.929 . S
C444 C443 1.409 . S
C444 C445 1.380 . S
C444 H462 0.930 . S
C445 C444 1.380 . S
C445 C452 1.357 . S
C446 C437 1.511 . S
C446 C447 1.341 . S
C446 C448 1.371 . S
C447 C446 1.341 . S
C447 C451 1.394 . S
C447 H463 0.930 . S
C448 C446 1.371 . S
C448 C449 1.392 . S
C448 H464 0.931 . S
C449 C448 1.392 . S
C449 C450 1.331 . S
C449 H467 0.932 . S
C450 C449 1.331 . S
C450 C451 1.336 . S
C451 C447 1.394 . S
C451 C450 1.336 . S
C451 H466 0.929 . S
C452 C442 1.386 . S
C452 C445 1.357 . S
C452 H465 0.928 . S
H453 C429 0.931 . S
H454 C431 0.930 . S
H455 C433 0.929 . S
H456 C434 0.931 . S
H457 C436 0.930 . S
H458 C440 0.931 . S
H459 C438 0.931 . S
H460 C442 0.931 . S
H461 C443 0.929 . S
H462 C444 0.930 . S
H463 C447 0.930 . S
H464 C448 0.931 . S
H465 C452 0.928 . S
H466 C451 0.929 . S
H467 C449 0.932 . S
C468 C469 1.386 . S
C468 C470 1.397 . S
C468 H492 0.931 . S
C469 C468 1.386 . S
C469 C473 1.397 . S
C470 C468 1.397 . S
C470 C471 1.384 . S
C470 H493 0.930 . S
C471 C470 1.384 . S
C471 C472 1.377 . S
C471 C474 1.481 . S
C472 C471 1.377 . S
C472 C473 1.389 . S
C472 H494 0.929 . S
C473 C469 1.397 . S
C473 C472 1.389 . S
C473 H495 0.931 . S
C474 C471 1.481 . S
C474 C475 1.387 . S
C474 C479 1.390 . S
C475 C474 1.387 . S
C475 C476 1.401 . S
C475 H496 0.930 . S
C476 C475 1.401 . S
C476 C477 1.376 . S
C476 C485 1.511 . S
C477 C476 1.376 . S
C477 C478 1.392 . S
C477 H498 0.931 . S
C478 C477 1.392 . S
C478 C479 1.361 . S
C478 C480 1.500 . S
C479 C474 1.390 . S
C479 C478 1.361 . S
C479 H497 0.931 . S
C480 C478 1.500 . S
C480 C481 1.371 . S
C480 C482 1.365 . S
C481 C480 1.371 . S
C481 C491 1.386 . S
C481 H499 0.931 . S
C482 C480 1.365 . S
C482 C483 1.409 . S
C482 H500 0.929 . S
C483 C482 1.409 . S
C483 C484 1.380 . S
C483 H501 0.930 . S
C484 C483 1.380 . S
C484 C491 1.357 . S
C485 C476 1.511 . S
C485 C486 1.341 . S
C485 C487 1.371 . S
C486 C485 1.341 . S
C486 C490 1.394 . S
C486 H502 0.930 . S
C487 C485 1.371 . S
C487 C488 1.392 . S
C487 H503 0.931 . S
C488 C487 1.392 . S
C488 C489 1.331 . S
C488 H506 0.932 . S
C489 C488 1.331 . S
C489 C490 1.336 . S
C490 C486 1.394 . S
C490 C489 1.336 . S
C490 H505 0.929 . S
C491 C481 1.386 . S
C491 C484 1.357 . S
C491 H504 0.928 . S
H492 C468 0.931 . S
H493 C470 0.930 . S
H494 C472 0.929 . S
H495 C473 0.931 . S
H496 C475 0.930 . S
H497 C479 0.931 . S
H498 C477 0.931 . S
H499 C481 0.931 . S
H500 C482 0.929 . S
H501 C483 0.930 . S
H502 C486 0.930 . S
H503 C487 0.931 . S
H504 C491 0.928 . S
H505 C490 0.929 . S
H506 C488 0.932 . S
C507 C508 1.386 . S
C507 C509 1.397 . S
C507 H531 0.931 . S
C508 C507 1.386 . S
C508 C512 1.397 . S
C509 C507 1.397 . S
C509 C510 1.384 . S
C509 H532 0.930 . S
C510 C509 1.384 . S
C510 C511 1.377 . S
C510 C513 1.481 . S
C511 C510 1.377 . S
C511 C512 1.389 . S
C511 H533 0.929 . S
C512 C508 1.397 . S
C512 C511 1.389 . S
C512 H534 0.931 . S
C513 C510 1.481 . S
C513 C514 1.387 . S
C513 C518 1.390 . S
C514 C513 1.387 . S
C514 C515 1.401 . S
C514 H535 0.930 . S
C515 C514 1.401 . S
C515 C516 1.376 . S
C515 C524 1.511 . S
C516 C515 1.376 . S
C516 C517 1.392 . S
C516 H537 0.931 . S
C517 C516 1.392 . S
C517 C518 1.361 . S
C517 C519 1.500 . S
C518 C513 1.390 . S
C518 C517 1.361 . S
C518 H536 0.931 . S
C519 C517 1.500 . S
C519 C520 1.371 . S
C519 C521 1.365 . S
C520 C519 1.371 . S
C520 C530 1.386 . S
C520 H538 0.931 . S
C521 C519 1.365 . S
C521 C522 1.409 . S
C521 H539 0.929 . S
C522 C521 1.409 . S
C522 C523 1.380 . S
C522 H540 0.930 . S
C523 C522 1.380 . S
C523 C530 1.357 . S
C524 C515 1.511 . S
C524 C525 1.341 . S
C524 C526 1.371 . S
C525 C524 1.341 . S
C525 C529 1.394 . S
C525 H541 0.930 . S
C526 C524 1.371 . S
C526 C527 1.392 . S
C526 H542 0.931 . S
C527 C526 1.392 . S
C527 C528 1.331 . S
C527 H545 0.932 . S
C528 C527 1.331 . S
C528 C529 1.336 . S
C529 C525 1.394 . S
C529 C528 1.336 . S
C529 H544 0.929 . S
C530 C520 1.386 . S
C530 C523 1.357 . S
C530 H543 0.928 . S
H531 C507 0.931 . S
H532 C509 0.930 . S
H533 C511 0.929 . S
H534 C512 0.931 . S
H535 C514 0.930 . S
H536 C518 0.931 . S
H537 C516 0.931 . S
H538 C520 0.931 . S
H539 C521 0.929 . S
H540 C522 0.930 . S
H541 C525 0.930 . S
H542 C526 0.931 . S
H543 C530 0.928 . S
H544 C529 0.929 . S
H545 C527 0.932 . S
C546 C547 1.386 . S
C546 C548 1.397 . S
C546 H570 0.931 . S
C547 C546 1.386 . S
C547 C551 1.397 . S
C548 C546 1.397 . S
C548 C549 1.384 . S
C548 H571 0.930 . S
C549 C548 1.384 . S
C549 C550 1.377 . S
C549 C552 1.481 . S
C550 C549 1.377 . S
C550 C551 1.389 . S
C550 H572 0.929 . S
C551 C547 1.397 . S
C551 C550 1.389 . S
C551 H573 0.931 . S
C552 C549 1.481 . S
C552 C553 1.387 . S
C552 C557 1.390 . S
C553 C552 1.387 . S
C553 C554 1.401 . S
C553 H574 0.930 . S
C554 C553 1.401 . S
C554 C555 1.376 . S
C554 C563 1.511 . S
C555 C554 1.376 . S
C555 C556 1.392 . S
C555 H576 0.931 . S
C556 C555 1.392 . S
C556 C557 1.361 . S
C556 C558 1.500 . S
C557 C552 1.390 . S
C557 C556 1.361 . S
C557 H575 0.931 . S
C558 C556 1.500 . S
C558 C559 1.371 . S
C558 C560 1.365 . S
C559 C558 1.371 . S
C559 C569 1.386 . S
C559 H577 0.931 . S
C560 C558 1.365 . S
C560 C561 1.409 . S
C560 H578 0.929 . S
C561 C560 1.409 . S
C561 C562 1.380 . S
C561 H579 0.930 . S
C562 C561 1.380 . S
C562 C569 1.357 . S
C563 C554 1.511 . S
C563 C564 1.341 . S
C563 C565 1.371 . S
C564 C563 1.341 . S
C564 C568 1.394 . S
C564 H580 0.930 . S
C565 C563 1.371 . S
C565 C566 1.392 . S
C565 H581 0.931 . S
C566 C565 1.392 . S
C566 C567 1.331 . S
C566 H584 0.932 . S
C567 C566 1.331 . S
C567 C568 1.336 . S
C568 C564 1.394 . S
C568 C567 1.336 . S
C568 H583 0.929 . S
C569 C559 1.386 . S
C569 C562 1.357 . S
C569 H582 0.928 . S
H570 C546 0.931 . S
H571 C548 0.930 . S
H572 C550 0.929 . S
H573 C551 0.931 . S
H574 C553 0.930 . S
H575 C557 0.931 . S
H576 C555 0.931 . S
H577 C559 0.931 . S
H578 C560 0.929 . S
H579 C561 0.930 . S
H580 C564 0.930 . S
H581 C565 0.931 . S
H582 C569 0.928 . S
H583 C568 0.929 . S
H584 C566 0.932 . S
C585 C586 1.386 1_556 S
C585 C587 1.397 . S
C585 H609 0.931 . S
C586 C585 1.386 1_554 S
C586 C590 1.397 . S
C587 C585 1.397 . S
C587 C588 1.384 . S
C587 H610 0.930 . S
C588 C587 1.384 . S
C588 C589 1.377 . S
C588 C591 1.481 . S
C589 C588 1.377 . S
C589 C590 1.389 1_556 S
C589 H611 0.929 1_556 S
C590 C586 1.397 . S
C590 C589 1.389 1_554 S
C590 H612 0.931 . S
C591 C588 1.481 . S
C591 C592 1.387 . S
C591 C596 1.390 . S
C592 C591 1.387 . S
C592 C593 1.401 . S
C592 H613 0.930 . S
C593 C592 1.401 . S
C593 C594 1.376 . S
C593 C602 1.511 . S
C594 C593 1.376 . S
C594 C595 1.392 . S
C594 H615 0.931 . S
C595 C594 1.392 . S
C595 C596 1.361 . S
C595 C597 1.500 . S
C596 C591 1.390 . S
C596 C595 1.361 . S
C596 H614 0.931 . S
C597 C595 1.500 . S
C597 C598 1.371 . S
C597 C599 1.365 . S
C598 C597 1.371 . S
C598 C608 1.386 . S
C598 H616 0.931 . S
C599 C597 1.365 . S
C599 C600 1.409 . S
C599 H617 0.929 . S
C600 C599 1.409 . S
C600 C601 1.380 . S
C600 H618 0.930 1_556 S
C601 C600 1.380 . S
C601 C608 1.357 . S
C602 C593 1.511 . S
C602 C603 1.341 . S
C602 C604 1.371 . S
C603 C602 1.341 . S
C603 C607 1.394 . S
C603 H619 0.930 . S
C604 C602 1.371 . S
C604 C605 1.392 . S
C604 H620 0.931 . S
C605 C604 1.392 . S
C605 C606 1.331 . S
C605 H623 0.932 . S
C606 C605 1.331 . S
C606 C607 1.336 . S
C607 C603 1.394 . S
C607 C606 1.336 . S
C607 H622 0.929 . S
C608 C598 1.386 . S
C608 C601 1.357 . S
C608 H621 0.928 . S
H609 C585 0.931 . S
H610 C587 0.930 . S
H611 C589 0.929 1_554 S
H612 C590 0.931 . S
H613 C592 0.930 . S
H614 C596 0.931 . S
H615 C594 0.931 . S
H616 C598 0.931 . S
H617 C599 0.929 . S
H618 C600 0.930 1_554 S
H619 C603 0.930 . S
H620 C604 0.931 . S
H621 C608 0.928 . S
H622 C607 0.929 . S
H623 C605 0.932 . S
O624 Cd625 2.223 . S
O624 C632 1.315 . S
Cd625 O624 2.223 . S
Cd625 O628 2.297 . S
Cd625 O629 2.439 . S
Cd625 O635 2.240 . S
Cd626 O627 2.240 . S
Cd626 O634 2.223 . S
Cd626 O636 2.297 . S
Cd626 O637 2.439 . S
O627 Cd626 2.240 . S
O627 C632 1.279 . S
O628 Cd625 2.297 . S
O628 C630 1.247 . S
O629 Cd625 2.439 . S
O629 C630 1.208 . S
C630 O628 1.247 . S
C630 O629 1.208 . S
C631 O636 1.247 . S
C631 O637 1.208 . S
C632 O624 1.315 . S
C632 O627 1.279 . S
C633 O634 1.315 . S
C633 O635 1.279 . S
O634 Cd626 2.223 . S
O634 C633 1.315 . S
O635 Cd625 2.240 . S
O635 C633 1.279 . S
O636 Cd626 2.297 . S
O636 C631 1.247 . S
O637 Cd626 2.439 . S
O637 C631 1.208 . S
O638 Cd639 2.223 . S
O638 C646 1.315 . S
Cd639 O638 2.223 . S
Cd639 O642 2.297 . S
Cd639 O643 2.439 . S
Cd639 O649 2.240 . S
Cd640 O641 2.240 . S
Cd640 O648 2.223 . S
Cd640 O650 2.297 . S
Cd640 O651 2.439 . S
O641 Cd640 2.240 . S
O641 C646 1.279 . S
O642 Cd639 2.297 . S
O642 C644 1.247 . S
O643 Cd639 2.439 . S
O643 C644 1.208 . S
C644 O642 1.247 . S
C644 O643 1.208 . S
C645 O650 1.247 . S
C645 O651 1.208 . S
C646 O638 1.315 . S
C646 O641 1.279 . S
C647 O648 1.315 . S
C647 O649 1.279 . S
O648 Cd640 2.223 . S
O648 C647 1.315 . S
O649 Cd639 2.240 . S
O649 C647 1.279 . S
O650 Cd640 2.297 . S
O650 C645 1.247 . S
O651 Cd640 2.439 . S
O651 C645 1.208 . S
O652 Cd653 2.223 1_556 S
O652 C660 1.315 . S
Cd653 O652 2.223 1_554 S
Cd653 O656 2.297 . S
Cd653 O657 2.439 . S
Cd653 O663 2.240 . S
Cd654 O655 2.240 . S
Cd654 O662 2.223 . S
Cd654 O664 2.290 1_556 S
Cd654 O665 2.439 1_556 S
O655 Cd654 2.240 . S
O655 C660 1.279 . S
O656 Cd653 2.297 . S
O656 C658 1.247 . S
O657 Cd653 2.439 . S
O657 C658 1.208 . S
C658 O656 1.247 . S
C658 O657 1.208 . S
C659 O664 1.266 . S
C659 O665 1.208 . S
C660 O652 1.315 . S
C660 O655 1.279 . S
C661 O662 1.315 . S
C661 O663 1.279 1_556 S
O662 Cd654 2.223 . S
O662 C661 1.315 . S
O663 Cd653 2.240 . S
O663 C661 1.279 1_554 S
O664 Cd654 2.290 1_554 S
O664 C659 1.266 . S
O665 Cd654 2.439 1_554 S
O665 C659 1.208 . S
O666 Cd667 2.223 . S
O666 C674 1.315 . S
Cd667 O666 2.223 . S
Cd667 O670 2.297 . S
Cd667 O671 2.439 . S
Cd667 O677 2.240 . S
Cd668 O669 2.240 . S
Cd668 O676 2.223 . S
Cd668 O678 2.297 . S
Cd668 O679 2.439 . S
O669 Cd668 2.240 . S
O669 C674 1.279 . S
O670 Cd667 2.297 . S
O670 C672 1.247 . S
O671 Cd667 2.439 . S
O671 C672 1.208 . S
C672 O670 1.247 . S
C672 O671 1.208 . S
C673 O678 1.247 . S
C673 O679 1.208 . S
C674 O666 1.315 . S
C674 O669 1.279 . S
C675 O676 1.315 . S
C675 O677 1.279 . S
O676 Cd668 2.223 . S
O676 C675 1.315 . S
O677 Cd667 2.240 . S
O677 C675 1.279 . S
O678 Cd668 2.297 . S
O678 C673 1.247 . S
O679 Cd668 2.439 . S
O679 C673 1.208 . S
O680 Cd681 2.223 . S
O680 C688 1.315 . S
Cd681 O680 2.223 . S
Cd681 O684 2.297 . S
Cd681 O685 2.439 . S
Cd681 O691 2.240 . S
Cd682 O683 2.240 . S
Cd682 O690 2.223 . S
Cd682 O692 2.297 . S
Cd682 O693 2.439 . S
O683 Cd682 2.240 . S
O683 C688 1.279 . S
O684 Cd681 2.297 . S
O684 C686 1.247 . S
O685 Cd681 2.439 . S
O685 C686 1.208 . S
C686 O684 1.247 . S
C686 O685 1.208 . S
C687 O692 1.247 . S
C687 O693 1.208 . S
C688 O680 1.315 . S
C688 O683 1.279 . S
C689 O690 1.315 . S
C689 O691 1.279 . S
O690 Cd682 2.223 . S
O690 C689 1.315 . S
O691 Cd681 2.240 . S
O691 C689 1.279 . S
O692 Cd682 2.297 . S
O692 C687 1.247 . S
O693 Cd682 2.439 . S
O693 C687 1.208 . S
O694 Cd695 2.223 . S
O694 C702 1.315 . S
Cd695 O694 2.223 . S
Cd695 O698 2.297 . S
Cd695 O699 2.439 . S
Cd695 O705 2.240 . S
Cd696 O697 2.240 . S
Cd696 O704 2.223 . S
Cd696 O706 2.297 . S
Cd696 O707 2.439 . S
O697 Cd696 2.240 . S
O697 C702 1.279 . S
O698 Cd695 2.297 . S
O698 C700 1.247 . S
O699 Cd695 2.439 . S
O699 C700 1.208 . S
C700 O698 1.247 . S
C700 O699 1.208 . S
C701 O706 1.247 . S
C701 O707 1.208 . S
C702 O694 1.315 . S
C702 O697 1.279 . S
C703 O704 1.315 . S
C703 O705 1.279 . S
O704 Cd696 2.223 . S
O704 C703 1.315 . S
O705 Cd695 2.240 . S
O705 C703 1.279 . S
O706 Cd696 2.297 . S
O706 C701 1.247 . S
O707 Cd696 2.439 . S
O707 C701 1.208 . S
O708 Cd709 2.223 . S
O708 C716 1.315 . S
Cd709 O708 2.223 . S
Cd709 O712 2.297 . S
Cd709 O713 2.439 . S
Cd709 O719 2.240 . S
Cd710 O711 2.240 . S
Cd710 O718 2.223 . S
Cd710 O720 2.297 . S
Cd710 O721 2.439 . S
O711 Cd710 2.240 . S
O711 C716 1.279 . S
O712 Cd709 2.297 . S
O712 C714 1.247 . S
O713 Cd709 2.439 . S
O713 C714 1.208 . S
C714 O712 1.247 . S
C714 O713 1.208 . S
C715 O720 1.247 . S
C715 O721 1.208 . S
C716 O708 1.315 . S
C716 O711 1.279 . S
C717 O718 1.315 . S
C717 O719 1.279 . S
O718 Cd710 2.223 . S
O718 C717 1.315 . S
O719 Cd709 2.240 . S
O719 C717 1.279 . S
O720 Cd710 2.297 . S
O720 C715 1.247 . S
O721 Cd710 2.439 . S
O721 C715 1.208 . S
O722 Cd723 2.223 1_545 S
O722 C730 1.315 . S
Cd723 O722 2.223 1_565 S
Cd723 O726 2.297 . S
Cd723 O727 2.439 . S
Cd723 O733 2.240 1_565 S
Cd724 O725 2.240 . S
Cd724 O732 2.223 . S
Cd724 O734 2.297 . S
Cd724 O735 2.439 1_545 S
O725 Cd724 2.240 . S
O725 C730 1.279 . S
O726 Cd723 2.297 . S
O726 C728 1.247 . S
O727 Cd723 2.439 . S
O727 C728 1.208 . S
C728 O726 1.247 . S
C728 O727 1.208 . S
C729 O734 1.247 1_565 S
C729 O735 1.208 . S
C730 O722 1.315 . S
C730 O725 1.279 . S
C731 O732 1.315 . S
C731 O733 1.279 . S
O732 Cd724 2.223 . S
O732 C731 1.315 . S
O733 Cd723 2.240 1_545 S
O733 C731 1.279 . S
O734 Cd724 2.297 . S
O734 C729 1.247 1_545 S
O735 Cd724 2.439 1_565 S
O735 C729 1.208 . S
O736 Cd737 2.223 . S
O736 C744 1.315 . S
Cd737 O736 2.223 . S
Cd737 O740 2.297 1_655 S
Cd737 O741 2.439 1_655 S
Cd737 O747 2.240 . S
Cd738 O739 2.240 . S
Cd738 O746 2.223 1_455 S
Cd738 O748 2.297 . S
Cd738 O749 2.439 . S
O739 Cd738 2.240 . S
O739 C744 1.279 1_455 S
O740 Cd737 2.297 1_455 S
O740 C742 1.247 . S
O741 Cd737 2.439 1_455 S
O741 C742 1.208 . S
C742 O740 1.247 . S
C742 O741 1.208 . S
C743 O748 1.247 . S
C743 O749 1.208 . S
C744 O736 1.315 . S
C744 O739 1.279 1_655 S
C745 O746 1.315 . S
C745 O747 1.279 . S
O746 Cd738 2.223 1_655 S
O746 C745 1.315 . S
O747 Cd737 2.240 . S
O747 C745 1.279 . S
O748 Cd738 2.297 . S
O748 C743 1.247 . S
O749 Cd738 2.439 . S
O749 C743 1.208 . S
O750 Cd751 2.223 . S
O750 C758 1.315 . S
Cd751 O750 2.223 . S
Cd751 O754 2.297 . S
Cd751 O755 2.439 . S
Cd751 O761 2.240 . S
Cd752 O753 2.240 . S
Cd752 O760 2.223 . S
Cd752 O762 2.297 . S
Cd752 O763 2.439 . S
O753 Cd752 2.240 . S
O753 C758 1.279 . S
O754 Cd751 2.297 . S
O754 C756 1.247 . S
O755 Cd751 2.439 . S
O755 C756 1.208 . S
C756 O754 1.247 . S
C756 O755 1.208 . S
C757 O762 1.247 . S
C757 O763 1.208 . S
C758 O750 1.315 . S
C758 O753 1.279 . S
C759 O760 1.315 . S
C759 O761 1.279 . S
O760 Cd752 2.223 . S
O760 C759 1.315 . S
O761 Cd751 2.240 . S
O761 C759 1.279 . S
O762 Cd752 2.297 . S
O762 C757 1.247 . S
O763 Cd752 2.439 . S
O763 C757 1.208 . S
O764 Cd765 2.223 1_655 S
O764 C772 1.315 . S
Cd765 O764 2.223 1_455 S
Cd765 O768 2.297 . S
Cd765 O769 2.439 . S
Cd765 O775 2.240 . S
Cd766 O767 2.240 . S
Cd766 O774 2.223 . S
Cd766 O776 2.297 1_655 S
Cd766 O777 2.439 1_655 S
O767 Cd766 2.240 . S
O767 C772 1.279 . S
O768 Cd765 2.297 . S
O768 C770 1.247 . S
O769 Cd765 2.439 . S
O769 C770 1.208 . S
C770 O768 1.247 . S
C770 O769 1.208 . S
C771 O776 1.247 . S
C771 O777 1.208 . S
C772 O764 1.315 . S
C772 O767 1.279 . S
C773 O774 1.315 . S
C773 O775 1.279 1_655 S
O774 Cd766 2.223 . S
O774 C773 1.315 . S
O775 Cd765 2.240 . S
O775 C773 1.279 1_455 S
O776 Cd766 2.297 1_455 S
O776 C771 1.247 . S
O777 Cd766 2.439 1_455 S
O777 C771 1.208 . S
O778 Cd779 2.223 . S
O778 C786 1.315 . S
Cd779 O778 2.223 . S
Cd779 O782 2.297 . S
Cd779 O783 2.439 . S
Cd779 O789 2.240 . S
Cd780 O781 2.240 . S
Cd780 O788 2.223 . S
Cd780 O790 2.297 . S
Cd780 O791 2.439 . S
O781 Cd780 2.240 . S
O781 C786 1.279 . S
O782 Cd779 2.297 . S
O782 C784 1.247 . S
O783 Cd779 2.439 . S
O783 C784 1.208 . S
C784 O782 1.247 . S
C784 O783 1.208 . S
C785 O790 1.247 . S
C785 O791 1.208 . S
C786 O778 1.315 . S
C786 O781 1.279 . S
C787 O788 1.315 . S
C787 O789 1.279 . S
O788 Cd780 2.223 . S
O788 C787 1.315 . S
O789 Cd779 2.240 . S
O789 C787 1.279 . S
O790 Cd780 2.297 . S
O790 C785 1.247 . S
O791 Cd780 2.439 . S
O791 C785 1.208 . S
C792 C793 1.387 . S
C792 H796 0.950 . S
C792 C801 1.390 . S
C793 C792 1.387 . S
C793 C795 1.387 . S
H794 C801 0.950 . S
C795 C793 1.387 . S
C795 C797 1.390 . S
C795 H799 0.950 . S
H796 C792 0.950 . S
C797 C795 1.390 . S
C797 C798 1.387 . S
C797 H800 0.928 1_556 S
C798 C797 1.387 . S
C798 C801 1.387 . S
H799 C795 0.950 . S
H800 C797 0.928 1_554 S
C801 C792 1.390 . S
C801 H794 0.950 . S
C801 C798 1.387 . S
C802 C803 1.387 . S
C802 H806 0.950 . S
C802 C811 1.390 . S
C803 C802 1.387 . S
C803 C805 1.387 . S
H804 C811 0.950 . S
C805 C803 1.387 . S
C805 C807 1.390 . S
C805 H809 0.950 . S
H806 C802 0.950 . S
C807 C805 1.390 . S
C807 C808 1.387 . S
C807 H810 0.950 . S
C808 C807 1.387 . S
C808 C811 1.387 . S
H809 C805 0.950 . S
H810 C807 0.950 . S
C811 C802 1.390 . S
C811 H804 0.950 . S
C811 C808 1.387 . S
C812 C813 1.387 . S
C812 H816 0.950 . S
C812 C821 1.390 . S
C813 C812 1.387 . S
C813 C815 1.387 . S
H814 C821 0.950 . S
C815 C813 1.387 . S
C815 C817 1.390 . S
C815 H819 0.950 . S
H816 C812 0.950 . S
C817 C815 1.390 . S
C817 C818 1.387 . S
C817 H820 0.950 . S
C818 C817 1.387 . S
C818 C821 1.387 . S
H819 C815 0.950 . S
H820 C817 0.950 . S
C821 C812 1.390 . S
C821 H814 0.950 . S
C821 C818 1.387 . S
C822 C823 1.387 1_545 S
C822 H826 0.950 . S
C822 C831 1.390 . S
C823 C822 1.387 1_565 S
C823 C825 1.387 . S
H824 C831 0.950 . S
C825 C823 1.387 . S
C825 C827 1.390 . S
C825 H829 0.950 . S
H826 C822 0.950 . S
C827 C825 1.390 . S
C827 C828 1.387 1_565 S
C827 H830 0.950 . S
C828 C827 1.387 1_545 S
C828 C831 1.387 . S
H829 C825 0.950 . S
H830 C827 0.950 . S
C831 C822 1.390 . S
C831 H824 0.950 . S
C831 C828 1.387 . S
C832 C833 1.387 . S
C832 H836 0.950 . S
C832 C841 1.390 . S
C833 C832 1.387 . S
C833 C835 1.387 . S
H834 C841 0.950 . S
C835 C833 1.387 . S
C835 C837 1.390 . S
C835 H839 0.950 . S
H836 C832 0.950 . S
C837 C835 1.390 . S
C837 C838 1.387 . S
C837 H840 0.950 . S
C838 C837 1.387 . S
C838 C841 1.387 . S
H839 C835 0.950 . S
H840 C837 0.950 . S
C841 C832 1.390 . S
C841 H834 0.950 . S
C841 C838 1.387 . S
C842 C843 1.387 . S
C842 H846 0.950 . S
C842 C851 1.390 . S
C843 C842 1.387 . S
C843 C845 1.387 . S
H844 C851 0.950 . S
C845 C843 1.387 . S
C845 C847 1.390 . S
C845 H849 0.950 . S
H846 C842 0.950 . S
C847 C845 1.390 . S
C847 C848 1.387 . S
C847 H850 0.950 . S
C848 C847 1.387 . S
C848 C851 1.387 . S
H849 C845 0.950 . S
H850 C847 0.950 . S
C851 C842 1.390 . S
C851 H844 0.950 . S
C851 C848 1.387 . S
C852 C853 1.387 . S
C852 H856 0.950 . S
C852 C861 1.390 . S
C853 C852 1.387 . S
C853 C855 1.387 . S
H854 C861 0.950 . S
C855 C853 1.387 . S
C855 C857 1.390 . S
C855 H859 0.950 . S
H856 C852 0.950 . S
C857 C855 1.390 . S
C857 C858 1.387 . S
C857 H860 0.950 . S
C858 C857 1.387 . S
C858 C861 1.387 . S
H859 C855 0.950 . S
H860 C857 0.950 . S
C861 C852 1.390 . S
C861 H854 0.950 . S
C861 C858 1.387 . S
C862 C863 1.387 . S
C862 H866 0.950 . S
C862 C871 1.390 . S
C863 C862 1.387 . S
C863 C865 1.387 . S
H864 C871 0.950 1_545 S
C865 C863 1.387 . S
C865 C867 1.390 . S
C865 H869 0.950 . S
H866 C862 0.950 . S
C867 C865 1.390 . S
C867 C868 1.387 . S
C867 H870 0.950 . S
C868 C867 1.387 . S
C868 C871 1.387 . S
H869 C865 0.950 . S
H870 C867 0.950 . S
C871 C862 1.390 . S
C871 H864 0.950 1_565 S
C871 C868 1.387 . S
C872 C873 1.387 . S
C872 H876 0.950 . S
C872 C881 1.390 . S
C873 C872 1.387 . S
C873 C875 1.387 . S
H874 C881 0.950 . S
C875 C873 1.387 . S
C875 C877 1.390 . S
C875 H879 0.950 . S
H876 C872 0.950 . S
C877 C875 1.390 . S
C877 C878 1.387 . S
C877 H880 0.950 . S
C878 C877 1.387 . S
C878 C881 1.387 . S
H879 C875 0.950 . S
H880 C877 0.950 . S
C881 C872 1.390 . S
C881 H874 0.950 . S
C881 C878 1.387 . S
C882 C883 1.387 . S
C882 H886 0.950 . S
C882 C891 1.390 . S
C883 C882 1.387 . S
C883 C885 1.387 . S
H884 C891 0.950 . S
C885 C883 1.387 . S
C885 C887 1.390 . S
C885 H889 0.950 . S
H886 C882 0.950 . S
C887 C885 1.390 . S
C887 C888 1.387 . S
C887 H890 0.950 . S
C888 C887 1.387 . S
C888 C891 1.387 . S
H889 C885 0.950 . S
H890 C887 0.950 . S
C891 C882 1.390 . S
C891 H884 0.950 . S
C891 C888 1.387 . S
C892 C893 1.387 . S
C892 H896 0.950 . S
C892 C901 1.390 . S
C893 C892 1.387 . S
C893 C895 1.387 . S
H894 C901 0.950 . S
C895 C893 1.387 . S
C895 C897 1.390 . S
C895 H899 0.950 . S
H896 C892 0.950 . S
C897 C895 1.390 . S
C897 C898 1.387 . S
C897 H900 0.950 . S
C898 C897 1.387 . S
C898 C901 1.387 . S
H899 C895 0.950 . S
H900 C897 0.950 . S
C901 C892 1.390 . S
C901 H894 0.950 . S
C901 C898 1.387 . S
C902 C903 1.387 . S
C902 H906 0.950 . S
C902 C911 1.390 . S
C903 C902 1.387 . S
C903 C905 1.387 . S
H904 C911 0.950 . S
C905 C903 1.387 . S
C905 C907 1.390 . S
C905 H909 0.950 . S
H906 C902 0.950 . S
C907 C905 1.390 . S
C907 C908 1.387 . S
C907 H910 0.950 . S
C908 C907 1.387 . S
C908 C911 1.387 . S
H909 C905 0.950 . S
H910 C907 0.950 . S
C911 C902 1.390 . S
C911 H904 0.950 . S
C911 C908 1.387 . S
C912 C913 1.387 . S
C912 H916 0.950 . S
C912 C921 1.390 . S
C913 C912 1.387 . S
C913 C915 1.387 . S
H914 C921 0.950 . S
C915 C913 1.387 . S
C915 C917 1.390 . S
C915 H919 0.950 . S
H916 C912 0.950 . S
C917 C915 1.390 . S
C917 C918 1.387 . S
C917 H920 0.950 . S
C918 C917 1.387 . S
C918 C921 1.387 . S
H919 C915 0.950 . S
H920 C917 0.950 . S
C921 C912 1.390 . S
C921 H914 0.950 . S
C921 C918 1.387 . S
C922 C923 1.387 . S
C922 H926 0.950 . S
C922 C931 1.390 . S
C923 C922 1.387 . S
C923 C925 1.387 . S
H924 C931 0.950 . S
C925 C923 1.387 . S
C925 C927 1.390 . S
C925 H929 0.950 . S
H926 C922 0.950 . S
C927 C925 1.390 . S
C927 C928 1.387 . S
C927 H930 0.950 . S
C928 C927 1.387 . S
C928 C931 1.387 . S
H929 C925 0.950 . S
H930 C927 0.950 . S
C931 C922 1.390 . S
C931 H924 0.950 . S
C931 C928 1.387 . S
C932 C933 1.387 . S
C932 H936 0.950 . S
C932 C941 1.390 . S
C933 C932 1.387 . S
C933 C935 1.387 . S
H934 C941 0.950 . S
C935 C933 1.387 . S
C935 C937 1.390 . S
C935 H939 0.950 . S
H936 C932 0.950 . S
C937 C935 1.390 . S
C937 C938 1.387 . S
C937 H940 0.950 . S
C938 C937 1.387 . S
C938 C941 1.387 . S
H939 C935 0.950 . S
H940 C937 0.950 . S
C941 C932 1.390 . S
C941 H934 0.950 . S
C941 C938 1.387 . S
C942 C943 1.387 . S
C942 H946 0.950 . S
C942 C951 1.390 . S
C943 C942 1.387 . S
C943 C945 1.387 . S
H944 C951 0.950 . S
C945 C943 1.387 . S
C945 C947 1.390 . S
C945 H949 0.950 . S
H946 C942 0.950 . S
C947 C945 1.390 . S
C947 C948 1.387 . S
C947 H950 0.950 1_655 S
C948 C947 1.387 . S
C948 C951 1.387 . S
H949 C945 0.950 . S
H950 C947 0.950 1_455 S
C951 C942 1.390 . S
C951 H944 0.950 . S
C951 C948 1.387 . S
C952 C953 1.387 . S
C952 H956 0.950 . S
C952 C961 1.390 . S
C953 C952 1.387 . S
C953 C955 1.387 . S
H954 C961 0.922 1_545 S
C955 C953 1.387 . S
C955 C957 1.390 . S
C955 H959 0.950 . S
H956 C952 0.950 . S
C957 C955 1.390 . S
C957 C958 1.387 . S
C957 H960 0.950 . S
C958 C957 1.387 . S
C958 C961 1.387 . S
H959 C955 0.950 . S
H960 C957 0.950 . S
C961 C952 1.390 . S
C961 H954 0.922 1_565 S
C961 C958 1.387 . S
C962 C963 1.387 . S
C962 H966 0.950 . S
C962 C971 1.390 . S
C963 C962 1.387 . S
C963 C965 1.387 . S
H964 C971 0.950 . S
C965 C963 1.387 . S
C965 C967 1.390 . S
C965 H969 0.950 . S
H966 C962 0.950 . S
C967 C965 1.390 . S
C967 C968 1.387 . S
C967 H970 0.950 . S
C968 C967 1.387 . S
C968 C971 1.387 . S
H969 C965 0.950 . S
H970 C967 0.950 . S
C971 C962 1.390 . S
C971 H964 0.950 . S
C971 C968 1.387 . S
C972 C973 1.387 1_565 S
C972 H976 0.950 . S
C972 C981 1.390 . S
C973 C972 1.387 1_545 S
C973 C975 1.387 1_556 S
H974 C981 0.950 . S
C975 C973 1.387 1_554 S
C975 C977 1.390 1_545 S
C975 H979 0.950 . S
H976 C972 0.950 . S
C977 C975 1.390 1_565 S
C977 C978 1.387 . S
C977 H980 0.950 . S
C978 C977 1.387 . S
C978 C981 1.387 1_554 S
H979 C975 0.950 . S
H980 C977 0.950 . S
C981 C972 1.390 . S
C981 H974 0.950 . S
C981 C978 1.387 1_556 S
C982 C983 1.387 . S
C982 H986 0.950 . S
C982 C991 1.390 . S
C983 C982 1.387 . S
C983 C985 1.387 . S
H984 C991 0.950 . S
C985 C983 1.387 . S
C985 C987 1.390 . S
C985 H989 0.950 . S
H986 C982 0.950 . S
C987 C985 1.390 . S
C987 C988 1.387 . S
C987 H990 0.950 . S
C988 C987 1.387 . S
C988 C991 1.387 . S
H989 C985 0.950 . S
H990 C987 0.950 . S
C991 C982 1.390 . S
C991 H984 0.950 . S
C991 C988 1.387 . S
C992 C993 1.387 . S
C992 H996 0.950 . S
C992 C1001 1.390 . S
C993 C992 1.387 . S
C993 C995 1.387 . S
H994 C1001 0.950 . S
C995 C993 1.387 . S
C995 C997 1.390 . S
C995 H999 0.950 . S
H996 C992 0.950 . S
C997 C995 1.390 . S
C997 C998 1.387 . S
C997 H1000 0.950 . S
C998 C997 1.387 . S
C998 C1001 1.387 . S
H999 C995 0.950 . S
H1000 C997 0.950 . S
C1001 C992 1.390 . S
C1001 H994 0.950 . S
C1001 C998 1.387 . S
C1002 C1003 1.387 . S
C1002 H1006 0.950 . S
C1002 C1011 1.390 . S
C1003 C1002 1.387 . S
C1003 C1005 1.387 . S
H1004 C1011 0.950 . S
C1005 C1003 1.387 . S
C1005 C1007 1.390 . S
C1005 H1009 0.950 . S
H1006 C1002 0.950 . S
C1007 C1005 1.390 . S
C1007 C1008 1.387 . S
C1007 H1010 0.950 . S
C1008 C1007 1.387 . S
C1008 C1011 1.387 . S
H1009 C1005 0.950 . S
H1010 C1007 0.950 . S
C1011 C1002 1.390 . S
C1011 H1004 0.950 . S
C1011 C1008 1.387 . S
C1012 C1013 1.387 . S
C1012 H1016 0.950 . S
C1012 C1021 1.390 . S
C1013 C1012 1.387 . S
C1013 C1015 1.387 . S
H1014 C1021 0.950 . S
C1015 C1013 1.387 . S
C1015 C1017 1.390 . S
C1015 H1019 0.950 . S
H1016 C1012 0.950 . S
C1017 C1015 1.390 . S
C1017 C1018 1.387 . S
C1017 H1020 0.950 . S
C1018 C1017 1.387 . S
C1018 C1021 1.387 . S
H1019 C1015 0.950 . S
H1020 C1017 0.950 . S
C1021 C1012 1.390 . S
C1021 H1014 0.950 . S
C1021 C1018 1.387 . S
C1022 C1023 1.387 . S
C1022 H1026 0.950 . S
C1022 C1031 1.390 . S
C1023 C1022 1.387 . S
C1023 C1025 1.387 . S
H1024 C1031 0.950 . S
C1025 C1023 1.387 . S
C1025 C1027 1.390 . S
C1025 H1029 0.950 . S
H1026 C1022 0.950 . S
C1027 C1025 1.390 . S
C1027 C1028 1.387 . S
C1027 H1030 0.950 . S
C1028 C1027 1.387 . S
C1028 C1031 1.387 . S
H1029 C1025 0.950 . S
H1030 C1027 0.950 . S
C1031 C1022 1.390 . S
C1031 H1024 0.950 . S
C1031 C1028 1.387 . S
C1032 C1033 1.387 . S
C1032 H1036 0.950 . S
C1032 C1041 1.390 . S
C1033 C1032 1.387 . S
C1033 C1035 1.387 . S
H1034 C1041 0.950 . S
C1035 C1033 1.387 . S
C1035 C1037 1.390 . S
C1035 H1039 0.950 . S
H1036 C1032 0.950 . S
C1037 C1035 1.390 . S
C1037 C1038 1.387 . S
C1037 H1040 0.950 . S
C1038 C1037 1.387 . S
C1038 C1041 1.387 . S
H1039 C1035 0.950 . S
H1040 C1037 0.950 . S
C1041 C1032 1.390 . S
C1041 H1034 0.950 . S
C1041 C1038 1.387 . S
C1042 C1043 1.387 . S
C1042 H1046 0.950 . S
C1042 C1051 1.390 . S
C1043 C1042 1.387 . S
C1043 C1045 1.387 . S
H1044 C1051 0.950 . S
C1045 C1043 1.387 . S
C1045 C1047 1.390 . S
C1045 H1049 0.950 . S
H1046 C1042 0.950 . S
C1047 C1045 1.390 . S
C1047 C1048 1.387 . S
C1047 H1050 0.950 . S
C1048 C1047 1.387 . S
C1048 C1051 1.387 . S
H1049 C1045 0.950 . S
H1050 C1047 0.950 . S
C1051 C1042 1.390 . S
C1051 H1044 0.950 . S
C1051 C1048 1.387 . S
C1052 C1053 1.387 . S
C1052 H1056 0.950 . S
C1052 C1061 1.390 . S
C1053 C1052 1.387 . S
C1053 C1055 1.387 . S
H1054 C1061 0.950 . S
C1055 C1053 1.387 . S
C1055 C1057 1.390 . S
C1055 H1059 0.950 . S
H1056 C1052 0.950 . S
C1057 C1055 1.390 . S
C1057 C1058 1.387 . S
C1057 H1060 0.950 . S
C1058 C1057 1.387 . S
C1058 C1061 1.387 . S
H1059 C1055 0.950 . S
H1060 C1057 0.950 . S
C1061 C1052 1.390 . S
C1061 H1054 0.950 . S
C1061 C1058 1.387 . S
C1062 C1063 1.387 . S
C1062 H1066 0.950 . S
C1062 C1071 1.390 . S
C1063 C1062 1.387 . S
C1063 C1065 1.387 . S
H1064 C1071 0.950 . S
C1065 C1063 1.387 . S
C1065 C1067 1.390 . S
C1065 H1069 0.950 . S
H1066 C1062 0.950 . S
C1067 C1065 1.390 . S
C1067 C1068 1.387 . S
C1067 H1070 0.950 . S
C1068 C1067 1.387 . S
C1068 C1071 1.387 . S
H1069 C1065 0.950 . S
H1070 C1067 0.950 . S
C1071 C1062 1.390 . S
C1071 H1064 0.950 . S
C1071 C1068 1.387 . S
C1072 C1073 1.387 . S
C1072 H1076 0.950 . S
C1072 C1081 1.390 . S
C1073 C1072 1.387 . S
C1073 C1075 1.387 . S
H1074 C1081 0.950 . S
C1075 C1073 1.387 . S
C1075 C1077 1.390 . S
C1075 H1079 0.950 . S
H1076 C1072 0.950 . S
C1077 C1075 1.390 . S
C1077 C1078 1.387 . S
C1077 H1080 0.950 . S
C1078 C1077 1.387 . S
C1078 C1081 1.387 . S
H1079 C1075 0.950 . S
H1080 C1077 0.950 . S
C1081 C1072 1.390 . S
C1081 H1074 0.950 . S
C1081 C1078 1.387 . S
C1082 C1083 1.387 . S
C1082 H1086 0.950 . S
C1082 C1091 1.390 1_455 S
C1083 C1082 1.387 . S
C1083 C1085 1.373 1_455 S
H1084 C1091 0.950 . S
C1085 C1083 1.373 1_655 S
C1085 C1087 1.414 . S
C1085 H1089 0.941 1_655 S
H1086 C1082 0.950 . S
C1087 C1085 1.414 . S
C1087 C1088 1.387 . S
C1087 H1090 0.950 . S
C1088 C1087 1.387 . S
C1088 C1091 1.387 . S
H1089 C1085 0.941 1_455 S
H1090 C1087 0.950 . S
C1091 C1082 1.390 1_655 S
C1091 H1084 0.950 . S
C1091 C1088 1.387 . S
C1092 C1093 1.387 . S
C1092 H1096 0.950 . S
C1092 C1101 1.390 . S
C1093 C1092 1.387 . S
C1093 C1095 1.387 . S
H1094 C1101 0.950 . S
C1095 C1093 1.387 . S
C1095 C1097 1.390 . S
C1095 H1099 0.950 . S
H1096 C1092 0.950 . S
C1097 C1095 1.390 . S
C1097 C1098 1.387 . S
C1097 H1100 0.950 . S
C1098 C1097 1.387 . S
C1098 C1101 1.387 . S
H1099 C1095 0.950 . S
H1100 C1097 0.950 . S
C1101 C1092 1.390 . S
C1101 H1094 0.950 . S
C1101 C1098 1.387 . S
C1102 C1103 1.387 . S
C1102 H1106 0.950 . S
C1102 C1111 1.390 1_655 S
C1103 C1102 1.387 . S
C1103 C1105 1.387 . S
H1104 C1111 0.950 . S
C1105 C1103 1.387 . S
C1105 C1107 1.390 1_655 S
C1105 H1109 0.950 . S
H1106 C1102 0.950 . S
C1107 C1105 1.390 1_455 S
C1107 C1108 1.387 . S
C1107 H1110 0.950 . S
C1108 C1107 1.387 . S
C1108 C1111 1.387 . S
H1109 C1105 0.950 . S
H1110 C1107 0.950 . S
C1111 C1102 1.390 1_455 S
C1111 H1104 0.950 . S
C1111 C1108 1.387 . S
C1112 C1113 1.387 . S
C1112 H1116 0.950 . S
C1112 C1121 1.390 . S
C1113 C1112 1.387 . S
C1113 C1115 1.387 . S
H1114 C1121 0.950 . S
C1115 C1113 1.387 . S
C1115 C1117 1.390 . S
C1115 H1119 0.950 . S
H1116 C1112 0.950 . S
C1117 C1115 1.390 . S
C1117 C1118 1.387 . S
C1117 H1120 0.950 . S
C1118 C1117 1.387 . S
C1118 C1121 1.387 . S
H1119 C1115 0.950 . S
H1120 C1117 0.950 . S
C1121 C1112 1.390 . S
C1121 H1114 0.950 . S
C1121 C1118 1.387 . S
C1122 C1123 1.388 1_554 S
C1122 H1126 0.948 . S
C1122 C1131 1.391 1_554 S
C1123 C1122 1.388 1_556 S
C1123 C1125 1.387 . S
H1124 C1131 0.950 . S
C1125 C1123 1.387 . S
C1125 C1127 1.390 . S
C1125 H1129 0.950 . S
H1126 C1122 0.948 . S
C1127 C1125 1.390 . S
C1127 C1128 1.387 . S
C1127 H1130 0.950 . S
C1128 C1127 1.387 . S
C1128 C1131 1.387 . S
H1129 C1125 0.950 . S
H1130 C1127 0.950 . S
C1131 C1122 1.391 1_556 S
C1131 H1124 0.950 . S
C1131 C1128 1.387 . S
C1132 C1133 1.387 . S
C1132 H1136 0.950 . S
C1132 C1141 1.390 . S
C1133 C1132 1.387 . S
C1133 C1135 1.387 . S
H1134 C1141 0.950 . S
C1135 C1133 1.387 . S
C1135 C1137 1.390 . S
C1135 H1139 0.950 . S
H1136 C1132 0.950 . S
C1137 C1135 1.390 . S
C1137 C1138 1.387 . S
C1137 H1140 0.950 . S
C1138 C1137 1.387 . S
C1138 C1141 1.387 . S
H1139 C1135 0.950 . S
H1140 C1137 0.950 . S
C1141 C1132 1.390 . S
C1141 H1134 0.950 . S
C1141 C1138 1.387 . S
C1142 C1143 1.387 . S
C1142 H1146 0.950 . S
C1142 C1151 1.390 1_554 S
C1143 C1142 1.387 . S
C1143 C1145 1.387 . S
H1144 C1151 0.950 . S
C1145 C1143 1.387 . S
C1145 C1147 1.390 1_554 S
C1145 H1149 0.950 . S
H1146 C1142 0.950 . S
C1147 C1145 1.390 1_556 S
C1147 C1148 1.387 . S
C1147 H1150 0.950 . S
C1148 C1147 1.387 . S
C1148 C1151 1.387 . S
H1149 C1145 0.950 . S
H1150 C1147 0.950 . S
C1151 C1142 1.390 1_556 S
C1151 H1144 0.950 . S
C1151 C1148 1.387 . S
C1152 C1153 1.387 . S
C1152 H1156 0.950 . S
C1152 C1161 1.390 . S
C1153 C1152 1.387 . S
C1153 C1155 1.387 . S
H1154 C1161 0.950 . S
C1155 C1153 1.387 . S
C1155 C1157 1.390 . S
C1155 H1159 0.950 . S
H1156 C1152 0.950 . S
C1157 C1155 1.390 . S
C1157 C1158 1.387 . S
C1157 H1160 0.950 . S
C1158 C1157 1.387 . S
C1158 C1161 1.387 . S
H1159 C1155 0.950 . S
H1160 C1157 0.950 . S
C1161 C1152 1.390 . S
C1161 H1154 0.950 . S
C1161 C1158 1.387 . S
C1162 C1163 1.387 . S
C1162 H1166 0.950 . S
C1162 C1171 1.390 . S
C1163 C1162 1.387 . S
C1163 C1165 1.387 . S
H1164 C1171 0.950 . S
C1165 C1163 1.387 . S
C1165 C1167 1.390 . S
C1165 H1169 0.950 1_554 S
H1166 C1162 0.950 . S
C1167 C1165 1.390 . S
C1167 C1168 1.387 . S
C1167 H1170 0.950 . S
C1168 C1167 1.387 . S
C1168 C1171 1.387 . S
H1169 C1165 0.950 1_556 S
H1170 C1167 0.950 . S
C1171 C1162 1.390 . S
C1171 H1164 0.950 . S
C1171 C1168 1.387 . S
C1172 C1173 1.387 . S
C1172 H1176 0.950 . S
C1172 C1181 1.390 . S
C1173 C1172 1.387 . S
C1173 C1175 1.387 . S
H1174 C1181 0.950 . S
C1175 C1173 1.387 . S
C1175 C1177 1.390 . S
C1175 H1179 0.950 . S
H1176 C1172 0.950 . S
C1177 C1175 1.390 . S
C1177 C1178 1.387 . S
C1177 H1180 0.950 . S
C1178 C1177 1.387 . S
C1178 C1181 1.387 . S
H1179 C1175 0.950 . S
H1180 C1177 0.950 . S
C1181 C1172 1.390 . S
C1181 H1174 0.950 . S
C1181 C1178 1.387 . S
C1182 C1183 1.387 . S
C1182 H1186 0.950 . S
C1182 C1191 1.390 . S
C1183 C1182 1.387 . S
C1183 C1185 1.387 . S
H1184 C1191 0.950 . S
C1185 C1183 1.387 . S
C1185 C1187 1.390 . S
C1185 H1189 0.950 . S
H1186 C1182 0.950 . S
C1187 C1185 1.390 . S
C1187 C1188 1.387 . S
C1187 H1190 0.950 . S
C1188 C1187 1.387 . S
C1188 C1191 1.387 . S
H1189 C1185 0.950 . S
H1190 C1187 0.950 . S
C1191 C1182 1.390 . S
C1191 H1184 0.950 . S
C1191 C1188 1.387 . S
C1192 C1193 1.387 . S
C1192 H1196 0.950 . S
C1192 C1201 1.390 . S
C1193 C1192 1.387 . S
C1193 C1195 1.387 . S
H1194 C1201 0.950 . S
C1195 C1193 1.387 . S
C1195 C1197 1.390 . S
C1195 H1199 0.950 . S
H1196 C1192 0.950 . S
C1197 C1195 1.390 . S
C1197 C1198 1.387 . S
C1197 H1200 0.950 . S
C1198 C1197 1.387 . S
C1198 C1201 1.387 . S
H1199 C1195 0.950 . S
H1200 C1197 0.950 . S
C1201 C1192 1.390 . S
C1201 H1194 0.950 . S
C1201 C1198 1.387 . S
C1202 C1203 1.387 . S
C1202 H1206 0.950 . S
C1202 C1211 1.390 . S
C1203 C1202 1.387 . S
C1203 C1205 1.387 . S
H1204 C1211 0.950 . S
C1205 C1203 1.387 . S
C1205 C1207 1.390 . S
C1205 H1209 0.950 . S
H1206 C1202 0.950 . S
C1207 C1205 1.390 . S
C1207 C1208 1.387 . S
C1207 H1210 0.950 . S
C1208 C1207 1.387 . S
C1208 C1211 1.387 . S
H1209 C1205 0.950 . S
H1210 C1207 0.950 . S
C1211 C1202 1.390 . S
C1211 H1204 0.950 . S
C1211 C1208 1.387 . S
C1212 C1213 1.387 . S
C1212 H1216 0.950 . S
C1212 C1221 1.390 . S
C1213 C1212 1.387 . S
C1213 C1215 1.387 . S
H1214 C1221 0.950 . S
C1215 C1213 1.387 . S
C1215 C1217 1.390 . S
C1215 H1219 0.950 . S
H1216 C1212 0.950 . S
C1217 C1215 1.390 . S
C1217 C1218 1.387 . S
C1217 H1220 0.950 . S
C1218 C1217 1.387 . S
C1218 C1221 1.387 . S
H1219 C1215 0.950 . S
H1220 C1217 0.950 . S
C1221 C1212 1.390 . S
C1221 H1214 0.950 . S
C1221 C1218 1.387 . S
C1222 C1223 1.387 . S
C1222 H1226 0.950 . S
C1222 C1231 1.390 . S
C1223 C1222 1.387 . S
C1223 C1225 1.387 . S
H1224 C1231 0.950 . S
C1225 C1223 1.387 . S
C1225 C1227 1.390 . S
C1225 H1229 0.950 . S
H1226 C1222 0.950 . S
C1227 C1225 1.390 . S
C1227 C1228 1.387 . S
C1227 H1230 0.950 . S
C1228 C1227 1.387 . S
C1228 C1231 1.387 . S
H1229 C1225 0.950 . S
H1230 C1227 0.950 . S
C1231 C1222 1.390 . S
C1231 H1224 0.950 . S
C1231 C1228 1.387 . S
C1232 C1233 1.387 . S
C1232 H1236 0.950 . S
C1232 C1241 1.390 . S
C1233 C1232 1.387 . S
C1233 C1235 1.387 . S
H1234 C1241 0.950 . S
C1235 C1233 1.387 . S
C1235 C1237 1.390 . S
C1235 H1239 0.950 . S
H1236 C1232 0.950 . S
C1237 C1235 1.390 . S
C1237 C1238 1.387 . S
C1237 H1240 0.950 . S
C1238 C1237 1.387 . S
C1238 C1241 1.387 . S
H1239 C1235 0.950 . S
H1240 C1237 0.950 . S
C1241 C1232 1.390 . S
C1241 H1234 0.950 . S
C1241 C1238 1.387 . S
C1242 C1243 1.387 . S
C1242 H1246 0.950 . S
C1242 C1251 1.390 . S
C1243 C1242 1.387 . S
C1243 C1245 1.387 . S
H1244 C1251 0.950 . S
C1245 C1243 1.387 . S
C1245 C1247 1.390 . S
C1245 H1249 0.950 . S
H1246 C1242 0.950 . S
C1247 C1245 1.390 . S
C1247 C1248 1.387 . S
C1247 H1250 0.950 . S
C1248 C1247 1.387 . S
C1248 C1251 1.387 . S
H1249 C1245 0.950 . S
H1250 C1247 0.950 . S
C1251 C1242 1.390 . S
C1251 H1244 0.950 . S
C1251 C1248 1.387 . S
C1252 C1253 1.387 . S
C1252 H1256 0.950 . S
C1252 C1261 1.390 . S
C1253 C1252 1.387 . S
C1253 C1255 1.387 . S
H1254 C1261 0.950 . S
C1255 C1253 1.387 . S
C1255 C1257 1.390 . S
C1255 H1259 0.950 . S
H1256 C1252 0.950 . S
C1257 C1255 1.390 . S
C1257 C1258 1.387 . S
C1257 H1260 0.950 . S
C1258 C1257 1.387 . S
C1258 C1261 1.387 . S
H1259 C1255 0.950 . S
H1260 C1257 0.950 . S
C1261 C1252 1.390 . S
C1261 H1254 0.950 . S
C1261 C1258 1.387 . S
C1262 C1263 1.387 . S
C1262 H1266 0.950 . S
C1262 C1271 1.390 . S
C1263 C1262 1.387 . S
C1263 C1265 1.387 . S
H1264 C1271 0.950 . S
C1265 C1263 1.387 . S
C1265 C1267 1.394 . S
C1265 H1269 0.950 . S
H1266 C1262 0.950 . S
C1267 C1265 1.394 . S
C1267 C1268 1.386 1_545 S
C1267 H1270 0.947 1_545 S
C1268 C1267 1.386 1_565 S
C1268 C1271 1.387 1_565 S
H1269 C1265 0.950 . S
H1270 C1267 0.947 1_565 S
C1271 C1262 1.390 . S
C1271 H1264 0.950 . S
C1271 C1268 1.387 1_545 S
C798 C632 1.601 1_556 S
C793 C211 1.598 . S
C808 C647 1.734 . S
C803 C255 1.792 1_455 S
C813 C274 1.681 . S
C818 C660 1.682 . S
C828 C674 1.622 . S
C823 C157 1.664 1_655 S
C838 C686 1.609 . S
C833 C391 1.686 . S
C848 C700 1.535 . S
C843 C484 1.465 . S
C853 C450 1.721 . S
C858 C714 1.687 . S
C868 C729 1.611 . S
C863 C352 1.576 . S
C873 C430 1.642 . S
C878 C745 1.640 . S
C888 C758 1.628 . S
C883 C367 1.633 . S
C893 C411 1.596 . S
C898 C743 1.537 . S
C908 C756 1.711 . S
C903 C469 1.622 . S
C913 C294 1.790 . S
C918 C772 1.789 . S
C923 C177 1.655 . S
C928 C771 1.685 . S
C933 C196 1.703 . S
C938 C770 1.634 . S
C943 C235 1.688 . S
C948 C773 1.653 . S
C953 C133 1.679 . S
C958 C675 1.679 1_565 S
C963 C567 1.497 . S
C968 C673 1.468 . S
C978 C633 1.584 . S
C973 C601 1.615 . S
C988 C644 1.730 . S
C983 C328 1.746 . S
C993 C172 1.675 . S
C998 C689 1.660 . S
C1008 C730 1.830 . S
C1003 C445 1.832 . S
C1018 C687 1.685 . S
C1013 C372 1.651 1_545 S
C1028 C715 1.665 . S
C1023 C489 1.600 . S
C1038 C716 1.601 . S
C1033 C562 1.598 . S
C1043 C606 1.792 . S
C1048 C731 1.735 . S
C1053 C313 1.682 . S
C1058 C688 1.681 . S
C1068 C702 1.624 . S
C1063 C508 1.666 . S
C1073 C118 1.686 . S
C1078 C658 1.608 . S
C1088 C672 1.533 . S
C1083 C16 1.465 . S
C1098 C630 1.686 . S
C1093 C60 1.722 . S
C1108 C645 1.612 . S
C1103 C79 1.578 . S
C1113 C40 1.641 . S
C1118 C759 1.640 . S
C1123 C94 1.631 1_556 S
C1128 C744 1.627 . S
C1133 C138 1.596 . S
C1138 C757 1.537 . S
C1143 C1 1.621 . S
C1148 C742 1.712 . S
C1158 C786 1.789 . S
C1153 C333 1.789 . S
C1168 C785 1.683 . S
C1163 C528 1.656 1_554 S
C1178 C784 1.634 . S
C1173 C547 1.703 . S
C1183 C586 1.687 . S
C1188 C787 1.651 . S
C1193 C406 1.678 . S
C1198 C703 1.678 . S
C1208 C701 1.468 . S
C1203 C216 1.497 . S
C1218 C717 1.581 . S
C1213 C250 1.613 . S
C1228 C728 1.730 . S
C1223 C289 1.744 . S
C1233 C523 1.676 . S
C1238 C661 1.660 . S
C1248 C646 1.831 . S
C1243 C55 1.831 . S
C1253 C99 1.654 . S
C1258 C659 1.686 . S
C1268 C631 1.667 . S
C1263 C21 1.599 . S
