# Generated by pormake.
# Topology tsx, (6,3)-cn, num edge types: 1
# Building blocks:
#     Node 0, Type 0, BuildingBlock: FUNLAD_clean_sbu_0, # of connection points: 6
#     Node 1, Type 0, BuildingBlock: FUNLAD_clean_sbu_0, # of connection points: 6
#     Node 2, Type 1, BuildingBlock: VETTIZ_charged_linker_0, # of connection points: 3
#     Node 3, Type 1, BuildingBlock: VETTIZ_charged_linker_0, # of connection points: 3
#     Node 4, Type 1, BuildingBlock: VETTIZ_charged_linker_0, # of connection points: 3
#     Node 5, Type 1, BuildingBlock: VETTIZ_charged_linker_0, # of connection points: 3
#     Edge 6, Type (0, 1), BuildingBlock: MIFKUJ_clean_linker_0, # of connection points: 2
#     Edge 7, Type (0, 1), BuildingBlock: MIFKUJ_clean_linker_0, # of connection points: 2
#     Edge 8, Type (0, 1), BuildingBlock: MIFKUJ_clean_linker_0, # of connection points: 2
#     Edge 9, Type (0, 1), BuildingBlock: MIFKUJ_clean_linker_0, # of connection points: 2
#     Edge 10, Type (0, 1), BuildingBlock: MIFKUJ_clean_linker_0, # of connection points: 2
#     Edge 11, Type (0, 1), BuildingBlock: MIFKUJ_clean_linker_0, # of connection points: 2
#     Edge 12, Type (0, 1), BuildingBlock: MIFKUJ_clean_linker_0, # of connection points: 2
#     Edge 13, Type (0, 1), BuildingBlock: MIFKUJ_clean_linker_0, # of connection points: 2
#     Edge 14, Type (0, 1), BuildingBlock: MIFKUJ_clean_linker_0, # of connection points: 2
#     Edge 15, Type (0, 1), BuildingBlock: MIFKUJ_clean_linker_0, # of connection points: 2
#     Edge 16, Type (0, 1), BuildingBlock: MIFKUJ_clean_linker_0, # of connection points: 2
#     Edge 17, Type (0, 1), BuildingBlock: MIFKUJ_clean_linker_0, # of connection points: 2
# Relax obj value: 0.169
# Max RMSD: 0.158
# Mean RMSD: 0.098
data_MOF--net-tsx--node1-FUNLAD_clean_sbu_0--node2-VETTIZ_charged_linker_0--edge1-MIFKUJ_clean_linker_0
_symmetry_space_group_name_H-M    P1
_symmetry_Int_Tables_number       1
_symmetry_cell_setting            triclinic
loop_
_symmetry_equiv_pos_as_xyz
'x, y, z'
_cell_length_a     28.678765
_cell_length_b     31.782259
_cell_length_c     61.228978
_cell_angle_alpha  90.845588
_cell_angle_beta   92.103572
_cell_angle_gamma 89.814968
loop_
_atom_site_label
_atom_site_type_symbol
_atom_site_fract_x
_atom_site_fract_y
_atom_site_fract_z
_atom_type_partial_charge
C0 C 0.95541 0.93138 0.9914 0.0
N1 N 0.00962 0.99688 0.04618 0.0
C2 C 0.96673 0.9904 0.05428 0.0
C3 C 0.96112 0.98945 0.07676 0.0
C4 C -0.0001 0.99581 0.09102 0.0
C5 C 0.04368 0.00298 0.0823 0.0
C6 C 0.04785 0.00309 0.05965 0.0
Zn7 Zn 0.01559 0.99697 0.01321 0.0
C8 C 0.08976 0.94028 -0.00155 0.0
N9 N 0.02487 0.99745 0.94418 0.0
C10 C 0.98645 0.99034 0.931 0.0
C11 C 0.06776 0.00217 0.93579 0.0
C12 C 0.07333 0.99929 0.9133 0.0
C13 C 0.03453 0.99062 0.89929 0.0
C14 C 0.99055 0.98641 0.90845 0.0
Zn15 Zn 0.01901 0.99807 0.97714 0.0
O16 O 0.96931 0.94523 0.01007 0.0
C17 C 0.94401 0.05384 0.99214 0.0
O18 O 0.97034 0.9482 0.97436 0.0
H19 H 0.09791 0.00759 0.94657 0.0
H20 H 0.93673 0.98595 0.04328 0.0
H21 H 0.95266 0.98676 0.93802 0.0
O22 O 0.95839 0.03935 0.01041 0.0
O23 O 0.96386 0.04232 0.97481 0.0
H24 H 0.08163 0.00802 0.05284 0.0
O25 O 0.06697 0.04834 0.98012 0.0
O26 O 0.06255 0.04854 0.01581 0.0
O27 O 0.07424 0.95323 0.98001 0.0
O28 O 0.07204 0.95451 0.01578 0.0
C29 C 0.07905 0.0639 -0.00133 0.0
H30 H 0.92671 0.98434 0.08295 0.0
H31 H 0.07438 0.00778 0.09286 0.0
H32 H 0.10776 0.00364 0.90703 0.0
H33 H 0.95969 0.97905 0.89843 0.0
C34 C 0.46222 0.44654 0.50336 0.0
N35 N 0.52991 0.5183 0.55299 0.0
C36 C 0.48917 0.51735 0.56365 0.0
C37 C 0.4893 0.52206 0.58633 0.0
C38 C 0.53175 0.52807 0.59815 0.0
C39 C 0.57328 0.52868 0.58668 0.0
C40 C 0.57156 0.52359 0.56401 0.0
Zn41 Zn 0.52852 0.51314 0.51984 0.0
C42 C 0.5978 0.45098 0.50421 0.0
N43 N 0.52539 0.50328 0.45054 0.0
C44 C 0.48439 0.49965 0.43877 0.0
C45 C 0.56674 0.50719 0.44055 0.0
C46 C 0.56775 0.50943 0.41788 0.0
C47 C 0.52591 0.50682 0.40541 0.0
C48 C 0.4839 0.50098 0.41598 0.0
Zn49 Zn 0.52582 0.50728 0.4837 0.0
O50 O 0.4791 0.4639 0.52073 0.0
C51 C 0.45649 0.5693 0.49933 0.0
O52 O 0.47561 0.45866 0.48493 0.0
H53 H 0.59897 0.50968 0.45021 0.0
H54 H 0.45646 0.51311 0.55454 0.0
H55 H 0.45194 0.49681 0.44708 0.0
O56 O 0.47359 0.55811 0.51779 0.0
O57 O 0.47204 0.55285 0.48201 0.0
H58 H 0.60351 0.52428 0.55518 0.0
O59 O 0.57524 0.55614 0.48277 0.0
O60 O 0.57806 0.56259 0.51843 0.0
O61 O 0.57997 0.46186 0.48583 0.0
O62 O 0.58302 0.4679 0.52158 0.0
C63 C 0.59144 0.57439 0.49995 0.0
H64 H 0.45651 0.52071 0.59452 0.0
H65 H 0.60673 0.53375 0.59508 0.0
H66 H 0.6008 0.51352 0.41016 0.0
H67 H 0.45098 0.49904 0.40678 0.0
C68 C 0.08185 0.90064 0.45646 0.0
C69 C 0.10687 0.86951 0.44517 0.0
C70 C 0.09681 0.86277 0.42268 0.0
C71 C 0.0404 0.91944 0.42267 0.0
C72 C 0.04884 0.92521 0.44488 0.0
C73 C 0.01946 0.96017 0.45406 0.0
H74 H 0.85791 0.11352 0.43604 0.0
C75 C 0.00565 0.95091 0.41528 0.0
C76 C 0.9926 0.97458 0.43361 0.0
H77 H 0.92082 0.07621 0.49786 0.0
H78 H 0.96651 0.0227 0.47938 0.0
H79 H 0.94757 0.11226 0.41056 0.0
H80 H 0.8416 0.01828 0.41621 0.0
H81 H 0.85515 0.02109 0.38845 0.0
H82 H 0.83274 0.067 0.40215 0.0
H83 H 0.89453 0.11362 0.39415 0.0
H84 H 0.9454 0.08528 0.38537 0.0
C85 C 0.05258 0.99487 0.46339 0.0
C86 C 0.98695 0.94144 0.47105 0.0
C87 C 0.96634 0.96496 0.3342 0.0
C88 C 0.93971 0.99444 0.32226 0.0
C89 C 0.91405 0.0252 0.33347 0.0
C90 C 0.91547 0.02698 0.35634 0.0
C91 C 0.94337 0.99806 0.36811 0.0
C92 C 0.96806 0.96762 0.35703 0.0
C93 C 0.99779 0.94105 0.37217 0.0
C94 C 0.98709 0.96078 0.39416 0.0
C95 C 0.95503 0.99389 0.39165 0.0
C96 C 0.0495 0.94728 0.36636 0.0
C97 C 0.98032 0.89499 0.37012 0.0
C98 C 0.881 0.09343 0.44568 0.0
C99 C 0.88594 0.0989 0.46844 0.0
C100 C 0.91712 0.07277 0.48031 0.0
C101 C 0.94316 0.04168 0.46962 0.0
C102 C 0.93783 0.0367 0.44684 0.0
C103 C 0.90707 0.06236 0.4353 0.0
C104 C 0.90638 0.05336 0.41117 0.0
C105 C 0.94085 0.01722 0.41016 0.0
C106 C 0.95941 0.00763 0.43105 0.0
C107 C 0.92402 0.09307 0.39955 0.0
C108 C 0.85639 0.03942 0.40391 0.0
H109 H 0.0581 0.88084 0.39431 0.0
H110 H 0.08859 0.90645 0.47376 0.0
H111 H 0.95234 0.95678 0.47064 0.0
H112 H 0.00271 0.94383 0.48786 0.0
H113 H 0.97952 0.90762 0.46753 0.0
H114 H 0.08064 0.00122 0.45181 0.0
H115 H 0.06955 0.98505 0.4791 0.0
H116 H 0.03485 0.02529 0.46594 0.0
H117 H 0.987 0.94145 0.32592 0.0
H118 H 0.89322 0.04809 0.32448 0.0
H119 H 0.89539 0.05126 0.36394 0.0
H120 H 0.05603 0.9805 0.36189 0.0
H121 H 0.05874 0.92699 0.35223 0.0
H122 H 0.07438 0.94118 0.38011 0.0
H123 H 0.94216 0.89382 0.36617 0.0
H124 H 0.98482 0.87762 0.38557 0.0
H125 H 0.99815 0.87756 0.35695 0.0
H126 H 0.11464 0.83829 0.41371 0.0
C127 C 0.06376 0.88742 0.41142 0.0
C128 C 0.09065 0.11485 0.53946 0.0
C129 C 0.12467 0.13888 0.55101 0.0
C130 C 0.13445 0.13091 0.57325 0.0
C131 C 0.07735 0.075 0.5722 0.0
C132 C 0.06705 0.08341 0.55046 0.0
C133 C 0.0285 0.0558 0.54108 0.0
H134 H 0.88077 0.89269 0.55484 0.0
C135 C 0.04753 0.03995 0.57867 0.0
C136 C 0.0188 0.02838 0.56051 0.0
H137 H 0.89513 0.96622 0.49685 0.0
H138 H 0.95378 0.0099 0.51596 0.0
H139 H 0.98852 0.88536 0.56731 0.0
H140 H 0.88101 0.96981 0.58792 0.0
H141 H 0.91711 0.96145 0.61118 0.0
H142 H 0.8868 0.91748 0.59825 0.0
H143 H 0.94359 0.87004 0.58519 0.0
H144 H 0.99755 0.89296 0.59561 0.0
C145 C 0.04757 0.03015 0.52165 0.0
C146 C 0.98635 0.08436 0.535 0.0
C147 C 0.0605 0.9857 0.6563 0.0
C148 C 0.03562 0.95491 0.66723 0.0
C149 C 0.00259 0.93006 0.65543 0.0
C150 C 0.99337 0.9366 0.63315 0.0
C151 C 0.0172 0.96855 0.62258 0.0
C152 C 0.05054 0.99212 0.63405 0.0
C153 C 0.07139 0.0254 0.62021 0.0
C154 C 0.04461 0.01817 0.59864 0.0
C155 C 0.01307 0.98487 0.60018 0.0
C156 C 0.12406 0.01553 0.61842 0.0
C157 C 0.0605 0.0691 0.63049 0.0
C158 C 0.89642 0.91842 0.54631 0.0
C159 C 0.88414 0.9261 0.52439 0.0
C160 C 0.90507 0.95959 0.51368 0.0
C161 C 0.93882 0.98475 0.52473 0.0
C162 C 0.95183 0.97593 0.54656 0.0
C163 C 0.93024 0.94346 0.557 0.0
C164 C 0.94767 0.93863 0.5802 0.0
C165 C 0.98371 0.97333 0.58199 0.0
C166 C 0.98628 0.99505 0.56227 0.0
C167 C 0.9703 0.89443 0.58242 0.0
C168 C 0.90621 0.94692 0.5953 0.0
H169 H 0.12051 0.09425 0.60078 0.0
H170 H 0.08231 0.12074 0.52237 0.0
H171 H 0.9528 0.06742 0.53478 0.0
H172 H 0.99081 0.09931 0.51893 0.0
H173 H 0.98256 0.11003 0.54738 0.0
H174 H 0.08428 0.02022 0.52518 0.0
H175 H 0.04699 0.04921 0.50658 0.0
H176 H 0.02832 0.00065 0.51825 0.0
H177 H 0.08563 0.00563 0.66507 0.0
H178 H 0.98334 0.90593 0.66355 0.0
H179 H 0.96741 0.91698 0.62516 0.0
H180 H 0.13007 0.981 0.61702 0.0
H181 H 0.14424 0.02717 0.63311 0.0
H182 H 0.13918 0.02871 0.60369 0.0
H183 H 0.02668 0.06875 0.63884 0.0
H184 H 0.05622 0.09408 0.61821 0.0
H185 H 0.08798 0.07862 0.64282 0.0
H186 H 0.16082 0.149 0.58234 0.0
C187 C 0.11117 0.09899 0.58388 0.0
C188 C 0.5538 0.37274 0.95521 0.0
C189 C 0.58332 0.34676 0.94291 0.0
C190 C 0.58264 0.35077 0.92 0.0
C191 C 0.53072 0.41044 0.92233 0.0
C192 C 0.52767 0.40438 0.94453 0.0
C193 C 0.49547 0.43617 0.95473 0.0
H194 H 0.39884 0.63113 0.94746 0.0
C195 C 0.5057 0.44948 0.91663 0.0
C196 C 0.48528 0.46536 0.93557 0.0
H197 H 0.38445 0.54369 -2e-05 0.0
H198 H 0.42705 0.49055 0.97953 0.0
H199 H 0.50463 0.60672 0.93265 0.0
H200 H 0.36639 0.56651 0.91271 0.0
H201 H 0.39898 0.5635 0.88908 0.0
H202 H 0.39101 0.61382 0.90255 0.0
H203 H 0.46265 0.63959 0.91858 0.0
H204 H 0.50088 0.60521 0.90387 0.0
C205 C 0.52174 0.45845 0.97411 0.0
C206 C 0.45124 0.4124 0.96123 0.0
C207 C 0.52007 0.50759 0.84047 0.0
C208 C 0.50644 0.54577 0.83082 0.0
C209 C 0.48408 0.57651 0.84359 0.0
C210 C 0.47524 0.56917 0.86557 0.0
C211 C 0.4888 0.53065 0.8749 0.0
C212 C 0.51105 0.5008 0.86239 0.0
C213 C 0.52404 0.46216 0.87509 0.0
C214 C 0.50474 0.47329 0.8972 0.0
C215 C 0.48411 0.51327 0.89695 0.0
C216 C 0.57813 0.45809 0.87592 0.0
C217 C 0.49801 0.42412 0.86429 0.0
C218 C 0.40584 0.60076 0.95474 0.0
C219 C 0.3904 0.59183 0.97559 0.0
C220 C 0.39749 0.55137 0.98414 0.0
C221 C 0.422 0.52072 0.97232 0.0
C222 C 0.43852 0.53053 0.95167 0.0
C223 C 0.42874 0.56957 0.94294 0.0
C224 C 0.44252 0.57274 0.91965 0.0
C225 C 0.46359 0.52961 0.91599 0.0
C226 C 0.46263 0.5053 0.93499 0.0
C227 C 0.47942 0.60804 0.91842 0.0
C228 C 0.39771 0.57979 0.90513 0.0
H229 H 0.55906 0.38463 0.89233 0.0
H230 H 0.55284 0.36984 0.97278 0.0
H231 H 0.42041 0.43305 0.96228 0.0
H232 H 0.45739 0.39601 0.97697 0.0
H233 H 0.4411 0.38812 0.94867 0.0
H234 H 0.5568 0.46883 0.9692 0.0
H235 H 0.52658 0.43694 0.98816 0.0
H236 H 0.50375 0.48684 0.97997 0.0
H237 H 0.5368 0.48305 0.83107 0.0
H238 H 0.47366 0.60636 0.8366 0.0
H239 H 0.45827 0.59384 0.87444 0.0
H240 H 0.5954 0.48859 0.87275 0.0
H241 H 0.59019 0.43507 0.86351 0.0
H242 H 0.59234 0.44895 0.89221 0.0
H243 H 0.46188 0.43313 0.85894 0.0
H244 H 0.49379 0.39775 0.8756 0.0
H245 H 0.51613 0.41247 0.84964 0.0
H246 H 0.60353 0.33014 0.91004 0.0
C247 C 0.55671 0.38244 0.9097 0.0
C248 C 0.59464 0.6014 0.0307 0.0
C249 C 0.627 0.63042 0.03992 0.0
C250 C 0.62661 0.6394 0.06253 0.0
C251 C 0.56437 0.5895 0.06663 0.0
C252 C 0.56371 0.58128 0.04438 0.0
C253 C 0.5274 0.54897 0.03764 0.0
H254 H 0.36013 0.41382 0.0682 0.0
C255 C 0.5285 0.56345 0.07637 0.0
C256 C 0.50597 0.54008 0.05946 0.0
H257 H 0.40959 0.43143 0.00326 0.0
H258 H 0.46014 0.48808 0.01682 0.0
H259 H 0.45902 0.41658 0.09157 0.0
H260 H 0.35207 0.50981 0.08143 0.0
H261 H 0.37743 0.5212 0.10736 0.0
H262 H 0.34888 0.47117 0.10237 0.0
H263 H 0.40515 0.41661 0.10557 0.0
H264 H 0.45547 0.44484 0.11624 0.0
C265 C 0.55291 0.50995 0.02842 0.0
C266 C 0.49185 0.56921 0.02129 0.0
C267 C 0.51706 0.55928 0.159 0.0
C268 C 0.4876 0.53711 0.17265 0.0
C269 C 0.45014 0.51387 0.1631 0.0
C270 C 0.44362 0.51081 0.14042 0.0
C271 C 0.47489 0.53112 0.12701 0.0
C272 C 0.50992 0.55596 0.13628 0.0
C273 C 0.53837 0.57666 0.1193 0.0
C274 C 0.51582 0.55846 0.09838 0.0
C275 C 0.47917 0.53147 0.1031 0.0
C276 C 0.58967 0.56196 0.12265 0.0
C277 C 0.53127 0.62499 0.12124 0.0
C278 C 0.38202 0.42958 0.05683 0.0
C279 C 0.38177 0.4175 0.0347 0.0
C280 C 0.40965 0.43991 0.0204 0.0
C281 C 0.43912 0.47245 0.02832 0.0
C282 C 0.44062 0.48254 0.05078 0.0
C283 C 0.41172 0.46158 0.06449 0.0
C284 C 0.41823 0.47531 0.0879 0.0
C285 C 0.45616 0.50792 0.08613 0.0
C286 C 0.46935 0.51213 0.06439 0.0
C287 C 0.43505 0.43654 0.10121 0.0
C288 C 0.37183 0.49517 0.09535 0.0
H289 H 0.59727 0.62733 0.09292 0.0
H290 H 0.59398 0.59397 0.01337 0.0
H291 H 0.45662 0.55577 0.02247 0.0
H292 H 0.50322 0.56575 0.0042 0.0
H293 H 0.48746 0.6034 0.02483 0.0
H294 H 0.58447 0.5025 0.03878 0.0
H295 H 0.56442 0.51568 0.0116 0.0
H296 H 0.53154 0.48118 0.02823 0.0
H297 H 0.54598 0.57768 0.16578 0.0
H298 H 0.42599 0.49759 0.17321 0.0
H299 H 0.41501 0.49196 0.13423 0.0
H300 H 0.59124 0.52755 0.12571 0.0
H301 H 0.60684 0.57836 0.13692 0.0
H302 H 0.61086 0.56686 0.10824 0.0
H303 H 0.49801 0.63312 0.12914 0.0
H304 H 0.52836 0.64017 0.10508 0.0
H305 H 0.56001 0.64002 0.13116 0.0
H306 H 0.65033 0.6624 0.06994 0.0
C307 C 0.59552 0.61921 0.07587 0.0
H308 H 0.13267 0.0898 0.03401 0.0
H309 H 0.18475 0.15045 0.03666 0.0
H310 H 0.14872 0.18131 0.9697 0.0
H311 H 0.09836 0.11936 0.96666 0.0
H312 H 0.23649 0.19523 0.97658 0.0
H313 H 0.10053 0.23486 0.0144 0.0
H314 H 0.03797 0.22799 0.04068 0.0
H315 H 0.13974 0.22826 0.0939 0.0
H316 H 0.20299 0.23456 0.06791 0.0
H317 H 0.32757 0.40779 -0.00313 0.0
H318 H 0.27615 0.34819 0.98688 0.0
H319 H 0.32135 0.28488 0.0458 0.0
H320 H 0.37327 0.34317 0.05554 0.0
H321 H 0.22317 0.29324 0.03987 0.0
H322 H 0.35917 0.25083 -0.00039 0.0
H323 H 0.41866 0.26217 0.97223 0.0
H324 H 0.31116 0.27311 0.92193 0.0
H325 H 0.25096 0.2625 0.9491 0.0
C326 C 0.13595 0.10947 0.01986 0.0
C327 C 0.1112 0.10008 0.0002 0.0
C328 C 0.16555 0.14426 0.0214 0.0
C329 C 0.16986 0.17111 0.00353 0.0
C330 C 0.14588 0.16122 0.98373 0.0
C331 C 0.11701 0.12588 0.98204 0.0
C332 C 0.19893 0.20968 0.00568 0.0
C333 C 0.23303 0.21698 0.99025 0.0
C334 C 0.1945 0.23829 0.02346 0.0
C335 C 0.15652 0.23487 0.03918 0.0
C336 C 0.10959 0.23321 0.03169 0.0
C337 C 0.07401 0.22945 0.04654 0.0
C338 C 0.08488 0.22761 0.06894 0.0
C339 C 0.13137 0.22966 0.07654 0.0
C340 C 0.1671 0.23338 0.06176 0.0
C341 C 0.32702 0.38083 0.00747 0.0
C342 C 0.35377 0.38051 0.02719 0.0
C343 C 0.29759 0.34696 0.00179 0.0
C344 C 0.29472 0.31247 0.01576 0.0
C345 C 0.32269 0.31149 0.03497 0.0
C346 C 0.35215 0.34494 0.04054 0.0
C347 C 0.26126 0.27789 0.01118 0.0
C348 C 0.22618 0.27157 0.02612 0.0
C349 C 0.2643 0.25079 0.99279 0.0
C350 C 0.30055 0.25634 0.97642 0.0
C351 C 0.3482 0.25598 0.98274 0.0
C352 C 0.38205 0.26222 0.96726 0.0
C353 C 0.3687 0.26849 0.94537 0.0
C354 C 0.32145 0.26833 0.9389 0.0
C355 C 0.28746 0.26218 0.95433 0.0
H356 H 0.39495 0.27337 0.93341 0.0
H357 H 0.05729 0.22468 0.08041 0.0
H358 H 0.1377 0.9122 0.03489 0.0
H359 H 0.19557 0.85552 0.037 0.0
H360 H 0.18029 0.83585 0.96722 0.0
H361 H 0.12366 0.89317 0.9649 0.0
H362 H 0.19012 0.77494 0.02847 0.0
H363 H 0.27899 0.80311 0.94603 0.0
H364 H 0.2988 0.86261 0.92271 0.0
H365 H 0.30021 0.94607 0.97852 0.0
H366 H 0.28105 0.88699 0.00222 0.0
H367 H 0.29848 0.59297 0.98467 0.0
H368 H 0.25308 0.65464 -0.00431 0.0
H369 H 0.38003 0.72693 0.00346 0.0
H370 H 0.425 0.66559 0.9916 0.0
H371 H 0.32284 0.76709 0.97887 0.0
H372 H 0.31012 0.70274 0.04766 0.0
H373 H 0.29516 0.64614 0.07358 0.0
H374 H 0.15201 0.64055 0.05061 0.0
H375 H 0.16625 0.69669 0.02431 0.0
C376 C 0.14703 0.89606 0.01997 0.0
C377 C 0.12632 0.90736 -0.0003 0.0
C378 C 0.17995 0.86354 0.02122 0.0
C379 C 0.1927 0.84168 0.00226 0.0
C380 C 0.17182 0.85281 0.98203 0.0
C381 C 0.13931 0.88556 0.98073 0.0
C382 C 0.22709 0.80666 0.00353 0.0
C383 C 0.21934 0.77328 0.01773 0.0
C384 C 0.26596 0.80499 0.98997 0.0
C385 C 0.27824 0.84063 0.97587 0.0
C386 C 0.28379 0.83411 0.95335 0.0
C387 C 0.29484 0.86778 0.94006 0.0
C388 C 0.30064 0.90811 0.94912 0.0
C389 C 0.29556 0.91484 0.97151 0.0
C390 C 0.28455 0.88128 0.98488 0.0
C391 C 0.3166 0.62171 0.98945 0.0
C392 C 0.36499 0.6248 0.98744 0.0
C393 C 0.29075 0.65695 -0.00425 0.0
C394 C 0.31309 0.69555 0.00047 0.0
C395 C 0.36196 0.69763 -0.00017 0.0
C396 C 0.38766 0.66261 0.99323 0.0
C397 C 0.28527 0.73466 0.00341 0.0
C398 C 0.29411 0.76885 0.98989 0.0
C399 C 0.24823 0.73746 0.01803 0.0
C400 C 0.23937 0.70378 0.03389 0.0
C401 C 0.27552 0.68925 0.04802 0.0
C402 C 0.26716 0.65727 0.0628 0.0
C403 C 0.22269 0.63972 0.06372 0.0
C404 C 0.18645 0.65417 0.04988 0.0
C405 C 0.19464 0.68612 0.03505 0.0
H406 H 0.21628 0.61496 0.07517 0.0
H407 H 0.30914 0.93414 0.93879 0.0
H408 H 0.9382 0.87324 0.0222 0.0
H409 H 0.88208 0.81549 0.0196 0.0
H410 H 0.84016 0.85274 0.95433 0.0
H411 H 0.8973 0.91026 0.95657 0.0
H412 H 0.7652 0.83986 0.98692 0.0
H413 H 0.89271 0.77033 0.95378 0.0
H414 H 0.97502 0.74949 0.95033 0.0
H415 H 0.97218 0.68531 0.01147 0.0
H416 H 0.89005 0.70633 0.01548 0.0
H417 H 0.6127 0.66648 -0.00031 0.0
H418 H 0.66798 0.71002 0.98035 0.0
H419 H 0.77315 0.68704 0.03107 0.0
H420 H 0.71914 0.64242 0.04975 0.0
H421 H 0.81295 0.69025 0.99356 0.0
H422 H 0.69755 0.77468 0.0315 0.0
H423 H 0.61767 0.7991 0.03856 0.0
H424 H 0.59991 0.83784 0.97186 0.0
H425 H 0.67956 0.81315 0.96437 0.0
C426 C 0.91723 0.86904 0.00725 0.0
C427 C 0.92208 0.89617 0.98959 0.0
C428 C 0.88538 0.83599 0.00575 0.0
C429 C 0.85736 0.82987 0.98673 0.0
C430 C 0.86177 0.85698 0.96908 0.0
C431 C 0.89439 0.88965 0.97039 0.0
C432 C 0.82234 0.79591 0.98601 0.0
C433 C 0.77528 0.80696 0.98772 0.0
C434 C 0.83593 0.75326 0.98739 0.0
C435 C 0.88522 0.7401 0.98497 0.0
C436 C 0.90972 0.75203 0.96657 0.0
C437 C 0.95634 0.74014 0.9645 0.0
C438 C 0.97883 0.71613 0.98068 0.0
C439 C 0.9547 0.70389 -0.00105 0.0
C440 C 0.90808 0.71573 0.00111 0.0
C441 C 0.648 0.66995 0.00636 0.0
C442 C 0.6614 0.65177 0.02643 0.0
C443 C 0.67942 0.69503 -0.0046 0.0
C444 C 0.72444 0.70246 0.00448 0.0
C445 C 0.7386 0.68197 0.02375 0.0
C446 C 0.70751 0.65682 0.03457 0.0
C447 C 0.75587 0.73429 -0.00456 0.0
C448 C 0.80241 0.7229 0.99194 0.0
C449 C 0.74194 0.7768 0.9928 0.0
C450 C 0.69415 0.79155 -0.0027 0.0
C451 C 0.67644 0.78812 0.01831 0.0
C452 C 0.63126 0.80204 0.02239 0.0
C453 C 0.60366 0.81986 0.00565 0.0
C454 C 0.62126 0.82391 0.9848 0.0
C455 C 0.6664 0.80995 0.98062 0.0
H456 H 0.5687 0.83064 0.00884 0.0
H457 H 0.01493 0.70697 0.97905 0.0
H458 H 0.87722 0.06644 0.02227 0.0
H459 H 0.81196 0.11661 0.02043 0.0
H460 H 0.85771 0.15998 0.95838 0.0
H461 H 0.92222 0.10932 0.95979 0.0
H462 H 0.83708 0.22503 0.99326 0.0
H463 H 0.77402 0.09986 0.95499 0.0
H464 H 0.75321 0.02462 0.95326 0.0
H465 H 0.66448 0.04193 0.00768 0.0
H466 H 0.68537 0.11722 0.00992 0.0
H467 H 0.67362 0.33534 0.93247 0.0
H468 H 0.73021 0.28641 0.94797 0.0
H469 H 0.62994 0.24538 0.99395 0.0
H470 H 0.57156 0.29362 0.9776 0.0
H471 H 0.67402 0.17937 0.97685 0.0
H472 H 0.72343 0.30543 0.0115 0.0
H473 H 0.74348 0.38059 0.01533 0.0
H474 H 0.85699 0.36293 0.97228 0.0
H475 H 0.83722 0.28777 0.9679 0.0
C476 C 0.87331 0.08668 0.00824 0.0
C477 C 0.90473 0.08399 0.99114 0.0
C478 C 0.83607 0.1152 0.00722 0.0
C479 C 0.83026 0.14188 0.9893 0.0
C480 C 0.86183 0.1396 0.97236 0.0
C481 C 0.89847 0.11057 0.97314 0.0
C482 C 0.79118 0.17223 0.98794 0.0
C483 C 0.80139 0.21523 0.98963 0.0
C484 C 0.74447 0.15911 0.98429 0.0
C485 C 0.73173 0.11399 0.98281 0.0
C486 C 0.75045 0.08752 0.96672 0.0
C487 C 0.73856 0.0449 0.96562 0.0
C488 C 0.70767 0.02847 0.98041 0.0
C489 C 0.68848 0.05468 -0.00372 0.0
C490 C 0.70032 0.09732 -0.00254 0.0
C491 C 0.66322 0.31572 0.94575 0.0
C492 C 0.6178 0.31798 0.95359 0.0
C493 C 0.69598 0.28814 0.95486 0.0
C494 C 0.68468 0.26268 0.97239 0.0
C495 C 0.6395 0.26497 0.98051 0.0
C496 C 0.60631 0.29265 0.97125 0.0
C497 C 0.72008 0.23259 0.98119 0.0
C498 C 0.70937 0.1895 0.98099 0.0
C499 C 0.7663 0.24567 0.98666 0.0
C500 C 0.77868 0.29089 0.98931 0.0
C501 C 0.7525 0.31759 0.00273 0.0
C502 C 0.76384 0.36021 0.00502 0.0
C503 C 0.80146 0.37653 0.99405 0.0
C504 C 0.82787 0.35023 0.98079 0.0
C505 C 0.81666 0.30758 0.97843 0.0
H506 H 0.81017 0.40954 -0.00417 0.0
H507 H 0.6985 0.99547 0.97953 0.0
H508 H 0.61778 0.61294 0.46283 0.0
H509 H 0.67013 0.673 0.45997 0.0
H510 H 0.69143 0.67631 0.53007 0.0
H511 H 0.63905 0.61623 0.53314 0.0
H512 H 0.6619 0.75311 0.47745 0.0
H513 H 0.80468 0.70333 0.54146 0.0
H514 H 0.84006 0.63805 0.55585 0.0
H515 H 0.80502 0.57352 0.49539 0.0
H516 H 0.77006 0.63855 0.48052 0.0
H517 H 0.79315 0.91392 0.53271 0.0
H518 H 0.74423 0.85498 0.51969 0.0
H519 H 0.85433 0.81184 0.47865 0.0
H520 H 0.90302 0.87155 0.49137 0.0
H521 H 0.82403 0.75194 0.50867 0.0
H522 H 0.75992 0.84103 0.45372 0.0
H523 H 0.72504 0.90573 0.43847 0.0
H524 H 0.60551 0.89051 0.47781 0.0
H525 H 0.64 0.82605 0.49356 0.0
C526 C 0.63377 0.62629 0.47766 0.0
C527 C 0.62432 0.6098 0.49824 0.0
C528 C 0.66352 0.66069 0.47596 0.0
C529 C 0.6848 0.67887 0.49477 0.0
C530 C 0.67568 0.66239 0.51533 0.0
C531 C 0.64567 0.62816 0.51706 0.0
C532 C 0.7159 0.71563 0.49303 0.0
C533 C 0.69745 0.75286 0.48413 0.0
C534 C 0.76257 0.71486 0.50131 0.0
C535 C 0.78445 0.67579 0.50994 0.0
C536 C 0.80478 0.67529 0.53119 0.0
C537 C 0.82471 0.63831 0.53944 0.0
C538 C 0.82468 0.60164 0.52656 0.0
C539 C 0.80488 0.60191 0.50537 0.0
C540 C 0.78496 0.63882 0.49703 0.0
C541 C 0.8061 0.89264 0.52033 0.0
C542 C 0.85142 0.89714 0.51285 0.0
C543 C 0.77831 0.85903 0.51294 0.0
C544 C 0.79577 0.82914 0.49824 0.0
C545 C 0.84028 0.83474 0.48994 0.0
C546 C 0.86783 0.86885 0.49706 0.0
C547 C 0.76951 0.78979 0.49375 0.0
C548 C 0.78877 0.75205 0.50162 0.0
C549 C 0.72376 0.79006 0.48437 0.0
C550 C 0.70273 0.8288 0.47493 0.0
C551 C 0.72637 0.85165 0.45926 0.0
C552 C 0.70663 0.88826 0.4505 0.0
C553 C 0.66312 0.90226 0.45719 0.0
C554 C 0.63922 0.87963 0.47264 0.0
C555 C 0.65883 0.84301 0.48147 0.0
H556 H 0.64788 0.93061 0.45038 0.0
H557 H 0.84006 0.57303 0.53299 0.0
H558 H 0.63362 0.41144 0.54059 0.0
H559 H 0.69043 0.3537 0.54198 0.0
H560 H 0.70018 0.35753 0.47191 0.0
H561 H 0.64365 0.41509 0.47035 0.0
H562 H 0.68279 0.27555 0.523 0.0
H563 H 0.81061 0.33447 0.45846 0.0
H564 H 0.84216 0.40185 0.44615 0.0
H565 H 0.81822 0.45807 0.50895 0.0
H566 H 0.78722 0.39088 0.52176 0.0
H567 H 0.79345 0.11681 0.46287 0.0
H568 H 0.75141 0.17759 0.47718 0.0
H569 H 0.87617 0.21854 0.51275 0.0
H570 H 0.91867 0.15758 0.49829 0.0
H571 H 0.83625 0.28137 0.48828 0.0
H572 H 0.78756 0.18477 0.54096 0.0
H573 H 0.75723 0.11801 0.55463 0.0
H574 H 0.62707 0.13848 0.51943 0.0
H575 H 0.65685 0.20506 0.50526 0.0
C576 C 0.6482 0.40024 0.5255 0.0
C577 C 0.6341 0.41782 0.50534 0.0
C578 C 0.68053 0.36719 0.52633 0.0
C579 C 0.69975 0.35158 0.50708 0.0
C580 C 0.68624 0.36949 0.487 0.0
C581 C 0.65375 0.40227 0.48613 0.0
C582 C 0.7323 0.31525 0.50763 0.0
C583 C 0.71654 0.27685 0.51561 0.0
C584 C 0.77679 0.31728 0.49846 0.0
C585 C 0.7963 0.35764 0.49102 0.0
C586 C 0.81236 0.36111 0.4697 0.0
C587 C 0.83009 0.3993 0.46262 0.0
C588 C 0.8321 0.43424 0.47675 0.0
C589 C 0.81653 0.43102 0.49801 0.0
C590 C 0.79882 0.3929 0.50517 0.0
C591 C 0.81177 0.13852 0.47394 0.0
C592 C 0.85934 0.13267 0.47939 0.0
C593 C 0.78767 0.17306 0.48222 0.0
C594 C 0.81063 0.20248 0.4961 0.0
C595 C 0.85783 0.19612 0.5021 0.0
C596 C 0.88194 0.16123 0.49396 0.0
C597 C 0.78584 0.24131 0.50279 0.0
C598 C 0.80295 0.28019 0.49609 0.0
C599 C 0.74286 0.23981 0.51338 0.0
C600 C 0.72457 0.19987 0.52196 0.0
C601 C 0.75258 0.17492 0.53601 0.0
C602 C 0.73546 0.13711 0.54386 0.0
C603 C 0.69027 0.12399 0.53788 0.0
C604 C 0.66207 0.14869 0.52406 0.0
C605 C 0.67903 0.18651 0.51614 0.0
H606 H 0.67709 0.0947 0.54398 0.0
H607 H 0.84577 0.46379 0.47122 0.0
H608 H 0.40867 0.41113 0.46999 0.0
H609 H 0.34856 0.35696 0.47278 0.0
H610 H 0.37612 0.35205 0.54242 0.0
H611 H 0.43593 0.40602 0.53984 0.0
H612 H 0.36834 0.2729 0.52301 0.0
H613 H 0.28701 0.40714 0.52246 0.0
H614 H 0.26294 0.47498 0.50662 0.0
H615 H 0.20018 0.41056 0.45089 0.0
H616 H 0.225 0.3423 0.46616 0.0
H617 H 0.13254 0.22127 0.56276 0.0
H618 H 0.18594 0.2731 0.54826 0.0
H619 H 0.23161 0.18145 0.50092 0.0
H620 H 0.1774 0.12966 0.51517 0.0
H621 H 0.20226 0.30595 0.50477 0.0
H622 H 0.35405 0.18958 0.50638 0.0
H623 H 0.37694 0.12227 0.5234 0.0
H624 H 0.29677 0.15349 0.57929 0.0
H625 H 0.2741 0.22117 0.56276 0.0
C626 C 0.40206 0.39834 0.48587 0.0
C627 C 0.42694 0.41294 0.50471 0.0
C628 C 0.36769 0.36749 0.48743 0.0
C629 C 0.35788 0.35067 0.50782 0.0
C630 C 0.3833 0.36459 0.52654 0.0
C631 C 0.41731 0.39558 0.52503 0.0
C632 C 0.32036 0.3193 0.50999 0.0
C633 C 0.33212 0.27999 0.51878 0.0
C634 C 0.27308 0.32857 0.50449 0.0
C635 C 0.25836 0.36965 0.49533 0.0
C636 C 0.26854 0.40745 0.50672 0.0
C637 C 0.25466 0.44599 0.49786 0.0
C638 C 0.23001 0.44709 0.47775 0.0
C639 C 0.21932 0.40966 0.46644 0.0
C640 C 0.23334 0.37105 0.47518 0.0
C641 C 0.15324 0.21261 0.54894 0.0
C642 C 0.15121 0.17165 0.54008 0.0
C643 C 0.18346 0.24219 0.54061 0.0
C644 C 0.21271 0.23093 0.52362 0.0
C645 C 0.20916 0.19062 0.51404 0.0
C646 C 0.17828 0.16119 0.52213 0.0
C647 C 0.25039 0.25985 0.51782 0.0
C648 C 0.23865 0.29862 0.50846 0.0
C649 C 0.29769 0.25025 0.52286 0.0
C650 C 0.31194 0.21011 0.5332 0.0
C651 C 0.34147 0.18208 0.52233 0.0
C652 C 0.3544 0.14389 0.53189 0.0
C653 C 0.33817 0.13354 0.55237 0.0
C654 C 0.30917 0.16145 0.56339 0.0
C655 C 0.29624 0.19971 0.55392 0.0
H656 H 0.34816 0.10393 0.55972 0.0
H657 H 0.21902 0.47688 0.47095 0.0
H658 H 0.39857 0.59583 0.53138 0.0
H659 H 0.33842 0.65092 0.52875 0.0
H660 H 0.37273 0.67224 0.46185 0.0
H661 H 0.43196 0.61686 0.46414 0.0
H662 H 0.36659 0.74732 0.49012 0.0
H663 H 0.28331 0.61872 0.46915 0.0
H664 H 0.25419 0.54723 0.47525 0.0
H665 H 0.18143 0.59173 0.53118 0.0
H666 H 0.21107 0.66348 0.52567 0.0
H667 H 0.19212 0.84939 0.42993 0.0
H668 H 0.25109 0.80343 0.44636 0.0
H669 H 0.16642 0.78783 0.50249 0.0
H670 H 0.10593 0.83294 0.48558 0.0
H671 H 0.19758 0.71401 0.48876 0.0
H672 H 0.2686 0.84398 0.50694 0.0
H673 H 0.29633 0.91636 0.50179 0.0
H674 H 0.39141 0.87179 0.45402 0.0
H675 H 0.36377 0.7992 0.45861 0.0
C676 C 0.39319 0.61226 0.51611 0.0
C677 C 0.41986 0.60202 0.49794 0.0
C678 C 0.35889 0.64363 0.51466 0.0
C679 C 0.35138 0.66559 0.49513 0.0
C680 C 0.37823 0.65567 0.47707 0.0
C681 C 0.41183 0.62389 0.47838 0.0
C682 C 0.31528 0.69876 0.49318 0.0
C683 C 0.32959 0.7402 0.48978 0.0
C684 C 0.26717 0.68953 0.49371 0.0
C685 C 0.24997 0.64632 0.49719 0.0
C686 C 0.26165 0.61316 0.48293 0.0
C687 C 0.2449 0.5726 0.48624 0.0
C688 C 0.21598 0.56489 0.50361 0.0
C689 C 0.20389 0.59773 0.51775 0.0
C690 C 0.22069 0.63834 0.51456 0.0
C691 C 0.18593 0.8362 0.44577 0.0
C692 C 0.14414 0.84446 0.45636 0.0
C693 C 0.22001 0.81035 0.4553 0.0
C694 C 0.21353 0.79259 0.47582 0.0
C695 C 0.17226 0.8014 0.48671 0.0
C696 C 0.13789 0.82734 0.4771 0.0
C697 C 0.24877 0.76262 0.48485 0.0
C698 C 0.23445 0.72166 0.48963 0.0
C699 C 0.29694 0.77245 0.4859 0.0
C700 C 0.3139 0.81609 0.48306 0.0
C701 C 0.2952 0.84962 0.49522 0.0
C702 C 0.31094 0.8907 0.49241 0.0
C703 C 0.34557 0.89867 0.47757 0.0
C704 C 0.36459 0.86556 0.46552 0.0
C705 C 0.34895 0.82442 0.46825 0.0
H706 H 0.35771 0.9305 0.47542 0.0
H707 H 0.20275 0.53354 0.50608 0.0
H708 H 0.95624 0.93629 0.11425 0.0
H709 H 0.945 0.9359 0.15364 0.0
H710 H 0.01873 0.05383 0.16076 0.0
H711 H 0.0313 0.05354 0.1214 0.0
H712 H 0.0447 0.0047 0.1924 0.0
H713 H 0.89728 0.04769 0.16135 0.0
H714 H 0.82726 0.04346 0.13682 0.0
H715 H 0.7898 0.9262 0.1653 0.0
H716 H 0.86 0.92943 0.18979 0.0
H717 H 0.95967 0.06077 0.29683 0.0
H718 H 0.96846 0.06039 0.25716 0.0
H719 H 0.93246 0.92873 0.25398 0.0
H720 H 0.92433 0.92877 0.2938 0.0
H721 H 0.88648 0.98519 0.22087 0.0
H722 H 0.03733 0.9451 0.25214 0.0
H723 H 0.10606 0.95422 0.27712 0.0
H724 H 0.13487 0.07327 0.24828 0.0
H725 H 0.06578 0.06515 0.22336 0.0
C726 C 0.96999 0.96209 0.12427 0.0
C727 C 0.99439 0.99507 0.11488 0.0
C728 C 0.96342 0.96195 0.14672 0.0
C729 C 0.98023 0.99526 0.16009 0.0
C730 C 0.00537 0.02786 0.15075 0.0
C731 C 0.01255 0.02768 0.12832 0.0
C732 C 0.97172 0.996 0.18381 0.0
C733 C 0.00999 0.00098 0.19857 0.0
C734 C 0.92649 0.9906 0.19192 0.0
C735 C 0.88415 0.9886 0.17726 0.0
C736 C 0.8743 0.02084 0.16227 0.0
C737 C 0.83455 0.01865 0.14839 0.0
C738 C 0.80417 0.98453 0.14946 0.0
C739 C 0.81341 0.95258 0.16446 0.0
C740 C 0.85315 0.95459 0.17836 0.0
C741 C 0.95308 0.03193 0.2876 0.0
C742 C 0.94129 0.9948 0.29823 0.0
C743 C 0.95829 0.03171 0.26504 0.0
C744 C 0.95124 0.9945 0.25282 0.0
C745 C 0.93798 0.95769 0.26326 0.0
C746 C 0.93353 0.95771 0.28589 0.0
C747 C 0.95937 0.99378 0.22919 0.0
C748 C 0.92106 0.98887 0.21455 0.0
C749 C 0.00437 -5e-05 0.22118 0.0
C750 C 0.04609 0.00472 0.23605 0.0
C751 C 0.05805 0.97341 0.25127 0.0
C752 C 0.09712 0.97836 0.26539 0.0
C753 C 0.12474 0.01436 0.26433 0.0
C754 C 0.1134 0.04543 0.2491 0.0
C755 C 0.0743 0.04066 0.23497 0.0
H756 H 0.15499 0.01813 0.27527 0.0
H757 H 0.7734 0.98289 0.1387 0.0
H758 H 0.10835 0.95508 0.87826 0.0
H759 H 0.11638 0.9447 0.83896 0.0
H760 H 0.98051 -0.00037 0.82686 0.0
H761 H 0.97309 0.01279 0.86594 0.0
H762 H 0.00581 0.91125 0.80678 0.0
H763 H 0.0524 0.05914 0.81544 0.0
H764 H 0.10125 0.11569 0.83202 0.0
H765 H 0.2246 0.05308 0.81042 0.0
H766 H 0.17641 0.99581 0.79399 0.0
H767 H 0.9668 0.95312 0.69633 0.0
H768 H 0.97489 0.95188 0.73604 0.0
H769 H 0.12484 0.94694 0.73202 0.0
H770 H 0.11673 0.9495 0.692 0.0
H771 H 0.10324 0.0017 0.76145 0.0
H772 H 0.06041 0.86 0.74803 0.0
H773 H 0.01599 0.8001 0.73203 0.0
H774 H 0.89268 0.84357 0.76317 0.0
H775 H 0.93616 0.90411 0.77911 0.0
C776 C 0.0805 0.96585 0.86729 0.0
C777 C 0.04 0.98484 0.87538 0.0
C778 C 0.08506 0.95946 0.84487 0.0
C779 C 0.04895 0.9713 0.83023 0.0
C780 C 0.00854 0.9901 0.83808 0.0
C781 C 0.0043 0.9973 0.86043 0.0
C782 C 0.0529 0.96374 0.80661 0.0
C783 C 0.02681 0.93104 0.79674 0.0
C784 C 0.08203 0.98851 0.79394 0.0
C785 C 0.11088 0.02295 0.80377 0.0
C786 C 0.08996 0.0572 0.81445 0.0
C787 C 0.11752 0.08944 0.82376 0.0
C788 C 0.16602 0.0879 0.82235 0.0
C789 C 0.18704 0.05418 0.81155 0.0
C790 C 0.15963 0.02184 0.80223 0.0
C791 C 0.00146 0.95105 0.70391 0.0
C792 C 0.04115 0.95106 0.69117 0.0
C793 C 0.00608 0.95021 0.7266 0.0
C794 C 0.05046 0.94847 0.73702 0.0
C795 C 0.09025 0.94807 0.72431 0.0
C796 C 0.08564 0.94952 0.70153 0.0
C797 C 0.05483 0.94979 0.7612 0.0
C798 C 0.08267 0.98125 0.77134 0.0
C799 C 0.02795 0.92323 0.77418 0.0
C800 C 0.00154 0.88678 0.76467 0.0
C801 C 0.02374 0.85697 0.75135 0.0
C802 C 0.99873 0.82287 0.74231 0.0
C803 C 0.95153 0.81807 0.74655 0.0
C804 C 0.92925 0.84733 0.75989 0.0
C805 C 0.95409 0.88152 0.76897 0.0
H806 H 0.93223 0.79164 0.73953 0.0
H807 H 0.1873 0.1129 0.82956 0.0
H808 H 0.47024 0.5726 0.62274 0.0
H809 H 0.4707 0.58041 0.66244 0.0
H810 H 0.59678 0.50623 0.6678 0.0
H811 H 0.59525 0.49644 0.62815 0.0
H812 H 0.5373 0.48151 0.69636 0.0
H813 H 0.59764 0.61435 0.67549 0.0
H814 H 0.59937 0.68078 0.65524 0.0
H815 H 0.47069 0.7194 0.68324 0.0
H816 H 0.46783 0.65291 0.70343 0.0
H817 H 0.58383 0.52535 0.8081 0.0
H818 H 0.5927 0.52836 0.76861 0.0
H819 H 0.45638 0.58508 0.76099 0.0
H820 H 0.44672 0.58142 0.80045 0.0
H821 H 0.52459 0.62026 0.734 0.0
H822 H 0.46382 0.4847 0.75334 0.0
H823 H 0.46433 0.41874 0.77405 0.0
H824 H 0.59761 0.38593 0.74884 0.0
H825 H 0.59822 0.45209 0.72824 0.0
C826 C 0.49785 0.55761 0.63236 0.0
C827 C 0.53269 0.53383 0.62225 0.0
C828 C 0.49842 0.56261 0.65504 0.0
C829 C 0.53417 0.54443 0.66806 0.0
C830 C 0.56902 0.52073 0.65804 0.0
C831 C 0.5683 0.51546 0.63537 0.0
C832 C 0.53417 0.54872 0.69218 0.0
C833 C 0.53533 0.51192 0.70457 0.0
C834 C 0.53066 0.58836 0.70288 0.0
C835 C 0.53232 0.62846 0.69082 0.0
C836 C 0.56952 0.63686 0.6772 0.0
C837 C 0.57074 0.67455 0.66575 0.0
C838 C 0.53511 0.70425 0.66791 0.0
C839 C 0.49824 0.69635 0.68156 0.0
C840 C 0.49683 0.65868 0.69303 0.0
C841 C 0.55578 0.5386 0.79804 0.0
C842 C 0.51428 0.5526 0.80735 0.0
C843 C 0.56105 0.54052 0.77553 0.0
C844 C 0.52495 0.55648 0.76196 0.0
C845 C 0.4846 0.5727 0.77126 0.0
C846 C 0.47921 0.57065 0.7938 0.0
C847 C 0.52778 0.55314 0.73797 0.0
C848 C 0.52694 0.59 0.72567 0.0
C849 C 0.53192 0.51361 0.72731 0.0
C850 C 0.53128 0.47354 0.73943 0.0
C851 C 0.49339 0.46357 0.75234 0.0
C852 C 0.49346 0.42614 0.76405 0.0
C853 C 0.53104 0.39822 0.76281 0.0
C854 C 0.56856 0.40762 0.74981 0.0
C855 C 0.56871 0.44507 0.73811 0.0
H856 H 0.53103 0.36925 0.77189 0.0
H857 H 0.53611 0.73341 0.65904 0.0
H858 H 0.48829 0.45424 0.37402 0.0
H859 H 0.48898 0.46299 0.33424 0.0
H860 H 0.56337 0.58002 0.3435 0.0
H861 H 0.5636 0.57097 0.38326 0.0
H862 H 0.47948 0.58018 0.31341 0.0
H863 H 0.62506 0.50863 0.32763 0.0
H864 H 0.67542 0.45276 0.34318 0.0
H865 H 0.59807 0.3595 0.30572 0.0
H866 H 0.54671 0.41479 0.2902 0.0
H867 H 0.51601 0.60241 0.19986 0.0
H868 H 0.53014 0.60058 0.23949 0.0
H869 H 0.49216 0.46928 0.23926 0.0
H870 H 0.48055 0.47025 0.1997 0.0
H871 H 0.56465 0.48134 0.26553 0.0
H872 H 0.4153 0.54879 0.25384 0.0
H873 H 0.36081 0.60213 0.23885 0.0
H874 H 0.43999 0.70003 0.27183 0.0
H875 H 0.49534 0.64726 0.28679 0.0
C876 C 0.50477 0.48174 0.3675 0.0
C877 C 0.52605 0.51187 0.38153 0.0
C878 C 0.50527 0.48665 0.34489 0.0
C879 C 0.52639 0.52206 0.3361 0.0
C880 C 0.54704 0.55249 0.35009 0.0
C881 C 0.54733 0.5472 0.37267 0.0
C882 C 0.52644 0.52731 0.31224 0.0
C883 C 0.49869 0.55912 0.30288 0.0
C884 C 0.55081 0.49915 0.2987 0.0
C885 C 0.58174 0.46583 0.30792 0.0
C886 C 0.61849 0.47617 0.32287 0.0
C887 C 0.64728 0.44462 0.33164 0.0
C888 C 0.63988 0.40259 0.32548 0.0
C889 C 0.60372 0.39206 0.31049 0.0
C890 C 0.57479 0.4235 0.30169 0.0
C891 C 0.51123 0.57305 0.20823 0.0
C892 C 0.49658 0.5366 0.19665 0.0
C893 C 0.51891 0.57214 0.23089 0.0
C894 C 0.51151 0.53494 0.24236 0.0
C895 C 0.4979 0.49838 0.23077 0.0
C896 C 0.49066 0.49915 0.20817 0.0
C897 C 0.51695 0.53389 0.26649 0.0
C898 C 0.54577 0.50281 0.27597 0.0
C899 C 0.49302 0.5624 0.28013 0.0
C900 C 0.45974 0.59414 0.27122 0.0
C901 C 0.42129 0.58173 0.25775 0.0
C902 C 0.39022 0.61184 0.24928 0.0
C903 C 0.39702 0.65446 0.25433 0.0
C904 C 0.43483 0.66702 0.2679 0.0
C905 C 0.46604 0.63703 0.27639 0.0
H906 H 0.37292 0.67773 0.24776 0.0
H907 H 0.66222 0.37821 0.33229 0.0
loop_
_geom_bond_atom_site_label_1
_geom_bond_atom_site_label_2
_geom_bond_distance
_geom_bond_site_symmetry_2
_ccdc_geom_bond_type
C0 O16 1.251 . S
C0 O18 1.254 1_554 S
N1 C2 1.333 1_445 S
N1 C6 1.307 . S
N1 Zn7 2.020 . S
C2 N1 1.333 1_665 S
C2 C3 1.379 . S
C2 H20 0.952 . S
C3 C2 1.379 . S
C3 C4 1.390 1_665 S
C3 H30 0.949 . S
C4 C3 1.390 1_445 S
C4 C5 1.357 . S
C5 C4 1.357 . S
C5 C6 1.370 . S
C5 H31 0.950 . S
C6 N1 1.307 . S
C6 C5 1.370 . S
C6 H24 0.948 . S
Zn7 N1 2.020 . S
Zn7 O16 2.039 1_445 S
Zn7 O22 2.034 1_455 S
Zn7 O26 2.025 . S
Zn7 O28 2.024 1_545 S
C8 O27 1.246 1_554 S
C8 O28 1.249 . S
N9 C10 1.307 1_445 S
N9 C11 1.333 . S
N9 Zn15 2.020 . S
C10 N9 1.307 1_665 S
C10 C14 1.370 . S
C10 H21 0.948 . S
C11 N9 1.333 . S
C11 C12 1.379 . S
C11 H19 0.952 . S
C12 C11 1.379 . S
C12 C13 1.390 . S
C12 H32 0.949 . S
C13 C12 1.390 . S
C13 C14 1.357 1_445 S
C14 C10 1.370 . S
C14 C13 1.357 1_665 S
C14 H33 0.950 . S
Zn15 N9 2.020 . S
Zn15 O18 2.025 1_445 S
Zn15 O23 2.024 1_455 S
Zn15 O25 2.039 . S
Zn15 O27 2.034 1_545 S
O16 C0 1.251 . S
O16 Zn7 2.039 1_665 S
C17 O22 1.246 . S
C17 O23 1.249 1_554 S
O18 C0 1.254 1_556 S
O18 Zn15 2.025 1_665 S
H19 C11 0.952 . S
H20 C2 0.952 . S
H21 C10 0.948 . S
O22 Zn7 2.034 1_655 S
O22 C17 1.246 . S
O23 Zn15 2.024 1_655 S
O23 C17 1.249 1_556 S
H24 C6 0.948 . S
O25 Zn15 2.039 . S
O25 C29 1.251 1_556 S
O26 Zn7 2.025 . S
O26 C29 1.254 . S
O27 C8 1.246 1_556 S
O27 Zn15 2.034 1_565 S
O28 Zn7 2.024 1_565 S
O28 C8 1.249 . S
C29 O25 1.251 1_554 S
C29 O26 1.254 . S
H30 C3 0.949 . S
H31 C5 0.950 . S
H32 C12 0.949 . S
H33 C14 0.950 . S
C34 O50 1.251 . S
C34 O52 1.254 . S
N35 C36 1.333 . S
N35 C40 1.307 . S
N35 Zn41 2.020 . S
C36 N35 1.333 . S
C36 C37 1.379 . S
C36 H54 0.952 . S
C37 C36 1.379 . S
C37 C38 1.390 . S
C37 H64 0.949 . S
C38 C37 1.390 . S
C38 C39 1.357 . S
C39 C38 1.357 . S
C39 C40 1.370 . S
C39 H65 0.950 . S
C40 N35 1.307 . S
C40 C39 1.370 . S
C40 H58 0.948 . S
Zn41 N35 2.020 . S
Zn41 O50 2.039 . S
Zn41 O56 2.034 . S
Zn41 O60 2.025 . S
Zn41 O62 2.024 . S
C42 O61 1.246 . S
C42 O62 1.249 . S
N43 C44 1.307 . S
N43 C45 1.333 . S
N43 Zn49 2.020 . S
C44 N43 1.307 . S
C44 C48 1.370 . S
C44 H55 0.948 . S
C45 N43 1.333 . S
C45 C46 1.379 . S
C45 H53 0.952 . S
C46 C45 1.379 . S
C46 C47 1.390 . S
C46 H66 0.949 . S
C47 C46 1.390 . S
C47 C48 1.357 . S
C48 C44 1.370 . S
C48 C47 1.357 . S
C48 H67 0.950 . S
Zn49 N43 2.020 . S
Zn49 O52 2.025 . S
Zn49 O57 2.024 . S
Zn49 O59 2.039 . S
Zn49 O61 2.034 . S
O50 C34 1.251 . S
O50 Zn41 2.039 . S
C51 O56 1.246 . S
C51 O57 1.249 . S
O52 C34 1.254 . S
O52 Zn49 2.025 . S
H53 C45 0.952 . S
H54 C36 0.952 . S
H55 C44 0.948 . S
O56 Zn41 2.034 . S
O56 C51 1.246 . S
O57 Zn49 2.024 . S
O57 C51 1.249 . S
H58 C40 0.948 . S
O59 Zn49 2.039 . S
O59 C63 1.251 . S
O60 Zn41 2.025 . S
O60 C63 1.254 . S
O61 C42 1.246 . S
O61 Zn49 2.034 . S
O62 Zn41 2.024 . S
O62 C42 1.249 . S
C63 O59 1.251 . S
C63 O60 1.254 . S
H64 C37 0.949 . S
H65 C39 0.950 . S
H66 C46 0.949 . S
H67 C48 0.950 . S
C68 C69 1.391 . S
C68 C72 1.391 . S
C68 H110 0.948 . S
C69 C68 1.391 . S
C69 C70 1.391 . S
C70 C69 1.391 . S
C70 H126 0.947 . S
C70 C127 1.392 . S
C71 C72 1.391 . S
C71 C75 1.397 . S
C71 C127 1.419 . S
C72 C68 1.391 . S
C72 C71 1.391 . S
C72 C73 1.399 . S
C73 C72 1.399 . S
C73 C76 1.396 . S
C73 C85 1.453 1_565 S
C73 C86 1.684 1_455 S
H74 C98 0.948 . S
C75 C71 1.397 . S
C75 C76 1.394 . S
C75 C94 1.723 . S
C76 C73 1.396 . S
C76 C75 1.394 . S
C76 C106 1.723 1_465 S
H77 C100 0.947 . S
H78 C101 0.948 . S
H79 C107 0.982 . S
H80 C108 0.979 . S
H81 C108 0.980 . S
H82 C108 0.983 . S
H83 C107 0.979 . S
H84 C107 0.977 . S
C85 C73 1.453 1_545 S
C85 H114 0.982 . S
C85 H115 0.979 1_545 S
C85 H116 0.977 . S
C86 C73 1.684 1_655 S
C86 H111 0.979 . S
C86 H112 0.980 . S
C86 H113 0.983 1_655 S
C87 C88 1.391 1_465 S
C87 C92 1.391 . S
C87 H117 0.948 . S
C88 C87 1.391 1_645 S
C88 C89 1.391 . S
C89 C88 1.391 . S
C89 C90 1.392 . S
C89 H118 0.947 . S
C90 C89 1.392 . S
C90 C91 1.419 . S
C90 H119 0.948 . S
C91 C90 1.419 . S
C91 C92 1.391 1_645 S
C91 C95 1.397 . S
C92 C87 1.391 . S
C92 C91 1.391 1_465 S
C92 C93 1.399 . S
C93 C92 1.399 . S
C93 C94 1.396 . S
C93 C96 1.453 . S
C93 C97 1.684 . S
C94 C75 1.723 . S
C94 C93 1.396 . S
C94 C95 1.394 1_465 S
C95 C91 1.397 . S
C95 C94 1.394 1_645 S
C95 C105 1.723 . S
C96 C93 1.453 . S
C96 H120 0.982 . S
C96 H121 0.979 . S
C96 H122 0.977 . S
C97 C93 1.684 . S
C97 H123 0.979 . S
C97 H124 0.980 . S
C97 H125 0.983 . S
C98 H74 0.948 . S
C98 C99 1.391 . S
C98 C103 1.391 . S
C99 C98 1.391 . S
C99 C100 1.391 . S
C100 H77 0.947 . S
C100 C99 1.391 . S
C100 C101 1.392 . S
C101 H78 0.948 . S
C101 C100 1.392 . S
C101 C102 1.419 . S
C102 C101 1.419 . S
C102 C103 1.391 . S
C102 C106 1.397 . S
C103 C98 1.391 . S
C103 C102 1.391 . S
C103 C104 1.399 . S
C104 C103 1.399 . S
C104 C105 1.396 . S
C104 C107 1.453 . S
C104 C108 1.684 . S
C105 C95 1.723 . S
C105 C104 1.396 . S
C105 C106 1.394 . S
C106 C76 1.723 1_645 S
C106 C102 1.397 . S
C106 C105 1.394 . S
C107 H79 0.982 . S
C107 H83 0.979 . S
C107 H84 0.977 . S
C107 C104 1.453 . S
C108 H80 0.979 . S
C108 H81 0.980 . S
C108 H82 0.983 . S
C108 C104 1.684 . S
H109 C127 0.948 . S
H110 C68 0.948 . S
H111 C86 0.979 . S
H112 C86 0.980 . S
H113 C86 0.983 1_455 S
H114 C85 0.982 . S
H115 C85 0.979 1_565 S
H116 C85 0.977 . S
H117 C87 0.948 . S
H118 C89 0.947 . S
H119 C90 0.948 . S
H120 C96 0.982 . S
H121 C96 0.979 . S
H122 C96 0.977 . S
H123 C97 0.979 . S
H124 C97 0.980 . S
H125 C97 0.983 . S
H126 C70 0.947 . S
C127 C70 1.392 . S
C127 C71 1.419 . S
C127 H109 0.948 . S
C128 C129 1.391 . S
C128 C132 1.391 . S
C128 H170 0.948 . S
C129 C128 1.391 . S
C129 C130 1.391 . S
C130 C129 1.391 . S
C130 H186 0.947 . S
C130 C187 1.392 . S
C131 C132 1.391 . S
C131 C135 1.397 . S
C131 C187 1.419 . S
C132 C128 1.391 . S
C132 C131 1.391 . S
C132 C133 1.399 . S
C133 C132 1.399 . S
C133 C136 1.396 . S
C133 C145 1.453 . S
C133 C146 1.684 . S
H134 C158 0.948 . S
C135 C131 1.397 . S
C135 C136 1.394 . S
C135 C154 1.723 . S
C136 C133 1.396 . S
C136 C135 1.394 . S
C136 C166 1.723 1_445 S
H137 C160 0.947 . S
H138 C161 0.948 . S
H139 C167 0.982 . S
H140 C168 0.979 . S
H141 C168 0.980 . S
H142 C168 0.983 . S
H143 C167 0.979 . S
H144 C167 0.977 . S
C145 C133 1.453 . S
C145 H174 0.982 1_545 S
C145 H175 0.979 . S
C145 H176 0.977 1_545 S
C146 C133 1.684 . S
C146 H171 0.979 1_455 S
C146 H172 0.980 1_455 S
C146 H173 0.983 . S
C147 C148 1.391 . S
C147 C152 1.391 . S
C147 H177 0.948 . S
C148 C147 1.391 . S
C148 C149 1.391 1_445 S
C149 C148 1.391 1_665 S
C149 C150 1.392 . S
C149 H178 0.947 . S
C150 C149 1.392 . S
C150 C151 1.416 1_665 S
C150 H179 0.948 . S
C151 C150 1.416 1_445 S
C151 C152 1.395 . S
C151 C155 1.397 . S
C152 C147 1.391 . S
C152 C151 1.395 . S
C152 C153 1.399 . S
C153 C152 1.399 . S
C153 C154 1.396 . S
C153 C156 1.453 . S
C153 C157 1.684 . S
C154 C135 1.723 . S
C154 C153 1.396 . S
C154 C155 1.394 . S
C155 C151 1.397 . S
C155 C154 1.394 . S
C155 C165 1.723 1_445 S
C156 C153 1.453 . S
C156 H180 0.982 . S
C156 H181 0.979 . S
C156 H182 0.977 . S
C157 C153 1.684 . S
C157 H183 0.979 . S
C157 H184 0.980 . S
C157 H185 0.983 . S
C158 H134 0.948 . S
C158 C159 1.391 . S
C158 C163 1.391 . S
C159 C158 1.391 . S
C159 C160 1.391 . S
C160 H137 0.947 . S
C160 C159 1.391 . S
C160 C161 1.392 . S
C161 H138 0.948 . S
C161 C160 1.392 . S
C161 C162 1.419 . S
C162 C161 1.419 . S
C162 C163 1.391 . S
C162 C166 1.397 . S
C163 C158 1.391 . S
C163 C162 1.391 . S
C163 C164 1.399 . S
C164 C163 1.399 . S
C164 C165 1.396 . S
C164 C167 1.453 . S
C164 C168 1.684 . S
C165 C155 1.723 1_665 S
C165 C164 1.396 . S
C165 C166 1.394 . S
C166 C136 1.723 1_665 S
C166 C162 1.397 . S
C166 C165 1.394 . S
C167 H139 0.982 . S
C167 H143 0.979 . S
C167 H144 0.977 . S
C167 C164 1.453 . S
C168 H140 0.979 . S
C168 H141 0.980 . S
C168 H142 0.983 . S
C168 C164 1.684 . S
H169 C187 0.948 . S
H170 C128 0.948 . S
H171 C146 0.979 1_655 S
H172 C146 0.980 1_655 S
H173 C146 0.983 . S
H174 C145 0.982 1_565 S
H175 C145 0.979 . S
H176 C145 0.977 1_565 S
H177 C147 0.948 . S
H178 C149 0.947 . S
H179 C150 0.948 . S
H180 C156 0.982 . S
H181 C156 0.979 . S
H182 C156 0.977 . S
H183 C157 0.979 . S
H184 C157 0.980 . S
H185 C157 0.983 . S
H186 C130 0.947 . S
C187 C130 1.392 . S
C187 C131 1.419 . S
C187 H169 0.948 . S
C188 C189 1.391 . S
C188 C192 1.391 . S
C188 H230 0.948 1_556 S
C189 C188 1.391 . S
C189 C190 1.391 . S
C190 C189 1.391 . S
C190 H246 0.947 . S
C190 C247 1.392 . S
C191 C192 1.391 . S
C191 C195 1.397 . S
C191 C247 1.419 . S
C192 C188 1.391 . S
C192 C191 1.391 . S
C192 C193 1.399 . S
C193 C192 1.399 . S
C193 C196 1.396 . S
C193 C205 1.453 . S
C193 C206 1.706 . S
H194 C218 0.948 . S
C195 C191 1.397 . S
C195 C196 1.394 . S
C195 C214 1.723 . S
C196 C193 1.396 . S
C196 C195 1.394 . S
C196 C226 1.723 . S
H197 C220 0.947 1_554 S
H198 C221 0.948 . S
H199 C227 0.982 . S
H200 C228 0.979 . S
H201 C228 0.980 . S
H202 C228 0.983 . S
H203 C227 0.979 . S
H204 C227 0.977 . S
C205 C193 1.453 . S
C205 H234 0.982 . S
C205 H235 0.979 1_556 S
C205 H236 0.977 . S
C206 C193 1.706 . S
C206 H231 0.987 . S
C206 H232 0.974 1_556 S
C206 H233 0.959 1_556 S
C207 C208 1.391 . S
C207 C212 1.391 . S
C207 H237 0.948 . S
C208 C207 1.391 . S
C208 C209 1.391 . S
C209 C208 1.391 . S
C209 C210 1.392 . S
C209 H238 0.947 . S
C210 C209 1.392 . S
C210 C211 1.419 . S
C210 H239 0.948 . S
C211 C210 1.419 . S
C211 C212 1.391 . S
C211 C215 1.397 . S
C212 C207 1.391 . S
C212 C211 1.391 . S
C212 C213 1.399 . S
C213 C212 1.399 . S
C213 C214 1.396 . S
C213 C216 1.453 . S
C213 C217 1.684 . S
C214 C195 1.723 . S
C214 C213 1.396 . S
C214 C215 1.394 . S
C215 C211 1.397 . S
C215 C214 1.394 . S
C215 C225 1.723 . S
C216 C213 1.453 . S
C216 H240 0.982 . S
C216 H241 0.979 . S
C216 H242 0.977 . S
C217 C213 1.684 . S
C217 H243 0.979 . S
C217 H244 0.980 . S
C217 H245 0.983 . S
C218 H194 0.948 . S
C218 C219 1.391 . S
C218 C223 1.391 . S
C219 C218 1.391 . S
C219 C220 1.391 . S
C220 H197 0.947 1_556 S
C220 C219 1.391 . S
C220 C221 1.392 . S
C221 H198 0.948 . S
C221 C220 1.392 . S
C221 C222 1.419 . S
C222 C221 1.419 . S
C222 C223 1.391 . S
C222 C226 1.397 . S
C223 C218 1.391 . S
C223 C222 1.391 . S
C223 C224 1.399 . S
C224 C223 1.399 . S
C224 C225 1.396 . S
C224 C227 1.453 . S
C224 C228 1.684 . S
C225 C215 1.723 . S
C225 C224 1.396 . S
C225 C226 1.394 . S
C226 C196 1.723 . S
C226 C222 1.397 . S
C226 C225 1.394 . S
C227 H199 0.982 . S
C227 H203 0.979 . S
C227 H204 0.977 . S
C227 C224 1.453 . S
C228 H200 0.979 . S
C228 H201 0.980 . S
C228 H202 0.983 . S
C228 C224 1.684 . S
H229 C247 0.948 . S
H230 C188 0.948 1_554 S
H231 C206 0.987 . S
H232 C206 0.974 1_554 S
H233 C206 0.959 1_554 S
H234 C205 0.982 . S
H235 C205 0.979 1_554 S
H236 C205 0.977 . S
H237 C207 0.948 . S
H238 C209 0.947 . S
H239 C210 0.948 . S
H240 C216 0.982 . S
H241 C216 0.979 . S
H242 C216 0.977 . S
H243 C217 0.979 . S
H244 C217 0.980 . S
H245 C217 0.983 . S
H246 C190 0.947 . S
C247 C190 1.392 . S
C247 C191 1.419 . S
C247 H229 0.948 . S
C248 C249 1.391 . S
C248 C252 1.391 . S
C248 H290 0.948 . S
C249 C248 1.391 . S
C249 C250 1.391 . S
C250 C249 1.391 . S
C250 H306 0.947 . S
C250 C307 1.392 . S
C251 C252 1.391 . S
C251 C255 1.397 . S
C251 C307 1.419 . S
C252 C248 1.391 . S
C252 C251 1.391 . S
C252 C253 1.399 . S
C253 C252 1.399 . S
C253 C256 1.396 . S
C253 C265 1.453 . S
C253 C266 1.684 . S
H254 C278 0.948 . S
C255 C251 1.397 . S
C255 C256 1.394 . S
C255 C274 1.723 . S
C256 C253 1.396 . S
C256 C255 1.394 . S
C256 C286 1.723 . S
H257 C280 0.947 1_556 S
H258 C281 0.948 . S
H259 C287 0.982 . S
H260 C288 0.979 . S
H261 C288 0.980 . S
H262 C288 0.983 . S
H263 C287 0.979 . S
H264 C287 0.977 . S
C265 C253 1.453 . S
C265 H294 0.982 . S
C265 H295 0.977 1_554 S
C265 H296 0.977 . S
C266 C253 1.684 . S
C266 H291 0.979 . S
C266 H292 0.980 . S
C266 H293 0.983 1_554 S
C267 C268 1.391 . S
C267 C272 1.391 . S
C267 H297 0.948 . S
C268 C267 1.391 . S
C268 C269 1.391 . S
C269 C268 1.391 . S
C269 C270 1.392 . S
C269 H298 0.947 . S
C270 C269 1.392 . S
C270 C271 1.419 . S
C270 H299 0.948 . S
C271 C270 1.419 . S
C271 C272 1.391 . S
C271 C275 1.397 . S
C272 C267 1.391 . S
C272 C271 1.391 . S
C272 C273 1.399 . S
C273 C272 1.399 . S
C273 C274 1.396 . S
C273 C276 1.453 . S
C273 C277 1.684 . S
C274 C255 1.723 . S
C274 C273 1.396 . S
C274 C275 1.394 . S
C275 C271 1.397 . S
C275 C274 1.394 . S
C275 C285 1.723 . S
C276 C273 1.453 . S
C276 H300 0.982 . S
C276 H301 0.979 . S
C276 H302 0.977 . S
C277 C273 1.684 . S
C277 H303 0.979 . S
C277 H304 0.980 . S
C277 H305 0.983 . S
C278 H254 0.948 . S
C278 C279 1.391 . S
C278 C283 1.391 . S
C279 C278 1.391 . S
C279 C280 1.391 . S
C280 H257 0.947 1_554 S
C280 C279 1.391 . S
C280 C281 1.392 . S
C281 H258 0.948 . S
C281 C280 1.392 . S
C281 C282 1.419 . S
C282 C281 1.419 . S
C282 C283 1.391 . S
C282 C286 1.397 . S
C283 C278 1.391 . S
C283 C282 1.391 . S
C283 C284 1.399 . S
C284 C283 1.399 . S
C284 C285 1.396 . S
C284 C287 1.453 . S
C284 C288 1.684 . S
C285 C275 1.723 . S
C285 C284 1.396 . S
C285 C286 1.394 . S
C286 C256 1.723 . S
C286 C282 1.397 . S
C286 C285 1.394 . S
C287 H259 0.982 . S
C287 H263 0.979 . S
C287 H264 0.977 . S
C287 C284 1.453 . S
C288 H260 0.979 . S
C288 H261 0.980 . S
C288 H262 0.983 . S
C288 C284 1.684 . S
H289 C307 0.948 . S
H290 C248 0.948 . S
H291 C266 0.979 . S
H292 C266 0.980 . S
H293 C266 0.983 1_556 S
H294 C265 0.982 . S
H295 C265 0.977 1_556 S
H296 C265 0.977 . S
H297 C267 0.948 . S
H298 C269 0.947 . S
H299 C270 0.948 . S
H300 C276 0.982 . S
H301 C276 0.979 . S
H302 C276 0.977 . S
H303 C277 0.979 . S
H304 C277 0.980 . S
H305 C277 0.983 . S
H306 C250 0.947 . S
C307 C250 1.392 . S
C307 C251 1.419 . S
C307 H289 0.948 . S
H308 C326 0.951 . S
H309 C328 0.951 . S
H310 C330 0.950 . S
H311 C331 0.944 1_556 S
H312 C333 0.950 . S
H313 C336 0.950 . S
H314 C337 0.950 . S
H315 C339 0.950 . S
H316 C340 0.950 . S
H317 C341 0.951 . S
H318 C343 0.951 . S
H319 C345 0.950 . S
H320 C346 0.950 . S
H321 C348 0.950 . S
H322 C351 0.950 . S
H323 C352 0.950 . S
H324 C354 0.950 . S
H325 C355 0.950 . S
C326 H308 0.951 . S
C326 C327 1.366 . S
C326 C328 1.388 . S
C327 C326 1.366 . S
C327 C331 1.390 . S
C328 H309 0.951 . S
C328 C326 1.388 . S
C328 C329 1.366 . S
C329 C328 1.366 . S
C329 C330 1.414 . S
C329 C332 1.499 . S
C330 H310 0.950 . S
C330 C329 1.414 . S
C330 C331 1.376 . S
C331 H311 0.944 1_554 S
C331 C327 1.390 . S
C331 C330 1.376 . S
C332 C329 1.499 . S
C332 C333 1.373 1_554 S
C332 C334 1.389 . S
C333 H312 0.950 . S
C333 C332 1.373 1_556 S
C333 C349 1.377 . S
C334 C332 1.389 . S
C334 C335 1.524 . S
C334 C348 1.377 . S
C335 C334 1.524 . S
C335 C336 1.397 . S
C335 C340 1.363 . S
C336 H313 0.950 . S
C336 C335 1.397 . S
C336 C337 1.334 . S
C337 H314 0.950 . S
C337 C336 1.334 . S
C337 C338 1.287 . S
C338 C337 1.287 . S
C338 C339 1.524 . S
C338 H357 0.913 . S
C339 H315 0.950 . S
C339 C338 1.524 . S
C339 C340 1.415 . S
C340 H316 0.950 . S
C340 C335 1.363 . S
C340 C339 1.415 . S
C341 H317 0.951 . S
C341 C342 1.366 . S
C341 C343 1.388 . S
C342 C341 1.366 . S
C342 C346 1.385 . S
C343 H318 0.951 . S
C343 C341 1.388 . S
C343 C344 1.366 . S
C344 C343 1.366 . S
C344 C345 1.414 . S
C344 C347 1.499 . S
C345 H319 0.950 . S
C345 C344 1.414 . S
C345 C346 1.374 . S
C346 H320 0.950 . S
C346 C342 1.385 . S
C346 C345 1.374 . S
C347 C344 1.499 . S
C347 C348 1.373 . S
C347 C349 1.389 1_554 S
C348 H321 0.950 . S
C348 C334 1.377 . S
C348 C347 1.373 . S
C349 C333 1.377 . S
C349 C347 1.389 1_556 S
C349 C350 1.524 . S
C350 C349 1.524 . S
C350 C351 1.397 . S
C350 C355 1.363 . S
C351 H322 0.950 . S
C351 C350 1.397 . S
C351 C352 1.334 . S
C352 H323 0.950 . S
C352 C351 1.334 . S
C352 C353 1.287 . S
C353 C352 1.287 . S
C353 C354 1.524 . S
C353 H356 0.999 . S
C354 H324 0.950 . S
C354 C353 1.524 . S
C354 C355 1.415 . S
C355 H325 0.950 . S
C355 C350 1.363 . S
C355 C354 1.415 . S
H356 C353 0.999 . S
H357 C338 0.913 . S
H358 C376 0.951 . S
H359 C378 0.956 . S
H360 C380 0.950 . S
H361 C381 0.950 . S
H362 C383 0.950 . S
H363 C386 0.950 . S
H364 C387 0.950 . S
H365 C389 0.950 . S
H366 C390 0.950 . S
H367 C391 0.951 . S
H368 C393 0.951 . S
H369 C395 0.950 . S
H370 C396 0.950 . S
H371 C398 0.950 . S
H372 C401 0.950 . S
H373 C402 0.950 . S
H374 C404 0.950 . S
H375 C405 0.950 . S
C376 H358 0.951 . S
C376 C377 1.366 . S
C376 C378 1.383 1_554 S
C377 C376 1.366 . S
C377 C381 1.385 . S
C378 H359 0.956 . S
C378 C376 1.383 1_556 S
C378 C379 1.368 . S
C379 C378 1.368 . S
C379 C380 1.414 . S
C379 C382 1.499 . S
C380 H360 0.950 . S
C380 C379 1.414 . S
C380 C381 1.374 1_556 S
C381 H361 0.950 . S
C381 C377 1.385 . S
C381 C380 1.374 1_554 S
C382 C379 1.499 . S
C382 C383 1.373 1_556 S
C382 C384 1.389 . S
C383 H362 0.950 . S
C383 C382 1.373 1_554 S
C383 C399 1.377 . S
C384 C382 1.389 . S
C384 C385 1.524 . S
C384 C398 1.377 . S
C385 C384 1.524 . S
C385 C386 1.397 . S
C385 C390 1.363 . S
C386 H363 0.950 . S
C386 C385 1.397 . S
C386 C387 1.334 . S
C387 H364 0.950 . S
C387 C386 1.334 . S
C387 C388 1.287 . S
C388 C387 1.287 . S
C388 C389 1.524 . S
C388 H407 0.913 . S
C389 H365 0.950 . S
C389 C388 1.524 . S
C389 C390 1.415 . S
C390 H366 0.950 . S
C390 C385 1.363 . S
C390 C389 1.415 . S
C391 H367 0.951 . S
C391 C392 1.366 . S
C391 C393 1.388 . S
C392 C391 1.366 . S
C392 C396 1.385 . S
C393 H368 0.951 . S
C393 C391 1.388 . S
C393 C394 1.366 . S
C394 C393 1.366 . S
C394 C395 1.414 . S
C394 C397 1.499 . S
C395 H369 0.950 . S
C395 C394 1.414 . S
C395 C396 1.374 . S
C396 H370 0.950 . S
C396 C392 1.385 . S
C396 C395 1.374 . S
C397 C394 1.499 . S
C397 C398 1.373 . S
C397 C399 1.389 1_556 S
C398 H371 0.950 . S
C398 C384 1.377 . S
C398 C397 1.373 . S
C399 C383 1.377 . S
C399 C397 1.389 1_554 S
C399 C400 1.524 . S
C400 C399 1.524 . S
C400 C401 1.397 . S
C400 C405 1.363 . S
C401 H372 0.950 . S
C401 C400 1.397 . S
C401 C402 1.334 . S
C402 H373 0.950 . S
C402 C401 1.334 . S
C402 C403 1.287 . S
C403 C402 1.287 . S
C403 C404 1.524 . S
C403 H406 0.999 . S
C404 H374 0.950 . S
C404 C403 1.524 . S
C404 C405 1.415 . S
C405 H375 0.950 . S
C405 C400 1.363 . S
C405 C404 1.415 . S
H406 C403 0.999 . S
H407 C388 0.913 . S
H408 C426 0.951 . S
H409 C428 0.951 . S
H410 C430 0.950 . S
H411 C431 0.950 . S
H412 C433 0.950 . S
H413 C436 0.950 . S
H414 C437 0.950 . S
H415 C439 0.950 . S
H416 C440 0.950 . S
H417 C441 0.951 1_556 S
H418 C443 0.951 1_556 S
H419 C445 0.950 . S
H420 C446 0.950 . S
H421 C448 0.950 . S
H422 C451 0.950 . S
H423 C452 0.950 . S
H424 C454 0.950 . S
H425 C455 0.950 1_556 S
C426 H408 0.951 . S
C426 C427 1.366 . S
C426 C428 1.388 . S
C427 C426 1.366 . S
C427 C431 1.385 1_554 S
C428 H409 0.951 . S
C428 C426 1.388 . S
C428 C429 1.366 . S
C429 C428 1.366 . S
C429 C430 1.414 1_554 S
C429 C432 1.499 . S
C430 H410 0.950 . S
C430 C429 1.414 1_556 S
C430 C431 1.374 . S
C431 H411 0.950 . S
C431 C427 1.385 1_556 S
C431 C430 1.374 . S
C432 C429 1.499 . S
C432 C433 1.373 . S
C432 C434 1.389 . S
C433 H412 0.950 . S
C433 C432 1.373 . S
C433 C449 1.377 . S
C434 C432 1.389 . S
C434 C435 1.524 . S
C434 C448 1.377 . S
C435 C434 1.524 . S
C435 C436 1.397 1_554 S
C435 C440 1.363 . S
C436 H413 0.950 . S
C436 C435 1.397 1_556 S
C436 C437 1.334 . S
C437 H414 0.950 . S
C437 C436 1.334 . S
C437 C438 1.287 . S
C438 C437 1.287 . S
C438 C439 1.524 1_556 S
C438 H457 0.913 . S
C439 H415 0.950 . S
C439 C438 1.524 1_554 S
C439 C440 1.415 . S
C440 H416 0.950 . S
C440 C435 1.363 . S
C440 C439 1.415 . S
C441 H417 0.951 1_554 S
C441 C442 1.366 . S
C441 C443 1.388 . S
C442 C441 1.366 . S
C442 C446 1.385 . S
C443 H418 0.951 1_554 S
C443 C441 1.388 . S
C443 C444 1.366 . S
C444 C443 1.366 . S
C444 C445 1.414 . S
C444 C447 1.499 . S
C445 H419 0.950 . S
C445 C444 1.414 . S
C445 C446 1.374 . S
C446 H420 0.950 . S
C446 C442 1.385 . S
C446 C445 1.374 . S
C447 C444 1.499 . S
C447 C448 1.373 . S
C447 C449 1.389 . S
C448 H421 0.950 . S
C448 C434 1.377 . S
C448 C447 1.373 . S
C449 C433 1.377 . S
C449 C447 1.389 . S
C449 C450 1.524 . S
C450 C449 1.524 . S
C450 C451 1.397 . S
C450 C455 1.363 . S
C451 H422 0.950 . S
C451 C450 1.397 . S
C451 C452 1.334 . S
C452 H423 0.950 . S
C452 C451 1.334 . S
C452 C453 1.287 . S
C453 C452 1.287 . S
C453 C454 1.524 . S
C453 H456 0.999 . S
C454 H424 0.950 . S
C454 C453 1.524 . S
C454 C455 1.415 . S
C455 H425 0.950 1_554 S
C455 C450 1.363 . S
C455 C454 1.415 . S
H456 C453 0.999 . S
H457 C438 0.913 . S
H458 C476 0.951 . S
H459 C478 0.951 . S
H460 C480 0.950 . S
H461 C481 0.950 . S
H462 C483 0.950 . S
H463 C486 0.950 . S
H464 C487 0.950 . S
H465 C489 0.950 . S
H466 C490 0.950 . S
H467 C491 0.951 . S
H468 C493 0.951 . S
H469 C495 0.955 . S
H470 C496 0.950 1_554 S
H471 C498 0.950 . S
H472 C501 0.950 . S
H473 C502 0.950 . S
H474 C504 0.950 . S
H475 C505 0.950 1_556 S
C476 H458 0.951 . S
C476 C477 1.366 . S
C476 C478 1.388 . S
C477 C476 1.366 . S
C477 C481 1.385 1_554 S
C478 H459 0.951 . S
C478 C476 1.388 . S
C478 C479 1.366 1_554 S
C479 C478 1.366 1_556 S
C479 C480 1.414 . S
C479 C482 1.499 . S
C480 H460 0.950 . S
C480 C479 1.414 . S
C480 C481 1.374 . S
C481 H461 0.950 . S
C481 C477 1.385 1_556 S
C481 C480 1.374 . S
C482 C479 1.499 . S
C482 C483 1.373 1_556 S
C482 C484 1.389 . S
C483 H462 0.950 . S
C483 C482 1.373 1_554 S
C483 C499 1.377 . S
C484 C482 1.389 . S
C484 C485 1.524 . S
C484 C498 1.377 . S
C485 C484 1.524 . S
C485 C486 1.397 . S
C485 C490 1.363 . S
C486 H463 0.950 . S
C486 C485 1.397 . S
C486 C487 1.334 . S
C487 H464 0.950 . S
C487 C486 1.334 . S
C487 C488 1.287 . S
C488 C487 1.287 . S
C488 C489 1.524 . S
C488 H507 0.913 . S
C489 H465 0.950 . S
C489 C488 1.524 . S
C489 C490 1.415 . S
C490 H466 0.950 . S
C490 C485 1.363 . S
C490 C489 1.415 . S
C491 H467 0.951 . S
C491 C492 1.366 . S
C491 C493 1.388 . S
C492 C491 1.366 . S
C492 C496 1.385 . S
C493 H468 0.951 . S
C493 C491 1.388 . S
C493 C494 1.366 . S
C494 C493 1.366 . S
C494 C495 1.411 1_556 S
C494 C497 1.499 . S
C495 H469 0.955 . S
C495 C494 1.411 1_554 S
C495 C496 1.373 1_554 S
C496 H470 0.950 1_556 S
C496 C492 1.385 . S
C496 C495 1.373 1_556 S
C497 C494 1.499 . S
C497 C498 1.373 . S
C497 C499 1.389 1_556 S
C498 H471 0.950 . S
C498 C484 1.377 . S
C498 C497 1.373 . S
C499 C483 1.377 . S
C499 C497 1.389 1_554 S
C499 C500 1.524 . S
C500 C499 1.524 . S
C500 C501 1.397 . S
C500 C505 1.363 . S
C501 H472 0.950 . S
C501 C500 1.397 . S
C501 C502 1.334 . S
C502 H473 0.950 . S
C502 C501 1.334 . S
C502 C503 1.287 . S
C503 C502 1.287 . S
C503 C504 1.524 . S
C503 H506 0.999 . S
C504 H474 0.950 . S
C504 C503 1.524 . S
C504 C505 1.415 . S
C505 H475 0.950 1_554 S
C505 C500 1.363 . S
C505 C504 1.415 . S
H506 C503 0.999 . S
H507 C488 0.913 . S
H508 C526 0.951 . S
H509 C528 0.951 . S
H510 C530 0.950 . S
H511 C531 0.950 . S
H512 C533 0.950 . S
H513 C536 0.950 . S
H514 C537 0.950 . S
H515 C539 0.950 . S
H516 C540 0.950 . S
H517 C541 0.951 . S
H518 C543 0.951 . S
H519 C545 0.950 . S
H520 C546 0.950 . S
H521 C548 0.950 . S
H522 C551 0.950 . S
H523 C552 0.950 . S
H524 C554 0.950 . S
H525 C555 0.950 . S
C526 H508 0.951 . S
C526 C527 1.366 . S
C526 C528 1.388 . S
C527 C526 1.366 . S
C527 C531 1.385 . S
C528 H509 0.951 . S
C528 C526 1.388 . S
C528 C529 1.366 . S
C529 C528 1.366 . S
C529 C530 1.414 . S
C529 C532 1.499 . S
C530 H510 0.950 . S
C530 C529 1.414 . S
C530 C531 1.374 . S
C531 H511 0.950 . S
C531 C527 1.385 . S
C531 C530 1.374 . S
C532 C529 1.499 . S
C532 C533 1.373 . S
C532 C534 1.389 . S
C533 H512 0.950 . S
C533 C532 1.373 . S
C533 C549 1.377 . S
C534 C532 1.389 . S
C534 C535 1.524 . S
C534 C548 1.377 . S
C535 C534 1.524 . S
C535 C536 1.397 . S
C535 C540 1.363 . S
C536 H513 0.950 . S
C536 C535 1.397 . S
C536 C537 1.334 . S
C537 H514 0.950 . S
C537 C536 1.334 . S
C537 C538 1.287 . S
C538 C537 1.287 . S
C538 C539 1.524 . S
C538 H557 0.913 . S
C539 H515 0.950 . S
C539 C538 1.524 . S
C539 C540 1.415 . S
C540 H516 0.950 . S
C540 C535 1.363 . S
C540 C539 1.415 . S
C541 H517 0.951 . S
C541 C542 1.366 . S
C541 C543 1.388 . S
C542 C541 1.366 . S
C542 C546 1.385 . S
C543 H518 0.951 . S
C543 C541 1.388 . S
C543 C544 1.366 . S
C544 C543 1.366 . S
C544 C545 1.414 . S
C544 C547 1.499 . S
C545 H519 0.950 . S
C545 C544 1.414 . S
C545 C546 1.374 . S
C546 H520 0.950 . S
C546 C542 1.385 . S
C546 C545 1.374 . S
C547 C544 1.499 . S
C547 C548 1.373 . S
C547 C549 1.389 . S
C548 H521 0.950 . S
C548 C534 1.377 . S
C548 C547 1.373 . S
C549 C533 1.377 . S
C549 C547 1.389 . S
C549 C550 1.524 . S
C550 C549 1.524 . S
C550 C551 1.397 . S
C550 C555 1.363 . S
C551 H522 0.950 . S
C551 C550 1.397 . S
C551 C552 1.334 . S
C552 H523 0.950 . S
C552 C551 1.334 . S
C552 C553 1.287 . S
C553 C552 1.287 . S
C553 C554 1.524 . S
C553 H556 0.999 . S
C554 H524 0.950 . S
C554 C553 1.524 . S
C554 C555 1.415 . S
C555 H525 0.950 . S
C555 C550 1.363 . S
C555 C554 1.415 . S
H556 C553 0.999 . S
H557 C538 0.913 . S
H558 C576 0.951 . S
H559 C578 0.951 . S
H560 C580 0.950 . S
H561 C581 0.950 . S
H562 C583 0.950 . S
H563 C586 0.950 . S
H564 C587 0.950 . S
H565 C589 0.950 . S
H566 C590 0.950 . S
H567 C591 0.951 . S
H568 C593 0.951 . S
H569 C595 0.950 . S
H570 C596 0.950 . S
H571 C598 0.950 . S
H572 C601 0.950 . S
H573 C602 0.950 . S
H574 C604 0.950 . S
H575 C605 0.950 . S
C576 H558 0.951 . S
C576 C577 1.366 . S
C576 C578 1.388 . S
C577 C576 1.366 . S
C577 C581 1.385 . S
C578 H559 0.951 . S
C578 C576 1.388 . S
C578 C579 1.366 . S
C579 C578 1.366 . S
C579 C580 1.414 . S
C579 C582 1.499 . S
C580 H560 0.950 . S
C580 C579 1.414 . S
C580 C581 1.374 . S
C581 H561 0.950 . S
C581 C577 1.385 . S
C581 C580 1.374 . S
C582 C579 1.499 . S
C582 C583 1.373 . S
C582 C584 1.389 . S
C583 H562 0.950 . S
C583 C582 1.373 . S
C583 C599 1.377 . S
C584 C582 1.389 . S
C584 C585 1.524 . S
C584 C598 1.377 . S
C585 C584 1.524 . S
C585 C586 1.397 . S
C585 C590 1.363 . S
C586 H563 0.950 . S
C586 C585 1.397 . S
C586 C587 1.334 . S
C587 H564 0.950 . S
C587 C586 1.334 . S
C587 C588 1.287 . S
C588 C587 1.287 . S
C588 C589 1.524 . S
C588 H607 0.913 . S
C589 H565 0.950 . S
C589 C588 1.524 . S
C589 C590 1.415 . S
C590 H566 0.950 . S
C590 C585 1.363 . S
C590 C589 1.415 . S
C591 H567 0.951 . S
C591 C592 1.366 . S
C591 C593 1.388 . S
C592 C591 1.366 . S
C592 C596 1.385 . S
C593 H568 0.951 . S
C593 C591 1.388 . S
C593 C594 1.366 . S
C594 C593 1.366 . S
C594 C595 1.414 . S
C594 C597 1.499 . S
C595 H569 0.950 . S
C595 C594 1.414 . S
C595 C596 1.374 . S
C596 H570 0.950 . S
C596 C592 1.385 . S
C596 C595 1.374 . S
C597 C594 1.499 . S
C597 C598 1.373 . S
C597 C599 1.389 . S
C598 H571 0.950 . S
C598 C584 1.377 . S
C598 C597 1.373 . S
C599 C583 1.377 . S
C599 C597 1.389 . S
C599 C600 1.524 . S
C600 C599 1.524 . S
C600 C601 1.397 . S
C600 C605 1.363 . S
C601 H572 0.950 . S
C601 C600 1.397 . S
C601 C602 1.334 . S
C602 H573 0.950 . S
C602 C601 1.334 . S
C602 C603 1.287 . S
C603 C602 1.287 . S
C603 C604 1.524 . S
C603 H606 0.999 . S
C604 H574 0.950 . S
C604 C603 1.524 . S
C604 C605 1.415 . S
C605 H575 0.950 . S
C605 C600 1.363 . S
C605 C604 1.415 . S
H606 C603 0.999 . S
H607 C588 0.913 . S
H608 C626 0.951 . S
H609 C628 0.951 . S
H610 C630 0.950 . S
H611 C631 0.950 . S
H612 C633 0.950 . S
H613 C636 0.950 . S
H614 C637 0.950 . S
H615 C639 0.950 . S
H616 C640 0.950 . S
H617 C641 0.951 . S
H618 C643 0.951 . S
H619 C645 0.950 . S
H620 C646 0.950 . S
H621 C648 0.950 . S
H622 C651 0.950 . S
H623 C652 0.950 . S
H624 C654 0.950 . S
H625 C655 0.950 . S
C626 H608 0.951 . S
C626 C627 1.366 . S
C626 C628 1.388 . S
C627 C626 1.366 . S
C627 C631 1.385 . S
C628 H609 0.951 . S
C628 C626 1.388 . S
C628 C629 1.366 . S
C629 C628 1.366 . S
C629 C630 1.414 . S
C629 C632 1.499 . S
C630 H610 0.950 . S
C630 C629 1.414 . S
C630 C631 1.374 . S
C631 H611 0.950 . S
C631 C627 1.385 . S
C631 C630 1.374 . S
C632 C629 1.499 . S
C632 C633 1.373 . S
C632 C634 1.389 . S
C633 H612 0.950 . S
C633 C632 1.373 . S
C633 C649 1.377 . S
C634 C632 1.389 . S
C634 C635 1.524 . S
C634 C648 1.377 . S
C635 C634 1.524 . S
C635 C636 1.397 . S
C635 C640 1.363 . S
C636 H613 0.950 . S
C636 C635 1.397 . S
C636 C637 1.334 . S
C637 H614 0.950 . S
C637 C636 1.334 . S
C637 C638 1.287 . S
C638 C637 1.287 . S
C638 C639 1.524 . S
C638 H657 0.913 . S
C639 H615 0.950 . S
C639 C638 1.524 . S
C639 C640 1.415 . S
C640 H616 0.950 . S
C640 C635 1.363 . S
C640 C639 1.415 . S
C641 H617 0.951 . S
C641 C642 1.366 . S
C641 C643 1.388 . S
C642 C641 1.366 . S
C642 C646 1.385 . S
C643 H618 0.951 . S
C643 C641 1.388 . S
C643 C644 1.366 . S
C644 C643 1.366 . S
C644 C645 1.414 . S
C644 C647 1.499 . S
C645 H619 0.950 . S
C645 C644 1.414 . S
C645 C646 1.374 . S
C646 H620 0.950 . S
C646 C642 1.385 . S
C646 C645 1.374 . S
C647 C644 1.499 . S
C647 C648 1.373 . S
C647 C649 1.389 . S
C648 H621 0.950 . S
C648 C634 1.377 . S
C648 C647 1.373 . S
C649 C633 1.377 . S
C649 C647 1.389 . S
C649 C650 1.524 . S
C650 C649 1.524 . S
C650 C651 1.397 . S
C650 C655 1.363 . S
C651 H622 0.950 . S
C651 C650 1.397 . S
C651 C652 1.334 . S
C652 H623 0.950 . S
C652 C651 1.334 . S
C652 C653 1.287 . S
C653 C652 1.287 . S
C653 C654 1.524 . S
C653 H656 0.999 . S
C654 H624 0.950 . S
C654 C653 1.524 . S
C654 C655 1.415 . S
C655 H625 0.950 . S
C655 C650 1.363 . S
C655 C654 1.415 . S
H656 C653 0.999 . S
H657 C638 0.913 . S
H658 C676 0.951 . S
H659 C678 0.951 . S
H660 C680 0.950 . S
H661 C681 0.950 . S
H662 C683 0.950 . S
H663 C686 0.950 . S
H664 C687 0.950 . S
H665 C689 0.950 . S
H666 C690 0.950 . S
H667 C691 0.951 . S
H668 C693 0.951 . S
H669 C695 0.950 . S
H670 C696 0.950 . S
H671 C698 0.950 . S
H672 C701 0.950 . S
H673 C702 0.950 . S
H674 C704 0.950 . S
H675 C705 0.950 . S
C676 H658 0.951 . S
C676 C677 1.366 . S
C676 C678 1.388 . S
C677 C676 1.366 . S
C677 C681 1.385 . S
C678 H659 0.951 . S
C678 C676 1.388 . S
C678 C679 1.366 . S
C679 C678 1.366 . S
C679 C680 1.414 . S
C679 C682 1.499 . S
C680 H660 0.950 . S
C680 C679 1.414 . S
C680 C681 1.374 . S
C681 H661 0.950 . S
C681 C677 1.385 . S
C681 C680 1.374 . S
C682 C679 1.499 . S
C682 C683 1.373 . S
C682 C684 1.389 . S
C683 H662 0.950 . S
C683 C682 1.373 . S
C683 C699 1.377 . S
C684 C682 1.389 . S
C684 C685 1.524 . S
C684 C698 1.377 . S
C685 C684 1.524 . S
C685 C686 1.397 . S
C685 C690 1.363 . S
C686 H663 0.950 . S
C686 C685 1.397 . S
C686 C687 1.334 . S
C687 H664 0.950 . S
C687 C686 1.334 . S
C687 C688 1.287 . S
C688 C687 1.287 . S
C688 C689 1.524 . S
C688 H707 0.913 . S
C689 H665 0.950 . S
C689 C688 1.524 . S
C689 C690 1.415 . S
C690 H666 0.950 . S
C690 C685 1.363 . S
C690 C689 1.415 . S
C691 H667 0.951 . S
C691 C692 1.366 . S
C691 C693 1.388 . S
C692 C691 1.366 . S
C692 C696 1.385 . S
C693 H668 0.951 . S
C693 C691 1.388 . S
C693 C694 1.366 . S
C694 C693 1.366 . S
C694 C695 1.414 . S
C694 C697 1.499 . S
C695 H669 0.950 . S
C695 C694 1.414 . S
C695 C696 1.374 . S
C696 H670 0.950 . S
C696 C692 1.385 . S
C696 C695 1.374 . S
C697 C694 1.499 . S
C697 C698 1.373 . S
C697 C699 1.389 . S
C698 H671 0.950 . S
C698 C684 1.377 . S
C698 C697 1.373 . S
C699 C683 1.377 . S
C699 C697 1.389 . S
C699 C700 1.524 . S
C700 C699 1.524 . S
C700 C701 1.397 . S
C700 C705 1.363 . S
C701 H672 0.950 . S
C701 C700 1.397 . S
C701 C702 1.334 . S
C702 H673 0.950 . S
C702 C701 1.334 . S
C702 C703 1.287 . S
C703 C702 1.287 . S
C703 C704 1.524 . S
C703 H706 0.999 . S
C704 H674 0.950 . S
C704 C703 1.524 . S
C704 C705 1.415 . S
C705 H675 0.950 . S
C705 C700 1.363 . S
C705 C704 1.415 . S
H706 C703 0.999 . S
H707 C688 0.913 . S
H708 C726 0.951 . S
H709 C728 0.951 . S
H710 C730 0.950 . S
H711 C731 0.950 . S
H712 C733 0.950 . S
H713 C736 0.950 . S
H714 C737 0.950 . S
H715 C739 0.950 . S
H716 C740 0.950 . S
H717 C741 0.951 . S
H718 C743 0.951 . S
H719 C745 0.950 . S
H720 C746 0.950 . S
H721 C748 0.950 . S
H722 C751 0.950 . S
H723 C752 0.950 1_565 S
H724 C754 0.950 . S
H725 C755 0.950 . S
C726 H708 0.951 . S
C726 C727 1.366 1_665 S
C726 C728 1.388 . S
C727 C726 1.366 1_445 S
C727 C731 1.385 . S
C728 H709 0.951 . S
C728 C726 1.388 . S
C728 C729 1.366 1_665 S
C729 C728 1.366 1_445 S
C729 C730 1.414 . S
C729 C732 1.499 . S
C730 H710 0.950 . S
C730 C729 1.414 . S
C730 C731 1.374 . S
C731 H711 0.950 . S
C731 C727 1.385 . S
C731 C730 1.374 . S
C732 C729 1.499 . S
C732 C733 1.373 . S
C732 C734 1.389 1_445 S
C733 H712 0.950 . S
C733 C732 1.373 . S
C733 C749 1.377 . S
C734 C732 1.389 1_665 S
C734 C735 1.524 . S
C734 C748 1.377 . S
C735 C734 1.524 . S
C735 C736 1.397 1_565 S
C735 C740 1.363 . S
C736 H713 0.950 . S
C736 C735 1.397 1_545 S
C736 C737 1.334 . S
C737 H714 0.950 . S
C737 C736 1.334 . S
C737 C738 1.287 1_545 S
C738 C737 1.287 1_565 S
C738 C739 1.524 . S
C738 H757 0.913 . S
C739 H715 0.950 . S
C739 C738 1.524 . S
C739 C740 1.415 . S
C740 H716 0.950 . S
C740 C735 1.363 . S
C740 C739 1.415 . S
C741 H717 0.951 . S
C741 C742 1.362 1_455 S
C741 C743 1.388 . S
C742 C741 1.362 1_655 S
C742 C746 1.387 1_545 S
C743 H718 0.951 . S
C743 C741 1.388 . S
C743 C744 1.366 . S
C744 C743 1.366 . S
C744 C745 1.414 1_445 S
C744 C747 1.499 . S
C745 H719 0.950 . S
C745 C744 1.414 1_665 S
C745 C746 1.374 . S
C746 H720 0.950 . S
C746 C742 1.387 1_565 S
C746 C745 1.374 . S
C747 C744 1.499 . S
C747 C748 1.366 1_445 S
C747 C749 1.399 . S
C748 H721 0.950 . S
C748 C734 1.377 . S
C748 C747 1.366 1_665 S
C749 C733 1.377 . S
C749 C747 1.399 . S
C749 C750 1.524 . S
C750 C749 1.524 . S
C750 C751 1.397 1_545 S
C750 C755 1.363 . S
C751 H722 0.950 . S
C751 C750 1.397 1_565 S
C751 C752 1.334 1_565 S
C752 H723 0.950 1_545 S
C752 C751 1.334 1_545 S
C752 C753 1.287 . S
C753 C752 1.287 . S
C753 C754 1.524 . S
C753 H756 0.999 . S
C754 H724 0.950 . S
C754 C753 1.524 . S
C754 C755 1.415 . S
C755 H725 0.950 . S
C755 C750 1.363 . S
C755 C754 1.415 . S
H756 C753 0.999 . S
H757 C738 0.913 . S
H758 C776 0.951 . S
H759 C778 0.951 . S
H760 C780 0.950 . S
H761 C781 0.950 . S
H762 C783 0.950 . S
H763 C786 0.950 . S
H764 C787 0.950 . S
H765 C789 0.950 . S
H766 C790 0.950 . S
H767 C791 0.951 . S
H768 C793 0.951 . S
H769 C795 0.950 . S
H770 C796 0.950 . S
H771 C798 0.950 . S
H772 C801 0.950 1_455 S
H773 C802 0.950 . S
H774 C804 0.950 . S
H775 C805 0.950 . S
C776 H758 0.951 . S
C776 C777 1.366 . S
C776 C778 1.388 . S
C777 C776 1.366 . S
C777 C781 1.385 1_455 S
C778 H759 0.951 . S
C778 C776 1.388 . S
C778 C779 1.366 . S
C779 C778 1.366 . S
C779 C780 1.414 1_455 S
C779 C782 1.499 . S
C780 H760 0.950 . S
C780 C779 1.414 1_655 S
C780 C781 1.374 . S
C781 H761 0.950 . S
C781 C777 1.385 1_655 S
C781 C780 1.374 . S
C782 C779 1.499 . S
C782 C783 1.373 1_445 S
C782 C784 1.389 . S
C783 H762 0.950 . S
C783 C782 1.373 1_665 S
C783 C799 1.377 . S
C784 C782 1.389 . S
C784 C785 1.524 . S
C784 C798 1.377 . S
C785 C784 1.524 . S
C785 C786 1.397 . S
C785 C790 1.363 . S
C786 H763 0.950 . S
C786 C785 1.397 . S
C786 C787 1.334 . S
C787 H764 0.950 . S
C787 C786 1.334 . S
C787 C788 1.287 . S
C788 C787 1.287 . S
C788 C789 1.524 . S
C788 H807 0.913 . S
C789 H765 0.950 . S
C789 C788 1.524 . S
C789 C790 1.415 . S
C790 H766 0.950 . S
C790 C785 1.363 . S
C790 C789 1.415 . S
C791 H767 0.951 . S
C791 C792 1.366 1_655 S
C791 C793 1.388 . S
C792 C791 1.366 1_455 S
C792 C796 1.385 . S
C793 H768 0.951 . S
C793 C791 1.388 . S
C793 C794 1.366 1_655 S
C794 C793 1.366 1_455 S
C794 C795 1.414 . S
C794 C797 1.499 . S
C795 H769 0.950 . S
C795 C794 1.414 . S
C795 C796 1.374 . S
C796 H770 0.950 . S
C796 C792 1.385 . S
C796 C795 1.374 . S
C797 C794 1.499 . S
C797 C798 1.373 . S
C797 C799 1.389 1_445 S
C798 H771 0.950 . S
C798 C784 1.377 . S
C798 C797 1.373 . S
C799 C783 1.377 . S
C799 C797 1.389 1_665 S
C799 C800 1.524 . S
C800 C799 1.524 . S
C800 C801 1.397 . S
C800 C805 1.363 . S
C801 H772 0.950 1_655 S
C801 C800 1.397 . S
C801 C802 1.334 . S
C802 H773 0.950 . S
C802 C801 1.334 . S
C802 C803 1.287 . S
C803 C802 1.287 . S
C803 C804 1.524 . S
C803 H806 0.999 . S
C804 H774 0.950 . S
C804 C803 1.524 . S
C804 C805 1.415 . S
C805 H775 0.950 . S
C805 C800 1.363 . S
C805 C804 1.415 . S
H806 C803 0.999 . S
H807 C788 0.913 . S
H808 C826 0.951 . S
H809 C828 0.951 . S
H810 C830 0.950 . S
H811 C831 0.950 . S
H812 C833 0.950 . S
H813 C836 0.950 . S
H814 C837 0.950 . S
H815 C839 0.950 . S
H816 C840 0.950 . S
H817 C841 0.951 . S
H818 C843 0.951 . S
H819 C845 0.950 . S
H820 C846 0.950 . S
H821 C848 0.950 . S
H822 C851 0.950 . S
H823 C852 0.950 . S
H824 C854 0.950 . S
H825 C855 0.950 . S
C826 H808 0.951 . S
C826 C827 1.366 . S
C826 C828 1.388 . S
C827 C826 1.366 . S
C827 C831 1.385 . S
C828 H809 0.951 . S
C828 C826 1.388 . S
C828 C829 1.366 . S
C829 C828 1.366 . S
C829 C830 1.414 . S
C829 C832 1.499 . S
C830 H810 0.950 . S
C830 C829 1.414 . S
C830 C831 1.374 . S
C831 H811 0.950 . S
C831 C827 1.385 . S
C831 C830 1.374 . S
C832 C829 1.499 . S
C832 C833 1.373 . S
C832 C834 1.389 . S
C833 H812 0.950 . S
C833 C832 1.373 . S
C833 C849 1.377 . S
C834 C832 1.389 . S
C834 C835 1.524 . S
C834 C848 1.377 . S
C835 C834 1.524 . S
C835 C836 1.397 . S
C835 C840 1.363 . S
C836 H813 0.950 . S
C836 C835 1.397 . S
C836 C837 1.334 . S
C837 H814 0.950 . S
C837 C836 1.334 . S
C837 C838 1.287 . S
C838 C837 1.287 . S
C838 C839 1.524 . S
C838 H857 0.913 . S
C839 H815 0.950 . S
C839 C838 1.524 . S
C839 C840 1.415 . S
C840 H816 0.950 . S
C840 C835 1.363 . S
C840 C839 1.415 . S
C841 H817 0.951 . S
C841 C842 1.366 . S
C841 C843 1.388 . S
C842 C841 1.366 . S
C842 C846 1.385 . S
C843 H818 0.951 . S
C843 C841 1.388 . S
C843 C844 1.366 . S
C844 C843 1.366 . S
C844 C845 1.414 . S
C844 C847 1.499 . S
C845 H819 0.950 . S
C845 C844 1.414 . S
C845 C846 1.374 . S
C846 H820 0.950 . S
C846 C842 1.385 . S
C846 C845 1.374 . S
C847 C844 1.499 . S
C847 C848 1.373 . S
C847 C849 1.389 . S
C848 H821 0.950 . S
C848 C834 1.377 . S
C848 C847 1.373 . S
C849 C833 1.377 . S
C849 C847 1.389 . S
C849 C850 1.524 . S
C850 C849 1.524 . S
C850 C851 1.397 . S
C850 C855 1.363 . S
C851 H822 0.950 . S
C851 C850 1.397 . S
C851 C852 1.334 . S
C852 H823 0.950 . S
C852 C851 1.334 . S
C852 C853 1.287 . S
C853 C852 1.287 . S
C853 C854 1.524 . S
C853 H856 0.999 . S
C854 H824 0.950 . S
C854 C853 1.524 . S
C854 C855 1.415 . S
C855 H825 0.950 . S
C855 C850 1.363 . S
C855 C854 1.415 . S
H856 C853 0.999 . S
H857 C838 0.913 . S
H858 C876 0.951 . S
H859 C878 0.951 . S
H860 C880 0.950 . S
H861 C881 0.950 . S
H862 C883 0.950 . S
H863 C886 0.950 . S
H864 C887 0.950 . S
H865 C889 0.950 . S
H866 C890 0.950 . S
H867 C891 0.951 . S
H868 C893 0.951 . S
H869 C895 0.950 . S
H870 C896 0.950 . S
H871 C898 0.950 . S
H872 C901 0.950 . S
H873 C902 0.950 . S
H874 C904 0.950 . S
H875 C905 0.950 . S
C876 H858 0.951 . S
C876 C877 1.366 . S
C876 C878 1.388 . S
C877 C876 1.366 . S
C877 C881 1.385 . S
C878 H859 0.951 . S
C878 C876 1.388 . S
C878 C879 1.366 . S
C879 C878 1.366 . S
C879 C880 1.414 . S
C879 C882 1.499 . S
C880 H860 0.950 . S
C880 C879 1.414 . S
C880 C881 1.374 . S
C881 H861 0.950 . S
C881 C877 1.385 . S
C881 C880 1.374 . S
C882 C879 1.499 . S
C882 C883 1.373 . S
C882 C884 1.389 . S
C883 H862 0.950 . S
C883 C882 1.373 . S
C883 C899 1.377 . S
C884 C882 1.389 . S
C884 C885 1.524 . S
C884 C898 1.377 . S
C885 C884 1.524 . S
C885 C886 1.397 . S
C885 C890 1.363 . S
C886 H863 0.950 . S
C886 C885 1.397 . S
C886 C887 1.334 . S
C887 H864 0.950 . S
C887 C886 1.334 . S
C887 C888 1.287 . S
C888 C887 1.287 . S
C888 C889 1.524 . S
C888 H907 0.913 . S
C889 H865 0.950 . S
C889 C888 1.524 . S
C889 C890 1.415 . S
C890 H866 0.950 . S
C890 C885 1.363 . S
C890 C889 1.415 . S
C891 H867 0.951 . S
C891 C892 1.366 . S
C891 C893 1.388 . S
C892 C891 1.366 . S
C892 C896 1.385 . S
C893 H868 0.951 . S
C893 C891 1.388 . S
C893 C894 1.366 . S
C894 C893 1.366 . S
C894 C895 1.414 . S
C894 C897 1.499 . S
C895 H869 0.950 . S
C895 C894 1.414 . S
C895 C896 1.374 . S
C896 H870 0.950 . S
C896 C892 1.385 . S
C896 C895 1.374 . S
C897 C894 1.499 . S
C897 C898 1.373 . S
C897 C899 1.389 . S
C898 H871 0.950 . S
C898 C884 1.377 . S
C898 C897 1.373 . S
C899 C883 1.377 . S
C899 C897 1.389 . S
C899 C900 1.524 . S
C900 C899 1.524 . S
C900 C901 1.397 . S
C900 C905 1.363 . S
C901 H872 0.950 . S
C901 C900 1.397 . S
C901 C902 1.334 . S
C902 H873 0.950 . S
C902 C901 1.334 . S
C902 C903 1.287 . S
C903 C902 1.287 . S
C903 C904 1.524 . S
C903 H906 0.999 . S
C904 H874 0.950 . S
C904 C903 1.524 . S
C904 C905 1.415 . S
C905 H875 0.950 . S
C905 C900 1.363 . S
C905 C904 1.415 . S
H906 C903 0.999 . S
H907 C888 0.913 . S
C342 C279 1.397 . S
C327 C29 1.406 . S
C377 C8 1.395 . S
C392 C219 1.390 . S
C427 C0 1.387 . S
C442 C249 1.292 . S
C477 C17 1.398 . S
C492 C189 1.302 . S
C527 C63 1.406 . S
C542 C159 1.397 . S
C577 C42 1.395 . S
C592 C99 1.389 . S
C642 C129 1.292 . S
C627 C34 1.387 . S
C692 C69 1.302 . S
C677 C51 1.399 . S
C727 C4 1.479 . S
C742 C88 1.462 . S
C777 C13 1.478 . S
C792 C148 1.453 . S
C842 C208 1.460 . S
C827 C38 1.479 . S
C877 C47 1.478 . S
C892 C268 1.453 . S
