# Generated by pormake.
# Topology sit, (3,6)-cn, num edge types: 1
# Building blocks:
#     Node 0, Type 0, BuildingBlock: BETDIP_clean_linker_0, # of connection points: 3
#     Node 1, Type 0, BuildingBlock: BETDIP_clean_linker_0, # of connection points: 3
#     Node 2, Type 0, BuildingBlock: BETDIP_clean_linker_0, # of connection points: 3
#     Node 3, Type 0, BuildingBlock: BETDIP_clean_linker_0, # of connection points: 3
#     Node 4, Type 1, BuildingBlock: MIDCAF_clean_sbu_0, # of connection points: 6
#     Node 5, Type 1, BuildingBlock: MIDCAF_clean_sbu_0, # of connection points: 6
#     Edge 6, Type (0, 1), BuildingBlock: FUNLAD_clean_linker_0, # of connection points: 2
#     Edge 7, Type (0, 1), BuildingBlock: FUNLAD_clean_linker_0, # of connection points: 2
#     Edge 8, Type (0, 1), BuildingBlock: FUNLAD_clean_linker_0, # of connection points: 2
#     Edge 9, Type (0, 1), BuildingBlock: FUNLAD_clean_linker_0, # of connection points: 2
#     Edge 10, Type (0, 1), BuildingBlock: FUNLAD_clean_linker_0, # of connection points: 2
#     Edge 11, Type (0, 1), BuildingBlock: FUNLAD_clean_linker_0, # of connection points: 2
#     Edge 12, Type (0, 1), BuildingBlock: FUNLAD_clean_linker_0, # of connection points: 2
#     Edge 13, Type (0, 1), BuildingBlock: FUNLAD_clean_linker_0, # of connection points: 2
#     Edge 14, Type (0, 1), BuildingBlock: FUNLAD_clean_linker_0, # of connection points: 2
#     Edge 15, Type (0, 1), BuildingBlock: FUNLAD_clean_linker_0, # of connection points: 2
#     Edge 16, Type (0, 1), BuildingBlock: FUNLAD_clean_linker_0, # of connection points: 2
#     Edge 17, Type (0, 1), BuildingBlock: FUNLAD_clean_linker_0, # of connection points: 2
# Relax obj value: 0.072
# Max RMSD: 0.181
# Mean RMSD: 0.112
data_MOF--net-sit--node1-MIDCAF_clean_sbu_0--node2-BETDIP_clean_linker_0--edge1-FUNLAD_clean_linker_0
_symmetry_space_group_name_H-M    P1
_symmetry_Int_Tables_number       1
_symmetry_cell_setting            triclinic
loop_
_symmetry_equiv_pos_as_xyz
'x, y, z'
_cell_length_a     24.483632
_cell_length_b     38.994699
_cell_length_c     43.458766
_cell_angle_alpha  89.996573
_cell_angle_beta   87.364918
_cell_angle_gamma 83.697405
loop_
_atom_site_label
_atom_site_type_symbol
_atom_site_fract_x
_atom_site_fract_y
_atom_site_fract_z
_atom_type_partial_charge
H0 H 0.9784 0.30348 0.06005 0.0
H1 H 0.15441 0.28483 0.0455 0.0
H2 H 0.06606 0.37408 0.00629 0.0
H3 H 0.14251 0.23094 0.05812 0.0
C4 C 0.10496 0.23109 0.0724 0.0
C5 C 0.01666 0.31133 0.05038 0.0
C6 C 0.01625 0.34168 0.03299 0.0
C7 C 0.06592 0.29035 0.05476 0.0
C8 C 0.11582 0.30039 0.04219 0.0
C9 C 0.11583 0.33058 0.02455 0.0
C10 C 0.06608 0.35111 0.02035 0.0
N11 N 0.06306 0.25934 0.07167 0.0
H12 H 0.92252 0.74866 0.03279 0.0
H13 H 0.09965 0.73797 0.03546 0.0
H14 H 0.02009 0.6724 0.97664 0.0
H15 H 0.08407 0.79479 0.04977 0.0
C16 C 0.04584 0.79678 0.06367 0.0
C17 C 0.96243 0.73611 0.02495 0.0
C18 C 0.96597 0.70955 0.00304 0.0
C19 C 0.01036 0.74737 0.0361 0.0
C20 C 0.06228 0.73052 0.02633 0.0
C21 C 0.06578 0.70365 0.00458 0.0
C22 C 0.01755 0.69359 0.99303 0.0
N23 N 0.00445 0.77522 0.05746 0.0
H24 H 0.52869 0.77699 0.52524 0.0
H25 H 0.69412 0.7862 0.551 0.0
H26 H 0.60553 0.86784 0.50122 0.0
H27 H 0.70033 0.72751 0.5495 0.0
C28 C 0.66054 0.72226 0.55935 0.0
C29 C 0.56384 0.79163 0.52545 0.0
C30 C 0.56106 0.82451 0.51211 0.0
C31 C 0.61187 0.77729 0.53901 0.0
C32 C 0.65736 0.79646 0.53976 0.0
C33 C 0.65508 0.82944 0.52651 0.0
C34 C 0.6068 0.84311 0.51272 0.0
N35 N 0.61229 0.74411 0.55257 0.0
H36 H 0.44386 0.23748 0.53523 0.0
H37 H 0.61292 0.22854 0.56051 0.0
H38 H 0.55274 0.14686 0.51008 0.0
H39 H 0.59519 0.28896 0.54867 0.0
C40 C 0.55783 0.29379 0.56323 0.0
C41 C 0.48397 0.2227 0.53572 0.0
C42 C 0.49346 0.19042 0.52105 0.0
C43 C 0.5272 0.237 0.54931 0.0
C44 C 0.57957 0.21798 0.54955 0.0
C45 C 0.58875 0.18506 0.53596 0.0
C46 C 0.5455 0.17168 0.52169 0.0
N47 N 0.51714 0.27051 0.56254 0.0
Zn48 Zn 0.06987 0.07953 0.34903 0.0
Zn49 Zn 0.0738 0.94714 0.35183 0.0
Zn50 Zn 0.07114 0.01441 0.35251 0.0
C51 C 0.04976 0.96748 0.29325 0.0
C52 C -0.00585 0.97171 0.39651 0.0
O53 O 0.14898 0.02925 0.36901 0.0
O54 O 0.15 0.08236 0.35129 0.0
C55 C 0.04139 0.06195 0.29267 0.0
O56 O 0.06022 0.99633 0.30489 0.0
O57 O 0.04827 0.94108 0.30989 0.0
O58 O 0.02149 0.94392 0.38753 0.0
O59 O 0.00436 1.0008 0.38478 0.0
O60 O 0.03539 0.08872 0.30927 0.0
O61 O 0.05806 0.03245 0.30438 0.0
O62 O 0.00536 0.03681 0.38539 0.0
O63 O 0.02536 0.09067 0.38762 0.0
C64 C -0.00188 0.0671 0.39774 0.0
O65 O 0.15095 0.99227 0.36943 0.0
O66 O 0.15312 0.93655 0.35922 0.0
C67 C 0.17347 0.05658 0.36481 0.0
C68 C 0.17622 0.96149 0.3691 0.0
Zn69 Zn 0.52585 0.57396 0.84544 0.0
Zn70 Zn 0.59655 0.44536 0.84437 0.0
Zn71 Zn 0.55794 0.51081 0.84693 0.0
C72 C 0.58856 0.46482 0.78416 0.0
C73 C 0.49171 0.45141 0.8755 0.0
O74 O 0.61164 0.53769 0.87592 0.0
O75 O 0.56187 0.58816 0.88257 0.0
C76 C 0.56915 0.56014 0.78787 0.0
O77 O 0.57206 0.49372 0.79788 0.0
O78 O 0.60268 0.43814 0.7995 0.0
O79 O 0.53273 0.42978 0.86855 0.0
O80 O 0.49226 0.48338 0.86822 0.0
O81 O 0.55886 0.58616 0.80521 0.0
O82 O 0.56576 0.52963 0.79869 0.0
O83 O 0.47339 0.51947 0.86761 0.0
O84 O 0.44582 0.57115 0.84955 0.0
C85 C 0.43535 0.54455 0.86421 0.0
O86 O 0.63152 0.50235 0.87534 0.0
O87 O 0.66469 0.44812 0.86588 0.0
C88 C 0.60299 0.56752 0.88911 0.0
C89 C 0.66813 0.47651 0.87914 0.0
C90 C 0.04755 0.19885 0.10918 0.0
C91 C 0.09729 0.201 0.09223 0.0
C92 C 0.0416 0.17121 0.12903 0.0
C93 C 0.08529 0.14498 0.1323 0.0
C94 C 0.13465 0.14692 0.11491 0.0
C95 C 0.14048 0.17454 0.0949 0.0
C96 C 0.083 0.11779 0.15618 0.0
C97 C 0.03563 0.10802 0.16852 0.0
C98 C 0.03308 0.08929 0.1982 0.0
C99 C 0.98773 0.09819 0.21867 0.0
C100 C 0.98863 0.08704 0.24917 0.0
C101 C 0.03423 0.06599 0.25945 0.0
H102 H 0.11186 0.05784 0.19244 0.0
C103 C 0.07743 0.05445 0.23838 0.0
C104 C 0.0769 0.06596 0.20789 0.0
H105 H 0.1135 0.03881 0.24605 0.0
H106 H 0.01345 0.21886 0.10768 0.0
H107 H 0.0035 0.17149 0.14269 0.0
H108 H 0.1692 0.12735 0.11725 0.0
H109 H 0.17924 0.17562 0.08206 0.0
H110 H 0.12186 0.10772 0.16557 0.0
H111 H -0.00324 0.11799 0.15913 0.0
H112 H 0.95329 0.11591 0.21172 0.0
H113 H 0.95501 0.09638 0.26515 0.0
C114 C 0.07619 0.84554 0.09339 0.0
C115 C 0.03601 0.82346 0.08807 0.0
C116 C 0.06828 0.86989 0.11731 0.0
C117 C 0.01977 0.87258 0.1363 0.0
C118 C 0.97936 0.8508 0.1305 0.0
C119 C 0.98721 0.82661 0.10661 0.0
C120 C 0.01175 0.89506 0.1641 0.0
C121 C 0.03913 0.92263 0.16892 0.0
C122 C 0.03644 0.94053 0.19928 0.0
C123 C 0.0827 0.95562 0.20845 0.0
C124 C 0.08554 0.96701 0.2388 0.0
C125 C 0.04184 0.96391 0.26022 0.0
H126 H 0.9534 0.93039 0.21373 0.0
C127 C -0.00607 0.95141 0.25056 0.0
C128 C -0.00917 0.94029 0.22023 0.0
H129 H 0.95974 0.94889 0.26684 0.0
H130 H 0.11424 0.84351 0.07943 0.0
H131 H 0.10114 0.88546 0.12143 0.0
H132 H 0.94182 0.85209 0.14488 0.0
H133 H 0.95535 0.81 0.10312 0.0
H134 H 0.98345 0.88716 0.182 0.0
H135 H 0.06802 0.93045 0.15131 0.0
H136 H 0.11817 0.95648 0.19272 0.0
H137 H 0.12333 0.97593 0.24604 0.0
C138 C 0.60705 0.68487 0.59365 0.0
C139 C 0.65768 0.69296 0.58073 0.0
C140 C 0.60533 0.65913 0.61592 0.0
C141 C 0.65431 0.64084 0.62567 0.0
C142 C 0.70471 0.6483 0.61197 0.0
C143 C 0.70637 0.67397 0.58961 0.0
C144 C 0.65485 0.61731 0.6526 0.0
C145 C 0.61059 0.60254 0.66341 0.0
C146 C 0.60706 0.58685 0.69453 0.0
C147 C 0.56692 0.56441 0.70123 0.0
C148 C 0.5565 0.55384 0.73153 0.0
C149 C 0.58595 0.56564 0.75554 0.0
H150 H 0.66782 0.61567 0.71488 0.0
C151 C 0.62719 0.58709 0.74882 0.0
C152 C 0.63782 0.59754 0.71867 0.0
H153 H 0.64976 0.59692 0.76716 0.0
H154 H 0.56876 0.69909 0.58728 0.0
H155 H 0.5657 0.65496 0.62641 0.0
H156 H 0.74307 0.63489 0.61922 0.0
H157 H 0.74591 0.67974 0.57996 0.0
H158 H 0.69281 0.61338 0.66474 0.0
H159 H 0.57437 0.60343 0.64981 0.0
H160 H 0.54196 0.55626 0.68322 0.0
H161 H 0.52303 0.53845 0.73646 0.0
C162 C 0.58963 0.34827 0.58185 0.0
C163 C 0.55044 0.32458 0.58343 0.0
C164 C 0.58584 0.37609 0.60241 0.0
C165 C 0.54303 0.38041 0.62535 0.0
C166 C 0.50239 0.35758 0.62581 0.0
C167 C 0.50603 0.32991 0.60511 0.0
C168 C 0.54086 0.40669 0.65038 0.0
C169 C 0.5852 0.42134 0.65903 0.0
C170 C 0.58653 0.43929 0.6891 0.0
C171 C 0.63636 0.43647 0.70413 0.0
C172 C 0.63769 0.4471 0.73471 0.0
C173 C 0.5895 0.46158 0.75052 0.0
H174 H 0.50017 0.4597 0.69313 0.0
C175 C 0.54046 0.46699 0.73493 0.0
C176 C 0.53896 0.45611 0.70432 0.0
H177 H 0.50269 0.47773 0.74694 0.0
H178 H 0.62382 0.34494 0.56499 0.0
H179 H 0.61695 0.3937 0.60036 0.0
H180 H 0.46868 0.36037 0.64299 0.0
H181 H 0.47493 0.31219 0.60676 0.0
H182 H 0.50312 0.41046 0.66468 0.0
H183 H 0.62432 0.41558 0.64635 0.0
H184 H 0.67368 0.4239 0.69289 0.0
H185 H 0.67584 0.44248 0.74649 0.0
C186 C 0.16693 0.35 0.97793 0.0
C187 C 0.16691 0.34043 0.00909 0.0
C188 C 0.21308 0.36213 0.96359 0.0
C189 C 0.26023 0.36529 0.98021 0.0
C190 C 0.26112 0.35423 0.01099 0.0
C191 C 0.2148 0.34194 0.02536 0.0
C192 C 0.30935 0.37922 0.96583 0.0
C193 C 0.30642 0.40135 0.94192 0.0
C194 C 0.35501 0.41456 0.92613 0.0
C195 C 0.34665 0.44331 0.90669 0.0
C196 C 0.39093 0.45552 0.89023 0.0
C197 C 0.44445 0.43936 0.89303 0.0
H198 H 0.41715 0.37524 0.94233 0.0
C199 C 0.45287 0.41048 0.91225 0.0
C200 C 0.40873 0.39812 0.92855 0.0
H201 H 0.49371 0.39727 0.91464 0.0
H202 H 0.13098 0.34823 0.96463 0.0
H203 H 0.21157 0.36876 0.93945 0.0
H204 H 0.29728 0.35583 0.02416 0.0
H205 H 0.21584 0.33463 0.0494 0.0
H206 H 0.34838 0.37196 0.97618 0.0
H207 H 0.2664 0.41099 0.93374 0.0
H208 H 0.30565 0.45613 0.9039 0.0
H209 H 0.38301 0.47686 0.87459 0.0
C210 C 0.87713 0.68378 0.00972 0.0
C211 C 0.91666 0.6974 0.99034 0.0
C212 C 0.83653 0.66612 -0.00282 0.0
C213 C 0.83469 0.66222 0.96498 0.0
C214 C 0.87271 0.67756 0.9458 0.0
C215 C 0.91328 0.69491 0.95832 0.0
C216 C 0.7965 0.64093 0.95016 0.0
C217 C 0.75264 0.6289 0.96447 0.0
C218 C 0.71523 0.60931 0.94736 0.0
C219 C 0.65843 0.61555 0.95385 0.0
C220 C 0.62188 0.60081 0.93549 0.0
C221 C 0.64165 0.57895 0.91081 0.0
H222 H 0.77886 0.57988 0.91872 0.0
C223 C 0.69851 0.57098 0.90546 0.0
C224 C 0.73511 0.58596 0.92366 0.0
H225 H 0.71464 0.55431 0.88646 0.0
H226 H 0.87957 0.68505 0.03451 0.0
H227 H 0.80857 0.65445 0.01289 0.0
H228 H 0.87219 0.67519 0.92097 0.0
H229 H 0.94345 0.70527 0.94296 0.0
H230 H 0.80419 0.63573 0.92566 0.0
H231 H 0.74074 0.63602 0.98815 0.0
H232 H 0.64224 0.63315 0.97218 0.0
H233 H 0.57807 0.60719 0.94009 0.0
C234 C 0.95946 0.398 0.02359 0.0
C235 C 0.96393 0.36175 0.02486 0.0
C236 C 0.91512 0.41649 0.00964 0.0
C237 C 0.8743 0.39896 -0.00318 0.0
C238 C 0.87674 0.36301 0.00026 0.0
C239 C 0.92098 0.34458 0.01417 0.0
C240 C 0.83353 0.41598 0.97594 0.0
C241 C 0.82067 0.4503 0.97322 0.0
C242 C 0.78638 0.46364 0.94782 0.0
C243 C 0.73783 0.48572 0.95375 0.0
C244 C 0.70034 0.4925 0.93049 0.0
C245 C 0.71187 0.47781 0.90105 0.0
H246 H 0.83759 0.43491 0.91252 0.0
C247 C 0.76277 0.4584 0.89459 0.0
C248 C 0.79973 0.45142 0.91773 0.0
H249 H 0.77261 0.44687 0.87204 0.0
H250 H -0.00828 0.41193 0.032 0.0
H251 H 0.91508 0.4441 0.00729 0.0
H252 H 0.84584 0.34885 0.99059 0.0
H253 H 0.92336 0.31668 0.01456 0.0
H254 H 0.81466 0.39907 0.96064 0.0
H255 H 0.83423 0.46836 0.98945 0.0
H256 H 0.72708 0.49556 0.9768 0.0
H257 H 0.66088 0.50705 0.93613 0.0
C258 C 0.12934 0.6799 0.96181 0.0
C259 C 0.11875 0.68486 0.99359 0.0
C260 C 0.17235 0.65614 0.95085 0.0
C261 C 0.20568 0.6367 0.97147 0.0
C262 C 0.19805 0.64365 0.00318 0.0
C263 C 0.1545 0.66748 0.01424 0.0
C264 C 0.24905 0.60971 0.95982 0.0
C265 C 0.24174 0.59031 0.93498 0.0
C266 C 0.28786 0.57047 0.91741 0.0
C267 C 0.28717 0.57087 0.88515 0.0
C268 C 0.33441 0.55933 0.86737 0.0
C269 C 0.38241 0.54612 0.88159 0.0
H270 H 0.33549 0.55297 0.95646 0.0
C271 C 0.38137 0.54206 0.9137 0.0
C272 C 0.33441 0.55445 0.93161 0.0
H273 H 0.41821 0.53205 0.92508 0.0
H274 H 0.10277 0.69343 0.94544 0.0
H275 H 0.17887 0.65267 0.92618 0.0
H276 H 0.22416 0.62955 0.01942 0.0
H277 H 0.14696 0.67087 0.03887 0.0
H278 H 0.2882 0.60726 0.97084 0.0
H279 H 0.20201 0.59301 0.92451 0.0
H280 H 0.25153 0.58276 0.87372 0.0
H281 H 0.33456 0.56278 0.84262 0.0
C282 C 0.6973 0.88514 0.52859 0.0
C283 C 0.70378 0.84905 0.52489 0.0
C284 C 0.74109 0.90437 0.52165 0.0
C285 C 0.79229 0.88781 0.51093 0.0
C286 C 0.80002 0.85161 0.50974 0.0
C287 C 0.75613 0.83238 0.51647 0.0
C288 C 0.8372 0.90729 0.49869 0.0
C289 C 0.82754 0.93759 0.48384 0.0
C290 C 0.87075 0.95206 0.46438 0.0
C291 C 0.8558 0.96943 0.43718 0.0
C292 C 0.89617 0.9779 0.41556 0.0
C293 C 0.95192 0.96984 0.42125 0.0
H294 H 0.93968 0.93384 0.49206 0.0
C295 C 0.96695 0.95469 0.44931 0.0
C296 C 0.92673 0.94615 0.47088 0.0
H297 H 0.00994 0.94822 0.45401 0.0
H298 H 0.65778 0.89864 0.53587 0.0
H299 H 0.73432 0.93217 0.52396 0.0
H300 H 0.8393 0.83822 0.50185 0.0
H301 H 0.7625 0.80465 0.51335 0.0
H302 H 0.87848 0.89379 0.49784 0.0
H303 H 0.78551 0.94936 0.482 0.0
H304 H 0.81293 0.97443 0.43171 0.0
H305 H 0.8839 0.98889 0.39371 0.0
C306 C 0.46378 0.16528 0.47283 0.0
C307 C 0.45087 0.17652 0.50324 0.0
C308 C 0.42644 0.14876 0.45656 0.0
C309 C 0.37543 0.14272 0.47055 0.0
C310 C 0.36158 0.15546 0.50052 0.0
C311 C 0.39899 0.17226 0.51677 0.0
C312 C 0.33543 0.12383 0.45456 0.0
C313 C 0.34888 0.10303 0.42992 0.0
C314 C 0.30715 0.08629 0.4136 0.0
C315 C 0.31165 0.08372 0.38133 0.0
C316 C 0.26939 0.07186 0.3651 0.0
C317 C 0.22309 0.06137 0.38107 0.0
H318 H 0.25795 0.07506 0.45446 0.0
C319 C 0.22 0.06211 0.41334 0.0
C320 C 0.26186 0.07425 0.42954 0.0
H321 H 0.18379 0.055 0.42601 0.0
H322 H 0.50322 0.16898 0.46172 0.0
H323 H 0.43805 0.14098 0.4331 0.0
H324 H 0.3222 0.15168 0.51167 0.0
H325 H 0.38818 0.18081 0.54019 0.0
H326 H 0.29302 0.12727 0.46356 0.0
H327 H 0.39068 0.09944 0.42019 0.0
H328 H 0.34643 0.09266 0.36861 0.0
H329 H 0.27181 0.07213 0.34015 0.0
C330 C 0.49149 0.87408 0.50022 0.0
C331 C 0.51178 0.83919 0.49608 0.0
C332 C 0.4487 0.88903 0.48283 0.0
C333 C 0.42553 0.86939 0.46065 0.0
C334 C 0.44443 0.83416 0.45747 0.0
C335 C 0.48714 0.81918 0.47496 0.0
C336 C 0.38154 0.88428 0.44055 0.0
C337 C 0.36833 0.91835 0.4361 0.0
C338 C 0.32302 0.93157 0.41638 0.0
C339 C 0.28906 0.96158 0.42532 0.0
C340 C 0.2424 0.97236 0.40902 0.0
C341 C 0.22989 0.95391 0.38304 0.0
H342 H 0.33844 0.89145 0.38142 0.0
C343 C 0.26572 0.92508 0.37303 0.0
C344 C 0.31198 0.91404 0.38948 0.0
H345 H 0.25702 0.91041 0.35301 0.0
H346 H 0.50911 0.88992 0.5168 0.0
H347 H 0.43423 0.91587 0.48703 0.0
H348 H 0.42697 0.81828 0.44085 0.0
H349 H 0.50217 0.79228 0.47115 0.0
H350 H 0.35919 0.86608 0.42865 0.0
H351 H 0.38883 0.93727 0.4481 0.0
H352 H 0.29686 0.97556 0.44593 0.0
H353 H 0.21417 0.99362 0.41796 0.0
C354 C 0.68971 0.18174 0.52311 0.0
C355 C 0.64416 0.16547 0.53371 0.0
C356 C 0.73912 0.16216 0.51422 0.0
C357 C 0.74398 0.12584 0.51602 0.0
C358 C 0.6996 0.10988 0.52872 0.0
C359 C 0.65027 0.12948 0.53764 0.0
C360 C 0.79101 0.10394 0.50082 0.0
C361 C 0.83992 0.11537 0.49394 0.0
C362 C 0.88192 0.09776 0.47186 0.0
C363 C 0.93526 0.10772 0.4714 0.0
C364 C 0.97364 0.09646 0.44787 0.0
C365 C 0.95949 0.07492 0.42433 0.0
H366 H 0.82725 0.06766 0.4476 0.0
C367 C 0.90698 0.06385 0.4252 0.0
C368 C 0.86837 0.07511 0.44877 0.0
H369 H 0.8947 0.04842 0.40659 0.0
H370 H 0.68598 0.20937 0.51948 0.0
H371 H 0.7717 0.17557 0.50392 0.0
H372 H 0.70217 0.08202 0.53037 0.0
H373 H 0.61591 0.11631 0.54612 0.0
H374 H 0.78377 0.07821 0.49366 0.0
H375 H 0.84896 0.13964 0.50369 0.0
H376 H 0.9467 0.12533 0.48866 0.0
H377 H 0.01404 0.10539 0.44761 0.0
loop_
_geom_bond_atom_site_label_1
_geom_bond_atom_site_label_2
_geom_bond_distance
_geom_bond_site_symmetry_2
_ccdc_geom_bond_type
H0 C5 0.930 . S
H1 C8 0.930 . S
H2 C10 0.930 . S
H3 C4 1.016 . S
C4 H3 1.016 . S
C4 N11 1.286 . S
C5 H0 0.930 . S
C5 C6 1.397 . S
C5 C7 1.361 . S
C6 C5 1.397 . S
C6 C10 1.390 1_554 S
C7 C5 1.361 . S
C7 C8 1.393 . S
C7 N11 1.413 . S
C8 H1 0.930 . S
C8 C7 1.393 . S
C8 C9 1.399 . S
C9 C8 1.399 . S
C9 C10 1.381 1_554 S
C10 H2 0.930 . S
C10 C6 1.390 1_556 S
C10 C9 1.381 1_556 S
N11 C4 1.286 . S
N11 C7 1.413 . S
H12 C17 0.930 . S
H13 C20 0.930 . S
H14 C22 0.944 . S
H15 C16 1.016 . S
C16 H15 1.016 . S
C16 N23 1.286 1_455 S
C17 H12 0.930 . S
C17 C18 1.397 . S
C17 C19 1.361 . S
C18 C17 1.397 . S
C18 C22 1.385 1_654 S
C19 C17 1.361 . S
C19 C20 1.393 1_655 S
C19 N23 1.413 . S
C20 H13 0.930 . S
C20 C19 1.393 1_455 S
C20 C21 1.399 . S
C21 C20 1.399 . S
C21 C22 1.373 1_554 S
C22 H14 0.944 . S
C22 C18 1.385 1_456 S
C22 C21 1.373 1_556 S
N23 C16 1.286 1_655 S
N23 C19 1.413 . S
H24 C29 0.930 . S
H25 C32 0.930 . S
H26 C34 0.930 . S
H27 C28 1.016 . S
C28 H27 1.016 . S
C28 N35 1.286 . S
C29 H24 0.930 . S
C29 C30 1.397 . S
C29 C31 1.361 . S
C30 C29 1.397 . S
C30 C34 1.390 . S
C31 C29 1.361 . S
C31 C32 1.393 . S
C31 N35 1.413 . S
C32 H25 0.930 . S
C32 C31 1.393 . S
C32 C33 1.399 . S
C33 C32 1.399 . S
C33 C34 1.381 . S
C34 H26 0.930 . S
C34 C30 1.390 . S
C34 C33 1.381 . S
N35 C28 1.286 . S
N35 C31 1.413 . S
H36 C41 0.930 . S
H37 C44 0.930 . S
H38 C46 0.930 . S
H39 C40 1.016 . S
C40 H39 1.016 . S
C40 N47 1.286 . S
C41 H36 0.930 . S
C41 C42 1.397 . S
C41 C43 1.361 . S
C42 C41 1.397 . S
C42 C46 1.390 . S
C43 C41 1.361 . S
C43 C44 1.393 . S
C43 N47 1.413 . S
C44 H37 0.930 . S
C44 C43 1.393 . S
C44 C45 1.399 . S
C45 C44 1.399 . S
C45 C46 1.381 . S
C46 H38 0.930 . S
C46 C42 1.390 . S
C46 C45 1.381 . S
N47 C40 1.286 . S
N47 C43 1.413 . S
Zn48 O54 1.920 . S
Zn48 O60 1.898 . S
Zn48 O63 1.905 1_455 S
Zn49 O57 1.905 . S
Zn49 O58 1.898 . S
Zn49 O66 1.920 . S
Zn50 O53 2.080 . S
Zn50 O56 2.114 1_545 S
Zn50 O59 2.120 1_545 S
Zn50 O61 2.120 . S
Zn50 O62 2.114 1_455 S
Zn50 O65 2.080 1_545 S
C51 O56 1.166 . S
C51 O57 1.182 . S
C52 O58 1.167 . S
C52 O59 1.299 . S
O53 Zn50 2.080 . S
O53 C67 1.305 . S
O54 Zn48 1.920 . S
O54 C67 1.234 . S
C55 O60 1.167 . S
C55 O61 1.299 . S
O56 Zn50 2.114 1_565 S
O56 C51 1.166 . S
O57 Zn49 1.905 . S
O57 C51 1.182 . S
O58 Zn49 1.898 . S
O58 C52 1.167 . S
O59 Zn50 2.120 1_565 S
O59 C52 1.299 . S
O60 Zn48 1.898 . S
O60 C55 1.167 . S
O61 Zn50 2.120 . S
O61 C55 1.299 . S
O62 Zn50 2.114 1_655 S
O62 C64 1.166 . S
O63 Zn48 1.905 1_655 S
O63 C64 1.182 . S
C64 O62 1.166 . S
C64 O63 1.182 . S
O65 Zn50 2.080 1_565 S
O65 C68 1.305 . S
O66 Zn49 1.920 . S
O66 C68 1.234 . S
C67 O53 1.305 . S
C67 O54 1.234 . S
C68 O65 1.305 . S
C68 O66 1.234 . S
Zn69 O75 1.920 . S
Zn69 O81 1.898 . S
Zn69 O84 1.905 . S
Zn70 O78 1.905 . S
Zn70 O79 1.898 . S
Zn70 O87 1.920 . S
Zn71 O74 2.080 . S
Zn71 O77 2.114 . S
Zn71 O80 2.120 . S
Zn71 O82 2.120 . S
Zn71 O83 2.114 . S
Zn71 O86 2.080 . S
C72 O77 1.166 . S
C72 O78 1.182 . S
C73 O79 1.167 . S
C73 O80 1.299 . S
O74 Zn71 2.080 . S
O74 C88 1.305 . S
O75 Zn69 1.920 . S
O75 C88 1.234 . S
C76 O81 1.167 . S
C76 O82 1.299 . S
O77 Zn71 2.114 . S
O77 C72 1.166 . S
O78 Zn70 1.905 . S
O78 C72 1.182 . S
O79 Zn70 1.898 . S
O79 C73 1.167 . S
O80 Zn71 2.120 . S
O80 C73 1.299 . S
O81 Zn69 1.898 . S
O81 C76 1.167 . S
O82 Zn71 2.120 . S
O82 C76 1.299 . S
O83 Zn71 2.114 . S
O83 C85 1.166 . S
O84 Zn69 1.905 . S
O84 C85 1.182 . S
C85 O83 1.166 . S
C85 O84 1.182 . S
O86 Zn71 2.080 . S
O86 C89 1.305 . S
O87 Zn70 1.920 . S
O87 C89 1.234 . S
C88 O74 1.305 . S
C88 O75 1.234 . S
C89 O86 1.305 . S
C89 O87 1.234 . S
C90 C91 1.386 . S
C90 C92 1.383 . S
C90 H106 0.951 . S
C91 C90 1.386 . S
C91 C95 1.383 . S
C92 C90 1.383 . S
C92 C93 1.402 . S
C92 H107 0.951 . S
C93 C92 1.402 . S
C93 C94 1.375 . S
C93 C96 1.481 . S
C94 C93 1.375 . S
C94 C95 1.367 . S
C94 H108 0.951 . S
C95 C91 1.383 . S
C95 C94 1.367 . S
C95 H109 0.950 . S
C96 C93 1.481 . S
C96 C97 1.297 . S
C96 H110 0.950 . S
C97 C96 1.297 . S
C97 C98 1.479 . S
C97 H111 0.950 . S
C98 C97 1.479 . S
C98 C99 1.375 . S
C98 C104 1.404 . S
C99 C98 1.375 . S
C99 C100 1.369 . S
C99 H112 0.950 . S
C100 C99 1.369 . S
C100 C101 1.392 . S
C100 H113 0.951 . S
C101 C100 1.392 . S
C101 C103 1.384 . S
H102 C104 0.949 . S
C103 C101 1.384 . S
C103 C104 1.385 . S
C103 H105 0.950 . S
C104 C98 1.404 . S
C104 H102 0.949 . S
C104 C103 1.385 . S
H105 C103 0.950 . S
H106 C90 0.951 . S
H107 C92 0.951 . S
H108 C94 0.951 . S
H109 C95 0.950 . S
H110 C96 0.950 . S
H111 C97 0.950 . S
H112 C99 0.950 . S
H113 C100 0.951 . S
C114 C115 1.386 . S
C114 C116 1.383 . S
C114 H130 0.951 . S
C115 C114 1.386 . S
C115 C119 1.383 1_455 S
C116 C114 1.383 . S
C116 C117 1.402 . S
C116 H131 0.951 . S
C117 C116 1.402 . S
C117 C118 1.375 1_455 S
C117 C120 1.481 . S
C118 C117 1.375 1_655 S
C118 C119 1.367 . S
C118 H132 0.951 . S
C119 C115 1.383 1_655 S
C119 C118 1.367 . S
C119 H133 0.950 . S
C120 C117 1.481 . S
C120 C121 1.297 . S
C120 H134 0.950 1_455 S
C121 C120 1.297 . S
C121 C122 1.479 . S
C121 H135 0.950 . S
C122 C121 1.479 . S
C122 C123 1.375 . S
C122 C128 1.404 . S
C123 C122 1.375 . S
C123 C124 1.369 . S
C123 H136 0.950 . S
C124 C123 1.369 . S
C124 C125 1.392 . S
C124 H137 0.951 . S
C125 C124 1.392 . S
C125 C127 1.384 . S
H126 C128 0.949 1_655 S
C127 C125 1.384 . S
C127 C128 1.385 . S
C127 H129 0.950 1_455 S
C128 C122 1.404 . S
C128 H126 0.949 1_455 S
C128 C127 1.385 . S
H129 C127 0.950 1_655 S
H130 C114 0.951 . S
H131 C116 0.951 . S
H132 C118 0.951 . S
H133 C119 0.950 . S
H134 C120 0.950 1_655 S
H135 C121 0.950 . S
H136 C123 0.950 . S
H137 C124 0.951 . S
C138 C139 1.386 . S
C138 C140 1.383 . S
C138 H154 0.951 . S
C139 C138 1.386 . S
C139 C143 1.383 . S
C140 C138 1.383 . S
C140 C141 1.402 . S
C140 H155 0.951 . S
C141 C140 1.402 . S
C141 C142 1.375 . S
C141 C144 1.481 . S
C142 C141 1.375 . S
C142 C143 1.367 . S
C142 H156 0.951 . S
C143 C139 1.383 . S
C143 C142 1.367 . S
C143 H157 0.950 . S
C144 C141 1.481 . S
C144 C145 1.297 . S
C144 H158 0.950 . S
C145 C144 1.297 . S
C145 C146 1.479 . S
C145 H159 0.950 . S
C146 C145 1.479 . S
C146 C147 1.375 . S
C146 C152 1.404 . S
C147 C146 1.375 . S
C147 C148 1.369 . S
C147 H160 0.950 . S
C148 C147 1.369 . S
C148 C149 1.392 . S
C148 H161 0.951 . S
C149 C148 1.392 . S
C149 C151 1.384 . S
H150 C152 0.949 . S
C151 C149 1.384 . S
C151 C152 1.385 . S
C151 H153 0.950 . S
C152 C146 1.404 . S
C152 H150 0.949 . S
C152 C151 1.385 . S
H153 C151 0.950 . S
H154 C138 0.951 . S
H155 C140 0.951 . S
H156 C142 0.951 . S
H157 C143 0.950 . S
H158 C144 0.950 . S
H159 C145 0.950 . S
H160 C147 0.950 . S
H161 C148 0.951 . S
C162 C163 1.386 . S
C162 C164 1.383 . S
C162 H178 0.951 . S
C163 C162 1.386 . S
C163 C167 1.383 . S
C164 C162 1.383 . S
C164 C165 1.402 . S
C164 H179 0.951 . S
C165 C164 1.402 . S
C165 C166 1.375 . S
C165 C168 1.481 . S
C166 C165 1.375 . S
C166 C167 1.367 . S
C166 H180 0.951 . S
C167 C163 1.383 . S
C167 C166 1.367 . S
C167 H181 0.950 . S
C168 C165 1.481 . S
C168 C169 1.297 . S
C168 H182 0.950 . S
C169 C168 1.297 . S
C169 C170 1.479 . S
C169 H183 0.950 . S
C170 C169 1.479 . S
C170 C171 1.375 . S
C170 C176 1.404 . S
C171 C170 1.375 . S
C171 C172 1.369 . S
C171 H184 0.950 . S
C172 C171 1.369 . S
C172 C173 1.392 . S
C172 H185 0.951 . S
C173 C172 1.392 . S
C173 C175 1.384 . S
H174 C176 0.949 . S
C175 C173 1.384 . S
C175 C176 1.385 . S
C175 H177 0.950 . S
C176 C170 1.404 . S
C176 H174 0.949 . S
C176 C175 1.385 . S
H177 C175 0.950 . S
H178 C162 0.951 . S
H179 C164 0.951 . S
H180 C166 0.951 . S
H181 C167 0.950 . S
H182 C168 0.950 . S
H183 C169 0.950 . S
H184 C171 0.950 . S
H185 C172 0.951 . S
C186 C187 1.386 . S
C186 C188 1.383 . S
C186 H202 0.951 . S
C187 C186 1.386 . S
C187 C191 1.383 1_556 S
C188 C186 1.383 . S
C188 C189 1.402 . S
C188 H203 0.951 . S
C189 C188 1.402 . S
C189 C190 1.375 1_556 S
C189 C192 1.481 . S
C190 C189 1.375 1_554 S
C190 C191 1.367 . S
C190 H204 0.951 . S
C191 C187 1.383 1_554 S
C191 C190 1.367 . S
C191 H205 0.950 . S
C192 C189 1.481 . S
C192 C193 1.297 . S
C192 H206 0.950 . S
C193 C192 1.297 . S
C193 C194 1.479 . S
C193 H207 0.950 . S
C194 C193 1.479 . S
C194 C195 1.375 . S
C194 C200 1.404 . S
C195 C194 1.375 . S
C195 C196 1.369 . S
C195 H208 0.950 . S
C196 C195 1.369 . S
C196 C197 1.392 . S
C196 H209 0.951 . S
C197 C196 1.392 . S
C197 C199 1.384 . S
H198 C200 0.949 . S
C199 C197 1.384 . S
C199 C200 1.385 . S
C199 H201 0.950 . S
C200 C194 1.404 . S
C200 H198 0.949 . S
C200 C199 1.385 . S
H201 C199 0.950 . S
H202 C186 0.951 . S
H203 C188 0.951 . S
H204 C190 0.951 . S
H205 C191 0.950 . S
H206 C192 0.950 . S
H207 C193 0.950 . S
H208 C195 0.950 . S
H209 C196 0.951 . S
C210 C211 1.386 1_554 S
C210 C212 1.383 1_554 S
C210 H226 0.951 . S
C211 C210 1.386 1_556 S
C211 C215 1.383 . S
C212 C210 1.383 1_556 S
C212 C213 1.402 . S
C212 H227 0.951 1_556 S
C213 C212 1.402 . S
C213 C214 1.375 . S
C213 C216 1.481 . S
C214 C213 1.375 . S
C214 C215 1.367 . S
C214 H228 0.951 . S
C215 C211 1.383 . S
C215 C214 1.367 . S
C215 H229 0.950 . S
C216 C213 1.481 . S
C216 C217 1.297 . S
C216 H230 0.950 . S
C217 C216 1.297 . S
C217 C218 1.479 . S
C217 H231 0.950 . S
C218 C217 1.479 . S
C218 C219 1.375 . S
C218 C224 1.404 . S
C219 C218 1.375 . S
C219 C220 1.369 . S
C219 H232 0.950 . S
C220 C219 1.369 . S
C220 C221 1.392 . S
C220 H233 0.951 . S
C221 C220 1.392 . S
C221 C223 1.384 . S
H222 C224 0.949 . S
C223 C221 1.384 . S
C223 C224 1.385 . S
C223 H225 0.950 . S
C224 C218 1.404 . S
C224 H222 0.949 . S
C224 C223 1.385 . S
H225 C223 0.950 . S
H226 C210 0.951 . S
H227 C212 0.951 1_554 S
H228 C214 0.951 . S
H229 C215 0.950 . S
H230 C216 0.950 . S
H231 C217 0.950 . S
H232 C219 0.950 . S
H233 C220 0.951 . S
C234 C235 1.386 1_655 S
C234 C236 1.383 . S
C234 H250 0.951 1_556 S
C235 C234 1.386 1_455 S
C235 C239 1.383 . S
C236 C234 1.383 . S
C236 C237 1.402 . S
C236 H251 0.951 . S
C237 C236 1.402 . S
C237 C238 1.375 1_655 S
C237 C240 1.481 . S
C238 C237 1.375 1_455 S
C238 C239 1.367 . S
C238 H252 0.951 . S
C239 C235 1.383 . S
C239 C238 1.367 . S
C239 H253 0.950 . S
C240 C237 1.481 . S
C240 C241 1.297 . S
C240 H254 0.950 . S
C241 C240 1.297 . S
C241 C242 1.479 . S
C241 H255 0.950 . S
C242 C241 1.479 . S
C242 C243 1.375 . S
C242 C248 1.404 . S
C243 C242 1.375 . S
C243 C244 1.369 . S
C243 H256 0.950 . S
C244 C243 1.369 . S
C244 C245 1.392 . S
C244 H257 0.951 . S
C245 C244 1.392 . S
C245 C247 1.384 . S
H246 C248 0.949 . S
C247 C245 1.384 . S
C247 C248 1.385 . S
C247 H249 0.950 . S
C248 C242 1.404 . S
C248 H246 0.949 . S
C248 C247 1.385 . S
H249 C247 0.950 . S
H250 C234 0.951 1_554 S
H251 C236 0.951 . S
H252 C238 0.951 . S
H253 C239 0.950 . S
H254 C240 0.950 . S
H255 C241 0.950 . S
H256 C243 0.950 . S
H257 C244 0.951 . S
C258 C259 1.386 . S
C258 C260 1.383 . S
C258 H274 0.951 . S
C259 C258 1.386 . S
C259 C263 1.383 1_556 S
C260 C258 1.383 . S
C260 C261 1.402 . S
C260 H275 0.951 . S
C261 C260 1.402 . S
C261 C262 1.375 . S
C261 C264 1.481 . S
C262 C261 1.375 . S
C262 C263 1.367 1_556 S
C262 H276 0.951 . S
C263 C259 1.383 1_554 S
C263 C262 1.367 1_554 S
C263 H277 0.950 . S
C264 C261 1.481 . S
C264 C265 1.297 . S
C264 H278 0.950 . S
C265 C264 1.297 . S
C265 C266 1.479 . S
C265 H279 0.950 . S
C266 C265 1.479 . S
C266 C267 1.375 . S
C266 C272 1.404 . S
C267 C266 1.375 . S
C267 C268 1.369 . S
C267 H280 0.950 . S
C268 C267 1.369 . S
C268 C269 1.392 . S
C268 H281 0.951 . S
C269 C268 1.392 . S
C269 C271 1.384 . S
H270 C272 0.949 . S
C271 C269 1.384 . S
C271 C272 1.385 . S
C271 H273 0.950 . S
C272 C266 1.404 . S
C272 H270 0.949 . S
C272 C271 1.385 . S
H273 C271 0.950 . S
H274 C258 0.951 . S
H275 C260 0.951 . S
H276 C262 0.951 . S
H277 C263 0.950 . S
H278 C264 0.950 . S
H279 C265 0.950 . S
H280 C267 0.950 . S
H281 C268 0.951 . S
C282 C283 1.386 . S
C282 C284 1.383 . S
C282 H298 0.951 . S
C283 C282 1.386 . S
C283 C287 1.383 . S
C284 C282 1.383 . S
C284 C285 1.402 . S
C284 H299 0.951 . S
C285 C284 1.402 . S
C285 C286 1.375 . S
C285 C288 1.481 . S
C286 C285 1.375 . S
C286 C287 1.367 . S
C286 H300 0.951 . S
C287 C283 1.383 . S
C287 C286 1.367 . S
C287 H301 0.950 . S
C288 C285 1.481 . S
C288 C289 1.297 . S
C288 H302 0.950 . S
C289 C288 1.297 . S
C289 C290 1.479 . S
C289 H303 0.950 . S
C290 C289 1.479 . S
C290 C291 1.375 . S
C290 C296 1.404 . S
C291 C290 1.375 . S
C291 C292 1.369 . S
C291 H304 0.950 . S
C292 C291 1.369 . S
C292 C293 1.392 . S
C292 H305 0.951 . S
C293 C292 1.392 . S
C293 C295 1.384 . S
H294 C296 0.949 . S
C295 C293 1.384 . S
C295 C296 1.385 . S
C295 H297 0.950 1_655 S
C296 C290 1.404 . S
C296 H294 0.949 . S
C296 C295 1.385 . S
H297 C295 0.950 1_455 S
H298 C282 0.951 . S
H299 C284 0.951 . S
H300 C286 0.951 . S
H301 C287 0.950 . S
H302 C288 0.950 . S
H303 C289 0.950 . S
H304 C291 0.950 . S
H305 C292 0.951 . S
C306 C307 1.386 . S
C306 C308 1.383 . S
C306 H322 0.951 . S
C307 C306 1.386 . S
C307 C311 1.383 . S
C308 C306 1.383 . S
C308 C309 1.402 . S
C308 H323 0.951 . S
C309 C308 1.402 . S
C309 C310 1.375 . S
C309 C312 1.481 . S
C310 C309 1.375 . S
C310 C311 1.367 . S
C310 H324 0.951 . S
C311 C307 1.383 . S
C311 C310 1.367 . S
C311 H325 0.950 . S
C312 C309 1.481 . S
C312 C313 1.297 . S
C312 H326 0.950 . S
C313 C312 1.297 . S
C313 C314 1.479 . S
C313 H327 0.950 . S
C314 C313 1.479 . S
C314 C315 1.375 . S
C314 C320 1.404 . S
C315 C314 1.375 . S
C315 C316 1.369 . S
C315 H328 0.950 . S
C316 C315 1.369 . S
C316 C317 1.392 . S
C316 H329 0.951 . S
C317 C316 1.392 . S
C317 C319 1.384 . S
H318 C320 0.949 . S
C319 C317 1.384 . S
C319 C320 1.385 . S
C319 H321 0.950 . S
C320 C314 1.404 . S
C320 H318 0.949 . S
C320 C319 1.385 . S
H321 C319 0.950 . S
H322 C306 0.951 . S
H323 C308 0.951 . S
H324 C310 0.951 . S
H325 C311 0.950 . S
H326 C312 0.950 . S
H327 C313 0.950 . S
H328 C315 0.950 . S
H329 C316 0.951 . S
C330 C331 1.386 . S
C330 C332 1.383 . S
C330 H346 0.951 . S
C331 C330 1.386 . S
C331 C335 1.383 . S
C332 C330 1.383 . S
C332 C333 1.402 . S
C332 H347 0.951 . S
C333 C332 1.402 . S
C333 C334 1.375 . S
C333 C336 1.481 . S
C334 C333 1.375 . S
C334 C335 1.367 . S
C334 H348 0.951 . S
C335 C331 1.383 . S
C335 C334 1.367 . S
C335 H349 0.950 . S
C336 C333 1.481 . S
C336 C337 1.297 . S
C336 H350 0.950 . S
C337 C336 1.297 . S
C337 C338 1.479 . S
C337 H351 0.950 . S
C338 C337 1.479 . S
C338 C339 1.375 . S
C338 C344 1.404 . S
C339 C338 1.375 . S
C339 C340 1.369 . S
C339 H352 0.950 . S
C340 C339 1.369 . S
C340 C341 1.392 . S
C340 H353 0.951 . S
C341 C340 1.392 . S
C341 C343 1.384 . S
H342 C344 0.949 . S
C343 C341 1.384 . S
C343 C344 1.385 . S
C343 H345 0.950 . S
C344 C338 1.404 . S
C344 H342 0.949 . S
C344 C343 1.385 . S
H345 C343 0.950 . S
H346 C330 0.951 . S
H347 C332 0.951 . S
H348 C334 0.951 . S
H349 C335 0.950 . S
H350 C336 0.950 . S
H351 C337 0.950 . S
H352 C339 0.950 . S
H353 C340 0.951 . S
C354 C355 1.386 . S
C354 C356 1.383 . S
C354 H370 0.951 . S
C355 C354 1.386 . S
C355 C359 1.383 . S
C356 C354 1.383 . S
C356 C357 1.402 . S
C356 H371 0.951 . S
C357 C356 1.402 . S
C357 C358 1.375 . S
C357 C360 1.481 . S
C358 C357 1.375 . S
C358 C359 1.367 . S
C358 H372 0.951 . S
C359 C355 1.383 . S
C359 C358 1.367 . S
C359 H373 0.950 . S
C360 C357 1.481 . S
C360 C361 1.297 . S
C360 H374 0.950 . S
C361 C360 1.297 . S
C361 C362 1.479 . S
C361 H375 0.950 . S
C362 C361 1.479 . S
C362 C363 1.375 . S
C362 C368 1.404 . S
C363 C362 1.375 . S
C363 C364 1.369 . S
C363 H376 0.950 . S
C364 C363 1.369 . S
C364 C365 1.392 . S
C364 H377 0.951 . S
C365 C364 1.392 . S
C365 C367 1.384 . S
H366 C368 0.949 . S
C367 C365 1.384 . S
C367 C368 1.385 . S
C367 H369 0.950 . S
C368 C362 1.404 . S
C368 H366 0.949 . S
C368 C367 1.385 . S
H369 C367 0.950 . S
H370 C354 0.951 . S
H371 C356 0.951 . S
H372 C358 0.951 . S
H373 C359 0.950 . S
H374 C360 0.950 . S
H375 C361 0.950 . S
H376 C363 0.950 . S
H377 C364 0.951 . S
C101 C55 1.438 . S
C91 C4 1.533 . S
C125 C51 1.430 . S
C115 C16 1.507 . S
C149 C76 1.462 . S
C139 C28 1.530 . S
C163 C40 1.503 . S
C173 C72 1.414 . S
C187 C9 1.178 1_556 S
C197 C73 1.154 . S
C221 C88 0.986 . S
C211 C18 1.221 1_556 S
C235 C6 1.745 1_556 S
C245 C89 1.647 . S
C269 C85 1.602 . S
C259 C21 1.791 1_556 S
C293 C52 1.068 1_655 S
C283 C33 1.229 . S
C307 C42 1.205 . S
C317 C67 1.117 . S
C341 C68 1.647 . S
C331 C30 1.761 . S
C365 C64 1.661 . S
C355 C45 1.768 . S
