# Generated by pormake.
# Topology sqc, (4,8)-cn, num edge types: 1
# Building blocks:
#     Node 0, Type 0, BuildingBlock: NAWXER_clean_linker_0, # of connection points: 4
#     Node 1, Type 0, BuildingBlock: NAWXER_clean_linker_0, # of connection points: 4
#     Node 2, Type 0, BuildingBlock: NAWXER_clean_linker_0, # of connection points: 4
#     Node 3, Type 0, BuildingBlock: NAWXER_clean_linker_0, # of connection points: 4
#     Node 4, Type 0, BuildingBlock: NAWXER_clean_linker_0, # of connection points: 4
#     Node 5, Type 0, BuildingBlock: NAWXER_clean_linker_0, # of connection points: 4
#     Node 6, Type 0, BuildingBlock: NAWXER_clean_linker_0, # of connection points: 4
#     Node 7, Type 0, BuildingBlock: NAWXER_clean_linker_0, # of connection points: 4
#     Node 8, Type 1, BuildingBlock: VETTIZ_charged_sbu_0, # of connection points: 8
#     Node 9, Type 1, BuildingBlock: VETTIZ_charged_sbu_0, # of connection points: 8
#     Node 10, Type 1, BuildingBlock: VETTIZ_charged_sbu_0, # of connection points: 8
#     Node 11, Type 1, BuildingBlock: VETTIZ_charged_sbu_0, # of connection points: 8
#     Edge 12, Type (0, 1), BuildingBlock: XIVTED_clean_linker_0, # of connection points: 2
#     Edge 13, Type (0, 1), BuildingBlock: XIVTED_clean_linker_0, # of connection points: 2
#     Edge 14, Type (0, 1), BuildingBlock: XIVTED_clean_linker_0, # of connection points: 2
#     Edge 15, Type (0, 1), BuildingBlock: XIVTED_clean_linker_0, # of connection points: 2
#     Edge 16, Type (0, 1), BuildingBlock: XIVTED_clean_linker_0, # of connection points: 2
#     Edge 17, Type (0, 1), BuildingBlock: XIVTED_clean_linker_0, # of connection points: 2
#     Edge 18, Type (0, 1), BuildingBlock: XIVTED_clean_linker_0, # of connection points: 2
#     Edge 19, Type (0, 1), BuildingBlock: XIVTED_clean_linker_0, # of connection points: 2
#     Edge 20, Type (0, 1), BuildingBlock: XIVTED_clean_linker_0, # of connection points: 2
#     Edge 21, Type (0, 1), BuildingBlock: XIVTED_clean_linker_0, # of connection points: 2
#     Edge 22, Type (0, 1), BuildingBlock: XIVTED_clean_linker_0, # of connection points: 2
#     Edge 23, Type (0, 1), BuildingBlock: XIVTED_clean_linker_0, # of connection points: 2
#     Edge 24, Type (0, 1), BuildingBlock: XIVTED_clean_linker_0, # of connection points: 2
#     Edge 25, Type (0, 1), BuildingBlock: XIVTED_clean_linker_0, # of connection points: 2
#     Edge 26, Type (0, 1), BuildingBlock: XIVTED_clean_linker_0, # of connection points: 2
#     Edge 27, Type (0, 1), BuildingBlock: XIVTED_clean_linker_0, # of connection points: 2
#     Edge 28, Type (0, 1), BuildingBlock: XIVTED_clean_linker_0, # of connection points: 2
#     Edge 29, Type (0, 1), BuildingBlock: XIVTED_clean_linker_0, # of connection points: 2
#     Edge 30, Type (0, 1), BuildingBlock: XIVTED_clean_linker_0, # of connection points: 2
#     Edge 31, Type (0, 1), BuildingBlock: XIVTED_clean_linker_0, # of connection points: 2
#     Edge 32, Type (0, 1), BuildingBlock: XIVTED_clean_linker_0, # of connection points: 2
#     Edge 33, Type (0, 1), BuildingBlock: XIVTED_clean_linker_0, # of connection points: 2
#     Edge 34, Type (0, 1), BuildingBlock: XIVTED_clean_linker_0, # of connection points: 2
#     Edge 35, Type (0, 1), BuildingBlock: XIVTED_clean_linker_0, # of connection points: 2
#     Edge 36, Type (0, 1), BuildingBlock: XIVTED_clean_linker_0, # of connection points: 2
#     Edge 37, Type (0, 1), BuildingBlock: XIVTED_clean_linker_0, # of connection points: 2
#     Edge 38, Type (0, 1), BuildingBlock: XIVTED_clean_linker_0, # of connection points: 2
#     Edge 39, Type (0, 1), BuildingBlock: XIVTED_clean_linker_0, # of connection points: 2
#     Edge 40, Type (0, 1), BuildingBlock: XIVTED_clean_linker_0, # of connection points: 2
#     Edge 41, Type (0, 1), BuildingBlock: XIVTED_clean_linker_0, # of connection points: 2
#     Edge 42, Type (0, 1), BuildingBlock: XIVTED_clean_linker_0, # of connection points: 2
#     Edge 43, Type (0, 1), BuildingBlock: XIVTED_clean_linker_0, # of connection points: 2
# Relax obj value: 0.124
# Max RMSD: 0.266
# Mean RMSD: 0.155
data_MOF--net-sqc--node1-VETTIZ_charged_sbu_0--node2-NAWXER_clean_linker_0--edge1-XIVTED_clean_linker_0
_symmetry_space_group_name_H-M    P1
_symmetry_Int_Tables_number       1
_symmetry_cell_setting            triclinic
loop_
_symmetry_equiv_pos_as_xyz
'x, y, z'
_cell_length_a     28.30324
_cell_length_b     28.318471
_cell_length_c     84.194014
_cell_angle_alpha  90.139273
_cell_angle_beta   89.756336
_cell_angle_gamma 89.927187
loop_
_atom_site_label
_atom_site_type_symbol
_atom_site_fract_x
_atom_site_fract_y
_atom_site_fract_z
_atom_type_partial_charge
C0 C 0.16633 0.98859 0.48802 0.0
C1 C 0.17202 0.94033 0.48452 0.0
C2 C 0.12678 0.00448 0.49654 0.0
C3 C 0.09205 0.97243 0.50161 0.0
C4 C 0.13735 0.90831 0.48972 0.0
C5 C 0.09749 0.92431 0.49802 0.0
C6 C 0.04872 0.98909 0.5098 0.0
C7 C 0.16793 0.00962 0.54479 0.0
C8 C 0.17738 0.05774 0.54734 0.0
C9 C 0.12651 0.99571 0.53704 0.0
C10 C 0.09377 0.02974 0.53194 0.0
C11 C 0.14439 0.09157 0.54229 0.0
C12 C 0.10276 0.07765 0.53481 0.0
C13 C 0.04953 0.01603 0.52392 0.0
C14 C 0.84561 0.0157 0.54415 0.0
C15 C 0.83955 0.06291 0.54891 0.0
C16 C 0.88631 0.00186 0.53584 0.0
C17 C 0.92187 0.0349 0.53233 0.0
C18 C 0.87537 0.09577 0.54551 0.0
C19 C 0.91641 0.08175 0.53748 0.0
C20 C 0.96532 0.02058 0.52369 0.0
C21 C 0.85097 0.02188 0.48682 0.0
C22 C 0.84423 0.97949 0.47845 0.0
C23 C 0.88944 0.02706 0.49704 0.0
C24 C 0.92127 0.98952 0.49943 0.0
C25 C 0.87607 0.94203 0.4808 0.0
C26 C 0.91418 0.94703 0.49116 0.0
C27 C 0.9646 0.99585 0.50908 0.0
H28 H 0.19256 0.01403 0.48422 0.0
H29 H 0.12291 0.0419 0.49891 0.0
H30 H 0.14055 0.87101 0.48705 0.0
H31 H 0.07085 0.89908 0.50168 0.0
H32 H 0.19285 0.98291 0.54858 0.0
H33 H 0.11986 0.95847 0.53512 0.0
H34 H 0.15062 0.12886 0.54427 0.0
H35 H 0.07778 0.1044 0.53106 0.0
H36 H 0.81846 0.98975 0.5466 0.0
H37 H 0.89014 0.96533 0.53221 0.0
H38 H 0.87169 0.13231 0.54916 0.0
H39 H 0.94355 0.10771 0.53502 0.0
H40 H 0.82741 0.05156 0.48506 0.0
H41 H 0.89504 0.06102 0.50265 0.0
H42 H 0.87149 0.90877 0.47462 0.0
H43 H 0.93845 0.91774 0.49261 0.0
N44 N 0.00632 0.98031 0.50288 0.0
N45 N 0.00782 0.03052 0.53038 0.0
C46 C 0.31603 0.60964 0.73994 0.0
C47 C 0.30651 0.60008 0.72386 0.0
C48 C 0.29678 0.64942 0.74742 0.0
C49 C 0.26713 0.68043 0.73907 0.0
C50 C 0.27753 0.63173 0.71544 0.0
C51 C 0.25831 0.67161 0.72295 0.0
C52 C 0.24665 0.72273 0.74703 0.0
C53 C 0.17682 0.59771 0.76858 0.0
C54 C 0.18709 0.58993 0.78468 0.0
C55 C 0.18882 0.64037 0.76134 0.0
C56 C 0.21211 0.67595 0.76995 0.0
C57 C 0.2095 0.62604 0.79337 0.0
C58 C 0.22168 0.66869 0.78608 0.0
C59 C 0.22522 0.72105 0.7622 0.0
C60 C 0.17174 0.92663 0.77463 0.0
C61 C 0.18565 0.92968 0.79068 0.0
C62 C 0.18152 0.8862 0.76555 0.0
C63 C 0.20724 0.84838 0.77203 0.0
C64 C 0.2096 0.89075 0.79728 0.0
C65 C 0.22038 0.85091 0.78807 0.0
C66 C 0.21971 0.80542 0.76258 0.0
C67 C 0.27678 0.92842 0.73362 0.0
C68 C 0.2561 0.9312 0.71846 0.0
C69 C 0.27079 0.88814 0.743 0.0
C70 C 0.24346 0.85025 0.73747 0.0
C71 C 0.2289 0.89305 0.71299 0.0
C72 C 0.22286 0.85293 0.72237 0.0
C73 C 0.23771 0.80659 0.74683 0.0
H74 H 0.33905 0.58679 0.74672 0.0
H75 H 0.30545 0.65615 0.75974 0.0
H76 H 0.26907 0.62537 0.70309 0.0
H77 H 0.23588 0.69519 0.71621 0.0
H78 H 0.15976 0.57072 0.76151 0.0
H79 H 0.17972 0.64556 0.74898 0.0
H80 H 0.21701 0.62166 0.80588 0.0
H81 H 0.23898 0.69586 0.79302 0.0
H82 H 0.15349 0.95554 0.76893 0.0
H83 H 0.16883 0.88471 0.75345 0.0
H84 H 0.21967 0.89049 0.80966 0.0
H85 H 0.23938 0.82199 0.79353 0.0
H86 H 0.2987 0.95682 0.73805 0.0
H87 H 0.2879 0.88634 0.75446 0.0
H88 H 0.21222 0.8942 0.70144 0.0
H89 H 0.20188 0.82392 0.71785 0.0
N90 N 0.25091 0.76531 0.73979 0.0
N91 N 0.21371 0.76242 0.76954 0.0
C92 C 0.33278 0.02692 0.98405 0.0
C93 C 0.32561 0.0743 0.97966 0.0
C94 C 0.37095 0.01426 0.9936 0.0
C95 C 0.40281 0.04864 0.99902 0.0
C96 C 0.35725 0.10875 0.98533 0.0
C97 C 0.3957 0.09595 0.99478 0.0
C98 C 0.44574 0.03459 0.00781 0.0
C99 C 0.32736 0.01195 0.04274 0.0
C100 C 0.31689 0.96423 0.04559 0.0
C101 C 0.36829 0.02456 0.03439 0.0
C102 C 0.39984 0.98971 0.02891 0.0
C103 C 0.34819 0.92937 0.03992 0.0
C104 C 0.38958 0.94205 0.03184 0.0
C105 C 0.44447 0.00314 0.02081 0.0
C106 C 0.64676 0.99045 0.04126 0.0
C107 C 0.65775 0.94221 0.03918 0.0
C108 C 0.60455 0.00919 0.03544 0.0
C109 C 0.57195 0.98001 0.0277 0.0
C110 C 0.62452 0.91319 0.03144 0.0
C111 C 0.5818 0.93178 0.02599 0.0
C112 C 0.52866 0.99999 0.02068 0.0
C113 C 0.65016 0.03078 0.98795 0.0
C114 C 0.65857 0.07904 0.98513 0.0
C115 C 0.60854 0.01589 0.99533 0.0
C116 C 0.57477 0.04887 1.00055 0.0
C117 C 0.62451 0.11208 0.99024 0.0
C118 C 0.58297 0.09709 0.99782 0.0
C119 C 0.53003 0.03308 0.00814 0.0
H120 H 0.30986 0.99926 0.97967 0.0
H121 H 0.37647 0.97728 0.99629 0.0
H122 H 0.35249 0.14567 0.98242 0.0
H123 H 0.42004 0.123 0.99873 0.0
H124 H 0.30388 0.03951 0.04697 0.0
H125 H 0.37581 0.06163 0.0325 0.0
H126 H 0.34125 0.89234 0.04212 0.0
H127 H 0.41355 0.91461 0.02782 0.0
H128 H 0.67046 0.0139 0.04751 0.0
H129 H 0.59732 0.04652 0.03695 0.0
H130 H 0.63167 0.87618 0.02928 0.0
H131 H 0.55714 0.90883 0.01992 0.0
H132 H 0.67563 0.00423 0.98437 0.0
H133 H 0.60252 0.97839 0.99668 0.0
H134 H 0.62933 0.14942 0.98805 0.0
H135 H 0.55714 0.12319 1.00153 0.0
N136 N 0.48844 0.04894 1.00213 0.0
N137 N 0.48602 0.98643 0.02662 0.0
C138 C 0.21671 0.10533 0.23434 0.0
C139 C 0.17036 0.10263 0.22841 0.0
C140 C 0.23081 0.14355 0.24374 0.0
C141 C 0.19864 0.17958 0.24777 0.0
C142 C 0.13835 0.13894 0.23236 0.0
C143 C 0.15233 0.17685 0.24191 0.0
C144 C 0.21376 0.22217 0.25678 0.0
C145 C 0.24399 0.11286 0.29534 0.0
C146 C 0.29194 0.10953 0.29959 0.0
C147 C 0.22918 0.14664 0.28433 0.0
C148 C 0.26211 0.17748 0.27745 0.0
C149 C 0.32505 0.13838 0.2918 0.0
C150 C 0.3102 0.1723 0.28095 0.0
C151 C 0.24624 0.22085 0.26949 0.0
C152 C 0.24492 0.4157 0.29656 0.0
C153 C 0.29332 0.42037 0.29996 0.0
C154 C 0.22891 0.37913 0.28678 0.0
C155 C 0.26107 0.34684 0.28009 0.0
C156 C 0.32542 0.38836 0.29304 0.0
C157 C 0.3094 0.35185 0.2833 0.0
C158 C 0.24454 0.30479 0.27128 0.0
C159 C 0.20782 0.42747 0.24041 0.0
C160 C 0.15914 0.43789 0.24078 0.0
C161 C 0.22472 0.38471 0.2463 0.0
C162 C 0.19333 0.35121 0.25249 0.0
C163 C 0.12781 0.40397 0.247 0.0
C164 C 0.14476 0.36078 0.25264 0.0
C165 C 0.21132 0.30635 0.25889 0.0
H166 H 0.24234 0.07798 0.23169 0.0
H167 H 0.26732 0.14536 0.24745 0.0
H168 H 0.10266 0.13877 0.22779 0.0
H169 H 0.12692 0.20443 0.24458 0.0
H170 H 0.21756 0.09131 0.30116 0.0
H171 H 0.19177 0.15078 0.28205 0.0
H172 H 0.36236 0.13586 0.29447 0.0
H173 H 0.33609 0.19601 0.27581 0.0
H174 H 0.2192 0.43932 0.30188 0.0
H175 H 0.19129 0.37512 0.28495 0.0
H176 H 0.36299 0.39138 0.2952 0.0
H177 H 0.3348 0.32711 0.27837 0.0
H178 H 0.233 0.45192 0.23532 0.0
H179 H 0.26233 0.37757 0.24589 0.0
H180 H 0.09023 0.41083 0.24768 0.0
H181 H 0.12008 0.33524 0.25743 0.0
N182 N 0.19725 0.26512 0.25205 0.0
N183 N 0.26053 0.26213 0.27608 0.0
C184 C 0.84212 0.11176 0.25435 0.0
C185 C 0.8271 0.10478 0.2386 0.0
C186 C 0.82812 0.15208 0.26284 0.0
C187 C 0.79885 0.18603 0.25573 0.0
C188 C 0.79677 0.13841 0.23174 0.0
C189 C 0.78326 0.17874 0.24015 0.0
C190 C 0.7865 0.23065 0.26393 0.0
C191 C 0.7068 0.11656 0.28921 0.0
C192 C 0.72189 0.10828 0.30488 0.0
C193 C 0.7216 0.15665 0.28094 0.0
C194 C 0.75191 0.18958 0.28808 0.0
C195 C 0.75191 0.14169 0.31207 0.0
C196 C 0.76643 0.1821 0.30379 0.0
C197 C 0.76676 0.23255 0.27933 0.0
C198 C 0.70527 0.4357 0.28453 0.0
C199 C 0.71469 0.44434 0.3007 0.0
C200 C 0.72103 0.39435 0.27715 0.0
C201 C 0.74835 0.36139 0.28552 0.0
C202 C 0.74111 0.41063 0.30916 0.0
C203 C 0.75774 0.36969 0.30165 0.0
C204 C 0.76472 0.31697 0.27787 0.0
C205 C 0.82693 0.43631 0.2487 0.0
C206 C 0.81655 0.43444 0.23239 0.0
C207 C 0.8171 0.39765 0.25855 0.0
C208 C 0.79519 0.35699 0.25237 0.0
C209 C 0.79568 0.39347 0.22618 0.0
C210 C 0.78502 0.3553 0.23605 0.0
C211 C 0.78465 0.31495 0.26239 0.0
H212 H 0.86583 0.0869 0.25996 0.0
H213 H 0.84125 0.15738 0.27478 0.0
H214 H 0.78348 0.13375 0.2198 0.0
H215 H 0.76053 0.20439 0.23445 0.0
H216 H 0.68266 0.09256 0.28338 0.0
H217 H 0.70872 0.16228 0.26899 0.0
H218 H 0.76463 0.13649 0.32405 0.0
H219 H 0.7895 0.20724 0.30958 0.0
H220 H 0.68562 0.46082 0.27749 0.0
H221 H 0.71155 0.38814 0.26487 0.0
H222 H 0.74822 0.41525 0.32169 0.0
H223 H 0.77791 0.34436 0.30847 0.0
H224 H 0.84376 0.4672 0.25374 0.0
H225 H 0.82706 0.39945 0.27093 0.0
H226 H 0.78722 0.39109 0.21366 0.0
H227 H 0.76855 0.32437 0.23089 0.0
N228 N 0.79443 0.27177 0.2561 0.0
N229 N 0.75692 0.27564 0.28575 0.0
C230 C 0.73085 0.91041 0.73343 0.0
C231 C 0.74577 0.91309 0.71749 0.0
C232 C 0.7408 0.87052 0.74256 0.0
C233 C 0.76662 0.8327 0.73605 0.0
C234 C 0.77076 0.87475 0.7109 0.0
C235 C 0.78093 0.83489 0.72009 0.0
C236 C 0.77683 0.78995 0.74559 0.0
C237 C 0.85146 0.91206 0.76761 0.0
C238 C 0.83435 0.92351 0.78285 0.0
C239 C 0.84041 0.86862 0.76063 0.0
C240 C 0.81148 0.8361 0.76866 0.0
C241 C 0.80701 0.88998 0.79109 0.0
C242 C 0.79582 0.84671 0.78408 0.0
C243 C 0.7964 0.79151 0.761 0.0
C244 C 0.82087 0.58255 0.77588 0.0
C245 C 0.81273 0.58418 0.79241 0.0
C246 C 0.81382 0.62249 0.76642 0.0
C247 C 0.79647 0.66475 0.77306 0.0
C248 C 0.79689 0.62712 0.79908 0.0
C249 C 0.78869 0.66668 0.78953 0.0
C250 C 0.78824 0.70766 0.76318 0.0
C251 C 0.69556 0.5962 0.7408 0.0
C252 C 0.70847 0.58456 0.72512 0.0
C253 C 0.71543 0.63542 0.74834 0.0
C254 C 0.74894 0.66332 0.74038 0.0
C255 C 0.74205 0.61266 0.71722 0.0
C256 C 0.76182 0.65182 0.72475 0.0
C257 C 0.7683 0.7064 0.74778 0.0
H258 H 0.71049 0.93876 0.73876 0.0
H259 H 0.72785 0.86905 0.75467 0.0
H260 H 0.78284 0.87571 0.69868 0.0
H261 H 0.80039 0.80589 0.71476 0.0
H262 H 0.87262 0.93697 0.76094 0.0
H263 H 0.8539 0.86074 0.74886 0.0
H264 H 0.79429 0.8971 0.803 0.0
H265 H 0.77395 0.82193 0.79057 0.0
H266 H 0.83268 0.55041 0.77013 0.0
H267 H 0.82236 0.62016 0.75391 0.0
H268 H 0.79149 0.63074 0.81175 0.0
H269 H 0.77621 0.69895 0.79508 0.0
H270 H 0.66923 0.57575 0.74711 0.0
H271 H 0.70403 0.64442 0.76027 0.0
H272 H 0.75321 0.60432 0.70522 0.0
H273 H 0.78734 0.67313 0.71837 0.0
N274 N 0.76385 0.74743 0.73959 0.0
N275 N 0.80112 0.75041 0.76921 0.0
C276 C 0.66471 0.47881 0.98639 0.0
C277 C 0.67143 0.43183 0.98134 0.0
C278 C 0.62672 0.49084 0.99628 0.0
C279 C 0.59458 0.4562 1.00134 0.0
C280 C 0.6397 0.39709 0.98678 0.0
C281 C 0.60144 0.40926 0.99652 0.0
C282 C 0.55131 0.46951 0.01023 0.0
C283 C 0.66778 0.48905 0.04608 0.0
C284 C 0.67807 0.53665 0.04928 0.0
C285 C 0.62743 0.4768 0.03744 0.0
C286 C 0.59621 0.51189 0.03207 0.0
C287 C 0.64724 0.57176 0.04366 0.0
C288 C 0.60633 0.55943 0.03532 0.0
C289 C 0.5519 0.4988 0.02383 0.0
C290 C 0.34593 0.50021 0.04325 0.0
C291 C 0.33793 0.5488 0.04557 0.0
C292 C 0.38845 0.48411 0.03669 0.0
C293 C 0.42369 0.51626 0.0321 0.0
C294 C 0.37388 0.5808 0.04137 0.0
C295 C 0.41642 0.56464 0.03478 0.0
C296 C 0.46751 0.49978 0.02412 0.0
C297 C 0.34614 0.47351 0.99127 0.0
C298 C 0.33885 0.42579 0.98723 0.0
C299 C 0.38781 0.48791 0.99865 0.0
C300 C 0.42275 0.4548 0.00263 0.0
C301 C 0.37435 0.3928 0.99096 0.0
C302 C 0.4159 0.40722 0.99854 0.0
C303 C 0.46695 0.46976 0.01065 0.0
H304 H 0.68775 0.50672 0.98225 0.0
H305 H 0.62145 0.52756 0.99946 0.0
H306 H 0.64414 0.36042 0.98342 0.0
H307 H 0.57693 0.38201 1.00021 0.0
H308 H 0.69095 0.46133 0.05029 0.0
H309 H 0.62 0.43983 0.03527 0.0
H310 H 0.65412 0.60868 0.0461 0.0
H311 H 0.58258 0.58702 0.03139 0.0
H312 H 0.31903 0.47457 0.04629 0.0
H313 H 0.39357 0.44652 0.03499 0.0
H314 H 0.36932 0.61836 0.0433 0.0
H315 H 0.44327 0.59004 0.03146 0.0
H316 H 0.31957 0.49997 0.98876 0.0
H317 H 0.39269 0.52507 1.00121 0.0
H318 H 0.37051 0.35595 0.98777 0.0
H319 H 0.44264 0.3811 1.00128 0.0
N320 N 0.5089 0.45578 0.00426 0.0
N321 N 0.50996 0.51322 0.03018 0.0
C322 C 0.84804 0.46921 0.52997 0.0
C323 C 0.85135 0.42598 0.53814 0.0
C324 C 0.88423 0.4837 0.51971 0.0
C325 C 0.92386 0.45472 0.51717 0.0
C326 C 0.89038 0.39651 0.5351 0.0
C327 C 0.92602 0.41066 0.52471 0.0
C328 C 0.96681 0.47267 0.50918 0.0
C329 C 0.85488 0.47687 0.47138 0.0
C330 C 0.84818 0.52109 0.46418 0.0
C331 C 0.89341 0.4692 0.48142 0.0
C332 C 0.92529 0.50598 0.48475 0.0
C333 C 0.88045 0.55755 0.46736 0.0
C334 C 0.91856 0.55004 0.4775 0.0
C335 C 0.96741 0.49852 0.49485 0.0
C336 C 0.17612 0.52323 0.48222 0.0
C337 C 0.17509 0.56916 0.47594 0.0
C338 C 0.13594 0.50407 0.48943 0.0
C339 C 0.09427 0.53085 0.49077 0.0
C340 C 0.13326 0.5957 0.47716 0.0
C341 C 0.09325 0.57668 0.48448 0.0
C342 C 0.0507 0.51064 0.49776 0.0
C343 C 0.15301 0.50585 0.53958 0.0
C344 C 0.15956 0.46037 0.54591 0.0
C345 C 0.11879 0.51375 0.52791 0.0
C346 C 0.09115 0.47614 0.52227 0.0
C347 C 0.13275 0.42275 0.53986 0.0
C348 C 0.09881 0.43061 0.52824 0.0
C349 C 0.04993 0.4842 0.51193 0.0
H350 H 0.81817 0.49252 0.53181 0.0
H351 H 0.88221 0.51845 0.51442 0.0
H352 H 0.89483 0.3634 0.54131 0.0
H353 H 0.95653 0.38794 0.52312 0.0
H354 H 0.83087 0.44799 0.46899 0.0
H355 H 0.89863 0.43433 0.48636 0.0
H356 H 0.87588 0.59221 0.46217 0.0
H357 H 0.94276 0.5789 0.47975 0.0
H358 H 0.2076 0.50164 0.48118 0.0
H359 H 0.13725 0.46798 0.49362 0.0
H360 H 0.13153 0.63131 0.47252 0.0
H361 H 0.06142 0.59789 0.48524 0.0
H362 H 0.17303 0.53555 0.54407 0.0
H363 H 0.11266 0.54942 0.52378 0.0
H364 H 0.13766 0.38715 0.54424 0.0
H365 H 0.07772 0.40113 0.52413 0.0
N366 N 0.00811 0.46643 0.51699 0.0
N367 N 0.00936 0.51675 0.4898 0.0
Fe368 Fe 0.99082 0.76492 0.15617 0.0
O369 O 0.03253 0.73489 0.13991 0.0
Fe370 Fe 0.88499 0.7807 0.13704 0.0
Fe371 Fe 0.10147 0.74078 0.1405 0.0
O372 O 0.954 0.78696 0.13752 0.0
O373 O 0.95425 0.78652 0.1359 0.0
O374 O 0.03255 0.73403 0.13834 0.0
Fe375 Fe 0.99529 0.75532 0.11945 0.0
C376 C 0.07249 0.82978 0.15927 0.0
O377 O 0.03379 0.73568 0.17383 0.0
O378 O 0.09359 0.69783 0.16002 0.0
O379 O 0.95551 0.69402 0.11985 0.0
O380 O 0.88246 0.72385 0.12195 0.0
O381 O 0.88073 0.73441 0.15631 0.0
O382 O 0.95271 0.70382 0.15723 0.0
O383 O 0.09974 0.6898 0.12292 0.0
O384 O 0.04484 0.7189 0.10502 0.0
C385 C 0.90897 0.70144 0.1603 0.0
O386 O 0.94924 0.78273 0.10209 0.0
O387 O 0.89074 0.82106 0.11667 0.0
O388 O 0.02914 0.826 0.15574 0.0
O389 O 0.10185 0.79651 0.1566 0.0
C390 C 0.06812 0.70522 0.17265 0.0
C391 C 0.08006 0.69141 0.10898 0.0
C392 C 0.07998 0.81902 0.11624 0.0
O393 O 0.10747 0.78858 0.12235 0.0
O394 O 0.03507 0.8162 0.11711 0.0
C395 C 0.91086 0.69096 0.11805 0.0
O396 O 0.8896 0.83384 0.1536 0.0
O397 O 0.94302 0.80162 0.17105 0.0
C398 C 0.91342 0.81164 0.10355 0.0
C399 C 0.91141 0.83299 0.16713 0.0
Fe400 Fe 0.54396 0.76402 0.42521 0.0
O401 O 0.54093 0.76747 0.40187 0.0
Fe402 Fe 0.50735 0.82659 0.39176 0.0
Fe403 Fe 0.50984 0.71734 0.38886 0.0
O404 O 0.5407 0.77235 0.40202 0.0
O405 O 0.47707 0.77613 0.37867 0.0
O406 O 0.47741 0.7716 0.3785 0.0
Fe407 Fe 0.47219 0.77847 0.35548 0.0
C408 C 0.58386 0.6731 0.41157 0.0
O409 O 0.49461 0.71066 0.42727 0.0
O410 O 0.45463 0.71321 0.40465 0.0
O411 O 0.42533 0.83162 0.36102 0.0
O412 O 0.46701 0.87654 0.37915 0.0
O413 O 0.4521 0.82257 0.40763 0.0
O414 O 0.49101 0.81221 0.43029 0.0
O415 O 0.47155 0.67177 0.3739 0.0
O416 O 0.42738 0.72155 0.35814 0.0
C417 C 0.45392 0.82372 0.4227 0.0
O418 O 0.52206 0.83124 0.35299 0.0
O419 O 0.56199 0.83432 0.37576 0.0
O420 O 0.59139 0.7112 0.41979 0.0
O421 O 0.54949 0.66685 0.40151 0.0
C422 C 0.45706 0.70374 0.41935 0.0
C423 C 0.43735 0.68022 0.36395 0.0
C424 C 0.5596 0.71335 0.35778 0.0
O425 O 0.56464 0.71871 0.37269 0.0
O426 O 0.52336 0.72877 0.35051 0.0
C427 C 0.43288 0.87022 0.36898 0.0
O428 O 0.54528 0.87216 0.40696 0.0
O429 O 0.58805 0.82133 0.42298 0.0
C430 C 0.55764 0.84439 0.3611 0.0
C431 C 0.5795 0.86238 0.41678 0.0
Fe432 Fe 0.49958 0.22235 0.67313 0.0
O433 O 0.50324 0.22503 0.64971 0.0
Fe434 Fe 0.44873 0.26128 0.63794 0.0
Fe435 Fe 0.55786 0.25412 0.63818 0.0
O436 O 0.49845 0.22566 0.64976 0.0
O437 O 0.50347 0.29006 0.62657 0.0
O438 O 0.50789 0.28958 0.62655 0.0
Fe439 Fe 0.50685 0.29687 0.60352 0.0
C440 C 0.5655 0.30632 0.66911 0.0
O441 O 0.55236 0.17318 0.66955 0.0
O442 O 0.6029 0.21186 0.65219 0.0
O443 O 0.45326 0.24932 0.5993 0.0
O444 O 0.4437 0.20746 0.62151 0.0
O445 O 0.39765 0.22515 0.6516 0.0
O446 O 0.44171 0.18026 0.66913 0.0
O447 O 0.55857 0.20021 0.62159 0.0
O448 O 0.55526 0.24383 0.59959 0.0
C449 C 0.40294 0.1908 0.66175 0.0
O450 O 0.45397 0.34552 0.60778 0.0
O451 O 0.40371 0.30352 0.62411 0.0
O452 O 0.55364 0.26982 0.67692 0.0
O453 O 0.56068 0.30871 0.65416 0.0
C454 C 0.59276 0.1787 0.6624 0.0
C455 C 0.56726 0.20627 0.60685 0.0
C456 C 0.60411 0.32546 0.61463 0.0
O457 O 0.60849 0.29036 0.62454 0.0
O458 O 0.56468 0.33896 0.60819 0.0
C459 C 0.43787 0.21308 0.60663 0.0
O460 O 0.45091 0.31607 0.65387 0.0
O461 O 0.45139 0.27684 0.67667 0.0
C462 C 0.41297 0.33789 0.61429 0.0
C463 C 0.44383 0.31435 0.66874 0.0
Fe464 Fe 1.0 0.25718 0.90446 0.0
O465 O 0.97335 0.21949 0.88659 0.0
Fe466 Fe 0.02412 0.36539 0.88737 0.0
Fe467 Fe 0.97768 0.15025 0.88606 0.0
O468 O 0.02824 0.29625 0.88721 0.0
O469 O 0.02857 0.29619 0.88559 0.0
O470 O 0.97358 0.21949 0.88495 0.0
Fe471 Fe 0.00218 0.25838 0.86752 0.0
C472 C 0.06177 0.17328 0.90757 0.0
O473 O 0.9642 0.21176 0.92043 0.0
O474 O 0.92909 0.15664 0.90407 0.0
O475 O 0.94198 0.29974 0.86641 0.0
O476 O 0.97268 0.37147 0.87044 0.0
O477 O 0.97229 0.36884 0.90496 0.0
O478 O 0.94012 0.29747 0.90478 0.0
O479 O 0.93272 0.15634 0.86687 0.0
O480 O 0.96991 0.21232 0.85114 0.0
C481 C 0.93833 0.34099 0.90825 0.0
O482 O 0.03643 0.30551 0.8519 0.0
O483 O 0.07101 0.36079 0.86855 0.0
O484 O 0.05982 0.21703 0.9046 0.0
O485 O 0.02806 0.1455 0.90396 0.0
C486 C 0.93322 0.17871 0.91752 0.0
C487 C 0.94032 0.17756 0.8534 0.0
C488 C 0.06338 0.17216 0.86461 0.0
O489 O 0.03043 0.14525 0.8694 0.0
O490 O 0.06245 0.21684 0.86658 0.0
C491 C 0.94047 0.34458 0.86512 0.0
O492 O 0.07103 0.35775 0.90566 0.0
O493 O 0.03455 0.30121 0.92115 0.0
C494 C 0.06567 0.3401 0.85485 0.0
C495 C 0.06562 0.33462 0.91883 0.0
H496 H 0.20829 0.97693 0.45697 0.0
H497 H 0.4315 0.80474 0.45366 0.0
H498 H 0.23003 0.86526 0.49091 0.0
H499 H 0.38056 0.87918 0.41246 0.0
H500 H 0.3626 0.83259 0.46867 0.0
H501 H 0.27641 0.948 0.44169 0.0
C502 C 0.22758 0.94647 0.46124 0.0
C503 C 0.21354 0.92346 0.47524 0.0
C504 C 0.36648 0.84276 0.45634 0.0
C505 C 0.29146 0.89026 0.45785 0.0
C506 C 0.4059 0.82708 0.44779 0.0
C507 C 0.41192 0.83983 0.4318 0.0
C508 C 0.33313 0.87205 0.44895 0.0
C509 C 0.37731 0.86843 0.42475 0.0
C510 C 0.2662 0.9298 0.45247 0.0
C511 C 0.23947 0.88383 0.48014 0.0
N512 N 0.33959 0.8839 0.43341 0.0
N513 N 0.27735 0.86866 0.47151 0.0
H514 H 0.27498 0.93197 0.68651 0.0
H515 H 0.34238 0.20502 0.68617 0.0
H516 H 0.25701 0.02505 0.72676 0.0
H517 H 0.3754 0.10874 0.64806 0.0
H518 H 0.29337 0.14401 0.6986 0.0
H519 H 0.29538 0.99991 0.67009 0.0
C520 C 0.27461 0.96679 0.69186 0.0
C521 C 0.26474 0.97273 0.7081 0.0
C522 C 0.31022 0.13655 0.68729 0.0
C523 C 0.2886 0.05072 0.68936 0.0
C524 C 0.33761 0.17155 0.68012 0.0
C525 C 0.36217 0.16175 0.66604 0.0
C526 C 0.30823 0.09134 0.6804 0.0
C527 C 0.35626 0.1176 0.65883 0.0
C528 C 0.28646 0.00558 0.68247 0.0
C529 C 0.2653 0.0187 0.71438 0.0
N530 N 0.33035 0.08368 0.66621 0.0
N531 N 0.27744 0.05586 0.70503 0.0
H532 H 0.23563 0.03737 0.97829 0.0
H533 H 0.14607 0.21755 0.91242 0.0
H534 H 0.326 0.1408 0.95595 0.0
H535 H 0.07027 0.08991 0.92407 0.0
H536 H 0.21049 0.19227 0.92952 0.0
H537 H 0.17275 0.05837 0.95977 0.0
C538 C 0.24245 0.06431 0.96947 0.0
C539 C 0.28638 0.08737 0.96876 0.0
C540 C 0.17998 0.16956 0.92825 0.0
C541 C 0.21409 0.11201 0.94767 0.0
C542 C 0.14309 0.18397 0.91848 0.0
C543 C 0.10259 0.1558 0.9168 0.0
C544 C 0.17632 0.12687 0.93658 0.0
C545 C 0.10087 0.11264 0.92496 0.0
C546 C 0.20642 0.07633 0.95893 0.0
C547 C 0.2926 0.12261 0.95721 0.0
N548 N 0.13706 0.09966 0.93462 0.0
N549 N 0.25688 0.13391 0.94719 0.0
H550 H 0.08397 0.0582 0.22704 0.0
H551 H 0.16302 0.86088 0.16458 0.0
H552 H 0.22305 0.0556 0.2057 0.0
H553 H 0.01713 0.89497 0.1746 0.0
H554 H 0.18725 0.92812 0.18102 0.0
H555 H 0.06024 0.99417 0.20939 0.0
C556 C 0.10953 0.04451 0.2186 0.0
C557 C 0.15567 0.06272 0.21791 0.0
C558 C 0.14995 0.92098 0.17952 0.0
C559 C 0.12876 0.98838 0.19781 0.0
C560 C 0.1361 0.88259 0.17016 0.0
C561 C 0.08798 0.87218 0.1682 0.0
C562 C 0.11548 0.94873 0.18716 0.0
C563 C 0.05463 0.90167 0.17569 0.0
C564 C 0.09593 0.00772 0.20856 0.0
C565 C 0.18736 0.04242 0.20691 0.0
N566 N 0.06902 0.93829 0.18493 0.0
N567 N 0.17337 0.0063 0.19735 0.0
H568 H 0.23985 0.12371 0.53692 0.0
H569 H 0.38036 0.1422 0.6182 0.0
H570 H 0.21468 0.0273 0.57558 0.0
H571 H 0.42483 0.20908 0.57459 0.0
H572 H 0.32139 0.09729 0.60315 0.0
H573 H 0.30896 0.15409 0.5508 0.0
C574 C 0.24915 0.10882 0.54833 0.0
C575 C 0.22148 0.07324 0.55518 0.0
C576 C 0.34457 0.12135 0.59689 0.0
C577 C 0.30041 0.108 0.57126 0.0
C578 C 0.37832 0.14691 0.60546 0.0
C579 C 0.40722 0.18001 0.5977 0.0
C580 C 0.3396 0.12925 0.5805 0.0
C581 C 0.40294 0.18456 0.58116 0.0
C582 C 0.28871 0.12597 0.55623 0.0
C583 C 0.23528 0.05474 0.56991 0.0
N584 N 0.36946 0.15998 0.57318 0.0
N585 N 0.27351 0.07278 0.57759 0.0
H586 H 0.10996 0.99139 0.78812 0.0
H587 H 0.13151 0.10765 0.87154 0.0
H588 H 0.23527 0.96683 0.81615 0.0
H589 H 0.06813 0.18313 0.83274 0.0
H590 H 0.16893 0.05354 0.85237 0.0
H591 H 0.09118 0.05896 0.80494 0.0
C592 C 0.13405 1.00023 0.7976 0.0
C593 C 0.1744 0.97251 0.80059 0.0
C594 C 0.14798 0.08278 0.84803 0.0
C595 C 0.15175 0.04972 0.82032 0.0
C596 C 0.1271 0.11387 0.85894 0.0
C597 C 0.09776 0.15045 0.85364 0.0
C598 C 0.13777 0.08726 0.83178 0.0
C599 C 0.09152 0.15602 0.83723 0.0
C600 C 0.12303 0.03894 0.80727 0.0
C601 C 0.20314 0.98586 0.81349 0.0
N602 N 0.1105 0.12413 0.82688 0.0
N603 N 0.19091 0.02296 0.82298 0.0
H604 H 0.24966 0.89812 0.03837 0.0
H605 H 0.14699 0.8823 0.12483 0.0
H606 H 0.28826 0.99944 0.07434 0.0
H607 H 0.06697 0.83355 0.08461 0.0
H608 H 0.19907 0.92609 0.1068 0.0
H609 H 0.18325 0.87261 0.05511 0.0
C610 C 0.24391 0.91516 0.04975 0.0
C611 C 0.27455 0.95078 0.05502 0.0
C612 C 0.16944 0.90682 0.10192 0.0
C613 C 0.19908 0.9216 0.07425 0.0
C614 C 0.13961 0.88214 0.1122 0.0
C615 C 0.10241 0.85501 0.10615 0.0
C616 C 0.16296 0.90293 0.08544 0.0
C617 C 0.09483 0.85486 0.08971 0.0
C618 C 0.20588 0.90087 0.05923 0.0
C619 C 0.26536 0.97197 0.06981 0.0
N620 N 0.12549 0.87768 0.07986 0.0
N621 N 0.2289 0.95658 0.07902 0.0
H622 H 0.35721 0.12791 0.32273 0.0
H623 H 0.3422 0.86813 0.35858 0.0
H624 H 0.26094 0.02001 0.30655 0.0
H625 H 0.45687 0.96402 0.36834 0.0
H626 H 0.30126 0.93087 0.34443 0.0
H627 H 0.3847 0.0746 0.34349 0.0
C628 C 0.34193 0.09294 0.32349 0.0
C629 C 0.30728 0.07809 0.31266 0.0
C630 C 0.33502 0.93849 0.34987 0.0
C631 C 0.33783 0.01744 0.33668 0.0
C632 C 0.35831 0.90278 0.35802 0.0
C633 C 0.40335 0.91076 0.36438 0.0
C634 C 0.35708 0.98242 0.34795 0.0
C635 C 0.42228 0.9564 0.36353 0.0
C636 C 0.35734 0.06276 0.33546 0.0
C637 C 0.28769 0.033 0.31459 0.0
N638 N 0.39939 0.99043 0.35517 0.0
N639 N 0.3035 0.00416 0.32629 0.0
H640 H 0.78242 0.13612 0.54078 0.0
H641 H 0.62608 0.13701 0.61893 0.0
H642 H 0.79686 0.0251 0.57537 0.0
H643 H 0.58238 0.20156 0.57495 0.0
H644 H 0.68963 0.09596 0.60438 0.0
H645 H 0.71114 0.16342 0.55446 0.0
C646 C 0.77046 0.11752 0.55128 0.0
C647 C 0.79552 0.07846 0.557 0.0
C648 C 0.66551 0.11855 0.59793 0.0
C649 C 0.71401 0.10954 0.5728 0.0
C650 C 0.62909 0.14176 0.6062 0.0
C651 C 0.59912 0.17329 0.5982 0.0
C652 C 0.67215 0.12746 0.58165 0.0
C653 C 0.60496 0.17823 0.5817 0.0
C654 C 0.72962 0.13286 0.55903 0.0
C655 C 0.77831 0.05531 0.57058 0.0
N656 N 0.6411 0.15623 0.57406 0.0
N657 N 0.73882 0.07153 0.57817 0.0
H658 H 0.70624 0.01881 0.29317 0.0
H659 H 0.6146 0.9103 0.37547 0.0
H660 H 0.69996 0.09944 0.33675 0.0
H661 H 0.57713 0.85442 0.32949 0.0
H662 H 0.66109 0.97206 0.36227 0.0
H663 H 0.67315 0.95114 0.30721 0.0
C664 C 0.6979 0.02249 0.30568 0.0
C665 C 0.70538 0.06548 0.31367 0.0
C666 C 0.64308 0.94592 0.35511 0.0
C667 C 0.66836 0.98724 0.32994 0.0
C668 C 0.61686 0.91045 0.36262 0.0
C669 C 0.59169 0.87728 0.35356 0.0
C670 C 0.64468 0.94779 0.33843 0.0
C671 C 0.59563 0.87946 0.33695 0.0
C672 C 0.67927 0.9836 0.31371 0.0
C673 C 0.69516 0.06718 0.33004 0.0
N674 N 0.62144 0.91414 0.32993 0.0
N675 N 0.677 0.02876 0.3376 0.0
H676 H 0.74457 0.98619 0.0421 0.0
H677 H 0.8755 0.76266 0.07905 0.0
H678 H 0.67559 0.85212 0.05023 0.0
H679 H 0.89859 0.90396 0.09642 0.0
H680 H 0.81834 0.794 0.05982 0.0
H681 H 0.81607 0.9545 0.05429 0.0
C682 C 0.74413 0.95019 0.04638 0.0
C683 C 0.70313 0.92225 0.04529 0.0
C684 C 0.83705 0.81819 0.06754 0.0
C685 C 0.78602 0.88532 0.05854 0.0
C686 C 0.86998 0.80048 0.07832 0.0
C687 C 0.89178 0.831 0.08916 0.0
C688 C 0.82669 0.8667 0.06751 0.0
C689 C 0.88259 0.87953 0.08812 0.0
C690 C 0.78528 0.93208 0.05316 0.0
C691 C 0.70598 0.87518 0.05057 0.0
N692 N 0.85047 0.89597 0.07753 0.0
N693 N 0.7466 0.8583 0.05698 0.0
H694 H 0.77561 0.97955 0.80074 0.0
H695 H 0.97841 0.16331 0.82388 0.0
H696 H 0.91747 0.97381 0.78176 0.0
H697 H 0.8523 0.13962 0.85164 0.0
H698 H 0.94829 0.10879 0.8036 0.0
H699 H 0.796 0.05192 0.81493 0.0
C700 C 0.81105 0.9935 0.79953 0.0
C701 C 0.84514 0.96994 0.79028 0.0
C702 C 0.92681 0.11637 0.81398 0.0
C703 C 0.86842 0.0534 0.80629 0.0
C704 C 0.94373 0.14783 0.82545 0.0
C705 C 0.91787 0.15558 0.83946 0.0
C706 C 0.88363 0.09309 0.81655 0.0
C707 C 0.87345 0.13419 0.84104 0.0
C708 C 0.82253 0.03504 0.80753 0.0
C709 C 0.89004 0.99065 0.78876 0.0
N710 N 0.85792 0.10359 0.8298 0.0
N711 N 0.90053 0.03095 0.79681 0.0
H712 H 0.84734 0.94309 0.44839 0.0
H713 H 0.56874 0.9258 0.44076 0.0
H714 H 0.75128 0.00469 0.48254 0.0
H715 H 0.66612 0.87901 0.40459 0.0
H716 H 0.63367 0.96684 0.45418 0.0
H717 H 0.7811 0.92922 0.43052 0.0
C718 C 0.81222 0.95379 0.4521 0.0
C719 C 0.80466 0.97437 0.46707 0.0
C720 C 0.64067 0.94882 0.44306 0.0
C721 C 0.72845 0.95876 0.44664 0.0
C722 C 0.60351 0.92597 0.43532 0.0
C723 C 0.61233 0.89971 0.42151 0.0
C724 C 0.68692 0.94437 0.43704 0.0
C725 C 0.65806 0.89952 0.41513 0.0
C726 C 0.77442 0.94623 0.44185 0.0
C727 C 0.7586 0.98856 0.47113 0.0
N728 N 0.69385 0.92088 0.42308 0.0
N729 N 0.72211 0.97988 0.46106 0.0
H730 H 0.84245 0.01268 0.24826 0.0
H731 H 0.87239 0.91803 0.16011 0.0
H732 H 0.85091 0.10302 0.20709 0.0
H733 H 0.92616 0.83742 0.1996 0.0
H734 H 0.8553 0.9831 0.17801 0.0
H735 H 0.86637 0.94545 0.23154 0.0
C736 C 0.84961 0.01856 0.23578 0.0
C737 C 0.84382 0.06362 0.22905 0.0
C738 C 0.87089 0.95126 0.18281 0.0
C739 C 0.87036 0.98684 0.20992 0.0
C740 C 0.88037 0.9138 0.1726 0.0
C741 C 0.90052 0.87192 0.17836 0.0
C742 C 0.88097 0.94702 0.19902 0.0
C743 C 0.91058 0.86905 0.19467 0.0
C744 C 0.86313 0.98014 0.22627 0.0
C745 C 0.8534 0.06888 0.21277 0.0
N746 N 0.90035 0.90607 0.2045 0.0
N747 N 0.86572 0.031 0.20379 0.0
H748 H 0.70124 0.03431 0.96005 0.0
H749 H 0.89533 0.23196 0.94212 0.0
H750 H 0.71392 0.15869 0.9895 0.0
H751 H 0.89313 0.09267 0.92123 0.0
H752 H 0.83014 0.20818 0.95993 0.0
H753 H 0.7716 0.05776 0.94565 0.0
C754 C 0.7191 0.06636 0.96366 0.0
C755 C 0.70165 0.09415 0.9762 0.0
C756 C 0.84445 0.18281 0.95155 0.0
C757 C 0.78258 0.12211 0.95932 0.0
C758 C 0.88179 0.19624 0.94148 0.0
C759 C 0.89938 0.16437 0.93008 0.0
C760 C 0.82487 0.13732 0.95012 0.0
C761 C 0.88028 0.11869 0.92965 0.0
C762 C 0.75935 0.07995 0.95532 0.0
C763 C 0.72582 0.13623 0.97986 0.0
N764 N 0.84404 0.10677 0.93939 0.0
N765 N 0.76504 0.14901 0.97144 0.0
H766 H 0.74912 0.0063 0.72626 0.0
H767 H 0.62079 0.09767 0.64762 0.0
H768 H 0.7155 0.91609 0.68651 0.0
H769 H 0.64548 0.18372 0.68897 0.0
H770 H 0.66795 0.03419 0.65959 0.0
H771 H 0.72283 0.07453 0.71098 0.0
C772 C 0.73631 1.00084 0.71429 0.0
C773 C 0.73394 0.95526 0.70776 0.0
C774 C 0.66397 0.06732 0.6659 0.0
C775 C 0.704 0.03347 0.69009 0.0
C776 C 0.63753 0.1036 0.65899 0.0
C777 C 0.63003 0.14586 0.6673 0.0
C778 C 0.68242 0.07344 0.68127 0.0
C779 C 0.65115 0.15168 0.68217 0.0
C780 C 0.72155 0.03988 0.70553 0.0
C781 C 0.71806 0.95054 0.69204 0.0
N782 N 0.67607 0.11572 0.68875 0.0
N783 N 0.70323 0.98907 0.6838 0.0
H784 H 0.66985 0.3669 0.95702 0.0
H785 H 0.92967 0.42428 0.92488 0.0
H786 H 0.7615 0.46879 0.97948 0.0
H787 H 0.85413 0.29627 0.91351 0.0
H788 H 0.86411 0.44808 0.94228 0.0
H789 H 0.73348 0.34679 0.93862 0.0
C790 C 0.70341 0.38483 0.95822 0.0
C791 C 0.7102 0.41939 0.97 0.0
C792 C 0.86192 0.4149 0.9359 0.0
C793 C 0.78306 0.39723 0.94855 0.0
C794 C 0.89916 0.40142 0.9259 0.0
C795 C 0.8975 0.35815 0.91773 0.0
C796 C 0.82254 0.38517 0.93761 0.0
C797 C 0.85711 0.32986 0.91959 0.0
C798 C 0.73966 0.37353 0.94759 0.0
C799 C 0.75426 0.44228 0.97055 0.0
N800 N 0.82131 0.34386 0.92932 0.0
N801 N 0.78896 0.43082 0.95998 0.0
H802 H 0.79539 0.52842 0.23625 0.0
H803 H 0.94897 0.61419 0.16258 0.0
H804 H 0.86485 0.43127 0.20427 0.0
H805 H 0.83158 0.69671 0.18019 0.0
H806 H 0.92515 0.54932 0.17992 0.0
H807 H 0.81505 0.59354 0.21809 0.0
C808 C 0.81491 0.5209 0.22544 0.0
C809 C 0.8285 0.47446 0.22173 0.0
C810 C 0.90436 0.58147 0.17991 0.0
C811 C 0.85129 0.54848 0.20105 0.0
C812 C 0.91795 0.61856 0.17003 0.0
C813 C 0.89211 0.66092 0.16989 0.0
C814 C 0.86512 0.58689 0.18999 0.0
C815 C 0.85226 0.66454 0.17983 0.0
C816 C 0.82578 0.55791 0.21506 0.0
C817 C 0.85344 0.46651 0.20752 0.0
N818 N 0.84024 0.62816 0.18961 0.0
N819 N 0.86435 0.50315 0.19778 0.0
H820 H 0.75547 0.49613 0.46868 0.0
H821 H 0.66848 0.65887 0.39734 0.0
H822 H 0.84822 0.56625 0.43552 0.0
H823 H 0.57568 0.60311 0.43331 0.0
H824 H 0.73243 0.60912 0.40744 0.0
H825 H 0.68772 0.51976 0.4525 0.0
C826 C 0.76162 0.51581 0.45785 0.0
C827 C 0.80743 0.52994 0.45356 0.0
C828 C 0.69782 0.60678 0.41291 0.0
C829 C 0.73024 0.55725 0.43506 0.0
C830 C 0.66129 0.63475 0.40702 0.0
C831 C 0.61698 0.63435 0.41443 0.0
C832 C 0.69002 0.57904 0.4265 0.0
C833 C 0.60943 0.60369 0.4272 0.0
C834 C 0.72296 0.52944 0.44866 0.0
C835 C 0.81339 0.55553 0.43944 0.0
N836 N 0.64584 0.57763 0.433 0.0
N837 N 0.77524 0.56872 0.43079 0.0
H838 H 0.67872 0.57962 0.69426 0.0
H839 H 0.58624 0.31351 0.70083 0.0
H840 H 0.68754 0.49696 0.73717 0.0
H841 H 0.59155 0.39212 0.65694 0.0
H842 H 0.62008 0.3813 0.71465 0.0
H843 H 0.64375 0.5121 0.68069 0.0
C844 C 0.67358 0.54715 0.70081 0.0
C845 C 0.68639 0.54389 0.71686 0.0
C846 C 0.61388 0.38367 0.70199 0.0
C847 C 0.64569 0.46651 0.70142 0.0
C848 C 0.59453 0.34497 0.69408 0.0
C849 C 0.58616 0.34699 0.67766 0.0
C850 C 0.6248 0.4248 0.69346 0.0
C851 C 0.59752 0.3888 0.66958 0.0
C852 C 0.65335 0.50867 0.69307 0.0
C853 C 0.67786 0.50122 0.72483 0.0
N854 N 0.61623 0.42601 0.67757 0.0
N855 N 0.65811 0.46416 0.71702 0.0
H856 H 0.70252 0.5029 0.0785 0.0
H857 H 0.93014 0.66833 0.08736 0.0
H858 H 0.74785 0.6003 0.04225 0.0
H859 H 0.84198 0.62978 0.12707 0.0
H860 H 0.87853 0.62232 0.06972 0.0
H861 H 0.76791 0.52963 0.09539 0.0
C862 C 0.72669 0.52939 0.07402 0.0
C863 C 0.7197 0.5497 0.05902 0.0
C864 C 0.87133 0.62288 0.08236 0.0
C865 C 0.79468 0.57979 0.07812 0.0
C866 C 0.90111 0.64844 0.09243 0.0
C867 C 0.8905 0.65214 0.10867 0.0
C868 C 0.83115 0.60048 0.08865 0.0
C869 C 0.85155 0.62716 0.11462 0.0
C870 C 0.76381 0.54466 0.08366 0.0
C871 C 0.75183 0.58412 0.05381 0.0
N872 N 0.82312 0.60249 0.10461 0.0
N873 N 0.78796 0.5981 0.06334 0.0
H874 H 0.63099 0.49052 0.29495 0.0
H875 H 0.63475 0.66098 0.36909 0.0
H876 H 0.75406 0.49674 0.32512 0.0
H877 H 0.55736 0.69161 0.3262 0.0
H878 H 0.67731 0.5982 0.35476 0.0
H879 H 0.60031 0.56075 0.30797 0.0
C880 C 0.65205 0.50682 0.30415 0.0
C881 C 0.69564 0.48749 0.30875 0.0
C882 C 0.65146 0.61928 0.3485 0.0
C883 C 0.65947 0.56775 0.32415 0.0
C884 C 0.62726 0.65519 0.35663 0.0
C885 C 0.59196 0.68139 0.34892 0.0
C886 C 0.63969 0.60921 0.33265 0.0
C887 C 0.58379 0.67214 0.33275 0.0
C888 C 0.63423 0.54694 0.31166 0.0
C889 C 0.72008 0.50977 0.32124 0.0
N890 N 0.60689 0.63645 0.32526 0.0
N891 N 0.7015 0.54853 0.32859 0.0
H892 H 0.81863 0.33732 0.54565 0.0
H893 H 0.61783 0.41574 0.60428 0.0
H894 H 0.80375 0.48404 0.5591 0.0
H895 H 0.68721 0.2806 0.60843 0.0
H896 H 0.68209 0.44269 0.58694 0.0
H897 H 0.76531 0.31581 0.56723 0.0
C898 C 0.80448 0.36508 0.55315 0.0
C899 C 0.8161 0.41266 0.55051 0.0
C900 C 0.68368 0.40752 0.59194 0.0
C901 C 0.75411 0.38805 0.57507 0.0
C902 C 0.64721 0.39222 0.60185 0.0
C903 C 0.64733 0.34593 0.60776 0.0
C904 C 0.71963 0.37582 0.5876 0.0
C905 C 0.686 0.31669 0.60421 0.0
C906 C 0.77402 0.35267 0.56548 0.0
C907 C 0.79535 0.447 0.56044 0.0
N908 N 0.72018 0.3318 0.59407 0.0
N909 N 0.76509 0.43404 0.57222 0.0
H910 H 0.76845 0.55808 0.82046 0.0
H911 H 0.92408 0.32623 0.83395 0.0
H912 H 0.87862 0.51286 0.78805 0.0
H913 H 0.88094 0.41672 0.87259 0.0
H914 H 0.88455 0.37979 0.81525 0.0
H915 H 0.78917 0.49274 0.83802 0.0
C916 C 0.79691 0.5347 0.81694 0.0
C917 C 0.82214 0.54201 0.80269 0.0
C918 C 0.88265 0.3871 0.82787 0.0
C919 C 0.84435 0.46561 0.82258 0.0
C920 C 0.90454 0.35628 0.83853 0.0
C921 C 0.90518 0.367 0.85479 0.0
C922 C 0.86075 0.42835 0.8336 0.0
C923 C 0.88071 0.40715 0.86012 0.0
C924 C 0.80827 0.49706 0.82695 0.0
C925 C 0.85753 0.50893 0.7987 0.0
N926 N 0.85958 0.43655 0.84955 0.0
N927 N 0.86756 0.47236 0.80858 0.0
H928 H 0.2856 0.62702 0.03738 0.0
H929 H 0.11312 0.60203 0.11191 0.0
H930 H 0.28701 0.50963 0.06998 0.0
H931 H 0.10325 0.71674 0.07853 0.0
H932 H 0.16945 0.56251 0.09437 0.0
H933 H 0.21375 0.65658 0.05034 0.0
C934 C 0.27081 0.6074 0.04724 0.0
C935 C 0.29274 0.56594 0.05267 0.0
C936 C 0.15448 0.59591 0.09068 0.0
C937 C 0.21011 0.59931 0.06743 0.0
C938 C 0.12206 0.61832 0.10065 0.0
C939 C 0.10368 0.66269 0.09665 0.0
C940 C 0.1695 0.61844 0.0767 0.0
C941 C 0.11643 0.68236 0.08197 0.0
C942 C 0.22954 0.6241 0.05454 0.0
C943 C 0.27134 0.54153 0.06528 0.0
N944 N 0.1493 0.66048 0.07263 0.0
N945 N 0.23156 0.55877 0.07228 0.0
H946 H 0.10611 0.53787 0.7805 0.0
H947 H 0.15485 0.37525 0.85512 0.0
H948 H 0.23702 0.5389 0.80664 0.0
H949 H 0.03398 0.35702 0.82473 0.0
H950 H 0.18962 0.42858 0.83561 0.0
H951 H 0.08247 0.46657 0.7947 0.0
C952 C 0.13022 0.5228 0.78907 0.0
C953 C 0.17348 0.54485 0.79249 0.0
C954 C 0.15591 0.41232 0.83301 0.0
C955 C 0.14624 0.46336 0.80895 0.0
C956 C 0.13617 0.38171 0.84413 0.0
C957 C 0.09143 0.36201 0.84154 0.0
C958 C 0.13028 0.42416 0.81934 0.0
C959 C 0.06868 0.37139 0.82712 0.0
C960 C 0.1166 0.48208 0.79721 0.0
C961 C 0.2029 0.52385 0.80386 0.0
N962 N 0.08795 0.4026 0.81667 0.0
N963 N 0.18856 0.48461 0.81176 0.0
H964 H 0.14663 0.40632 0.57242 0.0
H965 H 0.41758 0.42013 0.5973 0.0
H966 H 0.24964 0.49487 0.54915 0.0
H967 H 0.31767 0.32191 0.61762 0.0
H968 H 0.35312 0.45866 0.58328 0.0
H969 H 0.20549 0.38534 0.5923 0.0
C970 C 0.18166 0.42147 0.57153 0.0
C971 C 0.19356 0.45168 0.55893 0.0
C972 C 0.34518 0.42906 0.59096 0.0
C973 C 0.26101 0.42813 0.58175 0.0
C974 C 0.382 0.407 0.59901 0.0
C975 C 0.37325 0.36702 0.60843 0.0
C976 C 0.29922 0.41097 0.59226 0.0
C977 C 0.32625 0.35228 0.61038 0.0
C978 C 0.21515 0.4097 0.58294 0.0
C979 C 0.23902 0.47133 0.55862 0.0
N980 N 0.29109 0.37382 0.60216 0.0
N981 N 0.27129 0.45876 0.56975 0.0
H982 H 0.26366 0.51248 0.30205 0.0
H983 H 0.457 0.58535 0.36666 0.0
H984 H 0.36152 0.41365 0.32292 0.0
H985 H 0.35679 0.68254 0.34608 0.0
H986 H 0.4182 0.52055 0.3526 0.0
H987 H 0.29349 0.57391 0.31973 0.0
C988 C 0.29117 0.50357 0.31043 0.0
C989 C 0.31032 0.45788 0.3109 0.0
C990 C 0.40449 0.55603 0.35129 0.0
C991 C 0.34504 0.52826 0.33112 0.0
C992 C 0.42649 0.59306 0.35938 0.0
C993 C 0.41056 0.63967 0.35743 0.0
C994 C 0.3663 0.56566 0.34117 0.0
C995 C 0.37081 0.64736 0.34782 0.0
C996 C 0.30834 0.53874 0.3205 0.0
C997 C 0.34632 0.4486 0.32192 0.0
N998 N 0.35037 0.61086 0.33997 0.0
N999 N 0.36263 0.48351 0.33154 0.0
H1000 H 0.28728 0.34325 0.99035 0.0
H1001 H 0.09853 0.42222 0.92507 0.0
H1002 H 0.29059 0.47451 0.96435 0.0
H1003 H 0.10706 0.27859 0.94177 0.0
H1004 H 0.16145 0.44423 0.94314 0.0
H1005 H 0.21612 0.32049 0.97562 0.0
C1006 C 0.27323 0.3673 0.98157 0.0
C1007 C 0.29514 0.41108 0.97868 0.0
C1008 C 0.14955 0.4079 0.94299 0.0
C1009 C 0.21322 0.38549 0.96205 0.0
C1010 C 0.11342 0.39533 0.9327 0.0
C1011 C 0.09784 0.34841 0.93181 0.0
C1012 C 0.1709 0.37333 0.95248 0.0
C1013 C 0.11801 0.31519 0.94214 0.0
C1014 C 0.23242 0.35434 0.97326 0.0
C1015 C 0.27473 0.4409 0.9673 0.0
N1016 N 0.15403 0.32818 0.95196 0.0
N1017 N 0.23513 0.42757 0.95947 0.0
H1018 H 0.31836 0.51094 0.73618 0.0
H1019 H 0.42719 0.40193 0.65609 0.0
H1020 H 0.3415 0.59166 0.69342 0.0
H1021 H 0.41671 0.32421 0.70003 0.0
H1022 H 0.39441 0.47115 0.66947 0.0
H1023 H 0.35291 0.4419 0.72309 0.0
C1024 C 0.33092 0.51433 0.72407 0.0
C1025 C 0.32697 0.55744 0.71594 0.0
C1026 C 0.39932 0.439 0.67621 0.0
C1027 C 0.36616 0.47799 0.70077 0.0
C1028 C 0.41806 0.39932 0.66856 0.0
C1029 C 0.42471 0.35692 0.67691 0.0
C1030 C 0.38687 0.4365 0.69235 0.0
C1031 C 0.41223 0.356 0.69308 0.0
C1032 C 0.35046 0.47472 0.71658 0.0
C1033 C 0.34313 0.55917 0.70014 0.0
N1034 N 0.39383 0.3951 0.70025 0.0
N1035 N 0.36197 0.52011 0.6931 0.0
H1036 H 0.26744 0.5654 0.48546 0.0
H1037 H 0.36715 0.69426 0.40781 0.0
H1038 H 0.17844 0.61773 0.44791 0.0
H1039 H 0.45155 0.6675 0.44947 0.0
H1040 H 0.2985 0.66166 0.42159 0.0
H1041 H 0.33641 0.5978 0.47167 0.0
C1042 C 0.26248 0.58359 0.47429 0.0
C1043 C 0.21719 0.58896 0.46782 0.0
C1044 C 0.33205 0.66295 0.42771 0.0
C1045 C 0.29579 0.62615 0.452 0.0
C1046 C 0.37133 0.68141 0.41984 0.0
C1047 C 0.41528 0.68353 0.42747 0.0
C1048 C 0.33674 0.64616 0.44331 0.0
C1049 C 0.41842 0.66658 0.4431 0.0
C1050 C 0.30177 0.60229 0.46647 0.0
C1051 C 0.21267 0.61327 0.4534 0.0
N1052 N 0.37972 0.64849 0.45048 0.0
N1053 N 0.2515 0.63082 0.44594 0.0
H1054 H 0.20161 0.52527 0.24157 0.0
H1055 H 0.00455 0.6573 0.19086 0.0
H1056 H 0.07576 0.45468 0.22493 0.0
H1057 H 0.15372 0.68305 0.18498 0.0
H1058 H 0.02292 0.59617 0.21064 0.0
H1059 H 0.1764 0.5967 0.22779 0.0
C1060 C 0.16866 0.52463 0.2351 0.0
C1061 C 0.14137 0.48326 0.23417 0.0
C1062 C 0.05143 0.61595 0.20521 0.0
C1063 C 0.11168 0.56563 0.21892 0.0
C1064 C 0.04103 0.65087 0.19407 0.0
C1065 C 0.07782 0.67484 0.18635 0.0
C1066 C 0.09879 0.60606 0.20883 0.0
C1067 C 0.12452 0.665 0.19068 0.0
C1068 C 0.15419 0.5656 0.22737 0.0
C1069 C 0.09803 0.4855 0.22607 0.0
N1070 N 0.13374 0.63127 0.20165 0.0
N1071 N 0.08465 0.52594 0.21868 0.0
loop_
_geom_bond_atom_site_label_1
_geom_bond_atom_site_label_2
_geom_bond_distance
_geom_bond_site_symmetry_2
_ccdc_geom_bond_type
C0 C1 1.384 . S
C0 C2 1.384 1_565 S
C0 H28 0.931 1_565 S
C1 C0 1.384 . S
C1 C4 1.382 . S
C2 C0 1.384 1_545 S
C2 C3 1.381 1_545 S
C2 H29 0.930 . S
C3 C2 1.381 1_565 S
C3 C5 1.381 . S
C3 C6 1.492 . S
C4 C1 1.382 . S
C4 C5 1.387 . S
C4 H30 0.930 . S
C5 C3 1.381 . S
C5 C4 1.387 . S
C5 H31 0.931 . S
C6 C3 1.492 . S
C6 C13 1.389 1_565 S
C6 N44 1.348 . S
C7 C8 1.384 . S
C7 C9 1.384 . S
C7 H32 0.931 . S
C8 C7 1.384 . S
C8 C11 1.382 . S
C9 C7 1.384 . S
C9 C10 1.381 . S
C9 H33 0.930 1_545 S
C10 C9 1.381 . S
C10 C12 1.381 . S
C10 C13 1.487 . S
C11 C8 1.382 . S
C11 C12 1.387 . S
C11 H34 0.930 . S
C12 C10 1.381 . S
C12 C11 1.387 . S
C12 H35 0.931 . S
C13 C6 1.389 1_545 S
C13 C10 1.487 . S
C13 N45 1.343 . S
C14 C15 1.384 . S
C14 C16 1.384 . S
C14 H36 0.931 . S
C15 C14 1.384 . S
C15 C18 1.382 . S
C16 C14 1.384 . S
C16 C17 1.381 . S
C16 H37 0.930 1_545 S
C17 C16 1.381 . S
C17 C19 1.381 . S
C17 C20 1.487 . S
C18 C15 1.382 . S
C18 C19 1.387 . S
C18 H38 0.930 . S
C19 C17 1.381 . S
C19 C18 1.387 . S
C19 H39 0.931 . S
C20 C17 1.487 . S
C20 C27 1.389 1_545 S
C20 N45 1.343 1_655 S
C21 C22 1.384 . S
C21 C23 1.384 1_565 S
C21 H40 0.931 1_565 S
C22 C21 1.384 . S
C22 C25 1.382 . S
C23 C21 1.384 1_545 S
C23 C24 1.381 1_545 S
C23 H41 0.930 . S
C24 C23 1.381 1_565 S
C24 C26 1.381 . S
C24 C27 1.492 . S
C25 C22 1.382 . S
C25 C26 1.387 . S
C25 H42 0.930 . S
C26 C24 1.381 . S
C26 C25 1.387 . S
C26 H43 0.931 . S
C27 C20 1.389 1_565 S
C27 C24 1.492 . S
C27 N44 1.348 1_655 S
H28 C0 0.931 1_545 S
H29 C2 0.930 . S
H30 C4 0.930 . S
H31 C5 0.931 . S
H32 C7 0.931 . S
H33 C9 0.930 1_565 S
H34 C11 0.930 . S
H35 C12 0.931 . S
H36 C14 0.931 . S
H37 C16 0.930 1_565 S
H38 C18 0.930 . S
H39 C19 0.931 . S
H40 C21 0.931 1_545 S
H41 C23 0.930 . S
H42 C25 0.930 . S
H43 C26 0.931 . S
N44 C6 1.348 . S
N44 C27 1.348 1_455 S
N45 C13 1.343 . S
N45 C20 1.343 1_455 S
C46 C47 1.384 . S
C46 C48 1.384 . S
C46 H74 0.931 . S
C47 C46 1.384 . S
C47 C50 1.382 . S
C48 C46 1.384 . S
C48 C49 1.381 . S
C48 H75 0.930 . S
C49 C48 1.381 . S
C49 C51 1.381 . S
C49 C52 1.487 . S
C50 C47 1.382 . S
C50 C51 1.387 . S
C50 H76 0.930 . S
C51 C49 1.381 . S
C51 C50 1.387 . S
C51 H77 0.931 . S
C52 C49 1.487 . S
C52 C59 1.399 . S
C52 N90 1.343 . S
C53 C54 1.384 . S
C53 C55 1.384 . S
C53 H78 0.931 . S
C54 C53 1.384 . S
C54 C57 1.382 . S
C55 C53 1.384 . S
C55 C56 1.381 . S
C55 H79 0.930 . S
C56 C55 1.381 . S
C56 C58 1.381 . S
C56 C59 1.487 . S
C57 C54 1.382 . S
C57 C58 1.387 . S
C57 H80 0.930 . S
C58 C56 1.381 . S
C58 C57 1.387 . S
C58 H81 0.931 . S
C59 C52 1.399 . S
C59 C56 1.487 . S
C59 N91 1.343 . S
C60 C61 1.384 . S
C60 C62 1.384 . S
C60 H82 0.931 . S
C61 C60 1.384 . S
C61 C64 1.382 . S
C62 C60 1.384 . S
C62 C63 1.381 . S
C62 H83 0.930 . S
C63 C62 1.381 . S
C63 C65 1.381 . S
C63 C66 1.487 . S
C64 C61 1.382 . S
C64 C65 1.387 . S
C64 H84 0.930 . S
C65 C63 1.381 . S
C65 C64 1.387 . S
C65 H85 0.931 . S
C66 C63 1.487 . S
C66 C73 1.399 . S
C66 N91 1.343 . S
C67 C68 1.384 . S
C67 C69 1.384 . S
C67 H86 0.931 . S
C68 C67 1.384 . S
C68 C71 1.382 . S
C69 C67 1.384 . S
C69 C70 1.381 . S
C69 H87 0.930 . S
C70 C69 1.381 . S
C70 C72 1.381 . S
C70 C73 1.487 . S
C71 C68 1.382 . S
C71 C72 1.387 . S
C71 H88 0.930 . S
C72 C70 1.381 . S
C72 C71 1.387 . S
C72 H89 0.931 . S
C73 C66 1.399 . S
C73 C70 1.487 . S
C73 N90 1.343 . S
H74 C46 0.931 . S
H75 C48 0.930 . S
H76 C50 0.930 . S
H77 C51 0.931 . S
H78 C53 0.931 . S
H79 C55 0.930 . S
H80 C57 0.930 . S
H81 C58 0.931 . S
H82 C60 0.931 . S
H83 C62 0.930 . S
H84 C64 0.930 . S
H85 C65 0.931 . S
H86 C67 0.931 . S
H87 C69 0.930 . S
H88 C71 0.930 . S
H89 C72 0.931 . S
N90 C52 1.343 . S
N90 C73 1.343 . S
N91 C59 1.343 . S
N91 C66 1.343 . S
C92 C93 1.384 . S
C92 C94 1.384 . S
C92 H120 0.931 1_545 S
C93 C92 1.384 . S
C93 C96 1.382 . S
C94 C92 1.384 . S
C94 C95 1.381 . S
C94 H121 0.930 1_545 S
C95 C94 1.381 . S
C95 C97 1.381 . S
C95 C98 1.487 1_556 S
C96 C93 1.382 . S
C96 C97 1.387 . S
C96 H122 0.930 . S
C97 C95 1.381 . S
C97 C96 1.387 . S
C97 H123 0.931 . S
C98 C95 1.487 1_554 S
C98 C105 1.399 1_545 S
C98 N136 1.343 1_554 S
C99 C100 1.384 . S
C99 C101 1.384 . S
C99 H124 0.931 1_565 S
C100 C99 1.384 . S
C100 C103 1.382 . S
C101 C99 1.384 . S
C101 C102 1.381 . S
C101 H125 0.930 1_565 S
C102 C101 1.381 . S
C102 C104 1.381 . S
C102 C105 1.487 . S
C103 C100 1.382 . S
C103 C104 1.387 . S
C103 H126 0.930 . S
C104 C102 1.381 . S
C104 C103 1.387 . S
C104 H127 0.931 . S
C105 C98 1.399 1_565 S
C105 C102 1.487 . S
C105 N137 1.343 . S
C106 C107 1.384 . S
C106 C108 1.384 . S
C106 H128 0.931 1_565 S
C107 C106 1.384 . S
C107 C110 1.382 . S
C108 C106 1.384 . S
C108 C109 1.381 . S
C108 H129 0.930 1_565 S
C109 C108 1.381 . S
C109 C111 1.381 . S
C109 C112 1.487 . S
C110 C107 1.382 . S
C110 C111 1.387 . S
C110 H130 0.930 . S
C111 C109 1.381 . S
C111 C110 1.387 . S
C111 H131 0.931 . S
C112 C109 1.487 . S
C112 C119 1.399 1_565 S
C112 N137 1.343 . S
C113 C114 1.384 . S
C113 C115 1.384 . S
C113 H132 0.931 1_545 S
C114 C113 1.384 . S
C114 C117 1.382 . S
C115 C113 1.384 . S
C115 C116 1.381 . S
C115 H133 0.930 1_545 S
C116 C115 1.381 . S
C116 C118 1.381 . S
C116 C119 1.487 1_556 S
C117 C114 1.382 . S
C117 C118 1.387 . S
C117 H134 0.930 . S
C118 C116 1.381 . S
C118 C117 1.387 . S
C118 H135 0.931 . S
C119 C112 1.399 1_545 S
C119 C116 1.487 1_554 S
C119 N136 1.343 1_554 S
H120 C92 0.931 1_565 S
H121 C94 0.930 1_565 S
H122 C96 0.930 . S
H123 C97 0.931 . S
H124 C99 0.931 1_545 S
H125 C101 0.930 1_545 S
H126 C103 0.930 . S
H127 C104 0.931 . S
H128 C106 0.931 1_545 S
H129 C108 0.930 1_545 S
H130 C110 0.930 . S
H131 C111 0.931 . S
H132 C113 0.931 1_565 S
H133 C115 0.930 1_565 S
H134 C117 0.930 . S
H135 C118 0.931 . S
N136 C98 1.343 1_556 S
N136 C119 1.343 1_556 S
N137 C105 1.343 . S
N137 C112 1.343 . S
C138 C139 1.384 . S
C138 C140 1.384 . S
C138 H166 0.931 . S
C139 C138 1.384 . S
C139 C142 1.382 . S
C140 C138 1.384 . S
C140 C141 1.381 . S
C140 H167 0.930 . S
C141 C140 1.381 . S
C141 C143 1.381 . S
C141 C144 1.487 . S
C142 C139 1.382 . S
C142 C143 1.387 . S
C142 H168 0.930 . S
C143 C141 1.381 . S
C143 C142 1.387 . S
C143 H169 0.931 . S
C144 C141 1.487 . S
C144 C151 1.399 . S
C144 N182 1.343 . S
C145 C146 1.384 . S
C145 C147 1.384 . S
C145 H170 0.931 . S
C146 C145 1.384 . S
C146 C149 1.382 . S
C147 C145 1.384 . S
C147 C148 1.381 . S
C147 H171 0.930 . S
C148 C147 1.381 . S
C148 C150 1.381 . S
C148 C151 1.487 . S
C149 C146 1.382 . S
C149 C150 1.387 . S
C149 H172 0.930 . S
C150 C148 1.381 . S
C150 C149 1.387 . S
C150 H173 0.931 . S
C151 C144 1.399 . S
C151 C148 1.487 . S
C151 N183 1.343 . S
C152 C153 1.384 . S
C152 C154 1.384 . S
C152 H174 0.931 . S
C153 C152 1.384 . S
C153 C156 1.382 . S
C154 C152 1.384 . S
C154 C155 1.381 . S
C154 H175 0.930 . S
C155 C154 1.381 . S
C155 C157 1.381 . S
C155 C158 1.487 . S
C156 C153 1.382 . S
C156 C157 1.387 . S
C156 H176 0.930 . S
C157 C155 1.381 . S
C157 C156 1.387 . S
C157 H177 0.931 . S
C158 C155 1.487 . S
C158 C165 1.399 . S
C158 N183 1.343 . S
C159 C160 1.384 . S
C159 C161 1.384 . S
C159 H178 0.931 . S
C160 C159 1.384 . S
C160 C163 1.382 . S
C161 C159 1.384 . S
C161 C162 1.381 . S
C161 H179 0.930 . S
C162 C161 1.381 . S
C162 C164 1.381 . S
C162 C165 1.487 . S
C163 C160 1.382 . S
C163 C164 1.387 . S
C163 H180 0.930 . S
C164 C162 1.381 . S
C164 C163 1.387 . S
C164 H181 0.931 . S
C165 C158 1.399 . S
C165 C162 1.487 . S
C165 N182 1.343 . S
H166 C138 0.931 . S
H167 C140 0.930 . S
H168 C142 0.930 . S
H169 C143 0.931 . S
H170 C145 0.931 . S
H171 C147 0.930 . S
H172 C149 0.930 . S
H173 C150 0.931 . S
H174 C152 0.931 . S
H175 C154 0.930 . S
H176 C156 0.930 . S
H177 C157 0.931 . S
H178 C159 0.931 . S
H179 C161 0.930 . S
H180 C163 0.930 . S
H181 C164 0.931 . S
N182 C144 1.343 . S
N182 C165 1.343 . S
N183 C151 1.343 . S
N183 C158 1.343 . S
C184 C185 1.384 . S
C184 C186 1.384 . S
C184 H212 0.931 . S
C185 C184 1.384 . S
C185 C188 1.382 . S
C186 C184 1.384 . S
C186 C187 1.381 . S
C186 H213 0.930 . S
C187 C186 1.381 . S
C187 C189 1.381 . S
C187 C190 1.487 . S
C188 C185 1.382 . S
C188 C189 1.387 . S
C188 H214 0.930 . S
C189 C187 1.381 . S
C189 C188 1.387 . S
C189 H215 0.931 . S
C190 C187 1.487 . S
C190 C197 1.399 . S
C190 N228 1.343 . S
C191 C192 1.384 . S
C191 C193 1.384 . S
C191 H216 0.931 . S
C192 C191 1.384 . S
C192 C195 1.382 . S
C193 C191 1.384 . S
C193 C194 1.381 . S
C193 H217 0.930 . S
C194 C193 1.381 . S
C194 C196 1.381 . S
C194 C197 1.487 . S
C195 C192 1.382 . S
C195 C196 1.387 . S
C195 H218 0.930 . S
C196 C194 1.381 . S
C196 C195 1.387 . S
C196 H219 0.931 . S
C197 C190 1.399 . S
C197 C194 1.487 . S
C197 N229 1.343 . S
C198 C199 1.384 . S
C198 C200 1.384 . S
C198 H220 0.931 . S
C199 C198 1.384 . S
C199 C202 1.382 . S
C200 C198 1.384 . S
C200 C201 1.381 . S
C200 H221 0.930 . S
C201 C200 1.381 . S
C201 C203 1.381 . S
C201 C204 1.487 . S
C202 C199 1.382 . S
C202 C203 1.387 . S
C202 H222 0.930 . S
C203 C201 1.381 . S
C203 C202 1.387 . S
C203 H223 0.931 . S
C204 C201 1.487 . S
C204 C211 1.399 . S
C204 N229 1.343 . S
C205 C206 1.384 . S
C205 C207 1.384 . S
C205 H224 0.931 . S
C206 C205 1.384 . S
C206 C209 1.382 . S
C207 C205 1.384 . S
C207 C208 1.381 . S
C207 H225 0.930 . S
C208 C207 1.381 . S
C208 C210 1.381 . S
C208 C211 1.487 . S
C209 C206 1.382 . S
C209 C210 1.387 . S
C209 H226 0.930 . S
C210 C208 1.381 . S
C210 C209 1.387 . S
C210 H227 0.931 . S
C211 C204 1.399 . S
C211 C208 1.487 . S
C211 N228 1.343 . S
H212 C184 0.931 . S
H213 C186 0.930 . S
H214 C188 0.930 . S
H215 C189 0.931 . S
H216 C191 0.931 . S
H217 C193 0.930 . S
H218 C195 0.930 . S
H219 C196 0.931 . S
H220 C198 0.931 . S
H221 C200 0.930 . S
H222 C202 0.930 . S
H223 C203 0.931 . S
H224 C205 0.931 . S
H225 C207 0.930 . S
H226 C209 0.930 . S
H227 C210 0.931 . S
N228 C190 1.343 . S
N228 C211 1.343 . S
N229 C197 1.343 . S
N229 C204 1.343 . S
C230 C231 1.384 . S
C230 C232 1.384 . S
C230 H258 0.931 . S
C231 C230 1.384 . S
C231 C234 1.382 . S
C232 C230 1.384 . S
C232 C233 1.381 . S
C232 H259 0.930 . S
C233 C232 1.381 . S
C233 C235 1.381 . S
C233 C236 1.487 . S
C234 C231 1.382 . S
C234 C235 1.387 . S
C234 H260 0.930 . S
C235 C233 1.381 . S
C235 C234 1.387 . S
C235 H261 0.931 . S
C236 C233 1.487 . S
C236 C243 1.399 . S
C236 N274 1.343 . S
C237 C238 1.384 . S
C237 C239 1.384 . S
C237 H262 0.931 . S
C238 C237 1.384 . S
C238 C241 1.382 . S
C239 C237 1.384 . S
C239 C240 1.381 . S
C239 H263 0.930 . S
C240 C239 1.381 . S
C240 C242 1.381 . S
C240 C243 1.487 . S
C241 C238 1.382 . S
C241 C242 1.387 . S
C241 H264 0.930 . S
C242 C240 1.381 . S
C242 C241 1.387 . S
C242 H265 0.931 . S
C243 C236 1.399 . S
C243 C240 1.487 . S
C243 N275 1.343 . S
C244 C245 1.384 . S
C244 C246 1.384 . S
C244 H266 0.931 . S
C245 C244 1.384 . S
C245 C248 1.382 . S
C246 C244 1.384 . S
C246 C247 1.381 . S
C246 H267 0.930 . S
C247 C246 1.381 . S
C247 C249 1.381 . S
C247 C250 1.487 . S
C248 C245 1.382 . S
C248 C249 1.387 . S
C248 H268 0.930 . S
C249 C247 1.381 . S
C249 C248 1.387 . S
C249 H269 0.931 . S
C250 C247 1.487 . S
C250 C257 1.399 . S
C250 N275 1.343 . S
C251 C252 1.384 . S
C251 C253 1.384 . S
C251 H270 0.931 . S
C252 C251 1.384 . S
C252 C255 1.382 . S
C253 C251 1.384 . S
C253 C254 1.381 . S
C253 H271 0.930 . S
C254 C253 1.381 . S
C254 C256 1.381 . S
C254 C257 1.487 . S
C255 C252 1.382 . S
C255 C256 1.387 . S
C255 H272 0.930 . S
C256 C254 1.381 . S
C256 C255 1.387 . S
C256 H273 0.931 . S
C257 C250 1.399 . S
C257 C254 1.487 . S
C257 N274 1.343 . S
H258 C230 0.931 . S
H259 C232 0.930 . S
H260 C234 0.930 . S
H261 C235 0.931 . S
H262 C237 0.931 . S
H263 C239 0.930 . S
H264 C241 0.930 . S
H265 C242 0.931 . S
H266 C244 0.931 . S
H267 C246 0.930 . S
H268 C248 0.930 . S
H269 C249 0.931 . S
H270 C251 0.931 . S
H271 C253 0.930 . S
H272 C255 0.930 . S
H273 C256 0.931 . S
N274 C236 1.343 . S
N274 C257 1.343 . S
N275 C243 1.343 . S
N275 C250 1.343 . S
C276 C277 1.384 . S
C276 C278 1.384 . S
C276 H304 0.931 . S
C277 C276 1.384 . S
C277 C280 1.382 . S
C278 C276 1.384 . S
C278 C279 1.381 . S
C278 H305 0.930 . S
C279 C278 1.381 . S
C279 C281 1.381 . S
C279 C282 1.487 1_556 S
C280 C277 1.382 . S
C280 C281 1.387 . S
C280 H306 0.930 . S
C281 C279 1.381 . S
C281 C280 1.387 . S
C281 H307 0.931 . S
C282 C279 1.487 1_554 S
C282 C289 1.399 . S
C282 N320 1.343 1_554 S
C283 C284 1.384 . S
C283 C285 1.384 . S
C283 H308 0.931 . S
C284 C283 1.384 . S
C284 C287 1.382 . S
C285 C283 1.384 . S
C285 C286 1.381 . S
C285 H309 0.930 . S
C286 C285 1.381 . S
C286 C288 1.381 . S
C286 C289 1.487 . S
C287 C284 1.382 . S
C287 C288 1.387 . S
C287 H310 0.930 . S
C288 C286 1.381 . S
C288 C287 1.387 . S
C288 H311 0.931 . S
C289 C282 1.399 . S
C289 C286 1.487 . S
C289 N321 1.343 . S
C290 C291 1.384 . S
C290 C292 1.384 . S
C290 H312 0.931 . S
C291 C290 1.384 . S
C291 C294 1.382 . S
C292 C290 1.384 . S
C292 C293 1.381 . S
C292 H313 0.930 . S
C293 C292 1.381 . S
C293 C295 1.381 . S
C293 C296 1.487 . S
C294 C291 1.382 . S
C294 C295 1.387 . S
C294 H314 0.930 . S
C295 C293 1.381 . S
C295 C294 1.387 . S
C295 H315 0.931 . S
C296 C293 1.487 . S
C296 C303 1.399 . S
C296 N321 1.343 . S
C297 C298 1.384 . S
C297 C299 1.384 . S
C297 H316 0.931 . S
C298 C297 1.384 . S
C298 C301 1.382 . S
C299 C297 1.384 . S
C299 C300 1.381 . S
C299 H317 0.930 . S
C300 C299 1.381 . S
C300 C302 1.381 . S
C300 C303 1.487 1_556 S
C301 C298 1.382 . S
C301 C302 1.387 . S
C301 H318 0.930 . S
C302 C300 1.381 . S
C302 C301 1.387 . S
C302 H319 0.931 . S
C303 C296 1.399 . S
C303 C300 1.487 1_554 S
C303 N320 1.343 1_554 S
H304 C276 0.931 . S
H305 C278 0.930 . S
H306 C280 0.930 . S
H307 C281 0.931 . S
H308 C283 0.931 . S
H309 C285 0.930 . S
H310 C287 0.930 . S
H311 C288 0.931 . S
H312 C290 0.931 . S
H313 C292 0.930 . S
H314 C294 0.930 . S
H315 C295 0.931 . S
H316 C297 0.931 . S
H317 C299 0.930 . S
H318 C301 0.930 . S
H319 C302 0.931 . S
N320 C282 1.343 1_556 S
N320 C303 1.343 1_556 S
N321 C289 1.343 . S
N321 C296 1.343 . S
C322 C323 1.384 . S
C322 C324 1.384 . S
C322 H350 0.931 . S
C323 C322 1.384 . S
C323 C326 1.382 . S
C324 C322 1.384 . S
C324 C325 1.381 . S
C324 H351 0.930 . S
C325 C324 1.381 . S
C325 C327 1.381 . S
C325 C328 1.487 . S
C326 C323 1.382 . S
C326 C327 1.387 . S
C326 H352 0.930 . S
C327 C325 1.381 . S
C327 C326 1.387 . S
C327 H353 0.931 . S
C328 C325 1.487 . S
C328 C335 1.399 . S
C328 N366 1.343 1_655 S
C329 C330 1.384 . S
C329 C331 1.384 . S
C329 H354 0.931 . S
C330 C329 1.384 . S
C330 C333 1.382 . S
C331 C329 1.384 . S
C331 C332 1.381 . S
C331 H355 0.930 . S
C332 C331 1.381 . S
C332 C334 1.381 . S
C332 C335 1.487 . S
C333 C330 1.382 . S
C333 C334 1.387 . S
C333 H356 0.930 . S
C334 C332 1.381 . S
C334 C333 1.387 . S
C334 H357 0.931 . S
C335 C328 1.399 . S
C335 C332 1.487 . S
C335 N367 1.343 1_655 S
C336 C337 1.384 . S
C336 C338 1.384 . S
C336 H358 0.931 . S
C337 C336 1.384 . S
C337 C340 1.382 . S
C338 C336 1.384 . S
C338 C339 1.381 . S
C338 H359 0.930 . S
C339 C338 1.381 . S
C339 C341 1.381 . S
C339 C342 1.487 . S
C340 C337 1.382 . S
C340 C341 1.387 . S
C340 H360 0.930 . S
C341 C339 1.381 . S
C341 C340 1.387 . S
C341 H361 0.931 . S
C342 C339 1.487 . S
C342 C349 1.399 . S
C342 N367 1.343 . S
C343 C344 1.384 . S
C343 C345 1.384 . S
C343 H362 0.931 . S
C344 C343 1.384 . S
C344 C347 1.382 . S
C345 C343 1.384 . S
C345 C346 1.381 . S
C345 H363 0.930 . S
C346 C345 1.381 . S
C346 C348 1.381 . S
C346 C349 1.487 . S
C347 C344 1.382 . S
C347 C348 1.387 . S
C347 H364 0.930 . S
C348 C346 1.381 . S
C348 C347 1.387 . S
C348 H365 0.931 . S
C349 C342 1.399 . S
C349 C346 1.487 . S
C349 N366 1.343 . S
H350 C322 0.931 . S
H351 C324 0.930 . S
H352 C326 0.930 . S
H353 C327 0.931 . S
H354 C329 0.931 . S
H355 C331 0.930 . S
H356 C333 0.930 . S
H357 C334 0.931 . S
H358 C336 0.931 . S
H359 C338 0.930 . S
H360 C340 0.930 . S
H361 C341 0.931 . S
H362 C343 0.931 . S
H363 C345 0.930 . S
H364 C347 0.930 . S
H365 C348 0.931 . S
N366 C328 1.343 1_455 S
N366 C349 1.343 . S
N367 C335 1.343 1_455 S
N367 C342 1.343 . S
Fe368 O369 1.886 . S
Fe368 O372 1.715 1_455 S
Fe368 O377 2.077 . S
Fe368 O382 1.935 1_455 S
Fe368 O388 2.077 . S
Fe368 O397 1.935 1_455 S
O369 Fe368 1.886 . S
O369 Fe371 1.715 . S
Fe370 O372 1.886 . S
Fe370 O373 1.715 . S
Fe370 O380 1.935 . S
Fe370 O381 2.077 . S
Fe370 O387 1.935 . S
Fe370 O396 2.077 . S
Fe371 O369 1.715 . S
Fe371 O374 1.886 . S
Fe371 O378 1.935 . S
Fe371 O383 2.077 . S
Fe371 O389 1.935 . S
Fe371 O393 2.077 . S
O372 Fe368 1.715 1_655 S
O372 Fe370 1.886 . S
O373 Fe370 1.715 . S
O373 Fe375 1.886 . S
O374 Fe371 1.886 . S
O374 Fe375 1.715 1_455 S
Fe375 O373 1.886 . S
Fe375 O374 1.715 1_655 S
Fe375 O379 2.077 . S
Fe375 O384 1.935 1_655 S
Fe375 O386 2.077 . S
Fe375 O394 1.935 1_655 S
C376 O388 1.381 . S
C376 O389 1.421 . S
O377 Fe368 2.077 . S
O377 C390 1.381 . S
O378 Fe371 1.935 . S
O378 C390 1.421 . S
O379 Fe375 2.077 . S
O379 C395 1.381 . S
O380 Fe370 1.935 . S
O380 C395 1.421 . S
O381 Fe370 2.077 . S
O381 C385 1.381 . S
O382 Fe368 1.935 1_655 S
O382 C385 1.421 . S
O383 Fe371 2.077 . S
O383 C391 1.381 . S
O384 Fe375 1.935 1_455 S
O384 C391 1.421 . S
C385 O381 1.381 . S
C385 O382 1.421 . S
O386 Fe375 2.077 . S
O386 C398 1.381 . S
O387 Fe370 1.935 . S
O387 C398 1.421 . S
O388 Fe368 2.077 . S
O388 C376 1.381 . S
O389 Fe371 1.935 . S
O389 C376 1.421 . S
C390 O377 1.381 . S
C390 O378 1.421 . S
C391 O383 1.381 . S
C391 O384 1.421 . S
C392 O393 1.381 . S
C392 O394 1.421 . S
O393 Fe371 2.077 . S
O393 C392 1.381 . S
O394 Fe375 1.935 1_455 S
O394 C392 1.421 . S
C395 O379 1.381 . S
C395 O380 1.421 . S
O396 Fe370 2.077 . S
O396 C399 1.381 . S
O397 Fe368 1.935 1_655 S
O397 C399 1.421 . S
C398 O386 1.381 . S
C398 O387 1.421 . S
C399 O396 1.381 . S
C399 O397 1.421 . S
Fe400 O401 1.886 . S
Fe400 O404 1.715 . S
Fe400 O409 2.077 . S
Fe400 O414 1.935 . S
Fe400 O420 2.077 . S
Fe400 O429 1.935 . S
O401 Fe400 1.886 . S
O401 Fe403 1.715 . S
Fe402 O404 1.886 . S
Fe402 O405 1.715 . S
Fe402 O412 1.935 . S
Fe402 O413 2.077 . S
Fe402 O419 1.935 . S
Fe402 O428 2.077 . S
Fe403 O401 1.715 . S
Fe403 O406 1.886 . S
Fe403 O410 1.935 . S
Fe403 O415 2.077 . S
Fe403 O421 1.935 . S
Fe403 O425 2.077 . S
O404 Fe400 1.715 . S
O404 Fe402 1.886 . S
O405 Fe402 1.715 . S
O405 Fe407 1.886 . S
O406 Fe403 1.886 . S
O406 Fe407 1.715 . S
Fe407 O405 1.886 . S
Fe407 O406 1.715 . S
Fe407 O411 2.077 . S
Fe407 O416 1.935 . S
Fe407 O418 2.077 . S
Fe407 O426 1.935 . S
C408 O420 1.381 . S
C408 O421 1.421 . S
O409 Fe400 2.077 . S
O409 C422 1.381 . S
O410 Fe403 1.935 . S
O410 C422 1.421 . S
O411 Fe407 2.077 . S
O411 C427 1.381 . S
O412 Fe402 1.935 . S
O412 C427 1.421 . S
O413 Fe402 2.077 . S
O413 C417 1.381 . S
O414 Fe400 1.935 . S
O414 C417 1.421 . S
O415 Fe403 2.077 . S
O415 C423 1.381 . S
O416 Fe407 1.935 . S
O416 C423 1.421 . S
C417 O413 1.381 . S
C417 O414 1.421 . S
O418 Fe407 2.077 . S
O418 C430 1.381 . S
O419 Fe402 1.935 . S
O419 C430 1.421 . S
O420 Fe400 2.077 . S
O420 C408 1.381 . S
O421 Fe403 1.935 . S
O421 C408 1.421 . S
C422 O409 1.381 . S
C422 O410 1.421 . S
C423 O415 1.381 . S
C423 O416 1.421 . S
C424 O425 1.381 . S
C424 O426 1.421 . S
O425 Fe403 2.077 . S
O425 C424 1.381 . S
O426 Fe407 1.935 . S
O426 C424 1.421 . S
C427 O411 1.381 . S
C427 O412 1.421 . S
O428 Fe402 2.077 . S
O428 C431 1.381 . S
O429 Fe400 1.935 . S
O429 C431 1.421 . S
C430 O418 1.381 . S
C430 O419 1.421 . S
C431 O428 1.381 . S
C431 O429 1.421 . S
Fe432 O433 1.886 . S
Fe432 O436 1.715 . S
Fe432 O441 2.077 . S
Fe432 O446 1.935 . S
Fe432 O452 2.077 . S
Fe432 O461 1.935 . S
O433 Fe432 1.886 . S
O433 Fe435 1.715 . S
Fe434 O436 1.886 . S
Fe434 O437 1.715 . S
Fe434 O444 1.935 . S
Fe434 O445 2.077 . S
Fe434 O451 1.935 . S
Fe434 O460 2.077 . S
Fe435 O433 1.715 . S
Fe435 O438 1.886 . S
Fe435 O442 1.935 . S
Fe435 O447 2.077 . S
Fe435 O453 1.935 . S
Fe435 O457 2.077 . S
O436 Fe432 1.715 . S
O436 Fe434 1.886 . S
O437 Fe434 1.715 . S
O437 Fe439 1.886 . S
O438 Fe435 1.886 . S
O438 Fe439 1.715 . S
Fe439 O437 1.886 . S
Fe439 O438 1.715 . S
Fe439 O443 2.077 . S
Fe439 O448 1.935 . S
Fe439 O450 2.077 . S
Fe439 O458 1.935 . S
C440 O452 1.381 . S
C440 O453 1.421 . S
O441 Fe432 2.077 . S
O441 C454 1.381 . S
O442 Fe435 1.935 . S
O442 C454 1.421 . S
O443 Fe439 2.077 . S
O443 C459 1.381 . S
O444 Fe434 1.935 . S
O444 C459 1.421 . S
O445 Fe434 2.077 . S
O445 C449 1.381 . S
O446 Fe432 1.935 . S
O446 C449 1.421 . S
O447 Fe435 2.077 . S
O447 C455 1.381 . S
O448 Fe439 1.935 . S
O448 C455 1.421 . S
C449 O445 1.381 . S
C449 O446 1.421 . S
O450 Fe439 2.077 . S
O450 C462 1.381 . S
O451 Fe434 1.935 . S
O451 C462 1.421 . S
O452 Fe432 2.077 . S
O452 C440 1.381 . S
O453 Fe435 1.935 . S
O453 C440 1.421 . S
C454 O441 1.381 . S
C454 O442 1.421 . S
C455 O447 1.381 . S
C455 O448 1.421 . S
C456 O457 1.381 . S
C456 O458 1.421 . S
O457 Fe435 2.077 . S
O457 C456 1.381 . S
O458 Fe439 1.935 . S
O458 C456 1.421 . S
C459 O443 1.381 . S
C459 O444 1.421 . S
O460 Fe434 2.077 . S
O460 C463 1.381 . S
O461 Fe432 1.935 . S
O461 C463 1.421 . S
C462 O450 1.381 . S
C462 O451 1.421 . S
C463 O460 1.381 . S
C463 O461 1.421 . S
Fe464 O465 1.886 . S
Fe464 O468 1.715 . S
Fe464 O473 2.077 1_455 S
Fe464 O478 1.935 1_455 S
Fe464 O484 2.077 . S
Fe464 O493 1.935 . S
O465 Fe464 1.886 . S
O465 Fe467 1.715 . S
Fe466 O468 1.886 . S
Fe466 O469 1.715 . S
Fe466 O476 1.935 1_455 S
Fe466 O477 2.077 1_455 S
Fe466 O483 1.935 . S
Fe466 O492 2.077 . S
Fe467 O465 1.715 . S
Fe467 O470 1.886 . S
Fe467 O474 1.935 1_455 S
Fe467 O479 2.077 1_455 S
Fe467 O485 1.935 . S
Fe467 O489 2.077 . S
O468 Fe464 1.715 . S
O468 Fe466 1.886 . S
O469 Fe466 1.715 . S
O469 Fe471 1.886 . S
O470 Fe467 1.886 . S
O470 Fe471 1.715 . S
Fe471 O469 1.886 . S
Fe471 O470 1.715 . S
Fe471 O475 2.077 1_455 S
Fe471 O480 1.935 1_455 S
Fe471 O482 2.077 . S
Fe471 O490 1.935 . S
C472 O484 1.381 . S
C472 O485 1.421 . S
O473 Fe464 2.077 1_655 S
O473 C486 1.381 . S
O474 Fe467 1.935 1_655 S
O474 C486 1.421 . S
O475 Fe471 2.077 1_655 S
O475 C491 1.381 . S
O476 Fe466 1.935 1_655 S
O476 C491 1.421 . S
O477 Fe466 2.077 1_655 S
O477 C481 1.381 . S
O478 Fe464 1.935 1_655 S
O478 C481 1.421 . S
O479 Fe467 2.077 1_655 S
O479 C487 1.381 . S
O480 Fe471 1.935 1_655 S
O480 C487 1.421 . S
C481 O477 1.381 . S
C481 O478 1.421 . S
O482 Fe471 2.077 . S
O482 C494 1.381 . S
O483 Fe466 1.935 . S
O483 C494 1.421 . S
O484 Fe464 2.077 . S
O484 C472 1.381 . S
O485 Fe467 1.935 . S
O485 C472 1.421 . S
C486 O473 1.381 . S
C486 O474 1.421 . S
C487 O479 1.381 . S
C487 O480 1.421 . S
C488 O489 1.381 . S
C488 O490 1.421 . S
O489 Fe467 2.077 . S
O489 C488 1.381 . S
O490 Fe471 1.935 . S
O490 C488 1.421 . S
C491 O475 1.381 . S
C491 O476 1.421 . S
O492 Fe466 2.077 . S
O492 C495 1.381 . S
O493 Fe464 1.935 . S
O493 C495 1.421 . S
C494 O482 1.381 . S
C494 O483 1.421 . S
C495 O492 1.381 . S
C495 O493 1.421 . S
H496 C502 0.930 . S
H497 C506 0.930 . S
H498 C511 0.929 . S
H499 C509 0.929 . S
H500 C504 0.929 . S
H501 C510 0.929 . S
C502 H496 0.930 . S
C502 C503 1.367 . S
C502 C510 1.378 . S
C503 C502 1.367 . S
C503 C511 1.433 . S
C504 H500 0.929 . S
C504 C506 1.378 . S
C504 C508 1.350 . S
C505 C508 1.463 . S
C505 C510 1.350 . S
C505 N513 1.427 . S
C506 H497 0.930 . S
C506 C504 1.378 . S
C506 C507 1.367 . S
C507 C506 1.367 . S
C507 C509 1.433 . S
C508 C504 1.350 . S
C508 C505 1.463 . S
C508 N512 1.427 . S
C509 H499 0.929 . S
C509 C507 1.433 . S
C509 N512 1.384 . S
C510 H501 0.929 . S
C510 C502 1.378 . S
C510 C505 1.350 . S
C511 H498 0.929 . S
C511 C503 1.433 . S
C511 N513 1.384 . S
N512 C508 1.427 . S
N512 C509 1.384 . S
N513 C505 1.427 . S
N513 C511 1.384 . S
H514 C520 0.930 . S
H515 C524 0.930 . S
H516 C529 0.929 . S
H517 C527 0.929 . S
H518 C522 0.929 . S
H519 C528 0.929 . S
C520 H514 0.930 . S
C520 C521 1.367 . S
C520 C528 1.378 1_565 S
C521 C520 1.367 . S
C521 C529 1.433 . S
C522 H518 0.929 . S
C522 C524 1.378 . S
C522 C526 1.350 . S
C523 C526 1.463 . S
C523 C528 1.350 . S
C523 N531 1.427 . S
C524 H515 0.930 . S
C524 C522 1.378 . S
C524 C525 1.367 . S
C525 C524 1.367 . S
C525 C527 1.433 . S
C526 C522 1.350 . S
C526 C523 1.463 . S
C526 N530 1.427 . S
C527 H517 0.929 . S
C527 C525 1.433 . S
C527 N530 1.384 . S
C528 H519 0.929 . S
C528 C520 1.378 1_545 S
C528 C523 1.350 . S
C529 H516 0.929 . S
C529 C521 1.433 . S
C529 N531 1.384 1_565 S
N530 C526 1.427 . S
N530 C527 1.384 . S
N531 C523 1.427 . S
N531 C529 1.384 1_545 S
H532 C538 0.930 . S
H533 C542 0.930 . S
H534 C547 0.929 . S
H535 C545 0.929 . S
H536 C540 0.929 . S
H537 C546 0.929 . S
C538 H532 0.930 . S
C538 C539 1.367 . S
C538 C546 1.378 . S
C539 C538 1.367 . S
C539 C547 1.433 . S
C540 H536 0.929 . S
C540 C542 1.378 . S
C540 C544 1.350 . S
C541 C544 1.463 . S
C541 C546 1.350 . S
C541 N549 1.427 . S
C542 H533 0.930 . S
C542 C540 1.378 . S
C542 C543 1.367 . S
C543 C542 1.367 . S
C543 C545 1.433 . S
C544 C540 1.350 . S
C544 C541 1.463 . S
C544 N548 1.427 . S
C545 H535 0.929 . S
C545 C543 1.433 . S
C545 N548 1.384 . S
C546 H537 0.929 . S
C546 C538 1.378 . S
C546 C541 1.350 . S
C547 H534 0.929 . S
C547 C539 1.433 . S
C547 N549 1.384 . S
N548 C544 1.427 . S
N548 C545 1.384 . S
N549 C541 1.427 . S
N549 C547 1.384 . S
H550 C556 0.930 . S
H551 C560 0.930 . S
H552 C565 0.929 . S
H553 C563 0.929 . S
H554 C558 0.929 . S
H555 C564 0.929 . S
C556 H550 0.930 . S
C556 C557 1.367 . S
C556 C564 1.378 1_545 S
C557 C556 1.367 . S
C557 C565 1.433 . S
C558 H554 0.929 . S
C558 C560 1.378 . S
C558 C562 1.350 . S
C559 C562 1.463 . S
C559 C564 1.350 . S
C559 N567 1.427 1_565 S
C560 H551 0.930 . S
C560 C558 1.378 . S
C560 C561 1.367 . S
C561 C560 1.367 . S
C561 C563 1.433 . S
C562 C558 1.350 . S
C562 C559 1.463 . S
C562 N566 1.427 . S
C563 H553 0.929 . S
C563 C561 1.433 . S
C563 N566 1.384 . S
C564 H555 0.929 . S
C564 C556 1.378 1_565 S
C564 C559 1.350 . S
C565 H552 0.929 . S
C565 C557 1.433 . S
C565 N567 1.384 . S
N566 C562 1.427 . S
N566 C563 1.384 . S
N567 C559 1.427 1_545 S
N567 C565 1.384 . S
H568 C574 0.930 . S
H569 C578 0.930 . S
H570 C583 0.929 . S
H571 C581 0.929 . S
H572 C576 0.929 . S
H573 C582 0.929 . S
C574 H568 0.930 . S
C574 C575 1.367 . S
C574 C582 1.378 . S
C575 C574 1.367 . S
C575 C583 1.433 . S
C576 H572 0.929 . S
C576 C578 1.378 . S
C576 C580 1.350 . S
C577 C580 1.463 . S
C577 C582 1.350 . S
C577 N585 1.427 . S
C578 H569 0.930 . S
C578 C576 1.378 . S
C578 C579 1.367 . S
C579 C578 1.367 . S
C579 C581 1.433 . S
C580 C576 1.350 . S
C580 C577 1.463 . S
C580 N584 1.427 . S
C581 H571 0.929 . S
C581 C579 1.433 . S
C581 N584 1.384 . S
C582 H573 0.929 . S
C582 C574 1.378 . S
C582 C577 1.350 . S
C583 H570 0.929 . S
C583 C575 1.433 . S
C583 N585 1.384 . S
N584 C580 1.427 . S
N584 C581 1.384 . S
N585 C577 1.427 . S
N585 C583 1.384 . S
H586 C592 0.930 . S
H587 C596 0.930 . S
H588 C601 0.929 . S
H589 C599 0.929 . S
H590 C594 0.929 . S
H591 C600 0.929 . S
C592 H586 0.930 . S
C592 C593 1.367 . S
C592 C600 1.378 1_565 S
C593 C592 1.367 . S
C593 C601 1.433 . S
C594 H590 0.929 . S
C594 C596 1.378 . S
C594 C598 1.350 . S
C595 C598 1.463 . S
C595 C600 1.350 . S
C595 N603 1.427 1_545 S
C596 H587 0.930 . S
C596 C594 1.378 . S
C596 C597 1.367 . S
C597 C596 1.367 . S
C597 C599 1.433 . S
C598 C594 1.350 . S
C598 C595 1.463 . S
C598 N602 1.427 . S
C599 H589 0.929 . S
C599 C597 1.433 . S
C599 N602 1.384 . S
C600 H591 0.929 . S
C600 C592 1.378 1_545 S
C600 C595 1.350 . S
C601 H588 0.929 . S
C601 C593 1.433 . S
C601 N603 1.384 . S
N602 C598 1.427 . S
N602 C599 1.384 . S
N603 C595 1.427 1_565 S
N603 C601 1.384 . S
H604 C610 0.930 . S
H605 C614 0.930 . S
H606 C619 0.929 . S
H607 C617 0.929 . S
H608 C612 0.929 . S
H609 C618 0.929 . S
C610 H604 0.930 . S
C610 C611 1.367 . S
C610 C618 1.378 . S
C611 C610 1.367 . S
C611 C619 1.433 . S
C612 H608 0.929 . S
C612 C614 1.378 . S
C612 C616 1.350 . S
C613 C616 1.463 . S
C613 C618 1.350 . S
C613 N621 1.427 . S
C614 H605 0.930 . S
C614 C612 1.378 . S
C614 C615 1.367 . S
C615 C614 1.367 . S
C615 C617 1.433 . S
C616 C612 1.350 . S
C616 C613 1.463 . S
C616 N620 1.427 . S
C617 H607 0.929 . S
C617 C615 1.433 . S
C617 N620 1.384 . S
C618 H609 0.929 . S
C618 C610 1.378 . S
C618 C613 1.350 . S
C619 H606 0.929 . S
C619 C611 1.433 . S
C619 N621 1.384 . S
N620 C616 1.427 . S
N620 C617 1.384 . S
N621 C613 1.427 . S
N621 C619 1.384 . S
H622 C628 0.930 . S
H623 C632 0.930 . S
H624 C637 0.929 . S
H625 C635 0.929 . S
H626 C630 0.929 . S
H627 C636 0.929 . S
C628 H622 0.930 . S
C628 C629 1.367 . S
C628 C636 1.378 . S
C629 C628 1.367 . S
C629 C637 1.433 . S
C630 H626 0.929 . S
C630 C632 1.378 . S
C630 C634 1.350 . S
C631 C634 1.463 . S
C631 C636 1.350 1_565 S
C631 N639 1.427 . S
C632 H623 0.930 . S
C632 C630 1.378 . S
C632 C633 1.367 . S
C633 C632 1.367 . S
C633 C635 1.433 . S
C634 C630 1.350 . S
C634 C631 1.463 . S
C634 N638 1.427 . S
C635 H625 0.929 . S
C635 C633 1.433 . S
C635 N638 1.384 . S
C636 H627 0.929 . S
C636 C628 1.378 . S
C636 C631 1.350 1_545 S
C637 H624 0.929 . S
C637 C629 1.433 . S
C637 N639 1.384 1_545 S
N638 C634 1.427 . S
N638 C635 1.384 . S
N639 C631 1.427 . S
N639 C637 1.384 1_565 S
H640 C646 0.930 . S
H641 C650 0.930 . S
H642 C655 0.929 . S
H643 C653 0.929 . S
H644 C648 0.929 . S
H645 C654 0.929 . S
C646 H640 0.930 . S
C646 C647 1.367 . S
C646 C654 1.378 . S
C647 C646 1.367 . S
C647 C655 1.433 . S
C648 H644 0.929 . S
C648 C650 1.378 . S
C648 C652 1.350 . S
C649 C652 1.463 . S
C649 C654 1.350 . S
C649 N657 1.427 . S
C650 H641 0.930 . S
C650 C648 1.378 . S
C650 C651 1.367 . S
C651 C650 1.367 . S
C651 C653 1.433 . S
C652 C648 1.350 . S
C652 C649 1.463 . S
C652 N656 1.427 . S
C653 H643 0.929 . S
C653 C651 1.433 . S
C653 N656 1.384 . S
C654 H645 0.929 . S
C654 C646 1.378 . S
C654 C649 1.350 . S
C655 H642 0.929 . S
C655 C647 1.433 . S
C655 N657 1.384 . S
N656 C652 1.427 . S
N656 C653 1.384 . S
N657 C649 1.427 . S
N657 C655 1.384 . S
H658 C664 0.930 . S
H659 C668 0.930 . S
H660 C673 0.929 . S
H661 C671 0.929 . S
H662 C666 0.929 . S
H663 C672 0.929 . S
C664 H658 0.930 . S
C664 C665 1.367 . S
C664 C672 1.378 1_545 S
C665 C664 1.367 . S
C665 C673 1.433 . S
C666 H662 0.929 . S
C666 C668 1.378 . S
C666 C670 1.350 . S
C667 C670 1.463 . S
C667 C672 1.350 . S
C667 N675 1.427 1_565 S
C668 H659 0.930 . S
C668 C666 1.378 . S
C668 C669 1.367 . S
C669 C668 1.367 . S
C669 C671 1.433 . S
C670 C666 1.350 . S
C670 C667 1.463 . S
C670 N674 1.427 . S
C671 H661 0.929 . S
C671 C669 1.433 . S
C671 N674 1.384 . S
C672 H663 0.929 . S
C672 C664 1.378 1_565 S
C672 C667 1.350 . S
C673 H660 0.929 . S
C673 C665 1.433 . S
C673 N675 1.384 . S
N674 C670 1.427 . S
N674 C671 1.384 . S
N675 C667 1.427 1_545 S
N675 C673 1.384 . S
H676 C682 0.930 . S
H677 C686 0.930 . S
H678 C691 0.929 . S
H679 C689 0.929 . S
H680 C684 0.929 . S
H681 C690 0.929 . S
C682 H676 0.930 . S
C682 C683 1.367 . S
C682 C690 1.378 . S
C683 C682 1.367 . S
C683 C691 1.433 . S
C684 H680 0.929 . S
C684 C686 1.378 . S
C684 C688 1.350 . S
C685 C688 1.463 . S
C685 C690 1.350 . S
C685 N693 1.427 . S
C686 H677 0.930 . S
C686 C684 1.378 . S
C686 C687 1.367 . S
C687 C686 1.367 . S
C687 C689 1.433 . S
C688 C684 1.350 . S
C688 C685 1.463 . S
C688 N692 1.427 . S
C689 H679 0.929 . S
C689 C687 1.433 . S
C689 N692 1.384 . S
C690 H681 0.929 . S
C690 C682 1.378 . S
C690 C685 1.350 . S
C691 H678 0.929 . S
C691 C683 1.433 . S
C691 N693 1.384 . S
N692 C688 1.427 . S
N692 C689 1.384 . S
N693 C685 1.427 . S
N693 C691 1.384 . S
H694 C700 0.930 . S
H695 C704 0.930 . S
H696 C709 0.929 . S
H697 C707 0.929 . S
H698 C702 0.929 . S
H699 C708 0.927 1_545 S
C700 H694 0.930 . S
C700 C701 1.367 . S
C700 C708 1.389 . S
C701 C700 1.367 . S
C701 C709 1.433 . S
C702 H698 0.929 . S
C702 C704 1.378 . S
C702 C706 1.350 . S
C703 C706 1.463 . S
C703 C708 1.340 1_545 S
C703 N711 1.427 . S
C704 H695 0.930 . S
C704 C702 1.378 . S
C704 C705 1.367 . S
C705 C704 1.367 . S
C705 C707 1.433 . S
C706 C702 1.350 . S
C706 C703 1.463 . S
C706 N710 1.427 . S
C707 H697 0.929 . S
C707 C705 1.433 . S
C707 N710 1.384 . S
C708 H699 0.927 1_565 S
C708 C700 1.389 . S
C708 C703 1.340 1_565 S
C709 H696 0.929 . S
C709 C701 1.433 . S
C709 N711 1.384 1_565 S
N710 C706 1.427 . S
N710 C707 1.384 . S
N711 C703 1.427 . S
N711 C709 1.384 1_545 S
H712 C718 0.930 . S
H713 C722 0.930 . S
H714 C727 0.929 . S
H715 C725 0.929 . S
H716 C720 0.929 . S
H717 C726 0.929 . S
C718 H712 0.930 . S
C718 C719 1.367 . S
C718 C726 1.378 . S
C719 C718 1.367 . S
C719 C727 1.433 . S
C720 H716 0.929 . S
C720 C722 1.378 . S
C720 C724 1.350 . S
C721 C724 1.463 . S
C721 C726 1.350 . S
C721 N729 1.427 . S
C722 H713 0.930 . S
C722 C720 1.378 . S
C722 C723 1.367 . S
C723 C722 1.367 . S
C723 C725 1.433 . S
C724 C720 1.350 . S
C724 C721 1.463 . S
C724 N728 1.427 . S
C725 H715 0.929 . S
C725 C723 1.433 . S
C725 N728 1.384 . S
C726 H717 0.929 . S
C726 C718 1.378 . S
C726 C721 1.350 . S
C727 H714 0.929 . S
C727 C719 1.433 . S
C727 N729 1.384 . S
N728 C724 1.427 . S
N728 C725 1.384 . S
N729 C721 1.427 . S
N729 C727 1.384 . S
H730 C736 0.930 . S
H731 C740 0.930 . S
H732 C745 0.929 . S
H733 C743 0.929 . S
H734 C738 0.929 . S
H735 C744 0.929 . S
C736 H730 0.930 . S
C736 C737 1.367 . S
C736 C744 1.378 1_545 S
C737 C736 1.367 . S
C737 C745 1.433 . S
C738 H734 0.929 . S
C738 C740 1.378 . S
C738 C742 1.350 . S
C739 C742 1.463 . S
C739 C744 1.350 . S
C739 N747 1.427 1_565 S
C740 H731 0.930 . S
C740 C738 1.378 . S
C740 C741 1.367 . S
C741 C740 1.367 . S
C741 C743 1.433 . S
C742 C738 1.350 . S
C742 C739 1.463 . S
C742 N746 1.427 . S
C743 H733 0.929 . S
C743 C741 1.433 . S
C743 N746 1.384 . S
C744 H735 0.929 . S
C744 C736 1.378 1_565 S
C744 C739 1.350 . S
C745 H732 0.929 . S
C745 C737 1.433 . S
C745 N747 1.384 . S
N746 C742 1.427 . S
N746 C743 1.384 . S
N747 C739 1.427 1_545 S
N747 C745 1.384 . S
H748 C754 0.930 . S
H749 C758 0.930 . S
H750 C763 0.929 . S
H751 C761 0.929 . S
H752 C756 0.929 . S
H753 C762 0.929 . S
C754 H748 0.930 . S
C754 C755 1.367 . S
C754 C762 1.378 . S
C755 C754 1.367 . S
C755 C763 1.433 . S
C756 H752 0.929 . S
C756 C758 1.378 . S
C756 C760 1.350 . S
C757 C760 1.463 . S
C757 C762 1.350 . S
C757 N765 1.427 . S
C758 H749 0.930 . S
C758 C756 1.378 . S
C758 C759 1.367 . S
C759 C758 1.367 . S
C759 C761 1.433 . S
C760 C756 1.350 . S
C760 C757 1.463 . S
C760 N764 1.427 . S
C761 H751 0.929 . S
C761 C759 1.433 . S
C761 N764 1.384 . S
C762 H753 0.929 . S
C762 C754 1.378 . S
C762 C757 1.350 . S
C763 H750 0.929 . S
C763 C755 1.433 . S
C763 N765 1.384 . S
N764 C760 1.427 . S
N764 C761 1.384 . S
N765 C757 1.427 . S
N765 C763 1.384 . S
H766 C772 0.930 . S
H767 C776 0.930 . S
H768 C781 0.929 . S
H769 C779 0.929 . S
H770 C774 0.929 . S
H771 C780 0.929 . S
C772 H766 0.930 . S
C772 C773 1.367 1_545 S
C772 C780 1.378 . S
C773 C772 1.367 1_565 S
C773 C781 1.433 . S
C774 H770 0.929 . S
C774 C776 1.378 . S
C774 C778 1.350 . S
C775 C778 1.463 . S
C775 C780 1.350 . S
C775 N783 1.427 1_545 S
C776 H767 0.930 . S
C776 C774 1.378 . S
C776 C777 1.367 . S
C777 C776 1.367 . S
C777 C779 1.433 . S
C778 C774 1.350 . S
C778 C775 1.463 . S
C778 N782 1.427 . S
C779 H769 0.929 . S
C779 C777 1.433 . S
C779 N782 1.384 . S
C780 H771 0.929 . S
C780 C772 1.378 . S
C780 C775 1.350 . S
C781 H768 0.929 . S
C781 C773 1.433 . S
C781 N783 1.384 . S
N782 C778 1.427 . S
N782 C779 1.384 . S
N783 C775 1.427 1_565 S
N783 C781 1.384 . S
H784 C790 0.930 . S
H785 C794 0.930 . S
H786 C799 0.929 . S
H787 C797 0.929 . S
H788 C792 0.929 . S
H789 C798 0.929 . S
C790 H784 0.930 . S
C790 C791 1.367 . S
C790 C798 1.378 . S
C791 C790 1.367 . S
C791 C799 1.433 . S
C792 H788 0.929 . S
C792 C794 1.378 . S
C792 C796 1.350 . S
C793 C796 1.463 . S
C793 C798 1.350 . S
C793 N801 1.427 . S
C794 H785 0.930 . S
C794 C792 1.378 . S
C794 C795 1.367 . S
C795 C794 1.367 . S
C795 C797 1.433 . S
C796 C792 1.350 . S
C796 C793 1.463 . S
C796 N800 1.427 . S
C797 H787 0.929 . S
C797 C795 1.433 . S
C797 N800 1.384 . S
C798 H789 0.929 . S
C798 C790 1.378 . S
C798 C793 1.350 . S
C799 H786 0.929 . S
C799 C791 1.433 . S
C799 N801 1.384 . S
N800 C796 1.427 . S
N800 C797 1.384 . S
N801 C793 1.427 . S
N801 C799 1.384 . S
H802 C808 0.930 . S
H803 C812 0.930 . S
H804 C817 0.929 . S
H805 C815 0.929 . S
H806 C810 0.929 . S
H807 C816 0.929 . S
C808 H802 0.930 . S
C808 C809 1.367 . S
C808 C816 1.378 . S
C809 C808 1.367 . S
C809 C817 1.433 . S
C810 H806 0.929 . S
C810 C812 1.378 . S
C810 C814 1.350 . S
C811 C814 1.463 . S
C811 C816 1.350 . S
C811 N819 1.427 . S
C812 H803 0.930 . S
C812 C810 1.378 . S
C812 C813 1.367 . S
C813 C812 1.367 . S
C813 C815 1.433 . S
C814 C810 1.350 . S
C814 C811 1.463 . S
C814 N818 1.427 . S
C815 H805 0.929 . S
C815 C813 1.433 . S
C815 N818 1.384 . S
C816 H807 0.929 . S
C816 C808 1.378 . S
C816 C811 1.350 . S
C817 H804 0.929 . S
C817 C809 1.433 . S
C817 N819 1.384 . S
N818 C814 1.427 . S
N818 C815 1.384 . S
N819 C811 1.427 . S
N819 C817 1.384 . S
H820 C826 0.930 . S
H821 C830 0.930 . S
H822 C835 0.929 . S
H823 C833 0.929 . S
H824 C828 0.929 . S
H825 C834 0.929 . S
C826 H820 0.930 . S
C826 C827 1.367 . S
C826 C834 1.378 . S
C827 C826 1.367 . S
C827 C835 1.433 . S
C828 H824 0.929 . S
C828 C830 1.378 . S
C828 C832 1.350 . S
C829 C832 1.463 . S
C829 C834 1.350 . S
C829 N837 1.427 . S
C830 H821 0.930 . S
C830 C828 1.378 . S
C830 C831 1.367 . S
C831 C830 1.367 . S
C831 C833 1.433 . S
C832 C828 1.350 . S
C832 C829 1.463 . S
C832 N836 1.427 . S
C833 H823 0.929 . S
C833 C831 1.433 . S
C833 N836 1.384 . S
C834 H825 0.929 . S
C834 C826 1.378 . S
C834 C829 1.350 . S
C835 H822 0.929 . S
C835 C827 1.433 . S
C835 N837 1.384 . S
N836 C832 1.427 . S
N836 C833 1.384 . S
N837 C829 1.427 . S
N837 C835 1.384 . S
H838 C844 0.930 . S
H839 C848 0.930 . S
H840 C853 0.929 . S
H841 C851 0.929 . S
H842 C846 0.929 . S
H843 C852 0.929 . S
C844 H838 0.930 . S
C844 C845 1.367 . S
C844 C852 1.378 . S
C845 C844 1.367 . S
C845 C853 1.433 . S
C846 H842 0.929 . S
C846 C848 1.378 . S
C846 C850 1.350 . S
C847 C850 1.463 . S
C847 C852 1.350 . S
C847 N855 1.427 . S
C848 H839 0.930 . S
C848 C846 1.378 . S
C848 C849 1.367 . S
C849 C848 1.367 . S
C849 C851 1.433 . S
C850 C846 1.350 . S
C850 C847 1.463 . S
C850 N854 1.427 . S
C851 H841 0.929 . S
C851 C849 1.433 . S
C851 N854 1.384 . S
C852 H843 0.929 . S
C852 C844 1.378 . S
C852 C847 1.350 . S
C853 H840 0.929 . S
C853 C845 1.433 . S
C853 N855 1.384 . S
N854 C850 1.427 . S
N854 C851 1.384 . S
N855 C847 1.427 . S
N855 C853 1.384 . S
H856 C862 0.930 . S
H857 C866 0.930 . S
H858 C871 0.929 . S
H859 C869 0.929 . S
H860 C864 0.929 . S
H861 C870 0.929 . S
C862 H856 0.930 . S
C862 C863 1.367 . S
C862 C870 1.378 . S
C863 C862 1.367 . S
C863 C871 1.433 . S
C864 H860 0.929 . S
C864 C866 1.378 . S
C864 C868 1.350 . S
C865 C868 1.463 . S
C865 C870 1.350 . S
C865 N873 1.427 . S
C866 H857 0.930 . S
C866 C864 1.378 . S
C866 C867 1.367 . S
C867 C866 1.367 . S
C867 C869 1.433 . S
C868 C864 1.350 . S
C868 C865 1.463 . S
C868 N872 1.427 . S
C869 H859 0.929 . S
C869 C867 1.433 . S
C869 N872 1.384 . S
C870 H861 0.929 . S
C870 C862 1.378 . S
C870 C865 1.350 . S
C871 H858 0.929 . S
C871 C863 1.433 . S
C871 N873 1.384 . S
N872 C868 1.427 . S
N872 C869 1.384 . S
N873 C865 1.427 . S
N873 C871 1.384 . S
H874 C880 0.930 . S
H875 C884 0.930 . S
H876 C889 0.929 . S
H877 C887 0.929 . S
H878 C882 0.929 . S
H879 C888 0.929 . S
C880 H874 0.930 . S
C880 C881 1.367 . S
C880 C888 1.378 . S
C881 C880 1.367 . S
C881 C889 1.433 . S
C882 H878 0.929 . S
C882 C884 1.378 . S
C882 C886 1.350 . S
C883 C886 1.463 . S
C883 C888 1.350 . S
C883 N891 1.427 . S
C884 H875 0.930 . S
C884 C882 1.378 . S
C884 C885 1.367 . S
C885 C884 1.367 . S
C885 C887 1.433 . S
C886 C882 1.350 . S
C886 C883 1.463 . S
C886 N890 1.427 . S
C887 H877 0.929 . S
C887 C885 1.433 . S
C887 N890 1.384 . S
C888 H879 0.929 . S
C888 C880 1.378 . S
C888 C883 1.350 . S
C889 H876 0.929 . S
C889 C881 1.433 . S
C889 N891 1.384 . S
N890 C886 1.427 . S
N890 C887 1.384 . S
N891 C883 1.427 . S
N891 C889 1.384 . S
H892 C898 0.930 . S
H893 C902 0.930 . S
H894 C907 0.929 . S
H895 C905 0.929 . S
H896 C900 0.929 . S
H897 C906 0.929 . S
C898 H892 0.930 . S
C898 C899 1.367 . S
C898 C906 1.378 . S
C899 C898 1.367 . S
C899 C907 1.433 . S
C900 H896 0.929 . S
C900 C902 1.378 . S
C900 C904 1.350 . S
C901 C904 1.463 . S
C901 C906 1.350 . S
C901 N909 1.427 . S
C902 H893 0.930 . S
C902 C900 1.378 . S
C902 C903 1.367 . S
C903 C902 1.367 . S
C903 C905 1.433 . S
C904 C900 1.350 . S
C904 C901 1.463 . S
C904 N908 1.427 . S
C905 H895 0.929 . S
C905 C903 1.433 . S
C905 N908 1.384 . S
C906 H897 0.929 . S
C906 C898 1.378 . S
C906 C901 1.350 . S
C907 H894 0.929 . S
C907 C899 1.433 . S
C907 N909 1.384 . S
N908 C904 1.427 . S
N908 C905 1.384 . S
N909 C901 1.427 . S
N909 C907 1.384 . S
H910 C916 0.930 . S
H911 C920 0.930 . S
H912 C925 0.929 . S
H913 C923 0.929 . S
H914 C918 0.929 . S
H915 C924 0.929 . S
C916 H910 0.930 . S
C916 C917 1.367 . S
C916 C924 1.378 . S
C917 C916 1.367 . S
C917 C925 1.433 . S
C918 H914 0.929 . S
C918 C920 1.378 . S
C918 C922 1.350 . S
C919 C922 1.463 . S
C919 C924 1.350 . S
C919 N927 1.427 . S
C920 H911 0.930 . S
C920 C918 1.378 . S
C920 C921 1.367 . S
C921 C920 1.367 . S
C921 C923 1.433 . S
C922 C918 1.350 . S
C922 C919 1.463 . S
C922 N926 1.427 . S
C923 H913 0.929 . S
C923 C921 1.433 . S
C923 N926 1.384 . S
C924 H915 0.929 . S
C924 C916 1.378 . S
C924 C919 1.350 . S
C925 H912 0.929 . S
C925 C917 1.433 . S
C925 N927 1.384 . S
N926 C922 1.427 . S
N926 C923 1.384 . S
N927 C919 1.427 . S
N927 C925 1.384 . S
H928 C934 0.930 . S
H929 C938 0.930 . S
H930 C943 0.929 . S
H931 C941 0.929 . S
H932 C936 0.929 . S
H933 C942 0.929 . S
C934 H928 0.930 . S
C934 C935 1.367 . S
C934 C942 1.378 . S
C935 C934 1.367 . S
C935 C943 1.433 . S
C936 H932 0.929 . S
C936 C938 1.378 . S
C936 C940 1.350 . S
C937 C940 1.463 . S
C937 C942 1.350 . S
C937 N945 1.427 . S
C938 H929 0.930 . S
C938 C936 1.378 . S
C938 C939 1.367 . S
C939 C938 1.367 . S
C939 C941 1.433 . S
C940 C936 1.350 . S
C940 C937 1.463 . S
C940 N944 1.427 . S
C941 H931 0.929 . S
C941 C939 1.433 . S
C941 N944 1.384 . S
C942 H933 0.929 . S
C942 C934 1.378 . S
C942 C937 1.350 . S
C943 H930 0.929 . S
C943 C935 1.433 . S
C943 N945 1.384 . S
N944 C940 1.427 . S
N944 C941 1.384 . S
N945 C937 1.427 . S
N945 C943 1.384 . S
H946 C952 0.930 . S
H947 C956 0.930 . S
H948 C961 0.929 . S
H949 C959 0.929 . S
H950 C954 0.929 . S
H951 C960 0.929 . S
C952 H946 0.930 . S
C952 C953 1.367 . S
C952 C960 1.378 . S
C953 C952 1.367 . S
C953 C961 1.433 . S
C954 H950 0.929 . S
C954 C956 1.378 . S
C954 C958 1.350 . S
C955 C958 1.463 . S
C955 C960 1.350 . S
C955 N963 1.427 . S
C956 H947 0.930 . S
C956 C954 1.378 . S
C956 C957 1.367 . S
C957 C956 1.367 . S
C957 C959 1.433 . S
C958 C954 1.350 . S
C958 C955 1.463 . S
C958 N962 1.427 . S
C959 H949 0.929 . S
C959 C957 1.433 . S
C959 N962 1.384 . S
C960 H951 0.929 . S
C960 C952 1.378 . S
C960 C955 1.350 . S
C961 H948 0.929 . S
C961 C953 1.433 . S
C961 N963 1.384 . S
N962 C958 1.427 . S
N962 C959 1.384 . S
N963 C955 1.427 . S
N963 C961 1.384 . S
H964 C970 0.930 . S
H965 C974 0.930 . S
H966 C979 0.929 . S
H967 C977 0.929 . S
H968 C972 0.929 . S
H969 C978 0.929 . S
C970 H964 0.930 . S
C970 C971 1.367 . S
C970 C978 1.378 . S
C971 C970 1.367 . S
C971 C979 1.433 . S
C972 H968 0.929 . S
C972 C974 1.378 . S
C972 C976 1.350 . S
C973 C976 1.463 . S
C973 C978 1.350 . S
C973 N981 1.427 . S
C974 H965 0.930 . S
C974 C972 1.378 . S
C974 C975 1.367 . S
C975 C974 1.367 . S
C975 C977 1.433 . S
C976 C972 1.350 . S
C976 C973 1.463 . S
C976 N980 1.427 . S
C977 H967 0.929 . S
C977 C975 1.433 . S
C977 N980 1.384 . S
C978 H969 0.929 . S
C978 C970 1.378 . S
C978 C973 1.350 . S
C979 H966 0.929 . S
C979 C971 1.433 . S
C979 N981 1.384 . S
N980 C976 1.427 . S
N980 C977 1.384 . S
N981 C973 1.427 . S
N981 C979 1.384 . S
H982 C988 0.930 . S
H983 C992 0.930 . S
H984 C997 0.929 . S
H985 C995 0.929 . S
H986 C990 0.929 . S
H987 C996 0.929 . S
C988 H982 0.930 . S
C988 C989 1.367 . S
C988 C996 1.378 . S
C989 C988 1.367 . S
C989 C997 1.433 . S
C990 H986 0.929 . S
C990 C992 1.378 . S
C990 C994 1.350 . S
C991 C994 1.463 . S
C991 C996 1.350 . S
C991 N999 1.427 . S
C992 H983 0.930 . S
C992 C990 1.378 . S
C992 C993 1.367 . S
C993 C992 1.367 . S
C993 C995 1.433 . S
C994 C990 1.350 . S
C994 C991 1.463 . S
C994 N998 1.427 . S
C995 H985 0.929 . S
C995 C993 1.433 . S
C995 N998 1.384 . S
C996 H987 0.929 . S
C996 C988 1.378 . S
C996 C991 1.350 . S
C997 H984 0.929 . S
C997 C989 1.433 . S
C997 N999 1.384 . S
N998 C994 1.427 . S
N998 C995 1.384 . S
N999 C991 1.427 . S
N999 C997 1.384 . S
H1000 C1006 0.930 . S
H1001 C1010 0.930 . S
H1002 C1015 0.929 . S
H1003 C1013 0.929 . S
H1004 C1008 0.929 . S
H1005 C1014 0.929 . S
C1006 H1000 0.930 . S
C1006 C1007 1.367 . S
C1006 C1014 1.378 . S
C1007 C1006 1.367 . S
C1007 C1015 1.433 . S
C1008 H1004 0.929 . S
C1008 C1010 1.378 . S
C1008 C1012 1.350 . S
C1009 C1012 1.463 . S
C1009 C1014 1.350 . S
C1009 N1017 1.427 . S
C1010 H1001 0.930 . S
C1010 C1008 1.378 . S
C1010 C1011 1.367 . S
C1011 C1010 1.367 . S
C1011 C1013 1.433 . S
C1012 C1008 1.350 . S
C1012 C1009 1.463 . S
C1012 N1016 1.427 . S
C1013 H1003 0.929 . S
C1013 C1011 1.433 . S
C1013 N1016 1.384 . S
C1014 H1005 0.929 . S
C1014 C1006 1.378 . S
C1014 C1009 1.350 . S
C1015 H1002 0.929 . S
C1015 C1007 1.433 . S
C1015 N1017 1.384 . S
N1016 C1012 1.427 . S
N1016 C1013 1.384 . S
N1017 C1009 1.427 . S
N1017 C1015 1.384 . S
H1018 C1024 0.930 . S
H1019 C1028 0.930 . S
H1020 C1033 0.929 . S
H1021 C1031 0.929 . S
H1022 C1026 0.929 . S
H1023 C1032 0.929 . S
C1024 H1018 0.930 . S
C1024 C1025 1.367 . S
C1024 C1032 1.378 . S
C1025 C1024 1.367 . S
C1025 C1033 1.433 . S
C1026 H1022 0.929 . S
C1026 C1028 1.378 . S
C1026 C1030 1.350 . S
C1027 C1030 1.463 . S
C1027 C1032 1.350 . S
C1027 N1035 1.427 . S
C1028 H1019 0.930 . S
C1028 C1026 1.378 . S
C1028 C1029 1.367 . S
C1029 C1028 1.367 . S
C1029 C1031 1.433 . S
C1030 C1026 1.350 . S
C1030 C1027 1.463 . S
C1030 N1034 1.427 . S
C1031 H1021 0.929 . S
C1031 C1029 1.433 . S
C1031 N1034 1.384 . S
C1032 H1023 0.929 . S
C1032 C1024 1.378 . S
C1032 C1027 1.350 . S
C1033 H1020 0.929 . S
C1033 C1025 1.433 . S
C1033 N1035 1.384 . S
N1034 C1030 1.427 . S
N1034 C1031 1.384 . S
N1035 C1027 1.427 . S
N1035 C1033 1.384 . S
H1036 C1042 0.930 . S
H1037 C1046 0.930 . S
H1038 C1051 0.929 . S
H1039 C1049 0.929 . S
H1040 C1044 0.929 . S
H1041 C1050 0.929 . S
C1042 H1036 0.930 . S
C1042 C1043 1.367 . S
C1042 C1050 1.378 . S
C1043 C1042 1.367 . S
C1043 C1051 1.433 . S
C1044 H1040 0.929 . S
C1044 C1046 1.378 . S
C1044 C1048 1.350 . S
C1045 C1048 1.463 . S
C1045 C1050 1.350 . S
C1045 N1053 1.427 . S
C1046 H1037 0.930 . S
C1046 C1044 1.378 . S
C1046 C1047 1.367 . S
C1047 C1046 1.367 . S
C1047 C1049 1.433 . S
C1048 C1044 1.350 . S
C1048 C1045 1.463 . S
C1048 N1052 1.427 . S
C1049 H1039 0.929 . S
C1049 C1047 1.433 . S
C1049 N1052 1.384 . S
C1050 H1041 0.929 . S
C1050 C1042 1.378 . S
C1050 C1045 1.350 . S
C1051 H1038 0.929 . S
C1051 C1043 1.433 . S
C1051 N1053 1.384 . S
N1052 C1048 1.427 . S
N1052 C1049 1.384 . S
N1053 C1045 1.427 . S
N1053 C1051 1.384 . S
H1054 C1060 0.930 . S
H1055 C1064 0.930 . S
H1056 C1069 0.929 . S
H1057 C1067 0.929 . S
H1058 C1062 0.929 . S
H1059 C1068 0.929 . S
C1060 H1054 0.930 . S
C1060 C1061 1.367 . S
C1060 C1068 1.378 . S
C1061 C1060 1.367 . S
C1061 C1069 1.433 . S
C1062 H1058 0.929 . S
C1062 C1064 1.378 . S
C1062 C1066 1.350 . S
C1063 C1066 1.463 . S
C1063 C1068 1.350 . S
C1063 N1071 1.427 . S
C1064 H1055 0.930 . S
C1064 C1062 1.378 . S
C1064 C1065 1.367 . S
C1065 C1064 1.367 . S
C1065 C1067 1.433 . S
C1066 C1062 1.350 . S
C1066 C1063 1.463 . S
C1066 N1070 1.427 . S
C1067 H1057 0.929 . S
C1067 C1065 1.433 . S
C1067 N1070 1.384 . S
C1068 H1059 0.929 . S
C1068 C1060 1.378 . S
C1068 C1063 1.350 . S
C1069 H1056 0.929 . S
C1069 C1061 1.433 . S
C1069 N1071 1.384 . S
N1070 C1066 1.427 . S
N1070 C1067 1.384 . S
N1071 C1063 1.427 . S
N1071 C1069 1.384 . S
C507 C417 1.494 . S
C503 C1 1.519 . S
C521 C68 1.521 . S
C525 C449 1.500 . S
C539 C93 1.521 . S
C543 C472 1.511 . S
C561 C376 1.514 . S
C557 C139 1.521 . S
C579 C459 1.362 . S
C575 C8 1.487 . S
C597 C488 1.368 . S
C593 C61 1.486 . S
C615 C392 1.370 . S
C611 C100 1.487 . S
C633 C427 1.355 . S
C629 C146 1.489 . S
C647 C15 1.490 . S
C651 C455 1.373 . S
C665 C192 1.485 . S
C669 C430 1.344 . S
C683 C107 1.488 . S
C687 C398 1.340 . S
C705 C487 1.353 . S
C701 C238 1.484 . S
C723 C431 1.494 . S
C719 C22 1.524 . S
C737 C185 1.520 . S
C741 C399 1.504 . S
C755 C114 1.521 . S
C759 C486 1.511 . S
C777 C454 1.514 . S
C773 C231 1.519 . S
C791 C277 1.521 . S
C795 C481 1.496 . S
C809 C206 1.519 . S
C813 C385 1.501 . S
C827 C330 1.521 . S
C831 C408 1.517 . S
C845 C252 1.520 . S
C849 C440 1.508 . S
C867 C395 1.343 . S
C863 C284 1.490 . S
C881 C199 1.487 . S
C885 C424 1.368 . S
C899 C323 1.489 . S
C903 C456 1.373 . S
C921 C491 1.347 . S
C917 C245 1.484 . S
C935 C291 1.490 . S
C939 C391 1.368 . S
C953 C54 1.486 . S
C957 C494 1.359 . S
C971 C344 1.489 . S
C975 C462 1.353 . S
C993 C423 1.357 . S
C989 C153 1.489 . S
C1011 C495 1.502 . S
C1007 C298 1.519 . S
C1029 C463 1.503 . S
C1025 C47 1.520 . S
C1047 C422 1.514 . S
C1043 C337 1.519 . S
C1065 C390 1.514 . S
C1061 C160 1.521 . S
