# Generated by pormake.
# Topology ptr, (4,4)-cn, num edge types: 1
# Building blocks:
#     Node 0, Type 0, BuildingBlock: KUFVIS_clean_sbu_0, # of connection points: 4
#     Node 1, Type 0, BuildingBlock: KUFVIS_clean_sbu_0, # of connection points: 4
#     Node 2, Type 0, BuildingBlock: KUFVIS_clean_sbu_0, # of connection points: 4
#     Node 3, Type 0, BuildingBlock: KUFVIS_clean_sbu_0, # of connection points: 4
#     Node 4, Type 0, BuildingBlock: KUFVIS_clean_sbu_0, # of connection points: 4
#     Node 5, Type 0, BuildingBlock: KUFVIS_clean_sbu_0, # of connection points: 4
#     Node 6, Type 0, BuildingBlock: KUFVIS_clean_sbu_0, # of connection points: 4
#     Node 7, Type 0, BuildingBlock: KUFVIS_clean_sbu_0, # of connection points: 4
#     Node 8, Type 0, BuildingBlock: KUFVIS_clean_sbu_0, # of connection points: 4
#     Node 9, Type 0, BuildingBlock: KUFVIS_clean_sbu_0, # of connection points: 4
#     Node 10, Type 0, BuildingBlock: KUFVIS_clean_sbu_0, # of connection points: 4
#     Node 11, Type 0, BuildingBlock: KUFVIS_clean_sbu_0, # of connection points: 4
#     Node 12, Type 0, BuildingBlock: KUFVIS_clean_sbu_0, # of connection points: 4
#     Node 13, Type 0, BuildingBlock: KUFVIS_clean_sbu_0, # of connection points: 4
#     Node 14, Type 0, BuildingBlock: KUFVIS_clean_sbu_0, # of connection points: 4
#     Node 15, Type 0, BuildingBlock: KUFVIS_clean_sbu_0, # of connection points: 4
#     Node 16, Type 0, BuildingBlock: KUFVIS_clean_sbu_0, # of connection points: 4
#     Node 17, Type 0, BuildingBlock: KUFVIS_clean_sbu_0, # of connection points: 4
#     Node 18, Type 1, BuildingBlock: NAWXER_clean_linker_0, # of connection points: 4
#     Node 19, Type 1, BuildingBlock: NAWXER_clean_linker_0, # of connection points: 4
#     Node 20, Type 1, BuildingBlock: NAWXER_clean_linker_0, # of connection points: 4
#     Node 21, Type 1, BuildingBlock: NAWXER_clean_linker_0, # of connection points: 4
#     Node 22, Type 1, BuildingBlock: NAWXER_clean_linker_0, # of connection points: 4
#     Node 23, Type 1, BuildingBlock: NAWXER_clean_linker_0, # of connection points: 4
#     Node 24, Type 1, BuildingBlock: NAWXER_clean_linker_0, # of connection points: 4
#     Node 25, Type 1, BuildingBlock: NAWXER_clean_linker_0, # of connection points: 4
#     Node 26, Type 1, BuildingBlock: NAWXER_clean_linker_0, # of connection points: 4
#     Node 27, Type 1, BuildingBlock: NAWXER_clean_linker_0, # of connection points: 4
#     Node 28, Type 1, BuildingBlock: NAWXER_clean_linker_0, # of connection points: 4
#     Node 29, Type 1, BuildingBlock: NAWXER_clean_linker_0, # of connection points: 4
#     Node 30, Type 1, BuildingBlock: NAWXER_clean_linker_0, # of connection points: 4
#     Node 31, Type 1, BuildingBlock: NAWXER_clean_linker_0, # of connection points: 4
#     Node 32, Type 1, BuildingBlock: NAWXER_clean_linker_0, # of connection points: 4
#     Node 33, Type 1, BuildingBlock: NAWXER_clean_linker_0, # of connection points: 4
#     Node 34, Type 1, BuildingBlock: NAWXER_clean_linker_0, # of connection points: 4
#     Node 35, Type 1, BuildingBlock: NAWXER_clean_linker_0, # of connection points: 4
#     Edge 36, Type (0, 1), BuildingBlock: AJUNOK_clean_linker_0, # of connection points: 2
#     Edge 37, Type (0, 1), BuildingBlock: AJUNOK_clean_linker_0, # of connection points: 2
#     Edge 38, Type (0, 1), BuildingBlock: AJUNOK_clean_linker_0, # of connection points: 2
#     Edge 39, Type (0, 1), BuildingBlock: AJUNOK_clean_linker_0, # of connection points: 2
#     Edge 40, Type (0, 1), BuildingBlock: AJUNOK_clean_linker_0, # of connection points: 2
#     Edge 41, Type (0, 1), BuildingBlock: AJUNOK_clean_linker_0, # of connection points: 2
#     Edge 42, Type (0, 1), BuildingBlock: AJUNOK_clean_linker_0, # of connection points: 2
#     Edge 43, Type (0, 1), BuildingBlock: AJUNOK_clean_linker_0, # of connection points: 2
#     Edge 44, Type (0, 1), BuildingBlock: AJUNOK_clean_linker_0, # of connection points: 2
#     Edge 45, Type (0, 1), BuildingBlock: AJUNOK_clean_linker_0, # of connection points: 2
#     Edge 46, Type (0, 1), BuildingBlock: AJUNOK_clean_linker_0, # of connection points: 2
#     Edge 47, Type (0, 1), BuildingBlock: AJUNOK_clean_linker_0, # of connection points: 2
#     Edge 48, Type (0, 1), BuildingBlock: AJUNOK_clean_linker_0, # of connection points: 2
#     Edge 49, Type (0, 1), BuildingBlock: AJUNOK_clean_linker_0, # of connection points: 2
#     Edge 50, Type (0, 1), BuildingBlock: AJUNOK_clean_linker_0, # of connection points: 2
#     Edge 51, Type (0, 1), BuildingBlock: AJUNOK_clean_linker_0, # of connection points: 2
#     Edge 52, Type (0, 1), BuildingBlock: AJUNOK_clean_linker_0, # of connection points: 2
#     Edge 53, Type (0, 1), BuildingBlock: AJUNOK_clean_linker_0, # of connection points: 2
#     Edge 54, Type (0, 1), BuildingBlock: AJUNOK_clean_linker_0, # of connection points: 2
#     Edge 55, Type (0, 1), BuildingBlock: AJUNOK_clean_linker_0, # of connection points: 2
#     Edge 56, Type (0, 1), BuildingBlock: AJUNOK_clean_linker_0, # of connection points: 2
#     Edge 57, Type (0, 1), BuildingBlock: AJUNOK_clean_linker_0, # of connection points: 2
#     Edge 58, Type (0, 1), BuildingBlock: AJUNOK_clean_linker_0, # of connection points: 2
#     Edge 59, Type (0, 1), BuildingBlock: AJUNOK_clean_linker_0, # of connection points: 2
#     Edge 60, Type (0, 1), BuildingBlock: AJUNOK_clean_linker_0, # of connection points: 2
#     Edge 61, Type (0, 1), BuildingBlock: AJUNOK_clean_linker_0, # of connection points: 2
#     Edge 62, Type (0, 1), BuildingBlock: AJUNOK_clean_linker_0, # of connection points: 2
#     Edge 63, Type (0, 1), BuildingBlock: AJUNOK_clean_linker_0, # of connection points: 2
#     Edge 64, Type (0, 1), BuildingBlock: AJUNOK_clean_linker_0, # of connection points: 2
#     Edge 65, Type (0, 1), BuildingBlock: AJUNOK_clean_linker_0, # of connection points: 2
#     Edge 66, Type (0, 1), BuildingBlock: AJUNOK_clean_linker_0, # of connection points: 2
#     Edge 67, Type (0, 1), BuildingBlock: AJUNOK_clean_linker_0, # of connection points: 2
#     Edge 68, Type (0, 1), BuildingBlock: AJUNOK_clean_linker_0, # of connection points: 2
#     Edge 69, Type (0, 1), BuildingBlock: AJUNOK_clean_linker_0, # of connection points: 2
#     Edge 70, Type (0, 1), BuildingBlock: AJUNOK_clean_linker_0, # of connection points: 2
#     Edge 71, Type (0, 1), BuildingBlock: AJUNOK_clean_linker_0, # of connection points: 2
#     Edge 72, Type (0, 1), BuildingBlock: AJUNOK_clean_linker_0, # of connection points: 2
#     Edge 73, Type (0, 1), BuildingBlock: AJUNOK_clean_linker_0, # of connection points: 2
#     Edge 74, Type (0, 1), BuildingBlock: AJUNOK_clean_linker_0, # of connection points: 2
#     Edge 75, Type (0, 1), BuildingBlock: AJUNOK_clean_linker_0, # of connection points: 2
#     Edge 76, Type (0, 1), BuildingBlock: AJUNOK_clean_linker_0, # of connection points: 2
#     Edge 77, Type (0, 1), BuildingBlock: AJUNOK_clean_linker_0, # of connection points: 2
#     Edge 78, Type (0, 1), BuildingBlock: AJUNOK_clean_linker_0, # of connection points: 2
#     Edge 79, Type (0, 1), BuildingBlock: AJUNOK_clean_linker_0, # of connection points: 2
#     Edge 80, Type (0, 1), BuildingBlock: AJUNOK_clean_linker_0, # of connection points: 2
#     Edge 81, Type (0, 1), BuildingBlock: AJUNOK_clean_linker_0, # of connection points: 2
#     Edge 82, Type (0, 1), BuildingBlock: AJUNOK_clean_linker_0, # of connection points: 2
#     Edge 83, Type (0, 1), BuildingBlock: AJUNOK_clean_linker_0, # of connection points: 2
#     Edge 84, Type (0, 1), BuildingBlock: AJUNOK_clean_linker_0, # of connection points: 2
#     Edge 85, Type (0, 1), BuildingBlock: AJUNOK_clean_linker_0, # of connection points: 2
#     Edge 86, Type (0, 1), BuildingBlock: AJUNOK_clean_linker_0, # of connection points: 2
#     Edge 87, Type (0, 1), BuildingBlock: AJUNOK_clean_linker_0, # of connection points: 2
#     Edge 88, Type (0, 1), BuildingBlock: AJUNOK_clean_linker_0, # of connection points: 2
#     Edge 89, Type (0, 1), BuildingBlock: AJUNOK_clean_linker_0, # of connection points: 2
#     Edge 90, Type (0, 1), BuildingBlock: AJUNOK_clean_linker_0, # of connection points: 2
#     Edge 91, Type (0, 1), BuildingBlock: AJUNOK_clean_linker_0, # of connection points: 2
#     Edge 92, Type (0, 1), BuildingBlock: AJUNOK_clean_linker_0, # of connection points: 2
#     Edge 93, Type (0, 1), BuildingBlock: AJUNOK_clean_linker_0, # of connection points: 2
#     Edge 94, Type (0, 1), BuildingBlock: AJUNOK_clean_linker_0, # of connection points: 2
#     Edge 95, Type (0, 1), BuildingBlock: AJUNOK_clean_linker_0, # of connection points: 2
#     Edge 96, Type (0, 1), BuildingBlock: AJUNOK_clean_linker_0, # of connection points: 2
#     Edge 97, Type (0, 1), BuildingBlock: AJUNOK_clean_linker_0, # of connection points: 2
#     Edge 98, Type (0, 1), BuildingBlock: AJUNOK_clean_linker_0, # of connection points: 2
#     Edge 99, Type (0, 1), BuildingBlock: AJUNOK_clean_linker_0, # of connection points: 2
#     Edge 100, Type (0, 1), BuildingBlock: AJUNOK_clean_linker_0, # of connection points: 2
#     Edge 101, Type (0, 1), BuildingBlock: AJUNOK_clean_linker_0, # of connection points: 2
#     Edge 102, Type (0, 1), BuildingBlock: AJUNOK_clean_linker_0, # of connection points: 2
#     Edge 103, Type (0, 1), BuildingBlock: AJUNOK_clean_linker_0, # of connection points: 2
#     Edge 104, Type (0, 1), BuildingBlock: AJUNOK_clean_linker_0, # of connection points: 2
#     Edge 105, Type (0, 1), BuildingBlock: AJUNOK_clean_linker_0, # of connection points: 2
#     Edge 106, Type (0, 1), BuildingBlock: AJUNOK_clean_linker_0, # of connection points: 2
#     Edge 107, Type (0, 1), BuildingBlock: AJUNOK_clean_linker_0, # of connection points: 2
# Relax obj value: 0.038
# Max RMSD: 0.168
# Mean RMSD: 0.065
data_MOF--net-ptr--node1-KUFVIS_clean_sbu_0--node2-NAWXER_clean_linker_0--edge1-AJUNOK_clean_linker_0
_symmetry_space_group_name_H-M    P1
_symmetry_Int_Tables_number       1
_symmetry_cell_setting            triclinic
loop_
_symmetry_equiv_pos_as_xyz
'x, y, z'
_cell_length_a     67.853779
_cell_length_b     67.516208
_cell_length_c     49.97931
_cell_angle_alpha  89.825364
_cell_angle_beta   90.540474
_cell_angle_gamma 119.42281
loop_
_atom_site_label
_atom_site_type_symbol
_atom_site_fract_x
_atom_site_fract_y
_atom_site_fract_z
_atom_type_partial_charge
Mn0 Mn 1.00106 0.34859 0.99955 0.0
Mn1 Mn 0.05341 0.39428 0.99853 0.0
C2 C 0.00876 0.37769 0.96992 0.0
C3 C 0.9764 0.31179 0.98513 0.0
C4 C 0.01869 0.38618 0.04149 0.0
O5 O 0.02001 0.33847 0.02135 0.0
O6 O 0.05494 0.36791 0.01406 0.0
C7 C 0.07378 0.3777 0.95849 0.0
N8 N 0.06842 0.39368 0.96665 0.0
C9 C 0.0846 0.41601 0.92706 0.0
C10 C 0.09048 0.39989 0.91834 0.0
C11 C 0.08499 0.38062 0.9341 0.0
C12 C 0.07343 0.41217 0.95152 0.0
H13 H 0.06946 0.3628 0.97048 0.0
C14 C 0.0415 0.34822 0.02363 0.0
O15 O 0.97269 0.31969 0.00703 0.0
O16 O 0.99465 0.32495 0.97207 0.0
N17 N 0.05483 0.42123 0.98406 0.0
C18 C 0.04814 0.43526 0.99544 0.0
C19 C 0.05234 0.45533 0.9822 0.0
C20 C 0.06366 0.46092 0.95761 0.0
C21 C 0.071 0.44658 0.9467 0.0
C22 C 0.06649 0.42691 0.96092 0.0
H23 H 0.03954 0.43113 0.0144 0.0
O24 O 0.98804 0.36294 0.9756 0.0
O25 O 0.02438 0.37445 0.98096 0.0
O26 O 0.00212 0.36864 0.03086 0.0
O27 O 0.0386 0.39634 0.0316 0.0
C28 C 0.08251 0.45096 0.92221 0.0
C29 C 0.08919 0.43563 0.91232 0.0
H30 H 0.0991 0.40207 0.89952 0.0
H31 H 0.08935 0.36804 0.92743 0.0
H32 H 0.04679 0.4664 0.99087 0.0
H33 H 0.06667 0.47629 0.94732 0.0
H34 H 0.08618 0.46601 0.91074 0.0
H35 H 0.09783 0.43906 0.89333 0.0
Mn36 Mn 0.65384 0.65754 0.02069 0.0
Mn37 Mn 0.64751 0.60461 0.01712 0.0
C38 C 0.63026 0.62975 0.0504 0.0
C39 C 0.67148 0.69477 0.03719 0.0
C40 C 0.62325 0.62105 0.97997 0.0
O41 O 0.6808 0.66276 0.9979 0.0
O42 O 0.67442 0.6268 0.99668 0.0
C43 C 0.68872 0.61413 0.04797 0.0
N44 N 0.66593 0.60155 0.04417 0.0
C45 C 0.66236 0.57714 0.08116 0.0
C46 C 0.68583 0.58976 0.08538 0.0
C47 C 0.69904 0.60838 0.06875 0.0
C48 C 0.65304 0.58367 0.06012 0.0
H49 H 0.69893 0.62845 0.03523 0.0
C50 C 0.68582 0.64779 0.9901 0.0
O51 O 0.66005 0.68933 0.01489 0.0
O52 O 0.67385 0.6789 0.04896 0.0
N53 N 0.62242 0.581 0.03579 0.0
C54 C 0.59993 0.57121 0.02982 0.0
C55 C 0.58429 0.55273 0.04506 0.0
C56 C 0.59197 0.54416 0.0659 0.0
C57 C 0.61523 0.55417 0.07129 0.0
C58 C 0.63001 0.57258 0.05544 0.0
H59 H 0.59397 0.57749 0.0136 0.0
O60 O 0.62789 0.64731 0.0454 0.0
O61 O 0.64669 0.62888 0.03807 0.0
O62 O 0.632 0.64125 0.98919 0.0
O63 O 0.62759 0.60592 0.98908 0.0
C64 C 0.62429 0.54703 0.09226 0.0
C65 C 0.64784 0.55855 0.09724 0.0
H66 H 0.69385 0.58541 0.10142 0.0
H67 H 0.71715 0.61825 0.07195 0.0
H68 H 0.56637 0.54509 0.04074 0.0
H69 H 0.57984 0.53003 0.07776 0.0
H70 H 0.61327 0.53293 0.10495 0.0
H71 H 0.65457 0.55309 0.11365 0.0
Mn72 Mn 0.34598 0.99706 0.02304 0.0
Mn73 Mn 0.39298 0.04847 0.0248 0.0
C74 C 0.3753 0.00331 0.05219 0.0
C75 C 0.30922 0.97321 0.03844 0.0
C76 C 0.38251 0.01368 0.98048 0.0
O77 O 0.33682 0.01754 1.00228 0.0
O78 O 0.36712 0.05182 0.01116 0.0
C79 C 0.37921 0.06902 0.06786 0.0
N80 N 0.39445 0.06355 0.05765 0.0
C81 C 0.41909 0.07963 0.09586 0.0
C82 C 0.40394 0.08599 0.10644 0.0
C83 C 0.38383 0.0805 0.09247 0.0
C84 C 0.41355 0.0682 0.07126 0.0
H85 H 0.36356 0.06438 0.05744 0.0
C86 C 0.34726 0.03926 1.00134 0.0
O87 O 0.31606 0.96934 0.01585 0.0
O88 O 0.32337 0.99138 0.05134 0.0
N89 N 0.41951 0.04813 0.0375 0.0
C90 C 0.43185 0.03995 0.02508 0.0
C91 C 0.45224 0.0435 0.03674 0.0
C92 C 0.45988 0.05566 0.06085 0.0
C93 C 0.44704 0.06416 0.07312 0.0
C94 C 0.42697 0.06026 0.06042 0.0
H95 H 0.42623 0.0308 0.0064 0.0
O96 O 0.35988 0.98279 0.04614 0.0
O97 O 0.37264 0.01949 0.04172 0.0
O98 O 0.3649 0.99734 0.99101 0.0
O99 O 0.39314 0.03365 0.99069 0.0
C100 C 0.45331 0.07624 0.0975 0.0
C101 C 0.43925 0.08381 0.10897 0.0
H102 H 0.40741 0.09479 0.12546 0.0
H103 H 0.37186 0.08501 0.10071 0.0
H104 H 0.46207 0.03693 0.02713 0.0
H105 H 0.47564 0.05839 0.06972 0.0
H106 H 0.46877 0.07959 0.10776 0.0
H107 H 0.44404 0.0927 0.12796 0.0
Mn108 Mn 0.00659 0.65759 0.99917 0.0
Mn109 Mn 0.05637 0.65745 0.99854 0.0
C110 C 0.01204 0.63507 0.96857 0.0
C111 C 0.98288 0.67152 0.98523 0.0
C112 C 0.02004 0.63228 0.03989 0.0
O113 O 0.0275 0.68608 0.02084 0.0
O114 O 0.06006 0.68519 0.01676 0.0
C115 C 0.08262 0.69694 0.96324 0.0
N116 N 0.0743 0.67451 0.96891 0.0
C117 C 0.09406 0.66991 0.93183 0.0
C118 C 0.10302 0.69303 0.92573 0.0
C119 C 0.09715 0.70656 0.94141 0.0
C120 C 0.07959 0.66126 0.95376 0.0
H121 H 0.07825 0.70741 0.97535 0.0
C122 C 0.04877 0.69458 0.02497 0.0
O123 O 0.97941 0.66029 0.0074 0.0
O124 O 1.00089 0.6759 0.97189 0.0
N125 N 0.05551 0.63167 0.98157 0.0
C126 C 0.04497 0.60958 0.98975 0.0
C127 C 0.0481 0.59352 0.97533 0.0
C128 C 0.06237 0.60043 0.95301 0.0
C129 C 0.07346 0.62336 0.94536 0.0
C130 C 0.06957 0.63855 0.9604 0.0
H131 H 0.03411 0.60421 0.00701 0.0
O132 O 0.99184 0.63064 0.97506 0.0
O133 O 0.02874 0.65286 0.97988 0.0
O134 O 0.00554 0.63729 0.03041 0.0
O135 O 0.03949 0.63922 0.02965 0.0
C136 C 0.08809 0.63171 0.92331 0.0
C137 C 0.09845 0.65498 0.91661 0.0
H138 H 0.1142 0.7005 0.90887 0.0
H139 H 0.10388 0.72438 0.93672 0.0
H140 H 0.03954 0.57587 0.98141 0.0
H141 H 0.06467 0.58798 0.94188 0.0
H142 H 0.09137 0.62035 0.91127 0.0
H143 H 0.1095 0.66116 0.89946 0.0
Mn144 Mn 0.34374 0.35075 0.02327 0.0
Mn145 Mn 0.39706 0.35897 0.01925 0.0
C146 C 0.37146 0.3753 0.05279 0.0
C147 C 0.30712 0.33191 0.04094 0.0
C148 C 0.37884 0.38167 0.98205 0.0
O149 O 0.33918 0.32381 1.00032 0.0
O150 O 0.37533 0.33129 0.99916 0.0
C151 C 0.38959 0.31856 0.05046 0.0
N152 N 0.40133 0.34144 0.04643 0.0
C153 C 0.42639 0.34661 0.08342 0.0
C154 C 0.41465 0.32307 0.08786 0.0
C155 C 0.39612 0.309 0.07136 0.0
C156 C 0.41911 0.35515 0.06227 0.0
H157 H 0.37535 0.30769 0.03781 0.0
C158 C 0.35443 0.3193 0.99255 0.0
O159 O 0.31142 0.3431 0.01859 0.0
O160 O 0.32373 0.33037 0.05182 0.0
N161 N 0.42022 0.38495 0.03761 0.0
C162 C 0.42914 0.40738 0.03137 0.0
C163 C 0.44745 0.4238 0.04641 0.0
C164 C 0.45672 0.41697 0.06735 0.0
C165 C 0.44757 0.39376 0.07305 0.0
C166 C 0.42931 0.37818 0.05736 0.0
H167 H 0.42231 0.41269 0.01508 0.0
O168 O 0.35352 0.37696 0.04809 0.0
O169 O 0.37275 0.35909 0.04024 0.0
O170 O 0.35885 0.3726 0.99156 0.0
O171 O 0.39439 0.37797 0.99105 0.0
C172 C 0.45546 0.38551 0.09413 0.0
C173 C 0.44483 0.36196 0.09936 0.0
H174 H 0.4196 0.31564 0.104 0.0
H175 H 0.38692 0.29083 0.07473 0.0
H176 H 0.45442 0.44167 0.04185 0.0
H177 H 0.47074 0.42968 0.07903 0.0
H178 H 0.46945 0.39716 0.1067 0.0
H179 H 0.45085 0.35585 0.11584 0.0
Mn180 Mn 0.65281 0.0066 0.00443 0.0
Mn181 Mn 0.6043 0.95615 1.00151 0.0
C182 C 0.62462 0.00157 0.97458 0.0
C183 C 0.68969 0.03032 0.99051 0.0
C184 C 0.61403 0.99154 0.04432 0.0
O185 O 0.66122 0.98559 0.02468 0.0
O186 O 0.62849 0.95278 0.02014 0.0
C187 C 0.62066 0.93299 0.96499 0.0
N188 N 0.60554 0.9401 0.97068 0.0
C189 C 0.58542 0.92468 0.92929 0.0
C190 C 0.6007 0.91707 0.92306 0.0
C191 C 0.61843 0.92131 0.94097 0.0
C192 C 0.58856 0.93633 0.95346 0.0
H193 H 0.63436 0.93625 0.97865 0.0
C194 C 0.64902 0.96425 0.0284 0.0
O195 O 0.68245 0.03388 0.01297 0.0
O196 O 0.67593 0.01247 0.97684 0.0
N197 N 0.57927 0.95642 0.98386 0.0
C198 C 0.56542 0.96404 0.99333 0.0
C199 C 0.54682 0.96113 0.97781 0.0
C200 C 0.54236 0.94999 0.95298 0.0
C201 C 0.5563 0.94146 0.94415 0.0
C202 C 0.57454 0.9448 0.96054 0.0
H203 H 0.56854 0.97228 0.01256 0.0
O204 O 0.64008 0.02181 0.98153 0.0
O205 O 0.62636 0.98471 0.98474 0.0
O206 O 0.63351 0.00636 0.03597 0.0
O207 O 0.60169 0.97222 0.03319 0.0
C208 C 0.55275 0.92969 0.91979 0.0
C209 C 0.56735 0.92138 0.91231 0.0
H210 H 0.59905 0.90807 0.90454 0.0
H211 H 0.63036 0.91558 0.93625 0.0
H212 H 0.53595 0.96748 0.98497 0.0
H213 H 0.52809 0.94791 0.94098 0.0
H214 H 0.53884 0.92694 0.90665 0.0
H215 H 0.56453 0.91248 0.89345 0.0
Mn216 Mn 0.66398 0.6842 0.33655 0.0
Mn217 Mn 0.71341 0.73366 0.33692 0.0
C218 C 0.66924 0.71239 0.30653 0.0
C219 C 0.64222 0.64715 0.32048 0.0
C220 C 0.67681 0.72118 0.37877 0.0
O221 O 0.68492 0.67673 0.35838 0.0
O222 O 0.71805 0.70923 0.35295 0.0
C223 C 0.73949 0.72234 0.29874 0.0
N224 N 0.73124 0.73617 0.30644 0.0
C225 C 0.74949 0.76166 0.26973 0.0
C226 C 0.7584 0.74782 0.26156 0.0
C227 C 0.75329 0.72803 0.27607 0.0
C228 C 0.73597 0.75521 0.29258 0.0
H229 H 0.73551 0.70708 0.3098 0.0
C230 C 0.70629 0.68883 0.36159 0.0
O231 O 0.6374 0.65341 0.34293 0.0
O232 O 0.6603 0.66202 0.3084 0.0
N233 N 0.71153 0.75882 0.32197 0.0
C234 C 0.69975 0.76898 0.33092 0.0
C235 C 0.7019 0.78831 0.31767 0.0
C236 C 0.71633 0.79714 0.2956 0.0
C237 C 0.72841 0.78649 0.28689 0.0
C238 C 0.72561 0.76729 0.30091 0.0
H239 H 0.68869 0.76231 0.34791 0.0
O240 O 0.64905 0.69642 0.3124 0.0
O241 O 0.68591 0.7113 0.31821 0.0
O242 O 0.66194 0.70242 0.36833 0.0
O243 O 0.69643 0.73329 0.36883 0.0
C244 C 0.7425 0.79369 0.2643 0.0
C245 C 0.75302 0.78127 0.25572 0.0
H246 H 0.76893 0.75206 0.24399 0.0
H247 H 0.75996 0.71717 0.26976 0.0
H248 H 0.69243 0.79636 0.32442 0.0
H249 H 0.71778 0.81192 0.28528 0.0
H250 H 0.74493 0.80843 0.25301 0.0
H251 H 0.76343 0.7867 0.23799 0.0
Mn252 Mn 0.31843 0.98565 0.35804 0.0
Mn253 Mn 0.32172 0.93734 0.35689 0.0
C254 C 0.2973 0.95678 0.38798 0.0
C255 C 0.33181 0.02279 0.37343 0.0
C256 C 0.29637 0.9493 0.31504 0.0
O257 O 0.34666 0.99416 0.33581 0.0
O258 O 0.34989 0.96267 0.34178 0.0
C259 C 0.3593 0.94838 0.39511 0.0
N260 N 0.33735 0.93476 0.38751 0.0
C261 C 0.33146 0.90841 0.42313 0.0
C262 C 0.35408 0.92204 0.43118 0.0
C263 C 0.36801 0.94219 0.41721 0.0
C264 C 0.32374 0.91546 0.40096 0.0
H265 H 0.37007 0.96378 0.38429 0.0
C266 C 0.35712 0.9829 0.33293 0.0
O267 O 0.32021 0.01562 0.35133 0.0
O268 O 0.33647 0.0087 0.3859 0.0
N269 N 0.29558 0.9115 0.37099 0.0
C270 C 0.27404 0.90058 0.36105 0.0
C271 C 0.25762 0.88076 0.37366 0.0
C272 C 0.2636 0.87217 0.39607 0.0
C273 C 0.28598 0.88347 0.40563 0.0
C274 C 0.30157 0.90321 0.39232 0.0
H275 H 0.26937 0.90702 0.34375 0.0
O276 O 0.2919 0.97229 0.38248 0.0
O277 O 0.31521 0.95878 0.37613 0.0
O278 O 0.29837 0.96708 0.32642 0.0
O279 O 0.30507 0.93772 0.32447 0.0
C280 C 0.29337 0.87602 0.42797 0.0
C281 C 0.31612 0.88843 0.43664 0.0
H282 H 0.36084 0.91736 0.44828 0.0
H283 H 0.38543 0.95287 0.42342 0.0
H284 H 0.2404 0.87211 0.36613 0.0
H285 H 0.25087 0.85693 0.4058 0.0
H286 H 0.28168 0.86086 0.43872 0.0
H287 H 0.32157 0.88263 0.45396 0.0
Mn288 Mn 0.00873 0.32945 0.35326 0.0
Mn289 Mn 0.05962 0.37731 0.3534 0.0
C290 C 0.03683 0.33238 0.38231 0.0
C291 C 0.97167 0.3092 0.36933 0.0
C292 C 0.04441 0.34085 0.31032 0.0
O293 O 0.00274 0.3522 0.33265 0.0
O294 O 0.03623 0.38415 0.33874 0.0
C295 C 0.05095 0.40374 0.39415 0.0
N296 N 0.06378 0.39485 0.38495 0.0
C297 C 0.09009 0.41111 0.4217 0.0
C298 C 0.0774 0.42084 0.43129 0.0
C299 C 0.05768 0.41702 0.41753 0.0
C300 C 0.08265 0.3982 0.39818 0.0
H301 H 0.03563 0.40056 0.3838 0.0
C302 C 0.0157 0.37364 0.33021 0.0
O303 O 0.97719 0.30418 0.34653 0.0
O304 O 0.98739 0.32662 0.38197 0.0
N305 N 0.08397 0.37341 0.36695 0.0
C306 C 0.09281 0.36081 0.35668 0.0
C307 C 0.11177 0.36146 0.36912 0.0
C308 C 0.1216 0.37526 0.39174 0.0
C309 C 0.11232 0.38823 0.4018 0.0
C310 C 0.09344 0.38693 0.38854 0.0
H311 H 0.08536 0.35019 0.33928 0.0
O312 O 0.01979 0.3127 0.37626 0.0
O313 O 0.03672 0.34994 0.3716 0.0
O314 O 0.02569 0.32645 0.32087 0.0
O315 O 0.05748 0.36044 0.32036 0.0
C316 C 0.12055 0.40175 0.42502 0.0
C317 C 0.10942 0.41316 0.43499 0.0
H318 H 0.08243 0.43094 0.44944 0.0
H319 H 0.04763 0.42422 0.425 0.0
H320 H 0.11876 0.35131 0.36132 0.0
H321 H 0.13606 0.37552 0.40145 0.0
H322 H 0.13507 0.40302 0.43576 0.0
H323 H 0.1156 0.42307 0.4532 0.0
Mn324 Mn 0.66704 0.98292 0.34079 0.0
Mn325 Mn 0.71843 0.98639 0.34179 0.0
C326 C 0.67485 0.96161 0.31096 0.0
C327 C 0.64241 0.99529 0.32545 0.0
C328 C 0.68182 0.9594 0.38251 0.0
O329 O 0.68616 0.01146 0.36313 0.0
O330 O 0.72035 0.01383 0.35906 0.0
C331 C 0.74152 0.02526 0.30471 0.0
N332 N 0.73524 0.00341 0.31147 0.0
C333 C 0.75304 0.99881 0.27238 0.0
C334 C 0.75999 0.02137 0.2652 0.0
C335 C 0.75411 0.03462 0.28138 0.0
C336 C 0.74053 0.99042 0.29585 0.0
H337 H 0.73683 0.03541 0.31693 0.0
C338 C 0.70752 0.02148 0.36728 0.0
O339 O 0.63868 0.98391 0.34757 0.0
O340 O 0.66107 1.00064 0.31305 0.0
N341 N 0.7194 0.96119 0.32568 0.0
C342 C 0.71101 0.9396 0.33512 0.0
C343 C 0.71504 0.92401 0.32097 0.0
C344 C 0.72789 0.93086 0.29749 0.0
C345 C 0.73682 0.95332 0.28852 0.0
C346 C 0.73236 0.96813 0.30354 0.0
H347 H 0.70117 0.93423 0.3532 0.0
O348 O 0.65414 0.95608 0.31636 0.0
O349 O 0.69049 0.97981 0.32272 0.0
O350 O 0.66671 0.96307 0.372 0.0
O351 O 0.70188 0.9679 0.37328 0.0
C352 C 0.74981 0.96154 0.26515 0.0
C353 C 0.7578 0.98422 0.25699 0.0
H354 H 0.76965 0.02863 0.24719 0.0
H355 H 0.75923 0.05198 0.27584 0.0
H356 H 0.70817 0.90674 0.3281 0.0
H357 H 0.73079 0.91874 0.28649 0.0
H358 H 0.75359 0.9505 0.25318 0.0
H359 H 0.7675 0.99025 0.23878 0.0
Mn360 Mn 0.01341 0.6804 0.35421 0.0
Mn361 Mn 0.06311 0.68002 0.35531 0.0
C362 C 0.04092 0.70193 0.38569 0.0
C363 C 0.9762 0.66671 0.36814 0.0
C364 C 0.0517 0.70614 0.31424 0.0
O365 O 0.0062 0.65217 0.33189 0.0
O366 O 0.03951 0.6527 0.33646 0.0
C367 C 0.05087 0.63983 0.38949 0.0
N368 N 0.06437 0.66241 0.38456 0.0
C369 C 0.0888 0.66625 0.42175 0.0
C370 C 0.07519 0.64301 0.42718 0.0
C371 C 0.05608 0.62978 0.41108 0.0
C372 C 0.08268 0.67534 0.40008 0.0
H373 H 0.03633 0.62956 0.37694 0.0
C374 C 0.01908 0.64363 0.32774 0.0
O375 O 0.98359 0.67819 0.34614 0.0
O376 O 0.98988 0.66179 0.3811 0.0
N377 N 0.08756 0.70545 0.37295 0.0
C378 C 0.09867 0.72768 0.3653 0.0
C379 C 0.11763 0.74342 0.38006 0.0
C380 C 0.12523 0.73607 0.4022 0.0
C381 C 0.1138 0.71302 0.40935 0.0
C382 C 0.09492 0.69816 0.39399 0.0
H383 H 0.09302 0.73339 0.34816 0.0
O384 O 0.02533 0.70688 0.3791 0.0
O385 O 0.04005 0.68437 0.37379 0.0
O386 O 0.03234 0.70124 0.32341 0.0
O387 O 0.06413 0.69879 0.32459 0.0
C388 C 0.12031 0.70424 0.43121 0.0
C389 C 0.10787 0.68086 0.43735 0.0
H390 H 0.07914 0.6352 0.44382 0.0
H391 H 0.04546 0.61185 0.4152 0.0
H392 H 0.1264 0.76116 0.37437 0.0
H393 H 0.13983 0.74826 0.41357 0.0
H394 H 0.13479 0.71534 0.44353 0.0
H395 H 0.11294 0.67434 0.45433 0.0
Mn396 Mn 0.32406 0.34302 0.3387 0.0
Mn397 Mn 0.27681 0.29189 0.33717 0.0
C398 C 0.29469 0.33721 0.31021 0.0
C399 C 0.36058 0.36612 0.32278 0.0
C400 C 0.28839 0.32652 0.38205 0.0
O401 O 0.33312 0.32221 0.35863 0.0
O402 O 0.30264 0.28806 0.34981 0.0
C403 C 0.28937 0.271 0.29329 0.0
N404 N 0.27467 0.27701 0.30393 0.0
C405 C 0.24978 0.26206 0.26573 0.0
C406 C 0.26435 0.25511 0.25473 0.0
C407 C 0.28433 0.25978 0.26848 0.0
C408 C 0.2557 0.27314 0.29054 0.0
H409 H 0.30495 0.27502 0.30351 0.0
C410 C 0.3227 0.3005 0.35917 0.0
O411 O 0.35426 0.3704 0.34552 0.0
O412 O 0.34595 0.34818 0.30993 0.0
N413 N 0.25039 0.29287 0.32527 0.0
C414 C 0.23835 0.30107 0.33837 0.0
C415 C 0.2182 0.29839 0.32692 0.0
C416 C 0.21048 0.28708 0.30229 0.0
C417 C 0.22289 0.27837 0.28946 0.0
C418 C 0.24275 0.28139 0.30194 0.0
H419 H 0.24406 0.30962 0.3574 0.0
O420 O 0.31026 0.35769 0.31622 0.0
O421 O 0.29721 0.32088 0.32043 0.0
O422 O 0.30574 0.34292 0.3712 0.0
O423 O 0.27741 0.30662 0.3717 0.0
C424 C 0.21639 0.2669 0.26471 0.0
C425 C 0.22988 0.25885 0.25278 0.0
H426 H 0.26057 0.24657 0.23552 0.0
H427 H 0.29588 0.25486 0.25989 0.0
H428 H 0.20865 0.30505 0.33703 0.0
H429 H 0.19503 0.2852 0.29342 0.0
H430 H 0.20115 0.26437 0.25455 0.0
H431 H 0.22489 0.25038 0.23354 0.0
Mn432 Mn 0.32483 0.0134 0.67134 0.0
Mn433 Mn 0.37011 0.06643 0.67256 0.0
C434 C 0.32663 0.04056 0.64177 0.0
C435 C 0.30586 0.97616 0.65524 0.0
C436 C 0.33215 0.04989 0.71268 0.0
O437 O 0.34808 0.00882 0.69242 0.0
O438 O 0.37718 0.04464 0.69141 0.0
C439 C 0.4005 0.0577 0.63846 0.0
N440 N 0.38978 0.06981 0.64367 0.0
C441 C 0.40696 0.09404 0.60566 0.0
C442 C 0.41829 0.08191 0.59999 0.0
C443 C 0.41499 0.06362 0.61642 0.0
C444 C 0.39281 0.08741 0.62796 0.0
H445 H 0.398 0.04363 0.65103 0.0
C446 C 0.36841 0.02369 0.69824 0.0
O447 O 0.30059 0.98151 0.67797 0.0
O448 O 0.32304 0.99214 0.64282 0.0
N449 N 0.36609 0.08943 0.65493 0.0
C450 C 0.35284 0.09846 0.66215 0.0
C451 C 0.35343 0.11634 0.6471 0.0
C452 C 0.36794 0.12504 0.6251 0.0
C453 C 0.38174 0.11577 0.61835 0.0
C454 C 0.38041 0.09795 0.63408 0.0
H455 H 0.34189 0.09203 0.6792 0.0
O456 O 0.30737 0.0231 0.64781 0.0
O457 O 0.34452 0.04172 0.65317 0.0
O458 O 0.32041 0.02976 0.70345 0.0
O459 O 0.35079 0.0649 0.70264 0.0
C460 C 0.39626 0.12304 0.59614 0.0
C461 C 0.40883 0.11216 0.58978 0.0
H462 H 0.42941 0.08635 0.58293 0.0
H463 H 0.4236 0.05412 0.6121 0.0
H464 H 0.34272 0.1234 0.65247 0.0
H465 H 0.3682 0.1387 0.6134 0.0
H466 H 0.39755 0.1367 0.58353 0.0
H467 H 0.41966 0.11766 0.57241 0.0
Mn468 Mn 0.98524 0.31627 0.68646 0.0
Mn469 Mn 0.98388 0.26561 0.68584 0.0
C470 C 0.96084 0.28736 0.71457 0.0
C471 C 1.00052 0.35329 0.70369 0.0
C472 C 0.96085 0.27966 0.64337 0.0
O473 O 0.01415 0.32345 0.66652 0.0
O474 O 0.01225 0.28933 0.66934 0.0
C475 C 0.02163 0.27708 0.72396 0.0
N476 N 0.99961 0.26347 0.71663 0.0
C477 C 0.99302 0.23915 0.75467 0.0
C478 C 0.01566 0.25284 0.76258 0.0
C479 C 0.03 0.27194 0.74721 0.0
C480 C 0.98561 0.2452 0.73141 0.0
H481 H 0.03269 0.29174 0.71215 0.0
C482 C 0.02219 0.31019 0.66203 0.0
O483 O 0.99024 0.34783 0.68059 0.0
O484 O 0.00278 0.33756 0.71589 0.0
N485 N 0.95753 0.24077 0.70102 0.0
C486 C 0.93603 0.22968 0.69097 0.0
C487 C 0.91949 0.21027 0.7041 0.0
C488 C 0.92532 0.20224 0.72712 0.0
C489 C 0.94763 0.21378 0.73691 0.0
C490 C 0.96339 0.233 0.72294 0.0
H491 H 0.93151 0.23561 0.67309 0.0
O492 O 0.95739 0.30412 0.70868 0.0
O493 O 0.9788 0.28822 0.70432 0.0
O494 O 0.96609 0.29911 0.6533 0.0
O495 O 0.96689 0.26621 0.65399 0.0
C496 C 0.95485 0.20705 0.76003 0.0
C497 C 0.97748 0.21983 0.76902 0.0
H498 H 0.0222 0.24891 0.78048 0.0
H499 H 0.04747 0.28264 0.75324 0.0
H500 H 0.90232 0.20146 0.69643 0.0
H501 H 0.91252 0.1872 0.73708 0.0
H502 H 0.94312 0.19217 0.77118 0.0
H503 H 0.98274 0.21465 0.78702 0.0
Mn504 Mn 0.67988 0.65927 0.68808 0.0
Mn505 Mn 0.72747 0.71015 0.68292 0.0
C506 C 0.71048 0.66769 0.71595 0.0
C507 C 0.64391 0.63696 0.70644 0.0
C508 C 0.71456 0.67124 0.64378 0.0
O509 O 0.66972 0.67809 0.66562 0.0
O510 O 0.70136 0.71238 0.66804 0.0
C511 C 0.71584 0.73628 0.72093 0.0
N512 N 0.73023 0.72888 0.71288 0.0
C513 C 0.75645 0.74931 0.74852 0.0
C514 C 0.74205 0.75742 0.75699 0.0
C515 C 0.72159 0.75076 0.74321 0.0
C516 C 0.74978 0.73489 0.72621 0.0
H517 H 0.70007 0.7311 0.71047 0.0
C518 C 0.68069 0.69945 0.6611 0.0
O519 O 0.6496 0.63136 0.68414 0.0
O520 O 0.65878 0.65594 0.71734 0.0
N521 N 0.75417 0.71074 0.69674 0.0
C522 C 0.76548 0.70035 0.687 0.0
C523 C 0.78587 0.70447 0.69923 0.0
C524 C 0.79461 0.71952 0.72103 0.0
C525 C 0.78284 0.73027 0.73046 0.0
C526 C 0.76256 0.72542 0.71754 0.0
H527 H 0.75896 0.68892 0.67012 0.0
O528 O 0.69476 0.64681 0.71223 0.0
O529 O 0.70752 0.68313 0.70382 0.0
O530 O 0.69698 0.65643 0.65594 0.0
O531 O 0.72647 0.69188 0.65145 0.0
C532 C 0.79028 0.7454 0.75236 0.0
C533 C 0.77701 0.75477 0.76152 0.0
H534 H 0.74643 0.76857 0.77418 0.0
H535 H 0.7103 0.75678 0.74975 0.0
H536 H 0.79484 0.69608 0.69185 0.0
H537 H 0.81031 0.7226 0.73045 0.0
H538 H 0.8061 0.74982 0.76247 0.0
H539 H 0.78272 0.76605 0.77868 0.0
Mn540 Mn 0.33362 0.31992 0.67168 0.0
Mn541 Mn 0.38311 0.31954 0.67079 0.0
C542 C 0.33841 0.29631 0.64221 0.0
C543 C 0.3114 0.33517 0.65566 0.0
C544 C 0.34735 0.29579 0.7136 0.0
O545 O 0.35493 0.34845 0.69291 0.0
O546 O 0.38791 0.34861 0.68677 0.0
C547 C 0.40576 0.35584 0.63044 0.0
N548 N 0.3991 0.33433 0.63901 0.0
C549 C 0.41421 0.32632 0.5997 0.0
C550 C 0.422 0.34869 0.59097 0.0
C551 C 0.41756 0.36344 0.60629 0.0
C552 C 0.40262 0.31976 0.62399 0.0
H553 H 0.40173 0.36693 0.64173 0.0
C554 C 0.37637 0.35754 0.69565 0.0
O555 O 0.30702 0.32442 0.67835 0.0
O556 O 0.32933 0.33808 0.6433 0.0
N557 N 0.38136 0.2926 0.6559 0.0
C558 C 0.3722 0.27141 0.66679 0.0
C559 C 0.37438 0.25432 0.65342 0.0
C560 C 0.38617 0.25926 0.62918 0.0
C561 C 0.3959 0.28132 0.61868 0.0
C562 C 0.39337 0.2977 0.63304 0.0
H563 H 0.3632 0.2675 0.68546 0.0
O564 O 0.31828 0.29245 0.64813 0.0
O565 O 0.35508 0.31411 0.65325 0.0
O566 O 0.3325 0.30012 0.70349 0.0
O567 O 0.36703 0.30315 0.70355 0.0
C568 C 0.40791 0.28766 0.59447 0.0
C569 C 0.41696 0.31012 0.58491 0.0
H570 H 0.43095 0.35455 0.57225 0.0
H571 H 0.42303 0.38056 0.59938 0.0
H572 H 0.36692 0.23737 0.66174 0.0
H573 H 0.38763 0.24599 0.6188 0.0
H574 H 0.41008 0.27534 0.5829 0.0
H575 H 0.42582 0.31469 0.56604 0.0
Mn576 Mn 0.6787 0.01788 0.68705 0.0
Mn577 Mn 0.72858 0.01801 0.68672 0.0
C578 C 0.70756 0.04134 0.71626 0.0
C579 C 0.64185 0.00352 0.70341 0.0
C580 C 0.71569 0.0425 0.64511 0.0
O581 O 0.67084 0.98879 0.6662 0.0
O582 O 0.70474 0.99045 0.66862 0.0
C583 C 0.71599 0.97857 0.72235 0.0
N584 N 0.7299 1.0009 0.7165 0.0
C585 C 0.75416 0.00533 0.75405 0.0
C586 C 0.74016 0.98235 0.76044 0.0
C587 C 0.72091 0.96895 0.74461 0.0
C588 C 0.74824 0.01403 0.73184 0.0
H589 H 0.70131 0.96817 0.71006 0.0
C590 C 0.684 0.98079 0.66105 0.0
O591 O 0.64781 0.01406 0.68062 0.0
O592 O 0.65693 1.00036 0.71583 0.0
N593 N 0.75351 0.04359 0.70345 0.0
C594 C 0.76524 0.06545 0.69455 0.0
C595 C 0.78479 0.08119 0.70841 0.0
C596 C 0.79235 0.07419 0.73089 0.0
C597 C 0.78024 0.05151 0.73938 0.0
C598 C 0.76082 0.03662 0.72485 0.0
H599 H 0.7597 0.07081 0.67702 0.0
O600 O 0.6914 0.04559 0.71023 0.0
O601 O 0.70626 0.02324 0.70538 0.0
O602 O 0.6963 0.03738 0.65458 0.0
O603 O 0.72889 0.03621 0.65576 0.0
C604 C 0.78675 0.04302 0.76154 0.0
C605 C 0.77365 0.02 0.76898 0.0
H606 H 0.74395 0.97485 0.77753 0.0
H607 H 0.70998 0.95122 0.74945 0.0
H608 H 0.7941 0.09864 0.70167 0.0
H609 H 0.80754 0.08637 0.74138 0.0
H610 H 0.80181 0.05405 0.77305 0.0
H611 H 0.77871 0.01374 0.78622 0.0
Mn612 Mn 0.98462 0.67084 0.67061 0.0
Mn613 Mn 0.93376 0.62302 0.67498 0.0
C614 C 0.95498 0.66576 0.64288 0.0
C615 C 0.02068 0.69161 0.65208 0.0
C616 C 0.94945 0.66233 0.71373 0.0
O617 O 0.99247 0.64954 0.69152 0.0
O618 O 0.9577 0.61893 0.69284 0.0
C619 C 0.9444 0.59377 0.64089 0.0
N620 N 0.931 0.60299 0.64648 0.0
C621 C 0.90574 0.58266 0.61003 0.0
C622 C 0.91919 0.57283 0.60398 0.0
C623 C 0.93867 0.5785 0.6194 0.0
C624 C 0.9124 0.59789 0.63155 0.0
H625 H 0.95934 0.598 0.65275 0.0
C626 C 0.9789 0.62902 0.69832 0.0
O627 O 0.01593 0.69707 0.67508 0.0
O628 O 0.00493 0.67332 0.64081 0.0
N629 N 0.90873 0.62399 0.65837 0.0
C630 C 0.89792 0.63543 0.66636 0.0
C631 C 0.87839 0.63208 0.65259 0.0
C632 C 0.86983 0.61658 0.63121 0.0
C633 C 0.88095 0.60463 0.62371 0.0
C634 C 0.90046 0.60882 0.63804 0.0
H635 H 0.90414 0.64697 0.68312 0.0
O636 O 0.97173 0.68594 0.6476 0.0
O637 O 0.95607 0.64896 0.65425 0.0
O638 O 0.96891 0.67481 0.70354 0.0
O639 O 0.93495 0.64285 0.70461 0.0
C640 C 0.87353 0.58881 0.6025 0.0
C641 C 0.88603 0.578 0.5955 0.0
H642 H 0.91477 0.56099 0.58747 0.0
H643 H 0.94918 0.57105 0.6148 0.0
H644 H 0.86986 0.64131 0.65858 0.0
H645 H 0.8547 0.61399 0.62072 0.0
H646 H 0.85831 0.58492 0.5913 0.0
H647 H 0.88034 0.56614 0.5789 0.0
C648 C 0.23284 0.33266 0.1209 0.0
C649 C 0.2278 0.3166 0.10049 0.0
C650 C 0.21556 0.3326 0.13594 0.0
C651 C 0.19284 0.316 0.13151 0.0
C652 C 0.20509 0.30058 0.09517 0.0
C653 C 0.18776 0.30025 0.11061 0.0
C654 C 0.1743 0.31584 0.14744 0.0
C655 C 0.21756 0.30726 0.21253 0.0
C656 C 0.22919 0.32704 0.22829 0.0
C657 C 0.20065 0.30492 0.19448 0.0
C658 C 0.19491 0.32217 0.1922 0.0
C659 C 0.2237 0.34448 0.22528 0.0
C660 C 0.20655 0.34194 0.20768 0.0
C661 C 0.17569 0.31928 0.17542 0.0
C662 C 0.0844 0.3066 0.20653 0.0
C663 C 0.09207 0.32425 0.22553 0.0
C664 C 0.09979 0.30472 0.18954 0.0
C665 C 0.12306 0.32051 0.1913 0.0
C666 C 0.11532 0.33995 0.22711 0.0
C667 C 0.1306 0.33803 0.21034 0.0
C668 C 0.14012 0.31849 0.17489 0.0
C669 C 0.09907 0.33423 0.11667 0.0
C670 C 0.09036 0.31977 0.09445 0.0
C671 C 0.11453 0.33266 0.13392 0.0
C672 C 0.12099 0.31604 0.12981 0.0
C673 C 0.09701 0.30342 0.0899 0.0
C674 C 0.11213 0.3015 0.10754 0.0
C675 C 0.13872 0.31537 0.14678 0.0
H676 H 0.2502 0.34555 0.1249 0.0
H677 H 0.22007 0.34585 0.15071 0.0
H678 H 0.20081 0.28818 0.07933 0.0
H679 H 0.17038 0.28757 0.10634 0.0
H680 H 0.221 0.29329 0.2147 0.0
H681 H 0.19156 0.28938 0.18296 0.0
H682 H 0.2325 0.36006 0.23677 0.0
H683 H 0.20231 0.35543 0.20619 0.0
H684 H 0.06656 0.29433 0.20477 0.0
H685 H 0.09358 0.2908 0.17536 0.0
H686 H 0.12179 0.35357 0.24173 0.0
H687 H 0.14843 0.35032 0.21227 0.0
H688 H 0.09458 0.34736 0.12007 0.0
H689 H 0.12197 0.34502 0.14989 0.0
H690 H 0.09069 0.29235 0.07259 0.0
H691 H 0.11718 0.28887 0.10356 0.0
N692 N 0.15577 0.31392 0.13427 0.0
N693 N 0.15865 0.32047 0.18789 0.0
C694 C 0.66436 0.89757 0.11072 0.0
C695 C 0.68003 0.91225 0.09195 0.0
C696 C 0.66929 0.88349 0.1265 0.0
C697 C 0.69005 0.88391 0.124 0.0
C698 C 0.70088 0.91273 0.08941 0.0
C699 C 0.70579 0.8985 0.10525 0.0
C700 C 0.69446 0.86811 0.14002 0.0
C701 C 0.7081 0.91976 0.21124 0.0
C702 C 0.68701 0.91229 0.22351 0.0
C703 C 0.71066 0.90639 0.19165 0.0
C704 C 0.69215 0.88552 0.18399 0.0
C705 C 0.66828 0.89204 0.21446 0.0
C706 C 0.67092 0.87861 0.19526 0.0
C707 C 0.69528 0.86898 0.16805 0.0
C708 C 0.69443 0.78037 0.19916 0.0
C709 C 0.68546 0.77972 0.22468 0.0
C710 C 0.69952 0.79853 0.18165 0.0
C711 C 0.69404 0.81551 0.18838 0.0
C712 C 0.68322 0.79841 0.23266 0.0
C713 C 0.68663 0.81547 0.21466 0.0
C714 C 0.69585 0.8338 0.16972 0.0
C715 C 0.67149 0.77318 0.1136 0.0
C716 C 0.68778 0.77633 0.0944 0.0
C717 C 0.67353 0.7916 0.12854 0.0
C718 C 0.69237 0.81334 0.12522 0.0
C719 C 0.70607 0.79825 0.09026 0.0
C720 C 0.70833 0.81661 0.10554 0.0
C721 C 0.69497 0.83289 0.14122 0.0
H722 H 0.64815 0.89683 0.11302 0.0
H723 H 0.65663 0.87188 0.14027 0.0
H724 H 0.71308 0.92364 0.07476 0.0
H725 H 0.72178 0.89878 0.1028 0.0
H726 H 0.72278 0.93539 0.21762 0.0
H727 H 0.72726 0.91179 0.18344 0.0
H728 H 0.65166 0.88619 0.22281 0.0
H729 H 0.65649 0.8624 0.18981 0.0
H730 H 0.69738 0.76683 0.1925 0.0
H731 H 0.70762 0.79894 0.16304 0.0
H732 H 0.67859 0.79997 0.25288 0.0
H733 H 0.68317 0.8286 0.22167 0.0
H734 H 0.65709 0.75646 0.11689 0.0
H735 H 0.66067 0.78883 0.14305 0.0
H736 H 0.7188 0.80108 0.07553 0.0
H737 H 0.72272 0.83333 0.10227 0.0
N738 N 0.69456 0.85024 0.1276 0.0
N739 N 0.69613 0.85204 0.18153 0.0
C740 C 0.10876 0.7677 0.118 0.0
C741 C 0.0966 0.7713 0.0975 0.0
C742 C 0.12257 0.78531 0.13543 0.0
C743 C 0.12444 0.8069 0.13278 0.0
C744 C 0.09786 0.79262 0.09524 0.0
C745 C 0.11191 0.81039 0.1126 0.0
C746 C 0.14151 0.82625 0.14887 0.0
C747 C 0.08964 0.77938 0.20942 0.0
C748 C 0.09859 0.77129 0.22946 0.0
C749 C 0.10408 0.79657 0.19181 0.0
C750 C 0.12769 0.80584 0.19391 0.0
C751 C 0.12217 0.78059 0.23135 0.0
C752 C 0.13649 0.79764 0.2139 0.0
C753 C 0.14375 0.82503 0.17691 0.0
C754 C 0.22512 0.91377 0.20854 0.0
C755 C 0.23479 0.9047 0.22635 0.0
C756 C 0.20751 0.89942 0.19112 0.0
C757 C 0.1992 0.8758 0.1916 0.0
C758 C 0.22661 0.88114 0.2264 0.0
C759 C 0.209 0.86688 0.20932 0.0
C760 C 0.17901 0.85977 0.17588 0.0
C761 C 0.23329 0.89405 0.11381 0.0
C762 C 0.2299 0.90906 0.09744 0.0
C763 C 0.21613 0.87889 0.13066 0.0
C764 C 0.19517 0.87833 0.13128 0.0
C765 C 0.20903 0.90869 0.09822 0.0
C766 C 0.19165 0.89318 0.11474 0.0
C767 C 0.17665 0.86128 0.14799 0.0
H768 H 0.10813 0.75141 0.11995 0.0
H769 H 0.13255 0.7823 0.15025 0.0
H770 H 0.08879 0.79578 0.07937 0.0
H771 H 0.11337 0.82699 0.10993 0.0
H772 H 0.07152 0.7724 0.20733 0.0
H773 H 0.09682 0.80288 0.17696 0.0
H774 H 0.12962 0.77491 0.24671 0.0
H775 H 0.15459 0.80451 0.21612 0.0
H776 H 0.23105 0.93188 0.20828 0.0
H777 H 0.19992 0.90665 0.178 0.0
H778 H 0.23342 0.87363 0.24029 0.0
H779 H 0.20275 0.84872 0.21024 0.0
H780 H 0.24931 0.89414 0.11365 0.0
H781 H 0.21909 0.86733 0.14292 0.0
H782 H 0.20608 0.92016 0.08577 0.0
H783 H 0.17553 0.89286 0.11474 0.0
N784 N 0.15797 0.84446 0.13554 0.0
N785 N 0.16244 0.84181 0.18911 0.0
C786 C 0.3308 0.1047 0.81842 0.0
C787 C 0.31213 0.09179 0.80145 0.0
C788 C 0.33005 0.11946 0.83742 0.0
C789 C 0.31068 0.12175 0.83974 0.0
C790 C 0.29226 0.09313 0.80503 0.0
C791 C 0.2917 0.10829 0.82365 0.0
C792 C 0.31139 0.14027 0.85613 0.0
C793 C 0.30499 0.08681 0.91628 0.0
C794 C 0.32356 0.09449 0.93399 0.0
C795 C 0.3026 0.10217 0.89939 0.0
C796 C 0.31882 0.12543 0.89989 0.0
C797 C 0.34005 0.11764 0.93373 0.0
C798 C 0.33755 0.13294 0.91714 0.0
C799 C 0.31603 0.14243 0.88387 0.0
C800 C 0.31229 0.22831 0.91115 0.0
C801 C 0.33041 0.23782 0.92953 0.0
C802 C 0.30794 0.20899 0.89628 0.0
C803 C 0.32168 0.19889 0.89954 0.0
C804 C 0.34353 0.22716 0.93349 0.0
C805 C 0.33917 0.20789 0.91873 0.0
C806 C 0.31792 0.17878 0.88357 0.0
C807 C 0.34002 0.235 0.82268 0.0
C808 C 0.32481 0.23103 0.80141 0.0
C809 C 0.33615 0.21774 0.8409 0.0
C810 C 0.31682 0.19616 0.83848 0.0
C811 C 0.30535 0.20953 0.79916 0.0
C812 C 0.30145 0.19226 0.81746 0.0
C813 C 0.31412 0.17697 0.85558 0.0
H814 H 0.34644 0.10425 0.81616 0.0
H815 H 0.34502 0.12998 0.84934 0.0
H816 H 0.2773 0.0829 0.79299 0.0
H817 H 0.2766 0.10985 0.82513 0.0
H818 H 0.29206 0.06906 0.91595 0.0
H819 H 0.28781 0.09599 0.88653 0.0
H820 H 0.35496 0.12401 0.94641 0.0
H821 H 0.35037 0.15074 0.91777 0.0
H822 H 0.30182 0.23611 0.90788 0.0
H823 H 0.29392 0.20201 0.88217 0.0
H824 H 0.3573 0.23386 0.94794 0.0
H825 H 0.34983 0.20028 0.92193 0.0
H826 H 0.35523 0.25134 0.82483 0.0
H827 H 0.34877 0.22105 0.85626 0.0
H828 H 0.29361 0.20575 0.78261 0.0
H829 H 0.28668 0.17565 0.81481 0.0
N830 N 0.3107 0.15763 0.84309 0.0
N831 N 0.31898 0.16155 0.89647 0.0
C832 C 0.91634 0.22372 0.90565 0.0
C833 C 0.91014 0.23054 0.92925 0.0
C834 C 0.90014 0.20587 0.89004 0.0
C835 C 0.87708 0.19526 0.89673 0.0
C836 C 0.88724 0.21913 0.93659 0.0
C837 C 0.87095 0.20192 0.92046 0.0
C838 C 0.85914 0.17658 0.88032 0.0
C839 C 0.89464 0.23123 0.81629 0.0
C840 C 0.90596 0.22501 0.79761 0.0
C841 C 0.88006 0.21534 0.83488 0.0
C842 C 0.87655 0.19302 0.83484 0.0
C843 C 0.90281 0.20289 0.79798 0.0
C844 C 0.88804 0.18694 0.81626 0.0
C845 C 0.85929 0.17531 0.85208 0.0
C846 C 0.76721 0.10927 0.81682 0.0
C847 C 0.77111 0.09503 0.79987 0.0
C848 C 0.78394 0.12359 0.83507 0.0
C849 C 0.80485 0.12404 0.83622 0.0
C850 C 0.79176 0.09509 0.8016 0.0
C851 C 0.80863 0.10971 0.81935 0.0
C852 C 0.82364 0.14101 0.85277 0.0
C853 C 0.77418 0.08717 0.90825 0.0
C854 C 0.76917 0.09491 0.93199 0.0
C855 C 0.79195 0.10209 0.89188 0.0
C856 C 0.80453 0.12541 0.89814 0.0
C857 C 0.7828 0.11787 0.93917 0.0
C858 C 0.79994 0.13294 0.9223 0.0
C859 C 0.82331 0.14208 0.88101 0.0
H860 H 0.93367 0.23234 0.89884 0.0
H861 H 0.90585 0.20046 0.87287 0.0
H862 H 0.88179 0.22356 0.95481 0.0
H863 H 0.85343 0.19388 0.92658 0.0
H864 H 0.89675 0.2482 0.81611 0.0
H865 H 0.87102 0.22023 0.84873 0.0
H866 H 0.91123 0.19775 0.78362 0.0
H867 H 0.88534 0.16974 0.81569 0.0
H868 H 0.75138 0.10951 0.81566 0.0
H869 H 0.78087 0.13482 0.84765 0.0
H870 H 0.79509 0.08432 0.78866 0.0
H871 H 0.82475 0.11002 0.81975 0.0
H872 H 0.76429 0.06956 0.90214 0.0
H873 H 0.79585 0.09512 0.87461 0.0
H874 H 0.78034 0.12432 0.95791 0.0
H875 H 0.80965 0.15061 0.92829 0.0
N876 N 0.84112 0.15987 0.89344 0.0
N877 N 0.84166 0.15752 0.83957 0.0
C878 C 0.77658 0.69249 0.90986 0.0
C879 C 0.76758 0.67432 0.92809 0.0
C880 C 0.79607 0.69751 0.89531 0.0
C881 C 0.80685 0.68439 0.89874 0.0
C882 C 0.77895 0.66189 0.93227 0.0
C883 C 0.79836 0.6669 0.91782 0.0
C884 C 0.827 0.68859 0.88293 0.0
C885 C 0.77173 0.66749 0.8192 0.0
C886 C 0.77652 0.68404 0.79947 0.0
C887 C 0.7882 0.67041 0.83825 0.0
C888 C 0.80968 0.68995 0.83779 0.0
C889 C 0.79777 0.70371 0.79932 0.0
C890 C 0.81427 0.70659 0.81822 0.0
C891 C 0.82837 0.69166 0.85489 0.0
C892 C 0.89678 0.66954 0.81871 0.0
C893 C 0.90917 0.68693 0.80016 0.0
C894 C 0.88309 0.67206 0.83763 0.0
C895 C 0.88144 0.69196 0.83827 0.0
C896 C 0.90837 0.70733 0.80192 0.0
C897 C 0.89431 0.70964 0.82044 0.0
C898 C 0.86434 0.69322 0.85517 0.0
C899 C 0.92063 0.69971 0.90837 0.0
C900 C 0.91436 0.68571 0.93116 0.0
C901 C 0.90442 0.70211 0.89333 0.0
C902 C 0.88133 0.68971 0.8999 0.0
C903 C 0.89156 0.67491 0.93901 0.0
C904 C 0.87525 0.67659 0.92339 0.0
C905 C 0.86338 0.69071 0.88335 0.0
H906 H 0.76826 0.70247 0.90644 0.0
H907 H 0.80263 0.71155 0.88134 0.0
H908 H 0.7727 0.64812 0.94664 0.0
H909 H 0.80648 0.65671 0.92115 0.0
H910 H 0.75547 0.65206 0.81939 0.0
H911 H 0.78448 0.65699 0.85259 0.0
H912 H 0.80188 0.71642 0.78398 0.0
H913 H 0.83085 0.72157 0.81716 0.0
H914 H 0.89687 0.65356 0.81787 0.0
H915 H 0.87302 0.65807 0.85097 0.0
H916 H 0.91824 0.72137 0.78858 0.0
H917 H 0.89323 0.72513 0.82063 0.0
H918 H 0.93804 0.70863 0.90185 0.0
H919 H 0.91017 0.71374 0.87662 0.0
H920 H 0.88617 0.665 0.95722 0.0
H921 H 0.85777 0.66737 0.92966 0.0
N922 N 0.8446 0.68833 0.89595 0.0
N923 N 0.84698 0.69388 0.84225 0.0
C924 C 0.7528 0.64229 0.44171 0.0
C925 C 0.76067 0.66266 0.4272 0.0
C926 C 0.76769 0.63856 0.45775 0.0
C927 C 0.79071 0.65493 0.45908 0.0
C928 C 0.78374 0.67907 0.42897 0.0
C929 C 0.79862 0.67512 0.4445 0.0
C930 C 0.80694 0.6509 0.47465 0.0
C931 C 0.77358 0.67066 0.54099 0.0
C932 C 0.7588 0.65186 0.55662 0.0
C933 C 0.78769 0.66871 0.52218 0.0
C934 C 0.78748 0.648 0.51876 0.0
C935 C 0.75779 0.63081 0.55197 0.0
C936 C 0.77229 0.62902 0.53358 0.0
C937 C 0.80504 0.64702 0.5024 0.0
C938 C 0.89619 0.6713 0.53922 0.0
C939 C 0.8917 0.65405 0.55787 0.0
C940 C 0.87979 0.66854 0.52019 0.0
C941 C 0.85867 0.64857 0.51983 0.0
C942 C 0.87086 0.63388 0.55695 0.0
C943 C 0.85434 0.63126 0.53829 0.0
C944 C 0.84016 0.6469 0.50267 0.0
C945 C 0.89026 0.64149 0.44912 0.0
C946 C 0.89658 0.65475 0.42569 0.0
C947 C 0.87223 0.63931 0.46469 0.0
C948 C 0.86065 0.65119 0.45801 0.0
C949 C 0.88388 0.66522 0.41797 0.0
C950 C 0.86647 0.66377 0.43408 0.0
C951 C 0.8417 0.64983 0.47452 0.0
H952 H 0.73529 0.62905 0.44028 0.0
H953 H 0.76136 0.62269 0.46857 0.0
H954 H 0.79032 0.69505 0.41835 0.0
H955 H 0.81635 0.68795 0.4453 0.0
H956 H 0.77497 0.68717 0.54405 0.0
H957 H 0.79954 0.68366 0.5112 0.0
H958 H 0.7461 0.61577 0.56289 0.0
H959 H 0.77191 0.61288 0.53123 0.0
H960 H 0.91219 0.68703 0.53974 0.0
H961 H 0.88325 0.68229 0.50645 0.0
H962 H 0.86706 0.62054 0.57131 0.0
H963 H 0.83802 0.6159 0.53855 0.0
H964 H 0.89934 0.63288 0.45564 0.0
H965 H 0.86739 0.62809 0.48177 0.0
H966 H 0.88725 0.67453 0.39938 0.0
H967 H 0.85756 0.67261 0.42769 0.0
N968 N 0.82501 0.65198 0.46177 0.0
N969 N 0.82178 0.64529 0.51536 0.0
C970 C 0.33549 0.23873 0.44674 0.0
C971 C 0.34985 0.24746 0.4247 0.0
C972 C 0.33624 0.22232 0.46306 0.0
C973 C 0.35196 0.21487 0.45828 0.0
C974 C 0.36537 0.23991 0.41951 0.0
C975 C 0.36647 0.22378 0.43625 0.0
C976 C 0.35187 0.19638 0.47457 0.0
C977 C 0.36497 0.24907 0.54139 0.0
C978 C 0.34529 0.24206 0.55669 0.0
C979 C 0.36619 0.23433 0.52262 0.0
C980 C 0.34789 0.2123 0.51923 0.0
C981 C 0.32676 0.22025 0.55231 0.0
C982 C 0.32818 0.20545 0.53409 0.0
C983 C 0.34961 0.19523 0.5026 0.0
C984 C 0.3441 0.1042 0.53193 0.0
C985 C 0.33444 0.10309 0.55712 0.0
C986 C 0.3489 0.1222 0.5143 0.0
C987 C 0.34277 0.1388 0.52061 0.0
C988 C 0.33005 0.12065 0.56415 0.0
C989 C 0.33339 0.13761 0.54601 0.0
C990 C 0.34695 0.1585 0.50292 0.0
C991 C 0.32534 0.10247 0.44041 0.0
C992 C 0.34447 0.10447 0.42731 0.0
C993 C 0.32687 0.12049 0.45574 0.0
C994 C 0.34753 0.14082 0.45803 0.0
C995 C 0.365 0.12502 0.42916 0.0
C996 C 0.36645 0.14316 0.44417 0.0
C997 C 0.34939 0.15968 0.47466 0.0
H998 H 0.32296 0.24387 0.45061 0.0
H999 H 0.32384 0.21487 0.47873 0.0
H1000 H 0.37638 0.24624 0.40234 0.0
H1001 H 0.37843 0.21802 0.43177 0.0
H1002 H 0.37971 0.26558 0.54457 0.0
H1003 H 0.38168 0.23975 0.5116 0.0
H1004 H 0.31123 0.21441 0.56337 0.0
H1005 H 0.31389 0.18846 0.53176 0.0
H1006 H 0.34827 0.09135 0.52582 0.0
H1007 H 0.35786 0.12305 0.49629 0.0
H1008 H 0.3244 0.12175 0.58396 0.0
H1009 H 0.32887 0.15016 0.55244 0.0
H1010 H 0.30934 0.08679 0.43924 0.0
H1011 H 0.31204 0.11849 0.46606 0.0
H1012 H 0.3799 0.12701 0.41899 0.0
H1013 H 0.38246 0.15884 0.44549 0.0
N1014 N 0.35193 0.17862 0.46173 0.0
N1015 N 0.34734 0.17655 0.51532 0.0
C1016 C 0.7664 0.09876 0.45687 0.0
C1017 C 0.7568 0.10188 0.43337 0.0
C1018 C 0.78155 0.11749 0.4722 0.0
C1019 C 0.78683 0.13968 0.46476 0.0
C1020 C 0.76222 0.12395 0.42564 0.0
C1021 C 0.77702 0.14267 0.44126 0.0
C1022 C 0.80412 0.15995 0.47964 0.0
C1023 C 0.75182 0.11659 0.54168 0.0
C1024 C 0.76108 0.10872 0.56156 0.0
C1025 C 0.76605 0.13388 0.52405 0.0
C1026 C 0.7897 0.14355 0.52621 0.0
C1027 C 0.7847 0.1189 0.56407 0.0
C1028 C 0.79882 0.13615 0.54669 0.0
C1029 C 0.80546 0.16163 0.5079 0.0
C1030 C 0.87369 0.23718 0.56105 0.0
C1031 C 0.89582 0.24212 0.55505 0.0
C1032 C 0.85571 0.22375 0.54374 0.0
C1033 C 0.85945 0.21506 0.51997 0.0
C1034 C 0.89977 0.23454 0.53052 0.0
C1035 C 0.88175 0.22087 0.51337 0.0
C1036 C 0.83976 0.1973 0.50478 0.0
C1037 C 0.88177 0.2226 0.42201 0.0
C1038 C 0.88965 0.24597 0.42563 0.0
C1039 C 0.86463 0.20649 0.43814 0.0
C1040 C 0.85529 0.21335 0.45865 0.0
C1041 C 0.87977 0.25278 0.44568 0.0
C1042 C 0.86274 0.23663 0.462 0.0
C1043 C 0.83811 0.19598 0.47653 0.0
H1044 H 0.76284 0.08187 0.46279 0.0
H1045 H 0.78965 0.11458 0.48934 0.0
H1046 H 0.75524 0.12671 0.40734 0.0
H1047 H 0.78109 0.15957 0.43476 0.0
H1048 H 0.73365 0.1091 0.53952 0.0
H1049 H 0.75862 0.13964 0.50875 0.0
H1050 H 0.79227 0.11345 0.57954 0.0
H1051 H 0.81697 0.14346 0.54898 0.0
H1052 H 0.87007 0.24266 0.57982 0.0
H1053 H 0.83868 0.21935 0.54949 0.0
H1054 H 0.9167 0.23839 0.52511 0.0
H1055 H 0.88522 0.21391 0.4957 0.0
H1056 H 0.88938 0.21674 0.40732 0.0
H1057 H 0.85921 0.18864 0.43519 0.0
H1058 H 0.88534 0.27062 0.4489 0.0
H1059 H 0.85552 0.24234 0.47737 0.0
N1060 N 0.82043 0.17732 0.46516 0.0
N1061 N 0.82327 0.18015 0.51917 0.0
C1062 C 0.98485 0.56013 0.14548 0.0
C1063 C 0.00219 0.56814 0.12637 0.0
C1064 C 0.98171 0.54263 0.16314 0.0
C1065 C 0.99601 0.53306 0.1621 0.0
C1066 C 0.01651 0.55863 0.12563 0.0
C1067 C 0.01343 0.54132 0.14321 0.0
C1068 C 0.99236 0.5134 0.17891 0.0
C1069 C 0.01152 0.57009 0.23776 0.0
C1070 C 0.99496 0.56651 0.25674 0.0
C1071 C 0.00897 0.55246 0.22104 0.0
C1072 C 0.9897 0.53085 0.22277 0.0
C1073 C 0.9755 0.54501 0.25829 0.0
C1074 C 0.97299 0.52724 0.24157 0.0
C1075 C 0.9882 0.51171 0.20671 0.0
C1076 C 0.00946 0.43962 0.24096 0.0
C1077 C 0.99279 0.42805 0.26023 0.0
C1078 C 0.0077 0.45481 0.22338 0.0
C1079 C 0.9891 0.45857 0.22459 0.0
C1080 C 0.97412 0.43162 0.2615 0.0
C1081 C 0.97237 0.4469 0.24389 0.0
C1082 C 0.98829 0.47624 0.20762 0.0
C1083 C 0.98534 0.42416 0.14692 0.0
C1084 C 0.00386 0.43321 0.1294 0.0
C1085 C 0.98188 0.43849 0.16421 0.0
C1086 C 0.99682 0.46207 0.16404 0.0
C1087 C 0.01881 0.45674 0.12956 0.0
C1088 C 0.01531 0.47097 0.14662 0.0
C1089 C 0.99265 0.47815 0.17986 0.0
H1090 H 0.97371 0.56731 0.14669 0.0
H1091 H 0.96786 0.5363 0.17715 0.0
H1092 H 0.02987 0.56424 0.11099 0.0
H1093 H 0.02465 0.53421 0.14186 0.0
H1094 H 0.02675 0.58647 0.23628 0.0
H1095 H 0.02245 0.55556 0.20732 0.0
H1096 H 0.96267 0.54174 0.27305 0.0
H1097 H 0.95817 0.51061 0.24355 0.0
H1098 H 0.02417 0.43734 0.24001 0.0
H1099 H 0.0213 0.46418 0.20946 0.0
H1100 H 0.96127 0.42306 0.27653 0.0
H1101 H 0.95809 0.44983 0.24554 0.0
H1102 H 0.97347 0.40608 0.14701 0.0
H1103 H 0.96724 0.43127 0.17707 0.0
H1104 H 0.03288 0.46429 0.11584 0.0
H1105 H 0.02696 0.48911 0.14592 0.0
N1106 N 0.99441 0.49657 0.1668 0.0
N1107 N 0.98613 0.49308 0.21993 0.0
C1108 C 0.43956 0.42357 0.15932 0.0
C1109 C 0.43775 0.43106 0.13353 0.0
C1110 C 0.45777 0.43739 0.17635 0.0
C1111 C 0.47401 0.45957 0.16857 0.0
C1112 C 0.45504 0.45232 0.12504 0.0
C1113 C 0.47238 0.46649 0.14239 0.0
C1114 C 0.49335 0.476 0.18592 0.0
C1115 C 0.43723 0.44595 0.24868 0.0
C1116 C 0.44012 0.43047 0.2648 0.0
C1117 C 0.45463 0.46095 0.23196 0.0
C1118 C 0.47519 0.46073 0.2313 0.0
C1119 C 0.46084 0.43054 0.2644 0.0
C1120 C 0.47835 0.44576 0.24798 0.0
C1121 C 0.4938 0.47678 0.21424 0.0
C1122 C 0.56549 0.571 0.24115 0.0
C1123 C 0.57692 0.567 0.26223 0.0
C1124 C 0.5498 0.553 0.22535 0.0
C1125 C 0.54592 0.53082 0.22979 0.0
C1126 C 0.57235 0.54471 0.26738 0.0
C1127 C 0.55693 0.52675 0.25129 0.0
C1128 C 0.52924 0.51157 0.21344 0.0
C1129 C 0.58283 0.56148 0.15642 0.0
C1130 C 0.57506 0.56334 0.13076 0.0
C1131 C 0.56879 0.54388 0.17384 0.0
C1132 C 0.54609 0.52865 0.1668 0.0
C1133 C 0.55339 0.54641 0.12271 0.0
C1134 C 0.53899 0.52993 0.14058 0.0
C1135 C 0.52925 0.51072 0.18508 0.0
H1136 H 0.42695 0.40702 0.16643 0.0
H1137 H 0.45901 0.43027 0.19521 0.0
H1138 H 0.45544 0.45817 0.10477 0.0
H1139 H 0.48463 0.48305 0.13491 0.0
H1140 H 0.42135 0.44613 0.24868 0.0
H1141 H 0.45206 0.47266 0.2195 0.0
H1142 H 0.46347 0.41884 0.27682 0.0
H1143 H 0.49426 0.44563 0.24798 0.0
H1144 H 0.56862 0.58807 0.23703 0.0
H1145 H 0.54089 0.55641 0.20949 0.0
H1146 H 0.581 0.54128 0.28353 0.0
H1147 H 0.55378 0.50968 0.25542 0.0
H1148 H 0.5997 0.57366 0.16321 0.0
H1149 H 0.5759 0.54244 0.19268 0.0
H1150 H 0.54729 0.54575 0.10248 0.0
H1151 H 0.52207 0.51816 0.13353 0.0
N1152 N 0.51134 0.49285 0.17305 0.0
N1153 N 0.51174 0.49436 0.2267 0.0
C1154 C 0.44651 0.02619 0.24952 0.0
C1155 C 0.43529 0.00719 0.2664 0.0
C1156 C 0.46417 0.02852 0.23309 0.0
C1157 C 0.47104 0.01198 0.23346 0.0
C1158 C 0.44231 0.99073 0.26659 0.0
C1159 C 0.46009 0.99323 0.25053 0.0
C1160 C 0.49007 0.01423 0.21703 0.0
C1161 C 0.43411 1.00033 0.15676 0.0
C1162 C 0.44068 0.01513 0.13481 0.0
C1163 C 0.45033 0.00149 0.17521 0.0
C1164 C 0.4733 0.01788 0.17228 0.0
C1165 C 0.46347 0.03158 0.13198 0.0
C1166 C 0.4796 0.03301 0.15058 0.0
C1167 C 0.4913 0.01746 0.18904 0.0
C1168 C 0.558 0.99285 0.15075 0.0
C1169 C 0.56991 0.01025 0.13204 0.0
C1170 C 0.54464 0.99531 0.17022 0.0
C1171 C 0.54295 0.01519 0.17129 0.0
C1172 C 0.56908 0.0306 0.13417 0.0
C1173 C 0.55544 0.03288 0.1533 0.0
C1174 C 0.52612 0.01653 0.18862 0.0
C1175 C 0.58153 0.02078 0.2427 0.0
C1176 C 0.57477 0.00739 0.26602 0.0
C1177 C 0.56577 0.0233 0.22687 0.0
C1178 C 0.5426 0.01166 0.23323 0.0
C1179 C 0.55186 0.99703 0.27331 0.0
C1180 C 0.536 0.99883 0.25696 0.0
C1181 C 0.52517 0.01367 0.21675 0.0
H1182 H 0.44192 0.03946 0.24932 0.0
H1183 H 0.47268 0.04337 0.22043 0.0
H1184 H 0.43391 0.97575 0.27906 0.0
H1185 H 0.46512 0.98028 0.25118 0.0
H1186 H 0.41662 0.98725 0.15898 0.0
H1187 H 0.44498 0.98888 0.19091 0.0
H1188 H 0.46889 0.04291 0.11498 0.0
H1189 H 0.49719 0.04555 0.14754 0.0
H1190 H 0.55823 0.97695 0.14962 0.0
H1191 H 0.53485 0.98131 0.18366 0.0
H1192 H 0.5786 0.04462 0.12066 0.0
H1193 H 0.55433 0.04835 0.15378 0.0
H1194 H 0.59904 0.02929 0.23652 0.0
H1195 H 0.57196 0.03464 0.20992 0.0
H1196 H 0.54608 0.98758 0.29178 0.0
H1197 H 0.51845 0.99014 0.26304 0.0
N1198 N 0.50702 0.0125 0.22965 0.0
N1199 N 0.50933 0.01854 0.17611 0.0
C1200 C 0.56837 0.00817 0.7819 0.0
C1201 C 0.56291 0.99247 0.76096 0.0
C1202 C 0.55139 0.00827 0.79737 0.0
C1203 C 0.5285 0.99218 0.79287 0.0
C1204 C 0.54003 0.97689 0.75569 0.0
C1205 C 0.52297 0.97676 0.77151 0.0
C1206 C 0.51037 0.99219 0.80948 0.0
C1207 C 0.55068 0.97801 0.8743 0.0
C1208 C 0.56352 0.99745 0.89022 0.0
C1209 C 0.53464 0.97741 0.85598 0.0
C1210 C 0.53102 0.99608 0.85369 0.0
C1211 C 0.56035 0.01639 0.88694 0.0
C1212 C 0.54405 0.01557 0.86915 0.0
C1213 C 0.51213 0.99475 0.8376 0.0
C1214 C 0.42296 0.98559 0.87186 0.0
C1215 C 0.43145 0.00201 0.89238 0.0
C1216 C 0.43774 0.98379 0.8538 0.0
C1217 C 0.46123 0.99849 0.85591 0.0
C1218 C 0.4549 0.01679 0.89416 0.0
C1219 C 0.46958 0.01497 0.87626 0.0
C1220 C 0.4776 0.99596 0.83868 0.0
C1221 C 0.4398 0.01776 0.78334 0.0
C1222 C 0.42727 0.00211 0.76308 0.0
C1223 C 0.45529 0.01479 0.79894 0.0
C1224 C 0.45842 0.99595 0.79484 0.0
C1225 C 0.43043 0.98328 0.75885 0.0
C1226 C 0.44601 0.98032 0.77452 0.0
C1227 C 0.47574 0.99355 0.81052 0.0
H1228 H 0.58585 0.02065 0.78604 0.0
H1229 H 0.55625 0.02123 0.8126 0.0
H1230 H 0.53539 0.96463 0.73961 0.0
H1231 H 0.50547 0.96444 0.76726 0.0
H1232 H 0.55236 0.96297 0.87671 0.0
H1233 H 0.52443 0.96207 0.84449 0.0
H1234 H 0.57016 0.03173 0.89858 0.0
H1235 H 0.54139 0.03011 0.86767 0.0
H1236 H 0.40495 0.9741 0.86985 0.0
H1237 H 0.43085 0.97062 0.83864 0.0
H1238 H 0.46198 0.02947 0.90988 0.0
H1239 H 0.4876 0.02642 0.87847 0.0
H1240 H 0.43777 0.03247 0.78694 0.0
H1241 H 0.46517 0.02751 0.81388 0.0
H1242 H 0.4213 0.97122 0.74301 0.0
H1243 H 0.44844 0.96588 0.77072 0.0
N1244 N 0.49209 0.99156 0.79702 0.0
N1245 N 0.49578 0.99656 0.85094 0.0
C1246 C 0.99164 0.55837 0.7781 0.0
C1247 C 0.00687 0.57283 0.75876 0.0
C1248 C 0.99642 0.54364 0.79286 0.0
C1249 C 0.01664 0.54324 0.78872 0.0
C1250 C 0.02692 0.57209 0.75427 0.0
C1251 C 0.03168 0.55725 0.76903 0.0
C1252 C 0.02174 0.52789 0.80464 0.0
C1253 C 0.02608 0.58358 0.85986 0.0
C1254 C 0.02194 0.57857 0.88733 0.0
C1255 C 0.02839 0.56864 0.8424 0.0
C1256 C 0.02423 0.54702 0.85109 0.0
C1257 C 0.02012 0.55801 0.89645 0.0
C1258 C 0.02058 0.54236 0.8787 0.0
C1259 C 0.02401 0.52899 0.83304 0.0
C1260 C 0.03858 0.45479 0.87251 0.0
C1261 C 0.01868 0.44246 0.88747 0.0
C1262 C 0.04007 0.4707 0.85337 0.0
C1263 C 0.02172 0.47445 0.84908 0.0
C1264 C 0.99999 0.44547 0.88184 0.0
C1265 C 1.00167 0.46164 0.8633 0.0
C1266 C 0.02373 0.49334 0.8324 0.0
C1267 C 0.00198 0.43236 0.77991 0.0
C1268 C 0.01635 0.43597 0.75822 0.0
C1269 C 0.00362 0.45072 0.79451 0.0
C1270 C 0.02009 0.47311 0.78825 0.0
C1271 C 0.03206 0.45836 0.75098 0.0
C1272 C 0.03393 0.47679 0.76592 0.0
C1273 C 0.02233 0.49267 0.80426 0.0
H1274 H 0.97603 0.55855 0.78188 0.0
H1275 H 0.98447 0.5327 0.80772 0.0
H1276 H 0.03868 0.58268 0.73907 0.0
H1277 H 0.04721 0.55689 0.76532 0.0
H1278 H 0.02722 0.59879 0.8513 0.0
H1279 H 0.03351 0.57451 0.82229 0.0
H1280 H 0.01806 0.55366 0.91748 0.0
H1281 H 0.01803 0.52645 0.887 0.0
H1282 H 0.05319 0.4527 0.87624 0.0
H1283 H 0.05575 0.48065 0.84271 0.0
H1284 H 0.98412 0.4356 0.89214 0.0
H1285 H 0.98733 0.46433 0.86018 0.0
H1286 H 0.98934 0.41527 0.78545 0.0
H1287 H 0.99176 0.44732 0.81052 0.0
H1288 H 0.04318 0.46154 0.73417 0.0
H1289 H 0.04644 0.49391 0.76031 0.0
N1290 N 0.02146 0.51007 0.79146 0.0
N1291 N 0.02474 0.51139 0.84537 0.0
C1292 C 0.55273 0.58217 0.78383 0.0
C1293 C 0.56383 0.57442 0.76663 0.0
C1294 C 0.53484 0.56687 0.79983 0.0
C1295 C 0.52775 0.5435 0.79911 0.0
C1296 C 0.55672 0.55104 0.76603 0.0
C1297 C 0.53875 0.53575 0.78188 0.0
C1298 C 0.50821 0.52689 0.8151 0.0
C1299 C 0.56121 0.56497 0.87847 0.0
C1300 C 0.55621 0.57809 0.89608 0.0
C1301 C 0.54499 0.55014 0.8602 0.0
C1302 C 0.52337 0.54805 0.85909 0.0
C1303 C 0.53483 0.57666 0.89414 0.0
C1304 C 0.51846 0.56152 0.8761 0.0
C1305 C 0.5053 0.53007 0.84243 0.0
C1306 C 0.43438 0.43999 0.87962 0.0
C1307 C 0.42138 0.44586 0.8962 0.0
C1308 C 0.44948 0.45557 0.8612 0.0
C1309 C 0.45195 0.47741 0.85893 0.0
C1310 C 0.42318 0.46742 0.89302 0.0
C1311 C 0.43856 0.48314 0.87485 0.0
C1312 C 0.4703 0.49499 0.84245 0.0
C1313 C 0.42071 0.44713 0.77943 0.0
C1314 C 0.42928 0.43491 0.76555 0.0
C1315 C 0.43479 0.46511 0.79653 0.0
C1316 C 0.45765 0.47119 0.79988 0.0
C1317 C 0.45191 0.44043 0.77009 0.0
C1318 C 0.46601 0.4586 0.78669 0.0
C1319 C 0.47351 0.49158 0.81535 0.0
H1320 H 0.55771 0.60005 0.78466 0.0
H1321 H 0.5263 0.57328 0.81241 0.0
H1322 H 0.56526 0.54455 0.75358 0.0
H1323 H 0.53361 0.51782 0.78092 0.0
H1324 H 0.57738 0.56543 0.87958 0.0
H1325 H 0.54904 0.53955 0.84773 0.0
H1326 H 0.53058 0.58694 0.90688 0.0
H1327 H 0.50185 0.56012 0.87565 0.0
H1328 H 0.43366 0.42367 0.88169 0.0
H1329 H 0.46 0.45089 0.84965 0.0
H1330 H 0.41302 0.47233 0.90492 0.0
H1331 H 0.44026 0.49992 0.87351 0.0
H1332 H 0.40334 0.44323 0.77647 0.0
H1333 H 0.42805 0.47474 0.80639 0.0
H1334 H 0.45884 0.43082 0.76061 0.0
H1335 H 0.48355 0.46289 0.78918 0.0
N1336 N 0.49227 0.50767 0.80275 0.0
N1337 N 0.48637 0.5141 0.85496 0.0
C1338 C 0.66563 0.76641 0.49334 0.0
C1339 C 0.6527 0.75906 0.46963 0.0
C1340 C 0.6621 0.77985 0.51178 0.0
C1341 C 0.645 0.78555 0.50742 0.0
C1342 C 0.63497 0.76391 0.46579 0.0
C1343 C 0.63122 0.77709 0.48446 0.0
C1344 C 0.64368 0.80303 0.52411 0.0
C1345 C 0.63454 0.74722 0.58136 0.0
C1346 C 0.6526 0.75434 0.59978 0.0
C1347 C 0.63194 0.7632 0.56594 0.0
C1348 C 0.64729 0.78656 0.56877 0.0
C1349 C 0.66765 0.77777 0.60276 0.0
C1350 C 0.66492 0.79366 0.58762 0.0
C1351 C 0.64549 0.80395 0.55235 0.0
C1352 C 0.64084 0.88994 0.57828 0.0
C1353 C 0.65675 0.89778 0.59938 0.0
C1354 C 0.6372 0.87099 0.56305 0.0
C1355 C 0.64968 0.85979 0.56837 0.0
C1356 C 0.66847 0.88595 0.60531 0.0
C1357 C 0.66495 0.8672 0.59006 0.0
C1358 C 0.64697 0.84017 0.55208 0.0
C1359 C 0.67267 0.89774 0.49175 0.0
C1360 C 0.65819 0.89396 0.46973 0.0
C1361 C 0.66805 0.88032 0.5101 0.0
C1362 C 0.64879 0.8588 0.50685 0.0
C1363 C 0.63879 0.87251 0.46671 0.0
C1364 C 0.63422 0.8551 0.48501 0.0
C1365 C 0.64546 0.83935 0.52381 0.0
H1366 H 0.6792 0.76265 0.49705 0.0
H1367 H 0.67361 0.78673 0.52866 0.0
H1368 H 0.6248 0.75857 0.44766 0.0
H1369 H 0.61812 0.78148 0.4804 0.0
H1370 H 0.62233 0.72936 0.57902 0.0
H1371 H 0.61793 0.75734 0.55188 0.0
H1372 H 0.68188 0.78387 0.61653 0.0
H1373 H 0.67698 0.81156 0.59019 0.0
H1374 H 0.63167 0.89878 0.57309 0.0
H1375 H 0.62477 0.86524 0.54701 0.0
H1376 H 0.68065 0.89141 0.62163 0.0
H1377 H 0.67462 0.85878 0.59489 0.0
H1378 H 0.68781 0.91405 0.49446 0.0
H1379 H 0.67999 0.88344 0.52624 0.0
H1380 H 0.62761 0.86893 0.44961 0.0
H1381 H 0.61954 0.83852 0.48176 0.0
N1382 N 0.64362 0.82073 0.51111 0.0
N1383 N 0.64707 0.82247 0.5651 0.0
C1384 C 0.1078 0.74832 0.49543 0.0
C1385 C 0.10757 0.75415 0.46832 0.0
C1386 C 0.12571 0.76248 0.51258 0.0
C1387 C 0.14264 0.78407 0.50405 0.0
C1388 C 0.12601 0.7745 0.4592 0.0
C1389 C 0.14273 0.78941 0.47678 0.0
C1390 C 0.16062 0.8016 0.52205 0.0
C1391 C 0.09893 0.76999 0.57543 0.0
C1392 C 0.10154 0.75734 0.59618 0.0
C1393 C 0.11768 0.78566 0.56087 0.0
C1394 C 0.13922 0.78838 0.56632 0.0
C1395 C 0.12329 0.76115 0.60271 0.0
C1396 C 0.14199 0.77655 0.58787 0.0
C1397 C 0.15898 0.80376 0.55006 0.0
C1398 C 0.22929 0.89794 0.57786 0.0
C1399 C 0.2418 0.89461 0.59822 0.0
C1400 C 0.21356 0.87957 0.56251 0.0
C1401 C 0.21068 0.85775 0.56673 0.0
C1402 C 0.23815 0.87259 0.60319 0.0
C1403 C 0.22265 0.85428 0.58759 0.0
C1404 C 0.19466 0.83833 0.55021 0.0
C1405 C 0.25029 0.88861 0.49564 0.0
C1406 C 0.24502 0.88797 0.46816 0.0
C1407 C 0.23592 0.87115 0.51297 0.0
C1408 C 0.21459 0.85376 0.50413 0.0
C1409 C 0.22509 0.86899 0.45882 0.0
C1410 C 0.20995 0.85269 0.47644 0.0
C1411 C 0.19656 0.83643 0.52215 0.0
H1412 H 0.09413 0.73316 0.50398 0.0
H1413 H 0.12587 0.7563 0.53245 0.0
H1414 H 0.12756 0.77935 0.43835 0.0
H1415 H 0.15569 0.80536 0.46868 0.0
H1416 H 0.08234 0.7676 0.57037 0.0
H1417 H 0.11529 0.79511 0.54481 0.0
H1418 H 0.1257 0.75171 0.61877 0.0
H1419 H 0.15856 0.77879 0.59276 0.0
H1420 H 0.23168 0.91476 0.57388 0.0
H1421 H 0.20406 0.88246 0.54692 0.0
H1422 H 0.24762 0.86964 0.61876 0.0
H1423 H 0.22031 0.83746 0.59145 0.0
H1424 H 0.26514 0.9027 0.50436 0.0
H1425 H 0.24188 0.87174 0.53314 0.0
H1426 H 0.2207 0.86676 0.43775 0.0
H1427 H 0.19435 0.8393 0.46798 0.0
N1428 N 0.17944 0.81798 0.50986 0.0
N1429 N 0.1762 0.8218 0.56286 0.0
C1430 C 0.24855 0.35918 0.4868 0.0
C1431 C 0.24035 0.34131 0.46804 0.0
C1432 C 0.23352 0.36186 0.5036 0.0
C1433 C 0.21011 0.34678 0.50166 0.0
C1434 C 0.21695 0.32647 0.46611 0.0
C1435 C 0.20204 0.32921 0.48264 0.0
C1436 C 0.19335 0.34932 0.518 0.0
C1437 C 0.23477 0.33262 0.57473 0.0
C1438 C 0.24438 0.34773 0.59633 0.0
C1439 C 0.21819 0.33328 0.55858 0.0
C1440 C 0.21141 0.34959 0.56313 0.0
C1441 C 0.23706 0.36348 0.60159 0.0
C1442 C 0.2207 0.36439 0.58511 0.0
C1443 C 0.19367 0.35035 0.54622 0.0
C1444 C 0.09904 0.32026 0.57539 0.0
C1445 C 0.10113 0.33621 0.59485 0.0
C1446 C 0.11725 0.32447 0.55897 0.0
C1447 C 0.13788 0.3448 0.56155 0.0
C1448 C 0.12185 0.3565 0.59753 0.0
C1449 C 0.14013 0.36067 0.58114 0.0
C1450 C 0.15753 0.34871 0.54525 0.0
C1451 C 0.1047 0.34884 0.48833 0.0
C1452 C 0.10384 0.34085 0.46208 0.0
C1453 C 0.12238 0.35242 0.50595 0.0
C1454 C 0.13883 0.34647 0.49857 0.0
C1455 C 0.12164 0.33734 0.4539 0.0
C1456 C 0.13829 0.33935 0.47194 0.0
C1457 C 0.15747 0.34836 0.5168 0.0
H1458 H 0.26652 0.37099 0.48847 0.0
H1459 H 0.24011 0.3758 0.51778 0.0
H1460 H 0.21008 0.31291 0.45141 0.0
H1461 H 0.18406 0.31749 0.48055 0.0
H1462 H 0.23989 0.32007 0.57057 0.0
H1463 H 0.21054 0.32084 0.54271 0.0
H1464 H 0.24424 0.37528 0.61816 0.0
H1465 H 0.21544 0.37682 0.58938 0.0
H1466 H 0.08329 0.30445 0.57296 0.0
H1467 H 0.1153 0.31179 0.54437 0.0
H1468 H 0.12409 0.36886 0.61272 0.0
H1469 H 0.15605 0.37626 0.58379 0.0
H1470 H 0.09176 0.35243 0.49543 0.0
H1471 H 0.12297 0.36006 0.52506 0.0
H1472 H 0.12302 0.33315 0.43339 0.0
H1473 H 0.15093 0.3354 0.46462 0.0
N1474 N 0.17549 0.34862 0.50478 0.0
N1475 N 0.17577 0.35011 0.55864 0.0
C1476 C 0.99296 0.39333 0.07077 0.0
C1477 C 0.01455 0.396 0.06592 0.0
C1478 C 0.9893 0.40451 0.0922 0.0
C1479 C 0.00708 0.41868 0.10961 0.0
H1480 H 0.97898 0.3833 0.05726 0.0
H1481 H 0.9727 0.40288 0.0944 0.0
S1482 S 0.06583 0.42844 0.10829 0.0
N1483 N 0.05332 0.41192 0.08218 0.0
N1484 N 0.04633 0.43267 0.12249 0.0
C1485 C 0.02837 0.42039 0.10596 0.0
C1486 C 0.03214 0.40914 0.08411 0.0
C1487 C 0.62631 0.60676 0.09145 0.0
C1488 C 0.61635 0.61361 0.07136 0.0
C1489 C 0.61305 0.59099 0.11108 0.0
C1490 C 0.58942 0.58219 0.11193 0.0
H1491 H 0.64441 0.6132 0.0916 0.0
H1492 H 0.62138 0.58509 0.12495 0.0
S1493 S 0.55657 0.60038 0.06804 0.0
N1494 N 0.5824 0.61361 0.05585 0.0
N1495 N 0.55772 0.58579 0.09399 0.0
C1496 C 0.57981 0.59108 0.09355 0.0
C1497 C 0.59322 0.60647 0.0731 0.0
C1498 C 0.39351 0.01808 0.09675 0.0
C1499 C 0.39262 0.00707 0.07255 0.0
C1500 C 0.40909 0.02063 0.11701 0.0
C1501 C 0.42415 0.0122 0.11361 0.0
H1502 H 0.38201 0.02464 0.10005 0.0
H1503 H 0.40947 0.02935 0.13534 0.0
S1504 S 0.42771 0.98109 0.0546 0.0
N1505 N 0.40722 0.9867 0.04692 0.0
N1506 N 0.43689 0.99199 0.08469 0.0
C1507 C 0.42317 1.00089 0.0897 0.0
C1508 C 0.40716 0.99804 0.0693 0.0
C1509 C 0.40733 0.02804 0.94025 0.0
C1510 C 0.39224 0.00946 0.95597 0.0
C1511 C 0.41908 0.02525 0.91902 0.0
C1512 C 0.41634 0.00378 0.91253 0.0
H1513 H 0.41054 0.04507 0.94474 0.0
H1514 H 0.43087 0.04018 0.90795 0.0
S1515 S 0.37848 0.94944 0.94672 0.0
N1516 N 0.37466 0.96858 0.96284 0.0
N1517 N 0.39699 0.96346 0.92304 0.0
C1518 C 0.4007 0.98489 0.92734 0.0
C1519 C 0.38861 0.9877 0.94901 0.0
C1520 C 0.0231 0.39579 0.92553 0.0
C1521 C 0.01312 0.39546 0.95014 0.0
C1522 C 0.0253 0.41135 0.90547 0.0
C1523 C 0.01739 0.4269 0.90936 0.0
H1524 H 0.02888 0.38371 0.92162 0.0
H1525 H 0.03276 0.41083 0.8866 0.0
S1526 S 0.99069 0.43303 0.97107 0.0
N1527 N 0.99523 0.41159 0.97748 0.0
N1528 N 1.00033 0.44164 0.94059 0.0
C1529 C 0.00766 0.4268 0.9342 0.0
C1530 C 0.00511 0.41074 0.9543 0.0
C1531 C 0.61247 0.61531 0.93169 0.0
C1532 C 0.6061 0.61391 0.95854 0.0
C1533 C 0.59614 0.60466 0.91141 0.0
C1534 C 0.57288 0.59196 0.91736 0.0
H1535 H 0.63023 0.62394 0.92646 0.0
H1536 H 0.60183 0.60579 0.891 0.0
S1537 S 0.54786 0.58384 0.98507 0.0
N1538 N 0.57533 0.60004 0.99018 0.0
N1539 N 0.54458 0.57913 0.9525 0.0
C1540 C 0.56638 0.59115 0.94424 0.0
C1541 C 0.58302 0.60229 0.96473 0.0
C1542 C 0.00272 0.59777 0.94886 0.0
C1543 C 0.01484 0.62152 0.94739 0.0
C1544 C 0.0047 0.5843 0.929 0.0
C1545 C 0.01907 0.59396 0.90677 0.0
H1546 H 0.99182 0.58949 0.96575 0.0
H1547 H 0.99468 0.56606 0.93127 0.0
S1548 S 0.04983 0.65582 0.89075 0.0
N1549 N 0.03774 0.65431 0.91975 0.0
N1550 N 0.04331 0.62949 0.88326 0.0
C1551 C 0.03014 0.61794 0.90433 0.0
C1552 C 0.02757 0.63158 0.92442 0.0
C1553 C 0.38376 0.39074 0.93344 0.0
C1554 C 0.38517 0.39811 0.95997 0.0
C1555 C 0.39446 0.40639 0.91268 0.0
C1556 C 0.40728 0.42996 0.91779 0.0
H1557 H 0.3752 0.37272 0.9289 0.0
H1558 H 0.39337 0.39991 0.8926 0.0
S1559 S 0.41546 0.45757 0.98432 0.0
N1560 N 0.39918 0.43018 0.99033 0.0
N1561 N 0.42014 0.45965 0.95179 0.0
C1562 C 0.40803 0.43747 0.94428 0.0
C1563 C 0.39684 0.42152 0.96526 0.0
C1564 C 0.59398 0.00801 0.95718 0.0
C1565 C 0.60841 0.99895 0.95342 0.0
C1566 C 0.57928 0.00703 0.93677 0.0
C1567 C 0.57914 0.99775 0.91148 0.0
H1568 H 0.59378 0.01556 0.97621 0.0
H1569 H 0.56785 0.01349 0.94095 0.0
S1570 S 0.61682 0.97537 0.89051 0.0
N1571 N 0.62354 0.98247 0.92224 0.0
N1572 N 0.59648 0.9813 0.88328 0.0
C1573 C 0.59426 0.98945 0.90722 0.0
C1574 C 0.60892 0.99008 0.92827 0.0
C1575 C 0.6066 0.99216 0.09309 0.0
C1576 C 0.60418 0.99775 0.06665 0.0
C1577 C 0.5958 0.99661 0.11424 0.0
C1578 C 0.58213 0.00667 0.10956 0.0
H1579 H 0.61667 0.98408 0.09738 0.0
H1580 H 0.5981 0.99205 0.13437 0.0
S1581 S 0.57007 0.02363 0.04323 0.0
N1582 N 0.58742 0.01373 0.03665 0.0
N1583 N 0.56637 0.02132 0.07594 0.0
C1584 C 0.5797 0.0123 0.083 0.0
C1585 C 0.59089 0.00799 0.06165 0.0
C1586 C 0.03182 0.61909 0.08055 0.0
C1587 C 0.0143 0.61734 0.0637 0.0
C1588 C 0.0275 0.60383 0.1016 0.0
C1589 C 0.0055 0.58601 0.1066 0.0
H1590 H 0.04917 0.63215 0.07717 0.0
H1591 H 0.04165 0.60565 0.11367 0.0
S1592 S 0.95351 0.57427 0.06885 0.0
N1593 N 0.97389 0.59689 0.05408 0.0
N1594 N 0.96583 0.56783 0.0934 0.0
C1595 C 0.98765 0.58452 0.09057 0.0
C1596 C 0.99204 0.60025 0.06918 0.0
C1597 C 0.39428 0.37945 0.09407 0.0
C1598 C 0.38742 0.38939 0.07397 0.0
C1599 C 0.40995 0.39283 0.11391 0.0
C1600 C 0.41872 0.41658 0.11484 0.0
H1601 H 0.38796 0.36127 0.09403 0.0
H1602 H 0.41588 0.38455 0.12781 0.0
S1603 S 0.40085 0.44951 0.07068 0.0
N1604 N 0.38746 0.42345 0.05845 0.0
N1605 N 0.41539 0.44846 0.09678 0.0
C1606 C 0.40991 0.4262 0.09638 0.0
C1607 C 0.39451 0.41263 0.07582 0.0
C1608 C 0.64873 0.7198 0.41256 0.0
C1609 C 0.67112 0.7301 0.40309 0.0
C1610 C 0.64289 0.72894 0.43437 0.0
C1611 C 0.65922 0.7486 0.44771 0.0
H1612 H 0.63548 0.70481 0.40278 0.0
H1613 H 0.62542 0.72064 0.44074 0.0
S1614 S 0.72017 0.78225 0.43116 0.0
N1615 N 0.70979 0.76114 0.40942 0.0
N1616 N 0.69858 0.77829 0.44974 0.0
C1617 C 0.68166 0.75891 0.43872 0.0
C1618 C 0.68765 0.74968 0.41662 0.0
C1619 C 0.2612 0.92711 0.40726 0.0
C1620 C 0.28481 0.9398 0.40883 0.0
C1621 C 0.24874 0.91106 0.42686 0.0
C1622 C 0.25932 0.90676 0.44894 0.0
H1623 H 0.25226 0.92941 0.39051 0.0
H1624 H 0.23053 0.90206 0.42454 0.0
S1625 S 0.32084 0.94042 0.46527 0.0
N1626 N 0.31815 0.95095 0.43648 0.0
N1627 N 0.29533 0.91955 0.47248 0.0
C1628 C 0.28307 0.92068 0.4515 0.0
C1629 C 0.29564 0.93747 0.43168 0.0
C1630 C 0.05898 0.34901 0.42444 0.0
C1631 C 0.05331 0.33393 0.40281 0.0
C1632 C 0.07498 0.35094 0.44377 0.0
C1633 C 0.08515 0.33705 0.44288 0.0
H1634 H 0.05136 0.35977 0.42611 0.0
H1635 H 0.07984 0.36397 0.45891 0.0
S1636 S 0.0705 0.29013 0.39409 0.0
N1637 N 0.05599 0.30243 0.38366 0.0
N1638 N 0.08422 0.3042 0.42123 0.0
C1639 C 0.07754 0.32013 0.42275 0.0
C1640 C 0.06192 0.31886 0.40259 0.0
C1641 C 0.06662 0.3521 0.26819 0.0
C1642 C 0.05265 0.33474 0.28599 0.0
C1643 C 0.07817 0.34812 0.2477 0.0
C1644 C 0.07639 0.32664 0.2442 0.0
H1645 H 0.0693 0.36919 0.27068 0.0
H1646 H 0.08929 0.36224 0.23509 0.0
S1647 S 0.04113 0.27507 0.28448 0.0
N1648 N 0.03671 0.29488 0.29787 0.0
N1649 N 0.05872 0.28744 0.25945 0.0
C1650 C 0.06156 0.30878 0.26091 0.0
C1651 C 0.04963 0.31282 0.28179 0.0
C1652 C 0.68786 0.73264 0.26445 0.0
C1653 C 0.67227 0.72843 0.28491 0.0
C1654 C 0.69164 0.7487 0.24443 0.0
C1655 C 0.67916 0.76033 0.24354 0.0
H1656 H 0.69767 0.72394 0.26436 0.0
H1657 H 0.70508 0.7526 0.23038 0.0
S1658 S 0.63083 0.74897 0.28768 0.0
N1659 N 0.64127 0.73345 0.3004 0.0
N1660 N 0.64644 0.76173 0.26132 0.0
C1661 C 0.66138 0.7538 0.26203 0.0
C1662 C 0.65827 0.73818 0.28295 0.0
C1663 C 0.26355 0.94353 0.28589 0.0
C1664 C 0.28264 0.94083 0.29015 0.0
C1665 C 0.2487 0.93284 0.26421 0.0
C1666 C 0.25254 0.91921 0.24606 0.0
H1667 H 0.25943 0.953 0.30009 0.0
H1668 H 0.23354 0.93429 0.26245 0.0
S1669 S 0.30214 0.91011 0.24561 0.0
N1670 N 0.306 0.92587 0.27243 0.0
N1671 N 0.27822 0.906 0.23181 0.0
C1672 C 0.27236 0.91772 0.24907 0.0
C1673 C 0.28738 0.92846 0.27109 0.0
C1674 C 0.69108 0.96064 0.26668 0.0
C1675 C 0.67931 0.94926 0.28982 0.0
C1676 C 0.69383 0.94868 0.2454 0.0
C1677 C 0.68463 0.92491 0.24649 0.0
H1678 H 0.69794 0.97885 0.26489 0.0
H1679 H 0.70284 0.95804 0.22782 0.0
S1680 S 0.65292 0.88758 0.30337 0.0
N1681 N 0.65838 0.91322 0.31274 0.0
N1682 N 0.66419 0.89073 0.27345 0.0
C1683 C 0.67295 0.91347 0.26976 0.0
C1684 C 0.66997 0.92563 0.29115 0.0
C1685 C 0.07689 0.71963 0.27449 0.0
C1686 C 0.06092 0.72135 0.29066 0.0
C1687 C 0.08806 0.73517 0.25394 0.0
C1688 C 0.08389 0.75327 0.2487 0.0
H1689 H 0.0812 0.70637 0.27805 0.0
H1690 H 0.10054 0.73334 0.24246 0.0
S1691 S 0.04303 0.76503 0.28444 0.0
N1692 N 0.04074 0.74208 0.29923 0.0
N1693 N 0.06208 0.77162 0.26076 0.0
C1694 C 0.0673 0.75473 0.26393 0.0
C1695 C 0.05575 0.73872 0.28487 0.0
C1696 C 0.26212 0.3411 0.29394 0.0
C1697 C 0.27776 0.33363 0.28955 0.0
C1698 C 0.2463 0.33855 0.27416 0.0
C1699 C 0.24616 0.32926 0.24886 0.0
H1700 H 0.2618 0.34851 0.31302 0.0
H1701 H 0.23394 0.34371 0.27888 0.0
S1702 S 0.28685 0.31117 0.22615 0.0
N1703 N 0.29403 0.31884 0.25766 0.0
N1704 N 0.26498 0.31494 0.21981 0.0
C1705 C 0.26257 0.32274 0.24391 0.0
C1706 C 0.27834 0.32489 0.26434 0.0
C1707 C 0.28198 0.35271 0.41187 0.0
C1708 C 0.27918 0.33094 0.4068 0.0
C1709 C 0.27039 0.35634 0.43279 0.0
C1710 C 0.25568 0.33836 0.44941 0.0
H1711 H 0.29222 0.36679 0.39874 0.0
H1712 H 0.27201 0.37303 0.43504 0.0
S1713 S 0.24563 0.2792 0.44766 0.0
N1714 N 0.26278 0.29188 0.42238 0.0
N1715 N 0.24125 0.2988 0.46165 0.0
C1716 C 0.25403 0.31696 0.44577 0.0
C1717 C 0.26571 0.31323 0.42449 0.0
C1718 C 0.69144 0.93784 0.41647 0.0
C1719 C 0.67566 0.94376 0.40597 0.0
C1720 C 0.68582 0.92221 0.43748 0.0
C1721 C 0.66416 0.91174 0.44888 0.0
H1722 H 0.70823 0.94499 0.40812 0.0
H1723 H 0.69837 0.91782 0.44436 0.0
S1724 S 0.61709 0.9224 0.43067 0.0
N1725 N 0.63761 0.9386 0.41 0.0
N1726 N 0.62727 0.9093 0.44946 0.0
C1727 C 0.64838 0.91786 0.43921 0.0
C1728 C 0.65407 0.93384 0.41784 0.0
C1729 C 0.0683 0.73822 0.40745 0.0
C1730 C 0.05674 0.71444 0.4077 0.0
C1731 C 0.08375 0.75065 0.42776 0.0
C1732 C 0.08861 0.73987 0.44913 0.0
H1733 H 0.06576 0.74731 0.39108 0.0
H1734 H 0.09204 0.76899 0.42639 0.0
S1735 S 0.05691 0.67759 0.46257 0.0
N1736 N 0.04651 0.68049 0.43377 0.0
N1737 N 0.07685 0.70338 0.47112 0.0
C1738 C 0.07543 0.71589 0.45065 0.0
C1739 C 0.05922 0.70331 0.43012 0.0
C1740 C 0.33039 0.05553 0.76163 0.0
C1741 C 0.32351 0.05697 0.73547 0.0
C1742 C 0.32565 0.06588 0.78309 0.0
C1743 C 0.31419 0.07834 0.77904 0.0
H1744 H 0.34016 0.04704 0.76536 0.0
H1745 H 0.33158 0.06464 0.80289 0.0
S1746 S 0.2924 0.08651 0.71377 0.0
N1747 N 0.3039 0.07059 0.70655 0.0
N1748 N 0.29594 0.09109 0.74635 0.0
C1749 C 0.3067 0.07925 0.75286 0.0
C1750 C 0.31121 0.06836 0.7312 0.0
C1751 C 0.95685 0.26743 0.75808 0.0
C1752 C 0.94678 0.27076 0.73503 0.0
C1753 C 0.94357 0.25254 0.77839 0.0
C1754 C 0.91983 0.24102 0.7765 0.0
H1755 H 0.97509 0.27643 0.76042 0.0
H1756 H 0.95186 0.25006 0.79568 0.0
S1757 S 0.88536 0.2446 0.7208 0.0
N1758 N 0.91178 0.26187 0.71189 0.0
N1759 N 0.88682 0.23405 0.75016 0.0
C1760 C 0.9096 0.24458 0.75387 0.0
C1761 C 0.92309 0.25958 0.73319 0.0
C1762 C 0.73113 0.68725 0.75785 0.0
C1763 C 0.72829 0.67282 0.73617 0.0
C1764 C 0.74698 0.69106 0.77827 0.0
C1765 C 0.75999 0.68007 0.77789 0.0
H1766 H 0.72092 0.69549 0.75912 0.0
H1767 H 0.74893 0.70245 0.79455 0.0
S1768 S 0.7584 0.64025 0.72602 0.0
N1769 N 0.73938 0.64722 0.71585 0.0
N1770 N 0.76902 0.6542 0.75433 0.0
C1771 C 0.75705 0.66538 0.75657 0.0
C1772 C 0.74107 0.66164 0.73577 0.0
C1773 C 0.72479 0.67331 0.59557 0.0
C1774 C 0.72315 0.66389 0.62108 0.0
C1775 C 0.7355 0.66859 0.57458 0.0
C1776 C 0.74548 0.65472 0.57851 0.0
H1777 H 0.71801 0.68465 0.59194 0.0
H1778 H 0.73631 0.6762 0.55523 0.0
S1779 S 0.74685 0.62733 0.64266 0.0
N1780 N 0.7324 0.64045 0.64952 0.0
N1781 N 0.75358 0.63242 0.61075 0.0
C1782 C 0.74382 0.64519 0.60414 0.0
C1783 C 0.73245 0.64963 0.62526 0.0
C1784 C 0.34355 0.06103 0.59924 0.0
C1785 C 0.32766 0.05548 0.61967 0.0
C1786 C 0.34522 0.07581 0.57852 0.0
C1787 C 0.33034 0.08477 0.57686 0.0
H1788 H 0.3552 0.0544 0.59967 0.0
H1789 H 0.35892 0.0809 0.5645 0.0
S1790 S 0.28124 0.0693 0.62144 0.0
N1791 N 0.29439 0.05656 0.63483 0.0
N1792 N 0.29581 0.0824 0.59455 0.0
C1793 C 0.31261 0.07696 0.59561 0.0
C1794 C 0.31156 0.06264 0.61722 0.0
C1795 C 0.93306 0.28148 0.61097 0.0
C1796 C 0.94609 0.27143 0.61902 0.0
C1797 C 0.91731 0.27237 0.58977 0.0
C1798 C 0.91413 0.253 0.57561 0.0
H1799 H 0.93446 0.29607 0.62164 0.0
H1800 H 0.90728 0.28035 0.58469 0.0
S1801 S 0.94454 0.22069 0.58784 0.0
N1802 N 0.95532 0.24144 0.61007 0.0
N1803 N 0.92552 0.22424 0.57092 0.0
C1804 C 0.92748 0.24318 0.58293 0.0
C1805 C 0.94348 0.25239 0.60443 0.0
C1806 C 0.33239 0.25972 0.62357 0.0
C1807 C 0.34134 0.28322 0.62073 0.0
C1808 C 0.3342 0.24674 0.60295 0.0
C1809 C 0.3442 0.25664 0.57829 0.0
H1810 H 0.32436 0.2514 0.64208 0.0
H1811 H 0.32782 0.22878 0.6065 0.0
S1812 S 0.36642 0.31711 0.55955 0.0
N1813 N 0.35842 0.3157 0.59094 0.0
N1814 N 0.36103 0.29119 0.55155 0.0
C1815 C 0.35233 0.28009 0.5749 0.0
C1816 C 0.3509 0.29337 0.59619 0.0
C1817 C 0.71981 0.0753 0.61695 0.0
C1818 C 0.72416 0.05715 0.62105 0.0
C1819 C 0.73089 0.09143 0.59663 0.0
C1820 C 0.74657 0.08982 0.5798 0.0
H1821 H 0.70874 0.07775 0.63036 0.0
H1822 H 0.72804 0.10583 0.59497 0.0
S1823 S 0.76079 0.04338 0.57926 0.0
N1824 N 0.74306 0.03704 0.60437 0.0
N1825 N 0.76365 0.06718 0.56637 0.0
C1826 C 0.74978 0.0709 0.58254 0.0
C1827 C 0.73864 0.05461 0.60312 0.0
C1828 C 0.9343 0.64724 0.60073 0.0
C1829 C 0.93838 0.66255 0.62182 0.0
C1830 C 0.9191 0.64451 0.57998 0.0
C1831 C 0.90812 0.65752 0.57935 0.0
H1832 H 0.9429 0.63732 0.6003 0.0
H1833 H 0.91599 0.63224 0.5643 0.0
S1834 S 0.91379 0.7005 0.62925 0.0
N1835 N 0.93081 0.69127 0.64046 0.0
N1836 N 0.90246 0.68639 0.60122 0.0
C1837 C 0.91251 0.67328 0.59994 0.0
C1838 C 0.92777 0.67588 0.62115 0.0
C1839 C 0.94419 0.6661 0.76244 0.0
C1840 C 0.94215 0.6715 0.7358 0.0
C1841 C 0.93423 0.67193 0.78329 0.0
C1842 C 0.92162 0.68307 0.77813 0.0
H1843 H 0.95301 0.65679 0.76708 0.0
H1844 H 0.93604 0.66726 0.80355 0.0
S1845 S 0.91129 0.70048 0.71114 0.0
N1846 N 0.92729 0.68889 0.70513 0.0
N1847 N 0.90761 0.69893 0.74385 0.0
C1848 C 0.91986 0.68883 0.7514 0.0
C1849 C 0.93031 0.6832 0.73035 0.0
C1850 C 0.3573 0.27474 0.74777 0.0
C1851 C 0.34137 0.28048 0.73735 0.0
C1852 C 0.35191 0.25918 0.76877 0.0
C1853 C 0.33033 0.2486 0.78037 0.0
H1854 H 0.37407 0.28195 0.73934 0.0
H1855 H 0.36461 0.25494 0.77549 0.0
S1856 S 0.28287 0.25873 0.76238 0.0
N1857 N 0.30323 0.27498 0.74156 0.0
N1858 N 0.29329 0.24585 0.78117 0.0
C1859 C 0.31437 0.25453 0.7708 0.0
C1860 C 0.31985 0.27045 0.74936 0.0
C1861 C 0.73637 0.07841 0.73578 0.0
C1862 C 0.72392 0.05458 0.73756 0.0
C1863 C 0.7515 0.09145 0.75622 0.0
C1864 C 0.75429 0.08106 0.77925 0.0
H1865 H 0.73469 0.08697 0.71825 0.0
H1866 H 0.76128 0.10973 0.75388 0.0
S1867 S 0.72254 0.01977 0.79572 0.0
N1868 N 0.71312 0.02145 0.76566 0.0
N1869 N 0.74189 0.04596 0.80389 0.0
C1870 C 0.74124 0.05738 0.78178 0.0
C1871 C 0.72584 0.04413 0.76102 0.0
C1872 C 0.07282 0.33974 0.03266 0.0
C1873 C 0.05174 0.33728 0.03992 0.0
C1874 C 0.08461 0.33264 0.04981 0.0
C1875 C 0.07591 0.3233 0.07498 0.0
H1876 H 0.08057 0.34781 0.01394 0.0
H1877 H 0.10115 0.33553 0.04394 0.0
S1878 S 0.02122 0.31245 0.10312 0.0
N1879 N 0.02223 0.32383 0.0735 0.0
N1880 N 0.0448 0.31109 0.10601 0.0
C1881 C 0.05459 0.32005 0.08214 0.0
C1882 C 0.04236 0.32685 0.06449 0.0
C1883 C 0.68134 0.71846 0.07866 0.0
C1884 C 0.67849 0.71686 0.05064 0.0
C1885 C 0.68463 0.73788 0.09258 0.0
C1886 C 0.68567 0.75662 0.079 0.0
H1887 H 0.68007 0.70424 0.09011 0.0
H1888 H 0.68612 0.73815 0.1142 0.0
S1889 S 0.68076 0.76179 0.00571 0.0
N1890 N 0.67789 0.73621 0.00976 0.0
N1891 N 0.6846 0.77289 0.03599 0.0
C1892 C 0.68379 0.75568 0.05096 0.0
C1893 C 0.68006 0.73575 0.03677 0.0
C1894 C 0.2778 0.96425 0.07052 0.0
C1895 C 0.28722 0.95683 0.05054 0.0
C1896 C 0.2586 0.94878 0.0848 0.0
C1897 C 0.2484 0.92528 0.07998 0.0
H1898 H 0.28561 0.98213 0.0756 0.0
H1899 H 0.25223 0.95515 0.10044 0.0
S1900 S 0.2656 0.89702 0.02916 0.0
N1901 N 0.28403 0.92434 0.02589 0.0
N1902 N 0.24831 0.89532 0.05322 0.0
C1903 C 0.25718 0.91766 0.05962 0.0
C1904 C 0.27647 0.93341 0.04473 0.0
C1905 C 0.32897 0.04417 0.95999 0.0
C1906 C 0.3371 0.05098 0.98626 0.0
C1907 C 0.32363 0.05781 0.94343 0.0
C1908 C 0.3261 0.07862 0.95269 0.0
H1909 H 0.32802 0.02893 0.95166 0.0
H1910 H 0.31863 0.05258 0.92288 0.0
S1911 S 0.34272 0.10175 0.02153 0.0
N1912 N 0.34481 0.07841 0.02169 0.0
N1913 N 0.33407 0.10355 0.9911 0.0
C1914 C 0.33256 0.08463 0.97958 0.0
C1915 C 0.33826 0.07095 0.99622 0.0
C1916 C 0.937 0.28498 0.97072 0.0
C1917 C 0.95949 0.2898 0.97375 0.0
C1918 C 0.9212 0.26569 0.95661 0.0
C1919 C 0.92713 0.25015 0.94554 0.0
H1920 H 0.93185 0.29677 0.9782 0.0
H1921 H 0.90438 0.26342 0.95364 0.0
S1922 S 0.9835 0.25385 0.95162 0.0
N1923 N 0.98684 0.27718 0.96636 0.0
N1924 N 0.95684 0.23996 0.94149 0.0
C1925 C 0.94944 0.2543 0.9498 0.0
C1926 C 0.96567 0.27434 0.96351 0.0
C1927 C 0.72354 0.67752 0.97208 0.0
C1928 C 0.70597 0.65473 0.97283 0.0
C1929 C 0.74325 0.68393 0.95712 0.0
C1930 C 0.74611 0.66779 0.94239 0.0
H1931 H 0.72235 0.69042 0.98365 0.0
H1932 H 0.75659 0.70151 0.95766 0.0
S1933 S 0.70411 0.60663 0.93463 0.0
N1934 N 0.69209 0.61645 0.95531 0.0
N1935 N 0.72894 0.62859 0.9274 0.0
C1936 C 0.72834 0.64521 0.94208 0.0
C1937 C 0.70835 0.63866 0.95722 0.0
C1938 C 0.97042 0.6969 0.963 0.0
C1939 C 0.96518 0.67556 0.97343 0.0
C1940 C 0.95378 0.70022 0.95005 0.0
C1941 C 0.93148 0.68213 0.94631 0.0
H1942 H 0.98744 0.7111 0.96494 0.0
H1943 H 0.95851 0.71709 0.94282 0.0
S1944 S 0.91028 0.62227 0.96769 0.0
N1945 N 0.93672 0.63595 0.97855 0.0
N1946 N 0.90589 0.64159 0.9527 0.0
C1947 C 0.92632 0.66056 0.95634 0.0
C1948 C 0.94307 0.65743 0.97021 0.0
C1949 C 0.32568 0.28086 0.97442 0.0
C1950 C 0.34803 0.29917 0.97508 0.0
C1951 C 0.31987 0.2612 0.9592 0.0
C1952 C 0.33621 0.25917 0.94413 0.0
H1953 H 0.31268 0.28145 0.98625 0.0
H1954 H 0.30263 0.24727 0.95978 0.0
S1955 S 0.3963 0.30323 0.93605 0.0
N1956 N 0.38606 0.3146 0.95712 0.0
N1957 N 0.37503 0.27781 0.92876 0.0
C1958 C 0.35833 0.27765 0.94375 0.0
C1959 C 0.36426 0.29758 0.95914 0.0
C1960 C 0.72565 0.0407 0.96675 0.0
C1961 C 0.71127 0.04741 0.97884 0.0
C1962 C 0.74474 0.05632 0.95247 0.0
C1963 C 0.74973 0.07907 0.94899 0.0
H1964 H 0.72198 0.0232 0.96812 0.0
H1965 H 0.75548 0.0504 0.94381 0.0
S1966 S 0.71585 0.10431 0.97529 0.0
N1967 N 0.7028 0.07789 0.98635 0.0
N1968 N 0.73765 0.10694 0.95808 0.0
C1969 C 0.73525 0.08585 0.96104 0.0
C1970 C 0.71626 0.07009 0.97627 0.0
C1971 C 0.64556 0.92779 0.0453 0.0
C1972 C 0.65851 0.95167 0.04334 0.0
C1973 C 0.65299 0.91529 0.0605 0.0
C1974 C 0.67376 0.92602 0.07433 0.0
H1975 H 0.62928 0.91853 0.03531 0.0
H1976 H 0.64224 0.89701 0.06164 0.0
S1977 S 0.71472 0.9878 0.07532 0.0
N1978 N 0.69373 0.98545 0.0561 0.0
N1979 N 0.70759 0.96168 0.08475 0.0
C1980 C 0.6873 0.94971 0.07204 0.0
C1981 C 0.67971 0.96258 0.05656 0.0
C1982 C 0.04934 0.72373 0.057 0.0
C1983 C 0.06118 0.71576 0.04125 0.0
C1984 C 0.06085 0.74226 0.0746 0.0
C1985 C 0.08454 0.75336 0.07712 0.0
H1986 H 0.03103 0.71518 0.05639 0.0
H1987 H 0.05114 0.74745 0.08696 0.0
S1988 S 0.12383 0.74143 0.03843 0.0
N1989 N 0.09841 0.72227 0.02785 0.0
N1990 N 0.1196 0.75664 0.06108 0.0
C1991 C 0.09662 0.74633 0.06076 0.0
C1992 C 0.08507 0.72768 0.04279 0.0
C1993 C 0.26737 0.32548 0.04273 0.0
C1994 C 0.28542 0.32424 0.05531 0.0
C1995 C 0.24815 0.32181 0.05714 0.0
C1996 C 0.24645 0.31708 0.0847 0.0
H1997 H 0.26839 0.33007 0.02181 0.0
H1998 H 0.23502 0.32372 0.04693 0.0
S1999 S 0.28774 0.3099 0.12676 0.0
N2000 N 0.29926 0.31611 0.09679 0.0
N2001 N 0.2634 0.30971 0.12365 0.0
C2002 C 0.26379 0.31479 0.09725 0.0
C2003 C 0.28319 0.3182 0.08261 0.0
C2004 C 0.73965 0.68339 0.36865 0.0
C2005 C 0.71837 0.67944 0.37715 0.0
C2006 C 0.75272 0.67703 0.38451 0.0
C2007 C 0.74526 0.66697 0.4098 0.0
H2008 H 0.74641 0.69173 0.34973 0.0
H2009 H 0.76902 0.68042 0.37705 0.0
S2010 S 0.69075 0.65352 0.44136 0.0
N2011 N 0.69009 0.66459 0.41208 0.0
N2012 N 0.71507 0.6535 0.44258 0.0
C2013 C 0.72374 0.66256 0.41832 0.0
C2014 C 0.71022 0.66863 0.40184 0.0
C2015 C 0.32442 0.05547 0.37801 0.0
C2016 C 0.33722 0.04501 0.3854 0.0
C2017 C 0.32709 0.0749 0.39138 0.0
C2018 C 0.34299 0.08488 0.41225 0.0
H2019 H 0.31159 0.0481 0.36246 0.0
H2020 H 0.31647 0.08205 0.38555 0.0
S2021 S 0.38161 0.06505 0.43839 0.0
N2022 N 0.36699 0.0467 0.41445 0.0
N2023 N 0.37224 0.08346 0.43917 0.0
C2024 C 0.35647 0.07515 0.41922 0.0
C2025 C 0.35353 0.05516 0.4059 0.0
C2026 C 0.94675 0.29709 0.4095 0.0
C2027 C 0.94944 0.29438 0.38207 0.0
C2028 C 0.92712 0.2818 0.42312 0.0
C2029 C 0.90922 0.26319 0.40991 0.0
H2030 H 0.96028 0.31065 0.4209 0.0
H2031 H 0.92637 0.28412 0.44445 0.0
S2032 S 0.90644 0.25014 0.33739 0.0
N2033 N 0.93167 0.27269 0.34167 0.0
N2034 N 0.89452 0.24427 0.36715 0.0
C2035 C 0.91118 0.26092 0.38218 0.0
C2036 C 0.9313 0.27643 0.36831 0.0
C2037 C 0.99174 0.37701 0.29376 0.0
C2038 C 0.00743 0.3871 0.31495 0.0
C2039 C 0.98628 0.39019 0.27658 0.0
C2040 C 0.99613 0.4138 0.28025 0.0
H2041 H 0.98446 0.35902 0.2896 0.0
H2042 H 0.97493 0.38203 0.2598 0.0
S2043 S 0.03592 0.44812 0.33424 0.0
N2044 N 0.03118 0.42201 0.3397 0.0
N2045 N 0.02072 0.44649 0.3075 0.0
C2046 C 0.01086 0.42389 0.30201 0.0
C2047 C 0.01654 0.41061 0.31937 0.0
C2048 C 0.62869 0.62306 0.27948 0.0
C2049 C 0.6265 0.62535 0.30715 0.0
C2050 C 0.6127 0.604 0.26525 0.0
C2051 C 0.5941 0.58629 0.27819 0.0
H2052 H 0.64246 0.63645 0.26841 0.0
H2053 H 0.61477 0.60319 0.24388 0.0
S2054 S 0.58107 0.58309 0.35043 0.0
N2055 N 0.60454 0.60772 0.34709 0.0
N2056 N 0.57468 0.57159 0.32025 0.0
C2057 C 0.59205 0.58785 0.30594 0.0
C2058 C 0.60819 0.60747 0.32045 0.0
C2059 C 0.39656 0.99047 0.3266 0.0
C2060 C 0.37823 0.99285 0.31732 0.0
C2061 C 0.41538 0.99627 0.31046 0.0
C2062 C 0.41643 0.0042 0.28411 0.0
H2063 H 0.39612 0.98355 0.3463 0.0
H2064 H 0.42898 0.99393 0.31849 0.0
S2065 S 0.37257 0.01338 0.2504 0.0
N2066 N 0.36237 0.00424 0.28057 0.0
N2067 N 0.39737 0.01436 0.24969 0.0
C2068 C 0.39845 0.0073 0.27487 0.0
C2069 C 0.37942 0.00177 0.29159 0.0
C2070 C 0.6301 0.01976 0.30084 0.0
C2071 C 0.6247 0.99884 0.31269 0.0
C2072 C 0.61375 0.02256 0.28644 0.0
C2073 C 0.59156 0.00432 0.2826 0.0
H2074 H 0.64709 0.03404 0.3027 0.0
H2075 H 0.61863 0.03915 0.27814 0.0
S2076 S 0.56992 0.94533 0.3076 0.0
N2077 N 0.59613 0.95943 0.31916 0.0
N2078 N 0.56584 0.96405 0.29067 0.0
C2079 C 0.58619 0.98317 0.29414 0.0
C2080 C 0.60265 0.98058 0.30947 0.0
C2081 C 0.02522 0.61307 0.30814 0.0
C2082 C 0.01095 0.62262 0.31117 0.0
C2083 C 0.01956 0.59471 0.29098 0.0
C2084 C 0.99928 0.58482 0.27618 0.0
H2085 H 0.04127 0.62004 0.31871 0.0
H2086 H 0.03134 0.58832 0.28906 0.0
S2087 S 0.95517 0.60204 0.27755 0.0
N2088 N 0.97493 0.61986 0.29843 0.0
N2089 N 0.96431 0.58505 0.26623 0.0
C2090 C 0.98435 0.59343 0.2796 0.0
C2091 C 0.99017 0.61237 0.29705 0.0
C2092 C 0.39261 0.40549 0.31546 0.0
C2093 C 0.38252 0.38199 0.31047 0.0
C2094 C 0.41151 0.42114 0.30088 0.0
C2095 C 0.42121 0.41376 0.2813 0.0
H2096 H 0.38527 0.41192 0.32983 0.0
H2097 H 0.4184 0.43915 0.30467 0.0
S2098 S 0.40217 0.35408 0.26193 0.0
N2099 N 0.38427 0.35211 0.28534 0.0
N2100 N 0.42003 0.38152 0.25844 0.0
C2101 C 0.41188 0.39031 0.27692 0.0
C2102 C 0.39246 0.37442 0.29139 0.0
C2103 C 0.34374 0.29691 0.39847 0.0
C2104 C 0.33325 0.28878 0.3734 0.0
C2105 C 0.3501 0.2839 0.41464 0.0
C2106 C 0.34675 0.26268 0.40591 0.0
H2107 H 0.34579 0.31276 0.40634 0.0
H2108 H 0.35697 0.29009 0.43444 0.0
S2109 S 0.32202 0.23481 0.34101 0.0
N2110 N 0.32111 0.2588 0.34007 0.0
N2111 N 0.33369 0.23475 0.37014 0.0
C2112 C 0.33755 0.25501 0.38032 0.0
C2113 C 0.33063 0.26797 0.36413 0.0
C2114 C 0.74022 0.0602 0.37593 0.0
C2115 C 0.71846 0.04286 0.38298 0.0
C2116 C 0.7521 0.07967 0.39185 0.0
C2117 C 0.74287 0.08228 0.41572 0.0
H2118 H 0.74831 0.05857 0.35814 0.0
H2119 H 0.76895 0.09244 0.38593 0.0
S2120 S 0.68665 0.04211 0.44327 0.0
N2121 N 0.68801 0.02992 0.41525 0.0
N2122 N 0.71076 0.06632 0.44562 0.0
C2123 C 0.72108 0.06532 0.42291 0.0
C2124 C 0.70875 0.04568 0.40639 0.0
C2125 C 0.93997 0.64226 0.39241 0.0
C2126 C 0.95493 0.66308 0.38041 0.0
C2127 C 0.92086 0.63951 0.40633 0.0
C2128 C 0.91638 0.65772 0.40954 0.0
H2129 H 0.94308 0.62802 0.39106 0.0
H2130 H 0.9096 0.62299 0.41477 0.0
S2131 S 0.95222 0.71651 0.38401 0.0
N2132 N 0.96469 0.70238 0.37319 0.0
N2133 N 0.9299 0.69788 0.40078 0.0
C2134 C 0.93162 0.67877 0.39787 0.0
C2135 C 0.95061 0.68129 0.38302 0.0
C2136 C 0.4059 0.03304 0.71836 0.0
C2137 C 0.38295 0.01692 0.71388 0.0
C2138 C 0.42003 0.02791 0.73391 0.0
C2139 C 0.41194 0.00639 0.74562 0.0
H2140 H 0.41315 0.04998 0.70998 0.0
H2141 H 0.4375 0.04097 0.73682 0.0
S2142 S 0.35357 0.95779 0.74006 0.0
N2143 N 0.35296 0.97816 0.72231 0.0
N2144 N 0.37973 0.96865 0.75165 0.0
C2145 C 0.38925 0.98988 0.741 0.0
C2146 C 0.37472 0.9951 0.72515 0.0
C2147 C 0.00492 0.39258 0.70328 0.0
C2148 C 0.0073 0.37552 0.71687 0.0
C2149 C 0.0088 0.41262 0.7164 0.0
C2150 C 0.0149 0.41616 0.74365 0.0
H2151 H 0.99947 0.39022 0.68253 0.0
H2152 H 0.00617 0.42501 0.70545 0.0
S2153 S 0.0252 0.37802 0.78793 0.0
N2154 N 0.01776 0.36456 0.75892 0.0
N2155 N 0.0246 0.40193 0.78334 0.0
C2156 C 0.01813 0.39974 0.7572 0.0
C2157 C 0.01447 0.37952 0.74387 0.0
C2158 C 0.61959 0.626 0.74715 0.0
C2159 C 0.62239 0.62163 0.72031 0.0
C2160 C 0.60047 0.6109 0.76173 0.0
C2161 C 0.58326 0.5908 0.75009 0.0
H2162 H 0.63258 0.64092 0.75734 0.0
H2163 H 0.5995 0.61472 0.78256 0.0
S2164 S 0.58109 0.57256 0.67961 0.0
N2165 N 0.60549 0.5964 0.68214 0.0
N2166 N 0.56935 0.56827 0.70939 0.0
C2167 C 0.5854 0.58661 0.72298 0.0
C2168 C 0.60497 0.60195 0.70813 0.0
C2169 C 0.66921 0.72913 0.65804 0.0
C2170 C 0.66953 0.71035 0.64655 0.0
C2171 C 0.66247 0.74242 0.64315 0.0
C2172 C 0.65625 0.73777 0.61595 0.0
H2173 H 0.67479 0.73398 0.67852 0.0
H2174 H 0.66281 0.75692 0.65283 0.0
S2175 S 0.65413 0.69013 0.57668 0.0
N2176 N 0.66241 0.68712 0.60688 0.0
N2177 N 0.65046 0.71254 0.57837 0.0
C2178 C 0.65575 0.71847 0.60449 0.0
C2179 C 0.66228 0.70469 0.6199 0.0
C2180 C 0.29227 0.95219 0.61407 0.0
C2181 C 0.29107 0.95401 0.64201 0.0
C2182 C 0.27643 0.93278 0.60017 0.0
C2183 C 0.25903 0.91429 0.6137 0.0
H2184 H 0.30499 0.96622 0.6026 0.0
H2185 H 0.27765 0.93234 0.5786 0.0
S2186 S 0.24923 0.90966 0.68684 0.0
N2187 N 0.27156 0.93507 0.68283 0.0
N2188 N 0.24202 0.8984 0.6566 0.0
C2189 C 0.25814 0.9154 0.6417 0.0
C2190 C 0.2741 0.93532 0.65587 0.0
C2191 C 0.05265 0.30391 0.64278 0.0
C2192 C 0.04348 0.31848 0.64646 0.0
C2193 C 0.07137 0.30997 0.62642 0.0
C2194 C 0.08198 0.33095 0.61308 0.0
H2195 H 0.04511 0.28738 0.65228 0.0
H2196 H 0.07756 0.29803 0.62409 0.0
S2197 S 0.06556 0.3758 0.61624 0.0
N2198 N 0.04715 0.35536 0.63565 0.0
N2199 N 0.08247 0.36667 0.6049 0.0
C2200 C 0.07357 0.34605 0.61703 0.0
C2201 C 0.05433 0.33985 0.63368 0.0
C2202 C 0.29822 0.347 0.615 0.0
C2203 C 0.29538 0.3412 0.64236 0.0
C2204 C 0.2819 0.34966 0.60053 0.0
C2205 C 0.26226 0.34701 0.61287 0.0
H2206 H 0.31275 0.34865 0.60428 0.0
H2207 H 0.28447 0.3534 0.57934 0.0
S2208 S 0.24724 0.3335 0.68426 0.0
N2209 N 0.27172 0.334 0.68149 0.0
N2210 N 0.24122 0.33941 0.65418 0.0
C2211 C 0.25959 0.34225 0.64041 0.0
C2212 C 0.2761 0.33924 0.65517 0.0
C2213 C 0.69191 0.9551 0.63283 0.0
C2214 C 0.67582 0.95971 0.6447 0.0
C2215 C 0.68544 0.93533 0.61798 0.0
C2216 C 0.66255 0.91907 0.61426 0.0
H2217 H 0.70986 0.96691 0.63493 0.0
H2218 H 0.69859 0.93275 0.60929 0.0
S2219 S 0.61348 0.92265 0.64075 0.0
N2220 N 0.63573 0.94631 0.65129 0.0
N2221 N 0.62356 0.90882 0.62344 0.0
C2222 C 0.64613 0.92348 0.62552 0.0
C2223 C 0.65276 0.94382 0.64071 0.0
C2224 C 0.06008 0.72503 0.65177 0.0
C2225 C 0.04207 0.7069 0.63798 0.0
C2226 C 0.07954 0.74103 0.63828 0.0
C2227 C 0.08148 0.73972 0.61044 0.0
H2228 H 0.05902 0.72708 0.67311 0.0
H2229 H 0.09288 0.75487 0.64957 0.0
S2230 S 0.03994 0.69518 0.56505 0.0
N2231 N 0.02814 0.68819 0.59484 0.0
N2232 N 0.06451 0.71847 0.56969 0.0
C2233 C 0.06393 0.72149 0.59649 0.0
C2234 C 0.04429 0.70502 0.6102 0.0
C2235 C 0.97301 0.59181 0.71578 0.0
C2236 C 0.98743 0.61546 0.71298 0.0
C2237 C 0.97964 0.5783 0.73025 0.0
C2238 C 1.00104 0.58772 0.74254 0.0
H2239 H 0.95625 0.58347 0.70682 0.0
H2240 H 0.96785 0.56025 0.73184 0.0
S2241 S 0.04548 0.64844 0.74143 0.0
N2242 N 0.02443 0.64762 0.72368 0.0
N2243 N 0.03685 0.62201 0.75103 0.0
C2244 C 0.0159 0.61119 0.73963 0.0
C2245 C 0.00912 0.62508 0.72485 0.0
C2246 C 0.37976 0.3815 0.73553 0.0
C2247 C 0.38874 0.37881 0.71141 0.0
C2248 C 0.39268 0.40001 0.75268 0.0
C2249 C 0.41493 0.4166 0.74614 0.0
H2250 H 0.36307 0.36867 0.74182 0.0
H2251 H 0.38549 0.40083 0.77162 0.0
S2252 S 0.44466 0.41929 0.68308 0.0
N2253 N 0.42032 0.39542 0.6807 0.0
N2254 N 0.44408 0.43061 0.71208 0.0
C2255 C 0.42345 0.4148 0.72123 0.0
C2256 C 0.4105 0.39582 0.7041 0.0
C2257 C 0.61767 0.99315 0.74414 0.0
C2258 C 0.62009 0.99787 0.7165 0.0
C2259 C 0.59881 0.99077 0.75812 0.0
C2260 C 0.58137 0.99261 0.74501 0.0
H2261 H 0.63088 0.99217 0.75541 0.0
H2262 H 0.59807 0.9879 0.77953 0.0
S2263 S 0.57845 0.00313 0.67262 0.0
N2264 N 0.60268 0.00314 0.67631 0.0
N2265 N 0.56705 0.99829 0.70266 0.0
C2266 C 0.58297 0.99627 0.71722 0.0
C2267 C 0.60237 0.99901 0.70297 0.0
loop_
_geom_bond_atom_site_label_1
_geom_bond_atom_site_label_2
_geom_bond_distance
_geom_bond_site_symmetry_2
_ccdc_geom_bond_type
Mn0 O5 2.095 1_655 S
Mn0 O15 2.162 . S
Mn0 O16 2.297 1_554 S
Mn0 O24 2.385 1_554 S
Mn0 O25 2.209 1_654 S
Mn0 O26 2.094 . S
Mn1 O6 2.121 . S
Mn1 N8 2.257 1_554 S
Mn1 N17 2.282 . S
Mn1 O25 2.215 1_554 S
Mn1 O27 2.117 . S
C2 O24 1.234 1_455 S
C2 O25 1.283 . S
C3 O15 1.281 1_556 S
C3 O16 1.236 . S
C4 O26 1.240 . S
C4 O27 1.264 1_655 S
O5 Mn0 2.095 1_455 S
O5 C14 1.250 . S
O6 Mn1 2.121 . S
O6 C14 1.258 . S
C7 N8 1.326 . S
C7 C11 1.460 . S
C7 H13 0.929 . S
N8 Mn1 2.257 1_556 S
N8 C7 1.326 . S
N8 C12 1.362 . S
C9 C10 1.258 . S
C9 C12 1.431 . S
C9 C29 1.449 . S
C10 C9 1.258 . S
C10 C11 1.477 . S
C10 H30 0.931 . S
C11 C7 1.460 . S
C11 C10 1.477 . S
C11 H31 0.930 . S
C12 N8 1.362 . S
C12 C9 1.431 . S
C12 C22 1.476 . S
H13 C7 0.929 . S
C14 O5 1.250 . S
C14 O6 1.258 . S
O15 Mn0 2.162 . S
O15 C3 1.281 1_554 S
O16 Mn0 2.297 1_556 S
O16 C3 1.236 . S
N17 Mn1 2.282 . S
N17 C18 1.328 . S
N17 C22 1.318 1_554 S
C18 N17 1.328 . S
C18 C19 1.457 1_554 S
C18 H23 0.929 . S
C19 C18 1.457 1_556 S
C19 C20 1.291 . S
C19 H32 0.931 . S
C20 C19 1.291 . S
C20 C21 1.373 . S
C20 H33 0.929 . S
C21 C20 1.373 . S
C21 C22 1.396 . S
C21 C28 1.403 . S
C22 C12 1.476 . S
C22 N17 1.318 1_556 S
C22 C21 1.396 . S
H23 C18 0.929 . S
O24 Mn0 2.385 1_556 S
O24 C2 1.234 1_655 S
O25 Mn0 2.209 1_456 S
O25 Mn1 2.215 1_556 S
O25 C2 1.283 . S
O26 Mn0 2.094 . S
O26 C4 1.240 . S
O27 Mn1 2.117 . S
O27 C4 1.264 1_455 S
C28 C21 1.403 . S
C28 C29 1.399 . S
C28 H34 0.929 . S
C29 C9 1.449 . S
C29 C28 1.399 . S
C29 H35 0.930 . S
H30 C10 0.931 . S
H31 C11 0.930 . S
H32 C19 0.931 . S
H33 C20 0.929 . S
H34 C28 0.929 . S
H35 C29 0.930 . S
Mn36 O41 2.095 1_554 S
Mn36 O51 2.162 . S
Mn36 O52 2.297 . S
Mn36 O60 2.385 . S
Mn36 O61 2.209 . S
Mn36 O62 2.094 1_554 S
Mn37 O42 2.121 . S
Mn37 N44 2.257 1_556 S
Mn37 N53 2.282 1_556 S
Mn37 O61 2.215 1_556 S
Mn37 O63 2.117 . S
C38 O60 1.234 . S
C38 O61 1.283 . S
C39 O51 1.281 . S
C39 O52 1.236 . S
C40 O62 1.240 . S
C40 O63 1.264 . S
O41 Mn36 2.095 1_556 S
O41 C50 1.250 . S
O42 Mn37 2.121 . S
O42 C50 1.258 . S
C43 N44 1.326 . S
C43 C47 1.460 . S
C43 H49 0.929 . S
N44 Mn37 2.257 1_554 S
N44 C43 1.326 . S
N44 C48 1.362 . S
C45 C46 1.258 . S
C45 C48 1.431 . S
C45 C65 1.449 . S
C46 C45 1.258 . S
C46 C47 1.477 . S
C46 H66 0.931 . S
C47 C43 1.460 . S
C47 C46 1.477 . S
C47 H67 0.930 . S
C48 N44 1.362 . S
C48 C45 1.431 . S
C48 C58 1.476 . S
H49 C43 0.929 . S
C50 O41 1.250 . S
C50 O42 1.258 . S
O51 Mn36 2.162 . S
O51 C39 1.281 . S
O52 Mn36 2.297 . S
O52 C39 1.236 . S
N53 Mn37 2.282 1_554 S
N53 C54 1.328 . S
N53 C58 1.318 . S
C54 N53 1.328 . S
C54 C55 1.457 . S
C54 H59 0.929 1_554 S
C55 C54 1.457 . S
C55 C56 1.291 . S
C55 H68 0.931 . S
C56 C55 1.291 . S
C56 C57 1.373 . S
C56 H69 0.929 . S
C57 C56 1.373 . S
C57 C58 1.396 . S
C57 C64 1.403 . S
C58 C48 1.476 . S
C58 N53 1.318 . S
C58 C57 1.396 . S
H59 C54 0.929 1_556 S
O60 Mn36 2.385 . S
O60 C38 1.234 . S
O61 Mn36 2.209 . S
O61 Mn37 2.215 1_554 S
O61 C38 1.283 . S
O62 Mn36 2.094 1_556 S
O62 C40 1.240 . S
O63 Mn37 2.117 . S
O63 C40 1.264 . S
C64 C57 1.403 . S
C64 C65 1.399 . S
C64 H70 0.929 . S
C65 C45 1.449 . S
C65 C64 1.399 . S
C65 H71 0.930 . S
H66 C46 0.931 . S
H67 C47 0.930 . S
H68 C55 0.931 . S
H69 C56 0.929 . S
H70 C64 0.929 . S
H71 C65 0.930 . S
Mn72 O77 2.095 1_564 S
Mn72 O87 2.162 . S
Mn72 O88 2.297 . S
Mn72 O96 2.385 . S
Mn72 O97 2.209 1_565 S
Mn72 O98 2.094 1_554 S
Mn73 O78 2.116 1_554 S
Mn73 N80 2.280 . S
Mn73 N89 2.295 . S
Mn73 O97 2.239 . S
Mn73 O99 2.095 1_554 S
C74 O96 1.234 1_545 S
C74 O97 1.283 . S
C75 O87 1.281 . S
C75 O88 1.236 . S
C76 O98 1.240 . S
C76 O99 1.264 1_565 S
O77 Mn72 2.095 1_546 S
O77 C86 1.250 . S
O78 Mn73 2.116 1_556 S
O78 C86 1.258 . S
C79 N80 1.326 . S
C79 C83 1.460 . S
C79 H85 0.929 . S
N80 Mn73 2.280 . S
N80 C79 1.326 . S
N80 C84 1.362 . S
C81 C82 1.258 . S
C81 C84 1.431 . S
C81 C101 1.449 . S
C82 C81 1.258 . S
C82 C83 1.477 . S
C82 H102 0.931 . S
C83 C79 1.460 . S
C83 C82 1.477 . S
C83 H103 0.930 . S
C84 N80 1.362 . S
C84 C81 1.431 . S
C84 C94 1.476 . S
H85 C79 0.929 . S
C86 O77 1.250 . S
C86 O78 1.258 . S
O87 Mn72 2.162 . S
O87 C75 1.281 . S
O88 Mn72 2.297 . S
O88 C75 1.236 . S
N89 Mn73 2.295 . S
N89 C90 1.328 . S
N89 C94 1.318 . S
C90 N89 1.328 . S
C90 C91 1.457 . S
C90 H95 0.951 . S
C91 C90 1.457 . S
C91 C92 1.291 . S
C91 H104 0.931 . S
C92 C91 1.291 . S
C92 C93 1.373 . S
C92 H105 0.929 . S
C93 C92 1.373 . S
C93 C94 1.396 . S
C93 C100 1.403 . S
C94 C84 1.476 . S
C94 N89 1.318 . S
C94 C93 1.396 . S
H95 C90 0.951 . S
O96 Mn72 2.385 . S
O96 C74 1.234 1_565 S
O97 Mn72 2.209 1_545 S
O97 Mn73 2.239 . S
O97 C74 1.283 . S
O98 Mn72 2.094 1_556 S
O98 C76 1.240 . S
O99 Mn73 2.095 1_556 S
O99 C76 1.264 1_545 S
C100 C93 1.403 . S
C100 C101 1.399 . S
C100 H106 0.929 . S
C101 C81 1.449 . S
C101 C100 1.399 . S
C101 H107 0.930 . S
H102 C82 0.931 . S
H103 C83 0.930 . S
H104 C91 0.931 . S
H105 C92 0.929 . S
H106 C100 0.929 . S
H107 C101 0.930 . S
Mn108 O113 2.095 1_655 S
Mn108 O123 2.162 . S
Mn108 O124 2.297 1_554 S
Mn108 O132 2.385 1_554 S
Mn108 O133 2.209 1_654 S
Mn108 O134 2.094 . S
Mn109 O114 2.121 . S
Mn109 N116 2.257 1_554 S
Mn109 N125 2.282 . S
Mn109 O133 2.215 1_554 S
Mn109 O135 2.117 . S
C110 O132 1.234 1_455 S
C110 O133 1.283 . S
C111 O123 1.281 1_556 S
C111 O124 1.236 . S
C112 O134 1.240 . S
C112 O135 1.264 1_655 S
O113 Mn108 2.095 1_455 S
O113 C122 1.250 . S
O114 Mn109 2.121 . S
O114 C122 1.258 . S
C115 N116 1.326 . S
C115 C119 1.460 . S
C115 H121 0.929 . S
N116 Mn109 2.257 1_556 S
N116 C115 1.326 . S
N116 C120 1.362 . S
C117 C118 1.258 . S
C117 C120 1.431 . S
C117 C137 1.449 . S
C118 C117 1.258 . S
C118 C119 1.477 . S
C118 H138 0.931 . S
C119 C115 1.460 . S
C119 C118 1.477 . S
C119 H139 0.930 . S
C120 N116 1.362 . S
C120 C117 1.431 . S
C120 C130 1.476 . S
H121 C115 0.929 . S
C122 O113 1.250 . S
C122 O114 1.258 . S
O123 Mn108 2.162 . S
O123 C111 1.281 1_554 S
O124 Mn108 2.297 1_556 S
O124 C111 1.236 . S
N125 Mn109 2.282 . S
N125 C126 1.328 . S
N125 C130 1.318 1_554 S
C126 N125 1.328 . S
C126 C127 1.457 1_554 S
C126 H131 0.929 . S
C127 C126 1.457 1_556 S
C127 C128 1.291 . S
C127 H140 0.931 . S
C128 C127 1.291 . S
C128 C129 1.373 . S
C128 H141 0.929 . S
C129 C128 1.373 . S
C129 C130 1.396 . S
C129 C136 1.403 . S
C130 C120 1.476 . S
C130 N125 1.318 1_556 S
C130 C129 1.396 . S
H131 C126 0.929 . S
O132 Mn108 2.385 1_556 S
O132 C110 1.234 1_655 S
O133 Mn108 2.209 1_456 S
O133 Mn109 2.215 1_556 S
O133 C110 1.283 . S
O134 Mn108 2.094 . S
O134 C112 1.240 . S
O135 Mn109 2.117 . S
O135 C112 1.264 1_455 S
C136 C129 1.403 . S
C136 C137 1.399 . S
C136 H142 0.929 . S
C137 C117 1.449 . S
C137 C136 1.399 . S
C137 H143 0.930 . S
H138 C118 0.931 . S
H139 C119 0.930 . S
H140 C127 0.931 . S
H141 C128 0.929 . S
H142 C136 0.929 . S
H143 C137 0.930 . S
Mn144 O149 2.095 1_554 S
Mn144 O159 2.162 . S
Mn144 O160 2.297 . S
Mn144 O168 2.385 . S
Mn144 O169 2.209 . S
Mn144 O170 2.094 1_554 S
Mn145 O150 2.121 . S
Mn145 N152 2.257 1_556 S
Mn145 N161 2.282 1_556 S
Mn145 O169 2.215 1_556 S
Mn145 O171 2.117 . S
C146 O168 1.234 . S
C146 O169 1.283 . S
C147 O159 1.281 . S
C147 O160 1.236 . S
C148 O170 1.240 . S
C148 O171 1.264 . S
O149 Mn144 2.095 1_556 S
O149 C158 1.250 . S
O150 Mn145 2.121 . S
O150 C158 1.258 . S
C151 N152 1.326 . S
C151 C155 1.460 . S
C151 H157 0.929 . S
N152 Mn145 2.257 1_554 S
N152 C151 1.326 . S
N152 C156 1.362 . S
C153 C154 1.258 . S
C153 C156 1.431 . S
C153 C173 1.449 . S
C154 C153 1.258 . S
C154 C155 1.477 . S
C154 H174 0.931 . S
C155 C151 1.460 . S
C155 C154 1.477 . S
C155 H175 0.930 . S
C156 N152 1.362 . S
C156 C153 1.431 . S
C156 C166 1.476 . S
H157 C151 0.929 . S
C158 O149 1.250 . S
C158 O150 1.258 . S
O159 Mn144 2.162 . S
O159 C147 1.281 . S
O160 Mn144 2.297 . S
O160 C147 1.236 . S
N161 Mn145 2.282 1_554 S
N161 C162 1.328 . S
N161 C166 1.318 . S
C162 N161 1.328 . S
C162 C163 1.457 . S
C162 H167 0.929 1_554 S
C163 C162 1.457 . S
C163 C164 1.291 . S
C163 H176 0.931 . S
C164 C163 1.291 . S
C164 C165 1.373 . S
C164 H177 0.929 . S
C165 C164 1.373 . S
C165 C166 1.396 . S
C165 C172 1.403 . S
C166 C156 1.476 . S
C166 N161 1.318 . S
C166 C165 1.396 . S
H167 C162 0.929 1_556 S
O168 Mn144 2.385 . S
O168 C146 1.234 . S
O169 Mn144 2.209 . S
O169 Mn145 2.215 1_554 S
O169 C146 1.283 . S
O170 Mn144 2.094 1_556 S
O170 C148 1.240 . S
O171 Mn145 2.117 . S
O171 C148 1.264 . S
C172 C165 1.403 . S
C172 C173 1.399 . S
C172 H178 0.929 . S
C173 C153 1.449 . S
C173 C172 1.399 . S
C173 H179 0.930 . S
H174 C154 0.931 . S
H175 C155 0.930 . S
H176 C163 0.931 . S
H177 C164 0.929 . S
H178 C172 0.929 . S
H179 C173 0.930 . S
Mn180 O185 2.095 1_545 S
Mn180 O195 2.162 . S
Mn180 O196 2.297 1_554 S
Mn180 O204 2.385 1_554 S
Mn180 O205 2.209 1_544 S
Mn180 O206 2.094 . S
Mn181 O186 2.121 . S
Mn181 N188 2.257 1_554 S
Mn181 N197 2.282 . S
Mn181 O205 2.215 1_554 S
Mn181 O207 2.117 . S
C182 O204 1.234 1_565 S
C182 O205 1.283 . S
C183 O195 1.281 1_556 S
C183 O196 1.236 . S
C184 O206 1.240 . S
C184 O207 1.264 1_545 S
O185 Mn180 2.095 1_565 S
O185 C194 1.250 . S
O186 Mn181 2.121 . S
O186 C194 1.258 . S
C187 N188 1.326 . S
C187 C191 1.460 . S
C187 H193 0.929 . S
N188 Mn181 2.257 1_556 S
N188 C187 1.326 . S
N188 C192 1.362 . S
C189 C190 1.258 . S
C189 C192 1.431 . S
C189 C209 1.449 . S
C190 C189 1.258 . S
C190 C191 1.477 . S
C190 H210 0.931 . S
C191 C187 1.460 . S
C191 C190 1.477 . S
C191 H211 0.930 . S
C192 N188 1.362 . S
C192 C189 1.431 . S
C192 C202 1.476 . S
H193 C187 0.929 . S
C194 O185 1.250 . S
C194 O186 1.258 . S
O195 Mn180 2.162 . S
O195 C183 1.281 1_554 S
O196 Mn180 2.297 1_556 S
O196 C183 1.236 . S
N197 Mn181 2.282 . S
N197 C198 1.328 . S
N197 C202 1.318 1_554 S
C198 N197 1.328 . S
C198 C199 1.457 1_554 S
C198 H203 0.929 . S
C199 C198 1.457 1_556 S
C199 C200 1.291 . S
C199 H212 0.931 . S
C200 C199 1.291 . S
C200 C201 1.373 . S
C200 H213 0.929 . S
C201 C200 1.373 . S
C201 C202 1.396 . S
C201 C208 1.403 . S
C202 C192 1.476 . S
C202 N197 1.318 1_556 S
C202 C201 1.396 . S
H203 C198 0.929 . S
O204 Mn180 2.385 1_556 S
O204 C182 1.234 1_545 S
O205 Mn180 2.209 1_566 S
O205 Mn181 2.215 1_556 S
O205 C182 1.283 . S
O206 Mn180 2.094 . S
O206 C184 1.240 . S
O207 Mn181 2.117 . S
O207 C184 1.264 1_565 S
C208 C201 1.403 . S
C208 C209 1.399 . S
C208 H214 0.929 . S
C209 C189 1.449 . S
C209 C208 1.399 . S
C209 H215 0.930 . S
H210 C190 0.931 . S
H211 C191 0.930 . S
H212 C199 0.931 . S
H213 C200 0.929 . S
H214 C208 0.929 . S
H215 C209 0.930 . S
Mn216 O221 2.095 . S
Mn216 O231 2.162 . S
Mn216 O232 2.297 . S
Mn216 O240 2.385 . S
Mn216 O241 2.209 . S
Mn216 O242 2.094 . S
Mn217 O222 2.121 . S
Mn217 N224 2.257 . S
Mn217 N233 2.282 . S
Mn217 O241 2.215 . S
Mn217 O243 2.117 . S
C218 O240 1.234 . S
C218 O241 1.283 . S
C219 O231 1.281 . S
C219 O232 1.236 . S
C220 O242 1.240 . S
C220 O243 1.264 . S
O221 Mn216 2.095 . S
O221 C230 1.250 . S
O222 Mn217 2.121 . S
O222 C230 1.258 . S
C223 N224 1.326 . S
C223 C227 1.460 . S
C223 H229 0.929 . S
N224 Mn217 2.257 . S
N224 C223 1.326 . S
N224 C228 1.362 . S
C225 C226 1.258 . S
C225 C228 1.431 . S
C225 C245 1.449 . S
C226 C225 1.258 . S
C226 C227 1.477 . S
C226 H246 0.931 . S
C227 C223 1.460 . S
C227 C226 1.477 . S
C227 H247 0.930 . S
C228 N224 1.362 . S
C228 C225 1.431 . S
C228 C238 1.476 . S
H229 C223 0.929 . S
C230 O221 1.250 . S
C230 O222 1.258 . S
O231 Mn216 2.162 . S
O231 C219 1.281 . S
O232 Mn216 2.297 . S
O232 C219 1.236 . S
N233 Mn217 2.282 . S
N233 C234 1.328 . S
N233 C238 1.318 . S
C234 N233 1.328 . S
C234 C235 1.457 . S
C234 H239 0.929 . S
C235 C234 1.457 . S
C235 C236 1.291 . S
C235 H248 0.931 . S
C236 C235 1.291 . S
C236 C237 1.373 . S
C236 H249 0.929 . S
C237 C236 1.373 . S
C237 C238 1.396 . S
C237 C244 1.403 . S
C238 C228 1.476 . S
C238 N233 1.318 . S
C238 C237 1.396 . S
H239 C234 0.929 . S
O240 Mn216 2.385 . S
O240 C218 1.234 . S
O241 Mn216 2.209 . S
O241 Mn217 2.215 . S
O241 C218 1.283 . S
O242 Mn216 2.094 . S
O242 C220 1.240 . S
O243 Mn217 2.117 . S
O243 C220 1.264 . S
C244 C237 1.403 . S
C244 C245 1.399 . S
C244 H250 0.929 . S
C245 C225 1.449 . S
C245 C244 1.399 . S
C245 H251 0.930 . S
H246 C226 0.931 . S
H247 C227 0.930 . S
H248 C235 0.931 . S
H249 C236 0.929 . S
H250 C244 0.929 . S
H251 C245 0.930 . S
Mn252 O257 2.095 . S
Mn252 O267 2.162 1_565 S
Mn252 O268 2.297 1_565 S
Mn252 O276 2.385 . S
Mn252 O277 2.209 . S
Mn252 O278 2.094 . S
Mn253 O258 2.121 . S
Mn253 N260 2.257 . S
Mn253 N269 2.282 . S
Mn253 O277 2.215 . S
Mn253 O279 2.117 . S
C254 O276 1.234 . S
C254 O277 1.283 . S
C255 O267 1.281 . S
C255 O268 1.236 . S
C256 O278 1.240 . S
C256 O279 1.264 . S
O257 Mn252 2.095 . S
O257 C266 1.250 . S
O258 Mn253 2.121 . S
O258 C266 1.258 . S
C259 N260 1.326 . S
C259 C263 1.460 . S
C259 H265 0.929 . S
N260 Mn253 2.257 . S
N260 C259 1.326 . S
N260 C264 1.362 . S
C261 C262 1.258 . S
C261 C264 1.431 . S
C261 C281 1.449 . S
C262 C261 1.258 . S
C262 C263 1.477 . S
C262 H282 0.931 . S
C263 C259 1.460 . S
C263 C262 1.477 . S
C263 H283 0.930 . S
C264 N260 1.362 . S
C264 C261 1.431 . S
C264 C274 1.476 . S
H265 C259 0.929 . S
C266 O257 1.250 . S
C266 O258 1.258 . S
O267 Mn252 2.162 1_545 S
O267 C255 1.281 . S
O268 Mn252 2.297 1_545 S
O268 C255 1.236 . S
N269 Mn253 2.282 . S
N269 C270 1.328 . S
N269 C274 1.318 . S
C270 N269 1.328 . S
C270 C271 1.457 . S
C270 H275 0.929 . S
C271 C270 1.457 . S
C271 C272 1.291 . S
C271 H284 0.931 . S
C272 C271 1.291 . S
C272 C273 1.373 . S
C272 H285 0.929 . S
C273 C272 1.373 . S
C273 C274 1.396 . S
C273 C280 1.403 . S
C274 C264 1.476 . S
C274 N269 1.318 . S
C274 C273 1.396 . S
H275 C270 0.929 . S
O276 Mn252 2.385 . S
O276 C254 1.234 . S
O277 Mn252 2.209 . S
O277 Mn253 2.215 . S
O277 C254 1.283 . S
O278 Mn252 2.094 . S
O278 C256 1.240 . S
O279 Mn253 2.117 . S
O279 C256 1.264 . S
C280 C273 1.403 . S
C280 C281 1.399 . S
C280 H286 0.929 . S
C281 C261 1.449 . S
C281 C280 1.399 . S
C281 H287 0.930 . S
H282 C262 0.931 . S
H283 C263 0.930 . S
H284 C271 0.931 . S
H285 C272 0.929 . S
H286 C280 0.929 . S
H287 C281 0.930 . S
Mn288 O293 2.095 . S
Mn288 O303 2.162 1_455 S
Mn288 O304 2.297 1_455 S
Mn288 O312 2.385 . S
Mn288 O313 2.209 . S
Mn288 O314 2.094 . S
Mn289 O294 2.121 . S
Mn289 N296 2.257 . S
Mn289 N305 2.282 . S
Mn289 O313 2.215 . S
Mn289 O315 2.117 . S
C290 O312 1.234 . S
C290 O313 1.283 . S
C291 O303 1.281 . S
C291 O304 1.236 . S
C292 O314 1.240 . S
C292 O315 1.264 . S
O293 Mn288 2.095 . S
O293 C302 1.250 . S
O294 Mn289 2.121 . S
O294 C302 1.258 . S
C295 N296 1.326 . S
C295 C299 1.460 . S
C295 H301 0.929 . S
N296 Mn289 2.257 . S
N296 C295 1.326 . S
N296 C300 1.362 . S
C297 C298 1.258 . S
C297 C300 1.431 . S
C297 C317 1.449 . S
C298 C297 1.258 . S
C298 C299 1.477 . S
C298 H318 0.931 . S
C299 C295 1.460 . S
C299 C298 1.477 . S
C299 H319 0.930 . S
C300 N296 1.362 . S
C300 C297 1.431 . S
C300 C310 1.476 . S
H301 C295 0.929 . S
C302 O293 1.250 . S
C302 O294 1.258 . S
O303 Mn288 2.162 1_655 S
O303 C291 1.281 . S
O304 Mn288 2.297 1_655 S
O304 C291 1.236 . S
N305 Mn289 2.282 . S
N305 C306 1.328 . S
N305 C310 1.318 . S
C306 N305 1.328 . S
C306 C307 1.457 . S
C306 H311 0.929 . S
C307 C306 1.457 . S
C307 C308 1.291 . S
C307 H320 0.931 . S
C308 C307 1.291 . S
C308 C309 1.373 . S
C308 H321 0.929 . S
C309 C308 1.373 . S
C309 C310 1.396 . S
C309 C316 1.403 . S
C310 C300 1.476 . S
C310 N305 1.318 . S
C310 C309 1.396 . S
H311 C306 0.929 . S
O312 Mn288 2.385 . S
O312 C290 1.234 . S
O313 Mn288 2.209 . S
O313 Mn289 2.215 . S
O313 C290 1.283 . S
O314 Mn288 2.094 . S
O314 C292 1.240 . S
O315 Mn289 2.117 . S
O315 C292 1.264 . S
C316 C309 1.403 . S
C316 C317 1.399 . S
C316 H322 0.929 . S
C317 C297 1.449 . S
C317 C316 1.399 . S
C317 H323 0.930 . S
H318 C298 0.931 . S
H319 C299 0.930 . S
H320 C307 0.931 . S
H321 C308 0.929 . S
H322 C316 0.929 . S
H323 C317 0.930 . S
Mn324 O329 2.095 1_565 S
Mn324 O339 2.162 . S
Mn324 O340 2.297 . S
Mn324 O348 2.385 . S
Mn324 O349 2.209 . S
Mn324 O350 2.094 . S
Mn325 O330 2.121 1_565 S
Mn325 N332 2.257 . S
Mn325 N341 2.282 . S
Mn325 O349 2.215 . S
Mn325 O351 2.117 . S
C326 O348 1.234 . S
C326 O349 1.283 . S
C327 O339 1.281 . S
C327 O340 1.236 . S
C328 O350 1.240 . S
C328 O351 1.264 . S
O329 Mn324 2.095 1_545 S
O329 C338 1.250 . S
O330 Mn325 2.121 1_545 S
O330 C338 1.258 . S
C331 N332 1.326 1_545 S
C331 C335 1.460 . S
C331 H337 0.929 . S
N332 Mn325 2.257 . S
N332 C331 1.326 1_565 S
N332 C336 1.362 . S
C333 C334 1.258 1_565 S
C333 C336 1.431 . S
C333 C353 1.449 . S
C334 C333 1.258 1_545 S
C334 C335 1.477 . S
C334 H354 0.931 . S
C335 C331 1.460 . S
C335 C334 1.477 . S
C335 H355 0.930 . S
C336 N332 1.362 . S
C336 C333 1.431 . S
C336 C346 1.476 . S
H337 C331 0.929 . S
C338 O329 1.250 . S
C338 O330 1.258 . S
O339 Mn324 2.162 . S
O339 C327 1.281 . S
O340 Mn324 2.297 . S
O340 C327 1.236 . S
N341 Mn325 2.282 . S
N341 C342 1.328 . S
N341 C346 1.318 . S
C342 N341 1.328 . S
C342 C343 1.457 . S
C342 H347 0.929 . S
C343 C342 1.457 . S
C343 C344 1.291 . S
C343 H356 0.931 . S
C344 C343 1.291 . S
C344 C345 1.373 . S
C344 H357 0.929 . S
C345 C344 1.373 . S
C345 C346 1.396 . S
C345 C352 1.403 . S
C346 C336 1.476 . S
C346 N341 1.318 . S
C346 C345 1.396 . S
H347 C342 0.929 . S
O348 Mn324 2.385 . S
O348 C326 1.234 . S
O349 Mn324 2.209 . S
O349 Mn325 2.215 . S
O349 C326 1.283 . S
O350 Mn324 2.094 . S
O350 C328 1.240 . S
O351 Mn325 2.117 . S
O351 C328 1.264 . S
C352 C345 1.403 . S
C352 C353 1.399 . S
C352 H358 0.929 . S
C353 C333 1.449 . S
C353 C352 1.399 . S
C353 H359 0.930 . S
H354 C334 0.931 . S
H355 C335 0.930 . S
H356 C343 0.931 . S
H357 C344 0.929 . S
H358 C352 0.929 . S
H359 C353 0.930 . S
Mn360 O365 2.095 . S
Mn360 O375 2.162 1_455 S
Mn360 O376 2.297 1_455 S
Mn360 O384 2.385 . S
Mn360 O385 2.209 . S
Mn360 O386 2.094 . S
Mn361 O366 2.121 . S
Mn361 N368 2.257 . S
Mn361 N377 2.282 . S
Mn361 O385 2.215 . S
Mn361 O387 2.117 . S
C362 O384 1.234 . S
C362 O385 1.283 . S
C363 O375 1.281 . S
C363 O376 1.236 . S
C364 O386 1.240 . S
C364 O387 1.264 . S
O365 Mn360 2.095 . S
O365 C374 1.250 . S
O366 Mn361 2.121 . S
O366 C374 1.258 . S
C367 N368 1.326 . S
C367 C371 1.460 . S
C367 H373 0.929 . S
N368 Mn361 2.257 . S
N368 C367 1.326 . S
N368 C372 1.362 . S
C369 C370 1.258 . S
C369 C372 1.431 . S
C369 C389 1.449 . S
C370 C369 1.258 . S
C370 C371 1.477 . S
C370 H390 0.931 . S
C371 C367 1.460 . S
C371 C370 1.477 . S
C371 H391 0.930 . S
C372 N368 1.362 . S
C372 C369 1.431 . S
C372 C382 1.476 . S
H373 C367 0.929 . S
C374 O365 1.250 . S
C374 O366 1.258 . S
O375 Mn360 2.162 1_655 S
O375 C363 1.281 . S
O376 Mn360 2.297 1_655 S
O376 C363 1.236 . S
N377 Mn361 2.282 . S
N377 C378 1.328 . S
N377 C382 1.318 . S
C378 N377 1.328 . S
C378 C379 1.457 . S
C378 H383 0.929 . S
C379 C378 1.457 . S
C379 C380 1.291 . S
C379 H392 0.931 . S
C380 C379 1.291 . S
C380 C381 1.373 . S
C380 H393 0.929 . S
C381 C380 1.373 . S
C381 C382 1.396 . S
C381 C388 1.403 . S
C382 C372 1.476 . S
C382 N377 1.318 . S
C382 C381 1.396 . S
H383 C378 0.929 . S
O384 Mn360 2.385 . S
O384 C362 1.234 . S
O385 Mn360 2.209 . S
O385 Mn361 2.215 . S
O385 C362 1.283 . S
O386 Mn360 2.094 . S
O386 C364 1.240 . S
O387 Mn361 2.117 . S
O387 C364 1.264 . S
C388 C381 1.403 . S
C388 C389 1.399 . S
C388 H394 0.929 . S
C389 C369 1.449 . S
C389 C388 1.399 . S
C389 H395 0.930 . S
H390 C370 0.931 . S
H391 C371 0.930 . S
H392 C379 0.931 . S
H393 C380 0.929 . S
H394 C388 0.929 . S
H395 C389 0.930 . S
Mn396 O401 2.095 . S
Mn396 O411 2.162 . S
Mn396 O412 2.297 . S
Mn396 O420 2.385 . S
Mn396 O421 2.209 . S
Mn396 O422 2.094 . S
Mn397 O402 2.121 . S
Mn397 N404 2.257 . S
Mn397 N413 2.282 . S
Mn397 O421 2.215 . S
Mn397 O423 2.117 . S
C398 O420 1.234 . S
C398 O421 1.283 . S
C399 O411 1.281 . S
C399 O412 1.236 . S
C400 O422 1.240 . S
C400 O423 1.264 . S
O401 Mn396 2.095 . S
O401 C410 1.250 . S
O402 Mn397 2.121 . S
O402 C410 1.258 . S
C403 N404 1.326 . S
C403 C407 1.460 . S
C403 H409 0.929 . S
N404 Mn397 2.257 . S
N404 C403 1.326 . S
N404 C408 1.362 . S
C405 C406 1.258 . S
C405 C408 1.431 . S
C405 C425 1.449 . S
C406 C405 1.258 . S
C406 C407 1.477 . S
C406 H426 0.931 . S
C407 C403 1.460 . S
C407 C406 1.477 . S
C407 H427 0.930 . S
C408 N404 1.362 . S
C408 C405 1.431 . S
C408 C418 1.476 . S
H409 C403 0.929 . S
C410 O401 1.250 . S
C410 O402 1.258 . S
O411 Mn396 2.162 . S
O411 C399 1.281 . S
O412 Mn396 2.297 . S
O412 C399 1.236 . S
N413 Mn397 2.282 . S
N413 C414 1.328 . S
N413 C418 1.318 . S
C414 N413 1.328 . S
C414 C415 1.457 . S
C414 H419 0.929 . S
C415 C414 1.457 . S
C415 C416 1.291 . S
C415 H428 0.931 . S
C416 C415 1.291 . S
C416 C417 1.373 . S
C416 H429 0.929 . S
C417 C416 1.373 . S
C417 C418 1.396 . S
C417 C424 1.403 . S
C418 C408 1.476 . S
C418 N413 1.318 . S
C418 C417 1.396 . S
H419 C414 0.929 . S
O420 Mn396 2.385 . S
O420 C398 1.234 . S
O421 Mn396 2.209 . S
O421 Mn397 2.215 . S
O421 C398 1.283 . S
O422 Mn396 2.094 . S
O422 C400 1.240 . S
O423 Mn397 2.117 . S
O423 C400 1.264 . S
C424 C417 1.403 . S
C424 C425 1.399 . S
C424 H430 0.929 . S
C425 C405 1.449 . S
C425 C424 1.399 . S
C425 H431 0.930 . S
H426 C406 0.931 . S
H427 C407 0.930 . S
H428 C415 0.931 . S
H429 C416 0.929 . S
H430 C424 0.929 . S
H431 C425 0.930 . S
Mn432 O437 2.095 . S
Mn432 O447 2.162 1_545 S
Mn432 O448 2.297 1_545 S
Mn432 O456 2.385 . S
Mn432 O457 2.209 . S
Mn432 O458 2.094 . S
Mn433 O438 2.121 . S
Mn433 N440 2.257 . S
Mn433 N449 2.282 . S
Mn433 O457 2.215 . S
Mn433 O459 2.117 . S
C434 O456 1.234 . S
C434 O457 1.283 . S
C435 O447 1.281 . S
C435 O448 1.236 . S
C436 O458 1.240 . S
C436 O459 1.264 . S
O437 Mn432 2.095 . S
O437 C446 1.250 . S
O438 Mn433 2.121 . S
O438 C446 1.258 . S
C439 N440 1.326 . S
C439 C443 1.460 . S
C439 H445 0.929 . S
N440 Mn433 2.257 . S
N440 C439 1.326 . S
N440 C444 1.362 . S
C441 C442 1.258 . S
C441 C444 1.431 . S
C441 C461 1.449 . S
C442 C441 1.258 . S
C442 C443 1.477 . S
C442 H462 0.931 . S
C443 C439 1.460 . S
C443 C442 1.477 . S
C443 H463 0.930 . S
C444 N440 1.362 . S
C444 C441 1.431 . S
C444 C454 1.476 . S
H445 C439 0.929 . S
C446 O437 1.250 . S
C446 O438 1.258 . S
O447 Mn432 2.162 1_565 S
O447 C435 1.281 . S
O448 Mn432 2.297 1_565 S
O448 C435 1.236 . S
N449 Mn433 2.282 . S
N449 C450 1.328 . S
N449 C454 1.318 . S
C450 N449 1.328 . S
C450 C451 1.457 . S
C450 H455 0.929 . S
C451 C450 1.457 . S
C451 C452 1.291 . S
C451 H464 0.931 . S
C452 C451 1.291 . S
C452 C453 1.373 . S
C452 H465 0.929 . S
C453 C452 1.373 . S
C453 C454 1.396 . S
C453 C460 1.403 . S
C454 C444 1.476 . S
C454 N449 1.318 . S
C454 C453 1.396 . S
H455 C450 0.929 . S
O456 Mn432 2.385 . S
O456 C434 1.234 . S
O457 Mn432 2.209 . S
O457 Mn433 2.215 . S
O457 C434 1.283 . S
O458 Mn432 2.094 . S
O458 C436 1.240 . S
O459 Mn433 2.117 . S
O459 C436 1.264 . S
C460 C453 1.403 . S
C460 C461 1.399 . S
C460 H466 0.929 . S
C461 C441 1.449 . S
C461 C460 1.399 . S
C461 H467 0.930 . S
H462 C442 0.931 . S
H463 C443 0.930 . S
H464 C451 0.931 . S
H465 C452 0.929 . S
H466 C460 0.929 . S
H467 C461 0.930 . S
Mn468 O473 2.095 1_655 S
Mn468 O483 2.162 . S
Mn468 O484 2.297 . S
Mn468 O492 2.385 . S
Mn468 O493 2.209 . S
Mn468 O494 2.094 . S
Mn469 O474 2.121 1_655 S
Mn469 N476 2.257 . S
Mn469 N485 2.282 . S
Mn469 O493 2.215 . S
Mn469 O495 2.117 . S
C470 O492 1.234 . S
C470 O493 1.283 . S
C471 O483 1.281 . S
C471 O484 1.236 . S
C472 O494 1.240 . S
C472 O495 1.264 . S
O473 Mn468 2.095 1_455 S
O473 C482 1.250 . S
O474 Mn469 2.121 1_455 S
O474 C482 1.258 . S
C475 N476 1.326 1_455 S
C475 C479 1.460 . S
C475 H481 0.929 . S
N476 Mn469 2.257 . S
N476 C475 1.326 1_655 S
N476 C480 1.362 . S
C477 C478 1.258 1_655 S
C477 C480 1.431 . S
C477 C497 1.449 . S
C478 C477 1.258 1_455 S
C478 C479 1.477 . S
C478 H498 0.931 . S
C479 C475 1.460 . S
C479 C478 1.477 . S
C479 H499 0.930 . S
C480 N476 1.362 . S
C480 C477 1.431 . S
C480 C490 1.476 . S
H481 C475 0.929 . S
C482 O473 1.250 . S
C482 O474 1.258 . S
O483 Mn468 2.162 . S
O483 C471 1.281 . S
O484 Mn468 2.297 . S
O484 C471 1.236 . S
N485 Mn469 2.282 . S
N485 C486 1.328 . S
N485 C490 1.318 . S
C486 N485 1.328 . S
C486 C487 1.457 . S
C486 H491 0.929 . S
C487 C486 1.457 . S
C487 C488 1.291 . S
C487 H500 0.931 . S
C488 C487 1.291 . S
C488 C489 1.373 . S
C488 H501 0.929 . S
C489 C488 1.373 . S
C489 C490 1.396 . S
C489 C496 1.403 . S
C490 C480 1.476 . S
C490 N485 1.318 . S
C490 C489 1.396 . S
H491 C486 0.929 . S
O492 Mn468 2.385 . S
O492 C470 1.234 . S
O493 Mn468 2.209 . S
O493 Mn469 2.215 . S
O493 C470 1.283 . S
O494 Mn468 2.094 . S
O494 C472 1.240 . S
O495 Mn469 2.117 . S
O495 C472 1.264 . S
C496 C489 1.403 . S
C496 C497 1.399 . S
C496 H502 0.929 . S
C497 C477 1.449 . S
C497 C496 1.399 . S
C497 H503 0.930 . S
H498 C478 0.931 . S
H499 C479 0.930 . S
H500 C487 0.931 . S
H501 C488 0.929 . S
H502 C496 0.929 . S
H503 C497 0.930 . S
Mn504 O509 2.095 . S
Mn504 O519 2.162 . S
Mn504 O520 2.297 . S
Mn504 O528 2.385 . S
Mn504 O529 2.209 . S
Mn504 O530 2.094 . S
Mn505 O510 2.121 . S
Mn505 N512 2.257 . S
Mn505 N521 2.282 . S
Mn505 O529 2.215 . S
Mn505 O531 2.117 . S
C506 O528 1.234 . S
C506 O529 1.283 . S
C507 O519 1.281 . S
C507 O520 1.236 . S
C508 O530 1.240 . S
C508 O531 1.264 . S
O509 Mn504 2.095 . S
O509 C518 1.250 . S
O510 Mn505 2.121 . S
O510 C518 1.258 . S
C511 N512 1.326 . S
C511 C515 1.460 . S
C511 H517 0.929 . S
N512 Mn505 2.257 . S
N512 C511 1.326 . S
N512 C516 1.362 . S
C513 C514 1.258 . S
C513 C516 1.431 . S
C513 C533 1.449 . S
C514 C513 1.258 . S
C514 C515 1.477 . S
C514 H534 0.931 . S
C515 C511 1.460 . S
C515 C514 1.477 . S
C515 H535 0.930 . S
C516 N512 1.362 . S
C516 C513 1.431 . S
C516 C526 1.476 . S
H517 C511 0.929 . S
C518 O509 1.250 . S
C518 O510 1.258 . S
O519 Mn504 2.162 . S
O519 C507 1.281 . S
O520 Mn504 2.297 . S
O520 C507 1.236 . S
N521 Mn505 2.282 . S
N521 C522 1.328 . S
N521 C526 1.318 . S
C522 N521 1.328 . S
C522 C523 1.457 . S
C522 H527 0.929 . S
C523 C522 1.457 . S
C523 C524 1.291 . S
C523 H536 0.931 . S
C524 C523 1.291 . S
C524 C525 1.373 . S
C524 H537 0.929 . S
C525 C524 1.373 . S
C525 C526 1.396 . S
C525 C532 1.403 . S
C526 C516 1.476 . S
C526 N521 1.318 . S
C526 C525 1.396 . S
H527 C522 0.929 . S
O528 Mn504 2.385 . S
O528 C506 1.234 . S
O529 Mn504 2.209 . S
O529 Mn505 2.215 . S
O529 C506 1.283 . S
O530 Mn504 2.094 . S
O530 C508 1.240 . S
O531 Mn505 2.117 . S
O531 C508 1.264 . S
C532 C525 1.403 . S
C532 C533 1.399 . S
C532 H538 0.929 . S
C533 C513 1.449 . S
C533 C532 1.399 . S
C533 H539 0.930 . S
H534 C514 0.931 . S
H535 C515 0.930 . S
H536 C523 0.931 . S
H537 C524 0.929 . S
H538 C532 0.929 . S
H539 C533 0.930 . S
Mn540 O545 2.095 . S
Mn540 O555 2.162 . S
Mn540 O556 2.297 . S
Mn540 O564 2.385 . S
Mn540 O565 2.209 . S
Mn540 O566 2.094 . S
Mn541 O546 2.121 . S
Mn541 N548 2.257 . S
Mn541 N557 2.282 . S
Mn541 O565 2.215 . S
Mn541 O567 2.117 . S
C542 O564 1.234 . S
C542 O565 1.283 . S
C543 O555 1.281 . S
C543 O556 1.236 . S
C544 O566 1.240 . S
C544 O567 1.264 . S
O545 Mn540 2.095 . S
O545 C554 1.250 . S
O546 Mn541 2.121 . S
O546 C554 1.258 . S
C547 N548 1.326 . S
C547 C551 1.460 . S
C547 H553 0.929 . S
N548 Mn541 2.257 . S
N548 C547 1.326 . S
N548 C552 1.362 . S
C549 C550 1.258 . S
C549 C552 1.431 . S
C549 C569 1.449 . S
C550 C549 1.258 . S
C550 C551 1.477 . S
C550 H570 0.931 . S
C551 C547 1.460 . S
C551 C550 1.477 . S
C551 H571 0.930 . S
C552 N548 1.362 . S
C552 C549 1.431 . S
C552 C562 1.476 . S
H553 C547 0.929 . S
C554 O545 1.250 . S
C554 O546 1.258 . S
O555 Mn540 2.162 . S
O555 C543 1.281 . S
O556 Mn540 2.297 . S
O556 C543 1.236 . S
N557 Mn541 2.282 . S
N557 C558 1.328 . S
N557 C562 1.318 . S
C558 N557 1.328 . S
C558 C559 1.457 . S
C558 H563 0.929 . S
C559 C558 1.457 . S
C559 C560 1.291 . S
C559 H572 0.931 . S
C560 C559 1.291 . S
C560 C561 1.373 . S
C560 H573 0.929 . S
C561 C560 1.373 . S
C561 C562 1.396 . S
C561 C568 1.403 . S
C562 C552 1.476 . S
C562 N557 1.318 . S
C562 C561 1.396 . S
H563 C558 0.929 . S
O564 Mn540 2.385 . S
O564 C542 1.234 . S
O565 Mn540 2.209 . S
O565 Mn541 2.215 . S
O565 C542 1.283 . S
O566 Mn540 2.094 . S
O566 C544 1.240 . S
O567 Mn541 2.117 . S
O567 C544 1.264 . S
C568 C561 1.403 . S
C568 C569 1.399 . S
C568 H574 0.929 . S
C569 C549 1.449 . S
C569 C568 1.399 . S
C569 H575 0.930 . S
H570 C550 0.931 . S
H571 C551 0.930 . S
H572 C559 0.931 . S
H573 C560 0.929 . S
H574 C568 0.929 . S
H575 C569 0.930 . S
Mn576 O581 2.095 1_545 S
Mn576 O591 2.162 . S
Mn576 O592 2.299 . S
Mn576 O600 2.385 . S
Mn576 O601 2.209 . S
Mn576 O602 2.094 . S
Mn577 O582 2.121 1_545 S
Mn577 N584 2.257 . S
Mn577 N593 2.282 . S
Mn577 O601 2.215 . S
Mn577 O603 2.117 . S
C578 O600 1.234 . S
C578 O601 1.283 . S
C579 O591 1.281 . S
C579 O592 1.243 . S
C580 O602 1.240 . S
C580 O603 1.264 . S
O581 Mn576 2.095 1_565 S
O581 C590 1.250 . S
O582 Mn577 2.121 1_565 S
O582 C590 1.258 . S
C583 N584 1.326 1_565 S
C583 C587 1.460 . S
C583 H589 0.929 . S
N584 Mn577 2.257 . S
N584 C583 1.326 1_545 S
N584 C588 1.362 . S
C585 C586 1.258 1_545 S
C585 C588 1.431 . S
C585 C605 1.449 . S
C586 C585 1.258 1_565 S
C586 C587 1.477 . S
C586 H606 0.931 . S
C587 C583 1.460 . S
C587 C586 1.477 . S
C587 H607 0.930 . S
C588 N584 1.362 . S
C588 C585 1.431 . S
C588 C598 1.476 . S
H589 C583 0.929 . S
C590 O581 1.250 . S
C590 O582 1.258 . S
O591 Mn576 2.162 . S
O591 C579 1.281 . S
O592 Mn576 2.299 . S
O592 C579 1.243 . S
N593 Mn577 2.282 . S
N593 C594 1.328 . S
N593 C598 1.318 . S
C594 N593 1.328 . S
C594 C595 1.457 . S
C594 H599 0.929 . S
C595 C594 1.457 . S
C595 C596 1.291 . S
C595 H608 0.931 . S
C596 C595 1.291 . S
C596 C597 1.373 . S
C596 H609 0.929 . S
C597 C596 1.373 . S
C597 C598 1.396 . S
C597 C604 1.403 . S
C598 C588 1.476 . S
C598 N593 1.318 . S
C598 C597 1.396 . S
H599 C594 0.929 . S
O600 Mn576 2.385 . S
O600 C578 1.234 . S
O601 Mn576 2.209 . S
O601 Mn577 2.215 . S
O601 C578 1.283 . S
O602 Mn576 2.094 . S
O602 C580 1.240 . S
O603 Mn577 2.117 . S
O603 C580 1.264 . S
C604 C597 1.403 . S
C604 C605 1.399 . S
C604 H610 0.929 . S
C605 C585 1.449 . S
C605 C604 1.399 . S
C605 H611 0.930 . S
H606 C586 0.931 . S
H607 C587 0.930 . S
H608 C595 0.931 . S
H609 C596 0.929 . S
H610 C604 0.929 . S
H611 C605 0.930 . S
Mn612 O617 2.095 . S
Mn612 O627 2.162 1_655 S
Mn612 O628 2.297 1_655 S
Mn612 O636 2.385 . S
Mn612 O637 2.209 . S
Mn612 O638 2.094 . S
Mn613 O618 2.121 . S
Mn613 N620 2.257 . S
Mn613 N629 2.282 . S
Mn613 O637 2.215 . S
Mn613 O639 2.117 . S
C614 O636 1.234 . S
C614 O637 1.283 . S
C615 O627 1.281 . S
C615 O628 1.236 . S
C616 O638 1.240 . S
C616 O639 1.264 . S
O617 Mn612 2.095 . S
O617 C626 1.250 . S
O618 Mn613 2.121 . S
O618 C626 1.258 . S
C619 N620 1.326 . S
C619 C623 1.460 . S
C619 H625 0.929 . S
N620 Mn613 2.257 . S
N620 C619 1.326 . S
N620 C624 1.362 . S
C621 C622 1.258 . S
C621 C624 1.431 . S
C621 C641 1.449 . S
C622 C621 1.258 . S
C622 C623 1.477 . S
C622 H642 0.931 . S
C623 C619 1.460 . S
C623 C622 1.477 . S
C623 H643 0.930 . S
C624 N620 1.362 . S
C624 C621 1.431 . S
C624 C634 1.476 . S
H625 C619 0.929 . S
C626 O617 1.250 . S
C626 O618 1.258 . S
O627 Mn612 2.162 1_455 S
O627 C615 1.281 . S
O628 Mn612 2.297 1_455 S
O628 C615 1.236 . S
N629 Mn613 2.282 . S
N629 C630 1.328 . S
N629 C634 1.318 . S
C630 N629 1.328 . S
C630 C631 1.457 . S
C630 H635 0.929 . S
C631 C630 1.457 . S
C631 C632 1.291 . S
C631 H644 0.931 . S
C632 C631 1.291 . S
C632 C633 1.373 . S
C632 H645 0.929 . S
C633 C632 1.373 . S
C633 C634 1.396 . S
C633 C640 1.403 . S
C634 C624 1.476 . S
C634 N629 1.318 . S
C634 C633 1.396 . S
H635 C630 0.929 . S
O636 Mn612 2.385 . S
O636 C614 1.234 . S
O637 Mn612 2.209 . S
O637 Mn613 2.215 . S
O637 C614 1.283 . S
O638 Mn612 2.094 . S
O638 C616 1.240 . S
O639 Mn613 2.117 . S
O639 C616 1.264 . S
C640 C633 1.403 . S
C640 C641 1.399 . S
C640 H646 0.929 . S
C641 C621 1.449 . S
C641 C640 1.399 . S
C641 H647 0.930 . S
H642 C622 0.931 . S
H643 C623 0.930 . S
H644 C631 0.931 . S
H645 C632 0.929 . S
H646 C640 0.929 . S
H647 C641 0.930 . S
C648 C649 1.384 . S
C648 C650 1.384 . S
C648 H676 0.931 . S
C649 C648 1.384 . S
C649 C652 1.382 . S
C650 C648 1.384 . S
C650 C651 1.381 . S
C650 H677 0.930 . S
C651 C650 1.381 . S
C651 C653 1.381 . S
C651 C654 1.487 . S
C652 C649 1.382 . S
C652 C653 1.387 . S
C652 H678 0.930 . S
C653 C651 1.381 . S
C653 C652 1.387 . S
C653 H679 0.931 . S
C654 C651 1.487 . S
C654 C661 1.399 . S
C654 N692 1.343 . S
C655 C656 1.384 . S
C655 C657 1.384 . S
C655 H680 0.931 . S
C656 C655 1.384 . S
C656 C659 1.382 . S
C657 C655 1.384 . S
C657 C658 1.381 . S
C657 H681 0.930 . S
C658 C657 1.381 . S
C658 C660 1.381 . S
C658 C661 1.487 . S
C659 C656 1.382 . S
C659 C660 1.387 . S
C659 H682 0.930 . S
C660 C658 1.381 . S
C660 C659 1.387 . S
C660 H683 0.931 . S
C661 C654 1.399 . S
C661 C658 1.487 . S
C661 N693 1.343 . S
C662 C663 1.384 . S
C662 C664 1.384 . S
C662 H684 0.931 . S
C663 C662 1.384 . S
C663 C666 1.382 . S
C664 C662 1.384 . S
C664 C665 1.381 . S
C664 H685 0.930 . S
C665 C664 1.381 . S
C665 C667 1.381 . S
C665 C668 1.487 . S
C666 C663 1.382 . S
C666 C667 1.387 . S
C666 H686 0.930 . S
C667 C665 1.381 . S
C667 C666 1.387 . S
C667 H687 0.931 . S
C668 C665 1.487 . S
C668 C675 1.399 . S
C668 N693 1.343 . S
C669 C670 1.384 . S
C669 C671 1.384 . S
C669 H688 0.931 . S
C670 C669 1.384 . S
C670 C673 1.382 . S
C671 C669 1.384 . S
C671 C672 1.381 . S
C671 H689 0.930 . S
C672 C671 1.381 . S
C672 C674 1.381 . S
C672 C675 1.487 . S
C673 C670 1.382 . S
C673 C674 1.387 . S
C673 H690 0.930 . S
C674 C672 1.381 . S
C674 C673 1.387 . S
C674 H691 0.931 . S
C675 C668 1.399 . S
C675 C672 1.487 . S
C675 N692 1.343 . S
H676 C648 0.931 . S
H677 C650 0.930 . S
H678 C652 0.930 . S
H679 C653 0.931 . S
H680 C655 0.931 . S
H681 C657 0.930 . S
H682 C659 0.930 . S
H683 C660 0.931 . S
H684 C662 0.931 . S
H685 C664 0.930 . S
H686 C666 0.930 . S
H687 C667 0.931 . S
H688 C669 0.931 . S
H689 C671 0.930 . S
H690 C673 0.930 . S
H691 C674 0.931 . S
N692 C654 1.343 . S
N692 C675 1.343 . S
N693 C661 1.343 . S
N693 C668 1.343 . S
C694 C695 1.384 . S
C694 C696 1.384 . S
C694 H722 0.931 . S
C695 C694 1.384 . S
C695 C698 1.382 . S
C696 C694 1.384 . S
C696 C697 1.381 . S
C696 H723 0.930 . S
C697 C696 1.381 . S
C697 C699 1.381 . S
C697 C700 1.487 . S
C698 C695 1.382 . S
C698 C699 1.387 . S
C698 H724 0.930 . S
C699 C697 1.381 . S
C699 C698 1.387 . S
C699 H725 0.931 . S
C700 C697 1.487 . S
C700 C707 1.399 . S
C700 N738 1.343 . S
C701 C702 1.384 . S
C701 C703 1.384 . S
C701 H726 0.931 . S
C702 C701 1.384 . S
C702 C705 1.382 . S
C703 C701 1.384 . S
C703 C704 1.381 . S
C703 H727 0.930 . S
C704 C703 1.381 . S
C704 C706 1.381 . S
C704 C707 1.487 . S
C705 C702 1.382 . S
C705 C706 1.387 . S
C705 H728 0.930 . S
C706 C704 1.381 . S
C706 C705 1.387 . S
C706 H729 0.931 . S
C707 C700 1.399 . S
C707 C704 1.487 . S
C707 N739 1.343 . S
C708 C709 1.384 . S
C708 C710 1.384 . S
C708 H730 0.931 . S
C709 C708 1.384 . S
C709 C712 1.382 . S
C710 C708 1.384 . S
C710 C711 1.381 . S
C710 H731 0.930 . S
C711 C710 1.381 . S
C711 C713 1.381 . S
C711 C714 1.487 . S
C712 C709 1.382 . S
C712 C713 1.387 . S
C712 H732 0.930 . S
C713 C711 1.381 . S
C713 C712 1.387 . S
C713 H733 0.931 . S
C714 C711 1.487 . S
C714 C721 1.399 . S
C714 N739 1.343 . S
C715 C716 1.384 . S
C715 C717 1.384 . S
C715 H734 0.931 . S
C716 C715 1.384 . S
C716 C719 1.382 . S
C717 C715 1.384 . S
C717 C718 1.381 . S
C717 H735 0.930 . S
C718 C717 1.381 . S
C718 C720 1.381 . S
C718 C721 1.487 . S
C719 C716 1.382 . S
C719 C720 1.387 . S
C719 H736 0.930 . S
C720 C718 1.381 . S
C720 C719 1.387 . S
C720 H737 0.931 . S
C721 C714 1.399 . S
C721 C718 1.487 . S
C721 N738 1.343 . S
H722 C694 0.931 . S
H723 C696 0.930 . S
H724 C698 0.930 . S
H725 C699 0.931 . S
H726 C701 0.931 . S
H727 C703 0.930 . S
H728 C705 0.930 . S
H729 C706 0.931 . S
H730 C708 0.931 . S
H731 C710 0.930 . S
H732 C712 0.930 . S
H733 C713 0.931 . S
H734 C715 0.931 . S
H735 C717 0.930 . S
H736 C719 0.930 . S
H737 C720 0.931 . S
N738 C700 1.343 . S
N738 C721 1.343 . S
N739 C707 1.343 . S
N739 C714 1.343 . S
C740 C741 1.384 . S
C740 C742 1.384 . S
C740 H768 0.931 . S
C741 C740 1.384 . S
C741 C744 1.382 . S
C742 C740 1.384 . S
C742 C743 1.381 . S
C742 H769 0.930 . S
C743 C742 1.381 . S
C743 C745 1.381 . S
C743 C746 1.487 . S
C744 C741 1.382 . S
C744 C745 1.387 . S
C744 H770 0.930 . S
C745 C743 1.381 . S
C745 C744 1.387 . S
C745 H771 0.931 . S
C746 C743 1.487 . S
C746 C753 1.399 . S
C746 N784 1.343 . S
C747 C748 1.384 . S
C747 C749 1.384 . S
C747 H772 0.931 . S
C748 C747 1.384 . S
C748 C751 1.382 . S
C749 C747 1.384 . S
C749 C750 1.381 . S
C749 H773 0.930 . S
C750 C749 1.381 . S
C750 C752 1.381 . S
C750 C753 1.487 . S
C751 C748 1.382 . S
C751 C752 1.387 . S
C751 H774 0.930 . S
C752 C750 1.381 . S
C752 C751 1.387 . S
C752 H775 0.931 . S
C753 C746 1.399 . S
C753 C750 1.487 . S
C753 N785 1.343 . S
C754 C755 1.384 . S
C754 C756 1.384 . S
C754 H776 0.931 . S
C755 C754 1.384 . S
C755 C758 1.382 . S
C756 C754 1.384 . S
C756 C757 1.381 . S
C756 H777 0.930 . S
C757 C756 1.381 . S
C757 C759 1.381 . S
C757 C760 1.487 . S
C758 C755 1.382 . S
C758 C759 1.387 . S
C758 H778 0.930 . S
C759 C757 1.381 . S
C759 C758 1.387 . S
C759 H779 0.931 . S
C760 C757 1.487 . S
C760 C767 1.399 . S
C760 N785 1.343 . S
C761 C762 1.384 . S
C761 C763 1.384 . S
C761 H780 0.931 . S
C762 C761 1.384 . S
C762 C765 1.382 . S
C763 C761 1.384 . S
C763 C764 1.381 . S
C763 H781 0.930 . S
C764 C763 1.381 . S
C764 C766 1.381 . S
C764 C767 1.487 . S
C765 C762 1.382 . S
C765 C766 1.387 . S
C765 H782 0.930 . S
C766 C764 1.381 . S
C766 C765 1.387 . S
C766 H783 0.931 . S
C767 C760 1.399 . S
C767 C764 1.487 . S
C767 N784 1.343 . S
H768 C740 0.931 . S
H769 C742 0.930 . S
H770 C744 0.930 . S
H771 C745 0.931 . S
H772 C747 0.931 . S
H773 C749 0.930 . S
H774 C751 0.930 . S
H775 C752 0.931 . S
H776 C754 0.931 . S
H777 C756 0.930 . S
H778 C758 0.930 . S
H779 C759 0.931 . S
H780 C761 0.931 . S
H781 C763 0.930 . S
H782 C765 0.930 . S
H783 C766 0.931 . S
N784 C746 1.343 . S
N784 C767 1.343 . S
N785 C753 1.343 . S
N785 C760 1.343 . S
C786 C787 1.384 . S
C786 C788 1.384 . S
C786 H814 0.931 . S
C787 C786 1.384 . S
C787 C790 1.382 . S
C788 C786 1.384 . S
C788 C789 1.381 . S
C788 H815 0.930 . S
C789 C788 1.381 . S
C789 C791 1.381 . S
C789 C792 1.487 . S
C790 C787 1.382 . S
C790 C791 1.387 . S
C790 H816 0.930 . S
C791 C789 1.381 . S
C791 C790 1.387 . S
C791 H817 0.931 . S
C792 C789 1.487 . S
C792 C799 1.399 . S
C792 N830 1.343 . S
C793 C794 1.384 . S
C793 C795 1.384 . S
C793 H818 0.931 . S
C794 C793 1.384 . S
C794 C797 1.382 . S
C795 C793 1.384 . S
C795 C796 1.381 . S
C795 H819 0.930 . S
C796 C795 1.381 . S
C796 C798 1.381 . S
C796 C799 1.487 . S
C797 C794 1.382 . S
C797 C798 1.387 . S
C797 H820 0.930 . S
C798 C796 1.381 . S
C798 C797 1.387 . S
C798 H821 0.931 . S
C799 C792 1.399 . S
C799 C796 1.487 . S
C799 N831 1.343 . S
C800 C801 1.384 . S
C800 C802 1.384 . S
C800 H822 0.931 . S
C801 C800 1.384 . S
C801 C804 1.382 . S
C802 C800 1.384 . S
C802 C803 1.381 . S
C802 H823 0.930 . S
C803 C802 1.381 . S
C803 C805 1.381 . S
C803 C806 1.487 . S
C804 C801 1.382 . S
C804 C805 1.387 . S
C804 H824 0.930 . S
C805 C803 1.381 . S
C805 C804 1.387 . S
C805 H825 0.931 . S
C806 C803 1.487 . S
C806 C813 1.399 . S
C806 N831 1.343 . S
C807 C808 1.384 . S
C807 C809 1.384 . S
C807 H826 0.931 . S
C808 C807 1.384 . S
C808 C811 1.382 . S
C809 C807 1.384 . S
C809 C810 1.381 . S
C809 H827 0.930 . S
C810 C809 1.381 . S
C810 C812 1.381 . S
C810 C813 1.487 . S
C811 C808 1.382 . S
C811 C812 1.387 . S
C811 H828 0.930 . S
C812 C810 1.381 . S
C812 C811 1.387 . S
C812 H829 0.931 . S
C813 C806 1.399 . S
C813 C810 1.487 . S
C813 N830 1.343 . S
H814 C786 0.931 . S
H815 C788 0.930 . S
H816 C790 0.930 . S
H817 C791 0.931 . S
H818 C793 0.931 . S
H819 C795 0.930 . S
H820 C797 0.930 . S
H821 C798 0.931 . S
H822 C800 0.931 . S
H823 C802 0.930 . S
H824 C804 0.930 . S
H825 C805 0.931 . S
H826 C807 0.931 . S
H827 C809 0.930 . S
H828 C811 0.930 . S
H829 C812 0.931 . S
N830 C792 1.343 . S
N830 C813 1.343 . S
N831 C799 1.343 . S
N831 C806 1.343 . S
C832 C833 1.384 . S
C832 C834 1.384 . S
C832 H860 0.931 . S
C833 C832 1.384 . S
C833 C836 1.382 . S
C834 C832 1.384 . S
C834 C835 1.381 . S
C834 H861 0.930 . S
C835 C834 1.381 . S
C835 C837 1.381 . S
C835 C838 1.487 . S
C836 C833 1.382 . S
C836 C837 1.387 . S
C836 H862 0.930 . S
C837 C835 1.381 . S
C837 C836 1.387 . S
C837 H863 0.931 . S
C838 C835 1.487 . S
C838 C845 1.399 . S
C838 N876 1.343 . S
C839 C840 1.384 . S
C839 C841 1.384 . S
C839 H864 0.931 . S
C840 C839 1.384 . S
C840 C843 1.382 . S
C841 C839 1.384 . S
C841 C842 1.381 . S
C841 H865 0.930 . S
C842 C841 1.381 . S
C842 C844 1.381 . S
C842 C845 1.487 . S
C843 C840 1.382 . S
C843 C844 1.387 . S
C843 H866 0.930 . S
C844 C842 1.381 . S
C844 C843 1.387 . S
C844 H867 0.931 . S
C845 C838 1.399 . S
C845 C842 1.487 . S
C845 N877 1.343 . S
C846 C847 1.384 . S
C846 C848 1.384 . S
C846 H868 0.931 . S
C847 C846 1.384 . S
C847 C850 1.382 . S
C848 C846 1.384 . S
C848 C849 1.381 . S
C848 H869 0.930 . S
C849 C848 1.381 . S
C849 C851 1.381 . S
C849 C852 1.487 . S
C850 C847 1.382 . S
C850 C851 1.387 . S
C850 H870 0.930 . S
C851 C849 1.381 . S
C851 C850 1.387 . S
C851 H871 0.931 . S
C852 C849 1.487 . S
C852 C859 1.399 . S
C852 N877 1.343 . S
C853 C854 1.384 . S
C853 C855 1.384 . S
C853 H872 0.931 . S
C854 C853 1.384 . S
C854 C857 1.382 . S
C855 C853 1.384 . S
C855 C856 1.381 . S
C855 H873 0.930 . S
C856 C855 1.381 . S
C856 C858 1.381 . S
C856 C859 1.487 . S
C857 C854 1.382 . S
C857 C858 1.387 . S
C857 H874 0.930 . S
C858 C856 1.381 . S
C858 C857 1.387 . S
C858 H875 0.931 . S
C859 C852 1.399 . S
C859 C856 1.487 . S
C859 N876 1.343 . S
H860 C832 0.931 . S
H861 C834 0.930 . S
H862 C836 0.930 . S
H863 C837 0.931 . S
H864 C839 0.931 . S
H865 C841 0.930 . S
H866 C843 0.930 . S
H867 C844 0.931 . S
H868 C846 0.931 . S
H869 C848 0.930 . S
H870 C850 0.930 . S
H871 C851 0.931 . S
H872 C853 0.931 . S
H873 C855 0.930 . S
H874 C857 0.930 . S
H875 C858 0.931 . S
N876 C838 1.343 . S
N876 C859 1.343 . S
N877 C845 1.343 . S
N877 C852 1.343 . S
C878 C879 1.384 . S
C878 C880 1.384 . S
C878 H906 0.931 . S
C879 C878 1.384 . S
C879 C882 1.382 . S
C880 C878 1.384 . S
C880 C881 1.381 . S
C880 H907 0.930 . S
C881 C880 1.381 . S
C881 C883 1.381 . S
C881 C884 1.487 . S
C882 C879 1.382 . S
C882 C883 1.387 . S
C882 H908 0.930 . S
C883 C881 1.381 . S
C883 C882 1.387 . S
C883 H909 0.931 . S
C884 C881 1.487 . S
C884 C891 1.399 . S
C884 N922 1.343 . S
C885 C886 1.384 . S
C885 C887 1.384 . S
C885 H910 0.931 . S
C886 C885 1.384 . S
C886 C889 1.382 . S
C887 C885 1.384 . S
C887 C888 1.381 . S
C887 H911 0.930 . S
C888 C887 1.381 . S
C888 C890 1.381 . S
C888 C891 1.487 . S
C889 C886 1.382 . S
C889 C890 1.387 . S
C889 H912 0.930 . S
C890 C888 1.381 . S
C890 C889 1.387 . S
C890 H913 0.931 . S
C891 C884 1.399 . S
C891 C888 1.487 . S
C891 N923 1.343 . S
C892 C893 1.384 . S
C892 C894 1.384 . S
C892 H914 0.931 . S
C893 C892 1.384 . S
C893 C896 1.382 . S
C894 C892 1.384 . S
C894 C895 1.381 . S
C894 H915 0.930 . S
C895 C894 1.381 . S
C895 C897 1.381 . S
C895 C898 1.487 . S
C896 C893 1.382 . S
C896 C897 1.387 . S
C896 H916 0.930 . S
C897 C895 1.381 . S
C897 C896 1.387 . S
C897 H917 0.931 . S
C898 C895 1.487 . S
C898 C905 1.399 . S
C898 N923 1.343 . S
C899 C900 1.384 . S
C899 C901 1.384 . S
C899 H918 0.931 . S
C900 C899 1.384 . S
C900 C903 1.382 . S
C901 C899 1.384 . S
C901 C902 1.381 . S
C901 H919 0.930 . S
C902 C901 1.381 . S
C902 C904 1.381 . S
C902 C905 1.487 . S
C903 C900 1.382 . S
C903 C904 1.387 . S
C903 H920 0.930 . S
C904 C902 1.381 . S
C904 C903 1.387 . S
C904 H921 0.931 . S
C905 C898 1.399 . S
C905 C902 1.487 . S
C905 N922 1.343 . S
H906 C878 0.931 . S
H907 C880 0.930 . S
H908 C882 0.930 . S
H909 C883 0.931 . S
H910 C885 0.931 . S
H911 C887 0.930 . S
H912 C889 0.930 . S
H913 C890 0.931 . S
H914 C892 0.931 . S
H915 C894 0.930 . S
H916 C896 0.930 . S
H917 C897 0.931 . S
H918 C899 0.931 . S
H919 C901 0.930 . S
H920 C903 0.930 . S
H921 C904 0.931 . S
N922 C884 1.343 . S
N922 C905 1.343 . S
N923 C891 1.343 . S
N923 C898 1.343 . S
C924 C925 1.384 . S
C924 C926 1.384 . S
C924 H952 0.931 . S
C925 C924 1.384 . S
C925 C928 1.382 . S
C926 C924 1.384 . S
C926 C927 1.381 . S
C926 H953 0.930 . S
C927 C926 1.381 . S
C927 C929 1.381 . S
C927 C930 1.487 . S
C928 C925 1.382 . S
C928 C929 1.387 . S
C928 H954 0.930 . S
C929 C927 1.381 . S
C929 C928 1.387 . S
C929 H955 0.931 . S
C930 C927 1.487 . S
C930 C937 1.399 . S
C930 N968 1.343 . S
C931 C932 1.384 . S
C931 C933 1.384 . S
C931 H956 0.931 . S
C932 C931 1.384 . S
C932 C935 1.382 . S
C933 C931 1.384 . S
C933 C934 1.381 . S
C933 H957 0.930 . S
C934 C933 1.381 . S
C934 C936 1.381 . S
C934 C937 1.487 . S
C935 C932 1.382 . S
C935 C936 1.387 . S
C935 H958 0.930 . S
C936 C934 1.381 . S
C936 C935 1.387 . S
C936 H959 0.931 . S
C937 C930 1.399 . S
C937 C934 1.487 . S
C937 N969 1.343 . S
C938 C939 1.384 . S
C938 C940 1.384 . S
C938 H960 0.931 . S
C939 C938 1.384 . S
C939 C942 1.382 . S
C940 C938 1.384 . S
C940 C941 1.381 . S
C940 H961 0.930 . S
C941 C940 1.381 . S
C941 C943 1.381 . S
C941 C944 1.487 . S
C942 C939 1.382 . S
C942 C943 1.387 . S
C942 H962 0.930 . S
C943 C941 1.381 . S
C943 C942 1.387 . S
C943 H963 0.931 . S
C944 C941 1.487 . S
C944 C951 1.399 . S
C944 N969 1.343 . S
C945 C946 1.384 . S
C945 C947 1.384 . S
C945 H964 0.931 . S
C946 C945 1.384 . S
C946 C949 1.382 . S
C947 C945 1.384 . S
C947 C948 1.381 . S
C947 H965 0.930 . S
C948 C947 1.381 . S
C948 C950 1.381 . S
C948 C951 1.487 . S
C949 C946 1.382 . S
C949 C950 1.387 . S
C949 H966 0.930 . S
C950 C948 1.381 . S
C950 C949 1.387 . S
C950 H967 0.931 . S
C951 C944 1.399 . S
C951 C948 1.487 . S
C951 N968 1.343 . S
H952 C924 0.931 . S
H953 C926 0.930 . S
H954 C928 0.930 . S
H955 C929 0.931 . S
H956 C931 0.931 . S
H957 C933 0.930 . S
H958 C935 0.930 . S
H959 C936 0.931 . S
H960 C938 0.931 . S
H961 C940 0.930 . S
H962 C942 0.930 . S
H963 C943 0.931 . S
H964 C945 0.931 . S
H965 C947 0.930 . S
H966 C949 0.930 . S
H967 C950 0.931 . S
N968 C930 1.343 . S
N968 C951 1.343 . S
N969 C937 1.343 . S
N969 C944 1.343 . S
C970 C971 1.384 . S
C970 C972 1.384 . S
C970 H998 0.931 . S
C971 C970 1.384 . S
C971 C974 1.382 . S
C972 C970 1.384 . S
C972 C973 1.381 . S
C972 H999 0.930 . S
C973 C972 1.381 . S
C973 C975 1.381 . S
C973 C976 1.487 . S
C974 C971 1.382 . S
C974 C975 1.387 . S
C974 H1000 0.930 . S
C975 C973 1.381 . S
C975 C974 1.387 . S
C975 H1001 0.931 . S
C976 C973 1.487 . S
C976 C983 1.399 . S
C976 N1014 1.343 . S
C977 C978 1.384 . S
C977 C979 1.384 . S
C977 H1002 0.931 . S
C978 C977 1.384 . S
C978 C981 1.382 . S
C979 C977 1.384 . S
C979 C980 1.381 . S
C979 H1003 0.930 . S
C980 C979 1.381 . S
C980 C982 1.381 . S
C980 C983 1.487 . S
C981 C978 1.382 . S
C981 C982 1.387 . S
C981 H1004 0.930 . S
C982 C980 1.381 . S
C982 C981 1.387 . S
C982 H1005 0.931 . S
C983 C976 1.399 . S
C983 C980 1.487 . S
C983 N1015 1.343 . S
C984 C985 1.384 . S
C984 C986 1.384 . S
C984 H1006 0.931 . S
C985 C984 1.384 . S
C985 C988 1.382 . S
C986 C984 1.384 . S
C986 C987 1.381 . S
C986 H1007 0.930 . S
C987 C986 1.381 . S
C987 C989 1.381 . S
C987 C990 1.487 . S
C988 C985 1.382 . S
C988 C989 1.387 . S
C988 H1008 0.930 . S
C989 C987 1.381 . S
C989 C988 1.387 . S
C989 H1009 0.931 . S
C990 C987 1.487 . S
C990 C997 1.399 . S
C990 N1015 1.343 . S
C991 C992 1.384 . S
C991 C993 1.384 . S
C991 H1010 0.931 . S
C992 C991 1.384 . S
C992 C995 1.382 . S
C993 C991 1.384 . S
C993 C994 1.381 . S
C993 H1011 0.930 . S
C994 C993 1.381 . S
C994 C996 1.381 . S
C994 C997 1.487 . S
C995 C992 1.382 . S
C995 C996 1.387 . S
C995 H1012 0.930 . S
C996 C994 1.381 . S
C996 C995 1.387 . S
C996 H1013 0.931 . S
C997 C990 1.399 . S
C997 C994 1.487 . S
C997 N1014 1.343 . S
H998 C970 0.931 . S
H999 C972 0.930 . S
H1000 C974 0.930 . S
H1001 C975 0.931 . S
H1002 C977 0.931 . S
H1003 C979 0.930 . S
H1004 C981 0.930 . S
H1005 C982 0.931 . S
H1006 C984 0.931 . S
H1007 C986 0.930 . S
H1008 C988 0.930 . S
H1009 C989 0.931 . S
H1010 C991 0.931 . S
H1011 C993 0.930 . S
H1012 C995 0.930 . S
H1013 C996 0.931 . S
N1014 C976 1.343 . S
N1014 C997 1.343 . S
N1015 C983 1.343 . S
N1015 C990 1.343 . S
C1016 C1017 1.384 . S
C1016 C1018 1.384 . S
C1016 H1044 0.931 . S
C1017 C1016 1.384 . S
C1017 C1020 1.382 . S
C1018 C1016 1.384 . S
C1018 C1019 1.381 . S
C1018 H1045 0.930 . S
C1019 C1018 1.381 . S
C1019 C1021 1.381 . S
C1019 C1022 1.487 . S
C1020 C1017 1.382 . S
C1020 C1021 1.387 . S
C1020 H1046 0.930 . S
C1021 C1019 1.381 . S
C1021 C1020 1.387 . S
C1021 H1047 0.931 . S
C1022 C1019 1.487 . S
C1022 C1029 1.399 . S
C1022 N1060 1.343 . S
C1023 C1024 1.384 . S
C1023 C1025 1.384 . S
C1023 H1048 0.931 . S
C1024 C1023 1.384 . S
C1024 C1027 1.382 . S
C1025 C1023 1.384 . S
C1025 C1026 1.381 . S
C1025 H1049 0.930 . S
C1026 C1025 1.381 . S
C1026 C1028 1.381 . S
C1026 C1029 1.487 . S
C1027 C1024 1.382 . S
C1027 C1028 1.387 . S
C1027 H1050 0.930 . S
C1028 C1026 1.381 . S
C1028 C1027 1.387 . S
C1028 H1051 0.931 . S
C1029 C1022 1.399 . S
C1029 C1026 1.487 . S
C1029 N1061 1.343 . S
C1030 C1031 1.384 . S
C1030 C1032 1.384 . S
C1030 H1052 0.931 . S
C1031 C1030 1.384 . S
C1031 C1034 1.382 . S
C1032 C1030 1.384 . S
C1032 C1033 1.381 . S
C1032 H1053 0.930 . S
C1033 C1032 1.381 . S
C1033 C1035 1.381 . S
C1033 C1036 1.487 . S
C1034 C1031 1.382 . S
C1034 C1035 1.387 . S
C1034 H1054 0.930 . S
C1035 C1033 1.381 . S
C1035 C1034 1.387 . S
C1035 H1055 0.931 . S
C1036 C1033 1.487 . S
C1036 C1043 1.399 . S
C1036 N1061 1.343 . S
C1037 C1038 1.384 . S
C1037 C1039 1.384 . S
C1037 H1056 0.931 . S
C1038 C1037 1.384 . S
C1038 C1041 1.382 . S
C1039 C1037 1.384 . S
C1039 C1040 1.381 . S
C1039 H1057 0.930 . S
C1040 C1039 1.381 . S
C1040 C1042 1.381 . S
C1040 C1043 1.487 . S
C1041 C1038 1.382 . S
C1041 C1042 1.387 . S
C1041 H1058 0.930 . S
C1042 C1040 1.381 . S
C1042 C1041 1.387 . S
C1042 H1059 0.931 . S
C1043 C1036 1.399 . S
C1043 C1040 1.487 . S
C1043 N1060 1.343 . S
H1044 C1016 0.931 . S
H1045 C1018 0.930 . S
H1046 C1020 0.930 . S
H1047 C1021 0.931 . S
H1048 C1023 0.931 . S
H1049 C1025 0.930 . S
H1050 C1027 0.930 . S
H1051 C1028 0.931 . S
H1052 C1030 0.931 . S
H1053 C1032 0.930 . S
H1054 C1034 0.930 . S
H1055 C1035 0.931 . S
H1056 C1037 0.931 . S
H1057 C1039 0.930 . S
H1058 C1041 0.930 . S
H1059 C1042 0.931 . S
N1060 C1022 1.343 . S
N1060 C1043 1.343 . S
N1061 C1029 1.343 . S
N1061 C1036 1.343 . S
C1062 C1063 1.384 . S
C1062 C1064 1.384 . S
C1062 H1090 0.931 . S
C1063 C1062 1.384 . S
C1063 C1066 1.382 1_655 S
C1064 C1062 1.384 . S
C1064 C1065 1.386 1_655 S
C1064 H1091 0.930 . S
C1065 C1064 1.386 1_455 S
C1065 C1067 1.379 . S
C1065 C1068 1.475 . S
C1066 C1063 1.382 1_455 S
C1066 C1067 1.387 . S
C1066 H1092 0.930 . S
C1067 C1065 1.379 . S
C1067 C1066 1.387 . S
C1067 H1093 0.931 . S
C1068 C1065 1.475 . S
C1068 C1075 1.398 1_455 S
C1068 N1106 1.355 . S
C1069 C1070 1.384 . S
C1069 C1071 1.384 . S
C1069 H1094 0.931 . S
C1070 C1069 1.384 . S
C1070 C1073 1.382 1_455 S
C1071 C1069 1.384 . S
C1071 C1072 1.383 . S
C1071 H1095 0.930 . S
C1072 C1071 1.383 . S
C1072 C1074 1.376 1_455 S
C1072 C1075 1.494 1_455 S
C1073 C1070 1.382 1_655 S
C1073 C1074 1.387 . S
C1073 H1096 0.930 . S
C1074 C1072 1.376 1_655 S
C1074 C1073 1.387 . S
C1074 H1097 0.931 . S
C1075 C1068 1.398 1_655 S
C1075 C1072 1.494 1_655 S
C1075 N1107 1.340 . S
C1076 C1077 1.384 . S
C1076 C1078 1.384 . S
C1076 H1098 0.931 . S
C1077 C1076 1.384 . S
C1077 C1080 1.382 1_455 S
C1078 C1076 1.384 . S
C1078 C1079 1.386 . S
C1078 H1099 0.930 . S
C1079 C1078 1.386 . S
C1079 C1081 1.379 1_455 S
C1079 C1082 1.480 1_455 S
C1080 C1077 1.382 1_655 S
C1080 C1081 1.387 . S
C1080 H1100 0.930 . S
C1081 C1079 1.379 1_655 S
C1081 C1080 1.387 . S
C1081 H1101 0.931 . S
C1082 C1079 1.480 1_655 S
C1082 C1089 1.398 1_655 S
C1082 N1107 1.348 . S
C1083 C1084 1.384 . S
C1083 C1085 1.384 . S
C1083 H1102 0.931 . S
C1084 C1083 1.384 . S
C1084 C1087 1.382 1_655 S
C1085 C1083 1.384 . S
C1085 C1086 1.380 . S
C1085 H1103 0.930 . S
C1086 C1085 1.380 . S
C1086 C1088 1.383 1_655 S
C1086 C1089 1.494 1_655 S
C1087 C1084 1.382 1_455 S
C1087 C1088 1.387 . S
C1087 H1104 0.930 . S
C1088 C1086 1.383 1_455 S
C1088 C1087 1.387 . S
C1088 H1105 0.931 . S
C1089 C1082 1.398 1_455 S
C1089 C1086 1.494 1_455 S
C1089 N1106 1.334 . S
H1090 C1062 0.931 . S
H1091 C1064 0.930 . S
H1092 C1066 0.930 . S
H1093 C1067 0.931 . S
H1094 C1069 0.931 . S
H1095 C1071 0.930 . S
H1096 C1073 0.930 . S
H1097 C1074 0.931 . S
H1098 C1076 0.931 . S
H1099 C1078 0.930 . S
H1100 C1080 0.930 . S
H1101 C1081 0.931 . S
H1102 C1083 0.931 . S
H1103 C1085 0.930 . S
H1104 C1087 0.930 . S
H1105 C1088 0.931 . S
N1106 C1068 1.355 . S
N1106 C1089 1.334 . S
N1107 C1075 1.340 . S
N1107 C1082 1.348 . S
C1108 C1109 1.384 . S
C1108 C1110 1.384 . S
C1108 H1136 0.931 . S
C1109 C1108 1.384 . S
C1109 C1112 1.382 . S
C1110 C1108 1.384 . S
C1110 C1111 1.381 . S
C1110 H1137 0.930 . S
C1111 C1110 1.381 . S
C1111 C1113 1.381 . S
C1111 C1114 1.487 . S
C1112 C1109 1.382 . S
C1112 C1113 1.387 . S
C1112 H1138 0.930 . S
C1113 C1111 1.381 . S
C1113 C1112 1.387 . S
C1113 H1139 0.931 . S
C1114 C1111 1.487 . S
C1114 C1121 1.399 . S
C1114 N1152 1.343 . S
C1115 C1116 1.384 . S
C1115 C1117 1.384 . S
C1115 H1140 0.931 . S
C1116 C1115 1.384 . S
C1116 C1119 1.382 . S
C1117 C1115 1.384 . S
C1117 C1118 1.381 . S
C1117 H1141 0.930 . S
C1118 C1117 1.381 . S
C1118 C1120 1.381 . S
C1118 C1121 1.487 . S
C1119 C1116 1.382 . S
C1119 C1120 1.387 . S
C1119 H1142 0.930 . S
C1120 C1118 1.381 . S
C1120 C1119 1.387 . S
C1120 H1143 0.931 . S
C1121 C1114 1.399 . S
C1121 C1118 1.487 . S
C1121 N1153 1.343 . S
C1122 C1123 1.384 . S
C1122 C1124 1.384 . S
C1122 H1144 0.931 . S
C1123 C1122 1.384 . S
C1123 C1126 1.382 . S
C1124 C1122 1.384 . S
C1124 C1125 1.381 . S
C1124 H1145 0.930 . S
C1125 C1124 1.381 . S
C1125 C1127 1.381 . S
C1125 C1128 1.487 . S
C1126 C1123 1.382 . S
C1126 C1127 1.387 . S
C1126 H1146 0.930 . S
C1127 C1125 1.381 . S
C1127 C1126 1.387 . S
C1127 H1147 0.931 . S
C1128 C1125 1.487 . S
C1128 C1135 1.399 . S
C1128 N1153 1.343 . S
C1129 C1130 1.384 . S
C1129 C1131 1.384 . S
C1129 H1148 0.931 . S
C1130 C1129 1.384 . S
C1130 C1133 1.382 . S
C1131 C1129 1.384 . S
C1131 C1132 1.381 . S
C1131 H1149 0.930 . S
C1132 C1131 1.381 . S
C1132 C1134 1.381 . S
C1132 C1135 1.487 . S
C1133 C1130 1.382 . S
C1133 C1134 1.387 . S
C1133 H1150 0.930 . S
C1134 C1132 1.381 . S
C1134 C1133 1.387 . S
C1134 H1151 0.931 . S
C1135 C1128 1.399 . S
C1135 C1132 1.487 . S
C1135 N1152 1.343 . S
H1136 C1108 0.931 . S
H1137 C1110 0.930 . S
H1138 C1112 0.930 . S
H1139 C1113 0.931 . S
H1140 C1115 0.931 . S
H1141 C1117 0.930 . S
H1142 C1119 0.930 . S
H1143 C1120 0.931 . S
H1144 C1122 0.931 . S
H1145 C1124 0.930 . S
H1146 C1126 0.930 . S
H1147 C1127 0.931 . S
H1148 C1129 0.931 . S
H1149 C1131 0.930 . S
H1150 C1133 0.930 . S
H1151 C1134 0.931 . S
N1152 C1114 1.343 . S
N1152 C1135 1.343 . S
N1153 C1121 1.343 . S
N1153 C1128 1.343 . S
C1154 C1155 1.384 1_545 S
C1154 C1156 1.384 . S
C1154 H1182 0.931 . S
C1155 C1154 1.384 1_565 S
C1155 C1158 1.382 . S
C1156 C1154 1.384 . S
C1156 C1157 1.381 1_545 S
C1156 H1183 0.930 . S
C1157 C1156 1.381 1_565 S
C1157 C1159 1.381 . S
C1157 C1160 1.487 . S
C1158 C1155 1.382 . S
C1158 C1159 1.387 . S
C1158 H1184 0.930 . S
C1159 C1157 1.381 . S
C1159 C1158 1.387 . S
C1159 H1185 0.931 . S
C1160 C1157 1.487 . S
C1160 C1167 1.399 1_565 S
C1160 N1198 1.343 . S
C1161 C1162 1.384 1_565 S
C1161 C1163 1.384 . S
C1161 H1186 0.931 . S
C1162 C1161 1.384 1_545 S
C1162 C1165 1.382 . S
C1163 C1161 1.384 . S
C1163 C1164 1.381 1_565 S
C1163 H1187 0.930 . S
C1164 C1163 1.381 1_545 S
C1164 C1166 1.381 . S
C1164 C1167 1.487 . S
C1165 C1162 1.382 . S
C1165 C1166 1.387 . S
C1165 H1188 0.930 . S
C1166 C1164 1.381 . S
C1166 C1165 1.387 . S
C1166 H1189 0.931 . S
C1167 C1160 1.399 1_545 S
C1167 C1164 1.487 . S
C1167 N1199 1.343 . S
C1168 C1169 1.384 1_565 S
C1168 C1170 1.384 . S
C1168 H1190 0.931 . S
C1169 C1168 1.384 1_545 S
C1169 C1172 1.382 . S
C1170 C1168 1.384 . S
C1170 C1171 1.381 1_565 S
C1170 H1191 0.930 . S
C1171 C1170 1.381 1_545 S
C1171 C1173 1.381 . S
C1171 C1174 1.487 . S
C1172 C1169 1.382 . S
C1172 C1173 1.387 . S
C1172 H1192 0.930 . S
C1173 C1171 1.381 . S
C1173 C1172 1.387 . S
C1173 H1193 0.931 . S
C1174 C1171 1.487 . S
C1174 C1181 1.399 1_545 S
C1174 N1199 1.343 . S
C1175 C1176 1.384 1_545 S
C1175 C1177 1.384 . S
C1175 H1194 0.931 . S
C1176 C1175 1.384 1_565 S
C1176 C1179 1.382 . S
C1177 C1175 1.384 . S
C1177 C1178 1.381 1_545 S
C1177 H1195 0.930 . S
C1178 C1177 1.381 1_565 S
C1178 C1180 1.381 . S
C1178 C1181 1.487 . S
C1179 C1176 1.382 . S
C1179 C1180 1.387 . S
C1179 H1196 0.930 . S
C1180 C1178 1.381 . S
C1180 C1179 1.387 . S
C1180 H1197 0.931 . S
C1181 C1174 1.399 1_565 S
C1181 C1178 1.487 . S
C1181 N1198 1.343 . S
H1182 C1154 0.931 . S
H1183 C1156 0.930 . S
H1184 C1158 0.930 . S
H1185 C1159 0.931 . S
H1186 C1161 0.931 . S
H1187 C1163 0.930 . S
H1188 C1165 0.930 . S
H1189 C1166 0.931 . S
H1190 C1168 0.931 . S
H1191 C1170 0.930 . S
H1192 C1172 0.930 . S
H1193 C1173 0.931 . S
H1194 C1175 0.931 . S
H1195 C1177 0.930 . S
H1196 C1179 0.930 . S
H1197 C1180 0.931 . S
N1198 C1160 1.343 . S
N1198 C1181 1.343 . S
N1199 C1167 1.343 . S
N1199 C1174 1.343 . S
C1200 C1201 1.384 . S
C1200 C1202 1.384 . S
C1200 H1228 0.931 . S
C1201 C1200 1.384 . S
C1201 C1204 1.382 1_545 S
C1202 C1200 1.384 . S
C1202 C1203 1.385 . S
C1202 H1229 0.930 . S
C1203 C1202 1.385 . S
C1203 C1205 1.372 1_545 S
C1203 C1206 1.496 1_545 S
C1204 C1201 1.382 1_565 S
C1204 C1205 1.387 . S
C1204 H1230 0.930 . S
C1205 C1203 1.372 1_565 S
C1205 C1204 1.387 . S
C1205 H1231 0.931 . S
C1206 C1203 1.496 1_565 S
C1206 C1213 1.399 1_565 S
C1206 N1244 1.364 . S
C1207 C1208 1.384 . S
C1207 C1209 1.384 . S
C1207 H1232 0.931 . S
C1208 C1207 1.384 . S
C1208 C1211 1.382 1_565 S
C1209 C1207 1.384 . S
C1209 C1210 1.389 . S
C1209 H1233 0.930 . S
C1210 C1209 1.389 . S
C1210 C1212 1.377 1_565 S
C1210 C1213 1.477 1_565 S
C1211 C1208 1.382 1_545 S
C1211 C1212 1.387 . S
C1211 H1234 0.930 . S
C1212 C1210 1.377 1_545 S
C1212 C1211 1.387 . S
C1212 H1235 0.931 . S
C1213 C1206 1.399 1_545 S
C1213 C1210 1.477 1_545 S
C1213 N1245 1.351 . S
C1214 C1215 1.384 . S
C1214 C1216 1.384 . S
C1214 H1236 0.931 . S
C1215 C1214 1.384 . S
C1215 C1218 1.382 1_565 S
C1216 C1214 1.384 . S
C1216 C1217 1.382 . S
C1216 H1237 0.930 . S
C1217 C1216 1.382 . S
C1217 C1219 1.379 1_565 S
C1217 C1220 1.496 1_565 S
C1218 C1215 1.382 1_545 S
C1218 C1219 1.387 . S
C1218 H1238 0.930 . S
C1219 C1217 1.379 1_545 S
C1219 C1218 1.387 . S
C1219 H1239 0.931 . S
C1220 C1217 1.496 1_545 S
C1220 C1227 1.399 1_545 S
C1220 N1245 1.336 . S
C1221 C1222 1.384 . S
C1221 C1223 1.384 . S
C1221 H1240 0.931 . S
C1222 C1221 1.384 . S
C1222 C1225 1.382 1_545 S
C1223 C1221 1.384 . S
C1223 C1224 1.401 . S
C1223 H1241 0.930 . S
C1224 C1223 1.401 . S
C1224 C1226 1.371 1_545 S
C1224 C1227 1.477 1_545 S
C1225 C1222 1.382 1_565 S
C1225 C1226 1.387 . S
C1225 H1242 0.930 . S
C1226 C1224 1.371 1_565 S
C1226 C1225 1.387 . S
C1226 H1243 0.931 . S
C1227 C1220 1.399 1_565 S
C1227 C1224 1.477 1_565 S
C1227 N1244 1.320 . S
H1228 C1200 0.931 . S
H1229 C1202 0.930 . S
H1230 C1204 0.930 . S
H1231 C1205 0.931 . S
H1232 C1207 0.931 . S
H1233 C1209 0.930 . S
H1234 C1211 0.930 . S
H1235 C1212 0.931 . S
H1236 C1214 0.931 . S
H1237 C1216 0.930 . S
H1238 C1218 0.930 . S
H1239 C1219 0.931 . S
H1240 C1221 0.931 . S
H1241 C1223 0.930 . S
H1242 C1225 0.930 . S
H1243 C1226 0.931 . S
N1244 C1206 1.364 . S
N1244 C1227 1.320 . S
N1245 C1213 1.351 . S
N1245 C1220 1.336 . S
C1246 C1247 1.384 . S
C1246 C1248 1.384 . S
C1246 H1274 0.931 . S
C1247 C1246 1.384 . S
C1247 C1250 1.382 1_655 S
C1248 C1246 1.384 . S
C1248 C1249 1.415 . S
C1248 H1275 0.930 . S
C1249 C1248 1.415 . S
C1249 C1251 1.364 1_655 S
C1249 C1252 1.473 1_655 S
C1250 C1247 1.382 1_455 S
C1250 C1251 1.387 . S
C1250 H1276 0.930 . S
C1251 C1249 1.364 1_455 S
C1251 C1250 1.387 . S
C1251 H1277 0.931 . S
C1252 C1249 1.473 1_455 S
C1252 C1259 1.399 1_455 S
C1252 N1290 1.324 . S
C1253 C1254 1.384 . S
C1253 C1255 1.384 . S
C1253 H1278 0.931 . S
C1254 C1253 1.384 . S
C1254 C1257 1.382 1_455 S
C1255 C1253 1.384 . S
C1255 C1256 1.387 . S
C1255 H1279 0.930 . S
C1256 C1255 1.387 . S
C1256 C1258 1.367 1_455 S
C1256 C1259 1.501 1_455 S
C1257 C1254 1.382 1_655 S
C1257 C1258 1.387 . S
C1257 H1280 0.930 . S
C1258 C1256 1.367 1_655 S
C1258 C1257 1.387 . S
C1258 H1281 0.931 . S
C1259 C1252 1.399 1_655 S
C1259 C1256 1.501 1_655 S
C1259 N1291 1.362 . S
C1260 C1261 1.384 . S
C1260 C1262 1.384 . S
C1260 H1282 0.931 . S
C1261 C1260 1.384 . S
C1261 C1264 1.382 1_455 S
C1262 C1260 1.384 . S
C1262 C1263 1.402 . S
C1262 H1283 0.930 . S
C1263 C1262 1.402 . S
C1263 C1265 1.370 1_455 S
C1263 C1266 1.473 1_455 S
C1264 C1261 1.382 1_655 S
C1264 C1265 1.387 . S
C1264 H1284 0.930 . S
C1265 C1263 1.370 1_655 S
C1265 C1264 1.387 . S
C1265 H1285 0.931 . S
C1266 C1263 1.473 1_655 S
C1266 C1273 1.399 1_655 S
C1266 N1291 1.324 . S
C1267 C1268 1.384 . S
C1267 C1269 1.384 . S
C1267 H1286 0.931 . S
C1268 C1267 1.384 . S
C1268 C1271 1.382 1_655 S
C1269 C1267 1.384 . S
C1269 C1270 1.390 . S
C1269 H1287 0.930 . S
C1270 C1269 1.390 . S
C1270 C1272 1.359 1_655 S
C1270 C1273 1.501 1_655 S
C1271 C1268 1.382 1_455 S
C1271 C1272 1.387 . S
C1271 H1288 0.930 . S
C1272 C1270 1.359 1_455 S
C1272 C1271 1.387 . S
C1272 H1289 0.931 . S
C1273 C1266 1.399 1_455 S
C1273 C1270 1.501 1_455 S
C1273 N1290 1.362 . S
H1274 C1246 0.931 . S
H1275 C1248 0.930 . S
H1276 C1250 0.930 . S
H1277 C1251 0.931 . S
H1278 C1253 0.931 . S
H1279 C1255 0.930 . S
H1280 C1257 0.930 . S
H1281 C1258 0.931 . S
H1282 C1260 0.931 . S
H1283 C1262 0.930 . S
H1284 C1264 0.930 . S
H1285 C1265 0.931 . S
H1286 C1267 0.931 . S
H1287 C1269 0.930 . S
H1288 C1271 0.930 . S
H1289 C1272 0.931 . S
N1290 C1252 1.324 . S
N1290 C1273 1.362 . S
N1291 C1259 1.362 . S
N1291 C1266 1.324 . S
C1292 C1293 1.384 . S
C1292 C1294 1.384 . S
C1292 H1320 0.931 . S
C1293 C1292 1.384 . S
C1293 C1296 1.382 . S
C1294 C1292 1.384 . S
C1294 C1295 1.381 . S
C1294 H1321 0.930 . S
C1295 C1294 1.381 . S
C1295 C1297 1.381 . S
C1295 C1298 1.487 . S
C1296 C1293 1.382 . S
C1296 C1297 1.387 . S
C1296 H1322 0.930 . S
C1297 C1295 1.381 . S
C1297 C1296 1.387 . S
C1297 H1323 0.931 . S
C1298 C1295 1.487 . S
C1298 C1305 1.399 . S
C1298 N1336 1.343 . S
C1299 C1300 1.384 . S
C1299 C1301 1.384 . S
C1299 H1324 0.931 . S
C1300 C1299 1.384 . S
C1300 C1303 1.382 . S
C1301 C1299 1.384 . S
C1301 C1302 1.381 . S
C1301 H1325 0.930 . S
C1302 C1301 1.381 . S
C1302 C1304 1.381 . S
C1302 C1305 1.487 . S
C1303 C1300 1.382 . S
C1303 C1304 1.387 . S
C1303 H1326 0.930 . S
C1304 C1302 1.381 . S
C1304 C1303 1.387 . S
C1304 H1327 0.931 . S
C1305 C1298 1.399 . S
C1305 C1302 1.487 . S
C1305 N1337 1.343 . S
C1306 C1307 1.384 . S
C1306 C1308 1.384 . S
C1306 H1328 0.931 . S
C1307 C1306 1.384 . S
C1307 C1310 1.382 . S
C1308 C1306 1.384 . S
C1308 C1309 1.381 . S
C1308 H1329 0.930 . S
C1309 C1308 1.381 . S
C1309 C1311 1.381 . S
C1309 C1312 1.487 . S
C1310 C1307 1.382 . S
C1310 C1311 1.387 . S
C1310 H1330 0.930 . S
C1311 C1309 1.381 . S
C1311 C1310 1.387 . S
C1311 H1331 0.931 . S
C1312 C1309 1.487 . S
C1312 C1319 1.399 . S
C1312 N1337 1.343 . S
C1313 C1314 1.384 . S
C1313 C1315 1.384 . S
C1313 H1332 0.931 . S
C1314 C1313 1.384 . S
C1314 C1317 1.382 . S
C1315 C1313 1.384 . S
C1315 C1316 1.381 . S
C1315 H1333 0.930 . S
C1316 C1315 1.381 . S
C1316 C1318 1.381 . S
C1316 C1319 1.487 . S
C1317 C1314 1.382 . S
C1317 C1318 1.387 . S
C1317 H1334 0.930 . S
C1318 C1316 1.381 . S
C1318 C1317 1.387 . S
C1318 H1335 0.931 . S
C1319 C1312 1.399 . S
C1319 C1316 1.487 . S
C1319 N1336 1.343 . S
H1320 C1292 0.931 . S
H1321 C1294 0.930 . S
H1322 C1296 0.930 . S
H1323 C1297 0.931 . S
H1324 C1299 0.931 . S
H1325 C1301 0.930 . S
H1326 C1303 0.930 . S
H1327 C1304 0.931 . S
H1328 C1306 0.931 . S
H1329 C1308 0.930 . S
H1330 C1310 0.930 . S
H1331 C1311 0.931 . S
H1332 C1313 0.931 . S
H1333 C1315 0.930 . S
H1334 C1317 0.930 . S
H1335 C1318 0.931 . S
N1336 C1298 1.343 . S
N1336 C1319 1.343 . S
N1337 C1305 1.343 . S
N1337 C1312 1.343 . S
C1338 C1339 1.384 . S
C1338 C1340 1.384 . S
C1338 H1366 0.931 . S
C1339 C1338 1.384 . S
C1339 C1342 1.382 . S
C1340 C1338 1.384 . S
C1340 C1341 1.381 . S
C1340 H1367 0.930 . S
C1341 C1340 1.381 . S
C1341 C1343 1.381 . S
C1341 C1344 1.487 . S
C1342 C1339 1.382 . S
C1342 C1343 1.387 . S
C1342 H1368 0.930 . S
C1343 C1341 1.381 . S
C1343 C1342 1.387 . S
C1343 H1369 0.931 . S
C1344 C1341 1.487 . S
C1344 C1351 1.399 . S
C1344 N1382 1.343 . S
C1345 C1346 1.384 . S
C1345 C1347 1.384 . S
C1345 H1370 0.931 . S
C1346 C1345 1.384 . S
C1346 C1349 1.382 . S
C1347 C1345 1.384 . S
C1347 C1348 1.381 . S
C1347 H1371 0.930 . S
C1348 C1347 1.381 . S
C1348 C1350 1.381 . S
C1348 C1351 1.487 . S
C1349 C1346 1.382 . S
C1349 C1350 1.387 . S
C1349 H1372 0.930 . S
C1350 C1348 1.381 . S
C1350 C1349 1.387 . S
C1350 H1373 0.931 . S
C1351 C1344 1.399 . S
C1351 C1348 1.487 . S
C1351 N1383 1.343 . S
C1352 C1353 1.384 . S
C1352 C1354 1.384 . S
C1352 H1374 0.931 . S
C1353 C1352 1.384 . S
C1353 C1356 1.382 . S
C1354 C1352 1.384 . S
C1354 C1355 1.381 . S
C1354 H1375 0.930 . S
C1355 C1354 1.381 . S
C1355 C1357 1.381 . S
C1355 C1358 1.487 . S
C1356 C1353 1.382 . S
C1356 C1357 1.387 . S
C1356 H1376 0.930 . S
C1357 C1355 1.381 . S
C1357 C1356 1.387 . S
C1357 H1377 0.931 . S
C1358 C1355 1.487 . S
C1358 C1365 1.399 . S
C1358 N1383 1.343 . S
C1359 C1360 1.384 . S
C1359 C1361 1.384 . S
C1359 H1378 0.931 . S
C1360 C1359 1.384 . S
C1360 C1363 1.382 . S
C1361 C1359 1.384 . S
C1361 C1362 1.381 . S
C1361 H1379 0.930 . S
C1362 C1361 1.381 . S
C1362 C1364 1.381 . S
C1362 C1365 1.487 . S
C1363 C1360 1.382 . S
C1363 C1364 1.387 . S
C1363 H1380 0.930 . S
C1364 C1362 1.381 . S
C1364 C1363 1.387 . S
C1364 H1381 0.931 . S
C1365 C1358 1.399 . S
C1365 C1362 1.487 . S
C1365 N1382 1.343 . S
H1366 C1338 0.931 . S
H1367 C1340 0.930 . S
H1368 C1342 0.930 . S
H1369 C1343 0.931 . S
H1370 C1345 0.931 . S
H1371 C1347 0.930 . S
H1372 C1349 0.930 . S
H1373 C1350 0.931 . S
H1374 C1352 0.931 . S
H1375 C1354 0.930 . S
H1376 C1356 0.930 . S
H1377 C1357 0.931 . S
H1378 C1359 0.931 . S
H1379 C1361 0.930 . S
H1380 C1363 0.930 . S
H1381 C1364 0.931 . S
N1382 C1344 1.343 . S
N1382 C1365 1.343 . S
N1383 C1351 1.343 . S
N1383 C1358 1.343 . S
C1384 C1385 1.384 . S
C1384 C1386 1.384 . S
C1384 H1412 0.931 . S
C1385 C1384 1.384 . S
C1385 C1388 1.382 . S
C1386 C1384 1.384 . S
C1386 C1387 1.381 . S
C1386 H1413 0.930 . S
C1387 C1386 1.381 . S
C1387 C1389 1.381 . S
C1387 C1390 1.487 . S
C1388 C1385 1.382 . S
C1388 C1389 1.387 . S
C1388 H1414 0.930 . S
C1389 C1387 1.381 . S
C1389 C1388 1.387 . S
C1389 H1415 0.931 . S
C1390 C1387 1.487 . S
C1390 C1397 1.399 . S
C1390 N1428 1.343 . S
C1391 C1392 1.384 . S
C1391 C1393 1.384 . S
C1391 H1416 0.931 . S
C1392 C1391 1.384 . S
C1392 C1395 1.382 . S
C1393 C1391 1.384 . S
C1393 C1394 1.381 . S
C1393 H1417 0.930 . S
C1394 C1393 1.381 . S
C1394 C1396 1.381 . S
C1394 C1397 1.487 . S
C1395 C1392 1.382 . S
C1395 C1396 1.387 . S
C1395 H1418 0.930 . S
C1396 C1394 1.381 . S
C1396 C1395 1.387 . S
C1396 H1419 0.931 . S
C1397 C1390 1.399 . S
C1397 C1394 1.487 . S
C1397 N1429 1.343 . S
C1398 C1399 1.384 . S
C1398 C1400 1.384 . S
C1398 H1420 0.931 . S
C1399 C1398 1.384 . S
C1399 C1402 1.382 . S
C1400 C1398 1.384 . S
C1400 C1401 1.381 . S
C1400 H1421 0.930 . S
C1401 C1400 1.381 . S
C1401 C1403 1.381 . S
C1401 C1404 1.487 . S
C1402 C1399 1.382 . S
C1402 C1403 1.387 . S
C1402 H1422 0.930 . S
C1403 C1401 1.381 . S
C1403 C1402 1.387 . S
C1403 H1423 0.931 . S
C1404 C1401 1.487 . S
C1404 C1411 1.399 . S
C1404 N1429 1.343 . S
C1405 C1406 1.384 . S
C1405 C1407 1.384 . S
C1405 H1424 0.931 . S
C1406 C1405 1.384 . S
C1406 C1409 1.382 . S
C1407 C1405 1.384 . S
C1407 C1408 1.381 . S
C1407 H1425 0.930 . S
C1408 C1407 1.381 . S
C1408 C1410 1.381 . S
C1408 C1411 1.487 . S
C1409 C1406 1.382 . S
C1409 C1410 1.387 . S
C1409 H1426 0.930 . S
C1410 C1408 1.381 . S
C1410 C1409 1.387 . S
C1410 H1427 0.931 . S
C1411 C1404 1.399 . S
C1411 C1408 1.487 . S
C1411 N1428 1.343 . S
H1412 C1384 0.931 . S
H1413 C1386 0.930 . S
H1414 C1388 0.930 . S
H1415 C1389 0.931 . S
H1416 C1391 0.931 . S
H1417 C1393 0.930 . S
H1418 C1395 0.930 . S
H1419 C1396 0.931 . S
H1420 C1398 0.931 . S
H1421 C1400 0.930 . S
H1422 C1402 0.930 . S
H1423 C1403 0.931 . S
H1424 C1405 0.931 . S
H1425 C1407 0.930 . S
H1426 C1409 0.930 . S
H1427 C1410 0.931 . S
N1428 C1390 1.343 . S
N1428 C1411 1.343 . S
N1429 C1397 1.343 . S
N1429 C1404 1.343 . S
C1430 C1431 1.384 . S
C1430 C1432 1.384 . S
C1430 H1458 0.931 . S
C1431 C1430 1.384 . S
C1431 C1434 1.382 . S
C1432 C1430 1.384 . S
C1432 C1433 1.381 . S
C1432 H1459 0.930 . S
C1433 C1432 1.381 . S
C1433 C1435 1.381 . S
C1433 C1436 1.487 . S
C1434 C1431 1.382 . S
C1434 C1435 1.387 . S
C1434 H1460 0.930 . S
C1435 C1433 1.381 . S
C1435 C1434 1.387 . S
C1435 H1461 0.931 . S
C1436 C1433 1.487 . S
C1436 C1443 1.399 . S
C1436 N1474 1.343 . S
C1437 C1438 1.384 . S
C1437 C1439 1.384 . S
C1437 H1462 0.931 . S
C1438 C1437 1.384 . S
C1438 C1441 1.382 . S
C1439 C1437 1.384 . S
C1439 C1440 1.381 . S
C1439 H1463 0.930 . S
C1440 C1439 1.381 . S
C1440 C1442 1.381 . S
C1440 C1443 1.487 . S
C1441 C1438 1.382 . S
C1441 C1442 1.387 . S
C1441 H1464 0.930 . S
C1442 C1440 1.381 . S
C1442 C1441 1.387 . S
C1442 H1465 0.931 . S
C1443 C1436 1.399 . S
C1443 C1440 1.487 . S
C1443 N1475 1.343 . S
C1444 C1445 1.384 . S
C1444 C1446 1.384 . S
C1444 H1466 0.931 . S
C1445 C1444 1.384 . S
C1445 C1448 1.382 . S
C1446 C1444 1.384 . S
C1446 C1447 1.381 . S
C1446 H1467 0.930 . S
C1447 C1446 1.381 . S
C1447 C1449 1.381 . S
C1447 C1450 1.487 . S
C1448 C1445 1.382 . S
C1448 C1449 1.387 . S
C1448 H1468 0.930 . S
C1449 C1447 1.381 . S
C1449 C1448 1.387 . S
C1449 H1469 0.931 . S
C1450 C1447 1.487 . S
C1450 C1457 1.399 . S
C1450 N1475 1.343 . S
C1451 C1452 1.384 . S
C1451 C1453 1.384 . S
C1451 H1470 0.931 . S
C1452 C1451 1.384 . S
C1452 C1455 1.382 . S
C1453 C1451 1.384 . S
C1453 C1454 1.381 . S
C1453 H1471 0.930 . S
C1454 C1453 1.381 . S
C1454 C1456 1.381 . S
C1454 C1457 1.487 . S
C1455 C1452 1.382 . S
C1455 C1456 1.387 . S
C1455 H1472 0.930 . S
C1456 C1454 1.381 . S
C1456 C1455 1.387 . S
C1456 H1473 0.931 . S
C1457 C1450 1.399 . S
C1457 C1454 1.487 . S
C1457 N1474 1.343 . S
H1458 C1430 0.931 . S
H1459 C1432 0.930 . S
H1460 C1434 0.930 . S
H1461 C1435 0.931 . S
H1462 C1437 0.931 . S
H1463 C1439 0.930 . S
H1464 C1441 0.930 . S
H1465 C1442 0.931 . S
H1466 C1444 0.931 . S
H1467 C1446 0.930 . S
H1468 C1448 0.930 . S
H1469 C1449 0.931 . S
H1470 C1451 0.931 . S
H1471 C1453 0.930 . S
H1472 C1455 0.930 . S
H1473 C1456 0.931 . S
N1474 C1436 1.343 . S
N1474 C1457 1.343 . S
N1475 C1443 1.343 . S
N1475 C1450 1.343 . S
C1476 C1477 1.369 . S
C1476 C1478 1.419 . S
C1476 H1480 0.930 . S
C1477 C1476 1.369 . S
C1477 C1486 1.429 1_655 S
C1478 C1476 1.419 . S
C1478 C1479 1.363 . S
C1478 H1481 0.929 . S
C1479 C1478 1.363 . S
C1479 C1485 1.428 1_655 S
H1480 C1476 0.930 . S
H1481 C1478 0.929 . S
S1482 N1483 1.613 . S
S1482 N1484 1.610 . S
N1483 S1482 1.613 . S
N1483 C1486 1.350 . S
N1484 S1482 1.610 . S
N1484 C1485 1.351 . S
C1485 C1479 1.428 1_455 S
C1485 N1484 1.351 . S
C1485 C1486 1.434 . S
C1486 C1477 1.429 1_455 S
C1486 N1483 1.350 . S
C1486 C1485 1.434 . S
C1487 C1488 1.369 . S
C1487 C1489 1.419 . S
C1487 H1491 0.930 . S
C1488 C1487 1.369 . S
C1488 C1497 1.429 . S
C1489 C1487 1.419 . S
C1489 C1490 1.363 . S
C1489 H1492 0.929 . S
C1490 C1489 1.363 . S
C1490 C1496 1.428 . S
H1491 C1487 0.930 . S
H1492 C1489 0.929 . S
S1493 N1494 1.613 . S
S1493 N1495 1.610 . S
N1494 S1493 1.613 . S
N1494 C1497 1.350 . S
N1495 S1493 1.610 . S
N1495 C1496 1.351 . S
C1496 C1490 1.428 . S
C1496 N1495 1.351 . S
C1496 C1497 1.434 . S
C1497 C1488 1.429 . S
C1497 N1494 1.350 . S
C1497 C1496 1.434 . S
C1498 C1499 1.369 . S
C1498 C1500 1.419 . S
C1498 H1502 0.930 . S
C1499 C1498 1.369 . S
C1499 C1508 1.429 . S
C1500 C1498 1.419 . S
C1500 C1501 1.363 . S
C1500 H1503 0.929 . S
C1501 C1500 1.363 . S
C1501 C1507 1.428 . S
H1502 C1498 0.930 . S
H1503 C1500 0.929 . S
S1504 N1505 1.613 . S
S1504 N1506 1.610 . S
N1505 S1504 1.613 . S
N1505 C1508 1.350 . S
N1506 S1504 1.610 . S
N1506 C1507 1.351 . S
C1507 C1501 1.428 . S
C1507 N1506 1.351 . S
C1507 C1508 1.434 . S
C1508 C1499 1.429 . S
C1508 N1505 1.350 . S
C1508 C1507 1.434 . S
C1509 C1510 1.369 1_545 S
C1509 C1511 1.419 . S
C1509 H1513 0.930 . S
C1510 C1509 1.369 1_565 S
C1510 C1519 1.429 . S
C1511 C1509 1.419 . S
C1511 C1512 1.363 1_545 S
C1511 H1514 0.929 . S
C1512 C1511 1.363 1_565 S
C1512 C1518 1.428 . S
H1513 C1509 0.930 . S
H1514 C1511 0.929 . S
S1515 N1516 1.613 . S
S1515 N1517 1.610 . S
N1516 S1515 1.613 . S
N1516 C1519 1.350 . S
N1517 S1515 1.610 . S
N1517 C1518 1.351 . S
C1518 C1512 1.428 . S
C1518 N1517 1.351 . S
C1518 C1519 1.434 . S
C1519 C1510 1.429 . S
C1519 N1516 1.350 . S
C1519 C1518 1.434 . S
C1520 C1521 1.369 . S
C1520 C1522 1.419 . S
C1520 H1524 0.930 . S
C1521 C1520 1.369 . S
C1521 C1530 1.429 1_455 S
C1522 C1520 1.419 . S
C1522 C1523 1.363 . S
C1522 H1525 0.929 . S
C1523 C1522 1.363 . S
C1523 C1529 1.428 1_455 S
H1524 C1520 0.930 . S
H1525 C1522 0.929 . S
S1526 N1527 1.613 . S
S1526 N1528 1.610 . S
N1527 S1526 1.613 . S
N1527 C1530 1.350 . S
N1528 S1526 1.610 . S
N1528 C1529 1.351 . S
C1529 C1523 1.428 1_655 S
C1529 N1528 1.351 . S
C1529 C1530 1.434 . S
C1530 C1521 1.429 1_655 S
C1530 N1527 1.350 . S
C1530 C1529 1.434 . S
C1531 C1532 1.369 . S
C1531 C1533 1.419 . S
C1531 H1535 0.930 . S
C1532 C1531 1.369 . S
C1532 C1541 1.429 . S
C1533 C1531 1.419 . S
C1533 C1534 1.363 . S
C1533 H1536 0.929 . S
C1534 C1533 1.363 . S
C1534 C1540 1.428 . S
H1535 C1531 0.930 . S
H1536 C1533 0.929 . S
S1537 N1538 1.613 . S
S1537 N1539 1.610 . S
N1538 S1537 1.613 . S
N1538 C1541 1.350 . S
N1539 S1537 1.610 . S
N1539 C1540 1.351 . S
C1540 C1534 1.428 . S
C1540 N1539 1.351 . S
C1540 C1541 1.434 . S
C1541 C1532 1.429 . S
C1541 N1538 1.350 . S
C1541 C1540 1.434 . S
C1542 C1543 1.369 1_655 S
C1542 C1544 1.419 . S
C1542 H1546 0.930 . S
C1543 C1542 1.369 1_455 S
C1543 C1552 1.429 . S
C1544 C1542 1.419 . S
C1544 C1545 1.363 1_655 S
C1544 H1547 0.929 . S
C1545 C1544 1.363 1_455 S
C1545 C1551 1.428 . S
H1546 C1542 0.930 . S
H1547 C1544 0.929 . S
S1548 N1549 1.613 . S
S1548 N1550 1.610 . S
N1549 S1548 1.613 . S
N1549 C1552 1.350 . S
N1550 S1548 1.610 . S
N1550 C1551 1.351 . S
C1551 C1545 1.428 . S
C1551 N1550 1.351 . S
C1551 C1552 1.434 . S
C1552 C1543 1.429 . S
C1552 N1549 1.350 . S
C1552 C1551 1.434 . S
C1553 C1554 1.369 . S
C1553 C1555 1.419 . S
C1553 H1557 0.930 . S
C1554 C1553 1.369 . S
C1554 C1563 1.429 . S
C1555 C1553 1.419 . S
C1555 C1556 1.363 . S
C1555 H1558 0.929 . S
C1556 C1555 1.363 . S
C1556 C1562 1.428 . S
H1557 C1553 0.930 . S
H1558 C1555 0.929 . S
S1559 N1560 1.613 . S
S1559 N1561 1.610 . S
N1560 S1559 1.613 . S
N1560 C1563 1.350 . S
N1561 S1559 1.610 . S
N1561 C1562 1.351 . S
C1562 C1556 1.428 . S
C1562 N1561 1.351 . S
C1562 C1563 1.434 . S
C1563 C1554 1.429 . S
C1563 N1560 1.350 . S
C1563 C1562 1.434 . S
C1564 C1565 1.369 . S
C1564 C1566 1.419 . S
C1564 H1568 0.932 . S
C1565 C1564 1.369 . S
C1565 C1574 1.429 . S
C1566 C1564 1.419 . S
C1566 C1567 1.363 . S
C1566 H1569 0.929 1_565 S
C1567 C1566 1.363 . S
C1567 C1573 1.428 . S
H1568 C1564 0.932 . S
H1569 C1566 0.929 1_545 S
S1570 N1571 1.613 . S
S1570 N1572 1.610 . S
N1571 S1570 1.613 . S
N1571 C1574 1.350 . S
N1572 S1570 1.610 . S
N1572 C1573 1.351 . S
C1573 C1567 1.428 . S
C1573 N1572 1.351 . S
C1573 C1574 1.434 . S
C1574 C1565 1.429 . S
C1574 N1571 1.350 . S
C1574 C1573 1.434 . S
C1575 C1576 1.369 1_565 S
C1575 C1577 1.419 . S
C1575 H1579 0.930 . S
C1576 C1575 1.369 1_545 S
C1576 C1585 1.429 . S
C1577 C1575 1.419 . S
C1577 C1578 1.363 1_565 S
C1577 H1580 0.929 . S
C1578 C1577 1.363 1_545 S
C1578 C1584 1.428 . S
H1579 C1575 0.930 . S
H1580 C1577 0.929 . S
S1581 N1582 1.613 . S
S1581 N1583 1.610 . S
N1582 S1581 1.613 . S
N1582 C1585 1.350 . S
N1583 S1581 1.610 . S
N1583 C1584 1.351 . S
C1584 C1578 1.428 . S
C1584 N1583 1.351 . S
C1584 C1585 1.434 . S
C1585 C1576 1.429 . S
C1585 N1582 1.350 . S
C1585 C1584 1.434 . S
C1586 C1587 1.369 . S
C1586 C1588 1.419 . S
C1586 H1590 0.930 . S
C1587 C1586 1.369 . S
C1587 C1596 1.415 1_655 S
C1588 C1586 1.419 . S
C1588 C1589 1.363 . S
C1588 H1591 0.929 . S
C1589 C1588 1.363 . S
C1589 C1595 1.428 1_655 S
H1590 C1586 0.930 . S
H1591 C1588 0.929 . S
S1592 N1593 1.613 . S
S1592 N1594 1.610 . S
N1593 S1592 1.613 . S
N1593 C1596 1.357 . S
N1594 S1592 1.610 . S
N1594 C1595 1.351 . S
C1595 C1589 1.428 1_455 S
C1595 N1594 1.351 . S
C1595 C1596 1.442 . S
C1596 C1587 1.415 1_455 S
C1596 N1593 1.357 . S
C1596 C1595 1.442 . S
C1597 C1598 1.369 . S
C1597 C1599 1.419 . S
C1597 H1601 0.930 . S
C1598 C1597 1.369 . S
C1598 C1607 1.429 . S
C1599 C1597 1.419 . S
C1599 C1600 1.363 . S
C1599 H1602 0.929 . S
C1600 C1599 1.363 . S
C1600 C1606 1.428 . S
H1601 C1597 0.930 . S
H1602 C1599 0.929 . S
S1603 N1604 1.613 . S
S1603 N1605 1.610 . S
N1604 S1603 1.613 . S
N1604 C1607 1.350 . S
N1605 S1603 1.610 . S
N1605 C1606 1.351 . S
C1606 C1600 1.428 . S
C1606 N1605 1.351 . S
C1606 C1607 1.434 . S
C1607 C1598 1.429 . S
C1607 N1604 1.350 . S
C1607 C1606 1.434 . S
C1608 C1609 1.369 . S
C1608 C1610 1.419 . S
C1608 H1612 0.930 . S
C1609 C1608 1.369 . S
C1609 C1618 1.429 . S
C1610 C1608 1.419 . S
C1610 C1611 1.363 . S
C1610 H1613 0.929 . S
C1611 C1610 1.363 . S
C1611 C1617 1.428 . S
H1612 C1608 0.930 . S
H1613 C1610 0.929 . S
S1614 N1615 1.613 . S
S1614 N1616 1.610 . S
N1615 S1614 1.613 . S
N1615 C1618 1.350 . S
N1616 S1614 1.610 . S
N1616 C1617 1.351 . S
C1617 C1611 1.428 . S
C1617 N1616 1.351 . S
C1617 C1618 1.434 . S
C1618 C1609 1.429 . S
C1618 N1615 1.350 . S
C1618 C1617 1.434 . S
C1619 C1620 1.369 . S
C1619 C1621 1.419 . S
C1619 H1623 0.930 . S
C1620 C1619 1.369 . S
C1620 C1629 1.429 . S
C1621 C1619 1.419 . S
C1621 C1622 1.363 . S
C1621 H1624 0.929 . S
C1622 C1621 1.363 . S
C1622 C1628 1.428 . S
H1623 C1619 0.930 . S
H1624 C1621 0.929 . S
S1625 N1626 1.613 . S
S1625 N1627 1.610 . S
N1626 S1625 1.613 . S
N1626 C1629 1.350 . S
N1627 S1625 1.610 . S
N1627 C1628 1.351 . S
C1628 C1622 1.428 . S
C1628 N1627 1.351 . S
C1628 C1629 1.434 . S
C1629 C1620 1.429 . S
C1629 N1626 1.350 . S
C1629 C1628 1.434 . S
C1630 C1631 1.369 . S
C1630 C1632 1.419 . S
C1630 H1634 0.930 . S
C1631 C1630 1.369 . S
C1631 C1640 1.429 . S
C1632 C1630 1.419 . S
C1632 C1633 1.363 . S
C1632 H1635 0.929 . S
C1633 C1632 1.363 . S
C1633 C1639 1.428 . S
H1634 C1630 0.930 . S
H1635 C1632 0.929 . S
S1636 N1637 1.613 . S
S1636 N1638 1.610 . S
N1637 S1636 1.613 . S
N1637 C1640 1.350 . S
N1638 S1636 1.610 . S
N1638 C1639 1.351 . S
C1639 C1633 1.428 . S
C1639 N1638 1.351 . S
C1639 C1640 1.434 . S
C1640 C1631 1.429 . S
C1640 N1637 1.350 . S
C1640 C1639 1.434 . S
C1641 C1642 1.369 . S
C1641 C1643 1.419 . S
C1641 H1645 0.930 . S
C1642 C1641 1.369 . S
C1642 C1651 1.429 . S
C1643 C1641 1.419 . S
C1643 C1644 1.363 . S
C1643 H1646 0.929 . S
C1644 C1643 1.363 . S
C1644 C1650 1.428 . S
H1645 C1641 0.930 . S
H1646 C1643 0.929 . S
S1647 N1648 1.613 . S
S1647 N1649 1.610 . S
N1648 S1647 1.613 . S
N1648 C1651 1.350 . S
N1649 S1647 1.610 . S
N1649 C1650 1.351 . S
C1650 C1644 1.428 . S
C1650 N1649 1.351 . S
C1650 C1651 1.434 . S
C1651 C1642 1.429 . S
C1651 N1648 1.350 . S
C1651 C1650 1.434 . S
C1652 C1653 1.369 . S
C1652 C1654 1.419 . S
C1652 H1656 0.930 . S
C1653 C1652 1.369 . S
C1653 C1662 1.429 . S
C1654 C1652 1.419 . S
C1654 C1655 1.363 . S
C1654 H1657 0.929 . S
C1655 C1654 1.363 . S
C1655 C1661 1.428 . S
H1656 C1652 0.930 . S
H1657 C1654 0.929 . S
S1658 N1659 1.613 . S
S1658 N1660 1.610 . S
N1659 S1658 1.613 . S
N1659 C1662 1.350 . S
N1660 S1658 1.610 . S
N1660 C1661 1.351 . S
C1661 C1655 1.428 . S
C1661 N1660 1.351 . S
C1661 C1662 1.434 . S
C1662 C1653 1.429 . S
C1662 N1659 1.350 . S
C1662 C1661 1.434 . S
C1663 C1664 1.369 . S
C1663 C1665 1.419 . S
C1663 H1667 0.930 . S
C1664 C1663 1.369 . S
C1664 C1673 1.429 . S
C1665 C1663 1.419 . S
C1665 C1666 1.363 . S
C1665 H1668 0.929 . S
C1666 C1665 1.363 . S
C1666 C1672 1.428 . S
H1667 C1663 0.930 . S
H1668 C1665 0.929 . S
S1669 N1670 1.613 . S
S1669 N1671 1.610 . S
N1670 S1669 1.613 . S
N1670 C1673 1.350 . S
N1671 S1669 1.610 . S
N1671 C1672 1.351 . S
C1672 C1666 1.428 . S
C1672 N1671 1.351 . S
C1672 C1673 1.434 . S
C1673 C1664 1.429 . S
C1673 N1670 1.350 . S
C1673 C1672 1.434 . S
C1674 C1675 1.369 . S
C1674 C1676 1.419 . S
C1674 H1678 0.930 . S
C1675 C1674 1.369 . S
C1675 C1684 1.429 . S
C1676 C1674 1.419 . S
C1676 C1677 1.363 . S
C1676 H1679 0.929 . S
C1677 C1676 1.363 . S
C1677 C1683 1.428 . S
H1678 C1674 0.930 . S
H1679 C1676 0.929 . S
S1680 N1681 1.613 . S
S1680 N1682 1.610 . S
N1681 S1680 1.613 . S
N1681 C1684 1.350 . S
N1682 S1680 1.610 . S
N1682 C1683 1.351 . S
C1683 C1677 1.428 . S
C1683 N1682 1.351 . S
C1683 C1684 1.434 . S
C1684 C1675 1.429 . S
C1684 N1681 1.350 . S
C1684 C1683 1.434 . S
C1685 C1686 1.369 . S
C1685 C1687 1.419 . S
C1685 H1689 0.930 . S
C1686 C1685 1.369 . S
C1686 C1695 1.429 . S
C1687 C1685 1.419 . S
C1687 C1688 1.363 . S
C1687 H1690 0.929 . S
C1688 C1687 1.363 . S
C1688 C1694 1.428 . S
H1689 C1685 0.930 . S
H1690 C1687 0.929 . S
S1691 N1692 1.613 . S
S1691 N1693 1.610 . S
N1692 S1691 1.613 . S
N1692 C1695 1.350 . S
N1693 S1691 1.610 . S
N1693 C1694 1.351 . S
C1694 C1688 1.428 . S
C1694 N1693 1.351 . S
C1694 C1695 1.434 . S
C1695 C1686 1.429 . S
C1695 N1692 1.350 . S
C1695 C1694 1.434 . S
C1696 C1697 1.369 . S
C1696 C1698 1.419 . S
C1696 H1700 0.930 . S
C1697 C1696 1.369 . S
C1697 C1706 1.429 . S
C1698 C1696 1.419 . S
C1698 C1699 1.363 . S
C1698 H1701 0.929 . S
C1699 C1698 1.363 . S
C1699 C1705 1.428 . S
H1700 C1696 0.930 . S
H1701 C1698 0.929 . S
S1702 N1703 1.613 . S
S1702 N1704 1.610 . S
N1703 S1702 1.613 . S
N1703 C1706 1.350 . S
N1704 S1702 1.610 . S
N1704 C1705 1.351 . S
C1705 C1699 1.428 . S
C1705 N1704 1.351 . S
C1705 C1706 1.434 . S
C1706 C1697 1.429 . S
C1706 N1703 1.350 . S
C1706 C1705 1.434 . S
C1707 C1708 1.369 . S
C1707 C1709 1.419 . S
C1707 H1711 0.930 . S
C1708 C1707 1.369 . S
C1708 C1717 1.429 . S
C1709 C1707 1.419 . S
C1709 C1710 1.363 . S
C1709 H1712 0.929 . S
C1710 C1709 1.363 . S
C1710 C1716 1.428 . S
H1711 C1707 0.930 . S
H1712 C1709 0.929 . S
S1713 N1714 1.613 . S
S1713 N1715 1.610 . S
N1714 S1713 1.613 . S
N1714 C1717 1.350 . S
N1715 S1713 1.610 . S
N1715 C1716 1.351 . S
C1716 C1710 1.428 . S
C1716 N1715 1.351 . S
C1716 C1717 1.434 . S
C1717 C1708 1.429 . S
C1717 N1714 1.350 . S
C1717 C1716 1.434 . S
C1718 C1719 1.369 . S
C1718 C1720 1.419 . S
C1718 H1722 0.930 . S
C1719 C1718 1.369 . S
C1719 C1728 1.429 . S
C1720 C1718 1.419 . S
C1720 C1721 1.363 . S
C1720 H1723 0.929 . S
C1721 C1720 1.363 . S
C1721 C1727 1.428 . S
H1722 C1718 0.930 . S
H1723 C1720 0.929 . S
S1724 N1725 1.613 . S
S1724 N1726 1.610 . S
N1725 S1724 1.613 . S
N1725 C1728 1.350 . S
N1726 S1724 1.610 . S
N1726 C1727 1.351 . S
C1727 C1721 1.428 . S
C1727 N1726 1.351 . S
C1727 C1728 1.434 . S
C1728 C1719 1.429 . S
C1728 N1725 1.350 . S
C1728 C1727 1.434 . S
C1729 C1730 1.369 . S
C1729 C1731 1.419 . S
C1729 H1733 0.930 . S
C1730 C1729 1.369 . S
C1730 C1739 1.429 . S
C1731 C1729 1.419 . S
C1731 C1732 1.363 . S
C1731 H1734 0.929 . S
C1732 C1731 1.363 . S
C1732 C1738 1.428 . S
H1733 C1729 0.930 . S
H1734 C1731 0.929 . S
S1735 N1736 1.613 . S
S1735 N1737 1.610 . S
N1736 S1735 1.613 . S
N1736 C1739 1.350 . S
N1737 S1735 1.610 . S
N1737 C1738 1.351 . S
C1738 C1732 1.428 . S
C1738 N1737 1.351 . S
C1738 C1739 1.434 . S
C1739 C1730 1.429 . S
C1739 N1736 1.350 . S
C1739 C1738 1.434 . S
C1740 C1741 1.369 . S
C1740 C1742 1.419 . S
C1740 H1744 0.930 . S
C1741 C1740 1.369 . S
C1741 C1750 1.429 . S
C1742 C1740 1.419 . S
C1742 C1743 1.363 . S
C1742 H1745 0.929 . S
C1743 C1742 1.363 . S
C1743 C1749 1.428 . S
H1744 C1740 0.930 . S
H1745 C1742 0.929 . S
S1746 N1747 1.613 . S
S1746 N1748 1.610 . S
N1747 S1746 1.613 . S
N1747 C1750 1.350 . S
N1748 S1746 1.610 . S
N1748 C1749 1.351 . S
C1749 C1743 1.428 . S
C1749 N1748 1.351 . S
C1749 C1750 1.434 . S
C1750 C1741 1.429 . S
C1750 N1747 1.350 . S
C1750 C1749 1.434 . S
C1751 C1752 1.369 . S
C1751 C1753 1.419 . S
C1751 H1755 0.930 . S
C1752 C1751 1.369 . S
C1752 C1761 1.429 . S
C1753 C1751 1.419 . S
C1753 C1754 1.363 . S
C1753 H1756 0.929 . S
C1754 C1753 1.363 . S
C1754 C1760 1.428 . S
H1755 C1751 0.930 . S
H1756 C1753 0.929 . S
S1757 N1758 1.613 . S
S1757 N1759 1.610 . S
N1758 S1757 1.613 . S
N1758 C1761 1.350 . S
N1759 S1757 1.610 . S
N1759 C1760 1.351 . S
C1760 C1754 1.428 . S
C1760 N1759 1.351 . S
C1760 C1761 1.434 . S
C1761 C1752 1.429 . S
C1761 N1758 1.350 . S
C1761 C1760 1.434 . S
C1762 C1763 1.369 . S
C1762 C1764 1.419 . S
C1762 H1766 0.930 . S
C1763 C1762 1.369 . S
C1763 C1772 1.429 . S
C1764 C1762 1.419 . S
C1764 C1765 1.363 . S
C1764 H1767 0.929 . S
C1765 C1764 1.363 . S
C1765 C1771 1.428 . S
H1766 C1762 0.930 . S
H1767 C1764 0.929 . S
S1768 N1769 1.613 . S
S1768 N1770 1.610 . S
N1769 S1768 1.613 . S
N1769 C1772 1.350 . S
N1770 S1768 1.610 . S
N1770 C1771 1.351 . S
C1771 C1765 1.428 . S
C1771 N1770 1.351 . S
C1771 C1772 1.434 . S
C1772 C1763 1.429 . S
C1772 N1769 1.350 . S
C1772 C1771 1.434 . S
C1773 C1774 1.369 . S
C1773 C1775 1.419 . S
C1773 H1777 0.930 . S
C1774 C1773 1.369 . S
C1774 C1783 1.429 . S
C1775 C1773 1.419 . S
C1775 C1776 1.363 . S
C1775 H1778 0.929 . S
C1776 C1775 1.363 . S
C1776 C1782 1.428 . S
H1777 C1773 0.930 . S
H1778 C1775 0.929 . S
S1779 N1780 1.613 . S
S1779 N1781 1.610 . S
N1780 S1779 1.613 . S
N1780 C1783 1.350 . S
N1781 S1779 1.610 . S
N1781 C1782 1.351 . S
C1782 C1776 1.428 . S
C1782 N1781 1.351 . S
C1782 C1783 1.434 . S
C1783 C1774 1.429 . S
C1783 N1780 1.350 . S
C1783 C1782 1.434 . S
C1784 C1785 1.369 . S
C1784 C1786 1.419 . S
C1784 H1788 0.930 . S
C1785 C1784 1.369 . S
C1785 C1794 1.429 . S
C1786 C1784 1.419 . S
C1786 C1787 1.363 . S
C1786 H1789 0.929 . S
C1787 C1786 1.363 . S
C1787 C1793 1.428 . S
H1788 C1784 0.930 . S
H1789 C1786 0.929 . S
S1790 N1791 1.613 . S
S1790 N1792 1.610 . S
N1791 S1790 1.613 . S
N1791 C1794 1.350 . S
N1792 S1790 1.610 . S
N1792 C1793 1.351 . S
C1793 C1787 1.428 . S
C1793 N1792 1.351 . S
C1793 C1794 1.434 . S
C1794 C1785 1.429 . S
C1794 N1791 1.350 . S
C1794 C1793 1.434 . S
C1795 C1796 1.369 . S
C1795 C1797 1.419 . S
C1795 H1799 0.930 . S
C1796 C1795 1.369 . S
C1796 C1805 1.429 . S
C1797 C1795 1.419 . S
C1797 C1798 1.363 . S
C1797 H1800 0.929 . S
C1798 C1797 1.363 . S
C1798 C1804 1.428 . S
H1799 C1795 0.930 . S
H1800 C1797 0.929 . S
S1801 N1802 1.613 . S
S1801 N1803 1.610 . S
N1802 S1801 1.613 . S
N1802 C1805 1.350 . S
N1803 S1801 1.610 . S
N1803 C1804 1.351 . S
C1804 C1798 1.428 . S
C1804 N1803 1.351 . S
C1804 C1805 1.434 . S
C1805 C1796 1.429 . S
C1805 N1802 1.350 . S
C1805 C1804 1.434 . S
C1806 C1807 1.369 . S
C1806 C1808 1.419 . S
C1806 H1810 0.930 . S
C1807 C1806 1.369 . S
C1807 C1816 1.429 . S
C1808 C1806 1.419 . S
C1808 C1809 1.363 . S
C1808 H1811 0.929 . S
C1809 C1808 1.363 . S
C1809 C1815 1.428 . S
H1810 C1806 0.930 . S
H1811 C1808 0.929 . S
S1812 N1813 1.613 . S
S1812 N1814 1.610 . S
N1813 S1812 1.613 . S
N1813 C1816 1.350 . S
N1814 S1812 1.610 . S
N1814 C1815 1.351 . S
C1815 C1809 1.428 . S
C1815 N1814 1.351 . S
C1815 C1816 1.434 . S
C1816 C1807 1.429 . S
C1816 N1813 1.350 . S
C1816 C1815 1.434 . S
C1817 C1818 1.369 . S
C1817 C1819 1.419 . S
C1817 H1821 0.930 . S
C1818 C1817 1.369 . S
C1818 C1827 1.429 . S
C1819 C1817 1.419 . S
C1819 C1820 1.363 . S
C1819 H1822 0.929 . S
C1820 C1819 1.363 . S
C1820 C1826 1.428 . S
H1821 C1817 0.930 . S
H1822 C1819 0.929 . S
S1823 N1824 1.613 . S
S1823 N1825 1.610 . S
N1824 S1823 1.613 . S
N1824 C1827 1.350 . S
N1825 S1823 1.610 . S
N1825 C1826 1.351 . S
C1826 C1820 1.428 . S
C1826 N1825 1.351 . S
C1826 C1827 1.434 . S
C1827 C1818 1.429 . S
C1827 N1824 1.350 . S
C1827 C1826 1.434 . S
C1828 C1829 1.369 . S
C1828 C1830 1.419 . S
C1828 H1832 0.930 . S
C1829 C1828 1.369 . S
C1829 C1838 1.429 . S
C1830 C1828 1.419 . S
C1830 C1831 1.363 . S
C1830 H1833 0.929 . S
C1831 C1830 1.363 . S
C1831 C1837 1.428 . S
H1832 C1828 0.930 . S
H1833 C1830 0.929 . S
S1834 N1835 1.613 . S
S1834 N1836 1.610 . S
N1835 S1834 1.613 . S
N1835 C1838 1.350 . S
N1836 S1834 1.610 . S
N1836 C1837 1.351 . S
C1837 C1831 1.428 . S
C1837 N1836 1.351 . S
C1837 C1838 1.434 . S
C1838 C1829 1.429 . S
C1838 N1835 1.350 . S
C1838 C1837 1.434 . S
C1839 C1840 1.369 . S
C1839 C1841 1.419 . S
C1839 H1843 0.930 . S
C1840 C1839 1.369 . S
C1840 C1849 1.429 . S
C1841 C1839 1.419 . S
C1841 C1842 1.363 . S
C1841 H1844 0.929 . S
C1842 C1841 1.363 . S
C1842 C1848 1.428 . S
H1843 C1839 0.930 . S
H1844 C1841 0.929 . S
S1845 N1846 1.613 . S
S1845 N1847 1.610 . S
N1846 S1845 1.613 . S
N1846 C1849 1.350 . S
N1847 S1845 1.610 . S
N1847 C1848 1.351 . S
C1848 C1842 1.428 . S
C1848 N1847 1.351 . S
C1848 C1849 1.434 . S
C1849 C1840 1.429 . S
C1849 N1846 1.350 . S
C1849 C1848 1.434 . S
C1850 C1851 1.369 . S
C1850 C1852 1.419 . S
C1850 H1854 0.930 . S
C1851 C1850 1.369 . S
C1851 C1860 1.429 . S
C1852 C1850 1.419 . S
C1852 C1853 1.363 . S
C1852 H1855 0.929 . S
C1853 C1852 1.363 . S
C1853 C1859 1.428 . S
H1854 C1850 0.930 . S
H1855 C1852 0.929 . S
S1856 N1857 1.613 . S
S1856 N1858 1.610 . S
N1857 S1856 1.613 . S
N1857 C1860 1.350 . S
N1858 S1856 1.610 . S
N1858 C1859 1.351 . S
C1859 C1853 1.428 . S
C1859 N1858 1.351 . S
C1859 C1860 1.434 . S
C1860 C1851 1.429 . S
C1860 N1857 1.350 . S
C1860 C1859 1.434 . S
C1861 C1862 1.369 . S
C1861 C1863 1.419 . S
C1861 H1865 0.930 . S
C1862 C1861 1.369 . S
C1862 C1871 1.429 . S
C1863 C1861 1.419 . S
C1863 C1864 1.363 . S
C1863 H1866 0.929 . S
C1864 C1863 1.363 . S
C1864 C1870 1.428 . S
H1865 C1861 0.930 . S
H1866 C1863 0.929 . S
S1867 N1868 1.613 1_565 S
S1867 N1869 1.610 1_565 S
N1868 S1867 1.613 1_545 S
N1868 C1871 1.350 . S
N1869 S1867 1.610 1_545 S
N1869 C1870 1.351 . S
C1870 C1864 1.428 . S
C1870 N1869 1.351 . S
C1870 C1871 1.434 . S
C1871 C1862 1.429 . S
C1871 N1868 1.350 . S
C1871 C1870 1.434 . S
C1872 C1873 1.369 . S
C1872 C1874 1.419 . S
C1872 H1876 0.930 . S
C1873 C1872 1.369 . S
C1873 C1882 1.429 . S
C1874 C1872 1.419 . S
C1874 C1875 1.363 . S
C1874 H1877 0.929 . S
C1875 C1874 1.363 . S
C1875 C1881 1.428 . S
H1876 C1872 0.930 . S
H1877 C1874 0.929 . S
S1878 N1879 1.613 . S
S1878 N1880 1.610 . S
N1879 S1878 1.613 . S
N1879 C1882 1.350 . S
N1880 S1878 1.610 . S
N1880 C1881 1.351 . S
C1881 C1875 1.428 . S
C1881 N1880 1.351 . S
C1881 C1882 1.434 . S
C1882 C1873 1.429 . S
C1882 N1879 1.350 . S
C1882 C1881 1.434 . S
C1883 C1884 1.369 . S
C1883 C1885 1.419 . S
C1883 H1887 0.930 . S
C1884 C1883 1.369 . S
C1884 C1893 1.429 . S
C1885 C1883 1.419 . S
C1885 C1886 1.363 . S
C1885 H1888 0.929 . S
C1886 C1885 1.363 . S
C1886 C1892 1.428 . S
H1887 C1883 0.930 . S
H1888 C1885 0.929 . S
S1889 N1890 1.622 . S
S1889 N1891 1.641 . S
N1890 S1889 1.622 . S
N1890 C1893 1.350 . S
N1891 S1889 1.641 . S
N1891 C1892 1.351 . S
C1892 C1886 1.428 . S
C1892 N1891 1.351 . S
C1892 C1893 1.434 . S
C1893 C1884 1.429 . S
C1893 N1890 1.350 . S
C1893 C1892 1.434 . S
C1894 C1895 1.369 . S
C1894 C1896 1.419 . S
C1894 H1898 0.930 . S
C1895 C1894 1.369 . S
C1895 C1904 1.429 . S
C1896 C1894 1.419 . S
C1896 C1897 1.363 . S
C1896 H1899 0.929 . S
C1897 C1896 1.363 . S
C1897 C1903 1.428 . S
H1898 C1894 0.930 . S
H1899 C1896 0.929 . S
S1900 N1901 1.613 . S
S1900 N1902 1.610 . S
N1901 S1900 1.613 . S
N1901 C1904 1.350 . S
N1902 S1900 1.610 . S
N1902 C1903 1.351 . S
C1903 C1897 1.428 . S
C1903 N1902 1.351 . S
C1903 C1904 1.434 . S
C1904 C1895 1.429 . S
C1904 N1901 1.350 . S
C1904 C1903 1.434 . S
C1905 C1906 1.369 . S
C1905 C1907 1.419 . S
C1905 H1909 0.930 . S
C1906 C1905 1.369 . S
C1906 C1915 1.429 . S
C1907 C1905 1.419 . S
C1907 C1908 1.363 . S
C1907 H1910 0.929 . S
C1908 C1907 1.363 . S
C1908 C1914 1.428 . S
H1909 C1905 0.930 . S
H1910 C1907 0.929 . S
S1911 N1912 1.613 . S
S1911 N1913 1.610 1_554 S
N1912 S1911 1.613 . S
N1912 C1915 1.350 1_554 S
N1913 S1911 1.610 1_556 S
N1913 C1914 1.351 . S
C1914 C1908 1.428 . S
C1914 N1913 1.351 . S
C1914 C1915 1.434 . S
C1915 C1906 1.429 . S
C1915 N1912 1.350 1_556 S
C1915 C1914 1.434 . S
C1916 C1917 1.369 . S
C1916 C1918 1.419 . S
C1916 H1920 0.930 . S
C1917 C1916 1.369 . S
C1917 C1926 1.429 . S
C1918 C1916 1.419 . S
C1918 C1919 1.363 . S
C1918 H1921 0.929 . S
C1919 C1918 1.363 . S
C1919 C1925 1.428 . S
H1920 C1916 0.930 . S
H1921 C1918 0.929 . S
S1922 N1923 1.605 1_455 S
S1922 N1924 1.603 1_455 S
N1923 S1922 1.605 1_655 S
N1923 C1926 1.350 . S
N1924 S1922 1.603 1_655 S
N1924 C1925 1.351 . S
C1925 C1919 1.428 . S
C1925 N1924 1.351 . S
C1925 C1926 1.434 . S
C1926 C1917 1.429 . S
C1926 N1923 1.350 . S
C1926 C1925 1.434 . S
C1927 C1928 1.369 . S
C1927 C1929 1.419 . S
C1927 H1931 0.930 . S
C1928 C1927 1.369 . S
C1928 C1937 1.429 . S
C1929 C1927 1.419 . S
C1929 C1930 1.363 . S
C1929 H1932 0.929 . S
C1930 C1929 1.363 . S
C1930 C1936 1.428 . S
H1931 C1927 0.930 . S
H1932 C1929 0.929 . S
S1933 N1934 1.613 . S
S1933 N1935 1.610 . S
N1934 S1933 1.613 . S
N1934 C1937 1.350 . S
N1935 S1933 1.610 . S
N1935 C1936 1.351 . S
C1936 C1930 1.428 . S
C1936 N1935 1.351 . S
C1936 C1937 1.434 . S
C1937 C1928 1.429 . S
C1937 N1934 1.350 . S
C1937 C1936 1.434 . S
C1938 C1939 1.369 . S
C1938 C1940 1.419 . S
C1938 H1942 0.930 . S
C1939 C1938 1.369 . S
C1939 C1948 1.429 . S
C1940 C1938 1.419 . S
C1940 C1941 1.363 . S
C1940 H1943 0.929 . S
C1941 C1940 1.363 . S
C1941 C1947 1.428 . S
H1942 C1938 0.930 . S
H1943 C1940 0.929 . S
S1944 N1945 1.613 . S
S1944 N1946 1.610 . S
N1945 S1944 1.613 . S
N1945 C1948 1.350 . S
N1946 S1944 1.610 . S
N1946 C1947 1.351 . S
C1947 C1941 1.428 . S
C1947 N1946 1.351 . S
C1947 C1948 1.434 . S
C1948 C1939 1.429 . S
C1948 N1945 1.350 . S
C1948 C1947 1.434 . S
C1949 C1950 1.369 . S
C1949 C1951 1.419 . S
C1949 H1953 0.930 1_556 S
C1950 C1949 1.369 . S
C1950 C1959 1.429 . S
C1951 C1949 1.419 . S
C1951 C1952 1.363 . S
C1951 H1954 0.929 . S
C1952 C1951 1.363 . S
C1952 C1958 1.428 . S
H1953 C1949 0.930 1_554 S
H1954 C1951 0.929 . S
S1955 N1956 1.613 . S
S1955 N1957 1.610 . S
N1956 S1955 1.613 . S
N1956 C1959 1.350 . S
N1957 S1955 1.610 . S
N1957 C1958 1.351 . S
C1958 C1952 1.428 . S
C1958 N1957 1.351 . S
C1958 C1959 1.434 . S
C1959 C1950 1.429 . S
C1959 N1956 1.350 . S
C1959 C1958 1.434 . S
C1960 C1961 1.369 . S
C1960 C1962 1.419 . S
C1960 H1964 0.930 . S
C1961 C1960 1.369 . S
C1961 C1970 1.429 . S
C1962 C1960 1.419 . S
C1962 C1963 1.363 . S
C1962 H1965 0.929 . S
C1963 C1962 1.363 . S
C1963 C1969 1.428 . S
H1964 C1960 0.930 . S
H1965 C1962 0.929 . S
S1966 N1967 1.613 . S
S1966 N1968 1.610 . S
N1967 S1966 1.613 . S
N1967 C1970 1.350 . S
N1968 S1966 1.610 . S
N1968 C1969 1.351 . S
C1969 C1963 1.428 . S
C1969 N1968 1.351 . S
C1969 C1970 1.434 . S
C1970 C1961 1.429 . S
C1970 N1967 1.350 . S
C1970 C1969 1.434 . S
C1971 C1972 1.369 . S
C1971 C1973 1.419 . S
C1971 H1975 0.930 . S
C1972 C1971 1.369 . S
C1972 C1981 1.429 . S
C1973 C1971 1.419 . S
C1973 C1974 1.363 . S
C1973 H1976 0.929 . S
C1974 C1973 1.363 . S
C1974 C1980 1.428 . S
H1975 C1971 0.930 . S
H1976 C1973 0.929 . S
S1977 N1978 1.613 . S
S1977 N1979 1.610 . S
N1978 S1977 1.613 . S
N1978 C1981 1.350 . S
N1979 S1977 1.610 . S
N1979 C1980 1.351 . S
C1980 C1974 1.428 . S
C1980 N1979 1.351 . S
C1980 C1981 1.434 . S
C1981 C1972 1.429 . S
C1981 N1978 1.350 . S
C1981 C1980 1.434 . S
C1982 C1983 1.369 . S
C1982 C1984 1.419 . S
C1982 H1986 0.930 . S
C1983 C1982 1.369 . S
C1983 C1992 1.429 . S
C1984 C1982 1.419 . S
C1984 C1985 1.363 . S
C1984 H1987 0.929 . S
C1985 C1984 1.363 . S
C1985 C1991 1.428 . S
H1986 C1982 0.930 . S
H1987 C1984 0.929 . S
S1988 N1989 1.613 . S
S1988 N1990 1.610 . S
N1989 S1988 1.613 . S
N1989 C1992 1.350 . S
N1990 S1988 1.610 . S
N1990 C1991 1.351 . S
C1991 C1985 1.428 . S
C1991 N1990 1.351 . S
C1991 C1992 1.434 . S
C1992 C1983 1.429 . S
C1992 N1989 1.350 . S
C1992 C1991 1.434 . S
C1993 C1994 1.369 . S
C1993 C1995 1.419 . S
C1993 H1997 0.930 . S
C1994 C1993 1.369 . S
C1994 C2003 1.429 . S
C1995 C1993 1.419 . S
C1995 C1996 1.363 . S
C1995 H1998 0.929 . S
C1996 C1995 1.363 . S
C1996 C2002 1.428 . S
H1997 C1993 0.930 . S
H1998 C1995 0.929 . S
S1999 N2000 1.613 . S
S1999 N2001 1.610 . S
N2000 S1999 1.613 . S
N2000 C2003 1.350 . S
N2001 S1999 1.610 . S
N2001 C2002 1.351 . S
C2002 C1996 1.428 . S
C2002 N2001 1.351 . S
C2002 C2003 1.434 . S
C2003 C1994 1.429 . S
C2003 N2000 1.350 . S
C2003 C2002 1.434 . S
C2004 C2005 1.369 . S
C2004 C2006 1.419 . S
C2004 H2008 0.930 . S
C2005 C2004 1.369 . S
C2005 C2014 1.429 . S
C2006 C2004 1.419 . S
C2006 C2007 1.363 . S
C2006 H2009 0.929 . S
C2007 C2006 1.363 . S
C2007 C2013 1.428 . S
H2008 C2004 0.930 . S
H2009 C2006 0.929 . S
S2010 N2011 1.613 . S
S2010 N2012 1.610 . S
N2011 S2010 1.613 . S
N2011 C2014 1.350 . S
N2012 S2010 1.610 . S
N2012 C2013 1.351 . S
C2013 C2007 1.428 . S
C2013 N2012 1.351 . S
C2013 C2014 1.434 . S
C2014 C2005 1.429 . S
C2014 N2011 1.350 . S
C2014 C2013 1.434 . S
C2015 C2016 1.369 . S
C2015 C2017 1.419 . S
C2015 H2019 0.930 . S
C2016 C2015 1.369 . S
C2016 C2025 1.429 . S
C2017 C2015 1.419 . S
C2017 C2018 1.363 . S
C2017 H2020 0.929 . S
C2018 C2017 1.363 . S
C2018 C2024 1.428 . S
H2019 C2015 0.930 . S
H2020 C2017 0.929 . S
S2021 N2022 1.613 . S
S2021 N2023 1.610 . S
N2022 S2021 1.613 . S
N2022 C2025 1.350 . S
N2023 S2021 1.610 . S
N2023 C2024 1.351 . S
C2024 C2018 1.428 . S
C2024 N2023 1.351 . S
C2024 C2025 1.434 . S
C2025 C2016 1.429 . S
C2025 N2022 1.350 . S
C2025 C2024 1.434 . S
C2026 C2027 1.369 . S
C2026 C2028 1.419 . S
C2026 H2030 0.930 . S
C2027 C2026 1.369 . S
C2027 C2036 1.429 . S
C2028 C2026 1.419 . S
C2028 C2029 1.363 . S
C2028 H2031 0.929 . S
C2029 C2028 1.363 . S
C2029 C2035 1.428 . S
H2030 C2026 0.930 . S
H2031 C2028 0.929 . S
S2032 N2033 1.613 . S
S2032 N2034 1.610 . S
N2033 S2032 1.613 . S
N2033 C2036 1.350 . S
N2034 S2032 1.610 . S
N2034 C2035 1.351 . S
C2035 C2029 1.428 . S
C2035 N2034 1.351 . S
C2035 C2036 1.434 . S
C2036 C2027 1.429 . S
C2036 N2033 1.350 . S
C2036 C2035 1.434 . S
C2037 C2038 1.369 . S
C2037 C2039 1.419 . S
C2037 H2041 0.930 . S
C2038 C2037 1.369 . S
C2038 C2047 1.429 1_455 S
C2039 C2037 1.419 . S
C2039 C2040 1.363 . S
C2039 H2042 0.929 . S
C2040 C2039 1.363 . S
C2040 C2046 1.428 1_455 S
H2041 C2037 0.930 . S
H2042 C2039 0.929 . S
S2043 N2044 1.613 . S
S2043 N2045 1.610 . S
N2044 S2043 1.613 . S
N2044 C2047 1.350 . S
N2045 S2043 1.610 . S
N2045 C2046 1.351 . S
C2046 C2040 1.428 1_655 S
C2046 N2045 1.351 . S
C2046 C2047 1.434 . S
C2047 C2038 1.429 1_655 S
C2047 N2044 1.350 . S
C2047 C2046 1.434 . S
C2048 C2049 1.369 . S
C2048 C2050 1.419 . S
C2048 H2052 0.930 . S
C2049 C2048 1.369 . S
C2049 C2058 1.429 . S
C2050 C2048 1.419 . S
C2050 C2051 1.363 . S
C2050 H2053 0.929 . S
C2051 C2050 1.363 . S
C2051 C2057 1.428 . S
H2052 C2048 0.930 . S
H2053 C2050 0.929 . S
S2054 N2055 1.613 . S
S2054 N2056 1.610 . S
N2055 S2054 1.613 . S
N2055 C2058 1.350 . S
N2056 S2054 1.610 . S
N2056 C2057 1.351 . S
C2057 C2051 1.428 . S
C2057 N2056 1.351 . S
C2057 C2058 1.434 . S
C2058 C2049 1.429 . S
C2058 N2055 1.350 . S
C2058 C2057 1.434 . S
C2059 C2060 1.369 . S
C2059 C2061 1.419 . S
C2059 H2063 0.930 . S
C2060 C2059 1.369 . S
C2060 C2069 1.429 . S
C2061 C2059 1.419 . S
C2061 C2062 1.363 . S
C2061 H2064 0.929 1_565 S
C2062 C2061 1.363 . S
C2062 C2068 1.428 . S
H2063 C2059 0.930 . S
H2064 C2061 0.929 1_545 S
S2065 N2066 1.613 . S
S2065 N2067 1.610 . S
N2066 S2065 1.613 . S
N2066 C2069 1.350 . S
N2067 S2065 1.610 . S
N2067 C2068 1.351 . S
C2068 C2062 1.428 . S
C2068 N2067 1.351 . S
C2068 C2069 1.434 . S
C2069 C2060 1.429 . S
C2069 N2066 1.350 . S
C2069 C2068 1.434 . S
C2070 C2071 1.369 1_545 S
C2070 C2072 1.419 . S
C2070 H2074 0.930 . S
C2071 C2070 1.369 1_565 S
C2071 C2080 1.429 . S
C2072 C2070 1.419 . S
C2072 C2073 1.363 1_545 S
C2072 H2075 0.929 . S
C2073 C2072 1.363 1_565 S
C2073 C2079 1.428 . S
H2074 C2070 0.930 . S
H2075 C2072 0.929 . S
S2076 N2077 1.613 . S
S2076 N2078 1.610 . S
N2077 S2076 1.613 . S
N2077 C2080 1.350 . S
N2078 S2076 1.610 . S
N2078 C2079 1.351 . S
C2079 C2073 1.428 . S
C2079 N2078 1.351 . S
C2079 C2080 1.434 . S
C2080 C2071 1.429 . S
C2080 N2077 1.350 . S
C2080 C2079 1.434 . S
C2081 C2082 1.369 . S
C2081 C2083 1.419 . S
C2081 H2085 0.930 . S
C2082 C2081 1.369 . S
C2082 C2091 1.429 1_455 S
C2083 C2081 1.419 . S
C2083 C2084 1.363 . S
C2083 H2086 0.929 . S
C2084 C2083 1.363 . S
C2084 C2090 1.428 1_455 S
H2085 C2081 0.930 . S
H2086 C2083 0.929 . S
S2087 N2088 1.613 . S
S2087 N2089 1.610 . S
N2088 S2087 1.613 . S
N2088 C2091 1.350 . S
N2089 S2087 1.610 . S
N2089 C2090 1.351 . S
C2090 C2084 1.428 1_655 S
C2090 N2089 1.351 . S
C2090 C2091 1.434 . S
C2091 C2082 1.429 1_655 S
C2091 N2088 1.350 . S
C2091 C2090 1.434 . S
C2092 C2093 1.369 . S
C2092 C2094 1.419 . S
C2092 H2096 0.930 . S
C2093 C2092 1.369 . S
C2093 C2102 1.429 . S
C2094 C2092 1.419 . S
C2094 C2095 1.363 . S
C2094 H2097 0.929 . S
C2095 C2094 1.363 . S
C2095 C2101 1.428 . S
H2096 C2092 0.930 . S
H2097 C2094 0.929 . S
S2098 N2099 1.613 . S
S2098 N2100 1.610 . S
N2099 S2098 1.613 . S
N2099 C2102 1.350 . S
N2100 S2098 1.610 . S
N2100 C2101 1.351 . S
C2101 C2095 1.428 . S
C2101 N2100 1.351 . S
C2101 C2102 1.434 . S
C2102 C2093 1.429 . S
C2102 N2099 1.350 . S
C2102 C2101 1.434 . S
C2103 C2104 1.369 . S
C2103 C2105 1.419 . S
C2103 H2107 0.930 . S
C2104 C2103 1.369 . S
C2104 C2113 1.429 . S
C2105 C2103 1.419 . S
C2105 C2106 1.363 . S
C2105 H2108 0.929 . S
C2106 C2105 1.363 . S
C2106 C2112 1.428 . S
H2107 C2103 0.930 . S
H2108 C2105 0.929 . S
S2109 N2110 1.613 . S
S2109 N2111 1.610 . S
N2110 S2109 1.613 . S
N2110 C2113 1.350 . S
N2111 S2109 1.610 . S
N2111 C2112 1.351 . S
C2112 C2106 1.428 . S
C2112 N2111 1.351 . S
C2112 C2113 1.434 . S
C2113 C2104 1.429 . S
C2113 N2110 1.350 . S
C2113 C2112 1.434 . S
C2114 C2115 1.369 . S
C2114 C2116 1.419 . S
C2114 H2118 0.930 . S
C2115 C2114 1.369 . S
C2115 C2124 1.429 . S
C2116 C2114 1.419 . S
C2116 C2117 1.363 . S
C2116 H2119 0.929 . S
C2117 C2116 1.363 . S
C2117 C2123 1.428 . S
H2118 C2114 0.930 . S
H2119 C2116 0.929 . S
S2120 N2121 1.613 . S
S2120 N2122 1.610 . S
N2121 S2120 1.613 . S
N2121 C2124 1.350 . S
N2122 S2120 1.610 . S
N2122 C2123 1.351 . S
C2123 C2117 1.428 . S
C2123 N2122 1.351 . S
C2123 C2124 1.434 . S
C2124 C2115 1.429 . S
C2124 N2121 1.350 . S
C2124 C2123 1.434 . S
C2125 C2126 1.369 . S
C2125 C2127 1.419 . S
C2125 H2129 0.930 . S
C2126 C2125 1.369 . S
C2126 C2135 1.429 . S
C2127 C2125 1.419 . S
C2127 C2128 1.363 . S
C2127 H2130 0.929 . S
C2128 C2127 1.363 . S
C2128 C2134 1.428 . S
H2129 C2125 0.930 . S
H2130 C2127 0.929 . S
S2131 N2132 1.613 . S
S2131 N2133 1.610 . S
N2132 S2131 1.613 . S
N2132 C2135 1.350 . S
N2133 S2131 1.610 . S
N2133 C2134 1.351 . S
C2134 C2128 1.428 . S
C2134 N2133 1.351 . S
C2134 C2135 1.434 . S
C2135 C2126 1.429 . S
C2135 N2132 1.350 . S
C2135 C2134 1.434 . S
C2136 C2137 1.369 . S
C2136 C2138 1.419 . S
C2136 H2140 0.930 . S
C2137 C2136 1.369 . S
C2137 C2146 1.429 1_545 S
C2138 C2136 1.419 . S
C2138 C2139 1.363 . S
C2138 H2141 0.929 . S
C2139 C2138 1.363 . S
C2139 C2145 1.428 1_545 S
H2140 C2136 0.930 . S
H2141 C2138 0.929 . S
S2142 N2143 1.613 . S
S2142 N2144 1.610 . S
N2143 S2142 1.613 . S
N2143 C2146 1.350 . S
N2144 S2142 1.610 . S
N2144 C2145 1.351 . S
C2145 C2139 1.428 1_565 S
C2145 N2144 1.351 . S
C2145 C2146 1.434 . S
C2146 C2137 1.429 1_565 S
C2146 N2143 1.350 . S
C2146 C2145 1.434 . S
C2147 C2148 1.369 . S
C2147 C2149 1.419 . S
C2147 H2151 0.930 . S
C2148 C2147 1.369 . S
C2148 C2157 1.429 . S
C2149 C2147 1.419 . S
C2149 C2150 1.363 . S
C2149 H2152 0.929 . S
C2150 C2149 1.363 . S
C2150 C2156 1.428 . S
H2151 C2147 0.930 . S
H2152 C2149 0.929 . S
S2153 N2154 1.613 . S
S2153 N2155 1.610 . S
N2154 S2153 1.613 . S
N2154 C2157 1.350 . S
N2155 S2153 1.610 . S
N2155 C2156 1.351 . S
C2156 C2150 1.428 . S
C2156 N2155 1.351 . S
C2156 C2157 1.434 . S
C2157 C2148 1.429 . S
C2157 N2154 1.350 . S
C2157 C2156 1.434 . S
C2158 C2159 1.369 . S
C2158 C2160 1.419 . S
C2158 H2162 0.930 . S
C2159 C2158 1.369 . S
C2159 C2168 1.429 . S
C2160 C2158 1.419 . S
C2160 C2161 1.363 . S
C2160 H2163 0.929 . S
C2161 C2160 1.363 . S
C2161 C2167 1.428 . S
H2162 C2158 0.930 . S
H2163 C2160 0.929 . S
S2164 N2165 1.613 . S
S2164 N2166 1.610 . S
N2165 S2164 1.613 . S
N2165 C2168 1.350 . S
N2166 S2164 1.610 . S
N2166 C2167 1.351 . S
C2167 C2161 1.428 . S
C2167 N2166 1.351 . S
C2167 C2168 1.434 . S
C2168 C2159 1.429 . S
C2168 N2165 1.350 . S
C2168 C2167 1.434 . S
C2169 C2170 1.369 . S
C2169 C2171 1.419 . S
C2169 H2173 0.930 . S
C2170 C2169 1.369 . S
C2170 C2179 1.429 . S
C2171 C2169 1.419 . S
C2171 C2172 1.363 . S
C2171 H2174 0.929 . S
C2172 C2171 1.363 . S
C2172 C2178 1.428 . S
H2173 C2169 0.930 . S
H2174 C2171 0.929 . S
S2175 N2176 1.613 . S
S2175 N2177 1.610 . S
N2176 S2175 1.613 . S
N2176 C2179 1.350 . S
N2177 S2175 1.610 . S
N2177 C2178 1.351 . S
C2178 C2172 1.428 . S
C2178 N2177 1.351 . S
C2178 C2179 1.434 . S
C2179 C2170 1.429 . S
C2179 N2176 1.350 . S
C2179 C2178 1.434 . S
C2180 C2181 1.369 . S
C2180 C2182 1.419 . S
C2180 H2184 0.930 . S
C2181 C2180 1.369 . S
C2181 C2190 1.429 . S
C2182 C2180 1.419 . S
C2182 C2183 1.363 . S
C2182 H2185 0.929 . S
C2183 C2182 1.363 . S
C2183 C2189 1.428 . S
H2184 C2180 0.930 . S
H2185 C2182 0.929 . S
S2186 N2187 1.613 . S
S2186 N2188 1.610 . S
N2187 S2186 1.613 . S
N2187 C2190 1.350 . S
N2188 S2186 1.610 . S
N2188 C2189 1.351 . S
C2189 C2183 1.428 . S
C2189 N2188 1.351 . S
C2189 C2190 1.434 . S
C2190 C2181 1.429 . S
C2190 N2187 1.350 . S
C2190 C2189 1.434 . S
C2191 C2192 1.369 . S
C2191 C2193 1.419 . S
C2191 H2195 0.930 . S
C2192 C2191 1.369 . S
C2192 C2201 1.429 . S
C2193 C2191 1.419 . S
C2193 C2194 1.363 . S
C2193 H2196 0.929 . S
C2194 C2193 1.363 . S
C2194 C2200 1.428 . S
H2195 C2191 0.930 . S
H2196 C2193 0.929 . S
S2197 N2198 1.613 . S
S2197 N2199 1.610 . S
N2198 S2197 1.613 . S
N2198 C2201 1.350 . S
N2199 S2197 1.610 . S
N2199 C2200 1.351 . S
C2200 C2194 1.428 . S
C2200 N2199 1.351 . S
C2200 C2201 1.434 . S
C2201 C2192 1.429 . S
C2201 N2198 1.350 . S
C2201 C2200 1.434 . S
C2202 C2203 1.369 . S
C2202 C2204 1.419 . S
C2202 H2206 0.930 . S
C2203 C2202 1.369 . S
C2203 C2212 1.429 . S
C2204 C2202 1.419 . S
C2204 C2205 1.363 . S
C2204 H2207 0.929 . S
C2205 C2204 1.363 . S
C2205 C2211 1.428 . S
H2206 C2202 0.930 . S
H2207 C2204 0.929 . S
S2208 N2209 1.613 . S
S2208 N2210 1.610 . S
N2209 S2208 1.613 . S
N2209 C2212 1.350 . S
N2210 S2208 1.610 . S
N2210 C2211 1.351 . S
C2211 C2205 1.428 . S
C2211 N2210 1.351 . S
C2211 C2212 1.434 . S
C2212 C2203 1.429 . S
C2212 N2209 1.350 . S
C2212 C2211 1.434 . S
C2213 C2214 1.369 . S
C2213 C2215 1.419 . S
C2213 H2217 0.930 . S
C2214 C2213 1.369 . S
C2214 C2223 1.429 . S
C2215 C2213 1.419 . S
C2215 C2216 1.363 . S
C2215 H2218 0.929 . S
C2216 C2215 1.363 . S
C2216 C2222 1.428 . S
H2217 C2213 0.930 . S
H2218 C2215 0.929 . S
S2219 N2220 1.613 . S
S2219 N2221 1.610 . S
N2220 S2219 1.613 . S
N2220 C2223 1.350 . S
N2221 S2219 1.610 . S
N2221 C2222 1.351 . S
C2222 C2216 1.428 . S
C2222 N2221 1.351 . S
C2222 C2223 1.434 . S
C2223 C2214 1.429 . S
C2223 N2220 1.350 . S
C2223 C2222 1.434 . S
C2224 C2225 1.369 . S
C2224 C2226 1.419 . S
C2224 H2228 0.930 . S
C2225 C2224 1.369 . S
C2225 C2234 1.429 . S
C2226 C2224 1.419 . S
C2226 C2227 1.363 . S
C2226 H2229 0.929 . S
C2227 C2226 1.363 . S
C2227 C2233 1.428 . S
H2228 C2224 0.930 . S
H2229 C2226 0.929 . S
S2230 N2231 1.613 . S
S2230 N2232 1.610 . S
N2231 S2230 1.613 . S
N2231 C2234 1.350 . S
N2232 S2230 1.610 . S
N2232 C2233 1.351 . S
C2233 C2227 1.428 . S
C2233 N2232 1.351 . S
C2233 C2234 1.434 . S
C2234 C2225 1.429 . S
C2234 N2231 1.350 . S
C2234 C2233 1.434 . S
C2235 C2236 1.369 . S
C2235 C2237 1.419 . S
C2235 H2239 0.930 . S
C2236 C2235 1.369 . S
C2236 C2245 1.429 1_655 S
C2237 C2235 1.419 . S
C2237 C2238 1.363 . S
C2237 H2240 0.929 . S
C2238 C2237 1.363 . S
C2238 C2244 1.428 1_655 S
H2239 C2235 0.930 . S
H2240 C2237 0.929 . S
S2241 N2242 1.613 . S
S2241 N2243 1.610 . S
N2242 S2241 1.613 . S
N2242 C2245 1.350 . S
N2243 S2241 1.610 . S
N2243 C2244 1.351 . S
C2244 C2238 1.428 1_455 S
C2244 N2243 1.351 . S
C2244 C2245 1.434 . S
C2245 C2236 1.429 1_455 S
C2245 N2242 1.350 . S
C2245 C2244 1.434 . S
C2246 C2247 1.369 . S
C2246 C2248 1.419 . S
C2246 H2250 0.930 . S
C2247 C2246 1.369 . S
C2247 C2256 1.429 . S
C2248 C2246 1.419 . S
C2248 C2249 1.363 . S
C2248 H2251 0.929 . S
C2249 C2248 1.363 . S
C2249 C2255 1.428 . S
H2250 C2246 0.930 . S
H2251 C2248 0.929 . S
S2252 N2253 1.613 . S
S2252 N2254 1.610 . S
N2253 S2252 1.613 . S
N2253 C2256 1.350 . S
N2254 S2252 1.610 . S
N2254 C2255 1.351 . S
C2255 C2249 1.428 . S
C2255 N2254 1.351 . S
C2255 C2256 1.434 . S
C2256 C2247 1.429 . S
C2256 N2253 1.350 . S
C2256 C2255 1.434 . S
C2257 C2258 1.369 1_565 S
C2257 C2259 1.419 . S
C2257 H2261 0.930 . S
C2258 C2257 1.369 1_545 S
C2258 C2267 1.429 . S
C2259 C2257 1.419 . S
C2259 C2260 1.363 1_565 S
C2259 H2262 0.929 . S
C2260 C2259 1.363 1_545 S
C2260 C2266 1.428 . S
H2261 C2257 0.930 . S
H2262 C2259 0.929 . S
S2263 N2264 1.613 . S
S2263 N2265 1.610 . S
N2264 S2263 1.613 . S
N2264 C2267 1.350 . S
N2265 S2263 1.610 . S
N2265 C2266 1.351 . S
C2266 C2260 1.428 . S
C2266 N2265 1.351 . S
C2266 C2267 1.434 . S
C2267 C2258 1.429 . S
C2267 N2264 1.350 . S
C2267 C2266 1.434 . S
C1477 C4 1.430 . S
C1479 C1084 1.453 . S
C1488 C38 1.729 . S
C1490 C1130 1.690 . S
C1501 C1162 1.474 . S
C1499 C74 1.437 . S
C1510 C76 1.413 . S
C1512 C1215 1.444 . S
C1521 C2 1.515 . S
C1523 C1261 1.573 . S
C1532 C40 1.571 . S
C1534 C1300 1.552 . S
C1543 C110 1.491 . S
C1545 C1254 1.532 . S
C1556 C1307 1.561 . S
C1554 C148 1.587 . S
C1567 C1208 1.532 . S
C1565 C182 1.492 . S
C1576 C184 1.460 . S
C1578 C1169 1.495 . S
C1589 C1063 1.439 . S
C1587 C112 1.416 . S
C1598 C146 1.667 . S
C1600 C1109 1.634 . S
C1609 C220 1.671 . S
C1611 C1339 1.642 . S
C1620 C254 1.809 . S
C1622 C1406 1.755 . S
C1633 C1452 1.635 . S
C1631 C290 1.690 . S
C1642 C292 1.575 . S
C1644 C663 1.538 . S
C1653 C218 1.718 . S
C1655 C709 1.686 . S
C1664 C256 1.614 . S
C1666 C755 1.566 . S
C1675 C326 1.706 . S
C1677 C702 1.663 . S
C1686 C364 1.649 . S
C1688 C748 1.596 . S
C1699 C656 1.681 . S
C1697 C398 1.724 . S
C1710 C1431 1.652 . S
C1708 C400 1.687 . S
C1721 C1360 1.547 . S
C1719 C328 1.570 . S
C1732 C1385 1.703 . S
C1730 C362 1.750 . S
C1741 C436 1.598 . S
C1743 C787 1.571 . S
C1752 C470 1.782 . S
C1754 C840 1.750 . S
C1763 C506 1.684 . S
C1765 C886 1.655 . S
C1774 C508 1.649 . S
C1776 C932 1.628 . S
C1787 C985 1.676 . S
C1785 C434 1.715 . S
C1798 C1031 1.587 . S
C1796 C472 1.639 . S
C1809 C978 1.740 . S
C1807 C542 1.785 . S
C1820 C1024 1.611 . S
C1818 C580 1.671 . S
C1829 C614 1.716 . S
C1831 C939 1.682 . S
C1842 C893 1.590 . S
C1840 C616 1.607 . S
C1851 C544 1.578 . S
C1853 C808 1.556 . S
C1864 C847 1.687 . S
C1862 C578 1.713 . S
C1875 C670 1.675 . S
C1873 C14 1.700 . S
C1884 C39 1.605 . S
C1886 C716 1.583 . S
C1897 C762 1.593 . S
C1895 C75 1.627 . S
C1908 C794 1.522 . S
C1906 C86 1.556 . S
C1919 C833 1.617 . S
C1917 C3 1.656 . S
C1930 C879 1.573 . S
C1928 C50 1.621 . S
C1939 C111 1.635 . S
C1941 C900 1.592 . S
C1950 C158 1.584 . S
C1952 C801 1.525 . S
C1961 C183 1.736 . S
C1963 C854 1.686 . S
C1972 C194 1.679 . S
C1974 C695 1.666 . S
C1985 C741 1.593 . S
C1983 C122 1.629 . S
C1994 C147 1.530 . S
C1996 C649 1.505 . S
C2007 C925 1.604 . S
C2005 C230 1.657 . S
C2016 C255 1.692 . S
C2018 C992 1.667 . S
C2027 C291 1.641 . S
C2029 C1038 1.603 . S
C2040 C1077 1.356 . S
C2038 C302 1.306 . S
C2049 C219 1.613 . S
C2051 C1123 1.593 . S
C2060 C266 1.376 . S
C2062 C1155 1.445 . S
C2071 C327 1.372 . S
C2073 C1176 1.360 . S
C2082 C374 1.356 . S
C2084 C1070 1.401 . S
C2095 C1116 1.660 . S
C2093 C399 1.680 . S
C2104 C410 1.636 . S
C2106 C971 1.617 . S
C2115 C338 1.640 . S
C2117 C1017 1.616 . S
C2128 C946 1.577 . S
C2126 C363 1.622 . S
C2139 C1222 1.440 . S
C2137 C446 1.387 . S
C2148 C471 1.425 . S
C2150 C1268 1.423 . S
C2159 C507 1.574 . S
C2161 C1293 1.534 . S
C2172 C1346 1.485 . S
C2170 C518 1.528 . S
C2183 C1399 1.658 . S
C2181 C435 1.683 . S
C2192 C482 1.686 . S
C2194 C1445 1.675 . S
C2203 C543 1.583 . S
C2205 C1438 1.550 . S
C2214 C590 1.655 . S
C2216 C1353 1.617 . S
C2227 C1392 1.707 . S
C2225 C615 1.740 . S
C2238 C1247 1.446 . S
C2236 C626 1.383 . S
C2249 C1314 1.552 . S
C2247 C554 1.593 . S
C2258 C579 1.373 . S
C2260 C1201 1.376 . S
