# Generated by pormake.
# Topology ana-f, (3,3)-cn, num edge types: 1
# Building blocks:
#     Node 0, Type 0, BuildingBlock: WUSLED_clean_sbu_0, # of connection points: 3
#     Node 1, Type 0, BuildingBlock: WUSLED_clean_sbu_0, # of connection points: 3
#     Node 2, Type 0, BuildingBlock: WUSLED_clean_sbu_0, # of connection points: 3
#     Node 3, Type 0, BuildingBlock: WUSLED_clean_sbu_0, # of connection points: 3
#     Node 4, Type 0, BuildingBlock: WUSLED_clean_sbu_0, # of connection points: 3
#     Node 5, Type 0, BuildingBlock: WUSLED_clean_sbu_0, # of connection points: 3
#     Node 6, Type 0, BuildingBlock: WUSLED_clean_sbu_0, # of connection points: 3
#     Node 7, Type 0, BuildingBlock: WUSLED_clean_sbu_0, # of connection points: 3
#     Node 8, Type 0, BuildingBlock: WUSLED_clean_sbu_0, # of connection points: 3
#     Node 9, Type 0, BuildingBlock: WUSLED_clean_sbu_0, # of connection points: 3
#     Node 10, Type 0, BuildingBlock: WUSLED_clean_sbu_0, # of connection points: 3
#     Node 11, Type 0, BuildingBlock: WUSLED_clean_sbu_0, # of connection points: 3
#     Node 12, Type 0, BuildingBlock: WUSLED_clean_sbu_0, # of connection points: 3
#     Node 13, Type 0, BuildingBlock: WUSLED_clean_sbu_0, # of connection points: 3
#     Node 14, Type 0, BuildingBlock: WUSLED_clean_sbu_0, # of connection points: 3
#     Node 15, Type 0, BuildingBlock: WUSLED_clean_sbu_0, # of connection points: 3
#     Node 16, Type 0, BuildingBlock: WUSLED_clean_sbu_0, # of connection points: 3
#     Node 17, Type 0, BuildingBlock: WUSLED_clean_sbu_0, # of connection points: 3
#     Node 18, Type 0, BuildingBlock: WUSLED_clean_sbu_0, # of connection points: 3
#     Node 19, Type 0, BuildingBlock: WUSLED_clean_sbu_0, # of connection points: 3
#     Node 20, Type 0, BuildingBlock: WUSLED_clean_sbu_0, # of connection points: 3
#     Node 21, Type 0, BuildingBlock: WUSLED_clean_sbu_0, # of connection points: 3
#     Node 22, Type 0, BuildingBlock: WUSLED_clean_sbu_0, # of connection points: 3
#     Node 23, Type 0, BuildingBlock: WUSLED_clean_sbu_0, # of connection points: 3
#     Node 24, Type 0, BuildingBlock: WUSLED_clean_sbu_0, # of connection points: 3
#     Node 25, Type 0, BuildingBlock: WUSLED_clean_sbu_0, # of connection points: 3
#     Node 26, Type 0, BuildingBlock: WUSLED_clean_sbu_0, # of connection points: 3
#     Node 27, Type 0, BuildingBlock: WUSLED_clean_sbu_0, # of connection points: 3
#     Node 28, Type 0, BuildingBlock: WUSLED_clean_sbu_0, # of connection points: 3
#     Node 29, Type 0, BuildingBlock: WUSLED_clean_sbu_0, # of connection points: 3
#     Node 30, Type 0, BuildingBlock: WUSLED_clean_sbu_0, # of connection points: 3
#     Node 31, Type 0, BuildingBlock: WUSLED_clean_sbu_0, # of connection points: 3
#     Node 32, Type 0, BuildingBlock: WUSLED_clean_sbu_0, # of connection points: 3
#     Node 33, Type 0, BuildingBlock: WUSLED_clean_sbu_0, # of connection points: 3
#     Node 34, Type 0, BuildingBlock: WUSLED_clean_sbu_0, # of connection points: 3
#     Node 35, Type 0, BuildingBlock: WUSLED_clean_sbu_0, # of connection points: 3
#     Node 36, Type 0, BuildingBlock: WUSLED_clean_sbu_0, # of connection points: 3
#     Node 37, Type 0, BuildingBlock: WUSLED_clean_sbu_0, # of connection points: 3
#     Node 38, Type 0, BuildingBlock: WUSLED_clean_sbu_0, # of connection points: 3
#     Node 39, Type 0, BuildingBlock: WUSLED_clean_sbu_0, # of connection points: 3
#     Node 40, Type 0, BuildingBlock: WUSLED_clean_sbu_0, # of connection points: 3
#     Node 41, Type 0, BuildingBlock: WUSLED_clean_sbu_0, # of connection points: 3
#     Node 42, Type 0, BuildingBlock: WUSLED_clean_sbu_0, # of connection points: 3
#     Node 43, Type 0, BuildingBlock: WUSLED_clean_sbu_0, # of connection points: 3
#     Node 44, Type 0, BuildingBlock: WUSLED_clean_sbu_0, # of connection points: 3
#     Node 45, Type 0, BuildingBlock: WUSLED_clean_sbu_0, # of connection points: 3
#     Node 46, Type 0, BuildingBlock: WUSLED_clean_sbu_0, # of connection points: 3
#     Node 47, Type 0, BuildingBlock: WUSLED_clean_sbu_0, # of connection points: 3
#     Node 48, Type 0, BuildingBlock: WUSLED_clean_sbu_0, # of connection points: 3
#     Node 49, Type 0, BuildingBlock: WUSLED_clean_sbu_0, # of connection points: 3
#     Node 50, Type 0, BuildingBlock: WUSLED_clean_sbu_0, # of connection points: 3
#     Node 51, Type 0, BuildingBlock: WUSLED_clean_sbu_0, # of connection points: 3
#     Node 52, Type 0, BuildingBlock: WUSLED_clean_sbu_0, # of connection points: 3
#     Node 53, Type 0, BuildingBlock: WUSLED_clean_sbu_0, # of connection points: 3
#     Node 54, Type 0, BuildingBlock: WUSLED_clean_sbu_0, # of connection points: 3
#     Node 55, Type 0, BuildingBlock: WUSLED_clean_sbu_0, # of connection points: 3
#     Node 56, Type 0, BuildingBlock: WUSLED_clean_sbu_0, # of connection points: 3
#     Node 57, Type 0, BuildingBlock: WUSLED_clean_sbu_0, # of connection points: 3
#     Node 58, Type 0, BuildingBlock: WUSLED_clean_sbu_0, # of connection points: 3
#     Node 59, Type 0, BuildingBlock: WUSLED_clean_sbu_0, # of connection points: 3
#     Node 60, Type 0, BuildingBlock: WUSLED_clean_sbu_0, # of connection points: 3
#     Node 61, Type 0, BuildingBlock: WUSLED_clean_sbu_0, # of connection points: 3
#     Node 62, Type 0, BuildingBlock: WUSLED_clean_sbu_0, # of connection points: 3
#     Node 63, Type 0, BuildingBlock: WUSLED_clean_sbu_0, # of connection points: 3
#     Node 64, Type 0, BuildingBlock: WUSLED_clean_sbu_0, # of connection points: 3
#     Node 65, Type 0, BuildingBlock: WUSLED_clean_sbu_0, # of connection points: 3
#     Node 66, Type 0, BuildingBlock: WUSLED_clean_sbu_0, # of connection points: 3
#     Node 67, Type 0, BuildingBlock: WUSLED_clean_sbu_0, # of connection points: 3
#     Node 68, Type 0, BuildingBlock: WUSLED_clean_sbu_0, # of connection points: 3
#     Node 69, Type 0, BuildingBlock: WUSLED_clean_sbu_0, # of connection points: 3
#     Node 70, Type 0, BuildingBlock: WUSLED_clean_sbu_0, # of connection points: 3
#     Node 71, Type 0, BuildingBlock: WUSLED_clean_sbu_0, # of connection points: 3
#     Node 72, Type 0, BuildingBlock: WUSLED_clean_sbu_0, # of connection points: 3
#     Node 73, Type 0, BuildingBlock: WUSLED_clean_sbu_0, # of connection points: 3
#     Node 74, Type 0, BuildingBlock: WUSLED_clean_sbu_0, # of connection points: 3
#     Node 75, Type 0, BuildingBlock: WUSLED_clean_sbu_0, # of connection points: 3
#     Node 76, Type 0, BuildingBlock: WUSLED_clean_sbu_0, # of connection points: 3
#     Node 77, Type 0, BuildingBlock: WUSLED_clean_sbu_0, # of connection points: 3
#     Node 78, Type 0, BuildingBlock: WUSLED_clean_sbu_0, # of connection points: 3
#     Node 79, Type 0, BuildingBlock: WUSLED_clean_sbu_0, # of connection points: 3
#     Node 80, Type 0, BuildingBlock: WUSLED_clean_sbu_0, # of connection points: 3
#     Node 81, Type 0, BuildingBlock: WUSLED_clean_sbu_0, # of connection points: 3
#     Node 82, Type 0, BuildingBlock: WUSLED_clean_sbu_0, # of connection points: 3
#     Node 83, Type 0, BuildingBlock: WUSLED_clean_sbu_0, # of connection points: 3
#     Node 84, Type 0, BuildingBlock: WUSLED_clean_sbu_0, # of connection points: 3
#     Node 85, Type 0, BuildingBlock: WUSLED_clean_sbu_0, # of connection points: 3
#     Node 86, Type 0, BuildingBlock: WUSLED_clean_sbu_0, # of connection points: 3
#     Node 87, Type 0, BuildingBlock: WUSLED_clean_sbu_0, # of connection points: 3
#     Node 88, Type 0, BuildingBlock: WUSLED_clean_sbu_0, # of connection points: 3
#     Node 89, Type 0, BuildingBlock: WUSLED_clean_sbu_0, # of connection points: 3
#     Node 90, Type 0, BuildingBlock: WUSLED_clean_sbu_0, # of connection points: 3
#     Node 91, Type 0, BuildingBlock: WUSLED_clean_sbu_0, # of connection points: 3
#     Node 92, Type 0, BuildingBlock: WUSLED_clean_sbu_0, # of connection points: 3
#     Node 93, Type 0, BuildingBlock: WUSLED_clean_sbu_0, # of connection points: 3
#     Node 94, Type 0, BuildingBlock: WUSLED_clean_sbu_0, # of connection points: 3
#     Node 95, Type 0, BuildingBlock: WUSLED_clean_sbu_0, # of connection points: 3
#     Node 96, Type 1, BuildingBlock: ESEHIV_clean_linker_0, # of connection points: 3
#     Node 97, Type 1, BuildingBlock: ESEHIV_clean_linker_0, # of connection points: 3
#     Node 98, Type 1, BuildingBlock: ESEHIV_clean_linker_0, # of connection points: 3
#     Node 99, Type 1, BuildingBlock: ESEHIV_clean_linker_0, # of connection points: 3
#     Node 100, Type 1, BuildingBlock: ESEHIV_clean_linker_0, # of connection points: 3
#     Node 101, Type 1, BuildingBlock: ESEHIV_clean_linker_0, # of connection points: 3
#     Node 102, Type 1, BuildingBlock: ESEHIV_clean_linker_0, # of connection points: 3
#     Node 103, Type 1, BuildingBlock: ESEHIV_clean_linker_0, # of connection points: 3
#     Node 104, Type 1, BuildingBlock: ESEHIV_clean_linker_0, # of connection points: 3
#     Node 105, Type 1, BuildingBlock: ESEHIV_clean_linker_0, # of connection points: 3
#     Node 106, Type 1, BuildingBlock: ESEHIV_clean_linker_0, # of connection points: 3
#     Node 107, Type 1, BuildingBlock: ESEHIV_clean_linker_0, # of connection points: 3
#     Node 108, Type 1, BuildingBlock: ESEHIV_clean_linker_0, # of connection points: 3
#     Node 109, Type 1, BuildingBlock: ESEHIV_clean_linker_0, # of connection points: 3
#     Node 110, Type 1, BuildingBlock: ESEHIV_clean_linker_0, # of connection points: 3
#     Node 111, Type 1, BuildingBlock: ESEHIV_clean_linker_0, # of connection points: 3
#     Node 112, Type 1, BuildingBlock: ESEHIV_clean_linker_0, # of connection points: 3
#     Node 113, Type 1, BuildingBlock: ESEHIV_clean_linker_0, # of connection points: 3
#     Node 114, Type 1, BuildingBlock: ESEHIV_clean_linker_0, # of connection points: 3
#     Node 115, Type 1, BuildingBlock: ESEHIV_clean_linker_0, # of connection points: 3
#     Node 116, Type 1, BuildingBlock: ESEHIV_clean_linker_0, # of connection points: 3
#     Node 117, Type 1, BuildingBlock: ESEHIV_clean_linker_0, # of connection points: 3
#     Node 118, Type 1, BuildingBlock: ESEHIV_clean_linker_0, # of connection points: 3
#     Node 119, Type 1, BuildingBlock: ESEHIV_clean_linker_0, # of connection points: 3
#     Node 120, Type 1, BuildingBlock: ESEHIV_clean_linker_0, # of connection points: 3
#     Node 121, Type 1, BuildingBlock: ESEHIV_clean_linker_0, # of connection points: 3
#     Node 122, Type 1, BuildingBlock: ESEHIV_clean_linker_0, # of connection points: 3
#     Node 123, Type 1, BuildingBlock: ESEHIV_clean_linker_0, # of connection points: 3
#     Node 124, Type 1, BuildingBlock: ESEHIV_clean_linker_0, # of connection points: 3
#     Node 125, Type 1, BuildingBlock: ESEHIV_clean_linker_0, # of connection points: 3
#     Node 126, Type 1, BuildingBlock: ESEHIV_clean_linker_0, # of connection points: 3
#     Node 127, Type 1, BuildingBlock: ESEHIV_clean_linker_0, # of connection points: 3
#     Node 128, Type 1, BuildingBlock: ESEHIV_clean_linker_0, # of connection points: 3
#     Node 129, Type 1, BuildingBlock: ESEHIV_clean_linker_0, # of connection points: 3
#     Node 130, Type 1, BuildingBlock: ESEHIV_clean_linker_0, # of connection points: 3
#     Node 131, Type 1, BuildingBlock: ESEHIV_clean_linker_0, # of connection points: 3
#     Node 132, Type 1, BuildingBlock: ESEHIV_clean_linker_0, # of connection points: 3
#     Node 133, Type 1, BuildingBlock: ESEHIV_clean_linker_0, # of connection points: 3
#     Node 134, Type 1, BuildingBlock: ESEHIV_clean_linker_0, # of connection points: 3
#     Node 135, Type 1, BuildingBlock: ESEHIV_clean_linker_0, # of connection points: 3
#     Node 136, Type 1, BuildingBlock: ESEHIV_clean_linker_0, # of connection points: 3
#     Node 137, Type 1, BuildingBlock: ESEHIV_clean_linker_0, # of connection points: 3
#     Node 138, Type 1, BuildingBlock: ESEHIV_clean_linker_0, # of connection points: 3
#     Node 139, Type 1, BuildingBlock: ESEHIV_clean_linker_0, # of connection points: 3
#     Node 140, Type 1, BuildingBlock: ESEHIV_clean_linker_0, # of connection points: 3
#     Node 141, Type 1, BuildingBlock: ESEHIV_clean_linker_0, # of connection points: 3
#     Node 142, Type 1, BuildingBlock: ESEHIV_clean_linker_0, # of connection points: 3
#     Node 143, Type 1, BuildingBlock: ESEHIV_clean_linker_0, # of connection points: 3
#     Node 144, Type 1, BuildingBlock: ESEHIV_clean_linker_0, # of connection points: 3
#     Node 145, Type 1, BuildingBlock: ESEHIV_clean_linker_0, # of connection points: 3
#     Node 146, Type 1, BuildingBlock: ESEHIV_clean_linker_0, # of connection points: 3
#     Node 147, Type 1, BuildingBlock: ESEHIV_clean_linker_0, # of connection points: 3
#     Node 148, Type 1, BuildingBlock: ESEHIV_clean_linker_0, # of connection points: 3
#     Node 149, Type 1, BuildingBlock: ESEHIV_clean_linker_0, # of connection points: 3
#     Node 150, Type 1, BuildingBlock: ESEHIV_clean_linker_0, # of connection points: 3
#     Node 151, Type 1, BuildingBlock: ESEHIV_clean_linker_0, # of connection points: 3
#     Node 152, Type 1, BuildingBlock: ESEHIV_clean_linker_0, # of connection points: 3
#     Node 153, Type 1, BuildingBlock: ESEHIV_clean_linker_0, # of connection points: 3
#     Node 154, Type 1, BuildingBlock: ESEHIV_clean_linker_0, # of connection points: 3
#     Node 155, Type 1, BuildingBlock: ESEHIV_clean_linker_0, # of connection points: 3
#     Node 156, Type 1, BuildingBlock: ESEHIV_clean_linker_0, # of connection points: 3
#     Node 157, Type 1, BuildingBlock: ESEHIV_clean_linker_0, # of connection points: 3
#     Node 158, Type 1, BuildingBlock: ESEHIV_clean_linker_0, # of connection points: 3
#     Node 159, Type 1, BuildingBlock: ESEHIV_clean_linker_0, # of connection points: 3
#     Node 160, Type 1, BuildingBlock: ESEHIV_clean_linker_0, # of connection points: 3
#     Node 161, Type 1, BuildingBlock: ESEHIV_clean_linker_0, # of connection points: 3
#     Node 162, Type 1, BuildingBlock: ESEHIV_clean_linker_0, # of connection points: 3
#     Node 163, Type 1, BuildingBlock: ESEHIV_clean_linker_0, # of connection points: 3
#     Node 164, Type 1, BuildingBlock: ESEHIV_clean_linker_0, # of connection points: 3
#     Node 165, Type 1, BuildingBlock: ESEHIV_clean_linker_0, # of connection points: 3
#     Node 166, Type 1, BuildingBlock: ESEHIV_clean_linker_0, # of connection points: 3
#     Node 167, Type 1, BuildingBlock: ESEHIV_clean_linker_0, # of connection points: 3
#     Node 168, Type 1, BuildingBlock: ESEHIV_clean_linker_0, # of connection points: 3
#     Node 169, Type 1, BuildingBlock: ESEHIV_clean_linker_0, # of connection points: 3
#     Node 170, Type 1, BuildingBlock: ESEHIV_clean_linker_0, # of connection points: 3
#     Node 171, Type 1, BuildingBlock: ESEHIV_clean_linker_0, # of connection points: 3
#     Node 172, Type 1, BuildingBlock: ESEHIV_clean_linker_0, # of connection points: 3
#     Node 173, Type 1, BuildingBlock: ESEHIV_clean_linker_0, # of connection points: 3
#     Node 174, Type 1, BuildingBlock: ESEHIV_clean_linker_0, # of connection points: 3
#     Node 175, Type 1, BuildingBlock: ESEHIV_clean_linker_0, # of connection points: 3
#     Node 176, Type 1, BuildingBlock: ESEHIV_clean_linker_0, # of connection points: 3
#     Node 177, Type 1, BuildingBlock: ESEHIV_clean_linker_0, # of connection points: 3
#     Node 178, Type 1, BuildingBlock: ESEHIV_clean_linker_0, # of connection points: 3
#     Node 179, Type 1, BuildingBlock: ESEHIV_clean_linker_0, # of connection points: 3
#     Node 180, Type 1, BuildingBlock: ESEHIV_clean_linker_0, # of connection points: 3
#     Node 181, Type 1, BuildingBlock: ESEHIV_clean_linker_0, # of connection points: 3
#     Node 182, Type 1, BuildingBlock: ESEHIV_clean_linker_0, # of connection points: 3
#     Node 183, Type 1, BuildingBlock: ESEHIV_clean_linker_0, # of connection points: 3
#     Node 184, Type 1, BuildingBlock: ESEHIV_clean_linker_0, # of connection points: 3
#     Node 185, Type 1, BuildingBlock: ESEHIV_clean_linker_0, # of connection points: 3
#     Node 186, Type 1, BuildingBlock: ESEHIV_clean_linker_0, # of connection points: 3
#     Node 187, Type 1, BuildingBlock: ESEHIV_clean_linker_0, # of connection points: 3
#     Node 188, Type 1, BuildingBlock: ESEHIV_clean_linker_0, # of connection points: 3
#     Node 189, Type 1, BuildingBlock: ESEHIV_clean_linker_0, # of connection points: 3
#     Node 190, Type 1, BuildingBlock: ESEHIV_clean_linker_0, # of connection points: 3
#     Node 191, Type 1, BuildingBlock: ESEHIV_clean_linker_0, # of connection points: 3
#     Edge 192, Type (0, 1), None
#     Edge 193, Type (0, 1), None
#     Edge 194, Type (0, 1), None
#     Edge 195, Type (0, 1), None
#     Edge 196, Type (0, 1), None
#     Edge 197, Type (0, 1), None
#     Edge 198, Type (0, 1), None
#     Edge 199, Type (0, 1), None
#     Edge 200, Type (0, 1), None
#     Edge 201, Type (0, 1), None
#     Edge 202, Type (0, 1), None
#     Edge 203, Type (0, 1), None
#     Edge 204, Type (0, 1), None
#     Edge 205, Type (0, 1), None
#     Edge 206, Type (0, 1), None
#     Edge 207, Type (0, 1), None
#     Edge 208, Type (0, 1), None
#     Edge 209, Type (0, 1), None
#     Edge 210, Type (0, 1), None
#     Edge 211, Type (0, 1), None
#     Edge 212, Type (0, 1), None
#     Edge 213, Type (0, 1), None
#     Edge 214, Type (0, 1), None
#     Edge 215, Type (0, 1), None
#     Edge 216, Type (0, 1), None
#     Edge 217, Type (0, 1), None
#     Edge 218, Type (0, 1), None
#     Edge 219, Type (0, 1), None
#     Edge 220, Type (0, 1), None
#     Edge 221, Type (0, 1), None
#     Edge 222, Type (0, 1), None
#     Edge 223, Type (0, 1), None
#     Edge 224, Type (0, 1), None
#     Edge 225, Type (0, 1), None
#     Edge 226, Type (0, 1), None
#     Edge 227, Type (0, 1), None
#     Edge 228, Type (0, 1), None
#     Edge 229, Type (0, 1), None
#     Edge 230, Type (0, 1), None
#     Edge 231, Type (0, 1), None
#     Edge 232, Type (0, 1), None
#     Edge 233, Type (0, 1), None
#     Edge 234, Type (0, 1), None
#     Edge 235, Type (0, 1), None
#     Edge 236, Type (0, 1), None
#     Edge 237, Type (0, 1), None
#     Edge 238, Type (0, 1), None
#     Edge 239, Type (0, 1), None
#     Edge 240, Type (0, 1), None
#     Edge 241, Type (0, 1), None
#     Edge 242, Type (0, 1), None
#     Edge 243, Type (0, 1), None
#     Edge 244, Type (0, 1), None
#     Edge 245, Type (0, 1), None
#     Edge 246, Type (0, 1), None
#     Edge 247, Type (0, 1), None
#     Edge 248, Type (0, 1), None
#     Edge 249, Type (0, 1), None
#     Edge 250, Type (0, 1), None
#     Edge 251, Type (0, 1), None
#     Edge 252, Type (0, 1), None
#     Edge 253, Type (0, 1), None
#     Edge 254, Type (0, 1), None
#     Edge 255, Type (0, 1), None
#     Edge 256, Type (0, 1), None
#     Edge 257, Type (0, 1), None
#     Edge 258, Type (0, 1), None
#     Edge 259, Type (0, 1), None
#     Edge 260, Type (0, 1), None
#     Edge 261, Type (0, 1), None
#     Edge 262, Type (0, 1), None
#     Edge 263, Type (0, 1), None
#     Edge 264, Type (0, 1), None
#     Edge 265, Type (0, 1), None
#     Edge 266, Type (0, 1), None
#     Edge 267, Type (0, 1), None
#     Edge 268, Type (0, 1), None
#     Edge 269, Type (0, 1), None
#     Edge 270, Type (0, 1), None
#     Edge 271, Type (0, 1), None
#     Edge 272, Type (0, 1), None
#     Edge 273, Type (0, 1), None
#     Edge 274, Type (0, 1), None
#     Edge 275, Type (0, 1), None
#     Edge 276, Type (0, 1), None
#     Edge 277, Type (0, 1), None
#     Edge 278, Type (0, 1), None
#     Edge 279, Type (0, 1), None
#     Edge 280, Type (0, 1), None
#     Edge 281, Type (0, 1), None
#     Edge 282, Type (0, 1), None
#     Edge 283, Type (0, 1), None
#     Edge 284, Type (0, 1), None
#     Edge 285, Type (0, 1), None
#     Edge 286, Type (0, 1), None
#     Edge 287, Type (0, 1), None
#     Edge 288, Type (0, 1), None
#     Edge 289, Type (0, 1), None
#     Edge 290, Type (0, 1), None
#     Edge 291, Type (0, 1), None
#     Edge 292, Type (0, 1), None
#     Edge 293, Type (0, 1), None
#     Edge 294, Type (0, 1), None
#     Edge 295, Type (0, 1), None
#     Edge 296, Type (0, 1), None
#     Edge 297, Type (0, 1), None
#     Edge 298, Type (0, 1), None
#     Edge 299, Type (0, 1), None
#     Edge 300, Type (0, 1), None
#     Edge 301, Type (0, 1), None
#     Edge 302, Type (0, 1), None
#     Edge 303, Type (0, 1), None
#     Edge 304, Type (0, 1), None
#     Edge 305, Type (0, 1), None
#     Edge 306, Type (0, 1), None
#     Edge 307, Type (0, 1), None
#     Edge 308, Type (0, 1), None
#     Edge 309, Type (0, 1), None
#     Edge 310, Type (0, 1), None
#     Edge 311, Type (0, 1), None
#     Edge 312, Type (0, 1), None
#     Edge 313, Type (0, 1), None
#     Edge 314, Type (0, 1), None
#     Edge 315, Type (0, 1), None
#     Edge 316, Type (0, 1), None
#     Edge 317, Type (0, 1), None
#     Edge 318, Type (0, 1), None
#     Edge 319, Type (0, 1), None
#     Edge 320, Type (0, 1), None
#     Edge 321, Type (0, 1), None
#     Edge 322, Type (0, 1), None
#     Edge 323, Type (0, 1), None
#     Edge 324, Type (0, 1), None
#     Edge 325, Type (0, 1), None
#     Edge 326, Type (0, 1), None
#     Edge 327, Type (0, 1), None
#     Edge 328, Type (0, 1), None
#     Edge 329, Type (0, 1), None
#     Edge 330, Type (0, 1), None
#     Edge 331, Type (0, 1), None
#     Edge 332, Type (0, 1), None
#     Edge 333, Type (0, 1), None
#     Edge 334, Type (0, 1), None
#     Edge 335, Type (0, 1), None
#     Edge 336, Type (0, 1), None
#     Edge 337, Type (0, 1), None
#     Edge 338, Type (0, 1), None
#     Edge 339, Type (0, 1), None
#     Edge 340, Type (0, 1), None
#     Edge 341, Type (0, 1), None
#     Edge 342, Type (0, 1), None
#     Edge 343, Type (0, 1), None
#     Edge 344, Type (0, 1), None
#     Edge 345, Type (0, 1), None
#     Edge 346, Type (0, 1), None
#     Edge 347, Type (0, 1), None
#     Edge 348, Type (0, 1), None
#     Edge 349, Type (0, 1), None
#     Edge 350, Type (0, 1), None
#     Edge 351, Type (0, 1), None
#     Edge 352, Type (0, 1), None
#     Edge 353, Type (0, 1), None
#     Edge 354, Type (0, 1), None
#     Edge 355, Type (0, 1), None
#     Edge 356, Type (0, 1), None
#     Edge 357, Type (0, 1), None
#     Edge 358, Type (0, 1), None
#     Edge 359, Type (0, 1), None
#     Edge 360, Type (0, 1), None
#     Edge 361, Type (0, 1), None
#     Edge 362, Type (0, 1), None
#     Edge 363, Type (0, 1), None
#     Edge 364, Type (0, 1), None
#     Edge 365, Type (0, 1), None
#     Edge 366, Type (0, 1), None
#     Edge 367, Type (0, 1), None
#     Edge 368, Type (0, 1), None
#     Edge 369, Type (0, 1), None
#     Edge 370, Type (0, 1), None
#     Edge 371, Type (0, 1), None
#     Edge 372, Type (0, 1), None
#     Edge 373, Type (0, 1), None
#     Edge 374, Type (0, 1), None
#     Edge 375, Type (0, 1), None
#     Edge 376, Type (0, 1), None
#     Edge 377, Type (0, 1), None
#     Edge 378, Type (0, 1), None
#     Edge 379, Type (0, 1), None
#     Edge 380, Type (0, 1), None
#     Edge 381, Type (0, 1), None
#     Edge 382, Type (0, 1), None
#     Edge 383, Type (0, 1), None
#     Edge 384, Type (0, 1), None
#     Edge 385, Type (0, 1), None
#     Edge 386, Type (0, 1), None
#     Edge 387, Type (0, 1), None
#     Edge 388, Type (0, 1), None
#     Edge 389, Type (0, 1), None
#     Edge 390, Type (0, 1), None
#     Edge 391, Type (0, 1), None
#     Edge 392, Type (0, 1), None
#     Edge 393, Type (0, 1), None
#     Edge 394, Type (0, 1), None
#     Edge 395, Type (0, 1), None
#     Edge 396, Type (0, 1), None
#     Edge 397, Type (0, 1), None
#     Edge 398, Type (0, 1), None
#     Edge 399, Type (0, 1), None
#     Edge 400, Type (0, 1), None
#     Edge 401, Type (0, 1), None
#     Edge 402, Type (0, 1), None
#     Edge 403, Type (0, 1), None
#     Edge 404, Type (0, 1), None
#     Edge 405, Type (0, 1), None
#     Edge 406, Type (0, 1), None
#     Edge 407, Type (0, 1), None
#     Edge 408, Type (0, 1), None
#     Edge 409, Type (0, 1), None
#     Edge 410, Type (0, 1), None
#     Edge 411, Type (0, 1), None
#     Edge 412, Type (0, 1), None
#     Edge 413, Type (0, 1), None
#     Edge 414, Type (0, 1), None
#     Edge 415, Type (0, 1), None
#     Edge 416, Type (0, 1), None
#     Edge 417, Type (0, 1), None
#     Edge 418, Type (0, 1), None
#     Edge 419, Type (0, 1), None
#     Edge 420, Type (0, 1), None
#     Edge 421, Type (0, 1), None
#     Edge 422, Type (0, 1), None
#     Edge 423, Type (0, 1), None
#     Edge 424, Type (0, 1), None
#     Edge 425, Type (0, 1), None
#     Edge 426, Type (0, 1), None
#     Edge 427, Type (0, 1), None
#     Edge 428, Type (0, 1), None
#     Edge 429, Type (0, 1), None
#     Edge 430, Type (0, 1), None
#     Edge 431, Type (0, 1), None
#     Edge 432, Type (0, 1), None
#     Edge 433, Type (0, 1), None
#     Edge 434, Type (0, 1), None
#     Edge 435, Type (0, 1), None
#     Edge 436, Type (0, 1), None
#     Edge 437, Type (0, 1), None
#     Edge 438, Type (0, 1), None
#     Edge 439, Type (0, 1), None
#     Edge 440, Type (0, 1), None
#     Edge 441, Type (0, 1), None
#     Edge 442, Type (0, 1), None
#     Edge 443, Type (0, 1), None
#     Edge 444, Type (0, 1), None
#     Edge 445, Type (0, 1), None
#     Edge 446, Type (0, 1), None
#     Edge 447, Type (0, 1), None
#     Edge 448, Type (0, 1), None
#     Edge 449, Type (0, 1), None
#     Edge 450, Type (0, 1), None
#     Edge 451, Type (0, 1), None
#     Edge 452, Type (0, 1), None
#     Edge 453, Type (0, 1), None
#     Edge 454, Type (0, 1), None
#     Edge 455, Type (0, 1), None
#     Edge 456, Type (0, 1), None
#     Edge 457, Type (0, 1), None
#     Edge 458, Type (0, 1), None
#     Edge 459, Type (0, 1), None
#     Edge 460, Type (0, 1), None
#     Edge 461, Type (0, 1), None
#     Edge 462, Type (0, 1), None
#     Edge 463, Type (0, 1), None
#     Edge 464, Type (0, 1), None
#     Edge 465, Type (0, 1), None
#     Edge 466, Type (0, 1), None
#     Edge 467, Type (0, 1), None
#     Edge 468, Type (0, 1), None
#     Edge 469, Type (0, 1), None
#     Edge 470, Type (0, 1), None
#     Edge 471, Type (0, 1), None
#     Edge 472, Type (0, 1), None
#     Edge 473, Type (0, 1), None
#     Edge 474, Type (0, 1), None
#     Edge 475, Type (0, 1), None
#     Edge 476, Type (0, 1), None
#     Edge 477, Type (0, 1), None
#     Edge 478, Type (0, 1), None
#     Edge 479, Type (0, 1), None
# Relax obj value: 0.119
# Max RMSD: 0.109
# Mean RMSD: 0.096
data_MOF--net-ana-f--node1-WUSLED_clean_sbu_0--node2-ESEHIV_clean_linker_0--edge1-none
_symmetry_space_group_name_H-M    P1
_symmetry_Int_Tables_number       1
_symmetry_cell_setting            triclinic
loop_
_symmetry_equiv_pos_as_xyz
'x, y, z'
_cell_length_a     93.721869
_cell_length_b     91.20286
_cell_length_c     91.210159
_cell_angle_alpha  89.955206
_cell_angle_beta   89.990961
_cell_angle_gamma 90.035656
loop_
_atom_site_label
_atom_site_type_symbol
_atom_site_fract_x
_atom_site_fract_y
_atom_site_fract_z
_atom_type_partial_charge
C0 C 0.07304 0.14225 0.4473 0.0
C1 C 0.0832 0.15296 0.44368 0.0
C2 C 0.09936 0.14322 0.46224 0.0
C3 C 0.09626 0.15346 0.45112 0.0
C4 C 0.08917 0.13238 0.4656 0.0
C5 C 0.07614 0.13195 0.45823 0.0
U6 U 0.04577 0.15173 0.41687 0.0
O7 O 0.03011 0.13712 0.40677 0.0
O8 O 0.02275 0.1565 0.41921 0.0
C9 C 0.01926 0.14509 0.41116 0.0
C10 C 0.05902 0.14168 0.44015 0.0
C11 C 0.00552 0.13777 0.41343 0.0
C12 C 0.99135 0.11544 0.41461 0.0
C13 C 0.00442 0.12272 0.41654 0.0
C14 C 0.98045 0.13841 0.4073 0.0
C15 C 0.97933 0.12318 0.40954 0.0
C16 C 0.99337 0.1456 0.40929 0.0
C17 C 0.07045 0.17589 0.39092 0.0
C18 C 0.08158 0.18604 0.36915 0.0
C19 C 0.09244 0.18959 0.39303 0.0
C20 C 0.08143 0.1816 0.3996 0.0
C21 C 0.09261 0.1919 0.37772 0.0
C22 C 0.07059 0.17813 0.37572 0.0
C23 C 0.0582 0.16817 0.39712 0.0
O24 O 0.05167 0.15397 0.44008 0.0
O25 O 0.05844 0.13452 0.42767 0.0
O26 O 0.05208 0.17358 0.40892 0.0
O27 O 0.05828 0.15378 0.39658 0.0
H28 H 0.08096 0.161 0.43524 0.0
H29 H 0.10381 0.16201 0.44834 0.0
H30 H 0.09129 0.12413 0.47387 0.0
H31 H 0.06842 0.12357 0.46111 0.0
H32 H 0.99078 0.10373 0.4165 0.0
H33 H 0.01376 0.11647 0.41965 0.0
H34 H 0.97158 0.14471 0.40303 0.0
H35 H 0.99408 0.15715 0.40653 0.0
H36 H 0.08147 0.18747 0.35736 0.0
H37 H 0.10068 0.19418 0.39997 0.0
H38 H 0.08139 0.18004 0.41138 0.0
H39 H 0.06209 0.17384 0.36891 0.0
C40 C 0.13401 0.82826 0.68858 0.0
C41 C 0.12538 0.84057 0.68608 0.0
C42 C 0.14592 0.85661 0.68882 0.0
C43 C 0.13128 0.8546 0.68619 0.0
C44 C 0.15442 0.84434 0.69209 0.0
C45 C 0.1485 0.83021 0.69187 0.0
U46 U 0.10225 0.80627 0.67777 0.0
O47 O 0.09903 0.79001 0.66054 0.0
O48 O 0.09443 0.78403 0.68343 0.0
C49 C 0.09545 0.77955 0.66975 0.0
C50 C 0.12803 0.81355 0.68615 0.0
C51 C 0.10211 0.76517 0.66691 0.0
C52 C 0.11957 0.75102 0.65316 0.0
C53 C 0.11542 0.76413 0.6599 0.0
C54 C 0.0981 0.73932 0.66213 0.0
C55 C 0.11055 0.73867 0.65344 0.0
C56 C 0.09385 0.75249 0.66864 0.0
C57 C 0.07017 0.832 0.66852 0.0
C58 C 0.05467 0.83202 0.64715 0.0
C59 C 0.05437 0.85252 0.66403 0.0
C60 C 0.06429 0.8454 0.67292 0.0
C61 C 0.05022 0.8463 0.6506 0.0
C62 C 0.06467 0.82489 0.65607 0.0
C63 C 0.08411 0.82795 0.67469 0.0
O64 O 0.11804 0.80942 0.69543 0.0
O65 O 0.12461 0.81104 0.67242 0.0
O66 O 0.08453 0.81977 0.68657 0.0
O67 O 0.09389 0.82456 0.66497 0.0
H68 H 0.11416 0.83929 0.68353 0.0
H69 H 0.12442 0.86389 0.6839 0.0
H70 H 0.16573 0.84562 0.69419 0.0
H71 H 0.15532 0.82081 0.69377 0.0
H72 H 0.12928 0.75103 0.64674 0.0
H73 H 0.12208 0.77375 0.65859 0.0
H74 H 0.09114 0.72989 0.66316 0.0
H75 H 0.0836 0.753 0.67413 0.0
H76 H 0.05164 0.82706 0.63682 0.0
H77 H 0.05105 0.86353 0.6669 0.0
H78 H 0.06845 0.85109 0.68244 0.0
H79 H 0.06912 0.81453 0.65248 0.0
C80 C 0.41865 0.86704 0.94099 0.0
C81 C 0.40804 0.85712 0.94523 0.0
C82 C 0.39364 0.87742 0.95465 0.0
C83 C 0.39566 0.86228 0.9521 0.0
C84 C 0.40472 0.88715 0.9512 0.0
C85 C 0.41711 0.88198 0.94441 0.0
U86 U 0.44656 0.84632 0.91472 0.0
O87 O 0.45932 0.86056 0.90034 0.0
O88 O 0.46979 0.84847 0.91826 0.0
C89 C 0.4712 0.85795 0.90748 0.0
C90 C 0.43119 0.86259 0.93241 0.0
C91 C 0.48459 0.85846 0.89909 0.0
C92 C 0.50316 0.87385 0.88873 0.0
C93 C 0.4903 0.87234 0.89621 0.0
C94 C 0.50501 0.84744 0.88686 0.0
C95 C 0.5109 0.86146 0.8841 0.0
C96 C 0.49193 0.84595 0.89429 0.0
C97 C 0.42588 0.81085 0.90276 0.0
C98 C 0.41427 0.79025 0.89056 0.0
C99 C 0.40261 0.80238 0.9109 0.0
C100 C 0.41425 0.81193 0.91236 0.0
C101 C 0.40234 0.79163 0.89977 0.0
C102 C 0.42591 0.7998 0.89203 0.0
C103 C 0.43793 0.82127 0.9033 0.0
O104 O 0.43936 0.85185 0.93713 0.0
O105 O 0.43044 0.86353 0.91806 0.0
O106 O 0.43587 0.83408 0.89703 0.0
O107 O 0.44502 0.8222 0.91571 0.0
H108 H 0.40906 0.84556 0.94275 0.0
H109 H 0.38724 0.85453 0.95465 0.0
H110 H 0.40339 0.89884 0.95281 0.0
H111 H 0.42528 0.88978 0.94125 0.0
H112 H 0.50693 0.88485 0.88649 0.0
H113 H 0.48477 0.88214 0.89981 0.0
H114 H 0.51061 0.83761 0.88357 0.0
H115 H 0.48765 0.83512 0.8964 0.0
H116 H 0.41436 0.78224 0.8818 0.0
H117 H 0.39364 0.80362 0.91828 0.0
H118 H 0.41405 0.82031 0.92076 0.0
H119 H 0.43482 0.79878 0.88453 0.0
C120 C 0.35928 0.14238 0.15474 0.0
C121 C 0.36202 0.12765 0.15158 0.0
C122 C 0.36027 0.12185 0.17773 0.0
C123 C 0.36219 0.11735 0.163 0.0
C124 C 0.35629 0.13645 0.18042 0.0
C125 C 0.35565 0.14652 0.16901 0.0
U126 U 0.37319 0.17103 0.12426 0.0
O127 O 0.37528 0.19282 0.13392 0.0
O128 O 0.35973 0.18927 0.11622 0.0
C129 C 0.36556 0.19864 0.12543 0.0
C130 C 0.36217 0.15432 0.14448 0.0
C131 C 0.36876 0.21355 0.12041 0.0
C132 C 0.36609 0.2395 0.12509 0.0
C133 C 0.36324 0.22502 0.12882 0.0
C134 C 0.38049 0.23137 0.10458 0.0
C135 C 0.37441 0.2429 0.11273 0.0
C136 C 0.37769 0.21669 0.10844 0.0
C137 C 0.40449 0.15171 0.10315 0.0
C138 C 0.42901 0.14671 0.09663 0.0
C139 C 0.41325 0.12663 0.10293 0.0
C140 C 0.40208 0.13667 0.10518 0.0
C141 C 0.42707 0.13156 0.09905 0.0
C142 C 0.41785 0.15653 0.09843 0.0
C143 C 0.39409 0.16314 0.10687 0.0
O144 O 0.37386 0.16198 0.14642 0.0
O145 O 0.35707 0.15445 0.13102 0.0
O146 O 0.39603 0.16942 0.11965 0.0
O147 O 0.38058 0.16121 0.10343 0.0
H148 H 0.3647 0.12426 0.14054 0.0
H149 H 0.36462 0.10607 0.16033 0.0
H150 H 0.3548 0.1406 0.19141 0.0
H151 H 0.35343 0.1579 0.17159 0.0
H152 H 0.36144 0.24813 0.13172 0.0
H153 H 0.35663 0.22278 0.13831 0.0
H154 H 0.38694 0.2337 0.095 0.0
H155 H 0.38232 0.20789 0.10205 0.0
H156 H 0.43932 0.15139 0.09416 0.0
H157 H 0.41105 0.1151 0.10459 0.0
H158 H 0.39175 0.13274 0.10881 0.0
H159 H 0.4199 0.16812 0.09684 0.0
C160 C 0.0731 0.86149 0.0565 0.0
C161 C 0.08325 0.85079 0.06012 0.0
C162 C 0.09942 0.86054 0.04155 0.0
C163 C 0.09631 0.8503 0.05267 0.0
C164 C 0.08924 0.87137 0.03819 0.0
C165 C 0.0762 0.87179 0.04557 0.0
U166 U 0.04584 0.85201 0.08697 0.0
O167 O 0.0302 0.86663 0.09707 0.0
O168 O 0.02281 0.84725 0.08463 0.0
C169 C 0.01934 0.85867 0.09268 0.0
C170 C 0.05909 0.86205 0.06367 0.0
C171 C 0.00561 0.86599 0.09041 0.0
C172 C 0.99145 0.88832 0.08917 0.0
C173 C 0.00452 0.88104 0.08726 0.0
C174 C 0.98053 0.86537 0.09654 0.0
C175 C 0.97942 0.88059 0.09426 0.0
C176 C 0.99344 0.85818 0.09457 0.0
C177 C 0.07047 0.82778 0.11288 0.0
C178 C 0.08155 0.81752 0.13464 0.0
C179 C 0.09245 0.8141 0.11076 0.0
C180 C 0.08146 0.82211 0.1042 0.0
C181 C 0.0926 0.81171 0.12606 0.0
C182 C 0.07058 0.82546 0.12808 0.0
C183 C 0.05825 0.83554 0.10669 0.0
O184 O 0.05172 0.84977 0.06375 0.0
O185 O 0.05853 0.86922 0.07615 0.0
O186 O 0.05211 0.83015 0.0949 0.0
O187 O 0.05837 0.84993 0.10724 0.0
H188 H 0.08102 0.84275 0.06856 0.0
H189 H 0.10386 0.84176 0.05545 0.0
H190 H 0.09135 0.87962 0.02991 0.0
H191 H 0.06849 0.88016 0.04269 0.0
H192 H 0.99089 0.90002 0.08726 0.0
H193 H 0.01387 0.88729 0.08414 0.0
H194 H 0.97164 0.85908 0.10081 0.0
H195 H 0.99413 0.84664 0.09736 0.0
H196 H 0.08141 0.81602 0.14642 0.0
H197 H 0.10071 0.80954 0.10382 0.0
H198 H 0.08145 0.82372 0.09243 0.0
H199 H 0.06207 0.82973 0.13489 0.0
C200 C 0.3614 0.86333 0.34886 0.0
C201 C 0.36287 0.87829 0.35191 0.0
C202 C 0.36203 0.88379 0.32572 0.0
C203 C 0.36299 0.88849 0.34045 0.0
C204 C 0.35907 0.86888 0.32301 0.0
C205 C 0.35871 0.85878 0.33449 0.0
U206 U 0.37354 0.83322 0.37921 0.0
O207 O 0.3751 0.81172 0.36884 0.0
O208 O 0.35864 0.81551 0.38557 0.0
C209 C 0.3648 0.80603 0.37671 0.0
C210 C 0.36577 0.85248 0.35978 0.0
C211 C 0.36765 0.79115 0.38214 0.0
C212 C 0.36484 0.76509 0.37803 0.0
C213 C 0.36219 0.77952 0.37391 0.0
C214 C 0.37892 0.77358 0.39864 0.0
C215 C 0.37292 0.7619 0.39063 0.0
C216 C 0.37631 0.78818 0.39438 0.0
C217 C 0.40375 0.851 0.40252 0.0
C218 C 0.42826 0.85586 0.40926 0.0
C219 C 0.4128 0.87599 0.4024 0.0
C220 C 0.40153 0.86605 0.40023 0.0
C221 C 0.42653 0.87095 0.40643 0.0
C222 C 0.41699 0.84613 0.40752 0.0
C223 C 0.39337 0.83964 0.39847 0.0
O224 O 0.37686 0.84392 0.35776 0.0
O225 O 0.35891 0.85086 0.37226 0.0
O226 O 0.39593 0.83328 0.38586 0.0
O227 O 0.37973 0.842 0.40093 0.0
H228 H 0.36495 0.88198 0.363 0.0
H229 H 0.36462 0.89992 0.34314 0.0
H230 H 0.35823 0.86463 0.31199 0.0
H231 H 0.35749 0.84724 0.33199 0.0
H232 H 0.36028 0.75636 0.37149 0.0
H233 H 0.35579 0.78159 0.36423 0.0
H234 H 0.38517 0.77142 0.40838 0.0
H235 H 0.3809 0.79709 0.40066 0.0
H236 H 0.43851 0.85115 0.41191 0.0
H237 H 0.41081 0.88751 0.40045 0.0
H238 H 0.39132 0.87004 0.39635 0.0
H239 H 0.4189 0.83454 0.40928 0.0
C240 C 0.4187 0.13673 0.56282 0.0
C241 C 0.40809 0.14666 0.55861 0.0
C242 C 0.39368 0.12639 0.54913 0.0
C243 C 0.39571 0.14152 0.55173 0.0
C244 C 0.40473 0.11665 0.55255 0.0
C245 C 0.41714 0.1218 0.55935 0.0
U246 U 0.44665 0.15742 0.58908 0.0
O247 O 0.45941 0.14319 0.60346 0.0
O248 O 0.46988 0.15526 0.58551 0.0
C249 C 0.47128 0.14577 0.59628 0.0
C250 C 0.43125 0.14115 0.57139 0.0
C251 C 0.48474 0.14516 0.60458 0.0
C252 C 0.5033 0.12963 0.61476 0.0
C253 C 0.4904 0.13124 0.60735 0.0
C254 C 0.50528 0.15603 0.61675 0.0
C255 C 0.51111 0.14197 0.61944 0.0
C256 C 0.49217 0.15761 0.60939 0.0
C257 C 0.42596 0.19289 0.601 0.0
C258 C 0.41436 0.2135 0.61319 0.0
C259 C 0.40271 0.20137 0.59284 0.0
C260 C 0.41434 0.19182 0.59139 0.0
C261 C 0.40243 0.21212 0.60397 0.0
C262 C 0.42598 0.20395 0.61172 0.0
C263 C 0.43802 0.18248 0.60047 0.0
O264 O 0.43945 0.15188 0.56667 0.0
O265 O 0.43051 0.14021 0.58574 0.0
O266 O 0.43596 0.16967 0.60676 0.0
O267 O 0.44511 0.18154 0.58806 0.0
H268 H 0.40914 0.15822 0.56112 0.0
H269 H 0.38731 0.14928 0.5492 0.0
H270 H 0.4034 0.10496 0.5509 0.0
H271 H 0.4253 0.11398 0.56248 0.0
H272 H 0.50702 0.11861 0.61693 0.0
H273 H 0.4848 0.12148 0.60374 0.0
H274 H 0.51093 0.16583 0.62005 0.0
H275 H 0.48794 0.16847 0.60736 0.0
H276 H 0.41445 0.22151 0.62195 0.0
H277 H 0.39375 0.20012 0.58545 0.0
H278 H 0.41414 0.18343 0.58299 0.0
H279 H 0.43489 0.20497 0.61923 0.0
C280 C 0.12814 0.16823 0.81259 0.0
C281 C 0.12105 0.15542 0.81681 0.0
C282 C 0.14313 0.14167 0.81353 0.0
C283 C 0.1285 0.14216 0.81715 0.0
C284 C 0.14993 0.15442 0.8086 0.0
C285 C 0.14246 0.16762 0.80815 0.0
U286 U 0.10309 0.20133 0.82475 0.0
O287 O 0.11536 0.21895 0.83465 0.0
O288 O 0.10315 0.22348 0.81462 0.0
C289 C 0.11156 0.22875 0.82491 0.0
C290 C 0.12201 0.1827 0.81503 0.0
C291 C 0.10845 0.24308 0.83131 0.0
C292 C 0.11886 0.26647 0.83803 0.0
C293 C 0.11823 0.25439 0.82868 0.0
C294 C 0.09906 0.25663 0.85202 0.0
C295 C 0.10969 0.26742 0.85017 0.0
C296 C 0.09848 0.24449 0.84268 0.0
C297 C 0.06948 0.18228 0.84247 0.0
C298 C 0.05092 0.17494 0.85954 0.0
C299 C 0.06327 0.15656 0.84521 0.0
C300 C 0.07143 0.16758 0.83846 0.0
C301 C 0.05328 0.16007 0.85629 0.0
C302 C 0.05886 0.18588 0.85264 0.0
C303 C 0.07884 0.19417 0.83737 0.0
O304 O 0.1115 0.1875 0.80672 0.0
O305 O 0.12131 0.18702 0.82873 0.0
O306 O 0.08008 0.19634 0.82316 0.0
O307 O 0.09088 0.19585 0.84456 0.0
H308 H 0.11004 0.15578 0.8204 0.0
H309 H 0.12294 0.13236 0.82071 0.0
H310 H 0.16117 0.15434 0.80581 0.0
H311 H 0.14811 0.17754 0.80509 0.0
H312 H 0.12695 0.27475 0.83613 0.0
H313 H 0.12613 0.25335 0.82007 0.0
H314 H 0.09184 0.25701 0.86128 0.0
H315 H 0.09103 0.23571 0.84502 0.0
H316 H 0.04354 0.17823 0.86805 0.0
H317 H 0.06513 0.14529 0.84203 0.0
H318 H 0.07951 0.16461 0.83051 0.0
H319 H 0.05716 0.19719 0.85581 0.0
C320 C 0.4511 0.06143 0.13524 0.0
C321 C 0.44398 0.07398 0.14025 0.0
C322 C 0.45346 0.08799 0.11962 0.0
C323 C 0.44522 0.08719 0.13253 0.0
C324 C 0.46124 0.07557 0.11522 0.0
C325 C 0.46004 0.06242 0.12296 0.0
U326 U 0.43299 0.0339 0.1619 0.0
O327 O 0.42185 0.01402 0.15547 0.0
O328 O 0.44097 0.01221 0.16957 0.0
C329 C 0.43028 0.00545 0.16309 0.0
C330 C 0.44808 0.04687 0.14135 0.0
C331 C 0.43136 0.99028 0.15808 0.0
C332 C 0.42951 0.97315 0.13782 0.0
C333 C 0.43388 0.98678 0.14335 0.0
C334 C 0.42077 0.96639 0.16187 0.0
C335 C 0.42199 0.96313 0.1468 0.0
C336 C 0.42562 0.97968 0.16743 0.0
C337 C 0.40982 0.06038 0.18749 0.0
C338 C 0.38995 0.0686 0.20244 0.0
C339 C 0.40379 0.08614 0.18835 0.0
C340 C 0.41257 0.07484 0.18323 0.0
C341 C 0.39211 0.08301 0.19761 0.0
C342 C 0.39875 0.05738 0.19739 0.0
C343 C 0.41684 0.04786 0.18061 0.0
O344 O 0.45321 0.04389 0.15445 0.0
O345 O 0.43494 0.04221 0.13944 0.0
O346 O 0.41258 0.0442 0.1674 0.0
O347 O 0.43039 0.04515 0.18324 0.0
H348 H 0.43706 0.0734 0.14974 0.0
H349 H 0.43941 0.09667 0.13645 0.0
H350 H 0.46766 0.07579 0.10534 0.0
H351 H 0.46558 0.0528 0.11894 0.0
H352 H 0.43124 0.97093 0.1263 0.0
H353 H 0.43824 0.99492 0.13594 0.0
H354 H 0.41494 0.95941 0.16933 0.0
H355 H 0.42339 0.9823 0.1788 0.0
H356 H 0.38093 0.06585 0.20936 0.0
H357 H 0.40569 0.09722 0.18455 0.0
H358 H 0.42104 0.07729 0.17552 0.0
H359 H 0.39641 0.04619 0.20063 0.0
C360 C 0.16874 0.19096 0.38674 0.0
C361 C 0.15812 0.19515 0.39666 0.0
C362 C 0.1437 0.20456 0.37637 0.0
C363 C 0.14572 0.20199 0.39151 0.0
C364 C 0.15477 0.20117 0.36663 0.0
C365 C 0.16718 0.19441 0.3718 0.0
U366 U 0.19666 0.16472 0.40747 0.0
O367 O 0.20942 0.15035 0.39325 0.0
O368 O 0.2199 0.16827 0.40534 0.0
C369 C 0.22131 0.1575 0.39587 0.0
C370 C 0.1813 0.18241 0.39117 0.0
C371 C 0.2347 0.14912 0.39539 0.0
C372 C 0.25327 0.13876 0.38002 0.0
C373 C 0.2404 0.14622 0.38151 0.0
C374 C 0.25515 0.13695 0.40643 0.0
C375 C 0.26102 0.13417 0.39242 0.0
C376 C 0.24206 0.14436 0.40791 0.0
C377 C 0.17592 0.15277 0.4429 0.0
C378 C 0.16428 0.14058 0.4635 0.0
C379 C 0.15266 0.16092 0.45132 0.0
C380 C 0.16431 0.16237 0.44179 0.0
C381 C 0.15236 0.1498 0.46209 0.0
C382 C 0.17592 0.14204 0.45397 0.0
C383 C 0.18799 0.1533 0.43251 0.0
O384 O 0.18947 0.18713 0.40191 0.0
O385 O 0.18057 0.16806 0.39023 0.0
O386 O 0.18594 0.14702 0.41971 0.0
O387 O 0.19509 0.16571 0.43158 0.0
H388 H 0.15917 0.19265 0.40822 0.0
H389 H 0.13732 0.20451 0.39926 0.0
H390 H 0.15343 0.2028 0.35495 0.0
H391 H 0.17535 0.1913 0.36399 0.0
H392 H 0.25703 0.1365 0.36903 0.0
H393 H 0.23485 0.14978 0.37171 0.0
H394 H 0.26076 0.13368 0.41627 0.0
H395 H 0.2378 0.14648 0.41873 0.0
H396 H 0.16435 0.13182 0.47153 0.0
H397 H 0.1437 0.16831 0.45005 0.0
H398 H 0.16412 0.17077 0.43339 0.0
H399 H 0.18482 0.13454 0.45502 0.0
C400 C 0.07243 0.91778 0.62062 0.0
C401 C 0.07967 0.90436 0.62139 0.0
C402 C 0.05684 0.89123 0.62094 0.0
C403 C 0.07192 0.89118 0.62151 0.0
C404 C 0.04978 0.90472 0.61952 0.0
C405 C 0.05751 0.91782 0.61938 0.0
U406 U 0.10095 0.94927 0.62929 0.0
O407 O 0.09256 0.97 0.63782 0.0
O408 O 0.1032 0.96966 0.6164 0.0
C409 C 0.09711 0.97769 0.62661 0.0
C410 C 0.07968 0.93207 0.62173 0.0
C411 C 0.1038 0.99177 0.63043 0.0
C412 C 0.10067 0.01778 0.63497 0.0
C413 C 0.09521 0.0043 0.63043 0.0
C414 C 0.12362 0.00644 0.63947 0.0
C415 C 0.11496 0.0191 0.63952 0.0
C416 C 0.11806 0.99285 0.63501 0.0
C417 C 0.13223 0.92687 0.647 0.0
C418 C 0.15393 0.91704 0.6578 0.0
C419 C 0.13178 0.90346 0.65962 0.0
C420 C 0.12481 0.91431 0.65148 0.0
C421 C 0.14634 0.90492 0.66335 0.0
C422 C 0.14691 0.92794 0.64979 0.0
C423 C 0.1247 0.93986 0.64141 0.0
O424 O 0.0811 0.93771 0.63489 0.0
O425 O 0.09035 0.93512 0.61286 0.0
O426 O 0.1134 0.94395 0.64891 0.0
O427 O 0.12308 0.9411 0.62714 0.0
H428 H 0.09119 0.90409 0.62229 0.0
H429 H 0.0777 0.88094 0.62246 0.0
H430 H 0.03824 0.90522 0.61927 0.0
H431 H 0.05174 0.9281 0.61877 0.0
H432 H 0.09357 0.02714 0.63513 0.0
H433 H 0.08411 0.00362 0.62715 0.0
H434 H 0.1347 0.00704 0.64276 0.0
H435 H 0.12482 0.98322 0.63523 0.0
H436 H 0.16518 0.91843 0.66012 0.0
H437 H 0.12547 0.89443 0.66378 0.0
H438 H 0.11347 0.9133 0.64944 0.0
H439 H 0.15281 0.93758 0.6464 0.0
C440 C 0.32305 0.80646 0.89222 0.0
C441 C 0.33321 0.81005 0.90293 0.0
C442 C 0.34935 0.79149 0.89317 0.0
C443 C 0.34626 0.8026 0.90341 0.0
C444 C 0.33916 0.78815 0.88234 0.0
C445 C 0.32613 0.79554 0.88192 0.0
U446 U 0.29582 0.83692 0.90171 0.0
O447 O 0.28017 0.84703 0.8871 0.0
O448 O 0.27279 0.83458 0.90649 0.0
C449 C 0.26932 0.84264 0.89508 0.0
C450 C 0.30905 0.81363 0.89167 0.0
C451 C 0.25557 0.84039 0.88777 0.0
C452 C 0.24139 0.83913 0.86546 0.0
C453 C 0.25446 0.83721 0.87273 0.0
C454 C 0.23052 0.84657 0.88839 0.0
C455 C 0.22938 0.84425 0.87318 0.0
C456 C 0.24343 0.84459 0.89558 0.0
C457 C 0.32048 0.86285 0.92589 0.0
C458 C 0.33155 0.88463 0.93608 0.0
C459 C 0.34244 0.86077 0.93961 0.0
C460 C 0.33146 0.85419 0.9316 0.0
C461 C 0.34259 0.87607 0.94194 0.0
C462 C 0.32059 0.87805 0.92815 0.0
C463 C 0.30825 0.85664 0.91814 0.0
O464 O 0.30169 0.8137 0.90396 0.0
O465 O 0.30848 0.82612 0.8845 0.0
O466 O 0.30212 0.84484 0.92356 0.0
O467 O 0.30836 0.85719 0.90376 0.0
H468 H 0.33099 0.81849 0.91097 0.0
H469 H 0.35382 0.80536 0.91196 0.0
H470 H 0.34127 0.77989 0.8741 0.0
H471 H 0.31841 0.79268 0.87355 0.0
H472 H 0.24081 0.83719 0.85376 0.0
H473 H 0.2638 0.83406 0.86649 0.0
H474 H 0.22165 0.85088 0.89466 0.0
H475 H 0.24414 0.8474 0.9071 0.0
H476 H 0.33142 0.89642 0.93753 0.0
H477 H 0.35069 0.85383 0.9442 0.0
H478 H 0.33144 0.84241 0.93004 0.0
H479 H 0.31208 0.88486 0.92385 0.0
C480 C 0.45179 0.93643 0.36391 0.0
C481 C 0.44395 0.92385 0.36041 0.0
C482 C 0.45386 0.91146 0.38184 0.0
C483 C 0.44514 0.91134 0.36922 0.0
C484 C 0.46239 0.92381 0.38461 0.0
C485 C 0.46139 0.93614 0.37567 0.0
U486 U 0.4338 0.97006 0.34273 0.0
O487 O 0.4297 0.98849 0.35728 0.0
O488 O 0.44463 0.9914 0.33893 0.0
C489 C 0.43843 0.99736 0.35042 0.0
C490 C 0.44807 0.95082 0.35805 0.0
C491 C 0.43347 0.01254 0.34973 0.0
C492 C 0.4323 0.03538 0.36325 0.0
C493 C 0.43927 0.0223 0.35998 0.0
C494 C 0.41437 0.02982 0.34491 0.0
C495 C 0.41953 0.039 0.35613 0.0
C496 C 0.42124 0.01653 0.34182 0.0
C497 C 0.40682 0.95006 0.31725 0.0
C498 C 0.38754 0.94026 0.30229 0.0
C499 C 0.40264 0.92381 0.31623 0.0
C500 C 0.41059 0.93577 0.32136 0.0
C501 C 0.3908 0.92597 0.30695 0.0
C502 C 0.39547 0.95219 0.30744 0.0
C503 C 0.41387 0.96298 0.32367 0.0
O504 O 0.45235 0.95503 0.34495 0.0
O505 O 0.43563 0.95608 0.362 0.0
O506 O 0.41134 0.96531 0.33765 0.0
O507 O 0.42728 0.96519 0.32002 0.0
H508 H 0.4364 0.92397 0.35142 0.0
H509 H 0.43876 0.90182 0.3665 0.0
H510 H 0.46915 0.92433 0.39423 0.0
H511 H 0.46734 0.9459 0.37865 0.0
H512 H 0.43649 0.04233 0.37188 0.0
H513 H 0.44859 0.01927 0.36633 0.0
H514 H 0.40449 0.03241 0.33932 0.0
H515 H 0.41649 0.00898 0.33406 0.0
H516 H 0.37841 0.94228 0.2953 0.0
H517 H 0.40546 0.91289 0.31991 0.0
H518 H 0.41935 0.93391 0.32887 0.0
H519 H 0.39242 0.96317 0.30416 0.0
C520 C 0.32312 0.19729 0.61144 0.0
C521 C 0.33328 0.1937 0.60075 0.0
C522 C 0.34943 0.21226 0.61051 0.0
C523 C 0.34634 0.20115 0.60027 0.0
C524 C 0.33923 0.2156 0.62133 0.0
C525 C 0.3262 0.20821 0.62175 0.0
U526 U 0.29585 0.16683 0.60196 0.0
O527 O 0.2802 0.15673 0.6166 0.0
O528 O 0.27281 0.16918 0.59722 0.0
C529 C 0.26934 0.16112 0.60864 0.0
C530 C 0.3091 0.19012 0.612 0.0
C531 C 0.25559 0.16334 0.61595 0.0
C532 C 0.2414 0.16463 0.63826 0.0
C533 C 0.25447 0.16656 0.63098 0.0
C534 C 0.23054 0.15709 0.61536 0.0
C535 C 0.2294 0.15946 0.63056 0.0
C536 C 0.24345 0.15908 0.60816 0.0
C537 C 0.32046 0.14091 0.57774 0.0
C538 C 0.33152 0.11915 0.56749 0.0
C539 C 0.34244 0.14302 0.56403 0.0
C540 C 0.33146 0.14958 0.57205 0.0
C541 C 0.34258 0.12772 0.56166 0.0
C542 C 0.32056 0.12571 0.57543 0.0
C543 C 0.30824 0.14711 0.5855 0.0
O544 O 0.30175 0.19005 0.59972 0.0
O545 O 0.30853 0.17762 0.61917 0.0
O546 O 0.30211 0.15891 0.58011 0.0
O547 O 0.30836 0.14655 0.59989 0.0
H548 H 0.33105 0.18527 0.59271 0.0
H549 H 0.35389 0.19839 0.59173 0.0
H550 H 0.34134 0.22386 0.62958 0.0
H551 H 0.31848 0.21107 0.63012 0.0
H552 H 0.24082 0.16661 0.64995 0.0
H553 H 0.26381 0.16976 0.6372 0.0
H554 H 0.22167 0.15275 0.6091 0.0
H555 H 0.24417 0.15623 0.59664 0.0
H556 H 0.33137 0.10737 0.56601 0.0
H557 H 0.35071 0.14996 0.55947 0.0
H558 H 0.33146 0.16135 0.57364 0.0
H559 H 0.31204 0.1189 0.57971 0.0
C560 C 0.07272 0.08514 0.88259 0.0
C561 C 0.07994 0.09858 0.88266 0.0
C562 C 0.05708 0.11164 0.88187 0.0
C563 C 0.07217 0.11174 0.88238 0.0
C564 C 0.05 0.09809 0.88247 0.0
C565 C 0.05774 0.08502 0.88283 0.0
U566 U 0.10113 0.05312 0.87505 0.0
O567 O 0.09231 0.03263 0.86646 0.0
O568 O 0.10254 0.03277 0.8881 0.0
C569 C 0.09659 0.02485 0.87771 0.0
C570 C 0.08005 0.07089 0.8817 0.0
C571 C 0.10343 0.01092 0.87379 0.0
C572 C 0.10054 0.98501 0.86867 0.0
C573 C 0.09494 0.99831 0.87349 0.0
C574 C 0.12341 0.99669 0.86445 0.0
C575 C 0.11487 0.98395 0.86415 0.0
C576 C 0.11771 0.01011 0.86919 0.0
C577 C 0.13334 0.07421 0.8578 0.0
C578 C 0.15508 0.08339 0.84648 0.0
C579 C 0.13314 0.09735 0.8449 0.0
C580 C 0.12612 0.08683 0.85332 0.0
C581 C 0.14764 0.09559 0.84096 0.0
C582 C 0.14794 0.07274 0.85475 0.0
C583 C 0.12549 0.06151 0.86348 0.0
O584 O 0.08179 0.06514 0.86863 0.0
O585 O 0.09039 0.06776 0.89096 0.0
O586 O 0.11429 0.05758 0.85574 0.0
O587 O 0.12339 0.06074 0.87771 0.0
H588 H 0.09149 0.09891 0.8826 0.0
H589 H 0.078 0.122 0.88224 0.0
H590 H 0.03847 0.09753 0.88196 0.0
H591 H 0.05198 0.07471 0.88284 0.0
H592 H 0.09353 0.97558 0.86829 0.0
H593 H 0.08383 0.99882 0.87673 0.0
H594 H 0.1345 0.99627 0.86117 0.0
H595 H 0.12436 0.01983 0.86914 0.0
H596 H 0.16626 0.08174 0.84398 0.0
H597 H 0.12681 0.10633 0.84069 0.0
H598 H 0.11482 0.0881 0.85552 0.0
H599 H 0.15367 0.06299 0.85813 0.0
C600 C 0.16874 0.81286 0.11708 0.0
C601 C 0.15813 0.80868 0.10714 0.0
C602 C 0.1437 0.79918 0.12738 0.0
C603 C 0.14573 0.8018 0.11226 0.0
C604 C 0.15475 0.80257 0.13714 0.0
C605 C 0.16716 0.80937 0.13201 0.0
U606 U 0.19671 0.83913 0.09639 0.0
O607 O 0.20948 0.8535 0.11061 0.0
O608 O 0.21993 0.83557 0.09855 0.0
C609 C 0.22135 0.84633 0.10803 0.0
C610 C 0.18131 0.82143 0.11267 0.0
C611 C 0.2348 0.85464 0.10863 0.0
C612 C 0.25338 0.86483 0.12412 0.0
C613 C 0.24048 0.85742 0.12254 0.0
C614 C 0.25535 0.8668 0.09773 0.0
C615 C 0.26118 0.8695 0.11178 0.0
C616 C 0.24223 0.85944 0.09617 0.0
C617 C 0.17598 0.85105 0.06093 0.0
C618 C 0.16436 0.86323 0.04032 0.0
C619 C 0.15271 0.84289 0.0525 0.0
C620 C 0.16436 0.84144 0.06204 0.0
C621 C 0.15242 0.854 0.04173 0.0
C622 C 0.176 0.86177 0.04985 0.0
C623 C 0.18805 0.85053 0.07133 0.0
O624 O 0.1895 0.81671 0.10194 0.0
O625 O 0.18058 0.83577 0.11361 0.0
O626 O 0.186 0.85681 0.08413 0.0
O627 O 0.19515 0.83812 0.07228 0.0
H628 H 0.15919 0.81121 0.09558 0.0
H629 H 0.13733 0.79929 0.10449 0.0
H630 H 0.15341 0.8009 0.14882 0.0
H631 H 0.17533 0.81248 0.13982 0.0
H632 H 0.2571 0.86702 0.13514 0.0
H633 H 0.23488 0.85382 0.1323 0.0
H634 H 0.26099 0.8701 0.08792 0.0
H635 H 0.238 0.8574 0.08531 0.0
H636 H 0.16444 0.87198 0.03228 0.0
H637 H 0.14374 0.8355 0.05377 0.0
H638 H 0.16416 0.83304 0.07044 0.0
H639 H 0.1849 0.86928 0.04881 0.0
C640 C 0.10955 0.40474 0.11156 0.0
C641 C 0.11191 0.40163 0.12637 0.0
C642 C 0.11014 0.4278 0.13199 0.0
C643 C 0.11189 0.41308 0.13661 0.0
C644 C 0.10644 0.43045 0.11729 0.0
C645 C 0.10601 0.41901 0.10726 0.0
U646 U 0.12346 0.37434 0.08273 0.0
O647 O 0.12558 0.38421 0.06101 0.0
O648 O 0.1098 0.3667 0.06449 0.0
C649 C 0.11575 0.37587 0.05515 0.0
C650 C 0.11288 0.39444 0.0998 0.0
C651 C 0.11893 0.37081 0.04025 0.0
C652 C 0.11623 0.37534 0.01427 0.0
C653 C 0.11342 0.37916 0.02873 0.0
C654 C 0.13059 0.35484 0.02253 0.0
C655 C 0.12452 0.36294 0.01095 0.0
C656 C 0.12782 0.35879 0.03718 0.0
C657 C 0.15445 0.3528 0.10191 0.0
C658 C 0.1789 0.34611 0.10702 0.0
C659 C 0.16328 0.35307 0.12697 0.0
C660 C 0.15211 0.35522 0.1169 0.0
C661 C 0.17705 0.34893 0.12211 0.0
C662 C 0.16773 0.34779 0.09719 0.0
C663 C 0.14413 0.35656 0.09042 0.0
O664 O 0.12463 0.39635 0.09222 0.0
O665 O 0.10746 0.38111 0.09935 0.0
O666 O 0.14622 0.36933 0.08415 0.0
O667 O 0.13057 0.35331 0.09237 0.0
H668 H 0.11453 0.3906 0.12987 0.0
H669 H 0.11411 0.41046 0.14795 0.0
H670 H 0.10506 0.44144 0.11308 0.0
H671 H 0.10407 0.42154 0.09581 0.0
H672 H 0.11159 0.38193 0.0056 0.0
H673 H 0.10683 0.38868 0.03091 0.0
H674 H 0.137 0.34524 0.02026 0.0
H675 H 0.13244 0.35244 0.04602 0.0
H676 H 0.18915 0.34341 0.10235 0.0
H677 H 0.16112 0.35503 0.13844 0.0
H678 H 0.14186 0.35911 0.12075 0.0
H679 H 0.16973 0.34591 0.08563 0.0
C680 C 0.60945 0.09915 0.89225 0.0
C681 C 0.6121 0.10224 0.87748 0.0
C682 C 0.61028 0.07607 0.87185 0.0
C683 C 0.61219 0.09078 0.86725 0.0
C684 C 0.60633 0.07346 0.88649 0.0
C685 C 0.60577 0.08491 0.89649 0.0
U686 U 0.62339 0.12957 0.92099 0.0
O687 O 0.62546 0.1198 0.94275 0.0
O688 O 0.60982 0.1374 0.93922 0.0
C689 C 0.61569 0.12821 0.94858 0.0
C690 C 0.61258 0.10944 0.90408 0.0
C691 C 0.61884 0.13323 0.9635 0.0
C692 C 0.61606 0.12861 0.98946 0.0
C693 C 0.61326 0.12486 0.97498 0.0
C694 C 0.63055 0.14907 0.9813 0.0
C695 C 0.62441 0.14096 0.99285 0.0
C696 C 0.62779 0.14519 0.96663 0.0
C697 C 0.6546 0.1509 0.90177 0.0
C698 C 0.6791 0.15748 0.89674 0.0
C699 C 0.6634 0.15097 0.87669 0.0
C700 C 0.65222 0.14874 0.88674 0.0
C701 C 0.67721 0.15493 0.8816 0.0
C702 C 0.66792 0.15572 0.90655 0.0
C703 C 0.64421 0.14715 0.91321 0.0
O704 O 0.6243 0.1075 0.9117 0.0
O705 O 0.60734 0.12283 0.90438 0.0
O706 O 0.64621 0.13436 0.91949 0.0
O707 O 0.63069 0.1505 0.91126 0.0
H708 H 0.61483 0.11326 0.87402 0.0
H709 H 0.61459 0.09339 0.85594 0.0
H710 H 0.60482 0.06248 0.8907 0.0
H711 H 0.60362 0.08239 0.9079 0.0
H712 H 0.61137 0.12201 0.99809 0.0
H713 H 0.60663 0.11537 0.97275 0.0
H714 H 0.63701 0.15864 0.98362 0.0
H715 H 0.63246 0.15156 0.95782 0.0
H716 H 0.68938 0.16002 0.90143 0.0
H717 H 0.66122 0.14922 0.86519 0.0
H718 H 0.64192 0.14503 0.88283 0.0
H719 H 0.66995 0.1574 0.91814 0.0
C720 C 0.20119 0.38546 0.19203 0.0
C721 C 0.19398 0.39041 0.17952 0.0
C722 C 0.20353 0.36985 0.1655 0.0
C723 C 0.19521 0.3827 0.16631 0.0
C724 C 0.21139 0.36551 0.17789 0.0
C725 C 0.21021 0.37326 0.19103 0.0
U726 U 0.18307 0.41193 0.21971 0.0
O727 O 0.17213 0.40532 0.23964 0.0
O728 O 0.19121 0.41951 0.24136 0.0
C729 C 0.18063 0.4129 0.24817 0.0
C730 C 0.19818 0.39153 0.2066 0.0
C731 C 0.18189 0.40776 0.26329 0.0
C732 C 0.17952 0.38741 0.28029 0.0
C733 C 0.18397 0.39292 0.26667 0.0
C734 C 0.17164 0.4117 0.28726 0.0
C735 C 0.17235 0.39656 0.2904 0.0
C736 C 0.17661 0.41721 0.27401 0.0
C737 C 0.15973 0.43753 0.19344 0.0
C738 C 0.13991 0.45254 0.18521 0.0
C739 C 0.15359 0.43831 0.1677 0.0
C740 C 0.16239 0.43319 0.17899 0.0
C741 C 0.14198 0.44763 0.17081 0.0
C742 C 0.14872 0.4475 0.19642 0.0
C743 C 0.16677 0.43068 0.20597 0.0
O744 O 0.20327 0.40464 0.20958 0.0
O745 O 0.18507 0.38953 0.2113 0.0
O746 O 0.18033 0.43333 0.20862 0.0
O747 O 0.16258 0.41743 0.20959 0.0
H748 H 0.18699 0.39985 0.18011 0.0
H749 H 0.18932 0.38658 0.15686 0.0
H750 H 0.21787 0.35569 0.17768 0.0
H751 H 0.21582 0.36928 0.20063 0.0
H752 H 0.18089 0.37583 0.28241 0.0
H753 H 0.18799 0.38543 0.25843 0.0
H754 H 0.16609 0.41932 0.29429 0.0
H755 H 0.17473 0.42868 0.27149 0.0
H756 H 0.13093 0.45951 0.18794 0.0
H757 H 0.15544 0.43444 0.15664 0.0
H758 H 0.17081 0.42543 0.17656 0.0
H759 H 0.14645 0.4508 0.2076 0.0
C760 C 0.88353 0.93859 0.42533 0.0
C761 C 0.87496 0.93575 0.41305 0.0
C762 C 0.89543 0.93885 0.39694 0.0
C763 C 0.88084 0.93588 0.399 0.0
C764 C 0.90386 0.94243 0.40918 0.0
C765 C 0.89795 0.9422 0.42332 0.0
U766 U 0.852 0.92793 0.44799 0.0
O767 O 0.84911 0.9111 0.46476 0.0
O768 O 0.84454 0.9341 0.47024 0.0
C769 C 0.84565 0.92053 0.47504 0.0
C770 C 0.87764 0.93632 0.44011 0.0
C771 C 0.85244 0.91797 0.48942 0.0
C772 C 0.87001 0.9043 0.50353 0.0
C773 C 0.86583 0.91111 0.49045 0.0
C774 C 0.84848 0.91301 0.51526 0.0
C775 C 0.86095 0.90436 0.51585 0.0
C776 C 0.84419 0.91959 0.50212 0.0
C777 C 0.81979 0.91828 0.42212 0.0
C778 C 0.80401 0.89711 0.42168 0.0
C779 C 0.8047 0.91381 0.40103 0.0
C780 C 0.81446 0.92263 0.40845 0.0
C781 C 0.80013 0.90049 0.40719 0.0
C782 C 0.81389 0.90594 0.42911 0.0
C783 C 0.83368 0.92433 0.42655 0.0
O784 O 0.86766 0.94561 0.44419 0.0
O785 O 0.87429 0.92261 0.44291 0.0
O786 O 0.8341 0.93638 0.43447 0.0
O787 O 0.84335 0.91461 0.43025 0.0
H788 H 0.8638 0.93296 0.41437 0.0
H789 H 0.87402 0.93336 0.38975 0.0
H790 H 0.91511 0.9448 0.40788 0.0
H791 H 0.90473 0.94438 0.43269 0.0
H792 H 0.87976 0.89795 0.50348 0.0
H793 H 0.87249 0.9099 0.48082 0.0
H794 H 0.8415 0.91391 0.52467 0.0
H795 H 0.8339 0.92498 0.50162 0.0
H796 H 0.80063 0.88688 0.42663 0.0
H797 H 0.8018 0.91666 0.38988 0.0
H798 H 0.81894 0.93205 0.40284 0.0
H799 H 0.81791 0.90238 0.43967 0.0
C800 C 0.82243 0.13302 0.16773 0.0
C801 C 0.82968 0.13226 0.15432 0.0
C802 C 0.80687 0.1327 0.14117 0.0
C803 C 0.82195 0.13214 0.14113 0.0
C804 C 0.79979 0.13411 0.15465 0.0
C805 C 0.8075 0.13425 0.16776 0.0
U806 U 0.85094 0.12439 0.19923 0.0
O807 O 0.84259 0.11581 0.21998 0.0
O808 O 0.85322 0.13724 0.21962 0.0
C809 C 0.84715 0.12701 0.22767 0.0
C810 C 0.82965 0.13193 0.18204 0.0
C811 C 0.85387 0.12318 0.24173 0.0
C812 C 0.85079 0.11864 0.26777 0.0
C813 C 0.8453 0.12317 0.2543 0.0
C814 C 0.87371 0.11411 0.25637 0.0
C815 C 0.86508 0.11407 0.26906 0.0
C816 C 0.86813 0.11859 0.24279 0.0
C817 C 0.8822 0.10673 0.17676 0.0
C818 C 0.90388 0.09591 0.16691 0.0
C819 C 0.88172 0.09413 0.15337 0.0
C820 C 0.87477 0.10226 0.16422 0.0
C821 C 0.89628 0.09038 0.1548 0.0
C822 C 0.89688 0.10392 0.17781 0.0
C823 C 0.87468 0.1123 0.18977 0.0
O824 O 0.83108 0.11877 0.1877 0.0
O825 O 0.84032 0.14082 0.18509 0.0
O826 O 0.8634 0.10479 0.19389 0.0
O827 O 0.87306 0.12657 0.19101 0.0
H828 H 0.8412 0.13138 0.15407 0.0
H829 H 0.82775 0.13121 0.1309 0.0
H830 H 0.78825 0.13436 0.15514 0.0
H831 H 0.80171 0.13486 0.17803 0.0
H832 H 0.84371 0.11848 0.27715 0.0
H833 H 0.83421 0.12647 0.25364 0.0
H834 H 0.88479 0.11082 0.25695 0.0
H835 H 0.87487 0.11836 0.23314 0.0
H836 H 0.91513 0.09358 0.16828 0.0
H837 H 0.87539 0.08999 0.14435 0.0
H838 H 0.86343 0.10431 0.16323 0.0
H839 H 0.9028 0.1073 0.18744 0.0
C840 C 0.38406 0.56526 0.57817 0.0
C841 C 0.37541 0.56777 0.59046 0.0
C842 C 0.39588 0.56491 0.60656 0.0
C843 C 0.38125 0.56761 0.6045 0.0
C844 C 0.4044 0.56161 0.5943 0.0
C845 C 0.39853 0.56189 0.58016 0.0
U846 U 0.35249 0.57634 0.55595 0.0
O847 O 0.34958 0.5936 0.53962 0.0
O848 O 0.3448 0.57076 0.53366 0.0
C849 C 0.34599 0.58442 0.52916 0.0
C850 C 0.37816 0.56777 0.56344 0.0
C851 C 0.35274 0.58718 0.5148 0.0
C852 C 0.37046 0.60063 0.50062 0.0
C853 C 0.36614 0.59404 0.51377 0.0
C854 C 0.34894 0.59187 0.48889 0.0
C855 C 0.36151 0.60037 0.48823 0.0
C856 C 0.34453 0.5855 0.50209 0.0
C857 C 0.32027 0.58561 0.58162 0.0
C858 C 0.30475 0.60696 0.58178 0.0
C859 C 0.30447 0.58993 0.60218 0.0
C860 C 0.3144 0.58111 0.595 0.0
C861 C 0.3003 0.6034 0.59605 0.0
C862 C 0.31476 0.59811 0.57459 0.0
C863 C 0.33421 0.57946 0.57751 0.0
O864 O 0.36815 0.55857 0.55923 0.0
O865 O 0.37484 0.58153 0.56092 0.0
O866 O 0.33463 0.5676 0.56933 0.0
O867 O 0.34402 0.58917 0.57415 0.0
H868 H 0.3642 0.57039 0.58915 0.0
H869 H 0.37438 0.56992 0.61377 0.0
H870 H 0.4157 0.55946 0.59561 0.0
H871 H 0.40537 0.55998 0.57078 0.0
H872 H 0.38025 0.60692 0.5006 0.0
H873 H 0.37277 0.59533 0.52342 0.0
H874 H 0.34201 0.59088 0.47944 0.0
H875 H 0.33422 0.58013 0.50258 0.0
H876 H 0.30169 0.61732 0.57688 0.0
H877 H 0.30115 0.58697 0.61317 0.0
H878 H 0.31856 0.57155 0.60063 0.0
H879 H 0.3192 0.60179 0.56425 0.0
C880 C 0.20162 0.61399 0.31745 0.0
C881 C 0.19379 0.61051 0.33004 0.0
C882 C 0.20377 0.63192 0.3424 0.0
C883 C 0.195 0.61933 0.34253 0.0
C884 C 0.21229 0.63468 0.33004 0.0
C885 C 0.21126 0.62574 0.31772 0.0
U886 U 0.18366 0.59274 0.28384 0.0
O887 O 0.17954 0.60727 0.26538 0.0
O888 O 0.1945 0.58895 0.26253 0.0
C889 C 0.18829 0.60042 0.25653 0.0
C890 C 0.1979 0.6081 0.30307 0.0
C891 C 0.18336 0.59972 0.24134 0.0
C892 C 0.18225 0.61327 0.21848 0.0
C893 C 0.18918 0.60999 0.23159 0.0
C894 C 0.16431 0.5949 0.224 0.0
C895 C 0.16949 0.60614 0.21484 0.0
C896 C 0.17114 0.59181 0.23732 0.0
C897 C 0.15672 0.56726 0.30391 0.0
C898 C 0.13743 0.55235 0.3138 0.0
C899 C 0.15265 0.56626 0.33017 0.0
C900 C 0.16056 0.57136 0.31818 0.0
C901 C 0.14076 0.55701 0.32806 0.0
C902 C 0.14534 0.55748 0.30183 0.0
C903 C 0.16375 0.57366 0.29096 0.0
O904 O 0.2022 0.59502 0.29889 0.0
O905 O 0.18546 0.61203 0.2978 0.0
O906 O 0.1612 0.58763 0.28859 0.0
O907 O 0.17716 0.57003 0.28876 0.0
H908 H 0.18621 0.60154 0.32994 0.0
H909 H 0.18863 0.61662 0.35206 0.0
H910 H 0.21909 0.64427 0.32951 0.0
H911 H 0.21721 0.62869 0.30796 0.0
H912 H 0.18645 0.62191 0.21155 0.0
H913 H 0.1985 0.61635 0.23464 0.0
H914 H 0.15444 0.5893 0.22138 0.0
H915 H 0.16638 0.58404 0.24486 0.0
H916 H 0.12827 0.54539 0.31182 0.0
H917 H 0.15552 0.56993 0.34107 0.0
H918 H 0.16936 0.57886 0.32 0.0
H919 H 0.14223 0.55421 0.29087 0.0
C920 C 0.32233 0.37071 0.83597 0.0
C921 C 0.32954 0.3714 0.84941 0.0
C922 C 0.3067 0.37092 0.86249 0.0
C923 C 0.32178 0.37147 0.86258 0.0
C924 C 0.29966 0.36957 0.84899 0.0
C925 C 0.3074 0.36949 0.8359 0.0
U926 U 0.35089 0.37942 0.8045 0.0
O927 O 0.34253 0.388 0.78376 0.0
O928 O 0.35313 0.36657 0.78411 0.0
C929 C 0.34707 0.3768 0.77607 0.0
C930 C 0.32959 0.37185 0.82169 0.0
C931 C 0.3538 0.38064 0.76201 0.0
C932 C 0.35074 0.38517 0.73597 0.0
C933 C 0.34524 0.38064 0.74945 0.0
C934 C 0.37366 0.38969 0.74737 0.0
C935 C 0.36504 0.38972 0.73469 0.0
C936 C 0.36806 0.38523 0.76096 0.0
C937 C 0.38221 0.39706 0.82692 0.0
C938 C 0.40392 0.40789 0.83672 0.0
C939 C 0.38179 0.40967 0.85031 0.0
C940 C 0.3748 0.40153 0.83948 0.0
C941 C 0.39634 0.41341 0.84884 0.0
C942 C 0.39688 0.39988 0.82583 0.0
C943 C 0.37465 0.39149 0.81394 0.0
O944 O 0.33104 0.38502 0.81606 0.0
O945 O 0.34025 0.36297 0.81864 0.0
O946 O 0.36337 0.39901 0.80984 0.0
O947 O 0.37301 0.37723 0.8127 0.0
H948 H 0.34107 0.37227 0.8497 0.0
H949 H 0.32754 0.37236 0.87283 0.0
H950 H 0.28811 0.36934 0.84846 0.0
H951 H 0.30164 0.36893 0.82561 0.0
H952 H 0.34366 0.38532 0.72659 0.0
H953 H 0.33414 0.37735 0.7501 0.0
H954 H 0.38475 0.39299 0.7468 0.0
H955 H 0.3748 0.38545 0.77061 0.0
H956 H 0.41516 0.41022 0.83532 0.0
H957 H 0.37547 0.41382 0.85934 0.0
H958 H 0.36346 0.39948 0.84049 0.0
H959 H 0.40278 0.3965 0.81619 0.0
C960 C 0.91872 0.86311 0.56078 0.0
C961 C 0.90836 0.85296 0.55645 0.0
C962 C 0.89324 0.873 0.54776 0.0
C963 C 0.89572 0.85788 0.54993 0.0
C964 C 0.90394 0.88303 0.55158 0.0
C965 C 0.91656 0.87811 0.55805 0.0
U966 U 0.94748 0.8416 0.58493 0.0
O967 O 0.96096 0.85496 0.5995 0.0
O968 O 0.97065 0.84351 0.58067 0.0
C969 C 0.97246 0.85272 0.59161 0.0
C970 C 0.93182 0.85882 0.56844 0.0
C971 C 0.98651 0.85427 0.59866 0.0
C972 C 0.00519 0.87091 0.60674 0.0
C973 C 0.99207 0.86846 0.59996 0.0
C974 C 0.00771 0.84481 0.61076 0.0
C975 C 0.01332 0.85915 0.61226 0.0
C976 C 0.99439 0.84239 0.60408 0.0
C977 C 0.92584 0.80637 0.59596 0.0
C978 C 0.91368 0.78571 0.60762 0.0
C979 C 0.90211 0.79902 0.58799 0.0
C980 C 0.91406 0.80823 0.58667 0.0
C981 C 0.9016 0.78782 0.59871 0.0
C982 C 0.92563 0.79489 0.60625 0.0
C983 C 0.93832 0.81634 0.59556 0.0
O984 O 0.93169 0.85929 0.58282 0.0
O985 O 0.93971 0.84819 0.56303 0.0
O986 O 0.93693 0.82892 0.60244 0.0
O987 O 0.94519 0.81758 0.58303 0.0
H988 H 0.9099 0.84134 0.55838 0.0
H989 H 0.88769 0.84987 0.54692 0.0
H990 H 0.9023 0.89471 0.55018 0.0
H991 H 0.92453 0.88609 0.56129 0.0
H992 H 0.00874 0.88214 0.60791 0.0
H993 H 0.98612 0.87779 0.59584 0.0
H994 H 0.01363 0.83538 0.61461 0.0
H995 H 0.99027 0.83133 0.60316 0.0
H996 H 0.91369 0.77738 0.61608 0.0
H997 H 0.89311 0.80087 0.58077 0.0
H998 H 0.914 0.81694 0.57859 0.0
H999 H 0.93463 0.79323 0.61351 0.0
C1000 C 0.86333 0.14146 0.34644 0.0
C1001 C 0.87586 0.13314 0.34608 0.0
C1002 C 0.86762 0.12098 0.32382 0.0
C1003 C 0.87802 0.12303 0.33483 0.0
C1004 C 0.85447 0.12827 0.32519 0.0
C1005 C 0.85239 0.13848 0.33638 0.0
U1006 U 0.8761 0.1726 0.37294 0.0
O1007 O 0.87782 0.19469 0.36379 0.0
O1008 O 0.86345 0.19072 0.38247 0.0
C1009 C 0.86862 0.20028 0.37303 0.0
C1010 C 0.86301 0.15555 0.35406 0.0
C1011 C 0.87157 0.21534 0.37785 0.0
C1012 C 0.86746 0.24116 0.37338 0.0
C1013 C 0.86518 0.22656 0.36973 0.0
C1014 C 0.88303 0.23372 0.39324 0.0
C1015 C 0.8761 0.24498 0.38538 0.0
C1016 C 0.88078 0.21891 0.38947 0.0
C1017 C 0.90797 0.15179 0.39183 0.0
C1018 C 0.93205 0.1453 0.39879 0.0
C1019 C 0.91509 0.12614 0.3929 0.0
C1020 C 0.90462 0.13687 0.39021 0.0
C1021 C 0.92907 0.13025 0.39704 0.0
C1022 C 0.92162 0.15583 0.39641 0.0
C1023 C 0.89803 0.16379 0.38849 0.0
O1024 O 0.8594 0.15601 0.368 0.0
O1025 O 0.87369 0.16424 0.35075 0.0
O1026 O 0.88479 0.16276 0.39317 0.0
O1027 O 0.89922 0.16972 0.37541 0.0
H1028 H 0.88448 0.13542 0.35367 0.0
H1029 H 0.88834 0.11775 0.33419 0.0
H1030 H 0.84608 0.12668 0.31719 0.0
H1031 H 0.84267 0.14492 0.33645 0.0
H1032 H 0.86219 0.24953 0.36692 0.0
H1033 H 0.85829 0.22401 0.36054 0.0
H1034 H 0.88976 0.23635 0.40253 0.0
H1035 H 0.88603 0.21034 0.39567 0.0
H1036 H 0.94264 0.14922 0.40139 0.0
H1037 H 0.91225 0.11472 0.39156 0.0
H1038 H 0.89407 0.13355 0.38668 0.0
H1039 H 0.9244 0.1673 0.39769 0.0
C1040 C 0.57176 0.1481 0.05378 0.0
C1041 C 0.58155 0.1593 0.057 0.0
C1042 C 0.59838 0.14903 0.03942 0.0
C1043 C 0.59479 0.15976 0.04987 0.0
C1044 C 0.58859 0.13769 0.03651 0.0
C1045 C 0.57542 0.13727 0.0436 0.0
U1046 U 0.54361 0.1586 0.08293 0.0
O1047 O 0.52038 0.16203 0.08016 0.0
O1048 O 0.52857 0.14398 0.09402 0.0
C1049 C 0.51742 0.15123 0.08922 0.0
C1050 C 0.55761 0.14745 0.06065 0.0
C1051 C 0.50384 0.14342 0.0882 0.0
C1052 C 0.48961 0.12182 0.0826 0.0
C1053 C 0.50228 0.12993 0.08094 0.0
C1054 C 0.48014 0.14091 0.09834 0.0
C1055 C 0.47855 0.12725 0.09148 0.0
C1056 C 0.49264 0.1489 0.09671 0.0
C1057 C 0.56756 0.18516 0.10696 0.0
C1058 C 0.57885 0.19673 0.12787 0.0
C1059 C 0.59038 0.19724 0.10405 0.0
C1060 C 0.57899 0.18938 0.09801 0.0
C1061 C 0.59046 0.20088 0.11909 0.0
C1062 C 0.56752 0.18896 0.12183 0.0
C1063 C 0.55535 0.17685 0.10148 0.0
O1064 O 0.55704 0.14116 0.07361 0.0
O1065 O 0.54977 0.15937 0.05968 0.0
O1066 O 0.55578 0.16256 0.1031 0.0
O1067 O 0.54914 0.1812 0.0893 0.0
H1068 H 0.57888 0.16775 0.06488 0.0
H1069 H 0.60207 0.16866 0.05228 0.0
H1070 H 0.59112 0.1291 0.02873 0.0
H1071 H 0.56801 0.12849 0.04105 0.0
H1072 H 0.48853 0.11131 0.07719 0.0
H1073 H 0.51094 0.12552 0.07444 0.0
H1074 H 0.47183 0.1452 0.1054 0.0
H1075 H 0.4938 0.15914 0.10263 0.0
H1076 H 0.57867 0.19917 0.13949 0.0
H1077 H 0.59912 0.20046 0.09698 0.0
H1078 H 0.57911 0.18658 0.08647 0.0
H1079 H 0.55871 0.18576 0.12885 0.0
C1080 C 0.63089 0.82817 0.81177 0.0
C1081 C 0.62163 0.8401 0.81389 0.0
C1082 C 0.64153 0.85715 0.81167 0.0
C1083 C 0.62691 0.85444 0.81386 0.0
C1084 C 0.65068 0.84521 0.80901 0.0
C1085 C 0.64539 0.83083 0.80915 0.0
U1086 U 0.6004 0.80339 0.82156 0.0
O1087 O 0.59413 0.7808 0.8152 0.0
O1088 O 0.5987 0.78626 0.83827 0.0
C1089 C 0.5949 0.77612 0.82884 0.0
C1090 C 0.62565 0.81306 0.81383 0.0
C1091 C 0.59987 0.7611 0.832 0.0
C1092 C 0.61831 0.74351 0.83893 0.0
C1093 C 0.61429 0.75697 0.83248 0.0
C1094 C 0.59352 0.73834 0.84403 0.0
C1095 C 0.60801 0.73418 0.84554 0.0
C1096 C 0.5896 0.75137 0.83721 0.0
C1097 C 0.56699 0.82902 0.82999 0.0
C1098 C 0.55053 0.83114 0.85051 0.0
C1099 C 0.553 0.85113 0.83321 0.0
C1100 C 0.56256 0.84281 0.82499 0.0
C1101 C 0.54766 0.84575 0.84657 0.0
C1102 C 0.56027 0.82282 0.84231 0.0
C1103 C 0.58096 0.82382 0.82478 0.0
O1104 O 0.62219 0.80997 0.82742 0.0
O1105 O 0.61616 0.80841 0.80427 0.0
O1106 O 0.59026 0.82026 0.83492 0.0
O1107 O 0.58197 0.81598 0.81272 0.0
H1108 H 0.61039 0.83828 0.81596 0.0
H1109 H 0.61956 0.86343 0.81566 0.0
H1110 H 0.66198 0.84697 0.80728 0.0
H1111 H 0.6527 0.82177 0.8076 0.0
H1112 H 0.62953 0.74085 0.83915 0.0
H1113 H 0.62245 0.76436 0.82844 0.0
H1114 H 0.58484 0.73228 0.84881 0.0
H1115 H 0.5784 0.75437 0.83704 0.0
H1116 H 0.54649 0.82672 0.86073 0.0
H1117 H 0.55084 0.86231 0.82985 0.0
H1118 H 0.56767 0.84782 0.81557 0.0
H1119 H 0.56355 0.81218 0.84637 0.0
C1120 C 0.92062 0.13868 0.94185 0.0
C1121 C 0.91041 0.14923 0.94558 0.0
C1122 C 0.89462 0.12998 0.95485 0.0
C1123 C 0.89754 0.14491 0.95208 0.0
C1124 C 0.90511 0.11952 0.95154 0.0
C1125 C 0.91798 0.12386 0.94508 0.0
U1126 U 0.94735 0.16214 0.91807 0.0
O1127 O 0.97089 0.16317 0.92083 0.0
O1128 O 0.96136 0.15197 0.90154 0.0
C1129 C 0.97296 0.15584 0.9086 0.0
C1130 C 0.93399 0.14255 0.93429 0.0
C1131 C 0.98728 0.15168 0.90322 0.0
C1132 C 0.00369 0.13338 0.89339 0.0
C1133 C 0.99046 0.13706 0.89964 0.0
C1134 C 0.01073 0.1589 0.89437 0.0
C1135 C 0.0139 0.14432 0.89036 0.0
C1136 C 0.99761 0.16251 0.90076 0.0
C1137 C 0.92345 0.19731 0.90943 0.0
C1138 C 0.91192 0.21827 0.89769 0.0
C1139 C 0.89992 0.20529 0.91729 0.0
C1140 C 0.91163 0.19578 0.91871 0.0
C1141 C 0.89974 0.21645 0.9065 0.0
C1142 C 0.9236 0.2088 0.89915 0.0
C1143 C 0.93575 0.18714 0.90973 0.0
O1144 O 0.93354 0.1427 0.9199 0.0
O1145 O 0.94173 0.15323 0.93983 0.0
O1146 O 0.93463 0.1749 0.90222 0.0
O1147 O 0.94284 0.18558 0.92207 0.0
H1148 H 0.91227 0.16072 0.94326 0.0
H1149 H 0.88971 0.15325 0.95468 0.0
H1150 H 0.90316 0.10796 0.9534 0.0
H1151 H 0.9258 0.11556 0.94228 0.0
H1152 H 0.0057 0.12206 0.89048 0.0
H1153 H 0.98263 0.12851 0.9015 0.0
H1154 H 0.01839 0.16759 0.89251 0.0
H1155 H 0.99538 0.17386 0.9034 0.0
H1156 H 0.91217 0.22656 0.88919 0.0
H1157 H 0.89082 0.20368 0.92444 0.0
H1158 H 0.91133 0.18709 0.92681 0.0
H1159 H 0.93268 0.21023 0.89193 0.0
C1160 C 0.63086 0.17632 0.69259 0.0
C1161 C 0.62197 0.16411 0.69036 0.0
C1162 C 0.64243 0.14775 0.69218 0.0
C1163 C 0.62771 0.14995 0.69013 0.0
C1164 C 0.65117 0.15995 0.69509 0.0
C1165 C 0.64543 0.17413 0.69521 0.0
U1166 U 0.59999 0.20047 0.68235 0.0
O1167 O 0.59339 0.22303 0.68841 0.0
O1168 O 0.59826 0.21741 0.66545 0.0
C1169 C 0.59431 0.22762 0.67474 0.0
C1170 C 0.62529 0.19128 0.69043 0.0
C1171 C 0.5994 0.2426 0.67159 0.0
C1172 C 0.61798 0.26002 0.66455 0.0
C1173 C 0.61386 0.24657 0.67098 0.0
C1174 C 0.59321 0.2655 0.65976 0.0
C1175 C 0.60774 0.26951 0.6581 0.0
C1176 C 0.5892 0.25247 0.66653 0.0
C1177 C 0.56694 0.17448 0.67374 0.0
C1178 C 0.55071 0.17227 0.65305 0.0
C1179 C 0.55299 0.15233 0.67045 0.0
C1180 C 0.56246 0.1607 0.67874 0.0
C1181 C 0.5478 0.15767 0.65702 0.0
C1182 C 0.56036 0.18063 0.66133 0.0
C1183 C 0.58083 0.17974 0.67912 0.0
O1184 O 0.62192 0.19423 0.67678 0.0
O1185 O 0.6156 0.19577 0.69987 0.0
O1186 O 0.59023 0.1833 0.66907 0.0
O1187 O 0.58162 0.18773 0.6911 0.0
H1188 H 0.61067 0.16558 0.68829 0.0
H1189 H 0.62067 0.14073 0.68813 0.0
H1190 H 0.66254 0.15858 0.69671 0.0
H1191 H 0.65246 0.18341 0.69684 0.0
H1192 H 0.62923 0.26253 0.66424 0.0
H1193 H 0.62197 0.23907 0.6749 0.0
H1194 H 0.58455 0.27171 0.65515 0.0
H1195 H 0.57797 0.2496 0.66681 0.0
H1196 H 0.54677 0.17664 0.64277 0.0
H1197 H 0.55079 0.14117 0.67383 0.0
H1198 H 0.56746 0.15573 0.68824 0.0
H1199 H 0.56368 0.19126 0.65727 0.0
C1200 C 0.57188 0.85554 0.4501 0.0
C1201 C 0.58169 0.84436 0.44692 0.0
C1202 C 0.5985 0.8548 0.46444 0.0
C1203 C 0.59493 0.844 0.45405 0.0
C1204 C 0.5887 0.86614 0.46727 0.0
C1205 C 0.57552 0.86647 0.46019 0.0
U1206 U 0.54372 0.84468 0.42113 0.0
O1207 O 0.52061 0.84069 0.42413 0.0
O1208 O 0.52827 0.85898 0.41024 0.0
C1209 C 0.51733 0.85145 0.41514 0.0
C1210 C 0.55767 0.85601 0.44334 0.0
C1211 C 0.50363 0.85895 0.41642 0.0
C1212 C 0.48919 0.88035 0.42208 0.0
C1213 C 0.50197 0.87244 0.42364 0.0
C1214 C 0.47976 0.86098 0.40662 0.0
C1215 C 0.47812 0.87468 0.41336 0.0
C1216 C 0.49239 0.8532 0.40815 0.0
C1217 C 0.56783 0.81856 0.39682 0.0
C1218 C 0.57905 0.80714 0.37579 0.0
C1219 C 0.5906 0.80639 0.39958 0.0
C1220 C 0.57925 0.81423 0.40571 0.0
C1221 C 0.59064 0.80286 0.38452 0.0
C1222 C 0.56776 0.81491 0.38191 0.0
C1223 C 0.55559 0.82669 0.40243 0.0
O1224 O 0.55693 0.86234 0.43041 0.0
O1225 O 0.55002 0.84396 0.44433 0.0
O1226 O 0.5558 0.841 0.40085 0.0
O1227 O 0.54954 0.82221 0.41466 0.0
H1228 H 0.57903 0.83585 0.43911 0.0
H1229 H 0.60223 0.8351 0.4517 0.0
H1230 H 0.59121 0.87478 0.47499 0.0
H1231 H 0.5681 0.87522 0.4627 0.0
H1232 H 0.48807 0.89093 0.42732 0.0
H1233 H 0.51066 0.87706 0.42995 0.0
H1234 H 0.47144 0.85656 0.39966 0.0
H1235 H 0.49362 0.84296 0.40226 0.0
H1236 H 0.57885 0.80478 0.36415 0.0
H1237 H 0.59933 0.80307 0.40662 0.0
H1238 H 0.57939 0.81691 0.41728 0.0
H1239 H 0.55895 0.81818 0.37493 0.0
C1240 C 0.86332 0.86239 0.15712 0.0
C1241 C 0.87586 0.8707 0.15747 0.0
C1242 C 0.86762 0.8829 0.1797 0.0
C1243 C 0.87803 0.88083 0.1687 0.0
C1244 C 0.85446 0.87563 0.17833 0.0
C1245 C 0.85237 0.8654 0.16716 0.0
U1246 U 0.87609 0.8312 0.13071 0.0
O1247 O 0.87778 0.80912 0.1399 0.0
O1248 O 0.86345 0.81306 0.12119 0.0
C1249 C 0.86859 0.80351 0.13065 0.0
C1250 C 0.86299 0.84828 0.14954 0.0
C1251 C 0.87155 0.78846 0.12585 0.0
C1252 C 0.86744 0.76264 0.13034 0.0
C1253 C 0.86516 0.77724 0.13397 0.0
C1254 C 0.88301 0.77008 0.11046 0.0
C1255 C 0.87608 0.75883 0.11833 0.0
C1256 C 0.88076 0.78489 0.11422 0.0
C1257 C 0.908 0.85198 0.11185 0.0
C1258 C 0.9321 0.85848 0.10491 0.0
C1259 C 0.91515 0.87763 0.11078 0.0
C1260 C 0.90467 0.86691 0.11347 0.0
C1261 C 0.92913 0.87353 0.10665 0.0
C1262 C 0.92165 0.84795 0.10729 0.0
C1263 C 0.89805 0.83999 0.11519 0.0
O1264 O 0.8594 0.84779 0.1356 0.0
O1265 O 0.87364 0.83959 0.15289 0.0
O1266 O 0.88482 0.84101 0.11048 0.0
O1267 O 0.89922 0.83408 0.12828 0.0
H1268 H 0.88449 0.8684 0.1499 0.0
H1269 H 0.88836 0.8861 0.16935 0.0
H1270 H 0.84606 0.87724 0.18632 0.0
H1271 H 0.84264 0.85897 0.16709 0.0
H1272 H 0.86217 0.75426 0.13681 0.0
H1273 H 0.85827 0.77979 0.14318 0.0
H1274 H 0.88973 0.76746 0.10117 0.0
H1275 H 0.886 0.79347 0.10801 0.0
H1276 H 0.94269 0.85456 0.10233 0.0
H1277 H 0.91232 0.88906 0.11212 0.0
H1278 H 0.89411 0.87023 0.11699 0.0
H1279 H 0.92443 0.83648 0.10601 0.0
C1280 C 0.56977 0.91899 0.87589 0.0
C1281 C 0.57718 0.90586 0.87355 0.0
C1282 C 0.55467 0.89219 0.87442 0.0
C1283 C 0.56968 0.89253 0.87291 0.0
C1284 C 0.54748 0.90542 0.8772 0.0
C1285 C 0.55496 0.91861 0.87796 0.0
U1286 U 0.5974 0.95158 0.86879 0.0
O1287 O 0.58839 0.9721 0.86044 0.0
O1288 O 0.59869 0.9718 0.88205 0.0
C1289 C 0.59243 0.97975 0.87187 0.0
C1290 C 0.57656 0.9335 0.87532 0.0
C1291 C 0.59856 0.99415 0.86837 0.0
C1292 C 0.59431 0.0199 0.86332 0.0
C1293 C 0.58926 0.0061 0.86738 0.0
C1294 C 0.61821 0.01001 0.86122 0.0
C1295 C 0.60888 0.02211 0.86031 0.0
C1296 C 0.61308 0.9961 0.86516 0.0
C1297 C 0.62858 0.92974 0.85128 0.0
C1298 C 0.64927 0.91944 0.83905 0.0
C1299 C 0.62692 0.90607 0.83931 0.0
C1300 C 0.62072 0.91717 0.84773 0.0
C1301 C 0.64113 0.90733 0.83437 0.0
C1302 C 0.643 0.93059 0.84734 0.0
C1303 C 0.62152 0.94293 0.85696 0.0
O1304 O 0.58684 0.93672 0.88462 0.0
O1305 O 0.57816 0.93948 0.86233 0.0
O1306 O 0.61043 0.94734 0.84934 0.0
O1307 O 0.61963 0.94383 0.87122 0.0
H1308 H 0.58863 0.90596 0.87194 0.0
H1309 H 0.57562 0.88254 0.87099 0.0
H1310 H 0.53597 0.90573 0.87817 0.0
H1311 H 0.54905 0.92868 0.87971 0.0
H1312 H 0.58674 0.02882 0.86245 0.0
H1313 H 0.57797 0.00472 0.86959 0.0
H1314 H 0.62952 0.01132 0.85914 0.0
H1315 H 0.62039 0.98691 0.86569 0.0
H1316 H 0.66034 0.92061 0.83585 0.0
H1317 H 0.62025 0.897 0.83592 0.0
H1318 H 0.60955 0.91635 0.85071 0.0
H1319 H 0.64924 0.94022 0.85003 0.0
C1320 C 0.82201 0.80334 0.60554 0.0
C1321 C 0.8319 0.80629 0.59437 0.0
C1322 C 0.84842 0.78852 0.60495 0.0
C1323 C 0.84504 0.79894 0.59408 0.0
C1324 C 0.83854 0.78592 0.61628 0.0
C1325 C 0.82547 0.79323 0.61653 0.0
U1326 U 0.79382 0.83244 0.59461 0.0
O1327 O 0.7707 0.82938 0.59068 0.0
O1328 O 0.77837 0.84325 0.60896 0.0
C1329 C 0.76742 0.83834 0.60145 0.0
C1330 C 0.80785 0.81024 0.60592 0.0
C1331 C 0.75369 0.83713 0.60893 0.0
C1332 C 0.73918 0.83155 0.63032 0.0
C1333 C 0.75197 0.82994 0.62244 0.0
C1334 C 0.72984 0.84699 0.61089 0.0
C1335 C 0.72815 0.84029 0.62462 0.0
C1336 C 0.74248 0.84542 0.60314 0.0
C1337 C 0.81784 0.85687 0.56846 0.0
C1338 C 0.82914 0.87801 0.55727 0.0
C1339 C 0.84062 0.8542 0.55628 0.0
C1340 C 0.82924 0.848 0.56404 0.0
C1341 C 0.84073 0.86931 0.55294 0.0
C1342 C 0.81781 0.87182 0.56495 0.0
C1343 C 0.80559 0.85121 0.57657 0.0
O1344 O 0.80714 0.82319 0.61221 0.0
O1345 O 0.80019 0.80926 0.59387 0.0
O1346 O 0.80581 0.85279 0.59088 0.0
O1347 O 0.7996 0.83896 0.57212 0.0
H1348 H 0.82939 0.81411 0.5858 0.0
H1349 H 0.85239 0.80115 0.58519 0.0
H1350 H 0.84091 0.77822 0.62499 0.0
H1351 H 0.81799 0.79088 0.62528 0.0
H1352 H 0.73803 0.82633 0.64092 0.0
H1353 H 0.76064 0.82361 0.6271 0.0
H1354 H 0.72154 0.85397 0.60643 0.0
H1355 H 0.74375 0.85129 0.59287 0.0
H1356 H 0.82898 0.88968 0.55505 0.0
H1357 H 0.84934 0.84718 0.55292 0.0
H1358 H 0.82935 0.83641 0.56661 0.0
H1359 H 0.80902 0.87878 0.56827 0.0
C1360 C 0.95206 0.05843 0.3635 0.0
C1361 C 0.94582 0.0712 0.35786 0.0
C1362 C 0.95463 0.08513 0.37886 0.0
C1363 C 0.94717 0.08448 0.36544 0.0
C1364 C 0.96159 0.07245 0.38391 0.0
C1365 C 0.96031 0.05923 0.37629 0.0
U1366 U 0.93412 0.03091 0.33656 0.0
O1367 O 0.94168 0.00876 0.32992 0.0
O1368 O 0.92203 0.01159 0.34299 0.0
C1369 C 0.93051 0.00251 0.33608 0.0
C1370 C 0.94871 0.04389 0.35748 0.0
C1371 C 0.93118 0.98761 0.34195 0.0
C1372 C 0.93027 0.97122 0.36293 0.0
C1373 C 0.93427 0.98469 0.3567 0.0
C1374 C 0.92049 0.96358 0.33959 0.0
C1375 C 0.92264 0.96074 0.35463 0.0
C1376 C 0.92492 0.97672 0.33333 0.0
C1377 C 0.91324 0.05809 0.30994 0.0
C1378 C 0.89421 0.06796 0.29475 0.0
C1379 C 0.90788 0.08398 0.31067 0.0
C1380 C 0.91617 0.07212 0.31531 0.0
C1381 C 0.89644 0.08187 0.30083 0.0
C1382 C 0.90257 0.05615 0.29931 0.0
C1383 C 0.91924 0.04494 0.3167 0.0
O1384 O 0.93534 0.03979 0.35884 0.0
O1385 O 0.95431 0.04041 0.34472 0.0
O1386 O 0.91429 0.04151 0.32972 0.0
O1387 O 0.93281 0.04176 0.31484 0.0
H1388 H 0.93946 0.07078 0.34796 0.0
H1389 H 0.94201 0.09413 0.361 0.0
H1390 H 0.9674 0.07252 0.39418 0.0
H1391 H 0.96518 0.04945 0.38081 0.0
H1392 H 0.93253 0.96938 0.37442 0.0
H1393 H 0.93895 0.9931 0.36357 0.0
H1394 H 0.91439 0.95628 0.33268 0.0
H1395 H 0.92217 0.97892 0.32199 0.0
H1396 H 0.8854 0.06601 0.28731 0.0
H1397 H 0.90985 0.09468 0.31542 0.0
H1398 H 0.92429 0.07376 0.32359 0.0
H1399 H 0.9001 0.04529 0.29521 0.0
C1400 C 0.66855 0.19317 0.11336 0.0
C1401 C 0.65827 0.19737 0.10307 0.0
C1402 C 0.64297 0.20625 0.12287 0.0
C1403 C 0.64558 0.20391 0.1078 0.0
C1404 C 0.65358 0.20254 0.13304 0.0
C1405 C 0.66624 0.19603 0.1283 0.0
U1406 U 0.69753 0.16902 0.09221 0.0
O1407 O 0.71097 0.15452 0.10567 0.0
O1408 O 0.72069 0.17332 0.09416 0.0
C1409 C 0.72248 0.16239 0.10339 0.0
C1410 C 0.68172 0.18553 0.10926 0.0
C1411 C 0.73648 0.1552 0.10473 0.0
C1412 C 0.75526 0.14696 0.12115 0.0
C1413 C 0.74215 0.1538 0.11885 0.0
C1414 C 0.75753 0.14303 0.09501 0.0
C1415 C 0.76328 0.14148 0.10929 0.0
C1416 C 0.7442 0.14976 0.09276 0.0
C1417 C 0.67598 0.15803 0.05713 0.0
C1418 C 0.66362 0.14649 0.03662 0.0
C1419 C 0.65218 0.16602 0.05018 0.0
C1420 C 0.66423 0.1673 0.05921 0.0
C1421 C 0.65159 0.15539 0.03895 0.0
C1422 C 0.67567 0.1478 0.04563 0.0
C1423 C 0.68851 0.15835 0.06698 0.0
O1424 O 0.68163 0.17115 0.1098 0.0
O1425 O 0.6897 0.19092 0.09868 0.0
O1426 O 0.68711 0.15145 0.07955 0.0
O1427 O 0.69538 0.17088 0.06819 0.0
H1428 H 0.65992 0.19533 0.09149 0.0
H1429 H 0.63761 0.20682 0.0997 0.0
H1430 H 0.65184 0.20406 0.14468 0.0
H1431 H 0.67415 0.19289 0.13639 0.0
H1432 H 0.75888 0.14573 0.13234 0.0
H1433 H 0.73632 0.15792 0.12825 0.0
H1434 H 0.76334 0.13919 0.08551 0.0
H1435 H 0.73998 0.15075 0.08174 0.0
H1436 H 0.66354 0.13809 0.02823 0.0
H1437 H 0.64319 0.17321 0.05217 0.0
H1438 H 0.66427 0.17532 0.06797 0.0
H1439 H 0.68466 0.14055 0.04382 0.0
C1440 C 0.57012 0.08435 0.62826 0.0
C1441 C 0.57745 0.09755 0.63049 0.0
C1442 C 0.55487 0.11111 0.62936 0.0
C1443 C 0.56989 0.11085 0.63095 0.0
C1444 C 0.54777 0.09782 0.62663 0.0
C1445 C 0.55532 0.08464 0.62605 0.0
U1446 U 0.59821 0.05243 0.63632 0.0
O1447 O 0.58981 0.0319 0.64542 0.0
O1448 O 0.59985 0.0318 0.62369 0.0
C1449 C 0.59381 0.02401 0.63414 0.0
C1450 C 0.577 0.06987 0.62916 0.0
C1451 C 0.59998 0.00961 0.63778 0.0
C1452 C 0.59574 0.98372 0.64229 0.0
C1453 C 0.59076 0.99753 0.63815 0.0
C1454 C 0.61941 0.9938 0.64578 0.0
C1455 C 0.61015 0.98159 0.64608 0.0
C1456 C 0.61435 0.00773 0.64169 0.0
C1457 C 0.62993 0.07511 0.65259 0.0
C1458 C 0.6512 0.08529 0.66388 0.0
C1459 C 0.62967 0.09984 0.66242 0.0
C1460 C 0.62285 0.08842 0.6549 0.0
C1461 C 0.64383 0.09827 0.66761 0.0
C1462 C 0.64424 0.07379 0.65672 0.0
C1463 C 0.62233 0.06191 0.64761 0.0
O1464 O 0.58736 0.06655 0.62001 0.0
O1465 O 0.57868 0.06427 0.64231 0.0
O1466 O 0.61121 0.05803 0.6555 0.0
O1467 O 0.62034 0.06031 0.63342 0.0
H1468 H 0.58888 0.09755 0.63221 0.0
H1469 H 0.57578 0.12089 0.63282 0.0
H1470 H 0.53627 0.09744 0.62557 0.0
H1471 H 0.54946 0.07453 0.62437 0.0
H1472 H 0.58822 0.97471 0.64263 0.0
H1473 H 0.57959 0.99881 0.63537 0.0
H1474 H 0.63059 0.99254 0.64846 0.0
H1475 H 0.6216 0.01699 0.64161 0.0
H1476 H 0.66225 0.08365 0.66684 0.0
H1477 H 0.62339 0.10945 0.6649 0.0
H1478 H 0.61179 0.08967 0.65167 0.0
H1479 H 0.64993 0.0636 0.65491 0.0
C1480 C 0.66857 0.81045 0.39039 0.0
C1481 C 0.65828 0.80615 0.40064 0.0
C1482 C 0.64307 0.79732 0.38075 0.0
C1483 C 0.64563 0.79958 0.39584 0.0
C1484 C 0.6537 0.80109 0.37062 0.0
C1485 C 0.66634 0.80763 0.37543 0.0
U1486 U 0.69745 0.83475 0.41157 0.0
O1487 O 0.7108 0.84929 0.39804 0.0
O1488 O 0.72061 0.83052 0.40952 0.0
C1489 C 0.72234 0.84145 0.40026 0.0
C1490 C 0.68168 0.81818 0.39456 0.0
C1491 C 0.73632 0.84864 0.39879 0.0
C1492 C 0.75504 0.85682 0.38224 0.0
C1493 C 0.74194 0.84997 0.38462 0.0
C1494 C 0.75741 0.86088 0.40834 0.0
C1495 C 0.76309 0.86237 0.39403 0.0
C1496 C 0.74409 0.85414 0.41069 0.0
C1497 C 0.67602 0.84575 0.44676 0.0
C1498 C 0.66373 0.85735 0.46729 0.0
C1499 C 0.65224 0.83774 0.45386 0.0
C1500 C 0.66426 0.83645 0.44478 0.0
C1501 C 0.65168 0.84843 0.46505 0.0
C1502 C 0.67574 0.85601 0.45823 0.0
C1503 C 0.6885 0.84542 0.43684 0.0
O1504 O 0.68151 0.83256 0.39403 0.0
O1505 O 0.68967 0.81282 0.40514 0.0
O1506 O 0.68703 0.85229 0.42425 0.0
O1507 O 0.69537 0.83291 0.43561 0.0
H1508 H 0.65988 0.80816 0.41222 0.0
H1509 H 0.63764 0.79661 0.4039 0.0
H1510 H 0.65199 0.79963 0.35897 0.0
H1511 H 0.67426 0.81084 0.36739 0.0
H1512 H 0.75862 0.85799 0.37102 0.0
H1513 H 0.73606 0.84579 0.37528 0.0
H1514 H 0.76325 0.86476 0.4178 0.0
H1515 H 0.73992 0.85321 0.42173 0.0
H1516 H 0.66367 0.86578 0.47564 0.0
H1517 H 0.64325 0.83053 0.45194 0.0
H1518 H 0.66426 0.82839 0.43605 0.0
H1519 H 0.68473 0.86328 0.45996 0.0
C1520 C 0.95207 0.9454 0.14014 0.0
C1521 C 0.94584 0.93262 0.1458 0.0
C1522 C 0.95467 0.91868 0.12483 0.0
C1523 C 0.9472 0.91933 0.13824 0.0
C1524 C 0.96164 0.93136 0.11976 0.0
C1525 C 0.96033 0.94459 0.12736 0.0
U1526 U 0.93415 0.97292 0.16707 0.0
O1527 O 0.94169 0.99509 0.17367 0.0
O1528 O 0.92203 0.99221 0.16063 0.0
C1529 C 0.93051 1.00131 0.16753 0.0
C1530 C 0.94871 0.95994 0.14614 0.0
C1531 C 0.93116 0.01621 0.16165 0.0
C1532 C 0.93042 0.03261 0.14067 0.0
C1533 C 0.93436 0.01913 0.14692 0.0
C1534 C 0.92044 0.04021 0.16394 0.0
C1535 C 0.92273 0.04308 0.14893 0.0
C1536 C 0.92482 0.02707 0.17022 0.0
C1537 C 0.91332 0.94574 0.19373 0.0
C1538 C 0.89428 0.93584 0.20889 0.0
C1539 C 0.90793 0.91986 0.19294 0.0
C1540 C 0.91624 0.93173 0.18833 0.0
C1541 C 0.8965 0.92195 0.20278 0.0
C1542 C 0.90266 0.94766 0.20437 0.0
C1543 C 0.9193 0.95891 0.18697 0.0
O1544 O 0.93533 0.964 0.1448 0.0
O1545 O 0.95433 0.96345 0.15889 0.0
O1546 O 0.91433 0.96232 0.17396 0.0
O1547 O 0.93288 0.9621 0.1888 0.0
H1548 H 0.93947 0.93304 0.1557 0.0
H1549 H 0.94204 0.90967 0.14269 0.0
H1550 H 0.96746 0.93129 0.1095 0.0
H1551 H 0.9652 0.95438 0.12283 0.0
H1552 H 0.93278 0.03446 0.12921 0.0
H1553 H 0.93911 0.01074 0.14009 0.0
H1554 H 0.91428 0.04749 0.1708 0.0
H1555 H 0.92198 0.02486 0.18154 0.0
H1556 H 0.88547 0.93777 0.21634 0.0
H1557 H 0.9099 0.90918 0.18816 0.0
H1558 H 0.92436 0.93011 0.18004 0.0
H1559 H 0.90019 0.95852 0.2085 0.0
C1560 C 0.82075 0.20052 0.89784 0.0
C1561 C 0.83047 0.19779 0.90921 0.0
C1562 C 0.84688 0.21582 0.8989 0.0
C1563 C 0.84345 0.20539 0.90974 0.0
C1564 C 0.83716 0.21826 0.8874 0.0
C1565 C 0.82422 0.2107 0.88691 0.0
U1566 U 0.79369 0.1705 0.90868 0.0
O1567 O 0.77046 0.17249 0.91255 0.0
O1568 O 0.77872 0.15883 0.89444 0.0
C1569 C 0.76753 0.16336 0.9018 0.0
C1570 C 0.80679 0.19322 0.89722 0.0
C1571 C 0.75401 0.16463 0.89388 0.0
C1572 C 0.73999 0.17072 0.87226 0.0
C1573 C 0.75262 0.17212 0.88047 0.0
C1574 C 0.73021 0.15481 0.89107 0.0
C1575 C 0.72879 0.16189 0.87749 0.0
C1576 C 0.74268 0.15618 0.89916 0.0
C1577 C 0.81869 0.14704 0.93495 0.0
C1578 C 0.83008 0.1262 0.94658 0.0
C1579 C 0.84193 0.14984 0.94622 0.0
C1580 C 0.83036 0.1559 0.9386 0.0
C1581 C 0.84193 0.13488 0.95019 0.0
C1582 C 0.81859 0.13224 0.93905 0.0
C1583 C 0.80634 0.15242 0.92678 0.0
O1584 O 0.80659 0.18022 0.891 0.0
O1585 O 0.799 0.19396 0.90919 0.0
O1586 O 0.80655 0.15076 0.91249 0.0
O1587 O 0.79991 0.16445 0.93121 0.0
H1588 H 0.82795 0.18992 0.91773 0.0
H1589 H 0.85066 0.20331 0.91878 0.0
H1590 H 0.83958 0.22597 0.8787 0.0
H1591 H 0.81686 0.21288 0.87801 0.0
H1592 H 0.73905 0.17629 0.86181 0.0
H1593 H 0.76138 0.17859 0.8762 0.0
H1594 H 0.72178 0.1478 0.89522 0.0
H1595 H 0.74368 0.15011 0.90933 0.0
H1596 H 0.8298 0.11463 0.94926 0.0
H1597 H 0.85086 0.15685 0.94901 0.0
H1598 H 0.83056 0.16738 0.93554 0.0
H1599 H 0.80961 0.12527 0.93628 0.0
C1600 C 0.88123 0.56148 0.92655 0.0
C1601 C 0.87231 0.56367 0.91438 0.0
C1602 C 0.8927 0.56179 0.89794 0.0
C1603 C 0.87799 0.56384 0.9002 0.0
C1604 C 0.90149 0.55893 0.91011 0.0
C1605 C 0.8958 0.55886 0.92432 0.0
U1606 U 0.85019 0.5715 0.95044 0.0
O1607 O 0.84346 0.56546 0.97298 0.0
O1608 O 0.84812 0.58845 0.96727 0.0
C1609 C 0.84422 0.57915 0.97751 0.0
C1610 C 0.87564 0.56364 0.9415 0.0
C1611 C 0.84934 0.58235 0.99247 0.0
C1612 C 0.86795 0.58944 0.0098 0.0
C1613 C 0.86382 0.58303 0.99637 0.0
C1614 C 0.84318 0.59405 0.01543 0.0
C1615 C 0.85772 0.59579 0.01937 0.0
C1616 C 0.83915 0.58732 0.00239 0.0
C1617 C 0.81708 0.57978 0.92466 0.0
C1618 C 0.80082 0.60048 0.92281 0.0
C1619 C 0.80259 0.58304 0.90289 0.0
C1620 C 0.81227 0.57475 0.91102 0.0
C1621 C 0.79756 0.59649 0.90831 0.0
C1622 C 0.81064 0.5922 0.93095 0.0
C1623 C 0.83109 0.57444 0.9296 0.0
O1624 O 0.87213 0.57727 0.94436 0.0
O1625 O 0.86601 0.55413 0.946 0.0
O1626 O 0.84046 0.58455 0.93307 0.0
O1627 O 0.83199 0.5625 0.93765 0.0
H1628 H 0.86102 0.56573 0.91587 0.0
H1629 H 0.87091 0.56581 0.89102 0.0
H1630 H 0.91286 0.55731 0.90868 0.0
H1631 H 0.90286 0.55726 0.93358 0.0
H1632 H 0.87922 0.58981 0.01225 0.0
H1633 H 0.87191 0.57918 0.98883 0.0
H1634 H 0.83452 0.59855 0.0217 0.0
H1635 H 0.82791 0.58698 0.99957 0.0
H1636 H 0.79703 0.61079 0.92723 0.0
H1637 H 0.80015 0.57967 0.89177 0.0
H1638 H 0.81714 0.56525 0.90595 0.0
H1639 H 0.81422 0.59628 0.94147 0.0
C1640 C 0.38108 0.94238 0.07721 0.0
C1641 C 0.37217 0.94012 0.08939 0.0
C1642 C 0.39258 0.94201 0.1058 0.0
C1643 C 0.37787 0.93991 0.10356 0.0
C1644 C 0.40135 0.94494 0.09363 0.0
C1645 C 0.39565 0.94504 0.07943 0.0
U1646 U 0.35012 0.93228 0.05318 0.0
O1647 O 0.34346 0.93841 0.03064 0.0
O1648 O 0.34822 0.91542 0.03624 0.0
C1649 C 0.34431 0.92475 0.02605 0.0
C1650 C 0.3755 0.94025 0.06225 0.0
C1651 C 0.34942 0.92162 0.01107 0.0
C1652 C 0.36802 0.91453 0.99372 0.0
C1653 C 0.36389 0.92096 0.00715 0.0
C1654 C 0.34324 0.90987 0.98813 0.0
C1655 C 0.35778 0.90814 0.98419 0.0
C1656 C 0.33922 0.91663 1.00116 0.0
C1657 C 0.3171 0.92377 0.07922 0.0
C1658 C 0.30081 0.90311 0.08143 0.0
C1659 C 0.3031 0.92051 0.10134 0.0
C1660 C 0.31262 0.92878 0.09298 0.0
C1661 C 0.29788 0.90709 0.09602 0.0
C1662 C 0.31049 0.91137 0.07308 0.0
C1663 C 0.33102 0.92911 0.07398 0.0
O1664 O 0.37205 0.92661 0.05932 0.0
O1665 O 0.36584 0.94973 0.05779 0.0
O1666 O 0.34037 0.91903 0.0704 0.0
O1667 O 0.33184 0.9411 0.06599 0.0
H1668 H 0.36088 0.93801 0.0879 0.0
H1669 H 0.37081 0.9379 0.11275 0.0
H1670 H 0.41272 0.94659 0.09504 0.0
H1671 H 0.40269 0.9467 0.07016 0.0
H1672 H 0.37928 0.91417 0.99125 0.0
H1673 H 0.372 0.92482 0.01468 0.0
H1674 H 0.33457 0.90534 0.98189 0.0
H1675 H 0.32798 0.91696 0.00399 0.0
H1676 H 0.29686 0.89284 0.07707 0.0
H1677 H 0.30089 0.92389 0.1125 0.0
H1678 H 0.31763 0.93827 0.09795 0.0
H1679 H 0.31382 0.90731 0.06246 0.0
C1680 C 0.82017 0.62562 0.83538 0.0
C1681 C 0.82748 0.62339 0.84859 0.0
C1682 C 0.80487 0.62446 0.86204 0.0
C1683 C 0.81988 0.6229 0.86185 0.0
C1684 C 0.79779 0.62718 0.84874 0.0
C1685 C 0.80538 0.62779 0.8356 0.0
U1686 U 0.84814 0.61807 0.80323 0.0
O1687 O 0.84926 0.63117 0.7829 0.0
O1688 O 0.83954 0.60927 0.78269 0.0
C1689 C 0.8432 0.62083 0.77501 0.0
C1690 C 0.82708 0.6248 0.82095 0.0
C1691 C 0.84919 0.61771 0.76047 0.0
C1692 C 0.84479 0.61401 0.73451 0.0
C1693 C 0.83981 0.61735 0.74852 0.0
C1694 C 0.86871 0.61123 0.7442 0.0
C1695 C 0.85931 0.61102 0.73212 0.0
C1696 C 0.86367 0.61453 0.7583 0.0
C1697 C 0.87969 0.60175 0.82575 0.0
C1698 C 0.90123 0.59166 0.83663 0.0
C1699 C 0.87875 0.58998 0.8496 0.0
C1700 C 0.872 0.59765 0.83827 0.0
C1701 C 0.89338 0.58637 0.84871 0.0
C1702 C 0.89441 0.59913 0.82521 0.0
C1703 C 0.8724 0.60686 0.8124 0.0
O1704 O 0.83734 0.6341 0.81766 0.0
O1705 O 0.82883 0.6117 0.81529 0.0
O1706 O 0.87031 0.62105 0.81098 0.0
O1707 O 0.86141 0.59894 0.80822 0.0
H1708 H 0.83892 0.62171 0.84861 0.0
H1709 H 0.82573 0.62103 0.87191 0.0
H1710 H 0.78629 0.62819 0.84833 0.0
H1711 H 0.79956 0.62947 0.82547 0.0
H1712 H 0.8372 0.61366 0.72557 0.0
H1713 H 0.82855 0.61958 0.75006 0.0
H1714 H 0.87998 0.60909 0.74272 0.0
H1715 H 0.87104 0.61462 0.76745 0.0
H1716 H 0.91256 0.58957 0.83566 0.0
H1717 H 0.87221 0.58607 0.85857 0.0
H1718 H 0.86061 0.59961 0.83889 0.0
H1719 H 0.90054 0.60227 0.81564 0.0
C1720 C 0.1132 0.09655 0.6123 0.0
C1721 C 0.12572 0.09618 0.62062 0.0
C1722 C 0.11745 0.07389 0.63274 0.0
C1723 C 0.12787 0.0849 0.63071 0.0
C1724 C 0.10431 0.07527 0.62544 0.0
C1725 C 0.10224 0.0865 0.61524 0.0
U1726 U 0.12606 0.12305 0.58117 0.0
O1727 O 0.12776 0.11388 0.5591 0.0
O1728 O 0.11343 0.13259 0.56303 0.0
C1729 C 0.11857 0.12314 0.55349 0.0
C1730 C 0.11291 0.10419 0.59821 0.0
C1731 C 0.12153 0.12793 0.53843 0.0
C1732 C 0.11742 0.12343 0.51262 0.0
C1733 C 0.11514 0.1198 0.52723 0.0
C1734 C 0.13298 0.14332 0.52002 0.0
C1735 C 0.12605 0.13545 0.50879 0.0
C1736 C 0.13073 0.13956 0.53483 0.0
C1737 C 0.15799 0.14187 0.60197 0.0
C1738 C 0.18208 0.1488 0.60845 0.0
C1739 C 0.16512 0.14296 0.62762 0.0
C1740 C 0.15464 0.14027 0.6169 0.0
C1741 C 0.17911 0.14707 0.62351 0.0
C1742 C 0.17165 0.14642 0.59793 0.0
C1743 C 0.14803 0.13854 0.58998 0.0
O1744 O 0.10935 0.11814 0.59775 0.0
O1745 O 0.12358 0.10085 0.58953 0.0
O1746 O 0.1348 0.14325 0.59099 0.0
O1747 O 0.14919 0.12547 0.58407 0.0
H1748 H 0.13435 0.10376 0.61836 0.0
H1749 H 0.13819 0.08423 0.63599 0.0
H1750 H 0.09591 0.06726 0.62701 0.0
H1751 H 0.09253 0.08659 0.60879 0.0
H1752 H 0.11215 0.11696 0.50426 0.0
H1753 H 0.10825 0.11059 0.5298 0.0
H1754 H 0.1397 0.15262 0.51738 0.0
H1755 H 0.13598 0.14577 0.5434 0.0
H1756 H 0.19268 0.15137 0.60453 0.0
H1757 H 0.16228 0.14164 0.63904 0.0
H1758 H 0.14407 0.13677 0.62023 0.0
H1759 H 0.17443 0.14769 0.58645 0.0
C1760 C 0.20208 0.8902 0.80836 0.0
C1761 C 0.19584 0.89585 0.82113 0.0
C1762 C 0.20465 0.87486 0.83509 0.0
C1763 C 0.19719 0.88828 0.83442 0.0
C1764 C 0.21162 0.8698 0.82241 0.0
C1765 C 0.21032 0.87741 0.80918 0.0
U1766 U 0.18418 0.91715 0.78081 0.0
O1767 O 0.19175 0.92377 0.75865 0.0
O1768 O 0.17208 0.91072 0.76152 0.0
C1769 C 0.18057 0.91763 0.75242 0.0
C1770 C 0.19873 0.89621 0.79382 0.0
C1771 C 0.18123 0.91176 0.73753 0.0
C1772 C 0.18053 0.8908 0.72113 0.0
C1773 C 0.18446 0.89704 0.73461 0.0
C1774 C 0.17053 0.91406 0.71351 0.0
C1775 C 0.17283 0.89905 0.71065 0.0
C1776 C 0.17489 0.92033 0.72665 0.0
C1777 C 0.16337 0.94375 0.808 0.0
C1778 C 0.14431 0.95883 0.81794 0.0
C1779 C 0.15802 0.94289 0.83389 0.0
C1780 C 0.16633 0.93834 0.82201 0.0
C1781 C 0.14655 0.95269 0.83182 0.0
C1782 C 0.15268 0.95437 0.80611 0.0
C1783 C 0.16934 0.93704 0.79482 0.0
O1784 O 0.18535 0.89487 0.78975 0.0
O1785 O 0.20436 0.90896 0.79031 0.0
O1786 O 0.16436 0.92403 0.7914 0.0
O1787 O 0.18292 0.93886 0.79164 0.0
H1788 H 0.18948 0.90575 0.82069 0.0
H1789 H 0.19204 0.89271 0.84407 0.0
H1790 H 0.21743 0.85954 0.8225 0.0
H1791 H 0.21519 0.87289 0.7994 0.0
H1792 H 0.1829 0.87934 0.71929 0.0
H1793 H 0.1892 0.8902 0.74301 0.0
H1794 H 0.16437 0.92091 0.70622 0.0
H1795 H 0.17204 0.93164 0.72886 0.0
H1796 H 0.13547 0.96625 0.81602 0.0
H1797 H 0.16001 0.93809 0.84457 0.0
H1798 H 0.17447 0.93007 0.82362 0.0
H1799 H 0.15019 0.95851 0.79526 0.0
C1800 C 0.61328 0.40706 0.39132 0.0
C1801 C 0.62582 0.40739 0.38302 0.0
C1802 C 0.61762 0.42962 0.37078 0.0
C1803 C 0.62801 0.41861 0.37288 0.0
C1804 C 0.60446 0.42828 0.37805 0.0
C1805 C 0.60235 0.41711 0.3883 0.0
U1806 U 0.62607 0.38071 0.42255 0.0
O1807 O 0.62775 0.38992 0.44461 0.0
O1808 O 0.61344 0.37118 0.44071 0.0
C1809 C 0.61857 0.38066 0.45023 0.0
C1810 C 0.61294 0.3995 0.40545 0.0
C1811 C 0.62153 0.37588 0.4653 0.0
C1812 C 0.61745 0.38039 0.49111 0.0
C1813 C 0.61517 0.38402 0.4765 0.0
C1814 C 0.63298 0.36049 0.4837 0.0
C1815 C 0.62607 0.36837 0.49494 0.0
C1816 C 0.63072 0.36424 0.46889 0.0
C1817 C 0.658 0.3619 0.4018 0.0
C1818 C 0.68209 0.35497 0.39532 0.0
C1819 C 0.66514 0.36083 0.37615 0.0
C1820 C 0.65466 0.36352 0.38687 0.0
C1821 C 0.67912 0.35671 0.38026 0.0
C1822 C 0.67165 0.35734 0.40584 0.0
C1823 C 0.64805 0.36523 0.41379 0.0
O1824 O 0.60937 0.38555 0.40596 0.0
O1825 O 0.62359 0.40288 0.41413 0.0
O1826 O 0.63482 0.36049 0.41278 0.0
O1827 O 0.6492 0.37832 0.41967 0.0
H1828 H 0.63443 0.3998 0.38534 0.0
H1829 H 0.63834 0.41925 0.36761 0.0
H1830 H 0.59608 0.43628 0.37642 0.0
H1831 H 0.59262 0.41706 0.39472 0.0
H1832 H 0.6122 0.38687 0.49947 0.0
H1833 H 0.60829 0.39323 0.47393 0.0
H1834 H 0.63968 0.35119 0.48634 0.0
H1835 H 0.63596 0.35802 0.46033 0.0
H1836 H 0.69268 0.35238 0.39924 0.0
H1837 H 0.66231 0.36216 0.36473 0.0
H1838 H 0.64411 0.36703 0.38354 0.0
H1839 H 0.67443 0.35606 0.41731 0.0
C1840 C 0.82017 0.37815 0.66829 0.0
C1841 C 0.82748 0.38039 0.65508 0.0
C1842 C 0.80485 0.37933 0.64165 0.0
C1843 C 0.81987 0.38088 0.64182 0.0
C1844 C 0.79778 0.3766 0.65496 0.0
C1845 C 0.80538 0.37598 0.66808 0.0
U1846 U 0.84814 0.38568 0.70046 0.0
O1847 O 0.84924 0.37256 0.72078 0.0
O1848 O 0.83952 0.39445 0.721 0.0
C1849 C 0.84317 0.38289 0.72868 0.0
C1850 C 0.8271 0.37897 0.68271 0.0
C1851 C 0.84917 0.38602 0.74321 0.0
C1852 C 0.84476 0.38978 0.76916 0.0
C1853 C 0.83979 0.38642 0.75515 0.0
C1854 C 0.8687 0.3925 0.75947 0.0
C1855 C 0.85929 0.39275 0.77155 0.0
C1856 C 0.86366 0.38918 0.74538 0.0
C1857 C 0.8797 0.40206 0.67799 0.0
C1858 C 0.90123 0.41219 0.66711 0.0
C1859 C 0.87874 0.41386 0.65415 0.0
C1860 C 0.872 0.40616 0.66548 0.0
C1861 C 0.89337 0.41748 0.65504 0.0
C1862 C 0.89442 0.4047 0.67852 0.0
C1863 C 0.87241 0.39692 0.69133 0.0
O1864 O 0.83734 0.36967 0.686 0.0
O1865 O 0.82885 0.39207 0.6884 0.0
O1866 O 0.87031 0.38272 0.69272 0.0
O1867 O 0.86142 0.40483 0.69552 0.0
H1868 H 0.83892 0.38207 0.65505 0.0
H1869 H 0.82571 0.38276 0.63175 0.0
H1870 H 0.78628 0.37559 0.65538 0.0
H1871 H 0.79956 0.3743 0.67823 0.0
H1872 H 0.83717 0.39016 0.7781 0.0
H1873 H 0.82852 0.38421 0.75362 0.0
H1874 H 0.87998 0.39462 0.76095 0.0
H1875 H 0.87103 0.38907 0.73622 0.0
H1876 H 0.91256 0.41431 0.66807 0.0
H1877 H 0.8722 0.41776 0.64519 0.0
H1878 H 0.86061 0.40418 0.66486 0.0
H1879 H 0.90056 0.40155 0.68809 0.0
C1880 C 0.70206 0.61357 0.19535 0.0
C1881 C 0.69584 0.60792 0.18258 0.0
C1882 C 0.70465 0.62892 0.16863 0.0
C1883 C 0.69719 0.6155 0.16929 0.0
C1884 C 0.71161 0.63398 0.18131 0.0
C1885 C 0.71031 0.62637 0.19454 0.0
U1886 U 0.68412 0.58659 0.22286 0.0
O1887 O 0.69167 0.57993 0.24501 0.0
O1888 O 0.67202 0.59299 0.24217 0.0
C1889 C 0.68051 0.58607 0.25125 0.0
C1890 C 0.69871 0.60754 0.20989 0.0
C1891 C 0.68119 0.59192 0.26616 0.0
C1892 C 0.68051 0.61286 0.28258 0.0
C1893 C 0.68442 0.60664 0.26909 0.0
C1894 C 0.6705 0.58959 0.29019 0.0
C1895 C 0.67281 0.6046 0.29306 0.0
C1896 C 0.67485 0.58333 0.27703 0.0
C1897 C 0.66326 0.55997 0.19567 0.0
C1898 C 0.64423 0.54476 0.18582 0.0
C1899 C 0.6579 0.56069 0.16978 0.0
C1900 C 0.66619 0.56533 0.18163 0.0
C1901 C 0.64646 0.55084 0.1719 0.0
C1902 C 0.65259 0.54933 0.19762 0.0
C1903 C 0.66926 0.56674 0.20881 0.0
O1904 O 0.68534 0.60889 0.21397 0.0
O1905 O 0.70431 0.59478 0.21338 0.0
O1906 O 0.6643 0.57975 0.21223 0.0
O1907 O 0.68283 0.56489 0.21201 0.0
H1908 H 0.68948 0.59801 0.18301 0.0
H1909 H 0.69205 0.61106 0.15964 0.0
H1910 H 0.71742 0.64425 0.18123 0.0
H1911 H 0.71517 0.63089 0.20432 0.0
H1912 H 0.68289 0.62432 0.28443 0.0
H1913 H 0.68917 0.61348 0.26069 0.0
H1914 H 0.66435 0.58272 0.29749 0.0
H1915 H 0.67199 0.57202 0.27482 0.0
H1916 H 0.63542 0.53732 0.18777 0.0
H1917 H 0.65987 0.56543 0.15907 0.0
H1918 H 0.67431 0.57362 0.17998 0.0
H1919 H 0.65012 0.54523 0.20849 0.0
C1920 C 0.57307 0.64229 0.94727 0.0
C1921 C 0.58323 0.653 0.94367 0.0
C1922 C 0.59937 0.64324 0.96225 0.0
C1923 C 0.59629 0.65349 0.95112 0.0
C1924 C 0.58917 0.6324 0.96559 0.0
C1925 C 0.57615 0.63198 0.9582 0.0
U1926 U 0.5458 0.65178 0.91682 0.0
O1927 O 0.53015 0.63716 0.90672 0.0
O1928 O 0.52277 0.65653 0.91918 0.0
C1929 C 0.5193 0.64512 0.91112 0.0
C1930 C 0.55906 0.64173 0.9401 0.0
C1931 C 0.50556 0.6378 0.91336 0.0
C1932 C 0.49137 0.61548 0.91461 0.0
C1933 C 0.50444 0.62276 0.91654 0.0
C1934 C 0.4805 0.63842 0.90717 0.0
C1935 C 0.47936 0.6232 0.90949 0.0
C1936 C 0.49341 0.64561 0.90915 0.0
C1937 C 0.57041 0.67603 0.89087 0.0
C1938 C 0.58151 0.68623 0.8691 0.0
C1939 C 0.59239 0.68973 0.89297 0.0
C1940 C 0.5814 0.68172 0.89954 0.0
C1941 C 0.59256 0.69206 0.87767 0.0
C1942 C 0.57053 0.67831 0.87568 0.0
C1943 C 0.55819 0.66826 0.89708 0.0
O1944 O 0.5517 0.65401 0.94003 0.0
O1945 O 0.55849 0.63458 0.9276 0.0
O1946 O 0.55207 0.67365 0.90889 0.0
O1947 O 0.5583 0.65388 0.89653 0.0
H1948 H 0.58101 0.66105 0.93523 0.0
H1949 H 0.60384 0.66204 0.94836 0.0
H1950 H 0.59128 0.62416 0.97386 0.0
H1951 H 0.56843 0.62361 0.96106 0.0
H1952 H 0.49079 0.60378 0.91655 0.0
H1953 H 0.51378 0.61652 0.9197 0.0
H1954 H 0.47163 0.64469 0.90286 0.0
H1955 H 0.49413 0.65714 0.90634 0.0
H1956 H 0.58138 0.68768 0.85731 0.0
H1957 H 0.60065 0.6943 0.89991 0.0
H1958 H 0.58138 0.68014 0.91132 0.0
H1959 H 0.56201 0.67402 0.86887 0.0
C1960 C 0.63396 0.32827 0.18857 0.0
C1961 C 0.62535 0.34059 0.18608 0.0
C1962 C 0.6459 0.35661 0.18882 0.0
C1963 C 0.63125 0.35461 0.18618 0.0
C1964 C 0.65439 0.34432 0.19209 0.0
C1965 C 0.64846 0.3302 0.19186 0.0
U1966 U 0.6022 0.30629 0.17771 0.0
O1967 O 0.599 0.29001 0.16049 0.0
O1968 O 0.59437 0.28405 0.18338 0.0
C1969 C 0.59541 0.27956 0.1697 0.0
C1970 C 0.62797 0.31357 0.18613 0.0
C1971 C 0.60206 0.26517 0.16688 0.0
C1972 C 0.61953 0.25101 0.15316 0.0
C1973 C 0.61538 0.26412 0.1599 0.0
C1974 C 0.59804 0.23932 0.16209 0.0
C1975 C 0.61049 0.23867 0.15342 0.0
C1976 C 0.59379 0.2525 0.16859 0.0
C1977 C 0.57012 0.33199 0.16842 0.0
C1978 C 0.55464 0.33202 0.14702 0.0
C1979 C 0.55427 0.35248 0.16395 0.0
C1980 C 0.5642 0.34537 0.17284 0.0
C1981 C 0.55016 0.34628 0.1505 0.0
C1982 C 0.56465 0.32489 0.15594 0.0
C1983 C 0.58405 0.32795 0.1746 0.0
O1984 O 0.61797 0.30944 0.1954 0.0
O1985 O 0.62456 0.31105 0.1724 0.0
O1986 O 0.58447 0.31979 0.18649 0.0
O1987 O 0.59385 0.32456 0.16489 0.0
H1988 H 0.61413 0.33932 0.18352 0.0
H1989 H 0.6244 0.36391 0.1839 0.0
H1990 H 0.6657 0.34559 0.19419 0.0
H1991 H 0.65526 0.32079 0.19375 0.0
H1992 H 0.62925 0.25102 0.14675 0.0
H1993 H 0.62205 0.27374 0.1586 0.0
H1994 H 0.59106 0.22991 0.16311 0.0
H1995 H 0.58354 0.25302 0.17407 0.0
H1996 H 0.55164 0.32707 0.13668 0.0
H1997 H 0.55092 0.36347 0.16684 0.0
H1998 H 0.56833 0.35104 0.18237 0.0
H1999 H 0.56911 0.31455 0.15233 0.0
C2000 C 0.91866 0.3671 0.44095 0.0
C2001 C 0.90806 0.35717 0.44519 0.0
C2002 C 0.89365 0.37745 0.45464 0.0
C2003 C 0.89568 0.36231 0.45207 0.0
C2004 C 0.90471 0.3872 0.45119 0.0
C2005 C 0.9171 0.38204 0.44439 0.0
U2006 U 0.94661 0.34642 0.41469 0.0
O2007 O 0.95936 0.36067 0.40031 0.0
O2008 O 0.96983 0.34861 0.41825 0.0
C2009 C 0.97123 0.35811 0.40748 0.0
C2010 C 0.93121 0.36267 0.43237 0.0
C2011 C 0.98467 0.35872 0.39916 0.0
C2012 C 0.00323 0.37425 0.38895 0.0
C2013 C 0.99035 0.37264 0.39638 0.0
C2014 C 0.00518 0.34786 0.38695 0.0
C2015 C 0.01101 0.36191 0.38426 0.0
C2016 C 0.99208 0.34627 0.39432 0.0
C2017 C 0.92595 0.31092 0.40274 0.0
C2018 C 0.91435 0.29032 0.39054 0.0
C2019 C 0.9027 0.30242 0.4109 0.0
C2020 C 0.91433 0.31198 0.41236 0.0
C2021 C 0.90242 0.29168 0.39977 0.0
C2022 C 0.92597 0.29988 0.39201 0.0
C2023 C 0.938 0.32135 0.40328 0.0
O2024 O 0.9394 0.35195 0.43709 0.0
O2025 O 0.93046 0.36361 0.41802 0.0
O2026 O 0.93593 0.33416 0.397 0.0
O2027 O 0.94508 0.3223 0.4157 0.0
H2028 H 0.9091 0.34561 0.44271 0.0
H2029 H 0.88728 0.35455 0.45463 0.0
H2030 H 0.90337 0.39888 0.45281 0.0
H2031 H 0.92527 0.38985 0.44123 0.0
H2032 H 0.00696 0.38527 0.38678 0.0
H2033 H 0.98476 0.3824 0.40002 0.0
H2034 H 0.01081 0.33806 0.38363 0.0
H2035 H 0.98784 0.33541 0.39636 0.0
H2036 H 0.91444 0.28231 0.38178 0.0
H2037 H 0.89373 0.30365 0.41829 0.0
H2038 H 0.91412 0.32036 0.42076 0.0
H2039 H 0.93488 0.29887 0.3845 0.0
C2040 C 0.86083 0.6406 0.65291 0.0
C2041 C 0.85869 0.62545 0.65167 0.0
C2042 C 0.85973 0.62296 0.67818 0.0
C2043 C 0.85811 0.61668 0.6642 0.0
C2044 C 0.85976 0.63834 0.67944 0.0
C2045 C 0.86037 0.64713 0.66685 0.0
U2046 U 0.87509 0.67048 0.62417 0.0
O2047 O 0.87605 0.69125 0.63631 0.0
O2048 O 0.85987 0.68827 0.61916 0.0
C2049 C 0.86595 0.69739 0.62846 0.0
C2050 C 0.86759 0.64805 0.64039 0.0
C2051 C 0.86903 0.71244 0.62325 0.0
C2052 C 0.86577 0.73862 0.62675 0.0
C2053 C 0.86321 0.72418 0.63108 0.0
C2054 C 0.88047 0.73002 0.60671 0.0
C2055 C 0.87421 0.74179 0.61436 0.0
C2056 C 0.87788 0.71542 0.61112 0.0
C2057 C 0.9051 0.65373 0.60101 0.0
C2058 C 0.92944 0.64764 0.59473 0.0
C2059 C 0.91337 0.62845 0.6027 0.0
C2060 C 0.90246 0.63892 0.6043 0.0
C2061 C 0.92725 0.63271 0.59828 0.0
C2062 C 0.9185 0.65784 0.59582 0.0
C2063 C 0.8952 0.66562 0.60482 0.0
O2064 O 0.87855 0.65654 0.64327 0.0
O2065 O 0.86014 0.65205 0.62883 0.0
O2066 O 0.89754 0.67135 0.61778 0.0
O2067 O 0.88157 0.66389 0.60182 0.0
H2068 H 0.85903 0.62018 0.64103 0.0
H2069 H 0.85771 0.60488 0.66289 0.0
H2070 H 0.86085 0.64352 0.69006 0.0
H2071 H 0.86196 0.65883 0.66805 0.0
H2072 H 0.86091 0.74739 0.633 0.0
H2073 H 0.85653 0.72217 0.64058 0.0
H2074 H 0.88694 0.73209 0.59708 0.0
H2075 H 0.88264 0.7065 0.605 0.0
H2076 H 0.93979 0.65196 0.59188 0.0
H2077 H 0.91092 0.61716 0.60532 0.0
H2078 H 0.89216 0.63554 0.60852 0.0
H2079 H 0.92081 0.66925 0.59347 0.0
C2080 C 0.57306 0.36154 0.55645 0.0
C2081 C 0.5832 0.35084 0.56006 0.0
C2082 C 0.59937 0.36059 0.54149 0.0
C2083 C 0.59626 0.35035 0.55261 0.0
C2084 C 0.58919 0.37143 0.53813 0.0
C2085 C 0.57615 0.37185 0.54552 0.0
U2086 U 0.54581 0.35205 0.58692 0.0
O2087 O 0.53017 0.36666 0.59702 0.0
O2088 O 0.52278 0.34728 0.58459 0.0
C2089 C 0.51931 0.35869 0.59264 0.0
C2090 C 0.55904 0.3621 0.56361 0.0
C2091 C 0.50557 0.366 0.5904 0.0
C2092 C 0.49139 0.38831 0.58912 0.0
C2093 C 0.50446 0.38104 0.5872 0.0
C2094 C 0.48051 0.36538 0.5966 0.0
C2095 C 0.47938 0.3806 0.59427 0.0
C2096 C 0.49341 0.35819 0.59462 0.0
C2097 C 0.57046 0.32786 0.61285 0.0
C2098 C 0.58153 0.31765 0.63463 0.0
C2099 C 0.59242 0.31413 0.61075 0.0
C2100 C 0.58144 0.32215 0.60418 0.0
C2101 C 0.59256 0.31179 0.62606 0.0
C2102 C 0.57058 0.32559 0.62805 0.0
C2103 C 0.55823 0.33561 0.60664 0.0
O2104 O 0.55168 0.34982 0.5637 0.0
O2105 O 0.55848 0.36927 0.5761 0.0
O2106 O 0.5521 0.3302 0.59485 0.0
O2107 O 0.55834 0.35 0.60718 0.0
H2108 H 0.58097 0.34279 0.5685 0.0
H2109 H 0.60381 0.3418 0.55538 0.0
H2110 H 0.59131 0.37967 0.52986 0.0
H2111 H 0.56844 0.38022 0.54264 0.0
H2112 H 0.49083 0.40001 0.58717 0.0
H2113 H 0.5138 0.38727 0.58403 0.0
H2114 H 0.47163 0.35911 0.60092 0.0
H2115 H 0.49412 0.34666 0.59745 0.0
H2116 H 0.5814 0.31619 0.64641 0.0
H2117 H 0.60066 0.30954 0.60382 0.0
H2118 H 0.58142 0.32372 0.59241 0.0
H2119 H 0.56207 0.32989 0.63486 0.0
C2120 C 0.86059 0.36357 0.85091 0.0
C2121 C 0.85841 0.37872 0.85204 0.0
C2122 C 0.85955 0.38103 0.82553 0.0
C2123 C 0.85786 0.3874 0.83946 0.0
C2124 C 0.85961 0.36565 0.82437 0.0
C2125 C 0.86019 0.35695 0.83702 0.0
U2126 U 0.87465 0.33371 0.87966 0.0
O2127 O 0.87542 0.31294 0.86749 0.0
O2128 O 0.85926 0.31605 0.88463 0.0
C2129 C 0.86527 0.30689 0.87534 0.0
C2130 C 0.86736 0.35623 0.86349 0.0
C2131 C 0.86824 0.29183 0.8806 0.0
C2132 C 0.86494 0.26565 0.8771 0.0
C2133 C 0.86255 0.28009 0.87265 0.0
C2134 C 0.87922 0.27425 0.89745 0.0
C2135 C 0.87306 0.26248 0.8897 0.0
C2136 C 0.87681 0.28885 0.89294 0.0
C2137 C 0.90476 0.35027 0.90269 0.0
C2138 C 0.92918 0.35643 0.90853 0.0
C2139 C 0.91285 0.37563 0.9012 0.0
C2140 C 0.90197 0.36511 0.89966 0.0
C2141 C 0.9268 0.37139 0.90533 0.0
C2142 C 0.91828 0.34616 0.90749 0.0
C2143 C 0.8948 0.33839 0.89899 0.0
O2144 O 0.87828 0.34769 0.86063 0.0
O2145 O 0.85987 0.35226 0.87504 0.0
O2146 O 0.89709 0.33261 0.88605 0.0
O2147 O 0.88118 0.34019 0.90202 0.0
H2148 H 0.8587 0.38407 0.86266 0.0
H2149 H 0.85744 0.39921 0.84068 0.0
H2150 H 0.86077 0.3604 0.81379 0.0
H2151 H 0.86181 0.34524 0.8359 0.0
H2152 H 0.86017 0.25688 0.87076 0.0
H2153 H 0.85609 0.2821 0.863 0.0
H2154 H 0.88545 0.2722 0.90723 0.0
H2155 H 0.88147 0.29777 0.89914 0.0
H2156 H 0.93964 0.35218 0.91108 0.0
H2157 H 0.91034 0.38695 0.89879 0.0
H2158 H 0.89158 0.36848 0.8957 0.0
H2159 H 0.92071 0.33473 0.9096 0.0
C2160 C 0.91866 0.63671 0.06272 0.0
C2161 C 0.90807 0.64664 0.05846 0.0
C2162 C 0.89365 0.62635 0.04902 0.0
C2163 C 0.89569 0.64149 0.05158 0.0
C2164 C 0.9047 0.61661 0.05249 0.0
C2165 C 0.91709 0.62177 0.0593 0.0
U2166 U 0.94658 0.65745 0.089 0.0
O2167 O 0.95935 0.64324 0.10338 0.0
O2168 O 0.96981 0.65534 0.08545 0.0
C2169 C 0.97123 0.64587 0.09624 0.0
C2170 C 0.93121 0.64116 0.07131 0.0
C2171 C 0.98463 0.64539 0.10462 0.0
C2172 C 0.00322 0.63003 0.11498 0.0
C2173 C 0.99034 0.63152 0.10752 0.0
C2174 C 0.00509 0.65645 0.11678 0.0
C2175 C 0.01097 0.64244 0.11956 0.0
C2176 C 0.99199 0.65791 0.10938 0.0
C2177 C 0.92588 0.6929 0.10095 0.0
C2178 C 0.9143 0.71351 0.11316 0.0
C2179 C 0.90263 0.70139 0.09281 0.0
C2180 C 0.91426 0.69184 0.09135 0.0
C2181 C 0.90236 0.71214 0.10394 0.0
C2182 C 0.92592 0.70396 0.11168 0.0
C2183 C 0.93793 0.68249 0.10041 0.0
O2184 O 0.93939 0.6519 0.06659 0.0
O2185 O 0.93046 0.64021 0.08565 0.0
O2186 O 0.93587 0.66968 0.10668 0.0
O2187 O 0.94502 0.68156 0.08799 0.0
H2188 H 0.90912 0.6582 0.06094 0.0
H2189 H 0.8873 0.64925 0.04901 0.0
H2190 H 0.90335 0.60492 0.05087 0.0
H2191 H 0.92524 0.61396 0.06246 0.0
H2192 H 0.00698 0.61904 0.11724 0.0
H2193 H 0.9848 0.62171 0.10396 0.0
H2194 H 0.01069 0.66629 0.12005 0.0
H2195 H 0.98772 0.66874 0.10725 0.0
H2196 H 0.91439 0.72152 0.12192 0.0
H2197 H 0.89366 0.70015 0.08543 0.0
H2198 H 0.91404 0.68345 0.08295 0.0
H2199 H 0.93483 0.70497 0.11918 0.0
C2200 C 0.6341 0.67541 0.31512 0.0
C2201 C 0.62545 0.66311 0.31764 0.0
C2202 C 0.64595 0.64705 0.3149 0.0
C2203 C 0.63132 0.64907 0.31755 0.0
C2204 C 0.65448 0.65931 0.31161 0.0
C2205 C 0.64859 0.67345 0.31183 0.0
U2206 U 0.60239 0.69729 0.3261 0.0
O2207 O 0.59917 0.7136 0.34328 0.0
O2208 O 0.59438 0.71945 0.32041 0.0
C2209 C 0.59547 0.72399 0.33406 0.0
C2210 C 0.62813 0.69013 0.31753 0.0
C2211 C 0.60207 0.73843 0.3368 0.0
C2212 C 0.61959 0.7527 0.35035 0.0
C2213 C 0.61545 0.73957 0.34365 0.0
C2214 C 0.59797 0.76426 0.3416 0.0
C2215 C 0.6105 0.765 0.35017 0.0
C2216 C 0.59372 0.75105 0.33516 0.0
C2217 C 0.57066 0.67107 0.33562 0.0
C2218 C 0.55506 0.67089 0.35692 0.0
C2219 C 0.55534 0.6502 0.34028 0.0
C2220 C 0.56514 0.65746 0.33137 0.0
C2221 C 0.55094 0.65647 0.3536 0.0
C2222 C 0.56496 0.67817 0.34798 0.0
C2223 C 0.58449 0.67543 0.3294 0.0
O2224 O 0.61807 0.69419 0.30832 0.0
O2225 O 0.62481 0.6927 0.33128 0.0
O2226 O 0.58473 0.68357 0.31749 0.0
O2227 O 0.59425 0.67902 0.33907 0.0
H2228 H 0.61423 0.6644 0.32019 0.0
H2229 H 0.62444 0.63979 0.31985 0.0
H2230 H 0.66578 0.65802 0.3095 0.0
H2231 H 0.65542 0.68284 0.30991 0.0
H2232 H 0.62936 0.75275 0.35666 0.0
H2233 H 0.62217 0.72999 0.34489 0.0
H2234 H 0.59096 0.77364 0.34062 0.0
H2235 H 0.58343 0.75047 0.32978 0.0
H2236 H 0.55181 0.67592 0.36714 0.0
H2237 H 0.55222 0.6391 0.33747 0.0
H2238 H 0.56946 0.65178 0.32192 0.0
H2239 H 0.56914 0.68868 0.35146 0.0
C2240 C 0.95046 0.56189 0.63518 0.0
C2241 C 0.9432 0.5744 0.64008 0.0
C2242 C 0.95273 0.58846 0.61949 0.0
C2243 C 0.94438 0.58761 0.63232 0.0
C2244 C 0.96058 0.57605 0.61516 0.0
C2245 C 0.95944 0.56291 0.62294 0.0
U2246 U 0.93254 0.53426 0.66193 0.0
O2247 O 0.92156 0.51429 0.65549 0.0
O2248 O 0.94065 0.5126 0.66962 0.0
C2249 C 0.93002 0.50577 0.66311 0.0
C2250 C 0.94755 0.54731 0.64135 0.0
C2251 C 0.93117 0.49057 0.65813 0.0
C2252 C 0.9294 0.47339 0.63788 0.0
C2253 C 0.93371 0.48704 0.6434 0.0
C2254 C 0.92066 0.46663 0.66193 0.0
C2255 C 0.9219 0.46335 0.64687 0.0
C2256 C 0.92546 0.47996 0.66748 0.0
C2257 C 0.90911 0.56081 0.68726 0.0
C2258 C 0.88922 0.56915 0.70217 0.0
C2259 C 0.90286 0.58656 0.68775 0.0
C2260 C 0.91172 0.57524 0.68277 0.0
C2261 C 0.89126 0.58352 0.69714 0.0
C2262 C 0.89807 0.5579 0.69723 0.0
C2263 C 0.91622 0.54822 0.68055 0.0
O2264 O 0.9527 0.5444 0.65446 0.0
O2265 O 0.93446 0.54253 0.63945 0.0
O2266 O 0.91205 0.54441 0.66735 0.0
O2267 O 0.92978 0.54559 0.68322 0.0
H2268 H 0.93624 0.5738 0.64955 0.0
H2269 H 0.9385 0.59706 0.6362 0.0
H2270 H 0.96708 0.57627 0.60534 0.0
H2271 H 0.96508 0.55332 0.61898 0.0
H2272 H 0.93116 0.47115 0.62638 0.0
H2273 H 0.93805 0.49518 0.63598 0.0
H2274 H 0.91486 0.45963 0.66941 0.0
H2275 H 0.92322 0.48258 0.67884 0.0
H2276 H 0.88029 0.56646 0.70923 0.0
H2277 H 0.90472 0.5976 0.68381 0.0
H2278 H 0.92016 0.57764 0.67501 0.0
H2279 H 0.89583 0.54674 0.70066 0.0
C2280 C 0.66869 0.69097 0.88677 0.0
C2281 C 0.65807 0.69513 0.89668 0.0
C2282 C 0.64367 0.70458 0.87639 0.0
C2283 C 0.64567 0.70198 0.89153 0.0
C2284 C 0.65476 0.70121 0.86666 0.0
C2285 C 0.66716 0.69444 0.87183 0.0
U2286 U 0.69663 0.66473 0.90748 0.0
O2287 O 0.7094 0.65039 0.89326 0.0
O2288 O 0.71986 0.66831 0.90534 0.0
C2289 C 0.72127 0.65754 0.89587 0.0
C2290 C 0.68125 0.68241 0.8912 0.0
C2291 C 0.73466 0.64915 0.89542 0.0
C2292 C 0.75327 0.63877 0.88011 0.0
C2293 C 0.7404 0.64625 0.88156 0.0
C2294 C 0.75506 0.63696 0.90653 0.0
C2295 C 0.76097 0.63417 0.89254 0.0
C2296 C 0.74197 0.64438 0.90796 0.0
C2297 C 0.67592 0.65276 0.94293 0.0
C2298 C 0.66428 0.64057 0.96353 0.0
C2299 C 0.65267 0.66093 0.95136 0.0
C2300 C 0.66431 0.66238 0.94182 0.0
C2301 C 0.65237 0.6498 0.96212 0.0
C2302 C 0.67592 0.64204 0.95399 0.0
C2303 C 0.68799 0.6533 0.93253 0.0
O2304 O 0.68942 0.68714 0.90194 0.0
O2305 O 0.68052 0.66807 0.89026 0.0
O2306 O 0.68594 0.64702 0.91973 0.0
O2307 O 0.69509 0.66572 0.93159 0.0
H2308 H 0.65909 0.69261 0.90824 0.0
H2309 H 0.63726 0.70448 0.89927 0.0
H2310 H 0.65344 0.70287 0.85498 0.0
H2311 H 0.67535 0.69134 0.86404 0.0
H2312 H 0.75706 0.63651 0.86914 0.0
H2313 H 0.73488 0.64982 0.87174 0.0
H2314 H 0.76064 0.63368 0.91639 0.0
H2315 H 0.73768 0.64652 0.91878 0.0
H2316 H 0.66435 0.63181 0.97155 0.0
H2317 H 0.64371 0.66832 0.9501 0.0
H2318 H 0.66413 0.67078 0.93343 0.0
H2319 H 0.68482 0.63452 0.95503 0.0
C2320 C 0.57244 0.41783 0.12066 0.0
C2321 C 0.57968 0.40442 0.12143 0.0
C2322 C 0.55686 0.39127 0.12095 0.0
C2323 C 0.57194 0.39123 0.12154 0.0
C2324 C 0.54979 0.40476 0.11954 0.0
C2325 C 0.55751 0.41787 0.11941 0.0
U2326 U 0.60096 0.4493 0.12935 0.0
O2327 O 0.59259 0.47003 0.13793 0.0
O2328 O 0.60322 0.46972 0.1165 0.0
C2329 C 0.59715 0.47774 0.12673 0.0
C2330 C 0.57967 0.43213 0.12178 0.0
C2331 C 0.60387 0.4918 0.13058 0.0
C2332 C 0.60079 0.51781 0.13514 0.0
C2333 C 0.5953 0.50435 0.13059 0.0
C2334 C 0.62371 0.50642 0.13965 0.0
C2335 C 0.61508 0.5191 0.1397 0.0
C2336 C 0.61813 0.49285 0.13517 0.0
C2337 C 0.63224 0.42686 0.147 0.0
C2338 C 0.65394 0.41702 0.15779 0.0
C2339 C 0.63179 0.40345 0.15962 0.0
C2340 C 0.62482 0.4143 0.15149 0.0
C2341 C 0.64635 0.40491 0.16334 0.0
C2342 C 0.64691 0.42793 0.14979 0.0
C2343 C 0.6247 0.43985 0.14144 0.0
O2344 O 0.5811 0.43775 0.13494 0.0
O2345 O 0.59034 0.43519 0.1129 0.0
O2346 O 0.61341 0.44394 0.14895 0.0
O2347 O 0.62307 0.44112 0.12717 0.0
H2348 H 0.5912 0.40416 0.12233 0.0
H2349 H 0.57772 0.38099 0.12248 0.0
H2350 H 0.53825 0.40525 0.11927 0.0
H2351 H 0.55174 0.42814 0.1188 0.0
H2352 H 0.5937 0.52719 0.1353 0.0
H2353 H 0.5842 0.50369 0.1273 0.0
H2354 H 0.63479 0.507 0.14294 0.0
H2355 H 0.62487 0.4832 0.13538 0.0
H2356 H 0.66519 0.41841 0.16011 0.0
H2357 H 0.62547 0.39442 0.16378 0.0
H2358 H 0.61347 0.4133 0.14945 0.0
H2359 H 0.65282 0.43757 0.1464 0.0
C2360 C 0.82312 0.30646 0.39225 0.0
C2361 C 0.83327 0.31006 0.40295 0.0
C2362 C 0.84943 0.29151 0.3932 0.0
C2363 C 0.84633 0.30262 0.40344 0.0
C2364 C 0.83923 0.28817 0.38236 0.0
C2365 C 0.8262 0.29555 0.38195 0.0
U2366 U 0.79585 0.3369 0.40172 0.0
O2367 O 0.7802 0.34699 0.38709 0.0
O2368 O 0.77282 0.33454 0.40649 0.0
C2369 C 0.76935 0.3426 0.39507 0.0
C2370 C 0.8091 0.31362 0.39169 0.0
C2371 C 0.75559 0.34039 0.38778 0.0
C2372 C 0.74138 0.3391 0.36549 0.0
C2373 C 0.75445 0.33716 0.37276 0.0
C2374 C 0.73055 0.34666 0.3884 0.0
C2375 C 0.7294 0.34429 0.3732 0.0
C2376 C 0.74346 0.34466 0.39558 0.0
C2377 C 0.82049 0.36285 0.4259 0.0
C2378 C 0.83155 0.38462 0.43613 0.0
C2379 C 0.84245 0.36075 0.43962 0.0
C2380 C 0.83147 0.35418 0.4316 0.0
C2381 C 0.84259 0.37605 0.44198 0.0
C2382 C 0.8206 0.37804 0.42819 0.0
C2383 C 0.80826 0.35664 0.41815 0.0
O2384 O 0.80175 0.31369 0.40398 0.0
O2385 O 0.80853 0.32611 0.38451 0.0
O2386 O 0.80213 0.34484 0.42356 0.0
O2387 O 0.80837 0.35719 0.40377 0.0
H2388 H 0.83105 0.31849 0.41099 0.0
H2389 H 0.85388 0.30538 0.41198 0.0
H2390 H 0.84135 0.27991 0.37412 0.0
H2391 H 0.81849 0.29268 0.37357 0.0
H2392 H 0.74079 0.33712 0.3538 0.0
H2393 H 0.76378 0.33395 0.36652 0.0
H2394 H 0.7217 0.35101 0.39467 0.0
H2395 H 0.7442 0.34752 0.4071 0.0
H2396 H 0.83141 0.3964 0.43761 0.0
H2397 H 0.85071 0.35382 0.4442 0.0
H2398 H 0.83146 0.34241 0.43001 0.0
H2399 H 0.81208 0.38485 0.4239 0.0
C2400 C 0.95035 0.44218 0.86846 0.0
C2401 C 0.94309 0.42967 0.86353 0.0
C2402 C 0.95238 0.41566 0.88425 0.0
C2403 C 0.94415 0.41648 0.87134 0.0
C2404 C 0.96026 0.42806 0.88859 0.0
C2405 C 0.95924 0.44117 0.88076 0.0
U2406 U 0.93251 0.46968 0.84164 0.0
O2407 O 0.92144 0.48963 0.84796 0.0
O2408 O 0.94058 0.49135 0.8339 0.0
C2409 C 0.92992 0.49817 0.84036 0.0
C2410 C 0.9475 0.45675 0.86226 0.0
C2411 C 0.9311 0.51334 0.84544 0.0
C2412 C 0.92932 0.53042 0.86577 0.0
C2413 C 0.93362 0.51678 0.86019 0.0
C2414 C 0.92067 0.53731 0.84173 0.0
C2415 C 0.92188 0.54052 0.85682 0.0
C2416 C 0.92545 0.52401 0.83612 0.0
C2417 C 0.90912 0.443 0.81636 0.0
C2418 C 0.88922 0.43466 0.80146 0.0
C2419 C 0.90287 0.41725 0.81586 0.0
C2420 C 0.91173 0.42858 0.82083 0.0
C2421 C 0.89127 0.42029 0.80647 0.0
C2422 C 0.89808 0.44592 0.8064 0.0
C2423 C 0.91624 0.4556 0.82307 0.0
O2424 O 0.95266 0.45962 0.84915 0.0
O2425 O 0.93442 0.46154 0.86415 0.0
O2426 O 0.91205 0.45942 0.83626 0.0
O2427 O 0.92979 0.45827 0.82038 0.0
H2428 H 0.9362 0.43027 0.85401 0.0
H2429 H 0.93826 0.40704 0.86745 0.0
H2430 H 0.96667 0.42787 0.89847 0.0
H2431 H 0.96488 0.45075 0.88474 0.0
H2432 H 0.93106 0.53258 0.87729 0.0
H2433 H 0.93791 0.50859 0.86758 0.0
H2434 H 0.91491 0.54434 0.83427 0.0
H2435 H 0.92323 0.52144 0.82474 0.0
H2436 H 0.88029 0.43735 0.79442 0.0
H2437 H 0.90472 0.40621 0.81979 0.0
H2438 H 0.92017 0.42618 0.82858 0.0
H2439 H 0.89584 0.45707 0.80299 0.0
C2440 C 0.82306 0.69731 0.11148 0.0
C2441 C 0.83322 0.69372 0.10078 0.0
C2442 C 0.84938 0.71228 0.11053 0.0
C2443 C 0.84628 0.70117 0.10029 0.0
C2444 C 0.83918 0.71562 0.12136 0.0
C2445 C 0.82615 0.70824 0.12178 0.0
U2446 U 0.79584 0.66682 0.102 0.0
O2447 O 0.78018 0.6567 0.11661 0.0
O2448 O 0.77282 0.66914 0.09721 0.0
C2449 C 0.76933 0.66109 0.10863 0.0
C2450 C 0.80905 0.69014 0.11204 0.0
C2451 C 0.7556 0.66338 0.11594 0.0
C2452 C 0.74142 0.66462 0.13826 0.0
C2453 C 0.75449 0.66652 0.13098 0.0
C2454 C 0.73051 0.65727 0.11531 0.0
C2455 C 0.72939 0.65954 0.13053 0.0
C2456 C 0.74343 0.65924 0.10812 0.0
C2457 C 0.82051 0.6409 0.07784 0.0
C2458 C 0.83156 0.61914 0.06759 0.0
C2459 C 0.84248 0.64301 0.06411 0.0
C2460 C 0.83151 0.64958 0.07214 0.0
C2461 C 0.84261 0.62771 0.06174 0.0
C2462 C 0.82061 0.62571 0.07555 0.0
C2463 C 0.80829 0.64711 0.08559 0.0
O2464 O 0.80171 0.69005 0.09974 0.0
O2465 O 0.80848 0.67765 0.11922 0.0
O2466 O 0.80215 0.6589 0.08017 0.0
O2467 O 0.80839 0.64656 0.09997 0.0
H2468 H 0.831 0.68528 0.09274 0.0
H2469 H 0.85384 0.69841 0.09175 0.0
H2470 H 0.84129 0.72389 0.1296 0.0
H2471 H 0.81843 0.7111 0.13015 0.0
H2472 H 0.74085 0.66652 0.14996 0.0
H2473 H 0.76384 0.66963 0.13723 0.0
H2474 H 0.72163 0.653 0.10903 0.0
H2475 H 0.74414 0.65645 0.09659 0.0
H2476 H 0.8314 0.60736 0.06611 0.0
H2477 H 0.85075 0.64995 0.05954 0.0
H2478 H 0.83151 0.66135 0.07373 0.0
H2479 H 0.81209 0.6189 0.07983 0.0
C2480 C 0.57224 0.58509 0.3837 0.0
C2481 C 0.57937 0.59858 0.38345 0.0
C2482 C 0.55642 0.61142 0.38329 0.0
C2483 C 0.5715 0.61166 0.3833 0.0
C2484 C 0.54943 0.59785 0.38427 0.0
C2485 C 0.55728 0.58484 0.38445 0.0
U2486 U 0.60111 0.5541 0.37471 0.0
O2487 O 0.59282 0.53336 0.36612 0.0
O2488 O 0.60362 0.53366 0.38745 0.0
C2489 C 0.59747 0.52564 0.37726 0.0
C2490 C 0.57967 0.57093 0.38251 0.0
C2491 C 0.60415 0.51162 0.37332 0.0
C2492 C 0.60096 0.48566 0.36858 0.0
C2493 C 0.59553 0.4991 0.37321 0.0
C2494 C 0.62394 0.49701 0.36417 0.0
C2495 C 0.61526 0.48437 0.36403 0.0
C2496 C 0.61841 0.51057 0.36873 0.0
C2497 C 0.6322 0.57679 0.35681 0.0
C2498 C 0.65389 0.58662 0.34594 0.0
C2499 C 0.63174 0.60016 0.34411 0.0
C2500 C 0.62478 0.58932 0.35229 0.0
C2501 C 0.6463 0.59872 0.34038 0.0
C2502 C 0.64688 0.57574 0.35399 0.0
C2503 C 0.62469 0.56379 0.36243 0.0
O2504 O 0.58108 0.56538 0.36931 0.0
O2505 O 0.59046 0.56804 0.39128 0.0
O2506 O 0.61335 0.55968 0.35501 0.0
O2507 O 0.62318 0.56248 0.37671 0.0
H2508 H 0.59091 0.599 0.38296 0.0
H2509 H 0.5772 0.62198 0.38272 0.0
H2510 H 0.53789 0.59725 0.38411 0.0
H2511 H 0.5516 0.57449 0.38469 0.0
H2512 H 0.59384 0.47631 0.36835 0.0
H2513 H 0.58443 0.49977 0.3765 0.0
H2514 H 0.63503 0.49642 0.36088 0.0
H2515 H 0.62518 0.5202 0.36859 0.0
H2516 H 0.66514 0.58524 0.34361 0.0
H2517 H 0.62542 0.60917 0.33994 0.0
H2518 H 0.61343 0.59031 0.35434 0.0
H2519 H 0.65279 0.56611 0.3574 0.0
C2520 C 0.66863 0.31274 0.61701 0.0
C2521 C 0.65803 0.30851 0.60709 0.0
C2522 C 0.64361 0.29908 0.62739 0.0
C2523 C 0.64564 0.30165 0.61225 0.0
C2524 C 0.65467 0.30251 0.63713 0.0
C2525 C 0.66708 0.3093 0.63195 0.0
U2526 U 0.69658 0.33901 0.59629 0.0
O2527 O 0.70935 0.35335 0.61053 0.0
O2528 O 0.7198 0.33544 0.59844 0.0
C2529 C 0.72122 0.34621 0.60791 0.0
C2530 C 0.68119 0.32131 0.61257 0.0
C2531 C 0.73461 0.35462 0.60834 0.0
C2532 C 0.75322 0.36502 0.62363 0.0
C2533 C 0.74035 0.35753 0.62219 0.0
C2534 C 0.755 0.36683 0.5972 0.0
C2535 C 0.76092 0.36962 0.61119 0.0
C2536 C 0.74191 0.35939 0.59579 0.0
C2537 C 0.67589 0.35101 0.56085 0.0
C2538 C 0.66429 0.36322 0.54024 0.0
C2539 C 0.65263 0.34286 0.5524 0.0
C2540 C 0.66426 0.3414 0.56194 0.0
C2541 C 0.65235 0.354 0.54164 0.0
C2542 C 0.67592 0.36174 0.54978 0.0
C2543 C 0.68795 0.35046 0.57125 0.0
O2544 O 0.68936 0.3166 0.60183 0.0
O2545 O 0.68046 0.33566 0.61352 0.0
O2546 O 0.68589 0.35672 0.58406 0.0
O2547 O 0.69503 0.33804 0.57218 0.0
H2548 H 0.65907 0.31101 0.59553 0.0
H2549 H 0.63723 0.29911 0.6045 0.0
H2550 H 0.65334 0.30089 0.64881 0.0
H2551 H 0.67525 0.31244 0.63976 0.0
H2552 H 0.75702 0.36729 0.6346 0.0
H2553 H 0.73484 0.35396 0.63202 0.0
H2554 H 0.76058 0.3701 0.58734 0.0
H2555 H 0.73762 0.35725 0.58498 0.0
H2556 H 0.66438 0.37198 0.53222 0.0
H2557 H 0.64365 0.33548 0.55366 0.0
H2558 H 0.66406 0.33299 0.57033 0.0
H2559 H 0.68484 0.36924 0.54875 0.0
C2560 C 0.61135 0.90532 0.61217 0.0
C2561 C 0.61394 0.90184 0.62687 0.0
C2562 C 0.61258 0.92794 0.63323 0.0
C2563 C 0.61425 0.91306 0.6374 0.0
C2564 C 0.60894 0.93097 0.61857 0.0
C2565 C 0.60816 0.91978 0.60828 0.0
U2566 U 0.62341 0.87472 0.58265 0.0
O2567 O 0.6256 0.88462 0.56096 0.0
O2568 O 0.6093 0.86766 0.56453 0.0
C2569 C 0.61551 0.87659 0.55513 0.0
C2570 C 0.6138 0.8951 0.60007 0.0
C2571 C 0.61859 0.87131 0.54027 0.0
C2572 C 0.61597 0.87562 0.51423 0.0
C2573 C 0.61308 0.87953 0.52865 0.0
C2574 C 0.6304 0.85526 0.52269 0.0
C2575 C 0.62435 0.86325 0.51102 0.0
C2576 C 0.62755 0.85931 0.53731 0.0
C2577 C 0.65384 0.8518 0.60112 0.0
C2578 C 0.67823 0.8446 0.60587 0.0
C2579 C 0.66287 0.85151 0.62607 0.0
C2580 C 0.65164 0.85394 0.61617 0.0
C2581 C 0.67655 0.84738 0.62097 0.0
C2582 C 0.66699 0.84659 0.59618 0.0
C2583 C 0.64352 0.85608 0.58983 0.0
O2584 O 0.62543 0.89662 0.59221 0.0
O2585 O 0.60794 0.88197 0.59964 0.0
O2586 O 0.64599 0.86885 0.58371 0.0
O2587 O 0.62989 0.85333 0.59196 0.0
H2588 H 0.61631 0.89067 0.63009 0.0
H2589 H 0.61641 0.91005 0.64866 0.0
H2590 H 0.60767 0.94204 0.61457 0.0
H2591 H 0.60606 0.92262 0.59693 0.0
H2592 H 0.61134 0.88213 0.5055 0.0
H2593 H 0.60646 0.88905 0.53074 0.0
H2594 H 0.63687 0.84568 0.52053 0.0
H2595 H 0.63219 0.85306 0.54621 0.0
H2596 H 0.68844 0.84181 0.60114 0.0
H2597 H 0.6609 0.85338 0.6376 0.0
H2598 H 0.64148 0.85791 0.62019 0.0
H2599 H 0.66886 0.84489 0.58457 0.0
C2600 C 0.11169 0.59877 0.39118 0.0
C2601 C 0.11357 0.602 0.37631 0.0
C2602 C 0.11237 0.57585 0.37046 0.0
C2603 C 0.11364 0.59065 0.36597 0.0
C2604 C 0.10924 0.573 0.3853 0.0
C2605 C 0.1088 0.58436 0.39549 0.0
U2606 U 0.12391 0.62922 0.42112 0.0
O2607 O 0.12599 0.61895 0.44267 0.0
O2608 O 0.10936 0.63555 0.43913 0.0
C2609 C 0.11571 0.62671 0.44851 0.0
C2610 C 0.11568 0.6093 0.40256 0.0
C2611 C 0.11867 0.63208 0.46338 0.0
C2612 C 0.11577 0.62803 0.48945 0.0
C2613 C 0.11299 0.62401 0.47502 0.0
C2614 C 0.13041 0.64823 0.48095 0.0
C2615 C 0.12422 0.64038 0.49264 0.0
C2616 C 0.12766 0.64408 0.46634 0.0
C2617 C 0.15391 0.65265 0.40294 0.0
C2618 C 0.1783 0.65972 0.39794 0.0
C2619 C 0.16288 0.65239 0.37794 0.0
C2620 C 0.15168 0.65016 0.38794 0.0
C2621 C 0.17659 0.65665 0.3829 0.0
C2622 C 0.16708 0.65795 0.40771 0.0
C2623 C 0.14366 0.64846 0.41436 0.0
O2624 O 0.12712 0.60762 0.41067 0.0
O2625 O 0.10899 0.62193 0.40391 0.0
O2626 O 0.14632 0.63581 0.42063 0.0
O2627 O 0.12999 0.6509 0.41216 0.0
H2628 H 0.11584 0.61311 0.37281 0.0
H2629 H 0.11543 0.59348 0.3546 0.0
H2630 H 0.10824 0.56194 0.38945 0.0
H2631 H 0.10734 0.5817 0.40698 0.0
H2632 H 0.11103 0.62162 0.49818 0.0
H2633 H 0.10633 0.61451 0.47296 0.0
H2634 H 0.13693 0.6578 0.48309 0.0
H2635 H 0.13241 0.65023 0.45743 0.0
H2636 H 0.18851 0.66259 0.40262 0.0
H2637 H 0.16086 0.65028 0.36646 0.0
H2638 H 0.14152 0.64606 0.38403 0.0
H2639 H 0.16899 0.65987 0.41928 0.0
C2640 C 0.70183 0.88995 0.68621 0.0
C2641 C 0.69403 0.89343 0.67361 0.0
C2642 C 0.70395 0.87196 0.66131 0.0
C2643 C 0.69524 0.88458 0.66114 0.0
C2644 C 0.71245 0.86921 0.67368 0.0
C2645 C 0.71143 0.87818 0.68598 0.0
U2646 U 0.68382 0.91112 0.71984 0.0
O2647 O 0.67975 0.89654 0.73827 0.0
O2648 O 0.69464 0.91492 0.74115 0.0
C2649 C 0.68846 0.90342 0.74714 0.0
C2650 C 0.69808 0.89584 0.70058 0.0
C2651 C 0.68348 0.90411 0.76231 0.0
C2652 C 0.68218 0.89054 0.78514 0.0
C2653 C 0.68918 0.89378 0.77206 0.0
C2654 C 0.66442 0.90906 0.7796 0.0
C2655 C 0.66948 0.89777 0.78876 0.0
C2656 C 0.67132 0.91211 0.7663 0.0
C2657 C 0.65683 0.93654 0.69984 0.0
C2658 C 0.63754 0.95142 0.68995 0.0
C2659 C 0.65279 0.93758 0.67358 0.0
C2660 C 0.66069 0.93247 0.68557 0.0
C2661 C 0.6409 0.9468 0.67569 0.0
C2662 C 0.64543 0.94629 0.70193 0.0
C2663 C 0.66385 0.93014 0.71277 0.0
O2664 O 0.70235 0.90894 0.70477 0.0
O2665 O 0.68564 0.89187 0.70585 0.0
O2666 O 0.66134 0.91616 0.71512 0.0
O2667 O 0.67726 0.93383 0.71498 0.0
H2668 H 0.68648 0.90242 0.67368 0.0
H2669 H 0.68889 0.88729 0.6516 0.0
H2670 H 0.7192 0.85959 0.67425 0.0
H2671 H 0.71735 0.87522 0.69576 0.0
H2672 H 0.68629 0.88186 0.79207 0.0
H2673 H 0.69846 0.88736 0.76902 0.0
H2674 H 0.65459 0.91473 0.78219 0.0
H2675 H 0.66665 0.91993 0.75876 0.0
H2676 H 0.62836 0.95836 0.69193 0.0
H2677 H 0.65568 0.93394 0.66267 0.0
H2678 H 0.66949 0.925 0.68374 0.0
H2679 H 0.6423 0.94954 0.71289 0.0
C2680 C 0.38388 0.43862 0.92542 0.0
C2681 C 0.37529 0.43612 0.91308 0.0
C2682 C 0.39586 0.43889 0.89711 0.0
C2683 C 0.38121 0.43624 0.89907 0.0
C2684 C 0.40434 0.44217 0.9094 0.0
C2685 C 0.39838 0.44192 0.92351 0.0
U2686 U 0.35211 0.42768 0.9474 0.0
O2687 O 0.34896 0.41048 0.96374 0.0
O2688 O 0.34427 0.43336 0.96961 0.0
C2689 C 0.34534 0.4197 0.97415 0.0
C2690 C 0.37787 0.43616 0.94011 0.0
C2691 C 0.352 0.41693 0.98854 0.0
C2692 C 0.36951 0.40328 0.00274 0.0
C2693 C 0.36534 0.41 0.98961 0.0
C2694 C 0.34799 0.41213 0.01439 0.0
C2695 C 0.36047 0.40351 0.01507 0.0
C2696 C 0.34372 0.41861 1.00121 0.0
C2697 C 0.32002 0.41825 0.92175 0.0
C2698 C 0.30457 0.39682 0.92175 0.0
C2699 C 0.30407 0.41383 0.90133 0.0
C2700 C 0.31403 0.42271 0.90842 0.0
C2701 C 0.30001 0.40035 0.90752 0.0
C2702 C 0.3146 0.40573 0.92885 0.0
C2703 C 0.33396 0.42447 0.92575 0.0
O2704 O 0.36785 0.4454 0.9442 0.0
O2705 O 0.37449 0.42242 0.94265 0.0
O2706 O 0.33437 0.43638 0.93387 0.0
O2707 O 0.34377 0.4148 0.92917 0.0
H2708 H 0.36406 0.43355 0.91433 0.0
H2709 H 0.37438 0.43396 0.88977 0.0
H2710 H 0.41564 0.44428 0.90815 0.0
H2711 H 0.40517 0.44382 0.93293 0.0
H2712 H 0.37924 0.39691 0.00275 0.0
H2713 H 0.37202 0.40873 0.98 0.0
H2714 H 0.34101 0.41313 0.0238 0.0
H2715 H 0.33345 0.42405 1.00067 0.0
H2716 H 0.30161 0.38645 0.92668 0.0
H2717 H 0.30066 0.41675 0.89036 0.0
H2718 H 0.31811 0.43228 0.90274 0.0
H2719 H 0.31912 0.4021 0.93915 0.0
C2720 C 0.3224 0.63303 0.66774 0.0
C2721 C 0.32964 0.63231 0.65432 0.0
C2722 C 0.30683 0.63275 0.64118 0.0
C2723 C 0.3219 0.63221 0.64113 0.0
C2724 C 0.29975 0.63412 0.65467 0.0
C2725 C 0.30747 0.63424 0.66777 0.0
U2726 U 0.35092 0.62438 0.69923 0.0
O2727 O 0.34257 0.61581 0.71998 0.0
O2728 O 0.35319 0.63724 0.71962 0.0
C2729 C 0.34712 0.62701 0.72767 0.0
C2730 C 0.32963 0.63193 0.68204 0.0
C2731 C 0.35385 0.62317 0.74173 0.0
C2732 C 0.35078 0.61863 0.76777 0.0
C2733 C 0.34528 0.62317 0.7543 0.0
C2734 C 0.37369 0.61412 0.75636 0.0
C2735 C 0.36507 0.61408 0.76905 0.0
C2736 C 0.36811 0.61859 0.74278 0.0
C2737 C 0.38221 0.60673 0.6768 0.0
C2738 C 0.4039 0.59589 0.66698 0.0
C2739 C 0.38175 0.59411 0.65341 0.0
C2740 C 0.37479 0.60225 0.66425 0.0
C2741 C 0.39631 0.59036 0.65486 0.0
C2742 C 0.39688 0.60391 0.67787 0.0
C2743 C 0.37467 0.6123 0.68979 0.0
O2744 O 0.33107 0.61876 0.6877 0.0
O2745 O 0.3403 0.64082 0.68509 0.0
O2746 O 0.36339 0.60479 0.6939 0.0
O2747 O 0.37304 0.62657 0.69102 0.0
H2748 H 0.34117 0.63144 0.65405 0.0
H2749 H 0.3277 0.6313 0.6309 0.0
H2750 H 0.28821 0.63436 0.65516 0.0
H2751 H 0.30168 0.63482 0.67805 0.0
H2752 H 0.34369 0.61848 0.77715 0.0
H2753 H 0.33419 0.62646 0.75364 0.0
H2754 H 0.38478 0.61083 0.75694 0.0
H2755 H 0.37484 0.61837 0.73313 0.0
H2756 H 0.41514 0.59356 0.66836 0.0
H2757 H 0.37543 0.58996 0.64439 0.0
H2758 H 0.36345 0.6043 0.66325 0.0
H2759 H 0.40279 0.60729 0.6875 0.0
C2760 C 0.88405 0.06535 0.07807 0.0
C2761 C 0.87539 0.06784 0.09036 0.0
C2762 C 0.89585 0.06496 0.10647 0.0
C2763 C 0.88122 0.06766 0.10441 0.0
C2764 C 0.90438 0.06168 0.09422 0.0
C2765 C 0.89852 0.06198 0.08007 0.0
U2766 U 0.85252 0.07649 0.05583 0.0
O2767 O 0.84965 0.09381 0.03956 0.0
O2768 O 0.84488 0.07099 0.0335 0.0
C2769 C 0.84609 0.08467 0.02905 0.0
C2770 C 0.87818 0.0679 0.06334 0.0
C2771 C 0.85288 0.08748 0.01471 0.0
C2772 C 0.87057 0.10101 1.00057 0.0
C2773 C 0.86624 0.09443 0.01373 0.0
C2774 C 0.84914 0.09209 0.98878 0.0
C2775 C 0.86167 0.10067 0.98815 0.0
C2776 C 0.84473 0.08572 0.00197 0.0
C2777 C 0.82026 0.08564 0.08151 0.0
C2778 C 0.80472 0.10697 0.08174 0.0
C2779 C 0.8045 0.08992 0.10212 0.0
C2780 C 0.81442 0.08111 0.0949 0.0
C2781 C 0.8003 0.10339 0.09601 0.0
C2782 C 0.81473 0.09814 0.07451 0.0
C2783 C 0.8342 0.07951 0.07737 0.0
O2784 O 0.86817 0.05871 0.05909 0.0
O2785 O 0.87486 0.08167 0.06086 0.0
O2786 O 0.83463 0.06769 0.06914 0.0
O2787 O 0.84401 0.08924 0.07406 0.0
H2788 H 0.86419 0.07045 0.08904 0.0
H2789 H 0.87434 0.06996 0.11368 0.0
H2790 H 0.91568 0.05953 0.09554 0.0
H2791 H 0.90537 0.06009 0.0707 0.0
H2792 H 0.88033 0.10737 1.00057 0.0
H2793 H 0.87282 0.09577 0.0234 0.0
H2794 H 0.84225 0.09106 0.9793 0.0
H2795 H 0.83445 0.08028 0.00243 0.0
H2796 H 0.80165 0.11733 0.07686 0.0
H2797 H 0.8012 0.08694 0.11311 0.0
H2798 H 0.8186 0.07155 0.10051 0.0
H2799 H 0.81914 0.10183 0.06417 0.0
C2800 C 0.70104 0.11875 0.81147 0.0
C2801 C 0.69394 0.11373 0.82403 0.0
C2802 C 0.70351 0.13431 0.83801 0.0
C2803 C 0.69523 0.12142 0.83724 0.0
C2804 C 0.71125 0.13873 0.82557 0.0
C2805 C 0.71 0.13101 0.81242 0.0
U2806 U 0.68303 0.09194 0.78406 0.0
O2807 O 0.67192 0.09819 0.76411 0.0
O2808 O 0.69114 0.08424 0.76245 0.0
C2809 C 0.68048 0.09066 0.75561 0.0
C2810 C 0.69803 0.11259 0.79693 0.0
C2811 C 0.68179 0.09588 0.74052 0.0
C2812 C 0.67946 0.11631 0.72362 0.0
C2813 C 0.68386 0.11074 0.73722 0.0
C2814 C 0.67163 0.09204 0.71649 0.0
C2815 C 0.67233 0.1072 0.71342 0.0
C2816 C 0.67656 0.08647 0.72974 0.0
C2817 C 0.65986 0.06627 0.81053 0.0
C2818 C 0.63991 0.05138 0.8187 0.0
C2819 C 0.65388 0.06523 0.83629 0.0
C2820 C 0.66267 0.07039 0.825 0.0
C2821 C 0.64214 0.05608 0.83313 0.0
C2822 C 0.64871 0.05647 0.80748 0.0
C2823 C 0.66691 0.07319 0.79803 0.0
O2824 O 0.70321 0.09951 0.79401 0.0
O2825 O 0.68488 0.11443 0.79228 0.0
O2826 O 0.66261 0.08637 0.79432 0.0
O2827 O 0.68048 0.07063 0.79538 0.0
H2828 H 0.68701 0.10423 0.82348 0.0
H2829 H 0.68943 0.11749 0.84674 0.0
H2830 H 0.71769 0.14859 0.82577 0.0
H2831 H 0.71552 0.13504 0.80278 0.0
H2832 H 0.68084 0.12791 0.72156 0.0
H2833 H 0.68785 0.1182 0.74551 0.0
H2834 H 0.66613 0.08443 0.70941 0.0
H2835 H 0.67469 0.07499 0.73219 0.0
H2836 H 0.63083 0.04455 0.81594 0.0
H2837 H 0.65583 0.06894 0.84739 0.0
H2838 H 0.6712 0.07802 0.82748 0.0
H2839 H 0.64633 0.05335 0.79628 0.0
C2840 C 0.82248 0.87054 0.33569 0.0
C2841 C 0.82966 0.87127 0.34914 0.0
C2842 C 0.80678 0.87094 0.36217 0.0
C2843 C 0.82186 0.87143 0.36229 0.0
C2844 C 0.79977 0.86953 0.34865 0.0
C2845 C 0.80755 0.86935 0.33558 0.0
U2846 U 0.85108 0.8792 0.30423 0.0
O2847 O 0.84267 0.88777 0.28351 0.0
O2848 O 0.85331 0.86636 0.28382 0.0
C2849 C 0.84722 0.87659 0.2758 0.0
C2850 C 0.82979 0.87166 0.32143 0.0
C2851 C 0.85392 0.88047 0.26175 0.0
C2852 C 0.85081 0.88515 0.23575 0.0
C2853 C 0.84533 0.88055 0.24921 0.0
C2854 C 0.87375 0.8896 0.24712 0.0
C2855 C 0.86511 0.8897 0.23446 0.0
C2856 C 0.86818 0.88506 0.26069 0.0
C2857 C 0.88232 0.89691 0.32664 0.0
C2858 C 0.90393 0.90788 0.33654 0.0
C2859 C 0.88173 0.9095 0.35004 0.0
C2860 C 0.87485 0.90132 0.33917 0.0
C2861 C 0.89627 0.91335 0.34863 0.0
C2862 C 0.89698 0.89983 0.32561 0.0
C2863 C 0.87484 0.89132 0.31363 0.0
O2864 O 0.83124 0.88482 0.31578 0.0
O2865 O 0.84045 0.86277 0.3184 0.0
O2866 O 0.86356 0.89881 0.3095 0.0
O2867 O 0.8732 0.87705 0.31241 0.0
H2868 H 0.84119 0.87212 0.34947 0.0
H2869 H 0.8276 0.87235 0.37256 0.0
H2870 H 0.78823 0.86932 0.34809 0.0
H2871 H 0.80182 0.86876 0.32528 0.0
H2872 H 0.84371 0.88535 0.22638 0.0
H2873 H 0.83423 0.87727 0.24987 0.0
H2874 H 0.88484 0.89289 0.24654 0.0
H2875 H 0.87494 0.88524 0.27033 0.0
H2876 H 0.91516 0.91028 0.33519 0.0
H2877 H 0.87535 0.9136 0.35903 0.0
H2878 H 0.86351 0.89919 0.34014 0.0
H2879 H 0.90294 0.8965 0.31599 0.0
C2880 C 0.41855 0.36341 0.06052 0.0
C2881 C 0.40827 0.35312 0.05631 0.0
C2882 C 0.39298 0.37294 0.04746 0.0
C2883 C 0.39558 0.35786 0.04977 0.0
C2884 C 0.40359 0.38311 0.05117 0.0
C2885 C 0.41626 0.37836 0.05767 0.0
U2886 U 0.44754 0.34227 0.08469 0.0
O2887 O 0.46097 0.35575 0.09916 0.0
O2888 O 0.47069 0.34424 0.08038 0.0
C2889 C 0.47249 0.35348 0.09131 0.0
C2890 C 0.43172 0.35931 0.06816 0.0
C2891 C 0.48648 0.35482 0.0985 0.0
C2892 C 0.50524 0.37126 0.10676 0.0
C2893 C 0.49213 0.36896 0.09992 0.0
C2894 C 0.50754 0.34511 0.11066 0.0
C2895 C 0.51326 0.3594 0.11222 0.0
C2896 C 0.49421 0.34285 0.10392 0.0
C2897 C 0.42601 0.30719 0.09572 0.0
C2898 C 0.41364 0.28667 0.10726 0.0
C2899 C 0.4022 0.30026 0.08773 0.0
C2900 C 0.41426 0.30929 0.08645 0.0
C2901 C 0.4016 0.28902 0.09836 0.0
C2902 C 0.42569 0.29568 0.10595 0.0
C2903 C 0.43854 0.31703 0.0954 0.0
O2904 O 0.43164 0.35985 0.08254 0.0
O2905 O 0.43969 0.34872 0.06278 0.0
O2906 O 0.43713 0.32961 0.10228 0.0
O2907 O 0.4454 0.31825 0.08287 0.0
H2908 H 0.40992 0.34154 0.05834 0.0
H2909 H 0.38761 0.34977 0.04686 0.0
H2910 H 0.40185 0.39475 0.04966 0.0
H2911 H 0.42417 0.38644 0.06082 0.0
H2912 H 0.50885 0.38246 0.108 0.0
H2913 H 0.48628 0.37836 0.09581 0.0
H2914 H 0.51336 0.33562 0.1145 0.0
H2915 H 0.49001 0.33183 0.10292 0.0
H2916 H 0.41355 0.27827 0.11566 0.0
H2917 H 0.39321 0.30226 0.08054 0.0
H2918 H 0.4143 0.31806 0.07843 0.0
H2919 H 0.43468 0.29386 0.1132 0.0
C2920 C 0.36332 0.64143 0.84645 0.0
C2921 C 0.37586 0.63312 0.84608 0.0
C2922 C 0.36761 0.62096 0.82382 0.0
C2923 C 0.37802 0.62302 0.83483 0.0
C2924 C 0.35447 0.62825 0.82519 0.0
C2925 C 0.35238 0.63845 0.83639 0.0
U2926 U 0.37609 0.67257 0.87295 0.0
O2927 O 0.37779 0.69466 0.8638 0.0
O2928 O 0.36343 0.69068 0.88249 0.0
C2929 C 0.36858 0.70025 0.87304 0.0
C2930 C 0.363 0.65552 0.85407 0.0
C2931 C 0.37152 0.7153 0.87785 0.0
C2932 C 0.36739 0.74112 0.87338 0.0
C2933 C 0.36513 0.72651 0.86974 0.0
C2934 C 0.38296 0.7337 0.89325 0.0
C2935 C 0.37603 0.74494 0.88539 0.0
C2936 C 0.38072 0.71889 0.88948 0.0
C2937 C 0.40798 0.65179 0.89182 0.0
C2938 C 0.43207 0.64531 0.89876 0.0
C2939 C 0.41511 0.62614 0.89292 0.0
C2940 C 0.40463 0.63686 0.89022 0.0
C2941 C 0.42909 0.63025 0.89704 0.0
C2942 C 0.42164 0.65583 0.89638 0.0
C2943 C 0.39803 0.66378 0.88849 0.0
O2944 O 0.3594 0.65597 0.86801 0.0
O2945 O 0.37367 0.66422 0.85076 0.0
O2946 O 0.38479 0.66274 0.89318 0.0
O2947 O 0.39921 0.66971 0.87541 0.0
H2948 H 0.38448 0.6354 0.85367 0.0
H2949 H 0.38834 0.61775 0.83418 0.0
H2950 H 0.34607 0.62666 0.81719 0.0
H2951 H 0.34266 0.64488 0.83647 0.0
H2952 H 0.36212 0.74949 0.86691 0.0
H2953 H 0.35824 0.72396 0.86054 0.0
H2954 H 0.38968 0.73633 0.90254 0.0
H2955 H 0.38598 0.71032 0.89568 0.0
H2956 H 0.44267 0.64924 0.90134 0.0
H2957 H 0.41227 0.61472 0.8916 0.0
H2958 H 0.39408 0.63353 0.88672 0.0
H2959 H 0.42442 0.66731 0.89765 0.0
C2960 C 0.0718 0.64816 0.55371 0.0
C2961 C 0.08158 0.65939 0.55682 0.0
C2962 C 0.09834 0.64904 0.53921 0.0
C2963 C 0.09479 0.65982 0.54962 0.0
C2964 C 0.08856 0.63767 0.53642 0.0
C2965 C 0.07542 0.63728 0.54357 0.0
U2966 U 0.04368 0.65861 0.58294 0.0
O2967 O 0.02044 0.66199 0.5802 0.0
O2968 O 0.02869 0.64392 0.59402 0.0
C2969 C 0.01752 0.65116 0.58925 0.0
C2970 C 0.05767 0.64752 0.56063 0.0
C2971 C 0.00393 0.64337 0.5883 0.0
C2972 C 0.9896 0.62188 0.58258 0.0
C2973 C 0.00229 0.62995 0.58093 0.0
C2974 C 0.9803 0.64085 0.59858 0.0
C2975 C 0.97862 0.62728 0.59157 0.0
C2976 C 0.99282 0.64881 0.59694 0.0
C2977 C 0.06758 0.68518 0.60699 0.0
C2978 C 0.07887 0.69676 0.6279 0.0
C2979 C 0.0904 0.69726 0.60408 0.0
C2980 C 0.079 0.68939 0.59804 0.0
C2981 C 0.09049 0.7009 0.61912 0.0
C2982 C 0.06753 0.68899 0.62186 0.0
C2983 C 0.05538 0.67686 0.60152 0.0
O2984 O 0.05714 0.64122 0.57358 0.0
O2985 O 0.04982 0.65944 0.55969 0.0
O2986 O 0.05585 0.66256 0.60311 0.0
O2987 O 0.04915 0.68122 0.58935 0.0
H2988 H 0.07894 0.66788 0.56467 0.0
H2989 H 0.10207 0.66875 0.55195 0.0
H2990 H 0.09106 0.62903 0.52868 0.0
H2991 H 0.06802 0.62848 0.54111 0.0
H2992 H 0.98843 0.61144 0.57706 0.0
H2993 H 0.01089 0.62557 0.57433 0.0
H2994 H 0.97202 0.64512 0.60569 0.0
H2995 H 0.99404 0.659 0.60293 0.0
H2996 H 0.07869 0.6992 0.63952 0.0
H2997 H 0.09914 0.70047 0.59701 0.0
H2998 H 0.07913 0.68658 0.58651 0.0
H2999 H 0.05873 0.68579 0.62889 0.0
C3000 C 0.13062 0.32758 0.31117 0.0
C3001 C 0.12175 0.33978 0.31348 0.0
C3002 C 0.14223 0.35615 0.31163 0.0
C3003 C 0.12751 0.35395 0.31373 0.0
C3004 C 0.15094 0.34395 0.30866 0.0
C3005 C 0.14519 0.32978 0.30851 0.0
U3006 U 0.09986 0.3031 0.32136 0.0
O3007 O 0.09347 0.2805 0.31515 0.0
O3008 O 0.09835 0.28601 0.33813 0.0
C3009 C 0.09446 0.27584 0.32878 0.0
C3010 C 0.12508 0.3126 0.31328 0.0
C3011 C 0.09958 0.26085 0.33186 0.0
C3012 C 0.11816 0.24352 0.33906 0.0
C3013 C 0.11405 0.25694 0.33258 0.0
C3014 C 0.09337 0.23792 0.34363 0.0
C3015 C 0.1079 0.23399 0.34544 0.0
C3016 C 0.08937 0.25093 0.33682 0.0
C3017 C 0.06673 0.3291 0.33009 0.0
C3018 C 0.05034 0.3315 0.35063 0.0
C3019 C 0.05316 0.35148 0.33338 0.0
C3020 C 0.06256 0.34299 0.32513 0.0
C3021 C 0.04772 0.34617 0.34672 0.0
C3022 C 0.05992 0.32301 0.34241 0.0
C3023 C 0.08057 0.32363 0.32479 0.0
O3024 O 0.12174 0.30956 0.32692 0.0
O3025 O 0.1154 0.3081 0.30384 0.0
O3026 O 0.08993 0.32001 0.33484 0.0
O3027 O 0.08138 0.31575 0.31274 0.0
H3028 H 0.11046 0.33831 0.31558 0.0
H3029 H 0.12049 0.36316 0.31576 0.0
H3030 H 0.16231 0.34532 0.307 0.0
H3031 H 0.1522 0.3205 0.30682 0.0
H3032 H 0.12942 0.24107 0.33947 0.0
H3033 H 0.12217 0.26448 0.32874 0.0
H3034 H 0.08468 0.23168 0.34814 0.0
H3035 H 0.07813 0.25375 0.33645 0.0
H3036 H 0.0462 0.32713 0.36083 0.0
H3037 H 0.05118 0.3627 0.33003 0.0
H3038 H 0.06774 0.34793 0.31571 0.0
H3039 H 0.06301 0.31229 0.34643 0.0
C3040 C 0.42049 0.6387 0.44231 0.0
C3041 C 0.41026 0.6492 0.44611 0.0
C3042 C 0.39451 0.62982 0.45517 0.0
C3043 C 0.39739 0.64479 0.45255 0.0
C3044 C 0.40502 0.61942 0.45179 0.0
C3045 C 0.41789 0.62384 0.44539 0.0
U3046 U 0.44728 0.66234 0.41884 0.0
O3047 O 0.47076 0.66352 0.42188 0.0
O3048 O 0.46147 0.65231 0.40244 0.0
C3049 C 0.47297 0.65629 0.40962 0.0
C3050 C 0.43388 0.64266 0.43487 0.0
C3051 C 0.48728 0.65219 0.4044 0.0
C3052 C 0.50374 0.63383 0.39501 0.0
C3053 C 0.49051 0.63753 0.40115 0.0
C3054 C 0.51064 0.65942 0.39542 0.0
C3055 C 0.51387 0.64478 0.3918 0.0
C3056 C 0.4975 0.66307 0.40172 0.0
C3057 C 0.42346 0.69728 0.40993 0.0
C3058 C 0.41177 0.71799 0.39805 0.0
C3059 C 0.39986 0.70498 0.41771 0.0
C3060 C 0.41165 0.69563 0.4192 0.0
C3061 C 0.39963 0.71605 0.40687 0.0
C3062 C 0.42354 0.70869 0.39959 0.0
C3063 C 0.43579 0.68727 0.41032 0.0
O3064 O 0.43354 0.64284 0.42048 0.0
O3065 O 0.44151 0.65338 0.44051 0.0
O3066 O 0.43476 0.67502 0.40281 0.0
O3067 O 0.44272 0.68575 0.42276 0.0
H3068 H 0.4121 0.66071 0.4439 0.0
H3069 H 0.38954 0.65309 0.4552 0.0
H3070 H 0.40308 0.60784 0.45353 0.0
H3071 H 0.42573 0.61559 0.44254 0.0
H3072 H 0.50581 0.62247 0.39229 0.0
H3073 H 0.48273 0.62897 0.40315 0.0
H3074 H 0.51824 0.66811 0.39328 0.0
H3075 H 0.49516 0.67446 0.40409 0.0
H3076 H 0.41195 0.72624 0.38951 0.0
H3077 H 0.39075 0.70331 0.42483 0.0
H3078 H 0.41143 0.68697 0.42734 0.0
H3079 H 0.43262 0.71017 0.39237 0.0
C3080 C 0.13109 0.67585 0.1919 0.0
C3081 C 0.12182 0.66392 0.18987 0.0
C3082 C 0.1417 0.64688 0.19201 0.0
C3083 C 0.12707 0.64958 0.18989 0.0
C3084 C 0.15088 0.65882 0.1946 0.0
C3085 C 0.14561 0.67321 0.19445 0.0
U3086 U 0.10048 0.70028 0.18208 0.0
O3087 O 0.09398 0.72283 0.18829 0.0
O3088 O 0.09853 0.71727 0.16525 0.0
C3089 C 0.09469 0.72745 0.17463 0.0
C3090 C 0.12583 0.69094 0.18979 0.0
C3091 C 0.0997 0.74245 0.17143 0.0
C3092 C 0.1182 0.75999 0.16449 0.0
C3093 C 0.11414 0.74652 0.1709 0.0
C3094 C 0.09341 0.76529 0.15956 0.0
C3095 C 0.10792 0.7694 0.15799 0.0
C3096 C 0.08945 0.75223 0.16631 0.0
C3097 C 0.06717 0.67463 0.1738 0.0
C3098 C 0.05086 0.67267 0.15315 0.0
C3099 C 0.05284 0.65273 0.17057 0.0
C3100 C 0.06248 0.66094 0.17884 0.0
C3101 C 0.04772 0.65813 0.15714 0.0
C3102 C 0.06065 0.68088 0.1614 0.0
C3103 C 0.08119 0.67964 0.17907 0.0
O3104 O 0.12232 0.69395 0.17619 0.0
O3105 O 0.11633 0.69558 0.19936 0.0
O3106 O 0.09052 0.68314 0.16892 0.0
O3107 O 0.08218 0.68758 0.19106 0.0
H3108 H 0.11056 0.66573 0.18785 0.0
H3109 H 0.1197 0.64059 0.18816 0.0
H3110 H 0.16219 0.65707 0.19626 0.0
H3111 H 0.15294 0.68228 0.19592 0.0
H3112 H 0.12943 0.76259 0.16423 0.0
H3113 H 0.12228 0.73908 0.17486 0.0
H3114 H 0.08474 0.77143 0.15488 0.0
H3115 H 0.07824 0.74928 0.16654 0.0
H3116 H 0.04699 0.67709 0.14286 0.0
H3117 H 0.05048 0.64159 0.17395 0.0
H3118 H 0.06742 0.65589 0.18832 0.0
H3119 H 0.06414 0.69144 0.15731 0.0
C3120 C 0.07165 0.35598 0.95042 0.0
C3121 C 0.08131 0.34469 0.94711 0.0
C3122 C 0.09839 0.35489 0.96449 0.0
C3123 C 0.09462 0.34416 0.95411 0.0
C3124 C 0.08874 0.36633 0.96745 0.0
C3125 C 0.0755 0.36683 0.9605 0.0
U3126 U 0.04291 0.34587 0.92171 0.0
O3127 O 0.01969 0.34264 0.92487 0.0
O3128 O 0.02791 0.36077 0.91102 0.0
C3129 C 0.01677 0.35353 0.9159 0.0
C3130 C 0.05741 0.35672 0.94378 0.0
C3131 C 0.00313 0.36118 0.91662 0.0
C3132 C 0.9887 0.38266 0.92195 0.0
C3133 C 0.00137 0.37465 0.92385 0.0
C3134 C 0.97968 0.36352 0.90596 0.0
C3135 C 0.97788 0.37714 0.91283 0.0
C3136 C 0.99218 0.35561 0.90786 0.0
C3137 C 0.06643 0.3196 0.89734 0.0
C3138 C 0.07816 0.30866 0.87639 0.0
C3139 C 0.08897 0.30713 0.90053 0.0
C3140 C 0.07753 0.31494 0.90648 0.0
C3141 C 0.08941 0.304 0.8854 0.0
C3142 C 0.06677 0.31637 0.88234 0.0
C3143 C 0.05415 0.32773 0.90276 0.0
O3144 O 0.05667 0.36311 0.93088 0.0
O3145 O 0.04951 0.34483 0.94481 0.0
O3146 O 0.05461 0.34204 0.90125 0.0
O3147 O 0.04805 0.3233 0.91498 0.0
H3148 H 0.07848 0.33624 0.9393 0.0
H3149 H 0.1018 0.33519 0.95166 0.0
H3150 H 0.09141 0.37493 0.97517 0.0
H3151 H 0.06821 0.37567 0.9631 0.0
H3152 H 0.98743 0.39314 0.92736 0.0
H3153 H 0.00987 0.37912 0.93053 0.0
H3154 H 0.97152 0.35916 0.89874 0.0
H3155 H 0.99352 0.34538 0.90197 0.0
H3156 H 0.0783 0.30665 0.86469 0.0
H3157 H 0.09744 0.30352 0.90775 0.0
H3158 H 0.07735 0.31733 0.91811 0.0
H3159 H 0.05821 0.31992 0.87518 0.0
C3160 C 0.36334 0.36232 0.65731 0.0
C3161 C 0.37587 0.37064 0.65767 0.0
C3162 C 0.36761 0.3828 0.67992 0.0
C3163 C 0.37803 0.38075 0.66893 0.0
C3164 C 0.35447 0.3755 0.67855 0.0
C3165 C 0.35239 0.36528 0.66736 0.0
U3166 U 0.3761 0.33119 0.6308 0.0
O3167 O 0.37781 0.30909 0.63994 0.0
O3168 O 0.36344 0.31305 0.62127 0.0
C3169 C 0.36861 0.30349 0.6307 0.0
C3170 C 0.36302 0.34822 0.64969 0.0
C3171 C 0.37157 0.28844 0.62588 0.0
C3172 C 0.36746 0.26261 0.63035 0.0
C3173 C 0.36517 0.27721 0.63399 0.0
C3174 C 0.38305 0.27008 0.61049 0.0
C3175 C 0.37611 0.25881 0.61835 0.0
C3176 C 0.38079 0.28488 0.61426 0.0
C3177 C 0.40798 0.35199 0.61189 0.0
C3178 C 0.43206 0.35848 0.60494 0.0
C3179 C 0.41512 0.37764 0.6108 0.0
C3180 C 0.40464 0.36692 0.6135 0.0
C3181 C 0.4291 0.37354 0.60668 0.0
C3182 C 0.42162 0.34796 0.60732 0.0
C3183 C 0.39803 0.34 0.61524 0.0
O3184 O 0.35941 0.34776 0.63575 0.0
O3185 O 0.3737 0.33954 0.65299 0.0
O3186 O 0.38478 0.34103 0.61056 0.0
O3187 O 0.39922 0.33407 0.62831 0.0
H3188 H 0.3845 0.36837 0.65009 0.0
H3189 H 0.38835 0.38603 0.66957 0.0
H3190 H 0.34607 0.37708 0.68655 0.0
H3191 H 0.34267 0.35884 0.66728 0.0
H3192 H 0.36218 0.25423 0.6368 0.0
H3193 H 0.35827 0.27975 0.64318 0.0
H3194 H 0.38978 0.26746 0.60121 0.0
H3195 H 0.38604 0.29346 0.60807 0.0
H3196 H 0.44265 0.35456 0.60235 0.0
H3197 H 0.41229 0.38906 0.61213 0.0
H3198 H 0.39409 0.37024 0.61702 0.0
H3199 H 0.4244 0.33649 0.60605 0.0
C3200 C 0.0701 0.41948 0.37558 0.0
C3201 C 0.07742 0.40628 0.37333 0.0
C3202 C 0.05483 0.39273 0.37441 0.0
C3203 C 0.06984 0.39299 0.37284 0.0
C3204 C 0.04774 0.40602 0.37717 0.0
C3205 C 0.0553 0.41919 0.37778 0.0
U3206 U 0.09818 0.45142 0.36752 0.0
O3207 O 0.08974 0.47192 0.35846 0.0
O3208 O 0.0998 0.47203 0.38017 0.0
C3209 C 0.09374 0.47981 0.36973 0.0
C3210 C 0.07699 0.43395 0.37469 0.0
C3211 C 0.0999 0.49421 0.36609 0.0
C3212 C 0.09567 0.52008 0.36155 0.0
C3213 C 0.09069 0.50627 0.36571 0.0
C3214 C 0.11934 0.51001 0.35807 0.0
C3215 C 0.11008 0.52221 0.35777 0.0
C3216 C 0.11427 0.49609 0.36216 0.0
C3217 C 0.12993 0.42885 0.35119 0.0
C3218 C 0.15113 0.41878 0.33969 0.0
C3219 C 0.12975 0.40403 0.3416 0.0
C3220 C 0.12293 0.41545 0.34911 0.0
C3221 C 0.14382 0.40568 0.33617 0.0
C3222 C 0.14417 0.43028 0.34683 0.0
C3223 C 0.1223 0.44202 0.35619 0.0
O3224 O 0.08736 0.43726 0.38384 0.0
O3225 O 0.07865 0.43956 0.36154 0.0
O3226 O 0.11117 0.44587 0.34832 0.0
O3227 O 0.12032 0.44359 0.37038 0.0
H3228 H 0.08886 0.40629 0.37162 0.0
H3229 H 0.07572 0.38295 0.37096 0.0
H3230 H 0.03623 0.40639 0.3782 0.0
H3231 H 0.04945 0.4293 0.37947 0.0
H3232 H 0.08816 0.52909 0.36121 0.0
H3233 H 0.07951 0.50499 0.36849 0.0
H3234 H 0.13052 0.51128 0.35538 0.0
H3235 H 0.12152 0.48684 0.36225 0.0
H3236 H 0.16213 0.42052 0.33659 0.0
H3237 H 0.1235 0.39434 0.33933 0.0
H3238 H 0.11194 0.41412 0.35254 0.0
H3239 H 0.14979 0.44054 0.34846 0.0
C3240 C 0.32179 0.3038 0.10568 0.0
C3241 C 0.33156 0.30705 0.09448 0.0
C3242 C 0.3484 0.28948 0.10474 0.0
C3243 C 0.3448 0.29994 0.09402 0.0
C3244 C 0.33863 0.28653 0.11609 0.0
C3245 C 0.32545 0.2936 0.11651 0.0
U3246 U 0.29363 0.33291 0.09515 0.0
O3247 O 0.2704 0.33014 0.09169 0.0
O3248 O 0.27859 0.344 0.10974 0.0
C3249 C 0.26744 0.33921 0.10248 0.0
C3250 C 0.30762 0.31064 0.10633 0.0
C3251 C 0.25385 0.33821 0.11026 0.0
C3252 C 0.23961 0.33265 0.13186 0.0
C3253 C 0.25227 0.33096 0.12376 0.0
C3254 C 0.23018 0.3484 0.11273 0.0
C3255 C 0.22858 0.34155 0.1264 0.0
C3256 C 0.24268 0.34673 0.10475 0.0
C3257 C 0.31761 0.35697 0.06862 0.0
C3258 C 0.3289 0.37791 0.05706 0.0
C3259 C 0.3404 0.35409 0.05651 0.0
C3260 C 0.32901 0.34803 0.06437 0.0
C3261 C 0.34049 0.36914 0.05288 0.0
C3262 C 0.31757 0.37185 0.06484 0.0
C3263 C 0.30539 0.35148 0.0769 0.0
O3264 O 0.30705 0.32359 0.11261 0.0
O3265 O 0.29979 0.30967 0.0944 0.0
O3266 O 0.30581 0.35309 0.0912 0.0
O3267 O 0.29918 0.3393 0.07255 0.0
H3268 H 0.32888 0.31494 0.08603 0.0
H3269 H 0.35208 0.30237 0.08511 0.0
H3270 H 0.34117 0.27874 0.12467 0.0
H3271 H 0.31806 0.29103 0.12528 0.0
H3272 H 0.23852 0.32726 0.14238 0.0
H3273 H 0.26092 0.32445 0.1282 0.0
H3274 H 0.22188 0.35547 0.10842 0.0
H3275 H 0.24385 0.35264 0.0945 0.0
H3276 H 0.32873 0.38954 0.05463 0.0
H3277 H 0.34913 0.34702 0.05327 0.0
H3278 H 0.32913 0.33648 0.06716 0.0
H3279 H 0.30878 0.37887 0.06805 0.0
C3280 C 0.45204 0.55842 0.86354 0.0
C3281 C 0.44583 0.5712 0.85788 0.0
C3282 C 0.45463 0.58512 0.87888 0.0
C3283 C 0.44718 0.58448 0.86546 0.0
C3284 C 0.46158 0.57244 0.88394 0.0
C3285 C 0.46028 0.55922 0.87633 0.0
U3286 U 0.4341 0.53093 0.83657 0.0
O3287 O 0.44165 0.50879 0.82992 0.0
O3288 O 0.42199 0.51161 0.84298 0.0
C3289 C 0.43048 0.50254 0.83606 0.0
C3290 C 0.44869 0.54388 0.85752 0.0
C3291 C 0.43116 0.48765 0.84194 0.0
C3292 C 0.43048 0.47124 0.86292 0.0
C3293 C 0.43439 0.48473 0.85666 0.0
C3294 C 0.42049 0.46361 0.83966 0.0
C3295 C 0.4228 0.46075 0.85467 0.0
C3296 C 0.42483 0.47676 0.83338 0.0
C3297 C 0.41325 0.55812 0.80993 0.0
C3298 C 0.39423 0.56798 0.79473 0.0
C3299 C 0.40789 0.58401 0.81065 0.0
C3300 C 0.41618 0.57216 0.81529 0.0
C3301 C 0.39646 0.58189 0.8008 0.0
C3302 C 0.40259 0.55617 0.7993 0.0
C3303 C 0.41925 0.54498 0.81671 0.0
O3304 O 0.43531 0.5398 0.85886 0.0
O3305 O 0.4543 0.54041 0.84475 0.0
O3306 O 0.41429 0.54155 0.82972 0.0
O3307 O 0.43282 0.54179 0.81486 0.0
H3308 H 0.43947 0.57078 0.84798 0.0
H3309 H 0.44204 0.59413 0.86102 0.0
H3310 H 0.46739 0.57251 0.89421 0.0
H3311 H 0.46514 0.54943 0.88086 0.0
H3312 H 0.43286 0.4694 0.87438 0.0
H3313 H 0.43913 0.49314 0.86349 0.0
H3314 H 0.41433 0.4563 0.83281 0.0
H3315 H 0.42197 0.47897 0.82207 0.0
H3316 H 0.38543 0.56603 0.78729 0.0
H3317 H 0.40986 0.59471 0.81539 0.0
H3318 H 0.4243 0.5738 0.82358 0.0
H3319 H 0.40012 0.54531 0.7952 0.0
C3320 C 0.16853 0.69314 0.61328 0.0
C3321 C 0.15825 0.69737 0.60301 0.0
C3322 C 0.143 0.70625 0.62285 0.0
C3323 C 0.14557 0.70393 0.60777 0.0
C3324 C 0.15361 0.70252 0.63299 0.0
C3325 C 0.16626 0.69599 0.62823 0.0
U3326 U 0.19745 0.66898 0.59203 0.0
O3327 O 0.21089 0.65443 0.60545 0.0
O3328 O 0.22061 0.67326 0.59398 0.0
C3329 C 0.22241 0.6623 0.60319 0.0
C3330 C 0.18169 0.68548 0.60914 0.0
C3331 C 0.23642 0.65515 0.60459 0.0
C3332 C 0.25519 0.64698 0.62106 0.0
C3333 C 0.24207 0.6538 0.61873 0.0
C3334 C 0.25752 0.64301 0.59494 0.0
C3335 C 0.26324 0.64149 0.60924 0.0
C3336 C 0.24419 0.64972 0.59264 0.0
C3337 C 0.1759 0.65803 0.55688 0.0
C3338 C 0.16358 0.64641 0.53637 0.0
C3339 C 0.15213 0.66604 0.54978 0.0
C3340 C 0.16416 0.66734 0.55886 0.0
C3341 C 0.15155 0.65534 0.53861 0.0
C3342 C 0.1756 0.64775 0.54542 0.0
C3343 C 0.18841 0.65837 0.56678 0.0
O3344 O 0.18157 0.6711 0.60965 0.0
O3345 O 0.18966 0.69088 0.59856 0.0
O3346 O 0.18699 0.65145 0.57935 0.0
O3347 O 0.19527 0.6709 0.56801 0.0
H3348 H 0.15987 0.69535 0.59143 0.0
H3349 H 0.1376 0.70686 0.59969 0.0
H3350 H 0.15189 0.70403 0.64464 0.0
H3351 H 0.17418 0.69283 0.63629 0.0
H3352 H 0.2588 0.64579 0.63226 0.0
H3353 H 0.23621 0.65792 0.62811 0.0
H3354 H 0.26336 0.63917 0.58546 0.0
H3355 H 0.23999 0.65068 0.58162 0.0
H3356 H 0.1635 0.63797 0.52803 0.0
H3357 H 0.14316 0.67326 0.5517 0.0
H3358 H 0.16418 0.6754 0.56758 0.0
H3359 H 0.18457 0.64047 0.54369 0.0
C3360 C 0.06974 0.58486 0.12798 0.0
C3361 C 0.07718 0.59798 0.13031 0.0
C3362 C 0.0547 0.61168 0.12933 0.0
C3363 C 0.06971 0.61133 0.1309 0.0
C3364 C 0.04749 0.59846 0.12656 0.0
C3365 C 0.05494 0.58525 0.12585 0.0
U3366 U 0.09737 0.5523 0.13513 0.0
O3367 O 0.09861 0.53202 0.12196 0.0
O3368 O 0.08842 0.5318 0.14363 0.0
C3369 C 0.0924 0.52411 0.13222 0.0
C3370 C 0.0765 0.57034 0.1286 0.0
C3371 C 0.09852 0.5097 0.13571 0.0
C3372 C 0.09424 0.48394 0.1407 0.0
C3373 C 0.0892 0.49775 0.1367 0.0
C3374 C 0.11815 0.49382 0.14279 0.0
C3375 C 0.1088 0.48171 0.14368 0.0
C3376 C 0.11303 0.50774 0.1389 0.0
C3377 C 0.12855 0.57434 0.15238 0.0
C3378 C 0.14933 0.5848 0.16432 0.0
C3379 C 0.12684 0.5979 0.16455 0.0
C3380 C 0.12062 0.58679 0.15616 0.0
C3381 C 0.14113 0.59677 0.16923 0.0
C3382 C 0.14305 0.57365 0.15604 0.0
C3383 C 0.12153 0.56109 0.14679 0.0
O3384 O 0.08673 0.56706 0.11927 0.0
O3385 O 0.07816 0.56443 0.14162 0.0
O3386 O 0.11958 0.56011 0.13254 0.0
O3387 O 0.11049 0.55665 0.15448 0.0
H3388 H 0.08862 0.59788 0.13197 0.0
H3389 H 0.07566 0.62132 0.13282 0.0
H3390 H 0.03599 0.59816 0.12555 0.0
H3391 H 0.04902 0.57519 0.12411 0.0
H3392 H 0.08665 0.47502 0.14155 0.0
H3393 H 0.07791 0.49914 0.1345 0.0
H3394 H 0.12946 0.4925 0.14486 0.0
H3395 H 0.12036 0.51692 0.13837 0.0
H3396 H 0.16045 0.58375 0.16735 0.0
H3397 H 0.12014 0.60687 0.16813 0.0
H3398 H 0.10939 0.58748 0.1534 0.0
H3399 H 0.14935 0.56411 0.15317 0.0
C3400 C 0.16801 0.31042 0.89126 0.0
C3401 C 0.15761 0.30701 0.90173 0.0
C3402 C 0.14199 0.29787 0.88231 0.0
C3403 C 0.14468 0.30072 0.89728 0.0
C3404 C 0.15272 0.30081 0.87201 0.0
C3405 C 0.1656 0.30703 0.87647 0.0
U3406 U 0.19738 0.33463 0.91163 0.0
O3407 O 0.21072 0.34897 0.89787 0.0
O3408 O 0.22051 0.3303 0.90951 0.0
C3409 C 0.22225 0.34115 0.90016 0.0
C3410 C 0.18136 0.31794 0.89497 0.0
C3411 C 0.23621 0.34844 0.89881 0.0
C3412 C 0.25499 0.35675 0.88241 0.0
C3413 C 0.24188 0.34989 0.88469 0.0
C3414 C 0.25726 0.36062 0.90855 0.0
C3415 C 0.263 0.36219 0.89427 0.0
C3416 C 0.24393 0.35386 0.91079 0.0
C3417 C 0.17599 0.34585 0.94665 0.0
C3418 C 0.16362 0.35736 0.96716 0.0
C3419 C 0.15218 0.33781 0.95359 0.0
C3420 C 0.16424 0.33656 0.94456 0.0
C3421 C 0.15159 0.34843 0.96482 0.0
C3422 C 0.17567 0.35607 0.95815 0.0
C3423 C 0.18852 0.34554 0.9368 0.0
O3424 O 0.18137 0.33231 0.8942 0.0
O3425 O 0.18943 0.31266 0.90553 0.0
O3426 O 0.18705 0.35232 0.92417 0.0
O3427 O 0.19542 0.33304 0.93568 0.0
H3428 H 0.15934 0.30947 0.91321 0.0
H3429 H 0.13666 0.29838 0.9055 0.0
H3430 H 0.15094 0.29891 0.86043 0.0
H3431 H 0.17359 0.30959 0.86825 0.0
H3432 H 0.25862 0.358 0.87122 0.0
H3433 H 0.23604 0.34578 0.87528 0.0
H3434 H 0.26307 0.36444 0.91805 0.0
H3435 H 0.23972 0.35284 0.92181 0.0
H3436 H 0.16353 0.36575 0.97554 0.0
H3437 H 0.1432 0.3306 0.95161 0.0
H3438 H 0.16429 0.32854 0.9358 0.0
H3439 H 0.18465 0.36333 0.95995 0.0
C3440 C 0.45204 0.44538 0.64019 0.0
C3441 C 0.44582 0.43259 0.64584 0.0
C3442 C 0.45465 0.41867 0.62486 0.0
C3443 C 0.44718 0.41931 0.63827 0.0
C3444 C 0.46161 0.43137 0.6198 0.0
C3445 C 0.4603 0.44459 0.6274 0.0
U3446 U 0.4341 0.47287 0.66714 0.0
O3447 O 0.44165 0.49503 0.67377 0.0
O3448 O 0.42199 0.49217 0.66072 0.0
C3449 C 0.43047 0.50126 0.66763 0.0
C3450 C 0.44869 0.45991 0.64621 0.0
C3451 C 0.43115 0.51616 0.66175 0.0
C3452 C 0.43044 0.53256 0.64077 0.0
C3453 C 0.43436 0.51908 0.64703 0.0
C3454 C 0.42046 0.54017 0.66404 0.0
C3455 C 0.42275 0.54304 0.64902 0.0
C3456 C 0.42482 0.52703 0.67032 0.0
C3457 C 0.41325 0.44569 0.6938 0.0
C3458 C 0.39422 0.43582 0.709 0.0
C3459 C 0.40788 0.4198 0.6931 0.0
C3460 C 0.41618 0.43166 0.68845 0.0
C3461 C 0.39645 0.42191 0.70293 0.0
C3462 C 0.40259 0.44763 0.70444 0.0
C3463 C 0.41924 0.45884 0.68702 0.0
O3464 O 0.43531 0.46398 0.64486 0.0
O3465 O 0.45429 0.46341 0.65897 0.0
O3466 O 0.41428 0.46224 0.67401 0.0
O3467 O 0.43282 0.46203 0.68886 0.0
H3468 H 0.43946 0.433 0.65575 0.0
H3469 H 0.44204 0.40965 0.64271 0.0
H3470 H 0.46742 0.4313 0.60953 0.0
H3471 H 0.46516 0.45438 0.62288 0.0
H3472 H 0.4328 0.5344 0.62931 0.0
H3473 H 0.4391 0.51068 0.6402 0.0
H3474 H 0.41431 0.54747 0.67089 0.0
H3475 H 0.42197 0.52483 0.68164 0.0
H3476 H 0.38541 0.43777 0.71644 0.0
H3477 H 0.40985 0.4091 0.68836 0.0
H3478 H 0.4243 0.43002 0.68016 0.0
H3479 H 0.40011 0.4585 0.70853 0.0
C3480 C 0.32055 0.70039 0.39795 0.0
C3481 C 0.33025 0.69749 0.4093 0.0
C3482 C 0.34685 0.71526 0.39897 0.0
C3483 C 0.34332 0.70489 0.40981 0.0
C3484 C 0.33717 0.71784 0.38746 0.0
C3485 C 0.32413 0.71049 0.38699 0.0
U3486 U 0.29351 0.67073 0.40924 0.0
O3487 O 0.27043 0.67292 0.41373 0.0
O3488 O 0.27811 0.65915 0.39543 0.0
C3489 C 0.26715 0.66383 0.40307 0.0
C3490 C 0.3065 0.69333 0.39746 0.0
C3491 C 0.25356 0.66545 0.39541 0.0
C3492 C 0.23942 0.67166 0.37394 0.0
C3493 C 0.25215 0.67291 0.382 0.0
C3494 C 0.22957 0.65606 0.39299 0.0
C3495 C 0.22817 0.66303 0.37936 0.0
C3496 C 0.24214 0.65727 0.40092 0.0
C3497 C 0.31879 0.64708 0.43508 0.0
C3498 C 0.33009 0.62609 0.44652 0.0
C3499 C 0.34196 0.64974 0.44651 0.0
C3500 C 0.33044 0.65589 0.43891 0.0
C3501 C 0.34191 0.63473 0.45031 0.0
C3502 C 0.31865 0.63223 0.43899 0.0
C3503 C 0.3064 0.65261 0.42709 0.0
O3504 O 0.30607 0.68034 0.39124 0.0
O3505 O 0.29889 0.69417 0.40956 0.0
O3506 O 0.30634 0.65092 0.41279 0.0
O3507 O 0.30017 0.66471 0.43162 0.0
H3508 H 0.32763 0.68968 0.41784 0.0
H3509 H 0.35051 0.70273 0.41885 0.0
H3510 H 0.33968 0.72554 0.37878 0.0
H3511 H 0.31677 0.71278 0.37812 0.0
H3512 H 0.23849 0.67708 0.36342 0.0
H3513 H 0.26098 0.67917 0.37757 0.0
H3514 H 0.2211 0.64916 0.39723 0.0
H3515 H 0.24318 0.65121 0.4111 0.0
H3516 H 0.32979 0.61449 0.44907 0.0
H3517 H 0.35087 0.6567 0.44945 0.0
H3518 H 0.33064 0.66741 0.43601 0.0
H3519 H 0.30968 0.6253 0.43609 0.0
C3520 C 0.3811 0.06188 0.42585 0.0
C3521 C 0.37182 0.0639 0.41392 0.0
C3522 C 0.39171 0.06177 0.39687 0.0
C3523 C 0.37708 0.06388 0.39958 0.0
C3524 C 0.40088 0.05919 0.40881 0.0
C3525 C 0.39562 0.05933 0.42319 0.0
U3526 U 0.35048 0.07169 0.45028 0.0
O3527 O 0.34397 0.06548 0.47284 0.0
O3528 O 0.34852 0.08852 0.46724 0.0
C3529 C 0.34468 0.07914 0.47743 0.0
C3530 C 0.37583 0.06398 0.44093 0.0
C3531 C 0.34969 0.08234 0.49243 0.0
C3532 C 0.36818 0.08932 0.50994 0.0
C3533 C 0.36413 0.08291 0.49648 0.0
C3534 C 0.3434 0.09417 0.51529 0.0
C3535 C 0.3579 0.09578 0.51938 0.0
C3536 C 0.33944 0.08742 0.50223 0.0
C3537 C 0.31719 0.07994 0.42462 0.0
C3538 C 0.30088 0.10058 0.42264 0.0
C3539 C 0.30286 0.08316 0.40272 0.0
C3540 C 0.3125 0.0749 0.41094 0.0
C3541 C 0.29774 0.09659 0.40811 0.0
C3542 C 0.31066 0.09233 0.43085 0.0
C3543 C 0.33121 0.07468 0.42962 0.0
O3544 O 0.37232 0.07758 0.44392 0.0
O3545 O 0.36633 0.05441 0.44559 0.0
O3546 O 0.34053 0.08483 0.43311 0.0
O3547 O 0.3322 0.06269 0.43759 0.0
H3548 H 0.36057 0.06591 0.41573 0.0
H3549 H 0.36971 0.06561 0.39059 0.0
H3550 H 0.41219 0.05753 0.40704 0.0
H3551 H 0.40294 0.05786 0.43226 0.0
H3552 H 0.37942 0.0896 0.51252 0.0
H3553 H 0.37228 0.07897 0.48904 0.0
H3554 H 0.33471 0.0988 0.52144 0.0
H3555 H 0.32823 0.08717 0.4993 0.0
H3556 H 0.29701 0.11087 0.42705 0.0
H3557 H 0.3005 0.07978 0.39159 0.0
H3558 H 0.31744 0.06542 0.4059 0.0
H3559 H 0.31416 0.09642 0.44141 0.0
C3560 C 0.88121 0.44234 0.57719 0.0
C3561 C 0.87229 0.44011 0.58936 0.0
C3562 C 0.89268 0.44203 0.6058 0.0
C3563 C 0.87797 0.43994 0.60354 0.0
C3564 C 0.90147 0.44492 0.59363 0.0
C3565 C 0.89578 0.44498 0.57942 0.0
U3566 U 0.85019 0.43231 0.55324 0.0
O3567 O 0.84351 0.43837 0.5307 0.0
O3568 O 0.84817 0.41538 0.53638 0.0
C3569 C 0.84428 0.42469 0.52615 0.0
C3570 C 0.87563 0.44018 0.56224 0.0
C3571 C 0.84941 0.4215 0.51119 0.0
C3572 C 0.86802 0.41434 0.49388 0.0
C3573 C 0.86389 0.42076 0.50731 0.0
C3574 C 0.84323 0.40987 0.4882 0.0
C3575 C 0.85777 0.40805 0.48429 0.0
C3576 C 0.83921 0.4166 0.50124 0.0
C3577 C 0.81705 0.42401 0.579 0.0
C3578 C 0.80075 0.40332 0.58088 0.0
C3579 C 0.8026 0.42075 0.60081 0.0
C3580 C 0.81227 0.42903 0.59265 0.0
C3581 C 0.79753 0.40731 0.59539 0.0
C3582 C 0.81057 0.4116 0.57272 0.0
C3583 C 0.83106 0.42935 0.57404 0.0
O3584 O 0.87211 0.42655 0.55936 0.0
O3585 O 0.86602 0.44969 0.55773 0.0
O3586 O 0.84042 0.41923 0.57057 0.0
O3587 O 0.83198 0.44129 0.566 0.0
H3588 H 0.861 0.43802 0.58787 0.0
H3589 H 0.8709 0.43796 0.61272 0.0
H3590 H 0.91283 0.44656 0.59505 0.0
H3591 H 0.90284 0.44661 0.57016 0.0
H3592 H 0.87928 0.41392 0.49146 0.0
H3593 H 0.87199 0.42456 0.51487 0.0
H3594 H 0.83454 0.40545 0.4819 0.0
H3595 H 0.82797 0.41701 0.50403 0.0
H3596 H 0.79693 0.39302 0.57646 0.0
H3597 H 0.80018 0.42411 0.61193 0.0
H3598 H 0.81718 0.43853 0.59773 0.0
H3599 H 0.81413 0.40753 0.56219 0.0
C3600 C 0.31976 0.12579 0.3348 0.0
C3601 C 0.3272 0.12345 0.34791 0.0
C3602 C 0.30473 0.12442 0.36164 0.0
C3603 C 0.31974 0.12286 0.36126 0.0
C3604 C 0.29752 0.1272 0.34842 0.0
C3605 C 0.30496 0.12791 0.33521 0.0
U3606 U 0.34737 0.11864 0.30223 0.0
O3607 O 0.34863 0.13181 0.28193 0.0
O3608 O 0.33843 0.11013 0.28175 0.0
C3609 C 0.34242 0.12155 0.27403 0.0
C3610 C 0.32651 0.12518 0.32027 0.0
C3611 C 0.34855 0.11805 0.25963 0.0
C3612 C 0.34429 0.11304 0.23387 0.0
C3613 C 0.33924 0.11705 0.24768 0.0
C3614 C 0.3682 0.11097 0.24376 0.0
C3615 C 0.35886 0.11007 0.23165 0.0
C3616 C 0.36307 0.11488 0.25767 0.0
C3617 C 0.37855 0.1014 0.32428 0.0
C3618 C 0.39932 0.08948 0.33475 0.0
C3619 C 0.37684 0.08923 0.34786 0.0
C3620 C 0.37061 0.09762 0.33674 0.0
C3621 C 0.39113 0.08456 0.34673 0.0
C3622 C 0.39305 0.09774 0.32359 0.0
C3623 C 0.37153 0.10699 0.31103 0.0
O3624 O 0.33674 0.1345 0.31697 0.0
O3625 O 0.32816 0.11216 0.31437 0.0
O3626 O 0.36958 0.12123 0.31002 0.0
O3627 O 0.36049 0.09929 0.3066 0.0
H3628 H 0.33865 0.1218 0.34779 0.0
H3629 H 0.3257 0.12093 0.37125 0.0
H3630 H 0.28601 0.12821 0.34814 0.0
H3631 H 0.29903 0.12966 0.32515 0.0
H3632 H 0.33672 0.11218 0.22496 0.0
H3633 H 0.32795 0.11924 0.24906 0.0
H3634 H 0.37951 0.10892 0.24244 0.0
H3635 H 0.37038 0.11541 0.26685 0.0
H3636 H 0.41045 0.08645 0.33369 0.0
H3637 H 0.37014 0.08564 0.35684 0.0
H3638 H 0.35939 0.10037 0.33744 0.0
H3639 H 0.39934 0.10062 0.31404 0.0
C3640 C 0.61331 0.5965 0.11235 0.0
C3641 C 0.62584 0.59614 0.12066 0.0
C3642 C 0.6176 0.57387 0.13282 0.0
C3643 C 0.62801 0.58488 0.13076 0.0
C3644 C 0.60445 0.57523 0.12554 0.0
C3645 C 0.60237 0.58644 0.11533 0.0
U3646 U 0.62608 0.623 0.08119 0.0
O3647 O 0.62777 0.61384 0.05911 0.0
O3648 O 0.61342 0.63253 0.06306 0.0
C3649 C 0.61857 0.62308 0.05351 0.0
C3650 C 0.61298 0.60412 0.09825 0.0
C3651 C 0.62151 0.62789 0.03845 0.0
C3652 C 0.61739 0.62343 0.01264 0.0
C3653 C 0.61511 0.61978 0.02725 0.0
C3654 C 0.63298 0.64329 0.02005 0.0
C3655 C 0.62603 0.63543 0.00881 0.0
C3656 C 0.63073 0.63952 0.03486 0.0
C3657 C 0.65798 0.64187 0.10196 0.0
C3658 C 0.68208 0.64882 0.10843 0.0
C3659 C 0.66512 0.64297 0.1276 0.0
C3660 C 0.65464 0.64027 0.11689 0.0
C3661 C 0.6791 0.64709 0.12349 0.0
C3662 C 0.67164 0.64643 0.09791 0.0
C3663 C 0.64803 0.63854 0.08997 0.0
O3664 O 0.60939 0.61806 0.09778 0.0
O3665 O 0.62365 0.6008 0.08956 0.0
O3666 O 0.63479 0.64322 0.091 0.0
O3667 O 0.6492 0.62546 0.08406 0.0
H3668 H 0.63446 0.60374 0.11837 0.0
H3669 H 0.63833 0.58424 0.13603 0.0
H3670 H 0.59606 0.56722 0.12714 0.0
H3671 H 0.59264 0.58651 0.10889 0.0
H3672 H 0.6121 0.61697 0.00428 0.0
H3673 H 0.60821 0.61058 0.02981 0.0
H3674 H 0.63971 0.65258 0.01741 0.0
H3675 H 0.63599 0.64571 0.04342 0.0
H3676 H 0.69267 0.65141 0.10451 0.0
H3677 H 0.66229 0.64164 0.13903 0.0
H3678 H 0.64408 0.63676 0.12022 0.0
H3679 H 0.67442 0.64771 0.08644 0.0
C3680 C 0.7021 0.39019 0.30835 0.0
C3681 C 0.69587 0.39584 0.32112 0.0
C3682 C 0.70467 0.37486 0.33509 0.0
C3683 C 0.69721 0.38827 0.33441 0.0
C3684 C 0.71164 0.3698 0.32242 0.0
C3685 C 0.71035 0.3774 0.30918 0.0
U3686 U 0.6842 0.41712 0.2808 0.0
O3687 O 0.69177 0.42375 0.25863 0.0
O3688 O 0.67211 0.41069 0.2615 0.0
C3689 C 0.6806 0.4176 0.25241 0.0
C3690 C 0.69876 0.39619 0.2938 0.0
C3691 C 0.68126 0.41174 0.23751 0.0
C3692 C 0.68054 0.39078 0.22111 0.0
C3693 C 0.68448 0.39702 0.23459 0.0
C3694 C 0.67054 0.41404 0.2135 0.0
C3695 C 0.67284 0.39903 0.21064 0.0
C3696 C 0.67491 0.42031 0.22664 0.0
C3697 C 0.66337 0.44372 0.30797 0.0
C3698 C 0.64434 0.45887 0.31787 0.0
C3699 C 0.65797 0.44286 0.33384 0.0
C3700 C 0.66628 0.43829 0.32198 0.0
C3701 C 0.64655 0.45271 0.33175 0.0
C3702 C 0.65272 0.45437 0.30605 0.0
C3703 C 0.66935 0.437 0.2948 0.0
O3704 O 0.68538 0.39484 0.28973 0.0
O3705 O 0.70438 0.40895 0.2903 0.0
O3706 O 0.66438 0.42399 0.29138 0.0
O3707 O 0.68293 0.43884 0.29162 0.0
H3708 H 0.6895 0.40574 0.32068 0.0
H3709 H 0.69206 0.39272 0.34406 0.0
H3710 H 0.71745 0.35954 0.32251 0.0
H3711 H 0.71522 0.37288 0.2994 0.0
H3712 H 0.68291 0.37932 0.21927 0.0
H3713 H 0.68923 0.39018 0.24299 0.0
H3714 H 0.66438 0.4209 0.2062 0.0
H3715 H 0.67206 0.43162 0.22884 0.0
H3716 H 0.63554 0.46632 0.31594 0.0
H3717 H 0.65993 0.43806 0.34452 0.0
H3718 H 0.67439 0.42999 0.3236 0.0
H3719 H 0.65026 0.45852 0.2952 0.0
C3720 C 0.11329 0.9068 0.89129 0.0
C3721 C 0.12586 0.90714 0.88303 0.0
C3722 C 0.11762 0.92929 0.87069 0.0
C3723 C 0.12805 0.91834 0.87286 0.0
C3724 C 0.10443 0.9279 0.87789 0.0
C3725 C 0.10233 0.91677 0.88818 0.0
U3726 U 0.12611 0.88061 0.92262 0.0
O3727 O 0.12777 0.88986 0.94466 0.0
O3728 O 0.11349 0.87109 0.94079 0.0
C3729 C 0.11861 0.88059 0.9503 0.0
C3730 C 0.11294 0.89932 0.90546 0.0
C3731 C 0.12159 0.87584 0.96536 0.0
C3732 C 0.1175 0.88035 0.99117 0.0
C3733 C 0.11522 0.88398 0.97656 0.0
C3734 C 0.13304 0.86046 0.98378 0.0
C3735 C 0.12613 0.86834 0.99501 0.0
C3736 C 0.13079 0.86421 0.96896 0.0
C3737 C 0.15804 0.86185 0.90184 0.0
C3738 C 0.18212 0.85493 0.89532 0.0
C3739 C 0.16514 0.86081 0.87618 0.0
C3740 C 0.15468 0.86348 0.88692 0.0
C3741 C 0.17913 0.85668 0.88027 0.0
C3742 C 0.1717 0.8573 0.90586 0.0
C3743 C 0.14811 0.86516 0.91385 0.0
O3744 O 0.10939 0.88537 0.90602 0.0
O3745 O 0.12357 0.90276 0.91414 0.0
O3746 O 0.13489 0.8604 0.91288 0.0
O3747 O 0.14924 0.87826 0.91972 0.0
H3748 H 0.1345 0.89961 0.88543 0.0
H3749 H 0.1384 0.91901 0.86763 0.0
H3750 H 0.09602 0.93586 0.87621 0.0
H3751 H 0.09257 0.9167 0.89457 0.0
H3752 H 0.11224 0.88683 0.99953 0.0
H3753 H 0.10833 0.89317 0.97399 0.0
H3754 H 0.13976 0.85117 0.98642 0.0
H3755 H 0.13602 0.85799 0.9604 0.0
H3756 H 0.19272 0.85235 0.89922 0.0
H3757 H 0.16229 0.86215 0.86476 0.0
H3758 H 0.14412 0.86699 0.88361 0.0
H3759 H 0.17449 0.85601 0.91732 0.0
C3760 C 0.32023 0.87843 0.16936 0.0
C3761 C 0.32756 0.88066 0.15615 0.0
C3762 C 0.30498 0.87944 0.14259 0.0
C3763 C 0.31999 0.88107 0.14285 0.0
C3764 C 0.29789 0.8767 0.15589 0.0
C3765 C 0.30544 0.87618 0.16907 0.0
U3766 U 0.34837 0.88639 0.20127 0.0
O3767 O 0.34984 0.87388 0.22199 0.0
O3768 O 0.34002 0.89572 0.22168 0.0
C3769 C 0.34387 0.88444 0.22966 0.0
C3770 C 0.32711 0.8794 0.18383 0.0
C3771 C 0.35 0.8881 0.24406 0.0
C3772 C 0.34569 0.8927 0.26989 0.0
C3773 C 0.34074 0.88855 0.25609 0.0
C3774 C 0.36941 0.89606 0.25989 0.0
C3775 C 0.36011 0.89642 0.27205 0.0
C3776 C 0.36438 0.89197 0.24597 0.0
C3777 C 0.37979 0.90219 0.17812 0.0
C3778 C 0.40133 0.91204 0.16701 0.0
C3779 C 0.37876 0.91386 0.15423 0.0
C3780 C 0.37203 0.90629 0.16565 0.0
C3781 C 0.39342 0.91737 0.155 0.0
C3782 C 0.39454 0.90466 0.17851 0.0
C3783 C 0.37256 0.89733 0.19159 0.0
O3784 O 0.33731 0.87012 0.18729 0.0
O3785 O 0.32897 0.89258 0.18929 0.0
O3786 O 0.37044 0.88318 0.19329 0.0
O3787 O 0.36164 0.90537 0.19571 0.0
H3788 H 0.33899 0.88241 0.15615 0.0
H3789 H 0.32588 0.88293 0.13281 0.0
H3790 H 0.28639 0.87562 0.15627 0.0
H3791 H 0.29959 0.8745 0.17919 0.0
H3792 H 0.33815 0.89308 0.27888 0.0
H3793 H 0.32956 0.88581 0.25478 0.0
H3794 H 0.38061 0.8987 0.26119 0.0
H3795 H 0.37166 0.89183 0.23674 0.0
H3796 H 0.41268 0.91406 0.16787 0.0
H3797 H 0.37218 0.9178 0.14531 0.0
H3798 H 0.36062 0.90443 0.16514 0.0
H3799 H 0.40072 0.90152 0.18805 0.0
C3800 C 0.20215 0.11343 0.69537 0.0
C3801 C 0.1959 0.10782 0.68259 0.0
C3802 C 0.2046 0.12892 0.6687 0.0
C3803 C 0.19719 0.11547 0.66933 0.0
C3804 C 0.21154 0.13397 0.6814 0.0
C3805 C 0.21031 0.12629 0.6946 0.0
U3806 U 0.18464 0.08595 0.72267 0.0
O3807 O 0.19262 0.07868 0.74447 0.0
O3808 O 0.17295 0.09184 0.74241 0.0
C3809 C 0.18158 0.08462 0.75111 0.0
C3810 C 0.19903 0.10717 0.70988 0.0
C3811 C 0.18251 0.08997 0.76619 0.0
C3812 C 0.18149 0.11046 0.7831 0.0
C3813 C 0.18545 0.10467 0.76945 0.0
C3814 C 0.17229 0.08672 0.79036 0.0
C3815 C 0.17409 0.10174 0.79342 0.0
C3816 C 0.17662 0.08091 0.77698 0.0
C3817 C 0.1633 0.05983 0.69538 0.0
C3818 C 0.14411 0.04477 0.68565 0.0
C3819 C 0.15781 0.06058 0.66953 0.0
C3820 C 0.1662 0.06517 0.68133 0.0
C3821 C 0.14633 0.05081 0.67172 0.0
C3822 C 0.15255 0.04929 0.69741 0.0
C3823 C 0.16954 0.06641 0.70849 0.0
O3824 O 0.18573 0.10845 0.71423 0.0
O3825 O 0.20468 0.09434 0.71304 0.0
O3826 O 0.16464 0.07935 0.71224 0.0
O3827 O 0.18317 0.06452 0.71137 0.0
H3828 H 0.18961 0.09786 0.68298 0.0
H3829 H 0.19205 0.11104 0.65967 0.0
H3830 H 0.21732 0.14426 0.68134 0.0
H3831 H 0.2152 0.13077 0.70438 0.0
H3832 H 0.18344 0.12198 0.78518 0.0
H3833 H 0.18988 0.11187 0.76116 0.0
H3834 H 0.16645 0.07957 0.79767 0.0
H3835 H 0.17403 0.06959 0.77452 0.0
H3836 H 0.13526 0.03738 0.68765 0.0
H3837 H 0.15977 0.06531 0.65881 0.0
H3838 H 0.17439 0.07338 0.67963 0.0
H3839 H 0.15012 0.0452 0.70829 0.0
H3840 H 0.12043 0.19006 0.38357 0.0
H3841 H 0.0906 0.21156 0.35606 0.0
H3842 H 0.13481 0.22584 0.35695 0.0
C3843 C 0.11813 0.19874 0.37578 0.0
C3844 C 0.12916 0.20766 0.37069 0.0
C3845 C 0.10423 0.20057 0.37087 0.0
C3846 C 0.10139 0.21106 0.36002 0.0
C3847 C 0.11202 0.22093 0.35497 0.0
C3848 C 0.12616 0.21877 0.36031 0.0
H3849 H 0.06236 0.87073 0.64117 0.0
H3850 H 0.02573 0.84342 0.63471 0.0
H3851 H 0.0327 0.88142 0.60707 0.0
C3852 C 0.0527 0.86829 0.63509 0.0
C3853 C 0.04846 0.87759 0.62373 0.0
C3854 C 0.04464 0.85595 0.63892 0.0
C3855 C 0.032 0.8528 0.63132 0.0
C3856 C 0.02729 0.86202 0.61984 0.0
C3857 C 0.03579 0.87434 0.61605 0.0
H3858 H 0.37575 0.80236 0.8987 0.0
H3859 H 0.39929 0.76214 0.89296 0.0
H3860 H 0.35355 0.76253 0.88871 0.0
C3861 C 0.37592 0.79063 0.89683 0.0
C3862 C 0.36311 0.78335 0.89373 0.0
C3863 C 0.38903 0.78312 0.89687 0.0
C3864 C 0.38924 0.768 0.89338 0.0
C3865 C 0.37642 0.76056 0.89014 0.0
C3866 C 0.36347 0.76831 0.89071 0.0
H3867 H 0.43089 0.10548 0.11382 0.0
H3868 H 0.45233 0.1349 0.08405 0.0
H3869 H 0.47594 0.10146 0.10607 0.0
C3870 C 0.44034 0.10904 0.10804 0.0
C3871 C 0.45319 0.10128 0.11016 0.0
C3872 C 0.4398 0.12154 0.09898 0.0
C3873 C 0.4523 0.12563 0.09146 0.0
C3874 C 0.46538 0.1189 0.09447 0.0
C3875 C 0.46576 0.10648 0.1035 0.0
H3876 H 0.12043 0.8137 0.12029 0.0
H3877 H 0.09059 0.79189 0.14764 0.0
H3878 H 0.13481 0.77772 0.1466 0.0
C3879 C 0.11813 0.80496 0.12801 0.0
C3880 C 0.12917 0.79602 0.13304 0.0
C3881 C 0.10422 0.80304 0.13289 0.0
C3882 C 0.10138 0.79246 0.14365 0.0
C3883 C 0.11203 0.78257 0.14861 0.0
C3884 C 0.12616 0.78481 0.14331 0.0
H3885 H 0.43079 0.89559 0.3898 0.0
H3886 H 0.45174 0.86807 0.42161 0.0
H3887 H 0.47601 0.89894 0.39668 0.0
C3888 C 0.44021 0.89231 0.39577 0.0
C3889 C 0.45325 0.89935 0.39273 0.0
C3890 C 0.43943 0.88067 0.40588 0.0
C3891 C 0.45189 0.87683 0.41361 0.0
C3892 C 0.46509 0.88304 0.40999 0.0
C3893 C 0.46571 0.89451 0.39982 0.0
H3894 H 0.37583 0.2014 0.605 0.0
H3895 H 0.39939 0.24162 0.61079 0.0
H3896 H 0.35364 0.24122 0.61497 0.0
C3897 C 0.376 0.21313 0.60688 0.0
C3898 C 0.36319 0.2204 0.60996 0.0
C3899 C 0.38913 0.22064 0.60685 0.0
C3900 C 0.38934 0.23576 0.61035 0.0
C3901 C 0.37651 0.24319 0.61358 0.0
C3902 C 0.36356 0.23544 0.61299 0.0
H3903 H 0.0645 0.13384 0.86417 0.0
H3904 H 0.02683 0.16016 0.86911 0.0
H3905 H 0.03151 0.12038 0.89403 0.0
C3906 C 0.05418 0.13571 0.86914 0.0
C3907 C 0.04882 0.12538 0.87914 0.0
C3908 C 0.04653 0.14846 0.86561 0.0
C3909 C 0.03309 0.15065 0.87215 0.0
C3910 C 0.02763 0.14082 0.88267 0.0
C3911 C 0.03552 0.12804 0.88594 0.0
H3912 H 0.38041 0.10055 0.17782 0.0
H3913 H 0.37953 0.09032 0.22366 0.0
H3914 H 0.35015 0.12197 0.20601 0.0
C3915 C 0.37563 0.10215 0.1885 0.0
C3916 C 0.36447 0.11221 0.19027 0.0
C3917 C 0.38102 0.0942 0.20039 0.0
C3918 C 0.37534 0.09648 0.21446 0.0
C3919 C 0.3643 0.10671 0.21664 0.0
C3920 C 0.35872 0.1142 0.2044 0.0
H3921 H 0.12576 0.14875 0.45136 0.0
H3922 H 0.1493 0.14302 0.49158 0.0
H3923 H 0.10357 0.13879 0.49121 0.0
C3924 C 0.12593 0.14689 0.46309 0.0
C3925 C 0.11312 0.14379 0.47038 0.0
C3926 C 0.13905 0.14692 0.4706 0.0
C3927 C 0.13926 0.14344 0.48572 0.0
C3928 C 0.12643 0.14021 0.49317 0.0
C3929 C 0.11349 0.14077 0.48542 0.0
H3930 H 0.1418 0.87563 0.66679 0.0
H3931 H 0.16284 0.87079 0.70819 0.0
H3932 H 0.16575 0.91157 0.68439 0.0
C3933 C 0.14852 0.88019 0.67531 0.0
C3934 C 0.15293 0.89484 0.67436 0.0
C3935 C 0.15223 0.87145 0.68738 0.0
C3936 C 0.16085 0.87735 0.69851 0.0
C3937 C 0.16579 0.89195 0.69769 0.0
C3938 C 0.16213 0.90036 0.68523 0.0
H3939 H 0.37042 0.87031 0.94008 0.0
H3940 H 0.34052 0.89765 0.96168 0.0
H3941 H 0.38472 0.89673 0.97599 0.0
C3942 C 0.3681 0.87805 0.94879 0.0
C3943 C 0.37911 0.8831 0.95774 0.0
C3944 C 0.35419 0.88292 0.95063 0.0
C3945 C 0.35131 0.8937 0.96117 0.0
C3946 C 0.36193 0.89871 0.97107 0.0
C3947 C 0.37608 0.89341 0.9689 0.0
H3948 H 0.38058 0.90674 0.32621 0.0
H3949 H 0.37914 0.91781 0.28052 0.0
H3950 H 0.35264 0.88308 0.29727 0.0
C3951 C 0.37609 0.90491 0.31544 0.0
C3952 C 0.36589 0.89382 0.31334 0.0
C3953 C 0.38079 0.91371 0.30378 0.0
C3954 C 0.37547 0.9111 0.28958 0.0
C3955 C 0.36542 0.89987 0.2871 0.0
C3956 C 0.36049 0.89157 0.29912 0.0
H3957 H 0.37041 0.13346 0.56365 0.0
H3958 H 0.34056 0.10616 0.54185 0.0
H3959 H 0.3848 0.10716 0.52769 0.0
C3960 C 0.36811 0.12575 0.55491 0.0
C3961 C 0.37915 0.12072 0.54598 0.0
C3962 C 0.3542 0.12089 0.553 0.0
C3963 C 0.35135 0.11013 0.54242 0.0
C3964 C 0.362 0.10516 0.53254 0.0
C3965 C 0.37615 0.11046 0.53477 0.0
H3966 H 0.14252 0.12453 0.83713 0.0
H3967 H 0.16145 0.1286 0.79467 0.0
H3968 H 0.16762 0.08916 0.81993 0.0
C3969 C 0.14907 0.1199 0.82851 0.0
C3970 C 0.15415 0.10555 0.8298 0.0
C3971 C 0.15133 0.12802 0.81574 0.0
C3972 C 0.16026 0.12245 0.80476 0.0
C3973 C 0.16653 0.10848 0.80621 0.0
C3974 C 0.16347 0.10017 0.81893 0.0
H3975 H 0.12582 0.85503 0.05244 0.0
H3976 H 0.14938 0.8608 0.01222 0.0
H3977 H 0.10365 0.86499 0.01259 0.0
C3978 C 0.126 0.8569 0.04071 0.0
C3979 C 0.11319 0.85999 0.03342 0.0
C3980 C 0.13912 0.85688 0.03321 0.0
C3981 C 0.13934 0.86037 0.01808 0.0
C3982 C 0.12651 0.86359 0.01064 0.0
C3983 C 0.11357 0.86301 0.01838 0.0
H3984 H 0.18094 0.36394 0.14806 0.0
H3985 H 0.20237 0.33396 0.1189 0.0
H3986 H 0.226 0.35634 0.15205 0.0
C3987 C 0.19038 0.35816 0.14452 0.0
C3988 C 0.20324 0.36036 0.15224 0.0
C3989 C 0.18982 0.349 0.13209 0.0
C3990 C 0.20234 0.34147 0.12807 0.0
C3991 C 0.21542 0.34458 0.13474 0.0
C3992 C 0.21582 0.35371 0.14706 0.0
H3993 H 0.68098 0.14024 0.85546 0.0
H3994 H 0.70264 0.1697 0.88501 0.0
H3995 H 0.7261 0.14756 0.85156 0.0
C3996 C 0.69046 0.14593 0.85907 0.0
C3997 C 0.70331 0.14373 0.85133 0.0
C3998 C 0.68997 0.15494 0.8716 0.0
C3999 C 0.70255 0.16232 0.87573 0.0
C4000 C 0.71562 0.15918 0.86903 0.0
C4001 C 0.71594 0.15022 0.85657 0.0
H4002 H 0.13017 0.42784 0.15336 0.0
H4003 H 0.12944 0.4737 0.16347 0.0
H4004 H 0.10011 0.45609 0.13172 0.0
C4005 C 0.12544 0.43853 0.15172 0.0
C4006 C 0.11432 0.44033 0.14161 0.0
C4007 C 0.13087 0.45042 0.15964 0.0
C4008 C 0.12523 0.4645 0.15731 0.0
C4009 C 0.11422 0.4667 0.14705 0.0
C4010 C 0.10863 0.45447 0.13955 0.0
H4011 H 0.81235 0.89106 0.38276 0.0
H4012 H 0.77552 0.88475 0.40983 0.0
H4013 H 0.78252 0.85719 0.37185 0.0
C4014 C 0.80263 0.88504 0.38514 0.0
C4015 C 0.79835 0.87375 0.37577 0.0
C4016 C 0.79454 0.88888 0.39745 0.0
C4017 C 0.78182 0.88135 0.40049 0.0
C4018 C 0.77709 0.86993 0.39123 0.0
C4019 C 0.78563 0.86614 0.37894 0.0
H4020 H 0.8917 0.08696 0.12552 0.0
H4021 H 0.91272 0.04555 0.12068 0.0
H4022 H 0.91566 0.06932 0.16143 0.0
C4023 C 0.89841 0.07843 0.13008 0.0
C4024 C 0.90284 0.07936 0.14472 0.0
C4025 C 0.90212 0.06636 0.12134 0.0
C4026 C 0.91073 0.05522 0.12723 0.0
C4027 C 0.91568 0.05604 0.14182 0.0
C4028 C 0.91203 0.06849 0.15023 0.0
H4029 H 0.3124 0.61269 0.62053 0.0
H4030 H 0.27573 0.61921 0.59332 0.0
H4031 H 0.28267 0.64661 0.63144 0.0
C4032 C 0.30273 0.61876 0.61814 0.0
C4033 C 0.29846 0.63003 0.62752 0.0
C4034 C 0.29468 0.61499 0.60578 0.0
C4035 C 0.282 0.62256 0.6027 0.0
C4036 C 0.27725 0.63395 0.612 0.0
C4037 C 0.28577 0.63768 0.62432 0.0
H4038 H 0.13073 0.57631 0.34732 0.0
H4039 H 0.12904 0.53063 0.3363 0.0
H4040 H 0.10272 0.54745 0.37105 0.0
C4041 C 0.12619 0.56556 0.34917 0.0
C4042 C 0.11605 0.56349 0.36033 0.0
C4043 C 0.1308 0.55389 0.34036 0.0
C4044 C 0.12544 0.5397 0.34301 0.0
C4045 C 0.11542 0.53725 0.35427 0.0
C4046 C 0.11057 0.54929 0.36256 0.0
H4047 H 0.39181 0.41683 0.87813 0.0
H4048 H 0.4128 0.45828 0.88292 0.0
H4049 H 0.41575 0.43448 0.84219 0.0
C4050 C 0.39852 0.42537 0.87356 0.0
C4051 C 0.40293 0.42443 0.85891 0.0
C4052 C 0.40221 0.43745 0.88228 0.0
C4053 C 0.41082 0.4486 0.87638 0.0
C4054 C 0.41577 0.44778 0.86179 0.0
C4055 C 0.41213 0.43531 0.85339 0.0
H4056 H 0.87493 0.79884 0.59894 0.0
H4057 H 0.89786 0.75838 0.60613 0.0
H4058 H 0.85216 0.75974 0.61035 0.0
C4059 C 0.87499 0.78717 0.60118 0.0
C4060 C 0.86207 0.78018 0.60451 0.0
C4061 C 0.88804 0.7795 0.60152 0.0
C4062 C 0.88794 0.76442 0.60548 0.0
C4063 C 0.87496 0.75727 0.60895 0.0
C4064 C 0.86218 0.76525 0.60809 0.0
H4065 H 0.93249 0.10396 0.38265 0.0
H4066 H 0.95248 0.13177 0.41467 0.0
H4067 H 0.97661 0.09771 0.39393 0.0
C4068 C 0.94166 0.10695 0.3892 0.0
C4069 C 0.95426 0.09856 0.38814 0.0
C4070 C 0.94101 0.1194 0.39827 0.0
C4071 C 0.95293 0.12271 0.40701 0.0
C4072 C 0.96602 0.11564 0.40486 0.0
C4073 C 0.96653 0.10323 0.39576 0.0
H4074 H 0.61812 0.19542 0.11389 0.0
H4075 H 0.59036 0.22296 0.13891 0.0
H4076 H 0.63604 0.22673 0.14384 0.0
C4077 C 0.61668 0.20422 0.12174 0.0
C4078 C 0.62865 0.21096 0.12793 0.0
C4079 C 0.6029 0.20834 0.1258 0.0
C4080 C 0.60108 0.21933 0.13639 0.0
C4081 C 0.61291 0.22611 0.14314 0.0
C4082 C 0.62676 0.22169 0.13888 0.0
H4083 H 0.56001 0.87077 0.85468 0.0
H4084 H 0.52294 0.84425 0.86246 0.0
H4085 H 0.53086 0.88276 0.88879 0.0
C4086 C 0.55037 0.86868 0.86089 0.0
C4087 C 0.5463 0.87845 0.87194 0.0
C4088 C 0.54215 0.85621 0.85764 0.0
C4089 C 0.52942 0.85364 0.86538 0.0
C4090 C 0.52493 0.86341 0.87644 0.0
C4091 C 0.53374 0.87553 0.87987 0.0
H4092 H 0.87314 0.20558 0.90564 0.0
H4093 H 0.8964 0.24589 0.89879 0.0
H4094 H 0.85083 0.24457 0.89311 0.0
C4095 C 0.87329 0.21723 0.90332 0.0
C4096 C 0.8605 0.22419 0.89952 0.0
C4097 C 0.88635 0.22486 0.90333 0.0
C4098 C 0.88643 0.23989 0.8992 0.0
C4099 C 0.87359 0.24703 0.89521 0.0
C4100 C 0.86076 0.23908 0.89574 0.0
H4101 H 0.56013 0.13262 0.64903 0.0
H4102 H 0.52317 0.15916 0.64104 0.0
H4103 H 0.53098 0.12045 0.61495 0.0
C4104 C 0.5505 0.13468 0.64278 0.0
C4105 C 0.54645 0.12485 0.63177 0.0
C4106 C 0.54232 0.14718 0.64596 0.0
C4107 C 0.52963 0.14974 0.63817 0.0
C4108 C 0.52512 0.13993 0.62714 0.0
C4109 C 0.53388 0.12774 0.62382 0.0
H4110 H 0.61829 0.80826 0.38966 0.0
H4111 H 0.59041 0.78082 0.36466 0.0
H4112 H 0.6361 0.77692 0.35972 0.0
C4113 C 0.61681 0.79947 0.38181 0.0
C4114 C 0.62875 0.79268 0.37563 0.0
C4115 C 0.60303 0.79539 0.37775 0.0
C4116 C 0.60115 0.78441 0.36717 0.0
C4117 C 0.61295 0.77758 0.36042 0.0
C4118 C 0.62682 0.78197 0.36467 0.0
H4119 H 0.93254 0.89983 0.12102 0.0
H4120 H 0.95258 0.872 0.08907 0.0
H4121 H 0.97669 0.90609 0.10982 0.0
C4122 C 0.94172 0.89684 0.1145 0.0
C4123 C 0.95432 0.90523 0.11557 0.0
C4124 C 0.94108 0.88438 0.10543 0.0
C4125 C 0.95301 0.88107 0.09672 0.0
C4126 C 0.96611 0.88814 0.0989 0.0
C4127 C 0.96661 0.90057 0.10798 0.0
H4128 H 0.63595 0.87789 0.83209 0.0
H4129 H 0.65886 0.91336 0.81138 0.0
H4130 H 0.65967 0.8703 0.79253 0.0
C4131 C 0.64273 0.88201 0.8234 0.0
C4132 C 0.64714 0.87239 0.81224 0.0
C4133 C 0.64694 0.89684 0.82335 0.0
C4134 C 0.65588 0.90189 0.812 0.0
C4135 C 0.6607 0.89232 0.80108 0.0
C4136 C 0.65638 0.87757 0.8013 0.0
H4137 H 0.86833 0.86393 0.55837 0.0
H4138 H 0.84073 0.88963 0.53128 0.0
H4139 H 0.88644 0.89444 0.52768 0.0
C4140 C 0.86694 0.87196 0.54972 0.0
C4141 C 0.87895 0.87823 0.54312 0.0
C4142 C 0.8532 0.87616 0.54565 0.0
C4143 C 0.85143 0.88699 0.53487 0.0
C4144 C 0.8633 0.89384 0.52825 0.0
C4145 C 0.87713 0.88943 0.5326 0.0
H4146 H 0.88371 0.09653 0.32211 0.0
H4147 H 0.88435 0.09208 0.27531 0.0
H4148 H 0.8596 0.1264 0.29551 0.0
C4149 C 0.88038 0.10045 0.31142 0.0
C4150 C 0.87111 0.11238 0.31042 0.0
C4151 C 0.8857 0.09358 0.29886 0.0
C4152 C 0.88062 0.09781 0.28498 0.0
C4153 C 0.87077 0.10944 0.28366 0.0
C4154 C 0.86635 0.11682 0.29647 0.0
H4155 H 0.62487 0.15487 0.05007 0.0
H4156 H 0.64794 0.1487 0.00952 0.0
H4157 H 0.60227 0.14446 0.01063 0.0
C4158 C 0.62497 0.1529 0.03836 0.0
C4159 C 0.61208 0.14971 0.03124 0.0
C4160 C 0.63804 0.15275 0.03069 0.0
C4161 C 0.638 0.1492 0.01556 0.0
C4162 C 0.62508 0.14593 0.00835 0.0
C4163 C 0.61226 0.14657 0.01624 0.0
H4164 H 0.63756 0.12773 0.67101 0.0
H4165 H 0.66477 0.09381 0.68797 0.0
H4166 H 0.6603 0.13458 0.71104 0.0
C4167 C 0.6448 0.12358 0.67926 0.0
C4168 C 0.64871 0.13284 0.69091 0.0
C4169 C 0.65009 0.10915 0.67827 0.0
C4170 C 0.66027 0.10462 0.68873 0.0
C4171 C 0.66404 0.11349 0.70079 0.0
C4172 C 0.65818 0.12768 0.70165 0.0
H4173 H 0.62501 0.84891 0.45389 0.0
H4174 H 0.64797 0.85536 0.49447 0.0
H4175 H 0.6023 0.85953 0.4932 0.0
C4176 C 0.62508 0.85095 0.46559 0.0
C4177 C 0.61217 0.85417 0.47266 0.0
C4178 C 0.63813 0.85113 0.4733 0.0
C4179 C 0.63805 0.85481 0.4884 0.0
C4180 C 0.6251 0.85811 0.49556 0.0
C4181 C 0.61231 0.85739 0.48763 0.0
H4182 H 0.88376 0.90733 0.18145 0.0
H4183 H 0.88439 0.9117 0.22826 0.0
H4184 H 0.85959 0.87743 0.208 0.0
C4185 C 0.88042 0.9034 0.19213 0.0
C4186 C 0.87113 0.89148 0.19311 0.0
C4187 C 0.88574 0.91025 0.2047 0.0
C4188 C 0.88065 0.90599 0.21858 0.0
C4189 C 0.87079 0.89437 0.21987 0.0
C4190 C 0.86636 0.88701 0.20705 0.0
H4191 H 0.86972 0.13947 0.94424 0.0
H4192 H 0.84179 0.11554 0.97264 0.0
H4193 H 0.88735 0.10955 0.97587 0.0
C4194 C 0.86823 0.13179 0.95318 0.0
C4195 C 0.88018 0.12536 0.95983 0.0
C4196 C 0.8544 0.12812 0.95758 0.0
C4197 C 0.85251 0.11777 0.9688 0.0
C4198 C 0.86424 0.11081 0.97549 0.0
C4199 C 0.87814 0.11465 0.97083 0.0
H4200 H 0.81 0.60463 0.88341 0.0
H4201 H 0.7729 0.6125 0.90981 0.0
H4202 H 0.78101 0.63886 0.87131 0.0
C4203 C 0.80038 0.61088 0.88547 0.0
C4204 C 0.79641 0.62199 0.87571 0.0
C4205 C 0.79211 0.60762 0.89789 0.0
C4206 C 0.77942 0.61541 0.90044 0.0
C4207 C 0.77499 0.6265 0.89065 0.0
C4208 C 0.78385 0.62993 0.87857 0.0
H4209 H 0.31023 0.8991 0.12106 0.0
H4210 H 0.27324 0.89111 0.09455 0.0
H4211 H 0.28107 0.86501 0.13329 0.0
C4212 C 0.3006 0.89285 0.11901 0.0
C4213 C 0.29655 0.88183 0.12886 0.0
C4214 C 0.2924 0.89602 0.10652 0.0
C4215 C 0.27971 0.88824 0.10397 0.0
C4216 C 0.2752 0.87721 0.11379 0.0
C4217 C 0.28397 0.87388 0.12599 0.0
H4218 H 0.88748 0.58294 0.87794 0.0
H4219 H 0.91392 0.5661 0.84344 0.0
H4220 H 0.91057 0.543 0.88451 0.0
C4221 C 0.89478 0.57472 0.8738 0.0
C4222 C 0.89888 0.5631 0.88299 0.0
C4223 C 0.89983 0.57571 0.85933 0.0
C4224 C 0.90983 0.56526 0.85447 0.0
C4225 C 0.9138 0.5532 0.86327 0.0
C4226 C 0.90829 0.55238 0.87764 0.0
H4227 H 0.18249 0.13273 0.64986 0.0
H4228 H 0.20258 0.16463 0.62192 0.0
H4229 H 0.22662 0.14397 0.65612 0.0
C4230 C 0.19167 0.13926 0.64685 0.0
C4231 C 0.20426 0.13821 0.65526 0.0
C4232 C 0.19105 0.1483 0.63436 0.0
C4233 C 0.203 0.15701 0.63102 0.0
C4234 C 0.21608 0.15485 0.63812 0.0
C4235 C 0.21655 0.1458 0.65058 0.0
H4236 H 0.1339 0.93121 0.84636 0.0
H4237 H 0.13429 0.97807 0.84216 0.0
H4238 H 0.10957 0.95746 0.87629 0.0
C4239 C 0.1305 0.94186 0.8503 0.0
C4240 C 0.12116 0.94273 0.86218 0.0
C4241 C 0.13578 0.9545 0.84351 0.0
C4242 C 0.1306 0.96833 0.84781 0.0
C4243 C 0.1207 0.96948 0.85941 0.0
C4244 C 0.11634 0.9566 0.86671 0.0
H4245 H 0.68254 0.37106 0.35393 0.0
H4246 H 0.70257 0.33913 0.38184 0.0
H4247 H 0.72667 0.35983 0.34768 0.0
C4248 C 0.69171 0.36454 0.35694 0.0
C4249 C 0.70432 0.3656 0.34854 0.0
C4250 C 0.69108 0.35548 0.36941 0.0
C4251 C 0.703 0.34676 0.37275 0.0
C4252 C 0.71609 0.34892 0.36565 0.0
C4253 C 0.71659 0.35799 0.35321 0.0
H4254 H 0.88747 0.42088 0.62582 0.0
H4255 H 0.9139 0.4378 0.6603 0.0
H4256 H 0.91057 0.46084 0.6192 0.0
C4257 C 0.89476 0.42912 0.62995 0.0
C4258 C 0.89886 0.44073 0.62075 0.0
C4259 C 0.89982 0.42815 0.64442 0.0
C4260 C 0.90981 0.43862 0.64927 0.0
C4261 C 0.9138 0.45066 0.64045 0.0
C4262 C 0.90828 0.45146 0.62608 0.0
H4263 H 0.6337 0.57213 0.15726 0.0
H4264 H 0.63437 0.52532 0.16169 0.0
H4265 H 0.60959 0.54556 0.12738 0.0
C4266 C 0.63038 0.56144 0.15334 0.0
C4267 C 0.62111 0.56046 0.14141 0.0
C4268 C 0.63571 0.54888 0.1602 0.0
C4269 C 0.63063 0.535 0.15596 0.0
C4270 C 0.62078 0.53369 0.14434 0.0
C4271 C 0.61635 0.54651 0.13696 0.0
H4272 H 0.62037 0.6901 0.88351 0.0
H4273 H 0.59064 0.71174 0.85593 0.0
H4274 H 0.63486 0.72596 0.85704 0.0
C4275 C 0.6181 0.69881 0.87574 0.0
C4276 C 0.62916 0.70772 0.87069 0.0
C4277 C 0.60421 0.70069 0.87081 0.0
C4278 C 0.60141 0.7112 0.85997 0.0
C4279 C 0.61208 0.72106 0.85499 0.0
C4280 C 0.6262 0.71887 0.86035 0.0
H4281 H 0.56236 0.37069 0.14112 0.0
H4282 H 0.52564 0.3435 0.13459 0.0
H4283 H 0.53275 0.38153 0.10704 0.0
C4284 C 0.5527 0.36828 0.13503 0.0
C4285 C 0.54848 0.37763 0.1237 0.0
C4286 C 0.5446 0.35596 0.13883 0.0
C4287 C 0.53195 0.35286 0.13122 0.0
C4288 C 0.52726 0.36214 0.11978 0.0
C4289 C 0.53582 0.37443 0.11601 0.0
H4290 H 0.87583 0.30239 0.39872 0.0
H4291 H 0.89937 0.26218 0.39295 0.0
H4292 H 0.85363 0.26255 0.38874 0.0
C4293 C 0.876 0.29066 0.39684 0.0
C4294 C 0.86318 0.28338 0.39375 0.0
C4295 C 0.88911 0.28316 0.39687 0.0
C4296 C 0.88932 0.26804 0.39338 0.0
C4297 C 0.8765 0.26059 0.39015 0.0
C4298 C 0.86355 0.26833 0.39072 0.0
H4299 H 0.93046 0.60657 0.61362 0.0
H4300 H 0.95272 0.63497 0.58341 0.0
H4301 H 0.9755 0.60165 0.60631 0.0
C4302 C 0.94 0.6099 0.60787 0.0
C4303 C 0.95269 0.60184 0.61011 0.0
C4304 C 0.93977 0.62234 0.59864 0.0
C4305 C 0.95241 0.62595 0.5911 0.0
C4306 C 0.96533 0.61908 0.5944 0.0
C4307 C 0.96542 0.6068 0.60358 0.0
H4308 H 0.6204 0.31367 0.62028 0.0
H4309 H 0.59049 0.29204 0.64767 0.0
H4310 H 0.63467 0.27771 0.64669 0.0
C4311 C 0.61807 0.30495 0.62802 0.0
C4312 C 0.62908 0.29599 0.63307 0.0
C4313 C 0.60416 0.3031 0.6329 0.0
C4314 C 0.60128 0.29255 0.6437 0.0
C4315 C 0.6119 0.28264 0.64868 0.0
C4316 C 0.62604 0.28481 0.64337 0.0
H4317 H 0.93003 0.39742 0.88987 0.0
H4318 H 0.95189 0.3694 0.92066 0.0
H4319 H 0.97497 0.4026 0.89781 0.0
C4320 C 0.93952 0.39422 0.89578 0.0
C4321 C 0.95222 0.40232 0.89369 0.0
C4322 C 0.93921 0.38186 0.90512 0.0
C4323 C 0.95171 0.37839 0.91292 0.0
C4324 C 0.96465 0.38527 0.90974 0.0
C4325 C 0.96486 0.39746 0.90044 0.0
H4326 H 0.87577 0.70141 0.10501 0.0
H4327 H 0.89934 0.74163 0.11076 0.0
H4328 H 0.8536 0.74124 0.11498 0.0
C4329 C 0.87594 0.71314 0.10688 0.0
C4330 C 0.86314 0.72042 0.10998 0.0
C4331 C 0.88907 0.72065 0.10684 0.0
C4332 C 0.88929 0.73577 0.11034 0.0
C4333 C 0.87646 0.74321 0.11357 0.0
C4334 C 0.86352 0.73546 0.113 0.0
H4335 H 0.56244 0.63169 0.3631 0.0
H4336 H 0.52664 0.66009 0.36971 0.0
H4337 H 0.53159 0.62118 0.39634 0.0
C4338 C 0.55274 0.6343 0.36903 0.0
C4339 C 0.54809 0.62499 0.38025 0.0
C4340 C 0.54507 0.64688 0.3652 0.0
C4341 C 0.53255 0.65037 0.37282 0.0
C4342 C 0.52746 0.64111 0.38407 0.0
C4343 C 0.53529 0.62834 0.38765 0.0
H4344 H 0.87895 0.60118 0.67758 0.0
H4345 H 0.8792 0.59083 0.72346 0.0
H4346 H 0.85135 0.62468 0.70685 0.0
C4347 C 0.87481 0.60303 0.68852 0.0
C4348 C 0.86423 0.61367 0.69075 0.0
C4349 C 0.88036 0.59489 0.70021 0.0
C4350 C 0.87509 0.59729 0.71443 0.0
C4351 C 0.86459 0.60805 0.717 0.0
C4352 C 0.85923 0.61619 0.70504 0.0
H4353 H 0.62578 0.64876 0.95138 0.0
H4354 H 0.6493 0.643 0.99161 0.0
H4355 H 0.60356 0.63878 0.99121 0.0
C4356 C 0.62594 0.64689 0.96311 0.0
C4357 C 0.61312 0.64379 0.97039 0.0
C4358 C 0.63905 0.64691 0.97063 0.0
C4359 C 0.63926 0.64342 0.98575 0.0
C4360 C 0.62643 0.6402 0.99319 0.0
C4361 C 0.61348 0.64077 0.98543 0.0
H4362 H 0.6418 0.37562 0.16678 0.0
H4363 H 0.66284 0.37078 0.20819 0.0
H4364 H 0.66576 0.41155 0.18438 0.0
C4365 C 0.64852 0.38018 0.1753 0.0
C4366 C 0.65294 0.39483 0.17436 0.0
C4367 C 0.65223 0.37144 0.18738 0.0
C4368 C 0.66085 0.37733 0.19851 0.0
C4369 C 0.66579 0.39193 0.19768 0.0
C4370 C 0.66214 0.40034 0.18522 0.0
H4371 H 0.87043 0.37035 0.44006 0.0
H4372 H 0.84048 0.39751 0.46181 0.0
H4373 H 0.88472 0.39671 0.47602 0.0
C4374 C 0.8681 0.37806 0.4488 0.0
C4375 C 0.87911 0.38311 0.45775 0.0
C4376 C 0.85418 0.38289 0.45068 0.0
C4377 C 0.85129 0.39362 0.46126 0.0
C4378 C 0.86192 0.39864 0.47116 0.0
C4379 C 0.87607 0.39338 0.46894 0.0
H4380 H 0.87886 0.40274 0.82608 0.0
H4381 H 0.87924 0.41292 0.78016 0.0
H4382 H 0.85125 0.37918 0.79685 0.0
C4383 C 0.87474 0.40085 0.81514 0.0
C4384 C 0.86412 0.39024 0.81293 0.0
C4385 C 0.88035 0.40893 0.80343 0.0
C4386 C 0.8751 0.40649 0.78921 0.0
C4387 C 0.86456 0.39575 0.78666 0.0
C4388 C 0.85915 0.38767 0.79864 0.0
H4389 H 0.87045 0.63342 0.06363 0.0
H4390 H 0.84048 0.60624 0.0419 0.0
H4391 H 0.88469 0.60713 0.02761 0.0
C4392 C 0.86811 0.62572 0.05489 0.0
C4393 C 0.87911 0.62069 0.04592 0.0
C4394 C 0.85419 0.62088 0.05303 0.0
C4395 C 0.85128 0.61015 0.04244 0.0
C4396 C 0.86189 0.60517 0.03252 0.0
C4397 C 0.87606 0.61043 0.03471 0.0
H4398 H 0.64178 0.628 0.33692 0.0
H4399 H 0.66286 0.63286 0.29553 0.0
H4400 H 0.66568 0.59206 0.31931 0.0
C4401 C 0.6485 0.62344 0.3284 0.0
C4402 C 0.65289 0.60879 0.32934 0.0
C4403 C 0.65223 0.63219 0.31633 0.0
C4404 C 0.66085 0.6263 0.30521 0.0
C4405 C 0.66576 0.61169 0.30602 0.0
C4406 C 0.66208 0.60328 0.31847 0.0
H4407 H 0.62576 0.35506 0.55237 0.0
H4408 H 0.64932 0.3608 0.51214 0.0
H4409 H 0.60358 0.36504 0.51253 0.0
C4410 C 0.62594 0.35693 0.54064 0.0
C4411 C 0.61313 0.36004 0.53335 0.0
C4412 C 0.63905 0.35689 0.53313 0.0
C4413 C 0.63927 0.36038 0.518 0.0
C4414 C 0.62645 0.36362 0.51056 0.0
C4415 C 0.6135 0.36305 0.51831 0.0
H4416 H 0.68088 0.86397 0.64556 0.0
H4417 H 0.70173 0.83213 0.61802 0.0
H4418 H 0.72608 0.85702 0.64882 0.0
C4419 C 0.69028 0.85797 0.64227 0.0
C4420 C 0.70333 0.86102 0.64926 0.0
C4421 C 0.68947 0.84786 0.63065 0.0
C4422 C 0.70191 0.84013 0.62679 0.0
C4423 C 0.71512 0.84372 0.63296 0.0
C4424 C 0.71577 0.8539 0.64442 0.0
H4425 H 0.18076 0.63998 0.35824 0.0
H4426 H 0.2019 0.67174 0.38569 0.0
H4427 H 0.22602 0.64655 0.35499 0.0
C4428 C 0.1902 0.64592 0.36153 0.0
C4429 C 0.20323 0.6428 0.35451 0.0
C4430 C 0.18948 0.65604 0.37316 0.0
C4431 C 0.20199 0.66371 0.37696 0.0
C4432 C 0.21517 0.65996 0.37084 0.0
C4433 C 0.21573 0.64979 0.35937 0.0
H4434 H 0.63096 0.92753 0.65638 0.0
H4435 H 0.62917 0.97317 0.66749 0.0
H4436 H 0.60268 0.95633 0.63293 0.0
C4437 C 0.62637 0.93825 0.65456 0.0
C4438 C 0.6162 0.94028 0.64345 0.0
C4439 C 0.63094 0.94992 0.66339 0.0
C4440 C 0.62556 0.9641 0.66078 0.0
C4441 C 0.61549 0.96654 0.64956 0.0
C4442 C 0.61062 0.95448 0.64131 0.0
H4443 H 0.31223 0.39099 0.88314 0.0
H4444 H 0.27544 0.38449 0.91023 0.0
H4445 H 0.28251 0.35704 0.87216 0.0
C4446 C 0.30254 0.38491 0.88551 0.0
C4447 C 0.2983 0.37363 0.87613 0.0
C4448 C 0.29444 0.3887 0.89783 0.0
C4449 C 0.28175 0.38113 0.90087 0.0
C4450 C 0.27703 0.36973 0.89157 0.0
C4451 C 0.28559 0.36598 0.87929 0.0
H4452 H 0.39176 0.58693 0.62558 0.0
H4453 H 0.41276 0.54551 0.62077 0.0
H4454 H 0.41568 0.56929 0.66152 0.0
C4455 C 0.39846 0.57839 0.63015 0.0
C4456 C 0.40287 0.57933 0.64479 0.0
C4457 C 0.40216 0.56632 0.62141 0.0
C4458 C 0.41077 0.55518 0.62732 0.0
C4459 C 0.41571 0.556 0.64191 0.0
C4460 C 0.41206 0.56846 0.65031 0.0
H4461 H 0.81243 0.11264 0.12051 0.0
H4462 H 0.77574 0.11921 0.09332 0.0
H4463 H 0.78274 0.1466 0.13144 0.0
C4464 C 0.80276 0.11872 0.11812 0.0
C4465 C 0.7985 0.12999 0.12751 0.0
C4466 C 0.79469 0.11496 0.10576 0.0
C4467 C 0.78202 0.12255 0.1027 0.0
C4468 C 0.77729 0.13393 0.11202 0.0
C4469 C 0.78583 0.13766 0.12432 0.0
H4470 H 0.63045 0.07591 0.85057 0.0
H4471 H 0.62954 0.03006 0.84051 0.0
H4472 H 0.60018 0.04778 0.87213 0.0
C4473 C 0.62565 0.06524 0.85222 0.0
C4474 C 0.61449 0.0635 0.86228 0.0
C4475 C 0.63104 0.05333 0.84432 0.0
C4476 C 0.62535 0.03927 0.84665 0.0
C4477 C 0.61431 0.03711 0.85689 0.0
C4478 C 0.60873 0.04937 0.86434 0.0
H4479 H 0.8915 0.9168 0.37789 0.0
H4480 H 0.91234 0.95833 0.38278 0.0
H4481 H 0.91567 0.93447 0.34211 0.0
C4482 C 0.8982 0.92536 0.37335 0.0
C4483 C 0.90273 0.92442 0.35874 0.0
C4484 C 0.90178 0.93747 0.3821 0.0
C4485 C 0.91042 0.94863 0.37624 0.0
C4486 C 0.9155 0.94779 0.36169 0.0
C4487 C 0.91195 0.93531 0.35329 0.0
H4488 H 0.37491 0.30015 0.09891 0.0
H4489 H 0.39794 0.25957 0.105 0.0
H4490 H 0.35228 0.26067 0.10926 0.0
C4491 C 0.37499 0.28843 0.10087 0.0
C4492 C 0.3621 0.2813 0.10404 0.0
C4493 C 0.38805 0.28076 0.10099 0.0
C4494 C 0.38801 0.26562 0.10452 0.0
C4495 C 0.37508 0.25841 0.10777 0.0
C4496 C 0.36227 0.2663 0.10715 0.0
H4497 H 0.4325 0.60395 0.88268 0.0
H4498 H 0.45253 0.6318 0.91463 0.0
H4499 H 0.47663 0.5977 0.89393 0.0
C4500 C 0.44167 0.60695 0.88921 0.0
C4501 C 0.45427 0.59856 0.88816 0.0
C4502 C 0.44104 0.61941 0.89827 0.0
C4503 C 0.45296 0.62273 0.907 0.0
C4504 C 0.46605 0.61565 0.90484 0.0
C4505 C 0.46655 0.60322 0.89576 0.0
H4506 H 0.11813 0.69543 0.6139 0.0
H4507 H 0.0904 0.72297 0.63895 0.0
H4508 H 0.13609 0.72673 0.64383 0.0
C4509 C 0.1167 0.70422 0.62175 0.0
C4510 C 0.12868 0.71096 0.62793 0.0
C4511 C 0.10293 0.70835 0.62582 0.0
C4512 C 0.10112 0.71934 0.63641 0.0
C4513 C 0.11295 0.72611 0.64316 0.0
C4514 C 0.1268 0.7217 0.63889 0.0
H4515 H 0.0601 0.37123 0.35474 0.0
H4516 H 0.02304 0.34475 0.36262 0.0
H4517 H 0.03092 0.3834 0.38878 0.0
C4518 C 0.05045 0.36917 0.36096 0.0
C4519 C 0.04639 0.379 0.37197 0.0
C4520 C 0.04224 0.35669 0.35776 0.0
C4521 C 0.02952 0.35415 0.36551 0.0
C4522 C 0.02502 0.36395 0.37655 0.0
C4523 C 0.03381 0.37612 0.3799 0.0
H4524 H 0.37313 0.70491 0.40566 0.0
H4525 H 0.39624 0.74543 0.39954 0.0
H4526 H 0.35072 0.74401 0.39366 0.0
C4527 C 0.37323 0.71659 0.40348 0.0
C4528 C 0.36045 0.72357 0.39972 0.0
C4529 C 0.38623 0.72432 0.40369 0.0
C4530 C 0.3863 0.73937 0.39981 0.0
C4531 C 0.37347 0.74646 0.3959 0.0
C4532 C 0.36066 0.7385 0.39623 0.0
H4533 H 0.06003 0.63312 0.14906 0.0
H4534 H 0.02305 0.65969 0.14117 0.0
H4535 H 0.03092 0.62113 0.1149 0.0
C4536 C 0.05041 0.63522 0.14282 0.0
C4537 C 0.04636 0.62544 0.13176 0.0
C4538 C 0.04221 0.6477 0.14605 0.0
C4539 C 0.02951 0.65029 0.13828 0.0
C4540 C 0.02501 0.6405 0.12722 0.0
C4541 C 0.03381 0.62837 0.12382 0.0
H4542 H 0.11703 0.30869 0.89154 0.0
H4543 H 0.08932 0.28299 0.86427 0.0
H4544 H 0.13486 0.27736 0.86157 0.0
C4545 C 0.11559 0.30009 0.88348 0.0
C4546 C 0.12757 0.2933 0.87736 0.0
C4547 C 0.10181 0.29641 0.8789 0.0
C4548 C 0.09998 0.28587 0.86786 0.0
C4549 C 0.11181 0.279 0.86141 0.0
C4550 C 0.12563 0.28281 0.86621 0.0
H4551 H 0.43252 0.39984 0.62104 0.0
H4552 H 0.45255 0.372 0.58909 0.0
H4553 H 0.47666 0.4061 0.60982 0.0
C4554 C 0.44169 0.39684 0.61451 0.0
C4555 C 0.4543 0.40524 0.61558 0.0
C4556 C 0.44105 0.38439 0.60545 0.0
C4557 C 0.45298 0.38107 0.59673 0.0
C4558 C 0.46608 0.38815 0.59891 0.0
C4559 C 0.46657 0.40058 0.60798 0.0
H4560 H 0.13743 0.37619 0.33278 0.0
H4561 H 0.16485 0.41 0.3158 0.0
H4562 H 0.16016 0.36926 0.29276 0.0
C4563 C 0.14468 0.38034 0.32453 0.0
C4564 C 0.14855 0.37105 0.31289 0.0
C4565 C 0.15004 0.39475 0.32552 0.0
C4566 C 0.16026 0.39921 0.31507 0.0
C4567 C 0.16401 0.39032 0.30302 0.0
C4568 C 0.15806 0.37616 0.30216 0.0
H4569 H 0.36815 0.36394 0.05832 0.0
H4570 H 0.34035 0.38897 0.03081 0.0
H4571 H 0.38603 0.39394 0.02699 0.0
C4572 C 0.36669 0.37179 0.04952 0.0
C4573 C 0.37866 0.378 0.04277 0.0
C4574 C 0.35292 0.37586 0.04542 0.0
C4575 C 0.35108 0.38645 0.03442 0.0
C4576 C 0.36289 0.39322 0.02763 0.0
C4577 C 0.37675 0.38897 0.03204 0.0
H4578 H 0.38371 0.59653 0.82209 0.0
H4579 H 0.38435 0.5921 0.77529 0.0
H4580 H 0.35958 0.6264 0.79551 0.0
C4581 C 0.38039 0.60045 0.81141 0.0
C4582 C 0.37111 0.61238 0.81041 0.0
C4583 C 0.3857 0.59359 0.79885 0.0
C4584 C 0.38062 0.59782 0.78496 0.0
C4585 C 0.37077 0.60944 0.78365 0.0
C4586 C 0.36634 0.61682 0.79647 0.0
H4587 H 0.12485 0.65498 0.54972 0.0
H4588 H 0.14784 0.64831 0.5092 0.0
H4589 H 0.10215 0.64423 0.51044 0.0
C4590 C 0.12493 0.6529 0.53803 0.0
C4591 C 0.11202 0.64967 0.53098 0.0
C4592 C 0.13799 0.65265 0.53035 0.0
C4593 C 0.13791 0.64891 0.51525 0.0
C4594 C 0.12496 0.64559 0.50809 0.0
C4595 C 0.11216 0.64637 0.51601 0.0
H4596 H 0.136 0.62617 0.17158 0.0
H4597 H 0.15889 0.59065 0.19213 0.0
H4598 H 0.15983 0.63366 0.2111 0.0
C4599 C 0.14281 0.62205 0.18024 0.0
C4600 C 0.14728 0.63164 0.1914 0.0
C4601 C 0.147 0.60722 0.18024 0.0
C4602 C 0.15594 0.60212 0.19155 0.0
C4603 C 0.16078 0.61166 0.20251 0.0
C4604 C 0.15652 0.62642 0.20231 0.0
H4605 H 0.12483 0.34889 0.95376 0.0
H4606 H 0.148 0.35512 0.99426 0.0
H4607 H 0.10234 0.35936 0.99326 0.0
C4608 C 0.12496 0.35088 0.96547 0.0
C4609 C 0.1121 0.35409 0.97262 0.0
C4610 C 0.13805 0.35103 0.97311 0.0
C4611 C 0.13805 0.35461 0.98823 0.0
C4612 C 0.12515 0.35789 0.99547 0.0
C4613 C 0.11232 0.35723 0.98762 0.0
H4614 H 0.38371 0.40725 0.68165 0.0
H4615 H 0.38433 0.41171 0.72844 0.0
H4616 H 0.35956 0.37738 0.70824 0.0
C4617 C 0.38038 0.40333 0.69233 0.0
C4618 C 0.3711 0.39139 0.69333 0.0
C4619 C 0.38569 0.41021 0.70489 0.0
C4620 C 0.3806 0.40598 0.71877 0.0
C4621 C 0.37074 0.39435 0.72009 0.0
C4622 C 0.36633 0.38696 0.70728 0.0
H4623 H 0.36968 0.6393 0.44446 0.0
H4624 H 0.34165 0.61526 0.47266 0.0
H4625 H 0.38721 0.60927 0.47603 0.0
C4626 C 0.36816 0.63157 0.45337 0.0
C4627 C 0.38007 0.62514 0.46004 0.0
C4628 C 0.35433 0.62789 0.4577 0.0
C4629 C 0.35239 0.61749 0.46886 0.0
C4630 C 0.3641 0.61052 0.47558 0.0
C4631 C 0.37801 0.61438 0.47098 0.0
H4632 H 0.31006 0.10468 0.38308 0.0
H4633 H 0.27308 0.11256 0.40967 0.0
H4634 H 0.28097 0.13886 0.37109 0.0
C4635 C 0.30044 0.11092 0.38519 0.0
C4636 C 0.29639 0.12198 0.37541 0.0
C4637 C 0.29224 0.10769 0.39767 0.0
C4638 C 0.27955 0.11545 0.40027 0.0
C4639 C 0.27506 0.12652 0.39048 0.0
C4640 C 0.28385 0.12994 0.37834 0.0
H4641 H 0.80999 0.39916 0.62027 0.0
H4642 H 0.77286 0.3913 0.59392 0.0
H4643 H 0.78097 0.36493 0.6324 0.0
C4644 C 0.80036 0.39291 0.61822 0.0
C4645 C 0.79638 0.3818 0.62799 0.0
C4646 C 0.79208 0.39617 0.60581 0.0
C4647 C 0.77938 0.38839 0.60327 0.0
C4648 C 0.77495 0.37729 0.61307 0.0
C4649 C 0.78382 0.37386 0.62514 0.0
H4650 H 0.38599 0.08219 0.37613 0.0
H4651 H 0.4089 0.06168 0.34062 0.0
H4652 H 0.40986 0.0427 0.38366 0.0
C4653 C 0.39281 0.07354 0.37202 0.0
C4654 C 0.39728 0.06239 0.38162 0.0
C4655 C 0.397 0.07355 0.35719 0.0
C4656 C 0.40595 0.06225 0.3521 0.0
C4657 C 0.4108 0.0513 0.36164 0.0
C4658 C 0.40653 0.05149 0.37641 0.0
H4659 H 0.68251 0.63273 0.14981 0.0
H4660 H 0.70255 0.66469 0.12192 0.0
H4661 H 0.72665 0.64397 0.15604 0.0
C4662 C 0.69169 0.63926 0.1468 0.0
C4663 C 0.70429 0.6382 0.15519 0.0
C4664 C 0.69106 0.64833 0.13433 0.0
C4665 C 0.70298 0.65705 0.131 0.0
C4666 C 0.71608 0.65489 0.13808 0.0
C4667 C 0.71657 0.64581 0.15052 0.0
H4668 H 0.63376 0.43137 0.34635 0.0
H4669 H 0.63451 0.47819 0.34202 0.0
H4670 H 0.60969 0.45791 0.37628 0.0
C4671 C 0.63045 0.44205 0.35029 0.0
C4672 C 0.62116 0.44303 0.36221 0.0
C4673 C 0.6358 0.45463 0.34345 0.0
C4674 C 0.63075 0.46851 0.34772 0.0
C4675 C 0.6209 0.46979 0.35935 0.0
C4676 C 0.61644 0.45696 0.36669 0.0
H4677 H 0.18253 0.87106 0.85394 0.0
H4678 H 0.20255 0.83907 0.88179 0.0
H4679 H 0.22665 0.85983 0.84767 0.0
C4680 C 0.1917 0.86452 0.85694 0.0
C4681 C 0.2043 0.86559 0.84853 0.0
C4682 C 0.19106 0.85545 0.8694 0.0
C4683 C 0.20298 0.84672 0.87271 0.0
C4684 C 0.21607 0.8489 0.86563 0.0
C4685 C 0.21657 0.85798 0.8532 0.0
H4686 H 0.38737 0.92083 0.12581 0.0
H4687 H 0.41404 0.93758 0.16019 0.0
H4688 H 0.41053 0.96076 0.11918 0.0
C4689 C 0.39471 0.92903 0.12992 0.0
C4690 C 0.3988 0.94067 0.12073 0.0
C4691 C 0.39984 0.92801 0.14436 0.0
C4692 C 0.40989 0.93843 0.14918 0.0
C4693 C 0.41385 0.95049 0.14037 0.0
C4694 C 0.40826 0.95135 0.12604 0.0
H4695 H 0.13352 0.07212 0.65718 0.0
H4696 H 0.13424 0.02531 0.66151 0.0
H4697 H 0.10942 0.04558 0.62725 0.0
C4698 C 0.1302 0.06144 0.65324 0.0
C4699 C 0.12093 0.06046 0.64131 0.0
C4700 C 0.13555 0.04887 0.66006 0.0
C4701 C 0.13048 0.03499 0.6558 0.0
C4702 C 0.12063 0.03369 0.64418 0.0
C4703 C 0.11618 0.04652 0.63683 0.0
loop_
_geom_bond_atom_site_label_1
_geom_bond_atom_site_label_2
_geom_bond_distance
_geom_bond_site_symmetry_2
_ccdc_geom_bond_type
C0 C1 1.264 . S
C0 C5 1.479 . S
C0 C10 1.465 . S
C1 C0 1.264 . S
C1 C3 1.339 . S
C1 H28 0.931 . S
C2 C3 1.395 . S
C2 C4 1.320 . S
C3 C1 1.339 . S
C3 C2 1.395 . S
C3 H29 0.929 . S
C4 C2 1.320 . S
C4 C5 1.405 . S
C4 H30 0.930 . S
C5 C0 1.479 . S
C5 C4 1.405 . S
C5 H31 0.931 . S
U6 O7 2.454 . S
U6 O8 2.458 . S
U6 C9 2.984 . S
U6 C10 2.847 . S
U6 C23 2.882 . S
U6 O24 2.441 . S
U6 O25 2.420 . S
U6 O26 2.455 . S
U6 O27 2.449 . S
O7 U6 2.454 . S
O7 C9 1.353 . S
O8 U6 2.458 . S
O8 C9 1.286 . S
C9 U6 2.984 . S
C9 O7 1.353 . S
C9 O8 1.286 . S
C9 C11 1.363 . S
C10 C0 1.465 . S
C10 U6 2.847 . S
C10 O24 1.249 . S
C10 O25 1.202 . S
C11 C9 1.363 . S
C11 C13 1.408 1_455 S
C11 C16 1.342 1_455 S
C12 C13 1.310 . S
C12 C15 1.461 . S
C12 H32 0.932 . S
C13 C11 1.408 1_655 S
C13 C12 1.310 . S
C13 H33 0.930 1_655 S
C14 C15 1.474 . S
C14 C16 1.285 . S
C14 H34 0.929 . S
C15 C12 1.461 . S
C15 C14 1.474 . S
C16 C11 1.342 1_655 S
C16 C14 1.285 . S
C16 H35 0.920 1_655 S
C17 C20 1.424 . S
C17 C22 1.245 . S
C17 C23 1.428 . S
C18 C21 1.260 . S
C18 C22 1.477 . S
C18 H36 0.932 . S
C19 C20 1.384 . S
C19 C21 1.479 . S
C19 H37 0.929 . S
C20 C17 1.424 . S
C20 C19 1.384 . S
C20 H38 0.928 . S
C21 C18 1.260 . S
C21 C19 1.479 . S
C22 C17 1.245 . S
C22 C18 1.477 . S
C22 H39 0.932 . S
C23 U6 2.882 . S
C23 C17 1.428 . S
C23 O26 1.301 . S
C23 O27 1.282 . S
O24 U6 2.441 . S
O24 C10 1.249 . S
O25 U6 2.420 . S
O25 C10 1.202 . S
O26 U6 2.455 . S
O26 C23 1.301 . S
O27 U6 2.449 . S
O27 C23 1.282 . S
H28 C1 0.931 . S
H29 C3 0.929 . S
H30 C4 0.930 . S
H31 C5 0.931 . S
H32 C12 0.932 . S
H33 C13 0.930 1_455 S
H34 C14 0.929 . S
H35 C16 0.920 1_455 S
H36 C18 0.932 . S
H37 C19 0.929 . S
H38 C20 0.928 . S
H39 C22 0.932 . S
C40 C41 1.264 . S
C40 C45 1.479 . S
C40 C50 1.465 . S
C41 C40 1.264 . S
C41 C43 1.339 . S
C41 H68 0.931 . S
C42 C43 1.395 . S
C42 C44 1.320 . S
C43 C41 1.339 . S
C43 C42 1.395 . S
C43 H69 0.929 . S
C44 C42 1.320 . S
C44 C45 1.405 . S
C44 H70 0.930 . S
C45 C40 1.479 . S
C45 C44 1.405 . S
C45 H71 0.931 . S
U46 O47 2.454 . S
U46 O48 2.458 . S
U46 C49 2.984 . S
U46 C50 2.847 . S
U46 C63 2.882 . S
U46 O64 2.441 . S
U46 O65 2.420 . S
U46 O66 2.455 . S
U46 O67 2.449 . S
O47 U46 2.454 . S
O47 C49 1.353 . S
O48 U46 2.458 . S
O48 C49 1.286 . S
C49 U46 2.984 . S
C49 O47 1.353 . S
C49 O48 1.286 . S
C49 C51 1.363 . S
C50 C40 1.465 . S
C50 U46 2.847 . S
C50 O64 1.249 . S
C50 O65 1.202 . S
C51 C49 1.363 . S
C51 C53 1.408 . S
C51 C56 1.342 . S
C52 C53 1.310 . S
C52 C55 1.461 . S
C52 H72 0.932 . S
C53 C51 1.408 . S
C53 C52 1.310 . S
C53 H73 0.930 . S
C54 C55 1.474 . S
C54 C56 1.285 . S
C54 H74 0.929 . S
C55 C52 1.461 . S
C55 C54 1.474 . S
C56 C51 1.342 . S
C56 C54 1.285 . S
C56 H75 0.930 . S
C57 C60 1.424 . S
C57 C62 1.245 . S
C57 C63 1.428 . S
C58 C61 1.260 . S
C58 C62 1.477 . S
C58 H76 0.932 . S
C59 C60 1.384 . S
C59 C61 1.479 . S
C59 H77 0.929 . S
C60 C57 1.424 . S
C60 C59 1.384 . S
C60 H78 0.928 . S
C61 C58 1.260 . S
C61 C59 1.479 . S
C62 C57 1.245 . S
C62 C58 1.477 . S
C62 H79 0.932 . S
C63 U46 2.882 . S
C63 C57 1.428 . S
C63 O66 1.301 . S
C63 O67 1.282 . S
O64 U46 2.441 . S
O64 C50 1.249 . S
O65 U46 2.420 . S
O65 C50 1.202 . S
O66 U46 2.455 . S
O66 C63 1.301 . S
O67 U46 2.449 . S
O67 C63 1.282 . S
H68 C41 0.931 . S
H69 C43 0.929 . S
H70 C44 0.930 . S
H71 C45 0.931 . S
H72 C52 0.932 . S
H73 C53 0.930 . S
H74 C54 0.929 . S
H75 C56 0.930 . S
H76 C58 0.932 . S
H77 C59 0.929 . S
H78 C60 0.928 . S
H79 C62 0.932 . S
C80 C81 1.264 . S
C80 C85 1.479 . S
C80 C90 1.465 . S
C81 C80 1.264 . S
C81 C83 1.339 . S
C81 H108 0.931 . S
C82 C83 1.395 . S
C82 C84 1.320 . S
C83 C81 1.339 . S
C83 C82 1.395 . S
C83 H109 0.929 . S
C84 C82 1.320 . S
C84 C85 1.405 . S
C84 H110 0.930 . S
C85 C80 1.479 . S
C85 C84 1.405 . S
C85 H111 0.931 . S
U86 O87 2.454 . S
U86 O88 2.458 . S
U86 C89 2.984 . S
U86 C90 2.847 . S
U86 C103 2.882 . S
U86 O104 2.441 . S
U86 O105 2.420 . S
U86 O106 2.455 . S
U86 O107 2.449 . S
O87 U86 2.454 . S
O87 C89 1.353 . S
O88 U86 2.458 . S
O88 C89 1.286 . S
C89 U86 2.984 . S
C89 O87 1.353 . S
C89 O88 1.286 . S
C89 C91 1.363 . S
C90 C80 1.465 . S
C90 U86 2.847 . S
C90 O104 1.249 . S
C90 O105 1.202 . S
C91 C89 1.363 . S
C91 C93 1.408 . S
C91 C96 1.342 . S
C92 C93 1.310 . S
C92 C95 1.461 . S
C92 H112 0.932 . S
C93 C91 1.408 . S
C93 C92 1.310 . S
C93 H113 0.930 . S
C94 C95 1.474 . S
C94 C96 1.285 . S
C94 H114 0.929 . S
C95 C92 1.461 . S
C95 C94 1.474 . S
C96 C91 1.342 . S
C96 C94 1.285 . S
C96 H115 0.930 . S
C97 C100 1.424 . S
C97 C102 1.245 . S
C97 C103 1.428 . S
C98 C101 1.260 . S
C98 C102 1.477 . S
C98 H116 0.932 . S
C99 C100 1.384 . S
C99 C101 1.479 . S
C99 H117 0.929 . S
C100 C97 1.424 . S
C100 C99 1.384 . S
C100 H118 0.928 . S
C101 C98 1.260 . S
C101 C99 1.479 . S
C102 C97 1.245 . S
C102 C98 1.477 . S
C102 H119 0.932 . S
C103 U86 2.882 . S
C103 C97 1.428 . S
C103 O106 1.301 . S
C103 O107 1.282 . S
O104 U86 2.441 . S
O104 C90 1.249 . S
O105 U86 2.420 . S
O105 C90 1.202 . S
O106 U86 2.455 . S
O106 C103 1.301 . S
O107 U86 2.449 . S
O107 C103 1.282 . S
H108 C81 0.931 . S
H109 C83 0.929 . S
H110 C84 0.930 . S
H111 C85 0.931 . S
H112 C92 0.932 . S
H113 C93 0.930 . S
H114 C94 0.929 . S
H115 C96 0.930 . S
H116 C98 0.932 . S
H117 C99 0.929 . S
H118 C100 0.928 . S
H119 C102 0.932 . S
C120 C121 1.264 . S
C120 C125 1.479 . S
C120 C130 1.465 . S
C121 C120 1.264 . S
C121 C123 1.339 . S
C121 H148 0.931 . S
C122 C123 1.395 . S
C122 C124 1.320 . S
C123 C121 1.339 . S
C123 C122 1.395 . S
C123 H149 0.929 . S
C124 C122 1.320 . S
C124 C125 1.405 . S
C124 H150 0.930 . S
C125 C120 1.479 . S
C125 C124 1.405 . S
C125 H151 0.931 . S
U126 O127 2.454 . S
U126 O128 2.458 . S
U126 C129 2.984 . S
U126 C130 2.847 . S
U126 C143 2.882 . S
U126 O144 2.441 . S
U126 O145 2.420 . S
U126 O146 2.455 . S
U126 O147 2.449 . S
O127 U126 2.454 . S
O127 C129 1.353 . S
O128 U126 2.458 . S
O128 C129 1.286 . S
C129 U126 2.984 . S
C129 O127 1.353 . S
C129 O128 1.286 . S
C129 C131 1.363 . S
C130 C120 1.465 . S
C130 U126 2.847 . S
C130 O144 1.249 . S
C130 O145 1.202 . S
C131 C129 1.363 . S
C131 C133 1.408 . S
C131 C136 1.342 . S
C132 C133 1.310 . S
C132 C135 1.461 . S
C132 H152 0.932 . S
C133 C131 1.408 . S
C133 C132 1.310 . S
C133 H153 0.930 . S
C134 C135 1.474 . S
C134 C136 1.285 . S
C134 H154 0.929 . S
C135 C132 1.461 . S
C135 C134 1.474 . S
C136 C131 1.342 . S
C136 C134 1.285 . S
C136 H155 0.930 . S
C137 C140 1.424 . S
C137 C142 1.245 . S
C137 C143 1.428 . S
C138 C141 1.260 . S
C138 C142 1.477 . S
C138 H156 0.932 . S
C139 C140 1.384 . S
C139 C141 1.479 . S
C139 H157 0.929 . S
C140 C137 1.424 . S
C140 C139 1.384 . S
C140 H158 0.928 . S
C141 C138 1.260 . S
C141 C139 1.479 . S
C142 C137 1.245 . S
C142 C138 1.477 . S
C142 H159 0.932 . S
C143 U126 2.882 . S
C143 C137 1.428 . S
C143 O146 1.301 . S
C143 O147 1.282 . S
O144 U126 2.441 . S
O144 C130 1.249 . S
O145 U126 2.420 . S
O145 C130 1.202 . S
O146 U126 2.455 . S
O146 C143 1.301 . S
O147 U126 2.449 . S
O147 C143 1.282 . S
H148 C121 0.931 . S
H149 C123 0.929 . S
H150 C124 0.930 . S
H151 C125 0.931 . S
H152 C132 0.932 . S
H153 C133 0.930 . S
H154 C134 0.929 . S
H155 C136 0.930 . S
H156 C138 0.932 . S
H157 C139 0.929 . S
H158 C140 0.928 . S
H159 C142 0.932 . S
C160 C161 1.264 . S
C160 C165 1.479 . S
C160 C170 1.465 . S
C161 C160 1.264 . S
C161 C163 1.339 . S
C161 H188 0.931 . S
C162 C163 1.395 . S
C162 C164 1.320 . S
C163 C161 1.339 . S
C163 C162 1.395 . S
C163 H189 0.929 . S
C164 C162 1.320 . S
C164 C165 1.405 . S
C164 H190 0.930 . S
C165 C160 1.479 . S
C165 C164 1.405 . S
C165 H191 0.931 . S
U166 O167 2.454 . S
U166 O168 2.458 . S
U166 C169 2.984 . S
U166 C170 2.847 . S
U166 C183 2.882 . S
U166 O184 2.441 . S
U166 O185 2.420 . S
U166 O186 2.455 . S
U166 O187 2.449 . S
O167 U166 2.454 . S
O167 C169 1.353 . S
O168 U166 2.458 . S
O168 C169 1.286 . S
C169 U166 2.984 . S
C169 O167 1.353 . S
C169 O168 1.286 . S
C169 C171 1.363 . S
C170 C160 1.465 . S
C170 U166 2.847 . S
C170 O184 1.249 . S
C170 O185 1.202 . S
C171 C169 1.363 . S
C171 C173 1.408 1_455 S
C171 C176 1.342 1_455 S
C172 C173 1.310 . S
C172 C175 1.461 . S
C172 H192 0.932 . S
C173 C171 1.408 1_655 S
C173 C172 1.310 . S
C173 H193 0.930 1_655 S
C174 C175 1.474 . S
C174 C176 1.285 . S
C174 H194 0.929 . S
C175 C172 1.461 . S
C175 C174 1.474 . S
C176 C171 1.342 1_655 S
C176 C174 1.285 . S
C176 H195 0.920 1_655 S
C177 C180 1.424 . S
C177 C182 1.245 . S
C177 C183 1.428 . S
C178 C181 1.260 . S
C178 C182 1.477 . S
C178 H196 0.932 . S
C179 C180 1.384 . S
C179 C181 1.479 . S
C179 H197 0.929 . S
C180 C177 1.424 . S
C180 C179 1.384 . S
C180 H198 0.928 . S
C181 C178 1.260 . S
C181 C179 1.479 . S
C182 C177 1.245 . S
C182 C178 1.477 . S
C182 H199 0.932 . S
C183 U166 2.882 . S
C183 C177 1.428 . S
C183 O186 1.301 . S
C183 O187 1.282 . S
O184 U166 2.441 . S
O184 C170 1.249 . S
O185 U166 2.420 . S
O185 C170 1.202 . S
O186 U166 2.455 . S
O186 C183 1.301 . S
O187 U166 2.449 . S
O187 C183 1.282 . S
H188 C161 0.931 . S
H189 C163 0.929 . S
H190 C164 0.930 . S
H191 C165 0.931 . S
H192 C172 0.932 . S
H193 C173 0.930 1_455 S
H194 C174 0.929 . S
H195 C176 0.920 1_455 S
H196 C178 0.932 . S
H197 C179 0.929 . S
H198 C180 0.928 . S
H199 C182 0.932 . S
C200 C201 1.264 . S
C200 C205 1.479 . S
C200 C210 1.465 . S
C201 C200 1.264 . S
C201 C203 1.339 . S
C201 H228 0.931 . S
C202 C203 1.395 . S
C202 C204 1.320 . S
C203 C201 1.339 . S
C203 C202 1.395 . S
C203 H229 0.929 . S
C204 C202 1.320 . S
C204 C205 1.405 . S
C204 H230 0.930 . S
C205 C200 1.479 . S
C205 C204 1.405 . S
C205 H231 0.931 . S
U206 O207 2.454 . S
U206 O208 2.458 . S
U206 C209 2.984 . S
U206 C210 2.847 . S
U206 C223 2.882 . S
U206 O224 2.441 . S
U206 O225 2.420 . S
U206 O226 2.455 . S
U206 O227 2.449 . S
O207 U206 2.454 . S
O207 C209 1.353 . S
O208 U206 2.458 . S
O208 C209 1.286 . S
C209 U206 2.984 . S
C209 O207 1.353 . S
C209 O208 1.286 . S
C209 C211 1.363 . S
C210 C200 1.465 . S
C210 U206 2.847 . S
C210 O224 1.249 . S
C210 O225 1.202 . S
C211 C209 1.363 . S
C211 C213 1.408 . S
C211 C216 1.342 . S
C212 C213 1.310 . S
C212 C215 1.461 . S
C212 H232 0.932 . S
C213 C211 1.408 . S
C213 C212 1.310 . S
C213 H233 0.930 . S
C214 C215 1.474 . S
C214 C216 1.285 . S
C214 H234 0.929 . S
C215 C212 1.461 . S
C215 C214 1.474 . S
C216 C211 1.342 . S
C216 C214 1.285 . S
C216 H235 0.930 . S
C217 C220 1.424 . S
C217 C222 1.245 . S
C217 C223 1.428 . S
C218 C221 1.260 . S
C218 C222 1.477 . S
C218 H236 0.932 . S
C219 C220 1.384 . S
C219 C221 1.479 . S
C219 H237 0.929 . S
C220 C217 1.424 . S
C220 C219 1.384 . S
C220 H238 0.928 . S
C221 C218 1.260 . S
C221 C219 1.479 . S
C222 C217 1.245 . S
C222 C218 1.477 . S
C222 H239 0.932 . S
C223 U206 2.882 . S
C223 C217 1.428 . S
C223 O226 1.301 . S
C223 O227 1.282 . S
O224 U206 2.441 . S
O224 C210 1.249 . S
O225 U206 2.420 . S
O225 C210 1.202 . S
O226 U206 2.455 . S
O226 C223 1.301 . S
O227 U206 2.449 . S
O227 C223 1.282 . S
H228 C201 0.931 . S
H229 C203 0.929 . S
H230 C204 0.930 . S
H231 C205 0.931 . S
H232 C212 0.932 . S
H233 C213 0.930 . S
H234 C214 0.929 . S
H235 C216 0.930 . S
H236 C218 0.932 . S
H237 C219 0.929 . S
H238 C220 0.928 . S
H239 C222 0.932 . S
C240 C241 1.264 . S
C240 C245 1.479 . S
C240 C250 1.465 . S
C241 C240 1.264 . S
C241 C243 1.339 . S
C241 H268 0.931 . S
C242 C243 1.395 . S
C242 C244 1.320 . S
C243 C241 1.339 . S
C243 C242 1.395 . S
C243 H269 0.929 . S
C244 C242 1.320 . S
C244 C245 1.405 . S
C244 H270 0.930 . S
C245 C240 1.479 . S
C245 C244 1.405 . S
C245 H271 0.931 . S
U246 O247 2.454 . S
U246 O248 2.458 . S
U246 C249 2.984 . S
U246 C250 2.847 . S
U246 C263 2.882 . S
U246 O264 2.441 . S
U246 O265 2.420 . S
U246 O266 2.455 . S
U246 O267 2.449 . S
O247 U246 2.454 . S
O247 C249 1.353 . S
O248 U246 2.458 . S
O248 C249 1.286 . S
C249 U246 2.984 . S
C249 O247 1.353 . S
C249 O248 1.286 . S
C249 C251 1.363 . S
C250 C240 1.465 . S
C250 U246 2.847 . S
C250 O264 1.249 . S
C250 O265 1.202 . S
C251 C249 1.363 . S
C251 C253 1.408 . S
C251 C256 1.342 . S
C252 C253 1.310 . S
C252 C255 1.461 . S
C252 H272 0.932 . S
C253 C251 1.408 . S
C253 C252 1.310 . S
C253 H273 0.930 . S
C254 C255 1.474 . S
C254 C256 1.285 . S
C254 H274 0.929 . S
C255 C252 1.461 . S
C255 C254 1.474 . S
C256 C251 1.342 . S
C256 C254 1.285 . S
C256 H275 0.930 . S
C257 C260 1.424 . S
C257 C262 1.245 . S
C257 C263 1.428 . S
C258 C261 1.260 . S
C258 C262 1.477 . S
C258 H276 0.932 . S
C259 C260 1.384 . S
C259 C261 1.479 . S
C259 H277 0.929 . S
C260 C257 1.424 . S
C260 C259 1.384 . S
C260 H278 0.928 . S
C261 C258 1.260 . S
C261 C259 1.479 . S
C262 C257 1.245 . S
C262 C258 1.477 . S
C262 H279 0.932 . S
C263 U246 2.882 . S
C263 C257 1.428 . S
C263 O266 1.301 . S
C263 O267 1.282 . S
O264 U246 2.441 . S
O264 C250 1.249 . S
O265 U246 2.420 . S
O265 C250 1.202 . S
O266 U246 2.455 . S
O266 C263 1.301 . S
O267 U246 2.449 . S
O267 C263 1.282 . S
H268 C241 0.931 . S
H269 C243 0.929 . S
H270 C244 0.930 . S
H271 C245 0.931 . S
H272 C252 0.932 . S
H273 C253 0.930 . S
H274 C254 0.929 . S
H275 C256 0.930 . S
H276 C258 0.932 . S
H277 C259 0.929 . S
H278 C260 0.928 . S
H279 C262 0.932 . S
C280 C281 1.264 . S
C280 C285 1.479 . S
C280 C290 1.465 . S
C281 C280 1.264 . S
C281 C283 1.339 . S
C281 H308 0.931 . S
C282 C283 1.395 . S
C282 C284 1.320 . S
C283 C281 1.339 . S
C283 C282 1.395 . S
C283 H309 0.929 . S
C284 C282 1.320 . S
C284 C285 1.405 . S
C284 H310 0.930 . S
C285 C280 1.479 . S
C285 C284 1.405 . S
C285 H311 0.931 . S
U286 O287 2.454 . S
U286 O288 2.458 . S
U286 C289 2.984 . S
U286 C290 2.847 . S
U286 C303 2.882 . S
U286 O304 2.441 . S
U286 O305 2.420 . S
U286 O306 2.455 . S
U286 O307 2.449 . S
O287 U286 2.454 . S
O287 C289 1.353 . S
O288 U286 2.458 . S
O288 C289 1.286 . S
C289 U286 2.984 . S
C289 O287 1.353 . S
C289 O288 1.286 . S
C289 C291 1.363 . S
C290 C280 1.465 . S
C290 U286 2.847 . S
C290 O304 1.249 . S
C290 O305 1.202 . S
C291 C289 1.363 . S
C291 C293 1.408 . S
C291 C296 1.342 . S
C292 C293 1.310 . S
C292 C295 1.461 . S
C292 H312 0.932 . S
C293 C291 1.408 . S
C293 C292 1.310 . S
C293 H313 0.930 . S
C294 C295 1.474 . S
C294 C296 1.285 . S
C294 H314 0.929 . S
C295 C292 1.461 . S
C295 C294 1.474 . S
C296 C291 1.342 . S
C296 C294 1.285 . S
C296 H315 0.930 . S
C297 C300 1.424 . S
C297 C302 1.245 . S
C297 C303 1.428 . S
C298 C301 1.260 . S
C298 C302 1.477 . S
C298 H316 0.932 . S
C299 C300 1.384 . S
C299 C301 1.479 . S
C299 H317 0.929 . S
C300 C297 1.424 . S
C300 C299 1.384 . S
C300 H318 0.928 . S
C301 C298 1.260 . S
C301 C299 1.479 . S
C302 C297 1.245 . S
C302 C298 1.477 . S
C302 H319 0.932 . S
C303 U286 2.882 . S
C303 C297 1.428 . S
C303 O306 1.301 . S
C303 O307 1.282 . S
O304 U286 2.441 . S
O304 C290 1.249 . S
O305 U286 2.420 . S
O305 C290 1.202 . S
O306 U286 2.455 . S
O306 C303 1.301 . S
O307 U286 2.449 . S
O307 C303 1.282 . S
H308 C281 0.931 . S
H309 C283 0.929 . S
H310 C284 0.930 . S
H311 C285 0.931 . S
H312 C292 0.932 . S
H313 C293 0.930 . S
H314 C294 0.929 . S
H315 C296 0.930 . S
H316 C298 0.932 . S
H317 C299 0.929 . S
H318 C300 0.928 . S
H319 C302 0.932 . S
C320 C321 1.264 . S
C320 C325 1.479 . S
C320 C330 1.465 . S
C321 C320 1.264 . S
C321 C323 1.339 . S
C321 H348 0.931 . S
C322 C323 1.395 . S
C322 C324 1.320 . S
C323 C321 1.339 . S
C323 C322 1.395 . S
C323 H349 0.929 . S
C324 C322 1.320 . S
C324 C325 1.405 . S
C324 H350 0.930 . S
C325 C320 1.479 . S
C325 C324 1.405 . S
C325 H351 0.931 . S
U326 O327 2.454 . S
U326 O328 2.458 . S
U326 C329 2.984 . S
U326 C330 2.847 . S
U326 C343 2.882 . S
U326 O344 2.441 . S
U326 O345 2.420 . S
U326 O346 2.455 . S
U326 O347 2.449 . S
O327 U326 2.454 . S
O327 C329 1.353 . S
O328 U326 2.458 . S
O328 C329 1.286 . S
C329 U326 2.984 . S
C329 O327 1.353 . S
C329 O328 1.286 . S
C329 C331 1.363 1_545 S
C330 C320 1.465 . S
C330 U326 2.847 . S
C330 O344 1.249 . S
C330 O345 1.202 . S
C331 C329 1.363 1_565 S
C331 C333 1.408 . S
C331 C336 1.342 . S
C332 C333 1.310 . S
C332 C335 1.461 . S
C332 H352 0.932 . S
C333 C331 1.408 . S
C333 C332 1.310 . S
C333 H353 0.930 . S
C334 C335 1.474 . S
C334 C336 1.285 . S
C334 H354 0.929 . S
C335 C332 1.461 . S
C335 C334 1.474 . S
C336 C331 1.342 . S
C336 C334 1.285 . S
C336 H355 0.930 . S
C337 C340 1.424 . S
C337 C342 1.245 . S
C337 C343 1.428 . S
C338 C341 1.260 . S
C338 C342 1.477 . S
C338 H356 0.932 . S
C339 C340 1.384 . S
C339 C341 1.479 . S
C339 H357 0.929 . S
C340 C337 1.424 . S
C340 C339 1.384 . S
C340 H358 0.928 . S
C341 C338 1.260 . S
C341 C339 1.479 . S
C342 C337 1.245 . S
C342 C338 1.477 . S
C342 H359 0.932 . S
C343 U326 2.882 . S
C343 C337 1.428 . S
C343 O346 1.301 . S
C343 O347 1.282 . S
O344 U326 2.441 . S
O344 C330 1.249 . S
O345 U326 2.420 . S
O345 C330 1.202 . S
O346 U326 2.455 . S
O346 C343 1.301 . S
O347 U326 2.449 . S
O347 C343 1.282 . S
H348 C321 0.931 . S
H349 C323 0.929 . S
H350 C324 0.930 . S
H351 C325 0.931 . S
H352 C332 0.932 . S
H353 C333 0.930 . S
H354 C334 0.929 . S
H355 C336 0.930 . S
H356 C338 0.932 . S
H357 C339 0.929 . S
H358 C340 0.928 . S
H359 C342 0.932 . S
C360 C361 1.264 . S
C360 C365 1.479 . S
C360 C370 1.465 . S
C361 C360 1.264 . S
C361 C363 1.339 . S
C361 H388 0.931 . S
C362 C363 1.395 . S
C362 C364 1.320 . S
C363 C361 1.339 . S
C363 C362 1.395 . S
C363 H389 0.929 . S
C364 C362 1.320 . S
C364 C365 1.405 . S
C364 H390 0.930 . S
C365 C360 1.479 . S
C365 C364 1.405 . S
C365 H391 0.931 . S
U366 O367 2.454 . S
U366 O368 2.458 . S
U366 C369 2.984 . S
U366 C370 2.847 . S
U366 C383 2.882 . S
U366 O384 2.441 . S
U366 O385 2.420 . S
U366 O386 2.455 . S
U366 O387 2.449 . S
O367 U366 2.454 . S
O367 C369 1.353 . S
O368 U366 2.458 . S
O368 C369 1.286 . S
C369 U366 2.984 . S
C369 O367 1.353 . S
C369 O368 1.286 . S
C369 C371 1.363 . S
C370 C360 1.465 . S
C370 U366 2.847 . S
C370 O384 1.249 . S
C370 O385 1.202 . S
C371 C369 1.363 . S
C371 C373 1.408 . S
C371 C376 1.342 . S
C372 C373 1.310 . S
C372 C375 1.461 . S
C372 H392 0.932 . S
C373 C371 1.408 . S
C373 C372 1.310 . S
C373 H393 0.930 . S
C374 C375 1.474 . S
C374 C376 1.285 . S
C374 H394 0.929 . S
C375 C372 1.461 . S
C375 C374 1.474 . S
C376 C371 1.342 . S
C376 C374 1.285 . S
C376 H395 0.930 . S
C377 C380 1.424 . S
C377 C382 1.245 . S
C377 C383 1.428 . S
C378 C381 1.260 . S
C378 C382 1.477 . S
C378 H396 0.932 . S
C379 C380 1.384 . S
C379 C381 1.479 . S
C379 H397 0.929 . S
C380 C377 1.424 . S
C380 C379 1.384 . S
C380 H398 0.928 . S
C381 C378 1.260 . S
C381 C379 1.479 . S
C382 C377 1.245 . S
C382 C378 1.477 . S
C382 H399 0.932 . S
C383 U366 2.882 . S
C383 C377 1.428 . S
C383 O386 1.301 . S
C383 O387 1.282 . S
O384 U366 2.441 . S
O384 C370 1.249 . S
O385 U366 2.420 . S
O385 C370 1.202 . S
O386 U366 2.455 . S
O386 C383 1.301 . S
O387 U366 2.449 . S
O387 C383 1.282 . S
H388 C361 0.931 . S
H389 C363 0.929 . S
H390 C364 0.930 . S
H391 C365 0.931 . S
H392 C372 0.932 . S
H393 C373 0.930 . S
H394 C374 0.929 . S
H395 C376 0.930 . S
H396 C378 0.932 . S
H397 C379 0.929 . S
H398 C380 0.928 . S
H399 C382 0.932 . S
C400 C401 1.264 . S
C400 C405 1.479 . S
C400 C410 1.465 . S
C401 C400 1.264 . S
C401 C403 1.339 . S
C401 H428 0.931 . S
C402 C403 1.395 . S
C402 C404 1.320 . S
C403 C401 1.339 . S
C403 C402 1.395 . S
C403 H429 0.929 . S
C404 C402 1.320 . S
C404 C405 1.405 . S
C404 H430 0.930 . S
C405 C400 1.479 . S
C405 C404 1.405 . S
C405 H431 0.931 . S
U406 O407 2.454 . S
U406 O408 2.458 . S
U406 C409 2.984 . S
U406 C410 2.847 . S
U406 C423 2.882 . S
U406 O424 2.441 . S
U406 O425 2.420 . S
U406 O426 2.455 . S
U406 O427 2.449 . S
O407 U406 2.454 . S
O407 C409 1.353 . S
O408 U406 2.458 . S
O408 C409 1.286 . S
C409 U406 2.984 . S
C409 O407 1.353 . S
C409 O408 1.286 . S
C409 C411 1.363 . S
C410 C400 1.465 . S
C410 U406 2.847 . S
C410 O424 1.249 . S
C410 O425 1.202 . S
C411 C409 1.363 . S
C411 C413 1.423 . S
C411 C416 1.342 . S
C412 C413 1.281 1_545 S
C412 C415 1.461 . S
C412 H432 0.932 . S
C413 C411 1.423 . S
C413 C412 1.281 1_565 S
C413 H433 0.944 . S
C414 C415 1.474 . S
C414 C416 1.285 1_545 S
C414 H434 0.929 . S
C415 C412 1.461 . S
C415 C414 1.474 . S
C416 C411 1.342 . S
C416 C414 1.285 1_565 S
C416 H435 0.930 . S
C417 C420 1.424 . S
C417 C422 1.245 . S
C417 C423 1.428 . S
C418 C421 1.260 . S
C418 C422 1.477 . S
C418 H436 0.932 . S
C419 C420 1.384 . S
C419 C421 1.479 . S
C419 H437 0.929 . S
C420 C417 1.424 . S
C420 C419 1.384 . S
C420 H438 0.928 . S
C421 C418 1.260 . S
C421 C419 1.479 . S
C422 C417 1.245 . S
C422 C418 1.477 . S
C422 H439 0.932 . S
C423 U406 2.882 . S
C423 C417 1.428 . S
C423 O426 1.301 . S
C423 O427 1.282 . S
O424 U406 2.441 . S
O424 C410 1.249 . S
O425 U406 2.420 . S
O425 C410 1.202 . S
O426 U406 2.455 . S
O426 C423 1.301 . S
O427 U406 2.449 . S
O427 C423 1.282 . S
H428 C401 0.931 . S
H429 C403 0.929 . S
H430 C404 0.930 . S
H431 C405 0.931 . S
H432 C412 0.932 . S
H433 C413 0.944 . S
H434 C414 0.929 . S
H435 C416 0.930 . S
H436 C418 0.932 . S
H437 C419 0.929 . S
H438 C420 0.928 . S
H439 C422 0.932 . S
C440 C441 1.264 . S
C440 C445 1.479 . S
C440 C450 1.465 . S
C441 C440 1.264 . S
C441 C443 1.339 . S
C441 H468 0.931 . S
C442 C443 1.395 . S
C442 C444 1.320 . S
C443 C441 1.339 . S
C443 C442 1.395 . S
C443 H469 0.929 . S
C444 C442 1.320 . S
C444 C445 1.405 . S
C444 H470 0.930 . S
C445 C440 1.479 . S
C445 C444 1.405 . S
C445 H471 0.931 . S
U446 O447 2.454 . S
U446 O448 2.458 . S
U446 C449 2.984 . S
U446 C450 2.847 . S
U446 C463 2.882 . S
U446 O464 2.441 . S
U446 O465 2.420 . S
U446 O466 2.455 . S
U446 O467 2.449 . S
O447 U446 2.454 . S
O447 C449 1.353 . S
O448 U446 2.458 . S
O448 C449 1.286 . S
C449 U446 2.984 . S
C449 O447 1.353 . S
C449 O448 1.286 . S
C449 C451 1.363 . S
C450 C440 1.465 . S
C450 U446 2.847 . S
C450 O464 1.249 . S
C450 O465 1.202 . S
C451 C449 1.363 . S
C451 C453 1.408 . S
C451 C456 1.342 . S
C452 C453 1.310 . S
C452 C455 1.461 . S
C452 H472 0.932 . S
C453 C451 1.408 . S
C453 C452 1.310 . S
C453 H473 0.930 . S
C454 C455 1.474 . S
C454 C456 1.285 . S
C454 H474 0.929 . S
C455 C452 1.461 . S
C455 C454 1.474 . S
C456 C451 1.342 . S
C456 C454 1.285 . S
C456 H475 0.930 . S
C457 C460 1.424 . S
C457 C462 1.245 . S
C457 C463 1.428 . S
C458 C461 1.260 . S
C458 C462 1.477 . S
C458 H476 0.932 . S
C459 C460 1.384 . S
C459 C461 1.479 . S
C459 H477 0.929 . S
C460 C457 1.424 . S
C460 C459 1.384 . S
C460 H478 0.928 . S
C461 C458 1.260 . S
C461 C459 1.479 . S
C462 C457 1.245 . S
C462 C458 1.477 . S
C462 H479 0.932 . S
C463 U446 2.882 . S
C463 C457 1.428 . S
C463 O466 1.301 . S
C463 O467 1.282 . S
O464 U446 2.441 . S
O464 C450 1.249 . S
O465 U446 2.420 . S
O465 C450 1.202 . S
O466 U446 2.455 . S
O466 C463 1.301 . S
O467 U446 2.449 . S
O467 C463 1.282 . S
H468 C441 0.931 . S
H469 C443 0.929 . S
H470 C444 0.930 . S
H471 C445 0.931 . S
H472 C452 0.932 . S
H473 C453 0.930 . S
H474 C454 0.929 . S
H475 C456 0.930 . S
H476 C458 0.932 . S
H477 C459 0.929 . S
H478 C460 0.928 . S
H479 C462 0.932 . S
C480 C481 1.264 . S
C480 C485 1.479 . S
C480 C490 1.465 . S
C481 C480 1.264 . S
C481 C483 1.339 . S
C481 H508 0.931 . S
C482 C483 1.395 . S
C482 C484 1.320 . S
C483 C481 1.339 . S
C483 C482 1.395 . S
C483 H509 0.929 . S
C484 C482 1.320 . S
C484 C485 1.405 . S
C484 H510 0.930 . S
C485 C480 1.479 . S
C485 C484 1.405 . S
C485 H511 0.931 . S
U486 O487 2.454 . S
U486 O488 2.458 . S
U486 C489 2.984 . S
U486 C490 2.847 . S
U486 C503 2.882 . S
U486 O504 2.441 . S
U486 O505 2.420 . S
U486 O506 2.455 . S
U486 O507 2.449 . S
O487 U486 2.454 . S
O487 C489 1.353 . S
O488 U486 2.458 . S
O488 C489 1.286 . S
C489 U486 2.984 . S
C489 O487 1.353 . S
C489 O488 1.286 . S
C489 C491 1.363 1_565 S
C490 C480 1.465 . S
C490 U486 2.847 . S
C490 O504 1.249 . S
C490 O505 1.202 . S
C491 C489 1.363 1_545 S
C491 C493 1.408 . S
C491 C496 1.342 . S
C492 C493 1.310 . S
C492 C495 1.461 . S
C492 H512 0.932 . S
C493 C491 1.408 . S
C493 C492 1.310 . S
C493 H513 0.930 . S
C494 C495 1.474 . S
C494 C496 1.285 . S
C494 H514 0.929 . S
C495 C492 1.461 . S
C495 C494 1.474 . S
C496 C491 1.342 . S
C496 C494 1.285 . S
C496 H515 0.930 . S
C497 C500 1.424 . S
C497 C502 1.245 . S
C497 C503 1.428 . S
C498 C501 1.260 . S
C498 C502 1.477 . S
C498 H516 0.932 . S
C499 C500 1.384 . S
C499 C501 1.479 . S
C499 H517 0.929 . S
C500 C497 1.424 . S
C500 C499 1.384 . S
C500 H518 0.928 . S
C501 C498 1.260 . S
C501 C499 1.479 . S
C502 C497 1.245 . S
C502 C498 1.477 . S
C502 H519 0.932 . S
C503 U486 2.882 . S
C503 C497 1.428 . S
C503 O506 1.301 . S
C503 O507 1.282 . S
O504 U486 2.441 . S
O504 C490 1.249 . S
O505 U486 2.420 . S
O505 C490 1.202 . S
O506 U486 2.455 . S
O506 C503 1.301 . S
O507 U486 2.449 . S
O507 C503 1.282 . S
H508 C481 0.931 . S
H509 C483 0.929 . S
H510 C484 0.930 . S
H511 C485 0.931 . S
H512 C492 0.932 . S
H513 C493 0.930 . S
H514 C494 0.929 . S
H515 C496 0.930 . S
H516 C498 0.932 . S
H517 C499 0.929 . S
H518 C500 0.928 . S
H519 C502 0.932 . S
C520 C521 1.264 . S
C520 C525 1.479 . S
C520 C530 1.465 . S
C521 C520 1.264 . S
C521 C523 1.339 . S
C521 H548 0.931 . S
C522 C523 1.395 . S
C522 C524 1.320 . S
C523 C521 1.339 . S
C523 C522 1.395 . S
C523 H549 0.929 . S
C524 C522 1.320 . S
C524 C525 1.405 . S
C524 H550 0.930 . S
C525 C520 1.479 . S
C525 C524 1.405 . S
C525 H551 0.931 . S
U526 O527 2.454 . S
U526 O528 2.458 . S
U526 C529 2.984 . S
U526 C530 2.847 . S
U526 C543 2.882 . S
U526 O544 2.441 . S
U526 O545 2.420 . S
U526 O546 2.455 . S
U526 O547 2.449 . S
O527 U526 2.454 . S
O527 C529 1.353 . S
O528 U526 2.458 . S
O528 C529 1.286 . S
C529 U526 2.984 . S
C529 O527 1.353 . S
C529 O528 1.286 . S
C529 C531 1.363 . S
C530 C520 1.465 . S
C530 U526 2.847 . S
C530 O544 1.249 . S
C530 O545 1.202 . S
C531 C529 1.363 . S
C531 C533 1.408 . S
C531 C536 1.342 . S
C532 C533 1.310 . S
C532 C535 1.461 . S
C532 H552 0.932 . S
C533 C531 1.408 . S
C533 C532 1.310 . S
C533 H553 0.930 . S
C534 C535 1.474 . S
C534 C536 1.285 . S
C534 H554 0.929 . S
C535 C532 1.461 . S
C535 C534 1.474 . S
C536 C531 1.342 . S
C536 C534 1.285 . S
C536 H555 0.930 . S
C537 C540 1.424 . S
C537 C542 1.245 . S
C537 C543 1.428 . S
C538 C541 1.260 . S
C538 C542 1.477 . S
C538 H556 0.932 . S
C539 C540 1.384 . S
C539 C541 1.479 . S
C539 H557 0.929 . S
C540 C537 1.424 . S
C540 C539 1.384 . S
C540 H558 0.928 . S
C541 C538 1.260 . S
C541 C539 1.479 . S
C542 C537 1.245 . S
C542 C538 1.477 . S
C542 H559 0.932 . S
C543 U526 2.882 . S
C543 C537 1.428 . S
C543 O546 1.301 . S
C543 O547 1.282 . S
O544 U526 2.441 . S
O544 C530 1.249 . S
O545 U526 2.420 . S
O545 C530 1.202 . S
O546 U526 2.455 . S
O546 C543 1.301 . S
O547 U526 2.449 . S
O547 C543 1.282 . S
H548 C521 0.931 . S
H549 C523 0.929 . S
H550 C524 0.930 . S
H551 C525 0.931 . S
H552 C532 0.932 . S
H553 C533 0.930 . S
H554 C534 0.929 . S
H555 C536 0.930 . S
H556 C538 0.932 . S
H557 C539 0.929 . S
H558 C540 0.928 . S
H559 C542 0.932 . S
C560 C561 1.264 . S
C560 C565 1.479 . S
C560 C570 1.465 . S
C561 C560 1.264 . S
C561 C563 1.339 . S
C561 H588 0.931 . S
C562 C563 1.395 . S
C562 C564 1.320 . S
C563 C561 1.339 . S
C563 C562 1.395 . S
C563 H589 0.929 . S
C564 C562 1.320 . S
C564 C565 1.405 . S
C564 H590 0.930 . S
C565 C560 1.479 . S
C565 C564 1.405 . S
C565 H591 0.931 . S
U566 O567 2.454 . S
U566 O568 2.458 . S
U566 C569 2.984 . S
U566 C570 2.847 . S
U566 C583 2.882 . S
U566 O584 2.441 . S
U566 O585 2.420 . S
U566 O586 2.455 . S
U566 O587 2.449 . S
O567 U566 2.454 . S
O567 C569 1.353 . S
O568 U566 2.458 . S
O568 C569 1.286 . S
C569 U566 2.984 . S
C569 O567 1.353 . S
C569 O568 1.286 . S
C569 C571 1.363 . S
C570 C560 1.465 . S
C570 U566 2.847 . S
C570 O584 1.249 . S
C570 O585 1.202 . S
C571 C569 1.363 . S
C571 C573 1.423 . S
C571 C576 1.342 . S
C572 C573 1.281 1_565 S
C572 C575 1.461 . S
C572 H592 0.932 . S
C573 C571 1.423 . S
C573 C572 1.281 1_545 S
C573 H593 0.944 . S
C574 C575 1.474 . S
C574 C576 1.285 1_565 S
C574 H594 0.929 . S
C575 C572 1.461 . S
C575 C574 1.474 . S
C576 C571 1.342 . S
C576 C574 1.285 1_545 S
C576 H595 0.930 . S
C577 C580 1.424 . S
C577 C582 1.245 . S
C577 C583 1.428 . S
C578 C581 1.260 . S
C578 C582 1.477 . S
C578 H596 0.932 . S
C579 C580 1.384 . S
C579 C581 1.479 . S
C579 H597 0.929 . S
C580 C577 1.424 . S
C580 C579 1.384 . S
C580 H598 0.928 . S
C581 C578 1.260 . S
C581 C579 1.479 . S
C582 C577 1.245 . S
C582 C578 1.477 . S
C582 H599 0.932 . S
C583 U566 2.882 . S
C583 C577 1.428 . S
C583 O586 1.301 . S
C583 O587 1.282 . S
O584 U566 2.441 . S
O584 C570 1.249 . S
O585 U566 2.420 . S
O585 C570 1.202 . S
O586 U566 2.455 . S
O586 C583 1.301 . S
O587 U566 2.449 . S
O587 C583 1.282 . S
H588 C561 0.931 . S
H589 C563 0.929 . S
H590 C564 0.930 . S
H591 C565 0.931 . S
H592 C572 0.932 . S
H593 C573 0.944 . S
H594 C574 0.929 . S
H595 C576 0.930 . S
H596 C578 0.932 . S
H597 C579 0.929 . S
H598 C580 0.928 . S
H599 C582 0.932 . S
C600 C601 1.264 . S
C600 C605 1.479 . S
C600 C610 1.465 . S
C601 C600 1.264 . S
C601 C603 1.339 . S
C601 H628 0.931 . S
C602 C603 1.395 . S
C602 C604 1.320 . S
C603 C601 1.339 . S
C603 C602 1.395 . S
C603 H629 0.929 . S
C604 C602 1.320 . S
C604 C605 1.405 . S
C604 H630 0.930 . S
C605 C600 1.479 . S
C605 C604 1.405 . S
C605 H631 0.931 . S
U606 O607 2.454 . S
U606 O608 2.458 . S
U606 C609 2.984 . S
U606 C610 2.847 . S
U606 C623 2.882 . S
U606 O624 2.441 . S
U606 O625 2.420 . S
U606 O626 2.455 . S
U606 O627 2.449 . S
O607 U606 2.454 . S
O607 C609 1.353 . S
O608 U606 2.458 . S
O608 C609 1.286 . S
C609 U606 2.984 . S
C609 O607 1.353 . S
C609 O608 1.286 . S
C609 C611 1.363 . S
C610 C600 1.465 . S
C610 U606 2.847 . S
C610 O624 1.249 . S
C610 O625 1.202 . S
C611 C609 1.363 . S
C611 C613 1.408 . S
C611 C616 1.342 . S
C612 C613 1.310 . S
C612 C615 1.461 . S
C612 H632 0.932 . S
C613 C611 1.408 . S
C613 C612 1.310 . S
C613 H633 0.930 . S
C614 C615 1.474 . S
C614 C616 1.285 . S
C614 H634 0.929 . S
C615 C612 1.461 . S
C615 C614 1.474 . S
C616 C611 1.342 . S
C616 C614 1.285 . S
C616 H635 0.930 . S
C617 C620 1.424 . S
C617 C622 1.245 . S
C617 C623 1.428 . S
C618 C621 1.260 . S
C618 C622 1.477 . S
C618 H636 0.932 . S
C619 C620 1.384 . S
C619 C621 1.479 . S
C619 H637 0.929 . S
C620 C617 1.424 . S
C620 C619 1.384 . S
C620 H638 0.928 . S
C621 C618 1.260 . S
C621 C619 1.479 . S
C622 C617 1.245 . S
C622 C618 1.477 . S
C622 H639 0.932 . S
C623 U606 2.882 . S
C623 C617 1.428 . S
C623 O626 1.301 . S
C623 O627 1.282 . S
O624 U606 2.441 . S
O624 C610 1.249 . S
O625 U606 2.420 . S
O625 C610 1.202 . S
O626 U606 2.455 . S
O626 C623 1.301 . S
O627 U606 2.449 . S
O627 C623 1.282 . S
H628 C601 0.931 . S
H629 C603 0.929 . S
H630 C604 0.930 . S
H631 C605 0.931 . S
H632 C612 0.932 . S
H633 C613 0.930 . S
H634 C614 0.929 . S
H635 C616 0.930 . S
H636 C618 0.932 . S
H637 C619 0.929 . S
H638 C620 0.928 . S
H639 C622 0.932 . S
C640 C641 1.264 . S
C640 C645 1.479 . S
C640 C650 1.465 . S
C641 C640 1.264 . S
C641 C643 1.339 . S
C641 H668 0.931 . S
C642 C643 1.395 . S
C642 C644 1.320 . S
C643 C641 1.339 . S
C643 C642 1.395 . S
C643 H669 0.929 . S
C644 C642 1.320 . S
C644 C645 1.405 . S
C644 H670 0.930 . S
C645 C640 1.479 . S
C645 C644 1.405 . S
C645 H671 0.931 . S
U646 O647 2.454 . S
U646 O648 2.458 . S
U646 C649 2.984 . S
U646 C650 2.847 . S
U646 C663 2.882 . S
U646 O664 2.441 . S
U646 O665 2.420 . S
U646 O666 2.455 . S
U646 O667 2.449 . S
O647 U646 2.454 . S
O647 C649 1.353 . S
O648 U646 2.458 . S
O648 C649 1.286 . S
C649 U646 2.984 . S
C649 O647 1.353 . S
C649 O648 1.286 . S
C649 C651 1.363 . S
C650 C640 1.465 . S
C650 U646 2.847 . S
C650 O664 1.249 . S
C650 O665 1.202 . S
C651 C649 1.363 . S
C651 C653 1.408 . S
C651 C656 1.342 . S
C652 C653 1.310 . S
C652 C655 1.461 . S
C652 H672 0.932 . S
C653 C651 1.408 . S
C653 C652 1.310 . S
C653 H673 0.930 . S
C654 C655 1.474 . S
C654 C656 1.285 . S
C654 H674 0.929 . S
C655 C652 1.461 . S
C655 C654 1.474 . S
C656 C651 1.342 . S
C656 C654 1.285 . S
C656 H675 0.930 . S
C657 C660 1.424 . S
C657 C662 1.245 . S
C657 C663 1.428 . S
C658 C661 1.260 . S
C658 C662 1.477 . S
C658 H676 0.932 . S
C659 C660 1.384 . S
C659 C661 1.479 . S
C659 H677 0.929 . S
C660 C657 1.424 . S
C660 C659 1.384 . S
C660 H678 0.928 . S
C661 C658 1.260 . S
C661 C659 1.479 . S
C662 C657 1.245 . S
C662 C658 1.477 . S
C662 H679 0.932 . S
C663 U646 2.882 . S
C663 C657 1.428 . S
C663 O666 1.301 . S
C663 O667 1.282 . S
O664 U646 2.441 . S
O664 C650 1.249 . S
O665 U646 2.420 . S
O665 C650 1.202 . S
O666 U646 2.455 . S
O666 C663 1.301 . S
O667 U646 2.449 . S
O667 C663 1.282 . S
H668 C641 0.931 . S
H669 C643 0.929 . S
H670 C644 0.930 . S
H671 C645 0.931 . S
H672 C652 0.932 . S
H673 C653 0.930 . S
H674 C654 0.929 . S
H675 C656 0.930 . S
H676 C658 0.932 . S
H677 C659 0.929 . S
H678 C660 0.928 . S
H679 C662 0.932 . S
C680 C681 1.264 . S
C680 C685 1.479 . S
C680 C690 1.465 . S
C681 C680 1.264 . S
C681 C683 1.339 . S
C681 H708 0.931 . S
C682 C683 1.395 . S
C682 C684 1.320 . S
C683 C681 1.339 . S
C683 C682 1.395 . S
C683 H709 0.929 . S
C684 C682 1.320 . S
C684 C685 1.405 . S
C684 H710 0.930 . S
C685 C680 1.479 . S
C685 C684 1.405 . S
C685 H711 0.931 . S
U686 O687 2.454 . S
U686 O688 2.458 . S
U686 C689 2.984 . S
U686 C690 2.847 . S
U686 C703 2.882 . S
U686 O704 2.441 . S
U686 O705 2.420 . S
U686 O706 2.455 . S
U686 O707 2.449 . S
O687 U686 2.454 . S
O687 C689 1.353 . S
O688 U686 2.458 . S
O688 C689 1.286 . S
C689 U686 2.984 . S
C689 O687 1.353 . S
C689 O688 1.286 . S
C689 C691 1.363 . S
C690 C680 1.465 . S
C690 U686 2.847 . S
C690 O704 1.249 . S
C690 O705 1.202 . S
C691 C689 1.363 . S
C691 C693 1.408 . S
C691 C696 1.342 . S
C692 C693 1.310 . S
C692 C695 1.461 . S
C692 H712 0.932 . S
C693 C691 1.408 . S
C693 C692 1.310 . S
C693 H713 0.930 . S
C694 C695 1.474 . S
C694 C696 1.285 . S
C694 H714 0.929 . S
C695 C692 1.461 . S
C695 C694 1.474 . S
C696 C691 1.342 . S
C696 C694 1.285 . S
C696 H715 0.930 . S
C697 C700 1.424 . S
C697 C702 1.245 . S
C697 C703 1.428 . S
C698 C701 1.260 . S
C698 C702 1.477 . S
C698 H716 0.932 . S
C699 C700 1.384 . S
C699 C701 1.479 . S
C699 H717 0.929 . S
C700 C697 1.424 . S
C700 C699 1.384 . S
C700 H718 0.928 . S
C701 C698 1.260 . S
C701 C699 1.479 . S
C702 C697 1.245 . S
C702 C698 1.477 . S
C702 H719 0.932 . S
C703 U686 2.882 . S
C703 C697 1.428 . S
C703 O706 1.301 . S
C703 O707 1.282 . S
O704 U686 2.441 . S
O704 C690 1.249 . S
O705 U686 2.420 . S
O705 C690 1.202 . S
O706 U686 2.455 . S
O706 C703 1.301 . S
O707 U686 2.449 . S
O707 C703 1.282 . S
H708 C681 0.931 . S
H709 C683 0.929 . S
H710 C684 0.930 . S
H711 C685 0.931 . S
H712 C692 0.932 . S
H713 C693 0.930 . S
H714 C694 0.929 . S
H715 C696 0.930 . S
H716 C698 0.932 . S
H717 C699 0.929 . S
H718 C700 0.928 . S
H719 C702 0.932 . S
C720 C721 1.264 . S
C720 C725 1.479 . S
C720 C730 1.465 . S
C721 C720 1.264 . S
C721 C723 1.339 . S
C721 H748 0.931 . S
C722 C723 1.395 . S
C722 C724 1.320 . S
C723 C721 1.339 . S
C723 C722 1.395 . S
C723 H749 0.929 . S
C724 C722 1.320 . S
C724 C725 1.405 . S
C724 H750 0.930 . S
C725 C720 1.479 . S
C725 C724 1.405 . S
C725 H751 0.931 . S
U726 O727 2.454 . S
U726 O728 2.458 . S
U726 C729 2.984 . S
U726 C730 2.847 . S
U726 C743 2.882 . S
U726 O744 2.441 . S
U726 O745 2.420 . S
U726 O746 2.455 . S
U726 O747 2.449 . S
O727 U726 2.454 . S
O727 C729 1.353 . S
O728 U726 2.458 . S
O728 C729 1.286 . S
C729 U726 2.984 . S
C729 O727 1.353 . S
C729 O728 1.286 . S
C729 C731 1.363 . S
C730 C720 1.465 . S
C730 U726 2.847 . S
C730 O744 1.249 . S
C730 O745 1.202 . S
C731 C729 1.363 . S
C731 C733 1.408 . S
C731 C736 1.342 . S
C732 C733 1.310 . S
C732 C735 1.461 . S
C732 H752 0.932 . S
C733 C731 1.408 . S
C733 C732 1.310 . S
C733 H753 0.930 . S
C734 C735 1.474 . S
C734 C736 1.285 . S
C734 H754 0.929 . S
C735 C732 1.461 . S
C735 C734 1.474 . S
C736 C731 1.342 . S
C736 C734 1.285 . S
C736 H755 0.930 . S
C737 C740 1.424 . S
C737 C742 1.245 . S
C737 C743 1.428 . S
C738 C741 1.260 . S
C738 C742 1.477 . S
C738 H756 0.932 . S
C739 C740 1.384 . S
C739 C741 1.479 . S
C739 H757 0.929 . S
C740 C737 1.424 . S
C740 C739 1.384 . S
C740 H758 0.928 . S
C741 C738 1.260 . S
C741 C739 1.479 . S
C742 C737 1.245 . S
C742 C738 1.477 . S
C742 H759 0.932 . S
C743 U726 2.882 . S
C743 C737 1.428 . S
C743 O746 1.301 . S
C743 O747 1.282 . S
O744 U726 2.441 . S
O744 C730 1.249 . S
O745 U726 2.420 . S
O745 C730 1.202 . S
O746 U726 2.455 . S
O746 C743 1.301 . S
O747 U726 2.449 . S
O747 C743 1.282 . S
H748 C721 0.931 . S
H749 C723 0.929 . S
H750 C724 0.930 . S
H751 C725 0.931 . S
H752 C732 0.932 . S
H753 C733 0.930 . S
H754 C734 0.929 . S
H755 C736 0.930 . S
H756 C738 0.932 . S
H757 C739 0.929 . S
H758 C740 0.928 . S
H759 C742 0.932 . S
C760 C761 1.264 . S
C760 C765 1.479 . S
C760 C770 1.465 . S
C761 C760 1.264 . S
C761 C763 1.339 . S
C761 H788 0.931 . S
C762 C763 1.395 . S
C762 C764 1.320 . S
C763 C761 1.339 . S
C763 C762 1.395 . S
C763 H789 0.929 . S
C764 C762 1.320 . S
C764 C765 1.405 . S
C764 H790 0.930 . S
C765 C760 1.479 . S
C765 C764 1.405 . S
C765 H791 0.931 . S
U766 O767 2.454 . S
U766 O768 2.458 . S
U766 C769 2.984 . S
U766 C770 2.847 . S
U766 C783 2.882 . S
U766 O784 2.441 . S
U766 O785 2.420 . S
U766 O786 2.455 . S
U766 O787 2.449 . S
O767 U766 2.454 . S
O767 C769 1.353 . S
O768 U766 2.458 . S
O768 C769 1.286 . S
C769 U766 2.984 . S
C769 O767 1.353 . S
C769 O768 1.286 . S
C769 C771 1.363 . S
C770 C760 1.465 . S
C770 U766 2.847 . S
C770 O784 1.249 . S
C770 O785 1.202 . S
C771 C769 1.363 . S
C771 C773 1.408 . S
C771 C776 1.342 . S
C772 C773 1.310 . S
C772 C775 1.461 . S
C772 H792 0.932 . S
C773 C771 1.408 . S
C773 C772 1.310 . S
C773 H793 0.930 . S
C774 C775 1.474 . S
C774 C776 1.285 . S
C774 H794 0.929 . S
C775 C772 1.461 . S
C775 C774 1.474 . S
C776 C771 1.342 . S
C776 C774 1.285 . S
C776 H795 0.930 . S
C777 C780 1.424 . S
C777 C782 1.245 . S
C777 C783 1.428 . S
C778 C781 1.260 . S
C778 C782 1.477 . S
C778 H796 0.932 . S
C779 C780 1.384 . S
C779 C781 1.479 . S
C779 H797 0.929 . S
C780 C777 1.424 . S
C780 C779 1.384 . S
C780 H798 0.928 . S
C781 C778 1.260 . S
C781 C779 1.479 . S
C782 C777 1.245 . S
C782 C778 1.477 . S
C782 H799 0.932 . S
C783 U766 2.882 . S
C783 C777 1.428 . S
C783 O786 1.301 . S
C783 O787 1.282 . S
O784 U766 2.441 . S
O784 C770 1.249 . S
O785 U766 2.420 . S
O785 C770 1.202 . S
O786 U766 2.455 . S
O786 C783 1.301 . S
O787 U766 2.449 . S
O787 C783 1.282 . S
H788 C761 0.931 . S
H789 C763 0.929 . S
H790 C764 0.930 . S
H791 C765 0.931 . S
H792 C772 0.932 . S
H793 C773 0.930 . S
H794 C774 0.929 . S
H795 C776 0.930 . S
H796 C778 0.932 . S
H797 C779 0.929 . S
H798 C780 0.928 . S
H799 C782 0.932 . S
C800 C801 1.264 . S
C800 C805 1.479 . S
C800 C810 1.465 . S
C801 C800 1.264 . S
C801 C803 1.339 . S
C801 H828 0.931 . S
C802 C803 1.395 . S
C802 C804 1.320 . S
C803 C801 1.339 . S
C803 C802 1.395 . S
C803 H829 0.929 . S
C804 C802 1.320 . S
C804 C805 1.405 . S
C804 H830 0.930 . S
C805 C800 1.479 . S
C805 C804 1.405 . S
C805 H831 0.931 . S
U806 O807 2.454 . S
U806 O808 2.458 . S
U806 C809 2.984 . S
U806 C810 2.847 . S
U806 C823 2.882 . S
U806 O824 2.441 . S
U806 O825 2.420 . S
U806 O826 2.455 . S
U806 O827 2.449 . S
O807 U806 2.454 . S
O807 C809 1.353 . S
O808 U806 2.458 . S
O808 C809 1.286 . S
C809 U806 2.984 . S
C809 O807 1.353 . S
C809 O808 1.286 . S
C809 C811 1.363 . S
C810 C800 1.465 . S
C810 U806 2.847 . S
C810 O824 1.249 . S
C810 O825 1.202 . S
C811 C809 1.363 . S
C811 C813 1.408 . S
C811 C816 1.342 . S
C812 C813 1.310 . S
C812 C815 1.461 . S
C812 H832 0.932 . S
C813 C811 1.408 . S
C813 C812 1.310 . S
C813 H833 0.930 . S
C814 C815 1.474 . S
C814 C816 1.285 . S
C814 H834 0.929 . S
C815 C812 1.461 . S
C815 C814 1.474 . S
C816 C811 1.342 . S
C816 C814 1.285 . S
C816 H835 0.930 . S
C817 C820 1.424 . S
C817 C822 1.245 . S
C817 C823 1.428 . S
C818 C821 1.260 . S
C818 C822 1.477 . S
C818 H836 0.932 . S
C819 C820 1.384 . S
C819 C821 1.479 . S
C819 H837 0.929 . S
C820 C817 1.424 . S
C820 C819 1.384 . S
C820 H838 0.928 . S
C821 C818 1.260 . S
C821 C819 1.479 . S
C822 C817 1.245 . S
C822 C818 1.477 . S
C822 H839 0.932 . S
C823 U806 2.882 . S
C823 C817 1.428 . S
C823 O826 1.301 . S
C823 O827 1.282 . S
O824 U806 2.441 . S
O824 C810 1.249 . S
O825 U806 2.420 . S
O825 C810 1.202 . S
O826 U806 2.455 . S
O826 C823 1.301 . S
O827 U806 2.449 . S
O827 C823 1.282 . S
H828 C801 0.931 . S
H829 C803 0.929 . S
H830 C804 0.930 . S
H831 C805 0.931 . S
H832 C812 0.932 . S
H833 C813 0.930 . S
H834 C814 0.929 . S
H835 C816 0.930 . S
H836 C818 0.932 . S
H837 C819 0.929 . S
H838 C820 0.928 . S
H839 C822 0.932 . S
C840 C841 1.264 . S
C840 C845 1.479 . S
C840 C850 1.465 . S
C841 C840 1.264 . S
C841 C843 1.339 . S
C841 H868 0.931 . S
C842 C843 1.395 . S
C842 C844 1.320 . S
C843 C841 1.339 . S
C843 C842 1.395 . S
C843 H869 0.929 . S
C844 C842 1.320 . S
C844 C845 1.405 . S
C844 H870 0.930 . S
C845 C840 1.479 . S
C845 C844 1.405 . S
C845 H871 0.931 . S
U846 O847 2.454 . S
U846 O848 2.458 . S
U846 C849 2.984 . S
U846 C850 2.847 . S
U846 C863 2.882 . S
U846 O864 2.441 . S
U846 O865 2.420 . S
U846 O866 2.455 . S
U846 O867 2.449 . S
O847 U846 2.454 . S
O847 C849 1.353 . S
O848 U846 2.458 . S
O848 C849 1.286 . S
C849 U846 2.984 . S
C849 O847 1.353 . S
C849 O848 1.286 . S
C849 C851 1.363 . S
C850 C840 1.465 . S
C850 U846 2.847 . S
C850 O864 1.249 . S
C850 O865 1.202 . S
C851 C849 1.363 . S
C851 C853 1.408 . S
C851 C856 1.342 . S
C852 C853 1.310 . S
C852 C855 1.461 . S
C852 H872 0.932 . S
C853 C851 1.408 . S
C853 C852 1.310 . S
C853 H873 0.930 . S
C854 C855 1.474 . S
C854 C856 1.285 . S
C854 H874 0.929 . S
C855 C852 1.461 . S
C855 C854 1.474 . S
C856 C851 1.342 . S
C856 C854 1.285 . S
C856 H875 0.930 . S
C857 C860 1.424 . S
C857 C862 1.245 . S
C857 C863 1.428 . S
C858 C861 1.260 . S
C858 C862 1.477 . S
C858 H876 0.932 . S
C859 C860 1.384 . S
C859 C861 1.479 . S
C859 H877 0.929 . S
C860 C857 1.424 . S
C860 C859 1.384 . S
C860 H878 0.928 . S
C861 C858 1.260 . S
C861 C859 1.479 . S
C862 C857 1.245 . S
C862 C858 1.477 . S
C862 H879 0.932 . S
C863 U846 2.882 . S
C863 C857 1.428 . S
C863 O866 1.301 . S
C863 O867 1.282 . S
O864 U846 2.441 . S
O864 C850 1.249 . S
O865 U846 2.420 . S
O865 C850 1.202 . S
O866 U846 2.455 . S
O866 C863 1.301 . S
O867 U846 2.449 . S
O867 C863 1.282 . S
H868 C841 0.931 . S
H869 C843 0.929 . S
H870 C844 0.930 . S
H871 C845 0.931 . S
H872 C852 0.932 . S
H873 C853 0.930 . S
H874 C854 0.929 . S
H875 C856 0.930 . S
H876 C858 0.932 . S
H877 C859 0.929 . S
H878 C860 0.928 . S
H879 C862 0.932 . S
C880 C881 1.264 . S
C880 C885 1.479 . S
C880 C890 1.465 . S
C881 C880 1.264 . S
C881 C883 1.339 . S
C881 H908 0.931 . S
C882 C883 1.395 . S
C882 C884 1.320 . S
C883 C881 1.339 . S
C883 C882 1.395 . S
C883 H909 0.929 . S
C884 C882 1.320 . S
C884 C885 1.405 . S
C884 H910 0.930 . S
C885 C880 1.479 . S
C885 C884 1.405 . S
C885 H911 0.931 . S
U886 O887 2.454 . S
U886 O888 2.458 . S
U886 C889 2.984 . S
U886 C890 2.847 . S
U886 C903 2.882 . S
U886 O904 2.441 . S
U886 O905 2.420 . S
U886 O906 2.455 . S
U886 O907 2.449 . S
O887 U886 2.454 . S
O887 C889 1.353 . S
O888 U886 2.458 . S
O888 C889 1.286 . S
C889 U886 2.984 . S
C889 O887 1.353 . S
C889 O888 1.286 . S
C889 C891 1.363 . S
C890 C880 1.465 . S
C890 U886 2.847 . S
C890 O904 1.249 . S
C890 O905 1.202 . S
C891 C889 1.363 . S
C891 C893 1.408 . S
C891 C896 1.342 . S
C892 C893 1.310 . S
C892 C895 1.461 . S
C892 H912 0.932 . S
C893 C891 1.408 . S
C893 C892 1.310 . S
C893 H913 0.930 . S
C894 C895 1.474 . S
C894 C896 1.285 . S
C894 H914 0.929 . S
C895 C892 1.461 . S
C895 C894 1.474 . S
C896 C891 1.342 . S
C896 C894 1.285 . S
C896 H915 0.930 . S
C897 C900 1.424 . S
C897 C902 1.245 . S
C897 C903 1.428 . S
C898 C901 1.260 . S
C898 C902 1.477 . S
C898 H916 0.932 . S
C899 C900 1.384 . S
C899 C901 1.479 . S
C899 H917 0.929 . S
C900 C897 1.424 . S
C900 C899 1.384 . S
C900 H918 0.928 . S
C901 C898 1.260 . S
C901 C899 1.479 . S
C902 C897 1.245 . S
C902 C898 1.477 . S
C902 H919 0.932 . S
C903 U886 2.882 . S
C903 C897 1.428 . S
C903 O906 1.301 . S
C903 O907 1.282 . S
O904 U886 2.441 . S
O904 C890 1.249 . S
O905 U886 2.420 . S
O905 C890 1.202 . S
O906 U886 2.455 . S
O906 C903 1.301 . S
O907 U886 2.449 . S
O907 C903 1.282 . S
H908 C881 0.931 . S
H909 C883 0.929 . S
H910 C884 0.930 . S
H911 C885 0.931 . S
H912 C892 0.932 . S
H913 C893 0.930 . S
H914 C894 0.929 . S
H915 C896 0.930 . S
H916 C898 0.932 . S
H917 C899 0.929 . S
H918 C900 0.928 . S
H919 C902 0.932 . S
C920 C921 1.264 . S
C920 C925 1.479 . S
C920 C930 1.465 . S
C921 C920 1.264 . S
C921 C923 1.339 . S
C921 H948 0.931 . S
C922 C923 1.395 . S
C922 C924 1.320 . S
C923 C921 1.339 . S
C923 C922 1.395 . S
C923 H949 0.929 . S
C924 C922 1.320 . S
C924 C925 1.405 . S
C924 H950 0.930 . S
C925 C920 1.479 . S
C925 C924 1.405 . S
C925 H951 0.931 . S
U926 O927 2.454 . S
U926 O928 2.458 . S
U926 C929 2.984 . S
U926 C930 2.847 . S
U926 C943 2.882 . S
U926 O944 2.441 . S
U926 O945 2.420 . S
U926 O946 2.455 . S
U926 O947 2.449 . S
O927 U926 2.454 . S
O927 C929 1.353 . S
O928 U926 2.458 . S
O928 C929 1.286 . S
C929 U926 2.984 . S
C929 O927 1.353 . S
C929 O928 1.286 . S
C929 C931 1.363 . S
C930 C920 1.465 . S
C930 U926 2.847 . S
C930 O944 1.249 . S
C930 O945 1.202 . S
C931 C929 1.363 . S
C931 C933 1.408 . S
C931 C936 1.342 . S
C932 C933 1.310 . S
C932 C935 1.461 . S
C932 H952 0.932 . S
C933 C931 1.408 . S
C933 C932 1.310 . S
C933 H953 0.930 . S
C934 C935 1.474 . S
C934 C936 1.285 . S
C934 H954 0.929 . S
C935 C932 1.461 . S
C935 C934 1.474 . S
C936 C931 1.342 . S
C936 C934 1.285 . S
C936 H955 0.930 . S
C937 C940 1.424 . S
C937 C942 1.245 . S
C937 C943 1.428 . S
C938 C941 1.260 . S
C938 C942 1.477 . S
C938 H956 0.932 . S
C939 C940 1.384 . S
C939 C941 1.479 . S
C939 H957 0.929 . S
C940 C937 1.424 . S
C940 C939 1.384 . S
C940 H958 0.928 . S
C941 C938 1.260 . S
C941 C939 1.479 . S
C942 C937 1.245 . S
C942 C938 1.477 . S
C942 H959 0.932 . S
C943 U926 2.882 . S
C943 C937 1.428 . S
C943 O946 1.301 . S
C943 O947 1.282 . S
O944 U926 2.441 . S
O944 C930 1.249 . S
O945 U926 2.420 . S
O945 C930 1.202 . S
O946 U926 2.455 . S
O946 C943 1.301 . S
O947 U926 2.449 . S
O947 C943 1.282 . S
H948 C921 0.931 . S
H949 C923 0.929 . S
H950 C924 0.930 . S
H951 C925 0.931 . S
H952 C932 0.932 . S
H953 C933 0.930 . S
H954 C934 0.929 . S
H955 C936 0.930 . S
H956 C938 0.932 . S
H957 C939 0.929 . S
H958 C940 0.928 . S
H959 C942 0.932 . S
C960 C961 1.264 . S
C960 C965 1.479 . S
C960 C970 1.465 . S
C961 C960 1.264 . S
C961 C963 1.339 . S
C961 H988 0.931 . S
C962 C963 1.395 . S
C962 C964 1.320 . S
C963 C961 1.339 . S
C963 C962 1.395 . S
C963 H989 0.929 . S
C964 C962 1.320 . S
C964 C965 1.405 . S
C964 H990 0.930 . S
C965 C960 1.479 . S
C965 C964 1.405 . S
C965 H991 0.931 . S
U966 O967 2.454 . S
U966 O968 2.458 . S
U966 C969 2.984 . S
U966 C970 2.847 . S
U966 C983 2.882 . S
U966 O984 2.441 . S
U966 O985 2.420 . S
U966 O986 2.455 . S
U966 O987 2.449 . S
O967 U966 2.454 . S
O967 C969 1.353 . S
O968 U966 2.458 . S
O968 C969 1.286 . S
C969 U966 2.984 . S
C969 O967 1.353 . S
C969 O968 1.286 . S
C969 C971 1.363 . S
C970 C960 1.465 . S
C970 U966 2.847 . S
C970 O984 1.249 . S
C970 O985 1.202 . S
C971 C969 1.363 . S
C971 C973 1.408 . S
C971 C976 1.342 . S
C972 C973 1.310 1_455 S
C972 C975 1.461 . S
C972 H992 0.932 . S
C973 C971 1.408 . S
C973 C972 1.310 1_655 S
C973 H993 0.930 . S
C974 C975 1.474 . S
C974 C976 1.285 1_455 S
C974 H994 0.929 . S
C975 C972 1.461 . S
C975 C974 1.474 . S
C976 C971 1.342 . S
C976 C974 1.285 1_655 S
C976 H995 0.930 . S
C977 C980 1.424 . S
C977 C982 1.245 . S
C977 C983 1.428 . S
C978 C981 1.260 . S
C978 C982 1.477 . S
C978 H996 0.932 . S
C979 C980 1.384 . S
C979 C981 1.479 . S
C979 H997 0.929 . S
C980 C977 1.424 . S
C980 C979 1.384 . S
C980 H998 0.928 . S
C981 C978 1.260 . S
C981 C979 1.479 . S
C982 C977 1.245 . S
C982 C978 1.477 . S
C982 H999 0.932 . S
C983 U966 2.882 . S
C983 C977 1.428 . S
C983 O986 1.301 . S
C983 O987 1.282 . S
O984 U966 2.441 . S
O984 C970 1.249 . S
O985 U966 2.420 . S
O985 C970 1.202 . S
O986 U966 2.455 . S
O986 C983 1.301 . S
O987 U966 2.449 . S
O987 C983 1.282 . S
H988 C961 0.931 . S
H989 C963 0.929 . S
H990 C964 0.930 . S
H991 C965 0.931 . S
H992 C972 0.932 . S
H993 C973 0.930 . S
H994 C974 0.929 . S
H995 C976 0.930 . S
H996 C978 0.932 . S
H997 C979 0.929 . S
H998 C980 0.928 . S
H999 C982 0.932 . S
C1000 C1001 1.264 . S
C1000 C1005 1.479 . S
C1000 C1010 1.465 . S
C1001 C1000 1.264 . S
C1001 C1003 1.339 . S
C1001 H1028 0.931 . S
C1002 C1003 1.395 . S
C1002 C1004 1.320 . S
C1003 C1001 1.339 . S
C1003 C1002 1.395 . S
C1003 H1029 0.929 . S
C1004 C1002 1.320 . S
C1004 C1005 1.405 . S
C1004 H1030 0.930 . S
C1005 C1000 1.479 . S
C1005 C1004 1.405 . S
C1005 H1031 0.931 . S
U1006 O1007 2.454 . S
U1006 O1008 2.458 . S
U1006 C1009 2.984 . S
U1006 C1010 2.847 . S
U1006 C1023 2.882 . S
U1006 O1024 2.441 . S
U1006 O1025 2.420 . S
U1006 O1026 2.455 . S
U1006 O1027 2.449 . S
O1007 U1006 2.454 . S
O1007 C1009 1.353 . S
O1008 U1006 2.458 . S
O1008 C1009 1.286 . S
C1009 U1006 2.984 . S
C1009 O1007 1.353 . S
C1009 O1008 1.286 . S
C1009 C1011 1.363 . S
C1010 C1000 1.465 . S
C1010 U1006 2.847 . S
C1010 O1024 1.249 . S
C1010 O1025 1.202 . S
C1011 C1009 1.363 . S
C1011 C1013 1.408 . S
C1011 C1016 1.342 . S
C1012 C1013 1.310 . S
C1012 C1015 1.461 . S
C1012 H1032 0.932 . S
C1013 C1011 1.408 . S
C1013 C1012 1.310 . S
C1013 H1033 0.930 . S
C1014 C1015 1.474 . S
C1014 C1016 1.285 . S
C1014 H1034 0.929 . S
C1015 C1012 1.461 . S
C1015 C1014 1.474 . S
C1016 C1011 1.342 . S
C1016 C1014 1.285 . S
C1016 H1035 0.930 . S
C1017 C1020 1.424 . S
C1017 C1022 1.245 . S
C1017 C1023 1.428 . S
C1018 C1021 1.260 . S
C1018 C1022 1.477 . S
C1018 H1036 0.932 . S
C1019 C1020 1.384 . S
C1019 C1021 1.479 . S
C1019 H1037 0.929 . S
C1020 C1017 1.424 . S
C1020 C1019 1.384 . S
C1020 H1038 0.928 . S
C1021 C1018 1.260 . S
C1021 C1019 1.479 . S
C1022 C1017 1.245 . S
C1022 C1018 1.477 . S
C1022 H1039 0.932 . S
C1023 U1006 2.882 . S
C1023 C1017 1.428 . S
C1023 O1026 1.301 . S
C1023 O1027 1.282 . S
O1024 U1006 2.441 . S
O1024 C1010 1.249 . S
O1025 U1006 2.420 . S
O1025 C1010 1.202 . S
O1026 U1006 2.455 . S
O1026 C1023 1.301 . S
O1027 U1006 2.449 . S
O1027 C1023 1.282 . S
H1028 C1001 0.931 . S
H1029 C1003 0.929 . S
H1030 C1004 0.930 . S
H1031 C1005 0.931 . S
H1032 C1012 0.932 . S
H1033 C1013 0.930 . S
H1034 C1014 0.929 . S
H1035 C1016 0.930 . S
H1036 C1018 0.932 . S
H1037 C1019 0.929 . S
H1038 C1020 0.928 . S
H1039 C1022 0.932 . S
C1040 C1041 1.264 . S
C1040 C1045 1.479 . S
C1040 C1050 1.465 . S
C1041 C1040 1.264 . S
C1041 C1043 1.339 . S
C1041 H1068 0.931 . S
C1042 C1043 1.395 . S
C1042 C1044 1.320 . S
C1043 C1041 1.339 . S
C1043 C1042 1.395 . S
C1043 H1069 0.929 . S
C1044 C1042 1.320 . S
C1044 C1045 1.405 . S
C1044 H1070 0.930 . S
C1045 C1040 1.479 . S
C1045 C1044 1.405 . S
C1045 H1071 0.931 . S
U1046 O1047 2.454 . S
U1046 O1048 2.458 . S
U1046 C1049 2.984 . S
U1046 C1050 2.847 . S
U1046 C1063 2.882 . S
U1046 O1064 2.441 . S
U1046 O1065 2.420 . S
U1046 O1066 2.455 . S
U1046 O1067 2.449 . S
O1047 U1046 2.454 . S
O1047 C1049 1.353 . S
O1048 U1046 2.458 . S
O1048 C1049 1.286 . S
C1049 U1046 2.984 . S
C1049 O1047 1.353 . S
C1049 O1048 1.286 . S
C1049 C1051 1.363 . S
C1050 C1040 1.465 . S
C1050 U1046 2.847 . S
C1050 O1064 1.249 . S
C1050 O1065 1.202 . S
C1051 C1049 1.363 . S
C1051 C1053 1.408 . S
C1051 C1056 1.342 . S
C1052 C1053 1.310 . S
C1052 C1055 1.461 . S
C1052 H1072 0.932 . S
C1053 C1051 1.408 . S
C1053 C1052 1.310 . S
C1053 H1073 0.930 . S
C1054 C1055 1.474 . S
C1054 C1056 1.285 . S
C1054 H1074 0.929 . S
C1055 C1052 1.461 . S
C1055 C1054 1.474 . S
C1056 C1051 1.342 . S
C1056 C1054 1.285 . S
C1056 H1075 0.930 . S
C1057 C1060 1.424 . S
C1057 C1062 1.245 . S
C1057 C1063 1.428 . S
C1058 C1061 1.260 . S
C1058 C1062 1.477 . S
C1058 H1076 0.932 . S
C1059 C1060 1.384 . S
C1059 C1061 1.479 . S
C1059 H1077 0.929 . S
C1060 C1057 1.424 . S
C1060 C1059 1.384 . S
C1060 H1078 0.928 . S
C1061 C1058 1.260 . S
C1061 C1059 1.479 . S
C1062 C1057 1.245 . S
C1062 C1058 1.477 . S
C1062 H1079 0.932 . S
C1063 U1046 2.882 . S
C1063 C1057 1.428 . S
C1063 O1066 1.301 . S
C1063 O1067 1.282 . S
O1064 U1046 2.441 . S
O1064 C1050 1.249 . S
O1065 U1046 2.420 . S
O1065 C1050 1.202 . S
O1066 U1046 2.455 . S
O1066 C1063 1.301 . S
O1067 U1046 2.449 . S
O1067 C1063 1.282 . S
H1068 C1041 0.931 . S
H1069 C1043 0.929 . S
H1070 C1044 0.930 . S
H1071 C1045 0.931 . S
H1072 C1052 0.932 . S
H1073 C1053 0.930 . S
H1074 C1054 0.929 . S
H1075 C1056 0.930 . S
H1076 C1058 0.932 . S
H1077 C1059 0.929 . S
H1078 C1060 0.928 . S
H1079 C1062 0.932 . S
C1080 C1081 1.264 . S
C1080 C1085 1.479 . S
C1080 C1090 1.465 . S
C1081 C1080 1.264 . S
C1081 C1083 1.339 . S
C1081 H1108 0.931 . S
C1082 C1083 1.395 . S
C1082 C1084 1.320 . S
C1083 C1081 1.339 . S
C1083 C1082 1.395 . S
C1083 H1109 0.929 . S
C1084 C1082 1.320 . S
C1084 C1085 1.405 . S
C1084 H1110 0.930 . S
C1085 C1080 1.479 . S
C1085 C1084 1.405 . S
C1085 H1111 0.931 . S
U1086 O1087 2.454 . S
U1086 O1088 2.458 . S
U1086 C1089 2.984 . S
U1086 C1090 2.847 . S
U1086 C1103 2.882 . S
U1086 O1104 2.441 . S
U1086 O1105 2.420 . S
U1086 O1106 2.455 . S
U1086 O1107 2.449 . S
O1087 U1086 2.454 . S
O1087 C1089 1.353 . S
O1088 U1086 2.458 . S
O1088 C1089 1.286 . S
C1089 U1086 2.984 . S
C1089 O1087 1.353 . S
C1089 O1088 1.286 . S
C1089 C1091 1.363 . S
C1090 C1080 1.465 . S
C1090 U1086 2.847 . S
C1090 O1104 1.249 . S
C1090 O1105 1.202 . S
C1091 C1089 1.363 . S
C1091 C1093 1.408 . S
C1091 C1096 1.342 . S
C1092 C1093 1.310 . S
C1092 C1095 1.461 . S
C1092 H1112 0.932 . S
C1093 C1091 1.408 . S
C1093 C1092 1.310 . S
C1093 H1113 0.930 . S
C1094 C1095 1.474 . S
C1094 C1096 1.285 . S
C1094 H1114 0.929 . S
C1095 C1092 1.461 . S
C1095 C1094 1.474 . S
C1096 C1091 1.342 . S
C1096 C1094 1.285 . S
C1096 H1115 0.930 . S
C1097 C1100 1.424 . S
C1097 C1102 1.245 . S
C1097 C1103 1.428 . S
C1098 C1101 1.260 . S
C1098 C1102 1.477 . S
C1098 H1116 0.932 . S
C1099 C1100 1.384 . S
C1099 C1101 1.479 . S
C1099 H1117 0.929 . S
C1100 C1097 1.424 . S
C1100 C1099 1.384 . S
C1100 H1118 0.928 . S
C1101 C1098 1.260 . S
C1101 C1099 1.479 . S
C1102 C1097 1.245 . S
C1102 C1098 1.477 . S
C1102 H1119 0.932 . S
C1103 U1086 2.882 . S
C1103 C1097 1.428 . S
C1103 O1106 1.301 . S
C1103 O1107 1.282 . S
O1104 U1086 2.441 . S
O1104 C1090 1.249 . S
O1105 U1086 2.420 . S
O1105 C1090 1.202 . S
O1106 U1086 2.455 . S
O1106 C1103 1.301 . S
O1107 U1086 2.449 . S
O1107 C1103 1.282 . S
H1108 C1081 0.931 . S
H1109 C1083 0.929 . S
H1110 C1084 0.930 . S
H1111 C1085 0.931 . S
H1112 C1092 0.932 . S
H1113 C1093 0.930 . S
H1114 C1094 0.929 . S
H1115 C1096 0.930 . S
H1116 C1098 0.932 . S
H1117 C1099 0.929 . S
H1118 C1100 0.928 . S
H1119 C1102 0.932 . S
C1120 C1121 1.264 . S
C1120 C1125 1.479 . S
C1120 C1130 1.465 . S
C1121 C1120 1.264 . S
C1121 C1123 1.339 . S
C1121 H1148 0.931 . S
C1122 C1123 1.395 . S
C1122 C1124 1.320 . S
C1123 C1121 1.339 . S
C1123 C1122 1.395 . S
C1123 H1149 0.929 . S
C1124 C1122 1.320 . S
C1124 C1125 1.405 . S
C1124 H1150 0.930 . S
C1125 C1120 1.479 . S
C1125 C1124 1.405 . S
C1125 H1151 0.931 . S
U1126 O1127 2.454 . S
U1126 O1128 2.458 . S
U1126 C1129 2.984 . S
U1126 C1130 2.847 . S
U1126 C1143 2.882 . S
U1126 O1144 2.441 . S
U1126 O1145 2.420 . S
U1126 O1146 2.455 . S
U1126 O1147 2.449 . S
O1127 U1126 2.454 . S
O1127 C1129 1.353 . S
O1128 U1126 2.458 . S
O1128 C1129 1.286 . S
C1129 U1126 2.984 . S
C1129 O1127 1.353 . S
C1129 O1128 1.286 . S
C1129 C1131 1.363 . S
C1130 C1120 1.465 . S
C1130 U1126 2.847 . S
C1130 O1144 1.249 . S
C1130 O1145 1.202 . S
C1131 C1129 1.363 . S
C1131 C1133 1.408 . S
C1131 C1136 1.342 . S
C1132 C1133 1.310 1_455 S
C1132 C1135 1.461 . S
C1132 H1152 0.932 . S
C1133 C1131 1.408 . S
C1133 C1132 1.310 1_655 S
C1133 H1153 0.930 . S
C1134 C1135 1.474 . S
C1134 C1136 1.285 1_455 S
C1134 H1154 0.929 . S
C1135 C1132 1.461 . S
C1135 C1134 1.474 . S
C1136 C1131 1.342 . S
C1136 C1134 1.285 1_655 S
C1136 H1155 0.930 . S
C1137 C1140 1.424 . S
C1137 C1142 1.245 . S
C1137 C1143 1.428 . S
C1138 C1141 1.260 . S
C1138 C1142 1.477 . S
C1138 H1156 0.932 . S
C1139 C1140 1.384 . S
C1139 C1141 1.479 . S
C1139 H1157 0.929 . S
C1140 C1137 1.424 . S
C1140 C1139 1.384 . S
C1140 H1158 0.928 . S
C1141 C1138 1.260 . S
C1141 C1139 1.479 . S
C1142 C1137 1.245 . S
C1142 C1138 1.477 . S
C1142 H1159 0.932 . S
C1143 U1126 2.882 . S
C1143 C1137 1.428 . S
C1143 O1146 1.301 . S
C1143 O1147 1.282 . S
O1144 U1126 2.441 . S
O1144 C1130 1.249 . S
O1145 U1126 2.420 . S
O1145 C1130 1.202 . S
O1146 U1126 2.455 . S
O1146 C1143 1.301 . S
O1147 U1126 2.449 . S
O1147 C1143 1.282 . S
H1148 C1121 0.931 . S
H1149 C1123 0.929 . S
H1150 C1124 0.930 . S
H1151 C1125 0.931 . S
H1152 C1132 0.932 . S
H1153 C1133 0.930 . S
H1154 C1134 0.929 . S
H1155 C1136 0.930 . S
H1156 C1138 0.932 . S
H1157 C1139 0.929 . S
H1158 C1140 0.928 . S
H1159 C1142 0.932 . S
C1160 C1161 1.264 . S
C1160 C1165 1.479 . S
C1160 C1170 1.465 . S
C1161 C1160 1.264 . S
C1161 C1163 1.339 . S
C1161 H1188 0.931 . S
C1162 C1163 1.395 . S
C1162 C1164 1.320 . S
C1163 C1161 1.339 . S
C1163 C1162 1.395 . S
C1163 H1189 0.929 . S
C1164 C1162 1.320 . S
C1164 C1165 1.405 . S
C1164 H1190 0.930 . S
C1165 C1160 1.479 . S
C1165 C1164 1.405 . S
C1165 H1191 0.931 . S
U1166 O1167 2.454 . S
U1166 O1168 2.458 . S
U1166 C1169 2.984 . S
U1166 C1170 2.847 . S
U1166 C1183 2.882 . S
U1166 O1184 2.441 . S
U1166 O1185 2.420 . S
U1166 O1186 2.455 . S
U1166 O1187 2.449 . S
O1167 U1166 2.454 . S
O1167 C1169 1.353 . S
O1168 U1166 2.458 . S
O1168 C1169 1.286 . S
C1169 U1166 2.984 . S
C1169 O1167 1.353 . S
C1169 O1168 1.286 . S
C1169 C1171 1.363 . S
C1170 C1160 1.465 . S
C1170 U1166 2.847 . S
C1170 O1184 1.249 . S
C1170 O1185 1.202 . S
C1171 C1169 1.363 . S
C1171 C1173 1.408 . S
C1171 C1176 1.342 . S
C1172 C1173 1.310 . S
C1172 C1175 1.461 . S
C1172 H1192 0.932 . S
C1173 C1171 1.408 . S
C1173 C1172 1.310 . S
C1173 H1193 0.930 . S
C1174 C1175 1.474 . S
C1174 C1176 1.285 . S
C1174 H1194 0.929 . S
C1175 C1172 1.461 . S
C1175 C1174 1.474 . S
C1176 C1171 1.342 . S
C1176 C1174 1.285 . S
C1176 H1195 0.930 . S
C1177 C1180 1.424 . S
C1177 C1182 1.245 . S
C1177 C1183 1.428 . S
C1178 C1181 1.260 . S
C1178 C1182 1.477 . S
C1178 H1196 0.932 . S
C1179 C1180 1.384 . S
C1179 C1181 1.479 . S
C1179 H1197 0.929 . S
C1180 C1177 1.424 . S
C1180 C1179 1.384 . S
C1180 H1198 0.928 . S
C1181 C1178 1.260 . S
C1181 C1179 1.479 . S
C1182 C1177 1.245 . S
C1182 C1178 1.477 . S
C1182 H1199 0.932 . S
C1183 U1166 2.882 . S
C1183 C1177 1.428 . S
C1183 O1186 1.301 . S
C1183 O1187 1.282 . S
O1184 U1166 2.441 . S
O1184 C1170 1.249 . S
O1185 U1166 2.420 . S
O1185 C1170 1.202 . S
O1186 U1166 2.455 . S
O1186 C1183 1.301 . S
O1187 U1166 2.449 . S
O1187 C1183 1.282 . S
H1188 C1161 0.931 . S
H1189 C1163 0.929 . S
H1190 C1164 0.930 . S
H1191 C1165 0.931 . S
H1192 C1172 0.932 . S
H1193 C1173 0.930 . S
H1194 C1174 0.929 . S
H1195 C1176 0.930 . S
H1196 C1178 0.932 . S
H1197 C1179 0.929 . S
H1198 C1180 0.928 . S
H1199 C1182 0.932 . S
C1200 C1201 1.264 . S
C1200 C1205 1.479 . S
C1200 C1210 1.465 . S
C1201 C1200 1.264 . S
C1201 C1203 1.339 . S
C1201 H1228 0.931 . S
C1202 C1203 1.395 . S
C1202 C1204 1.320 . S
C1203 C1201 1.339 . S
C1203 C1202 1.395 . S
C1203 H1229 0.929 . S
C1204 C1202 1.320 . S
C1204 C1205 1.405 . S
C1204 H1230 0.930 . S
C1205 C1200 1.479 . S
C1205 C1204 1.405 . S
C1205 H1231 0.931 . S
U1206 O1207 2.454 . S
U1206 O1208 2.458 . S
U1206 C1209 2.984 . S
U1206 C1210 2.847 . S
U1206 C1223 2.882 . S
U1206 O1224 2.441 . S
U1206 O1225 2.420 . S
U1206 O1226 2.455 . S
U1206 O1227 2.449 . S
O1207 U1206 2.454 . S
O1207 C1209 1.353 . S
O1208 U1206 2.458 . S
O1208 C1209 1.286 . S
C1209 U1206 2.984 . S
C1209 O1207 1.353 . S
C1209 O1208 1.286 . S
C1209 C1211 1.363 . S
C1210 C1200 1.465 . S
C1210 U1206 2.847 . S
C1210 O1224 1.249 . S
C1210 O1225 1.202 . S
C1211 C1209 1.363 . S
C1211 C1213 1.408 . S
C1211 C1216 1.342 . S
C1212 C1213 1.310 . S
C1212 C1215 1.461 . S
C1212 H1232 0.932 . S
C1213 C1211 1.408 . S
C1213 C1212 1.310 . S
C1213 H1233 0.930 . S
C1214 C1215 1.474 . S
C1214 C1216 1.285 . S
C1214 H1234 0.929 . S
C1215 C1212 1.461 . S
C1215 C1214 1.474 . S
C1216 C1211 1.342 . S
C1216 C1214 1.285 . S
C1216 H1235 0.930 . S
C1217 C1220 1.424 . S
C1217 C1222 1.245 . S
C1217 C1223 1.428 . S
C1218 C1221 1.260 . S
C1218 C1222 1.477 . S
C1218 H1236 0.932 . S
C1219 C1220 1.384 . S
C1219 C1221 1.479 . S
C1219 H1237 0.929 . S
C1220 C1217 1.424 . S
C1220 C1219 1.384 . S
C1220 H1238 0.928 . S
C1221 C1218 1.260 . S
C1221 C1219 1.479 . S
C1222 C1217 1.245 . S
C1222 C1218 1.477 . S
C1222 H1239 0.932 . S
C1223 U1206 2.882 . S
C1223 C1217 1.428 . S
C1223 O1226 1.301 . S
C1223 O1227 1.282 . S
O1224 U1206 2.441 . S
O1224 C1210 1.249 . S
O1225 U1206 2.420 . S
O1225 C1210 1.202 . S
O1226 U1206 2.455 . S
O1226 C1223 1.301 . S
O1227 U1206 2.449 . S
O1227 C1223 1.282 . S
H1228 C1201 0.931 . S
H1229 C1203 0.929 . S
H1230 C1204 0.930 . S
H1231 C1205 0.931 . S
H1232 C1212 0.932 . S
H1233 C1213 0.930 . S
H1234 C1214 0.929 . S
H1235 C1216 0.930 . S
H1236 C1218 0.932 . S
H1237 C1219 0.929 . S
H1238 C1220 0.928 . S
H1239 C1222 0.932 . S
C1240 C1241 1.264 . S
C1240 C1245 1.479 . S
C1240 C1250 1.465 . S
C1241 C1240 1.264 . S
C1241 C1243 1.339 . S
C1241 H1268 0.931 . S
C1242 C1243 1.395 . S
C1242 C1244 1.320 . S
C1243 C1241 1.339 . S
C1243 C1242 1.395 . S
C1243 H1269 0.929 . S
C1244 C1242 1.320 . S
C1244 C1245 1.405 . S
C1244 H1270 0.930 . S
C1245 C1240 1.479 . S
C1245 C1244 1.405 . S
C1245 H1271 0.931 . S
U1246 O1247 2.454 . S
U1246 O1248 2.458 . S
U1246 C1249 2.984 . S
U1246 C1250 2.847 . S
U1246 C1263 2.882 . S
U1246 O1264 2.441 . S
U1246 O1265 2.420 . S
U1246 O1266 2.455 . S
U1246 O1267 2.449 . S
O1247 U1246 2.454 . S
O1247 C1249 1.353 . S
O1248 U1246 2.458 . S
O1248 C1249 1.286 . S
C1249 U1246 2.984 . S
C1249 O1247 1.353 . S
C1249 O1248 1.286 . S
C1249 C1251 1.363 . S
C1250 C1240 1.465 . S
C1250 U1246 2.847 . S
C1250 O1264 1.249 . S
C1250 O1265 1.202 . S
C1251 C1249 1.363 . S
C1251 C1253 1.408 . S
C1251 C1256 1.342 . S
C1252 C1253 1.310 . S
C1252 C1255 1.461 . S
C1252 H1272 0.932 . S
C1253 C1251 1.408 . S
C1253 C1252 1.310 . S
C1253 H1273 0.930 . S
C1254 C1255 1.474 . S
C1254 C1256 1.285 . S
C1254 H1274 0.929 . S
C1255 C1252 1.461 . S
C1255 C1254 1.474 . S
C1256 C1251 1.342 . S
C1256 C1254 1.285 . S
C1256 H1275 0.930 . S
C1257 C1260 1.424 . S
C1257 C1262 1.245 . S
C1257 C1263 1.428 . S
C1258 C1261 1.260 . S
C1258 C1262 1.477 . S
C1258 H1276 0.932 . S
C1259 C1260 1.384 . S
C1259 C1261 1.479 . S
C1259 H1277 0.929 . S
C1260 C1257 1.424 . S
C1260 C1259 1.384 . S
C1260 H1278 0.928 . S
C1261 C1258 1.260 . S
C1261 C1259 1.479 . S
C1262 C1257 1.245 . S
C1262 C1258 1.477 . S
C1262 H1279 0.932 . S
C1263 U1246 2.882 . S
C1263 C1257 1.428 . S
C1263 O1266 1.301 . S
C1263 O1267 1.282 . S
O1264 U1246 2.441 . S
O1264 C1250 1.249 . S
O1265 U1246 2.420 . S
O1265 C1250 1.202 . S
O1266 U1246 2.455 . S
O1266 C1263 1.301 . S
O1267 U1246 2.449 . S
O1267 C1263 1.282 . S
H1268 C1241 0.931 . S
H1269 C1243 0.929 . S
H1270 C1244 0.930 . S
H1271 C1245 0.931 . S
H1272 C1252 0.932 . S
H1273 C1253 0.930 . S
H1274 C1254 0.929 . S
H1275 C1256 0.930 . S
H1276 C1258 0.932 . S
H1277 C1259 0.929 . S
H1278 C1260 0.928 . S
H1279 C1262 0.932 . S
C1280 C1281 1.264 . S
C1280 C1285 1.479 . S
C1280 C1290 1.465 . S
C1281 C1280 1.264 . S
C1281 C1283 1.339 . S
C1281 H1308 0.931 . S
C1282 C1283 1.395 . S
C1282 C1284 1.320 . S
C1283 C1281 1.339 . S
C1283 C1282 1.395 . S
C1283 H1309 0.929 . S
C1284 C1282 1.320 . S
C1284 C1285 1.405 . S
C1284 H1310 0.930 . S
C1285 C1280 1.479 . S
C1285 C1284 1.405 . S
C1285 H1311 0.931 . S
U1286 O1287 2.454 . S
U1286 O1288 2.458 . S
U1286 C1289 2.984 . S
U1286 C1290 2.847 . S
U1286 C1303 2.882 . S
U1286 O1304 2.441 . S
U1286 O1305 2.420 . S
U1286 O1306 2.455 . S
U1286 O1307 2.449 . S
O1287 U1286 2.454 . S
O1287 C1289 1.353 . S
O1288 U1286 2.458 . S
O1288 C1289 1.286 . S
C1289 U1286 2.984 . S
C1289 O1287 1.353 . S
C1289 O1288 1.286 . S
C1289 C1291 1.363 . S
C1290 C1280 1.465 . S
C1290 U1286 2.847 . S
C1290 O1304 1.249 . S
C1290 O1305 1.202 . S
C1291 C1289 1.363 . S
C1291 C1293 1.424 . S
C1291 C1296 1.342 . S
C1292 C1293 1.278 1_545 S
C1292 C1295 1.461 . S
C1292 H1312 0.932 . S
C1293 C1291 1.424 . S
C1293 C1292 1.278 1_565 S
C1293 H1313 0.946 . S
C1294 C1295 1.474 . S
C1294 C1296 1.285 1_545 S
C1294 H1314 0.929 . S
C1295 C1292 1.461 . S
C1295 C1294 1.474 . S
C1296 C1291 1.342 . S
C1296 C1294 1.285 1_565 S
C1296 H1315 0.930 . S
C1297 C1300 1.424 . S
C1297 C1302 1.245 . S
C1297 C1303 1.428 . S
C1298 C1301 1.260 . S
C1298 C1302 1.477 . S
C1298 H1316 0.932 . S
C1299 C1300 1.384 . S
C1299 C1301 1.479 . S
C1299 H1317 0.929 . S
C1300 C1297 1.424 . S
C1300 C1299 1.384 . S
C1300 H1318 0.928 . S
C1301 C1298 1.260 . S
C1301 C1299 1.479 . S
C1302 C1297 1.245 . S
C1302 C1298 1.477 . S
C1302 H1319 0.932 . S
C1303 U1286 2.882 . S
C1303 C1297 1.428 . S
C1303 O1306 1.301 . S
C1303 O1307 1.282 . S
O1304 U1286 2.441 . S
O1304 C1290 1.249 . S
O1305 U1286 2.420 . S
O1305 C1290 1.202 . S
O1306 U1286 2.455 . S
O1306 C1303 1.301 . S
O1307 U1286 2.449 . S
O1307 C1303 1.282 . S
H1308 C1281 0.931 . S
H1309 C1283 0.929 . S
H1310 C1284 0.930 . S
H1311 C1285 0.931 . S
H1312 C1292 0.932 . S
H1313 C1293 0.946 . S
H1314 C1294 0.929 . S
H1315 C1296 0.930 . S
H1316 C1298 0.932 . S
H1317 C1299 0.929 . S
H1318 C1300 0.928 . S
H1319 C1302 0.932 . S
C1320 C1321 1.264 . S
C1320 C1325 1.479 . S
C1320 C1330 1.465 . S
C1321 C1320 1.264 . S
C1321 C1323 1.339 . S
C1321 H1348 0.931 . S
C1322 C1323 1.395 . S
C1322 C1324 1.320 . S
C1323 C1321 1.339 . S
C1323 C1322 1.395 . S
C1323 H1349 0.929 . S
C1324 C1322 1.320 . S
C1324 C1325 1.405 . S
C1324 H1350 0.930 . S
C1325 C1320 1.479 . S
C1325 C1324 1.405 . S
C1325 H1351 0.931 . S
U1326 O1327 2.454 . S
U1326 O1328 2.458 . S
U1326 C1329 2.984 . S
U1326 C1330 2.847 . S
U1326 C1343 2.882 . S
U1326 O1344 2.441 . S
U1326 O1345 2.420 . S
U1326 O1346 2.455 . S
U1326 O1347 2.449 . S
O1327 U1326 2.454 . S
O1327 C1329 1.353 . S
O1328 U1326 2.458 . S
O1328 C1329 1.286 . S
C1329 U1326 2.984 . S
C1329 O1327 1.353 . S
C1329 O1328 1.286 . S
C1329 C1331 1.363 . S
C1330 C1320 1.465 . S
C1330 U1326 2.847 . S
C1330 O1344 1.249 . S
C1330 O1345 1.202 . S
C1331 C1329 1.363 . S
C1331 C1333 1.408 . S
C1331 C1336 1.342 . S
C1332 C1333 1.310 . S
C1332 C1335 1.461 . S
C1332 H1352 0.932 . S
C1333 C1331 1.408 . S
C1333 C1332 1.310 . S
C1333 H1353 0.930 . S
C1334 C1335 1.474 . S
C1334 C1336 1.285 . S
C1334 H1354 0.929 . S
C1335 C1332 1.461 . S
C1335 C1334 1.474 . S
C1336 C1331 1.342 . S
C1336 C1334 1.285 . S
C1336 H1355 0.930 . S
C1337 C1340 1.424 . S
C1337 C1342 1.245 . S
C1337 C1343 1.428 . S
C1338 C1341 1.260 . S
C1338 C1342 1.477 . S
C1338 H1356 0.932 . S
C1339 C1340 1.384 . S
C1339 C1341 1.479 . S
C1339 H1357 0.929 . S
C1340 C1337 1.424 . S
C1340 C1339 1.384 . S
C1340 H1358 0.928 . S
C1341 C1338 1.260 . S
C1341 C1339 1.479 . S
C1342 C1337 1.245 . S
C1342 C1338 1.477 . S
C1342 H1359 0.932 . S
C1343 U1326 2.882 . S
C1343 C1337 1.428 . S
C1343 O1346 1.301 . S
C1343 O1347 1.282 . S
O1344 U1326 2.441 . S
O1344 C1330 1.249 . S
O1345 U1326 2.420 . S
O1345 C1330 1.202 . S
O1346 U1326 2.455 . S
O1346 C1343 1.301 . S
O1347 U1326 2.449 . S
O1347 C1343 1.282 . S
H1348 C1321 0.931 . S
H1349 C1323 0.929 . S
H1350 C1324 0.930 . S
H1351 C1325 0.931 . S
H1352 C1332 0.932 . S
H1353 C1333 0.930 . S
H1354 C1334 0.929 . S
H1355 C1336 0.930 . S
H1356 C1338 0.932 . S
H1357 C1339 0.929 . S
H1358 C1340 0.928 . S
H1359 C1342 0.932 . S
C1360 C1361 1.264 . S
C1360 C1365 1.479 . S
C1360 C1370 1.465 . S
C1361 C1360 1.264 . S
C1361 C1363 1.339 . S
C1361 H1388 0.931 . S
C1362 C1363 1.395 . S
C1362 C1364 1.320 . S
C1363 C1361 1.339 . S
C1363 C1362 1.395 . S
C1363 H1389 0.929 . S
C1364 C1362 1.320 . S
C1364 C1365 1.405 . S
C1364 H1390 0.930 . S
C1365 C1360 1.479 . S
C1365 C1364 1.405 . S
C1365 H1391 0.931 . S
U1366 O1367 2.454 . S
U1366 O1368 2.458 . S
U1366 C1369 2.984 . S
U1366 C1370 2.847 . S
U1366 C1383 2.882 . S
U1366 O1384 2.441 . S
U1366 O1385 2.420 . S
U1366 O1386 2.455 . S
U1366 O1387 2.449 . S
O1367 U1366 2.454 . S
O1367 C1369 1.353 . S
O1368 U1366 2.458 . S
O1368 C1369 1.286 . S
C1369 U1366 2.984 . S
C1369 O1367 1.353 . S
C1369 O1368 1.286 . S
C1369 C1371 1.363 1_545 S
C1370 C1360 1.465 . S
C1370 U1366 2.847 . S
C1370 O1384 1.249 . S
C1370 O1385 1.202 . S
C1371 C1369 1.363 1_565 S
C1371 C1373 1.408 . S
C1371 C1376 1.342 . S
C1372 C1373 1.310 . S
C1372 C1375 1.461 . S
C1372 H1392 0.932 . S
C1373 C1371 1.408 . S
C1373 C1372 1.310 . S
C1373 H1393 0.930 . S
C1374 C1375 1.474 . S
C1374 C1376 1.285 . S
C1374 H1394 0.929 . S
C1375 C1372 1.461 . S
C1375 C1374 1.474 . S
C1376 C1371 1.342 . S
C1376 C1374 1.285 . S
C1376 H1395 0.930 . S
C1377 C1380 1.424 . S
C1377 C1382 1.245 . S
C1377 C1383 1.428 . S
C1378 C1381 1.260 . S
C1378 C1382 1.477 . S
C1378 H1396 0.932 . S
C1379 C1380 1.384 . S
C1379 C1381 1.479 . S
C1379 H1397 0.929 . S
C1380 C1377 1.424 . S
C1380 C1379 1.384 . S
C1380 H1398 0.928 . S
C1381 C1378 1.260 . S
C1381 C1379 1.479 . S
C1382 C1377 1.245 . S
C1382 C1378 1.477 . S
C1382 H1399 0.932 . S
C1383 U1366 2.882 . S
C1383 C1377 1.428 . S
C1383 O1386 1.301 . S
C1383 O1387 1.282 . S
O1384 U1366 2.441 . S
O1384 C1370 1.249 . S
O1385 U1366 2.420 . S
O1385 C1370 1.202 . S
O1386 U1366 2.455 . S
O1386 C1383 1.301 . S
O1387 U1366 2.449 . S
O1387 C1383 1.282 . S
H1388 C1361 0.931 . S
H1389 C1363 0.929 . S
H1390 C1364 0.930 . S
H1391 C1365 0.931 . S
H1392 C1372 0.932 . S
H1393 C1373 0.930 . S
H1394 C1374 0.929 . S
H1395 C1376 0.930 . S
H1396 C1378 0.932 . S
H1397 C1379 0.929 . S
H1398 C1380 0.928 . S
H1399 C1382 0.932 . S
C1400 C1401 1.264 . S
C1400 C1405 1.479 . S
C1400 C1410 1.465 . S
C1401 C1400 1.264 . S
C1401 C1403 1.339 . S
C1401 H1428 0.931 . S
C1402 C1403 1.395 . S
C1402 C1404 1.320 . S
C1403 C1401 1.339 . S
C1403 C1402 1.395 . S
C1403 H1429 0.929 . S
C1404 C1402 1.320 . S
C1404 C1405 1.405 . S
C1404 H1430 0.930 . S
C1405 C1400 1.479 . S
C1405 C1404 1.405 . S
C1405 H1431 0.931 . S
U1406 O1407 2.454 . S
U1406 O1408 2.458 . S
U1406 C1409 2.984 . S
U1406 C1410 2.847 . S
U1406 C1423 2.882 . S
U1406 O1424 2.441 . S
U1406 O1425 2.420 . S
U1406 O1426 2.455 . S
U1406 O1427 2.449 . S
O1407 U1406 2.454 . S
O1407 C1409 1.353 . S
O1408 U1406 2.458 . S
O1408 C1409 1.286 . S
C1409 U1406 2.984 . S
C1409 O1407 1.353 . S
C1409 O1408 1.286 . S
C1409 C1411 1.363 . S
C1410 C1400 1.465 . S
C1410 U1406 2.847 . S
C1410 O1424 1.249 . S
C1410 O1425 1.202 . S
C1411 C1409 1.363 . S
C1411 C1413 1.408 . S
C1411 C1416 1.342 . S
C1412 C1413 1.310 . S
C1412 C1415 1.461 . S
C1412 H1432 0.932 . S
C1413 C1411 1.408 . S
C1413 C1412 1.310 . S
C1413 H1433 0.930 . S
C1414 C1415 1.474 . S
C1414 C1416 1.285 . S
C1414 H1434 0.929 . S
C1415 C1412 1.461 . S
C1415 C1414 1.474 . S
C1416 C1411 1.342 . S
C1416 C1414 1.285 . S
C1416 H1435 0.930 . S
C1417 C1420 1.424 . S
C1417 C1422 1.245 . S
C1417 C1423 1.428 . S
C1418 C1421 1.260 . S
C1418 C1422 1.477 . S
C1418 H1436 0.932 . S
C1419 C1420 1.384 . S
C1419 C1421 1.479 . S
C1419 H1437 0.929 . S
C1420 C1417 1.424 . S
C1420 C1419 1.384 . S
C1420 H1438 0.928 . S
C1421 C1418 1.260 . S
C1421 C1419 1.479 . S
C1422 C1417 1.245 . S
C1422 C1418 1.477 . S
C1422 H1439 0.932 . S
C1423 U1406 2.882 . S
C1423 C1417 1.428 . S
C1423 O1426 1.301 . S
C1423 O1427 1.282 . S
O1424 U1406 2.441 . S
O1424 C1410 1.249 . S
O1425 U1406 2.420 . S
O1425 C1410 1.202 . S
O1426 U1406 2.455 . S
O1426 C1423 1.301 . S
O1427 U1406 2.449 . S
O1427 C1423 1.282 . S
H1428 C1401 0.931 . S
H1429 C1403 0.929 . S
H1430 C1404 0.930 . S
H1431 C1405 0.931 . S
H1432 C1412 0.932 . S
H1433 C1413 0.930 . S
H1434 C1414 0.929 . S
H1435 C1416 0.930 . S
H1436 C1418 0.932 . S
H1437 C1419 0.929 . S
H1438 C1420 0.928 . S
H1439 C1422 0.932 . S
C1440 C1441 1.264 . S
C1440 C1445 1.479 . S
C1440 C1450 1.465 . S
C1441 C1440 1.264 . S
C1441 C1443 1.339 . S
C1441 H1468 0.931 . S
C1442 C1443 1.395 . S
C1442 C1444 1.320 . S
C1443 C1441 1.339 . S
C1443 C1442 1.395 . S
C1443 H1469 0.929 . S
C1444 C1442 1.320 . S
C1444 C1445 1.405 . S
C1444 H1470 0.930 . S
C1445 C1440 1.479 . S
C1445 C1444 1.405 . S
C1445 H1471 0.931 . S
U1446 O1447 2.454 . S
U1446 O1448 2.458 . S
U1446 C1449 2.984 . S
U1446 C1450 2.847 . S
U1446 C1463 2.882 . S
U1446 O1464 2.441 . S
U1446 O1465 2.420 . S
U1446 O1466 2.455 . S
U1446 O1467 2.449 . S
O1447 U1446 2.454 . S
O1447 C1449 1.353 . S
O1448 U1446 2.458 . S
O1448 C1449 1.286 . S
C1449 U1446 2.984 . S
C1449 O1447 1.353 . S
C1449 O1448 1.286 . S
C1449 C1451 1.363 . S
C1450 C1440 1.465 . S
C1450 U1446 2.847 . S
C1450 O1464 1.249 . S
C1450 O1465 1.202 . S
C1451 C1449 1.363 . S
C1451 C1453 1.424 . S
C1451 C1456 1.342 . S
C1452 C1453 1.278 1_565 S
C1452 C1455 1.461 . S
C1452 H1472 0.932 . S
C1453 C1451 1.424 . S
C1453 C1452 1.278 1_545 S
C1453 H1473 0.946 . S
C1454 C1455 1.474 . S
C1454 C1456 1.285 1_565 S
C1454 H1474 0.929 . S
C1455 C1452 1.461 . S
C1455 C1454 1.474 . S
C1456 C1451 1.342 . S
C1456 C1454 1.285 1_545 S
C1456 H1475 0.930 . S
C1457 C1460 1.424 . S
C1457 C1462 1.245 . S
C1457 C1463 1.428 . S
C1458 C1461 1.260 . S
C1458 C1462 1.477 . S
C1458 H1476 0.932 . S
C1459 C1460 1.384 . S
C1459 C1461 1.479 . S
C1459 H1477 0.929 . S
C1460 C1457 1.424 . S
C1460 C1459 1.384 . S
C1460 H1478 0.928 . S
C1461 C1458 1.260 . S
C1461 C1459 1.479 . S
C1462 C1457 1.245 . S
C1462 C1458 1.477 . S
C1462 H1479 0.932 . S
C1463 U1446 2.882 . S
C1463 C1457 1.428 . S
C1463 O1466 1.301 . S
C1463 O1467 1.282 . S
O1464 U1446 2.441 . S
O1464 C1450 1.249 . S
O1465 U1446 2.420 . S
O1465 C1450 1.202 . S
O1466 U1446 2.455 . S
O1466 C1463 1.301 . S
O1467 U1446 2.449 . S
O1467 C1463 1.282 . S
H1468 C1441 0.931 . S
H1469 C1443 0.929 . S
H1470 C1444 0.930 . S
H1471 C1445 0.931 . S
H1472 C1452 0.932 . S
H1473 C1453 0.946 . S
H1474 C1454 0.929 . S
H1475 C1456 0.930 . S
H1476 C1458 0.932 . S
H1477 C1459 0.929 . S
H1478 C1460 0.928 . S
H1479 C1462 0.932 . S
C1480 C1481 1.264 . S
C1480 C1485 1.479 . S
C1480 C1490 1.465 . S
C1481 C1480 1.264 . S
C1481 C1483 1.339 . S
C1481 H1508 0.931 . S
C1482 C1483 1.395 . S
C1482 C1484 1.320 . S
C1483 C1481 1.339 . S
C1483 C1482 1.395 . S
C1483 H1509 0.929 . S
C1484 C1482 1.320 . S
C1484 C1485 1.405 . S
C1484 H1510 0.930 . S
C1485 C1480 1.479 . S
C1485 C1484 1.405 . S
C1485 H1511 0.931 . S
U1486 O1487 2.454 . S
U1486 O1488 2.458 . S
U1486 C1489 2.984 . S
U1486 C1490 2.847 . S
U1486 C1503 2.882 . S
U1486 O1504 2.441 . S
U1486 O1505 2.420 . S
U1486 O1506 2.455 . S
U1486 O1507 2.449 . S
O1487 U1486 2.454 . S
O1487 C1489 1.353 . S
O1488 U1486 2.458 . S
O1488 C1489 1.286 . S
C1489 U1486 2.984 . S
C1489 O1487 1.353 . S
C1489 O1488 1.286 . S
C1489 C1491 1.363 . S
C1490 C1480 1.465 . S
C1490 U1486 2.847 . S
C1490 O1504 1.249 . S
C1490 O1505 1.202 . S
C1491 C1489 1.363 . S
C1491 C1493 1.408 . S
C1491 C1496 1.342 . S
C1492 C1493 1.310 . S
C1492 C1495 1.461 . S
C1492 H1512 0.932 . S
C1493 C1491 1.408 . S
C1493 C1492 1.310 . S
C1493 H1513 0.930 . S
C1494 C1495 1.474 . S
C1494 C1496 1.285 . S
C1494 H1514 0.929 . S
C1495 C1492 1.461 . S
C1495 C1494 1.474 . S
C1496 C1491 1.342 . S
C1496 C1494 1.285 . S
C1496 H1515 0.930 . S
C1497 C1500 1.424 . S
C1497 C1502 1.245 . S
C1497 C1503 1.428 . S
C1498 C1501 1.260 . S
C1498 C1502 1.477 . S
C1498 H1516 0.932 . S
C1499 C1500 1.384 . S
C1499 C1501 1.479 . S
C1499 H1517 0.929 . S
C1500 C1497 1.424 . S
C1500 C1499 1.384 . S
C1500 H1518 0.928 . S
C1501 C1498 1.260 . S
C1501 C1499 1.479 . S
C1502 C1497 1.245 . S
C1502 C1498 1.477 . S
C1502 H1519 0.932 . S
C1503 U1486 2.882 . S
C1503 C1497 1.428 . S
C1503 O1506 1.301 . S
C1503 O1507 1.282 . S
O1504 U1486 2.441 . S
O1504 C1490 1.249 . S
O1505 U1486 2.420 . S
O1505 C1490 1.202 . S
O1506 U1486 2.455 . S
O1506 C1503 1.301 . S
O1507 U1486 2.449 . S
O1507 C1503 1.282 . S
H1508 C1481 0.931 . S
H1509 C1483 0.929 . S
H1510 C1484 0.930 . S
H1511 C1485 0.931 . S
H1512 C1492 0.932 . S
H1513 C1493 0.930 . S
H1514 C1494 0.929 . S
H1515 C1496 0.930 . S
H1516 C1498 0.932 . S
H1517 C1499 0.929 . S
H1518 C1500 0.928 . S
H1519 C1502 0.932 . S
C1520 C1521 1.264 . S
C1520 C1525 1.479 . S
C1520 C1530 1.465 . S
C1521 C1520 1.264 . S
C1521 C1523 1.339 . S
C1521 H1548 0.931 . S
C1522 C1523 1.395 . S
C1522 C1524 1.320 . S
C1523 C1521 1.339 . S
C1523 C1522 1.395 . S
C1523 H1549 0.929 . S
C1524 C1522 1.320 . S
C1524 C1525 1.405 . S
C1524 H1550 0.930 . S
C1525 C1520 1.479 . S
C1525 C1524 1.405 . S
C1525 H1551 0.931 . S
U1526 O1527 2.454 . S
U1526 O1528 2.458 . S
U1526 C1529 2.984 . S
U1526 C1530 2.847 . S
U1526 C1543 2.882 . S
U1526 O1544 2.441 . S
U1526 O1545 2.420 . S
U1526 O1546 2.455 . S
U1526 O1547 2.449 . S
O1527 U1526 2.454 . S
O1527 C1529 1.353 . S
O1528 U1526 2.458 . S
O1528 C1529 1.286 . S
C1529 U1526 2.984 . S
C1529 O1527 1.353 . S
C1529 O1528 1.286 . S
C1529 C1531 1.363 1_565 S
C1530 C1520 1.465 . S
C1530 U1526 2.847 . S
C1530 O1544 1.249 . S
C1530 O1545 1.202 . S
C1531 C1529 1.363 1_545 S
C1531 C1533 1.408 . S
C1531 C1536 1.342 . S
C1532 C1533 1.310 . S
C1532 C1535 1.461 . S
C1532 H1552 0.932 . S
C1533 C1531 1.408 . S
C1533 C1532 1.310 . S
C1533 H1553 0.930 . S
C1534 C1535 1.474 . S
C1534 C1536 1.285 . S
C1534 H1554 0.929 . S
C1535 C1532 1.461 . S
C1535 C1534 1.474 . S
C1536 C1531 1.342 . S
C1536 C1534 1.285 . S
C1536 H1555 0.930 . S
C1537 C1540 1.424 . S
C1537 C1542 1.245 . S
C1537 C1543 1.428 . S
C1538 C1541 1.260 . S
C1538 C1542 1.477 . S
C1538 H1556 0.932 . S
C1539 C1540 1.384 . S
C1539 C1541 1.479 . S
C1539 H1557 0.929 . S
C1540 C1537 1.424 . S
C1540 C1539 1.384 . S
C1540 H1558 0.928 . S
C1541 C1538 1.260 . S
C1541 C1539 1.479 . S
C1542 C1537 1.245 . S
C1542 C1538 1.477 . S
C1542 H1559 0.932 . S
C1543 U1526 2.882 . S
C1543 C1537 1.428 . S
C1543 O1546 1.301 . S
C1543 O1547 1.282 . S
O1544 U1526 2.441 . S
O1544 C1530 1.249 . S
O1545 U1526 2.420 . S
O1545 C1530 1.202 . S
O1546 U1526 2.455 . S
O1546 C1543 1.301 . S
O1547 U1526 2.449 . S
O1547 C1543 1.282 . S
H1548 C1521 0.931 . S
H1549 C1523 0.929 . S
H1550 C1524 0.930 . S
H1551 C1525 0.931 . S
H1552 C1532 0.932 . S
H1553 C1533 0.930 . S
H1554 C1534 0.929 . S
H1555 C1536 0.930 . S
H1556 C1538 0.932 . S
H1557 C1539 0.929 . S
H1558 C1540 0.928 . S
H1559 C1542 0.932 . S
C1560 C1561 1.264 . S
C1560 C1565 1.479 . S
C1560 C1570 1.465 . S
C1561 C1560 1.264 . S
C1561 C1563 1.339 . S
C1561 H1588 0.931 . S
C1562 C1563 1.395 . S
C1562 C1564 1.320 . S
C1563 C1561 1.339 . S
C1563 C1562 1.395 . S
C1563 H1589 0.929 . S
C1564 C1562 1.320 . S
C1564 C1565 1.405 . S
C1564 H1590 0.930 . S
C1565 C1560 1.479 . S
C1565 C1564 1.405 . S
C1565 H1591 0.931 . S
U1566 O1567 2.454 . S
U1566 O1568 2.458 . S
U1566 C1569 2.984 . S
U1566 C1570 2.847 . S
U1566 C1583 2.882 . S
U1566 O1584 2.441 . S
U1566 O1585 2.420 . S
U1566 O1586 2.455 . S
U1566 O1587 2.449 . S
O1567 U1566 2.454 . S
O1567 C1569 1.353 . S
O1568 U1566 2.458 . S
O1568 C1569 1.286 . S
C1569 U1566 2.984 . S
C1569 O1567 1.353 . S
C1569 O1568 1.286 . S
C1569 C1571 1.363 . S
C1570 C1560 1.465 . S
C1570 U1566 2.847 . S
C1570 O1584 1.249 . S
C1570 O1585 1.202 . S
C1571 C1569 1.363 . S
C1571 C1573 1.408 . S
C1571 C1576 1.342 . S
C1572 C1573 1.310 . S
C1572 C1575 1.461 . S
C1572 H1592 0.932 . S
C1573 C1571 1.408 . S
C1573 C1572 1.310 . S
C1573 H1593 0.930 . S
C1574 C1575 1.474 . S
C1574 C1576 1.285 . S
C1574 H1594 0.929 . S
C1575 C1572 1.461 . S
C1575 C1574 1.474 . S
C1576 C1571 1.342 . S
C1576 C1574 1.285 . S
C1576 H1595 0.930 . S
C1577 C1580 1.424 . S
C1577 C1582 1.245 . S
C1577 C1583 1.428 . S
C1578 C1581 1.260 . S
C1578 C1582 1.477 . S
C1578 H1596 0.932 . S
C1579 C1580 1.384 . S
C1579 C1581 1.479 . S
C1579 H1597 0.929 . S
C1580 C1577 1.424 . S
C1580 C1579 1.384 . S
C1580 H1598 0.928 . S
C1581 C1578 1.260 . S
C1581 C1579 1.479 . S
C1582 C1577 1.245 . S
C1582 C1578 1.477 . S
C1582 H1599 0.932 . S
C1583 U1566 2.882 . S
C1583 C1577 1.428 . S
C1583 O1586 1.301 . S
C1583 O1587 1.282 . S
O1584 U1566 2.441 . S
O1584 C1570 1.249 . S
O1585 U1566 2.420 . S
O1585 C1570 1.202 . S
O1586 U1566 2.455 . S
O1586 C1583 1.301 . S
O1587 U1566 2.449 . S
O1587 C1583 1.282 . S
H1588 C1561 0.931 . S
H1589 C1563 0.929 . S
H1590 C1564 0.930 . S
H1591 C1565 0.931 . S
H1592 C1572 0.932 . S
H1593 C1573 0.930 . S
H1594 C1574 0.929 . S
H1595 C1576 0.930 . S
H1596 C1578 0.932 . S
H1597 C1579 0.929 . S
H1598 C1580 0.928 . S
H1599 C1582 0.932 . S
C1600 C1601 1.264 . S
C1600 C1605 1.479 . S
C1600 C1610 1.465 . S
C1601 C1600 1.264 . S
C1601 C1603 1.339 . S
C1601 H1628 0.931 . S
C1602 C1603 1.395 . S
C1602 C1604 1.320 . S
C1603 C1601 1.339 . S
C1603 C1602 1.395 . S
C1603 H1629 0.929 . S
C1604 C1602 1.320 . S
C1604 C1605 1.405 . S
C1604 H1630 0.930 . S
C1605 C1600 1.479 . S
C1605 C1604 1.405 . S
C1605 H1631 0.931 . S
U1606 O1607 2.454 . S
U1606 O1608 2.458 . S
U1606 C1609 2.984 . S
U1606 C1610 2.847 . S
U1606 C1623 2.882 . S
U1606 O1624 2.441 . S
U1606 O1625 2.420 . S
U1606 O1626 2.455 . S
U1606 O1627 2.449 . S
O1607 U1606 2.454 . S
O1607 C1609 1.353 . S
O1608 U1606 2.458 . S
O1608 C1609 1.286 . S
C1609 U1606 2.984 . S
C1609 O1607 1.353 . S
C1609 O1608 1.286 . S
C1609 C1611 1.363 . S
C1610 C1600 1.465 . S
C1610 U1606 2.847 . S
C1610 O1624 1.249 . S
C1610 O1625 1.202 . S
C1611 C1609 1.363 . S
C1611 C1613 1.408 1_556 S
C1611 C1616 1.342 1_556 S
C1612 C1613 1.310 . S
C1612 C1615 1.461 . S
C1612 H1632 0.932 . S
C1613 C1611 1.408 1_554 S
C1613 C1612 1.310 . S
C1613 H1633 0.930 1_554 S
C1614 C1615 1.474 . S
C1614 C1616 1.285 . S
C1614 H1634 0.929 . S
C1615 C1612 1.461 . S
C1615 C1614 1.474 . S
C1616 C1611 1.342 1_554 S
C1616 C1614 1.285 . S
C1616 H1635 0.930 1_554 S
C1617 C1620 1.424 . S
C1617 C1622 1.245 . S
C1617 C1623 1.428 . S
C1618 C1621 1.260 . S
C1618 C1622 1.477 . S
C1618 H1636 0.932 . S
C1619 C1620 1.384 . S
C1619 C1621 1.479 . S
C1619 H1637 0.929 . S
C1620 C1617 1.424 . S
C1620 C1619 1.384 . S
C1620 H1638 0.928 . S
C1621 C1618 1.260 . S
C1621 C1619 1.479 . S
C1622 C1617 1.245 . S
C1622 C1618 1.477 . S
C1622 H1639 0.932 . S
C1623 U1606 2.882 . S
C1623 C1617 1.428 . S
C1623 O1626 1.301 . S
C1623 O1627 1.282 . S
O1624 U1606 2.441 . S
O1624 C1610 1.249 . S
O1625 U1606 2.420 . S
O1625 C1610 1.202 . S
O1626 U1606 2.455 . S
O1626 C1623 1.301 . S
O1627 U1606 2.449 . S
O1627 C1623 1.282 . S
H1628 C1601 0.931 . S
H1629 C1603 0.929 . S
H1630 C1604 0.930 . S
H1631 C1605 0.931 . S
H1632 C1612 0.932 . S
H1633 C1613 0.930 1_556 S
H1634 C1614 0.929 . S
H1635 C1616 0.930 1_556 S
H1636 C1618 0.932 . S
H1637 C1619 0.929 . S
H1638 C1620 0.928 . S
H1639 C1622 0.932 . S
C1640 C1641 1.264 . S
C1640 C1645 1.479 . S
C1640 C1650 1.465 . S
C1641 C1640 1.264 . S
C1641 C1643 1.339 . S
C1641 H1668 0.931 . S
C1642 C1643 1.395 . S
C1642 C1644 1.320 . S
C1643 C1641 1.339 . S
C1643 C1642 1.395 . S
C1643 H1669 0.929 . S
C1644 C1642 1.320 . S
C1644 C1645 1.405 . S
C1644 H1670 0.930 . S
C1645 C1640 1.479 . S
C1645 C1644 1.405 . S
C1645 H1671 0.931 . S
U1646 O1647 2.454 . S
U1646 O1648 2.458 . S
U1646 C1649 2.984 . S
U1646 C1650 2.847 . S
U1646 C1663 2.882 . S
U1646 O1664 2.441 . S
U1646 O1665 2.420 . S
U1646 O1666 2.455 . S
U1646 O1667 2.449 . S
O1647 U1646 2.454 . S
O1647 C1649 1.353 . S
O1648 U1646 2.458 . S
O1648 C1649 1.286 . S
C1649 U1646 2.984 . S
C1649 O1647 1.353 . S
C1649 O1648 1.286 . S
C1649 C1651 1.363 . S
C1650 C1640 1.465 . S
C1650 U1646 2.847 . S
C1650 O1664 1.249 . S
C1650 O1665 1.202 . S
C1651 C1649 1.363 . S
C1651 C1653 1.408 1_554 S
C1651 C1656 1.342 1_554 S
C1652 C1653 1.310 . S
C1652 C1655 1.461 . S
C1652 H1672 0.932 . S
C1653 C1651 1.408 1_556 S
C1653 C1652 1.310 . S
C1653 H1673 0.930 1_556 S
C1654 C1655 1.474 . S
C1654 C1656 1.285 . S
C1654 H1674 0.929 . S
C1655 C1652 1.461 . S
C1655 C1654 1.474 . S
C1656 C1651 1.342 1_556 S
C1656 C1654 1.285 . S
C1656 H1675 0.930 1_556 S
C1657 C1660 1.424 . S
C1657 C1662 1.245 . S
C1657 C1663 1.428 . S
C1658 C1661 1.260 . S
C1658 C1662 1.477 . S
C1658 H1676 0.932 . S
C1659 C1660 1.384 . S
C1659 C1661 1.479 . S
C1659 H1677 0.929 . S
C1660 C1657 1.424 . S
C1660 C1659 1.384 . S
C1660 H1678 0.928 . S
C1661 C1658 1.260 . S
C1661 C1659 1.479 . S
C1662 C1657 1.245 . S
C1662 C1658 1.477 . S
C1662 H1679 0.932 . S
C1663 U1646 2.882 . S
C1663 C1657 1.428 . S
C1663 O1666 1.301 . S
C1663 O1667 1.282 . S
O1664 U1646 2.441 . S
O1664 C1650 1.249 . S
O1665 U1646 2.420 . S
O1665 C1650 1.202 . S
O1666 U1646 2.455 . S
O1666 C1663 1.301 . S
O1667 U1646 2.449 . S
O1667 C1663 1.282 . S
H1668 C1641 0.931 . S
H1669 C1643 0.929 . S
H1670 C1644 0.930 . S
H1671 C1645 0.931 . S
H1672 C1652 0.932 . S
H1673 C1653 0.930 1_554 S
H1674 C1654 0.929 . S
H1675 C1656 0.930 1_554 S
H1676 C1658 0.932 . S
H1677 C1659 0.929 . S
H1678 C1660 0.928 . S
H1679 C1662 0.932 . S
C1680 C1681 1.264 . S
C1680 C1685 1.479 . S
C1680 C1690 1.465 . S
C1681 C1680 1.264 . S
C1681 C1683 1.339 . S
C1681 H1708 0.931 . S
C1682 C1683 1.395 . S
C1682 C1684 1.320 . S
C1683 C1681 1.339 . S
C1683 C1682 1.395 . S
C1683 H1709 0.929 . S
C1684 C1682 1.320 . S
C1684 C1685 1.405 . S
C1684 H1710 0.930 . S
C1685 C1680 1.479 . S
C1685 C1684 1.405 . S
C1685 H1711 0.931 . S
U1686 O1687 2.454 . S
U1686 O1688 2.458 . S
U1686 C1689 2.984 . S
U1686 C1690 2.847 . S
U1686 C1703 2.882 . S
U1686 O1704 2.441 . S
U1686 O1705 2.420 . S
U1686 O1706 2.455 . S
U1686 O1707 2.449 . S
O1687 U1686 2.454 . S
O1687 C1689 1.353 . S
O1688 U1686 2.458 . S
O1688 C1689 1.286 . S
C1689 U1686 2.984 . S
C1689 O1687 1.353 . S
C1689 O1688 1.286 . S
C1689 C1691 1.363 . S
C1690 C1680 1.465 . S
C1690 U1686 2.847 . S
C1690 O1704 1.249 . S
C1690 O1705 1.202 . S
C1691 C1689 1.363 . S
C1691 C1693 1.408 . S
C1691 C1696 1.342 . S
C1692 C1693 1.310 . S
C1692 C1695 1.461 . S
C1692 H1712 0.932 . S
C1693 C1691 1.408 . S
C1693 C1692 1.310 . S
C1693 H1713 0.930 . S
C1694 C1695 1.474 . S
C1694 C1696 1.285 . S
C1694 H1714 0.929 . S
C1695 C1692 1.461 . S
C1695 C1694 1.474 . S
C1696 C1691 1.342 . S
C1696 C1694 1.285 . S
C1696 H1715 0.930 . S
C1697 C1700 1.424 . S
C1697 C1702 1.245 . S
C1697 C1703 1.428 . S
C1698 C1701 1.260 . S
C1698 C1702 1.477 . S
C1698 H1716 0.932 . S
C1699 C1700 1.384 . S
C1699 C1701 1.479 . S
C1699 H1717 0.929 . S
C1700 C1697 1.424 . S
C1700 C1699 1.384 . S
C1700 H1718 0.928 . S
C1701 C1698 1.260 . S
C1701 C1699 1.479 . S
C1702 C1697 1.245 . S
C1702 C1698 1.477 . S
C1702 H1719 0.932 . S
C1703 U1686 2.882 . S
C1703 C1697 1.428 . S
C1703 O1706 1.301 . S
C1703 O1707 1.282 . S
O1704 U1686 2.441 . S
O1704 C1690 1.249 . S
O1705 U1686 2.420 . S
O1705 C1690 1.202 . S
O1706 U1686 2.455 . S
O1706 C1703 1.301 . S
O1707 U1686 2.449 . S
O1707 C1703 1.282 . S
H1708 C1681 0.931 . S
H1709 C1683 0.929 . S
H1710 C1684 0.930 . S
H1711 C1685 0.931 . S
H1712 C1692 0.932 . S
H1713 C1693 0.930 . S
H1714 C1694 0.929 . S
H1715 C1696 0.930 . S
H1716 C1698 0.932 . S
H1717 C1699 0.929 . S
H1718 C1700 0.928 . S
H1719 C1702 0.932 . S
C1720 C1721 1.264 . S
C1720 C1725 1.479 . S
C1720 C1730 1.465 . S
C1721 C1720 1.264 . S
C1721 C1723 1.339 . S
C1721 H1748 0.931 . S
C1722 C1723 1.395 . S
C1722 C1724 1.320 . S
C1723 C1721 1.339 . S
C1723 C1722 1.395 . S
C1723 H1749 0.929 . S
C1724 C1722 1.320 . S
C1724 C1725 1.405 . S
C1724 H1750 0.930 . S
C1725 C1720 1.479 . S
C1725 C1724 1.405 . S
C1725 H1751 0.931 . S
U1726 O1727 2.454 . S
U1726 O1728 2.458 . S
U1726 C1729 2.984 . S
U1726 C1730 2.847 . S
U1726 C1743 2.882 . S
U1726 O1744 2.441 . S
U1726 O1745 2.420 . S
U1726 O1746 2.455 . S
U1726 O1747 2.449 . S
O1727 U1726 2.454 . S
O1727 C1729 1.353 . S
O1728 U1726 2.458 . S
O1728 C1729 1.286 . S
C1729 U1726 2.984 . S
C1729 O1727 1.353 . S
C1729 O1728 1.286 . S
C1729 C1731 1.363 . S
C1730 C1720 1.465 . S
C1730 U1726 2.847 . S
C1730 O1744 1.249 . S
C1730 O1745 1.202 . S
C1731 C1729 1.363 . S
C1731 C1733 1.408 . S
C1731 C1736 1.342 . S
C1732 C1733 1.310 . S
C1732 C1735 1.461 . S
C1732 H1752 0.932 . S
C1733 C1731 1.408 . S
C1733 C1732 1.310 . S
C1733 H1753 0.930 . S
C1734 C1735 1.474 . S
C1734 C1736 1.285 . S
C1734 H1754 0.929 . S
C1735 C1732 1.461 . S
C1735 C1734 1.474 . S
C1736 C1731 1.342 . S
C1736 C1734 1.285 . S
C1736 H1755 0.930 . S
C1737 C1740 1.424 . S
C1737 C1742 1.245 . S
C1737 C1743 1.428 . S
C1738 C1741 1.260 . S
C1738 C1742 1.477 . S
C1738 H1756 0.932 . S
C1739 C1740 1.384 . S
C1739 C1741 1.479 . S
C1739 H1757 0.929 . S
C1740 C1737 1.424 . S
C1740 C1739 1.384 . S
C1740 H1758 0.928 . S
C1741 C1738 1.260 . S
C1741 C1739 1.479 . S
C1742 C1737 1.245 . S
C1742 C1738 1.477 . S
C1742 H1759 0.932 . S
C1743 U1726 2.882 . S
C1743 C1737 1.428 . S
C1743 O1746 1.301 . S
C1743 O1747 1.282 . S
O1744 U1726 2.441 . S
O1744 C1730 1.249 . S
O1745 U1726 2.420 . S
O1745 C1730 1.202 . S
O1746 U1726 2.455 . S
O1746 C1743 1.301 . S
O1747 U1726 2.449 . S
O1747 C1743 1.282 . S
H1748 C1721 0.931 . S
H1749 C1723 0.929 . S
H1750 C1724 0.930 . S
H1751 C1725 0.931 . S
H1752 C1732 0.932 . S
H1753 C1733 0.930 . S
H1754 C1734 0.929 . S
H1755 C1736 0.930 . S
H1756 C1738 0.932 . S
H1757 C1739 0.929 . S
H1758 C1740 0.928 . S
H1759 C1742 0.932 . S
C1760 C1761 1.264 . S
C1760 C1765 1.479 . S
C1760 C1770 1.465 . S
C1761 C1760 1.264 . S
C1761 C1763 1.339 . S
C1761 H1788 0.931 . S
C1762 C1763 1.395 . S
C1762 C1764 1.320 . S
C1763 C1761 1.339 . S
C1763 C1762 1.395 . S
C1763 H1789 0.929 . S
C1764 C1762 1.320 . S
C1764 C1765 1.405 . S
C1764 H1790 0.930 . S
C1765 C1760 1.479 . S
C1765 C1764 1.405 . S
C1765 H1791 0.931 . S
U1766 O1767 2.454 . S
U1766 O1768 2.458 . S
U1766 C1769 2.984 . S
U1766 C1770 2.847 . S
U1766 C1783 2.882 . S
U1766 O1784 2.441 . S
U1766 O1785 2.420 . S
U1766 O1786 2.455 . S
U1766 O1787 2.449 . S
O1767 U1766 2.454 . S
O1767 C1769 1.353 . S
O1768 U1766 2.458 . S
O1768 C1769 1.286 . S
C1769 U1766 2.984 . S
C1769 O1767 1.353 . S
C1769 O1768 1.286 . S
C1769 C1771 1.363 . S
C1770 C1760 1.465 . S
C1770 U1766 2.847 . S
C1770 O1784 1.249 . S
C1770 O1785 1.202 . S
C1771 C1769 1.363 . S
C1771 C1773 1.408 . S
C1771 C1776 1.342 . S
C1772 C1773 1.310 . S
C1772 C1775 1.461 . S
C1772 H1792 0.932 . S
C1773 C1771 1.408 . S
C1773 C1772 1.310 . S
C1773 H1793 0.930 . S
C1774 C1775 1.474 . S
C1774 C1776 1.285 . S
C1774 H1794 0.929 . S
C1775 C1772 1.461 . S
C1775 C1774 1.474 . S
C1776 C1771 1.342 . S
C1776 C1774 1.285 . S
C1776 H1795 0.930 . S
C1777 C1780 1.424 . S
C1777 C1782 1.245 . S
C1777 C1783 1.428 . S
C1778 C1781 1.260 . S
C1778 C1782 1.477 . S
C1778 H1796 0.932 . S
C1779 C1780 1.384 . S
C1779 C1781 1.479 . S
C1779 H1797 0.929 . S
C1780 C1777 1.424 . S
C1780 C1779 1.384 . S
C1780 H1798 0.928 . S
C1781 C1778 1.260 . S
C1781 C1779 1.479 . S
C1782 C1777 1.245 . S
C1782 C1778 1.477 . S
C1782 H1799 0.932 . S
C1783 U1766 2.882 . S
C1783 C1777 1.428 . S
C1783 O1786 1.301 . S
C1783 O1787 1.282 . S
O1784 U1766 2.441 . S
O1784 C1770 1.249 . S
O1785 U1766 2.420 . S
O1785 C1770 1.202 . S
O1786 U1766 2.455 . S
O1786 C1783 1.301 . S
O1787 U1766 2.449 . S
O1787 C1783 1.282 . S
H1788 C1761 0.931 . S
H1789 C1763 0.929 . S
H1790 C1764 0.930 . S
H1791 C1765 0.931 . S
H1792 C1772 0.932 . S
H1793 C1773 0.930 . S
H1794 C1774 0.929 . S
H1795 C1776 0.930 . S
H1796 C1778 0.932 . S
H1797 C1779 0.929 . S
H1798 C1780 0.928 . S
H1799 C1782 0.932 . S
C1800 C1801 1.264 . S
C1800 C1805 1.479 . S
C1800 C1810 1.465 . S
C1801 C1800 1.264 . S
C1801 C1803 1.339 . S
C1801 H1828 0.931 . S
C1802 C1803 1.395 . S
C1802 C1804 1.320 . S
C1803 C1801 1.339 . S
C1803 C1802 1.395 . S
C1803 H1829 0.929 . S
C1804 C1802 1.320 . S
C1804 C1805 1.405 . S
C1804 H1830 0.930 . S
C1805 C1800 1.479 . S
C1805 C1804 1.405 . S
C1805 H1831 0.931 . S
U1806 O1807 2.454 . S
U1806 O1808 2.458 . S
U1806 C1809 2.984 . S
U1806 C1810 2.847 . S
U1806 C1823 2.882 . S
U1806 O1824 2.441 . S
U1806 O1825 2.420 . S
U1806 O1826 2.455 . S
U1806 O1827 2.449 . S
O1807 U1806 2.454 . S
O1807 C1809 1.353 . S
O1808 U1806 2.458 . S
O1808 C1809 1.286 . S
C1809 U1806 2.984 . S
C1809 O1807 1.353 . S
C1809 O1808 1.286 . S
C1809 C1811 1.363 . S
C1810 C1800 1.465 . S
C1810 U1806 2.847 . S
C1810 O1824 1.249 . S
C1810 O1825 1.202 . S
C1811 C1809 1.363 . S
C1811 C1813 1.408 . S
C1811 C1816 1.342 . S
C1812 C1813 1.310 . S
C1812 C1815 1.461 . S
C1812 H1832 0.932 . S
C1813 C1811 1.408 . S
C1813 C1812 1.310 . S
C1813 H1833 0.930 . S
C1814 C1815 1.474 . S
C1814 C1816 1.285 . S
C1814 H1834 0.929 . S
C1815 C1812 1.461 . S
C1815 C1814 1.474 . S
C1816 C1811 1.342 . S
C1816 C1814 1.285 . S
C1816 H1835 0.930 . S
C1817 C1820 1.424 . S
C1817 C1822 1.245 . S
C1817 C1823 1.428 . S
C1818 C1821 1.260 . S
C1818 C1822 1.477 . S
C1818 H1836 0.932 . S
C1819 C1820 1.384 . S
C1819 C1821 1.479 . S
C1819 H1837 0.929 . S
C1820 C1817 1.424 . S
C1820 C1819 1.384 . S
C1820 H1838 0.928 . S
C1821 C1818 1.260 . S
C1821 C1819 1.479 . S
C1822 C1817 1.245 . S
C1822 C1818 1.477 . S
C1822 H1839 0.932 . S
C1823 U1806 2.882 . S
C1823 C1817 1.428 . S
C1823 O1826 1.301 . S
C1823 O1827 1.282 . S
O1824 U1806 2.441 . S
O1824 C1810 1.249 . S
O1825 U1806 2.420 . S
O1825 C1810 1.202 . S
O1826 U1806 2.455 . S
O1826 C1823 1.301 . S
O1827 U1806 2.449 . S
O1827 C1823 1.282 . S
H1828 C1801 0.931 . S
H1829 C1803 0.929 . S
H1830 C1804 0.930 . S
H1831 C1805 0.931 . S
H1832 C1812 0.932 . S
H1833 C1813 0.930 . S
H1834 C1814 0.929 . S
H1835 C1816 0.930 . S
H1836 C1818 0.932 . S
H1837 C1819 0.929 . S
H1838 C1820 0.928 . S
H1839 C1822 0.932 . S
C1840 C1841 1.264 . S
C1840 C1845 1.479 . S
C1840 C1850 1.465 . S
C1841 C1840 1.264 . S
C1841 C1843 1.339 . S
C1841 H1868 0.931 . S
C1842 C1843 1.395 . S
C1842 C1844 1.320 . S
C1843 C1841 1.339 . S
C1843 C1842 1.395 . S
C1843 H1869 0.929 . S
C1844 C1842 1.320 . S
C1844 C1845 1.405 . S
C1844 H1870 0.930 . S
C1845 C1840 1.479 . S
C1845 C1844 1.405 . S
C1845 H1871 0.931 . S
U1846 O1847 2.454 . S
U1846 O1848 2.458 . S
U1846 C1849 2.984 . S
U1846 C1850 2.847 . S
U1846 C1863 2.882 . S
U1846 O1864 2.441 . S
U1846 O1865 2.420 . S
U1846 O1866 2.455 . S
U1846 O1867 2.449 . S
O1847 U1846 2.454 . S
O1847 C1849 1.353 . S
O1848 U1846 2.458 . S
O1848 C1849 1.286 . S
C1849 U1846 2.984 . S
C1849 O1847 1.353 . S
C1849 O1848 1.286 . S
C1849 C1851 1.363 . S
C1850 C1840 1.465 . S
C1850 U1846 2.847 . S
C1850 O1864 1.249 . S
C1850 O1865 1.202 . S
C1851 C1849 1.363 . S
C1851 C1853 1.408 . S
C1851 C1856 1.342 . S
C1852 C1853 1.310 . S
C1852 C1855 1.461 . S
C1852 H1872 0.932 . S
C1853 C1851 1.408 . S
C1853 C1852 1.310 . S
C1853 H1873 0.930 . S
C1854 C1855 1.474 . S
C1854 C1856 1.285 . S
C1854 H1874 0.929 . S
C1855 C1852 1.461 . S
C1855 C1854 1.474 . S
C1856 C1851 1.342 . S
C1856 C1854 1.285 . S
C1856 H1875 0.930 . S
C1857 C1860 1.424 . S
C1857 C1862 1.245 . S
C1857 C1863 1.428 . S
C1858 C1861 1.260 . S
C1858 C1862 1.477 . S
C1858 H1876 0.932 . S
C1859 C1860 1.384 . S
C1859 C1861 1.479 . S
C1859 H1877 0.929 . S
C1860 C1857 1.424 . S
C1860 C1859 1.384 . S
C1860 H1878 0.928 . S
C1861 C1858 1.260 . S
C1861 C1859 1.479 . S
C1862 C1857 1.245 . S
C1862 C1858 1.477 . S
C1862 H1879 0.932 . S
C1863 U1846 2.882 . S
C1863 C1857 1.428 . S
C1863 O1866 1.301 . S
C1863 O1867 1.282 . S
O1864 U1846 2.441 . S
O1864 C1850 1.249 . S
O1865 U1846 2.420 . S
O1865 C1850 1.202 . S
O1866 U1846 2.455 . S
O1866 C1863 1.301 . S
O1867 U1846 2.449 . S
O1867 C1863 1.282 . S
H1868 C1841 0.931 . S
H1869 C1843 0.929 . S
H1870 C1844 0.930 . S
H1871 C1845 0.931 . S
H1872 C1852 0.932 . S
H1873 C1853 0.930 . S
H1874 C1854 0.929 . S
H1875 C1856 0.930 . S
H1876 C1858 0.932 . S
H1877 C1859 0.929 . S
H1878 C1860 0.928 . S
H1879 C1862 0.932 . S
C1880 C1881 1.264 . S
C1880 C1885 1.479 . S
C1880 C1890 1.465 . S
C1881 C1880 1.264 . S
C1881 C1883 1.339 . S
C1881 H1908 0.931 . S
C1882 C1883 1.395 . S
C1882 C1884 1.320 . S
C1883 C1881 1.339 . S
C1883 C1882 1.395 . S
C1883 H1909 0.929 . S
C1884 C1882 1.320 . S
C1884 C1885 1.405 . S
C1884 H1910 0.930 . S
C1885 C1880 1.479 . S
C1885 C1884 1.405 . S
C1885 H1911 0.931 . S
U1886 O1887 2.454 . S
U1886 O1888 2.458 . S
U1886 C1889 2.984 . S
U1886 C1890 2.847 . S
U1886 C1903 2.882 . S
U1886 O1904 2.441 . S
U1886 O1905 2.420 . S
U1886 O1906 2.455 . S
U1886 O1907 2.449 . S
O1887 U1886 2.454 . S
O1887 C1889 1.353 . S
O1888 U1886 2.458 . S
O1888 C1889 1.286 . S
C1889 U1886 2.984 . S
C1889 O1887 1.353 . S
C1889 O1888 1.286 . S
C1889 C1891 1.363 . S
C1890 C1880 1.465 . S
C1890 U1886 2.847 . S
C1890 O1904 1.249 . S
C1890 O1905 1.202 . S
C1891 C1889 1.363 . S
C1891 C1893 1.408 . S
C1891 C1896 1.342 . S
C1892 C1893 1.310 . S
C1892 C1895 1.461 . S
C1892 H1912 0.932 . S
C1893 C1891 1.408 . S
C1893 C1892 1.310 . S
C1893 H1913 0.930 . S
C1894 C1895 1.474 . S
C1894 C1896 1.285 . S
C1894 H1914 0.929 . S
C1895 C1892 1.461 . S
C1895 C1894 1.474 . S
C1896 C1891 1.342 . S
C1896 C1894 1.285 . S
C1896 H1915 0.930 . S
C1897 C1900 1.424 . S
C1897 C1902 1.245 . S
C1897 C1903 1.428 . S
C1898 C1901 1.260 . S
C1898 C1902 1.477 . S
C1898 H1916 0.932 . S
C1899 C1900 1.384 . S
C1899 C1901 1.479 . S
C1899 H1917 0.929 . S
C1900 C1897 1.424 . S
C1900 C1899 1.384 . S
C1900 H1918 0.928 . S
C1901 C1898 1.260 . S
C1901 C1899 1.479 . S
C1902 C1897 1.245 . S
C1902 C1898 1.477 . S
C1902 H1919 0.932 . S
C1903 U1886 2.882 . S
C1903 C1897 1.428 . S
C1903 O1906 1.301 . S
C1903 O1907 1.282 . S
O1904 U1886 2.441 . S
O1904 C1890 1.249 . S
O1905 U1886 2.420 . S
O1905 C1890 1.202 . S
O1906 U1886 2.455 . S
O1906 C1903 1.301 . S
O1907 U1886 2.449 . S
O1907 C1903 1.282 . S
H1908 C1881 0.931 . S
H1909 C1883 0.929 . S
H1910 C1884 0.930 . S
H1911 C1885 0.931 . S
H1912 C1892 0.932 . S
H1913 C1893 0.930 . S
H1914 C1894 0.929 . S
H1915 C1896 0.930 . S
H1916 C1898 0.932 . S
H1917 C1899 0.929 . S
H1918 C1900 0.928 . S
H1919 C1902 0.932 . S
C1920 C1921 1.264 . S
C1920 C1925 1.479 . S
C1920 C1930 1.465 . S
C1921 C1920 1.264 . S
C1921 C1923 1.339 . S
C1921 H1948 0.931 . S
C1922 C1923 1.395 . S
C1922 C1924 1.320 . S
C1923 C1921 1.339 . S
C1923 C1922 1.395 . S
C1923 H1949 0.929 . S
C1924 C1922 1.320 . S
C1924 C1925 1.405 . S
C1924 H1950 0.930 . S
C1925 C1920 1.479 . S
C1925 C1924 1.405 . S
C1925 H1951 0.931 . S
U1926 O1927 2.454 . S
U1926 O1928 2.458 . S
U1926 C1929 2.984 . S
U1926 C1930 2.847 . S
U1926 C1943 2.882 . S
U1926 O1944 2.441 . S
U1926 O1945 2.420 . S
U1926 O1946 2.455 . S
U1926 O1947 2.449 . S
O1927 U1926 2.454 . S
O1927 C1929 1.353 . S
O1928 U1926 2.458 . S
O1928 C1929 1.286 . S
C1929 U1926 2.984 . S
C1929 O1927 1.353 . S
C1929 O1928 1.286 . S
C1929 C1931 1.363 . S
C1930 C1920 1.465 . S
C1930 U1926 2.847 . S
C1930 O1944 1.249 . S
C1930 O1945 1.202 . S
C1931 C1929 1.363 . S
C1931 C1933 1.408 . S
C1931 C1936 1.342 . S
C1932 C1933 1.310 . S
C1932 C1935 1.461 . S
C1932 H1952 0.932 . S
C1933 C1931 1.408 . S
C1933 C1932 1.310 . S
C1933 H1953 0.930 . S
C1934 C1935 1.474 . S
C1934 C1936 1.285 . S
C1934 H1954 0.929 . S
C1935 C1932 1.461 . S
C1935 C1934 1.474 . S
C1936 C1931 1.342 . S
C1936 C1934 1.285 . S
C1936 H1955 0.930 . S
C1937 C1940 1.424 . S
C1937 C1942 1.245 . S
C1937 C1943 1.428 . S
C1938 C1941 1.260 . S
C1938 C1942 1.477 . S
C1938 H1956 0.932 . S
C1939 C1940 1.384 . S
C1939 C1941 1.479 . S
C1939 H1957 0.929 . S
C1940 C1937 1.424 . S
C1940 C1939 1.384 . S
C1940 H1958 0.928 . S
C1941 C1938 1.260 . S
C1941 C1939 1.479 . S
C1942 C1937 1.245 . S
C1942 C1938 1.477 . S
C1942 H1959 0.932 . S
C1943 U1926 2.882 . S
C1943 C1937 1.428 . S
C1943 O1946 1.301 . S
C1943 O1947 1.282 . S
O1944 U1926 2.441 . S
O1944 C1930 1.249 . S
O1945 U1926 2.420 . S
O1945 C1930 1.202 . S
O1946 U1926 2.455 . S
O1946 C1943 1.301 . S
O1947 U1926 2.449 . S
O1947 C1943 1.282 . S
H1948 C1921 0.931 . S
H1949 C1923 0.929 . S
H1950 C1924 0.930 . S
H1951 C1925 0.931 . S
H1952 C1932 0.932 . S
H1953 C1933 0.930 . S
H1954 C1934 0.929 . S
H1955 C1936 0.930 . S
H1956 C1938 0.932 . S
H1957 C1939 0.929 . S
H1958 C1940 0.928 . S
H1959 C1942 0.932 . S
C1960 C1961 1.264 . S
C1960 C1965 1.479 . S
C1960 C1970 1.465 . S
C1961 C1960 1.264 . S
C1961 C1963 1.339 . S
C1961 H1988 0.931 . S
C1962 C1963 1.395 . S
C1962 C1964 1.320 . S
C1963 C1961 1.339 . S
C1963 C1962 1.395 . S
C1963 H1989 0.929 . S
C1964 C1962 1.320 . S
C1964 C1965 1.405 . S
C1964 H1990 0.930 . S
C1965 C1960 1.479 . S
C1965 C1964 1.405 . S
C1965 H1991 0.931 . S
U1966 O1967 2.454 . S
U1966 O1968 2.458 . S
U1966 C1969 2.984 . S
U1966 C1970 2.847 . S
U1966 C1983 2.882 . S
U1966 O1984 2.441 . S
U1966 O1985 2.420 . S
U1966 O1986 2.455 . S
U1966 O1987 2.449 . S
O1967 U1966 2.454 . S
O1967 C1969 1.353 . S
O1968 U1966 2.458 . S
O1968 C1969 1.286 . S
C1969 U1966 2.984 . S
C1969 O1967 1.353 . S
C1969 O1968 1.286 . S
C1969 C1971 1.363 . S
C1970 C1960 1.465 . S
C1970 U1966 2.847 . S
C1970 O1984 1.249 . S
C1970 O1985 1.202 . S
C1971 C1969 1.363 . S
C1971 C1973 1.408 . S
C1971 C1976 1.342 . S
C1972 C1973 1.310 . S
C1972 C1975 1.461 . S
C1972 H1992 0.932 . S
C1973 C1971 1.408 . S
C1973 C1972 1.310 . S
C1973 H1993 0.930 . S
C1974 C1975 1.474 . S
C1974 C1976 1.285 . S
C1974 H1994 0.929 . S
C1975 C1972 1.461 . S
C1975 C1974 1.474 . S
C1976 C1971 1.342 . S
C1976 C1974 1.285 . S
C1976 H1995 0.930 . S
C1977 C1980 1.424 . S
C1977 C1982 1.245 . S
C1977 C1983 1.428 . S
C1978 C1981 1.260 . S
C1978 C1982 1.477 . S
C1978 H1996 0.932 . S
C1979 C1980 1.384 . S
C1979 C1981 1.479 . S
C1979 H1997 0.929 . S
C1980 C1977 1.424 . S
C1980 C1979 1.384 . S
C1980 H1998 0.928 . S
C1981 C1978 1.260 . S
C1981 C1979 1.479 . S
C1982 C1977 1.245 . S
C1982 C1978 1.477 . S
C1982 H1999 0.932 . S
C1983 U1966 2.882 . S
C1983 C1977 1.428 . S
C1983 O1986 1.301 . S
C1983 O1987 1.282 . S
O1984 U1966 2.441 . S
O1984 C1970 1.249 . S
O1985 U1966 2.420 . S
O1985 C1970 1.202 . S
O1986 U1966 2.455 . S
O1986 C1983 1.301 . S
O1987 U1966 2.449 . S
O1987 C1983 1.282 . S
H1988 C1961 0.931 . S
H1989 C1963 0.929 . S
H1990 C1964 0.930 . S
H1991 C1965 0.931 . S
H1992 C1972 0.932 . S
H1993 C1973 0.930 . S
H1994 C1974 0.929 . S
H1995 C1976 0.930 . S
H1996 C1978 0.932 . S
H1997 C1979 0.929 . S
H1998 C1980 0.928 . S
H1999 C1982 0.932 . S
C2000 C2001 1.264 . S
C2000 C2005 1.479 . S
C2000 C2010 1.465 . S
C2001 C2000 1.264 . S
C2001 C2003 1.339 . S
C2001 H2028 0.931 . S
C2002 C2003 1.395 . S
C2002 C2004 1.320 . S
C2003 C2001 1.339 . S
C2003 C2002 1.395 . S
C2003 H2029 0.929 . S
C2004 C2002 1.320 . S
C2004 C2005 1.405 . S
C2004 H2030 0.930 . S
C2005 C2000 1.479 . S
C2005 C2004 1.405 . S
C2005 H2031 0.931 . S
U2006 O2007 2.454 . S
U2006 O2008 2.458 . S
U2006 C2009 2.984 . S
U2006 C2010 2.847 . S
U2006 C2023 2.882 . S
U2006 O2024 2.441 . S
U2006 O2025 2.420 . S
U2006 O2026 2.455 . S
U2006 O2027 2.449 . S
O2007 U2006 2.454 . S
O2007 C2009 1.353 . S
O2008 U2006 2.458 . S
O2008 C2009 1.286 . S
C2009 U2006 2.984 . S
C2009 O2007 1.353 . S
C2009 O2008 1.286 . S
C2009 C2011 1.363 . S
C2010 C2000 1.465 . S
C2010 U2006 2.847 . S
C2010 O2024 1.249 . S
C2010 O2025 1.202 . S
C2011 C2009 1.363 . S
C2011 C2013 1.408 . S
C2011 C2016 1.342 . S
C2012 C2013 1.310 1_455 S
C2012 C2015 1.461 . S
C2012 H2032 0.932 . S
C2013 C2011 1.408 . S
C2013 C2012 1.310 1_655 S
C2013 H2033 0.930 . S
C2014 C2015 1.474 . S
C2014 C2016 1.285 1_455 S
C2014 H2034 0.929 . S
C2015 C2012 1.461 . S
C2015 C2014 1.474 . S
C2016 C2011 1.342 . S
C2016 C2014 1.285 1_655 S
C2016 H2035 0.930 . S
C2017 C2020 1.424 . S
C2017 C2022 1.245 . S
C2017 C2023 1.428 . S
C2018 C2021 1.260 . S
C2018 C2022 1.477 . S
C2018 H2036 0.932 . S
C2019 C2020 1.384 . S
C2019 C2021 1.479 . S
C2019 H2037 0.929 . S
C2020 C2017 1.424 . S
C2020 C2019 1.384 . S
C2020 H2038 0.928 . S
C2021 C2018 1.260 . S
C2021 C2019 1.479 . S
C2022 C2017 1.245 . S
C2022 C2018 1.477 . S
C2022 H2039 0.932 . S
C2023 U2006 2.882 . S
C2023 C2017 1.428 . S
C2023 O2026 1.301 . S
C2023 O2027 1.282 . S
O2024 U2006 2.441 . S
O2024 C2010 1.249 . S
O2025 U2006 2.420 . S
O2025 C2010 1.202 . S
O2026 U2006 2.455 . S
O2026 C2023 1.301 . S
O2027 U2006 2.449 . S
O2027 C2023 1.282 . S
H2028 C2001 0.931 . S
H2029 C2003 0.929 . S
H2030 C2004 0.930 . S
H2031 C2005 0.931 . S
H2032 C2012 0.932 . S
H2033 C2013 0.930 . S
H2034 C2014 0.929 . S
H2035 C2016 0.930 . S
H2036 C2018 0.932 . S
H2037 C2019 0.929 . S
H2038 C2020 0.928 . S
H2039 C2022 0.932 . S
C2040 C2041 1.264 . S
C2040 C2045 1.479 . S
C2040 C2050 1.465 . S
C2041 C2040 1.264 . S
C2041 C2043 1.339 . S
C2041 H2068 0.931 . S
C2042 C2043 1.395 . S
C2042 C2044 1.320 . S
C2043 C2041 1.339 . S
C2043 C2042 1.395 . S
C2043 H2069 0.929 . S
C2044 C2042 1.320 . S
C2044 C2045 1.405 . S
C2044 H2070 0.930 . S
C2045 C2040 1.479 . S
C2045 C2044 1.405 . S
C2045 H2071 0.931 . S
U2046 O2047 2.454 . S
U2046 O2048 2.458 . S
U2046 C2049 2.984 . S
U2046 C2050 2.847 . S
U2046 C2063 2.882 . S
U2046 O2064 2.441 . S
U2046 O2065 2.420 . S
U2046 O2066 2.455 . S
U2046 O2067 2.449 . S
O2047 U2046 2.454 . S
O2047 C2049 1.353 . S
O2048 U2046 2.458 . S
O2048 C2049 1.286 . S
C2049 U2046 2.984 . S
C2049 O2047 1.353 . S
C2049 O2048 1.286 . S
C2049 C2051 1.363 . S
C2050 C2040 1.465 . S
C2050 U2046 2.847 . S
C2050 O2064 1.249 . S
C2050 O2065 1.202 . S
C2051 C2049 1.363 . S
C2051 C2053 1.408 . S
C2051 C2056 1.342 . S
C2052 C2053 1.310 . S
C2052 C2055 1.461 . S
C2052 H2072 0.932 . S
C2053 C2051 1.408 . S
C2053 C2052 1.310 . S
C2053 H2073 0.930 . S
C2054 C2055 1.474 . S
C2054 C2056 1.285 . S
C2054 H2074 0.929 . S
C2055 C2052 1.461 . S
C2055 C2054 1.474 . S
C2056 C2051 1.342 . S
C2056 C2054 1.285 . S
C2056 H2075 0.930 . S
C2057 C2060 1.424 . S
C2057 C2062 1.245 . S
C2057 C2063 1.428 . S
C2058 C2061 1.260 . S
C2058 C2062 1.477 . S
C2058 H2076 0.932 . S
C2059 C2060 1.384 . S
C2059 C2061 1.479 . S
C2059 H2077 0.929 . S
C2060 C2057 1.424 . S
C2060 C2059 1.384 . S
C2060 H2078 0.928 . S
C2061 C2058 1.260 . S
C2061 C2059 1.479 . S
C2062 C2057 1.245 . S
C2062 C2058 1.477 . S
C2062 H2079 0.932 . S
C2063 U2046 2.882 . S
C2063 C2057 1.428 . S
C2063 O2066 1.301 . S
C2063 O2067 1.282 . S
O2064 U2046 2.441 . S
O2064 C2050 1.249 . S
O2065 U2046 2.420 . S
O2065 C2050 1.202 . S
O2066 U2046 2.455 . S
O2066 C2063 1.301 . S
O2067 U2046 2.449 . S
O2067 C2063 1.282 . S
H2068 C2041 0.931 . S
H2069 C2043 0.929 . S
H2070 C2044 0.930 . S
H2071 C2045 0.931 . S
H2072 C2052 0.932 . S
H2073 C2053 0.930 . S
H2074 C2054 0.929 . S
H2075 C2056 0.930 . S
H2076 C2058 0.932 . S
H2077 C2059 0.929 . S
H2078 C2060 0.928 . S
H2079 C2062 0.932 . S
C2080 C2081 1.264 . S
C2080 C2085 1.479 . S
C2080 C2090 1.465 . S
C2081 C2080 1.264 . S
C2081 C2083 1.339 . S
C2081 H2108 0.931 . S
C2082 C2083 1.395 . S
C2082 C2084 1.320 . S
C2083 C2081 1.339 . S
C2083 C2082 1.395 . S
C2083 H2109 0.929 . S
C2084 C2082 1.320 . S
C2084 C2085 1.405 . S
C2084 H2110 0.930 . S
C2085 C2080 1.479 . S
C2085 C2084 1.405 . S
C2085 H2111 0.931 . S
U2086 O2087 2.454 . S
U2086 O2088 2.458 . S
U2086 C2089 2.984 . S
U2086 C2090 2.847 . S
U2086 C2103 2.882 . S
U2086 O2104 2.441 . S
U2086 O2105 2.420 . S
U2086 O2106 2.455 . S
U2086 O2107 2.449 . S
O2087 U2086 2.454 . S
O2087 C2089 1.353 . S
O2088 U2086 2.458 . S
O2088 C2089 1.286 . S
C2089 U2086 2.984 . S
C2089 O2087 1.353 . S
C2089 O2088 1.286 . S
C2089 C2091 1.363 . S
C2090 C2080 1.465 . S
C2090 U2086 2.847 . S
C2090 O2104 1.249 . S
C2090 O2105 1.202 . S
C2091 C2089 1.363 . S
C2091 C2093 1.408 . S
C2091 C2096 1.342 . S
C2092 C2093 1.310 . S
C2092 C2095 1.461 . S
C2092 H2112 0.932 . S
C2093 C2091 1.408 . S
C2093 C2092 1.310 . S
C2093 H2113 0.930 . S
C2094 C2095 1.474 . S
C2094 C2096 1.285 . S
C2094 H2114 0.929 . S
C2095 C2092 1.461 . S
C2095 C2094 1.474 . S
C2096 C2091 1.342 . S
C2096 C2094 1.285 . S
C2096 H2115 0.930 . S
C2097 C2100 1.424 . S
C2097 C2102 1.245 . S
C2097 C2103 1.428 . S
C2098 C2101 1.260 . S
C2098 C2102 1.477 . S
C2098 H2116 0.932 . S
C2099 C2100 1.384 . S
C2099 C2101 1.479 . S
C2099 H2117 0.929 . S
C2100 C2097 1.424 . S
C2100 C2099 1.384 . S
C2100 H2118 0.928 . S
C2101 C2098 1.260 . S
C2101 C2099 1.479 . S
C2102 C2097 1.245 . S
C2102 C2098 1.477 . S
C2102 H2119 0.932 . S
C2103 U2086 2.882 . S
C2103 C2097 1.428 . S
C2103 O2106 1.301 . S
C2103 O2107 1.282 . S
O2104 U2086 2.441 . S
O2104 C2090 1.249 . S
O2105 U2086 2.420 . S
O2105 C2090 1.202 . S
O2106 U2086 2.455 . S
O2106 C2103 1.301 . S
O2107 U2086 2.449 . S
O2107 C2103 1.282 . S
H2108 C2081 0.931 . S
H2109 C2083 0.929 . S
H2110 C2084 0.930 . S
H2111 C2085 0.931 . S
H2112 C2092 0.932 . S
H2113 C2093 0.930 . S
H2114 C2094 0.929 . S
H2115 C2096 0.930 . S
H2116 C2098 0.932 . S
H2117 C2099 0.929 . S
H2118 C2100 0.928 . S
H2119 C2102 0.932 . S
C2120 C2121 1.264 . S
C2120 C2125 1.479 . S
C2120 C2130 1.465 . S
C2121 C2120 1.264 . S
C2121 C2123 1.339 . S
C2121 H2148 0.931 . S
C2122 C2123 1.395 . S
C2122 C2124 1.320 . S
C2123 C2121 1.339 . S
C2123 C2122 1.395 . S
C2123 H2149 0.929 . S
C2124 C2122 1.320 . S
C2124 C2125 1.405 . S
C2124 H2150 0.930 . S
C2125 C2120 1.479 . S
C2125 C2124 1.405 . S
C2125 H2151 0.931 . S
U2126 O2127 2.454 . S
U2126 O2128 2.458 . S
U2126 C2129 2.984 . S
U2126 C2130 2.847 . S
U2126 C2143 2.882 . S
U2126 O2144 2.441 . S
U2126 O2145 2.420 . S
U2126 O2146 2.455 . S
U2126 O2147 2.449 . S
O2127 U2126 2.454 . S
O2127 C2129 1.353 . S
O2128 U2126 2.458 . S
O2128 C2129 1.286 . S
C2129 U2126 2.984 . S
C2129 O2127 1.353 . S
C2129 O2128 1.286 . S
C2129 C2131 1.363 . S
C2130 C2120 1.465 . S
C2130 U2126 2.847 . S
C2130 O2144 1.249 . S
C2130 O2145 1.202 . S
C2131 C2129 1.363 . S
C2131 C2133 1.408 . S
C2131 C2136 1.342 . S
C2132 C2133 1.310 . S
C2132 C2135 1.461 . S
C2132 H2152 0.932 . S
C2133 C2131 1.408 . S
C2133 C2132 1.310 . S
C2133 H2153 0.930 . S
C2134 C2135 1.474 . S
C2134 C2136 1.285 . S
C2134 H2154 0.929 . S
C2135 C2132 1.461 . S
C2135 C2134 1.474 . S
C2136 C2131 1.342 . S
C2136 C2134 1.285 . S
C2136 H2155 0.930 . S
C2137 C2140 1.424 . S
C2137 C2142 1.245 . S
C2137 C2143 1.428 . S
C2138 C2141 1.260 . S
C2138 C2142 1.477 . S
C2138 H2156 0.932 . S
C2139 C2140 1.384 . S
C2139 C2141 1.479 . S
C2139 H2157 0.929 . S
C2140 C2137 1.424 . S
C2140 C2139 1.384 . S
C2140 H2158 0.928 . S
C2141 C2138 1.260 . S
C2141 C2139 1.479 . S
C2142 C2137 1.245 . S
C2142 C2138 1.477 . S
C2142 H2159 0.932 . S
C2143 U2126 2.882 . S
C2143 C2137 1.428 . S
C2143 O2146 1.301 . S
C2143 O2147 1.282 . S
O2144 U2126 2.441 . S
O2144 C2130 1.249 . S
O2145 U2126 2.420 . S
O2145 C2130 1.202 . S
O2146 U2126 2.455 . S
O2146 C2143 1.301 . S
O2147 U2126 2.449 . S
O2147 C2143 1.282 . S
H2148 C2121 0.931 . S
H2149 C2123 0.929 . S
H2150 C2124 0.930 . S
H2151 C2125 0.931 . S
H2152 C2132 0.932 . S
H2153 C2133 0.930 . S
H2154 C2134 0.929 . S
H2155 C2136 0.930 . S
H2156 C2138 0.932 . S
H2157 C2139 0.929 . S
H2158 C2140 0.928 . S
H2159 C2142 0.932 . S
C2160 C2161 1.264 . S
C2160 C2165 1.479 . S
C2160 C2170 1.465 . S
C2161 C2160 1.264 . S
C2161 C2163 1.339 . S
C2161 H2188 0.931 . S
C2162 C2163 1.395 . S
C2162 C2164 1.320 . S
C2163 C2161 1.339 . S
C2163 C2162 1.395 . S
C2163 H2189 0.929 . S
C2164 C2162 1.320 . S
C2164 C2165 1.405 . S
C2164 H2190 0.930 . S
C2165 C2160 1.479 . S
C2165 C2164 1.405 . S
C2165 H2191 0.931 . S
U2166 O2167 2.454 . S
U2166 O2168 2.458 . S
U2166 C2169 2.984 . S
U2166 C2170 2.847 . S
U2166 C2183 2.882 . S
U2166 O2184 2.441 . S
U2166 O2185 2.420 . S
U2166 O2186 2.455 . S
U2166 O2187 2.449 . S
O2167 U2166 2.454 . S
O2167 C2169 1.353 . S
O2168 U2166 2.458 . S
O2168 C2169 1.286 . S
C2169 U2166 2.984 . S
C2169 O2167 1.353 . S
C2169 O2168 1.286 . S
C2169 C2171 1.363 . S
C2170 C2160 1.465 . S
C2170 U2166 2.847 . S
C2170 O2184 1.249 . S
C2170 O2185 1.202 . S
C2171 C2169 1.363 . S
C2171 C2173 1.408 . S
C2171 C2176 1.342 . S
C2172 C2173 1.310 1_455 S
C2172 C2175 1.461 . S
C2172 H2192 0.932 . S
C2173 C2171 1.408 . S
C2173 C2172 1.310 1_655 S
C2173 H2193 0.930 . S
C2174 C2175 1.474 . S
C2174 C2176 1.285 1_455 S
C2174 H2194 0.929 . S
C2175 C2172 1.461 . S
C2175 C2174 1.474 . S
C2176 C2171 1.342 . S
C2176 C2174 1.285 1_655 S
C2176 H2195 0.930 . S
C2177 C2180 1.424 . S
C2177 C2182 1.245 . S
C2177 C2183 1.428 . S
C2178 C2181 1.260 . S
C2178 C2182 1.477 . S
C2178 H2196 0.932 . S
C2179 C2180 1.384 . S
C2179 C2181 1.479 . S
C2179 H2197 0.929 . S
C2180 C2177 1.424 . S
C2180 C2179 1.384 . S
C2180 H2198 0.928 . S
C2181 C2178 1.260 . S
C2181 C2179 1.479 . S
C2182 C2177 1.245 . S
C2182 C2178 1.477 . S
C2182 H2199 0.932 . S
C2183 U2166 2.882 . S
C2183 C2177 1.428 . S
C2183 O2186 1.301 . S
C2183 O2187 1.282 . S
O2184 U2166 2.441 . S
O2184 C2170 1.249 . S
O2185 U2166 2.420 . S
O2185 C2170 1.202 . S
O2186 U2166 2.455 . S
O2186 C2183 1.301 . S
O2187 U2166 2.449 . S
O2187 C2183 1.282 . S
H2188 C2161 0.931 . S
H2189 C2163 0.929 . S
H2190 C2164 0.930 . S
H2191 C2165 0.931 . S
H2192 C2172 0.932 . S
H2193 C2173 0.930 . S
H2194 C2174 0.929 . S
H2195 C2176 0.930 . S
H2196 C2178 0.932 . S
H2197 C2179 0.929 . S
H2198 C2180 0.928 . S
H2199 C2182 0.932 . S
C2200 C2201 1.264 . S
C2200 C2205 1.479 . S
C2200 C2210 1.465 . S
C2201 C2200 1.264 . S
C2201 C2203 1.339 . S
C2201 H2228 0.931 . S
C2202 C2203 1.395 . S
C2202 C2204 1.320 . S
C2203 C2201 1.339 . S
C2203 C2202 1.395 . S
C2203 H2229 0.929 . S
C2204 C2202 1.320 . S
C2204 C2205 1.405 . S
C2204 H2230 0.930 . S
C2205 C2200 1.479 . S
C2205 C2204 1.405 . S
C2205 H2231 0.931 . S
U2206 O2207 2.454 . S
U2206 O2208 2.458 . S
U2206 C2209 2.984 . S
U2206 C2210 2.847 . S
U2206 C2223 2.882 . S
U2206 O2224 2.441 . S
U2206 O2225 2.420 . S
U2206 O2226 2.455 . S
U2206 O2227 2.449 . S
O2207 U2206 2.454 . S
O2207 C2209 1.353 . S
O2208 U2206 2.458 . S
O2208 C2209 1.286 . S
C2209 U2206 2.984 . S
C2209 O2207 1.353 . S
C2209 O2208 1.286 . S
C2209 C2211 1.363 . S
C2210 C2200 1.465 . S
C2210 U2206 2.847 . S
C2210 O2224 1.249 . S
C2210 O2225 1.202 . S
C2211 C2209 1.363 . S
C2211 C2213 1.408 . S
C2211 C2216 1.342 . S
C2212 C2213 1.310 . S
C2212 C2215 1.461 . S
C2212 H2232 0.932 . S
C2213 C2211 1.408 . S
C2213 C2212 1.310 . S
C2213 H2233 0.930 . S
C2214 C2215 1.474 . S
C2214 C2216 1.285 . S
C2214 H2234 0.929 . S
C2215 C2212 1.461 . S
C2215 C2214 1.474 . S
C2216 C2211 1.342 . S
C2216 C2214 1.285 . S
C2216 H2235 0.930 . S
C2217 C2220 1.424 . S
C2217 C2222 1.245 . S
C2217 C2223 1.428 . S
C2218 C2221 1.260 . S
C2218 C2222 1.477 . S
C2218 H2236 0.932 . S
C2219 C2220 1.384 . S
C2219 C2221 1.479 . S
C2219 H2237 0.929 . S
C2220 C2217 1.424 . S
C2220 C2219 1.384 . S
C2220 H2238 0.928 . S
C2221 C2218 1.260 . S
C2221 C2219 1.479 . S
C2222 C2217 1.245 . S
C2222 C2218 1.477 . S
C2222 H2239 0.932 . S
C2223 U2206 2.882 . S
C2223 C2217 1.428 . S
C2223 O2226 1.301 . S
C2223 O2227 1.282 . S
O2224 U2206 2.441 . S
O2224 C2210 1.249 . S
O2225 U2206 2.420 . S
O2225 C2210 1.202 . S
O2226 U2206 2.455 . S
O2226 C2223 1.301 . S
O2227 U2206 2.449 . S
O2227 C2223 1.282 . S
H2228 C2201 0.931 . S
H2229 C2203 0.929 . S
H2230 C2204 0.930 . S
H2231 C2205 0.931 . S
H2232 C2212 0.932 . S
H2233 C2213 0.930 . S
H2234 C2214 0.929 . S
H2235 C2216 0.930 . S
H2236 C2218 0.932 . S
H2237 C2219 0.929 . S
H2238 C2220 0.928 . S
H2239 C2222 0.932 . S
C2240 C2241 1.264 . S
C2240 C2245 1.479 . S
C2240 C2250 1.465 . S
C2241 C2240 1.264 . S
C2241 C2243 1.339 . S
C2241 H2268 0.931 . S
C2242 C2243 1.395 . S
C2242 C2244 1.320 . S
C2243 C2241 1.339 . S
C2243 C2242 1.395 . S
C2243 H2269 0.929 . S
C2244 C2242 1.320 . S
C2244 C2245 1.405 . S
C2244 H2270 0.930 . S
C2245 C2240 1.479 . S
C2245 C2244 1.405 . S
C2245 H2271 0.931 . S
U2246 O2247 2.454 . S
U2246 O2248 2.458 . S
U2246 C2249 2.984 . S
U2246 C2250 2.847 . S
U2246 C2263 2.882 . S
U2246 O2264 2.441 . S
U2246 O2265 2.420 . S
U2246 O2266 2.455 . S
U2246 O2267 2.449 . S
O2247 U2246 2.454 . S
O2247 C2249 1.353 . S
O2248 U2246 2.458 . S
O2248 C2249 1.286 . S
C2249 U2246 2.984 . S
C2249 O2247 1.353 . S
C2249 O2248 1.286 . S
C2249 C2251 1.363 . S
C2250 C2240 1.465 . S
C2250 U2246 2.847 . S
C2250 O2264 1.249 . S
C2250 O2265 1.202 . S
C2251 C2249 1.363 . S
C2251 C2253 1.408 . S
C2251 C2256 1.342 . S
C2252 C2253 1.310 . S
C2252 C2255 1.461 . S
C2252 H2272 0.932 . S
C2253 C2251 1.408 . S
C2253 C2252 1.310 . S
C2253 H2273 0.930 . S
C2254 C2255 1.474 . S
C2254 C2256 1.285 . S
C2254 H2274 0.929 . S
C2255 C2252 1.461 . S
C2255 C2254 1.474 . S
C2256 C2251 1.342 . S
C2256 C2254 1.285 . S
C2256 H2275 0.930 . S
C2257 C2260 1.424 . S
C2257 C2262 1.245 . S
C2257 C2263 1.428 . S
C2258 C2261 1.260 . S
C2258 C2262 1.477 . S
C2258 H2276 0.932 . S
C2259 C2260 1.384 . S
C2259 C2261 1.479 . S
C2259 H2277 0.929 . S
C2260 C2257 1.424 . S
C2260 C2259 1.384 . S
C2260 H2278 0.928 . S
C2261 C2258 1.260 . S
C2261 C2259 1.479 . S
C2262 C2257 1.245 . S
C2262 C2258 1.477 . S
C2262 H2279 0.932 . S
C2263 U2246 2.882 . S
C2263 C2257 1.428 . S
C2263 O2266 1.301 . S
C2263 O2267 1.282 . S
O2264 U2246 2.441 . S
O2264 C2250 1.249 . S
O2265 U2246 2.420 . S
O2265 C2250 1.202 . S
O2266 U2246 2.455 . S
O2266 C2263 1.301 . S
O2267 U2246 2.449 . S
O2267 C2263 1.282 . S
H2268 C2241 0.931 . S
H2269 C2243 0.929 . S
H2270 C2244 0.930 . S
H2271 C2245 0.931 . S
H2272 C2252 0.932 . S
H2273 C2253 0.930 . S
H2274 C2254 0.929 . S
H2275 C2256 0.930 . S
H2276 C2258 0.932 . S
H2277 C2259 0.929 . S
H2278 C2260 0.928 . S
H2279 C2262 0.932 . S
C2280 C2281 1.264 . S
C2280 C2285 1.479 . S
C2280 C2290 1.465 . S
C2281 C2280 1.264 . S
C2281 C2283 1.339 . S
C2281 H2308 0.931 . S
C2282 C2283 1.395 . S
C2282 C2284 1.320 . S
C2283 C2281 1.339 . S
C2283 C2282 1.395 . S
C2283 H2309 0.929 . S
C2284 C2282 1.320 . S
C2284 C2285 1.405 . S
C2284 H2310 0.930 . S
C2285 C2280 1.479 . S
C2285 C2284 1.405 . S
C2285 H2311 0.931 . S
U2286 O2287 2.454 . S
U2286 O2288 2.458 . S
U2286 C2289 2.984 . S
U2286 C2290 2.847 . S
U2286 C2303 2.882 . S
U2286 O2304 2.441 . S
U2286 O2305 2.420 . S
U2286 O2306 2.455 . S
U2286 O2307 2.449 . S
O2287 U2286 2.454 . S
O2287 C2289 1.353 . S
O2288 U2286 2.458 . S
O2288 C2289 1.286 . S
C2289 U2286 2.984 . S
C2289 O2287 1.353 . S
C2289 O2288 1.286 . S
C2289 C2291 1.363 . S
C2290 C2280 1.465 . S
C2290 U2286 2.847 . S
C2290 O2304 1.249 . S
C2290 O2305 1.202 . S
C2291 C2289 1.363 . S
C2291 C2293 1.408 . S
C2291 C2296 1.342 . S
C2292 C2293 1.310 . S
C2292 C2295 1.461 . S
C2292 H2312 0.932 . S
C2293 C2291 1.408 . S
C2293 C2292 1.310 . S
C2293 H2313 0.930 . S
C2294 C2295 1.474 . S
C2294 C2296 1.285 . S
C2294 H2314 0.929 . S
C2295 C2292 1.461 . S
C2295 C2294 1.474 . S
C2296 C2291 1.342 . S
C2296 C2294 1.285 . S
C2296 H2315 0.930 . S
C2297 C2300 1.424 . S
C2297 C2302 1.245 . S
C2297 C2303 1.428 . S
C2298 C2301 1.260 . S
C2298 C2302 1.477 . S
C2298 H2316 0.932 . S
C2299 C2300 1.384 . S
C2299 C2301 1.479 . S
C2299 H2317 0.929 . S
C2300 C2297 1.424 . S
C2300 C2299 1.384 . S
C2300 H2318 0.928 . S
C2301 C2298 1.260 . S
C2301 C2299 1.479 . S
C2302 C2297 1.245 . S
C2302 C2298 1.477 . S
C2302 H2319 0.932 . S
C2303 U2286 2.882 . S
C2303 C2297 1.428 . S
C2303 O2306 1.301 . S
C2303 O2307 1.282 . S
O2304 U2286 2.441 . S
O2304 C2290 1.249 . S
O2305 U2286 2.420 . S
O2305 C2290 1.202 . S
O2306 U2286 2.455 . S
O2306 C2303 1.301 . S
O2307 U2286 2.449 . S
O2307 C2303 1.282 . S
H2308 C2281 0.931 . S
H2309 C2283 0.929 . S
H2310 C2284 0.930 . S
H2311 C2285 0.931 . S
H2312 C2292 0.932 . S
H2313 C2293 0.930 . S
H2314 C2294 0.929 . S
H2315 C2296 0.930 . S
H2316 C2298 0.932 . S
H2317 C2299 0.929 . S
H2318 C2300 0.928 . S
H2319 C2302 0.932 . S
C2320 C2321 1.264 . S
C2320 C2325 1.479 . S
C2320 C2330 1.465 . S
C2321 C2320 1.264 . S
C2321 C2323 1.339 . S
C2321 H2348 0.931 . S
C2322 C2323 1.395 . S
C2322 C2324 1.320 . S
C2323 C2321 1.339 . S
C2323 C2322 1.395 . S
C2323 H2349 0.929 . S
C2324 C2322 1.320 . S
C2324 C2325 1.405 . S
C2324 H2350 0.930 . S
C2325 C2320 1.479 . S
C2325 C2324 1.405 . S
C2325 H2351 0.931 . S
U2326 O2327 2.454 . S
U2326 O2328 2.458 . S
U2326 C2329 2.984 . S
U2326 C2330 2.847 . S
U2326 C2343 2.882 . S
U2326 O2344 2.441 . S
U2326 O2345 2.420 . S
U2326 O2346 2.455 . S
U2326 O2347 2.449 . S
O2327 U2326 2.454 . S
O2327 C2329 1.353 . S
O2328 U2326 2.458 . S
O2328 C2329 1.286 . S
C2329 U2326 2.984 . S
C2329 O2327 1.353 . S
C2329 O2328 1.286 . S
C2329 C2331 1.363 . S
C2330 C2320 1.465 . S
C2330 U2326 2.847 . S
C2330 O2344 1.249 . S
C2330 O2345 1.202 . S
C2331 C2329 1.363 . S
C2331 C2333 1.408 . S
C2331 C2336 1.342 . S
C2332 C2333 1.310 . S
C2332 C2335 1.461 . S
C2332 H2352 0.932 . S
C2333 C2331 1.408 . S
C2333 C2332 1.310 . S
C2333 H2353 0.930 . S
C2334 C2335 1.474 . S
C2334 C2336 1.285 . S
C2334 H2354 0.929 . S
C2335 C2332 1.461 . S
C2335 C2334 1.474 . S
C2336 C2331 1.342 . S
C2336 C2334 1.285 . S
C2336 H2355 0.930 . S
C2337 C2340 1.424 . S
C2337 C2342 1.245 . S
C2337 C2343 1.428 . S
C2338 C2341 1.260 . S
C2338 C2342 1.477 . S
C2338 H2356 0.932 . S
C2339 C2340 1.384 . S
C2339 C2341 1.479 . S
C2339 H2357 0.929 . S
C2340 C2337 1.424 . S
C2340 C2339 1.384 . S
C2340 H2358 0.928 . S
C2341 C2338 1.260 . S
C2341 C2339 1.479 . S
C2342 C2337 1.245 . S
C2342 C2338 1.477 . S
C2342 H2359 0.932 . S
C2343 U2326 2.882 . S
C2343 C2337 1.428 . S
C2343 O2346 1.301 . S
C2343 O2347 1.282 . S
O2344 U2326 2.441 . S
O2344 C2330 1.249 . S
O2345 U2326 2.420 . S
O2345 C2330 1.202 . S
O2346 U2326 2.455 . S
O2346 C2343 1.301 . S
O2347 U2326 2.449 . S
O2347 C2343 1.282 . S
H2348 C2321 0.931 . S
H2349 C2323 0.929 . S
H2350 C2324 0.930 . S
H2351 C2325 0.931 . S
H2352 C2332 0.932 . S
H2353 C2333 0.930 . S
H2354 C2334 0.929 . S
H2355 C2336 0.930 . S
H2356 C2338 0.932 . S
H2357 C2339 0.929 . S
H2358 C2340 0.928 . S
H2359 C2342 0.932 . S
C2360 C2361 1.264 . S
C2360 C2365 1.479 . S
C2360 C2370 1.465 . S
C2361 C2360 1.264 . S
C2361 C2363 1.339 . S
C2361 H2388 0.931 . S
C2362 C2363 1.395 . S
C2362 C2364 1.320 . S
C2363 C2361 1.339 . S
C2363 C2362 1.395 . S
C2363 H2389 0.929 . S
C2364 C2362 1.320 . S
C2364 C2365 1.405 . S
C2364 H2390 0.930 . S
C2365 C2360 1.479 . S
C2365 C2364 1.405 . S
C2365 H2391 0.931 . S
U2366 O2367 2.454 . S
U2366 O2368 2.458 . S
U2366 C2369 2.984 . S
U2366 C2370 2.847 . S
U2366 C2383 2.882 . S
U2366 O2384 2.441 . S
U2366 O2385 2.420 . S
U2366 O2386 2.455 . S
U2366 O2387 2.449 . S
O2367 U2366 2.454 . S
O2367 C2369 1.353 . S
O2368 U2366 2.458 . S
O2368 C2369 1.286 . S
C2369 U2366 2.984 . S
C2369 O2367 1.353 . S
C2369 O2368 1.286 . S
C2369 C2371 1.363 . S
C2370 C2360 1.465 . S
C2370 U2366 2.847 . S
C2370 O2384 1.249 . S
C2370 O2385 1.202 . S
C2371 C2369 1.363 . S
C2371 C2373 1.408 . S
C2371 C2376 1.342 . S
C2372 C2373 1.310 . S
C2372 C2375 1.461 . S
C2372 H2392 0.932 . S
C2373 C2371 1.408 . S
C2373 C2372 1.310 . S
C2373 H2393 0.930 . S
C2374 C2375 1.474 . S
C2374 C2376 1.285 . S
C2374 H2394 0.929 . S
C2375 C2372 1.461 . S
C2375 C2374 1.474 . S
C2376 C2371 1.342 . S
C2376 C2374 1.285 . S
C2376 H2395 0.930 . S
C2377 C2380 1.424 . S
C2377 C2382 1.245 . S
C2377 C2383 1.428 . S
C2378 C2381 1.260 . S
C2378 C2382 1.477 . S
C2378 H2396 0.932 . S
C2379 C2380 1.384 . S
C2379 C2381 1.479 . S
C2379 H2397 0.929 . S
C2380 C2377 1.424 . S
C2380 C2379 1.384 . S
C2380 H2398 0.928 . S
C2381 C2378 1.260 . S
C2381 C2379 1.479 . S
C2382 C2377 1.245 . S
C2382 C2378 1.477 . S
C2382 H2399 0.932 . S
C2383 U2366 2.882 . S
C2383 C2377 1.428 . S
C2383 O2386 1.301 . S
C2383 O2387 1.282 . S
O2384 U2366 2.441 . S
O2384 C2370 1.249 . S
O2385 U2366 2.420 . S
O2385 C2370 1.202 . S
O2386 U2366 2.455 . S
O2386 C2383 1.301 . S
O2387 U2366 2.449 . S
O2387 C2383 1.282 . S
H2388 C2361 0.931 . S
H2389 C2363 0.929 . S
H2390 C2364 0.930 . S
H2391 C2365 0.931 . S
H2392 C2372 0.932 . S
H2393 C2373 0.930 . S
H2394 C2374 0.929 . S
H2395 C2376 0.930 . S
H2396 C2378 0.932 . S
H2397 C2379 0.929 . S
H2398 C2380 0.928 . S
H2399 C2382 0.932 . S
C2400 C2401 1.264 . S
C2400 C2405 1.479 . S
C2400 C2410 1.465 . S
C2401 C2400 1.264 . S
C2401 C2403 1.339 . S
C2401 H2428 0.931 . S
C2402 C2403 1.395 . S
C2402 C2404 1.320 . S
C2403 C2401 1.339 . S
C2403 C2402 1.395 . S
C2403 H2429 0.929 . S
C2404 C2402 1.320 . S
C2404 C2405 1.405 . S
C2404 H2430 0.930 . S
C2405 C2400 1.479 . S
C2405 C2404 1.405 . S
C2405 H2431 0.931 . S
U2406 O2407 2.454 . S
U2406 O2408 2.458 . S
U2406 C2409 2.984 . S
U2406 C2410 2.847 . S
U2406 C2423 2.882 . S
U2406 O2424 2.441 . S
U2406 O2425 2.420 . S
U2406 O2426 2.455 . S
U2406 O2427 2.449 . S
O2407 U2406 2.454 . S
O2407 C2409 1.353 . S
O2408 U2406 2.458 . S
O2408 C2409 1.286 . S
C2409 U2406 2.984 . S
C2409 O2407 1.353 . S
C2409 O2408 1.286 . S
C2409 C2411 1.363 . S
C2410 C2400 1.465 . S
C2410 U2406 2.847 . S
C2410 O2424 1.249 . S
C2410 O2425 1.202 . S
C2411 C2409 1.363 . S
C2411 C2413 1.408 . S
C2411 C2416 1.342 . S
C2412 C2413 1.310 . S
C2412 C2415 1.461 . S
C2412 H2432 0.932 . S
C2413 C2411 1.408 . S
C2413 C2412 1.310 . S
C2413 H2433 0.930 . S
C2414 C2415 1.474 . S
C2414 C2416 1.285 . S
C2414 H2434 0.929 . S
C2415 C2412 1.461 . S
C2415 C2414 1.474 . S
C2416 C2411 1.342 . S
C2416 C2414 1.285 . S
C2416 H2435 0.930 . S
C2417 C2420 1.424 . S
C2417 C2422 1.245 . S
C2417 C2423 1.428 . S
C2418 C2421 1.260 . S
C2418 C2422 1.477 . S
C2418 H2436 0.932 . S
C2419 C2420 1.384 . S
C2419 C2421 1.479 . S
C2419 H2437 0.929 . S
C2420 C2417 1.424 . S
C2420 C2419 1.384 . S
C2420 H2438 0.928 . S
C2421 C2418 1.260 . S
C2421 C2419 1.479 . S
C2422 C2417 1.245 . S
C2422 C2418 1.477 . S
C2422 H2439 0.932 . S
C2423 U2406 2.882 . S
C2423 C2417 1.428 . S
C2423 O2426 1.301 . S
C2423 O2427 1.282 . S
O2424 U2406 2.441 . S
O2424 C2410 1.249 . S
O2425 U2406 2.420 . S
O2425 C2410 1.202 . S
O2426 U2406 2.455 . S
O2426 C2423 1.301 . S
O2427 U2406 2.449 . S
O2427 C2423 1.282 . S
H2428 C2401 0.931 . S
H2429 C2403 0.929 . S
H2430 C2404 0.930 . S
H2431 C2405 0.931 . S
H2432 C2412 0.932 . S
H2433 C2413 0.930 . S
H2434 C2414 0.929 . S
H2435 C2416 0.930 . S
H2436 C2418 0.932 . S
H2437 C2419 0.929 . S
H2438 C2420 0.928 . S
H2439 C2422 0.932 . S
C2440 C2441 1.264 . S
C2440 C2445 1.479 . S
C2440 C2450 1.465 . S
C2441 C2440 1.264 . S
C2441 C2443 1.339 . S
C2441 H2468 0.931 . S
C2442 C2443 1.395 . S
C2442 C2444 1.320 . S
C2443 C2441 1.339 . S
C2443 C2442 1.395 . S
C2443 H2469 0.929 . S
C2444 C2442 1.320 . S
C2444 C2445 1.405 . S
C2444 H2470 0.930 . S
C2445 C2440 1.479 . S
C2445 C2444 1.405 . S
C2445 H2471 0.931 . S
U2446 O2447 2.454 . S
U2446 O2448 2.458 . S
U2446 C2449 2.984 . S
U2446 C2450 2.847 . S
U2446 C2463 2.882 . S
U2446 O2464 2.441 . S
U2446 O2465 2.420 . S
U2446 O2466 2.455 . S
U2446 O2467 2.449 . S
O2447 U2446 2.454 . S
O2447 C2449 1.353 . S
O2448 U2446 2.458 . S
O2448 C2449 1.286 . S
C2449 U2446 2.984 . S
C2449 O2447 1.353 . S
C2449 O2448 1.286 . S
C2449 C2451 1.363 . S
C2450 C2440 1.465 . S
C2450 U2446 2.847 . S
C2450 O2464 1.249 . S
C2450 O2465 1.202 . S
C2451 C2449 1.363 . S
C2451 C2453 1.408 . S
C2451 C2456 1.342 . S
C2452 C2453 1.310 . S
C2452 C2455 1.461 . S
C2452 H2472 0.932 . S
C2453 C2451 1.408 . S
C2453 C2452 1.310 . S
C2453 H2473 0.930 . S
C2454 C2455 1.474 . S
C2454 C2456 1.285 . S
C2454 H2474 0.929 . S
C2455 C2452 1.461 . S
C2455 C2454 1.474 . S
C2456 C2451 1.342 . S
C2456 C2454 1.285 . S
C2456 H2475 0.930 . S
C2457 C2460 1.424 . S
C2457 C2462 1.245 . S
C2457 C2463 1.428 . S
C2458 C2461 1.260 . S
C2458 C2462 1.477 . S
C2458 H2476 0.932 . S
C2459 C2460 1.384 . S
C2459 C2461 1.479 . S
C2459 H2477 0.929 . S
C2460 C2457 1.424 . S
C2460 C2459 1.384 . S
C2460 H2478 0.928 . S
C2461 C2458 1.260 . S
C2461 C2459 1.479 . S
C2462 C2457 1.245 . S
C2462 C2458 1.477 . S
C2462 H2479 0.932 . S
C2463 U2446 2.882 . S
C2463 C2457 1.428 . S
C2463 O2466 1.301 . S
C2463 O2467 1.282 . S
O2464 U2446 2.441 . S
O2464 C2450 1.249 . S
O2465 U2446 2.420 . S
O2465 C2450 1.202 . S
O2466 U2446 2.455 . S
O2466 C2463 1.301 . S
O2467 U2446 2.449 . S
O2467 C2463 1.282 . S
H2468 C2441 0.931 . S
H2469 C2443 0.929 . S
H2470 C2444 0.930 . S
H2471 C2445 0.931 . S
H2472 C2452 0.932 . S
H2473 C2453 0.930 . S
H2474 C2454 0.929 . S
H2475 C2456 0.930 . S
H2476 C2458 0.932 . S
H2477 C2459 0.929 . S
H2478 C2460 0.928 . S
H2479 C2462 0.932 . S
C2480 C2481 1.264 . S
C2480 C2485 1.479 . S
C2480 C2490 1.465 . S
C2481 C2480 1.264 . S
C2481 C2483 1.339 . S
C2481 H2508 0.931 . S
C2482 C2483 1.395 . S
C2482 C2484 1.320 . S
C2483 C2481 1.339 . S
C2483 C2482 1.395 . S
C2483 H2509 0.929 . S
C2484 C2482 1.320 . S
C2484 C2485 1.405 . S
C2484 H2510 0.930 . S
C2485 C2480 1.479 . S
C2485 C2484 1.405 . S
C2485 H2511 0.931 . S
U2486 O2487 2.454 . S
U2486 O2488 2.458 . S
U2486 C2489 2.984 . S
U2486 C2490 2.847 . S
U2486 C2503 2.882 . S
U2486 O2504 2.441 . S
U2486 O2505 2.420 . S
U2486 O2506 2.455 . S
U2486 O2507 2.449 . S
O2487 U2486 2.454 . S
O2487 C2489 1.353 . S
O2488 U2486 2.458 . S
O2488 C2489 1.286 . S
C2489 U2486 2.984 . S
C2489 O2487 1.353 . S
C2489 O2488 1.286 . S
C2489 C2491 1.363 . S
C2490 C2480 1.465 . S
C2490 U2486 2.847 . S
C2490 O2504 1.249 . S
C2490 O2505 1.202 . S
C2491 C2489 1.363 . S
C2491 C2493 1.408 . S
C2491 C2496 1.342 . S
C2492 C2493 1.310 . S
C2492 C2495 1.461 . S
C2492 H2512 0.932 . S
C2493 C2491 1.408 . S
C2493 C2492 1.310 . S
C2493 H2513 0.930 . S
C2494 C2495 1.474 . S
C2494 C2496 1.285 . S
C2494 H2514 0.929 . S
C2495 C2492 1.461 . S
C2495 C2494 1.474 . S
C2496 C2491 1.342 . S
C2496 C2494 1.285 . S
C2496 H2515 0.930 . S
C2497 C2500 1.424 . S
C2497 C2502 1.245 . S
C2497 C2503 1.428 . S
C2498 C2501 1.260 . S
C2498 C2502 1.477 . S
C2498 H2516 0.932 . S
C2499 C2500 1.384 . S
C2499 C2501 1.479 . S
C2499 H2517 0.929 . S
C2500 C2497 1.424 . S
C2500 C2499 1.384 . S
C2500 H2518 0.928 . S
C2501 C2498 1.260 . S
C2501 C2499 1.479 . S
C2502 C2497 1.245 . S
C2502 C2498 1.477 . S
C2502 H2519 0.932 . S
C2503 U2486 2.882 . S
C2503 C2497 1.428 . S
C2503 O2506 1.301 . S
C2503 O2507 1.282 . S
O2504 U2486 2.441 . S
O2504 C2490 1.249 . S
O2505 U2486 2.420 . S
O2505 C2490 1.202 . S
O2506 U2486 2.455 . S
O2506 C2503 1.301 . S
O2507 U2486 2.449 . S
O2507 C2503 1.282 . S
H2508 C2481 0.931 . S
H2509 C2483 0.929 . S
H2510 C2484 0.930 . S
H2511 C2485 0.931 . S
H2512 C2492 0.932 . S
H2513 C2493 0.930 . S
H2514 C2494 0.929 . S
H2515 C2496 0.930 . S
H2516 C2498 0.932 . S
H2517 C2499 0.929 . S
H2518 C2500 0.928 . S
H2519 C2502 0.932 . S
C2520 C2521 1.264 . S
C2520 C2525 1.479 . S
C2520 C2530 1.465 . S
C2521 C2520 1.264 . S
C2521 C2523 1.339 . S
C2521 H2548 0.931 . S
C2522 C2523 1.395 . S
C2522 C2524 1.320 . S
C2523 C2521 1.339 . S
C2523 C2522 1.395 . S
C2523 H2549 0.929 . S
C2524 C2522 1.320 . S
C2524 C2525 1.405 . S
C2524 H2550 0.930 . S
C2525 C2520 1.479 . S
C2525 C2524 1.405 . S
C2525 H2551 0.931 . S
U2526 O2527 2.454 . S
U2526 O2528 2.458 . S
U2526 C2529 2.984 . S
U2526 C2530 2.847 . S
U2526 C2543 2.882 . S
U2526 O2544 2.441 . S
U2526 O2545 2.420 . S
U2526 O2546 2.455 . S
U2526 O2547 2.449 . S
O2527 U2526 2.454 . S
O2527 C2529 1.353 . S
O2528 U2526 2.458 . S
O2528 C2529 1.286 . S
C2529 U2526 2.984 . S
C2529 O2527 1.353 . S
C2529 O2528 1.286 . S
C2529 C2531 1.363 . S
C2530 C2520 1.465 . S
C2530 U2526 2.847 . S
C2530 O2544 1.249 . S
C2530 O2545 1.202 . S
C2531 C2529 1.363 . S
C2531 C2533 1.408 . S
C2531 C2536 1.342 . S
C2532 C2533 1.310 . S
C2532 C2535 1.461 . S
C2532 H2552 0.932 . S
C2533 C2531 1.408 . S
C2533 C2532 1.310 . S
C2533 H2553 0.930 . S
C2534 C2535 1.474 . S
C2534 C2536 1.285 . S
C2534 H2554 0.929 . S
C2535 C2532 1.461 . S
C2535 C2534 1.474 . S
C2536 C2531 1.342 . S
C2536 C2534 1.285 . S
C2536 H2555 0.930 . S
C2537 C2540 1.424 . S
C2537 C2542 1.245 . S
C2537 C2543 1.428 . S
C2538 C2541 1.260 . S
C2538 C2542 1.477 . S
C2538 H2556 0.932 . S
C2539 C2540 1.384 . S
C2539 C2541 1.479 . S
C2539 H2557 0.929 . S
C2540 C2537 1.424 . S
C2540 C2539 1.384 . S
C2540 H2558 0.928 . S
C2541 C2538 1.260 . S
C2541 C2539 1.479 . S
C2542 C2537 1.245 . S
C2542 C2538 1.477 . S
C2542 H2559 0.932 . S
C2543 U2526 2.882 . S
C2543 C2537 1.428 . S
C2543 O2546 1.301 . S
C2543 O2547 1.282 . S
O2544 U2526 2.441 . S
O2544 C2530 1.249 . S
O2545 U2526 2.420 . S
O2545 C2530 1.202 . S
O2546 U2526 2.455 . S
O2546 C2543 1.301 . S
O2547 U2526 2.449 . S
O2547 C2543 1.282 . S
H2548 C2521 0.931 . S
H2549 C2523 0.929 . S
H2550 C2524 0.930 . S
H2551 C2525 0.931 . S
H2552 C2532 0.932 . S
H2553 C2533 0.930 . S
H2554 C2534 0.929 . S
H2555 C2536 0.930 . S
H2556 C2538 0.932 . S
H2557 C2539 0.929 . S
H2558 C2540 0.928 . S
H2559 C2542 0.932 . S
C2560 C2561 1.264 . S
C2560 C2565 1.479 . S
C2560 C2570 1.465 . S
C2561 C2560 1.264 . S
C2561 C2563 1.339 . S
C2561 H2588 0.931 . S
C2562 C2563 1.395 . S
C2562 C2564 1.320 . S
C2563 C2561 1.339 . S
C2563 C2562 1.395 . S
C2563 H2589 0.929 . S
C2564 C2562 1.320 . S
C2564 C2565 1.405 . S
C2564 H2590 0.930 . S
C2565 C2560 1.479 . S
C2565 C2564 1.405 . S
C2565 H2591 0.931 . S
U2566 O2567 2.454 . S
U2566 O2568 2.458 . S
U2566 C2569 2.984 . S
U2566 C2570 2.847 . S
U2566 C2583 2.882 . S
U2566 O2584 2.441 . S
U2566 O2585 2.420 . S
U2566 O2586 2.455 . S
U2566 O2587 2.449 . S
O2567 U2566 2.454 . S
O2567 C2569 1.353 . S
O2568 U2566 2.458 . S
O2568 C2569 1.286 . S
C2569 U2566 2.984 . S
C2569 O2567 1.353 . S
C2569 O2568 1.286 . S
C2569 C2571 1.363 . S
C2570 C2560 1.465 . S
C2570 U2566 2.847 . S
C2570 O2584 1.249 . S
C2570 O2585 1.202 . S
C2571 C2569 1.363 . S
C2571 C2573 1.408 . S
C2571 C2576 1.342 . S
C2572 C2573 1.310 . S
C2572 C2575 1.461 . S
C2572 H2592 0.932 . S
C2573 C2571 1.408 . S
C2573 C2572 1.310 . S
C2573 H2593 0.930 . S
C2574 C2575 1.474 . S
C2574 C2576 1.285 . S
C2574 H2594 0.929 . S
C2575 C2572 1.461 . S
C2575 C2574 1.474 . S
C2576 C2571 1.342 . S
C2576 C2574 1.285 . S
C2576 H2595 0.930 . S
C2577 C2580 1.424 . S
C2577 C2582 1.245 . S
C2577 C2583 1.428 . S
C2578 C2581 1.260 . S
C2578 C2582 1.477 . S
C2578 H2596 0.932 . S
C2579 C2580 1.384 . S
C2579 C2581 1.479 . S
C2579 H2597 0.929 . S
C2580 C2577 1.424 . S
C2580 C2579 1.384 . S
C2580 H2598 0.928 . S
C2581 C2578 1.260 . S
C2581 C2579 1.479 . S
C2582 C2577 1.245 . S
C2582 C2578 1.477 . S
C2582 H2599 0.932 . S
C2583 U2566 2.882 . S
C2583 C2577 1.428 . S
C2583 O2586 1.301 . S
C2583 O2587 1.282 . S
O2584 U2566 2.441 . S
O2584 C2570 1.249 . S
O2585 U2566 2.420 . S
O2585 C2570 1.202 . S
O2586 U2566 2.455 . S
O2586 C2583 1.301 . S
O2587 U2566 2.449 . S
O2587 C2583 1.282 . S
H2588 C2561 0.931 . S
H2589 C2563 0.929 . S
H2590 C2564 0.930 . S
H2591 C2565 0.931 . S
H2592 C2572 0.932 . S
H2593 C2573 0.930 . S
H2594 C2574 0.929 . S
H2595 C2576 0.930 . S
H2596 C2578 0.932 . S
H2597 C2579 0.929 . S
H2598 C2580 0.928 . S
H2599 C2582 0.932 . S
C2600 C2601 1.264 . S
C2600 C2605 1.479 . S
C2600 C2610 1.465 . S
C2601 C2600 1.264 . S
C2601 C2603 1.339 . S
C2601 H2628 0.931 . S
C2602 C2603 1.395 . S
C2602 C2604 1.320 . S
C2603 C2601 1.339 . S
C2603 C2602 1.395 . S
C2603 H2629 0.929 . S
C2604 C2602 1.320 . S
C2604 C2605 1.405 . S
C2604 H2630 0.930 . S
C2605 C2600 1.479 . S
C2605 C2604 1.405 . S
C2605 H2631 0.931 . S
U2606 O2607 2.454 . S
U2606 O2608 2.458 . S
U2606 C2609 2.984 . S
U2606 C2610 2.847 . S
U2606 C2623 2.882 . S
U2606 O2624 2.441 . S
U2606 O2625 2.420 . S
U2606 O2626 2.455 . S
U2606 O2627 2.449 . S
O2607 U2606 2.454 . S
O2607 C2609 1.353 . S
O2608 U2606 2.458 . S
O2608 C2609 1.286 . S
C2609 U2606 2.984 . S
C2609 O2607 1.353 . S
C2609 O2608 1.286 . S
C2609 C2611 1.363 . S
C2610 C2600 1.465 . S
C2610 U2606 2.847 . S
C2610 O2624 1.249 . S
C2610 O2625 1.202 . S
C2611 C2609 1.363 . S
C2611 C2613 1.408 . S
C2611 C2616 1.342 . S
C2612 C2613 1.310 . S
C2612 C2615 1.461 . S
C2612 H2632 0.932 . S
C2613 C2611 1.408 . S
C2613 C2612 1.310 . S
C2613 H2633 0.930 . S
C2614 C2615 1.474 . S
C2614 C2616 1.285 . S
C2614 H2634 0.929 . S
C2615 C2612 1.461 . S
C2615 C2614 1.474 . S
C2616 C2611 1.342 . S
C2616 C2614 1.285 . S
C2616 H2635 0.930 . S
C2617 C2620 1.424 . S
C2617 C2622 1.245 . S
C2617 C2623 1.428 . S
C2618 C2621 1.260 . S
C2618 C2622 1.477 . S
C2618 H2636 0.932 . S
C2619 C2620 1.384 . S
C2619 C2621 1.479 . S
C2619 H2637 0.929 . S
C2620 C2617 1.424 . S
C2620 C2619 1.384 . S
C2620 H2638 0.928 . S
C2621 C2618 1.260 . S
C2621 C2619 1.479 . S
C2622 C2617 1.245 . S
C2622 C2618 1.477 . S
C2622 H2639 0.932 . S
C2623 U2606 2.882 . S
C2623 C2617 1.428 . S
C2623 O2626 1.301 . S
C2623 O2627 1.282 . S
O2624 U2606 2.441 . S
O2624 C2610 1.249 . S
O2625 U2606 2.420 . S
O2625 C2610 1.202 . S
O2626 U2606 2.455 . S
O2626 C2623 1.301 . S
O2627 U2606 2.449 . S
O2627 C2623 1.282 . S
H2628 C2601 0.931 . S
H2629 C2603 0.929 . S
H2630 C2604 0.930 . S
H2631 C2605 0.931 . S
H2632 C2612 0.932 . S
H2633 C2613 0.930 . S
H2634 C2614 0.929 . S
H2635 C2616 0.930 . S
H2636 C2618 0.932 . S
H2637 C2619 0.929 . S
H2638 C2620 0.928 . S
H2639 C2622 0.932 . S
C2640 C2641 1.264 . S
C2640 C2645 1.479 . S
C2640 C2650 1.465 . S
C2641 C2640 1.264 . S
C2641 C2643 1.339 . S
C2641 H2668 0.931 . S
C2642 C2643 1.395 . S
C2642 C2644 1.320 . S
C2643 C2641 1.339 . S
C2643 C2642 1.395 . S
C2643 H2669 0.929 . S
C2644 C2642 1.320 . S
C2644 C2645 1.405 . S
C2644 H2670 0.930 . S
C2645 C2640 1.479 . S
C2645 C2644 1.405 . S
C2645 H2671 0.931 . S
U2646 O2647 2.454 . S
U2646 O2648 2.458 . S
U2646 C2649 2.984 . S
U2646 C2650 2.847 . S
U2646 C2663 2.882 . S
U2646 O2664 2.441 . S
U2646 O2665 2.420 . S
U2646 O2666 2.455 . S
U2646 O2667 2.449 . S
O2647 U2646 2.454 . S
O2647 C2649 1.353 . S
O2648 U2646 2.458 . S
O2648 C2649 1.286 . S
C2649 U2646 2.984 . S
C2649 O2647 1.353 . S
C2649 O2648 1.286 . S
C2649 C2651 1.363 . S
C2650 C2640 1.465 . S
C2650 U2646 2.847 . S
C2650 O2664 1.249 . S
C2650 O2665 1.202 . S
C2651 C2649 1.363 . S
C2651 C2653 1.408 . S
C2651 C2656 1.342 . S
C2652 C2653 1.310 . S
C2652 C2655 1.461 . S
C2652 H2672 0.932 . S
C2653 C2651 1.408 . S
C2653 C2652 1.310 . S
C2653 H2673 0.930 . S
C2654 C2655 1.474 . S
C2654 C2656 1.285 . S
C2654 H2674 0.929 . S
C2655 C2652 1.461 . S
C2655 C2654 1.474 . S
C2656 C2651 1.342 . S
C2656 C2654 1.285 . S
C2656 H2675 0.930 . S
C2657 C2660 1.424 . S
C2657 C2662 1.245 . S
C2657 C2663 1.428 . S
C2658 C2661 1.260 . S
C2658 C2662 1.477 . S
C2658 H2676 0.932 . S
C2659 C2660 1.384 . S
C2659 C2661 1.479 . S
C2659 H2677 0.929 . S
C2660 C2657 1.424 . S
C2660 C2659 1.384 . S
C2660 H2678 0.928 . S
C2661 C2658 1.260 . S
C2661 C2659 1.479 . S
C2662 C2657 1.245 . S
C2662 C2658 1.477 . S
C2662 H2679 0.932 . S
C2663 U2646 2.882 . S
C2663 C2657 1.428 . S
C2663 O2666 1.301 . S
C2663 O2667 1.282 . S
O2664 U2646 2.441 . S
O2664 C2650 1.249 . S
O2665 U2646 2.420 . S
O2665 C2650 1.202 . S
O2666 U2646 2.455 . S
O2666 C2663 1.301 . S
O2667 U2646 2.449 . S
O2667 C2663 1.282 . S
H2668 C2641 0.931 . S
H2669 C2643 0.929 . S
H2670 C2644 0.930 . S
H2671 C2645 0.931 . S
H2672 C2652 0.932 . S
H2673 C2653 0.930 . S
H2674 C2654 0.929 . S
H2675 C2656 0.930 . S
H2676 C2658 0.932 . S
H2677 C2659 0.929 . S
H2678 C2660 0.928 . S
H2679 C2662 0.932 . S
C2680 C2681 1.264 . S
C2680 C2685 1.479 . S
C2680 C2690 1.465 . S
C2681 C2680 1.264 . S
C2681 C2683 1.339 . S
C2681 H2708 0.931 . S
C2682 C2683 1.395 . S
C2682 C2684 1.320 . S
C2683 C2681 1.339 . S
C2683 C2682 1.395 . S
C2683 H2709 0.929 . S
C2684 C2682 1.320 . S
C2684 C2685 1.405 . S
C2684 H2710 0.930 . S
C2685 C2680 1.479 . S
C2685 C2684 1.405 . S
C2685 H2711 0.931 . S
U2686 O2687 2.454 . S
U2686 O2688 2.458 . S
U2686 C2689 2.984 . S
U2686 C2690 2.847 . S
U2686 C2703 2.882 . S
U2686 O2704 2.441 . S
U2686 O2705 2.420 . S
U2686 O2706 2.455 . S
U2686 O2707 2.449 . S
O2687 U2686 2.454 . S
O2687 C2689 1.353 . S
O2688 U2686 2.458 . S
O2688 C2689 1.286 . S
C2689 U2686 2.984 . S
C2689 O2687 1.353 . S
C2689 O2688 1.286 . S
C2689 C2691 1.363 . S
C2690 C2680 1.465 . S
C2690 U2686 2.847 . S
C2690 O2704 1.249 . S
C2690 O2705 1.202 . S
C2691 C2689 1.363 . S
C2691 C2693 1.408 1_556 S
C2691 C2696 1.342 1_556 S
C2692 C2693 1.310 . S
C2692 C2695 1.461 . S
C2692 H2712 0.932 . S
C2693 C2691 1.408 1_554 S
C2693 C2692 1.310 . S
C2693 H2713 0.930 1_554 S
C2694 C2695 1.474 . S
C2694 C2696 1.285 . S
C2694 H2714 0.929 . S
C2695 C2692 1.461 . S
C2695 C2694 1.474 . S
C2696 C2691 1.342 1_554 S
C2696 C2694 1.285 . S
C2696 H2715 0.930 1_554 S
C2697 C2700 1.424 . S
C2697 C2702 1.245 . S
C2697 C2703 1.428 . S
C2698 C2701 1.260 . S
C2698 C2702 1.477 . S
C2698 H2716 0.932 . S
C2699 C2700 1.384 . S
C2699 C2701 1.479 . S
C2699 H2717 0.929 . S
C2700 C2697 1.424 . S
C2700 C2699 1.384 . S
C2700 H2718 0.928 . S
C2701 C2698 1.260 . S
C2701 C2699 1.479 . S
C2702 C2697 1.245 . S
C2702 C2698 1.477 . S
C2702 H2719 0.932 . S
C2703 U2686 2.882 . S
C2703 C2697 1.428 . S
C2703 O2706 1.301 . S
C2703 O2707 1.282 . S
O2704 U2686 2.441 . S
O2704 C2690 1.249 . S
O2705 U2686 2.420 . S
O2705 C2690 1.202 . S
O2706 U2686 2.455 . S
O2706 C2703 1.301 . S
O2707 U2686 2.449 . S
O2707 C2703 1.282 . S
H2708 C2681 0.931 . S
H2709 C2683 0.929 . S
H2710 C2684 0.930 . S
H2711 C2685 0.931 . S
H2712 C2692 0.932 . S
H2713 C2693 0.930 1_556 S
H2714 C2694 0.929 . S
H2715 C2696 0.930 1_556 S
H2716 C2698 0.932 . S
H2717 C2699 0.929 . S
H2718 C2700 0.928 . S
H2719 C2702 0.932 . S
C2720 C2721 1.264 . S
C2720 C2725 1.479 . S
C2720 C2730 1.465 . S
C2721 C2720 1.264 . S
C2721 C2723 1.339 . S
C2721 H2748 0.931 . S
C2722 C2723 1.395 . S
C2722 C2724 1.320 . S
C2723 C2721 1.339 . S
C2723 C2722 1.395 . S
C2723 H2749 0.929 . S
C2724 C2722 1.320 . S
C2724 C2725 1.405 . S
C2724 H2750 0.930 . S
C2725 C2720 1.479 . S
C2725 C2724 1.405 . S
C2725 H2751 0.931 . S
U2726 O2727 2.454 . S
U2726 O2728 2.458 . S
U2726 C2729 2.984 . S
U2726 C2730 2.847 . S
U2726 C2743 2.882 . S
U2726 O2744 2.441 . S
U2726 O2745 2.420 . S
U2726 O2746 2.455 . S
U2726 O2747 2.449 . S
O2727 U2726 2.454 . S
O2727 C2729 1.353 . S
O2728 U2726 2.458 . S
O2728 C2729 1.286 . S
C2729 U2726 2.984 . S
C2729 O2727 1.353 . S
C2729 O2728 1.286 . S
C2729 C2731 1.363 . S
C2730 C2720 1.465 . S
C2730 U2726 2.847 . S
C2730 O2744 1.249 . S
C2730 O2745 1.202 . S
C2731 C2729 1.363 . S
C2731 C2733 1.408 . S
C2731 C2736 1.342 . S
C2732 C2733 1.310 . S
C2732 C2735 1.461 . S
C2732 H2752 0.932 . S
C2733 C2731 1.408 . S
C2733 C2732 1.310 . S
C2733 H2753 0.930 . S
C2734 C2735 1.474 . S
C2734 C2736 1.285 . S
C2734 H2754 0.929 . S
C2735 C2732 1.461 . S
C2735 C2734 1.474 . S
C2736 C2731 1.342 . S
C2736 C2734 1.285 . S
C2736 H2755 0.930 . S
C2737 C2740 1.424 . S
C2737 C2742 1.245 . S
C2737 C2743 1.428 . S
C2738 C2741 1.260 . S
C2738 C2742 1.477 . S
C2738 H2756 0.932 . S
C2739 C2740 1.384 . S
C2739 C2741 1.479 . S
C2739 H2757 0.929 . S
C2740 C2737 1.424 . S
C2740 C2739 1.384 . S
C2740 H2758 0.928 . S
C2741 C2738 1.260 . S
C2741 C2739 1.479 . S
C2742 C2737 1.245 . S
C2742 C2738 1.477 . S
C2742 H2759 0.932 . S
C2743 U2726 2.882 . S
C2743 C2737 1.428 . S
C2743 O2746 1.301 . S
C2743 O2747 1.282 . S
O2744 U2726 2.441 . S
O2744 C2730 1.249 . S
O2745 U2726 2.420 . S
O2745 C2730 1.202 . S
O2746 U2726 2.455 . S
O2746 C2743 1.301 . S
O2747 U2726 2.449 . S
O2747 C2743 1.282 . S
H2748 C2721 0.931 . S
H2749 C2723 0.929 . S
H2750 C2724 0.930 . S
H2751 C2725 0.931 . S
H2752 C2732 0.932 . S
H2753 C2733 0.930 . S
H2754 C2734 0.929 . S
H2755 C2736 0.930 . S
H2756 C2738 0.932 . S
H2757 C2739 0.929 . S
H2758 C2740 0.928 . S
H2759 C2742 0.932 . S
C2760 C2761 1.264 . S
C2760 C2765 1.479 . S
C2760 C2770 1.465 . S
C2761 C2760 1.264 . S
C2761 C2763 1.339 . S
C2761 H2788 0.931 . S
C2762 C2763 1.395 . S
C2762 C2764 1.320 . S
C2763 C2761 1.339 . S
C2763 C2762 1.395 . S
C2763 H2789 0.929 . S
C2764 C2762 1.320 . S
C2764 C2765 1.405 . S
C2764 H2790 0.930 . S
C2765 C2760 1.479 . S
C2765 C2764 1.405 . S
C2765 H2791 0.931 . S
U2766 O2767 2.454 . S
U2766 O2768 2.458 . S
U2766 C2769 2.984 . S
U2766 C2770 2.847 . S
U2766 C2783 2.882 . S
U2766 O2784 2.441 . S
U2766 O2785 2.420 . S
U2766 O2786 2.455 . S
U2766 O2787 2.449 . S
O2767 U2766 2.454 . S
O2767 C2769 1.353 . S
O2768 U2766 2.458 . S
O2768 C2769 1.286 . S
C2769 U2766 2.984 . S
C2769 O2767 1.353 . S
C2769 O2768 1.286 . S
C2769 C2771 1.363 . S
C2770 C2760 1.465 . S
C2770 U2766 2.847 . S
C2770 O2784 1.249 . S
C2770 O2785 1.202 . S
C2771 C2769 1.363 . S
C2771 C2773 1.408 1_554 S
C2771 C2776 1.342 1_554 S
C2772 C2773 1.310 . S
C2772 C2775 1.461 . S
C2772 H2792 0.932 . S
C2773 C2771 1.408 1_556 S
C2773 C2772 1.310 . S
C2773 H2793 0.930 1_556 S
C2774 C2775 1.474 . S
C2774 C2776 1.285 . S
C2774 H2794 0.929 . S
C2775 C2772 1.461 . S
C2775 C2774 1.474 . S
C2776 C2771 1.342 1_556 S
C2776 C2774 1.285 . S
C2776 H2795 0.930 1_556 S
C2777 C2780 1.424 . S
C2777 C2782 1.245 . S
C2777 C2783 1.428 . S
C2778 C2781 1.260 . S
C2778 C2782 1.477 . S
C2778 H2796 0.932 . S
C2779 C2780 1.384 . S
C2779 C2781 1.479 . S
C2779 H2797 0.929 . S
C2780 C2777 1.424 . S
C2780 C2779 1.384 . S
C2780 H2798 0.928 . S
C2781 C2778 1.260 . S
C2781 C2779 1.479 . S
C2782 C2777 1.245 . S
C2782 C2778 1.477 . S
C2782 H2799 0.932 . S
C2783 U2766 2.882 . S
C2783 C2777 1.428 . S
C2783 O2786 1.301 . S
C2783 O2787 1.282 . S
O2784 U2766 2.441 . S
O2784 C2770 1.249 . S
O2785 U2766 2.420 . S
O2785 C2770 1.202 . S
O2786 U2766 2.455 . S
O2786 C2783 1.301 . S
O2787 U2766 2.449 . S
O2787 C2783 1.282 . S
H2788 C2761 0.931 . S
H2789 C2763 0.929 . S
H2790 C2764 0.930 . S
H2791 C2765 0.931 . S
H2792 C2772 0.932 . S
H2793 C2773 0.930 1_554 S
H2794 C2774 0.929 . S
H2795 C2776 0.930 1_554 S
H2796 C2778 0.932 . S
H2797 C2779 0.929 . S
H2798 C2780 0.928 . S
H2799 C2782 0.932 . S
C2800 C2801 1.264 . S
C2800 C2805 1.479 . S
C2800 C2810 1.465 . S
C2801 C2800 1.264 . S
C2801 C2803 1.339 . S
C2801 H2828 0.931 . S
C2802 C2803 1.395 . S
C2802 C2804 1.320 . S
C2803 C2801 1.339 . S
C2803 C2802 1.395 . S
C2803 H2829 0.929 . S
C2804 C2802 1.320 . S
C2804 C2805 1.405 . S
C2804 H2830 0.930 . S
C2805 C2800 1.479 . S
C2805 C2804 1.405 . S
C2805 H2831 0.931 . S
U2806 O2807 2.454 . S
U2806 O2808 2.458 . S
U2806 C2809 2.984 . S
U2806 C2810 2.847 . S
U2806 C2823 2.882 . S
U2806 O2824 2.441 . S
U2806 O2825 2.420 . S
U2806 O2826 2.455 . S
U2806 O2827 2.449 . S
O2807 U2806 2.454 . S
O2807 C2809 1.353 . S
O2808 U2806 2.458 . S
O2808 C2809 1.286 . S
C2809 U2806 2.984 . S
C2809 O2807 1.353 . S
C2809 O2808 1.286 . S
C2809 C2811 1.363 . S
C2810 C2800 1.465 . S
C2810 U2806 2.847 . S
C2810 O2824 1.249 . S
C2810 O2825 1.202 . S
C2811 C2809 1.363 . S
C2811 C2813 1.408 . S
C2811 C2816 1.342 . S
C2812 C2813 1.310 . S
C2812 C2815 1.461 . S
C2812 H2832 0.932 . S
C2813 C2811 1.408 . S
C2813 C2812 1.310 . S
C2813 H2833 0.930 . S
C2814 C2815 1.474 . S
C2814 C2816 1.285 . S
C2814 H2834 0.929 . S
C2815 C2812 1.461 . S
C2815 C2814 1.474 . S
C2816 C2811 1.342 . S
C2816 C2814 1.285 . S
C2816 H2835 0.930 . S
C2817 C2820 1.424 . S
C2817 C2822 1.245 . S
C2817 C2823 1.428 . S
C2818 C2821 1.260 . S
C2818 C2822 1.477 . S
C2818 H2836 0.932 . S
C2819 C2820 1.384 . S
C2819 C2821 1.479 . S
C2819 H2837 0.929 . S
C2820 C2817 1.424 . S
C2820 C2819 1.384 . S
C2820 H2838 0.928 . S
C2821 C2818 1.260 . S
C2821 C2819 1.479 . S
C2822 C2817 1.245 . S
C2822 C2818 1.477 . S
C2822 H2839 0.932 . S
C2823 U2806 2.882 . S
C2823 C2817 1.428 . S
C2823 O2826 1.301 . S
C2823 O2827 1.282 . S
O2824 U2806 2.441 . S
O2824 C2810 1.249 . S
O2825 U2806 2.420 . S
O2825 C2810 1.202 . S
O2826 U2806 2.455 . S
O2826 C2823 1.301 . S
O2827 U2806 2.449 . S
O2827 C2823 1.282 . S
H2828 C2801 0.931 . S
H2829 C2803 0.929 . S
H2830 C2804 0.930 . S
H2831 C2805 0.931 . S
H2832 C2812 0.932 . S
H2833 C2813 0.930 . S
H2834 C2814 0.929 . S
H2835 C2816 0.930 . S
H2836 C2818 0.932 . S
H2837 C2819 0.929 . S
H2838 C2820 0.928 . S
H2839 C2822 0.932 . S
C2840 C2841 1.264 . S
C2840 C2845 1.479 . S
C2840 C2850 1.465 . S
C2841 C2840 1.264 . S
C2841 C2843 1.339 . S
C2841 H2868 0.931 . S
C2842 C2843 1.395 . S
C2842 C2844 1.320 . S
C2843 C2841 1.339 . S
C2843 C2842 1.395 . S
C2843 H2869 0.929 . S
C2844 C2842 1.320 . S
C2844 C2845 1.405 . S
C2844 H2870 0.930 . S
C2845 C2840 1.479 . S
C2845 C2844 1.405 . S
C2845 H2871 0.931 . S
U2846 O2847 2.454 . S
U2846 O2848 2.458 . S
U2846 C2849 2.984 . S
U2846 C2850 2.847 . S
U2846 C2863 2.882 . S
U2846 O2864 2.441 . S
U2846 O2865 2.420 . S
U2846 O2866 2.455 . S
U2846 O2867 2.449 . S
O2847 U2846 2.454 . S
O2847 C2849 1.353 . S
O2848 U2846 2.458 . S
O2848 C2849 1.286 . S
C2849 U2846 2.984 . S
C2849 O2847 1.353 . S
C2849 O2848 1.286 . S
C2849 C2851 1.363 . S
C2850 C2840 1.465 . S
C2850 U2846 2.847 . S
C2850 O2864 1.249 . S
C2850 O2865 1.202 . S
C2851 C2849 1.363 . S
C2851 C2853 1.408 . S
C2851 C2856 1.342 . S
C2852 C2853 1.310 . S
C2852 C2855 1.461 . S
C2852 H2872 0.932 . S
C2853 C2851 1.408 . S
C2853 C2852 1.310 . S
C2853 H2873 0.930 . S
C2854 C2855 1.474 . S
C2854 C2856 1.285 . S
C2854 H2874 0.929 . S
C2855 C2852 1.461 . S
C2855 C2854 1.474 . S
C2856 C2851 1.342 . S
C2856 C2854 1.285 . S
C2856 H2875 0.930 . S
C2857 C2860 1.424 . S
C2857 C2862 1.245 . S
C2857 C2863 1.428 . S
C2858 C2861 1.260 . S
C2858 C2862 1.477 . S
C2858 H2876 0.932 . S
C2859 C2860 1.384 . S
C2859 C2861 1.479 . S
C2859 H2877 0.929 . S
C2860 C2857 1.424 . S
C2860 C2859 1.384 . S
C2860 H2878 0.928 . S
C2861 C2858 1.260 . S
C2861 C2859 1.479 . S
C2862 C2857 1.245 . S
C2862 C2858 1.477 . S
C2862 H2879 0.932 . S
C2863 U2846 2.882 . S
C2863 C2857 1.428 . S
C2863 O2866 1.301 . S
C2863 O2867 1.282 . S
O2864 U2846 2.441 . S
O2864 C2850 1.249 . S
O2865 U2846 2.420 . S
O2865 C2850 1.202 . S
O2866 U2846 2.455 . S
O2866 C2863 1.301 . S
O2867 U2846 2.449 . S
O2867 C2863 1.282 . S
H2868 C2841 0.931 . S
H2869 C2843 0.929 . S
H2870 C2844 0.930 . S
H2871 C2845 0.931 . S
H2872 C2852 0.932 . S
H2873 C2853 0.930 . S
H2874 C2854 0.929 . S
H2875 C2856 0.930 . S
H2876 C2858 0.932 . S
H2877 C2859 0.929 . S
H2878 C2860 0.928 . S
H2879 C2862 0.932 . S
C2880 C2881 1.264 . S
C2880 C2885 1.479 . S
C2880 C2890 1.465 . S
C2881 C2880 1.264 . S
C2881 C2883 1.339 . S
C2881 H2908 0.931 . S
C2882 C2883 1.395 . S
C2882 C2884 1.320 . S
C2883 C2881 1.339 . S
C2883 C2882 1.395 . S
C2883 H2909 0.929 . S
C2884 C2882 1.320 . S
C2884 C2885 1.405 . S
C2884 H2910 0.930 . S
C2885 C2880 1.479 . S
C2885 C2884 1.405 . S
C2885 H2911 0.931 . S
U2886 O2887 2.454 . S
U2886 O2888 2.458 . S
U2886 C2889 2.984 . S
U2886 C2890 2.847 . S
U2886 C2903 2.882 . S
U2886 O2904 2.441 . S
U2886 O2905 2.420 . S
U2886 O2906 2.455 . S
U2886 O2907 2.449 . S
O2887 U2886 2.454 . S
O2887 C2889 1.353 . S
O2888 U2886 2.458 . S
O2888 C2889 1.286 . S
C2889 U2886 2.984 . S
C2889 O2887 1.353 . S
C2889 O2888 1.286 . S
C2889 C2891 1.363 . S
C2890 C2880 1.465 . S
C2890 U2886 2.847 . S
C2890 O2904 1.249 . S
C2890 O2905 1.202 . S
C2891 C2889 1.363 . S
C2891 C2893 1.408 . S
C2891 C2896 1.342 . S
C2892 C2893 1.310 . S
C2892 C2895 1.461 . S
C2892 H2912 0.932 . S
C2893 C2891 1.408 . S
C2893 C2892 1.310 . S
C2893 H2913 0.930 . S
C2894 C2895 1.474 . S
C2894 C2896 1.285 . S
C2894 H2914 0.929 . S
C2895 C2892 1.461 . S
C2895 C2894 1.474 . S
C2896 C2891 1.342 . S
C2896 C2894 1.285 . S
C2896 H2915 0.930 . S
C2897 C2900 1.424 . S
C2897 C2902 1.245 . S
C2897 C2903 1.428 . S
C2898 C2901 1.260 . S
C2898 C2902 1.477 . S
C2898 H2916 0.932 . S
C2899 C2900 1.384 . S
C2899 C2901 1.479 . S
C2899 H2917 0.929 . S
C2900 C2897 1.424 . S
C2900 C2899 1.384 . S
C2900 H2918 0.928 . S
C2901 C2898 1.260 . S
C2901 C2899 1.479 . S
C2902 C2897 1.245 . S
C2902 C2898 1.477 . S
C2902 H2919 0.932 . S
C2903 U2886 2.882 . S
C2903 C2897 1.428 . S
C2903 O2906 1.301 . S
C2903 O2907 1.282 . S
O2904 U2886 2.441 . S
O2904 C2890 1.249 . S
O2905 U2886 2.420 . S
O2905 C2890 1.202 . S
O2906 U2886 2.455 . S
O2906 C2903 1.301 . S
O2907 U2886 2.449 . S
O2907 C2903 1.282 . S
H2908 C2881 0.931 . S
H2909 C2883 0.929 . S
H2910 C2884 0.930 . S
H2911 C2885 0.931 . S
H2912 C2892 0.932 . S
H2913 C2893 0.930 . S
H2914 C2894 0.929 . S
H2915 C2896 0.930 . S
H2916 C2898 0.932 . S
H2917 C2899 0.929 . S
H2918 C2900 0.928 . S
H2919 C2902 0.932 . S
C2920 C2921 1.264 . S
C2920 C2925 1.479 . S
C2920 C2930 1.465 . S
C2921 C2920 1.264 . S
C2921 C2923 1.339 . S
C2921 H2948 0.931 . S
C2922 C2923 1.395 . S
C2922 C2924 1.320 . S
C2923 C2921 1.339 . S
C2923 C2922 1.395 . S
C2923 H2949 0.929 . S
C2924 C2922 1.320 . S
C2924 C2925 1.405 . S
C2924 H2950 0.930 . S
C2925 C2920 1.479 . S
C2925 C2924 1.405 . S
C2925 H2951 0.931 . S
U2926 O2927 2.454 . S
U2926 O2928 2.458 . S
U2926 C2929 2.984 . S
U2926 C2930 2.847 . S
U2926 C2943 2.882 . S
U2926 O2944 2.441 . S
U2926 O2945 2.420 . S
U2926 O2946 2.455 . S
U2926 O2947 2.449 . S
O2927 U2926 2.454 . S
O2927 C2929 1.353 . S
O2928 U2926 2.458 . S
O2928 C2929 1.286 . S
C2929 U2926 2.984 . S
C2929 O2927 1.353 . S
C2929 O2928 1.286 . S
C2929 C2931 1.363 . S
C2930 C2920 1.465 . S
C2930 U2926 2.847 . S
C2930 O2944 1.249 . S
C2930 O2945 1.202 . S
C2931 C2929 1.363 . S
C2931 C2933 1.408 . S
C2931 C2936 1.342 . S
C2932 C2933 1.310 . S
C2932 C2935 1.461 . S
C2932 H2952 0.932 . S
C2933 C2931 1.408 . S
C2933 C2932 1.310 . S
C2933 H2953 0.930 . S
C2934 C2935 1.474 . S
C2934 C2936 1.285 . S
C2934 H2954 0.929 . S
C2935 C2932 1.461 . S
C2935 C2934 1.474 . S
C2936 C2931 1.342 . S
C2936 C2934 1.285 . S
C2936 H2955 0.930 . S
C2937 C2940 1.424 . S
C2937 C2942 1.245 . S
C2937 C2943 1.428 . S
C2938 C2941 1.260 . S
C2938 C2942 1.477 . S
C2938 H2956 0.932 . S
C2939 C2940 1.384 . S
C2939 C2941 1.479 . S
C2939 H2957 0.929 . S
C2940 C2937 1.424 . S
C2940 C2939 1.384 . S
C2940 H2958 0.928 . S
C2941 C2938 1.260 . S
C2941 C2939 1.479 . S
C2942 C2937 1.245 . S
C2942 C2938 1.477 . S
C2942 H2959 0.932 . S
C2943 U2926 2.882 . S
C2943 C2937 1.428 . S
C2943 O2946 1.301 . S
C2943 O2947 1.282 . S
O2944 U2926 2.441 . S
O2944 C2930 1.249 . S
O2945 U2926 2.420 . S
O2945 C2930 1.202 . S
O2946 U2926 2.455 . S
O2946 C2943 1.301 . S
O2947 U2926 2.449 . S
O2947 C2943 1.282 . S
H2948 C2921 0.931 . S
H2949 C2923 0.929 . S
H2950 C2924 0.930 . S
H2951 C2925 0.931 . S
H2952 C2932 0.932 . S
H2953 C2933 0.930 . S
H2954 C2934 0.929 . S
H2955 C2936 0.930 . S
H2956 C2938 0.932 . S
H2957 C2939 0.929 . S
H2958 C2940 0.928 . S
H2959 C2942 0.932 . S
C2960 C2961 1.264 . S
C2960 C2965 1.479 . S
C2960 C2970 1.465 . S
C2961 C2960 1.264 . S
C2961 C2963 1.339 . S
C2961 H2988 0.931 . S
C2962 C2963 1.395 . S
C2962 C2964 1.320 . S
C2963 C2961 1.339 . S
C2963 C2962 1.395 . S
C2963 H2989 0.929 . S
C2964 C2962 1.320 . S
C2964 C2965 1.405 . S
C2964 H2990 0.930 . S
C2965 C2960 1.479 . S
C2965 C2964 1.405 . S
C2965 H2991 0.931 . S
U2966 O2967 2.454 . S
U2966 O2968 2.458 . S
U2966 C2969 2.984 . S
U2966 C2970 2.847 . S
U2966 C2983 2.882 . S
U2966 O2984 2.441 . S
U2966 O2985 2.420 . S
U2966 O2986 2.455 . S
U2966 O2987 2.449 . S
O2967 U2966 2.454 . S
O2967 C2969 1.353 . S
O2968 U2966 2.458 . S
O2968 C2969 1.286 . S
C2969 U2966 2.984 . S
C2969 O2967 1.353 . S
C2969 O2968 1.286 . S
C2969 C2971 1.363 . S
C2970 C2960 1.465 . S
C2970 U2966 2.847 . S
C2970 O2984 1.249 . S
C2970 O2985 1.202 . S
C2971 C2969 1.363 . S
C2971 C2973 1.408 1_455 S
C2971 C2976 1.342 1_455 S
C2972 C2973 1.310 . S
C2972 C2975 1.461 . S
C2972 H2992 0.932 . S
C2973 C2971 1.408 1_655 S
C2973 C2972 1.310 . S
C2973 H2993 0.930 1_655 S
C2974 C2975 1.474 . S
C2974 C2976 1.285 . S
C2974 H2994 0.929 . S
C2975 C2972 1.461 . S
C2975 C2974 1.474 . S
C2976 C2971 1.342 1_655 S
C2976 C2974 1.285 . S
C2976 H2995 0.931 1_655 S
C2977 C2980 1.424 . S
C2977 C2982 1.245 . S
C2977 C2983 1.428 . S
C2978 C2981 1.260 . S
C2978 C2982 1.477 . S
C2978 H2996 0.932 . S
C2979 C2980 1.384 . S
C2979 C2981 1.479 . S
C2979 H2997 0.929 . S
C2980 C2977 1.424 . S
C2980 C2979 1.384 . S
C2980 H2998 0.928 . S
C2981 C2978 1.260 . S
C2981 C2979 1.479 . S
C2982 C2977 1.245 . S
C2982 C2978 1.477 . S
C2982 H2999 0.932 . S
C2983 U2966 2.882 . S
C2983 C2977 1.428 . S
C2983 O2986 1.301 . S
C2983 O2987 1.282 . S
O2984 U2966 2.441 . S
O2984 C2970 1.249 . S
O2985 U2966 2.420 . S
O2985 C2970 1.202 . S
O2986 U2966 2.455 . S
O2986 C2983 1.301 . S
O2987 U2966 2.449 . S
O2987 C2983 1.282 . S
H2988 C2961 0.931 . S
H2989 C2963 0.929 . S
H2990 C2964 0.930 . S
H2991 C2965 0.931 . S
H2992 C2972 0.932 . S
H2993 C2973 0.930 1_455 S
H2994 C2974 0.929 . S
H2995 C2976 0.931 1_455 S
H2996 C2978 0.932 . S
H2997 C2979 0.929 . S
H2998 C2980 0.928 . S
H2999 C2982 0.932 . S
C3000 C3001 1.264 . S
C3000 C3005 1.479 . S
C3000 C3010 1.465 . S
C3001 C3000 1.264 . S
C3001 C3003 1.339 . S
C3001 H3028 0.931 . S
C3002 C3003 1.395 . S
C3002 C3004 1.320 . S
C3003 C3001 1.339 . S
C3003 C3002 1.395 . S
C3003 H3029 0.929 . S
C3004 C3002 1.320 . S
C3004 C3005 1.405 . S
C3004 H3030 0.930 . S
C3005 C3000 1.479 . S
C3005 C3004 1.405 . S
C3005 H3031 0.931 . S
U3006 O3007 2.454 . S
U3006 O3008 2.458 . S
U3006 C3009 2.984 . S
U3006 C3010 2.847 . S
U3006 C3023 2.882 . S
U3006 O3024 2.441 . S
U3006 O3025 2.420 . S
U3006 O3026 2.455 . S
U3006 O3027 2.449 . S
O3007 U3006 2.454 . S
O3007 C3009 1.353 . S
O3008 U3006 2.458 . S
O3008 C3009 1.286 . S
C3009 U3006 2.984 . S
C3009 O3007 1.353 . S
C3009 O3008 1.286 . S
C3009 C3011 1.363 . S
C3010 C3000 1.465 . S
C3010 U3006 2.847 . S
C3010 O3024 1.249 . S
C3010 O3025 1.202 . S
C3011 C3009 1.363 . S
C3011 C3013 1.408 . S
C3011 C3016 1.342 . S
C3012 C3013 1.310 . S
C3012 C3015 1.461 . S
C3012 H3032 0.932 . S
C3013 C3011 1.408 . S
C3013 C3012 1.310 . S
C3013 H3033 0.930 . S
C3014 C3015 1.474 . S
C3014 C3016 1.285 . S
C3014 H3034 0.929 . S
C3015 C3012 1.461 . S
C3015 C3014 1.474 . S
C3016 C3011 1.342 . S
C3016 C3014 1.285 . S
C3016 H3035 0.930 . S
C3017 C3020 1.424 . S
C3017 C3022 1.245 . S
C3017 C3023 1.428 . S
C3018 C3021 1.260 . S
C3018 C3022 1.477 . S
C3018 H3036 0.932 . S
C3019 C3020 1.384 . S
C3019 C3021 1.479 . S
C3019 H3037 0.929 . S
C3020 C3017 1.424 . S
C3020 C3019 1.384 . S
C3020 H3038 0.928 . S
C3021 C3018 1.260 . S
C3021 C3019 1.479 . S
C3022 C3017 1.245 . S
C3022 C3018 1.477 . S
C3022 H3039 0.932 . S
C3023 U3006 2.882 . S
C3023 C3017 1.428 . S
C3023 O3026 1.301 . S
C3023 O3027 1.282 . S
O3024 U3006 2.441 . S
O3024 C3010 1.249 . S
O3025 U3006 2.420 . S
O3025 C3010 1.202 . S
O3026 U3006 2.455 . S
O3026 C3023 1.301 . S
O3027 U3006 2.449 . S
O3027 C3023 1.282 . S
H3028 C3001 0.931 . S
H3029 C3003 0.929 . S
H3030 C3004 0.930 . S
H3031 C3005 0.931 . S
H3032 C3012 0.932 . S
H3033 C3013 0.930 . S
H3034 C3014 0.929 . S
H3035 C3016 0.930 . S
H3036 C3018 0.932 . S
H3037 C3019 0.929 . S
H3038 C3020 0.928 . S
H3039 C3022 0.932 . S
C3040 C3041 1.264 . S
C3040 C3045 1.479 . S
C3040 C3050 1.465 . S
C3041 C3040 1.264 . S
C3041 C3043 1.339 . S
C3041 H3068 0.931 . S
C3042 C3043 1.395 . S
C3042 C3044 1.320 . S
C3043 C3041 1.339 . S
C3043 C3042 1.395 . S
C3043 H3069 0.929 . S
C3044 C3042 1.320 . S
C3044 C3045 1.405 . S
C3044 H3070 0.930 . S
C3045 C3040 1.479 . S
C3045 C3044 1.405 . S
C3045 H3071 0.931 . S
U3046 O3047 2.454 . S
U3046 O3048 2.458 . S
U3046 C3049 2.984 . S
U3046 C3050 2.847 . S
U3046 C3063 2.882 . S
U3046 O3064 2.441 . S
U3046 O3065 2.420 . S
U3046 O3066 2.455 . S
U3046 O3067 2.449 . S
O3047 U3046 2.454 . S
O3047 C3049 1.353 . S
O3048 U3046 2.458 . S
O3048 C3049 1.286 . S
C3049 U3046 2.984 . S
C3049 O3047 1.353 . S
C3049 O3048 1.286 . S
C3049 C3051 1.363 . S
C3050 C3040 1.465 . S
C3050 U3046 2.847 . S
C3050 O3064 1.249 . S
C3050 O3065 1.202 . S
C3051 C3049 1.363 . S
C3051 C3053 1.408 . S
C3051 C3056 1.342 . S
C3052 C3053 1.310 . S
C3052 C3055 1.461 . S
C3052 H3072 0.932 . S
C3053 C3051 1.408 . S
C3053 C3052 1.310 . S
C3053 H3073 0.930 . S
C3054 C3055 1.474 . S
C3054 C3056 1.285 . S
C3054 H3074 0.929 . S
C3055 C3052 1.461 . S
C3055 C3054 1.474 . S
C3056 C3051 1.342 . S
C3056 C3054 1.285 . S
C3056 H3075 0.930 . S
C3057 C3060 1.424 . S
C3057 C3062 1.245 . S
C3057 C3063 1.428 . S
C3058 C3061 1.260 . S
C3058 C3062 1.477 . S
C3058 H3076 0.932 . S
C3059 C3060 1.384 . S
C3059 C3061 1.479 . S
C3059 H3077 0.929 . S
C3060 C3057 1.424 . S
C3060 C3059 1.384 . S
C3060 H3078 0.928 . S
C3061 C3058 1.260 . S
C3061 C3059 1.479 . S
C3062 C3057 1.245 . S
C3062 C3058 1.477 . S
C3062 H3079 0.932 . S
C3063 U3046 2.882 . S
C3063 C3057 1.428 . S
C3063 O3066 1.301 . S
C3063 O3067 1.282 . S
O3064 U3046 2.441 . S
O3064 C3050 1.249 . S
O3065 U3046 2.420 . S
O3065 C3050 1.202 . S
O3066 U3046 2.455 . S
O3066 C3063 1.301 . S
O3067 U3046 2.449 . S
O3067 C3063 1.282 . S
H3068 C3041 0.931 . S
H3069 C3043 0.929 . S
H3070 C3044 0.930 . S
H3071 C3045 0.931 . S
H3072 C3052 0.932 . S
H3073 C3053 0.930 . S
H3074 C3054 0.929 . S
H3075 C3056 0.930 . S
H3076 C3058 0.932 . S
H3077 C3059 0.929 . S
H3078 C3060 0.928 . S
H3079 C3062 0.932 . S
C3080 C3081 1.264 . S
C3080 C3085 1.479 . S
C3080 C3090 1.465 . S
C3081 C3080 1.264 . S
C3081 C3083 1.339 . S
C3081 H3108 0.931 . S
C3082 C3083 1.395 . S
C3082 C3084 1.320 . S
C3083 C3081 1.339 . S
C3083 C3082 1.395 . S
C3083 H3109 0.929 . S
C3084 C3082 1.320 . S
C3084 C3085 1.405 . S
C3084 H3110 0.930 . S
C3085 C3080 1.479 . S
C3085 C3084 1.405 . S
C3085 H3111 0.931 . S
U3086 O3087 2.454 . S
U3086 O3088 2.458 . S
U3086 C3089 2.984 . S
U3086 C3090 2.847 . S
U3086 C3103 2.882 . S
U3086 O3104 2.441 . S
U3086 O3105 2.420 . S
U3086 O3106 2.455 . S
U3086 O3107 2.449 . S
O3087 U3086 2.454 . S
O3087 C3089 1.353 . S
O3088 U3086 2.458 . S
O3088 C3089 1.286 . S
C3089 U3086 2.984 . S
C3089 O3087 1.353 . S
C3089 O3088 1.286 . S
C3089 C3091 1.363 . S
C3090 C3080 1.465 . S
C3090 U3086 2.847 . S
C3090 O3104 1.249 . S
C3090 O3105 1.202 . S
C3091 C3089 1.363 . S
C3091 C3093 1.408 . S
C3091 C3096 1.342 . S
C3092 C3093 1.310 . S
C3092 C3095 1.461 . S
C3092 H3112 0.932 . S
C3093 C3091 1.408 . S
C3093 C3092 1.310 . S
C3093 H3113 0.930 . S
C3094 C3095 1.474 . S
C3094 C3096 1.285 . S
C3094 H3114 0.929 . S
C3095 C3092 1.461 . S
C3095 C3094 1.474 . S
C3096 C3091 1.342 . S
C3096 C3094 1.285 . S
C3096 H3115 0.930 . S
C3097 C3100 1.424 . S
C3097 C3102 1.245 . S
C3097 C3103 1.428 . S
C3098 C3101 1.260 . S
C3098 C3102 1.477 . S
C3098 H3116 0.932 . S
C3099 C3100 1.384 . S
C3099 C3101 1.479 . S
C3099 H3117 0.929 . S
C3100 C3097 1.424 . S
C3100 C3099 1.384 . S
C3100 H3118 0.928 . S
C3101 C3098 1.260 . S
C3101 C3099 1.479 . S
C3102 C3097 1.245 . S
C3102 C3098 1.477 . S
C3102 H3119 0.932 . S
C3103 U3086 2.882 . S
C3103 C3097 1.428 . S
C3103 O3106 1.301 . S
C3103 O3107 1.282 . S
O3104 U3086 2.441 . S
O3104 C3090 1.249 . S
O3105 U3086 2.420 . S
O3105 C3090 1.202 . S
O3106 U3086 2.455 . S
O3106 C3103 1.301 . S
O3107 U3086 2.449 . S
O3107 C3103 1.282 . S
H3108 C3081 0.931 . S
H3109 C3083 0.929 . S
H3110 C3084 0.930 . S
H3111 C3085 0.931 . S
H3112 C3092 0.932 . S
H3113 C3093 0.930 . S
H3114 C3094 0.929 . S
H3115 C3096 0.930 . S
H3116 C3098 0.932 . S
H3117 C3099 0.929 . S
H3118 C3100 0.928 . S
H3119 C3102 0.932 . S
C3120 C3121 1.264 . S
C3120 C3125 1.479 . S
C3120 C3130 1.465 . S
C3121 C3120 1.264 . S
C3121 C3123 1.339 . S
C3121 H3148 0.931 . S
C3122 C3123 1.395 . S
C3122 C3124 1.320 . S
C3123 C3121 1.339 . S
C3123 C3122 1.395 . S
C3123 H3149 0.929 . S
C3124 C3122 1.320 . S
C3124 C3125 1.405 . S
C3124 H3150 0.930 . S
C3125 C3120 1.479 . S
C3125 C3124 1.405 . S
C3125 H3151 0.931 . S
U3126 O3127 2.454 . S
U3126 O3128 2.458 . S
U3126 C3129 2.984 . S
U3126 C3130 2.847 . S
U3126 C3143 2.882 . S
U3126 O3144 2.441 . S
U3126 O3145 2.420 . S
U3126 O3146 2.455 . S
U3126 O3147 2.449 . S
O3127 U3126 2.454 . S
O3127 C3129 1.353 . S
O3128 U3126 2.458 . S
O3128 C3129 1.286 . S
C3129 U3126 2.984 . S
C3129 O3127 1.353 . S
C3129 O3128 1.286 . S
C3129 C3131 1.363 . S
C3130 C3120 1.465 . S
C3130 U3126 2.847 . S
C3130 O3144 1.249 . S
C3130 O3145 1.202 . S
C3131 C3129 1.363 . S
C3131 C3133 1.408 1_455 S
C3131 C3136 1.342 1_455 S
C3132 C3133 1.310 . S
C3132 C3135 1.461 . S
C3132 H3152 0.932 . S
C3133 C3131 1.408 1_655 S
C3133 C3132 1.310 . S
C3133 H3153 0.930 1_655 S
C3134 C3135 1.474 . S
C3134 C3136 1.285 . S
C3134 H3154 0.929 . S
C3135 C3132 1.461 . S
C3135 C3134 1.474 . S
C3136 C3131 1.342 1_655 S
C3136 C3134 1.285 . S
C3136 H3155 0.931 1_655 S
C3137 C3140 1.424 . S
C3137 C3142 1.245 . S
C3137 C3143 1.428 . S
C3138 C3141 1.260 . S
C3138 C3142 1.477 . S
C3138 H3156 0.932 . S
C3139 C3140 1.384 . S
C3139 C3141 1.479 . S
C3139 H3157 0.929 . S
C3140 C3137 1.424 . S
C3140 C3139 1.384 . S
C3140 H3158 0.928 . S
C3141 C3138 1.260 . S
C3141 C3139 1.479 . S
C3142 C3137 1.245 . S
C3142 C3138 1.477 . S
C3142 H3159 0.932 . S
C3143 U3126 2.882 . S
C3143 C3137 1.428 . S
C3143 O3146 1.301 . S
C3143 O3147 1.282 . S
O3144 U3126 2.441 . S
O3144 C3130 1.249 . S
O3145 U3126 2.420 . S
O3145 C3130 1.202 . S
O3146 U3126 2.455 . S
O3146 C3143 1.301 . S
O3147 U3126 2.449 . S
O3147 C3143 1.282 . S
H3148 C3121 0.931 . S
H3149 C3123 0.929 . S
H3150 C3124 0.930 . S
H3151 C3125 0.931 . S
H3152 C3132 0.932 . S
H3153 C3133 0.930 1_455 S
H3154 C3134 0.929 . S
H3155 C3136 0.931 1_455 S
H3156 C3138 0.932 . S
H3157 C3139 0.929 . S
H3158 C3140 0.928 . S
H3159 C3142 0.932 . S
C3160 C3161 1.264 . S
C3160 C3165 1.479 . S
C3160 C3170 1.465 . S
C3161 C3160 1.264 . S
C3161 C3163 1.339 . S
C3161 H3188 0.931 . S
C3162 C3163 1.395 . S
C3162 C3164 1.320 . S
C3163 C3161 1.339 . S
C3163 C3162 1.395 . S
C3163 H3189 0.929 . S
C3164 C3162 1.320 . S
C3164 C3165 1.405 . S
C3164 H3190 0.930 . S
C3165 C3160 1.479 . S
C3165 C3164 1.405 . S
C3165 H3191 0.931 . S
U3166 O3167 2.454 . S
U3166 O3168 2.458 . S
U3166 C3169 2.984 . S
U3166 C3170 2.847 . S
U3166 C3183 2.882 . S
U3166 O3184 2.441 . S
U3166 O3185 2.420 . S
U3166 O3186 2.455 . S
U3166 O3187 2.449 . S
O3167 U3166 2.454 . S
O3167 C3169 1.353 . S
O3168 U3166 2.458 . S
O3168 C3169 1.286 . S
C3169 U3166 2.984 . S
C3169 O3167 1.353 . S
C3169 O3168 1.286 . S
C3169 C3171 1.363 . S
C3170 C3160 1.465 . S
C3170 U3166 2.847 . S
C3170 O3184 1.249 . S
C3170 O3185 1.202 . S
C3171 C3169 1.363 . S
C3171 C3173 1.408 . S
C3171 C3176 1.342 . S
C3172 C3173 1.310 . S
C3172 C3175 1.461 . S
C3172 H3192 0.932 . S
C3173 C3171 1.408 . S
C3173 C3172 1.310 . S
C3173 H3193 0.930 . S
C3174 C3175 1.474 . S
C3174 C3176 1.285 . S
C3174 H3194 0.929 . S
C3175 C3172 1.461 . S
C3175 C3174 1.474 . S
C3176 C3171 1.342 . S
C3176 C3174 1.285 . S
C3176 H3195 0.930 . S
C3177 C3180 1.424 . S
C3177 C3182 1.245 . S
C3177 C3183 1.428 . S
C3178 C3181 1.260 . S
C3178 C3182 1.477 . S
C3178 H3196 0.932 . S
C3179 C3180 1.384 . S
C3179 C3181 1.479 . S
C3179 H3197 0.929 . S
C3180 C3177 1.424 . S
C3180 C3179 1.384 . S
C3180 H3198 0.928 . S
C3181 C3178 1.260 . S
C3181 C3179 1.479 . S
C3182 C3177 1.245 . S
C3182 C3178 1.477 . S
C3182 H3199 0.932 . S
C3183 U3166 2.882 . S
C3183 C3177 1.428 . S
C3183 O3186 1.301 . S
C3183 O3187 1.282 . S
O3184 U3166 2.441 . S
O3184 C3170 1.249 . S
O3185 U3166 2.420 . S
O3185 C3170 1.202 . S
O3186 U3166 2.455 . S
O3186 C3183 1.301 . S
O3187 U3166 2.449 . S
O3187 C3183 1.282 . S
H3188 C3161 0.931 . S
H3189 C3163 0.929 . S
H3190 C3164 0.930 . S
H3191 C3165 0.931 . S
H3192 C3172 0.932 . S
H3193 C3173 0.930 . S
H3194 C3174 0.929 . S
H3195 C3176 0.930 . S
H3196 C3178 0.932 . S
H3197 C3179 0.929 . S
H3198 C3180 0.928 . S
H3199 C3182 0.932 . S
C3200 C3201 1.264 . S
C3200 C3205 1.479 . S
C3200 C3210 1.465 . S
C3201 C3200 1.264 . S
C3201 C3203 1.339 . S
C3201 H3228 0.931 . S
C3202 C3203 1.395 . S
C3202 C3204 1.320 . S
C3203 C3201 1.339 . S
C3203 C3202 1.395 . S
C3203 H3229 0.929 . S
C3204 C3202 1.320 . S
C3204 C3205 1.405 . S
C3204 H3230 0.930 . S
C3205 C3200 1.479 . S
C3205 C3204 1.405 . S
C3205 H3231 0.931 . S
U3206 O3207 2.454 . S
U3206 O3208 2.458 . S
U3206 C3209 2.984 . S
U3206 C3210 2.847 . S
U3206 C3223 2.882 . S
U3206 O3224 2.441 . S
U3206 O3225 2.420 . S
U3206 O3226 2.455 . S
U3206 O3227 2.449 . S
O3207 U3206 2.454 . S
O3207 C3209 1.353 . S
O3208 U3206 2.458 . S
O3208 C3209 1.286 . S
C3209 U3206 2.984 . S
C3209 O3207 1.353 . S
C3209 O3208 1.286 . S
C3209 C3211 1.363 . S
C3210 C3200 1.465 . S
C3210 U3206 2.847 . S
C3210 O3224 1.249 . S
C3210 O3225 1.202 . S
C3211 C3209 1.363 . S
C3211 C3213 1.408 . S
C3211 C3216 1.342 . S
C3212 C3213 1.310 . S
C3212 C3215 1.461 . S
C3212 H3232 0.932 . S
C3213 C3211 1.408 . S
C3213 C3212 1.310 . S
C3213 H3233 0.930 . S
C3214 C3215 1.474 . S
C3214 C3216 1.285 . S
C3214 H3234 0.929 . S
C3215 C3212 1.461 . S
C3215 C3214 1.474 . S
C3216 C3211 1.342 . S
C3216 C3214 1.285 . S
C3216 H3235 0.930 . S
C3217 C3220 1.424 . S
C3217 C3222 1.245 . S
C3217 C3223 1.428 . S
C3218 C3221 1.260 . S
C3218 C3222 1.477 . S
C3218 H3236 0.932 . S
C3219 C3220 1.384 . S
C3219 C3221 1.479 . S
C3219 H3237 0.929 . S
C3220 C3217 1.424 . S
C3220 C3219 1.384 . S
C3220 H3238 0.928 . S
C3221 C3218 1.260 . S
C3221 C3219 1.479 . S
C3222 C3217 1.245 . S
C3222 C3218 1.477 . S
C3222 H3239 0.932 . S
C3223 U3206 2.882 . S
C3223 C3217 1.428 . S
C3223 O3226 1.301 . S
C3223 O3227 1.282 . S
O3224 U3206 2.441 . S
O3224 C3210 1.249 . S
O3225 U3206 2.420 . S
O3225 C3210 1.202 . S
O3226 U3206 2.455 . S
O3226 C3223 1.301 . S
O3227 U3206 2.449 . S
O3227 C3223 1.282 . S
H3228 C3201 0.931 . S
H3229 C3203 0.929 . S
H3230 C3204 0.930 . S
H3231 C3205 0.931 . S
H3232 C3212 0.932 . S
H3233 C3213 0.930 . S
H3234 C3214 0.929 . S
H3235 C3216 0.930 . S
H3236 C3218 0.932 . S
H3237 C3219 0.929 . S
H3238 C3220 0.928 . S
H3239 C3222 0.932 . S
C3240 C3241 1.264 . S
C3240 C3245 1.479 . S
C3240 C3250 1.465 . S
C3241 C3240 1.264 . S
C3241 C3243 1.339 . S
C3241 H3268 0.931 . S
C3242 C3243 1.395 . S
C3242 C3244 1.320 . S
C3243 C3241 1.339 . S
C3243 C3242 1.395 . S
C3243 H3269 0.929 . S
C3244 C3242 1.320 . S
C3244 C3245 1.405 . S
C3244 H3270 0.930 . S
C3245 C3240 1.479 . S
C3245 C3244 1.405 . S
C3245 H3271 0.931 . S
U3246 O3247 2.454 . S
U3246 O3248 2.458 . S
U3246 C3249 2.984 . S
U3246 C3250 2.847 . S
U3246 C3263 2.882 . S
U3246 O3264 2.441 . S
U3246 O3265 2.420 . S
U3246 O3266 2.455 . S
U3246 O3267 2.449 . S
O3247 U3246 2.454 . S
O3247 C3249 1.353 . S
O3248 U3246 2.458 . S
O3248 C3249 1.286 . S
C3249 U3246 2.984 . S
C3249 O3247 1.353 . S
C3249 O3248 1.286 . S
C3249 C3251 1.363 . S
C3250 C3240 1.465 . S
C3250 U3246 2.847 . S
C3250 O3264 1.249 . S
C3250 O3265 1.202 . S
C3251 C3249 1.363 . S
C3251 C3253 1.408 . S
C3251 C3256 1.342 . S
C3252 C3253 1.310 . S
C3252 C3255 1.461 . S
C3252 H3272 0.932 . S
C3253 C3251 1.408 . S
C3253 C3252 1.310 . S
C3253 H3273 0.930 . S
C3254 C3255 1.474 . S
C3254 C3256 1.285 . S
C3254 H3274 0.929 . S
C3255 C3252 1.461 . S
C3255 C3254 1.474 . S
C3256 C3251 1.342 . S
C3256 C3254 1.285 . S
C3256 H3275 0.930 . S
C3257 C3260 1.424 . S
C3257 C3262 1.245 . S
C3257 C3263 1.428 . S
C3258 C3261 1.260 . S
C3258 C3262 1.477 . S
C3258 H3276 0.932 . S
C3259 C3260 1.384 . S
C3259 C3261 1.479 . S
C3259 H3277 0.929 . S
C3260 C3257 1.424 . S
C3260 C3259 1.384 . S
C3260 H3278 0.928 . S
C3261 C3258 1.260 . S
C3261 C3259 1.479 . S
C3262 C3257 1.245 . S
C3262 C3258 1.477 . S
C3262 H3279 0.932 . S
C3263 U3246 2.882 . S
C3263 C3257 1.428 . S
C3263 O3266 1.301 . S
C3263 O3267 1.282 . S
O3264 U3246 2.441 . S
O3264 C3250 1.249 . S
O3265 U3246 2.420 . S
O3265 C3250 1.202 . S
O3266 U3246 2.455 . S
O3266 C3263 1.301 . S
O3267 U3246 2.449 . S
O3267 C3263 1.282 . S
H3268 C3241 0.931 . S
H3269 C3243 0.929 . S
H3270 C3244 0.930 . S
H3271 C3245 0.931 . S
H3272 C3252 0.932 . S
H3273 C3253 0.930 . S
H3274 C3254 0.929 . S
H3275 C3256 0.930 . S
H3276 C3258 0.932 . S
H3277 C3259 0.929 . S
H3278 C3260 0.928 . S
H3279 C3262 0.932 . S
C3280 C3281 1.264 . S
C3280 C3285 1.479 . S
C3280 C3290 1.465 . S
C3281 C3280 1.264 . S
C3281 C3283 1.339 . S
C3281 H3308 0.931 . S
C3282 C3283 1.395 . S
C3282 C3284 1.320 . S
C3283 C3281 1.339 . S
C3283 C3282 1.395 . S
C3283 H3309 0.929 . S
C3284 C3282 1.320 . S
C3284 C3285 1.405 . S
C3284 H3310 0.930 . S
C3285 C3280 1.479 . S
C3285 C3284 1.405 . S
C3285 H3311 0.931 . S
U3286 O3287 2.454 . S
U3286 O3288 2.458 . S
U3286 C3289 2.984 . S
U3286 C3290 2.847 . S
U3286 C3303 2.882 . S
U3286 O3304 2.441 . S
U3286 O3305 2.420 . S
U3286 O3306 2.455 . S
U3286 O3307 2.449 . S
O3287 U3286 2.454 . S
O3287 C3289 1.353 . S
O3288 U3286 2.458 . S
O3288 C3289 1.286 . S
C3289 U3286 2.984 . S
C3289 O3287 1.353 . S
C3289 O3288 1.286 . S
C3289 C3291 1.363 . S
C3290 C3280 1.465 . S
C3290 U3286 2.847 . S
C3290 O3304 1.249 . S
C3290 O3305 1.202 . S
C3291 C3289 1.363 . S
C3291 C3293 1.408 . S
C3291 C3296 1.342 . S
C3292 C3293 1.310 . S
C3292 C3295 1.461 . S
C3292 H3312 0.932 . S
C3293 C3291 1.408 . S
C3293 C3292 1.310 . S
C3293 H3313 0.930 . S
C3294 C3295 1.474 . S
C3294 C3296 1.285 . S
C3294 H3314 0.929 . S
C3295 C3292 1.461 . S
C3295 C3294 1.474 . S
C3296 C3291 1.342 . S
C3296 C3294 1.285 . S
C3296 H3315 0.930 . S
C3297 C3300 1.424 . S
C3297 C3302 1.245 . S
C3297 C3303 1.428 . S
C3298 C3301 1.260 . S
C3298 C3302 1.477 . S
C3298 H3316 0.932 . S
C3299 C3300 1.384 . S
C3299 C3301 1.479 . S
C3299 H3317 0.929 . S
C3300 C3297 1.424 . S
C3300 C3299 1.384 . S
C3300 H3318 0.928 . S
C3301 C3298 1.260 . S
C3301 C3299 1.479 . S
C3302 C3297 1.245 . S
C3302 C3298 1.477 . S
C3302 H3319 0.932 . S
C3303 U3286 2.882 . S
C3303 C3297 1.428 . S
C3303 O3306 1.301 . S
C3303 O3307 1.282 . S
O3304 U3286 2.441 . S
O3304 C3290 1.249 . S
O3305 U3286 2.420 . S
O3305 C3290 1.202 . S
O3306 U3286 2.455 . S
O3306 C3303 1.301 . S
O3307 U3286 2.449 . S
O3307 C3303 1.282 . S
H3308 C3281 0.931 . S
H3309 C3283 0.929 . S
H3310 C3284 0.930 . S
H3311 C3285 0.931 . S
H3312 C3292 0.932 . S
H3313 C3293 0.930 . S
H3314 C3294 0.929 . S
H3315 C3296 0.930 . S
H3316 C3298 0.932 . S
H3317 C3299 0.929 . S
H3318 C3300 0.928 . S
H3319 C3302 0.932 . S
C3320 C3321 1.264 . S
C3320 C3325 1.479 . S
C3320 C3330 1.465 . S
C3321 C3320 1.264 . S
C3321 C3323 1.339 . S
C3321 H3348 0.931 . S
C3322 C3323 1.395 . S
C3322 C3324 1.320 . S
C3323 C3321 1.339 . S
C3323 C3322 1.395 . S
C3323 H3349 0.929 . S
C3324 C3322 1.320 . S
C3324 C3325 1.405 . S
C3324 H3350 0.930 . S
C3325 C3320 1.479 . S
C3325 C3324 1.405 . S
C3325 H3351 0.931 . S
U3326 O3327 2.454 . S
U3326 O3328 2.458 . S
U3326 C3329 2.984 . S
U3326 C3330 2.847 . S
U3326 C3343 2.882 . S
U3326 O3344 2.441 . S
U3326 O3345 2.420 . S
U3326 O3346 2.455 . S
U3326 O3347 2.449 . S
O3327 U3326 2.454 . S
O3327 C3329 1.353 . S
O3328 U3326 2.458 . S
O3328 C3329 1.286 . S
C3329 U3326 2.984 . S
C3329 O3327 1.353 . S
C3329 O3328 1.286 . S
C3329 C3331 1.363 . S
C3330 C3320 1.465 . S
C3330 U3326 2.847 . S
C3330 O3344 1.249 . S
C3330 O3345 1.202 . S
C3331 C3329 1.363 . S
C3331 C3333 1.408 . S
C3331 C3336 1.342 . S
C3332 C3333 1.310 . S
C3332 C3335 1.461 . S
C3332 H3352 0.932 . S
C3333 C3331 1.408 . S
C3333 C3332 1.310 . S
C3333 H3353 0.930 . S
C3334 C3335 1.474 . S
C3334 C3336 1.285 . S
C3334 H3354 0.929 . S
C3335 C3332 1.461 . S
C3335 C3334 1.474 . S
C3336 C3331 1.342 . S
C3336 C3334 1.285 . S
C3336 H3355 0.930 . S
C3337 C3340 1.424 . S
C3337 C3342 1.245 . S
C3337 C3343 1.428 . S
C3338 C3341 1.260 . S
C3338 C3342 1.477 . S
C3338 H3356 0.932 . S
C3339 C3340 1.384 . S
C3339 C3341 1.479 . S
C3339 H3357 0.929 . S
C3340 C3337 1.424 . S
C3340 C3339 1.384 . S
C3340 H3358 0.928 . S
C3341 C3338 1.260 . S
C3341 C3339 1.479 . S
C3342 C3337 1.245 . S
C3342 C3338 1.477 . S
C3342 H3359 0.932 . S
C3343 U3326 2.882 . S
C3343 C3337 1.428 . S
C3343 O3346 1.301 . S
C3343 O3347 1.282 . S
O3344 U3326 2.441 . S
O3344 C3330 1.249 . S
O3345 U3326 2.420 . S
O3345 C3330 1.202 . S
O3346 U3326 2.455 . S
O3346 C3343 1.301 . S
O3347 U3326 2.449 . S
O3347 C3343 1.282 . S
H3348 C3321 0.931 . S
H3349 C3323 0.929 . S
H3350 C3324 0.930 . S
H3351 C3325 0.931 . S
H3352 C3332 0.932 . S
H3353 C3333 0.930 . S
H3354 C3334 0.929 . S
H3355 C3336 0.930 . S
H3356 C3338 0.932 . S
H3357 C3339 0.929 . S
H3358 C3340 0.928 . S
H3359 C3342 0.932 . S
C3360 C3361 1.264 . S
C3360 C3365 1.479 . S
C3360 C3370 1.465 . S
C3361 C3360 1.264 . S
C3361 C3363 1.339 . S
C3361 H3388 0.931 . S
C3362 C3363 1.395 . S
C3362 C3364 1.320 . S
C3363 C3361 1.339 . S
C3363 C3362 1.395 . S
C3363 H3389 0.929 . S
C3364 C3362 1.320 . S
C3364 C3365 1.405 . S
C3364 H3390 0.930 . S
C3365 C3360 1.479 . S
C3365 C3364 1.405 . S
C3365 H3391 0.931 . S
U3366 O3367 2.454 . S
U3366 O3368 2.458 . S
U3366 C3369 2.984 . S
U3366 C3370 2.847 . S
U3366 C3383 2.882 . S
U3366 O3384 2.441 . S
U3366 O3385 2.420 . S
U3366 O3386 2.455 . S
U3366 O3387 2.449 . S
O3367 U3366 2.454 . S
O3367 C3369 1.353 . S
O3368 U3366 2.458 . S
O3368 C3369 1.286 . S
C3369 U3366 2.984 . S
C3369 O3367 1.353 . S
C3369 O3368 1.286 . S
C3369 C3371 1.363 . S
C3370 C3360 1.465 . S
C3370 U3366 2.847 . S
C3370 O3384 1.249 . S
C3370 O3385 1.202 . S
C3371 C3369 1.363 . S
C3371 C3373 1.408 . S
C3371 C3376 1.342 . S
C3372 C3373 1.310 . S
C3372 C3375 1.461 . S
C3372 H3392 0.932 . S
C3373 C3371 1.408 . S
C3373 C3372 1.310 . S
C3373 H3393 0.930 . S
C3374 C3375 1.474 . S
C3374 C3376 1.285 . S
C3374 H3394 0.929 . S
C3375 C3372 1.461 . S
C3375 C3374 1.474 . S
C3376 C3371 1.342 . S
C3376 C3374 1.285 . S
C3376 H3395 0.930 . S
C3377 C3380 1.424 . S
C3377 C3382 1.245 . S
C3377 C3383 1.428 . S
C3378 C3381 1.260 . S
C3378 C3382 1.477 . S
C3378 H3396 0.932 . S
C3379 C3380 1.384 . S
C3379 C3381 1.479 . S
C3379 H3397 0.929 . S
C3380 C3377 1.424 . S
C3380 C3379 1.384 . S
C3380 H3398 0.928 . S
C3381 C3378 1.260 . S
C3381 C3379 1.479 . S
C3382 C3377 1.245 . S
C3382 C3378 1.477 . S
C3382 H3399 0.932 . S
C3383 U3366 2.882 . S
C3383 C3377 1.428 . S
C3383 O3386 1.301 . S
C3383 O3387 1.282 . S
O3384 U3366 2.441 . S
O3384 C3370 1.249 . S
O3385 U3366 2.420 . S
O3385 C3370 1.202 . S
O3386 U3366 2.455 . S
O3386 C3383 1.301 . S
O3387 U3366 2.449 . S
O3387 C3383 1.282 . S
H3388 C3361 0.931 . S
H3389 C3363 0.929 . S
H3390 C3364 0.930 . S
H3391 C3365 0.931 . S
H3392 C3372 0.932 . S
H3393 C3373 0.930 . S
H3394 C3374 0.929 . S
H3395 C3376 0.930 . S
H3396 C3378 0.932 . S
H3397 C3379 0.929 . S
H3398 C3380 0.928 . S
H3399 C3382 0.932 . S
C3400 C3401 1.264 . S
C3400 C3405 1.479 . S
C3400 C3410 1.465 . S
C3401 C3400 1.264 . S
C3401 C3403 1.339 . S
C3401 H3428 0.931 . S
C3402 C3403 1.395 . S
C3402 C3404 1.320 . S
C3403 C3401 1.339 . S
C3403 C3402 1.395 . S
C3403 H3429 0.929 . S
C3404 C3402 1.320 . S
C3404 C3405 1.405 . S
C3404 H3430 0.930 . S
C3405 C3400 1.479 . S
C3405 C3404 1.405 . S
C3405 H3431 0.931 . S
U3406 O3407 2.454 . S
U3406 O3408 2.458 . S
U3406 C3409 2.984 . S
U3406 C3410 2.847 . S
U3406 C3423 2.882 . S
U3406 O3424 2.441 . S
U3406 O3425 2.420 . S
U3406 O3426 2.455 . S
U3406 O3427 2.449 . S
O3407 U3406 2.454 . S
O3407 C3409 1.353 . S
O3408 U3406 2.458 . S
O3408 C3409 1.286 . S
C3409 U3406 2.984 . S
C3409 O3407 1.353 . S
C3409 O3408 1.286 . S
C3409 C3411 1.363 . S
C3410 C3400 1.465 . S
C3410 U3406 2.847 . S
C3410 O3424 1.249 . S
C3410 O3425 1.202 . S
C3411 C3409 1.363 . S
C3411 C3413 1.408 . S
C3411 C3416 1.342 . S
C3412 C3413 1.310 . S
C3412 C3415 1.461 . S
C3412 H3432 0.932 . S
C3413 C3411 1.408 . S
C3413 C3412 1.310 . S
C3413 H3433 0.930 . S
C3414 C3415 1.474 . S
C3414 C3416 1.285 . S
C3414 H3434 0.929 . S
C3415 C3412 1.461 . S
C3415 C3414 1.474 . S
C3416 C3411 1.342 . S
C3416 C3414 1.285 . S
C3416 H3435 0.930 . S
C3417 C3420 1.424 . S
C3417 C3422 1.245 . S
C3417 C3423 1.428 . S
C3418 C3421 1.260 . S
C3418 C3422 1.477 . S
C3418 H3436 0.932 . S
C3419 C3420 1.384 . S
C3419 C3421 1.479 . S
C3419 H3437 0.929 . S
C3420 C3417 1.424 . S
C3420 C3419 1.384 . S
C3420 H3438 0.928 . S
C3421 C3418 1.260 . S
C3421 C3419 1.479 . S
C3422 C3417 1.245 . S
C3422 C3418 1.477 . S
C3422 H3439 0.932 . S
C3423 U3406 2.882 . S
C3423 C3417 1.428 . S
C3423 O3426 1.301 . S
C3423 O3427 1.282 . S
O3424 U3406 2.441 . S
O3424 C3410 1.249 . S
O3425 U3406 2.420 . S
O3425 C3410 1.202 . S
O3426 U3406 2.455 . S
O3426 C3423 1.301 . S
O3427 U3406 2.449 . S
O3427 C3423 1.282 . S
H3428 C3401 0.931 . S
H3429 C3403 0.929 . S
H3430 C3404 0.930 . S
H3431 C3405 0.931 . S
H3432 C3412 0.932 . S
H3433 C3413 0.930 . S
H3434 C3414 0.929 . S
H3435 C3416 0.930 . S
H3436 C3418 0.932 . S
H3437 C3419 0.929 . S
H3438 C3420 0.928 . S
H3439 C3422 0.932 . S
C3440 C3441 1.264 . S
C3440 C3445 1.479 . S
C3440 C3450 1.465 . S
C3441 C3440 1.264 . S
C3441 C3443 1.339 . S
C3441 H3468 0.931 . S
C3442 C3443 1.395 . S
C3442 C3444 1.320 . S
C3443 C3441 1.339 . S
C3443 C3442 1.395 . S
C3443 H3469 0.929 . S
C3444 C3442 1.320 . S
C3444 C3445 1.405 . S
C3444 H3470 0.930 . S
C3445 C3440 1.479 . S
C3445 C3444 1.405 . S
C3445 H3471 0.931 . S
U3446 O3447 2.454 . S
U3446 O3448 2.458 . S
U3446 C3449 2.984 . S
U3446 C3450 2.847 . S
U3446 C3463 2.882 . S
U3446 O3464 2.441 . S
U3446 O3465 2.420 . S
U3446 O3466 2.455 . S
U3446 O3467 2.449 . S
O3447 U3446 2.454 . S
O3447 C3449 1.353 . S
O3448 U3446 2.458 . S
O3448 C3449 1.286 . S
C3449 U3446 2.984 . S
C3449 O3447 1.353 . S
C3449 O3448 1.286 . S
C3449 C3451 1.363 . S
C3450 C3440 1.465 . S
C3450 U3446 2.847 . S
C3450 O3464 1.249 . S
C3450 O3465 1.202 . S
C3451 C3449 1.363 . S
C3451 C3453 1.408 . S
C3451 C3456 1.342 . S
C3452 C3453 1.310 . S
C3452 C3455 1.461 . S
C3452 H3472 0.932 . S
C3453 C3451 1.408 . S
C3453 C3452 1.310 . S
C3453 H3473 0.930 . S
C3454 C3455 1.474 . S
C3454 C3456 1.285 . S
C3454 H3474 0.929 . S
C3455 C3452 1.461 . S
C3455 C3454 1.474 . S
C3456 C3451 1.342 . S
C3456 C3454 1.285 . S
C3456 H3475 0.930 . S
C3457 C3460 1.424 . S
C3457 C3462 1.245 . S
C3457 C3463 1.428 . S
C3458 C3461 1.260 . S
C3458 C3462 1.477 . S
C3458 H3476 0.932 . S
C3459 C3460 1.384 . S
C3459 C3461 1.479 . S
C3459 H3477 0.929 . S
C3460 C3457 1.424 . S
C3460 C3459 1.384 . S
C3460 H3478 0.928 . S
C3461 C3458 1.260 . S
C3461 C3459 1.479 . S
C3462 C3457 1.245 . S
C3462 C3458 1.477 . S
C3462 H3479 0.932 . S
C3463 U3446 2.882 . S
C3463 C3457 1.428 . S
C3463 O3466 1.301 . S
C3463 O3467 1.282 . S
O3464 U3446 2.441 . S
O3464 C3450 1.249 . S
O3465 U3446 2.420 . S
O3465 C3450 1.202 . S
O3466 U3446 2.455 . S
O3466 C3463 1.301 . S
O3467 U3446 2.449 . S
O3467 C3463 1.282 . S
H3468 C3441 0.931 . S
H3469 C3443 0.929 . S
H3470 C3444 0.930 . S
H3471 C3445 0.931 . S
H3472 C3452 0.932 . S
H3473 C3453 0.930 . S
H3474 C3454 0.929 . S
H3475 C3456 0.930 . S
H3476 C3458 0.932 . S
H3477 C3459 0.929 . S
H3478 C3460 0.928 . S
H3479 C3462 0.932 . S
C3480 C3481 1.264 . S
C3480 C3485 1.479 . S
C3480 C3490 1.465 . S
C3481 C3480 1.264 . S
C3481 C3483 1.339 . S
C3481 H3508 0.931 . S
C3482 C3483 1.395 . S
C3482 C3484 1.320 . S
C3483 C3481 1.339 . S
C3483 C3482 1.395 . S
C3483 H3509 0.929 . S
C3484 C3482 1.320 . S
C3484 C3485 1.405 . S
C3484 H3510 0.930 . S
C3485 C3480 1.479 . S
C3485 C3484 1.405 . S
C3485 H3511 0.931 . S
U3486 O3487 2.454 . S
U3486 O3488 2.458 . S
U3486 C3489 2.984 . S
U3486 C3490 2.847 . S
U3486 C3503 2.882 . S
U3486 O3504 2.441 . S
U3486 O3505 2.420 . S
U3486 O3506 2.455 . S
U3486 O3507 2.449 . S
O3487 U3486 2.454 . S
O3487 C3489 1.353 . S
O3488 U3486 2.458 . S
O3488 C3489 1.286 . S
C3489 U3486 2.984 . S
C3489 O3487 1.353 . S
C3489 O3488 1.286 . S
C3489 C3491 1.363 . S
C3490 C3480 1.465 . S
C3490 U3486 2.847 . S
C3490 O3504 1.249 . S
C3490 O3505 1.202 . S
C3491 C3489 1.363 . S
C3491 C3493 1.408 . S
C3491 C3496 1.342 . S
C3492 C3493 1.310 . S
C3492 C3495 1.461 . S
C3492 H3512 0.932 . S
C3493 C3491 1.408 . S
C3493 C3492 1.310 . S
C3493 H3513 0.930 . S
C3494 C3495 1.474 . S
C3494 C3496 1.285 . S
C3494 H3514 0.929 . S
C3495 C3492 1.461 . S
C3495 C3494 1.474 . S
C3496 C3491 1.342 . S
C3496 C3494 1.285 . S
C3496 H3515 0.930 . S
C3497 C3500 1.424 . S
C3497 C3502 1.245 . S
C3497 C3503 1.428 . S
C3498 C3501 1.260 . S
C3498 C3502 1.477 . S
C3498 H3516 0.932 . S
C3499 C3500 1.384 . S
C3499 C3501 1.479 . S
C3499 H3517 0.929 . S
C3500 C3497 1.424 . S
C3500 C3499 1.384 . S
C3500 H3518 0.928 . S
C3501 C3498 1.260 . S
C3501 C3499 1.479 . S
C3502 C3497 1.245 . S
C3502 C3498 1.477 . S
C3502 H3519 0.932 . S
C3503 U3486 2.882 . S
C3503 C3497 1.428 . S
C3503 O3506 1.301 . S
C3503 O3507 1.282 . S
O3504 U3486 2.441 . S
O3504 C3490 1.249 . S
O3505 U3486 2.420 . S
O3505 C3490 1.202 . S
O3506 U3486 2.455 . S
O3506 C3503 1.301 . S
O3507 U3486 2.449 . S
O3507 C3503 1.282 . S
H3508 C3481 0.931 . S
H3509 C3483 0.929 . S
H3510 C3484 0.930 . S
H3511 C3485 0.931 . S
H3512 C3492 0.932 . S
H3513 C3493 0.930 . S
H3514 C3494 0.929 . S
H3515 C3496 0.930 . S
H3516 C3498 0.932 . S
H3517 C3499 0.929 . S
H3518 C3500 0.928 . S
H3519 C3502 0.932 . S
C3520 C3521 1.264 . S
C3520 C3525 1.479 . S
C3520 C3530 1.465 . S
C3521 C3520 1.264 . S
C3521 C3523 1.339 . S
C3521 H3548 0.931 . S
C3522 C3523 1.395 . S
C3522 C3524 1.320 . S
C3523 C3521 1.339 . S
C3523 C3522 1.395 . S
C3523 H3549 0.929 . S
C3524 C3522 1.320 . S
C3524 C3525 1.405 . S
C3524 H3550 0.930 . S
C3525 C3520 1.479 . S
C3525 C3524 1.405 . S
C3525 H3551 0.931 . S
U3526 O3527 2.454 . S
U3526 O3528 2.458 . S
U3526 C3529 2.984 . S
U3526 C3530 2.847 . S
U3526 C3543 2.882 . S
U3526 O3544 2.441 . S
U3526 O3545 2.420 . S
U3526 O3546 2.455 . S
U3526 O3547 2.449 . S
O3527 U3526 2.454 . S
O3527 C3529 1.353 . S
O3528 U3526 2.458 . S
O3528 C3529 1.286 . S
C3529 U3526 2.984 . S
C3529 O3527 1.353 . S
C3529 O3528 1.286 . S
C3529 C3531 1.363 . S
C3530 C3520 1.465 . S
C3530 U3526 2.847 . S
C3530 O3544 1.249 . S
C3530 O3545 1.202 . S
C3531 C3529 1.363 . S
C3531 C3533 1.408 . S
C3531 C3536 1.342 . S
C3532 C3533 1.310 . S
C3532 C3535 1.461 . S
C3532 H3552 0.932 . S
C3533 C3531 1.408 . S
C3533 C3532 1.310 . S
C3533 H3553 0.930 . S
C3534 C3535 1.474 . S
C3534 C3536 1.285 . S
C3534 H3554 0.929 . S
C3535 C3532 1.461 . S
C3535 C3534 1.474 . S
C3536 C3531 1.342 . S
C3536 C3534 1.285 . S
C3536 H3555 0.930 . S
C3537 C3540 1.424 . S
C3537 C3542 1.245 . S
C3537 C3543 1.428 . S
C3538 C3541 1.260 . S
C3538 C3542 1.477 . S
C3538 H3556 0.932 . S
C3539 C3540 1.384 . S
C3539 C3541 1.479 . S
C3539 H3557 0.929 . S
C3540 C3537 1.424 . S
C3540 C3539 1.384 . S
C3540 H3558 0.928 . S
C3541 C3538 1.260 . S
C3541 C3539 1.479 . S
C3542 C3537 1.245 . S
C3542 C3538 1.477 . S
C3542 H3559 0.932 . S
C3543 U3526 2.882 . S
C3543 C3537 1.428 . S
C3543 O3546 1.301 . S
C3543 O3547 1.282 . S
O3544 U3526 2.441 . S
O3544 C3530 1.249 . S
O3545 U3526 2.420 . S
O3545 C3530 1.202 . S
O3546 U3526 2.455 . S
O3546 C3543 1.301 . S
O3547 U3526 2.449 . S
O3547 C3543 1.282 . S
H3548 C3521 0.931 . S
H3549 C3523 0.929 . S
H3550 C3524 0.930 . S
H3551 C3525 0.931 . S
H3552 C3532 0.932 . S
H3553 C3533 0.930 . S
H3554 C3534 0.929 . S
H3555 C3536 0.930 . S
H3556 C3538 0.932 . S
H3557 C3539 0.929 . S
H3558 C3540 0.928 . S
H3559 C3542 0.932 . S
C3560 C3561 1.264 . S
C3560 C3565 1.479 . S
C3560 C3570 1.465 . S
C3561 C3560 1.264 . S
C3561 C3563 1.339 . S
C3561 H3588 0.931 . S
C3562 C3563 1.395 . S
C3562 C3564 1.320 . S
C3563 C3561 1.339 . S
C3563 C3562 1.395 . S
C3563 H3589 0.929 . S
C3564 C3562 1.320 . S
C3564 C3565 1.405 . S
C3564 H3590 0.930 . S
C3565 C3560 1.479 . S
C3565 C3564 1.405 . S
C3565 H3591 0.931 . S
U3566 O3567 2.454 . S
U3566 O3568 2.458 . S
U3566 C3569 2.984 . S
U3566 C3570 2.847 . S
U3566 C3583 2.882 . S
U3566 O3584 2.441 . S
U3566 O3585 2.420 . S
U3566 O3586 2.455 . S
U3566 O3587 2.449 . S
O3567 U3566 2.454 . S
O3567 C3569 1.353 . S
O3568 U3566 2.458 . S
O3568 C3569 1.286 . S
C3569 U3566 2.984 . S
C3569 O3567 1.353 . S
C3569 O3568 1.286 . S
C3569 C3571 1.363 . S
C3570 C3560 1.465 . S
C3570 U3566 2.847 . S
C3570 O3584 1.249 . S
C3570 O3585 1.202 . S
C3571 C3569 1.363 . S
C3571 C3573 1.408 . S
C3571 C3576 1.342 . S
C3572 C3573 1.310 . S
C3572 C3575 1.461 . S
C3572 H3592 0.932 . S
C3573 C3571 1.408 . S
C3573 C3572 1.310 . S
C3573 H3593 0.930 . S
C3574 C3575 1.474 . S
C3574 C3576 1.285 . S
C3574 H3594 0.929 . S
C3575 C3572 1.461 . S
C3575 C3574 1.474 . S
C3576 C3571 1.342 . S
C3576 C3574 1.285 . S
C3576 H3595 0.930 . S
C3577 C3580 1.424 . S
C3577 C3582 1.245 . S
C3577 C3583 1.428 . S
C3578 C3581 1.260 . S
C3578 C3582 1.477 . S
C3578 H3596 0.932 . S
C3579 C3580 1.384 . S
C3579 C3581 1.479 . S
C3579 H3597 0.929 . S
C3580 C3577 1.424 . S
C3580 C3579 1.384 . S
C3580 H3598 0.928 . S
C3581 C3578 1.260 . S
C3581 C3579 1.479 . S
C3582 C3577 1.245 . S
C3582 C3578 1.477 . S
C3582 H3599 0.932 . S
C3583 U3566 2.882 . S
C3583 C3577 1.428 . S
C3583 O3586 1.301 . S
C3583 O3587 1.282 . S
O3584 U3566 2.441 . S
O3584 C3570 1.249 . S
O3585 U3566 2.420 . S
O3585 C3570 1.202 . S
O3586 U3566 2.455 . S
O3586 C3583 1.301 . S
O3587 U3566 2.449 . S
O3587 C3583 1.282 . S
H3588 C3561 0.931 . S
H3589 C3563 0.929 . S
H3590 C3564 0.930 . S
H3591 C3565 0.931 . S
H3592 C3572 0.932 . S
H3593 C3573 0.930 . S
H3594 C3574 0.929 . S
H3595 C3576 0.930 . S
H3596 C3578 0.932 . S
H3597 C3579 0.929 . S
H3598 C3580 0.928 . S
H3599 C3582 0.932 . S
C3600 C3601 1.264 . S
C3600 C3605 1.479 . S
C3600 C3610 1.465 . S
C3601 C3600 1.264 . S
C3601 C3603 1.339 . S
C3601 H3628 0.931 . S
C3602 C3603 1.395 . S
C3602 C3604 1.320 . S
C3603 C3601 1.339 . S
C3603 C3602 1.395 . S
C3603 H3629 0.929 . S
C3604 C3602 1.320 . S
C3604 C3605 1.405 . S
C3604 H3630 0.930 . S
C3605 C3600 1.479 . S
C3605 C3604 1.405 . S
C3605 H3631 0.931 . S
U3606 O3607 2.454 . S
U3606 O3608 2.458 . S
U3606 C3609 2.984 . S
U3606 C3610 2.847 . S
U3606 C3623 2.882 . S
U3606 O3624 2.441 . S
U3606 O3625 2.420 . S
U3606 O3626 2.455 . S
U3606 O3627 2.449 . S
O3607 U3606 2.454 . S
O3607 C3609 1.353 . S
O3608 U3606 2.458 . S
O3608 C3609 1.286 . S
C3609 U3606 2.984 . S
C3609 O3607 1.353 . S
C3609 O3608 1.286 . S
C3609 C3611 1.363 . S
C3610 C3600 1.465 . S
C3610 U3606 2.847 . S
C3610 O3624 1.249 . S
C3610 O3625 1.202 . S
C3611 C3609 1.363 . S
C3611 C3613 1.408 . S
C3611 C3616 1.342 . S
C3612 C3613 1.310 . S
C3612 C3615 1.461 . S
C3612 H3632 0.932 . S
C3613 C3611 1.408 . S
C3613 C3612 1.310 . S
C3613 H3633 0.930 . S
C3614 C3615 1.474 . S
C3614 C3616 1.285 . S
C3614 H3634 0.929 . S
C3615 C3612 1.461 . S
C3615 C3614 1.474 . S
C3616 C3611 1.342 . S
C3616 C3614 1.285 . S
C3616 H3635 0.930 . S
C3617 C3620 1.424 . S
C3617 C3622 1.245 . S
C3617 C3623 1.428 . S
C3618 C3621 1.260 . S
C3618 C3622 1.477 . S
C3618 H3636 0.932 . S
C3619 C3620 1.384 . S
C3619 C3621 1.479 . S
C3619 H3637 0.929 . S
C3620 C3617 1.424 . S
C3620 C3619 1.384 . S
C3620 H3638 0.928 . S
C3621 C3618 1.260 . S
C3621 C3619 1.479 . S
C3622 C3617 1.245 . S
C3622 C3618 1.477 . S
C3622 H3639 0.932 . S
C3623 U3606 2.882 . S
C3623 C3617 1.428 . S
C3623 O3626 1.301 . S
C3623 O3627 1.282 . S
O3624 U3606 2.441 . S
O3624 C3610 1.249 . S
O3625 U3606 2.420 . S
O3625 C3610 1.202 . S
O3626 U3606 2.455 . S
O3626 C3623 1.301 . S
O3627 U3606 2.449 . S
O3627 C3623 1.282 . S
H3628 C3601 0.931 . S
H3629 C3603 0.929 . S
H3630 C3604 0.930 . S
H3631 C3605 0.931 . S
H3632 C3612 0.932 . S
H3633 C3613 0.930 . S
H3634 C3614 0.929 . S
H3635 C3616 0.930 . S
H3636 C3618 0.932 . S
H3637 C3619 0.929 . S
H3638 C3620 0.928 . S
H3639 C3622 0.932 . S
C3640 C3641 1.264 . S
C3640 C3645 1.479 . S
C3640 C3650 1.465 . S
C3641 C3640 1.264 . S
C3641 C3643 1.339 . S
C3641 H3668 0.931 . S
C3642 C3643 1.395 . S
C3642 C3644 1.320 . S
C3643 C3641 1.339 . S
C3643 C3642 1.395 . S
C3643 H3669 0.929 . S
C3644 C3642 1.320 . S
C3644 C3645 1.405 . S
C3644 H3670 0.930 . S
C3645 C3640 1.479 . S
C3645 C3644 1.405 . S
C3645 H3671 0.931 . S
U3646 O3647 2.454 . S
U3646 O3648 2.458 . S
U3646 C3649 2.984 . S
U3646 C3650 2.847 . S
U3646 C3663 2.882 . S
U3646 O3664 2.441 . S
U3646 O3665 2.420 . S
U3646 O3666 2.455 . S
U3646 O3667 2.449 . S
O3647 U3646 2.454 . S
O3647 C3649 1.353 . S
O3648 U3646 2.458 . S
O3648 C3649 1.286 . S
C3649 U3646 2.984 . S
C3649 O3647 1.353 . S
C3649 O3648 1.286 . S
C3649 C3651 1.363 . S
C3650 C3640 1.465 . S
C3650 U3646 2.847 . S
C3650 O3664 1.249 . S
C3650 O3665 1.202 . S
C3651 C3649 1.363 . S
C3651 C3653 1.408 . S
C3651 C3656 1.342 . S
C3652 C3653 1.310 . S
C3652 C3655 1.461 . S
C3652 H3672 0.932 . S
C3653 C3651 1.408 . S
C3653 C3652 1.310 . S
C3653 H3673 0.930 . S
C3654 C3655 1.474 . S
C3654 C3656 1.285 . S
C3654 H3674 0.929 . S
C3655 C3652 1.461 . S
C3655 C3654 1.474 . S
C3656 C3651 1.342 . S
C3656 C3654 1.285 . S
C3656 H3675 0.930 . S
C3657 C3660 1.424 . S
C3657 C3662 1.245 . S
C3657 C3663 1.428 . S
C3658 C3661 1.260 . S
C3658 C3662 1.477 . S
C3658 H3676 0.932 . S
C3659 C3660 1.384 . S
C3659 C3661 1.479 . S
C3659 H3677 0.929 . S
C3660 C3657 1.424 . S
C3660 C3659 1.384 . S
C3660 H3678 0.928 . S
C3661 C3658 1.260 . S
C3661 C3659 1.479 . S
C3662 C3657 1.245 . S
C3662 C3658 1.477 . S
C3662 H3679 0.932 . S
C3663 U3646 2.882 . S
C3663 C3657 1.428 . S
C3663 O3666 1.301 . S
C3663 O3667 1.282 . S
O3664 U3646 2.441 . S
O3664 C3650 1.249 . S
O3665 U3646 2.420 . S
O3665 C3650 1.202 . S
O3666 U3646 2.455 . S
O3666 C3663 1.301 . S
O3667 U3646 2.449 . S
O3667 C3663 1.282 . S
H3668 C3641 0.931 . S
H3669 C3643 0.929 . S
H3670 C3644 0.930 . S
H3671 C3645 0.931 . S
H3672 C3652 0.932 . S
H3673 C3653 0.930 . S
H3674 C3654 0.929 . S
H3675 C3656 0.930 . S
H3676 C3658 0.932 . S
H3677 C3659 0.929 . S
H3678 C3660 0.928 . S
H3679 C3662 0.932 . S
C3680 C3681 1.264 . S
C3680 C3685 1.479 . S
C3680 C3690 1.465 . S
C3681 C3680 1.264 . S
C3681 C3683 1.339 . S
C3681 H3708 0.931 . S
C3682 C3683 1.395 . S
C3682 C3684 1.320 . S
C3683 C3681 1.339 . S
C3683 C3682 1.395 . S
C3683 H3709 0.929 . S
C3684 C3682 1.320 . S
C3684 C3685 1.405 . S
C3684 H3710 0.930 . S
C3685 C3680 1.479 . S
C3685 C3684 1.405 . S
C3685 H3711 0.931 . S
U3686 O3687 2.454 . S
U3686 O3688 2.458 . S
U3686 C3689 2.984 . S
U3686 C3690 2.847 . S
U3686 C3703 2.882 . S
U3686 O3704 2.441 . S
U3686 O3705 2.420 . S
U3686 O3706 2.455 . S
U3686 O3707 2.449 . S
O3687 U3686 2.454 . S
O3687 C3689 1.353 . S
O3688 U3686 2.458 . S
O3688 C3689 1.286 . S
C3689 U3686 2.984 . S
C3689 O3687 1.353 . S
C3689 O3688 1.286 . S
C3689 C3691 1.363 . S
C3690 C3680 1.465 . S
C3690 U3686 2.847 . S
C3690 O3704 1.249 . S
C3690 O3705 1.202 . S
C3691 C3689 1.363 . S
C3691 C3693 1.408 . S
C3691 C3696 1.342 . S
C3692 C3693 1.310 . S
C3692 C3695 1.461 . S
C3692 H3712 0.932 . S
C3693 C3691 1.408 . S
C3693 C3692 1.310 . S
C3693 H3713 0.930 . S
C3694 C3695 1.474 . S
C3694 C3696 1.285 . S
C3694 H3714 0.929 . S
C3695 C3692 1.461 . S
C3695 C3694 1.474 . S
C3696 C3691 1.342 . S
C3696 C3694 1.285 . S
C3696 H3715 0.930 . S
C3697 C3700 1.424 . S
C3697 C3702 1.245 . S
C3697 C3703 1.428 . S
C3698 C3701 1.260 . S
C3698 C3702 1.477 . S
C3698 H3716 0.932 . S
C3699 C3700 1.384 . S
C3699 C3701 1.479 . S
C3699 H3717 0.929 . S
C3700 C3697 1.424 . S
C3700 C3699 1.384 . S
C3700 H3718 0.928 . S
C3701 C3698 1.260 . S
C3701 C3699 1.479 . S
C3702 C3697 1.245 . S
C3702 C3698 1.477 . S
C3702 H3719 0.932 . S
C3703 U3686 2.882 . S
C3703 C3697 1.428 . S
C3703 O3706 1.301 . S
C3703 O3707 1.282 . S
O3704 U3686 2.441 . S
O3704 C3690 1.249 . S
O3705 U3686 2.420 . S
O3705 C3690 1.202 . S
O3706 U3686 2.455 . S
O3706 C3703 1.301 . S
O3707 U3686 2.449 . S
O3707 C3703 1.282 . S
H3708 C3681 0.931 . S
H3709 C3683 0.929 . S
H3710 C3684 0.930 . S
H3711 C3685 0.931 . S
H3712 C3692 0.932 . S
H3713 C3693 0.930 . S
H3714 C3694 0.929 . S
H3715 C3696 0.930 . S
H3716 C3698 0.932 . S
H3717 C3699 0.929 . S
H3718 C3700 0.928 . S
H3719 C3702 0.932 . S
C3720 C3721 1.264 . S
C3720 C3725 1.479 . S
C3720 C3730 1.465 . S
C3721 C3720 1.264 . S
C3721 C3723 1.339 . S
C3721 H3748 0.931 . S
C3722 C3723 1.395 . S
C3722 C3724 1.320 . S
C3723 C3721 1.339 . S
C3723 C3722 1.395 . S
C3723 H3749 0.929 . S
C3724 C3722 1.320 . S
C3724 C3725 1.405 . S
C3724 H3750 0.930 . S
C3725 C3720 1.479 . S
C3725 C3724 1.405 . S
C3725 H3751 0.931 . S
U3726 O3727 2.454 . S
U3726 O3728 2.458 . S
U3726 C3729 2.984 . S
U3726 C3730 2.847 . S
U3726 C3743 2.882 . S
U3726 O3744 2.441 . S
U3726 O3745 2.420 . S
U3726 O3746 2.455 . S
U3726 O3747 2.449 . S
O3727 U3726 2.454 . S
O3727 C3729 1.353 . S
O3728 U3726 2.458 . S
O3728 C3729 1.286 . S
C3729 U3726 2.984 . S
C3729 O3727 1.353 . S
C3729 O3728 1.286 . S
C3729 C3731 1.363 . S
C3730 C3720 1.465 . S
C3730 U3726 2.847 . S
C3730 O3744 1.249 . S
C3730 O3745 1.202 . S
C3731 C3729 1.363 . S
C3731 C3733 1.408 . S
C3731 C3736 1.342 . S
C3732 C3733 1.310 . S
C3732 C3735 1.461 . S
C3732 H3752 0.932 . S
C3733 C3731 1.408 . S
C3733 C3732 1.310 . S
C3733 H3753 0.930 . S
C3734 C3735 1.474 . S
C3734 C3736 1.285 . S
C3734 H3754 0.929 . S
C3735 C3732 1.461 . S
C3735 C3734 1.474 . S
C3736 C3731 1.342 . S
C3736 C3734 1.285 . S
C3736 H3755 0.930 . S
C3737 C3740 1.424 . S
C3737 C3742 1.245 . S
C3737 C3743 1.428 . S
C3738 C3741 1.260 . S
C3738 C3742 1.477 . S
C3738 H3756 0.932 . S
C3739 C3740 1.384 . S
C3739 C3741 1.479 . S
C3739 H3757 0.929 . S
C3740 C3737 1.424 . S
C3740 C3739 1.384 . S
C3740 H3758 0.928 . S
C3741 C3738 1.260 . S
C3741 C3739 1.479 . S
C3742 C3737 1.245 . S
C3742 C3738 1.477 . S
C3742 H3759 0.932 . S
C3743 U3726 2.882 . S
C3743 C3737 1.428 . S
C3743 O3746 1.301 . S
C3743 O3747 1.282 . S
O3744 U3726 2.441 . S
O3744 C3730 1.249 . S
O3745 U3726 2.420 . S
O3745 C3730 1.202 . S
O3746 U3726 2.455 . S
O3746 C3743 1.301 . S
O3747 U3726 2.449 . S
O3747 C3743 1.282 . S
H3748 C3721 0.931 . S
H3749 C3723 0.929 . S
H3750 C3724 0.930 . S
H3751 C3725 0.931 . S
H3752 C3732 0.932 . S
H3753 C3733 0.930 . S
H3754 C3734 0.929 . S
H3755 C3736 0.930 . S
H3756 C3738 0.932 . S
H3757 C3739 0.929 . S
H3758 C3740 0.928 . S
H3759 C3742 0.932 . S
C3760 C3761 1.264 . S
C3760 C3765 1.479 . S
C3760 C3770 1.465 . S
C3761 C3760 1.264 . S
C3761 C3763 1.339 . S
C3761 H3788 0.931 . S
C3762 C3763 1.395 . S
C3762 C3764 1.320 . S
C3763 C3761 1.339 . S
C3763 C3762 1.395 . S
C3763 H3789 0.929 . S
C3764 C3762 1.320 . S
C3764 C3765 1.405 . S
C3764 H3790 0.930 . S
C3765 C3760 1.479 . S
C3765 C3764 1.405 . S
C3765 H3791 0.931 . S
U3766 O3767 2.454 . S
U3766 O3768 2.458 . S
U3766 C3769 2.984 . S
U3766 C3770 2.847 . S
U3766 C3783 2.882 . S
U3766 O3784 2.441 . S
U3766 O3785 2.420 . S
U3766 O3786 2.455 . S
U3766 O3787 2.449 . S
O3767 U3766 2.454 . S
O3767 C3769 1.353 . S
O3768 U3766 2.458 . S
O3768 C3769 1.286 . S
C3769 U3766 2.984 . S
C3769 O3767 1.353 . S
C3769 O3768 1.286 . S
C3769 C3771 1.363 . S
C3770 C3760 1.465 . S
C3770 U3766 2.847 . S
C3770 O3784 1.249 . S
C3770 O3785 1.202 . S
C3771 C3769 1.363 . S
C3771 C3773 1.408 . S
C3771 C3776 1.342 . S
C3772 C3773 1.310 . S
C3772 C3775 1.461 . S
C3772 H3792 0.932 . S
C3773 C3771 1.408 . S
C3773 C3772 1.310 . S
C3773 H3793 0.930 . S
C3774 C3775 1.474 . S
C3774 C3776 1.285 . S
C3774 H3794 0.929 . S
C3775 C3772 1.461 . S
C3775 C3774 1.474 . S
C3776 C3771 1.342 . S
C3776 C3774 1.285 . S
C3776 H3795 0.930 . S
C3777 C3780 1.424 . S
C3777 C3782 1.245 . S
C3777 C3783 1.428 . S
C3778 C3781 1.260 . S
C3778 C3782 1.477 . S
C3778 H3796 0.932 . S
C3779 C3780 1.384 . S
C3779 C3781 1.479 . S
C3779 H3797 0.929 . S
C3780 C3777 1.424 . S
C3780 C3779 1.384 . S
C3780 H3798 0.928 . S
C3781 C3778 1.260 . S
C3781 C3779 1.479 . S
C3782 C3777 1.245 . S
C3782 C3778 1.477 . S
C3782 H3799 0.932 . S
C3783 U3766 2.882 . S
C3783 C3777 1.428 . S
C3783 O3786 1.301 . S
C3783 O3787 1.282 . S
O3784 U3766 2.441 . S
O3784 C3770 1.249 . S
O3785 U3766 2.420 . S
O3785 C3770 1.202 . S
O3786 U3766 2.455 . S
O3786 C3783 1.301 . S
O3787 U3766 2.449 . S
O3787 C3783 1.282 . S
H3788 C3761 0.931 . S
H3789 C3763 0.929 . S
H3790 C3764 0.930 . S
H3791 C3765 0.931 . S
H3792 C3772 0.932 . S
H3793 C3773 0.930 . S
H3794 C3774 0.929 . S
H3795 C3776 0.930 . S
H3796 C3778 0.932 . S
H3797 C3779 0.929 . S
H3798 C3780 0.928 . S
H3799 C3782 0.932 . S
C3800 C3801 1.264 . S
C3800 C3805 1.479 . S
C3800 C3810 1.465 . S
C3801 C3800 1.264 . S
C3801 C3803 1.339 . S
C3801 H3828 0.931 . S
C3802 C3803 1.395 . S
C3802 C3804 1.320 . S
C3803 C3801 1.339 . S
C3803 C3802 1.395 . S
C3803 H3829 0.929 . S
C3804 C3802 1.320 . S
C3804 C3805 1.405 . S
C3804 H3830 0.930 . S
C3805 C3800 1.479 . S
C3805 C3804 1.405 . S
C3805 H3831 0.931 . S
U3806 O3807 2.454 . S
U3806 O3808 2.458 . S
U3806 C3809 2.984 . S
U3806 C3810 2.847 . S
U3806 C3823 2.882 . S
U3806 O3824 2.441 . S
U3806 O3825 2.420 . S
U3806 O3826 2.455 . S
U3806 O3827 2.449 . S
O3807 U3806 2.454 . S
O3807 C3809 1.353 . S
O3808 U3806 2.458 . S
O3808 C3809 1.286 . S
C3809 U3806 2.984 . S
C3809 O3807 1.353 . S
C3809 O3808 1.286 . S
C3809 C3811 1.363 . S
C3810 C3800 1.465 . S
C3810 U3806 2.847 . S
C3810 O3824 1.249 . S
C3810 O3825 1.202 . S
C3811 C3809 1.363 . S
C3811 C3813 1.408 . S
C3811 C3816 1.342 . S
C3812 C3813 1.310 . S
C3812 C3815 1.461 . S
C3812 H3832 0.932 . S
C3813 C3811 1.408 . S
C3813 C3812 1.310 . S
C3813 H3833 0.930 . S
C3814 C3815 1.474 . S
C3814 C3816 1.285 . S
C3814 H3834 0.929 . S
C3815 C3812 1.461 . S
C3815 C3814 1.474 . S
C3816 C3811 1.342 . S
C3816 C3814 1.285 . S
C3816 H3835 0.930 . S
C3817 C3820 1.424 . S
C3817 C3822 1.245 . S
C3817 C3823 1.428 . S
C3818 C3821 1.260 . S
C3818 C3822 1.477 . S
C3818 H3836 0.932 . S
C3819 C3820 1.384 . S
C3819 C3821 1.479 . S
C3819 H3837 0.929 . S
C3820 C3817 1.424 . S
C3820 C3819 1.384 . S
C3820 H3838 0.928 . S
C3821 C3818 1.260 . S
C3821 C3819 1.479 . S
C3822 C3817 1.245 . S
C3822 C3818 1.477 . S
C3822 H3839 0.932 . S
C3823 U3806 2.882 . S
C3823 C3817 1.428 . S
C3823 O3826 1.301 . S
C3823 O3827 1.282 . S
O3824 U3806 2.441 . S
O3824 C3810 1.249 . S
O3825 U3806 2.420 . S
O3825 C3810 1.202 . S
O3826 U3806 2.455 . S
O3826 C3823 1.301 . S
O3827 U3806 2.449 . S
O3827 C3823 1.282 . S
H3828 C3801 0.931 . S
H3829 C3803 0.929 . S
H3830 C3804 0.930 . S
H3831 C3805 0.931 . S
H3832 C3812 0.932 . S
H3833 C3813 0.930 . S
H3834 C3814 0.929 . S
H3835 C3816 0.930 . S
H3836 C3818 0.932 . S
H3837 C3819 0.929 . S
H3838 C3820 0.928 . S
H3839 C3822 0.932 . S
H3840 C3843 0.931 . S
H3841 C3846 0.928 . S
H3842 C3848 0.930 . S
C3843 H3840 0.931 . S
C3843 C3844 1.413 . S
C3843 C3845 1.360 . S
C3844 C3843 1.413 . S
C3844 C3848 1.429 . S
C3845 C3843 1.360 . S
C3845 C3846 1.372 . S
C3846 H3841 0.928 . S
C3846 C3845 1.372 . S
C3846 C3847 1.404 . S
C3847 C3846 1.404 . S
C3847 C3848 1.391 . S
C3848 H3842 0.930 . S
C3848 C3844 1.429 . S
C3848 C3847 1.391 . S
H3849 C3852 0.931 . S
H3850 C3855 0.928 . S
H3851 C3857 0.930 . S
C3852 H3849 0.931 . S
C3852 C3853 1.413 . S
C3852 C3854 1.360 . S
C3853 C3852 1.413 . S
C3853 C3857 1.429 . S
C3854 C3852 1.360 . S
C3854 C3855 1.372 . S
C3855 H3850 0.928 . S
C3855 C3854 1.372 . S
C3855 C3856 1.404 . S
C3856 C3855 1.404 . S
C3856 C3857 1.391 . S
C3857 H3851 0.930 . S
C3857 C3853 1.429 . S
C3857 C3856 1.391 . S
H3858 C3861 0.931 . S
H3859 C3864 0.928 . S
H3860 C3866 0.930 . S
C3861 H3858 0.931 . S
C3861 C3862 1.413 . S
C3861 C3863 1.360 . S
C3862 C3861 1.413 . S
C3862 C3866 1.429 . S
C3863 C3861 1.360 . S
C3863 C3864 1.372 . S
C3864 H3859 0.928 . S
C3864 C3863 1.372 . S
C3864 C3865 1.404 . S
C3865 C3864 1.404 . S
C3865 C3866 1.391 . S
C3866 H3860 0.930 . S
C3866 C3862 1.429 . S
C3866 C3865 1.391 . S
H3867 C3870 0.931 . S
H3868 C3873 0.928 . S
H3869 C3875 0.930 . S
C3870 H3867 0.931 . S
C3870 C3871 1.413 . S
C3870 C3872 1.360 . S
C3871 C3870 1.413 . S
C3871 C3875 1.429 . S
C3872 C3870 1.360 . S
C3872 C3873 1.372 . S
C3873 H3868 0.928 . S
C3873 C3872 1.372 . S
C3873 C3874 1.404 . S
C3874 C3873 1.404 . S
C3874 C3875 1.391 . S
C3875 H3869 0.930 . S
C3875 C3871 1.429 . S
C3875 C3874 1.391 . S
H3876 C3879 0.931 . S
H3877 C3882 0.928 . S
H3878 C3884 0.930 . S
C3879 H3876 0.931 . S
C3879 C3880 1.413 . S
C3879 C3881 1.360 . S
C3880 C3879 1.413 . S
C3880 C3884 1.429 . S
C3881 C3879 1.360 . S
C3881 C3882 1.372 . S
C3882 H3877 0.928 . S
C3882 C3881 1.372 . S
C3882 C3883 1.404 . S
C3883 C3882 1.404 . S
C3883 C3884 1.391 . S
C3884 H3878 0.930 . S
C3884 C3880 1.429 . S
C3884 C3883 1.391 . S
H3885 C3888 0.931 . S
H3886 C3891 0.928 . S
H3887 C3893 0.930 . S
C3888 H3885 0.931 . S
C3888 C3889 1.413 . S
C3888 C3890 1.360 . S
C3889 C3888 1.413 . S
C3889 C3893 1.429 . S
C3890 C3888 1.360 . S
C3890 C3891 1.372 . S
C3891 H3886 0.928 . S
C3891 C3890 1.372 . S
C3891 C3892 1.404 . S
C3892 C3891 1.404 . S
C3892 C3893 1.391 . S
C3893 H3887 0.930 . S
C3893 C3889 1.429 . S
C3893 C3892 1.391 . S
H3894 C3897 0.931 . S
H3895 C3900 0.928 . S
H3896 C3902 0.930 . S
C3897 H3894 0.931 . S
C3897 C3898 1.413 . S
C3897 C3899 1.360 . S
C3898 C3897 1.413 . S
C3898 C3902 1.429 . S
C3899 C3897 1.360 . S
C3899 C3900 1.372 . S
C3900 H3895 0.928 . S
C3900 C3899 1.372 . S
C3900 C3901 1.404 . S
C3901 C3900 1.404 . S
C3901 C3902 1.391 . S
C3902 H3896 0.930 . S
C3902 C3898 1.429 . S
C3902 C3901 1.391 . S
H3903 C3906 0.931 . S
H3904 C3909 0.928 . S
H3905 C3911 0.930 . S
C3906 H3903 0.931 . S
C3906 C3907 1.413 . S
C3906 C3908 1.360 . S
C3907 C3906 1.413 . S
C3907 C3911 1.429 . S
C3908 C3906 1.360 . S
C3908 C3909 1.372 . S
C3909 H3904 0.928 . S
C3909 C3908 1.372 . S
C3909 C3910 1.404 . S
C3910 C3909 1.404 . S
C3910 C3911 1.391 . S
C3911 H3905 0.930 . S
C3911 C3907 1.429 . S
C3911 C3910 1.391 . S
H3912 C3915 0.931 . S
H3913 C3918 0.928 . S
H3914 C3920 0.930 . S
C3915 H3912 0.931 . S
C3915 C3916 1.413 . S
C3915 C3917 1.360 . S
C3916 C3915 1.413 . S
C3916 C3920 1.429 . S
C3917 C3915 1.360 . S
C3917 C3918 1.372 . S
C3918 H3913 0.928 . S
C3918 C3917 1.372 . S
C3918 C3919 1.404 . S
C3919 C3918 1.404 . S
C3919 C3920 1.391 . S
C3920 H3914 0.930 . S
C3920 C3916 1.429 . S
C3920 C3919 1.391 . S
H3921 C3924 0.931 . S
H3922 C3927 0.928 . S
H3923 C3929 0.930 . S
C3924 H3921 0.931 . S
C3924 C3925 1.413 . S
C3924 C3926 1.360 . S
C3925 C3924 1.413 . S
C3925 C3929 1.429 . S
C3926 C3924 1.360 . S
C3926 C3927 1.372 . S
C3927 H3922 0.928 . S
C3927 C3926 1.372 . S
C3927 C3928 1.404 . S
C3928 C3927 1.404 . S
C3928 C3929 1.391 . S
C3929 H3923 0.930 . S
C3929 C3925 1.429 . S
C3929 C3928 1.391 . S
H3930 C3933 0.931 . S
H3931 C3936 0.928 . S
H3932 C3938 0.930 . S
C3933 H3930 0.931 . S
C3933 C3934 1.413 . S
C3933 C3935 1.360 . S
C3934 C3933 1.413 . S
C3934 C3938 1.429 . S
C3935 C3933 1.360 . S
C3935 C3936 1.372 . S
C3936 H3931 0.928 . S
C3936 C3935 1.372 . S
C3936 C3937 1.404 . S
C3937 C3936 1.404 . S
C3937 C3938 1.391 . S
C3938 H3932 0.930 . S
C3938 C3934 1.429 . S
C3938 C3937 1.391 . S
H3939 C3942 0.931 . S
H3940 C3945 0.928 . S
H3941 C3947 0.930 . S
C3942 H3939 0.931 . S
C3942 C3943 1.413 . S
C3942 C3944 1.360 . S
C3943 C3942 1.413 . S
C3943 C3947 1.429 . S
C3944 C3942 1.360 . S
C3944 C3945 1.372 . S
C3945 H3940 0.928 . S
C3945 C3944 1.372 . S
C3945 C3946 1.404 . S
C3946 C3945 1.404 . S
C3946 C3947 1.391 . S
C3947 H3941 0.930 . S
C3947 C3943 1.429 . S
C3947 C3946 1.391 . S
H3948 C3951 0.931 . S
H3949 C3954 0.928 . S
H3950 C3956 0.930 . S
C3951 H3948 0.931 . S
C3951 C3952 1.413 . S
C3951 C3953 1.360 . S
C3952 C3951 1.413 . S
C3952 C3956 1.429 . S
C3953 C3951 1.360 . S
C3953 C3954 1.372 . S
C3954 H3949 0.928 . S
C3954 C3953 1.372 . S
C3954 C3955 1.404 . S
C3955 C3954 1.404 . S
C3955 C3956 1.391 . S
C3956 H3950 0.930 . S
C3956 C3952 1.429 . S
C3956 C3955 1.391 . S
H3957 C3960 0.931 . S
H3958 C3963 0.928 . S
H3959 C3965 0.930 . S
C3960 H3957 0.931 . S
C3960 C3961 1.413 . S
C3960 C3962 1.360 . S
C3961 C3960 1.413 . S
C3961 C3965 1.429 . S
C3962 C3960 1.360 . S
C3962 C3963 1.372 . S
C3963 H3958 0.928 . S
C3963 C3962 1.372 . S
C3963 C3964 1.404 . S
C3964 C3963 1.404 . S
C3964 C3965 1.391 . S
C3965 H3959 0.930 . S
C3965 C3961 1.429 . S
C3965 C3964 1.391 . S
H3966 C3969 0.931 . S
H3967 C3972 0.928 . S
H3968 C3974 0.930 . S
C3969 H3966 0.931 . S
C3969 C3970 1.413 . S
C3969 C3971 1.360 . S
C3970 C3969 1.413 . S
C3970 C3974 1.429 . S
C3971 C3969 1.360 . S
C3971 C3972 1.372 . S
C3972 H3967 0.928 . S
C3972 C3971 1.372 . S
C3972 C3973 1.404 . S
C3973 C3972 1.404 . S
C3973 C3974 1.391 . S
C3974 H3968 0.930 . S
C3974 C3970 1.429 . S
C3974 C3973 1.391 . S
H3975 C3978 0.931 . S
H3976 C3981 0.928 . S
H3977 C3983 0.930 . S
C3978 H3975 0.931 . S
C3978 C3979 1.413 . S
C3978 C3980 1.360 . S
C3979 C3978 1.413 . S
C3979 C3983 1.429 . S
C3980 C3978 1.360 . S
C3980 C3981 1.372 . S
C3981 H3976 0.928 . S
C3981 C3980 1.372 . S
C3981 C3982 1.404 . S
C3982 C3981 1.404 . S
C3982 C3983 1.391 . S
C3983 H3977 0.930 . S
C3983 C3979 1.429 . S
C3983 C3982 1.391 . S
H3984 C3987 0.931 . S
H3985 C3990 0.928 . S
H3986 C3992 0.930 . S
C3987 H3984 0.931 . S
C3987 C3988 1.413 . S
C3987 C3989 1.360 . S
C3988 C3987 1.413 . S
C3988 C3992 1.429 . S
C3989 C3987 1.360 . S
C3989 C3990 1.372 . S
C3990 H3985 0.928 . S
C3990 C3989 1.372 . S
C3990 C3991 1.404 . S
C3991 C3990 1.404 . S
C3991 C3992 1.391 . S
C3992 H3986 0.930 . S
C3992 C3988 1.429 . S
C3992 C3991 1.391 . S
H3993 C3996 0.931 . S
H3994 C3999 0.928 . S
H3995 C4001 0.930 . S
C3996 H3993 0.931 . S
C3996 C3997 1.413 . S
C3996 C3998 1.360 . S
C3997 C3996 1.413 . S
C3997 C4001 1.429 . S
C3998 C3996 1.360 . S
C3998 C3999 1.372 . S
C3999 H3994 0.928 . S
C3999 C3998 1.372 . S
C3999 C4000 1.404 . S
C4000 C3999 1.404 . S
C4000 C4001 1.391 . S
C4001 H3995 0.930 . S
C4001 C3997 1.429 . S
C4001 C4000 1.391 . S
H4002 C4005 0.931 . S
H4003 C4008 0.928 . S
H4004 C4010 0.930 . S
C4005 H4002 0.931 . S
C4005 C4006 1.413 . S
C4005 C4007 1.360 . S
C4006 C4005 1.413 . S
C4006 C4010 1.429 . S
C4007 C4005 1.360 . S
C4007 C4008 1.372 . S
C4008 H4003 0.928 . S
C4008 C4007 1.372 . S
C4008 C4009 1.404 . S
C4009 C4008 1.404 . S
C4009 C4010 1.391 . S
C4010 H4004 0.930 . S
C4010 C4006 1.429 . S
C4010 C4009 1.391 . S
H4011 C4014 0.931 . S
H4012 C4017 0.928 . S
H4013 C4019 0.930 . S
C4014 H4011 0.931 . S
C4014 C4015 1.413 . S
C4014 C4016 1.360 . S
C4015 C4014 1.413 . S
C4015 C4019 1.429 . S
C4016 C4014 1.360 . S
C4016 C4017 1.372 . S
C4017 H4012 0.928 . S
C4017 C4016 1.372 . S
C4017 C4018 1.404 . S
C4018 C4017 1.404 . S
C4018 C4019 1.391 . S
C4019 H4013 0.930 . S
C4019 C4015 1.429 . S
C4019 C4018 1.391 . S
H4020 C4023 0.931 . S
H4021 C4026 0.928 . S
H4022 C4028 0.930 . S
C4023 H4020 0.931 . S
C4023 C4024 1.413 . S
C4023 C4025 1.360 . S
C4024 C4023 1.413 . S
C4024 C4028 1.429 . S
C4025 C4023 1.360 . S
C4025 C4026 1.372 . S
C4026 H4021 0.928 . S
C4026 C4025 1.372 . S
C4026 C4027 1.404 . S
C4027 C4026 1.404 . S
C4027 C4028 1.391 . S
C4028 H4022 0.930 . S
C4028 C4024 1.429 . S
C4028 C4027 1.391 . S
H4029 C4032 0.931 . S
H4030 C4035 0.928 . S
H4031 C4037 0.930 . S
C4032 H4029 0.931 . S
C4032 C4033 1.413 . S
C4032 C4034 1.360 . S
C4033 C4032 1.413 . S
C4033 C4037 1.429 . S
C4034 C4032 1.360 . S
C4034 C4035 1.372 . S
C4035 H4030 0.928 . S
C4035 C4034 1.372 . S
C4035 C4036 1.404 . S
C4036 C4035 1.404 . S
C4036 C4037 1.391 . S
C4037 H4031 0.930 . S
C4037 C4033 1.429 . S
C4037 C4036 1.391 . S
H4038 C4041 0.931 . S
H4039 C4044 0.928 . S
H4040 C4046 0.930 . S
C4041 H4038 0.931 . S
C4041 C4042 1.413 . S
C4041 C4043 1.360 . S
C4042 C4041 1.413 . S
C4042 C4046 1.429 . S
C4043 C4041 1.360 . S
C4043 C4044 1.372 . S
C4044 H4039 0.928 . S
C4044 C4043 1.372 . S
C4044 C4045 1.404 . S
C4045 C4044 1.404 . S
C4045 C4046 1.391 . S
C4046 H4040 0.930 . S
C4046 C4042 1.429 . S
C4046 C4045 1.391 . S
H4047 C4050 0.931 . S
H4048 C4053 0.928 . S
H4049 C4055 0.930 . S
C4050 H4047 0.931 . S
C4050 C4051 1.413 . S
C4050 C4052 1.360 . S
C4051 C4050 1.413 . S
C4051 C4055 1.429 . S
C4052 C4050 1.360 . S
C4052 C4053 1.372 . S
C4053 H4048 0.928 . S
C4053 C4052 1.372 . S
C4053 C4054 1.404 . S
C4054 C4053 1.404 . S
C4054 C4055 1.391 . S
C4055 H4049 0.930 . S
C4055 C4051 1.429 . S
C4055 C4054 1.391 . S
H4056 C4059 0.931 . S
H4057 C4062 0.928 . S
H4058 C4064 0.930 . S
C4059 H4056 0.931 . S
C4059 C4060 1.413 . S
C4059 C4061 1.360 . S
C4060 C4059 1.413 . S
C4060 C4064 1.429 . S
C4061 C4059 1.360 . S
C4061 C4062 1.372 . S
C4062 H4057 0.928 . S
C4062 C4061 1.372 . S
C4062 C4063 1.404 . S
C4063 C4062 1.404 . S
C4063 C4064 1.391 . S
C4064 H4058 0.930 . S
C4064 C4060 1.429 . S
C4064 C4063 1.391 . S
H4065 C4068 0.931 . S
H4066 C4071 0.928 . S
H4067 C4073 0.930 . S
C4068 H4065 0.931 . S
C4068 C4069 1.413 . S
C4068 C4070 1.360 . S
C4069 C4068 1.413 . S
C4069 C4073 1.429 . S
C4070 C4068 1.360 . S
C4070 C4071 1.372 . S
C4071 H4066 0.928 . S
C4071 C4070 1.372 . S
C4071 C4072 1.404 . S
C4072 C4071 1.404 . S
C4072 C4073 1.391 . S
C4073 H4067 0.930 . S
C4073 C4069 1.429 . S
C4073 C4072 1.391 . S
H4074 C4077 0.931 . S
H4075 C4080 0.928 . S
H4076 C4082 0.930 . S
C4077 H4074 0.931 . S
C4077 C4078 1.413 . S
C4077 C4079 1.360 . S
C4078 C4077 1.413 . S
C4078 C4082 1.429 . S
C4079 C4077 1.360 . S
C4079 C4080 1.372 . S
C4080 H4075 0.928 . S
C4080 C4079 1.372 . S
C4080 C4081 1.404 . S
C4081 C4080 1.404 . S
C4081 C4082 1.391 . S
C4082 H4076 0.930 . S
C4082 C4078 1.429 . S
C4082 C4081 1.391 . S
H4083 C4086 0.931 . S
H4084 C4089 0.928 . S
H4085 C4091 0.930 . S
C4086 H4083 0.931 . S
C4086 C4087 1.413 . S
C4086 C4088 1.360 . S
C4087 C4086 1.413 . S
C4087 C4091 1.429 . S
C4088 C4086 1.360 . S
C4088 C4089 1.372 . S
C4089 H4084 0.928 . S
C4089 C4088 1.372 . S
C4089 C4090 1.404 . S
C4090 C4089 1.404 . S
C4090 C4091 1.391 . S
C4091 H4085 0.930 . S
C4091 C4087 1.429 . S
C4091 C4090 1.391 . S
H4092 C4095 0.931 . S
H4093 C4098 0.928 . S
H4094 C4100 0.930 . S
C4095 H4092 0.931 . S
C4095 C4096 1.413 . S
C4095 C4097 1.360 . S
C4096 C4095 1.413 . S
C4096 C4100 1.429 . S
C4097 C4095 1.360 . S
C4097 C4098 1.372 . S
C4098 H4093 0.928 . S
C4098 C4097 1.372 . S
C4098 C4099 1.404 . S
C4099 C4098 1.404 . S
C4099 C4100 1.391 . S
C4100 H4094 0.930 . S
C4100 C4096 1.429 . S
C4100 C4099 1.391 . S
H4101 C4104 0.931 . S
H4102 C4107 0.928 . S
H4103 C4109 0.930 . S
C4104 H4101 0.931 . S
C4104 C4105 1.413 . S
C4104 C4106 1.360 . S
C4105 C4104 1.413 . S
C4105 C4109 1.429 . S
C4106 C4104 1.360 . S
C4106 C4107 1.372 . S
C4107 H4102 0.928 . S
C4107 C4106 1.372 . S
C4107 C4108 1.404 . S
C4108 C4107 1.404 . S
C4108 C4109 1.391 . S
C4109 H4103 0.930 . S
C4109 C4105 1.429 . S
C4109 C4108 1.391 . S
H4110 C4113 0.931 . S
H4111 C4116 0.928 . S
H4112 C4118 0.930 . S
C4113 H4110 0.931 . S
C4113 C4114 1.413 . S
C4113 C4115 1.360 . S
C4114 C4113 1.413 . S
C4114 C4118 1.429 . S
C4115 C4113 1.360 . S
C4115 C4116 1.372 . S
C4116 H4111 0.928 . S
C4116 C4115 1.372 . S
C4116 C4117 1.404 . S
C4117 C4116 1.404 . S
C4117 C4118 1.391 . S
C4118 H4112 0.930 . S
C4118 C4114 1.429 . S
C4118 C4117 1.391 . S
H4119 C4122 0.931 . S
H4120 C4125 0.928 . S
H4121 C4127 0.930 . S
C4122 H4119 0.931 . S
C4122 C4123 1.413 . S
C4122 C4124 1.360 . S
C4123 C4122 1.413 . S
C4123 C4127 1.429 . S
C4124 C4122 1.360 . S
C4124 C4125 1.372 . S
C4125 H4120 0.928 . S
C4125 C4124 1.372 . S
C4125 C4126 1.404 . S
C4126 C4125 1.404 . S
C4126 C4127 1.391 . S
C4127 H4121 0.930 . S
C4127 C4123 1.429 . S
C4127 C4126 1.391 . S
H4128 C4131 0.931 . S
H4129 C4134 0.928 . S
H4130 C4136 0.930 . S
C4131 H4128 0.931 . S
C4131 C4132 1.413 . S
C4131 C4133 1.360 . S
C4132 C4131 1.413 . S
C4132 C4136 1.429 . S
C4133 C4131 1.360 . S
C4133 C4134 1.372 . S
C4134 H4129 0.928 . S
C4134 C4133 1.372 . S
C4134 C4135 1.404 . S
C4135 C4134 1.404 . S
C4135 C4136 1.391 . S
C4136 H4130 0.930 . S
C4136 C4132 1.429 . S
C4136 C4135 1.391 . S
H4137 C4140 0.931 . S
H4138 C4143 0.928 . S
H4139 C4145 0.930 . S
C4140 H4137 0.931 . S
C4140 C4141 1.413 . S
C4140 C4142 1.360 . S
C4141 C4140 1.413 . S
C4141 C4145 1.429 . S
C4142 C4140 1.360 . S
C4142 C4143 1.372 . S
C4143 H4138 0.928 . S
C4143 C4142 1.372 . S
C4143 C4144 1.404 . S
C4144 C4143 1.404 . S
C4144 C4145 1.391 . S
C4145 H4139 0.930 . S
C4145 C4141 1.429 . S
C4145 C4144 1.391 . S
H4146 C4149 0.931 . S
H4147 C4152 0.928 . S
H4148 C4154 0.930 . S
C4149 H4146 0.931 . S
C4149 C4150 1.413 . S
C4149 C4151 1.360 . S
C4150 C4149 1.413 . S
C4150 C4154 1.429 . S
C4151 C4149 1.360 . S
C4151 C4152 1.372 . S
C4152 H4147 0.928 . S
C4152 C4151 1.372 . S
C4152 C4153 1.404 . S
C4153 C4152 1.404 . S
C4153 C4154 1.391 . S
C4154 H4148 0.930 . S
C4154 C4150 1.429 . S
C4154 C4153 1.391 . S
H4155 C4158 0.931 . S
H4156 C4161 0.928 . S
H4157 C4163 0.930 . S
C4158 H4155 0.931 . S
C4158 C4159 1.413 . S
C4158 C4160 1.360 . S
C4159 C4158 1.413 . S
C4159 C4163 1.429 . S
C4160 C4158 1.360 . S
C4160 C4161 1.372 . S
C4161 H4156 0.928 . S
C4161 C4160 1.372 . S
C4161 C4162 1.404 . S
C4162 C4161 1.404 . S
C4162 C4163 1.391 . S
C4163 H4157 0.930 . S
C4163 C4159 1.429 . S
C4163 C4162 1.391 . S
H4164 C4167 0.931 . S
H4165 C4170 0.928 . S
H4166 C4172 0.930 . S
C4167 H4164 0.931 . S
C4167 C4168 1.413 . S
C4167 C4169 1.360 . S
C4168 C4167 1.413 . S
C4168 C4172 1.429 . S
C4169 C4167 1.360 . S
C4169 C4170 1.372 . S
C4170 H4165 0.928 . S
C4170 C4169 1.372 . S
C4170 C4171 1.404 . S
C4171 C4170 1.404 . S
C4171 C4172 1.391 . S
C4172 H4166 0.930 . S
C4172 C4168 1.429 . S
C4172 C4171 1.391 . S
H4173 C4176 0.931 . S
H4174 C4179 0.928 . S
H4175 C4181 0.930 . S
C4176 H4173 0.931 . S
C4176 C4177 1.413 . S
C4176 C4178 1.360 . S
C4177 C4176 1.413 . S
C4177 C4181 1.429 . S
C4178 C4176 1.360 . S
C4178 C4179 1.372 . S
C4179 H4174 0.928 . S
C4179 C4178 1.372 . S
C4179 C4180 1.404 . S
C4180 C4179 1.404 . S
C4180 C4181 1.391 . S
C4181 H4175 0.930 . S
C4181 C4177 1.429 . S
C4181 C4180 1.391 . S
H4182 C4185 0.931 . S
H4183 C4188 0.928 . S
H4184 C4190 0.930 . S
C4185 H4182 0.931 . S
C4185 C4186 1.413 . S
C4185 C4187 1.360 . S
C4186 C4185 1.413 . S
C4186 C4190 1.429 . S
C4187 C4185 1.360 . S
C4187 C4188 1.372 . S
C4188 H4183 0.928 . S
C4188 C4187 1.372 . S
C4188 C4189 1.404 . S
C4189 C4188 1.404 . S
C4189 C4190 1.391 . S
C4190 H4184 0.930 . S
C4190 C4186 1.429 . S
C4190 C4189 1.391 . S
H4191 C4194 0.931 . S
H4192 C4197 0.928 . S
H4193 C4199 0.930 . S
C4194 H4191 0.931 . S
C4194 C4195 1.413 . S
C4194 C4196 1.360 . S
C4195 C4194 1.413 . S
C4195 C4199 1.429 . S
C4196 C4194 1.360 . S
C4196 C4197 1.372 . S
C4197 H4192 0.928 . S
C4197 C4196 1.372 . S
C4197 C4198 1.404 . S
C4198 C4197 1.404 . S
C4198 C4199 1.391 . S
C4199 H4193 0.930 . S
C4199 C4195 1.429 . S
C4199 C4198 1.391 . S
H4200 C4203 0.931 . S
H4201 C4206 0.928 . S
H4202 C4208 0.930 . S
C4203 H4200 0.931 . S
C4203 C4204 1.413 . S
C4203 C4205 1.360 . S
C4204 C4203 1.413 . S
C4204 C4208 1.429 . S
C4205 C4203 1.360 . S
C4205 C4206 1.372 . S
C4206 H4201 0.928 . S
C4206 C4205 1.372 . S
C4206 C4207 1.404 . S
C4207 C4206 1.404 . S
C4207 C4208 1.391 . S
C4208 H4202 0.930 . S
C4208 C4204 1.429 . S
C4208 C4207 1.391 . S
H4209 C4212 0.931 . S
H4210 C4215 0.928 . S
H4211 C4217 0.930 . S
C4212 H4209 0.931 . S
C4212 C4213 1.413 . S
C4212 C4214 1.360 . S
C4213 C4212 1.413 . S
C4213 C4217 1.429 . S
C4214 C4212 1.360 . S
C4214 C4215 1.372 . S
C4215 H4210 0.928 . S
C4215 C4214 1.372 . S
C4215 C4216 1.404 . S
C4216 C4215 1.404 . S
C4216 C4217 1.391 . S
C4217 H4211 0.930 . S
C4217 C4213 1.429 . S
C4217 C4216 1.391 . S
H4218 C4221 0.931 . S
H4219 C4224 0.928 . S
H4220 C4226 0.930 . S
C4221 H4218 0.931 . S
C4221 C4222 1.413 . S
C4221 C4223 1.360 . S
C4222 C4221 1.413 . S
C4222 C4226 1.429 . S
C4223 C4221 1.360 . S
C4223 C4224 1.372 . S
C4224 H4219 0.928 . S
C4224 C4223 1.372 . S
C4224 C4225 1.404 . S
C4225 C4224 1.404 . S
C4225 C4226 1.391 . S
C4226 H4220 0.930 . S
C4226 C4222 1.429 . S
C4226 C4225 1.391 . S
H4227 C4230 0.931 . S
H4228 C4233 0.928 . S
H4229 C4235 0.930 . S
C4230 H4227 0.931 . S
C4230 C4231 1.413 . S
C4230 C4232 1.360 . S
C4231 C4230 1.413 . S
C4231 C4235 1.429 . S
C4232 C4230 1.360 . S
C4232 C4233 1.372 . S
C4233 H4228 0.928 . S
C4233 C4232 1.372 . S
C4233 C4234 1.404 . S
C4234 C4233 1.404 . S
C4234 C4235 1.391 . S
C4235 H4229 0.930 . S
C4235 C4231 1.429 . S
C4235 C4234 1.391 . S
H4236 C4239 0.931 . S
H4237 C4242 0.928 . S
H4238 C4244 0.930 . S
C4239 H4236 0.931 . S
C4239 C4240 1.413 . S
C4239 C4241 1.360 . S
C4240 C4239 1.413 . S
C4240 C4244 1.429 . S
C4241 C4239 1.360 . S
C4241 C4242 1.372 . S
C4242 H4237 0.928 . S
C4242 C4241 1.372 . S
C4242 C4243 1.404 . S
C4243 C4242 1.404 . S
C4243 C4244 1.391 . S
C4244 H4238 0.930 . S
C4244 C4240 1.429 . S
C4244 C4243 1.391 . S
H4245 C4248 0.931 . S
H4246 C4251 0.928 . S
H4247 C4253 0.930 . S
C4248 H4245 0.931 . S
C4248 C4249 1.413 . S
C4248 C4250 1.360 . S
C4249 C4248 1.413 . S
C4249 C4253 1.429 . S
C4250 C4248 1.360 . S
C4250 C4251 1.372 . S
C4251 H4246 0.928 . S
C4251 C4250 1.372 . S
C4251 C4252 1.404 . S
C4252 C4251 1.404 . S
C4252 C4253 1.391 . S
C4253 H4247 0.930 . S
C4253 C4249 1.429 . S
C4253 C4252 1.391 . S
H4254 C4257 0.931 . S
H4255 C4260 0.928 . S
H4256 C4262 0.930 . S
C4257 H4254 0.931 . S
C4257 C4258 1.413 . S
C4257 C4259 1.360 . S
C4258 C4257 1.413 . S
C4258 C4262 1.429 . S
C4259 C4257 1.360 . S
C4259 C4260 1.372 . S
C4260 H4255 0.928 . S
C4260 C4259 1.372 . S
C4260 C4261 1.404 . S
C4261 C4260 1.404 . S
C4261 C4262 1.391 . S
C4262 H4256 0.930 . S
C4262 C4258 1.429 . S
C4262 C4261 1.391 . S
H4263 C4266 0.931 . S
H4264 C4269 0.928 . S
H4265 C4271 0.930 . S
C4266 H4263 0.931 . S
C4266 C4267 1.413 . S
C4266 C4268 1.360 . S
C4267 C4266 1.413 . S
C4267 C4271 1.429 . S
C4268 C4266 1.360 . S
C4268 C4269 1.372 . S
C4269 H4264 0.928 . S
C4269 C4268 1.372 . S
C4269 C4270 1.404 . S
C4270 C4269 1.404 . S
C4270 C4271 1.391 . S
C4271 H4265 0.930 . S
C4271 C4267 1.429 . S
C4271 C4270 1.391 . S
H4272 C4275 0.931 . S
H4273 C4278 0.928 . S
H4274 C4280 0.930 . S
C4275 H4272 0.931 . S
C4275 C4276 1.413 . S
C4275 C4277 1.360 . S
C4276 C4275 1.413 . S
C4276 C4280 1.429 . S
C4277 C4275 1.360 . S
C4277 C4278 1.372 . S
C4278 H4273 0.928 . S
C4278 C4277 1.372 . S
C4278 C4279 1.404 . S
C4279 C4278 1.404 . S
C4279 C4280 1.391 . S
C4280 H4274 0.930 . S
C4280 C4276 1.429 . S
C4280 C4279 1.391 . S
H4281 C4284 0.931 . S
H4282 C4287 0.928 . S
H4283 C4289 0.930 . S
C4284 H4281 0.931 . S
C4284 C4285 1.413 . S
C4284 C4286 1.360 . S
C4285 C4284 1.413 . S
C4285 C4289 1.429 . S
C4286 C4284 1.360 . S
C4286 C4287 1.372 . S
C4287 H4282 0.928 . S
C4287 C4286 1.372 . S
C4287 C4288 1.404 . S
C4288 C4287 1.404 . S
C4288 C4289 1.391 . S
C4289 H4283 0.930 . S
C4289 C4285 1.429 . S
C4289 C4288 1.391 . S
H4290 C4293 0.931 . S
H4291 C4296 0.928 . S
H4292 C4298 0.930 . S
C4293 H4290 0.931 . S
C4293 C4294 1.413 . S
C4293 C4295 1.360 . S
C4294 C4293 1.413 . S
C4294 C4298 1.429 . S
C4295 C4293 1.360 . S
C4295 C4296 1.372 . S
C4296 H4291 0.928 . S
C4296 C4295 1.372 . S
C4296 C4297 1.404 . S
C4297 C4296 1.404 . S
C4297 C4298 1.391 . S
C4298 H4292 0.930 . S
C4298 C4294 1.429 . S
C4298 C4297 1.391 . S
H4299 C4302 0.931 . S
H4300 C4305 0.928 . S
H4301 C4307 0.930 . S
C4302 H4299 0.931 . S
C4302 C4303 1.413 . S
C4302 C4304 1.360 . S
C4303 C4302 1.413 . S
C4303 C4307 1.429 . S
C4304 C4302 1.360 . S
C4304 C4305 1.372 . S
C4305 H4300 0.928 . S
C4305 C4304 1.372 . S
C4305 C4306 1.404 . S
C4306 C4305 1.404 . S
C4306 C4307 1.391 . S
C4307 H4301 0.930 . S
C4307 C4303 1.429 . S
C4307 C4306 1.391 . S
H4308 C4311 0.931 . S
H4309 C4314 0.928 . S
H4310 C4316 0.930 . S
C4311 H4308 0.931 . S
C4311 C4312 1.413 . S
C4311 C4313 1.360 . S
C4312 C4311 1.413 . S
C4312 C4316 1.429 . S
C4313 C4311 1.360 . S
C4313 C4314 1.372 . S
C4314 H4309 0.928 . S
C4314 C4313 1.372 . S
C4314 C4315 1.404 . S
C4315 C4314 1.404 . S
C4315 C4316 1.391 . S
C4316 H4310 0.930 . S
C4316 C4312 1.429 . S
C4316 C4315 1.391 . S
H4317 C4320 0.931 . S
H4318 C4323 0.928 . S
H4319 C4325 0.930 . S
C4320 H4317 0.931 . S
C4320 C4321 1.413 . S
C4320 C4322 1.360 . S
C4321 C4320 1.413 . S
C4321 C4325 1.429 . S
C4322 C4320 1.360 . S
C4322 C4323 1.372 . S
C4323 H4318 0.928 . S
C4323 C4322 1.372 . S
C4323 C4324 1.404 . S
C4324 C4323 1.404 . S
C4324 C4325 1.391 . S
C4325 H4319 0.930 . S
C4325 C4321 1.429 . S
C4325 C4324 1.391 . S
H4326 C4329 0.931 . S
H4327 C4332 0.928 . S
H4328 C4334 0.930 . S
C4329 H4326 0.931 . S
C4329 C4330 1.413 . S
C4329 C4331 1.360 . S
C4330 C4329 1.413 . S
C4330 C4334 1.429 . S
C4331 C4329 1.360 . S
C4331 C4332 1.372 . S
C4332 H4327 0.928 . S
C4332 C4331 1.372 . S
C4332 C4333 1.404 . S
C4333 C4332 1.404 . S
C4333 C4334 1.391 . S
C4334 H4328 0.930 . S
C4334 C4330 1.429 . S
C4334 C4333 1.391 . S
H4335 C4338 0.931 . S
H4336 C4341 0.928 . S
H4337 C4343 0.930 . S
C4338 H4335 0.931 . S
C4338 C4339 1.413 . S
C4338 C4340 1.360 . S
C4339 C4338 1.413 . S
C4339 C4343 1.429 . S
C4340 C4338 1.360 . S
C4340 C4341 1.372 . S
C4341 H4336 0.928 . S
C4341 C4340 1.372 . S
C4341 C4342 1.404 . S
C4342 C4341 1.404 . S
C4342 C4343 1.391 . S
C4343 H4337 0.930 . S
C4343 C4339 1.429 . S
C4343 C4342 1.391 . S
H4344 C4347 0.931 . S
H4345 C4350 0.928 . S
H4346 C4352 0.930 . S
C4347 H4344 0.931 . S
C4347 C4348 1.413 . S
C4347 C4349 1.360 . S
C4348 C4347 1.413 . S
C4348 C4352 1.429 . S
C4349 C4347 1.360 . S
C4349 C4350 1.372 . S
C4350 H4345 0.928 . S
C4350 C4349 1.372 . S
C4350 C4351 1.404 . S
C4351 C4350 1.404 . S
C4351 C4352 1.391 . S
C4352 H4346 0.930 . S
C4352 C4348 1.429 . S
C4352 C4351 1.391 . S
H4353 C4356 0.931 . S
H4354 C4359 0.928 . S
H4355 C4361 0.930 . S
C4356 H4353 0.931 . S
C4356 C4357 1.413 . S
C4356 C4358 1.360 . S
C4357 C4356 1.413 . S
C4357 C4361 1.429 . S
C4358 C4356 1.360 . S
C4358 C4359 1.372 . S
C4359 H4354 0.928 . S
C4359 C4358 1.372 . S
C4359 C4360 1.404 . S
C4360 C4359 1.404 . S
C4360 C4361 1.391 . S
C4361 H4355 0.930 . S
C4361 C4357 1.429 . S
C4361 C4360 1.391 . S
H4362 C4365 0.931 . S
H4363 C4368 0.928 . S
H4364 C4370 0.930 . S
C4365 H4362 0.931 . S
C4365 C4366 1.413 . S
C4365 C4367 1.360 . S
C4366 C4365 1.413 . S
C4366 C4370 1.429 . S
C4367 C4365 1.360 . S
C4367 C4368 1.372 . S
C4368 H4363 0.928 . S
C4368 C4367 1.372 . S
C4368 C4369 1.404 . S
C4369 C4368 1.404 . S
C4369 C4370 1.391 . S
C4370 H4364 0.930 . S
C4370 C4366 1.429 . S
C4370 C4369 1.391 . S
H4371 C4374 0.931 . S
H4372 C4377 0.928 . S
H4373 C4379 0.930 . S
C4374 H4371 0.931 . S
C4374 C4375 1.413 . S
C4374 C4376 1.360 . S
C4375 C4374 1.413 . S
C4375 C4379 1.429 . S
C4376 C4374 1.360 . S
C4376 C4377 1.372 . S
C4377 H4372 0.928 . S
C4377 C4376 1.372 . S
C4377 C4378 1.404 . S
C4378 C4377 1.404 . S
C4378 C4379 1.391 . S
C4379 H4373 0.930 . S
C4379 C4375 1.429 . S
C4379 C4378 1.391 . S
H4380 C4383 0.931 . S
H4381 C4386 0.928 . S
H4382 C4388 0.930 . S
C4383 H4380 0.931 . S
C4383 C4384 1.413 . S
C4383 C4385 1.360 . S
C4384 C4383 1.413 . S
C4384 C4388 1.429 . S
C4385 C4383 1.360 . S
C4385 C4386 1.372 . S
C4386 H4381 0.928 . S
C4386 C4385 1.372 . S
C4386 C4387 1.404 . S
C4387 C4386 1.404 . S
C4387 C4388 1.391 . S
C4388 H4382 0.930 . S
C4388 C4384 1.429 . S
C4388 C4387 1.391 . S
H4389 C4392 0.931 . S
H4390 C4395 0.928 . S
H4391 C4397 0.930 . S
C4392 H4389 0.931 . S
C4392 C4393 1.413 . S
C4392 C4394 1.360 . S
C4393 C4392 1.413 . S
C4393 C4397 1.429 . S
C4394 C4392 1.360 . S
C4394 C4395 1.372 . S
C4395 H4390 0.928 . S
C4395 C4394 1.372 . S
C4395 C4396 1.404 . S
C4396 C4395 1.404 . S
C4396 C4397 1.391 . S
C4397 H4391 0.930 . S
C4397 C4393 1.429 . S
C4397 C4396 1.391 . S
H4398 C4401 0.931 . S
H4399 C4404 0.928 . S
H4400 C4406 0.930 . S
C4401 H4398 0.931 . S
C4401 C4402 1.413 . S
C4401 C4403 1.360 . S
C4402 C4401 1.413 . S
C4402 C4406 1.429 . S
C4403 C4401 1.360 . S
C4403 C4404 1.372 . S
C4404 H4399 0.928 . S
C4404 C4403 1.372 . S
C4404 C4405 1.404 . S
C4405 C4404 1.404 . S
C4405 C4406 1.391 . S
C4406 H4400 0.930 . S
C4406 C4402 1.429 . S
C4406 C4405 1.391 . S
H4407 C4410 0.931 . S
H4408 C4413 0.928 . S
H4409 C4415 0.930 . S
C4410 H4407 0.931 . S
C4410 C4411 1.413 . S
C4410 C4412 1.360 . S
C4411 C4410 1.413 . S
C4411 C4415 1.429 . S
C4412 C4410 1.360 . S
C4412 C4413 1.372 . S
C4413 H4408 0.928 . S
C4413 C4412 1.372 . S
C4413 C4414 1.404 . S
C4414 C4413 1.404 . S
C4414 C4415 1.391 . S
C4415 H4409 0.930 . S
C4415 C4411 1.429 . S
C4415 C4414 1.391 . S
H4416 C4419 0.931 . S
H4417 C4422 0.928 . S
H4418 C4424 0.930 . S
C4419 H4416 0.931 . S
C4419 C4420 1.413 . S
C4419 C4421 1.360 . S
C4420 C4419 1.413 . S
C4420 C4424 1.429 . S
C4421 C4419 1.360 . S
C4421 C4422 1.372 . S
C4422 H4417 0.928 . S
C4422 C4421 1.372 . S
C4422 C4423 1.404 . S
C4423 C4422 1.404 . S
C4423 C4424 1.391 . S
C4424 H4418 0.930 . S
C4424 C4420 1.429 . S
C4424 C4423 1.391 . S
H4425 C4428 0.931 . S
H4426 C4431 0.928 . S
H4427 C4433 0.930 . S
C4428 H4425 0.931 . S
C4428 C4429 1.413 . S
C4428 C4430 1.360 . S
C4429 C4428 1.413 . S
C4429 C4433 1.429 . S
C4430 C4428 1.360 . S
C4430 C4431 1.372 . S
C4431 H4426 0.928 . S
C4431 C4430 1.372 . S
C4431 C4432 1.404 . S
C4432 C4431 1.404 . S
C4432 C4433 1.391 . S
C4433 H4427 0.930 . S
C4433 C4429 1.429 . S
C4433 C4432 1.391 . S
H4434 C4437 0.931 . S
H4435 C4440 0.928 . S
H4436 C4442 0.930 . S
C4437 H4434 0.931 . S
C4437 C4438 1.413 . S
C4437 C4439 1.360 . S
C4438 C4437 1.413 . S
C4438 C4442 1.429 . S
C4439 C4437 1.360 . S
C4439 C4440 1.372 . S
C4440 H4435 0.928 . S
C4440 C4439 1.372 . S
C4440 C4441 1.404 . S
C4441 C4440 1.404 . S
C4441 C4442 1.391 . S
C4442 H4436 0.930 . S
C4442 C4438 1.429 . S
C4442 C4441 1.391 . S
H4443 C4446 0.931 . S
H4444 C4449 0.928 . S
H4445 C4451 0.930 . S
C4446 H4443 0.931 . S
C4446 C4447 1.413 . S
C4446 C4448 1.360 . S
C4447 C4446 1.413 . S
C4447 C4451 1.429 . S
C4448 C4446 1.360 . S
C4448 C4449 1.372 . S
C4449 H4444 0.928 . S
C4449 C4448 1.372 . S
C4449 C4450 1.404 . S
C4450 C4449 1.404 . S
C4450 C4451 1.391 . S
C4451 H4445 0.930 . S
C4451 C4447 1.429 . S
C4451 C4450 1.391 . S
H4452 C4455 0.931 . S
H4453 C4458 0.928 . S
H4454 C4460 0.930 . S
C4455 H4452 0.931 . S
C4455 C4456 1.413 . S
C4455 C4457 1.360 . S
C4456 C4455 1.413 . S
C4456 C4460 1.429 . S
C4457 C4455 1.360 . S
C4457 C4458 1.372 . S
C4458 H4453 0.928 . S
C4458 C4457 1.372 . S
C4458 C4459 1.404 . S
C4459 C4458 1.404 . S
C4459 C4460 1.391 . S
C4460 H4454 0.930 . S
C4460 C4456 1.429 . S
C4460 C4459 1.391 . S
H4461 C4464 0.931 . S
H4462 C4467 0.928 . S
H4463 C4469 0.930 . S
C4464 H4461 0.931 . S
C4464 C4465 1.413 . S
C4464 C4466 1.360 . S
C4465 C4464 1.413 . S
C4465 C4469 1.429 . S
C4466 C4464 1.360 . S
C4466 C4467 1.372 . S
C4467 H4462 0.928 . S
C4467 C4466 1.372 . S
C4467 C4468 1.404 . S
C4468 C4467 1.404 . S
C4468 C4469 1.391 . S
C4469 H4463 0.930 . S
C4469 C4465 1.429 . S
C4469 C4468 1.391 . S
H4470 C4473 0.931 . S
H4471 C4476 0.928 . S
H4472 C4478 0.930 . S
C4473 H4470 0.931 . S
C4473 C4474 1.413 . S
C4473 C4475 1.360 . S
C4474 C4473 1.413 . S
C4474 C4478 1.429 . S
C4475 C4473 1.360 . S
C4475 C4476 1.372 . S
C4476 H4471 0.928 . S
C4476 C4475 1.372 . S
C4476 C4477 1.404 . S
C4477 C4476 1.404 . S
C4477 C4478 1.391 . S
C4478 H4472 0.930 . S
C4478 C4474 1.429 . S
C4478 C4477 1.391 . S
H4479 C4482 0.931 . S
H4480 C4485 0.928 . S
H4481 C4487 0.930 . S
C4482 H4479 0.931 . S
C4482 C4483 1.413 . S
C4482 C4484 1.360 . S
C4483 C4482 1.413 . S
C4483 C4487 1.429 . S
C4484 C4482 1.360 . S
C4484 C4485 1.372 . S
C4485 H4480 0.928 . S
C4485 C4484 1.372 . S
C4485 C4486 1.404 . S
C4486 C4485 1.404 . S
C4486 C4487 1.391 . S
C4487 H4481 0.930 . S
C4487 C4483 1.429 . S
C4487 C4486 1.391 . S
H4488 C4491 0.931 . S
H4489 C4494 0.928 . S
H4490 C4496 0.930 . S
C4491 H4488 0.931 . S
C4491 C4492 1.413 . S
C4491 C4493 1.360 . S
C4492 C4491 1.413 . S
C4492 C4496 1.429 . S
C4493 C4491 1.360 . S
C4493 C4494 1.372 . S
C4494 H4489 0.928 . S
C4494 C4493 1.372 . S
C4494 C4495 1.404 . S
C4495 C4494 1.404 . S
C4495 C4496 1.391 . S
C4496 H4490 0.930 . S
C4496 C4492 1.429 . S
C4496 C4495 1.391 . S
H4497 C4500 0.931 . S
H4498 C4503 0.928 . S
H4499 C4505 0.930 . S
C4500 H4497 0.931 . S
C4500 C4501 1.413 . S
C4500 C4502 1.360 . S
C4501 C4500 1.413 . S
C4501 C4505 1.429 . S
C4502 C4500 1.360 . S
C4502 C4503 1.372 . S
C4503 H4498 0.928 . S
C4503 C4502 1.372 . S
C4503 C4504 1.404 . S
C4504 C4503 1.404 . S
C4504 C4505 1.391 . S
C4505 H4499 0.930 . S
C4505 C4501 1.429 . S
C4505 C4504 1.391 . S
H4506 C4509 0.931 . S
H4507 C4512 0.928 . S
H4508 C4514 0.930 . S
C4509 H4506 0.931 . S
C4509 C4510 1.413 . S
C4509 C4511 1.360 . S
C4510 C4509 1.413 . S
C4510 C4514 1.429 . S
C4511 C4509 1.360 . S
C4511 C4512 1.372 . S
C4512 H4507 0.928 . S
C4512 C4511 1.372 . S
C4512 C4513 1.404 . S
C4513 C4512 1.404 . S
C4513 C4514 1.391 . S
C4514 H4508 0.930 . S
C4514 C4510 1.429 . S
C4514 C4513 1.391 . S
H4515 C4518 0.931 . S
H4516 C4521 0.928 . S
H4517 C4523 0.930 . S
C4518 H4515 0.931 . S
C4518 C4519 1.413 . S
C4518 C4520 1.360 . S
C4519 C4518 1.413 . S
C4519 C4523 1.429 . S
C4520 C4518 1.360 . S
C4520 C4521 1.372 . S
C4521 H4516 0.928 . S
C4521 C4520 1.372 . S
C4521 C4522 1.404 . S
C4522 C4521 1.404 . S
C4522 C4523 1.391 . S
C4523 H4517 0.930 . S
C4523 C4519 1.429 . S
C4523 C4522 1.391 . S
H4524 C4527 0.931 . S
H4525 C4530 0.928 . S
H4526 C4532 0.930 . S
C4527 H4524 0.931 . S
C4527 C4528 1.413 . S
C4527 C4529 1.360 . S
C4528 C4527 1.413 . S
C4528 C4532 1.429 . S
C4529 C4527 1.360 . S
C4529 C4530 1.372 . S
C4530 H4525 0.928 . S
C4530 C4529 1.372 . S
C4530 C4531 1.404 . S
C4531 C4530 1.404 . S
C4531 C4532 1.391 . S
C4532 H4526 0.930 . S
C4532 C4528 1.429 . S
C4532 C4531 1.391 . S
H4533 C4536 0.931 . S
H4534 C4539 0.928 . S
H4535 C4541 0.930 . S
C4536 H4533 0.931 . S
C4536 C4537 1.413 . S
C4536 C4538 1.360 . S
C4537 C4536 1.413 . S
C4537 C4541 1.429 . S
C4538 C4536 1.360 . S
C4538 C4539 1.372 . S
C4539 H4534 0.928 . S
C4539 C4538 1.372 . S
C4539 C4540 1.404 . S
C4540 C4539 1.404 . S
C4540 C4541 1.391 . S
C4541 H4535 0.930 . S
C4541 C4537 1.429 . S
C4541 C4540 1.391 . S
H4542 C4545 0.931 . S
H4543 C4548 0.928 . S
H4544 C4550 0.930 . S
C4545 H4542 0.931 . S
C4545 C4546 1.413 . S
C4545 C4547 1.360 . S
C4546 C4545 1.413 . S
C4546 C4550 1.429 . S
C4547 C4545 1.360 . S
C4547 C4548 1.372 . S
C4548 H4543 0.928 . S
C4548 C4547 1.372 . S
C4548 C4549 1.404 . S
C4549 C4548 1.404 . S
C4549 C4550 1.391 . S
C4550 H4544 0.930 . S
C4550 C4546 1.429 . S
C4550 C4549 1.391 . S
H4551 C4554 0.931 . S
H4552 C4557 0.928 . S
H4553 C4559 0.930 . S
C4554 H4551 0.931 . S
C4554 C4555 1.413 . S
C4554 C4556 1.360 . S
C4555 C4554 1.413 . S
C4555 C4559 1.429 . S
C4556 C4554 1.360 . S
C4556 C4557 1.372 . S
C4557 H4552 0.928 . S
C4557 C4556 1.372 . S
C4557 C4558 1.404 . S
C4558 C4557 1.404 . S
C4558 C4559 1.391 . S
C4559 H4553 0.930 . S
C4559 C4555 1.429 . S
C4559 C4558 1.391 . S
H4560 C4563 0.931 . S
H4561 C4566 0.928 . S
H4562 C4568 0.930 . S
C4563 H4560 0.931 . S
C4563 C4564 1.413 . S
C4563 C4565 1.360 . S
C4564 C4563 1.413 . S
C4564 C4568 1.429 . S
C4565 C4563 1.360 . S
C4565 C4566 1.372 . S
C4566 H4561 0.928 . S
C4566 C4565 1.372 . S
C4566 C4567 1.404 . S
C4567 C4566 1.404 . S
C4567 C4568 1.391 . S
C4568 H4562 0.930 . S
C4568 C4564 1.429 . S
C4568 C4567 1.391 . S
H4569 C4572 0.931 . S
H4570 C4575 0.928 . S
H4571 C4577 0.930 . S
C4572 H4569 0.931 . S
C4572 C4573 1.413 . S
C4572 C4574 1.360 . S
C4573 C4572 1.413 . S
C4573 C4577 1.429 . S
C4574 C4572 1.360 . S
C4574 C4575 1.372 . S
C4575 H4570 0.928 . S
C4575 C4574 1.372 . S
C4575 C4576 1.404 . S
C4576 C4575 1.404 . S
C4576 C4577 1.391 . S
C4577 H4571 0.930 . S
C4577 C4573 1.429 . S
C4577 C4576 1.391 . S
H4578 C4581 0.931 . S
H4579 C4584 0.928 . S
H4580 C4586 0.930 . S
C4581 H4578 0.931 . S
C4581 C4582 1.413 . S
C4581 C4583 1.360 . S
C4582 C4581 1.413 . S
C4582 C4586 1.429 . S
C4583 C4581 1.360 . S
C4583 C4584 1.372 . S
C4584 H4579 0.928 . S
C4584 C4583 1.372 . S
C4584 C4585 1.404 . S
C4585 C4584 1.404 . S
C4585 C4586 1.391 . S
C4586 H4580 0.930 . S
C4586 C4582 1.429 . S
C4586 C4585 1.391 . S
H4587 C4590 0.931 . S
H4588 C4593 0.928 . S
H4589 C4595 0.930 . S
C4590 H4587 0.931 . S
C4590 C4591 1.413 . S
C4590 C4592 1.360 . S
C4591 C4590 1.413 . S
C4591 C4595 1.429 . S
C4592 C4590 1.360 . S
C4592 C4593 1.372 . S
C4593 H4588 0.928 . S
C4593 C4592 1.372 . S
C4593 C4594 1.404 . S
C4594 C4593 1.404 . S
C4594 C4595 1.391 . S
C4595 H4589 0.930 . S
C4595 C4591 1.429 . S
C4595 C4594 1.391 . S
H4596 C4599 0.931 . S
H4597 C4602 0.928 . S
H4598 C4604 0.930 . S
C4599 H4596 0.931 . S
C4599 C4600 1.413 . S
C4599 C4601 1.360 . S
C4600 C4599 1.413 . S
C4600 C4604 1.429 . S
C4601 C4599 1.360 . S
C4601 C4602 1.372 . S
C4602 H4597 0.928 . S
C4602 C4601 1.372 . S
C4602 C4603 1.404 . S
C4603 C4602 1.404 . S
C4603 C4604 1.391 . S
C4604 H4598 0.930 . S
C4604 C4600 1.429 . S
C4604 C4603 1.391 . S
H4605 C4608 0.931 . S
H4606 C4611 0.928 . S
H4607 C4613 0.930 . S
C4608 H4605 0.931 . S
C4608 C4609 1.413 . S
C4608 C4610 1.360 . S
C4609 C4608 1.413 . S
C4609 C4613 1.429 . S
C4610 C4608 1.360 . S
C4610 C4611 1.372 . S
C4611 H4606 0.928 . S
C4611 C4610 1.372 . S
C4611 C4612 1.404 . S
C4612 C4611 1.404 . S
C4612 C4613 1.391 . S
C4613 H4607 0.930 . S
C4613 C4609 1.429 . S
C4613 C4612 1.391 . S
H4614 C4617 0.931 . S
H4615 C4620 0.928 . S
H4616 C4622 0.930 . S
C4617 H4614 0.931 . S
C4617 C4618 1.413 . S
C4617 C4619 1.360 . S
C4618 C4617 1.413 . S
C4618 C4622 1.429 . S
C4619 C4617 1.360 . S
C4619 C4620 1.372 . S
C4620 H4615 0.928 . S
C4620 C4619 1.372 . S
C4620 C4621 1.404 . S
C4621 C4620 1.404 . S
C4621 C4622 1.391 . S
C4622 H4616 0.930 . S
C4622 C4618 1.429 . S
C4622 C4621 1.391 . S
H4623 C4626 0.931 . S
H4624 C4629 0.928 . S
H4625 C4631 0.930 . S
C4626 H4623 0.931 . S
C4626 C4627 1.413 . S
C4626 C4628 1.360 . S
C4627 C4626 1.413 . S
C4627 C4631 1.429 . S
C4628 C4626 1.360 . S
C4628 C4629 1.372 . S
C4629 H4624 0.928 . S
C4629 C4628 1.372 . S
C4629 C4630 1.404 . S
C4630 C4629 1.404 . S
C4630 C4631 1.391 . S
C4631 H4625 0.930 . S
C4631 C4627 1.429 . S
C4631 C4630 1.391 . S
H4632 C4635 0.931 . S
H4633 C4638 0.928 . S
H4634 C4640 0.930 . S
C4635 H4632 0.931 . S
C4635 C4636 1.413 . S
C4635 C4637 1.360 . S
C4636 C4635 1.413 . S
C4636 C4640 1.429 . S
C4637 C4635 1.360 . S
C4637 C4638 1.372 . S
C4638 H4633 0.928 . S
C4638 C4637 1.372 . S
C4638 C4639 1.404 . S
C4639 C4638 1.404 . S
C4639 C4640 1.391 . S
C4640 H4634 0.930 . S
C4640 C4636 1.429 . S
C4640 C4639 1.391 . S
H4641 C4644 0.931 . S
H4642 C4647 0.928 . S
H4643 C4649 0.930 . S
C4644 H4641 0.931 . S
C4644 C4645 1.413 . S
C4644 C4646 1.360 . S
C4645 C4644 1.413 . S
C4645 C4649 1.429 . S
C4646 C4644 1.360 . S
C4646 C4647 1.372 . S
C4647 H4642 0.928 . S
C4647 C4646 1.372 . S
C4647 C4648 1.404 . S
C4648 C4647 1.404 . S
C4648 C4649 1.391 . S
C4649 H4643 0.930 . S
C4649 C4645 1.429 . S
C4649 C4648 1.391 . S
H4650 C4653 0.931 . S
H4651 C4656 0.928 . S
H4652 C4658 0.930 . S
C4653 H4650 0.931 . S
C4653 C4654 1.413 . S
C4653 C4655 1.360 . S
C4654 C4653 1.413 . S
C4654 C4658 1.429 . S
C4655 C4653 1.360 . S
C4655 C4656 1.372 . S
C4656 H4651 0.928 . S
C4656 C4655 1.372 . S
C4656 C4657 1.404 . S
C4657 C4656 1.404 . S
C4657 C4658 1.391 . S
C4658 H4652 0.930 . S
C4658 C4654 1.429 . S
C4658 C4657 1.391 . S
H4659 C4662 0.931 . S
H4660 C4665 0.928 . S
H4661 C4667 0.930 . S
C4662 H4659 0.931 . S
C4662 C4663 1.413 . S
C4662 C4664 1.360 . S
C4663 C4662 1.413 . S
C4663 C4667 1.429 . S
C4664 C4662 1.360 . S
C4664 C4665 1.372 . S
C4665 H4660 0.928 . S
C4665 C4664 1.372 . S
C4665 C4666 1.404 . S
C4666 C4665 1.404 . S
C4666 C4667 1.391 . S
C4667 H4661 0.930 . S
C4667 C4663 1.429 . S
C4667 C4666 1.391 . S
H4668 C4671 0.931 . S
H4669 C4674 0.928 . S
H4670 C4676 0.930 . S
C4671 H4668 0.931 . S
C4671 C4672 1.413 . S
C4671 C4673 1.360 . S
C4672 C4671 1.413 . S
C4672 C4676 1.429 . S
C4673 C4671 1.360 . S
C4673 C4674 1.372 . S
C4674 H4669 0.928 . S
C4674 C4673 1.372 . S
C4674 C4675 1.404 . S
C4675 C4674 1.404 . S
C4675 C4676 1.391 . S
C4676 H4670 0.930 . S
C4676 C4672 1.429 . S
C4676 C4675 1.391 . S
H4677 C4680 0.931 . S
H4678 C4683 0.928 . S
H4679 C4685 0.930 . S
C4680 H4677 0.931 . S
C4680 C4681 1.413 . S
C4680 C4682 1.360 . S
C4681 C4680 1.413 . S
C4681 C4685 1.429 . S
C4682 C4680 1.360 . S
C4682 C4683 1.372 . S
C4683 H4678 0.928 . S
C4683 C4682 1.372 . S
C4683 C4684 1.404 . S
C4684 C4683 1.404 . S
C4684 C4685 1.391 . S
C4685 H4679 0.930 . S
C4685 C4681 1.429 . S
C4685 C4684 1.391 . S
H4686 C4689 0.931 . S
H4687 C4692 0.928 . S
H4688 C4694 0.930 . S
C4689 H4686 0.931 . S
C4689 C4690 1.413 . S
C4689 C4691 1.360 . S
C4690 C4689 1.413 . S
C4690 C4694 1.429 . S
C4691 C4689 1.360 . S
C4691 C4692 1.372 . S
C4692 H4687 0.928 . S
C4692 C4691 1.372 . S
C4692 C4693 1.404 . S
C4693 C4692 1.404 . S
C4693 C4694 1.391 . S
C4694 H4688 0.930 . S
C4694 C4690 1.429 . S
C4694 C4693 1.391 . S
H4695 C4698 0.931 . S
H4696 C4701 0.928 . S
H4697 C4703 0.930 . S
C4698 H4695 0.931 . S
C4698 C4699 1.413 . S
C4698 C4700 1.360 . S
C4699 C4698 1.413 . S
C4699 C4703 1.429 . S
C4700 C4698 1.360 . S
C4700 C4701 1.372 . S
C4701 H4696 0.928 . S
C4701 C4700 1.372 . S
C4701 C4702 1.404 . S
C4702 C4701 1.404 . S
C4702 C4703 1.391 . S
C4703 H4697 0.930 . S
C4703 C4699 1.429 . S
C4703 C4702 1.391 . S
C4072 C15 2.113 . S
C4513 C55 2.403 . S
C4090 C95 3.102 . S
C4495 C135 2.860 . S
C4126 C175 2.113 . S
C215 C4531 2.860 . S
C4108 C255 3.102 . S
C4549 C295 2.403 . S
C4693 C335 3.122 . S
C375 C4639 3.102 . S
C4702 C415 3.219 . S
C455 C4684 2.113 . S
C4657 C495 3.122 . S
C4234 C535 2.113 . S
C4243 C575 3.219 . S
C615 C4216 3.102 . S
C655 C4612 2.860 1_554 S
C4162 C695 2.860 1_554 S
C4567 C735 3.122 . S
C4144 C775 2.403 . S
C815 C4153 3.219 . S
C4630 C855 2.403 . S
C4603 C895 3.122 . S
C935 C4621 3.219 . S
C975 C3856 3.105 . S
C1015 C4297 2.858 . S
C3874 C1055 2.148 . S
C1095 C4279 2.418 . S
C3910 C1135 3.105 . S
C1175 C4315 2.418 . S
C3892 C1215 2.148 . S
C4333 C1255 2.858 . S
C1295 C4477 3.201 . S
C4423 C1335 2.148 . S
C1375 C4486 3.166 . S
C4468 C1415 3.105 . S
C4441 C1455 3.201 . S
C1495 C4018 3.105 . S
C1535 C4027 3.166 . S
C4000 C1575 2.148 . S
C1615 C4396 2.418 . S
C3946 C1655 2.418 . S
C1695 C4351 3.201 . S
C3928 C1735 2.858 . S
C1775 C3937 3.166 . S
C4414 C1815 2.858 . S
C4387 C1855 3.201 . S
C4405 C1895 3.166 . S
C1935 C4504 2.113 . S
C4081 C1975 2.403 . S
C4522 C2015 3.102 . S
C4063 C2055 2.860 . S
C2095 C4558 2.113 . S
C4099 C2135 2.860 . S
C4540 C2175 3.102 . S
C4117 C2215 2.403 . S
C2255 C4261 3.122 . S
C4207 C2295 3.102 . S
C4270 C2335 3.219 . S
C2375 C4252 2.113 . S
C2415 C4225 3.122 . S
C2455 C4666 2.113 . S
C2495 C4675 3.219 . S
C4648 C2535 3.102 . S
C2575 C4180 2.860 . S
C4594 C2615 2.860 . S
C4135 C2655 3.122 . S
C4576 C2695 2.403 . S
C2735 C4585 3.219 . S
C2775 C4198 2.403 . S
C4171 C2815 3.122 . S
C2855 C4189 3.219 . S
C2895 C4288 3.105 . S
C3865 C2935 2.858 . S
C4306 C2975 2.148 . S
C3015 C3847 2.418 . S
C4342 C3055 3.105 . S
C3883 C3095 2.418 . S
C3135 C4324 2.148 . S
C3175 C3901 2.858 . S
C4045 C3215 3.201 . S
C3255 C3991 2.148 . S
C4054 C3295 3.166 . S
C4036 C3335 3.105 . S
C3375 C4009 3.201 . S
C3415 C4450 3.105 . S
C4459 C3455 3.166 . S
C3495 C4432 2.148 . S
C3964 C3535 2.418 . S
C4378 C3575 2.418 . S
C3615 C3919 3.201 . S
C3655 C4360 2.858 1_554 S
C3695 C4369 3.166 . S
C3735 C3982 2.858 1_556 S
C3775 C3955 3.201 . S
C3973 C3815 3.166 . S
C3925 C2 2.471 . S
C3935 C42 2.905 . S
C82 C3943 3.257 . S
C122 C3916 2.896 . S
C162 C3979 2.471 . S
C3952 C202 2.896 . S
C3961 C242 3.257 . S
C282 C3971 2.905 . S
C322 C3871 3.322 . S
C362 C3844 3.257 . S
C402 C3853 3.527 . S
C3862 C442 2.471 . S
C482 C3889 3.322 . S
C522 C3898 2.471 . S
C562 C3907 3.527 . S
C602 C3880 3.257 . S
C4006 C642 2.896 . S
C682 C4474 2.896 . S
C3988 C722 3.322 . S
C4484 C762 2.905 . S
C802 C4465 3.527 . S
C842 C4457 2.905 . S
C4429 C882 3.322 . S
C4447 C922 3.527 . S
C4141 C962 3.528 . S
C4150 C1002 2.666 . S
C4159 C1042 2.720 . S
C1082 C4132 3.192 . S
C1122 C4195 3.528 . S
C4168 C1162 3.192 . S
C1202 C4177 2.720 . S
C4186 C1242 2.666 . S
C1282 C4087 3.255 . S
C4060 C1322 2.720 . S
C1362 C4069 3.624 . S
C4078 C1402 3.528 . S
C4105 C1442 3.255 . S
C1482 C4114 3.528 . S
C4123 C1522 3.624 . S
C4096 C1562 2.720 . S
C4222 C1602 3.192 . S
C4690 C1642 3.192 . S
C4204 C1682 3.255 . S
C1722 C4699 2.666 . S
C1762 C4681 3.624 . S
C4672 C1802 2.666 . S
C4645 C1842 3.255 . S
C4663 C1882 3.624 . S
C1922 C4357 2.471 . S
C4367 C1962 2.905 . S
C2002 C4375 3.257 . S
C4348 C2042 2.896 . S
C2082 C4411 2.471 . S
C2122 C4384 2.896 . S
C2162 C4393 3.257 . S
C2202 C4403 2.905 . S
C2242 C4303 3.322 . S
C4276 C2282 3.257 . S
C4285 C2322 3.527 . S
C2362 C4294 2.471 . S
C2402 C4321 3.322 . S
C2442 C4330 2.471 . S
C2482 C4339 3.527 . S
C2522 C4312 3.257 . S
C4438 C2562 2.896 . S
C4042 C2602 2.896 . S
C4420 C2642 3.322 . S
C4052 C2682 2.905 . S
C4033 C2722 3.527 . S
C4025 C2762 2.905 . S
C2802 C3997 3.322 . S
C4015 C2842 3.527 . S
C2882 C4573 3.528 . S
C2922 C4582 2.666 . S
C4591 C2962 2.720 . S
C3002 C4564 3.192 . S
C4627 C3042 3.528 . S
C3082 C4600 3.192 . S
C3122 C4609 2.720 . S
C4618 C3162 2.666 . S
C4519 C3202 3.255 . S
C4492 C3242 2.720 . S
C4501 C3282 3.624 . S
C4510 C3322 3.528 . S
C3362 C4537 3.255 . S
C4546 C3402 3.528 . S
C3442 C4555 3.624 . S
C3482 C4528 2.720 . S
C3522 C4654 3.192 . S
C3562 C4258 3.192 . S
C3602 C4636 3.255 . S
C4267 C3642 2.666 . S
C3682 C4249 3.624 . S
C3722 C4240 2.666 . S
C3762 C4213 3.255 . S
C4231 C3802 3.624 . S
C21 C3845 2.573 . S
C61 C3854 2.707 . S
C101 C3863 3.018 . S
C3872 C141 2.708 . S
C3881 C181 2.573 . S
C221 C3890 2.708 . S
C261 C3899 3.018 . S
C301 C3908 2.707 . S
C3917 C341 3.423 . S
C3926 C381 3.018 . S
C421 C3934 2.913 . S
C3944 C461 2.573 . S
C501 C3953 3.423 . S
C541 C3962 2.573 . S
C581 C3970 2.913 . S
C621 C3980 3.018 . S
C661 C3989 2.708 . S
C701 C3998 2.708 . S
C4007 C741 3.423 . S
C4016 C781 2.707 . S
C4024 C821 2.913 . S
C4034 C861 2.707 . S
C901 C4043 3.423 . S
C4051 C941 2.913 . S
C981 C4061 3.318 . S
C1021 C4070 2.450 . S
C1061 C4079 2.821 . S
C4088 C1101 2.962 . S
C1141 C4097 3.318 . S
C4106 C1181 2.962 . S
C1221 C4115 2.821 . S
C1261 C4124 2.450 . S
C4133 C1301 2.613 . S
C1341 C4142 2.821 . S
C4151 C1381 3.734 . S
C1421 C4160 3.318 . S
C4169 C1461 2.613 . S
C4178 C1501 3.318 . S
C4187 C1541 3.734 . S
C1581 C4196 2.821 . S
C1621 C4205 2.962 . S
C1661 C4214 2.962 . S
C1701 C4223 2.613 . S
C1741 C4232 2.450 . S
C1781 C4241 3.734 . S
C4250 C1821 2.450 . S
C1861 C4259 2.614 . S
C4268 C1901 3.734 . S
C1941 C4277 2.573 . S
C4286 C1981 2.707 . S
C4295 C2021 3.018 . S
C4304 C2061 2.708 . S
C2101 C4313 2.573 . S
C2141 C4322 2.708 . S
C4331 C2181 3.018 . S
C4340 C2221 2.707 . S
C2261 C4349 3.423 . S
C2301 C4358 3.018 . S
C2341 C4366 2.913 . S
C2381 C4376 2.573 . S
C2421 C4385 3.423 . S
C4394 C2461 2.573 . S
C4402 C2501 2.913 . S
C4412 C2541 3.018 . S
C4421 C2581 2.708 . S
C2621 C4430 2.708 . S
C2661 C4439 3.423 . S
C4448 C2701 2.707 . S
C2741 C4456 2.913 . S
C4466 C2781 2.707 . S
C4475 C2821 3.423 . S
C4483 C2861 2.913 . S
C2901 C4493 3.318 . S
C2941 C4502 2.450 . S
C2981 C4511 2.821 . S
C3021 C4520 2.962 . S
C4529 C3061 3.318 . S
C4538 C3101 2.962 . S
C4547 C3141 2.821 . S
C3181 C4556 2.450 . S
C3221 C4565 2.613 . S
C4574 C3261 2.821 . S
C4583 C3301 3.734 . S
C4592 C3341 3.318 . S
C4601 C3381 2.613 . S
C4610 C3421 3.318 . S
C4619 C3461 3.734 . S
C4628 C3501 2.821 . S
C4637 C3541 2.962 . S
C4646 C3581 2.962 . S
C4655 C3621 2.613 . S
C3661 C4664 2.450 . S
C4673 C3701 3.734 . S
C3741 C4682 2.450 . S
C4691 C3781 2.614 . S
C4700 C3821 3.734 . S
