# Generated by pormake.
# Topology pto, (3,4)-cn, num edge types: 1
# Building blocks:
#     Node 0, Type 0, BuildingBlock: KAKCAD_clean_linker_0, # of connection points: 3
#     Node 1, Type 0, BuildingBlock: KAKCAD_clean_linker_0, # of connection points: 3
#     Node 2, Type 0, BuildingBlock: KAKCAD_clean_linker_0, # of connection points: 3
#     Node 3, Type 0, BuildingBlock: KAKCAD_clean_linker_0, # of connection points: 3
#     Node 4, Type 0, BuildingBlock: KAKCAD_clean_linker_0, # of connection points: 3
#     Node 5, Type 0, BuildingBlock: KAKCAD_clean_linker_0, # of connection points: 3
#     Node 6, Type 0, BuildingBlock: KAKCAD_clean_linker_0, # of connection points: 3
#     Node 7, Type 0, BuildingBlock: KAKCAD_clean_linker_0, # of connection points: 3
#     Node 8, Type 1, BuildingBlock: KOZSID_clean_sbu_0, # of connection points: 4
#     Node 9, Type 1, BuildingBlock: KOZSID_clean_sbu_0, # of connection points: 4
#     Node 10, Type 1, BuildingBlock: KOZSID_clean_sbu_0, # of connection points: 4
#     Node 11, Type 1, BuildingBlock: KOZSID_clean_sbu_0, # of connection points: 4
#     Node 12, Type 1, BuildingBlock: KOZSID_clean_sbu_0, # of connection points: 4
#     Node 13, Type 1, BuildingBlock: KOZSID_clean_sbu_0, # of connection points: 4
#     Edge 14, Type (0, 1), BuildingBlock: ZUJKAS_clean_linker_0, # of connection points: 2
#     Edge 15, Type (0, 1), BuildingBlock: ZUJKAS_clean_linker_0, # of connection points: 2
#     Edge 16, Type (0, 1), BuildingBlock: ZUJKAS_clean_linker_0, # of connection points: 2
#     Edge 17, Type (0, 1), BuildingBlock: ZUJKAS_clean_linker_0, # of connection points: 2
#     Edge 18, Type (0, 1), BuildingBlock: ZUJKAS_clean_linker_0, # of connection points: 2
#     Edge 19, Type (0, 1), BuildingBlock: ZUJKAS_clean_linker_0, # of connection points: 2
#     Edge 20, Type (0, 1), BuildingBlock: ZUJKAS_clean_linker_0, # of connection points: 2
#     Edge 21, Type (0, 1), BuildingBlock: ZUJKAS_clean_linker_0, # of connection points: 2
#     Edge 22, Type (0, 1), BuildingBlock: ZUJKAS_clean_linker_0, # of connection points: 2
#     Edge 23, Type (0, 1), BuildingBlock: ZUJKAS_clean_linker_0, # of connection points: 2
#     Edge 24, Type (0, 1), BuildingBlock: ZUJKAS_clean_linker_0, # of connection points: 2
#     Edge 25, Type (0, 1), BuildingBlock: ZUJKAS_clean_linker_0, # of connection points: 2
#     Edge 26, Type (0, 1), BuildingBlock: ZUJKAS_clean_linker_0, # of connection points: 2
#     Edge 27, Type (0, 1), BuildingBlock: ZUJKAS_clean_linker_0, # of connection points: 2
#     Edge 28, Type (0, 1), BuildingBlock: ZUJKAS_clean_linker_0, # of connection points: 2
#     Edge 29, Type (0, 1), BuildingBlock: ZUJKAS_clean_linker_0, # of connection points: 2
#     Edge 30, Type (0, 1), BuildingBlock: ZUJKAS_clean_linker_0, # of connection points: 2
#     Edge 31, Type (0, 1), BuildingBlock: ZUJKAS_clean_linker_0, # of connection points: 2
#     Edge 32, Type (0, 1), BuildingBlock: ZUJKAS_clean_linker_0, # of connection points: 2
#     Edge 33, Type (0, 1), BuildingBlock: ZUJKAS_clean_linker_0, # of connection points: 2
#     Edge 34, Type (0, 1), BuildingBlock: ZUJKAS_clean_linker_0, # of connection points: 2
#     Edge 35, Type (0, 1), BuildingBlock: ZUJKAS_clean_linker_0, # of connection points: 2
#     Edge 36, Type (0, 1), BuildingBlock: ZUJKAS_clean_linker_0, # of connection points: 2
#     Edge 37, Type (0, 1), BuildingBlock: ZUJKAS_clean_linker_0, # of connection points: 2
# Relax obj value: 0.000
# Max RMSD: 0.020
# Mean RMSD: 0.008
data_MOF--net-pto--node1-KOZSID_clean_sbu_0--node2-KAKCAD_clean_linker_0--edge1-ZUJKAS_clean_linker_0
_symmetry_space_group_name_H-M    P1
_symmetry_Int_Tables_number       1
_symmetry_cell_setting            triclinic
loop_
_symmetry_equiv_pos_as_xyz
'x, y, z'
_cell_length_a     57.487304
_cell_length_b     77.715731
_cell_length_c     67.673981
_cell_angle_alpha  88.449832
_cell_angle_beta   88.612572
_cell_angle_gamma 92.470203
loop_
_atom_site_label
_atom_site_type_symbol
_atom_site_fract_x
_atom_site_fract_y
_atom_site_fract_z
_atom_type_partial_charge
C0 C 0.27605 0.19938 0.34484 0.0
C1 C 0.25455 0.19554 0.35473 0.0
C2 C 0.27939 0.21425 0.33286 0.0
C3 C 0.2612 0.22557 0.33014 0.0
C4 C 0.23967 0.22167 0.33992 0.0
C5 C 0.23646 0.20696 0.35217 0.0
C6 C 0.26458 0.24127 0.31703 0.0
C7 C 0.27852 0.241 0.29968 0.0
C8 C 0.28162 0.25567 0.28714 0.0
C9 C 0.27015 0.27068 0.29188 0.0
C10 C 0.25596 0.2712 0.30904 0.0
C11 C 0.25361 0.25653 0.32165 0.0
C12 C 0.24311 0.2869 0.31357 0.0
C13 C 0.25363 0.30345 0.31035 0.0
C14 C 0.21997 0.2854 0.32085 0.0
C15 C 0.2076 0.30007 0.32468 0.0
C16 C 0.21802 0.31661 0.32126 0.0
C17 C 0.29669 0.2552 0.26901 0.0
C18 C 0.31817 0.24722 0.26954 0.0
C19 C 0.28972 0.26263 0.25106 0.0
C20 C 0.30387 0.26206 0.23402 0.0
C21 C 0.32532 0.25404 0.23454 0.0
C22 C 0.33231 0.24665 0.25251 0.0
C23 C 0.2412 0.31814 0.31411 0.0
H24 H 0.29033 0.19082 0.34615 0.0
H25 H 0.29633 0.2169 0.32584 0.0
H26 H 0.2251 0.22987 0.33798 0.0
H27 H 0.21977 0.20465 0.35975 0.0
H28 H 0.28651 0.2292 0.29557 0.0
H29 H 0.24341 0.25712 0.33527 0.0
H30 H 0.27218 0.28195 0.2821 0.0
H31 H 0.27153 0.30506 0.30504 0.0
H32 H 0.21119 0.27287 0.32317 0.0
H33 H 0.18964 0.29846 0.32988 0.0
H34 H 0.3242 0.2416 0.28321 0.0
H35 H 0.27312 0.26865 0.25009 0.0
H36 H 0.2498 0.33071 0.31156 0.0
H37 H 0.34889 0.24061 0.25349 0.0
H38 H 0.29782 0.26766 0.22035 0.0
C39 C 0.3009 0.78303 0.78735 0.0
C40 C 0.31346 0.76875 0.79337 0.0
C41 C 0.28643 0.7821 0.77108 0.0
C42 C 0.28426 0.76691 0.76033 0.0
C43 C 0.29698 0.75267 0.76623 0.0
C44 C 0.31134 0.75357 0.78258 0.0
C45 C 0.26858 0.76587 0.74317 0.0
C46 C 0.2669 0.78007 0.73004 0.0
C47 C 0.25156 0.77946 0.71419 0.0
C48 C 0.23814 0.76423 0.7113 0.0
C49 C 0.23974 0.74981 0.7241 0.0
C50 C 0.25491 0.7508 0.74005 0.0
C51 C 0.22536 0.73378 0.721 0.0
C52 C 0.20197 0.73459 0.71557 0.0
C53 C 0.23491 0.71754 0.72351 0.0
C54 C 0.22139 0.70246 0.72073 0.0
C55 C 0.19798 0.70327 0.71533 0.0
C56 C 0.24926 0.79484 0.70091 0.0
C57 C 0.2493 0.81144 0.7087 0.0
C58 C 0.24671 0.79309 0.68044 0.0
C59 C 0.24412 0.80756 0.66809 0.0
C60 C 0.24413 0.82416 0.6759 0.0
C61 C 0.24686 0.8259 0.69635 0.0
C62 C 0.18846 0.71952 0.71275 0.0
H63 H 0.30232 0.79501 0.79513 0.0
H64 H 0.27669 0.79325 0.76712 0.0
H65 H 0.29594 0.74083 0.75816 0.0
H66 H 0.32054 0.74225 0.78691 0.0
H67 H 0.27785 0.79156 0.73199 0.0
H68 H 0.25555 0.73996 0.7504 0.0
H69 H 0.22629 0.76362 0.6991 0.0
H70 H 0.19398 0.74688 0.71372 0.0
H71 H 0.25294 0.71646 0.72749 0.0
H72 H 0.22921 0.69017 0.72306 0.0
H73 H 0.25094 0.81326 0.72442 0.0
H74 H 0.24685 0.78053 0.6739 0.0
H75 H 0.17057 0.72062 0.70838 0.0
H76 H 0.24729 0.83848 0.70286 0.0
H77 H 0.24183 0.80571 0.65245 0.0
C78 C 0.71224 0.74774 0.25183 0.0
C79 C 0.71108 0.76327 0.24081 0.0
C80 C 0.72646 0.7467 0.26825 0.0
C81 C 0.73995 0.76115 0.27401 0.0
C82 C 0.73889 0.77665 0.26291 0.0
C83 C 0.72459 0.77771 0.24656 0.0
C84 C 0.75501 0.76011 0.29155 0.0
C85 C 0.76779 0.74541 0.29533 0.0
C86 C 0.7821 0.74435 0.31185 0.0
C87 C 0.78364 0.75834 0.32458 0.0
C88 C 0.7712 0.77321 0.32094 0.0
C89 C 0.75679 0.77391 0.3045 0.0
C90 C 0.77355 0.78817 0.33409 0.0
C91 C 0.77393 0.78574 0.35474 0.0
C92 C 0.77566 0.80504 0.32601 0.0
C93 C 0.77812 0.81913 0.33827 0.0
C94 C 0.77855 0.81672 0.35892 0.0
C95 C 0.7957 0.72877 0.31562 0.0
C96 C 0.7859 0.71221 0.31244 0.0
C97 C 0.81862 0.73033 0.32237 0.0
C98 C 0.8314 0.71571 0.32586 0.0
C99 C 0.82167 0.69916 0.32257 0.0
C100 C 0.79874 0.6976 0.31582 0.0
C101 C 0.77639 0.79985 0.36702 0.0
H102 H 0.7023 0.7363 0.24769 0.0
H103 H 0.72668 0.7346 0.27657 0.0
H104 H 0.74926 0.78798 0.26676 0.0
H105 H 0.72394 0.78993 0.23857 0.0
H106 H 0.76712 0.73495 0.28506 0.0
H107 H 0.74659 0.78513 0.302 0.0
H108 H 0.79468 0.7577 0.33731 0.0
H109 H 0.77214 0.77292 0.36145 0.0
H110 H 0.77568 0.80735 0.31015 0.0
H111 H 0.77946 0.83196 0.33156 0.0
H112 H 0.76821 0.71052 0.30746 0.0
H113 H 0.82685 0.74288 0.32474 0.0
H114 H 0.77686 0.79754 0.38285 0.0
H115 H 0.79076 0.68508 0.31288 0.0
H116 H 0.8489 0.71741 0.33128 0.0
C117 C 0.79827 0.21742 0.69775 0.0
C118 C 0.77893 0.20638 0.69419 0.0
C119 C 0.79602 0.23154 0.7099 0.0
C120 C 0.77432 0.23504 0.71861 0.0
C121 C 0.75495 0.22401 0.71491 0.0
C122 C 0.75726 0.2098 0.70292 0.0
C123 C 0.77194 0.25006 0.7316 0.0
C124 C 0.78429 0.26574 0.72708 0.0
C125 C 0.78262 0.27986 0.7395 0.0
C126 C 0.76802 0.27826 0.75648 0.0
C127 C 0.75531 0.26278 0.76114 0.0
C128 C 0.7575 0.24873 0.74869 0.0
C129 C 0.73989 0.26119 0.77909 0.0
C130 C 0.74724 0.26784 0.79713 0.0
C131 C 0.71768 0.25295 0.77831 0.0
C132 C 0.70315 0.25142 0.79518 0.0
C133 C 0.71051 0.25803 0.81323 0.0
C134 C 0.7964 0.29618 0.73488 0.0
C135 C 0.81959 0.29578 0.72785 0.0
C136 C 0.78665 0.31225 0.73766 0.0
C137 C 0.79984 0.32754 0.73367 0.0
C138 C 0.82308 0.32713 0.72678 0.0
C139 C 0.83274 0.31106 0.72382 0.0
C140 C 0.73273 0.26626 0.81401 0.0
H141 H 0.81524 0.21496 0.6914 0.0
H142 H 0.8114 0.23955 0.7127 0.0
H143 H 0.73789 0.22647 0.72108 0.0
H144 H 0.74199 0.20163 0.70021 0.0
H145 H 0.79493 0.26706 0.71365 0.0
H146 H 0.74838 0.23659 0.75263 0.0
H147 H 0.7666 0.28908 0.76614 0.0
H148 H 0.76433 0.27411 0.79826 0.0
H149 H 0.71143 0.24783 0.76459 0.0
H150 H 0.68623 0.24486 0.79413 0.0
H151 H 0.82774 0.28363 0.72574 0.0
H152 H 0.76876 0.31303 0.74283 0.0
H153 H 0.73883 0.27165 0.82764 0.0
H154 H 0.85048 0.31025 0.71829 0.0
H155 H 0.79191 0.33969 0.7363 0.0
C156 C 0.77201 0.80909 0.67692 0.0
C157 C 0.77271 0.82572 0.68464 0.0
C158 C 0.76889 0.79453 0.68946 0.0
C159 C 0.76646 0.79624 0.71003 0.0
C160 C 0.76722 0.81288 0.71774 0.0
C161 C 0.77022 0.82742 0.70521 0.0
C162 C 0.76329 0.78078 0.72346 0.0
C163 C 0.7759 0.766 0.72007 0.0
C164 C 0.77339 0.7515 0.73294 0.0
C165 C 0.75813 0.75195 0.74945 0.0
C166 C 0.74536 0.76661 0.75312 0.0
C167 C 0.74793 0.78088 0.73993 0.0
C168 C 0.72963 0.76714 0.77087 0.0
C169 C 0.71568 0.7526 0.7771 0.0
C170 C 0.72862 0.78221 0.78185 0.0
C171 C 0.71405 0.78273 0.79863 0.0
C172 C 0.70019 0.76817 0.80493 0.0
C173 C 0.78703 0.73601 0.72932 0.0
C174 C 0.78974 0.72983 0.7101 0.0
C175 C 0.79752 0.72734 0.74503 0.0
C176 C 0.81043 0.71284 0.74161 0.0
C177 C 0.81317 0.70666 0.7224 0.0
C178 C 0.80266 0.71532 0.70668 0.0
C179 C 0.70116 0.7531 0.79394 0.0
H180 H 0.77411 0.80728 0.66118 0.0
H181 H 0.76816 0.78192 0.683 0.0
H182 H 0.76571 0.81469 0.73352 0.0
H183 H 0.77036 0.84002 0.71167 0.0
H184 H 0.78826 0.76596 0.70773 0.0
H185 H 0.73764 0.79203 0.74233 0.0
H186 H 0.7563 0.74088 0.75954 0.0
H187 H 0.71583 0.74084 0.76888 0.0
H188 H 0.73933 0.79359 0.77763 0.0
H189 H 0.71354 0.79463 0.80657 0.0
H190 H 0.78161 0.73607 0.69772 0.0
H191 H 0.7961 0.73194 0.75996 0.0
H192 H 0.69092 0.74159 0.79847 0.0
H193 H 0.80416 0.71075 0.69174 0.0
H194 H 0.81862 0.70665 0.754 0.0
C195 C 0.70816 0.24531 0.26551 0.0
C196 C 0.71559 0.2528 0.24716 0.0
C197 C 0.72237 0.24645 0.28194 0.0
C198 C 0.74436 0.2551 0.2804 0.0
C199 C 0.75177 0.26261 0.26205 0.0
C200 C 0.73755 0.26148 0.24564 0.0
C201 C 0.75959 0.25622 0.29783 0.0
C202 C 0.76165 0.24186 0.31063 0.0
C203 C 0.77612 0.24271 0.32705 0.0
C204 C 0.78877 0.25819 0.33051 0.0
C205 C 0.78704 0.27269 0.31782 0.0
C206 C 0.77228 0.27158 0.3016 0.0
C207 C 0.80082 0.28893 0.32135 0.0
C208 C 0.80367 0.29489 0.34062 0.0
C209 C 0.8114 0.29854 0.3054 0.0
C210 C 0.82446 0.31374 0.30863 0.0
C211 C 0.82737 0.31966 0.32789 0.0
C212 C 0.77818 0.22736 0.34044 0.0
C213 C 0.75844 0.21677 0.34575 0.0
C214 C 0.79988 0.22307 0.34787 0.0
C215 C 0.80179 0.20854 0.36027 0.0
C216 C 0.78207 0.1979 0.36549 0.0
C217 C 0.76036 0.20222 0.35808 0.0
C218 C 0.81684 0.31006 0.34385 0.0
H219 H 0.69119 0.23875 0.26726 0.0
H220 H 0.71599 0.24075 0.29593 0.0
H221 H 0.76876 0.26912 0.26028 0.0
H222 H 0.74395 0.26716 0.23165 0.0
H223 H 0.75245 0.22982 0.30747 0.0
H224 H 0.77032 0.28283 0.29207 0.0
H225 H 0.80007 0.25893 0.34306 0.0
H226 H 0.79548 0.28795 0.35321 0.0
H227 H 0.80993 0.29418 0.2904 0.0
H228 H 0.83266 0.32069 0.29604 0.0
H229 H 0.74141 0.2198 0.34047 0.0
H230 H 0.8155 0.23081 0.34391 0.0
H231 H 0.81853 0.31441 0.35885 0.0
H232 H 0.74484 0.19422 0.36158 0.0
H233 H 0.81874 0.20572 0.36588 0.0
C234 C 0.29569 0.26509 0.80131 0.0
C235 C 0.31792 0.25831 0.7995 0.0
C236 C 0.2814 0.26625 0.78495 0.0
C237 C 0.28893 0.26058 0.76642 0.0
C238 C 0.31112 0.25377 0.76459 0.0
C239 C 0.32547 0.25269 0.78092 0.0
C240 C 0.2736 0.26166 0.7491 0.0
C241 C 0.26112 0.27651 0.74542 0.0
C242 C 0.24627 0.27756 0.72928 0.0
C243 C 0.24402 0.2635 0.71673 0.0
C244 C 0.25634 0.24851 0.72018 0.0
C245 C 0.27115 0.24775 0.73638 0.0
C246 C 0.25341 0.23352 0.70713 0.0
C247 C 0.23122 0.22825 0.70065 0.0
C248 C 0.27272 0.22421 0.70128 0.0
C249 C 0.2699 0.20991 0.68933 0.0
C250 C 0.2477 0.20458 0.68295 0.0
C251 C 0.23294 0.29328 0.72566 0.0
C252 C 0.22229 0.30155 0.74151 0.0
C253 C 0.23064 0.30009 0.70638 0.0
C254 C 0.21794 0.31479 0.70302 0.0
C255 C 0.20727 0.32303 0.71887 0.0
C256 C 0.20962 0.31624 0.73816 0.0
C257 C 0.22841 0.21396 0.6887 0.0
H258 H 0.28914 0.26926 0.81545 0.0
H259 H 0.26426 0.27131 0.7869 0.0
H260 H 0.31752 0.2495 0.75044 0.0
H261 H 0.34261 0.24765 0.77892 0.0
H262 H 0.26334 0.28742 0.75494 0.0
H263 H 0.28024 0.23608 0.73947 0.0
H264 H 0.23253 0.26417 0.7043 0.0
H265 H 0.21593 0.23497 0.70515 0.0
H266 H 0.29008 0.22808 0.70577 0.0
H267 H 0.28517 0.20313 0.68492 0.0
H268 H 0.2234 0.29648 0.75651 0.0
H269 H 0.23892 0.29418 0.69388 0.0
H270 H 0.21103 0.21006 0.68428 0.0
H271 H 0.2013 0.32211 0.75066 0.0
H272 H 0.21673 0.31983 0.68802 0.0
C273 C 0.25094 0.81763 0.32619 0.0
C274 C 0.24747 0.81552 0.34674 0.0
C275 C 0.25364 0.80333 0.31439 0.0
C276 C 0.25318 0.78659 0.32289 0.0
C277 C 0.24968 0.78452 0.34348 0.0
C278 C 0.24675 0.79881 0.35526 0.0
C279 C 0.25648 0.77138 0.31034 0.0
C280 C 0.27248 0.77239 0.29426 0.0
C281 C 0.27562 0.75818 0.28225 0.0
C282 C 0.26285 0.74268 0.28667 0.0
C283 C 0.2467 0.74136 0.30265 0.0
C284 C 0.24358 0.75583 0.31432 0.0
C285 C 0.23283 0.72499 0.30694 0.0
C286 C 0.22428 0.715 0.29145 0.0
C287 C 0.22795 0.71924 0.32656 0.0
C288 C 0.21475 0.70395 0.33057 0.0
C289 C 0.20633 0.69398 0.31506 0.0
C290 C 0.29188 0.75965 0.26481 0.0
C291 C 0.2922 0.7743 0.25213 0.0
C292 C 0.30685 0.74635 0.26049 0.0
C293 C 0.32169 0.74761 0.24378 0.0
C294 C 0.32182 0.76218 0.23099 0.0
C295 C 0.30697 0.77554 0.23541 0.0
C296 C 0.21129 0.69965 0.29546 0.0
H297 H 0.25125 0.83034 0.31919 0.0
H298 H 0.25584 0.80542 0.29855 0.0
H299 H 0.2496 0.77186 0.35059 0.0
H300 H 0.24438 0.79682 0.37109 0.0
H301 H 0.28288 0.78417 0.29127 0.0
H302 H 0.23059 0.75513 0.32621 0.0
H303 H 0.26537 0.73166 0.27752 0.0
H304 H 0.22728 0.71918 0.27617 0.0
H305 H 0.23455 0.72644 0.33887 0.0
H306 H 0.2114 0.6998 0.34582 0.0
H307 H 0.28073 0.7847 0.25496 0.0
H308 H 0.30716 0.73497 0.27006 0.0
H309 H 0.20473 0.69236 0.2832 0.0
H310 H 0.30683 0.78701 0.22597 0.0
H311 H 0.33278 0.73704 0.24071 0.0
C312 C 0.05272 0.5318 0.35756 0.0
C313 C 0.06203 0.5367 0.37541 0.0
C314 C 0.05032 0.52704 0.38988 0.0
C315 C 0.03476 0.51673 0.38008 0.0
N316 N 0.03587 0.51914 0.36021 0.0
Co317 Co 0.01703 0.50631 0.34034 0.0
N318 N 0.99854 0.49313 0.36173 0.0
C319 C 1.0 0.49521 0.38145 0.0
C320 C 0.98464 0.48471 0.39249 0.0
C321 C 0.97268 0.47529 0.37904 0.0
C322 C 0.98164 0.48052 0.3605 0.0
N323 N 0.99891 0.49288 0.32045 0.0
C324 C 0.98282 0.47969 0.32312 0.0
C325 C 0.97592 0.47309 0.3052 0.0
C326 C 0.98794 0.48248 0.29071 0.0
C327 C 0.00161 0.49412 0.30053 0.0
N328 N 0.0348 0.52006 0.31894 0.0
C329 C 0.03175 0.51915 0.29923 0.0
C330 C 0.04514 0.53102 0.2882 0.0
C331 C 0.05734 0.54023 0.30166 0.0
C332 C 0.05083 0.53329 0.32022 0.0
N333 N 0.04058 0.48834 0.34004 0.0
C334 C 0.07213 0.46154 0.33912 0.0
C335 C 0.06678 0.47068 0.32188 0.0
C336 C 0.05112 0.48388 0.32266 0.0
C337 C 0.06183 0.46637 0.35693 0.0
C338 C 0.04631 0.47973 0.35707 0.0
N339 N 0.9935 0.52428 0.34058 0.0
C340 C 0.96705 0.54227 0.3231 0.0
C341 C 0.96232 0.55136 0.34017 0.0
C342 C 0.97298 0.54629 0.35761 0.0
C343 C 0.98827 0.53277 0.35752 0.0
C344 C 0.98255 0.52895 0.32362 0.0
H345 H 0.99588 0.5296 0.37127 0.0
H346 H 0.98553 0.52275 0.31003 0.0
H347 H 0.04771 0.49017 0.30894 0.0
H348 H 0.03896 0.48271 0.3711 0.0
C349 C 0.01744 0.50591 0.38917 0.0
C350 C 0.05993 0.53997 0.3386 0.0
C351 C 0.97398 0.47275 0.34225 0.0
C352 C 0.0166 0.50671 0.29148 0.0
H353 H 0.07558 0.54647 0.37776 0.0
H354 H 0.05246 0.52778 0.40568 0.0
H355 H 0.98279 0.48369 0.40844 0.0
H356 H 0.95918 0.46546 0.38251 0.0
H357 H 0.96361 0.46248 0.30278 0.0
H358 H 0.9869 0.48097 0.2749 0.0
H359 H 0.04584 0.53283 0.27228 0.0
H360 H 0.06946 0.55097 0.29814 0.0
H361 H 0.07467 0.46771 0.30775 0.0
H362 H 0.06527 0.45964 0.3707 0.0
H363 H 0.95882 0.54537 0.3093 0.0
H364 H 0.97003 0.55294 0.37124 0.0
C365 C 0.04627 0.54074 0.71857 0.0
C366 C 0.05512 0.54587 0.7365 0.0
C367 C 0.04321 0.53628 0.75091 0.0
C368 C 0.02794 0.52583 0.741 0.0
N369 N 0.02952 0.52801 0.72109 0.0
Co370 Co 0.01071 0.51539 0.70101 0.0
N371 N 0.99199 0.50223 0.7223 0.0
C372 C 0.99376 0.50382 0.74208 0.0
C373 C 0.97844 0.49318 0.75297 0.0
C374 C 0.96626 0.48411 0.73937 0.0
C375 C 0.97502 0.4897 0.72088 0.0
N376 N 0.99208 0.50259 0.68094 0.0
C377 C 0.97543 0.48975 0.68347 0.0
C378 C 0.96768 0.48385 0.66549 0.0
C379 C 0.97984 0.49326 0.65109 0.0
C380 C 0.99435 0.50426 0.66102 0.0
N381 N 0.02924 0.52877 0.67974 0.0
C382 C 0.02697 0.52756 0.65997 0.0
C383 C 0.04134 0.53891 0.64908 0.0
C384 C 0.05337 0.54808 0.66269 0.0
C385 C 0.04569 0.54169 0.68118 0.0
N386 N 0.03373 0.49702 0.70073 0.0
C387 C 0.06523 0.47015 0.70045 0.0
C388 C 0.05815 0.47783 0.68282 0.0
C389 C 0.04256 0.49114 0.68329 0.0
C390 C 0.05644 0.47629 0.71822 0.0
C391 C 0.04089 0.48959 0.71802 0.0
N392 N 0.98771 0.53376 0.7013 0.0
C393 C 0.96321 0.55341 0.68399 0.0
C394 C 0.95616 0.56058 0.70175 0.0
C395 C 0.96503 0.55396 0.71929 0.0
C396 C 0.98061 0.54069 0.71873 0.0
C397 C 0.97882 0.54011 0.6841 0.0
H398 H 0.98683 0.53638 0.73259 0.0
H399 H 0.98352 0.53524 0.67008 0.0
H400 H 0.03785 0.49639 0.66935 0.0
H401 H 0.03474 0.49351 0.73206 0.0
C402 C 0.01089 0.5147 0.75 0.0
C403 C 0.0538 0.54879 0.69965 0.0
C404 C 0.96712 0.48232 0.70251 0.0
C405 C 0.01066 0.51601 0.65207 0.0
H406 H 0.06852 0.55575 0.73893 0.0
H407 H 0.04506 0.53713 0.76673 0.0
H408 H 0.97666 0.49192 0.76891 0.0
H409 H 0.9527 0.47429 0.74269 0.0
H410 H 0.95483 0.4736 0.66299 0.0
H411 H 0.97855 0.49203 0.63525 0.0
H412 H 0.04256 0.54057 0.63315 0.0
H413 H 0.06604 0.55851 0.65934 0.0
H414 H 0.0647 0.47368 0.66866 0.0
H415 H 0.06113 0.47063 0.73229 0.0
H416 H 0.9566 0.55794 0.67001 0.0
H417 H 0.96037 0.55922 0.73343 0.0
C418 C 0.25093 0.98426 0.54549 0.0
C419 C 0.27212 0.97899 0.55237 0.0
C420 C 0.28904 0.9886 0.54218 0.0
C421 C 0.27728 0.99917 0.52977 0.0
N422 N 0.25383 0.99714 0.53164 0.0
Co423 Co 0.23012 0.00932 0.51581 0.0
N424 N 0.25509 0.02296 0.50018 0.0
C425 C 0.27837 0.02254 0.50261 0.0
C426 C 0.29112 0.03424 0.49086 0.0
C427 C 0.27508 0.04282 0.48039 0.0
C428 C 0.25332 0.03569 0.48624 0.0
N429 N 0.20644 0.02105 0.49952 0.0
C430 C 0.20931 0.03329 0.48492 0.0
C431 C 0.18818 0.03745 0.47693 0.0
C432 C 0.17131 0.02782 0.48718 0.0
C433 C 0.18305 0.01823 0.50064 0.0
N434 N 0.20516 0.99613 0.5319 0.0
C435 C 0.18186 0.99747 0.53048 0.0
C436 C 0.16907 0.98656 0.5432 0.0
C437 C 0.18511 0.9776 0.55326 0.0
C438 C 0.20688 0.98362 0.54609 0.0
N439 N 0.22946 0.02811 0.53515 0.0
C440 C 0.22898 0.05595 0.56106 0.0
C441 C 0.20843 0.04944 0.55288 0.0
C442 C 0.20905 0.03561 0.54013 0.0
C443 C 0.24969 0.04807 0.55631 0.0
C444 C 0.24953 0.0343 0.54348 0.0
N445 N 0.2308 0.99055 0.49649 0.0
C446 C 0.21103 0.96774 0.47892 0.0
C447 C 0.23209 0.96263 0.47071 0.0
C448 C 0.25244 0.97201 0.47534 0.0
C449 C 0.25142 0.98575 0.48817 0.0
C450 C 0.21077 0.98166 0.49155 0.0
H451 H 0.26758 0.99219 0.49126 0.0
H452 H 0.19415 0.98481 0.49732 0.0
H453 H 0.19281 0.0313 0.53438 0.0
H454 H 0.26594 0.02905 0.54036 0.0
C455 C 0.28773 0.01117 0.51627 0.0
C456 C 0.2286 0.97633 0.55226 0.0
C457 C 0.23149 0.04181 0.47863 0.0
C458 C 0.17254 0.00755 0.5155 0.0
H459 H 0.27504 0.96908 0.56347 0.0
H460 H 0.3077 0.98786 0.54352 0.0
H461 H 0.30985 0.03649 0.49024 0.0
H462 H 0.27908 0.05335 0.46993 0.0
H463 H 0.18521 0.04674 0.46516 0.0
H464 H 0.15267 0.02808 0.48537 0.0
H465 H 0.1503 0.9848 0.5444 0.0
H466 H 0.18114 0.9674 0.56417 0.0
H467 H 0.19188 0.05494 0.55635 0.0
H468 H 0.26613 0.05273 0.56208 0.0
H469 H 0.19476 0.96083 0.47601 0.0
H470 H 0.26918 0.96884 0.46908 0.0
C471 C 0.47703 0.78822 0.04631 0.0
C472 C 0.47041 0.80412 0.05284 0.0
C473 C 0.4835 0.81631 0.04219 0.0
C474 C 0.49739 0.80722 0.02991 0.0
N475 N 0.49376 0.78993 0.03182 0.0
Co476 Co 0.51131 0.77187 0.0178 0.0
N477 N 0.53143 0.78984 0.00294 0.0
C478 C 0.53047 0.80714 0.00415 0.0
C479 C 0.54599 0.81618 0.99169 0.0
C480 C 0.55734 0.80393 0.98167 0.0
C481 C 0.54798 0.78807 0.98861 0.0
N482 N 0.52917 0.75379 0.00412 0.0
C483 C 0.54627 0.75547 0.98995 0.0
C484 C 0.5536 0.73954 0.98411 0.0
C485 C 0.54061 0.72737 0.99488 0.0
C486 C 0.52611 0.73649 0.0066 0.0
N487 N 0.49085 0.7539 0.03233 0.0
C488 C 0.49115 0.73662 0.03048 0.0
C489 C 0.47506 0.72759 0.04242 0.0
C490 C 0.46396 0.73982 0.05269 0.0
C491 C 0.47408 0.75565 0.04646 0.0
N492 N 0.48896 0.77221 0.99586 0.0
C493 C 0.45939 0.77279 0.96323 0.0
C494 C 0.46705 0.75726 0.97099 0.0
C495 C 0.48158 0.75726 0.98721 0.0
C496 C 0.46635 0.788 0.97234 0.0
C497 C 0.48106 0.78743 0.98848 0.0
N498 N 0.53367 0.77152 0.03972 0.0
C499 C 0.55375 0.75576 0.06495 0.0
C500 C 0.56377 0.77101 0.07199 0.0
C501 C 0.55878 0.78651 0.06241 0.0
C502 C 0.54379 0.78647 0.04646 0.0
C503 C 0.53896 0.7563 0.0489 0.0
H504 H 0.54047 0.79872 0.03998 0.0
H505 H 0.53192 0.74423 0.0443 0.0
H506 H 0.48675 0.745 0.99236 0.0
H507 H 0.48602 0.79949 0.99454 0.0
C508 C 0.51448 0.81453 0.01687 0.0
C509 C 0.46777 0.77188 0.05498 0.0
C510 C 0.55504 0.77175 0.98078 0.0
C511 C 0.50806 0.7292 0.01868 0.0
H512 H 0.45779 0.80666 0.06439 0.0
H513 H 0.4833 0.83015 0.04357 0.0
H514 H 0.5485 0.83002 0.98991 0.0
H515 H 0.57079 0.80637 0.97035 0.0
H516 H 0.56651 0.73692 0.97282 0.0
H517 H 0.54109 0.71352 0.99377 0.0
H518 H 0.47222 0.71376 0.04391 0.0
H519 H 0.4503 0.73736 0.06382 0.0
H520 H 0.46177 0.7451 0.96464 0.0
H521 H 0.46095 0.80037 0.96678 0.0
H522 H 0.5574 0.7434 0.07169 0.0
H523 H 0.56601 0.79868 0.06742 0.0
C524 C 0.81473 0.98791 0.55518 0.0
C525 C 0.83606 0.98228 0.56133 0.0
C526 C 0.8528 0.99176 0.55074 0.0
C527 C 0.84082 0.00249 0.53868 0.0
N528 N 0.8174 0.00067 0.54113 0.0
Co529 Co 0.79338 0.01257 0.52532 0.0
N530 N 0.81804 0.02562 0.50877 0.0
C531 C 0.84138 0.025 0.51055 0.0
C532 C 0.85388 0.03607 0.4978 0.0
C533 C 0.83756 0.04449 0.48744 0.0
C534 C 0.81598 0.03798 0.49447 0.0
N535 N 0.76934 0.02403 0.50914 0.0
C536 C 0.77196 0.03619 0.49444 0.0
C537 C 0.75068 0.04069 0.48705 0.0
C538 C 0.73395 0.03124 0.4977 0.0
C539 C 0.74592 0.0215 0.51086 0.0
N540 N 0.76871 0.99995 0.54222 0.0
C541 C 0.7454 0.00153 0.54138 0.0
C542 C 0.73291 0.99126 0.55497 0.0
C543 C 0.74917 0.98242 0.56493 0.0
C544 C 0.77072 0.98775 0.55668 0.0
N545 N 0.79352 0.03189 0.54397 0.0
C546 C 0.79381 0.06042 0.56882 0.0
C547 C 0.7731 0.05393 0.56098 0.0
C548 C 0.77333 0.03972 0.54882 0.0
C549 C 0.81433 0.0522 0.56437 0.0
C550 C 0.81381 0.03812 0.55193 0.0
N551 N 0.79323 0.99326 0.50671 0.0
C552 C 0.77232 0.97044 0.49009 0.0
C553 C 0.79306 0.96454 0.48214 0.0
C554 C 0.81385 0.97351 0.48635 0.0
C555 C 0.81354 0.98771 0.49856 0.0
C556 C 0.77279 0.98471 0.50216 0.0
H557 H 0.82999 0.99385 0.50141 0.0
H558 H 0.75639 0.98848 0.50777 0.0
H559 H 0.75693 0.03543 0.54343 0.0
H560 H 0.8301 0.03264 0.54881 0.0
C561 C 0.85101 0.01402 0.52449 0.0
C562 C 0.79242 0.98018 0.56238 0.0
C563 C 0.79405 0.04447 0.48771 0.0
C564 C 0.7357 0.01131 0.52631 0.0
H565 H 0.83928 0.97212 0.57202 0.0
H566 H 0.87148 0.99066 0.55139 0.0
H567 H 0.87262 0.03799 0.49643 0.0
H568 H 0.84112 0.0545 0.4762 0.0
H569 H 0.74758 0.05017 0.4755 0.0
H570 H 0.71526 0.03187 0.49648 0.0
H571 H 0.71417 0.98987 0.5569 0.0
H572 H 0.74555 0.97278 0.57657 0.0
H573 H 0.7567 0.05972 0.5643 0.0
H574 H 0.83081 0.05685 0.57007 0.0
H575 H 0.75571 0.96412 0.48695 0.0
H576 H 0.8304 0.96937 0.48062 0.0
C577 C 0.48173 0.26485 0.05111 0.0
C578 C 0.47458 0.28082 0.05695 0.0
C579 C 0.4878 0.29291 0.04627 0.0
C580 C 0.50224 0.2837 0.0346 0.0
N581 N 0.49892 0.26641 0.03702 0.0
Co582 Co 0.51661 0.24821 0.02342 0.0
N583 N 0.53723 0.26605 0.00884 0.0
C584 C 0.53689 0.28337 0.01043 0.0
C585 C 0.55305 0.29228 0.99847 0.0
C586 C 0.56426 0.27996 0.98846 0.0
C587 C 0.55415 0.26418 0.99488 0.0
N588 N 0.53411 0.23001 0.00962 0.0
C589 C 0.55118 0.23159 0.99541 0.0
C590 C 0.55793 0.21564 0.98917 0.0
C591 C 0.54456 0.20353 0.9997 0.0
C592 C 0.53043 0.21273 0.01167 0.0
N593 N 0.49618 0.23036 0.0382 0.0
C594 C 0.49687 0.21304 0.03695 0.0
C595 C 0.48112 0.20412 0.0493 0.0
C596 C 0.46986 0.21646 0.05926 0.0
C597 C 0.4795 0.23225 0.05238 0.0
N598 N 0.49435 0.2486 0.0014 0.0
C599 C 0.46425 0.2492 0.96905 0.0
C600 C 0.4696 0.23366 0.9784 0.0
C601 C 0.48455 0.23366 0.99438 0.0
C602 C 0.47402 0.26444 0.97638 0.0
C603 C 0.48879 0.26386 0.99244 0.0
N604 N 0.53885 0.24781 0.04544 0.0
C605 C 0.56061 0.23196 0.06951 0.0
C606 C 0.56864 0.24723 0.07797 0.0
C607 C 0.56182 0.26279 0.06962 0.0
C608 C 0.54711 0.26279 0.05351 0.0
C609 C 0.54589 0.23254 0.05339 0.0
H610 H 0.54254 0.27508 0.04795 0.0
H611 H 0.54022 0.22045 0.04779 0.0
H612 H 0.488 0.22139 0.00072 0.0
H613 H 0.49569 0.27593 0.99718 0.0
C614 C 0.52019 0.2909 0.02234 0.0
C615 C 0.47257 0.24862 0.06013 0.0
C616 C 0.56074 0.24785 0.98678 0.0
C617 C 0.51301 0.20553 0.02447 0.0
H618 H 0.46155 0.28348 0.06814 0.0
H619 H 0.48742 0.30677 0.04734 0.0
H620 H 0.55595 0.30611 0.99686 0.0
H621 H 0.57805 0.28232 0.97741 0.0
H622 H 0.57087 0.21302 0.97789 0.0
H623 H 0.54478 0.18968 0.99848 0.0
H624 H 0.47841 0.19029 0.0511 0.0
H625 H 0.4563 0.21412 0.07051 0.0
H626 H 0.4622 0.22149 0.97352 0.0
H627 H 0.47069 0.27682 0.96955 0.0
H628 H 0.56523 0.21954 0.07553 0.0
H629 H 0.56791 0.275 0.0754 0.0
H630 H 0.18887 0.32273 0.35263 0.0
H631 H 0.16503 0.34771 0.35732 0.0
H632 H 0.19259 0.37052 0.30236 0.0
H633 H 0.21655 0.34561 0.2976 0.0
H634 H 0.1905 0.39394 0.33245 0.0
H635 H 0.10639 0.35676 0.32659 0.0
H636 H 0.12493 0.34869 0.34536 0.0
H637 H 0.13395 0.34805 0.31978 0.0
C638 C 0.18979 0.33305 0.34152 0.0
C639 C 0.20447 0.33215 0.32467 0.0
C640 C 0.17614 0.34729 0.34421 0.0
C641 C 0.17674 0.36082 0.33001 0.0
C642 C 0.19183 0.36019 0.31346 0.0
H643 H 0.07449 0.437 0.31099 0.0
H644 H 0.1007 0.41318 0.30938 0.0
C645 C 0.20556 0.34598 0.3108 0.0
C646 C 0.16142 0.37554 0.33223 0.0
H647 H 0.10438 0.38597 0.33522 0.0
C648 C 0.17167 0.39222 0.33308 0.0
C649 C 0.13686 0.37326 0.3328 0.0
C650 C 0.12482 0.35576 0.3309 0.0
C651 C 0.158 0.40671 0.33453 0.0
C652 C 0.13344 0.40438 0.33552 0.0
C653 C 0.12322 0.3877 0.33464 0.0
C654 C 0.11794 0.41911 0.33659 0.0
C655 C 0.16995 0.42438 0.33445 0.0
C656 C 0.1188 0.4303 0.35253 0.0
C657 C 0.10401 0.44411 0.35337 0.0
C658 C 0.08794 0.44689 0.33837 0.0
C659 C 0.08695 0.43547 0.32259 0.0
C660 C 0.10179 0.42175 0.32173 0.0
H661 H 0.18819 0.42422 0.32864 0.0
H662 H 0.16039 0.43372 0.32537 0.0
H663 H 0.17042 0.42902 0.3498 0.0
H664 H 0.13082 0.42831 0.36436 0.0
H665 H 0.10533 0.45269 0.36567 0.0
H666 H 0.15239 0.69651 0.72681 0.0
H667 H 0.12871 0.67006 0.72241 0.0
H668 H 0.18699 0.64718 0.69356 0.0
H669 H 0.21074 0.67369 0.69756 0.0
H670 H 0.11853 0.65302 0.6859 0.0
H671 H 0.16606 0.61214 0.73872 0.0
H672 H 0.16851 0.63538 0.73858 0.0
H673 H 0.18371 0.62375 0.72009 0.0
C674 C 0.16014 0.68593 0.71935 0.0
C675 C 0.18351 0.68722 0.71258 0.0
C676 C 0.14661 0.6708 0.71695 0.0
C677 C 0.15621 0.65663 0.70788 0.0
C678 C 0.17941 0.65789 0.70091 0.0
H679 H 0.09955 0.55273 0.68823 0.0
H680 H 0.12464 0.57915 0.68876 0.0
C681 C 0.19295 0.67303 0.70326 0.0
C682 C 0.14182 0.64059 0.70561 0.0
H683 H 0.13621 0.59835 0.72083 0.0
C684 C 0.12236 0.64105 0.69352 0.0
C685 C 0.14698 0.62501 0.7155 0.0
C686 C 0.16734 0.62396 0.72909 0.0
C687 C 0.10794 0.62628 0.69096 0.0
C688 C 0.11286 0.61076 0.70114 0.0
C689 C 0.13249 0.61026 0.71304 0.0
C690 C 0.09753 0.595 0.70007 0.0
C691 C 0.08779 0.62738 0.67716 0.0
C692 C 0.07409 0.59514 0.7064 0.0
C693 C 0.05983 0.58016 0.70596 0.0
C694 C 0.06885 0.56479 0.69936 0.0
C695 C 0.09229 0.56455 0.69318 0.0
C696 C 0.10656 0.57957 0.69354 0.0
H697 H 0.09048 0.6383 0.66629 0.0
H698 H 0.08518 0.61528 0.66898 0.0
H699 H 0.07164 0.6295 0.68591 0.0
H700 H 0.06692 0.60678 0.71196 0.0
H701 H 0.04181 0.58048 0.71098 0.0
H702 H 0.80651 0.66762 0.33841 0.0
H703 H 0.82917 0.64197 0.34329 0.0
H704 H 0.89062 0.66981 0.31979 0.0
H705 H 0.86807 0.69537 0.3143 0.0
H706 H 0.85609 0.62495 0.31258 0.0
H707 H 0.9097 0.6484 0.37446 0.0
H708 H 0.88257 0.65775 0.36798 0.0
H709 H 0.90854 0.66291 0.35337 0.0
C710 C 0.8248 0.66828 0.33412 0.0
C711 C 0.83545 0.68361 0.32598 0.0
C712 C 0.83773 0.65364 0.33706 0.0
C713 C 0.86158 0.6541 0.33212 0.0
C714 C 0.8723 0.66932 0.32401 0.0
H715 H 0.95903 0.57583 0.3106 0.0
H716 H 0.93322 0.59995 0.30938 0.0
C717 C 0.85937 0.68393 0.32095 0.0
C718 C 0.87515 0.63851 0.33479 0.0
H719 H 0.9207 0.62242 0.35978 0.0
C720 C 0.87011 0.62432 0.32299 0.0
C721 C 0.89328 0.63773 0.34849 0.0
C722 C 0.89881 0.65244 0.36195 0.0
C723 C 0.88325 0.60954 0.32412 0.0
C724 C 0.90187 0.609 0.33735 0.0
C725 C 0.90646 0.62296 0.34958 0.0
C726 C 0.91724 0.59424 0.33819 0.0
C727 C 0.87724 0.5946 0.31112 0.0
C728 C 0.91693 0.58319 0.35492 0.0
C729 C 0.93148 0.56922 0.35559 0.0
C730 C 0.94675 0.56618 0.3396 0.0
C731 C 0.94716 0.57751 0.32299 0.0
C732 C 0.93251 0.59137 0.32229 0.0
H733 H 0.8597 0.59559 0.30475 0.0
H734 H 0.89024 0.59441 0.29875 0.0
H735 H 0.87784 0.58219 0.31959 0.0
H736 H 0.90526 0.58527 0.36735 0.0
H737 H 0.93051 0.56068 0.36853 0.0
H738 H 0.80954 0.35744 0.70974 0.0
H739 H 0.83311 0.38418 0.70388 0.0
H740 H 0.89229 0.36031 0.72909 0.0
H741 H 0.86885 0.33368 0.73537 0.0
H742 H 0.85758 0.40405 0.73278 0.0
H743 H 0.91694 0.38021 0.67467 0.0
H744 H 0.88941 0.36933 0.68154 0.0
H745 H 0.91427 0.36689 0.6968 0.0
C746 C 0.82753 0.3579 0.71415 0.0
C747 C 0.83733 0.34337 0.72295 0.0
C748 C 0.84098 0.37316 0.71068 0.0
C749 C 0.8645 0.37411 0.71578 0.0
C750 C 0.8743 0.35971 0.72466 0.0
H751 H 0.97814 0.45007 0.71405 0.0
H752 H 0.95224 0.42411 0.71678 0.0
C753 C 0.86087 0.34448 0.7282 0.0
C754 C 0.87869 0.39031 0.71239 0.0
H755 H 0.92731 0.40739 0.68795 0.0
C756 C 0.87271 0.40488 0.72286 0.0
C757 C 0.89841 0.39126 0.69945 0.0
C758 C 0.9051 0.37615 0.68732 0.0
C759 C 0.88642 0.42027 0.72123 0.0
C760 C 0.90632 0.42117 0.70846 0.0
C761 C 0.91206 0.40666 0.69775 0.0
C762 C 0.92187 0.43686 0.70646 0.0
C763 C 0.87994 0.43521 0.73374 0.0
C764 C 0.91344 0.45256 0.69951 0.0
C765 C 0.92818 0.46735 0.69808 0.0
C766 C 0.95157 0.46658 0.70333 0.0
C767 C 0.96011 0.45086 0.70993 0.0
C768 C 0.94537 0.43609 0.71145 0.0
H769 H 0.86788 0.43105 0.74621 0.0
H770 H 0.89568 0.4417 0.73984 0.0
H771 H 0.87107 0.44477 0.72445 0.0
H772 H 0.89549 0.45335 0.69521 0.0
H773 H 0.92134 0.47941 0.69296 0.0
H774 H 0.21477 0.17483 0.36026 0.0
H775 H 0.20877 0.14949 0.38208 0.0
H776 H 0.28066 0.1539 0.39881 0.0
H777 H 0.28635 0.18008 0.37838 0.0
H778 H 0.2263 0.11938 0.38164 0.0
H779 H 0.25034 0.14899 0.45204 0.0
H780 H 0.24638 0.16167 0.42978 0.0
H781 H 0.27362 0.15169 0.434 0.0
C782 C 0.22921 0.17071 0.36893 0.0
C783 C 0.25101 0.17972 0.36763 0.0
C784 C 0.2258 0.15605 0.38125 0.0
C785 C 0.24412 0.14995 0.39243 0.0
C786 C 0.26605 0.15862 0.3908 0.0
H787 H 0.25012 0.0458 0.44122 0.0
H788 H 0.25226 0.07201 0.42018 0.0
C789 C 0.26938 0.17346 0.37877 0.0
C790 C 0.24047 0.13423 0.40532 0.0
H791 H 0.24869 0.11817 0.45194 0.0
C792 C 0.23099 0.11917 0.39707 0.0
C793 C 0.24613 0.13399 0.42557 0.0
C794 C 0.25442 0.15001 0.43591 0.0
C795 C 0.22751 0.10381 0.40836 0.0
C796 C 0.23457 0.1033 0.42826 0.0
C797 C 0.24356 0.11846 0.43662 0.0
C798 C 0.2329 0.08723 0.44074 0.0
C799 C 0.21586 0.08845 0.39888 0.0
C800 C 0.22201 0.08717 0.45957 0.0
C801 C 0.2215 0.07238 0.4718 0.0
C802 C 0.23168 0.05737 0.46536 0.0
C803 C 0.24221 0.05729 0.44645 0.0
C804 C 0.24316 0.07218 0.43437 0.0
H805 H 0.20459 0.0925 0.38664 0.0
H806 H 0.22939 0.08033 0.39249 0.0
H807 H 0.20506 0.0805 0.40979 0.0
H808 H 0.21404 0.09861 0.46486 0.0
H809 H 0.21329 0.07268 0.48637 0.0
H810 H 0.35621 0.75501 0.79818 0.0
H811 H 0.3804 0.75595 0.82736 0.0
H812 H 0.32982 0.78624 0.85705 0.0
H813 H 0.30496 0.78464 0.82837 0.0
H814 H 0.40064 0.78347 0.8454 0.0
H815 H 0.3386 0.74814 0.89765 0.0
H816 H 0.33464 0.74873 0.87128 0.0
H817 H 0.32665 0.76664 0.88592 0.0
C818 C 0.35002 0.76164 0.81102 0.0
C819 C 0.32852 0.76964 0.81094 0.0
C820 C 0.36398 0.76229 0.82763 0.0
C821 C 0.35674 0.77092 0.84451 0.0
C822 C 0.33552 0.77918 0.84436 0.0
H823 H 0.42075 0.79147 0.9572 0.0
H824 H 0.39619 0.79168 0.92806 0.0
C825 C 0.32148 0.77846 0.82781 0.0
C826 C 0.37162 0.77152 0.8621 0.0
H827 H 0.37224 0.76137 0.91152 0.0
C828 C 0.39446 0.77858 0.85984 0.0
C829 C 0.36352 0.76512 0.88093 0.0
C830 C 0.3396 0.75658 0.88411 0.0
C831 C 0.40934 0.77959 0.87595 0.0
C832 C 0.40118 0.77326 0.89475 0.0
C833 C 0.37835 0.76629 0.89706 0.0
C834 C 0.41629 0.7734 0.91213 0.0
C835 C 0.43357 0.78759 0.87284 0.0
C836 C 0.43556 0.76296 0.91281 0.0
C837 C 0.44955 0.76278 0.9294 0.0
C838 C 0.44452 0.77307 0.94561 0.0
C839 C 0.42519 0.78354 0.94486 0.0
C840 C 0.41111 0.78362 0.9283 0.0
H841 H 0.43544 0.79514 0.85867 0.0
H842 H 0.4381 0.79618 0.88516 0.0
H843 H 0.44628 0.77725 0.87254 0.0
H844 H 0.43966 0.75483 0.90056 0.0
H845 H 0.46443 0.7547 0.92946 0.0
H846 H 0.75567 0.82206 0.39406 0.0
H847 H 0.75961 0.84713 0.41504 0.0
H848 H 0.81121 0.87044 0.37419 0.0
H849 H 0.80757 0.84538 0.35322 0.0
H850 H 0.79992 0.8613 0.43313 0.0
H851 H 0.76277 0.90766 0.37983 0.0
H852 H 0.75944 0.88461 0.37739 0.0
H853 H 0.78642 0.89581 0.37011 0.0
C854 C 0.76799 0.83245 0.38962 0.0
C855 C 0.7812 0.83176 0.3719 0.0
C856 C 0.77014 0.84679 0.40157 0.0
C857 C 0.78543 0.86073 0.39599 0.0
C858 C 0.79894 0.85997 0.37853 0.0
H859 H 0.81827 0.95976 0.448 0.0
H860 H 0.81764 0.93421 0.42755 0.0
C861 C 0.79681 0.84565 0.36656 0.0
C862 C 0.78732 0.87603 0.40852 0.0
H863 H 0.77874 0.91922 0.40879 0.0
C864 C 0.79524 0.87397 0.42785 0.0
C865 C 0.78126 0.89252 0.40153 0.0
C866 C 0.7718 0.89534 0.38114 0.0
C867 C 0.79751 0.88803 0.44036 0.0
C868 C 0.79132 0.9045 0.43341 0.0
C869 C 0.78353 0.90657 0.41404 0.0
C870 C 0.79226 0.91969 0.44615 0.0
C871 C 0.80686 0.8852 0.46078 0.0
C872 C 0.77807 0.92 0.46328 0.0
C873 C 0.77844 0.93452 0.475 0.0
C874 C 0.79293 0.94905 0.46975 0.0
C875 C 0.80713 0.9487 0.45256 0.0
C876 C 0.8067 0.93416 0.44081 0.0
H877 H 0.81644 0.87312 0.46193 0.0
H878 H 0.81868 0.89616 0.46483 0.0
H879 H 0.79212 0.88421 0.47169 0.0
H880 H 0.76651 0.90906 0.46747 0.0
H881 H 0.76746 0.93432 0.48825 0.0
H882 H 0.72249 0.24961 0.85108 0.0
H883 H 0.69701 0.24698 0.88061 0.0
H884 H 0.63832 0.26007 0.84557 0.0
H885 H 0.66366 0.26279 0.816 0.0
H886 H 0.66993 0.27187 0.89739 0.0
H887 H 0.61478 0.21576 0.87481 0.0
H888 H 0.64214 0.22205 0.86245 0.0
H889 H 0.61635 0.23343 0.85711 0.0
C890 C 0.70417 0.252 0.84967 0.0
C891 C 0.69508 0.25635 0.83117 0.0
C892 C 0.68963 0.25041 0.86654 0.0
C893 C 0.66573 0.25306 0.86522 0.0
C894 C 0.65662 0.25756 0.84683 0.0
H895 H 0.54973 0.25571 0.94897 0.0
H896 H 0.57571 0.25685 0.91953 0.0
C897 C 0.67113 0.25912 0.82995 0.0
C898 C 0.65046 0.25162 0.8832 0.0
H899 H 0.60222 0.23011 0.9035 0.0
C900 C 0.65522 0.26267 0.8988 0.0
C901 C 0.63126 0.23961 0.88495 0.0
C902 C 0.62589 0.22692 0.86903 0.0
C903 C 0.64099 0.26229 0.91597 0.0
C904 C 0.62173 0.25035 0.91767 0.0
C905 C 0.617 0.23925 0.90211 0.0
C906 C 0.60608 0.24934 0.9354 0.0
C907 C 0.64634 0.27494 0.93194 0.0
C908 C 0.61451 0.24451 0.95396 0.0
C909 C 0.59972 0.24386 0.97069 0.0
C910 C 0.57631 0.24792 0.96901 0.0
C911 C 0.56778 0.25252 0.95046 0.0
C912 C 0.58255 0.25315 0.93373 0.0
H913 H 0.65823 0.28576 0.92645 0.0
H914 H 0.6301 0.28031 0.93793 0.0
H915 H 0.65492 0.26821 0.94427 0.0
H916 H 0.63252 0.24125 0.95548 0.0
H917 H 0.60652 0.24029 0.98494 0.0
H918 H 0.26251 0.83067 0.63849 0.0
H919 H 0.25813 0.8563 0.61729 0.0
H920 H 0.21564 0.87838 0.66253 0.0
H921 H 0.21925 0.85264 0.68363 0.0
H922 H 0.21225 0.87189 0.60565 0.0
H923 H 0.27218 0.91436 0.64807 0.0
H924 H 0.27334 0.89115 0.64909 0.0
H925 H 0.25038 0.90146 0.66196 0.0
C926 C 0.25197 0.84086 0.64386 0.0
C927 C 0.24131 0.8396 0.66283 0.0
C928 C 0.24961 0.85552 0.63176 0.0
C929 C 0.23676 0.86922 0.63847 0.0
C930 C 0.22587 0.86798 0.65724 0.0
H931 H 0.21557 0.97228 0.59116 0.0
H932 H 0.21601 0.94585 0.6119 0.0
C933 C 0.22808 0.8533 0.6693 0.0
C934 C 0.23481 0.8849 0.62589 0.0
H935 H 0.25284 0.92725 0.62157 0.0
C936 C 0.22112 0.88401 0.60905 0.0
C937 C 0.24631 0.90064 0.63053 0.0
C938 C 0.26153 0.90207 0.64832 0.0
C939 C 0.21838 0.89861 0.59678 0.0
C940 C 0.23018 0.91435 0.60125 0.0
C941 C 0.24381 0.91519 0.61817 0.0
C942 C 0.22891 0.93008 0.58848 0.0
C943 C 0.20248 0.89711 0.57944 0.0
C944 C 0.23615 0.92999 0.56851 0.0
C945 C 0.23563 0.94498 0.55668 0.0
C946 C 0.22814 0.9603 0.56471 0.0
C947 C 0.22114 0.96049 0.58469 0.0
C948 C 0.22147 0.94546 0.59649 0.0
H949 H 0.18962 0.88609 0.58154 0.0
H950 H 0.1929 0.90907 0.57707 0.0
H951 H 0.21304 0.8949 0.56588 0.0
H952 H 0.24256 0.91842 0.56215 0.0
H953 H 0.24135 0.94469 0.54133 0.0
H954 H 0.7204 0.78043 0.20537 0.0
H955 H 0.69502 0.78276 0.17706 0.0
H956 H 0.64245 0.75037 0.20798 0.0
H957 H 0.66724 0.74863 0.23671 0.0
H958 H 0.6773 0.75742 0.15397 0.0
H959 H 0.6053 0.79088 0.19038 0.0
H960 H 0.63334 0.78891 0.20144 0.0
H961 H 0.61214 0.77118 0.20294 0.0
C962 C 0.70329 0.77403 0.2063 0.0
C963 C 0.69582 0.76444 0.22341 0.0
C964 C 0.68887 0.77527 0.19004 0.0
C965 C 0.66669 0.76698 0.19053 0.0
C966 C 0.65929 0.75719 0.20744 0.0
H967 H 0.5573 0.752 0.10641 0.0
H968 H 0.58282 0.75122 0.13483 0.0
C969 C 0.67365 0.75601 0.22375 0.0
C970 C 0.65159 0.76817 0.17313 0.0
H971 H 0.59796 0.77996 0.15847 0.0
C972 C 0.66002 0.76246 0.15491 0.0
C973 C 0.62905 0.77478 0.1744 0.0
C974 C 0.61948 0.78195 0.19329 0.0
C975 C 0.64633 0.76282 0.13803 0.0
C976 C 0.62372 0.76922 0.13938 0.0
C977 C 0.61531 0.77502 0.15754 0.0
C978 C 0.60841 0.76981 0.12213 0.0
C979 C 0.65592 0.756 0.11896 0.0
C980 C 0.61426 0.78068 0.10571 0.0
C981 C 0.59975 0.78113 0.08944 0.0
C982 C 0.57913 0.77071 0.08932 0.0
C983 C 0.57324 0.75998 0.10592 0.0
C984 C 0.5877 0.75959 0.12221 0.0
H985 H 0.67147 0.74827 0.12139 0.0
H986 H 0.64249 0.74789 0.11163 0.0
H987 H 0.66111 0.76699 0.10876 0.0
H988 H 0.63004 0.78883 0.1055 0.0
H989 H 0.60482 0.78947 0.07684 0.0
H990 H 0.80131 0.20548 0.65818 0.0
H991 H 0.80451 0.18076 0.63673 0.0
H992 H 0.7658 0.1486 0.68008 0.0
H993 H 0.76216 0.17334 0.70139 0.0
H994 H 0.82417 0.15017 0.64222 0.0
H995 H 0.72953 0.13953 0.63093 0.0
H996 H 0.74157 0.15864 0.64209 0.0
H997 H 0.73692 0.13894 0.65653 0.0
C998 C 0.79353 0.19312 0.66313 0.0
C999 C 0.78132 0.19135 0.68137 0.0
C1000 C 0.79533 0.17903 0.65087 0.0
C1001 C 0.78502 0.16291 0.65664 0.0
C1002 C 0.77332 0.16102 0.67508 0.0
H1003 H 0.81543 0.06494 0.60398 0.0
H1004 H 0.81416 0.08996 0.62519 0.0
C1005 C 0.77131 0.17514 0.68726 0.0
C1006 C 0.78668 0.14807 0.64342 0.0
H1007 H 0.75398 0.11771 0.6197 0.0
C1008 C 0.80883 0.1431 0.63722 0.0
C1009 C 0.76664 0.13903 0.63667 0.0
C1010 C 0.74233 0.14439 0.64172 0.0
C1011 C 0.8115 0.1292 0.62465 0.0
C1012 C 0.79148 0.11975 0.61853 0.0
C1013 C 0.76933 0.12485 0.62456 0.0
C1014 C 0.79295 0.10474 0.60554 0.0
C1015 C 0.83572 0.12504 0.61771 0.0
C1016 C 0.78103 0.10455 0.58768 0.0
C1017 C 0.78146 0.09021 0.57573 0.0
C1018 C 0.79389 0.07576 0.58136 0.0
C1019 C 0.80598 0.07599 0.59916 0.0
C1020 C 0.80533 0.0903 0.61124 0.0
H1021 H 0.84817 0.13628 0.6189 0.0
H1022 H 0.84201 0.11438 0.62711 0.0
H1023 H 0.83585 0.12092 0.60213 0.0
H1024 H 0.77134 0.11553 0.583 0.0
H1025 H 0.77217 0.09045 0.56199 0.0
H1026 H 0.33486 0.27961 0.20651 0.0
H1027 H 0.35923 0.27827 0.17648 0.0
H1028 H 0.37473 0.22586 0.19184 0.0
H1029 H 0.34985 0.2269 0.22158 0.0
H1030 H 0.40669 0.27166 0.17325 0.0
H1031 H 0.3525 0.22277 0.13476 0.0
H1032 H 0.34175 0.23415 0.15578 0.0
H1033 H 0.36035 0.21638 0.15933 0.0
C1034 C 0.34321 0.26772 0.20337 0.0
C1035 C 0.34031 0.25333 0.21639 0.0
C1036 C 0.35725 0.26703 0.18629 0.0
C1037 C 0.36852 0.2519 0.18182 0.0
C1038 C 0.36587 0.23757 0.19485 0.0
H1039 H 0.48395 0.24166 0.09809 0.0
H1040 H 0.45864 0.24238 0.12783 0.0
C1041 C 0.35185 0.23825 0.21195 0.0
C1042 C 0.38342 0.25126 0.16371 0.0
H1043 H 0.38965 0.23043 0.12023 0.0
C1044 C 0.40296 0.26268 0.16163 0.0
C1045 C 0.37833 0.23965 0.14849 0.0
C1046 C 0.35698 0.22764 0.14954 0.0
C1047 C 0.41778 0.26264 0.14484 0.0
C1048 C 0.41306 0.2507 0.12988 0.0
C1049 C 0.39332 0.23946 0.13182 0.0
C1050 C 0.42824 0.24985 0.11197 0.0
C1051 C 0.43815 0.27555 0.14309 0.0
C1052 C 0.41933 0.25335 0.09321 0.0
C1053 C 0.4337 0.25284 0.0763 0.0
C1054 C 0.45711 0.24877 0.07795 0.0
C1055 C 0.46593 0.24494 0.09662 0.0
C1056 C 0.45157 0.24544 0.11354 0.0
H1057 H 0.43604 0.28641 0.15325 0.0
H1058 H 0.45431 0.26908 0.14699 0.0
H1059 H 0.44036 0.28085 0.12772 0.0
H1060 H 0.40134 0.25668 0.0917 0.0
H1061 H 0.42665 0.25574 0.06195 0.0
H1062 H 0.81347 0.6767 0.74462 0.0
H1063 H 0.83734 0.65185 0.73923 0.0
H1064 H 0.86761 0.67672 0.68638 0.0
H1065 H 0.8443 0.70184 0.69195 0.0
H1066 H 0.83931 0.63029 0.70616 0.0
H1067 H 0.92455 0.66427 0.71867 0.0
H1068 H 0.89714 0.67308 0.72583 0.0
H1069 H 0.90695 0.67423 0.7004 0.0
C1070 C 0.82537 0.67696 0.73195 0.0
C1071 C 0.8271 0.69131 0.71879 0.0
C1072 C 0.83886 0.6627 0.72882 0.0
C1073 C 0.85445 0.66256 0.71257 0.0
C1074 C 0.85594 0.6767 0.69919 0.0
H1075 H 0.95585 0.58864 0.67638 0.0
H1076 H 0.93008 0.61287 0.67765 0.0
C1077 C 0.84243 0.69097 0.70229 0.0
C1078 C 0.86912 0.64758 0.70965 0.0
H1079 H 0.92553 0.63551 0.70836 0.0
C1080 C 0.85817 0.63141 0.70664 0.0
C1081 C 0.8937 0.64911 0.71023 0.0
C1082 C 0.90635 0.66606 0.71412 0.0
C1083 C 0.87117 0.61671 0.70407 0.0
C1084 C 0.89574 0.6182 0.7049 0.0
C1085 C 0.90669 0.63441 0.70769 0.0
C1086 C 0.91042 0.60304 0.70351 0.0
C1087 C 0.8585 0.59976 0.70022 0.0
C1088 C 0.90795 0.58952 0.71766 0.0
C1089 C 0.92253 0.57561 0.7169 0.0
C1090 C 0.94001 0.57501 0.70205 0.0
C1091 C 0.94236 0.58857 0.68783 0.0
C1092 C 0.92776 0.60248 0.68861 0.0
H1093 H 0.84083 0.60168 0.69446 0.0
H1094 H 0.86841 0.59218 0.68946 0.0
H1095 H 0.85648 0.59211 0.71428 0.0
H1096 H 0.89498 0.58985 0.72951 0.0
H1097 H 0.92012 0.56533 0.72798 0.0
H1098 H 0.82719 0.35028 0.30699 0.0
H1099 H 0.85176 0.37634 0.31173 0.0
H1100 H 0.88399 0.3515 0.36106 0.0
H1101 H 0.85968 0.32528 0.35635 0.0
H1102 H 0.85964 0.39369 0.35686 0.0
H1103 H 0.93436 0.37131 0.3117 0.0
H1104 H 0.9047 0.36504 0.30599 0.0
H1105 H 0.91748 0.35633 0.32775 0.0
C1106 C 0.83954 0.35034 0.31882 0.0
C1107 C 0.84155 0.3357 0.33125 0.0
C1108 C 0.85343 0.36525 0.32157 0.0
C1109 C 0.8696 0.36574 0.33672 0.0
C1110 C 0.8715 0.3513 0.34933 0.0
H1111 H 0.98327 0.44058 0.35569 0.0
H1112 H 0.95733 0.4146 0.35615 0.0
C1113 C 0.85755 0.3364 0.34665 0.0
C1114 C 0.88498 0.38123 0.33896 0.0
H1115 H 0.93834 0.39891 0.32489 0.0
C1116 C 0.87688 0.39488 0.34995 0.0
C1117 C 0.90744 0.38257 0.33003 0.0
C1118 C 0.9167 0.36809 0.31815 0.0
C1119 C 0.89077 0.40999 0.35219 0.0
C1120 C 0.91309 0.41155 0.34281 0.0
C1121 C 0.92123 0.39773 0.33204 0.0
C1122 C 0.9282 0.42748 0.34364 0.0
C1123 C 0.88156 0.424 0.36484 0.0
C1124 C 0.92044 0.44331 0.33646 0.0
C1125 C 0.93515 0.45811 0.33638 0.0
C1126 C 0.95794 0.45724 0.34317 0.0
C1127 C 0.9657 0.44147 0.35043 0.0
C1128 C 0.95095 0.42669 0.35065 0.0
H1129 H 0.86788 0.41884 0.37556 0.0
H1130 H 0.89572 0.43046 0.37315 0.0
H1131 H 0.87363 0.43381 0.35521 0.0
H1132 H 0.90318 0.44416 0.33054 0.0
H1133 H 0.92892 0.47019 0.33068 0.0
H1134 H 0.20702 0.35237 0.74038 0.0
H1135 H 0.18338 0.37747 0.73525 0.0
H1136 H 0.15347 0.35426 0.68402 0.0
H1137 H 0.17656 0.32889 0.68934 0.0
H1138 H 0.18178 0.40005 0.70159 0.0
H1139 H 0.09634 0.36584 0.71832 0.0
H1140 H 0.12368 0.35681 0.7247 0.0
H1141 H 0.11405 0.35636 0.69965 0.0
C1142 C 0.19526 0.35253 0.72812 0.0
C1143 C 0.19355 0.33856 0.71535 0.0
C1144 C 0.1819 0.36693 0.72513 0.0
C1145 C 0.16647 0.36761 0.70942 0.0
C1146 C 0.16502 0.35387 0.69641 0.0
H1147 H 0.0654 0.44281 0.67573 0.0
H1148 H 0.09106 0.41849 0.67646 0.0
C1149 C 0.1784 0.33946 0.69937 0.0
C1150 C 0.15188 0.38271 0.70671 0.0
H1151 H 0.09554 0.39494 0.70746 0.0
C1152 C 0.16292 0.39896 0.70286 0.0
C1153 C 0.1273 0.38121 0.70834 0.0
C1154 C 0.11457 0.36416 0.71314 0.0
C1155 C 0.14999 0.41377 0.70047 0.0
C1156 C 0.12542 0.4123 0.70236 0.0
C1157 C 0.11438 0.39601 0.70598 0.0
C1158 C 0.1108 0.42754 0.70124 0.0
C1159 C 0.16274 0.4308 0.69569 0.0
C1160 C 0.11336 0.44066 0.71495 0.0
C1161 C 0.09884 0.45462 0.7145 0.0
C1162 C 0.08133 0.45568 0.70039 0.0
C1163 C 0.07891 0.44253 0.6866 0.0
C1164 C 0.09345 0.42857 0.68707 0.0
H1165 H 0.1804 0.42901 0.68922 0.0
H1166 H 0.15288 0.43873 0.68518 0.0
H1167 H 0.16483 0.43804 0.70949 0.0
H1168 H 0.12634 0.43997 0.72625 0.0
H1169 H 0.10131 0.46459 0.72522 0.0
H1170 H 0.16993 0.68867 0.34157 0.0
H1171 H 0.14574 0.66216 0.34757 0.0
H1172 H 0.18646 0.63642 0.30397 0.0
H1173 H 0.21073 0.66284 0.29787 0.0
H1174 H 0.12131 0.64289 0.31356 0.0
H1175 H 0.18269 0.60507 0.35787 0.0
H1176 H 0.18393 0.62836 0.35691 0.0
H1177 H 0.19409 0.61672 0.33612 0.0
C1178 C 0.17388 0.6773 0.33343 0.0
C1179 C 0.1922 0.67781 0.31924 0.0
C1180 C 0.16002 0.66223 0.33682 0.0
C1181 C 0.16448 0.64738 0.32629 0.0
C1182 C 0.1829 0.64775 0.31231 0.0
H1183 H 0.10451 0.5434 0.32391 0.0
H1184 H 0.12967 0.56977 0.32138 0.0
C1185 C 0.19662 0.66286 0.30877 0.0
C1186 C 0.14925 0.63168 0.32927 0.0
H1187 H 0.14761 0.59074 0.34894 0.0
C1188 C 0.12693 0.63149 0.32138 0.0
C1189 C 0.15684 0.61687 0.33931 0.0
C1190 C 0.18065 0.61664 0.34818 0.0
C1191 C 0.11206 0.61669 0.32293 0.0
C1192 C 0.11952 0.60186 0.33318 0.0
C1193 C 0.14187 0.60212 0.34116 0.0
C1194 C 0.10458 0.58583 0.33541 0.0
C1195 C 0.08884 0.61692 0.313 0.0
C1196 C 0.08237 0.58602 0.34451 0.0
C1197 C 0.06795 0.57107 0.34568 0.0
C1198 C 0.07568 0.55564 0.33807 0.0
C1199 C 0.0982 0.55525 0.32969 0.0
C1200 C 0.11253 0.57025 0.32831 0.0
H1201 H 0.08867 0.62718 0.30125 0.0
H1202 H 0.08441 0.60435 0.30631 0.0
H1203 H 0.07506 0.61954 0.32414 0.0
H1204 H 0.07612 0.59776 0.35058 0.0
H1205 H 0.05069 0.57155 0.35237 0.0
H1206 H 0.75385 0.83133 0.64829 0.0
H1207 H 0.75896 0.85698 0.62665 0.0
H1208 H 0.80274 0.88129 0.66962 0.0
H1209 H 0.79868 0.85542 0.69091 0.0
H1210 H 0.74663 0.88956 0.63372 0.0
H1211 H 0.84199 0.8891 0.61964 0.0
H1212 H 0.82548 0.87083 0.63058 0.0
H1213 H 0.83417 0.88872 0.64548 0.0
C1214 C 0.76494 0.842 0.65299 0.0
C1215 C 0.77593 0.84125 0.67133 0.0
C1216 C 0.76769 0.8567 0.64066 0.0
C1217 C 0.78152 0.87095 0.64637 0.0
C1218 C 0.7924 0.87031 0.6647 0.0
H1219 H 0.8059 0.97568 0.60049 0.0
H1220 H 0.8034 0.94884 0.62075 0.0
C1221 C 0.78977 0.85558 0.67699 0.0
C1222 C 0.78375 0.88675 0.63353 0.0
H1223 H 0.82336 0.91472 0.60988 0.0
C1224 C 0.7634 0.89498 0.62839 0.0
C1225 C 0.80566 0.89381 0.62657 0.0
C1226 C 0.82805 0.88507 0.63068 0.0
C1227 C 0.76438 0.91025 0.61679 0.0
C1228 C 0.78627 0.9174 0.61012 0.0
C1229 C 0.80663 0.90919 0.61516 0.0
C1230 C 0.7883 0.93341 0.59779 0.0
C1231 C 0.74207 0.91884 0.61202 0.0
C1232 C 0.78088 0.93347 0.57819 0.0
C1233 C 0.78249 0.94867 0.56664 0.0
C1234 C 0.79155 0.96399 0.57455 0.0
C1235 C 0.79905 0.96392 0.59413 0.0
C1236 C 0.7976 0.94868 0.60564 0.0
H1237 H 0.72703 0.91335 0.62108 0.0
H1238 H 0.7439 0.9329 0.61446 0.0
H1239 H 0.73823 0.91706 0.59619 0.0
H1240 H 0.77382 0.92176 0.57187 0.0
H1241 H 0.77658 0.94852 0.55156 0.0
H1242 H 0.68943 0.22479 0.23537 0.0
H1243 H 0.66481 0.22278 0.20644 0.0
H1244 H 0.68295 0.27585 0.19054 0.0
H1245 H 0.70752 0.27801 0.21944 0.0
H1246 H 0.6266 0.24161 0.19662 0.0
H1247 H 0.69716 0.2509 0.13948 0.0
H1248 H 0.70281 0.24598 0.16509 0.0
H1249 H 0.69687 0.26762 0.15727 0.0
C1250 C 0.68809 0.23606 0.22577 0.0
C1251 C 0.70053 0.25154 0.22966 0.0
C1252 C 0.6741 0.23486 0.2092 0.0
C1253 C 0.67236 0.24908 0.19617 0.0
C1254 C 0.6845 0.2646 0.20014 0.0
H1255 H 0.56658 0.2675 0.11037 0.0
H1256 H 0.59168 0.26729 0.13899 0.0
C1257 C 0.69852 0.26581 0.21667 0.0
C1258 C 0.65743 0.24779 0.17868 0.0
H1259 H 0.65829 0.25222 0.12832 0.0
C1260 C 0.63353 0.24384 0.18167 0.0
C1261 C 0.66657 0.25045 0.15918 0.0
C1262 C 0.69229 0.25381 0.15498 0.0
C1263 C 0.61841 0.24291 0.16572 0.0
C1264 C 0.62741 0.24629 0.14629 0.0
C1265 C 0.6514 0.24981 0.14325 0.0
C1266 C 0.6122 0.24639 0.12891 0.0
C1267 C 0.59299 0.23816 0.16978 0.0
C1268 C 0.61579 0.235 0.1135 0.0
C1269 C 0.60165 0.23523 0.09698 0.0
C1270 C 0.58374 0.24695 0.0955 0.0
C1271 C 0.58034 0.25842 0.11093 0.0
C1272 C 0.59448 0.25818 0.12743 0.0
H1273 H 0.59015 0.23143 0.1844 0.0
H1274 H 0.583 0.25006 0.16988 0.0
H1275 H 0.58588 0.22974 0.15817 0.0
H1276 H 0.62951 0.22589 0.11429 0.0
H1277 H 0.60494 0.22638 0.08524 0.0
H1278 H 0.22002 0.20068 0.65084 0.0
H1279 H 0.21478 0.1752 0.63064 0.0
H1280 H 0.26372 0.1485 0.66626 0.0
H1281 H 0.26857 0.17371 0.68686 0.0
H1282 H 0.24889 0.15863 0.6086 0.0
H1283 H 0.20708 0.1145 0.66611 0.0
H1284 H 0.20951 0.13756 0.66878 0.0
H1285 H 0.23413 0.12464 0.67327 0.0
C1286 C 0.22944 0.18931 0.65453 0.0
C1287 C 0.24464 0.1892 0.67052 0.0
C1288 C 0.22653 0.17481 0.64291 0.0
C1289 C 0.2386 0.15989 0.64714 0.0
C1290 C 0.25392 0.15978 0.66296 0.0
H1291 H 0.25347 0.06077 0.59483 0.0
H1292 H 0.25509 0.08626 0.61527 0.0
C1293 C 0.25688 0.17427 0.67457 0.0
C1294 C 0.2357 0.14461 0.63466 0.0
H1295 H 0.2191 0.10186 0.63614 0.0
C1296 C 0.24221 0.14624 0.61456 0.0
C1297 C 0.227 0.12848 0.64251 0.0
C1298 C 0.21882 0.12616 0.66381 0.0
C1299 C 0.24085 0.13204 0.60218 0.0
C1300 C 0.23235 0.11587 0.61008 0.0
C1301 C 0.22563 0.11428 0.63014 0.0
C1302 C 0.2308 0.10035 0.59785 0.0
C1303 C 0.24917 0.13435 0.58091 0.0
C1304 C 0.21629 0.09971 0.58149 0.0
C1305 C 0.21543 0.08521 0.5697 0.0
C1306 C 0.22901 0.07103 0.57412 0.0
C1307 C 0.2431 0.07157 0.59083 0.0
C1308 C 0.24393 0.08607 0.6026 0.0
H1309 H 0.26024 0.14632 0.57846 0.0
H1310 H 0.25923 0.12321 0.57624 0.0
H1311 H 0.23387 0.13519 0.5713 0.0
H1312 H 0.20571 0.11048 0.57778 0.0
H1313 H 0.20452 0.08527 0.55688 0.0
H1314 H 0.31097 0.77357 0.19387 0.0
H1315 H 0.33616 0.77535 0.16416 0.0
H1316 H 0.39246 0.75537 0.19757 0.0
H1317 H 0.36739 0.75356 0.22737 0.0
H1318 H 0.3783 0.79374 0.15732 0.0
H1319 H 0.38925 0.72349 0.15063 0.0
H1320 H 0.36719 0.73209 0.16654 0.0
H1321 H 0.39688 0.73175 0.17425 0.0
C1322 C 0.32876 0.76964 0.19492 0.0
C1323 C 0.33716 0.76336 0.21297 0.0
C1324 C 0.34309 0.7706 0.17792 0.0
C1325 C 0.36605 0.76524 0.17859 0.0
C1326 C 0.37462 0.75919 0.19662 0.0
H1327 H 0.47971 0.76217 0.09204 0.0
H1328 H 0.45504 0.76112 0.12226 0.0
C1329 C 0.36028 0.75818 0.21363 0.0
C1330 C 0.38113 0.76628 0.16048 0.0
H1331 H 0.41263 0.74202 0.12911 0.0
C1332 C 0.38574 0.78244 0.15109 0.0
C1333 C 0.39081 0.75149 0.15241 0.0
C1334 C 0.38565 0.73369 0.16134 0.0
C1335 C 0.40008 0.78426 0.13401 0.0
C1336 C 0.40977 0.76948 0.12597 0.0
C1337 C 0.4052 0.75332 0.13536 0.0
C1338 C 0.42469 0.77047 0.10779 0.0
C1339 C 0.40513 0.80201 0.12493 0.0
C1340 C 0.41569 0.77591 0.08965 0.0
C1341 C 0.42973 0.77649 0.07247 0.0
C1342 C 0.45291 0.77163 0.07321 0.0
C1343 C 0.46187 0.76607 0.09127 0.0
C1344 C 0.44784 0.76545 0.10844 0.0
H1345 H 0.40123 0.81228 0.13548 0.0
H1346 H 0.42365 0.80369 0.11992 0.0
H1347 H 0.3941 0.80375 0.11186 0.0
H1348 H 0.39774 0.77949 0.08876 0.0
H1349 H 0.42251 0.78062 0.05857 0.0
H1350 H 0.75184 0.18557 0.39505 0.0
H1351 H 0.75484 0.15957 0.41585 0.0
H1352 H 0.81988 0.14904 0.38653 0.0
H1353 H 0.81683 0.17479 0.36532 0.0
H1354 H 0.75889 0.12473 0.40263 0.0
H1355 H 0.83401 0.14739 0.44675 0.0
H1356 H 0.8165 0.16197 0.43288 0.0
H1357 H 0.83788 0.14976 0.42035 0.0
C1358 C 0.76672 0.17768 0.39289 0.0
C1359 C 0.78411 0.18231 0.37849 0.0
C1360 C 0.76845 0.16288 0.40488 0.0
C1361 C 0.78769 0.15252 0.40285 0.0
C1362 C 0.80509 0.15705 0.38854 0.0
H1363 H 0.80101 0.04737 0.44782 0.0
H1364 H 0.79974 0.07367 0.42684 0.0
C1365 C 0.80333 0.1718 0.37647 0.0
C1366 C 0.78923 0.13672 0.41538 0.0
H1367 H 0.82107 0.11819 0.45152 0.0
C1368 C 0.77246 0.12327 0.41332 0.0
C1369 C 0.80685 0.13498 0.42942 0.0
C1370 C 0.82477 0.14932 0.43268 0.0
C1371 C 0.77301 0.10799 0.42482 0.0
C1372 C 0.79091 0.10611 0.43858 0.0
C1373 C 0.80751 0.11964 0.44082 0.0
C1374 C 0.79232 0.09032 0.45114 0.0
C1375 C 0.75424 0.09409 0.42239 0.0
C1376 C 0.78905 0.09109 0.47171 0.0
C1377 C 0.7898 0.07616 0.4836 0.0
C1378 C 0.79406 0.06032 0.47508 0.0
C1379 C 0.7977 0.05954 0.45457 0.0
C1380 C 0.79687 0.07447 0.44266 0.0
H1381 H 0.73913 0.09896 0.41436 0.0
H1382 H 0.76148 0.08349 0.41383 0.0
H1383 H 0.74801 0.08864 0.43702 0.0
H1384 H 0.78558 0.10321 0.47851 0.0
H1385 H 0.78693 0.07692 0.49944 0.0
H1386 H 0.34622 0.23213 0.80981 0.0
H1387 H 0.37101 0.23016 0.83861 0.0
H1388 H 0.3486 0.27941 0.85765 0.0
H1389 H 0.32415 0.28171 0.82872 0.0
H1390 H 0.40775 0.2546 0.85 0.0
H1391 H 0.33598 0.24604 0.90641 0.0
H1392 H 0.33172 0.24243 0.88046 0.0
H1393 H 0.3338 0.264 0.88934 0.0
C1394 C 0.3467 0.24263 0.82001 0.0
C1395 C 0.3331 0.25706 0.81696 0.0
C1396 C 0.36078 0.24143 0.83651 0.0
C1397 C 0.36136 0.25452 0.85036 0.0
C1398 C 0.34803 0.26901 0.84731 0.0
H1399 H 0.43112 0.27238 0.96023 0.0
H1400 H 0.40693 0.27349 0.93107 0.0
C1401 C 0.33403 0.27027 0.83078 0.0
C1402 C 0.37621 0.25319 0.86786 0.0
H1403 H 0.37418 0.25007 0.91828 0.0
C1404 C 0.40046 0.25352 0.86495 0.0
C1405 C 0.36658 0.25184 0.88728 0.0
C1406 C 0.34059 0.25091 0.89116 0.0
C1407 C 0.41543 0.25292 0.88102 0.0
C1408 C 0.40581 0.25155 0.90049 0.0
C1409 C 0.38152 0.25112 0.90336 0.0
C1410 C 0.42062 0.25075 0.91811 0.0
C1411 C 0.4414 0.25427 0.87701 0.0
C1412 C 0.43614 0.23746 0.92066 0.0
C1413 C 0.45022 0.23691 0.9372 0.0
C1414 C 0.44888 0.24954 0.95166 0.0
C1415 C 0.43293 0.26263 0.94923 0.0
C1416 C 0.41895 0.26321 0.93264 0.0
H1417 H 0.44575 0.25996 0.86207 0.0
H1418 H 0.4503 0.26224 0.88817 0.0
H1419 H 0.4484 0.2412 0.87776 0.0
H1420 H 0.43737 0.2275 0.90985 0.0
H1421 H 0.46241 0.22672 0.93849 0.0
H1422 H 0.21513 0.81967 0.37631 0.0
H1423 H 0.21073 0.84483 0.39689 0.0
H1424 H 0.26977 0.87053 0.36642 0.0
H1425 H 0.27392 0.84557 0.34556 0.0
H1426 H 0.23965 0.85937 0.42241 0.0
H1427 H 0.22257 0.90708 0.36288 0.0
H1428 H 0.22218 0.88423 0.35881 0.0
H1429 H 0.24938 0.89663 0.35871 0.0
C1430 C 0.22713 0.83071 0.37401 0.0
C1431 C 0.24477 0.83072 0.35925 0.0
C1432 C 0.22457 0.84508 0.38572 0.0
C1433 C 0.23963 0.85971 0.38295 0.0
C1434 C 0.2575 0.85961 0.36844 0.0
H1435 H 0.26544 0.93846 0.46886 0.0
H1436 H 0.26674 0.9137 0.44754 0.0
C1437 C 0.25992 0.84532 0.35659 0.0
C1438 C 0.23715 0.87481 0.39569 0.0
H1439 H 0.23169 0.9184 0.39439 0.0
C1440 C 0.23774 0.87226 0.41628 0.0
C1441 C 0.23425 0.89159 0.38772 0.0
C1442 C 0.2318 0.89505 0.36583 0.0
C1443 C 0.23608 0.88608 0.42911 0.0
C1444 C 0.23444 0.90298 0.42109 0.0
C1445 C 0.23327 0.90548 0.40052 0.0
C1446 C 0.23389 0.91827 0.43376 0.0
C1447 C 0.23571 0.88234 0.45112 0.0
C1448 C 0.21546 0.92949 0.43257 0.0
C1449 C 0.21495 0.94394 0.44441 0.0
C1450 C 0.23287 0.94747 0.45772 0.0
C1451 C 0.25145 0.93628 0.45868 0.0
C1452 C 0.25204 0.92193 0.44671 0.0
H1453 H 0.22979 0.86879 0.45473 0.0
H1454 H 0.25359 0.88429 0.45671 0.0
H1455 H 0.2241 0.89104 0.45907 0.0
H1456 H 0.20138 0.92701 0.42254 0.0
H1457 H 0.20059 0.95242 0.44298 0.0
H1458 H 0.65601 0.75384 0.81082 0.0
H1459 H 0.63105 0.7547 0.84056 0.0
H1460 H 0.68443 0.7847 0.8694 0.0
H1461 H 0.70974 0.78361 0.83995 0.0
H1462 H 0.64153 0.74308 0.88023 0.0
H1463 H 0.62461 0.81292 0.87498 0.0
H1464 H 0.63536 0.80116 0.85424 0.0
H1465 H 0.65476 0.80771 0.87331 0.0
C1466 C 0.66255 0.76051 0.82354 0.0
C1467 C 0.68488 0.76871 0.82294 0.0
C1468 C 0.6482 0.76106 0.84047 0.0
C1469 C 0.65581 0.76995 0.85704 0.0
C1470 C 0.6781 0.77805 0.8566 0.0
H1471 H 0.60056 0.76351 0.97777 0.0
H1472 H 0.62508 0.76297 0.94752 0.0
C1473 C 0.6925 0.77744 0.83973 0.0
C1474 C 0.64061 0.77048 0.87496 0.0
H1475 H 0.61136 0.7978 0.90432 0.0
C1476 C 0.63488 0.75502 0.8855 0.0
C1477 C 0.63181 0.78607 0.88164 0.0
C1478 C 0.63673 0.80292 0.87041 0.0
C1479 C 0.62085 0.75478 0.90278 0.0
C1480 C 0.61256 0.77044 0.90975 0.0
C1481 C 0.61794 0.78585 0.89901 0.0
C1482 C 0.59802 0.77103 0.92805 0.0
C1483 C 0.61478 0.73777 0.91334 0.0
C1484 C 0.57493 0.77612 0.92711 0.0
C1485 C 0.56101 0.77641 0.9443 0.0
C1486 C 0.57006 0.77173 0.96265 0.0
C1487 C 0.59328 0.767 0.96368 0.0
C1488 C 0.60718 0.76664 0.94647 0.0
H1489 H 0.61805 0.72668 0.90379 0.0
H1490 H 0.62563 0.73657 0.9266 0.0
H1491 H 0.59621 0.73702 0.91834 0.0
H1492 H 0.56761 0.77964 0.91304 0.0
H1493 H 0.54313 0.78016 0.94331 0.0
loop_
_geom_bond_atom_site_label_1
_geom_bond_atom_site_label_2
_geom_bond_distance
_geom_bond_site_symmetry_2
_ccdc_geom_bond_type
C0 C1 1.386 . S
C0 C2 1.397 . S
C0 H24 0.931 . S
C1 C0 1.386 . S
C1 C5 1.397 . S
C2 C0 1.397 . S
C2 C3 1.384 . S
C2 H25 0.930 . S
C3 C2 1.384 . S
C3 C4 1.377 . S
C3 C6 1.481 . S
C4 C3 1.377 . S
C4 C5 1.389 . S
C4 H26 0.929 . S
C5 C1 1.397 . S
C5 C4 1.389 . S
C5 H27 0.931 . S
C6 C3 1.481 . S
C6 C7 1.387 . S
C6 C11 1.390 . S
C7 C6 1.387 . S
C7 C8 1.401 . S
C7 H28 0.930 . S
C8 C7 1.401 . S
C8 C9 1.376 . S
C8 C17 1.511 . S
C9 C8 1.376 . S
C9 C10 1.392 . S
C9 H30 0.931 . S
C10 C9 1.392 . S
C10 C11 1.361 . S
C10 C12 1.500 . S
C11 C6 1.390 . S
C11 C10 1.361 . S
C11 H29 0.931 . S
C12 C10 1.500 . S
C12 C13 1.371 . S
C12 C14 1.365 . S
C13 C12 1.371 . S
C13 C23 1.386 . S
C13 H31 0.931 . S
C14 C12 1.365 . S
C14 C15 1.409 . S
C14 H32 0.929 . S
C15 C14 1.409 . S
C15 C16 1.380 . S
C15 H33 0.930 . S
C16 C15 1.380 . S
C16 C23 1.357 . S
C17 C8 1.511 . S
C17 C18 1.341 . S
C17 C19 1.371 . S
C18 C17 1.341 . S
C18 C22 1.394 . S
C18 H34 0.930 . S
C19 C17 1.371 . S
C19 C20 1.392 . S
C19 H35 0.931 . S
C20 C19 1.392 . S
C20 C21 1.331 . S
C20 H38 0.932 . S
C21 C20 1.331 . S
C21 C22 1.336 . S
C22 C18 1.394 . S
C22 C21 1.336 . S
C22 H37 0.929 . S
C23 C13 1.386 . S
C23 C16 1.357 . S
C23 H36 0.928 . S
H24 C0 0.931 . S
H25 C2 0.930 . S
H26 C4 0.929 . S
H27 C5 0.931 . S
H28 C7 0.930 . S
H29 C11 0.931 . S
H30 C9 0.931 . S
H31 C13 0.931 . S
H32 C14 0.929 . S
H33 C15 0.930 . S
H34 C18 0.930 . S
H35 C19 0.931 . S
H36 C23 0.928 . S
H37 C22 0.929 . S
H38 C20 0.932 . S
C39 C40 1.386 . S
C39 C41 1.397 . S
C39 H63 0.931 . S
C40 C39 1.386 . S
C40 C44 1.397 . S
C41 C39 1.397 . S
C41 C42 1.384 . S
C41 H64 0.930 . S
C42 C41 1.384 . S
C42 C43 1.377 . S
C42 C45 1.481 . S
C43 C42 1.377 . S
C43 C44 1.389 . S
C43 H65 0.929 . S
C44 C40 1.397 . S
C44 C43 1.389 . S
C44 H66 0.931 . S
C45 C42 1.481 . S
C45 C46 1.387 . S
C45 C50 1.390 . S
C46 C45 1.387 . S
C46 C47 1.401 . S
C46 H67 0.930 . S
C47 C46 1.401 . S
C47 C48 1.376 . S
C47 C56 1.511 . S
C48 C47 1.376 . S
C48 C49 1.392 . S
C48 H69 0.931 . S
C49 C48 1.392 . S
C49 C50 1.361 . S
C49 C51 1.500 . S
C50 C45 1.390 . S
C50 C49 1.361 . S
C50 H68 0.931 . S
C51 C49 1.500 . S
C51 C52 1.371 . S
C51 C53 1.365 . S
C52 C51 1.371 . S
C52 C62 1.386 . S
C52 H70 0.931 . S
C53 C51 1.365 . S
C53 C54 1.409 . S
C53 H71 0.929 . S
C54 C53 1.409 . S
C54 C55 1.380 . S
C54 H72 0.930 . S
C55 C54 1.380 . S
C55 C62 1.357 . S
C56 C47 1.511 . S
C56 C57 1.341 . S
C56 C58 1.371 . S
C57 C56 1.341 . S
C57 C61 1.394 . S
C57 H73 0.930 . S
C58 C56 1.371 . S
C58 C59 1.392 . S
C58 H74 0.931 . S
C59 C58 1.392 . S
C59 C60 1.331 . S
C59 H77 0.932 . S
C60 C59 1.331 . S
C60 C61 1.336 . S
C61 C57 1.394 . S
C61 C60 1.336 . S
C61 H76 0.929 . S
C62 C52 1.386 . S
C62 C55 1.357 . S
C62 H75 0.928 . S
H63 C39 0.931 . S
H64 C41 0.930 . S
H65 C43 0.929 . S
H66 C44 0.931 . S
H67 C46 0.930 . S
H68 C50 0.931 . S
H69 C48 0.931 . S
H70 C52 0.931 . S
H71 C53 0.929 . S
H72 C54 0.930 . S
H73 C57 0.930 . S
H74 C58 0.931 . S
H75 C62 0.928 . S
H76 C61 0.929 . S
H77 C59 0.932 . S
C78 C79 1.386 . S
C78 C80 1.397 . S
C78 H102 0.931 . S
C79 C78 1.386 . S
C79 C83 1.397 . S
C80 C78 1.397 . S
C80 C81 1.384 . S
C80 H103 0.930 . S
C81 C80 1.384 . S
C81 C82 1.377 . S
C81 C84 1.481 . S
C82 C81 1.377 . S
C82 C83 1.389 . S
C82 H104 0.929 . S
C83 C79 1.397 . S
C83 C82 1.389 . S
C83 H105 0.931 . S
C84 C81 1.481 . S
C84 C85 1.387 . S
C84 C89 1.390 . S
C85 C84 1.387 . S
C85 C86 1.401 . S
C85 H106 0.930 . S
C86 C85 1.401 . S
C86 C87 1.376 . S
C86 C95 1.511 . S
C87 C86 1.376 . S
C87 C88 1.392 . S
C87 H108 0.931 . S
C88 C87 1.392 . S
C88 C89 1.361 . S
C88 C90 1.500 . S
C89 C84 1.390 . S
C89 C88 1.361 . S
C89 H107 0.931 . S
C90 C88 1.500 . S
C90 C91 1.371 . S
C90 C92 1.365 . S
C91 C90 1.371 . S
C91 C101 1.386 . S
C91 H109 0.931 . S
C92 C90 1.365 . S
C92 C93 1.409 . S
C92 H110 0.929 . S
C93 C92 1.409 . S
C93 C94 1.380 . S
C93 H111 0.930 . S
C94 C93 1.380 . S
C94 C101 1.357 . S
C95 C86 1.511 . S
C95 C96 1.341 . S
C95 C97 1.371 . S
C96 C95 1.341 . S
C96 C100 1.394 . S
C96 H112 0.930 . S
C97 C95 1.371 . S
C97 C98 1.392 . S
C97 H113 0.931 . S
C98 C97 1.392 . S
C98 C99 1.331 . S
C98 H116 0.932 . S
C99 C98 1.331 . S
C99 C100 1.336 . S
C100 C96 1.394 . S
C100 C99 1.336 . S
C100 H115 0.929 . S
C101 C91 1.386 . S
C101 C94 1.357 . S
C101 H114 0.928 . S
H102 C78 0.931 . S
H103 C80 0.930 . S
H104 C82 0.929 . S
H105 C83 0.931 . S
H106 C85 0.930 . S
H107 C89 0.931 . S
H108 C87 0.931 . S
H109 C91 0.931 . S
H110 C92 0.929 . S
H111 C93 0.930 . S
H112 C96 0.930 . S
H113 C97 0.931 . S
H114 C101 0.928 . S
H115 C100 0.929 . S
H116 C98 0.932 . S
C117 C118 1.386 . S
C117 C119 1.397 . S
C117 H141 0.931 . S
C118 C117 1.386 . S
C118 C122 1.397 . S
C119 C117 1.397 . S
C119 C120 1.384 . S
C119 H142 0.930 . S
C120 C119 1.384 . S
C120 C121 1.377 . S
C120 C123 1.481 . S
C121 C120 1.377 . S
C121 C122 1.389 . S
C121 H143 0.929 . S
C122 C118 1.397 . S
C122 C121 1.389 . S
C122 H144 0.931 . S
C123 C120 1.481 . S
C123 C124 1.387 . S
C123 C128 1.390 . S
C124 C123 1.387 . S
C124 C125 1.401 . S
C124 H145 0.930 . S
C125 C124 1.401 . S
C125 C126 1.376 . S
C125 C134 1.511 . S
C126 C125 1.376 . S
C126 C127 1.392 . S
C126 H147 0.931 . S
C127 C126 1.392 . S
C127 C128 1.361 . S
C127 C129 1.500 . S
C128 C123 1.390 . S
C128 C127 1.361 . S
C128 H146 0.931 . S
C129 C127 1.500 . S
C129 C130 1.371 . S
C129 C131 1.365 . S
C130 C129 1.371 . S
C130 C140 1.386 . S
C130 H148 0.931 . S
C131 C129 1.365 . S
C131 C132 1.409 . S
C131 H149 0.929 . S
C132 C131 1.409 . S
C132 C133 1.380 . S
C132 H150 0.930 . S
C133 C132 1.380 . S
C133 C140 1.357 . S
C134 C125 1.511 . S
C134 C135 1.341 . S
C134 C136 1.371 . S
C135 C134 1.341 . S
C135 C139 1.394 . S
C135 H151 0.930 . S
C136 C134 1.371 . S
C136 C137 1.392 . S
C136 H152 0.931 . S
C137 C136 1.392 . S
C137 C138 1.331 . S
C137 H155 0.932 . S
C138 C137 1.331 . S
C138 C139 1.336 . S
C139 C135 1.394 . S
C139 C138 1.336 . S
C139 H154 0.929 . S
C140 C130 1.386 . S
C140 C133 1.357 . S
C140 H153 0.928 . S
H141 C117 0.931 . S
H142 C119 0.930 . S
H143 C121 0.929 . S
H144 C122 0.931 . S
H145 C124 0.930 . S
H146 C128 0.931 . S
H147 C126 0.931 . S
H148 C130 0.931 . S
H149 C131 0.929 . S
H150 C132 0.930 . S
H151 C135 0.930 . S
H152 C136 0.931 . S
H153 C140 0.928 . S
H154 C139 0.929 . S
H155 C137 0.932 . S
C156 C157 1.386 . S
C156 C158 1.397 . S
C156 H180 0.931 . S
C157 C156 1.386 . S
C157 C161 1.397 . S
C158 C156 1.397 . S
C158 C159 1.384 . S
C158 H181 0.930 . S
C159 C158 1.384 . S
C159 C160 1.377 . S
C159 C162 1.481 . S
C160 C159 1.377 . S
C160 C161 1.389 . S
C160 H182 0.929 . S
C161 C157 1.397 . S
C161 C160 1.389 . S
C161 H183 0.931 . S
C162 C159 1.481 . S
C162 C163 1.387 . S
C162 C167 1.390 . S
C163 C162 1.387 . S
C163 C164 1.401 . S
C163 H184 0.930 . S
C164 C163 1.401 . S
C164 C165 1.376 . S
C164 C173 1.511 . S
C165 C164 1.376 . S
C165 C166 1.392 . S
C165 H186 0.931 . S
C166 C165 1.392 . S
C166 C167 1.361 . S
C166 C168 1.500 . S
C167 C162 1.390 . S
C167 C166 1.361 . S
C167 H185 0.931 . S
C168 C166 1.500 . S
C168 C169 1.371 . S
C168 C170 1.365 . S
C169 C168 1.371 . S
C169 C179 1.386 . S
C169 H187 0.931 . S
C170 C168 1.365 . S
C170 C171 1.409 . S
C170 H188 0.929 . S
C171 C170 1.409 . S
C171 C172 1.380 . S
C171 H189 0.930 . S
C172 C171 1.380 . S
C172 C179 1.357 . S
C173 C164 1.511 . S
C173 C174 1.341 . S
C173 C175 1.371 . S
C174 C173 1.341 . S
C174 C178 1.394 . S
C174 H190 0.930 . S
C175 C173 1.371 . S
C175 C176 1.392 . S
C175 H191 0.931 . S
C176 C175 1.392 . S
C176 C177 1.331 . S
C176 H194 0.932 . S
C177 C176 1.331 . S
C177 C178 1.336 . S
C178 C174 1.394 . S
C178 C177 1.336 . S
C178 H193 0.929 . S
C179 C169 1.386 . S
C179 C172 1.357 . S
C179 H192 0.928 . S
H180 C156 0.931 . S
H181 C158 0.930 . S
H182 C160 0.929 . S
H183 C161 0.931 . S
H184 C163 0.930 . S
H185 C167 0.931 . S
H186 C165 0.931 . S
H187 C169 0.931 . S
H188 C170 0.929 . S
H189 C171 0.930 . S
H190 C174 0.930 . S
H191 C175 0.931 . S
H192 C179 0.928 . S
H193 C178 0.929 . S
H194 C176 0.932 . S
C195 C196 1.386 . S
C195 C197 1.397 . S
C195 H219 0.931 . S
C196 C195 1.386 . S
C196 C200 1.397 . S
C197 C195 1.397 . S
C197 C198 1.384 . S
C197 H220 0.930 . S
C198 C197 1.384 . S
C198 C199 1.377 . S
C198 C201 1.481 . S
C199 C198 1.377 . S
C199 C200 1.389 . S
C199 H221 0.929 . S
C200 C196 1.397 . S
C200 C199 1.389 . S
C200 H222 0.931 . S
C201 C198 1.481 . S
C201 C202 1.387 . S
C201 C206 1.390 . S
C202 C201 1.387 . S
C202 C203 1.401 . S
C202 H223 0.930 . S
C203 C202 1.401 . S
C203 C204 1.376 . S
C203 C212 1.511 . S
C204 C203 1.376 . S
C204 C205 1.392 . S
C204 H225 0.931 . S
C205 C204 1.392 . S
C205 C206 1.361 . S
C205 C207 1.500 . S
C206 C201 1.390 . S
C206 C205 1.361 . S
C206 H224 0.931 . S
C207 C205 1.500 . S
C207 C208 1.371 . S
C207 C209 1.365 . S
C208 C207 1.371 . S
C208 C218 1.386 . S
C208 H226 0.931 . S
C209 C207 1.365 . S
C209 C210 1.409 . S
C209 H227 0.929 . S
C210 C209 1.409 . S
C210 C211 1.380 . S
C210 H228 0.930 . S
C211 C210 1.380 . S
C211 C218 1.357 . S
C212 C203 1.511 . S
C212 C213 1.341 . S
C212 C214 1.371 . S
C213 C212 1.341 . S
C213 C217 1.394 . S
C213 H229 0.930 . S
C214 C212 1.371 . S
C214 C215 1.392 . S
C214 H230 0.931 . S
C215 C214 1.392 . S
C215 C216 1.331 . S
C215 H233 0.932 . S
C216 C215 1.331 . S
C216 C217 1.336 . S
C217 C213 1.394 . S
C217 C216 1.336 . S
C217 H232 0.929 . S
C218 C208 1.386 . S
C218 C211 1.357 . S
C218 H231 0.928 . S
H219 C195 0.931 . S
H220 C197 0.930 . S
H221 C199 0.929 . S
H222 C200 0.931 . S
H223 C202 0.930 . S
H224 C206 0.931 . S
H225 C204 0.931 . S
H226 C208 0.931 . S
H227 C209 0.929 . S
H228 C210 0.930 . S
H229 C213 0.930 . S
H230 C214 0.931 . S
H231 C218 0.928 . S
H232 C217 0.929 . S
H233 C215 0.932 . S
C234 C235 1.386 . S
C234 C236 1.397 . S
C234 H258 0.931 . S
C235 C234 1.386 . S
C235 C239 1.397 . S
C236 C234 1.397 . S
C236 C237 1.384 . S
C236 H259 0.930 . S
C237 C236 1.384 . S
C237 C238 1.377 . S
C237 C240 1.481 . S
C238 C237 1.377 . S
C238 C239 1.389 . S
C238 H260 0.929 . S
C239 C235 1.397 . S
C239 C238 1.389 . S
C239 H261 0.931 . S
C240 C237 1.481 . S
C240 C241 1.387 . S
C240 C245 1.390 . S
C241 C240 1.387 . S
C241 C242 1.401 . S
C241 H262 0.930 . S
C242 C241 1.401 . S
C242 C243 1.376 . S
C242 C251 1.511 . S
C243 C242 1.376 . S
C243 C244 1.392 . S
C243 H264 0.931 . S
C244 C243 1.392 . S
C244 C245 1.361 . S
C244 C246 1.500 . S
C245 C240 1.390 . S
C245 C244 1.361 . S
C245 H263 0.931 . S
C246 C244 1.500 . S
C246 C247 1.371 . S
C246 C248 1.365 . S
C247 C246 1.371 . S
C247 C257 1.386 . S
C247 H265 0.931 . S
C248 C246 1.365 . S
C248 C249 1.409 . S
C248 H266 0.929 . S
C249 C248 1.409 . S
C249 C250 1.380 . S
C249 H267 0.930 . S
C250 C249 1.380 . S
C250 C257 1.357 . S
C251 C242 1.511 . S
C251 C252 1.341 . S
C251 C253 1.371 . S
C252 C251 1.341 . S
C252 C256 1.394 . S
C252 H268 0.930 . S
C253 C251 1.371 . S
C253 C254 1.392 . S
C253 H269 0.931 . S
C254 C253 1.392 . S
C254 C255 1.331 . S
C254 H272 0.932 . S
C255 C254 1.331 . S
C255 C256 1.336 . S
C256 C252 1.394 . S
C256 C255 1.336 . S
C256 H271 0.929 . S
C257 C247 1.386 . S
C257 C250 1.357 . S
C257 H270 0.928 . S
H258 C234 0.931 . S
H259 C236 0.930 . S
H260 C238 0.929 . S
H261 C239 0.931 . S
H262 C241 0.930 . S
H263 C245 0.931 . S
H264 C243 0.931 . S
H265 C247 0.931 . S
H266 C248 0.929 . S
H267 C249 0.930 . S
H268 C252 0.930 . S
H269 C253 0.931 . S
H270 C257 0.928 . S
H271 C256 0.929 . S
H272 C254 0.932 . S
C273 C274 1.386 . S
C273 C275 1.397 . S
C273 H297 0.931 . S
C274 C273 1.386 . S
C274 C278 1.397 . S
C275 C273 1.397 . S
C275 C276 1.384 . S
C275 H298 0.930 . S
C276 C275 1.384 . S
C276 C277 1.377 . S
C276 C279 1.481 . S
C277 C276 1.377 . S
C277 C278 1.389 . S
C277 H299 0.929 . S
C278 C274 1.397 . S
C278 C277 1.389 . S
C278 H300 0.931 . S
C279 C276 1.481 . S
C279 C280 1.387 . S
C279 C284 1.390 . S
C280 C279 1.387 . S
C280 C281 1.401 . S
C280 H301 0.930 . S
C281 C280 1.401 . S
C281 C282 1.376 . S
C281 C290 1.511 . S
C282 C281 1.376 . S
C282 C283 1.392 . S
C282 H303 0.931 . S
C283 C282 1.392 . S
C283 C284 1.361 . S
C283 C285 1.500 . S
C284 C279 1.390 . S
C284 C283 1.361 . S
C284 H302 0.931 . S
C285 C283 1.500 . S
C285 C286 1.371 . S
C285 C287 1.365 . S
C286 C285 1.371 . S
C286 C296 1.386 . S
C286 H304 0.931 . S
C287 C285 1.365 . S
C287 C288 1.409 . S
C287 H305 0.929 . S
C288 C287 1.409 . S
C288 C289 1.380 . S
C288 H306 0.930 . S
C289 C288 1.380 . S
C289 C296 1.357 . S
C290 C281 1.511 . S
C290 C291 1.341 . S
C290 C292 1.371 . S
C291 C290 1.341 . S
C291 C295 1.394 . S
C291 H307 0.930 . S
C292 C290 1.371 . S
C292 C293 1.392 . S
C292 H308 0.931 . S
C293 C292 1.392 . S
C293 C294 1.331 . S
C293 H311 0.932 . S
C294 C293 1.331 . S
C294 C295 1.336 . S
C295 C291 1.394 . S
C295 C294 1.336 . S
C295 H310 0.929 . S
C296 C286 1.386 . S
C296 C289 1.357 . S
C296 H309 0.928 . S
H297 C273 0.931 . S
H298 C275 0.930 . S
H299 C277 0.929 . S
H300 C278 0.931 . S
H301 C280 0.930 . S
H302 C284 0.931 . S
H303 C282 0.931 . S
H304 C286 0.931 . S
H305 C287 0.929 . S
H306 C288 0.930 . S
H307 C291 0.930 . S
H308 C292 0.931 . S
H309 C296 0.928 . S
H310 C295 0.929 . S
H311 C293 0.932 . S
C312 C313 1.443 . S
C312 N316 1.376 . S
C312 C350 1.389 . S
C313 C312 1.443 . S
C313 C314 1.340 . S
C313 H353 0.951 . S
C314 C313 1.340 . S
C314 C315 1.439 . S
C314 H354 0.950 . S
C315 C314 1.439 . S
C315 N316 1.374 . S
C315 C349 1.395 . S
N316 C312 1.376 . S
N316 C315 1.374 . S
N316 Co317 2.008 . S
Co317 N316 2.008 . S
Co317 N318 1.995 . S
Co317 N323 2.008 . S
Co317 N328 1.995 . S
Co317 N333 2.282 . S
Co317 N339 2.282 1_455 S
N318 Co317 1.995 . S
N318 C319 1.376 . S
N318 C322 1.383 1_455 S
C319 N318 1.376 . S
C319 C320 1.446 1_455 S
C319 C349 1.391 . S
C320 C319 1.446 1_655 S
C320 C321 1.339 . S
C320 H355 0.949 . S
C321 C320 1.339 . S
C321 C322 1.439 . S
C321 H356 0.950 . S
C322 N318 1.383 1_655 S
C322 C321 1.439 . S
C322 C351 1.392 . S
N323 Co317 2.008 . S
N323 C324 1.376 1_455 S
N323 C327 1.374 . S
C324 N323 1.376 1_655 S
C324 C325 1.443 . S
C324 C351 1.389 . S
C325 C324 1.443 . S
C325 C326 1.340 . S
C325 H357 0.951 . S
C326 C325 1.340 . S
C326 C327 1.439 1_655 S
C326 H358 0.950 . S
C327 N323 1.374 . S
C327 C326 1.439 1_455 S
C327 C352 1.395 . S
N328 Co317 1.995 . S
N328 C329 1.376 . S
N328 C332 1.383 . S
C329 N328 1.376 . S
C329 C330 1.446 . S
C329 C352 1.391 . S
C330 C329 1.446 . S
C330 C331 1.339 . S
C330 H359 0.949 . S
C331 C330 1.339 . S
C331 C332 1.439 . S
C331 H360 0.950 . S
C332 N328 1.383 . S
C332 C331 1.439 . S
C332 C350 1.392 . S
N333 Co317 2.282 . S
N333 C336 1.332 . S
N333 C338 1.332 . S
C334 C335 1.386 . S
C334 C337 1.388 . S
C335 C334 1.386 . S
C335 C336 1.382 . S
C335 H361 0.950 . S
C336 N333 1.332 . S
C336 C335 1.382 . S
C336 H347 0.952 . S
C337 C334 1.388 . S
C337 C338 1.382 . S
C337 H362 0.950 . S
C338 N333 1.332 . S
C338 C337 1.382 . S
C338 H348 0.948 . S
N339 Co317 2.282 1_655 S
N339 C343 1.332 . S
N339 C344 1.332 . S
C340 C341 1.388 . S
C340 C344 1.382 . S
C340 H363 0.950 . S
C341 C340 1.388 . S
C341 C342 1.386 . S
C342 C341 1.386 . S
C342 C343 1.382 . S
C342 H364 0.950 . S
C343 N339 1.332 . S
C343 C342 1.382 . S
C343 H345 0.952 . S
C344 N339 1.332 . S
C344 C340 1.382 . S
C344 H346 0.948 . S
H345 C343 0.952 . S
H346 C344 0.948 . S
H347 C336 0.952 . S
H348 C338 0.948 . S
C349 C315 1.395 . S
C349 C319 1.391 . S
C350 C312 1.389 . S
C350 C332 1.392 . S
C351 C322 1.392 . S
C351 C324 1.389 . S
C352 C327 1.395 . S
C352 C329 1.391 . S
H353 C313 0.951 . S
H354 C314 0.950 . S
H355 C320 0.949 . S
H356 C321 0.950 . S
H357 C325 0.951 . S
H358 C326 0.950 . S
H359 C330 0.949 . S
H360 C331 0.950 . S
H361 C335 0.950 . S
H362 C337 0.950 . S
H363 C340 0.950 . S
H364 C342 0.950 . S
C365 C366 1.443 . S
C365 N369 1.376 . S
C365 C403 1.389 . S
C366 C365 1.443 . S
C366 C367 1.340 . S
C366 H406 0.951 . S
C367 C366 1.340 . S
C367 C368 1.439 . S
C367 H407 0.950 . S
C368 C367 1.439 . S
C368 N369 1.374 . S
C368 C402 1.395 . S
N369 C365 1.376 . S
N369 C368 1.374 . S
N369 Co370 2.008 . S
Co370 N369 2.008 . S
Co370 N371 1.995 1_455 S
Co370 N376 2.008 1_455 S
Co370 N381 1.995 . S
Co370 N386 2.282 . S
Co370 N392 2.282 1_455 S
N371 Co370 1.995 1_655 S
N371 C372 1.376 . S
N371 C375 1.383 . S
C372 N371 1.376 . S
C372 C373 1.446 . S
C372 C402 1.391 1_655 S
C373 C372 1.446 . S
C373 C374 1.339 . S
C373 H408 0.949 . S
C374 C373 1.339 . S
C374 C375 1.439 . S
C374 H409 0.950 . S
C375 N371 1.383 . S
C375 C374 1.439 . S
C375 C404 1.392 . S
N376 Co370 2.008 1_655 S
N376 C377 1.376 . S
N376 C380 1.374 . S
C377 N376 1.376 . S
C377 C378 1.443 . S
C377 C404 1.389 . S
C378 C377 1.443 . S
C378 C379 1.340 . S
C378 H410 0.951 . S
C379 C378 1.340 . S
C379 C380 1.439 . S
C379 H411 0.950 . S
C380 N376 1.374 . S
C380 C379 1.439 . S
C380 C405 1.395 1_655 S
N381 Co370 1.995 . S
N381 C382 1.376 . S
N381 C385 1.383 . S
C382 N381 1.376 . S
C382 C383 1.446 . S
C382 C405 1.391 . S
C383 C382 1.446 . S
C383 C384 1.339 . S
C383 H412 0.949 . S
C384 C383 1.339 . S
C384 C385 1.439 . S
C384 H413 0.950 . S
C385 N381 1.383 . S
C385 C384 1.439 . S
C385 C403 1.392 . S
N386 Co370 2.282 . S
N386 C389 1.332 . S
N386 C391 1.332 . S
C387 C388 1.386 . S
C387 C390 1.388 . S
C388 C387 1.386 . S
C388 C389 1.382 . S
C388 H414 0.950 . S
C389 N386 1.332 . S
C389 C388 1.382 . S
C389 H400 0.952 . S
C390 C387 1.388 . S
C390 C391 1.382 . S
C390 H415 0.950 . S
C391 N386 1.332 . S
C391 C390 1.382 . S
C391 H401 0.948 . S
N392 Co370 2.282 1_655 S
N392 C396 1.332 . S
N392 C397 1.332 . S
C393 C394 1.388 . S
C393 C397 1.382 . S
C393 H416 0.950 . S
C394 C393 1.388 . S
C394 C395 1.386 . S
C395 C394 1.386 . S
C395 C396 1.382 . S
C395 H417 0.950 . S
C396 N392 1.332 . S
C396 C395 1.382 . S
C396 H398 0.952 . S
C397 N392 1.332 . S
C397 C393 1.382 . S
C397 H399 0.948 . S
H398 C396 0.952 . S
H399 C397 0.948 . S
H400 C389 0.952 . S
H401 C391 0.948 . S
C402 C368 1.395 . S
C402 C372 1.391 1_455 S
C403 C365 1.389 . S
C403 C385 1.392 . S
C404 C375 1.392 . S
C404 C377 1.389 . S
C405 C380 1.395 1_455 S
C405 C382 1.391 . S
H406 C366 0.951 . S
H407 C367 0.950 . S
H408 C373 0.949 . S
H409 C374 0.950 . S
H410 C378 0.951 . S
H411 C379 0.950 . S
H412 C383 0.949 . S
H413 C384 0.950 . S
H414 C388 0.950 . S
H415 C390 0.950 . S
H416 C393 0.950 . S
H417 C395 0.950 . S
C418 C419 1.443 . S
C418 N422 1.376 . S
C418 C456 1.389 . S
C419 C418 1.443 . S
C419 C420 1.340 . S
C419 H459 0.951 . S
C420 C419 1.340 . S
C420 C421 1.439 . S
C420 H460 0.950 . S
C421 C420 1.439 . S
C421 N422 1.374 . S
C421 C455 1.395 1_565 S
N422 C418 1.376 . S
N422 C421 1.374 . S
N422 Co423 2.008 1_565 S
Co423 N422 2.008 1_545 S
Co423 N424 1.995 . S
Co423 N429 2.008 . S
Co423 N434 1.995 1_545 S
Co423 N439 2.282 . S
Co423 N445 2.282 1_545 S
N424 Co423 1.995 . S
N424 C425 1.376 . S
N424 C428 1.383 . S
C425 N424 1.376 . S
C425 C426 1.446 . S
C425 C455 1.391 . S
C426 C425 1.446 . S
C426 C427 1.339 . S
C426 H461 0.949 . S
C427 C426 1.339 . S
C427 C428 1.439 . S
C427 H462 0.950 . S
C428 N424 1.383 . S
C428 C427 1.439 . S
C428 C457 1.392 . S
N429 Co423 2.008 . S
N429 C430 1.376 . S
N429 C433 1.374 . S
C430 N429 1.376 . S
C430 C431 1.443 . S
C430 C457 1.389 . S
C431 C430 1.443 . S
C431 C432 1.340 . S
C431 H463 0.951 . S
C432 C431 1.340 . S
C432 C433 1.439 . S
C432 H464 0.950 . S
C433 N429 1.374 . S
C433 C432 1.439 . S
C433 C458 1.395 . S
N434 Co423 1.995 1_565 S
N434 C435 1.376 . S
N434 C438 1.383 . S
C435 N434 1.376 . S
C435 C436 1.446 . S
C435 C458 1.391 1_565 S
C436 C435 1.446 . S
C436 C437 1.339 . S
C436 H465 0.949 . S
C437 C436 1.339 . S
C437 C438 1.439 . S
C437 H466 0.950 . S
C438 N434 1.383 . S
C438 C437 1.439 . S
C438 C456 1.392 . S
N439 Co423 2.282 . S
N439 C442 1.332 . S
N439 C444 1.332 . S
C440 C441 1.386 . S
C440 C443 1.388 . S
C441 C440 1.386 . S
C441 C442 1.382 . S
C441 H467 0.950 . S
C442 N439 1.332 . S
C442 C441 1.382 . S
C442 H453 0.952 . S
C443 C440 1.388 . S
C443 C444 1.382 . S
C443 H468 0.950 . S
C444 N439 1.332 . S
C444 C443 1.382 . S
C444 H454 0.948 . S
N445 Co423 2.282 1_565 S
N445 C449 1.332 . S
N445 C450 1.332 . S
C446 C447 1.388 . S
C446 C450 1.382 . S
C446 H469 0.950 . S
C447 C446 1.388 . S
C447 C448 1.386 . S
C448 C447 1.386 . S
C448 C449 1.382 . S
C448 H470 0.950 . S
C449 N445 1.332 . S
C449 C448 1.382 . S
C449 H451 0.952 . S
C450 N445 1.332 . S
C450 C446 1.382 . S
C450 H452 0.948 . S
H451 C449 0.952 . S
H452 C450 0.948 . S
H453 C442 0.952 . S
H454 C444 0.948 . S
C455 C421 1.395 1_545 S
C455 C425 1.391 . S
C456 C418 1.389 . S
C456 C438 1.392 . S
C457 C428 1.392 . S
C457 C430 1.389 . S
C458 C433 1.395 . S
C458 C435 1.391 1_545 S
H459 C419 0.951 . S
H460 C420 0.950 . S
H461 C426 0.949 . S
H462 C427 0.950 . S
H463 C431 0.951 . S
H464 C432 0.950 . S
H465 C436 0.949 . S
H466 C437 0.950 . S
H467 C441 0.950 . S
H468 C443 0.950 . S
H469 C446 0.950 . S
H470 C448 0.950 . S
C471 C472 1.443 . S
C471 N475 1.376 . S
C471 C509 1.389 . S
C472 C471 1.443 . S
C472 C473 1.340 . S
C472 H512 0.951 . S
C473 C472 1.340 . S
C473 C474 1.439 . S
C473 H513 0.950 . S
C474 C473 1.439 . S
C474 N475 1.374 . S
C474 C508 1.395 . S
N475 C471 1.376 . S
N475 C474 1.374 . S
N475 Co476 2.008 . S
Co476 N475 2.008 . S
Co476 N477 2.014 . S
Co476 N482 2.008 1_554 S
Co476 N487 1.995 . S
Co476 N492 2.282 1_554 S
Co476 N498 2.282 . S
N477 Co476 2.014 . S
N477 C478 1.383 . S
N477 C481 1.351 1_554 S
C478 N477 1.383 . S
C478 C479 1.446 1_554 S
C478 C508 1.391 . S
C479 C478 1.446 1_556 S
C479 C480 1.339 . S
C479 H514 0.949 . S
C480 C479 1.339 . S
C480 C481 1.439 . S
C480 H515 0.950 . S
C481 N477 1.351 1_556 S
C481 C480 1.439 . S
C481 C510 1.392 . S
N482 Co476 2.008 1_556 S
N482 C483 1.376 . S
N482 C486 1.374 . S
C483 N482 1.376 . S
C483 C484 1.443 . S
C483 C510 1.389 . S
C484 C483 1.443 . S
C484 C485 1.340 . S
C484 H516 0.951 . S
C485 C484 1.340 . S
C485 C486 1.460 . S
C485 H517 0.950 . S
C486 N482 1.374 . S
C486 C485 1.460 . S
C486 C511 1.378 1_556 S
N487 Co476 1.995 . S
N487 C488 1.376 . S
N487 C491 1.383 . S
C488 N487 1.376 . S
C488 C489 1.446 . S
C488 C511 1.391 . S
C489 C488 1.446 . S
C489 C490 1.339 . S
C489 H518 0.949 . S
C490 C489 1.339 . S
C490 C491 1.439 . S
C490 H519 0.950 . S
C491 N487 1.383 . S
C491 C490 1.439 . S
C491 C509 1.392 . S
N492 Co476 2.282 1_556 S
N492 C495 1.332 . S
N492 C497 1.332 . S
C493 C494 1.386 . S
C493 C496 1.388 . S
C494 C493 1.386 . S
C494 C495 1.382 . S
C494 H520 0.950 . S
C495 N492 1.332 . S
C495 C494 1.382 . S
C495 H506 0.952 . S
C496 C493 1.388 . S
C496 C497 1.382 . S
C496 H521 0.950 . S
C497 N492 1.332 . S
C497 C496 1.382 . S
C497 H507 0.948 . S
N498 Co476 2.282 . S
N498 C502 1.332 . S
N498 C503 1.332 . S
C499 C500 1.388 . S
C499 C503 1.382 . S
C499 H522 0.950 . S
C500 C499 1.388 . S
C500 C501 1.386 . S
C501 C500 1.386 . S
C501 C502 1.382 . S
C501 H523 0.950 . S
C502 N498 1.332 . S
C502 C501 1.382 . S
C502 H504 0.952 . S
C503 N498 1.332 . S
C503 C499 1.382 . S
C503 H505 0.948 . S
H504 C502 0.952 . S
H505 C503 0.948 . S
H506 C495 0.952 . S
H507 C497 0.948 . S
C508 C474 1.395 . S
C508 C478 1.391 . S
C509 C471 1.389 . S
C509 C491 1.392 . S
C510 C481 1.392 . S
C510 C483 1.389 . S
C511 C486 1.378 1_554 S
C511 C488 1.391 . S
H512 C472 0.951 . S
H513 C473 0.950 . S
H514 C479 0.949 . S
H515 C480 0.950 . S
H516 C484 0.951 . S
H517 C485 0.950 . S
H518 C489 0.949 . S
H519 C490 0.950 . S
H520 C494 0.950 . S
H521 C496 0.950 . S
H522 C499 0.950 . S
H523 C501 0.950 . S
C524 C525 1.443 . S
C524 N528 1.417 . S
C524 C562 1.389 . S
C525 C524 1.443 . S
C525 C526 1.340 . S
C525 H565 0.951 . S
C526 C525 1.340 . S
C526 C527 1.434 1_565 S
C526 H566 0.950 . S
C527 C526 1.434 1_545 S
C527 N528 1.375 1_545 S
C527 C561 1.400 . S
N528 C524 1.417 . S
N528 C527 1.375 1_565 S
N528 Co529 1.980 1_565 S
Co529 N528 1.980 1_545 S
Co529 N530 1.995 . S
Co529 N535 2.008 . S
Co529 N540 1.995 . S
Co529 N545 2.282 . S
Co529 N551 2.282 1_545 S
N530 Co529 1.995 . S
N530 C531 1.376 . S
N530 C534 1.383 . S
C531 N530 1.376 . S
C531 C532 1.446 . S
C531 C561 1.391 . S
C532 C531 1.446 . S
C532 C533 1.339 . S
C532 H567 0.949 . S
C533 C532 1.339 . S
C533 C534 1.439 . S
C533 H568 0.950 . S
C534 N530 1.383 . S
C534 C533 1.439 . S
C534 C563 1.392 . S
N535 Co529 2.008 . S
N535 C536 1.376 . S
N535 C539 1.374 . S
C536 N535 1.376 . S
C536 C537 1.443 . S
C536 C563 1.389 . S
C537 C536 1.443 . S
C537 C538 1.340 . S
C537 H569 0.951 . S
C538 C537 1.340 . S
C538 C539 1.439 . S
C538 H570 0.950 . S
C539 N535 1.374 . S
C539 C538 1.439 . S
C539 C564 1.395 . S
N540 Co529 1.995 . S
N540 C541 1.376 . S
N540 C544 1.383 1_545 S
C541 N540 1.376 . S
C541 C542 1.446 1_545 S
C541 C564 1.391 . S
C542 C541 1.446 1_565 S
C542 C543 1.339 . S
C542 H571 0.949 . S
C543 C542 1.339 . S
C543 C544 1.439 . S
C543 H572 0.950 . S
C544 N540 1.383 1_565 S
C544 C543 1.439 . S
C544 C562 1.392 . S
N545 Co529 2.282 . S
N545 C548 1.332 . S
N545 C550 1.332 . S
C546 C547 1.386 . S
C546 C549 1.388 . S
C547 C546 1.386 . S
C547 C548 1.382 . S
C547 H573 0.950 . S
C548 N545 1.332 . S
C548 C547 1.382 . S
C548 H559 0.952 . S
C549 C546 1.388 . S
C549 C550 1.382 . S
C549 H574 0.950 . S
C550 N545 1.332 . S
C550 C549 1.382 . S
C550 H560 0.948 . S
N551 Co529 2.282 1_565 S
N551 C555 1.332 . S
N551 C556 1.332 . S
C552 C553 1.388 . S
C552 C556 1.382 . S
C552 H575 0.950 . S
C553 C552 1.388 . S
C553 C554 1.386 . S
C554 C553 1.386 . S
C554 C555 1.382 . S
C554 H576 0.950 . S
C555 N551 1.332 . S
C555 C554 1.382 . S
C555 H557 0.952 . S
C556 N551 1.332 . S
C556 C552 1.382 . S
C556 H558 0.948 . S
H557 C555 0.952 . S
H558 C556 0.948 . S
H559 C548 0.952 . S
H560 C550 0.948 . S
C561 C527 1.400 . S
C561 C531 1.391 . S
C562 C524 1.389 . S
C562 C544 1.392 . S
C563 C534 1.392 . S
C563 C536 1.389 . S
C564 C539 1.395 . S
C564 C541 1.391 . S
H565 C525 0.951 . S
H566 C526 0.950 . S
H567 C532 0.949 . S
H568 C533 0.950 . S
H569 C537 0.951 . S
H570 C538 0.950 . S
H571 C542 0.949 . S
H572 C543 0.950 . S
H573 C547 0.950 . S
H574 C549 0.950 . S
H575 C552 0.950 . S
H576 C554 0.950 . S
C577 C578 1.443 . S
C577 N581 1.376 . S
C577 C615 1.389 . S
C578 C577 1.443 . S
C578 C579 1.340 . S
C578 H618 0.951 . S
C579 C578 1.340 . S
C579 C580 1.439 . S
C579 H619 0.950 . S
C580 C579 1.439 . S
C580 N581 1.374 . S
C580 C614 1.395 . S
N581 C577 1.376 . S
N581 C580 1.374 . S
N581 Co582 2.008 . S
Co582 N581 2.008 . S
Co582 N583 1.995 . S
Co582 N588 2.008 . S
Co582 N593 1.995 . S
Co582 N598 2.264 1_554 S
Co582 N604 2.282 . S
N583 Co582 1.995 . S
N583 C584 1.376 . S
N583 C587 1.383 1_554 S
C584 N583 1.376 . S
C584 C585 1.446 1_554 S
C584 C614 1.391 . S
C585 C584 1.446 1_556 S
C585 C586 1.339 . S
C585 H620 0.949 . S
C586 C585 1.339 . S
C586 C587 1.439 . S
C586 H621 0.950 . S
C587 N583 1.383 1_556 S
C587 C586 1.439 . S
C587 C616 1.392 . S
N588 Co582 2.008 . S
N588 C589 1.376 1_554 S
N588 C592 1.374 . S
C589 N588 1.376 1_556 S
C589 C590 1.443 . S
C589 C616 1.389 . S
C590 C589 1.443 . S
C590 C591 1.340 . S
C590 H622 0.951 . S
C591 C590 1.340 . S
C591 C592 1.439 1_556 S
C591 H623 0.950 . S
C592 N588 1.374 . S
C592 C591 1.439 1_554 S
C592 C617 1.395 . S
N593 Co582 1.995 . S
N593 C594 1.376 . S
N593 C597 1.383 . S
C594 N593 1.376 . S
C594 C595 1.446 . S
C594 C617 1.391 . S
C595 C594 1.446 . S
C595 C596 1.339 . S
C595 H624 0.949 . S
C596 C595 1.339 . S
C596 C597 1.439 . S
C596 H625 0.950 . S
C597 N593 1.383 . S
C597 C596 1.439 . S
C597 C615 1.392 . S
N598 Co582 2.264 1_556 S
N598 C601 1.340 . S
N598 C603 1.346 . S
C599 C600 1.386 . S
C599 C602 1.388 . S
C600 C599 1.386 . S
C600 C601 1.382 . S
C600 H626 0.950 . S
C601 N598 1.340 . S
C601 C600 1.382 . S
C601 H612 0.952 1_556 S
C602 C599 1.388 . S
C602 C603 1.382 . S
C602 H627 0.950 . S
C603 N598 1.346 . S
C603 C602 1.382 . S
C603 H613 0.948 . S
N604 Co582 2.282 . S
N604 C608 1.332 . S
N604 C609 1.332 . S
C605 C606 1.388 . S
C605 C609 1.382 . S
C605 H628 0.950 . S
C606 C605 1.388 . S
C606 C607 1.386 . S
C607 C606 1.386 . S
C607 C608 1.382 . S
C607 H629 0.950 . S
C608 N604 1.332 . S
C608 C607 1.382 . S
C608 H610 0.952 . S
C609 N604 1.332 . S
C609 C605 1.382 . S
C609 H611 0.948 . S
H610 C608 0.952 . S
H611 C609 0.948 . S
H612 C601 0.952 1_554 S
H613 C603 0.948 . S
C614 C580 1.395 . S
C614 C584 1.391 . S
C615 C577 1.389 . S
C615 C597 1.392 . S
C616 C587 1.392 . S
C616 C589 1.389 . S
C617 C592 1.395 . S
C617 C594 1.391 . S
H618 C578 0.951 . S
H619 C579 0.950 . S
H620 C585 0.949 . S
H621 C586 0.950 . S
H622 C590 0.951 . S
H623 C591 0.950 . S
H624 C595 0.949 . S
H625 C596 0.950 . S
H626 C600 0.950 . S
H627 C602 0.950 . S
H628 C605 0.950 . S
H629 C607 0.950 . S
H630 C638 0.929 . S
H631 C640 0.930 . S
H632 C642 0.930 . S
H633 C645 0.929 . S
H634 C648 0.930 . S
H635 C650 0.960 . S
H636 C650 0.960 . S
H637 C650 0.960 . S
C638 H630 0.929 . S
C638 C639 1.377 . S
C638 C640 1.384 . S
C639 C638 1.377 . S
C639 C645 1.390 . S
C640 H631 0.930 . S
C640 C638 1.384 . S
C640 C641 1.372 . S
C641 C640 1.372 . S
C641 C642 1.400 . S
C641 C646 1.490 . S
C642 H632 0.930 . S
C642 C641 1.400 . S
C642 C645 1.386 . S
H643 C659 0.930 . S
H644 C660 0.931 . S
C645 H633 0.929 . S
C645 C639 1.390 . S
C645 C642 1.386 . S
C646 C641 1.490 . S
C646 C648 1.395 . S
C646 C649 1.403 . S
H647 C653 0.930 . S
C648 H634 0.930 . S
C648 C646 1.395 . S
C648 C651 1.403 . S
C649 C646 1.403 . S
C649 C650 1.524 . S
C649 C653 1.400 . S
C650 H635 0.960 . S
C650 H636 0.960 . S
C650 H637 0.960 . S
C650 C649 1.524 . S
C651 C648 1.403 . S
C651 C652 1.392 . S
C651 C655 1.495 . S
C652 C651 1.392 . S
C652 C653 1.385 . S
C652 C654 1.478 . S
C653 H647 0.930 . S
C653 C649 1.400 . S
C653 C652 1.385 . S
C654 C652 1.478 . S
C654 C656 1.381 . S
C654 C660 1.383 . S
C655 C651 1.495 . S
C655 H661 0.959 . S
C655 H662 0.961 . S
C655 H663 0.960 . S
C656 C654 1.381 . S
C656 C657 1.394 . S
C656 H664 0.930 . S
C657 C656 1.394 . S
C657 C658 1.383 . S
C657 H665 0.929 . S
C658 C657 1.383 . S
C658 C659 1.377 . S
C659 H643 0.930 . S
C659 C658 1.377 . S
C659 C660 1.379 . S
C660 H644 0.931 . S
C660 C654 1.383 . S
C660 C659 1.379 . S
H661 C655 0.959 . S
H662 C655 0.961 . S
H663 C655 0.960 . S
H664 C656 0.930 . S
H665 C657 0.929 . S
H666 C674 0.929 . S
H667 C676 0.930 . S
H668 C678 0.930 . S
H669 C681 0.929 . S
H670 C684 0.930 . S
H671 C686 0.960 . S
H672 C686 0.960 . S
H673 C686 0.960 . S
C674 H666 0.929 . S
C674 C675 1.377 . S
C674 C676 1.384 . S
C675 C674 1.377 . S
C675 C681 1.390 . S
C676 H667 0.930 . S
C676 C674 1.384 . S
C676 C677 1.372 . S
C677 C676 1.372 . S
C677 C678 1.400 . S
C677 C682 1.490 . S
C678 H668 0.930 . S
C678 C677 1.400 . S
C678 C681 1.386 . S
H679 C695 0.930 . S
H680 C696 0.931 . S
C681 H669 0.929 . S
C681 C675 1.390 . S
C681 C678 1.386 . S
C682 C677 1.490 . S
C682 C684 1.395 . S
C682 C685 1.403 . S
H683 C689 0.930 . S
C684 H670 0.930 . S
C684 C682 1.395 . S
C684 C687 1.403 . S
C685 C682 1.403 . S
C685 C686 1.524 . S
C685 C689 1.400 . S
C686 H671 0.960 . S
C686 H672 0.960 . S
C686 H673 0.960 . S
C686 C685 1.524 . S
C687 C684 1.403 . S
C687 C688 1.392 . S
C687 C691 1.495 . S
C688 C687 1.392 . S
C688 C689 1.385 . S
C688 C690 1.478 . S
C689 H683 0.930 . S
C689 C685 1.400 . S
C689 C688 1.385 . S
C690 C688 1.478 . S
C690 C692 1.381 . S
C690 C696 1.383 . S
C691 C687 1.495 . S
C691 H697 0.959 . S
C691 H698 0.961 . S
C691 H699 0.960 . S
C692 C690 1.381 . S
C692 C693 1.394 . S
C692 H700 0.930 . S
C693 C692 1.394 . S
C693 C694 1.383 . S
C693 H701 0.929 . S
C694 C693 1.383 . S
C694 C695 1.377 . S
C695 H679 0.930 . S
C695 C694 1.377 . S
C695 C696 1.379 . S
C696 H680 0.931 . S
C696 C690 1.383 . S
C696 C695 1.379 . S
H697 C691 0.959 . S
H698 C691 0.961 . S
H699 C691 0.960 . S
H700 C692 0.930 . S
H701 C693 0.929 . S
H702 C710 0.929 . S
H703 C712 0.930 . S
H704 C714 0.930 . S
H705 C717 0.929 . S
H706 C720 0.930 . S
H707 C722 0.960 . S
H708 C722 0.960 . S
H709 C722 0.960 . S
C710 H702 0.929 . S
C710 C711 1.377 . S
C710 C712 1.384 . S
C711 C710 1.377 . S
C711 C717 1.390 . S
C712 H703 0.930 . S
C712 C710 1.384 . S
C712 C713 1.372 . S
C713 C712 1.372 . S
C713 C714 1.400 . S
C713 C718 1.490 . S
C714 H704 0.930 . S
C714 C713 1.400 . S
C714 C717 1.386 . S
H715 C731 0.930 . S
H716 C732 0.931 . S
C717 H705 0.929 . S
C717 C711 1.390 . S
C717 C714 1.386 . S
C718 C713 1.490 . S
C718 C720 1.395 . S
C718 C721 1.403 . S
H719 C725 0.930 . S
C720 H706 0.930 . S
C720 C718 1.395 . S
C720 C723 1.403 . S
C721 C718 1.403 . S
C721 C722 1.524 . S
C721 C725 1.400 . S
C722 H707 0.960 . S
C722 H708 0.960 . S
C722 H709 0.960 . S
C722 C721 1.524 . S
C723 C720 1.403 . S
C723 C724 1.392 . S
C723 C727 1.495 . S
C724 C723 1.392 . S
C724 C725 1.385 . S
C724 C726 1.478 . S
C725 H719 0.930 . S
C725 C721 1.400 . S
C725 C724 1.385 . S
C726 C724 1.478 . S
C726 C728 1.381 . S
C726 C732 1.383 . S
C727 C723 1.495 . S
C727 H733 0.959 . S
C727 H734 0.961 . S
C727 H735 0.960 . S
C728 C726 1.381 . S
C728 C729 1.394 . S
C728 H736 0.930 . S
C729 C728 1.394 . S
C729 C730 1.383 . S
C729 H737 0.929 . S
C730 C729 1.383 . S
C730 C731 1.377 . S
C731 H715 0.930 . S
C731 C730 1.377 . S
C731 C732 1.379 . S
C732 H716 0.931 . S
C732 C726 1.383 . S
C732 C731 1.379 . S
H733 C727 0.959 . S
H734 C727 0.961 . S
H735 C727 0.960 . S
H736 C728 0.930 . S
H737 C729 0.929 . S
H738 C746 0.929 . S
H739 C748 0.930 . S
H740 C750 0.930 . S
H741 C753 0.929 . S
H742 C756 0.930 . S
H743 C758 0.960 . S
H744 C758 0.960 . S
H745 C758 0.960 . S
C746 H738 0.929 . S
C746 C747 1.377 . S
C746 C748 1.384 . S
C747 C746 1.377 . S
C747 C753 1.390 . S
C748 H739 0.930 . S
C748 C746 1.384 . S
C748 C749 1.372 . S
C749 C748 1.372 . S
C749 C750 1.400 . S
C749 C754 1.490 . S
C750 H740 0.930 . S
C750 C749 1.400 . S
C750 C753 1.386 . S
H751 C767 0.930 . S
H752 C768 0.931 . S
C753 H741 0.929 . S
C753 C747 1.390 . S
C753 C750 1.386 . S
C754 C749 1.490 . S
C754 C756 1.395 . S
C754 C757 1.403 . S
H755 C761 0.930 . S
C756 H742 0.930 . S
C756 C754 1.395 . S
C756 C759 1.403 . S
C757 C754 1.403 . S
C757 C758 1.524 . S
C757 C761 1.400 . S
C758 H743 0.960 . S
C758 H744 0.960 . S
C758 H745 0.960 . S
C758 C757 1.524 . S
C759 C756 1.403 . S
C759 C760 1.392 . S
C759 C763 1.495 . S
C760 C759 1.392 . S
C760 C761 1.385 . S
C760 C762 1.478 . S
C761 H755 0.930 . S
C761 C757 1.400 . S
C761 C760 1.385 . S
C762 C760 1.478 . S
C762 C764 1.381 . S
C762 C768 1.383 . S
C763 C759 1.495 . S
C763 H769 0.959 . S
C763 H770 0.961 . S
C763 H771 0.960 . S
C764 C762 1.381 . S
C764 C765 1.394 . S
C764 H772 0.930 . S
C765 C764 1.394 . S
C765 C766 1.383 . S
C765 H773 0.929 . S
C766 C765 1.383 . S
C766 C767 1.377 . S
C767 H751 0.930 . S
C767 C766 1.377 . S
C767 C768 1.379 . S
C768 H752 0.931 . S
C768 C762 1.383 . S
C768 C767 1.379 . S
H769 C763 0.959 . S
H770 C763 0.961 . S
H771 C763 0.960 . S
H772 C764 0.930 . S
H773 C765 0.929 . S
H774 C782 0.929 . S
H775 C784 0.930 . S
H776 C786 0.930 . S
H777 C789 0.929 . S
H778 C792 0.930 . S
H779 C794 0.960 . S
H780 C794 0.960 . S
H781 C794 0.960 . S
C782 H774 0.929 . S
C782 C783 1.377 . S
C782 C784 1.384 . S
C783 C782 1.377 . S
C783 C789 1.390 . S
C784 H775 0.930 . S
C784 C782 1.384 . S
C784 C785 1.372 . S
C785 C784 1.372 . S
C785 C786 1.400 . S
C785 C790 1.490 . S
C786 H776 0.930 . S
C786 C785 1.400 . S
C786 C789 1.386 . S
H787 C803 0.930 . S
H788 C804 0.931 . S
C789 H777 0.929 . S
C789 C783 1.390 . S
C789 C786 1.386 . S
C790 C785 1.490 . S
C790 C792 1.395 . S
C790 C793 1.403 . S
H791 C797 0.930 . S
C792 H778 0.930 . S
C792 C790 1.395 . S
C792 C795 1.403 . S
C793 C790 1.403 . S
C793 C794 1.524 . S
C793 C797 1.400 . S
C794 H779 0.960 . S
C794 H780 0.960 . S
C794 H781 0.960 . S
C794 C793 1.524 . S
C795 C792 1.403 . S
C795 C796 1.392 . S
C795 C799 1.495 . S
C796 C795 1.392 . S
C796 C797 1.385 . S
C796 C798 1.478 . S
C797 H791 0.930 . S
C797 C793 1.400 . S
C797 C796 1.385 . S
C798 C796 1.478 . S
C798 C800 1.381 . S
C798 C804 1.383 . S
C799 C795 1.495 . S
C799 H805 0.959 . S
C799 H806 0.961 . S
C799 H807 0.960 . S
C800 C798 1.381 . S
C800 C801 1.394 . S
C800 H808 0.930 . S
C801 C800 1.394 . S
C801 C802 1.383 . S
C801 H809 0.929 . S
C802 C801 1.383 . S
C802 C803 1.377 . S
C803 H787 0.930 . S
C803 C802 1.377 . S
C803 C804 1.379 . S
C804 H788 0.931 . S
C804 C798 1.383 . S
C804 C803 1.379 . S
H805 C799 0.959 . S
H806 C799 0.961 . S
H807 C799 0.960 . S
H808 C800 0.930 . S
H809 C801 0.929 . S
H810 C818 0.929 . S
H811 C820 0.930 . S
H812 C822 0.930 . S
H813 C825 0.929 . S
H814 C828 0.930 . S
H815 C830 0.960 . S
H816 C830 0.960 . S
H817 C830 0.960 . S
C818 H810 0.929 . S
C818 C819 1.377 . S
C818 C820 1.384 . S
C819 C818 1.377 . S
C819 C825 1.390 . S
C820 H811 0.930 . S
C820 C818 1.384 . S
C820 C821 1.372 . S
C821 C820 1.372 . S
C821 C822 1.400 . S
C821 C826 1.490 . S
C822 H812 0.930 . S
C822 C821 1.400 . S
C822 C825 1.386 . S
H823 C839 0.930 . S
H824 C840 0.931 . S
C825 H813 0.929 . S
C825 C819 1.390 . S
C825 C822 1.386 . S
C826 C821 1.490 . S
C826 C828 1.395 . S
C826 C829 1.403 . S
H827 C833 0.930 . S
C828 H814 0.930 . S
C828 C826 1.395 . S
C828 C831 1.403 . S
C829 C826 1.403 . S
C829 C830 1.524 . S
C829 C833 1.400 . S
C830 H815 0.960 . S
C830 H816 0.960 . S
C830 H817 0.960 . S
C830 C829 1.524 . S
C831 C828 1.403 . S
C831 C832 1.392 . S
C831 C835 1.495 . S
C832 C831 1.392 . S
C832 C833 1.385 . S
C832 C834 1.478 . S
C833 H827 0.930 . S
C833 C829 1.400 . S
C833 C832 1.385 . S
C834 C832 1.478 . S
C834 C836 1.381 . S
C834 C840 1.383 . S
C835 C831 1.495 . S
C835 H841 0.959 . S
C835 H842 0.961 . S
C835 H843 0.960 . S
C836 C834 1.381 . S
C836 C837 1.394 . S
C836 H844 0.930 . S
C837 C836 1.394 . S
C837 C838 1.383 . S
C837 H845 0.929 . S
C838 C837 1.383 . S
C838 C839 1.377 . S
C839 H823 0.930 . S
C839 C838 1.377 . S
C839 C840 1.379 . S
C840 H824 0.931 . S
C840 C834 1.383 . S
C840 C839 1.379 . S
H841 C835 0.959 . S
H842 C835 0.961 . S
H843 C835 0.960 . S
H844 C836 0.930 . S
H845 C837 0.929 . S
H846 C854 0.929 . S
H847 C856 0.930 . S
H848 C858 0.930 . S
H849 C861 0.929 . S
H850 C864 0.930 . S
H851 C866 0.960 . S
H852 C866 0.960 . S
H853 C866 0.960 . S
C854 H846 0.929 . S
C854 C855 1.377 . S
C854 C856 1.384 . S
C855 C854 1.377 . S
C855 C861 1.390 . S
C856 H847 0.930 . S
C856 C854 1.384 . S
C856 C857 1.372 . S
C857 C856 1.372 . S
C857 C858 1.400 . S
C857 C862 1.490 . S
C858 H848 0.930 . S
C858 C857 1.400 . S
C858 C861 1.386 . S
H859 C875 0.930 . S
H860 C876 0.931 . S
C861 H849 0.929 . S
C861 C855 1.390 . S
C861 C858 1.386 . S
C862 C857 1.490 . S
C862 C864 1.395 . S
C862 C865 1.403 . S
H863 C869 0.930 . S
C864 H850 0.930 . S
C864 C862 1.395 . S
C864 C867 1.403 . S
C865 C862 1.403 . S
C865 C866 1.524 . S
C865 C869 1.400 . S
C866 H851 0.960 . S
C866 H852 0.960 . S
C866 H853 0.960 . S
C866 C865 1.524 . S
C867 C864 1.403 . S
C867 C868 1.392 . S
C867 C871 1.495 . S
C868 C867 1.392 . S
C868 C869 1.385 . S
C868 C870 1.478 . S
C869 H863 0.930 . S
C869 C865 1.400 . S
C869 C868 1.385 . S
C870 C868 1.478 . S
C870 C872 1.381 . S
C870 C876 1.383 . S
C871 C867 1.495 . S
C871 H877 0.959 . S
C871 H878 0.961 . S
C871 H879 0.960 . S
C872 C870 1.381 . S
C872 C873 1.394 . S
C872 H880 0.930 . S
C873 C872 1.394 . S
C873 C874 1.383 . S
C873 H881 0.929 . S
C874 C873 1.383 . S
C874 C875 1.377 . S
C875 H859 0.930 . S
C875 C874 1.377 . S
C875 C876 1.379 . S
C876 H860 0.931 . S
C876 C870 1.383 . S
C876 C875 1.379 . S
H877 C871 0.959 . S
H878 C871 0.961 . S
H879 C871 0.960 . S
H880 C872 0.930 . S
H881 C873 0.929 . S
H882 C890 0.929 . S
H883 C892 0.930 . S
H884 C894 0.930 . S
H885 C897 0.929 . S
H886 C900 0.930 . S
H887 C902 0.960 . S
H888 C902 0.960 . S
H889 C902 0.960 . S
C890 H882 0.929 . S
C890 C891 1.377 . S
C890 C892 1.384 . S
C891 C890 1.377 . S
C891 C897 1.390 . S
C892 H883 0.930 . S
C892 C890 1.384 . S
C892 C893 1.372 . S
C893 C892 1.372 . S
C893 C894 1.400 . S
C893 C898 1.490 . S
C894 H884 0.930 . S
C894 C893 1.400 . S
C894 C897 1.386 . S
H895 C911 0.930 . S
H896 C912 0.931 . S
C897 H885 0.929 . S
C897 C891 1.390 . S
C897 C894 1.386 . S
C898 C893 1.490 . S
C898 C900 1.395 . S
C898 C901 1.403 . S
H899 C905 0.930 . S
C900 H886 0.930 . S
C900 C898 1.395 . S
C900 C903 1.403 . S
C901 C898 1.403 . S
C901 C902 1.524 . S
C901 C905 1.400 . S
C902 H887 0.960 . S
C902 H888 0.960 . S
C902 H889 0.960 . S
C902 C901 1.524 . S
C903 C900 1.403 . S
C903 C904 1.392 . S
C903 C907 1.495 . S
C904 C903 1.392 . S
C904 C905 1.385 . S
C904 C906 1.478 . S
C905 H899 0.930 . S
C905 C901 1.400 . S
C905 C904 1.385 . S
C906 C904 1.478 . S
C906 C908 1.381 . S
C906 C912 1.383 . S
C907 C903 1.495 . S
C907 H913 0.959 . S
C907 H914 0.961 . S
C907 H915 0.960 . S
C908 C906 1.381 . S
C908 C909 1.394 . S
C908 H916 0.930 . S
C909 C908 1.394 . S
C909 C910 1.383 . S
C909 H917 0.929 . S
C910 C909 1.383 . S
C910 C911 1.377 . S
C911 H895 0.930 . S
C911 C910 1.377 . S
C911 C912 1.379 . S
C912 H896 0.931 . S
C912 C906 1.383 . S
C912 C911 1.379 . S
H913 C907 0.959 . S
H914 C907 0.961 . S
H915 C907 0.960 . S
H916 C908 0.930 . S
H917 C909 0.929 . S
H918 C926 0.929 . S
H919 C928 0.930 . S
H920 C930 0.930 . S
H921 C933 0.929 . S
H922 C936 0.930 . S
H923 C938 0.960 . S
H924 C938 0.960 . S
H925 C938 0.960 . S
C926 H918 0.929 . S
C926 C927 1.377 . S
C926 C928 1.384 . S
C927 C926 1.377 . S
C927 C933 1.390 . S
C928 H919 0.930 . S
C928 C926 1.384 . S
C928 C929 1.372 . S
C929 C928 1.372 . S
C929 C930 1.400 . S
C929 C934 1.490 . S
C930 H920 0.930 . S
C930 C929 1.400 . S
C930 C933 1.386 . S
H931 C947 0.930 . S
H932 C948 0.931 . S
C933 H921 0.929 . S
C933 C927 1.390 . S
C933 C930 1.386 . S
C934 C929 1.490 . S
C934 C936 1.395 . S
C934 C937 1.403 . S
H935 C941 0.930 . S
C936 H922 0.930 . S
C936 C934 1.395 . S
C936 C939 1.403 . S
C937 C934 1.403 . S
C937 C938 1.524 . S
C937 C941 1.400 . S
C938 H923 0.960 . S
C938 H924 0.960 . S
C938 H925 0.960 . S
C938 C937 1.524 . S
C939 C936 1.403 . S
C939 C940 1.392 . S
C939 C943 1.495 . S
C940 C939 1.392 . S
C940 C941 1.385 . S
C940 C942 1.478 . S
C941 H935 0.930 . S
C941 C937 1.400 . S
C941 C940 1.385 . S
C942 C940 1.478 . S
C942 C944 1.381 . S
C942 C948 1.383 . S
C943 C939 1.495 . S
C943 H949 0.959 . S
C943 H950 0.961 . S
C943 H951 0.960 . S
C944 C942 1.381 . S
C944 C945 1.394 . S
C944 H952 0.930 . S
C945 C944 1.394 . S
C945 C946 1.383 . S
C945 H953 0.929 . S
C946 C945 1.383 . S
C946 C947 1.377 . S
C947 H931 0.930 . S
C947 C946 1.377 . S
C947 C948 1.379 . S
C948 H932 0.931 . S
C948 C942 1.383 . S
C948 C947 1.379 . S
H949 C943 0.959 . S
H950 C943 0.961 . S
H951 C943 0.960 . S
H952 C944 0.930 . S
H953 C945 0.929 . S
H954 C962 0.929 . S
H955 C964 0.930 . S
H956 C966 0.930 . S
H957 C969 0.929 . S
H958 C972 0.930 . S
H959 C974 0.960 . S
H960 C974 0.960 . S
H961 C974 0.960 . S
C962 H954 0.929 . S
C962 C963 1.377 . S
C962 C964 1.384 . S
C963 C962 1.377 . S
C963 C969 1.390 . S
C964 H955 0.930 . S
C964 C962 1.384 . S
C964 C965 1.372 . S
C965 C964 1.372 . S
C965 C966 1.400 . S
C965 C970 1.490 . S
C966 H956 0.930 . S
C966 C965 1.400 . S
C966 C969 1.386 . S
H967 C983 0.930 . S
H968 C984 0.931 . S
C969 H957 0.929 . S
C969 C963 1.390 . S
C969 C966 1.386 . S
C970 C965 1.490 . S
C970 C972 1.395 . S
C970 C973 1.403 . S
H971 C977 0.930 . S
C972 H958 0.930 . S
C972 C970 1.395 . S
C972 C975 1.403 . S
C973 C970 1.403 . S
C973 C974 1.524 . S
C973 C977 1.400 . S
C974 H959 0.960 . S
C974 H960 0.960 . S
C974 H961 0.960 . S
C974 C973 1.524 . S
C975 C972 1.403 . S
C975 C976 1.392 . S
C975 C979 1.495 . S
C976 C975 1.392 . S
C976 C977 1.385 . S
C976 C978 1.478 . S
C977 H971 0.930 . S
C977 C973 1.400 . S
C977 C976 1.385 . S
C978 C976 1.478 . S
C978 C980 1.381 . S
C978 C984 1.383 . S
C979 C975 1.495 . S
C979 H985 0.959 . S
C979 H986 0.961 . S
C979 H987 0.960 . S
C980 C978 1.381 . S
C980 C981 1.394 . S
C980 H988 0.930 . S
C981 C980 1.394 . S
C981 C982 1.383 . S
C981 H989 0.929 . S
C982 C981 1.383 . S
C982 C983 1.377 . S
C983 H967 0.930 . S
C983 C982 1.377 . S
C983 C984 1.379 . S
C984 H968 0.931 . S
C984 C978 1.383 . S
C984 C983 1.379 . S
H985 C979 0.959 . S
H986 C979 0.961 . S
H987 C979 0.960 . S
H988 C980 0.930 . S
H989 C981 0.929 . S
H990 C998 0.929 . S
H991 C1000 0.930 . S
H992 C1002 0.930 . S
H993 C1005 0.929 . S
H994 C1008 0.930 . S
H995 C1010 0.960 . S
H996 C1010 0.960 . S
H997 C1010 0.960 . S
C998 H990 0.929 . S
C998 C999 1.377 . S
C998 C1000 1.384 . S
C999 C998 1.377 . S
C999 C1005 1.390 . S
C1000 H991 0.930 . S
C1000 C998 1.384 . S
C1000 C1001 1.372 . S
C1001 C1000 1.372 . S
C1001 C1002 1.400 . S
C1001 C1006 1.490 . S
C1002 H992 0.930 . S
C1002 C1001 1.400 . S
C1002 C1005 1.386 . S
H1003 C1019 0.930 . S
H1004 C1020 0.931 . S
C1005 H993 0.929 . S
C1005 C999 1.390 . S
C1005 C1002 1.386 . S
C1006 C1001 1.490 . S
C1006 C1008 1.395 . S
C1006 C1009 1.403 . S
H1007 C1013 0.930 . S
C1008 H994 0.930 . S
C1008 C1006 1.395 . S
C1008 C1011 1.403 . S
C1009 C1006 1.403 . S
C1009 C1010 1.524 . S
C1009 C1013 1.400 . S
C1010 H995 0.960 . S
C1010 H996 0.960 . S
C1010 H997 0.960 . S
C1010 C1009 1.524 . S
C1011 C1008 1.403 . S
C1011 C1012 1.392 . S
C1011 C1015 1.495 . S
C1012 C1011 1.392 . S
C1012 C1013 1.385 . S
C1012 C1014 1.478 . S
C1013 H1007 0.930 . S
C1013 C1009 1.400 . S
C1013 C1012 1.385 . S
C1014 C1012 1.478 . S
C1014 C1016 1.381 . S
C1014 C1020 1.383 . S
C1015 C1011 1.495 . S
C1015 H1021 0.959 . S
C1015 H1022 0.961 . S
C1015 H1023 0.960 . S
C1016 C1014 1.381 . S
C1016 C1017 1.394 . S
C1016 H1024 0.930 . S
C1017 C1016 1.394 . S
C1017 C1018 1.383 . S
C1017 H1025 0.929 . S
C1018 C1017 1.383 . S
C1018 C1019 1.377 . S
C1019 H1003 0.930 . S
C1019 C1018 1.377 . S
C1019 C1020 1.379 . S
C1020 H1004 0.931 . S
C1020 C1014 1.383 . S
C1020 C1019 1.379 . S
H1021 C1015 0.959 . S
H1022 C1015 0.961 . S
H1023 C1015 0.960 . S
H1024 C1016 0.930 . S
H1025 C1017 0.929 . S
H1026 C1034 0.929 . S
H1027 C1036 0.930 . S
H1028 C1038 0.930 . S
H1029 C1041 0.929 . S
H1030 C1044 0.930 . S
H1031 C1046 0.960 . S
H1032 C1046 0.960 . S
H1033 C1046 0.960 . S
C1034 H1026 0.929 . S
C1034 C1035 1.377 . S
C1034 C1036 1.384 . S
C1035 C1034 1.377 . S
C1035 C1041 1.390 . S
C1036 H1027 0.930 . S
C1036 C1034 1.384 . S
C1036 C1037 1.372 . S
C1037 C1036 1.372 . S
C1037 C1038 1.400 . S
C1037 C1042 1.490 . S
C1038 H1028 0.930 . S
C1038 C1037 1.400 . S
C1038 C1041 1.386 . S
H1039 C1055 0.930 . S
H1040 C1056 0.931 . S
C1041 H1029 0.929 . S
C1041 C1035 1.390 . S
C1041 C1038 1.386 . S
C1042 C1037 1.490 . S
C1042 C1044 1.395 . S
C1042 C1045 1.403 . S
H1043 C1049 0.930 . S
C1044 H1030 0.930 . S
C1044 C1042 1.395 . S
C1044 C1047 1.403 . S
C1045 C1042 1.403 . S
C1045 C1046 1.524 . S
C1045 C1049 1.400 . S
C1046 H1031 0.960 . S
C1046 H1032 0.960 . S
C1046 H1033 0.960 . S
C1046 C1045 1.524 . S
C1047 C1044 1.403 . S
C1047 C1048 1.392 . S
C1047 C1051 1.495 . S
C1048 C1047 1.392 . S
C1048 C1049 1.385 . S
C1048 C1050 1.478 . S
C1049 H1043 0.930 . S
C1049 C1045 1.400 . S
C1049 C1048 1.385 . S
C1050 C1048 1.478 . S
C1050 C1052 1.381 . S
C1050 C1056 1.383 . S
C1051 C1047 1.495 . S
C1051 H1057 0.959 . S
C1051 H1058 0.961 . S
C1051 H1059 0.960 . S
C1052 C1050 1.381 . S
C1052 C1053 1.394 . S
C1052 H1060 0.930 . S
C1053 C1052 1.394 . S
C1053 C1054 1.383 . S
C1053 H1061 0.929 . S
C1054 C1053 1.383 . S
C1054 C1055 1.377 . S
C1055 H1039 0.930 . S
C1055 C1054 1.377 . S
C1055 C1056 1.379 . S
C1056 H1040 0.931 . S
C1056 C1050 1.383 . S
C1056 C1055 1.379 . S
H1057 C1051 0.959 . S
H1058 C1051 0.961 . S
H1059 C1051 0.960 . S
H1060 C1052 0.930 . S
H1061 C1053 0.929 . S
H1062 C1070 0.929 . S
H1063 C1072 0.930 . S
H1064 C1074 0.930 . S
H1065 C1077 0.929 . S
H1066 C1080 0.930 . S
H1067 C1082 0.960 . S
H1068 C1082 0.960 . S
H1069 C1082 0.960 . S
C1070 H1062 0.929 . S
C1070 C1071 1.377 . S
C1070 C1072 1.384 . S
C1071 C1070 1.377 . S
C1071 C1077 1.390 . S
C1072 H1063 0.930 . S
C1072 C1070 1.384 . S
C1072 C1073 1.372 . S
C1073 C1072 1.372 . S
C1073 C1074 1.400 . S
C1073 C1078 1.490 . S
C1074 H1064 0.930 . S
C1074 C1073 1.400 . S
C1074 C1077 1.386 . S
H1075 C1091 0.930 . S
H1076 C1092 0.931 . S
C1077 H1065 0.929 . S
C1077 C1071 1.390 . S
C1077 C1074 1.386 . S
C1078 C1073 1.490 . S
C1078 C1080 1.395 . S
C1078 C1081 1.403 . S
H1079 C1085 0.930 . S
C1080 H1066 0.930 . S
C1080 C1078 1.395 . S
C1080 C1083 1.403 . S
C1081 C1078 1.403 . S
C1081 C1082 1.524 . S
C1081 C1085 1.400 . S
C1082 H1067 0.960 . S
C1082 H1068 0.960 . S
C1082 H1069 0.960 . S
C1082 C1081 1.524 . S
C1083 C1080 1.403 . S
C1083 C1084 1.392 . S
C1083 C1087 1.495 . S
C1084 C1083 1.392 . S
C1084 C1085 1.385 . S
C1084 C1086 1.478 . S
C1085 H1079 0.930 . S
C1085 C1081 1.400 . S
C1085 C1084 1.385 . S
C1086 C1084 1.478 . S
C1086 C1088 1.381 . S
C1086 C1092 1.383 . S
C1087 C1083 1.495 . S
C1087 H1093 0.959 . S
C1087 H1094 0.961 . S
C1087 H1095 0.960 . S
C1088 C1086 1.381 . S
C1088 C1089 1.394 . S
C1088 H1096 0.930 . S
C1089 C1088 1.394 . S
C1089 C1090 1.383 . S
C1089 H1097 0.929 . S
C1090 C1089 1.383 . S
C1090 C1091 1.377 . S
C1091 H1075 0.930 . S
C1091 C1090 1.377 . S
C1091 C1092 1.379 . S
C1092 H1076 0.931 . S
C1092 C1086 1.383 . S
C1092 C1091 1.379 . S
H1093 C1087 0.959 . S
H1094 C1087 0.961 . S
H1095 C1087 0.960 . S
H1096 C1088 0.930 . S
H1097 C1089 0.929 . S
H1098 C1106 0.929 . S
H1099 C1108 0.930 . S
H1100 C1110 0.930 . S
H1101 C1113 0.929 . S
H1102 C1116 0.930 . S
H1103 C1118 0.960 . S
H1104 C1118 0.960 . S
H1105 C1118 0.960 . S
C1106 H1098 0.929 . S
C1106 C1107 1.377 . S
C1106 C1108 1.384 . S
C1107 C1106 1.377 . S
C1107 C1113 1.390 . S
C1108 H1099 0.930 . S
C1108 C1106 1.384 . S
C1108 C1109 1.372 . S
C1109 C1108 1.372 . S
C1109 C1110 1.400 . S
C1109 C1114 1.490 . S
C1110 H1100 0.930 . S
C1110 C1109 1.400 . S
C1110 C1113 1.386 . S
H1111 C1127 0.930 . S
H1112 C1128 0.931 . S
C1113 H1101 0.929 . S
C1113 C1107 1.390 . S
C1113 C1110 1.386 . S
C1114 C1109 1.490 . S
C1114 C1116 1.395 . S
C1114 C1117 1.403 . S
H1115 C1121 0.930 . S
C1116 H1102 0.930 . S
C1116 C1114 1.395 . S
C1116 C1119 1.403 . S
C1117 C1114 1.403 . S
C1117 C1118 1.524 . S
C1117 C1121 1.400 . S
C1118 H1103 0.960 . S
C1118 H1104 0.960 . S
C1118 H1105 0.960 . S
C1118 C1117 1.524 . S
C1119 C1116 1.403 . S
C1119 C1120 1.392 . S
C1119 C1123 1.495 . S
C1120 C1119 1.392 . S
C1120 C1121 1.385 . S
C1120 C1122 1.478 . S
C1121 H1115 0.930 . S
C1121 C1117 1.400 . S
C1121 C1120 1.385 . S
C1122 C1120 1.478 . S
C1122 C1124 1.381 . S
C1122 C1128 1.383 . S
C1123 C1119 1.495 . S
C1123 H1129 0.959 . S
C1123 H1130 0.961 . S
C1123 H1131 0.960 . S
C1124 C1122 1.381 . S
C1124 C1125 1.394 . S
C1124 H1132 0.930 . S
C1125 C1124 1.394 . S
C1125 C1126 1.383 . S
C1125 H1133 0.929 . S
C1126 C1125 1.383 . S
C1126 C1127 1.377 . S
C1127 H1111 0.930 . S
C1127 C1126 1.377 . S
C1127 C1128 1.379 . S
C1128 H1112 0.931 . S
C1128 C1122 1.383 . S
C1128 C1127 1.379 . S
H1129 C1123 0.959 . S
H1130 C1123 0.961 . S
H1131 C1123 0.960 . S
H1132 C1124 0.930 . S
H1133 C1125 0.929 . S
H1134 C1142 0.929 . S
H1135 C1144 0.930 . S
H1136 C1146 0.930 . S
H1137 C1149 0.929 . S
H1138 C1152 0.930 . S
H1139 C1154 0.960 . S
H1140 C1154 0.960 . S
H1141 C1154 0.960 . S
C1142 H1134 0.929 . S
C1142 C1143 1.377 . S
C1142 C1144 1.384 . S
C1143 C1142 1.377 . S
C1143 C1149 1.390 . S
C1144 H1135 0.930 . S
C1144 C1142 1.384 . S
C1144 C1145 1.372 . S
C1145 C1144 1.372 . S
C1145 C1146 1.400 . S
C1145 C1150 1.490 . S
C1146 H1136 0.930 . S
C1146 C1145 1.400 . S
C1146 C1149 1.386 . S
H1147 C1163 0.930 . S
H1148 C1164 0.931 . S
C1149 H1137 0.929 . S
C1149 C1143 1.390 . S
C1149 C1146 1.386 . S
C1150 C1145 1.490 . S
C1150 C1152 1.395 . S
C1150 C1153 1.403 . S
H1151 C1157 0.930 . S
C1152 H1138 0.930 . S
C1152 C1150 1.395 . S
C1152 C1155 1.403 . S
C1153 C1150 1.403 . S
C1153 C1154 1.524 . S
C1153 C1157 1.400 . S
C1154 H1139 0.960 . S
C1154 H1140 0.960 . S
C1154 H1141 0.960 . S
C1154 C1153 1.524 . S
C1155 C1152 1.403 . S
C1155 C1156 1.392 . S
C1155 C1159 1.495 . S
C1156 C1155 1.392 . S
C1156 C1157 1.385 . S
C1156 C1158 1.478 . S
C1157 H1151 0.930 . S
C1157 C1153 1.400 . S
C1157 C1156 1.385 . S
C1158 C1156 1.478 . S
C1158 C1160 1.381 . S
C1158 C1164 1.383 . S
C1159 C1155 1.495 . S
C1159 H1165 0.959 . S
C1159 H1166 0.961 . S
C1159 H1167 0.960 . S
C1160 C1158 1.381 . S
C1160 C1161 1.394 . S
C1160 H1168 0.930 . S
C1161 C1160 1.394 . S
C1161 C1162 1.383 . S
C1161 H1169 0.929 . S
C1162 C1161 1.383 . S
C1162 C1163 1.377 . S
C1163 H1147 0.930 . S
C1163 C1162 1.377 . S
C1163 C1164 1.379 . S
C1164 H1148 0.931 . S
C1164 C1158 1.383 . S
C1164 C1163 1.379 . S
H1165 C1159 0.959 . S
H1166 C1159 0.961 . S
H1167 C1159 0.960 . S
H1168 C1160 0.930 . S
H1169 C1161 0.929 . S
H1170 C1178 0.929 . S
H1171 C1180 0.930 . S
H1172 C1182 0.930 . S
H1173 C1185 0.929 . S
H1174 C1188 0.930 . S
H1175 C1190 0.960 . S
H1176 C1190 0.960 . S
H1177 C1190 0.960 . S
C1178 H1170 0.929 . S
C1178 C1179 1.377 . S
C1178 C1180 1.384 . S
C1179 C1178 1.377 . S
C1179 C1185 1.390 . S
C1180 H1171 0.930 . S
C1180 C1178 1.384 . S
C1180 C1181 1.372 . S
C1181 C1180 1.372 . S
C1181 C1182 1.400 . S
C1181 C1186 1.490 . S
C1182 H1172 0.930 . S
C1182 C1181 1.400 . S
C1182 C1185 1.386 . S
H1183 C1199 0.930 . S
H1184 C1200 0.931 . S
C1185 H1173 0.929 . S
C1185 C1179 1.390 . S
C1185 C1182 1.386 . S
C1186 C1181 1.490 . S
C1186 C1188 1.395 . S
C1186 C1189 1.403 . S
H1187 C1193 0.930 . S
C1188 H1174 0.930 . S
C1188 C1186 1.395 . S
C1188 C1191 1.403 . S
C1189 C1186 1.403 . S
C1189 C1190 1.524 . S
C1189 C1193 1.400 . S
C1190 H1175 0.960 . S
C1190 H1176 0.960 . S
C1190 H1177 0.960 . S
C1190 C1189 1.524 . S
C1191 C1188 1.403 . S
C1191 C1192 1.392 . S
C1191 C1195 1.495 . S
C1192 C1191 1.392 . S
C1192 C1193 1.385 . S
C1192 C1194 1.478 . S
C1193 H1187 0.930 . S
C1193 C1189 1.400 . S
C1193 C1192 1.385 . S
C1194 C1192 1.478 . S
C1194 C1196 1.381 . S
C1194 C1200 1.383 . S
C1195 C1191 1.495 . S
C1195 H1201 0.959 . S
C1195 H1202 0.961 . S
C1195 H1203 0.960 . S
C1196 C1194 1.381 . S
C1196 C1197 1.394 . S
C1196 H1204 0.930 . S
C1197 C1196 1.394 . S
C1197 C1198 1.383 . S
C1197 H1205 0.929 . S
C1198 C1197 1.383 . S
C1198 C1199 1.377 . S
C1199 H1183 0.930 . S
C1199 C1198 1.377 . S
C1199 C1200 1.379 . S
C1200 H1184 0.931 . S
C1200 C1194 1.383 . S
C1200 C1199 1.379 . S
H1201 C1195 0.959 . S
H1202 C1195 0.961 . S
H1203 C1195 0.960 . S
H1204 C1196 0.930 . S
H1205 C1197 0.929 . S
H1206 C1214 0.929 . S
H1207 C1216 0.930 . S
H1208 C1218 0.930 . S
H1209 C1221 0.929 . S
H1210 C1224 0.930 . S
H1211 C1226 0.960 . S
H1212 C1226 0.960 . S
H1213 C1226 0.960 . S
C1214 H1206 0.929 . S
C1214 C1215 1.377 . S
C1214 C1216 1.384 . S
C1215 C1214 1.377 . S
C1215 C1221 1.390 . S
C1216 H1207 0.930 . S
C1216 C1214 1.384 . S
C1216 C1217 1.372 . S
C1217 C1216 1.372 . S
C1217 C1218 1.400 . S
C1217 C1222 1.490 . S
C1218 H1208 0.930 . S
C1218 C1217 1.400 . S
C1218 C1221 1.386 . S
H1219 C1235 0.930 . S
H1220 C1236 0.931 . S
C1221 H1209 0.929 . S
C1221 C1215 1.390 . S
C1221 C1218 1.386 . S
C1222 C1217 1.490 . S
C1222 C1224 1.395 . S
C1222 C1225 1.403 . S
H1223 C1229 0.930 . S
C1224 H1210 0.930 . S
C1224 C1222 1.395 . S
C1224 C1227 1.403 . S
C1225 C1222 1.403 . S
C1225 C1226 1.524 . S
C1225 C1229 1.400 . S
C1226 H1211 0.960 . S
C1226 H1212 0.960 . S
C1226 H1213 0.960 . S
C1226 C1225 1.524 . S
C1227 C1224 1.403 . S
C1227 C1228 1.392 . S
C1227 C1231 1.495 . S
C1228 C1227 1.392 . S
C1228 C1229 1.385 . S
C1228 C1230 1.478 . S
C1229 H1223 0.930 . S
C1229 C1225 1.400 . S
C1229 C1228 1.385 . S
C1230 C1228 1.478 . S
C1230 C1232 1.381 . S
C1230 C1236 1.383 . S
C1231 C1227 1.495 . S
C1231 H1237 0.959 . S
C1231 H1238 0.961 . S
C1231 H1239 0.960 . S
C1232 C1230 1.381 . S
C1232 C1233 1.394 . S
C1232 H1240 0.930 . S
C1233 C1232 1.394 . S
C1233 C1234 1.383 . S
C1233 H1241 0.929 . S
C1234 C1233 1.383 . S
C1234 C1235 1.377 . S
C1235 H1219 0.930 . S
C1235 C1234 1.377 . S
C1235 C1236 1.379 . S
C1236 H1220 0.931 . S
C1236 C1230 1.383 . S
C1236 C1235 1.379 . S
H1237 C1231 0.959 . S
H1238 C1231 0.961 . S
H1239 C1231 0.960 . S
H1240 C1232 0.930 . S
H1241 C1233 0.929 . S
H1242 C1250 0.929 . S
H1243 C1252 0.930 . S
H1244 C1254 0.930 . S
H1245 C1257 0.929 . S
H1246 C1260 0.930 . S
H1247 C1262 0.960 . S
H1248 C1262 0.960 . S
H1249 C1262 0.960 . S
C1250 H1242 0.929 . S
C1250 C1251 1.377 . S
C1250 C1252 1.384 . S
C1251 C1250 1.377 . S
C1251 C1257 1.390 . S
C1252 H1243 0.930 . S
C1252 C1250 1.384 . S
C1252 C1253 1.372 . S
C1253 C1252 1.372 . S
C1253 C1254 1.400 . S
C1253 C1258 1.490 . S
C1254 H1244 0.930 . S
C1254 C1253 1.400 . S
C1254 C1257 1.386 . S
H1255 C1271 0.930 . S
H1256 C1272 0.931 . S
C1257 H1245 0.929 . S
C1257 C1251 1.390 . S
C1257 C1254 1.386 . S
C1258 C1253 1.490 . S
C1258 C1260 1.395 . S
C1258 C1261 1.403 . S
H1259 C1265 0.930 . S
C1260 H1246 0.930 . S
C1260 C1258 1.395 . S
C1260 C1263 1.403 . S
C1261 C1258 1.403 . S
C1261 C1262 1.524 . S
C1261 C1265 1.400 . S
C1262 H1247 0.960 . S
C1262 H1248 0.960 . S
C1262 H1249 0.960 . S
C1262 C1261 1.524 . S
C1263 C1260 1.403 . S
C1263 C1264 1.392 . S
C1263 C1267 1.495 . S
C1264 C1263 1.392 . S
C1264 C1265 1.385 . S
C1264 C1266 1.478 . S
C1265 H1259 0.930 . S
C1265 C1261 1.400 . S
C1265 C1264 1.385 . S
C1266 C1264 1.478 . S
C1266 C1268 1.381 . S
C1266 C1272 1.383 . S
C1267 C1263 1.495 . S
C1267 H1273 0.959 . S
C1267 H1274 0.961 . S
C1267 H1275 0.960 . S
C1268 C1266 1.381 . S
C1268 C1269 1.394 . S
C1268 H1276 0.930 . S
C1269 C1268 1.394 . S
C1269 C1270 1.383 . S
C1269 H1277 0.929 . S
C1270 C1269 1.383 . S
C1270 C1271 1.377 . S
C1271 H1255 0.930 . S
C1271 C1270 1.377 . S
C1271 C1272 1.379 . S
C1272 H1256 0.931 . S
C1272 C1266 1.383 . S
C1272 C1271 1.379 . S
H1273 C1267 0.959 . S
H1274 C1267 0.961 . S
H1275 C1267 0.960 . S
H1276 C1268 0.930 . S
H1277 C1269 0.929 . S
H1278 C1286 0.929 . S
H1279 C1288 0.930 . S
H1280 C1290 0.930 . S
H1281 C1293 0.929 . S
H1282 C1296 0.930 . S
H1283 C1298 0.960 . S
H1284 C1298 0.960 . S
H1285 C1298 0.960 . S
C1286 H1278 0.929 . S
C1286 C1287 1.377 . S
C1286 C1288 1.384 . S
C1287 C1286 1.377 . S
C1287 C1293 1.390 . S
C1288 H1279 0.930 . S
C1288 C1286 1.384 . S
C1288 C1289 1.372 . S
C1289 C1288 1.372 . S
C1289 C1290 1.400 . S
C1289 C1294 1.490 . S
C1290 H1280 0.930 . S
C1290 C1289 1.400 . S
C1290 C1293 1.386 . S
H1291 C1307 0.930 . S
H1292 C1308 0.931 . S
C1293 H1281 0.929 . S
C1293 C1287 1.390 . S
C1293 C1290 1.386 . S
C1294 C1289 1.490 . S
C1294 C1296 1.395 . S
C1294 C1297 1.403 . S
H1295 C1301 0.930 . S
C1296 H1282 0.930 . S
C1296 C1294 1.395 . S
C1296 C1299 1.403 . S
C1297 C1294 1.403 . S
C1297 C1298 1.524 . S
C1297 C1301 1.400 . S
C1298 H1283 0.960 . S
C1298 H1284 0.960 . S
C1298 H1285 0.960 . S
C1298 C1297 1.524 . S
C1299 C1296 1.403 . S
C1299 C1300 1.392 . S
C1299 C1303 1.495 . S
C1300 C1299 1.392 . S
C1300 C1301 1.385 . S
C1300 C1302 1.478 . S
C1301 H1295 0.930 . S
C1301 C1297 1.400 . S
C1301 C1300 1.385 . S
C1302 C1300 1.478 . S
C1302 C1304 1.381 . S
C1302 C1308 1.383 . S
C1303 C1299 1.495 . S
C1303 H1309 0.959 . S
C1303 H1310 0.961 . S
C1303 H1311 0.960 . S
C1304 C1302 1.381 . S
C1304 C1305 1.394 . S
C1304 H1312 0.930 . S
C1305 C1304 1.394 . S
C1305 C1306 1.383 . S
C1305 H1313 0.929 . S
C1306 C1305 1.383 . S
C1306 C1307 1.377 . S
C1307 H1291 0.930 . S
C1307 C1306 1.377 . S
C1307 C1308 1.379 . S
C1308 H1292 0.931 . S
C1308 C1302 1.383 . S
C1308 C1307 1.379 . S
H1309 C1303 0.959 . S
H1310 C1303 0.961 . S
H1311 C1303 0.960 . S
H1312 C1304 0.930 . S
H1313 C1305 0.929 . S
H1314 C1322 0.929 . S
H1315 C1324 0.930 . S
H1316 C1326 0.930 . S
H1317 C1329 0.929 . S
H1318 C1332 0.930 . S
H1319 C1334 0.960 . S
H1320 C1334 0.960 . S
H1321 C1334 0.960 . S
C1322 H1314 0.929 . S
C1322 C1323 1.377 . S
C1322 C1324 1.384 . S
C1323 C1322 1.377 . S
C1323 C1329 1.390 . S
C1324 H1315 0.930 . S
C1324 C1322 1.384 . S
C1324 C1325 1.372 . S
C1325 C1324 1.372 . S
C1325 C1326 1.400 . S
C1325 C1330 1.490 . S
C1326 H1316 0.930 . S
C1326 C1325 1.400 . S
C1326 C1329 1.386 . S
H1327 C1343 0.930 . S
H1328 C1344 0.931 . S
C1329 H1317 0.929 . S
C1329 C1323 1.390 . S
C1329 C1326 1.386 . S
C1330 C1325 1.490 . S
C1330 C1332 1.395 . S
C1330 C1333 1.403 . S
H1331 C1337 0.930 . S
C1332 H1318 0.930 . S
C1332 C1330 1.395 . S
C1332 C1335 1.403 . S
C1333 C1330 1.403 . S
C1333 C1334 1.524 . S
C1333 C1337 1.400 . S
C1334 H1319 0.960 . S
C1334 H1320 0.960 . S
C1334 H1321 0.960 . S
C1334 C1333 1.524 . S
C1335 C1332 1.403 . S
C1335 C1336 1.392 . S
C1335 C1339 1.495 . S
C1336 C1335 1.392 . S
C1336 C1337 1.385 . S
C1336 C1338 1.478 . S
C1337 H1331 0.930 . S
C1337 C1333 1.400 . S
C1337 C1336 1.385 . S
C1338 C1336 1.478 . S
C1338 C1340 1.381 . S
C1338 C1344 1.383 . S
C1339 C1335 1.495 . S
C1339 H1345 0.959 . S
C1339 H1346 0.961 . S
C1339 H1347 0.960 . S
C1340 C1338 1.381 . S
C1340 C1341 1.394 . S
C1340 H1348 0.930 . S
C1341 C1340 1.394 . S
C1341 C1342 1.383 . S
C1341 H1349 0.929 . S
C1342 C1341 1.383 . S
C1342 C1343 1.377 . S
C1343 H1327 0.930 . S
C1343 C1342 1.377 . S
C1343 C1344 1.379 . S
C1344 H1328 0.931 . S
C1344 C1338 1.383 . S
C1344 C1343 1.379 . S
H1345 C1339 0.959 . S
H1346 C1339 0.961 . S
H1347 C1339 0.960 . S
H1348 C1340 0.930 . S
H1349 C1341 0.929 . S
H1350 C1358 0.929 . S
H1351 C1360 0.930 . S
H1352 C1362 0.930 . S
H1353 C1365 0.929 . S
H1354 C1368 0.930 . S
H1355 C1370 0.960 . S
H1356 C1370 0.960 . S
H1357 C1370 0.960 . S
C1358 H1350 0.929 . S
C1358 C1359 1.377 . S
C1358 C1360 1.384 . S
C1359 C1358 1.377 . S
C1359 C1365 1.390 . S
C1360 H1351 0.930 . S
C1360 C1358 1.384 . S
C1360 C1361 1.372 . S
C1361 C1360 1.372 . S
C1361 C1362 1.400 . S
C1361 C1366 1.490 . S
C1362 H1352 0.930 . S
C1362 C1361 1.400 . S
C1362 C1365 1.386 . S
H1363 C1379 0.930 . S
H1364 C1380 0.931 . S
C1365 H1353 0.929 . S
C1365 C1359 1.390 . S
C1365 C1362 1.386 . S
C1366 C1361 1.490 . S
C1366 C1368 1.395 . S
C1366 C1369 1.403 . S
H1367 C1373 0.930 . S
C1368 H1354 0.930 . S
C1368 C1366 1.395 . S
C1368 C1371 1.403 . S
C1369 C1366 1.403 . S
C1369 C1370 1.524 . S
C1369 C1373 1.400 . S
C1370 H1355 0.960 . S
C1370 H1356 0.960 . S
C1370 H1357 0.960 . S
C1370 C1369 1.524 . S
C1371 C1368 1.403 . S
C1371 C1372 1.392 . S
C1371 C1375 1.495 . S
C1372 C1371 1.392 . S
C1372 C1373 1.385 . S
C1372 C1374 1.478 . S
C1373 H1367 0.930 . S
C1373 C1369 1.400 . S
C1373 C1372 1.385 . S
C1374 C1372 1.478 . S
C1374 C1376 1.381 . S
C1374 C1380 1.383 . S
C1375 C1371 1.495 . S
C1375 H1381 0.959 . S
C1375 H1382 0.961 . S
C1375 H1383 0.960 . S
C1376 C1374 1.381 . S
C1376 C1377 1.394 . S
C1376 H1384 0.930 . S
C1377 C1376 1.394 . S
C1377 C1378 1.383 . S
C1377 H1385 0.929 . S
C1378 C1377 1.383 . S
C1378 C1379 1.377 . S
C1379 H1363 0.930 . S
C1379 C1378 1.377 . S
C1379 C1380 1.379 . S
C1380 H1364 0.931 . S
C1380 C1374 1.383 . S
C1380 C1379 1.379 . S
H1381 C1375 0.959 . S
H1382 C1375 0.961 . S
H1383 C1375 0.960 . S
H1384 C1376 0.930 . S
H1385 C1377 0.929 . S
H1386 C1394 0.929 . S
H1387 C1396 0.930 . S
H1388 C1398 0.930 . S
H1389 C1401 0.929 . S
H1390 C1404 0.930 . S
H1391 C1406 0.960 . S
H1392 C1406 0.960 . S
H1393 C1406 0.960 . S
C1394 H1386 0.929 . S
C1394 C1395 1.377 . S
C1394 C1396 1.384 . S
C1395 C1394 1.377 . S
C1395 C1401 1.390 . S
C1396 H1387 0.930 . S
C1396 C1394 1.384 . S
C1396 C1397 1.372 . S
C1397 C1396 1.372 . S
C1397 C1398 1.400 . S
C1397 C1402 1.490 . S
C1398 H1388 0.930 . S
C1398 C1397 1.400 . S
C1398 C1401 1.386 . S
H1399 C1415 0.930 . S
H1400 C1416 0.931 . S
C1401 H1389 0.929 . S
C1401 C1395 1.390 . S
C1401 C1398 1.386 . S
C1402 C1397 1.490 . S
C1402 C1404 1.395 . S
C1402 C1405 1.403 . S
H1403 C1409 0.930 . S
C1404 H1390 0.930 . S
C1404 C1402 1.395 . S
C1404 C1407 1.403 . S
C1405 C1402 1.403 . S
C1405 C1406 1.524 . S
C1405 C1409 1.400 . S
C1406 H1391 0.960 . S
C1406 H1392 0.960 . S
C1406 H1393 0.960 . S
C1406 C1405 1.524 . S
C1407 C1404 1.403 . S
C1407 C1408 1.392 . S
C1407 C1411 1.495 . S
C1408 C1407 1.392 . S
C1408 C1409 1.385 . S
C1408 C1410 1.478 . S
C1409 H1403 0.930 . S
C1409 C1405 1.400 . S
C1409 C1408 1.385 . S
C1410 C1408 1.478 . S
C1410 C1412 1.381 . S
C1410 C1416 1.383 . S
C1411 C1407 1.495 . S
C1411 H1417 0.959 . S
C1411 H1418 0.961 . S
C1411 H1419 0.960 . S
C1412 C1410 1.381 . S
C1412 C1413 1.394 . S
C1412 H1420 0.930 . S
C1413 C1412 1.394 . S
C1413 C1414 1.383 . S
C1413 H1421 0.929 . S
C1414 C1413 1.383 . S
C1414 C1415 1.377 . S
C1415 H1399 0.930 . S
C1415 C1414 1.377 . S
C1415 C1416 1.379 . S
C1416 H1400 0.931 . S
C1416 C1410 1.383 . S
C1416 C1415 1.379 . S
H1417 C1411 0.959 . S
H1418 C1411 0.961 . S
H1419 C1411 0.960 . S
H1420 C1412 0.930 . S
H1421 C1413 0.929 . S
H1422 C1430 0.929 . S
H1423 C1432 0.930 . S
H1424 C1434 0.930 . S
H1425 C1437 0.929 . S
H1426 C1440 0.930 . S
H1427 C1442 0.960 . S
H1428 C1442 0.960 . S
H1429 C1442 0.960 . S
C1430 H1422 0.929 . S
C1430 C1431 1.377 . S
C1430 C1432 1.384 . S
C1431 C1430 1.377 . S
C1431 C1437 1.390 . S
C1432 H1423 0.930 . S
C1432 C1430 1.384 . S
C1432 C1433 1.372 . S
C1433 C1432 1.372 . S
C1433 C1434 1.400 . S
C1433 C1438 1.490 . S
C1434 H1424 0.930 . S
C1434 C1433 1.400 . S
C1434 C1437 1.386 . S
H1435 C1451 0.930 . S
H1436 C1452 0.931 . S
C1437 H1425 0.929 . S
C1437 C1431 1.390 . S
C1437 C1434 1.386 . S
C1438 C1433 1.490 . S
C1438 C1440 1.395 . S
C1438 C1441 1.403 . S
H1439 C1445 0.930 . S
C1440 H1426 0.930 . S
C1440 C1438 1.395 . S
C1440 C1443 1.403 . S
C1441 C1438 1.403 . S
C1441 C1442 1.524 . S
C1441 C1445 1.400 . S
C1442 H1427 0.960 . S
C1442 H1428 0.960 . S
C1442 H1429 0.960 . S
C1442 C1441 1.524 . S
C1443 C1440 1.403 . S
C1443 C1444 1.392 . S
C1443 C1447 1.495 . S
C1444 C1443 1.392 . S
C1444 C1445 1.385 . S
C1444 C1446 1.478 . S
C1445 H1439 0.930 . S
C1445 C1441 1.400 . S
C1445 C1444 1.385 . S
C1446 C1444 1.478 . S
C1446 C1448 1.381 . S
C1446 C1452 1.383 . S
C1447 C1443 1.495 . S
C1447 H1453 0.959 . S
C1447 H1454 0.961 . S
C1447 H1455 0.960 . S
C1448 C1446 1.381 . S
C1448 C1449 1.394 . S
C1448 H1456 0.930 . S
C1449 C1448 1.394 . S
C1449 C1450 1.383 . S
C1449 H1457 0.929 . S
C1450 C1449 1.383 . S
C1450 C1451 1.377 . S
C1451 H1435 0.930 . S
C1451 C1450 1.377 . S
C1451 C1452 1.379 . S
C1452 H1436 0.931 . S
C1452 C1446 1.383 . S
C1452 C1451 1.379 . S
H1453 C1447 0.959 . S
H1454 C1447 0.961 . S
H1455 C1447 0.960 . S
H1456 C1448 0.930 . S
H1457 C1449 0.929 . S
H1458 C1466 0.929 . S
H1459 C1468 0.930 . S
H1460 C1470 0.930 . S
H1461 C1473 0.929 . S
H1462 C1476 0.930 . S
H1463 C1478 0.960 . S
H1464 C1478 0.960 . S
H1465 C1478 0.960 . S
C1466 H1458 0.929 . S
C1466 C1467 1.377 . S
C1466 C1468 1.384 . S
C1467 C1466 1.377 . S
C1467 C1473 1.390 . S
C1468 H1459 0.930 . S
C1468 C1466 1.384 . S
C1468 C1469 1.372 . S
C1469 C1468 1.372 . S
C1469 C1470 1.400 . S
C1469 C1474 1.490 . S
C1470 H1460 0.930 . S
C1470 C1469 1.400 . S
C1470 C1473 1.386 . S
H1471 C1487 0.930 . S
H1472 C1488 0.931 . S
C1473 H1461 0.929 . S
C1473 C1467 1.390 . S
C1473 C1470 1.386 . S
C1474 C1469 1.490 . S
C1474 C1476 1.395 . S
C1474 C1477 1.403 . S
H1475 C1481 0.930 . S
C1476 H1462 0.930 . S
C1476 C1474 1.395 . S
C1476 C1479 1.403 . S
C1477 C1474 1.403 . S
C1477 C1478 1.524 . S
C1477 C1481 1.400 . S
C1478 H1463 0.960 . S
C1478 H1464 0.960 . S
C1478 H1465 0.960 . S
C1478 C1477 1.524 . S
C1479 C1476 1.403 . S
C1479 C1480 1.392 . S
C1479 C1483 1.495 . S
C1480 C1479 1.392 . S
C1480 C1481 1.385 . S
C1480 C1482 1.478 . S
C1481 H1475 0.930 . S
C1481 C1477 1.400 . S
C1481 C1480 1.385 . S
C1482 C1480 1.478 . S
C1482 C1484 1.381 . S
C1482 C1488 1.383 . S
C1483 C1479 1.495 . S
C1483 H1489 0.959 . S
C1483 H1490 0.961 . S
C1483 H1491 0.960 . S
C1484 C1482 1.381 . S
C1484 C1485 1.394 . S
C1484 H1492 0.930 . S
C1485 C1484 1.394 . S
C1485 C1486 1.383 . S
C1485 H1493 0.929 . S
C1486 C1485 1.383 . S
C1486 C1487 1.377 . S
C1487 H1471 0.930 . S
C1487 C1486 1.377 . S
C1487 C1488 1.379 . S
C1488 H1472 0.931 . S
C1488 C1482 1.383 . S
C1488 C1487 1.379 . S
H1489 C1483 0.959 . S
H1490 C1483 0.961 . S
H1491 C1483 0.960 . S
H1492 C1484 0.930 . S
H1493 C1485 0.929 . S
C658 C334 1.573 . S
C639 C16 1.580 . S
C694 C403 1.543 . S
C675 C55 1.549 . S
C730 C341 1.550 . S
C711 C99 1.567 . S
C766 C404 1.531 . S
C747 C138 1.541 . S
C802 C457 1.571 . S
C783 C1 1.576 . S
C838 C493 1.524 . S
C819 C40 1.525 . S
C855 C94 1.556 . S
C874 C553 1.557 . S
C910 C616 1.516 . S
C891 C133 1.523 . S
C946 C456 1.549 . S
C927 C60 1.550 . S
C963 C79 1.533 . S
C982 C500 1.526 . S
C1018 C546 1.543 . S
C999 C118 1.541 . S
C1054 C615 1.527 . S
C1035 C21 1.535 . S
C1071 C177 1.551 . S
C1090 C394 1.541 . S
C1126 C351 1.555 . S
C1107 C211 1.565 . S
C1143 C255 1.550 . S
C1162 C387 1.544 . S
C1179 C289 1.575 . S
C1198 C350 1.572 . S
C1234 C562 1.531 . S
C1215 C157 1.543 . S
C1270 C606 1.530 . S
C1251 C196 1.530 . S
C1306 C440 1.548 . S
C1287 C250 1.562 . S
C1323 C294 1.525 . S
C1342 C509 1.526 . S
C1378 C563 1.536 . S
C1359 C216 1.550 . S
C1414 C599 1.527 . S
C1395 C235 1.528 . S
C1450 C447 1.569 . S
C1431 C274 1.572 . S
C1467 C172 1.529 . S
C1486 C510 1.519 . S
