# Generated by pormake.
# Topology pyr, (3,6)-cn, num edge types: 1
# Building blocks:
#     Node 0, Type 0, BuildingBlock: QEWDON_clean_linker_0, # of connection points: 3
#     Node 1, Type 0, BuildingBlock: QEWDON_clean_linker_0, # of connection points: 3
#     Node 2, Type 0, BuildingBlock: QEWDON_clean_linker_0, # of connection points: 3
#     Node 3, Type 0, BuildingBlock: QEWDON_clean_linker_0, # of connection points: 3
#     Node 4, Type 0, BuildingBlock: QEWDON_clean_linker_0, # of connection points: 3
#     Node 5, Type 0, BuildingBlock: QEWDON_clean_linker_0, # of connection points: 3
#     Node 6, Type 0, BuildingBlock: QEWDON_clean_linker_0, # of connection points: 3
#     Node 7, Type 0, BuildingBlock: QEWDON_clean_linker_0, # of connection points: 3
#     Node 8, Type 1, BuildingBlock: BETFAJ_clean_sbu_0, # of connection points: 6
#     Node 9, Type 1, BuildingBlock: BETFAJ_clean_sbu_0, # of connection points: 6
#     Node 10, Type 1, BuildingBlock: BETFAJ_clean_sbu_0, # of connection points: 6
#     Node 11, Type 1, BuildingBlock: BETFAJ_clean_sbu_0, # of connection points: 6
#     Edge 12, Type (0, 1), BuildingBlock: UVAHIK_clean_linker_0, # of connection points: 2
#     Edge 13, Type (0, 1), BuildingBlock: UVAHIK_clean_linker_0, # of connection points: 2
#     Edge 14, Type (0, 1), BuildingBlock: UVAHIK_clean_linker_0, # of connection points: 2
#     Edge 15, Type (0, 1), BuildingBlock: UVAHIK_clean_linker_0, # of connection points: 2
#     Edge 16, Type (0, 1), BuildingBlock: UVAHIK_clean_linker_0, # of connection points: 2
#     Edge 17, Type (0, 1), BuildingBlock: UVAHIK_clean_linker_0, # of connection points: 2
#     Edge 18, Type (0, 1), BuildingBlock: UVAHIK_clean_linker_0, # of connection points: 2
#     Edge 19, Type (0, 1), BuildingBlock: UVAHIK_clean_linker_0, # of connection points: 2
#     Edge 20, Type (0, 1), BuildingBlock: UVAHIK_clean_linker_0, # of connection points: 2
#     Edge 21, Type (0, 1), BuildingBlock: UVAHIK_clean_linker_0, # of connection points: 2
#     Edge 22, Type (0, 1), BuildingBlock: UVAHIK_clean_linker_0, # of connection points: 2
#     Edge 23, Type (0, 1), BuildingBlock: UVAHIK_clean_linker_0, # of connection points: 2
#     Edge 24, Type (0, 1), BuildingBlock: UVAHIK_clean_linker_0, # of connection points: 2
#     Edge 25, Type (0, 1), BuildingBlock: UVAHIK_clean_linker_0, # of connection points: 2
#     Edge 26, Type (0, 1), BuildingBlock: UVAHIK_clean_linker_0, # of connection points: 2
#     Edge 27, Type (0, 1), BuildingBlock: UVAHIK_clean_linker_0, # of connection points: 2
#     Edge 28, Type (0, 1), BuildingBlock: UVAHIK_clean_linker_0, # of connection points: 2
#     Edge 29, Type (0, 1), BuildingBlock: UVAHIK_clean_linker_0, # of connection points: 2
#     Edge 30, Type (0, 1), BuildingBlock: UVAHIK_clean_linker_0, # of connection points: 2
#     Edge 31, Type (0, 1), BuildingBlock: UVAHIK_clean_linker_0, # of connection points: 2
#     Edge 32, Type (0, 1), BuildingBlock: UVAHIK_clean_linker_0, # of connection points: 2
#     Edge 33, Type (0, 1), BuildingBlock: UVAHIK_clean_linker_0, # of connection points: 2
#     Edge 34, Type (0, 1), BuildingBlock: UVAHIK_clean_linker_0, # of connection points: 2
#     Edge 35, Type (0, 1), BuildingBlock: UVAHIK_clean_linker_0, # of connection points: 2
# Relax obj value: 0.145
# Max RMSD: 0.267
# Mean RMSD: 0.196
data_MOF--net-pyr--node1-BETFAJ_clean_sbu_0--node2-QEWDON_clean_linker_0--edge1-UVAHIK_clean_linker_0
_symmetry_space_group_name_H-M    P1
_symmetry_Int_Tables_number       1
_symmetry_cell_setting            triclinic
loop_
_symmetry_equiv_pos_as_xyz
'x, y, z'
_cell_length_a     49.717424
_cell_length_b     51.759107
_cell_length_c     50.058035
_cell_angle_alpha  91.860681
_cell_angle_beta   89.506912
_cell_angle_gamma 107.40698
loop_
_atom_site_label
_atom_site_type_symbol
_atom_site_fract_x
_atom_site_fract_y
_atom_site_fract_z
_atom_type_partial_charge
H0 H 0.38639 0.34018 0.2007 0.0
C1 C 0.3696 0.33271 0.21502 0.0
C2 C 0.3627 0.30566 0.22277 0.0
C3 C 0.35407 0.34976 0.22464 0.0
H4 H 0.33513 0.27514 0.247 0.0
C5 C 0.3402 0.29582 0.2405 0.0
C6 C 0.32445 0.31249 0.2503 0.0
C7 C 0.33166 0.33949 0.24247 0.0
C8 C 0.36048 0.37794 0.2153 0.0
H9 H 0.31952 0.35242 0.24998 0.0
C10 C 0.33847 0.38852 0.20875 0.0
C11 C 0.34423 0.41494 0.1994 0.0
C12 C 0.38851 0.39426 0.21243 0.0
H13 H 0.40591 0.38682 0.21758 0.0
C14 C 0.39436 0.42053 0.20314 0.0
H15 H 0.31678 0.37589 0.21013 0.0
C16 C 0.3724 0.43083 0.19658 0.0
H17 H 0.37743 0.45131 0.18955 0.0
H18 H 0.41601 0.43297 0.20106 0.0
H19 H 0.25431 0.89778 0.72251 0.0
C20 C 0.27019 0.89195 0.71089 0.0
C21 C 0.29762 0.8973 0.72101 0.0
C22 C 0.26292 0.87845 0.68603 0.0
H23 H 0.33928 0.8942 0.71299 0.0
C24 C 0.31794 0.88983 0.7055 0.0
C25 C 0.31093 0.87657 0.68049 0.0
C26 C 0.28321 0.87054 0.67104 0.0
C27 C 0.23458 0.87406 0.67485 0.0
H28 H 0.27765 0.86055 0.65162 0.0
C29 C 0.22546 0.89647 0.66945 0.0
C30 C 0.19946 0.89297 0.65683 0.0
C31 C 0.21736 0.84787 0.66806 0.0
H32 H 0.22423 0.83037 0.67197 0.0
C33 C 0.19111 0.84419 0.65616 0.0
H34 H 0.2393 0.9167 0.67393 0.0
C35 C 0.18221 0.86659 0.65042 0.0
H36 H 0.16193 0.8633 0.64091 0.0
H37 H 0.17779 0.82395 0.65106 0.0
H38 H 0.68942 0.45147 0.90299 0.0
C39 C 0.6818 0.43004 0.90685 0.0
C40 C 0.69904 0.41743 0.92049 0.0
C41 C 0.65371 0.41567 0.90026 0.0
H42 H 0.70071 0.37949 0.93643 0.0
C43 C 0.68785 0.38972 0.92629 0.0
C44 C 0.65964 0.37531 0.92052 0.0
C45 C 0.64282 0.38844 0.90739 0.0
C46 C 0.63412 0.43 0.89031 0.0
H47 H 0.62089 0.37764 0.90326 0.0
C48 C 0.63764 0.4426 0.86529 0.0
C49 C 0.61821 0.45588 0.85682 0.0
C50 C 0.61118 0.43082 0.90653 0.0
H51 H 0.60808 0.42138 0.92579 0.0
C52 C 0.59213 0.44392 0.89828 0.0
H53 H 0.65521 0.44201 0.85258 0.0
C54 C 0.59556 0.45633 0.8737 0.0
H55 H 0.58015 0.46602 0.86767 0.0
H56 H 0.57453 0.44438 0.91098 0.0
H57 H 0.87328 0.77863 0.35993 0.0
C58 C 0.85939 0.76472 0.37337 0.0
C59 C 0.85679 0.77271 0.40028 0.0
C60 C 0.84218 0.73967 0.36309 0.0
H61 H 0.83484 0.76068 0.43741 0.0
C62 C 0.83721 0.75474 0.41681 0.0
C63 C 0.8194 0.72994 0.40668 0.0
C64 C 0.82256 0.7224 0.37992 0.0
C65 C 0.84044 0.73336 0.33394 0.0
H66 H 0.8089 0.70342 0.37168 0.0
C67 C 0.86263 0.72771 0.31943 0.0
C68 C 0.85913 0.71988 0.29197 0.0
C69 C 0.81513 0.7317 0.32081 0.0
H70 H 0.79786 0.73598 0.33159 0.0
C71 C 0.81163 0.72422 0.29385 0.0
H72 H 0.88218 0.72904 0.32957 0.0
C73 C 0.83323 0.71811 0.2796 0.0
H74 H 0.82926 0.71139 0.25891 0.0
H75 H 0.79188 0.72271 0.28402 0.0
H76 H 0.70779 0.79228 0.91159 0.0
C77 C 0.7195 0.80742 0.89793 0.0
C78 C 0.74689 0.80802 0.8902 0.0
C79 C 0.70701 0.82616 0.88789 0.0
H80 H 0.78284 0.82829 0.86632 0.0
C81 C 0.76151 0.82738 0.87206 0.0
C82 C 0.74924 0.84607 0.86168 0.0
C83 C 0.72211 0.84568 0.87006 0.0
C84 C 0.6776 0.82443 0.89487 0.0
H85 H 0.71228 0.85978 0.86188 0.0
C86 C 0.67091 0.84696 0.90619 0.0
C87 C 0.64275 0.84542 0.91238 0.0
C88 C 0.65603 0.80021 0.88974 0.0
H89 H 0.66077 0.78268 0.88092 0.0
C90 C 0.62809 0.79863 0.89534 0.0
H91 H 0.68779 0.86535 0.91075 0.0
C92 C 0.62142 0.82103 0.90642 0.0
H93 H 0.59945 0.81923 0.91009 0.0
H94 H 0.61149 0.78001 0.89094 0.0
H95 H 0.74667 0.19979 0.53413 0.0
C96 C 0.74039 0.20057 0.51357 0.0
C97 C 0.75784 0.19653 0.49266 0.0
C98 C 0.71509 0.20612 0.50827 0.0
H99 H 0.76264 0.19442 0.44989 0.0
C100 C 0.74984 0.19851 0.46616 0.0
C101 C 0.72478 0.2045 0.46044 0.0
C102 C 0.70749 0.20829 0.48165 0.0
C103 C 0.69668 0.20965 0.53065 0.0
H104 H 0.68801 0.21272 0.47746 0.0
C105 C 0.68532 0.23142 0.53121 0.0
C106 C 0.66808 0.23517 0.55249 0.0
C107 C 0.69073 0.19153 0.55175 0.0
H108 H 0.69909 0.17445 0.55173 0.0
C109 C 0.67364 0.19512 0.57295 0.0
H110 H 0.69057 0.24588 0.51537 0.0
C111 C 0.66234 0.2168 0.57338 0.0
H112 H 0.64887 0.21898 0.58988 0.0
H113 H 0.66904 0.181 0.58905 0.0
H114 H 0.41415 0.79339 0.24776 0.0
C115 C 0.39222 0.78317 0.24307 0.0
C116 C 0.37668 0.79629 0.22799 0.0
C117 C 0.38043 0.75617 0.25054 0.0
H118 H 0.33677 0.79154 0.20878 0.0
C119 C 0.34879 0.78182 0.2207 0.0
C120 C 0.33667 0.75455 0.22751 0.0
C121 C 0.3527 0.742 0.24276 0.0
C122 C 0.39915 0.74139 0.26128 0.0
H123 H 0.34408 0.7209 0.24773 0.0
C124 C 0.40038 0.73629 0.28878 0.0
C125 C 0.42013 0.72376 0.29802 0.0
C126 C 0.41707 0.73327 0.24329 0.0
H127 H 0.41642 0.73701 0.22216 0.0
C128 C 0.43612 0.7205 0.25229 0.0
H129 H 0.38677 0.74268 0.30285 0.0
C130 C 0.43777 0.7159 0.27941 0.0
H131 H 0.45286 0.70602 0.28589 0.0
H132 H 0.44983 0.71431 0.23821 0.0
H133 H 0.22169 0.452 0.76499 0.0
C134 C 0.21015 0.43399 0.75359 0.0
C135 C 0.21746 0.43024 0.72677 0.0
C136 C 0.1888 0.41392 0.76617 0.0
H137 H 0.20884 0.40271 0.69237 0.0
C138 C 0.20259 0.4063 0.71261 0.0
C139 C 0.18111 0.38605 0.72489 0.0
C140 C 0.17435 0.39018 0.75169 0.0
C141 C 0.18404 0.41558 0.79536 0.0
H142 H 0.15808 0.37466 0.76159 0.0
C143 C 0.17245 0.435 0.80719 0.0
C144 C 0.16611 0.4343 0.83479 0.0
C145 C 0.19012 0.39629 0.81143 0.0
H146 H 0.19908 0.38127 0.80273 0.0
C147 C 0.18463 0.39609 0.83876 0.0
H148 H 0.16734 0.44972 0.79487 0.0
C149 C 0.17257 0.4148 0.85035 0.0
H150 H 0.16823 0.41404 0.87161 0.0
H151 H 0.18945 0.38116 0.85096 0.0
Sm152 Sm 0.03853 0.09649 0.52571 0.0
Sm153 Sm 0.0185 0.06667 0.58191 0.0
C154 C 0.04498 0.11786 0.47796 0.0
C155 C 0.06688 0.13637 0.46153 0.0
C156 C 0.0672 0.1634 0.45877 0.0
C157 C 0.08699 0.18057 0.4422 0.0
C158 C 0.10666 0.17096 0.42786 0.0
C159 C 0.10646 0.14399 0.4308 0.0
C160 C 0.08678 0.12688 0.44739 0.0
C161 C 0.07746 0.07911 0.55267 0.0
C162 C 0.05474 0.1316 0.58105 0.0
C163 C 0.01481 0.04002 0.6267 0.0
C164 C 0.99356 0.03136 0.64772 0.0
C165 C 0.99618 1.0125 0.66617 0.0
C166 C 0.97478 1.00228 0.68475 0.0
C167 C 0.95034 1.0107 0.68505 0.0
C168 C 0.94817 0.03013 0.66686 0.0
C169 C 0.9696 0.04037 0.64835 0.0
C170 C 0.97913 0.09002 0.5638 0.0
C171 C 0.99861 0.03235 0.52568 0.0
O172 O 0.03514 0.1285 0.49856 0.0
O173 O 0.04811 0.09415 0.48267 0.0
O174 O 0.0515 0.0674 0.55097 0.0
O175 O 0.08474 0.09992 0.53741 0.0
O176 O 0.04795 0.13243 0.55565 0.0
O177 O 0.05016 0.10843 0.59357 0.0
O178 O 0.00771 0.02808 0.60328 0.0
O179 O 0.02717 0.06613 0.62533 0.0
O180 O 1.00187 0.08978 0.55309 0.0
O181 O 0.97602 0.07683 0.58579 0.0
O182 O 1.00253 0.03119 0.55167 0.0
O183 O 0.00757 0.05511 0.51244 0.0
H184 H 0.0519 0.17119 0.46913 0.0
H185 H 0.08645 0.20117 0.44011 0.0
H186 H 0.12158 0.13609 0.42027 0.0
H187 H 0.08705 0.10613 0.44889 0.0
H188 H 0.01445 1.00519 0.66579 0.0
H189 H 0.97694 0.9871 0.69826 0.0
H190 H 0.92979 0.03726 0.66679 0.0
H191 H 0.96723 0.05491 0.63421 0.0
Sm192 Sm 0.55699 0.10143 0.09286 0.0
Sm193 Sm 0.49436 0.07229 0.06399 0.0
C194 C 0.60655 0.13398 0.10808 0.0
C195 C 0.61976 0.14201 0.13441 0.0
C196 C 0.63854 0.16801 0.13882 0.0
C197 C 0.64891 0.17666 0.16453 0.0
C198 C 0.6405 0.15941 0.18621 0.0
C199 C 0.62221 0.13312 0.18148 0.0
C200 C 0.61186 0.12455 0.15586 0.0
C201 C 0.52327 0.05773 0.12104 0.0
C202 C 0.50149 0.12011 0.11052 0.0
C203 C 0.44387 0.04026 0.05066 0.0
C204 C 0.42718 0.03352 0.02599 0.0
C205 C 0.40841 1.00749 0.022 0.0
C206 C 0.39423 1.00004 0.99766 0.0
C207 C 0.39864 1.01856 0.97691 0.0
C208 C 0.41689 0.04493 0.98136 0.0
C209 C 0.43115 0.05231 1.00564 0.0
C210 C 0.52782 0.11574 0.03543 0.0
C211 C 0.5495 0.05268 0.04764 0.0
O212 O 0.58486 0.14262 0.10345 0.0
O213 O 0.60258 0.10866 0.10024 0.0
O214 O 0.51784 0.06809 0.1003 0.0
O215 O 0.54847 0.07171 0.12872 0.0
O216 O 0.52931 0.12716 0.10836 0.0
O217 O 0.48449 0.09784 0.099 0.0
O218 O 0.46627 0.03188 0.05117 0.0
O219 O 0.44828 0.06492 0.06067 0.0
O220 O 0.53338 0.10597 0.05652 0.0
O221 O 0.50276 0.10133 0.02769 0.0
O222 O 0.52178 0.0456 0.05083 0.0
O223 O 0.56683 0.07558 0.05781 0.0
H224 H 0.64461 0.18184 0.12252 0.0
H225 H 0.66277 0.1971 0.16758 0.0
H226 H 0.61571 0.11919 0.19764 0.0
H227 H 0.59723 0.10444 0.15294 0.0
H228 H 0.40529 0.99269 0.03745 0.0
H229 H 0.38065 0.97946 0.99477 0.0
H230 H 0.42048 0.05978 0.96592 0.0
H231 H 0.44568 0.07251 1.00831 0.0
Sm232 Sm 0.52131 0.57112 0.56015 0.0
Sm233 Sm 0.52413 0.61745 0.59679 0.0
C234 C 0.53128 0.5321 0.52995 0.0
C235 C 0.54316 0.50968 0.53325 0.0
C236 C 0.56441 0.5115 0.55214 0.0
C237 C 0.57547 0.4899 0.55493 0.0
C238 C 0.56533 0.46611 0.53898 0.0
C239 C 0.5438 0.46438 0.52031 0.0
C240 C 0.53288 0.48602 0.51746 0.0
C241 C 0.47171 0.56618 0.58716 0.0
C242 C 0.54558 0.57085 0.62153 0.0
C243 C 0.51579 0.65754 0.62649 0.0
C244 C 0.50915 0.6829 0.62237 0.0
C245 C 0.48953 0.68446 0.60296 0.0
C246 C 0.48226 0.70831 0.60047 0.0
C247 C 0.49461 0.73105 0.61725 0.0
C248 C 0.51519 0.72972 0.63582 0.0
C249 C 0.52232 0.7058 0.6384 0.0
C250 C 0.57319 0.62217 0.56873 0.0
C251 C 0.49892 0.61753 0.53557 0.0
O252 O 0.54886 0.55655 0.53235 0.0
O253 O 0.50707 0.52969 0.54157 0.0
O254 O 0.49601 0.57426 0.59753 0.0
O255 O 0.47307 0.56025 0.56189 0.0
O256 O 0.54603 0.56216 0.59642 0.0
O257 O 0.5343 0.59026 0.62772 0.0
O258 O 0.4959 0.63502 0.62075 0.0
O259 O 0.54078 0.65695 0.61883 0.0
O260 O 0.54863 0.61427 0.55917 0.0
O261 O 0.57263 0.62834 0.59401 0.0
O262 O 0.50022 0.62733 0.56045 0.0
O263 O 0.50869 0.59709 0.52937 0.0
H264 H 0.57255 0.52963 0.56462 0.0
H265 H 0.59219 0.49198 0.56932 0.0
H266 H 0.53514 0.44617 0.50809 0.0
H267 H 0.51632 0.48424 0.50295 0.0
H268 H 0.47927 0.66706 0.59019 0.0
H269 H 0.46611 0.70853 0.58617 0.0
H270 H 0.52542 0.74701 0.64873 0.0
H271 H 0.53776 0.70503 0.65326 0.0
Sm272 Sm 0.02671 0.56235 0.06896 0.0
Sm273 Sm 0.02301 0.62085 0.05008 0.0
C274 C 0.04346 0.51855 0.06915 0.0
C275 C 0.064 0.50883 0.08347 0.0
C276 C 0.07611 0.49081 0.07022 0.0
C277 C 0.09806 0.48366 0.08208 0.0
C278 C 0.10823 0.49437 0.10746 0.0
C279 C 0.09549 0.51184 0.12107 0.0
C280 C 0.07364 0.5192 0.10906 0.0
C281 C 0.00654 0.58959 0.10927 0.0
C282 C 0.07692 0.61938 0.08605 0.0
C283 C 0.00701 0.66407 0.04096 0.0
C284 C 0.98294 0.67036 0.02868 0.0
C285 C 0.955 0.65748 0.03645 0.0
C286 C 0.93262 0.66407 0.02462 0.0
C287 C 0.93775 0.68338 1.00461 0.0
C288 C 0.96569 0.69602 0.99673 0.0
C289 C 0.98805 0.68964 1.00873 0.0
C290 C 0.05044 0.59389 0.01669 0.0
C291 C 0.96953 0.56415 0.03772 0.0
O292 O 0.05453 0.53899 0.05372 0.0
O293 O 0.02132 0.52066 0.08252 0.0
O294 O 0.01519 0.59704 0.08639 0.0
O295 O 0.00809 0.56512 0.11199 0.0
O296 O 0.06981 0.59276 0.08134 0.0
O297 O 0.06094 0.63433 0.07864 0.0
O298 O 1.00247 0.65149 0.06365 0.0
O299 O 0.0234 0.65536 0.02468 0.0
O300 O 0.02832 0.58328 0.02985 0.0
O301 O 0.05829 0.62017 0.0199 0.0
O302 O 0.97948 0.59104 0.03747 0.0
O303 O 0.98393 0.54873 0.04746 0.0
H304 H 0.06906 0.48282 0.05036 0.0
H305 H 0.1073 0.46995 0.07126 0.0
H306 H 0.1031 0.52057 0.14055 0.0
H307 H 0.06482 0.5335 0.11941 0.0
H308 H 0.95041 0.64235 0.05165 0.0
H309 H 0.91127 0.65387 0.03091 0.0
H310 H 0.9703 0.71121 0.98159 0.0
H311 H 0.00941 0.69984 1.00247 0.0
C312 C 0.28106 0.2756 0.26252 0.0
C313 C 0.30007 0.30132 0.26819 0.0
C314 C 0.25852 0.26457 0.27959 0.0
C315 C 0.23576 0.26814 0.34915 0.0
H316 H 0.16304 0.22612 0.32049 0.0
C317 C 0.14149 0.21565 0.41692 0.0
C318 C 0.12699 0.1887 0.40941 0.0
C319 C 0.16119 0.23198 0.39967 0.0
C320 C 0.18326 0.2377 0.32879 0.0
H321 H 0.31018 0.3358 0.29608 0.0
H322 H 0.27048 0.31656 0.32591 0.0
H323 H 0.20006 0.2503 0.29023 0.0
H324 H 0.12113 0.158 0.37766 0.0
H325 H 0.1557 0.18628 0.34779 0.0
H326 H 0.21909 0.25509 0.38768 0.0
C327 C 0.27322 0.30488 0.30831 0.0
C328 C 0.20446 0.25154 0.31147 0.0
C329 C 0.29578 0.31598 0.29113 0.0
C330 C 0.13222 0.17858 0.38415 0.0
C331 C 0.15178 0.1949 0.3669 0.0
C332 C 0.21453 0.25429 0.36649 0.0
C333 C 0.25442 0.27899 0.30276 0.0
C334 C 0.23112 0.26649 0.3214 0.0
C335 C 0.1666 0.22173 0.3745 0.0
C336 C 0.18823 0.2385 0.35644 0.0
H337 H 0.28361 0.26396 0.24481 0.0
H338 H 0.24462 0.24445 0.2749 0.0
H339 H 0.25616 0.27927 0.35739 0.0
H340 H 0.13801 0.22396 0.43633 0.0
H341 H 0.17216 0.25264 0.406 0.0
C342 C 0.29671 0.93295 0.75603 0.0
C343 C 0.30523 0.91037 0.7478 0.0
C344 C 0.30519 0.94589 0.78085 0.0
C345 C 0.36087 0.95507 0.83131 0.0
H346 H 0.31049 0.97995 0.87806 0.0
C347 C 0.40175 1.01774 0.92694 0.0
C348 C 0.38576 1.00982 0.9502 0.0
C349 C 0.39067 1.00778 0.90187 0.0
C350 C 0.32476 0.97303 0.86522 0.0
H351 H 0.32806 0.88284 0.75962 0.0
H352 H 0.3428 0.90535 0.80281 0.0
H353 H 0.29303 0.95713 0.83527 0.0
H354 H 0.34511 0.98615 0.96523 0.0
H355 H 0.32596 0.96822 0.92139 0.0
H356 H 0.39239 0.97023 0.86131 0.0
C357 C 0.33013 0.91345 0.78989 0.0
C358 C 0.31484 0.9602 0.84066 0.0
C359 C 0.32169 0.90056 0.76516 0.0
C360 C 0.35808 0.99237 0.94772 0.0
C361 C 0.34699 0.98235 0.92258 0.0
C362 C 0.37077 0.96788 0.85575 0.0
C363 C 0.32232 0.93647 0.79787 0.0
C364 C 0.33276 0.95087 0.82357 0.0
C365 C 0.36339 0.98956 0.89944 0.0
C366 C 0.35282 0.97691 0.87305 0.0
H367 H 0.28417 0.94105 0.74298 0.0
H368 H 0.29901 0.9637 0.7864 0.0
H369 H 0.37531 0.94844 0.81842 0.0
H370 H 0.42324 0.03093 0.92812 0.0
H371 H 0.40368 1.01402 0.88437 0.0
C372 C 0.61699 0.49498 0.82914 0.0
C373 C 0.62039 0.46904 0.83046 0.0
C374 C 0.614 0.5059 0.80456 0.0
C375 C 0.59071 0.48504 0.73502 0.0
H376 H 0.61703 0.56249 0.72475 0.0
C377 C 0.56624 0.53537 0.63875 0.0
C378 C 0.55761 0.55869 0.64333 0.0
C379 C 0.57706 0.52399 0.65973 0.0
C380 C 0.6094 0.54081 0.7273 0.0
H381 H 0.62452 0.4347 0.8068 0.0
H382 H 0.6197 0.45397 0.76354 0.0
H383 H 0.63181 0.54387 0.76415 0.0
H384 H 0.55391 0.58832 0.67371 0.0
H385 H 0.57268 0.56867 0.70988 0.0
H386 H 0.56802 0.48217 0.69818 0.0
C387 C 0.61898 0.46573 0.78167 0.0
C388 C 0.61788 0.53009 0.74996 0.0
C389 C 0.62212 0.4548 0.80642 0.0
C390 C 0.56032 0.5704 0.66931 0.0
C391 C 0.57132 0.55921 0.69012 0.0
C392 C 0.58231 0.49579 0.71222 0.0
C393 C 0.61431 0.49124 0.78044 0.0
C394 C 0.60813 0.50212 0.75453 0.0
C395 C 0.57983 0.53584 0.6857 0.0
C396 C 0.59101 0.52391 0.70839 0.0
H397 H 0.61563 0.5065 0.84729 0.0
H398 H 0.61015 0.52542 0.80462 0.0
H399 H 0.58251 0.46345 0.73789 0.0
H400 H 0.56445 0.52577 0.61902 0.0
H401 H 0.58354 0.50606 0.65556 0.0
C402 C 0.88453 0.7178 0.24862 0.0
C403 C 0.88139 0.71226 0.27601 0.0
C404 C 0.90186 0.70715 0.23239 0.0
C405 C 0.93695 0.65239 0.23087 0.0
H406 H 0.96479 0.68481 0.16352 0.0
C407 C 0.97499 0.59134 0.14793 0.0
C408 C 0.99476 0.605 0.12912 0.0
C409 C 0.96371 0.60579 0.16678 0.0
C410 C 0.95774 0.6755 0.18239 0.0
H411 H 0.89607 0.69269 0.30805 0.0
H412 H 0.92785 0.67567 0.28017 0.0
H413 H 0.94406 0.70914 0.19543 0.0
H414 H 0.01913 0.64442 0.11574 0.0
H415 H 1.0009 0.6698 0.14942 0.0
H416 H 0.95233 0.61955 0.21858 0.0
C417 C 0.91574 0.68717 0.27086 0.0
C418 C 0.94516 0.68937 0.20067 0.0
C419 C 0.89783 0.6974 0.28708 0.0
C420 C 1.00352 0.6334 0.12978 0.0
C421 C 0.99285 0.64793 0.1491 0.0
C422 C 0.95022 0.63884 0.21289 0.0
C423 C 0.91741 0.6912 0.24306 0.0
C424 C 0.93385 0.67777 0.22494 0.0
C425 C 0.97255 0.63438 0.16785 0.0
C426 C 0.96026 0.64983 0.18802 0.0
H427 H 0.87287 0.72977 0.23938 0.0
H428 H 0.90202 0.71067 0.2112 0.0
H429 H 0.92842 0.64243 0.24909 0.0
H430 H 0.9678 0.5694 0.14775 0.0
H431 H 0.94768 0.59435 0.18018 0.0
C432 C 0.40795 0.29604 0.21028 0.0
C433 C 0.37838 0.28731 0.21197 0.0
C434 C 0.42257 0.27829 0.2009 0.0
C435 C 0.41427 0.20512 0.19069 0.0
H436 H 0.47728 0.22965 0.14211 0.0
C437 C 0.45932 0.13164 0.12901 0.0
C438 C 0.48869 0.13857 0.12561 0.0
C439 C 0.44706 0.14982 0.14158 0.0
C440 C 0.45998 0.22258 0.15597 0.0
H441 H 0.34093 0.25346 0.20423 0.0
H442 H 0.36633 0.22263 0.18778 0.0
H443 H 0.45367 0.26169 0.15967 0.0
H444 H 0.52826 0.16992 0.13342 0.0
H445 H 0.50679 0.20153 0.15546 0.0
H446 H 0.42031 0.16594 0.18669 0.0
C447 C 0.37831 0.24294 0.19429 0.0
C448 C 0.44645 0.24094 0.16602 0.0
C449 C 0.36375 0.26063 0.20367 0.0
C450 C 0.50556 0.16389 0.13563 0.0
C451 C 0.49326 0.18212 0.14812 0.0
C452 C 0.42776 0.18677 0.18061 0.0
C453 C 0.4079 0.25147 0.19298 0.0
C454 C 0.42323 0.23235 0.18327 0.0
C455 C 0.46385 0.17539 0.15099 0.0
C456 C 0.45058 0.19522 0.16292 0.0
H457 H 0.41982 0.31641 0.21674 0.0
H458 H 0.44538 0.28541 0.20035 0.0
H459 H 0.39681 0.19796 0.20436 0.0
H460 H 0.44565 0.11234 0.12156 0.0
H461 H 0.42431 0.14412 0.14324 0.0
C462 C 0.18033 0.91793 0.62353 0.0
C463 C 0.1913 0.91698 0.6491 0.0
C464 C 0.17406 0.94107 0.61563 0.0
C465 C 0.15535 0.99985 0.64234 0.0
H466 H 0.1688 1.02316 0.56924 0.0
C467 C 0.12587 0.07743 0.5643 0.0
C468 C 0.09661 0.06879 0.56844 0.0
C469 C 0.14317 0.06497 0.57753 0.0
C470 C 0.16544 1.01734 0.58988 0.0
H471 H 0.20402 0.93937 0.68659 0.0
H472 H 0.19303 0.97992 0.67273 0.0
H473 H 0.1887 0.98872 0.58522 0.0
H474 H 0.06265 0.04157 0.59038 0.0
H475 H 0.09253 1.02024 0.61358 0.0
H476 H 0.13132 0.02782 0.64671 0.0
C477 C 0.18934 0.96274 0.65882 0.0
C478 C 0.17649 0.99737 0.59892 0.0
C479 C 0.19571 0.9396 0.6667 0.0
C480 C 0.08512 0.04863 0.58689 0.0
C481 C 0.10231 0.03654 0.60033 0.0
C482 C 0.14425 1.01976 0.63328 0.0
C483 C 0.17856 0.96375 0.63316 0.0
C484 C 0.1707 0.98776 0.62493 0.0
C485 C 0.1314 0.04411 0.59537 0.0
C486 C 0.14833 0.02796 0.60668 0.0
H487 H 0.17705 0.90095 0.60943 0.0
H488 H 0.1653 0.94106 0.59589 0.0
H489 H 0.15052 0.99286 0.66248 0.0
H490 H 0.13518 0.09298 0.55014 0.0
H491 H 0.16557 0.07116 0.5734 0.0
C492 C 0.73763 0.42705 0.95529 0.0
C493 C 0.72765 0.43348 0.93084 0.0
C494 C 0.76414 0.44181 0.96525 0.0
C495 C 0.81707 0.50769 0.96624 0.0
H496 H 0.86846 0.46861 0.98742 0.0
C497 C 0.92966 0.56358 1.0067 0.0
C498 C 0.94147 0.55051 0.02551 0.0
C499 C 0.90394 0.55002 0.99416 0.0
C500 C 0.8543 0.47995 0.98213 0.0
H501 H 0.73833 0.46125 0.89808 0.0
H502 H 0.78425 0.48773 0.91624 0.0
H503 H 0.8232 0.44397 0.96754 0.0
H504 H 0.93486 0.51323 0.04662 0.0
H505 H 0.88971 0.49013 0.02594 0.0
H506 H 0.84742 0.54355 0.98184 0.0
C507 C 0.77138 0.47084 0.92735 0.0
C508 C 0.82839 0.46574 0.97046 0.0
C509 C 0.74497 0.45568 0.91702 0.0
C510 C 0.92658 0.52382 0.03199 0.0
C511 C 0.90068 0.51045 0.01985 0.0
C512 C 0.84281 0.52191 0.97841 0.0
C513 C 0.78131 0.46388 0.95147 0.0
C514 C 0.80943 0.4794 0.96251 0.0
C515 C 0.88908 0.52313 1.00041 0.0
C516 C 0.8618 0.50823 0.98674 0.0
H517 H 0.7248 0.41084 0.96719 0.0
H518 H 0.77103 0.43624 0.98411 0.0
H519 H 0.80274 0.51872 0.96051 0.0
H520 H 0.94064 0.5841 1.00112 0.0
H521 H 0.89611 0.5605 0.97912 0.0
C522 C 0.79817 0.7114 0.4508 0.0
C523 C 0.79537 0.71369 0.42308 0.0
C524 C 0.77471 0.69877 0.46646 0.0
C525 C 0.69667 0.68125 0.46531 0.0
H526 H 0.70078 0.63939 0.52716 0.0
C527 C 0.59727 0.62592 0.52432 0.0
C528 C 0.59907 0.62903 0.55229 0.0
C529 C 0.62155 0.6341 0.50859 0.0
C530 C 0.69936 0.65118 0.51002 0.0
H531 H 0.76546 0.70369 0.39019 0.0
H532 H 0.72514 0.68079 0.41713 0.0
H533 H 0.74262 0.65707 0.49947 0.0
H534 H 0.62773 0.64226 0.58579 0.0
H535 H 0.67023 0.65657 0.55828 0.0
H536 H 0.65349 0.67536 0.47579 0.0
C537 C 0.74533 0.6893 0.42694 0.0
C538 C 0.72335 0.66136 0.49417 0.0
C539 C 0.76867 0.70207 0.41135 0.0
C540 C 0.62572 0.6397 0.56426 0.0
C541 C 0.65006 0.64775 0.54851 0.0
C542 C 0.67272 0.67095 0.48102 0.0
C543 C 0.74785 0.688 0.4548 0.0
C544 C 0.72233 0.67656 0.47158 0.0
C545 C 0.6482 0.64544 0.52046 0.0
C546 C 0.67374 0.65581 0.50358 0.0
H547 H 0.81843 0.71979 0.46051 0.0
H548 H 0.7775 0.69829 0.48785 0.0
H549 H 0.69516 0.6934 0.4485 0.0
H550 H 0.57702 0.61761 0.51454 0.0
H551 H 0.61943 0.63168 0.48706 0.0
C552 C 0.2972 0.42182 0.20898 0.0
C553 C 0.32076 0.42561 0.19218 0.0
C554 C 0.27467 0.43106 0.20179 0.0
C555 C 0.2547 0.47714 0.15552 0.0
H556 H 0.1787 0.43157 0.16933 0.0
C557 C 0.15674 0.4897 0.1033 0.0
C558 C 0.13283 0.48814 0.11908 0.0
C559 C 0.17994 0.48367 0.11394 0.0
C560 C 0.19981 0.44466 0.16564 0.0
H561 H 0.33919 0.44196 0.15466 0.0
H562 H 0.29969 0.45764 0.14179 0.0
H563 H 0.21879 0.41799 0.18452 0.0
H564 H 0.11445 0.47915 0.15837 0.0
H565 H 0.15508 0.46831 0.17699 0.0
H566 H 0.23554 0.50336 0.13592 0.0
C567 C 0.29882 0.44811 0.16085 0.0
C568 C 0.22282 0.43694 0.17438 0.0
C569 C 0.32146 0.43906 0.16816 0.0
C570 C 0.13265 0.48059 0.1458 0.0
C571 C 0.15578 0.47423 0.15638 0.0
C572 C 0.23169 0.48472 0.14657 0.0
C573 C 0.27507 0.44412 0.17751 0.0
C574 C 0.25057 0.45297 0.16925 0.0
C575 C 0.17965 0.47572 0.14053 0.0
C576 C 0.20401 0.46845 0.15135 0.0
H577 H 0.29627 0.41182 0.2278 0.0
H578 H 0.25698 0.42807 0.21534 0.0
H579 H 0.27573 0.49027 0.15167 0.0
H580 H 0.15758 0.49576 0.08272 0.0
H581 H 0.19793 0.48475 0.10118 0.0
C582 C 0.66072 0.32742 0.92687 0.0
C583 C 0.64706 0.34746 0.93062 0.0
C584 C 0.64935 0.30169 0.93757 0.0
C585 C 0.60385 0.26673 0.99173 0.0
H586 H 0.59508 0.20109 0.94862 0.0
C587 C 0.56746 0.15945 0.03629 0.0
C588 C 0.54499 0.14077 0.02266 0.0
C589 C 0.58185 0.18419 0.02488 0.0
C590 C 0.59747 0.21925 0.96092 0.0
H591 H 0.61093 0.35625 0.94882 0.0
H592 H 0.59133 0.31155 0.96773 0.0
H593 H 0.61608 0.24537 0.92894 0.0
H594 H 0.52054 0.13293 0.98607 0.0
H595 H 0.54605 0.17573 0.96589 0.0
H596 H 0.58527 0.24067 0.0237 0.0
C597 C 0.61072 0.31566 0.95637 0.0
C598 C 0.60963 0.24458 0.9497 0.0
C599 C 0.6218 0.34117 0.94531 0.0
C600 C 0.53781 0.14692 0.99705 0.0
C601 C 0.55247 0.1714 0.98545 0.0
C602 C 0.59215 0.24142 1.00307 0.0
C603 C 0.62438 0.29562 0.95271 0.0
C604 C 0.61264 0.26863 0.96488 0.0
C605 C 0.57439 0.19053 0.99938 0.0
C606 C 0.58852 0.21737 0.98773 0.0
H607 H 0.6802 0.33166 0.91565 0.0
H608 H 0.66043 0.28672 0.93449 0.0
H609 H 0.60609 0.28487 1.00401 0.0
H610 H 0.57338 0.15529 0.05604 0.0
H611 H 0.59876 0.19844 0.03605 0.0
C612 C 0.85927 0.81424 0.429 0.0
C613 C 0.87236 0.8006 0.41071 0.0
C614 C 0.87359 0.83998 0.43942 0.0
C615 C 0.94572 0.88905 0.44757 0.0
H616 H 0.90267 0.93758 0.46912 0.0
C617 C 0.99007 1.00352 0.48345 0.0
C618 C 0.98416 1.00688 0.51067 0.0
C619 C 0.97728 0.97898 0.46961 0.0
C620 C 0.91489 0.92421 0.46312 0.0
H621 H 0.91092 0.80418 0.38856 0.0
H622 H 0.93545 0.84979 0.40563 0.0
H623 H 0.87895 0.89441 0.44659 0.0
H624 H 0.95983 0.98735 0.54452 0.0
H625 H 0.93665 0.94487 0.51994 0.0
H626 H 0.98184 0.9198 0.4635 0.0
C627 C 0.91431 0.84007 0.41267 0.0
C628 C 0.90133 0.89929 0.45042 0.0
C629 C 0.90007 0.81397 0.40255 0.0
C630 C 0.96487 0.98536 0.52361 0.0
C631 C 0.95159 0.96111 0.50959 0.0
C632 C 0.95937 0.9143 0.45977 0.0
C633 C 0.9013 0.85343 0.4314 0.0
C634 C 0.91639 0.88102 0.44294 0.0
C635 C 0.95788 0.95766 0.48257 0.0
C636 C 0.94395 0.93183 0.46802 0.0
H637 H 0.83771 0.80518 0.4353 0.0
H638 H 0.86284 0.8491 0.4541 0.0
H639 H 0.95809 0.87558 0.44251 0.0
H640 H 0.005 1.01966 0.47299 0.0
H641 H 0.98235 0.97672 0.44874 0.0
C642 C 0.3596 0.88695 0.66152 0.0
C643 C 0.33256 0.86864 0.66461 0.0
C644 C 0.38084 0.87864 0.64878 0.0
C645 C 0.39458 0.82169 0.60893 0.0
H646 H 0.4639 0.84123 0.65003 0.0
C647 C 0.47939 0.76728 0.64139 0.0
C648 C 0.48411 0.75502 0.61708 0.0
C649 C 0.46619 0.78753 0.6418 0.0
C650 C 0.44477 0.83574 0.63819 0.0
H651 H 0.30613 0.8277 0.65593 0.0
H652 H 0.34323 0.81291 0.63428 0.0
H653 H 0.42872 0.86423 0.65963 0.0
H654 H 0.48025 0.7556 0.57399 0.0
H655 H 0.45686 0.79101 0.57475 0.0
H656 H 0.40978 0.7917 0.58894 0.0
C657 C 0.34802 0.83387 0.64111 0.0
C658 C 0.4247 0.84914 0.64347 0.0
C659 C 0.32676 0.84225 0.65366 0.0
C660 C 0.47651 0.76438 0.59306 0.0
C661 C 0.46319 0.78467 0.59348 0.0
C662 C 0.41461 0.80817 0.60375 0.0
C663 C 0.37549 0.85178 0.63907 0.0
C664 C 0.39888 0.84151 0.62964 0.0
C665 C 0.45734 0.79601 0.61792 0.0
C666 C 0.43938 0.8143 0.61912 0.0
H667 H 0.36445 0.90758 0.66939 0.0
H668 H 0.40162 0.89305 0.64713 0.0
H669 H 0.37514 0.81573 0.59755 0.0
H670 H 0.48449 0.76026 0.66029 0.0
H671 H 0.46151 0.79542 0.66101 0.0
C672 C 0.76724 0.89314 0.84421 0.0
C673 C 0.76485 0.86543 0.84166 0.0
C674 C 0.78391 0.91147 0.82631 0.0
C675 C 0.81819 0.91555 0.75994 0.0
H676 H 0.87253 0.97979 0.79034 0.0
C677 C 0.89871 0.99043 0.69414 0.0
C678 C 0.9267 0.9983 0.70341 0.0
C679 C 0.87656 0.97711 0.71081 0.0
C680 C 0.85745 0.96195 0.78156 0.0
H681 H 0.77678 0.83496 0.81773 0.0
H682 H 0.80587 0.8668 0.78669 0.0
H683 H 0.83723 0.95049 0.81915 0.0
H684 H 0.95325 0.99923 0.73777 0.0
H685 H 0.91464 0.97561 0.76678 0.0
H686 H 0.83901 0.92636 0.72257 0.0
C687 C 0.79495 0.87448 0.80241 0.0
C688 C 0.83705 0.94534 0.798 0.0
C689 C 0.77852 0.85627 0.82035 0.0
C690 C 0.93195 0.99319 0.72996 0.0
C691 C 0.90979 0.97994 0.74667 0.0
C692 C 0.8385 0.93218 0.7435 0.0
C693 C 0.79817 0.90232 0.80539 0.0
C694 C 0.81757 0.92165 0.78745 0.0
C695 C 0.88189 0.97141 0.73716 0.0
C696 C 0.85871 0.95529 0.75421 0.0
H697 H 0.75695 0.90073 0.8605 0.0
H698 H 0.78584 0.9328 0.82896 0.0
H699 H 0.80328 0.89757 0.75118 0.0
H700 H 0.89396 0.99384 0.67371 0.0
H701 H 0.85527 0.97101 0.70298 0.0
C702 C 0.7365 0.21802 0.41304 0.0
C703 C 0.71632 0.20568 0.43224 0.0
C704 C 0.72904 0.21732 0.38614 0.0
C705 C 0.66819 0.20509 0.34044 0.0
H706 H 0.71703 0.18317 0.28948 0.0
C707 C 0.63092 0.1623 0.23524 0.0
C708 C 0.64998 0.16889 0.21383 0.0
C709 C 0.63979 0.17035 0.26138 0.0
C710 C 0.7034 0.18978 0.30334 0.0
H711 H 0.67235 0.18339 0.43827 0.0
H712 H 0.65928 0.18231 0.39134 0.0
H713 H 0.73101 0.19123 0.33626 0.0
H714 H 0.69324 0.18956 0.20306 0.0
H715 H 0.70869 0.20405 0.24881 0.0
H716 H 0.64038 0.20326 0.30758 0.0
C717 C 0.68083 0.19276 0.39715 0.0
C718 C 0.71141 0.19437 0.33016 0.0
C719 C 0.68831 0.19339 0.42405 0.0
C720 C 0.67802 0.18425 0.21911 0.0
C721 C 0.68692 0.19233 0.24533 0.0
C722 C 0.66022 0.20057 0.31359 0.0
C723 C 0.70121 0.20435 0.37786 0.0
C724 C 0.69369 0.20167 0.34907 0.0
C725 C 0.66794 0.18528 0.26678 0.0
C726 C 0.67752 0.19243 0.29481 0.0
H727 H 0.75816 0.22806 0.4188 0.0
H728 H 0.7451 0.22679 0.37178 0.0
H729 H 0.65431 0.2111 0.35448 0.0
H730 H 0.60906 0.15086 0.23181 0.0
H731 H 0.62469 0.16429 0.27743 0.0
C732 C 0.40081 0.70244 0.34153 0.0
C733 C 0.42335 0.7188 0.32682 0.0
C734 C 0.40549 0.69374 0.36694 0.0
C735 C 0.42697 0.66219 0.40855 0.0
H736 H 0.48134 0.70737 0.45875 0.0
C737 C 0.48202 0.61738 0.48836 0.0
C738 C 0.48688 0.62994 0.51396 0.0
C739 C 0.47132 0.62905 0.46769 0.0
C740 C 0.46587 0.6945 0.44514 0.0
H741 H 0.46804 0.74009 0.32771 0.0
H742 H 0.47615 0.72535 0.37186 0.0
H743 H 0.46729 0.7275 0.41979 0.0
H744 H 0.48406 0.66478 0.53777 0.0
H745 H 0.4655 0.68527 0.50158 0.0
H746 H 0.42587 0.62911 0.43366 0.0
C747 C 0.45487 0.71911 0.36401 0.0
C748 C 0.45797 0.70601 0.42264 0.0
C749 C 0.45025 0.72751 0.33862 0.0
C750 C 0.48057 0.6545 0.51835 0.0
C751 C 0.47005 0.66633 0.49754 0.0
C752 C 0.43502 0.65064 0.43094 0.0
C753 C 0.43273 0.70152 0.37827 0.0
C754 C 0.43875 0.68994 0.40379 0.0
C755 C 0.4653 0.65376 0.4719 0.0
C756 C 0.45494 0.66654 0.44932 0.0
H757 H 0.37991 0.69525 0.33284 0.0
H758 H 0.38789 0.68043 0.37746 0.0
H759 H 0.41232 0.6491 0.39442 0.0
H760 H 0.48659 0.59846 0.48415 0.0
H761 H 0.46834 0.61895 0.44817 0.0
C762 C 0.1634 0.48119 0.84665 0.0
C763 C 0.15194 0.45293 0.84783 0.0
C764 C 0.15191 0.49838 0.86218 0.0
C765 C 0.08817 0.50014 0.90079 0.0
H766 H 0.14017 0.55693 0.94344 0.0
C767 C 0.05026 0.55104 0.99177 0.0
C768 C 0.06276 0.57892 0.99672 0.0
C769 C 0.0612 0.53707 0.97218 0.0
C770 C 0.12531 0.54145 0.93143 0.0
H771 H 0.11872 0.42055 0.86502 0.0
H772 H 0.09857 0.45031 0.89174 0.0
H773 H 0.15841 0.53087 0.91028 0.0
H774 H 0.09651 0.61404 0.98501 0.0
H775 H 0.11538 0.58981 0.95051 0.0
H776 H 0.05506 0.51051 0.9219 0.0
C777 C 0.11641 0.45935 0.87901 0.0
C778 C 0.1358 0.52652 0.91235 0.0
C779 C 0.12804 0.44226 0.8638 0.0
C780 C 0.08651 0.59252 0.98174 0.0
C781 C 0.0974 0.57857 0.96204 0.0
C782 C 0.07768 0.51512 0.91973 0.0
C783 C 0.12849 0.48761 0.87884 0.0
C784 C 0.11737 0.50537 0.8971 0.0
C785 C 0.0848 0.55066 0.95687 0.0
C786 C 0.09609 0.5357 0.93565 0.0
H787 H 0.1819 0.48992 0.83461 0.0
H788 H 0.16155 0.52008 0.86142 0.0
H789 H 0.07336 0.48427 0.88909 0.0
H790 H 0.03186 0.54 1.0029 0.0
H791 H 0.05119 0.51552 0.96917 0.0
C792 C 0.61329 0.86448 0.94387 0.0
C793 C 0.6355 0.86888 0.92528 0.0
C794 C 0.60569 0.8862 0.95536 0.0
C795 C 0.63077 0.957 0.97515 0.0
H796 H 0.5523 0.95458 0.96985 0.0
C797 C 0.58836 0.04196 0.02117 0.0
C798 C 0.56126 0.03355 0.03243 0.0
C799 C 0.59878 1.02353 1.00641 0.0
C800 C 0.57422 0.95547 0.97187 0.0
H801 H 0.66741 0.90002 0.90472 0.0
H802 H 0.65469 0.93803 0.92583 0.0
H803 H 0.56825 0.91915 0.94792 0.0
H804 H 0.52424 0.99901 0.03782 0.0
H805 H 0.54257 0.96698 1.01319 0.0
H806 H 0.63658 0.99263 1.00014 0.0
C807 C 0.64311 0.91757 0.9311 0.0
C808 C 0.58335 0.93524 0.95912 0.0
C809 C 0.65043 0.89576 0.91915 0.0
C810 C 0.54504 1.00631 0.02906 0.0
C811 C 0.55553 0.98791 1.01471 0.0
C812 C 0.62154 0.97708 0.98835 0.0
C813 C 0.62043 0.9129 0.94903 0.0
C814 C 0.61158 0.9356 0.96094 0.0
C815 C 0.58239 0.99626 1.00289 0.0
C816 C 0.59301 0.97631 0.98725 0.0
H817 H 0.60177 0.84422 0.94975 0.0
H818 H 0.58837 0.88213 0.96946 0.0
H819 H 0.65266 0.95761 0.97688 0.0
H820 H 0.60134 0.06285 0.02338 0.0
H821 H 0.61946 0.03077 0.99744 0.0
C822 C 0.7843 0.17208 0.51945 0.0
C823 C 0.78395 0.18948 0.49856 0.0
C824 C 0.80873 0.1655 0.5253 0.0
C825 C 0.87261 0.15735 0.49655 0.0
H826 H 0.896 0.16042 0.57061 0.0
C827 C 0.96533 0.11965 0.53136 0.0
C828 C 0.95957 0.10408 0.55432 0.0
C829 C 0.9468 0.13364 0.52334 0.0
C830 C 0.88968 0.15936 0.54984 0.0
H831 H 0.80914 0.21352 0.46734 0.0
H832 H 0.85177 0.20116 0.47718 0.0
H833 H 0.85794 0.17857 0.55871 0.0
H834 H 0.92996 0.09035 0.58664 0.0
H835 H 0.8975 0.11419 0.57251 0.0
H836 H 0.90355 0.13702 0.48786 0.0
C837 C 0.83301 0.1929 0.48904 0.0
C838 C 0.868 0.16982 0.54306 0.0
C839 C 0.8086 0.19982 0.48338 0.0
C840 C 0.93497 0.10237 0.56894 0.0
C841 C 0.91651 0.11623 0.56096 0.0
C842 C 0.89423 0.14664 0.50338 0.0
C843 C 0.83328 0.17586 0.51019 0.0
C844 C 0.85877 0.16824 0.5165 0.0
C845 C 0.92232 0.13223 0.53825 0.0
C846 C 0.90236 0.14683 0.53023 0.0
H847 H 0.76555 0.16319 0.53112 0.0
H848 H 0.80829 0.15189 0.5414 0.0
H849 H 0.86574 0.15586 0.47593 0.0
H850 H 0.98419 0.1212 0.5198 0.0
H851 H 0.95182 0.14585 0.50577 0.0
C852 C 0.2867 0.75101 0.21424 0.0
C853 C 0.30835 0.73882 0.21652 0.0
C854 C 0.26124 0.73725 0.20146 0.0
C855 C 0.2304 0.67993 0.15305 0.0
H856 H 0.15968 0.69081 0.17558 0.0
C857 C 0.12271 0.61842 0.10661 0.0
C858 C 0.10356 0.63278 0.10092 0.0
C859 C 0.14744 0.63085 0.12112 0.0
C860 C 0.1793 0.68773 0.16888 0.0
H861 H 0.31954 0.70205 0.20751 0.0
H862 H 0.27489 0.67776 0.18626 0.0
H863 H 0.20253 0.71257 0.20101 0.0
H864 H 0.09563 0.67164 0.10623 0.0
H865 H 0.13868 0.69322 0.1315 0.0
H866 H 0.20701 0.65488 0.12104 0.0
C867 C 0.27782 0.69826 0.1938 0.0
C868 C 0.20395 0.70026 0.18347 0.0
C869 C 0.30336 0.71208 0.20645 0.0
C870 C 0.10985 0.65992 0.11014 0.0
C871 C 0.13448 0.67227 0.12483 0.0
C872 C 0.20571 0.66725 0.13859 0.0
C873 C 0.25653 0.71079 0.19072 0.0
C874 C 0.22994 0.69668 0.1757 0.0
C875 C 0.1536 0.6579 0.13053 0.0
C876 C 0.17985 0.67109 0.14622 0.0
H877 H 0.28955 0.77142 0.22202 0.0
H878 H 0.24557 0.74776 0.19937 0.0
H879 H 0.24999 0.67704 0.14605 0.0
H880 H 0.1186 0.59748 0.09993 0.0
H881 H 0.16154 0.61908 0.12535 0.0
C882 C 0.24109 0.45605 0.68691 0.0
C883 C 0.24209 0.44992 0.71399 0.0
C884 C 0.26516 0.47186 0.67397 0.0
C885 C 0.33705 0.51944 0.68476 0.0
H886 H 0.35138 0.49156 0.61501 0.0
C887 C 0.44532 0.55679 0.6306 0.0
C888 C 0.44513 0.55759 0.60257 0.0
C889 C 0.42012 0.54616 0.64471 0.0
C890 C 0.34758 0.49997 0.63426 0.0
H891 H 0.2692 0.45649 0.74886 0.0
H892 H 0.31113 0.48426 0.72631 0.0
H893 H 0.3082 0.46915 0.63854 0.0
H894 H 0.41838 0.54927 0.56746 0.0
H895 H 0.37453 0.53144 0.59194 0.0
H896 H 0.37663 0.55025 0.68042 0.0
C897 C 0.29162 0.47694 0.71513 0.0
C898 C 0.32274 0.48705 0.6478 0.0
C899 C 0.26752 0.46105 0.72809 0.0
C900 C 0.41922 0.54863 0.58904 0.0
C901 C 0.39408 0.53821 0.6031 0.0
C902 C 0.36194 0.53249 0.67112 0.0
C903 C 0.2909 0.48204 0.68775 0.0
C904 C 0.31713 0.49656 0.67323 0.0
C905 C 0.3942 0.53627 0.63108 0.0
C906 C 0.36755 0.52291 0.64566 0.0
H907 H 0.22175 0.44822 0.67555 0.0
H908 H 0.26369 0.47584 0.65301 0.0
H909 H 0.33329 0.52743 0.70422 0.0
H910 H 0.465 0.56357 0.64156 0.0
H911 H 0.42112 0.54485 0.6662 0.0
C912 C 0.75984 0.78401 0.92866 0.0
C913 C 0.76074 0.78889 0.90115 0.0
C914 C 0.77578 0.76859 0.93927 0.0
C915 C 0.84043 0.75076 0.92477 0.0
H916 H 0.81573 0.69947 0.98126 0.0
C917 C 0.91333 0.69326 0.96439 0.0
C918 C 0.91422 0.6908 0.99219 0.0
C919 C 0.8923 0.70202 0.95276 0.0
C920 C 0.82301 0.71391 0.96564 0.0
H921 H 0.77733 0.77978 0.86297 0.0
H922 H 0.8051 0.75298 0.88146 0.0
H923 H 0.78252 0.72031 0.96194 0.0
H924 H 0.89345 0.695 0.0296 0.0
H925 H 0.85696 0.71083 1.00939 0.0
H926 H 0.88098 0.74512 0.92875 0.0
C927 C 0.79259 0.76152 0.89491 0.0
C928 C 0.80397 0.72579 0.95456 0.0
C929 C 0.77669 0.77686 0.88433 0.0
C930 C 0.89315 0.69653 1.00808 0.0
C931 C 0.87221 0.70552 0.99647 0.0
C932 C 0.85944 0.73906 0.9359 0.0
C933 C 0.7929 0.7578 0.92257 0.0
C934 C 0.81251 0.74434 0.93399 0.0
C935 C 0.87179 0.70879 0.96869 0.0
C936 C 0.85103 0.72049 0.95648 0.0
H937 H 0.74787 0.79313 0.94213 0.0
H938 H 0.7757 0.7662 0.96069 0.0
H939 H 0.84785 0.76542 0.90934 0.0
H940 H 0.92903 0.68853 0.95161 0.0
H941 H 0.89226 0.70369 0.93125 0.0
C942 C 0.40992 0.84391 0.23401 0.0
C943 C 0.39022 0.82429 0.21818 0.0
C944 C 0.42331 0.86972 0.22434 0.0
C945 C 0.41699 0.91856 0.17418 0.0
H946 H 0.49787 0.94823 0.18295 0.0
C947 C 0.48197 1.01532 0.12028 0.0
C948 C 0.50595 0.03242 0.13323 0.0
C949 C 0.46701 0.99049 0.13121 0.0
C950 C 0.47521 0.94059 0.18067 0.0
H951 H 0.36967 0.81686 0.17933 0.0
H952 H 0.39237 0.86192 0.16295 0.0
H953 H 0.4734 0.90452 0.20141 0.0
H954 H 0.53251 0.03746 0.16824 0.0
H955 H 0.50605 0.99491 0.18781 0.0
H956 H 0.41863 0.95474 0.15379 0.0
C957 C 0.39727 0.85734 0.18296 0.0
C958 C 0.46118 0.91539 0.19123 0.0
C959 C 0.38413 0.83145 0.19248 0.0
C960 C 0.51421 0.0246 0.15768 0.0
C961 C 0.49912 1.0 0.16878 0.0
C962 C 0.43097 0.94394 0.16386 0.0
C963 C 0.41718 0.87675 0.19867 0.0
C964 C 0.43192 0.90398 0.18804 0.0
C965 C 0.47552 0.98231 0.15554 0.0
C966 C 0.46035 0.95534 0.16685 0.0
H967 H 0.41494 0.8394 0.254 0.0
H968 H 0.43832 0.8843 0.23708 0.0
H969 H 0.39438 0.91049 0.17161 0.0
H970 H 0.47517 1.02081 0.10139 0.0
H971 H 0.4492 0.97743 0.12017 0.0
C972 C 0.1596 0.35949 0.68316 0.0
C973 C 0.16706 0.35994 0.71026 0.0
C974 C 0.14721 0.3349 0.66929 0.0
C975 C 0.10913 0.2623 0.67952 0.0
H976 H 0.13245 0.25284 0.60668 0.0
C977 C 0.07545 0.15799 0.62303 0.0
C978 C 0.06807 0.15761 0.59592 0.0
C979 C 0.08756 0.18259 0.63702 0.0
C980 C 0.12545 0.25521 0.6269 0.0
H981 H 0.16761 0.33461 0.74382 0.0
H982 H 0.146 0.29187 0.71972 0.0
H983 H 0.15295 0.29583 0.63083 0.0
H984 H 0.06778 0.18304 0.56233 0.0
H985 H 0.08859 0.22571 0.58671 0.0
H986 H 0.08165 0.22166 0.67559 0.0
C987 C 0.14928 0.31056 0.70927 0.0
C988 C 0.1372 0.27991 0.64077 0.0
C989 C 0.16166 0.33513 0.72313 0.0
C990 C 0.07324 0.18246 0.58316 0.0
C991 C 0.08536 0.20701 0.59712 0.0
C992 C 0.09738 0.23758 0.66565 0.0
C993 C 0.14196 0.31008 0.68213 0.0
C994 C 0.12922 0.28381 0.66727 0.0
C995 C 0.09265 0.20744 0.62426 0.0
C996 C 0.10536 0.2337 0.63915 0.0
H997 H 0.16315 0.37821 0.67269 0.0
H998 H 0.14148 0.33537 0.64853 0.0
H999 H 0.10214 0.26467 0.69975 0.0
H1000 H 0.07185 0.13929 0.63353 0.0
H1001 H 0.09322 0.1821 0.6578 0.0
C1002 C 0.65554 0.27335 0.57653 0.0
C1003 C 0.65629 0.25833 0.55277 0.0
C1004 C 0.64518 0.29564 0.57647 0.0
C1005 C 0.6014 0.32668 0.53648 0.0
H1006 H 0.64047 0.39234 0.57671 0.0
C1007 C 0.58132 0.42824 0.51894 0.0
C1008 C 0.57701 0.44311 0.54172 0.0
C1009 C 0.59108 0.40584 0.52145 0.0
C1010 C 0.62923 0.37404 0.56559 0.0
H1011 H 0.6462 0.25458 0.51047 0.0
H1012 H 0.62901 0.29384 0.51019 0.0
H1013 H 0.65685 0.35241 0.5791 0.0
H1014 H 0.58004 0.44633 0.585 0.0
H1015 H 0.59761 0.40733 0.58929 0.0
H1016 H 0.57417 0.34849 0.52256 0.0
C1017 C 0.63602 0.28823 0.52896 0.0
C1018 C 0.63852 0.35116 0.56701 0.0
C1019 C 0.64624 0.26592 0.52904 0.0
C1020 C 0.58341 0.43548 0.56704 0.0
C1021 C 0.59339 0.41314 0.56953 0.0
C1022 C 0.59228 0.34956 0.53492 0.0
C1023 C 0.6354 0.30338 0.55265 0.0
C1024 C 0.62485 0.32731 0.55226 0.0
C1025 C 0.59696 0.39793 0.54676 0.0
C1026 C 0.60624 0.37351 0.54927 0.0
H1027 H 0.66339 0.26816 0.59509 0.0
H1028 H 0.64473 0.30673 0.5951 0.0
H1029 H 0.59003 0.30847 0.52532 0.0
H1030 H 0.57722 0.43395 0.49911 0.0
H1031 H 0.59416 0.39475 0.50354 0.0
loop_
_geom_bond_atom_site_label_1
_geom_bond_atom_site_label_2
_geom_bond_distance
_geom_bond_site_symmetry_2
_ccdc_geom_bond_type
H0 C1 0.949 . S
C1 H0 0.949 . S
C1 C2 1.395 . S
C1 C3 1.391 . S
C2 C1 1.395 . S
C2 C5 1.390 . S
C3 C1 1.391 . S
C3 C7 1.387 . S
C3 C8 1.491 . S
H4 C5 0.950 . S
C5 C2 1.390 . S
C5 H4 0.950 . S
C5 C6 1.378 . S
C6 C5 1.378 . S
C6 C7 1.409 . S
C7 C3 1.387 . S
C7 C6 1.409 . S
C7 H9 0.951 . S
C8 C3 1.491 . S
C8 C10 1.382 . S
C8 C12 1.404 . S
H9 C7 0.951 . S
C10 C8 1.382 . S
C10 C11 1.390 . S
C10 H15 0.949 . S
C11 C10 1.390 . S
C11 C16 1.399 . S
C12 C8 1.404 . S
C12 H13 0.950 . S
C12 C14 1.375 . S
H13 C12 0.950 . S
C14 C12 1.375 . S
C14 C16 1.382 . S
C14 H18 0.950 . S
H15 C10 0.949 . S
C16 C11 1.399 . S
C16 C14 1.382 . S
C16 H17 0.952 . S
H17 C16 0.952 . S
H18 C14 0.950 . S
H19 C20 0.949 . S
C20 H19 0.949 . S
C20 C21 1.395 . S
C20 C22 1.391 . S
C21 C20 1.395 . S
C21 C24 1.390 . S
C22 C20 1.391 . S
C22 C26 1.387 . S
C22 C27 1.491 . S
H23 C24 0.950 . S
C24 C21 1.390 . S
C24 H23 0.950 . S
C24 C25 1.378 . S
C25 C24 1.378 . S
C25 C26 1.409 . S
C26 C22 1.387 . S
C26 C25 1.409 . S
C26 H28 0.951 . S
C27 C22 1.491 . S
C27 C29 1.382 . S
C27 C31 1.404 . S
H28 C26 0.951 . S
C29 C27 1.382 . S
C29 C30 1.390 . S
C29 H34 0.949 . S
C30 C29 1.390 . S
C30 C35 1.399 . S
C31 C27 1.404 . S
C31 H32 0.950 . S
C31 C33 1.375 . S
H32 C31 0.950 . S
C33 C31 1.375 . S
C33 C35 1.382 . S
C33 H37 0.950 . S
H34 C29 0.949 . S
C35 C30 1.399 . S
C35 C33 1.382 . S
C35 H36 0.952 . S
H36 C35 0.952 . S
H37 C33 0.950 . S
H38 C39 0.949 . S
C39 H38 0.949 . S
C39 C40 1.395 . S
C39 C41 1.391 . S
C40 C39 1.395 . S
C40 C43 1.390 . S
C41 C39 1.391 . S
C41 C45 1.387 . S
C41 C46 1.491 . S
H42 C43 0.950 . S
C43 C40 1.390 . S
C43 H42 0.950 . S
C43 C44 1.378 . S
C44 C43 1.378 . S
C44 C45 1.409 . S
C45 C41 1.387 . S
C45 C44 1.409 . S
C45 H47 0.951 . S
C46 C41 1.491 . S
C46 C48 1.382 . S
C46 C50 1.404 . S
H47 C45 0.951 . S
C48 C46 1.382 . S
C48 C49 1.390 . S
C48 H53 0.949 . S
C49 C48 1.390 . S
C49 C54 1.399 . S
C50 C46 1.404 . S
C50 H51 0.950 . S
C50 C52 1.375 . S
H51 C50 0.950 . S
C52 C50 1.375 . S
C52 C54 1.382 . S
C52 H56 0.950 . S
H53 C48 0.949 . S
C54 C49 1.399 . S
C54 C52 1.382 . S
C54 H55 0.952 . S
H55 C54 0.952 . S
H56 C52 0.950 . S
H57 C58 0.949 . S
C58 H57 0.949 . S
C58 C59 1.395 . S
C58 C60 1.391 . S
C59 C58 1.395 . S
C59 C62 1.390 . S
C60 C58 1.391 . S
C60 C64 1.387 . S
C60 C65 1.491 . S
H61 C62 0.950 . S
C62 C59 1.390 . S
C62 H61 0.950 . S
C62 C63 1.378 . S
C63 C62 1.378 . S
C63 C64 1.409 . S
C64 C60 1.387 . S
C64 C63 1.409 . S
C64 H66 0.951 . S
C65 C60 1.491 . S
C65 C67 1.382 . S
C65 C69 1.404 . S
H66 C64 0.951 . S
C67 C65 1.382 . S
C67 C68 1.390 . S
C67 H72 0.949 . S
C68 C67 1.390 . S
C68 C73 1.399 . S
C69 C65 1.404 . S
C69 H70 0.950 . S
C69 C71 1.375 . S
H70 C69 0.950 . S
C71 C69 1.375 . S
C71 C73 1.382 . S
C71 H75 0.950 . S
H72 C67 0.949 . S
C73 C68 1.399 . S
C73 C71 1.382 . S
C73 H74 0.952 . S
H74 C73 0.952 . S
H75 C71 0.950 . S
H76 C77 0.949 . S
C77 H76 0.949 . S
C77 C78 1.395 . S
C77 C79 1.391 . S
C78 C77 1.395 . S
C78 C81 1.390 . S
C79 C77 1.391 . S
C79 C83 1.387 . S
C79 C84 1.491 . S
H80 C81 0.950 . S
C81 C78 1.390 . S
C81 H80 0.950 . S
C81 C82 1.378 . S
C82 C81 1.378 . S
C82 C83 1.409 . S
C83 C79 1.387 . S
C83 C82 1.409 . S
C83 H85 0.951 . S
C84 C79 1.491 . S
C84 C86 1.382 . S
C84 C88 1.404 . S
H85 C83 0.951 . S
C86 C84 1.382 . S
C86 C87 1.390 . S
C86 H91 0.949 . S
C87 C86 1.390 . S
C87 C92 1.399 . S
C88 C84 1.404 . S
C88 H89 0.950 . S
C88 C90 1.375 . S
H89 C88 0.950 . S
C90 C88 1.375 . S
C90 C92 1.382 . S
C90 H94 0.950 . S
H91 C86 0.949 . S
C92 C87 1.399 . S
C92 C90 1.382 . S
C92 H93 0.952 . S
H93 C92 0.952 . S
H94 C90 0.950 . S
H95 C96 0.949 . S
C96 H95 0.949 . S
C96 C97 1.395 . S
C96 C98 1.391 . S
C97 C96 1.395 . S
C97 C100 1.390 . S
C98 C96 1.391 . S
C98 C102 1.387 . S
C98 C103 1.491 . S
H99 C100 0.950 . S
C100 C97 1.390 . S
C100 H99 0.950 . S
C100 C101 1.378 . S
C101 C100 1.378 . S
C101 C102 1.409 . S
C102 C98 1.387 . S
C102 C101 1.409 . S
C102 H104 0.951 . S
C103 C98 1.491 . S
C103 C105 1.382 . S
C103 C107 1.404 . S
H104 C102 0.951 . S
C105 C103 1.382 . S
C105 C106 1.390 . S
C105 H110 0.949 . S
C106 C105 1.390 . S
C106 C111 1.399 . S
C107 C103 1.404 . S
C107 H108 0.950 . S
C107 C109 1.375 . S
H108 C107 0.950 . S
C109 C107 1.375 . S
C109 C111 1.382 . S
C109 H113 0.950 . S
H110 C105 0.949 . S
C111 C106 1.399 . S
C111 C109 1.382 . S
C111 H112 0.952 . S
H112 C111 0.952 . S
H113 C109 0.950 . S
H114 C115 0.949 . S
C115 H114 0.949 . S
C115 C116 1.395 . S
C115 C117 1.391 . S
C116 C115 1.395 . S
C116 C119 1.390 . S
C117 C115 1.391 . S
C117 C121 1.387 . S
C117 C122 1.491 . S
H118 C119 0.950 . S
C119 C116 1.390 . S
C119 H118 0.950 . S
C119 C120 1.378 . S
C120 C119 1.378 . S
C120 C121 1.409 . S
C121 C117 1.387 . S
C121 C120 1.409 . S
C121 H123 0.951 . S
C122 C117 1.491 . S
C122 C124 1.382 . S
C122 C126 1.404 . S
H123 C121 0.951 . S
C124 C122 1.382 . S
C124 C125 1.390 . S
C124 H129 0.949 . S
C125 C124 1.390 . S
C125 C130 1.399 . S
C126 C122 1.404 . S
C126 H127 0.950 . S
C126 C128 1.375 . S
H127 C126 0.950 . S
C128 C126 1.375 . S
C128 C130 1.382 . S
C128 H132 0.950 . S
H129 C124 0.949 . S
C130 C125 1.399 . S
C130 C128 1.382 . S
C130 H131 0.952 . S
H131 C130 0.952 . S
H132 C128 0.950 . S
H133 C134 0.949 . S
C134 H133 0.949 . S
C134 C135 1.395 . S
C134 C136 1.391 . S
C135 C134 1.395 . S
C135 C138 1.390 . S
C136 C134 1.391 . S
C136 C140 1.387 . S
C136 C141 1.491 . S
H137 C138 0.950 . S
C138 C135 1.390 . S
C138 H137 0.950 . S
C138 C139 1.378 . S
C139 C138 1.378 . S
C139 C140 1.409 . S
C140 C136 1.387 . S
C140 C139 1.409 . S
C140 H142 0.951 . S
C141 C136 1.491 . S
C141 C143 1.382 . S
C141 C145 1.404 . S
H142 C140 0.951 . S
C143 C141 1.382 . S
C143 C144 1.390 . S
C143 H148 0.949 . S
C144 C143 1.390 . S
C144 C149 1.399 . S
C145 C141 1.404 . S
C145 H146 0.950 . S
C145 C147 1.375 . S
H146 C145 0.950 . S
C147 C145 1.375 . S
C147 C149 1.382 . S
C147 H151 0.950 . S
H148 C143 0.949 . S
C149 C144 1.399 . S
C149 C147 1.382 . S
C149 H150 0.952 . S
H150 C149 0.952 . S
H151 C147 0.950 . S
Sm152 C154 2.846 . S
Sm152 O172 2.543 . S
Sm152 O173 2.450 . S
Sm152 O174 2.681 . S
Sm152 O175 2.464 . S
Sm152 O176 2.396 . S
Sm152 O180 2.386 1_455 S
Sm152 O183 2.408 . S
Sm153 C163 2.846 1_545 S
Sm153 O174 2.386 1_655 S
Sm153 O177 2.408 1_655 S
Sm153 O178 2.543 1_545 S
Sm153 O179 2.450 . S
Sm153 O180 2.681 . S
Sm153 O181 2.464 . S
Sm153 O182 2.396 . S
C154 Sm152 2.846 . S
C154 C155 1.506 . S
C154 O172 1.261 . S
C154 O173 1.242 . S
C155 C154 1.506 . S
C155 C156 1.358 . S
C155 C160 1.382 . S
C156 C155 1.358 . S
C156 C157 1.385 . S
C156 H184 0.930 . S
C157 C156 1.385 . S
C157 C158 1.395 . S
C157 H185 0.929 . S
C158 C157 1.395 . S
C158 C159 1.335 . S
C159 C158 1.335 . S
C159 C160 1.398 . S
C159 H186 0.930 . S
C160 C155 1.382 . S
C160 C159 1.398 . S
C160 H187 0.929 . S
C161 O174 1.271 . S
C161 O175 1.251 . S
C162 O176 1.252 . S
C162 O177 1.272 . S
C163 Sm153 2.846 1_565 S
C163 C164 1.506 . S
C163 O178 1.261 . S
C163 O179 1.242 1_565 S
C164 C163 1.506 . S
C164 C165 1.358 . S
C164 C169 1.382 . S
C165 C164 1.358 . S
C165 C166 1.385 . S
C165 H188 0.930 . S
C166 C165 1.385 . S
C166 C167 1.395 . S
C166 H189 0.929 . S
C167 C166 1.395 . S
C167 C168 1.335 . S
C168 C167 1.335 . S
C168 C169 1.398 . S
C168 H190 0.930 . S
C169 C164 1.382 . S
C169 C168 1.398 . S
C169 H191 0.929 . S
C170 O180 1.271 . S
C170 O181 1.251 . S
C171 O182 1.252 1_565 S
C171 O183 1.272 1_665 S
O172 Sm152 2.543 . S
O172 C154 1.261 . S
O173 Sm152 2.450 . S
O173 C154 1.242 . S
O174 Sm152 2.681 . S
O174 Sm153 2.386 1_455 S
O174 C161 1.271 . S
O175 Sm152 2.464 . S
O175 C161 1.251 . S
O176 Sm152 2.396 . S
O176 C162 1.252 . S
O177 Sm153 2.408 1_455 S
O177 C162 1.272 . S
O178 Sm153 2.543 1_565 S
O178 C163 1.261 . S
O179 Sm153 2.450 . S
O179 C163 1.242 1_545 S
O180 Sm152 2.386 1_655 S
O180 Sm153 2.681 . S
O180 C170 1.271 . S
O181 Sm153 2.464 . S
O181 C170 1.251 . S
O182 Sm153 2.396 . S
O182 C171 1.252 1_545 S
O183 Sm152 2.408 . S
O183 C171 1.272 1_445 S
H184 C156 0.930 . S
H185 C157 0.929 . S
H186 C159 0.930 . S
H187 C160 0.929 . S
H188 C165 0.930 . S
H189 C166 0.929 . S
H190 C168 0.930 . S
H191 C169 0.929 . S
Sm192 C194 2.846 . S
Sm192 O212 2.543 . S
Sm192 O213 2.450 . S
Sm192 O214 2.681 . S
Sm192 O215 2.464 . S
Sm192 O216 2.396 . S
Sm192 O220 2.386 . S
Sm192 O223 2.408 . S
Sm193 C203 2.846 . S
Sm193 O214 2.386 . S
Sm193 O217 2.408 . S
Sm193 O218 2.543 1_545 S
Sm193 O219 2.450 . S
Sm193 O220 2.681 . S
Sm193 O221 2.464 . S
Sm193 O222 2.396 . S
C194 Sm192 2.846 . S
C194 C195 1.506 . S
C194 O212 1.261 . S
C194 O213 1.242 . S
C195 C194 1.506 . S
C195 C196 1.358 . S
C195 C200 1.382 . S
C196 C195 1.358 . S
C196 C197 1.385 . S
C196 H224 0.930 . S
C197 C196 1.385 . S
C197 C198 1.395 . S
C197 H225 0.929 . S
C198 C197 1.395 . S
C198 C199 1.335 . S
C199 C198 1.335 . S
C199 C200 1.398 . S
C199 H226 0.930 . S
C200 C195 1.382 . S
C200 C199 1.398 . S
C200 H227 0.929 . S
C201 O214 1.271 1_565 S
C201 O215 1.251 1_565 S
C202 O216 1.252 . S
C202 O217 1.272 . S
C203 Sm193 2.846 . S
C203 C204 1.506 1_544 S
C203 O218 1.261 1_545 S
C203 O219 1.242 . S
C204 C203 1.506 1_566 S
C204 C205 1.358 . S
C204 C209 1.382 . S
C205 C204 1.358 . S
C205 C206 1.385 . S
C205 H228 0.930 . S
C206 C205 1.385 . S
C206 C207 1.395 . S
C206 H229 0.929 . S
C207 C206 1.395 . S
C207 C208 1.335 . S
C208 C207 1.335 . S
C208 C209 1.398 . S
C208 H230 0.930 . S
C209 C204 1.382 . S
C209 C208 1.398 . S
C209 H231 0.929 1_565 S
C210 O220 1.271 . S
C210 O221 1.251 . S
C211 O222 1.252 . S
C211 O223 1.272 . S
O212 Sm192 2.543 . S
O212 C194 1.261 . S
O213 Sm192 2.450 . S
O213 C194 1.242 . S
O214 Sm192 2.681 . S
O214 Sm193 2.386 . S
O214 C201 1.271 1_545 S
O215 Sm192 2.464 . S
O215 C201 1.251 1_545 S
O216 Sm192 2.396 . S
O216 C202 1.252 . S
O217 Sm193 2.408 . S
O217 C202 1.272 . S
O218 Sm193 2.543 1_565 S
O218 C203 1.261 1_565 S
O219 Sm193 2.450 . S
O219 C203 1.242 . S
O220 Sm192 2.386 . S
O220 Sm193 2.681 . S
O220 C210 1.271 . S
O221 Sm193 2.464 . S
O221 C210 1.251 . S
O222 Sm193 2.396 . S
O222 C211 1.252 . S
O223 Sm192 2.408 . S
O223 C211 1.272 . S
H224 C196 0.930 . S
H225 C197 0.929 . S
H226 C199 0.930 . S
H227 C200 0.929 . S
H228 C205 0.930 . S
H229 C206 0.929 . S
H230 C208 0.930 . S
H231 C209 0.929 1_545 S
Sm232 C234 2.846 . S
Sm232 O252 2.543 . S
Sm232 O253 2.450 . S
Sm232 O254 2.681 . S
Sm232 O255 2.464 . S
Sm232 O256 2.396 . S
Sm232 O260 2.386 . S
Sm232 O263 2.408 . S
Sm233 C243 2.846 . S
Sm233 O254 2.386 . S
Sm233 O257 2.408 . S
Sm233 O258 2.543 . S
Sm233 O259 2.450 . S
Sm233 O260 2.681 . S
Sm233 O261 2.464 . S
Sm233 O262 2.396 . S
C234 Sm232 2.846 . S
C234 C235 1.506 . S
C234 O252 1.261 . S
C234 O253 1.242 . S
C235 C234 1.506 . S
C235 C236 1.358 . S
C235 C240 1.382 . S
C236 C235 1.358 . S
C236 C237 1.385 . S
C236 H264 0.930 . S
C237 C236 1.385 . S
C237 C238 1.395 . S
C237 H265 0.929 . S
C238 C237 1.395 . S
C238 C239 1.335 . S
C239 C238 1.335 . S
C239 C240 1.398 . S
C239 H266 0.930 . S
C240 C235 1.382 . S
C240 C239 1.398 . S
C240 H267 0.929 . S
C241 O254 1.271 . S
C241 O255 1.251 . S
C242 O256 1.252 . S
C242 O257 1.272 . S
C243 Sm233 2.846 . S
C243 C244 1.506 . S
C243 O258 1.261 . S
C243 O259 1.242 . S
C244 C243 1.506 . S
C244 C245 1.358 . S
C244 C249 1.382 . S
C245 C244 1.358 . S
C245 C246 1.385 . S
C245 H268 0.930 . S
C246 C245 1.385 . S
C246 C247 1.395 . S
C246 H269 0.929 . S
C247 C246 1.395 . S
C247 C248 1.335 . S
C248 C247 1.335 . S
C248 C249 1.398 . S
C248 H270 0.930 . S
C249 C244 1.382 . S
C249 C248 1.398 . S
C249 H271 0.929 . S
C250 O260 1.271 . S
C250 O261 1.251 . S
C251 O262 1.252 . S
C251 O263 1.272 . S
O252 Sm232 2.543 . S
O252 C234 1.261 . S
O253 Sm232 2.450 . S
O253 C234 1.242 . S
O254 Sm232 2.681 . S
O254 Sm233 2.386 . S
O254 C241 1.271 . S
O255 Sm232 2.464 . S
O255 C241 1.251 . S
O256 Sm232 2.396 . S
O256 C242 1.252 . S
O257 Sm233 2.408 . S
O257 C242 1.272 . S
O258 Sm233 2.543 . S
O258 C243 1.261 . S
O259 Sm233 2.450 . S
O259 C243 1.242 . S
O260 Sm232 2.386 . S
O260 Sm233 2.681 . S
O260 C250 1.271 . S
O261 Sm233 2.464 . S
O261 C250 1.251 . S
O262 Sm233 2.396 . S
O262 C251 1.252 . S
O263 Sm232 2.408 . S
O263 C251 1.272 . S
H264 C236 0.930 . S
H265 C237 0.929 . S
H266 C239 0.930 . S
H267 C240 0.929 . S
H268 C245 0.930 . S
H269 C246 0.929 . S
H270 C248 0.930 . S
H271 C249 0.929 . S
Sm272 C274 2.846 . S
Sm272 O292 2.543 . S
Sm272 O293 2.450 . S
Sm272 O294 2.681 . S
Sm272 O295 2.464 . S
Sm272 O296 2.396 . S
Sm272 O300 2.351 1_554 S
Sm272 O303 2.408 1_455 S
Sm273 C283 2.833 1_454 S
Sm273 O294 2.409 . S
Sm273 O297 2.423 . S
Sm273 O298 2.541 1_454 S
Sm273 O299 2.428 1_554 S
Sm273 O300 2.683 1_554 S
Sm273 O301 2.443 1_554 S
Sm273 O302 2.400 1_554 S
C274 Sm272 2.846 . S
C274 C275 1.506 . S
C274 O292 1.261 . S
C274 O293 1.242 . S
C275 C274 1.506 . S
C275 C276 1.358 . S
C275 C280 1.382 . S
C276 C275 1.358 . S
C276 C277 1.385 . S
C276 H304 0.930 . S
C277 C276 1.385 . S
C277 C278 1.395 . S
C277 H305 0.929 . S
C278 C277 1.395 . S
C278 C279 1.335 . S
C279 C278 1.335 . S
C279 C280 1.398 . S
C279 H306 0.930 . S
C280 C275 1.382 . S
C280 C279 1.398 . S
C280 H307 0.929 . S
C281 O294 1.271 . S
C281 O295 1.251 . S
C282 O296 1.252 . S
C282 O297 1.272 . S
C283 Sm273 2.833 1_656 S
C283 C284 1.506 . S
C283 O298 1.261 . S
C283 O299 1.242 1_655 S
C284 C283 1.506 . S
C284 C285 1.358 . S
C284 C289 1.382 . S
C285 C284 1.358 . S
C285 C286 1.385 . S
C285 H308 0.930 . S
C286 C285 1.385 . S
C286 C287 1.395 . S
C286 H309 0.929 . S
C287 C286 1.395 . S
C287 C288 1.335 . S
C288 C287 1.335 . S
C288 C289 1.398 . S
C288 H310 0.930 . S
C289 C284 1.382 . S
C289 C288 1.398 . S
C289 H311 0.929 . S
C290 O300 1.312 . S
C290 O301 1.251 . S
C291 O302 1.244 1_655 S
C291 O303 1.272 1_556 S
O292 Sm272 2.543 . S
O292 C274 1.261 . S
O293 Sm272 2.450 . S
O293 C274 1.242 . S
O294 Sm272 2.681 . S
O294 Sm273 2.409 . S
O294 C281 1.271 . S
O295 Sm272 2.464 . S
O295 C281 1.251 . S
O296 Sm272 2.396 . S
O296 C282 1.252 . S
O297 Sm273 2.423 . S
O297 C282 1.272 . S
O298 Sm273 2.541 1_656 S
O298 C283 1.261 . S
O299 Sm273 2.428 1_556 S
O299 C283 1.242 1_455 S
O300 Sm272 2.351 1_556 S
O300 Sm273 2.683 1_556 S
O300 C290 1.312 . S
O301 Sm273 2.443 1_556 S
O301 C290 1.251 . S
O302 Sm273 2.400 1_556 S
O302 C291 1.244 1_455 S
O303 Sm272 2.408 1_655 S
O303 C291 1.272 1_554 S
H304 C276 0.930 . S
H305 C277 0.929 . S
H306 C279 0.930 . S
H307 C280 0.929 . S
H308 C285 0.930 . S
H309 C286 0.929 . S
H310 C288 0.930 . S
H311 C289 0.929 . S
C312 C313 1.349 . S
C312 C314 1.327 . S
C312 H337 0.950 . S
C313 C312 1.349 . S
C313 C329 1.349 . S
C314 C312 1.327 . S
C314 C333 1.429 . S
C314 H338 0.950 . S
C315 C332 1.574 . S
C315 C334 1.368 . S
C315 H339 0.949 . S
H316 C320 0.949 . S
C317 C318 1.349 . S
C317 C319 1.327 . S
C317 H340 0.950 . S
C318 C317 1.349 . S
C318 C330 1.349 . S
C319 C317 1.327 . S
C319 C335 1.429 . S
C319 H341 0.950 . S
C320 H316 0.949 . S
C320 C328 1.574 . S
C320 C336 1.368 . S
H321 C329 0.950 . S
H322 C327 0.950 . S
H323 C328 0.949 . S
H324 C330 0.950 . S
H325 C331 0.950 . S
H326 C332 0.949 . S
C327 H322 0.950 . S
C327 C329 1.327 . S
C327 C333 1.429 . S
C328 C320 1.574 . S
C328 H323 0.949 . S
C328 C334 1.368 . S
C329 C313 1.349 . S
C329 H321 0.950 . S
C329 C327 1.327 . S
C330 C318 1.349 . S
C330 H324 0.950 . S
C330 C331 1.327 . S
C331 H325 0.950 . S
C331 C330 1.327 . S
C331 C335 1.429 . S
C332 C315 1.574 . S
C332 H326 0.949 . S
C332 C336 1.368 . S
C333 C314 1.429 . S
C333 C327 1.429 . S
C333 C334 1.523 . S
C334 C315 1.368 . S
C334 C328 1.368 . S
C334 C333 1.523 . S
C335 C319 1.429 . S
C335 C331 1.429 . S
C335 C336 1.523 . S
C336 C320 1.368 . S
C336 C332 1.368 . S
C336 C335 1.523 . S
H337 C312 0.950 . S
H338 C314 0.950 . S
H339 C315 0.949 . S
H340 C317 0.950 . S
H341 C319 0.950 . S
C342 C343 1.349 . S
C342 C344 1.327 . S
C342 H367 0.950 . S
C343 C342 1.349 . S
C343 C359 1.349 . S
C344 C342 1.327 . S
C344 C363 1.429 . S
C344 H368 0.950 . S
C345 C362 1.574 . S
C345 C364 1.368 . S
C345 H369 0.949 . S
H346 C350 0.949 . S
C347 C348 1.349 . S
C347 C349 1.327 . S
C347 H370 0.950 . S
C348 C347 1.349 . S
C348 C360 1.349 . S
C349 C347 1.327 . S
C349 C365 1.429 . S
C349 H371 0.950 . S
C350 H346 0.949 . S
C350 C358 1.574 . S
C350 C366 1.368 . S
H351 C359 0.950 . S
H352 C357 0.950 . S
H353 C358 0.949 . S
H354 C360 0.950 . S
H355 C361 0.950 . S
H356 C362 0.949 . S
C357 H352 0.950 . S
C357 C359 1.327 . S
C357 C363 1.429 . S
C358 C350 1.574 . S
C358 H353 0.949 . S
C358 C364 1.368 . S
C359 C343 1.349 . S
C359 H351 0.950 . S
C359 C357 1.327 . S
C360 C348 1.349 . S
C360 H354 0.950 . S
C360 C361 1.327 . S
C361 H355 0.950 . S
C361 C360 1.327 . S
C361 C365 1.429 . S
C362 C345 1.574 . S
C362 H356 0.949 . S
C362 C366 1.368 . S
C363 C344 1.429 . S
C363 C357 1.429 . S
C363 C364 1.523 . S
C364 C345 1.368 . S
C364 C358 1.368 . S
C364 C363 1.523 . S
C365 C349 1.429 . S
C365 C361 1.429 . S
C365 C366 1.523 . S
C366 C350 1.368 . S
C366 C362 1.368 . S
C366 C365 1.523 . S
H367 C342 0.950 . S
H368 C344 0.950 . S
H369 C345 0.949 . S
H370 C347 0.950 . S
H371 C349 0.950 . S
C372 C373 1.349 . S
C372 C374 1.327 . S
C372 H397 0.950 . S
C373 C372 1.349 . S
C373 C389 1.349 . S
C374 C372 1.327 . S
C374 C393 1.429 . S
C374 H398 0.950 . S
C375 C392 1.574 . S
C375 C394 1.368 . S
C375 H399 0.949 . S
H376 C380 0.949 . S
C377 C378 1.349 . S
C377 C379 1.327 . S
C377 H400 0.950 . S
C378 C377 1.349 . S
C378 C390 1.349 . S
C379 C377 1.327 . S
C379 C395 1.429 . S
C379 H401 0.950 . S
C380 H376 0.949 . S
C380 C388 1.574 . S
C380 C396 1.368 . S
H381 C389 0.950 . S
H382 C387 0.950 . S
H383 C388 0.949 . S
H384 C390 0.950 . S
H385 C391 0.950 . S
H386 C392 0.949 . S
C387 H382 0.950 . S
C387 C389 1.327 . S
C387 C393 1.429 . S
C388 C380 1.574 . S
C388 H383 0.949 . S
C388 C394 1.368 . S
C389 C373 1.349 . S
C389 H381 0.950 . S
C389 C387 1.327 . S
C390 C378 1.349 . S
C390 H384 0.950 . S
C390 C391 1.327 . S
C391 H385 0.950 . S
C391 C390 1.327 . S
C391 C395 1.429 . S
C392 C375 1.574 . S
C392 H386 0.949 . S
C392 C396 1.368 . S
C393 C374 1.429 . S
C393 C387 1.429 . S
C393 C394 1.523 . S
C394 C375 1.368 . S
C394 C388 1.368 . S
C394 C393 1.523 . S
C395 C379 1.429 . S
C395 C391 1.429 . S
C395 C396 1.523 . S
C396 C380 1.368 . S
C396 C392 1.368 . S
C396 C395 1.523 . S
H397 C372 0.950 . S
H398 C374 0.950 . S
H399 C375 0.949 . S
H400 C377 0.950 . S
H401 C379 0.950 . S
C402 C403 1.349 . S
C402 C404 1.327 . S
C402 H427 0.950 . S
C403 C402 1.349 . S
C403 C419 1.349 . S
C404 C402 1.327 . S
C404 C423 1.429 . S
C404 H428 0.950 . S
C405 C422 1.574 . S
C405 C424 1.368 . S
C405 H429 0.949 . S
H406 C410 0.949 . S
C407 C408 1.349 . S
C407 C409 1.327 . S
C407 H430 0.950 . S
C408 C407 1.349 . S
C408 C420 1.349 . S
C409 C407 1.327 . S
C409 C425 1.429 . S
C409 H431 0.950 . S
C410 H406 0.949 . S
C410 C418 1.574 . S
C410 C426 1.368 . S
H411 C419 0.950 . S
H412 C417 0.950 . S
H413 C418 0.949 . S
H414 C420 0.950 1_455 S
H415 C421 0.950 . S
H416 C422 0.949 . S
C417 H412 0.950 . S
C417 C419 1.327 . S
C417 C423 1.429 . S
C418 C410 1.574 . S
C418 H413 0.949 . S
C418 C424 1.368 . S
C419 C403 1.349 . S
C419 H411 0.950 . S
C419 C417 1.327 . S
C420 C408 1.349 . S
C420 H414 0.950 1_655 S
C420 C421 1.327 . S
C421 H415 0.950 . S
C421 C420 1.327 . S
C421 C425 1.429 . S
C422 C405 1.574 . S
C422 H416 0.949 . S
C422 C426 1.368 . S
C423 C404 1.429 . S
C423 C417 1.429 . S
C423 C424 1.523 . S
C424 C405 1.368 . S
C424 C418 1.368 . S
C424 C423 1.523 . S
C425 C409 1.429 . S
C425 C421 1.429 . S
C425 C426 1.523 . S
C426 C410 1.368 . S
C426 C422 1.368 . S
C426 C425 1.523 . S
H427 C402 0.950 . S
H428 C404 0.950 . S
H429 C405 0.949 . S
H430 C407 0.950 . S
H431 C409 0.950 . S
C432 C433 1.349 . S
C432 C434 1.327 . S
C432 H457 0.950 . S
C433 C432 1.349 . S
C433 C449 1.349 . S
C434 C432 1.327 . S
C434 C453 1.429 . S
C434 H458 0.950 . S
C435 C452 1.574 . S
C435 C454 1.368 . S
C435 H459 0.949 . S
H436 C440 0.949 . S
C437 C438 1.349 . S
C437 C439 1.327 . S
C437 H460 0.950 . S
C438 C437 1.349 . S
C438 C450 1.349 . S
C439 C437 1.327 . S
C439 C455 1.429 . S
C439 H461 0.950 . S
C440 H436 0.949 . S
C440 C448 1.574 . S
C440 C456 1.368 . S
H441 C449 0.950 . S
H442 C447 0.950 . S
H443 C448 0.949 . S
H444 C450 0.950 . S
H445 C451 0.950 . S
H446 C452 0.949 . S
C447 H442 0.950 . S
C447 C449 1.327 . S
C447 C453 1.429 . S
C448 C440 1.574 . S
C448 H443 0.949 . S
C448 C454 1.368 . S
C449 C433 1.349 . S
C449 H441 0.950 . S
C449 C447 1.327 . S
C450 C438 1.349 . S
C450 H444 0.950 . S
C450 C451 1.327 . S
C451 H445 0.950 . S
C451 C450 1.327 . S
C451 C455 1.429 . S
C452 C435 1.574 . S
C452 H446 0.949 . S
C452 C456 1.368 . S
C453 C434 1.429 . S
C453 C447 1.429 . S
C453 C454 1.523 . S
C454 C435 1.368 . S
C454 C448 1.368 . S
C454 C453 1.523 . S
C455 C439 1.429 . S
C455 C451 1.429 . S
C455 C456 1.523 . S
C456 C440 1.368 . S
C456 C452 1.368 . S
C456 C455 1.523 . S
H457 C432 0.950 . S
H458 C434 0.950 . S
H459 C435 0.949 . S
H460 C437 0.950 . S
H461 C439 0.950 . S
C462 C463 1.349 . S
C462 C464 1.327 . S
C462 H487 0.950 . S
C463 C462 1.349 . S
C463 C479 1.349 . S
C464 C462 1.327 . S
C464 C483 1.429 . S
C464 H488 0.950 . S
C465 C482 1.574 . S
C465 C484 1.368 . S
C465 H489 0.949 . S
H466 C470 0.949 . S
C467 C468 1.349 . S
C467 C469 1.327 . S
C467 H490 0.950 . S
C468 C467 1.349 . S
C468 C480 1.349 . S
C469 C467 1.327 . S
C469 C485 1.429 1_545 S
C469 H491 0.950 . S
C470 H466 0.949 . S
C470 C478 1.574 . S
C470 C486 1.368 . S
H471 C479 0.950 . S
H472 C477 0.950 . S
H473 C478 0.949 . S
H474 C480 0.950 . S
H475 C481 0.950 . S
H476 C482 0.949 . S
C477 H472 0.950 . S
C477 C479 1.327 . S
C477 C483 1.429 . S
C478 C470 1.574 . S
C478 H473 0.949 . S
C478 C484 1.368 . S
C479 C463 1.349 . S
C479 H471 0.950 . S
C479 C477 1.327 . S
C480 C468 1.349 . S
C480 H474 0.950 . S
C480 C481 1.327 1_545 S
C481 H475 0.950 . S
C481 C480 1.327 1_565 S
C481 C485 1.429 . S
C482 C465 1.574 . S
C482 H476 0.949 . S
C482 C486 1.368 . S
C483 C464 1.429 . S
C483 C477 1.429 . S
C483 C484 1.523 . S
C484 C465 1.368 . S
C484 C478 1.368 . S
C484 C483 1.523 . S
C485 C469 1.429 1_565 S
C485 C481 1.429 . S
C485 C486 1.523 . S
C486 C470 1.368 . S
C486 C482 1.368 . S
C486 C485 1.523 . S
H487 C462 0.950 . S
H488 C464 0.950 . S
H489 C465 0.949 . S
H490 C467 0.950 . S
H491 C469 0.950 . S
C492 C493 1.349 . S
C492 C494 1.327 . S
C492 H517 0.950 . S
C493 C492 1.349 . S
C493 C509 1.349 . S
C494 C492 1.327 . S
C494 C513 1.429 . S
C494 H518 0.950 . S
C495 C512 1.574 . S
C495 C514 1.368 . S
C495 H519 0.949 . S
H496 C500 0.949 . S
C497 C498 1.349 . S
C497 C499 1.327 . S
C497 H520 0.950 . S
C498 C497 1.349 . S
C498 C510 1.349 . S
C499 C497 1.327 . S
C499 C515 1.429 . S
C499 H521 0.950 . S
C500 H496 0.949 . S
C500 C508 1.574 . S
C500 C516 1.368 . S
H501 C509 0.950 . S
H502 C507 0.950 . S
H503 C508 0.949 . S
H504 C510 0.950 1_554 S
H505 C511 0.950 . S
H506 C512 0.949 . S
C507 H502 0.950 . S
C507 C509 1.327 . S
C507 C513 1.429 . S
C508 C500 1.574 . S
C508 H503 0.949 . S
C508 C514 1.368 . S
C509 C493 1.349 . S
C509 H501 0.950 . S
C509 C507 1.327 . S
C510 C498 1.349 . S
C510 H504 0.950 1_556 S
C510 C511 1.327 . S
C511 H505 0.950 . S
C511 C510 1.327 . S
C511 C515 1.429 . S
C512 C495 1.574 . S
C512 H506 0.949 . S
C512 C516 1.368 . S
C513 C494 1.429 . S
C513 C507 1.429 . S
C513 C514 1.523 . S
C514 C495 1.368 . S
C514 C508 1.368 . S
C514 C513 1.523 . S
C515 C499 1.429 . S
C515 C511 1.429 . S
C515 C516 1.523 . S
C516 C500 1.368 . S
C516 C512 1.368 . S
C516 C515 1.523 . S
H517 C492 0.950 . S
H518 C494 0.950 . S
H519 C495 0.949 . S
H520 C497 0.950 . S
H521 C499 0.950 . S
C522 C523 1.349 . S
C522 C524 1.327 . S
C522 H547 0.950 . S
C523 C522 1.349 . S
C523 C539 1.349 . S
C524 C522 1.327 . S
C524 C543 1.429 . S
C524 H548 0.950 . S
C525 C542 1.574 . S
C525 C544 1.368 . S
C525 H549 0.949 . S
H526 C530 0.949 . S
C527 C528 1.349 . S
C527 C529 1.327 . S
C527 H550 0.950 . S
C528 C527 1.349 . S
C528 C540 1.349 . S
C529 C527 1.327 . S
C529 C545 1.429 . S
C529 H551 0.950 . S
C530 H526 0.949 . S
C530 C538 1.574 . S
C530 C546 1.368 . S
H531 C539 0.950 . S
H532 C537 0.950 . S
H533 C538 0.949 . S
H534 C540 0.950 . S
H535 C541 0.950 . S
H536 C542 0.949 . S
C537 H532 0.950 . S
C537 C539 1.327 . S
C537 C543 1.429 . S
C538 C530 1.574 . S
C538 H533 0.949 . S
C538 C544 1.368 . S
C539 C523 1.349 . S
C539 H531 0.950 . S
C539 C537 1.327 . S
C540 C528 1.349 . S
C540 H534 0.950 . S
C540 C541 1.327 . S
C541 H535 0.950 . S
C541 C540 1.327 . S
C541 C545 1.429 . S
C542 C525 1.574 . S
C542 H536 0.949 . S
C542 C546 1.368 . S
C543 C524 1.429 . S
C543 C537 1.429 . S
C543 C544 1.523 . S
C544 C525 1.368 . S
C544 C538 1.368 . S
C544 C543 1.523 . S
C545 C529 1.429 . S
C545 C541 1.429 . S
C545 C546 1.523 . S
C546 C530 1.368 . S
C546 C542 1.368 . S
C546 C545 1.523 . S
H547 C522 0.950 . S
H548 C524 0.950 . S
H549 C525 0.949 . S
H550 C527 0.950 . S
H551 C529 0.950 . S
C552 C553 1.349 . S
C552 C554 1.327 . S
C552 H577 0.950 . S
C553 C552 1.349 . S
C553 C569 1.349 . S
C554 C552 1.327 . S
C554 C573 1.429 . S
C554 H578 0.950 . S
C555 C572 1.574 . S
C555 C574 1.368 . S
C555 H579 0.949 . S
H556 C560 0.949 . S
C557 C558 1.349 . S
C557 C559 1.327 . S
C557 H580 0.950 . S
C558 C557 1.349 . S
C558 C570 1.349 . S
C559 C557 1.327 . S
C559 C575 1.429 . S
C559 H581 0.950 . S
C560 H556 0.949 . S
C560 C568 1.574 . S
C560 C576 1.368 . S
H561 C569 0.950 . S
H562 C567 0.950 . S
H563 C568 0.949 . S
H564 C570 0.950 . S
H565 C571 0.950 . S
H566 C572 0.949 . S
C567 H562 0.950 . S
C567 C569 1.327 . S
C567 C573 1.429 . S
C568 C560 1.574 . S
C568 H563 0.949 . S
C568 C574 1.368 . S
C569 C553 1.349 . S
C569 H561 0.950 . S
C569 C567 1.327 . S
C570 C558 1.349 . S
C570 H564 0.950 . S
C570 C571 1.327 . S
C571 H565 0.950 . S
C571 C570 1.327 . S
C571 C575 1.429 . S
C572 C555 1.574 . S
C572 H566 0.949 . S
C572 C576 1.368 . S
C573 C554 1.429 . S
C573 C567 1.429 . S
C573 C574 1.523 . S
C574 C555 1.368 . S
C574 C568 1.368 . S
C574 C573 1.523 . S
C575 C559 1.429 . S
C575 C571 1.429 . S
C575 C576 1.523 . S
C576 C560 1.368 . S
C576 C572 1.368 . S
C576 C575 1.523 . S
H577 C552 0.950 . S
H578 C554 0.950 . S
H579 C555 0.949 . S
H580 C557 0.950 . S
H581 C559 0.950 . S
C582 C583 1.349 . S
C582 C584 1.327 . S
C582 H607 0.950 . S
C583 C582 1.349 . S
C583 C599 1.349 . S
C584 C582 1.327 . S
C584 C603 1.429 . S
C584 H608 0.950 . S
C585 C602 1.574 . S
C585 C604 1.368 . S
C585 H609 0.949 . S
H586 C590 0.949 . S
C587 C588 1.349 . S
C587 C589 1.327 . S
C587 H610 0.950 . S
C588 C587 1.349 . S
C588 C600 1.349 . S
C589 C587 1.327 . S
C589 C605 1.462 . S
C589 H611 0.950 . S
C590 H586 0.949 . S
C590 C598 1.574 . S
C590 C606 1.368 . S
H591 C599 0.950 . S
H592 C597 0.950 . S
H593 C598 0.949 . S
H594 C600 0.962 . S
H595 C601 0.950 . S
H596 C602 0.949 1_554 S
C597 H592 0.950 . S
C597 C599 1.327 . S
C597 C603 1.429 . S
C598 C590 1.574 . S
C598 H593 0.949 . S
C598 C604 1.368 . S
C599 C583 1.349 . S
C599 H591 0.950 . S
C599 C597 1.327 . S
C600 C588 1.349 . S
C600 H594 0.962 . S
C600 C601 1.327 1_554 S
C601 H595 0.950 . S
C601 C600 1.327 1_556 S
C601 C605 1.420 1_556 S
C602 C585 1.574 . S
C602 H596 0.949 1_556 S
C602 C606 1.368 . S
C603 C584 1.429 . S
C603 C597 1.429 . S
C603 C604 1.523 . S
C604 C585 1.368 . S
C604 C598 1.368 . S
C604 C603 1.523 . S
C605 C589 1.462 . S
C605 C601 1.420 1_554 S
C605 C606 1.501 1_554 S
C606 C590 1.368 . S
C606 C602 1.368 . S
C606 C605 1.501 1_556 S
H607 C582 0.950 . S
H608 C584 0.950 . S
H609 C585 0.949 . S
H610 C587 0.950 . S
H611 C589 0.950 . S
C612 C613 1.349 . S
C612 C614 1.327 . S
C612 H637 0.950 . S
C613 C612 1.349 . S
C613 C629 1.349 . S
C614 C612 1.327 . S
C614 C633 1.429 . S
C614 H638 0.950 . S
C615 C632 1.574 . S
C615 C634 1.368 . S
C615 H639 0.949 . S
H616 C620 0.949 . S
C617 C618 1.349 . S
C617 C619 1.327 . S
C617 H640 0.950 1_655 S
C618 C617 1.349 . S
C618 C630 1.349 . S
C619 C617 1.327 . S
C619 C635 1.429 . S
C619 H641 0.950 . S
C620 H616 0.949 . S
C620 C628 1.574 . S
C620 C636 1.368 . S
H621 C629 0.950 . S
H622 C627 0.950 . S
H623 C628 0.949 . S
H624 C630 0.950 . S
H625 C631 0.950 . S
H626 C632 0.949 . S
C627 H622 0.950 . S
C627 C629 1.327 . S
C627 C633 1.429 . S
C628 C620 1.574 . S
C628 H623 0.949 . S
C628 C634 1.368 . S
C629 C613 1.349 . S
C629 H621 0.950 . S
C629 C627 1.327 . S
C630 C618 1.349 . S
C630 H624 0.950 . S
C630 C631 1.327 . S
C631 H625 0.950 . S
C631 C630 1.327 . S
C631 C635 1.429 . S
C632 C615 1.574 . S
C632 H626 0.949 . S
C632 C636 1.368 . S
C633 C614 1.429 . S
C633 C627 1.429 . S
C633 C634 1.523 . S
C634 C615 1.368 . S
C634 C628 1.368 . S
C634 C633 1.523 . S
C635 C619 1.429 . S
C635 C631 1.429 . S
C635 C636 1.523 . S
C636 C620 1.368 . S
C636 C632 1.368 . S
C636 C635 1.523 . S
H637 C612 0.950 . S
H638 C614 0.950 . S
H639 C615 0.949 . S
H640 C617 0.950 1_455 S
H641 C619 0.950 . S
C642 C643 1.349 . S
C642 C644 1.327 . S
C642 H667 0.950 . S
C643 C642 1.349 . S
C643 C659 1.349 . S
C644 C642 1.327 . S
C644 C663 1.429 . S
C644 H668 0.950 . S
C645 C662 1.574 . S
C645 C664 1.368 . S
C645 H669 0.949 . S
H646 C650 0.949 . S
C647 C648 1.349 . S
C647 C649 1.327 . S
C647 H670 0.950 . S
C648 C647 1.349 . S
C648 C660 1.349 . S
C649 C647 1.327 . S
C649 C665 1.429 . S
C649 H671 0.950 . S
C650 H646 0.949 . S
C650 C658 1.574 . S
C650 C666 1.368 . S
H651 C659 0.950 . S
H652 C657 0.950 . S
H653 C658 0.949 . S
H654 C660 0.950 . S
H655 C661 0.950 . S
H656 C662 0.949 . S
C657 H652 0.950 . S
C657 C659 1.327 . S
C657 C663 1.429 . S
C658 C650 1.574 . S
C658 H653 0.949 . S
C658 C664 1.368 . S
C659 C643 1.349 . S
C659 H651 0.950 . S
C659 C657 1.327 . S
C660 C648 1.349 . S
C660 H654 0.950 . S
C660 C661 1.327 . S
C661 H655 0.950 . S
C661 C660 1.327 . S
C661 C665 1.429 . S
C662 C645 1.574 . S
C662 H656 0.949 . S
C662 C666 1.368 . S
C663 C644 1.429 . S
C663 C657 1.429 . S
C663 C664 1.523 . S
C664 C645 1.368 . S
C664 C658 1.368 . S
C664 C663 1.523 . S
C665 C649 1.429 . S
C665 C661 1.429 . S
C665 C666 1.523 . S
C666 C650 1.368 . S
C666 C662 1.368 . S
C666 C665 1.523 . S
H667 C642 0.950 . S
H668 C644 0.950 . S
H669 C645 0.949 . S
H670 C647 0.950 . S
H671 C649 0.950 . S
C672 C673 1.349 . S
C672 C674 1.327 . S
C672 H697 0.950 . S
C673 C672 1.349 . S
C673 C689 1.349 . S
C674 C672 1.327 . S
C674 C693 1.429 . S
C674 H698 0.950 . S
C675 C692 1.574 . S
C675 C694 1.368 . S
C675 H699 0.949 . S
H676 C680 0.949 . S
C677 C678 1.349 . S
C677 C679 1.327 . S
C677 H700 0.950 . S
C678 C677 1.349 . S
C678 C690 1.349 . S
C679 C677 1.327 . S
C679 C695 1.429 . S
C679 H701 0.950 . S
C680 H676 0.949 . S
C680 C688 1.574 . S
C680 C696 1.368 . S
H681 C689 0.950 . S
H682 C687 0.950 . S
H683 C688 0.949 . S
H684 C690 0.950 . S
H685 C691 0.950 . S
H686 C692 0.949 . S
C687 H682 0.950 . S
C687 C689 1.327 . S
C687 C693 1.429 . S
C688 C680 1.574 . S
C688 H683 0.949 . S
C688 C694 1.368 . S
C689 C673 1.349 . S
C689 H681 0.950 . S
C689 C687 1.327 . S
C690 C678 1.349 . S
C690 H684 0.950 . S
C690 C691 1.327 . S
C691 H685 0.950 . S
C691 C690 1.327 . S
C691 C695 1.429 . S
C692 C675 1.574 . S
C692 H686 0.949 . S
C692 C696 1.368 . S
C693 C674 1.429 . S
C693 C687 1.429 . S
C693 C694 1.523 . S
C694 C675 1.368 . S
C694 C688 1.368 . S
C694 C693 1.523 . S
C695 C679 1.429 . S
C695 C691 1.429 . S
C695 C696 1.523 . S
C696 C680 1.368 . S
C696 C692 1.368 . S
C696 C695 1.523 . S
H697 C672 0.950 . S
H698 C674 0.950 . S
H699 C675 0.949 . S
H700 C677 0.950 . S
H701 C679 0.950 . S
C702 C703 1.349 . S
C702 C704 1.327 . S
C702 H727 0.950 . S
C703 C702 1.349 . S
C703 C719 1.349 . S
C704 C702 1.327 . S
C704 C723 1.429 . S
C704 H728 0.950 . S
C705 C722 1.574 . S
C705 C724 1.368 . S
C705 H729 0.949 . S
H706 C710 0.949 . S
C707 C708 1.349 . S
C707 C709 1.327 . S
C707 H730 0.950 . S
C708 C707 1.349 . S
C708 C720 1.349 . S
C709 C707 1.327 . S
C709 C725 1.429 . S
C709 H731 0.950 . S
C710 H706 0.949 . S
C710 C718 1.574 . S
C710 C726 1.368 . S
H711 C719 0.950 . S
H712 C717 0.950 . S
H713 C718 0.949 . S
H714 C720 0.950 . S
H715 C721 0.950 . S
H716 C722 0.949 . S
C717 H712 0.950 . S
C717 C719 1.327 . S
C717 C723 1.429 . S
C718 C710 1.574 . S
C718 H713 0.949 . S
C718 C724 1.368 . S
C719 C703 1.349 . S
C719 H711 0.950 . S
C719 C717 1.327 . S
C720 C708 1.349 . S
C720 H714 0.950 . S
C720 C721 1.327 . S
C721 H715 0.950 . S
C721 C720 1.327 . S
C721 C725 1.429 . S
C722 C705 1.574 . S
C722 H716 0.949 . S
C722 C726 1.368 . S
C723 C704 1.429 . S
C723 C717 1.429 . S
C723 C724 1.523 . S
C724 C705 1.368 . S
C724 C718 1.368 . S
C724 C723 1.523 . S
C725 C709 1.429 . S
C725 C721 1.429 . S
C725 C726 1.523 . S
C726 C710 1.368 . S
C726 C722 1.368 . S
C726 C725 1.523 . S
H727 C702 0.950 . S
H728 C704 0.950 . S
H729 C705 0.949 . S
H730 C707 0.950 . S
H731 C709 0.950 . S
C732 C733 1.349 . S
C732 C734 1.327 . S
C732 H757 0.950 . S
C733 C732 1.349 . S
C733 C749 1.349 . S
C734 C732 1.327 . S
C734 C753 1.429 . S
C734 H758 0.950 . S
C735 C752 1.574 . S
C735 C754 1.368 . S
C735 H759 0.949 . S
H736 C740 0.949 . S
C737 C738 1.349 . S
C737 C739 1.327 . S
C737 H760 0.950 . S
C738 C737 1.349 . S
C738 C750 1.349 . S
C739 C737 1.327 . S
C739 C755 1.429 . S
C739 H761 0.950 . S
C740 H736 0.949 . S
C740 C748 1.574 . S
C740 C756 1.368 . S
H741 C749 0.950 . S
H742 C747 0.950 . S
H743 C748 0.949 . S
H744 C750 0.950 . S
H745 C751 0.950 . S
H746 C752 0.949 . S
C747 H742 0.950 . S
C747 C749 1.327 . S
C747 C753 1.429 . S
C748 C740 1.574 . S
C748 H743 0.949 . S
C748 C754 1.368 . S
C749 C733 1.349 . S
C749 H741 0.950 . S
C749 C747 1.327 . S
C750 C738 1.349 . S
C750 H744 0.950 . S
C750 C751 1.327 . S
C751 H745 0.950 . S
C751 C750 1.327 . S
C751 C755 1.429 . S
C752 C735 1.574 . S
C752 H746 0.949 . S
C752 C756 1.368 . S
C753 C734 1.429 . S
C753 C747 1.429 . S
C753 C754 1.523 . S
C754 C735 1.368 . S
C754 C748 1.368 . S
C754 C753 1.523 . S
C755 C739 1.429 . S
C755 C751 1.429 . S
C755 C756 1.523 . S
C756 C740 1.368 . S
C756 C752 1.368 . S
C756 C755 1.523 . S
H757 C732 0.950 . S
H758 C734 0.950 . S
H759 C735 0.949 . S
H760 C737 0.950 . S
H761 C739 0.950 . S
C762 C763 1.349 . S
C762 C764 1.327 . S
C762 H787 0.950 . S
C763 C762 1.349 . S
C763 C779 1.349 . S
C764 C762 1.327 . S
C764 C783 1.429 . S
C764 H788 0.950 . S
C765 C782 1.574 . S
C765 C784 1.368 . S
C765 H789 0.949 . S
H766 C770 0.949 . S
C767 C768 1.349 . S
C767 C769 1.327 . S
C767 H790 0.950 . S
C768 C767 1.349 . S
C768 C780 1.349 . S
C769 C767 1.327 . S
C769 C785 1.429 . S
C769 H791 0.950 . S
C770 H766 0.949 . S
C770 C778 1.574 . S
C770 C786 1.368 . S
H771 C779 0.950 . S
H772 C777 0.950 . S
H773 C778 0.949 . S
H774 C780 0.950 . S
H775 C781 0.950 . S
H776 C782 0.949 . S
C777 H772 0.950 . S
C777 C779 1.327 . S
C777 C783 1.429 . S
C778 C770 1.574 . S
C778 H773 0.949 . S
C778 C784 1.368 . S
C779 C763 1.349 . S
C779 H771 0.950 . S
C779 C777 1.327 . S
C780 C768 1.349 . S
C780 H774 0.950 . S
C780 C781 1.327 . S
C781 H775 0.950 . S
C781 C780 1.327 . S
C781 C785 1.429 . S
C782 C765 1.574 . S
C782 H776 0.949 . S
C782 C786 1.368 . S
C783 C764 1.429 . S
C783 C777 1.429 . S
C783 C784 1.523 . S
C784 C765 1.368 . S
C784 C778 1.368 . S
C784 C783 1.523 . S
C785 C769 1.429 . S
C785 C781 1.429 . S
C785 C786 1.523 . S
C786 C770 1.368 . S
C786 C782 1.368 . S
C786 C785 1.523 . S
H787 C762 0.950 . S
H788 C764 0.950 . S
H789 C765 0.949 . S
H790 C767 0.950 . S
H791 C769 0.950 . S
C792 C793 1.349 . S
C792 C794 1.327 . S
C792 H817 0.950 . S
C793 C792 1.349 . S
C793 C809 1.349 . S
C794 C792 1.327 . S
C794 C813 1.429 . S
C794 H818 0.950 . S
C795 C812 1.574 . S
C795 C814 1.368 . S
C795 H819 0.949 . S
H796 C800 0.949 . S
C797 C798 1.349 . S
C797 C799 1.327 . S
C797 H820 0.950 . S
C798 C797 1.349 . S
C798 C810 1.342 1_554 S
C799 C797 1.327 . S
C799 C815 1.429 1_554 S
C799 H821 0.950 . S
C800 H796 0.949 . S
C800 C808 1.574 . S
C800 C816 1.368 . S
H801 C809 0.950 . S
H802 C807 0.950 . S
H803 C808 0.949 . S
H804 C810 0.951 . S
H805 C811 0.950 . S
H806 C812 0.949 . S
C807 H802 0.950 . S
C807 C809 1.327 . S
C807 C813 1.429 . S
C808 C800 1.574 . S
C808 H803 0.949 . S
C808 C814 1.368 . S
C809 C793 1.349 . S
C809 H801 0.950 . S
C809 C807 1.327 . S
C810 C798 1.342 1_556 S
C810 H804 0.951 . S
C810 C811 1.333 . S
C811 H805 0.950 . S
C811 C810 1.333 . S
C811 C815 1.429 . S
C812 C795 1.574 . S
C812 H806 0.949 . S
C812 C816 1.368 . S
C813 C794 1.429 . S
C813 C807 1.429 . S
C813 C814 1.523 . S
C814 C795 1.368 . S
C814 C808 1.368 . S
C814 C813 1.523 . S
C815 C799 1.429 1_556 S
C815 C811 1.429 . S
C815 C816 1.523 . S
C816 C800 1.368 . S
C816 C812 1.368 . S
C816 C815 1.523 . S
H817 C792 0.950 . S
H818 C794 0.950 . S
H819 C795 0.949 . S
H820 C797 0.950 . S
H821 C799 0.950 . S
C822 C823 1.349 . S
C822 C824 1.327 . S
C822 H847 0.950 . S
C823 C822 1.349 . S
C823 C839 1.349 . S
C824 C822 1.327 . S
C824 C843 1.429 . S
C824 H848 0.950 . S
C825 C842 1.574 . S
C825 C844 1.368 . S
C825 H849 0.949 . S
H826 C830 0.949 . S
C827 C828 1.349 . S
C827 C829 1.327 . S
C827 H850 0.950 . S
C828 C827 1.349 . S
C828 C840 1.349 . S
C829 C827 1.327 . S
C829 C845 1.429 . S
C829 H851 0.950 . S
C830 H826 0.949 . S
C830 C838 1.574 . S
C830 C846 1.368 . S
H831 C839 0.950 . S
H832 C837 0.950 . S
H833 C838 0.949 . S
H834 C840 0.950 . S
H835 C841 0.950 . S
H836 C842 0.949 . S
C837 H832 0.950 . S
C837 C839 1.327 . S
C837 C843 1.429 . S
C838 C830 1.574 . S
C838 H833 0.949 . S
C838 C844 1.368 . S
C839 C823 1.349 . S
C839 H831 0.950 . S
C839 C837 1.327 . S
C840 C828 1.349 . S
C840 H834 0.950 . S
C840 C841 1.327 . S
C841 H835 0.950 . S
C841 C840 1.327 . S
C841 C845 1.429 . S
C842 C825 1.574 . S
C842 H836 0.949 . S
C842 C846 1.368 . S
C843 C824 1.429 . S
C843 C837 1.429 . S
C843 C844 1.523 . S
C844 C825 1.368 . S
C844 C838 1.368 . S
C844 C843 1.523 . S
C845 C829 1.429 . S
C845 C841 1.429 . S
C845 C846 1.523 . S
C846 C830 1.368 . S
C846 C842 1.368 . S
C846 C845 1.523 . S
H847 C822 0.950 . S
H848 C824 0.950 . S
H849 C825 0.949 . S
H850 C827 0.950 . S
H851 C829 0.950 . S
C852 C853 1.349 . S
C852 C854 1.327 . S
C852 H877 0.950 . S
C853 C852 1.349 . S
C853 C869 1.349 . S
C854 C852 1.327 . S
C854 C873 1.429 . S
C854 H878 0.950 . S
C855 C872 1.574 . S
C855 C874 1.368 . S
C855 H879 0.949 . S
H856 C860 0.949 . S
C857 C858 1.349 . S
C857 C859 1.327 . S
C857 H880 0.950 . S
C858 C857 1.349 . S
C858 C870 1.349 . S
C859 C857 1.327 . S
C859 C875 1.429 . S
C859 H881 0.950 . S
C860 H856 0.949 . S
C860 C868 1.574 . S
C860 C876 1.368 . S
H861 C869 0.950 . S
H862 C867 0.950 . S
H863 C868 0.949 . S
H864 C870 0.950 . S
H865 C871 0.950 . S
H866 C872 0.949 . S
C867 H862 0.950 . S
C867 C869 1.327 . S
C867 C873 1.429 . S
C868 C860 1.574 . S
C868 H863 0.949 . S
C868 C874 1.368 . S
C869 C853 1.349 . S
C869 H861 0.950 . S
C869 C867 1.327 . S
C870 C858 1.349 . S
C870 H864 0.950 . S
C870 C871 1.327 . S
C871 H865 0.950 . S
C871 C870 1.327 . S
C871 C875 1.429 . S
C872 C855 1.574 . S
C872 H866 0.949 . S
C872 C876 1.368 . S
C873 C854 1.429 . S
C873 C867 1.429 . S
C873 C874 1.523 . S
C874 C855 1.368 . S
C874 C868 1.368 . S
C874 C873 1.523 . S
C875 C859 1.429 . S
C875 C871 1.429 . S
C875 C876 1.523 . S
C876 C860 1.368 . S
C876 C872 1.368 . S
C876 C875 1.523 . S
H877 C852 0.950 . S
H878 C854 0.950 . S
H879 C855 0.949 . S
H880 C857 0.950 . S
H881 C859 0.950 . S
C882 C883 1.349 . S
C882 C884 1.327 . S
C882 H907 0.950 . S
C883 C882 1.349 . S
C883 C899 1.349 . S
C884 C882 1.327 . S
C884 C903 1.429 . S
C884 H908 0.950 . S
C885 C902 1.574 . S
C885 C904 1.368 . S
C885 H909 0.949 . S
H886 C890 0.949 . S
C887 C888 1.349 . S
C887 C889 1.327 . S
C887 H910 0.950 . S
C888 C887 1.349 . S
C888 C900 1.349 . S
C889 C887 1.327 . S
C889 C905 1.429 . S
C889 H911 0.950 . S
C890 H886 0.949 . S
C890 C898 1.574 . S
C890 C906 1.368 . S
H891 C899 0.950 . S
H892 C897 0.950 . S
H893 C898 0.949 . S
H894 C900 0.950 . S
H895 C901 0.950 . S
H896 C902 0.949 . S
C897 H892 0.950 . S
C897 C899 1.327 . S
C897 C903 1.429 . S
C898 C890 1.574 . S
C898 H893 0.949 . S
C898 C904 1.368 . S
C899 C883 1.349 . S
C899 H891 0.950 . S
C899 C897 1.327 . S
C900 C888 1.349 . S
C900 H894 0.950 . S
C900 C901 1.327 . S
C901 H895 0.950 . S
C901 C900 1.327 . S
C901 C905 1.429 . S
C902 C885 1.574 . S
C902 H896 0.949 . S
C902 C906 1.368 . S
C903 C884 1.429 . S
C903 C897 1.429 . S
C903 C904 1.523 . S
C904 C885 1.368 . S
C904 C898 1.368 . S
C904 C903 1.523 . S
C905 C889 1.429 . S
C905 C901 1.429 . S
C905 C906 1.523 . S
C906 C890 1.368 . S
C906 C902 1.368 . S
C906 C905 1.523 . S
H907 C882 0.950 . S
H908 C884 0.950 . S
H909 C885 0.949 . S
H910 C887 0.950 . S
H911 C889 0.950 . S
C912 C913 1.349 . S
C912 C914 1.327 . S
C912 H937 0.950 . S
C913 C912 1.349 . S
C913 C929 1.349 . S
C914 C912 1.327 . S
C914 C933 1.429 . S
C914 H938 0.950 . S
C915 C932 1.574 . S
C915 C934 1.368 . S
C915 H939 0.949 . S
H916 C920 0.949 . S
C917 C918 1.349 . S
C917 C919 1.327 . S
C917 H940 0.950 . S
C918 C917 1.349 . S
C918 C930 1.349 . S
C919 C917 1.327 . S
C919 C935 1.429 . S
C919 H941 0.950 . S
C920 H916 0.949 . S
C920 C928 1.574 . S
C920 C936 1.368 . S
H921 C929 0.950 . S
H922 C927 0.950 . S
H923 C928 0.949 . S
H924 C930 0.950 . S
H925 C931 0.950 . S
H926 C932 0.949 . S
C927 H922 0.950 . S
C927 C929 1.327 . S
C927 C933 1.429 . S
C928 C920 1.574 . S
C928 H923 0.949 . S
C928 C934 1.368 . S
C929 C913 1.349 . S
C929 H921 0.950 . S
C929 C927 1.327 . S
C930 C918 1.349 . S
C930 H924 0.950 . S
C930 C931 1.327 . S
C931 H925 0.950 . S
C931 C930 1.327 . S
C931 C935 1.429 . S
C932 C915 1.574 . S
C932 H926 0.949 . S
C932 C936 1.368 . S
C933 C914 1.429 . S
C933 C927 1.429 . S
C933 C934 1.523 . S
C934 C915 1.368 . S
C934 C928 1.368 . S
C934 C933 1.523 . S
C935 C919 1.429 . S
C935 C931 1.429 . S
C935 C936 1.523 . S
C936 C920 1.368 . S
C936 C932 1.368 . S
C936 C935 1.523 . S
H937 C912 0.950 . S
H938 C914 0.950 . S
H939 C915 0.949 . S
H940 C917 0.950 . S
H941 C919 0.950 . S
C942 C943 1.349 . S
C942 C944 1.327 . S
C942 H967 0.950 . S
C943 C942 1.349 . S
C943 C959 1.349 . S
C944 C942 1.327 . S
C944 C963 1.429 . S
C944 H968 0.950 . S
C945 C962 1.574 . S
C945 C964 1.368 . S
C945 H969 0.949 . S
H946 C950 0.949 . S
C947 C948 1.349 . S
C947 C949 1.327 . S
C947 H970 0.950 . S
C948 C947 1.349 . S
C948 C960 1.349 . S
C949 C947 1.327 . S
C949 C965 1.429 . S
C949 H971 0.950 . S
C950 H946 0.949 . S
C950 C958 1.574 . S
C950 C966 1.368 . S
H951 C959 0.950 . S
H952 C957 0.950 . S
H953 C958 0.949 . S
H954 C960 0.950 . S
H955 C961 0.950 . S
H956 C962 0.949 . S
C957 H952 0.950 . S
C957 C959 1.327 . S
C957 C963 1.429 . S
C958 C950 1.574 . S
C958 H953 0.949 . S
C958 C964 1.368 . S
C959 C943 1.349 . S
C959 H951 0.950 . S
C959 C957 1.327 . S
C960 C948 1.349 . S
C960 H954 0.950 . S
C960 C961 1.327 . S
C961 H955 0.950 . S
C961 C960 1.327 . S
C961 C965 1.429 . S
C962 C945 1.574 . S
C962 H956 0.949 . S
C962 C966 1.368 . S
C963 C944 1.429 . S
C963 C957 1.429 . S
C963 C964 1.523 . S
C964 C945 1.368 . S
C964 C958 1.368 . S
C964 C963 1.523 . S
C965 C949 1.429 . S
C965 C961 1.429 . S
C965 C966 1.523 . S
C966 C950 1.368 . S
C966 C962 1.368 . S
C966 C965 1.523 . S
H967 C942 0.950 . S
H968 C944 0.950 . S
H969 C945 0.949 . S
H970 C947 0.950 . S
H971 C949 0.950 . S
C972 C973 1.349 . S
C972 C974 1.327 . S
C972 H997 0.950 . S
C973 C972 1.349 . S
C973 C989 1.349 . S
C974 C972 1.327 . S
C974 C993 1.429 . S
C974 H998 0.950 . S
C975 C992 1.574 . S
C975 C994 1.368 . S
C975 H999 0.949 . S
H976 C980 0.949 . S
C977 C978 1.349 . S
C977 C979 1.327 . S
C977 H1000 0.950 . S
C978 C977 1.349 . S
C978 C990 1.349 . S
C979 C977 1.327 . S
C979 C995 1.429 . S
C979 H1001 0.950 . S
C980 H976 0.949 . S
C980 C988 1.574 . S
C980 C996 1.368 . S
H981 C989 0.950 . S
H982 C987 0.950 . S
H983 C988 0.949 . S
H984 C990 0.950 . S
H985 C991 0.950 . S
H986 C992 0.949 . S
C987 H982 0.950 . S
C987 C989 1.327 . S
C987 C993 1.429 . S
C988 C980 1.574 . S
C988 H983 0.949 . S
C988 C994 1.368 . S
C989 C973 1.349 . S
C989 H981 0.950 . S
C989 C987 1.327 . S
C990 C978 1.349 . S
C990 H984 0.950 . S
C990 C991 1.327 . S
C991 H985 0.950 . S
C991 C990 1.327 . S
C991 C995 1.429 . S
C992 C975 1.574 . S
C992 H986 0.949 . S
C992 C996 1.368 . S
C993 C974 1.429 . S
C993 C987 1.429 . S
C993 C994 1.523 . S
C994 C975 1.368 . S
C994 C988 1.368 . S
C994 C993 1.523 . S
C995 C979 1.429 . S
C995 C991 1.429 . S
C995 C996 1.523 . S
C996 C980 1.368 . S
C996 C992 1.368 . S
C996 C995 1.523 . S
H997 C972 0.950 . S
H998 C974 0.950 . S
H999 C975 0.949 . S
H1000 C977 0.950 . S
H1001 C979 0.950 . S
C1002 C1003 1.349 . S
C1002 C1004 1.327 . S
C1002 H1027 0.950 . S
C1003 C1002 1.349 . S
C1003 C1019 1.349 . S
C1004 C1002 1.327 . S
C1004 C1023 1.429 . S
C1004 H1028 0.950 . S
C1005 C1022 1.574 . S
C1005 C1024 1.368 . S
C1005 H1029 0.949 . S
H1006 C1010 0.949 . S
C1007 C1008 1.349 . S
C1007 C1009 1.327 . S
C1007 H1030 0.950 . S
C1008 C1007 1.349 . S
C1008 C1020 1.349 . S
C1009 C1007 1.327 . S
C1009 C1025 1.429 . S
C1009 H1031 0.950 . S
C1010 H1006 0.949 . S
C1010 C1018 1.574 . S
C1010 C1026 1.368 . S
H1011 C1019 0.950 . S
H1012 C1017 0.950 . S
H1013 C1018 0.949 . S
H1014 C1020 0.950 . S
H1015 C1021 0.950 . S
H1016 C1022 0.949 . S
C1017 H1012 0.950 . S
C1017 C1019 1.327 . S
C1017 C1023 1.429 . S
C1018 C1010 1.574 . S
C1018 H1013 0.949 . S
C1018 C1024 1.368 . S
C1019 C1003 1.349 . S
C1019 H1011 0.950 . S
C1019 C1017 1.327 . S
C1020 C1008 1.349 . S
C1020 H1014 0.950 . S
C1020 C1021 1.327 . S
C1021 H1015 0.950 . S
C1021 C1020 1.327 . S
C1021 C1025 1.429 . S
C1022 C1005 1.574 . S
C1022 H1016 0.949 . S
C1022 C1026 1.368 . S
C1023 C1004 1.429 . S
C1023 C1017 1.429 . S
C1023 C1024 1.523 . S
C1024 C1005 1.368 . S
C1024 C1018 1.368 . S
C1024 C1023 1.523 . S
C1025 C1009 1.429 . S
C1025 C1021 1.429 . S
C1025 C1026 1.523 . S
C1026 C1010 1.368 . S
C1026 C1022 1.368 . S
C1026 C1025 1.523 . S
H1027 C1002 0.950 . S
H1028 C1004 0.950 . S
H1029 C1005 0.949 . S
H1030 C1007 0.950 . S
H1031 C1009 0.950 . S
C313 C6 1.209 . S
C318 C158 1.224 . S
C343 C21 1.530 . S
C348 C207 1.541 . S
C378 C242 1.693 . S
C373 C49 1.638 . S
C403 C68 1.956 . S
C408 C281 2.008 1_655 S
C438 C202 3.225 . S
C433 C2 3.137 . S
C468 C161 0.407 . S
C463 C30 0.484 . S
C498 C291 1.779 . S
C493 C40 1.814 . S
C528 C250 1.347 . S
C523 C63 1.352 . S
C553 C11 1.476 . S
C558 C278 1.616 . S
C588 C210 2.603 . S
C583 C44 2.688 . S
C613 C59 1.901 . S
C618 C171 1.901 . S
C643 C25 1.071 . S
C648 C247 1.064 . S
C678 C167 1.552 . S
C673 C82 1.550 . S
C703 C101 1.200 . S
C708 C198 1.200 . S
C733 C125 2.205 . S
C738 C251 2.323 . S
C763 C144 1.627 . S
C768 C290 1.716 . S
C793 C87 1.902 . S
C798 C211 2.025 1_565 S
C828 C170 1.940 . S
C823 C97 1.995 . S
C858 C282 1.568 . S
C853 C120 1.622 . S
C888 C241 1.350 . S
C883 C135 1.411 . S
C913 C78 2.014 . S
C918 C287 2.100 . S
C948 C201 1.803 . S
C943 C116 1.856 . S
C978 C162 2.662 . S
C973 C139 2.670 . S
C1003 C106 0.778 . S
C1008 C238 0.806 . S
