# Generated by pormake.
# Topology zzz, (3,6)-cn, num edge types: 1
# Building blocks:
#     Node 0, Type 0, BuildingBlock: BELTOD_clean_linker_0, # of connection points: 3
#     Node 1, Type 0, BuildingBlock: BELTOD_clean_linker_0, # of connection points: 3
#     Node 2, Type 0, BuildingBlock: BELTOD_clean_linker_0, # of connection points: 3
#     Node 3, Type 0, BuildingBlock: BELTOD_clean_linker_0, # of connection points: 3
#     Node 4, Type 0, BuildingBlock: BELTOD_clean_linker_0, # of connection points: 3
#     Node 5, Type 0, BuildingBlock: BELTOD_clean_linker_0, # of connection points: 3
#     Node 6, Type 0, BuildingBlock: BELTOD_clean_linker_0, # of connection points: 3
#     Node 7, Type 0, BuildingBlock: BELTOD_clean_linker_0, # of connection points: 3
#     Node 8, Type 1, BuildingBlock: VOLQOD_clean_sbu_1, # of connection points: 6
#     Node 9, Type 1, BuildingBlock: VOLQOD_clean_sbu_1, # of connection points: 6
#     Node 10, Type 1, BuildingBlock: VOLQOD_clean_sbu_1, # of connection points: 6
#     Node 11, Type 1, BuildingBlock: VOLQOD_clean_sbu_1, # of connection points: 6
#     Edge 12, Type (0, 1), BuildingBlock: XIVTED_clean_linker_0, # of connection points: 2
#     Edge 13, Type (0, 1), BuildingBlock: XIVTED_clean_linker_0, # of connection points: 2
#     Edge 14, Type (0, 1), BuildingBlock: XIVTED_clean_linker_0, # of connection points: 2
#     Edge 15, Type (0, 1), BuildingBlock: XIVTED_clean_linker_0, # of connection points: 2
#     Edge 16, Type (0, 1), BuildingBlock: XIVTED_clean_linker_0, # of connection points: 2
#     Edge 17, Type (0, 1), BuildingBlock: XIVTED_clean_linker_0, # of connection points: 2
#     Edge 18, Type (0, 1), BuildingBlock: XIVTED_clean_linker_0, # of connection points: 2
#     Edge 19, Type (0, 1), BuildingBlock: XIVTED_clean_linker_0, # of connection points: 2
#     Edge 20, Type (0, 1), BuildingBlock: XIVTED_clean_linker_0, # of connection points: 2
#     Edge 21, Type (0, 1), BuildingBlock: XIVTED_clean_linker_0, # of connection points: 2
#     Edge 22, Type (0, 1), BuildingBlock: XIVTED_clean_linker_0, # of connection points: 2
#     Edge 23, Type (0, 1), BuildingBlock: XIVTED_clean_linker_0, # of connection points: 2
#     Edge 24, Type (0, 1), BuildingBlock: XIVTED_clean_linker_0, # of connection points: 2
#     Edge 25, Type (0, 1), BuildingBlock: XIVTED_clean_linker_0, # of connection points: 2
#     Edge 26, Type (0, 1), BuildingBlock: XIVTED_clean_linker_0, # of connection points: 2
#     Edge 27, Type (0, 1), BuildingBlock: XIVTED_clean_linker_0, # of connection points: 2
#     Edge 28, Type (0, 1), BuildingBlock: XIVTED_clean_linker_0, # of connection points: 2
#     Edge 29, Type (0, 1), BuildingBlock: XIVTED_clean_linker_0, # of connection points: 2
#     Edge 30, Type (0, 1), BuildingBlock: XIVTED_clean_linker_0, # of connection points: 2
#     Edge 31, Type (0, 1), BuildingBlock: XIVTED_clean_linker_0, # of connection points: 2
#     Edge 32, Type (0, 1), BuildingBlock: XIVTED_clean_linker_0, # of connection points: 2
#     Edge 33, Type (0, 1), BuildingBlock: XIVTED_clean_linker_0, # of connection points: 2
#     Edge 34, Type (0, 1), BuildingBlock: XIVTED_clean_linker_0, # of connection points: 2
#     Edge 35, Type (0, 1), BuildingBlock: XIVTED_clean_linker_0, # of connection points: 2
# Relax obj value: 0.335
# Max RMSD: 0.254
# Mean RMSD: 0.197
data_MOF--net-zzz--node1-VOLQOD_clean_sbu_1--node2-BELTOD_clean_linker_0--edge1-XIVTED_clean_linker_0
_symmetry_space_group_name_H-M    P1
_symmetry_Int_Tables_number       1
_symmetry_cell_setting            triclinic
loop_
_symmetry_equiv_pos_as_xyz
'x, y, z'
_cell_length_a     54.308715
_cell_length_b     53.452893
_cell_length_c     21.141472
_cell_angle_alpha  90.20354
_cell_angle_beta   90.044604
_cell_angle_gamma 92.168244
loop_
_atom_site_label
_atom_site_type_symbol
_atom_site_fract_x
_atom_site_fract_y
_atom_site_fract_z
_atom_type_partial_charge
P0 P 0.77397 0.39323 0.17005 0.0
H1 H 0.77878 0.39417 0.30815 0.0
H2 H 0.80142 0.42229 0.37986 0.0
H3 H 0.81997 0.47132 0.22299 0.0
H4 H 0.79881 0.44195 0.15116 0.0
H5 H 0.73768 0.36764 0.08984 0.0
H6 H 0.70536 0.38251 0.02061 0.0
H7 H 0.72198 0.45839 0.08333 0.0
H8 H 0.7531 0.44326 0.15444 0.0
H9 H 0.81988 0.3678 0.18692 0.0
H10 H 0.78264 0.40517 0.03587 0.0
O11 O 0.76545 0.36713 0.20857 0.0
H12 H 0.85638 0.3644 0.1197 0.0
H13 H 0.81873 0.40177 0.96899 0.0
C14 C 0.78697 0.41607 0.22447 0.0
C15 C 0.78749 0.41111 0.28937 0.0
C16 C 0.80032 0.42744 0.33051 0.0
C17 C 0.81267 0.44925 0.30754 0.0
C18 C 0.81115 0.45457 0.24252 0.0
C19 C 0.79877 0.43794 0.20135 0.0
C20 C 0.74786 0.40426 0.12731 0.0
C21 C 0.73397 0.38741 0.08955 0.0
C22 C 0.71573 0.396 0.04937 0.0
C23 C 0.71124 0.42172 0.04572 0.0
C24 C 0.72474 0.43845 0.08521 0.0
C25 C 0.74282 0.42978 0.12573 0.0
C26 C 0.79843 0.38638 0.11619 0.0
C27 C 0.81932 0.37465 0.1388 0.0
C28 C 0.84018 0.37285 0.10057 0.0
C29 C 0.84037 0.38273 0.03903 0.0
C30 C 0.819 0.39355 0.01574 0.0
C31 C 0.79829 0.39555 0.05416 0.0
P32 P 0.04535 0.74842 0.22064 0.0
H33 H 0.04957 0.75953 0.35572 0.0
H34 H 0.0263 0.7868 0.42389 0.0
H35 H 0.97201 0.79418 0.27624 0.0
H36 H 0.99564 0.76696 0.20787 0.0
H37 H 0.06513 0.72295 0.11295 0.0
H38 H 0.04799 0.69149 0.03979 0.0
H39 H 0.98166 0.68526 0.15212 0.0
H40 H -0.001 0.71705 0.22561 0.0
H41 H 0.08455 0.78805 0.21819 0.0
H42 H 0.02128 0.76482 0.10613 0.0
O43 O 0.07092 0.73968 0.25694 0.0
H44 H 0.09307 0.82302 0.14505 0.0
H45 H 0.02944 0.79935 0.0341 0.0
C46 C 0.02432 0.76118 0.27676 0.0
C47 C 0.03223 0.76626 0.33872 0.0
C48 C 0.01881 0.78185 0.37783 0.0
C49 C 0.99739 0.79286 0.35528 0.0
C50 C 0.98858 0.78621 0.29471 0.0
C51 C 0.00198 0.77052 0.25574 0.0
C52 C 0.03322 0.72253 0.17412 0.0
C53 C 0.04697 0.71469 0.1222 0.0
C54 C 0.03708 0.6969 0.08012 0.0
C55 C 0.01332 0.68633 0.08966 0.0
C56 C -3e-05 0.69328 0.14353 0.0
C57 C 0.00984 0.71141 0.18545 0.0
C58 C 0.05273 0.77344 0.16645 0.0
C59 C 0.07271 0.79029 0.17753 0.0
C60 C 0.07745 0.81031 0.13605 0.0
C61 C 0.0622 0.81365 0.08316 0.0
C62 C 0.04198 0.7969 0.07328 0.0
C63 C 0.03724 0.77713 0.11464 0.0
P64 P 0.76132 0.08465 0.17428 0.0
H65 H 0.77283 0.06555 0.29995 0.0
H66 H 0.75104 0.03583 0.37007 0.0
H67 H 0.69557 0.02261 0.22543 0.0
H68 H 0.71803 0.05087 0.15541 0.0
H69 H 0.80602 0.10987 0.12756 0.0
H70 H 0.83986 0.09571 0.06218 0.0
H71 H 0.80843 0.02021 0.06721 0.0
H72 H 0.775 0.03448 0.13399 0.0
H73 H 0.71826 0.11574 0.17963 0.0
H74 H 0.75572 0.07241 0.03943 0.0
O75 O 0.76926 0.10942 0.21909 0.0
H76 H 0.68471 0.12214 0.10442 0.0
H77 H 0.72246 0.07808 0.96551 0.0
C78 C 0.74669 0.06097 0.22326 0.0
C79 C 0.75612 0.05594 0.28336 0.0
C80 C 0.74356 0.03902 0.32344 0.0
C81 C 0.72129 0.02695 0.30398 0.0
C82 C 0.71274 0.0312 0.24221 0.0
C83 C 0.72544 0.04781 0.20214 0.0
C84 C 0.78831 0.07316 0.13653 0.0
C85 C 0.80678 0.09017 0.11587 0.0
C86 C 0.82593 0.08208 0.07783 0.0
C87 C 0.82675 0.05685 0.05899 0.0
C88 C 0.80854 0.0397 0.08145 0.0
C89 C 0.78941 0.04782 0.11973 0.0
C90 C 0.73968 0.09393 0.11499 0.0
C91 C 0.71957 0.10816 0.13223 0.0
C92 C 0.70031 0.11158 0.08942 0.0
C93 C 0.70084 0.10067 0.02878 0.0
C94 C 0.72157 0.08726 0.01116 0.0
C95 C 0.74072 0.08387 0.05382 0.0
P96 P 0.50371 0.74315 0.22632 0.0
H97 H 0.50882 0.73451 0.36206 0.0
H98 H 0.53471 0.70647 0.42015 0.0
H99 H 0.57788 0.69489 0.25156 0.0
H100 H 0.55129 0.7224 0.19314 0.0
H101 H 0.47298 0.78233 0.1822 0.0
H102 H 0.48061 0.81767 0.11175 0.0
H103 H 0.55823 0.80267 0.10988 0.0
H104 H 0.55053 0.76773 0.18265 0.0
H105 H 0.46889 0.69991 0.22289 0.0
H106 H 0.52303 0.73486 0.09932 0.0
O107 O 0.47899 0.74686 0.27183 0.0
H108 H 0.46169 0.66628 0.14535 0.0
H109 H 0.51686 0.70116 0.02346 0.0
C110 C 0.52789 0.73035 0.27305 0.0
C111 C 0.5243 0.72659 0.33796 0.0
C112 C 0.5393 0.71058 0.37135 0.0
C113 C 0.55817 0.69804 0.34027 0.0
C114 C 0.56321 0.70386 0.27663 0.0
C115 C 0.54812 0.71981 0.24325 0.0
C116 C 0.51116 0.77246 0.188 0.0
C117 C 0.49176 0.78707 0.16823 0.0
C118 C 0.49611 0.80709 0.12725 0.0
C119 C 0.51996 0.81267 0.10423 0.0
C120 C 0.53966 0.79889 0.12691 0.0
C121 C 0.53527 0.77885 0.16848 0.0
C122 C 0.49609 0.72018 0.1663 0.0
C123 C 0.47896 0.70054 0.17869 0.0
C124 C 0.47507 0.68119 0.1346 0.0
C125 C 0.48857 0.68099 0.07778 0.0
C126 C 0.5056 0.70091 0.06571 0.0
C127 C 0.50927 0.72027 0.10942 0.0
P128 P 0.23363 0.48312 0.25103 0.0
H129 H 0.21856 0.44375 0.1618 0.0
H130 H 0.20109 0.44709 0.05636 0.0
H131 H 0.22547 0.52486 0.04917 0.0
H132 H 0.24337 0.52128 0.15489 0.0
H133 H 0.24541 0.50957 0.3681 0.0
H134 H 0.28415 0.52042 0.42084 0.0
H135 H 0.32398 0.49088 0.26189 0.0
H136 H 0.28483 0.48103 0.20799 0.0
H137 H 0.18284 0.47115 0.28765 0.0
H138 H 0.22926 0.53748 0.26083 0.0
O139 O 0.22867 0.45431 0.27966 0.0
H140 H 0.14857 0.49702 0.31646 0.0
H141 H 0.19483 0.56369 0.28841 0.0
C142 C 0.23208 0.48233 0.16631 0.0
C143 C 0.22131 0.46119 0.13643 0.0
C144 C 0.2113 0.46312 0.07593 0.0
C145 C 0.21158 0.48635 0.04508 0.0
C146 C 0.22483 0.50679 0.07226 0.0
C147 C 0.23515 0.50473 0.13251 0.0
C148 C 0.26228 0.4951 0.28341 0.0
C149 C 0.26246 0.50616 0.34359 0.0
C150 C 0.28467 0.51204 0.37417 0.0
C151 C 0.30719 0.50635 0.34586 0.0
C152 C 0.30698 0.49583 0.28467 0.0
C153 C 0.28464 0.49014 0.2538 0.0
C154 C 0.20874 0.50239 0.27418 0.0
C155 C 0.18566 0.49132 0.28816 0.0
C156 C 0.16596 0.50619 0.30359 0.0
C157 C 0.16894 0.53248 0.30456 0.0
C158 C 0.19201 0.54352 0.28872 0.0
C159 C 0.2117 0.52857 0.2732 0.0
P160 P 0.12779 0.24855 0.19255 0.0
H161 H 0.16017 0.23192 0.09164 0.0
H162 H 0.15038 0.20609 -0.00091 0.0
H163 H 0.07304 0.21954 0.02522 0.0
H164 H 0.08313 0.24599 0.11603 0.0
H165 H 0.14564 0.3007 0.20224 0.0
H166 H 0.12762 0.33783 0.24788 0.0
H167 H 0.05961 0.29512 0.28106 0.0
H168 H 0.07735 0.25867 0.23216 0.0
H169 H 0.11632 0.19568 0.16071 0.0
H170 H 0.11298 0.24322 0.3258 0.0
O171 O 0.15798 0.25176 0.20658 0.0
H172 H 0.0941 0.16257 0.21614 0.0
H173 H 0.09145 0.20927 0.38328 0.0
C174 C 0.12237 0.24091 0.11072 0.0
C175 C 0.14125 0.23038 0.0755 0.0
C176 C 0.13556 0.21523 0.02311 0.0
C177 C 0.11086 0.21014 0.00572 0.0
C178 C 0.09228 0.22305 0.03696 0.0
C179 C 0.09803 0.23837 0.08899 0.0
C180 C 0.11307 0.27679 0.21555 0.0
C181 C 0.12671 0.29951 0.2184 0.0
C182 C 0.11642 0.32067 0.24504 0.0
C183 C 0.09232 0.3194 0.26975 0.0
C184 C 0.07817 0.29695 0.26256 0.0
C185 C 0.08839 0.27594 0.23505 0.0
C186 C 0.11541 0.22247 0.23808 0.0
C187 C 0.11093 0.1991 0.20908 0.0
C188 C 0.09839 0.17987 0.24132 0.0
C189 C 0.09057 0.18333 0.30399 0.0
C190 C 0.09658 0.20622 0.33446 0.0
C191 C 0.10905 0.22558 0.30182 0.0
P192 P 0.29963 0.05617 0.22042 0.0
H193 H 0.30389 0.09306 0.11865 0.0
H194 H 0.32179 0.08913 0.0135 0.0
H195 H 0.31849 0.00854 0.03271 0.0
H196 H 0.29945 0.0127 0.13595 0.0
H197 H 0.28392 0.0683 0.3457 0.0
H198 H 0.24699 0.05807 0.40591 0.0
H199 H 0.21348 0.02385 0.23951 0.0
H200 H 0.25149 0.0334 0.1799 0.0
H201 H 0.3529 0.05483 0.22992 0.0
H202 H 0.29027 0.00606 0.27462 0.0
O203 O 0.31131 0.0844 0.2408 0.0
H204 H 0.38058 0.02329 0.26829 0.0
H205 H 0.31785 0.97432 0.31266 0.0
C206 C 0.30101 0.05319 0.13576 0.0
C207 C 0.30603 0.07453 0.09904 0.0
C208 C 0.31658 0.07224 0.03912 0.0
C209 C 0.32255 0.04856 0.01552 0.0
C210 C 0.31438 0.02712 0.04918 0.0
C211 C 0.30349 0.02946 0.10866 0.0
C212 C 0.27017 0.05212 0.25812 0.0
C213 C 0.26843 0.05907 0.32174 0.0
C214 C 0.24718 0.05322 0.35616 0.0
C215 C 0.22701 0.04033 0.32761 0.0
C216 C 0.22869 0.03365 0.26317 0.0
C217 C 0.25024 0.03936 0.22874 0.0
C218 C 0.31959 0.03313 0.25142 0.0
C219 C 0.34513 0.03738 0.24837 0.0
C220 C 0.36091 0.01916 0.26938 0.0
C221 C 0.35137 0.99627 0.29339 0.0
C222 C 0.32571 0.99186 0.29502 0.0
C223 C 0.30994 0.01008 0.2737 0.0
P224 P 0.41198 0.24737 0.17266 0.0
H225 H 0.38286 0.26258 0.06375 0.0
H226 H 0.39452 0.28849 0.97298 0.0
H227 H 0.47132 0.28101 0.01998 0.0
H228 H 0.45958 0.25507 0.11001 0.0
H229 H 0.3941 0.21665 0.27561 0.0
H230 H 0.41133 0.18135 0.33031 0.0
H231 H 0.46752 0.17688 0.18658 0.0
H232 H 0.44955 0.21185 0.13066 0.0
H233 H 0.40116 0.29865 0.20723 0.0
H234 H 0.45899 0.24718 0.24114 0.0
O235 O 0.38168 0.24976 0.18268 0.0
H236 H 0.42555 0.33185 0.26082 0.0
H237 H 0.48352 0.28012 0.29307 0.0
C238 C 0.42033 0.25668 0.09358 0.0
C239 C 0.40223 0.26563 0.05308 0.0
C240 C 0.40891 0.28073 0.00154 0.0
C241 C 0.43383 0.28717 0.98984 0.0
C242 C 0.45196 0.27627 0.02719 0.0
C243 C 0.44525 0.26122 0.0787 0.0
C244 C 0.42046 0.21688 0.19898 0.0
C245 C 0.40961 0.20756 0.25458 0.0
C246 C 0.41971 0.18758 0.28635 0.0
C247 C 0.44113 0.17668 0.26355 0.0
C248 C 0.45101 0.18489 0.20536 0.0
C249 C 0.44076 0.20493 0.17332 0.0
C250 C 0.4279 0.27026 0.22174 0.0
C251 C 0.41886 0.29436 0.22732 0.0
C252 C 0.43298 0.31338 0.25709 0.0
C253 C 0.45651 0.30862 0.28114 0.0
C254 C 0.46532 0.28433 0.27608 0.0
C255 C 0.4512 0.26538 0.24643 0.0
O256 O 0.08109 0.00322 0.6583 0.0
Zn257 Zn 0.05387 0.00492 0.72336 0.0
O258 O 0.02158 0.00323 0.68068 0.0
Zn259 Zn 0.00572 0.03506 0.69033 0.0
Zn260 Zn 0.02584 0.99643 0.59092 0.0
Zn261 Zn 0.00036 0.97671 0.71634 0.0
O262 O 0.97284 0.03078 0.73275 0.0
O263 O 0.97106 0.99081 0.7617 0.0
O264 O 0.05955 0.03782 0.77018 0.0
O265 O 0.02621 0.05833 0.74489 0.0
O266 O 0.00324 0.05332 0.60785 0.0
O267 O 0.01742 0.02611 0.53889 0.0
O268 O 0.00617 0.96603 0.56185 0.0
O269 O 0.05699 0.9759 0.78447 0.0
O270 O 0.98839 0.9518 0.64979 0.0
O271 O 0.01992 0.95689 0.77692 0.0
C272 C 0.08127 0.99682 0.60016 0.0
C273 C 0.96212 0.01253 0.76157 0.0
C274 C 0.00924 0.04753 0.55167 0.0
C275 C 0.04687 0.05738 0.77292 0.0
C276 C 0.9924 0.94999 0.59062 0.0
C277 C 0.04167 0.95825 0.79946 0.0
O278 O 0.06137 0.99176 0.57016 0.0
O279 O 0.5127 0.05417 0.61104 0.0
Zn280 Zn 0.5172 0.03172 0.68657 0.0
O281 O 0.5246 0.99769 0.65823 0.0
Zn282 Zn 0.49755 0.97461 0.68182 0.0
Zn283 Zn 0.52844 0.9968 0.56639 0.0
Zn284 Zn 0.55508 0.98712 0.69749 0.0
O285 O 0.50937 0.9481 0.73969 0.0
O286 O 0.54913 0.95732 0.75567 0.0
O287 O 0.48515 0.0319 0.73509 0.0
O288 O 0.47089 0.99255 0.72743 0.0
O289 O 0.4814 0.95829 0.60597 0.0
O290 O 0.504 0.97271 0.52591 0.0
O291 O 0.56259 0.98772 0.54101 0.0
O292 O 0.54459 0.04684 0.7417 0.0
O293 O 0.58078 0.97932 0.6322 0.0
O294 O 0.5704 0.01556 0.74707 0.0
C295 C 0.51482 0.05104 0.55152 0.0
C296 C 0.52981 0.94367 0.76614 0.0
C297 C 0.48604 0.95924 0.54703 0.0
C298 C 0.46848 0.01503 0.74579 0.0
C299 C 0.58129 0.98102 0.57215 0.0
C300 C 0.56468 0.03782 0.76056 0.0
O301 O 0.52118 0.03022 0.52847 0.0
O302 O 0.46576 0.49848 0.64491 0.0
Zn303 Zn 0.49318 0.49161 0.70656 0.0
O304 O 0.52493 0.49125 0.66146 0.0
Zn305 Zn 0.53891 0.45846 0.66912 0.0
Zn306 Zn 0.52037 0.49824 0.57197 0.0
Zn307 Zn 0.54795 0.51638 0.69693 0.0
O308 O 0.57183 0.4604 0.71184 0.0
O309 O 0.57606 0.50021 0.74196 0.0
O310 O 0.48498 0.45821 0.74886 0.0
O311 O 0.51713 0.43607 0.72217 0.0
O312 O 0.54074 0.44064 0.58576 0.0
O313 O 0.52599 0.46795 0.51833 0.0
O314 O 0.54232 0.52695 0.54269 0.0
O315 O 0.49327 0.51951 0.77203 0.0
O316 O 0.56157 0.54 0.63008 0.0
O317 O 0.53039 0.53776 0.75878 0.0
C318 C 0.46563 0.50497 0.58694 0.0
C319 C 0.58359 0.47791 0.74127 0.0
C320 C 0.5341 0.44644 0.53017 0.0
C321 C 0.49654 0.43789 0.75008 0.0
C322 C 0.55747 0.54191 0.57101 0.0
C323 C 0.50929 0.53682 0.78502 0.0
O324 O 0.48542 0.50669 0.55481 0.0
O325 O 0.96054 0.52363 0.59678 0.0
Zn326 Zn 0.99283 0.53029 0.6436 0.0
O327 O 0.00645 0.49855 0.67349 0.0
Zn328 Zn 0.00778 0.49779 0.76558 0.0
Zn329 Zn 0.98634 0.46991 0.64337 0.0
Zn330 Zn 0.03969 0.49554 0.64178 0.0
O331 O 0.04261 0.49546 0.7978 0.0
O332 O 0.06469 0.49199 0.71027 0.0
O333 O 0.98687 0.55332 0.71857 0.0
O334 O 0.9951 0.52944 0.8013 0.0
O335 O 0.98734 0.46893 0.80076 0.0
O336 O 0.97379 0.44848 0.7153 0.0
O337 O 0.00468 0.44846 0.58106 0.0
O338 O 0.01645 0.54875 0.58367 0.0
O339 O 0.04218 0.46638 0.58286 0.0
O340 O 0.04969 0.52597 0.59325 0.0
C341 C 0.94843 0.50327 0.58489 0.0
C342 C 0.06319 0.49294 0.77018 0.0
C343 C 0.97516 0.45075 0.77518 0.0
C344 C 0.9881 0.54995 0.77823 0.0
C345 C 0.02701 0.44951 0.56249 0.0
C346 C 0.039 0.54494 0.57204 0.0
O347 O 0.95633 0.48206 0.60055 0.0
H348 H 0.20605 0.06727 0.42286 0.0
H349 H 0.09169 0.97516 0.48604 0.0
H350 H 0.19746 0.99721 0.32119 0.0
H351 H 0.12349 0.0236 0.6307 0.0
H352 H 0.12772 0.98443 0.41915 0.0
H353 H 0.17245 0.05388 0.49252 0.0
C354 C 0.19722 0.04901 0.41519 0.0
C355 C 0.20494 0.03324 0.36632 0.0
C356 C 0.1269 0.99273 0.46588 0.0
C357 C 0.16595 0.01806 0.44555 0.0
C358 C 0.1064 0.98744 0.50411 0.0
C359 C 0.10455 0.9987 0.56399 0.0
C360 C 0.14535 0.0098 0.48719 0.0
C361 C 0.12416 0.01445 0.585 0.0
C362 C 0.17799 0.04142 0.45506 0.0
C363 C 0.19209 0.01012 0.35775 0.0
N364 N 0.14356 0.01984 0.54625 0.0
N365 N 0.17317 0.00324 0.39693 0.0
H366 H 0.46293 0.13314 0.22719 0.0
H367 H 0.50022 0.0981 0.58208 0.0
H368 H 0.44935 0.17915 0.3907 0.0
H369 H 0.51271 0.04995 0.42169 0.0
H370 H 0.4844 0.12938 0.51063 0.0
H371 H 0.48381 0.1036 0.29569 0.0
C372 C 0.4644 0.13705 0.27737 0.0
C373 C 0.45406 0.15846 0.30336 0.0
C374 C 0.49074 0.11204 0.49093 0.0
C375 C 0.47792 0.12488 0.38186 0.0
C376 C 0.49986 0.09416 0.53179 0.0
C377 C 0.50769 0.07124 0.50804 0.0
C378 C 0.48931 0.10701 0.42571 0.0
C379 C 0.50681 0.0673 0.44225 0.0
C380 C 0.47626 0.12019 0.31646 0.0
C381 C 0.4565 0.16261 0.36875 0.0
N382 N 0.49761 0.08492 0.40345 0.0
N383 N 0.46808 0.14598 0.40562 0.0
H384 H 0.35281 0.52295 0.30333 0.0
H385 H 0.4189 0.49961 0.63565 0.0
H386 H 0.31481 0.49669 0.47116 0.0
H387 H 0.45825 0.51959 0.46453 0.0
H388 H 0.38009 0.50292 0.57853 0.0
H389 H 0.39128 0.52573 0.36377 0.0
C390 C 0.35253 0.51783 0.35285 0.0
C391 C 0.33052 0.50959 0.38214 0.0
C392 C 0.39722 0.50673 0.55358 0.0
C393 C 0.3744 0.51287 0.45166 0.0
C394 C 0.41941 0.50489 0.58624 0.0
C395 C 0.44192 0.50911 0.55478 0.0
C396 C 0.39751 0.51281 0.48896 0.0
C397 C 0.44137 0.51598 0.49069 0.0
C398 C 0.37446 0.51953 0.3874 0.0
C399 C 0.33121 0.50351 0.44671 0.0
N400 N 0.41954 0.51747 0.45984 0.0
N401 N 0.35278 0.50518 0.47915 0.0
H402 H 0.11803 0.3511 0.35031 0.0
H403 H -0.00026 0.41445 0.49369 0.0
H404 H 0.04469 0.33574 0.27701 0.0
H405 H 0.07442 0.44226 0.52582 0.0
H406 H 0.01531 0.384 0.41799 0.0
H407 H 0.10194 0.38358 0.41757 0.0
C408 C 0.09859 0.35476 0.34741 0.0
C409 C 0.08276 0.34056 0.30744 0.0
C410 C 0.02822 0.39686 0.44152 0.0
C411 C 0.06403 0.37749 0.38643 0.0
C412 C 0.01937 0.41417 0.48492 0.0
C413 C 0.03579 0.43092 0.51637 0.0
C414 C 0.05367 0.39616 0.43005 0.0
C415 C 0.06104 0.42976 0.50283 0.0
C416 C 0.08937 0.37324 0.38645 0.0
C417 C 0.05758 0.34589 0.30758 0.0
N418 N 0.06918 0.41262 0.46102 0.0
N419 N 0.04897 0.36381 0.34676 0.0
H420 H 0.8524 0.01337 0.05863 0.0
H421 H 0.93453 0.05422 0.75998 0.0
H422 H 0.84404 0.08187 0.95453 0.0
H423 H 0.93912 0.98215 0.85002 0.0
H424 H 0.90049 0.06389 0.82961 0.0
H425 H 0.88349 0.0009 0.98204 0.0
C426 C 0.85702 0.02574 0.01959 0.0
C427 C 0.84574 0.04883 0.01341 0.0
C428 C 0.9088 0.04588 0.83398 0.0
C429 C 0.88135 0.03472 0.92583 0.0
C430 C 0.92827 0.04032 0.79411 0.0
C431 C 0.93984 0.01738 0.79933 0.0
C432 C 0.90086 0.02848 0.87994 0.0
C433 C 0.93078 8e-05 0.84431 0.0
C434 C 0.8748 0.01863 0.97598 0.0
C435 C 0.8526 0.06417 0.9621 0.0
N436 N 0.91194 0.00607 0.88328 0.0
N437 N 0.86997 0.05687 0.92052 0.0
H438 H 0.55748 0.84856 0.08965 0.0
H439 H 0.49538 0.90586 0.78183 0.0
H440 H 0.49101 0.81881 0.0007 0.0
H441 H 0.56552 0.9338 0.85455 0.0
H442 H 0.49463 0.87325 0.86144 0.0
H443 H 0.56197 0.87935 0.00393 0.0
C444 C 0.5439 0.84845 0.0521 0.0
C445 C 0.52362 0.83135 0.05291 0.0
C446 C 0.51029 0.88639 0.86004 0.0
C447 C 0.52863 0.86636 0.9551 0.0
C448 C 0.51073 0.90509 0.81446 0.0
C449 C 0.53048 0.92272 0.81166 0.0
C450 C 0.52966 0.88528 0.90385 0.0
C451 C 0.54992 0.92058 0.85501 0.0
C452 C 0.54645 0.86603 0.00332 0.0
C453 C 0.50659 0.83203 0.00305 0.0
N454 N 0.54894 0.90229 0.89975 0.0
N455 N 0.50944 0.84925 0.95652 0.0
H456 H 0.67946 0.46023 0.0604 0.0
H457 H 0.61099 0.43622 0.73222 0.0
H458 H 0.70209 0.405 0.92479 0.0
H459 H 0.60488 0.5047 0.83906 0.0
H460 H 0.64334 0.42354 0.8042 0.0
H461 H 0.65067 0.47581 0.98237 0.0
C462 C 0.67852 0.45144 0.01419 0.0
C463 C 0.69323 0.43116 -0.00061 0.0
C464 C 0.6351 0.44145 0.81153 0.0
C465 C 0.66001 0.44875 0.91018 0.0
C466 C 0.61662 0.4487 0.77049 0.0
C467 C 0.60514 0.47151 0.77981 0.0
C468 C 0.64192 0.45692 0.86288 0.0
C469 C 0.61326 0.48698 0.83004 0.0
C470 C 0.66203 0.46034 0.96972 0.0
C471 C 0.69082 0.42031 0.93896 0.0
N472 N 0.63097 0.47926 0.87019 0.0
N473 N 0.67446 0.42916 0.89674 0.0
H474 H 0.01249 0.69097 0.96131 0.0
H475 H 0.97852 0.54717 0.90481 0.0
H476 H 0.99045 0.64055 0.11143 0.0
H477 H 0.98827 0.60031 0.7528 0.0
H478 H 0.97855 0.58174 0.98033 0.0
H479 H -0.00012 0.65902 0.88375 0.0
C480 C 0.00479 0.67318 0.97784 0.0
C481 C 0.00282 0.66821 0.04281 0.0
C482 C 0.98031 0.58591 0.93042 0.0
C483 C 0.98841 0.6315 0.95437 0.0
C484 C 0.98033 0.56616 0.8872 0.0
C485 C 0.98375 0.57084 0.82241 0.0
C486 C 0.98411 0.61056 0.90892 0.0
C487 C 0.98571 0.59582 0.80231 0.0
C488 C 0.99748 0.655 0.93357 0.0
C489 C 0.99233 0.64508 0.06176 0.0
N490 N 0.98627 0.61474 0.84554 0.0
N491 N 0.98585 0.62741 0.01772 0.0
H492 H 0.09546 0.13252 0.29588 0.0
H493 H -0.00053 0.09739 0.56409 0.0
H494 H 0.05155 0.18828 0.38544 0.0
H495 H 0.02692 0.04365 0.43102 0.0
H496 H 0.0161 0.1312 0.49735 0.0
H497 H 0.06978 0.09986 0.34523 0.0
C498 C 0.0803 0.13795 0.32552 0.0
C499 C 0.07568 0.16328 0.33629 0.0
C500 C 0.01803 0.112 0.48221 0.0
C501 C 0.0463 0.12577 0.3939 0.0
C502 C 0.0084 0.09265 0.52008 0.0
C503 C 0.01224 0.06758 0.5039 0.0
C504 C 0.03177 0.10618 0.42827 0.0
C505 C 0.02383 0.06265 0.44606 0.0
C506 C 0.06561 0.11924 0.35373 0.0
C507 C 0.05607 0.16905 0.37651 0.0
N508 N 0.03363 0.08177 0.41103 0.0
N509 N 0.04218 0.15043 0.40417 0.0
H510 H 0.34572 0.97 0.40343 0.0
H511 H 0.443 0.93245 0.57255 0.0
H512 H 0.39553 0.98129 0.24645 0.0
H513 H 0.48635 0.9628 0.41782 0.0
H514 H 0.40754 0.92844 0.50254 0.0
H515 H 0.377 0.94755 0.45872 0.0
C516 C 0.36306 0.96706 0.37977 0.0
C517 C 0.36824 0.97806 0.32091 0.0
C518 C 0.42472 0.93598 0.48355 0.0
C519 C 0.40462 0.95225 0.38422 0.0
C520 C 0.44518 0.93791 0.52351 0.0
C521 C 0.46741 0.94905 0.5018 0.0
C522 C 0.42648 0.94576 0.42195 0.0
C523 C 0.46936 0.95492 0.43732 0.0
C524 C 0.38111 0.95411 0.41151 0.0
C525 C 0.39105 0.97374 0.29265 0.0
N526 N 0.44898 0.95383 0.40014 0.0
N527 N 0.40854 0.9616 0.32508 0.0
H528 H 0.46277 0.35735 0.24217 0.0
H529 H 0.54557 0.39712 0.5406 0.0
H530 H 0.48603 0.30617 0.38598 0.0
H531 H 0.51539 0.44993 0.4101 0.0
H532 H 0.53098 0.36296 0.47191 0.0
H533 H 0.48764 0.3908 0.29288 0.0
C534 C 0.47305 0.35315 0.28449 0.0
C535 C 0.47207 0.32897 0.31029 0.0
C536 C 0.52787 0.38204 0.45783 0.0
C537 C 0.50093 0.36706 0.36785 0.0
C538 C 0.53635 0.40161 0.49685 0.0
C539 C 0.53126 0.42645 0.48184 0.0
C540 C 0.51415 0.38734 0.40351 0.0
C541 C 0.51944 0.43106 0.42413 0.0
C542 C 0.48743 0.3722 0.31304 0.0
C543 C 0.4863 0.32448 0.36425 0.0
N544 N 0.51092 0.41166 0.38758 0.0
N545 N 0.49999 0.34338 0.39146 0.0
H546 H 0.1716 0.57364 0.38266 0.0
H547 H 0.08135 0.57109 0.59681 0.0
H548 H 0.11962 0.52674 0.2774 0.0
H549 H 0.02984 0.55274 0.44743 0.0
H550 H 0.11266 0.58165 0.51865 0.0
H551 H 0.13738 0.59241 0.43746 0.0
C552 C 0.15297 0.56756 0.37024 0.0
C553 C 0.1485 0.54787 0.32711 0.0
C554 C 0.09429 0.57657 0.50211 0.0
C555 C 0.10928 0.5684 0.39202 0.0
C556 C 0.07636 0.57056 0.54716 0.0
C557 C 0.05318 0.56099 0.52821 0.0
C558 C 0.0891 0.57221 0.4377 0.0
C559 C 0.04758 0.56016 0.4636 0.0
C560 C 0.13339 0.57806 0.40231 0.0
C561 C 0.12395 0.54111 0.31231 0.0
N562 N 0.06571 0.5649 0.42047 0.0
N563 N 0.10528 0.55096 0.3457 0.0
H564 H 0.05968 0.81238 0.95446 0.0
H565 H 0.07471 0.95977 0.89879 0.0
H566 H 0.07436 0.86303 0.11058 0.0
H567 H 0.02634 0.90969 0.79158 0.0
H568 H 0.08529 0.92433 0.96711 0.0
H569 H 0.05931 0.84805 0.88298 0.0
C570 C 0.06305 0.83102 0.97362 0.0
C571 C 0.06645 0.8348 0.03877 0.0
C572 C 0.0725 0.92125 0.92827 0.0
C573 C 0.06628 0.87567 0.95704 0.0
C574 C 0.06651 0.94134 0.88942 0.0
C575 C 0.04943 0.93761 0.84009 0.0
C576 C 0.06182 0.89737 0.91614 0.0
C577 C 0.03932 0.91344 0.82966 0.0
C578 C 0.06288 0.85133 0.9328 0.0
C579 C 0.0715 0.85932 0.0607 0.0
N580 N 0.04573 0.89426 0.86718 0.0
N581 N 0.07096 0.87897 0.01991 0.0
H582 H 0.70017 0.10488 0.8994 0.0
H583 H 0.55664 0.07025 0.85899 0.0
H584 H 0.65173 0.0963 0.06044 0.0
H585 H 0.61381 0.04108 0.74147 0.0
H586 H 0.5886 0.09292 0.92237 0.0
H587 H 0.66516 0.09544 0.82956 0.0
C588 C 0.68215 0.10137 0.92013 0.0
C589 C 0.67907 0.10075 0.98606 0.0
C590 C 0.59397 0.08182 0.88208 0.0
C591 C 0.63892 0.09044 0.90621 0.0
C592 C 0.57585 0.06899 0.84605 0.0
C593 C 0.58278 0.05364 0.79568 0.0
C594 C 0.61891 0.07972 0.86605 0.0
C595 C 0.60782 0.0525 0.78056 0.0
C596 C 0.6622 0.09609 0.8802 0.0
C597 C 0.65506 0.0969 0.01 0.0
N598 N 0.62499 0.06537 0.81555 0.0
N599 N 0.63591 0.09155 0.97007 0.0
H600 H 0.49062 0.68231 0.94808 0.0
H601 H 0.47773 0.5354 0.88693 0.0
H602 H 0.48105 0.63074 0.10386 0.0
H603 H 0.52639 0.58506 0.78039 0.0
H604 H 0.46863 0.57056 0.95805 0.0
H605 H 0.49283 0.64678 0.87587 0.0
C606 C 0.48888 0.66356 0.96724 0.0
C607 C 0.48619 0.65961 0.03256 0.0
C608 C 0.48121 0.5736 0.91886 0.0
C609 C 0.48805 0.61888 0.94957 0.0
C610 C 0.48636 0.55368 0.8784 0.0
C611 C 0.503 0.55735 0.82822 0.0
C612 C 0.49225 0.59735 0.90759 0.0
C613 C 0.5137 0.58136 0.819 0.0
C614 C 0.49003 0.64333 0.92586 0.0
C615 C 0.48313 0.63478 0.054 0.0
N616 N 0.50803 0.60046 0.85805 0.0
N617 N 0.48429 0.61531 0.0126 0.0
H618 H 0.84647 0.37313 0.9126 0.0
H619 H 0.97577 0.44702 0.90444 0.0
H620 H 0.88657 0.39684 0.07995 0.0
H621 H 0.94004 0.4155 0.73823 0.0
H622 H 0.94617 0.42369 0.97044 0.0
H623 H 0.88302 0.38337 0.84892 0.0
C624 C 0.8631 0.38015 0.936 0.0
C625 C 0.86342 0.38441 0.00152 0.0
C626 C 0.94501 0.42157 0.91956 0.0
C627 C 0.90522 0.39637 0.92906 0.0
C628 C 0.96192 0.43492 0.88179 0.0
C629 C 0.96015 0.43356 0.81562 0.0
C630 C 0.92599 0.40699 0.89099 0.0
C631 C 0.94198 0.41734 0.78901 0.0
C632 C 0.88398 0.38593 0.8997 0.0
C633 C 0.88553 0.3932 0.0296 0.0
N634 N 0.92536 0.40501 0.82676 0.0
N635 N 0.90542 0.39927 0.9931 0.0
H636 H 0.13228 0.16466 0.99845 0.0
H637 H 0.02637 0.10326 0.77989 0.0
H638 H 0.07365 0.20644 0.91699 0.0
H639 H 0.09005 0.0636 0.84049 0.0
H640 H 0.04345 0.14109 0.83031 0.0
H641 H 0.11786 0.12787 0.93898 0.0
C642 C 0.11668 0.16632 0.96702 0.0
C643 C 0.1042 0.18883 0.96277 0.0
C644 C 0.05372 0.12414 0.83255 0.0
C645 C 0.0871 0.1463 0.89586 0.0
C646 C 0.04392 0.10243 0.80402 0.0
C647 C 0.05675 0.0801 0.80603 0.0
C648 C 0.07651 0.12362 0.86374 0.0
C649 C 0.07947 0.08033 0.83782 0.0
C650 C 0.10829 0.14514 0.93357 0.0
C651 C 0.08369 0.18948 0.9224 0.0
N652 N 0.08859 0.10174 0.86554 0.0
N653 N 0.07569 0.16849 0.89089 0.0
H654 H 0.32447 0.01213 0.92258 0.0
H655 H 0.45797 0.05971 0.80218 0.0
H656 H 0.36269 0.07943 0.98988 0.0
H657 H 0.42668 0.98564 0.76488 0.0
H658 H 0.42029 0.06995 0.85812 0.0
H659 H 0.3588 0.00514 0.85051 0.0
C660 C 0.33987 0.0256 0.92179 0.0
C661 C 0.34063 0.04632 0.96297 0.0
C662 C 0.42165 0.05148 0.8375 0.0
C663 C 0.37996 0.03843 0.88036 0.0
C664 C 0.44319 0.0456 0.8056 0.0
C665 C 0.44564 0.02169 0.77923 0.0
C666 C 0.40233 0.03339 0.84288 0.0
C667 C 0.42575 0.00424 0.78493 0.0
C668 C 0.35946 0.02159 0.88059 0.0
C669 C 0.36096 0.06335 0.95877 0.0
N670 N 0.40498 0.01041 0.81625 0.0
N671 N 0.37984 0.05891 0.91873 0.0
H672 H 0.47286 0.28977 0.90708 0.0
H673 H 0.45284 0.43308 0.81595 0.0
H674 H 0.41121 0.33152 0.97214 0.0
H675 H 0.51566 0.39143 0.75794 0.0
H676 H 0.43577 0.39542 0.86799 0.0
H677 H 0.48706 0.32606 0.84521 0.0
C678 C 0.46219 0.30649 0.9079 0.0
C679 C 0.44084 0.30758 0.94501 0.0
C680 C 0.45327 0.39456 0.84373 0.0
C681 C 0.45705 0.3493 0.87457 0.0
C682 C 0.46306 0.41608 0.81415 0.0
C683 C 0.4858 0.41553 0.78272 0.0
C684 C 0.46629 0.37232 0.84182 0.0
C685 C 0.49813 0.39287 0.78177 0.0
C686 C 0.47029 0.32721 0.87258 0.0
C687 C 0.4276 0.32967 0.94368 0.0
N688 N 0.48825 0.37226 0.8109 0.0
N689 N 0.43602 0.3497 0.9095 0.0
H690 H 0.20301 0.45763 0.93841 0.0
H691 H 0.07087 0.51095 0.88977 0.0
H692 H 0.17877 0.52318 0.03655 0.0
H693 H 0.10749 0.47402 0.7363 0.0
H694 H 0.10931 0.51161 0.95 0.0
H695 H 0.16759 0.4602 0.86649 0.0
C696 C 0.19054 0.47283 0.94388 0.0
C697 C 0.19385 0.49029 0.9932 0.0
C698 C 0.10893 0.50343 0.90304 0.0
C699 C 0.1532 0.49286 0.91296 0.0
C700 C 0.08696 0.50283 0.86893 0.0
C701 C 0.08601 0.49238 0.80805 0.0
C702 C 0.12997 0.49308 0.87661 0.0
C703 C 0.10749 0.48231 0.7831 0.0
C704 C 0.17037 0.47425 0.9031 0.0
C705 C 0.17711 0.50954 -0.00134 0.0
N706 N 0.12861 0.48272 0.81774 0.0
N707 N 0.15729 0.51007 0.9597 0.0
H708 H 0.98902 0.79686 0.48333 0.0
H709 H 0.98698 0.94416 0.46291 0.0
H710 H 0.98247 0.83729 0.30816 0.0
H711 H 0.97818 0.90415 0.63887 0.0
H712 H 0.97996 0.90492 0.40542 0.0
H713 H 0.97985 0.8351 0.54147 0.0
C714 C 0.98521 0.81365 0.45709 0.0
C715 C 0.9868 0.81393 0.3908 0.0
C716 C 0.97913 0.90471 0.45659 0.0
C717 C 0.97652 0.85776 0.4569 0.0
C718 C 0.98317 0.92715 0.48944 0.0
C719 C 0.9835 0.92738 0.55578 0.0
C720 C 0.97588 0.88221 0.49025 0.0
C721 C 0.97821 0.90481 0.5877 0.0
C722 C 0.97991 0.83546 0.49026 0.0
C723 C 0.98137 0.83612 0.35918 0.0
N724 N 0.97509 0.88304 0.55465 0.0
N725 N 0.97691 0.85721 0.39252 0.0
H726 H 0.69134 0.98513 0.27976 0.0
H727 H 0.62791 0.98718 0.62001 0.0
H728 H 0.71528 0.03463 0.4317 0.0
H729 H 0.58833 0.96982 0.44727 0.0
H730 H 0.66619 0.99142 0.5591 0.0
H731 H 0.65976 0.96678 0.34967 0.0
C732 C 0.69022 0.992 0.32787 0.0
C733 C 0.7057 0.012 0.34911 0.0
C734 C 0.64917 0.98617 0.5349 0.0
C735 C 0.67005 0.99044 0.42966 0.0
C736 C 0.62736 0.98361 0.56955 0.0
C737 C 0.60487 0.97848 0.53842 0.0
C738 C 0.64849 0.98318 0.46897 0.0
C739 C 0.60523 0.97413 0.47294 0.0
C740 C 0.67228 0.98135 0.36775 0.0
C741 C 0.70387 0.01933 0.41283 0.0
N742 N 0.62669 0.97678 0.44024 0.0
N743 N 0.68617 0.00875 0.45062 0.0
H744 H 0.56838 0.65308 0.28604 0.0
H745 H 0.57853 0.58544 0.61907 0.0
H746 H 0.57267 0.69258 0.46449 0.0
H747 H 0.56008 0.54819 0.44286 0.0
H748 H 0.58802 0.62403 0.56057 0.0
H749 H 0.57763 0.61454 0.34029 0.0
C750 C 0.57195 0.65388 0.33642 0.0
C751 C 0.56934 0.67615 0.37084 0.0
C752 C 0.58233 0.60727 0.53469 0.0
C753 C 0.57927 0.63167 0.43362 0.0
C754 C 0.577 0.5852 0.56799 0.0
C755 C 0.56804 0.56366 0.53588 0.0
C756 C 0.57879 0.60774 0.4689 0.0
C757 C 0.5665 0.56445 0.46967 0.0
C758 C 0.57699 0.63171 0.36751 0.0
C759 C 0.57392 0.67574 0.43625 0.0
N760 N 0.57152 0.5862 0.43849 0.0
N761 N 0.57826 0.65376 0.46571 0.0
H762 H 0.80611 0.45979 0.43422 0.0
H763 H 0.93771 0.52951 0.4782 0.0
H764 H 0.85623 0.4748 0.27893 0.0
H765 H 0.90626 0.47706 0.61287 0.0
H766 H 0.90081 0.52299 0.41138 0.0
H767 H 0.83628 0.47959 0.50624 0.0
C768 C 0.82326 0.46739 0.41495 0.0
C769 C 0.82873 0.46501 0.35026 0.0
C770 C 0.90185 0.5134 0.4563 0.0
C771 C 0.86284 0.48848 0.43239 0.0
C772 C 0.92273 0.5172 0.49439 0.0
C773 C 0.92493 0.5036 0.55053 0.0
C774 C 0.88302 0.49638 0.47559 0.0
C775 C 0.90523 0.48768 0.56948 0.0
C776 C 0.84033 0.47888 0.45611 0.0
C777 C 0.85098 0.47615 0.32811 0.0
N778 N 0.88509 0.48442 0.53194 0.0
N779 N 0.86731 0.4872 0.3692 0.0
loop_
_geom_bond_atom_site_label_1
_geom_bond_atom_site_label_2
_geom_bond_distance
_geom_bond_site_symmetry_2
_ccdc_geom_bond_type
P0 O11 1.490 . S
P0 C14 1.812 . S
P0 C20 1.803 . S
P0 C26 1.819 1_554 S
H1 C15 0.941 . S
H2 C16 0.939 . S
H3 C18 0.940 . S
H4 C19 0.940 . S
H5 C21 0.939 . S
H6 C22 0.942 . S
H7 C24 0.940 . S
H8 C25 0.939 . S
H9 C27 0.941 1_554 S
H10 C31 0.939 . S
O11 P0 1.490 . S
H12 C28 0.939 . S
H13 C30 0.940 . S
C14 P0 1.812 . S
C14 C15 1.389 . S
C14 C19 1.391 . S
C15 H1 0.941 . S
C15 C14 1.389 . S
C15 C16 1.397 . S
C16 H2 0.939 . S
C16 C15 1.397 . S
C16 C17 1.378 . S
C17 C16 1.378 . S
C17 C18 1.378 . S
C18 H3 0.940 . S
C18 C17 1.378 . S
C18 C19 1.396 . S
C19 H4 0.940 . S
C19 C14 1.391 . S
C19 C18 1.396 . S
C20 P0 1.803 . S
C20 C21 1.378 1_554 S
C20 C25 1.400 . S
C21 H5 0.939 . S
C21 C20 1.378 1_556 S
C21 C22 1.361 . S
C22 H6 0.942 . S
C22 C21 1.361 . S
C22 C23 1.369 . S
C23 C22 1.369 . S
C23 C24 1.404 1_556 S
C24 H7 0.940 . S
C24 C23 1.404 1_554 S
C24 C25 1.389 . S
C25 H8 0.939 . S
C25 C20 1.400 . S
C25 C24 1.389 . S
C26 P0 1.819 1_556 S
C26 C27 1.391 . S
C26 C31 1.391 . S
C27 H9 0.941 1_556 S
C27 C26 1.391 . S
C27 C28 1.396 . S
C28 H12 0.939 . S
C28 C27 1.396 . S
C28 C29 1.397 . S
C29 C28 1.397 . S
C29 C30 1.385 . S
C30 H13 0.940 . S
C30 C29 1.385 . S
C30 C31 1.388 . S
C31 H10 0.939 . S
C31 C26 1.391 . S
C31 C30 1.388 . S
P32 O43 1.490 . S
P32 C46 1.812 . S
P32 C52 1.803 . S
P32 C58 1.819 . S
H33 C47 0.941 . S
H34 C48 0.939 . S
H35 C50 0.940 . S
H36 C51 0.940 . S
H37 C53 0.939 . S
H38 C54 0.942 . S
H39 C56 0.940 . S
H40 C57 0.939 . S
H41 C59 0.941 . S
H42 C63 0.923 1_655 S
O43 P32 1.490 . S
H44 C60 0.939 . S
H45 C62 0.940 . S
C46 P32 1.812 . S
C46 C47 1.389 . S
C46 C51 1.391 1_455 S
C47 H33 0.941 . S
C47 C46 1.389 . S
C47 C48 1.397 . S
C48 H34 0.939 . S
C48 C47 1.397 . S
C48 C49 1.404 . S
C49 C48 1.404 . S
C49 C50 1.362 1_455 S
C50 H35 0.940 . S
C50 C49 1.362 1_655 S
C50 C51 1.396 . S
C51 H36 0.940 . S
C51 C46 1.391 1_655 S
C51 C50 1.396 . S
C52 P32 1.803 . S
C52 C53 1.378 . S
C52 C57 1.400 1_455 S
C53 H37 0.939 . S
C53 C52 1.378 . S
C53 C54 1.361 . S
C54 H38 0.942 . S
C54 C53 1.361 . S
C54 C55 1.369 1_455 S
C55 C54 1.369 1_655 S
C55 C56 1.404 . S
C56 H39 0.940 . S
C56 C55 1.404 . S
C56 C57 1.389 . S
C57 H40 0.939 . S
C57 C52 1.400 1_655 S
C57 C56 1.389 . S
C58 P32 1.819 . S
C58 C59 1.391 . S
C58 C63 1.426 . S
C59 H41 0.941 . S
C59 C58 1.391 . S
C59 C60 1.396 . S
C60 H44 0.939 . S
C60 C59 1.396 . S
C60 C61 1.397 1_554 S
C61 C60 1.397 1_556 S
C61 C62 1.385 1_455 S
C62 H45 0.940 . S
C62 C61 1.385 1_655 S
C62 C63 1.372 1_656 S
C63 H42 0.923 1_455 S
C63 C58 1.426 . S
C63 C62 1.372 1_454 S
P64 O75 1.490 . S
P64 C78 1.812 . S
P64 C84 1.803 . S
P64 C90 1.819 . S
H65 C79 0.941 . S
H66 C80 0.939 . S
H67 C82 0.940 . S
H68 C83 0.948 . S
H69 C85 0.939 . S
H70 C86 0.942 1_556 S
H71 C88 0.940 . S
H72 C89 0.963 . S
H73 C91 0.941 . S
H74 C95 0.928 1_565 S
O75 P64 1.490 . S
H76 C92 0.939 . S
H77 C94 0.940 . S
C78 P64 1.812 . S
C78 C79 1.389 . S
C78 C83 1.378 1_545 S
C79 H65 0.941 . S
C79 C78 1.389 . S
C79 C80 1.397 . S
C80 H66 0.939 . S
C80 C79 1.397 . S
C80 C81 1.378 . S
C81 C80 1.378 . S
C81 C82 1.378 1_545 S
C82 H67 0.940 . S
C82 C81 1.378 1_565 S
C82 C83 1.401 . S
C83 H68 0.948 . S
C83 C78 1.378 1_565 S
C83 C82 1.401 . S
C84 P64 1.803 . S
C84 C85 1.378 . S
C84 C89 1.361 1_545 S
C85 H69 0.939 . S
C85 C84 1.378 . S
C85 C86 1.361 . S
C86 H70 0.942 1_554 S
C86 C85 1.361 . S
C86 C87 1.369 . S
C87 C86 1.369 . S
C87 C88 1.404 1_545 S
C88 H71 0.940 . S
C88 C87 1.404 1_565 S
C88 C89 1.406 . S
C89 H72 0.963 . S
C89 C84 1.361 1_565 S
C89 C88 1.406 . S
C90 P64 1.819 . S
C90 C91 1.391 . S
C90 C95 1.391 1_554 S
C91 H73 0.941 . S
C91 C90 1.391 . S
C91 C92 1.396 1_554 S
C92 H76 0.939 . S
C92 C91 1.396 1_556 S
C92 C93 1.397 . S
C93 C92 1.397 . S
C93 C94 1.385 1_545 S
C94 H77 0.940 . S
C94 C93 1.385 1_565 S
C94 C95 1.388 1_565 S
C95 H74 0.928 1_545 S
C95 C90 1.391 1_556 S
C95 C94 1.388 1_545 S
P96 O107 1.490 . S
P96 C110 1.812 . S
P96 C116 1.803 . S
P96 C122 1.819 1_554 S
H97 C111 0.941 . S
H98 C112 0.939 . S
H99 C114 0.940 . S
H100 C115 0.940 . S
H101 C117 0.939 1_556 S
H102 C118 0.942 . S
H103 C120 0.940 . S
H104 C121 0.939 . S
H105 C123 0.941 1_554 S
H106 C127 0.939 . S
O107 P96 1.490 . S
H108 C124 0.939 . S
H109 C126 0.940 . S
C110 P96 1.812 . S
C110 C111 1.389 . S
C110 C115 1.391 . S
C111 H97 0.941 . S
C111 C110 1.389 . S
C111 C112 1.397 . S
C112 H98 0.939 . S
C112 C111 1.397 . S
C112 C113 1.378 . S
C113 C112 1.378 . S
C113 C114 1.378 . S
C114 H99 0.940 . S
C114 C113 1.378 . S
C114 C115 1.396 . S
C115 H100 0.940 . S
C115 C110 1.391 . S
C115 C114 1.396 . S
C116 P96 1.803 . S
C116 C117 1.378 . S
C116 C121 1.400 . S
C117 H101 0.939 1_554 S
C117 C116 1.378 . S
C117 C118 1.361 1_554 S
C118 H102 0.942 . S
C118 C117 1.361 1_556 S
C118 C119 1.369 1_556 S
C119 C118 1.369 1_554 S
C119 C120 1.404 . S
C120 H103 0.940 . S
C120 C119 1.404 . S
C120 C121 1.389 . S
C121 H104 0.939 . S
C121 C116 1.400 . S
C121 C120 1.389 . S
C122 P96 1.819 1_556 S
C122 C123 1.391 . S
C122 C127 1.391 . S
C123 H105 0.941 1_556 S
C123 C122 1.391 . S
C123 C124 1.396 . S
C124 H108 0.939 . S
C124 C123 1.396 . S
C124 C125 1.397 . S
C125 C124 1.397 . S
C125 C126 1.385 . S
C126 H109 0.940 . S
C126 C125 1.385 . S
C126 C127 1.388 . S
C127 H106 0.939 . S
C127 C122 1.391 . S
C127 C126 1.388 . S
P128 O139 1.490 . S
P128 C142 1.812 . S
P128 C148 1.803 . S
P128 C154 1.819 . S
H129 C143 0.941 . S
H130 C144 0.939 . S
H131 C146 0.940 . S
H132 C147 0.940 . S
H133 C149 0.939 . S
H134 C150 0.942 . S
H135 C152 0.940 . S
H136 C153 0.939 . S
H137 C155 0.941 . S
H138 C159 0.939 . S
O139 P128 1.490 . S
H140 C156 0.939 . S
H141 C158 0.940 . S
C142 P128 1.812 . S
C142 C143 1.389 . S
C142 C147 1.391 . S
C143 H129 0.941 . S
C143 C142 1.389 . S
C143 C144 1.397 . S
C144 H130 0.939 . S
C144 C143 1.397 . S
C144 C145 1.378 . S
C145 C144 1.378 . S
C145 C146 1.378 . S
C146 H131 0.940 . S
C146 C145 1.378 . S
C146 C147 1.396 . S
C147 H132 0.940 . S
C147 C142 1.391 . S
C147 C146 1.396 . S
C148 P128 1.803 . S
C148 C149 1.378 . S
C148 C153 1.400 . S
C149 H133 0.939 . S
C149 C148 1.378 . S
C149 C150 1.361 . S
C150 H134 0.942 . S
C150 C149 1.361 . S
C150 C151 1.369 . S
C151 C150 1.369 . S
C151 C152 1.404 . S
C152 H135 0.940 . S
C152 C151 1.404 . S
C152 C153 1.389 . S
C153 H136 0.939 . S
C153 C148 1.400 . S
C153 C152 1.389 . S
C154 P128 1.819 . S
C154 C155 1.391 . S
C154 C159 1.391 . S
C155 H137 0.941 . S
C155 C154 1.391 . S
C155 C156 1.396 . S
C156 H140 0.939 . S
C156 C155 1.396 . S
C156 C157 1.397 . S
C157 C156 1.397 . S
C157 C158 1.385 . S
C158 H141 0.940 . S
C158 C157 1.385 . S
C158 C159 1.388 . S
C159 H138 0.939 . S
C159 C154 1.391 . S
C159 C158 1.388 . S
P160 O171 1.490 . S
P160 C174 1.812 . S
P160 C180 1.803 . S
P160 C186 1.819 . S
H161 C175 0.941 . S
H162 C176 0.939 . S
H163 C178 0.940 . S
H164 C179 0.940 . S
H165 C181 0.939 . S
H166 C182 0.942 . S
H167 C184 0.940 . S
H168 C185 0.939 . S
H169 C187 0.941 . S
H170 C191 0.939 . S
O171 P160 1.490 . S
H172 C188 0.939 . S
H173 C190 0.940 . S
C174 P160 1.812 . S
C174 C175 1.389 . S
C174 C179 1.391 . S
C175 H161 0.941 . S
C175 C174 1.389 . S
C175 C176 1.397 . S
C176 H162 0.939 . S
C176 C175 1.397 . S
C176 C177 1.378 . S
C177 C176 1.378 . S
C177 C178 1.378 . S
C178 H163 0.940 . S
C178 C177 1.378 . S
C178 C179 1.396 . S
C179 H164 0.940 . S
C179 C174 1.391 . S
C179 C178 1.396 . S
C180 P160 1.803 . S
C180 C181 1.378 . S
C180 C185 1.400 . S
C181 H165 0.939 . S
C181 C180 1.378 . S
C181 C182 1.361 . S
C182 H166 0.942 . S
C182 C181 1.361 . S
C182 C183 1.369 . S
C183 C182 1.369 . S
C183 C184 1.404 . S
C184 H167 0.940 . S
C184 C183 1.404 . S
C184 C185 1.389 . S
C185 H168 0.939 . S
C185 C180 1.400 . S
C185 C184 1.389 . S
C186 P160 1.819 . S
C186 C187 1.391 . S
C186 C191 1.391 . S
C187 H169 0.941 . S
C187 C186 1.391 . S
C187 C188 1.396 . S
C188 H172 0.939 . S
C188 C187 1.396 . S
C188 C189 1.397 . S
C189 C188 1.397 . S
C189 C190 1.385 . S
C190 H173 0.940 . S
C190 C189 1.385 . S
C190 C191 1.388 . S
C191 H170 0.939 . S
C191 C186 1.391 . S
C191 C190 1.388 . S
P192 O203 1.490 . S
P192 C206 1.812 . S
P192 C212 1.803 . S
P192 C218 1.819 . S
H193 C207 0.941 . S
H194 C208 0.939 . S
H195 C210 0.940 . S
H196 C211 0.942 . S
H197 C213 0.939 . S
H198 C214 0.942 . S
H199 C216 0.940 . S
H200 C217 0.958 . S
H201 C219 0.941 . S
H202 C223 0.933 1_565 S
O203 P192 1.490 . S
H204 C220 0.939 . S
H205 C222 0.940 . S
C206 P192 1.812 . S
C206 C207 1.389 . S
C206 C211 1.388 1_545 S
C207 H193 0.941 . S
C207 C206 1.389 . S
C207 C208 1.397 . S
C208 H194 0.939 . S
C208 C207 1.397 . S
C208 C209 1.378 . S
C209 C208 1.378 . S
C209 C210 1.378 1_545 S
C210 H195 0.940 . S
C210 C209 1.378 1_565 S
C210 C211 1.398 . S
C211 H196 0.942 . S
C211 C206 1.388 1_565 S
C211 C210 1.398 . S
C212 P192 1.803 . S
C212 C213 1.378 . S
C212 C217 1.371 1_545 S
C213 H197 0.939 . S
C213 C212 1.378 . S
C213 C214 1.361 . S
C214 H198 0.942 . S
C214 C213 1.361 . S
C214 C215 1.369 . S
C215 C214 1.369 . S
C215 C216 1.404 1_545 S
C216 H199 0.940 . S
C216 C215 1.404 1_565 S
C216 C217 1.400 . S
C217 H200 0.958 . S
C217 C212 1.371 1_565 S
C217 C216 1.400 . S
C218 P192 1.819 . S
C218 C219 1.391 . S
C218 C223 1.391 . S
C219 H201 0.941 . S
C219 C218 1.391 . S
C219 C220 1.396 . S
C220 H204 0.939 . S
C220 C219 1.396 . S
C220 C221 1.397 . S
C221 C220 1.397 . S
C221 C222 1.385 1_545 S
C222 H205 0.940 . S
C222 C221 1.385 1_565 S
C222 C223 1.388 1_565 S
C223 H202 0.933 1_545 S
C223 C218 1.391 . S
C223 C222 1.388 1_545 S
P224 O235 1.490 . S
P224 C238 1.812 . S
P224 C244 1.803 . S
P224 C250 1.819 . S
H225 C239 0.941 . S
H226 C240 0.939 . S
H227 C242 0.940 . S
H228 C243 0.940 . S
H229 C245 0.939 . S
H230 C246 0.942 . S
H231 C248 0.940 . S
H232 C249 0.939 . S
H233 C251 0.941 . S
H234 C255 0.939 . S
O235 P224 1.490 . S
H236 C252 0.939 . S
H237 C254 0.940 . S
C238 P224 1.812 . S
C238 C239 1.389 . S
C238 C243 1.391 . S
C239 H225 0.941 . S
C239 C238 1.389 . S
C239 C240 1.397 . S
C240 H226 0.939 . S
C240 C239 1.397 . S
C240 C241 1.378 . S
C241 C240 1.378 . S
C241 C242 1.378 . S
C242 H227 0.940 . S
C242 C241 1.378 . S
C242 C243 1.396 . S
C243 H228 0.940 . S
C243 C238 1.391 . S
C243 C242 1.396 . S
C244 P224 1.803 . S
C244 C245 1.378 . S
C244 C249 1.400 . S
C245 H229 0.939 . S
C245 C244 1.378 . S
C245 C246 1.361 . S
C246 H230 0.942 . S
C246 C245 1.361 . S
C246 C247 1.369 . S
C247 C246 1.369 . S
C247 C248 1.404 . S
C248 H231 0.940 . S
C248 C247 1.404 . S
C248 C249 1.389 . S
C249 H232 0.939 . S
C249 C244 1.400 . S
C249 C248 1.389 . S
C250 P224 1.819 . S
C250 C251 1.391 . S
C250 C255 1.391 . S
C251 H233 0.941 . S
C251 C250 1.391 . S
C251 C252 1.396 . S
C252 H236 0.939 . S
C252 C251 1.396 . S
C252 C253 1.397 . S
C253 C252 1.397 . S
C253 C254 1.385 . S
C254 H237 0.940 . S
C254 C253 1.385 . S
C254 C255 1.388 . S
C255 H234 0.939 . S
C255 C250 1.391 . S
C255 C254 1.388 . S
O256 Zn257 1.954 . S
O256 C272 1.228 . S
Zn257 O256 1.954 . S
Zn257 O258 1.948 . S
Zn257 O264 1.890 1_565 S
Zn257 O269 1.959 . S
O258 Zn257 1.948 . S
O258 Zn259 1.901 1_565 S
O258 Zn260 1.953 . S
O258 Zn261 1.963 . S
Zn259 O258 1.901 1_545 S
Zn259 O262 1.933 1_455 S
Zn259 O265 1.941 . S
Zn259 O266 1.965 . S
Zn260 O258 1.953 . S
Zn260 O267 1.938 1_565 S
Zn260 O268 1.906 . S
Zn260 O278 1.953 . S
Zn261 O258 1.963 . S
Zn261 O263 1.932 1_455 S
Zn261 O270 1.977 . S
Zn261 O271 1.910 . S
O262 Zn259 1.933 1_655 S
O262 C273 1.226 . S
O263 Zn261 1.932 1_655 S
O263 C273 1.307 1_565 S
O264 Zn257 1.890 1_545 S
O264 C275 1.253 . S
O265 Zn259 1.941 . S
O265 C275 1.283 . S
O266 Zn259 1.965 . S
O266 C274 1.303 . S
O267 Zn260 1.938 1_545 S
O267 C274 1.247 . S
O268 Zn260 1.906 . S
O268 C276 1.304 . S
O269 Zn257 1.959 . S
O269 C277 1.311 . S
O270 Zn261 1.977 . S
O270 C276 1.272 . S
O271 Zn261 1.910 . S
O271 C277 1.231 . S
C272 O256 1.228 . S
C272 O278 1.298 . S
C273 O262 1.226 . S
C273 O263 1.307 1_545 S
C274 O266 1.303 . S
C274 O267 1.247 . S
C275 O264 1.253 . S
C275 O265 1.283 . S
C276 O268 1.304 . S
C276 O270 1.272 . S
C277 O269 1.311 . S
C277 O271 1.231 . S
O278 Zn260 1.953 . S
O278 C272 1.298 . S
O279 Zn280 1.953 . S
O279 C295 1.225 . S
Zn280 O279 1.953 . S
Zn280 O281 1.949 . S
Zn280 O287 1.919 . S
Zn280 O292 1.924 . S
O281 Zn280 1.949 . S
O281 Zn282 1.923 1_545 S
O281 Zn283 1.950 . S
O281 Zn284 1.945 1_545 S
Zn282 O281 1.923 1_565 S
Zn282 O285 1.933 . S
Zn282 O288 1.941 . S
Zn282 O289 1.965 . S
Zn283 O281 1.950 . S
Zn283 O290 1.938 . S
Zn283 O291 1.892 1_545 S
Zn283 O301 1.953 . S
Zn284 O281 1.945 1_565 S
Zn284 O286 1.932 . S
Zn284 O293 1.977 . S
Zn284 O294 1.910 1_565 S
O285 Zn282 1.933 . S
O285 C296 1.226 . S
O286 Zn284 1.932 . S
O286 C296 1.307 . S
O287 Zn280 1.919 . S
O287 C298 1.253 . S
O288 Zn282 1.941 . S
O288 C298 1.283 1_565 S
O289 Zn282 1.965 . S
O289 C297 1.303 . S
O290 Zn283 1.938 . S
O290 C297 1.247 1_545 S
O291 Zn283 1.892 1_565 S
O291 C299 1.325 . S
O292 Zn280 1.924 . S
O292 C300 1.311 . S
O293 Zn284 1.977 . S
O293 C299 1.272 . S
O294 Zn284 1.910 1_545 S
O294 C300 1.231 . S
C295 O279 1.225 . S
C295 O301 1.298 . S
C296 O285 1.226 . S
C296 O286 1.307 . S
C297 O289 1.303 . S
C297 O290 1.247 1_565 S
C298 O287 1.253 . S
C298 O288 1.283 1_545 S
C299 O291 1.325 . S
C299 O293 1.272 . S
C300 O292 1.311 . S
C300 O294 1.231 . S
O301 Zn283 1.953 . S
O301 C295 1.298 . S
O302 Zn303 1.953 . S
O302 C318 1.225 . S
Zn303 O302 1.953 . S
Zn303 O304 1.949 . S
Zn303 O310 1.919 . S
Zn303 O315 1.924 . S
O304 Zn303 1.949 . S
O304 Zn305 1.923 . S
O304 Zn306 1.950 . S
O304 Zn307 1.945 . S
Zn305 O304 1.923 . S
Zn305 O308 1.933 . S
Zn305 O311 1.941 . S
Zn305 O312 1.965 . S
Zn306 O304 1.950 . S
Zn306 O313 1.938 . S
Zn306 O314 1.906 . S
Zn306 O324 1.953 . S
Zn307 O304 1.945 . S
Zn307 O309 1.932 . S
Zn307 O316 1.977 . S
Zn307 O317 1.910 . S
O308 Zn305 1.933 . S
O308 C319 1.226 . S
O309 Zn307 1.932 . S
O309 C319 1.307 . S
O310 Zn303 1.919 . S
O310 C321 1.253 . S
O311 Zn305 1.941 . S
O311 C321 1.283 . S
O312 Zn305 1.965 . S
O312 C320 1.303 . S
O313 Zn306 1.938 . S
O313 C320 1.247 . S
O314 Zn306 1.906 . S
O314 C322 1.304 . S
O315 Zn303 1.924 . S
O315 C323 1.311 . S
O316 Zn307 1.977 . S
O316 C322 1.272 . S
O317 Zn307 1.910 . S
O317 C323 1.231 . S
C318 O302 1.225 . S
C318 O324 1.298 . S
C319 O308 1.226 . S
C319 O309 1.307 . S
C320 O312 1.303 . S
C320 O313 1.247 . S
C321 O310 1.253 . S
C321 O311 1.283 . S
C322 O314 1.304 . S
C322 O316 1.272 . S
C323 O315 1.311 . S
C323 O317 1.231 . S
O324 Zn306 1.953 . S
O324 C318 1.298 . S
O325 Zn326 1.953 1_655 S
O325 C341 1.225 . S
Zn326 O325 1.953 1_455 S
Zn326 O327 1.949 . S
Zn326 O333 1.919 . S
Zn326 O338 1.924 . S
O327 Zn326 1.949 . S
O327 Zn328 1.923 . S
O327 Zn329 1.950 1_455 S
O327 Zn330 1.945 . S
Zn328 O327 1.923 . S
Zn328 O331 1.933 . S
Zn328 O334 1.944 . S
Zn328 O335 1.965 1_455 S
Zn329 O327 1.950 1_655 S
Zn329 O336 1.938 . S
Zn329 O337 1.906 1_655 S
Zn329 O347 1.953 . S
Zn330 O327 1.945 . S
Zn330 O332 1.932 . S
Zn330 O339 1.977 . S
Zn330 O340 1.910 . S
O331 Zn328 1.933 . S
O331 C342 1.226 . S
O332 Zn330 1.932 . S
O332 C342 1.307 . S
O333 Zn326 1.919 . S
O333 C344 1.253 . S
O334 Zn328 1.944 . S
O334 C344 1.287 . S
O335 Zn328 1.965 1_655 S
O335 C343 1.303 . S
O336 Zn329 1.938 . S
O336 C343 1.247 . S
O337 Zn329 1.906 1_455 S
O337 C345 1.304 . S
O338 Zn326 1.924 . S
O338 C346 1.311 . S
O339 Zn330 1.977 . S
O339 C345 1.272 . S
O340 Zn330 1.910 . S
O340 C346 1.231 . S
C341 O325 1.225 . S
C341 O347 1.298 . S
C342 O331 1.226 . S
C342 O332 1.307 . S
C343 O335 1.303 . S
C343 O336 1.247 . S
C344 O333 1.253 . S
C344 O334 1.287 . S
C345 O337 1.304 . S
C345 O339 1.272 . S
C346 O338 1.311 . S
C346 O340 1.231 . S
O347 Zn329 1.953 . S
O347 C341 1.298 . S
H348 C354 0.930 . S
H349 C358 0.930 . S
H350 C363 0.929 . S
H351 C361 0.929 . S
H352 C356 0.929 . S
H353 C362 0.929 . S
C354 H348 0.930 . S
C354 C355 1.352 1_545 S
C354 C362 1.378 . S
C355 C354 1.352 1_565 S
C355 C363 1.449 . S
C356 H352 0.929 . S
C356 C358 1.378 . S
C356 C360 1.350 . S
C357 C360 1.463 . S
C357 C362 1.350 1_565 S
C357 N365 1.427 . S
C358 H349 0.930 . S
C358 C356 1.378 . S
C358 C359 1.367 . S
C359 C358 1.367 . S
C359 C361 1.433 1_565 S
C360 C356 1.350 . S
C360 C357 1.463 . S
C360 N364 1.427 1_565 S
C361 H351 0.929 . S
C361 C359 1.433 1_545 S
C361 N364 1.384 . S
C362 H353 0.929 . S
C362 C354 1.378 . S
C362 C357 1.350 1_545 S
C363 H350 0.929 . S
C363 C355 1.449 . S
C363 N365 1.384 . S
N364 C360 1.427 1_545 S
N364 C361 1.384 . S
N365 C357 1.427 . S
N365 C363 1.384 . S
H366 C372 0.930 . S
H367 C376 0.930 . S
H368 C381 0.929 . S
H369 C379 0.929 . S
H370 C374 0.929 . S
H371 C380 0.929 . S
C372 H366 0.930 . S
C372 C373 1.367 . S
C372 C380 1.378 . S
C373 C372 1.367 . S
C373 C381 1.433 . S
C374 H370 0.929 . S
C374 C376 1.378 . S
C374 C378 1.350 . S
C375 C378 1.463 . S
C375 C380 1.350 . S
C375 N383 1.427 . S
C376 H367 0.930 . S
C376 C374 1.378 . S
C376 C377 1.367 . S
C377 C376 1.367 . S
C377 C379 1.433 . S
C378 C374 1.350 . S
C378 C375 1.463 . S
C378 N382 1.427 . S
C379 H369 0.929 . S
C379 C377 1.433 . S
C379 N382 1.384 . S
C380 H371 0.929 . S
C380 C372 1.378 . S
C380 C375 1.350 . S
C381 H368 0.929 . S
C381 C373 1.433 . S
C381 N383 1.384 . S
N382 C378 1.427 . S
N382 C379 1.384 . S
N383 C375 1.427 . S
N383 C381 1.384 . S
H384 C390 0.930 . S
H385 C394 0.930 . S
H386 C399 0.929 . S
H387 C397 0.929 . S
H388 C392 0.929 . S
H389 C398 0.929 . S
C390 H384 0.930 . S
C390 C391 1.367 . S
C390 C398 1.378 . S
C391 C390 1.367 . S
C391 C399 1.433 . S
C392 H388 0.929 . S
C392 C394 1.378 . S
C392 C396 1.350 . S
C393 C396 1.463 . S
C393 C398 1.350 . S
C393 N401 1.427 . S
C394 H385 0.930 . S
C394 C392 1.378 . S
C394 C395 1.367 . S
C395 C394 1.367 . S
C395 C397 1.433 . S
C396 C392 1.350 . S
C396 C393 1.463 . S
C396 N400 1.427 . S
C397 H387 0.929 . S
C397 C395 1.433 . S
C397 N400 1.384 . S
C398 H389 0.929 . S
C398 C390 1.378 . S
C398 C393 1.350 . S
C399 H386 0.929 . S
C399 C391 1.433 . S
C399 N401 1.384 . S
N400 C396 1.427 . S
N400 C397 1.384 . S
N401 C393 1.427 . S
N401 C399 1.384 . S
H402 C408 0.930 . S
H403 C412 0.930 . S
H404 C417 0.929 . S
H405 C415 0.929 . S
H406 C410 0.929 . S
H407 C416 0.929 . S
C408 H402 0.930 . S
C408 C409 1.367 . S
C408 C416 1.378 . S
C409 C408 1.367 . S
C409 C417 1.433 . S
C410 H406 0.929 . S
C410 C412 1.378 . S
C410 C414 1.350 . S
C411 C414 1.463 . S
C411 C416 1.350 . S
C411 N419 1.427 . S
C412 H403 0.930 . S
C412 C410 1.378 . S
C412 C413 1.367 . S
C413 C412 1.367 . S
C413 C415 1.433 . S
C414 C410 1.350 . S
C414 C411 1.463 . S
C414 N418 1.427 . S
C415 H405 0.929 . S
C415 C413 1.433 . S
C415 N418 1.384 . S
C416 H407 0.929 . S
C416 C408 1.378 . S
C416 C411 1.350 . S
C417 H404 0.929 . S
C417 C409 1.433 . S
C417 N419 1.384 . S
N418 C414 1.427 . S
N418 C415 1.384 . S
N419 C411 1.427 . S
N419 C417 1.384 . S
H420 C426 0.930 . S
H421 C430 0.930 . S
H422 C435 0.929 . S
H423 C433 0.929 . S
H424 C428 0.928 1_565 S
H425 C434 0.929 . S
C426 H420 0.930 . S
C426 C427 1.369 1_554 S
C426 C434 1.378 1_554 S
C427 C426 1.369 1_556 S
C427 C435 1.432 1_545 S
C428 H424 0.928 1_545 S
C428 C430 1.378 . S
C428 C432 1.350 . S
C429 C432 1.463 . S
C429 C434 1.350 . S
C429 N437 1.426 1_545 S
C430 H421 0.930 . S
C430 C428 1.378 . S
C430 C431 1.367 . S
C431 C430 1.367 . S
C431 C433 1.433 . S
C432 C428 1.350 . S
C432 C429 1.463 . S
C432 N436 1.427 . S
C433 H423 0.929 . S
C433 C431 1.433 . S
C433 N436 1.384 . S
C434 H425 0.929 . S
C434 C426 1.378 1_556 S
C434 C429 1.350 . S
C435 H422 0.929 . S
C435 C427 1.432 1_565 S
C435 N437 1.384 . S
N436 C432 1.427 . S
N436 C433 1.384 . S
N437 C429 1.426 1_565 S
N437 C435 1.384 . S
H438 C444 0.930 1_554 S
H439 C448 0.930 . S
H440 C453 0.929 . S
H441 C451 0.929 . S
H442 C446 0.929 . S
H443 C452 0.929 . S
C444 H438 0.930 1_556 S
C444 C445 1.367 . S
C444 C452 1.378 . S
C445 C444 1.367 . S
C445 C453 1.433 . S
C446 H442 0.929 . S
C446 C448 1.378 . S
C446 C450 1.350 . S
C447 C450 1.463 . S
C447 C452 1.350 . S
C447 N455 1.427 . S
C448 H439 0.930 . S
C448 C446 1.378 . S
C448 C449 1.367 . S
C449 C448 1.367 . S
C449 C451 1.433 . S
C450 C446 1.350 . S
C450 C447 1.463 . S
C450 N454 1.427 . S
C451 H441 0.929 . S
C451 C449 1.433 . S
C451 N454 1.384 . S
C452 H443 0.929 . S
C452 C444 1.378 . S
C452 C447 1.350 . S
C453 H440 0.929 . S
C453 C445 1.433 . S
C453 N455 1.384 . S
N454 C450 1.427 . S
N454 C451 1.384 . S
N455 C447 1.427 . S
N455 C453 1.384 . S
H456 C462 0.930 1_554 S
H457 C466 0.930 . S
H458 C471 0.929 . S
H459 C469 0.929 . S
H460 C464 0.929 . S
H461 C470 0.929 . S
C462 H456 0.930 1_556 S
C462 C463 1.367 . S
C462 C470 1.378 . S
C463 C462 1.367 . S
C463 C471 1.433 . S
C464 H460 0.929 . S
C464 C466 1.378 . S
C464 C468 1.350 . S
C465 C468 1.463 . S
C465 C470 1.350 . S
C465 N473 1.427 . S
C466 H457 0.930 . S
C466 C464 1.378 . S
C466 C467 1.367 . S
C467 C466 1.367 . S
C467 C469 1.433 . S
C468 C464 1.350 . S
C468 C465 1.463 . S
C468 N472 1.427 . S
C469 H459 0.929 . S
C469 C467 1.433 . S
C469 N472 1.384 . S
C470 H461 0.929 . S
C470 C462 1.378 . S
C470 C465 1.350 . S
C471 H458 0.929 . S
C471 C463 1.433 . S
C471 N473 1.384 . S
N472 C468 1.427 . S
N472 C469 1.384 . S
N473 C465 1.427 . S
N473 C471 1.384 . S
H474 C480 0.930 . S
H475 C484 0.930 . S
H476 C489 0.929 . S
H477 C487 0.929 . S
H478 C482 0.929 . S
H479 C488 0.929 . S
C480 H474 0.930 . S
C480 C481 1.367 1_456 S
C480 C488 1.378 . S
C481 C480 1.367 1_654 S
C481 C489 1.433 . S
C482 H478 0.929 . S
C482 C484 1.378 . S
C482 C486 1.350 1_655 S
C483 C486 1.463 . S
C483 C488 1.350 . S
C483 N491 1.427 1_455 S
C484 H475 0.930 . S
C484 C482 1.378 . S
C484 C485 1.367 1_655 S
C485 C484 1.367 1_455 S
C485 C487 1.433 . S
C486 C482 1.350 1_455 S
C486 C483 1.463 . S
C486 N490 1.427 . S
C487 H477 0.929 . S
C487 C485 1.433 . S
C487 N490 1.384 . S
C488 H479 0.929 . S
C488 C480 1.378 . S
C488 C483 1.350 . S
C489 H476 0.929 . S
C489 C481 1.433 . S
C489 N491 1.384 1_554 S
N490 C486 1.427 . S
N490 C487 1.384 . S
N491 C483 1.427 1_655 S
N491 C489 1.384 1_556 S
H492 C498 0.930 . S
H493 C502 0.930 . S
H494 C507 0.929 . S
H495 C505 0.929 . S
H496 C500 0.929 . S
H497 C506 0.929 . S
C498 H492 0.930 . S
C498 C499 1.367 . S
C498 C506 1.378 . S
C499 C498 1.367 . S
C499 C507 1.433 . S
C500 H496 0.929 . S
C500 C502 1.378 . S
C500 C504 1.350 . S
C501 C504 1.463 . S
C501 C506 1.350 . S
C501 N509 1.427 . S
C502 H493 0.930 . S
C502 C500 1.378 . S
C502 C503 1.367 . S
C503 C502 1.367 . S
C503 C505 1.433 . S
C504 C500 1.350 . S
C504 C501 1.463 . S
C504 N508 1.427 . S
C505 H495 0.929 . S
C505 C503 1.433 . S
C505 N508 1.384 . S
C506 H497 0.929 . S
C506 C498 1.378 . S
C506 C501 1.350 . S
C507 H494 0.929 . S
C507 C499 1.433 . S
C507 N509 1.384 . S
N508 C504 1.427 . S
N508 C505 1.384 . S
N509 C501 1.427 . S
N509 C507 1.384 . S
H510 C516 0.930 . S
H511 C520 0.930 . S
H512 C525 0.929 . S
H513 C523 0.929 . S
H514 C518 0.929 . S
H515 C524 0.929 . S
C516 H510 0.930 . S
C516 C517 1.399 . S
C516 C524 1.378 . S
C517 C516 1.399 . S
C517 C525 1.399 1_545 S
C518 H514 0.929 . S
C518 C520 1.378 . S
C518 C522 1.350 . S
C519 C522 1.463 1_545 S
C519 C524 1.347 . S
C519 N527 1.430 1_545 S
C520 H511 0.930 . S
C520 C518 1.378 . S
C520 C521 1.367 . S
C521 C520 1.367 . S
C521 C523 1.433 1_565 S
C522 C518 1.350 . S
C522 C519 1.463 1_565 S
C522 N526 1.427 1_565 S
C523 H513 0.929 . S
C523 C521 1.433 1_545 S
C523 N526 1.384 . S
C524 H515 0.929 . S
C524 C516 1.378 . S
C524 C519 1.347 . S
C525 H512 0.929 . S
C525 C517 1.399 1_565 S
C525 N527 1.384 . S
N526 C522 1.427 1_545 S
N526 C523 1.384 . S
N527 C519 1.430 1_565 S
N527 C525 1.384 . S
H528 C534 0.930 . S
H529 C538 0.930 . S
H530 C543 0.929 . S
H531 C541 0.929 . S
H532 C536 0.929 . S
H533 C542 0.929 . S
C534 H528 0.930 . S
C534 C535 1.367 . S
C534 C542 1.378 . S
C535 C534 1.367 . S
C535 C543 1.433 . S
C536 H532 0.929 . S
C536 C538 1.378 . S
C536 C540 1.350 . S
C537 C540 1.463 . S
C537 C542 1.350 . S
C537 N545 1.427 . S
C538 H529 0.930 . S
C538 C536 1.378 . S
C538 C539 1.367 . S
C539 C538 1.367 . S
C539 C541 1.433 . S
C540 C536 1.350 . S
C540 C537 1.463 . S
C540 N544 1.427 . S
C541 H531 0.929 . S
C541 C539 1.433 . S
C541 N544 1.384 . S
C542 H533 0.929 . S
C542 C534 1.378 . S
C542 C537 1.350 . S
C543 H530 0.929 . S
C543 C535 1.433 . S
C543 N545 1.384 . S
N544 C540 1.427 . S
N544 C541 1.384 . S
N545 C537 1.427 . S
N545 C543 1.384 . S
H546 C552 0.930 . S
H547 C556 0.930 . S
H548 C561 0.929 . S
H549 C559 0.929 . S
H550 C554 0.929 . S
H551 C560 0.929 . S
C552 H546 0.930 . S
C552 C553 1.367 . S
C552 C560 1.378 . S
C553 C552 1.367 . S
C553 C561 1.433 . S
C554 H550 0.929 . S
C554 C556 1.378 . S
C554 C558 1.350 . S
C555 C558 1.463 . S
C555 C560 1.350 . S
C555 N563 1.427 . S
C556 H547 0.930 . S
C556 C554 1.378 . S
C556 C557 1.367 . S
C557 C556 1.367 . S
C557 C559 1.433 . S
C558 C554 1.350 . S
C558 C555 1.463 . S
C558 N562 1.427 . S
C559 H549 0.929 . S
C559 C557 1.433 . S
C559 N562 1.384 . S
C560 H551 0.929 . S
C560 C552 1.378 . S
C560 C555 1.350 . S
C561 H548 0.929 . S
C561 C553 1.433 . S
C561 N563 1.384 . S
N562 C558 1.427 . S
N562 C559 1.384 . S
N563 C555 1.427 . S
N563 C561 1.384 . S
H564 C570 0.930 . S
H565 C574 0.930 . S
H566 C579 0.929 1_554 S
H567 C577 0.929 . S
H568 C572 0.929 . S
H569 C578 0.929 . S
C570 H564 0.930 . S
C570 C571 1.367 . S
C570 C578 1.378 1_655 S
C571 C570 1.367 . S
C571 C579 1.433 1_655 S
C572 H568 0.929 . S
C572 C574 1.378 . S
C572 C576 1.350 . S
C573 C576 1.463 . S
C573 C578 1.350 . S
C573 N581 1.427 . S
C574 H565 0.930 . S
C574 C572 1.378 . S
C574 C575 1.367 . S
C575 C574 1.367 . S
C575 C577 1.433 . S
C576 C572 1.350 . S
C576 C573 1.463 . S
C576 N580 1.427 . S
C577 H567 0.929 . S
C577 C575 1.433 . S
C577 N580 1.384 . S
C578 H569 0.929 . S
C578 C570 1.378 1_455 S
C578 C573 1.350 . S
C579 H566 0.929 1_556 S
C579 C571 1.433 1_455 S
C579 N581 1.384 . S
N580 C576 1.427 . S
N580 C577 1.384 . S
N581 C573 1.427 . S
N581 C579 1.384 . S
H582 C588 0.930 . S
H583 C592 0.949 . S
H584 C597 0.929 . S
H585 C595 0.929 . S
H586 C590 0.929 1_565 S
H587 C596 0.929 . S
C588 H582 0.930 . S
C588 C589 1.367 1_545 S
C588 C596 1.378 . S
C589 C588 1.367 1_565 S
C589 C597 1.433 . S
C590 H586 0.929 1_545 S
C590 C592 1.378 . S
C590 C594 1.350 . S
C591 C594 1.463 . S
C591 C596 1.350 . S
C591 N599 1.427 1_545 S
C592 H583 0.949 . S
C592 C590 1.378 . S
C592 C593 1.367 . S
C593 C592 1.367 . S
C593 C595 1.433 . S
C594 C590 1.350 . S
C594 C591 1.463 . S
C594 N598 1.427 . S
C595 H585 0.929 . S
C595 C593 1.433 . S
C595 N598 1.384 . S
C596 H587 0.929 . S
C596 C588 1.378 . S
C596 C591 1.350 . S
C597 H584 0.929 . S
C597 C589 1.433 . S
C597 N599 1.384 . S
N598 C594 1.427 . S
N598 C595 1.384 . S
N599 C591 1.427 1_565 S
N599 C597 1.384 . S
H600 C606 0.930 . S
H601 C610 0.930 . S
H602 C615 0.929 . S
H603 C613 0.929 . S
H604 C608 0.929 . S
H605 C614 0.929 . S
C606 H600 0.930 . S
C606 C607 1.367 . S
C606 C614 1.378 . S
C607 C606 1.367 . S
C607 C615 1.433 . S
C608 H604 0.929 . S
C608 C610 1.378 . S
C608 C612 1.350 . S
C609 C612 1.463 . S
C609 C614 1.350 . S
C609 N617 1.427 . S
C610 H601 0.930 . S
C610 C608 1.378 . S
C610 C611 1.367 . S
C611 C610 1.367 . S
C611 C613 1.433 . S
C612 C608 1.350 . S
C612 C609 1.463 . S
C612 N616 1.427 . S
C613 H603 0.929 . S
C613 C611 1.433 . S
C613 N616 1.384 . S
C614 H605 0.929 . S
C614 C606 1.378 . S
C614 C609 1.350 . S
C615 H602 0.929 . S
C615 C607 1.433 . S
C615 N617 1.384 . S
N616 C612 1.427 . S
N616 C613 1.384 . S
N617 C609 1.427 . S
N617 C615 1.384 . S
H618 C624 0.930 . S
H619 C628 0.930 . S
H620 C633 0.929 . S
H621 C631 0.929 . S
H622 C626 0.929 . S
H623 C632 0.929 . S
C624 H618 0.930 . S
C624 C625 1.367 . S
C624 C632 1.378 . S
C625 C624 1.367 . S
C625 C633 1.433 . S
C626 H622 0.929 . S
C626 C628 1.378 . S
C626 C630 1.350 . S
C627 C630 1.463 . S
C627 C632 1.350 . S
C627 N635 1.427 . S
C628 H619 0.930 . S
C628 C626 1.378 . S
C628 C629 1.367 . S
C629 C628 1.367 . S
C629 C631 1.433 . S
C630 C626 1.350 . S
C630 C627 1.463 . S
C630 N634 1.427 . S
C631 H621 0.929 . S
C631 C629 1.433 . S
C631 N634 1.384 . S
C632 H623 0.929 . S
C632 C624 1.378 . S
C632 C627 1.350 . S
C633 H620 0.929 . S
C633 C625 1.433 . S
C633 N635 1.384 . S
N634 C630 1.427 . S
N634 C631 1.384 . S
N635 C627 1.427 . S
N635 C633 1.384 . S
H636 C642 0.930 . S
H637 C646 0.930 . S
H638 C651 0.929 . S
H639 C649 0.929 . S
H640 C644 0.929 . S
H641 C650 0.929 . S
C642 H636 0.930 . S
C642 C643 1.367 . S
C642 C650 1.378 . S
C643 C642 1.367 . S
C643 C651 1.433 . S
C644 H640 0.929 . S
C644 C646 1.378 . S
C644 C648 1.350 . S
C645 C648 1.463 1_554 S
C645 C650 1.350 . S
C645 N653 1.427 1_554 S
C646 H637 0.930 . S
C646 C644 1.378 . S
C646 C647 1.367 . S
C647 C646 1.367 . S
C647 C649 1.433 . S
C648 C644 1.350 . S
C648 C645 1.463 1_556 S
C648 N652 1.427 . S
C649 H639 0.929 . S
C649 C647 1.433 . S
C649 N652 1.384 . S
C650 H641 0.929 . S
C650 C642 1.378 . S
C650 C645 1.350 . S
C651 H638 0.929 . S
C651 C643 1.433 . S
C651 N653 1.384 1_554 S
N652 C648 1.427 . S
N652 C649 1.384 . S
N653 C645 1.427 1_556 S
N653 C651 1.384 1_556 S
H654 C660 0.930 . S
H655 C664 0.930 . S
H656 C669 0.929 . S
H657 C667 0.929 . S
H658 C662 0.929 . S
H659 C668 0.929 . S
C660 H654 0.930 . S
C660 C661 1.380 . S
C660 C668 1.378 1_554 S
C661 C660 1.380 . S
C661 C669 1.420 1_565 S
C662 H658 0.929 . S
C662 C664 1.378 . S
C662 C666 1.378 . S
C663 C666 1.462 1_565 S
C663 C668 1.380 . S
C663 N671 1.396 1_565 S
C664 H655 0.930 . S
C664 C662 1.378 . S
C664 C665 1.378 . S
C665 C664 1.378 . S
C665 C667 1.422 1_545 S
C666 C662 1.378 . S
C666 C663 1.462 1_545 S
C666 N670 1.398 1_545 S
C667 H657 0.929 . S
C667 C665 1.422 1_565 S
C667 N670 1.384 . S
C668 H659 0.929 . S
C668 C660 1.378 1_556 S
C668 C663 1.380 . S
C669 H656 0.929 . S
C669 C661 1.420 1_545 S
C669 N671 1.384 1_554 S
N670 C666 1.398 1_565 S
N670 C667 1.384 . S
N671 C663 1.396 1_545 S
N671 C669 1.384 1_556 S
H672 C678 0.930 . S
H673 C682 0.930 . S
H674 C687 0.929 . S
H675 C685 0.929 . S
H676 C680 0.929 . S
H677 C686 0.929 . S
C678 H672 0.930 . S
C678 C679 1.367 1_556 S
C678 C686 1.378 . S
C679 C678 1.367 1_554 S
C679 C687 1.433 . S
C680 H676 0.929 . S
C680 C682 1.378 . S
C680 C684 1.350 . S
C681 C684 1.463 . S
C681 C686 1.350 . S
C681 N689 1.427 1_556 S
C682 H673 0.930 . S
C682 C680 1.378 . S
C682 C683 1.367 . S
C683 C682 1.367 . S
C683 C685 1.433 . S
C684 C680 1.350 . S
C684 C681 1.463 . S
C684 N688 1.427 . S
C685 H675 0.929 . S
C685 C683 1.433 . S
C685 N688 1.384 . S
C686 H677 0.929 . S
C686 C678 1.378 . S
C686 C681 1.350 . S
C687 H674 0.929 . S
C687 C679 1.433 . S
C687 N689 1.384 . S
N688 C684 1.427 . S
N688 C685 1.384 . S
N689 C681 1.427 1_554 S
N689 C687 1.384 . S
H690 C696 0.930 . S
H691 C700 0.930 . S
H692 C705 0.929 . S
H693 C703 0.929 . S
H694 C698 0.929 . S
H695 C704 0.929 . S
C696 H690 0.930 . S
C696 C697 1.367 1_556 S
C696 C704 1.378 . S
C697 C696 1.367 1_554 S
C697 C705 1.433 . S
C698 H694 0.929 . S
C698 C700 1.378 . S
C698 C702 1.350 . S
C699 C702 1.463 . S
C699 C704 1.350 . S
C699 N707 1.427 1_556 S
C700 H691 0.930 . S
C700 C698 1.378 . S
C700 C701 1.367 . S
C701 C700 1.367 . S
C701 C703 1.433 . S
C702 C698 1.350 . S
C702 C699 1.463 . S
C702 N706 1.427 . S
C703 H693 0.929 . S
C703 C701 1.433 . S
C703 N706 1.384 . S
C704 H695 0.929 . S
C704 C696 1.378 . S
C704 C699 1.350 . S
C705 H692 0.929 . S
C705 C697 1.433 . S
C705 N707 1.384 . S
N706 C702 1.427 . S
N706 C703 1.384 . S
N707 C699 1.427 1_554 S
N707 C705 1.384 . S
H708 C714 0.930 . S
H709 C718 0.930 . S
H710 C723 0.929 . S
H711 C721 0.929 . S
H712 C716 0.929 . S
H713 C722 0.929 . S
C714 H708 0.930 . S
C714 C715 1.367 1_455 S
C714 C722 1.378 . S
C715 C714 1.367 1_655 S
C715 C723 1.433 . S
C716 H712 0.929 . S
C716 C718 1.378 . S
C716 C720 1.350 . S
C717 C720 1.463 . S
C717 C722 1.350 1_655 S
C717 N725 1.427 . S
C718 H709 0.930 . S
C718 C716 1.378 . S
C718 C719 1.367 . S
C719 C718 1.367 . S
C719 C721 1.433 1_655 S
C720 C716 1.350 . S
C720 C717 1.463 . S
C720 N724 1.427 1_655 S
C721 H711 0.929 . S
C721 C719 1.433 1_455 S
C721 N724 1.384 . S
C722 H713 0.929 . S
C722 C714 1.378 . S
C722 C717 1.350 1_455 S
C723 H710 0.929 . S
C723 C715 1.433 . S
C723 N725 1.384 . S
N724 C720 1.427 1_455 S
N724 C721 1.384 . S
N725 C717 1.427 . S
N725 C723 1.384 . S
H726 C732 0.930 . S
H727 C736 0.930 . S
H728 C741 0.929 . S
H729 C739 0.929 . S
H730 C734 0.929 . S
H731 C740 0.929 . S
C732 H726 0.930 . S
C732 C733 1.367 . S
C732 C740 1.378 . S
C733 C732 1.367 . S
C733 C741 1.433 1_565 S
C734 H730 0.929 . S
C734 C736 1.378 . S
C734 C738 1.350 1_545 S
C735 C738 1.463 . S
C735 C740 1.350 . S
C735 N743 1.427 1_565 S
C736 H727 0.930 . S
C736 C734 1.378 . S
C736 C737 1.367 1_545 S
C737 C736 1.367 1_565 S
C737 C739 1.433 . S
C738 C734 1.350 1_565 S
C738 C735 1.463 . S
C738 N742 1.427 . S
C739 H729 0.929 . S
C739 C737 1.433 . S
C739 N742 1.384 . S
C740 H731 0.929 . S
C740 C732 1.378 . S
C740 C735 1.350 . S
C741 H728 0.929 . S
C741 C733 1.433 1_545 S
C741 N743 1.384 . S
N742 C738 1.427 . S
N742 C739 1.384 . S
N743 C735 1.427 1_545 S
N743 C741 1.384 . S
H744 C750 0.930 . S
H745 C754 0.930 . S
H746 C759 0.929 . S
H747 C757 0.929 . S
H748 C752 0.929 . S
H749 C758 0.929 . S
C750 H744 0.930 . S
C750 C751 1.367 . S
C750 C758 1.378 . S
C751 C750 1.367 . S
C751 C759 1.433 . S
C752 H748 0.929 . S
C752 C754 1.378 . S
C752 C756 1.350 . S
C753 C756 1.463 . S
C753 C758 1.350 . S
C753 N761 1.427 . S
C754 H745 0.930 . S
C754 C752 1.378 . S
C754 C755 1.367 . S
C755 C754 1.367 . S
C755 C757 1.433 . S
C756 C752 1.350 . S
C756 C753 1.463 . S
C756 N760 1.427 . S
C757 H747 0.929 . S
C757 C755 1.433 . S
C757 N760 1.384 . S
C758 H749 0.929 . S
C758 C750 1.378 . S
C758 C753 1.350 . S
C759 H746 0.929 . S
C759 C751 1.433 . S
C759 N761 1.384 . S
N760 C756 1.427 . S
N760 C757 1.384 . S
N761 C753 1.427 . S
N761 C759 1.384 . S
H762 C768 0.930 . S
H763 C772 0.930 . S
H764 C777 0.929 . S
H765 C775 0.929 . S
H766 C770 0.929 . S
H767 C776 0.929 . S
C768 H762 0.930 . S
C768 C769 1.367 . S
C768 C776 1.378 . S
C769 C768 1.367 . S
C769 C777 1.433 . S
C770 H766 0.929 . S
C770 C772 1.378 . S
C770 C774 1.350 . S
C771 C774 1.463 . S
C771 C776 1.350 . S
C771 N779 1.427 . S
C772 H763 0.930 . S
C772 C770 1.378 . S
C772 C773 1.367 . S
C773 C772 1.367 . S
C773 C775 1.433 . S
C774 C770 1.350 . S
C774 C771 1.463 . S
C774 N778 1.427 . S
C775 H765 0.929 . S
C775 C773 1.433 . S
C775 N778 1.384 . S
C776 H767 0.929 . S
C776 C768 1.378 . S
C776 C771 1.350 . S
C777 H764 0.929 . S
C777 C769 1.433 . S
C777 N779 1.384 . S
N778 C774 1.427 . S
N778 C775 1.384 . S
N779 C771 1.427 . S
N779 C777 1.384 . S
C355 C215 1.602 1_565 S
C359 C272 1.620 . S
C377 C295 1.761 . S
C373 C247 1.784 . S
C395 C318 1.675 . S
C391 C151 1.641 . S
C413 C345 1.558 . S
C409 C183 1.673 . S
C431 C273 1.569 . S
C427 C87 1.536 1_556 S
C445 C119 1.510 1_556 S
C449 C296 1.580 . S
C463 C23 1.438 . S
C467 C319 1.459 . S
C481 C55 1.583 . S
C485 C344 1.632 . S
C503 C274 0.158 . S
C499 C189 0.276 . S
C521 C297 0.136 . S
C517 C221 0.402 . S
C539 C320 0.152 . S
C535 C253 0.194 . S
C553 C157 0.368 . S
C557 C346 0.526 . S
C571 C61 0.585 1_655 S
C575 C277 0.593 . S
C593 C300 0.570 . S
C589 C93 0.494 1_565 S
C611 C323 0.637 . S
C607 C125 0.648 . S
C625 C29 0.319 . S
C629 C343 0.153 . S
C643 C177 1.825 . S
C647 C275 1.785 . S
C661 C209 1.704 1_565 S
C665 C298 1.722 . S
C683 C321 1.759 . S
C679 C241 1.762 . S
C701 C342 1.522 . S
C697 C145 1.432 . S
C715 C49 1.795 1_655 S
C719 C276 1.760 1_655 S
C737 C299 1.646 . S
C733 C81 1.715 1_565 S
C755 C322 1.640 . S
C751 C113 1.671 . S
C769 C17 1.842 . S
C773 C341 1.889 . S
